# Generated by pormake.
# Topology wgq, (5)-cn, num edge types: 1
# Building blocks:
#     Node 0, Type 0, BuildingBlock: BEQFEK_clean_sbu_0, # of connection points: 5
#     Node 1, Type 0, BuildingBlock: BEQFEK_clean_sbu_0, # of connection points: 5
#     Node 2, Type 0, BuildingBlock: BEQFEK_clean_sbu_0, # of connection points: 5
#     Node 3, Type 0, BuildingBlock: BEQFEK_clean_sbu_0, # of connection points: 5
#     Node 4, Type 0, BuildingBlock: BEQFEK_clean_sbu_0, # of connection points: 5
#     Node 5, Type 0, BuildingBlock: BEQFEK_clean_sbu_0, # of connection points: 5
#     Node 6, Type 0, BuildingBlock: BEQFEK_clean_sbu_0, # of connection points: 5
#     Node 7, Type 0, BuildingBlock: BEQFEK_clean_sbu_0, # of connection points: 5
#     Node 8, Type 0, BuildingBlock: BEQFEK_clean_sbu_0, # of connection points: 5
#     Node 9, Type 0, BuildingBlock: BEQFEK_clean_sbu_0, # of connection points: 5
#     Node 10, Type 0, BuildingBlock: BEQFEK_clean_sbu_0, # of connection points: 5
#     Node 11, Type 0, BuildingBlock: BEQFEK_clean_sbu_0, # of connection points: 5
#     Node 12, Type 0, BuildingBlock: BEQFEK_clean_sbu_0, # of connection points: 5
#     Node 13, Type 0, BuildingBlock: BEQFEK_clean_sbu_0, # of connection points: 5
#     Node 14, Type 0, BuildingBlock: BEQFEK_clean_sbu_0, # of connection points: 5
#     Node 15, Type 0, BuildingBlock: BEQFEK_clean_sbu_0, # of connection points: 5
#     Node 16, Type 0, BuildingBlock: BEQFEK_clean_sbu_0, # of connection points: 5
#     Node 17, Type 0, BuildingBlock: BEQFEK_clean_sbu_0, # of connection points: 5
#     Node 18, Type 0, BuildingBlock: BEQFEK_clean_sbu_0, # of connection points: 5
#     Node 19, Type 0, BuildingBlock: BEQFEK_clean_sbu_0, # of connection points: 5
#     Node 20, Type 0, BuildingBlock: BEQFEK_clean_sbu_0, # of connection points: 5
#     Node 21, Type 0, BuildingBlock: BEQFEK_clean_sbu_0, # of connection points: 5
#     Node 22, Type 0, BuildingBlock: BEQFEK_clean_sbu_0, # of connection points: 5
#     Node 23, Type 0, BuildingBlock: BEQFEK_clean_sbu_0, # of connection points: 5
#     Node 24, Type 0, BuildingBlock: BEQFEK_clean_sbu_0, # of connection points: 5
#     Node 25, Type 0, BuildingBlock: BEQFEK_clean_sbu_0, # of connection points: 5
#     Node 26, Type 0, BuildingBlock: BEQFEK_clean_sbu_0, # of connection points: 5
#     Node 27, Type 0, BuildingBlock: BEQFEK_clean_sbu_0, # of connection points: 5
#     Node 28, Type 0, BuildingBlock: BEQFEK_clean_sbu_0, # of connection points: 5
#     Node 29, Type 0, BuildingBlock: BEQFEK_clean_sbu_0, # of connection points: 5
#     Node 30, Type 0, BuildingBlock: BEQFEK_clean_sbu_0, # of connection points: 5
#     Node 31, Type 0, BuildingBlock: BEQFEK_clean_sbu_0, # of connection points: 5
#     Edge 32, Type (0, 0), BuildingBlock: UVAHIK_clean_linker_0, # of connection points: 2
#     Edge 33, Type (0, 0), BuildingBlock: UVAHIK_clean_linker_0, # of connection points: 2
#     Edge 34, Type (0, 0), BuildingBlock: UVAHIK_clean_linker_0, # of connection points: 2
#     Edge 35, Type (0, 0), BuildingBlock: UVAHIK_clean_linker_0, # of connection points: 2
#     Edge 36, Type (0, 0), BuildingBlock: UVAHIK_clean_linker_0, # of connection points: 2
#     Edge 37, Type (0, 0), BuildingBlock: UVAHIK_clean_linker_0, # of connection points: 2
#     Edge 38, Type (0, 0), BuildingBlock: UVAHIK_clean_linker_0, # of connection points: 2
#     Edge 39, Type (0, 0), BuildingBlock: UVAHIK_clean_linker_0, # of connection points: 2
#     Edge 40, Type (0, 0), BuildingBlock: UVAHIK_clean_linker_0, # of connection points: 2
#     Edge 41, Type (0, 0), BuildingBlock: UVAHIK_clean_linker_0, # of connection points: 2
#     Edge 42, Type (0, 0), BuildingBlock: UVAHIK_clean_linker_0, # of connection points: 2
#     Edge 43, Type (0, 0), BuildingBlock: UVAHIK_clean_linker_0, # of connection points: 2
#     Edge 44, Type (0, 0), BuildingBlock: UVAHIK_clean_linker_0, # of connection points: 2
#     Edge 45, Type (0, 0), BuildingBlock: UVAHIK_clean_linker_0, # of connection points: 2
#     Edge 46, Type (0, 0), BuildingBlock: UVAHIK_clean_linker_0, # of connection points: 2
#     Edge 47, Type (0, 0), BuildingBlock: UVAHIK_clean_linker_0, # of connection points: 2
#     Edge 48, Type (0, 0), BuildingBlock: UVAHIK_clean_linker_0, # of connection points: 2
#     Edge 49, Type (0, 0), BuildingBlock: UVAHIK_clean_linker_0, # of connection points: 2
#     Edge 50, Type (0, 0), BuildingBlock: UVAHIK_clean_linker_0, # of connection points: 2
#     Edge 51, Type (0, 0), BuildingBlock: UVAHIK_clean_linker_0, # of connection points: 2
#     Edge 52, Type (0, 0), BuildingBlock: UVAHIK_clean_linker_0, # of connection points: 2
#     Edge 53, Type (0, 0), BuildingBlock: UVAHIK_clean_linker_0, # of connection points: 2
#     Edge 54, Type (0, 0), BuildingBlock: UVAHIK_clean_linker_0, # of connection points: 2
#     Edge 55, Type (0, 0), BuildingBlock: UVAHIK_clean_linker_0, # of connection points: 2
#     Edge 56, Type (0, 0), BuildingBlock: UVAHIK_clean_linker_0, # of connection points: 2
#     Edge 57, Type (0, 0), BuildingBlock: UVAHIK_clean_linker_0, # of connection points: 2
#     Edge 58, Type (0, 0), BuildingBlock: UVAHIK_clean_linker_0, # of connection points: 2
#     Edge 59, Type (0, 0), BuildingBlock: UVAHIK_clean_linker_0, # of connection points: 2
#     Edge 60, Type (0, 0), BuildingBlock: UVAHIK_clean_linker_0, # of connection points: 2
#     Edge 61, Type (0, 0), BuildingBlock: UVAHIK_clean_linker_0, # of connection points: 2
#     Edge 62, Type (0, 0), BuildingBlock: UVAHIK_clean_linker_0, # of connection points: 2
#     Edge 63, Type (0, 0), BuildingBlock: UVAHIK_clean_linker_0, # of connection points: 2
#     Edge 64, Type (0, 0), BuildingBlock: UVAHIK_clean_linker_0, # of connection points: 2
#     Edge 65, Type (0, 0), BuildingBlock: UVAHIK_clean_linker_0, # of connection points: 2
#     Edge 66, Type (0, 0), BuildingBlock: UVAHIK_clean_linker_0, # of connection points: 2
#     Edge 67, Type (0, 0), BuildingBlock: UVAHIK_clean_linker_0, # of connection points: 2
#     Edge 68, Type (0, 0), BuildingBlock: UVAHIK_clean_linker_0, # of connection points: 2
#     Edge 69, Type (0, 0), BuildingBlock: UVAHIK_clean_linker_0, # of connection points: 2
#     Edge 70, Type (0, 0), BuildingBlock: UVAHIK_clean_linker_0, # of connection points: 2
#     Edge 71, Type (0, 0), BuildingBlock: UVAHIK_clean_linker_0, # of connection points: 2
#     Edge 72, Type (0, 0), BuildingBlock: UVAHIK_clean_linker_0, # of connection points: 2
#     Edge 73, Type (0, 0), BuildingBlock: UVAHIK_clean_linker_0, # of connection points: 2
#     Edge 74, Type (0, 0), BuildingBlock: UVAHIK_clean_linker_0, # of connection points: 2
#     Edge 75, Type (0, 0), BuildingBlock: UVAHIK_clean_linker_0, # of connection points: 2
#     Edge 76, Type (0, 0), BuildingBlock: UVAHIK_clean_linker_0, # of connection points: 2
#     Edge 77, Type (0, 0), BuildingBlock: UVAHIK_clean_linker_0, # of connection points: 2
#     Edge 78, Type (0, 0), BuildingBlock: UVAHIK_clean_linker_0, # of connection points: 2
#     Edge 79, Type (0, 0), BuildingBlock: UVAHIK_clean_linker_0, # of connection points: 2
#     Edge 80, Type (0, 0), BuildingBlock: UVAHIK_clean_linker_0, # of connection points: 2
#     Edge 81, Type (0, 0), BuildingBlock: UVAHIK_clean_linker_0, # of connection points: 2
#     Edge 82, Type (0, 0), BuildingBlock: UVAHIK_clean_linker_0, # of connection points: 2
#     Edge 83, Type (0, 0), BuildingBlock: UVAHIK_clean_linker_0, # of connection points: 2
#     Edge 84, Type (0, 0), BuildingBlock: UVAHIK_clean_linker_0, # of connection points: 2
#     Edge 85, Type (0, 0), BuildingBlock: UVAHIK_clean_linker_0, # of connection points: 2
#     Edge 86, Type (0, 0), BuildingBlock: UVAHIK_clean_linker_0, # of connection points: 2
#     Edge 87, Type (0, 0), BuildingBlock: UVAHIK_clean_linker_0, # of connection points: 2
#     Edge 88, Type (0, 0), BuildingBlock: UVAHIK_clean_linker_0, # of connection points: 2
#     Edge 89, Type (0, 0), BuildingBlock: UVAHIK_clean_linker_0, # of connection points: 2
#     Edge 90, Type (0, 0), BuildingBlock: UVAHIK_clean_linker_0, # of connection points: 2
#     Edge 91, Type (0, 0), BuildingBlock: UVAHIK_clean_linker_0, # of connection points: 2
#     Edge 92, Type (0, 0), BuildingBlock: UVAHIK_clean_linker_0, # of connection points: 2
#     Edge 93, Type (0, 0), BuildingBlock: UVAHIK_clean_linker_0, # of connection points: 2
#     Edge 94, Type (0, 0), BuildingBlock: UVAHIK_clean_linker_0, # of connection points: 2
#     Edge 95, Type (0, 0), BuildingBlock: UVAHIK_clean_linker_0, # of connection points: 2
#     Edge 96, Type (0, 0), BuildingBlock: UVAHIK_clean_linker_0, # of connection points: 2
#     Edge 97, Type (0, 0), BuildingBlock: UVAHIK_clean_linker_0, # of connection points: 2
#     Edge 98, Type (0, 0), BuildingBlock: UVAHIK_clean_linker_0, # of connection points: 2
#     Edge 99, Type (0, 0), BuildingBlock: UVAHIK_clean_linker_0, # of connection points: 2
#     Edge 100, Type (0, 0), BuildingBlock: UVAHIK_clean_linker_0, # of connection points: 2
#     Edge 101, Type (0, 0), BuildingBlock: UVAHIK_clean_linker_0, # of connection points: 2
#     Edge 102, Type (0, 0), BuildingBlock: UVAHIK_clean_linker_0, # of connection points: 2
#     Edge 103, Type (0, 0), BuildingBlock: UVAHIK_clean_linker_0, # of connection points: 2
#     Edge 104, Type (0, 0), BuildingBlock: UVAHIK_clean_linker_0, # of connection points: 2
#     Edge 105, Type (0, 0), BuildingBlock: UVAHIK_clean_linker_0, # of connection points: 2
#     Edge 106, Type (0, 0), BuildingBlock: UVAHIK_clean_linker_0, # of connection points: 2
#     Edge 107, Type (0, 0), BuildingBlock: UVAHIK_clean_linker_0, # of connection points: 2
#     Edge 108, Type (0, 0), BuildingBlock: UVAHIK_clean_linker_0, # of connection points: 2
#     Edge 109, Type (0, 0), BuildingBlock: UVAHIK_clean_linker_0, # of connection points: 2
#     Edge 110, Type (0, 0), BuildingBlock: UVAHIK_clean_linker_0, # of connection points: 2
#     Edge 111, Type (0, 0), BuildingBlock: UVAHIK_clean_linker_0, # of connection points: 2
# Relax obj value: 0.092
# Max RMSD: 0.135
# Mean RMSD: 0.135
data_MOF--net-wgq--node1-BEQFEK_clean_sbu_0--edge1-UVAHIK_clean_linker_0
_symmetry_space_group_name_H-M    P1
_symmetry_Int_Tables_number       1
_symmetry_cell_setting            triclinic
loop_
_symmetry_equiv_pos_as_xyz
'x, y, z'
_cell_length_a     39.053985
_cell_length_b     39.058421
_cell_length_c     188.81455
_cell_angle_alpha  90.009068
_cell_angle_beta   89.990246
_cell_angle_gamma 89.995946
loop_
_atom_site_label
_atom_site_type_symbol
_atom_site_fract_x
_atom_site_fract_y
_atom_site_fract_z
_atom_type_partial_charge
Co0 Co 0.16771 0.06687 0.17374 0.0
Co1 Co 0.1646 0.07076 0.19033 0.0
C2 C 0.11969 0.02253 0.18208 0.0
O3 O 0.13237 0.03246 0.17621 0.0
O4 O 0.13066 0.03421 0.18798 0.0
C5 C 0.17208 0.04052 0.15935 0.0
O6 O 0.15856 0.01232 0.16191 0.0
C7 C 0.17079 0.04979 0.20525 0.0
C8 C 0.17411 0.10004 0.21059 0.0
C9 C 0.17398 0.06511 0.21187 0.0
N10 N 0.16909 0.07461 0.20034 0.0
N11 N 0.17094 0.10456 0.20356 0.0
C12 C 0.17146 0.01246 0.20349 0.0
H13 H 0.18063 0.00862 0.19798 0.0
H14 H 0.18817 0.99833 0.20724 0.0
H15 H 0.1451 0.00204 0.20388 0.0
C16 C 0.24143 0.05636 0.17692 0.0
N17 N 0.20876 0.06098 0.17901 0.0
N18 N 0.20787 0.06381 0.18595 0.0
C19 C 0.24012 0.06204 0.18849 0.0
C20 C 0.2626 0.05715 0.18285 0.0
C21 C 0.25168 0.04984 0.1694 0.0
H22 H 0.23387 0.03107 0.167 0.0
H23 H 0.27809 0.03959 0.16901 0.0
H24 H 0.24984 0.07406 0.16635 0.0
O25 O 0.14639 0.11226 0.1755 0.0
O26 O 0.14412 0.11419 0.18722 0.0
H27 H 0.23455 0.09024 0.19815 0.0
H28 H 0.27694 0.07368 0.19676 0.0
C29 C 0.2493 0.06817 0.19609 0.0
H30 H 0.24245 0.04525 0.19925 0.0
H31 H 0.17027 0.12811 0.20096 0.0
O32 O 0.17784 0.06559 0.16347 0.0
C33 C 0.13791 0.12743 0.18121 0.0
Co34 Co 0.18343 0.90656 0.42494 0.0
Co35 Co 0.17771 0.90681 0.44149 0.0
C36 C 0.22686 0.86033 0.43398 0.0
O37 O 0.21867 0.87216 0.42791 0.0
O38 O 0.21341 0.87212 0.43963 0.0
C39 C 0.21322 0.91516 0.41088 0.0
O40 O 0.24311 0.91037 0.41391 0.0
C41 C 0.19696 0.91018 0.4565 0.0
C42 C 0.14808 0.92543 0.46148 0.0
C43 C 0.18187 0.91741 0.463 0.0
N44 N 0.1731 0.91361 0.45142 0.0
N45 N 0.14393 0.92262 0.45443 0.0
C46 C 0.23388 0.90291 0.45499 0.0
H47 H 0.2407 0.91188 0.4496 0.0
H48 H 0.25067 0.91563 0.45894 0.0
H49 H 0.23826 0.87486 0.45523 0.0
C50 C 0.18963 0.9816 0.42753 0.0
N51 N 0.18714 0.94901 0.42984 0.0
N52 N 0.18637 0.94894 0.4368 0.0
C53 C 0.18944 0.98138 0.43916 0.0
C54 C 0.1913 0.00337 0.43337 0.0
C55 C 0.18714 0.99166 0.4199 0.0
H56 H 0.16778 0.97557 0.41719 0.0
H57 H 0.21227 0.98735 0.4173 0.0
H58 H 0.17979 0.01892 0.41928 0.0
O59 O 0.13834 0.88513 0.42661 0.0
O60 O 0.13413 0.88596 0.43832 0.0
H61 H 0.16622 0.98952 0.44927 0.0
H62 H 0.20268 0.01687 0.44756 0.0
C63 C 0.19202 0.9908 0.44683 0.0
H64 H 0.2089 0.97237 0.44959 0.0
H65 H 0.12123 0.92701 0.45167 0.0
O66 O 0.18617 0.91425 0.41461 0.0
C67 C 0.12209 0.87811 0.43227 0.0
Co68 Co 0.3392 0.92937 0.67381 0.0
Co69 Co 0.33918 0.93341 0.69033 0.0
C70 C 0.3856 0.97778 0.682 0.0
O71 O 0.37413 0.96471 0.67628 0.0
O72 O 0.37333 0.96926 0.688 0.0
C73 C 0.32281 0.95668 0.6601 0.0
O74 O 0.31652 0.98506 0.6636 0.0
C75 C 0.33472 0.95568 0.70522 0.0
C76 C 0.31769 0.90779 0.71037 0.0
C77 C 0.32617 0.94159 0.71175 0.0
N78 N 0.33149 0.93121 0.70026 0.0
N79 N 0.32143 0.90266 0.70338 0.0
C80 C 0.34315 0.99219 0.70357 0.0
H81 H 0.33533 0.9985 0.69807 0.0
H82 H 0.33016 0.00978 0.70732 0.0
H83 H 0.37123 0.99592 0.704 0.0
C84 C 0.26398 0.9359 0.67624 0.0
N85 N 0.29667 0.93546 0.67855 0.0
N86 N 0.2969 0.9393 0.68546 0.0
C87 C 0.26444 0.94363 0.68775 0.0
C88 C 0.24233 0.94139 0.68198 0.0
C89 C 0.25347 0.92738 0.66882 0.0
H90 H 0.27203 0.90937 0.6664 0.0
H91 H 0.25279 0.95119 0.66562 0.0
H92 H 0.22762 0.9156 0.66871 0.0
O93 O 0.35975 0.88491 0.6762 0.0
O94 O 0.36109 0.88894 0.6879 0.0
H95 H 0.25535 0.92683 0.69835 0.0
H96 H 0.2293 0.96284 0.69568 0.0
C97 C 0.25506 0.95104 0.69528 0.0
H98 H 0.27403 0.96878 0.69763 0.0
H99 H 0.3169 0.8797 0.70071 0.0
O100 O 0.33271 0.93027 0.66345 0.0
C101 C 0.36792 0.8728 0.68222 0.0
Co102 Co 0.31733 0.08445 0.92298 0.0
Co103 Co 0.31817 0.08639 0.93954 0.0
C104 C 0.27113 0.1315 0.93162 0.0
O105 O 0.2827 0.11965 0.92579 0.0
O106 O 0.28135 0.11981 0.93755 0.0
C107 C 0.28699 0.06631 0.90952 0.0
O108 O 0.25944 0.05909 0.91322 0.0
C109 C 0.30261 0.08732 0.95484 0.0
C110 C 0.34812 0.06085 0.95915 0.0
C111 C 0.31747 0.07596 0.96109 0.0
N112 N 0.32363 0.0793 0.94946 0.0
N113 N 0.3509 0.06377 0.95208 0.0
C114 C 0.26804 0.10321 0.95392 0.0
H115 H 0.2554 0.09246 0.94915 0.0
H116 H 0.25157 0.09883 0.95862 0.0
H117 H 0.27116 0.13118 0.95311 0.0
C118 C 0.31235 0.00956 0.92587 0.0
N119 N 0.31302 0.04253 0.92799 0.0
N120 N 0.3108 0.04365 0.93493 0.0
C121 C 0.30695 0.01153 0.93743 0.0
C122 C 0.30822 0.98865 0.93178 0.0
C123 C 0.31945 0.99822 0.91844 0.0
H124 H 0.33633 0.01692 0.91573 0.0
H125 H 0.29495 0.99645 0.91549 0.0
H126 H 0.33195 0.97271 0.91836 0.0
O127 O 0.36229 0.1052 0.92467 0.0
O128 O 0.3615 0.10857 0.93638 0.0
H129 H 0.32514 0.0007 0.94787 0.0
H130 H 0.28617 0.97863 0.94556 0.0
C131 C 0.30036 0.00312 0.94505 0.0
H132 H 0.2852 0.02379 0.94757 0.0
H133 H 0.37117 0.05465 0.94901 0.0
O134 O 0.31363 0.07709 0.91267 0.0
C135 C 0.37596 0.11453 0.93046 0.0
Co136 Co 0.16901 0.93863 0.32133 0.0
Co137 Co 0.16502 0.93233 0.30477 0.0
C138 C 0.11998 0.98114 0.31287 0.0
O139 O 0.13337 0.97236 0.31875 0.0
O140 O 0.13051 0.96859 0.30702 0.0
C141 C 0.15618 0.94602 0.33611 0.0
O142 O 0.12411 0.94671 0.33401 0.0
C143 C 0.17141 0.95045 0.28959 0.0
C144 C 0.16854 0.89916 0.28468 0.0
C145 C 0.17142 0.93365 0.28309 0.0
N146 N 0.16875 0.92684 0.29475 0.0
N147 N 0.1672 0.89627 0.29177 0.0
C148 C 0.17181 0.98822 0.29092 0.0
H149 H 0.16229 0.99414 0.29631 0.0
H150 H 0.1985 0.99773 0.29051 0.0
H151 H 0.15605 0.00174 0.2869 0.0
C152 C 0.24235 0.94868 0.31793 0.0
N153 N 0.20962 0.94401 0.31591 0.0
N154 N 0.20848 0.94022 0.30899 0.0
C155 C 0.2407 0.94132 0.30641 0.0
C156 C 0.26336 0.94681 0.31199 0.0
C157 C 0.25288 0.95593 0.32541 0.0
H158 H 0.23458 0.97414 0.32786 0.0
H159 H 0.27895 0.9671 0.32568 0.0
H160 H 0.25223 0.93177 0.3285 0.0
O161 O 0.14797 0.89276 0.31998 0.0
O162 O 0.1453 0.8892 0.30827 0.0
H163 H 0.23392 0.91216 0.29689 0.0
H164 H 0.27708 0.92689 0.29826 0.0
C165 C 0.24968 0.93374 0.29886 0.0
H166 H 0.24408 0.95657 0.29557 0.0
H167 H 0.16477 0.87339 0.29458 0.0
O168 O 0.17975 0.94304 0.33152 0.0
C169 C 0.13945 0.87674 0.31438 0.0
Co170 Co 0.30601 0.90899 0.57124 0.0
Co171 Co 0.32212 0.90553 0.55504 0.0
C172 C 0.26972 0.85923 0.56206 0.0
O173 O 0.27342 0.87299 0.56814 0.0
O174 O 0.2866 0.86983 0.55671 0.0
C175 C 0.27505 0.91181 0.58536 0.0
O176 O 0.24957 0.89368 0.5828 0.0
C177 C 0.30527 0.91028 0.54005 0.0
C178 C 0.35633 0.91193 0.53501 0.0
C179 C 0.32156 0.91199 0.53351 0.0
N180 N 0.32929 0.90904 0.54512 0.0
N181 N 0.35976 0.90996 0.54209 0.0
C182 C 0.26773 0.91188 0.54159 0.0
H183 H 0.26331 0.92218 0.54699 0.0
H184 H 0.25436 0.9281 0.53763 0.0
H185 H 0.2569 0.88564 0.54137 0.0
C186 C 0.29629 0.98226 0.56765 0.0
N187 N 0.30255 0.9496 0.56576 0.0
N188 N 0.3104 0.94859 0.55899 0.0
C189 C 0.31018 0.98075 0.55638 0.0
C190 C 0.30119 0.00329 0.56179 0.0
C191 C 0.28524 0.9928 0.57492 0.0
H192 H 0.26588 0.9745 0.57695 0.0
H193 H 0.27405 0.01891 0.57494 0.0
H194 H 0.30766 0.99213 0.57853 0.0
O195 O 0.35279 0.88895 0.57069 0.0
O196 O 0.3648 0.88832 0.55921 0.0
H197 H 0.34485 0.97457 0.54768 0.0
H198 H 0.32832 0.0174 0.54861 0.0
C199 C 0.3219 0.98984 0.54907 0.0
H200 H 0.30131 0.98357 0.54524 0.0
H201 H 0.38289 0.90929 0.54486 0.0
O202 O 0.2997 0.92028 0.58134 0.0
C203 C 0.3731 0.88216 0.5656 0.0
Co204 Co 0.33154 0.05808 0.8205 0.0
Co205 Co 0.33452 0.07311 0.80426 0.0
C206 C 0.37936 0.01946 0.81123 0.0
O207 O 0.36606 0.02406 0.81732 0.0
O208 O 0.36897 0.03624 0.80584 0.0
C209 C 0.3282 0.02675 0.83455 0.0
O210 O 0.34546 0.00092 0.83188 0.0
C211 C 0.32962 0.05784 0.78917 0.0
C212 C 0.32811 0.10956 0.78443 0.0
C213 C 0.32811 0.07503 0.78273 0.0
N214 N 0.33072 0.08115 0.79438 0.0
N215 N 0.32985 0.11202 0.79153 0.0
C216 C 0.32811 0.0201 0.79048 0.0
H217 H 0.3175 0.01493 0.79583 0.0
H218 H 0.31221 0.00719 0.78641 0.0
H219 H 0.35443 0.00943 0.79027 0.0
C220 C 0.2577 0.05047 0.81709 0.0
N221 N 0.29041 0.05603 0.81513 0.0
N222 N 0.29129 0.06329 0.80834 0.0
C223 C 0.25905 0.06337 0.80577 0.0
C224 C 0.23653 0.0552 0.81124 0.0
C225 C 0.24729 0.03966 0.82439 0.0
H226 H 0.26519 0.01978 0.82635 0.0
H227 H 0.22092 0.02916 0.82448 0.0
H228 H 0.24882 0.06202 0.828 0.0
O229 O 0.35406 0.10377 0.81986 0.0
O230 O 0.35418 0.11476 0.80835 0.0
H231 H 0.26512 0.09702 0.79691 0.0
H232 H 0.22236 0.08043 0.7979 0.0
C233 C 0.24995 0.07417 0.7984 0.0
H234 H 0.25638 0.05318 0.79467 0.0
H235 H 0.3305 0.13476 0.79443 0.0
O236 O 0.32046 0.052 0.83063 0.0
C237 C 0.36157 0.12319 0.81467 0.0
Co238 Co 0.18853 0.09633 0.07043 0.0
Co239 Co 0.18603 0.09503 0.05384 0.0
C240 C 0.23276 0.14282 0.06148 0.0
O241 O 0.22347 0.13103 0.06748 0.0
O242 O 0.22075 0.13068 0.05573 0.0
C243 C 0.21766 0.08232 0.08427 0.0
O244 O 0.24647 0.0769 0.08086 0.0
C245 C 0.20392 0.09384 0.03866 0.0
C246 C 0.15928 0.0666 0.03418 0.0
C247 C 0.1902 0.08158 0.03239 0.0
N248 N 0.18201 0.08647 0.04394 0.0
N249 N 0.15526 0.07048 0.04121 0.0
C250 C 0.23829 0.10991 0.03975 0.0
H251 H 0.24979 0.10047 0.04475 0.0
H252 H 0.25578 0.10422 0.03526 0.0
H253 H 0.2351 0.13805 0.04018 0.0
C254 C 0.19516 0.021 0.06807 0.0
N255 N 0.19352 0.05357 0.06571 0.0
N256 N 0.1951 0.05349 0.05875 0.0
C257 C 0.19943 0.02104 0.05648 0.0
C258 C 0.19913 0.99915 0.0623 0.0
C259 C 0.18919 0.01085 0.07562 0.0
H260 H 0.17146 0.02914 0.0782 0.0
H261 H 0.21394 0.01117 0.0785 0.0
H262 H 0.17814 0.98474 0.07597 0.0
O263 O 0.14335 0.11654 0.06843 0.0
O264 O 0.14151 0.1151 0.0567 0.0
H265 H 0.18055 0.00867 0.04617 0.0
H266 H 0.21965 0.98688 0.0485 0.0
C267 C 0.20551 0.01144 0.04891 0.0
H268 H 0.22056 0.03167 0.04622 0.0
H269 H 0.1345 0.0617 0.04418 0.0
O270 O 0.19098 0.09055 0.08082 0.0
C271 C 0.12807 0.12288 0.06263 0.0
Co272 Co 0.83209 0.94294 0.82134 0.0
Co273 Co 0.83398 0.92801 0.80507 0.0
C274 C 0.87958 0.98128 0.81188 0.0
O275 O 0.86675 0.97665 0.81802 0.0
O276 O 0.86866 0.96464 0.80652 0.0
C277 C 0.84478 0.9565 0.83605 0.0
O278 O 0.87675 0.9595 0.83397 0.0
C279 C 0.82877 0.94285 0.78995 0.0
C280 C 0.82714 0.89098 0.78529 0.0
C281 C 0.8273 0.92545 0.78353 0.0
N282 N 0.82972 0.9197 0.7952 0.0
N283 N 0.82875 0.88875 0.79239 0.0
C284 C 0.82749 0.98064 0.79123 0.0
H285 H 0.81686 0.98601 0.79657 0.0
H286 H 0.81168 0.99353 0.78714 0.0
H287 H 0.85387 0.99114 0.79102 0.0
C288 C 0.75801 0.95117 0.81805 0.0
N289 N 0.79061 0.94529 0.81605 0.0
N290 N 0.79116 0.93823 0.80924 0.0
C291 C 0.75886 0.93859 0.80672 0.0
C292 C 0.73662 0.94692 0.81222 0.0
C293 C 0.74792 0.9617 0.82539 0.0
H294 H 0.7665 0.98069 0.82746 0.0
H295 H 0.72191 0.97311 0.8255 0.0
H296 H 0.74851 0.93895 0.8289 0.0
O297 O 0.85419 0.89693 0.82069 0.0
O298 O 0.85345 0.88638 0.80916 0.0
H299 H 0.76436 0.90503 0.79782 0.0
H300 H 0.72179 0.92187 0.79889 0.0
C301 C 0.74942 0.92797 0.79935 0.0
H302 H 0.75584 0.94897 0.79563 0.0
H303 H 0.82936 0.8661 0.79532 0.0
O304 O 0.82174 0.95027 0.83148 0.0
C305 C 0.86113 0.87763 0.81544 0.0
Co306 Co 0.80273 0.09378 0.57087 0.0
Co307 Co 0.82123 0.09701 0.55478 0.0
C308 C 0.76791 0.14337 0.56136 0.0
O309 O 0.77088 0.12956 0.56744 0.0
O310 O 0.7855 0.13286 0.5561 0.0
C311 C 0.79028 0.10783 0.58532 0.0
O312 O 0.79292 0.13955 0.58307 0.0
C313 C 0.80703 0.09237 0.53969 0.0
C314 C 0.85877 0.08828 0.53502 0.0
C315 C 0.82429 0.08952 0.53329 0.0
N316 N 0.83021 0.09301 0.54493 0.0
N317 N 0.86111 0.09069 0.54212 0.0
C318 C 0.7692 0.09226 0.54094 0.0
H319 H 0.76343 0.0821 0.5463 0.0
H320 H 0.75589 0.07665 0.53688 0.0
H321 H 0.75948 0.11892 0.54066 0.0
C322 C 0.7943 0.02039 0.56732 0.0
N323 N 0.80029 0.05307 0.56543 0.0
N324 N 0.80885 0.05405 0.5587 0.0
C325 C 0.80929 0.02185 0.55612 0.0
C326 C 0.80005 0.99933 0.5615 0.0
C327 C 0.78311 0.00981 0.57458 0.0
H328 H 0.76349 0.02793 0.57658 0.0
H329 H 0.77226 0.98357 0.57459 0.0
H330 H 0.80541 0.01078 0.57822 0.0
O331 O 0.84965 0.11366 0.57071 0.0
O332 O 0.86308 0.11429 0.5593 0.0
H333 H 0.84582 0.02729 0.54774 0.0
H334 H 0.82773 0.98503 0.54839 0.0
C335 C 0.82211 0.01274 0.54888 0.0
H336 H 0.80255 0.01999 0.5449 0.0
H337 H 0.88377 0.09056 0.54505 0.0
O338 O 0.79277 0.08353 0.58088 0.0
C339 C 0.87058 0.12042 0.56573 0.0
Co340 Co 0.66641 0.06453 0.32186 0.0
Co341 Co 0.6669 0.07281 0.30539 0.0
C342 C 0.61968 0.02317 0.31245 0.0
O343 O 0.63161 0.03038 0.31857 0.0
O344 O 0.63158 0.03725 0.30688 0.0
C345 C 0.6703 0.03262 0.33582 0.0
O346 O 0.65896 0.00449 0.33282 0.0
C347 C 0.66727 0.0605 0.29002 0.0
C348 C 0.69356 0.10704 0.28615 0.0
C349 C 0.67878 0.07668 0.28394 0.0
N350 N 0.6748 0.0805 0.29559 0.0
N351 N 0.69025 0.10839 0.29324 0.0
C352 C 0.65181 0.02557 0.29062 0.0
H353 H 0.66134 0.01266 0.29547 0.0
H354 H 0.65795 0.00965 0.28592 0.0
H355 H 0.62359 0.0281 0.29105 0.0
C356 C 0.74131 0.05773 0.31927 0.0
N357 N 0.70878 0.06104 0.31697 0.0
N358 N 0.7087 0.06231 0.31002 0.0
C359 C 0.74104 0.05851 0.30764 0.0
C360 C 0.76302 0.05592 0.31342 0.0
C361 C 0.75135 0.05954 0.32692 0.0
H362 H 0.73562 0.07907 0.32967 0.0
H363 H 0.74644 0.03437 0.32945 0.0
H364 H 0.77874 0.06629 0.32757 0.0
O365 O 0.64562 0.11017 0.32061 0.0
O366 O 0.64678 0.11591 0.30894 0.0
H367 H 0.75299 0.08154 0.29768 0.0
H368 H 0.77498 0.04168 0.29929 0.0
C369 C 0.75041 0.05554 0.29998 0.0
H370 H 0.7301 0.04159 0.29707 0.0
H371 H 0.699 0.12812 0.2965 0.0
O372 O 0.6745 0.05942 0.33212 0.0
C373 C 0.63899 0.12728 0.31505 0.0
Co374 Co 0.69007 0.91704 0.0715 0.0
Co375 Co 0.68649 0.91433 0.05497 0.0
C376 C 0.73406 0.8688 0.06285 0.0
O377 O 0.72383 0.88138 0.06871 0.0
O378 O 0.72282 0.88005 0.05696 0.0
C379 C 0.69452 0.9015 0.08608 0.0
O380 O 0.69056 0.87014 0.0837 0.0
C381 C 0.70451 0.91612 0.03985 0.0
C382 C 0.65507 0.93059 0.03501 0.0
C383 C 0.68874 0.92257 0.03338 0.0
N384 N 0.68113 0.91997 0.04501 0.0
N385 N 0.65163 0.92853 0.04208 0.0
C386 C 0.74159 0.90914 0.04123 0.0
H387 H 0.74885 0.91847 0.04658 0.0
H388 H 0.75794 0.9217 0.03719 0.0
H389 H 0.7461 0.8811 0.04104 0.0
C390 C 0.69695 0.99103 0.06852 0.0
N391 N 0.69478 0.95827 0.06635 0.0
N392 N 0.69485 0.95732 0.0594 0.0
C393 C 0.69807 0.98955 0.0569 0.0
C394 C 0.69935 0.01215 0.06261 0.0
C395 C 0.69316 0.00176 0.0761 0.0
H396 H 0.67335 0.98584 0.07872 0.0
H397 H 0.71781 0.99764 0.0789 0.0
H398 H 0.68566 0.02905 0.07658 0.0
O399 O 0.64441 0.89697 0.0701 0.0
O400 O 0.64288 0.89374 0.05838 0.0
H401 H 0.67508 0.99686 0.04675 0.0
H402 H 0.71159 0.02423 0.04839 0.0
C403 C 0.70085 0.99824 0.0492 0.0
H404 H 0.71764 0.97944 0.04652 0.0
H405 H 0.62918 0.93312 0.04493 0.0
O406 O 0.69564 0.9261 0.0817 0.0
C407 C 0.62937 0.88815 0.06441 0.0
Co408 Co 0.83873 0.06514 0.67405 0.0
Co409 Co 0.8403 0.05967 0.69057 0.0
C410 C 0.88546 0.01555 0.6818 0.0
O411 O 0.87367 0.02924 0.67617 0.0
O412 O 0.87377 0.02363 0.68789 0.0
C413 C 0.82687 0.04134 0.6597 0.0
O414 O 0.82889 0.01028 0.66233 0.0
C415 C 0.83885 0.03791 0.70557 0.0
C416 C 0.82129 0.0858 0.71067 0.0
C417 C 0.83126 0.05251 0.7121 0.0
N418 N 0.83335 0.06158 0.70053 0.0
N419 N 0.82282 0.09007 0.70362 0.0
C420 C 0.8537 0.0033 0.70412 0.0
H421 H 0.83687 0.98934 0.70037 0.0
H422 H 0.85721 0.98808 0.70901 0.0
H423 H 0.87898 0.00648 0.70152 0.0
C424 C 0.76406 0.05753 0.67671 0.0
N425 N 0.79683 0.05852 0.67894 0.0
N426 N 0.79757 0.0545 0.68585 0.0
C427 C 0.76534 0.04966 0.68822 0.0
C428 C 0.74283 0.05166 0.68251 0.0
C429 C 0.75327 0.06527 0.66927 0.0
H430 H 0.76997 0.08539 0.66699 0.0
H431 H 0.75588 0.04178 0.66601 0.0
H432 H 0.72633 0.07418 0.66904 0.0
O433 O 0.85981 0.10909 0.67659 0.0
O434 O 0.86246 0.10409 0.68826 0.0
H435 H 0.75618 0.06581 0.69886 0.0
H436 H 0.73127 0.02903 0.69619 0.0
C437 C 0.75661 0.04169 0.69576 0.0
H438 H 0.77632 0.02457 0.69805 0.0
H439 H 0.81701 0.11258 0.7009 0.0
O440 O 0.83054 0.06699 0.66376 0.0
C441 C 0.86878 0.12065 0.6826 0.0
Co442 Co 0.68622 0.08643 0.42488 0.0
Co443 Co 0.6786 0.09123 0.44135 0.0
C444 C 0.72927 0.13466 0.43339 0.0
O445 O 0.7207 0.1215 0.42748 0.0
O446 O 0.71591 0.12447 0.43918 0.0
C447 C 0.70213 0.0949 0.4101 0.0
O448 O 0.7118 0.1258 0.41198 0.0
C449 C 0.69892 0.08648 0.4562 0.0
C450 C 0.6489 0.0843 0.46166 0.0
C451 C 0.68392 0.08428 0.46286 0.0
N452 N 0.67391 0.08787 0.45134 0.0
N453 N 0.64407 0.08669 0.45462 0.0
C454 C 0.73616 0.08512 0.45438 0.0
H455 H 0.73967 0.0747 0.44895 0.0
H456 H 0.75037 0.06913 0.45825 0.0
H457 H 0.74682 0.11145 0.45449 0.0
C458 C 0.6949 0.01301 0.42844 0.0
N459 N 0.69038 0.04592 0.43037 0.0
N460 N 0.686 0.04747 0.43726 0.0
C461 C 0.68669 0.01544 0.43994 0.0
C462 C 0.6924 0.99239 0.43443 0.0
C463 C 0.70267 0.00192 0.42102 0.0
H464 H 0.72142 0.01976 0.41861 0.0
H465 H 0.71341 0.97565 0.42086 0.0
H466 H 0.67882 0.00279 0.41783 0.0
O467 O 0.6407 0.10849 0.42608 0.0
O468 O 0.63601 0.11186 0.43776 0.0
H469 H 0.65657 0.02237 0.44931 0.0
H470 H 0.67263 0.97954 0.44821 0.0
C471 C 0.67876 0.00703 0.4475 0.0
H472 H 0.70113 0.01372 0.45084 0.0
H473 H 0.62041 0.08731 0.45206 0.0
O474 O 0.69068 0.07449 0.41476 0.0
C475 C 0.62431 0.11771 0.43159 0.0
Co476 Co 0.66524 0.93443 0.17541 0.0
Co477 Co 0.66749 0.93419 0.19194 0.0
C478 C 0.61901 0.97969 0.18405 0.0
O479 O 0.63067 0.96989 0.17807 0.0
O480 O 0.63136 0.96825 0.18983 0.0
C481 C 0.6736 0.96048 0.16112 0.0
O482 O 0.67289 0.99112 0.16398 0.0
C483 C 0.66874 0.95535 0.20688 0.0
C484 C 0.6965 0.9121 0.2118 0.0
C485 C 0.68109 0.94319 0.21328 0.0
N486 N 0.67643 0.93239 0.20183 0.0
N487 N 0.69277 0.90649 0.20481 0.0
C488 C 0.65218 0.98921 0.20547 0.0
H489 H 0.66176 0.99987 0.2004 0.0
H490 H 0.65731 0.00766 0.20981 0.0
H491 H 0.62411 0.98548 0.20499 0.0
C492 C 0.74046 0.94278 0.17745 0.0
N493 N 0.70817 0.9406 0.17995 0.0
N494 N 0.7088 0.94271 0.18689 0.0
C495 C 0.74138 0.94773 0.18902 0.0
C496 C 0.76275 0.94749 0.18312 0.0
C497 C 0.74985 0.9371 0.16985 0.0
H498 H 0.73285 0.91747 0.16748 0.0
H499 H 0.74645 0.96138 0.16688 0.0
H500 H 0.77678 0.9285 0.1693 0.0
O501 O 0.64516 0.88967 0.17781 0.0
O502 O 0.64761 0.88902 0.18953 0.0
H503 H 0.7546 0.92976 0.19936 0.0
H504 H 0.77614 0.9687 0.19681 0.0
C505 C 0.75158 0.95448 0.19654 0.0
H506 H 0.73154 0.96972 0.19924 0.0
H507 H 0.7018 0.88518 0.20205 0.0
O508 O 0.67084 0.93424 0.16504 0.0
C509 C 0.63932 0.87497 0.18369 0.0
Co510 Co 0.81871 0.90687 0.92476 0.0
Co511 Co 0.83024 0.90532 0.94116 0.0
C512 C 0.77927 0.85871 0.93382 0.0
O513 O 0.78487 0.87159 0.92772 0.0
O514 O 0.79468 0.86989 0.93931 0.0
C515 C 0.78952 0.91097 0.9105 0.0
O516 O 0.76163 0.89738 0.91319 0.0
C517 C 0.81088 0.9115 0.95607 0.0
C518 C 0.8613 0.91454 0.96135 0.0
C519 C 0.82639 0.91426 0.96268 0.0
N520 N 0.83552 0.91005 0.95112 0.0
N521 N 0.8656 0.91178 0.9543 0.0
C522 C 0.77351 0.91227 0.95435 0.0
H523 H 0.76955 0.92179 0.94887 0.0
H524 H 0.75944 0.92877 0.95815 0.0
H525 H 0.76308 0.88589 0.95467 0.0
C526 C 0.80787 0.98074 0.92793 0.0
N527 N 0.81421 0.94831 0.92999 0.0
N528 N 0.82008 0.94797 0.93685 0.0
C529 C 0.81846 0.9803 0.93935 0.0
C530 C 0.81054 0.00228 0.93378 0.0
C531 C 0.79815 0.99043 0.92053 0.0
H532 H 0.77906 0.97196 0.91847 0.0
H533 H 0.78706 0.01654 0.92028 0.0
H534 H 0.82117 0.98916 0.91709 0.0
O535 O 0.86489 0.88596 0.92597 0.0
O536 O 0.87351 0.8867 0.93757 0.0
H537 H 0.85015 0.97547 0.94856 0.0
H538 H 0.83312 0.01782 0.94725 0.0
C539 C 0.82742 0.99011 0.94679 0.0
H540 H 0.80569 0.98366 0.95033 0.0
H541 H 0.88906 0.91116 0.95166 0.0
O542 O 0.81506 0.91673 0.9145 0.0
C543 C 0.88348 0.87938 0.93134 0.0
Co544 Co 0.66614 0.56688 0.67541 0.0
Co545 Co 0.66304 0.56296 0.69196 0.0
C546 C 0.61783 0.51905 0.68317 0.0
O547 O 0.63072 0.53182 0.67755 0.0
O548 O 0.6287 0.52771 0.68928 0.0
C549 C 0.65162 0.56606 0.66064 0.0
O550 O 0.61972 0.56662 0.66285 0.0
C551 C 0.6599 0.54234 0.70699 0.0
C552 C 0.68859 0.58463 0.71204 0.0
C553 C 0.6716 0.55434 0.71347 0.0
N554 N 0.66954 0.56465 0.70195 0.0
N555 N 0.68638 0.59 0.70501 0.0
C556 C 0.64203 0.50922 0.70553 0.0
H557 H 0.65294 0.49721 0.70071 0.0
H558 H 0.64437 0.49125 0.71005 0.0
H559 H 0.61452 0.51442 0.70453 0.0
C560 C 0.73994 0.55797 0.67828 0.0
N561 N 0.7072 0.55991 0.68047 0.0
N562 N 0.70602 0.55614 0.68738 0.0
C563 C 0.73806 0.55039 0.68979 0.0
C564 C 0.76078 0.55164 0.68411 0.0
C565 C 0.751 0.5652 0.67083 0.0
H566 H 0.73542 0.58635 0.6686 0.0
H567 H 0.74673 0.54204 0.66754 0.0
H568 H 0.7784 0.57252 0.67056 0.0
O569 O 0.64568 0.61148 0.67767 0.0
O570 O 0.64226 0.60785 0.68937 0.0
H571 H 0.74988 0.56618 0.70034 0.0
H572 H 0.77053 0.52698 0.69769 0.0
C573 C 0.7465 0.54205 0.69733 0.0
H574 H 0.7254 0.52716 0.69976 0.0
H575 H 0.69688 0.61071 0.70228 0.0
O576 O 0.67567 0.5657 0.66516 0.0
C577 C 0.6366 0.62387 0.68361 0.0
Co578 Co 0.6921 0.40773 0.92492 0.0
Co579 Co 0.67723 0.40527 0.94116 0.0
C580 C 0.7295 0.35879 0.93411 0.0
O581 O 0.7253 0.37224 0.92802 0.0
O582 O 0.71296 0.36961 0.9395 0.0
C583 C 0.7227 0.413 0.91073 0.0
O584 O 0.74999 0.39748 0.91323 0.0
C585 C 0.69281 0.41036 0.95624 0.0
C586 C 0.64109 0.413 0.96097 0.0
C587 C 0.67562 0.41257 0.96267 0.0
N588 N 0.66947 0.40932 0.95103 0.0
N589 N 0.63861 0.41083 0.95388 0.0
C590 C 0.73056 0.41128 0.95492 0.0
H591 H 0.73588 0.42121 0.94952 0.0
H592 H 0.74364 0.42749 0.95892 0.0
H593 H 0.74093 0.38487 0.95526 0.0
C594 C 0.70226 0.48131 0.92833 0.0
N595 N 0.69567 0.4488 0.93029 0.0
N596 N 0.68839 0.44818 0.93708 0.0
C597 C 0.68927 0.48044 0.93964 0.0
C598 C 0.69815 0.50265 0.93417 0.0
C599 C 0.71347 0.49133 0.92104 0.0
H600 H 0.73297 0.47293 0.91911 0.0
H601 H 0.72464 0.51742 0.92093 0.0
H602 H 0.69117 0.49028 0.9174 0.0
O603 O 0.64566 0.3868 0.92564 0.0
O604 O 0.63467 0.38736 0.93715 0.0
H605 H 0.65556 0.47522 0.94853 0.0
H606 H 0.67289 0.51764 0.94747 0.0
C607 C 0.67866 0.48994 0.947 0.0
H608 H 0.69956 0.48329 0.95074 0.0
H609 H 0.61587 0.41043 0.95098 0.0
O610 O 0.69744 0.41882 0.9148 0.0
C611 C 0.62592 0.38028 0.93084 0.0
Co612 Co 0.84212 0.43653 0.17475 0.0
Co613 Co 0.84311 0.43559 0.19132 0.0
C614 C 0.88949 0.48192 0.18341 0.0
O615 O 0.87757 0.47074 0.17755 0.0
O616 O 0.87756 0.47165 0.18932 0.0
C617 C 0.8297 0.46684 0.16099 0.0
O618 O 0.82957 0.4963 0.16435 0.0
C619 C 0.84379 0.45094 0.20667 0.0
C620 C 0.81593 0.40599 0.21085 0.0
C621 C 0.83182 0.43611 0.21287 0.0
N622 N 0.83537 0.4304 0.20123 0.0
N623 N 0.81898 0.40347 0.20378 0.0
C624 C 0.86081 0.48501 0.20583 0.0
H625 H 0.85106 0.49797 0.20101 0.0
H626 H 0.8563 0.50158 0.21052 0.0
H627 H 0.88877 0.48106 0.20518 0.0
C628 C 0.7675 0.44404 0.1774 0.0
N629 N 0.80017 0.442 0.17966 0.0
N630 N 0.80073 0.44377 0.18661 0.0
C631 C 0.76846 0.4484 0.18899 0.0
C632 C 0.74615 0.44837 0.18324 0.0
C633 C 0.75686 0.43847 0.16987 0.0
H634 H 0.77406 0.41963 0.1673 0.0
H635 H 0.75868 0.46305 0.16695 0.0
H636 H 0.73016 0.42891 0.16953 0.0
O637 O 0.86199 0.39126 0.17656 0.0
O638 O 0.86431 0.3916 0.18829 0.0
H639 H 0.75625 0.42949 0.1993 0.0
H640 H 0.73513 0.46905 0.19706 0.0
C641 C 0.75941 0.45447 0.19659 0.0
H642 H 0.78011 0.46899 0.19925 0.0
H643 H 0.80946 0.38357 0.20066 0.0
O644 O 0.83467 0.43938 0.16444 0.0
C645 C 0.87043 0.37717 0.18237 0.0
Co646 Co 0.80432 0.58766 0.42561 0.0
Co647 Co 0.81434 0.58817 0.44202 0.0
C648 C 0.76425 0.63521 0.435 0.0
O649 O 0.77074 0.62278 0.4289 0.0
O650 O 0.77888 0.62363 0.44053 0.0
C651 C 0.79589 0.60309 0.41098 0.0
O652 O 0.80012 0.63474 0.41317 0.0
C653 C 0.79829 0.58547 0.45711 0.0
C654 C 0.84812 0.57099 0.46178 0.0
C655 C 0.81452 0.57882 0.46351 0.0
N656 N 0.82132 0.58194 0.45188 0.0
N657 N 0.85107 0.57339 0.4547 0.0
C658 C 0.76106 0.59219 0.45584 0.0
H659 H 0.75346 0.58269 0.45053 0.0
H660 H 0.74507 0.57962 0.45995 0.0
H661 H 0.75639 0.62021 0.45602 0.0
C662 C 0.79827 0.51307 0.42838 0.0
N663 N 0.80124 0.54568 0.43063 0.0
N664 N 0.80376 0.54594 0.43757 0.0
C665 C 0.80152 0.51353 0.43999 0.0
C666 C 0.79822 0.49142 0.43424 0.0
C667 C 0.7992 0.50296 0.42073 0.0
H668 H 0.81863 0.51848 0.4179 0.0
H669 H 0.77386 0.50822 0.41831 0.0
H670 H 0.80557 0.4755 0.42004 0.0
O671 O 0.85046 0.60818 0.42657 0.0
O672 O 0.85735 0.60756 0.43824 0.0
H673 H 0.82822 0.50602 0.44975 0.0
H674 H 0.79186 0.47788 0.44856 0.0
C675 C 0.8017 0.50416 0.44768 0.0
H676 H 0.78542 0.52229 0.45067 0.0
H677 H 0.87334 0.56903 0.45178 0.0
O678 O 0.79622 0.57892 0.41547 0.0
C679 C 0.8682 0.61487 0.43206 0.0
Co680 Co 0.6558 0.43336 0.82273 0.0
Co681 Co 0.65328 0.42856 0.80619 0.0
C682 C 0.60689 0.47596 0.81394 0.0
O683 O 0.61952 0.46638 0.81985 0.0
O684 O 0.61838 0.46444 0.80809 0.0
C685 C 0.67113 0.46474 0.83636 0.0
O686 O 0.67429 0.49376 0.83291 0.0
C687 C 0.65255 0.44293 0.79083 0.0
C688 C 0.67643 0.39572 0.78665 0.0
C689 C 0.66289 0.42695 0.78463 0.0
N690 N 0.65967 0.42199 0.79629 0.0
N691 N 0.67363 0.39371 0.79374 0.0
C692 C 0.63856 0.47836 0.79165 0.0
H693 H 0.64836 0.49005 0.79661 0.0
H694 H 0.64558 0.49471 0.78707 0.0
H695 H 0.61024 0.47696 0.79202 0.0
C696 C 0.73009 0.44299 0.81964 0.0
N697 N 0.69725 0.439 0.81758 0.0
N698 N 0.69603 0.4381 0.81062 0.0
C699 C 0.728 0.44216 0.80803 0.0
C700 C 0.75065 0.44525 0.81366 0.0
C701 C 0.74199 0.44159 0.82717 0.0
H702 H 0.73885 0.46723 0.82961 0.0
H703 H 0.76939 0.43425 0.82751 0.0
H704 H 0.72651 0.42284 0.8302 0.0
O705 O 0.63657 0.38725 0.82133 0.0
O706 O 0.63357 0.38488 0.80963 0.0
H707 H 0.73699 0.41773 0.79809 0.0
H708 H 0.76214 0.45585 0.79947 0.0
C709 C 0.73666 0.44399 0.80032 0.0
H710 H 0.71704 0.4592 0.79748 0.0
H711 H 0.68178 0.37325 0.79687 0.0
O712 O 0.66369 0.43757 0.833 0.0
C713 C 0.62818 0.37164 0.81569 0.0
Co714 Co 0.81678 0.41621 0.07178 0.0
Co715 Co 0.81366 0.41417 0.05526 0.0
C716 C 0.76856 0.36911 0.06375 0.0
O717 O 0.78139 0.38103 0.06946 0.0
O718 O 0.7775 0.38068 0.05772 0.0
C719 C 0.78938 0.42999 0.0857 0.0
O720 O 0.75938 0.42967 0.08255 0.0
C721 C 0.79229 0.41637 0.0403 0.0
C722 C 0.84052 0.43258 0.03516 0.0
C723 C 0.80683 0.42381 0.03375 0.0
N724 N 0.81642 0.42047 0.0453 0.0
N725 N 0.84517 0.43005 0.04219 0.0
C726 C 0.75569 0.40813 0.04191 0.0
H727 H 0.74897 0.41696 0.04732 0.0
H728 H 0.73833 0.42034 0.038 0.0
H729 H 0.75207 0.37997 0.04169 0.0
C730 C 0.8101 0.49086 0.06895 0.0
N731 N 0.81088 0.45797 0.06679 0.0
N732 N 0.80767 0.45697 0.05987 0.0
C733 C 0.80354 0.48913 0.05741 0.0
C734 C 0.80523 0.51187 0.06308 0.0
C735 C 0.81738 0.50196 0.07639 0.0
H736 H 0.83653 0.48468 0.07884 0.0
H737 H 0.79341 0.50063 0.07954 0.0
H738 H 0.82733 0.52855 0.07657 0.0
O739 O 0.86131 0.3953 0.06958 0.0
O740 O 0.85784 0.39249 0.05788 0.0
H741 H 0.82115 0.497 0.04682 0.0
H742 H 0.78488 0.52328 0.04924 0.0
C743 C 0.79671 0.49761 0.04981 0.0
H744 H 0.77919 0.47833 0.0475 0.0
H745 H 0.86796 0.43503 0.04489 0.0
O746 O 0.81626 0.42466 0.08208 0.0
C747 C 0.87371 0.38637 0.06363 0.0
Co748 Co 0.84272 0.56992 0.32248 0.0
Co749 Co 0.84492 0.56638 0.30593 0.0
C750 C 0.89044 0.522 0.31452 0.0
O751 O 0.87823 0.53479 0.32021 0.0
O752 O 0.87898 0.53076 0.30847 0.0
C753 C 0.82942 0.54343 0.3365 0.0
O754 O 0.83023 0.51313 0.33349 0.0
C755 C 0.84635 0.54612 0.29085 0.0
C756 C 0.81854 0.58947 0.28598 0.0
C757 C 0.83444 0.5587 0.28444 0.0
N758 N 0.83786 0.56854 0.29596 0.0
N759 N 0.82155 0.59451 0.293 0.0
C760 C 0.86321 0.51237 0.2922 0.0
H761 H 0.85266 0.50079 0.29711 0.0
H762 H 0.85948 0.49448 0.2877 0.0
H763 H 0.89104 0.51654 0.29301 0.0
C764 C 0.76828 0.56158 0.3197 0.0
N765 N 0.8011 0.56322 0.31751 0.0
N766 N 0.80216 0.55956 0.31059 0.0
C767 C 0.77009 0.55401 0.30818 0.0
C768 C 0.74736 0.55546 0.31386 0.0
C769 C 0.75707 0.56907 0.32712 0.0
H770 H 0.77393 0.58875 0.32952 0.0
H771 H 0.75892 0.54533 0.33032 0.0
H772 H 0.73028 0.57846 0.32728 0.0
O773 O 0.86293 0.61449 0.32019 0.0
O774 O 0.86615 0.6111 0.3085 0.0
H775 H 0.75856 0.56959 0.2976 0.0
H776 H 0.73752 0.53064 0.3003 0.0
C777 C 0.76166 0.54552 0.30065 0.0
H778 H 0.78264 0.53034 0.29825 0.0
H779 H 0.8119 0.61542 0.29581 0.0
O780 O 0.83432 0.57001 0.33277 0.0
C781 C 0.8719 0.62702 0.31427 0.0
Co782 Co 0.69526 0.59614 0.57171 0.0
Co783 Co 0.67837 0.59827 0.55557 0.0
C784 C 0.73327 0.64279 0.5621 0.0
O785 O 0.72919 0.63003 0.56825 0.0
O786 O 0.71566 0.6323 0.55685 0.0
C787 C 0.70478 0.61148 0.58617 0.0
O788 O 0.70218 0.64294 0.58376 0.0
C789 C 0.69396 0.59138 0.54061 0.0
C790 C 0.64264 0.59048 0.53568 0.0
C791 C 0.67732 0.58937 0.53412 0.0
N792 N 0.67023 0.59379 0.54572 0.0
N793 N 0.63959 0.59333 0.54276 0.0
C794 C 0.73153 0.58893 0.54207 0.0
H795 H 0.73594 0.57882 0.54749 0.0
H796 H 0.74433 0.57217 0.53813 0.0
H797 H 0.74298 0.61489 0.54178 0.0
C798 C 0.70226 0.52202 0.56845 0.0
N799 N 0.69643 0.55465 0.56648 0.0
N800 N 0.68844 0.5553 0.55972 0.0
C801 C 0.6882 0.52301 0.55719 0.0
C802 C 0.6971 0.50073 0.56264 0.0
C803 C 0.7135 0.51183 0.57573 0.0
H804 H 0.73268 0.53039 0.57774 0.0
H805 H 0.72487 0.4858 0.57577 0.0
H806 H 0.69109 0.51239 0.57934 0.0
O807 O 0.64949 0.61863 0.57125 0.0
O808 O 0.63724 0.61853 0.55978 0.0
H809 H 0.65392 0.52907 0.54842 0.0
H810 H 0.66969 0.48609 0.54951 0.0
C811 C 0.67658 0.51357 0.54989 0.0
H812 H 0.69741 0.51914 0.54607 0.0
H813 H 0.61663 0.59492 0.54557 0.0
O814 O 0.70352 0.58671 0.58182 0.0
C815 C 0.62955 0.6261 0.56614 0.0
Co816 Co 0.34267 0.43578 0.32317 0.0
Co817 Co 0.34396 0.43412 0.30666 0.0
C818 C 0.39014 0.48084 0.31446 0.0
O819 O 0.37818 0.46977 0.32031 0.0
O820 O 0.37821 0.47046 0.30855 0.0
C821 C 0.32604 0.46709 0.3366 0.0
O822 O 0.31963 0.49481 0.33289 0.0
C823 C 0.34166 0.45084 0.29147 0.0
C824 C 0.32687 0.40082 0.28692 0.0
C825 C 0.33527 0.43414 0.28509 0.0
N826 N 0.33746 0.42824 0.29676 0.0
N827 N 0.32863 0.39844 0.29401 0.0
C828 C 0.34924 0.48796 0.29265 0.0
H829 H 0.34034 0.49597 0.29798 0.0
H830 H 0.33663 0.50399 0.28856 0.0
H831 H 0.37733 0.49205 0.29237 0.0
C832 C 0.26778 0.44215 0.32042 0.0
N833 N 0.3006 0.44067 0.31822 0.0
N834 N 0.30136 0.44203 0.31127 0.0
C835 C 0.26911 0.44571 0.30882 0.0
C836 C 0.24658 0.44573 0.31454 0.0
C837 C 0.25674 0.43626 0.32792 0.0
H838 H 0.27498 0.41896 0.33064 0.0
H839 H 0.25614 0.4611 0.33076 0.0
H840 H 0.23078 0.42476 0.32813 0.0
O841 O 0.36266 0.39033 0.32156 0.0
O842 O 0.36516 0.39054 0.30984 0.0
H843 H 0.26066 0.42489 0.2985 0.0
H844 H 0.23477 0.46208 0.30048 0.0
C845 C 0.26037 0.45023 0.30116 0.0
H846 H 0.27971 0.46678 0.29858 0.0
H847 H 0.32391 0.37642 0.29699 0.0
O848 O 0.33574 0.44002 0.33346 0.0
C849 C 0.3712 0.37617 0.31576 0.0
Co850 Co 0.31323 0.59453 0.07178 0.0
Co851 Co 0.32158 0.59792 0.05533 0.0
C852 C 0.27089 0.64234 0.06298 0.0
O853 O 0.27932 0.62955 0.06894 0.0
O854 O 0.28424 0.63163 0.05723 0.0
C855 C 0.30463 0.6087 0.08638 0.0
O856 O 0.30471 0.64048 0.0841 0.0
C857 C 0.30375 0.59182 0.04033 0.0
C858 C 0.35485 0.59034 0.0353 0.0
C859 C 0.32011 0.58965 0.0338 0.0
N860 N 0.32777 0.59384 0.0454 0.0
N861 N 0.35824 0.59305 0.04237 0.0
C862 C 0.26622 0.58992 0.04186 0.0
H863 H 0.26189 0.58018 0.04731 0.0
H864 H 0.2531 0.57312 0.03798 0.0
H865 H 0.25507 0.616 0.04151 0.0
C866 C 0.30422 0.52082 0.06848 0.0
N867 N 0.30906 0.55352 0.06645 0.0
N868 N 0.31368 0.5545 0.05956 0.0
C869 C 0.3129 0.52225 0.05699 0.0
C870 C 0.30676 0.49969 0.06257 0.0
C871 C 0.29607 0.51045 0.07593 0.0
H872 H 0.27762 0.52884 0.07827 0.0
H873 H 0.28484 0.4844 0.07616 0.0
H874 H 0.31986 0.51112 0.07914 0.0
O875 O 0.35906 0.61604 0.07067 0.0
O876 O 0.36396 0.61851 0.05898 0.0
H877 H 0.34325 0.52855 0.04763 0.0
H878 H 0.32763 0.48568 0.0489 0.0
C879 C 0.32116 0.51317 0.04948 0.0
H880 H 0.29883 0.51925 0.04608 0.0
H881 H 0.38136 0.59424 0.04512 0.0
O882 O 0.30758 0.58448 0.08194 0.0
C883 C 0.37563 0.62468 0.06514 0.0
Co884 Co 0.1544 0.56688 0.82096 0.0
Co885 Co 0.15435 0.57276 0.80446 0.0
C886 C 0.10707 0.52451 0.81191 0.0
O887 O 0.11942 0.53263 0.81794 0.0
O888 O 0.11863 0.53768 0.80622 0.0
C889 C 0.16474 0.53709 0.835 0.0
O890 O 0.16418 0.5068 0.83197 0.0
C891 C 0.15532 0.55696 0.78922 0.0
C892 C 0.18137 0.60278 0.78494 0.0
C893 C 0.16713 0.57172 0.783 0.0
N894 N 0.16222 0.57842 0.79459 0.0
N895 N 0.17749 0.60588 0.79199 0.0
C896 C 0.14045 0.52195 0.79015 0.0
H897 H 0.14989 0.51047 0.79516 0.0
H898 H 0.14716 0.50498 0.78565 0.0
H899 H 0.11217 0.52406 0.79049 0.0
C900 C 0.22908 0.55866 0.8184 0.0
N901 N 0.19659 0.56214 0.81611 0.0
N902 N 0.19637 0.56248 0.80915 0.0
C903 C 0.22864 0.55783 0.80678 0.0
C904 C 0.25066 0.5556 0.81256 0.0
C905 C 0.23939 0.56158 0.82602 0.0
H906 H 0.22298 0.58059 0.82875 0.0
H907 H 0.23596 0.53638 0.82864 0.0
H908 H 0.2665 0.56962 0.82656 0.0
O909 O 0.13459 0.61251 0.81941 0.0
O910 O 0.13465 0.6169 0.80772 0.0
H911 H 0.2404 0.5794 0.79666 0.0
H912 H 0.26244 0.53977 0.7985 0.0
C913 C 0.23789 0.55375 0.79913 0.0
H914 H 0.21754 0.53938 0.79633 0.0
H915 H 0.18588 0.62645 0.79506 0.0
O916 O 0.1612 0.56382 0.83125 0.0
C917 C 0.12771 0.6291 0.81381 0.0
Co918 Co 0.19055 0.40754 0.57146 0.0
Co919 Co 0.17445 0.40476 0.55525 0.0
C920 C 0.22863 0.35994 0.56206 0.0
O921 O 0.22442 0.37304 0.56819 0.0
O922 O 0.21142 0.37042 0.55674 0.0
C923 C 0.22175 0.4106 0.58556 0.0
O924 O 0.2478 0.39356 0.58292 0.0
C925 C 0.18986 0.40979 0.54018 0.0
C926 C 0.13833 0.41356 0.53541 0.0
C927 C 0.17289 0.41257 0.53374 0.0
N928 N 0.16641 0.40898 0.54537 0.0
N929 N 0.13565 0.41113 0.54249 0.0
C930 C 0.22762 0.41003 0.54151 0.0
H931 H 0.2331 0.4204 0.54686 0.0
H932 H 0.2411 0.42553 0.53744 0.0
H933 H 0.23741 0.38338 0.54128 0.0
C934 C 0.19843 0.48131 0.56806 0.0
N935 N 0.19241 0.44867 0.56611 0.0
N936 N 0.18466 0.44787 0.55934 0.0
C937 C 0.18479 0.4801 0.55678 0.0
C938 C 0.19358 0.5025 0.56222 0.0
C939 C 0.20979 0.4916 0.57532 0.0
H940 H 0.22952 0.47344 0.57725 0.0
H941 H 0.22065 0.51784 0.57538 0.0
H942 H 0.18762 0.49041 0.57899 0.0
O943 O 0.14477 0.38531 0.57088 0.0
O944 O 0.13292 0.38494 0.55941 0.0
H945 H 0.15041 0.4747 0.54802 0.0
H946 H 0.16807 0.51704 0.54892 0.0
C947 C 0.17372 0.48933 0.54943 0.0
H948 H 0.19429 0.48232 0.54565 0.0
H949 H 0.11284 0.41106 0.54537 0.0
O950 O 0.19667 0.41839 0.58159 0.0
C951 C 0.12497 0.37771 0.56576 0.0
Co952 Co 0.34176 0.56927 0.17544 0.0
Co953 Co 0.34407 0.56452 0.19195 0.0
C954 C 0.38897 0.52023 0.1832 0.0
O955 O 0.37694 0.53367 0.17756 0.0
O956 O 0.3775 0.5285 0.18929 0.0
C957 C 0.33116 0.54462 0.16111 0.0
O958 O 0.33478 0.51377 0.16378 0.0
C959 C 0.34335 0.54266 0.2069 0.0
C960 C 0.32915 0.59125 0.21217 0.0
C961 C 0.33789 0.55752 0.21348 0.0
N962 N 0.33797 0.56664 0.20192 0.0
N963 N 0.32933 0.59553 0.2051 0.0
C964 C 0.35648 0.5075 0.20532 0.0
H965 H 0.34163 0.49624 0.20088 0.0
H966 H 0.3553 0.49046 0.21 0.0
H967 H 0.38354 0.50947 0.20358 0.0
C968 C 0.2673 0.56146 0.17825 0.0
N969 N 0.30014 0.56264 0.18042 0.0
N970 N 0.30118 0.55901 0.18734 0.0
C971 C 0.26907 0.55428 0.18978 0.0
C972 C 0.24632 0.55592 0.18411 0.0
C973 C 0.25625 0.56874 0.17081 0.0
H974 H 0.27273 0.58888 0.16847 0.0
H975 H 0.25905 0.54512 0.16759 0.0
H976 H 0.22923 0.57741 0.17058 0.0
O977 O 0.36265 0.61349 0.17785 0.0
O978 O 0.36586 0.6089 0.18952 0.0
H979 H 0.26092 0.57117 0.20041 0.0
H980 H 0.23523 0.53461 0.1979 0.0
C981 C 0.26071 0.54688 0.19736 0.0
H982 H 0.28034 0.5296 0.19964 0.0
H983 H 0.32417 0.61837 0.20244 0.0
O984 O 0.33328 0.57052 0.16515 0.0
C985 C 0.3718 0.62531 0.18382 0.0
Co986 Co 0.195 0.58367 0.9243 0.0
Co987 Co 0.19211 0.58701 0.9408 0.0
C988 C 0.24027 0.63134 0.93285 0.0
O989 O 0.22946 0.6188 0.92703 0.0
O990 O 0.22924 0.62038 0.93878 0.0
C991 C 0.19818 0.5981 0.90967 0.0
O992 O 0.19362 0.62957 0.91194 0.0
C993 C 0.20881 0.58562 0.95599 0.0
C994 C 0.15895 0.57079 0.96061 0.0
C995 C 0.19237 0.57907 0.96238 0.0
N996 N 0.18602 0.58157 0.95073 0.0
N997 N 0.15628 0.5728 0.95352 0.0
C998 C 0.24598 0.5929 0.95479 0.0
H999 H 0.25396 0.58339 0.9495 0.0
H1000 H 0.26196 0.5807 0.95894 0.0
H1001 H 0.25018 0.62099 0.95494 0.0
C1002 C 0.20064 0.50965 0.92736 0.0
N1003 N 0.19894 0.54251 0.92949 0.0
N1004 N 0.19944 0.54371 0.93644 0.0
C1005 C 0.20253 0.51155 0.93898 0.0
C1006 C 0.20324 0.48871 0.9333 0.0
C1007 C 0.1964 0.49869 0.91981 0.0
H1008 H 0.1768 0.51485 0.91719 0.0
H1009 H 0.22103 0.50223 0.91697 0.0
H1010 H 0.18839 0.47153 0.9194 0.0
O1011 O 0.14982 0.60491 0.92566 0.0
O1012 O 0.1492 0.60885 0.93737 0.0
H1013 H 0.18032 0.50424 0.94921 0.0
H1014 H 0.21705 0.47729 0.94748 0.0
C1015 C 0.20595 0.50314 0.94668 0.0
H1016 H 0.22267 0.52223 0.94929 0.0
H1017 H 0.13418 0.56801 0.95058 0.0
O1018 O 0.20029 0.57396 0.91414 0.0
C1019 C 0.13548 0.61458 0.93137 0.0
Co1020 Co 0.16346 0.42747 0.67424 0.0
Co1021 Co 0.16451 0.43129 0.69079 0.0
C1022 C 0.11709 0.47518 0.68262 0.0
O1023 O 0.12831 0.46239 0.67685 0.0
O1024 O 0.12971 0.46654 0.68858 0.0
C1025 C 0.17834 0.45505 0.66046 0.0
O1026 O 0.18428 0.48359 0.66394 0.0
C1027 C 0.165 0.45098 0.70588 0.0
C1028 C 0.19503 0.40848 0.7105 0.0
C1029 C 0.17821 0.43856 0.71219 0.0
N1030 N 0.17362 0.42913 0.70068 0.0
N1031 N 0.19131 0.40367 0.70349 0.0
C1032 C 0.14659 0.48407 0.7047 0.0
H1033 H 0.15621 0.49645 0.6998 0.0
H1034 H 0.14997 0.5018 0.70924 0.0
H1035 H 0.11889 0.47877 0.70398 0.0
C1036 C 0.23856 0.43575 0.67645 0.0
N1037 N 0.20608 0.43424 0.67886 0.0
N1038 N 0.20614 0.43851 0.68576 0.0
C1039 C 0.23849 0.44454 0.68793 0.0
C1040 C 0.26031 0.44261 0.68212 0.0
C1041 C 0.24886 0.42719 0.66902 0.0
H1042 H 0.23062 0.40863 0.66668 0.0
H1043 H 0.24875 0.45088 0.66578 0.0
H1044 H 0.27499 0.41606 0.66887 0.0
O1045 O 0.14393 0.38276 0.67669 0.0
O1046 O 0.14334 0.38635 0.68841 0.0
H1047 H 0.25251 0.43049 0.69848 0.0
H1048 H 0.27166 0.4698 0.69545 0.0
C1049 C 0.24799 0.4541 0.69535 0.0
H1050 H 0.22697 0.46883 0.69786 0.0
H1051 H 0.20126 0.38322 0.70058 0.0
O1052 O 0.16925 0.42848 0.66386 0.0
C1053 C 0.13644 0.37027 0.68271 0.0
Co1054 Co 0.30773 0.40985 0.42514 0.0
Co1055 Co 0.31547 0.40496 0.44157 0.0
C1056 C 0.26596 0.36025 0.43353 0.0
O1057 O 0.2742 0.37384 0.42763 0.0
O1058 O 0.27903 0.37062 0.43934 0.0
C1059 C 0.27943 0.41559 0.41092 0.0
O1060 O 0.25252 0.39912 0.41333 0.0
C1061 C 0.29534 0.40987 0.45646 0.0
C1062 C 0.34555 0.41273 0.46183 0.0
C1063 C 0.31058 0.41257 0.46308 0.0
N1064 N 0.32018 0.4084 0.45155 0.0
N1065 N 0.35013 0.40996 0.45479 0.0
C1066 C 0.25802 0.41093 0.45469 0.0
H1067 H 0.25427 0.42076 0.44923 0.0
H1068 H 0.24392 0.42726 0.45852 0.0
H1069 H 0.24747 0.38458 0.45494 0.0
C1070 C 0.29769 0.48302 0.4287 0.0
N1071 N 0.30246 0.45018 0.43063 0.0
N1072 N 0.30708 0.44872 0.43752 0.0
C1073 C 0.30636 0.48082 0.44018 0.0
C1074 C 0.30039 0.50377 0.43466 0.0
C1075 C 0.28962 0.49395 0.42128 0.0
H1076 H 0.27018 0.4765 0.41899 0.0
H1077 H 0.27948 0.52045 0.42109 0.0
H1078 H 0.31314 0.49227 0.418 0.0
O1079 O 0.35381 0.38922 0.42637 0.0
O1080 O 0.35885 0.38575 0.43804 0.0
H1081 H 0.33713 0.47423 0.44946 0.0
H1082 H 0.32068 0.51695 0.44839 0.0
C1083 C 0.31472 0.4894 0.44771 0.0
H1084 H 0.29262 0.4826 0.45112 0.0
H1085 H 0.3737 0.40945 0.45219 0.0
O1086 O 0.30437 0.42184 0.41504 0.0
C1087 C 0.37065 0.3805 0.43185 0.0
C1088 C 0.19195 0.97696 0.27417 0.0
C1089 C 0.17226 0.94797 0.27583 0.0
C1090 C 0.19313 0.98933 0.26722 0.0
C1091 C 0.17871 0.96271 0.24867 0.0
H1092 H 0.17358 0.06032 0.24511 0.0
C1093 C 0.15815 0.01953 0.22069 0.0
C1094 C 0.17656 0.04927 0.21897 0.0
C1095 C 0.15901 0.00643 0.22759 0.0
C1096 C 0.17548 0.033 0.24602 0.0
H1097 H 0.13869 0.90899 0.27151 0.0
H1098 H 0.14052 0.93069 0.25943 0.0
H1099 H 0.17232 0.03927 0.25726 0.0
H1100 H 0.2104 0.0885 0.22309 0.0
H1101 H 0.21218 0.0655 0.23508 0.0
H1102 H 0.18172 0.95644 0.23743 0.0
C1103 C 0.15526 0.94376 0.26346 0.0
C1104 C 0.17475 0.02096 0.25298 0.0
C1105 C 0.15409 0.93142 0.2704 0.0
C1106 C 0.19595 0.06552 0.22426 0.0
C1107 C 0.19683 0.05244 0.23114 0.0
C1108 C 0.17945 0.97476 0.24171 0.0
C1109 C 0.17485 0.97281 0.26179 0.0
C1110 C 0.17625 0.98567 0.25439 0.0
C1111 C 0.17811 0.02294 0.2329 0.0
C1112 C 0.17779 0.01004 0.2403 0.0
H1113 H 0.20724 0.98957 0.27816 0.0
H1114 H 0.20897 0.01141 0.26608 0.0
H1115 H 0.18045 0.93539 0.24958 0.0
H1116 H 0.14204 0.00705 0.21682 0.0
H1117 H 0.14382 0.98399 0.2288 0.0
C1118 C 0.22239 0.89332 0.47205 0.0
C1119 C 0.19732 0.9174 0.47015 0.0
C1120 C 0.23606 0.8931 0.47889 0.0
C1121 C 0.21696 0.91984 0.49715 0.0
H1122 H 0.31461 0.90813 0.5 0.0
C1123 C 0.32324 0.93166 0.52095 0.0
C1124 C 0.30646 0.91339 0.52633 0.0
C1125 C 0.30989 0.93241 0.51409 0.0
C1126 C 0.28732 0.91165 0.49929 0.0
H1127 H 0.16638 0.95967 0.47394 0.0
H1128 H 0.19028 0.95936 0.48588 0.0
H1129 H 0.29152 0.90943 0.48799 0.0
H1130 H 0.26351 0.87997 0.52864 0.0
H1131 H 0.23989 0.88178 0.51671 0.0
H1132 H 0.2128 0.92245 0.50844 0.0
C1133 C 0.19936 0.94062 0.48209 0.0
C1134 C 0.27406 0.91203 0.49242 0.0
C1135 C 0.18578 0.94088 0.47525 0.0
C1136 C 0.27631 0.89545 0.5247 0.0
C1137 C 0.2629 0.89626 0.51784 0.0
C1138 C 0.2302 0.91932 0.50402 0.0
C1139 C 0.22465 0.91672 0.48398 0.0
C1140 C 0.23875 0.9162 0.49128 0.0
C1141 C 0.27956 0.91473 0.51246 0.0
C1142 C 0.26552 0.91527 0.50516 0.0
H1143 H 0.23087 0.87403 0.46833 0.0
H1144 H 0.25501 0.87393 0.48023 0.0
H1145 H 0.18959 0.92274 0.49645 0.0
H1146 H 0.34662 0.94561 0.52205 0.0
H1147 H 0.32316 0.94712 0.51007 0.0
C1148 C 0.30116 0.94678 0.72383 0.0
C1149 C 0.3254 0.95775 0.71883 0.0
C1150 C 0.30112 0.96026 0.73067 0.0
C1151 C 0.32203 0.97573 0.74578 0.0
H1152 H 0.33477 0.07283 0.74916 0.0
C1153 C 0.34535 0.03114 0.77368 0.0
C1154 C 0.32723 0.061 0.77546 0.0
C1155 C 0.3451 0.01881 0.76674 0.0
C1156 C 0.33099 0.04568 0.74829 0.0
H1157 H 0.36945 0.9906 0.71717 0.0
H1158 H 0.36902 0.01462 0.72909 0.0
H1159 H 0.33371 0.05119 0.73702 0.0
H1160 H 0.29539 0.10184 0.77133 0.0
H1161 H 0.29487 0.08024 0.7592 0.0
H1162 H 0.31893 0.97021 0.75704 0.0
C1163 C 0.34959 0.99609 0.72766 0.0
C1164 C 0.33072 0.03327 0.74135 0.0
C1165 C 0.34967 0.9825 0.72081 0.0
C1166 C 0.30942 0.07863 0.77012 0.0
C1167 C 0.30925 0.06637 0.76317 0.0
C1168 C 0.32245 0.9881 0.75272 0.0
C1169 C 0.32546 0.98489 0.73267 0.0
C1170 C 0.3261 0.99818 0.74003 0.0
C1171 C 0.32705 0.03629 0.76141 0.0
C1172 C 0.32685 0.02321 0.75404 0.0
H1173 H 0.28215 0.9277 0.72246 0.0
H1174 H 0.28195 0.95143 0.7344 0.0
H1175 H 0.31881 0.94849 0.74493 0.0
H1176 H 0.36052 0.01774 0.77758 0.0
H1177 H 0.35964 0.99595 0.76551 0.0
C1178 C 0.30453 0.04884 0.97268 0.0
C1179 C 0.30394 0.07795 0.96835 0.0
C1180 C 0.29267 0.05055 0.97964 0.0
C1181 C 0.2419 0.10537 0.99197 0.0
H1182 H 0.28429 0.04701 0.0061 0.0
C1183 C 0.21763 0.11337 0.0224 0.0
C1184 C 0.20511 0.0826 0.02523 0.0
C1185 C 0.2305 0.11431 0.01549 0.0
C1186 C 0.27231 0.06343 0.00219 0.0
H1187 H 0.29162 0.1319 0.96787 0.0
H1188 H 0.27217 0.13549 0.98014 0.0
H1189 H 0.30583 0.04651 0.99399 0.0
H1190 H 0.19617 0.02879 0.02318 0.0
H1191 H 0.21986 0.03017 0.01116 0.0
H1192 H 0.20918 0.12297 0.00035 0.0
C1193 C 0.28047 0.11091 0.97812 0.0
C1194 C 0.28436 0.06298 0.99523 0.0
C1195 C 0.29169 0.10897 0.9711 0.0
C1196 C 0.20582 0.05276 0.0211 0.0
C1197 C 0.21941 0.05352 0.01426 0.0
C1198 C 0.23036 0.10632 -0.00102 0.0
C1199 C 0.28081 0.08169 0.9825 0.0
C1200 C 0.26897 0.08353 0.98999 0.0
C1201 C 0.23162 0.08432 0.01139 0.0
C1202 C 0.24519 0.08501 0.00411 0.0
H1203 H 0.31379 0.0246 0.97065 0.0
H1204 H 0.29259 0.02728 0.98276 0.0
H1205 H 0.229 0.12118 0.9881 0.0
H1206 H 0.21685 0.13677 0.02547 0.0
H1207 H 0.23981 0.13832 0.01336 0.0
C1208 C 0.8101 0.92088 0.77084 0.0
C1209 C 0.82695 0.93914 0.77623 0.0
C1210 C 0.81076 0.93258 0.76386 0.0
C1211 C 0.82409 0.00992 0.75318 0.0
H1212 H 0.84255 0.946 0.73792 0.0
C1213 C 0.84798 0.05642 0.72476 0.0
C1214 C 0.8334 0.03742 0.71923 0.0
C1215 C 0.84812 0.04359 0.73166 0.0
C1216 C 0.83696 0.9641 0.74211 0.0
H1217 H 0.85937 0.98303 0.77839 0.0
H1218 H 0.85968 0.00396 0.76626 0.0
H1219 H 0.84018 0.92539 0.75012 0.0
H1220 H 0.80654 0.99071 0.71654 0.0
H1221 H 0.80647 0.96819 0.72862 0.0
H1222 H 0.82038 0.04856 0.74521 0.0
C1223 C 0.84532 0.98098 0.76748 0.0
C1224 C 0.83564 0.95229 0.74909 0.0
C1225 C 0.84483 0.96915 0.77446 0.0
C1226 C 0.81884 0.00536 0.72069 0.0
C1227 C 0.81874 0.99257 0.72761 0.0
C1228 C 0.82518 0.02168 0.74621 0.0
C1229 C 0.82836 0.96277 0.76211 0.0
C1230 C 0.82932 0.97512 0.75469 0.0
C1231 C 0.83314 0.01169 0.73318 0.0
C1232 C 0.83179 0.99896 0.74059 0.0
H1233 H 0.79628 0.89753 0.77204 0.0
H1234 H 0.79726 0.91815 0.75983 0.0
H1235 H 0.81867 0.02799 0.75738 0.0
H1236 H 0.85927 0.08128 0.72375 0.0
H1237 H 0.85993 0.05873 0.73579 0.0
C1238 C 0.68543 0.06278 0.47527 0.0
C1239 C 0.70042 0.08249 0.46989 0.0
C1240 C 0.69967 0.06217 0.48205 0.0
C1241 C 0.72123 0.08328 0.4968 0.0
H1242 H 0.81958 0.08317 0.49961 0.0
C1243 C 0.78179 0.10812 0.52412 0.0
C1244 C 0.81008 0.088 0.52605 0.0
C1245 C 0.76884 0.10688 0.51724 0.0
C1246 C 0.79205 0.0829 0.49892 0.0
H1247 H 0.74138 0.11804 0.46744 0.0
H1248 H 0.76632 0.11699 0.47927 0.0
H1249 H 0.79645 0.0807 0.48763 0.0
H1250 H 0.84757 0.05146 0.52226 0.0
H1251 H 0.82468 0.04885 0.51023 0.0
H1252 H 0.71678 0.08478 0.50808 0.0
C1253 C 0.7441 0.1012 0.4782 0.0
C1254 C 0.77881 0.08189 0.49205 0.0
C1255 C 0.7299 0.10169 0.47141 0.0
C1256 C 0.82561 0.06712 0.52092 0.0
C1257 C 0.8126 0.06576 0.51403 0.0
C1258 C 0.73447 0.08422 0.50366 0.0
C1259 C 0.72902 0.08159 0.48362 0.0
C1260 C 0.74323 0.08213 0.49091 0.0
C1261 C 0.784 0.08557 0.51211 0.0
C1262 C 0.77003 0.08415 0.50481 0.0
H1263 H 0.66266 0.04774 0.47424 0.0
H1264 H 0.68768 0.04642 0.48607 0.0
H1265 H 0.69371 0.08394 0.49611 0.0
H1266 H 0.77009 0.12546 0.52788 0.0
H1267 H 0.7473 0.12309 0.51589 0.0
C1268 C 0.7066 0.06578 0.27232 0.0
C1269 C 0.67728 0.06437 0.27659 0.0
C1270 C 0.7055 0.0541 0.26535 0.0
C1271 C 0.65285 0.0011 0.25309 0.0
H1272 H 0.71124 0.04324 0.23894 0.0
C1273 C 0.64797 0.97177 0.22291 0.0
C1274 C 0.67927 0.9595 0.22028 0.0
C1275 C 0.64621 0.98603 0.22969 0.0
C1276 C 0.69481 0.03135 0.24285 0.0
H1277 H 0.6235 0.05118 0.27692 0.0
H1278 H 0.62097 0.03204 0.26463 0.0
H1279 H 0.71011 0.06635 0.25093 0.0
H1280 H 0.73316 0.95245 0.22254 0.0
H1281 H 0.7303 0.97853 0.23434 0.0
H1282 H 0.63692 0.96679 0.24485 0.0
C1283 C 0.64526 0.04079 0.26671 0.0
C1284 C 0.69432 0.04431 0.24974 0.0
C1285 C 0.64659 0.05184 0.27374 0.0
C1286 C 0.70881 0.9619 0.22448 0.0
C1287 C 0.70721 0.97685 0.23118 0.0
C1288 C 0.65282 0.98863 0.24616 0.0
C1289 C 0.67477 0.04157 0.26243 0.0
C1290 C 0.67375 0.02901 0.25499 0.0
C1291 C 0.67587 0.98877 0.23385 0.0
C1292 C 0.67417 0.00338 0.24103 0.0
H1293 H 0.73057 0.0753 0.27444 0.0
H1294 H 0.72895 0.05445 0.26229 0.0
H1295 H 0.63711 0.98822 0.25698 0.0
H1296 H 0.62481 0.9697 0.21979 0.0
H1297 H 0.6218 0.99506 0.23167 0.0
C1298 C 0.82691 0.93509 0.97516 0.0
C1299 C 0.8106 0.91628 0.96979 0.0
C1300 C 0.81337 0.93598 0.982 0.0
C1301 C 0.79148 0.91501 0.9968 0.0
H1302 H 0.69374 0.92483 -0.0002 0.0
C1303 C 0.72858 0.89785 0.02426 0.0
C1304 C 0.70345 0.92188 0.02616 0.0
C1305 C 0.7416 0.89706 0.01737 0.0
C1306 C 0.72112 0.92227 -0.00095 0.0
H1307 H 0.76804 0.88236 0.96749 0.0
H1308 H 0.74406 0.8844 0.9794 0.0
H1309 H 0.71647 0.92447 0.98775 0.0
H1310 H 0.67166 0.96337 0.0223 0.0
H1311 H 0.69445 0.96208 0.01028 0.0
H1312 H 0.7962 0.91326 0.00808 0.0
C1313 C 0.76691 0.89913 0.97826 0.0
C1314 C 0.73408 0.92171 0.99215 0.0
C1315 C 0.78052 0.89818 0.97142 0.0
C1316 C 0.69114 0.94465 0.021 0.0
C1317 C 0.70408 0.94382 0.01411 0.0
C1318 C 0.77851 0.91542 0.00369 0.0
C1319 C 0.78329 0.9179 0.98364 0.0
C1320 C 0.76942 0.91821 0.99095 0.0
C1321 C 0.72948 0.92004 0.01222 0.0
C1322 C 0.7432 0.91917 0.00489 0.0
H1323 H 0.85018 0.94923 0.97407 0.0
H1324 H 0.82638 0.95099 0.986 0.0
H1325 H 0.8188 0.91187 0.99604 0.0
H1326 H 0.73764 0.87905 0.02803 0.0
H1327 H 0.76067 0.87798 0.01603 0.0
C1328 C 0.63619 0.52811 0.72307 0.0
C1329 C 0.6683 0.53844 0.7205 0.0
C1330 C 0.63316 0.51467 0.72991 0.0
C1331 C 0.6782 0.46792 0.74338 0.0
H1332 H 0.62438 0.51678 0.75737 0.0
C1333 C 0.6904 0.43654 0.77293 0.0
C1334 C 0.66165 0.43999 0.77731 0.0
C1335 C 0.6894 0.44785 0.76593 0.0
C1336 C 0.63898 0.50234 0.75352 0.0
H1337 H 0.72231 0.54277 0.72292 0.0
H1338 H 0.71718 0.51805 0.7348 0.0
H1339 H 0.62491 0.53648 0.7451 0.0
H1340 H 0.60894 0.45689 0.77783 0.0
H1341 H 0.60651 0.47551 0.76549 0.0
H1342 H 0.69166 0.43316 0.75163 0.0
C1343 C 0.69444 0.52067 0.73156 0.0
C1344 C 0.63936 0.5138 0.7465 0.0
C1345 C 0.69734 0.53482 0.7248 0.0
C1346 C 0.63165 0.45459 0.77457 0.0
C1347 C 0.63036 0.4653 0.7675 0.0
C1348 C 0.67728 0.45602 0.75034 0.0
C1349 C 0.66231 0.51077 0.73418 0.0
C1350 C 0.65945 0.49699 0.74142 0.0
C1351 C 0.65925 0.46205 0.76308 0.0
C1352 C 0.65823 0.47346 0.75555 0.0
H1353 H 0.61343 0.53113 0.71985 0.0
H1354 H 0.60815 0.5072 0.73185 0.0
H1355 H 0.69363 0.45444 0.73951 0.0
H1356 H 0.71388 0.42546 0.77496 0.0
H1357 H 0.71246 0.44567 0.76278 0.0
C1358 C 0.71928 0.39582 0.9718 0.0
C1359 C 0.68962 0.41404 0.96994 0.0
C1360 C 0.73154 0.39666 0.97875 0.0
C1361 C 0.70449 0.413 0.9971 0.0
H1362 H 0.80166 0.42518 0.00049 0.0
C1363 C 0.80241 0.44657 0.02148 0.0
C1364 C 0.79117 0.42322 0.02663 0.0
C1365 C 0.78933 0.44536 0.01461 0.0
C1366 C 0.77444 0.42195 -0.00037 0.0
H1367 H 0.64908 0.44676 0.97391 0.0
H1368 H 0.67055 0.44832 0.98604 0.0
H1369 H 0.78024 0.4235 0.98836 0.0
H1370 H 0.75835 0.37938 0.02854 0.0
H1371 H 0.735 0.37766 0.01657 0.0
H1372 H 0.69867 0.41188 0.00838 0.0
C1373 C 0.68431 0.43337 0.98213 0.0
C1374 C 0.76223 0.42064 0.99269 0.0
C1375 C 0.67212 0.4326 0.97518 0.0
C1376 C 0.76661 0.39852 0.02477 0.0
C1377 C 0.75343 0.39737 0.0179 0.0
C1378 C 0.71673 0.41416 0.00405 0.0
C1379 C 0.71417 0.41544 0.98398 0.0
C1380 C 0.72712 0.4163 0.99135 0.0
C1381 C 0.76484 0.42064 0.01274 0.0
C1382 C 0.7518 0.41883 0.00538 0.0
H1383 H 0.73257 0.38012 0.96797 0.0
H1384 H 0.75424 0.38203 0.98005 0.0
H1385 H 0.67733 0.40927 0.99623 0.0
H1386 H 0.82136 0.46586 0.02275 0.0
H1387 H 0.79832 0.46389 0.01077 0.0
C1388 C 0.86771 0.53116 0.27465 0.0
C1389 C 0.83638 0.54293 0.27737 0.0
C1390 C 0.86951 0.51806 0.26777 0.0
C1391 C 0.82021 0.47556 0.25421 0.0
H1392 H 0.8779 0.52091 0.24037 0.0
C1393 C 0.80507 0.44801 0.22455 0.0
C1394 C 0.83407 0.449 0.22019 0.0
C1395 C 0.80704 0.4588 0.23158 0.0
C1396 C 0.86213 0.50745 0.24418 0.0
H1397 H 0.78247 0.55013 0.27515 0.0
H1398 H 0.78539 0.52609 0.26318 0.0
H1399 H 0.87923 0.53939 0.25273 0.0
H1400 H 0.88811 0.46101 0.21972 0.0
H1401 H 0.8921 0.47875 0.2321 0.0
H1402 H 0.80363 0.44297 0.24582 0.0
C1403 C 0.8085 0.52727 0.26635 0.0
C1404 C 0.86285 0.51819 0.25124 0.0
C1405 C 0.80686 0.54105 0.27316 0.0
C1406 C 0.86524 0.46069 0.22297 0.0
C1407 C 0.86743 0.47088 0.23006 0.0
C1408 C 0.81997 0.46435 0.24719 0.0
C1409 C 0.83987 0.51596 0.26358 0.0
C1410 C 0.84146 0.50269 0.25627 0.0
C1411 C 0.83834 0.46998 0.23447 0.0
C1412 C 0.8404 0.48058 0.24204 0.0
H1413 H 0.89086 0.53285 0.27779 0.0
H1414 H 0.89396 0.50948 0.26571 0.0
H1415 H 0.80373 0.46307 0.25803 0.0
H1416 H 0.78071 0.43917 0.22249 0.0
H1417 H 0.78387 0.45853 0.23472 0.0
C1418 C 0.67519 0.56804 0.52168 0.0
C1419 C 0.69219 0.5869 0.52694 0.0
C1420 C 0.6885 0.56621 0.51483 0.0
C1421 C 0.76816 0.5776 0.50465 0.0
H1422 H 0.7067 0.58711 0.48864 0.0
C1423 C 0.77528 0.60344 0.4727 0.0
C1424 C 0.80005 0.57918 0.47074 0.0
C1425 C 0.762 0.60369 0.47957 0.0
C1426 C 0.72419 0.58459 0.49306 0.0
H1427 H 0.73541 0.62027 0.52904 0.0
H1428 H 0.75893 0.61665 0.51713 0.0
H1429 H 0.68375 0.58905 0.50065 0.0
H1430 H 0.83111 0.53683 0.47444 0.0
H1431 H 0.80786 0.53721 0.48644 0.0
H1432 H 0.80868 0.57374 0.49706 0.0
C1433 C 0.73582 0.60249 0.51835 0.0
C1434 C 0.71101 0.58533 0.49993 0.0
C1435 C 0.72246 0.60437 0.5252 0.0
C1436 C 0.81189 0.55571 0.47581 0.0
C1437 C 0.79867 0.556 0.48268 0.0
C1438 C 0.78133 0.57674 0.49778 0.0
C1439 C 0.71897 0.58341 0.51309 0.0
C1440 C 0.73288 0.58196 0.5058 0.0
C1441 C 0.7735 0.57993 0.48462 0.0
C1442 C 0.75949 0.58034 0.49191 0.0
H1443 H 0.6517 0.55446 0.52288 0.0
H1444 H 0.67508 0.5511 0.5109 0.0
H1445 H 0.78559 0.57465 0.50907 0.0
H1446 H 0.76664 0.62274 0.46901 0.0
H1447 H 0.74319 0.62294 0.48096 0.0
C1448 C 0.31558 0.4329 0.27253 0.0
C1449 C 0.33678 0.44737 0.27775 0.0
C1450 C 0.31746 0.44403 0.26552 0.0
C1451 C 0.34238 0.517 0.25463 0.0
H1452 H 0.34589 0.45071 0.23935 0.0
C1453 C 0.36057 0.55955 0.22576 0.0
C1454 C 0.34153 0.54234 0.22057 0.0
C1455 C 0.3622 0.54684 0.23265 0.0
C1456 C 0.34452 0.46956 0.24354 0.0
H1457 H 0.37806 0.48354 0.27957 0.0
H1458 H 0.38036 0.50387 0.26739 0.0
H1459 H 0.34383 0.43096 0.2516 0.0
H1460 H 0.30853 0.49902 0.21847 0.0
H1461 H 0.31073 0.47693 0.23057 0.0
H1462 H 0.34208 0.55563 0.24663 0.0
C1463 C 0.36189 0.4843 0.26878 0.0
C1464 C 0.34344 0.45822 0.25056 0.0
C1465 C 0.36026 0.47291 0.27578 0.0
C1466 C 0.32411 0.51218 0.22236 0.0
C1467 C 0.3254 0.49962 0.22928 0.0
C1468 C 0.34309 0.52835 0.24762 0.0
C1469 C 0.34056 0.4699 0.26358 0.0
C1470 C 0.34231 0.48185 0.25616 0.0
C1471 C 0.34423 0.51699 0.23453 0.0
C1472 C 0.34416 0.50477 0.24199 0.0
H1473 H 0.29736 0.41302 0.27388 0.0
H1474 H 0.30055 0.43267 0.26163 0.0
H1475 H 0.34108 0.53574 0.25885 0.0
H1476 H 0.37414 0.58294 0.22447 0.0
H1477 H 0.37745 0.56054 0.23651 0.0
C1478 C 0.32266 0.56884 0.02134 0.0
C1479 C 0.30524 0.58727 0.02662 0.0
C1480 C 0.31007 0.56774 0.01443 0.0
C1481 C 0.28992 0.58847 -0.00047 0.0
H1482 H 0.19287 0.57684 0.99593 0.0
C1483 C 0.23072 0.60434 0.9717 0.0
C1484 C 0.20623 0.57991 0.96967 0.0
C1485 C 0.24278 0.60538 0.97866 0.0
C1486 C 0.22007 0.5799 0.99685 0.0
H1487 H 0.26167 0.62021 0.0287 0.0
H1488 H 0.23937 0.61786 0.01666 0.0
H1489 H 0.21382 0.57753 0.00811 0.0
H1490 H 0.17464 0.5379 0.97335 0.0
H1491 H 0.1958 0.53959 0.9855 0.0
H1492 H 0.29626 0.59033 0.98828 0.0
C1493 C 0.26236 0.6036 0.01791 0.0
C1494 C 0.23201 0.58065 0.00383 0.0
C1495 C 0.27501 0.60472 0.02483 0.0
C1496 C 0.19364 0.55693 0.97476 0.0
C1497 C 0.20563 0.558 0.98172 0.0
C1498 C 0.27798 0.58782 0.99257 0.0
C1499 C 0.27988 0.58525 0.01263 0.0
C1500 C 0.26708 0.5848 0.00524 0.0
C1501 C 0.23033 0.58224 0.98375 0.0
C1502 C 0.24294 0.58341 0.99115 0.0
H1503 H 0.34608 0.55519 0.02256 0.0
H1504 H 0.32393 0.55305 0.0105 0.0
H1505 H 0.31705 0.59212 0.00045 0.0
H1506 H 0.23996 0.62325 0.96797 0.0
H1507 H 0.26133 0.62479 0.9801 0.0
C1508 C 0.20545 0.45606 0.72351 0.0
C1509 C 0.17596 0.45358 0.71932 0.0
C1510 C 0.20349 0.46911 0.73038 0.0
C1511 C 0.14607 0.51754 0.7426 0.0
H1512 H 0.20782 0.48085 0.75678 0.0
C1513 C 0.13678 0.54346 0.77292 0.0
C1514 C 0.16686 0.55735 0.7758 0.0
C1515 C 0.13665 0.53062 0.76601 0.0
C1516 C 0.19049 0.49128 0.75286 0.0
H1517 H 0.12119 0.46173 0.71899 0.0
H1518 H 0.11729 0.48328 0.7311 0.0
H1519 H 0.20943 0.45821 0.74477 0.0
H1520 H 0.22024 0.5689 0.77382 0.0
H1521 H 0.22031 0.54536 0.76179 0.0
H1522 H 0.12647 0.54976 0.75087 0.0
C1523 C 0.14223 0.47648 0.72903 0.0
C1524 C 0.19154 0.47859 0.74595 0.0
C1525 C 0.14437 0.46405 0.7221 0.0
C1526 C 0.19679 0.5582 0.77169 0.0
C1527 C 0.19687 0.54469 0.76485 0.0
C1528 C 0.14457 0.52972 0.74955 0.0
C1529 C 0.17179 0.47911 0.73327 0.0
C1530 C 0.16967 0.49186 0.7407 0.0
C1531 C 0.16678 0.53093 0.76195 0.0
C1532 C 0.16705 0.51695 0.7547 0.0
H1533 H 0.23011 0.44819 0.72145 0.0
H1534 H 0.22695 0.47148 0.73339 0.0
H1535 H 0.12918 0.52881 0.73869 0.0
H1536 H 0.1133 0.54303 0.77597 0.0
H1537 H 0.11319 0.52009 0.76386 0.0
C1538 C 0.17169 0.43447 0.52134 0.0
C1539 C 0.18733 0.41397 0.52652 0.0
C1540 C 0.18457 0.43538 0.51444 0.0
C1541 C 0.20441 0.41678 0.49938 0.0
H1542 H 0.30259 0.41568 0.49634 0.0
C1543 C 0.26505 0.39577 0.47179 0.0
C1544 C 0.2944 0.41492 0.47014 0.0
C1545 C 0.25124 0.39676 0.47862 0.0
C1546 C 0.2751 0.41634 0.49709 0.0
H1547 H 0.22755 0.37687 0.52844 0.0
H1548 H 0.25013 0.37846 0.51643 0.0
H1549 H 0.28018 0.41596 0.50837 0.0
H1550 H 0.33228 0.45015 0.47428 0.0
H1551 H 0.30791 0.45237 0.48616 0.0
H1552 H 0.19938 0.41788 0.4881 0.0
C1553 C 0.22856 0.3947 0.51774 0.0
C1554 C 0.26225 0.41605 0.50399 0.0
C1555 C 0.21574 0.3939 0.52464 0.0
C1556 C 0.30961 0.43512 0.47542 0.0
C1557 C 0.29575 0.43625 0.48223 0.0
C1558 C 0.21727 0.41715 0.49248 0.0
C1559 C 0.21317 0.41549 0.51256 0.0
C1560 C 0.22676 0.41619 0.50522 0.0
C1561 C 0.26657 0.41685 0.48393 0.0
C1562 C 0.25277 0.41689 0.49126 0.0
H1563 H 0.14964 0.4501 0.52264 0.0
H1564 H 0.17233 0.45194 0.5106 0.0
H1565 H 0.17692 0.41652 0.50014 0.0
H1566 H 0.25341 0.37908 0.46791 0.0
H1567 H 0.22913 0.381 0.47979 0.0
C1568 C 0.10583 0.17461 0.1872 0.0
C1569 C 0.11582 0.1582 0.1809 0.0
C1570 C 0.07972 0.19897 0.18715 0.0
C1571 C 0.02761 0.25535 0.17576 0.0
H1572 H 0.95913 0.24199 0.19039 0.0
C1573 C 0.9016 0.33139 0.17568 0.0
C1574 C 0.89219 0.34613 0.18219 0.0
C1575 C 0.92707 0.30633 0.17538 0.0
C1576 C 0.97812 0.24623 0.18631 0.0
H1577 H 0.10783 0.15639 0.16953 0.0
H1578 H 0.06223 0.19906 0.16946 0.0
H1579 H 0.00976 0.20557 0.19013 0.0
H1580 H 0.90068 0.34443 0.19355 0.0
H1581 H 0.94516 0.30095 0.19302 0.0
H1582 H 0.99611 0.29623 0.17197 0.0
C1583 C 0.0746 0.19296 0.17444 0.0
C1584 C 0.00719 0.22545 0.18617 0.0
C1585 C 0.10077 0.16851 0.17448 0.0
C1586 C 0.90728 0.33367 0.18844 0.0
C1587 C 0.93279 0.30865 0.18814 0.0
C1588 C 0.99856 0.27623 0.17591 0.0
C1589 C 0.06304 0.20754 0.18081 0.0
C1590 C 0.03236 0.22993 0.18092 0.0
C1591 C 0.94367 0.29544 0.18158 0.0
C1592 C 0.97356 0.272 0.18121 0.0
H1593 H 0.1171 0.16756 0.19224 0.0
H1594 H 0.0719 0.2104 0.19213 0.0
H1595 H 0.04667 0.25954 0.17168 0.0
H1596 H 0.89033 0.34019 0.17076 0.0
H1597 H 0.93436 0.2961 0.17026 0.0
C1598 C 0.07879 0.84486 0.42527 0.0
C1599 C 0.09146 0.85583 0.43187 0.0
C1600 C 0.05426 0.81885 0.42489 0.0
C1601 C 0.02662 0.74392 0.43492 0.0
H1602 H 0.94731 0.74421 0.42258 0.0
C1603 C 0.91772 0.64586 0.43747 0.0
C1604 C 0.89964 0.63582 0.43138 0.0
C1605 C 0.94345 0.67054 0.43705 0.0
C1606 C 0.96971 0.74344 0.42596 0.0
H1607 H 0.08648 0.84963 0.44325 0.0
H1608 H 0.04371 0.80441 0.44256 0.0
H1609 H 0.98513 0.79399 0.42287 0.0
H1610 H 0.89612 0.6422 0.41998 0.0
H1611 H 0.94167 0.68479 0.41924 0.0
H1612 H 0.01158 0.69343 0.43798 0.0
C1613 C 0.05319 0.81559 0.43769 0.0
C1614 C 0.9912 0.77206 0.42615 0.0
C1615 C 0.07748 0.84172 0.43808 0.0
C1616 C 0.90941 0.64946 0.42479 0.0
C1617 C 0.93528 0.67414 0.42437 0.0
C1618 C 0.00535 0.71524 0.43468 0.0
C1619 C 0.04211 0.8032 0.4311 0.0
C1620 C 0.01956 0.77275 0.43072 0.0
C1621 C 0.95192 0.68566 0.43053 0.0
C1622 C 0.97635 0.71482 0.43028 0.0
H1623 H 0.08892 0.85523 0.42038 0.0
H1624 H 0.04612 0.80981 0.41973 0.0
H1625 H 0.04878 0.74345 0.43837 0.0
H1626 H 0.91095 0.63588 0.44264 0.0
H1627 H 0.95549 0.67896 0.44192 0.0
C1628 C 0.4034 0.82763 0.67632 0.0
C1629 C 0.39012 0.84209 0.68256 0.0
C1630 C 0.42918 0.8029 0.67664 0.0
C1631 C 0.49861 0.77435 0.68844 0.0
H1632 H 0.50622 0.69977 0.67498 0.0
C1633 C 0.60051 0.66661 0.69014 0.0
C1634 C 0.61439 0.65462 0.68372 0.0
C1635 C 0.57443 0.69113 0.69013 0.0
C1636 C 0.50465 0.72075 0.67872 0.0
H1637 H 0.39187 0.84006 0.69405 0.0
H1638 H 0.43633 0.79637 0.69459 0.0
H1639 H 0.45548 0.73607 0.67487 0.0
H1640 H 0.6134 0.66091 0.67229 0.0
H1641 H 0.56821 0.70385 0.67231 0.0
H1642 H 0.54777 0.75877 0.69232 0.0
C1643 C 0.42742 0.80485 0.68945 0.0
C1644 C 0.47552 0.74148 0.67867 0.0
C1645 C 0.40169 0.82967 0.68913 0.0
C1646 C 0.60318 0.66936 0.67733 0.0
C1647 C 0.57705 0.69375 0.67733 0.0
C1648 C 0.52769 0.75349 0.68851 0.0
C1649 C 0.44216 0.79192 0.6832 0.0
C1650 C 0.47222 0.76864 0.6835 0.0
C1651 C 0.56168 0.70409 0.68371 0.0
C1652 C 0.53111 0.72663 0.68362 0.0
H1653 H 0.39514 0.83658 0.67117 0.0
H1654 H 0.44007 0.79365 0.67172 0.0
H1655 H 0.49719 0.79544 0.69215 0.0
H1656 H 0.60857 0.65588 0.69516 0.0
H1657 H 0.56308 0.6986 0.69513 0.0
C1658 C 0.4167 0.15483 0.93637 0.0
C1659 C 0.40621 0.13735 0.93024 0.0
C1660 C 0.44046 0.18144 0.93594 0.0
C1661 C 0.50693 0.22106 0.92489 0.0
H1662 H 0.47925 0.30426 0.93455 0.0
C1663 C 0.58824 0.34376 0.92316 0.0
C1664 C 0.59458 0.35967 0.92971 0.0
C1665 C 0.56253 0.31901 0.92254 0.0
C1666 C 0.48747 0.2812 0.93186 0.0
H1667 H 0.41445 0.13247 0.91891 0.0
H1668 H 0.45631 0.17871 0.91819 0.0
H1669 H 0.44285 0.25368 0.93514 0.0
H1670 H 0.57719 0.36389 0.9406 0.0
H1671 H 0.5329 0.32077 0.93954 0.0
H1672 H 0.552 0.24825 0.92175 0.0
C1673 C 0.44584 0.17196 0.92331 0.0
C1674 C 0.46667 0.25222 0.93221 0.0
C1675 C 0.42186 0.14548 0.92373 0.0
C1676 C 0.57315 0.35204 0.93548 0.0
C1677 C 0.54755 0.32736 0.93486 0.0
C1678 C 0.52792 0.25002 0.92458 0.0
C1679 C 0.45446 0.19093 0.92937 0.0
C1680 C 0.47641 0.22173 0.92881 0.0
C1681 C 0.54261 0.30979 0.92845 0.0
C1682 C 0.51864 0.28029 0.92814 0.0
H1683 H 0.40532 0.14919 0.94147 0.0
H1684 H 0.44721 0.19523 0.94072 0.0
H1685 H 0.51505 0.19786 0.92223 0.0
H1686 H 0.6042 0.34913 0.9186 0.0
H1687 H 0.55891 0.3064 0.91749 0.0
C1688 C 0.10877 0.82778 0.3087 0.0
C1689 C 0.11764 0.84584 0.31488 0.0
C1690 C 0.08278 0.80331 0.30883 0.0
C1691 C 0.02869 0.74989 0.32047 0.0
H1692 H 0.96293 0.75908 0.30518 0.0
C1693 C 0.90227 0.67457 0.32057 0.0
C1694 C 0.89385 0.65794 0.31419 0.0
C1695 C 0.92789 0.69951 0.32073 0.0
C1696 C 0.98117 0.756 0.30945 0.0
H1697 H 0.10779 0.85051 0.32615 0.0
H1698 H 0.06236 0.80766 0.32637 0.0
H1699 H 0.01354 0.79553 0.30539 0.0
H1700 H 0.90431 0.65611 0.30291 0.0
H1701 H 0.94903 0.69943 0.3032 0.0
H1702 H 0.9964 0.71019 0.3245 0.0
C1703 C 0.07554 0.81253 0.32142 0.0
C1704 C 0.01024 0.77679 0.30956 0.0
C1705 C 0.10162 0.83706 0.32129 0.0
C1706 C 0.91011 0.66838 0.30791 0.0
C1707 C 0.93577 0.69328 0.30808 0.0
C1708 C 0.99963 0.72902 0.32035 0.0
C1709 C 0.06506 0.79629 0.31514 0.0
C1710 C 0.03443 0.77383 0.31505 0.0
C1711 C 0.94564 0.70839 0.31452 0.0
C1712 C 0.9756 0.73176 0.31482 0.0
H1713 H 0.12083 0.83362 0.30367 0.0
H1714 H 0.07584 0.79058 0.30394 0.0
H1715 H 0.04698 0.74686 0.32473 0.0
H1716 H 0.89009 0.66737 0.3255 0.0
H1717 H 0.93437 0.71124 0.32575 0.0
C1718 C 0.59206 0.6608 0.57425 0.0
C1719 C 0.59969 0.64864 0.56741 0.0
C1720 C 0.56817 0.68716 0.5752 0.0
C1721 C 0.53805 0.76191 0.566 0.0
H1722 H 0.45604 0.75953 0.57755 0.0
C1723 C 0.4263 0.85321 0.56136 0.0
C1724 C 0.40507 0.86298 0.56701 0.0
C1725 C 0.45327 0.83044 0.56243 0.0
C1726 C 0.47926 0.76097 0.57443 0.0
H1727 H 0.58635 0.65304 0.55627 0.0
H1728 H 0.54529 0.69908 0.55795 0.0
H1729 H 0.49526 0.71063 0.57762 0.0
H1730 H 0.397 0.85817 0.57835 0.0
H1731 H 0.44471 0.81884 0.58025 0.0
H1732 H 0.52254 0.81197 0.56279 0.0
C1733 C 0.55797 0.68838 0.56255 0.0
C1734 C 0.50151 0.73288 0.57444 0.0
C1735 C 0.58137 0.66187 0.56161 0.0
C1736 C 0.41275 0.85103 0.57386 0.0
C1737 C 0.43991 0.82826 0.57494 0.0
C1738 C 0.51618 0.79009 0.56606 0.0
C1739 C 0.55196 0.70191 0.56932 0.0
C1740 C 0.53047 0.73278 0.57005 0.0
C1741 C 0.45993 0.81702 0.56921 0.0
C1742 C 0.48591 0.78954 0.57008 0.0
H1743 H 0.60565 0.65111 0.57884 0.0
H1744 H 0.56371 0.69718 0.58047 0.0
H1745 H 0.56065 0.76257 0.56267 0.0
H1746 H 0.4212 0.8619 0.55601 0.0
H1747 H 0.4678 0.82207 0.55786 0.0
C1748 C 0.39918 0.15939 0.82244 0.0
C1749 C 0.38417 0.15314 0.81579 0.0
C1750 C 0.42604 0.1829 0.82311 0.0
C1751 C 0.49595 0.21638 0.81247 0.0
H1752 H 0.50507 0.28723 0.82671 0.0
C1753 C 0.5935 0.32534 0.81002 0.0
C1754 C 0.60745 0.33999 0.81618 0.0
C1755 C 0.56897 0.2995 0.8105 0.0
C1756 C 0.50327 0.2671 0.82279 0.0
H1757 H 0.38369 0.16888 0.80475 0.0
H1758 H 0.43039 0.20962 0.80594 0.0
H1759 H 0.4544 0.25045 0.8267 0.0
H1760 H 0.60831 0.33718 0.82766 0.0
H1761 H 0.56603 0.29141 0.82847 0.0
H1762 H 0.54467 0.23254 0.80856 0.0
C1763 C 0.42178 0.19591 0.8106 0.0
C1764 C 0.47414 0.24625 0.82276 0.0
C1765 C 0.39486 0.17272 0.80994 0.0
C1766 C 0.59792 0.32663 0.82281 0.0
C1767 C 0.57343 0.30061 0.82328 0.0
C1768 C 0.52516 0.2369 0.81254 0.0
C1769 C 0.4384 0.20032 0.81712 0.0
C1770 C 0.46992 0.22124 0.8175 0.0
C1771 C 0.55796 0.28744 0.81714 0.0
C1772 C 0.52886 0.26301 0.8176 0.0
H1773 H 0.39152 0.14481 0.82706 0.0
H1774 H 0.43838 0.18601 0.8282 0.0
H1775 H 0.49365 0.19672 0.80845 0.0
H1776 H 0.60021 0.33497 0.80482 0.0
H1777 H 0.55741 0.29024 0.80565 0.0
C1778 C 0.08173 0.15524 0.05636 0.0
C1779 C 0.09667 0.14413 0.06274 0.0
C1780 C 0.05629 0.18037 0.05641 0.0
C1781 C 0.99526 0.22706 0.06791 0.0
H1782 H 0.00861 0.30027 0.0543 0.0
C1783 C 0.91945 0.35271 0.0698 0.0
C1784 C 0.90447 0.36423 0.06346 0.0
C1785 C 0.94432 0.32703 0.06969 0.0
C1786 C 0.00439 0.27992 0.05809 0.0
H1787 H 0.09484 0.14906 0.07419 0.0
H1788 H 0.05062 0.19289 0.07425 0.0
H1789 H 0.04615 0.25041 0.05404 0.0
H1790 H 0.90556 0.35929 0.052 0.0
H1791 H 0.94887 0.31452 0.05184 0.0
H1792 H 0.95354 0.25662 0.07197 0.0
C1793 C 0.05854 0.18218 0.06921 0.0
C1794 C 0.02577 0.25127 0.05793 0.0
C1795 C 0.08398 0.15706 0.06917 0.0
C1796 C 0.91648 0.35099 0.05699 0.0
C1797 C 0.94139 0.32534 0.05689 0.0
C1798 C 0.97389 0.25572 0.06807 0.0
C1799 C 0.04518 0.19486 0.06282 0.0
C1800 C 0.02145 0.22453 0.06283 0.0
C1801 C 0.95484 0.31239 0.06325 0.0
C1802 C 0.97826 0.28249 0.06318 0.0
H1803 H 0.0907 0.14566 0.05131 0.0
H1804 H 0.04594 0.1891 0.0514 0.0
H1805 H 0.99106 0.20673 0.07171 0.0
H1806 H 0.91096 0.36245 0.07487 0.0
H1807 H 0.95476 0.31806 0.07467 0.0
C1808 C 0.0992 0.67474 0.82103 0.0
C1809 C 0.10689 0.66065 0.81436 0.0
C1810 C 0.07464 0.70057 0.82169 0.0
C1811 C 0.02221 0.76231 0.81129 0.0
H1812 H 0.95714 0.75071 0.82665 0.0
C1813 C 0.89156 0.82677 0.81053 0.0
C1814 C 0.88345 0.84736 0.81641 0.0
C1815 C 0.91839 0.80334 0.81087 0.0
C1816 C 0.97528 0.75436 0.82237 0.0
H1817 H 0.09616 0.66404 0.80311 0.0
H1818 H 0.05309 0.70846 0.80426 0.0
H1819 H 0.0077 0.71394 0.82604 0.0
H1820 H 0.89529 0.85725 0.82745 0.0
H1821 H 0.94204 0.81559 0.82806 0.0
H1822 H 0.98913 0.80194 0.80751 0.0
C1823 C 0.06625 0.69997 0.80899 0.0
C1824 C 0.00436 0.73352 0.82204 0.0
C1825 C 0.09096 0.67435 0.80833 0.0
C1826 C 0.90091 0.84184 0.82283 0.0
C1827 C 0.92772 0.8181 0.82318 0.0
C1828 C 0.99301 0.78281 0.81159 0.0
C1829 C 0.05712 0.71275 0.8157 0.0
C1830 C 0.02794 0.73695 0.81643 0.0
C1831 C 0.93753 0.79971 0.81711 0.0
C1832 C 0.96903 0.77869 0.81707 0.0
H1833 H 0.11122 0.66496 0.82579 0.0
H1834 H 0.06879 0.71038 0.82692 0.0
H1835 H 0.04015 0.76618 0.80699 0.0
H1836 H 0.87841 0.83001 0.80552 0.0
H1837 H 0.925 0.78888 0.80617 0.0
C1838 C 0.92495 0.14799 0.56177 0.0
C1839 C 0.90235 0.13964 0.56729 0.0
C1840 C 0.95168 0.17098 0.56288 0.0
C1841 C 0.97443 0.24358 0.57433 0.0
H1842 H 0.05833 0.23971 0.56338 0.0
C1843 C 0.08637 0.34474 0.57396 0.0
C1844 C 0.09507 0.35526 0.56705 0.0
C1845 C 0.06257 0.31842 0.57501 0.0
C1846 C 0.03503 0.24101 0.56648 0.0
H1847 H 0.89157 0.14718 0.57846 0.0
H1848 H 0.93887 0.18695 0.58044 0.0
H1849 H 0.02074 0.18995 0.56374 0.0
H1850 H 0.08374 0.3479 0.55588 0.0
H1851 H 0.04282 0.30188 0.55776 0.0
H1852 H 0.98921 0.29493 0.57705 0.0
C1853 C 0.93535 0.1762 0.57521 0.0
C1854 C 0.01346 0.21262 0.56668 0.0
C1855 C 0.90844 0.15318 0.57408 0.0
C1856 C 0.07788 0.3404 0.56127 0.0
C1857 C 0.05459 0.31389 0.56233 0.0
C1858 C 0.99638 0.27191 0.57422 0.0
C1859 C 0.9567 0.18607 0.56957 0.0
C1860 C 0.98231 0.21394 0.5704 0.0
C1861 C 0.04753 0.30202 0.56918 0.0
C1862 C 0.02625 0.27113 0.5701 0.0
H1863 H 0.92112 0.13801 0.55647 0.0
H1864 H 0.96728 0.17824 0.55839 0.0
H1865 H 0.95052 0.24562 0.57721 0.0
H1866 H 0.09906 0.35573 0.57852 0.0
H1867 H 0.05728 0.30969 0.58035 0.0
C1868 C 0.40357 0.33107 0.32242 0.0
C1869 C 0.3929 0.34511 0.31592 0.0
C1870 C 0.429 0.30592 0.3226 0.0
C1871 C 0.47777 0.24479 0.31142 0.0
H1872 H 0.54934 0.25923 0.32536 0.0
C1873 C 0.60599 0.1748 0.30938 0.0
C1874 C 0.617 0.15805 0.31556 0.0
C1875 C 0.57977 0.19902 0.30967 0.0
C1876 C 0.52944 0.25477 0.32148 0.0
H1877 H 0.39903 0.34207 0.30451 0.0
H1878 H 0.44342 0.29858 0.30485 0.0
H1879 H 0.49852 0.29562 0.32548 0.0
H1880 H 0.61087 0.15568 0.32699 0.0
H1881 H 0.56519 0.19817 0.32747 0.0
H1882 H 0.50891 0.20427 0.30737 0.0
C1883 C 0.4321 0.30683 0.3098 0.0
C1884 C 0.50023 0.27543 0.32156 0.0
C1885 C 0.40665 0.33189 0.30961 0.0
C1886 C 0.60296 0.16799 0.32211 0.0
C1887 C 0.57677 0.19235 0.3224 0.0
C1888 C 0.50701 0.22428 0.31132 0.0
C1889 C 0.44426 0.29427 0.31631 0.0
C1890 C 0.47416 0.27081 0.31651 0.0
C1891 C 0.56412 0.20716 0.31615 0.0
C1892 C 0.53327 0.22923 0.3163 0.0
H1893 H 0.39337 0.3405 0.32738 0.0
H1894 H 0.4373 0.29621 0.3277 0.0
H1895 H 0.45794 0.24021 0.30753 0.0
H1896 H 0.61641 0.16802 0.30425 0.0
H1897 H 0.57102 0.21063 0.30478 0.0
C1898 C 0.58393 0.85245 0.05869 0.0
C1899 C 0.59804 0.86689 0.06485 0.0
C1900 C 0.55821 0.82774 0.05915 0.0
C1901 C 0.52501 0.76273 0.07151 0.0
H1902 H 0.45352 0.75394 0.05739 0.0
C1903 C 0.41523 0.66165 0.07231 0.0
C1904 C 0.40626 0.64681 0.06578 0.0
C1905 C 0.43968 0.68781 0.07261 0.0
C1906 C 0.47355 0.75592 0.06133 0.0
H1907 H 0.59454 0.86824 0.07632 0.0
H1908 H 0.5491 0.82564 0.07711 0.0
H1909 H 0.49087 0.80385 0.05721 0.0
H1910 H 0.418 0.64591 0.05453 0.0
H1911 H 0.46061 0.69121 0.05509 0.0
H1912 H 0.50734 0.7147 0.07563 0.0
C1913 C 0.55857 0.83284 0.07192 0.0
C1914 C 0.49492 0.78453 0.06124 0.0
C1915 C 0.5844 0.85751 0.07147 0.0
C1916 C 0.42397 0.65701 0.05964 0.0
C1917 C 0.44822 0.68315 0.05994 0.0
C1918 C 0.50342 0.73416 0.07163 0.0
C1919 C 0.54583 0.81701 0.06578 0.0
C1920 C 0.52123 0.78807 0.06626 0.0
C1921 C 0.45548 0.69959 0.06638 0.0
C1922 C 0.47785 0.73024 0.06647 0.0
H1923 H 0.5938 0.85902 0.0535 0.0
H1924 H 0.54921 0.81591 0.05431 0.0
H1925 H 0.54532 0.7644 0.0754 0.0
H1926 H 0.40209 0.65441 0.07713 0.0
H1927 H 0.44488 0.7 0.07765 0.0
C1928 C 0.90449 0.16244 0.68946 0.0
C1929 C 0.89141 0.15102 0.68293 0.0
C1930 C 0.93076 0.18671 0.68968 0.0
C1931 C 0.00243 0.21633 0.67882 0.0
H1932 H 0.0077 0.2912 0.69225 0.0
C1933 C 0.10259 0.32405 0.67678 0.0
C1934 C 0.11489 0.33912 0.68305 0.0
C1935 C 0.07726 0.29888 0.67704 0.0
C1936 C 0.00691 0.27004 0.68855 0.0
H1937 H 0.8941 0.15803 0.67153 0.0
H1938 H 0.9397 0.20048 0.67194 0.0
H1939 H 0.95721 0.25439 0.69212 0.0
H1940 H 0.11194 0.33769 0.69453 0.0
H1941 H 0.06825 0.29318 0.69496 0.0
H1942 H 0.0521 0.23171 0.67526 0.0
C1943 C 0.93004 0.19014 0.67688 0.0
C1944 C 0.97788 0.24912 0.68845 0.0
C1945 C 0.90369 0.16603 0.67665 0.0
C1946 C 0.10288 0.32682 0.68959 0.0
C1947 C 0.07759 0.30153 0.68985 0.0
C1948 C 0.03151 0.2371 0.67894 0.0
C1949 C 0.94454 0.19994 0.68337 0.0
C1950 C 0.97522 0.22227 0.68353 0.0
C1951 C 0.06377 0.28802 0.68357 0.0
C1952 C 0.03398 0.26439 0.68377 0.0
H1953 H 0.89558 0.15149 0.6944 0.0
H1954 H 0.94145 0.1938 0.69476 0.0
H1955 H 0.00141 0.19535 0.67507 0.0
H1956 H 0.11124 0.33286 0.67165 0.0
H1957 H 0.06708 0.28921 0.67209 0.0
C1958 C 0.41956 0.34797 0.43711 0.0
C1959 C 0.40221 0.35981 0.43106 0.0
C1960 C 0.4456 0.32372 0.4365 0.0
C1961 C 0.47442 0.25473 0.42463 0.0
H1962 H 0.55121 0.25175 0.43762 0.0
C1963 C 0.5837 0.1526 0.42421 0.0
C1964 C 0.59397 0.14022 0.43088 0.0
C1965 C 0.55955 0.17898 0.4237 0.0
C1966 C 0.52974 0.25216 0.43399 0.0
H1967 H 0.40024 0.35703 0.41959 0.0
H1968 H 0.44632 0.31513 0.41853 0.0
H1969 H 0.51392 0.30172 0.43749 0.0
H1970 H 0.58491 0.14411 0.44221 0.0
H1971 H 0.54297 0.18989 0.44129 0.0
H1972 H 0.49062 0.20502 0.42113 0.0
C1973 C 0.43914 0.32408 0.42375 0.0
C1974 C 0.5084 0.28079 0.43391 0.0
C1975 C 0.41296 0.34835 0.42436 0.0
C1976 C 0.5779 0.1532 0.43698 0.0
C1977 C 0.55404 0.17962 0.43647 0.0
C1978 C 0.49602 0.22616 0.42467 0.0
C1979 C 0.45514 0.31083 0.42983 0.0
C1980 C 0.48006 0.28215 0.42933 0.0
C1981 C 0.54546 0.19351 0.42985 0.0
C1982 C 0.52345 0.22433 0.42946 0.0
H1983 H 0.41202 0.35623 0.44236 0.0
H1984 H 0.45709 0.3139 0.44131 0.0
H1985 H 0.45258 0.25474 0.4211 0.0
H1986 H 0.59551 0.14316 0.4194 0.0
H1987 H 0.55326 0.18918 0.41853 0.0
C1988 C 0.6062 0.83008 0.19025 0.0
C1989 C 0.61776 0.8438 0.18379 0.0
C1990 C 0.58045 0.80525 0.19035 0.0
C1991 C 0.50739 0.77778 0.17962 0.0
H1992 H 0.504 0.70062 0.19251 0.0
C1993 C 0.40561 0.6712 0.17777 0.0
C1994 C 0.39408 0.65594 0.18408 0.0
C1995 C 0.43148 0.69585 0.17791 0.0
C1996 C 0.50433 0.72239 0.18896 0.0
H1997 H 0.61323 0.84011 0.17235 0.0
H1998 H 0.56866 0.79656 0.17255 0.0
H1999 H 0.55463 0.73722 0.19228 0.0
H2000 H 0.39904 0.65647 0.19553 0.0
H2001 H 0.44372 0.69999 0.19577 0.0
H2002 H 0.4571 0.76315 0.17631 0.0
C2003 C 0.57897 0.80561 0.17753 0.0
C2004 C 0.53341 0.7432 0.1888 0.0
C2005 C 0.60474 0.83036 0.17743 0.0
C2006 C 0.40748 0.6675 0.19056 0.0
C2007 C 0.43333 0.69221 0.19071 0.0
C2008 C 0.47829 0.75706 0.17979 0.0
C2009 C 0.56577 0.79365 0.184 0.0
C2010 C 0.53532 0.77099 0.1841 0.0
C2011 C 0.4463 0.70591 0.18437 0.0
C2012 C 0.47646 0.72904 0.18444 0.0
H2013 H 0.61571 0.83978 0.19525 0.0
H2014 H 0.57079 0.79652 0.19542 0.0
H2015 H 0.5078 0.79947 0.17605 0.0
H2016 H 0.39588 0.66293 0.17267 0.0
H2017 H 0.44099 0.70575 0.17293 0.0
C2018 C 0.93429 0.84933 0.93645 0.0
C2019 C 0.91491 0.85855 0.93048 0.0
C2020 C 0.96004 0.82472 0.93594 0.0
C2021 C 0.98402 0.75039 0.92505 0.0
H2022 H 0.06542 0.75191 0.9368 0.0
C2023 C 0.09164 0.64726 0.92439 0.0
C2024 C 0.10526 0.63743 0.93098 0.0
C2025 C 0.06755 0.67367 0.92395 0.0
C2026 C 0.04263 0.75103 0.93353 0.0
H2027 H 0.90911 0.85081 0.91916 0.0
H2028 H 0.95467 0.80828 0.91824 0.0
H2029 H 0.02844 0.80208 0.93636 0.0
H2030 H 0.10241 0.64616 0.94233 0.0
H2031 H 0.06038 0.69201 0.94154 0.0
H2032 H 0.99853 0.69922 0.92222 0.0
C2033 C 0.9493 0.81955 0.92336 0.0
C2034 C 0.02148 0.77979 0.93327 0.0
C2035 C 0.92341 0.84419 0.92388 0.0
C2036 C 0.09268 0.65316 0.93716 0.0
C2037 C 0.06881 0.67966 0.93671 0.0
C2038 C 0.00538 0.72167 0.92528 0.0
C2039 C 0.96723 0.80883 0.92942 0.0
C2040 C 0.99161 0.77964 0.92912 0.0
C2041 C 0.05678 0.69085 0.93009 0.0
C2042 C 0.03456 0.72152 0.92962 0.0
H2043 H 0.92853 0.85989 0.94162 0.0
H2044 H 0.9731 0.81693 0.94073 0.0
H2045 H 0.96096 0.7492 0.92188 0.0
H2046 H 0.10072 0.63567 0.91952 0.0
H2047 H 0.05865 0.68175 0.91878 0.0
C2048 C 0.31701 0.03433 0.18812 0.0
C2049 C 0.30056 0.05494 0.18306 0.0
C2050 C 0.35277 0.03234 0.18834 0.0
C2051 C 0.42796 0.03661 0.17731 0.0
H2052 H 0.47824 0.05303 0.19468 0.0
C2053 C 0.57387 0.01571 0.17816 0.0
C2054 C 0.5869 1.0 0.18429 0.0
C2055 C 0.54062 0.02918 0.17808 0.0
C2056 C 0.46469 0.04792 0.18979 0.0
H2057 H 0.30868 0.09002 0.17433 0.0
H2058 H 0.37121 0.08513 0.17448 0.0
H2059 H 0.41634 0.06133 0.19444 0.0
H2060 H 0.57566 0.98766 0.19525 0.0
H2061 H 0.51783 0.00966 0.19505 0.0
H2062 H 0.47547 0.02116 0.17273 0.0
C2063 C 0.35634 0.07084 0.17831 0.0
C2064 C 0.42922 0.0529 0.18966 0.0
C2065 C 0.32061 0.07343 0.17821 0.0
C2066 C 0.56662 0.99976 0.19044 0.0
C2067 C 0.53324 0.0126 0.19032 0.0
C2068 C 0.46332 0.03089 0.17747 0.0
C2069 C 0.37273 0.05036 0.18339 0.0
C2070 C 0.41052 0.04698 0.18344 0.0
C2071 C 0.51934 0.02668 0.18409 0.0
C2072 C 0.48222 0.03606 0.18374 0.0
H2073 H 0.30221 0.01944 0.19187 0.0
H2074 H 0.36483 0.01608 0.19226 0.0
H2075 H 0.41403 0.03165 0.17245 0.0
H2076 H 0.58892 0.01657 0.17334 0.0
H2077 H 0.53134 0.04068 0.17323 0.0
C2078 C 0.24282 0.30904 0.42719 0.0
C2079 C 0.24567 0.32811 0.43347 0.0
C2080 C 0.23029 0.27556 0.4273 0.0
C2081 C 0.21846 0.20302 0.4399 0.0
H2082 H 0.18124 0.15891 0.42318 0.0
C2083 C 0.17271 0.06064 0.43808 0.0
C2084 C 0.19316 0.0414 0.43341 0.0
C2085 C 0.17507 0.09638 0.43824 0.0
C2086 C 0.19151 0.17103 0.42789 0.0
H2087 H 0.23483 0.32785 0.44473 0.0
H2088 H 0.21107 0.27012 0.44488 0.0
H2089 H 0.18879 0.22093 0.42331 0.0
H2090 H 0.23185 0.04462 0.42521 0.0
H2091 H 0.23464 0.10732 0.42525 0.0
H2092 H 0.22006 0.15276 0.4445 0.0
C2093 C 0.22002 0.28041 0.43989 0.0
C2094 C 0.19613 0.20655 0.42796 0.0
C2095 C 0.23325 0.31376 0.4398 0.0
C2096 C 0.21544 0.05873 0.4288 0.0
C2097 C 0.21717 0.09452 0.42884 0.0
C2098 C 0.21303 0.16761 0.43988 0.0
C2099 C 0.21952 0.26032 0.43368 0.0
C2100 C 0.21049 0.22306 0.43391 0.0
C2101 C 0.19722 0.11357 0.4336 0.0
C2102 C 0.2002 0.15129 0.43382 0.0
H2103 H 0.25233 0.31912 0.42222 0.0
H2104 H 0.23092 0.26114 0.42241 0.0
H2105 H 0.23013 0.21434 0.44454 0.0
H2106 H 0.15476 0.04808 0.44159 0.0
H2107 H 0.15934 0.11065 0.44193 0.0
C2108 C 0.9375 0.99601 0.67519 0.0
C2109 C 0.9173 0.99483 0.68136 0.0
C2110 C 0.9709 0.98317 0.6752 0.0
C2111 C 0.04112 0.96426 0.68789 0.0
H2112 H 0.08795 0.93501 0.67082 0.0
C2113 C 0.18495 0.926 0.68714 0.0
C2114 C 0.20429 0.94309 0.68195 0.0
C2115 C 0.14915 0.92792 0.68712 0.0
C2116 C 0.07515 0.94314 0.67563 0.0
H2117 H 0.91545 0.97633 0.69217 0.0
H2118 H 0.97314 0.95252 0.6921 0.0
H2119 H 0.02597 0.94283 0.67066 0.0
H2120 H 0.20122 0.97546 0.67265 0.0
H2121 H 0.13866 0.97782 0.67247 0.0
H2122 H 0.09053 0.96406 0.69285 0.0
C2123 C 0.96371 0.96469 0.68733 0.0
C2124 C 0.03962 0.9478 0.67554 0.0
C2125 C 0.93041 0.97802 0.68736 0.0
C2126 C 0.18703 0.96164 0.67667 0.0
C2127 C 0.15125 0.96305 0.67657 0.0
C2128 C 0.07656 0.95902 0.688 0.0
C2129 C 0.98492 0.96825 0.68134 0.0
C2130 C 0.02213 0.95918 0.68163 0.0
C2131 C 0.13195 0.94638 0.68181 0.0
C2132 C 0.09402 0.9491 0.68184 0.0
H2133 H 0.92839 0.00887 0.67047 0.0
H2134 H 0.98628 0.98682 0.67049 0.0
H2135 H 0.02893 0.97363 0.69266 0.0
H2136 H 0.19746 0.91089 0.69119 0.0
H2137 H 0.13487 0.91461 0.69119 0.0
C2138 C 0.26292 0.6823 0.92635 0.0
C2139 C 0.26094 0.66323 0.93265 0.0
C2140 C 0.27542 0.71579 0.92639 0.0
C2141 C 0.28734 0.78837 0.9389 0.0
H2142 H 0.32258 0.83289 0.92205 0.0
C2143 C 0.32491 0.93254 0.93733 0.0
C2144 C 0.30726 0.9506 0.93202 0.0
C2145 C 0.32373 0.89675 0.93759 0.0
C2146 C 0.31282 0.8207 0.9268 0.0
H2147 H 0.27349 0.66348 0.94383 0.0
H2148 H 0.29701 0.72131 0.94384 0.0
H2149 H 0.31645 0.77074 0.92225 0.0
H2150 H 0.27457 0.94517 0.92282 0.0
H2151 H 0.27385 0.88256 0.92307 0.0
H2152 H 0.28453 0.83864 0.94345 0.0
C2153 C 0.28747 0.71094 0.93891 0.0
C2154 C 0.30907 0.78509 0.92692 0.0
C2155 C 0.27437 0.67754 0.93889 0.0
C2156 C 0.28889 0.93204 0.9269 0.0
C2157 C 0.28836 0.89624 0.92706 0.0
C2158 C 0.29182 0.8239 0.93883 0.0
C2159 C 0.28694 0.73105 0.93271 0.0
C2160 C 0.29542 0.76841 0.93291 0.0
C2161 C 0.30558 0.8783 0.93243 0.0
C2162 C 0.30385 0.84044 0.93272 0.0
H2163 H 0.2527 0.67224 0.92143 0.0
H2164 H 0.27407 0.73025 0.92151 0.0
H2165 H 0.27619 0.77685 0.94358 0.0
H2166 H 0.33995 0.946 0.94126 0.0
H2167 H 0.33738 0.88344 0.94175 0.0
C2168 C 0.31824 0.96779 0.30659 0.0
C2169 C 0.30135 0.94822 0.31176 0.0
C2170 C 0.35403 0.9695 0.30645 0.0
C2171 C 0.42832 0.96511 0.31792 0.0
H2172 H 0.48024 0.9511 0.30066 0.0
C2173 C 0.57425 0.98556 0.31781 0.0
C2174 C 0.58774 0.00271 0.31189 0.0
C2175 C 0.54104 0.97203 0.31764 0.0
C2176 C 0.46621 0.95548 0.30552 0.0
H2177 H 0.30871 0.91433 0.32072 0.0
H2178 H 0.37122 0.91855 0.32067 0.0
H2179 H 0.41832 0.94267 0.30061 0.0
H2180 H 0.57742 0.01733 0.30101 0.0
H2181 H 0.51968 0.99507 0.30078 0.0
H2182 H 0.47542 0.97979 0.32278 0.0
C2183 C 0.35672 0.93242 0.31671 0.0
C2184 C 0.43072 0.95048 0.30549 0.0
C2185 C 0.32099 0.9302 0.31676 0.0
C2186 C 0.56801 0.00419 0.30567 0.0
C2187 C 0.53469 0.9912 0.30553 0.0
C2188 C 0.46368 0.97075 0.31794 0.0
C2189 C 0.37359 0.95213 0.31156 0.0
C2190 C 0.41142 0.95556 0.31167 0.0
C2191 C 0.5203 0.9758 0.31158 0.0
C2192 C 0.48316 0.96642 0.31172 0.0
H2193 H 0.30375 0.98223 0.30271 0.0
H2194 H 0.36641 0.98515 0.30247 0.0
H2195 H 0.41397 0.96948 0.32275 0.0
H2196 H 0.58885 0.9837 0.32268 0.0
H2197 H 0.53132 0.9595 0.32234 0.0
C2198 C 0.28285 0.05816 0.55601 0.0
C2199 C 0.3 0.04124 0.56153 0.0
C2200 C 0.28151 0.09396 0.55582 0.0
C2201 C 0.28447 0.1688 0.56741 0.0
H2202 H 0.29955 0.21978 0.55007 0.0
C2203 C 0.26748 0.31485 0.56713 0.0
C2204 C 0.24924 0.32817 0.56133 0.0
C2205 C 0.28067 0.28153 0.56692 0.0
C2206 C 0.29499 0.20598 0.55496 0.0
H2207 H 0.33005 0.04842 0.57106 0.0
H2208 H 0.32685 0.11093 0.57085 0.0
H2209 H 0.30734 0.15774 0.55015 0.0
H2210 H 0.23283 0.31762 0.55056 0.0
H2211 H 0.25484 0.25966 0.55026 0.0
H2212 H 0.2706 0.21639 0.57217 0.0
C2213 C 0.31436 0.09653 0.56668 0.0
C2214 C 0.29953 0.17042 0.55499 0.0
C2215 C 0.31605 0.06078 0.56682 0.0
C2216 C 0.24667 0.30827 0.55514 0.0
C2217 C 0.25949 0.27487 0.55496 0.0
C2218 C 0.2795 0.20424 0.56736 0.0
C2219 C 0.29699 0.11351 0.56119 0.0
C2220 C 0.29399 0.15143 0.56121 0.0
C2221 C 0.27565 0.26059 0.56093 0.0
C2222 C 0.28432 0.22334 0.56111 0.0
H2223 H 0.27003 0.04368 0.5519 0.0
H2224 H 0.2676 0.10633 0.55157 0.0
H2225 H 0.27964 0.1548 0.57226 0.0
H2226 H 0.27024 0.32955 0.57196 0.0
H2227 H 0.29381 0.27181 0.57155 0.0
C2228 C 0.17901 0.0701 0.81628 0.0
C2229 C 0.19856 0.05385 0.81101 0.0
C2230 C 0.14326 0.06809 0.81619 0.0
C2231 C 0.06914 0.05218 0.80464 0.0
H2232 H 0.0239 0.02316 0.8219 0.0
C2233 C 0.93126 0.99922 0.80494 0.0
C2234 C 0.91152 0.00166 0.81116 0.0
C2235 C 0.96471 0.01192 0.80474 0.0
C2236 C 0.03583 0.03208 0.81707 0.0
H2237 H 0.19606 0.02314 0.80148 0.0
H2238 H 0.13342 0.02027 0.80122 0.0
H2239 H 0.08543 0.03272 0.82191 0.0
H2240 H 0.91057 0.0222 0.82183 0.0
H2241 H 0.96835 0.04565 0.82138 0.0
H2242 H 0.01964 0.05182 0.79979 0.0
C2243 C 0.1458 0.03455 0.80542 0.0
C2244 C 0.07124 0.03734 0.81707 0.0
C2245 C 0.18161 0.03618 0.80556 0.0
C2246 C 0.92512 0.01957 0.81697 0.0
C2247 C 0.95848 0.03268 0.81674 0.0
C2248 C 0.03361 0.04738 0.80466 0.0
C2249 C 0.12626 0.05022 0.81077 0.0
C2250 C 0.08836 0.0469 0.81084 0.0
C2251 C 0.97922 0.02786 0.81071 0.0
C2252 C 0.01648 0.03667 0.81084 0.0
H2253 H 0.19138 0.08445 0.82046 0.0
H2254 H 0.12886 0.08071 0.82034 0.0
H2255 H 0.08161 0.06 0.79978 0.0
H2256 H 0.92172 0.98559 0.80035 0.0
H2257 H 0.97975 0.00739 0.80002 0.0
C2258 C 0.23832 0.68822 0.05649 0.0
C2259 C 0.25017 0.67421 0.0629 0.0
C2260 C 0.22502 0.72153 0.05629 0.0
C2261 C 0.20017 0.79601 0.06795 0.0
H2262 H 0.22718 0.84896 0.0515 0.0
C2263 C 0.21972 0.94345 0.06742 0.0
C2264 C 0.2005 0.9611 0.06229 0.0
C2265 C 0.22084 0.90765 0.06743 0.0
C2266 C 0.21926 0.83437 0.0561 0.0
H2267 H 0.25554 0.68366 0.07417 0.0
H2268 H 0.23398 0.74153 0.07378 0.0
H2269 H 0.23637 0.78729 0.05159 0.0
H2270 H 0.16678 0.95488 0.05326 0.0
H2271 H 0.17047 0.89235 0.05304 0.0
H2272 H 0.18524 0.84395 0.07259 0.0
C2273 C 0.2339 0.72691 0.06891 0.0
C2274 C 0.22419 0.7989 0.05615 0.0
C2275 C 0.24652 0.69348 0.06914 0.0
C2276 C 0.1825 0.94213 0.05717 0.0
C2277 C 0.1843 0.90637 0.05707 0.0
C2278 C 0.19603 0.83159 0.06796 0.0
C2279 C 0.22387 0.74187 0.06246 0.0
C2280 C 0.21514 0.77916 0.06211 0.0
C2281 C 0.20339 0.88885 0.06222 0.0
C2282 C 0.20586 0.85106 0.06206 0.0
H2283 H 0.24051 0.67396 0.05159 0.0
H2284 H 0.21663 0.73163 0.05124 0.0
H2285 H 0.19202 0.78185 0.07258 0.0
H2286 H 0.23425 0.95731 0.07137 0.0
H2287 H 0.23599 0.89462 0.07141 0.0
C2288 C 0.43197 0.00192 0.80455 0.0
C2289 C 0.41135 0.99906 0.81063 0.0
C2290 C 0.46551 0.98941 0.80454 0.0
C2291 C 0.53488 0.96944 0.81728 0.0
H2292 H 0.58345 0.94241 0.80026 0.0
C2293 C 0.67875 0.93286 0.81721 0.0
C2294 C 0.69868 0.94895 0.81199 0.0
C2295 C 0.64299 0.93485 0.81701 0.0
C2296 C 0.5702 0.95 0.80505 0.0
H2297 H 0.4089 0.9779 0.82124 0.0
H2298 H 0.46688 0.95484 0.82111 0.0
H2299 H 0.52143 0.94994 0.79989 0.0
H2300 H 0.69688 0.97976 0.80246 0.0
H2301 H 0.63432 0.98262 0.802 0.0
H2302 H 0.58378 0.96927 0.82243 0.0
C2303 C 0.45762 0.96798 0.81644 0.0
C2304 C 0.53464 0.9544 0.80485 0.0
C2305 C 0.42416 0.98087 0.81649 0.0
C2306 C 0.68213 0.96677 0.80651 0.0
C2307 C 0.64636 0.96838 0.80625 0.0
C2308 C 0.57035 0.96459 0.8175 0.0
C2309 C 0.47923 0.97327 0.81057 0.0
C2310 C 0.51652 0.9648 0.81093 0.0
C2311 C 0.62641 0.95258 0.81151 0.0
C2312 C 0.58846 0.95539 0.81136 0.0
H2313 H 0.42305 0.01578 0.79994 0.0
H2314 H 0.48124 0.99428 0.79993 0.0
H2315 H 0.52214 0.97811 0.82205 0.0
H2316 H 0.69081 0.91845 0.82143 0.0
H2317 H 0.62827 0.92218 0.8211 0.0
C2318 C 0.75144 0.694 0.55507 0.0
C2319 C 0.75414 0.6743 0.56128 0.0
C2320 C 0.76426 0.72738 0.55484 0.0
C2321 C 0.78351 0.79815 0.56721 0.0
H2322 H 0.81046 0.84502 0.54998 0.0
C2323 C 0.81623 0.94242 0.56661 0.0
C2324 C 0.79979 0.9614 0.56129 0.0
C2325 C 0.81558 0.90665 0.56649 0.0
C2326 C 0.80291 0.83223 0.55483 0.0
H2327 H 0.77554 0.6731 0.57188 0.0
H2328 H 0.79909 0.73081 0.57138 0.0
H2329 H 0.80394 0.78283 0.54993 0.0
H2330 H 0.77011 0.958 0.55163 0.0
H2331 H 0.76943 0.8953 0.55134 0.0
H2332 H 0.78252 0.84761 0.57209 0.0
C2333 C 0.78584 0.72097 0.56677 0.0
C2334 C 0.79911 0.79659 0.5548 0.0
C2335 C 0.77265 0.68768 0.56703 0.0
C2336 C 0.78321 0.94394 0.55577 0.0
C2337 C 0.78289 0.90813 0.5556 0.0
C2338 C 0.78772 0.83366 0.56725 0.0
C2339 C 0.78052 0.74179 0.56078 0.0
C2340 C 0.78872 0.77911 0.56096 0.0
C2341 C 0.79884 0.88911 0.561 0.0
C2342 C 0.79687 0.85115 0.56103 0.0
H2343 H 0.73742 0.68456 0.55052 0.0
H2344 H 0.75942 0.74251 0.55014 0.0
H2345 H 0.7748 0.78587 0.57202 0.0
H2346 H 0.82976 0.95525 0.57086 0.0
H2347 H 0.82839 0.89267 0.57068 0.0
C2348 C 0.81832 0.03135 0.31795 0.0
C2349 C 0.80101 0.05365 0.31334 0.0
C2350 C 0.8541 0.02942 0.31788 0.0
C2351 C 0.92711 0.03354 0.30675 0.0
H2352 H 0.98065 0.05753 0.32331 0.0
C2353 C 0.07335 0.01404 0.30668 0.0
C2354 C 0.08781 0.00137 0.31297 0.0
C2355 C 0.03995 0.02716 0.30664 0.0
C2356 C 0.9662 0.05025 0.31865 0.0
H2357 H 0.80776 0.09173 0.30509 0.0
H2358 H 0.87024 0.08678 0.3047 0.0
H2359 H 0.91859 0.06482 0.32349 0.0
H2360 H 0.07897 0.99417 0.32422 0.0
H2361 H 0.02094 0.0154 0.32411 0.0
H2362 H 0.97383 0.0168 0.30202 0.0
C2363 C 0.85598 0.07122 0.30842 0.0
C2364 C 0.93066 0.05471 0.31876 0.0
C2365 C 0.82026 0.07379 0.30862 0.0
C2366 C 0.06882 0.00388 0.31928 0.0
C2367 C 0.0353 0.01631 0.31921 0.0
C2368 C 0.96254 0.02828 0.30669 0.0
C2369 C 0.87315 0.04914 0.31307 0.0
C2370 C 0.91086 0.04611 0.31284 0.0
C2371 C 0.01995 0.0273 0.31286 0.0
C2372 C 0.98265 0.03617 0.31267 0.0
H2373 H 0.8042 0.01512 0.32157 0.0
H2374 H 0.86689 0.01199 0.32147 0.0
H2375 H 0.9122 0.02661 0.30213 0.0
H2376 H 0.08738 0.01272 0.30174 0.0
H2377 H 0.02955 0.03629 0.30167 0.0
C2378 C 0.72276 0.06758 0.06722 0.0
C2379 C 0.70117 0.05014 0.06249 0.0
C2380 C 0.72351 0.10334 0.06736 0.0
C2381 C 0.71336 0.17862 0.05664 0.0
H2382 H 0.69786 0.22677 0.07431 0.0
C2383 C 0.73114 0.32473 0.058 0.0
C2384 C 0.7479 0.33726 0.06406 0.0
C2385 C 0.71796 0.29139 0.05788 0.0
C2386 C 0.70265 0.21384 0.06934 0.0
H2387 H 0.66346 0.05658 0.05417 0.0
H2388 H 0.66621 0.11931 0.05415 0.0
H2389 H 0.69175 0.16465 0.07387 0.0
H2390 H 0.76209 0.32513 0.07489 0.0
H2391 H 0.74052 0.26715 0.0746 0.0
H2392 H 0.72648 0.22704 0.05216 0.0
C2393 C 0.68214 0.1051 0.05781 0.0
C2394 C 0.69891 0.17825 0.06909 0.0
C2395 C 0.68081 0.06927 0.05779 0.0
C2396 C 0.74921 0.31646 0.07013 0.0
C2397 C 0.73662 0.28299 0.06997 0.0
C2398 C 0.71785 0.21414 0.05691 0.0
C2399 C 0.70325 0.12242 0.06265 0.0
C2400 C 0.70466 0.1603 0.06277 0.0
C2401 C 0.72174 0.26954 0.06377 0.0
C2402 C 0.71309 0.23227 0.06329 0.0
H2403 H 0.73914 0.05353 0.07082 0.0
H2404 H 0.74032 0.11615 0.07107 0.0
H2405 H 0.71812 0.16526 0.05171 0.0
H2406 H 0.72943 0.34019 0.05326 0.0
H2407 H 0.70578 0.28244 0.05307 0.0
C2408 C 0.68751 0.03058 0.67734 0.0
C2409 C 0.70483 0.04931 0.68258 0.0
C2410 C 0.65173 0.02897 0.67729 0.0
C2411 C 0.57714 0.03221 0.68869 0.0
H2412 H 0.5266 0.05133 0.67146 0.0
C2413 C 0.43083 0.01378 0.68789 0.0
C2414 C 0.41764 0.99826 0.68175 0.0
C2415 C 0.46422 0.0269 0.68798 0.0
C2416 C 0.54022 0.04552 0.67631 0.0
H2417 H 0.69813 0.08126 0.69187 0.0
H2418 H 0.63555 0.07709 0.69197 0.0
H2419 H 0.5886 0.05873 0.67167 0.0
H2420 H 0.4287 0.98626 0.67076 0.0
H2421 H 0.48672 0.00785 0.67097 0.0
H2422 H 0.52945 0.01711 0.69325 0.0
C2423 C 0.64978 0.06394 0.68787 0.0
C2424 C 0.57577 0.04995 0.67642 0.0
C2425 C 0.68557 0.0661 0.68783 0.0
C2426 C 0.43787 0.99811 0.67558 0.0
C2427 C 0.47135 0.01072 0.6757 0.0
C2428 C 0.54167 0.02714 0.68854 0.0
C2429 C 0.63252 0.04553 0.68256 0.0
C2430 C 0.59461 0.04296 0.68258 0.0
C2431 C 0.48544 0.02438 0.68196 0.0
C2432 C 0.52268 0.03327 0.68232 0.0
H2433 H 0.70164 0.01691 0.67329 0.0
H2434 H 0.63907 0.01423 0.67319 0.0
H2435 H 0.59111 0.02642 0.6935 0.0
H2436 H 0.41587 0.01457 0.69272 0.0
H2437 H 0.47369 0.03808 0.69284 0.0
C2438 C 0.7462 0.68748 0.4417 0.0
C2439 C 0.74412 0.66736 0.43554 0.0
C2440 C 0.73369 0.72099 0.44177 0.0
C2441 C 0.71388 0.7913 0.42917 0.0
H2442 H 0.6871 0.8386 0.44636 0.0
C2443 C 0.67546 0.9346 0.42982 0.0
C2444 C 0.69356 0.95443 0.43477 0.0
C2445 C 0.67728 0.89885 0.42999 0.0
C2446 C 0.69456 0.82566 0.44152 0.0
H2447 H 0.72443 0.66576 0.42481 0.0
H2448 H 0.70107 0.72361 0.42503 0.0
H2449 H 0.69466 0.77657 0.44653 0.0
H2450 H 0.72744 0.95243 0.44384 0.0
H2451 H 0.72971 0.88978 0.44431 0.0
H2452 H 0.71317 0.84057 0.42417 0.0
C2453 C 0.71372 0.71405 0.42973 0.0
C2454 C 0.69905 0.79011 0.44161 0.0
C2455 C 0.72677 0.68065 0.42963 0.0
C2456 C 0.71291 0.93777 0.44001 0.0
C2457 C 0.71424 0.90199 0.44027 0.0
C2458 C 0.70877 0.82673 0.42906 0.0
C2459 C 0.71819 0.73518 0.43571 0.0
C2460 C 0.70946 0.77245 0.43547 0.0
C2461 C 0.69671 0.8822 0.43522 0.0
C2462 C 0.69967 0.84433 0.43526 0.0
H2463 H 0.75946 0.67818 0.44636 0.0
H2464 H 0.73804 0.73629 0.44646 0.0
H2465 H 0.72256 0.77901 0.42435 0.0
H2466 H 0.65981 0.94673 0.4258 0.0
H2467 H 0.6633 0.88419 0.42608 0.0
C2468 C 0.82051 0.93193 0.18801 0.0
C2469 C 0.80076 0.94964 0.18298 0.0
C2470 C 0.85624 0.9344 0.18797 0.0
C2471 C 0.92986 0.94921 0.17673 0.0
H2472 H 0.97519 0.98522 0.1934 0.0
C2473 C 0.068 1.00033 0.17577 0.0
C2474 C 0.08769 0.00201 0.18199 0.0
C2475 C 0.03451 0.98779 0.17592 0.0
C2476 C 0.9633 0.97428 0.18875 0.0
H2477 H 0.80309 0.98367 0.17393 0.0
H2478 H 0.86574 0.9867 0.17366 0.0
H2479 H 0.91362 0.97547 0.1936 0.0
H2480 H 0.08858 0.98899 0.19314 0.0
H2481 H 0.03083 0.96529 0.19335 0.0
H2482 H 0.97926 0.94701 0.1719 0.0
C2483 C 0.85337 0.97117 0.17767 0.0
C2484 C 0.92787 0.96901 0.18886 0.0
C2485 C 0.81759 0.96934 0.17781 0.0
C2486 C 0.074 0.98834 0.18827 0.0
C2487 C 0.04064 0.97514 0.18839 0.0
C2488 C 0.96541 0.95371 0.17666 0.0
C2489 C 0.87298 0.95395 0.18279 0.0
C2490 C 0.91078 0.95709 0.18281 0.0
C2491 C 0.01991 0.9759 0.18228 0.0
C2492 C 0.98263 0.96707 0.18262 0.0
H2493 H 0.80838 0.91592 0.19196 0.0
H2494 H 0.87084 0.9207 0.19194 0.0
H2495 H 0.91724 0.93956 0.17203 0.0
H2496 H 0.07757 0.01079 0.17083 0.0
H2497 H 0.01957 0.98934 0.17111 0.0
C2498 C 0.74616 0.30595 0.94081 0.0
C2499 C 0.74947 0.32654 0.93474 0.0
C2500 C 0.75894 0.27252 0.9409 0.0
C2501 C 0.78195 0.20301 0.92835 0.0
H2502 H 0.80827 0.15589 0.94559 0.0
C2503 C 0.82367 0.06053 0.92886 0.0
C2504 C 0.80733 0.04016 0.93398 0.0
C2505 C 0.82038 0.0962 0.92901 0.0
C2506 C 0.80089 0.16874 0.94074 0.0
H2507 H 0.77143 0.32893 0.9242 0.0
H2508 H 0.79498 0.27116 0.92445 0.0
H2509 H 0.79883 0.21765 0.94582 0.0
H2510 H 0.77488 0.0411 0.94328 0.0
H2511 H 0.7698 0.10355 0.94365 0.0
H2512 H 0.78438 0.15397 0.92329 0.0
C2513 C 0.78131 0.28037 0.92906 0.0
C2514 C 0.79536 0.20415 0.94086 0.0
C2515 C 0.76813 0.31371 0.92894 0.0
C2516 C 0.78805 0.0562 0.93931 0.0
C2517 C 0.78516 0.0919 0.93952 0.0
C2518 C 0.78795 0.16771 0.92821 0.0
C2519 C 0.77583 0.25885 0.93495 0.0
C2520 C 0.78523 0.22174 0.9347 0.0
C2521 C 0.80112 0.11228 0.93435 0.0
C2522 C 0.79694 0.1501 0.93443 0.0
H2523 H 0.7319 0.31487 0.94537 0.0
H2524 H 0.75384 0.25686 0.94551 0.0
H2525 H 0.77354 0.21531 0.92352 0.0
H2526 H 0.8392 0.0489 0.92476 0.0
H2527 H 0.83322 0.11127 0.92499 0.0
C2528 C 0.06428 0.49549 0.6764 0.0
C2529 C 0.08512 0.49574 0.68247 0.0
C2530 C 0.03093 0.50835 0.67665 0.0
C2531 C 0.9621 0.52533 0.68976 0.0
H2532 H 0.9138 0.5572 0.67308 0.0
C2533 C 0.81821 0.56488 0.68946 0.0
C2534 C 0.79867 0.54833 0.68423 0.0
C2535 C 0.85397 0.56238 0.68944 0.0
C2536 C 0.92703 0.54835 0.67778 0.0
H2537 H 0.08819 0.51252 0.6934 0.0
H2538 H 0.03054 0.53638 0.69376 0.0
H2539 H 0.97576 0.54964 0.67264 0.0
H2540 H 0.80121 0.51558 0.67498 0.0
H2541 H 0.86372 0.51229 0.67479 0.0
H2542 H 0.91309 0.52464 0.6949 0.0
C2543 C 0.03945 0.52495 0.68887 0.0
C2544 C 0.96253 0.54384 0.67753 0.0
C2545 C 0.07271 0.51159 0.68865 0.0
C2546 C 0.8156 0.52915 0.679 0.0
C2547 C 0.85133 0.52721 0.6789 0.0
C2548 C 0.92667 0.53047 0.69004 0.0
C2549 C 0.01763 0.52235 0.68295 0.0
C2550 C 0.98052 0.53145 0.68347 0.0
C2551 C 0.87086 0.54381 0.68411 0.0
C2552 C 0.90873 0.54128 0.68401 0.0
H2553 H 0.07288 0.48337 0.67156 0.0
H2554 H 0.01504 0.50543 0.672 0.0
H2555 H 0.97472 0.51522 0.69442 0.0
H2556 H 0.80593 0.58028 0.6935 0.0
H2557 H 0.86848 0.57551 0.69351 0.0
C2558 C 0.71859 0.55708 0.93985 0.0
C2559 C 0.70059 0.54058 0.93439 0.0
C2560 C 0.72122 0.59282 0.93998 0.0
C2561 C 0.7211 0.66734 0.92834 0.0
H2562 H 0.70632 0.71944 0.94554 0.0
C2563 C 0.74165 0.81322 0.92848 0.0
C2564 C 0.75894 0.82666 0.93439 0.0
C2565 C 0.72818 0.78 0.92865 0.0
C2566 C 0.71089 0.70532 0.9407 0.0
H2567 H 0.67046 0.54854 0.9249 0.0
H2568 H 0.67604 0.61092 0.925 0.0
H2569 H 0.69675 0.65768 0.94554 0.0
H2570 H 0.77373 0.81626 0.94527 0.0
H2571 H 0.75138 0.75845 0.94548 0.0
H2572 H 0.73679 0.71428 0.92354 0.0
C2573 C 0.68811 0.59621 0.92917 0.0
C2574 C 0.70528 0.66992 0.94071 0.0
C2575 C 0.68506 0.56053 0.9291 0.0
C2576 C 0.76057 0.80685 0.94061 0.0
C2577 C 0.74753 0.77353 0.94074 0.0
C2578 C 0.7272 0.70262 0.92835 0.0
C2579 C 0.70629 0.61273 0.9346 0.0
C2580 C 0.71061 0.65053 0.93454 0.0
C2581 C 0.73204 0.75922 0.9347 0.0
C2582 C 0.72251 0.72213 0.93455 0.0
H2583 H 0.73109 0.54231 0.94396 0.0
H2584 H 0.7357 0.60484 0.9442 0.0
H2585 H 0.72576 0.65298 0.92352 0.0
H2586 H 0.73965 0.82785 0.92363 0.0
H2587 H 0.7156 0.77029 0.92395 0.0
C2588 C 0.43403 0.48282 0.18873 0.0
C2589 C 0.42086 0.49964 0.18274 0.0
C2590 C 0.46742 0.46973 0.1887 0.0
C2591 C 0.5437 0.45419 0.17692 0.0
H2592 H 0.59412 0.47025 0.1943 0.0
C2593 C 0.69082 0.47045 0.17824 0.0
C2594 C 0.70815 0.45058 0.18331 0.0
C2595 C 0.65504 0.47179 0.17817 0.0
C2596 C 0.58028 0.46531 0.18943 0.0
H2597 H 0.43187 0.51393 0.17187 0.0
H2598 H 0.48992 0.4924 0.17189 0.0
H2599 H 0.53239 0.47896 0.1941 0.0
H2600 H 0.70145 0.41635 0.19224 0.0
H2601 H 0.63888 0.42005 0.19232 0.0
H2602 H 0.5923 0.44248 0.1722 0.0
C2603 C 0.47455 0.4885 0.17659 0.0
C2604 C 0.54477 0.47003 0.18931 0.0
C2605 C 0.44105 0.50105 0.17658 0.0
C2606 C 0.6889 0.43242 0.18835 0.0
C2607 C 0.65311 0.4343 0.18837 0.0
C2608 C 0.57929 0.45013 0.17702 0.0
C2609 C 0.48865 0.47361 0.18272 0.0
C2610 C 0.52595 0.46499 0.18303 0.0
C2611 C 0.63585 0.45381 0.18325 0.0
C2612 C 0.59794 0.45603 0.18325 0.0
H2613 H 0.41906 0.48097 0.19354 0.0
H2614 H 0.47691 0.45754 0.19346 0.0
H2615 H 0.53021 0.44924 0.17202 0.0
H2616 H 0.70494 0.48519 0.17436 0.0
H2617 H 0.64234 0.4874 0.17422 0.0
C2618 C 0.76263 0.18021 0.43978 0.0
C2619 C 0.7501 0.16644 0.43341 0.0
C2620 C 0.77578 0.21356 0.44 0.0
C2621 C 0.79887 0.28882 0.42842 0.0
H2622 H 0.77252 0.34073 0.44506 0.0
C2623 C 0.77358 0.43577 0.42999 0.0
C2624 C 0.79702 0.45341 0.4343 0.0
C2625 C 0.77276 0.39997 0.42996 0.0
C2626 C 0.78025 0.3264 0.44042 0.0
H2627 H 0.74344 0.17632 0.42219 0.0
H2628 H 0.76485 0.23432 0.42259 0.0
H2629 H 0.76398 0.27891 0.44487 0.0
H2630 H 0.83824 0.44733 0.44189 0.0
H2631 H 0.83541 0.3846 0.44211 0.0
H2632 H 0.81289 0.3372 0.42385 0.0
C2633 C 0.76551 0.21946 0.42742 0.0
C2634 C 0.7757 0.29088 0.44031 0.0
C2635 C 0.75301 0.18597 0.42719 0.0
C2636 C 0.81945 0.43448 0.43862 0.0
C2637 C 0.81808 0.39868 0.43871 0.0
C2638 C 0.80267 0.32444 0.42848 0.0
C2639 C 0.77612 0.23419 0.43387 0.0
C2640 C 0.78451 0.27154 0.43426 0.0
C2641 C 0.79486 0.38122 0.43435 0.0
C2642 C 0.79307 0.34346 0.43445 0.0
H2643 H 0.76102 0.16574 0.44467 0.0
H2644 H 0.78465 0.22349 0.44502 0.0
H2645 H 0.80677 0.27497 0.42373 0.0
H2646 H 0.75571 0.44967 0.42668 0.0
H2647 H 0.75446 0.3869 0.4266 0.0
C2648 C 0.80481 0.47488 0.81712 0.0
C2649 C 0.78837 0.44858 0.81339 0.0
C2650 C 0.84046 0.47795 0.81694 0.0
C2651 C 0.91666 0.46948 0.81889 0.0
H2652 H 0.96609 0.44955 0.80158 0.0
C2653 C 0.06246 0.48769 0.81773 0.0
C2654 C 0.07515 0.50392 0.81163 0.0
C2655 C 0.02923 0.47429 0.81785 0.0
C2656 C 0.95273 0.4554 0.80645 0.0
H2657 H 0.79596 0.40448 0.80664 0.0
H2658 H 0.85837 0.40914 0.80643 0.0
H2659 H 0.90435 0.44169 0.80197 0.0
H2660 H 0.06347 0.51678 0.80071 0.0
H2661 H 0.00557 0.49447 0.80097 0.0
H2662 H 0.96456 0.48515 0.82326 0.0
C2663 C 0.84386 0.42803 0.80937 0.0
C2664 C 0.91725 0.45045 0.80671 0.0
C2665 C 0.80813 0.42524 0.80949 0.0
C2666 C 0.05463 0.50441 0.80551 0.0
C2667 C 0.02127 0.49144 0.80566 0.0
C2668 C 0.95202 0.4748 0.81861 0.0
C2669 C 0.86055 0.45446 0.81308 0.0
C2670 C 0.89863 0.45787 0.81291 0.0
C2671 C 0.00769 0.47719 0.8119 0.0
C2672 C 0.97055 0.46825 0.81236 0.0
H2673 H 0.79001 0.49334 0.82012 0.0
H2674 H 0.85218 0.4991 0.81974 0.0
H2675 H 0.90343 0.47482 0.82381 0.0
H2676 H 0.07769 0.48656 0.82252 0.0
H2677 H 0.02008 0.46264 0.8227 0.0
C2678 C 0.76802 0.82293 0.05667 0.0
C2679 C 0.75452 0.83678 0.06295 0.0
C2680 C 0.78128 0.7896 0.05657 0.0
C2681 C 0.80356 0.71502 0.06837 0.0
H2682 H 0.77973 0.66213 0.0517 0.0
C2683 C 0.78497 0.56796 0.06802 0.0
C2684 C 0.80378 0.54988 0.0629 0.0
C2685 C 0.78398 0.60374 0.06793 0.0
C2686 C 0.78682 0.6767 0.05636 0.0
H2687 H 0.74614 0.827 0.07414 0.0
H2688 H 0.76779 0.76908 0.07391 0.0
H2689 H 0.77062 0.72384 0.05173 0.0
H2690 H 0.83669 0.55522 0.05372 0.0
H2691 H 0.83339 0.61783 0.05334 0.0
H2692 H 0.81765 0.6671 0.07311 0.0
C2693 C 0.76911 0.78387 0.06907 0.0
C2694 C 0.78189 0.71218 0.05637 0.0
C2695 C 0.75645 0.8173 0.0692 0.0
C2696 C 0.82139 0.56837 0.05765 0.0
C2697 C 0.81976 0.60415 0.05746 0.0
C2698 C 0.80776 0.67945 0.0684 0.0
C2699 C 0.78082 0.76911 0.06271 0.0
C2700 C 0.78971 0.73186 0.06242 0.0
C2701 C 0.8012 0.62213 0.06263 0.0
C2702 C 0.79904 0.65997 0.06242 0.0
H2703 H 0.76717 0.83734 0.05177 0.0
H2704 H 0.79094 0.77961 0.05161 0.0
H2705 H 0.81074 0.72918 0.07307 0.0
H2706 H 0.77072 0.55443 0.07207 0.0
H2707 H 0.76918 0.61706 0.07193 0.0
C2708 C 0.44221 0.50265 0.32072 0.0
C2709 C 0.42227 0.50119 0.31453 0.0
C2710 C 0.47572 0.51513 0.32052 0.0
C2711 C 0.54665 0.52835 0.30765 0.0
H2712 H 0.59281 0.56385 0.32428 0.0
C2713 C 0.69023 0.56887 0.30837 0.0
C2714 C 0.70939 0.55265 0.31371 0.0
C2715 C 0.65448 0.5664 0.30828 0.0
C2716 C 0.58018 0.55397 0.3196 0.0
H2717 H 0.42104 0.51449 0.30338 0.0
H2718 H 0.4789 0.53789 0.3031 0.0
H2719 H 0.53079 0.55654 0.32444 0.0
H2720 H 0.70602 0.52084 0.32309 0.0
H2721 H 0.64346 0.51777 0.32309 0.0
H2722 H 0.59633 0.52659 0.3028 0.0
C2723 C 0.4692 0.52801 0.30807 0.0
C2724 C 0.54463 0.54957 0.31969 0.0
C2725 C 0.43578 0.51497 0.30824 0.0
C2726 C 0.69199 0.53412 0.31898 0.0
C2727 C 0.65622 0.53227 0.31897 0.0
C2728 C 0.58211 0.53343 0.30752 0.0
C2729 C 0.49012 0.52711 0.31415 0.0
C2730 C 0.52738 0.53591 0.31377 0.0
C2731 C 0.63714 0.5483 0.31361 0.0
C2732 C 0.59928 0.54559 0.31355 0.0
H2733 H 0.43279 0.49213 0.32566 0.0
H2734 H 0.49084 0.51349 0.32531 0.0
H2735 H 0.53467 0.51721 0.30302 0.0
H2736 H 0.70281 0.58389 0.30432 0.0
H2737 H 0.64031 0.57913 0.30411 0.0
C2738 C 0.68332 0.44281 0.56761 0.0
C2739 C 0.69907 0.46284 0.56236 0.0
C2740 C 0.68514 0.40707 0.56732 0.0
C2741 C 0.70014 0.33475 0.55516 0.0
H2742 H 0.72702 0.28587 0.57213 0.0
C2743 C 0.7523 0.19657 0.55468 0.0
C2744 C 0.74814 0.17566 0.56068 0.0
C2745 C 0.73995 0.23016 0.55464 0.0
C2746 C 0.71872 0.29888 0.56737 0.0
H2747 H 0.72911 0.46136 0.55273 0.0
H2748 H 0.73189 0.39885 0.55216 0.0
H2749 H 0.71843 0.3475 0.57261 0.0
H2750 H 0.72494 0.17277 0.57111 0.0
H2751 H 0.70235 0.23089 0.57094 0.0
H2752 H 0.70047 0.2862 0.5499 0.0
C2753 C 0.71795 0.41075 0.55647 0.0
C2754 C 0.71398 0.33432 0.56765 0.0
C2755 C 0.71642 0.44648 0.55679 0.0
C2756 C 0.72893 0.18826 0.56642 0.0
C2757 C 0.71627 0.22176 0.56635 0.0
C2758 C 0.70455 0.29922 0.55489 0.0
C2759 C 0.70244 0.39065 0.56175 0.0
C2760 C 0.70517 0.35272 0.56153 0.0
C2761 C 0.72277 0.2436 0.56058 0.0
C2762 C 0.71445 0.28085 0.56097 0.0
H2763 H 0.6693 0.45477 0.57189 0.0
H2764 H 0.67267 0.39225 0.57143 0.0
H2765 H 0.69285 0.34821 0.55038 0.0
H2766 H 0.76696 0.18777 0.55016 0.0
H2767 H 0.74569 0.24613 0.55011 0.0
C2768 C 0.19122 0.46801 0.31944 0.0
C2769 C 0.20857 0.44774 0.31445 0.0
C2770 C 0.15546 0.46949 0.31949 0.0
C2771 C 0.08111 0.46369 0.30821 0.0
H2772 H 0.03035 0.44832 0.32557 0.0
C2773 C 0.93519 0.48462 0.30887 0.0
C2774 C 0.92225 0.50127 0.31491 0.0
C2775 C 0.96834 0.47092 0.30888 0.0
C2776 C 0.04404 0.45309 0.32068 0.0
H2777 H 0.20191 0.41275 0.30564 0.0
H2778 H 0.1393 0.41677 0.3055 0.0
H2779 H 0.09228 0.44025 0.32543 0.0
H2780 H 0.93345 0.51486 0.32581 0.0
H2781 H 0.99113 0.49233 0.32575 0.0
H2782 H 0.03364 0.47856 0.30353 0.0
C2783 C 0.15355 0.43122 0.30941 0.0
C2784 C 0.07953 0.44824 0.32061 0.0
C2785 C 0.18934 0.42917 0.30946 0.0
C2786 C 0.94245 0.50208 0.32107 0.0
C2787 C 0.97573 0.48894 0.32104 0.0
C2788 C 0.04571 0.46922 0.30831 0.0
C2789 C 0.13629 0.45125 0.31445 0.0
C2790 C 0.09843 0.45391 0.31439 0.0
C2791 C 0.98958 0.47403 0.31488 0.0
C2792 C 0.02667 0.46449 0.31458 0.0
H2793 H 0.20531 0.48302 0.32328 0.0
H2794 H 0.14276 0.48547 0.32338 0.0
H2795 H 0.09517 0.46845 0.30336 0.0
H2796 H 0.9202 0.48326 0.30406 0.0
H2797 H 0.97762 0.45879 0.30409 0.0
C2798 C 0.25291 0.19501 0.05503 0.0
C2799 C 0.25311 0.1749 0.06121 0.0
C2800 C 0.26558 0.22845 0.05512 0.0
C2801 C 0.28249 0.29878 0.06793 0.0
H2802 H 0.31373 0.34569 0.05102 0.0
C2803 C 0.32248 0.44194 0.06742 0.0
C2804 C 0.30514 0.46171 0.06233 0.0
C2805 C 0.32038 0.40619 0.0673 0.0
C2806 C 0.30504 0.33285 0.05577 0.0
H2807 H 0.26955 0.17325 0.07216 0.0
H2808 H 0.29328 0.23098 0.07223 0.0
H2809 H 0.30599 0.28371 0.0508 0.0
H2810 H 0.27221 0.45953 0.05312 0.0
H2811 H 0.26959 0.3969 0.05274 0.0
H2812 H 0.28227 0.34814 0.0729 0.0
C2813 C 0.28195 0.22148 0.06738 0.0
C2814 C 0.30042 0.29732 0.05566 0.0
C2815 C 0.26871 0.18815 0.06733 0.0
C2816 C 0.28619 0.44496 0.05704 0.0
C2817 C 0.28465 0.40918 0.05684 0.0
C2818 C 0.28778 0.33419 0.06807 0.0
C2819 C 0.27939 0.24259 0.06135 0.0
C2820 C 0.28834 0.27981 0.06169 0.0
C2821 C 0.30149 0.38948 0.062 0.0
C2822 C 0.29846 0.35163 0.06196 0.0
H2823 H 0.24096 0.18578 0.05022 0.0
H2824 H 0.26267 0.24374 0.05037 0.0
H2825 H 0.27255 0.28661 0.07265 0.0
H2826 H 0.33782 0.45411 0.07148 0.0
H2827 H 0.33379 0.39157 0.0713 0.0
C2828 C 0.3051 0.5305 0.81737 0.0
C2829 C 0.28858 0.5523 0.81253 0.0
C2830 C 0.34081 0.52803 0.81747 0.0
C2831 C 0.41575 0.53173 0.8066 0.0
H2832 H 0.4662 0.5515 0.8238 0.0
C2833 C 0.56169 0.51034 0.80766 0.0
C2834 C 0.57471 0.49617 0.81395 0.0
C2835 C 0.52845 0.52377 0.80743 0.0
C2836 C 0.45262 0.54542 0.81897 0.0
H2837 H 0.2967 0.58871 0.80402 0.0
H2838 H 0.35915 0.58282 0.80394 0.0
H2839 H 0.40432 0.5598 0.82351 0.0
H2840 H 0.56342 0.48648 0.82502 0.0
H2841 H 0.50558 0.50834 0.82458 0.0
H2842 H 0.46318 0.51521 0.80215 0.0
C2843 C 0.34429 0.56808 0.80771 0.0
C2844 C 0.41716 0.55044 0.81881 0.0
C2845 C 0.30859 0.57119 0.80772 0.0
C2846 C 0.55438 0.49738 0.82009 0.0
C2847 C 0.52101 0.51016 0.81983 0.0
C2848 C 0.4511 0.52592 0.8068 0.0
C2849 C 0.36068 0.54668 0.81262 0.0
C2850 C 0.39842 0.54332 0.81265 0.0
C2851 C 0.50715 0.52277 0.81346 0.0
C2852 C 0.47006 0.53225 0.81302 0.0
H2853 H 0.29039 0.51517 0.82105 0.0
H2854 H 0.35293 0.51107 0.82125 0.0
H2855 H 0.40173 0.5259 0.8018 0.0
H2856 H 0.57678 0.51004 0.80284 0.0
H2857 H 0.5192 0.53412 0.80247 0.0
C2858 C 0.23142 0.81394 0.56724 0.0
C2859 C 0.24978 0.82699 0.56143 0.0
C2860 C 0.2183 0.78059 0.56709 0.0
C2861 C 0.20374 0.70479 0.55523 0.0
H2862 H 0.21759 0.65399 0.57264 0.0
C2863 C 0.21332 0.55693 0.55647 0.0
C2864 C 0.19555 0.54041 0.56196 0.0
C2865 C 0.21536 0.59268 0.55627 0.0
C2866 C 0.21318 0.6679 0.56776 0.0
H2867 H 0.26676 0.8158 0.55072 0.0
H2868 H 0.24486 0.75777 0.55054 0.0
H2869 H 0.2276 0.71546 0.57248 0.0
H2870 H 0.16536 0.54826 0.57145 0.0
H2871 H 0.16975 0.61073 0.57121 0.0
H2872 H 0.19079 0.6566 0.55048 0.0
C2873 C 0.24002 0.77325 0.55519 0.0
C2874 C 0.21872 0.70326 0.56767 0.0
C2875 C 0.25277 0.80667 0.55531 0.0
C2876 C 0.17972 0.56032 0.56722 0.0
C2877 C 0.18212 0.59603 0.56707 0.0
C2878 C 0.19863 0.66932 0.55532 0.0
C2879 C 0.22352 0.75934 0.56116 0.0
C2880 C 0.21444 0.7222 0.56138 0.0
C2881 C 0.20001 0.6126 0.5616 0.0
C2882 C 0.20362 0.65047 0.56157 0.0
H2883 H 0.22834 0.82896 0.57202 0.0
H2884 H 0.20493 0.77114 0.57172 0.0
H2885 H 0.19956 0.71848 0.55033 0.0
H2886 H 0.22606 0.54216 0.55239 0.0
H2887 H 0.22968 0.60472 0.55203 0.0
C2888 C 0.1893 0.57066 0.1895 0.0
C2889 C 0.20834 0.55359 0.18425 0.0
C2890 C 0.15351 0.56855 0.18959 0.0
C2891 C 0.07926 0.5556 0.17831 0.0
H2892 H 0.03338 0.51981 0.19494 0.0
C2893 C 0.94163 0.50362 0.17716 0.0
C2894 C 0.92151 0.50241 0.18333 0.0
C2895 C 0.97505 0.51633 0.17737 0.0
C2896 C 0.04546 0.53069 0.19029 0.0
H2897 H 0.20479 0.52071 0.17504 0.0
H2898 H 0.1422 0.51826 0.17502 0.0
H2899 H 0.09504 0.52923 0.19519 0.0
H2900 H 0.91981 0.51642 0.19443 0.0
H2901 H 0.97752 0.5402 0.19473 0.0
H2902 H 0.02999 0.55784 0.17342 0.0
C2903 C 0.15505 0.53312 0.17907 0.0
C2904 C 0.08092 0.5358 0.19044 0.0
C2905 C 0.19082 0.53461 0.17907 0.0
C2906 C 0.93472 0.51668 0.18959 0.0
C2907 C 0.96803 0.52995 0.18978 0.0
C2908 C 0.04372 0.55119 0.1782 0.0
C2909 C 0.13608 0.54997 0.18434 0.0
C2910 C 0.09821 0.54756 0.1844 0.0
C2911 C 0.98915 0.52881 0.18373 0.0
C2912 C 0.02634 0.53783 0.18413 0.0
H2913 H 0.20201 0.58601 0.19348 0.0
H2914 H 0.13941 0.5819 0.19369 0.0
H2915 H 0.09201 0.56515 0.17361 0.0
H2916 H 0.93244 0.49273 0.17223 0.0
H2917 H 0.99034 0.51449 0.1726 0.0
C2918 C 0.22615 0.43311 0.92867 0.0
C2919 C 0.20506 0.45072 0.93347 0.0
C2920 C 0.22679 0.39734 0.92856 0.0
C2921 C 0.21809 0.32221 0.9393 0.0
H2922 H 0.19871 0.27413 0.92179 0.0
C2923 C 0.23521 0.17599 0.93774 0.0
C2924 C 0.25055 0.16344 0.93152 0.0
C2925 C 0.2222 0.20939 0.938 0.0
C2926 C 0.2046 0.28703 0.92671 0.0
H2927 H 0.16825 0.44456 0.94197 0.0
H2928 H 0.17088 0.38181 0.94204 0.0
H2929 H 0.19291 0.33626 0.92228 0.0
H2930 H 0.26241 0.17563 0.92058 0.0
H2931 H 0.24114 0.23368 0.92109 0.0
H2932 H 0.23201 0.27374 0.94365 0.0
C2933 C 0.18645 0.39591 0.93829 0.0
C2934 C 0.20102 0.32263 0.92699 0.0
C2935 C 0.18519 0.43175 0.93829 0.0
C2936 C 0.25062 0.18431 0.92546 0.0
C2937 C 0.23821 0.21782 0.92575 0.0
C2938 C 0.22243 0.28667 0.93899 0.0
C2939 C 0.20696 0.37844 0.93337 0.0
C2940 C 0.20816 0.34055 0.93326 0.0
C2941 C 0.22475 0.23127 0.93209 0.0
C2942 C 0.21628 0.26856 0.93265 0.0
H2943 H 0.2422 0.44702 0.92498 0.0
H2944 H 0.24316 0.38441 0.92478 0.0
H2945 H 0.22392 0.33556 0.94418 0.0
H2946 H 0.23447 0.16049 0.94249 0.0
H2947 H 0.21113 0.21834 0.94292 0.0
C2948 C 0.56964 0.48543 0.68865 0.0
C2949 C 0.58572 0.49888 0.68258 0.0
C2950 C 0.5359 0.47334 0.6883 0.0
C2951 C 0.45817 0.49363 0.67904 0.0
H2952 H 0.4207 0.40903 0.68643 0.0
C2953 C 0.31432 0.46439 0.67652 0.0
C2954 C 0.29819 0.44616 0.68199 0.0
C2955 C 0.34995 0.46768 0.67637 0.0
C2956 C 0.43061 0.43304 0.68444 0.0
H2957 H 0.57968 0.50758 0.67128 0.0
H2958 H 0.52089 0.48706 0.67075 0.0
H2959 H 0.48262 0.41846 0.68665 0.0
H2960 H 0.30687 0.41655 0.69152 0.0
H2961 H 0.36872 0.42415 0.69154 0.0
H2962 H 0.40673 0.50934 0.67714 0.0
C2963 C 0.53439 0.48601 0.67576 0.0
C2964 C 0.46612 0.43824 0.68452 0.0
C2965 C 0.56817 0.4976 0.67608 0.0
C2966 C 0.31848 0.4313 0.6873 0.0
C2967 C 0.3541 0.43515 0.68723 0.0
C2968 C 0.42277 0.4888 0.67908 0.0
C2969 C 0.51757 0.47487 0.68191 0.0
C2970 C 0.48018 0.4685 0.68177 0.0
C2971 C 0.3704 0.45345 0.68176 0.0
C2972 C 0.40838 0.45836 0.68174 0.0
H2973 H 0.58242 0.48589 0.69374 0.0
H2974 H 0.52345 0.46483 0.69312 0.0
H2975 H 0.46836 0.5175 0.67701 0.0
H2976 H 0.2994 0.47644 0.67239 0.0
H2977 H 0.36136 0.48136 0.67198 0.0
C2978 C 0.26323 0.8144 0.42842 0.0
C2979 C 0.24755 0.82849 0.43445 0.0
C2980 C 0.27669 0.78115 0.42858 0.0
C2981 C 0.29525 0.70709 0.44082 0.0
H2982 H 0.27763 0.65373 0.42389 0.0
C2983 C 0.2807 0.55902 0.44014 0.0
C2984 C 0.29972 0.54177 0.43493 0.0
C2985 C 0.27944 0.59485 0.44023 0.0
C2986 C 0.28298 0.6684 0.42863 0.0
H2987 H 0.23567 0.81926 0.44552 0.0
H2988 H 0.25764 0.76147 0.44574 0.0
H2989 H 0.26781 0.71524 0.42374 0.0
H2990 H 0.33326 0.54851 0.42588 0.0
H2991 H 0.32975 0.61105 0.42587 0.0
H2992 H 0.30845 0.65942 0.44578 0.0
C2993 C 0.26045 0.776 0.4409 0.0
C2994 C 0.27765 0.7038 0.42855 0.0
C2995 C 0.24758 0.80936 0.44076 0.0
C2996 C 0.31779 0.56107 0.42987 0.0
C2997 C 0.31597 0.59682 0.42988 0.0
C2998 C 0.29989 0.67156 0.44094 0.0
C2999 C 0.27427 0.76095 0.43475 0.0
C3000 C 0.28333 0.72371 0.43466 0.0
C3001 C 0.2967 0.61405 0.43505 0.0
C3002 C 0.29351 0.65187 0.43486 0.0
H3003 H 0.26393 0.82852 0.42348 0.0
H3004 H 0.28804 0.77096 0.4238 0.0
H3005 H 0.30071 0.72142 0.44559 0.0
H3006 H 0.26627 0.54479 0.44405 0.0
H3007 H 0.26416 0.60754 0.44424 0.0
C3008 C 0.24313 0.06398 0.09589 0.0
C3009 C 0.2156 0.07783 0.09204 0.0
C3010 C 0.2406 0.0594 0.10322 0.0
C3011 C 0.19338 0.09057 0.11881 0.0
H3012 H 0.22225 0.00563 0.12762 0.0
C3013 C 0.19463 0.07396 0.14905 0.0
C3014 C 0.1804 0.04351 0.15172 0.0
C3015 C 0.20133 0.07754 0.14183 0.0
C3016 C 0.214 0.02944 0.12522 0.0
H3017 H 0.16384 0.09772 0.09288 0.0
H3018 H 0.15956 0.08983 0.10563 0.0
H3019 H 0.22918 0.01329 0.11483 0.0
H3020 H 0.16287 0.9926 0.1489 0.0
H3021 H 0.17447 0.99898 0.13625 0.0
H3022 H 0.17767 0.10659 0.12914 0.0
C3023 C 0.18317 0.08272 0.103 0.0
C3024 C 0.21828 0.03395 0.11792 0.0
C3025 C 0.18558 0.08706 0.09568 0.0
C3026 C 0.17376 0.01641 0.14702 0.0
C3027 C 0.18059 0.01998 0.13978 0.0
C3028 C 0.18932 0.08616 0.12609 0.0
C3029 C 0.21062 0.06886 0.10685 0.0
C3030 C 0.20771 0.06446 0.11463 0.0
C3031 C 0.19407 0.05075 0.1371 0.0
C3032 C 0.19939 0.05549 0.12938 0.0
H3033 H 0.26657 0.05653 0.09323 0.0
H3034 H 0.26225 0.04886 0.10607 0.0
H3035 H 0.1853 0.1145 0.11644 0.0
H3036 H 0.20033 0.09526 0.15253 0.0
H3037 H 0.2122 0.10138 0.13995 0.0
C3038 C 0.13879 0.95078 0.34884 0.0
C3039 C 0.16476 0.94733 0.34374 0.0
C3040 C 0.14674 0.95072 0.35605 0.0
C3041 C 0.21226 0.92115 0.36862 0.0
H3042 H 0.16487 0.98142 0.38167 0.0
C3043 C 0.23967 0.92113 0.3988 0.0
C3044 C 0.21058 0.92191 0.40319 0.0
C3045 C 0.23662 0.92702 0.39151 0.0
C3046 C 0.17818 0.96428 0.3781 0.0
H3047 H 0.21958 0.94176 0.34222 0.0
H3048 H 0.23341 0.94175 0.35482 0.0
H3049 H 0.15473 0.98683 0.36898 0.0
H3050 H 0.15556 0.92987 0.40336 0.0
H3051 H 0.15028 0.93971 0.39071 0.0
H3052 H 0.23522 0.89817 0.37775 0.0
C3053 C 0.20687 0.94416 0.35323 0.0
C3054 C 0.17236 0.96738 0.37083 0.0
C3055 C 0.19893 0.94433 0.34601 0.0
C3056 C 0.17852 0.92905 0.40014 0.0
C3057 C 0.1755 0.93499 0.39289 0.0
C3058 C 0.21805 0.91801 0.3759 0.0
C3059 C 0.18083 0.94715 0.35833 0.0
C3060 C 0.18893 0.94551 0.36601 0.0
C3061 C 0.20446 0.93396 0.38848 0.0
C3062 C 0.20065 0.93918 0.38072 0.0
H3063 H 0.11222 0.95312 0.34727 0.0
H3064 H 0.12605 0.95265 0.35985 0.0
H3065 H 0.22515 0.90367 0.36505 0.0
H3066 H 0.26475 0.9158 0.40099 0.0
H3067 H 0.25946 0.92633 0.38826 0.0
C3068 C 0.25133 0.90959 0.59773 0.0
C3069 C 0.27645 0.92105 0.59295 0.0
C3070 C 0.25446 0.91645 0.60498 0.0
C3071 C 0.32054 0.93311 0.61824 0.0
H3072 H 0.24533 0.9611 0.63034 0.0
C3073 C 0.32815 0.92593 0.64856 0.0
C3074 C 0.3168 0.95463 0.65238 0.0
C3075 C 0.32226 0.9235 0.64129 0.0
C3076 C 0.26657 0.9535 0.62701 0.0
H3077 H 0.32368 0.95007 0.592 0.0
H3078 H 0.32903 0.96186 0.60459 0.0
H3079 H 0.23598 0.95472 0.61757 0.0
H3080 H 0.29001 0.00314 0.6516 0.0
H3081 H 0.27956 0.99873 0.63885 0.0
H3082 H 0.35112 0.93169 0.62763 0.0
C3083 C 0.30721 0.94721 0.60275 0.0
C3084 C 0.26116 0.94957 0.61972 0.0
C3085 C 0.30405 0.9405 0.59553 0.0
C3086 C 0.29921 0.98079 0.64879 0.0
C3087 C 0.29301 0.97818 0.64151 0.0
C3088 C 0.32585 0.93673 0.6255 0.0
C3089 C 0.28282 0.93475 0.60756 0.0
C3090 C 0.28814 0.93936 0.61527 0.0
C3091 C 0.30465 0.94957 0.63769 0.0
C3092 C 0.29893 0.94683 0.62996 0.0
H3093 H 0.22971 0.89464 0.5959 0.0
H3094 H 0.23535 0.90642 0.60858 0.0
H3095 H 0.34173 0.92486 0.61495 0.0
H3096 H 0.34172 0.9053 0.65117 0.0
H3097 H 0.3312 0.90099 0.63849 0.0
C3098 C 0.31546 0.07365 0.89779 0.0
C3099 C 0.28782 0.06101 0.90177 0.0
C3100 C 0.31674 0.06868 0.89048 0.0
C3101 C 0.2862 0.01377 0.87614 0.0
H3102 H 0.31184 0.09089 0.86433 0.0
C3103 C 0.33005 0.00202 0.84683 0.0
C3104 C 0.31862 0.02747 0.84213 0.0
C3105 C 0.32275 0.00438 0.85407 0.0
C3106 C 0.30434 0.06916 0.86754 0.0
H3107 H 0.24001 0.03287 0.90122 0.0
H3108 H 0.24242 0.024 0.88839 0.0
H3109 H 0.30551 0.09884 0.87705 0.0
H3110 H 0.28911 0.07443 0.84129 0.0
H3111 H 0.27644 0.07843 0.85387 0.0
H3112 H 0.2853 0.98406 0.86658 0.0
C3113 C 0.26303 0.03777 0.89096 0.0
C3114 C 0.30103 0.07366 0.87483 0.0
C3115 C 0.26156 0.04304 0.89829 0.0
C3116 C 0.29871 0.0546 0.84477 0.0
C3117 C 0.29149 0.05697 0.85199 0.0
C3118 C 0.28977 0.00919 0.86882 0.0
C3119 C 0.29056 0.05075 0.88699 0.0
C3120 C 0.2922 0.04599 0.87921 0.0
C3121 C 0.30395 0.03227 0.85673 0.0
C3122 C 0.299 0.03685 0.86446 0.0
H3123 H 0.33615 0.08754 0.9003 0.0
H3124 H 0.33849 0.07859 0.88757 0.0
H3125 H 0.27955 0.99197 0.87941 0.0
H3126 H 0.34535 0.98074 0.84495 0.0
H3127 H 0.33285 0.98507 0.85762 0.0
C3128 C 0.76372 0.91421 0.89833 0.0
C3129 C 0.79167 0.91961 0.90288 0.0
C3130 C 0.76639 0.92174 0.8911 0.0
C3131 C 0.81943 0.96985 0.8781 0.0
H3132 H 0.78244 0.90467 0.86464 0.0
C3133 C 0.86118 0.96426 0.84878 0.0
C3134 C 0.8359 0.95768 0.84367 0.0
C3135 C 0.8532 0.96303 0.856 0.0
C3136 C 0.79249 0.92339 0.86833 0.0
H3137 H 0.84424 0.93752 0.90341 0.0
H3138 H 0.84906 0.94995 0.89086 0.0
H3139 H 0.77289 0.89605 0.87727 0.0
H3140 H 0.78214 0.94566 0.84211 0.0
H3141 H 0.76832 0.9435 0.8547 0.0
H3142 H 0.83978 0.99666 0.86915 0.0
C3143 C 0.82486 0.94048 0.89286 0.0
C3144 C 0.78698 0.91848 0.87557 0.0
C3145 C 0.82216 0.93307 0.90007 0.0
C3146 C 0.80228 0.9507 0.84592 0.0
C3147 C 0.79436 0.94929 0.85313 0.0
C3148 C 0.82508 0.97466 0.87086 0.0
C3149 C 0.79709 0.93479 0.88828 0.0
C3150 C 0.80075 0.94141 0.88055 0.0
C3151 C 0.81982 0.95504 0.85825 0.0
C3152 C 0.81201 0.95126 0.8659 0.0
H3153 H 0.73981 0.90403 0.90033 0.0
H3154 H 0.74438 0.91743 0.88773 0.0
H3155 H 0.82986 0.98837 0.88179 0.0
H3156 H 0.88731 0.96974 0.84723 0.0
H3157 H 0.87345 0.96728 0.85982 0.0
C3158 C 0.78848 0.06637 0.59543 0.0
C3159 C 0.78785 0.10035 0.59298 0.0
C3160 C 0.78943 0.05941 0.60269 0.0
C3161 C 0.81618 0.0993 0.6194 0.0
H3162 H 0.767 0.02413 0.62816 0.0
C3163 C 0.81553 0.0804 0.6495 0.0
C3164 C 0.8199 0.04694 0.65209 0.0
C3165 C 0.80965 0.0862 0.64232 0.0
C3166 C 0.78113 0.045 0.62577 0.0
H3167 H 0.78609 0.15362 0.59621 0.0
H3168 H 0.78735 0.14146 0.60887 0.0
H3169 H 0.75899 0.03599 0.61555 0.0
H3170 H 0.82088 0.99324 0.64917 0.0
H3171 H 0.81093 0.00346 0.63656 0.0
H3172 H 0.83852 0.10824 0.62956 0.0
C3173 C 0.78777 0.12021 0.60518 0.0
C3174 C 0.77651 0.05182 0.61856 0.0
C3175 C 0.78685 0.12717 0.59793 0.0
C3176 C 0.81768 0.01932 0.64734 0.0
C3177 C 0.81179 0.02515 0.64013 0.0
C3178 C 0.82079 0.09249 0.62659 0.0
C3179 C 0.78976 0.08629 0.60764 0.0
C3180 C 0.79393 0.07914 0.61531 0.0
C3181 C 0.80804 0.05871 0.63754 0.0
C3182 C 0.80324 0.06536 0.62986 0.0
H3183 H 0.78921 0.0451 0.59175 0.0
H3184 H 0.79118 0.03302 0.60441 0.0
H3185 H 0.83057 0.12004 0.61703 0.0
H3186 H 0.81674 0.10228 0.65302 0.0
H3187 H 0.80624 0.1123 0.64052 0.0
C3188 C 0.71531 0.10668 0.39734 0.0
C3189 C 0.70341 0.08415 0.40259 0.0
C3190 C 0.71521 0.09691 0.39022 0.0
C3191 C 0.67207 0.03835 0.3779 0.0
H3192 H 0.74571 0.06434 0.36522 0.0
C3193 C 0.6693 0.00637 0.34797 0.0
C3194 C 0.67791 0.03378 0.34349 0.0
C3195 C 0.67538 0.00854 0.35526 0.0
C3196 C 0.72489 0.057 0.3687 0.0
H3197 H 0.68285 0.03332 0.4045 0.0
H3198 H 0.68282 0.01631 0.39208 0.0
H3199 H 0.75097 0.07578 0.37788 0.0
H3200 H 0.70046 0.08457 0.34312 0.0
H3201 H 0.71069 0.0884 0.35578 0.0
H3202 H 0.64565 0.02027 0.3687 0.0
C3203 C 0.69185 0.04166 0.39346 0.0
C3204 C 0.7279 0.06359 0.37594 0.0
C3205 C 0.69201 0.05139 0.40058 0.0
C3206 C 0.69339 0.06301 0.34642 0.0
C3207 C 0.69956 0.06511 0.35368 0.0
C3208 C 0.66905 0.03178 0.37066 0.0
C3209 C 0.70318 0.06441 0.3882 0.0
C3210 C 0.70126 0.05488 0.3806 0.0
C3211 C 0.69039 0.03806 0.3582 0.0
C3212 C 0.69515 0.04162 0.36596 0.0
H3213 H 0.72426 0.13208 0.39871 0.0
H3214 H 0.72373 0.11518 0.38628 0.0
H3215 H 0.65094 0.03165 0.38135 0.0
H3216 H 0.65743 0.98346 0.34587 0.0
H3217 H 0.66829 0.98716 0.35861 0.0
C3218 C 0.67842 0.92289 0.15047 0.0
C3219 C 0.67756 0.95601 0.15338 0.0
C3220 C 0.68138 0.91819 0.14319 0.0
C3221 C 0.7087 0.96002 0.12669 0.0
H3222 H 0.65111 0.89096 0.11797 0.0
C3223 C 0.69743 0.94214 0.09633 0.0
C3224 C 0.69562 0.90835 0.09378 0.0
C3225 C 0.69653 0.94871 0.1036 0.0
C3226 C 0.66768 0.91004 0.12033 0.0
H3227 H 0.67969 0.0102 0.15092 0.0
H3228 H 0.6847 0.00191 0.13811 0.0
H3229 H 0.64664 0.90158 0.13063 0.0
H3230 H 0.69246 0.85495 0.09686 0.0
H3231 H 0.6913 0.86641 0.10954 0.0
H3232 H 0.72977 0.96838 0.11636 0.0
C3233 C 0.68327 0.97963 0.14151 0.0
C3234 C 0.66507 0.91617 0.12759 0.0
C3235 C 0.68023 0.98437 0.14884 0.0
C3236 C 0.69369 0.88127 0.09865 0.0
C3237 C 0.69281 0.88785 0.10591 0.0
C3238 C 0.71134 0.95384 0.11942 0.0
C3239 C 0.68356 0.94646 0.13862 0.0
C3240 C 0.68571 0.94103 0.13086 0.0
C3241 C 0.6938 0.92165 0.10847 0.0
C3242 C 0.69101 0.92861 0.11617 0.0
H3243 H 0.67668 0.90044 0.15382 0.0
H3244 H 0.68214 0.89231 0.14113 0.0
H3245 H 0.72516 0.97911 0.12908 0.0
H3246 H 0.69893 0.9636 0.09271 0.0
H3247 H 0.69705 0.97505 0.10539 0.0
C3248 C 0.70497 0.57108 0.59646 0.0
C3249 C 0.70574 0.60482 0.59387 0.0
C3250 C 0.70271 0.56482 0.60373 0.0
C3251 C 0.71413 0.60464 0.62132 0.0
H3252 H 0.64653 0.53779 0.62727 0.0
C3253 C 0.69384 0.56892 0.65068 0.0
C3254 C 0.65965 0.56722 0.65299 0.0
C3255 C 0.70146 0.57138 0.64348 0.0
C3256 C 0.66543 0.55658 0.62569 0.0
H3257 H 0.70605 0.65841 0.59689 0.0
H3258 H 0.70197 0.64746 0.60957 0.0
H3259 H 0.65736 0.54656 0.61468 0.0
H3260 H 0.60668 0.56619 0.64954 0.0
H3261 H 0.62 0.57062 0.63696 0.0
H3262 H 0.72153 0.61531 0.63234 0.0
C3263 C 0.7033 0.62586 0.60598 0.0
C3264 C 0.67193 0.56134 0.61848 0.0
C3265 C 0.70546 0.63213 0.59871 0.0
C3266 C 0.63327 0.56744 0.64794 0.0
C3267 C 0.64091 0.56978 0.64073 0.0
C3268 C 0.70773 0.59979 0.62853 0.0
C3269 C 0.70131 0.59215 0.60856 0.0
C3270 C 0.6961 0.58566 0.61622 0.0
C3271 C 0.67507 0.57205 0.63842 0.0
C3272 C 0.68306 0.57596 0.63079 0.0
H3273 H 0.70533 0.54944 0.59287 0.0
H3274 H 0.70171 0.53857 0.60556 0.0
H3275 H 0.7331 0.62337 0.61974 0.0
H3276 H 0.71479 0.56869 0.65444 0.0
H3277 H 0.72803 0.57267 0.64186 0.0
C3278 C 0.69142 0.44101 0.90078 0.0
C3279 C 0.72051 0.42336 0.90321 0.0
C3280 C 0.68782 0.4491 0.89363 0.0
C3281 C 0.73351 0.45887 0.87672 0.0
H3282 H 0.6453 0.43503 0.86865 0.0
C3283 C 0.69257 0.49027 0.84775 0.0
C3284 C 0.67751 0.46284 0.84406 0.0
C3285 C 0.69907 0.48765 0.85502 0.0
C3286 C 0.67006 0.44181 0.87083 0.0
H3287 H 0.76933 0.40164 0.90008 0.0
H3288 H 0.76287 0.41573 0.88751 0.0
H3289 H 0.65528 0.42672 0.88126 0.0
H3290 H 0.65747 0.41123 0.84512 0.0
H3291 H 0.66849 0.4069 0.85775 0.0
H3292 H 0.74828 0.47351 0.8662 0.0
C3293 C 0.74296 0.42333 0.89118 0.0
C3294 C 0.67569 0.43733 0.87806 0.0
C3295 C 0.74656 0.4151 0.89837 0.0
C3296 C 0.66903 0.43288 0.84779 0.0
C3297 C 0.6752 0.43041 0.85504 0.0
C3298 C 0.72774 0.46365 0.86947 0.0
C3299 C 0.71322 0.43982 0.88874 0.0
C3300 C 0.7075 0.44561 0.88108 0.0
C3301 C 0.69021 0.45774 0.85873 0.0
C3302 C 0.69605 0.4548 0.86645 0.0
H3303 H 0.67102 0.44818 0.90438 0.0
H3304 H 0.66489 0.46233 0.89192 0.0
H3305 H 0.7582 0.46564 0.87893 0.0
H3306 H 0.69954 0.51361 0.84501 0.0
H3307 H 0.71053 0.50915 0.85776 0.0
C3308 C 0.76303 0.44082 0.09763 0.0
C3309 C 0.79232 0.43688 0.09338 0.0
C3310 C 0.76622 0.44636 0.10492 0.0
C3311 C 0.82679 0.43214 0.11954 0.0
H3312 H 0.76931 0.49596 0.12986 0.0
C3313 C 0.82271 0.43314 0.14985 0.0
C3314 C 0.82366 0.4651 0.15327 0.0
C3315 C 0.81775 0.43107 0.14256 0.0
C3316 C 0.78569 0.47823 0.12703 0.0
H3317 H 0.84792 0.43676 0.09341 0.0
H3318 H 0.8534 0.44661 0.10606 0.0
H3319 H 0.76313 0.49065 0.117 0.0
H3320 H 0.81946 0.51996 0.15171 0.0
H3321 H 0.81106 0.51629 0.13889 0.0
H3322 H 0.84967 0.41995 0.12949 0.0
C3323 C 0.82797 0.44484 0.1038 0.0
C3324 C 0.78191 0.47494 0.11969 0.0
C3325 C 0.8248 0.43931 0.09654 0.0
C3326 C 0.81894 0.49497 0.14923 0.0
C3327 C 0.81393 0.49287 0.1419 0.0
C3328 C 0.83049 0.43537 0.12685 0.0
C3329 C 0.79876 0.44802 0.10809 0.0
C3330 C 0.80247 0.45185 0.11587 0.0
C3331 C 0.81364 0.46088 0.13848 0.0
C3332 C 0.80991 0.45831 0.13068 0.0
H3333 H 0.73764 0.43916 0.09534 0.0
H3334 H 0.74323 0.44846 0.1081 0.0
H3335 H 0.84274 0.41384 0.11676 0.0
H3336 H 0.82593 0.40958 0.1528 0.0
H3337 H 0.81703 0.40601 0.1401 0.0
C3338 C 0.81944 0.57988 0.34717 0.0
C3339 C 0.82184 0.5471 0.34414 0.0
C3340 C 0.81242 0.58377 0.35437 0.0
C3341 C 0.81841 0.53885 0.37138 0.0
H3342 H 0.75917 0.61227 0.37782 0.0
C3343 C 0.79043 0.56119 0.40101 0.0
C3344 C 0.79302 0.59529 0.40334 0.0
C3345 C 0.78995 0.55359 0.39378 0.0
C3346 C 0.7759 0.59177 0.3761 0.0
H3347 H 0.81841 0.49265 0.34628 0.0
H3348 H 0.80602 0.49949 0.35889 0.0
H3349 H 0.76565 0.6016 0.36516 0.0
H3350 H 0.79616 0.64821 0.39991 0.0
H3351 H 0.79557 0.63492 0.3873 0.0
H3352 H 0.82912 0.52938 0.38231 0.0
C3353 C 0.80987 0.52215 0.35569 0.0
C3354 C 0.77962 0.58565 0.36885 0.0
C3355 C 0.81685 0.51825 0.34846 0.0
C3356 C 0.79417 0.62168 0.39829 0.0
C3357 C 0.79362 0.61407 0.39106 0.0
C3358 C 0.81467 0.54495 0.37863 0.0
C3359 C 0.80762 0.55498 0.35871 0.0
C3360 C 0.80136 0.55949 0.36641 0.0
C3361 C 0.79195 0.57992 0.38873 0.0
C3362 C 0.79378 0.57182 0.38106 0.0
H3363 H 0.82314 0.60269 0.344 0.0
H3364 H 0.81143 0.60939 0.35655 0.0
H3365 H 0.83565 0.51877 0.36966 0.0
H3366 H 0.78932 0.54025 0.40476 0.0
H3367 H 0.78819 0.52707 0.39214 0.0
C3368 C 0.30299 0.4929 0.34781 0.0
C3369 C 0.32077 0.46647 0.34434 0.0
C3370 C 0.2974 0.49134 0.35512 0.0
C3371 C 0.33161 0.45207 0.37128 0.0
H3372 H 0.241 0.46638 0.37917 0.0
C3373 C 0.30886 0.44725 0.40119 0.0
C3374 C 0.28129 0.42688 0.40346 0.0
C3375 C 0.31211 0.45642 0.39409 0.0
C3376 C 0.26641 0.46233 0.37703 0.0
H3377 H 0.34683 0.41788 0.34581 0.0
H3378 H 0.33732 0.41538 0.35852 0.0
H3379 H 0.25044 0.47419 0.36644 0.0
H3380 H 0.23473 0.40131 0.40011 0.0
H3381 H 0.2407 0.41707 0.38763 0.0
H3382 H 0.34756 0.43938 0.38177 0.0
C3383 C 0.32779 0.43731 0.35561 0.0
C3384 C 0.27187 0.46711 0.36977 0.0
C3385 C 0.33306 0.43868 0.34832 0.0
C3386 C 0.25633 0.41691 0.39851 0.0
C3387 C 0.25962 0.42611 0.39138 0.0
C3388 C 0.32623 0.44752 0.37851 0.0
C3389 C 0.3099 0.46356 0.35908 0.0
C3390 C 0.30443 0.46149 0.36683 0.0
C3391 C 0.28791 0.44542 0.38909 0.0
C3392 C 0.29353 0.45223 0.38146 0.0
H3393 H 0.29309 0.51455 0.34487 0.0
H3394 H 0.28365 0.51197 0.3577 0.0
H3395 H 0.35703 0.44786 0.36915 0.0
H3396 H 0.3283 0.45579 0.40488 0.0
H3397 H 0.33386 0.47182 0.3925 0.0
C3398 C 0.32536 0.52192 0.14872 0.0
C3399 C 0.32511 0.54969 0.15346 0.0
C3400 C 0.32092 0.52735 0.14145 0.0
C3401 C 0.33041 0.59477 0.12797 0.0
H3402 H 0.27398 0.53559 0.11632 0.0
C3403 C 0.30069 0.62797 0.09899 0.0
C3404 C 0.30312 0.60121 0.09405 0.0
C3405 C 0.30126 0.62105 0.10625 0.0
C3406 C 0.29006 0.55215 0.1195 0.0
H3407 H 0.31889 0.6048 0.1543 0.0
H3408 H 0.31093 0.61412 0.14169 0.0
H3409 H 0.27925 0.52419 0.12901 0.0
H3410 H 0.3071 0.54608 0.09284 0.0
H3411 H 0.30848 0.53408 0.1055 0.0
H3412 H 0.34147 0.62261 0.1185 0.0
C3413 C 0.31517 0.58824 0.14356 0.0
C3414 C 0.29309 0.54561 0.12676 0.0
C3415 C 0.31959 0.58284 0.1508 0.0
C3416 C 0.30523 0.5673 0.09651 0.0
C3417 C 0.30582 0.56038 0.10377 0.0
C3418 C 0.32741 0.60129 0.12074 0.0
C3419 C 0.31619 0.56065 0.13879 0.0
C3420 C 0.31318 0.56697 0.13107 0.0
C3421 C 0.3043 0.58722 0.10872 0.0
C3422 C 0.30711 0.58016 0.11642 0.0
H3423 H 0.32951 0.49607 0.15061 0.0
H3424 H 0.32204 0.5056 0.1379 0.0
H3425 H 0.34663 0.61131 0.13112 0.0
H3426 H 0.29879 0.65435 0.09727 0.0
H3427 H 0.29944 0.64225 0.10993 0.0
C3428 C 0.16961 0.57362 0.84577 0.0
C3429 C 0.16956 0.54078 0.84273 0.0
C3430 C 0.17344 0.57775 0.85305 0.0
C3431 C 0.20535 0.53643 0.86916 0.0
H3432 H 0.1465 0.60279 0.87842 0.0
C3433 C 0.20093 0.55648 0.89959 0.0
C3434 C 0.19826 0.59045 0.902 0.0
C3435 C 0.1986 0.54901 0.89238 0.0
C3436 C 0.16339 0.58446 0.8759 0.0
H3437 H 0.17409 0.48647 0.84494 0.0
H3438 H 0.18072 0.49379 0.85776 0.0
H3439 H 0.13944 0.59145 0.86583 0.0
H3440 H 0.19226 0.64332 0.89871 0.0
H3441 H 0.18854 0.63033 0.88612 0.0
H3442 H 0.22941 0.52964 0.87926 0.0
C3443 C 0.17788 0.51628 0.85445 0.0
C3444 C 0.15928 0.57789 0.8687 0.0
C3445 C 0.17393 0.5121 0.84713 0.0
C3446 C 0.19418 0.61687 0.89704 0.0
C3447 C 0.19184 0.60941 0.88982 0.0
C3448 C 0.20949 0.54303 0.87639 0.0
C3449 C 0.17733 0.54918 0.85748 0.0
C3450 C 0.18049 0.55416 0.86523 0.0
C3451 C 0.1935 0.57536 0.88743 0.0
C3452 C 0.18881 0.56744 0.87981 0.0
H3453 H 0.16656 0.59633 0.84254 0.0
H3454 H 0.17355 0.60345 0.85521 0.0
H3455 H 0.22222 0.5182 0.86661 0.0
H3456 H 0.20412 0.53551 0.90329 0.0
H3457 H 0.19976 0.52252 0.89069 0.0
C3458 C 0.2004 0.47957 0.64906 0.0
C3459 C 0.18374 0.45306 0.65273 0.0
C3460 C 0.20602 0.47704 0.64176 0.0
C3461 C 0.17289 0.43452 0.62588 0.0
H3462 H 0.2616 0.45473 0.61762 0.0
C3463 C 0.19232 0.43814 0.59583 0.0
C3464 C 0.22041 0.41965 0.59316 0.0
C3465 C 0.18942 0.44481 0.60305 0.0
C3466 C 0.23674 0.44896 0.61987 0.0
H3467 H 0.15986 0.40316 0.65162 0.0
H3468 H 0.16938 0.39896 0.63891 0.0
H3469 H 0.2531 0.46112 0.63042 0.0
H3470 H 0.26821 0.39486 0.59598 0.0
H3471 H 0.26303 0.40653 0.60867 0.0
H3472 H 0.15651 0.42199 0.6154 0.0
C3473 C 0.17803 0.42171 0.64167 0.0
C3474 C 0.2318 0.45289 0.62717 0.0
C3475 C 0.17271 0.42407 0.64895 0.0
C3476 C 0.24621 0.40906 0.59787 0.0
C3477 C 0.24334 0.41587 0.60513 0.0
C3478 C 0.17772 0.43088 0.6186 0.0
C3479 C 0.19472 0.44813 0.63799 0.0
C3480 C 0.19988 0.44543 0.63024 0.0
C3481 C 0.21457 0.43326 0.6078 0.0
C3482 C 0.20971 0.43792 0.61552 0.0
H3483 H 0.20933 0.50216 0.65183 0.0
H3484 H 0.21876 0.49787 0.63904 0.0
H3485 H 0.14794 0.42886 0.6281 0.0
H3486 H 0.17215 0.44703 0.59235 0.0
H3487 H 0.16725 0.45876 0.60494 0.0
loop_
_geom_bond_atom_site_label_1
_geom_bond_atom_site_label_2
_geom_bond_distance
_geom_bond_site_symmetry_2
_ccdc_geom_bond_type
Co0 O3 1.970 . S
Co0 N17 1.989 . S
Co0 O25 1.967 . S
Co0 O32 1.920 . S
Co1 O4 1.966 . S
Co1 N10 2.022 . S
Co1 N18 1.993 . S
Co1 O26 1.941 . S
C2 O3 1.258 . S
C2 O4 1.263 . S
O3 Co0 1.970 . S
O3 C2 1.258 . S
O4 Co1 1.966 . S
O4 C2 1.263 . S
C5 O6 1.235 . S
C5 O32 1.289 . S
O6 C5 1.235 . S
C7 C9 1.400 . S
C7 N10 1.351 . S
C7 C12 1.501 . S
C8 C9 1.387 . S
C8 N11 1.341 . S
C9 C7 1.400 . S
C9 C8 1.387 . S
N10 Co1 2.022 . S
N10 C7 1.351 . S
N10 N11 1.365 . S
N11 C8 1.341 . S
N11 N10 1.365 . S
N11 H31 0.862 . S
C12 C7 1.501 . S
C12 H13 0.961 . S
C12 H14 0.961 1_545 S
C12 H15 0.960 . S
H13 C12 0.961 . S
H14 C12 0.961 1_565 S
H15 C12 0.960 . S
C16 N17 1.342 . S
C16 C20 1.401 . S
C16 C21 1.499 . S
N17 Co0 1.989 . S
N17 C16 1.342 . S
N17 N18 1.388 . S
N18 Co1 1.993 . S
N18 N17 1.388 . S
N18 C19 1.346 . S
C19 N18 1.346 . S
C19 C20 1.396 . S
C19 C29 1.510 . S
C20 C16 1.401 . S
C20 C19 1.396 . S
C21 C16 1.499 . S
C21 H22 0.959 . S
C21 H23 0.960 . S
C21 H24 0.961 . S
H22 C21 0.959 . S
H23 C21 0.960 . S
H24 C21 0.961 . S
O25 Co0 1.967 . S
O25 C33 1.258 . S
O26 Co1 1.941 . S
O26 C33 1.266 . S
H27 C29 0.959 . S
H28 C29 0.961 . S
C29 C19 1.510 . S
C29 H27 0.959 . S
C29 H28 0.961 . S
C29 H30 0.960 . S
H30 C29 0.960 . S
H31 N11 0.862 . S
O32 Co0 1.920 . S
O32 C5 1.289 . S
C33 O25 1.258 . S
C33 O26 1.266 . S
Co34 O37 1.970 . S
Co34 N51 1.989 . S
Co34 O59 1.967 . S
Co34 O66 1.920 . S
Co35 O38 1.966 . S
Co35 N44 2.022 . S
Co35 N52 1.993 . S
Co35 O60 1.941 . S
C36 O37 1.258 . S
C36 O38 1.263 . S
O37 Co34 1.970 . S
O37 C36 1.258 . S
O38 Co35 1.966 . S
O38 C36 1.263 . S
C39 O40 1.235 . S
C39 O66 1.289 . S
O40 C39 1.235 . S
C41 C43 1.400 . S
C41 N44 1.351 . S
C41 C46 1.501 . S
C42 C43 1.387 . S
C42 N45 1.341 . S
C43 C41 1.400 . S
C43 C42 1.387 . S
N44 Co35 2.022 . S
N44 C41 1.351 . S
N44 N45 1.365 . S
N45 C42 1.341 . S
N45 N44 1.365 . S
N45 H65 0.862 . S
C46 C41 1.501 . S
C46 H47 0.961 . S
C46 H48 0.961 . S
C46 H49 0.960 . S
H47 C46 0.961 . S
H48 C46 0.961 . S
H49 C46 0.960 . S
C50 N51 1.342 . S
C50 C54 1.401 . S
C50 C55 1.499 . S
N51 Co34 1.989 . S
N51 C50 1.342 . S
N51 N52 1.388 . S
N52 Co35 1.993 . S
N52 N51 1.388 . S
N52 C53 1.346 . S
C53 N52 1.346 . S
C53 C54 1.396 . S
C53 C63 1.510 . S
C54 C50 1.401 . S
C54 C53 1.396 . S
C55 C50 1.499 . S
C55 H56 0.959 . S
C55 H57 0.960 . S
C55 H58 0.961 . S
H56 C55 0.959 . S
H57 C55 0.960 . S
H58 C55 0.961 . S
O59 Co34 1.967 . S
O59 C67 1.258 . S
O60 Co35 1.941 . S
O60 C67 1.266 . S
H61 C63 0.959 . S
H62 C63 0.961 . S
C63 C53 1.510 . S
C63 H61 0.959 . S
C63 H62 0.961 . S
C63 H64 0.960 . S
H64 C63 0.960 . S
H65 N45 0.862 . S
O66 Co34 1.920 . S
O66 C39 1.289 . S
C67 O59 1.258 . S
C67 O60 1.266 . S
Co68 O71 1.970 . S
Co68 N85 1.989 . S
Co68 O93 1.967 . S
Co68 O100 1.920 . S
Co69 O72 1.966 . S
Co69 N78 2.022 . S
Co69 N86 1.993 . S
Co69 O94 1.941 . S
C70 O71 1.258 . S
C70 O72 1.263 . S
O71 Co68 1.970 . S
O71 C70 1.258 . S
O72 Co69 1.966 . S
O72 C70 1.263 . S
C73 O74 1.235 . S
C73 O100 1.289 . S
O74 C73 1.235 . S
C75 C77 1.400 . S
C75 N78 1.351 . S
C75 C80 1.501 . S
C76 C77 1.387 . S
C76 N79 1.341 . S
C77 C75 1.400 . S
C77 C76 1.387 . S
N78 Co69 2.022 . S
N78 C75 1.351 . S
N78 N79 1.365 . S
N79 C76 1.341 . S
N79 N78 1.365 . S
N79 H99 0.862 . S
C80 C75 1.501 . S
C80 H81 0.961 . S
C80 H82 0.961 1_565 S
C80 H83 0.960 . S
H81 C80 0.961 . S
H82 C80 0.961 1_545 S
H83 C80 0.960 . S
C84 N85 1.342 . S
C84 C88 1.401 . S
C84 C89 1.499 . S
N85 Co68 1.989 . S
N85 C84 1.342 . S
N85 N86 1.388 . S
N86 Co69 1.993 . S
N86 N85 1.388 . S
N86 C87 1.346 . S
C87 N86 1.346 . S
C87 C88 1.396 . S
C87 C97 1.510 . S
C88 C84 1.401 . S
C88 C87 1.396 . S
C89 C84 1.499 . S
C89 H90 0.959 . S
C89 H91 0.960 . S
C89 H92 0.961 . S
H90 C89 0.959 . S
H91 C89 0.960 . S
H92 C89 0.961 . S
O93 Co68 1.967 . S
O93 C101 1.258 . S
O94 Co69 1.941 . S
O94 C101 1.266 . S
H95 C97 0.959 . S
H96 C97 0.961 . S
C97 C87 1.510 . S
C97 H95 0.959 . S
C97 H96 0.961 . S
C97 H98 0.960 . S
H98 C97 0.960 . S
H99 N79 0.862 . S
O100 Co68 1.920 . S
O100 C73 1.289 . S
C101 O93 1.258 . S
C101 O94 1.266 . S
Co102 O105 1.970 . S
Co102 N119 1.989 . S
Co102 O127 1.967 . S
Co102 O134 1.920 . S
Co103 O106 1.966 . S
Co103 N112 2.022 . S
Co103 N120 1.993 . S
Co103 O128 1.941 . S
C104 O105 1.258 . S
C104 O106 1.263 . S
O105 Co102 1.970 . S
O105 C104 1.258 . S
O106 Co103 1.966 . S
O106 C104 1.263 . S
C107 O108 1.235 . S
C107 O134 1.289 . S
O108 C107 1.235 . S
C109 C111 1.400 . S
C109 N112 1.351 . S
C109 C114 1.501 . S
C110 C111 1.387 . S
C110 N113 1.341 . S
C111 C109 1.400 . S
C111 C110 1.387 . S
N112 Co103 2.022 . S
N112 C109 1.351 . S
N112 N113 1.365 . S
N113 C110 1.341 . S
N113 N112 1.365 . S
N113 H133 0.862 . S
C114 C109 1.501 . S
C114 H115 0.961 . S
C114 H116 0.961 . S
C114 H117 0.960 . S
H115 C114 0.961 . S
H116 C114 0.961 . S
H117 C114 0.960 . S
C118 N119 1.342 . S
C118 C122 1.401 . S
C118 C123 1.499 . S
N119 Co102 1.989 . S
N119 C118 1.342 . S
N119 N120 1.388 . S
N120 Co103 1.993 . S
N120 N119 1.388 . S
N120 C121 1.346 . S
C121 N120 1.346 . S
C121 C122 1.396 . S
C121 C131 1.510 . S
C122 C118 1.401 . S
C122 C121 1.396 . S
C123 C118 1.499 . S
C123 H124 0.959 . S
C123 H125 0.960 . S
C123 H126 0.961 . S
H124 C123 0.959 . S
H125 C123 0.960 . S
H126 C123 0.961 . S
O127 Co102 1.967 . S
O127 C135 1.258 . S
O128 Co103 1.941 . S
O128 C135 1.266 . S
H129 C131 0.959 . S
H130 C131 0.961 . S
C131 C121 1.510 . S
C131 H129 0.959 . S
C131 H130 0.961 . S
C131 H132 0.960 . S
H132 C131 0.960 . S
H133 N113 0.862 . S
O134 Co102 1.920 . S
O134 C107 1.289 . S
C135 O127 1.258 . S
C135 O128 1.266 . S
Co136 O139 1.970 . S
Co136 N153 1.989 . S
Co136 O161 1.967 . S
Co136 O168 1.920 . S
Co137 O140 1.966 . S
Co137 N146 2.022 . S
Co137 N154 1.993 . S
Co137 O162 1.941 . S
C138 O139 1.258 . S
C138 O140 1.263 . S
O139 Co136 1.970 . S
O139 C138 1.258 . S
O140 Co137 1.966 . S
O140 C138 1.263 . S
C141 O142 1.235 . S
C141 O168 1.289 . S
O142 C141 1.235 . S
C143 C145 1.400 . S
C143 N146 1.351 . S
C143 C148 1.501 . S
C144 C145 1.387 . S
C144 N147 1.341 . S
C145 C143 1.400 . S
C145 C144 1.387 . S
N146 Co137 2.022 . S
N146 C143 1.351 . S
N146 N147 1.365 . S
N147 C144 1.341 . S
N147 N146 1.365 . S
N147 H167 0.862 . S
C148 C143 1.501 . S
C148 H149 0.961 . S
C148 H150 0.961 1_565 S
C148 H151 0.960 . S
H149 C148 0.961 . S
H150 C148 0.961 1_545 S
H151 C148 0.960 . S
C152 N153 1.342 . S
C152 C156 1.401 . S
C152 C157 1.499 . S
N153 Co136 1.989 . S
N153 C152 1.342 . S
N153 N154 1.388 . S
N154 Co137 1.993 . S
N154 N153 1.388 . S
N154 C155 1.346 . S
C155 N154 1.346 . S
C155 C156 1.396 . S
C155 C165 1.510 . S
C156 C152 1.401 . S
C156 C155 1.396 . S
C157 C152 1.499 . S
C157 H158 0.959 . S
C157 H159 0.960 . S
C157 H160 0.961 . S
H158 C157 0.959 . S
H159 C157 0.960 . S
H160 C157 0.961 . S
O161 Co136 1.967 . S
O161 C169 1.258 . S
O162 Co137 1.941 . S
O162 C169 1.266 . S
H163 C165 0.959 . S
H164 C165 0.961 . S
C165 C155 1.510 . S
C165 H163 0.959 . S
C165 H164 0.961 . S
C165 H166 0.960 . S
H166 C165 0.960 . S
H167 N147 0.862 . S
O168 Co136 1.920 . S
O168 C141 1.289 . S
C169 O161 1.258 . S
C169 O162 1.266 . S
Co170 O173 1.970 . S
Co170 N187 1.989 . S
Co170 O195 1.967 . S
Co170 O202 1.920 . S
Co171 O174 1.966 . S
Co171 N180 2.022 . S
Co171 N188 1.993 . S
Co171 O196 1.941 . S
C172 O173 1.258 . S
C172 O174 1.263 . S
O173 Co170 1.970 . S
O173 C172 1.258 . S
O174 Co171 1.966 . S
O174 C172 1.263 . S
C175 O176 1.235 . S
C175 O202 1.289 . S
O176 C175 1.235 . S
C177 C179 1.400 . S
C177 N180 1.351 . S
C177 C182 1.501 . S
C178 C179 1.387 . S
C178 N181 1.341 . S
C179 C177 1.400 . S
C179 C178 1.387 . S
N180 Co171 2.022 . S
N180 C177 1.351 . S
N180 N181 1.365 . S
N181 C178 1.341 . S
N181 N180 1.365 . S
N181 H201 0.862 . S
C182 C177 1.501 . S
C182 H183 0.961 . S
C182 H184 0.961 . S
C182 H185 0.960 . S
H183 C182 0.961 . S
H184 C182 0.961 . S
H185 C182 0.960 . S
C186 N187 1.342 . S
C186 C190 1.401 . S
C186 C191 1.499 . S
N187 Co170 1.989 . S
N187 C186 1.342 . S
N187 N188 1.388 . S
N188 Co171 1.993 . S
N188 N187 1.388 . S
N188 C189 1.346 . S
C189 N188 1.346 . S
C189 C190 1.396 . S
C189 C199 1.510 . S
C190 C186 1.401 . S
C190 C189 1.396 . S
C191 C186 1.499 . S
C191 H192 0.959 . S
C191 H193 0.960 . S
C191 H194 0.961 . S
H192 C191 0.959 . S
H193 C191 0.960 . S
H194 C191 0.961 . S
O195 Co170 1.967 . S
O195 C203 1.258 . S
O196 Co171 1.941 . S
O196 C203 1.266 . S
H197 C199 0.959 . S
H198 C199 0.961 . S
C199 C189 1.510 . S
C199 H197 0.959 . S
C199 H198 0.961 . S
C199 H200 0.960 . S
H200 C199 0.960 . S
H201 N181 0.862 . S
O202 Co170 1.920 . S
O202 C175 1.289 . S
C203 O195 1.258 . S
C203 O196 1.266 . S
Co204 O207 1.970 . S
Co204 N221 1.989 . S
Co204 O229 1.967 . S
Co204 O236 1.920 . S
Co205 O208 1.966 . S
Co205 N214 2.022 . S
Co205 N222 1.993 . S
Co205 O230 1.941 . S
C206 O207 1.258 . S
C206 O208 1.263 . S
O207 Co204 1.970 . S
O207 C206 1.258 . S
O208 Co205 1.966 . S
O208 C206 1.263 . S
C209 O210 1.235 . S
C209 O236 1.289 . S
O210 C209 1.235 . S
C211 C213 1.400 . S
C211 N214 1.351 . S
C211 C216 1.501 . S
C212 C213 1.387 . S
C212 N215 1.341 . S
C213 C211 1.400 . S
C213 C212 1.387 . S
N214 Co205 2.022 . S
N214 C211 1.351 . S
N214 N215 1.365 . S
N215 C212 1.341 . S
N215 N214 1.365 . S
N215 H235 0.862 . S
C216 C211 1.501 . S
C216 H217 0.961 . S
C216 H218 0.961 1_545 S
C216 H219 0.960 . S
H217 C216 0.961 . S
H218 C216 0.961 1_565 S
H219 C216 0.960 . S
C220 N221 1.342 . S
C220 C224 1.401 . S
C220 C225 1.499 . S
N221 Co204 1.989 . S
N221 C220 1.342 . S
N221 N222 1.388 . S
N222 Co205 1.993 . S
N222 N221 1.388 . S
N222 C223 1.346 . S
C223 N222 1.346 . S
C223 C224 1.396 . S
C223 C233 1.510 . S
C224 C220 1.401 . S
C224 C223 1.396 . S
C225 C220 1.499 . S
C225 H226 0.959 . S
C225 H227 0.960 . S
C225 H228 0.961 . S
H226 C225 0.959 . S
H227 C225 0.960 . S
H228 C225 0.961 . S
O229 Co204 1.967 . S
O229 C237 1.258 . S
O230 Co205 1.941 . S
O230 C237 1.266 . S
H231 C233 0.959 . S
H232 C233 0.961 . S
C233 C223 1.510 . S
C233 H231 0.959 . S
C233 H232 0.961 . S
C233 H234 0.960 . S
H234 C233 0.960 . S
H235 N215 0.862 . S
O236 Co204 1.920 . S
O236 C209 1.289 . S
C237 O229 1.258 . S
C237 O230 1.266 . S
Co238 O241 1.970 . S
Co238 N255 1.989 . S
Co238 O263 1.967 . S
Co238 O270 1.920 . S
Co239 O242 1.966 . S
Co239 N248 2.022 . S
Co239 N256 1.993 . S
Co239 O264 1.941 . S
C240 O241 1.258 . S
C240 O242 1.263 . S
O241 Co238 1.970 . S
O241 C240 1.258 . S
O242 Co239 1.966 . S
O242 C240 1.263 . S
C243 O244 1.235 . S
C243 O270 1.289 . S
O244 C243 1.235 . S
C245 C247 1.400 . S
C245 N248 1.351 . S
C245 C250 1.501 . S
C246 C247 1.387 . S
C246 N249 1.341 . S
C247 C245 1.400 . S
C247 C246 1.387 . S
N248 Co239 2.022 . S
N248 C245 1.351 . S
N248 N249 1.365 . S
N249 C246 1.341 . S
N249 N248 1.365 . S
N249 H269 0.862 . S
C250 C245 1.501 . S
C250 H251 0.961 . S
C250 H252 0.961 . S
C250 H253 0.960 . S
H251 C250 0.961 . S
H252 C250 0.961 . S
H253 C250 0.960 . S
C254 N255 1.342 . S
C254 C258 1.401 . S
C254 C259 1.499 . S
N255 Co238 1.989 . S
N255 C254 1.342 . S
N255 N256 1.388 . S
N256 Co239 1.993 . S
N256 N255 1.388 . S
N256 C257 1.346 . S
C257 N256 1.346 . S
C257 C258 1.396 . S
C257 C267 1.510 . S
C258 C254 1.401 . S
C258 C257 1.396 . S
C259 C254 1.499 . S
C259 H260 0.959 . S
C259 H261 0.960 . S
C259 H262 0.961 . S
H260 C259 0.959 . S
H261 C259 0.960 . S
H262 C259 0.961 . S
O263 Co238 1.967 . S
O263 C271 1.258 . S
O264 Co239 1.941 . S
O264 C271 1.266 . S
H265 C267 0.959 . S
H266 C267 0.961 . S
C267 C257 1.510 . S
C267 H265 0.959 . S
C267 H266 0.961 . S
C267 H268 0.960 . S
H268 C267 0.960 . S
H269 N249 0.862 . S
O270 Co238 1.920 . S
O270 C243 1.289 . S
C271 O263 1.258 . S
C271 O264 1.266 . S
Co272 O275 1.970 . S
Co272 N289 1.989 . S
Co272 O297 1.967 . S
Co272 O304 1.920 . S
Co273 O276 1.966 . S
Co273 N282 2.022 . S
Co273 N290 1.993 . S
Co273 O298 1.941 . S
C274 O275 1.258 . S
C274 O276 1.263 . S
O275 Co272 1.970 . S
O275 C274 1.258 . S
O276 Co273 1.966 . S
O276 C274 1.263 . S
C277 O278 1.235 . S
C277 O304 1.289 . S
O278 C277 1.235 . S
C279 C281 1.400 . S
C279 N282 1.351 . S
C279 C284 1.501 . S
C280 C281 1.387 . S
C280 N283 1.341 . S
C281 C279 1.400 . S
C281 C280 1.387 . S
N282 Co273 2.022 . S
N282 C279 1.351 . S
N282 N283 1.365 . S
N283 C280 1.341 . S
N283 N282 1.365 . S
N283 H303 0.862 . S
C284 C279 1.501 . S
C284 H285 0.961 . S
C284 H286 0.961 1_565 S
C284 H287 0.960 . S
H285 C284 0.961 . S
H286 C284 0.961 1_545 S
H287 C284 0.960 . S
C288 N289 1.342 . S
C288 C292 1.401 . S
C288 C293 1.499 . S
N289 Co272 1.989 . S
N289 C288 1.342 . S
N289 N290 1.388 . S
N290 Co273 1.993 . S
N290 N289 1.388 . S
N290 C291 1.346 . S
C291 N290 1.346 . S
C291 C292 1.396 . S
C291 C301 1.510 . S
C292 C288 1.401 . S
C292 C291 1.396 . S
C293 C288 1.499 . S
C293 H294 0.959 . S
C293 H295 0.960 . S
C293 H296 0.961 . S
H294 C293 0.959 . S
H295 C293 0.960 . S
H296 C293 0.961 . S
O297 Co272 1.967 . S
O297 C305 1.258 . S
O298 Co273 1.941 . S
O298 C305 1.266 . S
H299 C301 0.959 . S
H300 C301 0.961 . S
C301 C291 1.510 . S
C301 H299 0.959 . S
C301 H300 0.961 . S
C301 H302 0.960 . S
H302 C301 0.960 . S
H303 N283 0.862 . S
O304 Co272 1.920 . S
O304 C277 1.289 . S
C305 O297 1.258 . S
C305 O298 1.266 . S
Co306 O309 1.970 . S
Co306 N323 1.989 . S
Co306 O331 1.967 . S
Co306 O338 1.920 . S
Co307 O310 1.966 . S
Co307 N316 2.022 . S
Co307 N324 1.993 . S
Co307 O332 1.941 . S
C308 O309 1.258 . S
C308 O310 1.263 . S
O309 Co306 1.970 . S
O309 C308 1.258 . S
O310 Co307 1.966 . S
O310 C308 1.263 . S
C311 O312 1.235 . S
C311 O338 1.289 . S
O312 C311 1.235 . S
C313 C315 1.400 . S
C313 N316 1.351 . S
C313 C318 1.501 . S
C314 C315 1.387 . S
C314 N317 1.341 . S
C315 C313 1.400 . S
C315 C314 1.387 . S
N316 Co307 2.022 . S
N316 C313 1.351 . S
N316 N317 1.365 . S
N317 C314 1.341 . S
N317 N316 1.365 . S
N317 H337 0.862 . S
C318 C313 1.501 . S
C318 H319 0.961 . S
C318 H320 0.961 . S
C318 H321 0.960 . S
H319 C318 0.961 . S
H320 C318 0.961 . S
H321 C318 0.960 . S
C322 N323 1.342 . S
C322 C326 1.401 . S
C322 C327 1.499 . S
N323 Co306 1.989 . S
N323 C322 1.342 . S
N323 N324 1.388 . S
N324 Co307 1.993 . S
N324 N323 1.388 . S
N324 C325 1.346 . S
C325 N324 1.346 . S
C325 C326 1.396 . S
C325 C335 1.510 . S
C326 C322 1.401 . S
C326 C325 1.396 . S
C327 C322 1.499 . S
C327 H328 0.959 . S
C327 H329 0.960 . S
C327 H330 0.961 . S
H328 C327 0.959 . S
H329 C327 0.960 . S
H330 C327 0.961 . S
O331 Co306 1.967 . S
O331 C339 1.258 . S
O332 Co307 1.941 . S
O332 C339 1.266 . S
H333 C335 0.959 . S
H334 C335 0.961 . S
C335 C325 1.510 . S
C335 H333 0.959 . S
C335 H334 0.961 . S
C335 H336 0.960 . S
H336 C335 0.960 . S
H337 N317 0.862 . S
O338 Co306 1.920 . S
O338 C311 1.289 . S
C339 O331 1.258 . S
C339 O332 1.266 . S
Co340 O343 1.970 . S
Co340 N357 1.989 . S
Co340 O365 1.967 . S
Co340 O372 1.920 . S
Co341 O344 1.966 . S
Co341 N350 2.022 . S
Co341 N358 1.993 . S
Co341 O366 1.941 . S
C342 O343 1.258 . S
C342 O344 1.263 . S
O343 Co340 1.970 . S
O343 C342 1.258 . S
O344 Co341 1.966 . S
O344 C342 1.263 . S
C345 O346 1.235 . S
C345 O372 1.289 . S
O346 C345 1.235 . S
C347 C349 1.400 . S
C347 N350 1.351 . S
C347 C352 1.501 . S
C348 C349 1.387 . S
C348 N351 1.341 . S
C349 C347 1.400 . S
C349 C348 1.387 . S
N350 Co341 2.022 . S
N350 C347 1.351 . S
N350 N351 1.365 . S
N351 C348 1.341 . S
N351 N350 1.365 . S
N351 H371 0.862 . S
C352 C347 1.501 . S
C352 H353 0.961 . S
C352 H354 0.961 1_545 S
C352 H355 0.960 . S
H353 C352 0.961 . S
H354 C352 0.961 1_565 S
H355 C352 0.960 . S
C356 N357 1.342 . S
C356 C360 1.401 . S
C356 C361 1.499 . S
N357 Co340 1.989 . S
N357 C356 1.342 . S
N357 N358 1.388 . S
N358 Co341 1.993 . S
N358 N357 1.388 . S
N358 C359 1.346 . S
C359 N358 1.346 . S
C359 C360 1.396 . S
C359 C369 1.510 . S
C360 C356 1.401 . S
C360 C359 1.396 . S
C361 C356 1.499 . S
C361 H362 0.959 . S
C361 H363 0.960 . S
C361 H364 0.961 . S
H362 C361 0.959 . S
H363 C361 0.960 . S
H364 C361 0.961 . S
O365 Co340 1.967 . S
O365 C373 1.258 . S
O366 Co341 1.941 . S
O366 C373 1.266 . S
H367 C369 0.959 . S
H368 C369 0.961 . S
C369 C359 1.510 . S
C369 H367 0.959 . S
C369 H368 0.961 . S
C369 H370 0.960 . S
H370 C369 0.960 . S
H371 N351 0.862 . S
O372 Co340 1.920 . S
O372 C345 1.289 . S
C373 O365 1.258 . S
C373 O366 1.266 . S
Co374 O377 1.970 . S
Co374 N391 1.989 . S
Co374 O399 1.967 . S
Co374 O406 1.920 . S
Co375 O378 1.966 . S
Co375 N384 2.022 . S
Co375 N392 1.993 . S
Co375 O400 1.941 . S
C376 O377 1.258 . S
C376 O378 1.263 . S
O377 Co374 1.970 . S
O377 C376 1.258 . S
O378 Co375 1.966 . S
O378 C376 1.263 . S
C379 O380 1.235 . S
C379 O406 1.289 . S
O380 C379 1.235 . S
C381 C383 1.400 . S
C381 N384 1.351 . S
C381 C386 1.501 . S
C382 C383 1.387 . S
C382 N385 1.341 . S
C383 C381 1.400 . S
C383 C382 1.387 . S
N384 Co375 2.022 . S
N384 C381 1.351 . S
N384 N385 1.365 . S
N385 C382 1.341 . S
N385 N384 1.365 . S
N385 H405 0.862 . S
C386 C381 1.501 . S
C386 H387 0.961 . S
C386 H388 0.961 . S
C386 H389 0.960 . S
H387 C386 0.961 . S
H388 C386 0.961 . S
H389 C386 0.960 . S
C390 N391 1.342 . S
C390 C394 1.401 . S
C390 C395 1.499 . S
N391 Co374 1.989 . S
N391 C390 1.342 . S
N391 N392 1.388 . S
N392 Co375 1.993 . S
N392 N391 1.388 . S
N392 C393 1.346 . S
C393 N392 1.346 . S
C393 C394 1.396 . S
C393 C403 1.510 . S
C394 C390 1.401 . S
C394 C393 1.396 . S
C395 C390 1.499 . S
C395 H396 0.959 . S
C395 H397 0.960 . S
C395 H398 0.961 . S
H396 C395 0.959 . S
H397 C395 0.960 . S
H398 C395 0.961 . S
O399 Co374 1.967 . S
O399 C407 1.258 . S
O400 Co375 1.941 . S
O400 C407 1.266 . S
H401 C403 0.959 . S
H402 C403 0.961 . S
C403 C393 1.510 . S
C403 H401 0.959 . S
C403 H402 0.961 . S
C403 H404 0.960 . S
H404 C403 0.960 . S
H405 N385 0.862 . S
O406 Co374 1.920 . S
O406 C379 1.289 . S
C407 O399 1.258 . S
C407 O400 1.266 . S
Co408 O411 1.970 . S
Co408 N425 1.989 . S
Co408 O433 1.967 . S
Co408 O440 1.920 . S
Co409 O412 1.966 . S
Co409 N418 2.022 . S
Co409 N426 1.993 . S
Co409 O434 1.941 . S
C410 O411 1.258 . S
C410 O412 1.263 . S
O411 Co408 1.970 . S
O411 C410 1.258 . S
O412 Co409 1.966 . S
O412 C410 1.263 . S
C413 O414 1.235 . S
C413 O440 1.289 . S
O414 C413 1.235 . S
C415 C417 1.400 . S
C415 N418 1.351 . S
C415 C420 1.501 . S
C416 C417 1.387 . S
C416 N419 1.341 . S
C417 C415 1.400 . S
C417 C416 1.387 . S
N418 Co409 2.022 . S
N418 C415 1.351 . S
N418 N419 1.365 . S
N419 C416 1.341 . S
N419 N418 1.365 . S
N419 H439 0.862 . S
C420 C415 1.501 . S
C420 H421 0.961 . S
C420 H422 0.961 1_545 S
C420 H423 0.960 . S
H421 C420 0.961 . S
H422 C420 0.961 1_565 S
H423 C420 0.960 . S
C424 N425 1.342 . S
C424 C428 1.401 . S
C424 C429 1.499 . S
N425 Co408 1.989 . S
N425 C424 1.342 . S
N425 N426 1.388 . S
N426 Co409 1.993 . S
N426 N425 1.388 . S
N426 C427 1.346 . S
C427 N426 1.346 . S
C427 C428 1.396 . S
C427 C437 1.510 . S
C428 C424 1.401 . S
C428 C427 1.396 . S
C429 C424 1.499 . S
C429 H430 0.959 . S
C429 H431 0.960 . S
C429 H432 0.961 . S
H430 C429 0.959 . S
H431 C429 0.960 . S
H432 C429 0.961 . S
O433 Co408 1.967 . S
O433 C441 1.258 . S
O434 Co409 1.941 . S
O434 C441 1.266 . S
H435 C437 0.959 . S
H436 C437 0.961 . S
C437 C427 1.510 . S
C437 H435 0.959 . S
C437 H436 0.961 . S
C437 H438 0.960 . S
H438 C437 0.960 . S
H439 N419 0.862 . S
O440 Co408 1.920 . S
O440 C413 1.289 . S
C441 O433 1.258 . S
C441 O434 1.266 . S
Co442 O445 1.970 . S
Co442 N459 1.989 . S
Co442 O467 1.967 . S
Co442 O474 1.920 . S
Co443 O446 1.966 . S
Co443 N452 2.022 . S
Co443 N460 1.993 . S
Co443 O468 1.941 . S
C444 O445 1.258 . S
C444 O446 1.263 . S
O445 Co442 1.970 . S
O445 C444 1.258 . S
O446 Co443 1.966 . S
O446 C444 1.263 . S
C447 O448 1.235 . S
C447 O474 1.289 . S
O448 C447 1.235 . S
C449 C451 1.400 . S
C449 N452 1.351 . S
C449 C454 1.501 . S
C450 C451 1.387 . S
C450 N453 1.341 . S
C451 C449 1.400 . S
C451 C450 1.387 . S
N452 Co443 2.022 . S
N452 C449 1.351 . S
N452 N453 1.365 . S
N453 C450 1.341 . S
N453 N452 1.365 . S
N453 H473 0.862 . S
C454 C449 1.501 . S
C454 H455 0.961 . S
C454 H456 0.961 . S
C454 H457 0.960 . S
H455 C454 0.961 . S
H456 C454 0.961 . S
H457 C454 0.960 . S
C458 N459 1.342 . S
C458 C462 1.401 . S
C458 C463 1.499 . S
N459 Co442 1.989 . S
N459 C458 1.342 . S
N459 N460 1.388 . S
N460 Co443 1.993 . S
N460 N459 1.388 . S
N460 C461 1.346 . S
C461 N460 1.346 . S
C461 C462 1.396 . S
C461 C471 1.510 . S
C462 C458 1.401 . S
C462 C461 1.396 . S
C463 C458 1.499 . S
C463 H464 0.959 . S
C463 H465 0.960 . S
C463 H466 0.961 . S
H464 C463 0.959 . S
H465 C463 0.960 . S
H466 C463 0.961 . S
O467 Co442 1.967 . S
O467 C475 1.258 . S
O468 Co443 1.941 . S
O468 C475 1.266 . S
H469 C471 0.959 . S
H470 C471 0.961 . S
C471 C461 1.510 . S
C471 H469 0.959 . S
C471 H470 0.961 . S
C471 H472 0.960 . S
H472 C471 0.960 . S
H473 N453 0.862 . S
O474 Co442 1.920 . S
O474 C447 1.289 . S
C475 O467 1.258 . S
C475 O468 1.266 . S
Co476 O479 1.970 . S
Co476 N493 1.989 . S
Co476 O501 1.967 . S
Co476 O508 1.920 . S
Co477 O480 1.966 . S
Co477 N486 2.022 . S
Co477 N494 1.993 . S
Co477 O502 1.941 . S
C478 O479 1.258 . S
C478 O480 1.263 . S
O479 Co476 1.970 . S
O479 C478 1.258 . S
O480 Co477 1.966 . S
O480 C478 1.263 . S
C481 O482 1.235 . S
C481 O508 1.289 . S
O482 C481 1.235 . S
C483 C485 1.400 . S
C483 N486 1.351 . S
C483 C488 1.501 . S
C484 C485 1.387 . S
C484 N487 1.341 . S
C485 C483 1.400 . S
C485 C484 1.387 . S
N486 Co477 2.022 . S
N486 C483 1.351 . S
N486 N487 1.365 . S
N487 C484 1.341 . S
N487 N486 1.365 . S
N487 H507 0.862 . S
C488 C483 1.501 . S
C488 H489 0.961 . S
C488 H490 0.961 1_565 S
C488 H491 0.960 . S
H489 C488 0.961 . S
H490 C488 0.961 1_545 S
H491 C488 0.960 . S
C492 N493 1.342 . S
C492 C496 1.401 . S
C492 C497 1.499 . S
N493 Co476 1.989 . S
N493 C492 1.342 . S
N493 N494 1.388 . S
N494 Co477 1.993 . S
N494 N493 1.388 . S
N494 C495 1.346 . S
C495 N494 1.346 . S
C495 C496 1.396 . S
C495 C505 1.510 . S
C496 C492 1.401 . S
C496 C495 1.396 . S
C497 C492 1.499 . S
C497 H498 0.959 . S
C497 H499 0.960 . S
C497 H500 0.961 . S
H498 C497 0.959 . S
H499 C497 0.960 . S
H500 C497 0.961 . S
O501 Co476 1.967 . S
O501 C509 1.258 . S
O502 Co477 1.941 . S
O502 C509 1.266 . S
H503 C505 0.959 . S
H504 C505 0.961 . S
C505 C495 1.510 . S
C505 H503 0.959 . S
C505 H504 0.961 . S
C505 H506 0.960 . S
H506 C505 0.960 . S
H507 N487 0.862 . S
O508 Co476 1.920 . S
O508 C481 1.289 . S
C509 O501 1.258 . S
C509 O502 1.266 . S
Co510 O513 1.970 . S
Co510 N527 1.989 . S
Co510 O535 1.967 . S
Co510 O542 1.920 . S
Co511 O514 1.966 . S
Co511 N520 2.022 . S
Co511 N528 1.993 . S
Co511 O536 1.941 . S
C512 O513 1.258 . S
C512 O514 1.263 . S
O513 Co510 1.970 . S
O513 C512 1.258 . S
O514 Co511 1.966 . S
O514 C512 1.263 . S
C515 O516 1.235 . S
C515 O542 1.289 . S
O516 C515 1.235 . S
C517 C519 1.400 . S
C517 N520 1.351 . S
C517 C522 1.501 . S
C518 C519 1.387 . S
C518 N521 1.341 . S
C519 C517 1.400 . S
C519 C518 1.387 . S
N520 Co511 2.022 . S
N520 C517 1.351 . S
N520 N521 1.365 . S
N521 C518 1.341 . S
N521 N520 1.365 . S
N521 H541 0.862 . S
C522 C517 1.501 . S
C522 H523 0.961 . S
C522 H524 0.961 . S
C522 H525 0.960 . S
H523 C522 0.961 . S
H524 C522 0.961 . S
H525 C522 0.960 . S
C526 N527 1.342 . S
C526 C530 1.401 . S
C526 C531 1.499 . S
N527 Co510 1.989 . S
N527 C526 1.342 . S
N527 N528 1.388 . S
N528 Co511 1.993 . S
N528 N527 1.388 . S
N528 C529 1.346 . S
C529 N528 1.346 . S
C529 C530 1.396 . S
C529 C539 1.510 . S
C530 C526 1.401 . S
C530 C529 1.396 . S
C531 C526 1.499 . S
C531 H532 0.959 . S
C531 H533 0.960 . S
C531 H534 0.961 . S
H532 C531 0.959 . S
H533 C531 0.960 . S
H534 C531 0.961 . S
O535 Co510 1.967 . S
O535 C543 1.258 . S
O536 Co511 1.941 . S
O536 C543 1.266 . S
H537 C539 0.959 . S
H538 C539 0.961 . S
C539 C529 1.510 . S
C539 H537 0.959 . S
C539 H538 0.961 . S
C539 H540 0.960 . S
H540 C539 0.960 . S
H541 N521 0.862 . S
O542 Co510 1.920 . S
O542 C515 1.289 . S
C543 O535 1.258 . S
C543 O536 1.266 . S
Co544 O547 1.970 . S
Co544 N561 1.989 . S
Co544 O569 1.967 . S
Co544 O576 1.920 . S
Co545 O548 1.966 . S
Co545 N554 2.022 . S
Co545 N562 1.993 . S
Co545 O570 1.941 . S
C546 O547 1.258 . S
C546 O548 1.263 . S
O547 Co544 1.970 . S
O547 C546 1.258 . S
O548 Co545 1.966 . S
O548 C546 1.263 . S
C549 O550 1.235 . S
C549 O576 1.289 . S
O550 C549 1.235 . S
C551 C553 1.400 . S
C551 N554 1.351 . S
C551 C556 1.501 . S
C552 C553 1.387 . S
C552 N555 1.341 . S
C553 C551 1.400 . S
C553 C552 1.387 . S
N554 Co545 2.022 . S
N554 C551 1.351 . S
N554 N555 1.365 . S
N555 C552 1.341 . S
N555 N554 1.365 . S
N555 H575 0.862 . S
C556 C551 1.501 . S
C556 H557 0.961 . S
C556 H558 0.961 . S
C556 H559 0.960 . S
H557 C556 0.961 . S
H558 C556 0.961 . S
H559 C556 0.960 . S
C560 N561 1.342 . S
C560 C564 1.401 . S
C560 C565 1.499 . S
N561 Co544 1.989 . S
N561 C560 1.342 . S
N561 N562 1.388 . S
N562 Co545 1.993 . S
N562 N561 1.388 . S
N562 C563 1.346 . S
C563 N562 1.346 . S
C563 C564 1.396 . S
C563 C573 1.510 . S
C564 C560 1.401 . S
C564 C563 1.396 . S
C565 C560 1.499 . S
C565 H566 0.959 . S
C565 H567 0.960 . S
C565 H568 0.961 . S
H566 C565 0.959 . S
H567 C565 0.960 . S
H568 C565 0.961 . S
O569 Co544 1.967 . S
O569 C577 1.258 . S
O570 Co545 1.941 . S
O570 C577 1.266 . S
H571 C573 0.959 . S
H572 C573 0.961 . S
C573 C563 1.510 . S
C573 H571 0.959 . S
C573 H572 0.961 . S
C573 H574 0.960 . S
H574 C573 0.960 . S
H575 N555 0.862 . S
O576 Co544 1.920 . S
O576 C549 1.289 . S
C577 O569 1.258 . S
C577 O570 1.266 . S
Co578 O581 1.970 . S
Co578 N595 1.989 . S
Co578 O603 1.967 . S
Co578 O610 1.920 . S
Co579 O582 1.966 . S
Co579 N588 2.022 . S
Co579 N596 1.993 . S
Co579 O604 1.941 . S
C580 O581 1.258 . S
C580 O582 1.263 . S
O581 Co578 1.970 . S
O581 C580 1.258 . S
O582 Co579 1.966 . S
O582 C580 1.263 . S
C583 O584 1.235 . S
C583 O610 1.289 . S
O584 C583 1.235 . S
C585 C587 1.400 . S
C585 N588 1.351 . S
C585 C590 1.501 . S
C586 C587 1.387 . S
C586 N589 1.341 . S
C587 C585 1.400 . S
C587 C586 1.387 . S
N588 Co579 2.022 . S
N588 C585 1.351 . S
N588 N589 1.365 . S
N589 C586 1.341 . S
N589 N588 1.365 . S
N589 H609 0.862 . S
C590 C585 1.501 . S
C590 H591 0.961 . S
C590 H592 0.961 . S
C590 H593 0.960 . S
H591 C590 0.961 . S
H592 C590 0.961 . S
H593 C590 0.960 . S
C594 N595 1.342 . S
C594 C598 1.401 . S
C594 C599 1.499 . S
N595 Co578 1.989 . S
N595 C594 1.342 . S
N595 N596 1.388 . S
N596 Co579 1.993 . S
N596 N595 1.388 . S
N596 C597 1.346 . S
C597 N596 1.346 . S
C597 C598 1.396 . S
C597 C607 1.510 . S
C598 C594 1.401 . S
C598 C597 1.396 . S
C599 C594 1.499 . S
C599 H600 0.959 . S
C599 H601 0.960 . S
C599 H602 0.961 . S
H600 C599 0.959 . S
H601 C599 0.960 . S
H602 C599 0.961 . S
O603 Co578 1.967 . S
O603 C611 1.258 . S
O604 Co579 1.941 . S
O604 C611 1.266 . S
H605 C607 0.959 . S
H606 C607 0.961 . S
C607 C597 1.510 . S
C607 H605 0.959 . S
C607 H606 0.961 . S
C607 H608 0.960 . S
H608 C607 0.960 . S
H609 N589 0.862 . S
O610 Co578 1.920 . S
O610 C583 1.289 . S
C611 O603 1.258 . S
C611 O604 1.266 . S
Co612 O615 1.970 . S
Co612 N629 1.989 . S
Co612 O637 1.967 . S
Co612 O644 1.920 . S
Co613 O616 1.966 . S
Co613 N622 2.022 . S
Co613 N630 1.993 . S
Co613 O638 1.941 . S
C614 O615 1.258 . S
C614 O616 1.263 . S
O615 Co612 1.970 . S
O615 C614 1.258 . S
O616 Co613 1.966 . S
O616 C614 1.263 . S
C617 O618 1.235 . S
C617 O644 1.289 . S
O618 C617 1.235 . S
C619 C621 1.400 . S
C619 N622 1.351 . S
C619 C624 1.501 . S
C620 C621 1.387 . S
C620 N623 1.341 . S
C621 C619 1.400 . S
C621 C620 1.387 . S
N622 Co613 2.022 . S
N622 C619 1.351 . S
N622 N623 1.365 . S
N623 C620 1.341 . S
N623 N622 1.365 . S
N623 H643 0.862 . S
C624 C619 1.501 . S
C624 H625 0.961 . S
C624 H626 0.961 . S
C624 H627 0.960 . S
H625 C624 0.961 . S
H626 C624 0.961 . S
H627 C624 0.960 . S
C628 N629 1.342 . S
C628 C632 1.401 . S
C628 C633 1.499 . S
N629 Co612 1.989 . S
N629 C628 1.342 . S
N629 N630 1.388 . S
N630 Co613 1.993 . S
N630 N629 1.388 . S
N630 C631 1.346 . S
C631 N630 1.346 . S
C631 C632 1.396 . S
C631 C641 1.510 . S
C632 C628 1.401 . S
C632 C631 1.396 . S
C633 C628 1.499 . S
C633 H634 0.959 . S
C633 H635 0.960 . S
C633 H636 0.961 . S
H634 C633 0.959 . S
H635 C633 0.960 . S
H636 C633 0.961 . S
O637 Co612 1.967 . S
O637 C645 1.258 . S
O638 Co613 1.941 . S
O638 C645 1.266 . S
H639 C641 0.959 . S
H640 C641 0.961 . S
C641 C631 1.510 . S
C641 H639 0.959 . S
C641 H640 0.961 . S
C641 H642 0.960 . S
H642 C641 0.960 . S
H643 N623 0.862 . S
O644 Co612 1.920 . S
O644 C617 1.289 . S
C645 O637 1.258 . S
C645 O638 1.266 . S
Co646 O649 1.970 . S
Co646 N663 1.989 . S
Co646 O671 1.967 . S
Co646 O678 1.920 . S
Co647 O650 1.966 . S
Co647 N656 2.022 . S
Co647 N664 1.993 . S
Co647 O672 1.941 . S
C648 O649 1.258 . S
C648 O650 1.263 . S
O649 Co646 1.970 . S
O649 C648 1.258 . S
O650 Co647 1.966 . S
O650 C648 1.263 . S
C651 O652 1.235 . S
C651 O678 1.289 . S
O652 C651 1.235 . S
C653 C655 1.400 . S
C653 N656 1.351 . S
C653 C658 1.501 . S
C654 C655 1.387 . S
C654 N657 1.341 . S
C655 C653 1.400 . S
C655 C654 1.387 . S
N656 Co647 2.022 . S
N656 C653 1.351 . S
N656 N657 1.365 . S
N657 C654 1.341 . S
N657 N656 1.365 . S
N657 H677 0.862 . S
C658 C653 1.501 . S
C658 H659 0.961 . S
C658 H660 0.961 . S
C658 H661 0.960 . S
H659 C658 0.961 . S
H660 C658 0.961 . S
H661 C658 0.960 . S
C662 N663 1.342 . S
C662 C666 1.401 . S
C662 C667 1.499 . S
N663 Co646 1.989 . S
N663 C662 1.342 . S
N663 N664 1.388 . S
N664 Co647 1.993 . S
N664 N663 1.388 . S
N664 C665 1.346 . S
C665 N664 1.346 . S
C665 C666 1.396 . S
C665 C675 1.510 . S
C666 C662 1.401 . S
C666 C665 1.396 . S
C667 C662 1.499 . S
C667 H668 0.959 . S
C667 H669 0.960 . S
C667 H670 0.961 . S
H668 C667 0.959 . S
H669 C667 0.960 . S
H670 C667 0.961 . S
O671 Co646 1.967 . S
O671 C679 1.258 . S
O672 Co647 1.941 . S
O672 C679 1.266 . S
H673 C675 0.959 . S
H674 C675 0.961 . S
C675 C665 1.510 . S
C675 H673 0.959 . S
C675 H674 0.961 . S
C675 H676 0.960 . S
H676 C675 0.960 . S
H677 N657 0.862 . S
O678 Co646 1.920 . S
O678 C651 1.289 . S
C679 O671 1.258 . S
C679 O672 1.266 . S
Co680 O683 1.970 . S
Co680 N697 1.989 . S
Co680 O705 1.967 . S
Co680 O712 1.920 . S
Co681 O684 1.966 . S
Co681 N690 2.022 . S
Co681 N698 1.993 . S
Co681 O706 1.941 . S
C682 O683 1.258 . S
C682 O684 1.263 . S
O683 Co680 1.970 . S
O683 C682 1.258 . S
O684 Co681 1.966 . S
O684 C682 1.263 . S
C685 O686 1.235 . S
C685 O712 1.289 . S
O686 C685 1.235 . S
C687 C689 1.400 . S
C687 N690 1.351 . S
C687 C692 1.501 . S
C688 C689 1.387 . S
C688 N691 1.341 . S
C689 C687 1.400 . S
C689 C688 1.387 . S
N690 Co681 2.022 . S
N690 C687 1.351 . S
N690 N691 1.365 . S
N691 C688 1.341 . S
N691 N690 1.365 . S
N691 H711 0.862 . S
C692 C687 1.501 . S
C692 H693 0.961 . S
C692 H694 0.961 . S
C692 H695 0.960 . S
H693 C692 0.961 . S
H694 C692 0.961 . S
H695 C692 0.960 . S
C696 N697 1.342 . S
C696 C700 1.401 . S
C696 C701 1.499 . S
N697 Co680 1.989 . S
N697 C696 1.342 . S
N697 N698 1.388 . S
N698 Co681 1.993 . S
N698 N697 1.388 . S
N698 C699 1.346 . S
C699 N698 1.346 . S
C699 C700 1.396 . S
C699 C709 1.510 . S
C700 C696 1.401 . S
C700 C699 1.396 . S
C701 C696 1.499 . S
C701 H702 0.959 . S
C701 H703 0.960 . S
C701 H704 0.961 . S
H702 C701 0.959 . S
H703 C701 0.960 . S
H704 C701 0.961 . S
O705 Co680 1.967 . S
O705 C713 1.258 . S
O706 Co681 1.941 . S
O706 C713 1.266 . S
H707 C709 0.959 . S
H708 C709 0.961 . S
C709 C699 1.510 . S
C709 H707 0.959 . S
C709 H708 0.961 . S
C709 H710 0.960 . S
H710 C709 0.960 . S
H711 N691 0.862 . S
O712 Co680 1.920 . S
O712 C685 1.289 . S
C713 O705 1.258 . S
C713 O706 1.266 . S
Co714 O717 1.970 . S
Co714 N731 1.989 . S
Co714 O739 1.967 . S
Co714 O746 1.920 . S
Co715 O718 1.966 . S
Co715 N724 2.022 . S
Co715 N732 1.993 . S
Co715 O740 1.941 . S
C716 O717 1.258 . S
C716 O718 1.263 . S
O717 Co714 1.970 . S
O717 C716 1.258 . S
O718 Co715 1.966 . S
O718 C716 1.263 . S
C719 O720 1.235 . S
C719 O746 1.289 . S
O720 C719 1.235 . S
C721 C723 1.400 . S
C721 N724 1.351 . S
C721 C726 1.501 . S
C722 C723 1.387 . S
C722 N725 1.341 . S
C723 C721 1.400 . S
C723 C722 1.387 . S
N724 Co715 2.022 . S
N724 C721 1.351 . S
N724 N725 1.365 . S
N725 C722 1.341 . S
N725 N724 1.365 . S
N725 H745 0.862 . S
C726 C721 1.501 . S
C726 H727 0.961 . S
C726 H728 0.961 . S
C726 H729 0.960 . S
H727 C726 0.961 . S
H728 C726 0.961 . S
H729 C726 0.960 . S
C730 N731 1.342 . S
C730 C734 1.401 . S
C730 C735 1.499 . S
N731 Co714 1.989 . S
N731 C730 1.342 . S
N731 N732 1.388 . S
N732 Co715 1.993 . S
N732 N731 1.388 . S
N732 C733 1.346 . S
C733 N732 1.346 . S
C733 C734 1.396 . S
C733 C743 1.510 . S
C734 C730 1.401 . S
C734 C733 1.396 . S
C735 C730 1.499 . S
C735 H736 0.959 . S
C735 H737 0.960 . S
C735 H738 0.961 . S
H736 C735 0.959 . S
H737 C735 0.960 . S
H738 C735 0.961 . S
O739 Co714 1.967 . S
O739 C747 1.258 . S
O740 Co715 1.941 . S
O740 C747 1.266 . S
H741 C743 0.959 . S
H742 C743 0.961 . S
C743 C733 1.510 . S
C743 H741 0.959 . S
C743 H742 0.961 . S
C743 H744 0.960 . S
H744 C743 0.960 . S
H745 N725 0.862 . S
O746 Co714 1.920 . S
O746 C719 1.289 . S
C747 O739 1.258 . S
C747 O740 1.266 . S
Co748 O751 1.970 . S
Co748 N765 1.989 . S
Co748 O773 1.967 . S
Co748 O780 1.920 . S
Co749 O752 1.966 . S
Co749 N758 2.022 . S
Co749 N766 1.993 . S
Co749 O774 1.941 . S
C750 O751 1.258 . S
C750 O752 1.263 . S
O751 Co748 1.970 . S
O751 C750 1.258 . S
O752 Co749 1.966 . S
O752 C750 1.263 . S
C753 O754 1.235 . S
C753 O780 1.289 . S
O754 C753 1.235 . S
C755 C757 1.400 . S
C755 N758 1.351 . S
C755 C760 1.501 . S
C756 C757 1.387 . S
C756 N759 1.341 . S
C757 C755 1.400 . S
C757 C756 1.387 . S
N758 Co749 2.022 . S
N758 C755 1.351 . S
N758 N759 1.365 . S
N759 C756 1.341 . S
N759 N758 1.365 . S
N759 H779 0.862 . S
C760 C755 1.501 . S
C760 H761 0.961 . S
C760 H762 0.961 . S
C760 H763 0.960 . S
H761 C760 0.961 . S
H762 C760 0.961 . S
H763 C760 0.960 . S
C764 N765 1.342 . S
C764 C768 1.401 . S
C764 C769 1.499 . S
N765 Co748 1.989 . S
N765 C764 1.342 . S
N765 N766 1.388 . S
N766 Co749 1.993 . S
N766 N765 1.388 . S
N766 C767 1.346 . S
C767 N766 1.346 . S
C767 C768 1.396 . S
C767 C777 1.510 . S
C768 C764 1.401 . S
C768 C767 1.396 . S
C769 C764 1.499 . S
C769 H770 0.959 . S
C769 H771 0.960 . S
C769 H772 0.961 . S
H770 C769 0.959 . S
H771 C769 0.960 . S
H772 C769 0.961 . S
O773 Co748 1.967 . S
O773 C781 1.258 . S
O774 Co749 1.941 . S
O774 C781 1.266 . S
H775 C777 0.959 . S
H776 C777 0.961 . S
C777 C767 1.510 . S
C777 H775 0.959 . S
C777 H776 0.961 . S
C777 H778 0.960 . S
H778 C777 0.960 . S
H779 N759 0.862 . S
O780 Co748 1.920 . S
O780 C753 1.289 . S
C781 O773 1.258 . S
C781 O774 1.266 . S
Co782 O785 1.970 . S
Co782 N799 1.989 . S
Co782 O807 1.967 . S
Co782 O814 1.920 . S
Co783 O786 1.966 . S
Co783 N792 2.022 . S
Co783 N800 1.993 . S
Co783 O808 1.941 . S
C784 O785 1.258 . S
C784 O786 1.263 . S
O785 Co782 1.970 . S
O785 C784 1.258 . S
O786 Co783 1.966 . S
O786 C784 1.263 . S
C787 O788 1.235 . S
C787 O814 1.289 . S
O788 C787 1.235 . S
C789 C791 1.400 . S
C789 N792 1.351 . S
C789 C794 1.501 . S
C790 C791 1.387 . S
C790 N793 1.341 . S
C791 C789 1.400 . S
C791 C790 1.387 . S
N792 Co783 2.022 . S
N792 C789 1.351 . S
N792 N793 1.365 . S
N793 C790 1.341 . S
N793 N792 1.365 . S
N793 H813 0.862 . S
C794 C789 1.501 . S
C794 H795 0.961 . S
C794 H796 0.961 . S
C794 H797 0.960 . S
H795 C794 0.961 . S
H796 C794 0.961 . S
H797 C794 0.960 . S
C798 N799 1.342 . S
C798 C802 1.401 . S
C798 C803 1.499 . S
N799 Co782 1.989 . S
N799 C798 1.342 . S
N799 N800 1.388 . S
N800 Co783 1.993 . S
N800 N799 1.388 . S
N800 C801 1.346 . S
C801 N800 1.346 . S
C801 C802 1.396 . S
C801 C811 1.510 . S
C802 C798 1.401 . S
C802 C801 1.396 . S
C803 C798 1.499 . S
C803 H804 0.959 . S
C803 H805 0.960 . S
C803 H806 0.961 . S
H804 C803 0.959 . S
H805 C803 0.960 . S
H806 C803 0.961 . S
O807 Co782 1.967 . S
O807 C815 1.258 . S
O808 Co783 1.941 . S
O808 C815 1.266 . S
H809 C811 0.959 . S
H810 C811 0.961 . S
C811 C801 1.510 . S
C811 H809 0.959 . S
C811 H810 0.961 . S
C811 H812 0.960 . S
H812 C811 0.960 . S
H813 N793 0.862 . S
O814 Co782 1.920 . S
O814 C787 1.289 . S
C815 O807 1.258 . S
C815 O808 1.266 . S
Co816 O819 1.970 . S
Co816 N833 1.989 . S
Co816 O841 1.967 . S
Co816 O848 1.920 . S
Co817 O820 1.966 . S
Co817 N826 2.022 . S
Co817 N834 1.993 . S
Co817 O842 1.941 . S
C818 O819 1.258 . S
C818 O820 1.263 . S
O819 Co816 1.970 . S
O819 C818 1.258 . S
O820 Co817 1.966 . S
O820 C818 1.263 . S
C821 O822 1.235 . S
C821 O848 1.289 . S
O822 C821 1.235 . S
C823 C825 1.400 . S
C823 N826 1.351 . S
C823 C828 1.501 . S
C824 C825 1.387 . S
C824 N827 1.341 . S
C825 C823 1.400 . S
C825 C824 1.387 . S
N826 Co817 2.022 . S
N826 C823 1.351 . S
N826 N827 1.365 . S
N827 C824 1.341 . S
N827 N826 1.365 . S
N827 H847 0.862 . S
C828 C823 1.501 . S
C828 H829 0.961 . S
C828 H830 0.961 . S
C828 H831 0.960 . S
H829 C828 0.961 . S
H830 C828 0.961 . S
H831 C828 0.960 . S
C832 N833 1.342 . S
C832 C836 1.401 . S
C832 C837 1.499 . S
N833 Co816 1.989 . S
N833 C832 1.342 . S
N833 N834 1.388 . S
N834 Co817 1.993 . S
N834 N833 1.388 . S
N834 C835 1.346 . S
C835 N834 1.346 . S
C835 C836 1.396 . S
C835 C845 1.510 . S
C836 C832 1.401 . S
C836 C835 1.396 . S
C837 C832 1.499 . S
C837 H838 0.959 . S
C837 H839 0.960 . S
C837 H840 0.961 . S
H838 C837 0.959 . S
H839 C837 0.960 . S
H840 C837 0.961 . S
O841 Co816 1.967 . S
O841 C849 1.258 . S
O842 Co817 1.941 . S
O842 C849 1.266 . S
H843 C845 0.959 . S
H844 C845 0.961 . S
C845 C835 1.510 . S
C845 H843 0.959 . S
C845 H844 0.961 . S
C845 H846 0.960 . S
H846 C845 0.960 . S
H847 N827 0.862 . S
O848 Co816 1.920 . S
O848 C821 1.289 . S
C849 O841 1.258 . S
C849 O842 1.266 . S
Co850 O853 1.970 . S
Co850 N867 1.989 . S
Co850 O875 1.967 . S
Co850 O882 1.920 . S
Co851 O854 1.966 . S
Co851 N860 2.022 . S
Co851 N868 1.993 . S
Co851 O876 1.941 . S
C852 O853 1.258 . S
C852 O854 1.263 . S
O853 Co850 1.970 . S
O853 C852 1.258 . S
O854 Co851 1.966 . S
O854 C852 1.263 . S
C855 O856 1.235 . S
C855 O882 1.289 . S
O856 C855 1.235 . S
C857 C859 1.400 . S
C857 N860 1.351 . S
C857 C862 1.501 . S
C858 C859 1.387 . S
C858 N861 1.341 . S
C859 C857 1.400 . S
C859 C858 1.387 . S
N860 Co851 2.022 . S
N860 C857 1.351 . S
N860 N861 1.365 . S
N861 C858 1.341 . S
N861 N860 1.365 . S
N861 H881 0.862 . S
C862 C857 1.501 . S
C862 H863 0.961 . S
C862 H864 0.961 . S
C862 H865 0.960 . S
H863 C862 0.961 . S
H864 C862 0.961 . S
H865 C862 0.960 . S
C866 N867 1.342 . S
C866 C870 1.401 . S
C866 C871 1.499 . S
N867 Co850 1.989 . S
N867 C866 1.342 . S
N867 N868 1.388 . S
N868 Co851 1.993 . S
N868 N867 1.388 . S
N868 C869 1.346 . S
C869 N868 1.346 . S
C869 C870 1.396 . S
C869 C879 1.510 . S
C870 C866 1.401 . S
C870 C869 1.396 . S
C871 C866 1.499 . S
C871 H872 0.959 . S
C871 H873 0.960 . S
C871 H874 0.961 . S
H872 C871 0.959 . S
H873 C871 0.960 . S
H874 C871 0.961 . S
O875 Co850 1.967 . S
O875 C883 1.258 . S
O876 Co851 1.941 . S
O876 C883 1.266 . S
H877 C879 0.959 . S
H878 C879 0.961 . S
C879 C869 1.510 . S
C879 H877 0.959 . S
C879 H878 0.961 . S
C879 H880 0.960 . S
H880 C879 0.960 . S
H881 N861 0.862 . S
O882 Co850 1.920 . S
O882 C855 1.289 . S
C883 O875 1.258 . S
C883 O876 1.266 . S
Co884 O887 1.970 . S
Co884 N901 1.989 . S
Co884 O909 1.967 . S
Co884 O916 1.920 . S
Co885 O888 1.966 . S
Co885 N894 2.022 . S
Co885 N902 1.993 . S
Co885 O910 1.941 . S
C886 O887 1.258 . S
C886 O888 1.263 . S
O887 Co884 1.970 . S
O887 C886 1.258 . S
O888 Co885 1.966 . S
O888 C886 1.263 . S
C889 O890 1.235 . S
C889 O916 1.289 . S
O890 C889 1.235 . S
C891 C893 1.400 . S
C891 N894 1.351 . S
C891 C896 1.501 . S
C892 C893 1.387 . S
C892 N895 1.341 . S
C893 C891 1.400 . S
C893 C892 1.387 . S
N894 Co885 2.022 . S
N894 C891 1.351 . S
N894 N895 1.365 . S
N895 C892 1.341 . S
N895 N894 1.365 . S
N895 H915 0.862 . S
C896 C891 1.501 . S
C896 H897 0.961 . S
C896 H898 0.961 . S
C896 H899 0.960 . S
H897 C896 0.961 . S
H898 C896 0.961 . S
H899 C896 0.960 . S
C900 N901 1.342 . S
C900 C904 1.401 . S
C900 C905 1.499 . S
N901 Co884 1.989 . S
N901 C900 1.342 . S
N901 N902 1.388 . S
N902 Co885 1.993 . S
N902 N901 1.388 . S
N902 C903 1.346 . S
C903 N902 1.346 . S
C903 C904 1.396 . S
C903 C913 1.510 . S
C904 C900 1.401 . S
C904 C903 1.396 . S
C905 C900 1.499 . S
C905 H906 0.959 . S
C905 H907 0.960 . S
C905 H908 0.961 . S
H906 C905 0.959 . S
H907 C905 0.960 . S
H908 C905 0.961 . S
O909 Co884 1.967 . S
O909 C917 1.258 . S
O910 Co885 1.941 . S
O910 C917 1.266 . S
H911 C913 0.959 . S
H912 C913 0.961 . S
C913 C903 1.510 . S
C913 H911 0.959 . S
C913 H912 0.961 . S
C913 H914 0.960 . S
H914 C913 0.960 . S
H915 N895 0.862 . S
O916 Co884 1.920 . S
O916 C889 1.289 . S
C917 O909 1.258 . S
C917 O910 1.266 . S
Co918 O921 1.970 . S
Co918 N935 1.989 . S
Co918 O943 1.967 . S
Co918 O950 1.920 . S
Co919 O922 1.966 . S
Co919 N928 2.022 . S
Co919 N936 1.993 . S
Co919 O944 1.941 . S
C920 O921 1.258 . S
C920 O922 1.263 . S
O921 Co918 1.970 . S
O921 C920 1.258 . S
O922 Co919 1.966 . S
O922 C920 1.263 . S
C923 O924 1.235 . S
C923 O950 1.289 . S
O924 C923 1.235 . S
C925 C927 1.400 . S
C925 N928 1.351 . S
C925 C930 1.501 . S
C926 C927 1.387 . S
C926 N929 1.341 . S
C927 C925 1.400 . S
C927 C926 1.387 . S
N928 Co919 2.022 . S
N928 C925 1.351 . S
N928 N929 1.365 . S
N929 C926 1.341 . S
N929 N928 1.365 . S
N929 H949 0.862 . S
C930 C925 1.501 . S
C930 H931 0.961 . S
C930 H932 0.961 . S
C930 H933 0.960 . S
H931 C930 0.961 . S
H932 C930 0.961 . S
H933 C930 0.960 . S
C934 N935 1.342 . S
C934 C938 1.401 . S
C934 C939 1.499 . S
N935 Co918 1.989 . S
N935 C934 1.342 . S
N935 N936 1.388 . S
N936 Co919 1.993 . S
N936 N935 1.388 . S
N936 C937 1.346 . S
C937 N936 1.346 . S
C937 C938 1.396 . S
C937 C947 1.510 . S
C938 C934 1.401 . S
C938 C937 1.396 . S
C939 C934 1.499 . S
C939 H940 0.959 . S
C939 H941 0.960 . S
C939 H942 0.961 . S
H940 C939 0.959 . S
H941 C939 0.960 . S
H942 C939 0.961 . S
O943 Co918 1.967 . S
O943 C951 1.258 . S
O944 Co919 1.941 . S
O944 C951 1.266 . S
H945 C947 0.959 . S
H946 C947 0.961 . S
C947 C937 1.510 . S
C947 H945 0.959 . S
C947 H946 0.961 . S
C947 H948 0.960 . S
H948 C947 0.960 . S
H949 N929 0.862 . S
O950 Co918 1.920 . S
O950 C923 1.289 . S
C951 O943 1.258 . S
C951 O944 1.266 . S
Co952 O955 1.970 . S
Co952 N969 1.989 . S
Co952 O977 1.967 . S
Co952 O984 1.920 . S
Co953 O956 1.966 . S
Co953 N962 2.022 . S
Co953 N970 1.993 . S
Co953 O978 1.941 . S
C954 O955 1.258 . S
C954 O956 1.263 . S
O955 Co952 1.970 . S
O955 C954 1.258 . S
O956 Co953 1.966 . S
O956 C954 1.263 . S
C957 O958 1.235 . S
C957 O984 1.289 . S
O958 C957 1.235 . S
C959 C961 1.400 . S
C959 N962 1.351 . S
C959 C964 1.501 . S
C960 C961 1.387 . S
C960 N963 1.341 . S
C961 C959 1.400 . S
C961 C960 1.387 . S
N962 Co953 2.022 . S
N962 C959 1.351 . S
N962 N963 1.365 . S
N963 C960 1.341 . S
N963 N962 1.365 . S
N963 H983 0.862 . S
C964 C959 1.501 . S
C964 H965 0.961 . S
C964 H966 0.961 . S
C964 H967 0.960 . S
H965 C964 0.961 . S
H966 C964 0.961 . S
H967 C964 0.960 . S
C968 N969 1.342 . S
C968 C972 1.401 . S
C968 C973 1.499 . S
N969 Co952 1.989 . S
N969 C968 1.342 . S
N969 N970 1.388 . S
N970 Co953 1.993 . S
N970 N969 1.388 . S
N970 C971 1.346 . S
C971 N970 1.346 . S
C971 C972 1.396 . S
C971 C981 1.510 . S
C972 C968 1.401 . S
C972 C971 1.396 . S
C973 C968 1.499 . S
C973 H974 0.959 . S
C973 H975 0.960 . S
C973 H976 0.961 . S
H974 C973 0.959 . S
H975 C973 0.960 . S
H976 C973 0.961 . S
O977 Co952 1.967 . S
O977 C985 1.258 . S
O978 Co953 1.941 . S
O978 C985 1.266 . S
H979 C981 0.959 . S
H980 C981 0.961 . S
C981 C971 1.510 . S
C981 H979 0.959 . S
C981 H980 0.961 . S
C981 H982 0.960 . S
H982 C981 0.960 . S
H983 N963 0.862 . S
O984 Co952 1.920 . S
O984 C957 1.289 . S
C985 O977 1.258 . S
C985 O978 1.266 . S
Co986 O989 1.970 . S
Co986 N1003 1.989 . S
Co986 O1011 1.967 . S
Co986 O1018 1.920 . S
Co987 O990 1.966 . S
Co987 N996 2.022 . S
Co987 N1004 1.993 . S
Co987 O1012 1.941 . S
C988 O989 1.258 . S
C988 O990 1.263 . S
O989 Co986 1.970 . S
O989 C988 1.258 . S
O990 Co987 1.966 . S
O990 C988 1.263 . S
C991 O992 1.235 . S
C991 O1018 1.289 . S
O992 C991 1.235 . S
C993 C995 1.400 . S
C993 N996 1.351 . S
C993 C998 1.501 . S
C994 C995 1.387 . S
C994 N997 1.341 . S
C995 C993 1.400 . S
C995 C994 1.387 . S
N996 Co987 2.022 . S
N996 C993 1.351 . S
N996 N997 1.365 . S
N997 C994 1.341 . S
N997 N996 1.365 . S
N997 H1017 0.862 . S
C998 C993 1.501 . S
C998 H999 0.961 . S
C998 H1000 0.961 . S
C998 H1001 0.960 . S
H999 C998 0.961 . S
H1000 C998 0.961 . S
H1001 C998 0.960 . S
C1002 N1003 1.342 . S
C1002 C1006 1.401 . S
C1002 C1007 1.499 . S
N1003 Co986 1.989 . S
N1003 C1002 1.342 . S
N1003 N1004 1.388 . S
N1004 Co987 1.993 . S
N1004 N1003 1.388 . S
N1004 C1005 1.346 . S
C1005 N1004 1.346 . S
C1005 C1006 1.396 . S
C1005 C1015 1.510 . S
C1006 C1002 1.401 . S
C1006 C1005 1.396 . S
C1007 C1002 1.499 . S
C1007 H1008 0.959 . S
C1007 H1009 0.960 . S
C1007 H1010 0.961 . S
H1008 C1007 0.959 . S
H1009 C1007 0.960 . S
H1010 C1007 0.961 . S
O1011 Co986 1.967 . S
O1011 C1019 1.258 . S
O1012 Co987 1.941 . S
O1012 C1019 1.266 . S
H1013 C1015 0.959 . S
H1014 C1015 0.961 . S
C1015 C1005 1.510 . S
C1015 H1013 0.959 . S
C1015 H1014 0.961 . S
C1015 H1016 0.960 . S
H1016 C1015 0.960 . S
H1017 N997 0.862 . S
O1018 Co986 1.920 . S
O1018 C991 1.289 . S
C1019 O1011 1.258 . S
C1019 O1012 1.266 . S
Co1020 O1023 1.970 . S
Co1020 N1037 1.989 . S
Co1020 O1045 1.967 . S
Co1020 O1052 1.920 . S
Co1021 O1024 1.966 . S
Co1021 N1030 2.022 . S
Co1021 N1038 1.993 . S
Co1021 O1046 1.941 . S
C1022 O1023 1.258 . S
C1022 O1024 1.263 . S
O1023 Co1020 1.970 . S
O1023 C1022 1.258 . S
O1024 Co1021 1.966 . S
O1024 C1022 1.263 . S
C1025 O1026 1.235 . S
C1025 O1052 1.289 . S
O1026 C1025 1.235 . S
C1027 C1029 1.400 . S
C1027 N1030 1.351 . S
C1027 C1032 1.501 . S
C1028 C1029 1.387 . S
C1028 N1031 1.341 . S
C1029 C1027 1.400 . S
C1029 C1028 1.387 . S
N1030 Co1021 2.022 . S
N1030 C1027 1.351 . S
N1030 N1031 1.365 . S
N1031 C1028 1.341 . S
N1031 N1030 1.365 . S
N1031 H1051 0.862 . S
C1032 C1027 1.501 . S
C1032 H1033 0.961 . S
C1032 H1034 0.961 . S
C1032 H1035 0.960 . S
H1033 C1032 0.961 . S
H1034 C1032 0.961 . S
H1035 C1032 0.960 . S
C1036 N1037 1.342 . S
C1036 C1040 1.401 . S
C1036 C1041 1.499 . S
N1037 Co1020 1.989 . S
N1037 C1036 1.342 . S
N1037 N1038 1.388 . S
N1038 Co1021 1.993 . S
N1038 N1037 1.388 . S
N1038 C1039 1.346 . S
C1039 N1038 1.346 . S
C1039 C1040 1.396 . S
C1039 C1049 1.510 . S
C1040 C1036 1.401 . S
C1040 C1039 1.396 . S
C1041 C1036 1.499 . S
C1041 H1042 0.959 . S
C1041 H1043 0.960 . S
C1041 H1044 0.961 . S
H1042 C1041 0.959 . S
H1043 C1041 0.960 . S
H1044 C1041 0.961 . S
O1045 Co1020 1.967 . S
O1045 C1053 1.258 . S
O1046 Co1021 1.941 . S
O1046 C1053 1.266 . S
H1047 C1049 0.959 . S
H1048 C1049 0.961 . S
C1049 C1039 1.510 . S
C1049 H1047 0.959 . S
C1049 H1048 0.961 . S
C1049 H1050 0.960 . S
H1050 C1049 0.960 . S
H1051 N1031 0.862 . S
O1052 Co1020 1.920 . S
O1052 C1025 1.289 . S
C1053 O1045 1.258 . S
C1053 O1046 1.266 . S
Co1054 O1057 1.970 . S
Co1054 N1071 1.989 . S
Co1054 O1079 1.967 . S
Co1054 O1086 1.920 . S
Co1055 O1058 1.966 . S
Co1055 N1064 2.022 . S
Co1055 N1072 1.993 . S
Co1055 O1080 1.941 . S
C1056 O1057 1.258 . S
C1056 O1058 1.263 . S
O1057 Co1054 1.970 . S
O1057 C1056 1.258 . S
O1058 Co1055 1.966 . S
O1058 C1056 1.263 . S
C1059 O1060 1.235 . S
C1059 O1086 1.289 . S
O1060 C1059 1.235 . S
C1061 C1063 1.400 . S
C1061 N1064 1.351 . S
C1061 C1066 1.501 . S
C1062 C1063 1.387 . S
C1062 N1065 1.341 . S
C1063 C1061 1.400 . S
C1063 C1062 1.387 . S
N1064 Co1055 2.022 . S
N1064 C1061 1.351 . S
N1064 N1065 1.365 . S
N1065 C1062 1.341 . S
N1065 N1064 1.365 . S
N1065 H1085 0.862 . S
C1066 C1061 1.501 . S
C1066 H1067 0.961 . S
C1066 H1068 0.961 . S
C1066 H1069 0.960 . S
H1067 C1066 0.961 . S
H1068 C1066 0.961 . S
H1069 C1066 0.960 . S
C1070 N1071 1.342 . S
C1070 C1074 1.401 . S
C1070 C1075 1.499 . S
N1071 Co1054 1.989 . S
N1071 C1070 1.342 . S
N1071 N1072 1.388 . S
N1072 Co1055 1.993 . S
N1072 N1071 1.388 . S
N1072 C1073 1.346 . S
C1073 N1072 1.346 . S
C1073 C1074 1.396 . S
C1073 C1083 1.510 . S
C1074 C1070 1.401 . S
C1074 C1073 1.396 . S
C1075 C1070 1.499 . S
C1075 H1076 0.959 . S
C1075 H1077 0.960 . S
C1075 H1078 0.961 . S
H1076 C1075 0.959 . S
H1077 C1075 0.960 . S
H1078 C1075 0.961 . S
O1079 Co1054 1.967 . S
O1079 C1087 1.258 . S
O1080 Co1055 1.941 . S
O1080 C1087 1.266 . S
H1081 C1083 0.959 . S
H1082 C1083 0.961 . S
C1083 C1073 1.510 . S
C1083 H1081 0.959 . S
C1083 H1082 0.961 . S
C1083 H1084 0.960 . S
H1084 C1083 0.960 . S
H1085 N1065 0.862 . S
O1086 Co1054 1.920 . S
O1086 C1059 1.289 . S
C1087 O1079 1.258 . S
C1087 O1080 1.266 . S
C1088 C1089 1.349 1_545 S
C1088 C1090 1.327 . S
C1088 H1113 0.950 . S
C1089 C1088 1.349 1_565 S
C1089 C1105 1.349 . S
C1090 C1088 1.327 . S
C1090 C1109 1.429 1_545 S
C1090 H1114 0.950 . S
C1091 C1108 1.574 . S
C1091 C1110 1.368 . S
C1091 H1115 0.949 . S
H1092 C1096 0.949 . S
C1093 C1094 1.349 1_565 S
C1093 C1095 1.327 . S
C1093 H1116 0.950 . S
C1094 C1093 1.349 1_545 S
C1094 C1106 1.349 . S
C1095 C1093 1.327 . S
C1095 C1111 1.429 1_565 S
C1095 H1117 0.950 . S
C1096 H1092 0.949 . S
C1096 C1104 1.574 . S
C1096 C1112 1.368 . S
H1097 C1105 0.950 . S
H1098 C1103 0.950 . S
H1099 C1104 0.949 . S
H1100 C1106 0.950 . S
H1101 C1107 0.950 . S
H1102 C1108 0.949 . S
C1103 H1098 0.950 . S
C1103 C1105 1.327 . S
C1103 C1109 1.429 . S
C1104 C1096 1.574 . S
C1104 H1099 0.949 . S
C1104 C1110 1.368 1_545 S
C1105 C1089 1.349 . S
C1105 H1097 0.950 . S
C1105 C1103 1.327 . S
C1106 C1094 1.349 . S
C1106 H1100 0.950 . S
C1106 C1107 1.327 . S
C1107 H1101 0.950 . S
C1107 C1106 1.327 . S
C1107 C1111 1.429 . S
C1108 C1091 1.574 . S
C1108 H1102 0.949 . S
C1108 C1112 1.368 1_565 S
C1109 C1090 1.429 1_565 S
C1109 C1103 1.429 . S
C1109 C1110 1.523 . S
C1110 C1091 1.368 . S
C1110 C1104 1.368 1_565 S
C1110 C1109 1.523 . S
C1111 C1095 1.429 1_545 S
C1111 C1107 1.429 . S
C1111 C1112 1.523 . S
C1112 C1096 1.368 . S
C1112 C1108 1.368 1_545 S
C1112 C1111 1.523 . S
H1113 C1088 0.950 . S
H1114 C1090 0.950 . S
H1115 C1091 0.949 . S
H1116 C1093 0.950 . S
H1117 C1095 0.950 . S
C1118 C1119 1.349 . S
C1118 C1120 1.327 . S
C1118 H1143 0.950 . S
C1119 C1118 1.349 . S
C1119 C1135 1.349 . S
C1120 C1118 1.327 . S
C1120 C1139 1.429 . S
C1120 H1144 0.950 . S
C1121 C1138 1.574 . S
C1121 C1140 1.368 . S
C1121 H1145 0.949 . S
H1122 C1126 0.949 . S
C1123 C1124 1.349 . S
C1123 C1125 1.327 . S
C1123 H1146 0.950 . S
C1124 C1123 1.349 . S
C1124 C1136 1.349 . S
C1125 C1123 1.327 . S
C1125 C1141 1.429 . S
C1125 H1147 0.950 . S
C1126 H1122 0.949 . S
C1126 C1134 1.574 . S
C1126 C1142 1.368 . S
H1127 C1135 0.950 . S
H1128 C1133 0.950 . S
H1129 C1134 0.949 . S
H1130 C1136 0.950 . S
H1131 C1137 0.950 . S
H1132 C1138 0.949 . S
C1133 H1128 0.950 . S
C1133 C1135 1.327 . S
C1133 C1139 1.429 . S
C1134 C1126 1.574 . S
C1134 H1129 0.949 . S
C1134 C1140 1.368 . S
C1135 C1119 1.349 . S
C1135 H1127 0.950 . S
C1135 C1133 1.327 . S
C1136 C1124 1.349 . S
C1136 H1130 0.950 . S
C1136 C1137 1.327 . S
C1137 H1131 0.950 . S
C1137 C1136 1.327 . S
C1137 C1141 1.429 . S
C1138 C1121 1.574 . S
C1138 H1132 0.949 . S
C1138 C1142 1.368 . S
C1139 C1120 1.429 . S
C1139 C1133 1.429 . S
C1139 C1140 1.523 . S
C1140 C1121 1.368 . S
C1140 C1134 1.368 . S
C1140 C1139 1.523 . S
C1141 C1125 1.429 . S
C1141 C1137 1.429 . S
C1141 C1142 1.523 . S
C1142 C1126 1.368 . S
C1142 C1138 1.368 . S
C1142 C1141 1.523 . S
H1143 C1118 0.950 . S
H1144 C1120 0.950 . S
H1145 C1121 0.949 . S
H1146 C1123 0.950 . S
H1147 C1125 0.950 . S
C1148 C1149 1.349 . S
C1148 C1150 1.327 1_565 S
C1148 H1173 0.950 1_565 S
C1149 C1148 1.349 . S
C1149 C1165 1.349 . S
C1150 C1148 1.327 1_545 S
C1150 C1169 1.429 1_545 S
C1150 H1174 0.950 . S
C1151 C1168 1.574 . S
C1151 C1170 1.368 . S
C1151 H1175 0.949 . S
H1152 C1156 0.949 . S
C1153 C1154 1.349 . S
C1153 C1155 1.327 1_545 S
C1153 H1176 0.950 1_545 S
C1154 C1153 1.349 . S
C1154 C1166 1.349 . S
C1155 C1153 1.327 1_565 S
C1155 C1171 1.429 1_565 S
C1155 H1177 0.950 . S
C1156 H1152 0.949 . S
C1156 C1164 1.574 . S
C1156 C1172 1.368 . S
H1157 C1165 0.950 . S
H1158 C1163 0.950 . S
H1159 C1164 0.949 . S
H1160 C1166 0.950 . S
H1161 C1167 0.950 . S
H1162 C1168 0.949 . S
C1163 H1158 0.950 . S
C1163 C1165 1.327 . S
C1163 C1169 1.429 . S
C1164 C1156 1.574 . S
C1164 H1159 0.949 . S
C1164 C1170 1.368 1_545 S
C1165 C1149 1.349 . S
C1165 H1157 0.950 . S
C1165 C1163 1.327 . S
C1166 C1154 1.349 . S
C1166 H1160 0.950 . S
C1166 C1167 1.327 . S
C1167 H1161 0.950 . S
C1167 C1166 1.327 . S
C1167 C1171 1.429 . S
C1168 C1151 1.574 . S
C1168 H1162 0.949 . S
C1168 C1172 1.368 1_565 S
C1169 C1150 1.429 1_565 S
C1169 C1163 1.429 . S
C1169 C1170 1.523 . S
C1170 C1151 1.368 . S
C1170 C1164 1.368 1_565 S
C1170 C1169 1.523 . S
C1171 C1155 1.429 1_545 S
C1171 C1167 1.429 . S
C1171 C1172 1.523 . S
C1172 C1156 1.368 . S
C1172 C1168 1.368 1_545 S
C1172 C1171 1.523 . S
H1173 C1148 0.950 1_545 S
H1174 C1150 0.950 . S
H1175 C1151 0.949 . S
H1176 C1153 0.950 1_565 S
H1177 C1155 0.950 . S
C1178 C1179 1.349 . S
C1178 C1180 1.327 . S
C1178 H1203 0.950 . S
C1179 C1178 1.349 . S
C1179 C1195 1.349 . S
C1180 C1178 1.327 . S
C1180 C1199 1.429 . S
C1180 H1204 0.950 . S
C1181 C1198 1.574 1_556 S
C1181 C1200 1.368 . S
C1181 H1205 0.949 . S
H1182 C1186 0.949 . S
C1183 C1184 1.349 . S
C1183 C1185 1.327 . S
C1183 H1206 0.950 . S
C1184 C1183 1.349 . S
C1184 C1196 1.349 . S
C1185 C1183 1.327 . S
C1185 C1201 1.429 . S
C1185 H1207 0.950 . S
C1186 H1182 0.949 . S
C1186 C1194 1.574 1_554 S
C1186 C1202 1.368 . S
H1187 C1195 0.950 . S
H1188 C1193 0.950 . S
H1189 C1194 0.949 . S
H1190 C1196 0.950 . S
H1191 C1197 0.950 . S
H1192 C1198 0.949 . S
C1193 H1188 0.950 . S
C1193 C1195 1.327 . S
C1193 C1199 1.429 . S
C1194 C1186 1.574 1_556 S
C1194 H1189 0.949 . S
C1194 C1200 1.368 . S
C1195 C1179 1.349 . S
C1195 H1187 0.950 . S
C1195 C1193 1.327 . S
C1196 C1184 1.349 . S
C1196 H1190 0.950 . S
C1196 C1197 1.327 . S
C1197 H1191 0.950 . S
C1197 C1196 1.327 . S
C1197 C1201 1.429 . S
C1198 C1181 1.574 1_554 S
C1198 H1192 0.949 . S
C1198 C1202 1.368 . S
C1199 C1180 1.429 . S
C1199 C1193 1.429 . S
C1199 C1200 1.523 . S
C1200 C1181 1.368 . S
C1200 C1194 1.368 . S
C1200 C1199 1.523 . S
C1201 C1185 1.429 . S
C1201 C1197 1.429 . S
C1201 C1202 1.523 . S
C1202 C1186 1.368 . S
C1202 C1198 1.368 . S
C1202 C1201 1.523 . S
H1203 C1178 0.950 . S
H1204 C1180 0.950 . S
H1205 C1181 0.949 . S
H1206 C1183 0.950 . S
H1207 C1185 0.950 . S
C1208 C1209 1.349 . S
C1208 C1210 1.327 . S
C1208 H1233 0.950 . S
C1209 C1208 1.349 . S
C1209 C1225 1.349 1_565 S
C1210 C1208 1.327 . S
C1210 C1229 1.429 . S
C1210 H1234 0.950 . S
C1211 C1228 1.574 . S
C1211 C1230 1.368 1_545 S
C1211 H1235 0.949 . S
H1212 C1216 0.949 . S
C1213 C1214 1.349 . S
C1213 C1215 1.327 . S
C1213 H1236 0.950 . S
C1214 C1213 1.349 . S
C1214 C1226 1.349 1_545 S
C1215 C1213 1.327 . S
C1215 C1231 1.429 . S
C1215 H1237 0.950 . S
C1216 H1212 0.949 . S
C1216 C1224 1.574 . S
C1216 C1232 1.368 1_565 S
H1217 C1225 0.950 . S
H1218 C1223 0.950 . S
H1219 C1224 0.949 . S
H1220 C1226 0.950 . S
H1221 C1227 0.950 . S
H1222 C1228 0.949 . S
C1223 H1218 0.950 . S
C1223 C1225 1.327 . S
C1223 C1229 1.429 1_545 S
C1224 C1216 1.574 . S
C1224 H1219 0.949 . S
C1224 C1230 1.368 . S
C1225 C1209 1.349 1_545 S
C1225 H1217 0.950 . S
C1225 C1223 1.327 . S
C1226 C1214 1.349 1_565 S
C1226 H1220 0.950 . S
C1226 C1227 1.327 . S
C1227 H1221 0.950 . S
C1227 C1226 1.327 . S
C1227 C1231 1.429 1_565 S
C1228 C1211 1.574 . S
C1228 H1222 0.949 . S
C1228 C1232 1.368 . S
C1229 C1210 1.429 . S
C1229 C1223 1.429 1_565 S
C1229 C1230 1.523 . S
C1230 C1211 1.368 1_565 S
C1230 C1224 1.368 . S
C1230 C1229 1.523 . S
C1231 C1215 1.429 . S
C1231 C1227 1.429 1_545 S
C1231 C1232 1.523 . S
C1232 C1216 1.368 1_545 S
C1232 C1228 1.368 . S
C1232 C1231 1.523 . S
H1233 C1208 0.950 . S
H1234 C1210 0.950 . S
H1235 C1211 0.949 . S
H1236 C1213 0.950 . S
H1237 C1215 0.950 . S
C1238 C1239 1.349 . S
C1238 C1240 1.327 . S
C1238 H1263 0.950 . S
C1239 C1238 1.349 . S
C1239 C1255 1.349 . S
C1240 C1238 1.327 . S
C1240 C1259 1.429 . S
C1240 H1264 0.950 . S
C1241 C1258 1.574 . S
C1241 C1260 1.368 . S
C1241 H1265 0.949 . S
H1242 C1246 0.949 . S
C1243 C1244 1.349 . S
C1243 C1245 1.327 . S
C1243 H1266 0.950 . S
C1244 C1243 1.349 . S
C1244 C1256 1.349 . S
C1245 C1243 1.327 . S
C1245 C1261 1.429 . S
C1245 H1267 0.950 . S
C1246 H1242 0.949 . S
C1246 C1254 1.574 . S
C1246 C1262 1.368 . S
H1247 C1255 0.950 . S
H1248 C1253 0.950 . S
H1249 C1254 0.949 . S
H1250 C1256 0.950 . S
H1251 C1257 0.950 . S
H1252 C1258 0.949 . S
C1253 H1248 0.950 . S
C1253 C1255 1.327 . S
C1253 C1259 1.429 . S
C1254 C1246 1.574 . S
C1254 H1249 0.949 . S
C1254 C1260 1.368 . S
C1255 C1239 1.349 . S
C1255 H1247 0.950 . S
C1255 C1253 1.327 . S
C1256 C1244 1.349 . S
C1256 H1250 0.950 . S
C1256 C1257 1.327 . S
C1257 H1251 0.950 . S
C1257 C1256 1.327 . S
C1257 C1261 1.429 . S
C1258 C1241 1.574 . S
C1258 H1252 0.949 . S
C1258 C1262 1.368 . S
C1259 C1240 1.429 . S
C1259 C1253 1.429 . S
C1259 C1260 1.523 . S
C1260 C1241 1.368 . S
C1260 C1254 1.368 . S
C1260 C1259 1.523 . S
C1261 C1245 1.429 . S
C1261 C1257 1.429 . S
C1261 C1262 1.523 . S
C1262 C1246 1.368 . S
C1262 C1258 1.368 . S
C1262 C1261 1.523 . S
H1263 C1238 0.950 . S
H1264 C1240 0.950 . S
H1265 C1241 0.949 . S
H1266 C1243 0.950 . S
H1267 C1245 0.950 . S
C1268 C1269 1.349 . S
C1268 C1270 1.327 . S
C1268 H1293 0.950 . S
C1269 C1268 1.349 . S
C1269 C1285 1.349 1_545 S
C1270 C1268 1.327 . S
C1270 C1289 1.429 . S
C1270 H1294 0.950 . S
C1271 C1288 1.574 . S
C1271 C1290 1.368 1_565 S
C1271 H1295 0.949 . S
H1272 C1276 0.949 . S
C1273 C1274 1.349 . S
C1273 C1275 1.327 . S
C1273 H1296 0.950 . S
C1274 C1273 1.349 . S
C1274 C1286 1.349 1_565 S
C1275 C1273 1.327 . S
C1275 C1291 1.429 . S
C1275 H1297 0.950 . S
C1276 H1272 0.949 . S
C1276 C1284 1.574 . S
C1276 C1292 1.368 1_545 S
H1277 C1285 0.950 . S
H1278 C1283 0.950 . S
H1279 C1284 0.949 . S
H1280 C1286 0.950 . S
H1281 C1287 0.950 . S
H1282 C1288 0.949 . S
C1283 H1278 0.950 . S
C1283 C1285 1.327 . S
C1283 C1289 1.429 1_565 S
C1284 C1276 1.574 . S
C1284 H1279 0.949 . S
C1284 C1290 1.368 . S
C1285 C1269 1.349 1_565 S
C1285 H1277 0.950 . S
C1285 C1283 1.327 . S
C1286 C1274 1.349 1_545 S
C1286 H1280 0.950 . S
C1286 C1287 1.327 . S
C1287 H1281 0.950 . S
C1287 C1286 1.327 . S
C1287 C1291 1.429 1_545 S
C1288 C1271 1.574 . S
C1288 H1282 0.949 . S
C1288 C1292 1.368 . S
C1289 C1270 1.429 . S
C1289 C1283 1.429 1_545 S
C1289 C1290 1.523 . S
C1290 C1271 1.368 1_545 S
C1290 C1284 1.368 . S
C1290 C1289 1.523 . S
C1291 C1275 1.429 . S
C1291 C1287 1.429 1_565 S
C1291 C1292 1.523 . S
C1292 C1276 1.368 1_565 S
C1292 C1288 1.368 . S
C1292 C1291 1.523 . S
H1293 C1268 0.950 . S
H1294 C1270 0.950 . S
H1295 C1271 0.949 . S
H1296 C1273 0.950 . S
H1297 C1275 0.950 . S
C1298 C1299 1.349 . S
C1298 C1300 1.327 . S
C1298 H1323 0.950 . S
C1299 C1298 1.349 . S
C1299 C1315 1.349 . S
C1300 C1298 1.327 . S
C1300 C1319 1.429 . S
C1300 H1324 0.950 . S
C1301 C1318 1.574 1_556 S
C1301 C1320 1.368 . S
C1301 H1325 0.949 . S
H1302 C1306 0.949 . S
C1303 C1304 1.349 . S
C1303 C1305 1.327 . S
C1303 H1326 0.950 . S
C1304 C1303 1.349 . S
C1304 C1316 1.349 . S
C1305 C1303 1.327 . S
C1305 C1321 1.429 . S
C1305 H1327 0.950 . S
C1306 H1302 0.949 . S
C1306 C1314 1.574 1_554 S
C1306 C1322 1.368 . S
H1307 C1315 0.950 . S
H1308 C1313 0.950 . S
H1309 C1314 0.949 . S
H1310 C1316 0.950 . S
H1311 C1317 0.950 . S
H1312 C1318 0.949 . S
C1313 H1308 0.950 . S
C1313 C1315 1.327 . S
C1313 C1319 1.429 . S
C1314 C1306 1.574 1_556 S
C1314 H1309 0.949 . S
C1314 C1320 1.368 . S
C1315 C1299 1.349 . S
C1315 H1307 0.950 . S
C1315 C1313 1.327 . S
C1316 C1304 1.349 . S
C1316 H1310 0.950 . S
C1316 C1317 1.327 . S
C1317 H1311 0.950 . S
C1317 C1316 1.327 . S
C1317 C1321 1.429 . S
C1318 C1301 1.574 1_554 S
C1318 H1312 0.949 . S
C1318 C1322 1.368 . S
C1319 C1300 1.429 . S
C1319 C1313 1.429 . S
C1319 C1320 1.523 . S
C1320 C1301 1.368 . S
C1320 C1314 1.368 . S
C1320 C1319 1.523 . S
C1321 C1305 1.429 . S
C1321 C1317 1.429 . S
C1321 C1322 1.523 . S
C1322 C1306 1.368 . S
C1322 C1318 1.368 . S
C1322 C1321 1.523 . S
H1323 C1298 0.950 . S
H1324 C1300 0.950 . S
H1325 C1301 0.949 . S
H1326 C1303 0.950 . S
H1327 C1305 0.950 . S
C1328 C1329 1.349 . S
C1328 C1330 1.327 . S
C1328 H1353 0.950 . S
C1329 C1328 1.349 . S
C1329 C1345 1.349 . S
C1330 C1328 1.327 . S
C1330 C1349 1.429 . S
C1330 H1354 0.950 . S
C1331 C1348 1.574 . S
C1331 C1350 1.368 . S
C1331 H1355 0.949 . S
H1332 C1336 0.949 . S
C1333 C1334 1.349 . S
C1333 C1335 1.327 . S
C1333 H1356 0.950 . S
C1334 C1333 1.349 . S
C1334 C1346 1.349 . S
C1335 C1333 1.327 . S
C1335 C1351 1.429 . S
C1335 H1357 0.950 . S
C1336 H1332 0.949 . S
C1336 C1344 1.574 . S
C1336 C1352 1.368 . S
H1337 C1345 0.950 . S
H1338 C1343 0.950 . S
H1339 C1344 0.949 . S
H1340 C1346 0.950 . S
H1341 C1347 0.950 . S
H1342 C1348 0.949 . S
C1343 H1338 0.950 . S
C1343 C1345 1.327 . S
C1343 C1349 1.429 . S
C1344 C1336 1.574 . S
C1344 H1339 0.949 . S
C1344 C1350 1.368 . S
C1345 C1329 1.349 . S
C1345 H1337 0.950 . S
C1345 C1343 1.327 . S
C1346 C1334 1.349 . S
C1346 H1340 0.950 . S
C1346 C1347 1.327 . S
C1347 H1341 0.950 . S
C1347 C1346 1.327 . S
C1347 C1351 1.429 . S
C1348 C1331 1.574 . S
C1348 H1342 0.949 . S
C1348 C1352 1.368 . S
C1349 C1330 1.429 . S
C1349 C1343 1.429 . S
C1349 C1350 1.523 . S
C1350 C1331 1.368 . S
C1350 C1344 1.368 . S
C1350 C1349 1.523 . S
C1351 C1335 1.429 . S
C1351 C1347 1.429 . S
C1351 C1352 1.523 . S
C1352 C1336 1.368 . S
C1352 C1348 1.368 . S
C1352 C1351 1.523 . S
H1353 C1328 0.950 . S
H1354 C1330 0.950 . S
H1355 C1331 0.949 . S
H1356 C1333 0.950 . S
H1357 C1335 0.950 . S
C1358 C1359 1.349 . S
C1358 C1360 1.327 . S
C1358 H1383 0.950 . S
C1359 C1358 1.349 . S
C1359 C1375 1.349 . S
C1360 C1358 1.327 . S
C1360 C1379 1.429 . S
C1360 H1384 0.950 . S
C1361 C1378 1.574 1_556 S
C1361 C1380 1.368 . S
C1361 H1385 0.949 . S
H1362 C1366 0.949 . S
C1363 C1364 1.349 . S
C1363 C1365 1.327 . S
C1363 H1386 0.950 . S
C1364 C1363 1.349 . S
C1364 C1376 1.349 . S
C1365 C1363 1.327 . S
C1365 C1381 1.429 . S
C1365 H1387 0.950 . S
C1366 H1362 0.949 . S
C1366 C1374 1.574 1_554 S
C1366 C1382 1.368 . S
H1367 C1375 0.950 . S
H1368 C1373 0.950 . S
H1369 C1374 0.949 . S
H1370 C1376 0.950 . S
H1371 C1377 0.950 . S
H1372 C1378 0.949 . S
C1373 H1368 0.950 . S
C1373 C1375 1.327 . S
C1373 C1379 1.429 . S
C1374 C1366 1.574 1_556 S
C1374 H1369 0.949 . S
C1374 C1380 1.368 . S
C1375 C1359 1.349 . S
C1375 H1367 0.950 . S
C1375 C1373 1.327 . S
C1376 C1364 1.349 . S
C1376 H1370 0.950 . S
C1376 C1377 1.327 . S
C1377 H1371 0.950 . S
C1377 C1376 1.327 . S
C1377 C1381 1.429 . S
C1378 C1361 1.574 1_554 S
C1378 H1372 0.949 . S
C1378 C1382 1.368 . S
C1379 C1360 1.429 . S
C1379 C1373 1.429 . S
C1379 C1380 1.523 . S
C1380 C1361 1.368 . S
C1380 C1374 1.368 . S
C1380 C1379 1.523 . S
C1381 C1365 1.429 . S
C1381 C1377 1.429 . S
C1381 C1382 1.523 . S
C1382 C1366 1.368 . S
C1382 C1378 1.368 . S
C1382 C1381 1.523 . S
H1383 C1358 0.950 . S
H1384 C1360 0.950 . S
H1385 C1361 0.949 . S
H1386 C1363 0.950 . S
H1387 C1365 0.950 . S
C1388 C1389 1.349 . S
C1388 C1390 1.327 . S
C1388 H1413 0.950 . S
C1389 C1388 1.349 . S
C1389 C1405 1.349 . S
C1390 C1388 1.327 . S
C1390 C1409 1.429 . S
C1390 H1414 0.950 . S
C1391 C1408 1.574 . S
C1391 C1410 1.368 . S
C1391 H1415 0.949 . S
H1392 C1396 0.949 . S
C1393 C1394 1.349 . S
C1393 C1395 1.327 . S
C1393 H1416 0.950 . S
C1394 C1393 1.349 . S
C1394 C1406 1.349 . S
C1395 C1393 1.327 . S
C1395 C1411 1.429 . S
C1395 H1417 0.950 . S
C1396 H1392 0.949 . S
C1396 C1404 1.574 . S
C1396 C1412 1.368 . S
H1397 C1405 0.950 . S
H1398 C1403 0.950 . S
H1399 C1404 0.949 . S
H1400 C1406 0.950 . S
H1401 C1407 0.950 . S
H1402 C1408 0.949 . S
C1403 H1398 0.950 . S
C1403 C1405 1.327 . S
C1403 C1409 1.429 . S
C1404 C1396 1.574 . S
C1404 H1399 0.949 . S
C1404 C1410 1.368 . S
C1405 C1389 1.349 . S
C1405 H1397 0.950 . S
C1405 C1403 1.327 . S
C1406 C1394 1.349 . S
C1406 H1400 0.950 . S
C1406 C1407 1.327 . S
C1407 H1401 0.950 . S
C1407 C1406 1.327 . S
C1407 C1411 1.429 . S
C1408 C1391 1.574 . S
C1408 H1402 0.949 . S
C1408 C1412 1.368 . S
C1409 C1390 1.429 . S
C1409 C1403 1.429 . S
C1409 C1410 1.523 . S
C1410 C1391 1.368 . S
C1410 C1404 1.368 . S
C1410 C1409 1.523 . S
C1411 C1395 1.429 . S
C1411 C1407 1.429 . S
C1411 C1412 1.523 . S
C1412 C1396 1.368 . S
C1412 C1408 1.368 . S
C1412 C1411 1.523 . S
H1413 C1388 0.950 . S
H1414 C1390 0.950 . S
H1415 C1391 0.949 . S
H1416 C1393 0.950 . S
H1417 C1395 0.950 . S
C1418 C1419 1.349 . S
C1418 C1420 1.327 . S
C1418 H1443 0.950 . S
C1419 C1418 1.349 . S
C1419 C1435 1.349 . S
C1420 C1418 1.327 . S
C1420 C1439 1.429 . S
C1420 H1444 0.950 . S
C1421 C1438 1.574 . S
C1421 C1440 1.368 . S
C1421 H1445 0.949 . S
H1422 C1426 0.949 . S
C1423 C1424 1.349 . S
C1423 C1425 1.327 . S
C1423 H1446 0.950 . S
C1424 C1423 1.349 . S
C1424 C1436 1.349 . S
C1425 C1423 1.327 . S
C1425 C1441 1.429 . S
C1425 H1447 0.950 . S
C1426 H1422 0.949 . S
C1426 C1434 1.574 . S
C1426 C1442 1.368 . S
H1427 C1435 0.950 . S
H1428 C1433 0.950 . S
H1429 C1434 0.949 . S
H1430 C1436 0.950 . S
H1431 C1437 0.950 . S
H1432 C1438 0.949 . S
C1433 H1428 0.950 . S
C1433 C1435 1.327 . S
C1433 C1439 1.429 . S
C1434 C1426 1.574 . S
C1434 H1429 0.949 . S
C1434 C1440 1.368 . S
C1435 C1419 1.349 . S
C1435 H1427 0.950 . S
C1435 C1433 1.327 . S
C1436 C1424 1.349 . S
C1436 H1430 0.950 . S
C1436 C1437 1.327 . S
C1437 H1431 0.950 . S
C1437 C1436 1.327 . S
C1437 C1441 1.429 . S
C1438 C1421 1.574 . S
C1438 H1432 0.949 . S
C1438 C1442 1.368 . S
C1439 C1420 1.429 . S
C1439 C1433 1.429 . S
C1439 C1440 1.523 . S
C1440 C1421 1.368 . S
C1440 C1434 1.368 . S
C1440 C1439 1.523 . S
C1441 C1425 1.429 . S
C1441 C1437 1.429 . S
C1441 C1442 1.523 . S
C1442 C1426 1.368 . S
C1442 C1438 1.368 . S
C1442 C1441 1.523 . S
H1443 C1418 0.950 . S
H1444 C1420 0.950 . S
H1445 C1421 0.949 . S
H1446 C1423 0.950 . S
H1447 C1425 0.950 . S
C1448 C1449 1.349 . S
C1448 C1450 1.327 . S
C1448 H1473 0.950 . S
C1449 C1448 1.349 . S
C1449 C1465 1.349 . S
C1450 C1448 1.327 . S
C1450 C1469 1.429 . S
C1450 H1474 0.950 . S
C1451 C1468 1.574 . S
C1451 C1470 1.368 . S
C1451 H1475 0.949 . S
H1452 C1456 0.949 . S
C1453 C1454 1.349 . S
C1453 C1455 1.327 . S
C1453 H1476 0.950 . S
C1454 C1453 1.349 . S
C1454 C1466 1.349 . S
C1455 C1453 1.327 . S
C1455 C1471 1.429 . S
C1455 H1477 0.950 . S
C1456 H1452 0.949 . S
C1456 C1464 1.574 . S
C1456 C1472 1.368 . S
H1457 C1465 0.950 . S
H1458 C1463 0.950 . S
H1459 C1464 0.949 . S
H1460 C1466 0.950 . S
H1461 C1467 0.950 . S
H1462 C1468 0.949 . S
C1463 H1458 0.950 . S
C1463 C1465 1.327 . S
C1463 C1469 1.429 . S
C1464 C1456 1.574 . S
C1464 H1459 0.949 . S
C1464 C1470 1.368 . S
C1465 C1449 1.349 . S
C1465 H1457 0.950 . S
C1465 C1463 1.327 . S
C1466 C1454 1.349 . S
C1466 H1460 0.950 . S
C1466 C1467 1.327 . S
C1467 H1461 0.950 . S
C1467 C1466 1.327 . S
C1467 C1471 1.429 . S
C1468 C1451 1.574 . S
C1468 H1462 0.949 . S
C1468 C1472 1.368 . S
C1469 C1450 1.429 . S
C1469 C1463 1.429 . S
C1469 C1470 1.523 . S
C1470 C1451 1.368 . S
C1470 C1464 1.368 . S
C1470 C1469 1.523 . S
C1471 C1455 1.429 . S
C1471 C1467 1.429 . S
C1471 C1472 1.523 . S
C1472 C1456 1.368 . S
C1472 C1468 1.368 . S
C1472 C1471 1.523 . S
H1473 C1448 0.950 . S
H1474 C1450 0.950 . S
H1475 C1451 0.949 . S
H1476 C1453 0.950 . S
H1477 C1455 0.950 . S
C1478 C1479 1.349 . S
C1478 C1480 1.327 . S
C1478 H1503 0.950 . S
C1479 C1478 1.349 . S
C1479 C1495 1.349 . S
C1480 C1478 1.327 . S
C1480 C1499 1.429 . S
C1480 H1504 0.950 . S
C1481 C1498 1.574 1_554 S
C1481 C1500 1.368 . S
C1481 H1505 0.949 . S
H1482 C1486 0.949 . S
C1483 C1484 1.349 . S
C1483 C1485 1.327 . S
C1483 H1506 0.950 . S
C1484 C1483 1.349 . S
C1484 C1496 1.349 . S
C1485 C1483 1.327 . S
C1485 C1501 1.429 . S
C1485 H1507 0.950 . S
C1486 H1482 0.949 . S
C1486 C1494 1.574 1_556 S
C1486 C1502 1.368 . S
H1487 C1495 0.950 . S
H1488 C1493 0.950 . S
H1489 C1494 0.949 . S
H1490 C1496 0.950 . S
H1491 C1497 0.950 . S
H1492 C1498 0.949 . S
C1493 H1488 0.950 . S
C1493 C1495 1.327 . S
C1493 C1499 1.429 . S
C1494 C1486 1.574 1_554 S
C1494 H1489 0.949 . S
C1494 C1500 1.368 . S
C1495 C1479 1.349 . S
C1495 H1487 0.950 . S
C1495 C1493 1.327 . S
C1496 C1484 1.349 . S
C1496 H1490 0.950 . S
C1496 C1497 1.327 . S
C1497 H1491 0.950 . S
C1497 C1496 1.327 . S
C1497 C1501 1.429 . S
C1498 C1481 1.574 1_556 S
C1498 H1492 0.949 . S
C1498 C1502 1.368 . S
C1499 C1480 1.429 . S
C1499 C1493 1.429 . S
C1499 C1500 1.523 . S
C1500 C1481 1.368 . S
C1500 C1494 1.368 . S
C1500 C1499 1.523 . S
C1501 C1485 1.429 . S
C1501 C1497 1.429 . S
C1501 C1502 1.523 . S
C1502 C1486 1.368 . S
C1502 C1498 1.368 . S
C1502 C1501 1.523 . S
H1503 C1478 0.950 . S
H1504 C1480 0.950 . S
H1505 C1481 0.949 . S
H1506 C1483 0.950 . S
H1507 C1485 0.950 . S
C1508 C1509 1.349 . S
C1508 C1510 1.327 . S
C1508 H1533 0.950 . S
C1509 C1508 1.349 . S
C1509 C1525 1.349 . S
C1510 C1508 1.327 . S
C1510 C1529 1.429 . S
C1510 H1534 0.950 . S
C1511 C1528 1.574 . S
C1511 C1530 1.368 . S
C1511 H1535 0.949 . S
H1512 C1516 0.949 . S
C1513 C1514 1.349 . S
C1513 C1515 1.327 . S
C1513 H1536 0.950 . S
C1514 C1513 1.349 . S
C1514 C1526 1.349 . S
C1515 C1513 1.327 . S
C1515 C1531 1.429 . S
C1515 H1537 0.950 . S
C1516 H1512 0.949 . S
C1516 C1524 1.574 . S
C1516 C1532 1.368 . S
H1517 C1525 0.950 . S
H1518 C1523 0.950 . S
H1519 C1524 0.949 . S
H1520 C1526 0.950 . S
H1521 C1527 0.950 . S
H1522 C1528 0.949 . S
C1523 H1518 0.950 . S
C1523 C1525 1.327 . S
C1523 C1529 1.429 . S
C1524 C1516 1.574 . S
C1524 H1519 0.949 . S
C1524 C1530 1.368 . S
C1525 C1509 1.349 . S
C1525 H1517 0.950 . S
C1525 C1523 1.327 . S
C1526 C1514 1.349 . S
C1526 H1520 0.950 . S
C1526 C1527 1.327 . S
C1527 H1521 0.950 . S
C1527 C1526 1.327 . S
C1527 C1531 1.429 . S
C1528 C1511 1.574 . S
C1528 H1522 0.949 . S
C1528 C1532 1.368 . S
C1529 C1510 1.429 . S
C1529 C1523 1.429 . S
C1529 C1530 1.523 . S
C1530 C1511 1.368 . S
C1530 C1524 1.368 . S
C1530 C1529 1.523 . S
C1531 C1515 1.429 . S
C1531 C1527 1.429 . S
C1531 C1532 1.523 . S
C1532 C1516 1.368 . S
C1532 C1528 1.368 . S
C1532 C1531 1.523 . S
H1533 C1508 0.950 . S
H1534 C1510 0.950 . S
H1535 C1511 0.949 . S
H1536 C1513 0.950 . S
H1537 C1515 0.950 . S
C1538 C1539 1.349 . S
C1538 C1540 1.327 . S
C1538 H1563 0.950 . S
C1539 C1538 1.349 . S
C1539 C1555 1.349 . S
C1540 C1538 1.327 . S
C1540 C1559 1.429 . S
C1540 H1564 0.950 . S
C1541 C1558 1.574 . S
C1541 C1560 1.368 . S
C1541 H1565 0.949 . S
H1542 C1546 0.949 . S
C1543 C1544 1.349 . S
C1543 C1545 1.327 . S
C1543 H1566 0.950 . S
C1544 C1543 1.349 . S
C1544 C1556 1.349 . S
C1545 C1543 1.327 . S
C1545 C1561 1.429 . S
C1545 H1567 0.950 . S
C1546 H1542 0.949 . S
C1546 C1554 1.574 . S
C1546 C1562 1.368 . S
H1547 C1555 0.950 . S
H1548 C1553 0.950 . S
H1549 C1554 0.949 . S
H1550 C1556 0.950 . S
H1551 C1557 0.950 . S
H1552 C1558 0.949 . S
C1553 H1548 0.950 . S
C1553 C1555 1.327 . S
C1553 C1559 1.429 . S
C1554 C1546 1.574 . S
C1554 H1549 0.949 . S
C1554 C1560 1.368 . S
C1555 C1539 1.349 . S
C1555 H1547 0.950 . S
C1555 C1553 1.327 . S
C1556 C1544 1.349 . S
C1556 H1550 0.950 . S
C1556 C1557 1.327 . S
C1557 H1551 0.950 . S
C1557 C1556 1.327 . S
C1557 C1561 1.429 . S
C1558 C1541 1.574 . S
C1558 H1552 0.949 . S
C1558 C1562 1.368 . S
C1559 C1540 1.429 . S
C1559 C1553 1.429 . S
C1559 C1560 1.523 . S
C1560 C1541 1.368 . S
C1560 C1554 1.368 . S
C1560 C1559 1.523 . S
C1561 C1545 1.429 . S
C1561 C1557 1.429 . S
C1561 C1562 1.523 . S
C1562 C1546 1.368 . S
C1562 C1558 1.368 . S
C1562 C1561 1.523 . S
H1563 C1538 0.950 . S
H1564 C1540 0.950 . S
H1565 C1541 0.949 . S
H1566 C1543 0.950 . S
H1567 C1545 0.950 . S
C1568 C1569 1.349 . S
C1568 C1570 1.327 . S
C1568 H1593 0.950 . S
C1569 C1568 1.349 . S
C1569 C1585 1.349 . S
C1570 C1568 1.327 . S
C1570 C1589 1.429 . S
C1570 H1594 0.950 . S
C1571 C1588 1.574 . S
C1571 C1590 1.368 1_655 S
C1571 H1595 0.949 . S
H1572 C1576 0.949 . S
C1573 C1574 1.349 . S
C1573 C1575 1.327 . S
C1573 H1596 0.950 . S
C1574 C1573 1.349 . S
C1574 C1586 1.349 . S
C1575 C1573 1.327 . S
C1575 C1591 1.429 . S
C1575 H1597 0.950 . S
C1576 H1572 0.949 . S
C1576 C1584 1.574 . S
C1576 C1592 1.368 1_455 S
H1577 C1585 0.950 . S
H1578 C1583 0.950 . S
H1579 C1584 0.949 . S
H1580 C1586 0.950 . S
H1581 C1587 0.950 . S
H1582 C1588 0.949 . S
C1583 H1578 0.950 . S
C1583 C1585 1.327 . S
C1583 C1589 1.429 . S
C1584 C1576 1.574 . S
C1584 H1579 0.949 . S
C1584 C1590 1.368 . S
C1585 C1569 1.349 . S
C1585 H1577 0.950 . S
C1585 C1583 1.327 . S
C1586 C1574 1.349 . S
C1586 H1580 0.950 . S
C1586 C1587 1.327 . S
C1587 H1581 0.950 . S
C1587 C1586 1.327 . S
C1587 C1591 1.429 . S
C1588 C1571 1.574 . S
C1588 H1582 0.949 . S
C1588 C1592 1.368 . S
C1589 C1570 1.429 . S
C1589 C1583 1.429 . S
C1589 C1590 1.523 . S
C1590 C1571 1.368 1_455 S
C1590 C1584 1.368 . S
C1590 C1589 1.523 . S
C1591 C1575 1.429 . S
C1591 C1587 1.429 . S
C1591 C1592 1.523 . S
C1592 C1576 1.368 1_655 S
C1592 C1588 1.368 . S
C1592 C1591 1.523 . S
H1593 C1568 0.950 . S
H1594 C1570 0.950 . S
H1595 C1571 0.949 . S
H1596 C1573 0.950 . S
H1597 C1575 0.950 . S
C1598 C1599 1.349 . S
C1598 C1600 1.327 . S
C1598 H1623 0.950 . S
C1599 C1598 1.349 . S
C1599 C1615 1.349 . S
C1600 C1598 1.327 . S
C1600 C1619 1.429 . S
C1600 H1624 0.950 . S
C1601 C1618 1.574 1_455 S
C1601 C1620 1.368 . S
C1601 H1625 0.949 . S
H1602 C1606 0.949 . S
C1603 C1604 1.349 . S
C1603 C1605 1.327 . S
C1603 H1626 0.950 . S
C1604 C1603 1.349 . S
C1604 C1616 1.349 . S
C1605 C1603 1.327 . S
C1605 C1621 1.429 . S
C1605 H1627 0.950 . S
C1606 H1602 0.949 . S
C1606 C1614 1.574 1_655 S
C1606 C1622 1.368 . S
H1607 C1615 0.950 . S
H1608 C1613 0.950 . S
H1609 C1614 0.949 . S
H1610 C1616 0.950 . S
H1611 C1617 0.950 . S
H1612 C1618 0.949 . S
C1613 H1608 0.950 . S
C1613 C1615 1.327 . S
C1613 C1619 1.429 . S
C1614 C1606 1.574 1_455 S
C1614 H1609 0.949 . S
C1614 C1620 1.368 . S
C1615 C1599 1.349 . S
C1615 H1607 0.950 . S
C1615 C1613 1.327 . S
C1616 C1604 1.349 . S
C1616 H1610 0.950 . S
C1616 C1617 1.327 . S
C1617 H1611 0.950 . S
C1617 C1616 1.327 . S
C1617 C1621 1.429 . S
C1618 C1601 1.574 1_655 S
C1618 H1612 0.949 . S
C1618 C1622 1.368 . S
C1619 C1600 1.429 . S
C1619 C1613 1.429 . S
C1619 C1620 1.523 . S
C1620 C1601 1.368 . S
C1620 C1614 1.368 . S
C1620 C1619 1.523 . S
C1621 C1605 1.429 . S
C1621 C1617 1.429 . S
C1621 C1622 1.523 . S
C1622 C1606 1.368 . S
C1622 C1618 1.368 . S
C1622 C1621 1.523 . S
H1623 C1598 0.950 . S
H1624 C1600 0.950 . S
H1625 C1601 0.949 . S
H1626 C1603 0.950 . S
H1627 C1605 0.950 . S
C1628 C1629 1.349 . S
C1628 C1630 1.327 . S
C1628 H1653 0.950 . S
C1629 C1628 1.349 . S
C1629 C1645 1.349 . S
C1630 C1628 1.327 . S
C1630 C1649 1.429 . S
C1630 H1654 0.950 . S
C1631 C1648 1.574 . S
C1631 C1650 1.368 . S
C1631 H1655 0.949 . S
H1632 C1636 0.949 . S
C1633 C1634 1.349 . S
C1633 C1635 1.327 . S
C1633 H1656 0.950 . S
C1634 C1633 1.349 . S
C1634 C1646 1.349 . S
C1635 C1633 1.327 . S
C1635 C1651 1.429 . S
C1635 H1657 0.950 . S
C1636 H1632 0.949 . S
C1636 C1644 1.574 . S
C1636 C1652 1.368 . S
H1637 C1645 0.950 . S
H1638 C1643 0.950 . S
H1639 C1644 0.949 . S
H1640 C1646 0.950 . S
H1641 C1647 0.950 . S
H1642 C1648 0.949 . S
C1643 H1638 0.950 . S
C1643 C1645 1.327 . S
C1643 C1649 1.429 . S
C1644 C1636 1.574 . S
C1644 H1639 0.949 . S
C1644 C1650 1.368 . S
C1645 C1629 1.349 . S
C1645 H1637 0.950 . S
C1645 C1643 1.327 . S
C1646 C1634 1.349 . S
C1646 H1640 0.950 . S
C1646 C1647 1.327 . S
C1647 H1641 0.950 . S
C1647 C1646 1.327 . S
C1647 C1651 1.429 . S
C1648 C1631 1.574 . S
C1648 H1642 0.949 . S
C1648 C1652 1.368 . S
C1649 C1630 1.429 . S
C1649 C1643 1.429 . S
C1649 C1650 1.523 . S
C1650 C1631 1.368 . S
C1650 C1644 1.368 . S
C1650 C1649 1.523 . S
C1651 C1635 1.429 . S
C1651 C1647 1.429 . S
C1651 C1652 1.523 . S
C1652 C1636 1.368 . S
C1652 C1648 1.368 . S
C1652 C1651 1.523 . S
H1653 C1628 0.950 . S
H1654 C1630 0.950 . S
H1655 C1631 0.949 . S
H1656 C1633 0.950 . S
H1657 C1635 0.950 . S
C1658 C1659 1.349 . S
C1658 C1660 1.327 . S
C1658 H1683 0.950 . S
C1659 C1658 1.349 . S
C1659 C1675 1.349 . S
C1660 C1658 1.327 . S
C1660 C1679 1.429 . S
C1660 H1684 0.950 . S
C1661 C1678 1.574 . S
C1661 C1680 1.368 . S
C1661 H1685 0.949 . S
H1662 C1666 0.949 . S
C1663 C1664 1.349 . S
C1663 C1665 1.327 . S
C1663 H1686 0.950 . S
C1664 C1663 1.349 . S
C1664 C1676 1.349 . S
C1665 C1663 1.327 . S
C1665 C1681 1.429 . S
C1665 H1687 0.950 . S
C1666 H1662 0.949 . S
C1666 C1674 1.574 . S
C1666 C1682 1.368 . S
H1667 C1675 0.950 . S
H1668 C1673 0.950 . S
H1669 C1674 0.949 . S
H1670 C1676 0.950 . S
H1671 C1677 0.950 . S
H1672 C1678 0.949 . S
C1673 H1668 0.950 . S
C1673 C1675 1.327 . S
C1673 C1679 1.429 . S
C1674 C1666 1.574 . S
C1674 H1669 0.949 . S
C1674 C1680 1.368 . S
C1675 C1659 1.349 . S
C1675 H1667 0.950 . S
C1675 C1673 1.327 . S
C1676 C1664 1.349 . S
C1676 H1670 0.950 . S
C1676 C1677 1.327 . S
C1677 H1671 0.950 . S
C1677 C1676 1.327 . S
C1677 C1681 1.429 . S
C1678 C1661 1.574 . S
C1678 H1672 0.949 . S
C1678 C1682 1.368 . S
C1679 C1660 1.429 . S
C1679 C1673 1.429 . S
C1679 C1680 1.523 . S
C1680 C1661 1.368 . S
C1680 C1674 1.368 . S
C1680 C1679 1.523 . S
C1681 C1665 1.429 . S
C1681 C1677 1.429 . S
C1681 C1682 1.523 . S
C1682 C1666 1.368 . S
C1682 C1678 1.368 . S
C1682 C1681 1.523 . S
H1683 C1658 0.950 . S
H1684 C1660 0.950 . S
H1685 C1661 0.949 . S
H1686 C1663 0.950 . S
H1687 C1665 0.950 . S
C1688 C1689 1.349 . S
C1688 C1690 1.327 . S
C1688 H1713 0.950 . S
C1689 C1688 1.349 . S
C1689 C1705 1.349 . S
C1690 C1688 1.327 . S
C1690 C1709 1.429 . S
C1690 H1714 0.950 . S
C1691 C1708 1.574 . S
C1691 C1710 1.368 1_655 S
C1691 H1715 0.949 . S
H1692 C1696 0.949 . S
C1693 C1694 1.349 . S
C1693 C1695 1.327 . S
C1693 H1716 0.950 . S
C1694 C1693 1.349 . S
C1694 C1706 1.349 . S
C1695 C1693 1.327 . S
C1695 C1711 1.429 . S
C1695 H1717 0.950 . S
C1696 H1692 0.949 . S
C1696 C1704 1.574 . S
C1696 C1712 1.368 1_455 S
H1697 C1705 0.950 . S
H1698 C1703 0.950 . S
H1699 C1704 0.949 . S
H1700 C1706 0.950 . S
H1701 C1707 0.950 . S
H1702 C1708 0.949 . S
C1703 H1698 0.950 . S
C1703 C1705 1.327 . S
C1703 C1709 1.429 . S
C1704 C1696 1.574 . S
C1704 H1699 0.949 . S
C1704 C1710 1.368 . S
C1705 C1689 1.349 . S
C1705 H1697 0.950 . S
C1705 C1703 1.327 . S
C1706 C1694 1.349 . S
C1706 H1700 0.950 . S
C1706 C1707 1.327 . S
C1707 H1701 0.950 . S
C1707 C1706 1.327 . S
C1707 C1711 1.429 . S
C1708 C1691 1.574 . S
C1708 H1702 0.949 . S
C1708 C1712 1.368 . S
C1709 C1690 1.429 . S
C1709 C1703 1.429 . S
C1709 C1710 1.523 . S
C1710 C1691 1.368 1_455 S
C1710 C1704 1.368 . S
C1710 C1709 1.523 . S
C1711 C1695 1.429 . S
C1711 C1707 1.429 . S
C1711 C1712 1.523 . S
C1712 C1696 1.368 1_655 S
C1712 C1708 1.368 . S
C1712 C1711 1.523 . S
H1713 C1688 0.950 . S
H1714 C1690 0.950 . S
H1715 C1691 0.949 . S
H1716 C1693 0.950 . S
H1717 C1695 0.950 . S
C1718 C1719 1.349 . S
C1718 C1720 1.327 . S
C1718 H1743 0.950 . S
C1719 C1718 1.349 . S
C1719 C1735 1.349 . S
C1720 C1718 1.327 . S
C1720 C1739 1.429 . S
C1720 H1744 0.950 . S
C1721 C1738 1.574 . S
C1721 C1740 1.368 . S
C1721 H1745 0.949 . S
H1722 C1726 0.949 . S
C1723 C1724 1.349 . S
C1723 C1725 1.327 . S
C1723 H1746 0.950 . S
C1724 C1723 1.349 . S
C1724 C1736 1.349 . S
C1725 C1723 1.327 . S
C1725 C1741 1.429 . S
C1725 H1747 0.950 . S
C1726 H1722 0.949 . S
C1726 C1734 1.574 . S
C1726 C1742 1.368 . S
H1727 C1735 0.950 . S
H1728 C1733 0.950 . S
H1729 C1734 0.949 . S
H1730 C1736 0.950 . S
H1731 C1737 0.950 . S
H1732 C1738 0.949 . S
C1733 H1728 0.950 . S
C1733 C1735 1.327 . S
C1733 C1739 1.429 . S
C1734 C1726 1.574 . S
C1734 H1729 0.949 . S
C1734 C1740 1.368 . S
C1735 C1719 1.349 . S
C1735 H1727 0.950 . S
C1735 C1733 1.327 . S
C1736 C1724 1.349 . S
C1736 H1730 0.950 . S
C1736 C1737 1.327 . S
C1737 H1731 0.950 . S
C1737 C1736 1.327 . S
C1737 C1741 1.429 . S
C1738 C1721 1.574 . S
C1738 H1732 0.949 . S
C1738 C1742 1.368 . S
C1739 C1720 1.429 . S
C1739 C1733 1.429 . S
C1739 C1740 1.523 . S
C1740 C1721 1.368 . S
C1740 C1734 1.368 . S
C1740 C1739 1.523 . S
C1741 C1725 1.429 . S
C1741 C1737 1.429 . S
C1741 C1742 1.523 . S
C1742 C1726 1.368 . S
C1742 C1738 1.368 . S
C1742 C1741 1.523 . S
H1743 C1718 0.950 . S
H1744 C1720 0.950 . S
H1745 C1721 0.949 . S
H1746 C1723 0.950 . S
H1747 C1725 0.950 . S
C1748 C1749 1.349 . S
C1748 C1750 1.327 . S
C1748 H1773 0.950 . S
C1749 C1748 1.349 . S
C1749 C1765 1.349 . S
C1750 C1748 1.327 . S
C1750 C1769 1.429 . S
C1750 H1774 0.950 . S
C1751 C1768 1.574 . S
C1751 C1770 1.368 . S
C1751 H1775 0.949 . S
H1752 C1756 0.949 . S
C1753 C1754 1.349 . S
C1753 C1755 1.327 . S
C1753 H1776 0.950 . S
C1754 C1753 1.349 . S
C1754 C1766 1.349 . S
C1755 C1753 1.327 . S
C1755 C1771 1.429 . S
C1755 H1777 0.950 . S
C1756 H1752 0.949 . S
C1756 C1764 1.574 . S
C1756 C1772 1.368 . S
H1757 C1765 0.950 . S
H1758 C1763 0.950 . S
H1759 C1764 0.949 . S
H1760 C1766 0.950 . S
H1761 C1767 0.950 . S
H1762 C1768 0.949 . S
C1763 H1758 0.950 . S
C1763 C1765 1.327 . S
C1763 C1769 1.429 . S
C1764 C1756 1.574 . S
C1764 H1759 0.949 . S
C1764 C1770 1.368 . S
C1765 C1749 1.349 . S
C1765 H1757 0.950 . S
C1765 C1763 1.327 . S
C1766 C1754 1.349 . S
C1766 H1760 0.950 . S
C1766 C1767 1.327 . S
C1767 H1761 0.950 . S
C1767 C1766 1.327 . S
C1767 C1771 1.429 . S
C1768 C1751 1.574 . S
C1768 H1762 0.949 . S
C1768 C1772 1.368 . S
C1769 C1750 1.429 . S
C1769 C1763 1.429 . S
C1769 C1770 1.523 . S
C1770 C1751 1.368 . S
C1770 C1764 1.368 . S
C1770 C1769 1.523 . S
C1771 C1755 1.429 . S
C1771 C1767 1.429 . S
C1771 C1772 1.523 . S
C1772 C1756 1.368 . S
C1772 C1768 1.368 . S
C1772 C1771 1.523 . S
H1773 C1748 0.950 . S
H1774 C1750 0.950 . S
H1775 C1751 0.949 . S
H1776 C1753 0.950 . S
H1777 C1755 0.950 . S
C1778 C1779 1.349 . S
C1778 C1780 1.327 . S
C1778 H1803 0.950 . S
C1779 C1778 1.349 . S
C1779 C1795 1.349 . S
C1780 C1778 1.327 . S
C1780 C1799 1.429 . S
C1780 H1804 0.950 . S
C1781 C1798 1.574 1_455 S
C1781 C1800 1.368 . S
C1781 H1805 0.949 . S
H1782 C1786 0.949 . S
C1783 C1784 1.349 . S
C1783 C1785 1.327 . S
C1783 H1806 0.950 . S
C1784 C1783 1.349 . S
C1784 C1796 1.349 . S
C1785 C1783 1.327 . S
C1785 C1801 1.429 . S
C1785 H1807 0.950 . S
C1786 H1782 0.949 . S
C1786 C1794 1.574 1_655 S
C1786 C1802 1.368 . S
H1787 C1795 0.950 . S
H1788 C1793 0.950 . S
H1789 C1794 0.949 . S
H1790 C1796 0.950 . S
H1791 C1797 0.950 . S
H1792 C1798 0.949 . S
C1793 H1788 0.950 . S
C1793 C1795 1.327 . S
C1793 C1799 1.429 . S
C1794 C1786 1.574 1_455 S
C1794 H1789 0.949 . S
C1794 C1800 1.368 . S
C1795 C1779 1.349 . S
C1795 H1787 0.950 . S
C1795 C1793 1.327 . S
C1796 C1784 1.349 . S
C1796 H1790 0.950 . S
C1796 C1797 1.327 . S
C1797 H1791 0.950 . S
C1797 C1796 1.327 . S
C1797 C1801 1.429 . S
C1798 C1781 1.574 1_655 S
C1798 H1792 0.949 . S
C1798 C1802 1.368 . S
C1799 C1780 1.429 . S
C1799 C1793 1.429 . S
C1799 C1800 1.523 . S
C1800 C1781 1.368 . S
C1800 C1794 1.368 . S
C1800 C1799 1.523 . S
C1801 C1785 1.429 . S
C1801 C1797 1.429 . S
C1801 C1802 1.523 . S
C1802 C1786 1.368 . S
C1802 C1798 1.368 . S
C1802 C1801 1.523 . S
H1803 C1778 0.950 . S
H1804 C1780 0.950 . S
H1805 C1781 0.949 . S
H1806 C1783 0.950 . S
H1807 C1785 0.950 . S
C1808 C1809 1.349 . S
C1808 C1810 1.327 . S
C1808 H1833 0.950 . S
C1809 C1808 1.349 . S
C1809 C1825 1.349 . S
C1810 C1808 1.327 . S
C1810 C1829 1.429 . S
C1810 H1834 0.950 . S
C1811 C1828 1.574 . S
C1811 C1830 1.368 1_655 S
C1811 H1835 0.949 . S
H1812 C1816 0.949 . S
C1813 C1814 1.349 . S
C1813 C1815 1.327 . S
C1813 H1836 0.950 . S
C1814 C1813 1.349 . S
C1814 C1826 1.349 . S
C1815 C1813 1.327 . S
C1815 C1831 1.429 . S
C1815 H1837 0.950 . S
C1816 H1812 0.949 . S
C1816 C1824 1.574 . S
C1816 C1832 1.368 1_455 S
H1817 C1825 0.950 . S
H1818 C1823 0.950 . S
H1819 C1824 0.949 . S
H1820 C1826 0.950 . S
H1821 C1827 0.950 . S
H1822 C1828 0.949 . S
C1823 H1818 0.950 . S
C1823 C1825 1.327 . S
C1823 C1829 1.429 . S
C1824 C1816 1.574 . S
C1824 H1819 0.949 . S
C1824 C1830 1.368 . S
C1825 C1809 1.349 . S
C1825 H1817 0.950 . S
C1825 C1823 1.327 . S
C1826 C1814 1.349 . S
C1826 H1820 0.950 . S
C1826 C1827 1.327 . S
C1827 H1821 0.950 . S
C1827 C1826 1.327 . S
C1827 C1831 1.429 . S
C1828 C1811 1.574 . S
C1828 H1822 0.949 . S
C1828 C1832 1.368 . S
C1829 C1810 1.429 . S
C1829 C1823 1.429 . S
C1829 C1830 1.523 . S
C1830 C1811 1.368 1_455 S
C1830 C1824 1.368 . S
C1830 C1829 1.523 . S
C1831 C1815 1.429 . S
C1831 C1827 1.429 . S
C1831 C1832 1.523 . S
C1832 C1816 1.368 1_655 S
C1832 C1828 1.368 . S
C1832 C1831 1.523 . S
H1833 C1808 0.950 . S
H1834 C1810 0.950 . S
H1835 C1811 0.949 . S
H1836 C1813 0.950 . S
H1837 C1815 0.950 . S
C1838 C1839 1.349 . S
C1838 C1840 1.327 . S
C1838 H1863 0.950 . S
C1839 C1838 1.349 . S
C1839 C1855 1.349 . S
C1840 C1838 1.327 . S
C1840 C1859 1.429 . S
C1840 H1864 0.950 . S
C1841 C1858 1.574 1_655 S
C1841 C1860 1.368 . S
C1841 H1865 0.949 . S
H1842 C1846 0.949 . S
C1843 C1844 1.349 . S
C1843 C1845 1.327 . S
C1843 H1866 0.950 . S
C1844 C1843 1.349 . S
C1844 C1856 1.349 . S
C1845 C1843 1.327 . S
C1845 C1861 1.429 . S
C1845 H1867 0.950 . S
C1846 H1842 0.949 . S
C1846 C1854 1.574 1_455 S
C1846 C1862 1.368 . S
H1847 C1855 0.950 . S
H1848 C1853 0.950 . S
H1849 C1854 0.949 . S
H1850 C1856 0.950 . S
H1851 C1857 0.950 . S
H1852 C1858 0.949 . S
C1853 H1848 0.950 . S
C1853 C1855 1.327 . S
C1853 C1859 1.429 . S
C1854 C1846 1.574 1_655 S
C1854 H1849 0.949 . S
C1854 C1860 1.368 . S
C1855 C1839 1.349 . S
C1855 H1847 0.950 . S
C1855 C1853 1.327 . S
C1856 C1844 1.349 . S
C1856 H1850 0.950 . S
C1856 C1857 1.327 . S
C1857 H1851 0.950 . S
C1857 C1856 1.327 . S
C1857 C1861 1.429 . S
C1858 C1841 1.574 1_455 S
C1858 H1852 0.949 . S
C1858 C1862 1.368 . S
C1859 C1840 1.429 . S
C1859 C1853 1.429 . S
C1859 C1860 1.523 . S
C1860 C1841 1.368 . S
C1860 C1854 1.368 . S
C1860 C1859 1.523 . S
C1861 C1845 1.429 . S
C1861 C1857 1.429 . S
C1861 C1862 1.523 . S
C1862 C1846 1.368 . S
C1862 C1858 1.368 . S
C1862 C1861 1.523 . S
H1863 C1838 0.950 . S
H1864 C1840 0.950 . S
H1865 C1841 0.949 . S
H1866 C1843 0.950 . S
H1867 C1845 0.950 . S
C1868 C1869 1.349 . S
C1868 C1870 1.327 . S
C1868 H1893 0.950 . S
C1869 C1868 1.349 . S
C1869 C1885 1.349 . S
C1870 C1868 1.327 . S
C1870 C1889 1.429 . S
C1870 H1894 0.950 . S
C1871 C1888 1.574 . S
C1871 C1890 1.368 . S
C1871 H1895 0.949 . S
H1872 C1876 0.949 . S
C1873 C1874 1.349 . S
C1873 C1875 1.327 . S
C1873 H1896 0.950 . S
C1874 C1873 1.349 . S
C1874 C1886 1.349 . S
C1875 C1873 1.327 . S
C1875 C1891 1.429 . S
C1875 H1897 0.950 . S
C1876 H1872 0.949 . S
C1876 C1884 1.574 . S
C1876 C1892 1.368 . S
H1877 C1885 0.950 . S
H1878 C1883 0.950 . S
H1879 C1884 0.949 . S
H1880 C1886 0.950 . S
H1881 C1887 0.950 . S
H1882 C1888 0.949 . S
C1883 H1878 0.950 . S
C1883 C1885 1.327 . S
C1883 C1889 1.429 . S
C1884 C1876 1.574 . S
C1884 H1879 0.949 . S
C1884 C1890 1.368 . S
C1885 C1869 1.349 . S
C1885 H1877 0.950 . S
C1885 C1883 1.327 . S
C1886 C1874 1.349 . S
C1886 H1880 0.950 . S
C1886 C1887 1.327 . S
C1887 H1881 0.950 . S
C1887 C1886 1.327 . S
C1887 C1891 1.429 . S
C1888 C1871 1.574 . S
C1888 H1882 0.949 . S
C1888 C1892 1.368 . S
C1889 C1870 1.429 . S
C1889 C1883 1.429 . S
C1889 C1890 1.523 . S
C1890 C1871 1.368 . S
C1890 C1884 1.368 . S
C1890 C1889 1.523 . S
C1891 C1875 1.429 . S
C1891 C1887 1.429 . S
C1891 C1892 1.523 . S
C1892 C1876 1.368 . S
C1892 C1888 1.368 . S
C1892 C1891 1.523 . S
H1893 C1868 0.950 . S
H1894 C1870 0.950 . S
H1895 C1871 0.949 . S
H1896 C1873 0.950 . S
H1897 C1875 0.950 . S
C1898 C1899 1.349 . S
C1898 C1900 1.327 . S
C1898 H1923 0.950 . S
C1899 C1898 1.349 . S
C1899 C1915 1.349 . S
C1900 C1898 1.327 . S
C1900 C1919 1.429 . S
C1900 H1924 0.950 . S
C1901 C1918 1.574 . S
C1901 C1920 1.368 . S
C1901 H1925 0.949 . S
H1902 C1906 0.949 . S
C1903 C1904 1.349 . S
C1903 C1905 1.327 . S
C1903 H1926 0.950 . S
C1904 C1903 1.349 . S
C1904 C1916 1.349 . S
C1905 C1903 1.327 . S
C1905 C1921 1.429 . S
C1905 H1927 0.950 . S
C1906 H1902 0.949 . S
C1906 C1914 1.574 . S
C1906 C1922 1.368 . S
H1907 C1915 0.950 . S
H1908 C1913 0.950 . S
H1909 C1914 0.949 . S
H1910 C1916 0.950 . S
H1911 C1917 0.950 . S
H1912 C1918 0.949 . S
C1913 H1908 0.950 . S
C1913 C1915 1.327 . S
C1913 C1919 1.429 . S
C1914 C1906 1.574 . S
C1914 H1909 0.949 . S
C1914 C1920 1.368 . S
C1915 C1899 1.349 . S
C1915 H1907 0.950 . S
C1915 C1913 1.327 . S
C1916 C1904 1.349 . S
C1916 H1910 0.950 . S
C1916 C1917 1.327 . S
C1917 H1911 0.950 . S
C1917 C1916 1.327 . S
C1917 C1921 1.429 . S
C1918 C1901 1.574 . S
C1918 H1912 0.949 . S
C1918 C1922 1.368 . S
C1919 C1900 1.429 . S
C1919 C1913 1.429 . S
C1919 C1920 1.523 . S
C1920 C1901 1.368 . S
C1920 C1914 1.368 . S
C1920 C1919 1.523 . S
C1921 C1905 1.429 . S
C1921 C1917 1.429 . S
C1921 C1922 1.523 . S
C1922 C1906 1.368 . S
C1922 C1918 1.368 . S
C1922 C1921 1.523 . S
H1923 C1898 0.950 . S
H1924 C1900 0.950 . S
H1925 C1901 0.949 . S
H1926 C1903 0.950 . S
H1927 C1905 0.950 . S
C1928 C1929 1.349 . S
C1928 C1930 1.327 . S
C1928 H1953 0.950 . S
C1929 C1928 1.349 . S
C1929 C1945 1.349 . S
C1930 C1928 1.327 . S
C1930 C1949 1.429 . S
C1930 H1954 0.950 . S
C1931 C1948 1.574 . S
C1931 C1950 1.368 . S
C1931 H1955 0.949 . S
H1932 C1936 0.949 . S
C1933 C1934 1.349 . S
C1933 C1935 1.327 . S
C1933 H1956 0.950 . S
C1934 C1933 1.349 . S
C1934 C1946 1.349 . S
C1935 C1933 1.327 . S
C1935 C1951 1.429 . S
C1935 H1957 0.950 . S
C1936 H1932 0.949 . S
C1936 C1944 1.574 . S
C1936 C1952 1.368 . S
H1937 C1945 0.950 . S
H1938 C1943 0.950 . S
H1939 C1944 0.949 . S
H1940 C1946 0.950 . S
H1941 C1947 0.950 . S
H1942 C1948 0.949 . S
C1943 H1938 0.950 . S
C1943 C1945 1.327 . S
C1943 C1949 1.429 . S
C1944 C1936 1.574 . S
C1944 H1939 0.949 . S
C1944 C1950 1.368 1_455 S
C1945 C1929 1.349 . S
C1945 H1937 0.950 . S
C1945 C1943 1.327 . S
C1946 C1934 1.349 . S
C1946 H1940 0.950 . S
C1946 C1947 1.327 . S
C1947 H1941 0.950 . S
C1947 C1946 1.327 . S
C1947 C1951 1.429 . S
C1948 C1931 1.574 . S
C1948 H1942 0.949 . S
C1948 C1952 1.368 1_655 S
C1949 C1930 1.429 . S
C1949 C1943 1.429 . S
C1949 C1950 1.523 . S
C1950 C1931 1.368 . S
C1950 C1944 1.368 1_655 S
C1950 C1949 1.523 . S
C1951 C1935 1.429 . S
C1951 C1947 1.429 . S
C1951 C1952 1.523 . S
C1952 C1936 1.368 . S
C1952 C1948 1.368 1_455 S
C1952 C1951 1.523 . S
H1953 C1928 0.950 . S
H1954 C1930 0.950 . S
H1955 C1931 0.949 . S
H1956 C1933 0.950 . S
H1957 C1935 0.950 . S
C1958 C1959 1.349 . S
C1958 C1960 1.327 . S
C1958 H1983 0.950 . S
C1959 C1958 1.349 . S
C1959 C1975 1.349 . S
C1960 C1958 1.327 . S
C1960 C1979 1.429 . S
C1960 H1984 0.950 . S
C1961 C1978 1.574 . S
C1961 C1980 1.368 . S
C1961 H1985 0.949 . S
H1962 C1966 0.949 . S
C1963 C1964 1.349 . S
C1963 C1965 1.327 . S
C1963 H1986 0.950 . S
C1964 C1963 1.349 . S
C1964 C1976 1.349 . S
C1965 C1963 1.327 . S
C1965 C1981 1.429 . S
C1965 H1987 0.950 . S
C1966 H1962 0.949 . S
C1966 C1974 1.574 . S
C1966 C1982 1.368 . S
H1967 C1975 0.950 . S
H1968 C1973 0.950 . S
H1969 C1974 0.949 . S
H1970 C1976 0.950 . S
H1971 C1977 0.950 . S
H1972 C1978 0.949 . S
C1973 H1968 0.950 . S
C1973 C1975 1.327 . S
C1973 C1979 1.429 . S
C1974 C1966 1.574 . S
C1974 H1969 0.949 . S
C1974 C1980 1.368 . S
C1975 C1959 1.349 . S
C1975 H1967 0.950 . S
C1975 C1973 1.327 . S
C1976 C1964 1.349 . S
C1976 H1970 0.950 . S
C1976 C1977 1.327 . S
C1977 H1971 0.950 . S
C1977 C1976 1.327 . S
C1977 C1981 1.429 . S
C1978 C1961 1.574 . S
C1978 H1972 0.949 . S
C1978 C1982 1.368 . S
C1979 C1960 1.429 . S
C1979 C1973 1.429 . S
C1979 C1980 1.523 . S
C1980 C1961 1.368 . S
C1980 C1974 1.368 . S
C1980 C1979 1.523 . S
C1981 C1965 1.429 . S
C1981 C1977 1.429 . S
C1981 C1982 1.523 . S
C1982 C1966 1.368 . S
C1982 C1978 1.368 . S
C1982 C1981 1.523 . S
H1983 C1958 0.950 . S
H1984 C1960 0.950 . S
H1985 C1961 0.949 . S
H1986 C1963 0.950 . S
H1987 C1965 0.950 . S
C1988 C1989 1.349 . S
C1988 C1990 1.327 . S
C1988 H2013 0.950 . S
C1989 C1988 1.349 . S
C1989 C2005 1.349 . S
C1990 C1988 1.327 . S
C1990 C2009 1.429 . S
C1990 H2014 0.950 . S
C1991 C2008 1.574 . S
C1991 C2010 1.368 . S
C1991 H2015 0.949 . S
H1992 C1996 0.949 . S
C1993 C1994 1.349 . S
C1993 C1995 1.327 . S
C1993 H2016 0.950 . S
C1994 C1993 1.349 . S
C1994 C2006 1.349 . S
C1995 C1993 1.327 . S
C1995 C2011 1.429 . S
C1995 H2017 0.950 . S
C1996 H1992 0.949 . S
C1996 C2004 1.574 . S
C1996 C2012 1.368 . S
H1997 C2005 0.950 . S
H1998 C2003 0.950 . S
H1999 C2004 0.949 . S
H2000 C2006 0.950 . S
H2001 C2007 0.950 . S
H2002 C2008 0.949 . S
C2003 H1998 0.950 . S
C2003 C2005 1.327 . S
C2003 C2009 1.429 . S
C2004 C1996 1.574 . S
C2004 H1999 0.949 . S
C2004 C2010 1.368 . S
C2005 C1989 1.349 . S
C2005 H1997 0.950 . S
C2005 C2003 1.327 . S
C2006 C1994 1.349 . S
C2006 H2000 0.950 . S
C2006 C2007 1.327 . S
C2007 H2001 0.950 . S
C2007 C2006 1.327 . S
C2007 C2011 1.429 . S
C2008 C1991 1.574 . S
C2008 H2002 0.949 . S
C2008 C2012 1.368 . S
C2009 C1990 1.429 . S
C2009 C2003 1.429 . S
C2009 C2010 1.523 . S
C2010 C1991 1.368 . S
C2010 C2004 1.368 . S
C2010 C2009 1.523 . S
C2011 C1995 1.429 . S
C2011 C2007 1.429 . S
C2011 C2012 1.523 . S
C2012 C1996 1.368 . S
C2012 C2008 1.368 . S
C2012 C2011 1.523 . S
H2013 C1988 0.950 . S
H2014 C1990 0.950 . S
H2015 C1991 0.949 . S
H2016 C1993 0.950 . S
H2017 C1995 0.950 . S
C2018 C2019 1.349 . S
C2018 C2020 1.327 . S
C2018 H2043 0.950 . S
C2019 C2018 1.349 . S
C2019 C2035 1.349 . S
C2020 C2018 1.327 . S
C2020 C2039 1.429 . S
C2020 H2044 0.950 . S
C2021 C2038 1.574 1_655 S
C2021 C2040 1.368 . S
C2021 H2045 0.949 . S
H2022 C2026 0.949 . S
C2023 C2024 1.349 . S
C2023 C2025 1.327 . S
C2023 H2046 0.950 . S
C2024 C2023 1.349 . S
C2024 C2036 1.349 . S
C2025 C2023 1.327 . S
C2025 C2041 1.429 . S
C2025 H2047 0.950 . S
C2026 H2022 0.949 . S
C2026 C2034 1.574 1_455 S
C2026 C2042 1.368 . S
H2027 C2035 0.950 . S
H2028 C2033 0.950 . S
H2029 C2034 0.949 . S
H2030 C2036 0.950 . S
H2031 C2037 0.950 . S
H2032 C2038 0.949 . S
C2033 H2028 0.950 . S
C2033 C2035 1.327 . S
C2033 C2039 1.429 . S
C2034 C2026 1.574 1_655 S
C2034 H2029 0.949 . S
C2034 C2040 1.368 . S
C2035 C2019 1.349 . S
C2035 H2027 0.950 . S
C2035 C2033 1.327 . S
C2036 C2024 1.349 . S
C2036 H2030 0.950 . S
C2036 C2037 1.327 . S
C2037 H2031 0.950 . S
C2037 C2036 1.327 . S
C2037 C2041 1.429 . S
C2038 C2021 1.574 1_455 S
C2038 H2032 0.949 . S
C2038 C2042 1.368 . S
C2039 C2020 1.429 . S
C2039 C2033 1.429 . S
C2039 C2040 1.523 . S
C2040 C2021 1.368 . S
C2040 C2034 1.368 . S
C2040 C2039 1.523 . S
C2041 C2025 1.429 . S
C2041 C2037 1.429 . S
C2041 C2042 1.523 . S
C2042 C2026 1.368 . S
C2042 C2038 1.368 . S
C2042 C2041 1.523 . S
H2043 C2018 0.950 . S
H2044 C2020 0.950 . S
H2045 C2021 0.949 . S
H2046 C2023 0.950 . S
H2047 C2025 0.950 . S
C2048 C2049 1.349 . S
C2048 C2050 1.327 . S
C2048 H2073 0.950 . S
C2049 C2048 1.349 . S
C2049 C2065 1.349 . S
C2050 C2048 1.327 . S
C2050 C2069 1.429 . S
C2050 H2074 0.950 1_545 S
C2051 C2068 1.574 . S
C2051 C2070 1.368 . S
C2051 H2075 0.949 . S
H2052 C2056 0.949 . S
C2053 C2054 1.368 . S
C2053 C2055 1.321 1_565 S
C2053 H2076 0.937 1_565 S
C2054 C2053 1.368 . S
C2054 C2066 1.349 . S
C2055 C2053 1.321 1_545 S
C2055 C2071 1.429 1_545 S
C2055 H2077 0.950 . S
C2056 H2052 0.949 . S
C2056 C2064 1.574 . S
C2056 C2072 1.368 . S
H2057 C2065 0.950 . S
H2058 C2063 0.950 . S
H2059 C2064 0.949 . S
H2060 C2066 0.950 . S
H2061 C2067 0.950 . S
H2062 C2068 0.949 . S
C2063 H2058 0.950 . S
C2063 C2065 1.327 . S
C2063 C2069 1.429 . S
C2064 C2056 1.574 . S
C2064 H2059 0.949 . S
C2064 C2070 1.368 1_565 S
C2065 C2049 1.349 . S
C2065 H2057 0.950 . S
C2065 C2063 1.327 . S
C2066 C2054 1.349 . S
C2066 H2060 0.950 . S
C2066 C2067 1.327 . S
C2067 H2061 0.950 . S
C2067 C2066 1.327 . S
C2067 C2071 1.429 . S
C2068 C2051 1.574 . S
C2068 H2062 0.949 . S
C2068 C2072 1.368 1_545 S
C2069 C2050 1.429 . S
C2069 C2063 1.429 . S
C2069 C2070 1.523 . S
C2070 C2051 1.368 . S
C2070 C2064 1.368 1_545 S
C2070 C2069 1.523 . S
C2071 C2055 1.429 1_565 S
C2071 C2067 1.429 . S
C2071 C2072 1.523 . S
C2072 C2056 1.368 . S
C2072 C2068 1.368 1_565 S
C2072 C2071 1.523 . S
H2073 C2048 0.950 . S
H2074 C2050 0.950 1_565 S
H2075 C2051 0.949 . S
H2076 C2053 0.937 1_545 S
H2077 C2055 0.950 . S
C2078 C2079 1.349 . S
C2078 C2080 1.327 . S
C2078 H2103 0.950 . S
C2079 C2078 1.349 . S
C2079 C2095 1.349 . S
C2080 C2078 1.327 . S
C2080 C2099 1.429 . S
C2080 H2104 0.950 . S
C2081 C2098 1.574 . S
C2081 C2100 1.368 . S
C2081 H2105 0.949 . S
H2082 C2086 0.949 . S
C2083 C2084 1.349 1_545 S
C2083 C2085 1.327 . S
C2083 H2106 0.964 . S
C2084 C2083 1.349 1_565 S
C2084 C2096 1.349 1_565 S
C2085 C2083 1.327 . S
C2085 C2101 1.429 . S
C2085 H2107 0.950 . S
C2086 H2082 0.949 . S
C2086 C2094 1.574 . S
C2086 C2102 1.368 . S
H2087 C2095 0.950 . S
H2088 C2093 0.950 . S
H2089 C2094 0.949 . S
H2090 C2096 0.950 1_565 S
H2091 C2097 0.950 . S
H2092 C2098 0.949 . S
C2093 H2088 0.950 . S
C2093 C2095 1.327 . S
C2093 C2099 1.429 . S
C2094 C2086 1.574 . S
C2094 H2089 0.949 . S
C2094 C2100 1.368 . S
C2095 C2079 1.349 . S
C2095 H2087 0.950 . S
C2095 C2093 1.327 . S
C2096 C2084 1.349 1_545 S
C2096 H2090 0.950 1_545 S
C2096 C2097 1.327 . S
C2097 H2091 0.950 . S
C2097 C2096 1.327 . S
C2097 C2101 1.429 . S
C2098 C2081 1.574 . S
C2098 H2092 0.949 . S
C2098 C2102 1.368 . S
C2099 C2080 1.429 . S
C2099 C2093 1.429 . S
C2099 C2100 1.523 . S
C2100 C2081 1.368 . S
C2100 C2094 1.368 . S
C2100 C2099 1.523 . S
C2101 C2085 1.429 . S
C2101 C2097 1.429 . S
C2101 C2102 1.523 . S
C2102 C2086 1.368 . S
C2102 C2098 1.368 . S
C2102 C2101 1.523 . S
H2103 C2078 0.950 . S
H2104 C2080 0.950 . S
H2105 C2081 0.949 . S
H2106 C2083 0.964 . S
H2107 C2085 0.950 . S
C2108 C2109 1.340 1_455 S
C2108 C2110 1.342 . S
C2108 H2133 0.944 1_455 S
C2109 C2108 1.340 1_655 S
C2109 C2125 1.349 . S
C2110 C2108 1.342 . S
C2110 C2129 1.429 . S
C2110 H2134 0.950 . S
C2111 C2128 1.574 . S
C2111 C2130 1.369 1_565 S
C2111 H2135 0.949 . S
H2112 C2116 0.949 . S
C2113 C2114 1.349 . S
C2113 C2115 1.327 . S
C2113 H2136 0.950 . S
C2114 C2113 1.349 . S
C2114 C2126 1.349 . S
C2115 C2113 1.327 . S
C2115 C2131 1.429 . S
C2115 H2137 0.950 . S
C2116 H2112 0.949 . S
C2116 C2124 1.574 . S
C2116 C2132 1.368 1_545 S
H2117 C2125 0.950 1_565 S
H2118 C2123 0.950 . S
H2119 C2124 0.949 . S
H2120 C2126 0.950 . S
H2121 C2127 0.950 1_545 S
H2122 C2128 0.949 . S
C2123 H2118 0.950 . S
C2123 C2125 1.327 1_465 S
C2123 C2129 1.429 1_565 S
C2124 C2116 1.574 . S
C2124 H2119 0.949 . S
C2124 C2130 1.368 . S
C2125 C2109 1.349 . S
C2125 H2117 0.950 1_545 S
C2125 C2123 1.327 1_645 S
C2126 C2114 1.349 . S
C2126 H2120 0.950 . S
C2126 C2127 1.327 . S
C2127 H2121 0.950 1_565 S
C2127 C2126 1.327 . S
C2127 C2131 1.429 . S
C2128 C2111 1.574 . S
C2128 H2122 0.949 . S
C2128 C2132 1.368 . S
C2129 C2110 1.429 . S
C2129 C2123 1.429 1_545 S
C2129 C2130 1.523 . S
C2130 C2111 1.369 1_545 S
C2130 C2124 1.368 . S
C2130 C2129 1.523 . S
C2131 C2115 1.429 . S
C2131 C2127 1.429 . S
C2131 C2132 1.523 . S
C2132 C2116 1.368 1_565 S
C2132 C2128 1.368 . S
C2132 C2131 1.523 . S
H2133 C2108 0.944 1_655 S
H2134 C2110 0.950 . S
H2135 C2111 0.949 . S
H2136 C2113 0.950 . S
H2137 C2115 0.950 . S
C2138 C2139 1.349 . S
C2138 C2140 1.327 . S
C2138 H2163 0.950 . S
C2139 C2138 1.349 . S
C2139 C2155 1.349 . S
C2140 C2138 1.327 . S
C2140 C2159 1.429 . S
C2140 H2164 0.950 . S
C2141 C2158 1.574 . S
C2141 C2160 1.368 . S
C2141 H2165 0.949 . S
H2142 C2146 0.949 . S
C2143 C2144 1.349 1_565 S
C2143 C2145 1.327 . S
C2143 H2166 0.963 . S
C2144 C2143 1.349 1_545 S
C2144 C2156 1.349 1_545 S
C2145 C2143 1.327 . S
C2145 C2161 1.429 . S
C2145 H2167 0.950 . S
C2146 H2142 0.949 . S
C2146 C2154 1.574 . S
C2146 C2162 1.368 . S
H2147 C2155 0.950 . S
H2148 C2153 0.950 . S
H2149 C2154 0.949 . S
H2150 C2156 0.950 1_545 S
H2151 C2157 0.950 . S
H2152 C2158 0.949 . S
C2153 H2148 0.950 . S
C2153 C2155 1.327 . S
C2153 C2159 1.429 . S
C2154 C2146 1.574 . S
C2154 H2149 0.949 . S
C2154 C2160 1.368 . S
C2155 C2139 1.349 . S
C2155 H2147 0.950 . S
C2155 C2153 1.327 . S
C2156 C2144 1.349 1_565 S
C2156 H2150 0.950 1_565 S
C2156 C2157 1.327 . S
C2157 H2151 0.950 . S
C2157 C2156 1.327 . S
C2157 C2161 1.429 . S
C2158 C2141 1.574 . S
C2158 H2152 0.949 . S
C2158 C2162 1.368 . S
C2159 C2140 1.429 . S
C2159 C2153 1.429 . S
C2159 C2160 1.523 . S
C2160 C2141 1.368 . S
C2160 C2154 1.368 . S
C2160 C2159 1.523 . S
C2161 C2145 1.429 . S
C2161 C2157 1.429 . S
C2161 C2162 1.523 . S
C2162 C2146 1.368 . S
C2162 C2158 1.368 . S
C2162 C2161 1.523 . S
H2163 C2138 0.950 . S
H2164 C2140 0.950 . S
H2165 C2141 0.949 . S
H2166 C2143 0.963 . S
H2167 C2145 0.950 . S
C2168 C2169 1.349 . S
C2168 C2170 1.327 . S
C2168 H2193 0.950 . S
C2169 C2168 1.349 . S
C2169 C2185 1.349 . S
C2170 C2168 1.327 . S
C2170 C2189 1.429 . S
C2170 H2194 0.950 1_565 S
C2171 C2188 1.574 . S
C2171 C2190 1.368 . S
C2171 H2195 0.949 . S
H2172 C2176 0.949 . S
C2173 C2174 1.349 . S
C2173 C2175 1.327 1_545 S
C2173 H2196 0.950 1_545 S
C2174 C2173 1.349 . S
C2174 C2186 1.349 . S
C2175 C2173 1.327 1_565 S
C2175 C2191 1.429 1_565 S
C2175 H2197 0.950 . S
C2176 H2172 0.949 . S
C2176 C2184 1.574 . S
C2176 C2192 1.368 . S
H2177 C2185 0.950 . S
H2178 C2183 0.950 . S
H2179 C2184 0.949 . S
H2180 C2186 0.950 . S
H2181 C2187 0.950 . S
H2182 C2188 0.949 . S
C2183 H2178 0.950 . S
C2183 C2185 1.327 . S
C2183 C2189 1.429 . S
C2184 C2176 1.574 . S
C2184 H2179 0.949 . S
C2184 C2190 1.368 1_545 S
C2185 C2169 1.349 . S
C2185 H2177 0.950 . S
C2185 C2183 1.327 . S
C2186 C2174 1.349 . S
C2186 H2180 0.950 . S
C2186 C2187 1.327 . S
C2187 H2181 0.950 . S
C2187 C2186 1.327 . S
C2187 C2191 1.429 . S
C2188 C2171 1.574 . S
C2188 H2182 0.949 . S
C2188 C2192 1.369 1_565 S
C2189 C2170 1.429 . S
C2189 C2183 1.429 . S
C2189 C2190 1.523 . S
C2190 C2171 1.368 . S
C2190 C2184 1.368 1_565 S
C2190 C2189 1.523 . S
C2191 C2175 1.429 1_545 S
C2191 C2187 1.429 . S
C2191 C2192 1.523 . S
C2192 C2176 1.368 . S
C2192 C2188 1.369 1_545 S
C2192 C2191 1.523 . S
H2193 C2168 0.950 . S
H2194 C2170 0.950 1_545 S
H2195 C2171 0.949 . S
H2196 C2173 0.950 1_565 S
H2197 C2175 0.950 . S
C2198 C2199 1.349 1_545 S
C2198 C2200 1.327 . S
C2198 H2223 0.950 1_545 S
C2199 C2198 1.349 1_565 S
C2199 C2215 1.349 1_565 S
C2200 C2198 1.327 . S
C2200 C2219 1.429 . S
C2200 H2224 0.950 . S
C2201 C2218 1.574 . S
C2201 C2220 1.368 . S
C2201 H2225 0.949 . S
H2202 C2206 0.949 . S
C2203 C2204 1.349 . S
C2203 C2205 1.327 . S
C2203 H2226 0.950 . S
C2204 C2203 1.349 . S
C2204 C2216 1.349 . S
C2205 C2203 1.327 . S
C2205 C2221 1.429 . S
C2205 H2227 0.950 . S
C2206 H2202 0.949 . S
C2206 C2214 1.574 . S
C2206 C2222 1.368 . S
H2207 C2215 0.950 1_565 S
H2208 C2213 0.950 . S
H2209 C2214 0.949 . S
H2210 C2216 0.950 . S
H2211 C2217 0.950 . S
H2212 C2218 0.949 . S
C2213 H2208 0.950 . S
C2213 C2215 1.327 . S
C2213 C2219 1.429 . S
C2214 C2206 1.574 . S
C2214 H2209 0.949 . S
C2214 C2220 1.368 . S
C2215 C2199 1.349 1_545 S
C2215 H2207 0.950 1_545 S
C2215 C2213 1.327 . S
C2216 C2204 1.349 . S
C2216 H2210 0.950 . S
C2216 C2217 1.327 . S
C2217 H2211 0.950 . S
C2217 C2216 1.327 . S
C2217 C2221 1.429 . S
C2218 C2201 1.574 . S
C2218 H2212 0.949 . S
C2218 C2222 1.368 . S
C2219 C2200 1.429 . S
C2219 C2213 1.429 . S
C2219 C2220 1.523 . S
C2220 C2201 1.368 . S
C2220 C2214 1.368 . S
C2220 C2219 1.523 . S
C2221 C2205 1.429 . S
C2221 C2217 1.429 . S
C2221 C2222 1.523 . S
C2222 C2206 1.368 . S
C2222 C2218 1.368 . S
C2222 C2221 1.523 . S
H2223 C2198 0.950 1_565 S
H2224 C2200 0.950 . S
H2225 C2201 0.949 . S
H2226 C2203 0.950 . S
H2227 C2205 0.950 . S
C2228 C2229 1.349 . S
C2228 C2230 1.327 . S
C2228 H2253 0.950 . S
C2229 C2228 1.349 . S
C2229 C2245 1.349 . S
C2230 C2228 1.327 . S
C2230 C2249 1.429 . S
C2230 H2254 0.950 . S
C2231 C2248 1.574 . S
C2231 C2250 1.368 1_565 S
C2231 H2255 0.949 . S
H2232 C2236 0.949 . S
C2233 C2234 1.347 . S
C2233 C2235 1.330 1_655 S
C2233 H2256 0.949 . S
C2234 C2233 1.347 . S
C2234 C2246 1.329 1_565 S
C2235 C2233 1.330 1_455 S
C2235 C2251 1.429 . S
C2235 H2257 0.950 . S
C2236 H2232 0.949 . S
C2236 C2244 1.574 . S
C2236 C2252 1.369 1_545 S
H2237 C2245 0.950 . S
H2238 C2243 0.950 1_565 S
H2239 C2244 0.949 . S
H2240 C2246 0.964 . S
H2241 C2247 0.950 . S
H2242 C2248 0.949 . S
C2243 H2238 0.950 1_545 S
C2243 C2245 1.327 . S
C2243 C2249 1.429 . S
C2244 C2236 1.574 . S
C2244 H2239 0.949 . S
C2244 C2250 1.368 . S
C2245 C2229 1.349 . S
C2245 H2237 0.950 . S
C2245 C2243 1.327 . S
C2246 C2234 1.329 1_545 S
C2246 H2240 0.964 . S
C2246 C2247 1.334 1_655 S
C2247 H2241 0.950 . S
C2247 C2246 1.334 1_455 S
C2247 C2251 1.429 1_545 S
C2248 C2231 1.574 . S
C2248 H2242 0.949 . S
C2248 C2252 1.368 . S
C2249 C2230 1.429 . S
C2249 C2243 1.429 . S
C2249 C2250 1.523 . S
C2250 C2231 1.368 1_545 S
C2250 C2244 1.368 . S
C2250 C2249 1.523 . S
C2251 C2235 1.429 . S
C2251 C2247 1.429 1_565 S
C2251 C2252 1.523 . S
C2252 C2236 1.369 1_565 S
C2252 C2248 1.368 . S
C2252 C2251 1.523 . S
H2253 C2228 0.950 . S
H2254 C2230 0.950 . S
H2255 C2231 0.949 . S
H2256 C2233 0.949 . S
H2257 C2235 0.950 . S
C2258 C2259 1.349 . S
C2258 C2260 1.327 . S
C2258 H2283 0.950 . S
C2259 C2258 1.349 . S
C2259 C2275 1.349 . S
C2260 C2258 1.327 . S
C2260 C2279 1.429 . S
C2260 H2284 0.950 . S
C2261 C2278 1.574 . S
C2261 C2280 1.368 . S
C2261 H2285 0.949 . S
H2262 C2266 0.949 . S
C2263 C2264 1.349 1_565 S
C2263 C2265 1.327 . S
C2263 H2286 0.950 1_565 S
C2264 C2263 1.349 1_545 S
C2264 C2276 1.349 1_545 S
C2265 C2263 1.327 . S
C2265 C2281 1.429 . S
C2265 H2287 0.950 . S
C2266 H2262 0.949 . S
C2266 C2274 1.574 . S
C2266 C2282 1.368 . S
H2267 C2275 0.950 . S
H2268 C2273 0.950 . S
H2269 C2274 0.949 . S
H2270 C2276 0.950 . S
H2271 C2277 0.950 . S
H2272 C2278 0.949 . S
C2273 H2268 0.950 . S
C2273 C2275 1.327 . S
C2273 C2279 1.429 . S
C2274 C2266 1.574 . S
C2274 H2269 0.949 . S
C2274 C2280 1.368 . S
C2275 C2259 1.349 . S
C2275 H2267 0.950 . S
C2275 C2273 1.327 . S
C2276 C2264 1.349 1_565 S
C2276 H2270 0.950 . S
C2276 C2277 1.327 . S
C2277 H2271 0.950 . S
C2277 C2276 1.327 . S
C2277 C2281 1.429 . S
C2278 C2261 1.574 . S
C2278 H2272 0.949 . S
C2278 C2282 1.368 . S
C2279 C2260 1.429 . S
C2279 C2273 1.429 . S
C2279 C2280 1.523 . S
C2280 C2261 1.368 . S
C2280 C2274 1.368 . S
C2280 C2279 1.523 . S
C2281 C2265 1.429 . S
C2281 C2277 1.429 . S
C2281 C2282 1.523 . S
C2282 C2266 1.368 . S
C2282 C2278 1.368 . S
C2282 C2281 1.523 . S
H2283 C2258 0.950 . S
H2284 C2260 0.950 . S
H2285 C2261 0.949 . S
H2286 C2263 0.950 1_545 S
H2287 C2265 0.950 . S
C2288 C2289 1.349 . S
C2288 C2290 1.327 . S
C2288 H2313 0.950 . S
C2289 C2288 1.349 . S
C2289 C2305 1.343 1_545 S
C2290 C2288 1.327 . S
C2290 C2309 1.429 . S
C2290 H2314 0.950 . S
C2291 C2308 1.574 . S
C2291 C2310 1.368 1_565 S
C2291 H2315 0.949 . S
H2292 C2296 0.949 . S
C2293 C2294 1.349 . S
C2293 C2295 1.327 . S
C2293 H2316 0.950 . S
C2294 C2293 1.349 . S
C2294 C2306 1.349 . S
C2295 C2293 1.327 . S
C2295 C2311 1.429 . S
C2295 H2317 0.950 . S
C2296 H2292 0.949 . S
C2296 C2304 1.574 . S
C2296 C2312 1.368 1_545 S
H2297 C2305 0.954 . S
H2298 C2303 0.950 . S
H2299 C2304 0.949 . S
H2300 C2306 0.950 . S
H2301 C2307 0.950 1_545 S
H2302 C2308 0.949 . S
C2303 H2298 0.950 . S
C2303 C2305 1.329 . S
C2303 C2309 1.429 1_565 S
C2304 C2296 1.574 . S
C2304 H2299 0.949 . S
C2304 C2310 1.368 . S
C2305 C2289 1.343 1_565 S
C2305 H2297 0.954 . S
C2305 C2303 1.329 . S
C2306 C2294 1.349 . S
C2306 H2300 0.950 . S
C2306 C2307 1.327 . S
C2307 H2301 0.950 1_565 S
C2307 C2306 1.327 . S
C2307 C2311 1.429 . S
C2308 C2291 1.574 . S
C2308 H2302 0.949 . S
C2308 C2312 1.368 . S
C2309 C2290 1.429 . S
C2309 C2303 1.429 1_545 S
C2309 C2310 1.523 . S
C2310 C2291 1.368 1_545 S
C2310 C2304 1.368 . S
C2310 C2309 1.523 . S
C2311 C2295 1.429 . S
C2311 C2307 1.429 . S
C2311 C2312 1.523 . S
C2312 C2296 1.368 1_565 S
C2312 C2308 1.368 . S
C2312 C2311 1.523 . S
H2313 C2288 0.950 . S
H2314 C2290 0.950 . S
H2315 C2291 0.949 . S
H2316 C2293 0.950 . S
H2317 C2295 0.950 . S
C2318 C2319 1.349 . S
C2318 C2320 1.327 . S
C2318 H2343 0.950 . S
C2319 C2318 1.349 . S
C2319 C2335 1.349 . S
C2320 C2318 1.327 . S
C2320 C2339 1.429 . S
C2320 H2344 0.950 . S
C2321 C2338 1.574 . S
C2321 C2340 1.368 . S
C2321 H2345 0.949 . S
H2322 C2326 0.949 . S
C2323 C2324 1.349 1_565 S
C2323 C2325 1.327 . S
C2323 H2346 0.950 1_565 S
C2324 C2323 1.349 1_545 S
C2324 C2336 1.349 1_545 S
C2325 C2323 1.327 . S
C2325 C2341 1.429 . S
C2325 H2347 0.950 . S
C2326 H2322 0.949 . S
C2326 C2334 1.574 . S
C2326 C2342 1.368 . S
H2327 C2335 0.950 . S
H2328 C2333 0.950 . S
H2329 C2334 0.949 . S
H2330 C2336 0.950 1_545 S
H2331 C2337 0.950 . S
H2332 C2338 0.949 . S
C2333 H2328 0.950 . S
C2333 C2335 1.327 . S
C2333 C2339 1.429 . S
C2334 C2326 1.574 . S
C2334 H2329 0.949 . S
C2334 C2340 1.368 . S
C2335 C2319 1.349 . S
C2335 H2327 0.950 . S
C2335 C2333 1.327 . S
C2336 C2324 1.349 1_565 S
C2336 H2330 0.950 1_565 S
C2336 C2337 1.327 . S
C2337 H2331 0.950 . S
C2337 C2336 1.327 . S
C2337 C2341 1.429 . S
C2338 C2321 1.574 . S
C2338 H2332 0.949 . S
C2338 C2342 1.368 . S
C2339 C2320 1.429 . S
C2339 C2333 1.429 . S
C2339 C2340 1.523 . S
C2340 C2321 1.368 . S
C2340 C2334 1.368 . S
C2340 C2339 1.523 . S
C2341 C2325 1.429 . S
C2341 C2337 1.429 . S
C2341 C2342 1.523 . S
C2342 C2326 1.368 . S
C2342 C2338 1.368 . S
C2342 C2341 1.523 . S
H2343 C2318 0.950 . S
H2344 C2320 0.950 . S
H2345 C2321 0.949 . S
H2346 C2323 0.950 1_545 S
H2347 C2325 0.950 . S
C2348 C2349 1.349 . S
C2348 C2350 1.327 . S
C2348 H2373 0.950 . S
C2349 C2348 1.349 . S
C2349 C2365 1.349 . S
C2350 C2348 1.327 . S
C2350 C2369 1.429 . S
C2350 H2374 0.950 1_545 S
C2351 C2368 1.574 . S
C2351 C2370 1.368 . S
C2351 H2375 0.949 . S
H2352 C2356 0.949 . S
C2353 C2354 1.349 . S
C2353 C2355 1.327 1_465 S
C2353 H2376 0.950 1_565 S
C2354 C2353 1.349 . S
C2354 C2366 1.345 1_455 S
C2355 C2353 1.327 1_645 S
C2355 C2371 1.429 1_545 S
C2355 H2377 0.950 . S
C2356 H2352 0.949 . S
C2356 C2364 1.574 . S
C2356 C2372 1.368 . S
H2357 C2365 0.950 . S
H2358 C2363 0.950 . S
H2359 C2364 0.949 . S
H2360 C2366 0.947 1_455 S
H2361 C2367 0.950 . S
H2362 C2368 0.949 . S
C2363 H2358 0.950 . S
C2363 C2365 1.327 . S
C2363 C2369 1.429 . S
C2364 C2356 1.574 . S
C2364 H2359 0.949 . S
C2364 C2370 1.368 1_565 S
C2365 C2349 1.349 . S
C2365 H2357 0.950 . S
C2365 C2363 1.327 . S
C2366 C2354 1.345 1_655 S
C2366 H2360 0.947 1_655 S
C2366 C2367 1.333 . S
C2367 H2361 0.950 . S
C2367 C2366 1.333 . S
C2367 C2371 1.429 . S
C2368 C2351 1.574 . S
C2368 H2362 0.949 . S
C2368 C2372 1.369 1_545 S
C2369 C2350 1.429 . S
C2369 C2363 1.429 . S
C2369 C2370 1.523 . S
C2370 C2351 1.368 . S
C2370 C2364 1.368 1_545 S
C2370 C2369 1.523 . S
C2371 C2355 1.429 1_565 S
C2371 C2367 1.429 . S
C2371 C2372 1.523 . S
C2372 C2356 1.368 . S
C2372 C2368 1.369 1_565 S
C2372 C2371 1.523 . S
H2373 C2348 0.950 . S
H2374 C2350 0.950 1_565 S
H2375 C2351 0.949 . S
H2376 C2353 0.950 1_545 S
H2377 C2355 0.950 . S
C2378 C2379 1.349 1_545 S
C2378 C2380 1.327 . S
C2378 H2403 0.950 1_545 S
C2379 C2378 1.349 1_565 S
C2379 C2395 1.349 1_565 S
C2380 C2378 1.327 . S
C2380 C2399 1.429 . S
C2380 H2404 0.950 . S
C2381 C2398 1.574 . S
C2381 C2400 1.368 . S
C2381 H2405 0.949 . S
H2382 C2386 0.949 . S
C2383 C2384 1.349 . S
C2383 C2385 1.327 . S
C2383 H2406 0.950 . S
C2384 C2383 1.349 . S
C2384 C2396 1.349 . S
C2385 C2383 1.327 . S
C2385 C2401 1.429 . S
C2385 H2407 0.950 . S
C2386 H2382 0.949 . S
C2386 C2394 1.574 . S
C2386 C2402 1.368 . S
H2387 C2395 0.941 1_565 S
H2388 C2393 0.950 . S
H2389 C2394 0.949 . S
H2390 C2396 0.950 . S
H2391 C2397 0.950 . S
H2392 C2398 0.949 . S
C2393 H2388 0.950 . S
C2393 C2395 1.327 . S
C2393 C2399 1.429 . S
C2394 C2386 1.574 . S
C2394 H2389 0.949 . S
C2394 C2400 1.368 . S
C2395 C2379 1.349 1_545 S
C2395 H2387 0.941 1_545 S
C2395 C2393 1.327 . S
C2396 C2384 1.349 . S
C2396 H2390 0.950 . S
C2396 C2397 1.327 . S
C2397 H2391 0.950 . S
C2397 C2396 1.327 . S
C2397 C2401 1.429 . S
C2398 C2381 1.574 . S
C2398 H2392 0.949 . S
C2398 C2402 1.368 . S
C2399 C2380 1.429 . S
C2399 C2393 1.429 . S
C2399 C2400 1.523 . S
C2400 C2381 1.368 . S
C2400 C2394 1.368 . S
C2400 C2399 1.523 . S
C2401 C2385 1.429 . S
C2401 C2397 1.429 . S
C2401 C2402 1.523 . S
C2402 C2386 1.368 . S
C2402 C2398 1.368 . S
C2402 C2401 1.523 . S
H2403 C2378 0.950 1_565 S
H2404 C2380 0.950 . S
H2405 C2381 0.949 . S
H2406 C2383 0.950 . S
H2407 C2385 0.950 . S
C2408 C2409 1.349 . S
C2408 C2410 1.327 . S
C2408 H2433 0.950 . S
C2409 C2408 1.349 . S
C2409 C2425 1.349 . S
C2410 C2408 1.327 . S
C2410 C2429 1.429 . S
C2410 H2434 0.950 . S
C2411 C2428 1.574 . S
C2411 C2430 1.368 . S
C2411 H2435 0.949 . S
H2412 C2416 0.949 . S
C2413 C2414 1.349 . S
C2413 C2415 1.327 . S
C2413 H2436 0.950 . S
C2414 C2413 1.349 . S
C2414 C2426 1.349 . S
C2415 C2413 1.327 . S
C2415 C2431 1.429 . S
C2415 H2437 0.950 1_565 S
C2416 H2412 0.949 . S
C2416 C2424 1.576 . S
C2416 C2432 1.368 . S
H2417 C2425 0.950 . S
H2418 C2423 0.950 . S
H2419 C2424 0.951 . S
H2420 C2426 0.950 . S
H2421 C2427 0.950 . S
H2422 C2428 0.949 . S
C2423 H2418 0.950 . S
C2423 C2425 1.327 . S
C2423 C2429 1.429 . S
C2424 C2416 1.576 . S
C2424 H2419 0.951 . S
C2424 C2430 1.363 1_565 S
C2425 C2409 1.349 . S
C2425 H2417 0.950 . S
C2425 C2423 1.327 . S
C2426 C2414 1.349 . S
C2426 H2420 0.950 . S
C2426 C2427 1.327 . S
C2427 H2421 0.950 . S
C2427 C2426 1.327 . S
C2427 C2431 1.429 . S
C2428 C2411 1.574 . S
C2428 H2422 0.949 . S
C2428 C2432 1.369 1_545 S
C2429 C2410 1.429 . S
C2429 C2423 1.429 . S
C2429 C2430 1.523 . S
C2430 C2411 1.368 . S
C2430 C2424 1.363 1_545 S
C2430 C2429 1.523 . S
C2431 C2415 1.429 . S
C2431 C2427 1.429 . S
C2431 C2432 1.523 . S
C2432 C2416 1.368 . S
C2432 C2428 1.369 1_565 S
C2432 C2431 1.523 . S
H2433 C2408 0.950 . S
H2434 C2410 0.950 . S
H2435 C2411 0.949 . S
H2436 C2413 0.950 . S
H2437 C2415 0.950 1_545 S
C2438 C2439 1.349 . S
C2438 C2440 1.327 . S
C2438 H2463 0.950 . S
C2439 C2438 1.349 . S
C2439 C2455 1.349 . S
C2440 C2438 1.327 . S
C2440 C2459 1.429 . S
C2440 H2464 0.950 . S
C2441 C2458 1.574 . S
C2441 C2460 1.368 . S
C2441 H2465 0.949 . S
H2442 C2446 0.949 . S
C2443 C2444 1.349 1_565 S
C2443 C2445 1.327 . S
C2443 H2466 0.950 1_565 S
C2444 C2443 1.349 1_545 S
C2444 C2456 1.349 1_545 S
C2445 C2443 1.327 . S
C2445 C2461 1.429 . S
C2445 H2467 0.950 . S
C2446 H2442 0.949 . S
C2446 C2454 1.574 . S
C2446 C2462 1.368 . S
H2447 C2455 0.950 . S
H2448 C2453 0.950 . S
H2449 C2454 0.949 . S
H2450 C2456 0.950 1_545 S
H2451 C2457 0.950 . S
H2452 C2458 0.949 . S
C2453 H2448 0.950 . S
C2453 C2455 1.327 . S
C2453 C2459 1.429 . S
C2454 C2446 1.574 . S
C2454 H2449 0.949 . S
C2454 C2460 1.368 . S
C2455 C2439 1.349 . S
C2455 H2447 0.950 . S
C2455 C2453 1.327 . S
C2456 C2444 1.349 1_565 S
C2456 H2450 0.950 1_565 S
C2456 C2457 1.327 . S
C2457 H2451 0.950 . S
C2457 C2456 1.327 . S
C2457 C2461 1.429 . S
C2458 C2441 1.574 . S
C2458 H2452 0.949 . S
C2458 C2462 1.368 . S
C2459 C2440 1.429 . S
C2459 C2453 1.429 . S
C2459 C2460 1.523 . S
C2460 C2441 1.368 . S
C2460 C2454 1.368 . S
C2460 C2459 1.523 . S
C2461 C2445 1.429 . S
C2461 C2457 1.429 . S
C2461 C2462 1.523 . S
C2462 C2446 1.368 . S
C2462 C2458 1.368 . S
C2462 C2461 1.523 . S
H2463 C2438 0.950 . S
H2464 C2440 0.950 . S
H2465 C2441 0.949 . S
H2466 C2443 0.950 1_545 S
H2467 C2445 0.950 . S
C2468 C2469 1.349 . S
C2468 C2470 1.327 . S
C2468 H2493 0.950 . S
C2469 C2468 1.349 . S
C2469 C2485 1.349 . S
C2470 C2468 1.327 . S
C2470 C2489 1.429 . S
C2470 H2494 0.950 . S
C2471 C2488 1.574 . S
C2471 C2490 1.368 1_545 S
C2471 H2495 0.949 . S
H2472 C2476 0.949 . S
C2473 C2474 1.349 1_655 S
C2473 C2475 1.327 . S
C2473 H2496 0.950 1_655 S
C2474 C2473 1.349 1_455 S
C2474 C2486 1.349 1_545 S
C2475 C2473 1.327 . S
C2475 C2491 1.429 . S
C2475 H2497 0.950 . S
C2476 H2472 0.949 . S
C2476 C2484 1.574 . S
C2476 C2492 1.369 1_565 S
H2477 C2485 0.966 . S
H2478 C2483 0.950 1_545 S
H2479 C2484 0.949 . S
H2480 C2486 0.950 . S
H2481 C2487 0.950 . S
H2482 C2488 0.949 . S
C2483 H2478 0.950 1_565 S
C2483 C2485 1.327 . S
C2483 C2489 1.429 . S
C2484 C2476 1.574 . S
C2484 H2479 0.949 . S
C2484 C2490 1.368 . S
C2485 C2469 1.349 . S
C2485 H2477 0.966 . S
C2485 C2483 1.327 . S
C2486 C2474 1.349 1_565 S
C2486 H2480 0.950 . S
C2486 C2487 1.327 1_455 S
C2487 H2481 0.950 . S
C2487 C2486 1.327 1_655 S
C2487 C2491 1.429 1_565 S
C2488 C2471 1.574 . S
C2488 H2482 0.949 . S
C2488 C2492 1.368 . S
C2489 C2470 1.429 . S
C2489 C2483 1.429 . S
C2489 C2490 1.523 . S
C2490 C2471 1.368 1_565 S
C2490 C2484 1.368 . S
C2490 C2489 1.523 . S
C2491 C2475 1.429 . S
C2491 C2487 1.429 1_545 S
C2491 C2492 1.523 . S
C2492 C2476 1.369 1_545 S
C2492 C2488 1.368 . S
C2492 C2491 1.523 . S
H2493 C2468 0.950 . S
H2494 C2470 0.950 . S
H2495 C2471 0.949 . S
H2496 C2473 0.950 1_455 S
H2497 C2475 0.950 . S
C2498 C2499 1.349 . S
C2498 C2500 1.327 . S
C2498 H2523 0.950 . S
C2499 C2498 1.349 . S
C2499 C2515 1.349 . S
C2500 C2498 1.327 . S
C2500 C2519 1.429 . S
C2500 H2524 0.950 . S
C2501 C2518 1.574 . S
C2501 C2520 1.368 . S
C2501 H2525 0.949 . S
H2502 C2506 0.949 . S
C2503 C2504 1.349 1_545 S
C2503 C2505 1.327 . S
C2503 H2526 0.938 1_545 S
C2504 C2503 1.349 1_565 S
C2504 C2516 1.349 1_565 S
C2505 C2503 1.327 . S
C2505 C2521 1.429 . S
C2505 H2527 0.950 . S
C2506 H2502 0.949 . S
C2506 C2514 1.574 . S
C2506 C2522 1.368 . S
H2507 C2515 0.950 . S
H2508 C2513 0.950 . S
H2509 C2514 0.949 . S
H2510 C2516 0.950 1_565 S
H2511 C2517 0.950 . S
H2512 C2518 0.949 . S
C2513 H2508 0.950 . S
C2513 C2515 1.327 . S
C2513 C2519 1.429 . S
C2514 C2506 1.574 . S
C2514 H2509 0.949 . S
C2514 C2520 1.368 . S
C2515 C2499 1.349 . S
C2515 H2507 0.950 . S
C2515 C2513 1.327 . S
C2516 C2504 1.349 1_545 S
C2516 H2510 0.950 1_545 S
C2516 C2517 1.327 . S
C2517 H2511 0.950 . S
C2517 C2516 1.327 . S
C2517 C2521 1.429 . S
C2518 C2501 1.574 . S
C2518 H2512 0.949 . S
C2518 C2522 1.368 . S
C2519 C2500 1.429 . S
C2519 C2513 1.429 . S
C2519 C2520 1.523 . S
C2520 C2501 1.368 . S
C2520 C2514 1.368 . S
C2520 C2519 1.523 . S
C2521 C2505 1.429 . S
C2521 C2517 1.429 . S
C2521 C2522 1.523 . S
C2522 C2506 1.368 . S
C2522 C2518 1.368 . S
C2522 C2521 1.523 . S
H2523 C2498 0.950 . S
H2524 C2500 0.950 . S
H2525 C2501 0.949 . S
H2526 C2503 0.938 1_565 S
H2527 C2505 0.950 . S
C2528 C2529 1.345 1_655 S
C2528 C2530 1.333 . S
C2528 H2553 0.947 1_655 S
C2529 C2528 1.345 1_455 S
C2529 C2545 1.349 . S
C2530 C2528 1.333 . S
C2530 C2549 1.429 . S
C2530 H2554 0.950 . S
C2531 C2548 1.574 . S
C2531 C2550 1.368 . S
C2531 H2555 0.949 . S
H2532 C2536 0.949 . S
C2533 C2534 1.349 . S
C2533 C2535 1.327 . S
C2533 H2556 0.950 . S
C2534 C2533 1.349 . S
C2534 C2546 1.349 . S
C2535 C2533 1.327 . S
C2535 C2551 1.429 . S
C2535 H2557 0.950 . S
C2536 H2532 0.949 . S
C2536 C2544 1.574 . S
C2536 C2552 1.368 . S
H2537 C2545 0.950 . S
H2538 C2543 0.950 . S
H2539 C2544 0.949 . S
H2540 C2546 0.950 . S
H2541 C2547 0.950 . S
H2542 C2548 0.949 . S
C2543 H2538 0.950 . S
C2543 C2545 1.327 1_655 S
C2543 C2549 1.429 . S
C2544 C2536 1.574 . S
C2544 H2539 0.949 . S
C2544 C2550 1.368 . S
C2545 C2529 1.349 . S
C2545 H2537 0.950 . S
C2545 C2543 1.327 1_455 S
C2546 C2534 1.349 . S
C2546 H2540 0.950 . S
C2546 C2547 1.327 . S
C2547 H2541 0.950 . S
C2547 C2546 1.327 . S
C2547 C2551 1.429 . S
C2548 C2531 1.574 . S
C2548 H2542 0.949 . S
C2548 C2552 1.368 . S
C2549 C2530 1.429 . S
C2549 C2543 1.429 . S
C2549 C2550 1.523 . S
C2550 C2531 1.368 . S
C2550 C2544 1.368 . S
C2550 C2549 1.523 . S
C2551 C2535 1.429 . S
C2551 C2547 1.429 . S
C2551 C2552 1.523 . S
C2552 C2536 1.368 . S
C2552 C2548 1.368 . S
C2552 C2551 1.523 . S
H2553 C2528 0.947 1_455 S
H2554 C2530 0.950 . S
H2555 C2531 0.949 . S
H2556 C2533 0.950 . S
H2557 C2535 0.950 . S
C2558 C2559 1.349 . S
C2558 C2560 1.327 . S
C2558 H2583 0.950 . S
C2559 C2558 1.349 . S
C2559 C2575 1.349 . S
C2560 C2558 1.327 . S
C2560 C2579 1.429 . S
C2560 H2584 0.950 . S
C2561 C2578 1.574 . S
C2561 C2580 1.368 . S
C2561 H2585 0.949 . S
H2562 C2566 0.949 . S
C2563 C2564 1.349 . S
C2563 C2565 1.327 . S
C2563 H2586 0.950 . S
C2564 C2563 1.349 . S
C2564 C2576 1.349 . S
C2565 C2563 1.327 . S
C2565 C2581 1.429 . S
C2565 H2587 0.950 . S
C2566 H2562 0.949 . S
C2566 C2574 1.574 . S
C2566 C2582 1.368 . S
H2567 C2575 0.950 . S
H2568 C2573 0.950 . S
H2569 C2574 0.949 . S
H2570 C2576 0.950 . S
H2571 C2577 0.950 . S
H2572 C2578 0.949 . S
C2573 H2568 0.950 . S
C2573 C2575 1.327 . S
C2573 C2579 1.429 . S
C2574 C2566 1.574 . S
C2574 H2569 0.949 . S
C2574 C2580 1.368 . S
C2575 C2559 1.349 . S
C2575 H2567 0.950 . S
C2575 C2573 1.327 . S
C2576 C2564 1.349 . S
C2576 H2570 0.950 . S
C2576 C2577 1.327 . S
C2577 H2571 0.950 . S
C2577 C2576 1.327 . S
C2577 C2581 1.429 . S
C2578 C2561 1.574 . S
C2578 H2572 0.949 . S
C2578 C2582 1.368 . S
C2579 C2560 1.429 . S
C2579 C2573 1.429 . S
C2579 C2580 1.523 . S
C2580 C2561 1.368 . S
C2580 C2574 1.368 . S
C2580 C2579 1.523 . S
C2581 C2565 1.429 . S
C2581 C2577 1.429 . S
C2581 C2582 1.523 . S
C2582 C2566 1.368 . S
C2582 C2578 1.368 . S
C2582 C2581 1.523 . S
H2583 C2558 0.950 . S
H2584 C2560 0.950 . S
H2585 C2561 0.949 . S
H2586 C2563 0.950 . S
H2587 C2565 0.950 . S
C2588 C2589 1.349 . S
C2588 C2590 1.327 . S
C2588 H2613 0.950 . S
C2589 C2588 1.349 . S
C2589 C2605 1.349 . S
C2590 C2588 1.327 . S
C2590 C2609 1.429 . S
C2590 H2614 0.950 . S
C2591 C2608 1.574 . S
C2591 C2610 1.368 . S
C2591 H2615 0.949 . S
H2592 C2596 0.949 . S
C2593 C2594 1.349 . S
C2593 C2595 1.327 . S
C2593 H2616 0.950 . S
C2594 C2593 1.349 . S
C2594 C2606 1.349 . S
C2595 C2593 1.327 . S
C2595 C2611 1.429 . S
C2595 H2617 0.950 . S
C2596 H2592 0.949 . S
C2596 C2604 1.574 . S
C2596 C2612 1.368 . S
H2597 C2605 0.950 . S
H2598 C2603 0.950 . S
H2599 C2604 0.949 . S
H2600 C2606 0.950 . S
H2601 C2607 0.950 . S
H2602 C2608 0.949 . S
C2603 H2598 0.950 . S
C2603 C2605 1.327 . S
C2603 C2609 1.429 . S
C2604 C2596 1.574 . S
C2604 H2599 0.949 . S
C2604 C2610 1.368 . S
C2605 C2589 1.349 . S
C2605 H2597 0.950 . S
C2605 C2603 1.327 . S
C2606 C2594 1.349 . S
C2606 H2600 0.950 . S
C2606 C2607 1.327 . S
C2607 H2601 0.950 . S
C2607 C2606 1.327 . S
C2607 C2611 1.429 . S
C2608 C2591 1.574 . S
C2608 H2602 0.949 . S
C2608 C2612 1.368 . S
C2609 C2590 1.429 . S
C2609 C2603 1.429 . S
C2609 C2610 1.523 . S
C2610 C2591 1.368 . S
C2610 C2604 1.368 . S
C2610 C2609 1.523 . S
C2611 C2595 1.429 . S
C2611 C2607 1.429 . S
C2611 C2612 1.523 . S
C2612 C2596 1.368 . S
C2612 C2608 1.368 . S
C2612 C2611 1.523 . S
H2613 C2588 0.950 . S
H2614 C2590 0.950 . S
H2615 C2591 0.949 . S
H2616 C2593 0.950 . S
H2617 C2595 0.950 . S
C2618 C2619 1.349 . S
C2618 C2620 1.327 . S
C2618 H2643 0.950 . S
C2619 C2618 1.349 . S
C2619 C2635 1.349 . S
C2620 C2618 1.327 . S
C2620 C2639 1.429 . S
C2620 H2644 0.950 . S
C2621 C2638 1.574 . S
C2621 C2640 1.368 . S
C2621 H2645 0.949 . S
H2622 C2626 0.949 . S
C2623 C2624 1.349 . S
C2623 C2625 1.327 . S
C2623 H2646 0.950 . S
C2624 C2623 1.349 . S
C2624 C2636 1.349 . S
C2625 C2623 1.327 . S
C2625 C2641 1.429 . S
C2625 H2647 0.950 . S
C2626 H2622 0.949 . S
C2626 C2634 1.574 . S
C2626 C2642 1.368 . S
H2627 C2635 0.950 . S
H2628 C2633 0.950 . S
H2629 C2634 0.949 . S
H2630 C2636 0.950 . S
H2631 C2637 0.950 . S
H2632 C2638 0.949 . S
C2633 H2628 0.950 . S
C2633 C2635 1.327 . S
C2633 C2639 1.429 . S
C2634 C2626 1.574 . S
C2634 H2629 0.949 . S
C2634 C2640 1.368 . S
C2635 C2619 1.349 . S
C2635 H2627 0.950 . S
C2635 C2633 1.327 . S
C2636 C2624 1.349 . S
C2636 H2630 0.950 . S
C2636 C2637 1.327 . S
C2637 H2631 0.950 . S
C2637 C2636 1.327 . S
C2637 C2641 1.429 . S
C2638 C2621 1.574 . S
C2638 H2632 0.949 . S
C2638 C2642 1.368 . S
C2639 C2620 1.429 . S
C2639 C2633 1.429 . S
C2639 C2640 1.523 . S
C2640 C2621 1.368 . S
C2640 C2634 1.368 . S
C2640 C2639 1.523 . S
C2641 C2625 1.429 . S
C2641 C2637 1.429 . S
C2641 C2642 1.523 . S
C2642 C2626 1.368 . S
C2642 C2638 1.368 . S
C2642 C2641 1.523 . S
H2643 C2618 0.950 . S
H2644 C2620 0.950 . S
H2645 C2621 0.949 . S
H2646 C2623 0.950 . S
H2647 C2625 0.950 . S
C2648 C2649 1.349 . S
C2648 C2650 1.327 . S
C2648 H2673 0.950 . S
C2649 C2648 1.349 . S
C2649 C2665 1.349 . S
C2650 C2648 1.327 . S
C2650 C2669 1.429 . S
C2650 H2674 0.950 . S
C2651 C2668 1.574 . S
C2651 C2670 1.368 . S
C2651 H2675 0.949 . S
H2652 C2656 0.949 . S
C2653 C2654 1.349 . S
C2653 C2655 1.327 1_455 S
C2653 H2676 0.950 . S
C2654 C2653 1.349 . S
C2654 C2666 1.330 1_455 S
C2655 C2653 1.327 1_655 S
C2655 C2671 1.429 . S
C2655 H2677 0.950 . S
C2656 H2652 0.949 . S
C2656 C2664 1.574 . S
C2656 C2672 1.368 . S
H2657 C2665 0.950 . S
H2658 C2663 0.950 . S
H2659 C2664 0.949 . S
H2660 C2666 0.938 1_455 S
H2661 C2667 0.950 . S
H2662 C2668 0.949 . S
C2663 H2658 0.950 . S
C2663 C2665 1.327 . S
C2663 C2669 1.429 . S
C2664 C2656 1.574 . S
C2664 H2659 0.949 . S
C2664 C2670 1.368 . S
C2665 C2649 1.349 . S
C2665 H2657 0.950 . S
C2665 C2663 1.327 . S
C2666 C2654 1.330 1_655 S
C2666 H2660 0.938 1_655 S
C2666 C2667 1.358 . S
C2667 H2661 0.950 . S
C2667 C2666 1.358 . S
C2667 C2671 1.429 . S
C2668 C2651 1.574 . S
C2668 H2662 0.949 . S
C2668 C2672 1.368 . S
C2669 C2650 1.429 . S
C2669 C2663 1.429 . S
C2669 C2670 1.523 . S
C2670 C2651 1.368 . S
C2670 C2664 1.368 . S
C2670 C2669 1.523 . S
C2671 C2655 1.429 . S
C2671 C2667 1.429 . S
C2671 C2672 1.523 . S
C2672 C2656 1.368 . S
C2672 C2668 1.368 . S
C2672 C2671 1.523 . S
H2673 C2648 0.950 . S
H2674 C2650 0.950 . S
H2675 C2651 0.949 . S
H2676 C2653 0.950 . S
H2677 C2655 0.950 . S
C2678 C2679 1.349 . S
C2678 C2680 1.327 . S
C2678 H2703 0.950 . S
C2679 C2678 1.349 . S
C2679 C2695 1.349 . S
C2680 C2678 1.327 . S
C2680 C2699 1.429 . S
C2680 H2704 0.950 . S
C2681 C2698 1.574 . S
C2681 C2700 1.368 . S
C2681 H2705 0.949 . S
H2682 C2686 0.949 . S
C2683 C2684 1.349 . S
C2683 C2685 1.327 . S
C2683 H2706 0.950 . S
C2684 C2683 1.349 . S
C2684 C2696 1.349 . S
C2685 C2683 1.327 . S
C2685 C2701 1.429 . S
C2685 H2707 0.950 . S
C2686 H2682 0.949 . S
C2686 C2694 1.574 . S
C2686 C2702 1.368 . S
H2687 C2695 0.950 . S
H2688 C2693 0.950 . S
H2689 C2694 0.949 . S
H2690 C2696 0.950 . S
H2691 C2697 0.950 . S
H2692 C2698 0.949 . S
C2693 H2688 0.950 . S
C2693 C2695 1.327 . S
C2693 C2699 1.429 . S
C2694 C2686 1.574 . S
C2694 H2689 0.949 . S
C2694 C2700 1.368 . S
C2695 C2679 1.349 . S
C2695 H2687 0.950 . S
C2695 C2693 1.327 . S
C2696 C2684 1.349 . S
C2696 H2690 0.950 . S
C2696 C2697 1.327 . S
C2697 H2691 0.950 . S
C2697 C2696 1.327 . S
C2697 C2701 1.429 . S
C2698 C2681 1.574 . S
C2698 H2692 0.949 . S
C2698 C2702 1.368 . S
C2699 C2680 1.429 . S
C2699 C2693 1.429 . S
C2699 C2700 1.523 . S
C2700 C2681 1.368 . S
C2700 C2694 1.368 . S
C2700 C2699 1.523 . S
C2701 C2685 1.429 . S
C2701 C2697 1.429 . S
C2701 C2702 1.523 . S
C2702 C2686 1.368 . S
C2702 C2698 1.368 . S
C2702 C2701 1.523 . S
H2703 C2678 0.950 . S
H2704 C2680 0.950 . S
H2705 C2681 0.949 . S
H2706 C2683 0.950 . S
H2707 C2685 0.950 . S
C2708 C2709 1.349 . S
C2708 C2710 1.327 . S
C2708 H2733 0.950 . S
C2709 C2708 1.349 . S
C2709 C2725 1.349 . S
C2710 C2708 1.327 . S
C2710 C2729 1.429 . S
C2710 H2734 0.950 . S
C2711 C2728 1.574 . S
C2711 C2730 1.368 . S
C2711 H2735 0.949 . S
H2712 C2716 0.949 . S
C2713 C2714 1.349 . S
C2713 C2715 1.327 . S
C2713 H2736 0.950 . S
C2714 C2713 1.349 . S
C2714 C2726 1.349 . S
C2715 C2713 1.327 . S
C2715 C2731 1.429 . S
C2715 H2737 0.950 . S
C2716 H2712 0.949 . S
C2716 C2724 1.574 . S
C2716 C2732 1.368 . S
H2717 C2725 0.950 . S
H2718 C2723 0.950 . S
H2719 C2724 0.949 . S
H2720 C2726 0.950 . S
H2721 C2727 0.950 . S
H2722 C2728 0.949 . S
C2723 H2718 0.950 . S
C2723 C2725 1.327 . S
C2723 C2729 1.429 . S
C2724 C2716 1.574 . S
C2724 H2719 0.949 . S
C2724 C2730 1.368 . S
C2725 C2709 1.349 . S
C2725 H2717 0.950 . S
C2725 C2723 1.327 . S
C2726 C2714 1.349 . S
C2726 H2720 0.950 . S
C2726 C2727 1.327 . S
C2727 H2721 0.950 . S
C2727 C2726 1.327 . S
C2727 C2731 1.429 . S
C2728 C2711 1.574 . S
C2728 H2722 0.949 . S
C2728 C2732 1.368 . S
C2729 C2710 1.429 . S
C2729 C2723 1.429 . S
C2729 C2730 1.523 . S
C2730 C2711 1.368 . S
C2730 C2724 1.368 . S
C2730 C2729 1.523 . S
C2731 C2715 1.429 . S
C2731 C2727 1.429 . S
C2731 C2732 1.523 . S
C2732 C2716 1.368 . S
C2732 C2728 1.368 . S
C2732 C2731 1.523 . S
H2733 C2708 0.950 . S
H2734 C2710 0.950 . S
H2735 C2711 0.949 . S
H2736 C2713 0.950 . S
H2737 C2715 0.950 . S
C2738 C2739 1.349 . S
C2738 C2740 1.327 . S
C2738 H2763 0.950 . S
C2739 C2738 1.349 . S
C2739 C2755 1.349 . S
C2740 C2738 1.327 . S
C2740 C2759 1.429 . S
C2740 H2764 0.950 . S
C2741 C2758 1.574 . S
C2741 C2760 1.368 . S
C2741 H2765 0.949 . S
H2742 C2746 0.949 . S
C2743 C2744 1.349 . S
C2743 C2745 1.327 . S
C2743 H2766 0.950 . S
C2744 C2743 1.349 . S
C2744 C2756 1.349 . S
C2745 C2743 1.327 . S
C2745 C2761 1.429 . S
C2745 H2767 0.950 . S
C2746 H2742 0.949 . S
C2746 C2754 1.574 . S
C2746 C2762 1.368 . S
H2747 C2755 0.950 . S
H2748 C2753 0.950 . S
H2749 C2754 0.949 . S
H2750 C2756 0.950 . S
H2751 C2757 0.950 . S
H2752 C2758 0.949 . S
C2753 H2748 0.950 . S
C2753 C2755 1.327 . S
C2753 C2759 1.429 . S
C2754 C2746 1.574 . S
C2754 H2749 0.949 . S
C2754 C2760 1.368 . S
C2755 C2739 1.349 . S
C2755 H2747 0.950 . S
C2755 C2753 1.327 . S
C2756 C2744 1.349 . S
C2756 H2750 0.950 . S
C2756 C2757 1.327 . S
C2757 H2751 0.950 . S
C2757 C2756 1.327 . S
C2757 C2761 1.429 . S
C2758 C2741 1.574 . S
C2758 H2752 0.949 . S
C2758 C2762 1.368 . S
C2759 C2740 1.429 . S
C2759 C2753 1.429 . S
C2759 C2760 1.523 . S
C2760 C2741 1.368 . S
C2760 C2754 1.368 . S
C2760 C2759 1.523 . S
C2761 C2745 1.429 . S
C2761 C2757 1.429 . S
C2761 C2762 1.523 . S
C2762 C2746 1.368 . S
C2762 C2758 1.368 . S
C2762 C2761 1.523 . S
H2763 C2738 0.950 . S
H2764 C2740 0.950 . S
H2765 C2741 0.949 . S
H2766 C2743 0.950 . S
H2767 C2745 0.950 . S
C2768 C2769 1.349 . S
C2768 C2770 1.327 . S
C2768 H2793 0.950 . S
C2769 C2768 1.349 . S
C2769 C2785 1.349 . S
C2770 C2768 1.327 . S
C2770 C2789 1.429 . S
C2770 H2794 0.950 . S
C2771 C2788 1.574 . S
C2771 C2790 1.368 . S
C2771 H2795 0.949 . S
H2772 C2776 0.949 . S
C2773 C2774 1.349 . S
C2773 C2775 1.327 1_655 S
C2773 H2796 0.950 . S
C2774 C2773 1.349 . S
C2774 C2786 1.348 . S
C2775 C2773 1.327 1_455 S
C2775 C2791 1.429 . S
C2775 H2797 0.950 . S
C2776 H2772 0.949 . S
C2776 C2784 1.574 . S
C2776 C2792 1.368 . S
H2777 C2785 0.950 . S
H2778 C2783 0.950 . S
H2779 C2784 0.949 . S
H2780 C2786 0.949 . S
H2781 C2787 0.950 . S
H2782 C2788 0.949 . S
C2783 H2778 0.950 . S
C2783 C2785 1.327 . S
C2783 C2789 1.429 . S
C2784 C2776 1.574 . S
C2784 H2779 0.949 . S
C2784 C2790 1.368 . S
C2785 C2769 1.349 . S
C2785 H2777 0.950 . S
C2785 C2783 1.327 . S
C2786 C2774 1.348 . S
C2786 H2780 0.949 . S
C2786 C2787 1.329 1_655 S
C2787 H2781 0.950 . S
C2787 C2786 1.329 1_455 S
C2787 C2791 1.429 . S
C2788 C2771 1.574 . S
C2788 H2782 0.949 . S
C2788 C2792 1.368 . S
C2789 C2770 1.429 . S
C2789 C2783 1.429 . S
C2789 C2790 1.523 . S
C2790 C2771 1.368 . S
C2790 C2784 1.368 . S
C2790 C2789 1.523 . S
C2791 C2775 1.429 . S
C2791 C2787 1.429 . S
C2791 C2792 1.523 . S
C2792 C2776 1.368 . S
C2792 C2788 1.368 . S
C2792 C2791 1.523 . S
H2793 C2768 0.950 . S
H2794 C2770 0.950 . S
H2795 C2771 0.949 . S
H2796 C2773 0.950 . S
H2797 C2775 0.950 . S
C2798 C2799 1.349 . S
C2798 C2800 1.327 . S
C2798 H2823 0.950 . S
C2799 C2798 1.349 . S
C2799 C2815 1.349 . S
C2800 C2798 1.327 . S
C2800 C2819 1.429 . S
C2800 H2824 0.950 . S
C2801 C2818 1.574 . S
C2801 C2820 1.368 . S
C2801 H2825 0.949 . S
H2802 C2806 0.949 . S
C2803 C2804 1.349 . S
C2803 C2805 1.327 . S
C2803 H2826 0.950 . S
C2804 C2803 1.349 . S
C2804 C2816 1.349 . S
C2805 C2803 1.327 . S
C2805 C2821 1.429 . S
C2805 H2827 0.950 . S
C2806 H2802 0.949 . S
C2806 C2814 1.574 . S
C2806 C2822 1.368 . S
H2807 C2815 0.950 . S
H2808 C2813 0.950 . S
H2809 C2814 0.949 . S
H2810 C2816 0.950 . S
H2811 C2817 0.950 . S
H2812 C2818 0.949 . S
C2813 H2808 0.950 . S
C2813 C2815 1.327 . S
C2813 C2819 1.429 . S
C2814 C2806 1.574 . S
C2814 H2809 0.949 . S
C2814 C2820 1.368 . S
C2815 C2799 1.349 . S
C2815 H2807 0.950 . S
C2815 C2813 1.327 . S
C2816 C2804 1.349 . S
C2816 H2810 0.950 . S
C2816 C2817 1.327 . S
C2817 H2811 0.950 . S
C2817 C2816 1.327 . S
C2817 C2821 1.429 . S
C2818 C2801 1.574 . S
C2818 H2812 0.949 . S
C2818 C2822 1.368 . S
C2819 C2800 1.429 . S
C2819 C2813 1.429 . S
C2819 C2820 1.523 . S
C2820 C2801 1.368 . S
C2820 C2814 1.368 . S
C2820 C2819 1.523 . S
C2821 C2805 1.429 . S
C2821 C2817 1.429 . S
C2821 C2822 1.523 . S
C2822 C2806 1.368 . S
C2822 C2818 1.368 . S
C2822 C2821 1.523 . S
H2823 C2798 0.950 . S
H2824 C2800 0.950 . S
H2825 C2801 0.949 . S
H2826 C2803 0.950 . S
H2827 C2805 0.950 . S
C2828 C2829 1.349 . S
C2828 C2830 1.327 . S
C2828 H2853 0.950 . S
C2829 C2828 1.349 . S
C2829 C2845 1.349 . S
C2830 C2828 1.327 . S
C2830 C2849 1.429 . S
C2830 H2854 0.950 . S
C2831 C2848 1.574 . S
C2831 C2850 1.368 . S
C2831 H2855 0.949 . S
H2832 C2836 0.949 . S
C2833 C2834 1.349 . S
C2833 C2835 1.327 . S
C2833 H2856 0.950 . S
C2834 C2833 1.349 . S
C2834 C2846 1.349 . S
C2835 C2833 1.327 . S
C2835 C2851 1.429 . S
C2835 H2857 0.950 . S
C2836 H2832 0.949 . S
C2836 C2844 1.574 . S
C2836 C2852 1.368 . S
H2837 C2845 0.950 . S
H2838 C2843 0.950 . S
H2839 C2844 0.949 . S
H2840 C2846 0.950 . S
H2841 C2847 0.950 . S
H2842 C2848 0.949 . S
C2843 H2838 0.950 . S
C2843 C2845 1.327 . S
C2843 C2849 1.429 . S
C2844 C2836 1.574 . S
C2844 H2839 0.949 . S
C2844 C2850 1.368 . S
C2845 C2829 1.349 . S
C2845 H2837 0.950 . S
C2845 C2843 1.327 . S
C2846 C2834 1.349 . S
C2846 H2840 0.950 . S
C2846 C2847 1.327 . S
C2847 H2841 0.950 . S
C2847 C2846 1.327 . S
C2847 C2851 1.429 . S
C2848 C2831 1.574 . S
C2848 H2842 0.949 . S
C2848 C2852 1.368 . S
C2849 C2830 1.429 . S
C2849 C2843 1.429 . S
C2849 C2850 1.523 . S
C2850 C2831 1.368 . S
C2850 C2844 1.368 . S
C2850 C2849 1.523 . S
C2851 C2835 1.429 . S
C2851 C2847 1.429 . S
C2851 C2852 1.523 . S
C2852 C2836 1.368 . S
C2852 C2848 1.368 . S
C2852 C2851 1.523 . S
H2853 C2828 0.950 . S
H2854 C2830 0.950 . S
H2855 C2831 0.949 . S
H2856 C2833 0.950 . S
H2857 C2835 0.950 . S
C2858 C2859 1.349 . S
C2858 C2860 1.327 . S
C2858 H2883 0.950 . S
C2859 C2858 1.349 . S
C2859 C2875 1.349 . S
C2860 C2858 1.327 . S
C2860 C2879 1.429 . S
C2860 H2884 0.950 . S
C2861 C2878 1.574 . S
C2861 C2880 1.368 . S
C2861 H2885 0.949 . S
H2862 C2866 0.949 . S
C2863 C2864 1.349 . S
C2863 C2865 1.327 . S
C2863 H2886 0.950 . S
C2864 C2863 1.349 . S
C2864 C2876 1.349 . S
C2865 C2863 1.327 . S
C2865 C2881 1.429 . S
C2865 H2887 0.950 . S
C2866 H2862 0.949 . S
C2866 C2874 1.574 . S
C2866 C2882 1.368 . S
H2867 C2875 0.950 . S
H2868 C2873 0.950 . S
H2869 C2874 0.949 . S
H2870 C2876 0.950 . S
H2871 C2877 0.950 . S
H2872 C2878 0.949 . S
C2873 H2868 0.950 . S
C2873 C2875 1.327 . S
C2873 C2879 1.429 . S
C2874 C2866 1.574 . S
C2874 H2869 0.949 . S
C2874 C2880 1.368 . S
C2875 C2859 1.349 . S
C2875 H2867 0.950 . S
C2875 C2873 1.327 . S
C2876 C2864 1.349 . S
C2876 H2870 0.950 . S
C2876 C2877 1.327 . S
C2877 H2871 0.950 . S
C2877 C2876 1.327 . S
C2877 C2881 1.429 . S
C2878 C2861 1.574 . S
C2878 H2872 0.949 . S
C2878 C2882 1.368 . S
C2879 C2860 1.429 . S
C2879 C2873 1.429 . S
C2879 C2880 1.523 . S
C2880 C2861 1.368 . S
C2880 C2874 1.368 . S
C2880 C2879 1.523 . S
C2881 C2865 1.429 . S
C2881 C2877 1.429 . S
C2881 C2882 1.523 . S
C2882 C2866 1.368 . S
C2882 C2878 1.368 . S
C2882 C2881 1.523 . S
H2883 C2858 0.950 . S
H2884 C2860 0.950 . S
H2885 C2861 0.949 . S
H2886 C2863 0.950 . S
H2887 C2865 0.950 . S
C2888 C2889 1.349 . S
C2888 C2890 1.327 . S
C2888 H2913 0.950 . S
C2889 C2888 1.349 . S
C2889 C2905 1.349 . S
C2890 C2888 1.327 . S
C2890 C2909 1.429 . S
C2890 H2914 0.950 . S
C2891 C2908 1.574 . S
C2891 C2910 1.368 . S
C2891 H2915 0.949 . S
H2892 C2896 0.949 . S
C2893 C2894 1.349 . S
C2893 C2895 1.327 1_655 S
C2893 H2916 0.950 . S
C2894 C2893 1.349 . S
C2894 C2906 1.349 . S
C2895 C2893 1.327 1_455 S
C2895 C2911 1.429 . S
C2895 H2917 0.950 . S
C2896 H2892 0.949 . S
C2896 C2904 1.574 . S
C2896 C2912 1.368 . S
H2897 C2905 0.950 . S
H2898 C2903 0.950 . S
H2899 C2904 0.949 . S
H2900 C2906 0.950 . S
H2901 C2907 0.950 . S
H2902 C2908 0.949 . S
C2903 H2898 0.950 . S
C2903 C2905 1.327 . S
C2903 C2909 1.429 . S
C2904 C2896 1.574 . S
C2904 H2899 0.949 . S
C2904 C2910 1.368 . S
C2905 C2889 1.349 . S
C2905 H2897 0.950 . S
C2905 C2903 1.327 . S
C2906 C2894 1.349 . S
C2906 H2900 0.950 . S
C2906 C2907 1.327 1_655 S
C2907 H2901 0.950 . S
C2907 C2906 1.327 1_455 S
C2907 C2911 1.429 . S
C2908 C2891 1.574 . S
C2908 H2902 0.949 . S
C2908 C2912 1.368 . S
C2909 C2890 1.429 . S
C2909 C2903 1.429 . S
C2909 C2910 1.523 . S
C2910 C2891 1.368 . S
C2910 C2904 1.368 . S
C2910 C2909 1.523 . S
C2911 C2895 1.429 . S
C2911 C2907 1.429 . S
C2911 C2912 1.523 . S
C2912 C2896 1.368 . S
C2912 C2908 1.368 . S
C2912 C2911 1.523 . S
H2913 C2888 0.950 . S
H2914 C2890 0.950 . S
H2915 C2891 0.949 . S
H2916 C2893 0.950 . S
H2917 C2895 0.950 . S
C2918 C2919 1.349 . S
C2918 C2920 1.327 . S
C2918 H2943 0.950 . S
C2919 C2918 1.349 . S
C2919 C2935 1.349 . S
C2920 C2918 1.327 . S
C2920 C2939 1.429 . S
C2920 H2944 0.950 . S
C2921 C2938 1.574 . S
C2921 C2940 1.368 . S
C2921 H2945 0.949 . S
H2922 C2926 0.949 . S
C2923 C2924 1.349 . S
C2923 C2925 1.327 . S
C2923 H2946 0.950 . S
C2924 C2923 1.349 . S
C2924 C2936 1.349 . S
C2925 C2923 1.327 . S
C2925 C2941 1.429 . S
C2925 H2947 0.950 . S
C2926 H2922 0.949 . S
C2926 C2934 1.574 . S
C2926 C2942 1.368 . S
H2927 C2935 0.950 . S
H2928 C2933 0.950 . S
H2929 C2934 0.949 . S
H2930 C2936 0.950 . S
H2931 C2937 0.950 . S
H2932 C2938 0.949 . S
C2933 H2928 0.950 . S
C2933 C2935 1.327 . S
C2933 C2939 1.429 . S
C2934 C2926 1.574 . S
C2934 H2929 0.949 . S
C2934 C2940 1.368 . S
C2935 C2919 1.349 . S
C2935 H2927 0.950 . S
C2935 C2933 1.327 . S
C2936 C2924 1.349 . S
C2936 H2930 0.950 . S
C2936 C2937 1.327 . S
C2937 H2931 0.950 . S
C2937 C2936 1.327 . S
C2937 C2941 1.429 . S
C2938 C2921 1.574 . S
C2938 H2932 0.949 . S
C2938 C2942 1.368 . S
C2939 C2920 1.429 . S
C2939 C2933 1.429 . S
C2939 C2940 1.523 . S
C2940 C2921 1.368 . S
C2940 C2934 1.368 . S
C2940 C2939 1.523 . S
C2941 C2925 1.429 . S
C2941 C2937 1.429 . S
C2941 C2942 1.523 . S
C2942 C2926 1.368 . S
C2942 C2938 1.368 . S
C2942 C2941 1.523 . S
H2943 C2918 0.950 . S
H2944 C2920 0.950 . S
H2945 C2921 0.949 . S
H2946 C2923 0.950 . S
H2947 C2925 0.950 . S
C2948 C2949 1.349 . S
C2948 C2950 1.327 . S
C2948 H2973 0.950 . S
C2949 C2948 1.349 . S
C2949 C2965 1.349 . S
C2950 C2948 1.327 . S
C2950 C2969 1.429 . S
C2950 H2974 0.950 . S
C2951 C2968 1.574 . S
C2951 C2970 1.368 . S
C2951 H2975 0.949 . S
H2952 C2956 0.949 . S
C2953 C2954 1.349 . S
C2953 C2955 1.327 . S
C2953 H2976 0.950 . S
C2954 C2953 1.349 . S
C2954 C2966 1.349 . S
C2955 C2953 1.327 . S
C2955 C2971 1.429 . S
C2955 H2977 0.950 . S
C2956 H2952 0.949 . S
C2956 C2964 1.574 . S
C2956 C2972 1.368 . S
H2957 C2965 0.950 . S
H2958 C2963 0.950 . S
H2959 C2964 0.949 . S
H2960 C2966 0.950 . S
H2961 C2967 0.950 . S
H2962 C2968 0.949 . S
C2963 H2958 0.950 . S
C2963 C2965 1.327 . S
C2963 C2969 1.429 . S
C2964 C2956 1.574 . S
C2964 H2959 0.949 . S
C2964 C2970 1.368 . S
C2965 C2949 1.349 . S
C2965 H2957 0.950 . S
C2965 C2963 1.327 . S
C2966 C2954 1.349 . S
C2966 H2960 0.950 . S
C2966 C2967 1.327 . S
C2967 H2961 0.950 . S
C2967 C2966 1.327 . S
C2967 C2971 1.429 . S
C2968 C2951 1.574 . S
C2968 H2962 0.949 . S
C2968 C2972 1.368 . S
C2969 C2950 1.429 . S
C2969 C2963 1.429 . S
C2969 C2970 1.523 . S
C2970 C2951 1.368 . S
C2970 C2964 1.368 . S
C2970 C2969 1.523 . S
C2971 C2955 1.429 . S
C2971 C2967 1.429 . S
C2971 C2972 1.523 . S
C2972 C2956 1.368 . S
C2972 C2968 1.368 . S
C2972 C2971 1.523 . S
H2973 C2948 0.950 . S
H2974 C2950 0.950 . S
H2975 C2951 0.949 . S
H2976 C2953 0.950 . S
H2977 C2955 0.950 . S
C2978 C2979 1.349 . S
C2978 C2980 1.327 . S
C2978 H3003 0.950 . S
C2979 C2978 1.349 . S
C2979 C2995 1.349 . S
C2980 C2978 1.327 . S
C2980 C2999 1.429 . S
C2980 H3004 0.950 . S
C2981 C2998 1.574 . S
C2981 C3000 1.368 . S
C2981 H3005 0.949 . S
H2982 C2986 0.949 . S
C2983 C2984 1.349 . S
C2983 C2985 1.327 . S
C2983 H3006 0.950 . S
C2984 C2983 1.349 . S
C2984 C2996 1.349 . S
C2985 C2983 1.327 . S
C2985 C3001 1.429 . S
C2985 H3007 0.950 . S
C2986 H2982 0.949 . S
C2986 C2994 1.574 . S
C2986 C3002 1.368 . S
H2987 C2995 0.950 . S
H2988 C2993 0.950 . S
H2989 C2994 0.949 . S
H2990 C2996 0.950 . S
H2991 C2997 0.950 . S
H2992 C2998 0.949 . S
C2993 H2988 0.950 . S
C2993 C2995 1.327 . S
C2993 C2999 1.429 . S
C2994 C2986 1.574 . S
C2994 H2989 0.949 . S
C2994 C3000 1.368 . S
C2995 C2979 1.349 . S
C2995 H2987 0.950 . S
C2995 C2993 1.327 . S
C2996 C2984 1.349 . S
C2996 H2990 0.950 . S
C2996 C2997 1.327 . S
C2997 H2991 0.950 . S
C2997 C2996 1.327 . S
C2997 C3001 1.429 . S
C2998 C2981 1.574 . S
C2998 H2992 0.949 . S
C2998 C3002 1.368 . S
C2999 C2980 1.429 . S
C2999 C2993 1.429 . S
C2999 C3000 1.523 . S
C3000 C2981 1.368 . S
C3000 C2994 1.368 . S
C3000 C2999 1.523 . S
C3001 C2985 1.429 . S
C3001 C2997 1.429 . S
C3001 C3002 1.523 . S
C3002 C2986 1.368 . S
C3002 C2998 1.368 . S
C3002 C3001 1.523 . S
H3003 C2978 0.950 . S
H3004 C2980 0.950 . S
H3005 C2981 0.949 . S
H3006 C2983 0.950 . S
H3007 C2985 0.950 . S
C3008 C3009 1.349 . S
C3008 C3010 1.327 . S
C3008 H3033 0.950 . S
C3009 C3008 1.349 . S
C3009 C3025 1.349 . S
C3010 C3008 1.327 . S
C3010 C3029 1.429 . S
C3010 H3034 0.950 . S
C3011 C3028 1.574 . S
C3011 C3030 1.368 . S
C3011 H3035 0.949 . S
H3012 C3016 0.949 . S
C3013 C3014 1.349 . S
C3013 C3015 1.327 . S
C3013 H3036 0.950 . S
C3014 C3013 1.349 . S
C3014 C3026 1.349 . S
C3015 C3013 1.327 . S
C3015 C3031 1.429 . S
C3015 H3037 0.950 . S
C3016 H3012 0.949 . S
C3016 C3024 1.574 . S
C3016 C3032 1.368 . S
H3017 C3025 0.950 . S
H3018 C3023 0.950 . S
H3019 C3024 0.949 . S
H3020 C3026 0.950 . S
H3021 C3027 0.950 . S
H3022 C3028 0.949 . S
C3023 H3018 0.950 . S
C3023 C3025 1.327 . S
C3023 C3029 1.429 . S
C3024 C3016 1.574 . S
C3024 H3019 0.949 . S
C3024 C3030 1.368 . S
C3025 C3009 1.349 . S
C3025 H3017 0.950 . S
C3025 C3023 1.327 . S
C3026 C3014 1.349 . S
C3026 H3020 0.950 . S
C3026 C3027 1.327 . S
C3027 H3021 0.950 . S
C3027 C3026 1.327 . S
C3027 C3031 1.429 . S
C3028 C3011 1.574 . S
C3028 H3022 0.949 . S
C3028 C3032 1.368 . S
C3029 C3010 1.429 . S
C3029 C3023 1.429 . S
C3029 C3030 1.523 . S
C3030 C3011 1.368 . S
C3030 C3024 1.368 . S
C3030 C3029 1.523 . S
C3031 C3015 1.429 . S
C3031 C3027 1.429 . S
C3031 C3032 1.523 . S
C3032 C3016 1.368 . S
C3032 C3028 1.368 . S
C3032 C3031 1.523 . S
H3033 C3008 0.950 . S
H3034 C3010 0.950 . S
H3035 C3011 0.949 . S
H3036 C3013 0.950 . S
H3037 C3015 0.950 . S
C3038 C3039 1.349 . S
C3038 C3040 1.327 . S
C3038 H3063 0.950 . S
C3039 C3038 1.349 . S
C3039 C3055 1.349 . S
C3040 C3038 1.327 . S
C3040 C3059 1.429 . S
C3040 H3064 0.950 . S
C3041 C3058 1.574 . S
C3041 C3060 1.368 . S
C3041 H3065 0.949 . S
H3042 C3046 0.949 . S
C3043 C3044 1.349 . S
C3043 C3045 1.327 . S
C3043 H3066 0.950 . S
C3044 C3043 1.349 . S
C3044 C3056 1.349 . S
C3045 C3043 1.327 . S
C3045 C3061 1.429 . S
C3045 H3067 0.950 . S
C3046 H3042 0.949 . S
C3046 C3054 1.574 . S
C3046 C3062 1.368 . S
H3047 C3055 0.950 . S
H3048 C3053 0.950 . S
H3049 C3054 0.949 . S
H3050 C3056 0.950 . S
H3051 C3057 0.950 . S
H3052 C3058 0.949 . S
C3053 H3048 0.950 . S
C3053 C3055 1.327 . S
C3053 C3059 1.429 . S
C3054 C3046 1.574 . S
C3054 H3049 0.949 . S
C3054 C3060 1.368 . S
C3055 C3039 1.349 . S
C3055 H3047 0.950 . S
C3055 C3053 1.327 . S
C3056 C3044 1.349 . S
C3056 H3050 0.950 . S
C3056 C3057 1.327 . S
C3057 H3051 0.950 . S
C3057 C3056 1.327 . S
C3057 C3061 1.429 . S
C3058 C3041 1.574 . S
C3058 H3052 0.949 . S
C3058 C3062 1.368 . S
C3059 C3040 1.429 . S
C3059 C3053 1.429 . S
C3059 C3060 1.523 . S
C3060 C3041 1.368 . S
C3060 C3054 1.368 . S
C3060 C3059 1.523 . S
C3061 C3045 1.429 . S
C3061 C3057 1.429 . S
C3061 C3062 1.523 . S
C3062 C3046 1.368 . S
C3062 C3058 1.368 . S
C3062 C3061 1.523 . S
H3063 C3038 0.950 . S
H3064 C3040 0.950 . S
H3065 C3041 0.949 . S
H3066 C3043 0.950 . S
H3067 C3045 0.950 . S
C3068 C3069 1.349 . S
C3068 C3070 1.327 . S
C3068 H3093 0.950 . S
C3069 C3068 1.349 . S
C3069 C3085 1.349 . S
C3070 C3068 1.327 . S
C3070 C3089 1.429 . S
C3070 H3094 0.950 . S
C3071 C3088 1.574 . S
C3071 C3090 1.368 . S
C3071 H3095 0.949 . S
H3072 C3076 0.949 . S
C3073 C3074 1.349 . S
C3073 C3075 1.327 . S
C3073 H3096 0.950 . S
C3074 C3073 1.349 . S
C3074 C3086 1.349 . S
C3075 C3073 1.327 . S
C3075 C3091 1.429 . S
C3075 H3097 0.950 . S
C3076 H3072 0.949 . S
C3076 C3084 1.574 . S
C3076 C3092 1.368 . S
H3077 C3085 0.950 . S
H3078 C3083 0.950 . S
H3079 C3084 0.949 . S
H3080 C3086 0.950 . S
H3081 C3087 0.950 . S
H3082 C3088 0.949 . S
C3083 H3078 0.950 . S
C3083 C3085 1.327 . S
C3083 C3089 1.429 . S
C3084 C3076 1.574 . S
C3084 H3079 0.949 . S
C3084 C3090 1.368 . S
C3085 C3069 1.349 . S
C3085 H3077 0.950 . S
C3085 C3083 1.327 . S
C3086 C3074 1.349 . S
C3086 H3080 0.950 . S
C3086 C3087 1.327 . S
C3087 H3081 0.950 . S
C3087 C3086 1.327 . S
C3087 C3091 1.429 . S
C3088 C3071 1.574 . S
C3088 H3082 0.949 . S
C3088 C3092 1.368 . S
C3089 C3070 1.429 . S
C3089 C3083 1.429 . S
C3089 C3090 1.523 . S
C3090 C3071 1.368 . S
C3090 C3084 1.368 . S
C3090 C3089 1.523 . S
C3091 C3075 1.429 . S
C3091 C3087 1.429 . S
C3091 C3092 1.523 . S
C3092 C3076 1.368 . S
C3092 C3088 1.368 . S
C3092 C3091 1.523 . S
H3093 C3068 0.950 . S
H3094 C3070 0.950 . S
H3095 C3071 0.949 . S
H3096 C3073 0.950 . S
H3097 C3075 0.950 . S
C3098 C3099 1.349 . S
C3098 C3100 1.327 . S
C3098 H3123 0.950 . S
C3099 C3098 1.349 . S
C3099 C3115 1.349 . S
C3100 C3098 1.327 . S
C3100 C3119 1.429 . S
C3100 H3124 0.950 . S
C3101 C3118 1.574 . S
C3101 C3120 1.368 . S
C3101 H3125 0.949 . S
H3102 C3106 0.949 . S
C3103 C3104 1.349 . S
C3103 C3105 1.327 . S
C3103 H3126 0.950 . S
C3104 C3103 1.349 . S
C3104 C3116 1.349 . S
C3105 C3103 1.327 . S
C3105 C3121 1.429 . S
C3105 H3127 0.950 . S
C3106 H3102 0.949 . S
C3106 C3114 1.574 . S
C3106 C3122 1.368 . S
H3107 C3115 0.950 . S
H3108 C3113 0.950 . S
H3109 C3114 0.949 . S
H3110 C3116 0.950 . S
H3111 C3117 0.950 . S
H3112 C3118 0.949 . S
C3113 H3108 0.950 . S
C3113 C3115 1.327 . S
C3113 C3119 1.429 . S
C3114 C3106 1.574 . S
C3114 H3109 0.949 . S
C3114 C3120 1.368 . S
C3115 C3099 1.349 . S
C3115 H3107 0.950 . S
C3115 C3113 1.327 . S
C3116 C3104 1.349 . S
C3116 H3110 0.950 . S
C3116 C3117 1.327 . S
C3117 H3111 0.950 . S
C3117 C3116 1.327 . S
C3117 C3121 1.429 . S
C3118 C3101 1.574 . S
C3118 H3112 0.949 . S
C3118 C3122 1.368 . S
C3119 C3100 1.429 . S
C3119 C3113 1.429 . S
C3119 C3120 1.523 . S
C3120 C3101 1.368 . S
C3120 C3114 1.368 . S
C3120 C3119 1.523 . S
C3121 C3105 1.429 . S
C3121 C3117 1.429 . S
C3121 C3122 1.523 . S
C3122 C3106 1.368 . S
C3122 C3118 1.368 . S
C3122 C3121 1.523 . S
H3123 C3098 0.950 . S
H3124 C3100 0.950 . S
H3125 C3101 0.949 . S
H3126 C3103 0.950 . S
H3127 C3105 0.950 . S
C3128 C3129 1.349 . S
C3128 C3130 1.327 . S
C3128 H3153 0.950 . S
C3129 C3128 1.349 . S
C3129 C3145 1.349 . S
C3130 C3128 1.327 . S
C3130 C3149 1.429 . S
C3130 H3154 0.950 . S
C3131 C3148 1.574 . S
C3131 C3150 1.368 . S
C3131 H3155 0.949 . S
H3132 C3136 0.949 . S
C3133 C3134 1.349 . S
C3133 C3135 1.327 . S
C3133 H3156 0.950 . S
C3134 C3133 1.349 . S
C3134 C3146 1.349 . S
C3135 C3133 1.327 . S
C3135 C3151 1.429 . S
C3135 H3157 0.950 . S
C3136 H3132 0.949 . S
C3136 C3144 1.574 . S
C3136 C3152 1.368 . S
H3137 C3145 0.950 . S
H3138 C3143 0.950 . S
H3139 C3144 0.949 . S
H3140 C3146 0.950 . S
H3141 C3147 0.950 . S
H3142 C3148 0.949 . S
C3143 H3138 0.950 . S
C3143 C3145 1.327 . S
C3143 C3149 1.429 . S
C3144 C3136 1.574 . S
C3144 H3139 0.949 . S
C3144 C3150 1.368 . S
C3145 C3129 1.349 . S
C3145 H3137 0.950 . S
C3145 C3143 1.327 . S
C3146 C3134 1.349 . S
C3146 H3140 0.950 . S
C3146 C3147 1.327 . S
C3147 H3141 0.950 . S
C3147 C3146 1.327 . S
C3147 C3151 1.429 . S
C3148 C3131 1.574 . S
C3148 H3142 0.949 . S
C3148 C3152 1.368 . S
C3149 C3130 1.429 . S
C3149 C3143 1.429 . S
C3149 C3150 1.523 . S
C3150 C3131 1.368 . S
C3150 C3144 1.368 . S
C3150 C3149 1.523 . S
C3151 C3135 1.429 . S
C3151 C3147 1.429 . S
C3151 C3152 1.523 . S
C3152 C3136 1.368 . S
C3152 C3148 1.368 . S
C3152 C3151 1.523 . S
H3153 C3128 0.950 . S
H3154 C3130 0.950 . S
H3155 C3131 0.949 . S
H3156 C3133 0.950 . S
H3157 C3135 0.950 . S
C3158 C3159 1.349 . S
C3158 C3160 1.327 . S
C3158 H3183 0.950 . S
C3159 C3158 1.349 . S
C3159 C3175 1.349 . S
C3160 C3158 1.327 . S
C3160 C3179 1.429 . S
C3160 H3184 0.950 . S
C3161 C3178 1.574 . S
C3161 C3180 1.368 . S
C3161 H3185 0.949 . S
H3162 C3166 0.949 . S
C3163 C3164 1.349 . S
C3163 C3165 1.327 . S
C3163 H3186 0.950 . S
C3164 C3163 1.349 . S
C3164 C3176 1.349 . S
C3165 C3163 1.327 . S
C3165 C3181 1.429 . S
C3165 H3187 0.950 . S
C3166 H3162 0.949 . S
C3166 C3174 1.574 . S
C3166 C3182 1.368 . S
H3167 C3175 0.950 . S
H3168 C3173 0.950 . S
H3169 C3174 0.949 . S
H3170 C3176 0.950 . S
H3171 C3177 0.950 . S
H3172 C3178 0.949 . S
C3173 H3168 0.950 . S
C3173 C3175 1.327 . S
C3173 C3179 1.429 . S
C3174 C3166 1.574 . S
C3174 H3169 0.949 . S
C3174 C3180 1.368 . S
C3175 C3159 1.349 . S
C3175 H3167 0.950 . S
C3175 C3173 1.327 . S
C3176 C3164 1.349 . S
C3176 H3170 0.950 . S
C3176 C3177 1.327 . S
C3177 H3171 0.950 . S
C3177 C3176 1.327 . S
C3177 C3181 1.429 . S
C3178 C3161 1.574 . S
C3178 H3172 0.949 . S
C3178 C3182 1.368 . S
C3179 C3160 1.429 . S
C3179 C3173 1.429 . S
C3179 C3180 1.523 . S
C3180 C3161 1.368 . S
C3180 C3174 1.368 . S
C3180 C3179 1.523 . S
C3181 C3165 1.429 . S
C3181 C3177 1.429 . S
C3181 C3182 1.523 . S
C3182 C3166 1.368 . S
C3182 C3178 1.368 . S
C3182 C3181 1.523 . S
H3183 C3158 0.950 . S
H3184 C3160 0.950 . S
H3185 C3161 0.949 . S
H3186 C3163 0.950 . S
H3187 C3165 0.950 . S
C3188 C3189 1.349 . S
C3188 C3190 1.327 . S
C3188 H3213 0.950 . S
C3189 C3188 1.349 . S
C3189 C3205 1.349 . S
C3190 C3188 1.327 . S
C3190 C3209 1.429 . S
C3190 H3214 0.950 . S
C3191 C3208 1.574 . S
C3191 C3210 1.368 . S
C3191 H3215 0.949 . S
H3192 C3196 0.949 . S
C3193 C3194 1.349 . S
C3193 C3195 1.327 . S
C3193 H3216 0.950 . S
C3194 C3193 1.349 . S
C3194 C3206 1.349 . S
C3195 C3193 1.327 . S
C3195 C3211 1.429 . S
C3195 H3217 0.950 . S
C3196 H3192 0.949 . S
C3196 C3204 1.574 . S
C3196 C3212 1.368 . S
H3197 C3205 0.950 . S
H3198 C3203 0.950 . S
H3199 C3204 0.949 . S
H3200 C3206 0.950 . S
H3201 C3207 0.950 . S
H3202 C3208 0.949 . S
C3203 H3198 0.950 . S
C3203 C3205 1.327 . S
C3203 C3209 1.429 . S
C3204 C3196 1.574 . S
C3204 H3199 0.949 . S
C3204 C3210 1.368 . S
C3205 C3189 1.349 . S
C3205 H3197 0.950 . S
C3205 C3203 1.327 . S
C3206 C3194 1.349 . S
C3206 H3200 0.950 . S
C3206 C3207 1.327 . S
C3207 H3201 0.950 . S
C3207 C3206 1.327 . S
C3207 C3211 1.429 . S
C3208 C3191 1.574 . S
C3208 H3202 0.949 . S
C3208 C3212 1.368 . S
C3209 C3190 1.429 . S
C3209 C3203 1.429 . S
C3209 C3210 1.523 . S
C3210 C3191 1.368 . S
C3210 C3204 1.368 . S
C3210 C3209 1.523 . S
C3211 C3195 1.429 . S
C3211 C3207 1.429 . S
C3211 C3212 1.523 . S
C3212 C3196 1.368 . S
C3212 C3208 1.368 . S
C3212 C3211 1.523 . S
H3213 C3188 0.950 . S
H3214 C3190 0.950 . S
H3215 C3191 0.949 . S
H3216 C3193 0.950 . S
H3217 C3195 0.950 . S
C3218 C3219 1.349 . S
C3218 C3220 1.327 . S
C3218 H3243 0.950 . S
C3219 C3218 1.349 . S
C3219 C3235 1.349 . S
C3220 C3218 1.327 . S
C3220 C3239 1.429 . S
C3220 H3244 0.950 . S
C3221 C3238 1.574 . S
C3221 C3240 1.368 . S
C3221 H3245 0.949 . S
H3222 C3226 0.949 . S
C3223 C3224 1.349 . S
C3223 C3225 1.327 . S
C3223 H3246 0.950 . S
C3224 C3223 1.349 . S
C3224 C3236 1.349 . S
C3225 C3223 1.327 . S
C3225 C3241 1.429 . S
C3225 H3247 0.950 . S
C3226 H3222 0.949 . S
C3226 C3234 1.574 . S
C3226 C3242 1.368 . S
H3227 C3235 0.950 . S
H3228 C3233 0.950 . S
H3229 C3234 0.949 . S
H3230 C3236 0.950 . S
H3231 C3237 0.950 . S
H3232 C3238 0.949 . S
C3233 H3228 0.950 . S
C3233 C3235 1.327 . S
C3233 C3239 1.429 . S
C3234 C3226 1.574 . S
C3234 H3229 0.949 . S
C3234 C3240 1.368 . S
C3235 C3219 1.349 . S
C3235 H3227 0.950 . S
C3235 C3233 1.327 . S
C3236 C3224 1.349 . S
C3236 H3230 0.950 . S
C3236 C3237 1.327 . S
C3237 H3231 0.950 . S
C3237 C3236 1.327 . S
C3237 C3241 1.429 . S
C3238 C3221 1.574 . S
C3238 H3232 0.949 . S
C3238 C3242 1.368 . S
C3239 C3220 1.429 . S
C3239 C3233 1.429 . S
C3239 C3240 1.523 . S
C3240 C3221 1.368 . S
C3240 C3234 1.368 . S
C3240 C3239 1.523 . S
C3241 C3225 1.429 . S
C3241 C3237 1.429 . S
C3241 C3242 1.523 . S
C3242 C3226 1.368 . S
C3242 C3238 1.368 . S
C3242 C3241 1.523 . S
H3243 C3218 0.950 . S
H3244 C3220 0.950 . S
H3245 C3221 0.949 . S
H3246 C3223 0.950 . S
H3247 C3225 0.950 . S
C3248 C3249 1.349 . S
C3248 C3250 1.327 . S
C3248 H3273 0.950 . S
C3249 C3248 1.349 . S
C3249 C3265 1.349 . S
C3250 C3248 1.327 . S
C3250 C3269 1.429 . S
C3250 H3274 0.950 . S
C3251 C3268 1.574 . S
C3251 C3270 1.368 . S
C3251 H3275 0.949 . S
H3252 C3256 0.949 . S
C3253 C3254 1.349 . S
C3253 C3255 1.327 . S
C3253 H3276 0.950 . S
C3254 C3253 1.349 . S
C3254 C3266 1.349 . S
C3255 C3253 1.327 . S
C3255 C3271 1.429 . S
C3255 H3277 0.950 . S
C3256 H3252 0.949 . S
C3256 C3264 1.574 . S
C3256 C3272 1.368 . S
H3257 C3265 0.950 . S
H3258 C3263 0.950 . S
H3259 C3264 0.949 . S
H3260 C3266 0.950 . S
H3261 C3267 0.950 . S
H3262 C3268 0.949 . S
C3263 H3258 0.950 . S
C3263 C3265 1.327 . S
C3263 C3269 1.429 . S
C3264 C3256 1.574 . S
C3264 H3259 0.949 . S
C3264 C3270 1.368 . S
C3265 C3249 1.349 . S
C3265 H3257 0.950 . S
C3265 C3263 1.327 . S
C3266 C3254 1.349 . S
C3266 H3260 0.950 . S
C3266 C3267 1.327 . S
C3267 H3261 0.950 . S
C3267 C3266 1.327 . S
C3267 C3271 1.429 . S
C3268 C3251 1.574 . S
C3268 H3262 0.949 . S
C3268 C3272 1.368 . S
C3269 C3250 1.429 . S
C3269 C3263 1.429 . S
C3269 C3270 1.523 . S
C3270 C3251 1.368 . S
C3270 C3264 1.368 . S
C3270 C3269 1.523 . S
C3271 C3255 1.429 . S
C3271 C3267 1.429 . S
C3271 C3272 1.523 . S
C3272 C3256 1.368 . S
C3272 C3268 1.368 . S
C3272 C3271 1.523 . S
H3273 C3248 0.950 . S
H3274 C3250 0.950 . S
H3275 C3251 0.949 . S
H3276 C3253 0.950 . S
H3277 C3255 0.950 . S
C3278 C3279 1.349 . S
C3278 C3280 1.327 . S
C3278 H3303 0.950 . S
C3279 C3278 1.349 . S
C3279 C3295 1.349 . S
C3280 C3278 1.327 . S
C3280 C3299 1.429 . S
C3280 H3304 0.950 . S
C3281 C3298 1.574 . S
C3281 C3300 1.368 . S
C3281 H3305 0.949 . S
H3282 C3286 0.949 . S
C3283 C3284 1.349 . S
C3283 C3285 1.327 . S
C3283 H3306 0.950 . S
C3284 C3283 1.349 . S
C3284 C3296 1.349 . S
C3285 C3283 1.327 . S
C3285 C3301 1.429 . S
C3285 H3307 0.950 . S
C3286 H3282 0.949 . S
C3286 C3294 1.574 . S
C3286 C3302 1.368 . S
H3287 C3295 0.950 . S
H3288 C3293 0.950 . S
H3289 C3294 0.949 . S
H3290 C3296 0.950 . S
H3291 C3297 0.950 . S
H3292 C3298 0.949 . S
C3293 H3288 0.950 . S
C3293 C3295 1.327 . S
C3293 C3299 1.429 . S
C3294 C3286 1.574 . S
C3294 H3289 0.949 . S
C3294 C3300 1.368 . S
C3295 C3279 1.349 . S
C3295 H3287 0.950 . S
C3295 C3293 1.327 . S
C3296 C3284 1.349 . S
C3296 H3290 0.950 . S
C3296 C3297 1.327 . S
C3297 H3291 0.950 . S
C3297 C3296 1.327 . S
C3297 C3301 1.429 . S
C3298 C3281 1.574 . S
C3298 H3292 0.949 . S
C3298 C3302 1.368 . S
C3299 C3280 1.429 . S
C3299 C3293 1.429 . S
C3299 C3300 1.523 . S
C3300 C3281 1.368 . S
C3300 C3294 1.368 . S
C3300 C3299 1.523 . S
C3301 C3285 1.429 . S
C3301 C3297 1.429 . S
C3301 C3302 1.523 . S
C3302 C3286 1.368 . S
C3302 C3298 1.368 . S
C3302 C3301 1.523 . S
H3303 C3278 0.950 . S
H3304 C3280 0.950 . S
H3305 C3281 0.949 . S
H3306 C3283 0.950 . S
H3307 C3285 0.950 . S
C3308 C3309 1.349 . S
C3308 C3310 1.327 . S
C3308 H3333 0.950 . S
C3309 C3308 1.349 . S
C3309 C3325 1.349 . S
C3310 C3308 1.327 . S
C3310 C3329 1.429 . S
C3310 H3334 0.950 . S
C3311 C3328 1.574 . S
C3311 C3330 1.368 . S
C3311 H3335 0.949 . S
H3312 C3316 0.949 . S
C3313 C3314 1.349 . S
C3313 C3315 1.327 . S
C3313 H3336 0.950 . S
C3314 C3313 1.349 . S
C3314 C3326 1.349 . S
C3315 C3313 1.327 . S
C3315 C3331 1.429 . S
C3315 H3337 0.950 . S
C3316 H3312 0.949 . S
C3316 C3324 1.574 . S
C3316 C3332 1.368 . S
H3317 C3325 0.950 . S
H3318 C3323 0.950 . S
H3319 C3324 0.949 . S
H3320 C3326 0.950 . S
H3321 C3327 0.950 . S
H3322 C3328 0.949 . S
C3323 H3318 0.950 . S
C3323 C3325 1.327 . S
C3323 C3329 1.429 . S
C3324 C3316 1.574 . S
C3324 H3319 0.949 . S
C3324 C3330 1.368 . S
C3325 C3309 1.349 . S
C3325 H3317 0.950 . S
C3325 C3323 1.327 . S
C3326 C3314 1.349 . S
C3326 H3320 0.950 . S
C3326 C3327 1.327 . S
C3327 H3321 0.950 . S
C3327 C3326 1.327 . S
C3327 C3331 1.429 . S
C3328 C3311 1.574 . S
C3328 H3322 0.949 . S
C3328 C3332 1.368 . S
C3329 C3310 1.429 . S
C3329 C3323 1.429 . S
C3329 C3330 1.523 . S
C3330 C3311 1.368 . S
C3330 C3324 1.368 . S
C3330 C3329 1.523 . S
C3331 C3315 1.429 . S
C3331 C3327 1.429 . S
C3331 C3332 1.523 . S
C3332 C3316 1.368 . S
C3332 C3328 1.368 . S
C3332 C3331 1.523 . S
H3333 C3308 0.950 . S
H3334 C3310 0.950 . S
H3335 C3311 0.949 . S
H3336 C3313 0.950 . S
H3337 C3315 0.950 . S
C3338 C3339 1.349 . S
C3338 C3340 1.327 . S
C3338 H3363 0.950 . S
C3339 C3338 1.349 . S
C3339 C3355 1.349 . S
C3340 C3338 1.327 . S
C3340 C3359 1.429 . S
C3340 H3364 0.950 . S
C3341 C3358 1.574 . S
C3341 C3360 1.368 . S
C3341 H3365 0.949 . S
H3342 C3346 0.949 . S
C3343 C3344 1.349 . S
C3343 C3345 1.327 . S
C3343 H3366 0.950 . S
C3344 C3343 1.349 . S
C3344 C3356 1.349 . S
C3345 C3343 1.327 . S
C3345 C3361 1.429 . S
C3345 H3367 0.950 . S
C3346 H3342 0.949 . S
C3346 C3354 1.574 . S
C3346 C3362 1.368 . S
H3347 C3355 0.950 . S
H3348 C3353 0.950 . S
H3349 C3354 0.949 . S
H3350 C3356 0.950 . S
H3351 C3357 0.950 . S
H3352 C3358 0.949 . S
C3353 H3348 0.950 . S
C3353 C3355 1.327 . S
C3353 C3359 1.429 . S
C3354 C3346 1.574 . S
C3354 H3349 0.949 . S
C3354 C3360 1.368 . S
C3355 C3339 1.349 . S
C3355 H3347 0.950 . S
C3355 C3353 1.327 . S
C3356 C3344 1.349 . S
C3356 H3350 0.950 . S
C3356 C3357 1.327 . S
C3357 H3351 0.950 . S
C3357 C3356 1.327 . S
C3357 C3361 1.429 . S
C3358 C3341 1.574 . S
C3358 H3352 0.949 . S
C3358 C3362 1.368 . S
C3359 C3340 1.429 . S
C3359 C3353 1.429 . S
C3359 C3360 1.523 . S
C3360 C3341 1.368 . S
C3360 C3354 1.368 . S
C3360 C3359 1.523 . S
C3361 C3345 1.429 . S
C3361 C3357 1.429 . S
C3361 C3362 1.523 . S
C3362 C3346 1.368 . S
C3362 C3358 1.368 . S
C3362 C3361 1.523 . S
H3363 C3338 0.950 . S
H3364 C3340 0.950 . S
H3365 C3341 0.949 . S
H3366 C3343 0.950 . S
H3367 C3345 0.950 . S
C3368 C3369 1.349 . S
C3368 C3370 1.327 . S
C3368 H3393 0.950 . S
C3369 C3368 1.349 . S
C3369 C3385 1.349 . S
C3370 C3368 1.327 . S
C3370 C3389 1.429 . S
C3370 H3394 0.950 . S
C3371 C3388 1.574 . S
C3371 C3390 1.368 . S
C3371 H3395 0.949 . S
H3372 C3376 0.949 . S
C3373 C3374 1.349 . S
C3373 C3375 1.327 . S
C3373 H3396 0.950 . S
C3374 C3373 1.349 . S
C3374 C3386 1.349 . S
C3375 C3373 1.327 . S
C3375 C3391 1.429 . S
C3375 H3397 0.950 . S
C3376 H3372 0.949 . S
C3376 C3384 1.574 . S
C3376 C3392 1.368 . S
H3377 C3385 0.950 . S
H3378 C3383 0.950 . S
H3379 C3384 0.949 . S
H3380 C3386 0.950 . S
H3381 C3387 0.950 . S
H3382 C3388 0.949 . S
C3383 H3378 0.950 . S
C3383 C3385 1.327 . S
C3383 C3389 1.429 . S
C3384 C3376 1.574 . S
C3384 H3379 0.949 . S
C3384 C3390 1.368 . S
C3385 C3369 1.349 . S
C3385 H3377 0.950 . S
C3385 C3383 1.327 . S
C3386 C3374 1.349 . S
C3386 H3380 0.950 . S
C3386 C3387 1.327 . S
C3387 H3381 0.950 . S
C3387 C3386 1.327 . S
C3387 C3391 1.429 . S
C3388 C3371 1.574 . S
C3388 H3382 0.949 . S
C3388 C3392 1.368 . S
C3389 C3370 1.429 . S
C3389 C3383 1.429 . S
C3389 C3390 1.523 . S
C3390 C3371 1.368 . S
C3390 C3384 1.368 . S
C3390 C3389 1.523 . S
C3391 C3375 1.429 . S
C3391 C3387 1.429 . S
C3391 C3392 1.523 . S
C3392 C3376 1.368 . S
C3392 C3388 1.368 . S
C3392 C3391 1.523 . S
H3393 C3368 0.950 . S
H3394 C3370 0.950 . S
H3395 C3371 0.949 . S
H3396 C3373 0.950 . S
H3397 C3375 0.950 . S
C3398 C3399 1.349 . S
C3398 C3400 1.327 . S
C3398 H3423 0.950 . S
C3399 C3398 1.349 . S
C3399 C3415 1.349 . S
C3400 C3398 1.327 . S
C3400 C3419 1.429 . S
C3400 H3424 0.950 . S
C3401 C3418 1.574 . S
C3401 C3420 1.368 . S
C3401 H3425 0.949 . S
H3402 C3406 0.949 . S
C3403 C3404 1.349 . S
C3403 C3405 1.327 . S
C3403 H3426 0.950 . S
C3404 C3403 1.349 . S
C3404 C3416 1.349 . S
C3405 C3403 1.327 . S
C3405 C3421 1.429 . S
C3405 H3427 0.950 . S
C3406 H3402 0.949 . S
C3406 C3414 1.574 . S
C3406 C3422 1.368 . S
H3407 C3415 0.950 . S
H3408 C3413 0.950 . S
H3409 C3414 0.949 . S
H3410 C3416 0.950 . S
H3411 C3417 0.950 . S
H3412 C3418 0.949 . S
C3413 H3408 0.950 . S
C3413 C3415 1.327 . S
C3413 C3419 1.429 . S
C3414 C3406 1.574 . S
C3414 H3409 0.949 . S
C3414 C3420 1.368 . S
C3415 C3399 1.349 . S
C3415 H3407 0.950 . S
C3415 C3413 1.327 . S
C3416 C3404 1.349 . S
C3416 H3410 0.950 . S
C3416 C3417 1.327 . S
C3417 H3411 0.950 . S
C3417 C3416 1.327 . S
C3417 C3421 1.429 . S
C3418 C3401 1.574 . S
C3418 H3412 0.949 . S
C3418 C3422 1.368 . S
C3419 C3400 1.429 . S
C3419 C3413 1.429 . S
C3419 C3420 1.523 . S
C3420 C3401 1.368 . S
C3420 C3414 1.368 . S
C3420 C3419 1.523 . S
C3421 C3405 1.429 . S
C3421 C3417 1.429 . S
C3421 C3422 1.523 . S
C3422 C3406 1.368 . S
C3422 C3418 1.368 . S
C3422 C3421 1.523 . S
H3423 C3398 0.950 . S
H3424 C3400 0.950 . S
H3425 C3401 0.949 . S
H3426 C3403 0.950 . S
H3427 C3405 0.950 . S
C3428 C3429 1.349 . S
C3428 C3430 1.327 . S
C3428 H3453 0.950 . S
C3429 C3428 1.349 . S
C3429 C3445 1.349 . S
C3430 C3428 1.327 . S
C3430 C3449 1.429 . S
C3430 H3454 0.950 . S
C3431 C3448 1.574 . S
C3431 C3450 1.368 . S
C3431 H3455 0.949 . S
H3432 C3436 0.949 . S
C3433 C3434 1.349 . S
C3433 C3435 1.327 . S
C3433 H3456 0.950 . S
C3434 C3433 1.349 . S
C3434 C3446 1.349 . S
C3435 C3433 1.327 . S
C3435 C3451 1.429 . S
C3435 H3457 0.950 . S
C3436 H3432 0.949 . S
C3436 C3444 1.574 . S
C3436 C3452 1.368 . S
H3437 C3445 0.950 . S
H3438 C3443 0.950 . S
H3439 C3444 0.949 . S
H3440 C3446 0.950 . S
H3441 C3447 0.950 . S
H3442 C3448 0.949 . S
C3443 H3438 0.950 . S
C3443 C3445 1.327 . S
C3443 C3449 1.429 . S
C3444 C3436 1.574 . S
C3444 H3439 0.949 . S
C3444 C3450 1.368 . S
C3445 C3429 1.349 . S
C3445 H3437 0.950 . S
C3445 C3443 1.327 . S
C3446 C3434 1.349 . S
C3446 H3440 0.950 . S
C3446 C3447 1.327 . S
C3447 H3441 0.950 . S
C3447 C3446 1.327 . S
C3447 C3451 1.429 . S
C3448 C3431 1.574 . S
C3448 H3442 0.949 . S
C3448 C3452 1.368 . S
C3449 C3430 1.429 . S
C3449 C3443 1.429 . S
C3449 C3450 1.523 . S
C3450 C3431 1.368 . S
C3450 C3444 1.368 . S
C3450 C3449 1.523 . S
C3451 C3435 1.429 . S
C3451 C3447 1.429 . S
C3451 C3452 1.523 . S
C3452 C3436 1.368 . S
C3452 C3448 1.368 . S
C3452 C3451 1.523 . S
H3453 C3428 0.950 . S
H3454 C3430 0.950 . S
H3455 C3431 0.949 . S
H3456 C3433 0.950 . S
H3457 C3435 0.950 . S
C3458 C3459 1.349 . S
C3458 C3460 1.327 . S
C3458 H3483 0.950 . S
C3459 C3458 1.349 . S
C3459 C3475 1.349 . S
C3460 C3458 1.327 . S
C3460 C3479 1.429 . S
C3460 H3484 0.950 . S
C3461 C3478 1.574 . S
C3461 C3480 1.368 . S
C3461 H3485 0.949 . S
H3462 C3466 0.949 . S
C3463 C3464 1.349 . S
C3463 C3465 1.327 . S
C3463 H3486 0.950 . S
C3464 C3463 1.349 . S
C3464 C3476 1.349 . S
C3465 C3463 1.327 . S
C3465 C3481 1.429 . S
C3465 H3487 0.950 . S
C3466 H3462 0.949 . S
C3466 C3474 1.574 . S
C3466 C3482 1.368 . S
H3467 C3475 0.950 . S
H3468 C3473 0.950 . S
H3469 C3474 0.949 . S
H3470 C3476 0.950 . S
H3471 C3477 0.950 . S
H3472 C3478 0.949 . S
C3473 H3468 0.950 . S
C3473 C3475 1.327 . S
C3473 C3479 1.429 . S
C3474 C3466 1.574 . S
C3474 H3469 0.949 . S
C3474 C3480 1.368 . S
C3475 C3459 1.349 . S
C3475 H3467 0.950 . S
C3475 C3473 1.327 . S
C3476 C3464 1.349 . S
C3476 H3470 0.950 . S
C3476 C3477 1.327 . S
C3477 H3471 0.950 . S
C3477 C3476 1.327 . S
C3477 C3481 1.429 . S
C3478 C3461 1.574 . S
C3478 H3472 0.949 . S
C3478 C3482 1.368 . S
C3479 C3460 1.429 . S
C3479 C3473 1.429 . S
C3479 C3480 1.523 . S
C3480 C3461 1.368 . S
C3480 C3474 1.368 . S
C3480 C3479 1.523 . S
C3481 C3465 1.429 . S
C3481 C3477 1.429 . S
C3481 C3482 1.523 . S
C3482 C3466 1.368 . S
C3482 C3478 1.368 . S
C3482 C3481 1.523 . S
H3483 C3458 0.950 . S
H3484 C3460 0.950 . S
H3485 C3461 0.949 . S
H3486 C3463 0.950 . S
H3487 C3465 0.950 . S
C1089 C145 1.405 . S
C1094 C9 1.405 . S
C1119 C43 1.405 . S
C1124 C179 1.405 . S
C1149 C77 1.406 . S
C1154 C213 1.406 . S
C1179 C111 1.405 . S
C1184 C247 1.405 . S
C1209 C281 1.405 . S
C1214 C417 1.405 . S
C1239 C451 1.405 . S
C1244 C315 1.405 . S
C1269 C349 1.406 . S
C1274 C485 1.406 . S
C1299 C519 1.405 . S
C1304 C383 1.405 . S
C1329 C553 1.405 . S
C1334 C689 1.405 . S
C1359 C587 1.406 . S
C1364 C723 1.406 . S
C1389 C757 1.406 . S
C1394 C621 1.406 . S
C1419 C791 1.406 . S
C1424 C655 1.406 . S
C1449 C825 1.405 . S
C1454 C961 1.405 . S
C1479 C859 1.406 . S
C1484 C995 1.406 . S
C1509 C1029 1.406 . S
C1514 C893 1.406 . S
C1539 C927 1.406 . S
C1544 C1063 1.406 . S
C1569 C33 0.428 . S
C1574 C645 0.428 . S
C1599 C67 0.428 . S
C1604 C679 0.428 . S
C1629 C101 0.428 . S
C1634 C577 0.428 . S
C1659 C135 0.428 . S
C1664 C611 0.428 . S
C1689 C169 0.428 . S
C1694 C781 0.428 . S
C1719 C815 0.428 . S
C1724 C203 0.428 . S
C1749 C237 0.428 . S
C1754 C713 0.428 . S
C1779 C271 0.428 . S
C1784 C747 0.428 . S
C1809 C917 0.428 . S
C1814 C305 0.428 . S
C1839 C339 0.428 . S
C1844 C951 0.428 . S
C1869 C849 0.428 . S
C1874 C373 0.428 . S
C1899 C407 0.428 . S
C1904 C883 0.428 . S
C1929 C441 0.428 . S
C1934 C1053 0.428 . S
C1959 C1087 0.428 . S
C1964 C475 0.428 . S
C1989 C509 0.428 . S
C1994 C985 0.428 . S
C2019 C543 0.428 . S
C2024 C1019 0.428 . S
C2049 C20 1.423 . S
C2054 C478 1.415 . S
C2079 C1056 1.415 . S
C2084 C54 1.423 . S
C2109 C410 1.415 . S
C2114 C88 1.423 . S
C2139 C988 1.414 . S
C2144 C122 1.422 . S
C2169 C156 1.423 . S
C2174 C342 1.415 . S
C2199 C190 1.422 . S
C2204 C920 1.414 . S
C2229 C224 1.423 . S
C2234 C274 1.415 . S
C2259 C852 1.415 . S
C2264 C258 1.423 . S
C2289 C206 1.415 . S
C2294 C292 1.423 . S
C2319 C784 1.415 . S
C2324 C326 1.423 . S
C2349 C360 1.423 . S
C2354 C138 1.415 . S
C2379 C394 1.422 . S
C2384 C716 1.414 . S
C2409 C428 1.423 . S
C2414 C70 1.415 . S
C2439 C648 1.414 . S
C2444 C462 1.422 . S
C2469 C496 1.423 . S
C2474 C2 1.415 . S
C2499 C580 1.415 . S
C2504 C530 1.423 . S
C2529 C1022 1.415 . S
C2534 C564 1.423 . S
C2559 C598 1.422 . S
C2564 C512 1.414 . S
C2589 C954 1.415 . S
C2594 C632 1.423 . S
C2619 C444 1.415 . S
C2624 C666 1.423 . S
C2649 C700 1.423 . S
C2654 C886 1.415 . S
C2679 C376 1.415 . S
C2684 C734 1.423 . S
C2709 C818 1.415 . S
C2714 C768 1.423 . S
C2739 C802 1.422 . S
C2744 C308 1.414 . S
C2769 C836 1.423 . S
C2774 C750 1.415 . S
C2799 C240 1.414 . S
C2804 C870 1.422 . S
C2829 C904 1.423 . S
C2834 C682 1.415 . S
C2859 C172 1.415 . S
C2864 C938 1.423 . S
C2889 C972 1.423 . S
C2894 C614 1.415 . S
C2919 C1006 1.423 . S
C2924 C104 1.415 . S
C2949 C546 1.415 . S
C2954 C1040 1.423 . S
C2979 C36 1.414 . S
C2984 C1074 1.422 . S
C3009 C243 1.564 . S
C3014 C5 1.564 . S
C3039 C141 1.564 . S
C3044 C39 1.564 . S
C3069 C175 1.564 . S
C3074 C73 1.564 . S
C3099 C107 1.564 . S
C3104 C209 1.564 . S
C3129 C515 1.564 . S
C3134 C277 1.564 . S
C3159 C311 1.564 . S
C3164 C413 1.564 . S
C3189 C447 1.564 . S
C3194 C345 1.564 . S
C3219 C481 1.564 . S
C3224 C379 1.564 . S
C3249 C787 1.565 . S
C3254 C549 1.565 . S
C3279 C583 1.565 . S
C3284 C685 1.565 . S
C3309 C719 1.565 . S
C3314 C617 1.565 . S
C3339 C753 1.565 . S
C3344 C651 1.565 . S
C3369 C821 1.565 . S
C3374 C1059 1.565 . S
C3399 C957 1.565 . S
C3404 C855 1.565 . S
C3429 C889 1.565 . S
C3434 C991 1.565 . S
C3459 C1025 1.565 . S
C3464 C923 1.565 . S
