# Generated by pormake.
# Topology uoi, (4)-cn, num edge types: 1
# Building blocks:
#     Node 0, Type 0, BuildingBlock: QUQFOY_clean_sbu_1, # of connection points: 4
#     Node 1, Type 0, BuildingBlock: QUQFOY_clean_sbu_1, # of connection points: 4
#     Node 2, Type 0, BuildingBlock: QUQFOY_clean_sbu_1, # of connection points: 4
#     Node 3, Type 0, BuildingBlock: QUQFOY_clean_sbu_1, # of connection points: 4
#     Node 4, Type 0, BuildingBlock: QUQFOY_clean_sbu_1, # of connection points: 4
#     Node 5, Type 0, BuildingBlock: QUQFOY_clean_sbu_1, # of connection points: 4
#     Node 6, Type 0, BuildingBlock: QUQFOY_clean_sbu_1, # of connection points: 4
#     Node 7, Type 0, BuildingBlock: QUQFOY_clean_sbu_1, # of connection points: 4
#     Node 8, Type 0, BuildingBlock: QUQFOY_clean_sbu_1, # of connection points: 4
#     Node 9, Type 0, BuildingBlock: QUQFOY_clean_sbu_1, # of connection points: 4
#     Node 10, Type 0, BuildingBlock: QUQFOY_clean_sbu_1, # of connection points: 4
#     Node 11, Type 0, BuildingBlock: QUQFOY_clean_sbu_1, # of connection points: 4
#     Node 12, Type 0, BuildingBlock: QUQFOY_clean_sbu_1, # of connection points: 4
#     Node 13, Type 0, BuildingBlock: QUQFOY_clean_sbu_1, # of connection points: 4
#     Node 14, Type 0, BuildingBlock: QUQFOY_clean_sbu_1, # of connection points: 4
#     Node 15, Type 0, BuildingBlock: QUQFOY_clean_sbu_1, # of connection points: 4
#     Node 16, Type 0, BuildingBlock: QUQFOY_clean_sbu_1, # of connection points: 4
#     Node 17, Type 0, BuildingBlock: QUQFOY_clean_sbu_1, # of connection points: 4
#     Node 18, Type 0, BuildingBlock: QUQFOY_clean_sbu_1, # of connection points: 4
#     Node 19, Type 0, BuildingBlock: QUQFOY_clean_sbu_1, # of connection points: 4
#     Node 20, Type 0, BuildingBlock: QUQFOY_clean_sbu_1, # of connection points: 4
#     Node 21, Type 0, BuildingBlock: QUQFOY_clean_sbu_1, # of connection points: 4
#     Node 22, Type 0, BuildingBlock: QUQFOY_clean_sbu_1, # of connection points: 4
#     Node 23, Type 0, BuildingBlock: QUQFOY_clean_sbu_1, # of connection points: 4
#     Node 24, Type 0, BuildingBlock: QUQFOY_clean_sbu_1, # of connection points: 4
#     Node 25, Type 0, BuildingBlock: QUQFOY_clean_sbu_1, # of connection points: 4
#     Node 26, Type 0, BuildingBlock: QUQFOY_clean_sbu_1, # of connection points: 4
#     Node 27, Type 0, BuildingBlock: QUQFOY_clean_sbu_1, # of connection points: 4
#     Node 28, Type 0, BuildingBlock: QUQFOY_clean_sbu_1, # of connection points: 4
#     Node 29, Type 0, BuildingBlock: QUQFOY_clean_sbu_1, # of connection points: 4
#     Node 30, Type 0, BuildingBlock: QUQFOY_clean_sbu_1, # of connection points: 4
#     Node 31, Type 0, BuildingBlock: QUQFOY_clean_sbu_1, # of connection points: 4
#     Edge 32, Type (0, 0), BuildingBlock: OJICUG_clean_linker_0, # of connection points: 2
#     Edge 33, Type (0, 0), BuildingBlock: OJICUG_clean_linker_0, # of connection points: 2
#     Edge 34, Type (0, 0), BuildingBlock: OJICUG_clean_linker_0, # of connection points: 2
#     Edge 35, Type (0, 0), BuildingBlock: OJICUG_clean_linker_0, # of connection points: 2
#     Edge 36, Type (0, 0), BuildingBlock: OJICUG_clean_linker_0, # of connection points: 2
#     Edge 37, Type (0, 0), BuildingBlock: OJICUG_clean_linker_0, # of connection points: 2
#     Edge 38, Type (0, 0), BuildingBlock: OJICUG_clean_linker_0, # of connection points: 2
#     Edge 39, Type (0, 0), BuildingBlock: OJICUG_clean_linker_0, # of connection points: 2
#     Edge 40, Type (0, 0), BuildingBlock: OJICUG_clean_linker_0, # of connection points: 2
#     Edge 41, Type (0, 0), BuildingBlock: OJICUG_clean_linker_0, # of connection points: 2
#     Edge 42, Type (0, 0), BuildingBlock: OJICUG_clean_linker_0, # of connection points: 2
#     Edge 43, Type (0, 0), BuildingBlock: OJICUG_clean_linker_0, # of connection points: 2
#     Edge 44, Type (0, 0), BuildingBlock: OJICUG_clean_linker_0, # of connection points: 2
#     Edge 45, Type (0, 0), BuildingBlock: OJICUG_clean_linker_0, # of connection points: 2
#     Edge 46, Type (0, 0), BuildingBlock: OJICUG_clean_linker_0, # of connection points: 2
#     Edge 47, Type (0, 0), BuildingBlock: OJICUG_clean_linker_0, # of connection points: 2
#     Edge 48, Type (0, 0), BuildingBlock: OJICUG_clean_linker_0, # of connection points: 2
#     Edge 49, Type (0, 0), BuildingBlock: OJICUG_clean_linker_0, # of connection points: 2
#     Edge 50, Type (0, 0), BuildingBlock: OJICUG_clean_linker_0, # of connection points: 2
#     Edge 51, Type (0, 0), BuildingBlock: OJICUG_clean_linker_0, # of connection points: 2
#     Edge 52, Type (0, 0), BuildingBlock: OJICUG_clean_linker_0, # of connection points: 2
#     Edge 53, Type (0, 0), BuildingBlock: OJICUG_clean_linker_0, # of connection points: 2
#     Edge 54, Type (0, 0), BuildingBlock: OJICUG_clean_linker_0, # of connection points: 2
#     Edge 55, Type (0, 0), BuildingBlock: OJICUG_clean_linker_0, # of connection points: 2
#     Edge 56, Type (0, 0), BuildingBlock: OJICUG_clean_linker_0, # of connection points: 2
#     Edge 57, Type (0, 0), BuildingBlock: OJICUG_clean_linker_0, # of connection points: 2
#     Edge 58, Type (0, 0), BuildingBlock: OJICUG_clean_linker_0, # of connection points: 2
#     Edge 59, Type (0, 0), BuildingBlock: OJICUG_clean_linker_0, # of connection points: 2
#     Edge 60, Type (0, 0), BuildingBlock: OJICUG_clean_linker_0, # of connection points: 2
#     Edge 61, Type (0, 0), BuildingBlock: OJICUG_clean_linker_0, # of connection points: 2
#     Edge 62, Type (0, 0), BuildingBlock: OJICUG_clean_linker_0, # of connection points: 2
#     Edge 63, Type (0, 0), BuildingBlock: OJICUG_clean_linker_0, # of connection points: 2
#     Edge 64, Type (0, 0), BuildingBlock: OJICUG_clean_linker_0, # of connection points: 2
#     Edge 65, Type (0, 0), BuildingBlock: OJICUG_clean_linker_0, # of connection points: 2
#     Edge 66, Type (0, 0), BuildingBlock: OJICUG_clean_linker_0, # of connection points: 2
#     Edge 67, Type (0, 0), BuildingBlock: OJICUG_clean_linker_0, # of connection points: 2
#     Edge 68, Type (0, 0), BuildingBlock: OJICUG_clean_linker_0, # of connection points: 2
#     Edge 69, Type (0, 0), BuildingBlock: OJICUG_clean_linker_0, # of connection points: 2
#     Edge 70, Type (0, 0), BuildingBlock: OJICUG_clean_linker_0, # of connection points: 2
#     Edge 71, Type (0, 0), BuildingBlock: OJICUG_clean_linker_0, # of connection points: 2
#     Edge 72, Type (0, 0), BuildingBlock: OJICUG_clean_linker_0, # of connection points: 2
#     Edge 73, Type (0, 0), BuildingBlock: OJICUG_clean_linker_0, # of connection points: 2
#     Edge 74, Type (0, 0), BuildingBlock: OJICUG_clean_linker_0, # of connection points: 2
#     Edge 75, Type (0, 0), BuildingBlock: OJICUG_clean_linker_0, # of connection points: 2
#     Edge 76, Type (0, 0), BuildingBlock: OJICUG_clean_linker_0, # of connection points: 2
#     Edge 77, Type (0, 0), BuildingBlock: OJICUG_clean_linker_0, # of connection points: 2
#     Edge 78, Type (0, 0), BuildingBlock: OJICUG_clean_linker_0, # of connection points: 2
#     Edge 79, Type (0, 0), BuildingBlock: OJICUG_clean_linker_0, # of connection points: 2
#     Edge 80, Type (0, 0), BuildingBlock: OJICUG_clean_linker_0, # of connection points: 2
#     Edge 81, Type (0, 0), BuildingBlock: OJICUG_clean_linker_0, # of connection points: 2
#     Edge 82, Type (0, 0), BuildingBlock: OJICUG_clean_linker_0, # of connection points: 2
#     Edge 83, Type (0, 0), BuildingBlock: OJICUG_clean_linker_0, # of connection points: 2
#     Edge 84, Type (0, 0), BuildingBlock: OJICUG_clean_linker_0, # of connection points: 2
#     Edge 85, Type (0, 0), BuildingBlock: OJICUG_clean_linker_0, # of connection points: 2
#     Edge 86, Type (0, 0), BuildingBlock: OJICUG_clean_linker_0, # of connection points: 2
#     Edge 87, Type (0, 0), BuildingBlock: OJICUG_clean_linker_0, # of connection points: 2
#     Edge 88, Type (0, 0), BuildingBlock: OJICUG_clean_linker_0, # of connection points: 2
#     Edge 89, Type (0, 0), BuildingBlock: OJICUG_clean_linker_0, # of connection points: 2
#     Edge 90, Type (0, 0), BuildingBlock: OJICUG_clean_linker_0, # of connection points: 2
#     Edge 91, Type (0, 0), BuildingBlock: OJICUG_clean_linker_0, # of connection points: 2
#     Edge 92, Type (0, 0), BuildingBlock: OJICUG_clean_linker_0, # of connection points: 2
#     Edge 93, Type (0, 0), BuildingBlock: OJICUG_clean_linker_0, # of connection points: 2
#     Edge 94, Type (0, 0), BuildingBlock: OJICUG_clean_linker_0, # of connection points: 2
#     Edge 95, Type (0, 0), BuildingBlock: OJICUG_clean_linker_0, # of connection points: 2
# Relax obj value: 0.229
# Max RMSD: 0.156
# Mean RMSD: 0.156
data_MOF--net-uoi--node1-QUQFOY_clean_sbu_1--edge1-OJICUG_clean_linker_0
_symmetry_space_group_name_H-M    P1
_symmetry_Int_Tables_number       1
_symmetry_cell_setting            triclinic
loop_
_symmetry_equiv_pos_as_xyz
'x, y, z'
_cell_length_a     65.117838
_cell_length_b     65.200371
_cell_length_c     15.177056
_cell_angle_alpha  89.751341
_cell_angle_beta   89.599503
_cell_angle_gamma 89.98619
loop_
_atom_site_label
_atom_site_type_symbol
_atom_site_fract_x
_atom_site_fract_y
_atom_site_fract_z
_atom_type_partial_charge
O0 O 0.13819 0.23639 0.28305 0.0
Cd1 Cd 0.14232 0.20759 0.33484 0.0
Cd2 Cd 0.18439 0.22193 0.35001 0.0
O3 O 0.17117 0.24462 0.27265 0.0
O4 O 0.11953 0.19006 0.29037 0.0
O5 O 0.15201 0.1863 0.24833 0.0
C6 C 0.13293 0.18116 0.24048 0.0
C7 C 0.22055 0.22055 0.36277 0.0
C8 C 0.15227 0.24885 0.2603 0.0
C9 C 0.1571 0.21503 0.5139 0.0
O10 O 0.17317 0.22116 0.47456 0.0
O11 O 0.14237 0.20716 0.47114 0.0
O12 O 0.21028 0.23689 0.379 0.0
O13 O 0.21062 0.20508 0.33208 0.0
O14 O 0.04542 0.89469 0.53406 0.0
Cd15 Cd 0.07362 0.8922 0.59209 0.0
Cd16 Cd 0.06113 0.93753 0.63059 0.0
O17 O 0.03844 0.92791 0.54513 0.0
O18 O 0.08377 0.8656 0.5434 0.0
O19 O 0.09974 0.89492 0.51872 0.0
C20 C 0.09838 0.87546 0.50429 0.0
C21 C 0.06032 0.97261 0.67249 0.0
C22 C 0.03366 0.90988 0.52024 0.0
C23 C 0.06575 0.90371 0.77645 0.0
O24 O 0.06213 0.92129 0.74439 0.0
O25 O 0.07157 0.88899 0.72751 0.0
O26 O 0.04494 0.96061 0.68313 0.0
O27 O 0.07617 0.96525 0.63233 0.0
O28 O 0.32679 0.79876 0.63247 0.0
Cd29 Cd 0.33551 0.81219 0.74604 0.0
Cd30 Cd 0.29424 0.81263 0.75043 0.0
O31 O 0.29469 0.80848 0.61537 0.0
O32 O 0.36576 0.8129 0.72191 0.0
O33 O 0.34714 0.841 0.73129 0.0
C34 C 0.36444 0.83245 0.71133 0.0
C35 C 0.2762 0.83351 0.84743 0.0
C36 C 0.31069 0.79944 0.58627 0.0
C37 C 0.31545 0.7806 0.85481 0.0
O38 O 0.29957 0.78542 0.81164 0.0
O39 O 0.33155 0.7918 0.85074 0.0
O40 O 0.26672 0.82086 0.79651 0.0
O41 O 0.29564 0.8364 0.83391 0.0
O42 O 0.49255 0.12397 0.01583 0.0
Cd43 Cd 0.46376 0.12633 0.07007 0.0
Cd44 Cd 0.47467 0.08099 0.10248 0.0
O45 O 0.49836 0.09045 0.01956 0.0
O46 O 0.45482 0.15349 0.02257 0.0
O47 O 0.43895 0.12463 -0.01014 0.0
C48 C 0.44102 0.14414 0.97746 0.0
C49 C 0.47175 0.04555 0.13687 0.0
C50 C 0.5039 0.10863 -0.00086 0.0
C51 C 0.46999 0.11321 0.2532 0.0
O52 O 0.47397 0.09597 0.219 0.0
O53 O 0.46423 0.1283 0.20603 0.0
O54 O 0.48834 0.05567 0.14927 0.0
O55 O 0.45689 0.05503 0.09858 0.0
O56 O 0.18634 0.78943 0.37387 0.0
Cd57 Cd 0.18119 0.80501 0.26071 0.0
Cd58 Cd 0.22077 0.80506 0.26835 0.0
O59 O 0.21776 0.79961 0.40262 0.0
O60 O 0.15112 0.81008 0.2736 0.0
O61 O 0.17404 0.83501 0.27626 0.0
C62 C 0.15529 0.82908 0.28842 0.0
C63 C 0.23703 0.82888 0.1783 0.0
C64 C 0.20155 0.7899 0.42526 0.0
C65 C 0.20196 0.77423 0.15299 0.0
O66 O 0.21722 0.77842 0.20103 0.0
O67 O 0.18603 0.78568 0.15414 0.0
O68 O 0.24756 0.8165 0.22733 0.0
O69 O 0.21733 0.82966 0.19048 0.0
O70 O 0.4793 0.88731 0.44764 0.0
Cd71 Cd 0.45069 0.88571 0.3925 0.0
Cd72 Cd 0.46496 0.92994 0.34229 0.0
O73 O 0.48787 0.91992 0.42645 0.0
O74 O 0.43881 0.86043 0.44821 0.0
O75 O 0.42512 0.89107 0.46667 0.0
C76 C 0.42504 0.87172 0.48545 0.0
C77 C 0.46639 0.96485 0.29641 0.0
C78 C 0.49192 0.90203 0.45576 0.0
C79 C 0.45776 0.89515 0.2044 0.0
O80 O 0.4623 0.91291 0.23158 0.0
O81 O 0.4519 0.88117 0.25761 0.0
O82 O 0.48136 0.9524 0.28472 0.0
O83 O 0.45065 0.95804 0.33933 0.0
O84 O 0.37906 0.23901 0.64508 0.0
Cd85 Cd 0.38342 0.21011 0.59569 0.0
Cd86 Cd 0.33824 0.22052 0.54268 0.0
O87 O 0.34576 0.2444 0.62616 0.0
O88 O 0.40964 0.20209 0.65402 0.0
O89 O 0.38066 0.18528 0.67656 0.0
C90 C 0.39977 0.18789 0.6957 0.0
C91 C 0.30346 0.21949 0.49643 0.0
C92 C 0.36324 0.25023 0.65378 0.0
C93 C 0.37443 0.21444 0.40711 0.0
O94 O 0.3563 0.21817 0.43347 0.0
O95 O 0.38855 0.2099 0.46129 0.0
O96 O 0.31516 0.23494 0.48157 0.0
O97 O 0.31105 0.20458 0.54173 0.0
O98 O 0.03684 0.1347 0.91799 0.0
Cd99 Cd 0.06556 0.13239 0.86264 0.0
Cd100 Cd 0.05304 0.08992 0.8425 0.0
O101 O 0.0301 0.10138 0.92424 0.0
O102 O 0.08251 0.15533 0.9097 0.0
O103 O 0.08778 0.12267 0.94442 0.0
C104 C 0.09227 0.1418 0.95547 0.0
C105 C 0.05577 0.05409 0.82099 0.0
C106 C 0.02509 0.11995 0.93976 0.0
C107 C 0.05778 0.11888 0.68252 0.0
O108 O 0.05269 0.10229 0.72022 0.0
O109 O 0.06519 0.13365 0.72646 0.0
O110 O 0.03896 0.06389 0.80878 0.0
O111 O 0.07096 0.06421 0.85309 0.0
O112 O 0.87179 0.77673 0.71203 0.0
Cd113 Cd 0.87553 0.80513 0.65572 0.0
Cd114 Cd 0.82991 0.79475 0.6171 0.0
O115 O 0.83823 0.77143 0.70302 0.0
O116 O 0.90258 0.81338 0.70535 0.0
O117 O 0.87407 0.83065 0.73198 0.0
C118 C 0.89341 0.828 0.74669 0.0
C119 C 0.79483 0.79646 0.57596 0.0
C120 C 0.85608 0.7657 0.7269 0.0
C121 C 0.86411 0.79863 0.47151 0.0
O122 O 0.84641 0.79529 0.5035 0.0
O123 O 0.87894 0.80392 0.52051 0.0
O124 O 0.80574 0.78032 0.56496 0.0
O125 O 0.8033 0.81163 0.61596 0.0
O126 O 0.9827 0.13134 0.42949 0.0
Cd127 Cd 0.95449 0.13375 0.37154 0.0
Cd128 Cd 0.9666 0.08927 0.3267 0.0
O129 O 0.98973 0.09834 0.41118 0.0
O130 O 0.94303 0.15935 0.42493 0.0
O131 O 0.92836 0.12909 0.44289 0.0
C132 C 0.92874 0.14844 0.46103 0.0
C133 C 0.96673 0.05406 0.28634 0.0
C134 C 0.99457 0.11607 0.43944 0.0
C135 C 0.96213 0.12381 0.18483 0.0
O136 O 0.96545 0.10583 0.21335 0.0
O137 O 0.9567 0.13812 0.23672 0.0
O138 O 0.98218 0.06585 0.2734 0.0
O139 O 0.95112 0.06177 0.32698 0.0
O140 O 0.69033 0.21648 0.33012 0.0
Cd141 Cd 0.68405 0.20197 0.21613 0.0
Cd142 Cd 0.72475 0.20387 0.21859 0.0
O143 O 0.72262 0.20833 0.35349 0.0
O144 O 0.65378 0.19886 0.2342 0.0
O145 O 0.67478 0.17238 0.23126 0.0
C146 C 0.65665 0.17955 0.24727 0.0
C147 C 0.74344 0.18276 0.12512 0.0
C148 C 0.70594 0.21668 0.37928 0.0
C149 C 0.70311 0.23437 0.10878 0.0
O150 O 0.7189 0.23061 0.15444 0.0
O151 O 0.68768 0.22226 0.11116 0.0
O152 O 0.75257 0.19574 0.17573 0.0
O153 O 0.72397 0.17971 0.13731 0.0
O154 O 0.53138 0.88328 0.93669 0.0
Cd155 Cd 0.56046 0.88519 0.88443 0.0
Cd156 Cd 0.54759 0.9277 0.85632 0.0
O157 O 0.5244 0.91659 0.93816 0.0
O158 O 0.57709 0.86259 0.9375 0.0
O159 O 0.58208 0.89546 0.96765 0.0
C160 C 0.5865 0.87642 0.98246 0.0
C161 C 0.55028 0.96326 0.82688 0.0
C162 C 0.51945 0.89806 0.95566 0.0
C163 C 0.55382 0.89764 0.70167 0.0
O164 O 0.54823 0.9143 0.73671 0.0
O165 O 0.56105 0.88313 0.74831 0.0
O166 O 0.53354 0.95332 0.81563 0.0
O167 O 0.56531 0.95356 0.86299 0.0
O168 O 0.83304 0.22572 0.59367 0.0
Cd169 Cd 0.83999 0.21112 0.7074 0.0
Cd170 Cd 0.79985 0.20913 0.70334 0.0
O171 O 0.80188 0.21425 0.56863 0.0
O172 O 0.87037 0.20895 0.69135 0.0
O173 O 0.85008 0.18188 0.69283 0.0
C174 C 0.86808 0.18958 0.67827 0.0
C175 C 0.78357 0.18573 0.79571 0.0
C176 C 0.81759 0.22448 0.54387 0.0
C177 C 0.81805 0.24123 0.81483 0.0
O178 O 0.80281 0.23613 0.76831 0.0
O179 O 0.83454 0.2306 0.81305 0.0
O180 O 0.77308 0.19783 0.74543 0.0
O181 O 0.80327 0.18491 0.78375 0.0
O182 O 0.54464 0.12082 0.51091 0.0
Cd183 Cd 0.57333 0.12202 0.56559 0.0
Cd184 Cd 0.55836 0.07738 0.60952 0.0
O185 O 0.53582 0.08807 0.5251 0.0
O186 O 0.58467 0.14786 0.51299 0.0
O187 O 0.59876 0.11759 0.48934 0.0
C188 C 0.59843 0.13706 0.47314 0.0
C189 C 0.55622 0.04266 0.65674 0.0
C190 C 0.53196 0.1063 0.49923 0.0
C191 C 0.56618 0.11127 0.75159 0.0
O192 O 0.56117 0.09398 0.72091 0.0
O193 O 0.57249 0.12559 0.7011 0.0
O194 O 0.54136 0.05534 0.66664 0.0
O195 O 0.57212 0.04907 0.61377 0.0
O196 O 0.63114 0.78506 0.33471 0.0
Cd197 Cd 0.63486 0.81432 0.3811 0.0
Cd198 Cd 0.67727 0.79895 0.40539 0.0
O199 O 0.66405 0.77631 0.3286 0.0
O200 O 0.61212 0.83119 0.33056 0.0
O201 O 0.64474 0.83486 0.29068 0.0
C202 C 0.62567 0.83971 0.27988 0.0
C203 C 0.71317 0.79833 0.42836 0.0
C204 C 0.64516 0.77231 0.31484 0.0
C205 C 0.64846 0.8085 0.56311 0.0
O206 O 0.66456 0.80164 0.52667 0.0
O207 O 0.63407 0.81615 0.51726 0.0
O208 O 0.70168 0.78283 0.44514 0.0
O209 O 0.70472 0.81398 0.39122 0.0
O210 O 0.99069 0.89239 0.039 0.0
Cd211 Cd 0.96232 0.89085 0.09756 0.0
Cd212 Cd 0.97318 0.93581 0.12121 0.0
O213 O 0.9965 0.9259 0.03792 0.0
O214 O 0.95254 0.86362 0.05564 0.0
O215 O 0.93684 0.89256 0.02144 0.0
C216 C 0.93847 0.87295 0.01167 0.0
C217 C 0.9704 0.97157 0.1474 0.0
C218 C 1.00196 0.90763 0.01933 0.0
C219 C 0.97009 0.90491 0.27784 0.0
O220 O 0.97363 0.92203 0.24106 0.0
O221 O 0.96396 0.88962 0.23341 0.0
O222 O 0.98704 0.96158 0.16037 0.0
O223 O 0.95528 0.96169 0.11348 0.0
O224 O 0.63256 0.73685 0.82859 0.0
Cd225 Cd 0.62884 0.70782 0.87852 0.0
Cd226 Cd 0.6736 0.71753 0.92483 0.0
O227 O 0.66604 0.74183 0.84254 0.0
O228 O 0.60277 0.69923 0.82098 0.0
O229 O 0.6322 0.68325 0.79777 0.0
C230 C 0.613 0.68543 0.77889 0.0
C231 C 0.70867 0.7145 0.96466 0.0
C232 C 0.6484 0.74793 0.81761 0.0
C233 C 0.63863 0.71219 0.06578 0.0
O234 O 0.65661 0.71587 0.03738 0.0
O235 O 0.62425 0.70747 0.01332 0.0
O236 O 0.6981 0.73067 0.98026 0.0
O237 O 0.6998 0.70002 0.92166 0.0
O238 O 0.53346 0.38665 0.02323 0.0
Cd239 Cd 0.56229 0.38523 0.07623 0.0
Cd240 Cd 0.5479 0.42895 0.12789 0.0
O241 O 0.5248 0.41917 0.04465 0.0
O242 O 0.57449 0.36057 0.01771 0.0
O243 O 0.58741 0.39163 0.00072 0.0
C244 C 0.58782 0.37241 0.98029 0.0
C245 C 0.5467 0.46375 0.17385 0.0
C246 C 0.52074 0.40131 0.01567 0.0
C247 C 0.55583 0.39383 0.26476 0.0
O248 O 0.55097 0.41161 0.23818 0.0
O249 O 0.5617 0.38008 0.21094 0.0
O250 O 0.53172 0.45132 0.18643 0.0
O251 O 0.56229 0.45698 0.13007 0.0
O252 O 0.82834 0.3118 0.08981 0.0
Cd253 Cd 0.83341 0.32674 0.20406 0.0
Cd254 Cd 0.79334 0.32384 0.20084 0.0
O255 O 0.79587 0.31918 0.06627 0.0
O256 O 0.86312 0.3337 0.18858 0.0
O257 O 0.83881 0.35727 0.1928 0.0
C258 C 0.85784 0.35261 0.17843 0.0
C259 C 0.77426 0.34485 0.29321 0.0
C260 C 0.8127 0.31108 0.04083 0.0
C261 C 0.81526 0.29395 0.31211 0.0
O262 O 0.79948 0.2973 0.2659 0.0
O263 O 0.83042 0.30642 0.30962 0.0
O264 O 0.76536 0.33167 0.24274 0.0
O265 O 0.79371 0.34814 0.28134 0.0
O266 O 0.97221 0.57995 0.3726 0.0
Cd267 Cd 0.95686 0.58552 0.48616 0.0
Cd268 Cd 0.95544 0.54613 0.47809 0.0
O269 O 0.96086 0.54897 0.34365 0.0
O270 O 0.9525 0.61565 0.47341 0.0
O271 O 0.92699 0.59335 0.4713 0.0
C272 C 0.93338 0.61192 0.45883 0.0
C273 C 0.93099 0.53107 0.569 0.0
C274 C 0.97113 0.56481 0.32096 0.0
C275 C 0.98705 0.56374 0.59286 0.0
O276 O 0.98229 0.54865 0.54474 0.0
O277 O 0.97614 0.58004 0.59216 0.0
O278 O 0.94282 0.51996 0.51967 0.0
O279 O 0.93108 0.55075 0.55668 0.0
O280 O 0.68552 0.30198 0.82893 0.0
Cd281 Cd 0.67748 0.31584 0.71513 0.0
Cd282 Cd 0.71801 0.31866 0.71634 0.0
O283 O 0.71661 0.31395 0.8514 0.0
O284 O 0.6471 0.31625 0.73474 0.0
O285 O 0.66573 0.34446 0.7308 0.0
C286 C 0.64835 0.33571 0.74797 0.0
C287 C 0.73406 0.34193 0.6225 0.0
C288 C 0.70108 0.30368 0.87779 0.0
C289 C 0.69985 0.28588 0.60775 0.0
O290 O 0.71517 0.29145 0.65278 0.0
O291 O 0.68311 0.29612 0.61034 0.0
O292 O 0.74466 0.32996 0.67287 0.0
O293 O 0.71437 0.34269 0.63492 0.0
O294 O 0.95713 0.43897 0.10669 0.0
Cd295 Cd 0.94216 0.43368 -0.0073 0.0
Cd296 Cd 0.94538 0.47355 -0.00524 0.0
O297 O 0.94981 0.47146 0.12942 0.0
O298 O 0.93483 0.40413 0.00931 0.0
O299 O 0.91153 0.42868 0.00414 0.0
C300 C 0.91595 0.40967 0.01918 0.0
C301 C 0.92491 0.49244 0.90015 0.0
C302 C 0.95789 0.45469 0.15525 0.0
C303 C 0.97522 0.45124 0.88445 0.0
O304 O 0.97204 0.46703 0.93094 0.0
O305 O 0.96253 0.43628 0.88673 0.0
O306 O 0.93795 0.5014 0.95107 0.0
O307 O 0.92135 0.4731 0.91299 0.0
O308 O 0.87164 0.72313 0.21574 0.0
Cd309 Cd 0.87157 0.69479 0.15819 0.0
Cd310 Cd 0.82692 0.70888 0.13121 0.0
O311 O 0.83865 0.73153 0.21192 0.0
O312 O 0.89813 0.68316 0.20066 0.0
O313 O 0.86819 0.66916 0.2337 0.0
C314 C 0.88788 0.6694 0.24341 0.0
C315 C 0.79108 0.70976 0.10362 0.0
C316 C 0.85716 0.73559 0.23225 0.0
C317 C 0.85801 0.703 0.97624 0.0
O318 O 0.84097 0.70748 0.01194 0.0
O319 O 0.87297 0.69647 0.02201 0.0
O320 O 0.80282 0.72517 0.08896 0.0
O321 O 0.79926 0.69384 0.13971 0.0
O322 O 0.52192 0.62291 0.44906 0.0
Cd323 Cd 0.55103 0.62492 0.39781 0.0
Cd324 Cd 0.53963 0.57968 0.36569 0.0
O325 O 0.51577 0.58945 0.44661 0.0
O326 O 0.55996 0.65193 0.44576 0.0
O327 O 0.57528 0.62285 0.481 0.0
C328 C 0.57333 0.64237 0.49281 0.0
C329 C 0.54204 0.54425 0.33225 0.0
C330 C 0.51033 0.60771 0.4657 0.0
C331 C 0.54585 0.61191 0.21452 0.0
O332 O 0.54133 0.59476 0.24898 0.0
O333 O 0.55153 0.62692 0.26176 0.0
O334 O 0.52572 0.55469 0.3181 0.0
O335 O 0.55689 0.5534 0.37174 0.0
O336 O 0.38266 0.28739 0.13583 0.0
Cd337 Cd 0.37843 0.31659 0.08871 0.0
Cd338 Cd 0.33643 0.30226 0.07247 0.0
O339 O 0.3497 0.27925 0.14791 0.0
O340 O 0.40108 0.33381 0.13681 0.0
O341 O 0.36856 0.33685 0.1793 0.0
C342 C 0.3876 0.34199 0.1886 0.0
C343 C 0.3003 0.30385 0.05987 0.0
C344 C 0.36863 0.27489 0.1586 0.0
C345 C 0.36353 0.31054 0.90903 0.0
O346 O 0.34764 0.30386 0.94801 0.0
O347 O 0.37821 0.31832 0.95247 0.0
O348 O 0.3105 0.28756 0.04196 0.0
O349 O 0.31028 0.31909 0.09231 0.0
O350 O 0.47223 0.61963 0.95399 0.0
Cd351 Cd 0.44322 0.62061 0.90245 0.0
Cd352 Cd 0.45835 0.57634 0.85738 0.0
O353 O 0.48119 0.58695 0.94011 0.0
O354 O 0.43184 0.64605 0.95721 0.0
O355 O 0.41837 0.61547 0.98133 0.0
C356 C 0.41852 0.63487 -0.00175 0.0
C357 C 0.46026 0.54175 0.8102 0.0
C358 C 0.48505 0.60519 0.96519 0.0
C359 C 0.44922 0.61039 0.71602 0.0
O360 O 0.45472 0.59315 0.74633 0.0
O361 O 0.44303 0.62455 0.76706 0.0
O362 O 0.47507 0.55443 0.79873 0.0
O363 O 0.44459 0.54807 0.85476 0.0
O364 O 0.1879 0.70339 0.88155 0.0
Cd365 Cd 0.1821 0.68839 0.76787 0.0
Cd366 Cd 0.22206 0.69012 0.76949 0.0
O367 O 0.22014 0.69485 0.90403 0.0
O368 O 0.15237 0.68154 0.78462 0.0
O369 O 0.17661 0.6579 0.77933 0.0
C370 C 0.15762 0.6626 0.79426 0.0
C371 C 0.24038 0.66904 0.67485 0.0
C372 C 0.20369 0.70366 0.92981 0.0
C373 C 0.20084 0.72059 0.65899 0.0
O374 O 0.21648 0.71688 0.70554 0.0
O375 O 0.1854 0.70848 0.6614 0.0
O376 O 0.24973 0.68183 0.7257 0.0
O377 O 0.22092 0.66607 0.6879 0.0
O378 O 0.04307 0.43361 0.59873 0.0
Cd379 Cd 0.05809 0.42738 0.48503 0.0
Cd380 Cd 0.06019 0.46699 0.49171 0.0
O381 O 0.05489 0.46449 0.62633 0.0
O382 O 0.06135 0.3971 0.49862 0.0
O383 O 0.08765 0.41845 0.50005 0.0
C384 C 0.08059 0.40014 0.513 0.0
C385 C 0.08448 0.48219 0.40022 0.0
C386 C 0.04444 0.44883 0.6498 0.0
C387 C 0.02816 0.44954 0.37839 0.0
O388 O 0.03322 0.46463 0.4259 0.0
O389 O 0.03879 0.43306 0.3793 0.0
O390 O 0.07268 0.49322 0.44998 0.0
O391 O 0.08446 0.4625 0.41227 0.0
O392 O 0.3281 0.71318 0.14241 0.0
Cd393 Cd 0.33367 0.69854 0.2571 0.0
Cd394 Cd 0.29389 0.6978 0.24954 0.0
O395 O 0.29682 0.70246 0.11459 0.0
O396 O 0.36398 0.69525 0.24403 0.0
O397 O 0.34264 0.66898 0.24255 0.0
C398 C 0.36094 0.67604 0.22921 0.0
C399 C 0.27871 0.67383 0.34218 0.0
C400 C 0.31299 0.71209 0.09078 0.0
C401 C 0.3121 0.72953 0.36187 0.0
O402 O 0.29684 0.72484 0.31463 0.0
O403 O 0.32827 0.7184 0.36127 0.0
O404 O 0.26763 0.68558 0.29258 0.0
O405 O 0.29841 0.67372 0.32929 0.0
O406 O 0.05832 0.57539 0.86351 0.0
Cd407 Cd 0.0733 0.58101 0.97732 0.0
Cd408 Cd 0.07035 0.54093 0.97612 0.0
O409 O 0.06574 0.54288 0.84155 0.0
O410 O 0.08049 0.61061 0.96009 0.0
O411 O 0.10392 0.58619 0.96609 0.0
C412 C 0.09942 0.60518 0.95078 0.0
C413 C 0.09056 0.52157 0.07031 0.0
C414 C 0.05754 0.55958 0.81548 0.0
C415 C 0.04041 0.56332 0.08616 0.0
O416 O 0.04372 0.54751 0.04 0.0
O417 O 0.05297 0.57839 0.08353 0.0
O418 O 0.07738 0.51289 0.01915 0.0
O419 O 0.09439 0.54087 0.05805 0.0
O420 O 0.14184 0.28833 0.77143 0.0
Cd421 Cd 0.13794 0.31668 0.82681 0.0
Cd422 Cd 0.18266 0.30575 0.87941 0.0
O423 O 0.17488 0.28225 0.79445 0.0
O424 O 0.1123 0.32685 0.76937 0.0
O425 O 0.14211 0.34261 0.75415 0.0
C426 C 0.12292 0.34141 0.73377 0.0
C427 C 0.2175 0.30623 0.92527 0.0
C428 C 0.15752 0.27688 0.76394 0.0
C429 C 0.1466 0.31055 0.01536 0.0
O430 O 0.16488 0.30742 -0.01045 0.0
O431 O 0.13254 0.31518 0.96103 0.0
O432 O 0.20571 0.29079 0.93839 0.0
O433 O 0.20999 0.32147 0.88178 0.0
O434 O 0.48258 0.38233 0.53366 0.0
Cd435 Cd 0.45344 0.38494 0.58493 0.0
Cd436 Cd 0.46711 0.42708 0.61215 0.0
O437 O 0.49024 0.41548 0.53173 0.0
O438 O 0.43621 0.36299 0.53148 0.0
O439 O 0.43231 0.39607 0.50108 0.0
C440 C 0.4273 0.37721 0.48628 0.0
C441 C 0.46508 0.46265 0.64023 0.0
C442 C 0.49485 0.39687 0.51477 0.0
C443 C 0.45965 0.39721 0.76762 0.0
O444 O 0.46573 0.41374 0.73228 0.0
O445 O 0.45236 0.38283 0.72104 0.0
O446 O 0.4816 0.45236 0.65257 0.0
O447 O 0.44996 0.45328 0.60369 0.0
C448 C 0.27356 0.2375 0.4295 0.0
C449 C 0.28239 0.21915 0.46009 0.0
H450 H 0.24728 0.2522 0.37403 0.0
C451 C 0.2712 0.2008 0.45216 0.0
H452 H 0.28178 0.25189 0.43405 0.0
C453 C 0.25144 0.20093 0.41548 0.0
C454 C 0.24246 0.21946 0.38762 0.0
H455 H 0.2777 0.18639 0.47423 0.0
H456 H 0.24291 0.1867 0.41211 0.0
C457 C 0.25381 0.23767 0.39449 0.0
C458 C 0.07771 1.00496 0.72444 0.0
C459 C 0.05971 0.99357 0.71 0.0
H460 H 0.09072 0.03296 0.77369 0.0
C461 C 0.04078 1.00182 0.73727 0.0
H462 H 0.09255 0.99888 0.70517 0.0
C463 C 0.03975 0.02112 0.77629 0.0
C464 C 0.05764 0.03263 0.7903 0.0
H465 H 0.02662 0.99342 0.72778 0.0
H466 H 0.02481 0.02714 0.79464 0.0
C467 C 0.0767 0.0243 0.76486 0.0
C468 C 0.2681 0.83961 0.09108 0.0
C469 C 0.24663 0.83774 0.09762 0.0
H470 H 0.29438 0.84071 0.00549 0.0
C471 C 0.23494 0.83957 0.02035 0.0
H472 H 0.27753 0.83825 0.14933 0.0
C473 C 0.24461 0.84047 0.93761 0.0
C474 C 0.26614 0.84015 0.93068 0.0
H475 H 0.21838 0.83808 0.02288 0.0
H476 H 0.23525 0.83972 0.87898 0.0
C477 C 0.27775 0.84109 0.00841 0.0
C478 C 0.4506 0.01614 0.19644 0.0
C479 C 0.4698 0.02441 0.17229 0.0
H480 H 0.43441 0.99097 0.25725 0.0
C481 C 0.48762 0.01307 0.19049 0.0
H482 H 0.43662 0.02467 0.18432 0.0
C483 C 0.48636 0.99393 0.23165 0.0
C484 C 0.46727 0.98572 0.25725 0.0
H485 H 0.50265 0.01905 0.17321 0.0
H486 H 0.50045 0.98559 0.24399 0.0
C487 C 0.44936 0.99702 0.23929 0.0
C488 C 0.74453 0.77965 0.47658 0.0
C489 C 0.7347 0.79839 0.45914 0.0
H490 H 0.771 0.76443 0.52735 0.0
C491 C 0.74476 0.81675 0.4811 0.0
H492 H 0.73714 0.76524 0.46097 0.0
C493 C 0.76412 0.81628 0.52142 0.0
C494 C 0.77384 0.79745 0.53904 0.0
H495 H 0.73741 0.83142 0.46961 0.0
H496 H 0.77154 0.83061 0.53792 0.0
C497 C 0.76389 0.77919 0.51528 0.0
C498 C 0.98596 0.02406 0.22687 0.0
C499 C 0.96708 0.03282 0.25174 0.0
H500 H 1.00168 0.99809 0.17388 0.0
C501 C 0.94894 0.02159 0.23806 0.0
H502 H 1.00022 0.03231 0.23601 0.0
C503 C 0.94977 1.00194 0.20034 0.0
C504 C 0.96877 0.99313 0.17708 0.0
H505 H 0.93416 0.02804 0.25563 0.0
H506 H 0.93564 0.99345 0.19161 0.0
C507 C 0.9868 1.00446 0.19071 0.0
C508 C 0.78538 0.17632 0.95522 0.0
C509 C 0.7739 0.17731 0.8771 0.0
H510 H 0.78463 0.17725 0.09652 0.0
C511 C 0.75246 0.17509 0.88276 0.0
H512 H 0.80192 0.17813 0.95334 0.0
C513 C 0.74257 0.17405 0.96505 0.0
C514 C 0.75391 0.17581 0.04326 0.0
H515 H 0.74318 0.17582 0.82384 0.0
H516 H 0.72594 0.17411 0.96699 0.0
C517 C 0.77547 0.17587 0.03753 0.0
C518 C 0.53468 0.99574 0.77195 0.0
C519 C 0.5524 0.98426 0.79023 0.0
H520 H 0.52203 0.02295 0.71516 0.0
C521 C 0.57161 0.99201 0.76326 0.0
H522 H 0.51964 0.99013 0.79124 0.0
C523 C 0.57296 0.01074 0.7174 0.0
C524 C 0.55514 0.02214 0.69899 0.0
H525 H 0.58551 0.98334 0.77523 0.0
H526 H 0.58792 0.01638 0.69727 0.0
C527 C 0.53604 0.01449 0.72761 0.0
C528 C 0.7393 0.69359 0.01247 0.0
C529 C 0.72986 0.71274 -0.00101 0.0
H530 H 0.76601 0.67749 0.05902 0.0
C531 C 0.74037 0.73059 0.024 0.0
H532 H 0.73146 0.67956 -0.0052 0.0
C533 C 0.75997 0.72941 0.06011 0.0
C534 C 0.76949 0.71035 0.07373 0.0
H535 H 0.7335 0.74558 0.01496 0.0
H536 H 0.76774 0.74354 0.07704 0.0
C537 C 0.75891 0.69239 0.05032 0.0
C538 C 0.52587 0.512 0.27919 0.0
C539 C 0.54379 0.52313 0.29738 0.0
H540 H 0.51279 0.48471 0.22593 0.0
C541 C 0.56292 0.5147 0.27351 0.0
H542 H 0.51089 0.51812 0.29626 0.0
C543 C 0.56399 0.49563 0.23083 0.0
C544 C 0.54598 0.48455 0.21287 0.0
H545 H 0.57698 0.52307 0.28561 0.0
H546 H 0.57889 0.48946 0.21301 0.0
C547 C 0.52696 0.49289 0.23829 0.0
C548 C 0.74208 0.35134 0.38031 0.0
C549 C 0.76363 0.35177 0.37473 0.0
H550 H 0.71564 0.34881 0.46442 0.0
C551 C 0.77491 0.35388 0.45294 0.0
H552 H 0.73297 0.34967 0.32132 0.0
C553 C 0.76501 0.35286 0.53519 0.0
C554 C 0.74361 0.35029 0.54079 0.0
H555 H 0.79154 0.35411 0.45112 0.0
H556 H 0.77427 0.35242 0.59421 0.0
C557 C 0.73214 0.3509 0.46257 0.0
C558 C 0.91703 0.49117 0.73947 0.0
C559 C 0.91864 0.50275 0.81715 0.0
H560 H 0.9197 0.49115 0.59848 0.0
C561 C 0.91934 0.52424 0.81013 0.0
H562 H 0.9166 0.47457 0.74243 0.0
C563 C 0.92061 0.53379 0.72732 0.0
C564 C 0.92178 0.52198 0.65003 0.0
H565 H 0.92063 0.53358 0.8687 0.0
H566 H 0.9229 0.55024 0.72468 0.0
C567 C 0.91887 0.50067 0.65673 0.0
C568 C 0.24983 0.32445 0.97208 0.0
C569 C 0.23857 0.30622 0.9617 0.0
H570 H 0.27815 0.33812 0.01434 0.0
C571 C 0.24728 0.28763 -0.00987 0.0
H572 H 0.24342 0.33903 0.95173 0.0
C573 C 0.26699 0.28711 0.02545 0.0
C574 C 0.27842 0.30521 0.0348 0.0
H575 H 0.23899 0.27331 0.98368 0.0
H576 H 0.27344 0.27242 0.04422 0.0
C577 C 0.26955 0.32397 0.00906 0.0
C578 C 0.44419 0.49151 0.7042 0.0
C579 C 0.46327 0.48362 0.67651 0.0
H580 H 0.42825 0.51588 0.77092 0.0
C581 C 0.48114 0.49489 0.69406 0.0
H582 H 0.43018 0.48299 0.69282 0.0
C583 C 0.48004 0.51356 0.73843 0.0
C584 C 0.46108 0.52132 0.76789 0.0
H585 H 0.49608 0.48915 0.67422 0.0
H586 H 0.49416 0.52187 0.75034 0.0
C587 C 0.44311 0.51014 0.75017 0.0
C588 C 0.24822 0.66235 0.43133 0.0
C589 C 0.26959 0.66495 0.42383 0.0
H590 H 0.22216 0.66064 0.51792 0.0
C591 C 0.2815 0.66378 0.50074 0.0
H592 H 0.23863 0.66317 0.37338 0.0
C593 C 0.27202 0.66282 0.5839 0.0
C594 C 0.2505 0.66244 0.59167 0.0
H595 H 0.29799 0.66583 0.49746 0.0
H596 H 0.28147 0.66409 0.64209 0.0
C597 C 0.23879 0.66083 0.51444 0.0
C598 C 0.09456 0.47977 0.24144 0.0
C599 C 0.09361 0.4914 0.31926 0.0
H600 H 0.09438 0.4803 0.10007 0.0
C601 C 0.09668 0.51271 0.31339 0.0
H602 H 0.09212 0.46334 0.24346 0.0
C603 C 0.09852 0.52238 0.23101 0.0
C604 C 0.09674 0.511 0.15287 0.0
H605 H 0.096 0.52209 0.37207 0.0
H606 H 0.09909 0.53898 0.22876 0.0
C607 C 0.09582 0.4895 0.159 0.0
C608 C 0.10174 0.1425 0.11399 0.0
C609 C 0.10601 0.14848 0.02673 0.0
H610 H 0.10678 0.14858 0.25123 0.0
C611 C 0.12115 0.16338 0.01066 0.0
H612 H 0.08986 0.1313 0.12797 0.0
C613 C 0.13138 0.17265 0.08096 0.0
C614 C 0.12599 0.16778 0.16838 0.0
H615 H 0.12448 0.16841 0.94394 0.0
H616 H 0.14236 0.18474 0.06706 0.0
C617 C 0.11135 0.15238 0.18437 0.0
C618 C 0.14468 0.86245 0.35954 0.0
C619 C 0.13976 0.84246 0.33187 0.0
H620 H 0.13547 0.88867 0.4358 0.0
C621 C 0.12069 0.83413 0.35726 0.0
H622 H 0.15929 0.86928 0.34168 0.0
C623 C 0.10735 0.845 0.41235 0.0
C624 C 0.11253 0.86463 0.44287 0.0
H625 H 0.11635 0.8188 0.33756 0.0
H626 H 0.09302 0.83783 0.43197 0.0
C627 C 0.13112 0.87349 0.41405 0.0
C628 C 0.41296 0.84236 0.57911 0.0
C629 C 0.4101 0.86258 0.5491 0.0
H630 H 0.40125 0.81733 0.65555 0.0
C631 C 0.39303 0.87365 0.58061 0.0
H632 H 0.42607 0.83344 0.55738 0.0
C633 C 0.37864 0.86432 0.63755 0.0
C634 C 0.38116 0.8438 0.66474 0.0
H635 H 0.39047 0.88932 0.55938 0.0
H636 H 0.3652 0.87295 0.65765 0.0
C637 C 0.39876 0.83314 0.63629 0.0
C638 C 0.42754 0.18439 0.8071 0.0
C639 C 0.40991 0.17622 0.76755 0.0
H640 H 0.45069 0.181 0.90498 0.0
C641 C 0.40202 0.15751 0.79957 0.0
H642 H 0.43392 0.19887 0.78484 0.0
C643 C 0.41189 0.14701 0.86849 0.0
C644 C 0.42951 0.15532 0.908 0.0
H645 H 0.3884 0.15088 0.77067 0.0
H646 H 0.40576 0.13243 0.89082 0.0
C647 C 0.43706 0.17421 0.87678 0.0
C648 C 0.90806 0.86983 0.90968 0.0
C649 C 0.92608 0.86157 0.94626 0.0
H650 H 0.88331 0.8656 0.8182 0.0
C651 C 0.93312 0.84246 0.91603 0.0
H652 H 0.90231 0.88457 0.93136 0.0
C653 C 0.92265 0.83197 0.85023 0.0
C654 C 0.90459 0.84006 0.8138 0.0
H655 H 0.94703 0.83571 0.94201 0.0
H656 H 0.92864 0.81731 0.82869 0.0
C657 C 0.89725 0.85902 0.84477 0.0
C658 C 0.88147 0.15736 0.60591 0.0
C659 C 0.88469 0.17763 0.63438 0.0
H660 H 0.89281 0.13215 0.52864 0.0
C661 C 0.90302 0.18755 0.60946 0.0
H662 H 0.86746 0.14931 0.62335 0.0
C663 C 0.91726 0.17791 0.55419 0.0
C664 C 0.91373 0.15798 0.5228 0.0
H665 H 0.90607 0.20315 0.6298 0.0
H666 H 0.93096 0.18628 0.535 0.0
C667 C 0.89591 0.14759 0.55103 0.0
C668 C 0.63059 0.13683 0.37856 0.0
C669 C 0.61279 0.14688 0.4091 0.0
H670 H 0.65847 0.13918 0.30246 0.0
C671 C 0.60863 0.16675 0.37779 0.0
H672 H 0.63414 0.12144 0.40084 0.0
C673 C 0.62225 0.17669 0.32035 0.0
C674 C 0.6406 0.16717 0.2932 0.0
H675 H 0.59492 0.17484 0.39867 0.0
H676 H 0.61873 0.19225 0.30014 0.0
C677 C 0.64444 0.14694 0.32159 0.0
C678 C 0.61492 0.8552 0.04522 0.0
C679 C 0.59973 0.87026 0.05663 0.0
H680 H 0.63584 0.83441 0.10811 0.0
C681 C 0.59499 0.87702 0.14218 0.0
H682 H 0.61862 0.84957 0.97995 0.0
C683 C 0.60423 0.8678 0.21551 0.0
C684 C 0.61896 0.8523 0.20422 0.0
H685 H 0.58307 0.88836 0.15265 0.0
H686 H 0.59932 0.87224 0.28107 0.0
C687 C 0.62477 0.8466 0.1184 0.0
C688 C 0.57647 0.67197 0.5953 0.0
C689 C 0.5844 0.65333 0.56374 0.0
H690 H 0.57895 0.69627 0.68849 0.0
C691 C 0.60195 0.64504 0.60417 0.0
H692 H 0.56286 0.67872 0.56644 0.0
C693 C 0.61145 0.65538 0.67415 0.0
C694 C 0.60319 0.67386 0.70638 0.0
H695 H 0.60836 0.63065 0.58159 0.0
H696 H 0.62506 0.64881 0.70362 0.0
C697 C 0.58559 0.68196 0.66609 0.0
C698 C 0.59984 0.34412 0.88164 0.0
C699 C 0.60264 0.36403 0.91459 0.0
H700 H 0.61157 0.31992 0.80131 0.0
C701 C 0.61958 0.37551 0.88412 0.0
H702 H 0.58681 0.33492 0.90247 0.0
C703 C 0.63393 0.36683 0.82552 0.0
C704 C 0.63151 0.34657 0.79551 0.0
H705 H 0.62209 0.39097 0.90761 0.0
H706 H 0.64731 0.37571 0.80645 0.0
C707 C 0.61399 0.33556 0.82271 0.0
C708 C 0.89284 0.36154 0.12043 0.0
C709 C 0.87273 0.36777 0.14167 0.0
H710 H 0.92191 0.36957 0.06383 0.0
C711 C 0.86668 0.38787 0.11961 0.0
H712 H 0.89803 0.34615 0.1355 0.0
C713 C 0.88045 0.40138 0.0775 0.0
C714 C 0.90055 0.39505 0.0562 0.0
H715 H 0.85124 0.39311 0.13406 0.0
H716 H 0.8754 0.41681 0.06239 0.0
C717 C 0.90652 0.37496 0.07828 0.0
C718 C 0.91863 0.65961 0.33166 0.0
C719 C 0.89857 0.65508 0.30421 0.0
H720 H 0.94493 0.65002 0.40414 0.0
C721 C 0.88915 0.63707 0.33591 0.0
H722 H 0.92625 0.67351 0.30977 0.0
C723 C 0.9 0.62339 0.39031 0.0
C724 C 0.92035 0.62765 0.41515 0.0
H725 H 0.87364 0.63324 0.31656 0.0
H726 H 0.89268 0.60919 0.4105 0.0
C727 C 0.92929 0.64619 0.38677 0.0
C728 C 0.39833 0.35697 0.42322 0.0
C729 C 0.41395 0.3716 0.41196 0.0
H730 H 0.37694 0.33684 0.36013 0.0
C731 C 0.41896 0.37837 0.32647 0.0
H732 H 0.3944 0.35135 0.48846 0.0
C733 C 0.40957 0.36952 0.25303 0.0
C734 C 0.39442 0.35439 0.26416 0.0
H735 H 0.43121 0.38939 0.31615 0.0
H736 H 0.41469 0.37392 0.18755 0.0
C737 C 0.38833 0.34875 0.34992 0.0
C738 C 0.38666 0.63404 0.09443 0.0
C739 C 0.40445 0.64421 0.06434 0.0
H740 H 0.35888 0.63604 0.17125 0.0
C741 C 0.40884 0.66377 0.09778 0.0
H742 H 0.38294 0.61888 0.0705 0.0
C743 C 0.39539 0.67336 0.15667 0.0
C744 C 0.37698 0.6638 0.18303 0.0
H745 H 0.42258 0.67191 0.07731 0.0
H746 H 0.39904 0.68873 0.17833 0.0
C747 C 0.37297 0.64381 0.15276 0.0
C748 C 0.14875 0.62726 0.85199 0.0
C749 C 0.1427 0.64739 0.83056 0.0
H750 H 0.14001 0.59819 0.90798 0.0
C751 C 0.12257 0.65356 0.85166 0.0
H752 H 0.16421 0.62205 0.83762 0.0
C753 C 0.10885 0.64003 0.89297 0.0
C754 C 0.11482 0.61989 0.91443 0.0
H755 H 0.11738 0.66898 0.83703 0.0
H756 H 0.09344 0.64536 0.90732 0.0
C757 C 0.13495 0.61365 0.89334 0.0
C758 C 0.09364 0.35146 0.63684 0.0
C759 C 0.11321 0.35586 0.67045 0.0
H760 H 0.0684 0.36157 0.55876 0.0
C761 C 0.12303 0.37407 0.64334 0.0
H762 H 0.08574 0.33744 0.65513 0.0
C763 C 0.11299 0.38805 0.58757 0.0
C764 C 0.09302 0.38399 0.5571 0.0
H765 H 0.13817 0.37783 0.66745 0.0
H766 H 0.12054 0.40238 0.57119 0.0
C767 C 0.08375 0.36526 0.58068 0.0
C768 C 0.12899 0.26993 0.1651 0.0
C769 C 0.14675 0.26835 0.21686 0.0
H770 H 0.11421 0.28616 0.06027 0.0
C771 C 0.16015 0.28515 0.22128 0.0
H772 H 0.11815 0.25736 0.16213 0.0
C773 C 0.15741 0.302 0.16575 0.0
C774 C 0.1417 0.3019 0.10264 0.0
H775 H 0.17357 0.28465 0.26303 0.0
H776 H 0.16928 0.31365 0.16337 0.0
C777 C 0.12646 0.28668 0.10815 0.0
C778 C 0.99309 0.88562 0.37682 0.0
C779 C 0.9797 0.90224 0.36452 0.0
H780 H 0.02114 0.87523 0.43435 0.0
C781 C 0.98191 0.9197 0.41772 0.0
H782 H 0.99185 0.87203 0.33638 0.0
C783 C 0.99904 0.92186 0.47152 0.0
C784 C 0.01399 0.90638 0.47451 0.0
H785 H 0.97172 0.93272 0.40969 0.0
H786 H 1.00114 0.93615 0.5065 0.0
C787 C 0.01017 0.8877 0.43137 0.0
C788 C 0.29237 0.75738 0.43795 0.0
C789 C 0.31133 0.74882 0.41194 0.0
H790 H 0.2771 0.78076 0.513 0.0
C791 C 0.32948 0.75941 0.43013 0.0
H792 H 0.27807 0.74967 0.42312 0.0
C793 C 0.32883 0.77755 0.47803 0.0
C794 C 0.31007 0.78521 0.51106 0.0
H795 H 0.34422 0.75353 0.40837 0.0
H796 H 0.34325 0.78486 0.49436 0.0
C797 C 0.29174 0.77539 0.48777 0.0
C798 C 0.55607 0.09871 0.89846 0.0
C799 C 0.55785 0.11545 0.83998 0.0
H800 H 0.537 0.08297 -0.00791 0.0
C801 C 0.54435 0.13207 0.84973 0.0
H802 H 0.56637 0.08572 0.8926 0.0
C803 C 0.52735 0.13041 0.9062 0.0
C804 C 0.52375 0.11213 0.95362 0.0
H805 H 0.54527 0.14512 0.80542 0.0
H806 H 0.51616 0.1427 0.90669 0.0
C807 C 0.53896 0.09689 0.95373 0.0
C808 C 0.18238 0.74772 0.57384 0.0
C809 C 0.2008 0.73952 0.60525 0.0
H810 H 0.16813 0.77097 0.49631 0.0
C811 C 0.21934 0.75 0.58772 0.0
H812 H 0.16784 0.7403 0.58807 0.0
C813 C 0.21959 0.76765 0.53506 0.0
C814 C 0.20125 0.77519 0.49955 0.0
H815 H 0.23382 0.74418 0.61212 0.0
H816 H 0.2342 0.77462 0.51813 0.0
C817 C 0.18259 0.76547 0.52228 0.0
C818 C 0.52698 0.91329 0.50175 0.0
C819 C 0.51162 0.89819 0.50105 0.0
H820 H 0.55428 0.92403 0.56372 0.0
C821 C 0.51496 0.87971 0.5472 0.0
H822 H 0.52526 0.92739 0.46453 0.0
C823 C 0.53187 0.87764 0.60283 0.0
C824 C 0.5455 0.89409 0.61342 0.0
H825 H 0.5037 0.8675 0.54601 0.0
H826 H 0.53264 0.86438 0.64597 0.0
C827 C 0.54392 0.91114 0.5568 0.0
C828 C 0.3482 0.28312 0.70932 0.0
C829 C 0.3652 0.27005 0.70022 0.0
H830 H 0.33489 0.30799 0.78094 0.0
C831 C 0.38379 0.27548 0.74092 0.0
H832 H 0.33386 0.27978 0.67665 0.0
C833 C 0.38447 0.29194 0.79959 0.0
C834 C 0.36652 0.303 0.81874 0.0
H835 H 0.39739 0.26607 0.73324 0.0
H836 H 0.39822 0.29417 0.83815 0.0
C837 C 0.34892 0.29959 0.76761 0.0
C838 C 1.00279 0.14223 0.03503 0.0
C839 C 1.0054 0.12434 0.98475 0.0
H840 H 0.98552 0.15678 0.1379 0.0
C841 C 0.98939 0.10997 0.98194 0.0
H842 H 0.0147 0.15381 0.03678 0.0
C843 C 0.97232 0.1121 0.03708 0.0
C844 C 0.97134 0.12826 0.09804 0.0
H845 H 0.99066 0.09639 0.94137 0.0
H846 H 0.9613 0.09966 0.04038 0.0
C847 C 0.98581 0.14419 0.09151 0.0
C848 C 0.84257 0.73176 0.77857 0.0
C849 C 0.85873 0.74596 0.7739 0.0
H850 H 0.83042 0.70526 0.84366 0.0
C851 C 0.87723 0.74143 0.81746 0.0
H852 H 0.82839 0.73441 0.74341 0.0
C853 C 0.87849 0.72451 0.87413 0.0
C854 C 0.86124 0.71199 0.88814 0.0
H855 H 0.8902 0.75179 0.8133 0.0
H856 H 0.892 0.72282 0.9148 0.0
C857 C 0.84392 0.71477 0.83442 0.0
C858 C 0.03579 0.13908 0.58322 0.0
C859 C 0.0487 0.12208 0.59525 0.0
H860 H 1.00804 0.15031 0.5259 0.0
C861 C 0.04608 0.10478 0.54147 0.0
H862 H 0.03736 0.15254 0.62425 0.0
C863 C 0.02895 0.10319 0.48728 0.0
C864 C 0.01438 0.11905 0.48479 0.0
H865 H 0.05586 0.09147 0.54952 0.0
H866 H 0.02648 0.08902 0.45194 0.0
C867 C 0.01868 0.13755 0.52851 0.0
C868 C 0.68399 0.2559 0.53274 0.0
C869 C 0.7016 0.26679 0.55641 0.0
H870 H 0.67174 0.23047 0.46276 0.0
C871 C 0.72107 0.25882 0.53392 0.0
H872 H 0.66885 0.26133 0.5513 0.0
C873 C 0.72281 0.24106 0.48296 0.0
C874 C 0.70509 0.23092 0.45448 0.0
H875 H 0.73497 0.26676 0.55266 0.0
H876 H 0.73789 0.23613 0.46115 0.0
C877 C 0.68573 0.23803 0.48323 0.0
C878 C 0.4669 0.90627 0.05439 0.0
C879 C 0.46607 0.89025 0.11664 0.0
H880 H 0.48502 0.92175 0.95668 0.0
C881 C 0.48034 0.87416 0.10992 0.0
H882 H 0.45601 0.91882 0.05788 0.0
C883 C 0.49714 0.87593 0.05229 0.0
C884 C 0.49974 0.89376 0.00091 0.0
H885 H 0.48015 0.86167 0.15724 0.0
H886 H 0.50899 0.86427 0.05419 0.0
C887 C 0.48379 0.90821 -0.002 0.0
C888 C 0.83476 0.26682 0.39239 0.0
C889 C 0.81595 0.27492 0.36499 0.0
H890 H 0.85004 0.24355 0.46606 0.0
C891 C 0.79771 0.2642 0.38535 0.0
H892 H 0.84908 0.27441 0.3757 0.0
C893 C 0.79819 0.24644 0.43733 0.0
C894 C 0.81695 0.23903 0.46912 0.0
H895 H 0.78295 0.26994 0.36387 0.0
H896 H 0.78383 0.23931 0.45692 0.0
C897 C 0.83527 0.24895 0.44306 0.0
C898 C 0.47979 0.09899 0.39725 0.0
C899 C 0.47875 0.1162 0.3412 0.0
H900 H 0.4979 0.08197 0.48903 0.0
C901 C 0.49291 0.13217 0.3524 0.0
H902 H 0.46898 0.08647 0.39008 0.0
C903 C 0.50971 0.12946 0.40816 0.0
C904 C 0.51245 0.1108 0.45368 0.0
H905 H 0.49257 0.14555 0.30985 0.0
H906 H 0.52135 0.14131 0.40991 0.0
C907 C 0.49664 0.09618 0.45224 0.0
C908 C 0.65328 0.73629 0.27232 0.0
C909 C 0.63959 0.7529 0.27123 0.0
H910 H 0.6625 0.70842 0.2102 0.0
C911 C 0.62148 0.75137 0.2217 0.0
H912 H 0.66701 0.73672 0.3122 0.0
C913 C 0.6188 0.73499 0.16357 0.0
C914 C 0.63427 0.72011 0.1545 0.0
H915 H 0.61039 0.76376 0.22123 0.0
H916 H 0.60619 0.73563 0.11745 0.0
C917 C 0.65044 0.71982 0.21541 0.0
C918 C 0.05447 0.91686 0.92056 0.0
C919 C 0.05633 0.9 0.86345 0.0
H920 H 0.03525 0.93293 0.01195 0.0
C921 C 0.04248 0.88363 0.87263 0.0
H922 H 0.06502 0.92967 0.91514 0.0
C923 C 0.02527 0.88559 0.92764 0.0
C924 C 0.02176 0.90393 0.974 0.0
H925 H 0.04345 0.8705 0.82928 0.0
H926 H 0.0139 0.87345 0.92807 0.0
C927 C 0.03715 0.91897 0.97429 0.0
C928 C 0.66224 0.79801 0.70687 0.0
C929 C 0.64492 0.80115 0.65362 0.0
H930 H 0.67723 0.77818 0.79884 0.0
C931 C 0.62709 0.78971 0.67086 0.0
H932 H 0.67617 0.80673 0.6951 0.0
C933 C 0.62778 0.7731 0.72936 0.0
C934 C 0.64625 0.76788 0.7717 0.0
H935 H 0.61354 0.79174 0.63072 0.0
H936 H 0.61436 0.76337 0.73536 0.0
C937 C 0.663 0.78135 0.76475 0.0
C938 C 0.46896 0.41062 0.91276 0.0
C939 C 0.46745 0.39356 0.8568 0.0
H940 H 0.4875 0.42682 0.00503 0.0
C941 C 0.48088 0.37699 0.86913 0.0
H942 H 0.45873 0.42359 0.90454 0.0
C943 C 0.49765 0.37898 0.92547 0.0
C944 C 0.50102 0.39749 0.97065 0.0
H945 H 0.48013 0.36371 0.82659 0.0
H946 H 0.50882 0.36669 0.92777 0.0
C947 C 0.48576 0.41269 0.96858 0.0
C948 C 0.79577 0.28675 0.93698 0.0
C949 C 0.81362 0.29642 0.96706 0.0
H950 H 0.78323 0.26137 0.86648 0.0
C951 C 0.83291 0.28864 0.94089 0.0
H952 H 0.78072 0.2922 0.95673 0.0
C953 C 0.83438 0.27065 0.89197 0.0
C954 C 0.81659 0.2603 0.86639 0.0
H955 H 0.847 0.2958 0.96259 0.0
H956 H 0.84945 0.26475 0.87513 0.0
C957 C 0.79726 0.26888 0.88668 0.0
C958 C 0.99274 0.54609 0.21051 0.0
C959 C 0.98576 0.56463 0.24617 0.0
H960 H 0.01579 0.53113 0.13312 0.0
C961 C 0.99602 0.58297 0.22318 0.0
H962 H 0.98534 0.53172 0.22761 0.0
C963 C 0.01377 0.58261 0.17132 0.0
C964 C 0.02144 0.56396 0.13988 0.0
H965 H 0.99095 0.59758 0.24924 0.0
H966 H 0.02163 0.5969 0.15697 0.0
C967 C 0.01039 0.54578 0.15756 0.0
C968 C 0.68358 0.28036 0.98353 0.0
C969 C 0.70199 0.28951 0.95367 0.0
H970 H 0.66951 0.25539 0.05306 0.0
C971 C 0.72078 0.28138 0.98175 0.0
H972 H 0.66881 0.28636 0.9634 0.0
C973 C 0.72111 0.26356 0.03341 0.0
C974 C 0.70268 0.25353 0.0569 0.0
H975 H 0.73518 0.28792 0.95906 0.0
H976 H 0.73584 0.25718 0.05183 0.0
C977 C 0.68393 0.26243 0.03367 0.0
C978 C 0.98252 0.47178 0.25738 0.0
C979 C 0.97265 0.45393 0.22856 0.0
H980 H 1.00817 0.48433 0.32618 0.0
C981 C 0.98037 0.43469 0.25519 0.0
H982 H 0.97712 0.48679 0.23723 0.0
C983 C 0.99848 0.43325 0.30315 0.0
C984 C 0.00902 0.45102 0.32743 0.0
H985 H 0.97306 0.4206 0.23448 0.0
H986 H 1.00432 0.41821 0.32037 0.0
C987 C 1.00051 0.47033 0.30685 0.0
C988 C 0.84795 0.77148 0.27378 0.0
C989 C 0.86203 0.75519 0.27587 0.0
H990 H 0.83874 0.7999 0.33111 0.0
C991 C 0.88045 0.75761 0.32264 0.0
H992 H 0.83399 0.77041 0.23567 0.0
C993 C 0.8833 0.7747 0.37662 0.0
C994 C 0.86769 0.78944 0.38453 0.0
H995 H 0.89189 0.74554 0.32348 0.0
H996 H 0.89634 0.77487 0.42058 0.0
C997 C 0.85094 0.78864 0.32662 0.0
C998 C 0.48709 0.6297 0.55778 0.0
C999 C 0.49049 0.61142 0.51082 0.0
H1000 H 0.46961 0.6444 0.6594 0.0
C1001 C 0.4752 0.59627 0.51179 0.0
H1002 H 0.49835 0.64193 0.55642 0.0
C1003 C 0.45828 0.59813 0.56807 0.0
C1004 C 0.45684 0.61477 0.62653 0.0
H1005 H 0.47701 0.58235 0.4738 0.0
H1006 H 0.44799 0.58515 0.57503 0.0
C1007 C 0.4703 0.6314 0.61526 0.0
C1008 C 0.39472 0.23724 0.31033 0.0
C1009 C 0.37925 0.22231 0.31843 0.0
H1010 H 0.40319 0.26621 0.25348 0.0
C1011 C 0.36335 0.22208 0.25623 0.0
H1012 H 0.40715 0.23782 0.35734 0.0
C1013 C 0.36062 0.2387 0.19945 0.0
C1014 C 0.37422 0.25536 0.20171 0.0
H1015 H 0.35132 0.21062 0.26056 0.0
H1016 H 0.34702 0.23922 0.15878 0.0
C1017 C 0.39219 0.25376 0.25215 0.0
C1018 C 0.52386 0.63109 0.11183 0.0
C1019 C 0.5378 0.61499 0.12524 0.0
H1020 H 0.49571 0.64036 0.05181 0.0
C1021 C 0.53693 0.59777 0.06983 0.0
H1022 H 0.5241 0.6445 0.15373 0.0
C1023 C 0.52029 0.59502 0.0137 0.0
C1024 C 0.50457 0.60972 0.01046 0.0
H1025 H 0.54759 0.58517 0.07863 0.0
H1026 H 0.51905 0.58076 0.97776 0.0
C1027 C 0.50727 0.62844 0.05495 0.0
C1028 C 0.22136 0.74556 0.08133 0.0
C1029 C 0.20249 0.75511 0.10145 0.0
H1030 H 0.23667 0.72126 0.01228 0.0
C1031 C 0.18419 0.7456 0.07642 0.0
H1032 H 0.23575 0.75241 0.10121 0.0
C1033 C 0.18473 0.72745 0.02843 0.0
C1034 C 0.20359 0.71863 0.00254 0.0
H1035 H 0.16944 0.75227 0.09322 0.0
H1036 H 0.17028 0.72093 0.00731 0.0
C1037 C 0.22192 0.72751 0.03185 0.0
C1038 C 0.01965 0.43109 0.74922 0.0
C1039 C 0.02991 0.44932 0.72488 0.0
H1040 H 0.99402 0.41742 0.81625 0.0
C1041 C 0.02293 0.46801 0.75919 0.0
H1042 H 0.02471 0.41637 0.72424 0.0
C1043 C 1.00527 0.46854 0.81207 0.0
C1044 C 0.99421 0.45042 0.83092 0.0
H1045 H 0.03032 0.48232 0.74099 0.0
H1046 H 0.99986 0.48327 0.83546 0.0
C1047 C 1.00188 0.43165 0.80091 0.0
C1048 C 0.33238 0.73459 -0.01248 0.0
C1049 C 0.31341 0.72607 0.01412 0.0
H1050 H 0.34792 0.75883 0.91871 0.0
C1051 C 0.29521 0.73452 0.98121 0.0
H1052 H 0.34672 0.72833 0.01145 0.0
C1053 C 0.29597 0.75207 0.928 0.0
C1054 C 0.31491 0.76151 0.90739 0.0
H1055 H 0.2804 0.72847 0.00122 0.0
H1056 H 0.28163 0.75872 0.90611 0.0
C1057 C 0.33311 0.75224 0.93545 0.0
C1058 C 0.01498 0.54334 0.6645 0.0
C1059 C 1.00618 0.56252 0.64405 0.0
H1060 H 0.03865 0.52721 0.7338 0.0
C1061 C 0.01645 0.58044 0.66843 0.0
H1062 H 1.00752 0.52923 0.64509 0.0
C1063 C 0.0346 0.57926 0.71623 0.0
C1064 C 0.04264 0.56014 0.74262 0.0
H1065 H 0.01038 0.5954 0.65131 0.0
H1066 H 0.04171 0.59346 0.73689 0.0
C1067 C 0.03301 0.54215 0.71385 0.0
C1068 C 0.17233 0.24367 0.71079 0.0
C1069 C 0.15551 0.25707 0.71752 0.0
H1070 H 0.18545 0.21814 0.64289 0.0
C1071 C 0.137 0.25175 0.67597 0.0
H1072 H 0.1866 0.24692 0.74422 0.0
C1073 C 0.13623 0.23494 0.6192 0.0
C1074 C 0.15402 0.2234 0.60272 0.0
H1075 H 0.12354 0.26142 0.68189 0.0
H1076 H 0.12256 0.23269 0.58009 0.0
C1077 C 0.17152 0.22688 0.65431 0.0
C1078 C 0.51671 0.37455 0.41786 0.0
C1079 C 0.51449 0.39225 0.46974 0.0
H1080 H 0.53326 0.36041 0.3119 0.0
C1081 C 0.53072 0.40637 0.47277 0.0
H1082 H 0.50463 0.36314 0.41584 0.0
C1083 C 0.54749 0.40435 0.41584 0.0
C1084 C 0.5479 0.38858 0.35293 0.0
H1085 H 0.52977 0.41979 0.51445 0.0
H1086 H 0.55857 0.41673 0.41231 0.0
C1087 C 0.53339 0.3727 0.35971 0.0
loop_
_geom_bond_atom_site_label_1
_geom_bond_atom_site_label_2
_geom_bond_distance
_geom_bond_site_symmetry_2
_ccdc_geom_bond_type
O0 Cd1 2.223 . S
O0 C8 1.315 . S
Cd1 O0 2.223 . S
Cd1 O4 2.297 . S
Cd1 O5 2.439 . S
Cd1 O11 2.240 . S
Cd2 O3 2.240 . S
Cd2 O10 2.223 . S
Cd2 O12 2.297 . S
Cd2 O13 2.439 . S
O3 Cd2 2.240 . S
O3 C8 1.279 . S
O4 Cd1 2.297 . S
O4 C6 1.247 . S
O5 Cd1 2.439 . S
O5 C6 1.208 . S
C6 O4 1.247 . S
C6 O5 1.208 . S
C7 O12 1.247 . S
C7 O13 1.208 . S
C8 O0 1.315 . S
C8 O3 1.279 . S
C9 O10 1.315 . S
C9 O11 1.279 . S
O10 Cd2 2.223 . S
O10 C9 1.315 . S
O11 Cd1 2.240 . S
O11 C9 1.279 . S
O12 Cd2 2.297 . S
O12 C7 1.247 . S
O13 Cd2 2.439 . S
O13 C7 1.208 . S
O14 Cd15 2.223 . S
O14 C22 1.315 . S
Cd15 O14 2.223 . S
Cd15 O18 2.297 . S
Cd15 O19 2.439 . S
Cd15 O25 2.240 . S
Cd16 O17 2.240 . S
Cd16 O24 2.223 . S
Cd16 O26 2.297 . S
Cd16 O27 2.439 . S
O17 Cd16 2.240 . S
O17 C22 1.279 . S
O18 Cd15 2.297 . S
O18 C20 1.247 . S
O19 Cd15 2.439 . S
O19 C20 1.208 . S
C20 O18 1.247 . S
C20 O19 1.208 . S
C21 O26 1.247 . S
C21 O27 1.208 . S
C22 O14 1.315 . S
C22 O17 1.279 . S
C23 O24 1.315 . S
C23 O25 1.279 . S
O24 Cd16 2.223 . S
O24 C23 1.315 . S
O25 Cd15 2.240 . S
O25 C23 1.279 . S
O26 Cd16 2.297 . S
O26 C21 1.247 . S
O27 Cd16 2.439 . S
O27 C21 1.208 . S
O28 Cd29 2.223 . S
O28 C36 1.315 . S
Cd29 O28 2.223 . S
Cd29 O32 2.297 . S
Cd29 O33 2.439 . S
Cd29 O39 2.240 . S
Cd30 O31 2.240 . S
Cd30 O38 2.223 . S
Cd30 O40 2.297 . S
Cd30 O41 2.439 . S
O31 Cd30 2.240 . S
O31 C36 1.279 . S
O32 Cd29 2.297 . S
O32 C34 1.247 . S
O33 Cd29 2.439 . S
O33 C34 1.208 . S
C34 O32 1.247 . S
C34 O33 1.208 . S
C35 O40 1.247 . S
C35 O41 1.208 . S
C36 O28 1.315 . S
C36 O31 1.279 . S
C37 O38 1.315 . S
C37 O39 1.279 . S
O38 Cd30 2.223 . S
O38 C37 1.315 . S
O39 Cd29 2.240 . S
O39 C37 1.279 . S
O40 Cd30 2.297 . S
O40 C35 1.247 . S
O41 Cd30 2.439 . S
O41 C35 1.208 . S
O42 Cd43 2.223 . S
O42 C50 1.315 1_554 S
Cd43 O42 2.223 . S
Cd43 O46 2.297 1_554 S
Cd43 O47 2.439 . S
Cd43 O53 2.240 . S
Cd44 O45 2.240 1_554 S
Cd44 O52 2.223 . S
Cd44 O54 2.297 . S
Cd44 O55 2.439 . S
O45 Cd44 2.240 1_556 S
O45 C50 1.279 . S
O46 Cd43 2.297 1_556 S
O46 C48 1.247 . S
O47 Cd43 2.439 . S
O47 C48 1.208 1_554 S
C48 O46 1.247 . S
C48 O47 1.208 1_556 S
C49 O54 1.247 . S
C49 O55 1.208 . S
C50 O42 1.315 1_556 S
C50 O45 1.279 . S
C51 O52 1.315 . S
C51 O53 1.279 . S
O52 Cd44 2.223 . S
O52 C51 1.315 . S
O53 Cd43 2.240 . S
O53 C51 1.279 . S
O54 Cd44 2.297 . S
O54 C49 1.247 . S
O55 Cd44 2.439 . S
O55 C49 1.208 . S
O56 Cd57 2.223 . S
O56 C64 1.315 . S
Cd57 O56 2.223 . S
Cd57 O60 2.297 . S
Cd57 O61 2.439 . S
Cd57 O67 2.240 . S
Cd58 O59 2.240 . S
Cd58 O66 2.223 . S
Cd58 O68 2.297 . S
Cd58 O69 2.439 . S
O59 Cd58 2.240 . S
O59 C64 1.279 . S
O60 Cd57 2.297 . S
O60 C62 1.247 . S
O61 Cd57 2.439 . S
O61 C62 1.208 . S
C62 O60 1.247 . S
C62 O61 1.208 . S
C63 O68 1.247 . S
C63 O69 1.208 . S
C64 O56 1.315 . S
C64 O59 1.279 . S
C65 O66 1.315 . S
C65 O67 1.279 . S
O66 Cd58 2.223 . S
O66 C65 1.315 . S
O67 Cd57 2.240 . S
O67 C65 1.279 . S
O68 Cd58 2.297 . S
O68 C63 1.247 . S
O69 Cd58 2.439 . S
O69 C63 1.208 . S
O70 Cd71 2.223 . S
O70 C78 1.315 . S
Cd71 O70 2.223 . S
Cd71 O74 2.297 . S
Cd71 O75 2.439 . S
Cd71 O81 2.240 . S
Cd72 O73 2.240 . S
Cd72 O80 2.223 . S
Cd72 O82 2.297 . S
Cd72 O83 2.439 . S
O73 Cd72 2.240 . S
O73 C78 1.279 . S
O74 Cd71 2.297 . S
O74 C76 1.247 . S
O75 Cd71 2.439 . S
O75 C76 1.208 . S
C76 O74 1.247 . S
C76 O75 1.208 . S
C77 O82 1.247 . S
C77 O83 1.208 . S
C78 O70 1.315 . S
C78 O73 1.279 . S
C79 O80 1.315 . S
C79 O81 1.279 . S
O80 Cd72 2.223 . S
O80 C79 1.315 . S
O81 Cd71 2.240 . S
O81 C79 1.279 . S
O82 Cd72 2.297 . S
O82 C77 1.247 . S
O83 Cd72 2.439 . S
O83 C77 1.208 . S
O84 Cd85 2.223 . S
O84 C92 1.315 . S
Cd85 O84 2.223 . S
Cd85 O88 2.297 . S
Cd85 O89 2.439 . S
Cd85 O95 2.240 . S
Cd86 O87 2.240 . S
Cd86 O94 2.223 . S
Cd86 O96 2.297 . S
Cd86 O97 2.439 . S
O87 Cd86 2.240 . S
O87 C92 1.279 . S
O88 Cd85 2.297 . S
O88 C90 1.247 . S
O89 Cd85 2.439 . S
O89 C90 1.208 . S
C90 O88 1.247 . S
C90 O89 1.208 . S
C91 O96 1.247 . S
C91 O97 1.208 . S
C92 O84 1.315 . S
C92 O87 1.279 . S
C93 O94 1.315 . S
C93 O95 1.279 . S
O94 Cd86 2.223 . S
O94 C93 1.315 . S
O95 Cd85 2.240 . S
O95 C93 1.279 . S
O96 Cd86 2.297 . S
O96 C91 1.247 . S
O97 Cd86 2.439 . S
O97 C91 1.208 . S
O98 Cd99 2.223 . S
O98 C106 1.315 1_556 S
Cd99 O98 2.223 . S
Cd99 O102 2.297 1_556 S
Cd99 O103 2.439 . S
Cd99 O109 2.240 . S
Cd100 O101 2.240 1_556 S
Cd100 O108 2.223 . S
Cd100 O110 2.297 . S
Cd100 O111 2.439 . S
O101 Cd100 2.240 1_554 S
O101 C106 1.279 . S
O102 Cd99 2.297 1_554 S
O102 C104 1.247 . S
O103 Cd99 2.439 . S
O103 C104 1.208 1_556 S
C104 O102 1.247 . S
C104 O103 1.208 1_554 S
C105 O110 1.247 . S
C105 O111 1.208 . S
C106 O98 1.315 1_554 S
C106 O101 1.279 . S
C107 O108 1.315 . S
C107 O109 1.279 . S
O108 Cd100 2.223 . S
O108 C107 1.315 . S
O109 Cd99 2.240 . S
O109 C107 1.279 . S
O110 Cd100 2.297 . S
O110 C105 1.247 . S
O111 Cd100 2.439 . S
O111 C105 1.208 . S
O112 Cd113 2.223 . S
O112 C120 1.315 . S
Cd113 O112 2.223 . S
Cd113 O116 2.297 . S
Cd113 O117 2.439 . S
Cd113 O123 2.240 . S
Cd114 O115 2.240 . S
Cd114 O122 2.223 . S
Cd114 O124 2.297 . S
Cd114 O125 2.439 . S
O115 Cd114 2.240 . S
O115 C120 1.279 . S
O116 Cd113 2.297 . S
O116 C118 1.247 . S
O117 Cd113 2.439 . S
O117 C118 1.208 . S
C118 O116 1.247 . S
C118 O117 1.208 . S
C119 O124 1.247 . S
C119 O125 1.208 . S
C120 O112 1.315 . S
C120 O115 1.279 . S
C121 O122 1.315 . S
C121 O123 1.279 . S
O122 Cd114 2.223 . S
O122 C121 1.315 . S
O123 Cd113 2.240 . S
O123 C121 1.279 . S
O124 Cd114 2.297 . S
O124 C119 1.247 . S
O125 Cd114 2.439 . S
O125 C119 1.208 . S
O126 Cd127 2.223 . S
O126 C134 1.315 . S
Cd127 O126 2.223 . S
Cd127 O130 2.297 . S
Cd127 O131 2.439 . S
Cd127 O137 2.240 . S
Cd128 O129 2.240 . S
Cd128 O136 2.223 . S
Cd128 O138 2.297 . S
Cd128 O139 2.439 . S
O129 Cd128 2.240 . S
O129 C134 1.279 . S
O130 Cd127 2.297 . S
O130 C132 1.247 . S
O131 Cd127 2.439 . S
O131 C132 1.208 . S
C132 O130 1.247 . S
C132 O131 1.208 . S
C133 O138 1.247 . S
C133 O139 1.208 . S
C134 O126 1.315 . S
C134 O129 1.279 . S
C135 O136 1.315 . S
C135 O137 1.279 . S
O136 Cd128 2.223 . S
O136 C135 1.315 . S
O137 Cd127 2.240 . S
O137 C135 1.279 . S
O138 Cd128 2.297 . S
O138 C133 1.247 . S
O139 Cd128 2.439 . S
O139 C133 1.208 . S
O140 Cd141 2.223 . S
O140 C148 1.315 . S
Cd141 O140 2.223 . S
Cd141 O144 2.297 . S
Cd141 O145 2.439 . S
Cd141 O151 2.240 . S
Cd142 O143 2.240 . S
Cd142 O150 2.223 . S
Cd142 O152 2.297 . S
Cd142 O153 2.439 . S
O143 Cd142 2.240 . S
O143 C148 1.279 . S
O144 Cd141 2.297 . S
O144 C146 1.247 . S
O145 Cd141 2.439 . S
O145 C146 1.208 . S
C146 O144 1.247 . S
C146 O145 1.208 . S
C147 O152 1.247 . S
C147 O153 1.208 . S
C148 O140 1.315 . S
C148 O143 1.279 . S
C149 O150 1.315 . S
C149 O151 1.279 . S
O150 Cd142 2.223 . S
O150 C149 1.315 . S
O151 Cd141 2.240 . S
O151 C149 1.279 . S
O152 Cd142 2.297 . S
O152 C147 1.247 . S
O153 Cd142 2.439 . S
O153 C147 1.208 . S
O154 Cd155 2.223 . S
O154 C162 1.315 1_556 S
Cd155 O154 2.223 . S
Cd155 O158 2.297 1_556 S
Cd155 O159 2.439 . S
Cd155 O165 2.240 . S
Cd156 O157 2.240 1_556 S
Cd156 O164 2.223 . S
Cd156 O166 2.297 . S
Cd156 O167 2.439 . S
O157 Cd156 2.240 1_554 S
O157 C162 1.279 . S
O158 Cd155 2.297 1_554 S
O158 C160 1.247 . S
O159 Cd155 2.439 . S
O159 C160 1.208 1_556 S
C160 O158 1.247 . S
C160 O159 1.208 1_554 S
C161 O166 1.247 . S
C161 O167 1.208 . S
C162 O154 1.315 1_554 S
C162 O157 1.279 . S
C163 O164 1.315 . S
C163 O165 1.279 . S
O164 Cd156 2.223 . S
O164 C163 1.315 . S
O165 Cd155 2.240 . S
O165 C163 1.279 . S
O166 Cd156 2.297 . S
O166 C161 1.247 . S
O167 Cd156 2.439 . S
O167 C161 1.208 . S
O168 Cd169 2.223 . S
O168 C176 1.315 . S
Cd169 O168 2.223 . S
Cd169 O172 2.297 . S
Cd169 O173 2.439 . S
Cd169 O179 2.240 . S
Cd170 O171 2.240 . S
Cd170 O178 2.223 . S
Cd170 O180 2.297 . S
Cd170 O181 2.439 . S
O171 Cd170 2.240 . S
O171 C176 1.279 . S
O172 Cd169 2.297 . S
O172 C174 1.247 . S
O173 Cd169 2.439 . S
O173 C174 1.208 . S
C174 O172 1.247 . S
C174 O173 1.208 . S
C175 O180 1.247 . S
C175 O181 1.208 . S
C176 O168 1.315 . S
C176 O171 1.279 . S
C177 O178 1.315 . S
C177 O179 1.279 . S
O178 Cd170 2.223 . S
O178 C177 1.315 . S
O179 Cd169 2.240 . S
O179 C177 1.279 . S
O180 Cd170 2.297 . S
O180 C175 1.247 . S
O181 Cd170 2.439 . S
O181 C175 1.208 . S
O182 Cd183 2.223 . S
O182 C190 1.315 . S
Cd183 O182 2.223 . S
Cd183 O186 2.297 . S
Cd183 O187 2.439 . S
Cd183 O193 2.240 . S
Cd184 O185 2.240 . S
Cd184 O192 2.223 . S
Cd184 O194 2.297 . S
Cd184 O195 2.439 . S
O185 Cd184 2.240 . S
O185 C190 1.279 . S
O186 Cd183 2.297 . S
O186 C188 1.247 . S
O187 Cd183 2.439 . S
O187 C188 1.208 . S
C188 O186 1.247 . S
C188 O187 1.208 . S
C189 O194 1.247 . S
C189 O195 1.208 . S
C190 O182 1.315 . S
C190 O185 1.279 . S
C191 O192 1.315 . S
C191 O193 1.279 . S
O192 Cd184 2.223 . S
O192 C191 1.315 . S
O193 Cd183 2.240 . S
O193 C191 1.279 . S
O194 Cd184 2.297 . S
O194 C189 1.247 . S
O195 Cd184 2.439 . S
O195 C189 1.208 . S
O196 Cd197 2.223 . S
O196 C204 1.315 . S
Cd197 O196 2.223 . S
Cd197 O200 2.297 . S
Cd197 O201 2.439 . S
Cd197 O207 2.240 . S
Cd198 O199 2.240 . S
Cd198 O206 2.223 . S
Cd198 O208 2.297 . S
Cd198 O209 2.439 . S
O199 Cd198 2.240 . S
O199 C204 1.279 . S
O200 Cd197 2.297 . S
O200 C202 1.247 . S
O201 Cd197 2.439 . S
O201 C202 1.208 . S
C202 O200 1.247 . S
C202 O201 1.208 . S
C203 O208 1.247 . S
C203 O209 1.208 . S
C204 O196 1.315 . S
C204 O199 1.279 . S
C205 O206 1.315 . S
C205 O207 1.279 . S
O206 Cd198 2.223 . S
O206 C205 1.315 . S
O207 Cd197 2.240 . S
O207 C205 1.279 . S
O208 Cd198 2.297 . S
O208 C203 1.247 . S
O209 Cd198 2.439 . S
O209 C203 1.208 . S
O210 Cd211 2.223 . S
O210 C218 1.315 1_554 S
Cd211 O210 2.223 . S
Cd211 O214 2.297 1_554 S
Cd211 O215 2.439 . S
Cd211 O221 2.240 . S
Cd212 O213 2.240 1_554 S
Cd212 O220 2.223 . S
Cd212 O222 2.297 . S
Cd212 O223 2.439 . S
O213 Cd212 2.240 1_556 S
O213 C218 1.279 . S
O214 Cd211 2.297 1_556 S
O214 C216 1.247 . S
O215 Cd211 2.439 . S
O215 C216 1.208 1_554 S
C216 O214 1.247 . S
C216 O215 1.208 1_556 S
C217 O222 1.247 . S
C217 O223 1.208 . S
C218 O210 1.315 1_556 S
C218 O213 1.279 . S
C219 O220 1.315 . S
C219 O221 1.279 . S
O220 Cd212 2.223 . S
O220 C219 1.315 . S
O221 Cd211 2.240 . S
O221 C219 1.279 . S
O222 Cd212 2.297 . S
O222 C217 1.247 . S
O223 Cd212 2.439 . S
O223 C217 1.208 . S
O224 Cd225 2.223 . S
O224 C232 1.315 . S
Cd225 O224 2.223 . S
Cd225 O228 2.297 . S
Cd225 O229 2.439 . S
Cd225 O235 2.240 . S
Cd226 O227 2.240 . S
Cd226 O234 2.223 . S
Cd226 O236 2.297 . S
Cd226 O237 2.439 . S
O227 Cd226 2.240 . S
O227 C232 1.279 . S
O228 Cd225 2.297 . S
O228 C230 1.247 . S
O229 Cd225 2.439 . S
O229 C230 1.208 . S
C230 O228 1.247 . S
C230 O229 1.208 . S
C231 O236 1.247 . S
C231 O237 1.208 . S
C232 O224 1.315 . S
C232 O227 1.279 . S
C233 O234 1.315 . S
C233 O235 1.279 . S
O234 Cd226 2.223 . S
O234 C233 1.315 . S
O235 Cd225 2.240 . S
O235 C233 1.279 . S
O236 Cd226 2.297 . S
O236 C231 1.247 . S
O237 Cd226 2.439 . S
O237 C231 1.208 . S
O238 Cd239 2.223 . S
O238 C246 1.315 1_554 S
Cd239 O238 2.223 . S
Cd239 O242 2.297 1_554 S
Cd239 O243 2.439 . S
Cd239 O249 2.240 . S
Cd240 O241 2.240 1_554 S
Cd240 O248 2.223 . S
Cd240 O250 2.297 . S
Cd240 O251 2.439 . S
O241 Cd240 2.240 1_556 S
O241 C246 1.279 . S
O242 Cd239 2.297 1_556 S
O242 C244 1.247 . S
O243 Cd239 2.439 . S
O243 C244 1.208 1_554 S
C244 O242 1.247 . S
C244 O243 1.208 1_556 S
C245 O250 1.247 . S
C245 O251 1.208 . S
C246 O238 1.315 1_556 S
C246 O241 1.279 . S
C247 O248 1.315 . S
C247 O249 1.279 . S
O248 Cd240 2.223 . S
O248 C247 1.315 . S
O249 Cd239 2.240 . S
O249 C247 1.279 . S
O250 Cd240 2.297 . S
O250 C245 1.247 . S
O251 Cd240 2.439 . S
O251 C245 1.208 . S
O252 Cd253 2.223 . S
O252 C260 1.315 . S
Cd253 O252 2.223 . S
Cd253 O256 2.297 . S
Cd253 O257 2.439 . S
Cd253 O263 2.240 . S
Cd254 O255 2.240 . S
Cd254 O262 2.223 . S
Cd254 O264 2.297 . S
Cd254 O265 2.439 . S
O255 Cd254 2.240 . S
O255 C260 1.279 . S
O256 Cd253 2.297 . S
O256 C258 1.247 . S
O257 Cd253 2.439 . S
O257 C258 1.208 . S
C258 O256 1.247 . S
C258 O257 1.208 . S
C259 O264 1.247 . S
C259 O265 1.208 . S
C260 O252 1.315 . S
C260 O255 1.279 . S
C261 O262 1.315 . S
C261 O263 1.279 . S
O262 Cd254 2.223 . S
O262 C261 1.315 . S
O263 Cd253 2.240 . S
O263 C261 1.279 . S
O264 Cd254 2.297 . S
O264 C259 1.247 . S
O265 Cd254 2.439 . S
O265 C259 1.208 . S
O266 Cd267 2.223 . S
O266 C274 1.315 . S
Cd267 O266 2.223 . S
Cd267 O270 2.297 . S
Cd267 O271 2.439 . S
Cd267 O277 2.240 . S
Cd268 O269 2.240 . S
Cd268 O276 2.223 . S
Cd268 O278 2.297 . S
Cd268 O279 2.439 . S
O269 Cd268 2.240 . S
O269 C274 1.279 . S
O270 Cd267 2.297 . S
O270 C272 1.247 . S
O271 Cd267 2.439 . S
O271 C272 1.208 . S
C272 O270 1.247 . S
C272 O271 1.208 . S
C273 O278 1.247 . S
C273 O279 1.208 . S
C274 O266 1.315 . S
C274 O269 1.279 . S
C275 O276 1.315 . S
C275 O277 1.279 . S
O276 Cd268 2.223 . S
O276 C275 1.315 . S
O277 Cd267 2.240 . S
O277 C275 1.279 . S
O278 Cd268 2.297 . S
O278 C273 1.247 . S
O279 Cd268 2.439 . S
O279 C273 1.208 . S
O280 Cd281 2.223 . S
O280 C288 1.315 . S
Cd281 O280 2.223 . S
Cd281 O284 2.297 . S
Cd281 O285 2.439 . S
Cd281 O291 2.240 . S
Cd282 O283 2.240 . S
Cd282 O290 2.223 . S
Cd282 O292 2.297 . S
Cd282 O293 2.439 . S
O283 Cd282 2.240 . S
O283 C288 1.279 . S
O284 Cd281 2.297 . S
O284 C286 1.247 . S
O285 Cd281 2.439 . S
O285 C286 1.208 . S
C286 O284 1.247 . S
C286 O285 1.208 . S
C287 O292 1.247 . S
C287 O293 1.208 . S
C288 O280 1.315 . S
C288 O283 1.279 . S
C289 O290 1.315 . S
C289 O291 1.279 . S
O290 Cd282 2.223 . S
O290 C289 1.315 . S
O291 Cd281 2.240 . S
O291 C289 1.279 . S
O292 Cd282 2.297 . S
O292 C287 1.247 . S
O293 Cd282 2.439 . S
O293 C287 1.208 . S
O294 Cd295 2.223 . S
O294 C302 1.315 1_556 S
Cd295 O294 2.223 . S
Cd295 O298 2.297 1_556 S
Cd295 O299 2.439 . S
Cd295 O305 2.240 . S
Cd296 O297 2.240 1_556 S
Cd296 O304 2.223 . S
Cd296 O306 2.297 . S
Cd296 O307 2.439 . S
O297 Cd296 2.240 1_554 S
O297 C302 1.279 . S
O298 Cd295 2.297 1_554 S
O298 C300 1.247 . S
O299 Cd295 2.439 . S
O299 C300 1.208 1_556 S
C300 O298 1.247 . S
C300 O299 1.208 1_554 S
C301 O306 1.247 . S
C301 O307 1.208 . S
C302 O294 1.315 1_554 S
C302 O297 1.279 . S
C303 O304 1.315 . S
C303 O305 1.279 . S
O304 Cd296 2.223 . S
O304 C303 1.315 . S
O305 Cd295 2.240 . S
O305 C303 1.279 . S
O306 Cd296 2.297 . S
O306 C301 1.247 . S
O307 Cd296 2.439 . S
O307 C301 1.208 . S
O308 Cd309 2.223 . S
O308 C316 1.315 . S
Cd309 O308 2.223 . S
Cd309 O312 2.297 . S
Cd309 O313 2.439 . S
Cd309 O319 2.240 . S
Cd310 O311 2.240 . S
Cd310 O318 2.223 . S
Cd310 O320 2.297 . S
Cd310 O321 2.439 . S
O311 Cd310 2.240 . S
O311 C316 1.279 . S
O312 Cd309 2.297 . S
O312 C314 1.247 . S
O313 Cd309 2.439 . S
O313 C314 1.208 . S
C314 O312 1.247 . S
C314 O313 1.208 . S
C315 O320 1.247 . S
C315 O321 1.208 . S
C316 O308 1.315 . S
C316 O311 1.279 . S
C317 O318 1.315 . S
C317 O319 1.279 . S
O318 Cd310 2.223 . S
O318 C317 1.315 . S
O319 Cd309 2.240 . S
O319 C317 1.279 . S
O320 Cd310 2.297 . S
O320 C315 1.247 . S
O321 Cd310 2.439 . S
O321 C315 1.208 . S
O322 Cd323 2.223 . S
O322 C330 1.315 . S
Cd323 O322 2.223 . S
Cd323 O326 2.297 . S
Cd323 O327 2.439 . S
Cd323 O333 2.240 . S
Cd324 O325 2.240 . S
Cd324 O332 2.223 . S
Cd324 O334 2.297 . S
Cd324 O335 2.439 . S
O325 Cd324 2.240 . S
O325 C330 1.279 . S
O326 Cd323 2.297 . S
O326 C328 1.247 . S
O327 Cd323 2.439 . S
O327 C328 1.208 . S
C328 O326 1.247 . S
C328 O327 1.208 . S
C329 O334 1.247 . S
C329 O335 1.208 . S
C330 O322 1.315 . S
C330 O325 1.279 . S
C331 O332 1.315 . S
C331 O333 1.279 . S
O332 Cd324 2.223 . S
O332 C331 1.315 . S
O333 Cd323 2.240 . S
O333 C331 1.279 . S
O334 Cd324 2.297 . S
O334 C329 1.247 . S
O335 Cd324 2.439 . S
O335 C329 1.208 . S
O336 Cd337 2.223 . S
O336 C344 1.315 . S
Cd337 O336 2.223 . S
Cd337 O340 2.297 . S
Cd337 O341 2.439 . S
Cd337 O347 2.240 . S
Cd338 O339 2.240 . S
Cd338 O346 2.223 . S
Cd338 O348 2.297 . S
Cd338 O349 2.439 . S
O339 Cd338 2.240 . S
O339 C344 1.279 . S
O340 Cd337 2.297 . S
O340 C342 1.247 . S
O341 Cd337 2.439 . S
O341 C342 1.208 . S
C342 O340 1.247 . S
C342 O341 1.208 . S
C343 O348 1.247 . S
C343 O349 1.208 . S
C344 O336 1.315 . S
C344 O339 1.279 . S
C345 O346 1.315 . S
C345 O347 1.279 . S
O346 Cd338 2.223 . S
O346 C345 1.315 . S
O347 Cd337 2.240 . S
O347 C345 1.279 . S
O348 Cd338 2.297 . S
O348 C343 1.247 . S
O349 Cd338 2.439 . S
O349 C343 1.208 . S
O350 Cd351 2.223 . S
O350 C358 1.315 1_556 S
Cd351 O350 2.223 . S
Cd351 O354 2.297 1_556 S
Cd351 O355 2.439 . S
Cd351 O361 2.240 . S
Cd352 O353 2.240 1_556 S
Cd352 O360 2.223 . S
Cd352 O362 2.297 . S
Cd352 O363 2.439 . S
O353 Cd352 2.240 1_554 S
O353 C358 1.279 . S
O354 Cd351 2.297 1_554 S
O354 C356 1.247 . S
O355 Cd351 2.439 . S
O355 C356 1.208 1_556 S
C356 O354 1.247 . S
C356 O355 1.208 1_554 S
C357 O362 1.247 . S
C357 O363 1.208 . S
C358 O350 1.315 1_554 S
C358 O353 1.279 . S
C359 O360 1.315 . S
C359 O361 1.279 . S
O360 Cd352 2.223 . S
O360 C359 1.315 . S
O361 Cd351 2.240 . S
O361 C359 1.279 . S
O362 Cd352 2.297 . S
O362 C357 1.247 . S
O363 Cd352 2.439 . S
O363 C357 1.208 . S
O364 Cd365 2.223 . S
O364 C372 1.315 . S
Cd365 O364 2.223 . S
Cd365 O368 2.297 . S
Cd365 O369 2.439 . S
Cd365 O375 2.240 . S
Cd366 O367 2.240 . S
Cd366 O374 2.223 . S
Cd366 O376 2.297 . S
Cd366 O377 2.439 . S
O367 Cd366 2.240 . S
O367 C372 1.279 . S
O368 Cd365 2.297 . S
O368 C370 1.247 . S
O369 Cd365 2.439 . S
O369 C370 1.208 . S
C370 O368 1.247 . S
C370 O369 1.208 . S
C371 O376 1.247 . S
C371 O377 1.208 . S
C372 O364 1.315 . S
C372 O367 1.279 . S
C373 O374 1.315 . S
C373 O375 1.279 . S
O374 Cd366 2.223 . S
O374 C373 1.315 . S
O375 Cd365 2.240 . S
O375 C373 1.279 . S
O376 Cd366 2.297 . S
O376 C371 1.247 . S
O377 Cd366 2.439 . S
O377 C371 1.208 . S
O378 Cd379 2.223 . S
O378 C386 1.315 . S
Cd379 O378 2.223 . S
Cd379 O382 2.297 . S
Cd379 O383 2.439 . S
Cd379 O389 2.240 . S
Cd380 O381 2.240 . S
Cd380 O388 2.223 . S
Cd380 O390 2.297 . S
Cd380 O391 2.439 . S
O381 Cd380 2.240 . S
O381 C386 1.279 . S
O382 Cd379 2.297 . S
O382 C384 1.247 . S
O383 Cd379 2.439 . S
O383 C384 1.208 . S
C384 O382 1.247 . S
C384 O383 1.208 . S
C385 O390 1.247 . S
C385 O391 1.208 . S
C386 O378 1.315 . S
C386 O381 1.279 . S
C387 O388 1.315 . S
C387 O389 1.279 . S
O388 Cd380 2.223 . S
O388 C387 1.315 . S
O389 Cd379 2.240 . S
O389 C387 1.279 . S
O390 Cd380 2.297 . S
O390 C385 1.247 . S
O391 Cd380 2.439 . S
O391 C385 1.208 . S
O392 Cd393 2.223 . S
O392 C400 1.315 . S
Cd393 O392 2.223 . S
Cd393 O396 2.297 . S
Cd393 O397 2.439 . S
Cd393 O403 2.240 . S
Cd394 O395 2.240 . S
Cd394 O402 2.223 . S
Cd394 O404 2.297 . S
Cd394 O405 2.439 . S
O395 Cd394 2.240 . S
O395 C400 1.279 . S
O396 Cd393 2.297 . S
O396 C398 1.247 . S
O397 Cd393 2.439 . S
O397 C398 1.208 . S
C398 O396 1.247 . S
C398 O397 1.208 . S
C399 O404 1.247 . S
C399 O405 1.208 . S
C400 O392 1.315 . S
C400 O395 1.279 . S
C401 O402 1.315 . S
C401 O403 1.279 . S
O402 Cd394 2.223 . S
O402 C401 1.315 . S
O403 Cd393 2.240 . S
O403 C401 1.279 . S
O404 Cd394 2.297 . S
O404 C399 1.247 . S
O405 Cd394 2.439 . S
O405 C399 1.208 . S
O406 Cd407 2.223 . S
O406 C414 1.315 1_554 S
Cd407 O406 2.223 . S
Cd407 O410 2.297 1_554 S
Cd407 O411 2.439 . S
Cd407 O417 2.240 . S
Cd408 O409 2.240 1_554 S
Cd408 O416 2.223 . S
Cd408 O418 2.297 . S
Cd408 O419 2.439 . S
O409 Cd408 2.240 1_556 S
O409 C414 1.279 . S
O410 Cd407 2.297 1_556 S
O410 C412 1.247 . S
O411 Cd407 2.439 . S
O411 C412 1.208 1_554 S
C412 O410 1.247 . S
C412 O411 1.208 1_556 S
C413 O418 1.247 . S
C413 O419 1.208 . S
C414 O406 1.315 1_556 S
C414 O409 1.279 . S
C415 O416 1.315 . S
C415 O417 1.279 . S
O416 Cd408 2.223 . S
O416 C415 1.315 . S
O417 Cd407 2.240 . S
O417 C415 1.279 . S
O418 Cd408 2.297 . S
O418 C413 1.247 . S
O419 Cd408 2.439 . S
O419 C413 1.208 . S
O420 Cd421 2.223 . S
O420 C428 1.315 . S
Cd421 O420 2.223 . S
Cd421 O424 2.297 . S
Cd421 O425 2.439 . S
Cd421 O431 2.240 . S
Cd422 O423 2.240 . S
Cd422 O430 2.223 . S
Cd422 O432 2.297 . S
Cd422 O433 2.439 . S
O423 Cd422 2.240 . S
O423 C428 1.279 . S
O424 Cd421 2.297 . S
O424 C426 1.247 . S
O425 Cd421 2.439 . S
O425 C426 1.208 . S
C426 O424 1.247 . S
C426 O425 1.208 . S
C427 O432 1.247 . S
C427 O433 1.208 . S
C428 O420 1.315 . S
C428 O423 1.279 . S
C429 O430 1.315 . S
C429 O431 1.279 . S
O430 Cd422 2.223 . S
O430 C429 1.315 . S
O431 Cd421 2.240 . S
O431 C429 1.279 . S
O432 Cd422 2.297 . S
O432 C427 1.247 . S
O433 Cd422 2.439 . S
O433 C427 1.208 . S
O434 Cd435 2.223 . S
O434 C442 1.315 . S
Cd435 O434 2.223 . S
Cd435 O438 2.297 . S
Cd435 O439 2.439 . S
Cd435 O445 2.240 . S
Cd436 O437 2.240 . S
Cd436 O444 2.223 . S
Cd436 O446 2.297 . S
Cd436 O447 2.439 . S
O437 Cd436 2.240 . S
O437 C442 1.279 . S
O438 Cd435 2.297 . S
O438 C440 1.247 . S
O439 Cd435 2.439 . S
O439 C440 1.208 . S
C440 O438 1.247 . S
C440 O439 1.208 . S
C441 O446 1.247 . S
C441 O447 1.208 . S
C442 O434 1.315 . S
C442 O437 1.279 . S
C443 O444 1.315 . S
C443 O445 1.279 . S
O444 Cd436 2.223 . S
O444 C443 1.315 . S
O445 Cd435 2.240 . S
O445 C443 1.279 . S
O446 Cd436 2.297 . S
O446 C441 1.247 . S
O447 Cd436 2.439 . S
O447 C441 1.208 . S
C448 C449 1.387 . S
C448 H452 0.950 . S
C448 C457 1.390 . S
C449 C448 1.387 . S
C449 C451 1.387 . S
H450 C457 0.950 . S
C451 C449 1.387 . S
C451 C453 1.390 . S
C451 H455 0.950 . S
H452 C448 0.950 . S
C453 C451 1.390 . S
C453 C454 1.387 . S
C453 H456 0.950 . S
C454 C453 1.387 . S
C454 C457 1.387 . S
H455 C451 0.950 . S
H456 C453 0.950 . S
C457 C448 1.390 . S
C457 H450 0.950 . S
C457 C454 1.387 . S
C458 C459 1.387 . S
C458 H462 0.950 . S
C458 C467 1.390 1_565 S
C459 C458 1.387 . S
C459 C461 1.387 . S
H460 C467 0.950 . S
C461 C459 1.387 . S
C461 C463 1.390 1_565 S
C461 H465 0.950 . S
H462 C458 0.950 . S
C463 C461 1.390 1_545 S
C463 C464 1.387 . S
C463 H466 0.950 . S
C464 C463 1.387 . S
C464 C467 1.387 . S
H465 C461 0.950 . S
H466 C463 0.950 . S
C467 C458 1.390 1_545 S
C467 H460 0.950 . S
C467 C464 1.387 . S
C468 C469 1.387 . S
C468 H472 0.950 . S
C468 C477 1.390 1_554 S
C469 C468 1.387 . S
C469 C471 1.387 . S
H470 C477 0.950 . S
C471 C469 1.387 . S
C471 C473 1.390 1_554 S
C471 H475 0.950 . S
H472 C468 0.950 . S
C473 C471 1.390 1_556 S
C473 C474 1.387 . S
C473 H476 0.950 . S
C474 C473 1.387 . S
C474 C477 1.387 . S
H475 C471 0.950 . S
H476 C473 0.950 . S
C477 C468 1.390 1_556 S
C477 H470 0.950 . S
C477 C474 1.387 . S
C478 C479 1.387 . S
C478 H482 0.950 . S
C478 C487 1.390 1_545 S
C479 C478 1.387 . S
C479 C481 1.387 . S
H480 C487 0.950 . S
C481 C479 1.387 . S
C481 C483 1.390 1_545 S
C481 H485 0.950 . S
H482 C478 0.950 . S
C483 C481 1.390 1_565 S
C483 C484 1.387 . S
C483 H486 0.950 . S
C484 C483 1.387 . S
C484 C487 1.387 . S
H485 C481 0.950 . S
H486 C483 0.950 . S
C487 C478 1.390 1_565 S
C487 H480 0.950 . S
C487 C484 1.387 . S
C488 C489 1.387 . S
C488 H492 0.950 . S
C488 C497 1.390 . S
C489 C488 1.387 . S
C489 C491 1.387 . S
H490 C497 0.950 . S
C491 C489 1.387 . S
C491 C493 1.390 . S
C491 H495 0.950 . S
H492 C488 0.950 . S
C493 C491 1.390 . S
C493 C494 1.387 . S
C493 H496 0.950 . S
C494 C493 1.387 . S
C494 C497 1.387 . S
H495 C491 0.950 . S
H496 C493 0.950 . S
C497 C488 1.390 . S
C497 H490 0.950 . S
C497 C494 1.387 . S
C498 C499 1.387 . S
C498 H502 0.950 . S
C498 C507 1.390 1_545 S
C499 C498 1.387 . S
C499 C501 1.387 . S
H500 C507 0.950 . S
C501 C499 1.387 . S
C501 C503 1.390 1_545 S
C501 H505 0.950 . S
H502 C498 0.950 . S
C503 C501 1.390 1_565 S
C503 C504 1.387 . S
C503 H506 0.950 . S
C504 C503 1.387 . S
C504 C507 1.387 . S
H505 C501 0.950 . S
H506 C503 0.950 . S
C507 C498 1.390 1_565 S
C507 H500 0.950 . S
C507 C504 1.387 . S
C508 C509 1.387 . S
C508 H512 0.950 . S
C508 C517 1.390 1_556 S
C509 C508 1.387 . S
C509 C511 1.387 . S
H510 C517 0.950 . S
C511 C509 1.387 . S
C511 C513 1.390 1_556 S
C511 H515 0.950 . S
H512 C508 0.950 . S
C513 C511 1.390 1_554 S
C513 C514 1.387 . S
C513 H516 0.950 . S
C514 C513 1.387 . S
C514 C517 1.387 . S
H515 C511 0.950 . S
H516 C513 0.950 . S
C517 C508 1.390 1_554 S
C517 H510 0.950 . S
C517 C514 1.387 . S
C518 C519 1.387 . S
C518 H522 0.950 . S
C518 C527 1.390 1_565 S
C519 C518 1.387 . S
C519 C521 1.387 . S
H520 C527 0.950 . S
C521 C519 1.387 . S
C521 C523 1.390 1_565 S
C521 H525 0.950 . S
H522 C518 0.950 . S
C523 C521 1.390 1_545 S
C523 C524 1.387 . S
C523 H526 0.950 . S
C524 C523 1.387 . S
C524 C527 1.387 . S
H525 C521 0.950 . S
H526 C523 0.950 . S
C527 C518 1.390 1_545 S
C527 H520 0.950 . S
C527 C524 1.387 . S
C528 C529 1.387 . S
C528 H532 0.950 . S
C528 C537 1.390 1_556 S
C529 C528 1.387 . S
C529 C531 1.387 . S
H530 C537 0.950 . S
C531 C529 1.387 . S
C531 C533 1.390 1_556 S
C531 H535 0.950 . S
H532 C528 0.950 . S
C533 C531 1.390 1_554 S
C533 C534 1.387 . S
C533 H536 0.950 . S
C534 C533 1.387 . S
C534 C537 1.387 . S
H535 C531 0.950 . S
H536 C533 0.950 . S
C537 C528 1.390 1_554 S
C537 H530 0.950 . S
C537 C534 1.387 . S
C538 C539 1.387 . S
C538 H542 0.950 . S
C538 C547 1.390 . S
C539 C538 1.387 . S
C539 C541 1.387 . S
H540 C547 0.950 . S
C541 C539 1.387 . S
C541 C543 1.390 . S
C541 H545 0.950 . S
H542 C538 0.950 . S
C543 C541 1.390 . S
C543 C544 1.387 . S
C543 H546 0.950 . S
C544 C543 1.387 . S
C544 C547 1.387 . S
H545 C541 0.950 . S
H546 C543 0.950 . S
C547 C538 1.390 . S
C547 H540 0.950 . S
C547 C544 1.387 . S
C548 C549 1.387 . S
C548 H552 0.950 . S
C548 C557 1.390 . S
C549 C548 1.387 . S
C549 C551 1.387 . S
H550 C557 0.950 . S
C551 C549 1.387 . S
C551 C553 1.390 . S
C551 H555 0.950 . S
H552 C548 0.950 . S
C553 C551 1.390 . S
C553 C554 1.387 . S
C553 H556 0.950 . S
C554 C553 1.387 . S
C554 C557 1.387 . S
H555 C551 0.950 . S
H556 C553 0.950 . S
C557 C548 1.390 . S
C557 H550 0.950 . S
C557 C554 1.387 . S
C558 C559 1.387 . S
C558 H562 0.950 . S
C558 C567 1.390 . S
C559 C558 1.387 . S
C559 C561 1.387 . S
H560 C567 0.950 . S
C561 C559 1.387 . S
C561 C563 1.390 . S
C561 H565 0.950 . S
H562 C558 0.950 . S
C563 C561 1.390 . S
C563 C564 1.387 . S
C563 H566 0.950 . S
C564 C563 1.387 . S
C564 C567 1.387 . S
H565 C561 0.950 . S
H566 C563 0.950 . S
C567 C558 1.390 . S
C567 H560 0.950 . S
C567 C564 1.387 . S
C568 C569 1.387 . S
C568 H572 0.950 . S
C568 C577 1.390 1_556 S
C569 C568 1.387 . S
C569 C571 1.387 . S
H570 C577 0.950 . S
C571 C569 1.387 . S
C571 C573 1.390 1_556 S
C571 H575 0.950 . S
H572 C568 0.950 . S
C573 C571 1.390 1_554 S
C573 C574 1.387 . S
C573 H576 0.950 . S
C574 C573 1.387 . S
C574 C577 1.387 . S
H575 C571 0.950 . S
H576 C573 0.950 . S
C577 C568 1.390 1_554 S
C577 H570 0.950 . S
C577 C574 1.387 . S
C578 C579 1.387 . S
C578 H582 0.950 . S
C578 C587 1.390 . S
C579 C578 1.387 . S
C579 C581 1.387 . S
H580 C587 0.950 . S
C581 C579 1.387 . S
C581 C583 1.390 . S
C581 H585 0.950 . S
H582 C578 0.950 . S
C583 C581 1.390 . S
C583 C584 1.387 . S
C583 H586 0.950 . S
C584 C583 1.387 . S
C584 C587 1.387 . S
H585 C581 0.950 . S
H586 C583 0.950 . S
C587 C578 1.390 . S
C587 H580 0.950 . S
C587 C584 1.387 . S
C588 C589 1.387 . S
C588 H592 0.950 . S
C588 C597 1.390 . S
C589 C588 1.387 . S
C589 C591 1.387 . S
H590 C597 0.950 . S
C591 C589 1.387 . S
C591 C593 1.390 . S
C591 H595 0.950 . S
H592 C588 0.950 . S
C593 C591 1.390 . S
C593 C594 1.387 . S
C593 H596 0.950 . S
C594 C593 1.387 . S
C594 C597 1.387 . S
H595 C591 0.950 . S
H596 C593 0.950 . S
C597 C588 1.390 . S
C597 H590 0.950 . S
C597 C594 1.387 . S
C598 C599 1.387 . S
C598 H602 0.950 . S
C598 C607 1.390 . S
C599 C598 1.387 . S
C599 C601 1.387 . S
H600 C607 0.950 . S
C601 C599 1.387 . S
C601 C603 1.390 . S
C601 H605 0.950 . S
H602 C598 0.950 . S
C603 C601 1.390 . S
C603 C604 1.387 . S
C603 H606 0.950 . S
C604 C603 1.387 . S
C604 C607 1.387 . S
H605 C601 0.950 . S
H606 C603 0.950 . S
C607 C598 1.390 . S
C607 H600 0.950 . S
C607 C604 1.387 . S
C608 C609 1.387 . S
C608 H612 0.950 . S
C608 C617 1.390 . S
C609 C608 1.387 . S
C609 C611 1.387 . S
H610 C617 0.950 . S
C611 C609 1.387 . S
C611 C613 1.390 . S
C611 H615 0.950 1_554 S
H612 C608 0.950 . S
C613 C611 1.390 . S
C613 C614 1.387 . S
C613 H616 0.950 . S
C614 C613 1.387 . S
C614 C617 1.387 . S
H615 C611 0.950 1_556 S
H616 C613 0.950 . S
C617 C608 1.390 . S
C617 H610 0.950 . S
C617 C614 1.387 . S
C618 C619 1.387 . S
C618 H622 0.950 . S
C618 C627 1.390 . S
C619 C618 1.387 . S
C619 C621 1.387 . S
H620 C627 0.950 . S
C621 C619 1.387 . S
C621 C623 1.390 . S
C621 H625 0.950 . S
H622 C618 0.950 . S
C623 C621 1.390 . S
C623 C624 1.387 . S
C623 H626 0.950 . S
C624 C623 1.387 . S
C624 C627 1.387 . S
H625 C621 0.950 . S
H626 C623 0.950 . S
C627 C618 1.390 . S
C627 H620 0.950 . S
C627 C624 1.387 . S
C628 C629 1.387 . S
C628 H632 0.950 . S
C628 C637 1.390 . S
C629 C628 1.387 . S
C629 C631 1.387 . S
H630 C637 0.950 . S
C631 C629 1.387 . S
C631 C633 1.390 . S
C631 H635 0.950 . S
H632 C628 0.950 . S
C633 C631 1.390 . S
C633 C634 1.387 . S
C633 H636 0.950 . S
C634 C633 1.387 . S
C634 C637 1.387 . S
H635 C631 0.950 . S
H636 C633 0.950 . S
C637 C628 1.390 . S
C637 H630 0.950 . S
C637 C634 1.387 . S
C638 C639 1.387 . S
C638 H642 0.950 . S
C638 C647 1.390 . S
C639 C638 1.387 . S
C639 C641 1.387 . S
H640 C647 0.950 1_554 S
C641 C639 1.387 . S
C641 C643 1.390 . S
C641 H645 0.950 . S
H642 C638 0.950 . S
C643 C641 1.390 . S
C643 C644 1.387 . S
C643 H646 0.950 . S
C644 C643 1.387 . S
C644 C647 1.387 . S
H645 C641 0.950 . S
H646 C643 0.950 . S
C647 C638 1.390 . S
C647 H640 0.950 1_556 S
C647 C644 1.387 . S
C648 C649 1.387 . S
C648 H652 0.950 . S
C648 C657 1.390 . S
C649 C648 1.387 . S
C649 C651 1.387 . S
H650 C657 0.950 . S
C651 C649 1.387 . S
C651 C653 1.390 . S
C651 H655 0.950 . S
H652 C648 0.950 . S
C653 C651 1.390 . S
C653 C654 1.387 . S
C653 H656 0.950 . S
C654 C653 1.387 . S
C654 C657 1.387 . S
H655 C651 0.950 . S
H656 C653 0.950 . S
C657 C648 1.390 . S
C657 H650 0.950 . S
C657 C654 1.387 . S
C658 C659 1.387 . S
C658 H662 0.950 . S
C658 C667 1.390 . S
C659 C658 1.387 . S
C659 C661 1.387 . S
H660 C667 0.950 . S
C661 C659 1.387 . S
C661 C663 1.390 . S
C661 H665 0.950 . S
H662 C658 0.950 . S
C663 C661 1.390 . S
C663 C664 1.387 . S
C663 H666 0.950 . S
C664 C663 1.387 . S
C664 C667 1.387 . S
H665 C661 0.950 . S
H666 C663 0.950 . S
C667 C658 1.390 . S
C667 H660 0.950 . S
C667 C664 1.387 . S
C668 C669 1.387 . S
C668 H672 0.950 . S
C668 C677 1.390 . S
C669 C668 1.387 . S
C669 C671 1.387 . S
H670 C677 0.950 . S
C671 C669 1.387 . S
C671 C673 1.390 . S
C671 H675 0.950 . S
H672 C668 0.950 . S
C673 C671 1.390 . S
C673 C674 1.387 . S
C673 H676 0.950 . S
C674 C673 1.387 . S
C674 C677 1.387 . S
H675 C671 0.950 . S
H676 C673 0.950 . S
C677 C668 1.390 . S
C677 H670 0.950 . S
C677 C674 1.387 . S
C678 C679 1.387 . S
C678 H682 0.950 1_554 S
C678 C687 1.390 . S
C679 C678 1.387 . S
C679 C681 1.387 . S
H680 C687 0.950 . S
C681 C679 1.387 . S
C681 C683 1.390 . S
C681 H685 0.950 . S
H682 C678 0.950 1_556 S
C683 C681 1.390 . S
C683 C684 1.387 . S
C683 H686 0.950 . S
C684 C683 1.387 . S
C684 C687 1.387 . S
H685 C681 0.950 . S
H686 C683 0.950 . S
C687 C678 1.390 . S
C687 H680 0.950 . S
C687 C684 1.387 . S
C688 C689 1.387 . S
C688 H692 0.950 . S
C688 C697 1.390 . S
C689 C688 1.387 . S
C689 C691 1.387 . S
H690 C697 0.950 . S
C691 C689 1.387 . S
C691 C693 1.390 . S
C691 H695 0.950 . S
H692 C688 0.950 . S
C693 C691 1.390 . S
C693 C694 1.387 . S
C693 H696 0.950 . S
C694 C693 1.387 . S
C694 C697 1.387 . S
H695 C691 0.950 . S
H696 C693 0.950 . S
C697 C688 1.390 . S
C697 H690 0.950 . S
C697 C694 1.387 . S
C698 C699 1.387 . S
C698 H702 0.950 . S
C698 C707 1.390 . S
C699 C698 1.387 . S
C699 C701 1.387 . S
H700 C707 0.950 . S
C701 C699 1.387 . S
C701 C703 1.390 . S
C701 H705 0.950 . S
H702 C698 0.950 . S
C703 C701 1.390 . S
C703 C704 1.387 . S
C703 H706 0.950 . S
C704 C703 1.387 . S
C704 C707 1.387 . S
H705 C701 0.950 . S
H706 C703 0.950 . S
C707 C698 1.390 . S
C707 H700 0.950 . S
C707 C704 1.387 . S
C708 C709 1.387 . S
C708 H712 0.950 . S
C708 C717 1.390 . S
C709 C708 1.387 . S
C709 C711 1.387 . S
H710 C717 0.950 . S
C711 C709 1.387 . S
C711 C713 1.390 . S
C711 H715 0.950 . S
H712 C708 0.950 . S
C713 C711 1.390 . S
C713 C714 1.387 . S
C713 H716 0.950 . S
C714 C713 1.387 . S
C714 C717 1.387 . S
H715 C711 0.950 . S
H716 C713 0.950 . S
C717 C708 1.390 . S
C717 H710 0.950 . S
C717 C714 1.387 . S
C718 C719 1.387 . S
C718 H722 0.950 . S
C718 C727 1.390 . S
C719 C718 1.387 . S
C719 C721 1.387 . S
H720 C727 0.950 . S
C721 C719 1.387 . S
C721 C723 1.390 . S
C721 H725 0.950 . S
H722 C718 0.950 . S
C723 C721 1.390 . S
C723 C724 1.387 . S
C723 H726 0.950 . S
C724 C723 1.387 . S
C724 C727 1.387 . S
H725 C721 0.950 . S
H726 C723 0.950 . S
C727 C718 1.390 . S
C727 H720 0.950 . S
C727 C724 1.387 . S
C728 C729 1.387 . S
C728 H732 0.950 . S
C728 C737 1.390 . S
C729 C728 1.387 . S
C729 C731 1.387 . S
H730 C737 0.950 . S
C731 C729 1.387 . S
C731 C733 1.390 . S
C731 H735 0.950 . S
H732 C728 0.950 . S
C733 C731 1.390 . S
C733 C734 1.387 . S
C733 H736 0.950 . S
C734 C733 1.387 . S
C734 C737 1.387 . S
H735 C731 0.950 . S
H736 C733 0.950 . S
C737 C728 1.390 . S
C737 H730 0.950 . S
C737 C734 1.387 . S
C738 C739 1.387 . S
C738 H742 0.950 . S
C738 C747 1.390 . S
C739 C738 1.387 . S
C739 C741 1.387 . S
H740 C747 0.950 . S
C741 C739 1.387 . S
C741 C743 1.390 . S
C741 H745 0.950 1_554 S
H742 C738 0.950 . S
C743 C741 1.390 . S
C743 C744 1.387 . S
C743 H746 0.950 . S
C744 C743 1.387 . S
C744 C747 1.387 . S
H745 C741 0.950 1_556 S
H746 C743 0.950 . S
C747 C738 1.390 . S
C747 H740 0.950 . S
C747 C744 1.387 . S
C748 C749 1.387 . S
C748 H752 0.950 . S
C748 C757 1.390 . S
C749 C748 1.387 . S
C749 C751 1.387 . S
H750 C757 0.950 . S
C751 C749 1.387 . S
C751 C753 1.390 . S
C751 H755 0.950 . S
H752 C748 0.950 . S
C753 C751 1.390 . S
C753 C754 1.387 . S
C753 H756 0.950 . S
C754 C753 1.387 . S
C754 C757 1.387 . S
H755 C751 0.950 . S
H756 C753 0.950 . S
C757 C748 1.390 . S
C757 H750 0.950 . S
C757 C754 1.387 . S
C758 C759 1.387 . S
C758 H762 0.950 . S
C758 C767 1.390 . S
C759 C758 1.387 . S
C759 C761 1.387 . S
H760 C767 0.950 . S
C761 C759 1.387 . S
C761 C763 1.390 . S
C761 H765 0.950 . S
H762 C758 0.950 . S
C763 C761 1.390 . S
C763 C764 1.387 . S
C763 H766 0.950 . S
C764 C763 1.387 . S
C764 C767 1.387 . S
H765 C761 0.950 . S
H766 C763 0.950 . S
C767 C758 1.390 . S
C767 H760 0.950 . S
C767 C764 1.387 . S
C768 C769 1.387 . S
C768 H772 0.950 . S
C768 C777 1.390 . S
C769 C768 1.387 . S
C769 C771 1.387 . S
H770 C777 0.950 1_556 S
C771 C769 1.387 . S
C771 C773 1.390 . S
C771 H775 0.950 . S
H772 C768 0.950 . S
C773 C771 1.390 . S
C773 C774 1.387 . S
C773 H776 0.950 . S
C774 C773 1.387 . S
C774 C777 1.387 . S
H775 C771 0.950 . S
H776 C773 0.950 . S
C777 C768 1.390 . S
C777 H770 0.950 1_554 S
C777 C774 1.387 . S
C778 C779 1.387 . S
C778 H782 0.950 . S
C778 C787 1.390 1_655 S
C779 C778 1.387 . S
C779 C781 1.387 . S
H780 C787 0.950 . S
C781 C779 1.387 . S
C781 C783 1.390 1_655 S
C781 H785 0.950 . S
H782 C778 0.950 . S
C783 C781 1.390 1_455 S
C783 C784 1.387 . S
C783 H786 0.950 . S
C784 C783 1.387 . S
C784 C787 1.387 . S
H785 C781 0.950 . S
H786 C783 0.950 . S
C787 C778 1.390 1_455 S
C787 H780 0.950 . S
C787 C784 1.387 . S
C788 C789 1.387 . S
C788 H792 0.950 . S
C788 C797 1.390 . S
C789 C788 1.387 . S
C789 C791 1.387 . S
H790 C797 0.950 . S
C791 C789 1.387 . S
C791 C793 1.390 . S
C791 H795 0.950 . S
H792 C788 0.950 . S
C793 C791 1.390 . S
C793 C794 1.387 . S
C793 H796 0.950 . S
C794 C793 1.387 . S
C794 C797 1.387 . S
H795 C791 0.950 . S
H796 C793 0.950 . S
C797 C788 1.390 . S
C797 H790 0.950 . S
C797 C794 1.387 . S
C798 C799 1.387 . S
C798 H802 0.950 . S
C798 C807 1.390 . S
C799 C798 1.387 . S
C799 C801 1.387 . S
H800 C807 0.950 . S
C801 C799 1.387 . S
C801 C803 1.390 . S
C801 H805 0.950 . S
H802 C798 0.950 . S
C803 C801 1.390 . S
C803 C804 1.387 . S
C803 H806 0.950 . S
C804 C803 1.387 . S
C804 C807 1.387 . S
H805 C801 0.950 . S
H806 C803 0.950 . S
C807 C798 1.390 . S
C807 H800 0.950 . S
C807 C804 1.387 . S
C808 C809 1.387 . S
C808 H812 0.950 . S
C808 C817 1.390 . S
C809 C808 1.387 . S
C809 C811 1.387 . S
H810 C817 0.950 . S
C811 C809 1.387 . S
C811 C813 1.390 . S
C811 H815 0.950 . S
H812 C808 0.950 . S
C813 C811 1.390 . S
C813 C814 1.387 . S
C813 H816 0.950 . S
C814 C813 1.387 . S
C814 C817 1.387 . S
H815 C811 0.950 . S
H816 C813 0.950 . S
C817 C808 1.390 . S
C817 H810 0.950 . S
C817 C814 1.387 . S
C818 C819 1.387 . S
C818 H822 0.950 . S
C818 C827 1.390 . S
C819 C818 1.387 . S
C819 C821 1.387 . S
H820 C827 0.950 . S
C821 C819 1.387 . S
C821 C823 1.390 . S
C821 H825 0.950 . S
H822 C818 0.950 . S
C823 C821 1.390 . S
C823 C824 1.387 . S
C823 H826 0.950 . S
C824 C823 1.387 . S
C824 C827 1.387 . S
H825 C821 0.950 . S
H826 C823 0.950 . S
C827 C818 1.390 . S
C827 H820 0.950 . S
C827 C824 1.387 . S
C828 C829 1.387 . S
C828 H832 0.950 . S
C828 C837 1.390 . S
C829 C828 1.387 . S
C829 C831 1.387 . S
H830 C837 0.950 . S
C831 C829 1.387 . S
C831 C833 1.390 . S
C831 H835 0.950 . S
H832 C828 0.950 . S
C833 C831 1.390 . S
C833 C834 1.387 . S
C833 H836 0.950 . S
C834 C833 1.387 . S
C834 C837 1.387 . S
H835 C831 0.950 . S
H836 C833 0.950 . S
C837 C828 1.390 . S
C837 H830 0.950 . S
C837 C834 1.387 . S
C838 C839 1.387 . S
C838 H842 0.950 . S
C838 C847 1.390 1_455 S
C839 C838 1.387 . S
C839 C841 1.387 . S
H840 C847 0.950 . S
C841 C839 1.387 . S
C841 C843 1.390 1_455 S
C841 H845 0.950 . S
H842 C838 0.950 . S
C843 C841 1.390 1_655 S
C843 C844 1.387 . S
C843 H846 0.950 . S
C844 C843 1.387 . S
C844 C847 1.387 . S
H845 C841 0.950 . S
H846 C843 0.950 . S
C847 C838 1.390 1_655 S
C847 H840 0.950 . S
C847 C844 1.387 . S
C848 C849 1.387 . S
C848 H852 0.950 . S
C848 C857 1.387 1_556 S
C849 C848 1.387 . S
C849 C851 1.387 . S
H850 C857 0.954 . S
C851 C849 1.387 . S
C851 C853 1.390 . S
C851 H855 0.950 . S
H852 C848 0.950 . S
C853 C851 1.390 . S
C853 C854 1.387 . S
C853 H856 0.950 . S
C854 C853 1.387 . S
C854 C857 1.387 1_556 S
H855 C851 0.950 . S
H856 C853 0.950 . S
C857 C848 1.387 1_554 S
C857 H850 0.954 . S
C857 C854 1.387 1_554 S
C858 C859 1.387 . S
C858 H862 0.950 . S
C858 C867 1.390 1_455 S
C859 C858 1.387 . S
C859 C861 1.387 . S
H860 C867 0.950 . S
C861 C859 1.387 . S
C861 C863 1.390 1_455 S
C861 H865 0.950 . S
H862 C858 0.950 . S
C863 C861 1.390 1_655 S
C863 C864 1.387 . S
C863 H866 0.950 . S
C864 C863 1.387 . S
C864 C867 1.387 . S
H865 C861 0.950 . S
H866 C863 0.950 . S
C867 C858 1.390 1_655 S
C867 H860 0.950 . S
C867 C864 1.387 . S
C868 C869 1.387 . S
C868 H872 0.950 . S
C868 C877 1.390 . S
C869 C868 1.387 . S
C869 C871 1.387 . S
H870 C877 0.950 . S
C871 C869 1.387 . S
C871 C873 1.390 . S
C871 H875 0.950 . S
H872 C868 0.950 . S
C873 C871 1.390 . S
C873 C874 1.387 . S
C873 H876 0.950 . S
C874 C873 1.387 . S
C874 C877 1.387 . S
H875 C871 0.950 . S
H876 C873 0.950 . S
C877 C868 1.390 . S
C877 H870 0.950 . S
C877 C874 1.387 . S
C878 C879 1.387 . S
C878 H882 0.950 . S
C878 C887 1.390 . S
C879 C878 1.387 . S
C879 C881 1.387 . S
H880 C887 0.950 . S
C881 C879 1.387 . S
C881 C883 1.390 . S
C881 H885 0.950 . S
H882 C878 0.950 . S
C883 C881 1.390 . S
C883 C884 1.387 . S
C883 H886 0.950 . S
C884 C883 1.387 . S
C884 C887 1.387 . S
H885 C881 0.950 . S
H886 C883 0.950 . S
C887 C878 1.390 . S
C887 H880 0.950 . S
C887 C884 1.387 . S
C888 C889 1.387 . S
C888 H892 0.950 . S
C888 C897 1.390 . S
C889 C888 1.387 . S
C889 C891 1.387 . S
H890 C897 0.950 . S
C891 C889 1.387 . S
C891 C893 1.390 . S
C891 H895 0.950 . S
H892 C888 0.950 . S
C893 C891 1.390 . S
C893 C894 1.387 . S
C893 H896 0.950 . S
C894 C893 1.387 . S
C894 C897 1.387 . S
H895 C891 0.950 . S
H896 C893 0.950 . S
C897 C888 1.390 . S
C897 H890 0.950 . S
C897 C894 1.387 . S
C898 C899 1.387 . S
C898 H902 0.950 . S
C898 C907 1.390 . S
C899 C898 1.387 . S
C899 C901 1.387 . S
H900 C907 0.950 . S
C901 C899 1.387 . S
C901 C903 1.390 . S
C901 H905 0.950 . S
H902 C898 0.950 . S
C903 C901 1.390 . S
C903 C904 1.387 . S
C903 H906 0.950 . S
C904 C903 1.387 . S
C904 C907 1.387 . S
H905 C901 0.950 . S
H906 C903 0.950 . S
C907 C898 1.390 . S
C907 H900 0.950 . S
C907 C904 1.387 . S
C908 C909 1.387 . S
C908 H912 0.950 . S
C908 C917 1.390 . S
C909 C908 1.387 . S
C909 C911 1.387 . S
H910 C917 0.950 . S
C911 C909 1.387 . S
C911 C913 1.390 . S
C911 H915 0.950 . S
H912 C908 0.950 . S
C913 C911 1.390 . S
C913 C914 1.387 . S
C913 H916 0.950 . S
C914 C913 1.387 . S
C914 C917 1.387 . S
H915 C911 0.950 . S
H916 C913 0.950 . S
C917 C908 1.390 . S
C917 H910 0.950 . S
C917 C914 1.387 . S
C918 C919 1.387 . S
C918 H922 0.950 . S
C918 C927 1.390 1_455 S
C919 C918 1.387 . S
C919 C921 1.387 . S
H920 C927 0.950 . S
C921 C919 1.387 . S
C921 C923 1.390 1_455 S
C921 H925 0.950 . S
H922 C918 0.950 . S
C923 C921 1.390 1_655 S
C923 C924 1.387 . S
C923 H926 0.950 . S
C924 C923 1.387 . S
C924 C927 1.387 . S
H925 C921 0.950 . S
H926 C923 0.950 . S
C927 C918 1.390 1_655 S
C927 H920 0.950 . S
C927 C924 1.387 . S
C928 C929 1.387 . S
C928 H932 0.950 . S
C928 C937 1.390 . S
C929 C928 1.387 . S
C929 C931 1.387 . S
H930 C937 0.950 . S
C931 C929 1.387 . S
C931 C933 1.390 . S
C931 H935 0.950 . S
H932 C928 0.950 . S
C933 C931 1.390 . S
C933 C934 1.387 . S
C933 H936 0.950 . S
C934 C933 1.387 . S
C934 C937 1.387 . S
H935 C931 0.950 . S
H936 C933 0.950 . S
C937 C928 1.390 . S
C937 H930 0.950 . S
C937 C934 1.387 . S
C938 C939 1.387 . S
C938 H942 0.950 . S
C938 C947 1.390 . S
C939 C938 1.387 . S
C939 C941 1.387 . S
H940 C947 0.950 . S
C941 C939 1.387 . S
C941 C943 1.390 . S
C941 H945 0.950 . S
H942 C938 0.950 . S
C943 C941 1.390 . S
C943 C944 1.387 . S
C943 H946 0.950 . S
C944 C943 1.387 . S
C944 C947 1.387 . S
H945 C941 0.950 . S
H946 C943 0.950 . S
C947 C938 1.390 . S
C947 H940 0.950 . S
C947 C944 1.387 . S
C948 C949 1.387 . S
C948 H952 0.950 . S
C948 C957 1.390 . S
C949 C948 1.387 . S
C949 C951 1.387 . S
H950 C957 0.950 . S
C951 C949 1.387 . S
C951 C953 1.390 . S
C951 H955 0.950 . S
H952 C948 0.950 . S
C953 C951 1.390 . S
C953 C954 1.387 . S
C953 H956 0.950 . S
C954 C953 1.387 . S
C954 C957 1.387 . S
H955 C951 0.950 . S
H956 C953 0.950 . S
C957 C948 1.390 . S
C957 H950 0.950 . S
C957 C954 1.387 . S
C958 C959 1.387 . S
C958 H962 0.950 . S
C958 C967 1.390 1_655 S
C959 C958 1.387 . S
C959 C961 1.387 . S
H960 C967 0.950 . S
C961 C959 1.387 . S
C961 C963 1.390 1_655 S
C961 H965 0.950 . S
H962 C958 0.950 . S
C963 C961 1.390 1_455 S
C963 C964 1.387 . S
C963 H966 0.950 . S
C964 C963 1.387 . S
C964 C967 1.387 . S
H965 C961 0.950 . S
H966 C963 0.950 . S
C967 C958 1.390 1_455 S
C967 H960 0.950 . S
C967 C964 1.387 . S
C968 C969 1.387 . S
C968 H972 0.950 . S
C968 C977 1.390 1_556 S
C969 C968 1.387 . S
C969 C971 1.387 . S
H970 C977 0.950 . S
C971 C969 1.387 . S
C971 C973 1.390 . S
C971 H975 0.950 . S
H972 C968 0.950 . S
C973 C971 1.390 . S
C973 C974 1.387 . S
C973 H976 0.950 . S
C974 C973 1.387 . S
C974 C977 1.387 1_556 S
H975 C971 0.950 . S
H976 C973 0.950 . S
C977 C968 1.390 1_554 S
C977 H970 0.950 . S
C977 C974 1.387 1_554 S
C978 C979 1.387 . S
C978 H982 0.950 . S
C978 C987 1.390 1_655 S
C979 C978 1.387 . S
C979 C981 1.387 . S
H980 C987 0.950 . S
C981 C979 1.387 . S
C981 C983 1.390 1_655 S
C981 H985 0.950 . S
H982 C978 0.950 . S
C983 C981 1.390 1_455 S
C983 C984 1.387 . S
C983 H986 0.950 . S
C984 C983 1.387 . S
C984 C987 1.387 . S
H985 C981 0.950 . S
H986 C983 0.950 . S
C987 C978 1.390 1_455 S
C987 H980 0.950 . S
C987 C984 1.387 . S
C988 C989 1.387 . S
C988 H992 0.950 . S
C988 C997 1.390 . S
C989 C988 1.387 . S
C989 C991 1.387 . S
H990 C997 0.950 . S
C991 C989 1.387 . S
C991 C993 1.390 . S
C991 H995 0.950 . S
H992 C988 0.950 . S
C993 C991 1.390 . S
C993 C994 1.387 . S
C993 H996 0.950 . S
C994 C993 1.387 . S
C994 C997 1.387 . S
H995 C991 0.950 . S
H996 C993 0.950 . S
C997 C988 1.390 . S
C997 H990 0.950 . S
C997 C994 1.387 . S
C998 C999 1.387 . S
C998 H1002 0.950 . S
C998 C1007 1.390 . S
C999 C998 1.387 . S
C999 C1001 1.387 . S
H1000 C1007 0.950 . S
C1001 C999 1.387 . S
C1001 C1003 1.390 . S
C1001 H1005 0.950 . S
H1002 C998 0.950 . S
C1003 C1001 1.390 . S
C1003 C1004 1.387 . S
C1003 H1006 0.950 . S
C1004 C1003 1.387 . S
C1004 C1007 1.387 . S
H1005 C1001 0.950 . S
H1006 C1003 0.950 . S
C1007 C998 1.390 . S
C1007 H1000 0.950 . S
C1007 C1004 1.387 . S
C1008 C1009 1.387 . S
C1008 H1012 0.950 . S
C1008 C1017 1.390 . S
C1009 C1008 1.387 . S
C1009 C1011 1.387 . S
H1010 C1017 0.950 . S
C1011 C1009 1.387 . S
C1011 C1013 1.390 . S
C1011 H1015 0.950 . S
H1012 C1008 0.950 . S
C1013 C1011 1.390 . S
C1013 C1014 1.387 . S
C1013 H1016 0.950 . S
C1014 C1013 1.387 . S
C1014 C1017 1.387 . S
H1015 C1011 0.950 . S
H1016 C1013 0.950 . S
C1017 C1008 1.390 . S
C1017 H1010 0.950 . S
C1017 C1014 1.387 . S
C1018 C1019 1.387 . S
C1018 H1022 0.950 . S
C1018 C1027 1.390 . S
C1019 C1018 1.387 . S
C1019 C1021 1.387 . S
H1020 C1027 0.950 . S
C1021 C1019 1.387 . S
C1021 C1023 1.390 . S
C1021 H1025 0.950 . S
H1022 C1018 0.950 . S
C1023 C1021 1.390 . S
C1023 C1024 1.387 . S
C1023 H1026 0.950 . S
C1024 C1023 1.387 . S
C1024 C1027 1.387 . S
H1025 C1021 0.950 . S
H1026 C1023 0.950 . S
C1027 C1018 1.390 . S
C1027 H1020 0.950 . S
C1027 C1024 1.387 . S
C1028 C1029 1.387 . S
C1028 H1032 0.950 . S
C1028 C1037 1.390 . S
C1029 C1028 1.387 . S
C1029 C1031 1.387 . S
H1030 C1037 0.950 . S
C1031 C1029 1.387 . S
C1031 C1033 1.390 . S
C1031 H1035 0.950 . S
H1032 C1028 0.950 . S
C1033 C1031 1.390 . S
C1033 C1034 1.387 . S
C1033 H1036 0.950 . S
C1034 C1033 1.387 . S
C1034 C1037 1.387 . S
H1035 C1031 0.950 . S
H1036 C1033 0.950 . S
C1037 C1028 1.390 . S
C1037 H1030 0.950 . S
C1037 C1034 1.387 . S
C1038 C1039 1.387 . S
C1038 H1042 0.950 . S
C1038 C1047 1.390 1_455 S
C1039 C1038 1.387 . S
C1039 C1041 1.387 . S
H1040 C1047 0.950 . S
C1041 C1039 1.387 . S
C1041 C1043 1.390 1_455 S
C1041 H1045 0.950 . S
H1042 C1038 0.950 . S
C1043 C1041 1.390 1_655 S
C1043 C1044 1.387 . S
C1043 H1046 0.950 . S
C1044 C1043 1.387 . S
C1044 C1047 1.387 . S
H1045 C1041 0.950 . S
H1046 C1043 0.950 . S
C1047 C1038 1.390 1_655 S
C1047 H1040 0.950 . S
C1047 C1044 1.387 . S
C1048 C1049 1.387 . S
C1048 H1052 0.950 . S
C1048 C1057 1.390 . S
C1049 C1048 1.387 . S
C1049 C1051 1.387 . S
H1050 C1057 0.950 . S
C1051 C1049 1.387 . S
C1051 C1053 1.390 . S
C1051 H1055 0.950 . S
H1052 C1048 0.950 . S
C1053 C1051 1.390 . S
C1053 C1054 1.387 . S
C1053 H1056 0.950 1_554 S
C1054 C1053 1.387 . S
C1054 C1057 1.387 . S
H1055 C1051 0.950 . S
H1056 C1053 0.950 1_556 S
C1057 C1048 1.390 . S
C1057 H1050 0.950 . S
C1057 C1054 1.387 . S
C1058 C1059 1.387 . S
C1058 H1062 0.950 . S
C1058 C1067 1.390 1_655 S
C1059 C1058 1.387 . S
C1059 C1061 1.387 . S
H1060 C1067 0.950 . S
C1061 C1059 1.387 . S
C1061 C1063 1.390 1_655 S
C1061 H1065 0.950 . S
H1062 C1058 0.950 . S
C1063 C1061 1.390 1_455 S
C1063 C1064 1.387 . S
C1063 H1066 0.950 . S
C1064 C1063 1.387 . S
C1064 C1067 1.387 . S
H1065 C1061 0.950 . S
H1066 C1063 0.950 . S
C1067 C1058 1.390 1_455 S
C1067 H1060 0.950 . S
C1067 C1064 1.387 . S
C1068 C1069 1.387 . S
C1068 H1072 0.950 . S
C1068 C1077 1.390 . S
C1069 C1068 1.387 . S
C1069 C1071 1.387 . S
H1070 C1077 0.950 . S
C1071 C1069 1.387 . S
C1071 C1073 1.390 . S
C1071 H1075 0.950 . S
H1072 C1068 0.950 . S
C1073 C1071 1.390 . S
C1073 C1074 1.387 . S
C1073 H1076 0.950 . S
C1074 C1073 1.387 . S
C1074 C1077 1.387 . S
H1075 C1071 0.950 . S
H1076 C1073 0.950 . S
C1077 C1068 1.390 . S
C1077 H1070 0.950 . S
C1077 C1074 1.387 . S
C1078 C1079 1.387 . S
C1078 H1082 0.950 . S
C1078 C1087 1.390 . S
C1079 C1078 1.387 . S
C1079 C1081 1.387 . S
H1080 C1087 0.950 . S
C1081 C1079 1.387 . S
C1081 C1083 1.390 . S
C1081 H1085 0.950 . S
H1082 C1078 0.950 . S
C1083 C1081 1.390 . S
C1083 C1084 1.387 . S
C1083 H1086 0.950 . S
C1084 C1083 1.387 . S
C1084 C1087 1.387 . S
H1085 C1081 0.950 . S
H1086 C1083 0.950 . S
C1087 C1078 1.390 . S
C1087 H1080 0.950 . S
C1087 C1084 1.387 . S
C449 C91 1.363 . S
C454 C7 1.363 . S
C459 C21 1.366 . S
C464 C105 1.366 . S
C469 C63 1.363 . S
C474 C35 1.363 . S
C479 C49 1.366 . S
C484 C77 1.366 . S
C489 C203 1.366 . S
C494 C119 1.366 . S
C499 C133 1.366 . S
C504 C217 1.366 . S
C509 C175 1.366 . S
C514 C147 1.366 . S
C519 C161 1.366 . S
C524 C189 1.366 . S
C529 C231 1.366 . S
C534 C315 1.366 . S
C539 C329 1.363 . S
C544 C245 1.363 . S
C549 C259 1.363 . S
C554 C287 1.363 . S
C559 C301 1.363 . S
C564 C273 1.363 . S
C569 C427 1.363 . S
C574 C343 1.363 . S
C579 C441 1.363 . S
C584 C357 1.363 . S
C589 C399 1.366 . S
C594 C371 1.366 . S
C599 C385 1.363 . S
C604 C413 1.363 . S
C609 C104 1.172 . S
C614 C6 1.176 . S
C619 C62 1.176 . S
C624 C20 1.172 . S
C629 C76 1.176 . S
C634 C34 1.174 . S
C639 C90 1.173 . S
C644 C48 1.176 . S
C649 C216 1.175 . S
C654 C118 1.174 . S
C659 C174 1.173 . S
C664 C132 1.176 . S
C669 C188 1.176 . S
C674 C146 1.173 . S
C679 C160 1.172 . S
C684 C202 1.176 . S
C689 C328 1.176 . S
C694 C230 1.173 . S
C699 C244 1.174 . S
C704 C286 1.175 . S
C709 C258 1.176 . S
C714 C300 1.173 . S
C719 C314 1.174 . S
C724 C272 1.175 . S
C729 C440 1.172 . S
C734 C342 1.176 . S
C739 C356 1.176 . S
C744 C398 1.173 . S
C749 C370 1.174 . S
C754 C412 1.176 . S
C759 C426 1.176 . S
C764 C384 1.172 . S
C769 C8 1.568 . S
C774 C429 1.526 1_554 S
C779 C219 1.526 . S
C784 C22 1.568 . S
C789 C401 1.525 . S
C794 C36 1.568 . S
C799 C191 1.526 . S
C804 C50 1.568 . S
C809 C373 1.525 . S
C814 C64 1.568 . S
C819 C78 1.568 . S
C824 C163 1.525 . S
C829 C92 1.568 . S
C834 C345 1.526 1_556 S
C839 C106 1.568 . S
C844 C135 1.526 . S
C849 C120 1.568 . S
C854 C317 1.525 1_556 S
C859 C107 1.525 . S
C864 C134 1.568 . S
C869 C289 1.526 . S
C874 C148 1.569 . S
C879 C79 1.527 . S
C884 C162 1.568 . S
C889 C261 1.525 . S
C894 C176 1.568 . S
C899 C51 1.526 . S
C904 C190 1.568 . S
C909 C204 1.568 . S
C914 C233 1.526 1_554 S
C919 C23 1.526 . S
C924 C218 1.568 . S
C929 C205 1.525 . S
C934 C232 1.568 . S
C939 C443 1.525 . S
C944 C246 1.568 . S
C949 C260 1.568 . S
C954 C177 1.526 1_554 S
C959 C274 1.568 . S
C964 C415 1.525 . S
C969 C288 1.569 . S
C974 C149 1.527 1_556 S
C979 C302 1.568 . S
C984 C387 1.525 . S
C989 C316 1.568 . S
C994 C121 1.525 . S
C999 C330 1.568 . S
C1004 C359 1.526 . S
C1009 C93 1.525 . S
C1014 C344 1.568 . S
C1019 C331 1.525 . S
C1024 C358 1.568 . S
C1029 C65 1.526 1_556 S
C1034 C372 1.568 . S
C1039 C386 1.568 . S
C1044 C303 1.525 . S
C1049 C400 1.569 . S
C1054 C37 1.526 1_554 S
C1059 C275 1.526 . S
C1064 C414 1.568 . S
C1069 C428 1.568 . S
C1074 C9 1.526 . S
C1079 C442 1.568 . S
C1084 C247 1.525 . S
