# Generated by pormake.
# Topology zfn, (5)-cn, num edge types: 1
# Building blocks:
#     Node 0, Type 0, BuildingBlock: BEQFEK_clean_sbu_0, # of connection points: 5
#     Node 1, Type 0, BuildingBlock: BEQFEK_clean_sbu_0, # of connection points: 5
#     Node 2, Type 0, BuildingBlock: BEQFEK_clean_sbu_0, # of connection points: 5
#     Node 3, Type 0, BuildingBlock: BEQFEK_clean_sbu_0, # of connection points: 5
#     Node 4, Type 0, BuildingBlock: BEQFEK_clean_sbu_0, # of connection points: 5
#     Node 5, Type 0, BuildingBlock: BEQFEK_clean_sbu_0, # of connection points: 5
#     Node 6, Type 0, BuildingBlock: BEQFEK_clean_sbu_0, # of connection points: 5
#     Node 7, Type 0, BuildingBlock: BEQFEK_clean_sbu_0, # of connection points: 5
#     Node 8, Type 0, BuildingBlock: BEQFEK_clean_sbu_0, # of connection points: 5
#     Node 9, Type 0, BuildingBlock: BEQFEK_clean_sbu_0, # of connection points: 5
#     Node 10, Type 0, BuildingBlock: BEQFEK_clean_sbu_0, # of connection points: 5
#     Node 11, Type 0, BuildingBlock: BEQFEK_clean_sbu_0, # of connection points: 5
#     Node 12, Type 0, BuildingBlock: BEQFEK_clean_sbu_0, # of connection points: 5
#     Node 13, Type 0, BuildingBlock: BEQFEK_clean_sbu_0, # of connection points: 5
#     Node 14, Type 0, BuildingBlock: BEQFEK_clean_sbu_0, # of connection points: 5
#     Node 15, Type 0, BuildingBlock: BEQFEK_clean_sbu_0, # of connection points: 5
#     Edge 16, Type (0, 0), BuildingBlock: XUDNAN_clean_linker_2, # of connection points: 2
#     Edge 17, Type (0, 0), BuildingBlock: XUDNAN_clean_linker_2, # of connection points: 2
#     Edge 18, Type (0, 0), BuildingBlock: XUDNAN_clean_linker_2, # of connection points: 2
#     Edge 19, Type (0, 0), BuildingBlock: XUDNAN_clean_linker_2, # of connection points: 2
#     Edge 20, Type (0, 0), BuildingBlock: XUDNAN_clean_linker_2, # of connection points: 2
#     Edge 21, Type (0, 0), BuildingBlock: XUDNAN_clean_linker_2, # of connection points: 2
#     Edge 22, Type (0, 0), BuildingBlock: XUDNAN_clean_linker_2, # of connection points: 2
#     Edge 23, Type (0, 0), BuildingBlock: XUDNAN_clean_linker_2, # of connection points: 2
#     Edge 24, Type (0, 0), BuildingBlock: XUDNAN_clean_linker_2, # of connection points: 2
#     Edge 25, Type (0, 0), BuildingBlock: XUDNAN_clean_linker_2, # of connection points: 2
#     Edge 26, Type (0, 0), BuildingBlock: XUDNAN_clean_linker_2, # of connection points: 2
#     Edge 27, Type (0, 0), BuildingBlock: XUDNAN_clean_linker_2, # of connection points: 2
#     Edge 28, Type (0, 0), BuildingBlock: XUDNAN_clean_linker_2, # of connection points: 2
#     Edge 29, Type (0, 0), BuildingBlock: XUDNAN_clean_linker_2, # of connection points: 2
#     Edge 30, Type (0, 0), BuildingBlock: XUDNAN_clean_linker_2, # of connection points: 2
#     Edge 31, Type (0, 0), BuildingBlock: XUDNAN_clean_linker_2, # of connection points: 2
#     Edge 32, Type (0, 0), BuildingBlock: XUDNAN_clean_linker_2, # of connection points: 2
#     Edge 33, Type (0, 0), BuildingBlock: XUDNAN_clean_linker_2, # of connection points: 2
#     Edge 34, Type (0, 0), BuildingBlock: XUDNAN_clean_linker_2, # of connection points: 2
#     Edge 35, Type (0, 0), BuildingBlock: XUDNAN_clean_linker_2, # of connection points: 2
#     Edge 36, Type (0, 0), BuildingBlock: XUDNAN_clean_linker_2, # of connection points: 2
#     Edge 37, Type (0, 0), BuildingBlock: XUDNAN_clean_linker_2, # of connection points: 2
#     Edge 38, Type (0, 0), BuildingBlock: XUDNAN_clean_linker_2, # of connection points: 2
#     Edge 39, Type (0, 0), BuildingBlock: XUDNAN_clean_linker_2, # of connection points: 2
#     Edge 40, Type (0, 0), BuildingBlock: XUDNAN_clean_linker_2, # of connection points: 2
#     Edge 41, Type (0, 0), BuildingBlock: XUDNAN_clean_linker_2, # of connection points: 2
#     Edge 42, Type (0, 0), BuildingBlock: XUDNAN_clean_linker_2, # of connection points: 2
#     Edge 43, Type (0, 0), BuildingBlock: XUDNAN_clean_linker_2, # of connection points: 2
#     Edge 44, Type (0, 0), BuildingBlock: XUDNAN_clean_linker_2, # of connection points: 2
#     Edge 45, Type (0, 0), BuildingBlock: XUDNAN_clean_linker_2, # of connection points: 2
#     Edge 46, Type (0, 0), BuildingBlock: XUDNAN_clean_linker_2, # of connection points: 2
#     Edge 47, Type (0, 0), BuildingBlock: XUDNAN_clean_linker_2, # of connection points: 2
#     Edge 48, Type (0, 0), BuildingBlock: XUDNAN_clean_linker_2, # of connection points: 2
#     Edge 49, Type (0, 0), BuildingBlock: XUDNAN_clean_linker_2, # of connection points: 2
#     Edge 50, Type (0, 0), BuildingBlock: XUDNAN_clean_linker_2, # of connection points: 2
#     Edge 51, Type (0, 0), BuildingBlock: XUDNAN_clean_linker_2, # of connection points: 2
#     Edge 52, Type (0, 0), BuildingBlock: XUDNAN_clean_linker_2, # of connection points: 2
#     Edge 53, Type (0, 0), BuildingBlock: XUDNAN_clean_linker_2, # of connection points: 2
#     Edge 54, Type (0, 0), BuildingBlock: XUDNAN_clean_linker_2, # of connection points: 2
#     Edge 55, Type (0, 0), BuildingBlock: XUDNAN_clean_linker_2, # of connection points: 2
# Relax obj value: 0.138
# Max RMSD: 0.173
# Mean RMSD: 0.173
data_MOF--net-zfn--node1-BEQFEK_clean_sbu_0--edge1-XUDNAN_clean_linker_2
_symmetry_space_group_name_H-M    P1
_symmetry_Int_Tables_number       1
_symmetry_cell_setting            triclinic
loop_
_symmetry_equiv_pos_as_xyz
'x, y, z'
_cell_length_a     73.992799
_cell_length_b     73.984668
_cell_length_c     18.978447
_cell_angle_alpha  90.004926
_cell_angle_beta   90.005814
_cell_angle_gamma 89.998906
loop_
_atom_site_label
_atom_site_type_symbol
_atom_site_fract_x
_atom_site_fract_y
_atom_site_fract_z
_atom_type_partial_charge
Co0 Co 0.99862 0.35889 0.04789 0.0
Co1 Co 0.01163 0.36726 0.20218 0.0
C2 C 0.97745 0.38337 0.13884 0.0
O3 O 0.97899 0.37533 0.07989 0.0
O4 O 0.98912 0.38122 0.18738 0.0
C5 C 0.97981 0.35469 0.91579 0.0
O6 O 0.96621 0.36216 0.94942 0.0
C7 C 0.00306 0.36465 0.35036 0.0
C8 C 0.0285 0.37168 0.40444 0.0
C9 C 0.01067 0.36677 0.41672 0.0
N10 N 0.01569 0.36825 0.30151 0.0
N11 N 0.0309 0.3725 0.33403 0.0
C12 C 0.98455 0.35779 0.33279 0.0
H13 H 0.98421 0.35214 0.2787 0.0
H14 H 0.98029 0.34729 0.37112 0.0
H15 H 0.97477 0.3691 0.3352 0.0
C16 C 0.00137 0.32123 0.10102 0.0
N17 N 0.00218 0.33927 0.11026 0.0
N18 N 0.00833 0.34273 0.17398 0.0
C19 C 0.01164 0.32696 0.20718 0.0
C20 C 0.00716 0.31288 0.16242 0.0
C21 C 0.99608 0.3123 0.03345 0.0
H22 H 0.98347 0.31853 0.01312 0.0
H23 H 0.99411 0.29754 0.0406 0.0
H24 H 0.00685 0.31461 0.99376 0.0
O25 O 0.02138 0.37249 0.04117 0.0
O26 O 0.03182 0.37888 0.1481 0.0
H27 H 0.02665 0.31178 0.28512 0.0
H28 H 0.01001 0.3271 0.31953 0.0
C29 C 0.02039 0.3253 0.27801 0.0
H30 H 0.03087 0.33587 0.28448 0.0
H31 H 0.04289 0.37586 0.30826 0.0
O32 O 0.99417 0.35097 0.9495 0.0
C33 C 0.03327 0.37951 0.08113 0.0
Co34 Co 0.14203 0.99975 0.5737 0.0
Co35 Co 0.13144 0.01613 0.72136 0.0
C36 C 0.11818 0.97937 0.66905 0.0
O37 O 0.12679 0.97983 0.61085 0.0
O38 O 0.11903 0.99238 0.713 0.0
C39 C 0.14014 0.99086 0.42995 0.0
O40 O 0.12334 0.98754 0.44828 0.0
C41 C 0.1321 0.01356 0.87534 0.0
C42 C 0.12953 0.04207 0.90818 0.0
C43 C 0.13227 0.02475 0.9338 0.0
N44 N 0.12944 0.02376 0.81756 0.0
N45 N 0.12754 0.04076 0.83774 0.0
C46 C 0.13675 0.99388 0.87367 0.0
H47 H 0.14161 0.98988 0.82061 0.0
H48 H 0.14723 0.99073 0.91366 0.0
H49 H 0.12449 0.98592 0.88669 0.0
C50 C 0.17889 0.00512 0.632 0.0
N51 N 0.16075 0.00593 0.63733 0.0
N52 N 0.15638 0.0137 0.69741 0.0
C53 C 0.17167 0.01839 0.73152 0.0
C54 C 0.18639 0.01302 0.69149 0.0
C55 C 0.1887 0.99793 0.56908 0.0
H56 H 0.18678 0.00739 0.5243 0.0
H57 H 0.18282 0.98471 0.55359 0.0
H58 H 0.20337 0.9964 0.5796 0.0
O59 O 0.12664 0.02101 0.5571 0.0
O60 O 0.1191 0.03395 0.65824 0.0
H61 H 0.16281 0.03945 0.80086 0.0
H62 H 0.18602 0.03274 0.81424 0.0
C63 C 0.17226 0.02784 0.80125 0.0
H64 H 0.16808 0.01829 0.8431 0.0
H65 H 0.12583 0.05158 0.80312 0.0
O66 O 0.15156 0.99469 0.47782 0.0
C67 C 0.11858 0.03342 0.59112 0.0
Co68 Co 0.50326 0.14709 0.02765 0.0
Co69 Co 0.49429 0.1342 0.18221 0.0
C70 C 0.52841 0.12298 0.10574 0.0
O71 O 0.52446 0.13243 0.05198 0.0
O72 O 0.51784 0.12213 0.15866 0.0
C73 C 0.52113 0.15545 0.89709 0.0
O74 O 0.53575 0.15124 0.93275 0.0
C75 C 0.50368 0.13458 0.33124 0.0
C76 C 0.47808 0.12741 0.38402 0.0
C77 C 0.49583 0.13248 0.39747 0.0
N78 N 0.49115 0.13106 0.28174 0.0
N79 N 0.47593 0.12655 0.31357 0.0
C80 C 0.52215 0.1416 0.31405 0.0
H81 H 0.52243 0.14735 0.26007 0.0
H82 H 0.52633 0.15213 0.35238 0.0
H83 H 0.53197 0.13029 0.31618 0.0
C84 C 0.5012 0.18305 0.09515 0.0
N85 N 0.49956 0.16493 0.09666 0.0
N86 N 0.49501 0.15972 0.1607 0.0
C87 C 0.49313 0.1746 0.20129 0.0
C88 C 0.49716 0.18975 0.16145 0.0
C89 C 0.5077 0.19345 0.03256 0.0
H90 H 0.52105 0.18812 0.01586 0.0
H91 H 0.50882 0.20811 0.04424 0.0
H92 H 0.49818 0.19137 0.98813 0.0
O93 O 0.48181 0.13155 0.02238 0.0
O94 O 0.47424 0.12192 0.1291 0.0
H95 H 0.48141 0.18784 0.29153 0.0
H96 H 0.49966 0.17271 0.31075 0.0
C97 C 0.48759 0.17467 0.2771 0.0
H98 H 0.47771 0.16374 0.2874 0.0
H99 H 0.46393 0.12346 0.28728 0.0
O100 O 0.50611 0.15638 0.92948 0.0
C101 C 0.47148 0.12253 0.06276 0.0
Co102 Co 0.35941 0.50418 0.58544 0.0
Co103 Co 0.36994 0.48846 0.73403 0.0
C104 C 0.38371 0.52468 0.67954 0.0
O105 O 0.37509 0.52394 0.62142 0.0
O106 O 0.38271 0.51197 0.72475 0.0
C107 C 0.36119 0.51349 0.44208 0.0
O108 O 0.37796 0.51696 0.46038 0.0
C109 C 0.36986 0.49099 0.88814 0.0
C110 C 0.37146 0.46235 0.92013 0.0
C111 C 0.36935 0.4797 0.94628 0.0
N112 N 0.37205 0.4808 0.83004 0.0
N113 N 0.37341 0.46371 0.84972 0.0
C114 C 0.36582 0.51081 0.887 0.0
H115 H 0.36096 0.51502 0.8342 0.0
H116 H 0.35553 0.51425 0.9274 0.0
H117 H 0.37835 0.51837 0.89971 0.0
C118 C 0.3225 0.49907 0.64364 0.0
N119 N 0.34065 0.49846 0.64955 0.0
N120 N 0.34499 0.49118 0.71058 0.0
C121 C 0.32968 0.48673 0.74506 0.0
C122 C 0.31496 0.4916 0.70393 0.0
C123 C 0.31279 0.50544 0.57913 0.0
H124 H 0.3158 0.49608 0.53493 0.0
H125 H 0.31788 0.51901 0.56407 0.0
H126 H 0.29796 0.50598 0.58737 0.0
O127 O 0.37425 0.48253 0.56897 0.0
O128 O 0.38178 0.47024 0.67134 0.0
H129 H 0.33787 0.46598 0.81696 0.0
H130 H 0.31523 0.47421 0.83217 0.0
C131 C 0.3291 0.47812 0.81644 0.0
H132 H 0.33418 0.48786 0.85601 0.0
H133 H 0.37466 0.45289 0.81476 0.0
O134 O 0.34985 0.50938 0.48986 0.0
C135 C 0.38213 0.47023 0.60419 0.0
Co136 Co 1.00051 0.14187 0.4315 0.0
Co137 Co 0.00458 0.13067 0.27313 0.0
C138 C 0.97235 0.11956 0.35768 0.0
O139 O 0.97831 0.12788 0.4115 0.0
O140 O 0.98117 0.11938 0.30014 0.0
C141 C 0.98293 0.15307 0.55819 0.0
O142 O 0.96829 0.15168 0.5194 0.0
C143 C 0.99481 0.13086 0.12397 0.0
C144 C 0.02074 0.12417 0.07254 0.0
C145 C 0.00297 0.12893 0.05826 0.0
N146 N 0.00729 0.12767 0.17396 0.0
N147 N 0.02267 0.12337 0.14296 0.0
C148 C 0.97614 0.13746 0.14025 0.0
H149 H 0.97546 0.14282 0.1948 0.0
H150 H 0.97203 0.1482 0.10271 0.0
H151 H 0.9665 0.12602 0.13583 0.0
C152 C 0.00604 0.17849 0.37011 0.0
N153 N 0.00391 0.16046 0.36405 0.0
N154 N 0.00571 0.15578 0.29745 0.0
C155 C 0.00924 0.17072 0.25908 0.0
C156 C 0.00958 0.18561 0.30377 0.0
C157 C 0.00583 0.18837 0.43887 0.0
H158 H 0.0144 0.18109 0.47756 0.0
H159 H 0.99182 0.18852 0.45973 0.0
H160 H 0.01074 0.20246 0.43315 0.0
O161 O 0.02157 0.12529 0.43213 0.0
O162 O 0.02468 0.1175 0.31983 0.0
H163 H 0.02261 0.16098 0.16637 0.0
H164 H 0.01545 0.18426 0.15987 0.0
C165 C 0.0119 0.17077 0.1808 0.0
H166 H 0.99915 0.16666 0.15504 0.0
H167 H 0.03464 0.12052 0.16986 0.0
O168 O 0.99829 0.15098 0.52933 0.0
C169 C 0.02977 0.11659 0.38389 0.0
Co170 Co 0.3621 0.00253 0.92819 0.0
Co171 Co 0.3676 0.0106 0.77015 0.0
C172 C 0.38183 0.97653 0.83738 0.0
O173 O 0.37577 0.98082 0.89783 0.0
O174 O 0.3796 0.98681 0.78425 0.0
C175 C 0.3495 0.98588 0.05876 0.0
O176 O 0.34532 0.97113 0.02384 0.0
C177 C 0.36433 0.00412 0.62015 0.0
C178 C 0.36367 0.03182 0.57661 0.0
C179 C 0.36182 0.01378 0.55852 0.0
N180 N 0.36691 0.01593 0.67275 0.0
N181 N 0.36682 0.03246 0.64642 0.0
C182 C 0.36538 0.98408 0.62951 0.0
H183 H 0.37909 0.98076 0.64892 0.0
H184 H 0.35548 0.9797 0.66996 0.0
H185 H 0.36326 0.97654 0.57983 0.0
C186 C 0.32326 0.00744 0.88686 0.0
N187 N 0.34112 0.00658 0.87235 0.0
N188 N 0.34358 0.01003 0.80502 0.0
C189 C 0.3274 0.01313 0.77463 0.0
C190 C 0.31407 0.01154 0.82526 0.0
C191 C 0.31526 0.00532 0.9587 0.0
H192 H 0.32313 0.01337 0.9973 0.0
H193 H 0.31603 0.99091 0.97443 0.0
H194 H 0.3009 0.00965 0.95971 0.0
O195 O 0.37817 0.02401 0.92882 0.0
O196 O 0.3816 0.03017 0.81553 0.0
H197 H 0.33223 0.0302 0.68565 0.0
H198 H 0.31011 0.01997 0.68612 0.0
C199 C 0.32459 0.01776 0.69863 0.0
H200 H 0.32962 0.00653 0.66541 0.0
H201 H 0.36823 0.04419 0.6765 0.0
O202 O 0.35576 0.99952 0.02661 0.0
C203 C 0.38473 0.03374 0.87994 0.0
Co204 Co 0.49913 0.36033 0.4556 0.0
Co205 Co 0.49428 0.36972 0.29642 0.0
C206 C 0.5259 0.38347 0.37871 0.0
O207 O 0.52038 0.37533 0.43359 0.0
O208 O 0.5171 0.38268 0.32118 0.0
C209 C 0.51767 0.35045 0.58173 0.0
O210 O 0.53213 0.35245 0.54236 0.0
C211 C 0.50405 0.36924 0.14779 0.0
C212 C 0.47774 0.3738 0.09563 0.0
C213 C 0.49585 0.37034 0.08196 0.0
N214 N 0.49133 0.37174 0.19735 0.0
N215 N 0.47568 0.37471 0.16595 0.0
C216 C 0.52319 0.36428 0.16465 0.0
H217 H 0.52423 0.35902 0.21925 0.0
H218 H 0.52829 0.35394 0.12727 0.0
H219 H 0.5318 0.37651 0.16051 0.0
C220 C 0.49828 0.32298 0.39935 0.0
N221 N 0.49717 0.341 0.39093 0.0
N222 N 0.4949 0.34475 0.32369 0.0
C223 C 0.49413 0.32906 0.28726 0.0
C224 C 0.49645 0.31475 0.33397 0.0
C225 C 0.50111 0.3139 0.46891 0.0
H226 H 0.49197 0.31993 0.5088 0.0
H227 H 0.51523 0.3162 0.48643 0.0
H228 H 0.49853 0.29914 0.46558 0.0
O229 O 0.4772 0.37568 0.45481 0.0
O230 O 0.47355 0.38222 0.34163 0.0
H231 H 0.482 0.33738 0.18987 0.0
H232 H 0.48896 0.31409 0.19064 0.0
C233 C 0.49248 0.32785 0.20873 0.0
H234 H 0.50559 0.33147 0.18448 0.0
H235 H 0.46352 0.37682 0.19256 0.0
O236 O 0.50214 0.352 0.55376 0.0
C237 C 0.46853 0.38352 0.40564 0.0
Co238 Co 0.13756 0.50072 0.92292 0.0
Co239 Co 0.13326 0.48978 0.76663 0.0
C240 C 0.11549 0.52319 0.82865 0.0
O241 O 0.12248 0.5211 0.88933 0.0
O242 O 0.11845 0.5119 0.77946 0.0
C243 C 0.1487 0.51852 0.05426 0.0
O244 O 0.1527 0.53327 0.01907 0.0
C245 C 0.13982 0.49737 0.61873 0.0
C246 C 0.13431 0.47102 0.56827 0.0
C247 C 0.13998 0.48853 0.55429 0.0
N248 N 0.13466 0.48551 0.66844 0.0
N249 N 0.13131 0.46981 0.63804 0.0
C250 C 0.14404 0.51684 0.63312 0.0
H251 H 0.1384 0.52123 0.68418 0.0
H252 H 0.15888 0.51871 0.63583 0.0
H253 H 0.13865 0.52554 0.59037 0.0
C254 C 0.17681 0.49792 0.88424 0.0
N255 N 0.159 0.49768 0.86865 0.0
N256 N 0.15697 0.49244 0.80285 0.0
C257 C 0.17334 0.48884 0.77503 0.0
C258 C 0.1864 0.49248 0.82516 0.0
C259 C 0.18441 0.50183 0.95562 0.0
H260 H 0.17712 0.49377 0.99584 0.0
H261 H 0.18241 0.51634 0.96785 0.0
H262 H 0.19907 0.49871 0.95814 0.0
O263 O 0.12306 0.47801 0.92379 0.0
O264 O 0.1211 0.46917 0.81245 0.0
H265 H 0.16628 0.46997 0.69362 0.0
H266 H 0.19016 0.47469 0.69931 0.0
C267 C 0.17645 0.48064 0.70387 0.0
H268 H 0.17519 0.49124 0.66303 0.0
H269 H 0.12715 0.45824 0.66499 0.0
O270 O 0.14306 0.50459 0.02217 0.0
C271 C 0.11777 0.46672 0.87756 0.0
Co272 Co 1.00025 0.64015 0.92262 0.0
Co273 Co 0.9873 0.63314 0.76924 0.0
C274 C 0.0216 0.61666 0.82668 0.0
O275 O 0.01982 0.62417 0.88673 0.0
O276 O 0.00998 0.61903 0.77797 0.0
C277 C 0.0115 0.63796 0.06448 0.0
O278 O 0.01497 0.62113 0.04694 0.0
C279 C 0.98994 0.63376 0.61618 0.0
C280 C 0.96125 0.63551 0.58441 0.0
C281 C 0.97872 0.63569 0.55849 0.0
N282 N 0.97958 0.63258 0.67404 0.0
N283 N 0.96243 0.63325 0.65466 0.0
C284 C 0.01009 0.63544 0.6173 0.0
H285 H 0.01478 0.6404 0.66935 0.0
H286 H 0.01481 0.64475 0.57527 0.0
H287 H 0.01611 0.62195 0.60738 0.0
C288 C 0.99725 0.67835 0.87376 0.0
N289 N 0.99644 0.66036 0.86248 0.0
N290 N 0.9908 0.6574 0.79778 0.0
C291 C 0.9877 0.6734 0.76602 0.0
C292 C 0.99168 0.68717 0.813 0.0
C293 C 0.00191 0.68677 0.94305 0.0
H294 H 0.99183 0.68252 0.98304 0.0
H295 H 0.01533 0.68181 0.96055 0.0
H296 H 0.00211 0.70175 0.93977 0.0
O297 O 0.97756 0.62596 0.93547 0.0
O298 O 0.96799 0.62196 0.82589 0.0
H299 H 0.96758 0.66864 0.68723 0.0
H300 H 0.97922 0.68995 0.67744 0.0
C301 C 0.9808 0.67555 0.69233 0.0
H302 H 0.99045 0.66926 0.65518 0.0
H303 H 0.95157 0.63309 0.68975 0.0
O304 O 0.00618 0.64888 0.01735 0.0
C305 C 0.96595 0.6199 0.89195 0.0
Co306 Co 0.85672 0.99828 0.4447 0.0
Co307 Co 0.86954 0.992 0.29027 0.0
C308 C 0.87946 0.02569 0.36655 0.0
O309 O 0.87061 0.0205 0.42062 0.0
O310 O 0.88039 0.01595 0.31118 0.0
C311 C 0.85276 0.01066 0.58568 0.0
O312 O 0.86208 0.02479 0.5651 0.0
C313 C 0.87595 0.99343 0.13522 0.0
C314 C 0.87345 0.96426 0.11161 0.0
C315 C 0.87585 0.98098 0.08014 0.0
N316 N 0.87324 0.98437 0.19582 0.0
N317 N 0.87206 0.96696 0.18124 0.0
C318 C 0.87895 0.01341 0.13128 0.0
H319 H 0.88578 0.01827 0.17959 0.0
H320 H 0.8657 0.02036 0.12723 0.0
H321 H 0.88732 0.01697 0.0848 0.0
C322 C 0.82071 0.99168 0.37792 0.0
N323 N 0.83885 0.9935 0.37557 0.0
N324 N 0.84431 0.99185 0.30993 0.0
C325 C 0.8298 0.98937 0.26816 0.0
C326 C 0.81435 0.98889 0.30976 0.0
C327 C 0.80994 0.99183 0.4446 0.0
H328 H 0.8174 0.98456 0.48662 0.0
H329 H 0.80804 0.00603 0.46193 0.0
H330 H 0.7965 0.98545 0.43711 0.0
O331 O 0.87352 0.97764 0.45541 0.0
O332 O 0.88205 0.97312 0.34536 0.0
H333 H 0.83515 0.97533 0.1719 0.0
H334 H 0.81721 0.99178 0.16543 0.0
C335 C 0.83058 0.98888 0.18934 0.0
H336 H 0.84032 0.99912 0.17023 0.0
H337 H 0.86976 0.95694 0.21888 0.0
O338 O 0.84644 0.99988 0.53984 0.0
C339 C 0.88259 0.96888 0.41014 0.0
Co340 Co 0.50068 0.86263 0.92549 0.0
Co341 Co 0.50857 0.86943 0.76664 0.0
C342 C 0.47473 0.88317 0.83716 0.0
O343 O 0.47904 0.87683 0.89714 0.0
O344 O 0.48493 0.88108 0.78389 0.0
C345 C 0.48202 0.85354 0.05312 0.0
O346 O 0.46733 0.85619 0.01563 0.0
C347 C 0.49954 0.86565 0.61928 0.0
C348 C 0.52473 0.87345 0.5648 0.0
C349 C 0.50715 0.86764 0.55292 0.0
N350 N 0.512 0.87008 0.66768 0.0
N351 N 0.52701 0.87485 0.63499 0.0
C352 C 0.48135 0.85814 0.6376 0.0
H353 H 0.48124 0.85295 0.69245 0.0
H354 H 0.47758 0.84713 0.60072 0.0
H355 H 0.47112 0.86903 0.6335 0.0
C356 C 0.50549 0.82434 0.87821 0.0
N357 N 0.5046 0.84227 0.86574 0.0
N358 N 0.50869 0.8453 0.7993 0.0
C359 C 0.51274 0.82949 0.7678 0.0
C360 C 0.51073 0.81568 0.81655 0.0
C361 C 0.50247 0.81591 0.94883 0.0
H362 H 0.51205 0.82185 0.98741 0.0
H363 H 0.48858 0.81908 0.96704 0.0
H364 H 0.50435 0.80103 0.94715 0.0
O365 O 0.5223 0.87875 0.92624 0.0
O366 O 0.52812 0.88322 0.81279 0.0
H367 H 0.52875 0.83815 0.67983 0.0
H368 H 0.5243 0.81415 0.68101 0.0
C369 C 0.51856 0.82766 0.69252 0.0
H370 H 0.5067 0.82959 0.65777 0.0
H371 H 0.53884 0.87887 0.66056 0.0
O372 O 0.49738 0.85487 0.02378 0.0
C373 C 0.53185 0.88579 0.87756 0.0
Co374 Co 0.64416 0.50346 0.45034 0.0
Co375 Co 0.63101 0.51034 0.29558 0.0
C376 C 0.61852 0.47818 0.38029 0.0
O377 O 0.6283 0.4827 0.43253 0.0
O378 O 0.61799 0.48777 0.32452 0.0
C379 C 0.656 0.48698 0.58147 0.0
O380 O 0.65498 0.47138 0.54866 0.0
C381 C 0.62917 0.5012 0.14514 0.0
C382 C 0.62949 0.52829 0.0963 0.0
C383 C 0.63077 0.51002 0.08061 0.0
N384 N 0.62792 0.51374 0.19631 0.0
N385 N 0.6276 0.52987 0.16656 0.0
C386 C 0.62861 0.48126 0.15872 0.0
H387 H 0.61817 0.4782 0.1987 0.0
H388 H 0.64184 0.47671 0.17978 0.0
H389 H 0.62529 0.47359 0.1102 0.0
C390 C 0.67997 0.50268 0.38161 0.0
N391 N 0.66193 0.50505 0.38017 0.0
N392 N 0.65663 0.5082 0.315 0.0
C393 C 0.67139 0.50803 0.273 0.0
C394 C 0.68653 0.50441 0.31361 0.0
C395 C 0.69038 0.49755 0.44611 0.0
H396 H 0.68759 0.50745 0.48864 0.0
H397 H 0.6857 0.48412 0.46469 0.0
H398 H 0.70512 0.497 0.43569 0.0
O399 O 0.6301 0.52581 0.45299 0.0
O400 O 0.62 0.53167 0.34549 0.0
H401 H 0.66272 0.52313 0.1829 0.0
H402 H 0.6852 0.51407 0.17535 0.0
C403 C 0.67136 0.51135 0.19525 0.0
H404 H 0.66608 0.49925 0.16777 0.0
H405 H 0.62721 0.54201 0.19453 0.0
O406 O 0.65358 0.50154 0.5473 0.0
C407 C 0.62128 0.53572 0.41058 0.0
Co408 Co 0.00329 0.86199 0.58724 0.0
Co409 Co 0.98931 0.871 0.74 0.0
C410 C 0.02428 0.88625 0.67884 0.0
O411 O 0.02311 0.87786 0.62052 0.0
O412 O 0.01214 0.88465 0.72591 0.0
C413 C 0.02164 0.85868 0.45391 0.0
O414 O 0.03487 0.86696 0.48687 0.0
C415 C 0.99772 0.86872 0.88838 0.0
C416 C 0.97216 0.87545 0.94214 0.0
C417 C 0.99005 0.87078 0.9547 0.0
N418 N 0.98508 0.87211 0.83934 0.0
N419 N 0.9698 0.87619 0.87168 0.0
C420 C 0.01632 0.86209 0.87092 0.0
H421 H 0.01657 0.85589 0.81773 0.0
H422 H 0.02097 0.85208 0.9105 0.0
H423 H 0.02583 0.87367 0.87085 0.0
C424 C 1.0 0.82453 0.64207 0.0
N425 N 0.99913 0.8426 0.64998 0.0
N426 N 0.99219 0.84637 0.71217 0.0
C427 C 0.98806 0.83078 0.74513 0.0
C428 C 0.99304 0.81646 0.70221 0.0
C429 C 0.00595 0.81533 0.57589 0.0
H430 H 0.0185 0.82179 0.55602 0.0
H431 H 0.00827 0.80068 0.58463 0.0
H432 H 0.99535 0.81707 0.53508 0.0
O433 O 0.98086 0.8762 0.57963 0.0
O434 O 0.96952 0.88288 0.6848 0.0
H435 H 0.97297 0.81605 0.82448 0.0
H436 H 0.98905 0.83212 0.85742 0.0
C437 C 0.97895 0.8296 0.81542 0.0
H438 H 0.96823 0.84001 0.8193 0.0
H439 H 0.95776 0.87935 0.84577 0.0
O440 O 0.00768 0.85401 0.48851 0.0
C441 C 0.96871 0.88349 0.61768 0.0
Co442 Co 0.64528 0.00423 0.02416 0.0
Co443 Co 0.633 0.99536 0.17907 0.0
C444 C 0.62196 0.02971 0.10416 0.0
O445 O 0.63118 0.02574 0.04982 0.0
O446 O 0.62117 0.01906 0.15683 0.0
C447 C 0.65391 0.02205 0.89367 0.0
O448 O 0.64997 0.03677 0.92914 0.0
C449 C 0.6348 0.00451 0.32758 0.0
C450 C 0.62601 0.97952 0.38109 0.0
C451 C 0.63227 0.99692 0.39394 0.0
N452 N 0.63031 0.99221 0.2785 0.0
N453 N 0.6249 0.97734 0.31071 0.0
C454 C 0.64296 0.02247 0.30986 0.0
H455 H 0.64858 0.02234 0.25567 0.0
H456 H 0.6538 0.026 0.34786 0.0
H457 H 0.63231 0.03301 0.31212 0.0
C458 C 0.68145 0.99874 0.08597 0.0
N459 N 0.66335 0.99979 0.09137 0.0
N460 N 0.6584 0.99563 0.15607 0.0
C461 C 0.67338 0.99168 0.1938 0.0
C462 C 0.68841 0.99367 0.1508 0.0
C463 C 0.69169 0.00223 0.01943 0.0
H464 H 0.68953 0.99077 0.98266 0.0
H465 H 0.68643 0.01463 0.99377 0.0
H466 H 0.70638 0.00375 0.02968 0.0
O467 O 0.62936 0.98312 0.01926 0.0
O468 O 0.62022 0.97545 0.12653 0.0
H469 H 0.66173 0.97518 0.27503 0.0
H470 H 0.68604 0.97702 0.27919 0.0
C471 C 0.67334 0.98442 0.26743 0.0
H472 H 0.67218 0.9958 0.30511 0.0
H473 H 0.62089 0.96557 0.28472 0.0
O474 O 0.65436 0.00699 0.92596 0.0
C475 C 0.62045 0.97281 0.06006 0.0
Co476 Co 0.5 0.64019 0.58636 0.0
Co477 Co 0.51322 0.633 0.73935 0.0
C478 C 0.47867 0.61681 0.68225 0.0
O479 O 0.4803 0.62442 0.62234 0.0
O480 O 0.49048 0.61899 0.7304 0.0
C481 C 0.48871 0.63828 0.44424 0.0
O482 O 0.48496 0.62149 0.46147 0.0
C483 C 0.51028 0.63409 0.89207 0.0
C484 C 0.53892 0.63474 0.92518 0.0
C485 C 0.52138 0.63568 0.95026 0.0
N486 N 0.52076 0.63236 0.83476 0.0
N487 N 0.53786 0.6324 0.85493 0.0
C488 C 0.49021 0.63647 0.88993 0.0
H489 H 0.48585 0.64139 0.83738 0.0
H490 H 0.48571 0.6461 0.93123 0.0
H491 H 0.48367 0.62325 0.90032 0.0
C492 C 0.50309 0.67831 0.63599 0.0
N493 N 0.50398 0.66031 0.6468 0.0
N494 N 0.5097 0.65728 0.71137 0.0
C495 C 0.51274 0.67326 0.74347 0.0
C496 C 0.50852 0.68704 0.69705 0.0
C497 C 0.49817 0.68688 0.56728 0.0
H498 H 0.50841 0.68316 0.52709 0.0
H499 H 0.48493 0.68156 0.54931 0.0
H500 H 0.49748 0.70182 0.57181 0.0
O501 O 0.52256 0.62578 0.57327 0.0
O502 O 0.53252 0.62185 0.68239 0.0
H503 H 0.53313 0.66751 0.82022 0.0
H504 H 0.52339 0.68979 0.82826 0.0
C505 C 0.52047 0.67543 0.81585 0.0
H506 H 0.51068 0.67026 0.85511 0.0
H507 H 0.54881 0.63172 0.82037 0.0
O508 O 0.4942 0.64906 0.4916 0.0
C509 C 0.5343 0.61972 0.61623 0.0
Co510 Co 0.86099 0.50023 0.05377 0.0
Co511 Co 0.86702 0.51146 0.21041 0.0
C512 C 0.88479 0.4783 0.14644 0.0
O513 O 0.87746 0.48074 0.08642 0.0
O514 O 0.88197 0.4892 0.19741 0.0
C515 C 0.85154 0.4821 0.92007 0.0
O516 O 0.85147 0.46633 0.95186 0.0
C517 C 0.868 0.50661 0.36316 0.0
C518 C 0.85641 0.53228 0.40149 0.0
C519 C 0.86164 0.51517 0.4231 0.0
N520 N 0.86588 0.51777 0.30802 0.0
N521 N 0.85941 0.53329 0.33154 0.0
C522 C 0.87635 0.4883 0.35796 0.0
H523 H 0.88951 0.4897 0.33063 0.0
H524 H 0.86749 0.47933 0.32629 0.0
H525 H 0.87889 0.48221 0.4104 0.0
C526 C 0.82268 0.49957 0.09958 0.0
N527 N 0.8404 0.50235 0.11172 0.0
N528 N 0.84282 0.50661 0.17837 0.0
C529 C 0.82665 0.50599 0.21142 0.0
C530 C 0.81332 0.50174 0.16247 0.0
C531 C 0.81492 0.49556 0.02847 0.0
H532 H 0.82158 0.50411 0.98817 0.0
H533 H 0.81754 0.48119 0.01519 0.0
H534 H 0.80015 0.4981 0.02696 0.0
O535 O 0.87359 0.52337 0.04989 0.0
O536 O 0.87845 0.53239 0.1595 0.0
H537 H 0.82547 0.52151 0.3063 0.0
H538 H 0.81088 0.50201 0.30672 0.0
C539 C 0.82422 0.50722 0.2896 0.0
H540 H 0.83473 0.49907 0.31618 0.0
H541 H 0.85599 0.54418 0.29923 0.0
O542 O 0.85456 0.49638 0.95503 0.0
C543 C 0.87973 0.53486 0.09329 0.0
H544 H 0.95592 0.401 0.04171 0.0
H545 H 0.9646 0.39405 0.26637 0.0
H546 H 0.94027 0.41572 0.29117 0.0
H547 H 0.94909 0.44826 0.04971 0.0
H548 H 0.93193 0.44905 0.98236 0.0
H549 H 0.9487 0.43142 0.98105 0.0
H550 H 0.92343 0.40719 0.98087 0.0
H551 H 0.90656 0.42477 0.98199 0.0
H552 H 0.90647 0.40752 0.04907 0.0
H553 H 0.91643 0.43888 0.29303 0.0
H554 H 0.89492 0.46346 0.27199 0.0
H555 H 0.90197 0.45727 0.04627 0.0
C556 C 0.95244 0.40381 0.09605 0.0
C557 C 0.96204 0.39565 0.15217 0.0
C558 C 0.95738 0.39999 0.22255 0.0
C559 C 0.94354 0.41228 0.23723 0.0
C560 C 0.93452 0.42026 0.18098 0.0
C561 C 0.93875 0.41632 0.11176 0.0
C562 C 0.92774 0.42791 0.06155 0.0
C563 C 0.94011 0.43987 0.016 0.0
C564 C 0.91531 0.41614 0.01566 0.0
C565 C 0.91693 0.43913 0.11361 0.0
C566 C 0.92096 0.43427 0.18207 0.0
C567 C 0.91315 0.44285 0.23965 0.0
C568 C 0.90103 0.45697 0.22713 0.0
C569 C 0.8969 0.46259 0.15766 0.0
C570 C 0.9048 0.45331 0.10007 0.0
H571 H 0.10462 0.95364 0.57811 0.0
H572 H 0.10428 0.97044 0.79739 0.0
H573 H 0.08216 0.94664 0.8247 0.0
H574 H 0.05813 0.94583 0.56531 0.0
H575 H 0.05976 0.9263 0.50888 0.0
H576 H 0.07724 0.9432 0.50724 0.0
H577 H 0.10129 0.91875 0.53477 0.0
H578 H 0.08386 0.90172 0.53617 0.0
H579 H 0.09855 0.90453 0.61117 0.0
H580 H 0.05818 0.92338 0.82695 0.0
H581 H 0.03383 0.90152 0.80435 0.0
H582 H 0.04934 0.8992 0.58374 0.0
C583 C 0.1002 0.95203 0.63214 0.0
C584 C 0.10627 0.96387 0.68569 0.0
C585 C 0.09987 0.96155 0.75548 0.0
C586 C 0.08733 0.94802 0.77163 0.0
C587 C 0.08131 0.93686 0.71749 0.0
C588 C 0.08756 0.93861 0.6492 0.0
C589 C 0.07789 0.9256 0.60018 0.0
C590 C 0.06765 0.93585 0.54199 0.0
C591 C 0.09119 0.91183 0.56873 0.0
C592 C 0.06497 0.91663 0.6514 0.0
C593 C 0.06732 0.92325 0.71884 0.0
C594 C 0.05636 0.91787 0.7746 0.0
C595 C 0.04252 0.90546 0.76112 0.0
C596 C 0.03973 0.89851 0.69238 0.0
C597 C 0.05128 0.90406 0.63704 0.0
H598 H 0.59287 0.03895 0.18755 0.0
H599 H 0.62729 0.05894 0.0194 0.0
H600 H 0.60858 0.08632 0.01048 0.0
H601 H 0.55207 0.05278 0.1126 0.0
H602 H 0.5413 0.05922 0.19401 0.0
H603 H 0.55863 0.04216 0.1942 0.0
H604 H 0.57686 0.06051 0.28617 0.0
H605 H 0.55953 0.07764 0.28649 0.0
H606 H 0.58263 0.08372 0.26787 0.0
H607 H 0.58493 0.10983 0.01074 0.0
H608 H 0.55747 0.1284 0.0203 0.0
H609 H 0.5378 0.09372 0.18827 0.0
C610 C 0.59669 0.04929 0.15 0.0
C611 C 0.61159 0.04681 0.10428 0.0
C612 C 0.61594 0.06049 0.05487 0.0
C613 C 0.60544 0.07616 0.04961 0.0
C614 C 0.59063 0.07801 0.0942 0.0
C615 C 0.58624 0.06503 0.14368 0.0
C616 C 0.56877 0.06981 0.18128 0.0
C617 C 0.55435 0.05512 0.16979 0.0
C618 C 0.57215 0.07312 0.26014 0.0
C619 C 0.56382 0.08722 0.14368 0.0
C620 C 0.57676 0.09174 0.09423 0.0
C621 C 0.5748 0.10658 0.04987 0.0
C622 C 0.55909 0.117 0.05551 0.0
C623 C 0.54548 0.11255 0.10509 0.0
C624 C 0.54806 0.09761 0.15052 0.0
H625 H 0.39832 0.54902 0.58552 0.0
H626 H 0.39687 0.53493 0.80756 0.0
H627 H 0.41914 0.55877 0.83288 0.0
H628 H 0.44505 0.55602 0.57662 0.0
H629 H 0.4441 0.57482 0.5163 0.0
H630 H 0.42641 0.55812 0.51593 0.0
H631 H 0.4025 0.58318 0.53587 0.0
H632 H 0.42013 0.6 0.53598 0.0
H633 H 0.40486 0.59834 0.6097 0.0
H634 H 0.44329 0.58195 0.83352 0.0
H635 H 0.46797 0.60338 0.80954 0.0
H636 H 0.45428 0.60275 0.58694 0.0
C637 C 0.40239 0.55124 0.63964 0.0
C638 C 0.39577 0.54016 0.69464 0.0
C639 C 0.40173 0.54324 0.76458 0.0
C640 C 0.41434 0.55679 0.77958 0.0
C641 C 0.42089 0.5672 0.72411 0.0
C642 C 0.41512 0.56467 0.65555 0.0
C643 C 0.42531 0.57691 0.60521 0.0
C644 C 0.43584 0.5658 0.5503 0.0
C645 C 0.41243 0.59041 0.5696 0.0
C646 C 0.43797 0.58638 0.65609 0.0
C647 C 0.43504 0.58066 0.72444 0.0
C648 C 0.44559 0.58671 0.78036 0.0
C649 C 0.45963 0.59885 0.7661 0.0
C650 C 0.46305 0.60483 0.69641 0.0
C651 C 0.45189 0.59862 0.64089 0.0
H652 H 0.90502 0.03838 0.27354 0.0
H653 H 0.87742 0.05172 0.46874 0.0
H654 H 0.89642 0.07887 0.48123 0.0
H655 H 0.94821 0.05014 0.32994 0.0
H656 H 0.95561 0.05946 0.24708 0.0
H657 H 0.93844 0.04226 0.24851 0.0
H658 H 0.9168 0.06324 0.17902 0.0
H659 H 0.93397 0.08053 0.17711 0.0
H660 H 0.91191 0.08552 0.21245 0.0
H661 H 0.92022 0.10267 0.47935 0.0
H662 H 0.94713 0.1218 0.46261 0.0
H663 H 0.95932 0.09338 0.26806 0.0
C664 C 0.90269 0.04721 0.31812 0.0
C665 C 0.88966 0.0429 0.37006 0.0
C666 C 0.88729 0.05469 0.42822 0.0
C667 C 0.89798 0.0702 0.4357 0.0
C668 C 0.91094 0.07383 0.38441 0.0
C669 C 0.91328 0.06275 0.32651 0.0
C670 C 0.92902 0.06905 0.28165 0.0
C671 C 0.94368 0.05435 0.27654 0.0
C672 C 0.92253 0.07494 0.2082 0.0
C673 C 0.93545 0.0851 0.32448 0.0
C674 C 0.92471 0.0877 0.38318 0.0
C675 C 0.92858 0.10095 0.43306 0.0
C676 C 0.94395 0.11171 0.42316 0.0
C677 C 0.95531 0.10917 0.36384 0.0
C678 C 0.95078 0.09585 0.31339 0.0
H679 H 0.45695 0.90357 0.93656 0.0
H680 H 0.45489 0.88691 0.71756 0.0
H681 H 0.4285 0.90655 0.69827 0.0
H682 H 0.40726 0.90906 0.96286 0.0
H683 H 0.41012 0.92894 0.01665 0.0
H684 H 0.42722 0.91157 0.01646 0.0
H685 H 0.45135 0.93536 0.98214 0.0
H686 H 0.43436 0.95275 0.98197 0.0
H687 H 0.44796 0.94901 0.90455 0.0
H688 H 0.40453 0.92979 0.69889 0.0
H689 H 0.38476 0.95605 0.71859 0.0
H690 H 0.40245 0.95883 0.93621 0.0
C691 C 0.45061 0.90372 0.88512 0.0
C692 C 0.45786 0.89361 0.82858 0.0
C693 C 0.44954 0.89452 0.76152 0.0
C694 C 0.43448 0.90556 0.75016 0.0
C695 C 0.42791 0.91569 0.80639 0.0
C696 C 0.43565 0.91491 0.87261 0.0
C697 C 0.42698 0.92853 0.92193 0.0
C698 C 0.41732 0.91895 0.9831 0.0
C699 C 0.441 0.94222 0.94921 0.0
C700 C 0.41354 0.93739 0.87242 0.0
C701 C 0.41416 0.92955 0.80637 0.0
C702 C 0.40382 0.93597 0.75049 0.0
C703 C 0.39276 0.95102 0.76197 0.0
C704 C 0.3922 0.9596 0.82858 0.0
C705 C 0.40245 0.95242 0.8849 0.0
H706 H 0.59152 0.4663 0.29095 0.0
H707 H 0.62045 0.45241 0.48276 0.0
H708 H 0.60138 0.42545 0.49684 0.0
H709 H 0.54827 0.454 0.35218 0.0
H710 H 0.54048 0.44484 0.26956 0.0
H711 H 0.55743 0.46229 0.27029 0.0
H712 H 0.57886 0.44183 0.19754 0.0
H713 H 0.56194 0.42429 0.19654 0.0
H714 H 0.58429 0.41953 0.22944 0.0
H715 H 0.57816 0.40149 0.49613 0.0
H716 H 0.55173 0.38172 0.48079 0.0
H717 H 0.53749 0.41044 0.28902 0.0
C718 C 0.59401 0.45745 0.33533 0.0
C719 C 0.60752 0.46151 0.38569 0.0
C720 C 0.61019 0.44966 0.44349 0.0
C721 C 0.59947 0.43424 0.45188 0.0
C722 C 0.58615 0.43076 0.40197 0.0
C723 C 0.58336 0.44195 0.3447 0.0
C724 C 0.56741 0.43553 0.30108 0.0
C725 C 0.55252 0.45003 0.29815 0.0
C726 C 0.5735 0.42996 0.22674 0.0
C727 C 0.56148 0.41925 0.3438 0.0
C728 C 0.57261 0.41671 0.40141 0.0
C729 C 0.56944 0.40319 0.45082 0.0
C730 C 0.55434 0.39206 0.44171 0.0
C731 C 0.54255 0.39448 0.3836 0.0
C732 C 0.54637 0.40811 0.33346 0.0
H733 H 0.04433 0.60075 0.92354 0.0
H734 H 0.03372 0.60478 0.69903 0.0
H735 H 0.05818 0.58306 0.67545 0.0
H736 H 0.09376 0.5954 0.91048 0.0
H737 H 0.09466 0.57923 0.98143 0.0
H738 H 0.0774 0.59642 0.98077 0.0
H739 H 0.05272 0.57169 0.98969 0.0
H740 H 0.06987 0.55445 0.99022 0.0
H741 H 0.05213 0.55381 0.92517 0.0
H742 H 0.08205 0.5595 0.67594 0.0
H743 H 0.10388 0.5352 0.70046 0.0
H744 H 0.09928 0.54597 0.9248 0.0
C745 C 0.04738 0.59731 0.86936 0.0
C746 C 0.03714 0.60455 0.81307 0.0
C747 C 0.04134 0.59944 0.74301 0.0
C748 C 0.05527 0.58715 0.72901 0.0
C749 C 0.0649 0.58005 0.78562 0.0
C750 C 0.06119 0.58493 0.8544 0.0
C751 C 0.07288 0.5744 0.90568 0.0
C752 C 0.08542 0.58712 0.94702 0.0
C753 C 0.0612 0.56291 0.95561 0.0
C754 C 0.08348 0.56264 0.85491 0.0
C755 C 0.07873 0.56626 0.78593 0.0
C756 C 0.08602 0.55664 0.72968 0.0
C757 C 0.09837 0.54282 0.74424 0.0
C758 C 0.10334 0.53868 0.81456 0.0
C759 C 0.09592 0.54893 0.87047 0.0
H760 H 0.05356 0.4084 0.12944 0.0
H761 H 0.0474 0.37143 0.95341 0.0
H762 H 0.07022 0.38841 0.88651 0.0
H763 H 0.0567 0.44757 0.02809 0.0
H764 H 0.07339 0.45878 0.08177 0.0
H765 H 0.05839 0.44245 0.12074 0.0
H766 H 0.08583 0.42411 0.16637 0.0
H767 H 0.10092 0.44051 0.12797 0.0
H768 H 0.10305 0.41695 0.10521 0.0
H769 H 0.09088 0.41078 0.83331 0.0
H770 H 0.10921 0.43708 0.79815 0.0
H771 H 0.10248 0.46002 0.00728 0.0
C772 C 0.05743 0.40363 0.07766 0.0
C773 C 0.04877 0.38855 0.04676 0.0
C774 C 0.05385 0.38296 0.97813 0.0
C775 C 0.06685 0.39247 0.93969 0.0
C776 C 0.07473 0.40758 0.97051 0.0
C777 C 0.07038 0.41311 0.03806 0.0
C778 C 0.07996 0.43065 0.05619 0.0
C779 C 0.06629 0.44575 0.07264 0.0
C780 C 0.09323 0.42788 0.11757 0.0
C781 C 0.08992 0.43426 0.98767 0.0
C782 C 0.0868 0.42067 0.9393 0.0
C783 C 0.09366 0.4214 0.871 0.0
C784 C 0.10399 0.43645 0.85141 0.0
C785 C 0.10737 0.4506 0.89992 0.0
C786 C 0.10033 0.44934 0.96916 0.0
H787 H 0.09307 0.05798 0.63889 0.0
H788 H 0.12034 0.03923 0.44968 0.0
H789 H 0.10174 0.05961 0.37788 0.0
H790 H 0.04947 0.06062 0.56406 0.0
H791 H 0.04278 0.08084 0.61022 0.0
H792 H 0.05925 0.06589 0.64863 0.0
H793 H 0.08196 0.09241 0.6589 0.0
H794 H 0.0655 0.10747 0.62078 0.0
H795 H 0.08758 0.10539 0.58155 0.0
H796 H 0.079 0.08009 0.32483 0.0
H797 H 0.05369 0.10028 0.29416 0.0
H798 H 0.04096 0.10631 0.51643 0.0
C799 C 0.09533 0.05841 0.58254 0.0
C800 C 0.10821 0.04698 0.55015 0.0
C801 C 0.11056 0.04779 0.47598 0.0
C802 C 0.10008 0.05937 0.43453 0.0
C803 C 0.0873 0.07018 0.46776 0.0
C804 C 0.0849 0.06993 0.54002 0.0
C805 C 0.06959 0.0824 0.56159 0.0
C806 C 0.05437 0.0718 0.59828 0.0
C807 C 0.07658 0.09783 0.60848 0.0
C808 C 0.06362 0.08936 0.49007 0.0
C809 C 0.07409 0.08218 0.4368 0.0
C810 C 0.07078 0.08597 0.36607 0.0
C811 C 0.05633 0.09741 0.34917 0.0
C812 C 0.04535 0.10496 0.40278 0.0
C813 C 0.04919 0.10092 0.47419 0.0
H814 H 0.45164 0.09376 0.11618 0.0
H815 H 0.45741 0.12843 0.93274 0.0
H816 H 0.43475 0.11044 0.8697 0.0
H817 H 0.44773 0.05287 0.02251 0.0
H818 H 0.431 0.04282 0.07932 0.0
H819 H 0.4465 0.05934 0.11399 0.0
H820 H 0.41962 0.07887 0.15704 0.0
H821 H 0.40404 0.06232 0.12289 0.0
H822 H 0.40237 0.08557 0.09528 0.0
H823 H 0.41384 0.08763 0.82182 0.0
H824 H 0.39437 0.06161 0.7936 0.0
H825 H 0.40112 0.04144 0.00699 0.0
C826 C 0.44784 0.09775 0.06334 0.0
C827 C 0.45636 0.11252 0.02954 0.0
C828 C 0.45118 0.11715 0.95984 0.0
C829 C 0.43826 0.10704 0.92345 0.0
C830 C 0.43047 0.09234 0.95734 0.0
C831 C 0.43487 0.08773 0.02584 0.0
C832 C 0.42496 0.07068 0.04812 0.0
C833 C 0.43835 0.05554 0.06708 0.0
C834 C 0.41197 0.0746 0.10947 0.0
C835 C 0.41469 0.06634 0.98093 0.0
C836 C 0.41805 0.07909 0.92947 0.0
C837 C 0.41088 0.07765 0.86186 0.0
C838 C 0.39991 0.06277 0.84624 0.0
C839 C 0.39615 0.04952 0.89806 0.0
C840 C 0.40358 0.05144 0.96645 0.0
H841 H 0.40725 0.44565 0.65417 0.0
H842 H 0.37953 0.46293 0.4639 0.0
H843 H 0.39712 0.44112 0.3945 0.0
H844 H 0.45027 0.44103 0.57653 0.0
H845 H 0.45674 0.42127 0.62603 0.0
H846 H 0.44083 0.43708 0.66275 0.0
H847 H 0.4176 0.41124 0.67984 0.0
H848 H 0.43349 0.39533 0.64328 0.0
H849 H 0.41124 0.39746 0.6055 0.0
H850 H 0.41902 0.41931 0.34363 0.0
H851 H 0.44399 0.39852 0.3148 0.0
H852 H 0.45771 0.39497 0.53698 0.0
C853 C 0.40467 0.44461 0.59815 0.0
C854 C 0.39196 0.45601 0.56469 0.0
C855 C 0.38919 0.4544 0.49095 0.0
C856 C 0.39908 0.44199 0.45091 0.0
C857 C 0.4117 0.43119 0.48515 0.0
C858 C 0.41452 0.43228 0.55706 0.0
C859 C 0.42965 0.41974 0.57979 0.0
C860 C 0.4453 0.43042 0.61323 0.0
C861 C 0.42257 0.40507 0.63008 0.0
C862 C 0.43506 0.41175 0.50925 0.0
C863 C 0.42443 0.41847 0.4555 0.0
C864 C 0.42733 0.41378 0.3853 0.0
C865 C 0.44159 0.40199 0.36944 0.0
C866 C 0.45279 0.39502 0.42355 0.0
C867 C 0.44928 0.39987 0.49443 0.0
H868 H 0.90984 0.55323 0.14145 0.0
H869 H 0.86935 0.55266 0.97613 0.0
H870 H 0.88563 0.57677 0.9135 0.0
H871 H 0.92004 0.60316 0.13266 0.0
H872 H 0.94386 0.59956 0.1468 0.0
H873 H 0.9276 0.58432 0.18519 0.0
H874 H 0.9436 0.55733 0.12468 0.0
H875 H 0.95977 0.57248 0.08566 0.0
H876 H 0.9467 0.55757 0.03044 0.0
H877 H 0.90772 0.59743 0.86064 0.0
H878 H 0.93427 0.61482 0.82189 0.0
H879 H 0.96116 0.60281 0.01986 0.0
C880 C 0.90415 0.55868 0.09337 0.0
C881 C 0.88826 0.55124 0.06386 0.0
C882 C 0.88146 0.55824 -0.00033 0.0
C883 C 0.89058 0.57197 0.96379 0.0
C884 C 0.90652 0.57861 0.99269 0.0
C885 C 0.91324 0.57238 0.05624 0.0
C886 C 0.93156 0.58077 0.07172 0.0
C887 C 0.93071 0.59266 0.13803 0.0
C888 C 0.94627 0.56616 0.07849 0.0
C889 C 0.93425 0.59214 0.0059 0.0
C890 C 0.91952 0.59078 0.96154 0.0
C891 C 0.91922 0.5989 0.89538 0.0
C892 C 0.93443 0.60865 0.87366 0.0
C893 C 0.94975 0.61026 0.91794 0.0
C894 C 0.94953 0.60206 0.98535 0.0
H895 H 0.9462 0.91081 0.66663 0.0
H896 H 0.95754 0.87723 0.48405 0.0
H897 H 0.9352 0.89416 0.41509 0.0
H898 H 0.8969 0.91673 0.63025 0.0
H899 H 0.89692 0.93994 0.65912 0.0
H900 H 0.91243 0.92399 0.69779 0.0
H901 H 0.93924 0.94482 0.6646 0.0
H902 H 0.92382 0.96074 0.62554 0.0
H903 H 0.94217 0.95165 0.57411 0.0
H904 H 0.91451 0.9161 0.36158 0.0
H905 H 0.89499 0.94155 0.32732 0.0
H906 H 0.89582 0.96128 0.54292 0.0
C907 C 0.94363 0.90679 0.61269 0.0
C908 C 0.95365 0.89269 0.58083 0.0
C909 C 0.95013 0.88803 0.50965 0.0
C910 C 0.9374 0.89752 0.46993 0.0
C911 C 0.92814 0.91163 0.50198 0.0
C912 C 0.93089 0.91622 0.5718 0.0
C913 C 0.91976 0.93275 0.59136 0.0
C914 C 0.90566 0.92807 0.64799 0.0
C915 C 0.93198 0.94841 0.6153 0.0
C916 C 0.91079 0.93687 0.52115 0.0
C917 C 0.9158 0.92441 0.47064 0.0
C918 C 0.91024 0.92582 0.40079 0.0
C919 C 0.89924 0.9404 0.38177 0.0
C920 C 0.89382 0.95336 0.43242 0.0
C921 C 0.89956 0.95145 0.50323 0.0
H922 H 0.59163 0.95302 0.11391 0.0
H923 H 0.6263 0.95863 0.93037 0.0
H924 H 0.6084 0.93585 0.86778 0.0
H925 H 0.58362 0.90367 0.0938 0.0
H926 H 0.56035 0.90526 0.12122 0.0
H927 H 0.5768 0.92097 0.15523 0.0
H928 H 0.55717 0.94771 0.11158 0.0
H929 H 0.54074 0.9321 0.07711 0.0
H930 H 0.55073 0.94881 0.02005 0.0
H931 H 0.58574 0.91487 0.82021 0.0
H932 H 0.55981 0.89535 0.79187 0.0
H933 H 0.53944 0.90215 0.00497 0.0
C934 C 0.59563 0.94916 0.06113 0.0
C935 C 0.61037 0.95768 0.02717 0.0
C936 C 0.61502 0.95243 0.95758 0.0
C937 C 0.60497 0.93942 0.92144 0.0
C938 C 0.5903 0.93163 0.95545 0.0
C939 C 0.58565 0.93611 0.02382 0.0
C940 C 0.56863 0.92614 0.04617 0.0
C941 C 0.57259 0.91324 0.10776 0.0
C942 C 0.55342 0.93949 0.06481 0.0
C943 C 0.56435 0.91576 0.97912 0.0
C944 C 0.57712 0.91913 0.92774 0.0
C945 C 0.57575 0.91191 0.8602 0.0
C946 C 0.56091 0.9009 0.84452 0.0
C947 C 0.54762 0.89714 0.89619 0.0
C948 C 0.54949 0.90459 0.96458 0.0
H949 H 0.58968 0.55237 0.36665 0.0
H950 H 0.63227 0.55503 0.52366 0.0
H951 H 0.6157 0.57884 0.58657 0.0
H952 H 0.57784 0.60186 0.37091 0.0
H953 H 0.55401 0.59737 0.3615 0.0
H954 H 0.57033 0.58231 0.32234 0.0
H955 H 0.55595 0.55541 0.38925 0.0
H956 H 0.53974 0.57038 0.42904 0.0
H957 H 0.55392 0.55642 0.48384 0.0
H958 H 0.59335 0.59893 0.64142 0.0
H959 H 0.56672 0.61594 0.68217 0.0
H960 H 0.53816 0.60146 0.49041 0.0
C961 C 0.59573 0.55841 0.41298 0.0
C962 C 0.61231 0.55191 0.4401 0.0
C963 C 0.61959 0.55979 0.50194 0.0
C964 C 0.61031 0.57337 0.53803 0.0
C965 C 0.59374 0.57906 0.51159 0.0
C966 C 0.58653 0.57204 0.45015 0.0
C967 C 0.56778 0.5797 0.43682 0.0
C968 C 0.56748 0.59099 0.36885 0.0
C969 C 0.55351 0.56457 0.43464 0.0
C970 C 0.56546 0.59158 0.50149 0.0
C971 C 0.58069 0.59105 0.54348 0.0
C972 C 0.58144 0.59976 0.60846 0.0
C973 C 0.5662 0.60929 0.63136 0.0
C974 C 0.55042 0.61013 0.58931 0.0
C975 C 0.55015 0.6013 0.52312 0.0
H976 H 0.98714 0.29016 0.24389 0.0
H977 H 0.03458 0.29253 0.11066 0.0
H978 H 0.04158 0.26058 0.13954 0.0
H979 H 0.00552 0.26124 0.37897 0.0
H980 H 0.98495 0.24858 0.39133 0.0
H981 H 0.98396 0.27174 0.36212 0.0
H982 H 0.96545 0.2621 0.25244 0.0
H983 H 0.96617 0.23897 0.28179 0.0
H984 H 0.97421 0.24477 0.19503 0.0
H985 H 0.04385 0.22894 0.18613 0.0
H986 H 0.0391 0.19819 0.23376 0.0
H987 H 0.98894 0.21562 0.3301 0.0
C988 C 0.99891 0.28381 0.22065 0.0
C989 C 0.01036 0.29353 0.17502 0.0
C990 C 0.02567 0.28506 0.14535 0.0
C991 C 0.02978 0.26705 0.16187 0.0
C992 C 0.01831 0.25778 0.20765 0.0
C993 C 0.00302 0.26575 0.23575 0.0
C994 C 0.9925 0.25251 0.28086 0.0
C995 C 0.99169 0.2589 0.35789 0.0
C996 C 0.97346 0.2494 0.2507 0.0
C997 C 0.0042 0.23581 0.2734 0.0
C998 C 0.01918 0.23926 0.23199 0.0
C999 C 0.03207 0.22602 0.21797 0.0
C1000 C 0.02926 0.20864 0.24509 0.0
C1001 C 0.01352 0.20457 0.28429 0.0
C1002 C 0.00106 0.21843 0.30008 0.0
H1003 H 0.28655 0.98719 0.8131 0.0
H1004 H 0.29867 0.04444 0.81012 0.0
H1005 H 0.2671 0.05111 0.77528 0.0
H1006 H 0.25873 0.98707 0.66202 0.0
H1007 H 0.24278 0.97069 0.69475 0.0
H1008 H 0.26579 0.97039 0.72558 0.0
H1009 H 0.25479 0.973 0.8548 0.0
H1010 H 0.23172 0.97299 0.82447 0.0
H1011 H 0.23983 0.99118 0.87918 0.0
H1012 H 0.23493 0.05139 0.73499 0.0
H1013 H 0.20342 0.0454 0.69746 0.0
H1014 H 0.21217 0.9879 0.72365 0.0
C1015 C 0.28231 0.00111 0.80679 0.0
C1016 C 0.29472 0.0154 0.81533 0.0
C1017 C 0.2891 0.03344 0.80485 0.0
C1018 C 0.27129 0.0373 0.78474 0.0
C1019 C 0.25939 0.02292 0.77512 0.0
C1020 C 0.26458 0.00519 0.78631 0.0
C1021 C 0.24929 0.99223 0.76972 0.0
C1022 C 0.25447 0.97934 0.70943 0.0
C1023 C 0.24357 0.98173 0.83599 0.0
C1024 C 0.23476 0.00543 0.74685 0.0
C1025 C 0.24089 0.02306 0.75052 0.0
C1026 C 0.22996 0.03766 0.73211 0.0
C1027 C 0.21218 0.03416 0.71062 0.0
C1028 C 0.2056 0.01624 0.70757 0.0
C1029 C 0.21706 0.00169 0.72511 0.0
H1030 H 0.47392 0.29205 0.26051 0.0
H1031 H 0.52552 0.29414 0.36835 0.0
H1032 H 0.53138 0.26233 0.33531 0.0
H1033 H 0.46274 0.24585 0.30282 0.0
H1034 H 0.45288 0.24118 0.2179 0.0
H1035 H 0.45246 0.26382 0.25271 0.0
H1036 H 0.46836 0.27555 0.13993 0.0
H1037 H 0.46889 0.25292 0.10489 0.0
H1038 H 0.48954 0.26567 0.11321 0.0
H1039 H 0.53168 0.23051 0.29014 0.0
H1040 H 0.52631 0.20053 0.23582 0.0
H1041 H 0.47536 0.21951 0.15138 0.0
C1042 C 0.48648 0.28579 0.27674 0.0
C1043 C 0.49935 0.29548 0.31662 0.0
C1044 C 0.51548 0.28684 0.33813 0.0
C1045 C 0.51895 0.26885 0.3193 0.0
C1046 C 0.50616 0.25975 0.27869 0.0
C1047 C 0.49024 0.26791 0.2576 0.0
C1048 C 0.47891 0.25521 0.2131 0.0
C1049 C 0.46067 0.25128 0.24879 0.0
C1050 C 0.47628 0.26279 0.13835 0.0
C1051 C 0.49092 0.23863 0.21257 0.0
C1052 C 0.50655 0.24154 0.25097 0.0
C1053 C 0.51957 0.22811 0.25957 0.0
C1054 C 0.51647 0.21121 0.22853 0.0
C1055 C 0.5006 0.20801 0.18904 0.0
C1056 C 0.48771 0.22186 0.18061 0.0
H1057 H 0.28794 0.51653 0.71954 0.0
H1058 H 0.299 0.45904 0.72477 0.0
H1059 H 0.26752 0.45313 0.76252 0.0
H1060 H 0.25924 0.51792 0.87132 0.0
H1061 H 0.24379 0.53432 0.83522 0.0
H1062 H 0.26706 0.53412 0.80724 0.0
H1063 H 0.25703 0.53095 0.67696 0.0
H1064 H 0.23374 0.53144 0.70446 0.0
H1065 H 0.24201 0.51282 0.65235 0.0
H1066 H 0.23526 0.45351 0.80172 0.0
H1067 H 0.20325 0.46002 0.83069 0.0
H1068 H 0.21291 0.5172 0.7999 0.0
C1069 C 0.28357 0.50272 0.7279 0.0
C1070 C 0.29573 0.48819 0.71965 0.0
C1071 C 0.28976 0.47028 0.73123 0.0
C1072 C 0.27199 0.46683 0.75283 0.0
C1073 C 0.26039 0.48146 0.76225 0.0
C1074 C 0.26584 0.49904 0.74945 0.0
C1075 C 0.25059 0.51227 0.76298 0.0
C1076 C 0.25547 0.52543 0.82275 0.0
C1077 C 0.24554 0.52247 0.69514 0.0
C1078 C 0.23574 0.49939 0.78528 0.0
C1079 C 0.24173 0.48168 0.7849 0.0
C1080 C 0.23041 0.46731 0.80243 0.0
C1081 C 0.21236 0.4711 0.81919 0.0
C1082 C 0.20591 0.48907 0.8182 0.0
C1083 C 0.21774 0.5034 0.802 0.0
H1084 H 0.0175 0.7901 0.73442 0.0
H1085 H 0.96046 0.79983 0.69985 0.0
H1086 H 0.95377 0.76786 0.72879 0.0
H1087 H 0.01881 0.7448 0.66233 0.0
H1088 H 0.03463 0.73654 0.72701 0.0
H1089 H 0.03482 0.76005 0.70231 0.0
H1090 H 0.03088 0.76906 0.83338 0.0
H1091 H 0.03047 0.74557 0.85839 0.0
H1092 H 0.01202 0.76022 0.88265 0.0
H1093 H 0.95333 0.73515 0.76139 0.0
H1094 H 0.95923 0.70315 0.79174 0.0
H1095 H 0.0165 0.71456 0.8081 0.0
C1096 C 0.00366 0.78534 0.73242 0.0
C1097 C 0.98943 0.79717 0.71471 0.0
C1098 C 0.97145 0.79077 0.71311 0.0
C1099 C 0.96756 0.77273 0.72968 0.0
C1100 C 0.98184 0.76138 0.74801 0.0
C1101 C 0.99954 0.76738 0.74931 0.0
C1102 C 0.01233 0.75238 0.77119 0.0
C1103 C 0.02595 0.74819 0.71218 0.0
C1104 C 0.02199 0.75709 0.84052 0.0
C1105 C 0.99907 0.73698 0.78138 0.0
C1106 C 0.98155 0.74252 0.76794 0.0
C1107 C 0.96697 0.73067 0.77232 0.0
C1108 C 0.97041 0.7126 0.78971 0.0
C1109 C 0.98825 0.70661 0.80252 0.0
C1110 C 0.00273 0.71897 0.79929 0.0
H1111 H 0.78336 0.00758 0.34349 0.0
H1112 H 0.80326 0.96228 0.22102 0.0
H1113 H 0.77298 0.95816 0.16888 0.0
H1114 H 0.73829 0.98766 0.37885 0.0
H1115 H 0.72702 0.00921 0.37313 0.0
H1116 H 0.75008 0.00803 0.40336 0.0
H1117 H 0.75951 0.03084 0.30651 0.0
H1118 H 0.73654 0.03194 0.27555 0.0
H1119 H 0.75444 0.0259 0.2156 0.0
H1120 H 0.74157 0.96077 0.12166 0.0
H1121 H 0.70983 0.96807 0.09126 0.0
H1122 H 0.70943 0.01015 0.24999 0.0
C1123 C 0.7812 0.99657 0.30689 0.0
C1124 C 0.79564 0.98535 0.28558 0.0
C1125 C 0.7924 0.97119 0.23704 0.0
C1126 C 0.77525 0.9687 0.2074 0.0
C1127 C 0.76139 0.98028 0.22792 0.0
C1128 C 0.76404 0.99372 0.27747 0.0
C1129 C 0.74683 0.00441 0.28952 0.0
C1130 C 0.74016 0.00219 0.36575 0.0
C1131 C 0.7495 0.02446 0.27065 0.0
C1132 C 0.73426 0.99514 0.23783 0.0
C1133 C 0.74298 0.98129 0.20265 0.0
C1134 C 0.7345 0.97139 0.14956 0.0
C1135 C 0.71658 0.97566 0.13237 0.0
C1136 C 0.70736 0.98956 0.16861 0.0
C1137 C 0.71626 0.99935 0.22216 0.0
H1138 H 0.48645 0.78788 0.82022 0.0
H1139 H 0.54293 0.80024 0.7844 0.0
H1140 H 0.54847 0.76853 0.7487 0.0
H1141 H 0.49374 0.74179 0.88895 0.0
H1142 H 0.47369 0.73305 0.84713 0.0
H1143 H 0.47459 0.75638 0.87421 0.0
H1144 H 0.46665 0.76624 0.74689 0.0
H1145 H 0.46603 0.74297 0.71914 0.0
H1146 H 0.48066 0.75878 0.67479 0.0
H1147 H 0.54747 0.73618 0.71048 0.0
H1148 H 0.54044 0.70432 0.68057 0.0
H1149 H 0.48464 0.71278 0.74091 0.0
C1150 C 0.50002 0.78372 0.80619 0.0
C1151 C 0.51432 0.79631 0.80487 0.0
C1152 C 0.53188 0.79064 0.78559 0.0
C1153 C 0.53511 0.77273 0.76513 0.0
C1154 C 0.52062 0.7607 0.76478 0.0
C1155 C 0.50347 0.76586 0.78565 0.0
C1156 C 0.49023 0.75031 0.77909 0.0
C1157 C 0.48262 0.74507 0.85167 0.0
C1158 C 0.47499 0.75485 0.72686 0.0
C1159 C 0.50255 0.73572 0.75025 0.0
C1160 C 0.52003 0.74202 0.74246 0.0
C1161 C 0.53385 0.73108 0.71649 0.0
C1162 C 0.52975 0.71312 0.69922 0.0
C1163 C 0.51202 0.70641 0.70775 0.0
C1164 C 0.49824 0.71782 0.73317 0.0
H1165 H 0.79081 0.5237 0.23825 0.0
H1166 H 0.79187 0.47385 0.11814 0.0
H1167 H 0.75942 0.46914 0.14363 0.0
H1168 H 0.76206 0.5068 0.37629 0.0
H1169 H 0.75031 0.52792 0.3883 0.0
H1170 H 0.77333 0.52785 0.3573 0.0
H1171 H 0.76377 0.54636 0.24749 0.0
H1172 H 0.74075 0.54654 0.27825 0.0
H1173 H 0.74592 0.538 0.19162 0.0
H1174 H 0.72687 0.47006 0.18155 0.0
H1175 H 0.69657 0.47617 0.23184 0.0
H1176 H 0.71729 0.52414 0.33474 0.0
C1177 C 0.78419 0.51177 0.21748 0.0
C1178 C 0.79376 0.49918 0.17581 0.0
C1179 C 0.78467 0.48381 0.14913 0.0
C1180 C 0.76631 0.48096 0.16379 0.0
C1181 C 0.75732 0.49353 0.20583 0.0
C1182 C 0.76597 0.50859 0.2326 0.0
C1183 C 0.75337 0.51976 0.27801 0.0
C1184 C 0.76018 0.52063 0.35451 0.0
C1185 C 0.7508 0.53879 0.24696 0.0
C1186 C 0.73622 0.50869 0.27236 0.0
C1187 C 0.73877 0.49366 0.2301 0.0
C1188 C 0.72475 0.48168 0.21517 0.0
C1189 C 0.70766 0.48521 0.24389 0.0
C1190 C 0.70485 0.50044 0.28751 0.0
C1191 C 0.71929 0.51226 0.30229 0.0
H1192 H 0.00799 0.34567 0.82853 0.0
H1193 H 0.95177 0.36252 0.82665 0.0
H1194 H 0.95309 0.36568 0.69731 0.0
H1195 H 0.02314 0.37635 0.70383 0.0
H1196 H 0.03906 0.36138 0.66188 0.0
H1197 H 0.03323 0.35811 0.75302 0.0
H1198 H 0.02351 0.32514 0.72683 0.0
H1199 H 0.02955 0.32821 0.63561 0.0
H1200 H 0.00711 0.32079 0.65862 0.0
H1201 H 0.96152 0.37066 0.57116 0.0
H1202 H 0.9758 0.37505 0.45547 0.0
H1203 H 0.02638 0.3542 0.53776 0.0
C1204 C 0.9958 0.34958 0.80085 0.0
C1205 C 0.97975 0.3538 0.83783 0.0
C1206 C 0.9642 0.35915 0.79955 0.0
C1207 C 0.96482 0.361 0.72604 0.0
C1208 C 0.98104 0.35734 0.69156 0.0
C1209 C 0.9962 0.35153 0.72753 0.0
C1210 C 0.01224 0.34954 0.67848 0.0
C1211 C 0.02783 0.36209 0.70064 0.0
C1212 C 0.01846 0.32974 0.67466 0.0
C1213 C 0.00386 0.35558 0.6096 0.0
C1214 C 0.98583 0.35991 0.61828 0.0
C1215 C 0.97548 0.3668 0.56323 0.0
C1216 C 0.9837 0.36908 0.49729 0.0
C1217 C 0.00204 0.36431 0.4866 0.0
C1218 C 0.01225 0.35767 0.54395 0.0
H1219 H 0.11549 0.00112 0.02317 0.0
H1220 H 0.16082 0.03792 0.0073 0.0
H1221 H 0.17001 0.03018 0.12915 0.0
H1222 H 0.10407 0.0132 0.19825 0.0
H1223 H 0.09711 0.9908 0.22395 0.0
H1224 H 0.09548 0.99765 0.13321 0.0
H1225 H 0.11496 0.97009 0.09649 0.0
H1226 H 0.11677 0.96326 0.18739 0.0
H1227 H 0.13691 0.9669 0.13584 0.0
H1228 H 0.17368 0.01911 0.25351 0.0
H1229 H 0.16938 0.00889 0.37614 0.0
H1230 H 0.12039 0.98081 0.31403 0.0
C1231 C 0.12746 0.00732 0.04539 0.0
C1232 C 0.1376 0.01997 0.0063 0.0
C1233 C 0.15296 0.02818 0.0369 0.0
C1234 C 0.15833 0.02376 0.10567 0.0
C1235 C 0.14803 0.01126 0.14326 0.0
C1236 C 0.13276 0.00335 0.1146 0.0
C1237 C 0.12308 0.99175 0.1685 0.0
C1238 C 0.1038 0.99878 0.18176 0.0
C1239 C 0.12293 0.97181 0.14568 0.0
C1240 C 0.13511 0.9946 0.23222 0.0
C1241 C 0.14965 0.00556 0.21607 0.0
C1242 C 0.16237 0.01047 0.26674 0.0
C1243 C 0.15986 0.00452 0.33627 0.0
C1244 C 0.14455 0.99404 0.35478 0.0
C1245 C 0.13228 0.98872 0.30151 0.0
H1246 H 0.49249 0.15902 0.80536 0.0
H1247 H 0.55053 0.15043 0.81182 0.0
H1248 H 0.55058 0.14478 0.68381 0.0
H1249 H 0.48251 0.12463 0.68661 0.0
H1250 H 0.46511 0.13669 0.63963 0.0
H1251 H 0.46971 0.14206 0.73036 0.0
H1252 H 0.47521 0.17559 0.69724 0.0
H1253 H 0.47035 0.17038 0.60643 0.0
H1254 H 0.49142 0.18106 0.62962 0.0
H1255 H 0.5438 0.13618 0.55855 0.0
H1256 H 0.53117 0.12851 0.4424 0.0
H1257 H 0.47778 0.14414 0.51493 0.0
C1258 C 0.50529 0.1564 0.77966 0.0
C1259 C 0.52152 0.1552 0.81889 0.0
C1260 C 0.53792 0.1515 0.78311 0.0
C1261 C 0.5381 0.14821 0.71032 0.0
C1262 C 0.52178 0.14884 0.67375 0.0
C1263 C 0.50572 0.15314 0.70691 0.0
C1264 C 0.48997 0.15223 0.65589 0.0
C1265 C 0.47601 0.13806 0.67956 0.0
C1266 C 0.48122 0.17093 0.64675 0.0
C1267 C 0.49964 0.14633 0.58933 0.0
C1268 C 0.51798 0.14446 0.60077 0.0
C1269 C 0.52954 0.13814 0.54834 0.0
C1270 C 0.52224 0.13397 0.48205 0.0
C1271 C 0.50358 0.1364 0.4682 0.0
C1272 C 0.49216 0.14243 0.52324 0.0
H1273 H 0.38594 0.50354 0.03553 0.0
H1274 H 0.34093 0.46631 0.01983 0.0
H1275 H 0.33164 0.47407 0.14147 0.0
H1276 H 0.39743 0.49176 0.21058 0.0
H1277 H 0.40413 0.51425 0.23614 0.0
H1278 H 0.40585 0.50738 0.14546 0.0
H1279 H 0.38605 0.5347 0.10853 0.0
H1280 H 0.38415 0.54155 0.19938 0.0
H1281 H 0.36407 0.53765 0.1478 0.0
H1282 H 0.32784 0.48512 0.26552 0.0
H1283 H 0.33207 0.49531 0.38819 0.0
H1284 H 0.38078 0.52389 0.32626 0.0
C1285 C 0.37401 0.49725 0.05773 0.0
C1286 C 0.364 0.48447 0.01875 0.0
C1287 C 0.34871 0.47614 0.04935 0.0
C1288 C 0.34327 0.48058 0.11799 0.0
C1289 C 0.35343 0.49321 0.15545 0.0
C1290 C 0.36863 0.50124 0.12682 0.0
C1291 C 0.37818 0.51298 0.18066 0.0
C1292 C 0.39754 0.50618 0.194 0.0
C1293 C 0.3781 0.5329 0.15771 0.0
C1294 C 0.36617 0.51002 0.24435 0.0
C1295 C 0.35173 0.49893 0.22817 0.0
C1296 C 0.33906 0.49387 0.27879 0.0
C1297 C 0.34153 0.4998 0.34834 0.0
C1298 C 0.35676 0.51039 0.36691 0.0
C1299 C 0.36896 0.51588 0.31367 0.0
H1300 H 0.01041 0.15648 0.65414 0.0
H1301 H 0.95239 0.14879 0.63795 0.0
H1302 H 0.95083 0.1432 0.76596 0.0
H1303 H 0.01869 0.12208 0.77262 0.0
H1304 H 0.03573 0.13381 0.82278 0.0
H1305 H 0.03214 0.13947 0.73167 0.0
H1306 H 0.02666 0.17299 0.76517 0.0
H1307 H 0.03055 0.16751 0.85643 0.0
H1308 H 0.00985 0.17849 0.8305 0.0
H1309 H 0.95629 0.13405 0.89196 0.0
H1310 H 0.96783 0.12562 0.00917 0.0
H1311 H 0.02198 0.14096 0.94459 0.0
C1312 C 0.9973 0.15408 0.67772 0.0
C1313 C 0.98152 0.15307 0.63596 0.0
C1314 C 0.96465 0.14974 0.66885 0.0
C1315 C 0.96363 0.14647 0.74154 0.0
C1316 C 0.97955 0.14685 0.7807 0.0
C1317 C 0.99602 0.15092 0.75019 0.0
C1318 C 0.01123 0.1497 0.80331 0.0
C1319 C 0.02527 0.13542 0.78126 0.0
C1320 C 0.02009 0.16828 0.81452 0.0
C1321 C 0.00082 0.14378 0.86792 0.0
C1322 C 0.98257 0.14223 0.85391 0.0
C1323 C 0.97047 0.13578 0.90424 0.0
C1324 C 0.97715 0.13117 0.97109 0.0
C1325 C 0.99572 0.13327 0.98733 0.0
C1326 C 0.00765 0.13946 0.93443 0.0
H1327 H 0.36709 0.00933 0.14347 0.0
H1328 H 0.32944 0.96435 0.14799 0.0
H1329 H 0.32774 0.96693 0.27835 0.0
H1330 H 0.39162 0.99701 0.2968 0.0
H1331 H 0.39514 0.02006 0.32435 0.0
H1332 H 0.39271 0.01484 0.2322 0.0
H1333 H 0.36631 0.03774 0.22271 0.0
H1334 H 0.36859 0.04303 0.31488 0.0
H1335 H 0.34713 0.03555 0.28068 0.0
H1336 H 0.32971 0.97554 0.40793 0.0
H1337 H 0.33691 0.9876 0.52622 0.0
H1338 H 0.3747 0.02547 0.43314 0.0
C1339 C 0.35835 1.00005 0.17156 0.0
C1340 C 0.34824 0.98673 0.13592 0.0
C1341 C 0.33725 0.97466 0.17467 0.0
C1342 C 0.33618 0.97608 0.2484 0.0
C1343 C 0.34632 0.98951 0.28174 0.0
C1344 C 0.35731 0.00115 0.24439 0.0
C1345 C 0.36735 0.01404 0.29192 0.0
C1346 C 0.38792 0.01131 0.28596 0.0
C1347 C 0.36202 0.03376 0.27663 0.0
C1348 C 0.36033 0.00789 0.36241 0.0
C1349 C 0.3481 0.99384 0.35565 0.0
C1350 C 0.33953 0.98627 0.41387 0.0
C1351 C 0.34386 0.99305 0.48073 0.0
C1352 C 0.35692 0.0069 0.48848 0.0
C1353 C 0.36493 0.01463 0.42851 0.0
H1354 H 0.49089 0.34366 0.67733 0.0
H1355 H 0.54786 0.35701 0.66112 0.0
H1356 H 0.54912 0.36174 0.78978 0.0
H1357 H 0.47953 0.3762 0.79846 0.0
H1358 H 0.46374 0.36264 0.84779 0.0
H1359 H 0.46776 0.35781 0.75627 0.0
H1360 H 0.47649 0.32481 0.78708 0.0
H1361 H 0.47217 0.32943 0.87879 0.0
H1362 H 0.49381 0.32062 0.85186 0.0
H1363 H 0.54291 0.36969 0.91639 0.0
H1364 H 0.5306 0.37679 0.03373 0.0
H1365 H 0.47814 0.35657 0.96837 0.0
C1366 C 0.50375 0.34712 0.70103 0.0
C1367 C 0.51927 0.34999 0.65925 0.0
C1368 C 0.53582 0.35463 0.69216 0.0
C1369 C 0.53665 0.35741 0.76519 0.0
C1370 C 0.52091 0.35519 0.80448 0.0
C1371 C 0.50485 0.34979 0.77375 0.0
C1372 C 0.48964 0.34928 0.82695 0.0
C1373 C 0.47427 0.36226 0.8061 0.0
C1374 C 0.48262 0.32988 0.83675 0.0
C1375 C 0.4995 0.35583 0.89187 0.0
C1376 C 0.51752 0.35913 0.87801 0.0
C1377 C 0.52897 0.36657 0.92858 0.0
C1378 C 0.52187 0.37042 0.99547 0.0
C1379 C 0.50356 0.3666 0.0114 0.0
C1380 C 0.49228 0.35937 0.95838 0.0
H1381 H 0.1302 0.49605 0.14016 0.0
H1382 H 0.16988 0.53925 0.14222 0.0
H1383 H 0.17245 0.53621 0.27222 0.0
H1384 H 0.10763 0.50878 0.29986 0.0
H1385 H 0.10344 0.48571 0.32566 0.0
H1386 H 0.10499 0.49148 0.23371 0.0
H1387 H 0.13016 0.4675 0.21723 0.0
H1388 H 0.12882 0.46171 0.3092 0.0
H1389 H 0.15013 0.4685 0.27156 0.0
H1390 H 0.17168 0.52682 0.40119 0.0
H1391 H 0.16581 0.51405 0.51881 0.0
H1392 H 0.12509 0.47855 0.42975 0.0
C1393 C 0.13947 0.5049 0.16778 0.0
C1394 C 0.14997 0.51779 0.13148 0.0
C1395 C 0.16172 0.5293 0.16946 0.0
C1396 C 0.16331 0.52761 0.24298 0.0
C1397 C 0.15287 0.51453 0.27699 0.0
C1398 C 0.14103 0.50355 0.24051 0.0
C1399 C 0.13103 0.49077 0.28872 0.0
C1400 C 0.11056 0.49442 0.28688 0.0
C1401 C 0.1353 0.47095 0.27058 0.0
C1402 C 0.13916 0.49615 0.35846 0.0
C1403 C 0.15181 0.50977 0.35079 0.0
C1404 C 0.16149 0.51647 0.40799 0.0
C1405 C 0.15786 0.50929 0.47488 0.0
C1406 C 0.14443 0.49582 0.48398 0.0
C1407 C 0.13524 0.48902 0.42464 0.0
H1408 H 1.00001 0.61595 0.47054 0.0
H1409 H 0.96932 0.66566 0.48524 0.0
H1410 H 0.97858 0.67382 0.36395 0.0
H1411 H 0.03706 0.63287 0.35825 0.0
H1412 H 0.03809 0.61235 0.30718 0.0
H1413 H 0.03114 0.61157 0.39817 0.0
H1414 H 0.0013 0.59567 0.36216 0.0
H1415 H 0.00826 0.59623 0.27142 0.0
H1416 H 0.98694 0.60604 0.29689 0.0
H1417 H 0.98978 0.67579 0.24069 0.0
H1418 H 0.99833 0.66966 0.11768 0.0
H1419 H 0.02032 0.61765 0.18034 0.0
C1420 C 0.99551 0.62864 0.44816 0.0
C1421 C 0.98413 0.64031 0.48645 0.0
C1422 C 0.97806 0.65663 0.45596 0.0
C1423 C 0.98339 0.66142 0.38769 0.0
C1424 C 0.99463 0.64962 0.35087 0.0
C1425 C 1.00041 0.63344 0.37957 0.0
C1426 C 0.01065 0.62224 0.32608 0.0
C1427 C 0.03041 0.61961 0.34879 0.0
C1428 C 0.00122 0.60398 0.31338 0.0
C1429 C 0.0093 0.63445 0.26229 0.0
C1430 C 1.00044 0.65037 0.27833 0.0
C1431 C 0.99683 0.66343 0.22747 0.0
C1432 C 0.00177 0.65981 0.15771 0.0
C1433 C 0.00991 0.64312 0.13935 0.0
C1434 C 0.0142 0.63056 0.1928 0.0
H1435 H 0.86339 0.01049 0.00365 0.0
H1436 H 0.88735 0.95716 0.9815 0.0
H1437 H 0.88352 0.95907 0.85295 0.0
H1438 H 0.83104 0.00693 0.8725 0.0
H1439 H 0.83333 0.02963 0.83918 0.0
H1440 H 0.83867 0.0248 0.92982 0.0
H1441 H 0.87084 0.03796 0.91352 0.0
H1442 H 0.86548 0.04324 0.82321 0.0
H1443 H 0.88497 0.02957 0.84339 0.0
H1444 H 0.87429 0.96513 0.73032 0.0
H1445 H 0.86458 0.97707 0.61534 0.0
H1446 H 0.84961 0.02788 0.71363 0.0
C1447 C 0.8686 0.99953 0.97207 0.0
C1448 C 0.87599 0.98378 0.00299 0.0
C1449 C 0.8817 0.96938 0.95908 0.0
C1450 C 0.87958 0.97032 0.88601 0.0
C1451 C 0.87195 0.98585 0.85752 0.0
C1452 C 0.86695 1.0004 0.89872 0.0
C1453 C 0.85904 0.01547 0.85421 0.0
C1454 C 0.83935 0.01943 0.87521 0.0
C1455 C 0.87079 0.03257 0.85885 0.0
C1456 C 0.8601 0.00694 0.78178 0.0
C1457 C 0.86736 0.98974 0.78539 0.0
C1458 C 0.86881 0.97866 0.72652 0.0
C1459 C 0.86307 0.98548 0.6617 0.0
C1460 C 0.85626 0.00332 0.65616 0.0
C1461 C 0.85476 0.0142 0.71686 0.0
H1462 H 0.52452 0.85571 0.43539 0.0
H1463 H 0.47174 0.87234 0.51102 0.0
H1464 H 0.45872 0.86611 0.39433 0.0
H1465 H 0.52082 0.87735 0.27209 0.0
H1466 H 0.53296 0.86028 0.22361 0.0
H1467 H 0.53755 0.86361 0.31573 0.0
H1468 H 0.53069 0.82977 0.33943 0.0
H1469 H 0.52593 0.82638 0.24722 0.0
H1470 H 0.50927 0.82043 0.31251 0.0
H1471 H 0.45182 0.86025 0.26708 0.0
H1472 H 0.45222 0.85789 0.13729 0.0
H1473 H 0.50972 0.84628 0.14384 0.0
C1474 C 0.51017 0.85779 0.42769 0.0
C1475 C 0.49904 0.86384 0.48326 0.0
C1476 C 0.48041 0.86683 0.47059 0.0
C1477 C 0.47289 0.86347 0.4041 0.0
C1478 C 0.48421 0.85729 0.35071 0.0
C1479 C 0.50248 0.85463 0.36161 0.0
C1480 C 0.51203 0.84957 0.29398 0.0
C1481 C 0.52669 0.86354 0.27526 0.0
C1482 C 0.51994 0.8304 0.29859 0.0
C1483 C 0.49635 0.85032 0.24296 0.0
C1484 C 0.48035 0.85447 0.27683 0.0
C1485 C 0.46423 0.85683 0.23999 0.0
C1486 C 0.46458 0.85542 0.16631 0.0
C1487 C 0.481 0.85193 0.13051 0.0
C1488 C 0.49694 0.84888 0.16971 0.0
H1489 H 0.6231 0.52443 0.95203 0.0
H1490 H 0.65215 0.48023 0.05089 0.0
H1491 H 0.6616 0.46923 0.93433 0.0
H1492 H 0.60853 0.50128 0.7953 0.0
H1493 H 0.61248 0.52048 0.73891 0.0
H1494 H 0.60679 0.52388 0.83018 0.0
H1495 H 0.63586 0.54301 0.84658 0.0
H1496 H 0.64172 0.53949 0.7555 0.0
H1497 H 0.65747 0.53337 0.82391 0.0
H1498 H 0.66734 0.46263 0.80471 0.0
H1499 H 0.67019 0.46229 0.67439 0.0
H1500 H 0.64056 0.5128 0.66354 0.0
C1501 C 0.63125 0.51229 0.94919 0.0
C1502 C 0.636 0.50267 0.01072 0.0
C1503 C 0.64723 0.4872 0.0047 0.0
C1504 C 0.65301 0.48102 0.93853 0.0
C1505 C 0.64791 0.49074 0.87895 0.0
C1506 C 0.63746 0.50618 0.88384 0.0
C1507 C 0.6346 0.51474 0.81237 0.0
C1508 C 0.6144 0.51511 0.79307 0.0
C1509 C 0.64291 0.53378 0.80945 0.0
C1510 C 0.64495 0.50163 0.76643 0.0
C1511 C 0.65241 0.48776 0.80551 0.0
C1512 C 0.66176 0.47355 0.77365 0.0
C1513 C 0.66334 0.47346 0.69981 0.0
C1514 C 0.6559 0.48766 0.65919 0.0
C1515 C 0.64679 0.50198 0.69331 0.0
H1516 H 0.9933 0.8496 0.36709 0.0
H1517 H 0.04935 0.86698 0.36413 0.0
H1518 H 0.04778 0.87038 0.23497 0.0
H1519 H 0.99415 0.825 0.19667 0.0
H1520 H 0.97161 0.83222 0.1741 0.0
H1521 H 0.97779 0.82914 0.26518 0.0
H1522 H 0.9678 0.862 0.29195 0.0
H1523 H 0.96182 0.86527 0.20093 0.0
H1524 H 0.97764 0.88037 0.24276 0.0
H1525 H 0.03918 0.87534 0.10904 0.0
H1526 H 0.02481 0.87948 0.99332 0.0
H1527 H 0.97448 0.85818 0.07617 0.0
C1528 C 0.00539 0.85367 0.33916 0.0
C1529 C 0.02149 0.85795 0.37585 0.0
C1530 C 0.03689 0.86355 0.33729 0.0
C1531 C 0.03613 0.86555 0.26386 0.0
C1532 C 0.01989 0.8618 0.22966 0.0
C1533 C 0.00485 0.85578 0.26584 0.0
C1534 C 0.98877 0.85368 0.21695 0.0
C1535 C 0.98273 0.83383 0.21299 0.0
C1536 C 0.97309 0.86607 0.23951 0.0
C1537 C 0.99702 0.85986 0.14795 0.0
C1538 C 0.015 0.86439 0.15646 0.0
C1539 C 0.02525 0.87135 0.10125 0.0
C1540 C 0.01698 0.87349 0.03532 0.0
C1541 C 0.99869 0.86851 0.02473 0.0
C1542 C 0.98857 0.86182 0.08227 0.0
H1543 H 0.65715 0.99329 0.80273 0.0
H1544 H 0.65029 0.05157 0.80786 0.0
H1545 H 0.64548 0.05169 0.67926 0.0
H1546 H 0.68011 0.99127 0.62878 0.0
H1547 H 0.66884 0.97053 0.6052 0.0
H1548 H 0.67378 0.97534 0.69629 0.0
H1549 H 0.63994 0.97101 0.72709 0.0
H1550 H 0.63484 0.96646 0.63609 0.0
H1551 H 0.62315 0.98432 0.68185 0.0
H1552 H 0.63749 0.04504 0.55341 0.0
H1553 H 0.62975 0.03249 0.43723 0.0
H1554 H 0.64306 0.97867 0.51203 0.0
C1555 C 0.6551 0.00615 0.77666 0.0
C1556 C 0.65413 0.02243 0.81556 0.0
C1557 C 0.65116 0.03892 0.77934 0.0
C1558 C 0.64837 0.03913 0.70623 0.0
C1559 C 0.64876 0.02277 0.66993 0.0
C1560 C 0.65233 0.00661 0.70368 0.0
C1561 C 0.65113 0.99082 0.65298 0.0
C1562 C 0.66956 0.98144 0.64536 0.0
C1563 C 0.63639 0.97737 0.67589 0.0
C1564 C 0.64588 1.00059 0.58587 0.0
C1565 C 0.64464 0.019 0.59674 0.0
C1566 C 0.63895 0.0307 0.54368 0.0
C1567 C 0.63475 0.02343 0.47741 0.0
C1568 C 0.63646 0.00466 0.46432 0.0
C1569 C 0.6419 0.99313 0.51986 0.0
H1570 H 0.49943 0.61651 0.03761 0.0
H1571 H 0.53142 0.66541 0.02376 0.0
H1572 H 0.52232 0.67371 0.14511 0.0
H1573 H 0.4628 0.63429 0.1506 0.0
H1574 H 0.46128 0.61372 0.2012 0.0
H1575 H 0.46814 0.6129 0.1101 0.0
H1576 H 0.49758 0.59617 0.14542 0.0
H1577 H 0.49071 0.59679 0.23625 0.0
H1578 H 0.51225 0.60608 0.21071 0.0
H1579 H 0.51123 0.6758 0.26854 0.0
H1580 H 0.50265 0.66971 0.39154 0.0
H1581 H 0.47931 0.61836 0.32801 0.0
C1582 C 0.50423 0.62907 0.06016 0.0
C1583 C 0.51593 0.64047 0.0221 0.0
C1584 C 0.52241 0.6566 0.05284 0.0
C1585 C 0.51717 0.66148 0.12116 0.0
C1586 C 0.50563 0.64993 0.1578 0.0
C1587 C 0.49944 0.63393 0.12882 0.0
C1588 C 0.48896 0.62293 0.1822 0.0
C1589 C 0.46911 0.62084 0.15966 0.0
C1590 C 0.49792 0.60441 0.19437 0.0
C1591 C 0.49066 0.635 0.24626 0.0
C1592 C 0.4999 0.65072 0.23045 0.0
C1593 C 0.50389 0.6636 0.28158 0.0
C1594 C 0.49892 0.66001 0.35134 0.0
C1595 C 0.49038 0.6435 0.36944 0.0
C1596 C 0.48573 0.63113 0.31575 0.0
H1597 H 0.86581 0.5309 0.55184 0.0
H1598 H 0.84767 0.48162 0.4503 0.0
H1599 H 0.84215 0.46776 0.56658 0.0
H1600 H 0.8885 0.51059 0.69575 0.0
H1601 H 0.88146 0.52733 0.75904 0.0
H1602 H 0.88367 0.53336 0.66759 0.0
H1603 H 0.85047 0.54462 0.66649 0.0
H1604 H 0.84818 0.53859 0.75802 0.0
H1605 H 0.83265 0.52956 0.69386 0.0
H1606 H 0.84039 0.45868 0.69493 0.0
H1607 H 0.84123 0.45585 0.8251 0.0
H1608 H 0.85873 0.51174 0.84032 0.0
C1609 C 0.86066 0.51721 0.55428 0.0
C1610 C 0.85786 0.50706 0.4925 0.0
C1611 C 0.85073 0.48932 0.49733 0.0
C1612 C 0.84732 0.48141 0.56304 0.0
C1613 C 0.8507 0.4916 0.62322 0.0
C1614 C 0.85702 0.50918 0.61938 0.0
C1615 C 0.8596 0.51721 0.69181 0.0
C1616 C 0.87949 0.52242 0.70425 0.0
C1617 C 0.84696 0.53346 0.70319 0.0
C1618 C 0.85407 0.5013 0.73686 0.0
C1619 C 0.84896 0.48663 0.69661 0.0
C1620 C 0.84416 0.47015 0.72713 0.0
C1621 C 0.84469 0.46864 0.80091 0.0
C1622 C 0.84991 0.48358 0.84281 0.0
C1623 C 0.85445 0.5001 0.80998 0.0
loop_
_geom_bond_atom_site_label_1
_geom_bond_atom_site_label_2
_geom_bond_distance
_geom_bond_site_symmetry_2
_ccdc_geom_bond_type
Co0 O3 1.970 1_455 S
Co0 N17 1.989 . S
Co0 O25 1.967 . S
Co0 O32 1.920 1_554 S
Co1 O4 1.966 1_455 S
Co1 N10 2.022 . S
Co1 N18 1.993 . S
Co1 O26 1.941 . S
C2 O3 1.258 . S
C2 O4 1.263 . S
O3 Co0 1.970 1_655 S
O3 C2 1.258 . S
O4 Co1 1.966 1_655 S
O4 C2 1.263 . S
C5 O6 1.235 . S
C5 O32 1.289 1_655 S
O6 C5 1.235 . S
C7 C9 1.400 . S
C7 N10 1.351 . S
C7 C12 1.501 1_455 S
C8 C9 1.387 . S
C8 N11 1.341 . S
C9 C7 1.400 . S
C9 C8 1.387 . S
N10 Co1 2.022 . S
N10 C7 1.351 . S
N10 N11 1.365 . S
N11 C8 1.341 . S
N11 N10 1.365 . S
N11 H31 0.862 . S
C12 C7 1.501 1_655 S
C12 H13 0.961 . S
C12 H14 0.961 . S
C12 H15 0.960 . S
H13 C12 0.961 . S
H14 C12 0.961 . S
H15 C12 0.960 . S
C16 N17 1.342 . S
C16 C20 1.401 . S
C16 C21 1.499 . S
N17 Co0 1.989 . S
N17 C16 1.342 . S
N17 N18 1.388 . S
N18 Co1 1.993 . S
N18 N17 1.388 . S
N18 C19 1.346 . S
C19 N18 1.346 . S
C19 C20 1.396 . S
C19 C29 1.510 . S
C20 C16 1.401 . S
C20 C19 1.396 . S
C21 C16 1.499 . S
C21 H22 0.959 . S
C21 H23 0.960 . S
C21 H24 0.961 . S
H22 C21 0.959 . S
H23 C21 0.960 . S
H24 C21 0.961 . S
O25 Co0 1.967 . S
O25 C33 1.258 . S
O26 Co1 1.941 . S
O26 C33 1.266 . S
H27 C29 0.959 . S
H28 C29 0.961 . S
C29 C19 1.510 . S
C29 H27 0.959 . S
C29 H28 0.961 . S
C29 H30 0.960 . S
H30 C29 0.960 . S
H31 N11 0.862 . S
O32 Co0 1.920 1_556 S
O32 C5 1.289 1_455 S
C33 O25 1.258 . S
C33 O26 1.266 . S
Co34 O37 1.970 1_545 S
Co34 N51 1.989 . S
Co34 O59 1.967 . S
Co34 O66 1.920 . S
Co35 O38 1.966 1_545 S
Co35 N44 2.022 . S
Co35 N52 1.993 . S
Co35 O60 1.941 . S
C36 O37 1.258 . S
C36 O38 1.263 . S
O37 Co34 1.970 1_565 S
O37 C36 1.258 . S
O38 Co35 1.966 1_565 S
O38 C36 1.263 . S
C39 O40 1.235 . S
C39 O66 1.289 1_565 S
O40 C39 1.235 . S
C41 C43 1.400 . S
C41 N44 1.351 . S
C41 C46 1.501 1_545 S
C42 C43 1.387 . S
C42 N45 1.341 . S
C43 C41 1.400 . S
C43 C42 1.387 . S
N44 Co35 2.022 . S
N44 C41 1.351 . S
N44 N45 1.365 . S
N45 C42 1.341 . S
N45 N44 1.365 . S
N45 H65 0.862 . S
C46 C41 1.501 1_565 S
C46 H47 0.961 . S
C46 H48 0.961 . S
C46 H49 0.960 . S
H47 C46 0.961 . S
H48 C46 0.961 . S
H49 C46 0.960 . S
C50 N51 1.342 . S
C50 C54 1.401 . S
C50 C55 1.499 . S
N51 Co34 1.989 . S
N51 C50 1.342 . S
N51 N52 1.388 . S
N52 Co35 1.993 . S
N52 N51 1.388 . S
N52 C53 1.346 . S
C53 N52 1.346 . S
C53 C54 1.396 . S
C53 C63 1.510 . S
C54 C50 1.401 . S
C54 C53 1.396 . S
C55 C50 1.499 . S
C55 H56 0.959 . S
C55 H57 0.960 . S
C55 H58 0.961 . S
H56 C55 0.959 . S
H57 C55 0.960 . S
H58 C55 0.961 . S
O59 Co34 1.967 . S
O59 C67 1.258 . S
O60 Co35 1.941 . S
O60 C67 1.266 . S
H61 C63 0.959 . S
H62 C63 0.961 . S
C63 C53 1.510 . S
C63 H61 0.959 . S
C63 H62 0.961 . S
C63 H64 0.960 . S
H64 C63 0.960 . S
H65 N45 0.862 . S
O66 Co34 1.920 . S
O66 C39 1.289 1_545 S
C67 O59 1.258 . S
C67 O60 1.266 . S
Co68 O71 1.970 . S
Co68 N85 1.989 . S
Co68 O93 1.967 . S
Co68 O100 1.920 1_554 S
Co69 O72 1.966 . S
Co69 N78 2.022 . S
Co69 N86 1.993 . S
Co69 O94 1.941 . S
C70 O71 1.258 . S
C70 O72 1.263 . S
O71 Co68 1.970 . S
O71 C70 1.258 . S
O72 Co69 1.966 . S
O72 C70 1.263 . S
C73 O74 1.235 . S
C73 O100 1.289 . S
O74 C73 1.235 . S
C75 C77 1.400 . S
C75 N78 1.351 . S
C75 C80 1.501 . S
C76 C77 1.387 . S
C76 N79 1.341 . S
C77 C75 1.400 . S
C77 C76 1.387 . S
N78 Co69 2.022 . S
N78 C75 1.351 . S
N78 N79 1.365 . S
N79 C76 1.341 . S
N79 N78 1.365 . S
N79 H99 0.862 . S
C80 C75 1.501 . S
C80 H81 0.961 . S
C80 H82 0.961 . S
C80 H83 0.960 . S
H81 C80 0.961 . S
H82 C80 0.961 . S
H83 C80 0.960 . S
C84 N85 1.342 . S
C84 C88 1.401 . S
C84 C89 1.499 . S
N85 Co68 1.989 . S
N85 C84 1.342 . S
N85 N86 1.388 . S
N86 Co69 1.993 . S
N86 N85 1.388 . S
N86 C87 1.346 . S
C87 N86 1.346 . S
C87 C88 1.396 . S
C87 C97 1.510 . S
C88 C84 1.401 . S
C88 C87 1.396 . S
C89 C84 1.499 . S
C89 H90 0.959 . S
C89 H91 0.960 . S
C89 H92 0.961 . S
H90 C89 0.959 . S
H91 C89 0.960 . S
H92 C89 0.961 . S
O93 Co68 1.967 . S
O93 C101 1.258 . S
O94 Co69 1.941 . S
O94 C101 1.266 . S
H95 C97 0.959 . S
H96 C97 0.961 . S
C97 C87 1.510 . S
C97 H95 0.959 . S
C97 H96 0.961 . S
C97 H98 0.960 . S
H98 C97 0.960 . S
H99 N79 0.862 . S
O100 Co68 1.920 1_556 S
O100 C73 1.289 . S
C101 O93 1.258 . S
C101 O94 1.266 . S
Co102 O105 1.970 . S
Co102 N119 1.989 . S
Co102 O127 1.967 . S
Co102 O134 1.920 . S
Co103 O106 1.966 . S
Co103 N112 2.022 . S
Co103 N120 1.993 . S
Co103 O128 1.941 . S
C104 O105 1.258 . S
C104 O106 1.263 . S
O105 Co102 1.970 . S
O105 C104 1.258 . S
O106 Co103 1.966 . S
O106 C104 1.263 . S
C107 O108 1.235 . S
C107 O134 1.289 . S
O108 C107 1.235 . S
C109 C111 1.400 . S
C109 N112 1.351 . S
C109 C114 1.501 . S
C110 C111 1.387 . S
C110 N113 1.341 . S
C111 C109 1.400 . S
C111 C110 1.387 . S
N112 Co103 2.022 . S
N112 C109 1.351 . S
N112 N113 1.365 . S
N113 C110 1.341 . S
N113 N112 1.365 . S
N113 H133 0.862 . S
C114 C109 1.501 . S
C114 H115 0.961 . S
C114 H116 0.961 . S
C114 H117 0.960 . S
H115 C114 0.961 . S
H116 C114 0.961 . S
H117 C114 0.960 . S
C118 N119 1.342 . S
C118 C122 1.401 . S
C118 C123 1.499 . S
N119 Co102 1.989 . S
N119 C118 1.342 . S
N119 N120 1.388 . S
N120 Co103 1.993 . S
N120 N119 1.388 . S
N120 C121 1.346 . S
C121 N120 1.346 . S
C121 C122 1.396 . S
C121 C131 1.510 . S
C122 C118 1.401 . S
C122 C121 1.396 . S
C123 C118 1.499 . S
C123 H124 0.959 . S
C123 H125 0.960 . S
C123 H126 0.961 . S
H124 C123 0.959 . S
H125 C123 0.960 . S
H126 C123 0.961 . S
O127 Co102 1.967 . S
O127 C135 1.258 . S
O128 Co103 1.941 . S
O128 C135 1.266 . S
H129 C131 0.959 . S
H130 C131 0.961 . S
C131 C121 1.510 . S
C131 H129 0.959 . S
C131 H130 0.961 . S
C131 H132 0.960 . S
H132 C131 0.960 . S
H133 N113 0.862 . S
O134 Co102 1.920 . S
O134 C107 1.289 . S
C135 O127 1.258 . S
C135 O128 1.266 . S
Co136 O139 1.970 1_455 S
Co136 N153 1.989 . S
Co136 O161 1.967 . S
Co136 O168 1.920 . S
Co137 O140 1.966 1_455 S
Co137 N146 2.022 . S
Co137 N154 1.993 . S
Co137 O162 1.941 . S
C138 O139 1.258 . S
C138 O140 1.263 . S
O139 Co136 1.970 1_655 S
O139 C138 1.258 . S
O140 Co137 1.966 1_655 S
O140 C138 1.263 . S
C141 O142 1.235 . S
C141 O168 1.289 1_655 S
O142 C141 1.235 . S
C143 C145 1.400 . S
C143 N146 1.351 . S
C143 C148 1.501 1_455 S
C144 C145 1.387 . S
C144 N147 1.341 . S
C145 C143 1.400 . S
C145 C144 1.387 . S
N146 Co137 2.022 . S
N146 C143 1.351 . S
N146 N147 1.365 . S
N147 C144 1.341 . S
N147 N146 1.365 . S
N147 H167 0.862 . S
C148 C143 1.501 1_655 S
C148 H149 0.961 . S
C148 H150 0.961 . S
C148 H151 0.960 . S
H149 C148 0.961 . S
H150 C148 0.961 . S
H151 C148 0.960 . S
C152 N153 1.342 . S
C152 C156 1.401 . S
C152 C157 1.499 . S
N153 Co136 1.989 . S
N153 C152 1.342 . S
N153 N154 1.388 . S
N154 Co137 1.993 . S
N154 N153 1.388 . S
N154 C155 1.346 . S
C155 N154 1.346 . S
C155 C156 1.396 . S
C155 C165 1.510 . S
C156 C152 1.401 . S
C156 C155 1.396 . S
C157 C152 1.499 . S
C157 H158 0.959 . S
C157 H159 0.960 . S
C157 H160 0.961 . S
H158 C157 0.959 . S
H159 C157 0.960 . S
H160 C157 0.961 . S
O161 Co136 1.967 . S
O161 C169 1.258 . S
O162 Co137 1.941 . S
O162 C169 1.266 . S
H163 C165 0.959 . S
H164 C165 0.961 . S
C165 C155 1.510 . S
C165 H163 0.959 . S
C165 H164 0.961 . S
C165 H166 0.960 . S
H166 C165 0.960 . S
H167 N147 0.862 . S
O168 Co136 1.920 . S
O168 C141 1.289 1_455 S
C169 O161 1.258 . S
C169 O162 1.266 . S
Co170 O173 1.970 1_545 S
Co170 N187 1.989 . S
Co170 O195 1.967 . S
Co170 O202 1.920 1_556 S
Co171 O174 1.966 1_545 S
Co171 N180 2.022 . S
Co171 N188 1.993 . S
Co171 O196 1.941 . S
C172 O173 1.258 . S
C172 O174 1.263 . S
O173 Co170 1.970 1_565 S
O173 C172 1.258 . S
O174 Co171 1.966 1_565 S
O174 C172 1.263 . S
C175 O176 1.235 . S
C175 O202 1.289 1_565 S
O176 C175 1.235 . S
C177 C179 1.400 . S
C177 N180 1.351 . S
C177 C182 1.501 1_545 S
C178 C179 1.387 . S
C178 N181 1.341 . S
C179 C177 1.400 . S
C179 C178 1.387 . S
N180 Co171 2.022 . S
N180 C177 1.351 . S
N180 N181 1.365 . S
N181 C178 1.341 . S
N181 N180 1.365 . S
N181 H201 0.862 . S
C182 C177 1.501 1_565 S
C182 H183 0.961 . S
C182 H184 0.961 . S
C182 H185 0.960 . S
H183 C182 0.961 . S
H184 C182 0.961 . S
H185 C182 0.960 . S
C186 N187 1.342 . S
C186 C190 1.401 . S
C186 C191 1.499 . S
N187 Co170 1.989 . S
N187 C186 1.342 . S
N187 N188 1.388 . S
N188 Co171 1.993 . S
N188 N187 1.388 . S
N188 C189 1.346 . S
C189 N188 1.346 . S
C189 C190 1.396 . S
C189 C199 1.510 . S
C190 C186 1.401 . S
C190 C189 1.396 . S
C191 C186 1.499 . S
C191 H192 0.959 . S
C191 H193 0.960 . S
C191 H194 0.961 . S
H192 C191 0.959 . S
H193 C191 0.960 . S
H194 C191 0.961 . S
O195 Co170 1.967 . S
O195 C203 1.258 . S
O196 Co171 1.941 . S
O196 C203 1.266 . S
H197 C199 0.959 . S
H198 C199 0.961 . S
C199 C189 1.510 . S
C199 H197 0.959 . S
C199 H198 0.961 . S
C199 H200 0.960 . S
H200 C199 0.960 . S
H201 N181 0.862 . S
O202 Co170 1.920 1_554 S
O202 C175 1.289 1_545 S
C203 O195 1.258 . S
C203 O196 1.266 . S
Co204 O207 1.970 . S
Co204 N221 1.989 . S
Co204 O229 1.967 . S
Co204 O236 1.920 . S
Co205 O208 1.966 . S
Co205 N214 2.022 . S
Co205 N222 1.993 . S
Co205 O230 1.941 . S
C206 O207 1.258 . S
C206 O208 1.263 . S
O207 Co204 1.970 . S
O207 C206 1.258 . S
O208 Co205 1.966 . S
O208 C206 1.263 . S
C209 O210 1.235 . S
C209 O236 1.289 . S
O210 C209 1.235 . S
C211 C213 1.400 . S
C211 N214 1.351 . S
C211 C216 1.501 . S
C212 C213 1.387 . S
C212 N215 1.341 . S
C213 C211 1.400 . S
C213 C212 1.387 . S
N214 Co205 2.022 . S
N214 C211 1.351 . S
N214 N215 1.365 . S
N215 C212 1.341 . S
N215 N214 1.365 . S
N215 H235 0.862 . S
C216 C211 1.501 . S
C216 H217 0.961 . S
C216 H218 0.961 . S
C216 H219 0.960 . S
H217 C216 0.961 . S
H218 C216 0.961 . S
H219 C216 0.960 . S
C220 N221 1.342 . S
C220 C224 1.401 . S
C220 C225 1.499 . S
N221 Co204 1.989 . S
N221 C220 1.342 . S
N221 N222 1.388 . S
N222 Co205 1.993 . S
N222 N221 1.388 . S
N222 C223 1.346 . S
C223 N222 1.346 . S
C223 C224 1.396 . S
C223 C233 1.510 . S
C224 C220 1.401 . S
C224 C223 1.396 . S
C225 C220 1.499 . S
C225 H226 0.959 . S
C225 H227 0.960 . S
C225 H228 0.961 . S
H226 C225 0.959 . S
H227 C225 0.960 . S
H228 C225 0.961 . S
O229 Co204 1.967 . S
O229 C237 1.258 . S
O230 Co205 1.941 . S
O230 C237 1.266 . S
H231 C233 0.959 . S
H232 C233 0.961 . S
C233 C223 1.510 . S
C233 H231 0.959 . S
C233 H232 0.961 . S
C233 H234 0.960 . S
H234 C233 0.960 . S
H235 N215 0.862 . S
O236 Co204 1.920 . S
O236 C209 1.289 . S
C237 O229 1.258 . S
C237 O230 1.266 . S
Co238 O241 1.970 . S
Co238 N255 1.989 . S
Co238 O263 1.967 . S
Co238 O270 1.920 1_556 S
Co239 O242 1.966 . S
Co239 N248 2.022 . S
Co239 N256 1.993 . S
Co239 O264 1.941 . S
C240 O241 1.258 . S
C240 O242 1.263 . S
O241 Co238 1.970 . S
O241 C240 1.258 . S
O242 Co239 1.966 . S
O242 C240 1.263 . S
C243 O244 1.235 . S
C243 O270 1.289 . S
O244 C243 1.235 . S
C245 C247 1.400 . S
C245 N248 1.351 . S
C245 C250 1.501 . S
C246 C247 1.387 . S
C246 N249 1.341 . S
C247 C245 1.400 . S
C247 C246 1.387 . S
N248 Co239 2.022 . S
N248 C245 1.351 . S
N248 N249 1.365 . S
N249 C246 1.341 . S
N249 N248 1.365 . S
N249 H269 0.862 . S
C250 C245 1.501 . S
C250 H251 0.961 . S
C250 H252 0.961 . S
C250 H253 0.960 . S
H251 C250 0.961 . S
H252 C250 0.961 . S
H253 C250 0.960 . S
C254 N255 1.342 . S
C254 C258 1.401 . S
C254 C259 1.499 . S
N255 Co238 1.989 . S
N255 C254 1.342 . S
N255 N256 1.388 . S
N256 Co239 1.993 . S
N256 N255 1.388 . S
N256 C257 1.346 . S
C257 N256 1.346 . S
C257 C258 1.396 . S
C257 C267 1.510 . S
C258 C254 1.401 . S
C258 C257 1.396 . S
C259 C254 1.499 . S
C259 H260 0.959 . S
C259 H261 0.960 . S
C259 H262 0.961 . S
H260 C259 0.959 . S
H261 C259 0.960 . S
H262 C259 0.961 . S
O263 Co238 1.967 . S
O263 C271 1.258 . S
O264 Co239 1.941 . S
O264 C271 1.266 . S
H265 C267 0.959 . S
H266 C267 0.961 . S
C267 C257 1.510 . S
C267 H265 0.959 . S
C267 H266 0.961 . S
C267 H268 0.960 . S
H268 C267 0.960 . S
H269 N249 0.862 . S
O270 Co238 1.920 1_554 S
O270 C243 1.289 . S
C271 O263 1.258 . S
C271 O264 1.266 . S
Co272 O275 1.970 1_655 S
Co272 N289 1.989 . S
Co272 O297 1.967 . S
Co272 O304 1.920 1_556 S
Co273 O276 1.966 1_655 S
Co273 N282 2.022 . S
Co273 N290 1.993 . S
Co273 O298 1.941 . S
C274 O275 1.258 . S
C274 O276 1.263 . S
O275 Co272 1.970 1_455 S
O275 C274 1.258 . S
O276 Co273 1.966 1_455 S
O276 C274 1.263 . S
C277 O278 1.235 . S
C277 O304 1.289 1_455 S
O278 C277 1.235 . S
C279 C281 1.400 . S
C279 N282 1.351 . S
C279 C284 1.501 1_655 S
C280 C281 1.387 . S
C280 N283 1.341 . S
C281 C279 1.400 . S
C281 C280 1.387 . S
N282 Co273 2.022 . S
N282 C279 1.351 . S
N282 N283 1.365 . S
N283 C280 1.341 . S
N283 N282 1.365 . S
N283 H303 0.862 . S
C284 C279 1.501 1_455 S
C284 H285 0.961 . S
C284 H286 0.961 . S
C284 H287 0.960 . S
H285 C284 0.961 . S
H286 C284 0.961 . S
H287 C284 0.960 . S
C288 N289 1.342 . S
C288 C292 1.401 . S
C288 C293 1.499 . S
N289 Co272 1.989 . S
N289 C288 1.342 . S
N289 N290 1.388 . S
N290 Co273 1.993 . S
N290 N289 1.388 . S
N290 C291 1.346 . S
C291 N290 1.346 . S
C291 C292 1.396 . S
C291 C301 1.510 . S
C292 C288 1.401 . S
C292 C291 1.396 . S
C293 C288 1.499 . S
C293 H294 0.959 . S
C293 H295 0.960 . S
C293 H296 0.961 . S
H294 C293 0.959 . S
H295 C293 0.960 . S
H296 C293 0.961 . S
O297 Co272 1.967 . S
O297 C305 1.258 . S
O298 Co273 1.941 . S
O298 C305 1.266 . S
H299 C301 0.959 . S
H300 C301 0.961 . S
C301 C291 1.510 . S
C301 H299 0.959 . S
C301 H300 0.961 . S
C301 H302 0.960 . S
H302 C301 0.960 . S
H303 N283 0.862 . S
O304 Co272 1.920 1_554 S
O304 C277 1.289 1_655 S
C305 O297 1.258 . S
C305 O298 1.266 . S
Co306 O309 1.970 1_565 S
Co306 N323 1.989 . S
Co306 O331 1.967 . S
Co306 O338 1.920 . S
Co307 O310 1.966 1_565 S
Co307 N316 2.022 . S
Co307 N324 1.993 . S
Co307 O332 1.941 . S
C308 O309 1.258 . S
C308 O310 1.263 . S
O309 Co306 1.970 1_545 S
O309 C308 1.258 . S
O310 Co307 1.966 1_545 S
O310 C308 1.263 . S
C311 O312 1.235 . S
C311 O338 1.289 1_545 S
O312 C311 1.235 . S
C313 C315 1.400 . S
C313 N316 1.351 . S
C313 C318 1.501 1_565 S
C314 C315 1.387 . S
C314 N317 1.341 . S
C315 C313 1.400 . S
C315 C314 1.387 . S
N316 Co307 2.022 . S
N316 C313 1.351 . S
N316 N317 1.365 . S
N317 C314 1.341 . S
N317 N316 1.365 . S
N317 H337 0.862 . S
C318 C313 1.501 1_545 S
C318 H319 0.961 . S
C318 H320 0.961 . S
C318 H321 0.960 . S
H319 C318 0.961 . S
H320 C318 0.961 . S
H321 C318 0.960 . S
C322 N323 1.342 . S
C322 C326 1.401 . S
C322 C327 1.499 . S
N323 Co306 1.989 . S
N323 C322 1.342 . S
N323 N324 1.388 . S
N324 Co307 1.993 . S
N324 N323 1.388 . S
N324 C325 1.346 . S
C325 N324 1.346 . S
C325 C326 1.396 . S
C325 C335 1.510 . S
C326 C322 1.401 . S
C326 C325 1.396 . S
C327 C322 1.499 . S
C327 H328 0.959 . S
C327 H329 0.960 . S
C327 H330 0.961 . S
H328 C327 0.959 . S
H329 C327 0.960 . S
H330 C327 0.961 . S
O331 Co306 1.967 . S
O331 C339 1.258 . S
O332 Co307 1.941 . S
O332 C339 1.266 . S
H333 C335 0.959 . S
H334 C335 0.961 . S
C335 C325 1.510 . S
C335 H333 0.959 . S
C335 H334 0.961 . S
C335 H336 0.960 . S
H336 C335 0.960 . S
H337 N317 0.862 . S
O338 Co306 1.920 . S
O338 C311 1.289 1_565 S
C339 O331 1.258 . S
C339 O332 1.266 . S
Co340 O343 1.970 . S
Co340 N357 1.989 . S
Co340 O365 1.967 . S
Co340 O372 1.920 1_556 S
Co341 O344 1.966 . S
Co341 N350 2.022 . S
Co341 N358 1.993 . S
Co341 O366 1.941 . S
C342 O343 1.258 . S
C342 O344 1.263 . S
O343 Co340 1.970 . S
O343 C342 1.258 . S
O344 Co341 1.966 . S
O344 C342 1.263 . S
C345 O346 1.235 . S
C345 O372 1.289 . S
O346 C345 1.235 . S
C347 C349 1.400 . S
C347 N350 1.351 . S
C347 C352 1.501 . S
C348 C349 1.387 . S
C348 N351 1.341 . S
C349 C347 1.400 . S
C349 C348 1.387 . S
N350 Co341 2.022 . S
N350 C347 1.351 . S
N350 N351 1.365 . S
N351 C348 1.341 . S
N351 N350 1.365 . S
N351 H371 0.862 . S
C352 C347 1.501 . S
C352 H353 0.961 . S
C352 H354 0.961 . S
C352 H355 0.960 . S
H353 C352 0.961 . S
H354 C352 0.961 . S
H355 C352 0.960 . S
C356 N357 1.342 . S
C356 C360 1.401 . S
C356 C361 1.499 . S
N357 Co340 1.989 . S
N357 C356 1.342 . S
N357 N358 1.388 . S
N358 Co341 1.993 . S
N358 N357 1.388 . S
N358 C359 1.346 . S
C359 N358 1.346 . S
C359 C360 1.396 . S
C359 C369 1.510 . S
C360 C356 1.401 . S
C360 C359 1.396 . S
C361 C356 1.499 . S
C361 H362 0.959 . S
C361 H363 0.960 . S
C361 H364 0.961 . S
H362 C361 0.959 . S
H363 C361 0.960 . S
H364 C361 0.961 . S
O365 Co340 1.967 . S
O365 C373 1.258 . S
O366 Co341 1.941 . S
O366 C373 1.266 . S
H367 C369 0.959 . S
H368 C369 0.961 . S
C369 C359 1.510 . S
C369 H367 0.959 . S
C369 H368 0.961 . S
C369 H370 0.960 . S
H370 C369 0.960 . S
H371 N351 0.862 . S
O372 Co340 1.920 1_554 S
O372 C345 1.289 . S
C373 O365 1.258 . S
C373 O366 1.266 . S
Co374 O377 1.970 . S
Co374 N391 1.989 . S
Co374 O399 1.967 . S
Co374 O406 1.920 . S
Co375 O378 1.966 . S
Co375 N384 2.022 . S
Co375 N392 1.993 . S
Co375 O400 1.941 . S
C376 O377 1.258 . S
C376 O378 1.263 . S
O377 Co374 1.970 . S
O377 C376 1.258 . S
O378 Co375 1.966 . S
O378 C376 1.263 . S
C379 O380 1.235 . S
C379 O406 1.289 . S
O380 C379 1.235 . S
C381 C383 1.400 . S
C381 N384 1.351 . S
C381 C386 1.501 . S
C382 C383 1.387 . S
C382 N385 1.341 . S
C383 C381 1.400 . S
C383 C382 1.387 . S
N384 Co375 2.022 . S
N384 C381 1.351 . S
N384 N385 1.365 . S
N385 C382 1.341 . S
N385 N384 1.365 . S
N385 H405 0.862 . S
C386 C381 1.501 . S
C386 H387 0.961 . S
C386 H388 0.961 . S
C386 H389 0.960 . S
H387 C386 0.961 . S
H388 C386 0.961 . S
H389 C386 0.960 . S
C390 N391 1.342 . S
C390 C394 1.401 . S
C390 C395 1.499 . S
N391 Co374 1.989 . S
N391 C390 1.342 . S
N391 N392 1.388 . S
N392 Co375 1.993 . S
N392 N391 1.388 . S
N392 C393 1.346 . S
C393 N392 1.346 . S
C393 C394 1.396 . S
C393 C403 1.510 . S
C394 C390 1.401 . S
C394 C393 1.396 . S
C395 C390 1.499 . S
C395 H396 0.959 . S
C395 H397 0.960 . S
C395 H398 0.961 . S
H396 C395 0.959 . S
H397 C395 0.960 . S
H398 C395 0.961 . S
O399 Co374 1.967 . S
O399 C407 1.258 . S
O400 Co375 1.941 . S
O400 C407 1.266 . S
H401 C403 0.959 . S
H402 C403 0.961 . S
C403 C393 1.510 . S
C403 H401 0.959 . S
C403 H402 0.961 . S
C403 H404 0.960 . S
H404 C403 0.960 . S
H405 N385 0.862 . S
O406 Co374 1.920 . S
O406 C379 1.289 . S
C407 O399 1.258 . S
C407 O400 1.266 . S
Co408 O411 1.970 1_655 S
Co408 N425 1.989 . S
Co408 O433 1.967 . S
Co408 O440 1.920 . S
Co409 O412 1.966 1_655 S
Co409 N418 2.022 . S
Co409 N426 1.993 . S
Co409 O434 1.941 . S
C410 O411 1.258 . S
C410 O412 1.263 . S
O411 Co408 1.970 1_455 S
O411 C410 1.258 . S
O412 Co409 1.966 1_455 S
O412 C410 1.263 . S
C413 O414 1.235 . S
C413 O440 1.289 1_455 S
O414 C413 1.235 . S
C415 C417 1.400 . S
C415 N418 1.351 . S
C415 C420 1.501 1_655 S
C416 C417 1.387 . S
C416 N419 1.341 . S
C417 C415 1.400 . S
C417 C416 1.387 . S
N418 Co409 2.022 . S
N418 C415 1.351 . S
N418 N419 1.365 . S
N419 C416 1.341 . S
N419 N418 1.365 . S
N419 H439 0.862 . S
C420 C415 1.501 1_455 S
C420 H421 0.961 . S
C420 H422 0.961 . S
C420 H423 0.960 . S
H421 C420 0.961 . S
H422 C420 0.961 . S
H423 C420 0.960 . S
C424 N425 1.342 . S
C424 C428 1.401 . S
C424 C429 1.499 . S
N425 Co408 1.989 . S
N425 C424 1.342 . S
N425 N426 1.388 . S
N426 Co409 1.993 . S
N426 N425 1.388 . S
N426 C427 1.346 . S
C427 N426 1.346 . S
C427 C428 1.396 . S
C427 C437 1.510 . S
C428 C424 1.401 . S
C428 C427 1.396 . S
C429 C424 1.499 . S
C429 H430 0.959 . S
C429 H431 0.960 . S
C429 H432 0.961 . S
H430 C429 0.959 . S
H431 C429 0.960 . S
H432 C429 0.961 . S
O433 Co408 1.967 . S
O433 C441 1.258 . S
O434 Co409 1.941 . S
O434 C441 1.266 . S
H435 C437 0.959 . S
H436 C437 0.961 . S
C437 C427 1.510 . S
C437 H435 0.959 . S
C437 H436 0.961 . S
C437 H438 0.960 . S
H438 C437 0.960 . S
H439 N419 0.862 . S
O440 Co408 1.920 . S
O440 C413 1.289 1_655 S
C441 O433 1.258 . S
C441 O434 1.266 . S
Co442 O445 1.970 1_565 S
Co442 N459 1.989 . S
Co442 O467 1.967 . S
Co442 O474 1.920 1_554 S
Co443 O446 1.966 1_565 S
Co443 N452 2.022 . S
Co443 N460 1.993 . S
Co443 O468 1.941 . S
C444 O445 1.258 . S
C444 O446 1.263 . S
O445 Co442 1.970 1_545 S
O445 C444 1.258 . S
O446 Co443 1.966 1_545 S
O446 C444 1.263 . S
C447 O448 1.235 . S
C447 O474 1.289 1_545 S
O448 C447 1.235 . S
C449 C451 1.400 . S
C449 N452 1.351 . S
C449 C454 1.501 1_565 S
C450 C451 1.387 . S
C450 N453 1.341 . S
C451 C449 1.400 . S
C451 C450 1.387 . S
N452 Co443 2.022 . S
N452 C449 1.351 . S
N452 N453 1.365 . S
N453 C450 1.341 . S
N453 N452 1.365 . S
N453 H473 0.862 . S
C454 C449 1.501 1_545 S
C454 H455 0.961 . S
C454 H456 0.961 . S
C454 H457 0.960 . S
H455 C454 0.961 . S
H456 C454 0.961 . S
H457 C454 0.960 . S
C458 N459 1.342 . S
C458 C462 1.401 . S
C458 C463 1.499 . S
N459 Co442 1.989 . S
N459 C458 1.342 . S
N459 N460 1.388 . S
N460 Co443 1.993 . S
N460 N459 1.388 . S
N460 C461 1.346 . S
C461 N460 1.346 . S
C461 C462 1.396 . S
C461 C471 1.510 . S
C462 C458 1.401 . S
C462 C461 1.396 . S
C463 C458 1.499 . S
C463 H464 0.959 . S
C463 H465 0.960 . S
C463 H466 0.961 . S
H464 C463 0.959 . S
H465 C463 0.960 . S
H466 C463 0.961 . S
O467 Co442 1.967 . S
O467 C475 1.258 . S
O468 Co443 1.941 . S
O468 C475 1.266 . S
H469 C471 0.959 . S
H470 C471 0.961 . S
C471 C461 1.510 . S
C471 H469 0.959 . S
C471 H470 0.961 . S
C471 H472 0.960 . S
H472 C471 0.960 . S
H473 N453 0.862 . S
O474 Co442 1.920 1_556 S
O474 C447 1.289 1_565 S
C475 O467 1.258 . S
C475 O468 1.266 . S
Co476 O479 1.970 . S
Co476 N493 1.989 . S
Co476 O501 1.967 . S
Co476 O508 1.920 . S
Co477 O480 1.966 . S
Co477 N486 2.022 . S
Co477 N494 1.993 . S
Co477 O502 1.941 . S
C478 O479 1.258 . S
C478 O480 1.263 . S
O479 Co476 1.970 . S
O479 C478 1.258 . S
O480 Co477 1.966 . S
O480 C478 1.263 . S
C481 O482 1.235 . S
C481 O508 1.289 . S
O482 C481 1.235 . S
C483 C485 1.400 . S
C483 N486 1.351 . S
C483 C488 1.501 . S
C484 C485 1.387 . S
C484 N487 1.341 . S
C485 C483 1.400 . S
C485 C484 1.387 . S
N486 Co477 2.022 . S
N486 C483 1.351 . S
N486 N487 1.365 . S
N487 C484 1.341 . S
N487 N486 1.365 . S
N487 H507 0.862 . S
C488 C483 1.501 . S
C488 H489 0.961 . S
C488 H490 0.961 . S
C488 H491 0.960 . S
H489 C488 0.961 . S
H490 C488 0.961 . S
H491 C488 0.960 . S
C492 N493 1.342 . S
C492 C496 1.401 . S
C492 C497 1.499 . S
N493 Co476 1.989 . S
N493 C492 1.342 . S
N493 N494 1.388 . S
N494 Co477 1.993 . S
N494 N493 1.388 . S
N494 C495 1.346 . S
C495 N494 1.346 . S
C495 C496 1.396 . S
C495 C505 1.510 . S
C496 C492 1.401 . S
C496 C495 1.396 . S
C497 C492 1.499 . S
C497 H498 0.959 . S
C497 H499 0.960 . S
C497 H500 0.961 . S
H498 C497 0.959 . S
H499 C497 0.960 . S
H500 C497 0.961 . S
O501 Co476 1.967 . S
O501 C509 1.258 . S
O502 Co477 1.941 . S
O502 C509 1.266 . S
H503 C505 0.959 . S
H504 C505 0.961 . S
C505 C495 1.510 . S
C505 H503 0.959 . S
C505 H504 0.961 . S
C505 H506 0.960 . S
H506 C505 0.960 . S
H507 N487 0.862 . S
O508 Co476 1.920 . S
O508 C481 1.289 . S
C509 O501 1.258 . S
C509 O502 1.266 . S
Co510 O513 1.970 . S
Co510 N527 1.989 . S
Co510 O535 1.967 . S
Co510 O542 1.920 1_554 S
Co511 O514 1.966 . S
Co511 N520 2.022 . S
Co511 N528 1.993 . S
Co511 O536 1.941 . S
C512 O513 1.258 . S
C512 O514 1.263 . S
O513 Co510 1.970 . S
O513 C512 1.258 . S
O514 Co511 1.966 . S
O514 C512 1.263 . S
C515 O516 1.235 . S
C515 O542 1.289 . S
O516 C515 1.235 . S
C517 C519 1.400 . S
C517 N520 1.351 . S
C517 C522 1.501 . S
C518 C519 1.387 . S
C518 N521 1.341 . S
C519 C517 1.400 . S
C519 C518 1.387 . S
N520 Co511 2.022 . S
N520 C517 1.351 . S
N520 N521 1.365 . S
N521 C518 1.341 . S
N521 N520 1.365 . S
N521 H541 0.862 . S
C522 C517 1.501 . S
C522 H523 0.961 . S
C522 H524 0.961 . S
C522 H525 0.960 . S
H523 C522 0.961 . S
H524 C522 0.961 . S
H525 C522 0.960 . S
C526 N527 1.342 . S
C526 C530 1.401 . S
C526 C531 1.499 . S
N527 Co510 1.989 . S
N527 C526 1.342 . S
N527 N528 1.388 . S
N528 Co511 1.993 . S
N528 N527 1.388 . S
N528 C529 1.346 . S
C529 N528 1.346 . S
C529 C530 1.396 . S
C529 C539 1.510 . S
C530 C526 1.401 . S
C530 C529 1.396 . S
C531 C526 1.499 . S
C531 H532 0.959 . S
C531 H533 0.960 . S
C531 H534 0.961 . S
H532 C531 0.959 . S
H533 C531 0.960 . S
H534 C531 0.961 . S
O535 Co510 1.967 . S
O535 C543 1.258 . S
O536 Co511 1.941 . S
O536 C543 1.266 . S
H537 C539 0.959 . S
H538 C539 0.961 . S
C539 C529 1.510 . S
C539 H537 0.959 . S
C539 H538 0.961 . S
C539 H540 0.960 . S
H540 C539 0.960 . S
H541 N521 0.862 . S
O542 Co510 1.920 1_556 S
O542 C515 1.289 . S
C543 O535 1.258 . S
C543 O536 1.266 . S
H544 C556 0.930 . S
H545 C558 0.930 . S
H546 C559 0.930 . S
H547 C563 0.959 . S
H548 C563 0.959 . S
H549 C563 0.961 . S
H550 C564 0.960 1_556 S
H551 C564 0.961 1_556 S
H552 C564 0.959 . S
H553 C567 0.929 . S
H554 C568 0.931 . S
H555 C570 0.930 . S
C556 H544 0.930 . S
C556 C557 1.399 . S
C556 C561 1.399 . S
C557 C556 1.399 . S
C557 C558 1.376 . S
C558 H545 0.930 . S
C558 C557 1.376 . S
C558 C559 1.388 . S
C559 H546 0.930 . S
C559 C558 1.388 . S
C559 C560 1.390 . S
C560 C559 1.390 . S
C560 C561 1.394 . S
C560 C566 1.465 . S
C561 C556 1.399 . S
C561 C560 1.394 . S
C561 C562 1.516 . S
C562 C561 1.516 . S
C562 C563 1.502 . S
C562 C564 1.561 . S
C562 C565 1.526 . S
C563 H547 0.959 . S
C563 H548 0.959 . S
C563 H549 0.961 . S
C563 C562 1.502 . S
C564 H550 0.960 1_554 S
C564 H551 0.961 1_554 S
C564 H552 0.959 . S
C564 C562 1.561 . S
C565 C562 1.526 . S
C565 C566 1.396 . S
C565 C570 1.390 . S
C566 C560 1.465 . S
C566 C565 1.396 . S
C566 C567 1.399 . S
C567 H553 0.929 . S
C567 C566 1.399 . S
C567 C568 1.385 . S
C568 H554 0.931 . S
C568 C567 1.385 . S
C568 C569 1.389 . S
C569 C568 1.389 . S
C569 C570 1.387 . S
C570 H555 0.930 . S
C570 C565 1.390 . S
C570 C569 1.387 . S
H571 C583 0.930 . S
H572 C585 0.930 . S
H573 C586 0.930 . S
H574 C590 0.959 . S
H575 C590 0.959 . S
H576 C590 0.961 . S
H577 C591 0.960 . S
H578 C591 0.961 . S
H579 C591 0.959 . S
H580 C594 0.929 . S
H581 C595 0.931 . S
H582 C597 0.930 . S
C583 H571 0.930 . S
C583 C584 1.399 . S
C583 C588 1.399 . S
C584 C583 1.399 . S
C584 C585 1.376 . S
C585 H572 0.930 . S
C585 C584 1.376 . S
C585 C586 1.388 . S
C586 H573 0.930 . S
C586 C585 1.388 . S
C586 C587 1.390 . S
C587 C586 1.390 . S
C587 C588 1.394 . S
C587 C593 1.465 . S
C588 C583 1.399 . S
C588 C587 1.394 . S
C588 C589 1.516 . S
C589 C588 1.516 . S
C589 C590 1.502 . S
C589 C591 1.561 . S
C589 C592 1.526 . S
C590 H574 0.959 . S
C590 H575 0.959 . S
C590 H576 0.961 . S
C590 C589 1.502 . S
C591 H577 0.960 . S
C591 H578 0.961 . S
C591 H579 0.959 . S
C591 C589 1.561 . S
C592 C589 1.526 . S
C592 C593 1.396 . S
C592 C597 1.390 . S
C593 C587 1.465 . S
C593 C592 1.396 . S
C593 C594 1.399 . S
C594 H580 0.929 . S
C594 C593 1.399 . S
C594 C595 1.385 . S
C595 H581 0.931 . S
C595 C594 1.385 . S
C595 C596 1.389 . S
C596 C595 1.389 . S
C596 C597 1.387 . S
C597 H582 0.930 . S
C597 C592 1.390 . S
C597 C596 1.387 . S
H598 C610 0.930 . S
H599 C612 0.930 . S
H600 C613 0.930 . S
H601 C617 0.959 . S
H602 C617 0.959 . S
H603 C617 0.961 . S
H604 C618 0.960 . S
H605 C618 0.961 . S
H606 C618 0.959 . S
H607 C621 0.929 . S
H608 C622 0.931 . S
H609 C624 0.930 . S
C610 H598 0.930 . S
C610 C611 1.399 . S
C610 C615 1.399 . S
C611 C610 1.399 . S
C611 C612 1.376 . S
C612 H599 0.930 . S
C612 C611 1.376 . S
C612 C613 1.388 . S
C613 H600 0.930 . S
C613 C612 1.388 . S
C613 C614 1.390 . S
C614 C613 1.390 . S
C614 C615 1.394 . S
C614 C620 1.465 . S
C615 C610 1.399 . S
C615 C614 1.394 . S
C615 C616 1.516 . S
C616 C615 1.516 . S
C616 C617 1.502 . S
C616 C618 1.561 . S
C616 C619 1.526 . S
C617 H601 0.959 . S
C617 H602 0.959 . S
C617 H603 0.961 . S
C617 C616 1.502 . S
C618 H604 0.960 . S
C618 H605 0.961 . S
C618 H606 0.959 . S
C618 C616 1.561 . S
C619 C616 1.526 . S
C619 C620 1.396 . S
C619 C624 1.390 . S
C620 C614 1.465 . S
C620 C619 1.396 . S
C620 C621 1.399 . S
C621 H607 0.929 . S
C621 C620 1.399 . S
C621 C622 1.385 . S
C622 H608 0.931 . S
C622 C621 1.385 . S
C622 C623 1.389 . S
C623 C622 1.389 . S
C623 C624 1.387 . S
C624 H609 0.930 . S
C624 C619 1.390 . S
C624 C623 1.387 . S
H625 C637 0.930 . S
H626 C639 0.930 . S
H627 C640 0.930 . S
H628 C644 0.959 . S
H629 C644 0.959 . S
H630 C644 0.961 . S
H631 C645 0.960 . S
H632 C645 0.961 . S
H633 C645 0.959 . S
H634 C648 0.929 . S
H635 C649 0.931 . S
H636 C651 0.930 . S
C637 H625 0.930 . S
C637 C638 1.399 . S
C637 C642 1.399 . S
C638 C637 1.399 . S
C638 C639 1.376 . S
C639 H626 0.930 . S
C639 C638 1.376 . S
C639 C640 1.388 . S
C640 H627 0.930 . S
C640 C639 1.388 . S
C640 C641 1.390 . S
C641 C640 1.390 . S
C641 C642 1.394 . S
C641 C647 1.465 . S
C642 C637 1.399 . S
C642 C641 1.394 . S
C642 C643 1.516 . S
C643 C642 1.516 . S
C643 C644 1.502 . S
C643 C645 1.561 . S
C643 C646 1.526 . S
C644 H628 0.959 . S
C644 H629 0.959 . S
C644 H630 0.961 . S
C644 C643 1.502 . S
C645 H631 0.960 . S
C645 H632 0.961 . S
C645 H633 0.959 . S
C645 C643 1.561 . S
C646 C643 1.526 . S
C646 C647 1.396 . S
C646 C651 1.390 . S
C647 C641 1.465 . S
C647 C646 1.396 . S
C647 C648 1.399 . S
C648 H634 0.929 . S
C648 C647 1.399 . S
C648 C649 1.385 . S
C649 H635 0.931 . S
C649 C648 1.385 . S
C649 C650 1.389 . S
C650 C649 1.389 . S
C650 C651 1.387 . S
C651 H636 0.930 . S
C651 C646 1.390 . S
C651 C650 1.387 . S
H652 C664 0.930 . S
H653 C666 0.930 . S
H654 C667 0.930 . S
H655 C671 0.959 . S
H656 C671 0.959 . S
H657 C671 0.961 . S
H658 C672 0.960 . S
H659 C672 0.961 . S
H660 C672 0.959 . S
H661 C675 0.929 . S
H662 C676 0.931 . S
H663 C678 0.930 . S
C664 H652 0.930 . S
C664 C665 1.399 . S
C664 C669 1.399 . S
C665 C664 1.399 . S
C665 C666 1.376 . S
C666 H653 0.930 . S
C666 C665 1.376 . S
C666 C667 1.388 . S
C667 H654 0.930 . S
C667 C666 1.388 . S
C667 C668 1.390 . S
C668 C667 1.390 . S
C668 C669 1.394 . S
C668 C674 1.465 . S
C669 C664 1.399 . S
C669 C668 1.394 . S
C669 C670 1.516 . S
C670 C669 1.516 . S
C670 C671 1.502 . S
C670 C672 1.561 . S
C670 C673 1.526 . S
C671 H655 0.959 . S
C671 H656 0.959 . S
C671 H657 0.961 . S
C671 C670 1.502 . S
C672 H658 0.960 . S
C672 H659 0.961 . S
C672 H660 0.959 . S
C672 C670 1.561 . S
C673 C670 1.526 . S
C673 C674 1.396 . S
C673 C678 1.390 . S
C674 C668 1.465 . S
C674 C673 1.396 . S
C674 C675 1.399 . S
C675 H661 0.929 . S
C675 C674 1.399 . S
C675 C676 1.385 . S
C676 H662 0.931 . S
C676 C675 1.385 . S
C676 C677 1.389 . S
C677 C676 1.389 . S
C677 C678 1.387 . S
C678 H663 0.930 . S
C678 C673 1.390 . S
C678 C677 1.387 . S
H679 C691 0.930 . S
H680 C693 0.930 . S
H681 C694 0.930 . S
H682 C698 0.959 . S
H683 C698 0.959 . S
H684 C698 0.961 . S
H685 C699 0.960 . S
H686 C699 0.961 . S
H687 C699 0.959 . S
H688 C702 0.929 . S
H689 C703 0.931 . S
H690 C705 0.930 . S
C691 H679 0.930 . S
C691 C692 1.399 . S
C691 C696 1.399 . S
C692 C691 1.399 . S
C692 C693 1.376 . S
C693 H680 0.930 . S
C693 C692 1.376 . S
C693 C694 1.388 . S
C694 H681 0.930 . S
C694 C693 1.388 . S
C694 C695 1.390 . S
C695 C694 1.390 . S
C695 C696 1.394 . S
C695 C701 1.465 . S
C696 C691 1.399 . S
C696 C695 1.394 . S
C696 C697 1.516 . S
C697 C696 1.516 . S
C697 C698 1.502 . S
C697 C699 1.561 . S
C697 C700 1.526 . S
C698 H682 0.959 . S
C698 H683 0.959 . S
C698 H684 0.961 . S
C698 C697 1.502 . S
C699 H685 0.960 . S
C699 H686 0.961 . S
C699 H687 0.959 . S
C699 C697 1.561 . S
C700 C697 1.526 . S
C700 C701 1.396 . S
C700 C705 1.390 . S
C701 C695 1.465 . S
C701 C700 1.396 . S
C701 C702 1.399 . S
C702 H688 0.929 . S
C702 C701 1.399 . S
C702 C703 1.385 . S
C703 H689 0.931 . S
C703 C702 1.385 . S
C703 C704 1.389 . S
C704 C703 1.389 . S
C704 C705 1.387 . S
C705 H690 0.930 . S
C705 C700 1.390 . S
C705 C704 1.387 . S
H706 C718 0.930 . S
H707 C720 0.930 . S
H708 C721 0.930 . S
H709 C725 0.959 . S
H710 C725 0.959 . S
H711 C725 0.961 . S
H712 C726 0.960 . S
H713 C726 0.961 . S
H714 C726 0.959 . S
H715 C729 0.929 . S
H716 C730 0.931 . S
H717 C732 0.930 . S
C718 H706 0.930 . S
C718 C719 1.399 . S
C718 C723 1.399 . S
C719 C718 1.399 . S
C719 C720 1.376 . S
C720 H707 0.930 . S
C720 C719 1.376 . S
C720 C721 1.388 . S
C721 H708 0.930 . S
C721 C720 1.388 . S
C721 C722 1.390 . S
C722 C721 1.390 . S
C722 C723 1.394 . S
C722 C728 1.465 . S
C723 C718 1.399 . S
C723 C722 1.394 . S
C723 C724 1.516 . S
C724 C723 1.516 . S
C724 C725 1.502 . S
C724 C726 1.561 . S
C724 C727 1.526 . S
C725 H709 0.959 . S
C725 H710 0.959 . S
C725 H711 0.961 . S
C725 C724 1.502 . S
C726 H712 0.960 . S
C726 H713 0.961 . S
C726 H714 0.959 . S
C726 C724 1.561 . S
C727 C724 1.526 . S
C727 C728 1.396 . S
C727 C732 1.390 . S
C728 C722 1.465 . S
C728 C727 1.396 . S
C728 C729 1.399 . S
C729 H715 0.929 . S
C729 C728 1.399 . S
C729 C730 1.385 . S
C730 H716 0.931 . S
C730 C729 1.385 . S
C730 C731 1.389 . S
C731 C730 1.389 . S
C731 C732 1.387 . S
C732 H717 0.930 . S
C732 C727 1.390 . S
C732 C731 1.387 . S
H733 C745 0.930 . S
H734 C747 0.930 . S
H735 C748 0.930 . S
H736 C752 0.959 . S
H737 C752 0.959 1_554 S
H738 C752 0.961 1_554 S
H739 C753 0.960 . S
H740 C753 0.961 . S
H741 C753 0.959 . S
H742 C756 0.929 . S
H743 C757 0.931 . S
H744 C759 0.930 . S
C745 H733 0.930 . S
C745 C746 1.399 . S
C745 C750 1.399 . S
C746 C745 1.399 . S
C746 C747 1.376 . S
C747 H734 0.930 . S
C747 C746 1.376 . S
C747 C748 1.388 . S
C748 H735 0.930 . S
C748 C747 1.388 . S
C748 C749 1.390 . S
C749 C748 1.390 . S
C749 C750 1.394 . S
C749 C755 1.465 . S
C750 C745 1.399 . S
C750 C749 1.394 . S
C750 C751 1.516 . S
C751 C750 1.516 . S
C751 C752 1.502 . S
C751 C753 1.561 . S
C751 C754 1.526 . S
C752 H736 0.959 . S
C752 H737 0.959 1_556 S
C752 H738 0.961 1_556 S
C752 C751 1.502 . S
C753 H739 0.960 . S
C753 H740 0.961 . S
C753 H741 0.959 . S
C753 C751 1.561 . S
C754 C751 1.526 . S
C754 C755 1.396 . S
C754 C759 1.390 . S
C755 C749 1.465 . S
C755 C754 1.396 . S
C755 C756 1.399 . S
C756 H742 0.929 . S
C756 C755 1.399 . S
C756 C757 1.385 . S
C757 H743 0.931 . S
C757 C756 1.385 . S
C757 C758 1.389 . S
C758 C757 1.389 . S
C758 C759 1.387 . S
C759 H744 0.930 . S
C759 C754 1.390 . S
C759 C758 1.387 . S
H760 C772 0.930 . S
H761 C774 0.930 . S
H762 C775 0.930 . S
H763 C779 0.959 . S
H764 C779 0.959 . S
H765 C779 0.961 . S
H766 C780 0.960 . S
H767 C780 0.961 . S
H768 C780 0.959 . S
H769 C783 0.929 . S
H770 C784 0.931 . S
H771 C786 0.930 . S
C772 H760 0.930 . S
C772 C773 1.399 . S
C772 C777 1.399 . S
C773 C772 1.399 . S
C773 C774 1.376 . S
C774 H761 0.930 . S
C774 C773 1.376 . S
C774 C775 1.388 1_554 S
C775 H762 0.930 . S
C775 C774 1.388 1_556 S
C775 C776 1.389 1_556 S
C776 C775 1.389 1_554 S
C776 C777 1.400 . S
C776 C782 1.461 1_554 S
C777 C772 1.399 . S
C777 C776 1.400 . S
C777 C778 1.516 . S
C778 C777 1.516 . S
C778 C779 1.502 . S
C778 C780 1.561 . S
C778 C781 1.526 1_554 S
C779 H763 0.959 . S
C779 H764 0.959 . S
C779 H765 0.961 . S
C779 C778 1.502 . S
C780 H766 0.960 . S
C780 H767 0.961 . S
C780 H768 0.959 . S
C780 C778 1.561 . S
C781 C778 1.526 1_556 S
C781 C782 1.396 . S
C781 C786 1.390 . S
C782 C776 1.461 1_556 S
C782 C781 1.396 . S
C782 C783 1.399 . S
C783 H769 0.929 . S
C783 C782 1.399 . S
C783 C784 1.385 . S
C784 H770 0.931 . S
C784 C783 1.385 . S
C784 C785 1.389 . S
C785 C784 1.389 . S
C785 C786 1.387 . S
C786 H771 0.930 . S
C786 C781 1.390 . S
C786 C785 1.387 . S
H787 C799 0.930 . S
H788 C801 0.930 . S
H789 C802 0.930 . S
H790 C806 0.959 . S
H791 C806 0.959 . S
H792 C806 0.961 . S
H793 C807 0.960 . S
H794 C807 0.961 . S
H795 C807 0.959 . S
H796 C810 0.929 . S
H797 C811 0.931 . S
H798 C813 0.930 . S
C799 H787 0.930 . S
C799 C800 1.399 . S
C799 C804 1.399 . S
C800 C799 1.399 . S
C800 C801 1.376 . S
C801 H788 0.930 . S
C801 C800 1.376 . S
C801 C802 1.388 . S
C802 H789 0.930 . S
C802 C801 1.388 . S
C802 C803 1.390 . S
C803 C802 1.390 . S
C803 C804 1.394 . S
C803 C809 1.465 . S
C804 C799 1.399 . S
C804 C803 1.394 . S
C804 C805 1.516 . S
C805 C804 1.516 . S
C805 C806 1.502 . S
C805 C807 1.561 . S
C805 C808 1.526 . S
C806 H790 0.959 . S
C806 H791 0.959 . S
C806 H792 0.961 . S
C806 C805 1.502 . S
C807 H793 0.960 . S
C807 H794 0.961 . S
C807 H795 0.959 . S
C807 C805 1.561 . S
C808 C805 1.526 . S
C808 C809 1.396 . S
C808 C813 1.390 . S
C809 C803 1.465 . S
C809 C808 1.396 . S
C809 C810 1.399 . S
C810 H796 0.929 . S
C810 C809 1.399 . S
C810 C811 1.385 . S
C811 H797 0.931 . S
C811 C810 1.385 . S
C811 C812 1.389 . S
C812 C811 1.389 . S
C812 C813 1.387 . S
C813 H798 0.930 . S
C813 C808 1.390 . S
C813 C812 1.387 . S
H814 C826 0.930 . S
H815 C828 0.930 . S
H816 C829 0.930 . S
H817 C833 0.959 . S
H818 C833 0.959 . S
H819 C833 0.961 . S
H820 C834 0.960 . S
H821 C834 0.961 . S
H822 C834 0.959 . S
H823 C837 0.929 . S
H824 C838 0.931 . S
H825 C840 0.930 . S
C826 H814 0.930 . S
C826 C827 1.399 . S
C826 C831 1.399 . S
C827 C826 1.399 . S
C827 C828 1.376 . S
C828 H815 0.930 . S
C828 C827 1.376 . S
C828 C829 1.388 . S
C829 H816 0.930 . S
C829 C828 1.388 . S
C829 C830 1.390 . S
C830 C829 1.390 . S
C830 C831 1.394 . S
C830 C836 1.465 1_554 S
C831 C826 1.399 . S
C831 C830 1.394 . S
C831 C832 1.516 . S
C832 C831 1.516 . S
C832 C833 1.502 . S
C832 C834 1.561 1_554 S
C832 C835 1.526 1_554 S
C833 H817 0.959 . S
C833 H818 0.959 . S
C833 H819 0.961 . S
C833 C832 1.502 . S
C834 H820 0.960 . S
C834 H821 0.961 . S
C834 H822 0.959 . S
C834 C832 1.561 1_556 S
C835 C832 1.526 1_556 S
C835 C836 1.396 . S
C835 C840 1.390 . S
C836 C830 1.465 1_556 S
C836 C835 1.396 . S
C836 C837 1.399 . S
C837 H823 0.929 . S
C837 C836 1.399 . S
C837 C838 1.385 . S
C838 H824 0.931 . S
C838 C837 1.385 . S
C838 C839 1.389 . S
C839 C838 1.389 . S
C839 C840 1.387 . S
C840 H825 0.930 . S
C840 C835 1.390 . S
C840 C839 1.387 . S
H841 C853 0.930 . S
H842 C855 0.930 . S
H843 C856 0.930 . S
H844 C860 0.959 . S
H845 C860 0.959 . S
H846 C860 0.961 . S
H847 C861 0.960 . S
H848 C861 0.961 . S
H849 C861 0.959 . S
H850 C864 0.929 . S
H851 C865 0.931 . S
H852 C867 0.930 . S
C853 H841 0.930 . S
C853 C854 1.399 . S
C853 C858 1.399 . S
C854 C853 1.399 . S
C854 C855 1.376 . S
C855 H842 0.930 . S
C855 C854 1.376 . S
C855 C856 1.388 . S
C856 H843 0.930 . S
C856 C855 1.388 . S
C856 C857 1.390 . S
C857 C856 1.390 . S
C857 C858 1.394 . S
C857 C863 1.465 . S
C858 C853 1.399 . S
C858 C857 1.394 . S
C858 C859 1.516 . S
C859 C858 1.516 . S
C859 C860 1.502 . S
C859 C861 1.561 . S
C859 C862 1.526 . S
C860 H844 0.959 . S
C860 H845 0.959 . S
C860 H846 0.961 . S
C860 C859 1.502 . S
C861 H847 0.960 . S
C861 H848 0.961 . S
C861 H849 0.959 . S
C861 C859 1.561 . S
C862 C859 1.526 . S
C862 C863 1.396 . S
C862 C867 1.390 . S
C863 C857 1.465 . S
C863 C862 1.396 . S
C863 C864 1.399 . S
C864 H850 0.929 . S
C864 C863 1.399 . S
C864 C865 1.385 . S
C865 H851 0.931 . S
C865 C864 1.385 . S
C865 C866 1.389 . S
C866 C865 1.389 . S
C866 C867 1.387 . S
C867 H852 0.930 . S
C867 C862 1.390 . S
C867 C866 1.387 . S
H868 C880 0.930 . S
H869 C882 0.930 . S
H870 C883 0.930 . S
H871 C887 0.959 . S
H872 C887 0.959 . S
H873 C887 0.961 . S
H874 C888 0.960 . S
H875 C888 0.961 . S
H876 C888 0.959 . S
H877 C891 0.929 . S
H878 C892 0.931 . S
H879 C894 0.930 . S
C880 H868 0.930 . S
C880 C881 1.399 . S
C880 C885 1.399 . S
C881 C880 1.399 . S
C881 C882 1.376 . S
C882 H869 0.930 . S
C882 C881 1.376 . S
C882 C883 1.388 1_554 S
C883 H870 0.930 . S
C883 C882 1.388 1_556 S
C883 C884 1.390 . S
C884 C883 1.390 . S
C884 C885 1.394 1_556 S
C884 C890 1.465 . S
C885 C880 1.399 . S
C885 C884 1.394 1_554 S
C885 C886 1.516 . S
C886 C885 1.516 . S
C886 C887 1.502 . S
C886 C888 1.561 . S
C886 C889 1.526 1_554 S
C887 H871 0.959 . S
C887 H872 0.959 . S
C887 H873 0.961 . S
C887 C886 1.502 . S
C888 H874 0.960 . S
C888 H875 0.961 . S
C888 H876 0.959 . S
C888 C886 1.561 . S
C889 C886 1.526 1_556 S
C889 C890 1.396 . S
C889 C894 1.390 . S
C890 C884 1.465 . S
C890 C889 1.396 . S
C890 C891 1.399 . S
C891 H877 0.929 . S
C891 C890 1.399 . S
C891 C892 1.385 . S
C892 H878 0.931 . S
C892 C891 1.385 . S
C892 C893 1.389 . S
C893 C892 1.389 . S
C893 C894 1.387 . S
C894 H879 0.930 . S
C894 C889 1.390 . S
C894 C893 1.387 . S
H895 C907 0.930 . S
H896 C909 0.930 . S
H897 C910 0.930 . S
H898 C914 0.959 . S
H899 C914 0.959 . S
H900 C914 0.961 . S
H901 C915 0.960 . S
H902 C915 0.961 . S
H903 C915 0.959 . S
H904 C918 0.929 . S
H905 C919 0.931 . S
H906 C921 0.930 . S
C907 H895 0.930 . S
C907 C908 1.399 . S
C907 C912 1.399 . S
C908 C907 1.399 . S
C908 C909 1.376 . S
C909 H896 0.930 . S
C909 C908 1.376 . S
C909 C910 1.388 . S
C910 H897 0.930 . S
C910 C909 1.388 . S
C910 C911 1.390 . S
C911 C910 1.390 . S
C911 C912 1.394 . S
C911 C917 1.465 . S
C912 C907 1.399 . S
C912 C911 1.394 . S
C912 C913 1.516 . S
C913 C912 1.516 . S
C913 C914 1.502 . S
C913 C915 1.561 . S
C913 C916 1.526 . S
C914 H898 0.959 . S
C914 H899 0.959 . S
C914 H900 0.961 . S
C914 C913 1.502 . S
C915 H901 0.960 . S
C915 H902 0.961 . S
C915 H903 0.959 . S
C915 C913 1.561 . S
C916 C913 1.526 . S
C916 C917 1.396 . S
C916 C921 1.390 . S
C917 C911 1.465 . S
C917 C916 1.396 . S
C917 C918 1.399 . S
C918 H904 0.929 . S
C918 C917 1.399 . S
C918 C919 1.385 . S
C919 H905 0.931 . S
C919 C918 1.385 . S
C919 C920 1.389 . S
C920 C919 1.389 . S
C920 C921 1.387 . S
C921 H906 0.930 . S
C921 C916 1.390 . S
C921 C920 1.387 . S
H922 C934 0.930 . S
H923 C936 0.930 . S
H924 C937 0.930 1_556 S
H925 C941 0.959 1_556 S
H926 C941 0.959 . S
H927 C941 0.961 . S
H928 C942 0.960 . S
H929 C942 0.961 . S
H930 C942 0.959 . S
H931 C945 0.929 . S
H932 C946 0.931 . S
H933 C948 0.930 . S
C934 H922 0.930 . S
C934 C935 1.399 . S
C934 C939 1.399 . S
C935 C934 1.399 . S
C935 C936 1.376 . S
C936 H923 0.930 . S
C936 C935 1.376 . S
C936 C937 1.388 . S
C937 H924 0.930 1_554 S
C937 C936 1.388 . S
C937 C938 1.390 . S
C938 C937 1.390 . S
C938 C939 1.394 . S
C938 C944 1.465 1_554 S
C939 C934 1.399 . S
C939 C938 1.394 . S
C939 C940 1.516 . S
C940 C939 1.516 . S
C940 C941 1.502 . S
C940 C942 1.561 . S
C940 C943 1.526 1_554 S
C941 H925 0.959 1_554 S
C941 H926 0.959 . S
C941 H927 0.961 . S
C941 C940 1.502 . S
C942 H928 0.960 . S
C942 H929 0.961 . S
C942 H930 0.959 . S
C942 C940 1.561 . S
C943 C940 1.526 1_556 S
C943 C944 1.396 . S
C943 C948 1.390 . S
C944 C938 1.465 1_556 S
C944 C943 1.396 . S
C944 C945 1.399 . S
C945 H931 0.929 . S
C945 C944 1.399 . S
C945 C946 1.385 . S
C946 H932 0.931 . S
C946 C945 1.385 . S
C946 C947 1.389 . S
C947 C946 1.389 . S
C947 C948 1.387 . S
C948 H933 0.930 . S
C948 C943 1.390 . S
C948 C947 1.387 . S
H949 C961 0.930 . S
H950 C963 0.930 . S
H951 C964 0.930 . S
H952 C968 0.959 . S
H953 C968 0.959 . S
H954 C968 0.961 . S
H955 C969 0.960 . S
H956 C969 0.961 . S
H957 C969 0.959 . S
H958 C972 0.929 . S
H959 C973 0.931 . S
H960 C975 0.930 . S
C961 H949 0.930 . S
C961 C962 1.399 . S
C961 C966 1.399 . S
C962 C961 1.399 . S
C962 C963 1.376 . S
C963 H950 0.930 . S
C963 C962 1.376 . S
C963 C964 1.388 . S
C964 H951 0.930 . S
C964 C963 1.388 . S
C964 C965 1.390 . S
C965 C964 1.390 . S
C965 C966 1.394 . S
C965 C971 1.465 . S
C966 C961 1.399 . S
C966 C965 1.394 . S
C966 C967 1.516 . S
C967 C966 1.516 . S
C967 C968 1.502 . S
C967 C969 1.561 . S
C967 C970 1.526 . S
C968 H952 0.959 . S
C968 H953 0.959 . S
C968 H954 0.961 . S
C968 C967 1.502 . S
C969 H955 0.960 . S
C969 H956 0.961 . S
C969 H957 0.959 . S
C969 C967 1.561 . S
C970 C967 1.526 . S
C970 C971 1.396 . S
C970 C975 1.390 . S
C971 C965 1.465 . S
C971 C970 1.396 . S
C971 C972 1.399 . S
C972 H958 0.929 . S
C972 C971 1.399 . S
C972 C973 1.385 . S
C973 H959 0.931 . S
C973 C972 1.385 . S
C973 C974 1.389 . S
C974 C973 1.389 . S
C974 C975 1.387 . S
C975 H960 0.930 . S
C975 C970 1.390 . S
C975 C974 1.387 . S
H976 C988 0.930 . S
H977 C990 0.930 . S
H978 C991 0.930 . S
H979 C995 0.959 . S
H980 C995 0.959 . S
H981 C995 0.961 . S
H982 C996 0.960 . S
H983 C996 0.961 . S
H984 C996 0.959 . S
H985 C999 0.929 . S
H986 C1000 0.931 . S
H987 C1002 0.930 . S
C988 H976 0.930 . S
C988 C989 1.399 . S
C988 C993 1.399 . S
C989 C988 1.399 . S
C989 C990 1.376 . S
C990 H977 0.930 . S
C990 C989 1.376 . S
C990 C991 1.388 . S
C991 H978 0.930 . S
C991 C990 1.388 . S
C991 C992 1.390 . S
C992 C991 1.390 . S
C992 C993 1.394 . S
C992 C998 1.465 . S
C993 C988 1.399 . S
C993 C992 1.394 . S
C993 C994 1.516 . S
C994 C993 1.516 . S
C994 C995 1.502 . S
C994 C996 1.561 1_455 S
C994 C997 1.526 . S
C995 H979 0.959 . S
C995 H980 0.959 . S
C995 H981 0.961 . S
C995 C994 1.502 . S
C996 H982 0.960 . S
C996 H983 0.961 . S
C996 H984 0.959 . S
C996 C994 1.561 1_655 S
C997 C994 1.526 . S
C997 C998 1.396 . S
C997 C1002 1.390 . S
C998 C992 1.465 . S
C998 C997 1.396 . S
C998 C999 1.399 . S
C999 H985 0.929 . S
C999 C998 1.399 . S
C999 C1000 1.385 . S
C1000 H986 0.931 . S
C1000 C999 1.385 . S
C1000 C1001 1.389 . S
C1001 C1000 1.389 . S
C1001 C1002 1.387 . S
C1002 H987 0.930 . S
C1002 C997 1.390 . S
C1002 C1001 1.387 . S
H1003 C1015 0.930 1_565 S
H1004 C1017 0.930 . S
H1005 C1018 0.930 . S
H1006 C1022 0.959 . S
H1007 C1022 0.959 . S
H1008 C1022 0.961 . S
H1009 C1023 0.960 . S
H1010 C1023 0.961 . S
H1011 C1023 0.930 1_545 S
H1012 C1026 0.929 . S
H1013 C1027 0.931 . S
H1014 C1029 0.930 1_565 S
C1015 H1003 0.930 1_545 S
C1015 C1016 1.399 . S
C1015 C1020 1.399 . S
C1016 C1015 1.399 . S
C1016 C1017 1.376 . S
C1017 H1004 0.930 . S
C1017 C1016 1.376 . S
C1017 C1018 1.388 . S
C1018 H1005 0.930 . S
C1018 C1017 1.388 . S
C1018 C1019 1.390 . S
C1019 C1018 1.390 . S
C1019 C1020 1.394 . S
C1019 C1025 1.465 . S
C1020 C1015 1.399 . S
C1020 C1019 1.394 . S
C1020 C1021 1.516 1_545 S
C1021 C1020 1.516 1_565 S
C1021 C1022 1.502 . S
C1021 C1023 1.561 . S
C1021 C1024 1.526 1_565 S
C1022 H1006 0.959 . S
C1022 H1007 0.959 . S
C1022 H1008 0.961 . S
C1022 C1021 1.502 . S
C1023 H1009 0.960 . S
C1023 H1010 0.961 . S
C1023 H1011 0.930 1_565 S
C1023 C1021 1.561 . S
C1024 C1021 1.526 1_545 S
C1024 C1025 1.396 . S
C1024 C1029 1.390 . S
C1025 C1019 1.465 . S
C1025 C1024 1.396 . S
C1025 C1026 1.399 . S
C1026 H1012 0.929 . S
C1026 C1025 1.399 . S
C1026 C1027 1.385 . S
C1027 H1013 0.931 . S
C1027 C1026 1.385 . S
C1027 C1028 1.389 . S
C1028 C1027 1.389 . S
C1028 C1029 1.387 . S
C1029 H1014 0.930 1_545 S
C1029 C1024 1.390 . S
C1029 C1028 1.387 . S
H1030 C1042 0.930 . S
H1031 C1044 0.930 . S
H1032 C1045 0.930 . S
H1033 C1049 0.959 . S
H1034 C1049 0.959 . S
H1035 C1049 0.961 . S
H1036 C1050 0.960 . S
H1037 C1050 0.961 . S
H1038 C1050 0.959 . S
H1039 C1053 0.929 . S
H1040 C1054 0.931 . S
H1041 C1056 0.930 . S
C1042 H1030 0.930 . S
C1042 C1043 1.399 . S
C1042 C1047 1.399 . S
C1043 C1042 1.399 . S
C1043 C1044 1.376 . S
C1044 H1031 0.930 . S
C1044 C1043 1.376 . S
C1044 C1045 1.388 . S
C1045 H1032 0.930 . S
C1045 C1044 1.388 . S
C1045 C1046 1.390 . S
C1046 C1045 1.390 . S
C1046 C1047 1.394 . S
C1046 C1052 1.465 . S
C1047 C1042 1.399 . S
C1047 C1046 1.394 . S
C1047 C1048 1.516 . S
C1048 C1047 1.516 . S
C1048 C1049 1.502 . S
C1048 C1050 1.561 . S
C1048 C1051 1.526 . S
C1049 H1033 0.959 . S
C1049 H1034 0.959 . S
C1049 H1035 0.961 . S
C1049 C1048 1.502 . S
C1050 H1036 0.960 . S
C1050 H1037 0.961 . S
C1050 H1038 0.959 . S
C1050 C1048 1.561 . S
C1051 C1048 1.526 . S
C1051 C1052 1.396 . S
C1051 C1056 1.390 . S
C1052 C1046 1.465 . S
C1052 C1051 1.396 . S
C1052 C1053 1.399 . S
C1053 H1039 0.929 . S
C1053 C1052 1.399 . S
C1053 C1054 1.385 . S
C1054 H1040 0.931 . S
C1054 C1053 1.385 . S
C1054 C1055 1.389 . S
C1055 C1054 1.389 . S
C1055 C1056 1.387 . S
C1056 H1041 0.930 . S
C1056 C1051 1.390 . S
C1056 C1055 1.387 . S
H1057 C1069 0.930 . S
H1058 C1071 0.930 . S
H1059 C1072 0.930 . S
H1060 C1076 0.959 . S
H1061 C1076 0.959 . S
H1062 C1076 0.961 . S
H1063 C1077 0.960 . S
H1064 C1077 0.961 . S
H1065 C1077 0.959 . S
H1066 C1080 0.929 . S
H1067 C1081 0.931 . S
H1068 C1083 0.930 . S
C1069 H1057 0.930 . S
C1069 C1070 1.399 . S
C1069 C1074 1.399 . S
C1070 C1069 1.399 . S
C1070 C1071 1.376 . S
C1071 H1058 0.930 . S
C1071 C1070 1.376 . S
C1071 C1072 1.388 . S
C1072 H1059 0.930 . S
C1072 C1071 1.388 . S
C1072 C1073 1.390 . S
C1073 C1072 1.390 . S
C1073 C1074 1.394 . S
C1073 C1079 1.465 . S
C1074 C1069 1.399 . S
C1074 C1073 1.394 . S
C1074 C1075 1.516 . S
C1075 C1074 1.516 . S
C1075 C1076 1.502 . S
C1075 C1077 1.561 . S
C1075 C1078 1.526 . S
C1076 H1060 0.959 . S
C1076 H1061 0.959 . S
C1076 H1062 0.961 . S
C1076 C1075 1.502 . S
C1077 H1063 0.960 . S
C1077 H1064 0.961 . S
C1077 H1065 0.959 . S
C1077 C1075 1.561 . S
C1078 C1075 1.526 . S
C1078 C1079 1.396 . S
C1078 C1083 1.390 . S
C1079 C1073 1.465 . S
C1079 C1078 1.396 . S
C1079 C1080 1.399 . S
C1080 H1066 0.929 . S
C1080 C1079 1.399 . S
C1080 C1081 1.385 . S
C1081 H1067 0.931 . S
C1081 C1080 1.385 . S
C1081 C1082 1.389 . S
C1082 C1081 1.389 . S
C1082 C1083 1.387 . S
C1083 H1068 0.930 . S
C1083 C1078 1.390 . S
C1083 C1082 1.387 . S
H1084 C1096 0.930 . S
H1085 C1098 0.930 . S
H1086 C1099 0.930 . S
H1087 C1103 0.959 . S
H1088 C1103 0.959 . S
H1089 C1103 0.961 . S
H1090 C1104 0.960 . S
H1091 C1104 0.961 . S
H1092 C1104 0.959 . S
H1093 C1107 0.929 . S
H1094 C1108 0.931 . S
H1095 C1110 0.930 . S
C1096 H1084 0.930 . S
C1096 C1097 1.399 . S
C1096 C1101 1.399 . S
C1097 C1096 1.399 . S
C1097 C1098 1.376 . S
C1098 H1085 0.930 . S
C1098 C1097 1.376 . S
C1098 C1099 1.388 . S
C1099 H1086 0.930 . S
C1099 C1098 1.388 . S
C1099 C1100 1.390 . S
C1100 C1099 1.390 . S
C1100 C1101 1.394 . S
C1100 C1106 1.465 . S
C1101 C1096 1.399 . S
C1101 C1100 1.394 . S
C1101 C1102 1.516 . S
C1102 C1101 1.516 . S
C1102 C1103 1.502 1_655 S
C1102 C1104 1.561 . S
C1102 C1105 1.526 . S
C1103 H1087 0.959 . S
C1103 H1088 0.959 . S
C1103 H1089 0.961 . S
C1103 C1102 1.502 1_455 S
C1104 H1090 0.960 . S
C1104 H1091 0.961 . S
C1104 H1092 0.959 . S
C1104 C1102 1.561 . S
C1105 C1102 1.526 . S
C1105 C1106 1.396 . S
C1105 C1110 1.390 . S
C1106 C1100 1.465 . S
C1106 C1105 1.396 . S
C1106 C1107 1.399 . S
C1107 H1093 0.929 . S
C1107 C1106 1.399 . S
C1107 C1108 1.385 . S
C1108 H1094 0.931 . S
C1108 C1107 1.385 . S
C1108 C1109 1.389 . S
C1109 C1108 1.389 . S
C1109 C1110 1.387 . S
C1110 H1095 0.930 . S
C1110 C1105 1.390 . S
C1110 C1109 1.387 . S
H1111 C1123 0.930 1_545 S
H1112 C1125 0.930 . S
H1113 C1126 0.930 . S
H1114 C1130 0.959 . S
H1115 C1130 0.959 . S
H1116 C1130 0.961 . S
H1117 C1131 0.960 . S
H1118 C1131 0.961 . S
H1119 C1131 0.959 . S
H1120 C1134 0.929 . S
H1121 C1135 0.931 . S
H1122 C1137 0.930 1_545 S
C1123 H1111 0.930 1_565 S
C1123 C1124 1.399 . S
C1123 C1128 1.399 . S
C1124 C1123 1.399 . S
C1124 C1125 1.376 . S
C1125 H1112 0.930 . S
C1125 C1124 1.376 . S
C1125 C1126 1.388 . S
C1126 H1113 0.930 . S
C1126 C1125 1.388 . S
C1126 C1127 1.390 . S
C1127 C1126 1.390 . S
C1127 C1128 1.394 . S
C1127 C1133 1.465 . S
C1128 C1123 1.399 . S
C1128 C1127 1.394 . S
C1128 C1129 1.516 1_565 S
C1129 C1128 1.516 1_545 S
C1129 C1130 1.502 . S
C1129 C1131 1.561 . S
C1129 C1132 1.526 1_545 S
C1130 H1114 0.959 . S
C1130 H1115 0.959 . S
C1130 H1116 0.961 . S
C1130 C1129 1.502 . S
C1131 H1117 0.960 . S
C1131 H1118 0.961 . S
C1131 H1119 0.959 . S
C1131 C1129 1.561 . S
C1132 C1129 1.526 1_565 S
C1132 C1133 1.396 . S
C1132 C1137 1.390 . S
C1133 C1127 1.465 . S
C1133 C1132 1.396 . S
C1133 C1134 1.399 . S
C1134 H1120 0.929 . S
C1134 C1133 1.399 . S
C1134 C1135 1.385 . S
C1135 H1121 0.931 . S
C1135 C1134 1.385 . S
C1135 C1136 1.389 . S
C1136 C1135 1.389 . S
C1136 C1137 1.387 . S
C1137 H1122 0.930 1_565 S
C1137 C1132 1.390 . S
C1137 C1136 1.387 . S
H1138 C1150 0.930 . S
H1139 C1152 0.930 . S
H1140 C1153 0.930 . S
H1141 C1157 0.959 . S
H1142 C1157 0.959 . S
H1143 C1157 0.961 . S
H1144 C1158 0.960 . S
H1145 C1158 0.961 . S
H1146 C1158 0.959 . S
H1147 C1161 0.929 . S
H1148 C1162 0.931 . S
H1149 C1164 0.930 . S
C1150 H1138 0.930 . S
C1150 C1151 1.399 . S
C1150 C1155 1.399 . S
C1151 C1150 1.399 . S
C1151 C1152 1.376 . S
C1152 H1139 0.930 . S
C1152 C1151 1.376 . S
C1152 C1153 1.388 . S
C1153 H1140 0.930 . S
C1153 C1152 1.388 . S
C1153 C1154 1.390 . S
C1154 C1153 1.390 . S
C1154 C1155 1.394 . S
C1154 C1160 1.465 . S
C1155 C1150 1.399 . S
C1155 C1154 1.394 . S
C1155 C1156 1.516 . S
C1156 C1155 1.516 . S
C1156 C1157 1.502 . S
C1156 C1158 1.561 . S
C1156 C1159 1.526 . S
C1157 H1141 0.959 . S
C1157 H1142 0.959 . S
C1157 H1143 0.961 . S
C1157 C1156 1.502 . S
C1158 H1144 0.960 . S
C1158 H1145 0.961 . S
C1158 H1146 0.959 . S
C1158 C1156 1.561 . S
C1159 C1156 1.526 . S
C1159 C1160 1.396 . S
C1159 C1164 1.390 . S
C1160 C1154 1.465 . S
C1160 C1159 1.396 . S
C1160 C1161 1.399 . S
C1161 H1147 0.929 . S
C1161 C1160 1.399 . S
C1161 C1162 1.385 . S
C1162 H1148 0.931 . S
C1162 C1161 1.385 . S
C1162 C1163 1.389 . S
C1163 C1162 1.389 . S
C1163 C1164 1.387 . S
C1164 H1149 0.930 . S
C1164 C1159 1.390 . S
C1164 C1163 1.387 . S
H1165 C1177 0.930 . S
H1166 C1179 0.930 . S
H1167 C1180 0.930 . S
H1168 C1184 0.959 . S
H1169 C1184 0.959 . S
H1170 C1184 0.961 . S
H1171 C1185 0.960 . S
H1172 C1185 0.961 . S
H1173 C1185 0.959 . S
H1174 C1188 0.929 . S
H1175 C1189 0.931 . S
H1176 C1191 0.930 . S
C1177 H1165 0.930 . S
C1177 C1178 1.399 . S
C1177 C1182 1.399 . S
C1178 C1177 1.399 . S
C1178 C1179 1.376 . S
C1179 H1166 0.930 . S
C1179 C1178 1.376 . S
C1179 C1180 1.388 . S
C1180 H1167 0.930 . S
C1180 C1179 1.388 . S
C1180 C1181 1.390 . S
C1181 C1180 1.390 . S
C1181 C1182 1.394 . S
C1181 C1187 1.465 . S
C1182 C1177 1.399 . S
C1182 C1181 1.394 . S
C1182 C1183 1.516 . S
C1183 C1182 1.516 . S
C1183 C1184 1.502 . S
C1183 C1185 1.561 . S
C1183 C1186 1.526 . S
C1184 H1168 0.959 . S
C1184 H1169 0.959 . S
C1184 H1170 0.961 . S
C1184 C1183 1.502 . S
C1185 H1171 0.960 . S
C1185 H1172 0.961 . S
C1185 H1173 0.959 . S
C1185 C1183 1.561 . S
C1186 C1183 1.526 . S
C1186 C1187 1.396 . S
C1186 C1191 1.390 . S
C1187 C1181 1.465 . S
C1187 C1186 1.396 . S
C1187 C1188 1.399 . S
C1188 H1174 0.929 . S
C1188 C1187 1.399 . S
C1188 C1189 1.385 . S
C1189 H1175 0.931 . S
C1189 C1188 1.385 . S
C1189 C1190 1.389 . S
C1190 C1189 1.389 . S
C1190 C1191 1.387 . S
C1191 H1176 0.930 . S
C1191 C1186 1.390 . S
C1191 C1190 1.387 . S
H1192 C1204 0.939 . S
H1193 C1206 0.930 . S
H1194 C1207 0.930 . S
H1195 C1211 0.959 . S
H1196 C1211 0.959 . S
H1197 C1211 0.961 . S
H1198 C1212 0.960 . S
H1199 C1212 0.961 . S
H1200 C1212 0.959 . S
H1201 C1215 0.929 . S
H1202 C1216 0.931 . S
H1203 C1218 0.930 . S
C1204 H1192 0.939 . S
C1204 C1205 1.390 1_455 S
C1204 C1209 1.399 . S
C1205 C1204 1.390 1_655 S
C1205 C1206 1.376 . S
C1206 H1193 0.930 . S
C1206 C1205 1.376 . S
C1206 C1207 1.388 . S
C1207 H1194 0.930 . S
C1207 C1206 1.388 . S
C1207 C1208 1.390 . S
C1208 C1207 1.390 . S
C1208 C1209 1.393 1_655 S
C1208 C1214 1.465 . S
C1209 C1204 1.399 . S
C1209 C1208 1.393 1_455 S
C1209 C1210 1.517 . S
C1210 C1209 1.517 . S
C1210 C1211 1.502 . S
C1210 C1212 1.561 1_455 S
C1210 C1213 1.526 . S
C1211 H1195 0.959 . S
C1211 H1196 0.959 . S
C1211 H1197 0.961 . S
C1211 C1210 1.502 . S
C1212 H1198 0.960 . S
C1212 H1199 0.961 . S
C1212 H1200 0.959 . S
C1212 C1210 1.561 1_655 S
C1213 C1210 1.526 . S
C1213 C1214 1.396 1_455 S
C1213 C1218 1.390 . S
C1214 C1208 1.465 . S
C1214 C1213 1.396 1_655 S
C1214 C1215 1.399 . S
C1215 H1201 0.929 . S
C1215 C1214 1.399 . S
C1215 C1216 1.385 . S
C1216 H1202 0.931 . S
C1216 C1215 1.385 . S
C1216 C1217 1.389 1_655 S
C1217 C1216 1.389 1_455 S
C1217 C1218 1.387 . S
C1218 H1203 0.930 . S
C1218 C1213 1.390 . S
C1218 C1217 1.387 . S
H1219 C1231 0.930 . S
H1220 C1233 0.930 1_556 S
H1221 C1234 0.930 . S
H1222 C1238 0.959 . S
H1223 C1238 0.959 . S
H1224 C1238 0.961 . S
H1225 C1239 0.960 . S
H1226 C1239 0.961 . S
H1227 C1239 0.959 . S
H1228 C1242 0.929 . S
H1229 C1243 0.931 . S
H1230 C1245 0.930 . S
C1231 H1219 0.930 . S
C1231 C1232 1.399 1_565 S
C1231 C1236 1.399 . S
C1232 C1231 1.399 1_545 S
C1232 C1233 1.376 . S
C1233 H1220 0.930 1_554 S
C1233 C1232 1.376 . S
C1233 C1234 1.388 . S
C1234 H1221 0.930 . S
C1234 C1233 1.388 . S
C1234 C1235 1.390 . S
C1235 C1234 1.390 . S
C1235 C1236 1.394 1_545 S
C1235 C1241 1.465 . S
C1236 C1231 1.399 . S
C1236 C1235 1.394 1_565 S
C1236 C1237 1.516 . S
C1237 C1236 1.516 . S
C1237 C1238 1.502 . S
C1237 C1239 1.561 . S
C1237 C1240 1.526 . S
C1238 H1222 0.959 . S
C1238 H1223 0.959 . S
C1238 H1224 0.961 . S
C1238 C1237 1.502 . S
C1239 H1225 0.960 . S
C1239 H1226 0.961 . S
C1239 H1227 0.959 . S
C1239 C1237 1.561 . S
C1240 C1237 1.526 . S
C1240 C1241 1.396 1_565 S
C1240 C1245 1.390 . S
C1241 C1235 1.465 . S
C1241 C1240 1.396 1_545 S
C1241 C1242 1.399 . S
C1242 H1228 0.929 . S
C1242 C1241 1.399 . S
C1242 C1243 1.385 . S
C1243 H1229 0.931 . S
C1243 C1242 1.385 . S
C1243 C1244 1.389 1_545 S
C1244 C1243 1.389 1_565 S
C1244 C1245 1.387 . S
C1245 H1230 0.930 . S
C1245 C1240 1.390 . S
C1245 C1244 1.387 . S
H1246 C1258 0.930 . S
H1247 C1260 0.930 . S
H1248 C1261 0.930 . S
H1249 C1265 0.959 . S
H1250 C1265 0.959 . S
H1251 C1265 0.961 . S
H1252 C1266 0.960 . S
H1253 C1266 0.961 . S
H1254 C1266 0.959 . S
H1255 C1269 0.929 . S
H1256 C1270 0.931 . S
H1257 C1272 0.930 . S
C1258 H1246 0.930 . S
C1258 C1259 1.399 . S
C1258 C1263 1.399 . S
C1259 C1258 1.399 . S
C1259 C1260 1.376 . S
C1260 H1247 0.930 . S
C1260 C1259 1.376 . S
C1260 C1261 1.388 . S
C1261 H1248 0.930 . S
C1261 C1260 1.388 . S
C1261 C1262 1.390 . S
C1262 C1261 1.390 . S
C1262 C1263 1.394 . S
C1262 C1268 1.465 . S
C1263 C1258 1.399 . S
C1263 C1262 1.394 . S
C1263 C1264 1.516 . S
C1264 C1263 1.516 . S
C1264 C1265 1.502 . S
C1264 C1266 1.561 . S
C1264 C1267 1.526 . S
C1265 H1249 0.959 . S
C1265 H1250 0.959 . S
C1265 H1251 0.961 . S
C1265 C1264 1.502 . S
C1266 H1252 0.960 . S
C1266 H1253 0.961 . S
C1266 H1254 0.959 . S
C1266 C1264 1.561 . S
C1267 C1264 1.526 . S
C1267 C1268 1.396 . S
C1267 C1272 1.390 . S
C1268 C1262 1.465 . S
C1268 C1267 1.396 . S
C1268 C1269 1.399 . S
C1269 H1255 0.929 . S
C1269 C1268 1.399 . S
C1269 C1270 1.385 . S
C1270 H1256 0.931 . S
C1270 C1269 1.385 . S
C1270 C1271 1.389 . S
C1271 C1270 1.389 . S
C1271 C1272 1.387 . S
C1272 H1257 0.930 . S
C1272 C1267 1.390 . S
C1272 C1271 1.387 . S
H1273 C1285 0.930 . S
H1274 C1287 0.930 . S
H1275 C1288 0.930 . S
H1276 C1292 0.959 . S
H1277 C1292 0.959 . S
H1278 C1292 0.961 . S
H1279 C1293 0.960 . S
H1280 C1293 0.961 . S
H1281 C1293 0.959 . S
H1282 C1296 0.929 . S
H1283 C1297 0.931 . S
H1284 C1299 0.930 . S
C1285 H1273 0.930 . S
C1285 C1286 1.399 . S
C1285 C1290 1.399 . S
C1286 C1285 1.399 . S
C1286 C1287 1.376 . S
C1287 H1274 0.930 . S
C1287 C1286 1.376 . S
C1287 C1288 1.388 . S
C1288 H1275 0.930 . S
C1288 C1287 1.388 . S
C1288 C1289 1.390 . S
C1289 C1288 1.390 . S
C1289 C1290 1.394 . S
C1289 C1295 1.465 . S
C1290 C1285 1.399 . S
C1290 C1289 1.394 . S
C1290 C1291 1.516 . S
C1291 C1290 1.516 . S
C1291 C1292 1.502 . S
C1291 C1293 1.561 . S
C1291 C1294 1.526 . S
C1292 H1276 0.959 . S
C1292 H1277 0.959 . S
C1292 H1278 0.961 . S
C1292 C1291 1.502 . S
C1293 H1279 0.960 . S
C1293 H1280 0.961 . S
C1293 H1281 0.959 . S
C1293 C1291 1.561 . S
C1294 C1291 1.526 . S
C1294 C1295 1.396 . S
C1294 C1299 1.390 . S
C1295 C1289 1.465 . S
C1295 C1294 1.396 . S
C1295 C1296 1.399 . S
C1296 H1282 0.929 . S
C1296 C1295 1.399 . S
C1296 C1297 1.385 . S
C1297 H1283 0.931 . S
C1297 C1296 1.385 . S
C1297 C1298 1.389 . S
C1298 C1297 1.389 . S
C1298 C1299 1.387 . S
C1299 H1284 0.930 . S
C1299 C1294 1.390 . S
C1299 C1298 1.387 . S
H1300 C1312 0.930 . S
H1301 C1314 0.930 . S
H1302 C1315 0.930 . S
H1303 C1319 0.959 . S
H1304 C1319 0.959 . S
H1305 C1319 0.961 . S
H1306 C1320 0.960 . S
H1307 C1320 0.961 1_455 S
H1308 C1320 0.959 . S
H1309 C1323 0.929 . S
H1310 C1324 0.931 . S
H1311 C1326 0.930 . S
C1312 H1300 0.930 . S
C1312 C1313 1.399 1_455 S
C1312 C1317 1.399 . S
C1313 C1312 1.399 1_655 S
C1313 C1314 1.376 . S
C1314 H1301 0.930 . S
C1314 C1313 1.376 . S
C1314 C1315 1.388 . S
C1315 H1302 0.930 . S
C1315 C1314 1.388 . S
C1315 C1316 1.390 . S
C1316 C1315 1.390 . S
C1316 C1317 1.394 1_655 S
C1316 C1322 1.465 . S
C1317 C1312 1.399 . S
C1317 C1316 1.394 1_455 S
C1317 C1318 1.516 . S
C1318 C1317 1.516 . S
C1318 C1319 1.502 . S
C1318 C1320 1.561 1_455 S
C1318 C1321 1.526 . S
C1319 H1303 0.959 . S
C1319 H1304 0.959 . S
C1319 H1305 0.961 . S
C1319 C1318 1.502 . S
C1320 H1306 0.960 . S
C1320 H1307 0.961 1_655 S
C1320 H1308 0.959 . S
C1320 C1318 1.561 1_655 S
C1321 C1318 1.526 . S
C1321 C1322 1.396 1_455 S
C1321 C1326 1.390 . S
C1322 C1316 1.465 . S
C1322 C1321 1.396 1_655 S
C1322 C1323 1.399 . S
C1323 H1309 0.929 . S
C1323 C1322 1.399 . S
C1323 C1324 1.385 . S
C1324 H1310 0.931 . S
C1324 C1323 1.385 . S
C1324 C1325 1.389 1_655 S
C1325 C1324 1.389 1_455 S
C1325 C1326 1.387 . S
C1326 H1311 0.930 . S
C1326 C1321 1.390 . S
C1326 C1325 1.387 . S
H1327 C1339 0.930 . S
H1328 C1341 0.930 . S
H1329 C1342 0.930 . S
H1330 C1346 0.959 . S
H1331 C1346 0.959 . S
H1332 C1346 0.961 . S
H1333 C1347 0.960 . S
H1334 C1347 0.961 . S
H1335 C1347 0.959 . S
H1336 C1350 0.929 . S
H1337 C1351 0.931 . S
H1338 C1353 0.930 . S
C1339 H1327 0.930 . S
C1339 C1340 1.399 1_545 S
C1339 C1344 1.399 . S
C1340 C1339 1.399 1_565 S
C1340 C1341 1.376 . S
C1341 H1328 0.930 . S
C1341 C1340 1.376 . S
C1341 C1342 1.388 . S
C1342 H1329 0.930 . S
C1342 C1341 1.388 . S
C1342 C1343 1.390 . S
C1343 C1342 1.390 . S
C1343 C1344 1.394 1_565 S
C1343 C1349 1.465 . S
C1344 C1339 1.399 . S
C1344 C1343 1.394 1_545 S
C1344 C1345 1.516 . S
C1345 C1344 1.516 . S
C1345 C1346 1.502 . S
C1345 C1347 1.561 . S
C1345 C1348 1.526 . S
C1346 H1330 0.959 . S
C1346 H1331 0.959 . S
C1346 H1332 0.961 . S
C1346 C1345 1.502 . S
C1347 H1333 0.960 . S
C1347 H1334 0.961 . S
C1347 H1335 0.959 . S
C1347 C1345 1.561 . S
C1348 C1345 1.526 . S
C1348 C1349 1.396 1_545 S
C1348 C1353 1.390 . S
C1349 C1343 1.465 . S
C1349 C1348 1.396 1_565 S
C1349 C1350 1.399 . S
C1350 H1336 0.929 . S
C1350 C1349 1.399 . S
C1350 C1351 1.385 . S
C1351 H1337 0.931 . S
C1351 C1350 1.385 . S
C1351 C1352 1.389 1_565 S
C1352 C1351 1.389 1_545 S
C1352 C1353 1.387 . S
C1353 H1338 0.930 . S
C1353 C1348 1.390 . S
C1353 C1352 1.387 . S
H1354 C1366 0.930 . S
H1355 C1368 0.930 . S
H1356 C1369 0.930 . S
H1357 C1373 0.959 . S
H1358 C1373 0.959 . S
H1359 C1373 0.961 . S
H1360 C1374 0.960 . S
H1361 C1374 0.961 . S
H1362 C1374 0.959 . S
H1363 C1377 0.929 . S
H1364 C1378 0.931 . S
H1365 C1380 0.930 . S
C1366 H1354 0.930 . S
C1366 C1367 1.399 . S
C1366 C1371 1.399 . S
C1367 C1366 1.399 . S
C1367 C1368 1.376 . S
C1368 H1355 0.930 . S
C1368 C1367 1.376 . S
C1368 C1369 1.388 . S
C1369 H1356 0.930 . S
C1369 C1368 1.388 . S
C1369 C1370 1.390 . S
C1370 C1369 1.390 . S
C1370 C1371 1.394 . S
C1370 C1376 1.465 . S
C1371 C1366 1.399 . S
C1371 C1370 1.394 . S
C1371 C1372 1.516 . S
C1372 C1371 1.516 . S
C1372 C1373 1.502 . S
C1372 C1374 1.561 . S
C1372 C1375 1.526 . S
C1373 H1357 0.959 . S
C1373 H1358 0.959 . S
C1373 H1359 0.961 . S
C1373 C1372 1.502 . S
C1374 H1360 0.960 . S
C1374 H1361 0.961 . S
C1374 H1362 0.959 . S
C1374 C1372 1.561 . S
C1375 C1372 1.526 . S
C1375 C1376 1.396 . S
C1375 C1380 1.390 . S
C1376 C1370 1.465 . S
C1376 C1375 1.396 . S
C1376 C1377 1.399 . S
C1377 H1363 0.929 . S
C1377 C1376 1.399 . S
C1377 C1378 1.385 . S
C1378 H1364 0.931 . S
C1378 C1377 1.385 . S
C1378 C1379 1.389 . S
C1379 C1378 1.389 . S
C1379 C1380 1.387 . S
C1380 H1365 0.930 . S
C1380 C1375 1.390 . S
C1380 C1379 1.387 . S
H1381 C1393 0.930 . S
H1382 C1395 0.930 . S
H1383 C1396 0.930 . S
H1384 C1400 0.959 . S
H1385 C1400 0.959 . S
H1386 C1400 0.961 . S
H1387 C1401 0.960 . S
H1388 C1401 0.961 . S
H1389 C1401 0.959 . S
H1390 C1404 0.929 . S
H1391 C1405 0.931 . S
H1392 C1407 0.930 . S
C1393 H1381 0.930 . S
C1393 C1394 1.399 . S
C1393 C1398 1.399 . S
C1394 C1393 1.399 . S
C1394 C1395 1.376 . S
C1395 H1382 0.930 . S
C1395 C1394 1.376 . S
C1395 C1396 1.388 . S
C1396 H1383 0.930 . S
C1396 C1395 1.388 . S
C1396 C1397 1.390 . S
C1397 C1396 1.390 . S
C1397 C1398 1.394 . S
C1397 C1403 1.465 . S
C1398 C1393 1.399 . S
C1398 C1397 1.394 . S
C1398 C1399 1.516 . S
C1399 C1398 1.516 . S
C1399 C1400 1.502 . S
C1399 C1401 1.561 . S
C1399 C1402 1.526 . S
C1400 H1384 0.959 . S
C1400 H1385 0.959 . S
C1400 H1386 0.961 . S
C1400 C1399 1.502 . S
C1401 H1387 0.960 . S
C1401 H1388 0.961 . S
C1401 H1389 0.959 . S
C1401 C1399 1.561 . S
C1402 C1399 1.526 . S
C1402 C1403 1.396 . S
C1402 C1407 1.390 . S
C1403 C1397 1.465 . S
C1403 C1402 1.396 . S
C1403 C1404 1.399 . S
C1404 H1390 0.929 . S
C1404 C1403 1.399 . S
C1404 C1405 1.385 . S
C1405 H1391 0.931 . S
C1405 C1404 1.385 . S
C1405 C1406 1.389 . S
C1406 C1405 1.389 . S
C1406 C1407 1.387 . S
C1407 H1392 0.930 . S
C1407 C1402 1.390 . S
C1407 C1406 1.387 . S
H1408 C1420 0.930 . S
H1409 C1422 0.930 . S
H1410 C1423 0.930 . S
H1411 C1427 0.959 . S
H1412 C1427 0.959 . S
H1413 C1427 0.961 . S
H1414 C1428 0.963 . S
H1415 C1428 0.961 1_455 S
H1416 C1428 0.959 . S
H1417 C1431 0.929 . S
H1418 C1432 0.931 . S
H1419 C1434 0.930 . S
C1420 H1408 0.930 . S
C1420 C1421 1.399 1_455 S
C1420 C1425 1.399 . S
C1421 C1420 1.399 1_655 S
C1421 C1422 1.376 . S
C1422 H1409 0.930 . S
C1422 C1421 1.376 . S
C1422 C1423 1.388 . S
C1423 H1410 0.930 . S
C1423 C1422 1.388 . S
C1423 C1424 1.390 . S
C1424 C1423 1.390 . S
C1424 C1425 1.394 1_655 S
C1424 C1430 1.465 . S
C1425 C1420 1.399 . S
C1425 C1424 1.394 1_455 S
C1425 C1426 1.516 . S
C1426 C1425 1.516 . S
C1426 C1427 1.502 . S
C1426 C1428 1.561 1_455 S
C1426 C1429 1.526 . S
C1427 H1411 0.959 . S
C1427 H1412 0.959 . S
C1427 H1413 0.961 . S
C1427 C1426 1.502 . S
C1428 H1414 0.963 . S
C1428 H1415 0.961 1_655 S
C1428 H1416 0.959 . S
C1428 C1426 1.561 1_655 S
C1429 C1426 1.526 . S
C1429 C1430 1.396 1_455 S
C1429 C1434 1.390 . S
C1430 C1424 1.465 . S
C1430 C1429 1.396 1_655 S
C1430 C1431 1.399 . S
C1431 H1417 0.929 . S
C1431 C1430 1.399 . S
C1431 C1432 1.385 . S
C1432 H1418 0.931 . S
C1432 C1431 1.385 . S
C1432 C1433 1.389 1_655 S
C1433 C1432 1.389 1_455 S
C1433 C1434 1.387 . S
C1434 H1419 0.930 . S
C1434 C1429 1.390 . S
C1434 C1433 1.387 . S
H1435 C1447 0.930 . S
H1436 C1449 0.930 . S
H1437 C1450 0.930 . S
H1438 C1454 0.959 . S
H1439 C1454 0.959 . S
H1440 C1454 0.961 . S
H1441 C1455 0.960 . S
H1442 C1455 0.961 . S
H1443 C1455 0.959 . S
H1444 C1458 0.929 . S
H1445 C1459 0.931 . S
H1446 C1461 0.930 . S
C1447 H1435 0.930 . S
C1447 C1448 1.399 1_545 S
C1447 C1452 1.399 . S
C1448 C1447 1.399 1_565 S
C1448 C1449 1.376 . S
C1449 H1436 0.930 . S
C1449 C1448 1.376 . S
C1449 C1450 1.388 . S
C1450 H1437 0.930 . S
C1450 C1449 1.388 . S
C1450 C1451 1.390 . S
C1451 C1450 1.390 . S
C1451 C1452 1.394 1_565 S
C1451 C1457 1.465 . S
C1452 C1447 1.399 . S
C1452 C1451 1.394 1_545 S
C1452 C1453 1.516 . S
C1453 C1452 1.516 . S
C1453 C1454 1.502 . S
C1453 C1455 1.561 . S
C1453 C1456 1.526 . S
C1454 H1438 0.959 . S
C1454 H1439 0.959 . S
C1454 H1440 0.961 . S
C1454 C1453 1.502 . S
C1455 H1441 0.960 . S
C1455 H1442 0.961 . S
C1455 H1443 0.959 . S
C1455 C1453 1.561 . S
C1456 C1453 1.526 . S
C1456 C1457 1.396 1_545 S
C1456 C1461 1.390 . S
C1457 C1451 1.465 . S
C1457 C1456 1.396 1_565 S
C1457 C1458 1.399 . S
C1458 H1444 0.929 . S
C1458 C1457 1.399 . S
C1458 C1459 1.385 . S
C1459 H1445 0.931 . S
C1459 C1458 1.385 . S
C1459 C1460 1.389 1_565 S
C1460 C1459 1.389 1_545 S
C1460 C1461 1.387 . S
C1461 H1446 0.930 . S
C1461 C1456 1.390 . S
C1461 C1460 1.387 . S
H1462 C1474 0.930 . S
H1463 C1476 0.930 . S
H1464 C1477 0.930 . S
H1465 C1481 0.959 . S
H1466 C1481 0.959 . S
H1467 C1481 0.961 . S
H1468 C1482 0.960 . S
H1469 C1482 0.961 . S
H1470 C1482 0.959 . S
H1471 C1485 0.929 . S
H1472 C1486 0.931 . S
H1473 C1488 0.930 . S
C1474 H1462 0.930 . S
C1474 C1475 1.399 . S
C1474 C1479 1.399 . S
C1475 C1474 1.399 . S
C1475 C1476 1.376 . S
C1476 H1463 0.930 . S
C1476 C1475 1.376 . S
C1476 C1477 1.388 . S
C1477 H1464 0.930 . S
C1477 C1476 1.388 . S
C1477 C1478 1.390 . S
C1478 C1477 1.390 . S
C1478 C1479 1.394 . S
C1478 C1484 1.465 . S
C1479 C1474 1.399 . S
C1479 C1478 1.394 . S
C1479 C1480 1.516 . S
C1480 C1479 1.516 . S
C1480 C1481 1.502 . S
C1480 C1482 1.561 . S
C1480 C1483 1.526 . S
C1481 H1465 0.959 . S
C1481 H1466 0.959 . S
C1481 H1467 0.961 . S
C1481 C1480 1.502 . S
C1482 H1468 0.960 . S
C1482 H1469 0.961 . S
C1482 H1470 0.959 . S
C1482 C1480 1.561 . S
C1483 C1480 1.526 . S
C1483 C1484 1.396 . S
C1483 C1488 1.390 . S
C1484 C1478 1.465 . S
C1484 C1483 1.396 . S
C1484 C1485 1.399 . S
C1485 H1471 0.929 . S
C1485 C1484 1.399 . S
C1485 C1486 1.385 . S
C1486 H1472 0.931 . S
C1486 C1485 1.385 . S
C1486 C1487 1.389 . S
C1487 C1486 1.389 . S
C1487 C1488 1.387 . S
C1488 H1473 0.930 . S
C1488 C1483 1.390 . S
C1488 C1487 1.387 . S
H1489 C1501 0.930 . S
H1490 C1503 0.930 1_554 S
H1491 C1504 0.930 . S
H1492 C1508 0.959 . S
H1493 C1508 0.959 . S
H1494 C1508 0.961 . S
H1495 C1509 0.960 . S
H1496 C1509 0.961 . S
H1497 C1509 0.959 . S
H1498 C1512 0.929 . S
H1499 C1513 0.931 . S
H1500 C1515 0.930 . S
C1501 H1489 0.930 . S
C1501 C1502 1.399 . S
C1501 C1506 1.399 . S
C1502 C1501 1.399 . S
C1502 C1503 1.376 . S
C1503 H1490 0.930 1_556 S
C1503 C1502 1.376 . S
C1503 C1504 1.388 . S
C1504 H1491 0.930 . S
C1504 C1503 1.388 . S
C1504 C1505 1.390 . S
C1505 C1504 1.390 . S
C1505 C1506 1.394 . S
C1505 C1511 1.465 . S
C1506 C1501 1.399 . S
C1506 C1505 1.394 . S
C1506 C1507 1.516 . S
C1507 C1506 1.516 . S
C1507 C1508 1.502 . S
C1507 C1509 1.561 . S
C1507 C1510 1.526 . S
C1508 H1492 0.959 . S
C1508 H1493 0.959 . S
C1508 H1494 0.961 . S
C1508 C1507 1.502 . S
C1509 H1495 0.960 . S
C1509 H1496 0.961 . S
C1509 H1497 0.959 . S
C1509 C1507 1.561 . S
C1510 C1507 1.526 . S
C1510 C1511 1.396 . S
C1510 C1515 1.390 . S
C1511 C1505 1.465 . S
C1511 C1510 1.396 . S
C1511 C1512 1.399 . S
C1512 H1498 0.929 . S
C1512 C1511 1.399 . S
C1512 C1513 1.385 . S
C1513 H1499 0.931 . S
C1513 C1512 1.385 . S
C1513 C1514 1.389 . S
C1514 C1513 1.389 . S
C1514 C1515 1.387 . S
C1515 H1500 0.930 . S
C1515 C1510 1.390 . S
C1515 C1514 1.387 . S
H1516 C1528 0.930 . S
H1517 C1530 0.930 . S
H1518 C1531 0.930 . S
H1519 C1535 0.959 . S
H1520 C1535 0.959 . S
H1521 C1535 0.961 . S
H1522 C1536 0.960 . S
H1523 C1536 0.961 . S
H1524 C1536 0.959 . S
H1525 C1539 0.929 . S
H1526 C1540 0.931 . S
H1527 C1542 0.950 . S
C1528 H1516 0.930 . S
C1528 C1529 1.399 . S
C1528 C1533 1.399 . S
C1529 C1528 1.399 . S
C1529 C1530 1.376 1_455 S
C1530 H1517 0.930 . S
C1530 C1529 1.376 1_655 S
C1530 C1531 1.388 . S
C1531 H1518 0.930 . S
C1531 C1530 1.388 . S
C1531 C1532 1.390 . S
C1532 C1531 1.390 . S
C1532 C1533 1.394 1_655 S
C1532 C1538 1.465 . S
C1533 C1528 1.399 . S
C1533 C1532 1.394 1_455 S
C1533 C1534 1.516 . S
C1534 C1533 1.516 . S
C1534 C1535 1.502 . S
C1534 C1536 1.561 1_455 S
C1534 C1537 1.536 . S
C1535 H1519 0.959 . S
C1535 H1520 0.959 . S
C1535 H1521 0.961 . S
C1535 C1534 1.502 . S
C1536 H1522 0.960 . S
C1536 H1523 0.961 . S
C1536 H1524 0.959 . S
C1536 C1534 1.561 1_655 S
C1537 C1534 1.536 . S
C1537 C1538 1.384 1_455 S
C1537 C1542 1.389 . S
C1538 C1532 1.465 . S
C1538 C1537 1.384 1_655 S
C1538 C1539 1.399 . S
C1539 H1525 0.929 . S
C1539 C1538 1.399 . S
C1539 C1540 1.385 . S
C1540 H1526 0.931 . S
C1540 C1539 1.385 . S
C1540 C1541 1.389 . S
C1541 C1540 1.389 . S
C1541 C1542 1.370 1_655 S
C1542 H1527 0.950 . S
C1542 C1537 1.389 . S
C1542 C1541 1.370 1_455 S
H1543 C1555 0.930 . S
H1544 C1557 0.930 . S
H1545 C1558 0.930 . S
H1546 C1562 0.959 . S
H1547 C1562 0.959 . S
H1548 C1562 0.961 . S
H1549 C1563 0.960 . S
H1550 C1563 0.961 . S
H1551 C1563 0.959 . S
H1552 C1566 0.929 . S
H1553 C1567 0.931 . S
H1554 C1569 0.930 . S
C1555 H1543 0.930 . S
C1555 C1556 1.399 1_565 S
C1555 C1560 1.399 . S
C1556 C1555 1.399 1_545 S
C1556 C1557 1.376 . S
C1557 H1544 0.930 . S
C1557 C1556 1.376 . S
C1557 C1558 1.388 . S
C1558 H1545 0.930 . S
C1558 C1557 1.388 . S
C1558 C1559 1.390 . S
C1559 C1558 1.390 . S
C1559 C1560 1.394 1_545 S
C1559 C1565 1.465 . S
C1560 C1555 1.399 . S
C1560 C1559 1.394 1_565 S
C1560 C1561 1.516 . S
C1561 C1560 1.516 . S
C1561 C1562 1.502 . S
C1561 C1563 1.561 . S
C1561 C1564 1.526 . S
C1562 H1546 0.959 . S
C1562 H1547 0.959 . S
C1562 H1548 0.961 . S
C1562 C1561 1.502 . S
C1563 H1549 0.960 . S
C1563 H1550 0.961 . S
C1563 H1551 0.959 . S
C1563 C1561 1.561 . S
C1564 C1561 1.526 . S
C1564 C1565 1.396 1_565 S
C1564 C1569 1.390 . S
C1565 C1559 1.465 . S
C1565 C1564 1.396 1_545 S
C1565 C1566 1.399 . S
C1566 H1552 0.929 . S
C1566 C1565 1.399 . S
C1566 C1567 1.385 . S
C1567 H1553 0.931 . S
C1567 C1566 1.385 . S
C1567 C1568 1.389 1_545 S
C1568 C1567 1.389 1_565 S
C1568 C1569 1.387 . S
C1569 H1554 0.930 . S
C1569 C1564 1.390 . S
C1569 C1568 1.387 . S
H1570 C1582 0.930 . S
H1571 C1584 0.930 1_556 S
H1572 C1585 0.930 . S
H1573 C1589 0.959 . S
H1574 C1589 0.959 . S
H1575 C1589 0.961 . S
H1576 C1590 0.960 . S
H1577 C1590 0.961 . S
H1578 C1590 0.959 . S
H1579 C1593 0.929 . S
H1580 C1594 0.931 . S
H1581 C1596 0.930 . S
C1582 H1570 0.930 . S
C1582 C1583 1.399 . S
C1582 C1587 1.399 . S
C1583 C1582 1.399 . S
C1583 C1584 1.376 . S
C1584 H1571 0.930 1_554 S
C1584 C1583 1.376 . S
C1584 C1585 1.388 . S
C1585 H1572 0.930 . S
C1585 C1584 1.388 . S
C1585 C1586 1.390 . S
C1586 C1585 1.390 . S
C1586 C1587 1.394 . S
C1586 C1592 1.465 . S
C1587 C1582 1.399 . S
C1587 C1586 1.394 . S
C1587 C1588 1.516 . S
C1588 C1587 1.516 . S
C1588 C1589 1.502 . S
C1588 C1590 1.561 . S
C1588 C1591 1.526 . S
C1589 H1573 0.959 . S
C1589 H1574 0.959 . S
C1589 H1575 0.961 . S
C1589 C1588 1.502 . S
C1590 H1576 0.960 . S
C1590 H1577 0.961 . S
C1590 H1578 0.959 . S
C1590 C1588 1.561 . S
C1591 C1588 1.526 . S
C1591 C1592 1.396 . S
C1591 C1596 1.390 . S
C1592 C1586 1.465 . S
C1592 C1591 1.396 . S
C1592 C1593 1.399 . S
C1593 H1579 0.929 . S
C1593 C1592 1.399 . S
C1593 C1594 1.385 . S
C1594 H1580 0.931 . S
C1594 C1593 1.385 . S
C1594 C1595 1.389 . S
C1595 C1594 1.389 . S
C1595 C1596 1.387 . S
C1596 H1581 0.930 . S
C1596 C1591 1.390 . S
C1596 C1595 1.387 . S
H1597 C1609 0.930 . S
H1598 C1611 0.930 . S
H1599 C1612 0.930 . S
H1600 C1616 0.959 . S
H1601 C1616 0.959 . S
H1602 C1616 0.961 . S
H1603 C1617 0.960 . S
H1604 C1617 0.961 . S
H1605 C1617 0.959 . S
H1606 C1620 0.929 . S
H1607 C1621 0.931 . S
H1608 C1623 0.930 . S
C1609 H1597 0.930 . S
C1609 C1610 1.399 . S
C1609 C1614 1.399 . S
C1610 C1609 1.399 . S
C1610 C1611 1.376 . S
C1611 H1598 0.930 . S
C1611 C1610 1.376 . S
C1611 C1612 1.388 . S
C1612 H1599 0.930 . S
C1612 C1611 1.388 . S
C1612 C1613 1.390 . S
C1613 C1612 1.390 . S
C1613 C1614 1.394 . S
C1613 C1619 1.465 . S
C1614 C1609 1.399 . S
C1614 C1613 1.394 . S
C1614 C1615 1.516 . S
C1615 C1614 1.516 . S
C1615 C1616 1.502 . S
C1615 C1617 1.561 . S
C1615 C1618 1.526 . S
C1616 H1600 0.959 . S
C1616 H1601 0.959 . S
C1616 H1602 0.961 . S
C1616 C1615 1.502 . S
C1617 H1603 0.960 . S
C1617 H1604 0.961 . S
C1617 H1605 0.959 . S
C1617 C1615 1.561 . S
C1618 C1615 1.526 . S
C1618 C1619 1.396 . S
C1618 C1623 1.390 . S
C1619 C1613 1.465 . S
C1619 C1618 1.396 . S
C1619 C1620 1.399 . S
C1620 H1606 0.929 . S
C1620 C1619 1.399 . S
C1620 C1621 1.385 . S
C1621 H1607 0.931 . S
C1621 C1620 1.385 . S
C1621 C1622 1.389 . S
C1622 C1621 1.389 . S
C1622 C1623 1.387 . S
C1623 H1608 0.930 . S
C1623 C1618 1.390 . S
C1623 C1622 1.387 . S
C557 C2 1.715 . S
C569 C512 1.716 . S
C584 C36 1.715 . S
C596 C410 1.716 . S
C611 C444 1.710 . S
C623 C70 1.710 . S
C638 C104 1.714 . S
C650 C478 1.716 . S
C665 C308 1.710 . S
C677 C138 1.710 . S
C692 C342 1.715 . S
C704 C172 1.714 . S
C719 C376 1.710 . S
C731 C206 1.710 . S
C746 C274 1.717 . S
C758 C240 1.716 . S
C773 C33 1.251 . S
C785 C271 1.279 . S
C800 C67 1.221 . S
C812 C169 1.261 . S
C827 C101 1.222 . S
C839 C203 1.245 . S
C854 C135 1.271 . S
C866 C237 1.268 . S
C881 C543 1.221 . S
C893 C305 1.275 . S
C908 C441 1.225 . S
C920 C339 1.279 . S
C935 C475 1.231 . S
C947 C373 1.248 . S
C962 C407 1.237 . S
C974 C509 1.241 . S
C989 C20 1.558 . S
C1001 C156 1.538 . S
C1016 C190 1.572 . S
C1028 C54 1.569 . S
C1043 C224 1.547 . S
C1055 C88 1.534 . S
C1070 C122 1.574 . S
C1082 C258 1.561 . S
C1097 C428 1.574 . S
C1109 C292 1.552 . S
C1124 C326 1.554 . S
C1136 C462 1.573 . S
C1151 C360 1.550 . S
C1163 C496 1.573 . S
C1178 C530 1.550 . S
C1190 C394 1.534 . S
C1205 C5 1.242 . S
C1217 C9 1.244 . S
C1232 C43 1.208 1_554 S
C1244 C39 1.261 . S
C1259 C73 1.241 . S
C1271 C77 1.242 . S
C1286 C111 1.186 1_554 S
C1298 C107 1.252 . S
C1313 C141 1.244 . S
C1325 C145 1.248 1_556 S
C1340 C175 1.265 . S
C1352 C179 1.250 . S
C1367 C209 1.245 . S
C1379 C213 1.251 1_556 S
C1394 C243 1.258 . S
C1406 C247 1.262 . S
C1421 C281 1.185 . S
C1433 C277 1.260 . S
C1448 C315 1.211 1_556 S
C1460 C311 1.236 . S
C1475 C349 1.252 . S
C1487 C345 1.238 . S
C1502 C383 1.246 1_556 S
C1514 C379 1.261 . S
C1529 C413 1.237 . S
C1541 C417 1.203 1_554 S
C1556 C447 1.239 . S
C1568 C451 1.256 . S
C1583 C485 1.189 1_554 S
C1595 C481 1.262 . S
C1610 C519 1.251 . S
C1622 C515 1.259 . S
