# Generated by pormake.
# Topology wfa, (4)-cn, num edge types: 1
# Building blocks:
#     Node 0, Type 0, BuildingBlock: MUDLON_clean_sbu_0, # of connection points: 4
#     Node 1, Type 0, BuildingBlock: MUDLON_clean_sbu_0, # of connection points: 4
#     Node 2, Type 0, BuildingBlock: MUDLON_clean_sbu_0, # of connection points: 4
#     Node 3, Type 0, BuildingBlock: MUDLON_clean_sbu_0, # of connection points: 4
#     Node 4, Type 0, BuildingBlock: MUDLON_clean_sbu_0, # of connection points: 4
#     Node 5, Type 0, BuildingBlock: MUDLON_clean_sbu_0, # of connection points: 4
#     Node 6, Type 0, BuildingBlock: MUDLON_clean_sbu_0, # of connection points: 4
#     Node 7, Type 0, BuildingBlock: MUDLON_clean_sbu_0, # of connection points: 4
#     Node 8, Type 0, BuildingBlock: MUDLON_clean_sbu_0, # of connection points: 4
#     Node 9, Type 0, BuildingBlock: MUDLON_clean_sbu_0, # of connection points: 4
#     Node 10, Type 0, BuildingBlock: MUDLON_clean_sbu_0, # of connection points: 4
#     Node 11, Type 0, BuildingBlock: MUDLON_clean_sbu_0, # of connection points: 4
#     Node 12, Type 0, BuildingBlock: MUDLON_clean_sbu_0, # of connection points: 4
#     Node 13, Type 0, BuildingBlock: MUDLON_clean_sbu_0, # of connection points: 4
#     Node 14, Type 0, BuildingBlock: MUDLON_clean_sbu_0, # of connection points: 4
#     Node 15, Type 0, BuildingBlock: MUDLON_clean_sbu_0, # of connection points: 4
#     Edge 16, Type (0, 0), BuildingBlock: UVAHIK_clean_linker_0, # of connection points: 2
#     Edge 17, Type (0, 0), BuildingBlock: UVAHIK_clean_linker_0, # of connection points: 2
#     Edge 18, Type (0, 0), BuildingBlock: UVAHIK_clean_linker_0, # of connection points: 2
#     Edge 19, Type (0, 0), BuildingBlock: UVAHIK_clean_linker_0, # of connection points: 2
#     Edge 20, Type (0, 0), BuildingBlock: UVAHIK_clean_linker_0, # of connection points: 2
#     Edge 21, Type (0, 0), BuildingBlock: UVAHIK_clean_linker_0, # of connection points: 2
#     Edge 22, Type (0, 0), BuildingBlock: UVAHIK_clean_linker_0, # of connection points: 2
#     Edge 23, Type (0, 0), BuildingBlock: UVAHIK_clean_linker_0, # of connection points: 2
#     Edge 24, Type (0, 0), BuildingBlock: UVAHIK_clean_linker_0, # of connection points: 2
#     Edge 25, Type (0, 0), BuildingBlock: UVAHIK_clean_linker_0, # of connection points: 2
#     Edge 26, Type (0, 0), BuildingBlock: UVAHIK_clean_linker_0, # of connection points: 2
#     Edge 27, Type (0, 0), BuildingBlock: UVAHIK_clean_linker_0, # of connection points: 2
#     Edge 28, Type (0, 0), BuildingBlock: UVAHIK_clean_linker_0, # of connection points: 2
#     Edge 29, Type (0, 0), BuildingBlock: UVAHIK_clean_linker_0, # of connection points: 2
#     Edge 30, Type (0, 0), BuildingBlock: UVAHIK_clean_linker_0, # of connection points: 2
#     Edge 31, Type (0, 0), BuildingBlock: UVAHIK_clean_linker_0, # of connection points: 2
#     Edge 32, Type (0, 0), BuildingBlock: UVAHIK_clean_linker_0, # of connection points: 2
#     Edge 33, Type (0, 0), BuildingBlock: UVAHIK_clean_linker_0, # of connection points: 2
#     Edge 34, Type (0, 0), BuildingBlock: UVAHIK_clean_linker_0, # of connection points: 2
#     Edge 35, Type (0, 0), BuildingBlock: UVAHIK_clean_linker_0, # of connection points: 2
#     Edge 36, Type (0, 0), BuildingBlock: UVAHIK_clean_linker_0, # of connection points: 2
#     Edge 37, Type (0, 0), BuildingBlock: UVAHIK_clean_linker_0, # of connection points: 2
#     Edge 38, Type (0, 0), BuildingBlock: UVAHIK_clean_linker_0, # of connection points: 2
#     Edge 39, Type (0, 0), BuildingBlock: UVAHIK_clean_linker_0, # of connection points: 2
#     Edge 40, Type (0, 0), BuildingBlock: UVAHIK_clean_linker_0, # of connection points: 2
#     Edge 41, Type (0, 0), BuildingBlock: UVAHIK_clean_linker_0, # of connection points: 2
#     Edge 42, Type (0, 0), BuildingBlock: UVAHIK_clean_linker_0, # of connection points: 2
#     Edge 43, Type (0, 0), BuildingBlock: UVAHIK_clean_linker_0, # of connection points: 2
#     Edge 44, Type (0, 0), BuildingBlock: UVAHIK_clean_linker_0, # of connection points: 2
#     Edge 45, Type (0, 0), BuildingBlock: UVAHIK_clean_linker_0, # of connection points: 2
#     Edge 46, Type (0, 0), BuildingBlock: UVAHIK_clean_linker_0, # of connection points: 2
#     Edge 47, Type (0, 0), BuildingBlock: UVAHIK_clean_linker_0, # of connection points: 2
# Relax obj value: 0.201
# Max RMSD: 0.234
# Mean RMSD: 0.228
data_MOF--net-wfa--node1-MUDLON_clean_sbu_0--edge1-UVAHIK_clean_linker_0
_symmetry_space_group_name_H-M    P1
_symmetry_Int_Tables_number       1
_symmetry_cell_setting            triclinic
loop_
_symmetry_equiv_pos_as_xyz
'x, y, z'
_cell_length_a     62.650542
_cell_length_b     62.647098
_cell_length_c     32.03352
_cell_angle_alpha  89.78879
_cell_angle_beta   89.602084
_cell_angle_gamma 89.15829
loop_
_atom_site_label
_atom_site_type_symbol
_atom_site_fract_x
_atom_site_fract_y
_atom_site_fract_z
_atom_type_partial_charge
Mg0 Mg 0.6717 0.0314 0.07951 0.0
C1 C 0.70951 0.03107 0.13474 0.0
O2 O 0.7124 0.04762 0.11012 0.0
C3 C 0.62889 0.01023 0.09343 0.0
O4 O 0.63212 0.01775 0.13105 0.0
C5 C 0.70332 0.01883 0.01287 0.0
O6 O 0.70397 1.00241 0.03851 0.0
O7 O 0.69082 0.03446 0.02176 0.0
O8 O 0.69318 0.01959 0.12882 0.0
O9 O 0.65677 0.06092 0.10351 0.0
C10 C 0.65491 0.06207 0.1431 0.0
O11 O 0.66403 0.04712 0.16593 0.0
O12 O 0.64367 0.01195 0.06614 0.0
Mg13 Mg 0.48515 0.66354 0.04479 0.0
C14 C 0.4387 0.65189 0.06913 0.0
O15 O 0.4399 0.63785 0.03884 0.0
C16 C 0.4678 0.69286 0.97676 0.0
O17 O 0.45208 0.6946 1.00394 0.0
C18 C 0.48817 0.61887 1.00801 0.0
O19 O 0.47568 0.62826 0.98052 0.0
O20 O 0.49538 0.62994 0.03795 0.0
O21 O 0.45434 0.66408 0.07562 0.0
O22 O 0.50359 0.68171 0.09004 0.0
C23 C 0.50005 0.70179 0.0905 0.0
O24 O 0.48793 0.71018 0.06125 0.0
O25 O 0.48361 0.6806 0.98517 0.0
Mg26 Mg 0.87877 0.47114 0.0464 0.0
C27 C 0.85775 0.49371 0.1232 0.0
O28 O 0.87513 0.50517 0.12444 0.0
C29 C 0.92059 0.48843 0.07305 0.0
O30 O 0.91547 0.47665 0.10554 0.0
C31 C 0.84763 0.48588 0.98235 0.0
O32 O 0.84289 0.49825 0.01423 0.0
O33 O 0.86258 0.47204 0.9863 0.0
O34 O 0.85569 0.47991 0.09461 0.0
O35 O 0.89185 0.44032 0.06557 0.0
C36 C 0.88244 0.42939 0.09349 0.0
O37 O 0.86279 0.43471 0.10415 0.0
O38 O 0.90713 0.49069 0.04374 0.0
Mg39 Mg 0.98107 0.88925 0.09538 0.0
C40 C 0.02621 0.89011 0.12841 0.0
O41 O 0.02103 0.87084 0.14081 0.0
C42 C 0.99152 0.8702 1.00898 0.0
O43 O 1.00676 0.88437 1.00962 0.0
C44 C 0.96998 0.93155 0.06016 0.0
O45 O 0.98736 0.92555 0.03995 0.0
O46 O 0.96213 0.91874 0.08697 0.0
O47 O 0.01315 0.90072 0.106 0.0
O48 O 0.97363 0.8706 0.15163 0.0
C49 C 0.97316 0.85031 0.14943 0.0
O50 O 0.97503 0.84125 0.11264 0.0
O51 O 0.97887 0.86889 0.0401 0.0
Mg52 Mg 0.18111 0.96165 0.44511 0.0
C53 C 0.21849 0.9475 0.39253 0.0
O54 O 0.22756 0.95935 0.42094 0.0
C55 C 0.13391 0.96885 0.45986 0.0
O56 O 0.14106 0.9884 0.45714 0.0
C57 C 0.20935 0.97462 0.51901 0.0
O58 O 0.20835 0.99334 0.50042 0.0
O59 O 0.19941 0.95904 0.5032 0.0
O60 O 0.19859 0.94389 0.39598 0.0
O61 O 0.18126 0.99429 0.42022 0.0
C62 C 0.17273 1.0029 0.38795 0.0
O63 O 0.17593 0.02334 0.38156 0.0
O64 O 0.14722 0.9533 0.45681 0.0
Mg65 Mg 0.51197 0.16283 0.441 0.0
C66 C 0.48067 0.15511 0.36939 0.0
O67 O 0.46194 0.15574 0.35125 0.0
C68 C 0.51493 0.1766 0.53254 0.0
O69 O 0.52734 0.15954 0.53448 0.0
C70 C 0.51023 0.11948 0.4766 0.0
O71 O 0.49217 0.12865 0.48834 0.0
O72 O 0.52365 0.1306 0.45622 0.0
O73 O 0.48188 0.15923 0.40827 0.0
O74 O 0.52918 0.18284 0.39683 0.0
C75 C 0.5458 0.1799 0.37447 0.0
O76 O 0.55721 0.1623 0.37881 0.0
O77 O 0.50635 0.18156 0.49785 0.0
Mg78 Mg 0.37302 0.52257 0.45984 0.0
C79 C 0.36261 0.50532 0.37464 0.0
O80 O 0.3812 0.5138 0.3662 0.0
C81 C 0.42063 0.52465 0.44325 0.0
O82 O 0.41358 0.5373 0.41342 0.0
C83 C 0.33927 0.51051 0.52398 0.0
O84 O 0.33133 0.5006 0.49166 0.0
O85 O 0.35656 0.52069 0.51962 0.0
O86 O 0.35634 0.5044 0.41246 0.0
O87 O 0.36982 0.55472 0.43557 0.0
C88 C 0.35285 0.55939 0.41575 0.0
O89 O 0.3372 0.54567 0.41547 0.0
O90 O 0.40715 0.51546 0.46694 0.0
Mg91 Mg 0.95997 0.38095 0.48689 0.0
C92 C 1.00453 0.37244 0.44901 0.0
O93 O 0.02464 0.36628 0.44964 0.0
C94 C 0.94101 0.34828 0.54675 0.0
O95 O 0.94048 0.33706 0.51222 0.0
C96 C 0.97 0.42663 0.50182 0.0
O97 O 0.9871 0.41636 0.51504 0.0
O98 O 0.95469 0.41582 0.48717 0.0
O99 O 0.99432 0.37453 0.48336 0.0
O100 O 0.94812 0.36248 0.43443 0.0
C101 C 0.93288 0.3654 0.40895 0.0
O102 O 0.92043 0.38235 0.41262 0.0
O103 O 0.94812 0.36721 0.54529 0.0
Mg104 Mg 0.37608 0.93988 0.94673 0.0
C105 C 0.34443 0.93706 0.87787 0.0
O106 O 0.34716 0.91706 0.8894 0.0
C107 C 0.40965 0.96298 0.99671 0.0
O108 O 0.39875 0.95425 0.02736 0.0
C109 C 0.3379 0.9334 1.0064 0.0
O110 O 0.3272 0.93636 0.97171 0.0
O111 O 0.35825 0.93342 1.00493 0.0
O112 O 0.3546 0.9514 0.89725 0.0
O113 O 0.39281 0.91227 0.91962 0.0
C114 C 0.4119 0.90823 0.93085 0.0
O115 O 0.41949 0.91828 0.96331 0.0
O116 O 0.4027 0.96127 0.9596 0.0
Mg117 Mg 0.52874 0.34558 0.94759 0.0
C118 C 0.51797 0.30699 0.89925 0.0
O119 O 0.53335 0.3003 0.92391 0.0
C120 C 0.52651 0.39038 0.98113 0.0
O121 O 0.54321 0.38243 1.0007 0.0
C122 C 0.55007 0.31703 0.01309 0.0
O123 O 0.56503 0.31612 0.98417 0.0
O124 O 0.53343 0.32845 1.00658 0.0
O125 O 0.51083 0.32599 0.90375 0.0
O126 O 0.55846 0.34932 0.91378 0.0
C127 C 0.5553 0.35593 0.87675 0.0
O128 O 0.5356 0.36009 0.86507 0.0
O129 O 0.51618 0.3782 0.95697 0.0
Mg130 Mg 0.18502 0.53631 0.96778 0.0
C131 C 0.22044 0.53217 0.90787 0.0
O132 O 0.22613 0.5479 0.93224 0.0
C133 C 0.14587 0.52017 0.01312 0.0
O134 O 0.15734 0.52558 0.04549 0.0
C135 C 0.21944 0.52062 0.02579 0.0
O136 O 0.22259 0.50805 0.99354 0.0
O137 O 0.20438 0.53448 0.02444 0.0
O138 O 0.20302 0.52274 0.91577 0.0
O139 O 0.17782 0.56847 0.9456 0.0
C140 C 0.1602 0.57767 0.95491 0.0
O141 O 0.14784 0.56895 0.98331 0.0
O142 O 0.15401 0.52168 0.97676 0.0
Mg143 Mg 0.92903 0.19965 0.9768 0.0
C144 C 0.91502 0.23908 0.93479 0.0
O145 O 0.93154 0.24483 0.95689 0.0
C146 C 0.93504 0.15434 0.99563 0.0
O147 O 0.9542 0.16199 0.98929 0.0
C148 C 0.92248 0.22843 0.04814 0.0
O149 O 0.90346 0.22648 0.03165 0.0
O150 O 0.93807 0.21807 0.03186 0.0
O151 O 0.90771 0.2204 0.94019 0.0
O152 O 0.95227 0.19288 0.9271 0.0
C153 C 0.94133 0.18688 0.89598 0.0
O154 O 0.92052 0.18561 0.90035 0.0
O155 O 0.91911 0.16724 0.99443 0.0
Mg156 Mg 0.86941 1.00651 0.57525 0.0
C157 C 0.83578 0.01404 0.63907 0.0
O158 O 0.83493 0.03091 0.6146 0.0
C159 C 0.91024 0.99484 0.53576 0.0
O160 O 0.9036 0.01241 0.51709 0.0
C161 C 0.84928 0.02229 0.49215 0.0
O162 O 0.86275 0.03802 0.49621 0.0
O163 O 0.84888 1.00768 0.51986 0.0
O164 O 0.84923 0.99923 0.6301 0.0
O165 O 0.88395 0.03663 0.5917 0.0
C166 C 0.89253 0.03524 0.62752 0.0
O167 O 0.89085 0.01724 0.64842 0.0
O168 O 0.89807 0.98657 0.56333 0.0
Mg169 Mg 0.52233 0.84504 0.54941 0.0
C170 C 0.48868 0.83048 0.61862 0.0
O171 O 0.47752 0.84813 0.61263 0.0
C172 C 0.52791 0.88999 0.52233 0.0
O173 O 0.54551 0.88039 0.50931 0.0
C174 C 0.51674 0.83453 0.45576 0.0
O175 O 0.51173 0.85491 0.45281 0.0
O176 O 0.52151 0.82674 0.4913 0.0
O177 O 0.50538 0.82684 0.59689 0.0
O178 O 0.55498 0.84363 0.57201 0.0
C179 C 0.55986 0.8441 0.61054 0.0
O180 O 0.57979 0.84071 0.62142 0.0
O181 O 0.51375 0.87882 0.54052 0.0
Mg182 Mg 0.68948 0.50102 0.55167 0.0
C183 C 0.7277 0.50574 0.60165 0.0
O184 O 0.73295 0.49201 0.57226 0.0
C185 C 0.64832 0.51634 0.51086 0.0
O186 O 0.6601 0.51358 0.47717 0.0
C187 C 0.7072 0.489 0.46481 0.0
O188 O 0.69479 0.47239 0.46893 0.0
O189 O 0.7075 0.5029 0.49359 0.0
O190 O 0.70934 0.51469 0.60014 0.0
O191 O 0.68561 0.46873 0.57498 0.0
C192 C 0.68094 0.46917 0.61368 0.0
O193 O 0.67882 0.48782 0.63197 0.0
O194 O 0.65686 0.51365 0.54647 0.0
Mg195 Mg 0.9985 0.69571 0.59749 0.0
C196 C 0.99248 0.73341 0.64932 0.0
O197 O 1.00874 0.73748 0.62454 0.0
C198 C 0.99744 0.65087 0.56977 0.0
O199 O 0.01734 0.65663 0.56416 0.0
C200 C 0.99363 0.70946 0.5062 0.0
O201 O 0.98431 0.69085 0.50404 0.0
O202 O 1.00172 0.71514 0.54071 0.0
O203 O 0.98269 0.71593 0.64432 0.0
O204 O 0.0286 0.68813 0.62853 0.0
C205 C 0.02551 0.6818 0.66588 0.0
O206 O 1.00576 0.68036 0.67954 0.0
O207 O 0.98416 0.66467 0.58402 0.0
C208 C 0.50393 0.16009 0.30623 0.0
C209 C 0.49989 0.14973 0.34441 0.0
C210 C 0.52182 0.15435 0.28198 0.0
C211 C 0.575 0.12984 0.28913 0.0
H212 H 0.56793 0.11236 0.17416 0.0
C213 C 0.63737 0.0769 0.20709 0.0
C214 C 0.6401 0.07763 0.16353 0.0
C215 C 0.62166 0.08931 0.22684 0.0
C216 C 0.57038 0.11765 0.20587 0.0
H217 H 0.51007 0.12413 0.38515 0.0
H218 H 0.54183 0.11461 0.34404 0.0
H219 H 0.53753 0.12738 0.21288 0.0
H220 H 0.62894 0.09285 0.1067 0.0
H221 H 0.6018 0.11518 0.14143 0.0
H222 H 0.60776 0.12054 0.28252 0.0
C223 C 0.53155 0.12754 0.33336 0.0
C224 C 0.55289 0.12615 0.22809 0.0
C225 C 0.51363 0.1332 0.35731 0.0
C226 C 0.62726 0.09188 0.14032 0.0
C227 C 0.61155 0.10452 0.16024 0.0
C228 C 0.59255 0.12178 0.26678 0.0
C229 C 0.53591 0.13813 0.29555 0.0
C230 C 0.5549 0.13174 0.2703 0.0
C231 C 0.60829 0.10313 0.20378 0.0
C232 C 0.59037 0.11485 0.22524 0.0
H233 H 0.49332 0.1727 0.29532 0.0
H234 H 0.52479 0.16271 0.25291 0.0
H235 H 0.57708 0.13432 0.32145 0.0
H236 H 0.64688 0.06611 0.2261 0.0
H237 H 0.61952 0.08733 0.26018 0.0
C238 C 0.34285 0.57472 0.34681 0.0
C239 C 0.35302 0.57708 0.38538 0.0
C240 C 0.34658 0.58917 0.31438 0.0
C241 C 0.38883 0.62639 0.28167 0.0
H242 H 0.35265 0.63317 0.1846 0.0
C243 C 0.42129 0.66524 0.13456 0.0
C244 C 0.42132 0.65106 0.10059 0.0
C245 C 0.40797 0.66185 0.16891 0.0
C246 C 0.3628 0.63156 0.2117 0.0
H247 H 0.37335 0.59734 0.42188 0.0
H248 H 0.3788 0.62344 0.36629 0.0
H249 H 0.33795 0.61792 0.24887 0.0
H250 H 0.4058 0.62353 0.07419 0.0
H251 H 0.38242 0.61766 0.13443 0.0
H252 H 0.41364 0.6399 0.24448 0.0
C253 C 0.36879 0.60989 0.36014 0.0
C254 C 0.35449 0.6227 0.24845 0.0
C255 C 0.36552 0.59509 0.3922 0.0
C256 C 0.40628 0.63463 0.1 0.0
C257 C 0.39281 0.63133 0.13438 0.0
C258 C 0.39695 0.6356 0.24537 0.0
C259 C 0.36023 0.60656 0.32013 0.0
C260 C 0.3676 0.61937 0.28355 0.0
C261 C 0.39426 0.64435 0.16985 0.0
C262 C 0.38422 0.63774 0.2097 0.0
H263 H 0.33325 0.56085 0.34059 0.0
H264 H 0.33986 0.58579 0.28414 0.0
H265 H 0.39969 0.62373 0.30736 0.0
H266 H 0.43246 0.67826 0.13579 0.0
H267 H 0.40918 0.67225 0.19571 0.0
C268 C 0.88524 0.40452 0.15465 0.0
C269 C 0.89514 0.41508 0.1211 0.0
C270 C 0.89747 0.39525 0.18644 0.0
C271 C 0.95269 0.38079 0.2201 0.0
H272 H 0.93157 0.40005 0.32775 0.0
C273 C 0.99564 0.361 0.37655 0.0
C274 C 0.99385 0.37608 0.4087 0.0
C275 C 0.98457 0.36405 0.33909 0.0
C276 C 0.9379 0.39471 0.29797 0.0
H277 H 0.92575 0.42245 0.09276 0.0
H278 H 0.94701 0.40651 0.14838 0.0
H279 H 0.90999 0.40575 0.26626 0.0
H280 H 0.98113 0.40709 0.42553 0.0
H281 H 0.96193 0.4127 0.36051 0.0
H282 H 0.98091 0.37025 0.25197 0.0
C283 C 0.9298 0.40529 0.1501 0.0
C284 C 0.92527 0.39762 0.26269 0.0
C285 C 0.91757 0.41451 0.11821 0.0
C286 C 0.98191 0.39482 0.40195 0.0
C287 C 0.971 0.398 0.36454 0.0
C288 C 0.96533 0.37773 0.25563 0.0
C289 C 0.91987 0.39641 0.18547 0.0
C290 C 0.93258 0.39096 0.22321 0.0
C291 C 0.97165 0.38238 0.33302 0.0
C292 C 0.9582 0.38494 0.29499 0.0
H293 H 0.868 0.40443 0.15763 0.0
H294 H 0.88934 0.38807 0.21283 0.0
H295 H 0.95874 0.3754 0.19014 0.0
H296 H 1.005 0.34649 0.38094 0.0
H297 H 0.98544 0.35163 0.31573 0.0
C298 C 0.04875 0.92247 0.13881 0.0
C299 C 0.04498 0.90072 0.1466 0.0
C300 C 0.06435 0.9333 0.16112 0.0
C301 C 0.09133 0.93035 0.26239 0.0
H302 H 0.12797 0.97407 0.21654 0.0
C303 C 0.15615 0.96896 0.36123 0.0
C304 C 0.15908 0.99105 0.35807 0.0
C305 C 0.14311 0.95819 0.33346 0.0
C306 C 0.11766 0.96206 0.22985 0.0
H307 H 0.05565 0.87301 0.18196 0.0
H308 H 0.08295 0.89183 0.22043 0.0
H309 H 0.10455 0.95427 0.17021 0.0
H310 H 0.15039 0.01917 0.32167 0.0
H311 H 0.12741 1.00041 0.27332 0.0
H312 H 0.1041 0.9382 0.32196 0.0
C313 C 0.07354 0.90061 0.19771 0.0
C314 C 0.1043 0.95068 0.20331 0.0
C315 C 0.05799 0.88979 0.17541 0.0
C316 C 0.14864 1.0021 0.32546 0.0
C317 C 0.13551 0.99134 0.29748 0.0
C318 C 0.10459 0.94171 0.28884 0.0
C319 C 0.07648 0.92263 0.19172 0.0
C320 C 0.09107 0.9346 0.21928 0.0
C321 C 0.13247 0.96924 0.30141 0.0
C322 C 0.11802 0.95763 0.27293 0.0
H323 H 0.03905 0.93138 0.11676 0.0
H324 H 0.06616 0.95027 0.15582 0.0
H325 H 0.08096 0.91845 0.27591 0.0
H326 H 0.16372 0.95972 0.38501 0.0
H327 H 0.14149 0.94109 0.33704 0.0
C328 C 0.41914 0.88454 0.86876 0.0
C329 C 0.42674 0.89634 0.90274 0.0
C330 C 0.4334 0.87611 0.83892 0.0
C331 C 0.47261 0.85234 0.79503 0.0
H332 H 0.50554 0.89668 0.74093 0.0
C333 C 0.54257 0.83507 0.67879 0.0
C334 C 0.54353 0.84811 0.64311 0.0
C335 C 0.52775 0.83949 0.71067 0.0
C336 C 0.4964 0.88411 0.75552 0.0
H337 H 0.45535 0.90776 0.93278 0.0
H338 H 0.47997 0.89356 0.8802 0.0
H339 H 0.48084 0.90597 0.79753 0.0
H340 H 0.53052 0.87637 0.61337 0.0
H341 H 0.50448 0.88413 0.66863 0.0
H342 H 0.48888 0.83037 0.75419 0.0
C343 C 0.46305 0.8907 0.87695 0.0
C344 C 0.48239 0.88943 0.78808 0.0
C345 C 0.44891 0.89873 0.90712 0.0
C346 C 0.52963 0.86576 0.63998 0.0
C347 C 0.51499 0.87036 0.67198 0.0
C348 C 0.48707 0.84693 0.76306 0.0
C349 C 0.45541 0.87969 0.84219 0.0
C350 C 0.47027 0.87364 0.80794 0.0
C351 C 0.51393 0.85733 0.70781 0.0
C352 C 0.49891 0.86281 0.74252 0.0
H353 H 0.40217 0.88242 0.8645 0.0
H354 H 0.42716 0.8677 0.81226 0.0
H355 H 0.46351 0.83989 0.81011 0.0
H356 H 0.55328 0.82144 0.68201 0.0
H357 H 0.52749 0.82926 0.73798 0.0
C358 C 0.67434 0.45109 0.68152 0.0
C359 C 0.67674 0.44959 0.63803 0.0
C360 C 0.66777 0.43362 0.70496 0.0
C361 C 0.63533 0.38625 0.69279 0.0
H362 H 0.64586 0.38283 0.81178 0.0
C363 C 0.56896 0.36862 0.80802 0.0
C364 C 0.57311 0.35924 0.84705 0.0
C365 C 0.58553 0.37269 0.78008 0.0
C366 C 0.64295 0.38304 0.7785 0.0
H367 H 0.67564 0.42811 0.58523 0.0
H368 H 0.66421 0.39723 0.6265 0.0
H369 H 0.6706 0.40181 0.76688 0.0
H370 H 0.59788 0.34594 0.88675 0.0
H371 H 0.62701 0.35283 0.83743 0.0
H372 H 0.60766 0.36753 0.7044 0.0
C373 C 0.66712 0.41214 0.64232 0.0
C374 C 0.65703 0.3942 0.75275 0.0
C375 C 0.67374 0.42977 0.6187 0.0
C376 C 0.59421 0.35338 0.85703 0.0
C377 C 0.61089 0.35734 0.82878 0.0
C378 C 0.62145 0.37478 0.71842 0.0
C379 C 0.6635 0.41406 0.68562 0.0
C380 C 0.65263 0.39708 0.71006 0.0
C381 C 0.60675 0.36731 0.79014 0.0
C382 C 0.62436 0.3742 0.76194 0.0
H383 H 0.67675 0.46606 0.69751 0.0
H384 H 0.66485 0.43595 0.73799 0.0
H385 H 0.63144 0.38797 0.66006 0.0
H386 H 0.5529 0.37335 0.79929 0.0
H387 H 0.58169 0.38087 0.75119 0.0
C388 C 0.03909 0.67277 0.7368 0.0
C389 C 0.04335 0.67609 0.69415 0.0
C390 C 0.05532 0.66657 0.764 0.0
C391 C 0.10689 0.63859 0.7668 0.0
H392 H 0.10708 0.65933 0.88078 0.0
C393 C 0.16232 0.60098 0.89106 0.0
C394 C 0.15178 0.59526 0.92831 0.0
C395 C 0.15251 0.61484 0.8624 0.0
C396 C 0.10725 0.65337 0.84907 0.0
H397 H 0.06819 0.67583 0.64671 0.0
H398 H 0.09677 0.66476 0.69457 0.0
H399 H 0.08363 0.67625 0.82954 0.0
H400 H 0.12326 0.6007 0.96575 0.0
H401 H 0.10623 0.62479 0.916 0.0
H402 H 0.12999 0.61524 0.78669 0.0
C403 C 0.08073 0.66697 0.70675 0.0
C404 C 0.09383 0.66307 0.8197 0.0
C405 C 0.06441 0.67338 0.6794 0.0
C406 C 0.13182 0.60473 0.93737 0.0
C407 C 0.12208 0.61865 0.90886 0.0
C408 C 0.12035 0.62889 0.79622 0.0
C409 C 0.07632 0.66344 0.74937 0.0
C410 C 0.09301 0.65538 0.77854 0.0
C411 C 0.13203 0.62341 0.8705 0.0
C412 C 0.12023 0.63577 0.838 0.0
H413 H 0.02308 0.67475 0.74932 0.0
H414 H 0.05125 0.66364 0.79641 0.0
H415 H 0.10654 0.63217 0.73547 0.0
H416 H 0.17773 0.59402 0.8831 0.0
H417 H 0.16072 0.61842 0.8334 0.0
C418 C 0.96787 0.16469 0.8557 0.0
C419 C 0.95076 0.17936 0.85639 0.0
C420 C 0.9715 0.15199 0.82024 0.0
C421 C 0.94831 0.14015 0.71365 0.0
H422 H 0.95437 0.08194 0.7531 0.0
C423 C 0.91402 0.0688 0.62118 0.0
C424 C 0.90451 0.05298 0.64597 0.0
C425 C 0.92644 0.08464 0.6396 0.0
C426 C 0.95245 0.09811 0.74152 0.0
H427 H 0.92589 0.19437 0.81955 0.0
H428 H 0.93164 0.17235 0.75899 0.0
H429 H 0.96592 0.11079 0.79677 0.0
H430 H 0.89998 0.04165 0.70938 0.0
H431 H 0.9204 0.06951 0.74144 0.0
H432 H 0.93267 0.12741 0.66034 0.0
C433 C 0.94257 0.17033 0.78474 0.0
C434 C 0.95959 0.11479 0.76634 0.0
C435 C 0.9391 0.18299 0.8198 0.0
C436 C 0.9073 0.05349 0.68936 0.0
C437 C 0.91932 0.06939 0.70773 0.0
C438 C 0.94063 0.12346 0.68929 0.0
C439 C 0.95791 0.15369 0.78532 0.0
C440 C 0.95654 0.13617 0.75384 0.0
C441 C 0.92933 0.08508 0.68322 0.0
C442 C 0.94157 0.1023 0.70401 0.0
H443 H 0.97709 0.16162 0.88363 0.0
H444 H 0.98394 0.13984 0.82146 0.0
H445 H 0.94645 0.15632 0.70203 0.0
H446 H 0.91226 0.06866 0.58757 0.0
H447 H 0.93393 0.09636 0.61962 0.0
C448 C 0.73084 1.00127 0.96657 0.0
C449 C 0.71687 0.01863 0.97437 0.0
C450 C 0.74354 1.00058 0.93047 0.0
C451 C 0.74809 0.02301 0.82342 0.0
H452 H 0.80618 1.00101 0.82961 0.0
C453 C 0.80718 0.03006 0.68481 0.0
C454 C 0.82176 0.01322 0.67688 0.0
C455 C 0.79429 0.03012 0.72063 0.0
C456 C 0.7899 1.00692 0.82712 0.0
H457 H 0.70546 0.04898 0.94994 0.0
H458 H 0.72776 0.04785 0.88686 0.0
H459 H 0.78426 1.00297 0.89272 0.0
H460 H 0.83399 0.98307 0.70072 0.0
H461 H 0.81124 0.98302 0.76331 0.0
H462 H 0.7537 0.02696 0.75785 0.0
C463 C 0.72871 0.03463 0.90865 0.0
C464 C 0.7773 1.0081 0.86343 0.0
C465 C 0.71599 0.03535 0.94497 0.0
C466 C 0.82296 0.99629 0.70579 0.0
C467 C 0.81 0.99636 0.74183 0.0
C468 C 0.76068 0.02181 0.78711 0.0
C469 C 0.74268 0.01721 0.9009 0.0
C470 C 0.75621 0.0162 0.86216 0.0
C471 C 0.79548 0.01332 0.74978 0.0
C472 C 0.78181 0.01383 0.7884 0.0
H473 H 0.73196 0.98804 0.98835 0.0
H474 H 0.75381 0.98676 0.92544 0.0
H475 H 0.73184 0.02898 0.82097 0.0
H476 H 0.80581 0.04345 0.66347 0.0
H477 H 0.78364 0.04364 0.72581 0.0
C478 C 0.46471 0.81813 0.67739 0.0
C479 C 0.48327 0.81544 0.6529 0.0
C480 C 0.46049 0.80417 0.71075 0.0
C481 C 0.47598 0.751 0.75382 0.0
H482 H 0.45791 0.77478 0.86008 0.0
C483 C 0.48418 0.70411 0.90843 0.0
C484 C 0.46757 0.70592 0.93799 0.0
C485 C 0.48424 0.71696 0.87259 0.0
C486 C 0.46268 0.76782 0.8305 0.0
H487 H 0.51191 0.79592 0.64444 0.0
H488 H 0.50481 0.77215 0.70249 0.0
H489 H 0.46066 0.79803 0.79894 0.0
H490 H 0.43788 0.72261 0.95274 0.0
H491 H 0.43797 0.74492 0.89018 0.0
H492 H 0.47837 0.72089 0.78538 0.0
C493 C 0.49323 0.78465 0.69558 0.0
C494 C 0.46422 0.78116 0.79542 0.0
C495 C 0.49735 0.79842 0.6623 0.0
C496 C 0.45095 0.72079 0.93066 0.0
C497 C 0.45105 0.7337 0.89491 0.0
C498 C 0.47449 0.7377 0.78882 0.0
C499 C 0.47481 0.78735 0.72037 0.0
C500 C 0.4712 0.77296 0.75679 0.0
C501 C 0.46773 0.73199 0.86547 0.0
C502 C 0.46812 0.74598 0.82774 0.0
H503 H 0.45357 0.8311 0.67108 0.0
H504 H 0.44612 0.80664 0.72917 0.0
H505 H 0.48104 0.74407 0.72437 0.0
H506 H 0.49727 0.69289 0.91311 0.0
H507 H 0.49748 0.71541 0.85084 0.0
C508 C 0.8179 0.50221 0.94064 0.0
C509 C 0.83583 0.48849 0.9426 0.0
C510 C 0.8068 0.5051 0.9033 0.0
C511 C 0.7984 0.48034 0.79976 0.0
H512 H 0.77508 0.53621 0.77137 0.0
C513 C 0.76161 0.4972 0.63912 0.0
C514 C 0.74164 0.50774 0.63865 0.0
C515 C 0.77374 0.49632 0.67548 0.0
C516 C 0.78137 0.52049 0.77903 0.0
H517 H 0.85623 0.4671 0.90662 0.0
H518 H 0.83713 0.47243 0.84115 0.0
H519 H 0.79517 0.53143 0.83588 0.0
H520 H 0.7192 0.52647 0.67571 0.0
H521 H 0.74055 0.52503 0.73945 0.0
H522 H 0.78474 0.46946 0.74277 0.0
C523 C 0.83138 0.48069 0.86874 0.0
C524 C 0.79285 0.5177 0.81606 0.0
C525 C 0.84241 0.47769 0.90625 0.0
C526 C 0.73454 0.51828 0.67498 0.0
C527 C 0.74677 0.51745 0.71148 0.0
C528 C 0.78706 0.48316 0.76267 0.0
C529 C 0.81341 0.49445 0.86677 0.0
C530 C 0.80149 0.49757 0.82697 0.0
C531 C 0.76627 0.506 0.71236 0.0
C532 C 0.77841 0.50326 0.75184 0.0
H533 H 0.81229 0.5107 0.96809 0.0
H534 H 0.79284 0.5155 0.90328 0.0
H535 H 0.80441 0.46452 0.80742 0.0
H536 H 0.76768 0.48905 0.61164 0.0
H537 H 0.78888 0.48775 0.67488 0.0
C538 C 1.00108 0.8595 0.93568 0.0
C539 C 0.98902 0.85606 0.9722 0.0
C540 C 0.99869 0.84637 0.90083 0.0
C541 C 0.98112 0.79306 0.8685 0.0
H542 H 0.9801 0.81883 0.7583 0.0
C543 C 0.97382 0.7423 0.71744 0.0
C544 C 0.98756 0.7481 0.68453 0.0
C545 C 0.97115 0.75564 0.75232 0.0
C546 C 0.98051 0.81132 0.78879 0.0
H547 H 0.96507 0.83592 1.00071 0.0
H548 H 0.96102 0.8129 0.93983 0.0
H549 H 0.98147 0.84151 0.81978 0.0
H550 H 1.00877 0.77276 0.66208 0.0
H551 H 1.00433 0.79565 0.72235 0.0
H552 H 0.98072 0.76282 0.83741 0.0
C553 C 0.97234 0.82578 0.93826 0.0
C554 C 0.98129 0.82436 0.82407 0.0
C555 C 0.97459 0.83905 0.97307 0.0
C556 C 0.99804 0.76775 0.68676 0.0
C557 C 0.99537 0.78102 0.72136 0.0
C558 C 0.98046 0.77998 0.83311 0.0
C559 C 0.98429 0.82936 0.90163 0.0
C560 C 0.98197 0.81541 0.86435 0.0
C561 C 0.98208 0.7751 0.75488 0.0
C562 C 0.98053 0.78893 0.79273 0.0
H563 H 0.01236 0.87241 0.93387 0.0
H564 H 1.00837 0.8494 0.87335 0.0
H565 H 0.98176 0.78564 0.89906 0.0
H566 H 0.96555 0.72725 0.71675 0.0
H567 H 0.96063 0.75066 0.77736 0.0
C568 C 0.22474 0.95135 0.57592 0.0
C569 C 0.22253 0.97158 0.55714 0.0
C570 C 0.23768 0.9484 0.61102 0.0
C571 C 0.26374 0.97731 0.69763 0.0
H572 H 0.29932 0.92626 0.70315 0.0
C573 C 0.32786 0.96323 0.82669 0.0
C574 C 0.33 0.94232 0.84243 0.0
C575 C 0.3147 0.96759 0.79226 0.0
C576 C 0.28932 0.94051 0.70245 0.0
H577 H 0.2321 1.00465 0.56114 0.0
H578 H 0.25472 0.99947 0.62214 0.0
H579 H 0.27637 0.93218 0.64315 0.0
H580 H 0.31947 0.90972 0.83472 0.0
H581 H 0.29653 0.91732 0.77564 0.0
H582 H 0.27673 0.98557 0.75713 0.0
C583 C 0.2463 0.9859 0.60993 0.0
C584 C 0.27612 0.9439 0.66794 0.0
C585 C 0.23339 0.98884 0.57475 0.0
C586 C 0.3184 0.926 0.82334 0.0
C587 C 0.3053 0.93034 0.78914 0.0
C588 C 0.27696 0.9739 0.73228 0.0
C589 C 0.24875 0.96561 0.62839 0.0
C590 C 0.26303 0.96227 0.66512 0.0
C591 C 0.30339 0.95113 0.77277 0.0
C592 C 0.28982 0.95535 0.73531 0.0
H593 H 0.21657 0.9377 0.56336 0.0
H594 H 0.23891 0.93261 0.62474 0.0
H595 H 0.25374 0.99155 0.69674 0.0
H596 H 0.33656 0.97618 0.84061 0.0
H597 H 0.31374 0.98378 0.78037 0.0
C598 C 0.51966 0.18357 0.609 0.0
C599 C 0.51143 0.19007 0.57019 0.0
C600 C 0.51686 0.19633 0.64443 0.0
C601 C 0.50661 0.25196 0.67724 0.0
H602 H 0.49533 0.22569 0.78478 0.0
C603 C 0.50026 0.30193 0.82948 0.0
C604 C 0.51152 0.29341 0.86368 0.0
C605 C 0.49682 0.28949 0.79382 0.0
C606 C 0.49859 0.2333 0.75505 0.0
H607 H 0.49362 0.21517 0.53839 0.0
H608 H 0.48876 0.23749 0.60033 0.0
H609 H 0.4962 0.20377 0.72208 0.0
H610 H 0.52723 0.26488 0.88777 0.0
H611 H 0.52136 0.24343 0.82613 0.0
H612 H 0.50953 0.28142 0.71038 0.0
C613 C 0.4975 0.22251 0.60324 0.0
C614 C 0.4991 0.22071 0.71906 0.0
C615 C 0.50019 0.20966 0.56777 0.0
C616 C 0.51849 0.27199 0.86205 0.0
C617 C 0.51499 0.2596 0.82666 0.0
C618 C 0.50617 0.26457 0.71332 0.0
C619 C 0.50582 0.21601 0.64203 0.0
C620 C 0.50351 0.22979 0.67978 0.0
C621 C 0.50444 0.26824 0.79173 0.0
C622 C 0.50255 0.25534 0.75282 0.0
H623 H 0.52842 0.16862 0.61209 0.0
H624 H 0.52375 0.19095 0.6736 0.0
H625 H 0.51022 0.25946 0.64757 0.0
H626 H 0.49474 0.31839 0.82966 0.0
H627 H 0.48842 0.29661 0.76769 0.0
C628 C 0.30851 0.49957 0.56952 0.0
C629 C 0.32781 0.51051 0.56462 0.0
C630 C 0.29729 0.50029 0.60744 0.0
C631 C 0.29091 0.53353 0.70137 0.0
H632 H 0.26376 0.48373 0.74903 0.0
C633 C 0.25358 0.53617 0.86505 0.0
C634 C 0.23355 0.52674 0.87067 0.0
C635 C 0.2654 0.53268 0.82859 0.0
C636 C 0.27107 0.49781 0.7359 0.0
H637 H 0.35072 0.53037 0.59613 0.0
H638 H 0.33126 0.53152 0.66217 0.0
H639 H 0.28384 0.48049 0.68354 0.0
H640 H 0.21053 0.50563 0.84292 0.0
H641 H 0.23114 0.49971 0.77874 0.0
H642 H 0.27809 0.55093 0.75321 0.0
C643 C 0.32462 0.52262 0.63653 0.0
C644 C 0.28258 0.49596 0.69842 0.0
C645 C 0.33584 0.52186 0.59871 0.0
C646 C 0.22592 0.51312 0.83952 0.0
C647 C 0.23776 0.50968 0.80282 0.0
C648 C 0.27941 0.53539 0.73867 0.0
C649 C 0.30511 0.51203 0.64123 0.0
C650 C 0.29273 0.51379 0.68087 0.0
C651 C 0.25748 0.51975 0.79664 0.0
C652 C 0.26946 0.51754 0.75658 0.0
H653 H 0.30188 0.49065 0.5439 0.0
H654 H 0.28223 0.4921 0.60993 0.0
H655 H 0.29813 0.54768 0.68826 0.0
H656 H 0.26006 0.54656 0.88861 0.0
H657 H 0.28074 0.54029 0.8253 0.0
C658 C 0.92657 0.31763 0.58854 0.0
C659 C 0.93422 0.33862 0.58707 0.0
C660 C 0.92107 0.30813 0.62668 0.0
C661 C 0.93222 0.31186 0.73925 0.0
H662 H 0.88384 0.27436 0.75134 0.0
C663 C 0.9135 0.27411 0.89788 0.0
C664 C 0.90909 0.2522 0.89801 0.0
C665 C 0.91291 0.28588 0.86077 0.0
C666 C 0.89748 0.28468 0.74843 0.0
H667 H 0.94156 0.36626 0.62465 0.0
H668 H 0.93186 0.34974 0.69106 0.0
H669 H 0.8902 0.29254 0.6848 0.0
H670 H 0.89943 0.22566 0.85968 0.0
H671 H 0.89869 0.24611 0.79457 0.0
H672 H 0.93988 0.30376 0.80223 0.0
C673 C 0.93037 0.34051 0.66274 0.0
C674 C 0.90114 0.2951 0.71027 0.0
C675 C 0.93583 0.35003 0.6246 0.0
C676 C 0.90268 0.24258 0.86065 0.0
C677 C 0.90232 0.25433 0.82328 0.0
C678 C 0.92861 0.30144 0.77723 0.0
C679 C 0.92312 0.31936 0.66433 0.0
C680 C 0.91861 0.30878 0.70519 0.0
C681 C 0.9082 0.27596 0.82267 0.0
C682 C 0.91122 0.28768 0.78241 0.0
H683 H 0.92512 0.30836 0.56026 0.0
H684 H 0.91578 0.29175 0.62673 0.0
H685 H 0.94608 0.3219 0.73627 0.0
H686 H 0.91839 0.28198 0.92626 0.0
H687 H 0.91695 0.30262 0.86175 0.0
C688 C 0.22061 0.93593 0.31723 0.0
C689 C 0.23087 0.94115 0.35466 0.0
C690 C 0.23245 0.93279 0.2803 0.0
C691 C 0.28528 0.94616 0.23331 0.0
H692 H 0.26879 0.90641 0.14734 0.0
C693 C 0.33713 0.93202 0.08514 0.0
C694 C 0.32625 0.93143 0.04691 0.0
C695 C 0.32586 0.93154 0.12312 0.0
C696 C 0.27354 0.91769 0.17095 0.0
H697 H 0.26172 0.94602 0.38302 0.0
H698 H 0.28231 0.93989 0.31945 0.0
H699 H 0.24849 0.90815 0.21264 0.0
H700 H 0.29491 0.92932 0.01891 0.0
H701 H 0.27537 0.92842 0.08493 0.0
H702 H 0.31032 0.95567 0.19168 0.0
C703 C 0.26509 0.93888 0.31801 0.0
C704 C 0.26185 0.91873 0.20844 0.0
C705 C 0.25327 0.94221 0.35468 0.0
C706 C 0.30386 0.92982 0.04769 0.0
C707 C 0.29262 0.92917 0.08563 0.0
C708 C 0.29702 0.94501 0.19602 0.0
C709 C 0.25486 0.93464 0.28 0.0
C710 C 0.26751 0.93303 0.24018 0.0
C711 C 0.30343 0.93028 0.12387 0.0
C712 C 0.29128 0.93084 0.16423 0.0
H713 H 0.20336 0.93517 0.31603 0.0
H714 H 0.22393 0.92973 0.25171 0.0
H715 H 0.28992 0.95774 0.25642 0.0
H716 H 0.35435 0.93326 0.08577 0.0
H717 H 0.33473 0.93217 0.15197 0.0
C718 C 0.5661 0.19114 0.30985 0.0
C719 C 0.55019 0.19524 0.34007 0.0
C720 C 0.56863 0.20489 0.27553 0.0
C721 C 0.55378 0.25953 0.23727 0.0
H722 H 0.56307 0.23496 0.12764 0.0
C723 C 0.53731 0.3063 0.08465 0.0
C724 C 0.55214 0.30403 0.05176 0.0
C725 C 0.53898 0.29357 0.12053 0.0
C726 C 0.56072 0.2421 0.1581 0.0
H727 H 0.52468 0.21726 0.35803 0.0
H728 H 0.5289 0.24083 0.29861 0.0
H729 H 0.56311 0.21181 0.18912 0.0
H730 H 0.58043 0.28658 0.03101 0.0
H731 H 0.58323 0.26433 0.0935 0.0
H732 H 0.55083 0.28973 0.20609 0.0
C733 C 0.53972 0.22727 0.30147 0.0
C734 C 0.56081 0.22883 0.19341 0.0
C735 C 0.53721 0.2136 0.33559 0.0
C736 C 0.56873 0.28879 0.05573 0.0
C737 C 0.57028 0.27592 0.09145 0.0
C738 C 0.55353 0.27274 0.20199 0.0
C739 C 0.55534 0.22307 0.27076 0.0
C740 C 0.55705 0.23733 0.23344 0.0
C741 C 0.5554 0.27813 0.12425 0.0
C742 C 0.55675 0.26417 0.16193 0.0
H743 H 0.57633 0.17712 0.31225 0.0
H744 H 0.58096 0.20124 0.2527 0.0
H745 H 0.55129 0.26674 0.26761 0.0
H746 H 0.52433 0.31786 0.08264 0.0
H747 H 0.52713 0.29552 0.14505 0.0
C748 C 0.32523 0.50385 0.34745 0.0
C749 C 0.34733 0.50186 0.34028 0.0
C750 C 0.31097 0.50449 0.31399 0.0
C751 C 0.31033 0.51519 0.19919 0.0
H752 H 0.25186 0.49618 0.20863 0.0
C753 C 0.25371 0.50864 0.05839 0.0
C754 C 0.23356 0.5186 0.06258 0.0
C755 C 0.2672 0.50641 0.09272 0.0
C756 C 0.26812 0.50167 0.20574 0.0
H757 H 0.37168 0.49759 0.29263 0.0
H758 H 0.34686 0.49741 0.2345 0.0
H759 H 0.27624 0.49073 0.26703 0.0
H760 H 0.21164 0.53381 0.10627 0.0
H761 H 0.23515 0.52938 0.16684 0.0
H762 H 0.30225 0.52544 0.1373 0.0
C763 C 0.34047 0.49946 0.26574 0.0
C764 C 0.28213 0.49863 0.23923 0.0
C765 C 0.35475 0.49927 0.29914 0.0
C766 C 0.22711 0.52615 0.10205 0.0
C767 C 0.24048 0.52352 0.13669 0.0
C768 C 0.29644 0.51786 0.16554 0.0
C769 C 0.31842 0.50276 0.27251 0.0
C770 C 0.30347 0.50537 0.2365 0.0
C771 C 0.26071 0.51372 0.13225 0.0
C772 C 0.2752 0.51118 0.16848 0.0
H773 H 0.319 0.50611 0.37877 0.0
H774 H 0.29422 0.50729 0.32073 0.0
H775 H 0.32638 0.52117 0.196 0.0
H776 H 0.25919 0.50269 0.0284 0.0
H777 H 0.28265 0.49869 0.08848 0.0
C778 C 0.94334 0.2419 0.10958 0.0
C779 C 0.92527 0.24311 0.08388 0.0
C780 C 0.94509 0.25543 0.1442 0.0
C781 C 0.92519 0.30652 0.18799 0.0
H782 H 0.93866 0.28119 0.29533 0.0
C783 C 0.91535 0.35395 0.34215 0.0
C784 C 0.93085 0.3506 0.37307 0.0
C785 C 0.91498 0.34098 0.30658 0.0
C786 C 0.93519 0.28866 0.26557 0.0
H787 H 0.89519 0.25991 0.0737 0.0
H788 H 0.89841 0.28352 0.13337 0.0
H789 H 0.93898 0.25898 0.23306 0.0
H790 H 0.95758 0.3303 0.3915 0.0
H791 H 0.95718 0.30814 0.32974 0.0
H792 H 0.9217 0.33628 0.2202 0.0
C793 C 0.91118 0.27212 0.12701 0.0
C794 C 0.93537 0.27586 0.22985 0.0
C795 C 0.90929 0.25845 0.09295 0.0
C796 C 0.94542 0.33346 0.36832 0.0
C797 C 0.94513 0.32061 0.33281 0.0
C798 C 0.92526 0.31939 0.22364 0.0
C799 C 0.92898 0.27067 0.15328 0.0
C800 C 0.9302 0.2846 0.19072 0.0
C801 C 0.93002 0.32424 0.30124 0.0
C802 C 0.93009 0.31061 0.26303 0.0
H803 H 0.95592 0.23027 0.1034 0.0
H804 H 0.95905 0.25403 0.16382 0.0
H805 H 0.92133 0.31375 0.15816 0.0
H806 H 0.90378 0.36689 0.34492 0.0
H807 H 0.90286 0.34407 0.28331 0.0
C808 C 0.74207 0.04043 0.17528 0.0
C809 C 0.72432 0.02722 0.17025 0.0
C810 C 0.75561 0.03794 0.20949 0.0
C811 C 0.75801 0.01587 0.31697 0.0
H812 H 0.81861 0.02565 0.30286 0.0
C813 C 0.81913 1.00578 0.45233 0.0
C814 C 0.83483 0.02153 0.45545 0.0
C815 C 0.80561 1.00511 0.41762 0.0
C816 C 0.8017 0.02304 0.30746 0.0
H817 H 0.70709 1.00076 0.19738 0.0
H818 H 0.73099 0.99618 0.25713 0.0
H819 H 0.79545 0.02617 0.24215 0.0
H820 H 0.8485 0.04897 0.42428 0.0
H821 H 0.82503 0.04781 0.36402 0.0
H822 H 0.76439 0.01276 0.38245 0.0
C823 C 0.73425 1.00869 0.23466 0.0
C824 C 0.78838 0.02334 0.27258 0.0
C825 C 0.72062 0.0112 0.20023 0.0
C826 C 0.83665 0.03658 0.42298 0.0
C827 C 0.82325 0.03583 0.38822 0.0
C828 C 0.7714 0.01548 0.35193 0.0
C829 C 0.75191 0.0221 0.23981 0.0
C830 C 0.76627 0.02009 0.27683 0.0
C831 C 0.80757 0.02008 0.38499 0.0
C832 C 0.79338 0.01937 0.34769 0.0
H833 H 0.74542 0.05302 0.15301 0.0
H834 H 0.76875 0.04884 0.2126 0.0
H835 H 0.74107 0.01353 0.32163 0.0
H836 H 0.81725 0.99392 0.47672 0.0
H837 H 0.79384 0.99266 0.41606 0.0
C838 C 0.52192 0.79882 0.42092 0.0
C839 C 0.51675 0.82072 0.41807 0.0
C840 C 0.5217 0.78582 0.38542 0.0
C841 C 0.4991 0.78338 0.27894 0.0
H842 H 0.54224 0.73927 0.26095 0.0
C843 C 0.50346 0.73749 0.12429 0.0
C844 C 0.50649 0.71523 0.1263 0.0
C845 C 0.50652 0.75019 0.15945 0.0
C846 C 0.52996 0.75138 0.26569 0.0
H847 H 0.50758 0.8461 0.37529 0.0
H848 H 0.50738 0.82355 0.31353 0.0
H849 H 0.54376 0.76168 0.32317 0.0
H850 H 0.51604 0.68897 0.16664 0.0
H851 H 0.52129 0.7112 0.22833 0.0
H852 H 0.48521 0.77312 0.2218 0.0
C853 C 0.51131 0.81631 0.34331 0.0
C854 C 0.53082 0.76424 0.3014 0.0
C855 C 0.51153 0.8293 0.37877 0.0
C856 C 0.51364 0.70608 0.16396 0.0
C857 C 0.51666 0.71884 0.19933 0.0
C858 C 0.49825 0.77058 0.24336 0.0
C859 C 0.51628 0.79437 0.34615 0.0
C860 C 0.51544 0.78048 0.30839 0.0
C861 C 0.51261 0.74101 0.19776 0.0
C862 C 0.51372 0.75447 0.23606 0.0
H863 H 0.52601 0.79165 0.45068 0.0
H864 H 0.52539 0.76897 0.38891 0.0
H865 H 0.48671 0.79538 0.28365 0.0
H866 H 0.49815 0.74513 0.09573 0.0
H867 H 0.50377 0.76724 0.15673 0.0
C868 C 0.72057 0.47668 0.39467 0.0
C869 C 0.72139 0.49125 0.42786 0.0
C870 C 0.73449 0.4785 0.36052 0.0
C871 C 0.78666 0.50039 0.33076 0.0
H872 H 0.76697 0.4921 0.21761 0.0
C873 C 0.84279 0.51088 0.18819 0.0
C874 C 0.84113 0.4957 0.15621 0.0
C875 C 0.82752 0.51188 0.22031 0.0
C876 C 0.77279 0.49426 0.24904 0.0
H877 H 0.73737 0.51933 0.4509 0.0
H878 H 0.7616 0.52246 0.39144 0.0
H879 H 0.74156 0.49055 0.27556 0.0
H880 H 0.82196 0.46982 0.13275 0.0
H881 H 0.79572 0.47133 0.18882 0.0
H882 H 0.81794 0.50368 0.30451 0.0
C883 C 0.7503 0.50953 0.39195 0.0
C884 C 0.7582 0.49338 0.28223 0.0
C885 C 0.73631 0.5078 0.42593 0.0
C886 C 0.82372 0.48179 0.15676 0.0
C887 C 0.80854 0.48274 0.18886 0.0
C888 C 0.80127 0.50116 0.2976 0.0
C889 C 0.74964 0.49485 0.35896 0.0
C890 C 0.76499 0.49633 0.3235 0.0
C891 C 0.8103 0.49769 0.22122 0.0
C892 C 0.79455 0.49796 0.25632 0.0
H893 H 0.70928 0.46375 0.39516 0.0
H894 H 0.73372 0.46682 0.33577 0.0
H895 H 0.79245 0.50245 0.36225 0.0
H896 H 0.85595 0.52188 0.18863 0.0
H897 H 0.82922 0.5238 0.2444 0.0
C898 C 0.97783 0.84551 0.22701 0.0
C899 C 0.97321 0.83683 0.18773 0.0
C900 C 0.9801 0.83225 0.26214 0.0
C901 C 0.99085 0.77532 0.29054 0.0
H902 H 0.9725 0.79323 0.40095 0.0
C903 C 0.98622 0.71701 0.43062 0.0
C904 C 0.9932 0.7242 0.46969 0.0
C905 C 0.98461 0.73105 0.39666 0.0
C906 C 0.97793 0.78809 0.37038 0.0
H907 H 0.96647 0.80747 0.15503 0.0
H908 H 0.96974 0.78455 0.21614 0.0
H909 H 0.9671 0.81714 0.34145 0.0
H910 H 1.00415 0.75186 0.50346 0.0
H911 H 1.00124 0.77641 0.44412 0.0
H912 H 1.00135 0.74614 0.3194 0.0
C913 C 0.97228 0.80149 0.21981 0.0
C914 C 0.97485 0.80181 0.3362 0.0
C915 C 0.97019 0.8147 0.18472 0.0
C916 C 0.99876 0.74577 0.47381 0.0
C917 C 0.99694 0.75988 0.43989 0.0
C918 C 0.99378 0.76157 0.32461 0.0
C919 C 0.97766 0.80999 0.25891 0.0
C920 C 0.98115 0.79558 0.2957 0.0
C921 C 0.98975 0.75271 0.40093 0.0
C922 C 0.98727 0.76772 0.36494 0.0
H923 H 0.98042 0.86247 0.23038 0.0
H924 H 0.98443 0.83941 0.29154 0.0
H925 H 0.99642 0.77009 0.26013 0.0
H926 H 0.98179 0.70052 0.42628 0.0
H927 H 0.97882 0.72502 0.36725 0.0
C928 C 0.44616 0.97384 0.97164 0.0
C929 C 0.43155 0.97084 1.00462 0.0
C930 C 0.46763 0.97828 0.97976 0.0
C931 C 0.50785 0.97226 0.06394 0.0
H932 H 0.54148 0.0104 0.99534 0.0
C933 C 0.59142 1.00045 0.11278 0.0
C934 C 0.60729 1.00273 0.08188 0.0
C935 C 0.57043 0.99564 0.10202 0.0
C936 C 0.53239 0.99947 0.01449 0.0
H937 H 0.4279 0.97121 0.07197 0.0
H938 H 0.46501 0.97943 0.08606 0.0
H939 H 0.50385 1.00516 0.97931 0.0
H940 H 0.6135 1.00122 0.01527 0.0
H941 H 0.57681 0.99266 0.99647 0.0
H942 H 0.53627 0.96668 0.0993 0.0
C943 C 0.4601 0.9778 0.05389 0.0
C944 C 0.51077 0.99649 1.00533 0.0
C945 C 0.43872 0.97329 0.04579 0.0
C946 C 0.60171 0.99953 0.03991 0.0
C947 C 0.58063 0.99482 0.02909 0.0
C948 C 0.5294 0.97527 0.07313 0.0
C949 C 0.47499 0.97988 0.02107 0.0
C950 C 0.49814 0.98297 0.03016 0.0
C951 C 0.56465 0.99304 0.06001 0.0
C952 C 0.54195 0.98904 0.04875 0.0
H953 H 0.44125 0.97192 0.93954 0.0
H954 H 0.4786 0.97965 0.95366 0.0
H955 H 0.49884 0.96131 0.0832 0.0
H956 H 0.59507 1.00287 0.14541 0.0
H957 H 0.55856 0.99462 0.12666 0.0
C958 C 0.53148 0.426 0.01509 0.0
C959 C 0.52091 0.41347 0.98553 0.0
C960 C 0.52731 0.44796 0.01812 0.0
C961 C 0.50691 0.49409 0.95728 0.0
H962 H 0.5035 0.52175 0.06526 0.0
C963 C 0.48279 0.58328 0.97406 0.0
C964 C 0.49262 0.59547 1.00512 0.0
C965 C 0.48617 0.56117 0.97184 0.0
C966 C 0.5047 0.51438 0.03479 0.0
H967 H 0.49739 0.41435 0.93623 0.0
H968 H 0.49007 0.45275 0.94152 0.0
H969 H 0.50877 0.48317 0.06145 0.0
H970 H 0.51399 0.5938 0.05799 0.0
H971 H 0.52025 0.55528 0.05366 0.0
H972 H 0.50313 0.52527 0.93054 0.0
C973 C 0.50174 0.44554 0.96222 0.0
C974 C 0.50765 0.49218 0.03262 0.0
C975 C 0.50581 0.42348 0.95939 0.0
C976 C 0.50611 0.58494 0.03371 0.0
C977 C 0.50957 0.56278 0.03138 0.0
C978 C 0.50407 0.5163 0.95944 0.0
C979 C 0.51253 0.4581 0.9915 0.0
C980 C 0.50881 0.48172 0.99384 0.0
C981 C 0.49957 0.55053 1.00049 0.0
C982 C 0.5029 0.52681 0.99823 0.0
H983 H 0.54323 0.4189 0.03575 0.0
H984 H 0.53611 0.4571 0.04071 0.0
H985 H 0.50809 0.48667 0.92686 0.0
H986 H 0.47218 0.59076 0.95162 0.0
H987 H 0.47789 0.55236 0.94803 0.0
C988 C 0.95725 0.49414 0.10114 0.0
C989 C 0.94284 0.49577 0.06779 0.0
C990 C 0.97892 0.49828 0.09503 0.0
C991 C 0.01999 0.49687 0.01318 0.0
H992 H 0.05382 0.52781 0.09304 0.0
C993 C 0.10916 0.5154 0.98403 0.0
C994 C 0.1229 0.51538 0.01853 0.0
C995 C 0.08714 0.51312 0.98962 0.0
C996 C 0.04469 0.51884 0.0707 0.0
H997 H 0.93979 0.50382 1.00215 0.0
H998 H 0.97769 0.511 0.9915 0.0
H999 H 0.01538 0.52503 0.10371 0.0
H1000 H 0.12435 0.51213 0.08586 0.0
H1001 H 0.0861 0.5075 0.09555 0.0
H1002 H 0.04925 0.49024 0.98061 0.0
C1003 C 0.97219 0.50637 0.02232 0.0
C1004 C 0.02263 0.51737 0.07674 0.0
C1005 C 0.95046 0.50243 0.02853 0.0
C1006 C 0.1142 0.51234 0.05862 0.0
C1007 C 0.09221 0.50988 0.0642 0.0
C1008 C 0.04208 0.49819 1.00731 0.0
C1009 C 0.98671 0.50397 0.05534 0.0
C1010 C 0.01003 0.50634 0.04809 0.0
C1011 C 0.07832 0.51059 0.02985 0.0
C1012 C 0.05475 0.50914 0.03605 0.0
H1013 H 0.95191 0.48906 0.13179 0.0
H1014 H 0.98971 0.49618 0.12104 0.0
H1015 H 0.01076 0.48796 0.9909 0.0
H1016 H 0.1153 0.51787 0.95272 0.0
H1017 H 0.07698 0.514 0.96245 0.0
C1018 C 0.91579 0.12192 0.02368 0.0
C1019 C 0.9327 0.13093 1.00086 0.0
C1020 C 0.91505 0.09968 0.03002 0.0
C1021 C 0.93442 0.04882 0.98544 0.0
H1022 H 0.9338 0.0258 0.09794 0.0
C1023 C 0.96985 0.96629 0.0216 0.0
C1024 C 0.96078 0.95326 0.05263 0.0
C1025 C 0.96234 0.98711 0.01502 0.0
C1026 C 0.93355 0.03187 0.06626 0.0
H1027 H 0.96162 0.12366 0.96572 0.0
H1028 H 0.95999 0.08528 0.9758 0.0
H1029 H 0.92729 0.06406 0.08657 0.0
H1030 H 0.93641 0.952 0.10088 0.0
H1031 H 0.92308 0.98857 0.08911 0.0
H1032 H 0.94095 0.01697 0.96485 0.0
C1033 C 0.94744 0.09523 0.9892 0.0
C1034 C 0.92983 0.05381 0.05979 0.0
C1035 C 0.94842 0.11728 0.98365 0.0
C1036 C 0.94373 0.96159 0.07667 0.0
C1037 C 0.93618 0.98259 0.07008 0.0
C1038 C 0.93793 0.02698 0.99181 0.0
C1039 C 0.93089 0.08613 0.01269 0.0
C1040 C 0.93093 0.0626 0.01939 0.0
C1041 C 0.94545 0.99564 0.03913 0.0
C1042 C 0.93832 0.01828 0.03239 0.0
H1043 H 0.90351 0.13206 0.03743 0.0
H1044 H 0.90209 0.09307 0.04826 0.0
H1045 H 0.93505 0.05509 0.95389 0.0
H1046 H 0.98305 0.96054 1.00252 0.0
H1047 H 0.97023 0.99671 0.99153 0.0
C1048 C 0.09639 0.98109 0.44821 0.0
C1049 C 0.11057 0.96566 0.46461 0.0
C1050 C 0.07438 0.97945 0.45435 0.0
C1051 C 0.0341 0.95995 0.52639 0.0
H1052 H 0.99575 0.97058 0.43392 0.0
C1053 C 0.94162 0.96968 0.54942 0.0
C1054 C 0.93207 0.98632 0.52617 0.0
C1055 C 0.96286 0.96315 0.54125 0.0
C1056 C 1.00617 0.96774 0.46026 0.0
H1057 H 0.11269 0.93627 0.5002 0.0
H1058 H 0.07387 0.93369 0.51209 0.0
H1059 H 0.03393 0.96658 0.42082 0.0
H1060 H 0.93743 1.00885 0.47566 0.0
H1061 H 0.97393 0.99788 0.46207 0.0
H1062 H 1.00643 0.96219 0.56613 0.0
C1063 C 0.07998 0.94693 0.49402 0.0
C1064 C 0.02808 0.96531 0.45263 0.0
C1065 C 0.10214 0.94833 0.48702 0.0
C1066 C 0.94412 0.99593 0.49422 0.0
C1067 C 0.96515 0.98948 0.48611 0.0
C1068 C 0.01211 0.96263 0.53414 0.0
C1069 C 0.06588 0.96254 0.47775 0.0
C1070 C 0.04239 0.96191 0.48565 0.0
C1071 C 0.97496 0.97306 0.50951 0.0
C1072 C 0.9979 0.96718 0.50125 0.0
H1073 H 0.10235 0.99459 0.43065 0.0
H1074 H 0.06401 0.99182 0.44169 0.0
H1075 H 0.04475 0.95745 0.55251 0.0
H1076 H 0.93284 0.96196 0.57435 0.0
H1077 H 0.96978 0.95037 0.55978 0.0
C1078 C 0.5082 0.92481 0.53538 0.0
C1079 C 0.52542 0.9135 0.51721 0.0
C1080 C 0.50668 0.94711 0.53164 0.0
C1081 C 0.53963 0.99478 0.50808 0.0
H1082 H 0.48482 0.02271 0.49058 0.0
C1083 C 0.53081 0.08495 0.4658 0.0
C1084 C 0.51361 0.09625 0.4841 0.0
C1085 C 0.53273 0.06273 0.47074 0.0
C1086 C 0.50025 0.0152 0.49593 0.0
H1087 H 0.55433 0.91684 0.48016 0.0
H1088 H 0.5515 0.95539 0.47315 0.0
H1089 H 0.48678 0.98398 0.49741 0.0
H1090 H 0.48532 0.09304 0.523 0.0
H1091 H 0.48882 0.05462 0.5319 0.0
H1092 H 0.55308 0.02604 0.50638 0.0
C1093 C 0.53937 0.94719 0.49101 0.0
C1094 C 0.50136 0.99295 0.49989 0.0
C1095 C 0.5409 0.92499 0.49481 0.0
C1096 C 0.49871 0.08488 0.50819 0.0
C1097 C 0.50062 0.06276 0.51308 0.0
C1098 C 0.53852 0.01704 0.50404 0.0
C1099 C 0.52234 0.95862 0.50961 0.0
C1100 C 0.52107 0.9824 0.50599 0.0
C1101 C 0.51748 0.05132 0.49401 0.0
C1102 C 0.5188 0.02757 0.49797 0.0
H1103 H 0.49606 0.91648 0.55301 0.0
H1104 H 0.49345 0.95537 0.54673 0.0
H1105 H 0.55506 0.98728 0.51343 0.0
H1106 H 0.5425 0.09319 0.44687 0.0
H1107 H 0.54585 0.05442 0.45536 0.0
C1108 C 0.61113 0.51612 0.54103 0.0
C1109 C 0.62491 0.51987 0.50701 0.0
C1110 C 0.58893 0.51726 0.536 0.0
C1111 C 0.54649 0.53927 0.46831 0.0
H1112 H 0.51282 0.49233 0.51042 0.0
C1113 C 0.45857 0.53009 0.42092 0.0
C1114 C 0.44394 0.5226 0.45082 0.0
C1115 C 0.4805 0.52959 0.42879 0.0
C1116 C 0.52187 0.50575 0.49896 0.0
H1117 H 0.62613 0.52846 0.4414 0.0
H1118 H 0.5875 0.5308 0.43289 0.0
H1119 H 0.55112 0.49292 0.52363 0.0
H1120 H 0.44097 0.50842 0.51236 0.0
H1121 H 0.4792 0.50799 0.52661 0.0
H1122 H 0.51738 0.55235 0.44415 0.0
C1123 C 0.59383 0.52689 0.4634 0.0
C1124 C 0.54387 0.50605 0.50652 0.0
C1125 C 0.61599 0.52549 0.46826 0.0
C1126 C 0.45181 0.51421 0.48855 0.0
C1127 C 0.47379 0.51391 0.49664 0.0
C1128 C 0.52449 0.5391 0.46112 0.0
C1129 C 0.58003 0.52247 0.49702 0.0
C1130 C 0.55647 0.52272 0.49093 0.0
C1131 C 0.48845 0.5218 0.46701 0.0
C1132 C 0.51186 0.52221 0.47592 0.0
H1133 H 0.61745 0.51167 0.57126 0.0
H1134 H 0.57871 0.51397 0.56261 0.0
H1135 H 0.55571 0.55249 0.45637 0.0
H1136 H 0.45308 0.53649 0.39136 0.0
H1137 H 0.49122 0.53531 0.40472 0.0
C1138 C 1.00708 0.61373 0.54765 0.0
C1139 C 0.99123 0.62862 0.55979 0.0
C1140 C 1.00187 0.59275 0.53792 0.0
C1141 C 0.96041 0.55166 0.55205 0.0
H1142 H 0.99361 0.52332 0.46533 0.0
C1143 C 0.95002 0.46205 0.503 0.0
C1144 C 0.96936 0.45034 0.50328 0.0
C1145 C 0.95 0.48442 0.50668 0.0
C1146 C 0.98416 0.53101 0.48958 0.0
H1147 H 0.95732 0.63293 0.57135 0.0
H1148 H 0.94809 0.5961 0.55371 0.0
H1149 H 0.99816 0.56131 0.47741 0.0
H1150 H 1.00379 0.45301 0.50661 0.0
H1151 H 1.00373 0.4917 0.51199 0.0
H1152 H 0.9465 0.52103 0.564 0.0
C1153 C 0.96466 0.60074 0.55216 0.0
C1154 C 0.98684 0.55279 0.49673 0.0
C1155 C 0.96992 0.62187 0.56211 0.0
C1156 C 0.9886 0.46148 0.5064 0.0
C1157 C 0.98859 0.4837 0.50927 0.0
C1158 C 0.95757 0.5298 0.54456 0.0
C1159 C 0.9806 0.58592 0.53966 0.0
C1160 C 0.97551 0.56333 0.52892 0.0
C1161 C 0.96933 0.49547 0.50972 0.0
C1162 C 0.96987 0.51913 0.514 0.0
H1163 H 0.02369 0.6182 0.54585 0.0
H1164 H 0.0147 0.58178 0.52955 0.0
H1165 H 0.95145 0.55915 0.57718 0.0
H1166 H 0.93494 0.45391 0.5008 0.0
H1167 H 0.93492 0.4931 0.50685 0.0
loop_
_geom_bond_atom_site_label_1
_geom_bond_atom_site_label_2
_geom_bond_distance
_geom_bond_site_symmetry_2
_ccdc_geom_bond_type
Mg0 O7 2.141 . S
Mg0 O8 2.048 . S
Mg0 O9 2.048 . S
Mg0 O12 2.141 . S
C1 O2 1.327 . S
C1 O8 1.186 1_565 S
O2 C1 1.327 . S
C3 O4 1.245 . S
C3 O12 1.289 1_565 S
O4 C3 1.245 . S
C5 O6 1.245 . S
C5 O7 1.289 1_565 S
O6 C5 1.245 . S
O7 Mg0 2.141 . S
O7 C5 1.289 1_545 S
O8 Mg0 2.048 . S
O8 C1 1.186 1_545 S
O9 Mg0 2.048 . S
O9 C10 1.195 . S
C10 O9 1.195 . S
C10 O11 1.313 1_545 S
O11 C10 1.313 1_565 S
O12 Mg0 2.141 . S
O12 C3 1.289 1_545 S
Mg13 O20 2.141 . S
Mg13 O21 2.048 . S
Mg13 O22 2.048 . S
Mg13 O25 2.141 . S
C14 O15 1.313 . S
C14 O21 1.195 . S
O15 C14 1.313 . S
C16 O17 1.245 . S
C16 O25 1.289 . S
O17 C16 1.245 . S
C18 O19 1.245 . S
C18 O20 1.289 . S
O19 C18 1.245 . S
O20 Mg13 2.141 . S
O20 C18 1.289 . S
O21 Mg13 2.048 . S
O21 C14 1.195 . S
O22 Mg13 2.048 . S
O22 C23 1.195 . S
C23 O22 1.195 . S
C23 O24 1.313 . S
O24 C23 1.313 . S
O25 Mg13 2.141 . S
O25 C16 1.289 . S
Mg26 O33 2.141 . S
Mg26 O34 2.048 . S
Mg26 O35 2.048 . S
Mg26 O38 2.141 . S
C27 O28 1.313 . S
C27 O34 1.195 . S
O28 C27 1.313 . S
C29 O30 1.245 . S
C29 O38 1.289 . S
O30 C29 1.245 . S
C31 O32 1.245 . S
C31 O33 1.289 . S
O32 C31 1.245 . S
O33 Mg26 2.141 . S
O33 C31 1.289 . S
O34 Mg26 2.048 . S
O34 C27 1.195 . S
O35 Mg26 2.048 . S
O35 C36 1.195 . S
C36 O35 1.195 . S
C36 O37 1.313 . S
O37 C36 1.313 . S
O38 Mg26 2.141 . S
O38 C29 1.289 . S
Mg39 O46 2.141 . S
Mg39 O47 2.065 . S
Mg39 O48 2.048 . S
Mg39 O51 2.141 . S
C40 O41 1.313 . S
C40 O47 1.148 1_455 S
O41 C40 1.313 . S
C42 O43 1.245 1_655 S
C42 O51 1.289 . S
O43 C42 1.245 1_455 S
C44 O45 1.245 . S
C44 O46 1.289 1_455 S
O45 C44 1.245 . S
O46 Mg39 2.141 . S
O46 C44 1.289 1_655 S
O47 Mg39 2.065 . S
O47 C40 1.148 1_655 S
O48 Mg39 2.048 . S
O48 C49 1.195 1_655 S
C49 O48 1.195 1_455 S
C49 O50 1.313 . S
O50 C49 1.313 . S
O51 Mg39 2.141 . S
O51 C42 1.289 . S
Mg52 O59 2.141 . S
Mg52 O60 2.048 . S
Mg52 O61 2.048 . S
Mg52 O64 2.141 . S
C53 O54 1.336 . S
C53 O60 1.179 1_545 S
O54 C53 1.336 . S
C55 O56 1.245 . S
C55 O64 1.289 1_545 S
O56 C55 1.245 . S
C57 O58 1.245 . S
C57 O59 1.289 1_545 S
O58 C57 1.245 . S
O59 Mg52 2.141 . S
O59 C57 1.289 1_565 S
O60 Mg52 2.048 . S
O60 C53 1.179 1_565 S
O61 Mg52 2.048 . S
O61 C62 1.195 . S
C62 O61 1.195 . S
C62 O63 1.313 1_565 S
O63 C62 1.313 1_545 S
O64 Mg52 2.141 . S
O64 C55 1.289 1_565 S
Mg65 O72 2.141 . S
Mg65 O73 2.048 . S
Mg65 O74 2.048 . S
Mg65 O77 2.141 . S
C66 O67 1.313 . S
C66 O73 1.195 . S
O67 C66 1.313 . S
C68 O69 1.245 . S
C68 O77 1.289 . S
O69 C68 1.245 . S
C70 O71 1.245 . S
C70 O72 1.289 . S
O71 C70 1.245 . S
O72 Mg65 2.141 . S
O72 C70 1.289 . S
O73 Mg65 2.048 . S
O73 C66 1.195 . S
O74 Mg65 2.048 . S
O74 C75 1.195 . S
C75 O74 1.195 . S
C75 O76 1.313 . S
O76 C75 1.313 . S
O77 Mg65 2.141 . S
O77 C68 1.289 . S
Mg78 O85 2.141 . S
Mg78 O86 2.048 . S
Mg78 O87 2.048 . S
Mg78 O90 2.141 . S
C79 O80 1.313 . S
C79 O86 1.195 . S
O80 C79 1.313 . S
C81 O82 1.245 . S
C81 O90 1.289 . S
O82 C81 1.245 . S
C83 O84 1.245 . S
C83 O85 1.289 . S
O84 C83 1.245 . S
O85 Mg78 2.141 . S
O85 C83 1.289 . S
O86 Mg78 2.048 . S
O86 C79 1.195 . S
O87 Mg78 2.048 . S
O87 C88 1.195 . S
C88 O87 1.195 . S
C88 O89 1.313 . S
O89 C88 1.313 . S
O90 Mg78 2.141 . S
O90 C81 1.289 . S
Mg91 O98 2.141 . S
Mg91 O99 2.048 . S
Mg91 O100 2.048 . S
Mg91 O103 2.141 . S
C92 O93 1.313 . S
C92 O99 1.195 1_655 S
O93 C92 1.313 . S
C94 O95 1.245 1_455 S
C94 O103 1.289 . S
O95 C94 1.245 1_655 S
C96 O97 1.245 . S
C96 O98 1.289 1_655 S
O97 C96 1.245 . S
O98 Mg91 2.141 . S
O98 C96 1.289 1_455 S
O99 Mg91 2.048 . S
O99 C92 1.195 1_455 S
O100 Mg91 2.048 . S
O100 C101 1.195 1_455 S
C101 O100 1.195 1_655 S
C101 O102 1.313 . S
O102 C101 1.313 . S
O103 Mg91 2.141 . S
O103 C94 1.289 . S
Mg104 O111 2.141 . S
Mg104 O112 2.048 . S
Mg104 O113 2.048 . S
Mg104 O116 2.141 . S
C105 O106 1.313 . S
C105 O112 1.195 1_565 S
O106 C105 1.313 . S
C107 O108 1.245 . S
C107 O116 1.289 1_565 S
O108 C107 1.245 . S
C109 O110 1.245 1_545 S
C109 O111 1.289 . S
O110 C109 1.245 1_565 S
O111 Mg104 2.141 . S
O111 C109 1.289 . S
O112 Mg104 2.048 . S
O112 C105 1.195 1_545 S
O113 Mg104 2.048 . S
O113 C114 1.195 1_545 S
C114 O113 1.195 1_565 S
C114 O115 1.313 . S
O115 C114 1.313 . S
O116 Mg104 2.141 . S
O116 C107 1.289 1_545 S
Mg117 O124 2.141 . S
Mg117 O125 2.048 . S
Mg117 O126 2.048 . S
Mg117 O129 2.141 . S
C118 O119 1.313 . S
C118 O125 1.195 . S
O119 C118 1.313 . S
C120 O121 1.245 . S
C120 O129 1.289 . S
O121 C120 1.245 . S
C122 O123 1.245 . S
C122 O124 1.289 . S
O123 C122 1.245 . S
O124 Mg117 2.141 . S
O124 C122 1.289 . S
O125 Mg117 2.048 . S
O125 C118 1.195 . S
O126 Mg117 2.048 . S
O126 C127 1.195 . S
C127 O126 1.195 . S
C127 O128 1.313 . S
O128 C127 1.313 . S
O129 Mg117 2.141 . S
O129 C120 1.289 . S
Mg130 O137 2.141 . S
Mg130 O138 2.048 . S
Mg130 O139 2.048 . S
Mg130 O142 2.141 . S
C131 O132 1.313 . S
C131 O138 1.195 . S
O132 C131 1.313 . S
C133 O134 1.245 . S
C133 O142 1.289 . S
O134 C133 1.245 . S
C135 O136 1.245 . S
C135 O137 1.289 . S
O136 C135 1.245 . S
O137 Mg130 2.141 . S
O137 C135 1.289 . S
O138 Mg130 2.048 . S
O138 C131 1.195 . S
O139 Mg130 2.048 . S
O139 C140 1.195 . S
C140 O139 1.195 . S
C140 O141 1.313 . S
O141 C140 1.313 . S
O142 Mg130 2.141 . S
O142 C133 1.289 . S
Mg143 O150 2.141 . S
Mg143 O151 2.048 . S
Mg143 O152 2.065 . S
Mg143 O155 2.141 . S
C144 O145 1.313 . S
C144 O151 1.195 1_655 S
O145 C144 1.313 . S
C146 O147 1.245 . S
C146 O155 1.289 1_655 S
O147 C146 1.245 . S
C148 O149 1.245 1_455 S
C148 O150 1.289 . S
O149 C148 1.245 1_655 S
O150 Mg143 2.141 . S
O150 C148 1.289 . S
O151 Mg143 2.048 . S
O151 C144 1.195 1_455 S
O152 Mg143 2.065 . S
O152 C153 1.148 1_455 S
C153 O152 1.148 1_655 S
C153 O154 1.313 . S
O154 C153 1.313 . S
O155 Mg143 2.141 . S
O155 C146 1.289 1_455 S
Mg156 O163 2.141 . S
Mg156 O164 2.048 . S
Mg156 O165 2.065 . S
Mg156 O168 2.141 . S
C157 O158 1.313 . S
C157 O164 1.195 1_545 S
O158 C157 1.313 . S
C159 O160 1.245 . S
C159 O168 1.289 1_545 S
O160 C159 1.245 . S
C161 O162 1.245 1_565 S
C161 O163 1.289 . S
O162 C161 1.245 1_545 S
O163 Mg156 2.141 . S
O163 C161 1.289 . S
O164 Mg156 2.048 . S
O164 C157 1.195 1_565 S
O165 Mg156 2.065 . S
O165 C166 1.148 1_565 S
C166 O165 1.148 1_545 S
C166 O167 1.313 . S
O167 C166 1.313 . S
O168 Mg156 2.141 . S
O168 C159 1.289 1_565 S
Mg169 O176 2.141 . S
Mg169 O177 2.048 . S
Mg169 O178 2.048 . S
Mg169 O181 2.141 . S
C170 O171 1.313 . S
C170 O177 1.195 . S
O171 C170 1.313 . S
C172 O173 1.245 . S
C172 O181 1.289 . S
O173 C172 1.245 . S
C174 O175 1.245 . S
C174 O176 1.289 . S
O175 C174 1.245 . S
O176 Mg169 2.141 . S
O176 C174 1.289 . S
O177 Mg169 2.048 . S
O177 C170 1.195 . S
O178 Mg169 2.048 . S
O178 C179 1.195 . S
C179 O178 1.195 . S
C179 O180 1.313 . S
O180 C179 1.313 . S
O181 Mg169 2.141 . S
O181 C172 1.289 . S
Mg182 O189 2.141 . S
Mg182 O190 2.048 . S
Mg182 O191 2.048 . S
Mg182 O194 2.141 . S
C183 O184 1.313 . S
C183 O190 1.195 . S
O184 C183 1.313 . S
C185 O186 1.245 . S
C185 O194 1.289 . S
O186 C185 1.245 . S
C187 O188 1.245 . S
C187 O189 1.289 . S
O188 C187 1.245 . S
O189 Mg182 2.141 . S
O189 C187 1.289 . S
O190 Mg182 2.048 . S
O190 C183 1.195 . S
O191 Mg182 2.048 . S
O191 C192 1.195 . S
C192 O191 1.195 . S
C192 O193 1.313 . S
O193 C192 1.313 . S
O194 Mg182 2.141 . S
O194 C185 1.289 . S
Mg195 O202 2.141 . S
Mg195 O203 2.048 . S
Mg195 O204 2.048 . S
Mg195 O207 2.141 . S
C196 O197 1.313 . S
C196 O203 1.195 1_455 S
O197 C196 1.313 . S
C198 O199 1.245 . S
C198 O207 1.289 1_455 S
O199 C198 1.245 . S
C200 O201 1.245 1_655 S
C200 O202 1.289 . S
O201 C200 1.245 1_455 S
O202 Mg195 2.141 . S
O202 C200 1.289 . S
O203 Mg195 2.048 . S
O203 C196 1.195 1_655 S
O204 Mg195 2.048 . S
O204 C205 1.195 1_655 S
C205 O204 1.195 1_455 S
C205 O206 1.313 . S
O206 C205 1.313 . S
O207 Mg195 2.141 . S
O207 C198 1.289 1_655 S
C208 C209 1.349 . S
C208 C210 1.327 . S
C208 H233 0.950 . S
C209 C208 1.349 . S
C209 C225 1.349 . S
C210 C208 1.327 . S
C210 C229 1.429 . S
C210 H234 0.950 . S
C211 C228 1.574 . S
C211 C230 1.368 . S
C211 H235 0.949 . S
H212 C216 0.949 . S
C213 C214 1.349 . S
C213 C215 1.327 . S
C213 H236 0.950 1_545 S
C214 C213 1.349 . S
C214 C226 1.349 . S
C215 C213 1.327 . S
C215 C231 1.429 . S
C215 H237 0.950 . S
C216 H212 0.949 . S
C216 C224 1.574 . S
C216 C232 1.368 . S
H217 C225 0.950 . S
H218 C223 0.950 . S
H219 C224 0.949 . S
H220 C226 0.950 . S
H221 C227 0.950 . S
H222 C228 0.949 . S
C223 H218 0.950 . S
C223 C225 1.327 . S
C223 C229 1.429 . S
C224 C216 1.574 . S
C224 H219 0.949 . S
C224 C230 1.368 . S
C225 C209 1.349 . S
C225 H217 0.950 . S
C225 C223 1.327 . S
C226 C214 1.349 . S
C226 H220 0.950 . S
C226 C227 1.327 . S
C227 H221 0.950 . S
C227 C226 1.327 . S
C227 C231 1.429 . S
C228 C211 1.574 . S
C228 H222 0.949 . S
C228 C232 1.368 . S
C229 C210 1.429 . S
C229 C223 1.429 . S
C229 C230 1.523 . S
C230 C211 1.368 . S
C230 C224 1.368 . S
C230 C229 1.523 . S
C231 C215 1.429 . S
C231 C227 1.429 . S
C231 C232 1.523 . S
C232 C216 1.368 . S
C232 C228 1.368 . S
C232 C231 1.523 . S
H233 C208 0.950 . S
H234 C210 0.950 . S
H235 C211 0.949 . S
H236 C213 0.950 1_565 S
H237 C215 0.950 . S
C238 C239 1.349 . S
C238 C240 1.327 . S
C238 H263 0.950 . S
C239 C238 1.349 . S
C239 C255 1.349 . S
C240 C238 1.327 . S
C240 C259 1.429 . S
C240 H264 0.950 . S
C241 C258 1.574 . S
C241 C260 1.368 . S
C241 H265 0.949 . S
H242 C246 0.949 . S
C243 C244 1.349 . S
C243 C245 1.327 . S
C243 H266 0.950 . S
C244 C243 1.349 . S
C244 C256 1.349 . S
C245 C243 1.327 . S
C245 C261 1.429 . S
C245 H267 0.950 . S
C246 H242 0.949 . S
C246 C254 1.574 . S
C246 C262 1.368 . S
H247 C255 0.950 . S
H248 C253 0.950 . S
H249 C254 0.949 . S
H250 C256 0.950 . S
H251 C257 0.950 . S
H252 C258 0.949 . S
C253 H248 0.950 . S
C253 C255 1.327 . S
C253 C259 1.429 . S
C254 C246 1.574 . S
C254 H249 0.949 . S
C254 C260 1.368 . S
C255 C239 1.349 . S
C255 H247 0.950 . S
C255 C253 1.327 . S
C256 C244 1.349 . S
C256 H250 0.950 . S
C256 C257 1.327 . S
C257 H251 0.950 . S
C257 C256 1.327 . S
C257 C261 1.429 . S
C258 C241 1.574 . S
C258 H252 0.949 . S
C258 C262 1.368 . S
C259 C240 1.429 . S
C259 C253 1.429 . S
C259 C260 1.523 . S
C260 C241 1.368 . S
C260 C254 1.368 . S
C260 C259 1.523 . S
C261 C245 1.429 . S
C261 C257 1.429 . S
C261 C262 1.523 . S
C262 C246 1.368 . S
C262 C258 1.368 . S
C262 C261 1.523 . S
H263 C238 0.950 . S
H264 C240 0.950 . S
H265 C241 0.949 . S
H266 C243 0.950 . S
H267 C245 0.950 . S
C268 C269 1.349 . S
C268 C270 1.327 . S
C268 H293 0.950 . S
C269 C268 1.349 . S
C269 C285 1.349 . S
C270 C268 1.327 . S
C270 C289 1.429 . S
C270 H294 0.950 . S
C271 C288 1.574 . S
C271 C290 1.368 . S
C271 H295 0.949 . S
H272 C276 0.949 . S
C273 C274 1.349 . S
C273 C275 1.327 . S
C273 H296 0.950 1_655 S
C274 C273 1.349 . S
C274 C286 1.349 . S
C275 C273 1.327 . S
C275 C291 1.429 . S
C275 H297 0.950 . S
C276 H272 0.949 . S
C276 C284 1.574 . S
C276 C292 1.368 . S
H277 C285 0.950 . S
H278 C283 0.950 . S
H279 C284 0.949 . S
H280 C286 0.950 . S
H281 C287 0.950 . S
H282 C288 0.949 . S
C283 H278 0.950 . S
C283 C285 1.327 . S
C283 C289 1.429 . S
C284 C276 1.574 . S
C284 H279 0.949 . S
C284 C290 1.368 . S
C285 C269 1.349 . S
C285 H277 0.950 . S
C285 C283 1.327 . S
C286 C274 1.349 . S
C286 H280 0.950 . S
C286 C287 1.327 . S
C287 H281 0.950 . S
C287 C286 1.327 . S
C287 C291 1.429 . S
C288 C271 1.574 . S
C288 H282 0.949 . S
C288 C292 1.368 . S
C289 C270 1.429 . S
C289 C283 1.429 . S
C289 C290 1.523 . S
C290 C271 1.368 . S
C290 C284 1.368 . S
C290 C289 1.523 . S
C291 C275 1.429 . S
C291 C287 1.429 . S
C291 C292 1.523 . S
C292 C276 1.368 . S
C292 C288 1.368 . S
C292 C291 1.523 . S
H293 C268 0.950 . S
H294 C270 0.950 . S
H295 C271 0.949 . S
H296 C273 0.950 1_455 S
H297 C275 0.950 . S
C298 C299 1.349 . S
C298 C300 1.327 . S
C298 H323 0.950 . S
C299 C298 1.349 . S
C299 C315 1.349 . S
C300 C298 1.327 . S
C300 C319 1.429 . S
C300 H324 0.950 . S
C301 C318 1.574 . S
C301 C320 1.368 . S
C301 H325 0.949 . S
H302 C306 0.949 . S
C303 C304 1.349 . S
C303 C305 1.327 . S
C303 H326 0.950 . S
C304 C303 1.349 . S
C304 C316 1.349 . S
C305 C303 1.327 . S
C305 C321 1.429 . S
C305 H327 0.950 . S
C306 H302 0.949 . S
C306 C314 1.574 . S
C306 C322 1.368 . S
H307 C315 0.950 . S
H308 C313 0.950 . S
H309 C314 0.949 . S
H310 C316 0.950 1_545 S
H311 C317 0.950 . S
H312 C318 0.949 . S
C313 H308 0.950 . S
C313 C315 1.327 . S
C313 C319 1.429 . S
C314 C306 1.574 . S
C314 H309 0.949 . S
C314 C320 1.368 . S
C315 C299 1.349 . S
C315 H307 0.950 . S
C315 C313 1.327 . S
C316 C304 1.349 . S
C316 H310 0.950 1_565 S
C316 C317 1.327 . S
C317 H311 0.950 . S
C317 C316 1.327 . S
C317 C321 1.429 . S
C318 C301 1.574 . S
C318 H312 0.949 . S
C318 C322 1.368 . S
C319 C300 1.429 . S
C319 C313 1.429 . S
C319 C320 1.523 . S
C320 C301 1.368 . S
C320 C314 1.368 . S
C320 C319 1.523 . S
C321 C305 1.429 . S
C321 C317 1.429 . S
C321 C322 1.523 . S
C322 C306 1.368 . S
C322 C318 1.368 . S
C322 C321 1.523 . S
H323 C298 0.950 . S
H324 C300 0.950 . S
H325 C301 0.949 . S
H326 C303 0.950 . S
H327 C305 0.950 . S
C328 C329 1.349 . S
C328 C330 1.327 . S
C328 H353 0.950 1_565 S
C329 C328 1.349 . S
C329 C345 1.349 . S
C330 C328 1.327 . S
C330 C349 1.429 . S
C330 H354 0.950 . S
C331 C348 1.574 . S
C331 C350 1.368 . S
C331 H355 0.949 . S
H332 C336 0.949 . S
C333 C334 1.349 . S
C333 C335 1.327 . S
C333 H356 0.950 . S
C334 C333 1.349 . S
C334 C346 1.349 . S
C335 C333 1.327 . S
C335 C351 1.429 . S
C335 H357 0.950 . S
C336 H332 0.949 . S
C336 C344 1.574 . S
C336 C352 1.368 . S
H337 C345 0.950 . S
H338 C343 0.950 . S
H339 C344 0.949 . S
H340 C346 0.950 . S
H341 C347 0.950 . S
H342 C348 0.949 . S
C343 H338 0.950 . S
C343 C345 1.327 . S
C343 C349 1.429 . S
C344 C336 1.574 . S
C344 H339 0.949 . S
C344 C350 1.368 . S
C345 C329 1.349 . S
C345 H337 0.950 . S
C345 C343 1.327 . S
C346 C334 1.349 . S
C346 H340 0.950 . S
C346 C347 1.327 . S
C347 H341 0.950 . S
C347 C346 1.327 . S
C347 C351 1.429 . S
C348 C331 1.574 . S
C348 H342 0.949 . S
C348 C352 1.368 . S
C349 C330 1.429 . S
C349 C343 1.429 . S
C349 C350 1.523 . S
C350 C331 1.368 . S
C350 C344 1.368 . S
C350 C349 1.523 . S
C351 C335 1.429 . S
C351 C347 1.429 . S
C351 C352 1.523 . S
C352 C336 1.368 . S
C352 C348 1.368 . S
C352 C351 1.523 . S
H353 C328 0.950 1_545 S
H354 C330 0.950 . S
H355 C331 0.949 . S
H356 C333 0.950 . S
H357 C335 0.950 . S
C358 C359 1.349 . S
C358 C360 1.327 . S
C358 H383 0.950 . S
C359 C358 1.349 . S
C359 C375 1.349 . S
C360 C358 1.327 . S
C360 C379 1.429 . S
C360 H384 0.950 . S
C361 C378 1.574 . S
C361 C380 1.368 . S
C361 H385 0.949 . S
H362 C366 0.949 . S
C363 C364 1.349 . S
C363 C365 1.327 . S
C363 H386 0.950 . S
C364 C363 1.349 . S
C364 C376 1.349 . S
C365 C363 1.327 . S
C365 C381 1.429 . S
C365 H387 0.950 . S
C366 H362 0.949 . S
C366 C374 1.574 . S
C366 C382 1.368 . S
H367 C375 0.950 . S
H368 C373 0.950 . S
H369 C374 0.949 . S
H370 C376 0.950 . S
H371 C377 0.950 . S
H372 C378 0.949 . S
C373 H368 0.950 . S
C373 C375 1.327 . S
C373 C379 1.429 . S
C374 C366 1.574 . S
C374 H369 0.949 . S
C374 C380 1.368 . S
C375 C359 1.349 . S
C375 H367 0.950 . S
C375 C373 1.327 . S
C376 C364 1.349 . S
C376 H370 0.950 . S
C376 C377 1.327 . S
C377 H371 0.950 . S
C377 C376 1.327 . S
C377 C381 1.429 . S
C378 C361 1.574 . S
C378 H372 0.949 . S
C378 C382 1.368 . S
C379 C360 1.429 . S
C379 C373 1.429 . S
C379 C380 1.523 . S
C380 C361 1.368 . S
C380 C374 1.368 . S
C380 C379 1.523 . S
C381 C365 1.429 . S
C381 C377 1.429 . S
C381 C382 1.523 . S
C382 C366 1.368 . S
C382 C378 1.368 . S
C382 C381 1.523 . S
H383 C358 0.950 . S
H384 C360 0.950 . S
H385 C361 0.949 . S
H386 C363 0.950 . S
H387 C365 0.950 . S
C388 C389 1.349 . S
C388 C390 1.327 . S
C388 H413 0.950 . S
C389 C388 1.349 . S
C389 C405 1.349 . S
C390 C388 1.327 . S
C390 C409 1.429 . S
C390 H414 0.950 . S
C391 C408 1.574 . S
C391 C410 1.368 . S
C391 H415 0.949 . S
H392 C396 0.949 . S
C393 C394 1.349 . S
C393 C395 1.327 . S
C393 H416 0.950 . S
C394 C393 1.349 . S
C394 C406 1.349 . S
C395 C393 1.327 . S
C395 C411 1.429 . S
C395 H417 0.950 . S
C396 H392 0.949 . S
C396 C404 1.574 . S
C396 C412 1.368 . S
H397 C405 0.950 . S
H398 C403 0.950 . S
H399 C404 0.949 . S
H400 C406 0.950 . S
H401 C407 0.950 . S
H402 C408 0.949 . S
C403 H398 0.950 . S
C403 C405 1.327 . S
C403 C409 1.429 . S
C404 C396 1.574 . S
C404 H399 0.949 . S
C404 C410 1.368 . S
C405 C389 1.349 . S
C405 H397 0.950 . S
C405 C403 1.327 . S
C406 C394 1.349 . S
C406 H400 0.950 . S
C406 C407 1.327 . S
C407 H401 0.950 . S
C407 C406 1.327 . S
C407 C411 1.429 . S
C408 C391 1.574 . S
C408 H402 0.949 . S
C408 C412 1.368 . S
C409 C390 1.429 . S
C409 C403 1.429 . S
C409 C410 1.523 . S
C410 C391 1.368 . S
C410 C404 1.368 . S
C410 C409 1.523 . S
C411 C395 1.429 . S
C411 C407 1.429 . S
C411 C412 1.523 . S
C412 C396 1.368 . S
C412 C408 1.368 . S
C412 C411 1.523 . S
H413 C388 0.950 . S
H414 C390 0.950 . S
H415 C391 0.949 . S
H416 C393 0.950 . S
H417 C395 0.950 . S
C418 C419 1.349 . S
C418 C420 1.327 . S
C418 H443 0.950 . S
C419 C418 1.349 . S
C419 C435 1.349 . S
C420 C418 1.327 . S
C420 C439 1.429 . S
C420 H444 0.950 . S
C421 C438 1.574 . S
C421 C440 1.368 . S
C421 H445 0.949 . S
H422 C426 0.949 . S
C423 C424 1.349 . S
C423 C425 1.327 . S
C423 H446 0.950 . S
C424 C423 1.349 . S
C424 C436 1.349 . S
C425 C423 1.327 . S
C425 C441 1.429 . S
C425 H447 0.950 . S
C426 H422 0.949 . S
C426 C434 1.574 . S
C426 C442 1.368 . S
H427 C435 0.950 1_455 S
H428 C433 0.950 . S
H429 C434 0.949 . S
H430 C436 0.950 . S
H431 C437 0.950 . S
H432 C438 0.949 . S
C433 H428 0.950 . S
C433 C435 1.327 . S
C433 C439 1.429 . S
C434 C426 1.574 . S
C434 H429 0.949 . S
C434 C440 1.368 . S
C435 C419 1.349 . S
C435 H427 0.950 1_655 S
C435 C433 1.327 . S
C436 C424 1.349 . S
C436 H430 0.950 . S
C436 C437 1.327 . S
C437 H431 0.950 . S
C437 C436 1.327 . S
C437 C441 1.429 . S
C438 C421 1.574 . S
C438 H432 0.949 . S
C438 C442 1.368 . S
C439 C420 1.429 . S
C439 C433 1.429 . S
C439 C440 1.523 . S
C440 C421 1.368 . S
C440 C434 1.368 . S
C440 C439 1.523 . S
C441 C425 1.429 . S
C441 C437 1.429 . S
C441 C442 1.523 . S
C442 C426 1.368 . S
C442 C438 1.368 . S
C442 C441 1.523 . S
H443 C418 0.950 . S
H444 C420 0.950 . S
H445 C421 0.949 . S
H446 C423 0.950 . S
H447 C425 0.950 . S
C448 C449 1.349 . S
C448 C450 1.327 . S
C448 H473 0.950 . S
C449 C448 1.349 . S
C449 C465 1.349 1_565 S
C450 C448 1.327 . S
C450 C469 1.429 . S
C450 H474 0.950 . S
C451 C468 1.574 . S
C451 C470 1.368 1_545 S
C451 H475 0.949 . S
H452 C456 0.949 . S
C453 C454 1.337 1_545 S
C453 C455 1.327 . S
C453 H476 0.950 . S
C454 C453 1.337 1_565 S
C454 C466 1.362 . S
C455 C453 1.327 . S
C455 C471 1.429 1_545 S
C455 H477 0.950 . S
C456 H452 0.949 . S
C456 C464 1.574 . S
C456 C472 1.368 . S
H457 C465 0.950 . S
H458 C463 0.950 . S
H459 C464 0.949 . S
H460 C466 0.950 . S
H461 C467 0.950 . S
H462 C468 0.949 . S
C463 H458 0.950 . S
C463 C465 1.327 . S
C463 C469 1.429 1_545 S
C464 C456 1.574 . S
C464 H459 0.949 . S
C464 C470 1.368 . S
C465 C449 1.349 1_545 S
C465 H457 0.950 . S
C465 C463 1.327 . S
C466 C454 1.362 . S
C466 H460 0.950 . S
C466 C467 1.327 . S
C467 H461 0.950 . S
C467 C466 1.327 . S
C467 C471 1.429 . S
C468 C451 1.574 . S
C468 H462 0.949 . S
C468 C472 1.368 1_545 S
C469 C450 1.429 . S
C469 C463 1.429 1_565 S
C469 C470 1.523 . S
C470 C451 1.368 1_565 S
C470 C464 1.368 . S
C470 C469 1.523 . S
C471 C455 1.429 1_565 S
C471 C467 1.429 . S
C471 C472 1.523 . S
C472 C456 1.368 . S
C472 C468 1.368 1_565 S
C472 C471 1.523 . S
H473 C448 0.950 . S
H474 C450 0.950 . S
H475 C451 0.949 . S
H476 C453 0.950 . S
H477 C455 0.950 . S
C478 C479 1.349 . S
C478 C480 1.327 . S
C478 H503 0.950 . S
C479 C478 1.349 . S
C479 C495 1.349 . S
C480 C478 1.327 . S
C480 C499 1.429 . S
C480 H504 0.950 . S
C481 C498 1.574 . S
C481 C500 1.368 . S
C481 H505 0.949 . S
H482 C486 0.949 . S
C483 C484 1.349 . S
C483 C485 1.327 . S
C483 H506 0.950 . S
C484 C483 1.349 . S
C484 C496 1.349 . S
C485 C483 1.327 . S
C485 C501 1.429 . S
C485 H507 0.950 . S
C486 H482 0.949 . S
C486 C494 1.574 . S
C486 C502 1.368 . S
H487 C495 0.950 . S
H488 C493 0.950 . S
H489 C494 0.949 . S
H490 C496 0.952 . S
H491 C497 0.950 . S
H492 C498 0.949 . S
C493 H488 0.950 . S
C493 C495 1.327 . S
C493 C499 1.429 . S
C494 C486 1.574 . S
C494 H489 0.949 . S
C494 C500 1.368 . S
C495 C479 1.349 . S
C495 H487 0.950 . S
C495 C493 1.327 . S
C496 C484 1.349 . S
C496 H490 0.952 . S
C496 C497 1.327 . S
C497 H491 0.950 . S
C497 C496 1.327 . S
C497 C501 1.429 . S
C498 C481 1.574 . S
C498 H492 0.949 . S
C498 C502 1.368 . S
C499 C480 1.429 . S
C499 C493 1.429 . S
C499 C500 1.523 . S
C500 C481 1.368 . S
C500 C494 1.368 . S
C500 C499 1.523 . S
C501 C485 1.429 . S
C501 C497 1.429 . S
C501 C502 1.523 . S
C502 C486 1.368 . S
C502 C498 1.368 . S
C502 C501 1.523 . S
H503 C478 0.950 . S
H504 C480 0.950 . S
H505 C481 0.949 . S
H506 C483 0.950 . S
H507 C485 0.950 . S
C508 C509 1.349 . S
C508 C510 1.327 . S
C508 H533 0.950 . S
C509 C508 1.349 . S
C509 C525 1.349 . S
C510 C508 1.327 . S
C510 C529 1.429 . S
C510 H534 0.950 . S
C511 C528 1.574 . S
C511 C530 1.368 . S
C511 H535 0.949 . S
H512 C516 0.949 . S
C513 C514 1.349 . S
C513 C515 1.327 . S
C513 H536 0.950 . S
C514 C513 1.349 . S
C514 C526 1.349 . S
C515 C513 1.327 . S
C515 C531 1.429 . S
C515 H537 0.950 . S
C516 H512 0.949 . S
C516 C524 1.574 . S
C516 C532 1.368 . S
H517 C525 0.950 1_554 S
H518 C523 0.950 . S
H519 C524 0.949 . S
H520 C526 0.950 . S
H521 C527 0.950 . S
H522 C528 0.949 . S
C523 H518 0.950 . S
C523 C525 1.327 . S
C523 C529 1.429 . S
C524 C516 1.574 . S
C524 H519 0.949 . S
C524 C530 1.368 . S
C525 C509 1.349 . S
C525 H517 0.950 1_556 S
C525 C523 1.327 . S
C526 C514 1.349 . S
C526 H520 0.950 . S
C526 C527 1.327 . S
C527 H521 0.950 . S
C527 C526 1.327 . S
C527 C531 1.429 . S
C528 C511 1.574 . S
C528 H522 0.949 . S
C528 C532 1.368 . S
C529 C510 1.429 . S
C529 C523 1.429 . S
C529 C530 1.523 . S
C530 C511 1.368 . S
C530 C524 1.368 . S
C530 C529 1.523 . S
C531 C515 1.429 . S
C531 C527 1.429 . S
C531 C532 1.523 . S
C532 C516 1.368 . S
C532 C528 1.368 . S
C532 C531 1.523 . S
H533 C508 0.950 . S
H534 C510 0.950 . S
H535 C511 0.949 . S
H536 C513 0.950 . S
H537 C515 0.950 . S
C538 C539 1.349 . S
C538 C540 1.327 . S
C538 H563 0.931 1_655 S
C539 C538 1.349 . S
C539 C555 1.349 . S
C540 C538 1.327 . S
C540 C559 1.429 . S
C540 H564 0.950 1_655 S
C541 C558 1.574 . S
C541 C560 1.368 . S
C541 H565 0.949 . S
H542 C546 0.949 . S
C543 C544 1.353 . S
C543 C545 1.327 . S
C543 H566 0.950 . S
C544 C543 1.353 . S
C544 C556 1.345 1_655 S
C545 C543 1.327 . S
C545 C561 1.429 . S
C545 H567 0.950 . S
C546 H542 0.949 . S
C546 C554 1.574 . S
C546 C562 1.368 1_455 S
H547 C555 0.950 1_554 S
H548 C553 0.950 . S
H549 C554 0.949 . S
H550 C556 0.950 . S
H551 C557 0.950 . S
H552 C558 0.949 . S
C553 H548 0.950 . S
C553 C555 1.327 . S
C553 C559 1.429 . S
C554 C546 1.574 . S
C554 H549 0.949 . S
C554 C560 1.368 1_455 S
C555 C539 1.349 . S
C555 H547 0.950 1_556 S
C555 C553 1.327 . S
C556 C544 1.345 1_455 S
C556 H550 0.950 . S
C556 C557 1.327 . S
C557 H551 0.950 . S
C557 C556 1.327 . S
C557 C561 1.429 1_455 S
C558 C541 1.574 . S
C558 H552 0.949 . S
C558 C562 1.368 . S
C559 C540 1.429 . S
C559 C553 1.429 . S
C559 C560 1.523 . S
C560 C541 1.368 . S
C560 C554 1.368 1_655 S
C560 C559 1.523 . S
C561 C545 1.429 . S
C561 C557 1.429 1_655 S
C561 C562 1.523 . S
C562 C546 1.368 1_655 S
C562 C558 1.368 . S
C562 C561 1.523 . S
H563 C538 0.931 1_455 S
H564 C540 0.950 1_455 S
H565 C541 0.949 . S
H566 C543 0.950 . S
H567 C545 0.950 . S
C568 C569 1.377 . S
C568 C570 1.324 1_545 S
C568 H593 0.926 1_545 S
C569 C568 1.377 . S
C569 C585 1.349 . S
C570 C568 1.324 1_565 S
C570 C589 1.429 1_565 S
C570 H594 0.950 . S
C571 C588 1.574 . S
C571 C590 1.368 . S
C571 H595 0.949 . S
H572 C576 0.949 . S
C573 C574 1.355 . S
C573 C575 1.327 . S
C573 H596 0.950 . S
C574 C573 1.355 . S
C574 C586 1.344 1_545 S
C575 C573 1.327 . S
C575 C591 1.429 . S
C575 H597 0.950 . S
C576 H572 0.949 . S
C576 C584 1.574 . S
C576 C592 1.368 1_565 S
H577 C585 0.950 . S
H578 C583 0.950 . S
H579 C584 0.949 . S
H580 C586 0.950 . S
H581 C587 0.950 . S
H582 C588 0.949 . S
C583 H578 0.950 . S
C583 C585 1.327 . S
C583 C589 1.429 . S
C584 C576 1.574 . S
C584 H579 0.949 . S
C584 C590 1.368 1_565 S
C585 C569 1.349 . S
C585 H577 0.950 . S
C585 C583 1.327 . S
C586 C574 1.344 1_565 S
C586 H580 0.950 . S
C586 C587 1.327 . S
C587 H581 0.950 . S
C587 C586 1.327 . S
C587 C591 1.429 1_565 S
C588 C571 1.574 . S
C588 H582 0.949 . S
C588 C592 1.368 . S
C589 C570 1.429 1_545 S
C589 C583 1.429 . S
C589 C590 1.523 . S
C590 C571 1.368 . S
C590 C584 1.368 1_545 S
C590 C589 1.523 . S
C591 C575 1.429 . S
C591 C587 1.429 1_545 S
C591 C592 1.523 . S
C592 C576 1.368 1_545 S
C592 C588 1.368 . S
C592 C591 1.523 . S
H593 C568 0.926 1_565 S
H594 C570 0.950 . S
H595 C571 0.949 . S
H596 C573 0.950 . S
H597 C575 0.950 . S
C598 C599 1.349 . S
C598 C600 1.327 . S
C598 H623 0.950 . S
C599 C598 1.349 . S
C599 C615 1.349 . S
C600 C598 1.327 . S
C600 C619 1.429 . S
C600 H624 0.950 . S
C601 C618 1.574 . S
C601 C620 1.368 . S
C601 H625 0.949 . S
H602 C606 0.949 . S
C603 C604 1.349 . S
C603 C605 1.327 . S
C603 H626 0.950 . S
C604 C603 1.349 . S
C604 C616 1.349 . S
C605 C603 1.327 . S
C605 C621 1.429 . S
C605 H627 0.950 . S
C606 H602 0.949 . S
C606 C614 1.574 . S
C606 C622 1.368 . S
H607 C615 0.950 . S
H608 C613 0.950 . S
H609 C614 0.949 . S
H610 C616 0.950 . S
H611 C617 0.950 . S
H612 C618 0.949 . S
C613 H608 0.950 . S
C613 C615 1.327 . S
C613 C619 1.429 . S
C614 C606 1.574 . S
C614 H609 0.949 . S
C614 C620 1.368 . S
C615 C599 1.349 . S
C615 H607 0.950 . S
C615 C613 1.327 . S
C616 C604 1.349 . S
C616 H610 0.950 . S
C616 C617 1.327 . S
C617 H611 0.950 . S
C617 C616 1.327 . S
C617 C621 1.429 . S
C618 C601 1.574 . S
C618 H612 0.949 . S
C618 C622 1.368 . S
C619 C600 1.429 . S
C619 C613 1.429 . S
C619 C620 1.523 . S
C620 C601 1.368 . S
C620 C614 1.368 . S
C620 C619 1.523 . S
C621 C605 1.429 . S
C621 C617 1.429 . S
C621 C622 1.523 . S
C622 C606 1.368 . S
C622 C618 1.368 . S
C622 C621 1.523 . S
H623 C598 0.950 . S
H624 C600 0.950 . S
H625 C601 0.949 . S
H626 C603 0.950 . S
H627 C605 0.950 . S
C628 C629 1.349 . S
C628 C630 1.327 . S
C628 H653 0.950 . S
C629 C628 1.349 . S
C629 C645 1.349 . S
C630 C628 1.327 . S
C630 C649 1.429 . S
C630 H654 0.950 . S
C631 C648 1.574 . S
C631 C650 1.368 . S
C631 H655 0.949 . S
H632 C636 0.949 . S
C633 C634 1.349 . S
C633 C635 1.327 . S
C633 H656 0.950 . S
C634 C633 1.349 . S
C634 C646 1.349 . S
C635 C633 1.327 . S
C635 C651 1.429 . S
C635 H657 0.950 . S
C636 H632 0.949 . S
C636 C644 1.574 . S
C636 C652 1.368 . S
H637 C645 0.950 . S
H638 C643 0.950 . S
H639 C644 0.949 . S
H640 C646 0.950 . S
H641 C647 0.950 . S
H642 C648 0.949 . S
C643 H638 0.950 . S
C643 C645 1.327 . S
C643 C649 1.429 . S
C644 C636 1.574 . S
C644 H639 0.949 . S
C644 C650 1.368 . S
C645 C629 1.349 . S
C645 H637 0.950 . S
C645 C643 1.327 . S
C646 C634 1.349 . S
C646 H640 0.950 . S
C646 C647 1.327 . S
C647 H641 0.950 . S
C647 C646 1.327 . S
C647 C651 1.429 . S
C648 C631 1.574 . S
C648 H642 0.949 . S
C648 C652 1.368 . S
C649 C630 1.429 . S
C649 C643 1.429 . S
C649 C650 1.523 . S
C650 C631 1.368 . S
C650 C644 1.368 . S
C650 C649 1.523 . S
C651 C635 1.429 . S
C651 C647 1.429 . S
C651 C652 1.523 . S
C652 C636 1.368 . S
C652 C648 1.368 . S
C652 C651 1.523 . S
H653 C628 0.950 . S
H654 C630 0.950 . S
H655 C631 0.949 . S
H656 C633 0.950 . S
H657 C635 0.950 . S
C658 C659 1.349 . S
C658 C660 1.327 . S
C658 H683 0.950 . S
C659 C658 1.349 . S
C659 C675 1.349 . S
C660 C658 1.327 . S
C660 C679 1.429 . S
C660 H684 0.950 . S
C661 C678 1.574 . S
C661 C680 1.368 . S
C661 H685 0.949 . S
H662 C666 0.949 . S
C663 C664 1.349 . S
C663 C665 1.327 . S
C663 H686 0.950 1_455 S
C664 C663 1.349 . S
C664 C676 1.350 . S
C665 C663 1.327 . S
C665 C681 1.429 . S
C665 H687 0.950 . S
C666 H662 0.949 . S
C666 C674 1.574 . S
C666 C682 1.368 . S
H667 C675 0.950 . S
H668 C673 0.950 . S
H669 C674 0.949 . S
H670 C676 0.950 . S
H671 C677 0.950 . S
H672 C678 0.949 . S
C673 H668 0.950 . S
C673 C675 1.327 . S
C673 C679 1.429 . S
C674 C666 1.574 . S
C674 H669 0.949 . S
C674 C680 1.368 . S
C675 C659 1.349 . S
C675 H667 0.950 . S
C675 C673 1.327 . S
C676 C664 1.350 . S
C676 H670 0.950 . S
C676 C677 1.327 . S
C677 H671 0.950 . S
C677 C676 1.327 . S
C677 C681 1.429 . S
C678 C661 1.574 . S
C678 H672 0.949 . S
C678 C682 1.368 . S
C679 C660 1.429 . S
C679 C673 1.429 . S
C679 C680 1.523 . S
C680 C661 1.368 . S
C680 C674 1.368 . S
C680 C679 1.523 . S
C681 C665 1.429 . S
C681 C677 1.429 . S
C681 C682 1.523 . S
C682 C666 1.368 . S
C682 C678 1.368 . S
C682 C681 1.523 . S
H683 C658 0.950 . S
H684 C660 0.950 . S
H685 C661 0.949 . S
H686 C663 0.950 1_655 S
H687 C665 0.950 . S
C688 C689 1.337 1_565 S
C688 C690 1.327 . S
C688 H713 0.950 . S
C689 C688 1.337 1_545 S
C689 C705 1.362 . S
C690 C688 1.327 . S
C690 C709 1.429 1_565 S
C690 H714 0.950 . S
C691 C708 1.574 . S
C691 C710 1.368 . S
C691 H715 0.949 . S
H692 C696 0.949 . S
C693 C694 1.349 . S
C693 C695 1.327 . S
C693 H716 0.950 . S
C694 C693 1.349 . S
C694 C706 1.349 1_545 S
C695 C693 1.327 . S
C695 C711 1.429 . S
C695 H717 0.950 . S
C696 H692 0.949 . S
C696 C704 1.574 . S
C696 C712 1.368 1_565 S
H697 C705 0.950 . S
H698 C703 0.950 . S
H699 C704 0.949 . S
H700 C706 0.950 . S
H701 C707 0.950 . S
H702 C708 0.949 . S
C703 H698 0.950 . S
C703 C705 1.327 . S
C703 C709 1.429 . S
C704 C696 1.574 . S
C704 H699 0.949 . S
C704 C710 1.368 1_565 S
C705 C689 1.362 . S
C705 H697 0.950 . S
C705 C703 1.327 . S
C706 C694 1.349 1_565 S
C706 H700 0.950 . S
C706 C707 1.327 . S
C707 H701 0.950 . S
C707 C706 1.327 . S
C707 C711 1.429 1_565 S
C708 C691 1.574 . S
C708 H702 0.949 . S
C708 C712 1.368 . S
C709 C690 1.429 1_545 S
C709 C703 1.429 . S
C709 C710 1.523 . S
C710 C691 1.368 . S
C710 C704 1.368 1_545 S
C710 C709 1.523 . S
C711 C695 1.429 . S
C711 C707 1.429 1_545 S
C711 C712 1.523 . S
C712 C696 1.368 1_545 S
C712 C708 1.368 . S
C712 C711 1.523 . S
H713 C688 0.950 . S
H714 C690 0.950 . S
H715 C691 0.949 . S
H716 C693 0.950 . S
H717 C695 0.950 . S
C718 C719 1.349 . S
C718 C720 1.327 . S
C718 H743 0.950 . S
C719 C718 1.349 . S
C719 C735 1.349 . S
C720 C718 1.327 . S
C720 C739 1.429 . S
C720 H744 0.950 . S
C721 C738 1.574 . S
C721 C740 1.368 . S
C721 H745 0.949 . S
H722 C726 0.949 . S
C723 C724 1.349 . S
C723 C725 1.327 . S
C723 H746 0.950 . S
C724 C723 1.349 . S
C724 C736 1.349 . S
C725 C723 1.327 . S
C725 C741 1.429 . S
C725 H747 0.950 . S
C726 H722 0.949 . S
C726 C734 1.574 . S
C726 C742 1.368 . S
H727 C735 0.950 . S
H728 C733 0.950 . S
H729 C734 0.949 . S
H730 C736 0.950 . S
H731 C737 0.950 . S
H732 C738 0.949 . S
C733 H728 0.950 . S
C733 C735 1.327 . S
C733 C739 1.429 . S
C734 C726 1.574 . S
C734 H729 0.949 . S
C734 C740 1.368 . S
C735 C719 1.349 . S
C735 H727 0.950 . S
C735 C733 1.327 . S
C736 C724 1.349 . S
C736 H730 0.950 . S
C736 C737 1.327 . S
C737 H731 0.950 . S
C737 C736 1.327 . S
C737 C741 1.429 . S
C738 C721 1.574 . S
C738 H732 0.949 . S
C738 C742 1.368 . S
C739 C720 1.429 . S
C739 C733 1.429 . S
C739 C740 1.523 . S
C740 C721 1.368 . S
C740 C734 1.368 . S
C740 C739 1.523 . S
C741 C725 1.429 . S
C741 C737 1.429 . S
C741 C742 1.523 . S
C742 C726 1.368 . S
C742 C738 1.368 . S
C742 C741 1.523 . S
H743 C718 0.950 . S
H744 C720 0.950 . S
H745 C721 0.949 . S
H746 C723 0.950 . S
H747 C725 0.950 . S
C748 C749 1.349 . S
C748 C750 1.327 . S
C748 H773 0.950 . S
C749 C748 1.349 . S
C749 C765 1.349 . S
C750 C748 1.327 . S
C750 C769 1.429 . S
C750 H774 0.950 . S
C751 C768 1.574 . S
C751 C770 1.368 . S
C751 H775 0.949 . S
H752 C756 0.949 . S
C753 C754 1.349 . S
C753 C755 1.327 . S
C753 H776 0.950 1_554 S
C754 C753 1.349 . S
C754 C766 1.349 . S
C755 C753 1.327 . S
C755 C771 1.429 . S
C755 H777 0.950 . S
C756 H752 0.949 . S
C756 C764 1.574 . S
C756 C772 1.368 . S
H757 C765 0.950 . S
H758 C763 0.950 . S
H759 C764 0.949 . S
H760 C766 0.950 . S
H761 C767 0.950 . S
H762 C768 0.949 . S
C763 H758 0.950 . S
C763 C765 1.327 . S
C763 C769 1.429 . S
C764 C756 1.574 . S
C764 H759 0.949 . S
C764 C770 1.368 . S
C765 C749 1.349 . S
C765 H757 0.950 . S
C765 C763 1.327 . S
C766 C754 1.349 . S
C766 H760 0.950 . S
C766 C767 1.327 . S
C767 H761 0.950 . S
C767 C766 1.327 . S
C767 C771 1.429 . S
C768 C751 1.574 . S
C768 H762 0.949 . S
C768 C772 1.368 . S
C769 C750 1.429 . S
C769 C763 1.429 . S
C769 C770 1.523 . S
C770 C751 1.368 . S
C770 C764 1.368 . S
C770 C769 1.523 . S
C771 C755 1.429 . S
C771 C767 1.429 . S
C771 C772 1.523 . S
C772 C756 1.368 . S
C772 C768 1.368 . S
C772 C771 1.523 . S
H773 C748 0.950 . S
H774 C750 0.950 . S
H775 C751 0.949 . S
H776 C753 0.950 1_556 S
H777 C755 0.950 . S
C778 C779 1.349 . S
C778 C780 1.327 . S
C778 H803 0.950 . S
C779 C778 1.349 . S
C779 C795 1.349 . S
C780 C778 1.327 . S
C780 C799 1.429 . S
C780 H804 0.950 . S
C781 C798 1.574 . S
C781 C800 1.368 . S
C781 H805 0.951 . S
H782 C786 0.949 . S
C783 C784 1.347 1_655 S
C783 C785 1.327 . S
C783 H806 0.950 . S
C784 C783 1.347 1_455 S
C784 C796 1.351 . S
C785 C783 1.327 . S
C785 C801 1.429 1_655 S
C785 H807 0.950 . S
C786 H782 0.949 . S
C786 C794 1.574 . S
C786 C802 1.368 . S
H787 C795 0.950 1_556 S
H788 C793 0.950 . S
H789 C794 0.949 . S
H790 C796 0.950 . S
H791 C797 0.950 . S
H792 C798 0.949 1_655 S
C793 H788 0.950 . S
C793 C795 1.327 . S
C793 C799 1.429 . S
C794 C786 1.574 . S
C794 H789 0.949 . S
C794 C800 1.368 . S
C795 C779 1.349 . S
C795 H787 0.950 1_554 S
C795 C793 1.327 . S
C796 C784 1.351 . S
C796 H790 0.950 . S
C796 C797 1.327 . S
C797 H791 0.950 . S
C797 C796 1.327 . S
C797 C801 1.429 . S
C798 C781 1.574 . S
C798 H792 0.949 1_455 S
C798 C802 1.368 . S
C799 C780 1.429 . S
C799 C793 1.429 . S
C799 C800 1.523 . S
C800 C781 1.368 . S
C800 C794 1.368 . S
C800 C799 1.523 . S
C801 C785 1.429 1_455 S
C801 C797 1.429 . S
C801 C802 1.523 . S
C802 C786 1.368 . S
C802 C798 1.368 . S
C802 C801 1.523 . S
H803 C778 0.950 . S
H804 C780 0.950 . S
H805 C781 0.951 . S
H806 C783 0.950 . S
H807 C785 0.950 . S
C808 C809 1.343 1_545 S
C808 C810 1.327 . S
C808 H833 0.950 . S
C809 C808 1.343 1_565 S
C809 C825 1.355 . S
C810 C808 1.327 . S
C810 C829 1.429 1_545 S
C810 H834 0.950 . S
C811 C828 1.574 . S
C811 C830 1.368 . S
C811 H835 0.949 . S
H812 C816 0.949 . S
C813 C814 1.349 . S
C813 C815 1.327 . S
C813 H836 0.950 . S
C814 C813 1.349 . S
C814 C826 1.367 . S
C815 C813 1.327 . S
C815 C831 1.429 . S
C815 H837 0.950 . S
C816 H812 0.949 . S
C816 C824 1.574 . S
C816 C832 1.368 1_545 S
H817 C825 0.950 . S
H818 C823 0.950 . S
H819 C824 0.949 . S
H820 C826 0.934 1_545 S
H821 C827 0.950 . S
H822 C828 0.949 . S
C823 H818 0.950 . S
C823 C825 1.327 . S
C823 C829 1.429 . S
C824 C816 1.574 . S
C824 H819 0.949 . S
C824 C830 1.368 1_545 S
C825 C809 1.355 . S
C825 H817 0.950 . S
C825 C823 1.327 . S
C826 C814 1.367 . S
C826 H820 0.934 1_565 S
C826 C827 1.325 1_565 S
C827 H821 0.950 . S
C827 C826 1.325 1_545 S
C827 C831 1.429 1_545 S
C828 C811 1.574 . S
C828 H822 0.949 . S
C828 C832 1.368 . S
C829 C810 1.429 1_565 S
C829 C823 1.429 . S
C829 C830 1.523 . S
C830 C811 1.368 . S
C830 C824 1.368 1_565 S
C830 C829 1.523 . S
C831 C815 1.429 . S
C831 C827 1.429 1_565 S
C831 C832 1.523 . S
C832 C816 1.368 1_565 S
C832 C828 1.368 . S
C832 C831 1.523 . S
H833 C808 0.950 . S
H834 C810 0.950 . S
H835 C811 0.949 . S
H836 C813 0.950 . S
H837 C815 0.950 . S
C838 C839 1.349 . S
C838 C840 1.327 . S
C838 H863 0.950 . S
C839 C838 1.349 . S
C839 C855 1.349 . S
C840 C838 1.327 . S
C840 C859 1.429 . S
C840 H864 0.950 . S
C841 C858 1.574 . S
C841 C860 1.368 . S
C841 H865 0.949 . S
H842 C846 0.949 . S
C843 C844 1.349 . S
C843 C845 1.327 . S
C843 H866 0.950 . S
C844 C843 1.349 . S
C844 C856 1.349 . S
C845 C843 1.327 . S
C845 C861 1.429 . S
C845 H867 0.950 . S
C846 H842 0.949 . S
C846 C854 1.574 . S
C846 C862 1.368 . S
H847 C855 0.950 . S
H848 C853 0.950 . S
H849 C854 0.949 . S
H850 C856 0.950 . S
H851 C857 0.950 . S
H852 C858 0.949 . S
C853 H848 0.950 . S
C853 C855 1.327 . S
C853 C859 1.429 . S
C854 C846 1.574 . S
C854 H849 0.949 . S
C854 C860 1.368 . S
C855 C839 1.349 . S
C855 H847 0.950 . S
C855 C853 1.327 . S
C856 C844 1.349 . S
C856 H850 0.950 . S
C856 C857 1.327 . S
C857 H851 0.950 . S
C857 C856 1.327 . S
C857 C861 1.429 . S
C858 C841 1.574 . S
C858 H852 0.949 . S
C858 C862 1.368 . S
C859 C840 1.429 . S
C859 C853 1.429 . S
C859 C860 1.523 . S
C860 C841 1.368 . S
C860 C854 1.368 . S
C860 C859 1.523 . S
C861 C845 1.429 . S
C861 C857 1.429 . S
C861 C862 1.523 . S
C862 C846 1.368 . S
C862 C858 1.368 . S
C862 C861 1.523 . S
H863 C838 0.950 . S
H864 C840 0.950 . S
H865 C841 0.949 . S
H866 C843 0.950 . S
H867 C845 0.950 . S
C868 C869 1.349 . S
C868 C870 1.327 . S
C868 H893 0.950 . S
C869 C868 1.349 . S
C869 C885 1.349 . S
C870 C868 1.327 . S
C870 C889 1.429 . S
C870 H894 0.950 . S
C871 C888 1.574 . S
C871 C890 1.368 . S
C871 H895 0.949 . S
H872 C876 0.949 . S
C873 C874 1.349 . S
C873 C875 1.327 . S
C873 H896 0.950 . S
C874 C873 1.349 . S
C874 C886 1.349 . S
C875 C873 1.327 . S
C875 C891 1.429 . S
C875 H897 0.950 . S
C876 H872 0.949 . S
C876 C884 1.574 . S
C876 C892 1.368 . S
H877 C885 0.950 . S
H878 C883 0.950 . S
H879 C884 0.949 . S
H880 C886 0.950 . S
H881 C887 0.950 . S
H882 C888 0.949 . S
C883 H878 0.950 . S
C883 C885 1.327 . S
C883 C889 1.429 . S
C884 C876 1.574 . S
C884 H879 0.949 . S
C884 C890 1.368 . S
C885 C869 1.349 . S
C885 H877 0.950 . S
C885 C883 1.327 . S
C886 C874 1.349 . S
C886 H880 0.950 . S
C886 C887 1.327 . S
C887 H881 0.950 . S
C887 C886 1.327 . S
C887 C891 1.429 . S
C888 C871 1.574 . S
C888 H882 0.949 . S
C888 C892 1.368 . S
C889 C870 1.429 . S
C889 C883 1.429 . S
C889 C890 1.523 . S
C890 C871 1.368 . S
C890 C884 1.368 . S
C890 C889 1.523 . S
C891 C875 1.429 . S
C891 C887 1.429 . S
C891 C892 1.523 . S
C892 C876 1.368 . S
C892 C888 1.368 . S
C892 C891 1.523 . S
H893 C868 0.950 . S
H894 C870 0.950 . S
H895 C871 0.949 . S
H896 C873 0.950 . S
H897 C875 0.950 . S
C898 C899 1.358 . S
C898 C900 1.327 . S
C898 H923 0.950 . S
C899 C898 1.358 . S
C899 C915 1.342 1_655 S
C900 C898 1.327 . S
C900 C919 1.429 . S
C900 H924 0.950 . S
C901 C918 1.574 . S
C901 C920 1.368 1_455 S
C901 H925 0.949 . S
H902 C906 0.949 . S
C903 C904 1.349 . S
C903 C905 1.333 . S
C903 H926 0.950 1_655 S
C904 C903 1.349 . S
C904 C916 1.349 . S
C905 C903 1.333 . S
C905 C921 1.454 . S
C905 H927 0.921 1_655 S
C906 H902 0.949 . S
C906 C914 1.574 . S
C906 C922 1.368 . S
H907 C915 0.950 . S
H908 C913 0.950 . S
H909 C914 0.949 . S
H910 C916 0.950 . S
H911 C917 0.950 . S
H912 C918 0.949 . S
C913 H908 0.950 . S
C913 C915 1.327 . S
C913 C919 1.429 1_455 S
C914 C906 1.574 . S
C914 H909 0.949 . S
C914 C920 1.368 . S
C915 C899 1.342 1_455 S
C915 H907 0.950 . S
C915 C913 1.327 . S
C916 C904 1.349 . S
C916 H910 0.950 . S
C916 C917 1.327 . S
C917 H911 0.950 . S
C917 C916 1.327 . S
C917 C921 1.429 . S
C918 C901 1.574 . S
C918 H912 0.949 . S
C918 C922 1.368 1_455 S
C919 C900 1.429 . S
C919 C913 1.429 1_655 S
C919 C920 1.523 . S
C920 C901 1.368 1_655 S
C920 C914 1.368 . S
C920 C919 1.523 . S
C921 C905 1.454 . S
C921 C917 1.429 . S
C921 C922 1.523 . S
C922 C906 1.368 . S
C922 C918 1.368 1_655 S
C922 C921 1.523 . S
H923 C898 0.950 . S
H924 C900 0.950 . S
H925 C901 0.949 . S
H926 C903 0.950 1_455 S
H927 C905 0.921 1_455 S
C928 C929 1.386 . S
C928 C930 1.326 1_556 S
C928 H953 0.950 1_556 S
C929 C928 1.386 . S
C929 C945 1.312 1_545 S
C930 C928 1.326 1_554 S
C930 C949 1.441 1_554 S
C930 H954 0.952 . S
C931 C948 1.574 . S
C931 C950 1.367 1_565 S
C931 H955 0.949 . S
H932 C936 0.949 . S
C933 C934 1.349 . S
C933 C935 1.326 1_554 S
C933 H956 0.950 1_554 S
C934 C933 1.349 . S
C934 C946 1.349 1_565 S
C935 C933 1.326 1_556 S
C935 C951 1.450 1_556 S
C935 H957 0.952 . S
C936 H932 0.949 . S
C936 C944 1.574 . S
C936 C952 1.357 1_545 S
H937 C945 0.950 . S
H938 C943 0.950 . S
H939 C944 0.949 . S
H940 C946 0.950 . S
H941 C947 0.950 . S
H942 C948 0.949 . S
C943 H938 0.950 . S
C943 C945 1.327 . S
C943 C949 1.415 1_565 S
C944 C936 1.574 . S
C944 H939 0.949 . S
C944 C950 1.370 1_554 S
C945 C929 1.312 1_565 S
C945 H937 0.950 . S
C945 C943 1.327 . S
C946 C934 1.349 1_545 S
C946 H940 0.950 . S
C946 C947 1.327 . S
C947 H941 0.950 . S
C947 C946 1.327 . S
C947 C951 1.406 1_545 S
C948 C931 1.574 . S
C948 H942 0.949 . S
C948 C952 1.380 1_556 S
C949 C930 1.441 1_556 S
C949 C943 1.415 1_545 S
C949 C950 1.523 . S
C950 C931 1.367 1_545 S
C950 C944 1.370 1_556 S
C950 C949 1.523 . S
C951 C935 1.450 1_554 S
C951 C947 1.406 1_565 S
C951 C952 1.523 . S
C952 C936 1.357 1_565 S
C952 C948 1.380 1_554 S
C952 C951 1.523 . S
H953 C928 0.950 1_554 S
H954 C930 0.952 . S
H955 C931 0.949 . S
H956 C933 0.950 1_556 S
H957 C935 0.952 . S
C958 C959 1.349 1_554 S
C958 C960 1.327 . S
C958 H983 0.950 . S
C959 C958 1.349 1_556 S
C959 C975 1.349 . S
C960 C958 1.327 . S
C960 C979 1.429 1_554 S
C960 H984 0.950 . S
C961 C978 1.574 . S
C961 C980 1.368 . S
C961 H985 0.949 . S
H962 C966 0.949 . S
C963 C964 1.349 1_556 S
C963 C965 1.327 . S
C963 H986 0.950 . S
C964 C963 1.349 1_554 S
C964 C976 1.349 . S
C965 C963 1.327 . S
C965 C981 1.429 1_556 S
C965 H987 0.950 . S
C966 H962 0.949 . S
C966 C974 1.574 . S
C966 C982 1.368 . S
H967 C975 0.950 . S
H968 C973 0.950 . S
H969 C974 0.949 . S
H970 C976 0.950 . S
H971 C977 0.950 . S
H972 C978 0.949 . S
C973 H968 0.950 . S
C973 C975 1.327 . S
C973 C979 1.429 . S
C974 C966 1.574 . S
C974 H969 0.949 . S
C974 C980 1.368 1_554 S
C975 C959 1.349 . S
C975 H967 0.950 . S
C975 C973 1.327 . S
C976 C964 1.349 . S
C976 H970 0.950 . S
C976 C977 1.327 . S
C977 H971 0.950 . S
C977 C976 1.327 . S
C977 C981 1.429 . S
C978 C961 1.574 . S
C978 H972 0.949 . S
C978 C982 1.368 1_556 S
C979 C960 1.429 1_556 S
C979 C973 1.429 . S
C979 C980 1.523 . S
C980 C961 1.368 . S
C980 C974 1.368 1_556 S
C980 C979 1.523 . S
C981 C965 1.429 1_554 S
C981 C977 1.429 . S
C981 C982 1.523 . S
C982 C966 1.368 . S
C982 C978 1.368 1_554 S
C982 C981 1.523 . S
H983 C958 0.950 . S
H984 C960 0.950 . S
H985 C961 0.949 . S
H986 C963 0.950 . S
H987 C965 0.950 . S
C988 C989 1.349 . S
C988 C990 1.327 . S
C988 H1013 0.950 . S
C989 C988 1.349 . S
C989 C1005 1.349 . S
C990 C988 1.327 . S
C990 C1009 1.429 . S
C990 H1014 0.954 . S
C991 C1008 1.574 1_655 S
C991 C1010 1.368 . S
C991 H1015 0.949 . S
H992 C996 0.949 . S
C993 C994 1.349 . S
C993 C995 1.327 . S
C993 H1016 0.950 . S
C994 C993 1.349 . S
C994 C1006 1.349 . S
C995 C993 1.327 . S
C995 C1011 1.429 . S
C995 H1017 0.954 . S
C996 H992 0.949 . S
C996 C1004 1.574 1_455 S
C996 C1012 1.368 . S
H997 C1005 0.950 . S
H998 C1003 0.950 . S
H999 C1004 0.949 . S
H1000 C1006 0.950 . S
H1001 C1007 0.950 . S
H1002 C1008 0.949 . S
C1003 H998 0.950 . S
C1003 C1005 1.327 . S
C1003 C1009 1.429 . S
C1004 C996 1.574 1_655 S
C1004 H999 0.949 . S
C1004 C1010 1.368 1_556 S
C1005 C989 1.349 . S
C1005 H997 0.950 . S
C1005 C1003 1.327 . S
C1006 C994 1.349 . S
C1006 H1000 0.950 . S
C1006 C1007 1.327 . S
C1007 H1001 0.950 . S
C1007 C1006 1.327 . S
C1007 C1011 1.429 . S
C1008 C991 1.574 1_455 S
C1008 H1002 0.949 . S
C1008 C1012 1.368 1_554 S
C1009 C990 1.429 . S
C1009 C1003 1.429 . S
C1009 C1010 1.523 . S
C1010 C991 1.368 . S
C1010 C1004 1.368 1_554 S
C1010 C1009 1.523 . S
C1011 C995 1.429 . S
C1011 C1007 1.429 . S
C1011 C1012 1.523 . S
C1012 C996 1.368 . S
C1012 C1008 1.368 1_556 S
C1012 C1011 1.523 . S
H1013 C988 0.950 . S
H1014 C990 0.954 . S
H1015 C991 0.949 . S
H1016 C993 0.950 . S
H1017 C995 0.954 . S
C1018 C1019 1.343 1_654 S
C1018 C1020 1.327 . S
C1018 H1043 0.950 . S
C1019 C1018 1.343 1_456 S
C1019 C1035 1.355 . S
C1020 C1018 1.327 . S
C1020 C1039 1.427 1_654 S
C1020 H1044 0.950 . S
C1021 C1038 1.574 1_545 S
C1021 C1040 1.368 . S
C1021 H1045 0.949 . S
H1022 C1026 0.949 . S
C1023 C1024 1.341 1_456 S
C1023 C1025 1.327 . S
C1023 H1046 0.950 . S
C1024 C1023 1.341 1_654 S
C1024 C1036 1.358 . S
C1025 C1023 1.327 . S
C1025 C1041 1.425 1_456 S
C1025 H1047 0.950 . S
C1026 H1022 0.949 . S
C1026 C1034 1.574 1_565 S
C1026 C1042 1.370 . S
H1027 C1035 0.950 . S
H1028 C1033 0.950 . S
H1029 C1034 0.949 . S
H1030 C1036 0.950 . S
H1031 C1037 0.950 . S
H1032 C1038 0.949 . S
C1033 H1028 0.950 . S
C1033 C1035 1.327 . S
C1033 C1039 1.431 . S
C1034 C1026 1.574 1_545 S
C1034 H1029 0.949 . S
C1034 C1040 1.369 1_654 S
C1035 C1019 1.355 . S
C1035 H1027 0.950 . S
C1035 C1033 1.327 . S
C1036 C1024 1.358 . S
C1036 H1030 0.950 . S
C1036 C1037 1.327 . S
C1037 H1031 0.950 . S
C1037 C1036 1.327 . S
C1037 C1041 1.433 . S
C1038 C1021 1.574 1_565 S
C1038 H1032 0.949 . S
C1038 C1042 1.366 1_456 S
C1039 C1020 1.427 1_456 S
C1039 C1033 1.431 . S
C1039 C1040 1.523 . S
C1040 C1021 1.368 . S
C1040 C1034 1.369 1_456 S
C1040 C1039 1.523 . S
C1041 C1025 1.425 1_654 S
C1041 C1037 1.433 . S
C1041 C1042 1.523 . S
C1042 C1026 1.370 . S
C1042 C1038 1.366 1_654 S
C1042 C1041 1.523 . S
H1043 C1018 0.950 . S
H1044 C1020 0.950 . S
H1045 C1021 0.949 . S
H1046 C1023 0.950 . S
H1047 C1025 0.950 . S
C1048 C1049 1.373 . S
C1048 C1050 1.327 . S
C1048 H1073 0.950 . S
C1049 C1048 1.373 . S
C1049 C1065 1.325 1_545 S
C1050 C1048 1.327 . S
C1050 C1069 1.436 . S
C1050 H1074 0.950 . S
C1051 C1068 1.574 1_455 S
C1051 C1070 1.370 1_565 S
C1051 H1075 0.949 . S
H1052 C1056 0.949 . S
C1053 C1054 1.383 . S
C1053 C1055 1.327 . S
C1053 H1076 0.950 . S
C1054 C1053 1.383 . S
C1054 C1066 1.315 1_565 S
C1055 C1053 1.327 . S
C1055 C1071 1.445 . S
C1055 H1077 0.950 . S
C1056 H1052 0.949 . S
C1056 C1064 1.574 1_655 S
C1056 C1072 1.360 1_545 S
H1057 C1065 0.950 . S
H1058 C1063 0.950 . S
H1059 C1064 0.949 . S
H1060 C1066 0.950 . S
H1061 C1067 0.950 . S
H1062 C1068 0.949 . S
C1063 H1058 0.950 . S
C1063 C1065 1.327 . S
C1063 C1069 1.421 1_565 S
C1064 C1056 1.574 1_455 S
C1064 H1059 0.949 . S
C1064 C1070 1.367 . S
C1065 C1049 1.325 1_565 S
C1065 H1057 0.950 . S
C1065 C1063 1.327 . S
C1066 C1054 1.315 1_545 S
C1066 H1060 0.950 . S
C1066 C1067 1.327 . S
C1067 H1061 0.950 . S
C1067 C1066 1.327 . S
C1067 C1071 1.412 1_545 S
C1068 C1051 1.574 1_655 S
C1068 H1062 0.949 . S
C1068 C1072 1.377 . S
C1069 C1050 1.436 . S
C1069 C1063 1.421 1_545 S
C1069 C1070 1.523 . S
C1070 C1051 1.370 1_545 S
C1070 C1064 1.367 . S
C1070 C1069 1.523 . S
C1071 C1055 1.445 . S
C1071 C1067 1.412 1_565 S
C1071 C1072 1.523 . S
C1072 C1056 1.360 1_565 S
C1072 C1068 1.377 . S
C1072 C1071 1.523 . S
H1073 C1048 0.950 . S
H1074 C1050 0.950 . S
H1075 C1051 0.949 . S
H1076 C1053 0.950 . S
H1077 C1055 0.950 . S
C1078 C1079 1.349 . S
C1078 C1080 1.327 . S
C1078 H1103 0.950 . S
C1079 C1078 1.349 . S
C1079 C1095 1.349 . S
C1080 C1078 1.327 . S
C1080 C1099 1.429 . S
C1080 H1104 0.950 . S
C1081 C1098 1.574 1_565 S
C1081 C1100 1.368 . S
C1081 H1105 0.949 . S
H1082 C1086 0.949 . S
C1083 C1084 1.349 . S
C1083 C1085 1.327 . S
C1083 H1106 0.950 . S
C1084 C1083 1.349 . S
C1084 C1096 1.349 . S
C1085 C1083 1.327 . S
C1085 C1101 1.429 . S
C1085 H1107 0.950 . S
C1086 H1082 0.949 . S
C1086 C1094 1.574 1_545 S
C1086 C1102 1.368 . S
H1087 C1095 0.950 . S
H1088 C1093 0.950 . S
H1089 C1094 0.949 . S
H1090 C1096 0.950 . S
H1091 C1097 0.950 . S
H1092 C1098 0.949 . S
C1093 H1088 0.950 . S
C1093 C1095 1.327 . S
C1093 C1099 1.429 . S
C1094 C1086 1.574 1_565 S
C1094 H1089 0.949 . S
C1094 C1100 1.368 . S
C1095 C1079 1.349 . S
C1095 H1087 0.950 . S
C1095 C1093 1.327 . S
C1096 C1084 1.349 . S
C1096 H1090 0.950 . S
C1096 C1097 1.327 . S
C1097 H1091 0.950 . S
C1097 C1096 1.327 . S
C1097 C1101 1.429 . S
C1098 C1081 1.574 1_545 S
C1098 H1092 0.949 . S
C1098 C1102 1.368 . S
C1099 C1080 1.429 . S
C1099 C1093 1.429 . S
C1099 C1100 1.523 . S
C1100 C1081 1.368 . S
C1100 C1094 1.368 . S
C1100 C1099 1.523 . S
C1101 C1085 1.429 . S
C1101 C1097 1.429 . S
C1101 C1102 1.523 . S
C1102 C1086 1.368 . S
C1102 C1098 1.368 . S
C1102 C1101 1.523 . S
H1103 C1078 0.950 . S
H1104 C1080 0.950 . S
H1105 C1081 0.949 . S
H1106 C1083 0.950 . S
H1107 C1085 0.950 . S
C1108 C1109 1.349 . S
C1108 C1110 1.327 . S
C1108 H1133 0.950 . S
C1109 C1108 1.349 . S
C1109 C1125 1.349 . S
C1110 C1108 1.327 . S
C1110 C1129 1.429 . S
C1110 H1134 0.950 . S
C1111 C1128 1.574 . S
C1111 C1130 1.368 . S
C1111 H1135 0.949 . S
H1112 C1116 0.949 . S
C1113 C1114 1.349 . S
C1113 C1115 1.327 . S
C1113 H1136 0.950 . S
C1114 C1113 1.349 . S
C1114 C1126 1.349 . S
C1115 C1113 1.327 . S
C1115 C1131 1.429 . S
C1115 H1137 0.950 . S
C1116 H1112 0.949 . S
C1116 C1124 1.574 . S
C1116 C1132 1.368 . S
H1117 C1125 0.950 . S
H1118 C1123 0.950 . S
H1119 C1124 0.949 . S
H1120 C1126 0.950 . S
H1121 C1127 0.950 . S
H1122 C1128 0.949 . S
C1123 H1118 0.950 . S
C1123 C1125 1.327 . S
C1123 C1129 1.429 . S
C1124 C1116 1.574 . S
C1124 H1119 0.949 . S
C1124 C1130 1.368 . S
C1125 C1109 1.349 . S
C1125 H1117 0.950 . S
C1125 C1123 1.327 . S
C1126 C1114 1.349 . S
C1126 H1120 0.950 . S
C1126 C1127 1.327 . S
C1127 H1121 0.950 . S
C1127 C1126 1.327 . S
C1127 C1131 1.429 . S
C1128 C1111 1.574 . S
C1128 H1122 0.949 . S
C1128 C1132 1.368 . S
C1129 C1110 1.429 . S
C1129 C1123 1.429 . S
C1129 C1130 1.523 . S
C1130 C1111 1.368 . S
C1130 C1124 1.368 . S
C1130 C1129 1.523 . S
C1131 C1115 1.429 . S
C1131 C1127 1.429 . S
C1131 C1132 1.523 . S
C1132 C1116 1.368 . S
C1132 C1128 1.368 . S
C1132 C1131 1.523 . S
H1133 C1108 0.950 . S
H1134 C1110 0.950 . S
H1135 C1111 0.949 . S
H1136 C1113 0.950 . S
H1137 C1115 0.950 . S
C1138 C1139 1.329 1_455 S
C1138 C1140 1.327 . S
C1138 H1163 0.950 . S
C1139 C1138 1.329 1_655 S
C1139 C1155 1.371 . S
C1140 C1138 1.327 . S
C1140 C1159 1.421 1_455 S
C1140 H1164 0.950 . S
C1141 C1158 1.574 . S
C1141 C1160 1.369 . S
C1141 H1165 0.949 . S
H1142 C1146 0.949 . S
C1143 C1144 1.349 1_655 S
C1143 C1145 1.327 . S
C1143 H1166 0.950 . S
C1144 C1143 1.349 1_455 S
C1144 C1156 1.349 . S
C1145 C1143 1.327 . S
C1145 C1161 1.416 1_655 S
C1145 H1167 0.950 . S
C1146 H1142 0.949 . S
C1146 C1154 1.574 . S
C1146 C1162 1.375 . S
H1147 C1155 0.950 . S
H1148 C1153 0.950 . S
H1149 C1154 0.949 . S
H1150 C1156 0.950 . S
H1151 C1157 0.950 . S
H1152 C1158 0.949 . S
C1153 H1148 0.950 . S
C1153 C1155 1.327 . S
C1153 C1159 1.436 . S
C1154 C1146 1.574 . S
C1154 H1149 0.949 . S
C1154 C1160 1.368 1_455 S
C1155 C1139 1.371 . S
C1155 H1147 0.950 . S
C1155 C1153 1.327 . S
C1156 C1144 1.349 . S
C1156 H1150 0.950 . S
C1156 C1157 1.327 . S
C1157 H1151 0.950 . S
C1157 C1156 1.327 . S
C1157 C1161 1.442 . S
C1158 C1141 1.574 . S
C1158 H1152 0.949 . S
C1158 C1162 1.362 1_655 S
C1159 C1140 1.421 1_655 S
C1159 C1153 1.436 . S
C1159 C1160 1.523 . S
C1160 C1141 1.369 . S
C1160 C1154 1.368 1_655 S
C1160 C1159 1.523 . S
C1161 C1145 1.416 1_455 S
C1161 C1157 1.442 . S
C1161 C1162 1.523 . S
C1162 C1146 1.375 . S
C1162 C1158 1.362 1_455 S
C1162 C1161 1.523 . S
H1163 C1138 0.950 . S
H1164 C1140 0.950 . S
H1165 C1141 0.949 . S
H1166 C1143 0.950 . S
H1167 C1145 0.950 . S
C209 C66 0.530 . S
C214 C10 0.445 . S
C239 C88 0.590 . S
C244 C14 0.618 . S
C269 C36 0.455 . S
C274 C92 0.511 . S
C299 C40 0.419 . S
C304 C62 0.255 . S
C329 C114 0.510 . S
C334 C179 0.527 . S
C359 C192 0.618 . S
C364 C127 0.618 . S
C389 C205 0.510 . S
C394 C140 0.527 . S
C419 C153 0.419 . S
C424 C166 0.420 . S
C449 C5 2.138 1_556 S
C454 C157 2.120 1_565 S
C479 C170 2.192 . S
C484 C16 2.122 1_556 S
C509 C31 2.299 1_556 S
C514 C183 2.291 . S
C539 C42 2.105 1_556 S
C544 C196 2.183 1_655 S
C569 C57 2.196 . S
C574 C105 2.183 1_545 S
C599 C68 2.201 . S
C604 C118 2.291 . S
C629 C83 2.209 . S
C634 C131 2.192 . S
C659 C94 2.052 . S
C664 C144 2.120 1_455 S
C689 C53 2.089 . S
C694 C109 2.052 1_554 S
C719 C75 2.192 . S
C724 C122 2.122 1_554 S
C749 C79 2.269 . S
C754 C135 2.201 1_554 S
C779 C148 2.105 1_554 S
C784 C101 2.183 1_455 S
C809 C1 2.151 . S
C814 C161 2.105 . S
C839 C174 2.201 . S
C844 C23 2.291 . S
C869 C187 2.122 . S
C874 C27 2.176 . S
C899 C49 2.120 1_655 S
C904 C200 2.052 . S
C929 C107 1.417 1_545 S
C934 C3 1.402 . S
C959 C120 1.432 . S
C964 C18 1.432 . S
C989 C29 1.639 . S
C994 C133 1.638 . S
C1019 C146 1.618 1_455 S
C1024 C44 1.618 1_655 S
C1049 C55 1.600 . S
C1054 C159 1.617 1_565 S
C1079 C172 1.638 . S
C1084 C70 1.638 . S
C1109 C185 1.432 . S
C1114 C81 1.429 . S
C1139 C198 1.417 1_655 S
C1144 C96 1.424 1_455 S
