# Generated by pormake.
# Topology snz, (6)-cn, num edge types: 1
# Building blocks:
#     Node 0, Type 0, BuildingBlock: BETDEL_clean_sbu_0, # of connection points: 6
#     Node 1, Type 0, BuildingBlock: BETDEL_clean_sbu_0, # of connection points: 6
#     Node 2, Type 0, BuildingBlock: BETDEL_clean_sbu_0, # of connection points: 6
#     Node 3, Type 0, BuildingBlock: BETDEL_clean_sbu_0, # of connection points: 6
#     Node 4, Type 0, BuildingBlock: BETDEL_clean_sbu_0, # of connection points: 6
#     Node 5, Type 0, BuildingBlock: BETDEL_clean_sbu_0, # of connection points: 6
#     Node 6, Type 0, BuildingBlock: BETDEL_clean_sbu_0, # of connection points: 6
#     Node 7, Type 0, BuildingBlock: BETDEL_clean_sbu_0, # of connection points: 6
#     Node 8, Type 0, BuildingBlock: BETDEL_clean_sbu_0, # of connection points: 6
#     Edge 9, Type (0, 0), BuildingBlock: KIFKEQ_clean_linker_1, # of connection points: 2
#     Edge 10, Type (0, 0), BuildingBlock: KIFKEQ_clean_linker_1, # of connection points: 2
#     Edge 11, Type (0, 0), BuildingBlock: KIFKEQ_clean_linker_1, # of connection points: 2
#     Edge 12, Type (0, 0), BuildingBlock: KIFKEQ_clean_linker_1, # of connection points: 2
#     Edge 13, Type (0, 0), BuildingBlock: KIFKEQ_clean_linker_1, # of connection points: 2
#     Edge 14, Type (0, 0), BuildingBlock: KIFKEQ_clean_linker_1, # of connection points: 2
#     Edge 15, Type (0, 0), BuildingBlock: KIFKEQ_clean_linker_1, # of connection points: 2
#     Edge 16, Type (0, 0), BuildingBlock: KIFKEQ_clean_linker_1, # of connection points: 2
#     Edge 17, Type (0, 0), BuildingBlock: KIFKEQ_clean_linker_1, # of connection points: 2
#     Edge 18, Type (0, 0), BuildingBlock: KIFKEQ_clean_linker_1, # of connection points: 2
#     Edge 19, Type (0, 0), BuildingBlock: KIFKEQ_clean_linker_1, # of connection points: 2
#     Edge 20, Type (0, 0), BuildingBlock: KIFKEQ_clean_linker_1, # of connection points: 2
#     Edge 21, Type (0, 0), BuildingBlock: KIFKEQ_clean_linker_1, # of connection points: 2
#     Edge 22, Type (0, 0), BuildingBlock: KIFKEQ_clean_linker_1, # of connection points: 2
#     Edge 23, Type (0, 0), BuildingBlock: KIFKEQ_clean_linker_1, # of connection points: 2
#     Edge 24, Type (0, 0), BuildingBlock: KIFKEQ_clean_linker_1, # of connection points: 2
#     Edge 25, Type (0, 0), BuildingBlock: KIFKEQ_clean_linker_1, # of connection points: 2
#     Edge 26, Type (0, 0), BuildingBlock: KIFKEQ_clean_linker_1, # of connection points: 2
#     Edge 27, Type (0, 0), BuildingBlock: KIFKEQ_clean_linker_1, # of connection points: 2
#     Edge 28, Type (0, 0), BuildingBlock: KIFKEQ_clean_linker_1, # of connection points: 2
#     Edge 29, Type (0, 0), BuildingBlock: KIFKEQ_clean_linker_1, # of connection points: 2
#     Edge 30, Type (0, 0), BuildingBlock: KIFKEQ_clean_linker_1, # of connection points: 2
#     Edge 31, Type (0, 0), BuildingBlock: KIFKEQ_clean_linker_1, # of connection points: 2
#     Edge 32, Type (0, 0), BuildingBlock: KIFKEQ_clean_linker_1, # of connection points: 2
#     Edge 33, Type (0, 0), BuildingBlock: KIFKEQ_clean_linker_1, # of connection points: 2
#     Edge 34, Type (0, 0), BuildingBlock: KIFKEQ_clean_linker_1, # of connection points: 2
#     Edge 35, Type (0, 0), BuildingBlock: KIFKEQ_clean_linker_1, # of connection points: 2
# Relax obj value: 0.180
# Max RMSD: 0.228
# Mean RMSD: 0.174
data_MOF--net-snz--node1-BETDEL_clean_sbu_0--edge1-KIFKEQ_clean_linker_1
_symmetry_space_group_name_H-M    P1
_symmetry_Int_Tables_number       1
_symmetry_cell_setting            triclinic
loop_
_symmetry_equiv_pos_as_xyz
'x, y, z'
_cell_length_a     52.814678
_cell_length_b     54.007627
_cell_length_c     14.839871
_cell_angle_alpha  91.961598
_cell_angle_beta   92.455852
_cell_angle_gamma 120.04585
loop_
_atom_site_label
_atom_site_type_symbol
_atom_site_fract_x
_atom_site_fract_y
_atom_site_fract_z
_atom_type_partial_charge
Dy0 Dy 0.08433 0.47585 0.0231 0.0
C1 C 1.00194 0.50967 0.92356 0.0
C2 C 0.11994 0.45721 0.09486 0.0
Dy3 Dy 0.0349 0.48698 0.98769 0.0
O4 O 0.12304 0.46903 0.01833 0.0
O5 O 0.09747 0.45566 0.13223 0.0
O6 O 0.10193 0.49186 0.88882 0.0
O7 O 0.05659 0.47099 0.90071 0.0
C8 C 0.07666 0.48459 0.84821 0.0
C9 C 0.04357 0.47881 0.16267 0.0
O10 O 0.01127 0.4405 0.94108 0.0
O11 O 0.04496 0.43113 0.01359 0.0
O12 O 0.99594 0.49366 0.99189 0.0
O13 O 0.0253 0.51244 0.88916 0.0
O14 O 0.01796 0.47044 0.1227 0.0
O15 O 0.06313 0.49265 0.10914 0.0
O16 O 0.10885 0.52279 0.06243 0.0
O17 O 0.07446 0.53116 0.99031 0.0
C18 C 0.01903 0.42215 0.97032 0.0
C19 C 0.10085 0.54057 0.03021 0.0
Dy20 Dy 0.60409 0.53823 0.08021 0.0
C21 C 0.57432 0.42636 0.9618 0.0
C22 C 0.61995 0.59157 0.15266 0.0
Dy23 Dy 0.596 0.47979 0.04458 0.0
O24 O 0.60863 0.5818 0.07095 0.0
O25 O 0.62268 0.57226 0.19458 0.0
O26 O 0.58509 0.53598 0.93904 0.0
O27 O 0.61031 0.5166 0.96241 0.0
C28 C 0.59493 0.52043 0.9032 0.0
C29 C 0.60494 0.49672 0.22195 0.0
O30 O 0.64378 0.50525 0.02103 0.0
O31 O 0.65098 0.54786 0.08814 0.0
O32 O 0.58916 0.43488 0.03991 0.0
O33 O 0.57228 0.44723 0.92866 0.0
O34 O 0.61332 0.47993 0.18577 0.0
O35 O 0.59012 0.50145 0.16297 0.0
O36 O 0.55655 0.51332 0.1052 0.0
O37 O 0.54938 0.47069 0.03968 0.0
C38 C 0.66145 0.53212 0.05314 0.0
C39 C 0.53894 0.48648 0.07389 0.0
Dy40 Dy 0.5414 0.99737 0.09032 0.0
C41 C 0.65875 0.08197 0.03554 0.0
C42 C 0.48481 0.95951 0.12593 0.0
Dy43 Dy 0.6027 0.04695 0.08339 0.0
O44 O 0.49274 0.97459 0.05565 0.0
O45 O 0.50781 0.965 0.17699 0.0
O46 O 0.54398 0.98085 0.95149 0.0
O47 O 0.56553 0.02505 0.98334 0.0
C48 C 0.56114 0.00602 0.9229 0.0
C49 C 0.58364 0.03911 0.25132 0.0
O50 O 0.57874 0.07073 0.06141 0.0
O51 O 0.53545 0.03552 0.11442 0.0
O52 O 0.65166 0.07241 0.115 0.0
O53 O 0.63515 0.07306 0.98295 0.0
O54 O 0.6016 0.06404 0.22218 0.0
O55 O 0.57848 0.01961 0.19126 0.0
O56 O 0.56488 0.97345 0.11586 0.0
O57 O 0.60871 0.00865 0.06635 0.0
C58 C 0.55187 0.06167 0.08662 0.0
C59 C 0.59194 0.98249 0.09329 0.0
Dy60 Dy 0.78458 0.85249 0.3955 0.0
C61 C 0.6985 0.88103 0.28936 0.0
C62 C 0.8195 0.83055 0.44693 0.0
Dy63 Dy 0.7345 0.86324 0.36357 0.0
O64 O 0.80605 0.82624 0.36793 0.0
O65 O 0.81456 0.84757 0.49755 0.0
O66 O 0.80177 0.87159 0.26348 0.0
O67 O 0.7564 0.84787 0.27549 0.0
C68 C 0.77603 0.86262 0.22315 0.0
C69 C 0.74218 0.85343 0.5372 0.0
O70 O 0.71135 0.81651 0.32395 0.0
O71 O 0.74465 0.80935 0.40761 0.0
O72 O 0.69493 0.86878 0.36532 0.0
O73 O 0.72167 0.88351 0.25419 0.0
O74 O 0.71691 0.84666 0.49741 0.0
O75 O 0.76213 0.86722 0.48453 0.0
O76 O 0.80959 0.8995 0.43381 0.0
O77 O 0.77316 0.90826 0.37905 0.0
C78 C 0.71904 0.79918 0.3614 0.0
C79 C 0.80016 0.91742 0.41413 0.0
Dy80 Dy 0.22378 0.86471 0.3571 0.0
C81 C 0.19635 0.74883 0.22318 0.0
C82 C 0.24736 0.91759 0.44388 0.0
Dy83 Dy 0.21176 0.79997 0.31074 0.0
O84 O 0.22125 0.90386 0.40231 0.0
O85 O 0.25971 0.90204 0.43997 0.0
O86 O 0.21918 0.8745 0.21048 0.0
O87 O 0.21586 0.83617 0.24023 0.0
C88 C 0.21583 0.85053 0.17506 0.0
C89 C 0.21789 0.81342 0.49313 0.0
O90 O 0.2584 0.82694 0.27584 0.0
O91 O 0.26861 0.87096 0.34413 0.0
O92 O 0.21949 0.76338 0.27853 0.0
O93 O 0.18189 0.76239 0.21517 0.0
O94 O 0.21273 0.78884 0.45737 0.0
O95 O 0.22009 0.82869 0.42806 0.0
O96 O 0.17772 0.83696 0.39685 0.0
O97 O 0.16661 0.79388 0.31799 0.0
C98 C 0.27676 0.85424 0.3023 0.0
C99 C 0.15887 0.81019 0.36494 0.0
Dy100 Dy 0.21496 0.28916 0.31082 0.0
C101 C 0.33015 0.37467 0.24094 0.0
C102 C 0.16045 0.25756 0.37336 0.0
Dy103 Dy 0.27579 0.33868 0.29765 0.0
O104 O 0.16794 0.25252 0.29546 0.0
O105 O 0.18285 0.27915 0.41699 0.0
O106 O 0.21415 0.27198 0.16994 0.0
O107 O 0.23768 0.31639 0.20083 0.0
C108 C 0.23187 0.29687 0.14013 0.0
C109 C 0.25798 0.33039 0.46785 0.0
O110 O 0.25157 0.36158 0.26402 0.0
O111 O 0.20751 0.32679 0.31322 0.0
O112 O 0.32112 0.3775 0.31862 0.0
O113 O 0.30958 0.35219 0.1948 0.0
O114 O 0.27498 0.3555 0.43838 0.0
O115 O 0.25315 0.31133 0.40699 0.0
O116 O 0.23953 0.26644 0.34482 0.0
O117 O 0.28391 0.30138 0.29657 0.0
C118 C 0.22442 0.3528 0.28541 0.0
C119 C 0.26696 0.2754 0.32507 0.0
Dy120 Dy 0.42525 0.16837 0.63678 0.0
C121 C 0.37888 0.17415 0.9647 0.0
C122 C 0.44075 0.14416 0.50292 0.0
Dy123 Dy 0.3952 0.17221 0.79428 0.0
O124 O 0.45815 0.16918 0.54392 0.0
O125 O 0.41485 0.13336 0.53311 0.0
O126 O 0.44661 0.21519 0.61844 0.0
O127 O 0.43911 0.20036 0.75015 0.0
C128 C 0.44817 0.22221 0.70416 0.0
C129 C 0.36408 0.12446 0.68609 0.0
O130 O 0.38441 0.19759 0.70227 0.0
O131 O 0.39026 0.17622 0.57337 0.0
O132 O 0.36363 0.15455 0.90109 0.0
O133 O 0.40093 0.19504 0.92893 0.0
O134 O 0.35276 0.13873 0.72084 0.0
O135 O 0.39086 0.13627 0.71135 0.0
O136 O 0.45034 0.15865 0.73931 0.0
O137 O 0.42356 0.15665 0.86093 0.0
C138 C 0.38008 0.1915 0.61393 0.0
C139 C 0.44471 0.154 0.82485 0.0
Dy140 Dy 0.92345 0.16965 0.78777 0.0
C141 C 0.86157 0.16144 0.45625 0.0
C142 C 0.95947 0.19156 0.94178 0.0
Dy143 Dy 0.89405 0.16811 0.61277 0.0
O144 O 0.94211 0.16445 0.91899 0.0
O145 O 0.95793 0.20634 0.87699 0.0
O146 O 0.89876 0.12185 0.79105 0.0
O147 O 0.90959 0.14075 0.66617 0.0
C148 C 0.89548 0.11742 0.70351 0.0
C149 C 0.92351 0.22006 0.69974 0.0
O150 O 0.85559 0.14499 0.69683 0.0
O151 O 0.8809 0.1627 0.83602 0.0
O152 O 0.86856 0.18092 0.52093 0.0
O153 O 0.87089 0.14438 0.48125 0.0
O154 O 0.92301 0.21569 0.61315 0.0
O155 O 0.90761 0.19673 0.73498 0.0
O156 O 0.96118 0.18515 0.69975 0.0
O157 O 0.93633 0.17556 0.55914 0.0
C158 C 0.85592 0.14933 0.78527 0.0
C159 C 0.96077 0.18396 0.61045 0.0
Dy160 Dy 0.89146 0.65416 0.62699 0.0
C161 C 0.9595 0.70194 0.94889 0.0
C162 C 0.86268 0.62926 0.46329 0.0
Dy163 Dy 0.92771 0.68842 0.78754 0.0
O164 O 0.87094 0.61743 0.52317 0.0
O165 O 0.86931 0.65463 0.49559 0.0
O166 O 0.88524 0.61482 0.69156 0.0
O167 O 0.92594 0.65279 0.70961 0.0
C168 C 0.91153 0.62703 0.7298 0.0
C169 C 0.90865 0.717 0.6892 0.0
O170 O 0.96329 0.70618 0.69383 0.0
O171 O 0.93361 0.68371 0.5631 0.0
O172 O 0.94246 0.71179 0.92388 0.0
O173 O 0.95975 0.68568 0.88318 0.0
O174 O 0.93366 0.72916 0.73662 0.0
O175 O 0.89379 0.69062 0.70346 0.0
O176 O 0.85525 0.6443 0.71467 0.0
O177 O 0.88478 0.65748 0.84682 0.0
C178 C 0.95942 0.70194 0.60514 0.0
C179 C 0.85837 0.64416 0.80327 0.0
H180 H 0.11636 0.49639 0.72088 0.0
H181 H 0.02605 0.47205 0.74898 0.0
H182 H 0.10858 0.49401 0.55744 0.0
H183 H 0.0184 0.47131 0.58521 0.0
H184 H 1.00431 0.44673 0.28358 0.0
H185 H 0.01218 0.44776 0.44702 0.0
H186 H 0.10254 0.51424 0.43153 0.0
H187 H 0.09478 0.51176 0.26758 0.0
C188 C 0.09485 0.49088 0.69203 0.0
C189 C 0.07183 0.48436 0.74825 0.0
C190 C 0.09037 0.48972 0.59767 0.0
C191 C 0.06278 0.48249 0.55616 0.0
C192 C 0.03984 0.47638 0.61317 0.0
C193 C 0.04424 0.47708 0.70764 0.0
C194 C 0.02591 0.46141 0.31527 0.0
C195 C 0.04891 0.4791 0.26237 0.0
C196 C 0.03043 0.46227 0.40961 0.0
C197 C 0.05804 0.48123 0.45447 0.0
C198 C 0.08106 0.49891 0.40075 0.0
C199 C 0.07662 0.49767 0.3062 0.0
H200 H 0.63142 0.50715 0.8143 0.0
H201 H 0.5604 0.52383 0.76706 0.0
H202 H 0.63485 0.50283 0.65204 0.0
H203 H 0.56239 0.51783 0.60432 0.0
H204 H 0.58799 0.53058 0.3133 0.0
H205 H 0.58611 0.53667 0.47619 0.0
H206 H 0.616 0.47631 0.51814 0.0
H207 H 0.61959 0.4719 0.35633 0.0
C208 C 0.61619 0.50946 0.76901 0.0
C209 C 0.59566 0.51588 0.8038 0.0
C210 C 0.61799 0.5068 0.6753 0.0
C211 C 0.59891 0.50993 0.6131 0.0
C212 C 0.57799 0.51585 0.64869 0.0
C213 C 0.57657 0.51902 0.74248 0.0
C214 C 0.59444 0.51888 0.35764 0.0
C215 C 0.60412 0.5009 0.32156 0.0
C216 C 0.59305 0.52208 0.45152 0.0
C217 C 0.60081 0.50697 0.51224 0.0
C218 C 0.61039 0.4889 0.47523 0.0
C219 C 0.61226 0.48614 0.38169 0.0
H220 H 0.57651 0.05562 0.8396 0.0
H221 H 0.55601 0.96836 0.78575 0.0
H222 H 0.5804 0.06328 0.67891 0.0
H223 H 0.56161 0.97625 0.62519 0.0
H224 H 0.54745 0.98906 0.32988 0.0
H225 H 0.54182 0.98131 0.49069 0.0
H226 H 0.60673 0.07045 0.55485 0.0
H227 H 0.6107 0.07826 0.39466 0.0
C228 C 0.57331 0.03817 0.79335 0.0
C229 C 0.5659 0.01136 0.82555 0.0
C230 C 0.5757 0.04257 0.70065 0.0
C231 C 0.57132 0.02043 0.63724 0.0
C232 C 0.56452 0.99375 0.67045 0.0
C233 C 0.56162 0.98924 0.76303 0.0
C234 C 0.56023 0.007 0.37859 0.0
C235 C 0.57939 0.03429 0.34921 0.0
C236 C 0.55731 1.00255 0.47132 0.0
C237 C 0.57387 0.02517 0.53755 0.0
C238 C 0.59305 0.05247 0.50727 0.0
C239 C 0.59553 0.05698 0.41476 0.0
H240 H 0.79324 0.86749 0.63663 0.0
H241 H 0.70247 0.84133 0.66459 0.0
H242 H 0.80123 0.86932 0.80063 0.0
H243 H 0.71055 0.84482 0.82803 0.0
H244 H 0.72516 0.82873 0.11858 0.0
H245 H 0.71735 0.82549 0.95475 0.0
H246 H 0.80702 0.89339 0.93792 0.0
H247 H 0.81502 0.8952 0.10174 0.0
C248 C 0.775 0.86223 0.67793 0.0
C249 C 0.7472 0.85411 0.63724 0.0
C250 C 0.77961 0.86358 0.77252 0.0
C251 C 0.75662 0.85731 0.82946 0.0
C252 C 0.72881 0.84926 0.78787 0.0
C253 C 0.72415 0.84745 0.69347 0.0
C254 C 0.74317 0.843 0.07978 0.0
C255 C 0.77074 0.86219 0.1234 0.0
C256 C 0.73868 0.84131 0.98524 0.0
C257 C 0.76149 0.85915 0.93119 0.0
C258 C 0.78895 0.87876 0.97573 0.0
C259 C 0.79354 0.88008 0.07022 0.0
H260 H 0.23258 0.86482 0.58718 0.0
H261 H 0.20214 0.77572 0.62448 0.0
H262 H 0.23238 0.87341 0.75034 0.0
H263 H 0.20033 0.78358 0.78537 0.0
H264 H 0.22262 0.80836 0.08747 0.0
H265 H 0.22427 0.80048 0.92504 0.0
H266 H 0.20639 0.86885 0.87498 0.0
H267 H 0.20634 0.8774 0.03697 0.0
C268 C 0.22565 0.84702 0.63008 0.0
C269 C 0.21755 0.81962 0.5923 0.0
C270 C 0.22526 0.85181 0.72418 0.0
C271 C 0.21637 0.82924 0.78337 0.0
C272 C 0.208 0.80183 0.74428 0.0
C273 C 0.20878 0.7972 0.65095 0.0
C274 C 0.21885 0.82152 0.04151 0.0
C275 C 0.21423 0.84343 0.07563 0.0
C276 C 0.21969 0.81701 0.94763 0.0
C277 C 0.21554 0.83402 0.88457 0.0
C278 C 0.21038 0.85558 0.91968 0.0
C279 C 0.20997 0.8603 0.01328 0.0
H280 H 0.26329 0.36822 0.60496 0.0
H281 H 0.24188 0.28068 0.55192 0.0
H282 H 0.25665 0.36025 0.7651 0.0
H283 H 0.23693 0.27289 0.71243 0.0
H284 H 0.20543 0.25782 0.99576 0.0
H285 H 0.21038 0.26571 0.83564 0.0
H286 H 0.27467 0.35492 0.90167 0.0
H287 H 0.268 0.34709 0.06199 0.0
C288 C 0.25731 0.34726 0.62777 0.0
C289 C 0.25305 0.3251 0.56542 0.0
C290 C 0.25377 0.34268 0.72026 0.0
C291 C 0.24635 0.31587 0.75383 0.0
C292 C 0.24208 0.29371 0.69059 0.0
C293 C 0.2451 0.29819 0.59792 0.0
C294 C 0.22064 0.27914 0.97605 0.0
C295 C 0.23634 0.30179 0.04209 0.0
C296 C 0.22371 0.28371 0.88354 0.0
C297 C 0.24305 0.31104 0.85363 0.0
C298 C 0.25909 0.33364 0.92044 0.0
C299 C 0.25557 0.32913 0.01305 0.0
H300 H 0.40563 0.09338 0.40921 0.0
H301 H 0.48538 0.17407 0.39327 0.0
H302 H 0.38999 0.09611 0.25751 0.0
H303 H 0.47125 0.17577 0.23652 0.0
H304 H 0.41498 0.20779 0.10802 0.0
H305 H 0.43839 0.19224 0.21861 0.0
H306 H 0.38165 0.10418 0.11563 0.0
H307 H 0.35632 0.11952 0.0135 0.0
C308 C 0.42087 0.11072 0.37054 0.0
C309 C 0.4451 0.13495 0.41413 0.0
C310 C 0.41179 0.11246 0.28292 0.0
C311 C 0.42817 0.13775 0.23832 0.0
C312 C 0.45705 0.15723 0.27274 0.0
C313 C 0.46555 0.15593 0.36181 0.0
C314 C 0.40673 0.18505 0.11234 0.0
C315 C 0.38406 0.16499 0.05186 0.0
C316 C 0.42089 0.1761 0.17303 0.0
C317 C 0.41302 0.14697 0.173 0.0
C318 C 0.38867 0.12677 0.11737 0.0
C319 C 0.37384 0.13562 0.05931 0.0
H320 H 0.84896 0.12583 0.30656 0.0
H321 H 0.87806 0.21369 0.3928 0.0
H322 H 0.88205 0.14222 0.1852 0.0
H323 H 0.91266 0.23018 0.27604 0.0
H324 H 0.96123 0.24009 1.00766 0.0
H325 H 0.92901 0.23467 0.12652 0.0
H326 H 0.93489 0.16214 0.21469 0.0
H327 H 0.96505 0.16619 0.09051 0.0
C328 C 0.86134 0.14859 0.29677 0.0
C329 C 0.86245 0.16853 0.36182 0.0
C330 C 0.88101 0.15804 0.22937 0.0
C331 C 0.90154 0.18743 0.22666 0.0
C332 C 0.89792 0.20737 0.27912 0.0
C333 C 0.87768 0.19782 0.34517 0.0
C334 C 0.95671 0.22376 0.05495 0.0
C335 C 0.96341 0.20205 0.03633 0.0
C336 C 0.93788 0.22045 0.12238 0.0
C337 C 0.92761 0.19654 0.17462 0.0
C338 C 0.94089 0.17955 0.17062 0.0
C339 C 0.95899 0.18244 0.10161 0.0
H340 H 0.84615 0.65016 0.32268 0.0
H341 H 0.8836 0.59736 0.38699 0.0
H342 H 0.87781 0.6684 0.19827 0.0
H343 H 0.9171 0.61744 0.26894 0.0
H344 H 0.96447 0.65761 1.00909 0.0
H345 H 0.93312 0.62999 0.12462 0.0
H346 H 0.92885 0.70418 0.22145 0.0
H347 H 0.95819 0.731 0.10016 0.0
C348 C 0.86018 0.64148 0.30751 0.0
C349 C 0.86387 0.62384 0.36705 0.0
C350 C 0.87902 0.65261 0.23848 0.0
C351 C 0.90154 0.64613 0.2295 0.0
C352 C 0.90075 0.62371 0.2766 0.0
C353 C 0.88118 0.61189 0.34361 0.0
C354 C 0.95794 0.66845 0.05761 0.0
C355 C 0.96186 0.69568 0.04269 0.0
C356 C 0.93955 0.6524 0.12314 0.0
C357 C 0.9267 0.66434 0.17709 0.0
C358 C 0.9368 0.69388 0.17599 0.0
C359 C 0.95443 0.70959 0.1087 0.0
H360 H 0.1688 0.34082 0.31493 0.0
H361 H 0.25034 0.40628 0.21911 0.0
H362 H 0.14574 0.36853 0.27543 0.0
H363 H 0.22732 0.43446 0.18162 0.0
H364 H 0.16418 0.45464 0.01532 0.0
H365 H 0.19133 0.43187 0.06978 0.0
H366 H 0.14382 0.41115 0.31183 0.0
H367 H 0.11616 0.43327 0.25583 0.0
C368 C 0.18198 0.36133 0.2866 0.0
C369 C 0.21141 0.37119 0.26964 0.0
C370 C 0.16875 0.37735 0.26445 0.0
C371 C 0.18462 0.40372 0.22501 0.0
C372 C 0.21434 0.41404 0.21065 0.0
C373 C 0.22759 0.39796 0.23272 0.0
C374 C 0.15975 0.4454 0.08045 0.0
C375 C 0.13797 0.44552 0.13112 0.0
C376 C 0.17543 0.43252 0.11202 0.0
C377 C 0.1697 0.41955 0.19511 0.0
C378 C 0.14847 0.42051 0.24693 0.0
C379 C 0.13273 0.43331 0.21515 0.0
H380 H 0.62221 0.636 0.065 0.0
H381 H 0.64003 0.61283 0.32581 0.0
H382 H 0.64267 0.68546 0.12457 0.0
H383 H 0.65961 0.66206 0.38669 0.0
H384 H 0.66538 0.76953 0.26699 0.0
H385 H 0.63735 0.71822 0.22487 0.0
H386 H 0.70295 0.7069 0.37159 0.0
H387 H 0.73035 0.75772 0.41577 0.0
C388 C 0.6301 0.64146 0.1355 0.0
C389 C 0.62985 0.62077 0.19067 0.0
C390 C 0.64162 0.66973 0.16992 0.0
C391 C 0.65294 0.67781 0.2604 0.0
C392 C 0.65156 0.65671 0.31632 0.0
C393 C 0.64024 0.6285 0.28167 0.0
C394 C 0.67356 0.75599 0.2914 0.0
C395 C 0.7002 0.76778 0.34431 0.0
C396 C 0.65759 0.72661 0.26673 0.0
C397 C 0.66798 0.70843 0.29424 0.0
C398 C 0.69405 0.72013 0.35008 0.0
C399 C 0.7099 0.74941 0.37502 0.0
H400 H 0.46441 0.92122 0.2575 0.0
H401 H 0.43627 0.95615 0.04366 0.0
H402 H 0.41349 0.89297 0.29933 0.0
H403 H 0.38577 0.92852 0.08672 0.0
H404 H 0.31495 0.91106 0.29108 0.0
H405 H 0.36502 0.93387 0.24544 0.0
H406 H 0.3593 0.85146 0.21574 0.0
H407 H 0.30846 0.82812 0.26001 0.0
C408 C 0.44732 0.92264 0.21914 0.0
C409 C 0.45417 0.94089 0.14766 0.0
C410 C 0.41829 0.90645 0.24278 0.0
C411 C 0.39591 0.90875 0.1963 0.0
C412 C 0.40274 0.92652 0.12367 0.0
C413 C 0.43157 0.94225 0.09906 0.0
C414 C 0.32428 0.89768 0.27547 0.0
C415 C 0.30769 0.86773 0.2792 0.0
C416 C 0.3529 0.91079 0.24885 0.0
C417 C 0.36582 0.89436 0.2268 0.0
C418 C 0.34969 0.86451 0.23259 0.0
C419 C 0.32068 0.85122 0.25762 0.0
H420 H 0.57788 0.11661 0.03257 0.0
H421 H 0.49519 0.04792 0.11063 0.0
H422 H 0.55383 0.14314 0.98715 0.0
H423 H 0.47108 0.07419 0.06312 0.0
H424 H 0.43634 0.13408 0.99624 0.0
H425 H 0.46431 0.11601 0.0792 0.0
H426 H 0.52071 0.13499 0.85838 0.0
H427 H 0.4935 0.15327 0.77735 0.0
C428 C 0.55467 0.10731 0.04132 0.0
C429 C 0.53844 0.07991 0.07403 0.0
C430 C 0.54083 0.12248 0.01483 0.0
C431 C 0.51039 0.11058 0.01992 0.0
C432 C 0.49455 0.08407 0.05855 0.0
C433 C 0.50841 0.06893 0.08537 0.0
C434 C 0.45494 0.13468 0.96617 0.0
C435 C 0.46248 0.14493 0.87979 0.0
C436 C 0.47089 0.12423 0.01348 0.0
C437 C 0.49484 0.12408 0.97559 0.0
C438 C 0.50278 0.13518 0.89054 0.0
C439 C 0.48688 0.14543 0.84345 0.0
H440 H 0.94984 0.27117 0.62312 0.0
H441 H 0.92416 0.23379 0.87975 0.0
H442 H 0.9693 0.31888 0.69654 0.0
H443 H 0.94444 0.28193 0.95409 0.0
H444 H 0.02209 0.37737 0.03991 0.0
H445 H 0.99635 0.32735 0.98052 0.0
H446 H 0.9489 0.347 0.7786 0.0
H447 H 0.97438 0.39694 0.83804 0.0
C448 C 0.94842 0.27317 0.69536 0.0
C449 C 0.93564 0.2488 0.74586 0.0
C450 C 0.95939 0.30048 0.73727 0.0
C451 C 0.9582 0.30409 0.83087 0.0
C452 C 0.94567 0.27974 0.88181 0.0
C453 C 0.93418 0.25227 0.83943 0.0
C454 C 1.00581 0.37093 0.98379 0.0
C455 C 1.00044 0.39119 0.94329 0.0
C456 C 0.99101 0.34226 0.9501 0.0
C457 C 0.97086 0.33339 0.87447 0.0
C458 C 0.96456 0.35336 0.83645 0.0
C459 C 0.97903 0.38191 0.87089 0.0
H460 H 0.85131 0.64457 0.9871 0.0
H461 H 0.80434 0.60516 0.72902 0.0
H462 H 0.80577 0.61586 0.06275 0.0
H463 H 0.75972 0.57688 0.80375 0.0
H464 H 0.70492 0.5863 0.11295 0.0
H465 H 0.75489 0.61246 0.06464 0.0
H466 H 0.73979 0.53678 0.90874 0.0
H467 H 0.68989 0.51061 0.95631 0.0
C468 C 0.83142 0.62983 0.94665 0.0
C469 C 0.83148 0.62733 0.85195 0.0
C470 C 0.80541 0.61344 0.98986 0.0
C471 C 0.77926 0.59389 0.93917 0.0
C472 C 0.77957 0.59135 0.84489 0.0
C473 C 0.80521 0.60787 0.80195 0.0
C474 C 0.7124 0.57504 0.06974 0.0
C475 C 0.69318 0.54642 0.03748 0.0
C476 C 0.74112 0.59003 0.04254 0.0
C477 C 0.75112 0.57678 0.98204 0.0
C478 C 0.73254 0.54767 0.95451 0.0
C479 C 0.70395 0.53263 0.98211 0.0
H480 H 0.88284 0.57156 0.77437 0.0
H481 H 0.96946 0.64574 0.77346 0.0
H482 H 0.90412 0.54296 0.82516 0.0
H483 H 0.99083 0.61719 0.82517 0.0
H484 H 0.0175 0.54835 0.79498 0.0
H485 H 0.99572 0.57749 0.75614 0.0
H486 H 0.93183 0.53694 0.95363 0.0
H487 H 0.95368 0.5076 0.99226 0.0
C488 C 0.90644 0.58182 0.78603 0.0
C489 C 0.92452 0.6108 0.76929 0.0
C490 C 0.91861 0.56547 0.81553 0.0
C491 C 0.94917 0.57772 0.82839 0.0
C492 C 0.96721 0.60701 0.8145 0.0
C493 C 0.955 0.62342 0.78554 0.0
C494 C 0.99869 0.54553 0.82971 0.0
C495 C 0.9872 0.52565 0.89639 0.0
C496 C 0.9864 0.56243 0.80812 0.0
C497 C 0.96221 0.55973 0.85235 0.0
C498 C 0.95038 0.53944 0.91807 0.0
C499 C 0.96285 0.52264 0.94016 0.0
H500 H 0.57243 0.37864 0.0275 0.0
H501 H 0.53912 0.4069 0.80739 0.0
H502 H 0.54227 0.32896 0.96559 0.0
H503 H 0.50845 0.35761 0.74734 0.0
H504 H 0.47793 0.27012 0.61246 0.0
H505 H 0.51024 0.31902 0.67397 0.0
H506 H 0.49166 0.29087 0.94481 0.0
H507 H 0.45997 0.24151 0.88258 0.0
C508 C 0.55881 0.37422 0.96565 0.0
C509 C 0.55823 0.39659 0.92193 0.0
C510 C 0.54129 0.34577 0.93067 0.0
C511 C 0.52283 0.3392 0.85145 0.0
C512 C 0.52269 0.3618 0.80753 0.0
C513 C 0.54023 0.39011 0.84216 0.0
C514 C 0.48069 0.27437 0.68515 0.0
C515 C 0.46642 0.25202 0.74273 0.0
C516 C 0.49915 0.30246 0.72053 0.0
C517 C 0.5036 0.30901 0.81449 0.0
C518 C 0.48911 0.28659 0.87219 0.0
C519 C 0.47072 0.25836 0.83662 0.0
H520 H 0.80071 0.11622 0.70554 0.0
H521 H 0.84716 0.16188 0.95817 0.0
H522 H 0.75433 0.10255 0.76967 0.0
H523 H 0.80052 0.14885 0.02191 0.0
H524 H 0.70877 0.09191 0.12977 0.0
H525 H 0.75707 0.10923 0.07238 0.0
H526 H 0.72489 0.12188 0.81534 0.0
H527 H 0.67641 0.10358 0.87212 0.0
C528 C 0.80106 0.12348 0.77478 0.0
C529 C 0.82772 0.14022 0.82657 0.0
C530 C 0.77439 0.11584 0.81142 0.0
C531 C 0.77357 0.12487 0.90074 0.0
C532 C 0.80025 0.14133 0.95309 0.0
C533 C 0.82702 0.14887 0.91647 0.0
C534 C 0.71219 0.09876 0.06141 0.0
C535 C 0.68885 0.09628 1.00518 0.0
C536 C 0.73991 0.10877 0.0285 0.0
C537 C 0.74489 0.11665 0.93874 0.0
C538 C 0.72173 0.11538 0.88409 0.0
C539 C 0.694 0.10517 0.91681 0.0
H540 H 0.56602 0.92832 0.15424 0.0
H541 H 0.64769 0.99502 0.06302 0.0
H542 H 0.58947 0.90055 0.19182 0.0
H543 H 0.67118 0.96771 0.10268 0.0
H544 H 0.70282 0.90484 0.12806 0.0
H545 H 0.67449 0.92581 0.06839 0.0
H546 H 0.625 0.90378 0.30642 0.0
H547 H 0.65284 0.88211 0.36449 0.0
C548 C 0.58887 0.93696 0.14136 0.0
C549 C 0.60498 0.964 0.10606 0.0
C550 C 0.60238 0.92112 0.16357 0.0
C551 C 0.63229 0.93197 0.15104 0.0
C552 C 0.64804 0.9585 0.11237 0.0
C553 C 0.63455 0.97428 0.09001 0.0
C554 C 0.68568 0.90427 0.16707 0.0
C555 C 0.68009 0.89202 0.25105 0.0
C556 C 0.66954 0.91639 0.13316 0.0
C557 C 0.64756 0.91666 0.18278 0.0
C558 C 0.64148 0.90364 0.26579 0.0
C559 C 0.65756 0.8914 0.29946 0.0
H560 H 0.14491 0.71404 0.1265 0.0
H561 H 0.22469 0.71818 0.22959 0.0
H562 H 0.12554 0.66455 0.07176 0.0
H563 H 0.20583 0.66868 0.17137 0.0
H564 H 0.14365 0.5697 0.16612 0.0
H565 H 0.16999 0.6213 0.20397 0.0
H566 H 0.1288 0.63346 0.96464 0.0
H567 H 0.10161 0.58192 0.92966 0.0
C568 C 0.15852 0.70446 0.1359 0.0
C569 C 0.18621 0.71984 0.18247 0.0
C570 C 0.14753 0.67609 0.10391 0.0
C571 C 0.16412 0.6625 0.11684 0.0
C572 C 0.19229 0.6783 0.16126 0.0
C573 C 0.20319 0.70669 0.19404 0.0
C574 C 0.14065 0.58352 0.12103 0.0
C575 C 0.12034 0.57183 0.04567 0.0
C576 C 0.1558 0.61312 0.14245 0.0
C577 C 0.1512 0.6316 0.08813 0.0
C578 C 0.13229 0.61987 1.00946 0.0
C579 C 0.11684 0.59034 0.98899 0.0
H580 H 0.49681 0.43149 0.02187 0.0
H581 H 0.50903 0.50945 0.15583 0.0
H582 H 0.44583 0.40656 0.05743 0.0
H583 H 0.45749 0.4845 0.18941 0.0
H584 H 0.37706 0.41914 0.33685 0.0
H585 H 0.42673 0.44819 0.28866 0.0
H586 H 0.39884 0.4021 0.02636 0.0
H587 H 0.34952 0.37261 0.07578 0.0
C588 C 0.48853 0.44348 0.05772 0.0
C589 C 0.50713 0.47246 0.08652 0.0
C590 C 0.45915 0.42917 0.07766 0.0
C591 C 0.44753 0.44347 0.12661 0.0
C592 C 0.46585 0.47274 0.15276 0.0
C593 C 0.49534 0.48709 0.13289 0.0
C594 C 0.3816 0.4154 0.26879 0.0
C595 C 0.35961 0.39351 0.21027 0.0
C596 C 0.40997 0.43216 0.24087 0.0
C597 C 0.41684 0.4274 0.1537 0.0
C598 C 0.39446 0.40602 0.09442 0.0
C599 C 0.36618 0.3892 0.12253 0.0
H600 H 0.93463 0.7749 0.68751 0.0
H601 H 0.85539 0.69664 0.59554 0.0
H602 H 0.91423 0.80294 0.62539 0.0
H603 H 0.83493 0.72484 0.53265 0.0
H604 H 0.82182 0.78716 0.35613 0.0
H605 H 0.84388 0.75951 0.41053 0.0
H606 H 0.87316 0.81169 0.66167 0.0
H607 H 0.85094 0.83925 0.60734 0.0
C608 C 0.91286 0.76368 0.6537 0.0
C609 C 0.89649 0.73357 0.64693 0.0
C610 C 0.90115 0.77976 0.61849 0.0
C611 C 0.87292 0.76612 0.5747 0.0
C612 C 0.85681 0.73595 0.5657 0.0
C613 C 0.86844 0.71982 0.60191 0.0
C614 C 0.83319 0.79286 0.42266 0.0
C615 C 0.83478 0.8154 0.47751 0.0
C616 C 0.84561 0.77688 0.45401 0.0
C617 C 0.86018 0.78337 0.54041 0.0
C618 C 0.86227 0.80633 0.59448 0.0
C619 C 0.84954 0.82208 0.56353 0.0
H620 H 0.3798 0.08379 0.68325 0.0
H621 H 0.30913 0.09818 0.60127 0.0
H622 H 0.35056 0.03401 0.62824 0.0
H623 H 0.28022 0.04857 0.5389 0.0
H624 H 0.22477 0.95039 0.50824 0.0
H625 H 0.2525 1.00061 0.56678 0.0
H626 H 0.33319 0.00338 0.50426 0.0
H627 H 0.30569 0.9532 0.45379 0.0
C628 C 0.3581 0.07633 0.65163 0.0
C629 C 0.34671 0.09478 0.64632 0.0
C630 C 0.34128 0.04772 0.61918 0.0
C631 C 0.31287 0.03694 0.57781 0.0
C632 C 0.3017 0.05573 0.57146 0.0
C633 C 0.31834 0.08427 0.60629 0.0
C634 C 0.24847 0.9619 0.50815 0.0
C635 C 0.26316 0.94791 0.47799 0.0
C636 C 0.26443 0.99076 0.54082 0.0
C637 C 0.29534 0.00633 0.54158 0.0
C638 C 0.30965 0.99219 0.50827 0.0
C639 C 0.29383 0.96333 0.47842 0.0
H640 H 0.01005 0.18926 0.69457 0.0
H641 H 0.97452 0.19488 0.43317 0.0
H642 H 0.0568 0.20372 0.63312 0.0
H643 H 0.02223 0.21023 0.3715 0.0
H644 H 0.10898 0.21646 0.28278 0.0
H645 H 0.05926 0.19609 0.3349 0.0
H646 H 0.09532 0.24824 0.5853 0.0
H647 H 0.14441 0.26786 0.53435 0.0
C648 C 0.0122 0.19368 0.6238 0.0
C649 C 0.98858 0.19132 0.56915 0.0
C650 C 0.03915 0.20207 0.58858 0.0
C651 C 0.04347 0.20862 0.49778 0.0
C652 C 0.01959 0.20526 0.44176 0.0
C653 C 0.99233 0.19663 0.47714 0.0
C654 C 0.10613 0.22321 0.34929 0.0
C655 C 0.13051 0.24353 0.40489 0.0
C656 C 0.07771 0.21178 0.37876 0.0
C657 C 0.07331 0.22041 0.46446 0.0
C658 C 0.09788 0.24068 0.51965 0.0
C659 C 0.12607 0.25203 0.49033 0.0
H660 H 0.37572 0.19579 0.42982 0.0
H661 H 0.34365 0.20851 0.68015 0.0
H662 H 0.34623 0.21238 0.34703 0.0
H663 H 0.31441 0.22467 0.5981 0.0
H664 H 0.32033 0.28351 0.28013 0.0
H665 H 0.3461 0.25996 0.34019 0.0
H666 H 0.27079 0.20483 0.48513 0.0
H667 H 0.24496 0.22826 0.42542 0.0
C668 C 0.36233 0.20196 0.46704 0.0
C669 C 0.36217 0.20095 0.56163 0.0
C670 C 0.34552 0.2115 0.41974 0.0
C671 C 0.32782 0.21961 0.46602 0.0
C672 C 0.32745 0.21818 0.56027 0.0
C673 C 0.34448 0.20914 0.60742 0.0
C674 C 0.30903 0.266 0.32347 0.0
C675 C 0.28064 0.25798 0.34859 0.0
C676 C 0.32379 0.25243 0.35752 0.0
C677 C 0.3106 0.23077 0.41816 0.0
C678 C 0.28166 0.22171 0.43937 0.0
C679 C 0.26679 0.23505 0.40465 0.0
H680 H 0.79364 0.96187 0.35965 0.0
H681 H 0.84784 0.9426 0.53635 0.0
H682 H 0.81891 0.01113 0.42494 0.0
H683 H 0.87305 0.99193 0.60159 0.0
H684 H 0.87542 0.06611 0.77845 0.0
H685 H 0.85577 0.01888 0.7005 0.0
H686 H 0.8683 0.05695 0.44311 0.0
H687 H 0.88828 0.10436 0.52135 0.0
C688 C 0.81127 0.96825 0.41136 0.0
C689 C 0.81861 0.94824 0.44311 0.0
C690 C 0.82579 0.99651 0.44854 0.0
C691 C 0.84774 0.00529 0.519 0.0
C692 C 0.85596 0.98565 0.54809 0.0
C693 C 0.84168 0.95747 0.51013 0.0
C694 C 0.87406 0.0644 0.70525 0.0
C695 C 0.88331 0.08887 0.65593 0.0
C696 C 0.86302 0.0374 0.66064 0.0
C697 C 0.86067 0.03425 0.56571 0.0
C698 C 0.86977 0.05873 0.51631 0.0
C699 C 0.88118 0.08582 0.56104 0.0
H700 H 0.98073 0.68288 0.47128 0.0
H701 H 0.99611 0.75904 0.62389 0.0
H702 H 0.02797 0.71032 0.40562 0.0
H703 H 0.04201 0.78715 0.55371 0.0
H704 H 0.13832 0.82149 0.51655 0.0
H705 H 0.08879 0.79603 0.56485 0.0
H706 H 0.05962 0.74368 0.3131 0.0
H707 H 0.10994 0.76812 0.26824 0.0
C708 C 0.99394 0.70571 0.48857 0.0
C709 C 0.98511 0.71888 0.55306 0.0
C710 C 0.02102 0.72158 0.45077 0.0
C711 C 0.03944 0.75111 0.47522 0.0
C712 C 0.02925 0.76439 0.53536 0.0
C713 C 1.00271 0.74838 0.57491 0.0
C714 C 0.12123 0.80478 0.47113 0.0
C715 C 0.12801 0.79684 0.38864 0.0
C716 C 0.0926 0.79015 0.4985 0.0
C717 C 0.06973 0.76761 0.44305 0.0
C718 C 0.0765 0.76041 0.35882 0.0
C719 C 0.10535 0.77461 0.33251 0.0
loop_
_geom_bond_atom_site_label_1
_geom_bond_atom_site_label_2
_geom_bond_distance
_geom_bond_site_symmetry_2
_ccdc_geom_bond_type
Dy0 O4 2.398 1_554 S
Dy0 O5 2.491 . S
Dy0 O6 2.403 1_554 S
Dy0 O7 2.664 1_554 S
Dy0 O11 2.326 1_554 S
Dy0 O15 2.310 . S
Dy0 O16 2.351 . S
C1 O12 1.185 1_556 S
C1 O13 1.355 . S
C2 O4 1.185 1_554 S
C2 O5 1.355 . S
Dy3 O7 2.310 1_654 S
Dy3 O10 2.351 1_554 S
Dy3 O12 2.398 . S
Dy3 O13 2.491 1_554 S
Dy3 O14 2.403 . S
Dy3 O15 2.664 1_655 S
Dy3 O17 2.326 1_655 S
O4 Dy0 2.398 1_556 S
O4 C2 1.185 1_556 S
O5 Dy0 2.491 . S
O5 C2 1.355 . S
O6 Dy0 2.403 1_556 S
O6 C8 1.254 . S
O7 Dy0 2.664 1_556 S
O7 Dy3 2.310 1_456 S
O7 C8 1.268 . S
C8 O6 1.254 . S
C8 O7 1.268 . S
C9 O14 1.254 1_455 S
C9 O15 1.268 . S
O10 Dy3 2.351 1_556 S
O10 C18 1.249 . S
O11 Dy0 2.326 1_556 S
O11 C18 1.267 1_455 S
O12 C1 1.185 1_554 S
O12 Dy3 2.398 . S
O13 C1 1.355 . S
O13 Dy3 2.491 1_556 S
O14 Dy3 2.403 . S
O14 C9 1.254 1_655 S
O15 Dy0 2.310 . S
O15 Dy3 2.664 1_455 S
O15 C9 1.268 . S
O16 Dy0 2.351 . S
O16 C19 1.249 . S
O17 Dy3 2.326 1_455 S
O17 C19 1.267 . S
C18 O10 1.249 . S
C18 O11 1.267 1_655 S
C19 O16 1.249 . S
C19 O17 1.267 . S
Dy20 O24 2.398 . S
Dy20 O25 2.491 . S
Dy20 O26 2.403 1_554 S
Dy20 O27 2.664 . S
Dy20 O31 2.326 . S
Dy20 O35 2.310 . S
Dy20 O36 2.351 . S
C21 O32 1.185 . S
C21 O33 1.355 1_554 S
C22 O24 1.185 . S
C22 O25 1.355 . S
Dy23 O27 2.310 . S
Dy23 O30 2.351 . S
Dy23 O32 2.398 . S
Dy23 O33 2.491 1_554 S
Dy23 O34 2.403 . S
Dy23 O35 2.664 . S
Dy23 O37 2.326 . S
O24 Dy20 2.398 . S
O24 C22 1.185 . S
O25 Dy20 2.491 . S
O25 C22 1.355 . S
O26 Dy20 2.403 1_556 S
O26 C28 1.254 . S
O27 Dy20 2.664 . S
O27 Dy23 2.310 . S
O27 C28 1.268 1_554 S
C28 O26 1.254 . S
C28 O27 1.268 1_556 S
C29 O34 1.254 . S
C29 O35 1.268 . S
O30 Dy23 2.351 . S
O30 C38 1.249 . S
O31 Dy20 2.326 . S
O31 C38 1.267 . S
O32 C21 1.185 . S
O32 Dy23 2.398 . S
O33 C21 1.355 1_556 S
O33 Dy23 2.491 1_556 S
O34 Dy23 2.403 . S
O34 C29 1.254 . S
O35 Dy20 2.310 . S
O35 Dy23 2.664 . S
O35 C29 1.268 . S
O36 Dy20 2.351 . S
O36 C39 1.249 . S
O37 Dy23 2.326 . S
O37 C39 1.267 . S
C38 O30 1.249 . S
C38 O31 1.267 . S
C39 O36 1.249 . S
C39 O37 1.267 . S
Dy40 O44 2.398 1_545 S
Dy40 O45 2.491 . S
Dy40 O46 2.403 . S
Dy40 O47 2.664 . S
Dy40 O51 2.326 . S
Dy40 O55 2.310 . S
Dy40 O56 2.351 . S
C41 O52 1.185 . S
C41 O53 1.355 . S
C42 O44 1.191 . S
C42 O45 1.353 1_565 S
Dy43 O47 2.310 . S
Dy43 O50 2.351 . S
Dy43 O52 2.398 . S
Dy43 O53 2.491 . S
Dy43 O54 2.403 . S
Dy43 O55 2.664 . S
Dy43 O57 2.326 . S
O44 Dy40 2.398 1_565 S
O44 C42 1.191 . S
O45 Dy40 2.491 . S
O45 C42 1.353 1_545 S
O46 Dy40 2.403 . S
O46 C48 1.254 . S
O47 Dy40 2.664 . S
O47 Dy43 2.310 . S
O47 C48 1.268 . S
C48 O46 1.254 . S
C48 O47 1.268 . S
C49 O54 1.254 . S
C49 O55 1.268 . S
O50 Dy43 2.351 . S
O50 C58 1.249 . S
O51 Dy40 2.326 . S
O51 C58 1.267 . S
O52 C41 1.185 . S
O52 Dy43 2.398 . S
O53 C41 1.355 . S
O53 Dy43 2.491 . S
O54 Dy43 2.403 . S
O54 C49 1.254 . S
O55 Dy40 2.310 . S
O55 Dy43 2.664 . S
O55 C49 1.268 . S
O56 Dy40 2.351 . S
O56 C59 1.249 . S
O57 Dy43 2.326 . S
O57 C59 1.267 . S
C58 O50 1.249 . S
C58 O51 1.267 . S
C59 O56 1.249 . S
C59 O57 1.267 . S
Dy60 O64 2.398 . S
Dy60 O65 2.491 . S
Dy60 O66 2.403 . S
Dy60 O67 2.664 . S
Dy60 O71 2.326 . S
Dy60 O75 2.310 . S
Dy60 O76 2.351 . S
C61 O72 1.185 . S
C61 O73 1.355 . S
C62 O64 1.185 . S
C62 O65 1.355 . S
Dy63 O67 2.310 . S
Dy63 O70 2.351 . S
Dy63 O72 2.398 . S
Dy63 O73 2.491 . S
Dy63 O74 2.403 . S
Dy63 O75 2.664 . S
Dy63 O77 2.326 . S
O64 Dy60 2.398 . S
O64 C62 1.185 . S
O65 Dy60 2.491 . S
O65 C62 1.355 . S
O66 Dy60 2.403 . S
O66 C68 1.254 . S
O67 Dy60 2.664 . S
O67 Dy63 2.310 . S
O67 C68 1.268 . S
C68 O66 1.254 . S
C68 O67 1.268 . S
C69 O74 1.254 . S
C69 O75 1.268 . S
O70 Dy63 2.351 . S
O70 C78 1.249 . S
O71 Dy60 2.326 . S
O71 C78 1.267 . S
O72 C61 1.185 . S
O72 Dy63 2.398 . S
O73 C61 1.355 . S
O73 Dy63 2.491 . S
O74 Dy63 2.403 . S
O74 C69 1.254 . S
O75 Dy60 2.310 . S
O75 Dy63 2.664 . S
O75 C69 1.268 . S
O76 Dy60 2.351 . S
O76 C79 1.249 . S
O77 Dy63 2.326 . S
O77 C79 1.267 . S
C78 O70 1.249 . S
C78 O71 1.267 . S
C79 O76 1.249 . S
C79 O77 1.267 . S
Dy80 O84 2.398 . S
Dy80 O85 2.491 . S
Dy80 O86 2.403 . S
Dy80 O87 2.664 . S
Dy80 O91 2.326 . S
Dy80 O95 2.310 . S
Dy80 O96 2.351 . S
C81 O92 1.185 . S
C81 O93 1.355 . S
C82 O84 1.185 . S
C82 O85 1.355 . S
Dy83 O87 2.310 . S
Dy83 O90 2.351 . S
Dy83 O92 2.398 . S
Dy83 O93 2.491 . S
Dy83 O94 2.403 . S
Dy83 O95 2.664 . S
Dy83 O97 2.326 . S
O84 Dy80 2.398 . S
O84 C82 1.185 . S
O85 Dy80 2.491 . S
O85 C82 1.355 . S
O86 Dy80 2.403 . S
O86 C88 1.254 . S
O87 Dy80 2.664 . S
O87 Dy83 2.310 . S
O87 C88 1.268 . S
C88 O86 1.254 . S
C88 O87 1.268 . S
C89 O94 1.254 . S
C89 O95 1.268 . S
O90 Dy83 2.351 . S
O90 C98 1.249 . S
O91 Dy80 2.326 . S
O91 C98 1.267 . S
O92 C81 1.185 . S
O92 Dy83 2.398 . S
O93 C81 1.355 . S
O93 Dy83 2.491 . S
O94 Dy83 2.403 . S
O94 C89 1.254 . S
O95 Dy80 2.310 . S
O95 Dy83 2.664 . S
O95 C89 1.268 . S
O96 Dy80 2.351 . S
O96 C99 1.249 . S
O97 Dy83 2.326 . S
O97 C99 1.267 . S
C98 O90 1.249 . S
C98 O91 1.267 . S
C99 O96 1.249 . S
C99 O97 1.267 . S
Dy100 O104 2.398 . S
Dy100 O105 2.491 . S
Dy100 O106 2.403 . S
Dy100 O107 2.664 . S
Dy100 O111 2.326 . S
Dy100 O115 2.310 . S
Dy100 O116 2.351 . S
C101 O112 1.185 . S
C101 O113 1.355 . S
C102 O104 1.185 . S
C102 O105 1.355 . S
Dy103 O107 2.310 . S
Dy103 O110 2.351 . S
Dy103 O112 2.398 . S
Dy103 O113 2.491 . S
Dy103 O114 2.403 . S
Dy103 O115 2.664 . S
Dy103 O117 2.326 . S
O104 Dy100 2.398 . S
O104 C102 1.185 . S
O105 Dy100 2.491 . S
O105 C102 1.355 . S
O106 Dy100 2.403 . S
O106 C108 1.254 . S
O107 Dy100 2.664 . S
O107 Dy103 2.310 . S
O107 C108 1.268 . S
C108 O106 1.254 . S
C108 O107 1.268 . S
C109 O114 1.254 . S
C109 O115 1.268 . S
O110 Dy103 2.351 . S
O110 C118 1.249 . S
O111 Dy100 2.326 . S
O111 C118 1.267 . S
O112 C101 1.185 . S
O112 Dy103 2.398 . S
O113 C101 1.355 . S
O113 Dy103 2.491 . S
O114 Dy103 2.403 . S
O114 C109 1.254 . S
O115 Dy100 2.310 . S
O115 Dy103 2.664 . S
O115 C109 1.268 . S
O116 Dy100 2.351 . S
O116 C119 1.249 . S
O117 Dy103 2.326 . S
O117 C119 1.267 . S
C118 O110 1.249 . S
C118 O111 1.267 . S
C119 O116 1.249 . S
C119 O117 1.267 . S
Dy120 O124 2.398 . S
Dy120 O125 2.491 . S
Dy120 O126 2.403 . S
Dy120 O127 2.664 . S
Dy120 O131 2.326 . S
Dy120 O135 2.310 . S
Dy120 O136 2.351 . S
C121 O132 1.185 . S
C121 O133 1.355 . S
C122 O124 1.185 . S
C122 O125 1.355 . S
Dy123 O127 2.310 . S
Dy123 O130 2.351 . S
Dy123 O132 2.398 . S
Dy123 O133 2.491 . S
Dy123 O134 2.403 . S
Dy123 O135 2.664 . S
Dy123 O137 2.326 . S
O124 Dy120 2.398 . S
O124 C122 1.185 . S
O125 Dy120 2.491 . S
O125 C122 1.355 . S
O126 Dy120 2.403 . S
O126 C128 1.254 . S
O127 Dy120 2.664 . S
O127 Dy123 2.310 . S
O127 C128 1.268 . S
C128 O126 1.254 . S
C128 O127 1.268 . S
C129 O134 1.254 . S
C129 O135 1.268 . S
O130 Dy123 2.351 . S
O130 C138 1.249 . S
O131 Dy120 2.326 . S
O131 C138 1.267 . S
O132 C121 1.185 . S
O132 Dy123 2.398 . S
O133 C121 1.355 . S
O133 Dy123 2.491 . S
O134 Dy123 2.403 . S
O134 C129 1.254 . S
O135 Dy120 2.310 . S
O135 Dy123 2.664 . S
O135 C129 1.268 . S
O136 Dy120 2.351 . S
O136 C139 1.249 . S
O137 Dy123 2.326 . S
O137 C139 1.267 . S
C138 O130 1.249 . S
C138 O131 1.267 . S
C139 O136 1.249 . S
C139 O137 1.267 . S
Dy140 O144 2.398 . S
Dy140 O145 2.491 . S
Dy140 O146 2.403 . S
Dy140 O147 2.664 . S
Dy140 O151 2.326 . S
Dy140 O155 2.310 . S
Dy140 O156 2.351 . S
C141 O152 1.185 . S
C141 O153 1.355 . S
C142 O144 1.185 . S
C142 O145 1.355 . S
Dy143 O147 2.310 . S
Dy143 O150 2.351 . S
Dy143 O152 2.398 . S
Dy143 O153 2.491 . S
Dy143 O154 2.403 . S
Dy143 O155 2.664 . S
Dy143 O157 2.326 . S
O144 Dy140 2.398 . S
O144 C142 1.185 . S
O145 Dy140 2.491 . S
O145 C142 1.355 . S
O146 Dy140 2.403 . S
O146 C148 1.254 . S
O147 Dy140 2.664 . S
O147 Dy143 2.310 . S
O147 C148 1.268 . S
C148 O146 1.254 . S
C148 O147 1.268 . S
C149 O154 1.254 . S
C149 O155 1.268 . S
O150 Dy143 2.351 . S
O150 C158 1.249 . S
O151 Dy140 2.326 . S
O151 C158 1.267 . S
O152 C141 1.185 . S
O152 Dy143 2.398 . S
O153 C141 1.355 . S
O153 Dy143 2.491 . S
O154 Dy143 2.403 . S
O154 C149 1.254 . S
O155 Dy140 2.310 . S
O155 Dy143 2.664 . S
O155 C149 1.268 . S
O156 Dy140 2.351 . S
O156 C159 1.249 . S
O157 Dy143 2.326 . S
O157 C159 1.267 . S
C158 O150 1.249 . S
C158 O151 1.267 . S
C159 O156 1.249 . S
C159 O157 1.267 . S
Dy160 O164 2.398 . S
Dy160 O165 2.491 . S
Dy160 O166 2.403 . S
Dy160 O167 2.664 . S
Dy160 O171 2.326 . S
Dy160 O175 2.310 . S
Dy160 O176 2.351 . S
C161 O172 1.185 . S
C161 O173 1.355 . S
C162 O164 1.185 . S
C162 O165 1.355 . S
Dy163 O167 2.310 . S
Dy163 O170 2.351 . S
Dy163 O172 2.398 . S
Dy163 O173 2.491 . S
Dy163 O174 2.403 . S
Dy163 O175 2.664 . S
Dy163 O177 2.326 . S
O164 Dy160 2.398 . S
O164 C162 1.185 . S
O165 Dy160 2.491 . S
O165 C162 1.355 . S
O166 Dy160 2.403 . S
O166 C168 1.254 . S
O167 Dy160 2.664 . S
O167 Dy163 2.310 . S
O167 C168 1.268 . S
C168 O166 1.254 . S
C168 O167 1.268 . S
C169 O174 1.254 . S
C169 O175 1.268 . S
O170 Dy163 2.351 . S
O170 C178 1.249 . S
O171 Dy160 2.326 . S
O171 C178 1.267 . S
O172 C161 1.185 . S
O172 Dy163 2.398 . S
O173 C161 1.355 . S
O173 Dy163 2.491 . S
O174 Dy163 2.403 . S
O174 C169 1.254 . S
O175 Dy160 2.310 . S
O175 Dy163 2.664 . S
O175 C169 1.268 . S
O176 Dy160 2.351 . S
O176 C179 1.249 . S
O177 Dy163 2.326 . S
O177 C179 1.267 . S
C178 O170 1.249 . S
C178 O171 1.267 . S
C179 O176 1.249 . S
C179 O177 1.267 . S
H180 C188 0.950 . S
H181 C193 0.950 . S
H182 C190 0.950 . S
H183 C192 0.950 . S
H184 C194 0.950 . S
H185 C196 0.950 . S
H186 C198 0.950 . S
H187 C199 0.950 . S
C188 H180 0.950 . S
C188 C189 1.386 . S
C188 C190 1.391 . S
C189 C188 1.386 . S
C189 C193 1.393 . S
C190 H182 0.950 . S
C190 C188 1.391 . S
C190 C191 1.400 . S
C191 C190 1.400 . S
C191 C192 1.398 . S
C191 C197 1.491 . S
C192 H183 0.950 . S
C192 C191 1.398 . S
C192 C193 1.391 . S
C193 H181 0.950 . S
C193 C189 1.393 . S
C193 C192 1.391 . S
C194 H184 0.950 . S
C194 C195 1.386 . S
C194 C196 1.391 . S
C195 C194 1.386 . S
C195 C199 1.393 . S
C196 H185 0.950 . S
C196 C194 1.391 . S
C196 C197 1.400 . S
C197 C191 1.491 . S
C197 C196 1.400 . S
C197 C198 1.398 . S
C198 H186 0.950 . S
C198 C197 1.398 . S
C198 C199 1.391 . S
C199 H187 0.950 . S
C199 C195 1.393 . S
C199 C198 1.391 . S
H200 C208 0.950 . S
H201 C213 0.950 . S
H202 C210 0.950 . S
H203 C212 0.950 . S
H204 C214 0.950 . S
H205 C216 0.950 . S
H206 C218 0.950 . S
H207 C219 0.950 . S
C208 H200 0.950 . S
C208 C209 1.386 . S
C208 C210 1.391 . S
C209 C208 1.386 . S
C209 C213 1.393 . S
C210 H202 0.950 . S
C210 C208 1.391 . S
C210 C211 1.400 . S
C211 C210 1.400 . S
C211 C212 1.398 . S
C211 C217 1.491 . S
C212 H203 0.950 . S
C212 C211 1.398 . S
C212 C213 1.391 . S
C213 H201 0.950 . S
C213 C209 1.393 . S
C213 C212 1.391 . S
C214 H204 0.950 . S
C214 C215 1.386 . S
C214 C216 1.391 . S
C215 C214 1.386 . S
C215 C219 1.393 . S
C216 H205 0.950 . S
C216 C214 1.391 . S
C216 C217 1.400 . S
C217 C211 1.491 . S
C217 C216 1.400 . S
C217 C218 1.398 . S
C218 H206 0.950 . S
C218 C217 1.398 . S
C218 C219 1.391 . S
C219 H207 0.950 . S
C219 C215 1.393 . S
C219 C218 1.391 . S
H220 C228 0.950 . S
H221 C233 0.950 . S
H222 C230 0.950 . S
H223 C232 0.950 . S
H224 C234 0.950 . S
H225 C236 0.950 . S
H226 C238 0.950 . S
H227 C239 0.950 . S
C228 H220 0.950 . S
C228 C229 1.386 . S
C228 C230 1.391 . S
C229 C228 1.386 . S
C229 C233 1.393 . S
C230 H222 0.950 . S
C230 C228 1.391 . S
C230 C231 1.400 . S
C231 C230 1.400 . S
C231 C232 1.398 . S
C231 C237 1.491 . S
C232 H223 0.950 . S
C232 C231 1.398 . S
C232 C233 1.391 . S
C233 H221 0.950 . S
C233 C229 1.393 . S
C233 C232 1.391 . S
C234 H224 0.950 . S
C234 C235 1.386 . S
C234 C236 1.391 . S
C235 C234 1.386 . S
C235 C239 1.393 . S
C236 H225 0.950 . S
C236 C234 1.391 . S
C236 C237 1.400 . S
C237 C231 1.491 . S
C237 C236 1.400 . S
C237 C238 1.398 . S
C238 H226 0.950 . S
C238 C237 1.398 . S
C238 C239 1.391 . S
C239 H227 0.950 . S
C239 C235 1.393 . S
C239 C238 1.391 . S
H240 C248 0.950 . S
H241 C253 0.950 . S
H242 C250 0.950 . S
H243 C252 0.950 . S
H244 C254 0.950 . S
H245 C256 0.950 . S
H246 C258 0.950 . S
H247 C259 0.950 . S
C248 H240 0.950 . S
C248 C249 1.386 . S
C248 C250 1.391 . S
C249 C248 1.386 . S
C249 C253 1.393 . S
C250 H242 0.950 . S
C250 C248 1.391 . S
C250 C251 1.400 . S
C251 C250 1.400 . S
C251 C252 1.398 . S
C251 C257 1.491 . S
C252 H243 0.950 . S
C252 C251 1.398 . S
C252 C253 1.391 . S
C253 H241 0.950 . S
C253 C249 1.393 . S
C253 C252 1.391 . S
C254 H244 0.950 . S
C254 C255 1.386 . S
C254 C256 1.391 1_554 S
C255 C254 1.386 . S
C255 C259 1.393 . S
C256 H245 0.950 . S
C256 C254 1.391 1_556 S
C256 C257 1.400 . S
C257 C251 1.491 . S
C257 C256 1.400 . S
C257 C258 1.398 . S
C258 H246 0.950 . S
C258 C257 1.398 . S
C258 C259 1.391 1_556 S
C259 H247 0.950 . S
C259 C255 1.393 . S
C259 C258 1.391 1_554 S
H260 C268 0.950 . S
H261 C273 0.950 . S
H262 C270 0.950 . S
H263 C272 0.950 . S
H264 C274 0.950 . S
H265 C276 0.950 . S
H266 C278 0.950 . S
H267 C279 0.950 . S
C268 H260 0.950 . S
C268 C269 1.386 . S
C268 C270 1.391 . S
C269 C268 1.386 . S
C269 C273 1.393 . S
C270 H262 0.950 . S
C270 C268 1.391 . S
C270 C271 1.400 . S
C271 C270 1.400 . S
C271 C272 1.398 . S
C271 C277 1.491 . S
C272 H263 0.950 . S
C272 C271 1.398 . S
C272 C273 1.391 . S
C273 H261 0.950 . S
C273 C269 1.393 . S
C273 C272 1.391 . S
C274 H264 0.950 . S
C274 C275 1.381 1_556 S
C274 C276 1.391 . S
C275 C274 1.381 1_554 S
C275 C279 1.387 1_554 S
C276 H265 0.950 . S
C276 C274 1.391 . S
C276 C277 1.400 . S
C277 C271 1.491 . S
C277 C276 1.400 . S
C277 C278 1.398 . S
C278 H266 0.950 . S
C278 C277 1.398 . S
C278 C279 1.391 . S
C279 H267 0.950 . S
C279 C275 1.387 1_556 S
C279 C278 1.391 . S
H280 C288 0.950 . S
H281 C293 0.950 . S
H282 C290 0.950 . S
H283 C292 0.950 . S
H284 C294 0.950 . S
H285 C296 0.950 . S
H286 C298 0.950 . S
H287 C299 0.950 . S
C288 H280 0.950 . S
C288 C289 1.386 . S
C288 C290 1.391 . S
C289 C288 1.386 . S
C289 C293 1.393 . S
C290 H282 0.950 . S
C290 C288 1.391 . S
C290 C291 1.400 . S
C291 C290 1.400 . S
C291 C292 1.398 . S
C291 C297 1.491 . S
C292 H283 0.950 . S
C292 C291 1.398 . S
C292 C293 1.391 . S
C293 H281 0.950 . S
C293 C289 1.393 . S
C293 C292 1.391 . S
C294 H284 0.950 . S
C294 C295 1.386 . S
C294 C296 1.391 . S
C295 C294 1.386 . S
C295 C299 1.393 . S
C296 H285 0.950 . S
C296 C294 1.391 . S
C296 C297 1.400 . S
C297 C291 1.491 . S
C297 C296 1.400 . S
C297 C298 1.398 . S
C298 H286 0.950 . S
C298 C297 1.398 . S
C298 C299 1.391 . S
C299 H287 0.950 . S
C299 C295 1.393 . S
C299 C298 1.391 . S
H300 C308 0.950 . S
H301 C313 0.950 . S
H302 C310 0.950 . S
H303 C312 0.950 . S
H304 C314 0.950 . S
H305 C316 0.950 . S
H306 C318 0.950 . S
H307 C319 0.950 1_556 S
C308 H300 0.950 . S
C308 C309 1.386 . S
C308 C310 1.391 . S
C309 C308 1.386 . S
C309 C313 1.393 . S
C310 H302 0.950 . S
C310 C308 1.391 . S
C310 C311 1.400 . S
C311 C310 1.400 . S
C311 C312 1.398 . S
C311 C317 1.491 . S
C312 H303 0.950 . S
C312 C311 1.398 . S
C312 C313 1.391 . S
C313 H301 0.950 . S
C313 C309 1.393 . S
C313 C312 1.391 . S
C314 H304 0.950 . S
C314 C315 1.386 . S
C314 C316 1.391 1_556 S
C315 C314 1.386 . S
C315 C319 1.393 1_556 S
C316 H305 0.950 . S
C316 C314 1.391 1_554 S
C316 C317 1.400 . S
C317 C311 1.491 . S
C317 C316 1.400 . S
C317 C318 1.398 . S
C318 H306 0.950 . S
C318 C317 1.398 . S
C318 C319 1.391 . S
C319 H307 0.950 1_554 S
C319 C315 1.393 1_554 S
C319 C318 1.391 . S
H320 C328 0.950 . S
H321 C333 0.950 . S
H322 C330 0.950 . S
H323 C332 0.950 . S
H324 C334 0.950 . S
H325 C336 0.950 . S
H326 C338 0.950 . S
H327 C339 0.953 . S
C328 H320 0.950 . S
C328 C329 1.386 . S
C328 C330 1.391 . S
C329 C328 1.386 . S
C329 C333 1.393 . S
C330 H322 0.950 . S
C330 C328 1.391 . S
C330 C331 1.400 . S
C331 C330 1.400 . S
C331 C332 1.398 . S
C331 C337 1.491 . S
C332 H323 0.950 . S
C332 C331 1.398 . S
C332 C333 1.391 . S
C333 H321 0.950 . S
C333 C329 1.393 . S
C333 C332 1.391 . S
C334 H324 0.950 . S
C334 C335 1.386 . S
C334 C336 1.391 1_556 S
C335 C334 1.386 . S
C335 C339 1.393 1_556 S
C336 H325 0.950 . S
C336 C334 1.391 1_554 S
C336 C337 1.400 . S
C337 C331 1.491 . S
C337 C336 1.400 . S
C337 C338 1.398 . S
C338 H326 0.950 . S
C338 C337 1.398 . S
C338 C339 1.391 . S
C339 H327 0.953 . S
C339 C335 1.393 1_554 S
C339 C338 1.391 . S
H340 C348 0.950 . S
H341 C353 0.950 . S
H342 C350 0.950 . S
H343 C352 0.950 . S
H344 C354 0.950 1_556 S
H345 C356 0.950 . S
H346 C358 0.950 . S
H347 C359 0.950 1_556 S
C348 H340 0.950 . S
C348 C349 1.386 . S
C348 C350 1.391 . S
C349 C348 1.386 . S
C349 C353 1.393 . S
C350 H342 0.950 . S
C350 C348 1.391 . S
C350 C351 1.400 . S
C351 C350 1.400 . S
C351 C352 1.398 . S
C351 C357 1.491 . S
C352 H343 0.950 . S
C352 C351 1.398 . S
C352 C353 1.391 . S
C353 H341 0.950 . S
C353 C349 1.393 . S
C353 C352 1.391 . S
C354 H344 0.950 1_554 S
C354 C355 1.386 1_554 S
C354 C356 1.391 . S
C355 C354 1.386 1_556 S
C355 C359 1.393 1_556 S
C356 H345 0.950 . S
C356 C354 1.391 . S
C356 C357 1.400 . S
C357 C351 1.491 . S
C357 C356 1.400 . S
C357 C358 1.398 . S
C358 H346 0.950 . S
C358 C357 1.398 . S
C358 C359 1.391 . S
C359 H347 0.950 1_554 S
C359 C355 1.393 1_554 S
C359 C358 1.391 . S
H360 C368 0.950 . S
H361 C373 0.950 . S
H362 C370 0.950 . S
H363 C372 0.950 . S
H364 C374 0.950 1_556 S
H365 C376 0.950 . S
H366 C378 0.950 . S
H367 C379 0.950 . S
C368 H360 0.950 . S
C368 C369 1.386 . S
C368 C370 1.391 . S
C369 C368 1.386 . S
C369 C373 1.393 . S
C370 H362 0.950 . S
C370 C368 1.391 . S
C370 C371 1.400 . S
C371 C370 1.400 . S
C371 C372 1.398 . S
C371 C377 1.491 . S
C372 H363 0.950 . S
C372 C371 1.398 . S
C372 C373 1.391 . S
C373 H361 0.950 . S
C373 C369 1.393 . S
C373 C372 1.391 . S
C374 H364 0.950 1_554 S
C374 C375 1.386 . S
C374 C376 1.391 . S
C375 C374 1.386 . S
C375 C379 1.393 . S
C376 H365 0.950 . S
C376 C374 1.391 . S
C376 C377 1.400 . S
C377 C371 1.491 . S
C377 C376 1.400 . S
C377 C378 1.398 . S
C378 H366 0.950 . S
C378 C377 1.398 . S
C378 C379 1.391 . S
C379 H367 0.950 . S
C379 C375 1.393 . S
C379 C378 1.391 . S
H380 C388 0.950 . S
H381 C393 0.950 . S
H382 C390 0.950 . S
H383 C392 0.950 . S
H384 C394 0.950 . S
H385 C396 0.950 . S
H386 C398 0.950 . S
H387 C399 0.950 . S
C388 H380 0.950 . S
C388 C389 1.386 . S
C388 C390 1.391 . S
C389 C388 1.386 . S
C389 C393 1.393 . S
C390 H382 0.950 . S
C390 C388 1.391 . S
C390 C391 1.400 . S
C391 C390 1.400 . S
C391 C392 1.398 . S
C391 C397 1.491 . S
C392 H383 0.950 . S
C392 C391 1.398 . S
C392 C393 1.391 . S
C393 H381 0.950 . S
C393 C389 1.393 . S
C393 C392 1.391 . S
C394 H384 0.950 . S
C394 C395 1.386 . S
C394 C396 1.391 . S
C395 C394 1.386 . S
C395 C399 1.393 . S
C396 H385 0.950 . S
C396 C394 1.391 . S
C396 C397 1.400 . S
C397 C391 1.491 . S
C397 C396 1.400 . S
C397 C398 1.398 . S
C398 H386 0.950 . S
C398 C397 1.398 . S
C398 C399 1.391 . S
C399 H387 0.950 . S
C399 C395 1.393 . S
C399 C398 1.391 . S
H400 C408 0.950 . S
H401 C413 0.950 . S
H402 C410 0.950 . S
H403 C412 0.950 . S
H404 C414 0.950 . S
H405 C416 0.950 . S
H406 C418 0.950 . S
H407 C419 0.950 . S
C408 H400 0.950 . S
C408 C409 1.386 . S
C408 C410 1.391 . S
C409 C408 1.386 . S
C409 C413 1.393 . S
C410 H402 0.950 . S
C410 C408 1.391 . S
C410 C411 1.400 . S
C411 C410 1.400 . S
C411 C412 1.398 . S
C411 C417 1.491 . S
C412 H403 0.950 . S
C412 C411 1.398 . S
C412 C413 1.391 . S
C413 H401 0.950 . S
C413 C409 1.393 . S
C413 C412 1.391 . S
C414 H404 0.950 . S
C414 C415 1.386 . S
C414 C416 1.391 . S
C415 C414 1.386 . S
C415 C419 1.393 . S
C416 H405 0.950 . S
C416 C414 1.391 . S
C416 C417 1.400 . S
C417 C411 1.491 . S
C417 C416 1.400 . S
C417 C418 1.398 . S
C418 H406 0.950 . S
C418 C417 1.398 . S
C418 C419 1.391 . S
C419 H407 0.950 . S
C419 C415 1.393 . S
C419 C418 1.391 . S
H420 C428 0.950 . S
H421 C433 0.950 . S
H422 C430 0.950 . S
H423 C432 0.950 . S
H424 C434 0.950 . S
H425 C436 0.950 1_554 S
H426 C438 0.950 . S
H427 C439 0.950 . S
C428 H420 0.950 . S
C428 C429 1.386 . S
C428 C430 1.391 1_554 S
C429 C428 1.386 . S
C429 C433 1.393 . S
C430 H422 0.950 . S
C430 C428 1.391 1_556 S
C430 C431 1.400 1_556 S
C431 C430 1.400 1_554 S
C431 C432 1.398 . S
C431 C437 1.491 1_554 S
C432 H423 0.950 . S
C432 C431 1.398 . S
C432 C433 1.391 . S
C433 H421 0.950 . S
C433 C429 1.393 . S
C433 C432 1.391 . S
C434 H424 0.950 . S
C434 C435 1.386 . S
C434 C436 1.391 . S
C435 C434 1.386 . S
C435 C439 1.393 . S
C436 H425 0.950 1_556 S
C436 C434 1.391 . S
C436 C437 1.400 . S
C437 C431 1.491 1_556 S
C437 C436 1.400 . S
C437 C438 1.398 . S
C438 H426 0.950 . S
C438 C437 1.398 . S
C438 C439 1.391 . S
C439 H427 0.950 . S
C439 C435 1.393 . S
C439 C438 1.391 . S
H440 C448 0.950 . S
H441 C453 0.950 . S
H442 C450 0.950 . S
H443 C452 0.950 . S
H444 C454 0.950 . S
H445 C456 0.950 1_554 S
H446 C458 0.950 . S
H447 C459 0.950 1_455 S
C448 H440 0.950 . S
C448 C449 1.386 . S
C448 C450 1.391 . S
C449 C448 1.386 . S
C449 C453 1.393 . S
C450 H442 0.950 . S
C450 C448 1.391 . S
C450 C451 1.400 . S
C451 C450 1.400 . S
C451 C452 1.398 . S
C451 C457 1.491 . S
C452 H443 0.950 . S
C452 C451 1.398 . S
C452 C453 1.391 . S
C453 H441 0.950 . S
C453 C449 1.393 . S
C453 C452 1.391 . S
C454 H444 0.950 . S
C454 C455 1.386 1_554 S
C454 C456 1.391 1_554 S
C455 C454 1.386 1_556 S
C455 C459 1.393 . S
C456 H445 0.950 1_556 S
C456 C454 1.391 1_556 S
C456 C457 1.400 . S
C457 C451 1.491 . S
C457 C456 1.400 . S
C457 C458 1.398 . S
C458 H446 0.950 . S
C458 C457 1.398 . S
C458 C459 1.391 . S
C459 H447 0.950 1_655 S
C459 C455 1.393 . S
C459 C458 1.391 . S
H460 C468 0.950 . S
H461 C473 0.950 . S
H462 C470 0.950 . S
H463 C472 0.950 . S
H464 C474 0.950 . S
H465 C476 0.950 . S
H466 C478 0.950 . S
H467 C479 0.950 . S
C468 H460 0.950 . S
C468 C469 1.386 . S
C468 C470 1.391 . S
C469 C468 1.386 . S
C469 C473 1.393 . S
C470 H462 0.950 . S
C470 C468 1.391 . S
C470 C471 1.400 . S
C471 C470 1.400 . S
C471 C472 1.398 . S
C471 C477 1.491 . S
C472 H463 0.950 . S
C472 C471 1.398 . S
C472 C473 1.391 . S
C473 H461 0.950 . S
C473 C469 1.393 . S
C473 C472 1.391 . S
C474 H464 0.950 . S
C474 C475 1.386 1_556 S
C474 C476 1.391 . S
C475 C474 1.386 1_554 S
C475 C479 1.393 . S
C476 H465 0.950 . S
C476 C474 1.391 . S
C476 C477 1.400 . S
C477 C471 1.491 . S
C477 C476 1.400 . S
C477 C478 1.398 1_556 S
C478 H466 0.950 . S
C478 C477 1.398 1_554 S
C478 C479 1.391 . S
C479 H467 0.950 . S
C479 C475 1.393 . S
C479 C478 1.391 . S
H480 C488 0.950 . S
H481 C493 0.950 . S
H482 C490 0.950 . S
H483 C492 0.950 . S
H484 C494 0.950 1_554 S
H485 C496 0.950 . S
H486 C498 0.950 . S
H487 C499 0.950 . S
C488 H480 0.950 . S
C488 C489 1.386 . S
C488 C490 1.391 . S
C489 C488 1.386 . S
C489 C493 1.393 . S
C490 H482 0.950 . S
C490 C488 1.391 . S
C490 C491 1.400 . S
C491 C490 1.400 . S
C491 C492 1.398 . S
C491 C497 1.491 . S
C492 H483 0.950 . S
C492 C491 1.398 . S
C492 C493 1.391 . S
C493 H481 0.950 . S
C493 C489 1.393 . S
C493 C492 1.391 . S
C494 H484 0.950 1_556 S
C494 C495 1.386 . S
C494 C496 1.391 . S
C495 C494 1.386 . S
C495 C499 1.393 . S
C496 H485 0.950 . S
C496 C494 1.391 . S
C496 C497 1.400 . S
C497 C491 1.491 . S
C497 C496 1.400 . S
C497 C498 1.398 . S
C498 H486 0.950 . S
C498 C497 1.398 . S
C498 C499 1.391 . S
C499 H487 0.950 . S
C499 C495 1.393 . S
C499 C498 1.391 . S
H500 C508 0.950 . S
H501 C513 0.950 . S
H502 C510 0.950 1_554 S
H503 C512 0.950 . S
H504 C514 0.950 . S
H505 C516 0.950 . S
H506 C518 0.950 . S
H507 C519 0.950 . S
C508 H500 0.950 . S
C508 C509 1.386 . S
C508 C510 1.391 1_554 S
C509 C508 1.386 . S
C509 C513 1.393 1_554 S
C510 H502 0.950 1_556 S
C510 C508 1.391 1_556 S
C510 C511 1.400 . S
C511 C510 1.400 . S
C511 C512 1.398 . S
C511 C517 1.491 . S
C512 H503 0.950 . S
C512 C511 1.398 . S
C512 C513 1.391 . S
C513 H501 0.950 . S
C513 C509 1.393 1_556 S
C513 C512 1.391 . S
C514 H504 0.950 . S
C514 C515 1.386 . S
C514 C516 1.391 . S
C515 C514 1.386 . S
C515 C519 1.393 . S
C516 H505 0.950 . S
C516 C514 1.391 . S
C516 C517 1.400 . S
C517 C511 1.491 . S
C517 C516 1.400 . S
C517 C518 1.398 . S
C518 H506 0.950 . S
C518 C517 1.398 . S
C518 C519 1.391 . S
C519 H507 0.950 . S
C519 C515 1.393 . S
C519 C518 1.391 . S
H520 C528 0.950 . S
H521 C533 0.950 . S
H522 C530 0.950 . S
H523 C532 0.950 1_554 S
H524 C534 0.950 . S
H525 C536 0.950 . S
H526 C538 0.950 . S
H527 C539 0.950 . S
C528 H520 0.950 . S
C528 C529 1.386 . S
C528 C530 1.391 . S
C529 C528 1.386 . S
C529 C533 1.393 . S
C530 H522 0.950 . S
C530 C528 1.391 . S
C530 C531 1.400 . S
C531 C530 1.400 . S
C531 C532 1.398 . S
C531 C537 1.491 . S
C532 H523 0.950 1_556 S
C532 C531 1.398 . S
C532 C533 1.391 . S
C533 H521 0.950 . S
C533 C529 1.393 . S
C533 C532 1.391 . S
C534 H524 0.950 . S
C534 C535 1.386 . S
C534 C536 1.391 . S
C535 C534 1.386 . S
C535 C539 1.393 . S
C536 H525 0.950 . S
C536 C534 1.391 . S
C536 C537 1.400 1_554 S
C537 C531 1.491 . S
C537 C536 1.400 1_556 S
C537 C538 1.398 . S
C538 H526 0.950 . S
C538 C537 1.398 . S
C538 C539 1.391 1_556 S
C539 H527 0.950 . S
C539 C535 1.393 . S
C539 C538 1.391 1_554 S
H540 C548 0.950 . S
H541 C553 0.950 . S
H542 C550 0.950 . S
H543 C552 0.951 1_545 S
H544 C554 0.950 . S
H545 C556 0.950 . S
H546 C558 0.950 . S
H547 C559 0.950 . S
C548 H540 0.950 . S
C548 C549 1.386 1_565 S
C548 C550 1.391 . S
C549 C548 1.386 1_545 S
C549 C553 1.393 . S
C550 H542 0.950 . S
C550 C548 1.391 . S
C550 C551 1.400 . S
C551 C550 1.400 . S
C551 C552 1.398 . S
C551 C557 1.491 . S
C552 H543 0.951 1_565 S
C552 C551 1.398 . S
C552 C553 1.391 1_565 S
C553 H541 0.950 . S
C553 C549 1.393 . S
C553 C552 1.391 1_545 S
C554 H544 0.950 . S
C554 C555 1.386 . S
C554 C556 1.391 . S
C555 C554 1.386 . S
C555 C559 1.393 . S
C556 H545 0.950 . S
C556 C554 1.391 . S
C556 C557 1.400 . S
C557 C551 1.491 . S
C557 C556 1.400 . S
C557 C558 1.398 . S
C558 H546 0.950 . S
C558 C557 1.398 . S
C558 C559 1.391 . S
C559 H547 0.950 . S
C559 C555 1.393 . S
C559 C558 1.391 . S
H560 C568 0.950 . S
H561 C573 0.950 . S
H562 C570 0.950 . S
H563 C572 0.950 . S
H564 C574 0.950 . S
H565 C576 0.950 . S
H566 C578 0.950 1_556 S
H567 C579 0.950 1_556 S
C568 H560 0.950 . S
C568 C569 1.386 . S
C568 C570 1.391 . S
C569 C568 1.386 . S
C569 C573 1.393 . S
C570 H562 0.950 . S
C570 C568 1.391 . S
C570 C571 1.400 . S
C571 C570 1.400 . S
C571 C572 1.398 . S
C571 C577 1.491 . S
C572 H563 0.950 . S
C572 C571 1.398 . S
C572 C573 1.391 . S
C573 H561 0.950 . S
C573 C569 1.393 . S
C573 C572 1.391 . S
C574 H564 0.950 . S
C574 C575 1.386 . S
C574 C576 1.391 . S
C575 C574 1.386 . S
C575 C579 1.393 . S
C576 H565 0.950 . S
C576 C574 1.391 . S
C576 C577 1.400 . S
C577 C571 1.491 . S
C577 C576 1.400 . S
C577 C578 1.398 . S
C578 H566 0.950 1_554 S
C578 C577 1.398 . S
C578 C579 1.391 . S
C579 H567 0.950 1_554 S
C579 C575 1.393 . S
C579 C578 1.391 . S
H580 C588 0.950 . S
H581 C593 0.950 . S
H582 C590 0.950 . S
H583 C592 0.950 . S
H584 C594 0.950 . S
H585 C596 0.950 . S
H586 C598 0.950 . S
H587 C599 0.950 . S
C588 H580 0.950 . S
C588 C589 1.386 . S
C588 C590 1.391 . S
C589 C588 1.386 . S
C589 C593 1.393 . S
C590 H582 0.950 . S
C590 C588 1.391 . S
C590 C591 1.400 . S
C591 C590 1.400 . S
C591 C592 1.398 . S
C591 C597 1.491 . S
C592 H583 0.950 . S
C592 C591 1.398 . S
C592 C593 1.391 . S
C593 H581 0.950 . S
C593 C589 1.393 . S
C593 C592 1.391 . S
C594 H584 0.950 . S
C594 C595 1.386 . S
C594 C596 1.391 . S
C595 C594 1.386 . S
C595 C599 1.393 . S
C596 H585 0.950 . S
C596 C594 1.391 . S
C596 C597 1.400 . S
C597 C591 1.491 . S
C597 C596 1.400 . S
C597 C598 1.398 . S
C598 H586 0.950 . S
C598 C597 1.398 . S
C598 C599 1.391 . S
C599 H587 0.950 . S
C599 C595 1.393 . S
C599 C598 1.391 . S
H600 C608 0.950 . S
H601 C613 0.950 . S
H602 C610 0.950 . S
H603 C612 0.950 . S
H604 C614 0.950 . S
H605 C616 0.950 . S
H606 C618 0.950 . S
H607 C619 0.950 . S
C608 H600 0.950 . S
C608 C609 1.386 . S
C608 C610 1.391 . S
C609 C608 1.386 . S
C609 C613 1.393 . S
C610 H602 0.950 . S
C610 C608 1.391 . S
C610 C611 1.400 . S
C611 C610 1.400 . S
C611 C612 1.398 . S
C611 C617 1.491 . S
C612 H603 0.950 . S
C612 C611 1.398 . S
C612 C613 1.391 . S
C613 H601 0.950 . S
C613 C609 1.393 . S
C613 C612 1.391 . S
C614 H604 0.950 . S
C614 C615 1.386 . S
C614 C616 1.391 . S
C615 C614 1.386 . S
C615 C619 1.393 . S
C616 H605 0.950 . S
C616 C614 1.391 . S
C616 C617 1.400 . S
C617 C611 1.491 . S
C617 C616 1.400 . S
C617 C618 1.398 . S
C618 H606 0.950 . S
C618 C617 1.398 . S
C618 C619 1.391 . S
C619 H607 0.950 . S
C619 C615 1.393 . S
C619 C618 1.391 . S
H620 C628 0.950 . S
H621 C633 0.950 . S
H622 C630 0.950 . S
H623 C632 0.950 . S
H624 C634 0.950 . S
H625 C636 0.950 . S
H626 C638 0.950 . S
H627 C639 0.950 . S
C628 H620 0.950 . S
C628 C629 1.386 . S
C628 C630 1.391 . S
C629 C628 1.386 . S
C629 C633 1.393 . S
C630 H622 0.950 . S
C630 C628 1.391 . S
C630 C631 1.400 . S
C631 C630 1.400 . S
C631 C632 1.398 . S
C631 C637 1.491 . S
C632 H623 0.950 . S
C632 C631 1.398 . S
C632 C633 1.391 . S
C633 H621 0.950 . S
C633 C629 1.393 . S
C633 C632 1.391 . S
C634 H624 0.950 . S
C634 C635 1.386 . S
C634 C636 1.391 1_565 S
C635 C634 1.386 . S
C635 C639 1.393 . S
C636 H625 0.950 . S
C636 C634 1.391 1_545 S
C636 C637 1.400 . S
C637 C631 1.491 . S
C637 C636 1.400 . S
C637 C638 1.398 1_545 S
C638 H626 0.950 . S
C638 C637 1.398 1_565 S
C638 C639 1.391 . S
C639 H627 0.950 . S
C639 C635 1.393 . S
C639 C638 1.391 . S
H640 C648 0.950 . S
H641 C653 0.950 . S
H642 C650 0.950 . S
H643 C652 0.950 . S
H644 C654 0.950 . S
H645 C656 0.950 . S
H646 C658 0.950 . S
H647 C659 0.950 . S
C648 H640 0.950 . S
C648 C649 1.386 1_455 S
C648 C650 1.391 . S
C649 C648 1.386 1_655 S
C649 C653 1.393 . S
C650 H642 0.950 . S
C650 C648 1.391 . S
C650 C651 1.400 . S
C651 C650 1.400 . S
C651 C652 1.398 1_455 S
C651 C657 1.491 . S
C652 H643 0.950 . S
C652 C651 1.398 1_655 S
C652 C653 1.391 . S
C653 H641 0.950 . S
C653 C649 1.393 . S
C653 C652 1.391 . S
C654 H644 0.950 . S
C654 C655 1.386 . S
C654 C656 1.391 . S
C655 C654 1.386 . S
C655 C659 1.393 . S
C656 H645 0.950 . S
C656 C654 1.391 . S
C656 C657 1.400 . S
C657 C651 1.491 . S
C657 C656 1.400 . S
C657 C658 1.398 . S
C658 H646 0.950 . S
C658 C657 1.398 . S
C658 C659 1.391 . S
C659 H647 0.950 . S
C659 C655 1.393 . S
C659 C658 1.391 . S
H660 C668 0.950 . S
H661 C673 0.950 . S
H662 C670 0.950 . S
H663 C672 0.950 . S
H664 C674 0.950 . S
H665 C676 0.950 . S
H666 C678 0.950 . S
H667 C679 0.950 . S
C668 H660 0.950 . S
C668 C669 1.386 . S
C668 C670 1.391 . S
C669 C668 1.386 . S
C669 C673 1.393 . S
C670 H662 0.950 . S
C670 C668 1.391 . S
C670 C671 1.400 . S
C671 C670 1.400 . S
C671 C672 1.398 . S
C671 C677 1.491 . S
C672 H663 0.950 . S
C672 C671 1.398 . S
C672 C673 1.391 . S
C673 H661 0.950 . S
C673 C669 1.393 . S
C673 C672 1.391 . S
C674 H664 0.950 . S
C674 C675 1.386 . S
C674 C676 1.391 . S
C675 C674 1.386 . S
C675 C679 1.393 . S
C676 H665 0.950 . S
C676 C674 1.391 . S
C676 C677 1.400 . S
C677 C671 1.491 . S
C677 C676 1.400 . S
C677 C678 1.398 . S
C678 H666 0.950 . S
C678 C677 1.398 . S
C678 C679 1.391 . S
C679 H667 0.950 . S
C679 C675 1.393 . S
C679 C678 1.391 . S
H680 C688 0.950 . S
H681 C693 0.950 . S
H682 C690 0.950 . S
H683 C692 0.950 . S
H684 C694 0.950 . S
H685 C696 0.950 . S
H686 C698 0.950 . S
H687 C699 0.950 . S
C688 H680 0.950 . S
C688 C689 1.386 . S
C688 C690 1.391 1_565 S
C689 C688 1.386 . S
C689 C693 1.393 . S
C690 H682 0.950 . S
C690 C688 1.391 1_545 S
C690 C691 1.400 . S
C691 C690 1.400 . S
C691 C692 1.398 1_545 S
C691 C697 1.491 . S
C692 H683 0.950 . S
C692 C691 1.398 1_565 S
C692 C693 1.391 . S
C693 H681 0.950 . S
C693 C689 1.393 . S
C693 C692 1.391 . S
C694 H684 0.950 . S
C694 C695 1.386 . S
C694 C696 1.391 . S
C695 C694 1.386 . S
C695 C699 1.393 . S
C696 H685 0.950 . S
C696 C694 1.391 . S
C696 C697 1.400 . S
C697 C691 1.491 . S
C697 C696 1.400 . S
C697 C698 1.398 . S
C698 H686 0.950 . S
C698 C697 1.398 . S
C698 C699 1.391 . S
C699 H687 0.950 . S
C699 C695 1.393 . S
C699 C698 1.391 . S
H700 C708 0.950 . S
H701 C713 0.950 . S
H702 C710 0.950 . S
H703 C712 0.950 . S
H704 C714 0.950 . S
H705 C716 0.950 . S
H706 C718 0.950 . S
H707 C719 0.950 . S
C708 H700 0.950 . S
C708 C709 1.386 . S
C708 C710 1.391 1_655 S
C709 C708 1.386 . S
C709 C713 1.393 . S
C710 H702 0.950 . S
C710 C708 1.391 1_455 S
C710 C711 1.400 . S
C711 C710 1.400 . S
C711 C712 1.398 . S
C711 C717 1.491 . S
C712 H703 0.950 . S
C712 C711 1.398 . S
C712 C713 1.391 1_455 S
C713 H701 0.950 . S
C713 C709 1.393 . S
C713 C712 1.391 1_655 S
C714 H704 0.950 . S
C714 C715 1.386 . S
C714 C716 1.391 . S
C715 C714 1.386 . S
C715 C719 1.393 . S
C716 H705 0.950 . S
C716 C714 1.391 . S
C716 C717 1.400 . S
C717 C711 1.491 . S
C717 C716 1.400 . S
C717 C718 1.398 . S
C718 H706 0.950 . S
C718 C717 1.398 . S
C718 C719 1.391 . S
C719 H707 0.950 . S
C719 C715 1.393 . S
C719 C718 1.391 . S
C189 C8 1.647 . S
C195 C9 1.647 . S
C209 C28 1.684 . S
C215 C29 1.684 . S
C229 C48 1.706 1_556 S
C235 C49 1.706 . S
C249 C69 1.636 . S
C255 C68 1.636 . S
C269 C89 1.675 . S
C275 C88 1.686 . S
C289 C109 1.706 . S
C295 C108 1.706 1_556 S
C309 C122 0.490 . S
C315 C121 0.490 . S
C329 C141 0.406 . S
C335 C142 0.406 . S
C349 C162 0.426 . S
C355 C161 0.426 . S
C369 C118 1.806 . S
C375 C2 1.811 . S
C389 C22 1.787 . S
C395 C78 1.802 . S
C409 C42 1.867 . S
C415 C98 1.879 . S
C429 C58 1.640 . S
C435 C139 1.750 . S
C449 C149 1.271 . S
C455 C18 1.237 . S
C469 C179 1.690 . S
C475 C38 1.583 . S
C489 C168 1.285 . S
C495 C1 1.282 . S
C509 C21 1.305 . S
C515 C128 1.321 . S
C529 C158 1.771 . S
C535 C41 1.725 . S
C549 C59 1.808 . S
C555 C61 1.810 . S
C569 C81 1.787 . S
C575 C19 1.802 . S
C589 C39 1.875 . S
C595 C101 1.863 . S
C609 C169 1.276 . S
C615 C62 1.281 . S
C629 C129 1.316 . S
C635 C82 1.317 . S
C649 C159 1.779 . S
C655 C102 1.725 . S
C669 C138 1.746 . S
C675 C119 1.653 . S
C689 C79 1.234 . S
C695 C148 1.272 . S
C709 C178 1.696 . S
C715 C99 1.578 . S
