# Generated by pormake.
# Topology rho, (4)-cn, num edge types: 1
# Building blocks:
#     Node 0, Type 0, BuildingBlock: GALJAG_clean_sbu_0, # of connection points: 4
#     Node 1, Type 0, BuildingBlock: GALJAG_clean_sbu_0, # of connection points: 4
#     Node 2, Type 0, BuildingBlock: GALJAG_clean_sbu_0, # of connection points: 4
#     Node 3, Type 0, BuildingBlock: GALJAG_clean_sbu_0, # of connection points: 4
#     Node 4, Type 0, BuildingBlock: GALJAG_clean_sbu_0, # of connection points: 4
#     Node 5, Type 0, BuildingBlock: GALJAG_clean_sbu_0, # of connection points: 4
#     Node 6, Type 0, BuildingBlock: GALJAG_clean_sbu_0, # of connection points: 4
#     Node 7, Type 0, BuildingBlock: GALJAG_clean_sbu_0, # of connection points: 4
#     Node 8, Type 0, BuildingBlock: GALJAG_clean_sbu_0, # of connection points: 4
#     Node 9, Type 0, BuildingBlock: GALJAG_clean_sbu_0, # of connection points: 4
#     Node 10, Type 0, BuildingBlock: GALJAG_clean_sbu_0, # of connection points: 4
#     Node 11, Type 0, BuildingBlock: GALJAG_clean_sbu_0, # of connection points: 4
#     Node 12, Type 0, BuildingBlock: GALJAG_clean_sbu_0, # of connection points: 4
#     Node 13, Type 0, BuildingBlock: GALJAG_clean_sbu_0, # of connection points: 4
#     Node 14, Type 0, BuildingBlock: GALJAG_clean_sbu_0, # of connection points: 4
#     Node 15, Type 0, BuildingBlock: GALJAG_clean_sbu_0, # of connection points: 4
#     Node 16, Type 0, BuildingBlock: GALJAG_clean_sbu_0, # of connection points: 4
#     Node 17, Type 0, BuildingBlock: GALJAG_clean_sbu_0, # of connection points: 4
#     Node 18, Type 0, BuildingBlock: GALJAG_clean_sbu_0, # of connection points: 4
#     Node 19, Type 0, BuildingBlock: GALJAG_clean_sbu_0, # of connection points: 4
#     Node 20, Type 0, BuildingBlock: GALJAG_clean_sbu_0, # of connection points: 4
#     Node 21, Type 0, BuildingBlock: GALJAG_clean_sbu_0, # of connection points: 4
#     Node 22, Type 0, BuildingBlock: GALJAG_clean_sbu_0, # of connection points: 4
#     Node 23, Type 0, BuildingBlock: GALJAG_clean_sbu_0, # of connection points: 4
#     Node 24, Type 0, BuildingBlock: GALJAG_clean_sbu_0, # of connection points: 4
#     Node 25, Type 0, BuildingBlock: GALJAG_clean_sbu_0, # of connection points: 4
#     Node 26, Type 0, BuildingBlock: GALJAG_clean_sbu_0, # of connection points: 4
#     Node 27, Type 0, BuildingBlock: GALJAG_clean_sbu_0, # of connection points: 4
#     Node 28, Type 0, BuildingBlock: GALJAG_clean_sbu_0, # of connection points: 4
#     Node 29, Type 0, BuildingBlock: GALJAG_clean_sbu_0, # of connection points: 4
#     Node 30, Type 0, BuildingBlock: GALJAG_clean_sbu_0, # of connection points: 4
#     Node 31, Type 0, BuildingBlock: GALJAG_clean_sbu_0, # of connection points: 4
#     Node 32, Type 0, BuildingBlock: GALJAG_clean_sbu_0, # of connection points: 4
#     Node 33, Type 0, BuildingBlock: GALJAG_clean_sbu_0, # of connection points: 4
#     Node 34, Type 0, BuildingBlock: GALJAG_clean_sbu_0, # of connection points: 4
#     Node 35, Type 0, BuildingBlock: GALJAG_clean_sbu_0, # of connection points: 4
#     Node 36, Type 0, BuildingBlock: GALJAG_clean_sbu_0, # of connection points: 4
#     Node 37, Type 0, BuildingBlock: GALJAG_clean_sbu_0, # of connection points: 4
#     Node 38, Type 0, BuildingBlock: GALJAG_clean_sbu_0, # of connection points: 4
#     Node 39, Type 0, BuildingBlock: GALJAG_clean_sbu_0, # of connection points: 4
#     Node 40, Type 0, BuildingBlock: GALJAG_clean_sbu_0, # of connection points: 4
#     Node 41, Type 0, BuildingBlock: GALJAG_clean_sbu_0, # of connection points: 4
#     Node 42, Type 0, BuildingBlock: GALJAG_clean_sbu_0, # of connection points: 4
#     Node 43, Type 0, BuildingBlock: GALJAG_clean_sbu_0, # of connection points: 4
#     Node 44, Type 0, BuildingBlock: GALJAG_clean_sbu_0, # of connection points: 4
#     Node 45, Type 0, BuildingBlock: GALJAG_clean_sbu_0, # of connection points: 4
#     Node 46, Type 0, BuildingBlock: GALJAG_clean_sbu_0, # of connection points: 4
#     Node 47, Type 0, BuildingBlock: GALJAG_clean_sbu_0, # of connection points: 4
#     Edge 48, Type (0, 0), BuildingBlock: ZUJKAS_clean_linker_0, # of connection points: 2
#     Edge 49, Type (0, 0), BuildingBlock: ZUJKAS_clean_linker_0, # of connection points: 2
#     Edge 50, Type (0, 0), BuildingBlock: ZUJKAS_clean_linker_0, # of connection points: 2
#     Edge 51, Type (0, 0), BuildingBlock: ZUJKAS_clean_linker_0, # of connection points: 2
#     Edge 52, Type (0, 0), BuildingBlock: ZUJKAS_clean_linker_0, # of connection points: 2
#     Edge 53, Type (0, 0), BuildingBlock: ZUJKAS_clean_linker_0, # of connection points: 2
#     Edge 54, Type (0, 0), BuildingBlock: ZUJKAS_clean_linker_0, # of connection points: 2
#     Edge 55, Type (0, 0), BuildingBlock: ZUJKAS_clean_linker_0, # of connection points: 2
#     Edge 56, Type (0, 0), BuildingBlock: ZUJKAS_clean_linker_0, # of connection points: 2
#     Edge 57, Type (0, 0), BuildingBlock: ZUJKAS_clean_linker_0, # of connection points: 2
#     Edge 58, Type (0, 0), BuildingBlock: ZUJKAS_clean_linker_0, # of connection points: 2
#     Edge 59, Type (0, 0), BuildingBlock: ZUJKAS_clean_linker_0, # of connection points: 2
#     Edge 60, Type (0, 0), BuildingBlock: ZUJKAS_clean_linker_0, # of connection points: 2
#     Edge 61, Type (0, 0), BuildingBlock: ZUJKAS_clean_linker_0, # of connection points: 2
#     Edge 62, Type (0, 0), BuildingBlock: ZUJKAS_clean_linker_0, # of connection points: 2
#     Edge 63, Type (0, 0), BuildingBlock: ZUJKAS_clean_linker_0, # of connection points: 2
#     Edge 64, Type (0, 0), BuildingBlock: ZUJKAS_clean_linker_0, # of connection points: 2
#     Edge 65, Type (0, 0), BuildingBlock: ZUJKAS_clean_linker_0, # of connection points: 2
#     Edge 66, Type (0, 0), BuildingBlock: ZUJKAS_clean_linker_0, # of connection points: 2
#     Edge 67, Type (0, 0), BuildingBlock: ZUJKAS_clean_linker_0, # of connection points: 2
#     Edge 68, Type (0, 0), BuildingBlock: ZUJKAS_clean_linker_0, # of connection points: 2
#     Edge 69, Type (0, 0), BuildingBlock: ZUJKAS_clean_linker_0, # of connection points: 2
#     Edge 70, Type (0, 0), BuildingBlock: ZUJKAS_clean_linker_0, # of connection points: 2
#     Edge 71, Type (0, 0), BuildingBlock: ZUJKAS_clean_linker_0, # of connection points: 2
#     Edge 72, Type (0, 0), BuildingBlock: ZUJKAS_clean_linker_0, # of connection points: 2
#     Edge 73, Type (0, 0), BuildingBlock: ZUJKAS_clean_linker_0, # of connection points: 2
#     Edge 74, Type (0, 0), BuildingBlock: ZUJKAS_clean_linker_0, # of connection points: 2
#     Edge 75, Type (0, 0), BuildingBlock: ZUJKAS_clean_linker_0, # of connection points: 2
#     Edge 76, Type (0, 0), BuildingBlock: ZUJKAS_clean_linker_0, # of connection points: 2
#     Edge 77, Type (0, 0), BuildingBlock: ZUJKAS_clean_linker_0, # of connection points: 2
#     Edge 78, Type (0, 0), BuildingBlock: ZUJKAS_clean_linker_0, # of connection points: 2
#     Edge 79, Type (0, 0), BuildingBlock: ZUJKAS_clean_linker_0, # of connection points: 2
#     Edge 80, Type (0, 0), BuildingBlock: ZUJKAS_clean_linker_0, # of connection points: 2
#     Edge 81, Type (0, 0), BuildingBlock: ZUJKAS_clean_linker_0, # of connection points: 2
#     Edge 82, Type (0, 0), BuildingBlock: ZUJKAS_clean_linker_0, # of connection points: 2
#     Edge 83, Type (0, 0), BuildingBlock: ZUJKAS_clean_linker_0, # of connection points: 2
#     Edge 84, Type (0, 0), BuildingBlock: ZUJKAS_clean_linker_0, # of connection points: 2
#     Edge 85, Type (0, 0), BuildingBlock: ZUJKAS_clean_linker_0, # of connection points: 2
#     Edge 86, Type (0, 0), BuildingBlock: ZUJKAS_clean_linker_0, # of connection points: 2
#     Edge 87, Type (0, 0), BuildingBlock: ZUJKAS_clean_linker_0, # of connection points: 2
#     Edge 88, Type (0, 0), BuildingBlock: ZUJKAS_clean_linker_0, # of connection points: 2
#     Edge 89, Type (0, 0), BuildingBlock: ZUJKAS_clean_linker_0, # of connection points: 2
#     Edge 90, Type (0, 0), BuildingBlock: ZUJKAS_clean_linker_0, # of connection points: 2
#     Edge 91, Type (0, 0), BuildingBlock: ZUJKAS_clean_linker_0, # of connection points: 2
#     Edge 92, Type (0, 0), BuildingBlock: ZUJKAS_clean_linker_0, # of connection points: 2
#     Edge 93, Type (0, 0), BuildingBlock: ZUJKAS_clean_linker_0, # of connection points: 2
#     Edge 94, Type (0, 0), BuildingBlock: ZUJKAS_clean_linker_0, # of connection points: 2
#     Edge 95, Type (0, 0), BuildingBlock: ZUJKAS_clean_linker_0, # of connection points: 2
#     Edge 96, Type (0, 0), BuildingBlock: ZUJKAS_clean_linker_0, # of connection points: 2
#     Edge 97, Type (0, 0), BuildingBlock: ZUJKAS_clean_linker_0, # of connection points: 2
#     Edge 98, Type (0, 0), BuildingBlock: ZUJKAS_clean_linker_0, # of connection points: 2
#     Edge 99, Type (0, 0), BuildingBlock: ZUJKAS_clean_linker_0, # of connection points: 2
#     Edge 100, Type (0, 0), BuildingBlock: ZUJKAS_clean_linker_0, # of connection points: 2
#     Edge 101, Type (0, 0), BuildingBlock: ZUJKAS_clean_linker_0, # of connection points: 2
#     Edge 102, Type (0, 0), BuildingBlock: ZUJKAS_clean_linker_0, # of connection points: 2
#     Edge 103, Type (0, 0), BuildingBlock: ZUJKAS_clean_linker_0, # of connection points: 2
#     Edge 104, Type (0, 0), BuildingBlock: ZUJKAS_clean_linker_0, # of connection points: 2
#     Edge 105, Type (0, 0), BuildingBlock: ZUJKAS_clean_linker_0, # of connection points: 2
#     Edge 106, Type (0, 0), BuildingBlock: ZUJKAS_clean_linker_0, # of connection points: 2
#     Edge 107, Type (0, 0), BuildingBlock: ZUJKAS_clean_linker_0, # of connection points: 2
#     Edge 108, Type (0, 0), BuildingBlock: ZUJKAS_clean_linker_0, # of connection points: 2
#     Edge 109, Type (0, 0), BuildingBlock: ZUJKAS_clean_linker_0, # of connection points: 2
#     Edge 110, Type (0, 0), BuildingBlock: ZUJKAS_clean_linker_0, # of connection points: 2
#     Edge 111, Type (0, 0), BuildingBlock: ZUJKAS_clean_linker_0, # of connection points: 2
#     Edge 112, Type (0, 0), BuildingBlock: ZUJKAS_clean_linker_0, # of connection points: 2
#     Edge 113, Type (0, 0), BuildingBlock: ZUJKAS_clean_linker_0, # of connection points: 2
#     Edge 114, Type (0, 0), BuildingBlock: ZUJKAS_clean_linker_0, # of connection points: 2
#     Edge 115, Type (0, 0), BuildingBlock: ZUJKAS_clean_linker_0, # of connection points: 2
#     Edge 116, Type (0, 0), BuildingBlock: ZUJKAS_clean_linker_0, # of connection points: 2
#     Edge 117, Type (0, 0), BuildingBlock: ZUJKAS_clean_linker_0, # of connection points: 2
#     Edge 118, Type (0, 0), BuildingBlock: ZUJKAS_clean_linker_0, # of connection points: 2
#     Edge 119, Type (0, 0), BuildingBlock: ZUJKAS_clean_linker_0, # of connection points: 2
#     Edge 120, Type (0, 0), BuildingBlock: ZUJKAS_clean_linker_0, # of connection points: 2
#     Edge 121, Type (0, 0), BuildingBlock: ZUJKAS_clean_linker_0, # of connection points: 2
#     Edge 122, Type (0, 0), BuildingBlock: ZUJKAS_clean_linker_0, # of connection points: 2
#     Edge 123, Type (0, 0), BuildingBlock: ZUJKAS_clean_linker_0, # of connection points: 2
#     Edge 124, Type (0, 0), BuildingBlock: ZUJKAS_clean_linker_0, # of connection points: 2
#     Edge 125, Type (0, 0), BuildingBlock: ZUJKAS_clean_linker_0, # of connection points: 2
#     Edge 126, Type (0, 0), BuildingBlock: ZUJKAS_clean_linker_0, # of connection points: 2
#     Edge 127, Type (0, 0), BuildingBlock: ZUJKAS_clean_linker_0, # of connection points: 2
#     Edge 128, Type (0, 0), BuildingBlock: ZUJKAS_clean_linker_0, # of connection points: 2
#     Edge 129, Type (0, 0), BuildingBlock: ZUJKAS_clean_linker_0, # of connection points: 2
#     Edge 130, Type (0, 0), BuildingBlock: ZUJKAS_clean_linker_0, # of connection points: 2
#     Edge 131, Type (0, 0), BuildingBlock: ZUJKAS_clean_linker_0, # of connection points: 2
#     Edge 132, Type (0, 0), BuildingBlock: ZUJKAS_clean_linker_0, # of connection points: 2
#     Edge 133, Type (0, 0), BuildingBlock: ZUJKAS_clean_linker_0, # of connection points: 2
#     Edge 134, Type (0, 0), BuildingBlock: ZUJKAS_clean_linker_0, # of connection points: 2
#     Edge 135, Type (0, 0), BuildingBlock: ZUJKAS_clean_linker_0, # of connection points: 2
#     Edge 136, Type (0, 0), BuildingBlock: ZUJKAS_clean_linker_0, # of connection points: 2
#     Edge 137, Type (0, 0), BuildingBlock: ZUJKAS_clean_linker_0, # of connection points: 2
#     Edge 138, Type (0, 0), BuildingBlock: ZUJKAS_clean_linker_0, # of connection points: 2
#     Edge 139, Type (0, 0), BuildingBlock: ZUJKAS_clean_linker_0, # of connection points: 2
#     Edge 140, Type (0, 0), BuildingBlock: ZUJKAS_clean_linker_0, # of connection points: 2
#     Edge 141, Type (0, 0), BuildingBlock: ZUJKAS_clean_linker_0, # of connection points: 2
#     Edge 142, Type (0, 0), BuildingBlock: ZUJKAS_clean_linker_0, # of connection points: 2
#     Edge 143, Type (0, 0), BuildingBlock: ZUJKAS_clean_linker_0, # of connection points: 2
# Relax obj value: 0.062
# Max RMSD: 0.056
# Mean RMSD: 0.055
data_MOF--net-rho--node1-GALJAG_clean_sbu_0--edge1-ZUJKAS_clean_linker_0
_symmetry_space_group_name_H-M    P1
_symmetry_Int_Tables_number       1
_symmetry_cell_setting            triclinic
loop_
_symmetry_equiv_pos_as_xyz
'x, y, z'
_cell_length_a     94.504743
_cell_length_b     94.511409
_cell_length_c     94.516004
_cell_angle_alpha  90.033763
_cell_angle_beta   90.028192
_cell_angle_gamma 90.132619
loop_
_atom_site_label
_atom_site_type_symbol
_atom_site_fract_x
_atom_site_fract_y
_atom_site_fract_z
_atom_type_partial_charge
In0 In 0.10355 0.24781 0.39425 0.0
O1 O 0.11141 0.25886 0.41431 0.0
O2 O 0.10095 0.23907 0.41654 0.0
C3 C 0.10943 0.26824 0.37524 0.0
C4 C 0.12229 0.22734 0.3878 0.0
C5 C 0.07518 0.24624 0.39145 0.0
O6 O 0.1102 0.27028 0.38842 0.0
O7 O 0.10579 0.2559 0.37169 0.0
O8 O 0.08328 0.23631 0.38776 0.0
O9 O 0.08139 0.25692 0.39653 0.0
C10 C 0.10704 0.24932 0.42256 0.0
O11 O 0.1091 0.22554 0.3868 0.0
O12 O 0.12601 0.23947 0.39197 0.0
In13 In 0.74905 0.10236 0.39351 0.0
O14 O 0.76121 0.08225 0.3879 0.0
O15 O 0.73974 0.08014 0.3942 0.0
C16 C 0.76911 0.12172 0.38736 0.0
C17 C 0.72866 0.10913 0.37476 0.0
C18 C 0.74751 0.10432 0.42194 0.0
O19 O 0.77051 0.10876 0.38449 0.0
O20 O 0.75757 0.1249 0.39325 0.0
O21 O 0.73737 0.10773 0.41397 0.0
O22 O 0.75838 0.09997 0.41557 0.0
C23 C 0.75092 0.07406 0.39026 0.0
O24 O 0.72702 0.11045 0.38794 0.0
O25 O 0.74059 0.10448 0.37106 0.0
In26 In 0.89442 0.74729 0.3953 0.0
O27 O 0.88841 0.7694 0.38781 0.0
O28 O 0.87187 0.7556 0.39435 0.0
C29 C 0.92275 0.74882 0.39207 0.0
C30 C 0.89188 0.74551 0.42366 0.0
C31 C 0.88811 0.7274 0.37585 0.0
O32 O 0.91466 0.75896 0.38895 0.0
O33 O 0.91655 0.73799 0.3968 0.0
O34 O 0.88745 0.72501 0.38897 0.0
O35 O 0.89179 0.73981 0.3726 0.0
C36 C 0.87531 0.76764 0.38971 0.0
O37 O 0.88773 0.73578 0.41549 0.0
O38 O 0.89727 0.75606 0.41752 0.0
In39 In 0.24884 0.89358 0.39454 0.0
O40 O 0.23767 0.91403 0.38812 0.0
O41 O 0.25804 0.91565 0.39751 0.0
C42 C 0.22833 0.87484 0.38794 0.0
C43 C 0.26926 0.88784 0.37548 0.0
C44 C 0.25 0.88981 0.42281 0.0
O45 O 0.22656 0.88803 0.38701 0.0
O46 O 0.24046 0.87113 0.39207 0.0
O47 O 0.25979 0.88583 0.41467 0.0
O48 O 0.2397 0.89566 0.41669 0.0
C49 C 0.24755 0.92201 0.39228 0.0
O50 O 0.27123 0.88679 0.38865 0.0
O51 O 0.25698 0.89169 0.37196 0.0
In52 In 0.10167 0.74892 0.60013 0.0
O53 O 0.08144 0.75082 0.61329 0.0
O54 O 0.08084 0.75822 0.59217 0.0
C55 C 0.11983 0.76935 0.6082 0.0
C56 C 0.10689 0.72599 0.61628 0.0
C57 C 0.10702 0.74394 0.57247 0.0
O58 O 0.1066 0.77057 0.60969 0.0
O59 O 0.12381 0.75779 0.60282 0.0
O60 O 0.10339 0.73424 0.58088 0.0
O61 O 0.10805 0.75601 0.57803 0.0
C62 C 0.07418 0.75623 0.60353 0.0
O63 O 0.09885 0.72556 0.60562 0.0
O64 O 0.11244 0.73791 0.61863 0.0
In65 In 0.24855 0.10256 0.60197 0.0
O66 O 0.22581 0.10782 0.60828 0.0
O67 O 0.24075 0.12461 0.60742 0.0
C68 C 0.24612 0.07422 0.60357 0.0
C69 C 0.25083 0.10629 0.57375 0.0
C70 C 0.26907 0.10788 0.62105 0.0
O71 O 0.23714 0.08246 0.60904 0.0
O72 O 0.25625 0.0803 0.59732 0.0
O73 O 0.26841 0.11428 0.60935 0.0
O74 O 0.25941 0.0989 0.62309 0.0
C75 C 0.22815 0.12088 0.60973 0.0
O76 O 0.26143 0.10663 0.58187 0.0
O77 O 0.23918 0.10419 0.57989 0.0
In78 In 0.89444 0.2482 0.60263 0.0
O79 O 0.88657 0.27038 0.608 0.0
O80 O 0.89288 0.25705 0.62495 0.0
C81 C 0.89243 0.24915 0.57419 0.0
C82 C 0.92272 0.24648 0.606 0.0
C83 C 0.875 0.22825 0.60882 0.0
O84 O 0.88888 0.2594 0.58196 0.0
O85 O 0.89691 0.23846 0.58076 0.0
O86 O 0.88808 0.22635 0.61068 0.0
O87 O 0.87175 0.24022 0.60393 0.0
C88 C 0.88823 0.26895 0.62117 0.0
O89 O 0.91444 0.23674 0.60989 0.0
O90 O 0.91673 0.25702 0.60046 0.0
In91 In 0.74927 0.89428 0.60309 0.0
O92 O 0.73761 0.88818 0.58277 0.0
O93 O 0.75874 0.89575 0.58105 0.0
C94 C 0.72899 0.88889 0.62239 0.0
C95 C 0.76915 0.87509 0.61001 0.0
C96 C 0.7512 0.92269 0.60473 0.0
O97 O 0.72733 0.88628 0.6094 0.0
O98 O 0.74087 0.89407 0.62559 0.0
O99 O 0.76126 0.91467 0.60824 0.0
O100 O 0.74023 0.91637 0.60048 0.0
C101 C 0.74784 0.89128 0.57475 0.0
O102 O 0.77082 0.88818 0.61207 0.0
O103 O 0.75744 0.87171 0.60453 0.0
In104 In 0.39348 0.10242 0.24755 0.0
O105 O 0.38738 0.11151 0.26906 0.0
O106 O 0.37099 0.10318 0.25607 0.0
C107 C 0.42186 0.10492 0.24948 0.0
C108 C 0.39081 0.07404 0.24597 0.0
C109 C 0.38694 0.12148 0.22739 0.0
O110 O 0.41373 0.10762 0.2597 0.0
O111 O 0.41567 0.10102 0.23831 0.0
O112 O 0.38501 0.10836 0.22573 0.0
O113 O 0.39211 0.12494 0.2392 0.0
C114 C 0.37435 0.10895 0.26764 0.0
O115 O 0.38806 0.08206 0.23566 0.0
O116 O 0.39487 0.08034 0.25701 0.0
In117 In 0.89495 0.39365 0.24874 0.0
O118 O 0.91493 0.3863 0.23727 0.0
O119 O 0.91723 0.39556 0.25763 0.0
C120 C 0.87536 0.388 0.22877 0.0
C121 C 0.88863 0.37481 0.26917 0.0
C122 C 0.89276 0.42206 0.25027 0.0
O123 O 0.88847 0.38692 0.22644 0.0
O124 O 0.8722 0.39177 0.24117 0.0
O125 O 0.889 0.41405 0.26026 0.0
O126 O 0.8976 0.41574 0.23957 0.0
C127 C 0.92321 0.39005 0.24706 0.0
O128 O 0.88738 0.38799 0.27092 0.0
O129 O 0.89299 0.37116 0.2571 0.0
In130 In 0.60276 0.89443 0.24834 0.0
O131 O 0.60923 0.88821 0.27076 0.0
O132 O 0.62552 0.89276 0.25593 0.0
C133 C 0.57444 0.89129 0.25012 0.0
C134 C 0.60535 0.92278 0.24641 0.0
C135 C 0.60849 0.8749 0.22839 0.0
O136 O 0.58269 0.88717 0.25978 0.0
O137 O 0.5805 0.89694 0.23966 0.0
O138 O 0.60953 0.88801 0.22606 0.0
O139 O 0.60471 0.8717 0.24078 0.0
C140 C 0.62234 0.88924 0.2684 0.0
O141 O 0.60923 0.91459 0.2366 0.0
O142 O 0.60026 0.91665 0.25711 0.0
In143 In 0.10196 0.60168 0.24717 0.0
O144 O 0.10849 0.58161 0.25895 0.0
O145 O 0.10041 0.57946 0.23807 0.0
C146 C 0.10763 0.62113 0.26724 0.0
C147 C 0.12125 0.60779 0.22708 0.0
C148 C 0.07357 0.60396 0.24562 0.0
O149 O 0.10957 0.60807 0.26916 0.0
O150 O 0.10291 0.62436 0.25518 0.0
O151 O 0.08161 0.60815 0.23581 0.0
O152 O 0.07986 0.5987 0.25613 0.0
C153 C 0.10527 0.5734 0.24891 0.0
O154 O 0.10811 0.6084 0.22478 0.0
O155 O 0.1246 0.60425 0.2395 0.0
In156 In 0.39355 0.89597 0.74837 0.0
O157 O 0.38834 0.88947 0.77108 0.0
O158 O 0.39184 0.87321 0.75596 0.0
C159 C 0.38924 0.92403 0.75104 0.0
C160 C 0.42184 0.89351 0.74527 0.0
C161 C 0.374 0.89053 0.72832 0.0
O162 O 0.3862 0.91539 0.76076 0.0
O163 O 0.39445 0.9185 0.74007 0.0
O164 O 0.38706 0.89112 0.72563 0.0
O165 O 0.37083 0.89258 0.74112 0.0
C166 C 0.38898 0.87637 0.7686 0.0
O167 O 0.41317 0.8875 0.73707 0.0
O168 O 0.41625 0.90074 0.75497 0.0
In169 In 0.10211 0.39417 0.74821 0.0
O170 O 0.10973 0.41405 0.73666 0.0
O171 O 0.09893 0.41665 0.75618 0.0
C172 C 0.1076 0.3751 0.72776 0.0
C173 C 0.12156 0.38767 0.76801 0.0
C174 C 0.07388 0.39107 0.75127 0.0
O175 O 0.10707 0.38822 0.72535 0.0
O176 O 0.10551 0.37165 0.74049 0.0
O177 O 0.08229 0.39074 0.76163 0.0
O178 O 0.0797 0.39299 0.73943 0.0
C179 C 0.10507 0.42249 0.74589 0.0
O180 O 0.10865 0.38449 0.76931 0.0
O181 O 0.12465 0.39403 0.7567 0.0
In182 In 0.60247 0.10035 0.74829 0.0
O183 O 0.60996 0.0805 0.75986 0.0
O184 O 0.59952 0.07794 0.74009 0.0
C185 C 0.60878 0.12011 0.76789 0.0
C186 C 0.62111 0.10576 0.72742 0.0
C187 C 0.57408 0.10301 0.74708 0.0
O188 O 0.60936 0.10703 0.77048 0.0
O189 O 0.60512 0.12317 0.75543 0.0
O190 O 0.58205 0.10682 0.73708 0.0
O191 O 0.58044 0.09796 0.75766 0.0
C192 C 0.60543 0.07208 0.75052 0.0
O193 O 0.60794 0.10728 0.72584 0.0
O194 O 0.62485 0.10156 0.73952 0.0
In195 In 0.89355 0.60266 0.74799 0.0
O196 O 0.91399 0.6086 0.75952 0.0
O197 O 0.91563 0.59962 0.73897 0.0
C198 C 0.87455 0.60957 0.76805 0.0
C199 C 0.88765 0.62167 0.72759 0.0
C200 C 0.89042 0.57432 0.74687 0.0
O201 O 0.88768 0.61129 0.76974 0.0
O202 O 0.87103 0.60445 0.75623 0.0
O203 O 0.88779 0.58221 0.73643 0.0
O204 O 0.89453 0.58075 0.75783 0.0
C205 C 0.92199 0.60454 0.74964 0.0
O206 O 0.88509 0.60864 0.72616 0.0
O207 O 0.89309 0.62507 0.73929 0.0
In208 In 0.24833 0.39401 0.10155 0.0
O209 O 0.27037 0.38835 0.10959 0.0
O210 O 0.25657 0.37153 0.1038 0.0
C211 C 0.2498 0.42247 0.10336 0.0
C212 C 0.24684 0.39048 0.07326 0.0
C213 C 0.22821 0.3881 0.12087 0.0
O214 O 0.25984 0.41456 0.10718 0.0
O215 O 0.23907 0.41601 0.09872 0.0
O216 O 0.22646 0.38589 0.10782 0.0
O217 O 0.2401 0.39322 0.12415 0.0
C218 C 0.26857 0.37517 0.10837 0.0
O219 O 0.23662 0.3876 0.08136 0.0
O220 O 0.25775 0.39506 0.07943 0.0
In221 In 0.24772 0.6013 0.8923 0.0
O222 O 0.25952 0.58116 0.88604 0.0
O223 O 0.23844 0.57911 0.89357 0.0
C224 C 0.26808 0.6206 0.88707 0.0
C225 C 0.2279 0.60765 0.8728 0.0
C226 C 0.24578 0.60346 0.92069 0.0
O227 O 0.26979 0.60756 0.88477 0.0
O228 O 0.25609 0.62388 0.89191 0.0
O229 O 0.23618 0.60787 0.91252 0.0
O230 O 0.25629 0.59805 0.91452 0.0
C231 C 0.24937 0.57299 0.88902 0.0
O232 O 0.22546 0.60816 0.88592 0.0
O233 O 0.24034 0.60406 0.86958 0.0
In234 In 0.39377 0.24748 0.894 0.0
O235 O 0.38803 0.2357 0.91433 0.0
O236 O 0.39584 0.25672 0.91614 0.0
C237 C 0.38749 0.22727 0.87487 0.0
C238 C 0.37463 0.26764 0.88775 0.0
C239 C 0.42211 0.24923 0.89115 0.0
O240 O 0.38536 0.22564 0.88794 0.0
O241 O 0.39266 0.2391 0.87148 0.0
O242 O 0.41398 0.25935 0.88808 0.0
O243 O 0.41593 0.23828 0.89565 0.0
C244 C 0.39134 0.24583 0.9224 0.0
O245 O 0.38773 0.26935 0.88581 0.0
O246 O 0.3712 0.25575 0.89275 0.0
In247 In 0.74834 0.39311 0.89387 0.0
O248 O 0.77036 0.38588 0.88714 0.0
O249 O 0.75528 0.39023 0.87103 0.0
C250 C 0.75079 0.39082 0.9222 0.0
C251 C 0.74722 0.42147 0.89094 0.0
C252 C 0.72763 0.37421 0.88862 0.0
O253 O 0.7601 0.38615 0.91384 0.0
O254 O 0.74032 0.39653 0.91625 0.0
O255 O 0.72629 0.38722 0.88596 0.0
O256 O 0.73941 0.37077 0.89384 0.0
C257 C 0.7677 0.38643 0.87407 0.0
O258 O 0.73661 0.41362 0.88881 0.0
O259 O 0.75833 0.415 0.89445 0.0
In260 In 0.60235 0.74635 0.89376 0.0
O261 O 0.60814 0.72433 0.88578 0.0
O262 O 0.62469 0.73752 0.89351 0.0
C263 C 0.57399 0.74505 0.89075 0.0
C264 C 0.60479 0.74861 0.92211 0.0
C265 C 0.60892 0.7659 0.87408 0.0
O266 O 0.58189 0.73455 0.8884 0.0
O267 O 0.58041 0.75613 0.89453 0.0
O268 O 0.60922 0.76856 0.88716 0.0
O269 O 0.60543 0.75339 0.87098 0.0
C270 C 0.62119 0.72573 0.88829 0.0
O271 O 0.60962 0.75787 0.91379 0.0
O272 O 0.59885 0.73826 0.91612 0.0
In273 In 0.74828 0.60237 0.10182 0.0
O274 O 0.76035 0.60792 0.08162 0.0
O275 O 0.73908 0.60088 0.07962 0.0
C276 C 0.76832 0.60894 0.12105 0.0
C277 C 0.72774 0.6212 0.10775 0.0
C278 C 0.7469 0.574 0.10475 0.0
O279 O 0.76993 0.61117 0.10799 0.0
O280 O 0.75659 0.60352 0.12439 0.0
O281 O 0.73705 0.58207 0.1087 0.0
O282 O 0.75739 0.58024 0.09934 0.0
C283 C 0.75016 0.60507 0.07347 0.0
O284 O 0.72591 0.60802 0.10884 0.0
O285 O 0.73995 0.62486 0.10378 0.0
In286 In 0.39378 0.74893 0.10194 0.0
O287 O 0.38602 0.77102 0.10782 0.0
O288 O 0.39177 0.75709 0.12449 0.0
C289 C 0.39164 0.75039 0.07352 0.0
C290 C 0.42211 0.74753 0.10508 0.0
C291 C 0.37462 0.7286 0.10782 0.0
O292 O 0.38751 0.76025 0.08151 0.0
O293 O 0.39674 0.73984 0.07987 0.0
O294 O 0.38771 0.7269 0.10978 0.0
O295 O 0.37122 0.74055 0.10298 0.0
C296 C 0.3873 0.76915 0.12097 0.0
O297 O 0.41402 0.73744 0.10844 0.0
O298 O 0.4159 0.75829 0.10024 0.0
In299 In 0.60173 0.24753 0.10173 0.0
O300 O 0.58145 0.25917 0.10789 0.0
O301 O 0.57964 0.23824 0.09985 0.0
C302 C 0.62114 0.2679 0.10652 0.0
C303 C 0.6075 0.22823 0.12186 0.0
C304 C 0.60423 0.24484 0.07345 0.0
O305 O 0.60803 0.27007 0.10783 0.0
O306 O 0.6244 0.25546 0.10295 0.0
O307 O 0.60863 0.23549 0.0819 0.0
O308 O 0.59867 0.25546 0.07928 0.0
C309 C 0.57338 0.24905 0.10451 0.0
O310 O 0.60859 0.22552 0.10883 0.0
O311 O 0.60363 0.24068 0.1247 0.0
In312 In 0.89475 0.74954 0.60336 0.0
O313 O 0.88928 0.73726 0.58323 0.0
O314 O 0.89596 0.75861 0.58109 0.0
C315 C 0.88875 0.72899 0.62217 0.0
C316 C 0.87523 0.769 0.61057 0.0
C317 C 0.92307 0.75266 0.60554 0.0
O318 O 0.88702 0.7274 0.60903 0.0
O319 O 0.8935 0.74093 0.62581 0.0
O320 O 0.91463 0.76292 0.60661 0.0
O321 O 0.91722 0.74084 0.60346 0.0
C322 C 0.89192 0.74743 0.57501 0.0
O323 O 0.88817 0.77041 0.61354 0.0
O324 O 0.87215 0.75777 0.60405 0.0
In325 In 0.24634 0.89434 0.60212 0.0
O326 O 0.23496 0.9147 0.60842 0.0
O327 O 0.2552 0.91649 0.59881 0.0
C328 C 0.22572 0.87577 0.60873 0.0
C329 C 0.26653 0.88936 0.62164 0.0
C330 C 0.2481 0.89001 0.57395 0.0
O331 O 0.22394 0.88899 0.60926 0.0
O332 O 0.23791 0.87194 0.6049 0.0
O333 O 0.25746 0.88571 0.58245 0.0
O334 O 0.23789 0.89639 0.57969 0.0
C335 C 0.2447 0.92276 0.6041 0.0
O336 O 0.26896 0.88876 0.60853 0.0
O337 O 0.25394 0.89233 0.62485 0.0
In338 In 0.10224 0.24726 0.60189 0.0
O339 O 0.11057 0.25836 0.58206 0.0
O340 O 0.1002 0.23855 0.57957 0.0
C341 C 0.1073 0.2679 0.6209 0.0
C342 C 0.12126 0.22706 0.60824 0.0
C343 C 0.07392 0.24531 0.60482 0.0
O344 O 0.1077 0.27007 0.60773 0.0
O345 O 0.10446 0.25535 0.62443 0.0
O346 O 0.08224 0.23614 0.60977 0.0
O347 O 0.07989 0.25537 0.5984 0.0
C348 C 0.10642 0.24879 0.5737 0.0
O349 O 0.10816 0.22456 0.60748 0.0
O350 O 0.12472 0.23974 0.60589 0.0
In351 In 0.74815 0.10254 0.60207 0.0
O352 O 0.76003 0.08244 0.60828 0.0
O353 O 0.73929 0.08026 0.59986 0.0
C354 C 0.76799 0.12198 0.60865 0.0
C355 C 0.7276 0.10839 0.62092 0.0
C356 C 0.74704 0.105 0.57366 0.0
O357 O 0.76987 0.10889 0.61045 0.0
O358 O 0.75608 0.12525 0.6036 0.0
O359 O 0.73675 0.10824 0.58151 0.0
O360 O 0.75785 0.10067 0.58014 0.0
C361 C 0.75014 0.0742 0.60466 0.0
O362 O 0.72597 0.11013 0.60778 0.0
O363 O 0.7396 0.10381 0.6245 0.0
In364 In 0.89549 0.24792 0.39397 0.0
O365 O 0.88754 0.27003 0.38849 0.0
O366 O 0.89315 0.25633 0.37156 0.0
C367 C 0.89364 0.24901 0.42242 0.0
C368 C 0.92378 0.24649 0.39051 0.0
C369 C 0.87608 0.22793 0.38777 0.0
O370 O 0.88994 0.25918 0.41462 0.0
O371 O 0.89819 0.23833 0.41587 0.0
O372 O 0.8891 0.22627 0.38534 0.0
O373 O 0.87289 0.23965 0.39328 0.0
C374 C 0.88866 0.26832 0.37529 0.0
O375 O 0.91568 0.23624 0.38765 0.0
O376 O 0.9176 0.25739 0.39505 0.0
In377 In 0.74959 0.89445 0.39478 0.0
O378 O 0.73786 0.88815 0.41499 0.0
O379 O 0.75854 0.89679 0.41698 0.0
C380 C 0.72956 0.88875 0.37527 0.0
C381 C 0.76945 0.87491 0.38887 0.0
C382 C 0.75168 0.92277 0.39189 0.0
O383 O 0.7273 0.88757 0.38838 0.0
O384 O 0.74192 0.89265 0.37206 0.0
O385 O 0.76173 0.91453 0.38885 0.0
O386 O 0.74066 0.91671 0.39636 0.0
C387 C 0.74778 0.89185 0.42314 0.0
O388 O 0.77153 0.88799 0.38715 0.0
O389 O 0.75734 0.87171 0.39348 0.0
In390 In 0.10254 0.74757 0.39368 0.0
O391 O 0.10956 0.72548 0.38708 0.0
O392 O 0.10466 0.74019 0.37082 0.0
C393 C 0.1054 0.7445 0.42192 0.0
C394 C 0.07419 0.74901 0.39072 0.0
C395 C 0.12128 0.76852 0.38849 0.0
O396 O 0.11049 0.73578 0.4132 0.0
O397 O 0.09896 0.75478 0.4164 0.0
O398 O 0.10811 0.77017 0.38716 0.0
O399 O 0.12497 0.75632 0.39238 0.0
C400 C 0.10859 0.72785 0.37398 0.0
O401 O 0.08227 0.75916 0.38751 0.0
O402 O 0.08042 0.73818 0.39536 0.0
In403 In 0.24893 0.1022 0.39399 0.0
O404 O 0.2612 0.10735 0.41419 0.0
O405 O 0.23953 0.10163 0.41611 0.0
C406 C 0.2687 0.10886 0.37455 0.0
C407 C 0.22842 0.12089 0.38765 0.0
C408 C 0.24761 0.07374 0.39196 0.0
O409 O 0.27026 0.11153 0.38754 0.0
O410 O 0.25718 0.10289 0.3714 0.0
O411 O 0.23751 0.08162 0.38824 0.0
O412 O 0.25833 0.08022 0.39659 0.0
C413 C 0.25081 0.1052 0.4223 0.0
O414 O 0.22677 0.10771 0.38621 0.0
O415 O 0.24042 0.1246 0.39219 0.0
In416 In 0.60091 0.89255 0.74801 0.0
O417 O 0.6067 0.88581 0.77043 0.0
O418 O 0.60473 0.86978 0.75474 0.0
C419 C 0.60282 0.92088 0.75104 0.0
C420 C 0.57273 0.8888 0.7452 0.0
C421 C 0.62082 0.88797 0.72815 0.0
O422 O 0.60745 0.91242 0.76026 0.0
O423 O 0.59719 0.91504 0.74044 0.0
O424 O 0.60801 0.88461 0.72633 0.0
O425 O 0.62354 0.89347 0.74001 0.0
C426 C 0.60729 0.87279 0.7675 0.0
O427 O 0.58109 0.88821 0.73481 0.0
O428 O 0.57859 0.8912 0.75695 0.0
In429 In 0.10186 0.60197 0.74567 0.0
O430 O 0.10788 0.60758 0.723 0.0
O431 O 0.10296 0.62443 0.73706 0.0
C432 C 0.10547 0.5737 0.74426 0.0
C433 C 0.07352 0.60434 0.74794 0.0
C434 C 0.12136 0.60841 0.76552 0.0
O435 O 0.10949 0.58191 0.73453 0.0
O436 O 0.0997 0.57975 0.75464 0.0
O437 O 0.10825 0.60855 0.76804 0.0
O438 O 0.12458 0.60521 0.75298 0.0
C439 C 0.10652 0.62074 0.72473 0.0
O440 O 0.08187 0.60919 0.75719 0.0
O441 O 0.07949 0.59839 0.73761 0.0
In442 In 0.39389 0.10235 0.74733 0.0
O443 O 0.41453 0.11004 0.73728 0.0
O444 O 0.41591 0.09716 0.7556 0.0
C445 C 0.3764 0.10992 0.72609 0.0
C446 C 0.38851 0.12124 0.76788 0.0
C447 C 0.38783 0.07451 0.74987 0.0
O448 O 0.3884 0.10457 0.72392 0.0
O449 O 0.37323 0.11151 0.73894 0.0
O450 O 0.38591 0.08316 0.75985 0.0
O451 O 0.39268 0.07993 0.7387 0.0
C452 C 0.42241 0.10399 0.74617 0.0
O453 O 0.38485 0.10841 0.76882 0.0
O454 O 0.39485 0.1245 0.75658 0.0
In455 In 0.89467 0.39438 0.74829 0.0
O456 O 0.88928 0.41478 0.73653 0.0
O457 O 0.89515 0.41628 0.7582 0.0
C458 C 0.88949 0.37579 0.72727 0.0
C459 C 0.87479 0.38797 0.76769 0.0
C460 C 0.92296 0.39186 0.75118 0.0
O461 O 0.88755 0.38892 0.72585 0.0
O462 O 0.89404 0.37209 0.73925 0.0
O463 O 0.91436 0.38586 0.75946 0.0
O464 O 0.91728 0.399 0.74147 0.0
C465 C 0.89145 0.42268 0.7471 0.0
O466 O 0.88783 0.38809 0.77057 0.0
O467 O 0.87183 0.391 0.75504 0.0
In468 In 0.60174 0.10261 0.24938 0.0
O469 O 0.58133 0.10789 0.26121 0.0
O470 O 0.57972 0.10129 0.23977 0.0
C471 C 0.62086 0.10852 0.26971 0.0
C472 C 0.60785 0.12236 0.22975 0.0
C473 C 0.60433 0.07427 0.24723 0.0
O474 O 0.60776 0.11047 0.2714 0.0
O475 O 0.62428 0.10364 0.25777 0.0
O476 O 0.60826 0.08256 0.23751 0.0
O477 O 0.5992 0.0803 0.25796 0.0
C478 C 0.57337 0.10523 0.25081 0.0
O479 O 0.60925 0.10928 0.22741 0.0
O480 O 0.60351 0.12541 0.24199 0.0
In481 In 0.89352 0.60205 0.24799 0.0
O482 O 0.9139 0.60802 0.23639 0.0
O483 O 0.91561 0.59989 0.25728 0.0
C484 C 0.87443 0.6084 0.22782 0.0
C485 C 0.88758 0.62127 0.26819 0.0
C486 C 0.89082 0.57368 0.24935 0.0
O487 O 0.88754 0.61026 0.22612 0.0
O488 O 0.87097 0.60339 0.2397 0.0
O489 O 0.88698 0.58169 0.25932 0.0
O490 O 0.89586 0.58 0.23873 0.0
C491 C 0.92192 0.60451 0.24647 0.0
O492 O 0.88619 0.60814 0.2702 0.0
O493 O 0.89186 0.62465 0.25602 0.0
In494 In 0.39468 0.89425 0.24808 0.0
O495 O 0.38886 0.91444 0.23618 0.0
O496 O 0.3965 0.91647 0.25723 0.0
C497 C 0.38815 0.87525 0.22779 0.0
C498 C 0.37574 0.8884 0.26861 0.0
C499 C 0.42304 0.89117 0.24955 0.0
O500 O 0.3863 0.88837 0.22621 0.0
O501 O 0.39319 0.87173 0.23963 0.0
O502 O 0.41486 0.88695 0.25923 0.0
O503 O 0.41691 0.8969 0.23919 0.0
C504 C 0.39202 0.92261 0.24627 0.0
O505 O 0.38892 0.88743 0.2705 0.0
O506 O 0.37214 0.89221 0.25634 0.0
In507 In 0.10286 0.39365 0.24812 0.0
O508 O 0.11012 0.38788 0.2704 0.0
O509 O 0.10491 0.37111 0.25634 0.0
C510 C 0.10556 0.42203 0.2497 0.0
C511 C 0.07452 0.39059 0.24638 0.0
C512 C 0.12203 0.38768 0.22786 0.0
O513 O 0.10948 0.41392 0.25954 0.0
O514 O 0.10031 0.41582 0.23911 0.0
O515 O 0.10893 0.38574 0.22613 0.0
O516 O 0.12544 0.39251 0.23983 0.0
C517 C 0.109 0.37471 0.26853 0.0
O518 O 0.0827 0.38711 0.23644 0.0
O519 O 0.08064 0.39559 0.25714 0.0
In520 In 0.74878 0.60156 0.89373 0.0
O521 O 0.72691 0.60722 0.88525 0.0
O522 O 0.74002 0.62392 0.89275 0.0
C523 C 0.74753 0.57317 0.89099 0.0
C524 C 0.7507 0.60413 0.9221 0.0
C525 C 0.76862 0.60868 0.87453 0.0
O526 O 0.73705 0.58104 0.88853 0.0
O527 O 0.75859 0.57962 0.89476 0.0
O528 O 0.77036 0.6105 0.88764 0.0
O529 O 0.75686 0.60331 0.87112 0.0
C530 C 0.7283 0.62032 0.88746 0.0
O531 O 0.76084 0.60714 0.91395 0.0
O532 O 0.73966 0.59985 0.91594 0.0
In533 In 0.7489 0.39433 0.10189 0.0
O534 O 0.73745 0.41437 0.10909 0.0
O535 O 0.75783 0.41658 0.09983 0.0
C536 C 0.72849 0.37497 0.10671 0.0
C537 C 0.76868 0.38832 0.12151 0.0
C538 C 0.75123 0.39202 0.07355 0.0
O539 O 0.72635 0.38809 0.10794 0.0
O540 O 0.74091 0.37166 0.10318 0.0
O541 O 0.76065 0.38753 0.08188 0.0
O542 O 0.74069 0.39758 0.07954 0.0
C543 C 0.74726 0.42261 0.10527 0.0
O544 O 0.77113 0.38757 0.10841 0.0
O545 O 0.75625 0.39197 0.12467 0.0
In546 In 0.60212 0.74788 0.10187 0.0
O547 O 0.60965 0.75914 0.0818 0.0
O548 O 0.5993 0.73928 0.0796 0.0
C549 C 0.60784 0.76785 0.12143 0.0
C550 C 0.62104 0.72745 0.10783 0.0
C551 C 0.57373 0.74655 0.10442 0.0
O552 O 0.60883 0.7702 0.10832 0.0
O553 O 0.60412 0.75543 0.12461 0.0
O554 O 0.58168 0.73649 0.1081 0.0
O555 O 0.58011 0.75721 0.09954 0.0
C556 C 0.60518 0.74962 0.07355 0.0
O557 O 0.60787 0.72556 0.10896 0.0
O558 O 0.62464 0.73966 0.10378 0.0
In559 In 0.24791 0.6025 0.1006 0.0
O560 O 0.22569 0.60956 0.10691 0.0
O561 O 0.24024 0.60454 0.12329 0.0
C562 C 0.24617 0.60511 0.07224 0.0
C563 C 0.24945 0.57413 0.10322 0.0
C564 C 0.26824 0.62164 0.10652 0.0
O565 O 0.23645 0.60926 0.08039 0.0
O566 O 0.25671 0.59977 0.07841 0.0
O567 O 0.26989 0.60855 0.10856 0.0
O568 O 0.25633 0.62504 0.10157 0.0
C569 C 0.22794 0.60849 0.12003 0.0
O570 O 0.2596 0.58219 0.10648 0.0
O571 O 0.23857 0.58039 0.09873 0.0
In572 In 0.39329 0.24822 0.10225 0.0
O573 O 0.38733 0.23653 0.08193 0.0
O574 O 0.39497 0.25761 0.08014 0.0
C575 C 0.38678 0.22801 0.12128 0.0
C576 C 0.37453 0.26866 0.10873 0.0
C577 C 0.42171 0.24951 0.10469 0.0
O578 O 0.38454 0.22651 0.10821 0.0
O579 O 0.39222 0.23971 0.12473 0.0
O580 O 0.41378 0.25964 0.10822 0.0
O581 O 0.41529 0.23878 0.09999 0.0
C582 C 0.39046 0.24671 0.07388 0.0
O583 O 0.38768 0.27022 0.11046 0.0
O584 O 0.37087 0.25679 0.10384 0.0
In585 In 0.24812 0.39326 0.89345 0.0
O586 O 0.23623 0.38758 0.91372 0.0
O587 O 0.25728 0.39527 0.91563 0.0
C588 C 0.22814 0.38663 0.87419 0.0
C589 C 0.26832 0.37412 0.88738 0.0
C590 C 0.24962 0.4216 0.89032 0.0
O591 O 0.22632 0.38482 0.8873 0.0
O592 O 0.24002 0.39171 0.87084 0.0
O593 O 0.25979 0.41353 0.88726 0.0
O594 O 0.23876 0.41537 0.89496 0.0
C595 C 0.24634 0.39082 0.92184 0.0
O596 O 0.27018 0.38724 0.88575 0.0
O597 O 0.25628 0.37069 0.89201 0.0
In598 In 0.60165 0.24706 0.89381 0.0
O599 O 0.60806 0.22472 0.88733 0.0
O600 O 0.60514 0.23998 0.87109 0.0
C601 C 0.60369 0.24457 0.92217 0.0
C602 C 0.57341 0.24867 0.89008 0.0
C603 C 0.62074 0.26764 0.88872 0.0
O604 O 0.60884 0.23552 0.91382 0.0
O605 O 0.59762 0.25483 0.91621 0.0
O606 O 0.6077 0.2692 0.88634 0.0
O607 O 0.62413 0.25571 0.89363 0.0
C608 C 0.60819 0.22739 0.87425 0.0
O609 O 0.58153 0.25906 0.88791 0.0
O610 O 0.57953 0.23753 0.89409 0.0
In611 In 0.39407 0.74776 0.89351 0.0
O612 O 0.38772 0.77022 0.88736 0.0
O613 O 0.39176 0.75549 0.87085 0.0
C614 C 0.39153 0.74952 0.92189 0.0
C615 C 0.42239 0.74596 0.89057 0.0
C616 C 0.37471 0.72763 0.88758 0.0
O617 O 0.38705 0.75907 0.91372 0.0
O618 O 0.39718 0.73913 0.91574 0.0
O619 O 0.38779 0.72581 0.88562 0.0
O620 O 0.37142 0.73961 0.89244 0.0
C621 C 0.3884 0.76795 0.87422 0.0
O622 O 0.41423 0.73578 0.88765 0.0
O623 O 0.41625 0.75697 0.89491 0.0
H624 H 0.10689 0.346 0.26687 0.0
H625 H 0.10976 0.32888 0.28606 0.0
H626 H 0.1201 0.36275 0.31489 0.0
H627 H 0.1171 0.37999 0.29577 0.0
H628 H 0.1334 0.32339 0.30413 0.0
H629 H 0.08619 0.34247 0.33365 0.0
H630 H 0.08949 0.3472 0.31545 0.0
H631 H 0.09924 0.35566 0.32942 0.0
C632 C 0.10984 0.3498 0.27728 0.0
C633 C 0.11166 0.36433 0.27987 0.0
C634 C 0.1115 0.34001 0.28821 0.0
C635 C 0.11495 0.3446 0.3019 0.0
C636 C 0.11721 0.35905 0.30443 0.0
H637 H 0.11634 0.29584 0.3804 0.0
H638 H 0.1195 0.31479 0.36299 0.0
C639 C 0.11555 0.36886 0.2935 0.0
C640 C 0.11573 0.33422 0.31356 0.0
H641 H 0.09908 0.3238 0.34384 0.0
C642 C 0.12596 0.3235 0.31287 0.0
C643 C 0.10601 0.33445 0.32493 0.0
C644 C 0.09453 0.34548 0.32593 0.0
C645 C 0.12665 0.31289 0.32323 0.0
C646 C 0.11669 0.31292 0.33439 0.0
C647 C 0.1067 0.32384 0.33527 0.0
C648 C 0.11588 0.3013 0.34484 0.0
C649 C 0.13802 0.30178 0.32214 0.0
C650 C 0.11277 0.28748 0.34036 0.0
C651 C 0.11094 0.27667 0.35026 0.0
C652 C 0.11212 0.27952 0.3648 0.0
C653 C 0.1154 0.29334 0.36926 0.0
C654 C 0.11721 0.30415 0.35934 0.0
H655 H 0.14711 0.30552 0.31569 0.0
H656 H 0.14195 0.29869 0.33278 0.0
H657 H 0.13358 0.29222 0.31694 0.0
H658 H 0.11138 0.28513 0.32923 0.0
H659 H 0.10836 0.26614 0.34652 0.0
H660 H 0.72987 0.10672 0.34608 0.0
H661 H 0.71065 0.1102 0.32915 0.0
H662 H 0.68264 0.1219 0.3632 0.0
H663 H 0.70182 0.11826 0.38027 0.0
H664 H 0.67165 0.10124 0.34555 0.0
H665 H 0.69225 0.14619 0.31406 0.0
H666 H 0.70471 0.13198 0.31568 0.0
H667 H 0.69931 0.14157 0.33121 0.0
C668 C 0.71967 0.1102 0.34995 0.0
C669 C 0.71733 0.11221 0.36449 0.0
C670 C 0.70873 0.11229 0.34025 0.0
C671 C 0.6953 0.11652 0.34491 0.0
C672 C 0.69298 0.11874 0.3594 0.0
H673 H 0.61603 0.11865 0.29636 0.0
H674 H 0.63345 0.12215 0.31527 0.0
C675 C 0.70392 0.11665 0.36912 0.0
C676 C 0.68344 0.11748 0.33474 0.0
H677 H 0.67347 0.13265 0.30354 0.0
C678 C 0.67191 0.10826 0.33648 0.0
C679 C 0.68385 0.12665 0.32293 0.0
C680 C 0.69563 0.13726 0.32091 0.0
C681 C 0.66109 0.10748 0.32635 0.0
C682 C 0.66175 0.11633 0.3143 0.0
C683 C 0.67304 0.12586 0.31278 0.0
C684 C 0.65128 0.11517 0.30273 0.0
C685 C 0.64939 0.09676 0.32829 0.0
C686 C 0.65563 0.11049 0.28935 0.0
C687 C 0.64575 0.10854 0.27854 0.0
C688 C 0.63135 0.11129 0.28094 0.0
C689 C 0.62706 0.11636 0.29424 0.0
C690 C 0.63697 0.11831 0.30506 0.0
H691 H 0.65194 0.0889 0.33665 0.0
H692 H 0.63954 0.1023 0.33142 0.0
H693 H 0.64728 0.09102 0.31825 0.0
H694 H 0.66665 0.10804 0.28736 0.0
H695 H 0.64938 0.10468 0.26838 0.0
H696 H 0.88194 0.69945 0.38016 0.0
H697 H 0.87982 0.68087 0.36214 0.0
H698 H 0.8863 0.71192 0.32934 0.0
H699 H 0.88857 0.73048 0.34723 0.0
H700 H 0.86134 0.67823 0.33765 0.0
H701 H 0.91825 0.68248 0.32354 0.0
H702 H 0.91107 0.6899 0.3396 0.0
H703 H 0.90877 0.69893 0.32303 0.0
C704 C 0.88279 0.70232 0.3691 0.0
C705 C 0.88556 0.71637 0.36509 0.0
C706 C 0.88156 0.69172 0.35884 0.0
C707 C 0.88312 0.69503 0.34447 0.0
C708 C 0.88529 0.70914 0.34042 0.0
H709 H 0.88931 0.64991 0.2658 0.0
H710 H 0.88687 0.66748 0.28462 0.0
C711 C 0.88655 0.71972 0.35064 0.0
C712 C 0.8831 0.68372 0.33368 0.0
H713 H 0.90394 0.66819 0.30868 0.0
C714 C 0.87065 0.67595 0.33134 0.0
C715 C 0.89531 0.68077 0.32557 0.0
C716 C 0.90916 0.68835 0.32811 0.0
C717 C 0.86996 0.66555 0.32073 0.0
C718 C 0.88212 0.6628 0.31246 0.0
C719 C 0.89461 0.67042 0.31499 0.0
C720 C 0.8822 0.65216 0.30098 0.0
C721 C 0.85618 0.65789 0.31819 0.0
C722 C 0.88028 0.63774 0.30396 0.0
C723 C 0.88165 0.62766 0.29321 0.0
C724 C 0.88507 0.63188 0.27936 0.0
C725 C 0.88669 0.64635 0.27638 0.0
C726 C 0.88529 0.65639 0.2871 0.0
H727 H 0.8471 0.66348 0.3231 0.0
H728 H 0.85411 0.65669 0.30668 0.0
H729 H 0.8568 0.64715 0.32289 0.0
H730 H 0.87815 0.63424 0.31466 0.0
H731 H 0.88039 0.61657 0.29581 0.0
H732 H 0.34703 0.89032 0.26692 0.0
H733 H 0.32989 0.88758 0.28612 0.0
H734 H 0.36377 0.87789 0.31511 0.0
H735 H 0.38102 0.88078 0.29597 0.0
H736 H 0.3244 0.86418 0.30432 0.0
H737 H 0.34335 0.91166 0.33365 0.0
H738 H 0.34817 0.90824 0.3155 0.0
H739 H 0.35659 0.89867 0.32958 0.0
C740 C 0.35083 0.88755 0.27737 0.0
C741 C 0.36536 0.88587 0.27999 0.0
C742 C 0.34103 0.88596 0.28831 0.0
C743 C 0.34561 0.88273 0.30204 0.0
C744 C 0.36007 0.88062 0.30461 0.0
H745 H 0.29685 0.88096 0.38058 0.0
H746 H 0.31579 0.87796 0.36313 0.0
C747 C 0.36989 0.88222 0.29367 0.0
C748 C 0.3352 0.88195 0.3137 0.0
H749 H 0.32477 0.89863 0.34396 0.0
C750 C 0.3245 0.87166 0.31304 0.0
C751 C 0.33542 0.89171 0.32504 0.0
C752 C 0.34641 0.90328 0.326 0.0
C753 C 0.31389 0.87094 0.3234 0.0
C754 C 0.31392 0.88092 0.33455 0.0
C755 C 0.32482 0.89098 0.3354 0.0
C756 C 0.30231 0.88167 0.34501 0.0
C757 C 0.30278 0.8595 0.32235 0.0
C758 C 0.2885 0.88478 0.34057 0.0
C759 C 0.27769 0.88652 0.35048 0.0
C760 C 0.28054 0.88525 0.36502 0.0
C761 C 0.29435 0.88197 0.36944 0.0
C762 C 0.30516 0.88025 0.35951 0.0
H763 H 0.30649 0.85045 0.31583 0.0
H764 H 0.29977 0.85553 0.33299 0.0
H765 H 0.29318 0.8639 0.31723 0.0
H766 H 0.28614 0.88622 0.32945 0.0
H767 H 0.26717 0.8891 0.34676 0.0
H768 H 0.11347 0.61526 0.69723 0.0
H769 H 0.1152 0.63226 0.67775 0.0
H770 H 0.10548 0.6663 0.70654 0.0
H771 H 0.10361 0.64938 0.72602 0.0
H772 H 0.08884 0.66585 0.68186 0.0
H773 H 0.14623 0.66202 0.66957 0.0
H774 H 0.13684 0.64547 0.67019 0.0
H775 H 0.13878 0.65579 0.68603 0.0
C776 C 0.11184 0.62638 0.69942 0.0
C777 C 0.10841 0.63101 0.71313 0.0
C778 C 0.1129 0.63608 0.68831 0.0
C779 C 0.11061 0.65053 0.69076 0.0
C780 C 0.10734 0.65518 0.70447 0.0
H781 H 0.12364 0.72468 0.63971 0.0
H782 H 0.12499 0.70545 0.65698 0.0
C783 C 0.10629 0.64551 0.71557 0.0
C784 C 0.11083 0.66076 0.67894 0.0
H785 H 0.13224 0.67588 0.65406 0.0
C786 C 0.09831 0.66803 0.67576 0.0
C787 C 0.12325 0.66361 0.67109 0.0
C788 C 0.13709 0.65642 0.67442 0.0
C789 C 0.09786 0.67813 0.66492 0.0
C790 C 0.11022 0.68086 0.65694 0.0
C791 C 0.12276 0.67362 0.66012 0.0
C792 C 0.11042 0.69177 0.64575 0.0
C793 C 0.08425 0.68606 0.66232 0.0
C794 C 0.10208 0.69024 0.63357 0.0
C795 C 0.10128 0.70121 0.62369 0.0
C796 C 0.10884 0.71384 0.62587 0.0
C797 C 0.11765 0.71509 0.63779 0.0
C798 C 0.11846 0.70411 0.64764 0.0
H799 H 0.07665 0.6848 0.6712 0.0
H800 H 0.08637 0.69752 0.66077 0.0
H801 H 0.07917 0.68195 0.65256 0.0
H802 H 0.09595 0.68069 0.63186 0.0
H803 H 0.09446 0.69993 0.61456 0.0
H804 H 0.27678 0.09091 0.64285 0.0
H805 H 0.29534 0.09509 0.66029 0.0
H806 H 0.30491 0.13527 0.64078 0.0
H807 H 0.2867 0.13077 0.62281 0.0
H808 H 0.32838 0.12229 0.64717 0.0
H809 H 0.29384 0.12002 0.69408 0.0
H810 H 0.29206 0.10404 0.68405 0.0
H811 H 0.28681 0.12069 0.67635 0.0
C812 C 0.2828 0.10066 0.64231 0.0
C813 C 0.28026 0.11057 0.63156 0.0
C814 C 0.29333 0.1031 0.65236 0.0
C815 C 0.30125 0.11569 0.65211 0.0
C816 C 0.29884 0.12555 0.64126 0.0
H817 H 0.35426 0.12828 0.7269 0.0
H818 H 0.33686 0.13272 0.70825 0.0
C819 C 0.28845 0.12298 0.63102 0.0
C820 C 0.31237 0.11819 0.6629 0.0
H821 H 0.31869 0.11577 0.69831 0.0
C822 C 0.32623 0.1211 0.65838 0.0
C823 C 0.30954 0.11707 0.67755 0.0
C824 C 0.29471 0.11546 0.68328 0.0
C825 C 0.33745 0.12211 0.66806 0.0
C826 C 0.33481 0.11958 0.68259 0.0
C827 C 0.32082 0.11747 0.68716 0.0
C828 C 0.34635 0.1183 0.69318 0.0
C829 C 0.35196 0.12591 0.66257 0.0
C830 C 0.35759 0.10885 0.6909 0.0
C831 C 0.36771 0.10658 0.70141 0.0
C832 C 0.36652 0.11337 0.71456 0.0
C833 C 0.35538 0.12289 0.71685 0.0
C834 C 0.34544 0.12542 0.7062 0.0
H835 H 0.3512 0.13271 0.65302 0.0
H836 H 0.35835 0.13154 0.67067 0.0
H837 H 0.35758 0.1161 0.65945 0.0
H838 H 0.35828 0.10283 0.68118 0.0
H839 H 0.37612 0.09906 0.69946 0.0
H840 H 0.87857 0.29562 0.61559 0.0
H841 H 0.8755 0.31507 0.63248 0.0
H842 H 0.88898 0.28779 0.66646 0.0
H843 H 0.89187 0.26828 0.64972 0.0
H844 H 0.86499 0.30454 0.67292 0.0
H845 H 0.90914 0.33639 0.65028 0.0
H846 H 0.89547 0.33116 0.63812 0.0
H847 H 0.90658 0.31795 0.64602 0.0
C848 C 0.88079 0.29376 0.62667 0.0
C849 C 0.88556 0.28048 0.63134 0.0
C850 C 0.8791 0.30488 0.63628 0.0
C851 C 0.88222 0.30289 0.65065 0.0
C852 C 0.88656 0.28953 0.65539 0.0
H853 H 0.89255 0.34719 0.72833 0.0
H854 H 0.88897 0.3302 0.70917 0.0
C855 C 0.88823 0.27841 0.64581 0.0
C856 C 0.88138 0.31475 0.66082 0.0
H857 H 0.89729 0.3459 0.66996 0.0
C858 C 0.87196 0.31365 0.67223 0.0
C859 C 0.89047 0.32662 0.65982 0.0
C860 C 0.90108 0.32813 0.64798 0.0
C861 C 0.87158 0.324 0.68286 0.0
C862 C 0.88102 0.3356 0.68214 0.0
C863 C 0.89007 0.33697 0.67046 0.0
C864 C 0.88241 0.34588 0.69385 0.0
C865 C 0.86113 0.32238 0.69482 0.0
C866 C 0.88017 0.36036 0.69148 0.0
C867 C 0.8823 0.37012 0.70241 0.0
C868 C 0.88682 0.36553 0.71581 0.0
C869 C 0.88901 0.35103 0.71813 0.0
C870 C 0.88687 0.3413 0.70723 0.0
H871 H 0.85203 0.31559 0.69172 0.0
H872 H 0.86647 0.31728 0.70395 0.0
H873 H 0.85706 0.33282 0.69833 0.0
H874 H 0.87685 0.3641 0.68117 0.0
H875 H 0.88055 0.38125 0.70031 0.0
H876 H 0.7302 0.89464 0.65057 0.0
H877 H 0.71115 0.89248 0.66791 0.0
H878 H 0.68326 0.87634 0.63555 0.0
H879 H 0.70234 0.87839 0.61808 0.0
H880 H 0.68457 0.90663 0.66539 0.0
H881 H 0.6785 0.84815 0.66902 0.0
H882 H 0.69425 0.85646 0.66204 0.0
H883 H 0.67847 0.85559 0.65151 0.0
C884 C 0.72006 0.89048 0.64716 0.0
C885 C 0.71773 0.88669 0.63297 0.0
C886 C 0.7092 0.88926 0.65708 0.0
C887 C 0.69587 0.88414 0.65302 0.0
C888 C 0.69356 0.8801 0.63892 0.0
H889 H 0.61739 0.87749 0.70139 0.0
H890 H 0.63531 0.87616 0.68266 0.0
C891 C 0.70443 0.88135 0.62896 0.0
C892 C 0.6842 0.88394 0.6634 0.0
H893 H 0.66227 0.86206 0.68202 0.0
C894 C 0.67968 0.89689 0.66903 0.0
C895 C 0.6778 0.87121 0.66799 0.0
C896 C 0.68252 0.85702 0.66244 0.0
C897 C 0.66895 0.89748 0.67923 0.0
C898 C 0.6628 0.88473 0.68411 0.0
C899 C 0.66708 0.87178 0.67827 0.0
C900 C 0.65218 0.88471 0.69558 0.0
C901 C 0.66423 0.91174 0.68463 0.0
C902 C 0.65588 0.88963 0.70909 0.0
C903 C 0.64572 0.89043 0.71975 0.0
C904 C 0.63169 0.88622 0.71711 0.0
C905 C 0.62811 0.88085 0.7037 0.0
C906 C 0.63831 0.88007 0.69301 0.0
H907 H 0.66721 0.92039 0.67726 0.0
H908 H 0.65259 0.91197 0.68623 0.0
H909 H 0.66938 0.91387 0.69497 0.0
H910 H 0.66661 0.89303 0.71133 0.0
H911 H 0.64881 0.89452 0.73001 0.0
H912 H 0.37903 0.12137 0.29334 0.0
H913 H 0.36179 0.12508 0.31234 0.0
H914 H 0.32901 0.10686 0.28625 0.0
H915 H 0.34609 0.10331 0.26716 0.0
H916 H 0.32076 0.13172 0.30087 0.0
H917 H 0.34622 0.09232 0.33643 0.0
H918 H 0.35747 0.1063 0.33009 0.0
H919 H 0.35043 0.09355 0.31785 0.0
C920 C 0.36812 0.11823 0.29164 0.0
C921 C 0.3639 0.11195 0.27882 0.0
C922 C 0.35832 0.12031 0.30251 0.0
C923 C 0.3442 0.11605 0.30074 0.0
C924 C 0.33988 0.11018 0.28781 0.0
H925 H 0.26743 0.10406 0.34618 0.0
H926 H 0.28608 0.10794 0.32872 0.0
C927 C 0.34965 0.10813 0.27694 0.0
C928 C 0.33393 0.11723 0.31247 0.0
H929 H 0.32582 0.10367 0.34493 0.0
C930 C 0.3219 0.12568 0.31056 0.0
C931 C 0.33551 0.10936 0.3251 0.0
C932 C 0.34803 0.09977 0.32752 0.0
C933 C 0.31124 0.12629 0.32086 0.0
C934 C 0.3126 0.11805 0.33327 0.0
C935 C 0.32485 0.10998 0.3354 0.0
C936 C 0.30101 0.11679 0.3437 0.0
C937 C 0.29861 0.13569 0.31836 0.0
C938 C 0.30331 0.1203 0.35794 0.0
C939 C 0.29268 0.118 0.36797 0.0
C940 C 0.27966 0.11205 0.36391 0.0
C941 C 0.27734 0.10871 0.34961 0.0
C942 C 0.28794 0.11102 0.3396 0.0
H943 H 0.30113 0.14435 0.31081 0.0
H944 H 0.2899 0.12929 0.31373 0.0
H945 H 0.29478 0.14042 0.32841 0.0
H946 H 0.31337 0.12465 0.36131 0.0
H947 H 0.29476 0.12065 0.37893 0.0
H948 H 0.88015 0.29538 0.3808 0.0
H949 H 0.87635 0.31444 0.36364 0.0
H950 H 0.88658 0.28586 0.32956 0.0
H951 H 0.89024 0.26677 0.34658 0.0
H952 H 0.89678 0.32479 0.34522 0.0
H953 H 0.85042 0.30477 0.31536 0.0
H954 H 0.85539 0.29787 0.33247 0.0
H955 H 0.8644 0.29203 0.31676 0.0
C956 C 0.8814 0.29313 0.36963 0.0
C957 C 0.88549 0.2796 0.36501 0.0
C958 C 0.87922 0.304 0.35986 0.0
C959 C 0.88097 0.30149 0.34534 0.0
C960 C 0.88485 0.28794 0.3407 0.0
H961 H 0.89142 0.34616 0.26793 0.0
H962 H 0.88812 0.32917 0.28716 0.0
C963 C 0.88704 0.27707 0.35044 0.0
C964 C 0.87994 0.31324 0.33507 0.0
H965 H 0.86401 0.32312 0.30422 0.0
C966 C 0.88946 0.32457 0.33638 0.0
C967 C 0.87039 0.31287 0.32355 0.0
C968 C 0.85947 0.3013 0.322 0.0
C969 C 0.89017 0.33522 0.32608 0.0
C970 C 0.88093 0.33461 0.31432 0.0
C971 C 0.87109 0.32352 0.31325 0.0
C972 C 0.88195 0.3449 0.3026 0.0
C973 C 0.90123 0.34668 0.32754 0.0
C974 C 0.87929 0.35932 0.30487 0.0
C975 C 0.88122 0.36906 0.29392 0.0
C976 C 0.88576 0.36449 0.28052 0.0
C977 C 0.88797 0.34999 0.27816 0.0
C978 C 0.88606 0.34027 0.28911 0.0
H979 H 0.90932 0.34402 0.33564 0.0
H980 H 0.90666 0.34855 0.31729 0.0
H981 H 0.89605 0.35669 0.33076 0.0
H982 H 0.87589 0.36305 0.31516 0.0
H983 H 0.87935 0.38017 0.296 0.0
H984 H 0.70179 0.88184 0.3796 0.0
H985 H 0.6831 0.8799 0.36172 0.0
H986 H 0.71359 0.8886 0.32889 0.0
H987 H 0.73226 0.89071 0.34667 0.0
H988 H 0.6895 0.90581 0.32808 0.0
H989 H 0.67495 0.84893 0.33211 0.0
H990 H 0.6751 0.8585 0.34854 0.0
H991 H 0.69135 0.85591 0.33906 0.0
C992 C 0.70453 0.88316 0.36856 0.0
C993 C 0.71846 0.88645 0.36452 0.0
C994 C 0.69387 0.88197 0.35836 0.0
C995 C 0.69702 0.88396 0.34399 0.0
C996 C 0.71097 0.88697 0.33993 0.0
H997 H 0.65096 0.89073 0.26546 0.0
H998 H 0.66884 0.88882 0.28405 0.0
C999 C 0.72162 0.88817 0.3501 0.0
C1000 C 0.68565 0.88395 0.33323 0.0
H1001 H 0.66052 0.86327 0.31743 0.0
C1002 C 0.68319 0.8965 0.32571 0.0
C1003 C 0.67738 0.87181 0.33029 0.0
C1004 C 0.67985 0.85797 0.33782 0.0
C1005 C 0.67266 0.89727 0.31532 0.0
C1006 C 0.66453 0.88508 0.3122 0.0
C1007 C 0.66683 0.87257 0.31984 0.0
C1008 C 0.65375 0.88516 0.30087 0.0
C1009 C 0.67017 0.91118 0.3079 0.0
C1010 C 0.6394 0.88324 0.30413 0.0
C1011 C 0.62915 0.88426 0.29351 0.0
C1012 C 0.63313 0.88716 0.27948 0.0
C1013 C 0.64756 0.88859 0.27619 0.0
C1014 C 0.65779 0.88755 0.28679 0.0
H1015 H 0.67468 0.92023 0.31393 0.0
H1016 H 0.67535 0.91093 0.29737 0.0
H1017 H 0.65869 0.91307 0.30627 0.0
H1018 H 0.63612 0.88131 0.31494 0.0
H1019 H 0.6181 0.88306 0.29634 0.0
H1020 H 0.11743 0.6167 0.29405 0.0
H1021 H 0.12047 0.63434 0.31283 0.0
H1022 H 0.10651 0.66712 0.28437 0.0
H1023 H 0.1036 0.64961 0.26552 0.0
H1024 H 0.13077 0.67434 0.30094 0.0
H1025 H 0.08667 0.65269 0.33344 0.0
H1026 H 0.10018 0.64027 0.32856 0.0
H1027 H 0.08916 0.64792 0.31512 0.0
C1028 C 0.11508 0.62768 0.29179 0.0
C1029 C 0.11018 0.63178 0.27836 0.0
C1030 C 0.11677 0.63771 0.30252 0.0
C1031 C 0.11352 0.65197 0.30001 0.0
C1032 C 0.10902 0.65615 0.28651 0.0
H1033 H 0.10595 0.73023 0.34536 0.0
H1034 H 0.10881 0.71156 0.32768 0.0
C1035 C 0.10734 0.64614 0.27577 0.0
C1036 C 0.1144 0.66252 0.31152 0.0
H1037 H 0.09919 0.67211 0.34281 0.0
C1038 C 0.12392 0.67385 0.31013 0.0
C1039 C 0.10545 0.66179 0.32348 0.0
C1040 C 0.0947 0.65009 0.32526 0.0
C1041 C 0.12471 0.68453 0.32042 0.0
C1042 C 0.11554 0.68397 0.33222 0.0
C1043 C 0.10623 0.67248 0.33374 0.0
C1044 C 0.11488 0.69549 0.3428 0.0
C1045 C 0.13538 0.69629 0.31859 0.0
C1046 C 0.11716 0.69258 0.35718 0.0
C1047 C 0.11541 0.70319 0.36731 0.0
C1048 C 0.11128 0.71687 0.36323 0.0
C1049 C 0.10921 0.71981 0.34881 0.0
C1050 C 0.11093 0.70918 0.33869 0.0
H1051 H 0.14422 0.69303 0.31156 0.0
H1052 H 0.13011 0.70554 0.31367 0.0
H1053 H 0.13982 0.69966 0.32894 0.0
H1054 H 0.12011 0.68204 0.36056 0.0
H1055 H 0.11707 0.70062 0.37836 0.0
H1056 H 0.34539 0.88941 0.73171 0.0
H1057 H 0.3274 0.88708 0.71324 0.0
H1058 H 0.36012 0.88448 0.68155 0.0
H1059 H 0.37821 0.88667 0.69999 0.0
H1060 H 0.32429 0.90608 0.6905 0.0
H1061 H 0.33361 0.85119 0.67159 0.0
H1062 H 0.34014 0.85756 0.6884 0.0
H1063 H 0.34904 0.86232 0.6723 0.0
C1064 C 0.34876 0.88818 0.72083 0.0
C1065 C 0.3632 0.88823 0.71728 0.0
C1066 C 0.33848 0.88685 0.7103 0.0
C1067 C 0.34245 0.88545 0.69608 0.0
C1068 C 0.35686 0.88527 0.69251 0.0
H1069 H 0.29485 0.88545 0.61738 0.0
H1070 H 0.31341 0.88406 0.63546 0.0
C1071 C 0.36716 0.88661 0.70304 0.0
C1072 C 0.33148 0.88522 0.68492 0.0
H1073 H 0.3175 0.86512 0.65831 0.0
C1074 C 0.32275 0.8971 0.6835 0.0
C1075 C 0.32962 0.87353 0.67576 0.0
C1076 C 0.33851 0.86036 0.67711 0.0
C1077 C 0.31224 0.89769 0.67306 0.0
C1078 C 0.31024 0.88594 0.664 0.0
C1079 C 0.31905 0.87408 0.66533 0.0
C1080 C 0.29898 0.88581 0.65313 0.0
C1081 C 0.30356 0.91101 0.67164 0.0
C1082 C 0.28474 0.88689 0.65713 0.0
C1083 C 0.27416 0.88776 0.64687 0.0
C1084 C 0.27765 0.88742 0.63243 0.0
C1085 C 0.29187 0.88578 0.62844 0.0
C1086 C 0.30247 0.88497 0.63873 0.0
H1087 H 0.30883 0.92021 0.67675 0.0
H1088 H 0.3016 0.91358 0.66035 0.0
H1089 H 0.29318 0.90941 0.67689 0.0
H1090 H 0.28182 0.88726 0.66821 0.0
H1091 H 0.26327 0.88889 0.65026 0.0
H1092 H 0.11043 0.37978 0.69937 0.0
H1093 H 0.11199 0.36194 0.68059 0.0
H1094 H 0.11124 0.32881 0.71194 0.0
H1095 H 0.10953 0.34651 0.73073 0.0
H1096 H 0.13197 0.33935 0.67599 0.0
H1097 H 0.07733 0.31989 0.68571 0.0
H1098 H 0.08374 0.33653 0.6926 0.0
H1099 H 0.08845 0.32021 0.70113 0.0
C1100 C 0.11069 0.36869 0.70226 0.0
C1101 C 0.10972 0.36451 0.71649 0.0
C1102 C 0.1116 0.35854 0.69153 0.0
C1103 C 0.1115 0.34409 0.69491 0.0
C1104 C 0.11108 0.33992 0.70914 0.0
H1105 H 0.10802 0.26525 0.64956 0.0
H1106 H 0.11017 0.28415 0.6671 0.0
C1107 C 0.11015 0.35004 0.71985 0.0
C1108 C 0.11134 0.33332 0.68357 0.0
H1109 H 0.09139 0.30648 0.66991 0.0
C1110 C 0.12309 0.33219 0.67458 0.0
C1111 C 0.09969 0.32409 0.68177 0.0
C1112 C 0.08652 0.32528 0.69072 0.0
C1113 C 0.12367 0.32172 0.66405 0.0
C1114 C 0.1121 0.31234 0.6624 0.0
C1115 C 0.10029 0.31364 0.67128 0.0
C1116 C 0.11199 0.30095 0.65167 0.0
C1117 C 0.13679 0.32052 0.65504 0.0
C1118 C 0.11235 0.30416 0.63718 0.0
C1119 C 0.11116 0.29337 0.62712 0.0
C1120 C 0.10946 0.27924 0.63142 0.0
C1121 C 0.1093 0.27605 0.64593 0.0
C1122 C 0.11053 0.28682 0.65596 0.0
H1123 H 0.14594 0.32615 0.65985 0.0
H1124 H 0.1397 0.30927 0.65337 0.0
H1125 H 0.1347 0.32532 0.64453 0.0
H1126 H 0.11317 0.31504 0.63365 0.0
H1127 H 0.11125 0.29614 0.616 0.0
H1128 H 0.70047 0.11685 0.61567 0.0
H1129 H 0.68132 0.1198 0.63291 0.0
H1130 H 0.70987 0.1084 0.66663 0.0
H1131 H 0.72904 0.10558 0.64954 0.0
H1132 H 0.671 0.09861 0.65072 0.0
H1133 H 0.69088 0.14415 0.68191 0.0
H1134 H 0.69773 0.13975 0.66462 0.0
H1135 H 0.70368 0.13027 0.68001 0.0
C1136 C 0.70269 0.11515 0.62678 0.0
C1137 C 0.71624 0.111 0.63128 0.0
C1138 C 0.69176 0.11684 0.6366 0.0
C1139 C 0.69425 0.11452 0.65105 0.0
C1140 C 0.70781 0.11055 0.65556 0.0
H1141 H 0.64971 0.10249 0.72837 0.0
H1142 H 0.66661 0.10583 0.70906 0.0
C1143 C 0.71872 0.10884 0.64577 0.0
C1144 C 0.6825 0.11519 0.66134 0.0
H1145 H 0.67255 0.13023 0.69262 0.0
C1146 C 0.6712 0.10567 0.65977 0.0
C1147 C 0.68283 0.12442 0.67312 0.0
C1148 C 0.69436 0.13533 0.67497 0.0
C1149 C 0.66054 0.10463 0.67005 0.0
C1150 C 0.66113 0.11354 0.68206 0.0
C1151 C 0.67218 0.12339 0.6834 0.0
C1152 C 0.65084 0.1122 0.69376 0.0
C1153 C 0.64912 0.09358 0.66829 0.0
C1154 C 0.63641 0.11491 0.69157 0.0
C1155 C 0.62672 0.11297 0.70257 0.0
C1156 C 0.63134 0.10836 0.71593 0.0
C1157 C 0.64584 0.106 0.71817 0.0
C1158 C 0.65551 0.10793 0.70718 0.0
H1159 H 0.65182 0.08571 0.65999 0.0
H1160 H 0.64723 0.0879 0.67839 0.0
H1161 H 0.6391 0.09883 0.66517 0.0
H1162 H 0.63265 0.11845 0.68134 0.0
H1163 H 0.61561 0.11496 0.70058 0.0
H1164 H 0.87888 0.70234 0.61678 0.0
H1165 H 0.87499 0.68324 0.63388 0.0
H1166 H 0.88837 0.71084 0.66773 0.0
H1167 H 0.89211 0.72999 0.65078 0.0
H1168 H 0.89535 0.67145 0.65122 0.0
H1169 H 0.85184 0.69388 0.68334 0.0
H1170 H 0.85653 0.70074 0.66613 0.0
H1171 H 0.86656 0.70577 0.68153 0.0
C1172 C 0.88084 0.70437 0.62789 0.0
C1173 C 0.88578 0.71764 0.63247 0.0
C1174 C 0.8786 0.69347 0.63763 0.0
C1175 C 0.88117 0.69571 0.65208 0.0
C1176 C 0.886 0.70899 0.65667 0.0
H1177 H 0.89263 0.65003 0.72848 0.0
H1178 H 0.8895 0.66717 0.70939 0.0
C1179 C 0.88823 0.71989 0.64696 0.0
C1180 C 0.87985 0.68392 0.66227 0.0
H1181 H 0.86475 0.67466 0.69374 0.0
C1182 C 0.88849 0.67201 0.6604 0.0
C1183 C 0.87087 0.68472 0.67421 0.0
C1184 C 0.86082 0.69691 0.67637 0.0
C1185 C 0.88895 0.6612 0.67054 0.0
C1186 C 0.88036 0.66226 0.68274 0.0
C1187 C 0.87135 0.67392 0.68437 0.0
C1188 C 0.88135 0.65189 0.69439 0.0
C1189 C 0.8991 0.64906 0.66845 0.0
C1190 C 0.87756 0.63768 0.69231 0.0
C1191 C 0.87938 0.62784 0.7032 0.0
C1192 C 0.88496 0.6321 0.71631 0.0
C1193 C 0.88836 0.64642 0.71847 0.0
C1194 C 0.88654 0.65623 0.7076 0.0
H1195 H 0.90684 0.65121 0.65987 0.0
H1196 H 0.90499 0.64685 0.67837 0.0
H1197 H 0.89304 0.6394 0.66559 0.0
H1198 H 0.87333 0.63419 0.68224 0.0
H1199 H 0.87659 0.61688 0.70128 0.0
H1200 H 0.26695 0.34648 0.10631 0.0
H1201 H 0.28592 0.32937 0.11005 0.0
H1202 H 0.31448 0.36324 0.12126 0.0
H1203 H 0.29555 0.38049 0.11738 0.0
H1204 H 0.32517 0.3451 0.10092 0.0
H1205 H 0.3041 0.31461 0.1463 0.0
H1206 H 0.29165 0.31617 0.13205 0.0
H1207 H 0.29731 0.33177 0.1414 0.0
C1208 C 0.27722 0.35028 0.10974 0.0
C1209 C 0.27978 0.36481 0.11155 0.0
C1210 C 0.28802 0.34048 0.11197 0.0
C1211 C 0.30153 0.34503 0.11615 0.0
C1212 C 0.30408 0.35952 0.11815 0.0
H1213 H 0.37991 0.29526 0.11878 0.0
H1214 H 0.36287 0.31446 0.12224 0.0
C1215 C 0.29327 0.36935 0.11592 0.0
C1216 C 0.31322 0.33471 0.11729 0.0
H1217 H 0.32265 0.30358 0.13292 0.0
C1218 C 0.32476 0.33614 0.10807 0.0
C1219 C 0.31261 0.32305 0.12664 0.0
C1220 C 0.30082 0.32136 0.13726 0.0
C1221 C 0.3354 0.32583 0.10745 0.0
C1222 C 0.33453 0.31392 0.11646 0.0
C1223 C 0.32323 0.31272 0.12601 0.0
C1224 C 0.34476 0.30216 0.11545 0.0
C1225 C 0.3471 0.32744 0.09671 0.0
C1226 C 0.34012 0.2888 0.11092 0.0
C1227 C 0.34978 0.27782 0.10901 0.0
C1228 C 0.36425 0.28002 0.11163 0.0
C1229 C 0.36883 0.29329 0.11659 0.0
C1230 C 0.35913 0.30428 0.11852 0.0
H1231 H 0.34469 0.33573 0.08874 0.0
H1232 H 0.35703 0.33047 0.10221 0.0
H1233 H 0.34899 0.31729 0.0911 0.0
H1234 H 0.32905 0.28697 0.10854 0.0
H1235 H 0.34594 0.26769 0.10523 0.0
H1236 H 0.37935 0.70079 0.87792 0.0
H1237 H 0.36178 0.68196 0.87462 0.0
H1238 H 0.32876 0.71032 0.88817 0.0
H1239 H 0.34618 0.72921 0.89133 0.0
H1240 H 0.34447 0.67083 0.89564 0.0
H1241 H 0.31225 0.69313 0.85205 0.0
H1242 H 0.3297 0.69969 0.85637 0.0
H1243 H 0.31461 0.70515 0.86658 0.0
C1244 C 0.36832 0.70305 0.88003 0.0
C1245 C 0.36412 0.71646 0.88486 0.0
C1246 C 0.35832 0.69229 0.87815 0.0
C1247 C 0.34397 0.69482 0.88095 0.0
C1248 C 0.33974 0.70825 0.88564 0.0
H1249 H 0.26684 0.64897 0.89196 0.0
H1250 H 0.28589 0.66632 0.88928 0.0
C1251 C 0.34972 0.719 0.88754 0.0
C1252 C 0.33351 0.68319 0.87998 0.0
H1253 H 0.30191 0.67399 0.86505 0.0
C1254 C 0.33526 0.6714 0.88881 0.0
C1255 C 0.32152 0.68401 0.87106 0.0
C1256 C 0.31945 0.69611 0.86087 0.0
C1257 C 0.32501 0.66066 0.88942 0.0
C1258 C 0.31282 0.66168 0.88079 0.0
C1259 C 0.31126 0.67328 0.87168 0.0
C1260 C 0.30123 0.65118 0.88165 0.0
C1261 C 0.32701 0.64864 0.89973 0.0
C1262 C 0.30351 0.63698 0.87799 0.0
C1263 C 0.29266 0.62702 0.87956 0.0
C1264 C 0.27935 0.63116 0.88473 0.0
C1265 C 0.277 0.64547 0.888 0.0
C1266 C 0.28785 0.65539 0.88645 0.0
H1267 H 0.3354 0.65098 0.90764 0.0
H1268 H 0.317 0.64632 0.90544 0.0
H1269 H 0.33013 0.63898 0.89384 0.0
H1270 H 0.31371 0.63358 0.87404 0.0
H1271 H 0.29474 0.61608 0.87687 0.0
H1272 H 0.29528 0.37901 0.87814 0.0
H1273 H 0.31408 0.36154 0.87465 0.0
H1274 H 0.28543 0.32819 0.88706 0.0
H1275 H 0.26658 0.34552 0.8904 0.0
H1276 H 0.32486 0.34388 0.89541 0.0
H1277 H 0.30311 0.31236 0.85097 0.0
H1278 H 0.29649 0.3297 0.85551 0.0
H1279 H 0.29086 0.31439 0.86533 0.0
C1280 C 0.29295 0.36793 0.87995 0.0
C1281 C 0.27947 0.36361 0.88453 0.0
C1282 C 0.30369 0.35798 0.87795 0.0
C1283 C 0.30107 0.34357 0.88038 0.0
C1284 C 0.28757 0.33923 0.8848 0.0
H1285 H 0.34612 0.26642 0.89183 0.0
H1286 H 0.32896 0.28549 0.88866 0.0
C1287 C 0.27685 0.34915 0.88681 0.0
C1288 C 0.31269 0.33315 0.87939 0.0
H1289 H 0.32191 0.30172 0.86423 0.0
C1290 C 0.32435 0.33477 0.88844 0.0
C1291 C 0.31194 0.32129 0.8703 0.0
C1292 C 0.29999 0.31937 0.85987 0.0
C1293 C 0.335 0.32448 0.88912 0.0
C1294 C 0.33403 0.31241 0.88033 0.0
C1295 C 0.32258 0.31099 0.87098 0.0
C1296 C 0.34439 0.30075 0.8813 0.0
C1297 C 0.34686 0.32632 0.89967 0.0
C1298 C 0.35867 0.30298 0.87794 0.0
C1299 C 0.36851 0.29212 0.87978 0.0
C1300 C 0.36417 0.27886 0.88496 0.0
C1301 C 0.34978 0.27654 0.88788 0.0
C1302 C 0.33997 0.2874 0.88605 0.0
H1303 H 0.34449 0.33468 0.90759 0.0
H1304 H 0.34894 0.31625 0.90536 0.0
H1305 H 0.35667 0.32938 0.89399 0.0
H1306 H 0.36223 0.31316 0.87404 0.0
H1307 H 0.37953 0.29416 0.87736 0.0
H1308 H 0.61593 0.29431 0.87869 0.0
H1309 H 0.63335 0.31328 0.87537 0.0
H1310 H 0.66643 0.28556 0.89006 0.0
H1311 H 0.64917 0.26654 0.89325 0.0
H1312 H 0.65038 0.32513 0.89628 0.0
H1313 H 0.68316 0.30186 0.85367 0.0
H1314 H 0.6657 0.29532 0.85795 0.0
H1315 H 0.68073 0.29016 0.86843 0.0
C1316 C 0.62695 0.29223 0.88108 0.0
C1317 C 0.63122 0.27895 0.88621 0.0
C1318 C 0.63686 0.30306 0.87917 0.0
C1319 C 0.65119 0.30073 0.88225 0.0
C1320 C 0.65547 0.28746 0.88731 0.0
H1321 H 0.72816 0.34595 0.89412 0.0
H1322 H 0.70887 0.32891 0.89122 0.0
C1323 C 0.64558 0.27665 0.88922 0.0
C1324 C 0.66158 0.31239 0.8811 0.0
H1325 H 0.69345 0.32118 0.86655 0.0
C1326 C 0.65969 0.3244 0.88962 0.0
C1327 C 0.67369 0.31137 0.87238 0.0
C1328 C 0.6759 0.29904 0.86248 0.0
C1329 C 0.66997 0.33512 0.8902 0.0
C1330 C 0.68231 0.33385 0.88185 0.0
C1331 C 0.68398 0.32207 0.87297 0.0
C1332 C 0.69403 0.34418 0.88288 0.0
C1333 C 0.66783 0.34738 0.9002 0.0
C1334 C 0.69211 0.35835 0.87891 0.0
C1335 C 0.7031 0.36813 0.8806 0.0
C1336 C 0.71619 0.36384 0.88621 0.0
C1337 C 0.71818 0.34957 0.88982 0.0
C1338 C 0.70719 0.33982 0.88814 0.0
H1339 H 0.65916 0.34535 0.90787 0.0
H1340 H 0.6777 0.34966 0.90618 0.0
H1341 H 0.66507 0.35697 0.89403 0.0
H1342 H 0.68209 0.36185 0.87461 0.0
H1343 H 0.70131 0.37905 0.87765 0.0
H1344 H 0.70182 0.61501 0.87707 0.0
H1345 H 0.68267 0.63209 0.87347 0.0
H1346 H 0.70996 0.66575 0.88797 0.0
H1347 H 0.72914 0.64883 0.89144 0.0
H1348 H 0.67071 0.64886 0.89441 0.0
H1349 H 0.69312 0.68219 0.85175 0.0
H1350 H 0.69997 0.66487 0.85594 0.0
H1351 H 0.70502 0.67999 0.86638 0.0
C1352 C 0.70377 0.62608 0.87932 0.0
C1353 C 0.71696 0.63061 0.88452 0.0
C1354 C 0.69284 0.6358 0.87725 0.0
C1355 C 0.69498 0.65019 0.88024 0.0
C1356 C 0.7082 0.65474 0.88529 0.0
H1357 H 0.64952 0.72639 0.89343 0.0
H1358 H 0.66657 0.70727 0.89002 0.0
C1359 C 0.71911 0.64505 0.88736 0.0
C1360 C 0.68316 0.66035 0.87917 0.0
H1361 H 0.67393 0.69222 0.86501 0.0
C1362 C 0.67127 0.65823 0.88781 0.0
C1363 C 0.68396 0.67253 0.87054 0.0
C1364 C 0.69615 0.67498 0.86052 0.0
C1365 C 0.66048 0.66837 0.8886 0.0
C1366 C 0.66156 0.68081 0.88037 0.0
C1367 C 0.67319 0.68268 0.87134 0.0
C1368 C 0.65121 0.69243 0.88171 0.0
C1369 C 0.64837 0.666 0.89875 0.0
C1370 C 0.63698 0.69044 0.87795 0.0
C1371 C 0.62719 0.70133 0.87994 0.0
C1372 C 0.63154 0.71438 0.88564 0.0
C1373 C 0.64586 0.71643 0.88906 0.0
C1374 C 0.65561 0.70555 0.88708 0.0
H1375 H 0.65055 0.65725 0.90628 0.0
H1376 H 0.64616 0.67577 0.90489 0.0
H1377 H 0.6387 0.66325 0.89268 0.0
H1378 H 0.63343 0.68045 0.87357 0.0
H1379 H 0.61623 0.6995 0.87712 0.0
H1380 H 0.61579 0.7 0.11523 0.0
H1381 H 0.63314 0.68104 0.11849 0.0
H1382 H 0.66697 0.7104 0.10955 0.0
H1383 H 0.64976 0.7294 0.1064 0.0
H1384 H 0.65212 0.67166 0.0979 0.0
H1385 H 0.68069 0.69055 0.14555 0.0
H1386 H 0.66355 0.69727 0.14047 0.0
H1387 H 0.6793 0.70368 0.1319 0.0
C1388 C 0.62695 0.70244 0.11413 0.0
C1389 C 0.63144 0.71617 0.11057 0.0
C1390 C 0.63682 0.69161 0.116 0.0
C1391 C 0.65133 0.69439 0.11447 0.0
C1392 C 0.65584 0.70812 0.11108 0.0
H1393 H 0.72927 0.6499 0.10552 0.0
H1394 H 0.71002 0.66692 0.10835 0.0
C1395 C 0.64599 0.71894 0.10919 0.0
C1396 C 0.66173 0.68275 0.11534 0.0
H1397 H 0.69211 0.67252 0.13193 0.0
C1398 C 0.66076 0.67171 0.10546 0.0
C1399 C 0.67297 0.6829 0.12522 0.0
C1400 C 0.67415 0.69417 0.13648 0.0
C1401 C 0.6711 0.66111 0.10478 0.0
C1402 C 0.68255 0.66148 0.11441 0.0
C1403 C 0.68332 0.67231 0.12455 0.0
C1404 C 0.69424 0.65115 0.1136 0.0
C1405 C 0.67002 0.64997 0.09338 0.0
C1406 C 0.69178 0.63669 0.1159 0.0
C1407 C 0.70274 0.62693 0.11425 0.0
C1408 C 0.71635 0.63152 0.11035 0.0
C1409 C 0.71888 0.64605 0.10848 0.0
C1410 C 0.70791 0.65579 0.11012 0.0
H1411 H 0.66224 0.65289 0.08507 0.0
H1412 H 0.68046 0.64821 0.0883 0.0
H1413 H 0.66654 0.63983 0.09818 0.0
H1414 H 0.68134 0.63295 0.11882 0.0
H1415 H 0.70052 0.6158 0.11584 0.0
H1416 H 0.34607 0.73004 0.10424 0.0
H1417 H 0.32878 0.71105 0.10737 0.0
H1418 H 0.36203 0.68281 0.12061 0.0
H1419 H 0.37947 0.70176 0.11734 0.0
H1420 H 0.34473 0.67173 0.09955 0.0
H1421 H 0.31246 0.69347 0.14335 0.0
H1422 H 0.31471 0.70566 0.12897 0.0
H1423 H 0.32986 0.70017 0.13909 0.0
C1424 C 0.34969 0.71983 0.10797 0.0
C1425 C 0.36411 0.71737 0.11055 0.0
C1426 C 0.33978 0.70903 0.10985 0.0
C1427 C 0.34411 0.6956 0.11444 0.0
C1428 C 0.35849 0.69314 0.11717 0.0
H1429 H 0.29473 0.61684 0.11704 0.0
H1430 H 0.31373 0.6342 0.12045 0.0
C1431 C 0.36842 0.70396 0.1153 0.0
C1432 C 0.33372 0.6839 0.11533 0.0
H1433 H 0.30208 0.67452 0.13001 0.0
C1434 C 0.33551 0.67221 0.10636 0.0
C1435 C 0.32172 0.6846 0.12422 0.0
C1436 C 0.31962 0.69659 0.13456 0.0
C1437 C 0.32526 0.66148 0.10557 0.0
C1438 C 0.31304 0.66241 0.11415 0.0
C1439 C 0.31146 0.67389 0.12343 0.0
C1440 C 0.30141 0.65198 0.11301 0.0
C1441 C 0.32729 0.64959 0.0951 0.0
C1442 C 0.2881 0.65634 0.10812 0.0
C1443 C 0.27724 0.64649 0.10623 0.0
C1444 C 0.2795 0.63212 0.10925 0.0
C1445 C 0.29272 0.62783 0.11453 0.0
C1446 C 0.30359 0.63771 0.11644 0.0
H1447 H 0.33576 0.65199 0.08731 0.0
H1448 H 0.3303 0.63983 0.10087 0.0
H1449 H 0.31732 0.6474 0.08927 0.0
H1450 H 0.28622 0.66733 0.10546 0.0
H1451 H 0.26715 0.6501 0.10219 0.0
H1452 H 0.70065 0.37954 0.11306 0.0
H1453 H 0.68177 0.3618 0.11476 0.0
H1454 H 0.71203 0.32871 0.10649 0.0
H1455 H 0.7309 0.34635 0.10462 0.0
H1456 H 0.68792 0.32795 0.08911 0.0
H1457 H 0.67339 0.33248 0.14593 0.0
H1458 H 0.6737 0.34882 0.13622 0.0
H1459 H 0.68986 0.33926 0.13897 0.0
C1460 C 0.70329 0.36847 0.11176 0.0
C1461 C 0.71723 0.36431 0.10869 0.0
C1462 C 0.69252 0.35835 0.11281 0.0
C1463 C 0.69556 0.34395 0.1109 0.0
C1464 C 0.7095 0.33978 0.10805 0.0
H1465 H 0.64976 0.26527 0.1047 0.0
H1466 H 0.66749 0.28407 0.10628 0.0
C1467 C 0.72026 0.34986 0.10699 0.0
C1468 C 0.68411 0.33327 0.11093 0.0
H1469 H 0.65902 0.3176 0.13171 0.0
C1470 C 0.68162 0.32565 0.09843 0.0
C1471 C 0.67585 0.33043 0.12308 0.0
C1472 C 0.67836 0.33808 0.13687 0.0
C1473 C 0.67107 0.31524 0.09772 0.0
C1474 C 0.66299 0.3122 0.10994 0.0
C1475 C 0.6653 0.31996 0.12239 0.0
C1476 C 0.65229 0.30076 0.10998 0.0
C1477 C 0.66855 0.3077 0.08386 0.0
C1478 C 0.63794 0.30388 0.11204 0.0
C1479 C 0.62777 0.29314 0.11122 0.0
C1480 C 0.63185 0.27913 0.10838 0.0
C1481 C 0.64629 0.27599 0.10679 0.0
C1482 C 0.65642 0.28671 0.10764 0.0
H1483 H 0.67293 0.31375 0.07477 0.0
H1484 H 0.67386 0.29725 0.08414 0.0
H1485 H 0.65708 0.30592 0.08204 0.0
H1486 H 0.63458 0.31467 0.11394 0.0
H1487 H 0.61672 0.29584 0.11253 0.0
H1488 H 0.60962 0.84436 0.7634 0.0
H1489 H 0.61245 0.82605 0.78146 0.0
H1490 H 0.61385 0.85811 0.81392 0.0
H1491 H 0.61119 0.87654 0.79589 0.0
H1492 H 0.63425 0.83581 0.81716 0.0
H1493 H 0.57964 0.8157 0.80837 0.0
H1494 H 0.59042 0.81657 0.79275 0.0
H1495 H 0.58558 0.8326 0.80175 0.0
C1496 C 0.61063 0.84752 0.77437 0.0
C1497 C 0.61005 0.86186 0.77827 0.0
C1498 C 0.61221 0.83706 0.78467 0.0
C1499 C 0.61313 0.84075 0.79901 0.0
C1500 C 0.6131 0.85508 0.80289 0.0
H1501 H 0.61404 0.79409 0.878 0.0
H1502 H 0.61647 0.81227 0.85972 0.0
C1503 C 0.61155 0.86557 0.79259 0.0
C1504 C 0.61351 0.82964 0.81 0.0
H1505 H 0.59408 0.80262 0.82399 0.0
C1506 C 0.62549 0.82854 0.8187 0.0
C1507 C 0.60201 0.82026 0.81196 0.0
C1508 C 0.58862 0.82137 0.80332 0.0
C1509 C 0.62638 0.81806 0.82919 0.0
C1510 C 0.61488 0.80866 0.83111 0.0
C1511 C 0.60291 0.80981 0.82242 0.0
C1512 C 0.61484 0.7976 0.84219 0.0
C1513 C 0.63969 0.81699 0.83794 0.0
C1514 C 0.61302 0.78337 0.83839 0.0
C1515 C 0.61149 0.773 0.84879 0.0
C1516 C 0.61171 0.77671 0.86318 0.0
C1517 C 0.61389 0.79093 0.86699 0.0
C1518 C 0.61538 0.80131 0.85656 0.0
H1519 H 0.64877 0.82235 0.83274 0.0
H1520 H 0.63791 0.82216 0.84833 0.0
H1521 H 0.64252 0.80576 0.83989 0.0
H1522 H 0.61251 0.78031 0.82735 0.0
H1523 H 0.60984 0.76213 0.84554 0.0
H1524 H 0.23113 0.60756 0.84419 0.0
H1525 H 0.21272 0.6103 0.82623 0.0
H1526 H 0.18151 0.61616 0.85899 0.0
H1527 H 0.19994 0.61361 0.87705 0.0
H1528 H 0.1893 0.59252 0.82387 0.0
H1529 H 0.17273 0.64842 0.83125 0.0
H1530 H 0.18919 0.64161 0.83815 0.0
H1531 H 0.17282 0.63789 0.84707 0.0
C1532 C 0.22038 0.60962 0.84757 0.0
C1533 C 0.21695 0.61036 0.86201 0.0
C1534 C 0.20989 0.61118 0.83731 0.0
C1535 C 0.1958 0.61357 0.84129 0.0
C1536 C 0.19237 0.6146 0.8557 0.0
H1537 H 0.11708 0.6134 0.79368 0.0
H1538 H 0.13514 0.61538 0.81221 0.0
C1539 C 0.20289 0.61305 0.86599 0.0
C1540 C 0.18459 0.61384 0.83036 0.0
H1541 H 0.15879 0.63439 0.81569 0.0
C1542 C 0.18268 0.6017 0.82203 0.0
C1543 C 0.1759 0.62579 0.8281 0.0
C1544 C 0.17779 0.63922 0.83652 0.0
C1545 C 0.17224 0.60114 0.81152 0.0
C1546 C 0.16366 0.61313 0.80912 0.0
C1547 C 0.16544 0.62524 0.81755 0.0
C1548 C 0.15282 0.61322 0.79784 0.0
C1549 C 0.17031 0.5876 0.80323 0.0
C1550 C 0.15684 0.61175 0.78364 0.0
C1551 C 0.14658 0.61057 0.77307 0.0
C1552 C 0.13213 0.61094 0.77654 0.0
C1553 C 0.12814 0.61303 0.79071 0.0
C1554 C 0.13842 0.61418 0.80129 0.0
H1555 H 0.17521 0.57842 0.80867 0.0
H1556 H 0.15892 0.58529 0.80149 0.0
H1557 H 0.17544 0.58875 0.79273 0.0
H1558 H 0.16792 0.61123 0.78076 0.0
H1559 H 0.14998 0.60908 0.76223 0.0
H1560 H 0.37673 0.11648 0.79385 0.0
H1561 H 0.37301 0.13377 0.81284 0.0
H1562 H 0.39055 0.16662 0.78644 0.0
H1563 H 0.39424 0.14948 0.76744 0.0
H1564 H 0.39451 0.15028 0.82576 0.0
H1565 H 0.35338 0.184 0.80115 0.0
H1566 H 0.3573 0.16636 0.79493 0.0
H1567 H 0.36845 0.18098 0.78998 0.0
C1568 C 0.37967 0.12742 0.79207 0.0
C1569 C 0.38576 0.13165 0.77918 0.0
C1570 C 0.37753 0.13726 0.8029 0.0
C1571 C 0.38131 0.15149 0.80094 0.0
C1572 C 0.3873 0.15574 0.78804 0.0
H1573 H 0.39272 0.22811 0.84656 0.0
H1574 H 0.38969 0.20899 0.8294 0.0
C1575 C 0.38949 0.14592 0.77725 0.0
C1576 C 0.3799 0.16177 0.81263 0.0
H1577 H 0.36557 0.19377 0.8211 0.0
C1578 C 0.38802 0.15969 0.82488 0.0
C1579 C 0.37142 0.17401 0.81138 0.0
C1580 C 0.36203 0.17644 0.79871 0.0
C1581 C 0.38845 0.16991 0.83564 0.0
C1582 C 0.38031 0.18237 0.83419 0.0
C1583 C 0.37181 0.18421 0.82216 0.0
C1584 C 0.38125 0.19405 0.84457 0.0
C1585 C 0.39813 0.16758 0.84813 0.0
C1586 C 0.37724 0.19205 0.85872 0.0
C1587 C 0.37903 0.20294 0.86858 0.0
C1588 C 0.38476 0.21602 0.86438 0.0
C1589 C 0.38832 0.21813 0.85011 0.0
C1590 C 0.38657 0.20723 0.84029 0.0
H1591 H 0.40584 0.15894 0.84617 0.0
H1592 H 0.40407 0.1774 0.85071 0.0
H1593 H 0.39171 0.16465 0.85751 0.0
H1594 H 0.37286 0.18202 0.86216 0.0
H1595 H 0.37611 0.20106 0.8795 0.0
H1596 H 0.84629 0.38663 0.76362 0.0
H1597 H 0.82793 0.38384 0.78164 0.0
H1598 H 0.85998 0.38049 0.81395 0.0
H1599 H 0.87847 0.38311 0.79594 0.0
H1600 H 0.8369 0.36069 0.81658 0.0
H1601 H 0.81887 0.41619 0.80959 0.0
H1602 H 0.81935 0.40589 0.79361 0.0
H1603 H 0.83555 0.4099 0.80277 0.0
C1604 C 0.84944 0.3852 0.77454 0.0
C1605 C 0.8638 0.38522 0.77841 0.0
C1606 C 0.83894 0.38365 0.78481 0.0
C1607 C 0.84263 0.3822 0.79911 0.0
C1608 C 0.85696 0.38166 0.80295 0.0
H1609 H 0.79569 0.38042 0.87794 0.0
H1610 H 0.81387 0.37798 0.85965 0.0
C1611 C 0.86748 0.38319 0.79267 0.0
C1612 C 0.83153 0.38185 0.8101 0.0
H1613 H 0.80519 0.40168 0.82467 0.0
C1614 C 0.82996 0.36964 0.8184 0.0
C1615 C 0.82257 0.39358 0.81243 0.0
C1616 C 0.8242 0.40719 0.80423 0.0
C1617 C 0.81942 0.36875 0.82884 0.0
C1618 C 0.81043 0.38047 0.83111 0.0
C1619 C 0.81206 0.39268 0.82283 0.0
C1620 C 0.79933 0.38051 0.84213 0.0
C1621 C 0.81782 0.35522 0.83715 0.0
C1622 C 0.78518 0.38282 0.83833 0.0
C1623 C 0.77482 0.38434 0.84873 0.0
C1624 C 0.77846 0.38363 0.86313 0.0
C1625 C 0.79258 0.38095 0.86692 0.0
C1626 C 0.80296 0.37947 0.85649 0.0
H1627 H 0.82293 0.34615 0.8317 0.0
H1628 H 0.82296 0.35652 0.84763 0.0
H1629 H 0.80649 0.35266 0.83892 0.0
H1630 H 0.78219 0.38372 0.8273 0.0
H1631 H 0.76402 0.38638 0.8455 0.0
H1632 H 0.61455 0.20042 0.11836 0.0
H1633 H 0.61657 0.1823 0.13681 0.0
H1634 H 0.60789 0.21374 0.16872 0.0
H1635 H 0.60571 0.23185 0.15039 0.0
H1636 H 0.63429 0.18085 0.1617 0.0
H1637 H 0.57695 0.1832 0.1744 0.0
H1638 H 0.58427 0.19066 0.15841 0.0
H1639 H 0.58592 0.19997 0.17492 0.0
C1640 C 0.61316 0.20347 0.12932 0.0
C1641 C 0.60984 0.2175 0.13295 0.0
C1642 C 0.61434 0.19313 0.13983 0.0
C1643 C 0.61216 0.19668 0.15407 0.0
C1644 C 0.60937 0.21077 0.15775 0.0
H1645 H 0.60536 0.1509 0.23261 0.0
H1646 H 0.60778 0.16885 0.21415 0.0
C1647 C 0.60818 0.2211 0.14728 0.0
C1648 C 0.61228 0.18558 0.16507 0.0
H1649 H 0.59128 0.16941 0.18957 0.0
C1650 C 0.6249 0.17828 0.16778 0.0
C1651 C 0.59997 0.18226 0.17289 0.0
C1652 C 0.58596 0.18932 0.16996 0.0
C1653 C 0.62562 0.16794 0.17843 0.0
C1654 C 0.61334 0.16475 0.18635 0.0
C1655 C 0.6007 0.17197 0.18352 0.0
C1656 C 0.61324 0.15395 0.19766 0.0
C1657 C 0.63956 0.16076 0.18133 0.0
C1658 C 0.61559 0.13964 0.19448 0.0
C1659 C 0.61422 0.12935 0.20502 0.0
C1660 C 0.61038 0.13323 0.21885 0.0
C1661 C 0.60832 0.1476 0.22205 0.0
C1662 C 0.6097 0.15786 0.21153 0.0
H1663 H 0.6486 0.16673 0.17675 0.0
H1664 H 0.64131 0.15954 0.19289 0.0
H1665 H 0.63944 0.15005 0.17652 0.0
H1666 H 0.61806 0.13639 0.18378 0.0
H1667 H 0.61581 0.11835 0.20225 0.0
H1668 H 0.8794 0.6186 0.20124 0.0
H1669 H 0.86202 0.62246 0.18238 0.0
H1670 H 0.82862 0.60858 0.21023 0.0
H1671 H 0.84585 0.60486 0.22914 0.0
H1672 H 0.84474 0.60186 0.17069 0.0
H1673 H 0.81244 0.64497 0.19364 0.0
H1674 H 0.82978 0.64048 0.20029 0.0
H1675 H 0.81455 0.63024 0.20542 0.0
C1676 C 0.86832 0.61653 0.20338 0.0
C1677 C 0.86396 0.61144 0.21665 0.0
C1678 C 0.85843 0.61875 0.19262 0.0
C1679 C 0.84403 0.61602 0.195 0.0
C1680 C 0.83964 0.61107 0.20829 0.0
H1681 H 0.76729 0.60421 0.14945 0.0
H1682 H 0.78634 0.60749 0.16667 0.0
C1683 C 0.84951 0.60885 0.21904 0.0
C1684 C 0.83369 0.61725 0.18331 0.0
H1685 H 0.80203 0.63208 0.17437 0.0
C1686 C 0.83551 0.60863 0.17136 0.0
C1687 C 0.82168 0.62609 0.18426 0.0
C1688 C 0.81954 0.63608 0.19653 0.0
C1689 C 0.82528 0.60811 0.16062 0.0
C1690 C 0.81304 0.61661 0.1618 0.0
C1691 C 0.81143 0.62556 0.17353 0.0
C1692 C 0.80137 0.61562 0.15143 0.0
C1693 C 0.82734 0.59799 0.14844 0.0
C1694 C 0.80346 0.6194 0.13723 0.0
C1695 C 0.79261 0.61749 0.12735 0.0
C1696 C 0.7795 0.61185 0.13157 0.0
C1697 C 0.7773 0.60853 0.14588 0.0
C1698 C 0.78815 0.61043 0.15573 0.0
H1699 H 0.83589 0.59022 0.15056 0.0
H1700 H 0.8174 0.59211 0.14616 0.0
H1701 H 0.83025 0.60406 0.13882 0.0
H1702 H 0.81353 0.62365 0.13376 0.0
H1703 H 0.79456 0.62023 0.11639 0.0
H1704 H 0.38972 0.76743 0.14963 0.0
H1705 H 0.3863 0.78634 0.1669 0.0
H1706 H 0.37479 0.81503 0.13337 0.0
H1707 H 0.37837 0.79616 0.11594 0.0
H1708 H 0.39532 0.82568 0.15127 0.0
H1709 H 0.35035 0.80445 0.18229 0.0
H1710 H 0.36457 0.79203 0.18051 0.0
H1711 H 0.35502 0.79769 0.16504 0.0
C1712 C 0.3863 0.77771 0.14594 0.0
C1713 C 0.38431 0.78033 0.13144 0.0
C1714 C 0.38424 0.78848 0.15583 0.0
C1715 C 0.38006 0.80201 0.15143 0.0
C1716 C 0.3779 0.80462 0.13697 0.0
H1717 H 0.37776 0.88039 0.20132 0.0
H1718 H 0.37422 0.86323 0.18218 0.0
C1719 C 0.37996 0.79384 0.12705 0.0
C1720 C 0.37909 0.81367 0.16184 0.0
H1721 H 0.36388 0.82302 0.19321 0.0
C1722 C 0.38829 0.82524 0.16033 0.0
C1723 C 0.36991 0.81301 0.17363 0.0
C1724 C 0.3593 0.80119 0.17541 0.0
C1725 C 0.38904 0.83587 0.17066 0.0
C1726 C 0.38019 0.83497 0.18269 0.0
C1727 C 0.37067 0.82363 0.18398 0.0
C1728 C 0.38129 0.84525 0.19443 0.0
C1729 C 0.39974 0.84763 0.16895 0.0
C1730 C 0.38601 0.84071 0.20774 0.0
C1731 C 0.38798 0.85045 0.21868 0.0
C1732 C 0.38521 0.86488 0.21649 0.0
C1733 C 0.38006 0.86934 0.20327 0.0
C1734 C 0.37809 0.85958 0.19233 0.0
H1735 H 0.40762 0.84524 0.16056 0.0
H1736 H 0.39418 0.85752 0.16599 0.0
H1737 H 0.40546 0.84957 0.17903 0.0
H1738 H 0.3885 0.82968 0.20956 0.0
H1739 H 0.39191 0.8467 0.22877 0.0
H1740 H 0.22987 0.39192 0.14939 0.0
H1741 H 0.2111 0.38857 0.16684 0.0
H1742 H 0.18268 0.37472 0.13387 0.0
H1743 H 0.20142 0.37818 0.11627 0.0
H1744 H 0.17157 0.39578 0.1513 0.0
H1745 H 0.19418 0.35221 0.18328 0.0
H1746 H 0.20616 0.36678 0.18086 0.0
H1747 H 0.20056 0.35655 0.1658 0.0
C1748 C 0.21967 0.38802 0.14587 0.0
C1749 C 0.2171 0.38531 0.13148 0.0
C1750 C 0.20899 0.38601 0.15586 0.0
C1751 C 0.19559 0.38119 0.15166 0.0
C1752 C 0.19301 0.37835 0.13732 0.0
H1753 H 0.11721 0.37733 0.2013 0.0
H1754 H 0.13453 0.37426 0.18226 0.0
C1755 C 0.2037 0.38033 0.1273 0.0
C1756 C 0.18402 0.38012 0.16215 0.0
H1757 H 0.17509 0.36513 0.19375 0.0
C1758 C 0.17221 0.38893 0.16048 0.0
C1759 C 0.18494 0.37119 0.1741 0.0
C1760 C 0.19708 0.36104 0.17608 0.0
C1761 C 0.16157 0.38952 0.1708 0.0
C1762 C 0.16268 0.38087 0.18296 0.0
C1763 C 0.1743 0.37176 0.18442 0.0
C1764 C 0.15231 0.38173 0.19463 0.0
C1765 C 0.14955 0.39984 0.16891 0.0
C1766 C 0.15669 0.3865 0.20799 0.0
C1767 C 0.14687 0.38817 0.21889 0.0
C1768 C 0.1325 0.38507 0.2166 0.0
C1769 C 0.1282 0.37989 0.20333 0.0
C1770 C 0.13805 0.37819 0.19243 0.0
H1771 H 0.15184 0.40778 0.16054 0.0
H1772 H 0.13985 0.39396 0.1658 0.0
H1773 H 0.14731 0.40551 0.17895 0.0
H1774 H 0.16767 0.38924 0.2099 0.0
H1775 H 0.15049 0.39213 0.22902 0.0
H1776 H 0.79507 0.6193 0.87941 0.0
H1777 H 0.81378 0.62354 0.86197 0.0
H1778 H 0.78583 0.60966 0.82862 0.0
H1779 H 0.76707 0.60555 0.84592 0.0
H1780 H 0.82532 0.60291 0.8446 0.0
H1781 H 0.80246 0.64621 0.81248 0.0
H1782 H 0.7959 0.6417 0.82986 0.0
H1783 H 0.79061 0.6315 0.81466 0.0
C1784 C 0.79287 0.61734 0.86834 0.0
C1785 C 0.77963 0.61209 0.86401 0.0
C1786 C 0.80355 0.61977 0.85841 0.0
C1787 C 0.80111 0.61712 0.844 0.0
C1788 C 0.78782 0.61209 0.83965 0.0
H1789 H 0.84604 0.60546 0.76705 0.0
H1790 H 0.82896 0.60896 0.78615 0.0
C1791 C 0.77715 0.60964 0.84956 0.0
C1792 C 0.81276 0.61839 0.83364 0.0
H1793 H 0.82163 0.63332 0.80199 0.0
C1794 C 0.82466 0.60973 0.83539 0.0
C1795 C 0.8118 0.62729 0.82166 0.0
C1796 C 0.79956 0.63731 0.8196 0.0
C1797 C 0.83533 0.60918 0.82511 0.0
C1798 C 0.83414 0.61774 0.8129 0.0
C1799 C 0.82247 0.62676 0.81137 0.0
C1800 C 0.84443 0.61673 0.80116 0.0
C1801 C 0.84742 0.59896 0.82708 0.0
C1802 C 0.85872 0.62024 0.80322 0.0
C1803 C 0.86851 0.61818 0.79235 0.0
C1804 C 0.86413 0.61267 0.77924 0.0
C1805 C 0.84973 0.60966 0.77706 0.0
C1806 C 0.83996 0.61169 0.78794 0.0
H1807 H 0.84523 0.59113 0.83557 0.0
H1808 H 0.84963 0.59316 0.8171 0.0
H1809 H 0.8571 0.60493 0.83004 0.0
H1810 H 0.86231 0.62437 0.81329 0.0
H1811 H 0.87954 0.62069 0.79428 0.0
H1812 H 0.38981 0.84777 0.76539 0.0
H1813 H 0.38767 0.82976 0.78382 0.0
H1814 H 0.38177 0.86238 0.81518 0.0
H1815 H 0.38376 0.88051 0.79675 0.0
H1816 H 0.40559 0.82757 0.80739 0.0
H1817 H 0.34946 0.83426 0.8236 0.0
H1818 H 0.35631 0.84115 0.80715 0.0
H1819 H 0.35991 0.85017 0.82349 0.0
C1820 C 0.38792 0.85111 0.77619 0.0
C1821 C 0.38696 0.86554 0.77965 0.0
C1822 C 0.38669 0.84081 0.78669 0.0
C1823 C 0.38441 0.84474 0.80082 0.0
C1824 C 0.38327 0.85913 0.8043 0.0
H1825 H 0.38322 0.79601 0.87888 0.0
H1826 H 0.38174 0.81485 0.86112 0.0
C1827 C 0.38449 0.86946 0.79378 0.0
C1828 C 0.38417 0.83378 0.81196 0.0
H1829 H 0.3634 0.81857 0.83733 0.0
C1830 C 0.39636 0.82556 0.81391 0.0
C1831 C 0.37213 0.8313 0.82049 0.0
C1832 C 0.35865 0.83959 0.81856 0.0
C1833 C 0.39687 0.81494 0.82422 0.0
C1834 C 0.38477 0.8123 0.83262 0.0
C1835 C 0.37263 0.82062 0.83081 0.0
C1836 C 0.38458 0.80083 0.84325 0.0
C1837 C 0.41045 0.80678 0.82619 0.0
C1838 C 0.38628 0.78671 0.83901 0.0
C1839 C 0.38718 0.77597 0.84909 0.0
C1840 C 0.38628 0.77917 0.86358 0.0
C1841 C 0.384 0.79325 0.86778 0.0
C1842 C 0.38313 0.804 0.85767 0.0
H1843 H 0.41966 0.81245 0.82158 0.0
H1844 H 0.41256 0.80481 0.83758 0.0
H1845 H 0.4095 0.79639 0.82079 0.0
H1846 H 0.38715 0.78404 0.8279 0.0
H1847 H 0.38883 0.7652 0.84554 0.0
H1848 H 0.20166 0.37593 0.87884 0.0
H1849 H 0.1829 0.37216 0.86131 0.0
H1850 H 0.21076 0.38704 0.82834 0.0
H1851 H 0.22957 0.39061 0.84571 0.0
H1852 H 0.17099 0.39277 0.84475 0.0
H1853 H 0.1945 0.35121 0.81089 0.0
H1854 H 0.20122 0.35532 0.8283 0.0
H1855 H 0.20612 0.36605 0.81335 0.0
C1856 C 0.20383 0.37821 0.86782 0.0
C1857 C 0.21707 0.38355 0.86362 0.0
C1858 C 0.19312 0.37605 0.85784 0.0
C1859 C 0.19552 0.3791 0.84351 0.0
C1860 C 0.20879 0.38428 0.83929 0.0
H1861 H 0.14976 0.39367 0.76743 0.0
H1862 H 0.16704 0.38999 0.78634 0.0
C1863 C 0.21949 0.38642 0.84924 0.0
C1864 C 0.18386 0.37804 0.83311 0.0
H1865 H 0.17522 0.36436 0.8008 0.0
C1866 C 0.17179 0.38638 0.83525 0.0
C1867 C 0.18496 0.36969 0.82074 0.0
C1868 C 0.19734 0.35995 0.81823 0.0
C1869 C 0.16107 0.38713 0.82501 0.0
C1870 C 0.16242 0.37917 0.81242 0.0
C1871 C 0.17427 0.37048 0.81047 0.0
C1872 C 0.15206 0.38044 0.80078 0.0
C1873 C 0.1487 0.39691 0.82746 0.0
C1874 C 0.138 0.37603 0.80259 0.0
C1875 C 0.12809 0.37814 0.79182 0.0
C1876 C 0.13214 0.38465 0.77908 0.0
C1877 C 0.14633 0.38867 0.77716 0.0
C1878 C 0.15621 0.38655 0.78792 0.0
H1879 H 0.15058 0.40424 0.83646 0.0
H1880 H 0.14649 0.40326 0.81783 0.0
H1881 H 0.13913 0.39052 0.82986 0.0
H1882 H 0.13466 0.37111 0.81239 0.0
H1883 H 0.11724 0.37486 0.79355 0.0
H1884 H 0.60904 0.14868 0.76425 0.0
H1885 H 0.61177 0.16687 0.78245 0.0
H1886 H 0.61694 0.13449 0.81417 0.0
H1887 H 0.61445 0.1162 0.79596 0.0
H1888 H 0.59377 0.16975 0.80532 0.0
H1889 H 0.64916 0.16207 0.82338 0.0
H1890 H 0.64259 0.15489 0.80692 0.0
H1891 H 0.63851 0.1463 0.82338 0.0
C1892 C 0.61096 0.14543 0.77507 0.0
C1893 C 0.61151 0.13103 0.77871 0.0
C1894 C 0.61252 0.15583 0.78544 0.0
C1895 C 0.61471 0.15202 0.79961 0.0
C1896 C 0.61556 0.13765 0.80324 0.0
H1897 H 0.61277 0.19915 0.87833 0.0
H1898 H 0.61516 0.18085 0.8601 0.0
C1899 C 0.61403 0.12723 0.79285 0.0
C1900 C 0.61487 0.16307 0.81069 0.0
H1901 H 0.63486 0.17757 0.8371 0.0
C1902 C 0.60279 0.17153 0.81221 0.0
C1903 C 0.62661 0.16525 0.81971 0.0
C1904 C 0.64001 0.15674 0.81823 0.0
C1905 C 0.60205 0.18204 0.82263 0.0
C1906 C 0.61382 0.18431 0.83159 0.0
C1907 C 0.62589 0.17581 0.83016 0.0
C1908 C 0.61366 0.19546 0.84255 0.0
C1909 C 0.58857 0.19045 0.82414 0.0
C1910 C 0.61243 0.20972 0.83867 0.0
C1911 C 0.611 0.22015 0.84902 0.0
C1912 C 0.6109 0.21649 0.86342 0.0
C1913 C 0.61276 0.20226 0.8673 0.0
C1914 C 0.61415 0.19182 0.85693 0.0
H1915 H 0.57948 0.18514 0.81887 0.0
H1916 H 0.58591 0.19211 0.83546 0.0
H1917 H 0.59002 0.20098 0.81915 0.0
H1918 H 0.61228 0.21274 0.82761 0.0
H1919 H 0.60971 0.23105 0.84572 0.0
H1920 H 0.87959 0.38192 0.20081 0.0
H1921 H 0.86156 0.38013 0.18222 0.0
H1922 H 0.82884 0.387 0.21325 0.0
H1923 H 0.84675 0.38899 0.23182 0.0
H1924 H 0.8373 0.36204 0.17934 0.0
H1925 H 0.82282 0.41876 0.18399 0.0
H1926 H 0.83879 0.41161 0.19161 0.0
H1927 H 0.82208 0.40915 0.20036 0.0
C1928 C 0.86854 0.38296 0.20367 0.0
C1929 C 0.86456 0.38574 0.21772 0.0
C1930 C 0.85828 0.38191 0.19306 0.0
C1931 C 0.84392 0.38367 0.19636 0.0
C1932 C 0.8399 0.38588 0.21047 0.0
H1933 H 0.76562 0.38946 0.15013 0.0
H1934 H 0.7841 0.38702 0.16807 0.0
C1935 C 0.85013 0.38696 0.22106 0.0
C1936 C 0.83314 0.38369 0.18503 0.0
H1937 H 0.8081 0.40448 0.16952 0.0
C1938 C 0.83094 0.37131 0.17711 0.0
C1939 C 0.82495 0.39585 0.18216 0.0
C1940 C 0.82733 0.40965 0.18987 0.0
C1941 C 0.82044 0.37067 0.16661 0.0
C1942 C 0.81212 0.38278 0.1639 0.0
C1943 C 0.81445 0.39519 0.17171 0.0
C1944 C 0.80086 0.38292 0.15304 0.0
C1945 C 0.8181 0.35698 0.15873 0.0
C1946 C 0.80418 0.38135 0.13866 0.0
C1947 C 0.79364 0.38274 0.12837 0.0
C1948 C 0.77964 0.38581 0.13234 0.0
C1949 C 0.77631 0.3871 0.14676 0.0
C1950 C 0.78684 0.38571 0.15702 0.0
H1951 H 0.82301 0.34786 0.16428 0.0
H1952 H 0.80662 0.35483 0.15736 0.0
H1953 H 0.82294 0.35779 0.14807 0.0
H1954 H 0.81499 0.37947 0.13536 0.0
H1955 H 0.79651 0.38175 0.11732 0.0
H1956 H 0.60704 0.84628 0.23128 0.0
H1957 H 0.60926 0.82842 0.21271 0.0
H1958 H 0.61707 0.86122 0.18196 0.0
H1959 H 0.61504 0.87918 0.20055 0.0
H1960 H 0.59179 0.82711 0.18885 0.0
H1961 H 0.64838 0.83219 0.17361 0.0
H1962 H 0.64151 0.83914 0.19003 0.0
H1963 H 0.63854 0.84844 0.17373 0.0
C1964 C 0.60941 0.84969 0.2206 0.0
C1965 C 0.61085 0.86412 0.21735 0.0
C1966 C 0.61068 0.83948 0.21001 0.0
C1967 C 0.61347 0.8435 0.19601 0.0
C1968 C 0.61518 0.85789 0.19276 0.0
H1969 H 0.61391 0.79582 0.11718 0.0
H1970 H 0.61582 0.8144 0.13521 0.0
C1971 C 0.61393 0.86813 0.20336 0.0
C1972 C 0.6135 0.83268 0.1847 0.0
H1973 H 0.63406 0.81723 0.15935 0.0
C1974 C 0.60105 0.82491 0.18243 0.0
C1975 C 0.62556 0.82995 0.17629 0.0
C1976 C 0.63931 0.83777 0.17856 0.0
C1977 C 0.60029 0.81448 0.17193 0.0
C1978 C 0.6124 0.81158 0.16365 0.0
C1979 C 0.62482 0.81947 0.16578 0.0
C1980 C 0.61233 0.80025 0.15286 0.0
C1981 C 0.58645 0.80679 0.16963 0.0
C1982 C 0.61011 0.78614 0.15689 0.0
C1983 C 0.60897 0.77556 0.14666 0.0
C1984 C 0.61014 0.7789 0.13222 0.0
C1985 C 0.61291 0.79296 0.12823 0.0
C1986 C 0.61402 0.80356 0.1385 0.0
H1987 H 0.57739 0.81268 0.17422 0.0
H1988 H 0.58443 0.80508 0.15818 0.0
H1989 H 0.58694 0.79629 0.17485 0.0
H1990 H 0.60903 0.78336 0.16796 0.0
H1991 H 0.60694 0.7648 0.15005 0.0
H1992 H 0.11672 0.61372 0.19913 0.0
H1993 H 0.1346 0.61579 0.18044 0.0
H1994 H 0.16764 0.60963 0.2113 0.0
H1995 H 0.1499 0.6074 0.22997 0.0
H1996 H 0.1589 0.63438 0.17758 0.0
H1997 H 0.17353 0.57766 0.18191 0.0
H1998 H 0.15748 0.58471 0.18945 0.0
H1999 H 0.17413 0.58723 0.19832 0.0
C2000 C 0.1278 0.61291 0.20193 0.0
C2001 C 0.13193 0.61026 0.21597 0.0
C2002 C 0.13798 0.61412 0.19126 0.0
C2003 C 0.15239 0.61264 0.1945 0.0
C2004 C 0.15654 0.61056 0.20858 0.0
H2005 H 0.23072 0.6071 0.14865 0.0
H2006 H 0.21209 0.60944 0.16642 0.0
C2007 C 0.1464 0.60933 0.21923 0.0
C2008 C 0.1631 0.6127 0.18312 0.0
H2009 H 0.18816 0.59203 0.16748 0.0
C2010 C 0.16526 0.62512 0.17529 0.0
C2011 C 0.17129 0.60056 0.18015 0.0
C2012 C 0.16895 0.58673 0.18779 0.0
C2013 C 0.17578 0.62585 0.16481 0.0
C2014 C 0.18413 0.61377 0.16203 0.0
C2015 C 0.18179 0.6013 0.16972 0.0
C2016 C 0.19548 0.61374 0.15127 0.0
C2017 C 0.17813 0.63961 0.15707 0.0
C2018 C 0.1923 0.61548 0.13687 0.0
C2019 C 0.20294 0.61416 0.12668 0.0
C2020 C 0.21688 0.61098 0.13075 0.0
C2021 C 0.22007 0.60954 0.1452 0.0
C2022 C 0.20945 0.61087 0.15536 0.0
H2023 H 0.17317 0.64868 0.16266 0.0
H2024 H 0.1896 0.64179 0.15577 0.0
H2025 H 0.17334 0.63886 0.14637 0.0
H2026 H 0.18153 0.61742 0.13349 0.0
H2027 H 0.20017 0.61527 0.11561 0.0
H2028 H 0.39149 0.22877 0.1497 0.0
H2029 H 0.38806 0.20962 0.16674 0.0
H2030 H 0.37183 0.18277 0.13354 0.0
H2031 H 0.37541 0.20186 0.11635 0.0
H2032 H 0.36333 0.19403 0.17419 0.0
H2033 H 0.40504 0.16006 0.1503 0.0
H2034 H 0.40329 0.17859 0.14604 0.0
H2035 H 0.39128 0.16588 0.13855 0.0
C2036 C 0.38713 0.21882 0.14603 0.0
C2037 C 0.38383 0.21675 0.13168 0.0
C2038 C 0.38515 0.20791 0.15578 0.0
C2039 C 0.37988 0.19475 0.15134 0.0
C2040 C 0.37613 0.19279 0.13711 0.0
H2041 H 0.3766 0.11652 0.20084 0.0
H2042 H 0.37269 0.13392 0.18201 0.0
C2043 C 0.37813 0.2037 0.12733 0.0
C2044 C 0.37878 0.18301 0.16162 0.0
H2045 H 0.39332 0.15118 0.17034 0.0
C2046 C 0.3698 0.1846 0.17332 0.0
C2047 C 0.3872 0.17073 0.16038 0.0
C2048 C 0.39734 0.16868 0.14821 0.0
C2049 C 0.36918 0.1743 0.18398 0.0
C2050 C 0.37797 0.16225 0.18299 0.0
C2051 C 0.38659 0.16044 0.17105 0.0
C2052 C 0.37918 0.1519 0.19465 0.0
C2053 C 0.35918 0.17643 0.19623 0.0
C2054 C 0.38417 0.15626 0.20794 0.0
C2055 C 0.38642 0.14639 0.21867 0.0
C2056 C 0.38382 0.13195 0.21626 0.0
C2057 C 0.37867 0.12759 0.20299 0.0
C2058 C 0.37642 0.1375 0.19225 0.0
H2059 H 0.35031 0.18356 0.19333 0.0
H2060 H 0.35475 0.1662 0.19994 0.0
H2061 H 0.36502 0.18139 0.20515 0.0
H2062 H 0.38668 0.16728 0.2099 0.0
H2063 H 0.39045 0.15004 0.22876 0.0
H2064 H 0.87962 0.79478 0.62293 0.0
H2065 H 0.86209 0.81341 0.62699 0.0
H2066 H 0.82947 0.78653 0.60961 0.0
H2067 H 0.84686 0.76786 0.60562 0.0
H2068 H 0.84602 0.82603 0.60561 0.0
H2069 H 0.81132 0.80156 0.64605 0.0
H2070 H 0.82896 0.7952 0.64238 0.0
H2071 H 0.81444 0.79032 0.63105 0.0
C2072 C 0.86867 0.79278 0.62016 0.0
C2073 C 0.86459 0.77989 0.61395 0.0
C2074 C 0.85869 0.80342 0.62249 0.0
C2075 C 0.84447 0.80125 0.61879 0.0
C2076 C 0.84034 0.78829 0.61283 0.0
H2077 H 0.76833 0.84674 0.60493 0.0
H2078 H 0.78723 0.82956 0.60875 0.0
C2079 C 0.8503 0.77768 0.61046 0.0
C2080 C 0.83414 0.81292 0.61996 0.0
H2081 H 0.80174 0.82134 0.63341 0.0
C2082 C 0.83644 0.82514 0.61187 0.0
C2083 C 0.82167 0.81166 0.62812 0.0
C2084 C 0.81899 0.79903 0.6375 0.0
C2085 C 0.82624 0.83587 0.61113 0.0
C2086 C 0.81355 0.8344 0.61894 0.0
C2087 C 0.81147 0.8224 0.62742 0.0
C2088 C 0.80192 0.84475 0.61764 0.0
C2089 C 0.82883 0.84832 0.60147 0.0
C2090 C 0.80383 0.85892 0.62165 0.0
C2091 C 0.79308 0.86879 0.6194 0.0
C2092 C 0.78021 0.86459 0.61321 0.0
C2093 C 0.77815 0.8503 0.60967 0.0
C2094 C 0.78892 0.84046 0.61188 0.0
H2095 H 0.83769 0.84636 0.59401 0.0
H2096 H 0.81919 0.85083 0.59525 0.0
H2097 H 0.83157 0.85774 0.60794 0.0
H2098 H 0.81371 0.86238 0.62636 0.0
H2099 H 0.7949 0.87973 0.62233 0.0
H2100 H 0.88043 0.20165 0.37652 0.0
H2101 H 0.86276 0.183 0.37273 0.0
H2102 H 0.83019 0.21054 0.38885 0.0
H2103 H 0.8477 0.22924 0.3925 0.0
H2104 H 0.84624 0.1707 0.39354 0.0
H2105 H 0.81235 0.19529 0.35259 0.0
H2106 H 0.82991 0.2017 0.35663 0.0
H2107 H 0.81516 0.20655 0.36763 0.0
C2108 C 0.86947 0.20377 0.3791 0.0
C2109 C 0.86542 0.21689 0.38479 0.0
C2110 C 0.85941 0.19313 0.37691 0.0
C2111 C 0.84515 0.19549 0.38029 0.0
C2112 C 0.84108 0.20863 0.38585 0.0
H2113 H 0.76853 0.1499 0.39338 0.0
H2114 H 0.78759 0.16714 0.39013 0.0
C2115 C 0.85111 0.21926 0.38803 0.0
C2116 C 0.83466 0.18391 0.37907 0.0
H2117 H 0.80231 0.17567 0.36523 0.0
C2118 C 0.83674 0.17166 0.38718 0.0
C2119 C 0.82229 0.18523 0.37076 0.0
C2120 C 0.81984 0.19785 0.3613 0.0
C2121 C 0.82644 0.16097 0.38774 0.0
C2122 C 0.81386 0.16252 0.37979 0.0
C2123 C 0.81197 0.17456 0.37133 0.0
C2124 C 0.80216 0.15216 0.38084 0.0
C2125 C 0.82882 0.14843 0.39733 0.0
C2126 C 0.80399 0.13811 0.37642 0.0
C2127 C 0.79314 0.12822 0.37831 0.0
C2128 C 0.78028 0.13227 0.38458 0.0
C2129 C 0.77834 0.14646 0.38857 0.0
C2130 C 0.78919 0.15632 0.3867 0.0
H2131 H 0.8377 0.15024 0.40483 0.0
H2132 H 0.81912 0.146 0.4035 0.0
H2133 H 0.83139 0.13902 0.39081 0.0
H2134 H 0.81386 0.13477 0.37167 0.0
H2135 H 0.79488 0.11737 0.37505 0.0
H2136 H 0.79654 0.87934 0.37982 0.0
H2137 H 0.81516 0.86161 0.37672 0.0
H2138 H 0.78597 0.82875 0.38918 0.0
H2139 H 0.7673 0.84635 0.39214 0.0
H2140 H 0.82545 0.84399 0.39787 0.0
H2141 H 0.80386 0.81241 0.35337 0.0
H2142 H 0.79744 0.82987 0.35767 0.0
H2143 H 0.79151 0.81475 0.3676 0.0
C2144 C 0.79406 0.86831 0.38173 0.0
C2145 C 0.78048 0.86421 0.38621 0.0
C2146 C 0.80469 0.85821 0.37995 0.0
C2147 C 0.80187 0.84386 0.38252 0.0
C2148 C 0.78827 0.83973 0.38683 0.0
H2149 H 0.8468 0.76634 0.39383 0.0
H2150 H 0.82961 0.78543 0.39091 0.0
C2151 C 0.77765 0.84981 0.38861 0.0
C2152 C 0.81337 0.8333 0.38175 0.0
H2153 H 0.82259 0.80181 0.36671 0.0
C2154 C 0.82495 0.83486 0.39092 0.0
C2155 C 0.81263 0.82142 0.37269 0.0
C2156 C 0.80076 0.81955 0.36217 0.0
C2157 C 0.83555 0.82453 0.39169 0.0
C2158 C 0.83463 0.81247 0.38288 0.0
C2159 C 0.82323 0.81108 0.37346 0.0
C2160 C 0.84502 0.80084 0.38383 0.0
C2161 C 0.84733 0.82633 0.40234 0.0
C2162 C 0.85932 0.80314 0.38055 0.0
C2163 C 0.86917 0.79228 0.38226 0.0
C2164 C 0.86485 0.77892 0.38719 0.0
C2165 C 0.85045 0.77654 0.39006 0.0
C2166 C 0.84062 0.78741 0.38837 0.0
H2167 H 0.84486 0.83461 0.41031 0.0
H2168 H 0.84943 0.81623 0.40795 0.0
H2169 H 0.85716 0.82951 0.39676 0.0
H2170 H 0.86286 0.81338 0.37681 0.0
H2171 H 0.88019 0.79438 0.37988 0.0
H2172 H 0.14994 0.76726 0.39115 0.0
H2173 H 0.16697 0.78656 0.38819 0.0
H2174 H 0.13303 0.81493 0.37718 0.0
H2175 H 0.11587 0.7957 0.3803 0.0
H2176 H 0.17257 0.80394 0.36428 0.0
H2177 H 0.15308 0.83485 0.41045 0.0
H2178 H 0.14831 0.81656 0.40763 0.0
H2179 H 0.14003 0.83024 0.39739 0.0
C2180 C 0.1461 0.7776 0.38807 0.0
C2181 C 0.13158 0.78002 0.38606 0.0
C2182 C 0.15584 0.78859 0.38635 0.0
C2183 C 0.15122 0.80218 0.38265 0.0
C2184 C 0.13676 0.80456 0.38027 0.0
H2185 H 0.20102 0.88032 0.38024 0.0
H2186 H 0.18181 0.86316 0.37695 0.0
C2187 C 0.127 0.79356 0.382 0.0
C2188 C 0.16159 0.81387 0.38159 0.0
H2189 H 0.17203 0.84456 0.39755 0.0
C2190 C 0.17242 0.81287 0.37149 0.0
C2191 C 0.1613 0.82552 0.39098 0.0
C2192 C 0.15014 0.82688 0.40231 0.0
C2193 C 0.18312 0.82316 0.37065 0.0
C2194 C 0.18307 0.83457 0.38033 0.0
C2195 C 0.17201 0.83579 0.39014 0.0
C2196 C 0.19487 0.84485 0.38112 0.0
C2197 C 0.19438 0.8217 0.35944 0.0
C2198 C 0.20854 0.84022 0.38457 0.0
C2199 C 0.21949 0.84997 0.38647 0.0
C2200 C 0.21694 0.86453 0.38504 0.0
C2201 C 0.20329 0.86915 0.38138 0.0
C2202 C 0.19232 0.85938 0.3795 0.0
H2203 H 0.19065 0.81513 0.35042 0.0
H2204 H 0.1977 0.83221 0.35535 0.0
H2205 H 0.20378 0.81645 0.36409 0.0
H2206 H 0.21065 0.82907 0.38619 0.0
H2207 H 0.22988 0.8461 0.38934 0.0
H2208 H 0.22968 0.14956 0.39032 0.0
H2209 H 0.21043 0.16649 0.38714 0.0
H2210 H 0.18228 0.1325 0.37529 0.0
H2211 H 0.20148 0.11543 0.3786 0.0
H2212 H 0.19305 0.17227 0.36306 0.0
H2213 H 0.16228 0.15186 0.40898 0.0
H2214 H 0.18062 0.14738 0.40615 0.0
H2215 H 0.16705 0.13906 0.39575 0.0
C2216 C 0.21941 0.14569 0.38697 0.0
C2217 C 0.21704 0.13117 0.38482 0.0
C2218 C 0.20845 0.15537 0.38513 0.0
C2219 C 0.19492 0.1507 0.38116 0.0
C2220 C 0.19261 0.13627 0.37857 0.0
H2221 H 0.11675 0.20011 0.37982 0.0
H2222 H 0.13389 0.18103 0.37615 0.0
C2223 C 0.20359 0.12655 0.38041 0.0
C2224 C 0.1832 0.16098 0.38023 0.0
H2225 H 0.15259 0.17102 0.39647 0.0
C2226 C 0.18414 0.17196 0.37029 0.0
C2227 C 0.17159 0.16049 0.38966 0.0
C2228 C 0.1703 0.14914 0.40082 0.0
C2229 C 0.17385 0.18262 0.36966 0.0
C2230 C 0.16249 0.18237 0.37939 0.0
C2231 C 0.16132 0.17115 0.38903 0.0
C2232 C 0.15223 0.19411 0.38043 0.0
C2233 C 0.17524 0.19406 0.35861 0.0
C2234 C 0.15689 0.20773 0.38407 0.0
C2235 C 0.14715 0.21861 0.38619 0.0
C2236 C 0.13258 0.21602 0.38478 0.0
C2237 C 0.12793 0.20241 0.38095 0.0
C2238 C 0.13769 0.19152 0.37885 0.0
H2239 H 0.18176 0.19049 0.34951 0.0
H2240 H 0.16471 0.1974 0.35464 0.0
H2241 H 0.18053 0.2034 0.36339 0.0
H2242 H 0.16804 0.20987 0.38566 0.0
H2243 H 0.15104 0.22898 0.38919 0.0
H2244 H 0.23116 0.1492 0.61395 0.0
H2245 H 0.21239 0.16673 0.61667 0.0
H2246 H 0.181 0.13358 0.61488 0.0
H2247 H 0.19976 0.11591 0.61233 0.0
H2248 H 0.19149 0.17062 0.59606 0.0
H2249 H 0.16771 0.15815 0.64837 0.0
H2250 H 0.18508 0.15206 0.64325 0.0
H2251 H 0.16954 0.14338 0.63652 0.0
C2252 C 0.22027 0.14561 0.61437 0.0
C2253 C 0.2169 0.1312 0.61288 0.0
C2254 C 0.20958 0.15563 0.61593 0.0
C2255 C 0.19534 0.15143 0.61609 0.0
C2256 C 0.19194 0.137 0.61505 0.0
H2257 H 0.11674 0.1986 0.61062 0.0
H2258 H 0.13466 0.18007 0.61324 0.0
C2259 C 0.20266 0.12694 0.61351 0.0
C2260 C 0.1841 0.16228 0.61592 0.0
H2261 H 0.15568 0.17501 0.63417 0.0
C2262 C 0.1837 0.17164 0.60443 0.0
C2263 C 0.1739 0.16343 0.62679 0.0
C2264 C 0.17408 0.15381 0.63951 0.0
C2265 C 0.17331 0.18212 0.60343 0.0
C2266 C 0.16322 0.18345 0.61439 0.0
C2267 C 0.1635 0.17399 0.62584 0.0
C2268 C 0.15233 0.19464 0.61406 0.0
C2269 C 0.17306 0.1915 0.59051 0.0
C2270 C 0.15635 0.20894 0.61405 0.0
C2271 C 0.14618 0.2195 0.61246 0.0
C2272 C 0.13182 0.21594 0.61101 0.0
C2273 C 0.12775 0.20164 0.61166 0.0
C2274 C 0.13795 0.19106 0.61318 0.0
H2275 H 0.17902 0.18677 0.58156 0.0
H2276 H 0.16204 0.19354 0.587 0.0
H2277 H 0.17806 0.20181 0.59313 0.0
H2278 H 0.16738 0.2119 0.615 0.0
H2279 H 0.14961 0.23044 0.61214 0.0
H2280 H 0.79474 0.11735 0.6185 0.0
H2281 H 0.81348 0.13495 0.62209 0.0
H2282 H 0.78501 0.16803 0.60892 0.0
H2283 H 0.76621 0.15057 0.60544 0.0
H2284 H 0.82437 0.15238 0.60104 0.0
H2285 H 0.80251 0.18433 0.64506 0.0
H2286 H 0.79594 0.16689 0.64072 0.0
H2287 H 0.79036 0.18201 0.63063 0.0
C2288 C 0.79243 0.1284 0.61655 0.0
C2289 C 0.77903 0.13261 0.61169 0.0
C2290 C 0.80313 0.13842 0.61861 0.0
C2291 C 0.80056 0.15279 0.61596 0.0
C2292 C 0.78712 0.15703 0.61132 0.0
H2293 H 0.84651 0.22979 0.60469 0.0
H2294 H 0.82906 0.21089 0.60778 0.0
C2295 C 0.77643 0.14703 0.60924 0.0
C2296 C 0.8122 0.16323 0.61692 0.0
H2297 H 0.82159 0.19471 0.63199 0.0
C2298 C 0.82389 0.16154 0.60795 0.0
C2299 C 0.81147 0.17515 0.62593 0.0
C2300 C 0.79946 0.17717 0.63623 0.0
C2301 C 0.83463 0.17178 0.6073 0.0
C2302 C 0.83373 0.18389 0.61604 0.0
C2303 C 0.82222 0.18541 0.62529 0.0
C2304 C 0.84424 0.19545 0.61515 0.0
C2305 C 0.84652 0.16985 0.59682 0.0
C2306 C 0.85849 0.19308 0.61856 0.0
C2307 C 0.86849 0.20383 0.61675 0.0
C2308 C 0.86436 0.21714 0.61158 0.0
C2309 C 0.85001 0.21962 0.60863 0.0
C2310 C 0.84003 0.20886 0.61042 0.0
H2311 H 0.84406 0.16154 0.58885 0.0
H2312 H 0.8488 0.17991 0.59118 0.0
H2313 H 0.85624 0.16664 0.60255 0.0
H2314 H 0.86189 0.18286 0.62245 0.0
H2315 H 0.87947 0.20166 0.6192 0.0
H2316 H 0.19858 0.88154 0.61673 0.0
H2317 H 0.17941 0.86455 0.62085 0.0
H2318 H 0.2079 0.83013 0.61176 0.0
H2319 H 0.22712 0.847 0.60781 0.0
H2320 H 0.16895 0.84577 0.60115 0.0
H2321 H 0.18875 0.81682 0.64802 0.0
H2322 H 0.19588 0.83372 0.64261 0.0
H2323 H 0.20154 0.81771 0.63402 0.0
C2324 C 0.20079 0.87034 0.61579 0.0
C2325 C 0.21434 0.86558 0.61196 0.0
C2326 C 0.18984 0.86066 0.61816 0.0
C2327 C 0.1923 0.84609 0.61684 0.0
C2328 C 0.20587 0.84132 0.61317 0.0
H2329 H 0.14851 0.76872 0.60596 0.0
H2330 H 0.16509 0.7882 0.6099 0.0
C2331 C 0.21681 0.85097 0.61081 0.0
C2332 C 0.18048 0.83588 0.6181 0.0
H2333 H 0.17054 0.80525 0.63446 0.0
C2334 C 0.16914 0.83704 0.6086 0.0
C2335 C 0.1808 0.82454 0.62785 0.0
C2336 C 0.19233 0.82318 0.6388 0.0
C2337 C 0.15847 0.82673 0.60805 0.0
C2338 C 0.15909 0.81508 0.61742 0.0
C2339 C 0.17014 0.8142 0.62729 0.0
C2340 C 0.14902 0.80315 0.61629 0.0
C2341 C 0.14701 0.82799 0.59699 0.0
C2342 C 0.13454 0.80506 0.6189 0.0
C2343 C 0.12501 0.79395 0.61663 0.0
C2344 C 0.12987 0.78077 0.61175 0.0
C2345 C 0.14445 0.77877 0.60966 0.0
C2346 C 0.15394 0.78986 0.61194 0.0
H2347 H 0.14949 0.83623 0.58898 0.0
H2348 H 0.14542 0.81773 0.59146 0.0
H2349 H 0.1369 0.83087 0.60219 0.0
H2350 H 0.13059 0.81521 0.62246 0.0
H2351 H 0.11384 0.79575 0.6184 0.0
H2352 H 0.09832 0.23003 0.4421 0.0
H2353 H 0.10068 0.23144 0.46782 0.0
H2354 H 0.12216 0.27155 0.46382 0.0
H2355 H 0.1197 0.27029 0.43802 0.0
H2356 H 0.12571 0.23393 0.48428 0.0
H2357 H 0.08961 0.2798 0.49168 0.0
H2358 H 0.0901 0.26969 0.47548 0.0
H2359 H 0.10385 0.28226 0.47932 0.0
C2360 C 0.10354 0.23916 0.44668 0.0
C2361 C 0.10876 0.25009 0.43807 0.0
C2362 C 0.1049 0.23993 0.46137 0.0
C2363 C 0.11144 0.25167 0.4677 0.0
C2364 C 0.11687 0.26252 0.45913 0.0
H2365 H 0.11876 0.27006 0.5584 0.0
H2366 H 0.1217 0.27123 0.53263 0.0
C2367 C 0.11551 0.26175 0.44441 0.0
C2368 C 0.11251 0.25244 0.48329 0.0
H2369 H 0.10018 0.27032 0.51213 0.0
C2370 C 0.1202 0.24193 0.49038 0.0
C2371 C 0.10538 0.26295 0.49118 0.0
C2372 C 0.09667 0.27428 0.48409 0.0
C2373 C 0.12077 0.2415 0.5052 0.0
C2374 C 0.11324 0.25171 0.5131 0.0
C2375 C 0.10593 0.26251 0.50602 0.0
C2376 C 0.11202 0.25084 0.52868 0.0
C2377 C 0.12939 0.2301 0.51227 0.0
C2378 C 0.10549 0.23906 0.53493 0.0
C2379 C 0.10378 0.23837 0.54957 0.0
C2380 C 0.10851 0.2495 0.55824 0.0
C2381 C 0.11505 0.26132 0.55198 0.0
C2382 C 0.11673 0.262 0.53729 0.0
H2383 H 0.13772 0.22593 0.5051 0.0
H2384 H 0.1345 0.2341 0.52207 0.0
H2385 H 0.12233 0.22116 0.51517 0.0
H2386 H 0.1015 0.23048 0.52844 0.0
H2387 H 0.09865 0.22917 0.55409 0.0
H2388 H 0.72468 0.11303 0.55715 0.0
H2389 H 0.72356 0.11331 0.53122 0.0
H2390 H 0.76689 0.09926 0.52917 0.0
H2391 H 0.76806 0.0988 0.55499 0.0
H2392 H 0.74066 0.1283 0.51149 0.0
H2393 H 0.74538 0.07016 0.50492 0.0
H2394 H 0.74104 0.07831 0.52164 0.0
H2395 H 0.75908 0.07788 0.51561 0.0
C2396 C 0.73396 0.11001 0.55116 0.0
C2397 C 0.74642 0.10579 0.55808 0.0
C2398 C 0.7333 0.11019 0.53637 0.0
C2399 C 0.74507 0.10608 0.52832 0.0
C2400 C 0.75761 0.10219 0.53521 0.0
H2401 H 0.76822 0.09795 0.44092 0.0
H2402 H 0.76688 0.099 0.46673 0.0
C2403 C 0.75828 0.102 0.54996 0.0
C2404 C 0.74432 0.10587 0.51269 0.0
H2405 H 0.74799 0.0841 0.48413 0.0
C2406 C 0.74213 0.11864 0.50547 0.0
C2407 C 0.7462 0.09322 0.50493 0.0
C2408 C 0.74793 0.07908 0.51215 0.0
C2409 C 0.74229 0.11918 0.49062 0.0
C2410 C 0.74448 0.10657 0.48288 0.0
C2411 C 0.74638 0.09376 0.49012 0.0
C2412 C 0.74524 0.10642 0.46724 0.0
C2413 C 0.74058 0.13329 0.48336 0.0
C2414 C 0.73348 0.11018 0.45901 0.0
C2415 C 0.73423 0.10962 0.44424 0.0
C2416 C 0.74672 0.1052 0.43751 0.0
C2417 C 0.75846 0.10142 0.4458 0.0
C2418 C 0.75771 0.102 0.46054 0.0
H2419 H 0.74221 0.14227 0.49078 0.0
H2420 H 0.74816 0.13435 0.47445 0.0
H2421 H 0.72971 0.13407 0.479 0.0
H2422 H 0.72368 0.11337 0.464 0.0
H2423 H 0.725 0.11253 0.43811 0.0
H2424 H 0.89931 0.76563 0.4429 0.0
H2425 H 0.89753 0.76427 0.46867 0.0
H2426 H 0.87974 0.72234 0.46535 0.0
H2427 H 0.88156 0.72357 0.43949 0.0
H2428 H 0.87244 0.75931 0.48528 0.0
H2429 H 0.91367 0.71803 0.49308 0.0
H2430 H 0.91218 0.72806 0.47689 0.0
H2431 H 0.89987 0.71405 0.48057 0.0
C2432 C 0.89503 0.7561 0.44765 0.0
C2433 C 0.89063 0.74468 0.4392 0.0
C2434 C 0.89401 0.75536 0.46235 0.0
C2435 C 0.88865 0.74316 0.46888 0.0
C2436 C 0.8841 0.73177 0.46049 0.0
H2437 H 0.88324 0.72459 0.55948 0.0
H2438 H 0.88108 0.72298 0.53367 0.0
C2439 C 0.88509 0.73251 0.44575 0.0
C2440 C 0.88778 0.74252 0.48448 0.0
H2441 H 0.90222 0.7266 0.51347 0.0
C2442 C 0.87889 0.75212 0.49146 0.0
C2443 C 0.89615 0.73305 0.49246 0.0
C2444 C 0.9061 0.72275 0.48543 0.0
C2445 C 0.87826 0.75262 0.50627 0.0
C2446 C 0.88699 0.74348 0.51427 0.0
C2447 C 0.89557 0.7336 0.50729 0.0
C2448 C 0.88791 0.74452 0.52987 0.0
C2449 C 0.86825 0.76292 0.51322 0.0
C2450 C 0.89262 0.75709 0.53623 0.0
C2451 C 0.89384 0.75804 0.55091 0.0
C2452 C 0.89048 0.74638 0.5595 0.0
C2453 C 0.88586 0.73375 0.55312 0.0
C2454 C 0.88463 0.73282 0.5384 0.0
H2455 H 0.85949 0.76593 0.50599 0.0
H2456 H 0.86366 0.75841 0.52305 0.0
H2457 H 0.87413 0.7727 0.51604 0.0
H2458 H 0.89552 0.76614 0.52981 0.0
H2459 H 0.89752 0.76788 0.55552 0.0
H2460 H 0.27124 0.87809 0.43858 0.0
H2461 H 0.27202 0.87534 0.46438 0.0
H2462 H 0.2309 0.89475 0.46772 0.0
H2463 H 0.22997 0.89739 0.44203 0.0
H2464 H 0.27045 0.89681 0.48482 0.0
H2465 H 0.22641 0.85851 0.49103 0.0
H2466 H 0.23483 0.86188 0.47421 0.0
H2467 H 0.22162 0.87382 0.48089 0.0
C2468 C 0.26233 0.88167 0.44482 0.0
C2469 C 0.25052 0.88791 0.4383 0.0
C2470 C 0.2628 0.8801 0.45953 0.0
C2471 C 0.25142 0.88462 0.46791 0.0
C2472 C 0.23965 0.89089 0.46141 0.0
H2473 H 0.22905 0.8983 0.55403 0.0
H2474 H 0.2309 0.89579 0.52836 0.0
C2475 C 0.23918 0.89248 0.44674 0.0
C2476 C 0.25202 0.88344 0.48351 0.0
H2477 H 0.2339 0.87064 0.512 0.0
C2478 C 0.2626 0.89092 0.49079 0.0
C2479 C 0.24177 0.87573 0.49122 0.0
C2480 C 0.2306 0.86691 0.48394 0.0
C2481 C 0.26279 0.89146 0.50563 0.0
C2482 C 0.25224 0.88414 0.51333 0.0
C2483 C 0.24194 0.87628 0.50605 0.0
C2484 C 0.25117 0.88521 0.52891 0.0
C2485 C 0.27389 0.90034 0.51295 0.0
C2486 C 0.26188 0.87991 0.5377 0.0
C2487 C 0.26086 0.88134 0.5524 0.0
C2488 C 0.24908 0.88805 0.55849 0.0
C2489 C 0.23827 0.89311 0.54964 0.0
C2490 C 0.2393 0.89167 0.53499 0.0
H2491 H 0.27952 0.90744 0.50546 0.0
H2492 H 0.26905 0.90688 0.52142 0.0
H2493 H 0.28182 0.89329 0.51794 0.0
H2494 H 0.27103 0.87469 0.5332 0.0
H2495 H 0.26932 0.87728 0.55897 0.0
H2496 H 0.10241 0.71967 0.55736 0.0
H2497 H 0.10424 0.7166 0.53165 0.0
H2498 H 0.11797 0.75995 0.52746 0.0
H2499 H 0.11624 0.76307 0.55304 0.0
H2500 H 0.08886 0.73241 0.51175 0.0
H2501 H 0.14658 0.73811 0.50307 0.0
H2502 H 0.13906 0.7342 0.52021 0.0
H2503 H 0.13918 0.75205 0.51363 0.0
C2504 C 0.10601 0.72847 0.55096 0.0
C2505 C 0.10917 0.74161 0.55718 0.0
C2506 C 0.10705 0.7267 0.5363 0.0
C2507 C 0.11141 0.73799 0.5277 0.0
C2508 C 0.11485 0.75102 0.53394 0.0
H2509 H 0.09368 0.76094 0.44246 0.0
H2510 H 0.09535 0.75779 0.46809 0.0
C2511 C 0.11377 0.75281 0.54855 0.0
C2512 C 0.11126 0.73663 0.51211 0.0
H2513 H 0.13172 0.74113 0.48269 0.0
C2514 C 0.09826 0.73411 0.50539 0.0
C2515 C 0.12357 0.73873 0.50386 0.0
C2516 C 0.13792 0.74079 0.51055 0.0
C2517 C 0.09711 0.73429 0.4906 0.0
C2518 C 0.10926 0.73721 0.48238 0.0
C2519 C 0.1224 0.73905 0.48906 0.0
C2520 C 0.10839 0.73904 0.46688 0.0
C2521 C 0.08288 0.73154 0.48389 0.0
C2522 C 0.11543 0.7297 0.45777 0.0
C2523 C 0.1145 0.73148 0.44311 0.0
C2524 C 0.10663 0.74271 0.43738 0.0
C2525 C 0.09978 0.75216 0.44657 0.0
C2526 C 0.10066 0.75034 0.46119 0.0
H2527 H 0.07562 0.72592 0.49123 0.0
H2528 H 0.07795 0.7418 0.48103 0.0
H2529 H 0.08401 0.72518 0.47407 0.0
H2530 H 0.12152 0.72098 0.462 0.0
H2531 H 0.11992 0.72406 0.43627 0.0
H2532 H 0.27434 0.11067 0.43827 0.0
H2533 H 0.27593 0.11146 0.46417 0.0
H2534 H 0.23108 0.10349 0.46715 0.0
H2535 H 0.22944 0.10245 0.44138 0.0
H2536 H 0.26199 0.1288 0.48393 0.0
H2537 H 0.24826 0.07226 0.49163 0.0
H2538 H 0.25327 0.07939 0.47464 0.0
H2539 H 0.23554 0.08166 0.48115 0.0
C2540 C 0.26483 0.1091 0.44447 0.0
C2541 C 0.25179 0.10637 0.43784 0.0
C2542 C 0.26575 0.10956 0.45923 0.0
C2543 C 0.25367 0.10727 0.46755 0.0
C2544 C 0.24058 0.10496 0.46092 0.0
H2545 H 0.22937 0.10527 0.55459 0.0
H2546 H 0.23115 0.10625 0.52882 0.0
C2547 C 0.23965 0.10445 0.4462 0.0
C2548 C 0.25465 0.10723 0.48317 0.0
H2549 H 0.24766 0.08691 0.51217 0.0
C2550 C 0.25901 0.11961 0.49014 0.0
C2551 C 0.25084 0.09518 0.49119 0.0
C2552 C 0.24685 0.08132 0.48428 0.0
C2553 C 0.25908 0.12045 0.50498 0.0
C2554 C 0.25481 0.10854 0.51295 0.0
C2555 C 0.25082 0.09605 0.50598 0.0
C2556 C 0.25389 0.10888 0.52856 0.0
C2557 C 0.26323 0.13417 0.51202 0.0
C2558 C 0.26612 0.11007 0.5369 0.0
C2559 C 0.26514 0.1095 0.55166 0.0
C2560 C 0.25192 0.10768 0.55824 0.0
C2561 C 0.2397 0.10669 0.54983 0.0
C2562 C 0.24069 0.10724 0.53512 0.0
H2563 H 0.26376 0.14308 0.50437 0.0
H2564 H 0.25561 0.1369 0.52052 0.0
H2565 H 0.27382 0.13296 0.51695 0.0
H2566 H 0.27642 0.11113 0.532 0.0
H2567 H 0.27474 0.11024 0.55789 0.0
H2568 H 0.88381 0.27119 0.55759 0.0
H2569 H 0.88332 0.27214 0.53169 0.0
H2570 H 0.8988 0.22928 0.52975 0.0
H2571 H 0.89948 0.22831 0.5556 0.0
H2572 H 0.91357 0.24847 0.5124 0.0
H2573 H 0.85539 0.25242 0.50462 0.0
H2574 H 0.86297 0.26524 0.51648 0.0
H2575 H 0.86318 0.24682 0.52113 0.0
C2576 C 0.88702 0.26195 0.55164 0.0
C2577 C 0.89166 0.24967 0.5586 0.0
C2578 C 0.88667 0.26248 0.53686 0.0
C2579 C 0.89086 0.25072 0.52884 0.0
C2580 C 0.89547 0.23845 0.53577 0.0
H2581 H 0.90076 0.22823 0.44104 0.0
H2582 H 0.90005 0.22925 0.46687 0.0
C2583 C 0.89583 0.23791 0.55053 0.0
C2584 C 0.89099 0.25131 0.5132 0.0
H2585 H 0.8697 0.2544 0.48418 0.0
C2586 C 0.90399 0.24976 0.50622 0.0
C2587 C 0.87846 0.25308 0.50521 0.0
C2588 C 0.86417 0.25437 0.51219 0.0
C2589 C 0.90481 0.24993 0.49141 0.0
C2590 C 0.89227 0.25144 0.4834 0.0
C2591 C 0.87929 0.25322 0.49038 0.0
C2592 C 0.89238 0.25079 0.46777 0.0
C2593 C 0.91914 0.24865 0.48447 0.0
C2594 C 0.8879 0.26243 0.45973 0.0
C2595 C 0.88822 0.26185 0.44495 0.0
C2596 C 0.89294 0.24959 0.43801 0.0
C2597 C 0.89716 0.23786 0.4461 0.0
C2598 C 0.89683 0.23845 0.46085 0.0
H2599 H 0.92783 0.25146 0.49188 0.0
H2600 H 0.92075 0.23754 0.48103 0.0
H2601 H 0.91989 0.25556 0.475 0.0
H2602 H 0.88434 0.27202 0.4649 0.0
H2603 H 0.88486 0.27103 0.43898 0.0
H2604 H 0.7681 0.8988 0.44235 0.0
H2605 H 0.76658 0.89754 0.46812 0.0
H2606 H 0.72395 0.88147 0.46493 0.0
H2607 H 0.72545 0.88253 0.43905 0.0
H2608 H 0.74702 0.9117 0.48529 0.0
H2609 H 0.74324 0.85333 0.49194 0.0
H2610 H 0.74908 0.86145 0.47566 0.0
H2611 H 0.7306 0.86108 0.48004 0.0
C2612 C 0.75843 0.89491 0.44712 0.0
C2613 C 0.7469 0.89073 0.43869 0.0
C2614 C 0.75758 0.8942 0.46183 0.0
C2615 C 0.74522 0.88927 0.46841 0.0
C2616 C 0.73367 0.88507 0.46004 0.0
H2617 H 0.7254 0.88255 0.55863 0.0
H2618 H 0.72394 0.88198 0.5327 0.0
C2619 C 0.73452 0.88575 0.44528 0.0
C2620 C 0.74433 0.88911 0.48403 0.0
H2621 H 0.74142 0.86725 0.51265 0.0
C2622 C 0.74577 0.90199 0.49128 0.0
C2623 C 0.74261 0.87642 0.49178 0.0
C2624 C 0.7414 0.86225 0.48451 0.0
C2625 C 0.74566 0.90253 0.50609 0.0
C2626 C 0.74429 0.88982 0.51385 0.0
C2627 C 0.7425 0.87696 0.50663 0.0
C2628 C 0.74527 0.88965 0.52946 0.0
C2629 C 0.74695 0.91672 0.51333 0.0
C2630 C 0.75785 0.89387 0.53615 0.0
C2631 C 0.75871 0.8942 0.55088 0.0
C2632 C 0.74703 0.89025 0.55919 0.0
C2633 C 0.73455 0.88569 0.55248 0.0
C2634 C 0.7337 0.88535 0.5377 0.0
H2635 H 0.7441 0.92554 0.50611 0.0
H2636 H 0.74007 0.91723 0.52284 0.0
H2637 H 0.75806 0.91832 0.51677 0.0
H2638 H 0.76698 0.89697 0.52995 0.0
H2639 H 0.7685 0.89768 0.55575 0.0
H2640 H 0.44118 0.0999 0.22871 0.0
H2641 H 0.46696 0.10135 0.23045 0.0
H2642 H 0.46346 0.11412 0.27412 0.0
H2643 H 0.43762 0.11257 0.27251 0.0
H2644 H 0.48387 0.1251 0.23797 0.0
H2645 H 0.49079 0.0801 0.27527 0.0
H2646 H 0.4746 0.08291 0.26552 0.0
H2647 H 0.47857 0.09358 0.28075 0.0
C2648 C 0.4459 0.103 0.23869 0.0
C2649 C 0.4374 0.10606 0.25049 0.0
C2650 C 0.46061 0.10384 0.23966 0.0
C2651 C 0.46709 0.10767 0.25245 0.0
C2652 C 0.45865 0.11091 0.26422 0.0
H2653 H 0.55713 0.11253 0.27361 0.0
H2654 H 0.53125 0.11428 0.27456 0.0
C2655 C 0.44391 0.11009 0.26326 0.0
C2656 C 0.4827 0.10834 0.25336 0.0
H2657 H 0.51136 0.09265 0.26868 0.0
C2658 C 0.48989 0.11804 0.24471 0.0
C2659 C 0.49048 0.09916 0.26222 0.0
C2660 C 0.48327 0.08826 0.27141 0.0
C2661 C 0.50472 0.11874 0.24462 0.0
C2662 C 0.51251 0.10931 0.25321 0.0
C2663 C 0.50532 0.09985 0.26211 0.0
C2664 C 0.52813 0.10863 0.25259 0.0
C2665 C 0.51191 0.12957 0.23535 0.0
C2666 C 0.53488 0.10472 0.23997 0.0
C2667 C 0.54959 0.1037 0.2394 0.0
C2668 C 0.55782 0.1065 0.25147 0.0
C2669 C 0.55105 0.11036 0.26413 0.0
C2670 C 0.5363 0.11135 0.2647 0.0
H2671 H 0.50468 0.13841 0.23262 0.0
H2672 H 0.52146 0.13399 0.24061 0.0
H2673 H 0.51527 0.12445 0.22534 0.0
H2674 H 0.52874 0.10229 0.2306 0.0
H2675 H 0.55451 0.10063 0.22952 0.0
H2676 H 0.88109 0.55749 0.27129 0.0
H2677 H 0.88084 0.53157 0.27281 0.0
H2678 H 0.89825 0.52892 0.23072 0.0
H2679 H 0.89865 0.55472 0.22916 0.0
H2680 H 0.86739 0.51128 0.25475 0.0
H2681 H 0.92581 0.50553 0.25508 0.0
H2682 H 0.91712 0.52217 0.25854 0.0
H2683 H 0.91919 0.51597 0.24067 0.0
C2684 C 0.88483 0.55136 0.26236 0.0
C2685 C 0.88998 0.55811 0.25014 0.0
C2686 C 0.88468 0.53659 0.26324 0.0
C2687 C 0.88975 0.52838 0.25197 0.0
C2688 C 0.89455 0.53509 0.23964 0.0
H2689 H 0.9004 0.4411 0.23005 0.0
H2690 H 0.89901 0.46689 0.2313 0.0
C2691 C 0.89471 0.54982 0.23875 0.0
C2692 C 0.89006 0.51278 0.253 0.0
H2693 H 0.91238 0.4845 0.2515 0.0
C2694 C 0.87722 0.50539 0.25418 0.0
C2695 C 0.90291 0.50519 0.25231 0.0
C2696 C 0.91706 0.5126 0.25171 0.0
C2697 C 0.87686 0.49053 0.25413 0.0
C2698 C 0.8897 0.48296 0.25308 0.0
C2699 C 0.90255 0.49036 0.25223 0.0
C2700 C 0.89008 0.46733 0.25236 0.0
C2701 C 0.86274 0.48307 0.2547 0.0
C2702 C 0.88558 0.45907 0.26385 0.0
C2703 C 0.88636 0.44431 0.26316 0.0
C2704 C 0.89171 0.43762 0.25101 0.0
C2705 C 0.89621 0.44595 0.23954 0.0
C2706 C 0.89543 0.46067 0.24024 0.0
H2707 H 0.85382 0.49036 0.25246 0.0
H2708 H 0.86239 0.4742 0.24699 0.0
H2709 H 0.86118 0.47858 0.26543 0.0
H2710 H 0.88165 0.46403 0.27339 0.0
H2711 H 0.88287 0.43815 0.27218 0.0
H2712 H 0.55502 0.89997 0.23074 0.0
H2713 H 0.52928 0.89796 0.23215 0.0
H2714 H 0.53297 0.87709 0.27256 0.0
H2715 H 0.55881 0.87924 0.27132 0.0
H2716 H 0.51264 0.87334 0.23467 0.0
H2717 H 0.50523 0.90966 0.28044 0.0
H2718 H 0.52153 0.90892 0.27052 0.0
H2719 H 0.5174 0.89532 0.28312 0.0
C2720 C 0.55036 0.89497 0.23995 0.0
C2721 C 0.55891 0.88982 0.25096 0.0
C2722 C 0.53567 0.89381 0.24072 0.0
C2723 C 0.52924 0.88753 0.25253 0.0
C2724 C 0.53773 0.8822 0.26347 0.0
H2725 H 0.43869 0.87942 0.27084 0.0
H2726 H 0.46452 0.87713 0.27197 0.0
C2727 C 0.55247 0.88337 0.26271 0.0
C2728 C 0.51362 0.88656 0.25321 0.0
H2729 H 0.48475 0.89893 0.27101 0.0
C2730 C 0.50653 0.87887 0.24265 0.0
C2731 C 0.50572 0.89374 0.26368 0.0
C2732 C 0.5128 0.90248 0.27504 0.0
C2733 C 0.49171 0.87831 0.24217 0.0
C2734 C 0.4838 0.88585 0.25238 0.0
C2735 C 0.49088 0.89319 0.26319 0.0
C2736 C 0.4682 0.88686 0.25158 0.0
C2737 C 0.48465 0.86967 0.23073 0.0
C2738 C 0.46177 0.89323 0.23983 0.0
C2739 C 0.44708 0.89455 0.23915 0.0
C2740 C 0.43856 0.8896 0.25028 0.0
C2741 C 0.44501 0.88329 0.26209 0.0
C2742 C 0.45973 0.88198 0.26276 0.0
H2743 H 0.49186 0.86142 0.22649 0.0
H2744 H 0.4749 0.86446 0.23474 0.0
H2745 H 0.48166 0.87674 0.22186 0.0
H2746 H 0.46815 0.89735 0.23123 0.0
H2747 H 0.44242 0.89954 0.22995 0.0
H2748 H 0.11501 0.55777 0.27122 0.0
H2749 H 0.11733 0.53196 0.2725 0.0
H2750 H 0.10126 0.52831 0.22993 0.0
H2751 H 0.09906 0.55402 0.22851 0.0
H2752 H 0.09583 0.51171 0.26939 0.0
H2753 H 0.13743 0.50462 0.22871 0.0
H2754 H 0.13358 0.52158 0.23661 0.0
H2755 H 0.12264 0.51479 0.22257 0.0
C2756 C 0.11207 0.55146 0.26211 0.0
C2757 C 0.10691 0.55789 0.24974 0.0
C2758 C 0.1134 0.53674 0.26286 0.0
C2759 C 0.10969 0.52827 0.25123 0.0
C2760 C 0.10448 0.53469 0.23891 0.0
H2761 H 0.09812 0.44128 0.22962 0.0
H2762 H 0.09995 0.46706 0.23102 0.0
C2763 C 0.10315 0.54937 0.23815 0.0
C2764 C 0.11063 0.51267 0.2521 0.0
H2765 H 0.1247 0.48383 0.23559 0.0
C2766 C 0.10228 0.50559 0.26214 0.0
C2767 C 0.11908 0.50476 0.24264 0.0
C2768 C 0.1288 0.51182 0.23211 0.0
C2769 C 0.10168 0.49076 0.26255 0.0
C2770 C 0.10979 0.48286 0.25279 0.0
C2771 C 0.11845 0.48994 0.24302 0.0
C2772 C 0.10894 0.46725 0.25208 0.0
C2773 C 0.09194 0.48366 0.27303 0.0
C2774 C 0.11355 0.45886 0.26341 0.0
C2775 C 0.11251 0.44411 0.26264 0.0
C2776 C 0.10689 0.43757 0.25051 0.0
C2777 C 0.10246 0.44602 0.23912 0.0
C2778 C 0.10351 0.46074 0.23989 0.0
H2779 H 0.08436 0.49124 0.27784 0.0
H2780 H 0.08586 0.47501 0.26787 0.0
H2781 H 0.09834 0.47894 0.28166 0.0
H2782 H 0.11797 0.4637 0.27281 0.0
H2783 H 0.11607 0.43785 0.27155 0.0
H2784 H 0.44223 0.90775 0.75987 0.0
H2785 H 0.4679 0.90555 0.7574 0.0
H2786 H 0.46214 0.87409 0.72484 0.0
H2787 H 0.43637 0.87628 0.72718 0.0
H2788 H 0.48223 0.8673 0.74815 0.0
H2789 H 0.49198 0.91924 0.72235 0.0
H2790 H 0.48091 0.91973 0.73781 0.0
H2791 H 0.47487 0.91066 0.72223 0.0
C2792 C 0.44642 0.9004 0.75215 0.0
C2793 C 0.43732 0.89221 0.74368 0.0
C2794 C 0.46107 0.8992 0.75072 0.0
C2795 C 0.46685 0.88977 0.74085 0.0
C2796 C 0.45782 0.88148 0.73246 0.0
H2797 H 0.55727 0.88758 0.72079 0.0
H2798 H 0.53143 0.88641 0.71856 0.0
C2799 C 0.44314 0.88275 0.7338 0.0
C2800 C 0.48236 0.8884 0.73959 0.0
H2801 H 0.51215 0.90698 0.73105 0.0
C2802 C 0.48879 0.87589 0.74428 0.0
C2803 C 0.49082 0.8996 0.7344 0.0
C2804 C 0.48433 0.91304 0.72879 0.0
C2805 C 0.50358 0.87452 0.74445 0.0
C2806 C 0.51205 0.88597 0.73986 0.0
C2807 C 0.50559 0.89825 0.73463 0.0
C2808 C 0.52763 0.88575 0.74112 0.0
C2809 C 0.51005 0.86091 0.74966 0.0
C2810 C 0.53396 0.88581 0.75454 0.0
C2811 C 0.54866 0.88658 0.75584 0.0
C2812 C 0.55726 0.88728 0.74374 0.0
C2813 C 0.5509 0.887 0.73029 0.0
C2814 C 0.53617 0.88634 0.729 0.0
H2815 H 0.50229 0.85206 0.74955 0.0
H2816 H 0.51932 0.85793 0.7431 0.0
H2817 H 0.51375 0.8624 0.76071 0.0
H2818 H 0.52752 0.88557 0.76401 0.0
H2819 H 0.55327 0.8868 0.76634 0.0
H2820 H 0.11735 0.43769 0.72452 0.0
H2821 H 0.11995 0.46349 0.72301 0.0
H2822 H 0.09893 0.46795 0.76326 0.0
H2823 H 0.09639 0.44228 0.76489 0.0
H2824 H 0.09809 0.48403 0.72351 0.0
H2825 H 0.13546 0.49122 0.76818 0.0
H2826 H 0.13236 0.47426 0.75992 0.0
H2827 H 0.12004 0.48106 0.77272 0.0
C2828 C 0.11335 0.44419 0.73306 0.0
C2829 C 0.10672 0.43799 0.74485 0.0
C2830 C 0.11484 0.45889 0.73219 0.0
C2831 C 0.10984 0.46757 0.74314 0.0
C2832 C 0.10313 0.4614 0.75484 0.0
H2833 H 0.09696 0.55426 0.76371 0.0
H2834 H 0.09912 0.52854 0.76234 0.0
C2835 C 0.10161 0.44674 0.75572 0.0
C2836 C 0.1111 0.48314 0.74218 0.0
H2837 H 0.12374 0.51201 0.75986 0.0
C2838 C 0.10385 0.49018 0.73132 0.0
C2839 C 0.11866 0.49107 0.75239 0.0
C2840 C 0.12719 0.48402 0.76389 0.0
C2841 C 0.10339 0.50502 0.73079 0.0
C2842 C 0.11057 0.51294 0.74129 0.0
C2843 C 0.1182 0.50589 0.75187 0.0
C2844 C 0.10959 0.52855 0.74199 0.0
C2845 C 0.09472 0.51207 0.71941 0.0
C2846 C 0.11493 0.53707 0.73107 0.0
C2847 C 0.11367 0.55179 0.7318 0.0
C2848 C 0.10713 0.55819 0.74352 0.0
C2849 C 0.10202 0.54963 0.75454 0.0
C2850 C 0.10326 0.53494 0.75378 0.0
H2851 H 0.08755 0.50448 0.71397 0.0
H2852 H 0.08826 0.52078 0.72391 0.0
H2853 H 0.10192 0.51669 0.71136 0.0
H2854 H 0.12008 0.53234 0.72199 0.0
H2855 H 0.11778 0.55815 0.72319 0.0
H2856 H 0.44113 0.09267 0.76487 0.0
H2857 H 0.46696 0.09366 0.76392 0.0
H2858 H 0.46475 0.11765 0.72517 0.0
H2859 H 0.43885 0.11691 0.72618 0.0
H2860 H 0.48438 0.08329 0.74278 0.0
H2861 H 0.49172 0.14129 0.74948 0.0
H2862 H 0.47516 0.1325 0.75323 0.0
H2863 H 0.48015 0.13621 0.73527 0.0
C2864 C 0.44614 0.09823 0.75619 0.0
C2865 C 0.43799 0.10476 0.74562 0.0
C2866 C 0.46089 0.09878 0.75566 0.0
C2867 C 0.46775 0.10588 0.74458 0.0
C2868 C 0.45965 0.11236 0.73397 0.0
H2869 H 0.55796 0.1143 0.72589 0.0
H2870 H 0.53204 0.11515 0.7246 0.0
C2871 C 0.44487 0.11186 0.73451 0.0
C2872 C 0.4834 0.10602 0.74397 0.0
H2873 H 0.51229 0.12778 0.74492 0.0
C2874 C 0.49049 0.09301 0.74325 0.0
C2875 C 0.49131 0.11874 0.74451 0.0
C2876 C 0.48424 0.13298 0.74579 0.0
C2877 C 0.5053 0.09236 0.74312 0.0
C2878 C 0.5132 0.10505 0.7439 0.0
C2879 C 0.50615 0.11809 0.74433 0.0
C2880 C 0.5288 0.10492 0.74481 0.0
C2881 C 0.5124 0.07811 0.7421 0.0
C2882 C 0.53547 0.09911 0.75671 0.0
C2883 C 0.55021 0.09864 0.7575 0.0
C2884 C 0.55852 0.104 0.74639 0.0
C2885 C 0.55181 0.11005 0.73458 0.0
C2886 C 0.53704 0.11056 0.73383 0.0
H2887 H 0.50503 0.06981 0.73818 0.0
H2888 H 0.52172 0.0786 0.73496 0.0
H2889 H 0.51616 0.07492 0.75276 0.0
H2890 H 0.52926 0.0949 0.76537 0.0
H2891 H 0.55508 0.09397 0.76676 0.0
H2892 H 0.88309 0.55792 0.72417 0.0
H2893 H 0.88218 0.53202 0.72311 0.0
H2894 H 0.89401 0.5298 0.76713 0.0
H2895 H 0.89513 0.55561 0.76823 0.0
H2896 H 0.91021 0.51255 0.74934 0.0
H2897 H 0.85261 0.50485 0.73995 0.0
H2898 H 0.86136 0.5167 0.72792 0.0
H2899 H 0.85991 0.52136 0.74629 0.0
C2900 C 0.88538 0.5519 0.73364 0.0
C2901 C 0.88918 0.55877 0.74629 0.0
C2902 C 0.88478 0.53712 0.73304 0.0
C2903 C 0.88786 0.52902 0.74509 0.0
C2904 C 0.89154 0.53588 0.75773 0.0
H2905 H 0.89556 0.44144 0.76857 0.0
H2906 H 0.89447 0.46725 0.76743 0.0
C2907 C 0.89217 0.55062 0.75834 0.0
C2908 C 0.88798 0.51338 0.74442 0.0
H2909 H 0.86697 0.48437 0.73934 0.0
C2910 C 0.90076 0.50638 0.74716 0.0
C2911 C 0.87564 0.50541 0.74148 0.0
C2912 C 0.86156 0.51241 0.73885 0.0
C2913 C 0.90155 0.49158 0.74708 0.0
C2914 C 0.88916 0.48359 0.74442 0.0
C2915 C 0.87643 0.49057 0.74141 0.0
C2916 C 0.88919 0.46796 0.74516 0.0
C2917 C 0.91566 0.48461 0.74972 0.0
C2918 C 0.88615 0.45983 0.73311 0.0
C2919 C 0.88669 0.44506 0.73374 0.0
C2920 C 0.89022 0.43823 0.74647 0.0
C2921 C 0.89291 0.44641 0.7586 0.0
C2922 C 0.89235 0.46115 0.75795 0.0
H2923 H 0.92461 0.49202 0.74782 0.0
H2924 H 0.9162 0.48111 0.76092 0.0
H2925 H 0.91704 0.47518 0.74286 0.0
H2926 H 0.8836 0.46493 0.72316 0.0
H2927 H 0.88453 0.43901 0.72425 0.0
H2928 H 0.229 0.55501 0.09632 0.0
H2929 H 0.23048 0.52921 0.0973 0.0
H2930 H 0.27319 0.53224 0.11312 0.0
H2931 H 0.27176 0.55813 0.11228 0.0
H2932 H 0.25049 0.51221 0.08278 0.0
H2933 H 0.25344 0.50498 0.14113 0.0
H2934 H 0.24743 0.52123 0.1331 0.0
H2935 H 0.26597 0.51717 0.1336 0.0
C2936 C 0.23868 0.55019 0.1001 0.0
C2937 C 0.25026 0.55857 0.10425 0.0
C2938 C 0.23951 0.53546 0.10064 0.0
C2939 C 0.25189 0.52885 0.10542 0.0
C2940 C 0.26347 0.53717 0.10963 0.0
H2941 H 0.27187 0.43884 0.11255 0.0
H2942 H 0.27319 0.46476 0.11294 0.0
C2943 C 0.26265 0.55193 0.10908 0.0
C2944 C 0.25277 0.51323 0.10542 0.0
H2945 H 0.25543 0.48443 0.12703 0.0
C2946 C 0.25159 0.50612 0.09244 0.0
C2947 C 0.2543 0.50537 0.11805 0.0
C2948 C 0.25526 0.51252 0.1323 0.0
C2949 C 0.25183 0.49131 0.09175 0.0
C2950 C 0.253 0.48343 0.1044 0.0
C2951 C 0.2545 0.49053 0.11736 0.0
C2952 C 0.25216 0.4678 0.10441 0.0
C2953 C 0.2509 0.48423 0.07746 0.0
C2954 C 0.23982 0.46099 0.09973 0.0
C2955 C 0.23904 0.44624 0.09949 0.0
C2956 C 0.25057 0.43805 0.10401 0.0
C2957 C 0.26284 0.44489 0.10896 0.0
C2958 C 0.26361 0.45967 0.1092 0.0
H2959 H 0.25401 0.49154 0.06879 0.0
H2960 H 0.25777 0.47472 0.07701 0.0
H2961 H 0.23982 0.48082 0.07553 0.0
H2962 H 0.23077 0.46709 0.09627 0.0
H2963 H 0.22942 0.44127 0.0957 0.0
H2964 H 0.22883 0.55366 0.89499 0.0
H2965 H 0.23039 0.5279 0.89336 0.0
H2966 H 0.27324 0.53143 0.87805 0.0
H2967 H 0.27182 0.55728 0.87981 0.0
H2968 H 0.23633 0.51085 0.86948 0.0
H2969 H 0.27652 0.50431 0.91201 0.0
H2970 H 0.26671 0.5205 0.90963 0.0
H2971 H 0.28116 0.51634 0.89803 0.0
C2972 C 0.23859 0.54896 0.89128 0.0
C2973 C 0.25023 0.55746 0.8876 0.0
C2974 C 0.23945 0.53425 0.89033 0.0
C2975 C 0.25198 0.52778 0.88576 0.0
C2976 C 0.26356 0.53623 0.88183 0.0
H2977 H 0.27206 0.4375 0.88128 0.0
H2978 H 0.27315 0.46332 0.87886 0.0
C2979 C 0.2627 0.55098 0.88278 0.0
C2980 C 0.25282 0.51216 0.88516 0.0
H2981 H 0.26892 0.48363 0.90029 0.0
C2982 C 0.24349 0.50489 0.87616 0.0
C2983 C 0.26222 0.50445 0.89386 0.0
C2984 C 0.27217 0.51174 0.90403 0.0
C2985 C 0.24321 0.49006 0.87573 0.0
C2986 C 0.25234 0.48234 0.88471 0.0
C2987 C 0.26193 0.48961 0.89343 0.0
C2988 C 0.2516 0.46674 0.88575 0.0
C2989 C 0.23317 0.48277 0.86566 0.0
C2990 C 0.23918 0.46018 0.89058 0.0
C2991 C 0.23853 0.44549 0.89199 0.0
C2992 C 0.25033 0.43711 0.88867 0.0
C2993 C 0.26279 0.4437 0.88388 0.0
C2994 C 0.26343 0.45842 0.8825 0.0
H2995 H 0.22997 0.48987 0.85686 0.0
H2996 H 0.238 0.47308 0.86111 0.0
H2997 H 0.22346 0.47963 0.87147 0.0
H2998 H 0.23003 0.46644 0.89343 0.0
H2999 H 0.22881 0.44072 0.89577 0.0
H3000 H 0.44136 0.2285 0.89646 0.0
H3001 H 0.46712 0.22999 0.8944 0.0
H3002 H 0.4637 0.27324 0.88031 0.0
H3003 H 0.43788 0.27188 0.88245 0.0
H3004 H 0.48357 0.23691 0.86983 0.0
H3005 H 0.49167 0.27498 0.91408 0.0
H3006 H 0.47543 0.26514 0.91184 0.0
H3007 H 0.47913 0.2801 0.90074 0.0
C3008 C 0.44609 0.23834 0.89294 0.0
C3009 C 0.43763 0.2501 0.88969 0.0
C3010 C 0.46078 0.23916 0.89174 0.0
C3011 C 0.46728 0.25177 0.88735 0.0
C3012 C 0.45887 0.26349 0.88392 0.0
H3013 H 0.55765 0.27167 0.88247 0.0
H3014 H 0.53182 0.273 0.88032 0.0
C3015 C 0.44414 0.26267 0.88509 0.0
C3016 C 0.48287 0.25254 0.88639 0.0
H3017 H 0.51196 0.26769 0.9016 0.0
C3018 C 0.48979 0.24368 0.87672 0.0
C3019 C 0.49091 0.26145 0.89535 0.0
C3020 C 0.48397 0.2709 0.90618 0.0
C3021 C 0.50461 0.24337 0.87587 0.0
C3022 C 0.51266 0.25197 0.88512 0.0
C3023 C 0.50573 0.26111 0.89453 0.0
C3024 C 0.52827 0.25105 0.88578 0.0
C3025 C 0.5115 0.23387 0.86505 0.0
C3026 C 0.53477 0.2383 0.88967 0.0
C3027 C 0.54946 0.23751 0.89091 0.0
C3028 C 0.55791 0.24949 0.88836 0.0
C3029 C 0.55139 0.26226 0.88445 0.0
C3030 C 0.53667 0.26304 0.88322 0.0
H3031 H 0.50416 0.23133 0.85622 0.0
H3032 H 0.52119 0.23884 0.86062 0.0
H3033 H 0.51455 0.22378 0.87019 0.0
H3034 H 0.52845 0.22901 0.89199 0.0
H3035 H 0.55417 0.22755 0.89401 0.0
H3036 H 0.76899 0.55445 0.89509 0.0
H3037 H 0.76783 0.52863 0.89392 0.0
H3038 H 0.72345 0.53088 0.88351 0.0
H3039 H 0.72457 0.55677 0.88446 0.0
H3040 H 0.75069 0.51114 0.91047 0.0
H3041 H 0.7392 0.50409 0.85319 0.0
H3042 H 0.74571 0.52055 0.86043 0.0
H3043 H 0.72742 0.51576 0.86246 0.0
C3044 C 0.75901 0.54945 0.89244 0.0
C3045 C 0.74687 0.55761 0.88984 0.0
C3046 C 0.75836 0.53471 0.89178 0.0
C3047 C 0.7456 0.52787 0.88846 0.0
C3048 C 0.73346 0.53598 0.88581 0.0
H3049 H 0.72428 0.43797 0.88485 0.0
H3050 H 0.72333 0.4639 0.88424 0.0
C3051 C 0.73411 0.55074 0.88644 0.0
C3052 C 0.74494 0.51223 0.88845 0.0
H3053 H 0.73894 0.48346 0.86739 0.0
C3054 C 0.74814 0.50508 0.90105 0.0
C3055 C 0.7415 0.50439 0.87616 0.0
C3056 C 0.73837 0.51155 0.86225 0.0
C3057 C 0.74802 0.49026 0.90171 0.0
C3058 C 0.74485 0.48241 0.88936 0.0
C3059 C 0.74139 0.48954 0.87681 0.0
C3060 C 0.74549 0.46678 0.88922 0.0
C3061 C 0.75116 0.48315 0.91565 0.0
C3062 C 0.75833 0.45988 0.89193 0.0
C3063 C 0.7589 0.44513 0.89231 0.0
C3064 C 0.74665 0.43703 0.88989 0.0
C3065 C 0.73387 0.44396 0.8868 0.0
C3066 C 0.73331 0.45874 0.88644 0.0
H3067 H 0.74958 0.49046 0.92472 0.0
H3068 H 0.74434 0.47369 0.91718 0.0
H3069 H 0.76236 0.47966 0.91575 0.0
H3070 H 0.76791 0.46591 0.89382 0.0
H3071 H 0.76892 0.44009 0.89461 0.0
H3072 H 0.44161 0.76681 0.89577 0.0
H3073 H 0.46738 0.76523 0.89454 0.0
H3074 H 0.46413 0.72153 0.88173 0.0
H3075 H 0.43825 0.72308 0.88276 0.0
H3076 H 0.48437 0.74675 0.91024 0.0
H3077 H 0.49141 0.7386 0.85238 0.0
H3078 H 0.4751 0.74507 0.85992 0.0
H3079 H 0.47939 0.7266 0.86097 0.0
C3080 C 0.44637 0.75689 0.89258 0.0
C3081 C 0.43793 0.74506 0.88934 0.0
C3082 C 0.46108 0.75601 0.89189 0.0
C3083 C 0.46763 0.74332 0.8879 0.0
C3084 C 0.45925 0.7315 0.88458 0.0
H3085 H 0.55762 0.72224 0.88355 0.0
H3086 H 0.53168 0.72108 0.88278 0.0
C3087 C 0.4445 0.73237 0.88525 0.0
C3088 C 0.48326 0.74239 0.8879 0.0
H3089 H 0.51201 0.73764 0.86657 0.0
C3090 C 0.49042 0.74475 0.9007 0.0
C3091 C 0.49108 0.73968 0.87545 0.0
C3092 C 0.4839 0.73744 0.86136 0.0
C3093 C 0.50523 0.74456 0.90137 0.0
C3094 C 0.51307 0.74218 0.88886 0.0
C3095 C 0.50593 0.7395 0.87612 0.0
C3096 C 0.52869 0.74296 0.88878 0.0
C3097 C 0.51236 0.74685 0.91548 0.0
C3098 C 0.53552 0.75572 0.89211 0.0
C3099 C 0.55026 0.75642 0.89257 0.0
C3100 C 0.55843 0.74437 0.88962 0.0
C3101 C 0.55158 0.73168 0.88592 0.0
C3102 C 0.5368 0.731 0.88546 0.0
H3103 H 0.50504 0.74475 0.92444 0.0
H3104 H 0.52178 0.73993 0.91661 0.0
H3105 H 0.51593 0.75801 0.91626 0.0
H3106 H 0.52943 0.76514 0.89445 0.0
H3107 H 0.55525 0.76637 0.89536 0.0
H3108 H 0.7254 0.55812 0.11587 0.0
H3109 H 0.72446 0.5323 0.11824 0.0
H3110 H 0.76583 0.5291 0.09928 0.0
H3111 H 0.76692 0.55483 0.09701 0.0
H3112 H 0.72631 0.51203 0.09655 0.0
H3113 H 0.76969 0.50557 0.13549 0.0
H3114 H 0.76136 0.52241 0.13211 0.0
H3115 H 0.77468 0.51577 0.12027 0.0
C3116 C 0.73432 0.5519 0.11228 0.0
C3117 C 0.74626 0.55848 0.10631 0.0
C3118 C 0.73376 0.53718 0.11364 0.0
C3119 C 0.74517 0.52883 0.10915 0.0
C3120 C 0.75705 0.53538 0.1031 0.0
H3121 H 0.76693 0.44208 0.09724 0.0
H3122 H 0.76542 0.46782 0.09911 0.0
C3123 C 0.75762 0.55007 0.10173 0.0
C3124 C 0.74449 0.51323 0.11022 0.0
H3125 H 0.76202 0.48464 0.1235 0.0
C3126 C 0.73399 0.50601 0.10258 0.0
C3127 C 0.75453 0.50547 0.11813 0.0
C3128 C 0.76563 0.51269 0.12708 0.0
C3129 C 0.73363 0.49117 0.10213 0.0
C3130 C 0.74392 0.48341 0.1097 0.0
C3131 C 0.75418 0.49064 0.11767 0.0
C3132 C 0.74472 0.4678 0.1089 0.0
C3133 C 0.72262 0.48393 0.09308 0.0
C3134 C 0.73365 0.45927 0.11395 0.0
C3135 C 0.73447 0.44454 0.11286 0.0
C3136 C 0.74642 0.43813 0.10677 0.0
C3137 C 0.75758 0.44671 0.10195 0.0
C3138 C 0.75674 0.46141 0.10303 0.0
H3139 H 0.71742 0.4914 0.08565 0.0
H3140 H 0.72741 0.47519 0.08687 0.0
H3141 H 0.71433 0.47932 0.1 0.0
H3142 H 0.72439 0.46401 0.11875 0.0
H3143 H 0.72574 0.43818 0.11674 0.0
H3144 H 0.55743 0.72461 0.11403 0.0
H3145 H 0.53149 0.72341 0.11482 0.0
H3146 H 0.52908 0.76577 0.09807 0.0
H3147 H 0.55489 0.76701 0.09711 0.0
H3148 H 0.51192 0.74145 0.12904 0.0
H3149 H 0.50444 0.74227 0.07082 0.0
H3150 H 0.52128 0.73847 0.07899 0.0
H3151 H 0.5153 0.75644 0.07738 0.0
C3152 C 0.55135 0.73365 0.11052 0.0
C3153 C 0.55816 0.74586 0.10541 0.0
C3154 C 0.53657 0.73295 0.11099 0.0
C3155 C 0.52841 0.74441 0.10628 0.0
C3156 C 0.5352 0.75671 0.10149 0.0
H3157 H 0.44132 0.76786 0.09809 0.0
H3158 H 0.46711 0.76631 0.0992 0.0
C3159 C 0.54994 0.75742 0.10101 0.0
C3160 C 0.51279 0.74362 0.10638 0.0
H3161 H 0.48389 0.74604 0.08488 0.0
C3162 C 0.50576 0.74231 0.1194 0.0
C3163 C 0.50483 0.74469 0.09376 0.0
C3164 C 0.51183 0.74541 0.07942 0.0
C3165 C 0.49092 0.7426 0.12016 0.0
C3166 C 0.48299 0.74405 0.10755 0.0
C3167 C 0.49003 0.74502 0.09453 0.0
C3168 C 0.46737 0.74503 0.10761 0.0
C3169 C 0.48385 0.74185 0.13445 0.0
C3170 C 0.45901 0.73355 0.11196 0.0
C3171 C 0.44425 0.7344 0.11134 0.0
C3172 C 0.43766 0.74673 0.10629 0.0
C3173 C 0.44609 0.75823 0.10204 0.0
C3174 C 0.46081 0.75736 0.10266 0.0
H3175 H 0.49146 0.74373 0.14322 0.0
H3176 H 0.47519 0.74974 0.13521 0.0
H3177 H 0.47915 0.73118 0.13588 0.0
H3178 H 0.46389 0.72385 0.11559 0.0
H3179 H 0.43801 0.72536 0.11463 0.0
H3180 H 0.55436 0.22846 0.09781 0.0
H3181 H 0.52857 0.22988 0.09862 0.0
H3182 H 0.53135 0.27272 0.11413 0.0
H3183 H 0.55728 0.27134 0.11349 0.0
H3184 H 0.51146 0.25513 0.12874 0.0
H3185 H 0.50442 0.2528 0.07049 0.0
H3186 H 0.51509 0.23876 0.07754 0.0
H3187 H 0.52124 0.25674 0.07869 0.0
C3188 C 0.5495 0.23819 0.10142 0.0
C3189 C 0.55782 0.24983 0.1055 0.0
C3190 C 0.53477 0.239 0.1018 0.0
C3191 C 0.52809 0.25148 0.1062 0.0
C3192 C 0.53634 0.26302 0.11062 0.0
H3193 H 0.43799 0.27165 0.11383 0.0
H3194 H 0.46389 0.27286 0.11475 0.0
C3195 C 0.55112 0.26223 0.11023 0.0
C3196 C 0.51247 0.25239 0.10615 0.0
H3197 H 0.48371 0.2497 0.08447 0.0
C3198 C 0.50536 0.25408 0.11907 0.0
C3199 C 0.5046 0.25105 0.09349 0.0
C3200 C 0.51171 0.24987 0.07924 0.0
C3201 C 0.49051 0.25395 0.11971 0.0
C3202 C 0.48266 0.25229 0.10708 0.0
C3203 C 0.48979 0.2509 0.09414 0.0
C3204 C 0.46702 0.25153 0.10702 0.0
C3205 C 0.48336 0.2551 0.13393 0.0
C3206 C 0.46025 0.23923 0.10217 0.0
C3207 C 0.44551 0.23854 0.10156 0.0
C3208 C 0.43728 0.25018 0.10572 0.0
C3209 C 0.44408 0.2625 0.11062 0.0
C3210 C 0.45885 0.26318 0.11122 0.0
H3211 H 0.49085 0.25319 0.14279 0.0
H3212 H 0.47896 0.2659 0.13517 0.0
H3213 H 0.47447 0.24744 0.13476 0.0
H3214 H 0.46639 0.23016 0.09883 0.0
H3215 H 0.44057 0.22892 0.09773 0.0
H3216 H 0.59569 0.73057 0.05414 0.0
H3217 H 0.5969 0.73232 0.02838 0.0
H3218 H 0.61827 0.77253 0.03198 0.0
H3219 H 0.61721 0.77082 0.05787 0.0
H3220 H 0.58515 0.7546 0.01175 0.0
H3221 H 0.64335 0.74937 0.00435 0.0
H3222 H 0.63457 0.74413 0.02049 0.0
H3223 H 0.63753 0.76253 0.0168 0.0
C3224 C 0.60074 0.73975 0.04947 0.0
C3225 C 0.60638 0.75056 0.05801 0.0
C3226 C 0.6014 0.74073 0.03476 0.0
C3227 C 0.60778 0.75248 0.02831 0.0
C3228 C 0.6135 0.76327 0.03678 0.0
H3229 H 0.61704 0.76982 0.93762 0.0
H3230 H 0.61785 0.77193 0.9635 0.0
C3231 C 0.61283 0.76231 0.05154 0.0
C3232 C 0.60789 0.75356 0.01271 0.0
H3233 H 0.62956 0.75281 0.98383 0.0
C3234 C 0.59486 0.75427 0.00564 0.0
C3235 C 0.62058 0.75324 0.00481 0.0
C3236 C 0.63483 0.75218 0.01193 0.0
C3237 C 0.59416 0.75445 0.99083 0.0
C3238 C 0.60682 0.75365 0.98291 0.0
C3239 C 0.61988 0.75338 0.98996 0.0
C3240 C 0.60661 0.75234 0.96732 0.0
C3241 C 0.57986 0.75549 0.98378 0.0
C3242 C 0.60026 0.7405 0.96098 0.0
C3243 C 0.59979 0.73927 0.94628 0.0
C3244 C 0.60572 0.74982 0.93765 0.0
C3245 C 0.61233 0.76155 0.94402 0.0
C3246 C 0.61282 0.76277 0.95877 0.0
H3247 H 0.57178 0.75998 0.99104 0.0
H3248 H 0.5804 0.76216 0.97412 0.0
H3249 H 0.5763 0.74475 0.98063 0.0
H3250 H 0.59566 0.7322 0.96742 0.0
H3251 H 0.5947 0.73007 0.94168 0.0
H3252 H 0.26524 0.5946 0.93994 0.0
H3253 H 0.26358 0.59559 0.96571 0.0
H3254 H 0.22254 0.61518 0.96246 0.0
H3255 H 0.22418 0.61436 0.93656 0.0
H3256 H 0.24114 0.62825 0.98226 0.0
H3257 H 0.23803 0.57018 0.99013 0.0
H3258 H 0.25278 0.57567 0.97948 0.0
H3259 H 0.23505 0.57842 0.97316 0.0
C3260 C 0.25585 0.59911 0.9447 0.0
C3261 C 0.2448 0.60433 0.93625 0.0
C3262 C 0.25489 0.5996 0.95942 0.0
C3263 C 0.24284 0.60523 0.96596 0.0
C3264 C 0.23189 0.6107 0.95758 0.0
H3265 H 0.2244 0.61567 0.05637 0.0
H3266 H 0.22267 0.61633 0.03048 0.0
C3267 C 0.23283 0.61022 0.94282 0.0
C3268 C 0.24183 0.60549 0.98157 0.0
H3269 H 0.24271 0.58412 0.01064 0.0
C3270 C 0.24132 0.61862 0.9885 0.0
C3271 C 0.24202 0.59289 0.98963 0.0
C3272 C 0.24186 0.57848 0.98274 0.0
C3273 C 0.24159 0.61949 0.00333 0.0
C3274 C 0.24219 0.60689 0.01136 0.0
C3275 C 0.24233 0.59376 0.00443 0.0
C3276 C 0.24328 0.60702 0.02697 0.0
C3277 C 0.24175 0.63386 0.01029 0.0
C3278 C 0.25535 0.60143 0.03352 0.0
C3279 C 0.25633 0.60099 0.04824 0.0
C3280 C 0.24522 0.60607 0.05668 0.0
C3281 C 0.23315 0.61174 0.05012 0.0
C3282 C 0.23217 0.61218 0.03535 0.0
H3283 H 0.24412 0.64245 0.00262 0.0
H3284 H 0.23122 0.63596 0.01502 0.0
H3285 H 0.24973 0.63422 0.01892 0.0
H3286 H 0.264 0.59736 0.02721 0.0
H3287 H 0.26576 0.59654 0.05299 0.0
H3288 H 0.39635 0.26744 0.05476 0.0
H3289 H 0.39467 0.26607 0.029 0.0
H3290 H 0.37996 0.22295 0.03206 0.0
H3291 H 0.38174 0.22419 0.05792 0.0
H3292 H 0.40186 0.22705 0.01228 0.0
H3293 H 0.35874 0.26599 0.00463 0.0
H3294 H 0.37314 0.27257 0.01516 0.0
H3295 H 0.36258 0.25809 0.02159 0.0
C3296 C 0.39267 0.25769 0.04996 0.0
C3297 C 0.38913 0.24593 0.05834 0.0
C3298 C 0.39165 0.25696 0.03525 0.0
C3299 C 0.38698 0.24449 0.02866 0.0
C3300 C 0.38349 0.2327 0.03698 0.0
H3301 H 0.38217 0.22349 0.93834 0.0
H3302 H 0.38039 0.22231 0.96419 0.0
C3303 C 0.3845 0.23343 0.05172 0.0
C3304 C 0.38632 0.24365 0.01304 0.0
H3305 H 0.37179 0.25944 0.98402 0.0
C3306 C 0.39517 0.23399 0.00607 0.0
C3307 C 0.37756 0.25273 0.00503 0.0
C3308 C 0.36736 0.26284 0.01197 0.0
C3309 C 0.39592 0.23358 0.99125 0.0
C3310 C 0.38743 0.24292 0.98325 0.0
C3311 C 0.37832 0.25233 0.99022 0.0
C3312 C 0.38828 0.24355 0.96763 0.0
C3313 C 0.40617 0.22354 0.98428 0.0
C3314 C 0.39301 0.25598 0.96104 0.0
C3315 C 0.39397 0.2567 0.94633 0.0
C3316 C 0.39015 0.24502 0.93794 0.0
C3317 C 0.38525 0.23263 0.94455 0.0
C3318 C 0.38429 0.23191 0.9593 0.0
H3319 H 0.41399 0.21924 0.99193 0.0
H3320 H 0.40022 0.21451 0.97967 0.0
H3321 H 0.41198 0.22889 0.97558 0.0
H3322 H 0.39608 0.26508 0.96731 0.0
H3323 H 0.39775 0.26641 0.94153 0.0
H3324 H 0.7727 0.38035 0.05805 0.0
H3325 H 0.77478 0.37954 0.03217 0.0
H3326 H 0.7346 0.40072 0.02825 0.0
H3327 H 0.73247 0.40165 0.05398 0.0
H3328 H 0.75563 0.36728 0.01195 0.0
H3329 H 0.76199 0.42515 0.00448 0.0
H3330 H 0.76446 0.41662 0.0214 0.0
H3331 H 0.74693 0.42037 0.01504 0.0
C3332 C 0.76432 0.38484 0.05165 0.0
C3333 C 0.75246 0.39114 0.05802 0.0
C3334 C 0.76553 0.38436 0.03691 0.0
C3335 C 0.75495 0.39027 0.02835 0.0
C3336 C 0.743 0.39634 0.03469 0.0
H3337 H 0.73213 0.40049 0.94182 0.0
H3338 H 0.73435 0.39959 0.96755 0.0
C3339 C 0.74177 0.3968 0.04939 0.0
C3340 C 0.75621 0.39003 0.01277 0.0
H3341 H 0.75664 0.4116 0.98385 0.0
C3342 C 0.75604 0.37694 0.00577 0.0
C3343 C 0.75679 0.40268 0.0048 0.0
C3344 C 0.75769 0.41701 0.0118 0.0
C3345 C 0.75576 0.37618 0.99093 0.0
C3346 C 0.75586 0.38885 0.98298 0.0
C3347 C 0.75649 0.40192 0.99 0.0
C3348 C 0.75455 0.38888 0.96739 0.0
C3349 C 0.75478 0.36188 0.98387 0.0
C3350 C 0.76522 0.38317 0.95881 0.0
C3351 C 0.76398 0.38367 0.94406 0.0
C3352 C 0.75207 0.38992 0.93773 0.0
C3353 C 0.74142 0.39559 0.94639 0.0
C3354 C 0.74267 0.3951 0.96108 0.0
H3355 H 0.7521 0.35336 0.99152 0.0
H3356 H 0.74668 0.36199 0.97536 0.0
H3357 H 0.76512 0.3593 0.97897 0.0
H3358 H 0.77458 0.37853 0.9635 0.0
H3359 H 0.77238 0.37927 0.93764 0.0
H3360 H 0.61637 0.22362 0.93758 0.0
H3361 H 0.61706 0.22132 0.96344 0.0
H3362 H 0.59363 0.26021 0.96755 0.0
H3363 H 0.5928 0.26253 0.94183 0.0
H3364 H 0.62815 0.24065 0.98383 0.0
H3365 H 0.57062 0.23161 0.99107 0.0
H3366 H 0.57927 0.22979 0.97413 0.0
H3367 H 0.57464 0.24703 0.98072 0.0
C3368 C 0.61136 0.23166 0.94401 0.0
C3369 C 0.60446 0.24321 0.9377 0.0
C3370 C 0.61177 0.23033 0.95875 0.0
C3371 C 0.60519 0.24047 0.96735 0.0
C3372 C 0.59852 0.25213 0.96107 0.0
H3373 H 0.59442 0.26324 0.05367 0.0
H3374 H 0.59543 0.26086 0.02795 0.0
C3375 C 0.59812 0.25347 0.94638 0.0
C3376 C 0.60544 0.23911 0.98293 0.0
H3377 H 0.58381 0.23767 0.01179 0.0
C3378 C 0.6185 0.2398 0.98998 0.0
C3379 C 0.5928 0.23793 0.99086 0.0
C3380 C 0.57854 0.2364 0.98382 0.0
C3381 C 0.61919 0.24004 0.00482 0.0
C3382 C 0.60651 0.23941 0.01272 0.0
C3383 C 0.5935 0.23823 0.00566 0.0
C3384 C 0.60639 0.24079 0.02829 0.0
C3385 C 0.6334 0.24157 0.01195 0.0
C3386 C 0.61219 0.23025 0.03697 0.0
C3387 C 0.61161 0.23157 0.0517 0.0
C3388 C 0.6052 0.24345 0.05793 0.0
C3389 C 0.59945 0.25398 0.04918 0.0
C3390 C 0.6 0.25264 0.0345 0.0
H3391 H 0.64192 0.24429 0.00431 0.0
H3392 H 0.63299 0.24987 0.02025 0.0
H3393 H 0.63622 0.23143 0.01715 0.0
H3394 H 0.61699 0.22093 0.03234 0.0
H3395 H 0.61608 0.22327 0.0582 0.0
H3396 H 0.77322 0.61256 0.05768 0.0
H3397 H 0.77467 0.61438 0.03184 0.0
H3398 H 0.73079 0.60219 0.02847 0.0
H3399 H 0.72922 0.60045 0.05421 0.0
H3400 H 0.76921 0.59269 0.01186 0.0
H3401 H 0.73326 0.63837 0.00439 0.0
H3402 H 0.74097 0.63399 0.02132 0.0
H3403 H 0.72578 0.62443 0.01493 0.0
C3404 C 0.76386 0.61036 0.05142 0.0
C3405 C 0.75109 0.60641 0.05795 0.0
C3406 C 0.76471 0.6114 0.03669 0.0
C3407 C 0.75278 0.60863 0.02829 0.0
C3408 C 0.74004 0.60465 0.03479 0.0
H3409 H 0.72995 0.59892 0.94139 0.0
H3410 H 0.73156 0.60067 0.96715 0.0
C3411 C 0.73919 0.60357 0.04949 0.0
C3412 C 0.7537 0.60932 0.01269 0.0
H3413 H 0.73886 0.62493 0.98374 0.0
C3414 C 0.76273 0.59986 0.00569 0.0
C3415 C 0.74523 0.6187 0.00471 0.0
C3416 C 0.73586 0.62955 0.01171 0.0
C3417 C 0.76305 0.5991 0.99086 0.0
C3418 C 0.75427 0.60821 0.9829 0.0
C3419 C 0.74553 0.61793 0.9899 0.0
C3420 C 0.75347 0.60735 0.9673 0.0
C3421 C 0.77235 0.58821 0.98383 0.0
C3422 C 0.76523 0.61068 0.95888 0.0
C3423 C 0.76435 0.60969 0.94414 0.0
C3424 C 0.75167 0.60539 0.93763 0.0
C3425 C 0.73987 0.60222 0.94611 0.0
C3426 C 0.74076 0.60324 0.96081 0.0
H3427 H 0.77629 0.5802 0.99148 0.0
H3428 H 0.76651 0.58267 0.97525 0.0
H3429 H 0.78163 0.59357 0.97903 0.0
H3430 H 0.77507 0.61408 0.9637 0.0
H3431 H 0.77359 0.61225 0.93786 0.0
H3432 H 0.40064 0.73021 0.94118 0.0
H3433 H 0.39961 0.73191 0.96696 0.0
H3434 H 0.3795 0.77268 0.9636 0.0
H3435 H 0.38035 0.771 0.93773 0.0
H3436 H 0.41202 0.75321 0.98381 0.0
H3437 H 0.35364 0.75066 0.99105 0.0
H3438 H 0.36218 0.74544 0.97478 0.0
H3439 H 0.35995 0.76386 0.97889 0.0
C3440 C 0.39591 0.7395 0.94591 0.0
C3441 C 0.39054 0.75046 0.93745 0.0
C3442 C 0.39534 0.74046 0.96063 0.0
C3443 C 0.38935 0.75234 0.96716 0.0
C3444 C 0.38395 0.76331 0.95875 0.0
H3445 H 0.38092 0.77184 0.05733 0.0
H3446 H 0.38037 0.77324 0.03141 0.0
C3447 C 0.3845 0.76236 0.94399 0.0
C3448 C 0.38926 0.75337 0.98278 0.0
H3449 H 0.36749 0.75411 0.0116 0.0
C3450 C 0.40229 0.75344 0.9899 0.0
C3451 C 0.37654 0.75376 0.99064 0.0
C3452 C 0.36226 0.75332 0.98351 0.0
C3453 C 0.40295 0.75376 0.00471 0.0
C3454 C 0.39024 0.75378 0.01258 0.0
C3455 C 0.3772 0.75407 0.00549 0.0
C3456 C 0.39031 0.75289 0.0282 0.0
C3457 C 0.41726 0.75412 0.01181 0.0
C3458 C 0.39584 0.74088 0.03491 0.0
C3459 C 0.39616 0.74005 0.04965 0.0
C3460 C 0.39088 0.75119 0.05794 0.0
C3461 C 0.3851 0.76311 0.0512 0.0
C3462 C 0.38477 0.76393 0.03643 0.0
H3463 H 0.42566 0.75788 0.00449 0.0
H3464 H 0.41711 0.76109 0.02127 0.0
H3465 H 0.42008 0.74328 0.0153 0.0
H3466 H 0.39993 0.73214 0.02873 0.0
H3467 H 0.40061 0.73069 0.05453 0.0
H3468 H 0.22418 0.38191 0.05739 0.0
H3469 H 0.22293 0.37986 0.03154 0.0
H3470 H 0.26635 0.39364 0.02836 0.0
H3471 H 0.26773 0.39559 0.0541 0.0
H3472 H 0.22748 0.40156 0.01164 0.0
H3473 H 0.26549 0.3576 0.00415 0.0
H3474 H 0.25767 0.36167 0.0211 0.0
H3475 H 0.27239 0.37188 0.01463 0.0
C3476 C 0.23348 0.38439 0.05117 0.0
C3477 C 0.24607 0.38887 0.05774 0.0
C3478 C 0.23275 0.38323 0.03643 0.0
C3479 C 0.24461 0.38639 0.02808 0.0
C3480 C 0.25717 0.39086 0.03463 0.0
H3481 H 0.26695 0.39684 0.94107 0.0
H3482 H 0.2655 0.3951 0.96684 0.0
C3483 C 0.25791 0.39205 0.04933 0.0
C3484 C 0.24375 0.38568 0.01247 0.0
H3485 H 0.25931 0.37079 0.9835 0.0
C3486 C 0.2343 0.39471 0.00547 0.0
C3487 C 0.25266 0.37672 0.00449 0.0
C3488 C 0.26253 0.36631 0.01146 0.0
C3489 C 0.23394 0.39546 0.99064 0.0
C3490 C 0.24313 0.38677 0.98267 0.0
C3491 C 0.25232 0.37747 0.98967 0.0
C3492 C 0.24385 0.38763 0.96706 0.0
C3493 C 0.22414 0.40592 0.98363 0.0
C3494 C 0.23218 0.38386 0.95867 0.0
C3495 C 0.23297 0.38485 0.94393 0.0
C3496 C 0.24546 0.38959 0.93738 0.0
C3497 C 0.25717 0.3932 0.94582 0.0
C3498 C 0.25637 0.39218 0.96053 0.0
H3499 H 0.21993 0.4138 0.99127 0.0
H3500 H 0.22967 0.41164 0.97498 0.0
H3501 H 0.21504 0.40015 0.97893 0.0
H3502 H 0.22249 0.3801 0.96352 0.0
H3503 H 0.22381 0.38194 0.93768 0.0
H3504 H 0.05392 0.59488 0.72908 0.0
H3505 H 0.02817 0.59594 0.73114 0.0
H3506 H 0.03221 0.6167 0.7716 0.0
H3507 H 0.05806 0.61583 0.76953 0.0
H3508 H 0.01158 0.5839 0.75265 0.0
H3509 H 0.00453 0.64227 0.74981 0.0
H3510 H 0.02074 0.63366 0.74454 0.0
H3511 H 0.01677 0.63607 0.76296 0.0
C3512 C 0.04934 0.59975 0.73838 0.0
C3513 C 0.05799 0.60531 0.74913 0.0
C3514 C 0.03464 0.60034 0.73954 0.0
C3515 C 0.02831 0.60653 0.75144 0.0
C3516 C 0.0369 0.6121 0.76222 0.0
H3517 H 0.93816 0.61511 0.77122 0.0
H3518 H 0.96409 0.61559 0.7727 0.0
C3519 C 0.05164 0.61153 0.76105 0.0
C3520 C 0.01271 0.60666 0.75267 0.0
H3521 H 0.98397 0.62849 0.75345 0.0
C3522 C 0.00554 0.59365 0.75287 0.0
C3523 C 0.00489 0.6194 0.75304 0.0
C3524 C 0.01207 0.63367 0.75247 0.0
C3525 C 0.99073 0.59302 0.75326 0.0
C3526 C 0.9829 0.60574 0.75324 0.0
C3527 C 0.99005 0.61877 0.75344 0.0
C3528 C 0.96729 0.60569 0.75232 0.0
C3529 C 0.98357 0.57873 0.7537 0.0
C3530 C 0.96059 0.60019 0.74027 0.0
C3531 C 0.94585 0.59992 0.73938 0.0
C3532 C 0.93756 0.6052 0.75052 0.0
C3533 C 0.9443 0.61093 0.7625 0.0
C3534 C 0.95907 0.61122 0.76336 0.0
H3535 H 0.99088 0.57034 0.75745 0.0
H3536 H 0.97415 0.57895 0.76071 0.0
H3537 H 0.98 0.57586 0.74288 0.0
H3538 H 0.96677 0.5961 0.73153 0.0
H3539 H 0.94097 0.59551 0.72998 0.0
H3540 H 0.39436 0.94417 0.73112 0.0
H3541 H 0.39109 0.96972 0.73328 0.0
H3542 H 0.37566 0.9643 0.77587 0.0
H3543 H 0.37899 0.93864 0.77384 0.0
H3544 H 0.3655 0.9849 0.7399 0.0
H3545 H 0.40838 0.99358 0.77948 0.0
H3546 H 0.40715 0.97759 0.76907 0.0
H3547 H 0.39528 0.98037 0.78362 0.0
C3548 C 0.39027 0.9484 0.74096 0.0
C3549 C 0.387 0.93943 0.75234 0.0
C3550 C 0.38838 0.96299 0.74215 0.0
C3551 C 0.38327 0.96888 0.75477 0.0
C3552 C 0.3798 0.95995 0.76611 0.0
H3553 H 0.37891 0.05992 0.77325 0.0
H3554 H 0.37563 0.03424 0.77546 0.0
C3555 C 0.38167 0.94532 0.76492 0.0
C3556 C 0.3817 0.9844 0.75591 0.0
H3557 H 0.39627 0.01367 0.77133 0.0
C3558 C 0.37212 0.9912 0.74686 0.0
C3559 C 0.39029 0.99254 0.76509 0.0
C3560 C 0.40094 0.98573 0.77483 0.0
C3561 C 0.37115 0.006 0.74648 0.0
C3562 C 0.3802 0.01417 0.75518 0.0
C3563 C 0.38936 0.00736 0.76466 0.0
C3564 C 0.38123 0.02973 0.75373 0.0
C3565 C 0.36054 0.01275 0.73666 0.0
C3566 C 0.38553 0.03565 0.74082 0.0
C3567 C 0.38742 0.05023 0.73953 0.0
C3568 C 0.38512 0.05918 0.75118 0.0
C3569 C 0.3807 0.05327 0.76409 0.0
C3570 C 0.37884 0.03864 0.76537 0.0
H3571 H 0.3516 0.00545 0.73432 0.0
H3572 H 0.35623 0.02267 0.74124 0.0
H3573 H 0.3658 0.01535 0.7265 0.0
H3574 H 0.38776 0.02894 0.73179 0.0
H3575 H 0.39089 0.05447 0.72947 0.0
H3576 H 0.05858 0.39046 0.77579 0.0
H3577 H 0.03278 0.38874 0.7782 0.0
H3578 H 0.0286 0.38662 0.73282 0.0
H3579 H 0.0543 0.38839 0.7303 0.0
H3580 H 0.01266 0.40829 0.76532 0.0
H3581 H 0.00476 0.35255 0.74836 0.0
H3582 H 0.0216 0.35923 0.75456 0.0
H3583 H 0.01579 0.36297 0.73686 0.0
C3584 C 0.05216 0.38952 0.76634 0.0
C3585 C 0.05842 0.38956 0.75285 0.0
C3586 C 0.03746 0.38854 0.76774 0.0
C3587 C 0.02886 0.38738 0.7557 0.0
C3588 C 0.0351 0.38729 0.74224 0.0
H3589 H 0.94306 0.40616 0.73634 0.0
H3590 H 0.96875 0.40469 0.73902 0.0
C3591 C 0.04976 0.38838 0.74082 0.0
C3592 C 0.01329 0.38706 0.75705 0.0
H3593 H 0.98416 0.36709 0.74932 0.0
C3594 C 0.00641 0.39923 0.76199 0.0
C3595 C 0.00524 0.37518 0.75282 0.0
C3596 C 0.01219 0.36167 0.74796 0.0
C3597 C 0.9916 0.40004 0.76222 0.0
C3598 C 0.98355 0.38842 0.75732 0.0
C3599 C 0.99042 0.37602 0.75297 0.0
C3600 C 0.96801 0.38925 0.75589 0.0
C3601 C 0.98465 0.4134 0.76749 0.0
C3602 C 0.95916 0.38087 0.76436 0.0
C3603 C 0.94446 0.38171 0.76288 0.0
C3604 C 0.93845 0.39082 0.75279 0.0
C3605 C 0.94739 0.39906 0.74422 0.0
C3606 C 0.96205 0.39829 0.74577 0.0
H3607 H 0.99205 0.41995 0.77389 0.0
H3608 H 0.98113 0.41979 0.75829 0.0
H3609 H 0.97519 0.41087 0.77399 0.0
H3610 H 0.96363 0.37377 0.77216 0.0
H3611 H 0.93781 0.37521 0.7696 0.0
H3612 H 0.5939 0.94068 0.73219 0.0
H3613 H 0.59647 0.96634 0.73383 0.0
H3614 H 0.61733 0.96191 0.77418 0.0
H3615 H 0.61469 0.9361 0.77267 0.0
H3616 H 0.59582 0.98303 0.77331 0.0
H3617 H 0.63367 0.98859 0.72886 0.0
H3618 H 0.61808 0.97868 0.72435 0.0
H3619 H 0.63014 0.97184 0.73738 0.0
C3620 C 0.59905 0.94514 0.74142 0.0
C3621 C 0.60416 0.93639 0.75228 0.0
C3622 C 0.60058 0.9598 0.74229 0.0
C3623 C 0.60732 0.96597 0.754 0.0
C3624 C 0.61221 0.9573 0.765 0.0
H3625 H 0.61745 0.05684 0.77198 0.0
H3626 H 0.61906 0.03101 0.77391 0.0
C3627 C 0.61069 0.9426 0.76413 0.0
C3628 C 0.60893 0.98151 0.75476 0.0
H3629 H 0.62232 0.00977 0.7367 0.0
C3630 C 0.60177 0.98891 0.76545 0.0
C3631 C 0.61675 0.98909 0.7445 0.0
C3632 C 0.62522 0.98165 0.7332 0.0
C3633 C 0.60164 0.00376 0.76572 0.0
C3634 C 0.60904 0.01133 0.75513 0.0
C3635 C 0.61661 0.00391 0.74475 0.0
C3636 C 0.60835 0.02692 0.75407 0.0
C3637 C 0.59308 0.01124 0.77692 0.0
C3638 C 0.60208 0.03313 0.74215 0.0
C3639 C 0.60122 0.04781 0.74099 0.0
C3640 C 0.60666 0.05656 0.75172 0.0
C3641 C 0.61311 0.05034 0.76358 0.0
C3642 C 0.61397 0.03561 0.76474 0.0
H3643 H 0.58585 0.00389 0.78258 0.0
H3644 H 0.60036 0.01603 0.7848 0.0
H3645 H 0.58671 0.01988 0.77217 0.0
H3646 H 0.59772 0.02658 0.73379 0.0
H3647 H 0.59621 0.0523 0.73171 0.0
H3648 H 0.93876 0.37985 0.2249 0.0
H3649 H 0.96458 0.37756 0.22356 0.0
H3650 H 0.96835 0.39428 0.26586 0.0
H3651 H 0.94265 0.39651 0.26732 0.0
H3652 H 0.98477 0.39958 0.22657 0.0
H3653 H 0.99216 0.35793 0.26717 0.0
H3654 H 0.97521 0.36155 0.25913 0.0
H3655 H 0.98174 0.37261 0.27318 0.0
C3656 C 0.9451 0.38293 0.23394 0.0
C3657 C 0.9387 0.38832 0.24623 0.0
C3658 C 0.95982 0.38163 0.23315 0.0
C3659 C 0.96833 0.38555 0.24469 0.0
C3660 C 0.96195 0.39093 0.25695 0.0
H3661 H 0.05514 0.39737 0.26658 0.0
H3662 H 0.0294 0.39529 0.26508 0.0
C3663 C 0.94727 0.39227 0.25774 0.0
C3664 C 0.98392 0.38468 0.24377 0.0
H3665 H 0.01286 0.37071 0.26019 0.0
C3666 C 0.99094 0.39313 0.23378 0.0
C3667 C 0.99189 0.37623 0.25319 0.0
C3668 C 0.98488 0.36646 0.26369 0.0
C3669 C 0.00577 0.39385 0.23338 0.0
C3670 C 0.01373 0.38573 0.24309 0.0
C3671 C 0.0067 0.37696 0.2528 0.0
C3672 C 0.02933 0.38673 0.24385 0.0
C3673 C 0.01279 0.40375 0.22299 0.0
C3674 C 0.03781 0.38245 0.23244 0.0
C3675 C 0.05254 0.38365 0.23325 0.0
C3676 C 0.05899 0.38909 0.24551 0.0
C3677 C 0.05047 0.39318 0.25698 0.0
C3678 C 0.03577 0.39197 0.25616 0.0
H3679 H 0.00516 0.41135 0.21831 0.0
H3680 H 0.02144 0.4098 0.22818 0.0
H3681 H 0.01749 0.39748 0.21426 0.0
H3682 H 0.03303 0.37815 0.22294 0.0
H3683 H 0.05886 0.38035 0.22429 0.0
H3684 H 0.61445 0.05869 0.22503 0.0
H3685 H 0.61526 0.0328 0.22306 0.0
H3686 H 0.59747 0.02903 0.2649 0.0
H3687 H 0.59651 0.05478 0.26691 0.0
H3688 H 0.62903 0.01267 0.24091 0.0
H3689 H 0.57083 0.0051 0.23998 0.0
H3690 H 0.57909 0.02205 0.23684 0.0
H3691 H 0.57695 0.01559 0.25461 0.0
C3692 C 0.61072 0.05232 0.2338 0.0
C3693 C 0.60532 0.05873 0.24608 0.0
C3694 C 0.6112 0.03757 0.23266 0.0
C3695 C 0.60621 0.02905 0.24374 0.0
C3696 C 0.60111 0.03544 0.25612 0.0
H3697 H 0.59761 0.94206 0.26631 0.0
H3698 H 0.59859 0.96783 0.26459 0.0
C3699 C 0.60063 0.05014 0.25727 0.0
C3700 C 0.60633 0.01345 0.2425 0.0
H3701 H 0.58478 0.98448 0.24389 0.0
C3702 C 0.61937 0.00648 0.24139 0.0
C3703 C 0.59368 0.00546 0.24307 0.0
C3704 C 0.57933 0.01242 0.24356 0.0
C3705 C 0.62013 0.99163 0.24148 0.0
C3706 C 0.6075 0.98366 0.2425 0.0
C3707 C 0.59444 0.99065 0.24319 0.0
C3708 C 0.60755 0.96804 0.24353 0.0
C3709 C 0.63444 0.98461 0.24102 0.0
C3710 C 0.61224 0.95965 0.23222 0.0
C3711 C 0.6117 0.94488 0.23318 0.0
C3712 C 0.60639 0.93833 0.24544 0.0
C3713 C 0.60176 0.9468 0.25674 0.0
C3714 C 0.60231 0.96151 0.25577 0.0
H3715 H 0.64318 0.99223 0.24307 0.0
H3716 H 0.63505 0.97594 0.24892 0.0
H3717 H 0.6361 0.97992 0.23038 0.0
H3718 H 0.61611 0.96451 0.22259 0.0
H3719 H 0.61529 0.93861 0.22429 0.0
H3720 H 0.05744 0.61415 0.22386 0.0
H3721 H 0.03155 0.61511 0.22259 0.0
H3722 H 0.02876 0.59703 0.26439 0.0
H3723 H 0.05456 0.59587 0.26567 0.0
H3724 H 0.01139 0.58378 0.24427 0.0
H3725 H 0.00475 0.64224 0.24356 0.0
H3726 H 0.01654 0.63516 0.23044 0.0
H3727 H 0.02107 0.63387 0.24885 0.0
C3728 C 0.0513 0.61046 0.2328 0.0
C3729 C 0.058 0.60496 0.24487 0.0
C3730 C 0.03653 0.61109 0.23209 0.0
C3731 C 0.02827 0.6063 0.24347 0.0
C3732 C 0.03496 0.60082 0.25552 0.0
H3733 H 0.94096 0.59695 0.2667 0.0
H3734 H 0.96676 0.59755 0.26512 0.0
C3735 C 0.04969 0.60018 0.25624 0.0
C3736 C 0.01264 0.60648 0.24272 0.0
H3737 H 0.98402 0.6284 0.24107 0.0
C3738 C 0.0054 0.59353 0.24355 0.0
C3739 C 0.00489 0.61922 0.2417 0.0
C3740 C 0.01216 0.63344 0.24119 0.0
C3741 C 0.99058 0.59297 0.24348 0.0
C3742 C 0.98282 0.60573 0.24278 0.0
C3743 C 0.99004 0.61866 0.24163 0.0
C3744 C 0.96722 0.60583 0.24379 0.0
C3745 C 0.98334 0.57874 0.24409 0.0
C3746 C 0.95896 0.61067 0.23245 0.0
C3747 C 0.94419 0.61038 0.23333 0.0
C3748 C 0.93749 0.60535 0.24562 0.0
C3749 C 0.94582 0.60081 0.25707 0.0
C3750 C 0.96055 0.60108 0.25616 0.0
H3751 H 0.99054 0.57006 0.24083 0.0
H3752 H 0.97989 0.57663 0.25511 0.0
H3753 H 0.97382 0.57853 0.23719 0.0
H3754 H 0.96395 0.61445 0.22284 0.0
H3755 H 0.93803 0.61398 0.22437 0.0
H3756 H 0.38325 0.05794 0.22312 0.0
H3757 H 0.38147 0.03207 0.22195 0.0
H3758 H 0.39385 0.02927 0.26579 0.0
H3759 H 0.39554 0.05504 0.26708 0.0
H3760 H 0.40311 0.01231 0.22734 0.0
H3761 H 0.35788 0.0049 0.26395 0.0
H3762 H 0.36216 0.0218 0.25613 0.0
H3763 H 0.37189 0.01552 0.27122 0.0
C3764 C 0.3855 0.0518 0.23252 0.0
C3765 C 0.38949 0.05849 0.2452 0.0
C3766 C 0.38448 0.03705 0.23184 0.0
C3767 C 0.38731 0.0288 0.24384 0.0
C3768 C 0.39134 0.03547 0.25649 0.0
H3769 H 0.39751 0.94196 0.26693 0.0
H3770 H 0.39571 0.96773 0.26533 0.0
C3771 C 0.39238 0.05019 0.25718 0.0
C3772 C 0.38668 0.01318 0.24308 0.0
H3773 H 0.37133 0.98427 0.25836 0.0
C3774 C 0.39604 0.00616 0.23397 0.0
C3775 C 0.37743 0.00523 0.25175 0.0
C3776 C 0.36667 0.01223 0.26122 0.0
C3777 C 0.39682 0.99133 0.23374 0.0
C3778 C 0.38785 0.98339 0.2427 0.0
C3779 C 0.37823 0.99041 0.25154 0.0
C3780 C 0.3887 0.96779 0.24353 0.0
C3781 C 0.4076 0.98429 0.22432 0.0
C3782 C 0.3852 0.95933 0.23184 0.0
C3783 C 0.38621 0.9446 0.23272 0.0
C3784 C 0.39071 0.93814 0.24533 0.0
C3785 C 0.39405 0.94665 0.25706 0.0
C3786 C 0.39301 0.96135 0.25618 0.0
H3787 H 0.41556 0.99193 0.22023 0.0
H3788 H 0.41321 0.97575 0.2301 0.0
H3789 H 0.40213 0.97943 0.21512 0.0
H3790 H 0.38164 0.96412 0.22206 0.0
H3791 H 0.38352 0.93829 0.22353 0.0
H3792 H 0.7302 0.05473 0.59731 0.0
H3793 H 0.73216 0.02896 0.59822 0.0
H3794 H 0.77453 0.03275 0.61481 0.0
H3795 H 0.7726 0.05861 0.61406 0.0
H3796 H 0.75261 0.01237 0.58402 0.0
H3797 H 0.75493 0.00507 0.6424 0.0
H3798 H 0.74882 0.02126 0.63434 0.0
H3799 H 0.7674 0.01743 0.63504 0.0
C3800 C 0.7399 0.05008 0.60125 0.0
C3801 C 0.75124 0.05866 0.60565 0.0
C3802 C 0.74101 0.03538 0.60175 0.0
C3803 C 0.75343 0.02898 0.60671 0.0
C3804 C 0.76477 0.0375 0.61116 0.0
H3805 H 0.77355 0.93883 0.61368 0.0
H3806 H 0.77514 0.96475 0.61403 0.0
C3807 C 0.76367 0.05225 0.61067 0.0
C3808 C 0.75459 0.01338 0.6067 0.0
H3809 H 0.7572 0.98457 0.6283 0.0
C3810 C 0.75365 0.00628 0.59369 0.0
C3811 C 0.75605 0.00552 0.61934 0.0
C3812 C 0.75676 0.01265 0.6336 0.0
C3813 C 0.75398 0.99148 0.59299 0.0
C3814 C 0.75504 0.9836 0.60565 0.0
C3815 C 0.75636 0.99068 0.61863 0.0
C3816 C 0.75409 0.96798 0.60564 0.0
C3817 C 0.75322 0.98439 0.57869 0.0
C3818 C 0.74165 0.9613 0.60104 0.0
C3819 C 0.74071 0.94657 0.60083 0.0
C3820 C 0.75218 0.93826 0.6053 0.0
C3821 C 0.76456 0.94497 0.61013 0.0
C3822 C 0.76549 0.95975 0.61035 0.0
H3823 H 0.75636 0.99172 0.57005 0.0
H3824 H 0.76015 0.97492 0.5783 0.0
H3825 H 0.74218 0.98091 0.57667 0.0
H3826 H 0.73265 0.96749 0.59761 0.0
H3827 H 0.73101 0.9417 0.59713 0.0
H3828 H 0.77411 0.05841 0.383 0.0
H3829 H 0.77567 0.03258 0.38108 0.0
H3830 H 0.73163 0.02895 0.39249 0.0
H3831 H 0.72995 0.05468 0.39431 0.0
H3832 H 0.77023 0.01266 0.40247 0.0
H3833 H 0.73449 0.0047 0.35662 0.0
H3834 H 0.74194 0.02175 0.36108 0.0
H3835 H 0.72676 0.01513 0.37049 0.0
C3836 C 0.76474 0.0521 0.38499 0.0
C3837 C 0.75189 0.05855 0.38876 0.0
C3838 C 0.76566 0.03737 0.38389 0.0
C3839 C 0.75371 0.0289 0.38642 0.0
C3840 C 0.74089 0.03533 0.3902 0.0
H3841 H 0.73104 0.94215 0.39697 0.0
H3842 H 0.7327 0.96788 0.3949 0.0
C3843 C 0.73997 0.05002 0.39132 0.0
C3844 C 0.75472 0.0133 0.38579 0.0
H3845 H 0.73998 0.98415 0.37031 0.0
C3846 C 0.76377 0.0064 0.39531 0.0
C3847 C 0.7463 0.00521 0.37641 0.0
C3848 C 0.73692 0.01207 0.36547 0.0
C3849 C 0.76415 0.99158 0.39615 0.0
C3850 C 0.75538 0.98351 0.38708 0.0
C3851 C 0.74664 0.9904 0.37728 0.0
C3852 C 0.75456 0.96792 0.38811 0.0
C3853 C 0.77347 0.98468 0.40711 0.0
C3854 C 0.76628 0.95945 0.38483 0.0
C3855 C 0.76536 0.94472 0.386 0.0
C3856 C 0.7527 0.93828 0.39044 0.0
C3857 C 0.74095 0.94681 0.39356 0.0
C3858 C 0.74187 0.9615 0.39236 0.0
H3859 H 0.7775 0.99241 0.41501 0.0
H3860 H 0.76761 0.97619 0.41276 0.0
H3861 H 0.78269 0.97976 0.40179 0.0
H3862 H 0.7761 0.96422 0.38133 0.0
H3863 H 0.77457 0.9384 0.38347 0.0
H3864 H 0.93862 0.7711 0.38259 0.0
H3865 H 0.96444 0.77219 0.38018 0.0
H3866 H 0.96762 0.72938 0.39563 0.0
H3867 H 0.9419 0.72816 0.39793 0.0
H3868 H 0.98471 0.76853 0.40162 0.0
H3869 H 0.99117 0.7285 0.35923 0.0
H3870 H 0.97433 0.73653 0.36329 0.0
H3871 H 0.98096 0.72228 0.37399 0.0
C3872 C 0.94484 0.7619 0.38539 0.0
C3873 C 0.93826 0.74953 0.3904 0.0
C3874 C 0.95956 0.76254 0.384 0.0
C3875 C 0.9679 0.75079 0.38751 0.0
C3876 C 0.96135 0.73846 0.39257 0.0
H3877 H 0.05497 0.72855 0.39733 0.0
H3878 H 0.02919 0.72996 0.39576 0.0
C3879 C 0.94666 0.73781 0.39397 0.0
C3880 C 0.9835 0.75154 0.38649 0.0
H3881 H 0.0121 0.7352 0.37177 0.0
C3882 C 0.99072 0.76138 0.39497 0.0
C3883 C 0.99127 0.74219 0.37778 0.0
C3884 C 0.98404 0.73187 0.36795 0.0
C3885 C 0.00557 0.76171 0.39543 0.0
C3886 C 0.01333 0.7521 0.38701 0.0
C3887 C 0.0061 0.74251 0.37825 0.0
C3888 C 0.02895 0.75135 0.38763 0.0
C3889 C 0.01281 0.77195 0.40534 0.0
C3890 C 0.03734 0.76286 0.38339 0.0
C3891 C 0.05209 0.7621 0.38431 0.0
C3892 C 0.05865 0.74978 0.3894 0.0
C3893 C 0.05021 0.7382 0.3934 0.0
C3894 C 0.03549 0.73897 0.39249 0.0
H3895 H 0.00535 0.77646 0.41322 0.0
H3896 H 0.0216 0.7667 0.41108 0.0
H3897 H 0.01734 0.78082 0.39912 0.0
H3898 H 0.03248 0.77242 0.37938 0.0
H3899 H 0.05833 0.77116 0.38108 0.0
H3900 H 0.22566 0.05731 0.3826 0.0
H3901 H 0.22442 0.03138 0.38222 0.0
H3902 H 0.26672 0.02917 0.39919 0.0
H3903 H 0.26801 0.055 0.39973 0.0
H3904 H 0.24262 0.01169 0.36827 0.0
H3905 H 0.24305 0.00481 0.42658 0.0
H3906 H 0.23926 0.02155 0.41822 0.0
H3907 H 0.25723 0.01561 0.41995 0.0
C3908 C 0.23468 0.05128 0.38625 0.0
C3909 C 0.2469 0.05816 0.39127 0.0
C3910 C 0.23396 0.0365 0.38601 0.0
C3911 C 0.24539 0.0284 0.39089 0.0
C3912 C 0.25769 0.03525 0.39564 0.0
H3913 H 0.26775 0.94098 0.40029 0.0
H3914 H 0.26651 0.96679 0.39926 0.0
C3915 C 0.25843 0.05 0.39587 0.0
C3916 C 0.24458 0.01278 0.39094 0.0
H3917 H 0.24658 0.98409 0.41273 0.0
C3918 C 0.24335 0.00562 0.37798 0.0
C3919 C 0.24551 0.00495 0.40364 0.0
C3920 C 0.2462 0.0121 0.41791 0.0
C3921 C 0.24354 0.99078 0.37735 0.0
C3922 C 0.24477 0.98296 0.39005 0.0
C3923 C 0.24571 0.99013 0.40302 0.0
C3924 C 0.24551 0.96732 0.39014 0.0
C3925 C 0.2429 0.9836 0.3631 0.0
C3926 C 0.23408 0.95909 0.38541 0.0
C3927 C 0.23477 0.94432 0.38596 0.0
C3928 C 0.24687 0.93758 0.39134 0.0
C3929 C 0.25829 0.94587 0.39607 0.0
C3930 C 0.2576 0.96061 0.39551 0.0
H3931 H 0.24521 0.99107 0.35433 0.0
H3932 H 0.25053 0.9747 0.36258 0.0
H3933 H 0.23212 0.97924 0.36143 0.0
H3934 H 0.22455 0.96408 0.38148 0.0
H3935 H 0.22578 0.93819 0.3823 0.0
H3936 H 0.05595 0.26662 0.39807 0.0
H3937 H 0.03017 0.2652 0.39613 0.0
H3938 H 0.03352 0.22279 0.37962 0.0
H3939 H 0.05935 0.22408 0.38162 0.0
H3940 H 0.01358 0.25964 0.37131 0.0
H3941 H 0.00572 0.21916 0.41336 0.0
H3942 H 0.02195 0.22913 0.41161 0.0
H3943 H 0.01821 0.21479 0.3997 0.0
C3944 C 0.0512 0.25698 0.39404 0.0
C3945 C 0.05964 0.24543 0.39006 0.0
C3946 C 0.03649 0.2562 0.39292 0.0
C3947 C 0.02997 0.24384 0.38788 0.0
C3948 C 0.03836 0.23234 0.38373 0.0
H3949 H 0.93966 0.22398 0.38174 0.0
H3950 H 0.9655 0.22284 0.37969 0.0
C3951 C 0.0531 0.23312 0.38483 0.0
C3952 C 0.01437 0.24311 0.38695 0.0
H3953 H 0.98537 0.22704 0.40132 0.0
C3954 C 0.00739 0.25248 0.37782 0.0
C3955 C 0.00639 0.23369 0.39541 0.0
C3956 C 0.01339 0.22367 0.40567 0.0
C3957 C 0.99258 0.25278 0.37701 0.0
C3958 C 0.98458 0.24365 0.38576 0.0
C3959 C 0.99156 0.23402 0.39463 0.0
C3960 C 0.96896 0.24445 0.38645 0.0
C3961 C 0.98563 0.26284 0.36676 0.0
C3962 C 0.9624 0.25693 0.39105 0.0
C3963 C 0.9477 0.25761 0.39223 0.0
C3964 C 0.93929 0.24578 0.38892 0.0
C3965 C 0.94588 0.23327 0.38432 0.0
C3966 C 0.96061 0.2326 0.38316 0.0
H3967 H 0.99295 0.26592 0.35809 0.0
H3968 H 0.97596 0.25808 0.36204 0.0
H3969 H 0.98252 0.27261 0.37248 0.0
H3970 H 0.96867 0.26609 0.39395 0.0
H3971 H 0.94293 0.26737 0.39587 0.0
H3972 H 0.22502 0.05858 0.61576 0.0
H3973 H 0.22361 0.03272 0.6176 0.0
H3974 H 0.26331 0.02904 0.59543 0.0
H3975 H 0.26483 0.05478 0.5936 0.0
H3976 H 0.22397 0.01245 0.5949 0.0
H3977 H 0.26903 0.0055 0.63189 0.0
H3978 H 0.26037 0.02232 0.62927 0.0
H3979 H 0.27309 0.01604 0.61661 0.0
C3980 C 0.23345 0.05225 0.61132 0.0
C3981 C 0.24507 0.05868 0.6046 0.0
C3982 C 0.23263 0.03751 0.61237 0.0
C3983 C 0.24346 0.02903 0.60684 0.0
C3984 C 0.25497 0.03543 0.59999 0.0
H3985 H 0.26415 0.94192 0.59488 0.0
H3986 H 0.26282 0.96771 0.59624 0.0
C3987 C 0.25579 0.05013 0.5989 0.0
C3988 C 0.24267 0.01345 0.60787 0.0
H3989 H 0.26043 0.9847 0.62045 0.0
C3990 C 0.23182 0.00634 0.60061 0.0
C3991 C 0.25294 0.00559 0.61536 0.0
C3992 C 0.26445 0.01273 0.62384 0.0
C3993 C 0.23132 0.99151 0.60014 0.0
C3994 C 0.24182 0.98365 0.60733 0.0
C3995 C 0.25244 0.99078 0.61491 0.0
C3996 C 0.24241 0.96803 0.60659 0.0
C3997 C 0.21993 0.98437 0.59149 0.0
C3998 C 0.23142 0.95968 0.61209 0.0
C3999 C 0.23213 0.94493 0.61129 0.0
C4000 C 0.24389 0.93832 0.60506 0.0
C4001 C 0.25494 0.94672 0.59971 0.0
C4002 C 0.25421 0.96144 0.60049 0.0
H4003 H 0.21462 0.99188 0.58419 0.0
H4004 H 0.22438 0.97552 0.58519 0.0
H4005 H 0.21179 0.97995 0.59871 0.0
H4006 H 0.22234 0.96457 0.61707 0.0
H4007 H 0.22349 0.93871 0.61557 0.0
H4008 H 0.93812 0.22499 0.6177 0.0
H4009 H 0.96393 0.22364 0.62008 0.0
H4010 H 0.968 0.26449 0.60013 0.0
H4011 H 0.94231 0.266 0.59789 0.0
H4012 H 0.98407 0.22435 0.59858 0.0
H4013 H 0.992 0.269 0.63576 0.0
H4014 H 0.97488 0.26103 0.6327 0.0
H4015 H 0.98187 0.27383 0.62045 0.0
C4016 C 0.94453 0.23372 0.61392 0.0
C4017 C 0.93822 0.24563 0.60767 0.0
C4018 C 0.95925 0.23293 0.61528 0.0
C4019 C 0.96784 0.24407 0.6105 0.0
C4020 C 0.96154 0.25592 0.60419 0.0
H4021 H 0.05433 0.26411 0.59532 0.0
H4022 H 0.02862 0.2627 0.59774 0.0
C4023 C 0.94687 0.25673 0.60284 0.0
C4024 C 0.98343 0.24313 0.61148 0.0
H4025 H 0.01258 0.26085 0.62342 0.0
C4026 C 0.99032 0.2322 0.60418 0.0
C4027 C 0.99153 0.25336 0.61884 0.0
C4028 C 0.98469 0.26489 0.6275 0.0
C4029 C 0.00515 0.23163 0.60347 0.0
C4030 C 0.01321 0.24218 0.61039 0.0
C4031 C 0.00633 0.25283 0.61807 0.0
C4032 C 0.02879 0.24284 0.60911 0.0
C4033 C 0.01205 0.22013 0.59483 0.0
C4034 C 0.03737 0.23218 0.61482 0.0
C4035 C 0.05209 0.23295 0.61345 0.0
C4036 C 0.05841 0.24442 0.60638 0.0
C4037 C 0.04977 0.25513 0.60079 0.0
C4038 C 0.03509 0.25436 0.60218 0.0
H4039 H 0.00431 0.21441 0.58806 0.0
H4040 H 0.02049 0.22461 0.58798 0.0
H4041 H 0.01704 0.21234 0.60206 0.0
H4042 H 0.03269 0.22332 0.62039 0.0
H4043 H 0.0585 0.22458 0.61791 0.0
H4044 H 0.05696 0.76949 0.58459 0.0
H4045 H 0.03122 0.77189 0.58579 0.0
H4046 H 0.03107 0.7509 0.62632 0.0
H4047 H 0.05683 0.74882 0.62536 0.0
H4048 H 0.01284 0.75045 0.58626 0.0
H4049 H 0.00469 0.78348 0.63393 0.0
H4050 H 0.02174 0.78172 0.6255 0.0
H4051 H 0.01547 0.7683 0.63747 0.0
C4052 C 0.05145 0.76563 0.59388 0.0
C4053 C 0.05888 0.75897 0.60489 0.0
C4054 C 0.03676 0.76699 0.59454 0.0
C4055 C 0.02923 0.76172 0.60621 0.0
C4056 C 0.03667 0.75536 0.61737 0.0
H4057 H 0.943 0.73188 0.60571 0.0
H4058 H 0.96872 0.73472 0.606 0.0
C4059 C 0.05139 0.75409 0.61677 0.0
C4060 C 0.01355 0.76169 0.60609 0.0
H4061 H 0.98441 0.7707 0.62543 0.0
C4062 C 0.00662 0.75501 0.59476 0.0
C4063 C 0.00544 0.76778 0.6171 0.0
C4064 C 0.01221 0.77585 0.62911 0.0
C4065 C 0.99184 0.75391 0.59431 0.0
C4066 C 0.98378 0.75931 0.60569 0.0
C4067 C 0.99064 0.76638 0.61682 0.0
C4068 C 0.96821 0.75762 0.60623 0.0
C4069 C 0.98502 0.74705 0.58159 0.0
C4070 C 0.9594 0.76954 0.60682 0.0
C4071 C 0.94469 0.76794 0.60682 0.0
C4072 C 0.93857 0.75438 0.60625 0.0
C4073 C 0.94742 0.74246 0.60602 0.0
C4074 C 0.96211 0.74407 0.60611 0.0
H4075 H 0.99211 0.74732 0.57222 0.0
H4076 H 0.9827 0.7358 0.58402 0.0
H4077 H 0.97492 0.75235 0.5788 0.0
H4078 H 0.96391 0.78009 0.60701 0.0
H4079 H 0.93813 0.77732 0.60705 0.0
loop_
_geom_bond_atom_site_label_1
_geom_bond_atom_site_label_2
_geom_bond_distance
_geom_bond_site_symmetry_2
_ccdc_geom_bond_type
In0 O1 2.294 . S
In0 O2 2.326 . S
In0 O6 2.266 . S
In0 O7 2.326 . S
In0 O8 2.266 . S
In0 O9 2.326 . S
In0 O11 2.294 . S
In0 O12 2.326 . S
O1 In0 2.294 . S
O1 C10 1.240 . S
O2 In0 2.326 . S
O2 C10 1.252 . S
C3 O6 1.252 . S
C3 O7 1.260 . S
C4 O11 1.240 . S
C4 O12 1.252 . S
C5 O8 1.252 . S
C5 O9 1.260 . S
O6 In0 2.266 . S
O6 C3 1.252 . S
O7 In0 2.326 . S
O7 C3 1.260 . S
O8 In0 2.266 . S
O8 C5 1.252 . S
O9 In0 2.326 . S
O9 C5 1.260 . S
C10 O1 1.240 . S
C10 O2 1.252 . S
O11 In0 2.294 . S
O11 C4 1.240 . S
O12 In0 2.326 . S
O12 C4 1.252 . S
In13 O14 2.294 . S
In13 O15 2.326 . S
In13 O19 2.266 . S
In13 O20 2.326 . S
In13 O21 2.266 . S
In13 O22 2.326 . S
In13 O24 2.294 . S
In13 O25 2.326 . S
O14 In13 2.294 . S
O14 C23 1.240 . S
O15 In13 2.326 . S
O15 C23 1.252 . S
C16 O19 1.252 . S
C16 O20 1.260 . S
C17 O24 1.240 . S
C17 O25 1.252 . S
C18 O21 1.252 . S
C18 O22 1.260 . S
O19 In13 2.266 . S
O19 C16 1.252 . S
O20 In13 2.326 . S
O20 C16 1.260 . S
O21 In13 2.266 . S
O21 C18 1.252 . S
O22 In13 2.326 . S
O22 C18 1.260 . S
C23 O14 1.240 . S
C23 O15 1.252 . S
O24 In13 2.294 . S
O24 C17 1.240 . S
O25 In13 2.326 . S
O25 C17 1.252 . S
In26 O27 2.294 . S
In26 O28 2.326 . S
In26 O32 2.266 . S
In26 O33 2.326 . S
In26 O34 2.266 . S
In26 O35 2.326 . S
In26 O37 2.294 . S
In26 O38 2.326 . S
O27 In26 2.294 . S
O27 C36 1.240 . S
O28 In26 2.326 . S
O28 C36 1.252 . S
C29 O32 1.252 . S
C29 O33 1.260 . S
C30 O37 1.240 . S
C30 O38 1.252 . S
C31 O34 1.252 . S
C31 O35 1.260 . S
O32 In26 2.266 . S
O32 C29 1.252 . S
O33 In26 2.326 . S
O33 C29 1.260 . S
O34 In26 2.266 . S
O34 C31 1.252 . S
O35 In26 2.326 . S
O35 C31 1.260 . S
C36 O27 1.240 . S
C36 O28 1.252 . S
O37 In26 2.294 . S
O37 C30 1.240 . S
O38 In26 2.326 . S
O38 C30 1.252 . S
In39 O40 2.294 . S
In39 O41 2.326 . S
In39 O45 2.266 . S
In39 O46 2.326 . S
In39 O47 2.266 . S
In39 O48 2.326 . S
In39 O50 2.294 . S
In39 O51 2.326 . S
O40 In39 2.294 . S
O40 C49 1.240 . S
O41 In39 2.326 . S
O41 C49 1.252 . S
C42 O45 1.252 . S
C42 O46 1.260 . S
C43 O50 1.240 . S
C43 O51 1.252 . S
C44 O47 1.252 . S
C44 O48 1.260 . S
O45 In39 2.266 . S
O45 C42 1.252 . S
O46 In39 2.326 . S
O46 C42 1.260 . S
O47 In39 2.266 . S
O47 C44 1.252 . S
O48 In39 2.326 . S
O48 C44 1.260 . S
C49 O40 1.240 . S
C49 O41 1.252 . S
O50 In39 2.294 . S
O50 C43 1.240 . S
O51 In39 2.326 . S
O51 C43 1.252 . S
In52 O53 2.294 . S
In52 O54 2.326 . S
In52 O58 2.266 . S
In52 O59 2.326 . S
In52 O60 2.266 . S
In52 O61 2.326 . S
In52 O63 2.294 . S
In52 O64 2.326 . S
O53 In52 2.294 . S
O53 C62 1.240 . S
O54 In52 2.326 . S
O54 C62 1.252 . S
C55 O58 1.252 . S
C55 O59 1.260 . S
C56 O63 1.240 . S
C56 O64 1.252 . S
C57 O60 1.252 . S
C57 O61 1.260 . S
O58 In52 2.266 . S
O58 C55 1.252 . S
O59 In52 2.326 . S
O59 C55 1.260 . S
O60 In52 2.266 . S
O60 C57 1.252 . S
O61 In52 2.326 . S
O61 C57 1.260 . S
C62 O53 1.240 . S
C62 O54 1.252 . S
O63 In52 2.294 . S
O63 C56 1.240 . S
O64 In52 2.326 . S
O64 C56 1.252 . S
In65 O66 2.294 . S
In65 O67 2.326 . S
In65 O71 2.266 . S
In65 O72 2.326 . S
In65 O73 2.266 . S
In65 O74 2.326 . S
In65 O76 2.294 . S
In65 O77 2.326 . S
O66 In65 2.294 . S
O66 C75 1.240 . S
O67 In65 2.326 . S
O67 C75 1.252 . S
C68 O71 1.252 . S
C68 O72 1.260 . S
C69 O76 1.240 . S
C69 O77 1.252 . S
C70 O73 1.252 . S
C70 O74 1.260 . S
O71 In65 2.266 . S
O71 C68 1.252 . S
O72 In65 2.326 . S
O72 C68 1.260 . S
O73 In65 2.266 . S
O73 C70 1.252 . S
O74 In65 2.326 . S
O74 C70 1.260 . S
C75 O66 1.240 . S
C75 O67 1.252 . S
O76 In65 2.294 . S
O76 C69 1.240 . S
O77 In65 2.326 . S
O77 C69 1.252 . S
In78 O79 2.294 . S
In78 O80 2.326 . S
In78 O84 2.266 . S
In78 O85 2.326 . S
In78 O86 2.266 . S
In78 O87 2.326 . S
In78 O89 2.294 . S
In78 O90 2.326 . S
O79 In78 2.294 . S
O79 C88 1.240 . S
O80 In78 2.326 . S
O80 C88 1.252 . S
C81 O84 1.252 . S
C81 O85 1.260 . S
C82 O89 1.240 . S
C82 O90 1.252 . S
C83 O86 1.252 . S
C83 O87 1.260 . S
O84 In78 2.266 . S
O84 C81 1.252 . S
O85 In78 2.326 . S
O85 C81 1.260 . S
O86 In78 2.266 . S
O86 C83 1.252 . S
O87 In78 2.326 . S
O87 C83 1.260 . S
C88 O79 1.240 . S
C88 O80 1.252 . S
O89 In78 2.294 . S
O89 C82 1.240 . S
O90 In78 2.326 . S
O90 C82 1.252 . S
In91 O92 2.294 . S
In91 O93 2.326 . S
In91 O97 2.266 . S
In91 O98 2.326 . S
In91 O99 2.266 . S
In91 O100 2.326 . S
In91 O102 2.294 . S
In91 O103 2.326 . S
O92 In91 2.294 . S
O92 C101 1.240 . S
O93 In91 2.326 . S
O93 C101 1.252 . S
C94 O97 1.252 . S
C94 O98 1.260 . S
C95 O102 1.240 . S
C95 O103 1.252 . S
C96 O99 1.252 . S
C96 O100 1.260 . S
O97 In91 2.266 . S
O97 C94 1.252 . S
O98 In91 2.326 . S
O98 C94 1.260 . S
O99 In91 2.266 . S
O99 C96 1.252 . S
O100 In91 2.326 . S
O100 C96 1.260 . S
C101 O92 1.240 . S
C101 O93 1.252 . S
O102 In91 2.294 . S
O102 C95 1.240 . S
O103 In91 2.326 . S
O103 C95 1.252 . S
In104 O105 2.294 . S
In104 O106 2.326 . S
In104 O110 2.266 . S
In104 O111 2.326 . S
In104 O112 2.266 . S
In104 O113 2.326 . S
In104 O115 2.294 . S
In104 O116 2.326 . S
O105 In104 2.294 . S
O105 C114 1.240 . S
O106 In104 2.326 . S
O106 C114 1.252 . S
C107 O110 1.252 . S
C107 O111 1.260 . S
C108 O115 1.240 . S
C108 O116 1.252 . S
C109 O112 1.252 . S
C109 O113 1.260 . S
O110 In104 2.266 . S
O110 C107 1.252 . S
O111 In104 2.326 . S
O111 C107 1.260 . S
O112 In104 2.266 . S
O112 C109 1.252 . S
O113 In104 2.326 . S
O113 C109 1.260 . S
C114 O105 1.240 . S
C114 O106 1.252 . S
O115 In104 2.294 . S
O115 C108 1.240 . S
O116 In104 2.326 . S
O116 C108 1.252 . S
In117 O118 2.294 . S
In117 O119 2.326 . S
In117 O123 2.266 . S
In117 O124 2.326 . S
In117 O125 2.266 . S
In117 O126 2.326 . S
In117 O128 2.294 . S
In117 O129 2.326 . S
O118 In117 2.294 . S
O118 C127 1.240 . S
O119 In117 2.326 . S
O119 C127 1.252 . S
C120 O123 1.252 . S
C120 O124 1.260 . S
C121 O128 1.240 . S
C121 O129 1.252 . S
C122 O125 1.252 . S
C122 O126 1.260 . S
O123 In117 2.266 . S
O123 C120 1.252 . S
O124 In117 2.326 . S
O124 C120 1.260 . S
O125 In117 2.266 . S
O125 C122 1.252 . S
O126 In117 2.326 . S
O126 C122 1.260 . S
C127 O118 1.240 . S
C127 O119 1.252 . S
O128 In117 2.294 . S
O128 C121 1.240 . S
O129 In117 2.326 . S
O129 C121 1.252 . S
In130 O131 2.294 . S
In130 O132 2.326 . S
In130 O136 2.266 . S
In130 O137 2.326 . S
In130 O138 2.266 . S
In130 O139 2.326 . S
In130 O141 2.294 . S
In130 O142 2.326 . S
O131 In130 2.294 . S
O131 C140 1.240 . S
O132 In130 2.326 . S
O132 C140 1.252 . S
C133 O136 1.252 . S
C133 O137 1.260 . S
C134 O141 1.240 . S
C134 O142 1.252 . S
C135 O138 1.252 . S
C135 O139 1.260 . S
O136 In130 2.266 . S
O136 C133 1.252 . S
O137 In130 2.326 . S
O137 C133 1.260 . S
O138 In130 2.266 . S
O138 C135 1.252 . S
O139 In130 2.326 . S
O139 C135 1.260 . S
C140 O131 1.240 . S
C140 O132 1.252 . S
O141 In130 2.294 . S
O141 C134 1.240 . S
O142 In130 2.326 . S
O142 C134 1.252 . S
In143 O144 2.294 . S
In143 O145 2.326 . S
In143 O149 2.266 . S
In143 O150 2.326 . S
In143 O151 2.266 . S
In143 O152 2.326 . S
In143 O154 2.294 . S
In143 O155 2.326 . S
O144 In143 2.294 . S
O144 C153 1.240 . S
O145 In143 2.326 . S
O145 C153 1.252 . S
C146 O149 1.252 . S
C146 O150 1.260 . S
C147 O154 1.240 . S
C147 O155 1.252 . S
C148 O151 1.252 . S
C148 O152 1.260 . S
O149 In143 2.266 . S
O149 C146 1.252 . S
O150 In143 2.326 . S
O150 C146 1.260 . S
O151 In143 2.266 . S
O151 C148 1.252 . S
O152 In143 2.326 . S
O152 C148 1.260 . S
C153 O144 1.240 . S
C153 O145 1.252 . S
O154 In143 2.294 . S
O154 C147 1.240 . S
O155 In143 2.326 . S
O155 C147 1.252 . S
In156 O157 2.294 . S
In156 O158 2.326 . S
In156 O162 2.266 . S
In156 O163 2.326 . S
In156 O164 2.266 . S
In156 O165 2.326 . S
In156 O167 2.294 . S
In156 O168 2.326 . S
O157 In156 2.294 . S
O157 C166 1.240 . S
O158 In156 2.326 . S
O158 C166 1.252 . S
C159 O162 1.252 . S
C159 O163 1.260 . S
C160 O167 1.240 . S
C160 O168 1.252 . S
C161 O164 1.252 . S
C161 O165 1.260 . S
O162 In156 2.266 . S
O162 C159 1.252 . S
O163 In156 2.326 . S
O163 C159 1.260 . S
O164 In156 2.266 . S
O164 C161 1.252 . S
O165 In156 2.326 . S
O165 C161 1.260 . S
C166 O157 1.240 . S
C166 O158 1.252 . S
O167 In156 2.294 . S
O167 C160 1.240 . S
O168 In156 2.326 . S
O168 C160 1.252 . S
In169 O170 2.294 . S
In169 O171 2.326 . S
In169 O175 2.266 . S
In169 O176 2.326 . S
In169 O177 2.266 . S
In169 O178 2.326 . S
In169 O180 2.294 . S
In169 O181 2.326 . S
O170 In169 2.294 . S
O170 C179 1.240 . S
O171 In169 2.326 . S
O171 C179 1.252 . S
C172 O175 1.252 . S
C172 O176 1.260 . S
C173 O180 1.240 . S
C173 O181 1.252 . S
C174 O177 1.252 . S
C174 O178 1.260 . S
O175 In169 2.266 . S
O175 C172 1.252 . S
O176 In169 2.326 . S
O176 C172 1.260 . S
O177 In169 2.266 . S
O177 C174 1.252 . S
O178 In169 2.326 . S
O178 C174 1.260 . S
C179 O170 1.240 . S
C179 O171 1.252 . S
O180 In169 2.294 . S
O180 C173 1.240 . S
O181 In169 2.326 . S
O181 C173 1.252 . S
In182 O183 2.294 . S
In182 O184 2.326 . S
In182 O188 2.266 . S
In182 O189 2.326 . S
In182 O190 2.266 . S
In182 O191 2.326 . S
In182 O193 2.294 . S
In182 O194 2.326 . S
O183 In182 2.294 . S
O183 C192 1.240 . S
O184 In182 2.326 . S
O184 C192 1.252 . S
C185 O188 1.252 . S
C185 O189 1.260 . S
C186 O193 1.240 . S
C186 O194 1.252 . S
C187 O190 1.252 . S
C187 O191 1.260 . S
O188 In182 2.266 . S
O188 C185 1.252 . S
O189 In182 2.326 . S
O189 C185 1.260 . S
O190 In182 2.266 . S
O190 C187 1.252 . S
O191 In182 2.326 . S
O191 C187 1.260 . S
C192 O183 1.240 . S
C192 O184 1.252 . S
O193 In182 2.294 . S
O193 C186 1.240 . S
O194 In182 2.326 . S
O194 C186 1.252 . S
In195 O196 2.294 . S
In195 O197 2.326 . S
In195 O201 2.266 . S
In195 O202 2.326 . S
In195 O203 2.266 . S
In195 O204 2.326 . S
In195 O206 2.294 . S
In195 O207 2.326 . S
O196 In195 2.294 . S
O196 C205 1.240 . S
O197 In195 2.326 . S
O197 C205 1.252 . S
C198 O201 1.252 . S
C198 O202 1.260 . S
C199 O206 1.240 . S
C199 O207 1.252 . S
C200 O203 1.252 . S
C200 O204 1.260 . S
O201 In195 2.266 . S
O201 C198 1.252 . S
O202 In195 2.326 . S
O202 C198 1.260 . S
O203 In195 2.266 . S
O203 C200 1.252 . S
O204 In195 2.326 . S
O204 C200 1.260 . S
C205 O196 1.240 . S
C205 O197 1.252 . S
O206 In195 2.294 . S
O206 C199 1.240 . S
O207 In195 2.326 . S
O207 C199 1.252 . S
In208 O209 2.294 . S
In208 O210 2.326 . S
In208 O214 2.266 . S
In208 O215 2.326 . S
In208 O216 2.266 . S
In208 O217 2.326 . S
In208 O219 2.294 . S
In208 O220 2.326 . S
O209 In208 2.294 . S
O209 C218 1.240 . S
O210 In208 2.326 . S
O210 C218 1.252 . S
C211 O214 1.252 . S
C211 O215 1.260 . S
C212 O219 1.240 . S
C212 O220 1.252 . S
C213 O216 1.252 . S
C213 O217 1.260 . S
O214 In208 2.266 . S
O214 C211 1.252 . S
O215 In208 2.326 . S
O215 C211 1.260 . S
O216 In208 2.266 . S
O216 C213 1.252 . S
O217 In208 2.326 . S
O217 C213 1.260 . S
C218 O209 1.240 . S
C218 O210 1.252 . S
O219 In208 2.294 . S
O219 C212 1.240 . S
O220 In208 2.326 . S
O220 C212 1.252 . S
In221 O222 2.294 . S
In221 O223 2.326 . S
In221 O227 2.266 . S
In221 O228 2.326 . S
In221 O229 2.266 . S
In221 O230 2.326 . S
In221 O232 2.294 . S
In221 O233 2.326 . S
O222 In221 2.294 . S
O222 C231 1.240 . S
O223 In221 2.326 . S
O223 C231 1.252 . S
C224 O227 1.252 . S
C224 O228 1.260 . S
C225 O232 1.240 . S
C225 O233 1.252 . S
C226 O229 1.252 . S
C226 O230 1.260 . S
O227 In221 2.266 . S
O227 C224 1.252 . S
O228 In221 2.326 . S
O228 C224 1.260 . S
O229 In221 2.266 . S
O229 C226 1.252 . S
O230 In221 2.326 . S
O230 C226 1.260 . S
C231 O222 1.240 . S
C231 O223 1.252 . S
O232 In221 2.294 . S
O232 C225 1.240 . S
O233 In221 2.326 . S
O233 C225 1.252 . S
In234 O235 2.294 . S
In234 O236 2.326 . S
In234 O240 2.266 . S
In234 O241 2.326 . S
In234 O242 2.266 . S
In234 O243 2.326 . S
In234 O245 2.294 . S
In234 O246 2.326 . S
O235 In234 2.294 . S
O235 C244 1.240 . S
O236 In234 2.326 . S
O236 C244 1.252 . S
C237 O240 1.252 . S
C237 O241 1.260 . S
C238 O245 1.240 . S
C238 O246 1.252 . S
C239 O242 1.252 . S
C239 O243 1.260 . S
O240 In234 2.266 . S
O240 C237 1.252 . S
O241 In234 2.326 . S
O241 C237 1.260 . S
O242 In234 2.266 . S
O242 C239 1.252 . S
O243 In234 2.326 . S
O243 C239 1.260 . S
C244 O235 1.240 . S
C244 O236 1.252 . S
O245 In234 2.294 . S
O245 C238 1.240 . S
O246 In234 2.326 . S
O246 C238 1.252 . S
In247 O248 2.294 . S
In247 O249 2.326 . S
In247 O253 2.266 . S
In247 O254 2.326 . S
In247 O255 2.266 . S
In247 O256 2.326 . S
In247 O258 2.294 . S
In247 O259 2.326 . S
O248 In247 2.294 . S
O248 C257 1.240 . S
O249 In247 2.326 . S
O249 C257 1.252 . S
C250 O253 1.252 . S
C250 O254 1.260 . S
C251 O258 1.240 . S
C251 O259 1.252 . S
C252 O255 1.252 . S
C252 O256 1.260 . S
O253 In247 2.266 . S
O253 C250 1.252 . S
O254 In247 2.326 . S
O254 C250 1.260 . S
O255 In247 2.266 . S
O255 C252 1.252 . S
O256 In247 2.326 . S
O256 C252 1.260 . S
C257 O248 1.240 . S
C257 O249 1.252 . S
O258 In247 2.294 . S
O258 C251 1.240 . S
O259 In247 2.326 . S
O259 C251 1.252 . S
In260 O261 2.294 . S
In260 O262 2.326 . S
In260 O266 2.266 . S
In260 O267 2.326 . S
In260 O268 2.266 . S
In260 O269 2.326 . S
In260 O271 2.294 . S
In260 O272 2.326 . S
O261 In260 2.294 . S
O261 C270 1.240 . S
O262 In260 2.326 . S
O262 C270 1.252 . S
C263 O266 1.252 . S
C263 O267 1.260 . S
C264 O271 1.240 . S
C264 O272 1.252 . S
C265 O268 1.252 . S
C265 O269 1.260 . S
O266 In260 2.266 . S
O266 C263 1.252 . S
O267 In260 2.326 . S
O267 C263 1.260 . S
O268 In260 2.266 . S
O268 C265 1.252 . S
O269 In260 2.326 . S
O269 C265 1.260 . S
C270 O261 1.240 . S
C270 O262 1.252 . S
O271 In260 2.294 . S
O271 C264 1.240 . S
O272 In260 2.326 . S
O272 C264 1.252 . S
In273 O274 2.294 . S
In273 O275 2.326 . S
In273 O279 2.266 . S
In273 O280 2.326 . S
In273 O281 2.266 . S
In273 O282 2.326 . S
In273 O284 2.294 . S
In273 O285 2.326 . S
O274 In273 2.294 . S
O274 C283 1.240 . S
O275 In273 2.326 . S
O275 C283 1.252 . S
C276 O279 1.252 . S
C276 O280 1.260 . S
C277 O284 1.240 . S
C277 O285 1.252 . S
C278 O281 1.252 . S
C278 O282 1.260 . S
O279 In273 2.266 . S
O279 C276 1.252 . S
O280 In273 2.326 . S
O280 C276 1.260 . S
O281 In273 2.266 . S
O281 C278 1.252 . S
O282 In273 2.326 . S
O282 C278 1.260 . S
C283 O274 1.240 . S
C283 O275 1.252 . S
O284 In273 2.294 . S
O284 C277 1.240 . S
O285 In273 2.326 . S
O285 C277 1.252 . S
In286 O287 2.294 . S
In286 O288 2.326 . S
In286 O292 2.266 . S
In286 O293 2.326 . S
In286 O294 2.266 . S
In286 O295 2.326 . S
In286 O297 2.294 . S
In286 O298 2.326 . S
O287 In286 2.294 . S
O287 C296 1.240 . S
O288 In286 2.326 . S
O288 C296 1.252 . S
C289 O292 1.252 . S
C289 O293 1.260 . S
C290 O297 1.240 . S
C290 O298 1.252 . S
C291 O294 1.252 . S
C291 O295 1.260 . S
O292 In286 2.266 . S
O292 C289 1.252 . S
O293 In286 2.326 . S
O293 C289 1.260 . S
O294 In286 2.266 . S
O294 C291 1.252 . S
O295 In286 2.326 . S
O295 C291 1.260 . S
C296 O287 1.240 . S
C296 O288 1.252 . S
O297 In286 2.294 . S
O297 C290 1.240 . S
O298 In286 2.326 . S
O298 C290 1.252 . S
In299 O300 2.294 . S
In299 O301 2.326 . S
In299 O305 2.266 . S
In299 O306 2.326 . S
In299 O307 2.266 . S
In299 O308 2.326 . S
In299 O310 2.294 . S
In299 O311 2.326 . S
O300 In299 2.294 . S
O300 C309 1.240 . S
O301 In299 2.326 . S
O301 C309 1.252 . S
C302 O305 1.252 . S
C302 O306 1.260 . S
C303 O310 1.240 . S
C303 O311 1.252 . S
C304 O307 1.252 . S
C304 O308 1.260 . S
O305 In299 2.266 . S
O305 C302 1.252 . S
O306 In299 2.326 . S
O306 C302 1.260 . S
O307 In299 2.266 . S
O307 C304 1.252 . S
O308 In299 2.326 . S
O308 C304 1.260 . S
C309 O300 1.240 . S
C309 O301 1.252 . S
O310 In299 2.294 . S
O310 C303 1.240 . S
O311 In299 2.326 . S
O311 C303 1.252 . S
In312 O313 2.294 . S
In312 O314 2.326 . S
In312 O318 2.266 . S
In312 O319 2.326 . S
In312 O320 2.266 . S
In312 O321 2.326 . S
In312 O323 2.294 . S
In312 O324 2.326 . S
O313 In312 2.294 . S
O313 C322 1.240 . S
O314 In312 2.326 . S
O314 C322 1.252 . S
C315 O318 1.252 . S
C315 O319 1.260 . S
C316 O323 1.240 . S
C316 O324 1.252 . S
C317 O320 1.252 . S
C317 O321 1.260 . S
O318 In312 2.266 . S
O318 C315 1.252 . S
O319 In312 2.326 . S
O319 C315 1.260 . S
O320 In312 2.266 . S
O320 C317 1.252 . S
O321 In312 2.326 . S
O321 C317 1.260 . S
C322 O313 1.240 . S
C322 O314 1.252 . S
O323 In312 2.294 . S
O323 C316 1.240 . S
O324 In312 2.326 . S
O324 C316 1.252 . S
In325 O326 2.294 . S
In325 O327 2.326 . S
In325 O331 2.266 . S
In325 O332 2.326 . S
In325 O333 2.266 . S
In325 O334 2.326 . S
In325 O336 2.294 . S
In325 O337 2.326 . S
O326 In325 2.294 . S
O326 C335 1.240 . S
O327 In325 2.326 . S
O327 C335 1.252 . S
C328 O331 1.252 . S
C328 O332 1.260 . S
C329 O336 1.240 . S
C329 O337 1.252 . S
C330 O333 1.252 . S
C330 O334 1.260 . S
O331 In325 2.266 . S
O331 C328 1.252 . S
O332 In325 2.326 . S
O332 C328 1.260 . S
O333 In325 2.266 . S
O333 C330 1.252 . S
O334 In325 2.326 . S
O334 C330 1.260 . S
C335 O326 1.240 . S
C335 O327 1.252 . S
O336 In325 2.294 . S
O336 C329 1.240 . S
O337 In325 2.326 . S
O337 C329 1.252 . S
In338 O339 2.294 . S
In338 O340 2.326 . S
In338 O344 2.266 . S
In338 O345 2.326 . S
In338 O346 2.266 . S
In338 O347 2.326 . S
In338 O349 2.294 . S
In338 O350 2.326 . S
O339 In338 2.294 . S
O339 C348 1.240 . S
O340 In338 2.326 . S
O340 C348 1.252 . S
C341 O344 1.252 . S
C341 O345 1.260 . S
C342 O349 1.240 . S
C342 O350 1.252 . S
C343 O346 1.252 . S
C343 O347 1.260 . S
O344 In338 2.266 . S
O344 C341 1.252 . S
O345 In338 2.326 . S
O345 C341 1.260 . S
O346 In338 2.266 . S
O346 C343 1.252 . S
O347 In338 2.326 . S
O347 C343 1.260 . S
C348 O339 1.240 . S
C348 O340 1.252 . S
O349 In338 2.294 . S
O349 C342 1.240 . S
O350 In338 2.326 . S
O350 C342 1.252 . S
In351 O352 2.294 . S
In351 O353 2.326 . S
In351 O357 2.266 . S
In351 O358 2.326 . S
In351 O359 2.266 . S
In351 O360 2.326 . S
In351 O362 2.294 . S
In351 O363 2.326 . S
O352 In351 2.294 . S
O352 C361 1.240 . S
O353 In351 2.326 . S
O353 C361 1.252 . S
C354 O357 1.252 . S
C354 O358 1.260 . S
C355 O362 1.240 . S
C355 O363 1.252 . S
C356 O359 1.252 . S
C356 O360 1.260 . S
O357 In351 2.266 . S
O357 C354 1.252 . S
O358 In351 2.326 . S
O358 C354 1.260 . S
O359 In351 2.266 . S
O359 C356 1.252 . S
O360 In351 2.326 . S
O360 C356 1.260 . S
C361 O352 1.240 . S
C361 O353 1.252 . S
O362 In351 2.294 . S
O362 C355 1.240 . S
O363 In351 2.326 . S
O363 C355 1.252 . S
In364 O365 2.294 . S
In364 O366 2.326 . S
In364 O370 2.266 . S
In364 O371 2.326 . S
In364 O372 2.266 . S
In364 O373 2.326 . S
In364 O375 2.294 . S
In364 O376 2.326 . S
O365 In364 2.294 . S
O365 C374 1.240 . S
O366 In364 2.326 . S
O366 C374 1.252 . S
C367 O370 1.252 . S
C367 O371 1.260 . S
C368 O375 1.240 . S
C368 O376 1.252 . S
C369 O372 1.252 . S
C369 O373 1.260 . S
O370 In364 2.266 . S
O370 C367 1.252 . S
O371 In364 2.326 . S
O371 C367 1.260 . S
O372 In364 2.266 . S
O372 C369 1.252 . S
O373 In364 2.326 . S
O373 C369 1.260 . S
C374 O365 1.240 . S
C374 O366 1.252 . S
O375 In364 2.294 . S
O375 C368 1.240 . S
O376 In364 2.326 . S
O376 C368 1.252 . S
In377 O378 2.294 . S
In377 O379 2.326 . S
In377 O383 2.266 . S
In377 O384 2.326 . S
In377 O385 2.266 . S
In377 O386 2.326 . S
In377 O388 2.294 . S
In377 O389 2.326 . S
O378 In377 2.294 . S
O378 C387 1.240 . S
O379 In377 2.326 . S
O379 C387 1.252 . S
C380 O383 1.252 . S
C380 O384 1.260 . S
C381 O388 1.240 . S
C381 O389 1.252 . S
C382 O385 1.252 . S
C382 O386 1.260 . S
O383 In377 2.266 . S
O383 C380 1.252 . S
O384 In377 2.326 . S
O384 C380 1.260 . S
O385 In377 2.266 . S
O385 C382 1.252 . S
O386 In377 2.326 . S
O386 C382 1.260 . S
C387 O378 1.240 . S
C387 O379 1.252 . S
O388 In377 2.294 . S
O388 C381 1.240 . S
O389 In377 2.326 . S
O389 C381 1.252 . S
In390 O391 2.294 . S
In390 O392 2.326 . S
In390 O396 2.266 . S
In390 O397 2.326 . S
In390 O398 2.266 . S
In390 O399 2.326 . S
In390 O401 2.294 . S
In390 O402 2.326 . S
O391 In390 2.294 . S
O391 C400 1.240 . S
O392 In390 2.326 . S
O392 C400 1.252 . S
C393 O396 1.252 . S
C393 O397 1.260 . S
C394 O401 1.240 . S
C394 O402 1.252 . S
C395 O398 1.252 . S
C395 O399 1.260 . S
O396 In390 2.266 . S
O396 C393 1.252 . S
O397 In390 2.326 . S
O397 C393 1.260 . S
O398 In390 2.266 . S
O398 C395 1.252 . S
O399 In390 2.326 . S
O399 C395 1.260 . S
C400 O391 1.240 . S
C400 O392 1.252 . S
O401 In390 2.294 . S
O401 C394 1.240 . S
O402 In390 2.326 . S
O402 C394 1.252 . S
In403 O404 2.294 . S
In403 O405 2.326 . S
In403 O409 2.266 . S
In403 O410 2.326 . S
In403 O411 2.266 . S
In403 O412 2.326 . S
In403 O414 2.294 . S
In403 O415 2.326 . S
O404 In403 2.294 . S
O404 C413 1.240 . S
O405 In403 2.326 . S
O405 C413 1.252 . S
C406 O409 1.252 . S
C406 O410 1.260 . S
C407 O414 1.240 . S
C407 O415 1.252 . S
C408 O411 1.252 . S
C408 O412 1.260 . S
O409 In403 2.266 . S
O409 C406 1.252 . S
O410 In403 2.326 . S
O410 C406 1.260 . S
O411 In403 2.266 . S
O411 C408 1.252 . S
O412 In403 2.326 . S
O412 C408 1.260 . S
C413 O404 1.240 . S
C413 O405 1.252 . S
O414 In403 2.294 . S
O414 C407 1.240 . S
O415 In403 2.326 . S
O415 C407 1.252 . S
In416 O417 2.294 . S
In416 O418 2.326 . S
In416 O422 2.266 . S
In416 O423 2.326 . S
In416 O424 2.266 . S
In416 O425 2.326 . S
In416 O427 2.294 . S
In416 O428 2.326 . S
O417 In416 2.294 . S
O417 C426 1.240 . S
O418 In416 2.326 . S
O418 C426 1.252 . S
C419 O422 1.252 . S
C419 O423 1.260 . S
C420 O427 1.240 . S
C420 O428 1.252 . S
C421 O424 1.252 . S
C421 O425 1.260 . S
O422 In416 2.266 . S
O422 C419 1.252 . S
O423 In416 2.326 . S
O423 C419 1.260 . S
O424 In416 2.266 . S
O424 C421 1.252 . S
O425 In416 2.326 . S
O425 C421 1.260 . S
C426 O417 1.240 . S
C426 O418 1.252 . S
O427 In416 2.294 . S
O427 C420 1.240 . S
O428 In416 2.326 . S
O428 C420 1.252 . S
In429 O430 2.294 . S
In429 O431 2.326 . S
In429 O435 2.266 . S
In429 O436 2.326 . S
In429 O437 2.266 . S
In429 O438 2.326 . S
In429 O440 2.294 . S
In429 O441 2.326 . S
O430 In429 2.294 . S
O430 C439 1.240 . S
O431 In429 2.326 . S
O431 C439 1.252 . S
C432 O435 1.252 . S
C432 O436 1.260 . S
C433 O440 1.240 . S
C433 O441 1.252 . S
C434 O437 1.252 . S
C434 O438 1.260 . S
O435 In429 2.266 . S
O435 C432 1.252 . S
O436 In429 2.326 . S
O436 C432 1.260 . S
O437 In429 2.266 . S
O437 C434 1.252 . S
O438 In429 2.326 . S
O438 C434 1.260 . S
C439 O430 1.240 . S
C439 O431 1.252 . S
O440 In429 2.294 . S
O440 C433 1.240 . S
O441 In429 2.326 . S
O441 C433 1.252 . S
In442 O443 2.294 . S
In442 O444 2.326 . S
In442 O448 2.266 . S
In442 O449 2.326 . S
In442 O450 2.266 . S
In442 O451 2.326 . S
In442 O453 2.294 . S
In442 O454 2.326 . S
O443 In442 2.294 . S
O443 C452 1.240 . S
O444 In442 2.326 . S
O444 C452 1.252 . S
C445 O448 1.252 . S
C445 O449 1.260 . S
C446 O453 1.240 . S
C446 O454 1.252 . S
C447 O450 1.252 . S
C447 O451 1.260 . S
O448 In442 2.266 . S
O448 C445 1.252 . S
O449 In442 2.326 . S
O449 C445 1.260 . S
O450 In442 2.266 . S
O450 C447 1.252 . S
O451 In442 2.326 . S
O451 C447 1.260 . S
C452 O443 1.240 . S
C452 O444 1.252 . S
O453 In442 2.294 . S
O453 C446 1.240 . S
O454 In442 2.326 . S
O454 C446 1.252 . S
In455 O456 2.294 . S
In455 O457 2.326 . S
In455 O461 2.266 . S
In455 O462 2.326 . S
In455 O463 2.266 . S
In455 O464 2.326 . S
In455 O466 2.294 . S
In455 O467 2.326 . S
O456 In455 2.294 . S
O456 C465 1.240 . S
O457 In455 2.326 . S
O457 C465 1.252 . S
C458 O461 1.252 . S
C458 O462 1.260 . S
C459 O466 1.240 . S
C459 O467 1.252 . S
C460 O463 1.252 . S
C460 O464 1.260 . S
O461 In455 2.266 . S
O461 C458 1.252 . S
O462 In455 2.326 . S
O462 C458 1.260 . S
O463 In455 2.266 . S
O463 C460 1.252 . S
O464 In455 2.326 . S
O464 C460 1.260 . S
C465 O456 1.240 . S
C465 O457 1.252 . S
O466 In455 2.294 . S
O466 C459 1.240 . S
O467 In455 2.326 . S
O467 C459 1.252 . S
In468 O469 2.294 . S
In468 O470 2.326 . S
In468 O474 2.266 . S
In468 O475 2.326 . S
In468 O476 2.266 . S
In468 O477 2.326 . S
In468 O479 2.294 . S
In468 O480 2.326 . S
O469 In468 2.294 . S
O469 C478 1.240 . S
O470 In468 2.326 . S
O470 C478 1.252 . S
C471 O474 1.252 . S
C471 O475 1.260 . S
C472 O479 1.240 . S
C472 O480 1.252 . S
C473 O476 1.252 . S
C473 O477 1.260 . S
O474 In468 2.266 . S
O474 C471 1.252 . S
O475 In468 2.326 . S
O475 C471 1.260 . S
O476 In468 2.266 . S
O476 C473 1.252 . S
O477 In468 2.326 . S
O477 C473 1.260 . S
C478 O469 1.240 . S
C478 O470 1.252 . S
O479 In468 2.294 . S
O479 C472 1.240 . S
O480 In468 2.326 . S
O480 C472 1.252 . S
In481 O482 2.294 . S
In481 O483 2.326 . S
In481 O487 2.266 . S
In481 O488 2.326 . S
In481 O489 2.266 . S
In481 O490 2.326 . S
In481 O492 2.294 . S
In481 O493 2.326 . S
O482 In481 2.294 . S
O482 C491 1.240 . S
O483 In481 2.326 . S
O483 C491 1.252 . S
C484 O487 1.252 . S
C484 O488 1.260 . S
C485 O492 1.240 . S
C485 O493 1.252 . S
C486 O489 1.252 . S
C486 O490 1.260 . S
O487 In481 2.266 . S
O487 C484 1.252 . S
O488 In481 2.326 . S
O488 C484 1.260 . S
O489 In481 2.266 . S
O489 C486 1.252 . S
O490 In481 2.326 . S
O490 C486 1.260 . S
C491 O482 1.240 . S
C491 O483 1.252 . S
O492 In481 2.294 . S
O492 C485 1.240 . S
O493 In481 2.326 . S
O493 C485 1.252 . S
In494 O495 2.294 . S
In494 O496 2.326 . S
In494 O500 2.266 . S
In494 O501 2.326 . S
In494 O502 2.266 . S
In494 O503 2.326 . S
In494 O505 2.294 . S
In494 O506 2.326 . S
O495 In494 2.294 . S
O495 C504 1.240 . S
O496 In494 2.326 . S
O496 C504 1.252 . S
C497 O500 1.252 . S
C497 O501 1.260 . S
C498 O505 1.240 . S
C498 O506 1.252 . S
C499 O502 1.252 . S
C499 O503 1.260 . S
O500 In494 2.266 . S
O500 C497 1.252 . S
O501 In494 2.326 . S
O501 C497 1.260 . S
O502 In494 2.266 . S
O502 C499 1.252 . S
O503 In494 2.326 . S
O503 C499 1.260 . S
C504 O495 1.240 . S
C504 O496 1.252 . S
O505 In494 2.294 . S
O505 C498 1.240 . S
O506 In494 2.326 . S
O506 C498 1.252 . S
In507 O508 2.294 . S
In507 O509 2.326 . S
In507 O513 2.266 . S
In507 O514 2.326 . S
In507 O515 2.266 . S
In507 O516 2.326 . S
In507 O518 2.294 . S
In507 O519 2.326 . S
O508 In507 2.294 . S
O508 C517 1.240 . S
O509 In507 2.326 . S
O509 C517 1.252 . S
C510 O513 1.252 . S
C510 O514 1.260 . S
C511 O518 1.240 . S
C511 O519 1.252 . S
C512 O515 1.252 . S
C512 O516 1.260 . S
O513 In507 2.266 . S
O513 C510 1.252 . S
O514 In507 2.326 . S
O514 C510 1.260 . S
O515 In507 2.266 . S
O515 C512 1.252 . S
O516 In507 2.326 . S
O516 C512 1.260 . S
C517 O508 1.240 . S
C517 O509 1.252 . S
O518 In507 2.294 . S
O518 C511 1.240 . S
O519 In507 2.326 . S
O519 C511 1.252 . S
In520 O521 2.294 . S
In520 O522 2.326 . S
In520 O526 2.266 . S
In520 O527 2.326 . S
In520 O528 2.266 . S
In520 O529 2.326 . S
In520 O531 2.294 . S
In520 O532 2.326 . S
O521 In520 2.294 . S
O521 C530 1.240 . S
O522 In520 2.326 . S
O522 C530 1.252 . S
C523 O526 1.252 . S
C523 O527 1.260 . S
C524 O531 1.240 . S
C524 O532 1.252 . S
C525 O528 1.252 . S
C525 O529 1.260 . S
O526 In520 2.266 . S
O526 C523 1.252 . S
O527 In520 2.326 . S
O527 C523 1.260 . S
O528 In520 2.266 . S
O528 C525 1.252 . S
O529 In520 2.326 . S
O529 C525 1.260 . S
C530 O521 1.240 . S
C530 O522 1.252 . S
O531 In520 2.294 . S
O531 C524 1.240 . S
O532 In520 2.326 . S
O532 C524 1.252 . S
In533 O534 2.294 . S
In533 O535 2.326 . S
In533 O539 2.266 . S
In533 O540 2.326 . S
In533 O541 2.266 . S
In533 O542 2.326 . S
In533 O544 2.294 . S
In533 O545 2.326 . S
O534 In533 2.294 . S
O534 C543 1.240 . S
O535 In533 2.326 . S
O535 C543 1.252 . S
C536 O539 1.252 . S
C536 O540 1.260 . S
C537 O544 1.240 . S
C537 O545 1.252 . S
C538 O541 1.252 . S
C538 O542 1.260 . S
O539 In533 2.266 . S
O539 C536 1.252 . S
O540 In533 2.326 . S
O540 C536 1.260 . S
O541 In533 2.266 . S
O541 C538 1.252 . S
O542 In533 2.326 . S
O542 C538 1.260 . S
C543 O534 1.240 . S
C543 O535 1.252 . S
O544 In533 2.294 . S
O544 C537 1.240 . S
O545 In533 2.326 . S
O545 C537 1.252 . S
In546 O547 2.294 . S
In546 O548 2.326 . S
In546 O552 2.266 . S
In546 O553 2.326 . S
In546 O554 2.266 . S
In546 O555 2.326 . S
In546 O557 2.294 . S
In546 O558 2.326 . S
O547 In546 2.294 . S
O547 C556 1.240 . S
O548 In546 2.326 . S
O548 C556 1.252 . S
C549 O552 1.252 . S
C549 O553 1.260 . S
C550 O557 1.240 . S
C550 O558 1.252 . S
C551 O554 1.252 . S
C551 O555 1.260 . S
O552 In546 2.266 . S
O552 C549 1.252 . S
O553 In546 2.326 . S
O553 C549 1.260 . S
O554 In546 2.266 . S
O554 C551 1.252 . S
O555 In546 2.326 . S
O555 C551 1.260 . S
C556 O547 1.240 . S
C556 O548 1.252 . S
O557 In546 2.294 . S
O557 C550 1.240 . S
O558 In546 2.326 . S
O558 C550 1.252 . S
In559 O560 2.294 . S
In559 O561 2.326 . S
In559 O565 2.266 . S
In559 O566 2.326 . S
In559 O567 2.266 . S
In559 O568 2.326 . S
In559 O570 2.294 . S
In559 O571 2.326 . S
O560 In559 2.294 . S
O560 C569 1.240 . S
O561 In559 2.326 . S
O561 C569 1.252 . S
C562 O565 1.252 . S
C562 O566 1.260 . S
C563 O570 1.240 . S
C563 O571 1.252 . S
C564 O567 1.252 . S
C564 O568 1.260 . S
O565 In559 2.266 . S
O565 C562 1.252 . S
O566 In559 2.326 . S
O566 C562 1.260 . S
O567 In559 2.266 . S
O567 C564 1.252 . S
O568 In559 2.326 . S
O568 C564 1.260 . S
C569 O560 1.240 . S
C569 O561 1.252 . S
O570 In559 2.294 . S
O570 C563 1.240 . S
O571 In559 2.326 . S
O571 C563 1.252 . S
In572 O573 2.294 . S
In572 O574 2.326 . S
In572 O578 2.266 . S
In572 O579 2.326 . S
In572 O580 2.266 . S
In572 O581 2.326 . S
In572 O583 2.294 . S
In572 O584 2.326 . S
O573 In572 2.294 . S
O573 C582 1.240 . S
O574 In572 2.326 . S
O574 C582 1.252 . S
C575 O578 1.252 . S
C575 O579 1.260 . S
C576 O583 1.240 . S
C576 O584 1.252 . S
C577 O580 1.252 . S
C577 O581 1.260 . S
O578 In572 2.266 . S
O578 C575 1.252 . S
O579 In572 2.326 . S
O579 C575 1.260 . S
O580 In572 2.266 . S
O580 C577 1.252 . S
O581 In572 2.326 . S
O581 C577 1.260 . S
C582 O573 1.240 . S
C582 O574 1.252 . S
O583 In572 2.294 . S
O583 C576 1.240 . S
O584 In572 2.326 . S
O584 C576 1.252 . S
In585 O586 2.294 . S
In585 O587 2.326 . S
In585 O591 2.266 . S
In585 O592 2.326 . S
In585 O593 2.266 . S
In585 O594 2.326 . S
In585 O596 2.294 . S
In585 O597 2.326 . S
O586 In585 2.294 . S
O586 C595 1.240 . S
O587 In585 2.326 . S
O587 C595 1.252 . S
C588 O591 1.252 . S
C588 O592 1.260 . S
C589 O596 1.240 . S
C589 O597 1.252 . S
C590 O593 1.252 . S
C590 O594 1.260 . S
O591 In585 2.266 . S
O591 C588 1.252 . S
O592 In585 2.326 . S
O592 C588 1.260 . S
O593 In585 2.266 . S
O593 C590 1.252 . S
O594 In585 2.326 . S
O594 C590 1.260 . S
C595 O586 1.240 . S
C595 O587 1.252 . S
O596 In585 2.294 . S
O596 C589 1.240 . S
O597 In585 2.326 . S
O597 C589 1.252 . S
In598 O599 2.294 . S
In598 O600 2.326 . S
In598 O604 2.266 . S
In598 O605 2.326 . S
In598 O606 2.266 . S
In598 O607 2.326 . S
In598 O609 2.294 . S
In598 O610 2.326 . S
O599 In598 2.294 . S
O599 C608 1.240 . S
O600 In598 2.326 . S
O600 C608 1.252 . S
C601 O604 1.252 . S
C601 O605 1.260 . S
C602 O609 1.240 . S
C602 O610 1.252 . S
C603 O606 1.252 . S
C603 O607 1.260 . S
O604 In598 2.266 . S
O604 C601 1.252 . S
O605 In598 2.326 . S
O605 C601 1.260 . S
O606 In598 2.266 . S
O606 C603 1.252 . S
O607 In598 2.326 . S
O607 C603 1.260 . S
C608 O599 1.240 . S
C608 O600 1.252 . S
O609 In598 2.294 . S
O609 C602 1.240 . S
O610 In598 2.326 . S
O610 C602 1.252 . S
In611 O612 2.294 . S
In611 O613 2.326 . S
In611 O617 2.266 . S
In611 O618 2.326 . S
In611 O619 2.266 . S
In611 O620 2.326 . S
In611 O622 2.294 . S
In611 O623 2.326 . S
O612 In611 2.294 . S
O612 C621 1.240 . S
O613 In611 2.326 . S
O613 C621 1.252 . S
C614 O617 1.252 . S
C614 O618 1.260 . S
C615 O622 1.240 . S
C615 O623 1.252 . S
C616 O619 1.252 . S
C616 O620 1.260 . S
O617 In611 2.266 . S
O617 C614 1.252 . S
O618 In611 2.326 . S
O618 C614 1.260 . S
O619 In611 2.266 . S
O619 C616 1.252 . S
O620 In611 2.326 . S
O620 C616 1.260 . S
C621 O612 1.240 . S
C621 O613 1.252 . S
O622 In611 2.294 . S
O622 C615 1.240 . S
O623 In611 2.326 . S
O623 C615 1.252 . S
H624 C632 0.929 . S
H625 C634 0.930 . S
H626 C636 0.930 . S
H627 C639 0.929 . S
H628 C642 0.930 . S
H629 C644 0.960 . S
H630 C644 0.960 . S
H631 C644 0.960 . S
C632 H624 0.929 . S
C632 C633 1.377 . S
C632 C634 1.384 . S
C633 C632 1.377 . S
C633 C639 1.390 . S
C634 H625 0.930 . S
C634 C632 1.384 . S
C634 C635 1.372 . S
C635 C634 1.372 . S
C635 C636 1.400 . S
C635 C640 1.490 . S
C636 H626 0.930 . S
C636 C635 1.400 . S
C636 C639 1.386 . S
H637 C653 0.930 . S
H638 C654 0.931 . S
C639 H627 0.929 . S
C639 C633 1.390 . S
C639 C636 1.386 . S
C640 C635 1.490 . S
C640 C642 1.395 . S
C640 C643 1.403 . S
H641 C647 0.930 . S
C642 H628 0.930 . S
C642 C640 1.395 . S
C642 C645 1.403 . S
C643 C640 1.403 . S
C643 C644 1.524 . S
C643 C647 1.400 . S
C644 H629 0.960 . S
C644 H630 0.960 . S
C644 H631 0.960 . S
C644 C643 1.524 . S
C645 C642 1.403 . S
C645 C646 1.392 . S
C645 C649 1.495 . S
C646 C645 1.392 . S
C646 C647 1.385 . S
C646 C648 1.478 . S
C647 H641 0.930 . S
C647 C643 1.400 . S
C647 C646 1.385 . S
C648 C646 1.478 . S
C648 C650 1.381 . S
C648 C654 1.383 . S
C649 C645 1.495 . S
C649 H655 0.959 . S
C649 H656 0.961 . S
C649 H657 0.960 . S
C650 C648 1.381 . S
C650 C651 1.394 . S
C650 H658 0.930 . S
C651 C650 1.394 . S
C651 C652 1.383 . S
C651 H659 0.929 . S
C652 C651 1.383 . S
C652 C653 1.377 . S
C653 H637 0.930 . S
C653 C652 1.377 . S
C653 C654 1.379 . S
C654 H638 0.931 . S
C654 C648 1.383 . S
C654 C653 1.379 . S
H655 C649 0.959 . S
H656 C649 0.961 . S
H657 C649 0.960 . S
H658 C650 0.930 . S
H659 C651 0.929 . S
H660 C668 0.929 . S
H661 C670 0.930 . S
H662 C672 0.930 . S
H663 C675 0.929 . S
H664 C678 0.930 . S
H665 C680 0.960 . S
H666 C680 0.960 . S
H667 C680 0.960 . S
C668 H660 0.929 . S
C668 C669 1.377 . S
C668 C670 1.384 . S
C669 C668 1.377 . S
C669 C675 1.390 . S
C670 H661 0.930 . S
C670 C668 1.384 . S
C670 C671 1.372 . S
C671 C670 1.372 . S
C671 C672 1.400 . S
C671 C676 1.490 . S
C672 H662 0.930 . S
C672 C671 1.400 . S
C672 C675 1.386 . S
H673 C689 0.930 . S
H674 C690 0.931 . S
C675 H663 0.929 . S
C675 C669 1.390 . S
C675 C672 1.386 . S
C676 C671 1.490 . S
C676 C678 1.395 . S
C676 C679 1.403 . S
H677 C683 0.930 . S
C678 H664 0.930 . S
C678 C676 1.395 . S
C678 C681 1.403 . S
C679 C676 1.403 . S
C679 C680 1.524 . S
C679 C683 1.400 . S
C680 H665 0.960 . S
C680 H666 0.960 . S
C680 H667 0.960 . S
C680 C679 1.524 . S
C681 C678 1.403 . S
C681 C682 1.392 . S
C681 C685 1.495 . S
C682 C681 1.392 . S
C682 C683 1.385 . S
C682 C684 1.478 . S
C683 H677 0.930 . S
C683 C679 1.400 . S
C683 C682 1.385 . S
C684 C682 1.478 . S
C684 C686 1.381 . S
C684 C690 1.383 . S
C685 C681 1.495 . S
C685 H691 0.959 . S
C685 H692 0.961 . S
C685 H693 0.960 . S
C686 C684 1.381 . S
C686 C687 1.394 . S
C686 H694 0.930 . S
C687 C686 1.394 . S
C687 C688 1.383 . S
C687 H695 0.929 . S
C688 C687 1.383 . S
C688 C689 1.377 . S
C689 H673 0.930 . S
C689 C688 1.377 . S
C689 C690 1.379 . S
C690 H674 0.931 . S
C690 C684 1.383 . S
C690 C689 1.379 . S
H691 C685 0.959 . S
H692 C685 0.961 . S
H693 C685 0.960 . S
H694 C686 0.930 . S
H695 C687 0.929 . S
H696 C704 0.929 . S
H697 C706 0.930 . S
H698 C708 0.930 . S
H699 C711 0.929 . S
H700 C714 0.930 . S
H701 C716 0.960 . S
H702 C716 0.960 . S
H703 C716 0.960 . S
C704 H696 0.929 . S
C704 C705 1.377 . S
C704 C706 1.384 . S
C705 C704 1.377 . S
C705 C711 1.390 . S
C706 H697 0.930 . S
C706 C704 1.384 . S
C706 C707 1.372 . S
C707 C706 1.372 . S
C707 C708 1.400 . S
C707 C712 1.490 . S
C708 H698 0.930 . S
C708 C707 1.400 . S
C708 C711 1.386 . S
H709 C725 0.930 . S
H710 C726 0.931 . S
C711 H699 0.929 . S
C711 C705 1.390 . S
C711 C708 1.386 . S
C712 C707 1.490 . S
C712 C714 1.395 . S
C712 C715 1.403 . S
H713 C719 0.930 . S
C714 H700 0.930 . S
C714 C712 1.395 . S
C714 C717 1.403 . S
C715 C712 1.403 . S
C715 C716 1.524 . S
C715 C719 1.400 . S
C716 H701 0.960 . S
C716 H702 0.960 . S
C716 H703 0.960 . S
C716 C715 1.524 . S
C717 C714 1.403 . S
C717 C718 1.392 . S
C717 C721 1.495 . S
C718 C717 1.392 . S
C718 C719 1.385 . S
C718 C720 1.478 . S
C719 H713 0.930 . S
C719 C715 1.400 . S
C719 C718 1.385 . S
C720 C718 1.478 . S
C720 C722 1.381 . S
C720 C726 1.383 . S
C721 C717 1.495 . S
C721 H727 0.959 . S
C721 H728 0.961 . S
C721 H729 0.960 . S
C722 C720 1.381 . S
C722 C723 1.394 . S
C722 H730 0.930 . S
C723 C722 1.394 . S
C723 C724 1.383 . S
C723 H731 0.929 . S
C724 C723 1.383 . S
C724 C725 1.377 . S
C725 H709 0.930 . S
C725 C724 1.377 . S
C725 C726 1.379 . S
C726 H710 0.931 . S
C726 C720 1.383 . S
C726 C725 1.379 . S
H727 C721 0.959 . S
H728 C721 0.961 . S
H729 C721 0.960 . S
H730 C722 0.930 . S
H731 C723 0.929 . S
H732 C740 0.929 . S
H733 C742 0.930 . S
H734 C744 0.930 . S
H735 C747 0.929 . S
H736 C750 0.930 . S
H737 C752 0.960 . S
H738 C752 0.960 . S
H739 C752 0.960 . S
C740 H732 0.929 . S
C740 C741 1.377 . S
C740 C742 1.384 . S
C741 C740 1.377 . S
C741 C747 1.390 . S
C742 H733 0.930 . S
C742 C740 1.384 . S
C742 C743 1.372 . S
C743 C742 1.372 . S
C743 C744 1.400 . S
C743 C748 1.490 . S
C744 H734 0.930 . S
C744 C743 1.400 . S
C744 C747 1.386 . S
H745 C761 0.930 . S
H746 C762 0.931 . S
C747 H735 0.929 . S
C747 C741 1.390 . S
C747 C744 1.386 . S
C748 C743 1.490 . S
C748 C750 1.395 . S
C748 C751 1.403 . S
H749 C755 0.930 . S
C750 H736 0.930 . S
C750 C748 1.395 . S
C750 C753 1.403 . S
C751 C748 1.403 . S
C751 C752 1.524 . S
C751 C755 1.400 . S
C752 H737 0.960 . S
C752 H738 0.960 . S
C752 H739 0.960 . S
C752 C751 1.524 . S
C753 C750 1.403 . S
C753 C754 1.392 . S
C753 C757 1.495 . S
C754 C753 1.392 . S
C754 C755 1.385 . S
C754 C756 1.478 . S
C755 H749 0.930 . S
C755 C751 1.400 . S
C755 C754 1.385 . S
C756 C754 1.478 . S
C756 C758 1.381 . S
C756 C762 1.383 . S
C757 C753 1.495 . S
C757 H763 0.959 . S
C757 H764 0.961 . S
C757 H765 0.960 . S
C758 C756 1.381 . S
C758 C759 1.394 . S
C758 H766 0.930 . S
C759 C758 1.394 . S
C759 C760 1.383 . S
C759 H767 0.929 . S
C760 C759 1.383 . S
C760 C761 1.377 . S
C761 H745 0.930 . S
C761 C760 1.377 . S
C761 C762 1.379 . S
C762 H746 0.931 . S
C762 C756 1.383 . S
C762 C761 1.379 . S
H763 C757 0.959 . S
H764 C757 0.961 . S
H765 C757 0.960 . S
H766 C758 0.930 . S
H767 C759 0.929 . S
H768 C776 0.929 . S
H769 C778 0.930 . S
H770 C780 0.930 . S
H771 C783 0.929 . S
H772 C786 0.930 . S
H773 C788 0.960 . S
H774 C788 0.960 . S
H775 C788 0.960 . S
C776 H768 0.929 . S
C776 C777 1.377 . S
C776 C778 1.384 . S
C777 C776 1.377 . S
C777 C783 1.390 . S
C778 H769 0.930 . S
C778 C776 1.384 . S
C778 C779 1.372 . S
C779 C778 1.372 . S
C779 C780 1.400 . S
C779 C784 1.490 . S
C780 H770 0.930 . S
C780 C779 1.400 . S
C780 C783 1.386 . S
H781 C797 0.930 . S
H782 C798 0.931 . S
C783 H771 0.929 . S
C783 C777 1.390 . S
C783 C780 1.386 . S
C784 C779 1.490 . S
C784 C786 1.395 . S
C784 C787 1.403 . S
H785 C791 0.930 . S
C786 H772 0.930 . S
C786 C784 1.395 . S
C786 C789 1.403 . S
C787 C784 1.403 . S
C787 C788 1.524 . S
C787 C791 1.400 . S
C788 H773 0.960 . S
C788 H774 0.960 . S
C788 H775 0.960 . S
C788 C787 1.524 . S
C789 C786 1.403 . S
C789 C790 1.392 . S
C789 C793 1.495 . S
C790 C789 1.392 . S
C790 C791 1.385 . S
C790 C792 1.478 . S
C791 H785 0.930 . S
C791 C787 1.400 . S
C791 C790 1.385 . S
C792 C790 1.478 . S
C792 C794 1.381 . S
C792 C798 1.383 . S
C793 C789 1.495 . S
C793 H799 0.959 . S
C793 H800 0.961 . S
C793 H801 0.960 . S
C794 C792 1.381 . S
C794 C795 1.394 . S
C794 H802 0.930 . S
C795 C794 1.394 . S
C795 C796 1.383 . S
C795 H803 0.929 . S
C796 C795 1.383 . S
C796 C797 1.377 . S
C797 H781 0.930 . S
C797 C796 1.377 . S
C797 C798 1.379 . S
C798 H782 0.931 . S
C798 C792 1.383 . S
C798 C797 1.379 . S
H799 C793 0.959 . S
H800 C793 0.961 . S
H801 C793 0.960 . S
H802 C794 0.930 . S
H803 C795 0.929 . S
H804 C812 0.929 . S
H805 C814 0.930 . S
H806 C816 0.930 . S
H807 C819 0.929 . S
H808 C822 0.930 . S
H809 C824 0.960 . S
H810 C824 0.960 . S
H811 C824 0.960 . S
C812 H804 0.929 . S
C812 C813 1.377 . S
C812 C814 1.384 . S
C813 C812 1.377 . S
C813 C819 1.390 . S
C814 H805 0.930 . S
C814 C812 1.384 . S
C814 C815 1.372 . S
C815 C814 1.372 . S
C815 C816 1.400 . S
C815 C820 1.490 . S
C816 H806 0.930 . S
C816 C815 1.400 . S
C816 C819 1.386 . S
H817 C833 0.930 . S
H818 C834 0.931 . S
C819 H807 0.929 . S
C819 C813 1.390 . S
C819 C816 1.386 . S
C820 C815 1.490 . S
C820 C822 1.395 . S
C820 C823 1.403 . S
H821 C827 0.930 . S
C822 H808 0.930 . S
C822 C820 1.395 . S
C822 C825 1.403 . S
C823 C820 1.403 . S
C823 C824 1.524 . S
C823 C827 1.400 . S
C824 H809 0.960 . S
C824 H810 0.960 . S
C824 H811 0.960 . S
C824 C823 1.524 . S
C825 C822 1.403 . S
C825 C826 1.392 . S
C825 C829 1.495 . S
C826 C825 1.392 . S
C826 C827 1.385 . S
C826 C828 1.478 . S
C827 H821 0.930 . S
C827 C823 1.400 . S
C827 C826 1.385 . S
C828 C826 1.478 . S
C828 C830 1.381 . S
C828 C834 1.383 . S
C829 C825 1.495 . S
C829 H835 0.959 . S
C829 H836 0.961 . S
C829 H837 0.960 . S
C830 C828 1.381 . S
C830 C831 1.394 . S
C830 H838 0.930 . S
C831 C830 1.394 . S
C831 C832 1.383 . S
C831 H839 0.929 . S
C832 C831 1.383 . S
C832 C833 1.377 . S
C833 H817 0.930 . S
C833 C832 1.377 . S
C833 C834 1.379 . S
C834 H818 0.931 . S
C834 C828 1.383 . S
C834 C833 1.379 . S
H835 C829 0.959 . S
H836 C829 0.961 . S
H837 C829 0.960 . S
H838 C830 0.930 . S
H839 C831 0.929 . S
H840 C848 0.929 . S
H841 C850 0.930 . S
H842 C852 0.930 . S
H843 C855 0.929 . S
H844 C858 0.930 . S
H845 C860 0.960 . S
H846 C860 0.960 . S
H847 C860 0.960 . S
C848 H840 0.929 . S
C848 C849 1.377 . S
C848 C850 1.384 . S
C849 C848 1.377 . S
C849 C855 1.390 . S
C850 H841 0.930 . S
C850 C848 1.384 . S
C850 C851 1.372 . S
C851 C850 1.372 . S
C851 C852 1.400 . S
C851 C856 1.490 . S
C852 H842 0.930 . S
C852 C851 1.400 . S
C852 C855 1.386 . S
H853 C869 0.930 . S
H854 C870 0.931 . S
C855 H843 0.929 . S
C855 C849 1.390 . S
C855 C852 1.386 . S
C856 C851 1.490 . S
C856 C858 1.395 . S
C856 C859 1.403 . S
H857 C863 0.930 . S
C858 H844 0.930 . S
C858 C856 1.395 . S
C858 C861 1.403 . S
C859 C856 1.403 . S
C859 C860 1.524 . S
C859 C863 1.400 . S
C860 H845 0.960 . S
C860 H846 0.960 . S
C860 H847 0.960 . S
C860 C859 1.524 . S
C861 C858 1.403 . S
C861 C862 1.392 . S
C861 C865 1.495 . S
C862 C861 1.392 . S
C862 C863 1.385 . S
C862 C864 1.478 . S
C863 H857 0.930 . S
C863 C859 1.400 . S
C863 C862 1.385 . S
C864 C862 1.478 . S
C864 C866 1.381 . S
C864 C870 1.383 . S
C865 C861 1.495 . S
C865 H871 0.959 . S
C865 H872 0.961 . S
C865 H873 0.960 . S
C866 C864 1.381 . S
C866 C867 1.394 . S
C866 H874 0.930 . S
C867 C866 1.394 . S
C867 C868 1.383 . S
C867 H875 0.929 . S
C868 C867 1.383 . S
C868 C869 1.377 . S
C869 H853 0.930 . S
C869 C868 1.377 . S
C869 C870 1.379 . S
C870 H854 0.931 . S
C870 C864 1.383 . S
C870 C869 1.379 . S
H871 C865 0.959 . S
H872 C865 0.961 . S
H873 C865 0.960 . S
H874 C866 0.930 . S
H875 C867 0.929 . S
H876 C884 0.929 . S
H877 C886 0.930 . S
H878 C888 0.930 . S
H879 C891 0.929 . S
H880 C894 0.930 . S
H881 C896 0.960 . S
H882 C896 0.960 . S
H883 C896 0.960 . S
C884 H876 0.929 . S
C884 C885 1.377 . S
C884 C886 1.384 . S
C885 C884 1.377 . S
C885 C891 1.390 . S
C886 H877 0.930 . S
C886 C884 1.384 . S
C886 C887 1.372 . S
C887 C886 1.372 . S
C887 C888 1.400 . S
C887 C892 1.490 . S
C888 H878 0.930 . S
C888 C887 1.400 . S
C888 C891 1.386 . S
H889 C905 0.930 . S
H890 C906 0.931 . S
C891 H879 0.929 . S
C891 C885 1.390 . S
C891 C888 1.386 . S
C892 C887 1.490 . S
C892 C894 1.395 . S
C892 C895 1.403 . S
H893 C899 0.930 . S
C894 H880 0.930 . S
C894 C892 1.395 . S
C894 C897 1.403 . S
C895 C892 1.403 . S
C895 C896 1.524 . S
C895 C899 1.400 . S
C896 H881 0.960 . S
C896 H882 0.960 . S
C896 H883 0.960 . S
C896 C895 1.524 . S
C897 C894 1.403 . S
C897 C898 1.392 . S
C897 C901 1.495 . S
C898 C897 1.392 . S
C898 C899 1.385 . S
C898 C900 1.478 . S
C899 H893 0.930 . S
C899 C895 1.400 . S
C899 C898 1.385 . S
C900 C898 1.478 . S
C900 C902 1.381 . S
C900 C906 1.383 . S
C901 C897 1.495 . S
C901 H907 0.959 . S
C901 H908 0.961 . S
C901 H909 0.960 . S
C902 C900 1.381 . S
C902 C903 1.394 . S
C902 H910 0.930 . S
C903 C902 1.394 . S
C903 C904 1.383 . S
C903 H911 0.929 . S
C904 C903 1.383 . S
C904 C905 1.377 . S
C905 H889 0.930 . S
C905 C904 1.377 . S
C905 C906 1.379 . S
C906 H890 0.931 . S
C906 C900 1.383 . S
C906 C905 1.379 . S
H907 C901 0.959 . S
H908 C901 0.961 . S
H909 C901 0.960 . S
H910 C902 0.930 . S
H911 C903 0.929 . S
H912 C920 0.929 . S
H913 C922 0.930 . S
H914 C924 0.930 . S
H915 C927 0.929 . S
H916 C930 0.930 . S
H917 C932 0.960 . S
H918 C932 0.960 . S
H919 C932 0.960 . S
C920 H912 0.929 . S
C920 C921 1.377 . S
C920 C922 1.384 . S
C921 C920 1.377 . S
C921 C927 1.390 . S
C922 H913 0.930 . S
C922 C920 1.384 . S
C922 C923 1.372 . S
C923 C922 1.372 . S
C923 C924 1.400 . S
C923 C928 1.490 . S
C924 H914 0.930 . S
C924 C923 1.400 . S
C924 C927 1.386 . S
H925 C941 0.930 . S
H926 C942 0.931 . S
C927 H915 0.929 . S
C927 C921 1.390 . S
C927 C924 1.386 . S
C928 C923 1.490 . S
C928 C930 1.395 . S
C928 C931 1.403 . S
H929 C935 0.930 . S
C930 H916 0.930 . S
C930 C928 1.395 . S
C930 C933 1.403 . S
C931 C928 1.403 . S
C931 C932 1.524 . S
C931 C935 1.400 . S
C932 H917 0.960 . S
C932 H918 0.960 . S
C932 H919 0.960 . S
C932 C931 1.524 . S
C933 C930 1.403 . S
C933 C934 1.392 . S
C933 C937 1.495 . S
C934 C933 1.392 . S
C934 C935 1.385 . S
C934 C936 1.478 . S
C935 H929 0.930 . S
C935 C931 1.400 . S
C935 C934 1.385 . S
C936 C934 1.478 . S
C936 C938 1.381 . S
C936 C942 1.383 . S
C937 C933 1.495 . S
C937 H943 0.959 . S
C937 H944 0.961 . S
C937 H945 0.960 . S
C938 C936 1.381 . S
C938 C939 1.394 . S
C938 H946 0.930 . S
C939 C938 1.394 . S
C939 C940 1.383 . S
C939 H947 0.929 . S
C940 C939 1.383 . S
C940 C941 1.377 . S
C941 H925 0.930 . S
C941 C940 1.377 . S
C941 C942 1.379 . S
C942 H926 0.931 . S
C942 C936 1.383 . S
C942 C941 1.379 . S
H943 C937 0.959 . S
H944 C937 0.961 . S
H945 C937 0.960 . S
H946 C938 0.930 . S
H947 C939 0.929 . S
H948 C956 0.929 . S
H949 C958 0.930 . S
H950 C960 0.930 . S
H951 C963 0.929 . S
H952 C966 0.930 . S
H953 C968 0.960 . S
H954 C968 0.960 . S
H955 C968 0.960 . S
C956 H948 0.929 . S
C956 C957 1.377 . S
C956 C958 1.384 . S
C957 C956 1.377 . S
C957 C963 1.390 . S
C958 H949 0.930 . S
C958 C956 1.384 . S
C958 C959 1.372 . S
C959 C958 1.372 . S
C959 C960 1.400 . S
C959 C964 1.490 . S
C960 H950 0.930 . S
C960 C959 1.400 . S
C960 C963 1.386 . S
H961 C977 0.930 . S
H962 C978 0.931 . S
C963 H951 0.929 . S
C963 C957 1.390 . S
C963 C960 1.386 . S
C964 C959 1.490 . S
C964 C966 1.395 . S
C964 C967 1.403 . S
H965 C971 0.930 . S
C966 H952 0.930 . S
C966 C964 1.395 . S
C966 C969 1.403 . S
C967 C964 1.403 . S
C967 C968 1.524 . S
C967 C971 1.400 . S
C968 H953 0.960 . S
C968 H954 0.960 . S
C968 H955 0.960 . S
C968 C967 1.524 . S
C969 C966 1.403 . S
C969 C970 1.392 . S
C969 C973 1.495 . S
C970 C969 1.392 . S
C970 C971 1.385 . S
C970 C972 1.478 . S
C971 H965 0.930 . S
C971 C967 1.400 . S
C971 C970 1.385 . S
C972 C970 1.478 . S
C972 C974 1.381 . S
C972 C978 1.383 . S
C973 C969 1.495 . S
C973 H979 0.959 . S
C973 H980 0.961 . S
C973 H981 0.960 . S
C974 C972 1.381 . S
C974 C975 1.394 . S
C974 H982 0.930 . S
C975 C974 1.394 . S
C975 C976 1.383 . S
C975 H983 0.929 . S
C976 C975 1.383 . S
C976 C977 1.377 . S
C977 H961 0.930 . S
C977 C976 1.377 . S
C977 C978 1.379 . S
C978 H962 0.931 . S
C978 C972 1.383 . S
C978 C977 1.379 . S
H979 C973 0.959 . S
H980 C973 0.961 . S
H981 C973 0.960 . S
H982 C974 0.930 . S
H983 C975 0.929 . S
H984 C992 0.929 . S
H985 C994 0.930 . S
H986 C996 0.930 . S
H987 C999 0.929 . S
H988 C1002 0.930 . S
H989 C1004 0.960 . S
H990 C1004 0.960 . S
H991 C1004 0.960 . S
C992 H984 0.929 . S
C992 C993 1.377 . S
C992 C994 1.384 . S
C993 C992 1.377 . S
C993 C999 1.390 . S
C994 H985 0.930 . S
C994 C992 1.384 . S
C994 C995 1.372 . S
C995 C994 1.372 . S
C995 C996 1.400 . S
C995 C1000 1.490 . S
C996 H986 0.930 . S
C996 C995 1.400 . S
C996 C999 1.386 . S
H997 C1013 0.930 . S
H998 C1014 0.931 . S
C999 H987 0.929 . S
C999 C993 1.390 . S
C999 C996 1.386 . S
C1000 C995 1.490 . S
C1000 C1002 1.395 . S
C1000 C1003 1.403 . S
H1001 C1007 0.930 . S
C1002 H988 0.930 . S
C1002 C1000 1.395 . S
C1002 C1005 1.403 . S
C1003 C1000 1.403 . S
C1003 C1004 1.524 . S
C1003 C1007 1.400 . S
C1004 H989 0.960 . S
C1004 H990 0.960 . S
C1004 H991 0.960 . S
C1004 C1003 1.524 . S
C1005 C1002 1.403 . S
C1005 C1006 1.392 . S
C1005 C1009 1.495 . S
C1006 C1005 1.392 . S
C1006 C1007 1.385 . S
C1006 C1008 1.478 . S
C1007 H1001 0.930 . S
C1007 C1003 1.400 . S
C1007 C1006 1.385 . S
C1008 C1006 1.478 . S
C1008 C1010 1.381 . S
C1008 C1014 1.383 . S
C1009 C1005 1.495 . S
C1009 H1015 0.959 . S
C1009 H1016 0.961 . S
C1009 H1017 0.960 . S
C1010 C1008 1.381 . S
C1010 C1011 1.394 . S
C1010 H1018 0.930 . S
C1011 C1010 1.394 . S
C1011 C1012 1.383 . S
C1011 H1019 0.929 . S
C1012 C1011 1.383 . S
C1012 C1013 1.377 . S
C1013 H997 0.930 . S
C1013 C1012 1.377 . S
C1013 C1014 1.379 . S
C1014 H998 0.931 . S
C1014 C1008 1.383 . S
C1014 C1013 1.379 . S
H1015 C1009 0.959 . S
H1016 C1009 0.961 . S
H1017 C1009 0.960 . S
H1018 C1010 0.930 . S
H1019 C1011 0.929 . S
H1020 C1028 0.929 . S
H1021 C1030 0.930 . S
H1022 C1032 0.930 . S
H1023 C1035 0.929 . S
H1024 C1038 0.930 . S
H1025 C1040 0.960 . S
H1026 C1040 0.960 . S
H1027 C1040 0.960 . S
C1028 H1020 0.929 . S
C1028 C1029 1.377 . S
C1028 C1030 1.384 . S
C1029 C1028 1.377 . S
C1029 C1035 1.390 . S
C1030 H1021 0.930 . S
C1030 C1028 1.384 . S
C1030 C1031 1.372 . S
C1031 C1030 1.372 . S
C1031 C1032 1.400 . S
C1031 C1036 1.490 . S
C1032 H1022 0.930 . S
C1032 C1031 1.400 . S
C1032 C1035 1.386 . S
H1033 C1049 0.930 . S
H1034 C1050 0.931 . S
C1035 H1023 0.929 . S
C1035 C1029 1.390 . S
C1035 C1032 1.386 . S
C1036 C1031 1.490 . S
C1036 C1038 1.395 . S
C1036 C1039 1.403 . S
H1037 C1043 0.930 . S
C1038 H1024 0.930 . S
C1038 C1036 1.395 . S
C1038 C1041 1.403 . S
C1039 C1036 1.403 . S
C1039 C1040 1.524 . S
C1039 C1043 1.400 . S
C1040 H1025 0.960 . S
C1040 H1026 0.960 . S
C1040 H1027 0.960 . S
C1040 C1039 1.524 . S
C1041 C1038 1.403 . S
C1041 C1042 1.392 . S
C1041 C1045 1.495 . S
C1042 C1041 1.392 . S
C1042 C1043 1.385 . S
C1042 C1044 1.478 . S
C1043 H1037 0.930 . S
C1043 C1039 1.400 . S
C1043 C1042 1.385 . S
C1044 C1042 1.478 . S
C1044 C1046 1.381 . S
C1044 C1050 1.383 . S
C1045 C1041 1.495 . S
C1045 H1051 0.959 . S
C1045 H1052 0.961 . S
C1045 H1053 0.960 . S
C1046 C1044 1.381 . S
C1046 C1047 1.394 . S
C1046 H1054 0.930 . S
C1047 C1046 1.394 . S
C1047 C1048 1.383 . S
C1047 H1055 0.929 . S
C1048 C1047 1.383 . S
C1048 C1049 1.377 . S
C1049 H1033 0.930 . S
C1049 C1048 1.377 . S
C1049 C1050 1.379 . S
C1050 H1034 0.931 . S
C1050 C1044 1.383 . S
C1050 C1049 1.379 . S
H1051 C1045 0.959 . S
H1052 C1045 0.961 . S
H1053 C1045 0.960 . S
H1054 C1046 0.930 . S
H1055 C1047 0.929 . S
H1056 C1064 0.929 . S
H1057 C1066 0.930 . S
H1058 C1068 0.930 . S
H1059 C1071 0.929 . S
H1060 C1074 0.930 . S
H1061 C1076 0.960 . S
H1062 C1076 0.960 . S
H1063 C1076 0.960 . S
C1064 H1056 0.929 . S
C1064 C1065 1.377 . S
C1064 C1066 1.384 . S
C1065 C1064 1.377 . S
C1065 C1071 1.390 . S
C1066 H1057 0.930 . S
C1066 C1064 1.384 . S
C1066 C1067 1.372 . S
C1067 C1066 1.372 . S
C1067 C1068 1.400 . S
C1067 C1072 1.490 . S
C1068 H1058 0.930 . S
C1068 C1067 1.400 . S
C1068 C1071 1.386 . S
H1069 C1085 0.930 . S
H1070 C1086 0.931 . S
C1071 H1059 0.929 . S
C1071 C1065 1.390 . S
C1071 C1068 1.386 . S
C1072 C1067 1.490 . S
C1072 C1074 1.395 . S
C1072 C1075 1.403 . S
H1073 C1079 0.930 . S
C1074 H1060 0.930 . S
C1074 C1072 1.395 . S
C1074 C1077 1.403 . S
C1075 C1072 1.403 . S
C1075 C1076 1.524 . S
C1075 C1079 1.400 . S
C1076 H1061 0.960 . S
C1076 H1062 0.960 . S
C1076 H1063 0.960 . S
C1076 C1075 1.524 . S
C1077 C1074 1.403 . S
C1077 C1078 1.392 . S
C1077 C1081 1.495 . S
C1078 C1077 1.392 . S
C1078 C1079 1.385 . S
C1078 C1080 1.478 . S
C1079 H1073 0.930 . S
C1079 C1075 1.400 . S
C1079 C1078 1.385 . S
C1080 C1078 1.478 . S
C1080 C1082 1.381 . S
C1080 C1086 1.383 . S
C1081 C1077 1.495 . S
C1081 H1087 0.959 . S
C1081 H1088 0.961 . S
C1081 H1089 0.960 . S
C1082 C1080 1.381 . S
C1082 C1083 1.394 . S
C1082 H1090 0.930 . S
C1083 C1082 1.394 . S
C1083 C1084 1.383 . S
C1083 H1091 0.929 . S
C1084 C1083 1.383 . S
C1084 C1085 1.377 . S
C1085 H1069 0.930 . S
C1085 C1084 1.377 . S
C1085 C1086 1.379 . S
C1086 H1070 0.931 . S
C1086 C1080 1.383 . S
C1086 C1085 1.379 . S
H1087 C1081 0.959 . S
H1088 C1081 0.961 . S
H1089 C1081 0.960 . S
H1090 C1082 0.930 . S
H1091 C1083 0.929 . S
H1092 C1100 0.929 . S
H1093 C1102 0.930 . S
H1094 C1104 0.930 . S
H1095 C1107 0.929 . S
H1096 C1110 0.930 . S
H1097 C1112 0.960 . S
H1098 C1112 0.960 . S
H1099 C1112 0.960 . S
C1100 H1092 0.929 . S
C1100 C1101 1.377 . S
C1100 C1102 1.384 . S
C1101 C1100 1.377 . S
C1101 C1107 1.390 . S
C1102 H1093 0.930 . S
C1102 C1100 1.384 . S
C1102 C1103 1.372 . S
C1103 C1102 1.372 . S
C1103 C1104 1.400 . S
C1103 C1108 1.490 . S
C1104 H1094 0.930 . S
C1104 C1103 1.400 . S
C1104 C1107 1.386 . S
H1105 C1121 0.930 . S
H1106 C1122 0.931 . S
C1107 H1095 0.929 . S
C1107 C1101 1.390 . S
C1107 C1104 1.386 . S
C1108 C1103 1.490 . S
C1108 C1110 1.395 . S
C1108 C1111 1.403 . S
H1109 C1115 0.930 . S
C1110 H1096 0.930 . S
C1110 C1108 1.395 . S
C1110 C1113 1.403 . S
C1111 C1108 1.403 . S
C1111 C1112 1.524 . S
C1111 C1115 1.400 . S
C1112 H1097 0.960 . S
C1112 H1098 0.960 . S
C1112 H1099 0.960 . S
C1112 C1111 1.524 . S
C1113 C1110 1.403 . S
C1113 C1114 1.392 . S
C1113 C1117 1.495 . S
C1114 C1113 1.392 . S
C1114 C1115 1.385 . S
C1114 C1116 1.478 . S
C1115 H1109 0.930 . S
C1115 C1111 1.400 . S
C1115 C1114 1.385 . S
C1116 C1114 1.478 . S
C1116 C1118 1.381 . S
C1116 C1122 1.383 . S
C1117 C1113 1.495 . S
C1117 H1123 0.959 . S
C1117 H1124 0.961 . S
C1117 H1125 0.960 . S
C1118 C1116 1.381 . S
C1118 C1119 1.394 . S
C1118 H1126 0.930 . S
C1119 C1118 1.394 . S
C1119 C1120 1.383 . S
C1119 H1127 0.929 . S
C1120 C1119 1.383 . S
C1120 C1121 1.377 . S
C1121 H1105 0.930 . S
C1121 C1120 1.377 . S
C1121 C1122 1.379 . S
C1122 H1106 0.931 . S
C1122 C1116 1.383 . S
C1122 C1121 1.379 . S
H1123 C1117 0.959 . S
H1124 C1117 0.961 . S
H1125 C1117 0.960 . S
H1126 C1118 0.930 . S
H1127 C1119 0.929 . S
H1128 C1136 0.929 . S
H1129 C1138 0.930 . S
H1130 C1140 0.930 . S
H1131 C1143 0.929 . S
H1132 C1146 0.930 . S
H1133 C1148 0.960 . S
H1134 C1148 0.960 . S
H1135 C1148 0.960 . S
C1136 H1128 0.929 . S
C1136 C1137 1.377 . S
C1136 C1138 1.384 . S
C1137 C1136 1.377 . S
C1137 C1143 1.390 . S
C1138 H1129 0.930 . S
C1138 C1136 1.384 . S
C1138 C1139 1.372 . S
C1139 C1138 1.372 . S
C1139 C1140 1.400 . S
C1139 C1144 1.490 . S
C1140 H1130 0.930 . S
C1140 C1139 1.400 . S
C1140 C1143 1.386 . S
H1141 C1157 0.930 . S
H1142 C1158 0.931 . S
C1143 H1131 0.929 . S
C1143 C1137 1.390 . S
C1143 C1140 1.386 . S
C1144 C1139 1.490 . S
C1144 C1146 1.395 . S
C1144 C1147 1.403 . S
H1145 C1151 0.930 . S
C1146 H1132 0.930 . S
C1146 C1144 1.395 . S
C1146 C1149 1.403 . S
C1147 C1144 1.403 . S
C1147 C1148 1.524 . S
C1147 C1151 1.400 . S
C1148 H1133 0.960 . S
C1148 H1134 0.960 . S
C1148 H1135 0.960 . S
C1148 C1147 1.524 . S
C1149 C1146 1.403 . S
C1149 C1150 1.392 . S
C1149 C1153 1.495 . S
C1150 C1149 1.392 . S
C1150 C1151 1.385 . S
C1150 C1152 1.478 . S
C1151 H1145 0.930 . S
C1151 C1147 1.400 . S
C1151 C1150 1.385 . S
C1152 C1150 1.478 . S
C1152 C1154 1.381 . S
C1152 C1158 1.383 . S
C1153 C1149 1.495 . S
C1153 H1159 0.959 . S
C1153 H1160 0.961 . S
C1153 H1161 0.960 . S
C1154 C1152 1.381 . S
C1154 C1155 1.394 . S
C1154 H1162 0.930 . S
C1155 C1154 1.394 . S
C1155 C1156 1.383 . S
C1155 H1163 0.929 . S
C1156 C1155 1.383 . S
C1156 C1157 1.377 . S
C1157 H1141 0.930 . S
C1157 C1156 1.377 . S
C1157 C1158 1.379 . S
C1158 H1142 0.931 . S
C1158 C1152 1.383 . S
C1158 C1157 1.379 . S
H1159 C1153 0.959 . S
H1160 C1153 0.961 . S
H1161 C1153 0.960 . S
H1162 C1154 0.930 . S
H1163 C1155 0.929 . S
H1164 C1172 0.929 . S
H1165 C1174 0.930 . S
H1166 C1176 0.930 . S
H1167 C1179 0.929 . S
H1168 C1182 0.930 . S
H1169 C1184 0.960 . S
H1170 C1184 0.960 . S
H1171 C1184 0.960 . S
C1172 H1164 0.929 . S
C1172 C1173 1.377 . S
C1172 C1174 1.384 . S
C1173 C1172 1.377 . S
C1173 C1179 1.390 . S
C1174 H1165 0.930 . S
C1174 C1172 1.384 . S
C1174 C1175 1.372 . S
C1175 C1174 1.372 . S
C1175 C1176 1.400 . S
C1175 C1180 1.490 . S
C1176 H1166 0.930 . S
C1176 C1175 1.400 . S
C1176 C1179 1.386 . S
H1177 C1193 0.930 . S
H1178 C1194 0.931 . S
C1179 H1167 0.929 . S
C1179 C1173 1.390 . S
C1179 C1176 1.386 . S
C1180 C1175 1.490 . S
C1180 C1182 1.395 . S
C1180 C1183 1.403 . S
H1181 C1187 0.930 . S
C1182 H1168 0.930 . S
C1182 C1180 1.395 . S
C1182 C1185 1.403 . S
C1183 C1180 1.403 . S
C1183 C1184 1.524 . S
C1183 C1187 1.400 . S
C1184 H1169 0.960 . S
C1184 H1170 0.960 . S
C1184 H1171 0.960 . S
C1184 C1183 1.524 . S
C1185 C1182 1.403 . S
C1185 C1186 1.392 . S
C1185 C1189 1.495 . S
C1186 C1185 1.392 . S
C1186 C1187 1.385 . S
C1186 C1188 1.478 . S
C1187 H1181 0.930 . S
C1187 C1183 1.400 . S
C1187 C1186 1.385 . S
C1188 C1186 1.478 . S
C1188 C1190 1.381 . S
C1188 C1194 1.383 . S
C1189 C1185 1.495 . S
C1189 H1195 0.959 . S
C1189 H1196 0.961 . S
C1189 H1197 0.960 . S
C1190 C1188 1.381 . S
C1190 C1191 1.394 . S
C1190 H1198 0.930 . S
C1191 C1190 1.394 . S
C1191 C1192 1.383 . S
C1191 H1199 0.929 . S
C1192 C1191 1.383 . S
C1192 C1193 1.377 . S
C1193 H1177 0.930 . S
C1193 C1192 1.377 . S
C1193 C1194 1.379 . S
C1194 H1178 0.931 . S
C1194 C1188 1.383 . S
C1194 C1193 1.379 . S
H1195 C1189 0.959 . S
H1196 C1189 0.961 . S
H1197 C1189 0.960 . S
H1198 C1190 0.930 . S
H1199 C1191 0.929 . S
H1200 C1208 0.929 . S
H1201 C1210 0.930 . S
H1202 C1212 0.930 . S
H1203 C1215 0.929 . S
H1204 C1218 0.930 . S
H1205 C1220 0.960 . S
H1206 C1220 0.960 . S
H1207 C1220 0.960 . S
C1208 H1200 0.929 . S
C1208 C1209 1.377 . S
C1208 C1210 1.384 . S
C1209 C1208 1.377 . S
C1209 C1215 1.390 . S
C1210 H1201 0.930 . S
C1210 C1208 1.384 . S
C1210 C1211 1.372 . S
C1211 C1210 1.372 . S
C1211 C1212 1.400 . S
C1211 C1216 1.490 . S
C1212 H1202 0.930 . S
C1212 C1211 1.400 . S
C1212 C1215 1.386 . S
H1213 C1229 0.930 . S
H1214 C1230 0.931 . S
C1215 H1203 0.929 . S
C1215 C1209 1.390 . S
C1215 C1212 1.386 . S
C1216 C1211 1.490 . S
C1216 C1218 1.395 . S
C1216 C1219 1.403 . S
H1217 C1223 0.930 . S
C1218 H1204 0.930 . S
C1218 C1216 1.395 . S
C1218 C1221 1.403 . S
C1219 C1216 1.403 . S
C1219 C1220 1.524 . S
C1219 C1223 1.400 . S
C1220 H1205 0.960 . S
C1220 H1206 0.960 . S
C1220 H1207 0.960 . S
C1220 C1219 1.524 . S
C1221 C1218 1.403 . S
C1221 C1222 1.392 . S
C1221 C1225 1.495 . S
C1222 C1221 1.392 . S
C1222 C1223 1.385 . S
C1222 C1224 1.478 . S
C1223 H1217 0.930 . S
C1223 C1219 1.400 . S
C1223 C1222 1.385 . S
C1224 C1222 1.478 . S
C1224 C1226 1.381 . S
C1224 C1230 1.383 . S
C1225 C1221 1.495 . S
C1225 H1231 0.959 . S
C1225 H1232 0.961 . S
C1225 H1233 0.960 . S
C1226 C1224 1.381 . S
C1226 C1227 1.394 . S
C1226 H1234 0.930 . S
C1227 C1226 1.394 . S
C1227 C1228 1.383 . S
C1227 H1235 0.929 . S
C1228 C1227 1.383 . S
C1228 C1229 1.377 . S
C1229 H1213 0.930 . S
C1229 C1228 1.377 . S
C1229 C1230 1.379 . S
C1230 H1214 0.931 . S
C1230 C1224 1.383 . S
C1230 C1229 1.379 . S
H1231 C1225 0.959 . S
H1232 C1225 0.961 . S
H1233 C1225 0.960 . S
H1234 C1226 0.930 . S
H1235 C1227 0.929 . S
H1236 C1244 0.929 . S
H1237 C1246 0.930 . S
H1238 C1248 0.930 . S
H1239 C1251 0.929 . S
H1240 C1254 0.930 . S
H1241 C1256 0.960 . S
H1242 C1256 0.960 . S
H1243 C1256 0.960 . S
C1244 H1236 0.929 . S
C1244 C1245 1.377 . S
C1244 C1246 1.384 . S
C1245 C1244 1.377 . S
C1245 C1251 1.390 . S
C1246 H1237 0.930 . S
C1246 C1244 1.384 . S
C1246 C1247 1.372 . S
C1247 C1246 1.372 . S
C1247 C1248 1.400 . S
C1247 C1252 1.490 . S
C1248 H1238 0.930 . S
C1248 C1247 1.400 . S
C1248 C1251 1.386 . S
H1249 C1265 0.930 . S
H1250 C1266 0.931 . S
C1251 H1239 0.929 . S
C1251 C1245 1.390 . S
C1251 C1248 1.386 . S
C1252 C1247 1.490 . S
C1252 C1254 1.395 . S
C1252 C1255 1.403 . S
H1253 C1259 0.930 . S
C1254 H1240 0.930 . S
C1254 C1252 1.395 . S
C1254 C1257 1.403 . S
C1255 C1252 1.403 . S
C1255 C1256 1.524 . S
C1255 C1259 1.400 . S
C1256 H1241 0.960 . S
C1256 H1242 0.960 . S
C1256 H1243 0.960 . S
C1256 C1255 1.524 . S
C1257 C1254 1.403 . S
C1257 C1258 1.392 . S
C1257 C1261 1.495 . S
C1258 C1257 1.392 . S
C1258 C1259 1.385 . S
C1258 C1260 1.478 . S
C1259 H1253 0.930 . S
C1259 C1255 1.400 . S
C1259 C1258 1.385 . S
C1260 C1258 1.478 . S
C1260 C1262 1.381 . S
C1260 C1266 1.383 . S
C1261 C1257 1.495 . S
C1261 H1267 0.959 . S
C1261 H1268 0.961 . S
C1261 H1269 0.960 . S
C1262 C1260 1.381 . S
C1262 C1263 1.394 . S
C1262 H1270 0.930 . S
C1263 C1262 1.394 . S
C1263 C1264 1.383 . S
C1263 H1271 0.929 . S
C1264 C1263 1.383 . S
C1264 C1265 1.377 . S
C1265 H1249 0.930 . S
C1265 C1264 1.377 . S
C1265 C1266 1.379 . S
C1266 H1250 0.931 . S
C1266 C1260 1.383 . S
C1266 C1265 1.379 . S
H1267 C1261 0.959 . S
H1268 C1261 0.961 . S
H1269 C1261 0.960 . S
H1270 C1262 0.930 . S
H1271 C1263 0.929 . S
H1272 C1280 0.929 . S
H1273 C1282 0.930 . S
H1274 C1284 0.930 . S
H1275 C1287 0.929 . S
H1276 C1290 0.930 . S
H1277 C1292 0.960 . S
H1278 C1292 0.960 . S
H1279 C1292 0.960 . S
C1280 H1272 0.929 . S
C1280 C1281 1.377 . S
C1280 C1282 1.384 . S
C1281 C1280 1.377 . S
C1281 C1287 1.390 . S
C1282 H1273 0.930 . S
C1282 C1280 1.384 . S
C1282 C1283 1.372 . S
C1283 C1282 1.372 . S
C1283 C1284 1.400 . S
C1283 C1288 1.490 . S
C1284 H1274 0.930 . S
C1284 C1283 1.400 . S
C1284 C1287 1.386 . S
H1285 C1301 0.930 . S
H1286 C1302 0.931 . S
C1287 H1275 0.929 . S
C1287 C1281 1.390 . S
C1287 C1284 1.386 . S
C1288 C1283 1.490 . S
C1288 C1290 1.395 . S
C1288 C1291 1.403 . S
H1289 C1295 0.930 . S
C1290 H1276 0.930 . S
C1290 C1288 1.395 . S
C1290 C1293 1.403 . S
C1291 C1288 1.403 . S
C1291 C1292 1.524 . S
C1291 C1295 1.400 . S
C1292 H1277 0.960 . S
C1292 H1278 0.960 . S
C1292 H1279 0.960 . S
C1292 C1291 1.524 . S
C1293 C1290 1.403 . S
C1293 C1294 1.392 . S
C1293 C1297 1.495 . S
C1294 C1293 1.392 . S
C1294 C1295 1.385 . S
C1294 C1296 1.478 . S
C1295 H1289 0.930 . S
C1295 C1291 1.400 . S
C1295 C1294 1.385 . S
C1296 C1294 1.478 . S
C1296 C1298 1.381 . S
C1296 C1302 1.383 . S
C1297 C1293 1.495 . S
C1297 H1303 0.959 . S
C1297 H1304 0.961 . S
C1297 H1305 0.960 . S
C1298 C1296 1.381 . S
C1298 C1299 1.394 . S
C1298 H1306 0.930 . S
C1299 C1298 1.394 . S
C1299 C1300 1.383 . S
C1299 H1307 0.929 . S
C1300 C1299 1.383 . S
C1300 C1301 1.377 . S
C1301 H1285 0.930 . S
C1301 C1300 1.377 . S
C1301 C1302 1.379 . S
C1302 H1286 0.931 . S
C1302 C1296 1.383 . S
C1302 C1301 1.379 . S
H1303 C1297 0.959 . S
H1304 C1297 0.961 . S
H1305 C1297 0.960 . S
H1306 C1298 0.930 . S
H1307 C1299 0.929 . S
H1308 C1316 0.929 . S
H1309 C1318 0.930 . S
H1310 C1320 0.930 . S
H1311 C1323 0.929 . S
H1312 C1326 0.930 . S
H1313 C1328 0.960 . S
H1314 C1328 0.960 . S
H1315 C1328 0.960 . S
C1316 H1308 0.929 . S
C1316 C1317 1.377 . S
C1316 C1318 1.384 . S
C1317 C1316 1.377 . S
C1317 C1323 1.390 . S
C1318 H1309 0.930 . S
C1318 C1316 1.384 . S
C1318 C1319 1.372 . S
C1319 C1318 1.372 . S
C1319 C1320 1.400 . S
C1319 C1324 1.490 . S
C1320 H1310 0.930 . S
C1320 C1319 1.400 . S
C1320 C1323 1.386 . S
H1321 C1337 0.930 . S
H1322 C1338 0.931 . S
C1323 H1311 0.929 . S
C1323 C1317 1.390 . S
C1323 C1320 1.386 . S
C1324 C1319 1.490 . S
C1324 C1326 1.395 . S
C1324 C1327 1.403 . S
H1325 C1331 0.930 . S
C1326 H1312 0.930 . S
C1326 C1324 1.395 . S
C1326 C1329 1.403 . S
C1327 C1324 1.403 . S
C1327 C1328 1.524 . S
C1327 C1331 1.400 . S
C1328 H1313 0.960 . S
C1328 H1314 0.960 . S
C1328 H1315 0.960 . S
C1328 C1327 1.524 . S
C1329 C1326 1.403 . S
C1329 C1330 1.392 . S
C1329 C1333 1.495 . S
C1330 C1329 1.392 . S
C1330 C1331 1.385 . S
C1330 C1332 1.478 . S
C1331 H1325 0.930 . S
C1331 C1327 1.400 . S
C1331 C1330 1.385 . S
C1332 C1330 1.478 . S
C1332 C1334 1.381 . S
C1332 C1338 1.383 . S
C1333 C1329 1.495 . S
C1333 H1339 0.959 . S
C1333 H1340 0.961 . S
C1333 H1341 0.960 . S
C1334 C1332 1.381 . S
C1334 C1335 1.394 . S
C1334 H1342 0.930 . S
C1335 C1334 1.394 . S
C1335 C1336 1.383 . S
C1335 H1343 0.929 . S
C1336 C1335 1.383 . S
C1336 C1337 1.377 . S
C1337 H1321 0.930 . S
C1337 C1336 1.377 . S
C1337 C1338 1.379 . S
C1338 H1322 0.931 . S
C1338 C1332 1.383 . S
C1338 C1337 1.379 . S
H1339 C1333 0.959 . S
H1340 C1333 0.961 . S
H1341 C1333 0.960 . S
H1342 C1334 0.930 . S
H1343 C1335 0.929 . S
H1344 C1352 0.929 . S
H1345 C1354 0.930 . S
H1346 C1356 0.930 . S
H1347 C1359 0.929 . S
H1348 C1362 0.930 . S
H1349 C1364 0.960 . S
H1350 C1364 0.960 . S
H1351 C1364 0.960 . S
C1352 H1344 0.929 . S
C1352 C1353 1.377 . S
C1352 C1354 1.384 . S
C1353 C1352 1.377 . S
C1353 C1359 1.390 . S
C1354 H1345 0.930 . S
C1354 C1352 1.384 . S
C1354 C1355 1.372 . S
C1355 C1354 1.372 . S
C1355 C1356 1.400 . S
C1355 C1360 1.490 . S
C1356 H1346 0.930 . S
C1356 C1355 1.400 . S
C1356 C1359 1.386 . S
H1357 C1373 0.930 . S
H1358 C1374 0.931 . S
C1359 H1347 0.929 . S
C1359 C1353 1.390 . S
C1359 C1356 1.386 . S
C1360 C1355 1.490 . S
C1360 C1362 1.395 . S
C1360 C1363 1.403 . S
H1361 C1367 0.930 . S
C1362 H1348 0.930 . S
C1362 C1360 1.395 . S
C1362 C1365 1.403 . S
C1363 C1360 1.403 . S
C1363 C1364 1.524 . S
C1363 C1367 1.400 . S
C1364 H1349 0.960 . S
C1364 H1350 0.960 . S
C1364 H1351 0.960 . S
C1364 C1363 1.524 . S
C1365 C1362 1.403 . S
C1365 C1366 1.392 . S
C1365 C1369 1.495 . S
C1366 C1365 1.392 . S
C1366 C1367 1.385 . S
C1366 C1368 1.478 . S
C1367 H1361 0.930 . S
C1367 C1363 1.400 . S
C1367 C1366 1.385 . S
C1368 C1366 1.478 . S
C1368 C1370 1.381 . S
C1368 C1374 1.383 . S
C1369 C1365 1.495 . S
C1369 H1375 0.959 . S
C1369 H1376 0.961 . S
C1369 H1377 0.960 . S
C1370 C1368 1.381 . S
C1370 C1371 1.394 . S
C1370 H1378 0.930 . S
C1371 C1370 1.394 . S
C1371 C1372 1.383 . S
C1371 H1379 0.929 . S
C1372 C1371 1.383 . S
C1372 C1373 1.377 . S
C1373 H1357 0.930 . S
C1373 C1372 1.377 . S
C1373 C1374 1.379 . S
C1374 H1358 0.931 . S
C1374 C1368 1.383 . S
C1374 C1373 1.379 . S
H1375 C1369 0.959 . S
H1376 C1369 0.961 . S
H1377 C1369 0.960 . S
H1378 C1370 0.930 . S
H1379 C1371 0.929 . S
H1380 C1388 0.929 . S
H1381 C1390 0.930 . S
H1382 C1392 0.930 . S
H1383 C1395 0.929 . S
H1384 C1398 0.930 . S
H1385 C1400 0.960 . S
H1386 C1400 0.960 . S
H1387 C1400 0.960 . S
C1388 H1380 0.929 . S
C1388 C1389 1.377 . S
C1388 C1390 1.384 . S
C1389 C1388 1.377 . S
C1389 C1395 1.390 . S
C1390 H1381 0.930 . S
C1390 C1388 1.384 . S
C1390 C1391 1.372 . S
C1391 C1390 1.372 . S
C1391 C1392 1.400 . S
C1391 C1396 1.490 . S
C1392 H1382 0.930 . S
C1392 C1391 1.400 . S
C1392 C1395 1.386 . S
H1393 C1409 0.930 . S
H1394 C1410 0.931 . S
C1395 H1383 0.929 . S
C1395 C1389 1.390 . S
C1395 C1392 1.386 . S
C1396 C1391 1.490 . S
C1396 C1398 1.395 . S
C1396 C1399 1.403 . S
H1397 C1403 0.930 . S
C1398 H1384 0.930 . S
C1398 C1396 1.395 . S
C1398 C1401 1.403 . S
C1399 C1396 1.403 . S
C1399 C1400 1.524 . S
C1399 C1403 1.400 . S
C1400 H1385 0.960 . S
C1400 H1386 0.960 . S
C1400 H1387 0.960 . S
C1400 C1399 1.524 . S
C1401 C1398 1.403 . S
C1401 C1402 1.392 . S
C1401 C1405 1.495 . S
C1402 C1401 1.392 . S
C1402 C1403 1.385 . S
C1402 C1404 1.478 . S
C1403 H1397 0.930 . S
C1403 C1399 1.400 . S
C1403 C1402 1.385 . S
C1404 C1402 1.478 . S
C1404 C1406 1.381 . S
C1404 C1410 1.383 . S
C1405 C1401 1.495 . S
C1405 H1411 0.959 . S
C1405 H1412 0.961 . S
C1405 H1413 0.960 . S
C1406 C1404 1.381 . S
C1406 C1407 1.394 . S
C1406 H1414 0.930 . S
C1407 C1406 1.394 . S
C1407 C1408 1.383 . S
C1407 H1415 0.929 . S
C1408 C1407 1.383 . S
C1408 C1409 1.377 . S
C1409 H1393 0.930 . S
C1409 C1408 1.377 . S
C1409 C1410 1.379 . S
C1410 H1394 0.931 . S
C1410 C1404 1.383 . S
C1410 C1409 1.379 . S
H1411 C1405 0.959 . S
H1412 C1405 0.961 . S
H1413 C1405 0.960 . S
H1414 C1406 0.930 . S
H1415 C1407 0.929 . S
H1416 C1424 0.929 . S
H1417 C1426 0.930 . S
H1418 C1428 0.930 . S
H1419 C1431 0.929 . S
H1420 C1434 0.930 . S
H1421 C1436 0.960 . S
H1422 C1436 0.960 . S
H1423 C1436 0.960 . S
C1424 H1416 0.929 . S
C1424 C1425 1.377 . S
C1424 C1426 1.384 . S
C1425 C1424 1.377 . S
C1425 C1431 1.390 . S
C1426 H1417 0.930 . S
C1426 C1424 1.384 . S
C1426 C1427 1.372 . S
C1427 C1426 1.372 . S
C1427 C1428 1.400 . S
C1427 C1432 1.490 . S
C1428 H1418 0.930 . S
C1428 C1427 1.400 . S
C1428 C1431 1.386 . S
H1429 C1445 0.930 . S
H1430 C1446 0.931 . S
C1431 H1419 0.929 . S
C1431 C1425 1.390 . S
C1431 C1428 1.386 . S
C1432 C1427 1.490 . S
C1432 C1434 1.395 . S
C1432 C1435 1.403 . S
H1433 C1439 0.930 . S
C1434 H1420 0.930 . S
C1434 C1432 1.395 . S
C1434 C1437 1.403 . S
C1435 C1432 1.403 . S
C1435 C1436 1.524 . S
C1435 C1439 1.400 . S
C1436 H1421 0.960 . S
C1436 H1422 0.960 . S
C1436 H1423 0.960 . S
C1436 C1435 1.524 . S
C1437 C1434 1.403 . S
C1437 C1438 1.392 . S
C1437 C1441 1.495 . S
C1438 C1437 1.392 . S
C1438 C1439 1.385 . S
C1438 C1440 1.478 . S
C1439 H1433 0.930 . S
C1439 C1435 1.400 . S
C1439 C1438 1.385 . S
C1440 C1438 1.478 . S
C1440 C1442 1.381 . S
C1440 C1446 1.383 . S
C1441 C1437 1.495 . S
C1441 H1447 0.959 . S
C1441 H1448 0.961 . S
C1441 H1449 0.960 . S
C1442 C1440 1.381 . S
C1442 C1443 1.394 . S
C1442 H1450 0.930 . S
C1443 C1442 1.394 . S
C1443 C1444 1.383 . S
C1443 H1451 0.929 . S
C1444 C1443 1.383 . S
C1444 C1445 1.377 . S
C1445 H1429 0.930 . S
C1445 C1444 1.377 . S
C1445 C1446 1.379 . S
C1446 H1430 0.931 . S
C1446 C1440 1.383 . S
C1446 C1445 1.379 . S
H1447 C1441 0.959 . S
H1448 C1441 0.961 . S
H1449 C1441 0.960 . S
H1450 C1442 0.930 . S
H1451 C1443 0.929 . S
H1452 C1460 0.929 . S
H1453 C1462 0.930 . S
H1454 C1464 0.930 . S
H1455 C1467 0.929 . S
H1456 C1470 0.930 . S
H1457 C1472 0.960 . S
H1458 C1472 0.960 . S
H1459 C1472 0.960 . S
C1460 H1452 0.929 . S
C1460 C1461 1.377 . S
C1460 C1462 1.384 . S
C1461 C1460 1.377 . S
C1461 C1467 1.390 . S
C1462 H1453 0.930 . S
C1462 C1460 1.384 . S
C1462 C1463 1.372 . S
C1463 C1462 1.372 . S
C1463 C1464 1.400 . S
C1463 C1468 1.490 . S
C1464 H1454 0.930 . S
C1464 C1463 1.400 . S
C1464 C1467 1.386 . S
H1465 C1481 0.930 . S
H1466 C1482 0.931 . S
C1467 H1455 0.929 . S
C1467 C1461 1.390 . S
C1467 C1464 1.386 . S
C1468 C1463 1.490 . S
C1468 C1470 1.395 . S
C1468 C1471 1.403 . S
H1469 C1475 0.930 . S
C1470 H1456 0.930 . S
C1470 C1468 1.395 . S
C1470 C1473 1.403 . S
C1471 C1468 1.403 . S
C1471 C1472 1.524 . S
C1471 C1475 1.400 . S
C1472 H1457 0.960 . S
C1472 H1458 0.960 . S
C1472 H1459 0.960 . S
C1472 C1471 1.524 . S
C1473 C1470 1.403 . S
C1473 C1474 1.392 . S
C1473 C1477 1.495 . S
C1474 C1473 1.392 . S
C1474 C1475 1.385 . S
C1474 C1476 1.478 . S
C1475 H1469 0.930 . S
C1475 C1471 1.400 . S
C1475 C1474 1.385 . S
C1476 C1474 1.478 . S
C1476 C1478 1.381 . S
C1476 C1482 1.383 . S
C1477 C1473 1.495 . S
C1477 H1483 0.959 . S
C1477 H1484 0.961 . S
C1477 H1485 0.960 . S
C1478 C1476 1.381 . S
C1478 C1479 1.394 . S
C1478 H1486 0.930 . S
C1479 C1478 1.394 . S
C1479 C1480 1.383 . S
C1479 H1487 0.929 . S
C1480 C1479 1.383 . S
C1480 C1481 1.377 . S
C1481 H1465 0.930 . S
C1481 C1480 1.377 . S
C1481 C1482 1.379 . S
C1482 H1466 0.931 . S
C1482 C1476 1.383 . S
C1482 C1481 1.379 . S
H1483 C1477 0.959 . S
H1484 C1477 0.961 . S
H1485 C1477 0.960 . S
H1486 C1478 0.930 . S
H1487 C1479 0.929 . S
H1488 C1496 0.929 . S
H1489 C1498 0.930 . S
H1490 C1500 0.930 . S
H1491 C1503 0.929 . S
H1492 C1506 0.930 . S
H1493 C1508 0.960 . S
H1494 C1508 0.960 . S
H1495 C1508 0.960 . S
C1496 H1488 0.929 . S
C1496 C1497 1.377 . S
C1496 C1498 1.384 . S
C1497 C1496 1.377 . S
C1497 C1503 1.390 . S
C1498 H1489 0.930 . S
C1498 C1496 1.384 . S
C1498 C1499 1.372 . S
C1499 C1498 1.372 . S
C1499 C1500 1.400 . S
C1499 C1504 1.490 . S
C1500 H1490 0.930 . S
C1500 C1499 1.400 . S
C1500 C1503 1.386 . S
H1501 C1517 0.930 . S
H1502 C1518 0.931 . S
C1503 H1491 0.929 . S
C1503 C1497 1.390 . S
C1503 C1500 1.386 . S
C1504 C1499 1.490 . S
C1504 C1506 1.395 . S
C1504 C1507 1.403 . S
H1505 C1511 0.930 . S
C1506 H1492 0.930 . S
C1506 C1504 1.395 . S
C1506 C1509 1.403 . S
C1507 C1504 1.403 . S
C1507 C1508 1.524 . S
C1507 C1511 1.400 . S
C1508 H1493 0.960 . S
C1508 H1494 0.960 . S
C1508 H1495 0.960 . S
C1508 C1507 1.524 . S
C1509 C1506 1.403 . S
C1509 C1510 1.392 . S
C1509 C1513 1.495 . S
C1510 C1509 1.392 . S
C1510 C1511 1.385 . S
C1510 C1512 1.478 . S
C1511 H1505 0.930 . S
C1511 C1507 1.400 . S
C1511 C1510 1.385 . S
C1512 C1510 1.478 . S
C1512 C1514 1.381 . S
C1512 C1518 1.383 . S
C1513 C1509 1.495 . S
C1513 H1519 0.959 . S
C1513 H1520 0.961 . S
C1513 H1521 0.960 . S
C1514 C1512 1.381 . S
C1514 C1515 1.394 . S
C1514 H1522 0.930 . S
C1515 C1514 1.394 . S
C1515 C1516 1.383 . S
C1515 H1523 0.929 . S
C1516 C1515 1.383 . S
C1516 C1517 1.377 . S
C1517 H1501 0.930 . S
C1517 C1516 1.377 . S
C1517 C1518 1.379 . S
C1518 H1502 0.931 . S
C1518 C1512 1.383 . S
C1518 C1517 1.379 . S
H1519 C1513 0.959 . S
H1520 C1513 0.961 . S
H1521 C1513 0.960 . S
H1522 C1514 0.930 . S
H1523 C1515 0.929 . S
H1524 C1532 0.929 . S
H1525 C1534 0.930 . S
H1526 C1536 0.930 . S
H1527 C1539 0.929 . S
H1528 C1542 0.930 . S
H1529 C1544 0.960 . S
H1530 C1544 0.960 . S
H1531 C1544 0.960 . S
C1532 H1524 0.929 . S
C1532 C1533 1.377 . S
C1532 C1534 1.384 . S
C1533 C1532 1.377 . S
C1533 C1539 1.390 . S
C1534 H1525 0.930 . S
C1534 C1532 1.384 . S
C1534 C1535 1.372 . S
C1535 C1534 1.372 . S
C1535 C1536 1.400 . S
C1535 C1540 1.490 . S
C1536 H1526 0.930 . S
C1536 C1535 1.400 . S
C1536 C1539 1.386 . S
H1537 C1553 0.930 . S
H1538 C1554 0.931 . S
C1539 H1527 0.929 . S
C1539 C1533 1.390 . S
C1539 C1536 1.386 . S
C1540 C1535 1.490 . S
C1540 C1542 1.395 . S
C1540 C1543 1.403 . S
H1541 C1547 0.930 . S
C1542 H1528 0.930 . S
C1542 C1540 1.395 . S
C1542 C1545 1.403 . S
C1543 C1540 1.403 . S
C1543 C1544 1.524 . S
C1543 C1547 1.400 . S
C1544 H1529 0.960 . S
C1544 H1530 0.960 . S
C1544 H1531 0.960 . S
C1544 C1543 1.524 . S
C1545 C1542 1.403 . S
C1545 C1546 1.392 . S
C1545 C1549 1.495 . S
C1546 C1545 1.392 . S
C1546 C1547 1.385 . S
C1546 C1548 1.478 . S
C1547 H1541 0.930 . S
C1547 C1543 1.400 . S
C1547 C1546 1.385 . S
C1548 C1546 1.478 . S
C1548 C1550 1.381 . S
C1548 C1554 1.383 . S
C1549 C1545 1.495 . S
C1549 H1555 0.959 . S
C1549 H1556 0.961 . S
C1549 H1557 0.960 . S
C1550 C1548 1.381 . S
C1550 C1551 1.394 . S
C1550 H1558 0.930 . S
C1551 C1550 1.394 . S
C1551 C1552 1.383 . S
C1551 H1559 0.929 . S
C1552 C1551 1.383 . S
C1552 C1553 1.377 . S
C1553 H1537 0.930 . S
C1553 C1552 1.377 . S
C1553 C1554 1.379 . S
C1554 H1538 0.931 . S
C1554 C1548 1.383 . S
C1554 C1553 1.379 . S
H1555 C1549 0.959 . S
H1556 C1549 0.961 . S
H1557 C1549 0.960 . S
H1558 C1550 0.930 . S
H1559 C1551 0.929 . S
H1560 C1568 0.929 . S
H1561 C1570 0.930 . S
H1562 C1572 0.930 . S
H1563 C1575 0.929 . S
H1564 C1578 0.930 . S
H1565 C1580 0.960 . S
H1566 C1580 0.960 . S
H1567 C1580 0.960 . S
C1568 H1560 0.929 . S
C1568 C1569 1.377 . S
C1568 C1570 1.384 . S
C1569 C1568 1.377 . S
C1569 C1575 1.390 . S
C1570 H1561 0.930 . S
C1570 C1568 1.384 . S
C1570 C1571 1.372 . S
C1571 C1570 1.372 . S
C1571 C1572 1.400 . S
C1571 C1576 1.490 . S
C1572 H1562 0.930 . S
C1572 C1571 1.400 . S
C1572 C1575 1.386 . S
H1573 C1589 0.930 . S
H1574 C1590 0.931 . S
C1575 H1563 0.929 . S
C1575 C1569 1.390 . S
C1575 C1572 1.386 . S
C1576 C1571 1.490 . S
C1576 C1578 1.395 . S
C1576 C1579 1.403 . S
H1577 C1583 0.930 . S
C1578 H1564 0.930 . S
C1578 C1576 1.395 . S
C1578 C1581 1.403 . S
C1579 C1576 1.403 . S
C1579 C1580 1.524 . S
C1579 C1583 1.400 . S
C1580 H1565 0.960 . S
C1580 H1566 0.960 . S
C1580 H1567 0.960 . S
C1580 C1579 1.524 . S
C1581 C1578 1.403 . S
C1581 C1582 1.392 . S
C1581 C1585 1.495 . S
C1582 C1581 1.392 . S
C1582 C1583 1.385 . S
C1582 C1584 1.478 . S
C1583 H1577 0.930 . S
C1583 C1579 1.400 . S
C1583 C1582 1.385 . S
C1584 C1582 1.478 . S
C1584 C1586 1.381 . S
C1584 C1590 1.383 . S
C1585 C1581 1.495 . S
C1585 H1591 0.959 . S
C1585 H1592 0.961 . S
C1585 H1593 0.960 . S
C1586 C1584 1.381 . S
C1586 C1587 1.394 . S
C1586 H1594 0.930 . S
C1587 C1586 1.394 . S
C1587 C1588 1.383 . S
C1587 H1595 0.929 . S
C1588 C1587 1.383 . S
C1588 C1589 1.377 . S
C1589 H1573 0.930 . S
C1589 C1588 1.377 . S
C1589 C1590 1.379 . S
C1590 H1574 0.931 . S
C1590 C1584 1.383 . S
C1590 C1589 1.379 . S
H1591 C1585 0.959 . S
H1592 C1585 0.961 . S
H1593 C1585 0.960 . S
H1594 C1586 0.930 . S
H1595 C1587 0.929 . S
H1596 C1604 0.929 . S
H1597 C1606 0.930 . S
H1598 C1608 0.930 . S
H1599 C1611 0.929 . S
H1600 C1614 0.930 . S
H1601 C1616 0.960 . S
H1602 C1616 0.960 . S
H1603 C1616 0.960 . S
C1604 H1596 0.929 . S
C1604 C1605 1.377 . S
C1604 C1606 1.384 . S
C1605 C1604 1.377 . S
C1605 C1611 1.390 . S
C1606 H1597 0.930 . S
C1606 C1604 1.384 . S
C1606 C1607 1.372 . S
C1607 C1606 1.372 . S
C1607 C1608 1.400 . S
C1607 C1612 1.490 . S
C1608 H1598 0.930 . S
C1608 C1607 1.400 . S
C1608 C1611 1.386 . S
H1609 C1625 0.930 . S
H1610 C1626 0.931 . S
C1611 H1599 0.929 . S
C1611 C1605 1.390 . S
C1611 C1608 1.386 . S
C1612 C1607 1.490 . S
C1612 C1614 1.395 . S
C1612 C1615 1.403 . S
H1613 C1619 0.930 . S
C1614 H1600 0.930 . S
C1614 C1612 1.395 . S
C1614 C1617 1.403 . S
C1615 C1612 1.403 . S
C1615 C1616 1.524 . S
C1615 C1619 1.400 . S
C1616 H1601 0.960 . S
C1616 H1602 0.960 . S
C1616 H1603 0.960 . S
C1616 C1615 1.524 . S
C1617 C1614 1.403 . S
C1617 C1618 1.392 . S
C1617 C1621 1.495 . S
C1618 C1617 1.392 . S
C1618 C1619 1.385 . S
C1618 C1620 1.478 . S
C1619 H1613 0.930 . S
C1619 C1615 1.400 . S
C1619 C1618 1.385 . S
C1620 C1618 1.478 . S
C1620 C1622 1.381 . S
C1620 C1626 1.383 . S
C1621 C1617 1.495 . S
C1621 H1627 0.959 . S
C1621 H1628 0.961 . S
C1621 H1629 0.960 . S
C1622 C1620 1.381 . S
C1622 C1623 1.394 . S
C1622 H1630 0.930 . S
C1623 C1622 1.394 . S
C1623 C1624 1.383 . S
C1623 H1631 0.929 . S
C1624 C1623 1.383 . S
C1624 C1625 1.377 . S
C1625 H1609 0.930 . S
C1625 C1624 1.377 . S
C1625 C1626 1.379 . S
C1626 H1610 0.931 . S
C1626 C1620 1.383 . S
C1626 C1625 1.379 . S
H1627 C1621 0.959 . S
H1628 C1621 0.961 . S
H1629 C1621 0.960 . S
H1630 C1622 0.930 . S
H1631 C1623 0.929 . S
H1632 C1640 0.929 . S
H1633 C1642 0.930 . S
H1634 C1644 0.930 . S
H1635 C1647 0.929 . S
H1636 C1650 0.930 . S
H1637 C1652 0.960 . S
H1638 C1652 0.960 . S
H1639 C1652 0.960 . S
C1640 H1632 0.929 . S
C1640 C1641 1.377 . S
C1640 C1642 1.384 . S
C1641 C1640 1.377 . S
C1641 C1647 1.390 . S
C1642 H1633 0.930 . S
C1642 C1640 1.384 . S
C1642 C1643 1.372 . S
C1643 C1642 1.372 . S
C1643 C1644 1.400 . S
C1643 C1648 1.490 . S
C1644 H1634 0.930 . S
C1644 C1643 1.400 . S
C1644 C1647 1.386 . S
H1645 C1661 0.930 . S
H1646 C1662 0.931 . S
C1647 H1635 0.929 . S
C1647 C1641 1.390 . S
C1647 C1644 1.386 . S
C1648 C1643 1.490 . S
C1648 C1650 1.395 . S
C1648 C1651 1.403 . S
H1649 C1655 0.930 . S
C1650 H1636 0.930 . S
C1650 C1648 1.395 . S
C1650 C1653 1.403 . S
C1651 C1648 1.403 . S
C1651 C1652 1.524 . S
C1651 C1655 1.400 . S
C1652 H1637 0.960 . S
C1652 H1638 0.960 . S
C1652 H1639 0.960 . S
C1652 C1651 1.524 . S
C1653 C1650 1.403 . S
C1653 C1654 1.392 . S
C1653 C1657 1.495 . S
C1654 C1653 1.392 . S
C1654 C1655 1.385 . S
C1654 C1656 1.478 . S
C1655 H1649 0.930 . S
C1655 C1651 1.400 . S
C1655 C1654 1.385 . S
C1656 C1654 1.478 . S
C1656 C1658 1.381 . S
C1656 C1662 1.383 . S
C1657 C1653 1.495 . S
C1657 H1663 0.959 . S
C1657 H1664 0.961 . S
C1657 H1665 0.960 . S
C1658 C1656 1.381 . S
C1658 C1659 1.394 . S
C1658 H1666 0.930 . S
C1659 C1658 1.394 . S
C1659 C1660 1.383 . S
C1659 H1667 0.929 . S
C1660 C1659 1.383 . S
C1660 C1661 1.377 . S
C1661 H1645 0.930 . S
C1661 C1660 1.377 . S
C1661 C1662 1.379 . S
C1662 H1646 0.931 . S
C1662 C1656 1.383 . S
C1662 C1661 1.379 . S
H1663 C1657 0.959 . S
H1664 C1657 0.961 . S
H1665 C1657 0.960 . S
H1666 C1658 0.930 . S
H1667 C1659 0.929 . S
H1668 C1676 0.929 . S
H1669 C1678 0.930 . S
H1670 C1680 0.930 . S
H1671 C1683 0.929 . S
H1672 C1686 0.930 . S
H1673 C1688 0.960 . S
H1674 C1688 0.960 . S
H1675 C1688 0.960 . S
C1676 H1668 0.929 . S
C1676 C1677 1.377 . S
C1676 C1678 1.384 . S
C1677 C1676 1.377 . S
C1677 C1683 1.390 . S
C1678 H1669 0.930 . S
C1678 C1676 1.384 . S
C1678 C1679 1.372 . S
C1679 C1678 1.372 . S
C1679 C1680 1.400 . S
C1679 C1684 1.490 . S
C1680 H1670 0.930 . S
C1680 C1679 1.400 . S
C1680 C1683 1.386 . S
H1681 C1697 0.930 . S
H1682 C1698 0.931 . S
C1683 H1671 0.929 . S
C1683 C1677 1.390 . S
C1683 C1680 1.386 . S
C1684 C1679 1.490 . S
C1684 C1686 1.395 . S
C1684 C1687 1.403 . S
H1685 C1691 0.930 . S
C1686 H1672 0.930 . S
C1686 C1684 1.395 . S
C1686 C1689 1.403 . S
C1687 C1684 1.403 . S
C1687 C1688 1.524 . S
C1687 C1691 1.400 . S
C1688 H1673 0.960 . S
C1688 H1674 0.960 . S
C1688 H1675 0.960 . S
C1688 C1687 1.524 . S
C1689 C1686 1.403 . S
C1689 C1690 1.392 . S
C1689 C1693 1.495 . S
C1690 C1689 1.392 . S
C1690 C1691 1.385 . S
C1690 C1692 1.478 . S
C1691 H1685 0.930 . S
C1691 C1687 1.400 . S
C1691 C1690 1.385 . S
C1692 C1690 1.478 . S
C1692 C1694 1.381 . S
C1692 C1698 1.383 . S
C1693 C1689 1.495 . S
C1693 H1699 0.959 . S
C1693 H1700 0.961 . S
C1693 H1701 0.960 . S
C1694 C1692 1.381 . S
C1694 C1695 1.394 . S
C1694 H1702 0.930 . S
C1695 C1694 1.394 . S
C1695 C1696 1.383 . S
C1695 H1703 0.929 . S
C1696 C1695 1.383 . S
C1696 C1697 1.377 . S
C1697 H1681 0.930 . S
C1697 C1696 1.377 . S
C1697 C1698 1.379 . S
C1698 H1682 0.931 . S
C1698 C1692 1.383 . S
C1698 C1697 1.379 . S
H1699 C1693 0.959 . S
H1700 C1693 0.961 . S
H1701 C1693 0.960 . S
H1702 C1694 0.930 . S
H1703 C1695 0.929 . S
H1704 C1712 0.929 . S
H1705 C1714 0.930 . S
H1706 C1716 0.930 . S
H1707 C1719 0.929 . S
H1708 C1722 0.930 . S
H1709 C1724 0.960 . S
H1710 C1724 0.960 . S
H1711 C1724 0.960 . S
C1712 H1704 0.929 . S
C1712 C1713 1.377 . S
C1712 C1714 1.384 . S
C1713 C1712 1.377 . S
C1713 C1719 1.390 . S
C1714 H1705 0.930 . S
C1714 C1712 1.384 . S
C1714 C1715 1.372 . S
C1715 C1714 1.372 . S
C1715 C1716 1.400 . S
C1715 C1720 1.490 . S
C1716 H1706 0.930 . S
C1716 C1715 1.400 . S
C1716 C1719 1.386 . S
H1717 C1733 0.930 . S
H1718 C1734 0.931 . S
C1719 H1707 0.929 . S
C1719 C1713 1.390 . S
C1719 C1716 1.386 . S
C1720 C1715 1.490 . S
C1720 C1722 1.395 . S
C1720 C1723 1.403 . S
H1721 C1727 0.930 . S
C1722 H1708 0.930 . S
C1722 C1720 1.395 . S
C1722 C1725 1.403 . S
C1723 C1720 1.403 . S
C1723 C1724 1.524 . S
C1723 C1727 1.400 . S
C1724 H1709 0.960 . S
C1724 H1710 0.960 . S
C1724 H1711 0.960 . S
C1724 C1723 1.524 . S
C1725 C1722 1.403 . S
C1725 C1726 1.392 . S
C1725 C1729 1.495 . S
C1726 C1725 1.392 . S
C1726 C1727 1.385 . S
C1726 C1728 1.478 . S
C1727 H1721 0.930 . S
C1727 C1723 1.400 . S
C1727 C1726 1.385 . S
C1728 C1726 1.478 . S
C1728 C1730 1.381 . S
C1728 C1734 1.383 . S
C1729 C1725 1.495 . S
C1729 H1735 0.959 . S
C1729 H1736 0.961 . S
C1729 H1737 0.960 . S
C1730 C1728 1.381 . S
C1730 C1731 1.394 . S
C1730 H1738 0.930 . S
C1731 C1730 1.394 . S
C1731 C1732 1.383 . S
C1731 H1739 0.929 . S
C1732 C1731 1.383 . S
C1732 C1733 1.377 . S
C1733 H1717 0.930 . S
C1733 C1732 1.377 . S
C1733 C1734 1.379 . S
C1734 H1718 0.931 . S
C1734 C1728 1.383 . S
C1734 C1733 1.379 . S
H1735 C1729 0.959 . S
H1736 C1729 0.961 . S
H1737 C1729 0.960 . S
H1738 C1730 0.930 . S
H1739 C1731 0.929 . S
H1740 C1748 0.929 . S
H1741 C1750 0.930 . S
H1742 C1752 0.930 . S
H1743 C1755 0.929 . S
H1744 C1758 0.930 . S
H1745 C1760 0.960 . S
H1746 C1760 0.960 . S
H1747 C1760 0.960 . S
C1748 H1740 0.929 . S
C1748 C1749 1.377 . S
C1748 C1750 1.384 . S
C1749 C1748 1.377 . S
C1749 C1755 1.390 . S
C1750 H1741 0.930 . S
C1750 C1748 1.384 . S
C1750 C1751 1.372 . S
C1751 C1750 1.372 . S
C1751 C1752 1.400 . S
C1751 C1756 1.490 . S
C1752 H1742 0.930 . S
C1752 C1751 1.400 . S
C1752 C1755 1.386 . S
H1753 C1769 0.930 . S
H1754 C1770 0.931 . S
C1755 H1743 0.929 . S
C1755 C1749 1.390 . S
C1755 C1752 1.386 . S
C1756 C1751 1.490 . S
C1756 C1758 1.395 . S
C1756 C1759 1.403 . S
H1757 C1763 0.930 . S
C1758 H1744 0.930 . S
C1758 C1756 1.395 . S
C1758 C1761 1.403 . S
C1759 C1756 1.403 . S
C1759 C1760 1.524 . S
C1759 C1763 1.400 . S
C1760 H1745 0.960 . S
C1760 H1746 0.960 . S
C1760 H1747 0.960 . S
C1760 C1759 1.524 . S
C1761 C1758 1.403 . S
C1761 C1762 1.392 . S
C1761 C1765 1.495 . S
C1762 C1761 1.392 . S
C1762 C1763 1.385 . S
C1762 C1764 1.478 . S
C1763 H1757 0.930 . S
C1763 C1759 1.400 . S
C1763 C1762 1.385 . S
C1764 C1762 1.478 . S
C1764 C1766 1.381 . S
C1764 C1770 1.383 . S
C1765 C1761 1.495 . S
C1765 H1771 0.959 . S
C1765 H1772 0.961 . S
C1765 H1773 0.960 . S
C1766 C1764 1.381 . S
C1766 C1767 1.394 . S
C1766 H1774 0.930 . S
C1767 C1766 1.394 . S
C1767 C1768 1.383 . S
C1767 H1775 0.929 . S
C1768 C1767 1.383 . S
C1768 C1769 1.377 . S
C1769 H1753 0.930 . S
C1769 C1768 1.377 . S
C1769 C1770 1.379 . S
C1770 H1754 0.931 . S
C1770 C1764 1.383 . S
C1770 C1769 1.379 . S
H1771 C1765 0.959 . S
H1772 C1765 0.961 . S
H1773 C1765 0.960 . S
H1774 C1766 0.930 . S
H1775 C1767 0.929 . S
H1776 C1784 0.929 . S
H1777 C1786 0.930 . S
H1778 C1788 0.930 . S
H1779 C1791 0.929 . S
H1780 C1794 0.930 . S
H1781 C1796 0.960 . S
H1782 C1796 0.960 . S
H1783 C1796 0.960 . S
C1784 H1776 0.929 . S
C1784 C1785 1.377 . S
C1784 C1786 1.384 . S
C1785 C1784 1.377 . S
C1785 C1791 1.390 . S
C1786 H1777 0.930 . S
C1786 C1784 1.384 . S
C1786 C1787 1.372 . S
C1787 C1786 1.372 . S
C1787 C1788 1.400 . S
C1787 C1792 1.490 . S
C1788 H1778 0.930 . S
C1788 C1787 1.400 . S
C1788 C1791 1.386 . S
H1789 C1805 0.930 . S
H1790 C1806 0.931 . S
C1791 H1779 0.929 . S
C1791 C1785 1.390 . S
C1791 C1788 1.386 . S
C1792 C1787 1.490 . S
C1792 C1794 1.395 . S
C1792 C1795 1.403 . S
H1793 C1799 0.930 . S
C1794 H1780 0.930 . S
C1794 C1792 1.395 . S
C1794 C1797 1.403 . S
C1795 C1792 1.403 . S
C1795 C1796 1.524 . S
C1795 C1799 1.400 . S
C1796 H1781 0.960 . S
C1796 H1782 0.960 . S
C1796 H1783 0.960 . S
C1796 C1795 1.524 . S
C1797 C1794 1.403 . S
C1797 C1798 1.392 . S
C1797 C1801 1.495 . S
C1798 C1797 1.392 . S
C1798 C1799 1.385 . S
C1798 C1800 1.478 . S
C1799 H1793 0.930 . S
C1799 C1795 1.400 . S
C1799 C1798 1.385 . S
C1800 C1798 1.478 . S
C1800 C1802 1.381 . S
C1800 C1806 1.383 . S
C1801 C1797 1.495 . S
C1801 H1807 0.959 . S
C1801 H1808 0.961 . S
C1801 H1809 0.960 . S
C1802 C1800 1.381 . S
C1802 C1803 1.394 . S
C1802 H1810 0.930 . S
C1803 C1802 1.394 . S
C1803 C1804 1.383 . S
C1803 H1811 0.929 . S
C1804 C1803 1.383 . S
C1804 C1805 1.377 . S
C1805 H1789 0.930 . S
C1805 C1804 1.377 . S
C1805 C1806 1.379 . S
C1806 H1790 0.931 . S
C1806 C1800 1.383 . S
C1806 C1805 1.379 . S
H1807 C1801 0.959 . S
H1808 C1801 0.961 . S
H1809 C1801 0.960 . S
H1810 C1802 0.930 . S
H1811 C1803 0.929 . S
H1812 C1820 0.929 . S
H1813 C1822 0.930 . S
H1814 C1824 0.930 . S
H1815 C1827 0.929 . S
H1816 C1830 0.930 . S
H1817 C1832 0.960 . S
H1818 C1832 0.960 . S
H1819 C1832 0.960 . S
C1820 H1812 0.929 . S
C1820 C1821 1.377 . S
C1820 C1822 1.384 . S
C1821 C1820 1.377 . S
C1821 C1827 1.390 . S
C1822 H1813 0.930 . S
C1822 C1820 1.384 . S
C1822 C1823 1.372 . S
C1823 C1822 1.372 . S
C1823 C1824 1.400 . S
C1823 C1828 1.490 . S
C1824 H1814 0.930 . S
C1824 C1823 1.400 . S
C1824 C1827 1.386 . S
H1825 C1841 0.930 . S
H1826 C1842 0.931 . S
C1827 H1815 0.929 . S
C1827 C1821 1.390 . S
C1827 C1824 1.386 . S
C1828 C1823 1.490 . S
C1828 C1830 1.395 . S
C1828 C1831 1.403 . S
H1829 C1835 0.930 . S
C1830 H1816 0.930 . S
C1830 C1828 1.395 . S
C1830 C1833 1.403 . S
C1831 C1828 1.403 . S
C1831 C1832 1.524 . S
C1831 C1835 1.400 . S
C1832 H1817 0.960 . S
C1832 H1818 0.960 . S
C1832 H1819 0.960 . S
C1832 C1831 1.524 . S
C1833 C1830 1.403 . S
C1833 C1834 1.392 . S
C1833 C1837 1.495 . S
C1834 C1833 1.392 . S
C1834 C1835 1.385 . S
C1834 C1836 1.478 . S
C1835 H1829 0.930 . S
C1835 C1831 1.400 . S
C1835 C1834 1.385 . S
C1836 C1834 1.478 . S
C1836 C1838 1.381 . S
C1836 C1842 1.383 . S
C1837 C1833 1.495 . S
C1837 H1843 0.959 . S
C1837 H1844 0.961 . S
C1837 H1845 0.960 . S
C1838 C1836 1.381 . S
C1838 C1839 1.394 . S
C1838 H1846 0.930 . S
C1839 C1838 1.394 . S
C1839 C1840 1.383 . S
C1839 H1847 0.929 . S
C1840 C1839 1.383 . S
C1840 C1841 1.377 . S
C1841 H1825 0.930 . S
C1841 C1840 1.377 . S
C1841 C1842 1.379 . S
C1842 H1826 0.931 . S
C1842 C1836 1.383 . S
C1842 C1841 1.379 . S
H1843 C1837 0.959 . S
H1844 C1837 0.961 . S
H1845 C1837 0.960 . S
H1846 C1838 0.930 . S
H1847 C1839 0.929 . S
H1848 C1856 0.929 . S
H1849 C1858 0.930 . S
H1850 C1860 0.930 . S
H1851 C1863 0.929 . S
H1852 C1866 0.930 . S
H1853 C1868 0.960 . S
H1854 C1868 0.960 . S
H1855 C1868 0.960 . S
C1856 H1848 0.929 . S
C1856 C1857 1.377 . S
C1856 C1858 1.384 . S
C1857 C1856 1.377 . S
C1857 C1863 1.390 . S
C1858 H1849 0.930 . S
C1858 C1856 1.384 . S
C1858 C1859 1.372 . S
C1859 C1858 1.372 . S
C1859 C1860 1.400 . S
C1859 C1864 1.490 . S
C1860 H1850 0.930 . S
C1860 C1859 1.400 . S
C1860 C1863 1.386 . S
H1861 C1877 0.930 . S
H1862 C1878 0.931 . S
C1863 H1851 0.929 . S
C1863 C1857 1.390 . S
C1863 C1860 1.386 . S
C1864 C1859 1.490 . S
C1864 C1866 1.395 . S
C1864 C1867 1.403 . S
H1865 C1871 0.930 . S
C1866 H1852 0.930 . S
C1866 C1864 1.395 . S
C1866 C1869 1.403 . S
C1867 C1864 1.403 . S
C1867 C1868 1.524 . S
C1867 C1871 1.400 . S
C1868 H1853 0.960 . S
C1868 H1854 0.960 . S
C1868 H1855 0.960 . S
C1868 C1867 1.524 . S
C1869 C1866 1.403 . S
C1869 C1870 1.392 . S
C1869 C1873 1.495 . S
C1870 C1869 1.392 . S
C1870 C1871 1.385 . S
C1870 C1872 1.478 . S
C1871 H1865 0.930 . S
C1871 C1867 1.400 . S
C1871 C1870 1.385 . S
C1872 C1870 1.478 . S
C1872 C1874 1.381 . S
C1872 C1878 1.383 . S
C1873 C1869 1.495 . S
C1873 H1879 0.959 . S
C1873 H1880 0.961 . S
C1873 H1881 0.960 . S
C1874 C1872 1.381 . S
C1874 C1875 1.394 . S
C1874 H1882 0.930 . S
C1875 C1874 1.394 . S
C1875 C1876 1.383 . S
C1875 H1883 0.929 . S
C1876 C1875 1.383 . S
C1876 C1877 1.377 . S
C1877 H1861 0.930 . S
C1877 C1876 1.377 . S
C1877 C1878 1.379 . S
C1878 H1862 0.931 . S
C1878 C1872 1.383 . S
C1878 C1877 1.379 . S
H1879 C1873 0.959 . S
H1880 C1873 0.961 . S
H1881 C1873 0.960 . S
H1882 C1874 0.930 . S
H1883 C1875 0.929 . S
H1884 C1892 0.929 . S
H1885 C1894 0.930 . S
H1886 C1896 0.930 . S
H1887 C1899 0.929 . S
H1888 C1902 0.930 . S
H1889 C1904 0.960 . S
H1890 C1904 0.960 . S
H1891 C1904 0.960 . S
C1892 H1884 0.929 . S
C1892 C1893 1.377 . S
C1892 C1894 1.384 . S
C1893 C1892 1.377 . S
C1893 C1899 1.390 . S
C1894 H1885 0.930 . S
C1894 C1892 1.384 . S
C1894 C1895 1.372 . S
C1895 C1894 1.372 . S
C1895 C1896 1.400 . S
C1895 C1900 1.490 . S
C1896 H1886 0.930 . S
C1896 C1895 1.400 . S
C1896 C1899 1.386 . S
H1897 C1913 0.930 . S
H1898 C1914 0.931 . S
C1899 H1887 0.929 . S
C1899 C1893 1.390 . S
C1899 C1896 1.386 . S
C1900 C1895 1.490 . S
C1900 C1902 1.395 . S
C1900 C1903 1.403 . S
H1901 C1907 0.930 . S
C1902 H1888 0.930 . S
C1902 C1900 1.395 . S
C1902 C1905 1.403 . S
C1903 C1900 1.403 . S
C1903 C1904 1.524 . S
C1903 C1907 1.400 . S
C1904 H1889 0.960 . S
C1904 H1890 0.960 . S
C1904 H1891 0.960 . S
C1904 C1903 1.524 . S
C1905 C1902 1.403 . S
C1905 C1906 1.392 . S
C1905 C1909 1.495 . S
C1906 C1905 1.392 . S
C1906 C1907 1.385 . S
C1906 C1908 1.478 . S
C1907 H1901 0.930 . S
C1907 C1903 1.400 . S
C1907 C1906 1.385 . S
C1908 C1906 1.478 . S
C1908 C1910 1.381 . S
C1908 C1914 1.383 . S
C1909 C1905 1.495 . S
C1909 H1915 0.959 . S
C1909 H1916 0.961 . S
C1909 H1917 0.960 . S
C1910 C1908 1.381 . S
C1910 C1911 1.394 . S
C1910 H1918 0.930 . S
C1911 C1910 1.394 . S
C1911 C1912 1.383 . S
C1911 H1919 0.929 . S
C1912 C1911 1.383 . S
C1912 C1913 1.377 . S
C1913 H1897 0.930 . S
C1913 C1912 1.377 . S
C1913 C1914 1.379 . S
C1914 H1898 0.931 . S
C1914 C1908 1.383 . S
C1914 C1913 1.379 . S
H1915 C1909 0.959 . S
H1916 C1909 0.961 . S
H1917 C1909 0.960 . S
H1918 C1910 0.930 . S
H1919 C1911 0.929 . S
H1920 C1928 0.929 . S
H1921 C1930 0.930 . S
H1922 C1932 0.930 . S
H1923 C1935 0.929 . S
H1924 C1938 0.930 . S
H1925 C1940 0.960 . S
H1926 C1940 0.960 . S
H1927 C1940 0.960 . S
C1928 H1920 0.929 . S
C1928 C1929 1.377 . S
C1928 C1930 1.384 . S
C1929 C1928 1.377 . S
C1929 C1935 1.390 . S
C1930 H1921 0.930 . S
C1930 C1928 1.384 . S
C1930 C1931 1.372 . S
C1931 C1930 1.372 . S
C1931 C1932 1.400 . S
C1931 C1936 1.490 . S
C1932 H1922 0.930 . S
C1932 C1931 1.400 . S
C1932 C1935 1.386 . S
H1933 C1949 0.930 . S
H1934 C1950 0.931 . S
C1935 H1923 0.929 . S
C1935 C1929 1.390 . S
C1935 C1932 1.386 . S
C1936 C1931 1.490 . S
C1936 C1938 1.395 . S
C1936 C1939 1.403 . S
H1937 C1943 0.930 . S
C1938 H1924 0.930 . S
C1938 C1936 1.395 . S
C1938 C1941 1.403 . S
C1939 C1936 1.403 . S
C1939 C1940 1.524 . S
C1939 C1943 1.400 . S
C1940 H1925 0.960 . S
C1940 H1926 0.960 . S
C1940 H1927 0.960 . S
C1940 C1939 1.524 . S
C1941 C1938 1.403 . S
C1941 C1942 1.392 . S
C1941 C1945 1.495 . S
C1942 C1941 1.392 . S
C1942 C1943 1.385 . S
C1942 C1944 1.478 . S
C1943 H1937 0.930 . S
C1943 C1939 1.400 . S
C1943 C1942 1.385 . S
C1944 C1942 1.478 . S
C1944 C1946 1.381 . S
C1944 C1950 1.383 . S
C1945 C1941 1.495 . S
C1945 H1951 0.959 . S
C1945 H1952 0.961 . S
C1945 H1953 0.960 . S
C1946 C1944 1.381 . S
C1946 C1947 1.394 . S
C1946 H1954 0.930 . S
C1947 C1946 1.394 . S
C1947 C1948 1.383 . S
C1947 H1955 0.929 . S
C1948 C1947 1.383 . S
C1948 C1949 1.377 . S
C1949 H1933 0.930 . S
C1949 C1948 1.377 . S
C1949 C1950 1.379 . S
C1950 H1934 0.931 . S
C1950 C1944 1.383 . S
C1950 C1949 1.379 . S
H1951 C1945 0.959 . S
H1952 C1945 0.961 . S
H1953 C1945 0.960 . S
H1954 C1946 0.930 . S
H1955 C1947 0.929 . S
H1956 C1964 0.929 . S
H1957 C1966 0.930 . S
H1958 C1968 0.930 . S
H1959 C1971 0.929 . S
H1960 C1974 0.930 . S
H1961 C1976 0.960 . S
H1962 C1976 0.960 . S
H1963 C1976 0.960 . S
C1964 H1956 0.929 . S
C1964 C1965 1.377 . S
C1964 C1966 1.384 . S
C1965 C1964 1.377 . S
C1965 C1971 1.390 . S
C1966 H1957 0.930 . S
C1966 C1964 1.384 . S
C1966 C1967 1.372 . S
C1967 C1966 1.372 . S
C1967 C1968 1.400 . S
C1967 C1972 1.490 . S
C1968 H1958 0.930 . S
C1968 C1967 1.400 . S
C1968 C1971 1.386 . S
H1969 C1985 0.930 . S
H1970 C1986 0.931 . S
C1971 H1959 0.929 . S
C1971 C1965 1.390 . S
C1971 C1968 1.386 . S
C1972 C1967 1.490 . S
C1972 C1974 1.395 . S
C1972 C1975 1.403 . S
H1973 C1979 0.930 . S
C1974 H1960 0.930 . S
C1974 C1972 1.395 . S
C1974 C1977 1.403 . S
C1975 C1972 1.403 . S
C1975 C1976 1.524 . S
C1975 C1979 1.400 . S
C1976 H1961 0.960 . S
C1976 H1962 0.960 . S
C1976 H1963 0.960 . S
C1976 C1975 1.524 . S
C1977 C1974 1.403 . S
C1977 C1978 1.392 . S
C1977 C1981 1.495 . S
C1978 C1977 1.392 . S
C1978 C1979 1.385 . S
C1978 C1980 1.478 . S
C1979 H1973 0.930 . S
C1979 C1975 1.400 . S
C1979 C1978 1.385 . S
C1980 C1978 1.478 . S
C1980 C1982 1.381 . S
C1980 C1986 1.383 . S
C1981 C1977 1.495 . S
C1981 H1987 0.959 . S
C1981 H1988 0.961 . S
C1981 H1989 0.960 . S
C1982 C1980 1.381 . S
C1982 C1983 1.394 . S
C1982 H1990 0.930 . S
C1983 C1982 1.394 . S
C1983 C1984 1.383 . S
C1983 H1991 0.929 . S
C1984 C1983 1.383 . S
C1984 C1985 1.377 . S
C1985 H1969 0.930 . S
C1985 C1984 1.377 . S
C1985 C1986 1.379 . S
C1986 H1970 0.931 . S
C1986 C1980 1.383 . S
C1986 C1985 1.379 . S
H1987 C1981 0.959 . S
H1988 C1981 0.961 . S
H1989 C1981 0.960 . S
H1990 C1982 0.930 . S
H1991 C1983 0.929 . S
H1992 C2000 0.929 . S
H1993 C2002 0.930 . S
H1994 C2004 0.930 . S
H1995 C2007 0.929 . S
H1996 C2010 0.930 . S
H1997 C2012 0.960 . S
H1998 C2012 0.960 . S
H1999 C2012 0.960 . S
C2000 H1992 0.929 . S
C2000 C2001 1.377 . S
C2000 C2002 1.384 . S
C2001 C2000 1.377 . S
C2001 C2007 1.390 . S
C2002 H1993 0.930 . S
C2002 C2000 1.384 . S
C2002 C2003 1.372 . S
C2003 C2002 1.372 . S
C2003 C2004 1.400 . S
C2003 C2008 1.490 . S
C2004 H1994 0.930 . S
C2004 C2003 1.400 . S
C2004 C2007 1.386 . S
H2005 C2021 0.930 . S
H2006 C2022 0.931 . S
C2007 H1995 0.929 . S
C2007 C2001 1.390 . S
C2007 C2004 1.386 . S
C2008 C2003 1.490 . S
C2008 C2010 1.395 . S
C2008 C2011 1.403 . S
H2009 C2015 0.930 . S
C2010 H1996 0.930 . S
C2010 C2008 1.395 . S
C2010 C2013 1.403 . S
C2011 C2008 1.403 . S
C2011 C2012 1.524 . S
C2011 C2015 1.400 . S
C2012 H1997 0.960 . S
C2012 H1998 0.960 . S
C2012 H1999 0.960 . S
C2012 C2011 1.524 . S
C2013 C2010 1.403 . S
C2013 C2014 1.392 . S
C2013 C2017 1.495 . S
C2014 C2013 1.392 . S
C2014 C2015 1.385 . S
C2014 C2016 1.478 . S
C2015 H2009 0.930 . S
C2015 C2011 1.400 . S
C2015 C2014 1.385 . S
C2016 C2014 1.478 . S
C2016 C2018 1.381 . S
C2016 C2022 1.383 . S
C2017 C2013 1.495 . S
C2017 H2023 0.959 . S
C2017 H2024 0.961 . S
C2017 H2025 0.960 . S
C2018 C2016 1.381 . S
C2018 C2019 1.394 . S
C2018 H2026 0.930 . S
C2019 C2018 1.394 . S
C2019 C2020 1.383 . S
C2019 H2027 0.929 . S
C2020 C2019 1.383 . S
C2020 C2021 1.377 . S
C2021 H2005 0.930 . S
C2021 C2020 1.377 . S
C2021 C2022 1.379 . S
C2022 H2006 0.931 . S
C2022 C2016 1.383 . S
C2022 C2021 1.379 . S
H2023 C2017 0.959 . S
H2024 C2017 0.961 . S
H2025 C2017 0.960 . S
H2026 C2018 0.930 . S
H2027 C2019 0.929 . S
H2028 C2036 0.929 . S
H2029 C2038 0.930 . S
H2030 C2040 0.930 . S
H2031 C2043 0.929 . S
H2032 C2046 0.930 . S
H2033 C2048 0.960 . S
H2034 C2048 0.960 . S
H2035 C2048 0.960 . S
C2036 H2028 0.929 . S
C2036 C2037 1.377 . S
C2036 C2038 1.384 . S
C2037 C2036 1.377 . S
C2037 C2043 1.390 . S
C2038 H2029 0.930 . S
C2038 C2036 1.384 . S
C2038 C2039 1.372 . S
C2039 C2038 1.372 . S
C2039 C2040 1.400 . S
C2039 C2044 1.490 . S
C2040 H2030 0.930 . S
C2040 C2039 1.400 . S
C2040 C2043 1.386 . S
H2041 C2057 0.930 . S
H2042 C2058 0.931 . S
C2043 H2031 0.929 . S
C2043 C2037 1.390 . S
C2043 C2040 1.386 . S
C2044 C2039 1.490 . S
C2044 C2046 1.395 . S
C2044 C2047 1.403 . S
H2045 C2051 0.930 . S
C2046 H2032 0.930 . S
C2046 C2044 1.395 . S
C2046 C2049 1.403 . S
C2047 C2044 1.403 . S
C2047 C2048 1.524 . S
C2047 C2051 1.400 . S
C2048 H2033 0.960 . S
C2048 H2034 0.960 . S
C2048 H2035 0.960 . S
C2048 C2047 1.524 . S
C2049 C2046 1.403 . S
C2049 C2050 1.392 . S
C2049 C2053 1.495 . S
C2050 C2049 1.392 . S
C2050 C2051 1.385 . S
C2050 C2052 1.478 . S
C2051 H2045 0.930 . S
C2051 C2047 1.400 . S
C2051 C2050 1.385 . S
C2052 C2050 1.478 . S
C2052 C2054 1.381 . S
C2052 C2058 1.383 . S
C2053 C2049 1.495 . S
C2053 H2059 0.959 . S
C2053 H2060 0.961 . S
C2053 H2061 0.960 . S
C2054 C2052 1.381 . S
C2054 C2055 1.394 . S
C2054 H2062 0.930 . S
C2055 C2054 1.394 . S
C2055 C2056 1.383 . S
C2055 H2063 0.929 . S
C2056 C2055 1.383 . S
C2056 C2057 1.377 . S
C2057 H2041 0.930 . S
C2057 C2056 1.377 . S
C2057 C2058 1.379 . S
C2058 H2042 0.931 . S
C2058 C2052 1.383 . S
C2058 C2057 1.379 . S
H2059 C2053 0.959 . S
H2060 C2053 0.961 . S
H2061 C2053 0.960 . S
H2062 C2054 0.930 . S
H2063 C2055 0.929 . S
H2064 C2072 0.929 . S
H2065 C2074 0.930 . S
H2066 C2076 0.930 . S
H2067 C2079 0.929 . S
H2068 C2082 0.930 . S
H2069 C2084 0.960 . S
H2070 C2084 0.960 . S
H2071 C2084 0.960 . S
C2072 H2064 0.929 . S
C2072 C2073 1.377 . S
C2072 C2074 1.384 . S
C2073 C2072 1.377 . S
C2073 C2079 1.390 . S
C2074 H2065 0.930 . S
C2074 C2072 1.384 . S
C2074 C2075 1.372 . S
C2075 C2074 1.372 . S
C2075 C2076 1.400 . S
C2075 C2080 1.490 . S
C2076 H2066 0.930 . S
C2076 C2075 1.400 . S
C2076 C2079 1.386 . S
H2077 C2093 0.930 . S
H2078 C2094 0.931 . S
C2079 H2067 0.929 . S
C2079 C2073 1.390 . S
C2079 C2076 1.386 . S
C2080 C2075 1.490 . S
C2080 C2082 1.395 . S
C2080 C2083 1.403 . S
H2081 C2087 0.930 . S
C2082 H2068 0.930 . S
C2082 C2080 1.395 . S
C2082 C2085 1.403 . S
C2083 C2080 1.403 . S
C2083 C2084 1.524 . S
C2083 C2087 1.400 . S
C2084 H2069 0.960 . S
C2084 H2070 0.960 . S
C2084 H2071 0.960 . S
C2084 C2083 1.524 . S
C2085 C2082 1.403 . S
C2085 C2086 1.392 . S
C2085 C2089 1.495 . S
C2086 C2085 1.392 . S
C2086 C2087 1.385 . S
C2086 C2088 1.478 . S
C2087 H2081 0.930 . S
C2087 C2083 1.400 . S
C2087 C2086 1.385 . S
C2088 C2086 1.478 . S
C2088 C2090 1.381 . S
C2088 C2094 1.383 . S
C2089 C2085 1.495 . S
C2089 H2095 0.959 . S
C2089 H2096 0.961 . S
C2089 H2097 0.960 . S
C2090 C2088 1.381 . S
C2090 C2091 1.394 . S
C2090 H2098 0.930 . S
C2091 C2090 1.394 . S
C2091 C2092 1.383 . S
C2091 H2099 0.929 . S
C2092 C2091 1.383 . S
C2092 C2093 1.377 . S
C2093 H2077 0.930 . S
C2093 C2092 1.377 . S
C2093 C2094 1.379 . S
C2094 H2078 0.931 . S
C2094 C2088 1.383 . S
C2094 C2093 1.379 . S
H2095 C2089 0.959 . S
H2096 C2089 0.961 . S
H2097 C2089 0.960 . S
H2098 C2090 0.930 . S
H2099 C2091 0.929 . S
H2100 C2108 0.929 . S
H2101 C2110 0.930 . S
H2102 C2112 0.930 . S
H2103 C2115 0.929 . S
H2104 C2118 0.930 . S
H2105 C2120 0.960 . S
H2106 C2120 0.960 . S
H2107 C2120 0.960 . S
C2108 H2100 0.929 . S
C2108 C2109 1.377 . S
C2108 C2110 1.384 . S
C2109 C2108 1.377 . S
C2109 C2115 1.390 . S
C2110 H2101 0.930 . S
C2110 C2108 1.384 . S
C2110 C2111 1.372 . S
C2111 C2110 1.372 . S
C2111 C2112 1.400 . S
C2111 C2116 1.490 . S
C2112 H2102 0.930 . S
C2112 C2111 1.400 . S
C2112 C2115 1.386 . S
H2113 C2129 0.930 . S
H2114 C2130 0.931 . S
C2115 H2103 0.929 . S
C2115 C2109 1.390 . S
C2115 C2112 1.386 . S
C2116 C2111 1.490 . S
C2116 C2118 1.395 . S
C2116 C2119 1.403 . S
H2117 C2123 0.930 . S
C2118 H2104 0.930 . S
C2118 C2116 1.395 . S
C2118 C2121 1.403 . S
C2119 C2116 1.403 . S
C2119 C2120 1.524 . S
C2119 C2123 1.400 . S
C2120 H2105 0.960 . S
C2120 H2106 0.960 . S
C2120 H2107 0.960 . S
C2120 C2119 1.524 . S
C2121 C2118 1.403 . S
C2121 C2122 1.392 . S
C2121 C2125 1.495 . S
C2122 C2121 1.392 . S
C2122 C2123 1.385 . S
C2122 C2124 1.478 . S
C2123 H2117 0.930 . S
C2123 C2119 1.400 . S
C2123 C2122 1.385 . S
C2124 C2122 1.478 . S
C2124 C2126 1.381 . S
C2124 C2130 1.383 . S
C2125 C2121 1.495 . S
C2125 H2131 0.959 . S
C2125 H2132 0.961 . S
C2125 H2133 0.960 . S
C2126 C2124 1.381 . S
C2126 C2127 1.394 . S
C2126 H2134 0.930 . S
C2127 C2126 1.394 . S
C2127 C2128 1.383 . S
C2127 H2135 0.929 . S
C2128 C2127 1.383 . S
C2128 C2129 1.377 . S
C2129 H2113 0.930 . S
C2129 C2128 1.377 . S
C2129 C2130 1.379 . S
C2130 H2114 0.931 . S
C2130 C2124 1.383 . S
C2130 C2129 1.379 . S
H2131 C2125 0.959 . S
H2132 C2125 0.961 . S
H2133 C2125 0.960 . S
H2134 C2126 0.930 . S
H2135 C2127 0.929 . S
H2136 C2144 0.929 . S
H2137 C2146 0.930 . S
H2138 C2148 0.930 . S
H2139 C2151 0.929 . S
H2140 C2154 0.930 . S
H2141 C2156 0.960 . S
H2142 C2156 0.960 . S
H2143 C2156 0.960 . S
C2144 H2136 0.929 . S
C2144 C2145 1.377 . S
C2144 C2146 1.384 . S
C2145 C2144 1.377 . S
C2145 C2151 1.390 . S
C2146 H2137 0.930 . S
C2146 C2144 1.384 . S
C2146 C2147 1.372 . S
C2147 C2146 1.372 . S
C2147 C2148 1.400 . S
C2147 C2152 1.490 . S
C2148 H2138 0.930 . S
C2148 C2147 1.400 . S
C2148 C2151 1.386 . S
H2149 C2165 0.930 . S
H2150 C2166 0.931 . S
C2151 H2139 0.929 . S
C2151 C2145 1.390 . S
C2151 C2148 1.386 . S
C2152 C2147 1.490 . S
C2152 C2154 1.395 . S
C2152 C2155 1.403 . S
H2153 C2159 0.930 . S
C2154 H2140 0.930 . S
C2154 C2152 1.395 . S
C2154 C2157 1.403 . S
C2155 C2152 1.403 . S
C2155 C2156 1.524 . S
C2155 C2159 1.400 . S
C2156 H2141 0.960 . S
C2156 H2142 0.960 . S
C2156 H2143 0.960 . S
C2156 C2155 1.524 . S
C2157 C2154 1.403 . S
C2157 C2158 1.392 . S
C2157 C2161 1.495 . S
C2158 C2157 1.392 . S
C2158 C2159 1.385 . S
C2158 C2160 1.478 . S
C2159 H2153 0.930 . S
C2159 C2155 1.400 . S
C2159 C2158 1.385 . S
C2160 C2158 1.478 . S
C2160 C2162 1.381 . S
C2160 C2166 1.383 . S
C2161 C2157 1.495 . S
C2161 H2167 0.959 . S
C2161 H2168 0.961 . S
C2161 H2169 0.960 . S
C2162 C2160 1.381 . S
C2162 C2163 1.394 . S
C2162 H2170 0.930 . S
C2163 C2162 1.394 . S
C2163 C2164 1.383 . S
C2163 H2171 0.929 . S
C2164 C2163 1.383 . S
C2164 C2165 1.377 . S
C2165 H2149 0.930 . S
C2165 C2164 1.377 . S
C2165 C2166 1.379 . S
C2166 H2150 0.931 . S
C2166 C2160 1.383 . S
C2166 C2165 1.379 . S
H2167 C2161 0.959 . S
H2168 C2161 0.961 . S
H2169 C2161 0.960 . S
H2170 C2162 0.930 . S
H2171 C2163 0.929 . S
H2172 C2180 0.929 . S
H2173 C2182 0.930 . S
H2174 C2184 0.930 . S
H2175 C2187 0.929 . S
H2176 C2190 0.930 . S
H2177 C2192 0.960 . S
H2178 C2192 0.960 . S
H2179 C2192 0.960 . S
C2180 H2172 0.929 . S
C2180 C2181 1.377 . S
C2180 C2182 1.384 . S
C2181 C2180 1.377 . S
C2181 C2187 1.390 . S
C2182 H2173 0.930 . S
C2182 C2180 1.384 . S
C2182 C2183 1.372 . S
C2183 C2182 1.372 . S
C2183 C2184 1.400 . S
C2183 C2188 1.490 . S
C2184 H2174 0.930 . S
C2184 C2183 1.400 . S
C2184 C2187 1.386 . S
H2185 C2201 0.930 . S
H2186 C2202 0.931 . S
C2187 H2175 0.929 . S
C2187 C2181 1.390 . S
C2187 C2184 1.386 . S
C2188 C2183 1.490 . S
C2188 C2190 1.395 . S
C2188 C2191 1.403 . S
H2189 C2195 0.930 . S
C2190 H2176 0.930 . S
C2190 C2188 1.395 . S
C2190 C2193 1.403 . S
C2191 C2188 1.403 . S
C2191 C2192 1.524 . S
C2191 C2195 1.400 . S
C2192 H2177 0.960 . S
C2192 H2178 0.960 . S
C2192 H2179 0.960 . S
C2192 C2191 1.524 . S
C2193 C2190 1.403 . S
C2193 C2194 1.392 . S
C2193 C2197 1.495 . S
C2194 C2193 1.392 . S
C2194 C2195 1.385 . S
C2194 C2196 1.478 . S
C2195 H2189 0.930 . S
C2195 C2191 1.400 . S
C2195 C2194 1.385 . S
C2196 C2194 1.478 . S
C2196 C2198 1.381 . S
C2196 C2202 1.383 . S
C2197 C2193 1.495 . S
C2197 H2203 0.959 . S
C2197 H2204 0.961 . S
C2197 H2205 0.960 . S
C2198 C2196 1.381 . S
C2198 C2199 1.394 . S
C2198 H2206 0.930 . S
C2199 C2198 1.394 . S
C2199 C2200 1.383 . S
C2199 H2207 0.929 . S
C2200 C2199 1.383 . S
C2200 C2201 1.377 . S
C2201 H2185 0.930 . S
C2201 C2200 1.377 . S
C2201 C2202 1.379 . S
C2202 H2186 0.931 . S
C2202 C2196 1.383 . S
C2202 C2201 1.379 . S
H2203 C2197 0.959 . S
H2204 C2197 0.961 . S
H2205 C2197 0.960 . S
H2206 C2198 0.930 . S
H2207 C2199 0.929 . S
H2208 C2216 0.929 . S
H2209 C2218 0.930 . S
H2210 C2220 0.930 . S
H2211 C2223 0.929 . S
H2212 C2226 0.930 . S
H2213 C2228 0.960 . S
H2214 C2228 0.960 . S
H2215 C2228 0.960 . S
C2216 H2208 0.929 . S
C2216 C2217 1.377 . S
C2216 C2218 1.384 . S
C2217 C2216 1.377 . S
C2217 C2223 1.390 . S
C2218 H2209 0.930 . S
C2218 C2216 1.384 . S
C2218 C2219 1.372 . S
C2219 C2218 1.372 . S
C2219 C2220 1.400 . S
C2219 C2224 1.490 . S
C2220 H2210 0.930 . S
C2220 C2219 1.400 . S
C2220 C2223 1.386 . S
H2221 C2237 0.930 . S
H2222 C2238 0.931 . S
C2223 H2211 0.929 . S
C2223 C2217 1.390 . S
C2223 C2220 1.386 . S
C2224 C2219 1.490 . S
C2224 C2226 1.395 . S
C2224 C2227 1.403 . S
H2225 C2231 0.930 . S
C2226 H2212 0.930 . S
C2226 C2224 1.395 . S
C2226 C2229 1.403 . S
C2227 C2224 1.403 . S
C2227 C2228 1.524 . S
C2227 C2231 1.400 . S
C2228 H2213 0.960 . S
C2228 H2214 0.960 . S
C2228 H2215 0.960 . S
C2228 C2227 1.524 . S
C2229 C2226 1.403 . S
C2229 C2230 1.392 . S
C2229 C2233 1.495 . S
C2230 C2229 1.392 . S
C2230 C2231 1.385 . S
C2230 C2232 1.478 . S
C2231 H2225 0.930 . S
C2231 C2227 1.400 . S
C2231 C2230 1.385 . S
C2232 C2230 1.478 . S
C2232 C2234 1.381 . S
C2232 C2238 1.383 . S
C2233 C2229 1.495 . S
C2233 H2239 0.959 . S
C2233 H2240 0.961 . S
C2233 H2241 0.960 . S
C2234 C2232 1.381 . S
C2234 C2235 1.394 . S
C2234 H2242 0.930 . S
C2235 C2234 1.394 . S
C2235 C2236 1.383 . S
C2235 H2243 0.929 . S
C2236 C2235 1.383 . S
C2236 C2237 1.377 . S
C2237 H2221 0.930 . S
C2237 C2236 1.377 . S
C2237 C2238 1.379 . S
C2238 H2222 0.931 . S
C2238 C2232 1.383 . S
C2238 C2237 1.379 . S
H2239 C2233 0.959 . S
H2240 C2233 0.961 . S
H2241 C2233 0.960 . S
H2242 C2234 0.930 . S
H2243 C2235 0.929 . S
H2244 C2252 0.929 . S
H2245 C2254 0.930 . S
H2246 C2256 0.930 . S
H2247 C2259 0.929 . S
H2248 C2262 0.930 . S
H2249 C2264 0.960 . S
H2250 C2264 0.960 . S
H2251 C2264 0.960 . S
C2252 H2244 0.929 . S
C2252 C2253 1.377 . S
C2252 C2254 1.384 . S
C2253 C2252 1.377 . S
C2253 C2259 1.390 . S
C2254 H2245 0.930 . S
C2254 C2252 1.384 . S
C2254 C2255 1.372 . S
C2255 C2254 1.372 . S
C2255 C2256 1.400 . S
C2255 C2260 1.490 . S
C2256 H2246 0.930 . S
C2256 C2255 1.400 . S
C2256 C2259 1.386 . S
H2257 C2273 0.930 . S
H2258 C2274 0.931 . S
C2259 H2247 0.929 . S
C2259 C2253 1.390 . S
C2259 C2256 1.386 . S
C2260 C2255 1.490 . S
C2260 C2262 1.395 . S
C2260 C2263 1.403 . S
H2261 C2267 0.930 . S
C2262 H2248 0.930 . S
C2262 C2260 1.395 . S
C2262 C2265 1.403 . S
C2263 C2260 1.403 . S
C2263 C2264 1.524 . S
C2263 C2267 1.400 . S
C2264 H2249 0.960 . S
C2264 H2250 0.960 . S
C2264 H2251 0.960 . S
C2264 C2263 1.524 . S
C2265 C2262 1.403 . S
C2265 C2266 1.392 . S
C2265 C2269 1.495 . S
C2266 C2265 1.392 . S
C2266 C2267 1.385 . S
C2266 C2268 1.478 . S
C2267 H2261 0.930 . S
C2267 C2263 1.400 . S
C2267 C2266 1.385 . S
C2268 C2266 1.478 . S
C2268 C2270 1.381 . S
C2268 C2274 1.383 . S
C2269 C2265 1.495 . S
C2269 H2275 0.959 . S
C2269 H2276 0.961 . S
C2269 H2277 0.960 . S
C2270 C2268 1.381 . S
C2270 C2271 1.394 . S
C2270 H2278 0.930 . S
C2271 C2270 1.394 . S
C2271 C2272 1.383 . S
C2271 H2279 0.929 . S
C2272 C2271 1.383 . S
C2272 C2273 1.377 . S
C2273 H2257 0.930 . S
C2273 C2272 1.377 . S
C2273 C2274 1.379 . S
C2274 H2258 0.931 . S
C2274 C2268 1.383 . S
C2274 C2273 1.379 . S
H2275 C2269 0.959 . S
H2276 C2269 0.961 . S
H2277 C2269 0.960 . S
H2278 C2270 0.930 . S
H2279 C2271 0.929 . S
H2280 C2288 0.929 . S
H2281 C2290 0.930 . S
H2282 C2292 0.930 . S
H2283 C2295 0.929 . S
H2284 C2298 0.930 . S
H2285 C2300 0.960 . S
H2286 C2300 0.960 . S
H2287 C2300 0.960 . S
C2288 H2280 0.929 . S
C2288 C2289 1.377 . S
C2288 C2290 1.384 . S
C2289 C2288 1.377 . S
C2289 C2295 1.390 . S
C2290 H2281 0.930 . S
C2290 C2288 1.384 . S
C2290 C2291 1.372 . S
C2291 C2290 1.372 . S
C2291 C2292 1.400 . S
C2291 C2296 1.490 . S
C2292 H2282 0.930 . S
C2292 C2291 1.400 . S
C2292 C2295 1.386 . S
H2293 C2309 0.930 . S
H2294 C2310 0.931 . S
C2295 H2283 0.929 . S
C2295 C2289 1.390 . S
C2295 C2292 1.386 . S
C2296 C2291 1.490 . S
C2296 C2298 1.395 . S
C2296 C2299 1.403 . S
H2297 C2303 0.930 . S
C2298 H2284 0.930 . S
C2298 C2296 1.395 . S
C2298 C2301 1.403 . S
C2299 C2296 1.403 . S
C2299 C2300 1.524 . S
C2299 C2303 1.400 . S
C2300 H2285 0.960 . S
C2300 H2286 0.960 . S
C2300 H2287 0.960 . S
C2300 C2299 1.524 . S
C2301 C2298 1.403 . S
C2301 C2302 1.392 . S
C2301 C2305 1.495 . S
C2302 C2301 1.392 . S
C2302 C2303 1.385 . S
C2302 C2304 1.478 . S
C2303 H2297 0.930 . S
C2303 C2299 1.400 . S
C2303 C2302 1.385 . S
C2304 C2302 1.478 . S
C2304 C2306 1.381 . S
C2304 C2310 1.383 . S
C2305 C2301 1.495 . S
C2305 H2311 0.959 . S
C2305 H2312 0.961 . S
C2305 H2313 0.960 . S
C2306 C2304 1.381 . S
C2306 C2307 1.394 . S
C2306 H2314 0.930 . S
C2307 C2306 1.394 . S
C2307 C2308 1.383 . S
C2307 H2315 0.929 . S
C2308 C2307 1.383 . S
C2308 C2309 1.377 . S
C2309 H2293 0.930 . S
C2309 C2308 1.377 . S
C2309 C2310 1.379 . S
C2310 H2294 0.931 . S
C2310 C2304 1.383 . S
C2310 C2309 1.379 . S
H2311 C2305 0.959 . S
H2312 C2305 0.961 . S
H2313 C2305 0.960 . S
H2314 C2306 0.930 . S
H2315 C2307 0.929 . S
H2316 C2324 0.929 . S
H2317 C2326 0.930 . S
H2318 C2328 0.930 . S
H2319 C2331 0.929 . S
H2320 C2334 0.930 . S
H2321 C2336 0.960 . S
H2322 C2336 0.960 . S
H2323 C2336 0.960 . S
C2324 H2316 0.929 . S
C2324 C2325 1.377 . S
C2324 C2326 1.384 . S
C2325 C2324 1.377 . S
C2325 C2331 1.390 . S
C2326 H2317 0.930 . S
C2326 C2324 1.384 . S
C2326 C2327 1.372 . S
C2327 C2326 1.372 . S
C2327 C2328 1.400 . S
C2327 C2332 1.490 . S
C2328 H2318 0.930 . S
C2328 C2327 1.400 . S
C2328 C2331 1.386 . S
H2329 C2345 0.930 . S
H2330 C2346 0.931 . S
C2331 H2319 0.929 . S
C2331 C2325 1.390 . S
C2331 C2328 1.386 . S
C2332 C2327 1.490 . S
C2332 C2334 1.395 . S
C2332 C2335 1.403 . S
H2333 C2339 0.930 . S
C2334 H2320 0.930 . S
C2334 C2332 1.395 . S
C2334 C2337 1.403 . S
C2335 C2332 1.403 . S
C2335 C2336 1.524 . S
C2335 C2339 1.400 . S
C2336 H2321 0.960 . S
C2336 H2322 0.960 . S
C2336 H2323 0.960 . S
C2336 C2335 1.524 . S
C2337 C2334 1.403 . S
C2337 C2338 1.392 . S
C2337 C2341 1.495 . S
C2338 C2337 1.392 . S
C2338 C2339 1.385 . S
C2338 C2340 1.478 . S
C2339 H2333 0.930 . S
C2339 C2335 1.400 . S
C2339 C2338 1.385 . S
C2340 C2338 1.478 . S
C2340 C2342 1.381 . S
C2340 C2346 1.383 . S
C2341 C2337 1.495 . S
C2341 H2347 0.959 . S
C2341 H2348 0.961 . S
C2341 H2349 0.960 . S
C2342 C2340 1.381 . S
C2342 C2343 1.394 . S
C2342 H2350 0.930 . S
C2343 C2342 1.394 . S
C2343 C2344 1.383 . S
C2343 H2351 0.929 . S
C2344 C2343 1.383 . S
C2344 C2345 1.377 . S
C2345 H2329 0.930 . S
C2345 C2344 1.377 . S
C2345 C2346 1.379 . S
C2346 H2330 0.931 . S
C2346 C2340 1.383 . S
C2346 C2345 1.379 . S
H2347 C2341 0.959 . S
H2348 C2341 0.961 . S
H2349 C2341 0.960 . S
H2350 C2342 0.930 . S
H2351 C2343 0.929 . S
H2352 C2360 0.929 . S
H2353 C2362 0.930 . S
H2354 C2364 0.930 . S
H2355 C2367 0.929 . S
H2356 C2370 0.930 . S
H2357 C2372 0.960 . S
H2358 C2372 0.960 . S
H2359 C2372 0.960 . S
C2360 H2352 0.929 . S
C2360 C2361 1.377 . S
C2360 C2362 1.384 . S
C2361 C2360 1.377 . S
C2361 C2367 1.390 . S
C2362 H2353 0.930 . S
C2362 C2360 1.384 . S
C2362 C2363 1.372 . S
C2363 C2362 1.372 . S
C2363 C2364 1.400 . S
C2363 C2368 1.490 . S
C2364 H2354 0.930 . S
C2364 C2363 1.400 . S
C2364 C2367 1.386 . S
H2365 C2381 0.930 . S
H2366 C2382 0.931 . S
C2367 H2355 0.929 . S
C2367 C2361 1.390 . S
C2367 C2364 1.386 . S
C2368 C2363 1.490 . S
C2368 C2370 1.395 . S
C2368 C2371 1.403 . S
H2369 C2375 0.930 . S
C2370 H2356 0.930 . S
C2370 C2368 1.395 . S
C2370 C2373 1.403 . S
C2371 C2368 1.403 . S
C2371 C2372 1.524 . S
C2371 C2375 1.400 . S
C2372 H2357 0.960 . S
C2372 H2358 0.960 . S
C2372 H2359 0.960 . S
C2372 C2371 1.524 . S
C2373 C2370 1.403 . S
C2373 C2374 1.392 . S
C2373 C2377 1.495 . S
C2374 C2373 1.392 . S
C2374 C2375 1.385 . S
C2374 C2376 1.478 . S
C2375 H2369 0.930 . S
C2375 C2371 1.400 . S
C2375 C2374 1.385 . S
C2376 C2374 1.478 . S
C2376 C2378 1.381 . S
C2376 C2382 1.383 . S
C2377 C2373 1.495 . S
C2377 H2383 0.959 . S
C2377 H2384 0.961 . S
C2377 H2385 0.960 . S
C2378 C2376 1.381 . S
C2378 C2379 1.394 . S
C2378 H2386 0.930 . S
C2379 C2378 1.394 . S
C2379 C2380 1.383 . S
C2379 H2387 0.929 . S
C2380 C2379 1.383 . S
C2380 C2381 1.377 . S
C2381 H2365 0.930 . S
C2381 C2380 1.377 . S
C2381 C2382 1.379 . S
C2382 H2366 0.931 . S
C2382 C2376 1.383 . S
C2382 C2381 1.379 . S
H2383 C2377 0.959 . S
H2384 C2377 0.961 . S
H2385 C2377 0.960 . S
H2386 C2378 0.930 . S
H2387 C2379 0.929 . S
H2388 C2396 0.929 . S
H2389 C2398 0.930 . S
H2390 C2400 0.930 . S
H2391 C2403 0.929 . S
H2392 C2406 0.930 . S
H2393 C2408 0.960 . S
H2394 C2408 0.960 . S
H2395 C2408 0.960 . S
C2396 H2388 0.929 . S
C2396 C2397 1.377 . S
C2396 C2398 1.384 . S
C2397 C2396 1.377 . S
C2397 C2403 1.390 . S
C2398 H2389 0.930 . S
C2398 C2396 1.384 . S
C2398 C2399 1.372 . S
C2399 C2398 1.372 . S
C2399 C2400 1.400 . S
C2399 C2404 1.490 . S
C2400 H2390 0.930 . S
C2400 C2399 1.400 . S
C2400 C2403 1.386 . S
H2401 C2417 0.930 . S
H2402 C2418 0.931 . S
C2403 H2391 0.929 . S
C2403 C2397 1.390 . S
C2403 C2400 1.386 . S
C2404 C2399 1.490 . S
C2404 C2406 1.395 . S
C2404 C2407 1.403 . S
H2405 C2411 0.930 . S
C2406 H2392 0.930 . S
C2406 C2404 1.395 . S
C2406 C2409 1.403 . S
C2407 C2404 1.403 . S
C2407 C2408 1.524 . S
C2407 C2411 1.400 . S
C2408 H2393 0.960 . S
C2408 H2394 0.960 . S
C2408 H2395 0.960 . S
C2408 C2407 1.524 . S
C2409 C2406 1.403 . S
C2409 C2410 1.392 . S
C2409 C2413 1.495 . S
C2410 C2409 1.392 . S
C2410 C2411 1.385 . S
C2410 C2412 1.478 . S
C2411 H2405 0.930 . S
C2411 C2407 1.400 . S
C2411 C2410 1.385 . S
C2412 C2410 1.478 . S
C2412 C2414 1.381 . S
C2412 C2418 1.383 . S
C2413 C2409 1.495 . S
C2413 H2419 0.959 . S
C2413 H2420 0.961 . S
C2413 H2421 0.960 . S
C2414 C2412 1.381 . S
C2414 C2415 1.394 . S
C2414 H2422 0.930 . S
C2415 C2414 1.394 . S
C2415 C2416 1.383 . S
C2415 H2423 0.929 . S
C2416 C2415 1.383 . S
C2416 C2417 1.377 . S
C2417 H2401 0.930 . S
C2417 C2416 1.377 . S
C2417 C2418 1.379 . S
C2418 H2402 0.931 . S
C2418 C2412 1.383 . S
C2418 C2417 1.379 . S
H2419 C2413 0.959 . S
H2420 C2413 0.961 . S
H2421 C2413 0.960 . S
H2422 C2414 0.930 . S
H2423 C2415 0.929 . S
H2424 C2432 0.929 . S
H2425 C2434 0.930 . S
H2426 C2436 0.930 . S
H2427 C2439 0.929 . S
H2428 C2442 0.930 . S
H2429 C2444 0.960 . S
H2430 C2444 0.960 . S
H2431 C2444 0.960 . S
C2432 H2424 0.929 . S
C2432 C2433 1.377 . S
C2432 C2434 1.384 . S
C2433 C2432 1.377 . S
C2433 C2439 1.390 . S
C2434 H2425 0.930 . S
C2434 C2432 1.384 . S
C2434 C2435 1.372 . S
C2435 C2434 1.372 . S
C2435 C2436 1.400 . S
C2435 C2440 1.490 . S
C2436 H2426 0.930 . S
C2436 C2435 1.400 . S
C2436 C2439 1.386 . S
H2437 C2453 0.930 . S
H2438 C2454 0.931 . S
C2439 H2427 0.929 . S
C2439 C2433 1.390 . S
C2439 C2436 1.386 . S
C2440 C2435 1.490 . S
C2440 C2442 1.395 . S
C2440 C2443 1.403 . S
H2441 C2447 0.930 . S
C2442 H2428 0.930 . S
C2442 C2440 1.395 . S
C2442 C2445 1.403 . S
C2443 C2440 1.403 . S
C2443 C2444 1.524 . S
C2443 C2447 1.400 . S
C2444 H2429 0.960 . S
C2444 H2430 0.960 . S
C2444 H2431 0.960 . S
C2444 C2443 1.524 . S
C2445 C2442 1.403 . S
C2445 C2446 1.392 . S
C2445 C2449 1.495 . S
C2446 C2445 1.392 . S
C2446 C2447 1.385 . S
C2446 C2448 1.478 . S
C2447 H2441 0.930 . S
C2447 C2443 1.400 . S
C2447 C2446 1.385 . S
C2448 C2446 1.478 . S
C2448 C2450 1.381 . S
C2448 C2454 1.383 . S
C2449 C2445 1.495 . S
C2449 H2455 0.959 . S
C2449 H2456 0.961 . S
C2449 H2457 0.960 . S
C2450 C2448 1.381 . S
C2450 C2451 1.394 . S
C2450 H2458 0.930 . S
C2451 C2450 1.394 . S
C2451 C2452 1.383 . S
C2451 H2459 0.929 . S
C2452 C2451 1.383 . S
C2452 C2453 1.377 . S
C2453 H2437 0.930 . S
C2453 C2452 1.377 . S
C2453 C2454 1.379 . S
C2454 H2438 0.931 . S
C2454 C2448 1.383 . S
C2454 C2453 1.379 . S
H2455 C2449 0.959 . S
H2456 C2449 0.961 . S
H2457 C2449 0.960 . S
H2458 C2450 0.930 . S
H2459 C2451 0.929 . S
H2460 C2468 0.929 . S
H2461 C2470 0.930 . S
H2462 C2472 0.930 . S
H2463 C2475 0.929 . S
H2464 C2478 0.930 . S
H2465 C2480 0.960 . S
H2466 C2480 0.960 . S
H2467 C2480 0.960 . S
C2468 H2460 0.929 . S
C2468 C2469 1.377 . S
C2468 C2470 1.384 . S
C2469 C2468 1.377 . S
C2469 C2475 1.390 . S
C2470 H2461 0.930 . S
C2470 C2468 1.384 . S
C2470 C2471 1.372 . S
C2471 C2470 1.372 . S
C2471 C2472 1.400 . S
C2471 C2476 1.490 . S
C2472 H2462 0.930 . S
C2472 C2471 1.400 . S
C2472 C2475 1.386 . S
H2473 C2489 0.930 . S
H2474 C2490 0.931 . S
C2475 H2463 0.929 . S
C2475 C2469 1.390 . S
C2475 C2472 1.386 . S
C2476 C2471 1.490 . S
C2476 C2478 1.395 . S
C2476 C2479 1.403 . S
H2477 C2483 0.930 . S
C2478 H2464 0.930 . S
C2478 C2476 1.395 . S
C2478 C2481 1.403 . S
C2479 C2476 1.403 . S
C2479 C2480 1.524 . S
C2479 C2483 1.400 . S
C2480 H2465 0.960 . S
C2480 H2466 0.960 . S
C2480 H2467 0.960 . S
C2480 C2479 1.524 . S
C2481 C2478 1.403 . S
C2481 C2482 1.392 . S
C2481 C2485 1.495 . S
C2482 C2481 1.392 . S
C2482 C2483 1.385 . S
C2482 C2484 1.478 . S
C2483 H2477 0.930 . S
C2483 C2479 1.400 . S
C2483 C2482 1.385 . S
C2484 C2482 1.478 . S
C2484 C2486 1.381 . S
C2484 C2490 1.383 . S
C2485 C2481 1.495 . S
C2485 H2491 0.959 . S
C2485 H2492 0.961 . S
C2485 H2493 0.960 . S
C2486 C2484 1.381 . S
C2486 C2487 1.394 . S
C2486 H2494 0.930 . S
C2487 C2486 1.394 . S
C2487 C2488 1.383 . S
C2487 H2495 0.929 . S
C2488 C2487 1.383 . S
C2488 C2489 1.377 . S
C2489 H2473 0.930 . S
C2489 C2488 1.377 . S
C2489 C2490 1.379 . S
C2490 H2474 0.931 . S
C2490 C2484 1.383 . S
C2490 C2489 1.379 . S
H2491 C2485 0.959 . S
H2492 C2485 0.961 . S
H2493 C2485 0.960 . S
H2494 C2486 0.930 . S
H2495 C2487 0.929 . S
H2496 C2504 0.929 . S
H2497 C2506 0.930 . S
H2498 C2508 0.930 . S
H2499 C2511 0.929 . S
H2500 C2514 0.930 . S
H2501 C2516 0.960 . S
H2502 C2516 0.960 . S
H2503 C2516 0.960 . S
C2504 H2496 0.929 . S
C2504 C2505 1.377 . S
C2504 C2506 1.384 . S
C2505 C2504 1.377 . S
C2505 C2511 1.390 . S
C2506 H2497 0.930 . S
C2506 C2504 1.384 . S
C2506 C2507 1.372 . S
C2507 C2506 1.372 . S
C2507 C2508 1.400 . S
C2507 C2512 1.490 . S
C2508 H2498 0.930 . S
C2508 C2507 1.400 . S
C2508 C2511 1.386 . S
H2509 C2525 0.930 . S
H2510 C2526 0.931 . S
C2511 H2499 0.929 . S
C2511 C2505 1.390 . S
C2511 C2508 1.386 . S
C2512 C2507 1.490 . S
C2512 C2514 1.395 . S
C2512 C2515 1.403 . S
H2513 C2519 0.930 . S
C2514 H2500 0.930 . S
C2514 C2512 1.395 . S
C2514 C2517 1.403 . S
C2515 C2512 1.403 . S
C2515 C2516 1.524 . S
C2515 C2519 1.400 . S
C2516 H2501 0.960 . S
C2516 H2502 0.960 . S
C2516 H2503 0.960 . S
C2516 C2515 1.524 . S
C2517 C2514 1.403 . S
C2517 C2518 1.392 . S
C2517 C2521 1.495 . S
C2518 C2517 1.392 . S
C2518 C2519 1.385 . S
C2518 C2520 1.478 . S
C2519 H2513 0.930 . S
C2519 C2515 1.400 . S
C2519 C2518 1.385 . S
C2520 C2518 1.478 . S
C2520 C2522 1.381 . S
C2520 C2526 1.383 . S
C2521 C2517 1.495 . S
C2521 H2527 0.959 . S
C2521 H2528 0.961 . S
C2521 H2529 0.960 . S
C2522 C2520 1.381 . S
C2522 C2523 1.394 . S
C2522 H2530 0.930 . S
C2523 C2522 1.394 . S
C2523 C2524 1.383 . S
C2523 H2531 0.929 . S
C2524 C2523 1.383 . S
C2524 C2525 1.377 . S
C2525 H2509 0.930 . S
C2525 C2524 1.377 . S
C2525 C2526 1.379 . S
C2526 H2510 0.931 . S
C2526 C2520 1.383 . S
C2526 C2525 1.379 . S
H2527 C2521 0.959 . S
H2528 C2521 0.961 . S
H2529 C2521 0.960 . S
H2530 C2522 0.930 . S
H2531 C2523 0.929 . S
H2532 C2540 0.929 . S
H2533 C2542 0.930 . S
H2534 C2544 0.930 . S
H2535 C2547 0.929 . S
H2536 C2550 0.930 . S
H2537 C2552 0.960 . S
H2538 C2552 0.960 . S
H2539 C2552 0.960 . S
C2540 H2532 0.929 . S
C2540 C2541 1.377 . S
C2540 C2542 1.384 . S
C2541 C2540 1.377 . S
C2541 C2547 1.390 . S
C2542 H2533 0.930 . S
C2542 C2540 1.384 . S
C2542 C2543 1.372 . S
C2543 C2542 1.372 . S
C2543 C2544 1.400 . S
C2543 C2548 1.490 . S
C2544 H2534 0.930 . S
C2544 C2543 1.400 . S
C2544 C2547 1.386 . S
H2545 C2561 0.930 . S
H2546 C2562 0.931 . S
C2547 H2535 0.929 . S
C2547 C2541 1.390 . S
C2547 C2544 1.386 . S
C2548 C2543 1.490 . S
C2548 C2550 1.395 . S
C2548 C2551 1.403 . S
H2549 C2555 0.930 . S
C2550 H2536 0.930 . S
C2550 C2548 1.395 . S
C2550 C2553 1.403 . S
C2551 C2548 1.403 . S
C2551 C2552 1.524 . S
C2551 C2555 1.400 . S
C2552 H2537 0.960 . S
C2552 H2538 0.960 . S
C2552 H2539 0.960 . S
C2552 C2551 1.524 . S
C2553 C2550 1.403 . S
C2553 C2554 1.392 . S
C2553 C2557 1.495 . S
C2554 C2553 1.392 . S
C2554 C2555 1.385 . S
C2554 C2556 1.478 . S
C2555 H2549 0.930 . S
C2555 C2551 1.400 . S
C2555 C2554 1.385 . S
C2556 C2554 1.478 . S
C2556 C2558 1.381 . S
C2556 C2562 1.383 . S
C2557 C2553 1.495 . S
C2557 H2563 0.959 . S
C2557 H2564 0.961 . S
C2557 H2565 0.960 . S
C2558 C2556 1.381 . S
C2558 C2559 1.394 . S
C2558 H2566 0.930 . S
C2559 C2558 1.394 . S
C2559 C2560 1.383 . S
C2559 H2567 0.929 . S
C2560 C2559 1.383 . S
C2560 C2561 1.377 . S
C2561 H2545 0.930 . S
C2561 C2560 1.377 . S
C2561 C2562 1.379 . S
C2562 H2546 0.931 . S
C2562 C2556 1.383 . S
C2562 C2561 1.379 . S
H2563 C2557 0.959 . S
H2564 C2557 0.961 . S
H2565 C2557 0.960 . S
H2566 C2558 0.930 . S
H2567 C2559 0.929 . S
H2568 C2576 0.929 . S
H2569 C2578 0.930 . S
H2570 C2580 0.930 . S
H2571 C2583 0.929 . S
H2572 C2586 0.930 . S
H2573 C2588 0.960 . S
H2574 C2588 0.960 . S
H2575 C2588 0.960 . S
C2576 H2568 0.929 . S
C2576 C2577 1.377 . S
C2576 C2578 1.384 . S
C2577 C2576 1.377 . S
C2577 C2583 1.390 . S
C2578 H2569 0.930 . S
C2578 C2576 1.384 . S
C2578 C2579 1.372 . S
C2579 C2578 1.372 . S
C2579 C2580 1.400 . S
C2579 C2584 1.490 . S
C2580 H2570 0.930 . S
C2580 C2579 1.400 . S
C2580 C2583 1.386 . S
H2581 C2597 0.930 . S
H2582 C2598 0.931 . S
C2583 H2571 0.929 . S
C2583 C2577 1.390 . S
C2583 C2580 1.386 . S
C2584 C2579 1.490 . S
C2584 C2586 1.395 . S
C2584 C2587 1.403 . S
H2585 C2591 0.930 . S
C2586 H2572 0.930 . S
C2586 C2584 1.395 . S
C2586 C2589 1.403 . S
C2587 C2584 1.403 . S
C2587 C2588 1.524 . S
C2587 C2591 1.400 . S
C2588 H2573 0.960 . S
C2588 H2574 0.960 . S
C2588 H2575 0.960 . S
C2588 C2587 1.524 . S
C2589 C2586 1.403 . S
C2589 C2590 1.392 . S
C2589 C2593 1.495 . S
C2590 C2589 1.392 . S
C2590 C2591 1.385 . S
C2590 C2592 1.478 . S
C2591 H2585 0.930 . S
C2591 C2587 1.400 . S
C2591 C2590 1.385 . S
C2592 C2590 1.478 . S
C2592 C2594 1.381 . S
C2592 C2598 1.383 . S
C2593 C2589 1.495 . S
C2593 H2599 0.959 . S
C2593 H2600 0.961 . S
C2593 H2601 0.960 . S
C2594 C2592 1.381 . S
C2594 C2595 1.394 . S
C2594 H2602 0.930 . S
C2595 C2594 1.394 . S
C2595 C2596 1.383 . S
C2595 H2603 0.929 . S
C2596 C2595 1.383 . S
C2596 C2597 1.377 . S
C2597 H2581 0.930 . S
C2597 C2596 1.377 . S
C2597 C2598 1.379 . S
C2598 H2582 0.931 . S
C2598 C2592 1.383 . S
C2598 C2597 1.379 . S
H2599 C2593 0.959 . S
H2600 C2593 0.961 . S
H2601 C2593 0.960 . S
H2602 C2594 0.930 . S
H2603 C2595 0.929 . S
H2604 C2612 0.929 . S
H2605 C2614 0.930 . S
H2606 C2616 0.930 . S
H2607 C2619 0.929 . S
H2608 C2622 0.930 . S
H2609 C2624 0.960 . S
H2610 C2624 0.960 . S
H2611 C2624 0.960 . S
C2612 H2604 0.929 . S
C2612 C2613 1.377 . S
C2612 C2614 1.384 . S
C2613 C2612 1.377 . S
C2613 C2619 1.390 . S
C2614 H2605 0.930 . S
C2614 C2612 1.384 . S
C2614 C2615 1.372 . S
C2615 C2614 1.372 . S
C2615 C2616 1.400 . S
C2615 C2620 1.490 . S
C2616 H2606 0.930 . S
C2616 C2615 1.400 . S
C2616 C2619 1.386 . S
H2617 C2633 0.930 . S
H2618 C2634 0.931 . S
C2619 H2607 0.929 . S
C2619 C2613 1.390 . S
C2619 C2616 1.386 . S
C2620 C2615 1.490 . S
C2620 C2622 1.395 . S
C2620 C2623 1.403 . S
H2621 C2627 0.930 . S
C2622 H2608 0.930 . S
C2622 C2620 1.395 . S
C2622 C2625 1.403 . S
C2623 C2620 1.403 . S
C2623 C2624 1.524 . S
C2623 C2627 1.400 . S
C2624 H2609 0.960 . S
C2624 H2610 0.960 . S
C2624 H2611 0.960 . S
C2624 C2623 1.524 . S
C2625 C2622 1.403 . S
C2625 C2626 1.392 . S
C2625 C2629 1.495 . S
C2626 C2625 1.392 . S
C2626 C2627 1.385 . S
C2626 C2628 1.478 . S
C2627 H2621 0.930 . S
C2627 C2623 1.400 . S
C2627 C2626 1.385 . S
C2628 C2626 1.478 . S
C2628 C2630 1.381 . S
C2628 C2634 1.383 . S
C2629 C2625 1.495 . S
C2629 H2635 0.959 . S
C2629 H2636 0.961 . S
C2629 H2637 0.960 . S
C2630 C2628 1.381 . S
C2630 C2631 1.394 . S
C2630 H2638 0.930 . S
C2631 C2630 1.394 . S
C2631 C2632 1.383 . S
C2631 H2639 0.929 . S
C2632 C2631 1.383 . S
C2632 C2633 1.377 . S
C2633 H2617 0.930 . S
C2633 C2632 1.377 . S
C2633 C2634 1.379 . S
C2634 H2618 0.931 . S
C2634 C2628 1.383 . S
C2634 C2633 1.379 . S
H2635 C2629 0.959 . S
H2636 C2629 0.961 . S
H2637 C2629 0.960 . S
H2638 C2630 0.930 . S
H2639 C2631 0.929 . S
H2640 C2648 0.929 . S
H2641 C2650 0.930 . S
H2642 C2652 0.930 . S
H2643 C2655 0.929 . S
H2644 C2658 0.930 . S
H2645 C2660 0.960 . S
H2646 C2660 0.960 . S
H2647 C2660 0.960 . S
C2648 H2640 0.929 . S
C2648 C2649 1.377 . S
C2648 C2650 1.384 . S
C2649 C2648 1.377 . S
C2649 C2655 1.390 . S
C2650 H2641 0.930 . S
C2650 C2648 1.384 . S
C2650 C2651 1.372 . S
C2651 C2650 1.372 . S
C2651 C2652 1.400 . S
C2651 C2656 1.490 . S
C2652 H2642 0.930 . S
C2652 C2651 1.400 . S
C2652 C2655 1.386 . S
H2653 C2669 0.930 . S
H2654 C2670 0.931 . S
C2655 H2643 0.929 . S
C2655 C2649 1.390 . S
C2655 C2652 1.386 . S
C2656 C2651 1.490 . S
C2656 C2658 1.395 . S
C2656 C2659 1.403 . S
H2657 C2663 0.930 . S
C2658 H2644 0.930 . S
C2658 C2656 1.395 . S
C2658 C2661 1.403 . S
C2659 C2656 1.403 . S
C2659 C2660 1.524 . S
C2659 C2663 1.400 . S
C2660 H2645 0.960 . S
C2660 H2646 0.960 . S
C2660 H2647 0.960 . S
C2660 C2659 1.524 . S
C2661 C2658 1.403 . S
C2661 C2662 1.392 . S
C2661 C2665 1.495 . S
C2662 C2661 1.392 . S
C2662 C2663 1.385 . S
C2662 C2664 1.478 . S
C2663 H2657 0.930 . S
C2663 C2659 1.400 . S
C2663 C2662 1.385 . S
C2664 C2662 1.478 . S
C2664 C2666 1.381 . S
C2664 C2670 1.383 . S
C2665 C2661 1.495 . S
C2665 H2671 0.959 . S
C2665 H2672 0.961 . S
C2665 H2673 0.960 . S
C2666 C2664 1.381 . S
C2666 C2667 1.394 . S
C2666 H2674 0.930 . S
C2667 C2666 1.394 . S
C2667 C2668 1.383 . S
C2667 H2675 0.929 . S
C2668 C2667 1.383 . S
C2668 C2669 1.377 . S
C2669 H2653 0.930 . S
C2669 C2668 1.377 . S
C2669 C2670 1.379 . S
C2670 H2654 0.931 . S
C2670 C2664 1.383 . S
C2670 C2669 1.379 . S
H2671 C2665 0.959 . S
H2672 C2665 0.961 . S
H2673 C2665 0.960 . S
H2674 C2666 0.930 . S
H2675 C2667 0.929 . S
H2676 C2684 0.929 . S
H2677 C2686 0.930 . S
H2678 C2688 0.930 . S
H2679 C2691 0.929 . S
H2680 C2694 0.930 . S
H2681 C2696 0.960 . S
H2682 C2696 0.960 . S
H2683 C2696 0.960 . S
C2684 H2676 0.929 . S
C2684 C2685 1.377 . S
C2684 C2686 1.384 . S
C2685 C2684 1.377 . S
C2685 C2691 1.390 . S
C2686 H2677 0.930 . S
C2686 C2684 1.384 . S
C2686 C2687 1.372 . S
C2687 C2686 1.372 . S
C2687 C2688 1.400 . S
C2687 C2692 1.490 . S
C2688 H2678 0.930 . S
C2688 C2687 1.400 . S
C2688 C2691 1.386 . S
H2689 C2705 0.930 . S
H2690 C2706 0.931 . S
C2691 H2679 0.929 . S
C2691 C2685 1.390 . S
C2691 C2688 1.386 . S
C2692 C2687 1.490 . S
C2692 C2694 1.395 . S
C2692 C2695 1.403 . S
H2693 C2699 0.930 . S
C2694 H2680 0.930 . S
C2694 C2692 1.395 . S
C2694 C2697 1.403 . S
C2695 C2692 1.403 . S
C2695 C2696 1.524 . S
C2695 C2699 1.400 . S
C2696 H2681 0.960 . S
C2696 H2682 0.960 . S
C2696 H2683 0.960 . S
C2696 C2695 1.524 . S
C2697 C2694 1.403 . S
C2697 C2698 1.392 . S
C2697 C2701 1.495 . S
C2698 C2697 1.392 . S
C2698 C2699 1.385 . S
C2698 C2700 1.478 . S
C2699 H2693 0.930 . S
C2699 C2695 1.400 . S
C2699 C2698 1.385 . S
C2700 C2698 1.478 . S
C2700 C2702 1.381 . S
C2700 C2706 1.383 . S
C2701 C2697 1.495 . S
C2701 H2707 0.959 . S
C2701 H2708 0.961 . S
C2701 H2709 0.960 . S
C2702 C2700 1.381 . S
C2702 C2703 1.394 . S
C2702 H2710 0.930 . S
C2703 C2702 1.394 . S
C2703 C2704 1.383 . S
C2703 H2711 0.929 . S
C2704 C2703 1.383 . S
C2704 C2705 1.377 . S
C2705 H2689 0.930 . S
C2705 C2704 1.377 . S
C2705 C2706 1.379 . S
C2706 H2690 0.931 . S
C2706 C2700 1.383 . S
C2706 C2705 1.379 . S
H2707 C2701 0.959 . S
H2708 C2701 0.961 . S
H2709 C2701 0.960 . S
H2710 C2702 0.930 . S
H2711 C2703 0.929 . S
H2712 C2720 0.929 . S
H2713 C2722 0.930 . S
H2714 C2724 0.930 . S
H2715 C2727 0.929 . S
H2716 C2730 0.930 . S
H2717 C2732 0.960 . S
H2718 C2732 0.960 . S
H2719 C2732 0.960 . S
C2720 H2712 0.929 . S
C2720 C2721 1.377 . S
C2720 C2722 1.384 . S
C2721 C2720 1.377 . S
C2721 C2727 1.390 . S
C2722 H2713 0.930 . S
C2722 C2720 1.384 . S
C2722 C2723 1.372 . S
C2723 C2722 1.372 . S
C2723 C2724 1.400 . S
C2723 C2728 1.490 . S
C2724 H2714 0.930 . S
C2724 C2723 1.400 . S
C2724 C2727 1.386 . S
H2725 C2741 0.930 . S
H2726 C2742 0.931 . S
C2727 H2715 0.929 . S
C2727 C2721 1.390 . S
C2727 C2724 1.386 . S
C2728 C2723 1.490 . S
C2728 C2730 1.395 . S
C2728 C2731 1.403 . S
H2729 C2735 0.930 . S
C2730 H2716 0.930 . S
C2730 C2728 1.395 . S
C2730 C2733 1.403 . S
C2731 C2728 1.403 . S
C2731 C2732 1.524 . S
C2731 C2735 1.400 . S
C2732 H2717 0.960 . S
C2732 H2718 0.960 . S
C2732 H2719 0.960 . S
C2732 C2731 1.524 . S
C2733 C2730 1.403 . S
C2733 C2734 1.392 . S
C2733 C2737 1.495 . S
C2734 C2733 1.392 . S
C2734 C2735 1.385 . S
C2734 C2736 1.478 . S
C2735 H2729 0.930 . S
C2735 C2731 1.400 . S
C2735 C2734 1.385 . S
C2736 C2734 1.478 . S
C2736 C2738 1.381 . S
C2736 C2742 1.383 . S
C2737 C2733 1.495 . S
C2737 H2743 0.959 . S
C2737 H2744 0.961 . S
C2737 H2745 0.960 . S
C2738 C2736 1.381 . S
C2738 C2739 1.394 . S
C2738 H2746 0.930 . S
C2739 C2738 1.394 . S
C2739 C2740 1.383 . S
C2739 H2747 0.929 . S
C2740 C2739 1.383 . S
C2740 C2741 1.377 . S
C2741 H2725 0.930 . S
C2741 C2740 1.377 . S
C2741 C2742 1.379 . S
C2742 H2726 0.931 . S
C2742 C2736 1.383 . S
C2742 C2741 1.379 . S
H2743 C2737 0.959 . S
H2744 C2737 0.961 . S
H2745 C2737 0.960 . S
H2746 C2738 0.930 . S
H2747 C2739 0.929 . S
H2748 C2756 0.929 . S
H2749 C2758 0.930 . S
H2750 C2760 0.930 . S
H2751 C2763 0.929 . S
H2752 C2766 0.930 . S
H2753 C2768 0.960 . S
H2754 C2768 0.960 . S
H2755 C2768 0.960 . S
C2756 H2748 0.929 . S
C2756 C2757 1.377 . S
C2756 C2758 1.384 . S
C2757 C2756 1.377 . S
C2757 C2763 1.390 . S
C2758 H2749 0.930 . S
C2758 C2756 1.384 . S
C2758 C2759 1.372 . S
C2759 C2758 1.372 . S
C2759 C2760 1.400 . S
C2759 C2764 1.490 . S
C2760 H2750 0.930 . S
C2760 C2759 1.400 . S
C2760 C2763 1.386 . S
H2761 C2777 0.930 . S
H2762 C2778 0.931 . S
C2763 H2751 0.929 . S
C2763 C2757 1.390 . S
C2763 C2760 1.386 . S
C2764 C2759 1.490 . S
C2764 C2766 1.395 . S
C2764 C2767 1.403 . S
H2765 C2771 0.930 . S
C2766 H2752 0.930 . S
C2766 C2764 1.395 . S
C2766 C2769 1.403 . S
C2767 C2764 1.403 . S
C2767 C2768 1.524 . S
C2767 C2771 1.400 . S
C2768 H2753 0.960 . S
C2768 H2754 0.960 . S
C2768 H2755 0.960 . S
C2768 C2767 1.524 . S
C2769 C2766 1.403 . S
C2769 C2770 1.392 . S
C2769 C2773 1.495 . S
C2770 C2769 1.392 . S
C2770 C2771 1.385 . S
C2770 C2772 1.478 . S
C2771 H2765 0.930 . S
C2771 C2767 1.400 . S
C2771 C2770 1.385 . S
C2772 C2770 1.478 . S
C2772 C2774 1.381 . S
C2772 C2778 1.383 . S
C2773 C2769 1.495 . S
C2773 H2779 0.959 . S
C2773 H2780 0.961 . S
C2773 H2781 0.960 . S
C2774 C2772 1.381 . S
C2774 C2775 1.394 . S
C2774 H2782 0.930 . S
C2775 C2774 1.394 . S
C2775 C2776 1.383 . S
C2775 H2783 0.929 . S
C2776 C2775 1.383 . S
C2776 C2777 1.377 . S
C2777 H2761 0.930 . S
C2777 C2776 1.377 . S
C2777 C2778 1.379 . S
C2778 H2762 0.931 . S
C2778 C2772 1.383 . S
C2778 C2777 1.379 . S
H2779 C2773 0.959 . S
H2780 C2773 0.961 . S
H2781 C2773 0.960 . S
H2782 C2774 0.930 . S
H2783 C2775 0.929 . S
H2784 C2792 0.929 . S
H2785 C2794 0.930 . S
H2786 C2796 0.930 . S
H2787 C2799 0.929 . S
H2788 C2802 0.930 . S
H2789 C2804 0.960 . S
H2790 C2804 0.960 . S
H2791 C2804 0.960 . S
C2792 H2784 0.929 . S
C2792 C2793 1.377 . S
C2792 C2794 1.384 . S
C2793 C2792 1.377 . S
C2793 C2799 1.390 . S
C2794 H2785 0.930 . S
C2794 C2792 1.384 . S
C2794 C2795 1.372 . S
C2795 C2794 1.372 . S
C2795 C2796 1.400 . S
C2795 C2800 1.490 . S
C2796 H2786 0.930 . S
C2796 C2795 1.400 . S
C2796 C2799 1.386 . S
H2797 C2813 0.930 . S
H2798 C2814 0.931 . S
C2799 H2787 0.929 . S
C2799 C2793 1.390 . S
C2799 C2796 1.386 . S
C2800 C2795 1.490 . S
C2800 C2802 1.395 . S
C2800 C2803 1.403 . S
H2801 C2807 0.930 . S
C2802 H2788 0.930 . S
C2802 C2800 1.395 . S
C2802 C2805 1.403 . S
C2803 C2800 1.403 . S
C2803 C2804 1.524 . S
C2803 C2807 1.400 . S
C2804 H2789 0.960 . S
C2804 H2790 0.960 . S
C2804 H2791 0.960 . S
C2804 C2803 1.524 . S
C2805 C2802 1.403 . S
C2805 C2806 1.392 . S
C2805 C2809 1.495 . S
C2806 C2805 1.392 . S
C2806 C2807 1.385 . S
C2806 C2808 1.478 . S
C2807 H2801 0.930 . S
C2807 C2803 1.400 . S
C2807 C2806 1.385 . S
C2808 C2806 1.478 . S
C2808 C2810 1.381 . S
C2808 C2814 1.383 . S
C2809 C2805 1.495 . S
C2809 H2815 0.959 . S
C2809 H2816 0.961 . S
C2809 H2817 0.960 . S
C2810 C2808 1.381 . S
C2810 C2811 1.394 . S
C2810 H2818 0.930 . S
C2811 C2810 1.394 . S
C2811 C2812 1.383 . S
C2811 H2819 0.929 . S
C2812 C2811 1.383 . S
C2812 C2813 1.377 . S
C2813 H2797 0.930 . S
C2813 C2812 1.377 . S
C2813 C2814 1.379 . S
C2814 H2798 0.931 . S
C2814 C2808 1.383 . S
C2814 C2813 1.379 . S
H2815 C2809 0.959 . S
H2816 C2809 0.961 . S
H2817 C2809 0.960 . S
H2818 C2810 0.930 . S
H2819 C2811 0.929 . S
H2820 C2828 0.929 . S
H2821 C2830 0.930 . S
H2822 C2832 0.930 . S
H2823 C2835 0.929 . S
H2824 C2838 0.930 . S
H2825 C2840 0.960 . S
H2826 C2840 0.960 . S
H2827 C2840 0.960 . S
C2828 H2820 0.929 . S
C2828 C2829 1.377 . S
C2828 C2830 1.384 . S
C2829 C2828 1.377 . S
C2829 C2835 1.390 . S
C2830 H2821 0.930 . S
C2830 C2828 1.384 . S
C2830 C2831 1.372 . S
C2831 C2830 1.372 . S
C2831 C2832 1.400 . S
C2831 C2836 1.490 . S
C2832 H2822 0.930 . S
C2832 C2831 1.400 . S
C2832 C2835 1.386 . S
H2833 C2849 0.930 . S
H2834 C2850 0.931 . S
C2835 H2823 0.929 . S
C2835 C2829 1.390 . S
C2835 C2832 1.386 . S
C2836 C2831 1.490 . S
C2836 C2838 1.395 . S
C2836 C2839 1.403 . S
H2837 C2843 0.930 . S
C2838 H2824 0.930 . S
C2838 C2836 1.395 . S
C2838 C2841 1.403 . S
C2839 C2836 1.403 . S
C2839 C2840 1.524 . S
C2839 C2843 1.400 . S
C2840 H2825 0.960 . S
C2840 H2826 0.960 . S
C2840 H2827 0.960 . S
C2840 C2839 1.524 . S
C2841 C2838 1.403 . S
C2841 C2842 1.392 . S
C2841 C2845 1.495 . S
C2842 C2841 1.392 . S
C2842 C2843 1.385 . S
C2842 C2844 1.478 . S
C2843 H2837 0.930 . S
C2843 C2839 1.400 . S
C2843 C2842 1.385 . S
C2844 C2842 1.478 . S
C2844 C2846 1.381 . S
C2844 C2850 1.383 . S
C2845 C2841 1.495 . S
C2845 H2851 0.959 . S
C2845 H2852 0.961 . S
C2845 H2853 0.960 . S
C2846 C2844 1.381 . S
C2846 C2847 1.394 . S
C2846 H2854 0.930 . S
C2847 C2846 1.394 . S
C2847 C2848 1.383 . S
C2847 H2855 0.929 . S
C2848 C2847 1.383 . S
C2848 C2849 1.377 . S
C2849 H2833 0.930 . S
C2849 C2848 1.377 . S
C2849 C2850 1.379 . S
C2850 H2834 0.931 . S
C2850 C2844 1.383 . S
C2850 C2849 1.379 . S
H2851 C2845 0.959 . S
H2852 C2845 0.961 . S
H2853 C2845 0.960 . S
H2854 C2846 0.930 . S
H2855 C2847 0.929 . S
H2856 C2864 0.929 . S
H2857 C2866 0.930 . S
H2858 C2868 0.930 . S
H2859 C2871 0.929 . S
H2860 C2874 0.930 . S
H2861 C2876 0.960 . S
H2862 C2876 0.960 . S
H2863 C2876 0.960 . S
C2864 H2856 0.929 . S
C2864 C2865 1.377 . S
C2864 C2866 1.384 . S
C2865 C2864 1.377 . S
C2865 C2871 1.390 . S
C2866 H2857 0.930 . S
C2866 C2864 1.384 . S
C2866 C2867 1.372 . S
C2867 C2866 1.372 . S
C2867 C2868 1.400 . S
C2867 C2872 1.490 . S
C2868 H2858 0.930 . S
C2868 C2867 1.400 . S
C2868 C2871 1.386 . S
H2869 C2885 0.930 . S
H2870 C2886 0.931 . S
C2871 H2859 0.929 . S
C2871 C2865 1.390 . S
C2871 C2868 1.386 . S
C2872 C2867 1.490 . S
C2872 C2874 1.395 . S
C2872 C2875 1.403 . S
H2873 C2879 0.930 . S
C2874 H2860 0.930 . S
C2874 C2872 1.395 . S
C2874 C2877 1.403 . S
C2875 C2872 1.403 . S
C2875 C2876 1.524 . S
C2875 C2879 1.400 . S
C2876 H2861 0.960 . S
C2876 H2862 0.960 . S
C2876 H2863 0.960 . S
C2876 C2875 1.524 . S
C2877 C2874 1.403 . S
C2877 C2878 1.392 . S
C2877 C2881 1.495 . S
C2878 C2877 1.392 . S
C2878 C2879 1.385 . S
C2878 C2880 1.478 . S
C2879 H2873 0.930 . S
C2879 C2875 1.400 . S
C2879 C2878 1.385 . S
C2880 C2878 1.478 . S
C2880 C2882 1.381 . S
C2880 C2886 1.383 . S
C2881 C2877 1.495 . S
C2881 H2887 0.959 . S
C2881 H2888 0.961 . S
C2881 H2889 0.960 . S
C2882 C2880 1.381 . S
C2882 C2883 1.394 . S
C2882 H2890 0.930 . S
C2883 C2882 1.394 . S
C2883 C2884 1.383 . S
C2883 H2891 0.929 . S
C2884 C2883 1.383 . S
C2884 C2885 1.377 . S
C2885 H2869 0.930 . S
C2885 C2884 1.377 . S
C2885 C2886 1.379 . S
C2886 H2870 0.931 . S
C2886 C2880 1.383 . S
C2886 C2885 1.379 . S
H2887 C2881 0.959 . S
H2888 C2881 0.961 . S
H2889 C2881 0.960 . S
H2890 C2882 0.930 . S
H2891 C2883 0.929 . S
H2892 C2900 0.929 . S
H2893 C2902 0.930 . S
H2894 C2904 0.930 . S
H2895 C2907 0.929 . S
H2896 C2910 0.930 . S
H2897 C2912 0.960 . S
H2898 C2912 0.960 . S
H2899 C2912 0.960 . S
C2900 H2892 0.929 . S
C2900 C2901 1.377 . S
C2900 C2902 1.384 . S
C2901 C2900 1.377 . S
C2901 C2907 1.390 . S
C2902 H2893 0.930 . S
C2902 C2900 1.384 . S
C2902 C2903 1.372 . S
C2903 C2902 1.372 . S
C2903 C2904 1.400 . S
C2903 C2908 1.490 . S
C2904 H2894 0.930 . S
C2904 C2903 1.400 . S
C2904 C2907 1.386 . S
H2905 C2921 0.930 . S
H2906 C2922 0.931 . S
C2907 H2895 0.929 . S
C2907 C2901 1.390 . S
C2907 C2904 1.386 . S
C2908 C2903 1.490 . S
C2908 C2910 1.395 . S
C2908 C2911 1.403 . S
H2909 C2915 0.930 . S
C2910 H2896 0.930 . S
C2910 C2908 1.395 . S
C2910 C2913 1.403 . S
C2911 C2908 1.403 . S
C2911 C2912 1.524 . S
C2911 C2915 1.400 . S
C2912 H2897 0.960 . S
C2912 H2898 0.960 . S
C2912 H2899 0.960 . S
C2912 C2911 1.524 . S
C2913 C2910 1.403 . S
C2913 C2914 1.392 . S
C2913 C2917 1.495 . S
C2914 C2913 1.392 . S
C2914 C2915 1.385 . S
C2914 C2916 1.478 . S
C2915 H2909 0.930 . S
C2915 C2911 1.400 . S
C2915 C2914 1.385 . S
C2916 C2914 1.478 . S
C2916 C2918 1.381 . S
C2916 C2922 1.383 . S
C2917 C2913 1.495 . S
C2917 H2923 0.959 . S
C2917 H2924 0.961 . S
C2917 H2925 0.960 . S
C2918 C2916 1.381 . S
C2918 C2919 1.394 . S
C2918 H2926 0.930 . S
C2919 C2918 1.394 . S
C2919 C2920 1.383 . S
C2919 H2927 0.929 . S
C2920 C2919 1.383 . S
C2920 C2921 1.377 . S
C2921 H2905 0.930 . S
C2921 C2920 1.377 . S
C2921 C2922 1.379 . S
C2922 H2906 0.931 . S
C2922 C2916 1.383 . S
C2922 C2921 1.379 . S
H2923 C2917 0.959 . S
H2924 C2917 0.961 . S
H2925 C2917 0.960 . S
H2926 C2918 0.930 . S
H2927 C2919 0.929 . S
H2928 C2936 0.929 . S
H2929 C2938 0.930 . S
H2930 C2940 0.930 . S
H2931 C2943 0.929 . S
H2932 C2946 0.930 . S
H2933 C2948 0.960 . S
H2934 C2948 0.960 . S
H2935 C2948 0.960 . S
C2936 H2928 0.929 . S
C2936 C2937 1.377 . S
C2936 C2938 1.384 . S
C2937 C2936 1.377 . S
C2937 C2943 1.390 . S
C2938 H2929 0.930 . S
C2938 C2936 1.384 . S
C2938 C2939 1.372 . S
C2939 C2938 1.372 . S
C2939 C2940 1.400 . S
C2939 C2944 1.490 . S
C2940 H2930 0.930 . S
C2940 C2939 1.400 . S
C2940 C2943 1.386 . S
H2941 C2957 0.930 . S
H2942 C2958 0.931 . S
C2943 H2931 0.929 . S
C2943 C2937 1.390 . S
C2943 C2940 1.386 . S
C2944 C2939 1.490 . S
C2944 C2946 1.395 . S
C2944 C2947 1.403 . S
H2945 C2951 0.930 . S
C2946 H2932 0.930 . S
C2946 C2944 1.395 . S
C2946 C2949 1.403 . S
C2947 C2944 1.403 . S
C2947 C2948 1.524 . S
C2947 C2951 1.400 . S
C2948 H2933 0.960 . S
C2948 H2934 0.960 . S
C2948 H2935 0.960 . S
C2948 C2947 1.524 . S
C2949 C2946 1.403 . S
C2949 C2950 1.392 . S
C2949 C2953 1.495 . S
C2950 C2949 1.392 . S
C2950 C2951 1.385 . S
C2950 C2952 1.478 . S
C2951 H2945 0.930 . S
C2951 C2947 1.400 . S
C2951 C2950 1.385 . S
C2952 C2950 1.478 . S
C2952 C2954 1.381 . S
C2952 C2958 1.383 . S
C2953 C2949 1.495 . S
C2953 H2959 0.959 . S
C2953 H2960 0.961 . S
C2953 H2961 0.960 . S
C2954 C2952 1.381 . S
C2954 C2955 1.394 . S
C2954 H2962 0.930 . S
C2955 C2954 1.394 . S
C2955 C2956 1.383 . S
C2955 H2963 0.929 . S
C2956 C2955 1.383 . S
C2956 C2957 1.377 . S
C2957 H2941 0.930 . S
C2957 C2956 1.377 . S
C2957 C2958 1.379 . S
C2958 H2942 0.931 . S
C2958 C2952 1.383 . S
C2958 C2957 1.379 . S
H2959 C2953 0.959 . S
H2960 C2953 0.961 . S
H2961 C2953 0.960 . S
H2962 C2954 0.930 . S
H2963 C2955 0.929 . S
H2964 C2972 0.929 . S
H2965 C2974 0.930 . S
H2966 C2976 0.930 . S
H2967 C2979 0.929 . S
H2968 C2982 0.930 . S
H2969 C2984 0.960 . S
H2970 C2984 0.960 . S
H2971 C2984 0.960 . S
C2972 H2964 0.929 . S
C2972 C2973 1.377 . S
C2972 C2974 1.384 . S
C2973 C2972 1.377 . S
C2973 C2979 1.390 . S
C2974 H2965 0.930 . S
C2974 C2972 1.384 . S
C2974 C2975 1.372 . S
C2975 C2974 1.372 . S
C2975 C2976 1.400 . S
C2975 C2980 1.490 . S
C2976 H2966 0.930 . S
C2976 C2975 1.400 . S
C2976 C2979 1.386 . S
H2977 C2993 0.930 . S
H2978 C2994 0.931 . S
C2979 H2967 0.929 . S
C2979 C2973 1.390 . S
C2979 C2976 1.386 . S
C2980 C2975 1.490 . S
C2980 C2982 1.395 . S
C2980 C2983 1.403 . S
H2981 C2987 0.930 . S
C2982 H2968 0.930 . S
C2982 C2980 1.395 . S
C2982 C2985 1.403 . S
C2983 C2980 1.403 . S
C2983 C2984 1.524 . S
C2983 C2987 1.400 . S
C2984 H2969 0.960 . S
C2984 H2970 0.960 . S
C2984 H2971 0.960 . S
C2984 C2983 1.524 . S
C2985 C2982 1.403 . S
C2985 C2986 1.392 . S
C2985 C2989 1.495 . S
C2986 C2985 1.392 . S
C2986 C2987 1.385 . S
C2986 C2988 1.478 . S
C2987 H2981 0.930 . S
C2987 C2983 1.400 . S
C2987 C2986 1.385 . S
C2988 C2986 1.478 . S
C2988 C2990 1.381 . S
C2988 C2994 1.383 . S
C2989 C2985 1.495 . S
C2989 H2995 0.959 . S
C2989 H2996 0.961 . S
C2989 H2997 0.960 . S
C2990 C2988 1.381 . S
C2990 C2991 1.394 . S
C2990 H2998 0.930 . S
C2991 C2990 1.394 . S
C2991 C2992 1.383 . S
C2991 H2999 0.929 . S
C2992 C2991 1.383 . S
C2992 C2993 1.377 . S
C2993 H2977 0.930 . S
C2993 C2992 1.377 . S
C2993 C2994 1.379 . S
C2994 H2978 0.931 . S
C2994 C2988 1.383 . S
C2994 C2993 1.379 . S
H2995 C2989 0.959 . S
H2996 C2989 0.961 . S
H2997 C2989 0.960 . S
H2998 C2990 0.930 . S
H2999 C2991 0.929 . S
H3000 C3008 0.929 . S
H3001 C3010 0.930 . S
H3002 C3012 0.930 . S
H3003 C3015 0.929 . S
H3004 C3018 0.930 . S
H3005 C3020 0.960 . S
H3006 C3020 0.960 . S
H3007 C3020 0.960 . S
C3008 H3000 0.929 . S
C3008 C3009 1.377 . S
C3008 C3010 1.384 . S
C3009 C3008 1.377 . S
C3009 C3015 1.390 . S
C3010 H3001 0.930 . S
C3010 C3008 1.384 . S
C3010 C3011 1.372 . S
C3011 C3010 1.372 . S
C3011 C3012 1.400 . S
C3011 C3016 1.490 . S
C3012 H3002 0.930 . S
C3012 C3011 1.400 . S
C3012 C3015 1.386 . S
H3013 C3029 0.930 . S
H3014 C3030 0.931 . S
C3015 H3003 0.929 . S
C3015 C3009 1.390 . S
C3015 C3012 1.386 . S
C3016 C3011 1.490 . S
C3016 C3018 1.395 . S
C3016 C3019 1.403 . S
H3017 C3023 0.930 . S
C3018 H3004 0.930 . S
C3018 C3016 1.395 . S
C3018 C3021 1.403 . S
C3019 C3016 1.403 . S
C3019 C3020 1.524 . S
C3019 C3023 1.400 . S
C3020 H3005 0.960 . S
C3020 H3006 0.960 . S
C3020 H3007 0.960 . S
C3020 C3019 1.524 . S
C3021 C3018 1.403 . S
C3021 C3022 1.392 . S
C3021 C3025 1.495 . S
C3022 C3021 1.392 . S
C3022 C3023 1.385 . S
C3022 C3024 1.478 . S
C3023 H3017 0.930 . S
C3023 C3019 1.400 . S
C3023 C3022 1.385 . S
C3024 C3022 1.478 . S
C3024 C3026 1.381 . S
C3024 C3030 1.383 . S
C3025 C3021 1.495 . S
C3025 H3031 0.959 . S
C3025 H3032 0.961 . S
C3025 H3033 0.960 . S
C3026 C3024 1.381 . S
C3026 C3027 1.394 . S
C3026 H3034 0.930 . S
C3027 C3026 1.394 . S
C3027 C3028 1.383 . S
C3027 H3035 0.929 . S
C3028 C3027 1.383 . S
C3028 C3029 1.377 . S
C3029 H3013 0.930 . S
C3029 C3028 1.377 . S
C3029 C3030 1.379 . S
C3030 H3014 0.931 . S
C3030 C3024 1.383 . S
C3030 C3029 1.379 . S
H3031 C3025 0.959 . S
H3032 C3025 0.961 . S
H3033 C3025 0.960 . S
H3034 C3026 0.930 . S
H3035 C3027 0.929 . S
H3036 C3044 0.929 . S
H3037 C3046 0.930 . S
H3038 C3048 0.930 . S
H3039 C3051 0.929 . S
H3040 C3054 0.930 . S
H3041 C3056 0.960 . S
H3042 C3056 0.960 . S
H3043 C3056 0.960 . S
C3044 H3036 0.929 . S
C3044 C3045 1.377 . S
C3044 C3046 1.384 . S
C3045 C3044 1.377 . S
C3045 C3051 1.390 . S
C3046 H3037 0.930 . S
C3046 C3044 1.384 . S
C3046 C3047 1.372 . S
C3047 C3046 1.372 . S
C3047 C3048 1.400 . S
C3047 C3052 1.490 . S
C3048 H3038 0.930 . S
C3048 C3047 1.400 . S
C3048 C3051 1.386 . S
H3049 C3065 0.930 . S
H3050 C3066 0.931 . S
C3051 H3039 0.929 . S
C3051 C3045 1.390 . S
C3051 C3048 1.386 . S
C3052 C3047 1.490 . S
C3052 C3054 1.395 . S
C3052 C3055 1.403 . S
H3053 C3059 0.930 . S
C3054 H3040 0.930 . S
C3054 C3052 1.395 . S
C3054 C3057 1.403 . S
C3055 C3052 1.403 . S
C3055 C3056 1.524 . S
C3055 C3059 1.400 . S
C3056 H3041 0.960 . S
C3056 H3042 0.960 . S
C3056 H3043 0.960 . S
C3056 C3055 1.524 . S
C3057 C3054 1.403 . S
C3057 C3058 1.392 . S
C3057 C3061 1.495 . S
C3058 C3057 1.392 . S
C3058 C3059 1.385 . S
C3058 C3060 1.478 . S
C3059 H3053 0.930 . S
C3059 C3055 1.400 . S
C3059 C3058 1.385 . S
C3060 C3058 1.478 . S
C3060 C3062 1.381 . S
C3060 C3066 1.383 . S
C3061 C3057 1.495 . S
C3061 H3067 0.959 . S
C3061 H3068 0.961 . S
C3061 H3069 0.960 . S
C3062 C3060 1.381 . S
C3062 C3063 1.394 . S
C3062 H3070 0.930 . S
C3063 C3062 1.394 . S
C3063 C3064 1.383 . S
C3063 H3071 0.929 . S
C3064 C3063 1.383 . S
C3064 C3065 1.377 . S
C3065 H3049 0.930 . S
C3065 C3064 1.377 . S
C3065 C3066 1.379 . S
C3066 H3050 0.931 . S
C3066 C3060 1.383 . S
C3066 C3065 1.379 . S
H3067 C3061 0.959 . S
H3068 C3061 0.961 . S
H3069 C3061 0.960 . S
H3070 C3062 0.930 . S
H3071 C3063 0.929 . S
H3072 C3080 0.929 . S
H3073 C3082 0.930 . S
H3074 C3084 0.930 . S
H3075 C3087 0.929 . S
H3076 C3090 0.930 . S
H3077 C3092 0.960 . S
H3078 C3092 0.960 . S
H3079 C3092 0.960 . S
C3080 H3072 0.929 . S
C3080 C3081 1.377 . S
C3080 C3082 1.384 . S
C3081 C3080 1.377 . S
C3081 C3087 1.390 . S
C3082 H3073 0.930 . S
C3082 C3080 1.384 . S
C3082 C3083 1.372 . S
C3083 C3082 1.372 . S
C3083 C3084 1.400 . S
C3083 C3088 1.490 . S
C3084 H3074 0.930 . S
C3084 C3083 1.400 . S
C3084 C3087 1.386 . S
H3085 C3101 0.930 . S
H3086 C3102 0.931 . S
C3087 H3075 0.929 . S
C3087 C3081 1.390 . S
C3087 C3084 1.386 . S
C3088 C3083 1.490 . S
C3088 C3090 1.395 . S
C3088 C3091 1.403 . S
H3089 C3095 0.930 . S
C3090 H3076 0.930 . S
C3090 C3088 1.395 . S
C3090 C3093 1.403 . S
C3091 C3088 1.403 . S
C3091 C3092 1.524 . S
C3091 C3095 1.400 . S
C3092 H3077 0.960 . S
C3092 H3078 0.960 . S
C3092 H3079 0.960 . S
C3092 C3091 1.524 . S
C3093 C3090 1.403 . S
C3093 C3094 1.392 . S
C3093 C3097 1.495 . S
C3094 C3093 1.392 . S
C3094 C3095 1.385 . S
C3094 C3096 1.478 . S
C3095 H3089 0.930 . S
C3095 C3091 1.400 . S
C3095 C3094 1.385 . S
C3096 C3094 1.478 . S
C3096 C3098 1.381 . S
C3096 C3102 1.383 . S
C3097 C3093 1.495 . S
C3097 H3103 0.959 . S
C3097 H3104 0.961 . S
C3097 H3105 0.960 . S
C3098 C3096 1.381 . S
C3098 C3099 1.394 . S
C3098 H3106 0.930 . S
C3099 C3098 1.394 . S
C3099 C3100 1.383 . S
C3099 H3107 0.929 . S
C3100 C3099 1.383 . S
C3100 C3101 1.377 . S
C3101 H3085 0.930 . S
C3101 C3100 1.377 . S
C3101 C3102 1.379 . S
C3102 H3086 0.931 . S
C3102 C3096 1.383 . S
C3102 C3101 1.379 . S
H3103 C3097 0.959 . S
H3104 C3097 0.961 . S
H3105 C3097 0.960 . S
H3106 C3098 0.930 . S
H3107 C3099 0.929 . S
H3108 C3116 0.929 . S
H3109 C3118 0.930 . S
H3110 C3120 0.930 . S
H3111 C3123 0.929 . S
H3112 C3126 0.930 . S
H3113 C3128 0.960 . S
H3114 C3128 0.960 . S
H3115 C3128 0.960 . S
C3116 H3108 0.929 . S
C3116 C3117 1.377 . S
C3116 C3118 1.384 . S
C3117 C3116 1.377 . S
C3117 C3123 1.390 . S
C3118 H3109 0.930 . S
C3118 C3116 1.384 . S
C3118 C3119 1.372 . S
C3119 C3118 1.372 . S
C3119 C3120 1.400 . S
C3119 C3124 1.490 . S
C3120 H3110 0.930 . S
C3120 C3119 1.400 . S
C3120 C3123 1.386 . S
H3121 C3137 0.930 . S
H3122 C3138 0.931 . S
C3123 H3111 0.929 . S
C3123 C3117 1.390 . S
C3123 C3120 1.386 . S
C3124 C3119 1.490 . S
C3124 C3126 1.395 . S
C3124 C3127 1.403 . S
H3125 C3131 0.930 . S
C3126 H3112 0.930 . S
C3126 C3124 1.395 . S
C3126 C3129 1.403 . S
C3127 C3124 1.403 . S
C3127 C3128 1.524 . S
C3127 C3131 1.400 . S
C3128 H3113 0.960 . S
C3128 H3114 0.960 . S
C3128 H3115 0.960 . S
C3128 C3127 1.524 . S
C3129 C3126 1.403 . S
C3129 C3130 1.392 . S
C3129 C3133 1.495 . S
C3130 C3129 1.392 . S
C3130 C3131 1.385 . S
C3130 C3132 1.478 . S
C3131 H3125 0.930 . S
C3131 C3127 1.400 . S
C3131 C3130 1.385 . S
C3132 C3130 1.478 . S
C3132 C3134 1.381 . S
C3132 C3138 1.383 . S
C3133 C3129 1.495 . S
C3133 H3139 0.959 . S
C3133 H3140 0.961 . S
C3133 H3141 0.960 . S
C3134 C3132 1.381 . S
C3134 C3135 1.394 . S
C3134 H3142 0.930 . S
C3135 C3134 1.394 . S
C3135 C3136 1.383 . S
C3135 H3143 0.929 . S
C3136 C3135 1.383 . S
C3136 C3137 1.377 . S
C3137 H3121 0.930 . S
C3137 C3136 1.377 . S
C3137 C3138 1.379 . S
C3138 H3122 0.931 . S
C3138 C3132 1.383 . S
C3138 C3137 1.379 . S
H3139 C3133 0.959 . S
H3140 C3133 0.961 . S
H3141 C3133 0.960 . S
H3142 C3134 0.930 . S
H3143 C3135 0.929 . S
H3144 C3152 0.929 . S
H3145 C3154 0.930 . S
H3146 C3156 0.930 . S
H3147 C3159 0.929 . S
H3148 C3162 0.930 . S
H3149 C3164 0.960 . S
H3150 C3164 0.960 . S
H3151 C3164 0.960 . S
C3152 H3144 0.929 . S
C3152 C3153 1.377 . S
C3152 C3154 1.384 . S
C3153 C3152 1.377 . S
C3153 C3159 1.390 . S
C3154 H3145 0.930 . S
C3154 C3152 1.384 . S
C3154 C3155 1.372 . S
C3155 C3154 1.372 . S
C3155 C3156 1.400 . S
C3155 C3160 1.490 . S
C3156 H3146 0.930 . S
C3156 C3155 1.400 . S
C3156 C3159 1.386 . S
H3157 C3173 0.930 . S
H3158 C3174 0.931 . S
C3159 H3147 0.929 . S
C3159 C3153 1.390 . S
C3159 C3156 1.386 . S
C3160 C3155 1.490 . S
C3160 C3162 1.395 . S
C3160 C3163 1.403 . S
H3161 C3167 0.930 . S
C3162 H3148 0.930 . S
C3162 C3160 1.395 . S
C3162 C3165 1.403 . S
C3163 C3160 1.403 . S
C3163 C3164 1.524 . S
C3163 C3167 1.400 . S
C3164 H3149 0.960 . S
C3164 H3150 0.960 . S
C3164 H3151 0.960 . S
C3164 C3163 1.524 . S
C3165 C3162 1.403 . S
C3165 C3166 1.392 . S
C3165 C3169 1.495 . S
C3166 C3165 1.392 . S
C3166 C3167 1.385 . S
C3166 C3168 1.478 . S
C3167 H3161 0.930 . S
C3167 C3163 1.400 . S
C3167 C3166 1.385 . S
C3168 C3166 1.478 . S
C3168 C3170 1.381 . S
C3168 C3174 1.383 . S
C3169 C3165 1.495 . S
C3169 H3175 0.959 . S
C3169 H3176 0.961 . S
C3169 H3177 0.960 . S
C3170 C3168 1.381 . S
C3170 C3171 1.394 . S
C3170 H3178 0.930 . S
C3171 C3170 1.394 . S
C3171 C3172 1.383 . S
C3171 H3179 0.929 . S
C3172 C3171 1.383 . S
C3172 C3173 1.377 . S
C3173 H3157 0.930 . S
C3173 C3172 1.377 . S
C3173 C3174 1.379 . S
C3174 H3158 0.931 . S
C3174 C3168 1.383 . S
C3174 C3173 1.379 . S
H3175 C3169 0.959 . S
H3176 C3169 0.961 . S
H3177 C3169 0.960 . S
H3178 C3170 0.930 . S
H3179 C3171 0.929 . S
H3180 C3188 0.929 . S
H3181 C3190 0.930 . S
H3182 C3192 0.930 . S
H3183 C3195 0.929 . S
H3184 C3198 0.930 . S
H3185 C3200 0.960 . S
H3186 C3200 0.960 . S
H3187 C3200 0.960 . S
C3188 H3180 0.929 . S
C3188 C3189 1.377 . S
C3188 C3190 1.384 . S
C3189 C3188 1.377 . S
C3189 C3195 1.390 . S
C3190 H3181 0.930 . S
C3190 C3188 1.384 . S
C3190 C3191 1.372 . S
C3191 C3190 1.372 . S
C3191 C3192 1.400 . S
C3191 C3196 1.490 . S
C3192 H3182 0.930 . S
C3192 C3191 1.400 . S
C3192 C3195 1.386 . S
H3193 C3209 0.930 . S
H3194 C3210 0.931 . S
C3195 H3183 0.929 . S
C3195 C3189 1.390 . S
C3195 C3192 1.386 . S
C3196 C3191 1.490 . S
C3196 C3198 1.395 . S
C3196 C3199 1.403 . S
H3197 C3203 0.930 . S
C3198 H3184 0.930 . S
C3198 C3196 1.395 . S
C3198 C3201 1.403 . S
C3199 C3196 1.403 . S
C3199 C3200 1.524 . S
C3199 C3203 1.400 . S
C3200 H3185 0.960 . S
C3200 H3186 0.960 . S
C3200 H3187 0.960 . S
C3200 C3199 1.524 . S
C3201 C3198 1.403 . S
C3201 C3202 1.392 . S
C3201 C3205 1.495 . S
C3202 C3201 1.392 . S
C3202 C3203 1.385 . S
C3202 C3204 1.478 . S
C3203 H3197 0.930 . S
C3203 C3199 1.400 . S
C3203 C3202 1.385 . S
C3204 C3202 1.478 . S
C3204 C3206 1.381 . S
C3204 C3210 1.383 . S
C3205 C3201 1.495 . S
C3205 H3211 0.959 . S
C3205 H3212 0.961 . S
C3205 H3213 0.960 . S
C3206 C3204 1.381 . S
C3206 C3207 1.394 . S
C3206 H3214 0.930 . S
C3207 C3206 1.394 . S
C3207 C3208 1.383 . S
C3207 H3215 0.929 . S
C3208 C3207 1.383 . S
C3208 C3209 1.377 . S
C3209 H3193 0.930 . S
C3209 C3208 1.377 . S
C3209 C3210 1.379 . S
C3210 H3194 0.931 . S
C3210 C3204 1.383 . S
C3210 C3209 1.379 . S
H3211 C3205 0.959 . S
H3212 C3205 0.961 . S
H3213 C3205 0.960 . S
H3214 C3206 0.930 . S
H3215 C3207 0.929 . S
H3216 C3224 0.929 . S
H3217 C3226 0.930 . S
H3218 C3228 0.930 . S
H3219 C3231 0.929 . S
H3220 C3234 0.930 . S
H3221 C3236 0.960 . S
H3222 C3236 0.960 . S
H3223 C3236 0.960 . S
C3224 H3216 0.929 . S
C3224 C3225 1.377 . S
C3224 C3226 1.384 . S
C3225 C3224 1.377 . S
C3225 C3231 1.390 . S
C3226 H3217 0.930 . S
C3226 C3224 1.384 . S
C3226 C3227 1.372 . S
C3227 C3226 1.372 . S
C3227 C3228 1.400 . S
C3227 C3232 1.490 . S
C3228 H3218 0.930 . S
C3228 C3227 1.400 . S
C3228 C3231 1.386 . S
H3229 C3245 0.930 . S
H3230 C3246 0.931 . S
C3231 H3219 0.929 . S
C3231 C3225 1.390 . S
C3231 C3228 1.386 . S
C3232 C3227 1.490 . S
C3232 C3234 1.395 . S
C3232 C3235 1.403 . S
H3233 C3239 0.930 . S
C3234 H3220 0.930 . S
C3234 C3232 1.395 . S
C3234 C3237 1.403 1_554 S
C3235 C3232 1.403 . S
C3235 C3236 1.524 . S
C3235 C3239 1.400 1_554 S
C3236 H3221 0.960 . S
C3236 H3222 0.960 . S
C3236 H3223 0.960 . S
C3236 C3235 1.524 . S
C3237 C3234 1.403 1_556 S
C3237 C3238 1.392 . S
C3237 C3241 1.495 . S
C3238 C3237 1.392 . S
C3238 C3239 1.385 . S
C3238 C3240 1.478 . S
C3239 H3233 0.930 . S
C3239 C3235 1.400 1_556 S
C3239 C3238 1.385 . S
C3240 C3238 1.478 . S
C3240 C3242 1.381 . S
C3240 C3246 1.383 . S
C3241 C3237 1.495 . S
C3241 H3247 0.959 . S
C3241 H3248 0.961 . S
C3241 H3249 0.960 . S
C3242 C3240 1.381 . S
C3242 C3243 1.394 . S
C3242 H3250 0.930 . S
C3243 C3242 1.394 . S
C3243 C3244 1.383 . S
C3243 H3251 0.929 . S
C3244 C3243 1.383 . S
C3244 C3245 1.377 . S
C3245 H3229 0.930 . S
C3245 C3244 1.377 . S
C3245 C3246 1.379 . S
C3246 H3230 0.931 . S
C3246 C3240 1.383 . S
C3246 C3245 1.379 . S
H3247 C3241 0.959 . S
H3248 C3241 0.961 . S
H3249 C3241 0.960 . S
H3250 C3242 0.930 . S
H3251 C3243 0.929 . S
H3252 C3260 0.929 . S
H3253 C3262 0.930 . S
H3254 C3264 0.930 . S
H3255 C3267 0.929 . S
H3256 C3270 0.930 . S
H3257 C3272 0.960 . S
H3258 C3272 0.960 . S
H3259 C3272 0.960 . S
C3260 H3252 0.929 . S
C3260 C3261 1.377 . S
C3260 C3262 1.384 . S
C3261 C3260 1.377 . S
C3261 C3267 1.390 . S
C3262 H3253 0.930 . S
C3262 C3260 1.384 . S
C3262 C3263 1.372 . S
C3263 C3262 1.372 . S
C3263 C3264 1.400 . S
C3263 C3268 1.490 . S
C3264 H3254 0.930 . S
C3264 C3263 1.400 . S
C3264 C3267 1.386 . S
H3265 C3281 0.930 . S
H3266 C3282 0.931 . S
C3267 H3255 0.929 . S
C3267 C3261 1.390 . S
C3267 C3264 1.386 . S
C3268 C3263 1.490 . S
C3268 C3270 1.395 . S
C3268 C3271 1.403 . S
H3269 C3275 0.930 . S
C3270 H3256 0.930 . S
C3270 C3268 1.395 . S
C3270 C3273 1.403 1_556 S
C3271 C3268 1.403 . S
C3271 C3272 1.524 . S
C3271 C3275 1.400 1_556 S
C3272 H3257 0.960 . S
C3272 H3258 0.960 . S
C3272 H3259 0.960 . S
C3272 C3271 1.524 . S
C3273 C3270 1.403 1_554 S
C3273 C3274 1.392 . S
C3273 C3277 1.495 . S
C3274 C3273 1.392 . S
C3274 C3275 1.385 . S
C3274 C3276 1.478 . S
C3275 H3269 0.930 . S
C3275 C3271 1.400 1_554 S
C3275 C3274 1.385 . S
C3276 C3274 1.478 . S
C3276 C3278 1.381 . S
C3276 C3282 1.383 . S
C3277 C3273 1.495 . S
C3277 H3283 0.959 . S
C3277 H3284 0.961 . S
C3277 H3285 0.960 . S
C3278 C3276 1.381 . S
C3278 C3279 1.394 . S
C3278 H3286 0.930 . S
C3279 C3278 1.394 . S
C3279 C3280 1.383 . S
C3279 H3287 0.929 . S
C3280 C3279 1.383 . S
C3280 C3281 1.377 . S
C3281 H3265 0.930 . S
C3281 C3280 1.377 . S
C3281 C3282 1.379 . S
C3282 H3266 0.931 . S
C3282 C3276 1.383 . S
C3282 C3281 1.379 . S
H3283 C3277 0.959 . S
H3284 C3277 0.961 . S
H3285 C3277 0.960 . S
H3286 C3278 0.930 . S
H3287 C3279 0.929 . S
H3288 C3296 0.929 . S
H3289 C3298 0.930 . S
H3290 C3300 0.930 . S
H3291 C3303 0.929 . S
H3292 C3306 0.930 . S
H3293 C3308 0.960 . S
H3294 C3308 0.960 . S
H3295 C3308 0.960 . S
C3296 H3288 0.929 . S
C3296 C3297 1.377 . S
C3296 C3298 1.384 . S
C3297 C3296 1.377 . S
C3297 C3303 1.390 . S
C3298 H3289 0.930 . S
C3298 C3296 1.384 . S
C3298 C3299 1.372 . S
C3299 C3298 1.372 . S
C3299 C3300 1.400 . S
C3299 C3304 1.490 . S
C3300 H3290 0.930 . S
C3300 C3299 1.400 . S
C3300 C3303 1.386 . S
H3301 C3317 0.930 . S
H3302 C3318 0.931 . S
C3303 H3291 0.929 . S
C3303 C3297 1.390 . S
C3303 C3300 1.386 . S
C3304 C3299 1.490 . S
C3304 C3306 1.395 . S
C3304 C3307 1.403 . S
H3305 C3311 0.930 . S
C3306 H3292 0.930 . S
C3306 C3304 1.395 . S
C3306 C3309 1.403 1_554 S
C3307 C3304 1.403 . S
C3307 C3308 1.524 . S
C3307 C3311 1.400 1_554 S
C3308 H3293 0.960 . S
C3308 H3294 0.960 . S
C3308 H3295 0.960 . S
C3308 C3307 1.524 . S
C3309 C3306 1.403 1_556 S
C3309 C3310 1.392 . S
C3309 C3313 1.495 . S
C3310 C3309 1.392 . S
C3310 C3311 1.385 . S
C3310 C3312 1.478 . S
C3311 H3305 0.930 . S
C3311 C3307 1.400 1_556 S
C3311 C3310 1.385 . S
C3312 C3310 1.478 . S
C3312 C3314 1.381 . S
C3312 C3318 1.383 . S
C3313 C3309 1.495 . S
C3313 H3319 0.959 . S
C3313 H3320 0.961 . S
C3313 H3321 0.960 . S
C3314 C3312 1.381 . S
C3314 C3315 1.394 . S
C3314 H3322 0.930 . S
C3315 C3314 1.394 . S
C3315 C3316 1.383 . S
C3315 H3323 0.929 . S
C3316 C3315 1.383 . S
C3316 C3317 1.377 . S
C3317 H3301 0.930 . S
C3317 C3316 1.377 . S
C3317 C3318 1.379 . S
C3318 H3302 0.931 . S
C3318 C3312 1.383 . S
C3318 C3317 1.379 . S
H3319 C3313 0.959 . S
H3320 C3313 0.961 . S
H3321 C3313 0.960 . S
H3322 C3314 0.930 . S
H3323 C3315 0.929 . S
H3324 C3332 0.929 . S
H3325 C3334 0.930 . S
H3326 C3336 0.930 . S
H3327 C3339 0.929 . S
H3328 C3342 0.930 . S
H3329 C3344 0.960 . S
H3330 C3344 0.960 . S
H3331 C3344 0.960 . S
C3332 H3324 0.929 . S
C3332 C3333 1.377 . S
C3332 C3334 1.384 . S
C3333 C3332 1.377 . S
C3333 C3339 1.390 . S
C3334 H3325 0.930 . S
C3334 C3332 1.384 . S
C3334 C3335 1.372 . S
C3335 C3334 1.372 . S
C3335 C3336 1.400 . S
C3335 C3340 1.490 . S
C3336 H3326 0.930 . S
C3336 C3335 1.400 . S
C3336 C3339 1.386 . S
H3337 C3353 0.930 . S
H3338 C3354 0.931 . S
C3339 H3327 0.929 . S
C3339 C3333 1.390 . S
C3339 C3336 1.386 . S
C3340 C3335 1.490 . S
C3340 C3342 1.395 . S
C3340 C3343 1.403 . S
H3341 C3347 0.930 . S
C3342 H3328 0.930 . S
C3342 C3340 1.395 . S
C3342 C3345 1.403 1_554 S
C3343 C3340 1.403 . S
C3343 C3344 1.524 . S
C3343 C3347 1.400 1_554 S
C3344 H3329 0.960 . S
C3344 H3330 0.960 . S
C3344 H3331 0.960 . S
C3344 C3343 1.524 . S
C3345 C3342 1.403 1_556 S
C3345 C3346 1.392 . S
C3345 C3349 1.495 . S
C3346 C3345 1.392 . S
C3346 C3347 1.385 . S
C3346 C3348 1.478 . S
C3347 H3341 0.930 . S
C3347 C3343 1.400 1_556 S
C3347 C3346 1.385 . S
C3348 C3346 1.478 . S
C3348 C3350 1.381 . S
C3348 C3354 1.383 . S
C3349 C3345 1.495 . S
C3349 H3355 0.959 . S
C3349 H3356 0.961 . S
C3349 H3357 0.960 . S
C3350 C3348 1.381 . S
C3350 C3351 1.394 . S
C3350 H3358 0.930 . S
C3351 C3350 1.394 . S
C3351 C3352 1.383 . S
C3351 H3359 0.929 . S
C3352 C3351 1.383 . S
C3352 C3353 1.377 . S
C3353 H3337 0.930 . S
C3353 C3352 1.377 . S
C3353 C3354 1.379 . S
C3354 H3338 0.931 . S
C3354 C3348 1.383 . S
C3354 C3353 1.379 . S
H3355 C3349 0.959 . S
H3356 C3349 0.961 . S
H3357 C3349 0.960 . S
H3358 C3350 0.930 . S
H3359 C3351 0.929 . S
H3360 C3368 0.929 . S
H3361 C3370 0.930 . S
H3362 C3372 0.930 . S
H3363 C3375 0.929 . S
H3364 C3378 0.930 . S
H3365 C3380 0.960 . S
H3366 C3380 0.960 . S
H3367 C3380 0.960 . S
C3368 H3360 0.929 . S
C3368 C3369 1.377 . S
C3368 C3370 1.384 . S
C3369 C3368 1.377 . S
C3369 C3375 1.390 . S
C3370 H3361 0.930 . S
C3370 C3368 1.384 . S
C3370 C3371 1.372 . S
C3371 C3370 1.372 . S
C3371 C3372 1.400 . S
C3371 C3376 1.490 . S
C3372 H3362 0.930 . S
C3372 C3371 1.400 . S
C3372 C3375 1.386 . S
H3373 C3389 0.930 . S
H3374 C3390 0.931 . S
C3375 H3363 0.929 . S
C3375 C3369 1.390 . S
C3375 C3372 1.386 . S
C3376 C3371 1.490 . S
C3376 C3378 1.395 . S
C3376 C3379 1.403 . S
H3377 C3383 0.930 . S
C3378 H3364 0.930 . S
C3378 C3376 1.395 . S
C3378 C3381 1.403 1_556 S
C3379 C3376 1.403 . S
C3379 C3380 1.524 . S
C3379 C3383 1.400 1_556 S
C3380 H3365 0.960 . S
C3380 H3366 0.960 . S
C3380 H3367 0.960 . S
C3380 C3379 1.524 . S
C3381 C3378 1.403 1_554 S
C3381 C3382 1.392 . S
C3381 C3385 1.495 . S
C3382 C3381 1.392 . S
C3382 C3383 1.385 . S
C3382 C3384 1.478 . S
C3383 H3377 0.930 . S
C3383 C3379 1.400 1_554 S
C3383 C3382 1.385 . S
C3384 C3382 1.478 . S
C3384 C3386 1.381 . S
C3384 C3390 1.383 . S
C3385 C3381 1.495 . S
C3385 H3391 0.959 . S
C3385 H3392 0.961 . S
C3385 H3393 0.960 . S
C3386 C3384 1.381 . S
C3386 C3387 1.394 . S
C3386 H3394 0.930 . S
C3387 C3386 1.394 . S
C3387 C3388 1.383 . S
C3387 H3395 0.929 . S
C3388 C3387 1.383 . S
C3388 C3389 1.377 . S
C3389 H3373 0.930 . S
C3389 C3388 1.377 . S
C3389 C3390 1.379 . S
C3390 H3374 0.931 . S
C3390 C3384 1.383 . S
C3390 C3389 1.379 . S
H3391 C3385 0.959 . S
H3392 C3385 0.961 . S
H3393 C3385 0.960 . S
H3394 C3386 0.930 . S
H3395 C3387 0.929 . S
H3396 C3404 0.929 . S
H3397 C3406 0.930 . S
H3398 C3408 0.930 . S
H3399 C3411 0.929 . S
H3400 C3414 0.930 . S
H3401 C3416 0.960 . S
H3402 C3416 0.960 . S
H3403 C3416 0.960 . S
C3404 H3396 0.929 . S
C3404 C3405 1.377 . S
C3404 C3406 1.384 . S
C3405 C3404 1.377 . S
C3405 C3411 1.390 . S
C3406 H3397 0.930 . S
C3406 C3404 1.384 . S
C3406 C3407 1.372 . S
C3407 C3406 1.372 . S
C3407 C3408 1.400 . S
C3407 C3412 1.490 . S
C3408 H3398 0.930 . S
C3408 C3407 1.400 . S
C3408 C3411 1.386 . S
H3409 C3425 0.930 . S
H3410 C3426 0.931 . S
C3411 H3399 0.929 . S
C3411 C3405 1.390 . S
C3411 C3408 1.386 . S
C3412 C3407 1.490 . S
C3412 C3414 1.395 . S
C3412 C3415 1.403 . S
H3413 C3419 0.930 . S
C3414 H3400 0.930 . S
C3414 C3412 1.395 . S
C3414 C3417 1.403 1_554 S
C3415 C3412 1.403 . S
C3415 C3416 1.524 . S
C3415 C3419 1.400 1_554 S
C3416 H3401 0.960 . S
C3416 H3402 0.960 . S
C3416 H3403 0.960 . S
C3416 C3415 1.524 . S
C3417 C3414 1.403 1_556 S
C3417 C3418 1.392 . S
C3417 C3421 1.495 . S
C3418 C3417 1.392 . S
C3418 C3419 1.385 . S
C3418 C3420 1.478 . S
C3419 H3413 0.930 . S
C3419 C3415 1.400 1_556 S
C3419 C3418 1.385 . S
C3420 C3418 1.478 . S
C3420 C3422 1.381 . S
C3420 C3426 1.383 . S
C3421 C3417 1.495 . S
C3421 H3427 0.959 . S
C3421 H3428 0.961 . S
C3421 H3429 0.960 . S
C3422 C3420 1.381 . S
C3422 C3423 1.394 . S
C3422 H3430 0.930 . S
C3423 C3422 1.394 . S
C3423 C3424 1.383 . S
C3423 H3431 0.929 . S
C3424 C3423 1.383 . S
C3424 C3425 1.377 . S
C3425 H3409 0.930 . S
C3425 C3424 1.377 . S
C3425 C3426 1.379 . S
C3426 H3410 0.931 . S
C3426 C3420 1.383 . S
C3426 C3425 1.379 . S
H3427 C3421 0.959 . S
H3428 C3421 0.961 . S
H3429 C3421 0.960 . S
H3430 C3422 0.930 . S
H3431 C3423 0.929 . S
H3432 C3440 0.929 . S
H3433 C3442 0.930 . S
H3434 C3444 0.930 . S
H3435 C3447 0.929 . S
H3436 C3450 0.930 . S
H3437 C3452 0.960 . S
H3438 C3452 0.960 . S
H3439 C3452 0.960 . S
C3440 H3432 0.929 . S
C3440 C3441 1.377 . S
C3440 C3442 1.384 . S
C3441 C3440 1.377 . S
C3441 C3447 1.390 . S
C3442 H3433 0.930 . S
C3442 C3440 1.384 . S
C3442 C3443 1.372 . S
C3443 C3442 1.372 . S
C3443 C3444 1.400 . S
C3443 C3448 1.490 . S
C3444 H3434 0.930 . S
C3444 C3443 1.400 . S
C3444 C3447 1.386 . S
H3445 C3461 0.930 . S
H3446 C3462 0.931 . S
C3447 H3435 0.929 . S
C3447 C3441 1.390 . S
C3447 C3444 1.386 . S
C3448 C3443 1.490 . S
C3448 C3450 1.395 . S
C3448 C3451 1.403 . S
H3449 C3455 0.930 . S
C3450 H3436 0.930 . S
C3450 C3448 1.395 . S
C3450 C3453 1.403 1_556 S
C3451 C3448 1.403 . S
C3451 C3452 1.524 . S
C3451 C3455 1.400 1_556 S
C3452 H3437 0.960 . S
C3452 H3438 0.960 . S
C3452 H3439 0.960 . S
C3452 C3451 1.524 . S
C3453 C3450 1.403 1_554 S
C3453 C3454 1.392 . S
C3453 C3457 1.495 . S
C3454 C3453 1.392 . S
C3454 C3455 1.385 . S
C3454 C3456 1.478 . S
C3455 H3449 0.930 . S
C3455 C3451 1.400 1_554 S
C3455 C3454 1.385 . S
C3456 C3454 1.478 . S
C3456 C3458 1.381 . S
C3456 C3462 1.383 . S
C3457 C3453 1.495 . S
C3457 H3463 0.959 . S
C3457 H3464 0.961 . S
C3457 H3465 0.960 . S
C3458 C3456 1.381 . S
C3458 C3459 1.394 . S
C3458 H3466 0.930 . S
C3459 C3458 1.394 . S
C3459 C3460 1.383 . S
C3459 H3467 0.929 . S
C3460 C3459 1.383 . S
C3460 C3461 1.377 . S
C3461 H3445 0.930 . S
C3461 C3460 1.377 . S
C3461 C3462 1.379 . S
C3462 H3446 0.931 . S
C3462 C3456 1.383 . S
C3462 C3461 1.379 . S
H3463 C3457 0.959 . S
H3464 C3457 0.961 . S
H3465 C3457 0.960 . S
H3466 C3458 0.930 . S
H3467 C3459 0.929 . S
H3468 C3476 0.929 . S
H3469 C3478 0.930 . S
H3470 C3480 0.930 . S
H3471 C3483 0.929 . S
H3472 C3486 0.930 . S
H3473 C3488 0.960 . S
H3474 C3488 0.960 . S
H3475 C3488 0.960 . S
C3476 H3468 0.929 . S
C3476 C3477 1.377 . S
C3476 C3478 1.384 . S
C3477 C3476 1.377 . S
C3477 C3483 1.390 . S
C3478 H3469 0.930 . S
C3478 C3476 1.384 . S
C3478 C3479 1.372 . S
C3479 C3478 1.372 . S
C3479 C3480 1.400 . S
C3479 C3484 1.490 . S
C3480 H3470 0.930 . S
C3480 C3479 1.400 . S
C3480 C3483 1.386 . S
H3481 C3497 0.930 . S
H3482 C3498 0.931 . S
C3483 H3471 0.929 . S
C3483 C3477 1.390 . S
C3483 C3480 1.386 . S
C3484 C3479 1.490 . S
C3484 C3486 1.395 . S
C3484 C3487 1.403 . S
H3485 C3491 0.930 . S
C3486 H3472 0.930 . S
C3486 C3484 1.395 . S
C3486 C3489 1.403 1_554 S
C3487 C3484 1.403 . S
C3487 C3488 1.524 . S
C3487 C3491 1.400 1_554 S
C3488 H3473 0.960 . S
C3488 H3474 0.960 . S
C3488 H3475 0.960 . S
C3488 C3487 1.524 . S
C3489 C3486 1.403 1_556 S
C3489 C3490 1.392 . S
C3489 C3493 1.495 . S
C3490 C3489 1.392 . S
C3490 C3491 1.385 . S
C3490 C3492 1.478 . S
C3491 H3485 0.930 . S
C3491 C3487 1.400 1_556 S
C3491 C3490 1.385 . S
C3492 C3490 1.478 . S
C3492 C3494 1.381 . S
C3492 C3498 1.383 . S
C3493 C3489 1.495 . S
C3493 H3499 0.959 . S
C3493 H3500 0.961 . S
C3493 H3501 0.960 . S
C3494 C3492 1.381 . S
C3494 C3495 1.394 . S
C3494 H3502 0.930 . S
C3495 C3494 1.394 . S
C3495 C3496 1.383 . S
C3495 H3503 0.929 . S
C3496 C3495 1.383 . S
C3496 C3497 1.377 . S
C3497 H3481 0.930 . S
C3497 C3496 1.377 . S
C3497 C3498 1.379 . S
C3498 H3482 0.931 . S
C3498 C3492 1.383 . S
C3498 C3497 1.379 . S
H3499 C3493 0.959 . S
H3500 C3493 0.961 . S
H3501 C3493 0.960 . S
H3502 C3494 0.930 . S
H3503 C3495 0.929 . S
H3504 C3512 0.929 . S
H3505 C3514 0.930 . S
H3506 C3516 0.930 . S
H3507 C3519 0.929 . S
H3508 C3522 0.930 . S
H3509 C3524 0.960 . S
H3510 C3524 0.960 . S
H3511 C3524 0.960 . S
C3512 H3504 0.929 . S
C3512 C3513 1.377 . S
C3512 C3514 1.384 . S
C3513 C3512 1.377 . S
C3513 C3519 1.390 . S
C3514 H3505 0.930 . S
C3514 C3512 1.384 . S
C3514 C3515 1.372 . S
C3515 C3514 1.372 . S
C3515 C3516 1.400 . S
C3515 C3520 1.490 . S
C3516 H3506 0.930 . S
C3516 C3515 1.400 . S
C3516 C3519 1.386 . S
H3517 C3533 0.930 . S
H3518 C3534 0.931 . S
C3519 H3507 0.929 . S
C3519 C3513 1.390 . S
C3519 C3516 1.386 . S
C3520 C3515 1.490 . S
C3520 C3522 1.395 . S
C3520 C3523 1.403 . S
H3521 C3527 0.930 . S
C3522 H3508 0.930 . S
C3522 C3520 1.395 . S
C3522 C3525 1.403 1_455 S
C3523 C3520 1.403 . S
C3523 C3524 1.524 . S
C3523 C3527 1.400 1_455 S
C3524 H3509 0.960 . S
C3524 H3510 0.960 . S
C3524 H3511 0.960 . S
C3524 C3523 1.524 . S
C3525 C3522 1.403 1_655 S
C3525 C3526 1.392 . S
C3525 C3529 1.495 . S
C3526 C3525 1.392 . S
C3526 C3527 1.385 . S
C3526 C3528 1.478 . S
C3527 H3521 0.930 . S
C3527 C3523 1.400 1_655 S
C3527 C3526 1.385 . S
C3528 C3526 1.478 . S
C3528 C3530 1.381 . S
C3528 C3534 1.383 . S
C3529 C3525 1.495 . S
C3529 H3535 0.959 . S
C3529 H3536 0.961 . S
C3529 H3537 0.960 . S
C3530 C3528 1.381 . S
C3530 C3531 1.394 . S
C3530 H3538 0.930 . S
C3531 C3530 1.394 . S
C3531 C3532 1.383 . S
C3531 H3539 0.929 . S
C3532 C3531 1.383 . S
C3532 C3533 1.377 . S
C3533 H3517 0.930 . S
C3533 C3532 1.377 . S
C3533 C3534 1.379 . S
C3534 H3518 0.931 . S
C3534 C3528 1.383 . S
C3534 C3533 1.379 . S
H3535 C3529 0.959 . S
H3536 C3529 0.961 . S
H3537 C3529 0.960 . S
H3538 C3530 0.930 . S
H3539 C3531 0.929 . S
H3540 C3548 0.929 . S
H3541 C3550 0.930 . S
H3542 C3552 0.930 . S
H3543 C3555 0.929 . S
H3544 C3558 0.930 . S
H3545 C3560 0.960 . S
H3546 C3560 0.960 . S
H3547 C3560 0.960 . S
C3548 H3540 0.929 . S
C3548 C3549 1.377 . S
C3548 C3550 1.384 . S
C3549 C3548 1.377 . S
C3549 C3555 1.390 . S
C3550 H3541 0.930 . S
C3550 C3548 1.384 . S
C3550 C3551 1.372 . S
C3551 C3550 1.372 . S
C3551 C3552 1.400 . S
C3551 C3556 1.490 . S
C3552 H3542 0.930 . S
C3552 C3551 1.400 . S
C3552 C3555 1.386 . S
H3553 C3569 0.930 . S
H3554 C3570 0.931 . S
C3555 H3543 0.929 . S
C3555 C3549 1.390 . S
C3555 C3552 1.386 . S
C3556 C3551 1.490 . S
C3556 C3558 1.395 . S
C3556 C3559 1.403 . S
H3557 C3563 0.930 . S
C3558 H3544 0.930 . S
C3558 C3556 1.395 . S
C3558 C3561 1.403 1_565 S
C3559 C3556 1.403 . S
C3559 C3560 1.524 . S
C3559 C3563 1.400 1_565 S
C3560 H3545 0.960 . S
C3560 H3546 0.960 . S
C3560 H3547 0.960 . S
C3560 C3559 1.524 . S
C3561 C3558 1.403 1_545 S
C3561 C3562 1.392 . S
C3561 C3565 1.495 . S
C3562 C3561 1.392 . S
C3562 C3563 1.385 . S
C3562 C3564 1.478 . S
C3563 H3557 0.930 . S
C3563 C3559 1.400 1_545 S
C3563 C3562 1.385 . S
C3564 C3562 1.478 . S
C3564 C3566 1.381 . S
C3564 C3570 1.383 . S
C3565 C3561 1.495 . S
C3565 H3571 0.959 . S
C3565 H3572 0.961 . S
C3565 H3573 0.960 . S
C3566 C3564 1.381 . S
C3566 C3567 1.394 . S
C3566 H3574 0.930 . S
C3567 C3566 1.394 . S
C3567 C3568 1.383 . S
C3567 H3575 0.929 . S
C3568 C3567 1.383 . S
C3568 C3569 1.377 . S
C3569 H3553 0.930 . S
C3569 C3568 1.377 . S
C3569 C3570 1.379 . S
C3570 H3554 0.931 . S
C3570 C3564 1.383 . S
C3570 C3569 1.379 . S
H3571 C3565 0.959 . S
H3572 C3565 0.961 . S
H3573 C3565 0.960 . S
H3574 C3566 0.930 . S
H3575 C3567 0.929 . S
H3576 C3584 0.929 . S
H3577 C3586 0.930 . S
H3578 C3588 0.930 . S
H3579 C3591 0.929 . S
H3580 C3594 0.930 . S
H3581 C3596 0.960 . S
H3582 C3596 0.960 . S
H3583 C3596 0.960 . S
C3584 H3576 0.929 . S
C3584 C3585 1.377 . S
C3584 C3586 1.384 . S
C3585 C3584 1.377 . S
C3585 C3591 1.390 . S
C3586 H3577 0.930 . S
C3586 C3584 1.384 . S
C3586 C3587 1.372 . S
C3587 C3586 1.372 . S
C3587 C3588 1.400 . S
C3587 C3592 1.490 . S
C3588 H3578 0.930 . S
C3588 C3587 1.400 . S
C3588 C3591 1.386 . S
H3589 C3605 0.930 . S
H3590 C3606 0.931 . S
C3591 H3579 0.929 . S
C3591 C3585 1.390 . S
C3591 C3588 1.386 . S
C3592 C3587 1.490 . S
C3592 C3594 1.395 . S
C3592 C3595 1.403 . S
H3593 C3599 0.930 . S
C3594 H3580 0.930 . S
C3594 C3592 1.395 . S
C3594 C3597 1.403 1_455 S
C3595 C3592 1.403 . S
C3595 C3596 1.524 . S
C3595 C3599 1.400 1_455 S
C3596 H3581 0.960 . S
C3596 H3582 0.960 . S
C3596 H3583 0.960 . S
C3596 C3595 1.524 . S
C3597 C3594 1.403 1_655 S
C3597 C3598 1.392 . S
C3597 C3601 1.495 . S
C3598 C3597 1.392 . S
C3598 C3599 1.385 . S
C3598 C3600 1.478 . S
C3599 H3593 0.930 . S
C3599 C3595 1.400 1_655 S
C3599 C3598 1.385 . S
C3600 C3598 1.478 . S
C3600 C3602 1.381 . S
C3600 C3606 1.383 . S
C3601 C3597 1.495 . S
C3601 H3607 0.959 . S
C3601 H3608 0.961 . S
C3601 H3609 0.960 . S
C3602 C3600 1.381 . S
C3602 C3603 1.394 . S
C3602 H3610 0.930 . S
C3603 C3602 1.394 . S
C3603 C3604 1.383 . S
C3603 H3611 0.929 . S
C3604 C3603 1.383 . S
C3604 C3605 1.377 . S
C3605 H3589 0.930 . S
C3605 C3604 1.377 . S
C3605 C3606 1.379 . S
C3606 H3590 0.931 . S
C3606 C3600 1.383 . S
C3606 C3605 1.379 . S
H3607 C3601 0.959 . S
H3608 C3601 0.961 . S
H3609 C3601 0.960 . S
H3610 C3602 0.930 . S
H3611 C3603 0.929 . S
H3612 C3620 0.929 . S
H3613 C3622 0.930 . S
H3614 C3624 0.930 . S
H3615 C3627 0.929 . S
H3616 C3630 0.930 . S
H3617 C3632 0.960 . S
H3618 C3632 0.960 . S
H3619 C3632 0.960 . S
C3620 H3612 0.929 . S
C3620 C3621 1.377 . S
C3620 C3622 1.384 . S
C3621 C3620 1.377 . S
C3621 C3627 1.390 . S
C3622 H3613 0.930 . S
C3622 C3620 1.384 . S
C3622 C3623 1.372 . S
C3623 C3622 1.372 . S
C3623 C3624 1.400 . S
C3623 C3628 1.490 . S
C3624 H3614 0.930 . S
C3624 C3623 1.400 . S
C3624 C3627 1.386 . S
H3625 C3641 0.930 . S
H3626 C3642 0.931 . S
C3627 H3615 0.929 . S
C3627 C3621 1.390 . S
C3627 C3624 1.386 . S
C3628 C3623 1.490 . S
C3628 C3630 1.395 . S
C3628 C3631 1.403 . S
H3629 C3635 0.930 . S
C3630 H3616 0.930 . S
C3630 C3628 1.395 . S
C3630 C3633 1.403 1_565 S
C3631 C3628 1.403 . S
C3631 C3632 1.524 . S
C3631 C3635 1.400 1_565 S
C3632 H3617 0.960 . S
C3632 H3618 0.960 . S
C3632 H3619 0.960 . S
C3632 C3631 1.524 . S
C3633 C3630 1.403 1_545 S
C3633 C3634 1.392 . S
C3633 C3637 1.495 . S
C3634 C3633 1.392 . S
C3634 C3635 1.385 . S
C3634 C3636 1.478 . S
C3635 H3629 0.930 . S
C3635 C3631 1.400 1_545 S
C3635 C3634 1.385 . S
C3636 C3634 1.478 . S
C3636 C3638 1.381 . S
C3636 C3642 1.383 . S
C3637 C3633 1.495 . S
C3637 H3643 0.959 . S
C3637 H3644 0.961 . S
C3637 H3645 0.960 . S
C3638 C3636 1.381 . S
C3638 C3639 1.394 . S
C3638 H3646 0.930 . S
C3639 C3638 1.394 . S
C3639 C3640 1.383 . S
C3639 H3647 0.929 . S
C3640 C3639 1.383 . S
C3640 C3641 1.377 . S
C3641 H3625 0.930 . S
C3641 C3640 1.377 . S
C3641 C3642 1.379 . S
C3642 H3626 0.931 . S
C3642 C3636 1.383 . S
C3642 C3641 1.379 . S
H3643 C3637 0.959 . S
H3644 C3637 0.961 . S
H3645 C3637 0.960 . S
H3646 C3638 0.930 . S
H3647 C3639 0.929 . S
H3648 C3656 0.929 . S
H3649 C3658 0.930 . S
H3650 C3660 0.930 . S
H3651 C3663 0.929 . S
H3652 C3666 0.930 . S
H3653 C3668 0.960 . S
H3654 C3668 0.960 . S
H3655 C3668 0.960 . S
C3656 H3648 0.929 . S
C3656 C3657 1.377 . S
C3656 C3658 1.384 . S
C3657 C3656 1.377 . S
C3657 C3663 1.390 . S
C3658 H3649 0.930 . S
C3658 C3656 1.384 . S
C3658 C3659 1.372 . S
C3659 C3658 1.372 . S
C3659 C3660 1.400 . S
C3659 C3664 1.490 . S
C3660 H3650 0.930 . S
C3660 C3659 1.400 . S
C3660 C3663 1.386 . S
H3661 C3677 0.930 . S
H3662 C3678 0.931 . S
C3663 H3651 0.929 . S
C3663 C3657 1.390 . S
C3663 C3660 1.386 . S
C3664 C3659 1.490 . S
C3664 C3666 1.395 . S
C3664 C3667 1.403 . S
H3665 C3671 0.930 . S
C3666 H3652 0.930 . S
C3666 C3664 1.395 . S
C3666 C3669 1.403 1_655 S
C3667 C3664 1.403 . S
C3667 C3668 1.524 . S
C3667 C3671 1.400 1_655 S
C3668 H3653 0.960 . S
C3668 H3654 0.960 . S
C3668 H3655 0.960 . S
C3668 C3667 1.524 . S
C3669 C3666 1.403 1_455 S
C3669 C3670 1.392 . S
C3669 C3673 1.495 . S
C3670 C3669 1.392 . S
C3670 C3671 1.385 . S
C3670 C3672 1.478 . S
C3671 H3665 0.930 . S
C3671 C3667 1.400 1_455 S
C3671 C3670 1.385 . S
C3672 C3670 1.478 . S
C3672 C3674 1.381 . S
C3672 C3678 1.383 . S
C3673 C3669 1.495 . S
C3673 H3679 0.959 . S
C3673 H3680 0.961 . S
C3673 H3681 0.960 . S
C3674 C3672 1.381 . S
C3674 C3675 1.394 . S
C3674 H3682 0.930 . S
C3675 C3674 1.394 . S
C3675 C3676 1.383 . S
C3675 H3683 0.929 . S
C3676 C3675 1.383 . S
C3676 C3677 1.377 . S
C3677 H3661 0.930 . S
C3677 C3676 1.377 . S
C3677 C3678 1.379 . S
C3678 H3662 0.931 . S
C3678 C3672 1.383 . S
C3678 C3677 1.379 . S
H3679 C3673 0.959 . S
H3680 C3673 0.961 . S
H3681 C3673 0.960 . S
H3682 C3674 0.930 . S
H3683 C3675 0.929 . S
H3684 C3692 0.929 . S
H3685 C3694 0.930 . S
H3686 C3696 0.930 . S
H3687 C3699 0.929 . S
H3688 C3702 0.930 . S
H3689 C3704 0.960 . S
H3690 C3704 0.960 . S
H3691 C3704 0.960 . S
C3692 H3684 0.929 . S
C3692 C3693 1.377 . S
C3692 C3694 1.384 . S
C3693 C3692 1.377 . S
C3693 C3699 1.390 . S
C3694 H3685 0.930 . S
C3694 C3692 1.384 . S
C3694 C3695 1.372 . S
C3695 C3694 1.372 . S
C3695 C3696 1.400 . S
C3695 C3700 1.490 . S
C3696 H3686 0.930 . S
C3696 C3695 1.400 . S
C3696 C3699 1.386 . S
H3697 C3713 0.930 . S
H3698 C3714 0.931 . S
C3699 H3687 0.929 . S
C3699 C3693 1.390 . S
C3699 C3696 1.386 . S
C3700 C3695 1.490 . S
C3700 C3702 1.395 . S
C3700 C3703 1.403 . S
H3701 C3707 0.930 . S
C3702 H3688 0.930 . S
C3702 C3700 1.395 . S
C3702 C3705 1.403 1_545 S
C3703 C3700 1.403 . S
C3703 C3704 1.524 . S
C3703 C3707 1.400 1_545 S
C3704 H3689 0.960 . S
C3704 H3690 0.960 . S
C3704 H3691 0.960 . S
C3704 C3703 1.524 . S
C3705 C3702 1.403 1_565 S
C3705 C3706 1.392 . S
C3705 C3709 1.495 . S
C3706 C3705 1.392 . S
C3706 C3707 1.385 . S
C3706 C3708 1.478 . S
C3707 H3701 0.930 . S
C3707 C3703 1.400 1_565 S
C3707 C3706 1.385 . S
C3708 C3706 1.478 . S
C3708 C3710 1.381 . S
C3708 C3714 1.383 . S
C3709 C3705 1.495 . S
C3709 H3715 0.959 . S
C3709 H3716 0.961 . S
C3709 H3717 0.960 . S
C3710 C3708 1.381 . S
C3710 C3711 1.394 . S
C3710 H3718 0.930 . S
C3711 C3710 1.394 . S
C3711 C3712 1.383 . S
C3711 H3719 0.929 . S
C3712 C3711 1.383 . S
C3712 C3713 1.377 . S
C3713 H3697 0.930 . S
C3713 C3712 1.377 . S
C3713 C3714 1.379 . S
C3714 H3698 0.931 . S
C3714 C3708 1.383 . S
C3714 C3713 1.379 . S
H3715 C3709 0.959 . S
H3716 C3709 0.961 . S
H3717 C3709 0.960 . S
H3718 C3710 0.930 . S
H3719 C3711 0.929 . S
H3720 C3728 0.929 . S
H3721 C3730 0.930 . S
H3722 C3732 0.930 . S
H3723 C3735 0.929 . S
H3724 C3738 0.930 . S
H3725 C3740 0.960 . S
H3726 C3740 0.960 . S
H3727 C3740 0.960 . S
C3728 H3720 0.929 . S
C3728 C3729 1.377 . S
C3728 C3730 1.384 . S
C3729 C3728 1.377 . S
C3729 C3735 1.390 . S
C3730 H3721 0.930 . S
C3730 C3728 1.384 . S
C3730 C3731 1.372 . S
C3731 C3730 1.372 . S
C3731 C3732 1.400 . S
C3731 C3736 1.490 . S
C3732 H3722 0.930 . S
C3732 C3731 1.400 . S
C3732 C3735 1.386 . S
H3733 C3749 0.930 . S
H3734 C3750 0.931 . S
C3735 H3723 0.929 . S
C3735 C3729 1.390 . S
C3735 C3732 1.386 . S
C3736 C3731 1.490 . S
C3736 C3738 1.395 . S
C3736 C3739 1.403 . S
H3737 C3743 0.930 . S
C3738 H3724 0.930 . S
C3738 C3736 1.395 . S
C3738 C3741 1.403 1_455 S
C3739 C3736 1.403 . S
C3739 C3740 1.524 . S
C3739 C3743 1.400 1_455 S
C3740 H3725 0.960 . S
C3740 H3726 0.960 . S
C3740 H3727 0.960 . S
C3740 C3739 1.524 . S
C3741 C3738 1.403 1_655 S
C3741 C3742 1.392 . S
C3741 C3745 1.495 . S
C3742 C3741 1.392 . S
C3742 C3743 1.385 . S
C3742 C3744 1.478 . S
C3743 H3737 0.930 . S
C3743 C3739 1.400 1_655 S
C3743 C3742 1.385 . S
C3744 C3742 1.478 . S
C3744 C3746 1.381 . S
C3744 C3750 1.383 . S
C3745 C3741 1.495 . S
C3745 H3751 0.959 . S
C3745 H3752 0.961 . S
C3745 H3753 0.960 . S
C3746 C3744 1.381 . S
C3746 C3747 1.394 . S
C3746 H3754 0.930 . S
C3747 C3746 1.394 . S
C3747 C3748 1.383 . S
C3747 H3755 0.929 . S
C3748 C3747 1.383 . S
C3748 C3749 1.377 . S
C3749 H3733 0.930 . S
C3749 C3748 1.377 . S
C3749 C3750 1.379 . S
C3750 H3734 0.931 . S
C3750 C3744 1.383 . S
C3750 C3749 1.379 . S
H3751 C3745 0.959 . S
H3752 C3745 0.961 . S
H3753 C3745 0.960 . S
H3754 C3746 0.930 . S
H3755 C3747 0.929 . S
H3756 C3764 0.929 . S
H3757 C3766 0.930 . S
H3758 C3768 0.930 . S
H3759 C3771 0.929 . S
H3760 C3774 0.930 . S
H3761 C3776 0.960 . S
H3762 C3776 0.960 . S
H3763 C3776 0.960 . S
C3764 H3756 0.929 . S
C3764 C3765 1.377 . S
C3764 C3766 1.384 . S
C3765 C3764 1.377 . S
C3765 C3771 1.390 . S
C3766 H3757 0.930 . S
C3766 C3764 1.384 . S
C3766 C3767 1.372 . S
C3767 C3766 1.372 . S
C3767 C3768 1.400 . S
C3767 C3772 1.490 . S
C3768 H3758 0.930 . S
C3768 C3767 1.400 . S
C3768 C3771 1.386 . S
H3769 C3785 0.930 . S
H3770 C3786 0.931 . S
C3771 H3759 0.929 . S
C3771 C3765 1.390 . S
C3771 C3768 1.386 . S
C3772 C3767 1.490 . S
C3772 C3774 1.395 . S
C3772 C3775 1.403 . S
H3773 C3779 0.930 . S
C3774 H3760 0.930 . S
C3774 C3772 1.395 . S
C3774 C3777 1.403 1_545 S
C3775 C3772 1.403 . S
C3775 C3776 1.524 . S
C3775 C3779 1.400 1_545 S
C3776 H3761 0.960 . S
C3776 H3762 0.960 . S
C3776 H3763 0.960 . S
C3776 C3775 1.524 . S
C3777 C3774 1.403 1_565 S
C3777 C3778 1.392 . S
C3777 C3781 1.495 . S
C3778 C3777 1.392 . S
C3778 C3779 1.385 . S
C3778 C3780 1.478 . S
C3779 H3773 0.930 . S
C3779 C3775 1.400 1_565 S
C3779 C3778 1.385 . S
C3780 C3778 1.478 . S
C3780 C3782 1.381 . S
C3780 C3786 1.383 . S
C3781 C3777 1.495 . S
C3781 H3787 0.959 . S
C3781 H3788 0.961 . S
C3781 H3789 0.960 . S
C3782 C3780 1.381 . S
C3782 C3783 1.394 . S
C3782 H3790 0.930 . S
C3783 C3782 1.394 . S
C3783 C3784 1.383 . S
C3783 H3791 0.929 . S
C3784 C3783 1.383 . S
C3784 C3785 1.377 . S
C3785 H3769 0.930 . S
C3785 C3784 1.377 . S
C3785 C3786 1.379 . S
C3786 H3770 0.931 . S
C3786 C3780 1.383 . S
C3786 C3785 1.379 . S
H3787 C3781 0.959 . S
H3788 C3781 0.961 . S
H3789 C3781 0.960 . S
H3790 C3782 0.930 . S
H3791 C3783 0.929 . S
H3792 C3800 0.929 . S
H3793 C3802 0.930 . S
H3794 C3804 0.930 . S
H3795 C3807 0.929 . S
H3796 C3810 0.930 . S
H3797 C3812 0.960 . S
H3798 C3812 0.960 . S
H3799 C3812 0.960 . S
C3800 H3792 0.929 . S
C3800 C3801 1.377 . S
C3800 C3802 1.384 . S
C3801 C3800 1.377 . S
C3801 C3807 1.390 . S
C3802 H3793 0.930 . S
C3802 C3800 1.384 . S
C3802 C3803 1.372 . S
C3803 C3802 1.372 . S
C3803 C3804 1.400 . S
C3803 C3808 1.490 . S
C3804 H3794 0.930 . S
C3804 C3803 1.400 . S
C3804 C3807 1.386 . S
H3805 C3821 0.930 . S
H3806 C3822 0.931 . S
C3807 H3795 0.929 . S
C3807 C3801 1.390 . S
C3807 C3804 1.386 . S
C3808 C3803 1.490 . S
C3808 C3810 1.395 . S
C3808 C3811 1.403 . S
H3809 C3815 0.930 . S
C3810 H3796 0.930 . S
C3810 C3808 1.395 . S
C3810 C3813 1.403 1_545 S
C3811 C3808 1.403 . S
C3811 C3812 1.524 . S
C3811 C3815 1.400 1_545 S
C3812 H3797 0.960 . S
C3812 H3798 0.960 . S
C3812 H3799 0.960 . S
C3812 C3811 1.524 . S
C3813 C3810 1.403 1_565 S
C3813 C3814 1.392 . S
C3813 C3817 1.495 . S
C3814 C3813 1.392 . S
C3814 C3815 1.385 . S
C3814 C3816 1.478 . S
C3815 H3809 0.930 . S
C3815 C3811 1.400 1_565 S
C3815 C3814 1.385 . S
C3816 C3814 1.478 . S
C3816 C3818 1.381 . S
C3816 C3822 1.383 . S
C3817 C3813 1.495 . S
C3817 H3823 0.959 . S
C3817 H3824 0.961 . S
C3817 H3825 0.960 . S
C3818 C3816 1.381 . S
C3818 C3819 1.394 . S
C3818 H3826 0.930 . S
C3819 C3818 1.394 . S
C3819 C3820 1.383 . S
C3819 H3827 0.929 . S
C3820 C3819 1.383 . S
C3820 C3821 1.377 . S
C3821 H3805 0.930 . S
C3821 C3820 1.377 . S
C3821 C3822 1.379 . S
C3822 H3806 0.931 . S
C3822 C3816 1.383 . S
C3822 C3821 1.379 . S
H3823 C3817 0.959 . S
H3824 C3817 0.961 . S
H3825 C3817 0.960 . S
H3826 C3818 0.930 . S
H3827 C3819 0.929 . S
H3828 C3836 0.929 . S
H3829 C3838 0.930 . S
H3830 C3840 0.930 . S
H3831 C3843 0.929 . S
H3832 C3846 0.930 . S
H3833 C3848 0.960 . S
H3834 C3848 0.960 . S
H3835 C3848 0.960 . S
C3836 H3828 0.929 . S
C3836 C3837 1.377 . S
C3836 C3838 1.384 . S
C3837 C3836 1.377 . S
C3837 C3843 1.390 . S
C3838 H3829 0.930 . S
C3838 C3836 1.384 . S
C3838 C3839 1.372 . S
C3839 C3838 1.372 . S
C3839 C3840 1.400 . S
C3839 C3844 1.490 . S
C3840 H3830 0.930 . S
C3840 C3839 1.400 . S
C3840 C3843 1.386 . S
H3841 C3857 0.930 . S
H3842 C3858 0.931 . S
C3843 H3831 0.929 . S
C3843 C3837 1.390 . S
C3843 C3840 1.386 . S
C3844 C3839 1.490 . S
C3844 C3846 1.395 . S
C3844 C3847 1.403 . S
H3845 C3851 0.930 . S
C3846 H3832 0.930 . S
C3846 C3844 1.395 . S
C3846 C3849 1.403 1_545 S
C3847 C3844 1.403 . S
C3847 C3848 1.524 . S
C3847 C3851 1.400 1_545 S
C3848 H3833 0.960 . S
C3848 H3834 0.960 . S
C3848 H3835 0.960 . S
C3848 C3847 1.524 . S
C3849 C3846 1.403 1_565 S
C3849 C3850 1.392 . S
C3849 C3853 1.495 . S
C3850 C3849 1.392 . S
C3850 C3851 1.385 . S
C3850 C3852 1.478 . S
C3851 H3845 0.930 . S
C3851 C3847 1.400 1_565 S
C3851 C3850 1.385 . S
C3852 C3850 1.478 . S
C3852 C3854 1.381 . S
C3852 C3858 1.383 . S
C3853 C3849 1.495 . S
C3853 H3859 0.959 . S
C3853 H3860 0.961 . S
C3853 H3861 0.960 . S
C3854 C3852 1.381 . S
C3854 C3855 1.394 . S
C3854 H3862 0.930 . S
C3855 C3854 1.394 . S
C3855 C3856 1.383 . S
C3855 H3863 0.929 . S
C3856 C3855 1.383 . S
C3856 C3857 1.377 . S
C3857 H3841 0.930 . S
C3857 C3856 1.377 . S
C3857 C3858 1.379 . S
C3858 H3842 0.931 . S
C3858 C3852 1.383 . S
C3858 C3857 1.379 . S
H3859 C3853 0.959 . S
H3860 C3853 0.961 . S
H3861 C3853 0.960 . S
H3862 C3854 0.930 . S
H3863 C3855 0.929 . S
H3864 C3872 0.929 . S
H3865 C3874 0.930 . S
H3866 C3876 0.930 . S
H3867 C3879 0.929 . S
H3868 C3882 0.930 . S
H3869 C3884 0.960 . S
H3870 C3884 0.960 . S
H3871 C3884 0.960 . S
C3872 H3864 0.929 . S
C3872 C3873 1.377 . S
C3872 C3874 1.384 . S
C3873 C3872 1.377 . S
C3873 C3879 1.390 . S
C3874 H3865 0.930 . S
C3874 C3872 1.384 . S
C3874 C3875 1.372 . S
C3875 C3874 1.372 . S
C3875 C3876 1.400 . S
C3875 C3880 1.490 . S
C3876 H3866 0.930 . S
C3876 C3875 1.400 . S
C3876 C3879 1.386 . S
H3877 C3893 0.930 . S
H3878 C3894 0.931 . S
C3879 H3867 0.929 . S
C3879 C3873 1.390 . S
C3879 C3876 1.386 . S
C3880 C3875 1.490 . S
C3880 C3882 1.395 . S
C3880 C3883 1.403 . S
H3881 C3887 0.930 . S
C3882 H3868 0.930 . S
C3882 C3880 1.395 . S
C3882 C3885 1.403 1_655 S
C3883 C3880 1.403 . S
C3883 C3884 1.524 . S
C3883 C3887 1.400 1_655 S
C3884 H3869 0.960 . S
C3884 H3870 0.960 . S
C3884 H3871 0.960 . S
C3884 C3883 1.524 . S
C3885 C3882 1.403 1_455 S
C3885 C3886 1.392 . S
C3885 C3889 1.495 . S
C3886 C3885 1.392 . S
C3886 C3887 1.385 . S
C3886 C3888 1.478 . S
C3887 H3881 0.930 . S
C3887 C3883 1.400 1_455 S
C3887 C3886 1.385 . S
C3888 C3886 1.478 . S
C3888 C3890 1.381 . S
C3888 C3894 1.383 . S
C3889 C3885 1.495 . S
C3889 H3895 0.959 . S
C3889 H3896 0.961 . S
C3889 H3897 0.960 . S
C3890 C3888 1.381 . S
C3890 C3891 1.394 . S
C3890 H3898 0.930 . S
C3891 C3890 1.394 . S
C3891 C3892 1.383 . S
C3891 H3899 0.929 . S
C3892 C3891 1.383 . S
C3892 C3893 1.377 . S
C3893 H3877 0.930 . S
C3893 C3892 1.377 . S
C3893 C3894 1.379 . S
C3894 H3878 0.931 . S
C3894 C3888 1.383 . S
C3894 C3893 1.379 . S
H3895 C3889 0.959 . S
H3896 C3889 0.961 . S
H3897 C3889 0.960 . S
H3898 C3890 0.930 . S
H3899 C3891 0.929 . S
H3900 C3908 0.929 . S
H3901 C3910 0.930 . S
H3902 C3912 0.930 . S
H3903 C3915 0.929 . S
H3904 C3918 0.930 . S
H3905 C3920 0.960 . S
H3906 C3920 0.960 . S
H3907 C3920 0.960 . S
C3908 H3900 0.929 . S
C3908 C3909 1.377 . S
C3908 C3910 1.384 . S
C3909 C3908 1.377 . S
C3909 C3915 1.390 . S
C3910 H3901 0.930 . S
C3910 C3908 1.384 . S
C3910 C3911 1.372 . S
C3911 C3910 1.372 . S
C3911 C3912 1.400 . S
C3911 C3916 1.490 . S
C3912 H3902 0.930 . S
C3912 C3911 1.400 . S
C3912 C3915 1.386 . S
H3913 C3929 0.930 . S
H3914 C3930 0.931 . S
C3915 H3903 0.929 . S
C3915 C3909 1.390 . S
C3915 C3912 1.386 . S
C3916 C3911 1.490 . S
C3916 C3918 1.395 . S
C3916 C3919 1.403 . S
H3917 C3923 0.930 . S
C3918 H3904 0.930 . S
C3918 C3916 1.395 . S
C3918 C3921 1.403 1_545 S
C3919 C3916 1.403 . S
C3919 C3920 1.524 . S
C3919 C3923 1.400 1_545 S
C3920 H3905 0.960 . S
C3920 H3906 0.960 . S
C3920 H3907 0.960 . S
C3920 C3919 1.524 . S
C3921 C3918 1.403 1_565 S
C3921 C3922 1.392 . S
C3921 C3925 1.495 . S
C3922 C3921 1.392 . S
C3922 C3923 1.385 . S
C3922 C3924 1.478 . S
C3923 H3917 0.930 . S
C3923 C3919 1.400 1_565 S
C3923 C3922 1.385 . S
C3924 C3922 1.478 . S
C3924 C3926 1.381 . S
C3924 C3930 1.383 . S
C3925 C3921 1.495 . S
C3925 H3931 0.959 . S
C3925 H3932 0.961 . S
C3925 H3933 0.960 . S
C3926 C3924 1.381 . S
C3926 C3927 1.394 . S
C3926 H3934 0.930 . S
C3927 C3926 1.394 . S
C3927 C3928 1.383 . S
C3927 H3935 0.929 . S
C3928 C3927 1.383 . S
C3928 C3929 1.377 . S
C3929 H3913 0.930 . S
C3929 C3928 1.377 . S
C3929 C3930 1.379 . S
C3930 H3914 0.931 . S
C3930 C3924 1.383 . S
C3930 C3929 1.379 . S
H3931 C3925 0.959 . S
H3932 C3925 0.961 . S
H3933 C3925 0.960 . S
H3934 C3926 0.930 . S
H3935 C3927 0.929 . S
H3936 C3944 0.929 . S
H3937 C3946 0.930 . S
H3938 C3948 0.930 . S
H3939 C3951 0.929 . S
H3940 C3954 0.930 . S
H3941 C3956 0.960 . S
H3942 C3956 0.960 . S
H3943 C3956 0.960 . S
C3944 H3936 0.929 . S
C3944 C3945 1.377 . S
C3944 C3946 1.384 . S
C3945 C3944 1.377 . S
C3945 C3951 1.390 . S
C3946 H3937 0.930 . S
C3946 C3944 1.384 . S
C3946 C3947 1.372 . S
C3947 C3946 1.372 . S
C3947 C3948 1.400 . S
C3947 C3952 1.490 . S
C3948 H3938 0.930 . S
C3948 C3947 1.400 . S
C3948 C3951 1.386 . S
H3949 C3965 0.930 . S
H3950 C3966 0.931 . S
C3951 H3939 0.929 . S
C3951 C3945 1.390 . S
C3951 C3948 1.386 . S
C3952 C3947 1.490 . S
C3952 C3954 1.395 . S
C3952 C3955 1.403 . S
H3953 C3959 0.930 . S
C3954 H3940 0.930 . S
C3954 C3952 1.395 . S
C3954 C3957 1.403 1_455 S
C3955 C3952 1.403 . S
C3955 C3956 1.524 . S
C3955 C3959 1.400 1_455 S
C3956 H3941 0.960 . S
C3956 H3942 0.960 . S
C3956 H3943 0.960 . S
C3956 C3955 1.524 . S
C3957 C3954 1.403 1_655 S
C3957 C3958 1.392 . S
C3957 C3961 1.495 . S
C3958 C3957 1.392 . S
C3958 C3959 1.385 . S
C3958 C3960 1.478 . S
C3959 H3953 0.930 . S
C3959 C3955 1.400 1_655 S
C3959 C3958 1.385 . S
C3960 C3958 1.478 . S
C3960 C3962 1.381 . S
C3960 C3966 1.383 . S
C3961 C3957 1.495 . S
C3961 H3967 0.959 . S
C3961 H3968 0.961 . S
C3961 H3969 0.960 . S
C3962 C3960 1.381 . S
C3962 C3963 1.394 . S
C3962 H3970 0.930 . S
C3963 C3962 1.394 . S
C3963 C3964 1.383 . S
C3963 H3971 0.929 . S
C3964 C3963 1.383 . S
C3964 C3965 1.377 . S
C3965 H3949 0.930 . S
C3965 C3964 1.377 . S
C3965 C3966 1.379 . S
C3966 H3950 0.931 . S
C3966 C3960 1.383 . S
C3966 C3965 1.379 . S
H3967 C3961 0.959 . S
H3968 C3961 0.961 . S
H3969 C3961 0.960 . S
H3970 C3962 0.930 . S
H3971 C3963 0.929 . S
H3972 C3980 0.929 . S
H3973 C3982 0.930 . S
H3974 C3984 0.930 . S
H3975 C3987 0.929 . S
H3976 C3990 0.930 . S
H3977 C3992 0.960 . S
H3978 C3992 0.960 . S
H3979 C3992 0.960 . S
C3980 H3972 0.929 . S
C3980 C3981 1.377 . S
C3980 C3982 1.384 . S
C3981 C3980 1.377 . S
C3981 C3987 1.390 . S
C3982 H3973 0.930 . S
C3982 C3980 1.384 . S
C3982 C3983 1.372 . S
C3983 C3982 1.372 . S
C3983 C3984 1.400 . S
C3983 C3988 1.490 . S
C3984 H3974 0.930 . S
C3984 C3983 1.400 . S
C3984 C3987 1.386 . S
H3985 C4001 0.930 . S
H3986 C4002 0.931 . S
C3987 H3975 0.929 . S
C3987 C3981 1.390 . S
C3987 C3984 1.386 . S
C3988 C3983 1.490 . S
C3988 C3990 1.395 . S
C3988 C3991 1.403 . S
H3989 C3995 0.930 . S
C3990 H3976 0.930 . S
C3990 C3988 1.395 . S
C3990 C3993 1.403 1_545 S
C3991 C3988 1.403 . S
C3991 C3992 1.524 . S
C3991 C3995 1.400 1_545 S
C3992 H3977 0.960 . S
C3992 H3978 0.960 . S
C3992 H3979 0.960 . S
C3992 C3991 1.524 . S
C3993 C3990 1.403 1_565 S
C3993 C3994 1.392 . S
C3993 C3997 1.495 . S
C3994 C3993 1.392 . S
C3994 C3995 1.385 . S
C3994 C3996 1.478 . S
C3995 H3989 0.930 . S
C3995 C3991 1.400 1_565 S
C3995 C3994 1.385 . S
C3996 C3994 1.478 . S
C3996 C3998 1.381 . S
C3996 C4002 1.383 . S
C3997 C3993 1.495 . S
C3997 H4003 0.959 . S
C3997 H4004 0.961 . S
C3997 H4005 0.960 . S
C3998 C3996 1.381 . S
C3998 C3999 1.394 . S
C3998 H4006 0.930 . S
C3999 C3998 1.394 . S
C3999 C4000 1.383 . S
C3999 H4007 0.929 . S
C4000 C3999 1.383 . S
C4000 C4001 1.377 . S
C4001 H3985 0.930 . S
C4001 C4000 1.377 . S
C4001 C4002 1.379 . S
C4002 H3986 0.931 . S
C4002 C3996 1.383 . S
C4002 C4001 1.379 . S
H4003 C3997 0.959 . S
H4004 C3997 0.961 . S
H4005 C3997 0.960 . S
H4006 C3998 0.930 . S
H4007 C3999 0.929 . S
H4008 C4016 0.929 . S
H4009 C4018 0.930 . S
H4010 C4020 0.930 . S
H4011 C4023 0.929 . S
H4012 C4026 0.930 . S
H4013 C4028 0.960 . S
H4014 C4028 0.960 . S
H4015 C4028 0.960 . S
C4016 H4008 0.929 . S
C4016 C4017 1.377 . S
C4016 C4018 1.384 . S
C4017 C4016 1.377 . S
C4017 C4023 1.390 . S
C4018 H4009 0.930 . S
C4018 C4016 1.384 . S
C4018 C4019 1.372 . S
C4019 C4018 1.372 . S
C4019 C4020 1.400 . S
C4019 C4024 1.490 . S
C4020 H4010 0.930 . S
C4020 C4019 1.400 . S
C4020 C4023 1.386 . S
H4021 C4037 0.930 . S
H4022 C4038 0.931 . S
C4023 H4011 0.929 . S
C4023 C4017 1.390 . S
C4023 C4020 1.386 . S
C4024 C4019 1.490 . S
C4024 C4026 1.395 . S
C4024 C4027 1.403 . S
H4025 C4031 0.930 . S
C4026 H4012 0.930 . S
C4026 C4024 1.395 . S
C4026 C4029 1.403 1_655 S
C4027 C4024 1.403 . S
C4027 C4028 1.524 . S
C4027 C4031 1.400 1_655 S
C4028 H4013 0.960 . S
C4028 H4014 0.960 . S
C4028 H4015 0.960 . S
C4028 C4027 1.524 . S
C4029 C4026 1.403 1_455 S
C4029 C4030 1.392 . S
C4029 C4033 1.495 . S
C4030 C4029 1.392 . S
C4030 C4031 1.385 . S
C4030 C4032 1.478 . S
C4031 H4025 0.930 . S
C4031 C4027 1.400 1_455 S
C4031 C4030 1.385 . S
C4032 C4030 1.478 . S
C4032 C4034 1.381 . S
C4032 C4038 1.383 . S
C4033 C4029 1.495 . S
C4033 H4039 0.959 . S
C4033 H4040 0.961 . S
C4033 H4041 0.960 . S
C4034 C4032 1.381 . S
C4034 C4035 1.394 . S
C4034 H4042 0.930 . S
C4035 C4034 1.394 . S
C4035 C4036 1.383 . S
C4035 H4043 0.929 . S
C4036 C4035 1.383 . S
C4036 C4037 1.377 . S
C4037 H4021 0.930 . S
C4037 C4036 1.377 . S
C4037 C4038 1.379 . S
C4038 H4022 0.931 . S
C4038 C4032 1.383 . S
C4038 C4037 1.379 . S
H4039 C4033 0.959 . S
H4040 C4033 0.961 . S
H4041 C4033 0.960 . S
H4042 C4034 0.930 . S
H4043 C4035 0.929 . S
H4044 C4052 0.929 . S
H4045 C4054 0.930 . S
H4046 C4056 0.930 . S
H4047 C4059 0.929 . S
H4048 C4062 0.930 . S
H4049 C4064 0.960 . S
H4050 C4064 0.960 . S
H4051 C4064 0.960 . S
C4052 H4044 0.929 . S
C4052 C4053 1.377 . S
C4052 C4054 1.384 . S
C4053 C4052 1.377 . S
C4053 C4059 1.390 . S
C4054 H4045 0.930 . S
C4054 C4052 1.384 . S
C4054 C4055 1.372 . S
C4055 C4054 1.372 . S
C4055 C4056 1.400 . S
C4055 C4060 1.490 . S
C4056 H4046 0.930 . S
C4056 C4055 1.400 . S
C4056 C4059 1.386 . S
H4057 C4073 0.930 . S
H4058 C4074 0.931 . S
C4059 H4047 0.929 . S
C4059 C4053 1.390 . S
C4059 C4056 1.386 . S
C4060 C4055 1.490 . S
C4060 C4062 1.395 . S
C4060 C4063 1.403 . S
H4061 C4067 0.930 . S
C4062 H4048 0.930 . S
C4062 C4060 1.395 . S
C4062 C4065 1.403 1_455 S
C4063 C4060 1.403 . S
C4063 C4064 1.524 . S
C4063 C4067 1.400 1_455 S
C4064 H4049 0.960 . S
C4064 H4050 0.960 . S
C4064 H4051 0.960 . S
C4064 C4063 1.524 . S
C4065 C4062 1.403 1_655 S
C4065 C4066 1.392 . S
C4065 C4069 1.495 . S
C4066 C4065 1.392 . S
C4066 C4067 1.385 . S
C4066 C4068 1.478 . S
C4067 H4061 0.930 . S
C4067 C4063 1.400 1_655 S
C4067 C4066 1.385 . S
C4068 C4066 1.478 . S
C4068 C4070 1.381 . S
C4068 C4074 1.383 . S
C4069 C4065 1.495 . S
C4069 H4075 0.959 . S
C4069 H4076 0.961 . S
C4069 H4077 0.960 . S
C4070 C4068 1.381 . S
C4070 C4071 1.394 . S
C4070 H4078 0.930 . S
C4071 C4070 1.394 . S
C4071 C4072 1.383 . S
C4071 H4079 0.929 . S
C4072 C4071 1.383 . S
C4072 C4073 1.377 . S
C4073 H4057 0.930 . S
C4073 C4072 1.377 . S
C4073 C4074 1.379 . S
C4074 H4058 0.931 . S
C4074 C4068 1.383 . S
C4074 C4073 1.379 . S
H4075 C4069 0.959 . S
H4076 C4069 0.961 . S
H4077 C4069 0.960 . S
H4078 C4070 0.930 . S
H4079 C4071 0.929 . S
C633 C517 1.350 . S
C652 C3 1.356 . S
C669 C17 1.349 . S
C688 C471 1.342 . S
C705 C31 1.346 . S
C724 C485 1.348 . S
C741 C498 1.342 . S
C760 C43 1.348 . S
C777 C439 1.339 . S
C796 C56 1.332 . S
C813 C70 1.356 . S
C832 C445 1.352 . S
C849 C88 1.343 . S
C868 C458 1.348 . S
C885 C94 1.360 . S
C904 C421 1.351 . S
C921 C114 1.351 . S
C940 C406 1.352 . S
C957 C374 1.343 . S
C976 C121 1.331 . S
C993 C380 1.347 . S
C1012 C140 1.335 . S
C1029 C146 1.350 . S
C1048 C400 1.353 . S
C1065 C161 1.344 . S
C1084 C329 1.341 . S
C1101 C172 1.355 . S
C1120 C341 1.353 . S
C1137 C355 1.334 . S
C1156 C186 1.322 . S
C1173 C315 1.354 . S
C1192 C199 1.349 . S
C1209 C218 1.346 . S
C1228 C576 1.337 . S
C1245 C616 1.352 . S
C1264 C224 1.346 . S
C1281 C589 1.343 . S
C1300 C238 1.334 . S
C1317 C603 1.353 . S
C1336 C252 1.346 . S
C1353 C530 1.347 . S
C1372 C270 1.334 . S
C1389 C550 1.348 . S
C1408 C277 1.336 . S
C1425 C291 1.349 . S
C1444 C564 1.342 . S
C1461 C536 1.349 . S
C1480 C302 1.343 . S
C1497 C426 1.352 . S
C1516 C265 1.353 . S
C1533 C225 1.348 . S
C1552 C434 1.343 . S
C1569 C446 1.347 . S
C1588 C237 1.344 . S
C1605 C459 1.337 . S
C1624 C257 1.337 . S
C1641 C303 1.333 . S
C1660 C472 1.339 . S
C1677 C484 1.357 . S
C1696 C276 1.348 . S
C1713 C296 1.340 . S
C1732 C497 1.335 . S
C1749 C213 1.359 . S
C1768 C512 1.352 . S
C1785 C525 1.361 . S
C1804 C198 1.354 . S
C1821 C166 1.344 . S
C1840 C621 1.333 . S
C1857 C588 1.349 . S
C1876 C173 1.335 . S
C1893 C185 1.351 . S
C1912 C608 1.345 . S
C1929 C120 1.341 . S
C1948 C537 1.340 . S
C1965 C135 1.358 . S
C1984 C549 1.353 . S
C2001 C147 1.332 . S
C2020 C569 1.336 . S
C2037 C575 1.359 . S
C2056 C109 1.358 . S
C2073 C316 1.346 . S
C2092 C95 1.339 . S
C2109 C369 1.353 . S
C2128 C16 1.346 . S
C2145 C381 1.343 . S
C2164 C36 1.331 . S
C2181 C395 1.351 . S
C2200 C42 1.354 . S
C2217 C407 1.343 . S
C2236 C4 1.347 . S
C2253 C75 1.349 . S
C2272 C342 1.348 . S
C2289 C354 1.351 . S
C2308 C83 1.346 . S
C2325 C328 1.351 . S
C2344 C55 1.341 . S
C2361 C10 1.572 . S
C2380 C348 1.570 . S
C2397 C356 1.583 . S
C2416 C18 1.587 . S
C2433 C30 1.570 . S
C2452 C322 1.565 . S
C2469 C44 1.586 . S
C2488 C330 1.577 . S
C2505 C57 1.585 . S
C2524 C393 1.574 . S
C2541 C413 1.572 . S
C2560 C69 1.574 . S
C2577 C81 1.585 . S
C2596 C367 1.574 . S
C2613 C387 1.573 . S
C2632 C101 1.563 . S
C2649 C107 1.574 . S
C2668 C478 1.578 . S
C2685 C486 1.586 . S
C2704 C122 1.591 . S
C2721 C133 1.587 . S
C2740 C499 1.579 . S
C2757 C153 1.579 . S
C2776 C510 1.571 . S
C2793 C160 1.569 . S
C2812 C420 1.572 . S
C2829 C179 1.581 . S
C2848 C432 1.575 . S
C2865 C452 1.581 . S
C2884 C187 1.570 . S
C2901 C200 1.578 . S
C2920 C465 1.571 . S
C2937 C563 1.579 . S
C2956 C211 1.567 . S
C2973 C231 1.578 . S
C2992 C590 1.574 . S
C3009 C239 1.575 . S
C3028 C602 1.577 . S
C3045 C523 1.578 . S
C3064 C251 1.573 . S
C3081 C615 1.585 . S
C3100 C263 1.570 . S
C3117 C278 1.573 . S
C3136 C543 1.576 . S
C3153 C551 1.573 . S
C3172 C290 1.578 . S
C3189 C309 1.579 . S
C3208 C577 1.581 . S
C3225 C556 1.573 . S
C3244 C264 1.564 . S
C3261 C226 1.584 . S
C3280 C562 1.588 . S
C3297 C582 1.571 . S
C3316 C244 1.570 . S
C3333 C538 1.584 . S
C3352 C250 1.589 . S
C3369 C601 1.585 . S
C3388 C304 1.585 . S
C3405 C283 1.575 . S
C3424 C524 1.566 . S
C3441 C614 1.584 . S
C3460 C289 1.577 . S
C3477 C212 1.573 . S
C3496 C595 1.565 . S
C3513 C433 1.568 . S
C3532 C205 1.559 . S
C3549 C159 1.586 . S
C3568 C447 1.585 . S
C3585 C174 1.590 . S
C3604 C460 1.578 . S
C3621 C419 1.574 . S
C3640 C192 1.575 . S
C3657 C127 1.571 . S
C3676 C511 1.561 . S
C3693 C473 1.578 . S
C3712 C134 1.583 . S
C3729 C148 1.580 . S
C3748 C491 1.573 . S
C3765 C108 1.571 . S
C3784 C504 1.563 . S
C3801 C361 1.579 . S
C3820 C96 1.568 . S
C3837 C23 1.580 . S
C3856 C382 1.566 . S
C3873 C29 1.578 . S
C3892 C394 1.581 . S
C3909 C408 1.581 . S
C3928 C49 1.587 . S
C3945 C5 1.581 . S
C3964 C368 1.586 . S
C3981 C68 1.575 . S
C4000 C335 1.568 . S
C4017 C82 1.576 . S
C4036 C343 1.576 . S
C4053 C62 1.585 . S
C4072 C317 1.572 . S
