# Generated by pormake.
# Topology fnk, (5)-cn, num edge types: 1
# Building blocks:
#     Node 0, Type 0, BuildingBlock: BEQFEK_clean_sbu_0, # of connection points: 5
#     Node 1, Type 0, BuildingBlock: BEQFEK_clean_sbu_0, # of connection points: 5
#     Node 2, Type 0, BuildingBlock: BEQFEK_clean_sbu_0, # of connection points: 5
#     Node 3, Type 0, BuildingBlock: BEQFEK_clean_sbu_0, # of connection points: 5
#     Node 4, Type 0, BuildingBlock: BEQFEK_clean_sbu_0, # of connection points: 5
#     Node 5, Type 0, BuildingBlock: BEQFEK_clean_sbu_0, # of connection points: 5
#     Node 6, Type 0, BuildingBlock: BEQFEK_clean_sbu_0, # of connection points: 5
#     Node 7, Type 0, BuildingBlock: BEQFEK_clean_sbu_0, # of connection points: 5
#     Node 8, Type 0, BuildingBlock: BEQFEK_clean_sbu_0, # of connection points: 5
#     Node 9, Type 0, BuildingBlock: BEQFEK_clean_sbu_0, # of connection points: 5
#     Node 10, Type 0, BuildingBlock: BEQFEK_clean_sbu_0, # of connection points: 5
#     Node 11, Type 0, BuildingBlock: BEQFEK_clean_sbu_0, # of connection points: 5
#     Node 12, Type 0, BuildingBlock: BEQFEK_clean_sbu_0, # of connection points: 5
#     Node 13, Type 0, BuildingBlock: BEQFEK_clean_sbu_0, # of connection points: 5
#     Node 14, Type 0, BuildingBlock: BEQFEK_clean_sbu_0, # of connection points: 5
#     Node 15, Type 0, BuildingBlock: BEQFEK_clean_sbu_0, # of connection points: 5
#     Edge 16, Type (0, 0), BuildingBlock: MIFKUJ_clean_linker_0, # of connection points: 2
#     Edge 17, Type (0, 0), BuildingBlock: MIFKUJ_clean_linker_0, # of connection points: 2
#     Edge 18, Type (0, 0), BuildingBlock: MIFKUJ_clean_linker_0, # of connection points: 2
#     Edge 19, Type (0, 0), BuildingBlock: MIFKUJ_clean_linker_0, # of connection points: 2
#     Edge 20, Type (0, 0), BuildingBlock: MIFKUJ_clean_linker_0, # of connection points: 2
#     Edge 21, Type (0, 0), BuildingBlock: MIFKUJ_clean_linker_0, # of connection points: 2
#     Edge 22, Type (0, 0), BuildingBlock: MIFKUJ_clean_linker_0, # of connection points: 2
#     Edge 23, Type (0, 0), BuildingBlock: MIFKUJ_clean_linker_0, # of connection points: 2
#     Edge 24, Type (0, 0), BuildingBlock: MIFKUJ_clean_linker_0, # of connection points: 2
#     Edge 25, Type (0, 0), BuildingBlock: MIFKUJ_clean_linker_0, # of connection points: 2
#     Edge 26, Type (0, 0), BuildingBlock: MIFKUJ_clean_linker_0, # of connection points: 2
#     Edge 27, Type (0, 0), BuildingBlock: MIFKUJ_clean_linker_0, # of connection points: 2
#     Edge 28, Type (0, 0), BuildingBlock: MIFKUJ_clean_linker_0, # of connection points: 2
#     Edge 29, Type (0, 0), BuildingBlock: MIFKUJ_clean_linker_0, # of connection points: 2
#     Edge 30, Type (0, 0), BuildingBlock: MIFKUJ_clean_linker_0, # of connection points: 2
#     Edge 31, Type (0, 0), BuildingBlock: MIFKUJ_clean_linker_0, # of connection points: 2
#     Edge 32, Type (0, 0), BuildingBlock: MIFKUJ_clean_linker_0, # of connection points: 2
#     Edge 33, Type (0, 0), BuildingBlock: MIFKUJ_clean_linker_0, # of connection points: 2
#     Edge 34, Type (0, 0), BuildingBlock: MIFKUJ_clean_linker_0, # of connection points: 2
#     Edge 35, Type (0, 0), BuildingBlock: MIFKUJ_clean_linker_0, # of connection points: 2
#     Edge 36, Type (0, 0), BuildingBlock: MIFKUJ_clean_linker_0, # of connection points: 2
#     Edge 37, Type (0, 0), BuildingBlock: MIFKUJ_clean_linker_0, # of connection points: 2
#     Edge 38, Type (0, 0), BuildingBlock: MIFKUJ_clean_linker_0, # of connection points: 2
#     Edge 39, Type (0, 0), BuildingBlock: MIFKUJ_clean_linker_0, # of connection points: 2
#     Edge 40, Type (0, 0), BuildingBlock: MIFKUJ_clean_linker_0, # of connection points: 2
#     Edge 41, Type (0, 0), BuildingBlock: MIFKUJ_clean_linker_0, # of connection points: 2
#     Edge 42, Type (0, 0), BuildingBlock: MIFKUJ_clean_linker_0, # of connection points: 2
#     Edge 43, Type (0, 0), BuildingBlock: MIFKUJ_clean_linker_0, # of connection points: 2
#     Edge 44, Type (0, 0), BuildingBlock: MIFKUJ_clean_linker_0, # of connection points: 2
#     Edge 45, Type (0, 0), BuildingBlock: MIFKUJ_clean_linker_0, # of connection points: 2
#     Edge 46, Type (0, 0), BuildingBlock: MIFKUJ_clean_linker_0, # of connection points: 2
#     Edge 47, Type (0, 0), BuildingBlock: MIFKUJ_clean_linker_0, # of connection points: 2
#     Edge 48, Type (0, 0), BuildingBlock: MIFKUJ_clean_linker_0, # of connection points: 2
#     Edge 49, Type (0, 0), BuildingBlock: MIFKUJ_clean_linker_0, # of connection points: 2
#     Edge 50, Type (0, 0), BuildingBlock: MIFKUJ_clean_linker_0, # of connection points: 2
#     Edge 51, Type (0, 0), BuildingBlock: MIFKUJ_clean_linker_0, # of connection points: 2
#     Edge 52, Type (0, 0), BuildingBlock: MIFKUJ_clean_linker_0, # of connection points: 2
#     Edge 53, Type (0, 0), BuildingBlock: MIFKUJ_clean_linker_0, # of connection points: 2
#     Edge 54, Type (0, 0), BuildingBlock: MIFKUJ_clean_linker_0, # of connection points: 2
#     Edge 55, Type (0, 0), BuildingBlock: MIFKUJ_clean_linker_0, # of connection points: 2
# Relax obj value: 0.380
# Max RMSD: 0.194
# Mean RMSD: 0.194
data_MOF--net-fnk--node1-BEQFEK_clean_sbu_0--edge1-MIFKUJ_clean_linker_0
_symmetry_space_group_name_H-M    P1
_symmetry_Int_Tables_number       1
_symmetry_cell_setting            triclinic
loop_
_symmetry_equiv_pos_as_xyz
'x, y, z'
_cell_length_a     61.919652
_cell_length_b     61.918131
_cell_length_c     62.6025
_cell_angle_alpha  89.990035
_cell_angle_beta   89.969158
_cell_angle_gamma 89.957921
loop_
_atom_site_label
_atom_site_type_symbol
_atom_site_fract_x
_atom_site_fract_y
_atom_site_fract_z
_atom_type_partial_charge
Co0 Co 0.10402 0.39182 0.1501 0.0
Co1 Co 0.13467 0.35865 0.17277 0.0
C2 C 0.13694 0.40623 0.18189 0.0
O3 O 0.12216 0.41043 0.16836 0.0
O4 O 0.1431 0.38692 0.18556 0.0
C5 C 0.08688 0.42978 0.12852 0.0
O6 O 0.10441 0.43969 0.1351 0.0
C7 C 0.17315 0.33791 0.19156 0.0
C8 C 0.16298 0.30367 0.1913 0.0
C9 C 0.17955 0.31728 0.19753 0.0
N10 N 0.15365 0.33645 0.18219 0.0
N11 N 0.14778 0.31594 0.18194 0.0
C12 C 0.18405 0.35887 0.19655 0.0
H13 H 0.17449 0.36756 0.20884 0.0
H14 H 0.18443 0.36911 0.182 0.0
H15 H 0.20066 0.35652 0.2027 0.0
C16 C 0.12554 0.37429 0.11202 0.0
N17 N 0.12184 0.37419 0.13315 0.0
N18 N 0.13502 0.36039 0.14241 0.0
C19 C 0.14763 0.35123 0.12732 0.0
C20 C 0.14204 0.35984 0.10762 0.0
C21 C 0.11388 0.38853 0.09651 0.0
H22 H 0.09623 0.38733 0.09928 0.0
H23 H 0.11875 0.40555 0.09924 0.0
H24 H 0.11744 0.38403 0.07972 0.0
O25 O 0.08453 0.37435 0.16795 0.0
O26 O 0.10571 0.35034 0.18365 0.0
H27 H 0.15928 0.32084 0.13859 0.0
H28 H 0.17531 0.33236 0.1173 0.0
C29 C 0.16586 0.33607 0.13192 0.0
H30 H 0.17666 0.34333 0.14409 0.0
H31 H 0.1331 0.31041 0.17588 0.0
O32 O 0.08444 0.40982 0.13257 0.0
C33 C 0.08708 0.35835 0.1804 0.0
Co34 Co 0.59816 0.11062 0.14629 0.0
Co35 Co 0.63372 0.13887 0.16852 0.0
C36 C 0.58725 0.14149 0.18157 0.0
O37 O 0.58162 0.12802 0.16724 0.0
O38 O 0.60693 0.1469 0.1841 0.0
C39 C 0.55758 0.09475 0.1299 0.0
O40 O 0.54912 0.11044 0.14129 0.0
C41 C 0.65615 0.17585 0.18784 0.0
C42 C 0.69027 0.16775 0.18116 0.0
C43 C 0.67712 0.18317 0.19052 0.0
N44 N 0.65688 0.15694 0.17733 0.0
N45 N 0.67732 0.15215 0.17346 0.0
C46 C 0.6357 0.18722 0.19385 0.0
H47 H 0.62894 0.17963 0.20844 0.0
H48 H 0.62368 0.18552 0.18082 0.0
H49 H 0.63858 0.20462 0.19698 0.0
C50 C 0.61557 0.13232 0.108 0.0
N51 N 0.61538 0.12874 0.12918 0.0
N52 N 0.62977 0.14125 0.13843 0.0
C53 C 0.63932 0.15357 0.12337 0.0
C54 C 0.63068 0.14827 0.1036 0.0
C55 C 0.60235 0.11971 0.09234 0.0
H56 H 0.60234 0.1024 0.09686 0.0
H57 H 0.58542 0.12559 0.09285 0.0
H58 H 0.60866 0.1213 0.07583 0.0
O59 O 0.61608 0.0896 0.16187 0.0
O60 O 0.6419 0.10905 0.17698 0.0
H61 H 0.67141 0.16343 0.13115 0.0
H62 H 0.65712 0.18221 0.11425 0.0
C63 C 0.65548 0.17093 0.12793 0.0
H64 H 0.65045 0.18022 0.14222 0.0
H65 H 0.68239 0.13829 0.16545 0.0
O66 O 0.57799 0.09285 0.12903 0.0
C67 C 0.63297 0.09092 0.17334 0.0
Co68 Co 0.8888 0.59817 0.14657 0.0
Co69 Co 0.86099 0.63224 0.17151 0.0
C70 C 0.8511 0.58486 0.17349 0.0
O71 O 0.86656 0.58057 0.16072 0.0
O72 O 0.84695 0.60423 0.17919 0.0
C73 C 0.90276 0.56099 0.12178 0.0
O74 O 0.88365 0.55282 0.12599 0.0
C75 C 0.82588 0.65751 0.19179 0.0
C76 C 0.84139 0.68965 0.1932 0.0
C77 C 0.82278 0.67859 0.19872 0.0
N78 N 0.84546 0.65628 0.18255 0.0
N79 N 0.85457 0.67555 0.18339 0.0
C80 C 0.81173 0.63834 0.19573 0.0
H81 H 0.82063 0.62658 0.20577 0.0
H82 H 0.80807 0.63034 0.18029 0.0
H83 H 0.79652 0.64276 0.20397 0.0
C84 C 0.87477 0.62457 0.11012 0.0
N85 N 0.87588 0.62081 0.13121 0.0
N86 N 0.86377 0.63494 0.14139 0.0
C87 C 0.85443 0.64815 0.12695 0.0
C88 C 0.86111 0.64198 0.1067 0.0
C89 C 0.8862 0.61131 0.09363 0.0
H90 H 0.90333 0.60915 0.09834 0.0
H91 H 0.87864 0.59508 0.09284 0.0
H92 H 0.88554 0.61897 0.07762 0.0
O93 O 0.90851 0.60886 0.16865 0.0
O94 O 0.88953 0.63362 0.18596 0.0
H95 H 0.84594 0.67888 0.13991 0.0
H96 H 0.82924 0.67061 0.11778 0.0
C97 C 0.83785 0.66491 0.13227 0.0
H98 H 0.82599 0.65818 0.14375 0.0
H99 H 0.87 0.67896 0.17759 0.0
O100 O 0.90726 0.57991 0.12819 0.0
C101 C 0.90686 0.62293 0.1833 0.0
Co102 Co 0.40461 0.88472 0.15088 0.0
Co103 Co 0.36937 0.85786 0.1753 0.0
C104 C 0.41643 0.8473 0.17905 0.0
O105 O 0.42134 0.86234 0.16602 0.0
O106 O 0.39683 0.84357 0.18418 0.0
C107 C 0.44378 0.89996 0.13051 0.0
O108 O 0.45332 0.88415 0.14085 0.0
C109 C 0.3425 0.82363 0.19507 0.0
C110 C 0.31072 0.83996 0.19504 0.0
C111 C 0.32101 0.82103 0.20095 0.0
N112 N 0.34464 0.84318 0.18593 0.0
N113 N 0.3256 0.85282 0.18601 0.0
C114 C 0.36112 0.80901 0.19986 0.0
H115 H 0.37373 0.81828 0.20841 0.0
H116 H 0.36823 0.80318 0.18463 0.0
H117 H 0.35636 0.79508 0.20992 0.0
C118 C 0.37736 0.87305 0.11438 0.0
N119 N 0.38183 0.87239 0.13534 0.0
N120 N 0.36753 0.86015 0.14509 0.0
C121 C 0.35374 0.85213 0.1304 0.0
C122 C 0.35942 0.86027 0.11053 0.0
C123 C 0.39063 0.88516 0.09838 0.0
H124 H 0.40737 0.87875 0.09847 0.0
H125 H 0.38393 0.88381 0.08205 0.0
H126 H 0.39135 0.90245 0.103 0.0
O127 O 0.39387 0.90519 0.17231 0.0
O128 O 0.36816 0.88685 0.18896 0.0
H129 H 0.32895 0.8296 0.12059 0.0
H130 H 0.34057 0.8247 0.14672 0.0
C131 C 0.33531 0.83733 0.13529 0.0
H132 H 0.3221 0.84677 0.14277 0.0
H133 H 0.32284 0.86832 0.18007 0.0
O134 O 0.42345 0.90216 0.13201 0.0
C135 C 0.37921 0.90398 0.18644 0.0
Co136 Co 0.11501 0.59246 0.35221 0.0
Co137 Co 0.13777 0.62859 0.32548 0.0
C138 C 0.1485 0.58135 0.32 0.0
O139 O 0.13582 0.57566 0.33504 0.0
O140 O 0.15044 0.60111 0.31449 0.0
C141 C 0.0972 0.55375 0.37041 0.0
O142 O 0.10933 0.54384 0.35624 0.0
C143 C 0.17275 0.65493 0.30711 0.0
C144 C 0.1556 0.6858 0.30182 0.0
C145 C 0.17556 0.6759 0.29975 0.0
N146 N 0.15208 0.65268 0.31328 0.0
N147 N 0.1419 0.67113 0.30995 0.0
C148 C 0.18954 0.63777 0.30978 0.0
H149 H 0.18512 0.62684 0.32313 0.0
H150 H 0.20563 0.64504 0.31284 0.0
H151 H 0.19044 0.62805 0.29491 0.0
C152 C 0.13181 0.61877 0.38766 0.0
N153 N 0.12912 0.61502 0.3667 0.0
N154 N 0.13933 0.62996 0.35568 0.0
C155 C 0.14906 0.64365 0.36939 0.0
C156 C 0.1445 0.63701 0.39003 0.0
C157 C 0.12308 0.60454 0.40495 0.0
H158 H 0.10517 0.60525 0.4047 0.0
H159 H 0.1279 0.58757 0.4018 0.0
H160 H 0.12898 0.60948 0.42095 0.0
O161 O 0.09243 0.60339 0.33291 0.0
O162 O 0.10745 0.63076 0.31564 0.0
H163 H 0.15215 0.67377 0.35301 0.0
H164 H 0.16824 0.67186 0.37701 0.0
C165 C 0.16218 0.66283 0.36292 0.0
H166 H 0.17609 0.65741 0.35314 0.0
H167 H 0.12565 0.67377 0.31351 0.0
O168 O 0.09862 0.57411 0.37231 0.0
C169 C 0.09125 0.61884 0.31963 0.0
Co170 Co 0.40068 0.11468 0.35275 0.0
Co171 Co 0.3653 0.13801 0.32548 0.0
C172 C 0.41285 0.14863 0.32184 0.0
O173 O 0.41799 0.13596 0.33702 0.0
O174 O 0.39337 0.1504 0.31544 0.0
C175 C 0.43924 0.09694 0.37118 0.0
O176 O 0.44911 0.11025 0.35808 0.0
C177 C 0.34144 0.17482 0.30784 0.0
C178 C 0.31005 0.15984 0.29999 0.0
C179 C 0.32116 0.17925 0.29951 0.0
N180 N 0.34223 0.15376 0.31296 0.0
N181 N 0.32348 0.14487 0.30811 0.0
C182 C 0.35925 0.19046 0.31239 0.0
H183 H 0.36878 0.18498 0.32639 0.0
H184 H 0.35271 0.20687 0.31544 0.0
H185 H 0.37019 0.19121 0.29836 0.0
C186 C 0.37341 0.13055 0.38789 0.0
N187 N 0.37775 0.12841 0.36698 0.0
N188 N 0.363 0.13871 0.35579 0.0
C189 C 0.34872 0.14783 0.36937 0.0
C190 C 0.35481 0.14282 0.39011 0.0
C191 C 0.38761 0.12201 0.4053 0.0
H192 H 0.38602 0.10417 0.40597 0.0
H193 H 0.40472 0.12583 0.40163 0.0
H194 H 0.38333 0.12893 0.42109 0.0
O195 O 0.39014 0.09295 0.33232 0.0
O196 O 0.36294 0.10797 0.31472 0.0
H197 H 0.31943 0.15076 0.35157 0.0
H198 H 0.31932 0.16542 0.3765 0.0
C199 C 0.32936 0.16058 0.36262 0.0
H200 H 0.33472 0.17524 0.35396 0.0
H201 H 0.31977 0.12862 0.3106 0.0
O202 O 0.41877 0.09751 0.37252 0.0
C203 C 0.37505 0.09185 0.31863 0.0
Co204 Co 0.891 0.39857 0.34193 0.0
Co205 Co 0.86009 0.36404 0.32199 0.0
C206 C 0.85598 0.41118 0.31158 0.0
O207 O 0.87137 0.41591 0.32422 0.0
O208 O 0.85004 0.39167 0.30865 0.0
C209 C 0.90656 0.43713 0.36369 0.0
O210 O 0.88745 0.44552 0.35986 0.0
C211 C 0.82206 0.34121 0.30481 0.0
C212 C 0.8295 0.30758 0.3142 0.0
C213 C 0.81415 0.32031 0.30426 0.0
N214 N 0.84124 0.3409 0.31487 0.0
N215 N 0.84567 0.32073 0.32023 0.0
C216 C 0.81121 0.36126 0.2969 0.0
H217 H 0.82064 0.36798 0.28337 0.0
H218 H 0.81096 0.37353 0.30981 0.0
H219 H 0.79443 0.358 0.29157 0.0
C220 C 0.87327 0.38101 0.3818 0.0
N221 N 0.87492 0.38099 0.36041 0.0
N222 N 0.86131 0.36684 0.35237 0.0
C223 C 0.85033 0.35752 0.3686 0.0
C224 C 0.85761 0.36622 0.38768 0.0
C225 C 0.88659 0.3949 0.39625 0.0
H226 H 0.90376 0.39428 0.39125 0.0
H227 H 0.88096 0.41187 0.39499 0.0
H228 H 0.88535 0.38963 0.41312 0.0
O229 O 0.90995 0.38125 0.32357 0.0
O230 O 0.88878 0.35599 0.3099 0.0
H231 H 0.83872 0.32561 0.3629 0.0
H232 H 0.82198 0.34119 0.38062 0.0
C233 C 0.83207 0.34195 0.36598 0.0
H234 H 0.82184 0.34678 0.35227 0.0
H235 H 0.85966 0.31599 0.32826 0.0
O236 O 0.91056 0.41789 0.35783 0.0
C237 C 0.90727 0.36475 0.31182 0.0
Co238 Co 0.60196 0.89601 0.34611 0.0
Co239 Co 0.63624 0.86664 0.32341 0.0
C240 C 0.58886 0.85993 0.31685 0.0
O241 O 0.58438 0.87535 0.32959 0.0
O242 O 0.60835 0.85475 0.3126 0.0
C243 C 0.56386 0.90989 0.36968 0.0
O244 O 0.55589 0.89076 0.36523 0.0
C245 C 0.66114 0.82898 0.30776 0.0
C246 C 0.6937 0.84345 0.30575 0.0
C247 C 0.68245 0.82443 0.30236 0.0
N248 N 0.66001 0.84973 0.31402 0.0
N249 N 0.6795 0.85826 0.31271 0.0
C250 C 0.64242 0.81373 0.30837 0.0
H251 H 0.63086 0.81865 0.32103 0.0
H252 H 0.64796 0.79694 0.31134 0.0
H253 H 0.6339 0.81429 0.29279 0.0
C254 C 0.62403 0.87927 0.38438 0.0
N255 N 0.62195 0.88089 0.36308 0.0
N256 N 0.63625 0.86828 0.35376 0.0
C257 C 0.64797 0.85822 0.36896 0.0
C258 C 0.64054 0.86483 0.38882 0.0
C259 C 0.61043 0.89143 0.40008 0.0
H260 H 0.60959 0.90867 0.39535 0.0
H261 H 0.59378 0.88482 0.39982 0.0
H262 H 0.61698 0.89025 0.41653 0.0
O263 O 0.6167 0.91602 0.32642 0.0
O264 O 0.64118 0.89547 0.31056 0.0
H265 H 0.67878 0.84922 0.35646 0.0
H266 H 0.67057 0.83368 0.3795 0.0
C267 C 0.66487 0.84151 0.36459 0.0
H268 H 0.65819 0.82901 0.35379 0.0
H269 H 0.68312 0.87423 0.31668 0.0
O270 O 0.58287 0.91457 0.36363 0.0
C271 C 0.6321 0.9137 0.3132 0.0
Co272 Co 0.89563 0.60759 0.84808 0.0
Co273 Co 0.86392 0.63931 0.82477 0.0
C274 C 0.91117 0.64088 0.81634 0.0
O275 O 0.91451 0.62542 0.82939 0.0
O276 O 0.89222 0.64812 0.81289 0.0
C277 C 0.9334 0.59254 0.87072 0.0
O278 O 0.9415 0.6115 0.8658 0.0
C279 C 0.84282 0.6785 0.80777 0.0
C280 C 0.80868 0.66809 0.80786 0.0
C281 C 0.82203 0.68534 0.80299 0.0
N282 N 0.84172 0.65815 0.81521 0.0
N283 N 0.82129 0.65202 0.81511 0.0
C284 C 0.86325 0.69131 0.80651 0.0
H285 H 0.87159 0.6875 0.79128 0.0
H286 H 0.87414 0.68681 0.81986 0.0
H287 H 0.85986 0.70891 0.80709 0.0
C288 C 0.87574 0.62759 0.88609 0.0
N289 N 0.87783 0.62546 0.86482 0.0
N290 N 0.86465 0.63903 0.8552 0.0
C291 C 0.85388 0.65045 0.87016 0.0
C292 C 0.86045 0.64344 0.89017 0.0
C293 C 0.889 0.61538 0.90201 0.0
H294 H 0.88604 0.59781 0.90006 0.0
H295 H 0.90636 0.61835 0.89881 0.0
H296 H 0.88534 0.62025 0.91867 0.0
O297 O 0.87777 0.58802 0.83062 0.0
O298 O 0.85642 0.61056 0.81292 0.0
H299 H 0.8232 0.65949 0.85747 0.0
H300 H 0.8314 0.67541 0.88008 0.0
C301 C 0.83718 0.66725 0.86539 0.0
H302 H 0.84401 0.67943 0.85431 0.0
H303 H 0.81596 0.63686 0.82013 0.0
O304 O 0.914 0.58828 0.86562 0.0
C305 C 0.86296 0.59154 0.81701 0.0
Co306 Co 0.39543 0.89249 0.84379 0.0
Co307 Co 0.36103 0.86162 0.82379 0.0
C308 C 0.3625 0.90798 0.8118 0.0
O309 O 0.37814 0.91112 0.82464 0.0
O310 O 0.35409 0.88937 0.80937 0.0
C311 C 0.41186 0.92877 0.86852 0.0
O312 O 0.39169 0.93511 0.87039 0.0
C313 C 0.3207 0.84188 0.80799 0.0
C314 C 0.32743 0.8074 0.81436 0.0
C315 C 0.31197 0.82132 0.80623 0.0
N316 N 0.34042 0.8401 0.81682 0.0
N317 N 0.34433 0.81946 0.82054 0.0
C318 C 0.31017 0.86294 0.80264 0.0
H319 H 0.31639 0.86873 0.78703 0.0
H320 H 0.3143 0.87517 0.81493 0.0
H321 H 0.29235 0.86125 0.80169 0.0
C322 C 0.37514 0.87728 0.88381 0.0
N323 N 0.37711 0.87729 0.86242 0.0
N324 N 0.36195 0.865 0.8541 0.0
C325 C 0.34952 0.85715 0.87004 0.0
C326 C 0.35748 0.86475 0.88932 0.0
C327 C 0.39039 0.88832 0.89879 0.0
H328 H 0.40694 0.88836 0.89205 0.0
H329 H 0.38503 0.90524 0.90121 0.0
H330 H 0.39062 0.88014 0.91457 0.0
O331 O 0.41315 0.87241 0.82692 0.0
O332 O 0.38892 0.85077 0.81214 0.0
H333 H 0.33425 0.82716 0.86272 0.0
H334 H 0.31947 0.84356 0.88149 0.0
C335 C 0.32956 0.84394 0.86684 0.0
H336 H 0.31994 0.85069 0.8535 0.0
H337 H 0.35856 0.81364 0.82737 0.0
O338 O 0.41618 0.91131 0.85876 0.0
C339 C 0.40843 0.85659 0.81488 0.0
Co340 Co 0.1046 0.39197 0.8443 0.0
Co341 Co 0.13781 0.36105 0.82193 0.0
C342 C 0.08996 0.35382 0.81899 0.0
O343 O 0.08602 0.36972 0.83132 0.0
O344 O 0.1092 0.34885 0.81359 0.0
C345 C 0.06751 0.40968 0.86693 0.0
O346 O 0.05786 0.39138 0.86227 0.0
C347 C 0.16041 0.32126 0.80891 0.0
C348 C 0.19304 0.33404 0.80218 0.0
C349 C 0.18095 0.31522 0.80224 0.0
N350 N 0.16047 0.34266 0.81257 0.0
N351 N 0.17999 0.35018 0.80845 0.0
C352 C 0.14142 0.30696 0.8131 0.0
H353 H 0.13149 0.31369 0.82628 0.0
H354 H 0.14672 0.29036 0.81726 0.0
H355 H 0.13125 0.30624 0.79853 0.0
C356 C 0.13043 0.38034 0.88191 0.0
N357 N 0.12628 0.37904 0.8609 0.0
N358 N 0.13976 0.3653 0.85198 0.0
C359 C 0.15276 0.35707 0.86726 0.0
C360 C 0.14735 0.36649 0.88666 0.0
C361 C 0.11749 0.39372 0.89717 0.0
H362 H 0.1179 0.41086 0.89202 0.0
H363 H 0.10041 0.38832 0.89681 0.0
H364 H 0.12366 0.39247 0.91372 0.0
O365 O 0.11715 0.4096 0.82131 0.0
O366 O 0.14197 0.3887 0.80633 0.0
H367 H 0.18239 0.34769 0.85247 0.0
H368 H 0.17811 0.33573 0.87842 0.0
C369 C 0.1701 0.34072 0.86335 0.0
H370 H 0.16303 0.32635 0.85544 0.0
H371 H 0.18441 0.36637 0.81004 0.0
O372 O 0.08706 0.41245 0.86141 0.0
C373 C 0.13196 0.4066 0.80756 0.0
Co374 Co 0.61005 0.10518 0.8454 0.0
Co375 Co 0.64092 0.13658 0.82114 0.0
C376 C 0.64545 0.08878 0.81689 0.0
O377 O 0.62996 0.08576 0.82992 0.0
O378 O 0.65151 0.10771 0.81162 0.0
C379 C 0.58066 0.07343 0.85192 0.0
O380 O 0.5844 0.07272 0.83126 0.0
C381 C 0.68103 0.15801 0.80796 0.0
C382 C 0.66878 0.19029 0.79892 0.0
C383 C 0.68748 0.1781 0.80051 0.0
N384 N 0.65951 0.15841 0.81066 0.0
N385 N 0.65227 0.17768 0.80511 0.0
C386 C 0.695 0.13925 0.81395 0.0
H387 H 0.68714 0.12958 0.8267 0.0
H388 H 0.7111 0.14484 0.81944 0.0
H389 H 0.69722 0.12874 0.79976 0.0
C390 C 0.62596 0.12938 0.88251 0.0
N391 N 0.62568 0.12527 0.86146 0.0
N392 N 0.63886 0.13859 0.85155 0.0
C393 C 0.648 0.15176 0.86617 0.0
C394 C 0.64001 0.14639 0.88621 0.0
C395 C 0.61352 0.11662 0.89867 0.0
H396 H 0.61524 0.09913 0.89523 0.0
H397 H 0.61916 0.11985 0.91517 0.0
H398 H 0.59614 0.1208 0.89738 0.0
O399 O 0.59068 0.12019 0.82526 0.0
O400 O 0.61257 0.14202 0.80744 0.0
H401 H 0.6672 0.17955 0.87526 0.0
H402 H 0.67822 0.16304 0.85407 0.0
C403 C 0.66316 0.1698 0.86094 0.0
H404 H 0.65567 0.18049 0.84882 0.0
H405 H 0.63609 0.18231 0.80583 0.0
O406 O 0.59092 0.08708 0.86313 0.0
C407 C 0.59385 0.13436 0.81091 0.0
Co408 Co 0.89638 0.39577 0.65545 0.0
Co409 Co 0.86335 0.36363 0.67607 0.0
C410 C 0.91053 0.36246 0.68698 0.0
O411 O 0.91486 0.37773 0.67405 0.0
O412 O 0.8913 0.35563 0.68951 0.0
C413 C 0.93442 0.41198 0.63388 0.0
O414 O 0.94295 0.39309 0.63838 0.0
C415 C 0.84367 0.32434 0.69392 0.0
C416 C 0.80906 0.33317 0.69308 0.0
C417 C 0.82322 0.31713 0.69952 0.0
N418 N 0.84159 0.34377 0.68453 0.0
N419 N 0.82087 0.34885 0.68393 0.0
C420 C 0.86497 0.31451 0.69969 0.0
H421 H 0.87261 0.32442 0.71236 0.0
H422 H 0.87578 0.31472 0.68555 0.0
H423 H 0.86333 0.29778 0.70571 0.0
C424 C 0.87787 0.37782 0.616 0.0
N425 N 0.8795 0.37837 0.63737 0.0
N426 N 0.86568 0.36461 0.64575 0.0
C427 C 0.85491 0.35466 0.6298 0.0
C428 C 0.86218 0.36288 0.61048 0.0
C429 C 0.8912 0.3914 0.60125 0.0
H430 H 0.90854 0.38844 0.60452 0.0
H431 H 0.88796 0.38772 0.58422 0.0
H432 H 0.88786 0.40872 0.60439 0.0
O433 O 0.87759 0.41455 0.6729 0.0
O434 O 0.85411 0.39198 0.68758 0.0
H435 H 0.82281 0.34732 0.63981 0.0
H436 H 0.83218 0.33101 0.61784 0.0
C437 C 0.83701 0.33879 0.63306 0.0
H438 H 0.84215 0.32623 0.64463 0.0
H439 H 0.81487 0.36337 0.67791 0.0
O440 O 0.91495 0.41578 0.63908 0.0
C441 C 0.86136 0.41099 0.68485 0.0
Co442 Co 0.60054 0.89102 0.65151 0.0
Co443 Co 0.63435 0.86039 0.6732 0.0
C444 C 0.63307 0.90709 0.68389 0.0
O445 O 0.61709 0.90977 0.67131 0.0
O446 O 0.64201 0.88867 0.68614 0.0
C447 C 0.58311 0.9285 0.62943 0.0
O448 O 0.60167 0.93779 0.63376 0.0
C449 C 0.67486 0.83995 0.68808 0.0
C450 C 0.66583 0.80548 0.68572 0.0
C451 C 0.68272 0.81915 0.69087 0.0
N452 N 0.65427 0.83856 0.68138 0.0
N453 N 0.64895 0.81793 0.68021 0.0
C454 C 0.68698 0.8607 0.69033 0.0
H455 H 0.6816 0.87236 0.67797 0.0
H456 H 0.70466 0.85802 0.68895 0.0
H457 H 0.68344 0.86776 0.70624 0.0
C458 C 0.62119 0.87409 0.6125 0.0
N459 N 0.61931 0.8752 0.63387 0.0
N460 N 0.63371 0.86241 0.64277 0.0
C461 C 0.64545 0.8529 0.62722 0.0
C462 C 0.63776 0.85987 0.60758 0.0
C463 C 0.60793 0.88721 0.59728 0.0
H464 H 0.61029 0.90459 0.60083 0.0
H465 H 0.61246 0.88423 0.5804 0.0
H466 H 0.59058 0.88345 0.59966 0.0
O467 O 0.58218 0.87122 0.66795 0.0
O468 O 0.60603 0.85086 0.68508 0.0
H469 H 0.67145 0.83227 0.61602 0.0
H470 H 0.67508 0.84379 0.64231 0.0
C471 C 0.66314 0.83689 0.63103 0.0
H472 H 0.6562 0.82212 0.63829 0.0
H473 H 0.63385 0.81235 0.67527 0.0
O474 O 0.5801 0.90896 0.63484 0.0
C475 C 0.58661 0.85625 0.6811 0.0
Co476 Co 0.09992 0.61315 0.64377 0.0
Co477 Co 0.13576 0.63748 0.66937 0.0
C478 C 0.08825 0.64454 0.67766 0.0
O479 O 0.08272 0.63218 0.66234 0.0
O480 O 0.10804 0.64751 0.68252 0.0
C481 C 0.06082 0.59811 0.62283 0.0
O482 O 0.05096 0.61398 0.63279 0.0
C483 C 0.15949 0.67402 0.68786 0.0
C484 C 0.19279 0.66109 0.68816 0.0
C485 C 0.18064 0.67927 0.69286 0.0
N486 N 0.1592 0.65366 0.68043 0.0
N487 N 0.1791 0.64596 0.68083 0.0
C488 C 0.14017 0.68854 0.68828 0.0
H489 H 0.12912 0.68446 0.67492 0.0
H490 H 0.145 0.70576 0.68713 0.0
H491 H 0.13133 0.68605 0.70351 0.0
C492 C 0.12262 0.63309 0.60749 0.0
N493 N 0.12035 0.62938 0.62851 0.0
N494 N 0.13519 0.64018 0.63908 0.0
C495 C 0.14741 0.65127 0.62498 0.0
C496 C 0.13975 0.64721 0.60455 0.0
C497 C 0.10922 0.62237 0.59065 0.0
H498 H 0.10827 0.6048 0.59395 0.0
H499 H 0.09257 0.62899 0.59125 0.0
H500 H 0.11601 0.62477 0.57442 0.0
O501 O 0.11384 0.59099 0.6616 0.0
O502 O 0.14108 0.60712 0.67805 0.0
H503 H 0.17881 0.65673 0.63801 0.0
H504 H 0.1715 0.67537 0.61701 0.0
C505 C 0.16538 0.66621 0.63099 0.0
H506 H 0.15956 0.67784 0.64315 0.0
H507 H 0.18339 0.63053 0.67567 0.0
O508 O 0.08116 0.59619 0.62456 0.0
C509 C 0.13006 0.59031 0.674 0.0
Co510 Co 0.39294 0.10578 0.64316 0.0
Co511 Co 0.36317 0.13704 0.66945 0.0
C512 C 0.36104 0.08937 0.67564 0.0
O513 O 0.37567 0.08638 0.66165 0.0
O514 O 0.35443 0.10826 0.68039 0.0
C515 C 0.40522 0.06864 0.61853 0.0
O516 O 0.38596 0.06152 0.62384 0.0
C517 C 0.32579 0.15731 0.69074 0.0
C518 C 0.33698 0.19114 0.69309 0.0
C519 C 0.32007 0.17755 0.69843 0.0
N520 N 0.34521 0.15896 0.68124 0.0
N521 N 0.35172 0.17923 0.68258 0.0
C522 C 0.31432 0.13633 0.69414 0.0
H523 H 0.3239 0.12625 0.70532 0.0
H524 H 0.31323 0.1275 0.67875 0.0
H525 H 0.29797 0.13857 0.70097 0.0
C526 C 0.37101 0.12726 0.60719 0.0
N527 N 0.37468 0.12474 0.62819 0.0
N528 N 0.36203 0.13786 0.63903 0.0
C529 C 0.34978 0.14917 0.62514 0.0
C530 C 0.35504 0.14275 0.60453 0.0
C531 C 0.38291 0.11525 0.5901 0.0
H532 H 0.40038 0.11478 0.59396 0.0
H533 H 0.37693 0.09837 0.58953 0.0
H534 H 0.38068 0.12284 0.5742 0.0
O535 O 0.41371 0.12198 0.66078 0.0
O536 O 0.39265 0.14318 0.68034 0.0
H537 H 0.33996 0.17919 0.63881 0.0
H538 H 0.32248 0.16974 0.61768 0.0
C539 C 0.33243 0.1647 0.63154 0.0
H540 H 0.32187 0.1571 0.64372 0.0
H541 H 0.36646 0.18482 0.67673 0.0
O542 O 0.41076 0.08758 0.62406 0.0
C543 C 0.41127 0.13616 0.67527 0.0
H544 H 0.90076 0.5182 0.11069 0.0
H545 H 0.93124 0.4943 0.10291 0.0
H546 H 0.9748 0.54854 0.10625 0.0
H547 H 0.94448 0.57256 0.11349 0.0
H548 H 0.98855 0.52 0.07686 0.0
H549 H 0.96495 0.51847 0.15013 0.0
H550 H 0.93844 0.51401 0.17922 0.0
H551 H 0.92727 0.44844 0.15983 0.0
H552 H 0.9535 0.45264 0.1304 0.0
H553 H 0.08438 0.4734 0.12135 0.0
H554 H 0.05224 0.49408 0.11141 0.0
H555 H 0.01602 0.43495 0.10514 0.0
H556 H 0.04797 0.41417 0.11506 0.0
H557 H 0.99711 0.46345 0.13239 0.0
H558 H 0.02645 0.46503 0.06159 0.0
H559 H 0.0544 0.47122 0.03421 0.0
H560 H 0.05688 0.53839 0.05104 0.0
H561 H 0.02914 0.53256 0.07874 0.0
C562 C 0.91675 0.52512 0.10927 0.0
C563 C 0.92024 0.54721 0.11312 0.0
C564 C 0.93417 0.51143 0.10487 0.0
C565 C 0.95534 0.51958 0.10447 0.0
C566 C 0.95862 0.54188 0.10658 0.0
C567 C 0.94124 0.55558 0.11085 0.0
C568 C 0.97419 0.5048 0.10437 0.0
C569 C 0.99048 0.50764 0.089 0.0
C570 C 0.97662 0.48858 0.12014 0.0
C571 C 0.96098 0.48595 0.13792 0.0
C572 C 0.95672 0.50315 0.15198 0.0
C573 C 0.94176 0.50067 0.16854 0.0
C574 C 0.93113 0.48098 0.17133 0.0
C575 C 0.93548 0.46371 0.15761 0.0
C576 C 0.95039 0.46612 0.14099 0.0
C577 C 0.06971 0.46476 0.11743 0.0
C578 C 0.06868 0.44215 0.11925 0.0
C579 C 0.05137 0.47661 0.11167 0.0
C580 C 0.03175 0.46603 0.10755 0.0
C581 C 0.03099 0.44342 0.10829 0.0
C582 C 0.0493 0.43157 0.11397 0.0
C583 C 0.01154 0.47859 0.10487 0.0
C584 C 0.99504 0.47546 0.11993 0.0
C585 C 0.00916 0.49473 0.08905 0.0
C586 C 0.02582 0.49831 0.07236 0.0
C587 C 0.03308 0.48109 0.05958 0.0
C588 C 0.04886 0.48454 0.04397 0.0
C589 C 0.05744 0.50517 0.04092 0.0
C590 C 0.05022 0.52241 0.05343 0.0
C591 C 0.03445 0.51905 0.06907 0.0
H592 H 0.06966 0.50781 0.02883 0.0
H593 H 0.91955 0.47909 0.18416 0.0
H594 H 0.56924 0.06131 0.1037 0.0
H595 H 0.54817 0.02881 0.09591 0.0
H596 H 0.49395 0.05547 0.13023 0.0
H597 H 0.51477 0.08803 0.13797 0.0
H598 H 0.50765 0.01583 0.14568 0.0
H599 H 0.48907 0.04842 0.07894 0.0
H600 H 0.49589 0.06626 0.04438 0.0
H601 H 0.5319 0.01104 0.02303 0.0
H602 H 0.52557 0.99298 0.0576 0.0
H603 H 0.42938 0.93353 0.10596 0.0
H604 H 0.44907 0.9667 0.09758 0.0
H605 H 0.50681 0.93965 0.12524 0.0
H606 H 0.48732 0.90643 0.13369 0.0
H607 H 0.48954 0.98013 0.07699 0.0
H608 H 0.52225 0.97667 0.16237 0.0
H609 H 0.5138 0.95932 0.19689 0.0
H610 H 0.4464 0.9586 0.18079 0.0
H611 H 0.45443 0.97622 0.14635 0.0
C612 C 0.55266 0.06047 0.10917 0.0
C613 C 0.54376 0.07713 0.12168 0.0
C614 C 0.54063 0.04192 0.10464 0.0
C615 C 0.51957 0.03973 0.1126 0.0
C616 C 0.51022 0.05687 0.12399 0.0
C617 C 0.52214 0.07549 0.12835 0.0
C618 C 0.5083 0.01869 0.11137 0.0
C619 C 0.50367 0.0081 0.13064 0.0
C620 C 0.50313 0.00861 0.09175 0.0
C621 C 0.50703 0.01944 0.07096 0.0
C622 C 0.49863 0.04016 0.06696 0.0
C623 C 0.50237 0.0503 0.04735 0.0
C624 C 0.51437 0.03981 0.03154 0.0
C625 C 0.52263 0.01915 0.0353 0.0
C626 C 0.51895 0.00895 0.0549 0.0
C627 C 0.44642 0.93441 0.10974 0.0
C628 C 0.45669 0.91755 0.12091 0.0
C629 C 0.45767 0.95331 0.10479 0.0
C630 C 0.47926 0.95567 0.11107 0.0
C631 C 0.49009 0.93812 0.12039 0.0
C632 C 0.4789 0.91916 0.12523 0.0
C633 C 0.48925 0.97735 0.11126 0.0
C634 C 0.49364 0.98796 0.09194 0.0
C635 C 0.49407 0.98767 0.13083 0.0
C636 C 0.48899 0.97757 0.15173 0.0
C637 C 0.50563 0.97289 0.16626 0.0
C638 C 0.50091 0.963 0.18579 0.0
C639 C 0.47958 0.95782 0.191 0.0
C640 C 0.46292 0.96257 0.17671 0.0
C641 C 0.46755 0.97249 0.15718 0.0
H642 H 0.47596 0.95019 0.20613 0.0
H643 H 0.51724 0.04768 0.01636 0.0
H644 H 0.94789 0.42456 0.37181 0.0
H645 H 0.97799 0.44699 0.38289 0.0
H646 H 0.93543 0.50197 0.38814 0.0
H647 H 0.90507 0.47958 0.37633 0.0
H648 H 0.96921 0.51246 0.36603 0.0
H649 H 0.95967 0.47903 0.43285 0.0
H650 H 0.9534 0.44939 0.45838 0.0
H651 H 0.01391 0.42055 0.44074 0.0
H652 H 0.02039 0.44979 0.41479 0.0
H653 H 0.06316 0.57145 0.39209 0.0
H654 H 0.02909 0.55373 0.40098 0.0
H655 H 0.05501 0.49274 0.37981 0.0
H656 H 0.08912 0.51033 0.37059 0.0
H657 H 0.02653 0.49041 0.41698 0.0
H658 H 0.03057 0.52163 0.34512 0.0
H659 H 0.0355 0.55173 0.31976 0.0
H660 H 0.98312 0.58612 0.3492 0.0
H661 H 0.97817 0.55639 0.37502 0.0
C662 C 0.94478 0.44135 0.37559 0.0
C663 C 0.92408 0.45032 0.37301 0.0
C664 C 0.96204 0.45415 0.38214 0.0
C665 C 0.95898 0.47614 0.38662 0.0
C666 C 0.93816 0.48501 0.38483 0.0
C667 C 0.92083 0.4722 0.37811 0.0
C668 C 0.97799 0.49006 0.39094 0.0
C669 C 0.98144 0.50796 0.37762 0.0
C670 C 0.99408 0.48414 0.40594 0.0
C671 C 0.99047 0.46661 0.42177 0.0
C672 C 0.9716 0.46631 0.4343 0.0
C673 C 0.96801 0.44957 0.44887 0.0
C674 C 0.98324 0.43309 0.45117 0.0
C675 C 0.00213 0.43334 0.43895 0.0
C676 C 0.00578 0.45001 0.42432 0.0
C677 C 0.06186 0.55416 0.38982 0.0
C678 C 0.07874 0.54233 0.38029 0.0
C679 C 0.04235 0.54409 0.39492 0.0
C680 C 0.0395 0.52203 0.39078 0.0
C681 C 0.05694 0.50981 0.38308 0.0
C682 C 0.07638 0.5199 0.37775 0.0
C683 C 0.01775 0.51224 0.39169 0.0
C684 C 0.01392 0.49515 0.4059 0.0
C685 C 0.00113 0.51907 0.37772 0.0
C686 C 0.00421 0.53693 0.36221 0.0
C687 C 0.02027 0.53571 0.34635 0.0
C688 C 0.02304 0.55269 0.33186 0.0
C689 C 0.00968 0.57085 0.33292 0.0
C690 C 0.9935 0.57207 0.34844 0.0
C691 C 0.99072 0.55518 0.36302 0.0
H692 H 0.01179 0.58396 0.32168 0.0
H693 H 0.98042 0.42014 0.46244 0.0
H694 H 0.57556 0.95098 0.38029 0.0
H695 H 0.55193 0.98073 0.39017 0.0
H696 H 0.49727 0.93753 0.39048 0.0
H697 H 0.52087 0.90761 0.38005 0.0
H698 H 0.4889 0.97073 0.36667 0.0
H699 H 0.51483 0.96278 0.43704 0.0
H700 H 0.54085 0.9582 0.46648 0.0
H701 H 0.57002 0.0191 0.45098 0.0
H702 H 0.54435 0.02395 0.42126 0.0
H703 H 0.42243 0.06075 0.38985 0.0
H704 H 0.44172 0.02745 0.39854 0.0
H705 H 0.50214 0.05788 0.38232 0.0
H706 H 0.48298 0.09124 0.37326 0.0
H707 H 0.50319 0.02872 0.41948 0.0
H708 H 0.47869 0.03255 0.34555 0.0
H709 H 0.45124 0.03623 0.31726 0.0
H710 H 0.41766 0.9808 0.34162 0.0
H711 H 0.44464 0.9771 0.37041 0.0
C712 C 0.55858 0.94766 0.38282 0.0
C713 C 0.55006 0.92695 0.37911 0.0
C714 C 0.54508 0.96471 0.38868 0.0
C715 C 0.5228 0.9614 0.3912 0.0
C716 C 0.51441 0.94048 0.38863 0.0
C717 C 0.52793 0.92338 0.38269 0.0
C718 C 0.50816 0.98024 0.39377 0.0
C719 C 0.4917 0.9831 0.37861 0.0
C720 C 0.51196 0.9966 0.40913 0.0
C721 C 0.52772 0.99366 0.42679 0.0
C722 C 0.52691 0.97511 0.43976 0.0
C723 C 0.54158 0.97249 0.45654 0.0
C724 C 0.5571 0.98833 0.46058 0.0
C725 C 0.55799 0.00684 0.44783 0.0
C726 C 0.54335 0.00955 0.43104 0.0
C727 C 0.43988 0.06057 0.38859 0.0
C728 C 0.45117 0.07856 0.3806 0.0
C729 C 0.45084 0.04151 0.39356 0.0
C730 C 0.47327 0.04021 0.39085 0.0
C731 C 0.4848 0.05863 0.3845 0.0
C732 C 0.47382 0.07763 0.37927 0.0
C733 C 0.48442 0.01914 0.3922 0.0
C734 C 0.50021 0.016 0.40794 0.0
C735 C 0.47984 0.00235 0.37756 0.0
C736 C 0.46351 0.00475 0.36035 0.0
C737 C 0.4653 0.02132 0.34507 0.0
C738 C 0.44984 0.02338 0.32891 0.0
C739 C 0.43268 0.0088 0.32769 0.0
C740 C 0.43093 0.99213 0.34263 0.0
C741 C 0.44627 0.99007 0.35889 0.0
H742 H 0.42079 0.01034 0.31513 0.0
H743 H 0.56841 0.98628 0.4736 0.0
H744 H 0.97631 0.59499 0.88102 0.0
H745 H 0.00065 0.5649 0.88885 0.0
H746 H 0.94696 0.52062 0.88647 0.0
H747 H 0.92247 0.55059 0.87908 0.0
H748 H 0.97615 0.50815 0.91643 0.0
H749 H 0.97676 0.52983 0.84237 0.0
H750 H 0.98081 0.55567 0.81265 0.0
H751 H 0.04629 0.56812 0.83154 0.0
H752 H 0.04251 0.54256 0.86158 0.0
H753 H 0.02415 0.41161 0.87557 0.0
H754 H 0.00309 0.44372 0.88468 0.0
H755 H 0.06154 0.48149 0.88717 0.0
H756 H 0.0827 0.44955 0.87795 0.0
H757 H 0.03232 0.49887 0.86062 0.0
H758 H 0.0325 0.47233 0.9322 0.0
H759 H 0.0276 0.44555 0.96093 0.0
H760 H 0.96013 0.4408 0.94583 0.0
H761 H 0.96468 0.46734 0.91679 0.0
C762 C 0.9696 0.57892 0.88259 0.0
C763 C 0.9475 0.57515 0.87905 0.0
C764 C 0.98354 0.56173 0.88704 0.0
C765 C 0.97567 0.54047 0.88781 0.0
C766 C 0.9534 0.53688 0.88586 0.0
C767 C 0.93943 0.55405 0.88153 0.0
C768 C 0.99074 0.52183 0.88829 0.0
C769 C 0.9884 0.50604 0.90422 0.0
C770 C 0.00691 0.51925 0.8725 0.0
C771 C 0.00927 0.53449 0.85436 0.0
C772 C 0.99197 0.5382 0.84028 0.0
C773 C 0.99422 0.55278 0.82337 0.0
C774 C 0.01377 0.56358 0.82025 0.0
C775 C 0.03114 0.55977 0.834 0.0
C776 C 0.02895 0.54525 0.85097 0.0
C777 C 0.03258 0.42664 0.87848 0.0
C778 C 0.05508 0.42807 0.87577 0.0
C779 C 0.02051 0.44498 0.88379 0.0
C780 C 0.03075 0.46501 0.88661 0.0
C781 C 0.05331 0.46621 0.88501 0.0
C782 C 0.06538 0.44791 0.87973 0.0
C783 C 0.0178 0.48506 0.88877 0.0
C784 C 0.02039 0.5011 0.87314 0.0
C785 C 0.0018 0.48768 0.90472 0.0
C786 C 0.99898 0.47172 0.92219 0.0
C787 C 0.01665 0.46545 0.93488 0.0
C788 C 0.01393 0.45033 0.95125 0.0
C789 C 0.99358 0.44144 0.95517 0.0
C790 C 0.97589 0.44769 0.94276 0.0
C791 C 0.97853 0.46279 0.92636 0.0
H792 H 0.9915 0.42974 0.96786 0.0
H793 H 0.01549 0.57486 0.80715 0.0
H794 H 0.41111 0.9606 0.89905 0.0
H795 H 0.44069 0.98514 0.90859 0.0
H796 H 0.48181 0.95358 0.86235 0.0
H797 H 0.45302 0.92847 0.8539 0.0
H798 H 0.50535 0.96361 0.89318 0.0
H799 H 0.45046 0.00275 0.8527 0.0
H800 H 0.414 0.01756 0.84639 0.0
H801 H 0.4176 0.05302 0.90524 0.0
H802 H 0.45402 0.03823 0.91196 0.0
H803 H 0.55862 0.0415 0.83195 0.0
H804 H 0.53141 0.01756 0.84692 0.0
H805 H 0.53719 0.04925 0.90796 0.0
H806 H 0.56536 0.07303 0.89321 0.0
H807 H 0.49107 0.04183 0.88339 0.0
H808 H 0.55336 0.00687 0.91513 0.0
H809 H 0.59084 0.99343 0.91343 0.0
H810 H 0.57358 0.95069 0.86222 0.0
H811 H 0.53604 0.96401 0.86349 0.0
C812 C 0.4266 0.9588 0.8912 0.0
C813 C 0.42974 0.94275 0.87564 0.0
C814 C 0.44346 0.97286 0.89658 0.0
C815 C 0.46344 0.9715 0.88595 0.0
C816 C 0.46666 0.95497 0.87093 0.0
C817 C 0.4501 0.94065 0.86599 0.0
C818 C 0.4807 0.98792 0.88899 0.0
C819 C 0.50212 0.98072 0.89129 0.0
C820 C 0.47665 0.01038 0.88695 0.0
C821 C 0.45477 0.01916 0.88298 0.0
C822 C 0.44339 0.01359 0.86435 0.0
C823 C 0.42276 0.02199 0.86069 0.0
C824 C 0.41346 0.03616 0.87545 0.0
C825 C 0.4248 0.042 0.89386 0.0
C826 C 0.44542 0.03361 0.89761 0.0
C827 C 0.55443 0.04325 0.84864 0.0
C828 C 0.56435 0.05898 0.86146 0.0
C829 C 0.53879 0.02961 0.85713 0.0
C830 C 0.53246 0.03166 0.8785 0.0
C831 C 0.54203 0.04746 0.89142 0.0
C832 C 0.55808 0.06095 0.88299 0.0
C833 C 0.5154 0.01726 0.88662 0.0
C834 C 0.49409 0.02481 0.88631 0.0
C835 C 0.51953 0.99508 0.8897 0.0
C836 C 0.54189 0.98644 0.88942 0.0
C837 C 0.55757 0.99463 0.90349 0.0
C838 C 0.57882 0.98703 0.9026 0.0
C839 C 0.58458 0.97121 0.88772 0.0
C840 C 0.56908 0.9629 0.87377 0.0
C841 C 0.5478 0.97042 0.87461 0.0
H842 H 0.60106 0.9654 0.88702 0.0
H843 H 0.39749 0.04266 0.87259 0.0
H844 H 0.97667 0.41005 0.62087 0.0
H845 H 0.99964 0.44026 0.60996 0.0
H846 H 0.94555 0.48379 0.61624 0.0
H847 H 0.92244 0.45372 0.6265 0.0
H848 H 0.9694 0.49555 0.58341 0.0
H849 H 0.98242 0.47572 0.65683 0.0
H850 H 0.9926 0.4517 0.68661 0.0
H851 H 0.05528 0.4423 0.65872 0.0
H852 H 0.04531 0.46598 0.62855 0.0
H853 H 0.01682 0.59396 0.62023 0.0
H854 H 0.99673 0.56094 0.61233 0.0
H855 H 0.05628 0.52807 0.59743 0.0
H856 H 0.0765 0.56096 0.60512 0.0
H857 H 0.033 0.5087 0.62973 0.0
H858 H 0.02056 0.53434 0.55901 0.0
H859 H 0.00968 0.56046 0.53131 0.0
H860 H 0.94511 0.56128 0.55634 0.0
H861 H 0.95568 0.53539 0.58441 0.0
C862 C 0.9696 0.426 0.61961 0.0
C863 C 0.9478 0.42953 0.62484 0.0
C864 C 0.98276 0.44326 0.61343 0.0
C865 C 0.97441 0.46435 0.61267 0.0
C866 C 0.95238 0.46768 0.61675 0.0
C867 C 0.9392 0.45045 0.62273 0.0
C868 C 0.98875 0.48323 0.60931 0.0
C869 C 0.98328 0.49847 0.59356 0.0
C870 C 0.00711 0.48686 0.6223 0.0
C871 C 0.013 0.47236 0.64027 0.0
C872 C 0.99828 0.46834 0.65692 0.0
C873 C 0.00403 0.45482 0.67389 0.0
C874 C 0.02454 0.44541 0.67451 0.0
C875 C 0.03936 0.44953 0.65817 0.0
C876 C 0.03367 0.46298 0.64113 0.0
C877 C 0.0256 0.5799 0.61471 0.0
C878 C 0.04828 0.58001 0.61365 0.0
C879 C 0.01408 0.56104 0.61013 0.0
C880 C 0.02506 0.54205 0.6044 0.0
C881 C 0.04754 0.54256 0.60188 0.0
C882 C 0.05905 0.5614 0.60629 0.0
C883 C 0.01348 0.52115 0.60405 0.0
C884 C 0.01941 0.50557 0.61923 0.0
C885 C 0.99541 0.51743 0.59078 0.0
C886 C 0.98897 0.53302 0.57392 0.0
C887 C 0.00409 0.54022 0.55873 0.0
C888 C 0.99796 0.55496 0.54293 0.0
C889 C 0.97673 0.56255 0.54209 0.0
C890 C 0.96156 0.55539 0.55702 0.0
C891 C 0.9676 0.54066 0.57286 0.0
H892 H 0.97202 0.57396 0.52984 0.0
H893 H 0.02898 0.43499 0.68768 0.0
H894 H 0.40185 0.02492 0.61343 0.0
H895 H 0.43142 0.99952 0.60732 0.0
H896 H 0.47568 0.05263 0.59924 0.0
H897 H 0.44621 0.07821 0.60526 0.0
H898 H 0.48539 0.01664 0.57272 0.0
H899 H 0.47106 0.03341 0.64649 0.0
H900 H 0.44802 0.03738 0.6784 0.0
H901 H 0.43232 0.96989 0.67593 0.0
H902 H 0.455 0.9656 0.64376 0.0
H903 H 0.58345 0.97042 0.61521 0.0
H904 H 0.55216 0.99249 0.60528 0.0
H905 H 0.51037 0.93756 0.61427 0.0
H906 H 0.54141 0.91538 0.62401 0.0
H907 H 0.49857 0.97332 0.63816 0.0
H908 H 0.51668 0.95619 0.56591 0.0
H909 H 0.53977 0.95311 0.53397 0.0
H910 H 0.54947 0.02176 0.53391 0.0
H911 H 0.52668 0.02524 0.56606 0.0
C912 C 0.41774 0.03124 0.60979 0.0
C913 C 0.42177 0.05358 0.61022 0.0
C914 C 0.43462 0.01669 0.60632 0.0
C915 C 0.45576 0.02423 0.60319 0.0
C916 C 0.45948 0.04651 0.60169 0.0
C917 C 0.44262 0.06109 0.60525 0.0
C918 C 0.47425 0.00911 0.60444 0.0
C919 C 0.48842 0.00723 0.58703 0.0
C920 C 0.47799 0.99676 0.62309 0.0
C921 C 0.46451 0.99924 0.64257 0.0
C922 C 0.46254 0.01945 0.65264 0.0
C923 C 0.44957 0.02176 0.67079 0.0
C924 C 0.43866 0.00392 0.67915 0.0
C925 C 0.44075 0.98371 0.66941 0.0
C926 C 0.45366 0.98133 0.65122 0.0
C927 C 0.56765 0.96294 0.61469 0.0
C928 C 0.5649 0.9412 0.62062 0.0
C929 C 0.54981 0.97555 0.60892 0.0
C930 C 0.52897 0.96663 0.60907 0.0
C931 C 0.52633 0.94472 0.61407 0.0
C932 C 0.54412 0.93208 0.61963 0.0
C933 C 0.50975 0.9806 0.60635 0.0
C934 C 0.49549 0.98246 0.62368 0.0
C935 C 0.50613 0.993 0.5877 0.0
C936 C 0.52014 0.99095 0.56856 0.0
C937 C 0.52394 0.97061 0.55925 0.0
C938 C 0.53692 0.9688 0.54106 0.0
C939 C 0.54613 0.98722 0.53194 0.0
C940 C 0.54235 0.0075 0.541 0.0
C941 C 0.52939 0.0094 0.5592 0.0
H942 H 0.55613 0.98579 0.51783 0.0
H943 H 0.42863 0.00573 0.6932 0.0
H944 H 0.22212 0.32626 0.18961 0.0
H945 H 0.25359 0.31174 0.20882 0.0
H946 H 0.21093 0.27772 0.25172 0.0
H947 H 0.17968 0.29232 0.2328 0.0
H948 H 0.2459 0.29561 0.27279 0.0
H949 H 0.23108 0.2529 0.2085 0.0
H950 H 0.22726 0.24833 0.16954 0.0
H951 H 0.29218 0.27089 0.16036 0.0
H952 H 0.29625 0.27584 0.19929 0.0
H953 H 0.28081 0.19456 0.30594 0.0
H954 H 0.26447 0.22693 0.29063 0.0
H955 H 0.32471 0.24262 0.25965 0.0
H956 H 0.34116 0.20999 0.27491 0.0
H957 H 0.29031 0.24302 0.23214 0.0
H958 H 0.30764 0.27546 0.29796 0.0
H959 H 0.3112 0.27879 0.33703 0.0
H960 H 0.24228 0.27552 0.34387 0.0
H961 H 0.23829 0.27181 0.30487 0.0
C962 C 0.21957 0.31613 0.20349 0.0
C963 C 0.19858 0.31052 0.20993 0.0
C964 C 0.23749 0.30776 0.21434 0.0
C965 C 0.23455 0.29367 0.23169 0.0
C966 C 0.21355 0.2887 0.23849 0.0
C967 C 0.19574 0.29691 0.22761 0.0
C968 C 0.25298 0.28237 0.24178 0.0
C969 C 0.25574 0.28419 0.26395 0.0
C970 C 0.26631 0.26806 0.23007 0.0
C971 C 0.26387 0.26502 0.20673 0.0
C972 C 0.24447 0.25705 0.19814 0.0
C973 C 0.24227 0.25436 0.17608 0.0
C974 C 0.25944 0.25939 0.16247 0.0
C975 C 0.27887 0.26705 0.17091 0.0
C976 C 0.28114 0.26981 0.19297 0.0
C977 C 0.29066 0.20509 0.29613 0.0
C978 C 0.31228 0.19994 0.2918 0.0
C979 C 0.28138 0.22365 0.28752 0.0
C980 C 0.29349 0.23735 0.27427 0.0
C981 C 0.3152 0.23239 0.27007 0.0
C982 C 0.32459 0.21386 0.2789 0.0
C983 C 0.28253 0.25551 0.26334 0.0
C984 C 0.28113 0.25498 0.24099 0.0
C985 C 0.27046 0.27099 0.27491 0.0
C986 C 0.27268 0.27329 0.29844 0.0
C987 C 0.29324 0.2753 0.30779 0.0
C988 C 0.29533 0.27728 0.32994 0.0
C989 C 0.27698 0.27736 0.34292 0.0
C990 C 0.25649 0.27548 0.33379 0.0
C991 C 0.2543 0.27348 0.31165 0.0
H992 H 0.27863 0.27889 0.36007 0.0
H993 H 0.25772 0.25729 0.1454 0.0
H994 H 0.80172 0.32452 0.26295 0.0
H995 H 0.7715 0.30631 0.24547 0.0
H996 H 0.75126 0.28032 0.30635 0.0
H997 H 0.78242 0.29742 0.32346 0.0
H998 H 0.75198 0.24999 0.28066 0.0
H999 H 0.72086 0.31967 0.27591 0.0
H1000 H 0.7188 0.35871 0.26842 0.0
H1001 H 0.73014 0.34663 0.20182 0.0
H1002 H 0.73261 0.30754 0.20893 0.0
H1003 H 0.6642 0.19767 0.2296 0.0
H1004 H 0.6806 0.22684 0.25053 0.0
H1005 H 0.72401 0.24073 0.19842 0.0
H1006 H 0.70785 0.2114 0.17754 0.0
H1007 H 0.70571 0.27898 0.22266 0.0
H1008 H 0.74289 0.20935 0.23145 0.0
H1009 H 0.74313 0.1705 0.2402 0.0
H1010 H 0.71687 0.18429 0.30222 0.0
H1011 H 0.71618 0.22322 0.29368 0.0
C1012 C 0.7905 0.31525 0.27256 0.0
C1013 C 0.79418 0.31231 0.29445 0.0
C1014 C 0.77313 0.30498 0.26264 0.0
C1015 C 0.75882 0.29211 0.27459 0.0
C1016 C 0.76204 0.2901 0.29674 0.0
C1017 C 0.77975 0.29988 0.30653 0.0
C1018 C 0.7422 0.27877 0.26368 0.0
C1019 C 0.74151 0.2566 0.2684 0.0
C1020 C 0.72862 0.28713 0.24741 0.0
C1021 C 0.72706 0.31065 0.243 0.0
C1022 C 0.72307 0.32534 0.25968 0.0
C1023 C 0.72181 0.34748 0.2555 0.0
C1024 C 0.72438 0.35515 0.23466 0.0
C1025 C 0.72816 0.34067 0.21795 0.0
C1026 C 0.72946 0.31851 0.22205 0.0
C1027 C 0.67681 0.20737 0.22241 0.0
C1028 C 0.68474 0.20247 0.20196 0.0
C1029 C 0.68616 0.22396 0.23437 0.0
C1030 C 0.7034 0.23591 0.22592 0.0
C1031 C 0.71056 0.23178 0.20507 0.0
C1032 C 0.70146 0.21498 0.19326 0.0
C1033 C 0.71593 0.25061 0.23969 0.0
C1034 C 0.71589 0.27281 0.23537 0.0
C1035 C 0.72856 0.24246 0.25663 0.0
C1036 C 0.72924 0.21912 0.26184 0.0
C1037 C 0.737 0.20406 0.24688 0.0
C1038 C 0.73724 0.18204 0.25181 0.0
C1039 C 0.72995 0.17492 0.27173 0.0
C1040 C 0.72247 0.18982 0.28678 0.0
C1041 C 0.72215 0.21186 0.28191 0.0
H1042 H 0.73016 0.15787 0.27552 0.0
H1043 H 0.7234 0.3723 0.23146 0.0
H1044 H 0.66498 0.79445 0.27471 0.0
H1045 H 0.68403 0.76436 0.25751 0.0
H1046 H 0.74158 0.78007 0.29299 0.0
H1047 H 0.72264 0.80971 0.31052 0.0
H1048 H 0.7464 0.78 0.24814 0.0
H1049 H 0.7161 0.73588 0.30482 0.0
H1050 H 0.68623 0.72015 0.32571 0.0
H1051 H 0.66097 0.69038 0.26904 0.0
H1052 H 0.69054 0.70622 0.24774 0.0
H1053 H 0.82557 0.70401 0.23352 0.0
H1054 H 0.79655 0.72407 0.25094 0.0
H1055 H 0.75015 0.69559 0.20799 0.0
H1056 H 0.77938 0.67535 0.19037 0.0
H1057 H 0.73482 0.70076 0.25159 0.0
H1058 H 0.76582 0.74225 0.19524 0.0
H1059 H 0.79532 0.75779 0.17371 0.0
H1060 H 0.81789 0.79311 0.22832 0.0
H1061 H 0.78873 0.7775 0.25029 0.0
C1062 C 0.68142 0.791 0.27943 0.0
C1063 C 0.69228 0.80434 0.2941 0.0
C1064 C 0.69232 0.7739 0.26947 0.0
C1065 C 0.71418 0.77008 0.274 0.0
C1066 C 0.72471 0.78282 0.28928 0.0
C1067 C 0.71387 0.79975 0.29924 0.0
C1068 C 0.72698 0.75447 0.26141 0.0
C1069 C 0.74392 0.76267 0.24898 0.0
C1070 C 0.72312 0.73196 0.26183 0.0
C1071 C 0.70537 0.72247 0.27464 0.0
C1072 C 0.70405 0.72618 0.29677 0.0
C1073 C 0.6872 0.71719 0.30869 0.0
C1074 C 0.67167 0.70434 0.29869 0.0
C1075 C 0.67299 0.70038 0.27676 0.0
C1076 C 0.68979 0.70935 0.26475 0.0
C1077 C 0.80913 0.70174 0.22803 0.0
C1078 C 0.80464 0.68808 0.21073 0.0
C1079 C 0.79259 0.71316 0.23799 0.0
C1080 C 0.77128 0.71142 0.2306 0.0
C1081 C 0.76651 0.69701 0.21396 0.0
C1082 C 0.78315 0.68545 0.20399 0.0
C1083 C 0.75472 0.72635 0.23909 0.0
C1084 C 0.73706 0.71811 0.25054 0.0
C1085 C 0.7577 0.74895 0.23764 0.0
C1086 C 0.77516 0.75858 0.22445 0.0
C1087 C 0.77717 0.75321 0.2027 0.0
C1088 C 0.79381 0.76205 0.19041 0.0
C1089 C 0.80849 0.7764 0.19965 0.0
C1090 C 0.80651 0.78198 0.22119 0.0
C1091 C 0.78991 0.77316 0.23356 0.0
H1092 H 0.82137 0.78323 0.19011 0.0
H1093 H 0.65864 0.69739 0.30796 0.0
H1094 H 0.18745 0.71728 0.30624 0.0
H1095 H 0.21658 0.73704 0.28879 0.0
H1096 H 0.23664 0.67892 0.2564 0.0
H1097 H 0.20725 0.65894 0.2738 0.0
H1098 H 0.27195 0.70698 0.271 0.0
H1099 H 0.20772 0.70931 0.22885 0.0
H1100 H 0.16867 0.7137 0.2225 0.0
H1101 H 0.17199 0.77934 0.24436 0.0
H1102 H 0.21101 0.77523 0.25118 0.0
H1103 H 0.32601 0.77751 0.19373 0.0
H1104 H 0.30548 0.74804 0.21041 0.0
H1105 H 0.27056 0.7945 0.24847 0.0
H1106 H 0.29116 0.82379 0.23221 0.0
H1107 H 0.24416 0.76691 0.22604 0.0
H1108 H 0.30798 0.76312 0.27096 0.0
H1109 H 0.34696 0.75843 0.27756 0.0
H1110 H 0.34463 0.69521 0.24947 0.0
H1111 H 0.30566 0.69966 0.24243 0.0
C1112 C 0.19826 0.70861 0.29567 0.0
C1113 C 0.19512 0.68659 0.29141 0.0
C1114 C 0.21491 0.71989 0.28577 0.0
C1115 C 0.22857 0.70944 0.27119 0.0
C1116 C 0.22628 0.68719 0.2677 0.0
C1117 C 0.20955 0.6758 0.27771 0.0
C1118 C 0.24362 0.72252 0.25823 0.0
C1119 C 0.26597 0.71984 0.26081 0.0
C1120 C 0.23571 0.73925 0.24501 0.0
C1121 C 0.21228 0.74191 0.24065 0.0
C1122 C 0.2001 0.72464 0.23244 0.0
C1123 C 0.17797 0.72708 0.22874 0.0
C1124 C 0.16785 0.74677 0.23306 0.0
C1125 C 0.17985 0.76409 0.24103 0.0
C1126 C 0.20198 0.76172 0.24479 0.0
C1127 C 0.31441 0.78131 0.20612 0.0
C1128 C 0.31039 0.80287 0.21199 0.0
C1129 C 0.30261 0.76452 0.2155 0.0
C1130 C 0.28658 0.76914 0.2307 0.0
C1131 C 0.28286 0.79062 0.23675 0.0
C1132 C 0.29462 0.80732 0.22747 0.0
C1133 C 0.27252 0.75201 0.23944 0.0
C1134 C 0.25025 0.75385 0.23592 0.0
C1135 C 0.28059 0.73452 0.25163 0.0
C1136 C 0.30397 0.73184 0.25592 0.0
C1137 C 0.31582 0.74831 0.266 0.0
C1138 C 0.3379 0.74567 0.26987 0.0
C1139 C 0.34828 0.72656 0.26387 0.0
C1140 C 0.33658 0.71002 0.25406 0.0
C1141 C 0.3145 0.71259 0.25014 0.0
H1142 H 0.36538 0.72455 0.26688 0.0
H1143 H 0.15071 0.74863 0.23019 0.0
H1144 H 0.70592 0.83413 0.72492 0.0
H1145 H 0.73738 0.81667 0.74122 0.0
H1146 H 0.73872 0.77014 0.68988 0.0
H1147 H 0.70696 0.78716 0.67401 0.0
H1148 H 0.73596 0.75047 0.72581 0.0
H1149 H 0.78078 0.80647 0.69859 0.0
H1150 H 0.79244 0.84385 0.69149 0.0
H1151 H 0.79874 0.85533 0.75884 0.0
H1152 H 0.78681 0.8181 0.76637 0.0
H1153 H 0.84063 0.70841 0.7704 0.0
H1154 H 0.82368 0.73766 0.74997 0.0
H1155 H 0.76922 0.73676 0.79292 0.0
H1156 H 0.78599 0.70761 0.81331 0.0
H1157 H 0.80307 0.78017 0.75763 0.0
H1158 H 0.72592 0.72858 0.76178 0.0
H1159 H 0.71553 0.69054 0.76745 0.0
H1160 H 0.77618 0.66959 0.74138 0.0
H1161 H 0.78676 0.70748 0.73522 0.0
C1162 C 0.71341 0.82061 0.71681 0.0
C1163 C 0.70409 0.81189 0.69828 0.0
C1164 C 0.73141 0.81066 0.72609 0.0
C1165 C 0.74042 0.79206 0.71678 0.0
C1166 C 0.73198 0.78439 0.6974 0.0
C1167 C 0.71386 0.7941 0.68835 0.0
C1168 C 0.75621 0.77868 0.72872 0.0
C1169 C 0.75072 0.75703 0.73252 0.0
C1170 C 0.77553 0.78711 0.7375 0.0
C1171 C 0.78273 0.80952 0.73305 0.0
C1172 C 0.78448 0.81701 0.7119 0.0
C1173 C 0.79117 0.83817 0.7078 0.0
C1174 C 0.79629 0.85197 0.72471 0.0
C1175 C 0.79476 0.84462 0.74576 0.0
C1176 C 0.78806 0.82348 0.74995 0.0
C1177 C 0.82547 0.71506 0.77597 0.0
C1178 C 0.81457 0.70578 0.7934 0.0
C1179 C 0.81581 0.73175 0.76428 0.0
C1180 C 0.79517 0.73918 0.76988 0.0
C1181 C 0.78514 0.73114 0.78833 0.0
C1182 C 0.79467 0.71445 0.79988 0.0
C1183 C 0.78244 0.75237 0.75477 0.0
C1184 C 0.78841 0.7738 0.75056 0.0
C1185 C 0.76368 0.74374 0.74518 0.0
C1186 C 0.7572 0.72087 0.74823 0.0
C1187 C 0.73698 0.71585 0.75714 0.0
C1188 C 0.73106 0.69432 0.76046 0.0
C1189 C 0.74521 0.67766 0.75484 0.0
C1190 C 0.76526 0.6825 0.74579 0.0
C1191 C 0.77123 0.704 0.7424 0.0
H1192 H 0.74062 0.66101 0.75746 0.0
H1193 H 0.80147 0.86834 0.72149 0.0
H1194 H 0.16432 0.70459 0.72483 0.0
H1195 H 0.18201 0.73558 0.74168 0.0
H1196 H 0.23448 0.73064 0.6965 0.0
H1197 H 0.21711 0.69939 0.68004 0.0
H1198 H 0.24938 0.7303 0.73486 0.0
H1199 H 0.19884 0.77434 0.69701 0.0
H1200 H 0.1629 0.78625 0.68483 0.0
H1201 H 0.14429 0.79927 0.74964 0.0
H1202 H 0.18003 0.78714 0.76226 0.0
H1203 H 0.29327 0.83655 0.76949 0.0
H1204 H 0.26449 0.81892 0.74912 0.0
H1205 H 0.25703 0.7718 0.79929 0.0
H1206 H 0.28561 0.78938 0.81977 0.0
H1207 H 0.21954 0.80168 0.75577 0.0
H1208 H 0.2666 0.72428 0.77483 0.0
H1209 H 0.30328 0.71333 0.78585 0.0
H1210 H 0.32992 0.7687 0.75405 0.0
H1211 H 0.29346 0.77973 0.74253 0.0
C1212 C 0.17934 0.71052 0.71819 0.0
C1213 C 0.1894 0.69971 0.70116 0.0
C1214 C 0.18941 0.72824 0.72778 0.0
C1215 C 0.20953 0.7355 0.72029 0.0
C1216 C 0.219 0.72529 0.70258 0.0
C1217 C 0.2091 0.70745 0.69322 0.0
C1218 C 0.22204 0.75179 0.7324 0.0
C1219 C 0.24282 0.74595 0.73922 0.0
C1220 C 0.21355 0.77225 0.73814 0.0
C1221 C 0.19208 0.77966 0.7306 0.0
C1222 C 0.18704 0.77958 0.70869 0.0
C1223 C 0.16671 0.7864 0.7017 0.0
C1224 C 0.15131 0.79347 0.71645 0.0
C1225 C 0.15623 0.79378 0.73823 0.0
C1226 C 0.17654 0.78696 0.74531 0.0
C1227 C 0.28481 0.82305 0.77661 0.0
C1228 C 0.29163 0.81428 0.7962 0.0
C1229 C 0.26839 0.813 0.76494 0.0
C1230 C 0.25881 0.79404 0.7727 0.0
C1231 C 0.26429 0.78643 0.79309 0.0
C1232 C 0.28068 0.79639 0.80468 0.0
C1233 C 0.24652 0.77989 0.75817 0.0
C1234 C 0.22594 0.78607 0.7511 0.0
C1235 C 0.25523 0.75981 0.75178 0.0
C1236 C 0.27729 0.75293 0.75803 0.0
C1237 C 0.28031 0.73403 0.7701 0.0
C1238 C 0.30106 0.72782 0.77644 0.0
C1239 C 0.31891 0.74035 0.77071 0.0
C1240 C 0.31607 0.75905 0.75853 0.0
C1241 C 0.29537 0.76529 0.75211 0.0
H1242 H 0.33495 0.73554 0.77568 0.0
H1243 H 0.13558 0.79874 0.71101 0.0
H1244 H 0.32032 0.20064 0.73495 0.0
H1245 H 0.28933 0.21438 0.75486 0.0
H1246 H 0.24612 0.18334 0.71036 0.0
H1247 H 0.27735 0.16982 0.69009 0.0
H1248 H 0.23586 0.2251 0.71638 0.0
H1249 H 0.24798 0.16525 0.7614 0.0
H1250 H 0.26881 0.13912 0.7828 0.0
H1251 H 0.28901 0.18993 0.82493 0.0
H1252 H 0.26859 0.21645 0.80362 0.0
H1253 H 0.16013 0.28379 0.77903 0.0
H1254 H 0.17613 0.25081 0.76426 0.0
H1255 H 0.23672 0.26637 0.79458 0.0
H1256 H 0.2207 0.29892 0.80976 0.0
H1257 H 0.22907 0.22297 0.79534 0.0
H1258 H 0.22581 0.28249 0.74362 0.0
H1259 H 0.20627 0.30926 0.72172 0.0
H1260 H 0.16993 0.25839 0.69207 0.0
H1261 H 0.18912 0.23135 0.71401 0.0
C1262 C 0.3042 0.19648 0.72962 0.0
C1263 C 0.30115 0.1839 0.71125 0.0
C1264 C 0.28651 0.20416 0.74109 0.0
C1265 C 0.2654 0.19952 0.73434 0.0
C1266 C 0.26228 0.18682 0.71601 0.0
C1267 C 0.28007 0.179 0.70456 0.0
C1268 C 0.24694 0.20993 0.74536 0.0
C1269 C 0.2339 0.22412 0.73358 0.0
C1270 C 0.2445 0.20877 0.76781 0.0
C1271 C 0.25676 0.19288 0.78084 0.0
C1272 C 0.25697 0.17089 0.77515 0.0
C1273 C 0.26869 0.156 0.78728 0.0
C1274 C 0.28023 0.16286 0.80521 0.0
C1275 C 0.28004 0.18463 0.81106 0.0
C1276 C 0.26835 0.1996 0.79897 0.0
C1277 C 0.17661 0.27977 0.78315 0.0
C1278 C 0.18916 0.29383 0.79566 0.0
C1279 C 0.18579 0.26103 0.77454 0.0
C1280 C 0.20766 0.25623 0.77821 0.0
C1281 C 0.2198 0.2697 0.79162 0.0
C1282 C 0.21068 0.28837 0.80015 0.0
C1283 C 0.21884 0.23875 0.76643 0.0
C1284 C 0.2305 0.22329 0.77807 0.0
C1285 C 0.22007 0.23874 0.74385 0.0
C1286 C 0.20866 0.25496 0.73062 0.0
C1287 C 0.21354 0.27705 0.73253 0.0
C1288 C 0.20255 0.29226 0.72011 0.0
C1289 C 0.18681 0.28554 0.70557 0.0
C1290 C 0.18208 0.26358 0.70338 0.0
C1291 C 0.193 0.24831 0.7158 0.0
H1292 H 0.17832 0.29733 0.69596 0.0
H1293 H 0.28931 0.1513 0.81457 0.0
H1294 H 0.83493 0.27487 0.69336 0.0
H1295 H 0.82264 0.24341 0.71398 0.0
H1296 H 0.78456 0.28541 0.75415 0.0
H1297 H 0.7972 0.31671 0.73403 0.0
H1298 H 0.80417 0.25362 0.77739 0.0
H1299 H 0.76275 0.2603 0.71064 0.0
H1300 H 0.75954 0.26081 0.67135 0.0
H1301 H 0.78823 0.19773 0.66794 0.0
H1302 H 0.79181 0.19698 0.70723 0.0
H1303 H 0.70341 0.21799 0.80768 0.0
H1304 H 0.73704 0.23322 0.79434 0.0
H1305 H 0.75429 0.17153 0.76712 0.0
H1306 H 0.72018 0.15628 0.7801 0.0
H1307 H 0.75647 0.20294 0.73821 0.0
H1308 H 0.78574 0.19295 0.80689 0.0
H1309 H 0.78696 0.19295 0.84624 0.0
H1310 H 0.78049 0.26199 0.84682 0.0
H1311 H 0.77889 0.26242 0.80749 0.0
C1312 C 0.8244 0.27733 0.70696 0.0
C1313 C 0.81718 0.29814 0.71235 0.0
C1314 C 0.81729 0.2594 0.7186 0.0
C1315 C 0.80272 0.26211 0.7356 0.0
C1316 C 0.79596 0.28298 0.74123 0.0
C1317 C 0.80302 0.30081 0.72963 0.0
C1318 C 0.79275 0.24342 0.74653 0.0
C1319 C 0.79384 0.24238 0.7689 0.0
C1320 C 0.78 0.22825 0.73533 0.0
C1321 C 0.77781 0.22871 0.71178 0.0
C1322 C 0.76851 0.24662 0.70148 0.0
C1323 C 0.76661 0.24694 0.67923 0.0
C1324 C 0.77376 0.22934 0.66715 0.0
C1325 C 0.78276 0.21137 0.67731 0.0
C1326 C 0.78473 0.21099 0.69956 0.0
C1327 C 0.71457 0.20755 0.79922 0.0
C1328 C 0.70929 0.18593 0.79508 0.0
C1329 C 0.7339 0.2162 0.79179 0.0
C1330 C 0.74837 0.20341 0.78003 0.0
C1331 C 0.74347 0.18158 0.77642 0.0
C1332 C 0.72407 0.17286 0.78397 0.0
C1333 C 0.76686 0.21393 0.76923 0.0
C1334 C 0.76744 0.21347 0.74683 0.0
C1335 C 0.78107 0.22776 0.78045 0.0
C1336 C 0.78219 0.22769 0.80417 0.0
C1337 C 0.78447 0.20813 0.81539 0.0
C1338 C 0.78523 0.20806 0.83771 0.0
C1339 C 0.78381 0.22745 0.84902 0.0
C1340 C 0.78164 0.24697 0.83803 0.0
C1341 C 0.78085 0.24714 0.81571 0.0
H1342 H 0.78439 0.22736 0.8663 0.0
H1343 H 0.77226 0.22962 0.64993 0.0
H1344 H 0.14336 0.3233 0.0835 0.0
H1345 H 0.1538 0.32099 0.04567 0.0
H1346 H 0.17461 0.38749 0.04747 0.0
H1347 H 0.16386 0.38981 0.08502 0.0
H1348 H 0.14324 0.38058 0.01864 0.0
H1349 H 0.21042 0.34705 0.03792 0.0
H1350 H 0.23361 0.31999 0.05547 0.0
H1351 H 0.20318 0.26944 0.01949 0.0
H1352 H 0.17956 0.29618 0.00193 0.0
H1353 H 0.16844 0.39454 0.91226 0.0
H1354 H 0.17649 0.38983 0.95028 0.0
H1355 H 0.15331 0.3242 0.94722 0.0
H1356 H 0.14556 0.32887 0.90897 0.0
H1357 H 0.18789 0.32944 0.97646 0.0
H1358 H 0.11798 0.36011 0.96192 0.0
H1359 H 0.09203 0.38531 0.94539 0.0
H1360 H 0.12547 0.43906 0.97332 0.0
H1361 H 0.15161 0.41413 0.99007 0.0
C1362 C 0.15081 0.33712 0.07588 0.0
C1363 C 0.15271 0.35677 0.08685 0.0
C1364 C 0.15683 0.33581 0.05437 0.0
C1365 C 0.16493 0.3541 0.04378 0.0
C1366 C 0.16837 0.37321 0.05535 0.0
C1367 C 0.16225 0.37454 0.07672 0.0
C1368 C 0.16638 0.35459 0.02018 0.0
C1369 C 0.15341 0.36968 0.00949 0.0
C1370 C 0.17885 0.33972 0.00823 0.0
C1371 C 0.19307 0.32362 0.01874 0.0
C1372 C 0.20853 0.33015 0.03388 0.0
C1373 C 0.22179 0.31487 0.04381 0.0
C1374 C 0.21984 0.293 0.03864 0.0
C1375 C 0.20466 0.28638 0.02349 0.0
C1376 C 0.19135 0.3016 0.01353 0.0
C1377 C 0.1657 0.37895 0.91963 0.0
C1378 C 0.1563 0.3621 0.90797 0.0
C1379 C 0.17026 0.37626 0.94127 0.0
C1380 C 0.16518 0.35677 0.95157 0.0
C1381 C 0.15736 0.33934 0.93952 0.0
C1382 C 0.15291 0.34201 0.91777 0.0
C1383 C 0.16518 0.35576 0.97518 0.0
C1384 C 0.17808 0.34049 0.98577 0.0
C1385 C 0.15238 0.37023 0.98722 0.0
C1386 C 0.13685 0.38529 0.97705 0.0
C1387 C 0.11986 0.37731 0.96443 0.0
C1388 C 0.10506 0.39153 0.95512 0.0
C1389 C 0.10714 0.41378 0.95824 0.0
C1390 C 0.12392 0.42183 0.97086 0.0
C1391 C 0.13867 0.40766 0.98033 0.0
H1392 H 0.09573 0.42476 0.95092 0.0
H1393 H 0.23012 0.2812 0.04634 0.0
H1394 H 0.61142 0.16375 0.91398 0.0
H1395 H 0.61824 0.17463 0.95085 0.0
H1396 H 0.6863 0.1622 0.94217 0.0
H1397 H 0.67932 0.15093 0.90516 0.0
H1398 H 0.67049 0.14038 0.97512 0.0
H1399 H 0.66882 0.21348 0.95369 0.0
H1400 H 0.65571 0.24593 0.93493 0.0
H1401 H 0.59631 0.24331 0.97026 0.0
H1402 H 0.6089 0.21065 0.98901 0.0
H1403 H 0.67115 0.15239 0.08705 0.0
H1404 H 0.68082 0.16269 0.05045 0.0
H1405 H 0.61345 0.17302 0.036 0.0
H1406 H 0.60388 0.16349 0.07274 0.0
H1407 H 0.63902 0.20203 0.01508 0.0
H1408 H 0.63688 0.12428 0.02756 0.0
H1409 H 0.64833 0.09079 0.04564 0.0
H1410 H 0.71384 0.1019 0.02595 0.0
H1411 H 0.70278 0.13566 0.00799 0.0
C1412 C 0.62788 0.16383 0.91986 0.0
C1413 C 0.64485 0.15643 0.90698 0.0
C1414 C 0.63182 0.17024 0.94083 0.0
C1415 C 0.65283 0.16943 0.94922 0.0
C1416 C 0.67 0.16309 0.93595 0.0
C1417 C 0.66604 0.15672 0.91488 0.0
C1418 C 0.656 0.17194 0.97253 0.0
C1419 C 0.66427 0.15421 0.98383 0.0
C1420 C 0.6475 0.18979 0.98391 0.0
C1421 C 0.63982 0.20953 0.97274 0.0
C1422 C 0.65291 0.21973 0.95738 0.0
C1423 C 0.64557 0.23819 0.94675 0.0
C1424 C 0.62519 0.24667 0.95139 0.0
C1425 C 0.61211 0.23673 0.96669 0.0
C1426 C 0.61936 0.21826 0.97736 0.0
C1427 C 0.65852 0.15741 0.07616 0.0
C1428 C 0.63677 0.1569 0.08248 0.0
C1429 C 0.66403 0.16322 0.0553 0.0
C1430 C 0.64782 0.16833 0.04046 0.0
C1431 C 0.62621 0.16913 0.04719 0.0
C1432 C 0.62073 0.16346 0.06806 0.0
C1433 C 0.65278 0.17019 0.01741 0.0
C1434 C 0.64597 0.18865 0.00626 0.0
C1435 C 0.66246 0.15295 0.00607 0.0
C1436 C 0.66907 0.1326 0.01669 0.0
C1437 C 0.65374 0.11965 0.02722 0.0
C1438 C 0.66016 0.10062 0.03743 0.0
C1439 C 0.68181 0.09425 0.037 0.0
C1440 C 0.69708 0.10688 0.02631 0.0
C1441 C 0.69076 0.12596 0.01612 0.0
H1442 H 0.68675 0.07951 0.04491 0.0
H1443 H 0.61953 0.26096 0.94314 0.0
H1444 H 0.86325 0.68388 0.90694 0.0
H1445 H 0.85496 0.69465 0.94385 0.0
H1446 H 0.83288 0.62995 0.95734 0.0
H1447 H 0.84096 0.61933 0.92052 0.0
H1448 H 0.8085 0.66109 0.97841 0.0
H1449 H 0.88415 0.64264 0.9656 0.0
H1450 H 0.9192 0.64743 0.94748 0.0
H1451 H 0.92199 0.71317 0.96918 0.0
H1452 H 0.88673 0.70884 0.98714 0.0
H1453 H 0.84029 0.61919 0.07629 0.0
H1454 H 0.83184 0.63074 0.03994 0.0
H1455 H 0.85647 0.69439 0.05397 0.0
H1456 H 0.86501 0.68265 0.09061 0.0
H1457 H 0.87543 0.67649 0.0192 0.0
H1458 H 0.80381 0.6892 0.04159 0.0
H1459 H 0.76943 0.68221 0.06017 0.0
H1460 H 0.75912 0.62589 0.02152 0.0
H1461 H 0.7936 0.63231 0.00291 0.0
C1462 C 0.85613 0.6722 0.91774 0.0
C1463 C 0.85285 0.65079 0.9112 0.0
C1464 C 0.85141 0.67833 0.93872 0.0
C1465 C 0.84344 0.66305 0.95331 0.0
C1466 C 0.83891 0.64201 0.94629 0.0
C1467 C 0.84368 0.6359 0.92539 0.0
C1468 C 0.84254 0.66777 0.97644 0.0
C1469 C 0.82304 0.66462 0.98741 0.0
C1470 C 0.86144 0.67299 0.98801 0.0
C1471 C 0.88271 0.67552 0.97745 0.0
C1472 C 0.89217 0.65816 0.96637 0.0
C1473 C 0.91207 0.66078 0.95614 0.0
C1474 C 0.92279 0.68062 0.95713 0.0
C1475 C 0.91364 0.69784 0.96838 0.0
C1476 C 0.8937 0.69532 0.97857 0.0
C1477 C 0.84348 0.63575 0.07168 0.0
C1478 C 0.85341 0.65004 0.08596 0.0
C1479 C 0.83849 0.64241 0.05102 0.0
C1480 C 0.84333 0.6635 0.04432 0.0
C1481 C 0.85247 0.67811 0.05891 0.0
C1482 C 0.85732 0.67144 0.07972 0.0
C1483 C 0.84152 0.66893 0.02138 0.0
C1484 C 0.86061 0.67388 0.01034 0.0
C1485 C 0.82226 0.66518 0.00981 0.0
C1486 C 0.80137 0.66124 0.02086 0.0
C1487 C 0.79429 0.67525 0.03712 0.0
C1488 C 0.77476 0.67139 0.04766 0.0
C1489 C 0.7621 0.65362 0.04204 0.0
C1490 C 0.76893 0.63967 0.02584 0.0
C1491 C 0.78846 0.64344 0.01525 0.0
H1492 H 0.74699 0.65066 0.05022 0.0
H1493 H 0.9382 0.68262 0.94921 0.0
H1494 H 0.34983 0.82658 0.90974 0.0
H1495 H 0.34162 0.82182 0.94791 0.0
H1496 H 0.33772 0.89102 0.95535 0.0
H1497 H 0.34603 0.89571 0.91747 0.0
H1498 H 0.36784 0.87253 0.98098 0.0
H1499 H 0.29359 0.86004 0.96143 0.0
H1500 H 0.264 0.84176 0.94229 0.0
H1501 H 0.28109 0.7816 0.97194 0.0
H1502 H 0.311 0.79946 0.99103 0.0
H1503 H 0.33974 0.88969 0.08544 0.0
H1504 H 0.33114 0.88564 0.04748 0.0
H1505 H 0.3486 0.81826 0.05051 0.0
H1506 H 0.35735 0.82236 0.08865 0.0
H1507 H 0.31109 0.8319 0.02 0.0
H1508 H 0.38704 0.84251 0.03576 0.0
H1509 H 0.41802 0.85951 0.05393 0.0
H1510 H 0.39833 0.92168 0.03055 0.0
H1511 H 0.36719 0.905 0.01227 0.0
C1512 C 0.34663 0.84066 0.91952 0.0
C1513 C 0.34879 0.8615 0.91096 0.0
C1514 C 0.34191 0.83795 0.94122 0.0
C1515 C 0.33916 0.85609 0.95442 0.0
C1516 C 0.33988 0.87684 0.94543 0.0
C1517 C 0.34468 0.87951 0.92388 0.0
C1518 C 0.33862 0.85386 0.97792 0.0
C1519 C 0.35524 0.86385 0.98945 0.0
C1520 C 0.3227 0.84178 0.9889 0.0
C1521 C 0.30469 0.83105 0.97748 0.0
C1522 C 0.29117 0.84287 0.96371 0.0
C1523 C 0.27431 0.83259 0.95291 0.0
C1524 C 0.2707 0.81052 0.95585 0.0
C1525 C 0.28392 0.79869 0.96965 0.0
C1526 C 0.30082 0.80889 0.98048 0.0
C1527 C 0.34099 0.87387 0.07812 0.0
C1528 C 0.34926 0.85635 0.08968 0.0
C1529 C 0.33605 0.87155 0.05655 0.0
C1530 C 0.33936 0.85168 0.0463 0.0
C1531 C 0.34581 0.83365 0.05827 0.0
C1532 C 0.35082 0.836 0.07994 0.0
C1533 C 0.33994 0.85109 0.02276 0.0
C1534 C 0.32358 0.84051 0.01134 0.0
C1535 C 0.35622 0.86241 0.01165 0.0
C1536 C 0.37472 0.87256 0.02284 0.0
C1537 C 0.38924 0.85983 0.03464 0.0
C1538 C 0.4069 0.86938 0.04484 0.0
C1539 C 0.41015 0.89166 0.04339 0.0
C1540 C 0.39579 0.90442 0.03166 0.0
C1541 C 0.37818 0.89493 0.02132 0.0
H1542 H 0.42376 0.89904 0.0514 0.0
H1543 H 0.25764 0.80259 0.94747 0.0
H1544 H 0.1197 0.65793 0.4188 0.0
H1545 H 0.13015 0.6694 0.45478 0.0
H1546 H 0.19548 0.64822 0.44287 0.0
H1547 H 0.185 0.63708 0.40657 0.0
H1548 H 0.17579 0.62906 0.47823 0.0
H1549 H 0.189 0.69954 0.4525 0.0
H1550 H 0.18219 0.73289 0.43209 0.0
H1551 H 0.12509 0.74492 0.46917 0.0
H1552 H 0.13133 0.71146 0.4896 0.0
H1553 H 0.18077 0.64431 0.58914 0.0
H1554 H 0.1927 0.65237 0.55258 0.0
H1555 H 0.12889 0.67594 0.53745 0.0
H1556 H 0.11718 0.66836 0.57401 0.0
H1557 H 0.16003 0.69812 0.51535 0.0
H1558 H 0.14044 0.62366 0.53127 0.0
H1559 H 0.14404 0.58939 0.55105 0.0
H1560 H 0.21023 0.58421 0.53115 0.0
H1561 H 0.20709 0.61868 0.51153 0.0
C1562 C 0.1364 0.65632 0.42375 0.0
C1563 C 0.15163 0.64675 0.4102 0.0
C1564 C 0.14239 0.66295 0.44417 0.0
C1565 C 0.16364 0.65983 0.45137 0.0
C1566 C 0.17908 0.65095 0.43749 0.0
C1567 C 0.17313 0.64461 0.41688 0.0
C1568 C 0.16849 0.66285 0.47428 0.0
C1569 C 0.17312 0.64434 0.48632 0.0
C1570 C 0.1645 0.68268 0.48475 0.0
C1571 C 0.16063 0.70291 0.47256 0.0
C1572 C 0.1749 0.70921 0.45622 0.0
C1573 C 0.17115 0.72815 0.44465 0.0
C1574 C 0.15321 0.74101 0.44932 0.0
C1575 C 0.13899 0.73496 0.46559 0.0
C1576 C 0.14266 0.71601 0.4772 0.0
C1577 C 0.16957 0.65183 0.57812 0.0
C1578 C 0.14803 0.65547 0.58407 0.0
C1579 C 0.17636 0.65641 0.55732 0.0
C1580 C 0.16158 0.66448 0.54227 0.0
C1581 C 0.14055 0.66975 0.54881 0.0
C1582 C 0.13381 0.66523 0.56958 0.0
C1583 C 0.1666 0.66419 0.51918 0.0
C1584 C 0.16365 0.68311 0.50717 0.0
C1585 C 0.17178 0.64465 0.50862 0.0
C1586 C 0.17363 0.62384 0.5202 0.0
C1587 C 0.1558 0.61527 0.53125 0.0
C1588 C 0.15775 0.59582 0.54242 0.0
C1589 C 0.17738 0.58466 0.54241 0.0
C1590 C 0.19507 0.5929 0.53119 0.0
C1591 C 0.19322 0.6124 0.52006 0.0
H1592 H 0.17886 0.56959 0.55106 0.0
H1593 H 0.15034 0.75567 0.44035 0.0
H1594 H 0.34842 0.18355 0.40517 0.0
H1595 H 0.33752 0.19357 0.44164 0.0
H1596 H 0.32766 0.12626 0.45668 0.0
H1597 H 0.33862 0.11634 0.42041 0.0
H1598 H 0.29771 0.15403 0.47724 0.0
H1599 H 0.37553 0.14677 0.46427 0.0
H1600 H 0.40923 0.15669 0.44568 0.0
H1601 H 0.40155 0.22254 0.46587 0.0
H1602 H 0.36758 0.21303 0.48431 0.0
H1603 H 0.33583 0.11754 0.57491 0.0
H1604 H 0.325 0.12784 0.53881 0.0
H1605 H 0.34209 0.19407 0.55212 0.0
H1606 H 0.35314 0.18359 0.58843 0.0
H1607 H 0.36211 0.17924 0.51724 0.0
H1608 H 0.28989 0.18191 0.54035 0.0
H1609 H 0.25687 0.17062 0.55927 0.0
H1610 H 0.25368 0.11318 0.52099 0.0
H1611 H 0.28687 0.12393 0.50205 0.0
C1612 C 0.34329 0.17106 0.41616 0.0
C1613 C 0.34444 0.14922 0.41028 0.0
C1614 C 0.33708 0.17675 0.43689 0.0
C1615 C 0.33191 0.16063 0.45183 0.0
C1616 C 0.33146 0.13894 0.44535 0.0
C1617 C 0.33784 0.13327 0.42475 0.0
C1618 C 0.33038 0.16559 0.47488 0.0
C1619 C 0.31165 0.15972 0.48608 0.0
C1620 C 0.34841 0.17362 0.48624 0.0
C1621 C 0.36892 0.17927 0.4754 0.0
C1622 C 0.38096 0.16339 0.46461 0.0
C1623 C 0.4001 0.16893 0.45412 0.0
C1624 C 0.40749 0.19025 0.45454 0.0
C1625 C 0.39577 0.20605 0.46551 0.0
C1626 C 0.37657 0.2006 0.47597 0.0
C1627 C 0.3368 0.13436 0.57022 0.0
C1628 C 0.34538 0.1498 0.5842 0.0
C1629 C 0.33044 0.14029 0.5497 0.0
C1630 C 0.33253 0.16178 0.54282 0.0
C1631 C 0.3402 0.17744 0.55717 0.0
C1632 C 0.34646 0.17149 0.57783 0.0
C1633 C 0.32968 0.16683 0.51986 0.0
C1634 C 0.34771 0.17446 0.50857 0.0
C1635 C 0.31101 0.16035 0.5085 0.0
C1636 C 0.29095 0.15374 0.51978 0.0
C1637 C 0.28224 0.1668 0.53604 0.0
C1638 C 0.26346 0.1605 0.54677 0.0
C1639 C 0.25318 0.14119 0.54134 0.0
C1640 C 0.26165 0.12815 0.52516 0.0
C1641 C 0.28042 0.13437 0.51438 0.0
H1642 H 0.23865 0.13634 0.54967 0.0
H1643 H 0.42232 0.19451 0.44641 0.0
H1644 H 0.84048 0.39478 0.41553 0.0
H1645 H 0.83453 0.38931 0.45378 0.0
H1646 H 0.85246 0.32227 0.44727 0.0
H1647 H 0.85814 0.32773 0.40871 0.0
H1648 H 0.81951 0.32981 0.47878 0.0
H1649 H 0.89079 0.35366 0.46095 0.0
H1650 H 0.91817 0.37628 0.44312 0.0
H1651 H 0.89271 0.43266 0.47414 0.0
H1652 H 0.86508 0.41037 0.49208 0.0
H1653 H 0.86259 0.32524 0.58787 0.0
H1654 H 0.85457 0.32111 0.54956 0.0
H1655 H 0.83526 0.38801 0.5466 0.0
H1656 H 0.84316 0.39207 0.58468 0.0
H1657 H 0.86951 0.37686 0.51963 0.0
H1658 H 0.79871 0.3507 0.5391 0.0
H1659 H 0.77317 0.32637 0.55735 0.0
H1660 H 0.79992 0.27206 0.52386 0.0
H1661 H 0.82586 0.29604 0.50564 0.0
C1662 C 0.84261 0.37878 0.42223 0.0
C1663 C 0.85003 0.36172 0.40949 0.0
C1664 C 0.83921 0.37566 0.44399 0.0
C1665 C 0.84343 0.35549 0.45333 0.0
C1666 C 0.84915 0.33795 0.4403 0.0
C1667 C 0.85243 0.34106 0.4184 0.0
C1668 C 0.84464 0.35377 0.47682 0.0
C1669 C 0.83058 0.33987 0.48778 0.0
C1670 C 0.85917 0.36687 0.48844 0.0
C1671 C 0.87576 0.38037 0.47771 0.0
C1672 C 0.89095 0.3709 0.46387 0.0
C1673 C 0.90656 0.38365 0.45381 0.0
C1674 C 0.90716 0.4059 0.45746 0.0
C1675 C 0.89221 0.41543 0.4713 0.0
C1676 C 0.87661 0.40274 0.48147 0.0
C1677 C 0.85602 0.33879 0.57906 0.0
C1678 C 0.8536 0.359 0.58892 0.0
C1679 C 0.85144 0.33644 0.55729 0.0
C1680 C 0.84441 0.3543 0.54533 0.0
C1681 C 0.84069 0.37408 0.5556 0.0
C1682 C 0.8452 0.37639 0.57726 0.0
C1683 C 0.84386 0.35346 0.52177 0.0
C1684 C 0.85836 0.36677 0.51073 0.0
C1685 C 0.83 0.33956 0.51025 0.0
C1686 C 0.8144 0.32514 0.52119 0.0
C1687 C 0.7993 0.33354 0.53579 0.0
C1688 C 0.78472 0.31982 0.54609 0.0
C1689 C 0.78497 0.29767 0.54182 0.0
C1690 C 0.79977 0.28921 0.52719 0.0
C1691 C 0.81441 0.30287 0.51685 0.0
H1692 H 0.77366 0.28707 0.54981 0.0
H1693 H 0.91922 0.41575 0.4496 0.0
H1694 H 0.68035 0.86834 0.40684 0.0
H1695 H 0.69017 0.85983 0.44401 0.0
H1696 H 0.62558 0.83621 0.45523 0.0
H1697 H 0.61586 0.84474 0.41832 0.0
H1698 H 0.67031 0.8791 0.4782 0.0
H1699 H 0.62613 0.79706 0.4923 0.0
H1700 H 0.62014 0.76282 0.47312 0.0
H1701 H 0.6775 0.77351 0.43603 0.0
H1702 H 0.68405 0.80764 0.45521 0.0
H1703 H 0.61382 0.84057 0.577 0.0
H1704 H 0.62404 0.83409 0.53977 0.0
H1705 H 0.68817 0.85797 0.55285 0.0
H1706 H 0.67773 0.8648 0.59014 0.0
H1707 H 0.65484 0.81135 0.51769 0.0
H1708 H 0.70172 0.89063 0.51021 0.0
H1709 H 0.70536 0.92569 0.52866 0.0
H1710 H 0.63983 0.92108 0.55071 0.0
H1711 H 0.63573 0.88621 0.53212 0.0
C1712 C 0.6685 0.8609 0.41724 0.0
C1713 C 0.64739 0.85723 0.41001 0.0
C1714 C 0.67408 0.85607 0.43835 0.0
C1715 C 0.65866 0.84721 0.45228 0.0
C1716 C 0.63783 0.84268 0.44466 0.0
C1717 C 0.63223 0.84769 0.42369 0.0
C1718 C 0.66313 0.84517 0.47539 0.0
C1719 C 0.66765 0.86412 0.48681 0.0
C1720 C 0.65921 0.82571 0.48658 0.0
C1721 C 0.65553 0.805 0.47517 0.0
C1722 C 0.63757 0.79205 0.48017 0.0
C1723 C 0.63405 0.77266 0.46926 0.0
C1724 C 0.64841 0.76601 0.45334 0.0
C1725 C 0.66635 0.77871 0.44833 0.0
C1726 C 0.66995 0.7981 0.45919 0.0
C1727 C 0.63017 0.84409 0.57192 0.0
C1728 C 0.64498 0.85334 0.58614 0.0
C1729 C 0.63606 0.84024 0.55077 0.0
C1730 C 0.65681 0.84571 0.54354 0.0
C1731 C 0.67205 0.85376 0.55812 0.0
C1732 C 0.66612 0.85763 0.57932 0.0
C1733 C 0.6613 0.8454 0.52034 0.0
C1734 C 0.65835 0.82609 0.50899 0.0
C1735 C 0.66641 0.86457 0.50913 0.0
C1736 C 0.66855 0.8857 0.52005 0.0
C1737 C 0.68809 0.89715 0.51896 0.0
C1738 C 0.69023 0.91698 0.52943 0.0
C1739 C 0.67287 0.92556 0.54092 0.0
C1740 C 0.65329 0.91439 0.54187 0.0
C1741 C 0.65106 0.89459 0.53138 0.0
H1742 H 0.67457 0.9409 0.54904 0.0
H1743 H 0.64565 0.75101 0.44491 0.0
H1744 H 0.16625 0.58551 0.28021 0.0
H1745 H 0.17446 0.55619 0.25536 0.0
H1746 H 0.16194 0.50946 0.30488 0.0
H1747 H 0.15345 0.5386 0.32983 0.0
H1748 H 0.19647 0.49789 0.27309 0.0
H1749 H 0.12124 0.52195 0.27922 0.0
H1750 H 0.09346 0.55054 0.27913 0.0
H1751 H 0.11177 0.56854 0.2154 0.0
H1752 H 0.13993 0.54027 0.21529 0.0
H1753 H 0.15334 0.40504 0.22234 0.0
H1754 H 0.16425 0.43578 0.24427 0.0
H1755 H 0.15352 0.47859 0.19083 0.0
H1756 H 0.14139 0.44804 0.16932 0.0
H1757 H 0.13489 0.49451 0.2225 0.0
H1758 H 0.20591 0.46658 0.21319 0.0
H1759 H 0.23487 0.43923 0.21291 0.0
H1760 H 0.22686 0.4295 0.28035 0.0
H1761 H 0.19763 0.45657 0.28101 0.0
C1762 C 0.16591 0.56904 0.28604 0.0
C1763 C 0.15876 0.56435 0.30687 0.0
C1764 C 0.17066 0.55232 0.27182 0.0
C1765 C 0.16857 0.53073 0.27828 0.0
C1766 C 0.16366 0.52605 0.29964 0.0
C1767 C 0.15866 0.54273 0.31382 0.0
C1768 C 0.1674 0.51335 0.26217 0.0
C1769 C 0.18307 0.497 0.26198 0.0
C1770 C 0.15011 0.51259 0.24747 0.0
C1771 C 0.13282 0.52919 0.24733 0.0
C1772 C 0.11943 0.53211 0.26525 0.0
C1773 C 0.10361 0.54824 0.26523 0.0
C1774 C 0.10089 0.56139 0.24729 0.0
C1775 C 0.11392 0.55837 0.2293 0.0
C1776 C 0.12981 0.5423 0.22926 0.0
C1777 C 0.15364 0.42098 0.21521 0.0
C1778 C 0.14636 0.42421 0.19421 0.0
C1779 C 0.16005 0.43856 0.22771 0.0
C1780 C 0.15993 0.45959 0.21921 0.0
C1781 C 0.15367 0.46259 0.19784 0.0
C1782 C 0.14676 0.44512 0.18554 0.0
C1783 C 0.16405 0.47863 0.23312 0.0
C1784 C 0.1487 0.49536 0.23312 0.0
C1785 C 0.18181 0.47975 0.2474 0.0
C1786 C 0.19945 0.46351 0.24711 0.0
C1787 C 0.21022 0.45851 0.22794 0.0
C1788 C 0.2267 0.44306 0.22772 0.0
C1789 C 0.23267 0.4326 0.24659 0.0
C1790 C 0.22221 0.4376 0.26574 0.0
C1791 C 0.2057 0.45302 0.26605 0.0
H1792 H 0.24543 0.42065 0.24638 0.0
H1793 H 0.08865 0.57388 0.24732 0.0
H1794 H 0.54376 0.14391 0.17499 0.0
H1795 H 0.516 0.1544 0.20079 0.0
H1796 H 0.56527 0.16796 0.24755 0.0
H1797 H 0.59324 0.15785 0.22168 0.0
H1798 H 0.53159 0.13793 0.26035 0.0
H1799 H 0.53996 0.2087 0.23049 0.0
H1800 H 0.54234 0.23538 0.20135 0.0
H1801 H 0.47788 0.2196 0.18155 0.0
H1802 H 0.47522 0.19257 0.21038 0.0
H1803 H 0.45293 0.15965 0.33612 0.0
H1804 H 0.48435 0.16841 0.31414 0.0
H1805 H 0.4442 0.16811 0.25781 0.0
H1806 H 0.41257 0.16037 0.27985 0.0
H1807 H 0.47639 0.19554 0.25233 0.0
H1808 H 0.46931 0.12182 0.27576 0.0
H1809 H 0.46509 0.093 0.30266 0.0
H1810 H 0.52528 0.11123 0.33149 0.0
H1811 H 0.52969 0.14039 0.30492 0.0
C1812 C 0.54872 0.14942 0.19065 0.0
C1813 C 0.57067 0.14997 0.19635 0.0
C1814 C 0.53285 0.1555 0.20532 0.0
C1815 C 0.53865 0.162 0.226 0.0
C1816 C 0.56054 0.16307 0.2316 0.0
C1817 C 0.57647 0.15735 0.2168 0.0
C1818 C 0.52167 0.16575 0.24219 0.0
C1819 C 0.51981 0.15085 0.25894 0.0
C1820 C 0.50596 0.18215 0.23981 0.0
C1821 C 0.50745 0.19849 0.22252 0.0
C1822 C 0.52635 0.21078 0.21982 0.0
C1823 C 0.52774 0.226 0.20337 0.0
C1824 C 0.51029 0.22916 0.18958 0.0
C1825 C 0.49139 0.21713 0.19224 0.0
C1826 C 0.48992 0.20188 0.20865 0.0
C1827 C 0.45071 0.16211 0.31913 0.0
C1828 C 0.43041 0.15896 0.30962 0.0
C1829 C 0.46867 0.16704 0.30658 0.0
C1830 C 0.46673 0.16821 0.28426 0.0
C1831 C 0.44612 0.16711 0.27498 0.0
C1832 C 0.42804 0.16265 0.2876 0.0
C1833 C 0.48622 0.16765 0.27047 0.0
C1834 C 0.48845 0.18295 0.25406 0.0
C1835 C 0.50206 0.15126 0.27281 0.0
C1836 C 0.49971 0.13343 0.28851 0.0
C1837 C 0.48159 0.11974 0.2879 0.0
C1838 C 0.47916 0.10336 0.30309 0.0
C1839 C 0.49488 0.10033 0.31881 0.0
C1840 C 0.5131 0.11363 0.31932 0.0
C1841 C 0.51558 0.13009 0.3042 0.0
H1842 H 0.49296 0.08765 0.33057 0.0
H1843 H 0.5114 0.24094 0.17686 0.0
H1844 H 0.85526 0.45382 0.32173 0.0
H1845 H 0.84413 0.48379 0.29905 0.0
H1846 H 0.82368 0.43882 0.25046 0.0
H1847 H 0.83433 0.40858 0.27343 0.0
H1848 H 0.86338 0.49224 0.26296 0.0
H1849 H 0.78729 0.46414 0.21687 0.0
H1850 H 0.75465 0.44218 0.22302 0.0
H1851 H 0.75785 0.4559 0.29017 0.0
H1852 H 0.79033 0.47816 0.2844 0.0
H1853 H 0.856 0.54189 0.16517 0.0
H1854 H 0.84614 0.51217 0.18864 0.0
H1855 H 0.81149 0.55615 0.22953 0.0
H1856 H 0.82152 0.5863 0.20626 0.0
H1857 H 0.79576 0.50561 0.22246 0.0
H1858 H 0.85274 0.55498 0.2483 0.0
H1859 H 0.88501 0.57737 0.24166 0.0
H1860 H 0.91885 0.5219 0.21763 0.0
H1861 H 0.8866 0.49928 0.22378 0.0
C1862 C 0.848 0.45027 0.30638 0.0
C1863 C 0.84594 0.42886 0.29922 0.0
C1864 C 0.84162 0.46743 0.29345 0.0
C1865 C 0.83318 0.46358 0.27302 0.0
C1866 C 0.82993 0.44218 0.26627 0.0
C1867 C 0.8361 0.42491 0.27937 0.0
C1868 C 0.83046 0.48191 0.25799 0.0
C1869 C 0.84844 0.49522 0.25439 0.0
C1870 C 0.81108 0.48578 0.24657 0.0
C1871 C 0.79137 0.47267 0.2502 0.0
C1872 C 0.78097 0.46255 0.23293 0.0
C1873 C 0.76251 0.45003 0.23636 0.0
C1874 C 0.75422 0.44759 0.25698 0.0
C1875 C 0.76434 0.45773 0.27421 0.0
C1876 C 0.7828 0.47027 0.27088 0.0
C1877 C 0.84572 0.54527 0.17876 0.0
C1878 C 0.84002 0.5666 0.18413 0.0
C1879 C 0.83996 0.52818 0.19206 0.0
C1880 C 0.82826 0.53208 0.21081 0.0
C1881 C 0.82045 0.5529 0.21501 0.0
C1882 C 0.82634 0.57012 0.20175 0.0
C1883 C 0.82856 0.51565 0.22784 0.0
C1884 C 0.81041 0.50264 0.23149 0.0
C1885 C 0.84767 0.51208 0.2396 0.0
C1886 C 0.86723 0.52552 0.23633 0.0
C1887 C 0.86702 0.54762 0.24146 0.0
C1888 C 0.8853 0.56034 0.23779 0.0
C1889 C 0.90396 0.55108 0.2292 0.0
C1890 C 0.90438 0.52906 0.22428 0.0
C1891 C 0.88611 0.51628 0.22785 0.0
H1892 H 0.91811 0.56096 0.22641 0.0
H1893 H 0.73993 0.43788 0.25959 0.0
H1894 H 0.5467 0.85837 0.32912 0.0
H1895 H 0.51605 0.84542 0.30833 0.0
H1896 H 0.55936 0.82486 0.25824 0.0
H1897 H 0.59022 0.83718 0.27934 0.0
H1898 H 0.5043 0.86253 0.2728 0.0
H1899 H 0.53556 0.78725 0.22649 0.0
H1900 H 0.55897 0.75564 0.2327 0.0
H1901 H 0.54647 0.75948 0.30007 0.0
H1902 H 0.52275 0.79092 0.29424 0.0
H1903 H 0.45979 0.85213 0.17288 0.0
H1904 H 0.48816 0.84329 0.19828 0.0
H1905 H 0.44219 0.80949 0.23765 0.0
H1906 H 0.41335 0.81859 0.21247 0.0
H1907 H 0.49449 0.79446 0.23207 0.0
H1908 H 0.44189 0.84859 0.25753 0.0
H1909 H 0.41796 0.87977 0.25083 0.0
H1910 H 0.47206 0.91671 0.2284 0.0
H1911 H 0.49621 0.88558 0.23455 0.0
C1912 C 0.54975 0.85068 0.31387 0.0
C1913 C 0.57085 0.84902 0.30574 0.0
C1914 C 0.5322 0.84327 0.30201 0.0
C1915 C 0.53534 0.8342 0.28169 0.0
C1916 C 0.55651 0.83149 0.27401 0.0
C1917 C 0.57415 0.83865 0.28603 0.0
C1918 C 0.51647 0.83025 0.2676 0.0
C1919 C 0.50204 0.84744 0.26428 0.0
C1920 C 0.51345 0.81065 0.25627 0.0
C1921 C 0.52749 0.79157 0.25992 0.0
C1922 C 0.53771 0.78129 0.24262 0.0
C1923 C 0.55106 0.76341 0.24608 0.0
C1924 C 0.55425 0.75559 0.26677 0.0
C1925 C 0.54405 0.7656 0.28405 0.0
C1926 C 0.53067 0.78347 0.28068 0.0
C1927 C 0.4557 0.84225 0.18656 0.0
C1928 C 0.43413 0.83655 0.19089 0.0
C1929 C 0.47202 0.8371 0.20099 0.0
C1930 C 0.46715 0.82594 0.21983 0.0
C1931 C 0.44618 0.81808 0.2231 0.0
C1932 C 0.42972 0.8234 0.20872 0.0
C1933 C 0.48275 0.82666 0.23759 0.0
C1934 C 0.49663 0.80917 0.24122 0.0
C1935 C 0.48517 0.84582 0.24957 0.0
C1936 C 0.47078 0.8647 0.24627 0.0
C1937 C 0.44863 0.86331 0.25098 0.0
C1938 C 0.43503 0.88096 0.24729 0.0
C1939 C 0.44346 0.90019 0.23909 0.0
C1940 C 0.46553 0.9018 0.23467 0.0
C1941 C 0.47917 0.88416 0.23825 0.0
H1942 H 0.43291 0.91385 0.23626 0.0
H1943 H 0.5646 0.74175 0.26942 0.0
H1944 H 0.85371 0.59043 0.77468 0.0
H1945 H 0.84433 0.55884 0.75338 0.0
H1946 H 0.84214 0.52 0.81072 0.0
H1947 H 0.85333 0.55136 0.83174 0.0
H1948 H 0.8627 0.49913 0.78477 0.0
H1949 H 0.79519 0.53397 0.77757 0.0
H1950 H 0.76926 0.56343 0.77083 0.0
H1951 H 0.79133 0.56819 0.70597 0.0
H1952 H 0.81762 0.53897 0.71238 0.0
H1953 H 0.83637 0.40905 0.72085 0.0
H1954 H 0.82617 0.43923 0.74404 0.0
H1955 H 0.85456 0.48404 0.69942 0.0
H1956 H 0.86507 0.45403 0.67629 0.0
H1957 H 0.81419 0.49872 0.72171 0.0
H1958 H 0.88575 0.46599 0.73437 0.0
H1959 H 0.90774 0.43365 0.7418 0.0
H1960 H 0.87242 0.4229 0.7999 0.0
H1961 H 0.84977 0.45485 0.79243 0.0
C1962 C 0.85088 0.5752 0.78271 0.0
C1963 C 0.85426 0.57323 0.80477 0.0
C1964 C 0.8453 0.55713 0.77056 0.0
C1965 C 0.84213 0.53693 0.78038 0.0
C1966 C 0.84454 0.5353 0.80267 0.0
C1967 C 0.85086 0.5532 0.8147 0.0
C1968 C 0.83865 0.51719 0.7672 0.0
C1969 C 0.85161 0.49901 0.77137 0.0
C1970 C 0.82432 0.51676 0.74951 0.0
C1971 C 0.80849 0.53433 0.74551 0.0
C1972 C 0.79462 0.54139 0.7619 0.0
C1973 C 0.77984 0.55804 0.75813 0.0
C1974 C 0.77868 0.56769 0.738 0.0
C1975 C 0.79226 0.56069 0.72157 0.0
C1976 C 0.80708 0.54405 0.72525 0.0
C1977 C 0.83998 0.42536 0.71572 0.0
C1978 C 0.85185 0.42916 0.69693 0.0
C1979 C 0.83405 0.44256 0.72894 0.0
C1980 C 0.83972 0.46378 0.72343 0.0
C1981 C 0.84998 0.46776 0.70386 0.0
C1982 C 0.85616 0.45058 0.69078 0.0
C1983 C 0.83834 0.48132 0.73936 0.0
C1984 C 0.82471 0.49897 0.73556 0.0
C1985 C 0.85156 0.48112 0.75774 0.0
C1986 C 0.86593 0.46264 0.76273 0.0
C1987 C 0.88261 0.45667 0.74867 0.0
C1988 C 0.89517 0.43839 0.75288 0.0
C1989 C 0.89145 0.4262 0.7713 0.0
C1990 C 0.87525 0.43233 0.78561 0.0
C1991 C 0.86252 0.4505 0.78138 0.0
H1992 H 0.90111 0.41199 0.7745 0.0
H1993 H 0.76723 0.58059 0.73511 0.0
H1994 H 0.58642 0.84399 0.72284 0.0
H1995 H 0.55496 0.83413 0.74423 0.0
H1996 H 0.51518 0.83544 0.68756 0.0
H1997 H 0.54641 0.8468 0.66649 0.0
H1998 H 0.49665 0.8575 0.71483 0.0
H1999 H 0.52691 0.78719 0.71877 0.0
H2000 H 0.55481 0.75934 0.72436 0.0
H2001 H 0.5611 0.77859 0.78995 0.0
H2002 H 0.53345 0.80677 0.78469 0.0
H2003 H 0.40481 0.8343 0.77735 0.0
H2004 H 0.43432 0.82372 0.75345 0.0
H2005 H 0.48081 0.84514 0.8001 0.0
H2006 H 0.45148 0.85606 0.82393 0.0
H2007 H 0.49288 0.80591 0.77536 0.0
H2008 H 0.46701 0.88038 0.7672 0.0
H2009 H 0.43826 0.90726 0.761 0.0
H2010 H 0.42287 0.87713 0.70113 0.0
H2011 H 0.45134 0.84986 0.70717 0.0
C2012 C 0.57103 0.84169 0.71493 0.0
C2013 C 0.56874 0.84626 0.69309 0.0
C2014 C 0.55304 0.83588 0.72713 0.0
C2015 C 0.53258 0.83383 0.71756 0.0
C2016 C 0.53069 0.83703 0.6954 0.0
C2017 C 0.54854 0.84345 0.68334 0.0
C2018 C 0.51285 0.8312 0.73092 0.0
C2019 C 0.49572 0.84573 0.72764 0.0
C2020 C 0.51155 0.81618 0.74799 0.0
C2021 C 0.52817 0.7992 0.75128 0.0
C2022 C 0.53434 0.78559 0.73435 0.0
C2023 C 0.5501 0.76973 0.73747 0.0
C2024 C 0.55975 0.76722 0.75749 0.0
C2025 C 0.55361 0.78055 0.77445 0.0
C2026 C 0.53787 0.79645 0.77141 0.0
C2027 C 0.42131 0.83622 0.78276 0.0
C2028 C 0.42586 0.84629 0.80238 0.0
C2029 C 0.43813 0.83014 0.7691 0.0
C2030 C 0.45968 0.83378 0.77503 0.0
C2031 C 0.46427 0.84214 0.79532 0.0
C2032 C 0.44749 0.84852 0.80882 0.0
C2033 C 0.4772 0.83215 0.75907 0.0
C2034 C 0.49383 0.81709 0.76205 0.0
C2035 C 0.478 0.84641 0.74148 0.0
C2036 C 0.46108 0.86295 0.73776 0.0
C2037 C 0.45736 0.87939 0.75281 0.0
C2038 C 0.44115 0.89471 0.74931 0.0
C2039 C 0.4287 0.89386 0.73072 0.0
C2040 C 0.43249 0.87774 0.71555 0.0
C2041 C 0.44866 0.86235 0.719 0.0
H2042 H 0.41615 0.90574 0.72804 0.0
H2043 H 0.57195 0.75493 0.75987 0.0
H2044 H 0.10572 0.43994 0.79651 0.0
H2045 H 0.11244 0.46809 0.77008 0.0
H2046 H 0.17537 0.44126 0.75722 0.0
H2047 H 0.16858 0.41243 0.78345 0.0
H2048 H 0.16738 0.49239 0.76722 0.0
H2049 H 0.15012 0.43181 0.72115 0.0
H2050 H 0.12828 0.40045 0.71013 0.0
H2051 H 0.07245 0.44115 0.70385 0.0
H2052 H 0.09386 0.47267 0.71527 0.0
H2053 H 0.16949 0.57514 0.68727 0.0
H2054 H 0.1768 0.54105 0.70596 0.0
H2055 H 0.10859 0.52638 0.70532 0.0
H2056 H 0.10158 0.55939 0.68552 0.0
H2057 H 0.1278 0.49193 0.69836 0.0
H2058 H 0.13872 0.54893 0.75056 0.0
H2059 H 0.15589 0.58171 0.76515 0.0
H2060 H 0.21774 0.55032 0.76373 0.0
H2061 H 0.20094 0.51742 0.74892 0.0
C2062 C 0.12105 0.44 0.78816 0.0
C2063 C 0.13665 0.42398 0.79207 0.0
C2064 C 0.12481 0.45606 0.77303 0.0
C2065 C 0.14432 0.4566 0.76175 0.0
C2066 C 0.16019 0.44096 0.76582 0.0
C2067 C 0.15627 0.42455 0.78073 0.0
C2068 C 0.14772 0.47375 0.74576 0.0
C2069 C 0.15923 0.4922 0.75187 0.0
C2070 C 0.13647 0.47354 0.72616 0.0
C2071 C 0.12358 0.45457 0.71925 0.0
C2072 C 0.13314 0.43403 0.71766 0.0
C2073 C 0.12084 0.41623 0.71129 0.0
C2074 C 0.09898 0.41879 0.70634 0.0
C2075 C 0.08938 0.43917 0.70772 0.0
C2076 C 0.1016 0.45701 0.71412 0.0
C2077 C 0.15617 0.56447 0.69103 0.0
C2078 C 0.13499 0.56983 0.68497 0.0
C2079 C 0.16031 0.54507 0.7018 0.0
C2080 C 0.14322 0.53118 0.70736 0.0
C2081 C 0.12212 0.53663 0.70112 0.0
C2082 C 0.11809 0.55558 0.68986 0.0
C2083 C 0.14677 0.5112 0.72009 0.0
C2084 C 0.13651 0.49212 0.71339 0.0
C2085 C 0.15855 0.51111 0.73952 0.0
C2086 C 0.16863 0.53086 0.74838 0.0
C2087 C 0.156 0.54909 0.75323 0.0
C2088 C 0.16566 0.56767 0.76155 0.0
C2089 C 0.1879 0.56812 0.76529 0.0
C2090 C 0.20052 0.54997 0.76077 0.0
C2091 C 0.19095 0.53135 0.75242 0.0
H2092 H 0.19535 0.58252 0.77174 0.0
H2093 H 0.0895 0.405 0.7014 0.0
H2094 H 0.41256 0.14862 0.71695 0.0
H2095 H 0.44461 0.15452 0.73881 0.0
H2096 H 0.48505 0.14578 0.68322 0.0
H2097 H 0.45299 0.13855 0.66161 0.0
H2098 H 0.50041 0.1231 0.7125 0.0
H2099 H 0.47776 0.19664 0.7109 0.0
H2100 H 0.45276 0.22746 0.71424 0.0
H2101 H 0.44378 0.21332 0.7808 0.0
H2102 H 0.46851 0.18223 0.77781 0.0
H2103 H 0.59554 0.15084 0.77048 0.0
H2104 H 0.56506 0.15751 0.74639 0.0
H2105 H 0.52057 0.13978 0.79639 0.0
H2106 H 0.55091 0.13253 0.82042 0.0
H2107 H 0.50955 0.17907 0.76849 0.0
H2108 H 0.52939 0.10264 0.76708 0.0
H2109 H 0.55576 0.07305 0.76305 0.0
H2110 H 0.57144 0.09536 0.69997 0.0
H2111 H 0.5454 0.12533 0.7038 0.0
C2112 C 0.42827 0.14837 0.70934 0.0
C2113 C 0.43033 0.14308 0.68762 0.0
C2114 C 0.44663 0.15187 0.72182 0.0
C2115 C 0.46735 0.15085 0.71268 0.0
C2116 C 0.46929 0.14659 0.69071 0.0
C2117 C 0.45097 0.14253 0.67834 0.0
C2118 C 0.48698 0.15213 0.72633 0.0
C2119 C 0.50253 0.13569 0.72437 0.0
C2120 C 0.48974 0.16825 0.74219 0.0
C2121 C 0.47488 0.18699 0.74408 0.0
C2122 C 0.47035 0.2 0.72622 0.0
C2123 C 0.45624 0.21755 0.72806 0.0
C2124 C 0.44665 0.22232 0.74771 0.0
C2125 C 0.4512 0.2096 0.76558 0.0
C2126 C 0.46529 0.19203 0.76383 0.0
C2127 C 0.57926 0.14871 0.77645 0.0
C2128 C 0.57558 0.14101 0.79726 0.0
C2129 C 0.56191 0.15254 0.7627 0.0
C2130 C 0.54067 0.14912 0.7697 0.0
C2131 C 0.53689 0.14259 0.7908 0.0
C2132 C 0.55422 0.13834 0.80443 0.0
C2133 C 0.52254 0.15016 0.75445 0.0
C2134 C 0.50737 0.16685 0.75626 0.0
C2135 C 0.52021 0.13451 0.73823 0.0
C2136 C 0.53567 0.11637 0.73583 0.0
C2137 C 0.53862 0.10136 0.75244 0.0
C2138 C 0.55347 0.08449 0.75017 0.0
C2139 C 0.56532 0.08237 0.73129 0.0
C2140 C 0.56229 0.09706 0.7146 0.0
C2141 C 0.54748 0.11398 0.71681 0.0
H2142 H 0.57681 0.0693 0.72956 0.0
H2143 H 0.43573 0.23591 0.74909 0.0
H2144 H 0.65925 0.08617 0.77567 0.0
H2145 H 0.66522 0.05306 0.75524 0.0
H2146 H 0.65883 0.01543 0.81295 0.0
H2147 H 0.6515 0.04844 0.83316 0.0
H2148 H 0.6899 0.01874 0.75216 0.0
H2149 H 0.63146 0.97006 0.80296 0.0
H2150 H 0.60252 0.97489 0.82968 0.0
H2151 H 0.58566 0.03584 0.80147 0.0
H2152 H 0.61442 0.03129 0.77453 0.0
H2153 H 0.66904 0.90981 0.70958 0.0
H2154 H 0.67885 0.93962 0.73357 0.0
H2155 H 0.62321 0.97554 0.71228 0.0
H2156 H 0.61344 0.94624 0.68821 0.0
H2157 H 0.62688 0.96959 0.75771 0.0
H2158 H 0.66863 0.99178 0.69575 0.0
H2159 H 0.69652 0.98677 0.66805 0.0
H2160 H 0.7449 0.97907 0.71658 0.0
H2161 H 0.71721 0.98373 0.74459 0.0
C2162 C 0.65963 0.07087 0.78406 0.0
C2163 C 0.65453 0.06977 0.80589 0.0
C2164 C 0.66308 0.05193 0.77238 0.0
C2165 C 0.66183 0.03167 0.78244 0.0
C2166 C 0.65921 0.03081 0.80471 0.0
C2167 C 0.65514 0.04967 0.81628 0.0
C2168 C 0.66045 0.01176 0.76924 0.0
C2169 C 0.67624 0.00786 0.75354 0.0
C2170 C 0.64265 0.99746 0.77097 0.0
C2171 C 0.6252 0.00043 0.78691 0.0
C2172 C 0.62154 0.98447 0.80247 0.0
C2173 C 0.60519 0.98716 0.81765 0.0
C2174 C 0.59231 0.00568 0.81733 0.0
C2175 C 0.5957 0.02154 0.80177 0.0
C2176 C 0.61203 0.01892 0.78654 0.0
C2177 C 0.65904 0.92416 0.70985 0.0
C2178 C 0.64036 0.92557 0.69707 0.0
C2179 C 0.6647 0.94116 0.72351 0.0
C2180 C 0.65167 0.95967 0.7247 0.0
C2181 C 0.63341 0.96132 0.7116 0.0
C2182 C 0.62789 0.94455 0.69782 0.0
C2183 C 0.65602 0.97691 0.74045 0.0
C2184 C 0.64078 0.98022 0.75665 0.0
C2185 C 0.6742 0.99062 0.73907 0.0
C2186 C 0.69081 0.98782 0.72225 0.0
C2187 C 0.68517 0.98879 0.70051 0.0
C2188 C 0.70096 0.98607 0.68476 0.0
C2189 C 0.72246 0.98252 0.69055 0.0
C2190 C 0.72823 0.98176 0.71212 0.0
C2191 C 0.7125 0.98446 0.72793 0.0
H2192 H 0.73466 0.98043 0.67834 0.0
H2193 H 0.57967 0.00765 0.8291 0.0
H2194 H 0.90963 0.66432 0.77937 0.0
H2195 H 0.93996 0.67372 0.7561 0.0
H2196 H 0.98446 0.64647 0.80168 0.0
H2197 H 0.95425 0.63664 0.82493 0.0
H2198 H 0.99829 0.68761 0.77916 0.0
H2199 H 0.97136 0.61435 0.76713 0.0
H2200 H 0.94222 0.58822 0.75989 0.0
H2201 H 0.92653 0.62169 0.70184 0.0
H2202 H 0.9554 0.64823 0.70895 0.0
H2203 H 0.09005 0.65318 0.72031 0.0
H2204 H 0.05963 0.66125 0.74381 0.0
H2205 H 0.01743 0.66538 0.68905 0.0
H2206 H 0.0476 0.65601 0.66568 0.0
H2207 H 0.00038 0.64026 0.71526 0.0
H2208 H 0.03068 0.7103 0.72335 0.0
H2209 H 0.05883 0.73759 0.73011 0.0
H2210 H 0.06732 0.71322 0.79377 0.0
H2211 H 0.03943 0.68557 0.78731 0.0
C2212 C 0.92589 0.66071 0.78467 0.0
C2213 C 0.92954 0.64948 0.80386 0.0
C2214 C 0.94318 0.66615 0.77137 0.0
C2215 C 0.96437 0.66073 0.77721 0.0
C2216 C 0.9682 0.65087 0.797 0.0
C2217 C 0.95091 0.64512 0.81016 0.0
C2218 C 0.98211 0.6626 0.76153 0.0
C2219 C 0.99893 0.67729 0.76517 0.0
C2220 C 0.98248 0.64949 0.7431 0.0
C2221 C 0.96533 0.63339 0.73869 0.0
C2222 C 0.96157 0.61623 0.75293 0.0
C2223 C 0.94513 0.60134 0.74883 0.0
C2224 C 0.93248 0.60333 0.73045 0.0
C2225 C 0.93631 0.62019 0.71609 0.0
C2226 C 0.9527 0.63516 0.72014 0.0
C2227 C 0.07437 0.65632 0.71327 0.0
C2228 C 0.0711 0.6538 0.69122 0.0
C2229 C 0.05697 0.66107 0.72672 0.0
C2230 C 0.03613 0.66404 0.71827 0.0
C2231 C 0.03326 0.66302 0.69602 0.0
C2232 C 0.05052 0.65773 0.68266 0.0
C2233 C 0.01701 0.6654 0.73262 0.0
C2234 C -0.00017 0.65107 0.72889 0.0
C2235 C 0.01629 0.6791 0.75077 0.0
C2236 C 0.03305 0.69574 0.75477 0.0
C2237 C 0.03866 0.71065 0.73874 0.0
C2238 C 0.05455 0.7262 0.74253 0.0
C2239 C 0.06489 0.72711 0.76234 0.0
C2240 C 0.05931 0.71249 0.77843 0.0
C2241 C 0.04343 0.69689 0.77472 0.0
H2242 H 0.0772 0.73916 0.76524 0.0
H2243 H 0.91976 0.59178 0.72731 0.0
H2244 H 0.34317 0.08933 0.71551 0.0
H2245 H 0.33628 0.05784 0.73815 0.0
H2246 H 0.35415 0.01557 0.68637 0.0
H2247 H 0.36161 0.04695 0.66372 0.0
H2248 H 0.31474 0.00334 0.7171 0.0
H2249 H 0.39201 0.02071 0.71248 0.0
H2250 H 0.42218 0.04668 0.71362 0.0
H2251 H 0.40394 0.06545 0.77716 0.0
H2252 H 0.37344 0.03978 0.77623 0.0
H2253 H 0.34722 0.90684 0.77093 0.0
H2254 H 0.34041 0.93775 0.74753 0.0
H2255 H 0.35342 0.98116 0.79997 0.0
H2256 H 0.36151 0.95033 0.82293 0.0
H2257 H 0.37495 0.99379 0.76854 0.0
H2258 H 0.30086 0.97291 0.77598 0.0
H2259 H 0.26966 0.9482 0.77527 0.0
H2260 H 0.27954 0.93714 0.70827 0.0
H2261 H 0.31099 0.96157 0.70863 0.0
C2262 C 0.34512 0.07334 0.70875 0.0
C2263 C 0.35313 0.07059 0.68792 0.0
C2264 C 0.34113 0.0554 0.72169 0.0
C2265 C 0.34471 0.03449 0.71385 0.0
C2266 C 0.35117 0.03163 0.69259 0.0
C2267 C 0.35556 0.04956 0.67976 0.0
C2268 C 0.34487 0.01597 0.72868 0.0
C2269 C 0.32789 0.00103 0.72831 0.0
C2270 C 0.36185 0.01339 0.74348 0.0
C2271 C 0.38034 0.02854 0.74419 0.0
C2272 C 0.39434 0.03052 0.72661 0.0
C2273 C 0.41151 0.04515 0.72723 0.0
C2274 C 0.41494 0.05776 0.74542 0.0
C2275 C 0.40124 0.0557 0.76306 0.0
C2276 C 0.38402 0.04111 0.76251 0.0
C2277 C 0.34824 0.923 0.7775 0.0
C2278 C 0.35501 0.92626 0.79866 0.0
C2279 C 0.34422 0.94068 0.76415 0.0
C2280 C 0.34624 0.96189 0.77196 0.0
C2281 C 0.35188 0.96501 0.79348 0.0
C2282 C 0.35645 0.9474 0.80662 0.0
C2283 C 0.3446 0.9808 0.75739 0.0
C2284 C 0.36151 0.99593 0.75763 0.0
C2285 C 0.32738 0.98355 0.74267 0.0
C2286 C 0.3084 0.96893 0.74238 0.0
C2287 C 0.29648 0.96509 0.76113 0.0
C2288 C 0.27873 0.95115 0.76078 0.0
C2289 C 0.27265 0.94107 0.74175 0.0
C2290 C 0.28428 0.94495 0.723 0.0
C2291 C 0.30205 0.95886 0.72326 0.0
H2292 H 0.25891 0.93028 0.74152 0.0
H2293 H 0.42823 0.06909 0.74588 0.0
H2294 H 0.90711 0.34494 0.72679 0.0
H2295 H 0.9367 0.33469 0.75072 0.0
H2296 H 0.98289 0.3493 0.70126 0.0
H2297 H 0.95345 0.36026 0.67742 0.0
H2298 H 0.98911 0.30756 0.72998 0.0
H2299 H 0.98076 0.38596 0.72885 0.0
H2300 H 0.96111 0.42046 0.73206 0.0
H2301 H 0.94041 0.40307 0.79523 0.0
H2302 H 0.95965 0.36825 0.79222 0.0
H2303 H 0.08875 0.33538 0.77945 0.0
H2304 H 0.05634 0.32694 0.75894 0.0
H2305 H 0.01703 0.3393 0.81461 0.0
H2306 H 0.04936 0.34876 0.83485 0.0
H2307 H 0.00463 0.36364 0.7844 0.0
H2308 H 0.01932 0.28835 0.78839 0.0
H2309 H 0.04088 0.25496 0.78599 0.0
H2310 H 0.05042 0.26559 0.71887 0.0
H2311 H 0.02918 0.29923 0.72091 0.0
C2312 C 0.92354 0.34558 0.72087 0.0
C2313 C 0.92803 0.35352 0.70031 0.0
C2314 C 0.94038 0.3397 0.73454 0.0
C2315 C 0.96187 0.34121 0.72765 0.0
C2316 C 0.96635 0.34791 0.70673 0.0
C2317 C 0.94956 0.35429 0.69323 0.0
C2318 C 0.97969 0.3383 0.74302 0.0
C2319 C 0.99267 0.31976 0.7419 0.0
C2320 C 0.98384 0.35402 0.75878 0.0
C2321 C 0.97132 0.37438 0.76017 0.0
C2322 C 0.97167 0.38932 0.74326 0.0
C2323 C 0.96071 0.40897 0.74508 0.0
C2324 C 0.94954 0.41395 0.76384 0.0
C2325 C 0.94908 0.39918 0.78072 0.0
C2326 C 0.95997 0.37948 0.77894 0.0
C2327 C 0.07326 0.33561 0.78749 0.0
C2328 C 0.0715 0.34304 0.80863 0.0
C2329 C 0.05469 0.33067 0.77576 0.0
C2330 C 0.03416 0.33256 0.78517 0.0
C2331 C 0.03266 0.3379 0.80693 0.0
C2332 C 0.05113 0.34328 0.8185 0.0
C2333 C 0.01443 0.33275 0.77166 0.0
C2334 C 0.00101 0.351 0.77294 0.0
C2335 C 0.00997 0.31667 0.75617 0.0
C2336 C 0.02276 0.29642 0.75485 0.0
C2337 C 0.02615 0.28367 0.77315 0.0
C2338 C 0.03829 0.26468 0.77184 0.0
C2339 C 0.04705 0.25818 0.7523 0.0
C2340 C 0.04364 0.27065 0.734 0.0
C2341 C 0.03151 0.28967 0.73522 0.0
H2342 H 0.05644 0.24346 0.75132 0.0
H2343 H 0.94136 0.42931 0.76536 0.0
H2344 H 0.4084 0.93491 0.19707 0.0
H2345 H 0.4035 0.96507 0.22177 0.0
H2346 H 0.33767 0.94543 0.23299 0.0
H2347 H 0.34258 0.91471 0.20858 0.0
H2348 H 0.34753 0.99313 0.22225 0.0
H2349 H 0.36614 0.93431 0.26955 0.0
H2350 H 0.3885 0.90355 0.28128 0.0
H2351 H 0.44346 0.94533 0.28725 0.0
H2352 H 0.42157 0.97627 0.27513 0.0
H2353 H 0.33785 0.07411 0.30279 0.0
H2354 H 0.33437 0.04033 0.28261 0.0
H2355 H 0.40355 0.03166 0.28535 0.0
H2356 H 0.40679 0.06429 0.30678 0.0
H2357 H 0.38702 0.99541 0.29114 0.0
H2358 H 0.37401 0.05161 0.2395 0.0
H2359 H 0.35581 0.08357 0.22434 0.0
H2360 H 0.29569 0.04906 0.22287 0.0
H2361 H 0.31351 0.01697 0.23827 0.0
C2362 C 0.39283 0.93703 0.2047 0.0
C2363 C 0.37583 0.92251 0.20088 0.0
C2364 C 0.39011 0.9542 0.21885 0.0
C2365 C 0.37026 0.95734 0.22915 0.0
C2366 C 0.3531 0.94316 0.22513 0.0
C2367 C 0.35594 0.92566 0.21128 0.0
C2368 C 0.36771 0.97555 0.24414 0.0
C2369 C 0.35577 0.99357 0.23754 0.0
C2370 C 0.37909 0.97617 0.26368 0.0
C2371 C 0.39223 0.95759 0.27122 0.0
C2372 C 0.38305 0.93691 0.27315 0.0
C2373 C 0.39563 0.91945 0.27992 0.0
C2374 C 0.41738 0.92248 0.285 0.0
C2375 C 0.4266 0.943 0.28332 0.0
C2376 C 0.41411 0.96051 0.27651 0.0
C2377 C 0.35223 0.06485 0.29913 0.0
C2378 C 0.37256 0.07173 0.30632 0.0
C2379 C 0.35027 0.04563 0.2875 0.0
C2380 C 0.36873 0.03348 0.2822 0.0
C2381 C 0.38902 0.04052 0.28939 0.0
C2382 C 0.39088 0.05926 0.30155 0.0
C2383 C 0.36726 0.01351 0.26909 0.0
C2384 C 0.37846 0.99504 0.27603 0.0
C2385 C 0.35576 0.01273 0.24951 0.0
C2386 C 0.34503 0.032 0.24028 0.0
C2387 C 0.35688 0.0509 0.23609 0.0
C2388 C 0.34664 0.06903 0.22743 0.0
C2389 C 0.32459 0.06837 0.22272 0.0
C2390 C 0.31275 0.04956 0.22659 0.0
C2391 C 0.32291 0.0314 0.23527 0.0
H2392 H 0.31669 0.08242 0.21601 0.0
H2393 H 0.4271 0.90894 0.29022 0.0
H2394 H 0.08577 0.32525 0.20965 0.0
H2395 H 0.05492 0.31415 0.23155 0.0
H2396 H 0.01512 0.36184 0.20025 0.0
H2397 H 0.04545 0.37257 0.17811 0.0
H2398 H 0.03505 0.33665 0.26004 0.0
H2399 H 0.96377 0.34955 0.19953 0.0
H2400 H 0.95596 0.34172 0.16171 0.0
H2401 H 0.00364 0.29134 0.16185 0.0
H2402 H 0.01152 0.29861 0.19976 0.0
H2403 H 0.94632 0.38406 0.30648 0.0
H2404 H 0.97658 0.3718 0.28509 0.0
H2405 H 0.9415 0.31407 0.26821 0.0
H2406 H 0.9105 0.32673 0.28923 0.0
H2407 H 0.9596 0.32961 0.23435 0.0
H2408 H 0.98615 0.31192 0.30253 0.0
H2409 H 0.99411 0.31664 0.34082 0.0
H2410 H 0.03632 0.36961 0.32621 0.0
H2411 H 0.02839 0.36543 0.28785 0.0
C2412 C 0.07033 0.33308 0.20718 0.0
C2413 C 0.06813 0.34989 0.19219 0.0
C2414 C 0.05272 0.32672 0.21971 0.0
C2415 C 0.03261 0.33698 0.21742 0.0
C2416 C 0.03028 0.35329 0.20202 0.0
C2417 C 0.04777 0.35957 0.18946 0.0
C2418 C 0.01462 0.33257 0.23249 0.0
C2419 C 0.01858 0.33478 0.25445 0.0
C2420 C 0.99319 0.32933 0.22531 0.0
C2421 C 0.98829 0.32469 0.20253 0.0
C2422 C 0.97248 0.33668 0.19157 0.0
C2423 C 0.96807 0.33237 0.17008 0.0
C2424 C 0.97932 0.31607 0.15938 0.0
C2425 C 0.99497 0.304 0.17015 0.0
C2426 C 0.99944 0.30824 0.19163 0.0
C2427 C 0.94501 0.36863 0.29843 0.0
C2428 C 0.92597 0.35635 0.29963 0.0
C2429 C 0.96247 0.36154 0.2863 0.0
C2430 C 0.96156 0.34175 0.2754 0.0
C2431 C 0.94263 0.32931 0.27662 0.0
C2432 C 0.92495 0.33656 0.28864 0.0
C2433 C 0.97999 0.33515 0.26168 0.0
C2434 C 0.97611 0.33085 0.24 0.0
C2435 C 0.00155 0.33588 0.26919 0.0
C2436 C 0.00664 0.33835 0.29227 0.0
C2437 C 0.99706 0.32463 0.30747 0.0
C2438 C 0.00157 0.32722 0.3292 0.0
C2439 C 0.01571 0.34342 0.33594 0.0
C2440 C 0.0254 0.35704 0.32096 0.0
C2441 C 0.02094 0.35454 0.29921 0.0
H2442 H 0.01916 0.3454 0.35278 0.0
H2443 H 0.97588 0.31277 0.14275 0.0
H2444 H 0.61197 0.95271 0.30957 0.0
H2445 H 0.62086 0.98215 0.28539 0.0
H2446 H 0.6765 0.94683 0.26287 0.0
H2447 H 0.66729 0.91684 0.28668 0.0
H2448 H 0.65274 0.00887 0.2801 0.0
H2449 H 0.68346 0.95799 0.20972 0.0
H2450 H 0.68057 0.92092 0.19546 0.0
H2451 H 0.61795 0.91419 0.22421 0.0
H2452 H 0.62038 0.95128 0.23841 0.0
H2453 H 0.66884 0.08649 0.19886 0.0
H2454 H 0.67827 0.05533 0.22108 0.0
H2455 H 0.62394 0.02024 0.19547 0.0
H2456 H 0.6149 0.05078 0.17284 0.0
H2457 H 0.6553 0.99326 0.20241 0.0
H2458 H 0.62065 0.05105 0.24249 0.0
H2459 H 0.61775 0.0882 0.25645 0.0
H2460 H 0.67883 0.08106 0.28816 0.0
H2461 H 0.68217 0.04392 0.27415 0.0
C2462 C 0.62621 0.95121 0.29962 0.0
C2463 C 0.63878 0.9323 0.2999 0.0
C2464 C 0.63134 0.96814 0.28585 0.0
C2465 C 0.64921 0.96663 0.27213 0.0
C2466 C 0.66242 0.9482 0.27305 0.0
C2467 C 0.65715 0.9311 0.2867 0.0
C2468 C 0.65298 0.98391 0.25612 0.0
C2469 C 0.6536 0.00543 0.26313 0.0
C2470 C 0.65399 0.97949 0.23395 0.0
C2471 C 0.65225 0.95726 0.22535 0.0
C2472 C 0.66908 0.94859 0.21296 0.0
C2473 C 0.66752 0.92759 0.20489 0.0
C2474 C 0.64913 0.91518 0.20901 0.0
C2475 C 0.63222 0.92378 0.22111 0.0
C2476 C 0.63369 0.94478 0.22919 0.0
C2477 C 0.65917 0.07197 0.19766 0.0
C2478 C 0.6409 0.07127 0.18431 0.0
C2479 C 0.66456 0.05419 0.21041 0.0
C2480 C 0.65156 0.0356 0.21026 0.0
C2481 C 0.63421 0.0344 0.19591 0.0
C2482 C 0.62898 0.05199 0.18302 0.0
C2483 C 0.65435 0.01823 0.22637 0.0
C2484 C 0.65508 0.99668 0.21941 0.0
C2485 C 0.65383 0.02262 0.24857 0.0
C2486 C 0.65178 0.04486 0.25708 0.0
C2487 C 0.63351 0.05747 0.25234 0.0
C2488 C 0.63178 0.0785 0.26026 0.0
C2489 C 0.64814 0.08701 0.27313 0.0
C2490 C 0.66621 0.07447 0.27815 0.0
C2491 C 0.66803 0.05343 0.27023 0.0
H2492 H 0.64677 0.1033 0.27925 0.0
H2493 H 0.64796 0.89892 0.20276 0.0
H2494 H 0.93823 0.59377 0.19261 0.0
H2495 H 0.96752 0.59737 0.21845 0.0
H2496 H 0.94615 0.66182 0.23376 0.0
H2497 H 0.91627 0.65819 0.20812 0.0
H2498 H 0.99487 0.65279 0.22373 0.0
H2499 H 0.93443 0.63147 0.26825 0.0
H2500 H 0.90319 0.60841 0.27696 0.0
H2501 H 0.9445 0.55274 0.27925 0.0
H2502 H 0.97594 0.57541 0.2702 0.0
H2503 H 0.07347 0.65689 0.30625 0.0
H2504 H 0.03992 0.6617 0.28605 0.0
H2505 H 0.03103 0.5925 0.28476 0.0
H2506 H 0.0635 0.58788 0.30628 0.0
H2507 H 0.99461 0.60875 0.28996 0.0
H2508 H 0.05248 0.62447 0.24109 0.0
H2509 H 0.08513 0.64316 0.22815 0.0
H2510 H 0.05133 0.70374 0.22935 0.0
H2511 H 0.01854 0.68542 0.24255 0.0
C2512 C 0.9398 0.60879 0.20134 0.0
C2513 C 0.92502 0.62575 0.19831 0.0
C2514 C 0.95648 0.61076 0.21614 0.0
C2515 C 0.95886 0.62982 0.22795 0.0
C2516 C 0.94446 0.647 0.22472 0.0
C2517 C 0.92744 0.64489 0.21016 0.0
C2518 C 0.97645 0.63141 0.24374 0.0
C2519 C 0.99474 0.64359 0.23849 0.0
C2520 C 0.97637 0.61872 0.26248 0.0
C2521 C 0.95753 0.60514 0.26839 0.0
C2522 C 0.93684 0.61429 0.27046 0.0
C2523 C 0.9191 0.60129 0.27549 0.0
C2524 C 0.92186 0.57912 0.27866 0.0
C2525 C 0.94238 0.56992 0.27682 0.0
C2526 C 0.96018 0.58284 0.27176 0.0
C2527 C 0.06418 0.64279 0.30174 0.0
C2528 C 0.071 0.62204 0.30775 0.0
C2529 C 0.04511 0.64551 0.29009 0.0
C2530 C 0.03305 0.62744 0.28351 0.0
C2531 C 0.0399 0.60673 0.2897 0.0
C2532 C 0.05851 0.60408 0.30193 0.0
C2533 C 0.01354 0.62984 0.26987 0.0
C2534 C 0.9948 0.61834 0.27546 0.0
C2535 C 0.01349 0.64259 0.25103 0.0
C2536 C 0.03315 0.65362 0.24305 0.0
C2537 C 0.05206 0.6418 0.23874 0.0
C2538 C 0.07058 0.65232 0.23133 0.0
C2539 C 0.07032 0.67464 0.228 0.0
C2540 C 0.05152 0.68646 0.23199 0.0
C2541 C 0.03296 0.67602 0.23942 0.0
H2542 H 0.08468 0.68275 0.22227 0.0
H2543 H 0.90811 0.56908 0.28253 0.0
loop_
_geom_bond_atom_site_label_1
_geom_bond_atom_site_label_2
_geom_bond_distance
_geom_bond_site_symmetry_2
_ccdc_geom_bond_type
Co0 O3 1.970 . S
Co0 N17 1.989 . S
Co0 O25 1.967 . S
Co0 O32 1.920 . S
Co1 O4 1.966 . S
Co1 N10 2.022 . S
Co1 N18 1.993 . S
Co1 O26 1.941 . S
C2 O3 1.258 . S
C2 O4 1.263 . S
O3 Co0 1.970 . S
O3 C2 1.258 . S
O4 Co1 1.966 . S
O4 C2 1.263 . S
C5 O6 1.235 . S
C5 O32 1.289 . S
O6 C5 1.235 . S
C7 C9 1.400 . S
C7 N10 1.351 . S
C7 C12 1.501 . S
C8 C9 1.387 . S
C8 N11 1.341 . S
C9 C7 1.400 . S
C9 C8 1.387 . S
N10 Co1 2.022 . S
N10 C7 1.351 . S
N10 N11 1.365 . S
N11 C8 1.341 . S
N11 N10 1.365 . S
N11 H31 0.862 . S
C12 C7 1.501 . S
C12 H13 0.961 . S
C12 H14 0.961 . S
C12 H15 0.960 . S
H13 C12 0.961 . S
H14 C12 0.961 . S
H15 C12 0.960 . S
C16 N17 1.342 . S
C16 C20 1.401 . S
C16 C21 1.499 . S
N17 Co0 1.989 . S
N17 C16 1.342 . S
N17 N18 1.388 . S
N18 Co1 1.993 . S
N18 N17 1.388 . S
N18 C19 1.346 . S
C19 N18 1.346 . S
C19 C20 1.396 . S
C19 C29 1.510 . S
C20 C16 1.401 . S
C20 C19 1.396 . S
C21 C16 1.499 . S
C21 H22 0.959 . S
C21 H23 0.960 . S
C21 H24 0.961 . S
H22 C21 0.959 . S
H23 C21 0.960 . S
H24 C21 0.961 . S
O25 Co0 1.967 . S
O25 C33 1.258 . S
O26 Co1 1.941 . S
O26 C33 1.266 . S
H27 C29 0.959 . S
H28 C29 0.961 . S
C29 C19 1.510 . S
C29 H27 0.959 . S
C29 H28 0.961 . S
C29 H30 0.960 . S
H30 C29 0.960 . S
H31 N11 0.862 . S
O32 Co0 1.920 . S
O32 C5 1.289 . S
C33 O25 1.258 . S
C33 O26 1.266 . S
Co34 O37 1.970 . S
Co34 N51 1.989 . S
Co34 O59 1.967 . S
Co34 O66 1.920 . S
Co35 O38 1.966 . S
Co35 N44 2.022 . S
Co35 N52 1.993 . S
Co35 O60 1.941 . S
C36 O37 1.258 . S
C36 O38 1.263 . S
O37 Co34 1.970 . S
O37 C36 1.258 . S
O38 Co35 1.966 . S
O38 C36 1.263 . S
C39 O40 1.235 . S
C39 O66 1.289 . S
O40 C39 1.235 . S
C41 C43 1.400 . S
C41 N44 1.351 . S
C41 C46 1.501 . S
C42 C43 1.387 . S
C42 N45 1.341 . S
C43 C41 1.400 . S
C43 C42 1.387 . S
N44 Co35 2.022 . S
N44 C41 1.351 . S
N44 N45 1.365 . S
N45 C42 1.341 . S
N45 N44 1.365 . S
N45 H65 0.862 . S
C46 C41 1.501 . S
C46 H47 0.961 . S
C46 H48 0.961 . S
C46 H49 0.960 . S
H47 C46 0.961 . S
H48 C46 0.961 . S
H49 C46 0.960 . S
C50 N51 1.342 . S
C50 C54 1.401 . S
C50 C55 1.499 . S
N51 Co34 1.989 . S
N51 C50 1.342 . S
N51 N52 1.388 . S
N52 Co35 1.993 . S
N52 N51 1.388 . S
N52 C53 1.346 . S
C53 N52 1.346 . S
C53 C54 1.396 . S
C53 C63 1.510 . S
C54 C50 1.401 . S
C54 C53 1.396 . S
C55 C50 1.499 . S
C55 H56 0.959 . S
C55 H57 0.960 . S
C55 H58 0.961 . S
H56 C55 0.959 . S
H57 C55 0.960 . S
H58 C55 0.961 . S
O59 Co34 1.967 . S
O59 C67 1.258 . S
O60 Co35 1.941 . S
O60 C67 1.266 . S
H61 C63 0.959 . S
H62 C63 0.961 . S
C63 C53 1.510 . S
C63 H61 0.959 . S
C63 H62 0.961 . S
C63 H64 0.960 . S
H64 C63 0.960 . S
H65 N45 0.862 . S
O66 Co34 1.920 . S
O66 C39 1.289 . S
C67 O59 1.258 . S
C67 O60 1.266 . S
Co68 O71 1.970 . S
Co68 N85 1.989 . S
Co68 O93 1.967 . S
Co68 O100 1.920 . S
Co69 O72 1.966 . S
Co69 N78 2.022 . S
Co69 N86 1.993 . S
Co69 O94 1.941 . S
C70 O71 1.258 . S
C70 O72 1.263 . S
O71 Co68 1.970 . S
O71 C70 1.258 . S
O72 Co69 1.966 . S
O72 C70 1.263 . S
C73 O74 1.235 . S
C73 O100 1.289 . S
O74 C73 1.235 . S
C75 C77 1.400 . S
C75 N78 1.351 . S
C75 C80 1.501 . S
C76 C77 1.387 . S
C76 N79 1.341 . S
C77 C75 1.400 . S
C77 C76 1.387 . S
N78 Co69 2.022 . S
N78 C75 1.351 . S
N78 N79 1.365 . S
N79 C76 1.341 . S
N79 N78 1.365 . S
N79 H99 0.862 . S
C80 C75 1.501 . S
C80 H81 0.961 . S
C80 H82 0.961 . S
C80 H83 0.960 . S
H81 C80 0.961 . S
H82 C80 0.961 . S
H83 C80 0.960 . S
C84 N85 1.342 . S
C84 C88 1.401 . S
C84 C89 1.499 . S
N85 Co68 1.989 . S
N85 C84 1.342 . S
N85 N86 1.388 . S
N86 Co69 1.993 . S
N86 N85 1.388 . S
N86 C87 1.346 . S
C87 N86 1.346 . S
C87 C88 1.396 . S
C87 C97 1.510 . S
C88 C84 1.401 . S
C88 C87 1.396 . S
C89 C84 1.499 . S
C89 H90 0.959 . S
C89 H91 0.960 . S
C89 H92 0.961 . S
H90 C89 0.959 . S
H91 C89 0.960 . S
H92 C89 0.961 . S
O93 Co68 1.967 . S
O93 C101 1.258 . S
O94 Co69 1.941 . S
O94 C101 1.266 . S
H95 C97 0.959 . S
H96 C97 0.961 . S
C97 C87 1.510 . S
C97 H95 0.959 . S
C97 H96 0.961 . S
C97 H98 0.960 . S
H98 C97 0.960 . S
H99 N79 0.862 . S
O100 Co68 1.920 . S
O100 C73 1.289 . S
C101 O93 1.258 . S
C101 O94 1.266 . S
Co102 O105 1.970 . S
Co102 N119 1.989 . S
Co102 O127 1.967 . S
Co102 O134 1.920 . S
Co103 O106 1.966 . S
Co103 N112 2.022 . S
Co103 N120 1.993 . S
Co103 O128 1.941 . S
C104 O105 1.258 . S
C104 O106 1.263 . S
O105 Co102 1.970 . S
O105 C104 1.258 . S
O106 Co103 1.966 . S
O106 C104 1.263 . S
C107 O108 1.235 . S
C107 O134 1.289 . S
O108 C107 1.235 . S
C109 C111 1.400 . S
C109 N112 1.351 . S
C109 C114 1.501 . S
C110 C111 1.387 . S
C110 N113 1.341 . S
C111 C109 1.400 . S
C111 C110 1.387 . S
N112 Co103 2.022 . S
N112 C109 1.351 . S
N112 N113 1.365 . S
N113 C110 1.341 . S
N113 N112 1.365 . S
N113 H133 0.862 . S
C114 C109 1.501 . S
C114 H115 0.961 . S
C114 H116 0.961 . S
C114 H117 0.960 . S
H115 C114 0.961 . S
H116 C114 0.961 . S
H117 C114 0.960 . S
C118 N119 1.342 . S
C118 C122 1.401 . S
C118 C123 1.499 . S
N119 Co102 1.989 . S
N119 C118 1.342 . S
N119 N120 1.388 . S
N120 Co103 1.993 . S
N120 N119 1.388 . S
N120 C121 1.346 . S
C121 N120 1.346 . S
C121 C122 1.396 . S
C121 C131 1.510 . S
C122 C118 1.401 . S
C122 C121 1.396 . S
C123 C118 1.499 . S
C123 H124 0.959 . S
C123 H125 0.960 . S
C123 H126 0.961 . S
H124 C123 0.959 . S
H125 C123 0.960 . S
H126 C123 0.961 . S
O127 Co102 1.967 . S
O127 C135 1.258 . S
O128 Co103 1.941 . S
O128 C135 1.266 . S
H129 C131 0.959 . S
H130 C131 0.961 . S
C131 C121 1.510 . S
C131 H129 0.959 . S
C131 H130 0.961 . S
C131 H132 0.960 . S
H132 C131 0.960 . S
H133 N113 0.862 . S
O134 Co102 1.920 . S
O134 C107 1.289 . S
C135 O127 1.258 . S
C135 O128 1.266 . S
Co136 O139 1.970 . S
Co136 N153 1.989 . S
Co136 O161 1.967 . S
Co136 O168 1.920 . S
Co137 O140 1.966 . S
Co137 N146 2.022 . S
Co137 N154 1.993 . S
Co137 O162 1.941 . S
C138 O139 1.258 . S
C138 O140 1.263 . S
O139 Co136 1.970 . S
O139 C138 1.258 . S
O140 Co137 1.966 . S
O140 C138 1.263 . S
C141 O142 1.235 . S
C141 O168 1.289 . S
O142 C141 1.235 . S
C143 C145 1.400 . S
C143 N146 1.351 . S
C143 C148 1.501 . S
C144 C145 1.387 . S
C144 N147 1.341 . S
C145 C143 1.400 . S
C145 C144 1.387 . S
N146 Co137 2.022 . S
N146 C143 1.351 . S
N146 N147 1.365 . S
N147 C144 1.341 . S
N147 N146 1.365 . S
N147 H167 0.862 . S
C148 C143 1.501 . S
C148 H149 0.961 . S
C148 H150 0.961 . S
C148 H151 0.960 . S
H149 C148 0.961 . S
H150 C148 0.961 . S
H151 C148 0.960 . S
C152 N153 1.342 . S
C152 C156 1.401 . S
C152 C157 1.499 . S
N153 Co136 1.989 . S
N153 C152 1.342 . S
N153 N154 1.388 . S
N154 Co137 1.993 . S
N154 N153 1.388 . S
N154 C155 1.346 . S
C155 N154 1.346 . S
C155 C156 1.396 . S
C155 C165 1.510 . S
C156 C152 1.401 . S
C156 C155 1.396 . S
C157 C152 1.499 . S
C157 H158 0.959 . S
C157 H159 0.960 . S
C157 H160 0.961 . S
H158 C157 0.959 . S
H159 C157 0.960 . S
H160 C157 0.961 . S
O161 Co136 1.967 . S
O161 C169 1.258 . S
O162 Co137 1.941 . S
O162 C169 1.266 . S
H163 C165 0.959 . S
H164 C165 0.961 . S
C165 C155 1.510 . S
C165 H163 0.959 . S
C165 H164 0.961 . S
C165 H166 0.960 . S
H166 C165 0.960 . S
H167 N147 0.862 . S
O168 Co136 1.920 . S
O168 C141 1.289 . S
C169 O161 1.258 . S
C169 O162 1.266 . S
Co170 O173 1.970 . S
Co170 N187 1.989 . S
Co170 O195 1.967 . S
Co170 O202 1.920 . S
Co171 O174 1.966 . S
Co171 N180 2.022 . S
Co171 N188 1.993 . S
Co171 O196 1.941 . S
C172 O173 1.258 . S
C172 O174 1.263 . S
O173 Co170 1.970 . S
O173 C172 1.258 . S
O174 Co171 1.966 . S
O174 C172 1.263 . S
C175 O176 1.235 . S
C175 O202 1.289 . S
O176 C175 1.235 . S
C177 C179 1.400 . S
C177 N180 1.351 . S
C177 C182 1.501 . S
C178 C179 1.387 . S
C178 N181 1.341 . S
C179 C177 1.400 . S
C179 C178 1.387 . S
N180 Co171 2.022 . S
N180 C177 1.351 . S
N180 N181 1.365 . S
N181 C178 1.341 . S
N181 N180 1.365 . S
N181 H201 0.862 . S
C182 C177 1.501 . S
C182 H183 0.961 . S
C182 H184 0.961 . S
C182 H185 0.960 . S
H183 C182 0.961 . S
H184 C182 0.961 . S
H185 C182 0.960 . S
C186 N187 1.342 . S
C186 C190 1.401 . S
C186 C191 1.499 . S
N187 Co170 1.989 . S
N187 C186 1.342 . S
N187 N188 1.388 . S
N188 Co171 1.993 . S
N188 N187 1.388 . S
N188 C189 1.346 . S
C189 N188 1.346 . S
C189 C190 1.396 . S
C189 C199 1.510 . S
C190 C186 1.401 . S
C190 C189 1.396 . S
C191 C186 1.499 . S
C191 H192 0.959 . S
C191 H193 0.960 . S
C191 H194 0.961 . S
H192 C191 0.959 . S
H193 C191 0.960 . S
H194 C191 0.961 . S
O195 Co170 1.967 . S
O195 C203 1.258 . S
O196 Co171 1.941 . S
O196 C203 1.266 . S
H197 C199 0.959 . S
H198 C199 0.961 . S
C199 C189 1.510 . S
C199 H197 0.959 . S
C199 H198 0.961 . S
C199 H200 0.960 . S
H200 C199 0.960 . S
H201 N181 0.862 . S
O202 Co170 1.920 . S
O202 C175 1.289 . S
C203 O195 1.258 . S
C203 O196 1.266 . S
Co204 O207 1.970 . S
Co204 N221 1.989 . S
Co204 O229 1.967 . S
Co204 O236 1.920 . S
Co205 O208 1.966 . S
Co205 N214 2.022 . S
Co205 N222 1.993 . S
Co205 O230 1.941 . S
C206 O207 1.258 . S
C206 O208 1.263 . S
O207 Co204 1.970 . S
O207 C206 1.258 . S
O208 Co205 1.966 . S
O208 C206 1.263 . S
C209 O210 1.235 . S
C209 O236 1.289 . S
O210 C209 1.235 . S
C211 C213 1.400 . S
C211 N214 1.351 . S
C211 C216 1.501 . S
C212 C213 1.387 . S
C212 N215 1.341 . S
C213 C211 1.400 . S
C213 C212 1.387 . S
N214 Co205 2.022 . S
N214 C211 1.351 . S
N214 N215 1.365 . S
N215 C212 1.341 . S
N215 N214 1.365 . S
N215 H235 0.862 . S
C216 C211 1.501 . S
C216 H217 0.961 . S
C216 H218 0.961 . S
C216 H219 0.960 . S
H217 C216 0.961 . S
H218 C216 0.961 . S
H219 C216 0.960 . S
C220 N221 1.342 . S
C220 C224 1.401 . S
C220 C225 1.499 . S
N221 Co204 1.989 . S
N221 C220 1.342 . S
N221 N222 1.388 . S
N222 Co205 1.993 . S
N222 N221 1.388 . S
N222 C223 1.346 . S
C223 N222 1.346 . S
C223 C224 1.396 . S
C223 C233 1.510 . S
C224 C220 1.401 . S
C224 C223 1.396 . S
C225 C220 1.499 . S
C225 H226 0.959 . S
C225 H227 0.960 . S
C225 H228 0.961 . S
H226 C225 0.959 . S
H227 C225 0.960 . S
H228 C225 0.961 . S
O229 Co204 1.967 . S
O229 C237 1.258 . S
O230 Co205 1.941 . S
O230 C237 1.266 . S
H231 C233 0.959 . S
H232 C233 0.961 . S
C233 C223 1.510 . S
C233 H231 0.959 . S
C233 H232 0.961 . S
C233 H234 0.960 . S
H234 C233 0.960 . S
H235 N215 0.862 . S
O236 Co204 1.920 . S
O236 C209 1.289 . S
C237 O229 1.258 . S
C237 O230 1.266 . S
Co238 O241 1.970 . S
Co238 N255 1.989 . S
Co238 O263 1.967 . S
Co238 O270 1.920 . S
Co239 O242 1.966 . S
Co239 N248 2.022 . S
Co239 N256 1.993 . S
Co239 O264 1.941 . S
C240 O241 1.258 . S
C240 O242 1.263 . S
O241 Co238 1.970 . S
O241 C240 1.258 . S
O242 Co239 1.966 . S
O242 C240 1.263 . S
C243 O244 1.235 . S
C243 O270 1.289 . S
O244 C243 1.235 . S
C245 C247 1.400 . S
C245 N248 1.351 . S
C245 C250 1.501 . S
C246 C247 1.387 . S
C246 N249 1.341 . S
C247 C245 1.400 . S
C247 C246 1.387 . S
N248 Co239 2.022 . S
N248 C245 1.351 . S
N248 N249 1.365 . S
N249 C246 1.341 . S
N249 N248 1.365 . S
N249 H269 0.862 . S
C250 C245 1.501 . S
C250 H251 0.961 . S
C250 H252 0.961 . S
C250 H253 0.960 . S
H251 C250 0.961 . S
H252 C250 0.961 . S
H253 C250 0.960 . S
C254 N255 1.342 . S
C254 C258 1.401 . S
C254 C259 1.499 . S
N255 Co238 1.989 . S
N255 C254 1.342 . S
N255 N256 1.388 . S
N256 Co239 1.993 . S
N256 N255 1.388 . S
N256 C257 1.346 . S
C257 N256 1.346 . S
C257 C258 1.396 . S
C257 C267 1.510 . S
C258 C254 1.401 . S
C258 C257 1.396 . S
C259 C254 1.499 . S
C259 H260 0.959 . S
C259 H261 0.960 . S
C259 H262 0.961 . S
H260 C259 0.959 . S
H261 C259 0.960 . S
H262 C259 0.961 . S
O263 Co238 1.967 . S
O263 C271 1.258 . S
O264 Co239 1.941 . S
O264 C271 1.266 . S
H265 C267 0.959 . S
H266 C267 0.961 . S
C267 C257 1.510 . S
C267 H265 0.959 . S
C267 H266 0.961 . S
C267 H268 0.960 . S
H268 C267 0.960 . S
H269 N249 0.862 . S
O270 Co238 1.920 . S
O270 C243 1.289 . S
C271 O263 1.258 . S
C271 O264 1.266 . S
Co272 O275 1.970 . S
Co272 N289 1.989 . S
Co272 O297 1.967 . S
Co272 O304 1.920 . S
Co273 O276 1.966 . S
Co273 N282 2.022 . S
Co273 N290 1.993 . S
Co273 O298 1.941 . S
C274 O275 1.258 . S
C274 O276 1.263 . S
O275 Co272 1.970 . S
O275 C274 1.258 . S
O276 Co273 1.966 . S
O276 C274 1.263 . S
C277 O278 1.235 . S
C277 O304 1.289 . S
O278 C277 1.235 . S
C279 C281 1.400 . S
C279 N282 1.351 . S
C279 C284 1.501 . S
C280 C281 1.387 . S
C280 N283 1.341 . S
C281 C279 1.400 . S
C281 C280 1.387 . S
N282 Co273 2.022 . S
N282 C279 1.351 . S
N282 N283 1.365 . S
N283 C280 1.341 . S
N283 N282 1.365 . S
N283 H303 0.862 . S
C284 C279 1.501 . S
C284 H285 0.961 . S
C284 H286 0.961 . S
C284 H287 0.960 . S
H285 C284 0.961 . S
H286 C284 0.961 . S
H287 C284 0.960 . S
C288 N289 1.342 . S
C288 C292 1.401 . S
C288 C293 1.499 . S
N289 Co272 1.989 . S
N289 C288 1.342 . S
N289 N290 1.388 . S
N290 Co273 1.993 . S
N290 N289 1.388 . S
N290 C291 1.346 . S
C291 N290 1.346 . S
C291 C292 1.396 . S
C291 C301 1.510 . S
C292 C288 1.401 . S
C292 C291 1.396 . S
C293 C288 1.499 . S
C293 H294 0.959 . S
C293 H295 0.960 . S
C293 H296 0.961 . S
H294 C293 0.959 . S
H295 C293 0.960 . S
H296 C293 0.961 . S
O297 Co272 1.967 . S
O297 C305 1.258 . S
O298 Co273 1.941 . S
O298 C305 1.266 . S
H299 C301 0.959 . S
H300 C301 0.961 . S
C301 C291 1.510 . S
C301 H299 0.959 . S
C301 H300 0.961 . S
C301 H302 0.960 . S
H302 C301 0.960 . S
H303 N283 0.862 . S
O304 Co272 1.920 . S
O304 C277 1.289 . S
C305 O297 1.258 . S
C305 O298 1.266 . S
Co306 O309 1.970 . S
Co306 N323 1.989 . S
Co306 O331 1.967 . S
Co306 O338 1.920 . S
Co307 O310 1.966 . S
Co307 N316 2.022 . S
Co307 N324 1.993 . S
Co307 O332 1.941 . S
C308 O309 1.258 . S
C308 O310 1.263 . S
O309 Co306 1.970 . S
O309 C308 1.258 . S
O310 Co307 1.966 . S
O310 C308 1.263 . S
C311 O312 1.235 . S
C311 O338 1.289 . S
O312 C311 1.235 . S
C313 C315 1.400 . S
C313 N316 1.351 . S
C313 C318 1.501 . S
C314 C315 1.387 . S
C314 N317 1.341 . S
C315 C313 1.400 . S
C315 C314 1.387 . S
N316 Co307 2.022 . S
N316 C313 1.351 . S
N316 N317 1.365 . S
N317 C314 1.341 . S
N317 N316 1.365 . S
N317 H337 0.862 . S
C318 C313 1.501 . S
C318 H319 0.961 . S
C318 H320 0.961 . S
C318 H321 0.960 . S
H319 C318 0.961 . S
H320 C318 0.961 . S
H321 C318 0.960 . S
C322 N323 1.342 . S
C322 C326 1.401 . S
C322 C327 1.499 . S
N323 Co306 1.989 . S
N323 C322 1.342 . S
N323 N324 1.388 . S
N324 Co307 1.993 . S
N324 N323 1.388 . S
N324 C325 1.346 . S
C325 N324 1.346 . S
C325 C326 1.396 . S
C325 C335 1.510 . S
C326 C322 1.401 . S
C326 C325 1.396 . S
C327 C322 1.499 . S
C327 H328 0.959 . S
C327 H329 0.960 . S
C327 H330 0.961 . S
H328 C327 0.959 . S
H329 C327 0.960 . S
H330 C327 0.961 . S
O331 Co306 1.967 . S
O331 C339 1.258 . S
O332 Co307 1.941 . S
O332 C339 1.266 . S
H333 C335 0.959 . S
H334 C335 0.961 . S
C335 C325 1.510 . S
C335 H333 0.959 . S
C335 H334 0.961 . S
C335 H336 0.960 . S
H336 C335 0.960 . S
H337 N317 0.862 . S
O338 Co306 1.920 . S
O338 C311 1.289 . S
C339 O331 1.258 . S
C339 O332 1.266 . S
Co340 O343 1.970 . S
Co340 N357 1.989 . S
Co340 O365 1.967 . S
Co340 O372 1.920 . S
Co341 O344 1.966 . S
Co341 N350 2.022 . S
Co341 N358 1.993 . S
Co341 O366 1.941 . S
C342 O343 1.258 . S
C342 O344 1.263 . S
O343 Co340 1.970 . S
O343 C342 1.258 . S
O344 Co341 1.966 . S
O344 C342 1.263 . S
C345 O346 1.235 . S
C345 O372 1.289 . S
O346 C345 1.235 . S
C347 C349 1.400 . S
C347 N350 1.351 . S
C347 C352 1.501 . S
C348 C349 1.387 . S
C348 N351 1.341 . S
C349 C347 1.400 . S
C349 C348 1.387 . S
N350 Co341 2.022 . S
N350 C347 1.351 . S
N350 N351 1.365 . S
N351 C348 1.341 . S
N351 N350 1.365 . S
N351 H371 0.862 . S
C352 C347 1.501 . S
C352 H353 0.961 . S
C352 H354 0.961 . S
C352 H355 0.960 . S
H353 C352 0.961 . S
H354 C352 0.961 . S
H355 C352 0.960 . S
C356 N357 1.342 . S
C356 C360 1.401 . S
C356 C361 1.499 . S
N357 Co340 1.989 . S
N357 C356 1.342 . S
N357 N358 1.388 . S
N358 Co341 1.993 . S
N358 N357 1.388 . S
N358 C359 1.346 . S
C359 N358 1.346 . S
C359 C360 1.396 . S
C359 C369 1.510 . S
C360 C356 1.401 . S
C360 C359 1.396 . S
C361 C356 1.499 . S
C361 H362 0.959 . S
C361 H363 0.960 . S
C361 H364 0.961 . S
H362 C361 0.959 . S
H363 C361 0.960 . S
H364 C361 0.961 . S
O365 Co340 1.967 . S
O365 C373 1.258 . S
O366 Co341 1.941 . S
O366 C373 1.266 . S
H367 C369 0.959 . S
H368 C369 0.961 . S
C369 C359 1.510 . S
C369 H367 0.959 . S
C369 H368 0.961 . S
C369 H370 0.960 . S
H370 C369 0.960 . S
H371 N351 0.862 . S
O372 Co340 1.920 . S
O372 C345 1.289 . S
C373 O365 1.258 . S
C373 O366 1.266 . S
Co374 O377 1.970 . S
Co374 N391 1.989 . S
Co374 O399 1.967 . S
Co374 O406 1.920 . S
Co375 O378 1.966 . S
Co375 N384 2.022 . S
Co375 N392 1.993 . S
Co375 O400 1.941 . S
C376 O377 1.258 . S
C376 O378 1.263 . S
O377 Co374 1.970 . S
O377 C376 1.258 . S
O378 Co375 1.966 . S
O378 C376 1.263 . S
C379 O380 1.235 . S
C379 O406 1.289 . S
O380 C379 1.235 . S
C381 C383 1.400 . S
C381 N384 1.351 . S
C381 C386 1.501 . S
C382 C383 1.387 . S
C382 N385 1.341 . S
C383 C381 1.400 . S
C383 C382 1.387 . S
N384 Co375 2.022 . S
N384 C381 1.351 . S
N384 N385 1.365 . S
N385 C382 1.341 . S
N385 N384 1.365 . S
N385 H405 0.862 . S
C386 C381 1.501 . S
C386 H387 0.961 . S
C386 H388 0.961 . S
C386 H389 0.960 . S
H387 C386 0.961 . S
H388 C386 0.961 . S
H389 C386 0.960 . S
C390 N391 1.342 . S
C390 C394 1.401 . S
C390 C395 1.499 . S
N391 Co374 1.989 . S
N391 C390 1.342 . S
N391 N392 1.388 . S
N392 Co375 1.993 . S
N392 N391 1.388 . S
N392 C393 1.346 . S
C393 N392 1.346 . S
C393 C394 1.396 . S
C393 C403 1.510 . S
C394 C390 1.401 . S
C394 C393 1.396 . S
C395 C390 1.499 . S
C395 H396 0.959 . S
C395 H397 0.960 . S
C395 H398 0.961 . S
H396 C395 0.959 . S
H397 C395 0.960 . S
H398 C395 0.961 . S
O399 Co374 1.967 . S
O399 C407 1.258 . S
O400 Co375 1.941 . S
O400 C407 1.266 . S
H401 C403 0.959 . S
H402 C403 0.961 . S
C403 C393 1.510 . S
C403 H401 0.959 . S
C403 H402 0.961 . S
C403 H404 0.960 . S
H404 C403 0.960 . S
H405 N385 0.862 . S
O406 Co374 1.920 . S
O406 C379 1.289 . S
C407 O399 1.258 . S
C407 O400 1.266 . S
Co408 O411 1.970 . S
Co408 N425 1.989 . S
Co408 O433 1.967 . S
Co408 O440 1.920 . S
Co409 O412 1.966 . S
Co409 N418 2.022 . S
Co409 N426 1.993 . S
Co409 O434 1.941 . S
C410 O411 1.258 . S
C410 O412 1.263 . S
O411 Co408 1.970 . S
O411 C410 1.258 . S
O412 Co409 1.966 . S
O412 C410 1.263 . S
C413 O414 1.235 . S
C413 O440 1.289 . S
O414 C413 1.235 . S
C415 C417 1.400 . S
C415 N418 1.351 . S
C415 C420 1.501 . S
C416 C417 1.387 . S
C416 N419 1.341 . S
C417 C415 1.400 . S
C417 C416 1.387 . S
N418 Co409 2.022 . S
N418 C415 1.351 . S
N418 N419 1.365 . S
N419 C416 1.341 . S
N419 N418 1.365 . S
N419 H439 0.862 . S
C420 C415 1.501 . S
C420 H421 0.961 . S
C420 H422 0.961 . S
C420 H423 0.960 . S
H421 C420 0.961 . S
H422 C420 0.961 . S
H423 C420 0.960 . S
C424 N425 1.342 . S
C424 C428 1.401 . S
C424 C429 1.499 . S
N425 Co408 1.989 . S
N425 C424 1.342 . S
N425 N426 1.388 . S
N426 Co409 1.993 . S
N426 N425 1.388 . S
N426 C427 1.346 . S
C427 N426 1.346 . S
C427 C428 1.396 . S
C427 C437 1.510 . S
C428 C424 1.401 . S
C428 C427 1.396 . S
C429 C424 1.499 . S
C429 H430 0.959 . S
C429 H431 0.960 . S
C429 H432 0.961 . S
H430 C429 0.959 . S
H431 C429 0.960 . S
H432 C429 0.961 . S
O433 Co408 1.967 . S
O433 C441 1.258 . S
O434 Co409 1.941 . S
O434 C441 1.266 . S
H435 C437 0.959 . S
H436 C437 0.961 . S
C437 C427 1.510 . S
C437 H435 0.959 . S
C437 H436 0.961 . S
C437 H438 0.960 . S
H438 C437 0.960 . S
H439 N419 0.862 . S
O440 Co408 1.920 . S
O440 C413 1.289 . S
C441 O433 1.258 . S
C441 O434 1.266 . S
Co442 O445 1.970 . S
Co442 N459 1.989 . S
Co442 O467 1.967 . S
Co442 O474 1.920 . S
Co443 O446 1.966 . S
Co443 N452 2.022 . S
Co443 N460 1.993 . S
Co443 O468 1.941 . S
C444 O445 1.258 . S
C444 O446 1.263 . S
O445 Co442 1.970 . S
O445 C444 1.258 . S
O446 Co443 1.966 . S
O446 C444 1.263 . S
C447 O448 1.235 . S
C447 O474 1.289 . S
O448 C447 1.235 . S
C449 C451 1.400 . S
C449 N452 1.351 . S
C449 C454 1.501 . S
C450 C451 1.387 . S
C450 N453 1.341 . S
C451 C449 1.400 . S
C451 C450 1.387 . S
N452 Co443 2.022 . S
N452 C449 1.351 . S
N452 N453 1.365 . S
N453 C450 1.341 . S
N453 N452 1.365 . S
N453 H473 0.862 . S
C454 C449 1.501 . S
C454 H455 0.961 . S
C454 H456 0.961 . S
C454 H457 0.960 . S
H455 C454 0.961 . S
H456 C454 0.961 . S
H457 C454 0.960 . S
C458 N459 1.342 . S
C458 C462 1.401 . S
C458 C463 1.499 . S
N459 Co442 1.989 . S
N459 C458 1.342 . S
N459 N460 1.388 . S
N460 Co443 1.993 . S
N460 N459 1.388 . S
N460 C461 1.346 . S
C461 N460 1.346 . S
C461 C462 1.396 . S
C461 C471 1.510 . S
C462 C458 1.401 . S
C462 C461 1.396 . S
C463 C458 1.499 . S
C463 H464 0.959 . S
C463 H465 0.960 . S
C463 H466 0.961 . S
H464 C463 0.959 . S
H465 C463 0.960 . S
H466 C463 0.961 . S
O467 Co442 1.967 . S
O467 C475 1.258 . S
O468 Co443 1.941 . S
O468 C475 1.266 . S
H469 C471 0.959 . S
H470 C471 0.961 . S
C471 C461 1.510 . S
C471 H469 0.959 . S
C471 H470 0.961 . S
C471 H472 0.960 . S
H472 C471 0.960 . S
H473 N453 0.862 . S
O474 Co442 1.920 . S
O474 C447 1.289 . S
C475 O467 1.258 . S
C475 O468 1.266 . S
Co476 O479 1.970 . S
Co476 N493 1.989 . S
Co476 O501 1.967 . S
Co476 O508 1.920 . S
Co477 O480 1.966 . S
Co477 N486 2.022 . S
Co477 N494 1.993 . S
Co477 O502 1.941 . S
C478 O479 1.258 . S
C478 O480 1.263 . S
O479 Co476 1.970 . S
O479 C478 1.258 . S
O480 Co477 1.966 . S
O480 C478 1.263 . S
C481 O482 1.235 . S
C481 O508 1.289 . S
O482 C481 1.235 . S
C483 C485 1.400 . S
C483 N486 1.351 . S
C483 C488 1.501 . S
C484 C485 1.387 . S
C484 N487 1.341 . S
C485 C483 1.400 . S
C485 C484 1.387 . S
N486 Co477 2.022 . S
N486 C483 1.351 . S
N486 N487 1.365 . S
N487 C484 1.341 . S
N487 N486 1.365 . S
N487 H507 0.862 . S
C488 C483 1.501 . S
C488 H489 0.961 . S
C488 H490 0.961 . S
C488 H491 0.960 . S
H489 C488 0.961 . S
H490 C488 0.961 . S
H491 C488 0.960 . S
C492 N493 1.342 . S
C492 C496 1.401 . S
C492 C497 1.499 . S
N493 Co476 1.989 . S
N493 C492 1.342 . S
N493 N494 1.388 . S
N494 Co477 1.993 . S
N494 N493 1.388 . S
N494 C495 1.346 . S
C495 N494 1.346 . S
C495 C496 1.396 . S
C495 C505 1.510 . S
C496 C492 1.401 . S
C496 C495 1.396 . S
C497 C492 1.499 . S
C497 H498 0.959 . S
C497 H499 0.960 . S
C497 H500 0.961 . S
H498 C497 0.959 . S
H499 C497 0.960 . S
H500 C497 0.961 . S
O501 Co476 1.967 . S
O501 C509 1.258 . S
O502 Co477 1.941 . S
O502 C509 1.266 . S
H503 C505 0.959 . S
H504 C505 0.961 . S
C505 C495 1.510 . S
C505 H503 0.959 . S
C505 H504 0.961 . S
C505 H506 0.960 . S
H506 C505 0.960 . S
H507 N487 0.862 . S
O508 Co476 1.920 . S
O508 C481 1.289 . S
C509 O501 1.258 . S
C509 O502 1.266 . S
Co510 O513 1.970 . S
Co510 N527 1.989 . S
Co510 O535 1.967 . S
Co510 O542 1.920 . S
Co511 O514 1.966 . S
Co511 N520 2.022 . S
Co511 N528 1.993 . S
Co511 O536 1.941 . S
C512 O513 1.258 . S
C512 O514 1.263 . S
O513 Co510 1.970 . S
O513 C512 1.258 . S
O514 Co511 1.966 . S
O514 C512 1.263 . S
C515 O516 1.235 . S
C515 O542 1.289 . S
O516 C515 1.235 . S
C517 C519 1.400 . S
C517 N520 1.351 . S
C517 C522 1.501 . S
C518 C519 1.387 . S
C518 N521 1.341 . S
C519 C517 1.400 . S
C519 C518 1.387 . S
N520 Co511 2.022 . S
N520 C517 1.351 . S
N520 N521 1.365 . S
N521 C518 1.341 . S
N521 N520 1.365 . S
N521 H541 0.862 . S
C522 C517 1.501 . S
C522 H523 0.961 . S
C522 H524 0.961 . S
C522 H525 0.960 . S
H523 C522 0.961 . S
H524 C522 0.961 . S
H525 C522 0.960 . S
C526 N527 1.342 . S
C526 C530 1.401 . S
C526 C531 1.499 . S
N527 Co510 1.989 . S
N527 C526 1.342 . S
N527 N528 1.388 . S
N528 Co511 1.993 . S
N528 N527 1.388 . S
N528 C529 1.346 . S
C529 N528 1.346 . S
C529 C530 1.396 . S
C529 C539 1.510 . S
C530 C526 1.401 . S
C530 C529 1.396 . S
C531 C526 1.499 . S
C531 H532 0.959 . S
C531 H533 0.960 . S
C531 H534 0.961 . S
H532 C531 0.959 . S
H533 C531 0.960 . S
H534 C531 0.961 . S
O535 Co510 1.967 . S
O535 C543 1.258 . S
O536 Co511 1.941 . S
O536 C543 1.266 . S
H537 C539 0.959 . S
H538 C539 0.961 . S
C539 C529 1.510 . S
C539 H537 0.959 . S
C539 H538 0.961 . S
C539 H540 0.960 . S
H540 C539 0.960 . S
H541 N521 0.862 . S
O542 Co510 1.920 . S
O542 C515 1.289 . S
C543 O535 1.258 . S
C543 O536 1.266 . S
H544 C562 0.951 . S
H545 C564 0.951 . S
H546 C566 0.950 . S
H547 C567 0.950 . S
H548 C569 0.950 . S
H549 C572 0.950 . S
H550 C573 0.950 . S
H551 C575 0.950 . S
H552 C576 0.950 . S
H553 C577 0.951 . S
H554 C579 0.951 . S
H555 C581 0.950 . S
H556 C582 0.950 . S
H557 C584 0.950 . S
H558 C587 0.950 . S
H559 C588 0.950 . S
H560 C590 0.950 . S
H561 C591 0.950 . S
C562 H544 0.951 . S
C562 C563 1.366 . S
C562 C564 1.388 . S
C563 C562 1.366 . S
C563 C567 1.385 . S
C564 H545 0.951 . S
C564 C562 1.388 . S
C564 C565 1.366 . S
C565 C564 1.366 . S
C565 C566 1.414 . S
C565 C568 1.499 . S
C566 H546 0.950 . S
C566 C565 1.414 . S
C566 C567 1.374 . S
C567 H547 0.950 . S
C567 C563 1.385 . S
C567 C566 1.374 . S
C568 C565 1.499 . S
C568 C569 1.373 . S
C568 C570 1.389 . S
C569 H548 0.950 . S
C569 C568 1.373 . S
C569 C585 1.377 1_655 S
C570 C568 1.389 . S
C570 C571 1.524 . S
C570 C584 1.377 1_655 S
C571 C570 1.524 . S
C571 C572 1.397 . S
C571 C576 1.363 . S
C572 H549 0.950 . S
C572 C571 1.397 . S
C572 C573 1.334 . S
C573 H550 0.950 . S
C573 C572 1.334 . S
C573 C574 1.287 . S
C574 C573 1.287 . S
C574 C575 1.524 . S
C574 H593 0.913 . S
C575 H551 0.950 . S
C575 C574 1.524 . S
C575 C576 1.415 . S
C576 H552 0.950 . S
C576 C571 1.363 . S
C576 C575 1.415 . S
C577 H553 0.951 . S
C577 C578 1.366 . S
C577 C579 1.388 . S
C578 C577 1.366 . S
C578 C582 1.385 . S
C579 H554 0.951 . S
C579 C577 1.388 . S
C579 C580 1.366 . S
C580 C579 1.366 . S
C580 C581 1.414 . S
C580 C583 1.499 . S
C581 H555 0.950 . S
C581 C580 1.414 . S
C581 C582 1.374 . S
C582 H556 0.950 . S
C582 C578 1.385 . S
C582 C581 1.374 . S
C583 C580 1.499 . S
C583 C584 1.373 . S
C583 C585 1.389 . S
C584 H557 0.950 . S
C584 C570 1.377 1_455 S
C584 C583 1.373 . S
C585 C569 1.377 1_455 S
C585 C583 1.389 . S
C585 C586 1.524 . S
C586 C585 1.524 . S
C586 C587 1.397 . S
C586 C591 1.363 . S
C587 H558 0.950 . S
C587 C586 1.397 . S
C587 C588 1.334 . S
C588 H559 0.950 . S
C588 C587 1.334 . S
C588 C589 1.287 . S
C589 C588 1.287 . S
C589 C590 1.524 . S
C589 H592 0.999 . S
C590 H560 0.950 . S
C590 C589 1.524 . S
C590 C591 1.415 . S
C591 H561 0.950 . S
C591 C586 1.363 . S
C591 C590 1.415 . S
H592 C589 0.999 . S
H593 C574 0.913 . S
H594 C612 0.951 . S
H595 C614 0.951 . S
H596 C616 0.950 . S
H597 C617 0.950 . S
H598 C619 0.950 . S
H599 C622 0.950 . S
H600 C623 0.950 . S
H601 C625 0.950 . S
H602 C626 0.950 . S
H603 C627 0.951 . S
H604 C629 0.951 . S
H605 C631 0.950 . S
H606 C632 0.950 . S
H607 C634 0.950 . S
H608 C637 0.950 . S
H609 C638 0.950 . S
H610 C640 0.950 . S
H611 C641 0.950 . S
C612 H594 0.951 . S
C612 C613 1.366 . S
C612 C614 1.388 . S
C613 C612 1.366 . S
C613 C617 1.385 . S
C614 H595 0.951 . S
C614 C612 1.388 . S
C614 C615 1.366 . S
C615 C614 1.366 . S
C615 C616 1.414 . S
C615 C618 1.499 . S
C616 H596 0.950 . S
C616 C615 1.414 . S
C616 C617 1.374 . S
C617 H597 0.950 . S
C617 C613 1.385 . S
C617 C616 1.374 . S
C618 C615 1.499 . S
C618 C619 1.373 . S
C618 C620 1.389 . S
C619 H598 0.950 . S
C619 C618 1.373 . S
C619 C635 1.377 1_545 S
C620 C618 1.389 . S
C620 C621 1.524 . S
C620 C634 1.377 1_545 S
C621 C620 1.524 . S
C621 C622 1.397 . S
C621 C626 1.363 . S
C622 H599 0.950 . S
C622 C621 1.397 . S
C622 C623 1.334 . S
C623 H600 0.950 . S
C623 C622 1.334 . S
C623 C624 1.287 . S
C624 C623 1.287 . S
C624 C625 1.524 . S
C624 H643 0.913 . S
C625 H601 0.950 . S
C625 C624 1.524 . S
C625 C626 1.415 . S
C626 H602 0.950 . S
C626 C621 1.363 . S
C626 C625 1.415 . S
C627 H603 0.951 . S
C627 C628 1.366 . S
C627 C629 1.388 . S
C628 C627 1.366 . S
C628 C632 1.385 . S
C629 H604 0.951 . S
C629 C627 1.388 . S
C629 C630 1.366 . S
C630 C629 1.366 . S
C630 C631 1.414 . S
C630 C633 1.499 . S
C631 H605 0.950 . S
C631 C630 1.414 . S
C631 C632 1.374 . S
C632 H606 0.950 . S
C632 C628 1.385 . S
C632 C631 1.374 . S
C633 C630 1.499 . S
C633 C634 1.373 . S
C633 C635 1.389 . S
C634 H607 0.950 . S
C634 C620 1.377 1_565 S
C634 C633 1.373 . S
C635 C619 1.377 1_565 S
C635 C633 1.389 . S
C635 C636 1.524 . S
C636 C635 1.524 . S
C636 C637 1.397 . S
C636 C641 1.363 . S
C637 H608 0.950 . S
C637 C636 1.397 . S
C637 C638 1.334 . S
C638 H609 0.950 . S
C638 C637 1.334 . S
C638 C639 1.287 . S
C639 C638 1.287 . S
C639 C640 1.524 . S
C639 H642 0.999 . S
C640 H610 0.950 . S
C640 C639 1.524 . S
C640 C641 1.415 . S
C641 H611 0.950 . S
C641 C636 1.363 . S
C641 C640 1.415 . S
H642 C639 0.999 . S
H643 C624 0.913 . S
H644 C662 0.951 . S
H645 C664 0.951 . S
H646 C666 0.950 . S
H647 C667 0.950 . S
H648 C669 0.950 . S
H649 C672 0.950 . S
H650 C673 0.950 . S
H651 C675 0.950 . S
H652 C676 0.950 . S
H653 C677 0.951 . S
H654 C679 0.951 . S
H655 C681 0.950 . S
H656 C682 0.950 . S
H657 C684 0.950 . S
H658 C687 0.950 . S
H659 C688 0.950 . S
H660 C690 0.950 . S
H661 C691 0.950 . S
C662 H644 0.951 . S
C662 C663 1.366 . S
C662 C664 1.388 . S
C663 C662 1.366 . S
C663 C667 1.385 . S
C664 H645 0.951 . S
C664 C662 1.388 . S
C664 C665 1.366 . S
C665 C664 1.366 . S
C665 C666 1.414 . S
C665 C668 1.499 . S
C666 H646 0.950 . S
C666 C665 1.414 . S
C666 C667 1.374 . S
C667 H647 0.950 . S
C667 C663 1.385 . S
C667 C666 1.374 . S
C668 C665 1.499 . S
C668 C669 1.373 . S
C668 C670 1.389 . S
C669 H648 0.950 . S
C669 C668 1.373 . S
C669 C685 1.377 1_655 S
C670 C668 1.389 . S
C670 C671 1.524 . S
C670 C684 1.377 1_655 S
C671 C670 1.524 . S
C671 C672 1.397 . S
C671 C676 1.363 1_655 S
C672 H649 0.950 . S
C672 C671 1.397 . S
C672 C673 1.334 . S
C673 H650 0.950 . S
C673 C672 1.334 . S
C673 C674 1.287 . S
C674 C673 1.287 . S
C674 C675 1.524 1_655 S
C674 H693 0.913 . S
C675 H651 0.950 . S
C675 C674 1.524 1_455 S
C675 C676 1.415 . S
C676 H652 0.950 . S
C676 C671 1.363 1_455 S
C676 C675 1.415 . S
C677 H653 0.951 . S
C677 C678 1.366 . S
C677 C679 1.388 . S
C678 C677 1.366 . S
C678 C682 1.385 . S
C679 H654 0.951 . S
C679 C677 1.388 . S
C679 C680 1.366 . S
C680 C679 1.366 . S
C680 C681 1.414 . S
C680 C683 1.499 . S
C681 H655 0.950 . S
C681 C680 1.414 . S
C681 C682 1.374 . S
C682 H656 0.950 . S
C682 C678 1.385 . S
C682 C681 1.374 . S
C683 C680 1.499 . S
C683 C684 1.373 . S
C683 C685 1.389 . S
C684 H657 0.950 . S
C684 C670 1.377 1_455 S
C684 C683 1.373 . S
C685 C669 1.377 1_455 S
C685 C683 1.389 . S
C685 C686 1.524 . S
C686 C685 1.524 . S
C686 C687 1.397 . S
C686 C691 1.363 1_455 S
C687 H658 0.950 . S
C687 C686 1.397 . S
C687 C688 1.334 . S
C688 H659 0.950 . S
C688 C687 1.334 . S
C688 C689 1.287 . S
C689 C688 1.287 . S
C689 C690 1.524 1_455 S
C689 H692 0.999 . S
C690 H660 0.950 . S
C690 C689 1.524 1_655 S
C690 C691 1.415 . S
C691 H661 0.950 . S
C691 C686 1.363 1_655 S
C691 C690 1.415 . S
H692 C689 0.999 . S
H693 C674 0.913 . S
H694 C712 0.951 . S
H695 C714 0.951 . S
H696 C716 0.950 . S
H697 C717 0.950 . S
H698 C719 0.950 . S
H699 C722 0.950 . S
H700 C723 0.950 . S
H701 C725 0.950 . S
H702 C726 0.950 . S
H703 C727 0.951 . S
H704 C729 0.951 . S
H705 C731 0.950 . S
H706 C732 0.950 . S
H707 C734 0.950 . S
H708 C737 0.950 . S
H709 C738 0.950 . S
H710 C740 0.950 . S
H711 C741 0.950 . S
C712 H694 0.951 . S
C712 C713 1.366 . S
C712 C714 1.388 . S
C713 C712 1.366 . S
C713 C717 1.385 . S
C714 H695 0.951 . S
C714 C712 1.388 . S
C714 C715 1.366 . S
C715 C714 1.366 . S
C715 C716 1.414 . S
C715 C718 1.499 . S
C716 H696 0.950 . S
C716 C715 1.414 . S
C716 C717 1.374 . S
C717 H697 0.950 . S
C717 C713 1.385 . S
C717 C716 1.374 . S
C718 C715 1.499 . S
C718 C719 1.373 . S
C718 C720 1.389 . S
C719 H698 0.950 . S
C719 C718 1.373 . S
C719 C735 1.377 1_565 S
C720 C718 1.389 . S
C720 C721 1.524 . S
C720 C734 1.377 1_565 S
C721 C720 1.524 . S
C721 C722 1.397 . S
C721 C726 1.363 1_565 S
C722 H699 0.950 . S
C722 C721 1.397 . S
C722 C723 1.334 . S
C723 H700 0.950 . S
C723 C722 1.334 . S
C723 C724 1.287 . S
C724 C723 1.287 . S
C724 C725 1.524 1_565 S
C724 H743 0.913 . S
C725 H701 0.950 . S
C725 C724 1.524 1_545 S
C725 C726 1.415 . S
C726 H702 0.950 . S
C726 C721 1.363 1_545 S
C726 C725 1.415 . S
C727 H703 0.951 . S
C727 C728 1.366 . S
C727 C729 1.388 . S
C728 C727 1.366 . S
C728 C732 1.385 . S
C729 H704 0.951 . S
C729 C727 1.388 . S
C729 C730 1.366 . S
C730 C729 1.366 . S
C730 C731 1.414 . S
C730 C733 1.499 . S
C731 H705 0.950 . S
C731 C730 1.414 . S
C731 C732 1.374 . S
C732 H706 0.950 . S
C732 C728 1.385 . S
C732 C731 1.374 . S
C733 C730 1.499 . S
C733 C734 1.373 . S
C733 C735 1.389 . S
C734 H707 0.950 . S
C734 C720 1.377 1_545 S
C734 C733 1.373 . S
C735 C719 1.377 1_545 S
C735 C733 1.389 . S
C735 C736 1.524 . S
C736 C735 1.524 . S
C736 C737 1.397 . S
C736 C741 1.363 1_545 S
C737 H708 0.950 . S
C737 C736 1.397 . S
C737 C738 1.334 . S
C738 H709 0.950 . S
C738 C737 1.334 . S
C738 C739 1.287 . S
C739 C738 1.287 . S
C739 C740 1.524 1_545 S
C739 H742 0.999 . S
C740 H710 0.950 . S
C740 C739 1.524 1_565 S
C740 C741 1.415 . S
C741 H711 0.950 . S
C741 C736 1.363 1_565 S
C741 C740 1.415 . S
H742 C739 0.999 . S
H743 C724 0.913 . S
H744 C762 0.951 . S
H745 C764 0.982 . S
H746 C766 0.950 . S
H747 C767 0.950 . S
H748 C769 0.950 . S
H749 C772 0.950 . S
H750 C773 0.950 . S
H751 C775 0.950 . S
H752 C776 0.950 . S
H753 C777 0.951 . S
H754 C779 0.982 . S
H755 C781 0.950 . S
H756 C782 0.950 . S
H757 C784 0.950 . S
H758 C787 0.950 . S
H759 C788 0.950 . S
H760 C790 0.950 . S
H761 C791 0.950 . S
C762 H744 0.951 . S
C762 C763 1.366 . S
C762 C764 1.388 . S
C763 C762 1.366 . S
C763 C767 1.385 . S
C764 H745 0.982 . S
C764 C762 1.388 . S
C764 C765 1.366 . S
C765 C764 1.366 . S
C765 C766 1.414 . S
C765 C768 1.499 . S
C766 H746 0.950 . S
C766 C765 1.414 . S
C766 C767 1.374 . S
C767 H747 0.950 . S
C767 C763 1.385 . S
C767 C766 1.374 . S
C768 C765 1.499 . S
C768 C769 1.373 . S
C768 C770 1.389 1_655 S
C769 H748 0.950 . S
C769 C768 1.373 . S
C769 C785 1.377 . S
C770 C768 1.389 1_455 S
C770 C771 1.524 . S
C770 C784 1.377 . S
C771 C770 1.524 . S
C771 C772 1.397 1_455 S
C771 C776 1.363 . S
C772 H749 0.950 . S
C772 C771 1.397 1_655 S
C772 C773 1.334 . S
C773 H750 0.950 . S
C773 C772 1.334 . S
C773 C774 1.287 1_655 S
C774 C773 1.287 1_455 S
C774 C775 1.524 . S
C774 H793 0.913 . S
C775 H751 0.950 . S
C775 C774 1.524 . S
C775 C776 1.415 . S
C776 H752 0.950 . S
C776 C771 1.363 . S
C776 C775 1.415 . S
C777 H753 0.951 . S
C777 C778 1.366 . S
C777 C779 1.388 . S
C778 C777 1.366 . S
C778 C782 1.385 . S
C779 H754 0.982 . S
C779 C777 1.388 . S
C779 C780 1.366 . S
C780 C779 1.366 . S
C780 C781 1.414 . S
C780 C783 1.499 . S
C781 H755 0.950 . S
C781 C780 1.414 . S
C781 C782 1.374 . S
C782 H756 0.950 . S
C782 C778 1.385 . S
C782 C781 1.374 . S
C783 C780 1.499 . S
C783 C784 1.373 . S
C783 C785 1.389 1_455 S
C784 H757 0.950 . S
C784 C770 1.377 . S
C784 C783 1.373 . S
C785 C769 1.377 . S
C785 C783 1.389 1_655 S
C785 C786 1.524 . S
C786 C785 1.524 . S
C786 C787 1.397 1_655 S
C786 C791 1.363 . S
C787 H758 0.950 . S
C787 C786 1.397 1_455 S
C787 C788 1.334 . S
C788 H759 0.950 . S
C788 C787 1.334 . S
C788 C789 1.287 1_455 S
C789 C788 1.287 1_655 S
C789 C790 1.524 . S
C789 H792 0.999 . S
C790 H760 0.950 . S
C790 C789 1.524 . S
C790 C791 1.415 . S
C791 H761 0.950 . S
C791 C786 1.363 . S
C791 C790 1.415 . S
H792 C789 0.999 . S
H793 C774 0.913 . S
H794 C812 0.951 . S
H795 C814 0.951 . S
H796 C816 0.950 . S
H797 C817 0.950 . S
H798 C819 0.950 . S
H799 C822 0.950 . S
H800 C823 0.950 . S
H801 C825 0.950 . S
H802 C826 0.950 . S
H803 C827 0.951 . S
H804 C829 0.951 . S
H805 C831 0.950 . S
H806 C832 0.950 . S
H807 C834 0.950 . S
H808 C837 0.950 . S
H809 C838 0.950 . S
H810 C840 0.950 . S
H811 C841 0.950 . S
C812 H794 0.951 . S
C812 C813 1.366 . S
C812 C814 1.388 . S
C813 C812 1.366 . S
C813 C817 1.385 . S
C814 H795 0.951 . S
C814 C812 1.388 . S
C814 C815 1.366 . S
C815 C814 1.366 . S
C815 C816 1.414 . S
C815 C818 1.499 . S
C816 H796 0.950 . S
C816 C815 1.414 . S
C816 C817 1.374 . S
C817 H797 0.950 . S
C817 C813 1.385 . S
C817 C816 1.374 . S
C818 C815 1.499 . S
C818 C819 1.373 . S
C818 C820 1.389 1_565 S
C819 H798 0.950 . S
C819 C818 1.373 . S
C819 C835 1.377 . S
C820 C818 1.389 1_545 S
C820 C821 1.524 . S
C820 C834 1.377 . S
C821 C820 1.524 . S
C821 C822 1.397 . S
C821 C826 1.363 . S
C822 H799 0.950 . S
C822 C821 1.397 . S
C822 C823 1.334 . S
C823 H800 0.950 . S
C823 C822 1.334 . S
C823 C824 1.287 . S
C824 C823 1.287 . S
C824 C825 1.524 . S
C824 H843 0.913 . S
C825 H801 0.950 . S
C825 C824 1.524 . S
C825 C826 1.415 . S
C826 H802 0.950 . S
C826 C821 1.363 . S
C826 C825 1.415 . S
C827 H803 0.951 . S
C827 C828 1.366 . S
C827 C829 1.388 . S
C828 C827 1.366 . S
C828 C832 1.385 . S
C829 H804 0.951 . S
C829 C827 1.388 . S
C829 C830 1.366 . S
C830 C829 1.366 . S
C830 C831 1.414 . S
C830 C833 1.499 . S
C831 H805 0.950 . S
C831 C830 1.414 . S
C831 C832 1.374 . S
C832 H806 0.950 . S
C832 C828 1.385 . S
C832 C831 1.374 . S
C833 C830 1.499 . S
C833 C834 1.373 . S
C833 C835 1.389 1_545 S
C834 H807 0.950 . S
C834 C820 1.377 . S
C834 C833 1.373 . S
C835 C819 1.377 . S
C835 C833 1.389 1_565 S
C835 C836 1.524 . S
C836 C835 1.524 . S
C836 C837 1.397 . S
C836 C841 1.363 . S
C837 H808 0.950 . S
C837 C836 1.397 . S
C837 C838 1.334 . S
C838 H809 0.950 . S
C838 C837 1.334 . S
C838 C839 1.287 . S
C839 C838 1.287 . S
C839 C840 1.524 . S
C839 H842 0.999 . S
C840 H810 0.950 . S
C840 C839 1.524 . S
C840 C841 1.415 . S
C841 H811 0.950 . S
C841 C836 1.363 . S
C841 C840 1.415 . S
H842 C839 0.999 . S
H843 C824 0.913 . S
H844 C862 0.951 . S
H845 C864 0.951 . S
H846 C866 0.950 . S
H847 C867 0.950 . S
H848 C869 0.950 . S
H849 C872 0.950 . S
H850 C873 0.950 . S
H851 C875 0.950 . S
H852 C876 0.950 . S
H853 C877 0.951 . S
H854 C879 0.951 . S
H855 C881 0.950 . S
H856 C882 0.950 . S
H857 C884 0.950 . S
H858 C887 0.950 . S
H859 C888 0.950 . S
H860 C890 0.950 . S
H861 C891 0.950 . S
C862 H844 0.951 . S
C862 C863 1.366 . S
C862 C864 1.388 . S
C863 C862 1.366 . S
C863 C867 1.385 . S
C864 H845 0.951 . S
C864 C862 1.388 . S
C864 C865 1.366 . S
C865 C864 1.366 . S
C865 C866 1.414 . S
C865 C868 1.499 . S
C866 H846 0.950 . S
C866 C865 1.414 . S
C866 C867 1.374 . S
C867 H847 0.950 . S
C867 C863 1.385 . S
C867 C866 1.374 . S
C868 C865 1.499 . S
C868 C869 1.373 . S
C868 C870 1.389 1_655 S
C869 H848 0.950 . S
C869 C868 1.373 . S
C869 C885 1.377 . S
C870 C868 1.389 1_455 S
C870 C871 1.524 . S
C870 C884 1.377 . S
C871 C870 1.524 . S
C871 C872 1.397 1_455 S
C871 C876 1.363 . S
C872 H849 0.950 . S
C872 C871 1.397 1_655 S
C872 C873 1.334 . S
C873 H850 0.950 . S
C873 C872 1.334 . S
C873 C874 1.287 1_655 S
C874 C873 1.287 1_455 S
C874 C875 1.524 . S
C874 H893 0.913 . S
C875 H851 0.950 . S
C875 C874 1.524 . S
C875 C876 1.415 . S
C876 H852 0.950 . S
C876 C871 1.363 . S
C876 C875 1.415 . S
C877 H853 0.951 . S
C877 C878 1.366 . S
C877 C879 1.388 . S
C878 C877 1.366 . S
C878 C882 1.385 . S
C879 H854 0.951 . S
C879 C877 1.388 . S
C879 C880 1.366 . S
C880 C879 1.366 . S
C880 C881 1.414 . S
C880 C883 1.499 . S
C881 H855 0.950 . S
C881 C880 1.414 . S
C881 C882 1.374 . S
C882 H856 0.950 . S
C882 C878 1.385 . S
C882 C881 1.374 . S
C883 C880 1.499 . S
C883 C884 1.373 . S
C883 C885 1.389 1_455 S
C884 H857 0.950 . S
C884 C870 1.377 . S
C884 C883 1.373 . S
C885 C869 1.377 . S
C885 C883 1.389 1_655 S
C885 C886 1.524 . S
C886 C885 1.524 . S
C886 C887 1.397 1_655 S
C886 C891 1.363 . S
C887 H858 0.950 . S
C887 C886 1.397 1_455 S
C887 C888 1.334 . S
C888 H859 0.950 . S
C888 C887 1.334 . S
C888 C889 1.287 1_455 S
C889 C888 1.287 1_655 S
C889 C890 1.524 . S
C889 H892 0.999 . S
C890 H860 0.950 . S
C890 C889 1.524 . S
C890 C891 1.415 . S
C891 H861 0.950 . S
C891 C886 1.363 . S
C891 C890 1.415 . S
H892 C889 0.999 . S
H893 C874 0.913 . S
H894 C912 0.951 . S
H895 C914 0.951 . S
H896 C916 0.950 . S
H897 C917 0.950 . S
H898 C919 0.950 . S
H899 C922 0.950 . S
H900 C923 0.950 . S
H901 C925 0.950 . S
H902 C926 0.963 . S
H903 C927 0.951 . S
H904 C929 0.951 . S
H905 C931 0.950 . S
H906 C932 0.950 . S
H907 C934 0.950 . S
H908 C937 0.950 . S
H909 C938 0.950 . S
H910 C940 0.950 . S
H911 C941 0.963 . S
C912 H894 0.951 . S
C912 C913 1.366 . S
C912 C914 1.388 . S
C913 C912 1.366 . S
C913 C917 1.385 . S
C914 H895 0.951 . S
C914 C912 1.388 . S
C914 C915 1.366 . S
C915 C914 1.366 . S
C915 C916 1.414 . S
C915 C918 1.499 . S
C916 H896 0.950 . S
C916 C915 1.414 . S
C916 C917 1.374 . S
C917 H897 0.950 . S
C917 C913 1.385 . S
C917 C916 1.374 . S
C918 C915 1.499 . S
C918 C919 1.373 . S
C918 C920 1.389 . S
C919 H898 0.950 . S
C919 C918 1.373 . S
C919 C935 1.377 1_545 S
C920 C918 1.389 . S
C920 C921 1.524 . S
C920 C934 1.377 1_545 S
C921 C920 1.524 . S
C921 C922 1.397 . S
C921 C926 1.363 . S
C922 H899 0.950 . S
C922 C921 1.397 . S
C922 C923 1.334 . S
C923 H900 0.950 . S
C923 C922 1.334 . S
C923 C924 1.287 . S
C924 C923 1.287 . S
C924 C925 1.524 . S
C924 H943 0.913 . S
C925 H901 0.950 . S
C925 C924 1.524 . S
C925 C926 1.415 . S
C926 H902 0.963 . S
C926 C921 1.363 . S
C926 C925 1.415 . S
C927 H903 0.951 . S
C927 C928 1.366 . S
C927 C929 1.388 . S
C928 C927 1.366 . S
C928 C932 1.385 . S
C929 H904 0.951 . S
C929 C927 1.388 . S
C929 C930 1.366 . S
C930 C929 1.366 . S
C930 C931 1.414 . S
C930 C933 1.499 . S
C931 H905 0.950 . S
C931 C930 1.414 . S
C931 C932 1.374 . S
C932 H906 0.950 . S
C932 C928 1.385 . S
C932 C931 1.374 . S
C933 C930 1.499 . S
C933 C934 1.373 . S
C933 C935 1.389 . S
C934 H907 0.950 . S
C934 C920 1.377 1_565 S
C934 C933 1.373 . S
C935 C919 1.377 1_565 S
C935 C933 1.389 . S
C935 C936 1.524 . S
C936 C935 1.524 . S
C936 C937 1.397 . S
C936 C941 1.363 . S
C937 H908 0.950 . S
C937 C936 1.397 . S
C937 C938 1.334 . S
C938 H909 0.950 . S
C938 C937 1.334 . S
C938 C939 1.287 . S
C939 C938 1.287 . S
C939 C940 1.524 . S
C939 H942 0.999 . S
C940 H910 0.950 . S
C940 C939 1.524 . S
C940 C941 1.415 . S
C941 H911 0.963 . S
C941 C936 1.363 . S
C941 C940 1.415 . S
H942 C939 0.999 . S
H943 C924 0.913 . S
H944 C962 0.951 . S
H945 C964 0.951 . S
H946 C966 0.950 . S
H947 C967 0.950 . S
H948 C969 0.950 . S
H949 C972 0.950 . S
H950 C973 0.950 . S
H951 C975 0.950 . S
H952 C976 0.950 . S
H953 C977 0.951 . S
H954 C979 0.951 . S
H955 C981 0.950 . S
H956 C982 0.950 . S
H957 C984 0.950 . S
H958 C987 0.950 . S
H959 C988 0.950 . S
H960 C990 0.950 . S
H961 C991 0.950 . S
C962 H944 0.951 . S
C962 C963 1.366 . S
C962 C964 1.388 . S
C963 C962 1.366 . S
C963 C967 1.385 . S
C964 H945 0.951 . S
C964 C962 1.388 . S
C964 C965 1.366 . S
C965 C964 1.366 . S
C965 C966 1.414 . S
C965 C968 1.499 . S
C966 H946 0.950 . S
C966 C965 1.414 . S
C966 C967 1.374 . S
C967 H947 0.950 . S
C967 C963 1.385 . S
C967 C966 1.374 . S
C968 C965 1.499 . S
C968 C969 1.373 . S
C968 C970 1.389 . S
C969 H948 0.950 . S
C969 C968 1.373 . S
C969 C985 1.377 . S
C970 C968 1.389 . S
C970 C971 1.524 . S
C970 C984 1.377 . S
C971 C970 1.524 . S
C971 C972 1.397 . S
C971 C976 1.363 . S
C972 H949 0.950 . S
C972 C971 1.397 . S
C972 C973 1.334 . S
C973 H950 0.950 . S
C973 C972 1.334 . S
C973 C974 1.287 . S
C974 C973 1.287 . S
C974 C975 1.524 . S
C974 H993 0.913 . S
C975 H951 0.950 . S
C975 C974 1.524 . S
C975 C976 1.415 . S
C976 H952 0.950 . S
C976 C971 1.363 . S
C976 C975 1.415 . S
C977 H953 0.951 . S
C977 C978 1.366 . S
C977 C979 1.388 . S
C978 C977 1.366 . S
C978 C982 1.385 . S
C979 H954 0.951 . S
C979 C977 1.388 . S
C979 C980 1.366 . S
C980 C979 1.366 . S
C980 C981 1.414 . S
C980 C983 1.499 . S
C981 H955 0.950 . S
C981 C980 1.414 . S
C981 C982 1.374 . S
C982 H956 0.950 . S
C982 C978 1.385 . S
C982 C981 1.374 . S
C983 C980 1.499 . S
C983 C984 1.373 . S
C983 C985 1.389 . S
C984 H957 0.950 . S
C984 C970 1.377 . S
C984 C983 1.373 . S
C985 C969 1.377 . S
C985 C983 1.389 . S
C985 C986 1.524 . S
C986 C985 1.524 . S
C986 C987 1.397 . S
C986 C991 1.363 . S
C987 H958 0.950 . S
C987 C986 1.397 . S
C987 C988 1.334 . S
C988 H959 0.950 . S
C988 C987 1.334 . S
C988 C989 1.287 . S
C989 C988 1.287 . S
C989 C990 1.524 . S
C989 H992 0.999 . S
C990 H960 0.950 . S
C990 C989 1.524 . S
C990 C991 1.415 . S
C991 H961 0.950 . S
C991 C986 1.363 . S
C991 C990 1.415 . S
H992 C989 0.999 . S
H993 C974 0.913 . S
H994 C1012 0.951 . S
H995 C1014 0.951 . S
H996 C1016 0.950 . S
H997 C1017 0.950 . S
H998 C1019 0.950 . S
H999 C1022 0.950 . S
H1000 C1023 0.950 . S
H1001 C1025 0.950 . S
H1002 C1026 0.950 . S
H1003 C1027 0.951 . S
H1004 C1029 0.951 . S
H1005 C1031 0.950 . S
H1006 C1032 0.950 . S
H1007 C1034 0.950 . S
H1008 C1037 0.950 . S
H1009 C1038 0.950 . S
H1010 C1040 0.950 . S
H1011 C1041 0.950 . S
C1012 H994 0.951 . S
C1012 C1013 1.366 . S
C1012 C1014 1.388 . S
C1013 C1012 1.366 . S
C1013 C1017 1.385 . S
C1014 H995 0.951 . S
C1014 C1012 1.388 . S
C1014 C1015 1.366 . S
C1015 C1014 1.366 . S
C1015 C1016 1.414 . S
C1015 C1018 1.499 . S
C1016 H996 0.950 . S
C1016 C1015 1.414 . S
C1016 C1017 1.374 . S
C1017 H997 0.950 . S
C1017 C1013 1.385 . S
C1017 C1016 1.374 . S
C1018 C1015 1.499 . S
C1018 C1019 1.373 . S
C1018 C1020 1.389 . S
C1019 H998 0.950 . S
C1019 C1018 1.373 . S
C1019 C1035 1.377 . S
C1020 C1018 1.389 . S
C1020 C1021 1.524 . S
C1020 C1034 1.377 . S
C1021 C1020 1.524 . S
C1021 C1022 1.397 . S
C1021 C1026 1.363 . S
C1022 H999 0.950 . S
C1022 C1021 1.397 . S
C1022 C1023 1.334 . S
C1023 H1000 0.950 . S
C1023 C1022 1.334 . S
C1023 C1024 1.287 . S
C1024 C1023 1.287 . S
C1024 C1025 1.524 . S
C1024 H1043 0.913 . S
C1025 H1001 0.950 . S
C1025 C1024 1.524 . S
C1025 C1026 1.415 . S
C1026 H1002 0.950 . S
C1026 C1021 1.363 . S
C1026 C1025 1.415 . S
C1027 H1003 0.951 . S
C1027 C1028 1.366 . S
C1027 C1029 1.388 . S
C1028 C1027 1.366 . S
C1028 C1032 1.385 . S
C1029 H1004 0.951 . S
C1029 C1027 1.388 . S
C1029 C1030 1.366 . S
C1030 C1029 1.366 . S
C1030 C1031 1.414 . S
C1030 C1033 1.499 . S
C1031 H1005 0.950 . S
C1031 C1030 1.414 . S
C1031 C1032 1.374 . S
C1032 H1006 0.950 . S
C1032 C1028 1.385 . S
C1032 C1031 1.374 . S
C1033 C1030 1.499 . S
C1033 C1034 1.373 . S
C1033 C1035 1.389 . S
C1034 H1007 0.950 . S
C1034 C1020 1.377 . S
C1034 C1033 1.373 . S
C1035 C1019 1.377 . S
C1035 C1033 1.389 . S
C1035 C1036 1.524 . S
C1036 C1035 1.524 . S
C1036 C1037 1.397 . S
C1036 C1041 1.363 . S
C1037 H1008 0.950 . S
C1037 C1036 1.397 . S
C1037 C1038 1.334 . S
C1038 H1009 0.950 . S
C1038 C1037 1.334 . S
C1038 C1039 1.287 . S
C1039 C1038 1.287 . S
C1039 C1040 1.524 . S
C1039 H1042 0.999 . S
C1040 H1010 0.950 . S
C1040 C1039 1.524 . S
C1040 C1041 1.415 . S
C1041 H1011 0.950 . S
C1041 C1036 1.363 . S
C1041 C1040 1.415 . S
H1042 C1039 0.999 . S
H1043 C1024 0.913 . S
H1044 C1062 0.951 . S
H1045 C1064 0.951 . S
H1046 C1066 0.950 . S
H1047 C1067 0.950 . S
H1048 C1069 0.950 . S
H1049 C1072 0.950 . S
H1050 C1073 0.950 . S
H1051 C1075 0.950 . S
H1052 C1076 0.950 . S
H1053 C1077 0.951 . S
H1054 C1079 0.951 . S
H1055 C1081 0.950 . S
H1056 C1082 0.950 . S
H1057 C1084 0.950 . S
H1058 C1087 0.950 . S
H1059 C1088 0.950 . S
H1060 C1090 0.950 . S
H1061 C1091 0.950 . S
C1062 H1044 0.951 . S
C1062 C1063 1.366 . S
C1062 C1064 1.388 . S
C1063 C1062 1.366 . S
C1063 C1067 1.385 . S
C1064 H1045 0.951 . S
C1064 C1062 1.388 . S
C1064 C1065 1.366 . S
C1065 C1064 1.366 . S
C1065 C1066 1.414 . S
C1065 C1068 1.499 . S
C1066 H1046 0.950 . S
C1066 C1065 1.414 . S
C1066 C1067 1.374 . S
C1067 H1047 0.950 . S
C1067 C1063 1.385 . S
C1067 C1066 1.374 . S
C1068 C1065 1.499 . S
C1068 C1069 1.373 . S
C1068 C1070 1.389 . S
C1069 H1048 0.950 . S
C1069 C1068 1.373 . S
C1069 C1085 1.377 . S
C1070 C1068 1.389 . S
C1070 C1071 1.524 . S
C1070 C1084 1.377 . S
C1071 C1070 1.524 . S
C1071 C1072 1.397 . S
C1071 C1076 1.363 . S
C1072 H1049 0.950 . S
C1072 C1071 1.397 . S
C1072 C1073 1.334 . S
C1073 H1050 0.950 . S
C1073 C1072 1.334 . S
C1073 C1074 1.287 . S
C1074 C1073 1.287 . S
C1074 C1075 1.524 . S
C1074 H1093 0.913 . S
C1075 H1051 0.950 . S
C1075 C1074 1.524 . S
C1075 C1076 1.415 . S
C1076 H1052 0.950 . S
C1076 C1071 1.363 . S
C1076 C1075 1.415 . S
C1077 H1053 0.951 . S
C1077 C1078 1.366 . S
C1077 C1079 1.388 . S
C1078 C1077 1.366 . S
C1078 C1082 1.385 . S
C1079 H1054 0.951 . S
C1079 C1077 1.388 . S
C1079 C1080 1.366 . S
C1080 C1079 1.366 . S
C1080 C1081 1.414 . S
C1080 C1083 1.499 . S
C1081 H1055 0.950 . S
C1081 C1080 1.414 . S
C1081 C1082 1.374 . S
C1082 H1056 0.950 . S
C1082 C1078 1.385 . S
C1082 C1081 1.374 . S
C1083 C1080 1.499 . S
C1083 C1084 1.373 . S
C1083 C1085 1.389 . S
C1084 H1057 0.950 . S
C1084 C1070 1.377 . S
C1084 C1083 1.373 . S
C1085 C1069 1.377 . S
C1085 C1083 1.389 . S
C1085 C1086 1.524 . S
C1086 C1085 1.524 . S
C1086 C1087 1.397 . S
C1086 C1091 1.363 . S
C1087 H1058 0.950 . S
C1087 C1086 1.397 . S
C1087 C1088 1.334 . S
C1088 H1059 0.950 . S
C1088 C1087 1.334 . S
C1088 C1089 1.287 . S
C1089 C1088 1.287 . S
C1089 C1090 1.524 . S
C1089 H1092 0.999 . S
C1090 H1060 0.950 . S
C1090 C1089 1.524 . S
C1090 C1091 1.415 . S
C1091 H1061 0.950 . S
C1091 C1086 1.363 . S
C1091 C1090 1.415 . S
H1092 C1089 0.999 . S
H1093 C1074 0.913 . S
H1094 C1112 0.951 . S
H1095 C1114 0.951 . S
H1096 C1116 0.950 . S
H1097 C1117 0.950 . S
H1098 C1119 0.950 . S
H1099 C1122 0.950 . S
H1100 C1123 0.950 . S
H1101 C1125 0.950 . S
H1102 C1126 0.950 . S
H1103 C1127 0.951 . S
H1104 C1129 0.951 . S
H1105 C1131 0.950 . S
H1106 C1132 0.950 . S
H1107 C1134 0.950 . S
H1108 C1137 0.950 . S
H1109 C1138 0.950 . S
H1110 C1140 0.950 . S
H1111 C1141 0.950 . S
C1112 H1094 0.951 . S
C1112 C1113 1.366 . S
C1112 C1114 1.388 . S
C1113 C1112 1.366 . S
C1113 C1117 1.385 . S
C1114 H1095 0.951 . S
C1114 C1112 1.388 . S
C1114 C1115 1.366 . S
C1115 C1114 1.366 . S
C1115 C1116 1.414 . S
C1115 C1118 1.499 . S
C1116 H1096 0.950 . S
C1116 C1115 1.414 . S
C1116 C1117 1.374 . S
C1117 H1097 0.950 . S
C1117 C1113 1.385 . S
C1117 C1116 1.374 . S
C1118 C1115 1.499 . S
C1118 C1119 1.373 . S
C1118 C1120 1.389 . S
C1119 H1098 0.950 . S
C1119 C1118 1.373 . S
C1119 C1135 1.377 . S
C1120 C1118 1.389 . S
C1120 C1121 1.524 . S
C1120 C1134 1.377 . S
C1121 C1120 1.524 . S
C1121 C1122 1.397 . S
C1121 C1126 1.363 . S
C1122 H1099 0.950 . S
C1122 C1121 1.397 . S
C1122 C1123 1.334 . S
C1123 H1100 0.950 . S
C1123 C1122 1.334 . S
C1123 C1124 1.287 . S
C1124 C1123 1.287 . S
C1124 C1125 1.524 . S
C1124 H1143 0.913 . S
C1125 H1101 0.950 . S
C1125 C1124 1.524 . S
C1125 C1126 1.415 . S
C1126 H1102 0.950 . S
C1126 C1121 1.363 . S
C1126 C1125 1.415 . S
C1127 H1103 0.951 . S
C1127 C1128 1.366 . S
C1127 C1129 1.388 . S
C1128 C1127 1.366 . S
C1128 C1132 1.385 . S
C1129 H1104 0.951 . S
C1129 C1127 1.388 . S
C1129 C1130 1.366 . S
C1130 C1129 1.366 . S
C1130 C1131 1.414 . S
C1130 C1133 1.499 . S
C1131 H1105 0.950 . S
C1131 C1130 1.414 . S
C1131 C1132 1.374 . S
C1132 H1106 0.950 . S
C1132 C1128 1.385 . S
C1132 C1131 1.374 . S
C1133 C1130 1.499 . S
C1133 C1134 1.373 . S
C1133 C1135 1.389 . S
C1134 H1107 0.950 . S
C1134 C1120 1.377 . S
C1134 C1133 1.373 . S
C1135 C1119 1.377 . S
C1135 C1133 1.389 . S
C1135 C1136 1.524 . S
C1136 C1135 1.524 . S
C1136 C1137 1.397 . S
C1136 C1141 1.363 . S
C1137 H1108 0.950 . S
C1137 C1136 1.397 . S
C1137 C1138 1.334 . S
C1138 H1109 0.950 . S
C1138 C1137 1.334 . S
C1138 C1139 1.287 . S
C1139 C1138 1.287 . S
C1139 C1140 1.524 . S
C1139 H1142 0.999 . S
C1140 H1110 0.950 . S
C1140 C1139 1.524 . S
C1140 C1141 1.415 . S
C1141 H1111 0.950 . S
C1141 C1136 1.363 . S
C1141 C1140 1.415 . S
H1142 C1139 0.999 . S
H1143 C1124 0.913 . S
H1144 C1162 0.951 . S
H1145 C1164 0.951 . S
H1146 C1166 0.950 . S
H1147 C1167 0.950 . S
H1148 C1169 0.950 . S
H1149 C1172 0.950 . S
H1150 C1173 0.950 . S
H1151 C1175 0.950 . S
H1152 C1176 0.950 . S
H1153 C1177 0.951 . S
H1154 C1179 0.951 . S
H1155 C1181 0.950 . S
H1156 C1182 0.950 . S
H1157 C1184 0.950 . S
H1158 C1187 0.950 . S
H1159 C1188 0.950 . S
H1160 C1190 0.950 . S
H1161 C1191 0.950 . S
C1162 H1144 0.951 . S
C1162 C1163 1.366 . S
C1162 C1164 1.388 . S
C1163 C1162 1.366 . S
C1163 C1167 1.385 . S
C1164 H1145 0.951 . S
C1164 C1162 1.388 . S
C1164 C1165 1.366 . S
C1165 C1164 1.366 . S
C1165 C1166 1.414 . S
C1165 C1168 1.499 . S
C1166 H1146 0.950 . S
C1166 C1165 1.414 . S
C1166 C1167 1.374 . S
C1167 H1147 0.950 . S
C1167 C1163 1.385 . S
C1167 C1166 1.374 . S
C1168 C1165 1.499 . S
C1168 C1169 1.373 . S
C1168 C1170 1.389 . S
C1169 H1148 0.950 . S
C1169 C1168 1.373 . S
C1169 C1185 1.377 . S
C1170 C1168 1.389 . S
C1170 C1171 1.524 . S
C1170 C1184 1.377 . S
C1171 C1170 1.524 . S
C1171 C1172 1.397 . S
C1171 C1176 1.363 . S
C1172 H1149 0.950 . S
C1172 C1171 1.397 . S
C1172 C1173 1.334 . S
C1173 H1150 0.950 . S
C1173 C1172 1.334 . S
C1173 C1174 1.287 . S
C1174 C1173 1.287 . S
C1174 C1175 1.524 . S
C1174 H1193 0.913 . S
C1175 H1151 0.950 . S
C1175 C1174 1.524 . S
C1175 C1176 1.415 . S
C1176 H1152 0.950 . S
C1176 C1171 1.363 . S
C1176 C1175 1.415 . S
C1177 H1153 0.951 . S
C1177 C1178 1.366 . S
C1177 C1179 1.388 . S
C1178 C1177 1.366 . S
C1178 C1182 1.385 . S
C1179 H1154 0.951 . S
C1179 C1177 1.388 . S
C1179 C1180 1.366 . S
C1180 C1179 1.366 . S
C1180 C1181 1.414 . S
C1180 C1183 1.499 . S
C1181 H1155 0.950 . S
C1181 C1180 1.414 . S
C1181 C1182 1.374 . S
C1182 H1156 0.950 . S
C1182 C1178 1.385 . S
C1182 C1181 1.374 . S
C1183 C1180 1.499 . S
C1183 C1184 1.373 . S
C1183 C1185 1.389 . S
C1184 H1157 0.950 . S
C1184 C1170 1.377 . S
C1184 C1183 1.373 . S
C1185 C1169 1.377 . S
C1185 C1183 1.389 . S
C1185 C1186 1.524 . S
C1186 C1185 1.524 . S
C1186 C1187 1.397 . S
C1186 C1191 1.363 . S
C1187 H1158 0.950 . S
C1187 C1186 1.397 . S
C1187 C1188 1.334 . S
C1188 H1159 0.950 . S
C1188 C1187 1.334 . S
C1188 C1189 1.287 . S
C1189 C1188 1.287 . S
C1189 C1190 1.524 . S
C1189 H1192 0.999 . S
C1190 H1160 0.950 . S
C1190 C1189 1.524 . S
C1190 C1191 1.415 . S
C1191 H1161 0.950 . S
C1191 C1186 1.363 . S
C1191 C1190 1.415 . S
H1192 C1189 0.999 . S
H1193 C1174 0.913 . S
H1194 C1212 0.951 . S
H1195 C1214 0.951 . S
H1196 C1216 0.950 . S
H1197 C1217 0.950 . S
H1198 C1219 0.950 . S
H1199 C1222 0.950 . S
H1200 C1223 0.950 . S
H1201 C1225 0.950 . S
H1202 C1226 0.950 . S
H1203 C1227 0.951 . S
H1204 C1229 0.951 . S
H1205 C1231 0.950 . S
H1206 C1232 0.950 . S
H1207 C1234 0.950 . S
H1208 C1237 0.950 . S
H1209 C1238 0.950 . S
H1210 C1240 0.950 . S
H1211 C1241 0.950 . S
C1212 H1194 0.951 . S
C1212 C1213 1.366 . S
C1212 C1214 1.388 . S
C1213 C1212 1.366 . S
C1213 C1217 1.385 . S
C1214 H1195 0.951 . S
C1214 C1212 1.388 . S
C1214 C1215 1.366 . S
C1215 C1214 1.366 . S
C1215 C1216 1.414 . S
C1215 C1218 1.499 . S
C1216 H1196 0.950 . S
C1216 C1215 1.414 . S
C1216 C1217 1.374 . S
C1217 H1197 0.950 . S
C1217 C1213 1.385 . S
C1217 C1216 1.374 . S
C1218 C1215 1.499 . S
C1218 C1219 1.373 . S
C1218 C1220 1.389 . S
C1219 H1198 0.950 . S
C1219 C1218 1.373 . S
C1219 C1235 1.377 . S
C1220 C1218 1.389 . S
C1220 C1221 1.524 . S
C1220 C1234 1.377 . S
C1221 C1220 1.524 . S
C1221 C1222 1.397 . S
C1221 C1226 1.363 . S
C1222 H1199 0.950 . S
C1222 C1221 1.397 . S
C1222 C1223 1.334 . S
C1223 H1200 0.950 . S
C1223 C1222 1.334 . S
C1223 C1224 1.287 . S
C1224 C1223 1.287 . S
C1224 C1225 1.524 . S
C1224 H1243 0.913 . S
C1225 H1201 0.950 . S
C1225 C1224 1.524 . S
C1225 C1226 1.415 . S
C1226 H1202 0.950 . S
C1226 C1221 1.363 . S
C1226 C1225 1.415 . S
C1227 H1203 0.951 . S
C1227 C1228 1.366 . S
C1227 C1229 1.388 . S
C1228 C1227 1.366 . S
C1228 C1232 1.385 . S
C1229 H1204 0.951 . S
C1229 C1227 1.388 . S
C1229 C1230 1.366 . S
C1230 C1229 1.366 . S
C1230 C1231 1.414 . S
C1230 C1233 1.499 . S
C1231 H1205 0.950 . S
C1231 C1230 1.414 . S
C1231 C1232 1.374 . S
C1232 H1206 0.950 . S
C1232 C1228 1.385 . S
C1232 C1231 1.374 . S
C1233 C1230 1.499 . S
C1233 C1234 1.373 . S
C1233 C1235 1.389 . S
C1234 H1207 0.950 . S
C1234 C1220 1.377 . S
C1234 C1233 1.373 . S
C1235 C1219 1.377 . S
C1235 C1233 1.389 . S
C1235 C1236 1.524 . S
C1236 C1235 1.524 . S
C1236 C1237 1.397 . S
C1236 C1241 1.363 . S
C1237 H1208 0.950 . S
C1237 C1236 1.397 . S
C1237 C1238 1.334 . S
C1238 H1209 0.950 . S
C1238 C1237 1.334 . S
C1238 C1239 1.287 . S
C1239 C1238 1.287 . S
C1239 C1240 1.524 . S
C1239 H1242 0.999 . S
C1240 H1210 0.950 . S
C1240 C1239 1.524 . S
C1240 C1241 1.415 . S
C1241 H1211 0.950 . S
C1241 C1236 1.363 . S
C1241 C1240 1.415 . S
H1242 C1239 0.999 . S
H1243 C1224 0.913 . S
H1244 C1262 0.951 . S
H1245 C1264 0.951 . S
H1246 C1266 0.950 . S
H1247 C1267 0.950 . S
H1248 C1269 0.950 . S
H1249 C1272 0.950 . S
H1250 C1273 0.950 . S
H1251 C1275 0.950 . S
H1252 C1276 0.950 . S
H1253 C1277 0.951 . S
H1254 C1279 0.951 . S
H1255 C1281 0.950 . S
H1256 C1282 0.950 . S
H1257 C1284 0.950 . S
H1258 C1287 0.950 . S
H1259 C1288 0.950 . S
H1260 C1290 0.950 . S
H1261 C1291 0.950 . S
C1262 H1244 0.951 . S
C1262 C1263 1.366 . S
C1262 C1264 1.388 . S
C1263 C1262 1.366 . S
C1263 C1267 1.385 . S
C1264 H1245 0.951 . S
C1264 C1262 1.388 . S
C1264 C1265 1.366 . S
C1265 C1264 1.366 . S
C1265 C1266 1.414 . S
C1265 C1268 1.499 . S
C1266 H1246 0.950 . S
C1266 C1265 1.414 . S
C1266 C1267 1.374 . S
C1267 H1247 0.950 . S
C1267 C1263 1.385 . S
C1267 C1266 1.374 . S
C1268 C1265 1.499 . S
C1268 C1269 1.373 . S
C1268 C1270 1.389 . S
C1269 H1248 0.950 . S
C1269 C1268 1.373 . S
C1269 C1285 1.377 . S
C1270 C1268 1.389 . S
C1270 C1271 1.524 . S
C1270 C1284 1.377 . S
C1271 C1270 1.524 . S
C1271 C1272 1.397 . S
C1271 C1276 1.363 . S
C1272 H1249 0.950 . S
C1272 C1271 1.397 . S
C1272 C1273 1.334 . S
C1273 H1250 0.950 . S
C1273 C1272 1.334 . S
C1273 C1274 1.287 . S
C1274 C1273 1.287 . S
C1274 C1275 1.524 . S
C1274 H1293 0.913 . S
C1275 H1251 0.950 . S
C1275 C1274 1.524 . S
C1275 C1276 1.415 . S
C1276 H1252 0.950 . S
C1276 C1271 1.363 . S
C1276 C1275 1.415 . S
C1277 H1253 0.951 . S
C1277 C1278 1.366 . S
C1277 C1279 1.388 . S
C1278 C1277 1.366 . S
C1278 C1282 1.385 . S
C1279 H1254 0.951 . S
C1279 C1277 1.388 . S
C1279 C1280 1.366 . S
C1280 C1279 1.366 . S
C1280 C1281 1.414 . S
C1280 C1283 1.499 . S
C1281 H1255 0.950 . S
C1281 C1280 1.414 . S
C1281 C1282 1.374 . S
C1282 H1256 0.950 . S
C1282 C1278 1.385 . S
C1282 C1281 1.374 . S
C1283 C1280 1.499 . S
C1283 C1284 1.373 . S
C1283 C1285 1.389 . S
C1284 H1257 0.950 . S
C1284 C1270 1.377 . S
C1284 C1283 1.373 . S
C1285 C1269 1.377 . S
C1285 C1283 1.389 . S
C1285 C1286 1.524 . S
C1286 C1285 1.524 . S
C1286 C1287 1.397 . S
C1286 C1291 1.363 . S
C1287 H1258 0.950 . S
C1287 C1286 1.397 . S
C1287 C1288 1.334 . S
C1288 H1259 0.950 . S
C1288 C1287 1.334 . S
C1288 C1289 1.287 . S
C1289 C1288 1.287 . S
C1289 C1290 1.524 . S
C1289 H1292 0.999 . S
C1290 H1260 0.950 . S
C1290 C1289 1.524 . S
C1290 C1291 1.415 . S
C1291 H1261 0.950 . S
C1291 C1286 1.363 . S
C1291 C1290 1.415 . S
H1292 C1289 0.999 . S
H1293 C1274 0.913 . S
H1294 C1312 0.951 . S
H1295 C1314 0.951 . S
H1296 C1316 0.950 . S
H1297 C1317 0.950 . S
H1298 C1319 0.950 . S
H1299 C1322 0.950 . S
H1300 C1323 0.950 . S
H1301 C1325 0.950 . S
H1302 C1326 0.950 . S
H1303 C1327 0.951 . S
H1304 C1329 0.951 . S
H1305 C1331 0.950 . S
H1306 C1332 0.950 . S
H1307 C1334 0.950 . S
H1308 C1337 0.950 . S
H1309 C1338 0.950 . S
H1310 C1340 0.950 . S
H1311 C1341 0.950 . S
C1312 H1294 0.951 . S
C1312 C1313 1.366 . S
C1312 C1314 1.388 . S
C1313 C1312 1.366 . S
C1313 C1317 1.385 . S
C1314 H1295 0.951 . S
C1314 C1312 1.388 . S
C1314 C1315 1.366 . S
C1315 C1314 1.366 . S
C1315 C1316 1.414 . S
C1315 C1318 1.499 . S
C1316 H1296 0.950 . S
C1316 C1315 1.414 . S
C1316 C1317 1.374 . S
C1317 H1297 0.950 . S
C1317 C1313 1.385 . S
C1317 C1316 1.374 . S
C1318 C1315 1.499 . S
C1318 C1319 1.373 . S
C1318 C1320 1.389 . S
C1319 H1298 0.950 . S
C1319 C1318 1.373 . S
C1319 C1335 1.377 . S
C1320 C1318 1.389 . S
C1320 C1321 1.524 . S
C1320 C1334 1.377 . S
C1321 C1320 1.524 . S
C1321 C1322 1.397 . S
C1321 C1326 1.363 . S
C1322 H1299 0.950 . S
C1322 C1321 1.397 . S
C1322 C1323 1.334 . S
C1323 H1300 0.950 . S
C1323 C1322 1.334 . S
C1323 C1324 1.287 . S
C1324 C1323 1.287 . S
C1324 C1325 1.524 . S
C1324 H1343 0.913 . S
C1325 H1301 0.950 . S
C1325 C1324 1.524 . S
C1325 C1326 1.415 . S
C1326 H1302 0.950 . S
C1326 C1321 1.363 . S
C1326 C1325 1.415 . S
C1327 H1303 0.951 . S
C1327 C1328 1.366 . S
C1327 C1329 1.388 . S
C1328 C1327 1.366 . S
C1328 C1332 1.385 . S
C1329 H1304 0.951 . S
C1329 C1327 1.388 . S
C1329 C1330 1.366 . S
C1330 C1329 1.366 . S
C1330 C1331 1.414 . S
C1330 C1333 1.499 . S
C1331 H1305 0.950 . S
C1331 C1330 1.414 . S
C1331 C1332 1.374 . S
C1332 H1306 0.950 . S
C1332 C1328 1.385 . S
C1332 C1331 1.374 . S
C1333 C1330 1.499 . S
C1333 C1334 1.373 . S
C1333 C1335 1.389 . S
C1334 H1307 0.950 . S
C1334 C1320 1.377 . S
C1334 C1333 1.373 . S
C1335 C1319 1.377 . S
C1335 C1333 1.389 . S
C1335 C1336 1.524 . S
C1336 C1335 1.524 . S
C1336 C1337 1.397 . S
C1336 C1341 1.363 . S
C1337 H1308 0.950 . S
C1337 C1336 1.397 . S
C1337 C1338 1.334 . S
C1338 H1309 0.950 . S
C1338 C1337 1.334 . S
C1338 C1339 1.287 . S
C1339 C1338 1.287 . S
C1339 C1340 1.524 . S
C1339 H1342 0.999 . S
C1340 H1310 0.950 . S
C1340 C1339 1.524 . S
C1340 C1341 1.415 . S
C1341 H1311 0.950 . S
C1341 C1336 1.363 . S
C1341 C1340 1.415 . S
H1342 C1339 0.999 . S
H1343 C1324 0.913 . S
H1344 C1362 0.951 . S
H1345 C1364 0.951 . S
H1346 C1366 0.950 . S
H1347 C1367 0.950 . S
H1348 C1369 0.950 . S
H1349 C1372 0.950 . S
H1350 C1373 0.950 . S
H1351 C1375 0.950 . S
H1352 C1376 0.950 . S
H1353 C1377 0.951 . S
H1354 C1379 0.951 . S
H1355 C1381 0.950 . S
H1356 C1382 0.950 . S
H1357 C1384 0.950 . S
H1358 C1387 0.950 . S
H1359 C1388 0.950 . S
H1360 C1390 0.950 . S
H1361 C1391 0.950 . S
C1362 H1344 0.951 . S
C1362 C1363 1.366 . S
C1362 C1364 1.388 . S
C1363 C1362 1.366 . S
C1363 C1367 1.385 . S
C1364 H1345 0.951 . S
C1364 C1362 1.388 . S
C1364 C1365 1.366 . S
C1365 C1364 1.366 . S
C1365 C1366 1.414 . S
C1365 C1368 1.499 . S
C1366 H1346 0.950 . S
C1366 C1365 1.414 . S
C1366 C1367 1.374 . S
C1367 H1347 0.950 . S
C1367 C1363 1.385 . S
C1367 C1366 1.374 . S
C1368 C1365 1.499 . S
C1368 C1369 1.373 . S
C1368 C1370 1.389 . S
C1369 H1348 0.950 . S
C1369 C1368 1.373 . S
C1369 C1385 1.377 1_554 S
C1370 C1368 1.389 . S
C1370 C1371 1.524 . S
C1370 C1384 1.377 1_554 S
C1371 C1370 1.524 . S
C1371 C1372 1.397 . S
C1371 C1376 1.363 . S
C1372 H1349 0.950 . S
C1372 C1371 1.397 . S
C1372 C1373 1.334 . S
C1373 H1350 0.950 . S
C1373 C1372 1.334 . S
C1373 C1374 1.287 . S
C1374 C1373 1.287 . S
C1374 C1375 1.524 . S
C1374 H1393 0.913 . S
C1375 H1351 0.950 . S
C1375 C1374 1.524 . S
C1375 C1376 1.415 . S
C1376 H1352 0.950 . S
C1376 C1371 1.363 . S
C1376 C1375 1.415 . S
C1377 H1353 0.951 . S
C1377 C1378 1.366 . S
C1377 C1379 1.388 . S
C1378 C1377 1.366 . S
C1378 C1382 1.385 . S
C1379 H1354 0.951 . S
C1379 C1377 1.388 . S
C1379 C1380 1.366 . S
C1380 C1379 1.366 . S
C1380 C1381 1.414 . S
C1380 C1383 1.499 . S
C1381 H1355 0.950 . S
C1381 C1380 1.414 . S
C1381 C1382 1.374 . S
C1382 H1356 0.950 . S
C1382 C1378 1.385 . S
C1382 C1381 1.374 . S
C1383 C1380 1.499 . S
C1383 C1384 1.373 . S
C1383 C1385 1.389 . S
C1384 H1357 0.950 . S
C1384 C1370 1.377 1_556 S
C1384 C1383 1.373 . S
C1385 C1369 1.377 1_556 S
C1385 C1383 1.389 . S
C1385 C1386 1.524 . S
C1386 C1385 1.524 . S
C1386 C1387 1.397 . S
C1386 C1391 1.363 . S
C1387 H1358 0.950 . S
C1387 C1386 1.397 . S
C1387 C1388 1.334 . S
C1388 H1359 0.950 . S
C1388 C1387 1.334 . S
C1388 C1389 1.287 . S
C1389 C1388 1.287 . S
C1389 C1390 1.524 . S
C1389 H1392 0.999 . S
C1390 H1360 0.950 . S
C1390 C1389 1.524 . S
C1390 C1391 1.415 . S
C1391 H1361 0.950 . S
C1391 C1386 1.363 . S
C1391 C1390 1.415 . S
H1392 C1389 0.999 . S
H1393 C1374 0.913 . S
H1394 C1412 0.951 . S
H1395 C1414 0.951 . S
H1396 C1416 0.950 . S
H1397 C1417 0.950 . S
H1398 C1419 0.950 . S
H1399 C1422 0.950 . S
H1400 C1423 0.950 . S
H1401 C1425 0.950 . S
H1402 C1426 0.950 . S
H1403 C1427 0.951 . S
H1404 C1429 0.951 . S
H1405 C1431 0.950 . S
H1406 C1432 0.950 . S
H1407 C1434 0.950 . S
H1408 C1437 0.950 . S
H1409 C1438 0.950 . S
H1410 C1440 0.950 . S
H1411 C1441 0.950 . S
C1412 H1394 0.951 . S
C1412 C1413 1.366 . S
C1412 C1414 1.388 . S
C1413 C1412 1.366 . S
C1413 C1417 1.385 . S
C1414 H1395 0.951 . S
C1414 C1412 1.388 . S
C1414 C1415 1.366 . S
C1415 C1414 1.366 . S
C1415 C1416 1.414 . S
C1415 C1418 1.499 . S
C1416 H1396 0.950 . S
C1416 C1415 1.414 . S
C1416 C1417 1.374 . S
C1417 H1397 0.950 . S
C1417 C1413 1.385 . S
C1417 C1416 1.374 . S
C1418 C1415 1.499 . S
C1418 C1419 1.373 . S
C1418 C1420 1.389 . S
C1419 H1398 0.950 . S
C1419 C1418 1.373 . S
C1419 C1435 1.377 1_556 S
C1420 C1418 1.389 . S
C1420 C1421 1.524 . S
C1420 C1434 1.377 1_556 S
C1421 C1420 1.524 . S
C1421 C1422 1.397 . S
C1421 C1426 1.363 . S
C1422 H1399 0.950 . S
C1422 C1421 1.397 . S
C1422 C1423 1.334 . S
C1423 H1400 0.950 . S
C1423 C1422 1.334 . S
C1423 C1424 1.287 . S
C1424 C1423 1.287 . S
C1424 C1425 1.524 . S
C1424 H1443 0.913 . S
C1425 H1401 0.950 . S
C1425 C1424 1.524 . S
C1425 C1426 1.415 . S
C1426 H1402 0.950 . S
C1426 C1421 1.363 . S
C1426 C1425 1.415 . S
C1427 H1403 0.951 . S
C1427 C1428 1.366 . S
C1427 C1429 1.388 . S
C1428 C1427 1.366 . S
C1428 C1432 1.385 . S
C1429 H1404 0.951 . S
C1429 C1427 1.388 . S
C1429 C1430 1.366 . S
C1430 C1429 1.366 . S
C1430 C1431 1.414 . S
C1430 C1433 1.499 . S
C1431 H1405 0.950 . S
C1431 C1430 1.414 . S
C1431 C1432 1.374 . S
C1432 H1406 0.950 . S
C1432 C1428 1.385 . S
C1432 C1431 1.374 . S
C1433 C1430 1.499 . S
C1433 C1434 1.373 . S
C1433 C1435 1.389 . S
C1434 H1407 0.950 . S
C1434 C1420 1.377 1_554 S
C1434 C1433 1.373 . S
C1435 C1419 1.377 1_554 S
C1435 C1433 1.389 . S
C1435 C1436 1.524 . S
C1436 C1435 1.524 . S
C1436 C1437 1.397 . S
C1436 C1441 1.363 . S
C1437 H1408 0.950 . S
C1437 C1436 1.397 . S
C1437 C1438 1.334 . S
C1438 H1409 0.950 . S
C1438 C1437 1.334 . S
C1438 C1439 1.287 . S
C1439 C1438 1.287 . S
C1439 C1440 1.524 . S
C1439 H1442 0.999 . S
C1440 H1410 0.950 . S
C1440 C1439 1.524 . S
C1440 C1441 1.415 . S
C1441 H1411 0.950 . S
C1441 C1436 1.363 . S
C1441 C1440 1.415 . S
H1442 C1439 0.999 . S
H1443 C1424 0.913 . S
H1444 C1462 0.951 . S
H1445 C1464 0.951 . S
H1446 C1466 0.950 . S
H1447 C1467 0.950 . S
H1448 C1469 0.950 . S
H1449 C1472 0.950 . S
H1450 C1473 0.950 . S
H1451 C1475 0.950 . S
H1452 C1476 0.950 . S
H1453 C1477 0.951 . S
H1454 C1479 0.951 . S
H1455 C1481 0.950 . S
H1456 C1482 0.950 . S
H1457 C1484 0.950 . S
H1458 C1487 0.950 . S
H1459 C1488 0.950 . S
H1460 C1490 0.950 . S
H1461 C1491 0.950 . S
C1462 H1444 0.951 . S
C1462 C1463 1.366 . S
C1462 C1464 1.388 . S
C1463 C1462 1.366 . S
C1463 C1467 1.385 . S
C1464 H1445 0.951 . S
C1464 C1462 1.388 . S
C1464 C1465 1.366 . S
C1465 C1464 1.366 . S
C1465 C1466 1.414 . S
C1465 C1468 1.499 . S
C1466 H1446 0.950 . S
C1466 C1465 1.414 . S
C1466 C1467 1.374 . S
C1467 H1447 0.950 . S
C1467 C1463 1.385 . S
C1467 C1466 1.374 . S
C1468 C1465 1.499 . S
C1468 C1469 1.373 . S
C1468 C1470 1.389 . S
C1469 H1448 0.950 . S
C1469 C1468 1.373 . S
C1469 C1485 1.377 1_556 S
C1470 C1468 1.389 . S
C1470 C1471 1.524 . S
C1470 C1484 1.377 1_556 S
C1471 C1470 1.524 . S
C1471 C1472 1.397 . S
C1471 C1476 1.363 . S
C1472 H1449 0.950 . S
C1472 C1471 1.397 . S
C1472 C1473 1.334 . S
C1473 H1450 0.950 . S
C1473 C1472 1.334 . S
C1473 C1474 1.287 . S
C1474 C1473 1.287 . S
C1474 C1475 1.524 . S
C1474 H1493 0.913 . S
C1475 H1451 0.950 . S
C1475 C1474 1.524 . S
C1475 C1476 1.415 . S
C1476 H1452 0.950 . S
C1476 C1471 1.363 . S
C1476 C1475 1.415 . S
C1477 H1453 0.951 . S
C1477 C1478 1.366 . S
C1477 C1479 1.388 . S
C1478 C1477 1.366 . S
C1478 C1482 1.385 . S
C1479 H1454 0.951 . S
C1479 C1477 1.388 . S
C1479 C1480 1.366 . S
C1480 C1479 1.366 . S
C1480 C1481 1.414 . S
C1480 C1483 1.499 . S
C1481 H1455 0.950 . S
C1481 C1480 1.414 . S
C1481 C1482 1.374 . S
C1482 H1456 0.950 . S
C1482 C1478 1.385 . S
C1482 C1481 1.374 . S
C1483 C1480 1.499 . S
C1483 C1484 1.373 . S
C1483 C1485 1.389 . S
C1484 H1457 0.950 . S
C1484 C1470 1.377 1_554 S
C1484 C1483 1.373 . S
C1485 C1469 1.377 1_554 S
C1485 C1483 1.389 . S
C1485 C1486 1.524 . S
C1486 C1485 1.524 . S
C1486 C1487 1.397 . S
C1486 C1491 1.363 . S
C1487 H1458 0.950 . S
C1487 C1486 1.397 . S
C1487 C1488 1.334 . S
C1488 H1459 0.950 . S
C1488 C1487 1.334 . S
C1488 C1489 1.287 . S
C1489 C1488 1.287 . S
C1489 C1490 1.524 . S
C1489 H1492 0.999 . S
C1490 H1460 0.950 . S
C1490 C1489 1.524 . S
C1490 C1491 1.415 . S
C1491 H1461 0.950 . S
C1491 C1486 1.363 . S
C1491 C1490 1.415 . S
H1492 C1489 0.999 . S
H1493 C1474 0.913 . S
H1494 C1512 0.951 . S
H1495 C1514 0.951 . S
H1496 C1516 0.950 . S
H1497 C1517 0.950 . S
H1498 C1519 0.950 . S
H1499 C1522 0.950 . S
H1500 C1523 0.950 . S
H1501 C1525 0.950 . S
H1502 C1526 0.950 . S
H1503 C1527 0.951 . S
H1504 C1529 0.951 . S
H1505 C1531 0.950 . S
H1506 C1532 0.950 . S
H1507 C1534 0.950 . S
H1508 C1537 0.950 . S
H1509 C1538 0.950 . S
H1510 C1540 0.950 . S
H1511 C1541 0.950 . S
C1512 H1494 0.951 . S
C1512 C1513 1.366 . S
C1512 C1514 1.388 . S
C1513 C1512 1.366 . S
C1513 C1517 1.385 . S
C1514 H1495 0.951 . S
C1514 C1512 1.388 . S
C1514 C1515 1.366 . S
C1515 C1514 1.366 . S
C1515 C1516 1.414 . S
C1515 C1518 1.499 . S
C1516 H1496 0.950 . S
C1516 C1515 1.414 . S
C1516 C1517 1.374 . S
C1517 H1497 0.950 . S
C1517 C1513 1.385 . S
C1517 C1516 1.374 . S
C1518 C1515 1.499 . S
C1518 C1519 1.373 . S
C1518 C1520 1.389 . S
C1519 H1498 0.950 . S
C1519 C1518 1.373 . S
C1519 C1535 1.377 1_556 S
C1520 C1518 1.389 . S
C1520 C1521 1.524 . S
C1520 C1534 1.377 1_556 S
C1521 C1520 1.524 . S
C1521 C1522 1.397 . S
C1521 C1526 1.363 . S
C1522 H1499 0.950 . S
C1522 C1521 1.397 . S
C1522 C1523 1.334 . S
C1523 H1500 0.950 . S
C1523 C1522 1.334 . S
C1523 C1524 1.287 . S
C1524 C1523 1.287 . S
C1524 C1525 1.524 . S
C1524 H1543 0.913 . S
C1525 H1501 0.950 . S
C1525 C1524 1.524 . S
C1525 C1526 1.415 . S
C1526 H1502 0.950 . S
C1526 C1521 1.363 . S
C1526 C1525 1.415 . S
C1527 H1503 0.951 . S
C1527 C1528 1.366 . S
C1527 C1529 1.388 . S
C1528 C1527 1.366 . S
C1528 C1532 1.385 . S
C1529 H1504 0.951 . S
C1529 C1527 1.388 . S
C1529 C1530 1.366 . S
C1530 C1529 1.366 . S
C1530 C1531 1.414 . S
C1530 C1533 1.499 . S
C1531 H1505 0.950 . S
C1531 C1530 1.414 . S
C1531 C1532 1.374 . S
C1532 H1506 0.950 . S
C1532 C1528 1.385 . S
C1532 C1531 1.374 . S
C1533 C1530 1.499 . S
C1533 C1534 1.373 . S
C1533 C1535 1.389 . S
C1534 H1507 0.950 . S
C1534 C1520 1.377 1_554 S
C1534 C1533 1.373 . S
C1535 C1519 1.377 1_554 S
C1535 C1533 1.389 . S
C1535 C1536 1.524 . S
C1536 C1535 1.524 . S
C1536 C1537 1.397 . S
C1536 C1541 1.363 . S
C1537 H1508 0.950 . S
C1537 C1536 1.397 . S
C1537 C1538 1.334 . S
C1538 H1509 0.950 . S
C1538 C1537 1.334 . S
C1538 C1539 1.287 . S
C1539 C1538 1.287 . S
C1539 C1540 1.524 . S
C1539 H1542 0.999 . S
C1540 H1510 0.950 . S
C1540 C1539 1.524 . S
C1540 C1541 1.415 . S
C1541 H1511 0.950 . S
C1541 C1536 1.363 . S
C1541 C1540 1.415 . S
H1542 C1539 0.999 . S
H1543 C1524 0.913 . S
H1544 C1562 0.951 . S
H1545 C1564 0.951 . S
H1546 C1566 0.950 . S
H1547 C1567 0.950 . S
H1548 C1569 0.950 . S
H1549 C1572 0.950 . S
H1550 C1573 0.950 . S
H1551 C1575 0.950 . S
H1552 C1576 0.950 . S
H1553 C1577 0.951 . S
H1554 C1579 0.951 . S
H1555 C1581 0.950 . S
H1556 C1582 0.950 . S
H1557 C1584 0.950 . S
H1558 C1587 0.950 . S
H1559 C1588 0.950 . S
H1560 C1590 0.950 . S
H1561 C1591 0.950 . S
C1562 H1544 0.951 . S
C1562 C1563 1.366 . S
C1562 C1564 1.388 . S
C1563 C1562 1.366 . S
C1563 C1567 1.385 . S
C1564 H1545 0.951 . S
C1564 C1562 1.388 . S
C1564 C1565 1.366 . S
C1565 C1564 1.366 . S
C1565 C1566 1.414 . S
C1565 C1568 1.499 . S
C1566 H1546 0.950 . S
C1566 C1565 1.414 . S
C1566 C1567 1.374 . S
C1567 H1547 0.950 . S
C1567 C1563 1.385 . S
C1567 C1566 1.374 . S
C1568 C1565 1.499 . S
C1568 C1569 1.373 . S
C1568 C1570 1.389 . S
C1569 H1548 0.950 . S
C1569 C1568 1.373 . S
C1569 C1585 1.377 . S
C1570 C1568 1.389 . S
C1570 C1571 1.524 . S
C1570 C1584 1.377 . S
C1571 C1570 1.524 . S
C1571 C1572 1.397 . S
C1571 C1576 1.363 . S
C1572 H1549 0.950 . S
C1572 C1571 1.397 . S
C1572 C1573 1.334 . S
C1573 H1550 0.950 . S
C1573 C1572 1.334 . S
C1573 C1574 1.287 . S
C1574 C1573 1.287 . S
C1574 C1575 1.524 . S
C1574 H1593 0.913 . S
C1575 H1551 0.950 . S
C1575 C1574 1.524 . S
C1575 C1576 1.415 . S
C1576 H1552 0.950 . S
C1576 C1571 1.363 . S
C1576 C1575 1.415 . S
C1577 H1553 0.951 . S
C1577 C1578 1.366 . S
C1577 C1579 1.388 . S
C1578 C1577 1.366 . S
C1578 C1582 1.385 . S
C1579 H1554 0.951 . S
C1579 C1577 1.388 . S
C1579 C1580 1.366 . S
C1580 C1579 1.366 . S
C1580 C1581 1.414 . S
C1580 C1583 1.499 . S
C1581 H1555 0.950 . S
C1581 C1580 1.414 . S
C1581 C1582 1.374 . S
C1582 H1556 0.950 . S
C1582 C1578 1.385 . S
C1582 C1581 1.374 . S
C1583 C1580 1.499 . S
C1583 C1584 1.373 . S
C1583 C1585 1.389 . S
C1584 H1557 0.950 . S
C1584 C1570 1.377 . S
C1584 C1583 1.373 . S
C1585 C1569 1.377 . S
C1585 C1583 1.389 . S
C1585 C1586 1.524 . S
C1586 C1585 1.524 . S
C1586 C1587 1.397 . S
C1586 C1591 1.363 . S
C1587 H1558 0.950 . S
C1587 C1586 1.397 . S
C1587 C1588 1.334 . S
C1588 H1559 0.950 . S
C1588 C1587 1.334 . S
C1588 C1589 1.287 . S
C1589 C1588 1.287 . S
C1589 C1590 1.524 . S
C1589 H1592 0.999 . S
C1590 H1560 0.950 . S
C1590 C1589 1.524 . S
C1590 C1591 1.415 . S
C1591 H1561 0.950 . S
C1591 C1586 1.363 . S
C1591 C1590 1.415 . S
H1592 C1589 0.999 . S
H1593 C1574 0.913 . S
H1594 C1612 0.951 . S
H1595 C1614 0.951 . S
H1596 C1616 0.950 . S
H1597 C1617 0.950 . S
H1598 C1619 0.950 . S
H1599 C1622 0.950 . S
H1600 C1623 0.950 . S
H1601 C1625 0.950 . S
H1602 C1626 0.950 . S
H1603 C1627 0.951 . S
H1604 C1629 0.951 . S
H1605 C1631 0.950 . S
H1606 C1632 0.950 . S
H1607 C1634 0.950 . S
H1608 C1637 0.950 . S
H1609 C1638 0.950 . S
H1610 C1640 0.950 . S
H1611 C1641 0.950 . S
C1612 H1594 0.951 . S
C1612 C1613 1.366 . S
C1612 C1614 1.388 . S
C1613 C1612 1.366 . S
C1613 C1617 1.385 . S
C1614 H1595 0.951 . S
C1614 C1612 1.388 . S
C1614 C1615 1.366 . S
C1615 C1614 1.366 . S
C1615 C1616 1.414 . S
C1615 C1618 1.499 . S
C1616 H1596 0.950 . S
C1616 C1615 1.414 . S
C1616 C1617 1.374 . S
C1617 H1597 0.950 . S
C1617 C1613 1.385 . S
C1617 C1616 1.374 . S
C1618 C1615 1.499 . S
C1618 C1619 1.373 . S
C1618 C1620 1.389 . S
C1619 H1598 0.950 . S
C1619 C1618 1.373 . S
C1619 C1635 1.377 . S
C1620 C1618 1.389 . S
C1620 C1621 1.524 . S
C1620 C1634 1.377 . S
C1621 C1620 1.524 . S
C1621 C1622 1.397 . S
C1621 C1626 1.363 . S
C1622 H1599 0.950 . S
C1622 C1621 1.397 . S
C1622 C1623 1.334 . S
C1623 H1600 0.950 . S
C1623 C1622 1.334 . S
C1623 C1624 1.287 . S
C1624 C1623 1.287 . S
C1624 C1625 1.524 . S
C1624 H1643 0.913 . S
C1625 H1601 0.950 . S
C1625 C1624 1.524 . S
C1625 C1626 1.415 . S
C1626 H1602 0.950 . S
C1626 C1621 1.363 . S
C1626 C1625 1.415 . S
C1627 H1603 0.951 . S
C1627 C1628 1.366 . S
C1627 C1629 1.388 . S
C1628 C1627 1.366 . S
C1628 C1632 1.385 . S
C1629 H1604 0.951 . S
C1629 C1627 1.388 . S
C1629 C1630 1.366 . S
C1630 C1629 1.366 . S
C1630 C1631 1.414 . S
C1630 C1633 1.499 . S
C1631 H1605 0.950 . S
C1631 C1630 1.414 . S
C1631 C1632 1.374 . S
C1632 H1606 0.950 . S
C1632 C1628 1.385 . S
C1632 C1631 1.374 . S
C1633 C1630 1.499 . S
C1633 C1634 1.373 . S
C1633 C1635 1.389 . S
C1634 H1607 0.950 . S
C1634 C1620 1.377 . S
C1634 C1633 1.373 . S
C1635 C1619 1.377 . S
C1635 C1633 1.389 . S
C1635 C1636 1.524 . S
C1636 C1635 1.524 . S
C1636 C1637 1.397 . S
C1636 C1641 1.363 . S
C1637 H1608 0.950 . S
C1637 C1636 1.397 . S
C1637 C1638 1.334 . S
C1638 H1609 0.950 . S
C1638 C1637 1.334 . S
C1638 C1639 1.287 . S
C1639 C1638 1.287 . S
C1639 C1640 1.524 . S
C1639 H1642 0.999 . S
C1640 H1610 0.950 . S
C1640 C1639 1.524 . S
C1640 C1641 1.415 . S
C1641 H1611 0.950 . S
C1641 C1636 1.363 . S
C1641 C1640 1.415 . S
H1642 C1639 0.999 . S
H1643 C1624 0.913 . S
H1644 C1662 0.951 . S
H1645 C1664 0.951 . S
H1646 C1666 0.950 . S
H1647 C1667 0.950 . S
H1648 C1669 0.950 . S
H1649 C1672 0.950 . S
H1650 C1673 0.950 . S
H1651 C1675 0.950 . S
H1652 C1676 0.950 . S
H1653 C1677 0.951 . S
H1654 C1679 0.951 . S
H1655 C1681 0.950 . S
H1656 C1682 0.950 . S
H1657 C1684 0.950 . S
H1658 C1687 0.950 . S
H1659 C1688 0.950 . S
H1660 C1690 0.950 . S
H1661 C1691 0.950 . S
C1662 H1644 0.951 . S
C1662 C1663 1.366 . S
C1662 C1664 1.388 . S
C1663 C1662 1.366 . S
C1663 C1667 1.385 . S
C1664 H1645 0.951 . S
C1664 C1662 1.388 . S
C1664 C1665 1.366 . S
C1665 C1664 1.366 . S
C1665 C1666 1.414 . S
C1665 C1668 1.499 . S
C1666 H1646 0.950 . S
C1666 C1665 1.414 . S
C1666 C1667 1.374 . S
C1667 H1647 0.950 . S
C1667 C1663 1.385 . S
C1667 C1666 1.374 . S
C1668 C1665 1.499 . S
C1668 C1669 1.373 . S
C1668 C1670 1.389 . S
C1669 H1648 0.950 . S
C1669 C1668 1.373 . S
C1669 C1685 1.377 . S
C1670 C1668 1.389 . S
C1670 C1671 1.524 . S
C1670 C1684 1.377 . S
C1671 C1670 1.524 . S
C1671 C1672 1.397 . S
C1671 C1676 1.363 . S
C1672 H1649 0.950 . S
C1672 C1671 1.397 . S
C1672 C1673 1.334 . S
C1673 H1650 0.950 . S
C1673 C1672 1.334 . S
C1673 C1674 1.287 . S
C1674 C1673 1.287 . S
C1674 C1675 1.524 . S
C1674 H1693 0.913 . S
C1675 H1651 0.950 . S
C1675 C1674 1.524 . S
C1675 C1676 1.415 . S
C1676 H1652 0.950 . S
C1676 C1671 1.363 . S
C1676 C1675 1.415 . S
C1677 H1653 0.951 . S
C1677 C1678 1.366 . S
C1677 C1679 1.388 . S
C1678 C1677 1.366 . S
C1678 C1682 1.385 . S
C1679 H1654 0.951 . S
C1679 C1677 1.388 . S
C1679 C1680 1.366 . S
C1680 C1679 1.366 . S
C1680 C1681 1.414 . S
C1680 C1683 1.499 . S
C1681 H1655 0.950 . S
C1681 C1680 1.414 . S
C1681 C1682 1.374 . S
C1682 H1656 0.950 . S
C1682 C1678 1.385 . S
C1682 C1681 1.374 . S
C1683 C1680 1.499 . S
C1683 C1684 1.373 . S
C1683 C1685 1.389 . S
C1684 H1657 0.950 . S
C1684 C1670 1.377 . S
C1684 C1683 1.373 . S
C1685 C1669 1.377 . S
C1685 C1683 1.389 . S
C1685 C1686 1.524 . S
C1686 C1685 1.524 . S
C1686 C1687 1.397 . S
C1686 C1691 1.363 . S
C1687 H1658 0.950 . S
C1687 C1686 1.397 . S
C1687 C1688 1.334 . S
C1688 H1659 0.950 . S
C1688 C1687 1.334 . S
C1688 C1689 1.287 . S
C1689 C1688 1.287 . S
C1689 C1690 1.524 . S
C1689 H1692 0.999 . S
C1690 H1660 0.950 . S
C1690 C1689 1.524 . S
C1690 C1691 1.415 . S
C1691 H1661 0.950 . S
C1691 C1686 1.363 . S
C1691 C1690 1.415 . S
H1692 C1689 0.999 . S
H1693 C1674 0.913 . S
H1694 C1712 0.951 . S
H1695 C1714 0.951 . S
H1696 C1716 0.950 . S
H1697 C1717 0.950 . S
H1698 C1719 0.950 . S
H1699 C1722 0.950 . S
H1700 C1723 0.950 . S
H1701 C1725 0.950 . S
H1702 C1726 0.950 . S
H1703 C1727 0.951 . S
H1704 C1729 0.951 . S
H1705 C1731 0.950 . S
H1706 C1732 0.950 . S
H1707 C1734 0.950 . S
H1708 C1737 0.950 . S
H1709 C1738 0.950 . S
H1710 C1740 0.950 . S
H1711 C1741 0.950 . S
C1712 H1694 0.951 . S
C1712 C1713 1.366 . S
C1712 C1714 1.388 . S
C1713 C1712 1.366 . S
C1713 C1717 1.385 . S
C1714 H1695 0.951 . S
C1714 C1712 1.388 . S
C1714 C1715 1.366 . S
C1715 C1714 1.366 . S
C1715 C1716 1.414 . S
C1715 C1718 1.499 . S
C1716 H1696 0.950 . S
C1716 C1715 1.414 . S
C1716 C1717 1.374 . S
C1717 H1697 0.950 . S
C1717 C1713 1.385 . S
C1717 C1716 1.374 . S
C1718 C1715 1.499 . S
C1718 C1719 1.373 . S
C1718 C1720 1.389 . S
C1719 H1698 0.950 . S
C1719 C1718 1.373 . S
C1719 C1735 1.377 . S
C1720 C1718 1.389 . S
C1720 C1721 1.524 . S
C1720 C1734 1.377 . S
C1721 C1720 1.524 . S
C1721 C1722 1.397 . S
C1721 C1726 1.363 . S
C1722 H1699 0.950 . S
C1722 C1721 1.397 . S
C1722 C1723 1.334 . S
C1723 H1700 0.950 . S
C1723 C1722 1.334 . S
C1723 C1724 1.287 . S
C1724 C1723 1.287 . S
C1724 C1725 1.524 . S
C1724 H1743 0.913 . S
C1725 H1701 0.950 . S
C1725 C1724 1.524 . S
C1725 C1726 1.415 . S
C1726 H1702 0.950 . S
C1726 C1721 1.363 . S
C1726 C1725 1.415 . S
C1727 H1703 0.951 . S
C1727 C1728 1.366 . S
C1727 C1729 1.388 . S
C1728 C1727 1.366 . S
C1728 C1732 1.385 . S
C1729 H1704 0.951 . S
C1729 C1727 1.388 . S
C1729 C1730 1.366 . S
C1730 C1729 1.366 . S
C1730 C1731 1.414 . S
C1730 C1733 1.499 . S
C1731 H1705 0.950 . S
C1731 C1730 1.414 . S
C1731 C1732 1.374 . S
C1732 H1706 0.950 . S
C1732 C1728 1.385 . S
C1732 C1731 1.374 . S
C1733 C1730 1.499 . S
C1733 C1734 1.373 . S
C1733 C1735 1.389 . S
C1734 H1707 0.950 . S
C1734 C1720 1.377 . S
C1734 C1733 1.373 . S
C1735 C1719 1.377 . S
C1735 C1733 1.389 . S
C1735 C1736 1.524 . S
C1736 C1735 1.524 . S
C1736 C1737 1.397 . S
C1736 C1741 1.363 . S
C1737 H1708 0.950 . S
C1737 C1736 1.397 . S
C1737 C1738 1.334 . S
C1738 H1709 0.950 . S
C1738 C1737 1.334 . S
C1738 C1739 1.287 . S
C1739 C1738 1.287 . S
C1739 C1740 1.524 . S
C1739 H1742 0.999 . S
C1740 H1710 0.950 . S
C1740 C1739 1.524 . S
C1740 C1741 1.415 . S
C1741 H1711 0.950 . S
C1741 C1736 1.363 . S
C1741 C1740 1.415 . S
H1742 C1739 0.999 . S
H1743 C1724 0.913 . S
H1744 C1762 0.951 . S
H1745 C1764 0.951 . S
H1746 C1766 0.950 . S
H1747 C1767 0.950 . S
H1748 C1769 0.950 . S
H1749 C1772 0.950 . S
H1750 C1773 0.950 . S
H1751 C1775 0.950 . S
H1752 C1776 0.950 . S
H1753 C1777 0.951 . S
H1754 C1779 0.951 . S
H1755 C1781 0.950 . S
H1756 C1782 0.950 . S
H1757 C1784 0.950 . S
H1758 C1787 0.950 . S
H1759 C1788 0.950 . S
H1760 C1790 0.950 . S
H1761 C1791 0.950 . S
C1762 H1744 0.951 . S
C1762 C1763 1.366 . S
C1762 C1764 1.388 . S
C1763 C1762 1.366 . S
C1763 C1767 1.385 . S
C1764 H1745 0.951 . S
C1764 C1762 1.388 . S
C1764 C1765 1.366 . S
C1765 C1764 1.366 . S
C1765 C1766 1.414 . S
C1765 C1768 1.499 . S
C1766 H1746 0.950 . S
C1766 C1765 1.414 . S
C1766 C1767 1.374 . S
C1767 H1747 0.950 . S
C1767 C1763 1.385 . S
C1767 C1766 1.374 . S
C1768 C1765 1.499 . S
C1768 C1769 1.373 . S
C1768 C1770 1.389 . S
C1769 H1748 0.950 . S
C1769 C1768 1.373 . S
C1769 C1785 1.377 . S
C1770 C1768 1.389 . S
C1770 C1771 1.524 . S
C1770 C1784 1.377 . S
C1771 C1770 1.524 . S
C1771 C1772 1.397 . S
C1771 C1776 1.363 . S
C1772 H1749 0.950 . S
C1772 C1771 1.397 . S
C1772 C1773 1.334 . S
C1773 H1750 0.950 . S
C1773 C1772 1.334 . S
C1773 C1774 1.287 . S
C1774 C1773 1.287 . S
C1774 C1775 1.524 . S
C1774 H1793 0.913 . S
C1775 H1751 0.950 . S
C1775 C1774 1.524 . S
C1775 C1776 1.415 . S
C1776 H1752 0.950 . S
C1776 C1771 1.363 . S
C1776 C1775 1.415 . S
C1777 H1753 0.951 . S
C1777 C1778 1.366 . S
C1777 C1779 1.388 . S
C1778 C1777 1.366 . S
C1778 C1782 1.385 . S
C1779 H1754 0.951 . S
C1779 C1777 1.388 . S
C1779 C1780 1.366 . S
C1780 C1779 1.366 . S
C1780 C1781 1.414 . S
C1780 C1783 1.499 . S
C1781 H1755 0.950 . S
C1781 C1780 1.414 . S
C1781 C1782 1.374 . S
C1782 H1756 0.950 . S
C1782 C1778 1.385 . S
C1782 C1781 1.374 . S
C1783 C1780 1.499 . S
C1783 C1784 1.373 . S
C1783 C1785 1.389 . S
C1784 H1757 0.950 . S
C1784 C1770 1.377 . S
C1784 C1783 1.373 . S
C1785 C1769 1.377 . S
C1785 C1783 1.389 . S
C1785 C1786 1.524 . S
C1786 C1785 1.524 . S
C1786 C1787 1.397 . S
C1786 C1791 1.363 . S
C1787 H1758 0.950 . S
C1787 C1786 1.397 . S
C1787 C1788 1.334 . S
C1788 H1759 0.950 . S
C1788 C1787 1.334 . S
C1788 C1789 1.287 . S
C1789 C1788 1.287 . S
C1789 C1790 1.524 . S
C1789 H1792 0.999 . S
C1790 H1760 0.950 . S
C1790 C1789 1.524 . S
C1790 C1791 1.415 . S
C1791 H1761 0.950 . S
C1791 C1786 1.363 . S
C1791 C1790 1.415 . S
H1792 C1789 0.999 . S
H1793 C1774 0.913 . S
H1794 C1812 0.951 . S
H1795 C1814 0.951 . S
H1796 C1816 0.950 . S
H1797 C1817 0.950 . S
H1798 C1819 0.950 . S
H1799 C1822 0.950 . S
H1800 C1823 0.950 . S
H1801 C1825 0.950 . S
H1802 C1826 0.950 . S
H1803 C1827 0.951 . S
H1804 C1829 0.951 . S
H1805 C1831 0.950 . S
H1806 C1832 0.950 . S
H1807 C1834 0.950 . S
H1808 C1837 0.950 . S
H1809 C1838 0.950 . S
H1810 C1840 0.950 . S
H1811 C1841 0.950 . S
C1812 H1794 0.951 . S
C1812 C1813 1.366 . S
C1812 C1814 1.388 . S
C1813 C1812 1.366 . S
C1813 C1817 1.385 . S
C1814 H1795 0.951 . S
C1814 C1812 1.388 . S
C1814 C1815 1.366 . S
C1815 C1814 1.366 . S
C1815 C1816 1.414 . S
C1815 C1818 1.499 . S
C1816 H1796 0.950 . S
C1816 C1815 1.414 . S
C1816 C1817 1.374 . S
C1817 H1797 0.950 . S
C1817 C1813 1.385 . S
C1817 C1816 1.374 . S
C1818 C1815 1.499 . S
C1818 C1819 1.373 . S
C1818 C1820 1.389 . S
C1819 H1798 0.950 . S
C1819 C1818 1.373 . S
C1819 C1835 1.377 . S
C1820 C1818 1.389 . S
C1820 C1821 1.524 . S
C1820 C1834 1.377 . S
C1821 C1820 1.524 . S
C1821 C1822 1.397 . S
C1821 C1826 1.363 . S
C1822 H1799 0.950 . S
C1822 C1821 1.397 . S
C1822 C1823 1.334 . S
C1823 H1800 0.950 . S
C1823 C1822 1.334 . S
C1823 C1824 1.287 . S
C1824 C1823 1.287 . S
C1824 C1825 1.524 . S
C1824 H1843 0.913 . S
C1825 H1801 0.950 . S
C1825 C1824 1.524 . S
C1825 C1826 1.415 . S
C1826 H1802 0.950 . S
C1826 C1821 1.363 . S
C1826 C1825 1.415 . S
C1827 H1803 0.951 . S
C1827 C1828 1.366 . S
C1827 C1829 1.388 . S
C1828 C1827 1.366 . S
C1828 C1832 1.385 . S
C1829 H1804 0.951 . S
C1829 C1827 1.388 . S
C1829 C1830 1.366 . S
C1830 C1829 1.366 . S
C1830 C1831 1.414 . S
C1830 C1833 1.499 . S
C1831 H1805 0.950 . S
C1831 C1830 1.414 . S
C1831 C1832 1.374 . S
C1832 H1806 0.950 . S
C1832 C1828 1.385 . S
C1832 C1831 1.374 . S
C1833 C1830 1.499 . S
C1833 C1834 1.373 . S
C1833 C1835 1.389 . S
C1834 H1807 0.950 . S
C1834 C1820 1.377 . S
C1834 C1833 1.373 . S
C1835 C1819 1.377 . S
C1835 C1833 1.389 . S
C1835 C1836 1.524 . S
C1836 C1835 1.524 . S
C1836 C1837 1.397 . S
C1836 C1841 1.363 . S
C1837 H1808 0.950 . S
C1837 C1836 1.397 . S
C1837 C1838 1.334 . S
C1838 H1809 0.950 . S
C1838 C1837 1.334 . S
C1838 C1839 1.287 . S
C1839 C1838 1.287 . S
C1839 C1840 1.524 . S
C1839 H1842 0.999 . S
C1840 H1810 0.950 . S
C1840 C1839 1.524 . S
C1840 C1841 1.415 . S
C1841 H1811 0.950 . S
C1841 C1836 1.363 . S
C1841 C1840 1.415 . S
H1842 C1839 0.999 . S
H1843 C1824 0.913 . S
H1844 C1862 0.951 . S
H1845 C1864 0.951 . S
H1846 C1866 0.950 . S
H1847 C1867 0.950 . S
H1848 C1869 0.950 . S
H1849 C1872 0.950 . S
H1850 C1873 0.950 . S
H1851 C1875 0.950 . S
H1852 C1876 0.950 . S
H1853 C1877 0.951 . S
H1854 C1879 0.951 . S
H1855 C1881 0.950 . S
H1856 C1882 0.950 . S
H1857 C1884 0.950 . S
H1858 C1887 0.950 . S
H1859 C1888 0.950 . S
H1860 C1890 0.950 . S
H1861 C1891 0.950 . S
C1862 H1844 0.951 . S
C1862 C1863 1.366 . S
C1862 C1864 1.388 . S
C1863 C1862 1.366 . S
C1863 C1867 1.385 . S
C1864 H1845 0.951 . S
C1864 C1862 1.388 . S
C1864 C1865 1.366 . S
C1865 C1864 1.366 . S
C1865 C1866 1.414 . S
C1865 C1868 1.499 . S
C1866 H1846 0.950 . S
C1866 C1865 1.414 . S
C1866 C1867 1.374 . S
C1867 H1847 0.950 . S
C1867 C1863 1.385 . S
C1867 C1866 1.374 . S
C1868 C1865 1.499 . S
C1868 C1869 1.373 . S
C1868 C1870 1.389 . S
C1869 H1848 0.950 . S
C1869 C1868 1.373 . S
C1869 C1885 1.377 . S
C1870 C1868 1.389 . S
C1870 C1871 1.524 . S
C1870 C1884 1.377 . S
C1871 C1870 1.524 . S
C1871 C1872 1.397 . S
C1871 C1876 1.363 . S
C1872 H1849 0.950 . S
C1872 C1871 1.397 . S
C1872 C1873 1.334 . S
C1873 H1850 0.950 . S
C1873 C1872 1.334 . S
C1873 C1874 1.287 . S
C1874 C1873 1.287 . S
C1874 C1875 1.524 . S
C1874 H1893 0.913 . S
C1875 H1851 0.950 . S
C1875 C1874 1.524 . S
C1875 C1876 1.415 . S
C1876 H1852 0.950 . S
C1876 C1871 1.363 . S
C1876 C1875 1.415 . S
C1877 H1853 0.951 . S
C1877 C1878 1.366 . S
C1877 C1879 1.388 . S
C1878 C1877 1.366 . S
C1878 C1882 1.385 . S
C1879 H1854 0.951 . S
C1879 C1877 1.388 . S
C1879 C1880 1.366 . S
C1880 C1879 1.366 . S
C1880 C1881 1.414 . S
C1880 C1883 1.499 . S
C1881 H1855 0.950 . S
C1881 C1880 1.414 . S
C1881 C1882 1.374 . S
C1882 H1856 0.950 . S
C1882 C1878 1.385 . S
C1882 C1881 1.374 . S
C1883 C1880 1.499 . S
C1883 C1884 1.373 . S
C1883 C1885 1.389 . S
C1884 H1857 0.950 . S
C1884 C1870 1.377 . S
C1884 C1883 1.373 . S
C1885 C1869 1.377 . S
C1885 C1883 1.389 . S
C1885 C1886 1.524 . S
C1886 C1885 1.524 . S
C1886 C1887 1.397 . S
C1886 C1891 1.363 . S
C1887 H1858 0.950 . S
C1887 C1886 1.397 . S
C1887 C1888 1.334 . S
C1888 H1859 0.950 . S
C1888 C1887 1.334 . S
C1888 C1889 1.287 . S
C1889 C1888 1.287 . S
C1889 C1890 1.524 . S
C1889 H1892 0.999 . S
C1890 H1860 0.950 . S
C1890 C1889 1.524 . S
C1890 C1891 1.415 . S
C1891 H1861 0.950 . S
C1891 C1886 1.363 . S
C1891 C1890 1.415 . S
H1892 C1889 0.999 . S
H1893 C1874 0.913 . S
H1894 C1912 0.951 . S
H1895 C1914 0.951 . S
H1896 C1916 0.950 . S
H1897 C1917 0.950 . S
H1898 C1919 0.950 . S
H1899 C1922 0.950 . S
H1900 C1923 0.950 . S
H1901 C1925 0.950 . S
H1902 C1926 0.950 . S
H1903 C1927 0.951 . S
H1904 C1929 0.951 . S
H1905 C1931 0.950 . S
H1906 C1932 0.950 . S
H1907 C1934 0.950 . S
H1908 C1937 0.950 . S
H1909 C1938 0.950 . S
H1910 C1940 0.950 . S
H1911 C1941 0.950 . S
C1912 H1894 0.951 . S
C1912 C1913 1.366 . S
C1912 C1914 1.388 . S
C1913 C1912 1.366 . S
C1913 C1917 1.385 . S
C1914 H1895 0.951 . S
C1914 C1912 1.388 . S
C1914 C1915 1.366 . S
C1915 C1914 1.366 . S
C1915 C1916 1.414 . S
C1915 C1918 1.499 . S
C1916 H1896 0.950 . S
C1916 C1915 1.414 . S
C1916 C1917 1.374 . S
C1917 H1897 0.950 . S
C1917 C1913 1.385 . S
C1917 C1916 1.374 . S
C1918 C1915 1.499 . S
C1918 C1919 1.373 . S
C1918 C1920 1.389 . S
C1919 H1898 0.950 . S
C1919 C1918 1.373 . S
C1919 C1935 1.377 . S
C1920 C1918 1.389 . S
C1920 C1921 1.524 . S
C1920 C1934 1.377 . S
C1921 C1920 1.524 . S
C1921 C1922 1.397 . S
C1921 C1926 1.363 . S
C1922 H1899 0.950 . S
C1922 C1921 1.397 . S
C1922 C1923 1.334 . S
C1923 H1900 0.950 . S
C1923 C1922 1.334 . S
C1923 C1924 1.287 . S
C1924 C1923 1.287 . S
C1924 C1925 1.524 . S
C1924 H1943 0.913 . S
C1925 H1901 0.950 . S
C1925 C1924 1.524 . S
C1925 C1926 1.415 . S
C1926 H1902 0.950 . S
C1926 C1921 1.363 . S
C1926 C1925 1.415 . S
C1927 H1903 0.951 . S
C1927 C1928 1.366 . S
C1927 C1929 1.388 . S
C1928 C1927 1.366 . S
C1928 C1932 1.385 . S
C1929 H1904 0.951 . S
C1929 C1927 1.388 . S
C1929 C1930 1.366 . S
C1930 C1929 1.366 . S
C1930 C1931 1.414 . S
C1930 C1933 1.499 . S
C1931 H1905 0.950 . S
C1931 C1930 1.414 . S
C1931 C1932 1.374 . S
C1932 H1906 0.950 . S
C1932 C1928 1.385 . S
C1932 C1931 1.374 . S
C1933 C1930 1.499 . S
C1933 C1934 1.373 . S
C1933 C1935 1.389 . S
C1934 H1907 0.950 . S
C1934 C1920 1.377 . S
C1934 C1933 1.373 . S
C1935 C1919 1.377 . S
C1935 C1933 1.389 . S
C1935 C1936 1.524 . S
C1936 C1935 1.524 . S
C1936 C1937 1.397 . S
C1936 C1941 1.363 . S
C1937 H1908 0.950 . S
C1937 C1936 1.397 . S
C1937 C1938 1.334 . S
C1938 H1909 0.950 . S
C1938 C1937 1.334 . S
C1938 C1939 1.287 . S
C1939 C1938 1.287 . S
C1939 C1940 1.524 . S
C1939 H1942 0.999 . S
C1940 H1910 0.950 . S
C1940 C1939 1.524 . S
C1940 C1941 1.415 . S
C1941 H1911 0.950 . S
C1941 C1936 1.363 . S
C1941 C1940 1.415 . S
H1942 C1939 0.999 . S
H1943 C1924 0.913 . S
H1944 C1962 0.951 . S
H1945 C1964 0.951 . S
H1946 C1966 0.950 . S
H1947 C1967 0.950 . S
H1948 C1969 0.950 . S
H1949 C1972 0.950 . S
H1950 C1973 0.950 . S
H1951 C1975 0.950 . S
H1952 C1976 0.950 . S
H1953 C1977 0.951 . S
H1954 C1979 0.951 . S
H1955 C1981 0.950 . S
H1956 C1982 0.950 . S
H1957 C1984 0.950 . S
H1958 C1987 0.950 . S
H1959 C1988 0.950 . S
H1960 C1990 0.950 . S
H1961 C1991 0.950 . S
C1962 H1944 0.951 . S
C1962 C1963 1.366 . S
C1962 C1964 1.388 . S
C1963 C1962 1.366 . S
C1963 C1967 1.385 . S
C1964 H1945 0.951 . S
C1964 C1962 1.388 . S
C1964 C1965 1.366 . S
C1965 C1964 1.366 . S
C1965 C1966 1.414 . S
C1965 C1968 1.499 . S
C1966 H1946 0.950 . S
C1966 C1965 1.414 . S
C1966 C1967 1.374 . S
C1967 H1947 0.950 . S
C1967 C1963 1.385 . S
C1967 C1966 1.374 . S
C1968 C1965 1.499 . S
C1968 C1969 1.373 . S
C1968 C1970 1.389 . S
C1969 H1948 0.950 . S
C1969 C1968 1.373 . S
C1969 C1985 1.377 . S
C1970 C1968 1.389 . S
C1970 C1971 1.524 . S
C1970 C1984 1.377 . S
C1971 C1970 1.524 . S
C1971 C1972 1.397 . S
C1971 C1976 1.363 . S
C1972 H1949 0.950 . S
C1972 C1971 1.397 . S
C1972 C1973 1.334 . S
C1973 H1950 0.950 . S
C1973 C1972 1.334 . S
C1973 C1974 1.287 . S
C1974 C1973 1.287 . S
C1974 C1975 1.524 . S
C1974 H1993 0.913 . S
C1975 H1951 0.950 . S
C1975 C1974 1.524 . S
C1975 C1976 1.415 . S
C1976 H1952 0.950 . S
C1976 C1971 1.363 . S
C1976 C1975 1.415 . S
C1977 H1953 0.951 . S
C1977 C1978 1.366 . S
C1977 C1979 1.388 . S
C1978 C1977 1.366 . S
C1978 C1982 1.385 . S
C1979 H1954 0.951 . S
C1979 C1977 1.388 . S
C1979 C1980 1.366 . S
C1980 C1979 1.366 . S
C1980 C1981 1.414 . S
C1980 C1983 1.499 . S
C1981 H1955 0.950 . S
C1981 C1980 1.414 . S
C1981 C1982 1.374 . S
C1982 H1956 0.950 . S
C1982 C1978 1.385 . S
C1982 C1981 1.374 . S
C1983 C1980 1.499 . S
C1983 C1984 1.373 . S
C1983 C1985 1.389 . S
C1984 H1957 0.950 . S
C1984 C1970 1.377 . S
C1984 C1983 1.373 . S
C1985 C1969 1.377 . S
C1985 C1983 1.389 . S
C1985 C1986 1.524 . S
C1986 C1985 1.524 . S
C1986 C1987 1.397 . S
C1986 C1991 1.363 . S
C1987 H1958 0.950 . S
C1987 C1986 1.397 . S
C1987 C1988 1.334 . S
C1988 H1959 0.950 . S
C1988 C1987 1.334 . S
C1988 C1989 1.287 . S
C1989 C1988 1.287 . S
C1989 C1990 1.524 . S
C1989 H1992 0.999 . S
C1990 H1960 0.950 . S
C1990 C1989 1.524 . S
C1990 C1991 1.415 . S
C1991 H1961 0.950 . S
C1991 C1986 1.363 . S
C1991 C1990 1.415 . S
H1992 C1989 0.999 . S
H1993 C1974 0.913 . S
H1994 C2012 0.951 . S
H1995 C2014 0.951 . S
H1996 C2016 0.950 . S
H1997 C2017 0.950 . S
H1998 C2019 0.950 . S
H1999 C2022 0.950 . S
H2000 C2023 0.950 . S
H2001 C2025 0.950 . S
H2002 C2026 0.950 . S
H2003 C2027 0.951 . S
H2004 C2029 0.951 . S
H2005 C2031 0.950 . S
H2006 C2032 0.950 . S
H2007 C2034 0.950 . S
H2008 C2037 0.950 . S
H2009 C2038 0.950 . S
H2010 C2040 0.950 . S
H2011 C2041 0.950 . S
C2012 H1994 0.951 . S
C2012 C2013 1.366 . S
C2012 C2014 1.388 . S
C2013 C2012 1.366 . S
C2013 C2017 1.385 . S
C2014 H1995 0.951 . S
C2014 C2012 1.388 . S
C2014 C2015 1.366 . S
C2015 C2014 1.366 . S
C2015 C2016 1.414 . S
C2015 C2018 1.499 . S
C2016 H1996 0.950 . S
C2016 C2015 1.414 . S
C2016 C2017 1.374 . S
C2017 H1997 0.950 . S
C2017 C2013 1.385 . S
C2017 C2016 1.374 . S
C2018 C2015 1.499 . S
C2018 C2019 1.373 . S
C2018 C2020 1.389 . S
C2019 H1998 0.950 . S
C2019 C2018 1.373 . S
C2019 C2035 1.377 . S
C2020 C2018 1.389 . S
C2020 C2021 1.524 . S
C2020 C2034 1.377 . S
C2021 C2020 1.524 . S
C2021 C2022 1.397 . S
C2021 C2026 1.363 . S
C2022 H1999 0.950 . S
C2022 C2021 1.397 . S
C2022 C2023 1.334 . S
C2023 H2000 0.950 . S
C2023 C2022 1.334 . S
C2023 C2024 1.287 . S
C2024 C2023 1.287 . S
C2024 C2025 1.524 . S
C2024 H2043 0.913 . S
C2025 H2001 0.950 . S
C2025 C2024 1.524 . S
C2025 C2026 1.415 . S
C2026 H2002 0.950 . S
C2026 C2021 1.363 . S
C2026 C2025 1.415 . S
C2027 H2003 0.951 . S
C2027 C2028 1.366 . S
C2027 C2029 1.388 . S
C2028 C2027 1.366 . S
C2028 C2032 1.385 . S
C2029 H2004 0.951 . S
C2029 C2027 1.388 . S
C2029 C2030 1.366 . S
C2030 C2029 1.366 . S
C2030 C2031 1.414 . S
C2030 C2033 1.499 . S
C2031 H2005 0.950 . S
C2031 C2030 1.414 . S
C2031 C2032 1.374 . S
C2032 H2006 0.950 . S
C2032 C2028 1.385 . S
C2032 C2031 1.374 . S
C2033 C2030 1.499 . S
C2033 C2034 1.373 . S
C2033 C2035 1.389 . S
C2034 H2007 0.950 . S
C2034 C2020 1.377 . S
C2034 C2033 1.373 . S
C2035 C2019 1.377 . S
C2035 C2033 1.389 . S
C2035 C2036 1.524 . S
C2036 C2035 1.524 . S
C2036 C2037 1.397 . S
C2036 C2041 1.363 . S
C2037 H2008 0.950 . S
C2037 C2036 1.397 . S
C2037 C2038 1.334 . S
C2038 H2009 0.950 . S
C2038 C2037 1.334 . S
C2038 C2039 1.287 . S
C2039 C2038 1.287 . S
C2039 C2040 1.524 . S
C2039 H2042 0.999 . S
C2040 H2010 0.950 . S
C2040 C2039 1.524 . S
C2040 C2041 1.415 . S
C2041 H2011 0.950 . S
C2041 C2036 1.363 . S
C2041 C2040 1.415 . S
H2042 C2039 0.999 . S
H2043 C2024 0.913 . S
H2044 C2062 0.951 . S
H2045 C2064 0.951 . S
H2046 C2066 0.950 . S
H2047 C2067 0.950 . S
H2048 C2069 0.950 . S
H2049 C2072 0.950 . S
H2050 C2073 0.950 . S
H2051 C2075 0.950 . S
H2052 C2076 0.950 . S
H2053 C2077 0.951 . S
H2054 C2079 0.951 . S
H2055 C2081 0.950 . S
H2056 C2082 0.950 . S
H2057 C2084 0.950 . S
H2058 C2087 0.950 . S
H2059 C2088 0.950 . S
H2060 C2090 0.950 . S
H2061 C2091 0.950 . S
C2062 H2044 0.951 . S
C2062 C2063 1.366 . S
C2062 C2064 1.388 . S
C2063 C2062 1.366 . S
C2063 C2067 1.385 . S
C2064 H2045 0.951 . S
C2064 C2062 1.388 . S
C2064 C2065 1.366 . S
C2065 C2064 1.366 . S
C2065 C2066 1.414 . S
C2065 C2068 1.499 . S
C2066 H2046 0.950 . S
C2066 C2065 1.414 . S
C2066 C2067 1.374 . S
C2067 H2047 0.950 . S
C2067 C2063 1.385 . S
C2067 C2066 1.374 . S
C2068 C2065 1.499 . S
C2068 C2069 1.373 . S
C2068 C2070 1.389 . S
C2069 H2048 0.950 . S
C2069 C2068 1.373 . S
C2069 C2085 1.377 . S
C2070 C2068 1.389 . S
C2070 C2071 1.524 . S
C2070 C2084 1.377 . S
C2071 C2070 1.524 . S
C2071 C2072 1.397 . S
C2071 C2076 1.363 . S
C2072 H2049 0.950 . S
C2072 C2071 1.397 . S
C2072 C2073 1.334 . S
C2073 H2050 0.950 . S
C2073 C2072 1.334 . S
C2073 C2074 1.287 . S
C2074 C2073 1.287 . S
C2074 C2075 1.524 . S
C2074 H2093 0.913 . S
C2075 H2051 0.950 . S
C2075 C2074 1.524 . S
C2075 C2076 1.415 . S
C2076 H2052 0.950 . S
C2076 C2071 1.363 . S
C2076 C2075 1.415 . S
C2077 H2053 0.951 . S
C2077 C2078 1.366 . S
C2077 C2079 1.388 . S
C2078 C2077 1.366 . S
C2078 C2082 1.385 . S
C2079 H2054 0.951 . S
C2079 C2077 1.388 . S
C2079 C2080 1.366 . S
C2080 C2079 1.366 . S
C2080 C2081 1.414 . S
C2080 C2083 1.499 . S
C2081 H2055 0.950 . S
C2081 C2080 1.414 . S
C2081 C2082 1.374 . S
C2082 H2056 0.950 . S
C2082 C2078 1.385 . S
C2082 C2081 1.374 . S
C2083 C2080 1.499 . S
C2083 C2084 1.373 . S
C2083 C2085 1.389 . S
C2084 H2057 0.950 . S
C2084 C2070 1.377 . S
C2084 C2083 1.373 . S
C2085 C2069 1.377 . S
C2085 C2083 1.389 . S
C2085 C2086 1.524 . S
C2086 C2085 1.524 . S
C2086 C2087 1.397 . S
C2086 C2091 1.363 . S
C2087 H2058 0.950 . S
C2087 C2086 1.397 . S
C2087 C2088 1.334 . S
C2088 H2059 0.950 . S
C2088 C2087 1.334 . S
C2088 C2089 1.287 . S
C2089 C2088 1.287 . S
C2089 C2090 1.524 . S
C2089 H2092 0.999 . S
C2090 H2060 0.950 . S
C2090 C2089 1.524 . S
C2090 C2091 1.415 . S
C2091 H2061 0.950 . S
C2091 C2086 1.363 . S
C2091 C2090 1.415 . S
H2092 C2089 0.999 . S
H2093 C2074 0.913 . S
H2094 C2112 0.951 . S
H2095 C2114 0.951 . S
H2096 C2116 0.950 . S
H2097 C2117 0.950 . S
H2098 C2119 0.950 . S
H2099 C2122 0.950 . S
H2100 C2123 0.950 . S
H2101 C2125 0.950 . S
H2102 C2126 0.950 . S
H2103 C2127 0.951 . S
H2104 C2129 0.951 . S
H2105 C2131 0.950 . S
H2106 C2132 0.950 . S
H2107 C2134 0.950 . S
H2108 C2137 0.950 . S
H2109 C2138 0.950 . S
H2110 C2140 0.950 . S
H2111 C2141 0.950 . S
C2112 H2094 0.951 . S
C2112 C2113 1.366 . S
C2112 C2114 1.388 . S
C2113 C2112 1.366 . S
C2113 C2117 1.385 . S
C2114 H2095 0.951 . S
C2114 C2112 1.388 . S
C2114 C2115 1.366 . S
C2115 C2114 1.366 . S
C2115 C2116 1.414 . S
C2115 C2118 1.499 . S
C2116 H2096 0.950 . S
C2116 C2115 1.414 . S
C2116 C2117 1.374 . S
C2117 H2097 0.950 . S
C2117 C2113 1.385 . S
C2117 C2116 1.374 . S
C2118 C2115 1.499 . S
C2118 C2119 1.373 . S
C2118 C2120 1.389 . S
C2119 H2098 0.950 . S
C2119 C2118 1.373 . S
C2119 C2135 1.377 . S
C2120 C2118 1.389 . S
C2120 C2121 1.524 . S
C2120 C2134 1.377 . S
C2121 C2120 1.524 . S
C2121 C2122 1.397 . S
C2121 C2126 1.363 . S
C2122 H2099 0.950 . S
C2122 C2121 1.397 . S
C2122 C2123 1.334 . S
C2123 H2100 0.950 . S
C2123 C2122 1.334 . S
C2123 C2124 1.287 . S
C2124 C2123 1.287 . S
C2124 C2125 1.524 . S
C2124 H2143 0.913 . S
C2125 H2101 0.950 . S
C2125 C2124 1.524 . S
C2125 C2126 1.415 . S
C2126 H2102 0.950 . S
C2126 C2121 1.363 . S
C2126 C2125 1.415 . S
C2127 H2103 0.951 . S
C2127 C2128 1.366 . S
C2127 C2129 1.388 . S
C2128 C2127 1.366 . S
C2128 C2132 1.385 . S
C2129 H2104 0.951 . S
C2129 C2127 1.388 . S
C2129 C2130 1.366 . S
C2130 C2129 1.366 . S
C2130 C2131 1.414 . S
C2130 C2133 1.499 . S
C2131 H2105 0.950 . S
C2131 C2130 1.414 . S
C2131 C2132 1.374 . S
C2132 H2106 0.950 . S
C2132 C2128 1.385 . S
C2132 C2131 1.374 . S
C2133 C2130 1.499 . S
C2133 C2134 1.373 . S
C2133 C2135 1.389 . S
C2134 H2107 0.950 . S
C2134 C2120 1.377 . S
C2134 C2133 1.373 . S
C2135 C2119 1.377 . S
C2135 C2133 1.389 . S
C2135 C2136 1.524 . S
C2136 C2135 1.524 . S
C2136 C2137 1.397 . S
C2136 C2141 1.363 . S
C2137 H2108 0.950 . S
C2137 C2136 1.397 . S
C2137 C2138 1.334 . S
C2138 H2109 0.950 . S
C2138 C2137 1.334 . S
C2138 C2139 1.287 . S
C2139 C2138 1.287 . S
C2139 C2140 1.524 . S
C2139 H2142 0.999 . S
C2140 H2110 0.950 . S
C2140 C2139 1.524 . S
C2140 C2141 1.415 . S
C2141 H2111 0.950 . S
C2141 C2136 1.363 . S
C2141 C2140 1.415 . S
H2142 C2139 0.999 . S
H2143 C2124 0.913 . S
H2144 C2162 0.951 . S
H2145 C2164 0.951 . S
H2146 C2166 0.950 . S
H2147 C2167 0.950 . S
H2148 C2169 0.950 . S
H2149 C2172 0.950 . S
H2150 C2173 0.950 . S
H2151 C2175 0.950 . S
H2152 C2176 0.950 . S
H2153 C2177 0.951 . S
H2154 C2179 0.951 . S
H2155 C2181 0.950 . S
H2156 C2182 0.950 . S
H2157 C2184 0.950 . S
H2158 C2187 0.950 . S
H2159 C2188 0.950 . S
H2160 C2190 0.950 . S
H2161 C2191 0.950 . S
C2162 H2144 0.951 . S
C2162 C2163 1.366 . S
C2162 C2164 1.388 . S
C2163 C2162 1.366 . S
C2163 C2167 1.385 . S
C2164 H2145 0.951 . S
C2164 C2162 1.388 . S
C2164 C2165 1.366 . S
C2165 C2164 1.366 . S
C2165 C2166 1.414 . S
C2165 C2168 1.499 . S
C2166 H2146 0.950 . S
C2166 C2165 1.414 . S
C2166 C2167 1.374 . S
C2167 H2147 0.950 . S
C2167 C2163 1.385 . S
C2167 C2166 1.374 . S
C2168 C2165 1.499 . S
C2168 C2169 1.373 . S
C2168 C2170 1.389 . S
C2169 H2148 0.950 . S
C2169 C2168 1.373 . S
C2169 C2185 1.377 1_545 S
C2170 C2168 1.389 . S
C2170 C2171 1.525 . S
C2170 C2184 1.377 1_545 S
C2171 C2170 1.525 . S
C2171 C2172 1.400 . S
C2171 C2176 1.357 1_545 S
C2172 H2149 0.950 . S
C2172 C2171 1.400 . S
C2172 C2173 1.334 . S
C2173 H2150 0.950 . S
C2173 C2172 1.334 . S
C2173 C2174 1.287 1_545 S
C2174 C2173 1.287 1_565 S
C2174 C2175 1.524 . S
C2174 H2193 0.913 . S
C2175 H2151 0.950 . S
C2175 C2174 1.524 . S
C2175 C2176 1.415 . S
C2176 H2152 0.950 . S
C2176 C2171 1.357 1_565 S
C2176 C2175 1.415 . S
C2177 H2153 0.951 . S
C2177 C2178 1.366 . S
C2177 C2179 1.388 . S
C2178 C2177 1.366 . S
C2178 C2182 1.385 . S
C2179 H2154 0.951 . S
C2179 C2177 1.388 . S
C2179 C2180 1.366 . S
C2180 C2179 1.366 . S
C2180 C2181 1.414 . S
C2180 C2183 1.499 . S
C2181 H2155 0.950 . S
C2181 C2180 1.414 . S
C2181 C2182 1.374 . S
C2182 H2156 0.950 . S
C2182 C2178 1.385 . S
C2182 C2181 1.374 . S
C2183 C2180 1.499 . S
C2183 C2184 1.373 . S
C2183 C2185 1.389 . S
C2184 H2157 0.950 . S
C2184 C2170 1.377 1_565 S
C2184 C2183 1.373 . S
C2185 C2169 1.377 1_565 S
C2185 C2183 1.389 . S
C2185 C2186 1.525 . S
C2186 C2185 1.525 . S
C2186 C2187 1.400 . S
C2186 C2191 1.357 1_565 S
C2187 H2158 0.950 . S
C2187 C2186 1.400 . S
C2187 C2188 1.334 . S
C2188 H2159 0.950 . S
C2188 C2187 1.334 . S
C2188 C2189 1.287 1_565 S
C2189 C2188 1.287 1_545 S
C2189 C2190 1.524 . S
C2189 H2192 0.999 . S
C2190 H2160 0.950 . S
C2190 C2189 1.524 . S
C2190 C2191 1.415 . S
C2191 H2161 0.950 . S
C2191 C2186 1.357 1_545 S
C2191 C2190 1.415 . S
H2192 C2189 0.999 . S
H2193 C2174 0.913 . S
H2194 C2212 0.951 . S
H2195 C2214 0.951 . S
H2196 C2216 0.950 . S
H2197 C2217 0.950 . S
H2198 C2219 0.950 . S
H2199 C2222 0.950 . S
H2200 C2223 0.950 . S
H2201 C2225 0.950 . S
H2202 C2226 0.950 . S
H2203 C2227 0.951 . S
H2204 C2229 0.951 . S
H2205 C2231 0.950 . S
H2206 C2232 0.950 . S
H2207 C2234 0.950 . S
H2208 C2237 0.950 . S
H2209 C2238 0.950 . S
H2210 C2240 0.950 . S
H2211 C2241 0.950 . S
C2212 H2194 0.951 . S
C2212 C2213 1.366 . S
C2212 C2214 1.388 . S
C2213 C2212 1.366 . S
C2213 C2217 1.385 . S
C2214 H2195 0.951 . S
C2214 C2212 1.388 . S
C2214 C2215 1.366 . S
C2215 C2214 1.366 . S
C2215 C2216 1.414 . S
C2215 C2218 1.499 . S
C2216 H2196 0.950 . S
C2216 C2215 1.414 . S
C2216 C2217 1.374 . S
C2217 H2197 0.950 . S
C2217 C2213 1.385 . S
C2217 C2216 1.374 . S
C2218 C2215 1.499 . S
C2218 C2219 1.373 . S
C2218 C2220 1.389 . S
C2219 H2198 0.950 . S
C2219 C2218 1.373 . S
C2219 C2235 1.377 1_655 S
C2220 C2218 1.389 . S
C2220 C2221 1.524 . S
C2220 C2234 1.377 1_655 S
C2221 C2220 1.524 . S
C2221 C2222 1.397 . S
C2221 C2226 1.363 . S
C2222 H2199 0.950 . S
C2222 C2221 1.397 . S
C2222 C2223 1.334 . S
C2223 H2200 0.950 . S
C2223 C2222 1.334 . S
C2223 C2224 1.287 . S
C2224 C2223 1.287 . S
C2224 C2225 1.524 . S
C2224 H2243 0.913 . S
C2225 H2201 0.950 . S
C2225 C2224 1.524 . S
C2225 C2226 1.415 . S
C2226 H2202 0.950 . S
C2226 C2221 1.363 . S
C2226 C2225 1.415 . S
C2227 H2203 0.951 . S
C2227 C2228 1.366 . S
C2227 C2229 1.388 . S
C2228 C2227 1.366 . S
C2228 C2232 1.385 . S
C2229 H2204 0.951 . S
C2229 C2227 1.388 . S
C2229 C2230 1.366 . S
C2230 C2229 1.366 . S
C2230 C2231 1.414 . S
C2230 C2233 1.499 . S
C2231 H2205 0.950 . S
C2231 C2230 1.414 . S
C2231 C2232 1.374 . S
C2232 H2206 0.950 . S
C2232 C2228 1.385 . S
C2232 C2231 1.374 . S
C2233 C2230 1.499 . S
C2233 C2234 1.373 . S
C2233 C2235 1.389 . S
C2234 H2207 0.950 . S
C2234 C2220 1.377 1_455 S
C2234 C2233 1.373 . S
C2235 C2219 1.377 1_455 S
C2235 C2233 1.389 . S
C2235 C2236 1.524 . S
C2236 C2235 1.524 . S
C2236 C2237 1.397 . S
C2236 C2241 1.363 . S
C2237 H2208 0.950 . S
C2237 C2236 1.397 . S
C2237 C2238 1.334 . S
C2238 H2209 0.950 . S
C2238 C2237 1.334 . S
C2238 C2239 1.287 . S
C2239 C2238 1.287 . S
C2239 C2240 1.524 . S
C2239 H2242 0.999 . S
C2240 H2210 0.950 . S
C2240 C2239 1.524 . S
C2240 C2241 1.415 . S
C2241 H2211 0.950 . S
C2241 C2236 1.363 . S
C2241 C2240 1.415 . S
H2242 C2239 0.999 . S
H2243 C2224 0.913 . S
H2244 C2262 0.951 . S
H2245 C2264 0.951 . S
H2246 C2266 0.950 . S
H2247 C2267 0.950 . S
H2248 C2269 0.952 . S
H2249 C2272 0.950 . S
H2250 C2273 0.950 . S
H2251 C2275 0.950 . S
H2252 C2276 0.950 . S
H2253 C2277 0.951 . S
H2254 C2279 0.951 . S
H2255 C2281 0.950 . S
H2256 C2282 0.950 . S
H2257 C2284 0.952 . S
H2258 C2287 0.950 . S
H2259 C2288 0.950 . S
H2260 C2290 0.950 . S
H2261 C2291 0.950 . S
C2262 H2244 0.951 . S
C2262 C2263 1.366 . S
C2262 C2264 1.388 . S
C2263 C2262 1.366 . S
C2263 C2267 1.385 . S
C2264 H2245 0.951 . S
C2264 C2262 1.388 . S
C2264 C2265 1.366 . S
C2265 C2264 1.366 . S
C2265 C2266 1.414 . S
C2265 C2268 1.499 . S
C2266 H2246 0.950 . S
C2266 C2265 1.414 . S
C2266 C2267 1.374 . S
C2267 H2247 0.950 . S
C2267 C2263 1.385 . S
C2267 C2266 1.374 . S
C2268 C2265 1.499 . S
C2268 C2269 1.407 . S
C2268 C2270 1.389 . S
C2269 H2248 0.952 . S
C2269 C2268 1.407 . S
C2269 C2285 1.343 1_545 S
C2270 C2268 1.389 . S
C2270 C2271 1.524 . S
C2270 C2284 1.343 1_545 S
C2271 C2270 1.524 . S
C2271 C2272 1.397 . S
C2271 C2276 1.363 . S
C2272 H2249 0.950 . S
C2272 C2271 1.397 . S
C2272 C2273 1.334 . S
C2273 H2250 0.950 . S
C2273 C2272 1.334 . S
C2273 C2274 1.287 . S
C2274 C2273 1.287 . S
C2274 C2275 1.524 . S
C2274 H2293 0.913 . S
C2275 H2251 0.950 . S
C2275 C2274 1.524 . S
C2275 C2276 1.415 . S
C2276 H2252 0.950 . S
C2276 C2271 1.363 . S
C2276 C2275 1.415 . S
C2277 H2253 0.951 . S
C2277 C2278 1.366 . S
C2277 C2279 1.388 . S
C2278 C2277 1.366 . S
C2278 C2282 1.385 . S
C2279 H2254 0.951 . S
C2279 C2277 1.388 . S
C2279 C2280 1.366 . S
C2280 C2279 1.366 . S
C2280 C2281 1.414 . S
C2280 C2283 1.499 . S
C2281 H2255 0.950 . S
C2281 C2280 1.414 . S
C2281 C2282 1.374 . S
C2282 H2256 0.950 . S
C2282 C2278 1.385 . S
C2282 C2281 1.374 . S
C2283 C2280 1.499 . S
C2283 C2284 1.407 . S
C2283 C2285 1.389 . S
C2284 H2257 0.952 . S
C2284 C2270 1.343 1_565 S
C2284 C2283 1.407 . S
C2285 C2269 1.343 1_565 S
C2285 C2283 1.389 . S
C2285 C2286 1.524 . S
C2286 C2285 1.524 . S
C2286 C2287 1.397 . S
C2286 C2291 1.363 . S
C2287 H2258 0.950 . S
C2287 C2286 1.397 . S
C2287 C2288 1.334 . S
C2288 H2259 0.950 . S
C2288 C2287 1.334 . S
C2288 C2289 1.287 . S
C2289 C2288 1.287 . S
C2289 C2290 1.524 . S
C2289 H2292 0.999 . S
C2290 H2260 0.950 . S
C2290 C2289 1.524 . S
C2290 C2291 1.415 . S
C2291 H2261 0.950 . S
C2291 C2286 1.363 . S
C2291 C2290 1.415 . S
H2292 C2289 0.999 . S
H2293 C2274 0.913 . S
H2294 C2312 0.951 . S
H2295 C2314 0.951 . S
H2296 C2316 0.950 . S
H2297 C2317 0.950 . S
H2298 C2319 0.950 . S
H2299 C2322 0.950 . S
H2300 C2323 0.950 . S
H2301 C2325 0.950 . S
H2302 C2326 0.950 . S
H2303 C2327 0.951 . S
H2304 C2329 0.951 . S
H2305 C2331 0.950 . S
H2306 C2332 0.950 . S
H2307 C2334 0.950 . S
H2308 C2337 0.950 . S
H2309 C2338 0.950 . S
H2310 C2340 0.950 . S
H2311 C2341 0.950 . S
C2312 H2294 0.951 . S
C2312 C2313 1.366 . S
C2312 C2314 1.388 . S
C2313 C2312 1.366 . S
C2313 C2317 1.385 . S
C2314 H2295 0.951 . S
C2314 C2312 1.388 . S
C2314 C2315 1.366 . S
C2315 C2314 1.366 . S
C2315 C2316 1.414 . S
C2315 C2318 1.499 . S
C2316 H2296 0.950 . S
C2316 C2315 1.414 . S
C2316 C2317 1.374 . S
C2317 H2297 0.950 . S
C2317 C2313 1.385 . S
C2317 C2316 1.374 . S
C2318 C2315 1.499 . S
C2318 C2319 1.373 . S
C2318 C2320 1.389 . S
C2319 H2298 0.950 . S
C2319 C2318 1.373 . S
C2319 C2335 1.377 1_655 S
C2320 C2318 1.389 . S
C2320 C2321 1.524 . S
C2320 C2334 1.377 1_655 S
C2321 C2320 1.524 . S
C2321 C2322 1.397 . S
C2321 C2326 1.363 . S
C2322 H2299 0.950 . S
C2322 C2321 1.397 . S
C2322 C2323 1.334 . S
C2323 H2300 0.950 . S
C2323 C2322 1.334 . S
C2323 C2324 1.287 . S
C2324 C2323 1.287 . S
C2324 C2325 1.524 . S
C2324 H2343 0.913 . S
C2325 H2301 0.950 . S
C2325 C2324 1.524 . S
C2325 C2326 1.415 . S
C2326 H2302 0.950 . S
C2326 C2321 1.363 . S
C2326 C2325 1.415 . S
C2327 H2303 0.951 . S
C2327 C2328 1.366 . S
C2327 C2329 1.388 . S
C2328 C2327 1.366 . S
C2328 C2332 1.385 . S
C2329 H2304 0.951 . S
C2329 C2327 1.388 . S
C2329 C2330 1.366 . S
C2330 C2329 1.366 . S
C2330 C2331 1.414 . S
C2330 C2333 1.499 . S
C2331 H2305 0.950 . S
C2331 C2330 1.414 . S
C2331 C2332 1.374 . S
C2332 H2306 0.950 . S
C2332 C2328 1.385 . S
C2332 C2331 1.374 . S
C2333 C2330 1.499 . S
C2333 C2334 1.373 . S
C2333 C2335 1.389 . S
C2334 H2307 0.950 . S
C2334 C2320 1.377 1_455 S
C2334 C2333 1.373 . S
C2335 C2319 1.377 1_455 S
C2335 C2333 1.389 . S
C2335 C2336 1.524 . S
C2336 C2335 1.524 . S
C2336 C2337 1.397 . S
C2336 C2341 1.363 . S
C2337 H2308 0.950 . S
C2337 C2336 1.397 . S
C2337 C2338 1.334 . S
C2338 H2309 0.950 . S
C2338 C2337 1.334 . S
C2338 C2339 1.287 . S
C2339 C2338 1.287 . S
C2339 C2340 1.524 . S
C2339 H2342 0.999 . S
C2340 H2310 0.950 . S
C2340 C2339 1.524 . S
C2340 C2341 1.415 . S
C2341 H2311 0.950 . S
C2341 C2336 1.363 . S
C2341 C2340 1.415 . S
H2342 C2339 0.999 . S
H2343 C2324 0.913 . S
H2344 C2362 0.951 . S
H2345 C2364 0.951 . S
H2346 C2366 0.950 . S
H2347 C2367 0.950 . S
H2348 C2369 0.950 . S
H2349 C2372 0.950 . S
H2350 C2373 0.950 . S
H2351 C2375 0.950 . S
H2352 C2376 0.950 . S
H2353 C2377 0.951 . S
H2354 C2379 0.951 . S
H2355 C2381 0.950 . S
H2356 C2382 0.950 . S
H2357 C2384 0.950 . S
H2358 C2387 0.950 . S
H2359 C2388 0.950 . S
H2360 C2390 0.950 . S
H2361 C2391 0.950 . S
C2362 H2344 0.951 . S
C2362 C2363 1.366 . S
C2362 C2364 1.388 . S
C2363 C2362 1.366 . S
C2363 C2367 1.385 . S
C2364 H2345 0.951 . S
C2364 C2362 1.388 . S
C2364 C2365 1.366 . S
C2365 C2364 1.366 . S
C2365 C2366 1.414 . S
C2365 C2368 1.499 . S
C2366 H2346 0.950 . S
C2366 C2365 1.414 . S
C2366 C2367 1.374 . S
C2367 H2347 0.950 . S
C2367 C2363 1.385 . S
C2367 C2366 1.374 . S
C2368 C2365 1.499 . S
C2368 C2369 1.373 . S
C2368 C2370 1.389 . S
C2369 H2348 0.950 . S
C2369 C2368 1.373 . S
C2369 C2385 1.377 1_565 S
C2370 C2368 1.389 . S
C2370 C2371 1.524 . S
C2370 C2384 1.377 1_565 S
C2371 C2370 1.524 . S
C2371 C2372 1.397 . S
C2371 C2376 1.363 . S
C2372 H2349 0.950 . S
C2372 C2371 1.397 . S
C2372 C2373 1.334 . S
C2373 H2350 0.950 . S
C2373 C2372 1.334 . S
C2373 C2374 1.287 . S
C2374 C2373 1.287 . S
C2374 C2375 1.524 . S
C2374 H2393 0.913 . S
C2375 H2351 0.950 . S
C2375 C2374 1.524 . S
C2375 C2376 1.415 . S
C2376 H2352 0.950 . S
C2376 C2371 1.363 . S
C2376 C2375 1.415 . S
C2377 H2353 0.951 . S
C2377 C2378 1.366 . S
C2377 C2379 1.388 . S
C2378 C2377 1.366 . S
C2378 C2382 1.385 . S
C2379 H2354 0.951 . S
C2379 C2377 1.388 . S
C2379 C2380 1.366 . S
C2380 C2379 1.366 . S
C2380 C2381 1.414 . S
C2380 C2383 1.499 . S
C2381 H2355 0.950 . S
C2381 C2380 1.414 . S
C2381 C2382 1.374 . S
C2382 H2356 0.950 . S
C2382 C2378 1.385 . S
C2382 C2381 1.374 . S
C2383 C2380 1.499 . S
C2383 C2384 1.373 . S
C2383 C2385 1.389 . S
C2384 H2357 0.950 . S
C2384 C2370 1.377 1_545 S
C2384 C2383 1.373 . S
C2385 C2369 1.377 1_545 S
C2385 C2383 1.389 . S
C2385 C2386 1.524 . S
C2386 C2385 1.524 . S
C2386 C2387 1.397 . S
C2386 C2391 1.363 . S
C2387 H2358 0.950 . S
C2387 C2386 1.397 . S
C2387 C2388 1.334 . S
C2388 H2359 0.950 . S
C2388 C2387 1.334 . S
C2388 C2389 1.287 . S
C2389 C2388 1.287 . S
C2389 C2390 1.524 . S
C2389 H2392 0.999 . S
C2390 H2360 0.950 . S
C2390 C2389 1.524 . S
C2390 C2391 1.415 . S
C2391 H2361 0.950 . S
C2391 C2386 1.363 . S
C2391 C2390 1.415 . S
H2392 C2389 0.999 . S
H2393 C2374 0.913 . S
H2394 C2412 0.951 . S
H2395 C2414 0.951 . S
H2396 C2416 0.950 . S
H2397 C2417 0.950 . S
H2398 C2419 0.950 . S
H2399 C2422 0.950 . S
H2400 C2423 0.962 . S
H2401 C2425 0.950 . S
H2402 C2426 0.950 . S
H2403 C2427 0.951 . S
H2404 C2429 0.951 . S
H2405 C2431 0.950 . S
H2406 C2432 0.950 . S
H2407 C2434 0.950 . S
H2408 C2437 0.950 . S
H2409 C2438 0.962 . S
H2410 C2440 0.950 . S
H2411 C2441 0.950 . S
C2412 H2394 0.951 . S
C2412 C2413 1.366 . S
C2412 C2414 1.388 . S
C2413 C2412 1.366 . S
C2413 C2417 1.385 . S
C2414 H2395 0.951 . S
C2414 C2412 1.388 . S
C2414 C2415 1.366 . S
C2415 C2414 1.366 . S
C2415 C2416 1.414 . S
C2415 C2418 1.499 . S
C2416 H2396 0.950 . S
C2416 C2415 1.414 . S
C2416 C2417 1.374 . S
C2417 H2397 0.950 . S
C2417 C2413 1.385 . S
C2417 C2416 1.374 . S
C2418 C2415 1.499 . S
C2418 C2419 1.373 . S
C2418 C2420 1.415 . S
C2419 H2398 0.950 . S
C2419 C2418 1.373 . S
C2419 C2435 1.351 1_455 S
C2420 C2418 1.415 . S
C2420 C2421 1.522 1_455 S
C2420 C2434 1.351 1_455 S
C2421 C2420 1.522 1_655 S
C2421 C2422 1.391 1_655 S
C2421 C2426 1.377 . S
C2422 H2399 0.950 . S
C2422 C2421 1.391 1_455 S
C2422 C2423 1.339 . S
C2423 H2400 0.962 . S
C2423 C2422 1.339 . S
C2423 C2424 1.273 1_455 S
C2424 C2423 1.273 1_655 S
C2424 C2425 1.524 . S
C2424 H2443 0.913 . S
C2425 H2401 0.950 . S
C2425 C2424 1.524 . S
C2425 C2426 1.415 . S
C2426 H2402 0.950 . S
C2426 C2421 1.377 . S
C2426 C2425 1.415 . S
C2427 H2403 0.951 . S
C2427 C2428 1.366 . S
C2427 C2429 1.388 . S
C2428 C2427 1.366 . S
C2428 C2432 1.385 . S
C2429 H2404 0.951 . S
C2429 C2427 1.388 . S
C2429 C2430 1.366 . S
C2430 C2429 1.366 . S
C2430 C2431 1.414 . S
C2430 C2433 1.499 . S
C2431 H2405 0.950 . S
C2431 C2430 1.414 . S
C2431 C2432 1.374 . S
C2432 H2406 0.950 . S
C2432 C2428 1.385 . S
C2432 C2431 1.374 . S
C2433 C2430 1.499 . S
C2433 C2434 1.373 . S
C2433 C2435 1.415 . S
C2434 H2407 0.950 . S
C2434 C2420 1.351 1_655 S
C2434 C2433 1.373 . S
C2435 C2419 1.351 1_655 S
C2435 C2433 1.415 . S
C2435 C2436 1.522 1_655 S
C2436 C2435 1.522 1_455 S
C2436 C2437 1.391 1_455 S
C2436 C2441 1.377 . S
C2437 H2408 0.950 . S
C2437 C2436 1.391 1_655 S
C2437 C2438 1.339 . S
C2438 H2409 0.962 . S
C2438 C2437 1.339 . S
C2438 C2439 1.273 1_655 S
C2439 C2438 1.273 1_455 S
C2439 C2440 1.524 . S
C2439 H2442 0.999 . S
C2440 H2410 0.950 . S
C2440 C2439 1.524 . S
C2440 C2441 1.415 . S
C2441 H2411 0.950 . S
C2441 C2436 1.377 . S
C2441 C2440 1.415 . S
H2442 C2439 0.999 . S
H2443 C2424 0.913 . S
H2444 C2462 0.951 . S
H2445 C2464 0.951 . S
H2446 C2466 0.950 . S
H2447 C2467 0.950 . S
H2448 C2469 0.950 1_545 S
H2449 C2472 0.950 . S
H2450 C2473 0.950 . S
H2451 C2475 0.950 . S
H2452 C2476 0.950 . S
H2453 C2477 0.951 . S
H2454 C2479 0.951 . S
H2455 C2481 0.950 . S
H2456 C2482 0.950 . S
H2457 C2484 0.950 1_565 S
H2458 C2487 0.950 . S
H2459 C2488 0.950 . S
H2460 C2490 0.950 . S
H2461 C2491 0.950 . S
C2462 H2444 0.951 . S
C2462 C2463 1.366 . S
C2462 C2464 1.388 . S
C2463 C2462 1.366 . S
C2463 C2467 1.385 . S
C2464 H2445 0.951 . S
C2464 C2462 1.388 . S
C2464 C2465 1.366 . S
C2465 C2464 1.366 . S
C2465 C2466 1.414 . S
C2465 C2468 1.499 . S
C2466 H2446 0.950 . S
C2466 C2465 1.414 . S
C2466 C2467 1.374 . S
C2467 H2447 0.950 . S
C2467 C2463 1.385 . S
C2467 C2466 1.374 . S
C2468 C2465 1.499 . S
C2468 C2469 1.370 . S
C2468 C2470 1.389 . S
C2469 H2448 0.950 1_565 S
C2469 C2468 1.370 . S
C2469 C2485 1.380 1_565 S
C2470 C2468 1.389 . S
C2470 C2471 1.524 . S
C2470 C2484 1.380 1_565 S
C2471 C2470 1.524 . S
C2471 C2472 1.397 . S
C2471 C2476 1.363 . S
C2472 H2449 0.950 . S
C2472 C2471 1.397 . S
C2472 C2473 1.334 . S
C2473 H2450 0.950 . S
C2473 C2472 1.334 . S
C2473 C2474 1.287 . S
C2474 C2473 1.287 . S
C2474 C2475 1.524 . S
C2474 H2493 0.913 . S
C2475 H2451 0.950 . S
C2475 C2474 1.524 . S
C2475 C2476 1.415 . S
C2476 H2452 0.950 . S
C2476 C2471 1.363 . S
C2476 C2475 1.415 . S
C2477 H2453 0.951 . S
C2477 C2478 1.366 . S
C2477 C2479 1.388 . S
C2478 C2477 1.366 . S
C2478 C2482 1.385 . S
C2479 H2454 0.951 . S
C2479 C2477 1.388 . S
C2479 C2480 1.366 . S
C2480 C2479 1.366 . S
C2480 C2481 1.414 . S
C2480 C2483 1.499 . S
C2481 H2455 0.950 . S
C2481 C2480 1.414 . S
C2481 C2482 1.374 . S
C2482 H2456 0.950 . S
C2482 C2478 1.385 . S
C2482 C2481 1.374 . S
C2483 C2480 1.499 . S
C2483 C2484 1.370 . S
C2483 C2485 1.389 . S
C2484 H2457 0.950 1_545 S
C2484 C2470 1.380 1_545 S
C2484 C2483 1.370 . S
C2485 C2469 1.380 1_545 S
C2485 C2483 1.389 . S
C2485 C2486 1.524 . S
C2486 C2485 1.524 . S
C2486 C2487 1.397 . S
C2486 C2491 1.363 . S
C2487 H2458 0.950 . S
C2487 C2486 1.397 . S
C2487 C2488 1.334 . S
C2488 H2459 0.950 . S
C2488 C2487 1.334 . S
C2488 C2489 1.287 . S
C2489 C2488 1.287 . S
C2489 C2490 1.524 . S
C2489 H2492 0.999 . S
C2490 H2460 0.950 . S
C2490 C2489 1.524 . S
C2490 C2491 1.415 . S
C2491 H2461 0.950 . S
C2491 C2486 1.363 . S
C2491 C2490 1.415 . S
H2492 C2489 0.999 . S
H2493 C2474 0.913 . S
H2494 C2512 0.951 . S
H2495 C2514 0.951 . S
H2496 C2516 0.950 . S
H2497 C2517 0.950 . S
H2498 C2519 0.950 . S
H2499 C2522 0.950 . S
H2500 C2523 0.950 . S
H2501 C2525 0.950 . S
H2502 C2526 0.950 . S
H2503 C2527 0.951 . S
H2504 C2529 0.951 . S
H2505 C2531 0.950 . S
H2506 C2532 0.950 . S
H2507 C2534 0.950 . S
H2508 C2537 0.950 . S
H2509 C2538 0.950 . S
H2510 C2540 0.950 . S
H2511 C2541 0.950 . S
C2512 H2494 0.951 . S
C2512 C2513 1.366 . S
C2512 C2514 1.388 . S
C2513 C2512 1.366 . S
C2513 C2517 1.385 . S
C2514 H2495 0.951 . S
C2514 C2512 1.388 . S
C2514 C2515 1.366 . S
C2515 C2514 1.366 . S
C2515 C2516 1.414 . S
C2515 C2518 1.499 . S
C2516 H2496 0.950 . S
C2516 C2515 1.414 . S
C2516 C2517 1.374 . S
C2517 H2497 0.950 . S
C2517 C2513 1.385 . S
C2517 C2516 1.374 . S
C2518 C2515 1.499 . S
C2518 C2519 1.373 . S
C2518 C2520 1.389 . S
C2519 H2498 0.950 . S
C2519 C2518 1.373 . S
C2519 C2535 1.377 1_655 S
C2520 C2518 1.389 . S
C2520 C2521 1.524 . S
C2520 C2534 1.377 1_655 S
C2521 C2520 1.524 . S
C2521 C2522 1.397 . S
C2521 C2526 1.363 . S
C2522 H2499 0.950 . S
C2522 C2521 1.397 . S
C2522 C2523 1.334 . S
C2523 H2500 0.950 . S
C2523 C2522 1.334 . S
C2523 C2524 1.287 . S
C2524 C2523 1.287 . S
C2524 C2525 1.524 . S
C2524 H2543 0.913 . S
C2525 H2501 0.950 . S
C2525 C2524 1.524 . S
C2525 C2526 1.415 . S
C2526 H2502 0.950 . S
C2526 C2521 1.363 . S
C2526 C2525 1.415 . S
C2527 H2503 0.951 . S
C2527 C2528 1.366 . S
C2527 C2529 1.388 . S
C2528 C2527 1.366 . S
C2528 C2532 1.385 . S
C2529 H2504 0.951 . S
C2529 C2527 1.388 . S
C2529 C2530 1.366 . S
C2530 C2529 1.366 . S
C2530 C2531 1.414 . S
C2530 C2533 1.499 . S
C2531 H2505 0.950 . S
C2531 C2530 1.414 . S
C2531 C2532 1.374 . S
C2532 H2506 0.950 . S
C2532 C2528 1.385 . S
C2532 C2531 1.374 . S
C2533 C2530 1.499 . S
C2533 C2534 1.373 . S
C2533 C2535 1.389 . S
C2534 H2507 0.950 . S
C2534 C2520 1.377 1_455 S
C2534 C2533 1.373 . S
C2535 C2519 1.377 1_455 S
C2535 C2533 1.389 . S
C2535 C2536 1.524 . S
C2536 C2535 1.524 . S
C2536 C2537 1.397 . S
C2536 C2541 1.363 . S
C2537 H2508 0.950 . S
C2537 C2536 1.397 . S
C2537 C2538 1.334 . S
C2538 H2509 0.950 . S
C2538 C2537 1.334 . S
C2538 C2539 1.287 . S
C2539 C2538 1.287 . S
C2539 C2540 1.524 . S
C2539 H2542 0.999 . S
C2540 H2510 0.950 . S
C2540 C2539 1.524 . S
C2540 C2541 1.415 . S
C2541 H2511 0.950 . S
C2541 C2536 1.363 . S
C2541 C2540 1.415 . S
H2542 C2539 0.999 . S
H2543 C2524 0.913 . S
C563 C73 0.695 . S
C578 C5 0.693 . S
C613 C39 0.694 . S
C628 C107 0.694 . S
C663 C209 0.694 . S
C678 C141 0.695 . S
C713 C243 0.694 . S
C728 C175 0.695 . S
C763 C277 0.695 . S
C778 C345 0.693 . S
C813 C311 0.694 . S
C828 C379 0.694 . S
C863 C413 0.695 . S
C878 C481 0.693 . S
C913 C515 0.695 . S
C928 C447 0.694 . S
C963 C9 1.780 . S
C978 C179 1.779 . S
C1013 C213 1.779 . S
C1028 C43 1.780 . S
C1063 C247 1.779 . S
C1078 C77 1.780 . S
C1113 C145 1.780 . S
C1128 C111 1.779 . S
C1163 C451 1.779 . S
C1178 C281 1.780 . S
C1213 C485 1.779 . S
C1228 C315 1.780 . S
C1263 C519 1.780 . S
C1278 C349 1.780 . S
C1313 C417 1.779 . S
C1328 C383 1.779 . S
C1363 C20 1.353 . S
C1378 C360 1.354 . S
C1413 C394 1.353 . S
C1428 C54 1.353 . S
C1463 C292 1.354 . S
C1478 C88 1.353 . S
C1513 C326 1.353 . S
C1528 C122 1.354 . S
C1563 C156 1.353 . S
C1578 C496 1.353 . S
C1613 C190 1.354 . S
C1628 C530 1.353 . S
C1663 C224 1.353 . S
C1678 C428 1.353 . S
C1713 C258 1.353 . S
C1728 C462 1.354 . S
C1763 C138 0.672 . S
C1778 C2 0.670 . S
C1813 C36 0.671 . S
C1828 C172 0.673 . S
C1863 C206 0.670 . S
C1878 C70 0.672 . S
C1913 C240 0.670 . S
C1928 C104 0.672 . S
C1963 C305 0.985 . S
C1978 C441 0.986 . S
C2013 C475 0.985 . S
C2028 C339 0.986 . S
C2063 C373 0.986 . S
C2078 C509 0.985 . S
C2113 C543 0.985 . S
C2128 C407 0.986 . S
C2163 C376 0.673 . S
C2178 C444 0.672 . S
C2213 C274 0.672 . S
C2228 C478 0.670 . S
C2263 C512 0.672 . S
C2278 C308 0.670 . S
C2313 C410 0.673 . S
C2328 C342 0.671 . S
C2363 C135 0.986 . S
C2378 C203 0.986 . S
C2413 C33 0.985 . S
C2428 C237 0.986 . S
C2463 C271 0.985 . S
C2478 C67 0.986 . S
C2513 C101 0.986 . S
C2528 C169 0.985 . S
