# Generated by pormake.
# Topology wkd, (5)-cn, num edge types: 1
# Building blocks:
#     Node 0, Type 0, BuildingBlock: XOMCOT_clean_sbu_1, # of connection points: 5
#     Node 1, Type 0, BuildingBlock: XOMCOT_clean_sbu_1, # of connection points: 5
#     Node 2, Type 0, BuildingBlock: XOMCOT_clean_sbu_1, # of connection points: 5
#     Node 3, Type 0, BuildingBlock: XOMCOT_clean_sbu_1, # of connection points: 5
#     Node 4, Type 0, BuildingBlock: XOMCOT_clean_sbu_1, # of connection points: 5
#     Node 5, Type 0, BuildingBlock: XOMCOT_clean_sbu_1, # of connection points: 5
#     Node 6, Type 0, BuildingBlock: XOMCOT_clean_sbu_1, # of connection points: 5
#     Node 7, Type 0, BuildingBlock: XOMCOT_clean_sbu_1, # of connection points: 5
#     Node 8, Type 0, BuildingBlock: XOMCOT_clean_sbu_1, # of connection points: 5
#     Node 9, Type 0, BuildingBlock: XOMCOT_clean_sbu_1, # of connection points: 5
#     Node 10, Type 0, BuildingBlock: XOMCOT_clean_sbu_1, # of connection points: 5
#     Node 11, Type 0, BuildingBlock: XOMCOT_clean_sbu_1, # of connection points: 5
#     Edge 12, Type (0, 0), BuildingBlock: ZUJKAS_clean_linker_0, # of connection points: 2
#     Edge 13, Type (0, 0), BuildingBlock: ZUJKAS_clean_linker_0, # of connection points: 2
#     Edge 14, Type (0, 0), BuildingBlock: ZUJKAS_clean_linker_0, # of connection points: 2
#     Edge 15, Type (0, 0), BuildingBlock: ZUJKAS_clean_linker_0, # of connection points: 2
#     Edge 16, Type (0, 0), BuildingBlock: ZUJKAS_clean_linker_0, # of connection points: 2
#     Edge 17, Type (0, 0), BuildingBlock: ZUJKAS_clean_linker_0, # of connection points: 2
#     Edge 18, Type (0, 0), BuildingBlock: ZUJKAS_clean_linker_0, # of connection points: 2
#     Edge 19, Type (0, 0), BuildingBlock: ZUJKAS_clean_linker_0, # of connection points: 2
#     Edge 20, Type (0, 0), BuildingBlock: ZUJKAS_clean_linker_0, # of connection points: 2
#     Edge 21, Type (0, 0), BuildingBlock: ZUJKAS_clean_linker_0, # of connection points: 2
#     Edge 22, Type (0, 0), BuildingBlock: ZUJKAS_clean_linker_0, # of connection points: 2
#     Edge 23, Type (0, 0), BuildingBlock: ZUJKAS_clean_linker_0, # of connection points: 2
#     Edge 24, Type (0, 0), BuildingBlock: ZUJKAS_clean_linker_0, # of connection points: 2
#     Edge 25, Type (0, 0), BuildingBlock: ZUJKAS_clean_linker_0, # of connection points: 2
#     Edge 26, Type (0, 0), BuildingBlock: ZUJKAS_clean_linker_0, # of connection points: 2
#     Edge 27, Type (0, 0), BuildingBlock: ZUJKAS_clean_linker_0, # of connection points: 2
#     Edge 28, Type (0, 0), BuildingBlock: ZUJKAS_clean_linker_0, # of connection points: 2
#     Edge 29, Type (0, 0), BuildingBlock: ZUJKAS_clean_linker_0, # of connection points: 2
#     Edge 30, Type (0, 0), BuildingBlock: ZUJKAS_clean_linker_0, # of connection points: 2
#     Edge 31, Type (0, 0), BuildingBlock: ZUJKAS_clean_linker_0, # of connection points: 2
#     Edge 32, Type (0, 0), BuildingBlock: ZUJKAS_clean_linker_0, # of connection points: 2
#     Edge 33, Type (0, 0), BuildingBlock: ZUJKAS_clean_linker_0, # of connection points: 2
#     Edge 34, Type (0, 0), BuildingBlock: ZUJKAS_clean_linker_0, # of connection points: 2
#     Edge 35, Type (0, 0), BuildingBlock: ZUJKAS_clean_linker_0, # of connection points: 2
#     Edge 36, Type (0, 0), BuildingBlock: ZUJKAS_clean_linker_0, # of connection points: 2
#     Edge 37, Type (0, 0), BuildingBlock: ZUJKAS_clean_linker_0, # of connection points: 2
#     Edge 38, Type (0, 0), BuildingBlock: ZUJKAS_clean_linker_0, # of connection points: 2
#     Edge 39, Type (0, 0), BuildingBlock: ZUJKAS_clean_linker_0, # of connection points: 2
#     Edge 40, Type (0, 0), BuildingBlock: ZUJKAS_clean_linker_0, # of connection points: 2
#     Edge 41, Type (0, 0), BuildingBlock: ZUJKAS_clean_linker_0, # of connection points: 2
# Relax obj value: 0.110
# Max RMSD: 0.173
# Mean RMSD: 0.173
data_MOF--net-wkd--node1-XOMCOT_clean_sbu_1--edge1-ZUJKAS_clean_linker_0
_symmetry_space_group_name_H-M    P1
_symmetry_Int_Tables_number       1
_symmetry_cell_setting            triclinic
loop_
_symmetry_equiv_pos_as_xyz
'x, y, z'
_cell_length_a     32.340997
_cell_length_b     32.360952
_cell_length_c     140.84329
_cell_angle_alpha  89.994789
_cell_angle_beta   90.015107
_cell_angle_gamma 119.99726
loop_
_atom_site_label
_atom_site_type_symbol
_atom_site_fract_x
_atom_site_fract_y
_atom_site_fract_z
_atom_type_partial_charge
C0 C 0.0997 0.29186 0.05941 0.0
C1 C 0.10722 0.26135 0.065 0.0
N2 N 0.06714 0.21822 0.06502 0.0
N3 N 0.05508 0.26837 0.05585 0.0
C4 C 0.03605 0.22346 0.05938 0.0
H5 H 0.125 0.32912 0.05813 0.0
Co6 Co 0.02747 0.29663 0.04841 0.0
C7 C 0.98019 0.22848 0.03267 0.0
O8 O 0.99868 0.26634 0.02716 0.0
N9 N 0.99773 0.32472 0.04125 0.0
C10 C 0.93563 0.32897 0.03557 0.0
C11 C 0.95006 0.30021 0.03976 0.0
C12 C 0.01106 0.36949 0.03813 0.0
N13 N 0.97383 0.37289 0.03459 0.0
O14 O 0.98036 0.28367 0.05818 0.0
H15 H 0.92656 0.26364 0.04189 0.0
H16 H 0.04646 0.3998 0.03891 0.0
O17 O 0.98738 0.23411 0.04169 0.0
C18 C 1.00025 0.31783 0.06419 0.0
O19 O 0.04621 0.34794 0.06332 0.0
N20 N 0.07805 0.31591 0.03953 0.0
C21 C 0.16077 0.35622 0.0283 0.0
C22 C 0.13124 0.30643 0.02893 0.0
C23 C 0.09051 0.28693 0.03475 0.0
C24 C 0.10841 0.36395 0.03956 0.0
C25 C 0.14913 0.38489 0.03386 0.0
H26 H 0.0697 0.24864 0.03553 0.0
H27 H 0.10211 0.38616 0.04437 0.0
H28 H 0.99966 0.1956 0.05806 0.0
H29 H 0.1399 0.27036 0.06874 0.0
H30 H 0.89935 0.31817 0.03355 0.0
H31 H 0.13959 0.28273 0.02501 0.0
H32 H 0.17224 0.42325 0.03409 0.0
C33 C 0.78752 0.07827 0.2295 0.0
C34 C 0.82261 0.08455 0.23583 0.0
N35 N 0.8332 0.04961 0.23447 0.0
N36 N 0.77584 0.03964 0.22409 0.0
C37 C 0.80387 0.02252 0.22736 0.0
H38 H 0.77218 0.1011 0.22873 0.0
Co39 Co 0.73144 0.01941 0.21403 0.0
C40 C 0.78703 0.9835 0.20242 0.0
O41 O 0.8085 0.02294 0.19746 0.0
N42 N 0.68577 0.99773 0.20403 0.0
C43 C 0.65319 0.97909 0.18961 0.0
C44 C 0.69258 0.98915 0.19493 0.0
C45 C 0.64119 0.99199 0.20402 0.0
N46 N 0.62094 0.98111 0.1953 0.0
O47 O 0.68522 0.968 0.22198 0.0
H48 H 0.72482 0.99229 0.19208 0.0
H49 H 0.62495 0.99838 0.21013 0.0
O50 O 0.75635 0.97793 0.20884 0.0
C51 C 0.6646 0.98522 0.22707 0.0
O52 O 0.67779 0.03052 0.22609 0.0
N53 N 0.77445 0.07534 0.20684 0.0
C54 C 0.82917 0.16196 0.19715 0.0
C55 C 0.85138 0.14186 0.20248 0.0
C56 C 0.82336 0.0989 0.2074 0.0
C57 C 0.75303 0.09732 0.20238 0.0
C58 C 0.77938 0.13941 0.19729 0.0
H59 H 0.84122 0.08407 0.21146 0.0
H60 H 0.71508 0.08328 0.20293 0.0
H61 H 0.80396 0.99175 0.22439 0.0
H62 H 0.83909 0.11288 0.24102 0.0
H63 H 0.64897 0.97184 0.18206 0.0
H64 H 0.88993 0.15898 0.2028 0.0
H65 H 0.76081 0.15513 0.19374 0.0
C66 C 0.72213 0.80941 0.39121 0.0
C67 C 0.75223 0.84736 0.39685 0.0
N68 N 0.79486 0.84938 0.39731 0.0
N69 N 0.74542 0.78734 0.38804 0.0
C70 C 0.78978 0.81257 0.39186 0.0
H71 H 0.6852 0.798 0.38966 0.0
Co72 Co 0.71746 0.73061 0.38089 0.0
C73 C 0.78668 0.74753 0.36562 0.0
O74 O 0.7491 0.72706 0.36004 0.0
N75 N 0.68972 0.67194 0.374 0.0
C76 C 0.68558 0.60467 0.36895 0.0
C77 C 0.71265 0.64665 0.3737 0.0
C78 C 0.64759 0.64326 0.36951 0.0
N79 N 0.64458 0.60236 0.36628 0.0
O80 O 0.72861 0.69759 0.39122 0.0
H81 H 0.74711 0.65786 0.37688 0.0
H82 H 0.61929 0.65141 0.36866 0.0
O83 O 0.78056 0.75135 0.37454 0.0
C84 C 0.69247 0.68401 0.3967 0.0
O85 O 0.66252 0.69923 0.39482 0.0
N86 N 0.69965 0.76105 0.37155 0.0
C87 C 0.66045 0.80364 0.36005 0.0
C88 C 0.71017 0.82275 0.36058 0.0
C89 C 0.72915 0.80143 0.36652 0.0
C90 C 0.65175 0.74432 0.3716 0.0
C91 C 0.63135 0.76419 0.36578 0.0
H92 H 0.76744 0.81822 0.36725 0.0
H93 H 0.62921 0.71623 0.37648 0.0
H94 H 0.81723 0.80309 0.39093 0.0
H95 H 0.74327 0.87156 0.40038 0.0
H96 H 0.69484 0.57719 0.36784 0.0
H97 H 0.73421 0.8541 0.35652 0.0
H98 H 0.59309 0.74976 0.36606 0.0
C99 C 0.92454 0.71348 0.56079 0.0
C100 C 0.91792 0.74232 0.56705 0.0
N101 N 0.95559 0.78696 0.56642 0.0
N102 N 0.96624 0.73952 0.55617 0.0
C103 C 0.98446 0.7842 0.55978 0.0
H104 H 0.90008 0.67596 0.55956 0.0
Co105 Co 0.99057 0.71546 0.54681 0.0
C106 C 0.03212 0.80719 0.53521 0.0
O107 O 0.99606 0.78864 0.52929 0.0
N108 N 0.01661 0.69186 0.5376 0.0
C109 C 0.04838 0.68202 0.52437 0.0
C110 C 0.03223 0.70897 0.52877 0.0
C111 C 0.02331 0.65376 0.5383 0.0
N112 N 0.04285 0.64725 0.53035 0.0
O113 O 0.03775 0.71894 0.55587 0.0
H114 H 0.0311 0.73831 0.52549 0.0
H115 H 0.01398 0.63111 0.5445 0.0
O116 O 0.03458 0.78222 0.54206 0.0
C117 C 0.01596 0.68132 0.56101 0.0
O118 O 0.9704 0.65212 0.55934 0.0
N119 N 0.93858 0.70384 0.53848 0.0
C120 C 0.8563 0.67325 0.52732 0.0
C121 C 0.87452 0.71521 0.53271 0.0
C122 C 0.91536 0.72959 0.53835 0.0
C123 C 0.91852 0.66103 0.53382 0.0
C124 C 0.87864 0.64593 0.52802 0.0
H125 H 0.92879 0.76203 0.54245 0.0
H126 H 0.93218 0.637 0.53476 0.0
H127 H 0.01833 0.81411 0.55762 0.0
H128 H 0.88703 0.73137 0.57155 0.0
H129 H 0.06197 0.68687 0.51719 0.0
H130 H 0.85754 0.73678 0.53256 0.0
H131 H 0.86427 0.61199 0.52439 0.0
C132 C 0.22217 0.9247 0.72919 0.0
C133 C 0.18659 0.9181 0.73542 0.0
N134 N 0.17706 0.95388 0.73425 0.0
N135 N 0.2353 0.96442 0.72404 0.0
C136 C 0.20752 0.98178 0.72735 0.0
H137 H 0.23681 0.90133 0.72831 0.0
Co138 Co 0.28049 0.98533 0.71411 0.0
C139 C 0.22753 0.02485 0.70264 0.0
O140 O 0.20564 0.98624 0.69745 0.0
N141 N 0.32671 0.00778 0.70412 0.0
C142 C 0.36069 0.03129 0.68989 0.0
C143 C 0.31953 0.01581 0.69501 0.0
C144 C 0.37292 0.01812 0.70425 0.0
N145 N 0.39439 0.03282 0.69569 0.0
O146 O 0.32736 0.03488 0.7224 0.0
H147 H 0.28624 0.00941 0.69205 0.0
H148 H 0.39066 0.01486 0.71045 0.0
O149 O 0.25725 0.02866 0.70914 0.0
C150 C 0.34709 0.01436 0.72675 0.0
O151 O 0.33084 0.9689 0.725 0.0
N152 N 0.23755 0.93077 0.7067 0.0
C153 C 0.18387 0.84271 0.69744 0.0
C154 C 0.16118 0.86482 0.7019 0.0
C155 C 0.18863 0.90808 0.70678 0.0
C156 C 0.25938 0.90784 0.70283 0.0
C157 C 0.23358 0.86476 0.69802 0.0
H158 H 0.17045 0.92346 0.71056 0.0
H159 H 0.29722 0.92187 0.70372 0.0
H160 H 0.20844 0.01335 0.72455 0.0
H161 H 0.16904 0.88897 0.74042 0.0
H162 H 0.36502 0.03944 0.68237 0.0
H163 H 0.12263 0.84808 0.70189 0.0
H164 H 0.25257 0.84845 0.6949 0.0
C165 C 0.30463 0.21896 0.89534 0.0
C166 C 0.2759 0.18272 0.90147 0.0
N167 N 0.23078 0.17432 0.90067 0.0
N168 N 0.278 0.23354 0.8906 0.0
C169 C 0.23319 0.20605 0.89409 0.0
H170 H 0.34246 0.23317 0.89424 0.0
Co171 Co 0.30138 0.28078 0.88104 0.0
C172 C 0.20907 0.22789 0.86957 0.0
O173 O 0.22707 0.20875 0.86394 0.0
N174 N 0.32426 0.32919 0.87159 0.0
C175 C 0.3336 0.36765 0.85795 0.0
C176 C 0.30704 0.32553 0.86269 0.0
C177 C 0.362 0.37434 0.872 0.0
N178 N 0.36824 0.39855 0.86378 0.0
O179 O 0.29662 0.32468 0.88977 0.0
H180 H 0.2782 0.29399 0.85957 0.0
H181 H 0.38481 0.38898 0.87815 0.0
O182 O 0.2345 0.25673 0.87622 0.0
C183 C 0.33381 0.34248 0.89507 0.0
O184 O 0.36481 0.328 0.89385 0.0
N185 N 0.31396 0.24015 0.87299 0.0
C186 C 0.34516 0.18862 0.86195 0.0
C187 C 0.30335 0.1648 0.8674 0.0
C188 C 0.28876 0.19119 0.87299 0.0
C189 C 0.35687 0.26301 0.86836 0.0
C190 C 0.37229 0.2383 0.86263 0.0
H191 H 0.25643 0.17211 0.87712 0.0
H192 H 0.38061 0.3008 0.86924 0.0
H193 H 0.20262 0.20821 0.89165 0.0
H194 H 0.28752 0.16398 0.90615 0.0
H195 H 0.32881 0.37435 0.85062 0.0
H196 H 0.28194 0.12624 0.86729 0.0
H197 H 0.4062 0.258 0.85898 0.0
C198 C 0.71186 0.92429 0.78741 0.0
C199 C 0.74254 0.9185 0.78154 0.0
N200 N 0.78719 0.95513 0.78295 0.0
N201 N 0.73665 0.9644 0.79257 0.0
C202 C 0.78255 0.98277 0.78963 0.0
H203 H 0.6739 0.89994 0.78809 0.0
Co204 Co 0.70876 0.98312 0.80222 0.0
C205 C 0.79768 0.02333 0.81485 0.0
O206 O 0.77986 0.98523 0.82022 0.0
N207 N 0.68091 1.00271 0.81184 0.0
C208 C 0.66143 0.01885 0.82597 0.0
C209 C 0.69151 0.00778 0.82121 0.0
C210 C 0.64394 0.0112 0.81113 0.0
N211 N 0.63128 0.02081 0.81966 0.0
O212 O 0.71323 0.03395 0.79414 0.0
H213 H 0.71787 1.00186 0.82457 0.0
H214 H 0.62534 0.0085 0.80458 0.0
O215 O 0.7735 0.02641 0.80791 0.0
C216 C 0.67802 0.01513 0.78833 0.0
O217 O 0.6492 0.96875 0.78867 0.0
N218 N 0.69649 0.92803 0.80945 0.0
C219 C 0.66292 0.83989 0.8186 0.0
C220 C 0.70922 0.86433 0.81479 0.0
C221 C 0.72476 0.90764 0.80995 0.0
C222 C 0.65046 0.90284 0.81262 0.0
C223 C 0.63343 0.85963 0.81737 0.0
H224 H 0.75975 0.92502 0.80671 0.0
H225 H 0.62581 0.91549 0.81129 0.0
H226 H 0.81224 0.01469 0.79259 0.0
H227 H 0.73264 0.88919 0.77666 0.0
H228 H 0.66149 0.02458 0.83354 0.0
H229 H 0.73262 0.84948 0.8153 0.0
H230 H 0.59709 0.84162 0.82 0.0
C231 C 0.80154 0.70895 0.95518 0.0
C232 C 0.83778 0.73909 0.94921 0.0
N233 N 0.84567 0.7838 0.95043 0.0
N234 N 0.7861 0.7341 0.96017 0.0
C235 C 0.81351 0.77971 0.95709 0.0
H236 H 0.78796 0.67108 0.956 0.0
Co237 Co 0.73992 0.70678 0.96984 0.0
C238 C 0.73951 0.79043 0.97818 0.0
O239 O 0.69318 0.76902 0.97677 0.0
N240 N 0.6941 0.67924 0.97961 0.0
C241 C 0.66254 0.66295 0.99409 0.0
C242 C 0.70307 0.69053 0.9889 0.0
C243 C 0.64762 0.64431 0.97936 0.0
N244 N 0.62753 0.63369 0.98812 0.0
O245 O 0.69296 0.71013 0.96173 0.0
H246 H 0.73716 0.71726 0.99174 0.0
H247 H 0.62911 0.62639 0.97293 0.0
O248 O 0.76265 0.77013 0.97543 0.0
C249 C 0.67624 0.67425 0.9561 0.0
O250 O 0.69327 0.64504 0.95667 0.0
N251 N 0.78315 0.6976 0.97713 0.0
C252 C 0.84103 0.66923 0.98658 0.0
C253 C 0.85584 0.71796 0.98544 0.0
C254 C 0.82633 0.73149 0.98063 0.0
C255 C 0.7684 0.65041 0.97814 0.0
C256 C 0.79628 0.63548 0.98293 0.0
H257 H 0.83856 0.76893 0.97955 0.0
H258 H 0.7345 0.62404 0.97516 0.0
H259 H 0.81113 0.80957 0.9599 0.0
H260 H 0.85698 0.72873 0.94438 0.0
H261 H 0.65904 0.66489 1.0017 0.0
H262 H 0.8903 0.74534 0.98802 0.0
H263 H 0.78255 0.59757 0.98376 0.0
C264 C 0.08682 0.77893 0.11963 0.0
C265 C 0.09189 0.81244 0.113 0.0
N266 N 0.05724 0.82341 0.1144 0.0
N267 N 0.04906 0.7684 0.12523 0.0
C268 C 0.03161 0.796 0.12185 0.0
H269 H 0.11001 0.76405 0.12047 0.0
Co270 Co 0.02984 0.72565 0.1356 0.0
C271 C 0.98961 0.78005 0.14625 0.0
O272 O 0.02932 0.8052 0.15098 0.0
N273 N 0.00889 0.68186 0.146 0.0
C274 C 0.9904 0.65255 0.16069 0.0
C275 C 1.00157 0.69115 0.15502 0.0
C276 C 1.00146 0.63671 0.14644 0.0
N277 N 0.99046 0.61832 0.15531 0.0
O278 O 0.98027 0.67621 0.1277 0.0
H279 H 1.00618 0.72456 0.15754 0.0
H280 H 1.00615 0.6183 0.14052 0.0
O281 O 0.98555 0.74829 0.14024 0.0
C282 C 1.00106 0.65583 0.12371 0.0
O283 O 0.04675 0.6732 0.12543 0.0
N284 N 0.08465 0.77127 0.14273 0.0
C285 C 0.16996 0.82857 0.15266 0.0
C286 C 0.14961 0.84937 0.14697 0.0
C287 C 0.10736 0.82003 0.14191 0.0
C288 C 0.10738 0.75133 0.14745 0.0
C289 C 0.1487 0.77893 0.15268 0.0
H290 H 0.09237 0.83673 0.13754 0.0
H291 H 0.09445 0.71354 0.14704 0.0
H292 H 1.00098 0.79635 0.12483 0.0
H293 H 0.12004 0.82865 0.10776 0.0
H294 H 0.98334 0.65009 0.16824 0.0
H295 H 0.16597 0.88779 0.14648 0.0
H296 H 0.16487 0.76144 0.15647 0.0
C297 C 0.30106 0.08786 0.28766 0.0
C298 C 0.26943 0.09268 0.2819 0.0
N299 N 0.22526 0.05559 0.28348 0.0
N300 N 0.27739 0.04782 0.29289 0.0
C301 C 0.23111 0.02865 0.29014 0.0
H302 H 0.33894 0.11281 0.28819 0.0
Co303 Co 0.30714 0.03124 0.30247 0.0
C304 C 0.22616 0.94663 0.31146 0.0
O305 O 0.24911 0.92303 0.31034 0.0
N306 N 0.33722 0.01548 0.31217 0.0
C307 C 0.35641 1.00269 0.3266 0.0
C308 C 0.32763 0.01452 0.32152 0.0
C309 C 0.3723 1.00415 0.31176 0.0
N310 N 0.38467 0.9962 0.32048 0.0
O311 O 0.30491 0.98111 0.29446 0.0
H312 H 0.30101 0.02168 0.32449 0.0
H313 H 0.38893 1.00239 0.30523 0.0
O314 O 0.24474 0.98931 0.30833 0.0
C315 C 0.34003 1.00114 0.28866 0.0
O316 O 0.36753 0.0477 0.28907 0.0
N317 N 0.31528 0.08356 0.30963 0.0
C318 C 0.34307 0.1695 0.31906 0.0
C319 C 0.29525 0.13227 0.31929 0.0
C320 C 0.28185 0.08949 0.31441 0.0
C321 C 0.36162 0.11927 0.30935 0.0
C322 C 0.37628 0.16236 0.314 0.0
H323 H 0.24488 0.06151 0.31446 0.0
H324 H 0.38747 0.11404 0.30545 0.0
H325 H 0.20202 0.99667 0.29322 0.0
H326 H 0.27834 0.12167 0.27699 0.0
H327 H 0.35584 0.99833 0.33422 0.0
H328 H 0.26842 0.13649 0.32307 0.0
H329 H 0.41361 0.18967 0.31373 0.0
C330 C 0.22474 0.30711 0.45323 0.0
C331 C 0.19078 0.27736 0.44682 0.0
N332 N 0.18324 0.2328 0.44804 0.0
N333 N 0.2391 0.28184 0.4585 0.0
C334 C 0.21299 0.23646 0.4552 0.0
H335 H 0.23767 0.34483 0.4541 0.0
Co336 Co 0.28533 0.30911 0.46824 0.0
C337 C 0.23657 0.21971 0.48068 0.0
O338 O 0.21628 0.23742 0.48608 0.0
N339 N 0.33256 0.33642 0.47793 0.0
C340 C 0.36795 0.35579 0.49209 0.0
C341 C 0.32684 0.32578 0.48729 0.0
C342 C 0.37812 0.37325 0.47726 0.0
N343 N 0.40022 0.38581 0.4858 0.0
O344 O 0.33208 0.30555 0.46009 0.0
H345 H 0.29442 0.29953 0.49063 0.0
H346 H 0.39423 0.39194 0.47073 0.0
O347 O 0.26387 0.24405 0.47376 0.0
C348 C 0.34819 0.34207 0.45463 0.0
O349 O 0.33025 0.37042 0.45551 0.0
N350 N 0.24223 0.32082 0.47548 0.0
C351 C 0.18775 0.35398 0.48481 0.0
C352 C 0.1658 0.30796 0.48087 0.0
C353 C 0.19354 0.29266 0.47593 0.0
C354 C 0.26309 0.36667 0.47874 0.0
C355 C 0.23698 0.38345 0.48359 0.0
H356 H 0.17595 0.25791 0.47259 0.0
H357 H 0.3004 0.39136 0.47742 0.0
H358 H 0.21579 0.20674 0.45795 0.0
H359 H 0.17214 0.28762 0.44181 0.0
H360 H 0.37348 0.35584 0.49967 0.0
H361 H 0.12754 0.28459 0.48138 0.0
H362 H 0.25545 0.41957 0.48633 0.0
C363 C 0.92524 0.22265 0.61997 0.0
C364 C 0.91944 0.18758 0.61369 0.0
N365 N 0.95589 0.17901 0.61483 0.0
N366 N 0.96522 0.23652 0.62511 0.0
C367 C 0.98323 0.20932 0.6218 0.0
H368 H 0.90122 0.2365 0.62089 0.0
Co369 Co 0.98695 0.28309 0.63481 0.0
C370 C 0.02468 0.22978 0.64669 0.0
O371 O 0.98612 0.2094 0.65193 0.0
N372 N 0.01018 0.33055 0.64449 0.0
C373 C 0.03439 0.3663 0.65852 0.0
C374 C 0.01911 0.32468 0.65361 0.0
C375 C 0.01994 0.37652 0.64411 0.0
N376 N 0.03502 0.39909 0.65257 0.0
O377 O 0.03703 0.32819 0.62642 0.0
H378 H 0.01324 0.29193 0.65674 0.0
H379 H 0.01565 0.39304 0.6378 0.0
O380 O 0.0292 0.2591 0.64005 0.0
C381 C 0.01647 0.34522 0.62123 0.0
O382 O 0.97079 0.32933 0.62263 0.0
N383 N 0.93204 0.24185 0.64233 0.0
C384 C 0.84351 0.1904 0.65156 0.0
C385 C 0.8649 0.16658 0.64727 0.0
C386 C 0.90845 0.19291 0.64241 0.0
C387 C 0.90992 0.26478 0.64605 0.0
C388 C 0.86669 0.24012 0.65085 0.0
H389 H 0.92329 0.17385 0.63878 0.0
H390 H 0.92466 0.30261 0.64504 0.0
H391 H 0.01572 0.21164 0.62444 0.0
H392 H 0.88977 0.16887 0.60885 0.0
H393 H 0.04262 0.37143 0.66603 0.0
H394 H 0.8474 0.128 0.64739 0.0
H395 H 0.85115 0.26005 0.65387 0.0
H396 H 0.69788 0.83252 0.9882 0.0
H397 H 0.73642 0.90311 0.99833 0.0
H398 H 0.87419 0.92042 0.99153 0.0
H399 H 0.83562 0.84875 0.98156 0.0
H400 H 0.86791 0.93473 0.01031 0.0
H401 H 0.80581 0.03954 0.98981 0.0
H402 H 0.75761 0.98357 0.99387 0.0
H403 H 0.79984 0.98448 0.98542 0.0
C404 C 0.73643 0.85147 0.98878 0.0
C405 C 0.76359 0.83502 0.98396 0.0
C406 C 0.75851 0.89207 0.99458 0.0
C407 C 0.80842 0.91788 0.9956 0.0
C408 C 0.83566 0.90137 0.99085 0.0
H409 H 0.97639 0.20901 0.01384 0.0
H410 H 0.93479 0.1326 1.00583 0.0
C411 C 0.81354 0.86044 0.98511 0.0
C412 C 0.83207 0.96193 1.00162 0.0
H413 H 0.84276 0.07174 1.0046 0.0
C414 C 0.86247 0.96474 0.00905 0.0
C415 C 0.82542 1.00143 0.99997 0.0
C416 C 0.7958 1.00243 0.99178 0.0
C417 C 0.88632 0.00573 0.01483 0.0
C418 C 0.87889 0.04482 0.01328 0.0
C419 C 0.84822 0.04176 1.00589 0.0
C420 C 0.90549 0.09095 0.01861 0.0
C421 C 0.92046 0.00736 0.02231 0.0
C422 C 0.90343 0.09366 0.02858 0.0
C423 C 0.92795 0.13801 0.03329 0.0
C424 C 0.95437 0.18049 0.02809 0.0
C425 C 0.95622 0.17734 0.01813 0.0
C426 C 0.93231 0.13339 0.01349 0.0
H427 H 0.93084 0.97985 0.02108 0.0
H428 H 0.95332 0.04296 0.02251 0.0
H429 H 0.90302 1.00055 0.02937 0.0
H430 H 0.8823 0.06165 0.03272 0.0
H431 H 0.92565 0.13909 0.04094 0.0
H432 H 0.98583 0.86125 0.14661 0.0
H433 H 0.93201 0.87678 0.15619 0.0
H434 H 0.85007 0.72748 0.16337 0.0
H435 H 0.90414 0.7118 0.15366 0.0
H436 H 0.82912 0.83854 0.15732 0.0
H437 H 0.90626 0.79917 0.18909 0.0
H438 H 0.93356 0.80905 0.17751 0.0
H439 H 0.88004 0.75395 0.18005 0.0
C440 C 0.95514 0.83142 0.14991 0.0
C441 C 0.94868 0.78524 0.14927 0.0
C442 C 0.92458 0.84037 0.15545 0.0
C443 C 0.88736 0.80348 0.16062 0.0
C444 C 0.87876 0.75659 0.15949 0.0
H445 H 0.72045 0.8925 0.19703 0.0
H446 H 0.73657 0.83803 0.18754 0.0
C447 C 0.90918 0.74751 0.15383 0.0
C448 C 0.86152 0.81573 0.16786 0.0
H449 H 0.85754 0.83253 0.19177 0.0
C450 C 0.83434 0.83621 0.16486 0.0
C451 C 0.86896 0.81335 0.17772 0.0
C452 C 0.89897 0.79299 0.18135 0.0
C453 C 0.81582 0.85574 0.1714 0.0
C454 C 0.82459 0.85473 0.18123 0.0
C455 C 0.85035 0.83278 0.18426 0.0
C456 C 0.81348 0.88235 0.18825 0.0
C457 C 0.78945 0.87994 0.16773 0.0
C458 C 0.85117 0.92405 0.19218 0.0
C459 C 0.84202 0.95488 0.19757 0.0
C460 C 0.79496 0.94435 0.19931 0.0
C461 C 0.75703 0.90093 0.19597 0.0
C462 C 0.76624 0.87018 0.19044 0.0
H463 H 0.79017 0.88225 0.15985 0.0
H464 H 0.75164 0.85961 0.17006 0.0
H465 H 0.80526 0.91654 0.17069 0.0
H466 H 0.88785 0.93425 0.1906 0.0
H467 H 0.87188 0.98844 0.19994 0.0
H468 H 0.87636 0.78969 0.37413 0.0
H469 H 0.95433 0.82395 0.36608 0.0
H470 H 0.88332 0.78949 0.33891 0.0
H471 H 0.80653 0.75445 0.34676 0.0
H472 H 0.94869 0.76427 0.33906 0.0
H473 H 0.02987 0.94995 0.35251 0.0
H474 H 0.01185 0.90528 0.36159 0.0
H475 H 0.9675 0.90678 0.35413 0.0
C476 C 0.87753 0.78948 0.36644 0.0
C477 C 0.83493 0.76904 0.36113 0.0
C478 C 0.92218 0.80945 0.36183 0.0
C479 C 0.92505 0.80993 0.35183 0.0
C480 C 0.88245 0.78963 0.3466 0.0
H481 H 0.1632 0.97973 0.31375 0.0
H482 H 0.09162 0.94619 0.32376 0.0
C483 C 0.83826 0.7695 0.35115 0.0
C484 C 0.97158 0.83003 0.34662 0.0
H485 H 0.07806 0.93227 0.3426 0.0
C486 C 0.97701 0.801 0.33988 0.0
C487 C 1.0085 0.87818 0.34754 0.0
C488 C 1.00418 0.91209 0.35426 0.0
C489 C 0.0175 0.81863 0.33399 0.0
C490 C 0.05486 0.86651 0.33502 0.0
C491 C 0.04973 0.89553 0.34182 0.0
C492 C 0.09892 0.88724 0.32899 0.0
C493 C 0.01879 0.78607 0.32646 0.0
C494 C 0.12743 0.86576 0.32859 0.0
C495 C 0.16797 0.88447 0.32276 0.0
C496 C 0.1817 0.92576 0.31729 0.0
C497 C 0.15365 0.94779 0.31782 0.0
C498 C 0.11275 0.92872 0.32359 0.0
H499 H 0.98238 0.75655 0.32471 0.0
H500 H 0.03576 0.80597 0.31984 0.0
H501 H 0.03974 0.76985 0.32913 0.0
H502 H 0.11856 0.83458 0.33286 0.0
H503 H 0.18901 0.86692 0.32268 0.0
H504 H 0.30217 0.20112 0.48874 0.0
H505 H 0.28403 0.1298 0.49813 0.0
H506 H 0.1366 0.06402 0.48951 0.0
H507 H 0.15467 0.13512 0.48025 0.0
H508 H 0.218 0.09945 0.51339 0.0
H509 H 0.16488 0.95362 0.48727 0.0
H510 H 0.20019 0.01588 0.48406 0.0
H511 H 0.13649 0.98845 0.48531 0.0
C512 C 0.26646 0.17044 0.48851 0.0
C513 C 0.23005 0.17296 0.48357 0.0
C514 C 0.25595 0.12998 0.49397 0.0
C515 C 0.20898 0.09122 0.49448 0.0
C516 C 0.17325 0.09287 0.4891 0.0
H517 H 0.03145 0.8901 0.53553 0.0
H518 H 0.08438 0.96231 0.52656 0.0
C519 C 0.18362 0.13342 0.48376 0.0
C520 C 0.19571 0.05166 0.50142 0.0
H521 H 0.13736 0.93004 0.50327 0.0
C522 C 0.20117 0.06244 0.51117 0.0
C523 C 0.17397 1.00332 0.49857 0.0
C524 C 0.16889 0.98952 0.48823 0.0
C525 C 0.1832 0.0262 0.5181 0.0
C526 C 0.15889 0.9778 0.51524 0.0
C527 C 0.15578 0.96708 0.5055 0.0
C528 C 0.1326 0.93789 0.52211 0.0
C529 C 0.18954 0.04003 0.52845 0.0
C530 C 0.14256 0.90035 0.52284 0.0
C531 C 0.11264 0.85926 0.52814 0.0
C532 C 0.072 0.85486 0.5327 0.0
C533 C 0.06339 0.89327 0.53233 0.0
C534 C 0.09352 0.93446 0.52715 0.0
H535 H 0.22033 0.07654 0.52954 0.0
H536 H 0.15696 0.03967 0.53104 0.0
H537 H 0.19497 0.01451 0.5328 0.0
H538 H 0.17218 0.90191 0.51894 0.0
H539 H 0.1191 0.82947 0.52804 0.0
H540 H 0.14453 0.02513 0.70183 0.0
H541 H 0.12809 0.07863 0.69235 0.0
H542 H 0.27824 0.16603 0.68626 0.0
H543 H 0.29481 0.1123 0.69588 0.0
H544 H 0.16347 0.18132 0.69188 0.0
H545 H 0.21148 0.11253 0.65996 0.0
H546 H 0.20034 0.08333 0.67136 0.0
H547 H 0.25502 0.1381 0.66932 0.0
C548 C 0.17424 0.0569 0.69881 0.0
C549 C 0.221 0.06509 0.69973 0.0
C550 C 0.16479 0.08728 0.69332 0.0
C551 C 0.20179 0.12602 0.68847 0.0
C552 C 0.24906 0.13617 0.68988 0.0
H553 H 0.11416 0.29599 0.65281 0.0
H554 H 0.1677 0.27879 0.66236 0.0
C555 C 0.25862 0.10593 0.69549 0.0
C556 C 0.18954 0.15214 0.6813 0.0
H557 H 0.17684 0.16019 0.65734 0.0
C558 C 0.16735 0.17766 0.68433 0.0
C559 C 0.19394 0.14671 0.67143 0.0
C560 C 0.2162 0.11851 0.66775 0.0
C561 C 0.14821 0.19659 0.67778 0.0
C562 C 0.15141 0.18998 0.66792 0.0
C563 C 0.1749 0.16574 0.66488 0.0
C564 C 0.12488 0.20211 0.66081 0.0
C565 C 0.12222 0.22116 0.68147 0.0
C566 C 0.08449 0.16504 0.65637 0.0
C567 C 0.05422 0.17484 0.65093 0.0
C568 C 0.06409 0.22196 0.64965 0.0
C569 C 0.10639 0.25945 0.65349 0.0
C570 C 0.13656 0.24957 0.65906 0.0
H571 H 0.11786 0.21826 0.68931 0.0
H572 H 0.14257 0.25955 0.67957 0.0
H573 H 0.08637 0.20564 0.67815 0.0
H574 H 0.07468 0.1282 0.65761 0.0
H575 H 0.02138 0.14528 0.6482 0.0
H576 H 0.81602 0.10735 0.82293 0.0
H577 H 0.88729 0.16063 0.83233 0.0
H578 H 0.95346 0.07937 0.82373 0.0
H579 H 0.88237 0.02619 0.81447 0.0
H580 H 0.91755 0.12442 0.84759 0.0
H581 H 0.06371 0.21849 0.82157 0.0
H582 H 1.00143 0.19167 0.81836 0.0
H583 H 0.02885 0.15537 0.81951 0.0
C584 C 0.84676 0.10241 0.82271 0.0
C585 C 0.84435 0.06354 0.81778 0.0
C586 C 0.8872 0.13244 0.82817 0.0
C587 C 0.92605 0.12436 0.82869 0.0
C588 C 0.92453 0.08705 0.82331 0.0
H589 H 0.12645 0.14407 0.8692 0.0
H590 H 0.05457 0.12614 0.86024 0.0
C591 C 0.88398 0.05678 0.81798 0.0
C592 C 0.96551 0.15059 0.83565 0.0
H593 H 0.08718 0.21376 0.83756 0.0
C594 C 0.9546 0.14477 0.84539 0.0
C595 C 0.01389 0.17738 0.83282 0.0
C596 C 0.02778 0.18656 0.82249 0.0
C597 C 0.99079 0.16262 0.85234 0.0
C598 C 0.03923 0.18683 0.84949 0.0
C599 C 0.05009 0.19507 0.83977 0.0
C600 C 0.07897 0.19948 0.85635 0.0
C601 C 0.9769 0.1544 0.86268 0.0
C602 C 0.11633 0.24688 0.85739 0.0
C603 C 0.15721 0.25727 0.86271 0.0
C604 C 0.16158 0.22031 0.86694 0.0
C605 C 0.12334 0.17331 0.86624 0.0
C606 C 0.08234 0.16304 0.86107 0.0
H607 H 0.94026 0.14831 0.8638 0.0
H608 H 0.97759 0.12223 0.86518 0.0
H609 H 1.00228 0.18519 0.86708 0.0
H610 H 0.11478 0.27553 0.85374 0.0
H611 H 0.18686 0.29358 0.86288 0.0
H612 H 1.00864 0.12469 0.06039 0.0
H613 H 1.00098 0.05468 0.06879 0.0
H614 H 0.10117 0.14685 0.08993 0.0
H615 H 0.10925 0.21646 0.08155 0.0
H616 H 0.12412 0.08292 0.08411 0.0
H617 H 0.93118 0.98846 0.0928 0.0
H618 H 0.9433 1.00044 0.08036 0.0
H619 H 0.9624 0.04924 0.08857 0.0
C620 C 0.02849 0.12995 0.0669 0.0
C621 C 0.05978 0.17639 0.07024 0.0
C622 C 0.02399 0.08981 0.07173 0.0
C623 C 0.05013 0.09516 0.08009 0.0
C624 C 0.08066 0.1415 0.0835 0.0
H625 H 0.01857 0.87614 0.12091 0.0
H626 H 0.01509 0.94087 0.11252 0.0
C627 C 0.0854 0.18145 0.07866 0.0
C628 C 0.048 0.05317 0.08507 0.0
H629 H 0.97267 0.94629 0.09578 0.0
C630 C 0.09092 0.05313 0.08666 0.0
C631 C 1.00489 0.01436 0.08856 0.0
C632 C 0.95786 0.01316 0.08758 0.0
C633 C 0.09196 0.01561 0.0915 0.0
C634 C 0.04872 0.97603 0.09471 0.0
C635 C 1.0058 0.97623 0.09325 0.0
C636 C 0.04769 0.93443 0.09961 0.0
C637 C 0.13973 0.01937 0.09333 0.0
C638 C 0.06582 0.90811 0.09509 0.0
C639 C 0.06791 0.87122 0.09987 0.0
C640 C 0.05146 0.85916 0.10928 0.0
C641 C 0.0314 0.88419 0.11367 0.0
C642 C 0.02953 0.92139 0.10888 0.0
H643 H 0.16941 0.05691 0.09292 0.0
H644 H 0.14065 1.00485 0.10042 0.0
H645 H 0.14619 0.99856 0.08786 0.0
H646 H 0.07884 0.91641 0.08787 0.0
H647 H 0.0826 0.85215 0.09618 0.0
H648 H 0.91423 0.11973 0.24256 0.0
H649 H 0.9751 0.11146 0.25115 0.0
H650 H 0.89735 0.95964 0.24623 0.0
H651 H 0.83607 0.96781 0.23751 0.0
H652 H 0.96771 0.06287 0.26723 0.0
H653 H 0.03009 0.99233 0.23799 0.0
H654 H 0.99219 0.01758 0.23592 0.0
H655 H 0.96729 0.95787 0.24044 0.0
C656 C 0.90977 0.08446 0.24331 0.0
C657 C 0.86989 0.0444 0.23934 0.0
C658 C 0.94488 0.07981 0.24821 0.0
C659 C 0.94136 0.03501 0.24929 0.0
C660 C 0.90163 0.9948 0.24534 0.0
H661 H 0.14394 0.97164 0.27967 0.0
H662 H 0.07125 0.96153 0.27185 0.0
C663 C 0.86646 0.99948 0.24036 0.0
C664 C 0.97882 0.03097 0.25479 0.0
H665 H 0.06515 0.99944 0.25306 0.0
C666 C 0.98879 0.04877 0.26412 0.0
C667 C 1.00642 0.01237 0.2508 0.0
C668 C 0.99889 0.9943 0.24072 0.0
C669 C 0.02579 0.04926 0.26948 0.0
C670 C 0.05415 0.03189 0.2654 0.0
C671 C 0.04333 0.01263 0.2562 0.0
C672 C 0.09747 0.03716 0.27031 0.0
C673 C 0.03453 0.06879 0.27946 0.0
C674 C 0.13639 0.08286 0.27201 0.0
C675 C 0.17773 0.08866 0.27642 0.0
C676 C 0.18141 0.04888 0.27926 0.0
C677 C 0.14217 1.00298 0.27764 0.0
C678 C 0.10075 0.99718 0.27313 0.0
H679 H 1.00265 0.06871 0.28242 0.0
H680 H 0.04444 0.04778 0.28423 0.0
H681 H 0.0645 0.10619 0.2794 0.0
H682 H 0.13499 0.11425 0.26984 0.0
H683 H 0.20685 0.12452 0.27764 0.0
H684 H 0.15538 0.22867 0.42978 0.0
H685 H 0.0923 0.15995 0.42141 0.0
H686 H 0.06916 0.07213 0.44608 0.0
H687 H 0.1331 0.14119 0.4545 0.0
H688 H 0.06359 0.02427 0.42934 0.0
H689 H 0.95189 0.10908 0.42652 0.0
H690 H 0.01008 0.14484 0.42143 0.0
H691 H 1.00411 0.1328 0.43399 0.0
C692 C 0.13691 0.19479 0.43345 0.0
C693 C 0.14892 0.19072 0.44288 0.0
C694 C 0.10069 0.15543 0.42865 0.0
C695 C 0.07493 0.11095 0.43317 0.0
C696 C 0.08819 0.1061 0.44245 0.0
H697 H 0.79429 0.89201 0.41382 0.0
H698 H 0.86282 0.95235 0.42266 0.0
C699 C 0.12485 0.14558 0.44725 0.0
C700 C 0.03349 0.07024 0.42826 0.0
H701 H 0.92718 0.03885 0.41739 0.0
C702 C 0.03364 0.02736 0.42676 0.0
C703 C 0.99389 0.07377 0.425 0.0
C704 C 0.9896 0.11739 0.42689 0.0
C705 C 0.99592 0.98848 0.42195 0.0
C706 C 0.95724 0.99277 0.41837 0.0
C707 C 0.95687 0.03543 0.42002 0.0
C708 C 0.91588 0.9533 0.41316 0.0
C709 C 0.99744 0.94286 0.42095 0.0
C710 C 0.92233 0.93303 0.40484 0.0
C711 C 0.88282 0.89801 0.39976 0.0
C712 C 0.83595 0.88308 0.40279 0.0
C713 C 0.82973 0.90308 0.41117 0.0
C714 C 0.86905 0.93759 0.41628 0.0
H715 H 0.02136 0.94051 0.42632 0.0
H716 H 0.96127 0.91113 0.4217 0.0
H717 H 0.01142 0.94181 0.41382 0.0
H718 H 0.95787 0.94515 0.40211 0.0
H719 H 0.8889 0.88379 0.39329 0.0
H720 H 0.92457 0.14388 0.59715 0.0
H721 H 0.92963 0.07965 0.58916 0.0
H722 H 1.00673 0.06808 0.61301 0.0
H723 H 1.00177 0.13269 0.6211 0.0
H724 H 0.0445 0.06163 0.59553 0.0
H725 H 0.84873 0.93936 0.59629 0.0
H726 H 0.86585 0.99564 0.59077 0.0
H727 H 0.87771 0.99358 0.60319 0.0
C728 C 0.94242 0.12763 0.60075 0.0
C729 C 0.96218 0.14325 0.60985 0.0
C730 C 0.94529 0.09077 0.59615 0.0
C731 C 0.96765 0.06813 0.60054 0.0
C732 C 0.98902 0.08472 0.60948 0.0
H733 H 0.92031 0.78864 0.58381 0.0
H734 H 0.92649 0.8576 0.59215 0.0
C735 C 0.9863 0.12184 0.61409 0.0
C736 C 0.96779 0.02671 0.59585 0.0
H737 H 0.89376 0.91535 0.58683 0.0
C738 C 0.01155 0.02956 0.59365 0.0
C739 C 0.92485 0.98445 0.59351 0.0
C740 C 0.87661 0.97771 0.59614 0.0
C741 C 0.01349 0.99186 0.58903 0.0
C742 C 0.9705 0.9503 0.58639 0.0
C743 C 0.92681 0.94723 0.58874 0.0
C744 C 0.96958 0.90894 0.5814 0.0
C745 C 0.06161 0.99657 0.58719 0.0
C746 C 0.99183 0.9144 0.57254 0.0
C747 C 0.98837 0.87473 0.56772 0.0
C748 C 0.96206 0.82855 0.5716 0.0
C749 C 0.94031 0.82341 0.58052 0.0
C750 C 0.94398 0.86297 0.58534 0.0
H751 H 0.08959 0.02373 0.5919 0.0
H752 H 0.06041 0.96199 0.58826 0.0
H753 H 0.07223 0.00799 0.57974 0.0
H754 H 0.01088 0.94917 0.56921 0.0
H755 H 1.00502 0.88004 0.56082 0.0
H756 H 0.17534 0.03609 0.73766 0.0
H757 H 0.11417 0.04429 0.74645 0.0
H758 H 0.03387 0.8919 0.75045 0.0
H759 H 0.09445 0.88354 0.74179 0.0
H760 H 0.01824 0.0085 0.74352 0.0
H761 H 0.04333 0.93767 0.77742 0.0
H762 H 0.08513 0.95431 0.76772 0.0
H763 H 0.03128 0.89697 0.76778 0.0
C764 C 0.1446 1.00434 0.74039 0.0
C765 C 0.14042 0.95921 0.73912 0.0
C766 C 0.10966 0.00908 0.74545 0.0
C767 C 0.06981 0.96885 0.74936 0.0
C768 C 0.0649 0.92372 0.74781 0.0
H769 H 0.80321 0.88506 0.77674 0.0
H770 H 0.87426 0.89393 0.76882 0.0
C771 C 0.09975 0.91899 0.74283 0.0
C772 C 0.03284 0.9734 0.75494 0.0
H773 H 0.97097 0.94055 0.7759 0.0
C774 C 1.0084 0.99428 0.75065 0.0
C775 C 0.01997 0.95517 0.76429 0.0
C776 C 0.04665 0.93524 0.76961 0.0
C777 C 0.97015 0.99526 0.75527 0.0
C778 C 0.9561 0.97519 0.76445 0.0
C779 C 0.98149 0.95571 0.76885 0.0
C780 C 0.91319 0.97101 0.76936 0.0
C781 C 0.94367 0.01591 0.75014 0.0
C782 C 0.91138 0.01141 0.77247 0.0
C783 C 0.87047 0.00642 0.77707 0.0
C784 C 0.8304 0.96092 0.77858 0.0
C785 C 0.83284 0.92068 0.77556 0.0
C786 C 0.87368 0.92567 0.77106 0.0
H787 H 0.95405 0.02317 0.74254 0.0
H788 H 0.90454 0.99121 0.75059 0.0
H789 H 0.95165 0.04998 0.75357 0.0
H790 H 0.94165 0.04679 0.77137 0.0
H791 H 0.86985 0.03813 0.77928 0.0
H792 H 0.84487 0.86612 0.94658 0.0
H793 H 0.90588 0.936 0.93785 0.0
H794 H 0.99122 0.86841 0.93522 0.0
H795 H 0.93095 0.79913 0.94383 0.0
H796 H 1.00248 0.999 0.94112 0.0
H797 H 0.9809 0.89981 0.90779 0.0
H798 H 0.93848 0.87538 0.9174 0.0
H799 H 0.99283 0.87283 0.91775 0.0
C800 C 0.87674 0.8663 0.94418 0.0
C801 C 0.88242 0.82645 0.94578 0.0
C802 C 0.91156 0.90623 0.93916 0.0
C803 C 0.95272 0.9071 0.93563 0.0
C804 C 0.9592 0.86815 0.93757 0.0
H805 H 0.21749 0.08998 0.90744 0.0
H806 H 0.14797 0.02825 0.91583 0.0
C807 C 0.92453 0.82838 0.94252 0.0
C808 C 0.98928 0.94839 0.92997 0.0
H809 H 0.05195 0.97605 0.90912 0.0
C810 C 0.01283 0.99414 0.93407 0.0
C811 C 1.00279 0.94231 0.92072 0.0
C812 C 0.97709 0.89503 0.91561 0.0
C813 C 0.05089 0.0332 0.92938 0.0
C814 C 0.06556 0.02655 0.92031 0.0
C815 C 0.04101 0.98118 0.9161 0.0
C816 C 0.10792 0.06529 0.91527 0.0
C817 C 0.07646 0.08088 0.93433 0.0
C818 C 0.10863 0.10677 0.91203 0.0
C819 C 0.14866 0.14244 0.90719 0.0
C820 C 0.18893 0.13749 0.90552 0.0
C821 C 0.18771 0.09564 0.90872 0.0
C822 C 0.14773 0.06002 0.91349 0.0
H823 H 0.06648 0.07815 0.94194 0.0
H824 H 0.11574 0.09646 0.9338 0.0
H825 H 0.06709 0.10583 0.93083 0.0
H826 H 0.0781 0.11141 0.91319 0.0
H827 H 0.14829 0.17413 0.90487 0.0
H828 H 0.54713 0.60148 0.97735 0.0
H829 H 0.46434 0.54922 0.9826 0.0
H830 H 0.51516 0.53605 0.01009 0.0
H831 H 0.59737 0.58737 1.00491 0.0
H832 H 0.41569 0.45213 0.99115 0.0
H833 H 0.42619 0.59271 0.01529 0.0
H834 H 0.46826 0.6054 1.00577 0.0
H835 H 0.47372 0.57964 0.01667 0.0
C836 C 0.54067 0.58687 0.98446 0.0
C837 C 0.57897 0.59936 0.99075 0.0
C838 C 0.49335 0.55712 0.98746 0.0
C839 C 0.48359 0.53944 0.9968 0.0
C840 C 0.52181 0.55002 1.00292 0.0
H841 H 0.22721 0.32762 0.02578 0.0
H842 H 0.30307 0.36964 0.01717 0.0
C843 C 0.56886 0.57959 0.99995 0.0
C844 C 0.43374 0.51179 1.00038 0.0
H845 H 0.3586 0.51546 0.01697 0.0
C846 C 0.40299 0.466 0.99675 0.0
C847 C 0.41708 0.53013 1.00762 0.0
C848 C 0.4478 0.57982 0.01153 0.0
C849 C 0.35642 0.43761 1.00036 0.0
C850 C 0.34043 0.45537 1.00784 0.0
C851 C 0.37088 0.50164 0.01128 0.0
C852 C 0.29233 0.42698 0.01226 0.0
C853 C 0.32461 0.38907 0.99607 0.0
C854 C 0.26095 0.44511 0.0124 0.0
C855 C 0.21768 0.42125 0.01733 0.0
C856 C 0.20476 0.37875 0.0223 0.0
C857 C 0.23564 0.35987 0.02193 0.0
C858 C 0.27908 0.38387 0.01699 0.0
H859 H 0.33708 0.38593 0.9889 0.0
H860 H 0.32497 0.36147 1.00069 0.0
H861 H 0.28719 0.38148 0.99553 0.0
H862 H 0.27033 0.47827 0.00881 0.0
H863 H 0.19453 0.43649 0.01734 0.0
H864 H 0.94647 0.53387 0.14587 0.0
H865 H 0.9259 0.45518 0.15231 0.0
H866 H 0.99736 0.52164 0.1785 0.0
H867 H 0.0168 0.5996 0.17221 0.0
H868 H 0.97731 0.41524 0.15942 0.0
H869 H 0.86544 0.42717 0.18787 0.0
H870 H 0.88773 0.46849 0.17806 0.0
H871 H 0.92556 0.47621 0.18808 0.0
C872 C 0.958 0.53153 0.15297 0.0
C873 C 0.98238 0.57269 0.15861 0.0
C874 C 0.94623 0.48665 0.15665 0.0
C875 C 0.95894 0.48234 0.16599 0.0
C876 C 0.98576 0.52382 0.1714 0.0
H877 H 0.90469 0.24605 0.20345 0.0
H878 H 0.94146 0.32388 0.19543 0.0
C879 C 0.99694 0.56839 0.16779 0.0
C880 C 0.94316 0.43464 0.17025 0.0
H881 H 0.88209 0.36373 0.18911 0.0
C882 C 0.95633 0.40389 0.16588 0.0
C883 C 0.9155 0.41965 0.17868 0.0
C884 C 0.8973 0.44938 0.1834 0.0
C885 C 0.9434 0.35903 0.16982 0.0
C886 C 0.91657 0.34462 0.17832 0.0
C887 C 0.90329 0.37523 0.18267 0.0
C888 C 0.89944 0.29688 0.18261 0.0
C889 C 0.95888 0.32753 0.16495 0.0
C890 C 0.86414 0.25593 0.17801 0.0
C891 C 0.84297 0.21169 0.18259 0.0
C892 C 0.85679 0.20747 0.19185 0.0
C893 C 0.89369 0.24814 0.19629 0.0
C894 C 0.91453 0.29258 0.19173 0.0
H895 H 0.98766 0.34761 0.15968 0.0
H896 H 0.97166 0.3109 0.17022 0.0
H897 H 0.9279 0.29842 0.16116 0.0
H898 H 0.85147 0.25853 0.17104 0.0
H899 H 0.81471 0.18091 0.17899 0.0
H900 H 0.43473 0.01593 0.33686 0.0
H901 H 0.48708 0.98608 0.34192 0.0
H902 H 0.46688 0.91533 0.31496 0.0
H903 H 0.41383 0.94508 0.30984 0.0
H904 H 0.45888 0.8901 0.34362 0.0
H905 H 0.61291 0.98206 0.31899 0.0
H906 H 0.5703 1.00192 0.32083 0.0
H907 H 0.55504 0.95096 0.31347 0.0
C908 C 0.44142 0.99414 0.33198 0.0
C909 C 0.41956 0.98249 0.32298 0.0
C910 C 0.47164 0.97729 0.33487 0.0
C911 C 0.48115 0.94859 0.32883 0.0
C912 C 0.4607 0.93804 0.3197 0.0
H913 H 0.57907 0.75812 0.34934 0.0
H914 H 0.53748 0.79329 0.34112 0.0
C915 C 0.43033 0.95502 0.31678 0.0
C916 C 0.50954 0.92717 0.33245 0.0
H917 H 0.61299 0.92421 0.32933 0.0
C918 C 0.49252 0.89752 0.34047 0.0
C919 C 0.55367 0.93718 0.32841 0.0
C920 C 0.57445 0.97006 0.31999 0.0
C921 C 0.51821 0.87757 0.34455 0.0
C922 C 0.56197 0.88692 0.34043 0.0
C923 C 0.57928 0.9168 0.33244 0.0
C924 C 0.59014 0.8662 0.34449 0.0
C925 C 0.49872 0.84733 0.35336 0.0
C926 C 0.63454 0.8956 0.34882 0.0
C927 C 0.65848 0.87555 0.35357 0.0
C928 C 0.63844 0.82567 0.35406 0.0
C929 C 0.5951 0.79659 0.34928 0.0
C930 C 0.57129 0.81662 0.34455 0.0
H931 H 0.47067 0.85234 0.35682 0.0
H932 H 0.48266 0.80914 0.35141 0.0
H933 H 0.52766 0.85591 0.35858 0.0
H934 H 0.64978 0.93398 0.34885 0.0
H935 H 0.69158 0.89903 0.35721 0.0
H936 H 0.77016 0.66456 0.53214 0.0
H937 H 0.69546 0.62409 0.52304 0.0
H938 H 0.7699 0.60239 0.4999 0.0
H939 H 0.84417 0.64172 0.50904 0.0
H940 H 0.66497 0.63713 0.50556 0.0
H941 H 0.66797 0.46706 0.50598 0.0
H942 H 0.70796 0.51774 0.51311 0.0
H943 H 0.71991 0.51586 0.50069 0.0
C944 C 0.77066 0.65183 0.52505 0.0
C945 C 0.81283 0.65577 0.52134 0.0
C946 C 0.72797 0.62858 0.51987 0.0
C947 C 0.72679 0.60908 0.51088 0.0
C948 C 0.76958 0.61585 0.50693 0.0
H949 H 0.48068 0.41751 0.47522 0.0
H950 H 0.5624 0.47709 0.48005 0.0
C951 C 0.81204 0.63856 0.51213 0.0
C952 C 0.68057 0.57978 0.50585 0.0
H953 H 0.60595 0.46763 0.49728 0.0
C954 C 0.65216 0.60013 0.50372 0.0
C955 C 0.66375 0.53139 0.50345 0.0
C956 C 0.6912 0.5065 0.50599 0.0
C957 C 0.6074 0.57338 0.49929 0.0
C958 C 0.59046 0.52495 0.49701 0.0
C959 C 0.61927 0.50491 0.49894 0.0
C960 C 0.54115 0.49306 0.49351 0.0
C961 C 0.57842 0.59704 0.49713 0.0
C962 C 0.50228 0.48254 0.49943 0.0
C963 C 0.45602 0.44851 0.49673 0.0
C964 C 0.4475 0.42418 0.48803 0.0
C965 C 0.48622 0.43591 0.48193 0.0
C966 C 0.5328 0.46976 0.48469 0.0
H967 H 0.60117 0.63651 0.49685 0.0
H968 H 0.55923 0.58419 0.49027 0.0
H969 H 0.55147 0.58806 0.50282 0.0
H970 H 0.50789 0.49948 0.50631 0.0
H971 H 0.42686 0.44064 0.50153 0.0
H972 H 0.09895 0.45473 0.66579 0.0
H973 H 0.11166 0.53059 0.67195 0.0
H974 H 0.01148 0.52905 0.65156 0.0
H975 H 0.998 0.45199 0.64538 0.0
H976 H 0.10327 0.62263 0.65472 0.0
H977 H 1.00441 0.53689 0.68777 0.0
H978 H 0.04832 0.52079 0.6846 0.0
H979 H 0.99763 0.50376 0.677 0.0
C980 C 0.07957 0.47042 0.66259 0.0
C981 C 0.04683 0.44688 0.6552 0.0
C982 C 0.08695 0.51385 0.66611 0.0
C983 C 0.06179 0.53492 0.66235 0.0
C984 C 0.03095 0.51308 0.65461 0.0
H985 H 0.11264 0.81474 0.6841 0.0
H986 H 0.07453 0.73971 0.67498 0.0
C987 C 0.02347 0.46927 0.65106 0.0
C988 C 0.06725 0.57888 0.66684 0.0
H989 H 0.05659 0.62155 0.68833 0.0
C990 C 0.09215 0.62248 0.66199 0.0
C991 C 0.05252 0.57844 0.67631 0.0
C992 C 0.02383 0.53242 0.68171 0.0
C993 C 0.10558 0.666 0.66662 0.0
C994 C 0.0933 0.66563 0.67628 0.0
C995 C 0.06606 0.6218 0.68093 0.0
C996 C 0.11336 0.71005 0.68201 0.0
C997 C 0.13535 0.7122 0.66134 0.0
C998 C 0.14653 0.71751 0.68917 0.0
C999 C 0.16806 0.75992 0.69436 0.0
C1000 C 0.1567 0.79584 0.69256 0.0
C1001 C 0.12198 0.78764 0.68565 0.0
C1002 C 0.10057 0.74507 0.68038 0.0
H1003 H 0.14646 0.70646 0.65422 0.0
H1004 H 0.11441 0.73054 0.66039 0.0
H1005 H 0.1678 0.73625 0.6655 0.0
H1006 H 0.15667 0.69086 0.6906 0.0
H1007 H 0.1942 0.76493 0.69972 0.0
H1008 H 0.37832 0.20971 0.84379 0.0
H1009 H 0.41618 0.17399 0.83446 0.0
H1010 H 0.39103 0.0748 0.8572 0.0
H1011 H 0.35226 0.10995 0.86649 0.0
H1012 H 0.49598 0.17442 0.83909 0.0
H1013 H 0.35244 0.98687 0.83465 0.0
H1014 H 0.34072 0.03307 0.83863 0.0
H1015 H 0.36168 1.00503 0.84686 0.0
C1016 C 0.3802 0.17976 0.84674 0.0
C1017 C 0.36237 0.16266 0.85588 0.0
C1018 C 0.4018 0.15934 0.84139 0.0
C1019 C 0.40614 0.12135 0.84506 0.0
C1020 C 0.38712 0.10326 0.85409 0.0
H1021 H 0.57773 0.9945 0.83558 0.0
H1022 H 0.51968 0.01767 0.84039 0.0
C1023 C 0.36506 0.12346 0.85942 0.0
C1024 C 0.43444 0.10387 0.83982 0.0
H1025 H 0.43249 1.00329 0.83173 0.0
C1026 C 0.48179 0.13709 0.83734 0.0
C1027 C 0.41603 0.05517 0.83752 0.0
C1028 C 0.36478 0.01806 0.83947 0.0
C1029 C 0.51175 0.12277 0.83302 0.0
C1030 C 0.4938 0.07391 0.83101 0.0
C1031 C 0.44614 0.04077 0.83325 0.0
C1032 C 0.5254 0.05621 0.82746 0.0
C1033 C 0.56306 0.15974 0.83103 0.0
C1034 C 0.547 0.06907 0.81846 0.0
C1035 C 0.58046 0.05582 0.81567 0.0
C1036 C 0.59299 0.02987 0.82189 0.0
C1037 C 0.56956 0.01532 0.83071 0.0
C1038 C 0.53608 0.02821 0.83344 0.0
H1039 H 0.57332 0.19462 0.8344 0.0
H1040 H 0.58745 0.14737 0.83365 0.0
H1041 H 0.56833 0.1653 0.82325 0.0
H1042 H 0.5388 0.09023 0.81368 0.0
H1043 H 0.5979 0.06747 0.80885 0.0
H1044 H 0.5769 0.7596 0.81587 0.0
H1045 H 0.54112 0.68608 0.82513 0.0
H1046 H 0.66981 0.74027 0.84179 0.0
H1047 H 0.70581 0.81489 0.83256 0.0
H1048 H 0.57183 0.61915 0.82823 0.0
H1049 H 0.56319 0.70563 0.86182 0.0
H1050 H 0.57372 0.73507 0.85046 0.0
H1051 H 0.62039 0.72947 0.85611 0.0
C1052 C 0.59769 0.75594 0.82149 0.0
C1053 C 0.64398 0.7933 0.82356 0.0
C1054 C 0.57726 0.71379 0.82676 0.0
C1055 C 0.60245 0.70795 0.83425 0.0
C1056 C 0.64943 0.74435 0.83613 0.0
H1057 H 0.45995 0.44723 0.87028 0.0
H1058 H 0.52441 0.52403 0.86419 0.0
C1059 C 0.67011 0.78671 0.8308 0.0
C1060 C 0.57828 0.66389 0.84011 0.0
H1061 H 0.52455 0.62187 0.86165 0.0
C1062 C 0.5623 0.61979 0.8356 0.0
C1063 C 0.56583 0.66474 0.84972 0.0
C1064 C 0.58131 0.71113 0.85485 0.0
C1065 C 0.53251 0.57665 0.84029 0.0
C1066 C 0.51792 0.57757 0.84971 0.0
C1067 C 0.53595 0.62141 0.85443 0.0
C1068 C 0.47922 0.53384 0.8542 0.0
C1069 C 0.51513 0.53028 0.83502 0.0
C1070 C 0.43248 0.515 0.85082 0.0
C1071 C 0.39591 0.47174 0.8543 0.0
C1072 C 0.40517 0.44609 0.86122 0.0
C1073 C 0.45166 0.46617 0.86496 0.0
C1074 C 0.4885 0.50984 0.86147 0.0
H1075 H 0.53779 0.53465 0.82874 0.0
H1076 H 0.51459 0.5026 0.83976 0.0
H1077 H 0.47812 0.51731 0.8325 0.0
H1078 H 0.42449 0.53334 0.84531 0.0
H1079 H 0.36037 0.45787 0.85142 0.0
H1080 H 0.04831 0.45435 0.02725 0.0
H1081 H 0.04493 0.52247 0.02043 0.0
H1082 H 0.89406 0.45244 0.02641 0.0
H1083 H 0.89765 0.38666 0.03367 0.0
H1084 H 0.99979 0.52767 1.0055 0.0
H1085 H 0.93105 0.58125 0.03592 0.0
H1086 H 0.95352 0.54052 0.03721 0.0
H1087 H 0.89219 0.51888 0.03384 0.0
C1088 C 0.01468 0.45401 0.0273 0.0
C1089 C 0.97325 0.41457 0.03099 0.0
C1090 C 0.01272 0.4929 0.02335 0.0
C1091 C 0.96939 0.49324 0.02306 0.0
C1092 C 0.92827 0.45402 0.02678 0.0
H1093 H 0.85156 0.59271 0.98199 0.0
H1094 H 0.8918 0.55922 0.99097 0.0
C1095 C 0.93026 0.41566 0.03079 0.0
C1096 C 0.96548 0.53228 0.01825 0.0
H1097 H 0.90979 0.59794 0.02028 0.0
C1098 C 0.98101 0.54382 0.00881 0.0
C1099 C 0.94238 0.55485 0.02259 0.0
C1100 C 0.92942 0.54859 0.03298 0.0
C1101 C 0.97067 0.57407 1.00339 0.0
C1102 C 0.94246 0.59192 1.0074 0.0
C1103 C 0.93039 0.58353 0.01707 0.0
C1104 C 0.92135 0.61529 1.00155 0.0
C1105 C 0.98979 0.58604 0.9934 0.0
C1106 C 0.92314 0.65764 1.00456 0.0
C1107 C 0.89849 0.67624 0.99956 0.0
C1108 C 0.87138 0.65279 0.99145 0.0
C1109 C 0.87116 0.61138 0.9883 0.0
C1110 C 0.89515 0.59258 0.99334 0.0
H1111 H 0.02478 0.58751 0.99284 0.0
H1112 H 0.96472 0.5576 0.98851 0.0
H1113 H 0.99432 0.62077 0.99101 0.0
H1114 H 0.94276 0.67578 0.0109 0.0
H1115 H 0.89927 0.70795 1.00226 0.0
H1116 H 0.53629 0.93674 0.20467 0.0
H1117 H 0.45816 0.91932 0.19832 0.0
H1118 H 0.52703 0.99797 0.17289 0.0
H1119 H 0.60427 0.01426 0.17908 0.0
H1120 H 0.41913 0.97412 0.19163 0.0
H1121 H 0.43363 0.86706 0.16246 0.0
H1122 H 0.47343 0.88682 0.17253 0.0
H1123 H 0.48309 0.92693 0.16283 0.0
C1124 C 0.53455 0.95066 0.19778 0.0
C1125 C 0.57605 0.976 0.19228 0.0
C1126 C 0.49004 0.94069 0.19415 0.0
C1127 C 0.48661 0.95626 0.18501 0.0
C1128 C 0.52856 0.98434 0.17982 0.0
H1129 H 0.25442 0.90429 0.14655 0.0
H1130 H 0.33143 0.94155 0.15491 0.0
C1131 C 0.57268 0.99371 0.18338 0.0
C1132 C 0.43937 0.94149 0.18062 0.0
H1133 H 0.37045 0.88397 0.16131 0.0
C1134 C 0.40838 0.95428 0.18502 0.0
C1135 C 0.42521 0.91536 0.17201 0.0
C1136 C 0.45534 0.8978 0.16723 0.0
C1137 C 0.36406 0.94242 0.18092 0.0
C1138 C 0.35041 0.91699 0.17225 0.0
C1139 C 0.38132 0.90413 0.16789 0.0
C1140 C 0.30304 0.90049 0.1678 0.0
C1141 C 0.3324 0.95764 0.18583 0.0
C1142 C 0.26151 0.86572 0.17233 0.0
C1143 C 0.21774 0.84437 0.16757 0.0
C1144 C 0.21457 0.85735 0.15817 0.0
C1145 C 0.25571 0.89394 0.15381 0.0
C1146 C 0.29968 0.91505 0.15857 0.0
H1147 H 0.35258 0.98661 0.19106 0.0
H1148 H 0.31528 0.97003 0.18059 0.0
H1149 H 0.3037 0.92668 0.18969 0.0
H1150 H 0.26332 0.85335 0.17938 0.0
H1151 H 0.18656 0.81631 0.1711 0.0
H1152 H 0.54932 0.57191 0.3675 0.0
H1153 H 0.4838 0.4992 0.36031 0.0
H1154 H 0.58641 0.47022 0.34691 0.0
H1155 H 0.65146 0.54254 0.35385 0.0
H1156 H 0.46629 0.46679 0.33977 0.0
H1157 H 0.49833 0.34982 0.36378 0.0
H1158 H 0.5191 0.41181 0.36641 0.0
H1159 H 0.55121 0.39596 0.35815 0.0
C1160 C 0.55784 0.55042 0.3629 0.0
C1161 C 0.60568 0.56269 0.36138 0.0
C1162 C 0.5204 0.5088 0.35884 0.0
C1163 C 0.53032 0.4789 0.35323 0.0
C1164 C 0.57795 0.49229 0.35136 0.0
H1165 H 0.40258 0.25946 0.31242 0.0
H1166 H 0.43886 0.33411 0.32132 0.0
C1167 C 0.61513 0.53362 0.35538 0.0
C1168 C 0.4916 0.43285 0.34944 0.0
H1169 H 0.45218 0.31332 0.34986 0.0
C1170 C 0.46253 0.4331 0.34207 0.0
C1171 C 0.48624 0.38886 0.35254 0.0
C1172 C 0.51504 0.38631 0.36072 0.0
C1173 C 0.43022 0.39069 0.33735 0.0
C1174 C 0.42742 0.34711 0.34 0.0
C1175 C 0.45444 0.34664 0.34776 0.0
C1176 C 0.40038 0.30254 0.33434 0.0
C1177 C 0.39998 0.3931 0.32946 0.0
C1178 C 0.36661 0.25959 0.33867 0.0
C1179 C 0.34598 0.21653 0.33358 0.0
C1180 C 0.35931 0.21557 0.32412 0.0
C1181 C 0.39184 0.2589 0.31972 0.0
C1182 C 0.41222 0.30178 0.32478 0.0
H1183 H 0.39388 0.42371 0.33045 0.0
H1184 H 0.41882 0.39828 0.3226 0.0
H1185 H 0.36487 0.35973 0.32902 0.0
H1186 H 0.35721 0.25919 0.34606 0.0
H1187 H 0.32137 0.18375 0.33719 0.0
H1188 H 0.9954 0.5545 0.53606 0.0
H1189 H 0.01156 0.49109 0.53092 0.0
H1190 H 0.13191 0.59416 0.51458 0.0
H1191 H 0.11637 0.65701 0.51973 0.0
H1192 H 0.01359 0.46391 0.51158 0.0
H1193 H 0.18685 0.52323 0.52933 0.0
H1194 H 0.14624 0.54323 0.53303 0.0
H1195 H 0.18562 0.57096 0.5231 0.0
C1196 C 0.02581 0.56359 0.53153 0.0
C1197 C 0.05456 0.61066 0.52827 0.0
C1198 C 0.03483 0.52738 0.52856 0.0
C1199 C 0.07324 0.538 0.52244 0.0
C1200 C 0.10254 0.5852 0.51941 0.0
H1201 H 0.19438 0.44078 0.48274 0.0
H1202 H 0.1594 0.47671 0.49282 0.0
C1203 C 0.09338 0.62106 0.5223 0.0
C1204 C 0.08176 0.50007 0.51864 0.0
H1205 H 0.17112 0.47443 0.5153 0.0
C1206 C 0.04749 0.46527 0.51258 0.0
C1207 C 0.12596 0.5018 0.51998 0.0
C1208 C 0.16308 0.53653 0.52679 0.0
C1209 C 0.05778 0.43456 0.5073 0.0
C1210 C 0.10326 0.43882 0.50814 0.0
C1211 C 0.13632 0.47148 0.51464 0.0
C1212 C 0.11955 0.41413 0.50156 0.0
C1213 C 0.02131 0.39973 0.50042 0.0
C1214 C 0.10781 0.36655 0.50303 0.0
C1215 C 0.12798 0.34581 0.49727 0.0
C1216 C 0.16041 0.37257 0.49003 0.0
C1217 C 0.17015 0.41946 0.48835 0.0
C1218 C 0.15009 0.44002 0.49408 0.0
H1219 H 0.98712 0.40001 0.50073 0.0
H1220 H 0.03567 0.40864 0.49308 0.0
H1221 H 0.01414 0.36311 0.502 0.0
H1222 H 0.08437 0.3461 0.5088 0.0
H1223 H 0.12002 0.30972 0.49876 0.0
H1224 H 0.4501 0.99904 0.70282 0.0
H1225 H 0.53063 0.01987 0.69738 0.0
H1226 H 0.52775 0.11801 0.67705 0.0
H1227 H 0.44823 0.09789 0.68247 0.0
H1228 H 0.55774 0.01207 0.67769 0.0
H1229 H 0.65597 0.19693 0.69155 0.0
H1230 H 0.59835 0.15261 0.69609 0.0
H1231 H 0.60251 0.18356 0.68521 0.0
C1232 C 0.46701 0.02551 0.69728 0.0
C1233 C 0.44274 0.04671 0.69305 0.0
C1234 C 0.5128 0.03713 0.69415 0.0
C1235 C 0.53525 0.07073 0.68686 0.0
C1236 C 0.51132 0.09236 0.68275 0.0
H1237 H 0.76785 0.20456 0.64947 0.0
H1238 H 0.69459 0.1702 0.65881 0.0
C1239 C 0.46568 0.08053 0.6858 0.0
C1240 C 0.58304 0.08273 0.68321 0.0
H1241 H 0.69379 0.17801 0.679 0.0
C1242 C 0.58792 0.04806 0.67813 0.0
C1243 C 0.6223 0.12966 0.68382 0.0
C1244 C 0.61981 0.16777 0.68954 0.0
C1245 C 0.63014 0.05998 0.67312 0.0
C1246 C 0.6684 0.10762 0.6733 0.0
C1247 C 0.66429 0.14156 0.67881 0.0
C1248 C 0.71129 0.12442 0.66718 0.0
C1249 C 0.63261 0.02234 0.66724 0.0
C1250 C 0.74474 0.10937 0.66865 0.0
C1251 C 0.78697 0.12911 0.66328 0.0
C1252 C 0.79648 0.16448 0.65644 0.0
C1253 C 0.76197 0.17797 0.65478 0.0
C1254 C 0.72 0.15829 0.6601 0.0
H1255 H 0.59752 0.98891 0.66678 0.0
H1256 H 0.6451 0.03578 0.65994 0.0
H1257 H 0.65871 0.01376 0.67047 0.0
H1258 H 0.73897 0.08364 0.67415 0.0
H1259 H 0.81304 0.11827 0.66476 0.0
H1260 H 0.9327 0.62711 0.10942 0.0
H1261 H 0.90562 0.55632 0.09908 0.0
H1262 H 0.98896 0.51228 0.11567 0.0
H1263 H 0.01545 0.58155 0.12581 0.0
H1264 H 0.96437 0.53603 0.08801 0.0
H1265 H 0.86662 0.38699 0.11293 0.0
H1266 H 0.87947 0.44689 0.11556 0.0
H1267 H 0.92351 0.42941 0.11778 0.0
C1268 C 0.9438 0.60135 0.111 0.0
C1269 C 0.9758 0.6097 0.1185 0.0
C1270 C 0.92868 0.56112 0.10506 0.0
C1271 C 0.94458 0.52824 0.10666 0.0
C1272 C 0.97503 0.53602 0.11437 0.0
H1273 H 0.02225 0.34239 0.08257 0.0
H1274 H 0.99605 0.38723 0.0924 0.0
C1275 C 0.99037 0.57601 0.12018 0.0
C1276 C 0.93417 0.48841 0.09989 0.0
H1277 H 0.90475 0.37099 0.09959 0.0
C1278 C 0.94997 0.49961 0.09045 0.0
C1279 C 0.91542 0.44069 0.10303 0.0
C1280 C 0.89484 0.42522 0.11286 0.0
C1281 C 0.95106 0.46554 0.08435 0.0
C1282 C 0.93548 0.41875 0.08773 0.0
C1283 C 0.9169 0.40679 0.09698 0.0
C1284 C 0.94432 0.3842 0.08228 0.0
C1285 C 0.97199 0.48076 0.07454 0.0
C1286 C 0.92229 0.36524 0.07347 0.0
C1287 C 0.93668 0.33852 0.06788 0.0
C1288 C 0.97351 0.33065 0.071 0.0
C1289 C 0.99323 0.34715 0.08005 0.0
C1290 C 0.97851 0.37316 0.08566 0.0
H1291 H 0.98777 0.51975 0.07341 0.0
H1292 H 1.00005 0.47113 0.07332 0.0
H1293 H 0.94357 0.46177 0.06916 0.0
H1294 H 0.89552 0.37287 0.07074 0.0
H1295 H 0.92171 0.32735 0.06084 0.0
H1296 H 0.66945 0.97384 0.24602 0.0
H1297 H 0.60505 0.95418 0.25746 0.0
H1298 H 0.5059 0.92104 0.23433 0.0
H1299 H 0.57007 0.93952 0.22296 0.0
H1300 H 0.56346 0.00601 0.25858 0.0
H1301 H 0.42036 0.81969 0.25285 0.0
H1302 H 0.48018 0.84232 0.24836 0.0
H1303 H 0.43809 0.85284 0.24196 0.0
C1304 C 0.63331 0.95968 0.24342 0.0
C1305 C 0.62448 0.95669 0.23361 0.0
C1306 C 0.59654 0.94906 0.24995 0.0
C1307 C 0.55012 0.93564 0.24683 0.0
C1308 C 0.54076 0.92995 0.23701 0.0
H1309 H 0.36223 0.02147 0.27021 0.0
H1310 H 0.40896 0.99762 0.26037 0.0
C1311 C 0.57754 0.94036 0.23048 0.0
C1312 C 0.51409 0.93506 0.25363 0.0
H1313 H 0.3968 0.87157 0.26057 0.0
C1314 C 0.52733 0.97613 0.25911 0.0
C1315 C 0.46666 0.89626 0.2544 0.0
C1316 C 0.45059 0.85011 0.24915 0.0
C1317 C 0.49443 0.98023 0.26499 0.0
C1318 C 0.4465 0.94255 0.26539 0.0
C1319 C 0.43342 0.90063 0.26022 0.0
C1320 C 0.40961 0.94837 0.27065 0.0
C1321 C 0.51097 0.02553 0.27061 0.0
C1322 C 0.39216 0.92674 0.27954 0.0
C1323 C 0.36458 0.93995 0.28518 0.0
C1324 C 0.3543 0.97503 0.28198 0.0
C1325 C 0.36907 0.99392 0.27282 0.0
C1326 C 0.39609 0.98056 0.2672 0.0
H1327 H 0.55051 0.04657 0.27118 0.0
H1328 H 0.49863 0.04799 0.26703 0.0
H1329 H 0.49556 0.01742 0.27788 0.0
H1330 H 0.40235 0.902 0.28238 0.0
H1331 H 0.35472 0.9257 0.2923 0.0
H1332 H 0.43316 0.34206 0.45722 0.0
H1333 H 0.50647 0.38776 0.44772 0.0
H1334 H 0.42898 0.42642 0.42811 0.0
H1335 H 0.35647 0.38034 0.43734 0.0
H1336 H 0.49241 0.41245 0.41872 0.0
H1337 H 0.58168 0.5313 0.44962 0.0
H1338 H 0.56403 0.46955 0.45117 0.0
H1339 H 0.51929 0.48653 0.44979 0.0
C1340 C 0.4316 0.3589 0.45068 0.0
C1341 C 0.389 0.35744 0.448 0.0
C1342 C 0.47371 0.38579 0.44534 0.0
C1343 C 0.47381 0.41175 0.43728 0.0
C1344 C 0.4303 0.40714 0.43428 0.0
H1345 H 0.64625 0.67835 0.41298 0.0
H1346 H 0.60256 0.60894 0.42314 0.0
C1347 C 0.38866 0.38057 0.43957 0.0
C1348 C 0.51875 0.44665 0.43222 0.0
H1349 H 0.62018 0.55524 0.43495 0.0
C1350 C 0.52086 0.44325 0.42229 0.0
C1351 C 0.55586 0.48723 0.43684 0.0
C1352 C 0.55524 0.49434 0.44742 0.0
C1353 C 0.55704 0.48018 0.41683 0.0
C1354 C 0.59327 0.52151 0.42142 0.0
C1355 C 0.59275 0.5236 0.4314 0.0
C1356 C 0.62692 0.56573 0.41602 0.0
C1357 C 0.554 0.476 0.40615 0.0
C1358 C 0.65752 0.56603 0.40884 0.0
C1359 C 0.68296 0.60632 0.40295 0.0
C1360 C 0.67831 0.64695 0.40419 0.0
C1361 C 0.65066 0.64766 0.41183 0.0
C1362 C 0.62548 0.60778 0.41766 0.0
H1363 H 0.51918 0.446 0.40372 0.0
H1364 H 0.55908 0.50947 0.40289 0.0
H1365 H 0.5826 0.46961 0.40349 0.0
H1366 H 0.66029 0.53454 0.40754 0.0
H1367 H 0.70352 0.60444 0.39707 0.0
H1368 H 0.1054 0.68908 0.56068 0.0
H1369 H 0.13249 0.64594 0.57111 0.0
H1370 H 1.00356 0.59338 0.58763 0.0
H1371 H 0.97738 0.63672 0.57748 0.0
H1372 H 0.07804 0.61344 0.59899 0.0
H1373 H 0.07597 0.50301 0.5685 0.0
H1374 H 0.11627 0.56615 0.5676 0.0
H1375 H 0.05295 0.54336 0.56754 0.0
C1376 C 0.08378 0.66957 0.56673 0.0
C1377 C 0.03928 0.66636 0.56826 0.0
C1378 C 0.09885 0.64423 0.57261 0.0
C1379 C 0.0696 0.6153 0.58008 0.0
C1380 C 0.02685 0.61506 0.58194 0.0
H1381 H 0.98226 0.34999 0.60415 0.0
H1382 H 1.00836 0.41997 0.59414 0.0
C1383 C 0.01188 0.64001 0.57611 0.0
C1384 C 0.08052 0.58236 0.58565 0.0
H1385 H 0.0846 0.47899 0.58367 0.0
C1386 C 0.08046 0.58455 0.59563 0.0
C1387 C 0.08328 0.54427 0.58131 0.0
C1388 C 0.08181 0.53856 0.57066 0.0
C1389 C 0.08021 0.5486 0.60134 0.0
C1390 C 0.08122 0.50958 0.59699 0.0
C1391 C 0.08415 0.5089 0.58703 0.0
C1392 C 0.07116 0.46569 0.60246 0.0
C1393 C 0.07532 0.55104 0.61196 0.0
C1394 C 0.09886 0.4668 0.61031 0.0
C1395 C 0.08385 0.42614 0.6161 0.0
C1396 C 0.04104 0.38379 0.61409 0.0
C1397 C 0.01552 0.38202 0.60587 0.0
C1398 C 0.03041 0.42221 0.60013 0.0
H1399 H 0.06668 0.579 0.61402 0.0
H1400 H 0.04693 0.51622 0.61475 0.0
H1401 H 0.10947 0.55948 0.61542 0.0
H1402 H 0.13102 0.49953 0.61218 0.0
H1403 H 0.10389 0.4288 0.62246 0.0
H1404 H 0.37053 0.08025 0.74137 0.0
H1405 H 0.43887 0.10733 0.75239 0.0
H1406 H 0.49046 0.0295 0.73612 0.0
H1407 H 0.42346 1.00283 0.72532 0.0
H1408 H 0.45849 0.04719 0.76349 0.0
H1409 H 0.61288 0.15434 0.74025 0.0
H1410 H 0.55306 0.14039 0.73714 0.0
H1411 H 0.57275 0.09815 0.73484 0.0
C1412 C 0.39743 0.07039 0.74001 0.0
C1413 C 0.39188 0.0399 0.73239 0.0
C1414 C 0.43625 0.0855 0.74635 0.0
C1415 C 0.47051 0.07112 0.74504 0.0
C1416 C 0.46556 0.04222 0.73721 0.0
H1417 H 0.65975 0.99969 0.76964 0.0
H1418 H 0.61487 0.02584 0.75981 0.0
C1419 C 0.42691 0.02682 0.73102 0.0
C1420 C 0.5089 0.08151 0.75217 0.0
H1421 H 0.62736 0.11527 0.75358 0.0
C1422 C 0.49568 0.06339 0.76143 0.0
C1423 C 0.55758 0.10258 0.74952 0.0
C1424 C 0.57496 0.1254 0.73992 0.0
C1425 C 0.52887 0.0623 0.76779 0.0
C1426 C 0.57687 0.08036 0.76488 0.0
C1427 C 0.59067 0.10124 0.75585 0.0
C1428 C 0.61111 0.07173 0.77052 0.0
C1429 C 0.51156 0.03871 0.77734 0.0
C1430 C 0.62625 0.09056 0.77971 0.0
C1431 C 0.65294 0.07616 0.78532 0.0
C1432 C 0.66471 0.04263 0.78183 0.0
C1433 C 0.65196 0.02622 0.77246 0.0
C1434 C 0.62593 0.04091 0.76685 0.0
H1435 H 0.47209 0.02078 0.77801 0.0
H1436 H 0.52285 0.01187 0.77855 0.0
H1437 H 0.52761 0.06601 0.78302 0.0
H1438 H 0.61577 0.11481 0.78269 0.0
H1439 H 0.66121 0.08846 0.7926 0.0
H1440 H 0.67895 0.66559 0.93715 0.0
H1441 H 0.61085 0.61938 0.92667 0.0
H1442 H 0.51466 0.60058 0.94961 0.0
H1443 H 0.58333 0.64833 0.96005 0.0
H1444 H 0.55146 0.52724 0.93024 0.0
H1445 H 0.44474 0.61764 0.92718 0.0
H1446 H 0.5059 0.64805 0.93127 0.0
H1447 H 0.45848 0.60965 0.93917 0.0
C1448 C 0.64329 0.65363 0.93982 0.0
C1449 C 0.63651 0.66152 0.94935 0.0
C1450 C 0.60427 0.62671 0.93385 0.0
C1451 C 0.55728 0.60629 0.93729 0.0
C1452 C 0.55033 0.61659 0.94668 0.0
H1453 H 0.33665 0.33634 0.91413 0.0
H1454 H 0.38502 0.40237 0.92497 0.0
C1455 C 0.58965 0.64416 0.95265 0.0
C1456 C 0.51694 0.56919 0.93146 0.0
H1457 H 0.40852 0.53769 0.92139 0.0
C1458 C 0.52035 0.5298 0.9283 0.0
C1459 C 0.47618 0.57223 0.92886 0.0
C1460 C 0.47109 0.61435 0.93171 0.0
C1461 C 0.48461 0.49364 0.9227 0.0
C1462 C 0.44329 0.49595 0.92028 0.0
C1463 C 0.43983 0.53552 0.92333 0.0
C1464 C 0.40435 0.45764 0.91442 0.0
C1465 C 0.49194 0.45356 0.91926 0.0
C1466 C 0.39614 0.46674 0.90504 0.0
C1467 C 0.36743 0.42884 0.89887 0.0
C1468 C 0.34634 0.3813 0.90201 0.0
C1469 C 0.35149 0.37264 0.91159 0.0
C1470 C 0.3797 0.41039 0.91776 0.0
H1471 H 0.52993 0.46288 0.91977 0.0
H1472 H 0.47046 0.42146 0.9237 0.0
H1473 H 0.48015 0.44421 0.91177 0.0
H1474 H 0.41482 0.5028 0.90228 0.0
H1475 H 0.36531 0.43649 0.89146 0.0
loop_
_geom_bond_atom_site_label_1
_geom_bond_atom_site_label_2
_geom_bond_distance
_geom_bond_site_symmetry_2
_ccdc_geom_bond_type
C0 C1 1.351 . S
C0 N3 1.368 . S
C0 H5 0.931 . S
C1 C0 1.351 . S
C1 N2 1.373 . S
C1 H29 0.930 . S
N2 C1 1.373 . S
N2 C4 1.340 . S
N3 C0 1.368 . S
N3 C4 1.321 . S
N3 Co6 2.135 . S
C4 N2 1.340 . S
C4 N3 1.321 . S
C4 H28 0.930 . S
H5 C0 0.931 . S
Co6 N3 2.135 . S
Co6 N9 2.121 1_455 S
Co6 O14 2.055 1_455 S
Co6 O17 2.039 1_455 S
Co6 N20 2.140 . S
C7 O8 1.227 1_655 S
C7 O17 1.265 . S
O8 C7 1.227 1_455 S
N9 Co6 2.121 1_655 S
N9 C11 1.375 . S
N9 C12 1.313 . S
C10 C11 1.338 . S
C10 N13 1.377 . S
C10 H30 0.930 . S
C11 N9 1.375 . S
C11 C10 1.338 . S
C11 H15 0.931 . S
C12 N9 1.313 . S
C12 N13 1.344 . S
C12 H16 0.930 . S
N13 C10 1.377 . S
N13 C12 1.344 . S
O14 Co6 2.055 1_655 S
O14 C18 1.253 1_655 S
H15 C11 0.931 . S
H16 C12 0.930 . S
O17 Co6 2.039 1_655 S
O17 C7 1.265 . S
C18 O14 1.253 1_455 S
C18 O19 1.227 . S
O19 C18 1.227 . S
N20 Co6 2.140 . S
N20 C23 1.346 . S
N20 C24 1.345 . S
C21 C22 1.387 . S
C21 C25 1.391 . S
C22 C21 1.387 . S
C22 C23 1.369 . S
C22 H31 0.929 . S
C23 N20 1.346 . S
C23 C22 1.369 . S
C23 H26 0.928 . S
C24 N20 1.345 . S
C24 C25 1.371 . S
C24 H27 0.931 . S
C25 C21 1.391 . S
C25 C24 1.371 . S
C25 H32 0.930 . S
H26 C23 0.928 . S
H27 C24 0.931 . S
H28 C4 0.930 . S
H29 C1 0.930 . S
H30 C10 0.930 . S
H31 C22 0.929 . S
H32 C25 0.930 . S
C33 C34 1.351 . S
C33 N36 1.368 . S
C33 H38 0.931 . S
C34 C33 1.351 . S
C34 N35 1.373 . S
C34 H62 0.930 . S
N35 C34 1.373 . S
N35 C37 1.340 . S
N36 C33 1.368 . S
N36 C37 1.321 . S
N36 Co39 2.135 . S
C37 N35 1.340 . S
C37 N36 1.321 . S
C37 H61 0.930 . S
H38 C33 0.931 . S
Co39 N36 2.135 . S
Co39 N42 2.121 1_545 S
Co39 O47 2.055 1_545 S
Co39 O50 2.039 1_545 S
Co39 N53 2.140 . S
C40 O41 1.227 1_565 S
C40 O50 1.265 . S
O41 C40 1.227 1_545 S
N42 Co39 2.121 1_565 S
N42 C44 1.375 . S
N42 C45 1.313 . S
C43 C44 1.338 . S
C43 N46 1.377 . S
C43 H63 0.930 . S
C44 N42 1.375 . S
C44 C43 1.338 . S
C44 H48 0.931 . S
C45 N42 1.313 . S
C45 N46 1.344 . S
C45 H49 0.930 . S
N46 C43 1.377 . S
N46 C45 1.344 . S
O47 Co39 2.055 1_565 S
O47 C51 1.253 1_565 S
H48 C44 0.931 . S
H49 C45 0.930 . S
O50 Co39 2.039 1_565 S
O50 C40 1.265 . S
C51 O47 1.253 1_545 S
C51 O52 1.227 . S
O52 C51 1.227 . S
N53 Co39 2.140 . S
N53 C56 1.346 . S
N53 C57 1.345 . S
C54 C55 1.387 . S
C54 C58 1.391 . S
C55 C54 1.387 . S
C55 C56 1.369 . S
C55 H64 0.929 . S
C56 N53 1.346 . S
C56 C55 1.369 . S
C56 H59 0.928 . S
C57 N53 1.345 . S
C57 C58 1.371 . S
C57 H60 0.931 . S
C58 C54 1.391 . S
C58 C57 1.371 . S
C58 H65 0.930 . S
H59 C56 0.928 . S
H60 C57 0.931 . S
H61 C37 0.930 . S
H62 C34 0.930 . S
H63 C43 0.930 . S
H64 C55 0.929 . S
H65 C58 0.930 . S
C66 C67 1.351 . S
C66 N69 1.368 . S
C66 H71 0.931 . S
C67 C66 1.351 . S
C67 N68 1.373 . S
C67 H95 0.930 . S
N68 C67 1.373 . S
N68 C70 1.340 . S
N69 C66 1.368 . S
N69 C70 1.321 . S
N69 Co72 2.135 . S
C70 N68 1.340 . S
C70 N69 1.321 . S
C70 H94 0.930 . S
H71 C66 0.931 . S
Co72 N69 2.135 . S
Co72 N75 2.121 . S
Co72 O80 2.055 . S
Co72 O83 2.039 . S
Co72 N86 2.140 . S
C73 O74 1.227 . S
C73 O83 1.265 . S
O74 C73 1.227 . S
N75 Co72 2.121 . S
N75 C77 1.375 . S
N75 C78 1.313 . S
C76 C77 1.338 . S
C76 N79 1.377 . S
C76 H96 0.930 . S
C77 N75 1.375 . S
C77 C76 1.338 . S
C77 H81 0.931 . S
C78 N75 1.313 . S
C78 N79 1.344 . S
C78 H82 0.930 . S
N79 C76 1.377 . S
N79 C78 1.344 . S
O80 Co72 2.055 . S
O80 C84 1.253 . S
H81 C77 0.931 . S
H82 C78 0.930 . S
O83 Co72 2.039 . S
O83 C73 1.265 . S
C84 O80 1.253 . S
C84 O85 1.227 . S
O85 C84 1.227 . S
N86 Co72 2.140 . S
N86 C89 1.346 . S
N86 C90 1.345 . S
C87 C88 1.387 . S
C87 C91 1.391 . S
C88 C87 1.387 . S
C88 C89 1.369 . S
C88 H97 0.929 . S
C89 N86 1.346 . S
C89 C88 1.369 . S
C89 H92 0.928 . S
C90 N86 1.345 . S
C90 C91 1.371 . S
C90 H93 0.931 . S
C91 C87 1.391 . S
C91 C90 1.371 . S
C91 H98 0.930 . S
H92 C89 0.928 . S
H93 C90 0.931 . S
H94 C70 0.930 . S
H95 C67 0.930 . S
H96 C76 0.930 . S
H97 C88 0.929 . S
H98 C91 0.930 . S
C99 C100 1.351 . S
C99 N102 1.368 . S
C99 H104 0.931 . S
C100 C99 1.351 . S
C100 N101 1.373 . S
C100 H128 0.930 . S
N101 C100 1.373 . S
N101 C103 1.340 . S
N102 C99 1.368 . S
N102 C103 1.321 . S
N102 Co105 2.135 . S
C103 N101 1.340 . S
C103 N102 1.321 . S
C103 H127 0.930 . S
H104 C99 0.931 . S
Co105 N102 2.135 . S
Co105 N108 2.121 1_655 S
Co105 O113 2.055 1_655 S
Co105 O116 2.039 1_655 S
Co105 N119 2.140 . S
C106 O107 1.227 1_455 S
C106 O116 1.265 . S
O107 C106 1.227 1_655 S
N108 Co105 2.121 1_455 S
N108 C110 1.375 . S
N108 C111 1.313 . S
C109 C110 1.338 . S
C109 N112 1.377 . S
C109 H129 0.930 . S
C110 N108 1.375 . S
C110 C109 1.338 . S
C110 H114 0.931 . S
C111 N108 1.313 . S
C111 N112 1.344 . S
C111 H115 0.930 . S
N112 C109 1.377 . S
N112 C111 1.344 . S
O113 Co105 2.055 1_455 S
O113 C117 1.253 1_455 S
H114 C110 0.931 . S
H115 C111 0.930 . S
O116 Co105 2.039 1_455 S
O116 C106 1.265 . S
C117 O113 1.253 1_655 S
C117 O118 1.227 . S
O118 C117 1.227 . S
N119 Co105 2.140 . S
N119 C122 1.346 . S
N119 C123 1.345 . S
C120 C121 1.387 . S
C120 C124 1.391 . S
C121 C120 1.387 . S
C121 C122 1.369 . S
C121 H130 0.929 . S
C122 N119 1.346 . S
C122 C121 1.369 . S
C122 H125 0.928 . S
C123 N119 1.345 . S
C123 C124 1.371 . S
C123 H126 0.931 . S
C124 C120 1.391 . S
C124 C123 1.371 . S
C124 H131 0.930 . S
H125 C122 0.928 . S
H126 C123 0.931 . S
H127 C103 0.930 . S
H128 C100 0.930 . S
H129 C109 0.930 . S
H130 C121 0.929 . S
H131 C124 0.930 . S
C132 C133 1.351 . S
C132 N135 1.368 . S
C132 H137 0.931 . S
C133 C132 1.351 . S
C133 N134 1.373 . S
C133 H161 0.930 . S
N134 C133 1.373 . S
N134 C136 1.340 . S
N135 C132 1.368 . S
N135 C136 1.321 . S
N135 Co138 2.135 . S
C136 N134 1.340 . S
C136 N135 1.321 . S
C136 H160 0.930 . S
H137 C132 0.931 . S
Co138 N135 2.135 . S
Co138 N141 2.121 1_565 S
Co138 O146 2.055 1_565 S
Co138 O149 2.039 1_565 S
Co138 N152 2.140 . S
C139 O140 1.227 1_545 S
C139 O149 1.265 . S
O140 C139 1.227 1_565 S
N141 Co138 2.121 1_545 S
N141 C143 1.375 . S
N141 C144 1.313 . S
C142 C143 1.338 . S
C142 N145 1.377 . S
C142 H162 0.930 . S
C143 N141 1.375 . S
C143 C142 1.338 . S
C143 H147 0.931 . S
C144 N141 1.313 . S
C144 N145 1.344 . S
C144 H148 0.930 . S
N145 C142 1.377 . S
N145 C144 1.344 . S
O146 Co138 2.055 1_545 S
O146 C150 1.253 1_545 S
H147 C143 0.931 . S
H148 C144 0.930 . S
O149 Co138 2.039 1_545 S
O149 C139 1.265 . S
C150 O146 1.253 1_565 S
C150 O151 1.227 . S
O151 C150 1.227 . S
N152 Co138 2.140 . S
N152 C155 1.346 . S
N152 C156 1.345 . S
C153 C154 1.387 . S
C153 C157 1.391 . S
C154 C153 1.387 . S
C154 C155 1.369 . S
C154 H163 0.929 . S
C155 N152 1.346 . S
C155 C154 1.369 . S
C155 H158 0.928 . S
C156 N152 1.345 . S
C156 C157 1.371 . S
C156 H159 0.931 . S
C157 C153 1.391 . S
C157 C156 1.371 . S
C157 H164 0.930 . S
H158 C155 0.928 . S
H159 C156 0.931 . S
H160 C136 0.930 . S
H161 C133 0.930 . S
H162 C142 0.930 . S
H163 C154 0.929 . S
H164 C157 0.930 . S
C165 C166 1.351 . S
C165 N168 1.368 . S
C165 H170 0.931 . S
C166 C165 1.351 . S
C166 N167 1.373 . S
C166 H194 0.930 . S
N167 C166 1.373 . S
N167 C169 1.340 . S
N168 C165 1.368 . S
N168 C169 1.321 . S
N168 Co171 2.135 . S
C169 N167 1.340 . S
C169 N168 1.321 . S
C169 H193 0.930 . S
H170 C165 0.931 . S
Co171 N168 2.135 . S
Co171 N174 2.121 . S
Co171 O179 2.055 . S
Co171 O182 2.039 . S
Co171 N185 2.140 . S
C172 O173 1.227 . S
C172 O182 1.265 . S
O173 C172 1.227 . S
N174 Co171 2.121 . S
N174 C176 1.375 . S
N174 C177 1.313 . S
C175 C176 1.338 . S
C175 N178 1.377 . S
C175 H195 0.930 . S
C176 N174 1.375 . S
C176 C175 1.338 . S
C176 H180 0.931 . S
C177 N174 1.313 . S
C177 N178 1.344 . S
C177 H181 0.930 . S
N178 C175 1.377 . S
N178 C177 1.344 . S
O179 Co171 2.055 . S
O179 C183 1.253 . S
H180 C176 0.931 . S
H181 C177 0.930 . S
O182 Co171 2.039 . S
O182 C172 1.265 . S
C183 O179 1.253 . S
C183 O184 1.227 . S
O184 C183 1.227 . S
N185 Co171 2.140 . S
N185 C188 1.346 . S
N185 C189 1.345 . S
C186 C187 1.387 . S
C186 C190 1.391 . S
C187 C186 1.387 . S
C187 C188 1.369 . S
C187 H196 0.929 . S
C188 N185 1.346 . S
C188 C187 1.369 . S
C188 H191 0.928 . S
C189 N185 1.345 . S
C189 C190 1.371 . S
C189 H192 0.931 . S
C190 C186 1.391 . S
C190 C189 1.371 . S
C190 H197 0.930 . S
H191 C188 0.928 . S
H192 C189 0.931 . S
H193 C169 0.930 . S
H194 C166 0.930 . S
H195 C175 0.930 . S
H196 C187 0.929 . S
H197 C190 0.930 . S
C198 C199 1.351 . S
C198 N201 1.368 . S
C198 H203 0.931 . S
C199 C198 1.351 . S
C199 N200 1.373 . S
C199 H227 0.930 . S
N200 C199 1.373 . S
N200 C202 1.340 . S
N201 C198 1.368 . S
N201 C202 1.321 . S
N201 Co204 2.135 . S
C202 N200 1.340 . S
C202 N201 1.321 . S
C202 H226 0.930 . S
H203 C198 0.931 . S
Co204 N201 2.135 . S
Co204 N207 2.121 1_565 S
Co204 O212 2.055 1_565 S
Co204 O215 2.039 1_565 S
Co204 N218 2.140 . S
C205 O206 1.227 1_545 S
C205 O215 1.265 . S
O206 C205 1.227 1_565 S
N207 Co204 2.121 1_545 S
N207 C209 1.375 . S
N207 C210 1.313 . S
C208 C209 1.338 . S
C208 N211 1.377 . S
C208 H228 0.930 . S
C209 N207 1.375 . S
C209 C208 1.338 . S
C209 H213 0.931 . S
C210 N207 1.313 . S
C210 N211 1.344 . S
C210 H214 0.930 . S
N211 C208 1.377 . S
N211 C210 1.344 . S
O212 Co204 2.055 1_545 S
O212 C216 1.253 1_545 S
H213 C209 0.931 . S
H214 C210 0.930 . S
O215 Co204 2.039 1_545 S
O215 C205 1.265 . S
C216 O212 1.253 1_565 S
C216 O217 1.227 . S
O217 C216 1.227 . S
N218 Co204 2.140 . S
N218 C221 1.346 . S
N218 C222 1.345 . S
C219 C220 1.387 . S
C219 C223 1.391 . S
C220 C219 1.387 . S
C220 C221 1.369 . S
C220 H229 0.929 . S
C221 N218 1.346 . S
C221 C220 1.369 . S
C221 H224 0.928 . S
C222 N218 1.345 . S
C222 C223 1.371 . S
C222 H225 0.931 . S
C223 C219 1.391 . S
C223 C222 1.371 . S
C223 H230 0.930 . S
H224 C221 0.928 . S
H225 C222 0.931 . S
H226 C202 0.930 . S
H227 C199 0.930 . S
H228 C208 0.930 . S
H229 C220 0.929 . S
H230 C223 0.930 . S
C231 C232 1.351 . S
C231 N234 1.368 . S
C231 H236 0.931 . S
C232 C231 1.351 . S
C232 N233 1.373 . S
C232 H260 0.930 . S
N233 C232 1.373 . S
N233 C235 1.340 . S
N234 C231 1.368 . S
N234 C235 1.321 . S
N234 Co237 2.135 . S
C235 N233 1.340 . S
C235 N234 1.321 . S
C235 H259 0.930 . S
H236 C231 0.931 . S
Co237 N234 2.135 . S
Co237 N240 2.121 . S
Co237 O245 2.055 . S
Co237 O248 2.039 . S
Co237 N251 2.140 . S
C238 O239 1.227 . S
C238 O248 1.265 . S
O239 C238 1.227 . S
N240 Co237 2.121 . S
N240 C242 1.375 . S
N240 C243 1.313 . S
C241 C242 1.338 . S
C241 N244 1.377 . S
C241 H261 0.930 . S
C242 N240 1.375 . S
C242 C241 1.338 . S
C242 H246 0.931 . S
C243 N240 1.313 . S
C243 N244 1.344 . S
C243 H247 0.930 . S
N244 C241 1.377 . S
N244 C243 1.344 . S
O245 Co237 2.055 . S
O245 C249 1.253 . S
H246 C242 0.931 . S
H247 C243 0.930 . S
O248 Co237 2.039 . S
O248 C238 1.265 . S
C249 O245 1.253 . S
C249 O250 1.227 . S
O250 C249 1.227 . S
N251 Co237 2.140 . S
N251 C254 1.346 . S
N251 C255 1.345 . S
C252 C253 1.387 . S
C252 C256 1.391 . S
C253 C252 1.387 . S
C253 C254 1.369 . S
C253 H262 0.929 . S
C254 N251 1.346 . S
C254 C253 1.369 . S
C254 H257 0.928 . S
C255 N251 1.345 . S
C255 C256 1.371 . S
C255 H258 0.931 . S
C256 C252 1.391 . S
C256 C255 1.371 . S
C256 H263 0.930 . S
H257 C254 0.928 . S
H258 C255 0.931 . S
H259 C235 0.930 . S
H260 C232 0.930 . S
H261 C241 0.930 . S
H262 C253 0.929 . S
H263 C256 0.930 . S
C264 C265 1.351 . S
C264 N267 1.368 . S
C264 H269 0.931 . S
C265 C264 1.351 . S
C265 N266 1.373 . S
C265 H293 0.930 . S
N266 C265 1.373 . S
N266 C268 1.340 . S
N267 C264 1.368 . S
N267 C268 1.321 . S
N267 Co270 2.135 . S
C268 N266 1.340 . S
C268 N267 1.321 . S
C268 H292 0.930 . S
H269 C264 0.931 . S
Co270 N267 2.135 . S
Co270 N273 2.121 1_455 S
Co270 O278 2.055 1_455 S
Co270 O281 2.039 1_455 S
Co270 N284 2.140 . S
C271 O272 1.227 1_655 S
C271 O281 1.265 . S
O272 C271 1.227 1_455 S
N273 Co270 2.121 1_655 S
N273 C275 1.375 . S
N273 C276 1.313 . S
C274 C275 1.338 . S
C274 N277 1.377 . S
C274 H294 0.930 . S
C275 N273 1.375 . S
C275 C274 1.338 . S
C275 H279 0.931 . S
C276 N273 1.313 . S
C276 N277 1.344 . S
C276 H280 0.930 . S
N277 C274 1.377 . S
N277 C276 1.344 . S
O278 Co270 2.055 1_655 S
O278 C282 1.253 1_655 S
H279 C275 0.931 . S
H280 C276 0.930 . S
O281 Co270 2.039 1_655 S
O281 C271 1.265 . S
C282 O278 1.253 1_455 S
C282 O283 1.227 . S
O283 C282 1.227 . S
N284 Co270 2.140 . S
N284 C287 1.346 . S
N284 C288 1.345 . S
C285 C286 1.387 . S
C285 C289 1.391 . S
C286 C285 1.387 . S
C286 C287 1.369 . S
C286 H295 0.929 . S
C287 N284 1.346 . S
C287 C286 1.369 . S
C287 H290 0.928 . S
C288 N284 1.345 . S
C288 C289 1.371 . S
C288 H291 0.931 . S
C289 C285 1.391 . S
C289 C288 1.371 . S
C289 H296 0.930 . S
H290 C287 0.928 . S
H291 C288 0.931 . S
H292 C268 0.930 . S
H293 C265 0.930 . S
H294 C274 0.930 . S
H295 C286 0.929 . S
H296 C289 0.930 . S
C297 C298 1.351 . S
C297 N300 1.368 . S
C297 H302 0.931 . S
C298 C297 1.351 . S
C298 N299 1.373 . S
C298 H326 0.930 . S
N299 C298 1.373 . S
N299 C301 1.340 . S
N300 C297 1.368 . S
N300 C301 1.321 . S
N300 Co303 2.135 . S
C301 N299 1.340 . S
C301 N300 1.321 . S
C301 H325 0.930 . S
H302 C297 0.931 . S
Co303 N300 2.135 . S
Co303 N306 2.121 1_545 S
Co303 O311 2.055 1_545 S
Co303 O314 2.039 1_545 S
Co303 N317 2.140 . S
C304 O305 1.227 1_565 S
C304 O314 1.265 . S
O305 C304 1.227 1_545 S
N306 Co303 2.121 1_565 S
N306 C308 1.375 . S
N306 C309 1.313 . S
C307 C308 1.338 . S
C307 N310 1.377 . S
C307 H327 0.930 . S
C308 N306 1.375 . S
C308 C307 1.338 . S
C308 H312 0.931 . S
C309 N306 1.313 . S
C309 N310 1.344 . S
C309 H313 0.930 . S
N310 C307 1.377 . S
N310 C309 1.344 . S
O311 Co303 2.055 1_565 S
O311 C315 1.253 1_565 S
H312 C308 0.931 . S
H313 C309 0.930 . S
O314 Co303 2.039 1_565 S
O314 C304 1.265 . S
C315 O311 1.253 1_545 S
C315 O316 1.227 . S
O316 C315 1.227 . S
N317 Co303 2.140 . S
N317 C320 1.346 . S
N317 C321 1.345 . S
C318 C319 1.387 . S
C318 C322 1.391 . S
C319 C318 1.387 . S
C319 C320 1.369 . S
C319 H328 0.929 . S
C320 N317 1.346 . S
C320 C319 1.369 . S
C320 H323 0.928 . S
C321 N317 1.345 . S
C321 C322 1.371 . S
C321 H324 0.931 . S
C322 C318 1.391 . S
C322 C321 1.371 . S
C322 H329 0.930 . S
H323 C320 0.928 . S
H324 C321 0.931 . S
H325 C301 0.930 . S
H326 C298 0.930 . S
H327 C307 0.930 . S
H328 C319 0.929 . S
H329 C322 0.930 . S
C330 C331 1.351 . S
C330 N333 1.368 . S
C330 H335 0.931 . S
C331 C330 1.351 . S
C331 N332 1.373 . S
C331 H359 0.930 . S
N332 C331 1.373 . S
N332 C334 1.340 . S
N333 C330 1.368 . S
N333 C334 1.321 . S
N333 Co336 2.135 . S
C334 N332 1.340 . S
C334 N333 1.321 . S
C334 H358 0.930 . S
H335 C330 0.931 . S
Co336 N333 2.135 . S
Co336 N339 2.121 . S
Co336 O344 2.055 . S
Co336 O347 2.039 . S
Co336 N350 2.140 . S
C337 O338 1.227 . S
C337 O347 1.265 . S
O338 C337 1.227 . S
N339 Co336 2.121 . S
N339 C341 1.375 . S
N339 C342 1.313 . S
C340 C341 1.338 . S
C340 N343 1.377 . S
C340 H360 0.930 . S
C341 N339 1.375 . S
C341 C340 1.338 . S
C341 H345 0.931 . S
C342 N339 1.313 . S
C342 N343 1.344 . S
C342 H346 0.930 . S
N343 C340 1.377 . S
N343 C342 1.344 . S
O344 Co336 2.055 . S
O344 C348 1.253 . S
H345 C341 0.931 . S
H346 C342 0.930 . S
O347 Co336 2.039 . S
O347 C337 1.265 . S
C348 O344 1.253 . S
C348 O349 1.227 . S
O349 C348 1.227 . S
N350 Co336 2.140 . S
N350 C353 1.346 . S
N350 C354 1.345 . S
C351 C352 1.387 . S
C351 C355 1.391 . S
C352 C351 1.387 . S
C352 C353 1.369 . S
C352 H361 0.929 . S
C353 N350 1.346 . S
C353 C352 1.369 . S
C353 H356 0.928 . S
C354 N350 1.345 . S
C354 C355 1.371 . S
C354 H357 0.931 . S
C355 C351 1.391 . S
C355 C354 1.371 . S
C355 H362 0.930 . S
H356 C353 0.928 . S
H357 C354 0.931 . S
H358 C334 0.930 . S
H359 C331 0.930 . S
H360 C340 0.930 . S
H361 C352 0.929 . S
H362 C355 0.930 . S
C363 C364 1.351 . S
C363 N366 1.368 . S
C363 H368 0.931 . S
C364 C363 1.351 . S
C364 N365 1.373 . S
C364 H392 0.930 . S
N365 C364 1.373 . S
N365 C367 1.340 . S
N366 C363 1.368 . S
N366 C367 1.321 . S
N366 Co369 2.135 . S
C367 N365 1.340 . S
C367 N366 1.321 . S
C367 H391 0.930 . S
H368 C363 0.931 . S
Co369 N366 2.135 . S
Co369 N372 2.121 1_655 S
Co369 O377 2.055 1_655 S
Co369 O380 2.039 1_655 S
Co369 N383 2.140 . S
C370 O371 1.227 1_455 S
C370 O380 1.265 . S
O371 C370 1.227 1_655 S
N372 Co369 2.121 1_455 S
N372 C374 1.375 . S
N372 C375 1.313 . S
C373 C374 1.338 . S
C373 N376 1.377 . S
C373 H393 0.930 . S
C374 N372 1.375 . S
C374 C373 1.338 . S
C374 H378 0.931 . S
C375 N372 1.313 . S
C375 N376 1.344 . S
C375 H379 0.930 . S
N376 C373 1.377 . S
N376 C375 1.344 . S
O377 Co369 2.055 1_455 S
O377 C381 1.253 1_455 S
H378 C374 0.931 . S
H379 C375 0.930 . S
O380 Co369 2.039 1_455 S
O380 C370 1.265 . S
C381 O377 1.253 1_655 S
C381 O382 1.227 . S
O382 C381 1.227 . S
N383 Co369 2.140 . S
N383 C386 1.346 . S
N383 C387 1.345 . S
C384 C385 1.387 . S
C384 C388 1.391 . S
C385 C384 1.387 . S
C385 C386 1.369 . S
C385 H394 0.929 . S
C386 N383 1.346 . S
C386 C385 1.369 . S
C386 H389 0.928 . S
C387 N383 1.345 . S
C387 C388 1.371 . S
C387 H390 0.931 . S
C388 C384 1.391 . S
C388 C387 1.371 . S
C388 H395 0.930 . S
H389 C386 0.928 . S
H390 C387 0.931 . S
H391 C367 0.930 . S
H392 C364 0.930 . S
H393 C373 0.930 . S
H394 C385 0.929 . S
H395 C388 0.930 . S
H396 C404 0.929 . S
H397 C406 0.890 1_554 S
H398 C408 0.930 . S
H399 C411 0.929 . S
H400 C414 0.930 . S
H401 C416 0.960 1_545 S
H402 C416 0.960 . S
H403 C416 0.960 . S
C404 H396 0.929 . S
C404 C405 1.377 . S
C404 C406 1.384 . S
C405 C404 1.377 . S
C405 C411 1.390 . S
C406 H397 0.890 1_556 S
C406 C404 1.384 . S
C406 C407 1.372 . S
C407 C406 1.372 . S
C407 C408 1.400 . S
C407 C412 1.490 . S
C408 H398 0.930 . S
C408 C407 1.400 . S
C408 C411 1.386 . S
H409 C425 0.930 . S
H410 C426 1.000 . S
C411 H399 0.929 . S
C411 C405 1.390 . S
C411 C408 1.386 . S
C412 C407 1.490 . S
C412 C414 1.395 1_556 S
C412 C415 1.403 . S
H413 C419 0.929 1_556 S
C414 H400 0.930 . S
C414 C412 1.395 1_554 S
C414 C417 1.403 1_565 S
C415 C412 1.403 . S
C415 C416 1.524 . S
C415 C419 1.388 1_566 S
C416 H401 0.960 1_565 S
C416 H402 0.960 . S
C416 H403 0.960 . S
C416 C415 1.524 . S
C417 C414 1.403 1_545 S
C417 C418 1.392 . S
C417 C421 1.495 . S
C418 C417 1.392 . S
C418 C419 1.398 . S
C418 C420 1.478 . S
C419 H413 0.929 1_554 S
C419 C415 1.388 1_544 S
C419 C418 1.398 . S
C420 C418 1.478 . S
C420 C422 1.381 . S
C420 C426 1.383 . S
C421 C417 1.495 . S
C421 H427 0.959 1_545 S
C421 H428 0.961 . S
C421 H429 0.960 . S
C422 C420 1.381 . S
C422 C423 1.394 . S
C422 H430 0.930 . S
C423 C422 1.394 . S
C423 C424 1.383 . S
C423 H431 0.929 . S
C424 C423 1.383 . S
C424 C425 1.377 . S
C425 H409 0.930 . S
C425 C424 1.377 . S
C425 C426 1.379 . S
C426 H410 1.000 . S
C426 C420 1.383 . S
C426 C425 1.379 . S
H427 C421 0.959 1_565 S
H428 C421 0.961 . S
H429 C421 0.960 . S
H430 C422 0.930 . S
H431 C423 0.929 . S
H432 C440 0.920 1_455 S
H433 C442 0.930 . S
H434 C444 0.930 . S
H435 C447 0.929 . S
H436 C450 0.930 . S
H437 C452 0.960 . S
H438 C452 0.960 . S
H439 C452 0.960 . S
C440 H432 0.920 1_655 S
C440 C441 1.377 . S
C440 C442 1.384 . S
C441 C440 1.377 . S
C441 C447 1.390 . S
C442 H433 0.930 . S
C442 C440 1.384 . S
C442 C443 1.372 . S
C443 C442 1.372 . S
C443 C444 1.400 . S
C443 C448 1.490 . S
C444 H434 0.930 . S
C444 C443 1.400 . S
C444 C447 1.386 . S
H445 C461 0.930 . S
H446 C462 0.931 . S
C447 H435 0.929 . S
C447 C441 1.390 . S
C447 C444 1.386 . S
C448 C443 1.490 . S
C448 C450 1.395 . S
C448 C451 1.403 . S
H449 C455 0.930 . S
C450 H436 0.930 . S
C450 C448 1.395 . S
C450 C453 1.403 . S
C451 C448 1.403 . S
C451 C452 1.524 . S
C451 C455 1.400 . S
C452 H437 0.960 . S
C452 H438 0.960 . S
C452 H439 0.960 . S
C452 C451 1.524 . S
C453 C450 1.403 . S
C453 C454 1.392 . S
C453 C457 1.495 . S
C454 C453 1.392 . S
C454 C455 1.385 . S
C454 C456 1.478 . S
C455 H449 0.930 . S
C455 C451 1.400 . S
C455 C454 1.385 . S
C456 C454 1.478 . S
C456 C458 1.381 . S
C456 C462 1.383 . S
C457 C453 1.495 . S
C457 H463 0.959 . S
C457 H464 0.961 . S
C457 H465 0.960 . S
C458 C456 1.381 . S
C458 C459 1.394 . S
C458 H466 0.930 . S
C459 C458 1.394 . S
C459 C460 1.383 . S
C459 H467 0.929 . S
C460 C459 1.383 . S
C460 C461 1.377 . S
C461 H445 0.930 . S
C461 C460 1.377 . S
C461 C462 1.379 . S
C462 H446 0.931 . S
C462 C456 1.383 . S
C462 C461 1.379 . S
H463 C457 0.959 . S
H464 C457 0.961 . S
H465 C457 0.960 . S
H466 C458 0.930 . S
H467 C459 0.929 . S
H468 C476 0.929 . S
H469 C478 0.930 . S
H470 C480 0.930 . S
H471 C483 0.929 . S
H472 C486 0.930 . S
H473 C488 0.960 . S
H474 C488 0.960 . S
H475 C488 0.960 . S
C476 H468 0.929 . S
C476 C477 1.377 . S
C476 C478 1.384 . S
C477 C476 1.377 . S
C477 C483 1.390 . S
C478 H469 0.930 . S
C478 C476 1.384 . S
C478 C479 1.372 . S
C479 C478 1.372 . S
C479 C480 1.400 . S
C479 C484 1.490 . S
C480 H470 0.930 . S
C480 C479 1.400 . S
C480 C483 1.386 . S
H481 C497 0.930 . S
H482 C498 0.931 . S
C483 H471 0.929 . S
C483 C477 1.390 . S
C483 C480 1.386 . S
C484 C479 1.490 . S
C484 C486 1.395 . S
C484 C487 1.403 . S
H485 C491 0.930 . S
C486 H472 0.930 . S
C486 C484 1.395 . S
C486 C489 1.403 1_655 S
C487 C484 1.403 . S
C487 C488 1.524 . S
C487 C491 1.400 1_655 S
C488 H473 0.960 . S
C488 H474 0.960 . S
C488 H475 0.960 . S
C488 C487 1.524 . S
C489 C486 1.403 1_455 S
C489 C490 1.392 . S
C489 C493 1.495 . S
C490 C489 1.392 . S
C490 C491 1.385 . S
C490 C492 1.478 . S
C491 H485 0.930 . S
C491 C487 1.400 1_455 S
C491 C490 1.385 . S
C492 C490 1.478 . S
C492 C494 1.381 . S
C492 C498 1.383 . S
C493 C489 1.495 . S
C493 H499 0.959 . S
C493 H500 0.961 . S
C493 H501 0.960 . S
C494 C492 1.381 . S
C494 C495 1.394 . S
C494 H502 0.930 . S
C495 C494 1.394 . S
C495 C496 1.383 . S
C495 H503 0.929 . S
C496 C495 1.383 . S
C496 C497 1.377 . S
C497 H481 0.930 . S
C497 C496 1.377 . S
C497 C498 1.379 . S
C498 H482 0.931 . S
C498 C492 1.383 . S
C498 C497 1.379 . S
H499 C493 0.959 . S
H500 C493 0.961 . S
H501 C493 0.960 . S
H502 C494 0.930 . S
H503 C495 0.929 . S
H504 C512 0.929 . S
H505 C514 0.930 . S
H506 C516 0.930 . S
H507 C519 0.929 . S
H508 C522 0.930 . S
H509 C524 0.960 . S
H510 C524 0.960 1_545 S
H511 C524 0.960 1_545 S
C512 H504 0.929 . S
C512 C513 1.377 . S
C512 C514 1.384 . S
C513 C512 1.377 . S
C513 C519 1.390 . S
C514 H505 0.930 . S
C514 C512 1.384 . S
C514 C515 1.372 . S
C515 C514 1.372 . S
C515 C516 1.400 . S
C515 C520 1.490 . S
C516 H506 0.930 . S
C516 C515 1.400 . S
C516 C519 1.386 . S
H517 C533 0.930 . S
H518 C534 0.931 . S
C519 H507 0.929 . S
C519 C513 1.390 . S
C519 C516 1.386 . S
C520 C515 1.490 . S
C520 C522 1.395 . S
C520 C523 1.399 1_545 S
H521 C527 0.930 . S
C522 H508 0.930 . S
C522 C520 1.395 . S
C522 C525 1.403 . S
C523 C520 1.399 1_565 S
C523 C524 1.525 . S
C523 C527 1.402 . S
C524 H509 0.960 . S
C524 H510 0.960 1_565 S
C524 H511 0.960 1_565 S
C524 C523 1.525 . S
C525 C522 1.403 . S
C525 C526 1.392 1_545 S
C525 C529 1.495 . S
C526 C525 1.392 1_565 S
C526 C527 1.385 . S
C526 C528 1.478 . S
C527 H521 0.930 . S
C527 C523 1.402 . S
C527 C526 1.385 . S
C528 C526 1.478 . S
C528 C530 1.381 . S
C528 C534 1.383 . S
C529 C525 1.495 . S
C529 H535 0.959 . S
C529 H536 0.961 1_545 S
C529 H537 0.960 . S
C530 C528 1.381 . S
C530 C531 1.394 . S
C530 H538 0.930 . S
C531 C530 1.394 . S
C531 C532 1.383 . S
C531 H539 0.929 . S
C532 C531 1.383 . S
C532 C533 1.377 . S
C533 H517 0.930 . S
C533 C532 1.377 . S
C533 C534 1.379 . S
C534 H518 0.931 . S
C534 C528 1.383 . S
C534 C533 1.379 . S
H535 C529 0.959 . S
H536 C529 0.961 1_565 S
H537 C529 0.960 . S
H538 C530 0.930 . S
H539 C531 0.929 . S
H540 C548 0.933 . S
H541 C550 0.930 . S
H542 C552 0.930 . S
H543 C555 0.929 . S
H544 C558 0.930 . S
H545 C560 0.960 . S
H546 C560 0.960 . S
H547 C560 0.960 . S
C548 H540 0.933 . S
C548 C549 1.377 . S
C548 C550 1.384 . S
C549 C548 1.377 . S
C549 C555 1.390 . S
C550 H541 0.930 . S
C550 C548 1.384 . S
C550 C551 1.372 . S
C551 C550 1.372 . S
C551 C552 1.400 . S
C551 C556 1.490 . S
C552 H542 0.930 . S
C552 C551 1.400 . S
C552 C555 1.386 . S
H553 C569 0.930 . S
H554 C570 0.931 . S
C555 H543 0.929 . S
C555 C549 1.390 . S
C555 C552 1.386 . S
C556 C551 1.490 . S
C556 C558 1.395 . S
C556 C559 1.403 . S
H557 C563 0.930 . S
C558 H544 0.930 . S
C558 C556 1.395 . S
C558 C561 1.403 . S
C559 C556 1.403 . S
C559 C560 1.524 . S
C559 C563 1.400 . S
C560 H545 0.960 . S
C560 H546 0.960 . S
C560 H547 0.960 . S
C560 C559 1.524 . S
C561 C558 1.403 . S
C561 C562 1.392 . S
C561 C565 1.495 . S
C562 C561 1.392 . S
C562 C563 1.385 . S
C562 C564 1.478 . S
C563 H557 0.930 . S
C563 C559 1.400 . S
C563 C562 1.385 . S
C564 C562 1.478 . S
C564 C566 1.381 . S
C564 C570 1.383 . S
C565 C561 1.495 . S
C565 H571 0.959 . S
C565 H572 0.961 . S
C565 H573 0.960 . S
C566 C564 1.381 . S
C566 C567 1.394 . S
C566 H574 0.930 . S
C567 C566 1.394 . S
C567 C568 1.383 . S
C567 H575 0.929 1_455 S
C568 C567 1.383 . S
C568 C569 1.377 . S
C569 H553 0.930 . S
C569 C568 1.377 . S
C569 C570 1.379 . S
C570 H554 0.931 . S
C570 C564 1.383 . S
C570 C569 1.379 . S
H571 C565 0.959 . S
H572 C565 0.961 . S
H573 C565 0.960 . S
H574 C566 0.930 . S
H575 C567 0.929 1_655 S
H576 C584 0.929 . S
H577 C586 0.930 . S
H578 C588 0.930 . S
H579 C591 0.929 . S
H580 C594 0.930 . S
H581 C596 0.960 . S
H582 C596 0.956 1_655 S
H583 C596 0.960 1_655 S
C584 H576 0.929 . S
C584 C585 1.377 . S
C584 C586 1.384 . S
C585 C584 1.377 . S
C585 C591 1.390 . S
C586 H577 0.930 . S
C586 C584 1.384 . S
C586 C587 1.372 . S
C587 C586 1.372 . S
C587 C588 1.400 . S
C587 C592 1.490 . S
C588 H578 0.930 . S
C588 C587 1.400 . S
C588 C591 1.386 . S
H589 C605 0.930 . S
H590 C606 0.931 . S
C591 H579 0.929 . S
C591 C585 1.390 . S
C591 C588 1.386 . S
C592 C587 1.490 . S
C592 C594 1.395 . S
C592 C595 1.389 1_655 S
H593 C599 0.930 . S
C594 H580 0.930 . S
C594 C592 1.395 . S
C594 C597 1.403 . S
C595 C592 1.389 1_455 S
C595 C596 1.528 . S
C595 C599 1.410 . S
C596 H581 0.960 . S
C596 H582 0.956 1_455 S
C596 H583 0.960 1_455 S
C596 C595 1.528 . S
C597 C594 1.403 . S
C597 C598 1.392 1_655 S
C597 C601 1.495 . S
C598 C597 1.392 1_455 S
C598 C599 1.385 . S
C598 C600 1.478 . S
C599 H593 0.930 . S
C599 C595 1.410 . S
C599 C598 1.385 . S
C600 C598 1.478 . S
C600 C602 1.381 . S
C600 C606 1.383 . S
C601 C597 1.495 . S
C601 H607 0.959 . S
C601 H608 0.961 . S
C601 H609 0.960 1_655 S
C602 C600 1.381 . S
C602 C603 1.394 . S
C602 H610 0.930 . S
C603 C602 1.394 . S
C603 C604 1.383 . S
C603 H611 0.929 . S
C604 C603 1.383 . S
C604 C605 1.377 . S
C605 H589 0.930 . S
C605 C604 1.377 . S
C605 C606 1.379 . S
C606 H590 0.931 . S
C606 C600 1.383 . S
C606 C605 1.379 . S
H607 C601 0.959 . S
H608 C601 0.961 . S
H609 C601 0.960 1_455 S
H610 C602 0.930 . S
H611 C603 0.929 . S
H612 C620 0.929 . S
H613 C622 0.930 . S
H614 C624 0.930 . S
H615 C627 0.929 . S
H616 C630 0.930 . S
H617 C632 0.960 . S
H618 C632 0.960 . S
H619 C632 0.960 . S
C620 H612 0.929 . S
C620 C621 1.377 . S
C620 C622 1.384 . S
C621 C620 1.377 . S
C621 C627 1.390 . S
C622 H613 0.930 . S
C622 C620 1.384 . S
C622 C623 1.372 . S
C623 C622 1.372 . S
C623 C624 1.400 . S
C623 C628 1.490 . S
C624 H614 0.930 . S
C624 C623 1.400 . S
C624 C627 1.386 . S
H625 C641 0.930 . S
H626 C642 0.958 . S
C627 H615 0.929 . S
C627 C621 1.390 . S
C627 C624 1.386 . S
C628 C623 1.490 . S
C628 C630 1.395 . S
C628 C631 1.403 . S
H629 C635 0.930 1_565 S
C630 H616 0.930 . S
C630 C628 1.395 . S
C630 C633 1.403 . S
C631 C628 1.403 . S
C631 C632 1.524 1_455 S
C631 C635 1.400 . S
C632 H617 0.960 . S
C632 H618 0.960 . S
C632 H619 0.960 . S
C632 C631 1.524 1_655 S
C633 C630 1.403 . S
C633 C634 1.392 1_545 S
C633 C637 1.495 . S
C634 C633 1.392 1_565 S
C634 C635 1.385 1_565 S
C634 C636 1.478 . S
C635 H629 0.930 1_545 S
C635 C631 1.400 . S
C635 C634 1.385 1_545 S
C636 C634 1.478 . S
C636 C638 1.381 . S
C636 C642 1.383 . S
C637 C633 1.495 . S
C637 H643 0.959 . S
C637 H644 0.961 . S
C637 H645 0.960 1_545 S
C638 C636 1.381 . S
C638 C639 1.394 . S
C638 H646 0.930 . S
C639 C638 1.394 . S
C639 C640 1.383 . S
C639 H647 0.929 . S
C640 C639 1.383 . S
C640 C641 1.377 . S
C641 H625 0.930 . S
C641 C640 1.377 . S
C641 C642 1.379 . S
C642 H626 0.958 . S
C642 C636 1.383 . S
C642 C641 1.379 . S
H643 C637 0.959 . S
H644 C637 0.961 . S
H645 C637 0.960 1_565 S
H646 C638 0.930 . S
H647 C639 0.929 . S
H648 C656 0.929 . S
H649 C658 0.930 . S
H650 C660 0.926 1_565 S
H651 C663 0.929 1_565 S
H652 C666 0.930 . S
H653 C668 0.960 . S
H654 C668 0.960 . S
H655 C668 0.960 . S
C656 H648 0.929 . S
C656 C657 1.377 . S
C656 C658 1.384 . S
C657 C656 1.377 . S
C657 C663 1.390 . S
C658 H649 0.930 . S
C658 C656 1.384 . S
C658 C659 1.372 . S
C659 C658 1.372 . S
C659 C660 1.400 . S
C659 C664 1.490 . S
C660 H650 0.926 1_545 S
C660 C659 1.400 . S
C660 C663 1.386 . S
H661 C677 0.930 1_565 S
H662 C678 0.931 1_565 S
C663 H651 0.929 1_545 S
C663 C657 1.390 . S
C663 C660 1.386 . S
C664 C659 1.490 . S
C664 C666 1.395 . S
C664 C667 1.403 1_655 S
H665 C671 0.930 . S
C666 H652 0.930 . S
C666 C664 1.395 . S
C666 C669 1.403 1_655 S
C667 C664 1.403 1_455 S
C667 C668 1.524 . S
C667 C671 1.400 . S
C668 H653 0.960 . S
C668 H654 0.960 . S
C668 H655 0.960 . S
C668 C667 1.524 . S
C669 C666 1.403 1_455 S
C669 C670 1.392 . S
C669 C673 1.495 . S
C670 C669 1.392 . S
C670 C671 1.385 . S
C670 C672 1.478 . S
C671 H665 0.930 . S
C671 C667 1.400 . S
C671 C670 1.385 . S
C672 C670 1.478 . S
C672 C674 1.381 . S
C672 C678 1.383 . S
C673 C669 1.495 . S
C673 H679 0.959 1_455 S
C673 H680 0.961 . S
C673 H681 0.960 . S
C674 C672 1.381 . S
C674 C675 1.394 . S
C674 H682 0.930 . S
C675 C674 1.394 . S
C675 C676 1.383 . S
C675 H683 0.929 . S
C676 C675 1.383 . S
C676 C677 1.377 . S
C677 H661 0.930 1_545 S
C677 C676 1.377 . S
C677 C678 1.379 . S
C678 H662 0.931 1_545 S
C678 C672 1.383 . S
C678 C677 1.379 . S
H679 C673 0.959 1_655 S
H680 C673 0.961 . S
H681 C673 0.960 . S
H682 C674 0.930 . S
H683 C675 0.929 . S
H684 C692 0.929 . S
H685 C694 0.930 . S
H686 C696 0.930 . S
H687 C699 0.929 . S
H688 C702 0.930 . S
H689 C704 0.960 . S
H690 C704 0.960 . S
H691 C704 0.960 . S
C692 H684 0.929 . S
C692 C693 1.377 . S
C692 C694 1.384 . S
C693 C692 1.377 . S
C693 C699 1.390 . S
C694 H685 0.930 . S
C694 C692 1.384 . S
C694 C695 1.372 . S
C695 C694 1.372 . S
C695 C696 1.400 . S
C695 C700 1.490 . S
C696 H686 0.930 . S
C696 C695 1.400 . S
C696 C699 1.386 . S
H697 C713 0.930 . S
H698 C714 0.931 . S
C699 H687 0.929 . S
C699 C693 1.390 . S
C699 C696 1.386 . S
C700 C695 1.490 . S
C700 C702 1.395 . S
C700 C703 1.403 1_455 S
H701 C707 0.930 . S
C702 H688 0.930 . S
C702 C700 1.395 . S
C702 C705 1.403 1_455 S
C703 C700 1.403 1_655 S
C703 C704 1.524 . S
C703 C707 1.400 . S
C704 H689 0.960 . S
C704 H690 0.960 . S
C704 H691 0.960 . S
C704 C703 1.524 . S
C705 C702 1.403 1_655 S
C705 C706 1.392 1_545 S
C705 C709 1.495 1_645 S
C706 C705 1.392 1_565 S
C706 C707 1.385 1_565 S
C706 C708 1.478 . S
C707 H701 0.930 . S
C707 C703 1.400 . S
C707 C706 1.385 1_545 S
C708 C706 1.478 . S
C708 C710 1.381 . S
C708 C714 1.383 . S
C709 C705 1.495 1_465 S
C709 H715 0.959 . S
C709 H716 0.961 1_455 S
C709 H717 0.962 . S
C710 C708 1.381 . S
C710 C711 1.394 . S
C710 H718 0.930 . S
C711 C710 1.394 . S
C711 C712 1.383 . S
C711 H719 0.929 . S
C712 C711 1.383 . S
C712 C713 1.377 . S
C713 H697 0.930 . S
C713 C712 1.377 . S
C713 C714 1.379 . S
C714 H698 0.931 . S
C714 C708 1.383 . S
C714 C713 1.379 . S
H715 C709 0.959 . S
H716 C709 0.961 1_655 S
H717 C709 0.962 . S
H718 C710 0.930 . S
H719 C711 0.929 . S
H720 C728 0.929 . S
H721 C730 0.930 . S
H722 C732 0.930 . S
H723 C735 0.929 . S
H724 C738 0.930 . S
H725 C740 0.960 . S
H726 C740 0.960 . S
H727 C740 0.960 . S
C728 H720 0.929 . S
C728 C729 1.377 . S
C728 C730 1.384 . S
C729 C728 1.377 . S
C729 C735 1.390 . S
C730 H721 0.930 . S
C730 C728 1.384 . S
C730 C731 1.372 . S
C731 C730 1.372 . S
C731 C732 1.400 . S
C731 C736 1.490 . S
C732 H722 0.930 . S
C732 C731 1.400 . S
C732 C735 1.386 . S
H733 C749 0.930 . S
H734 C750 0.931 . S
C735 H723 0.929 . S
C735 C729 1.390 . S
C735 C732 1.386 . S
C736 C731 1.490 . S
C736 C738 1.395 . S
C736 C739 1.403 1_545 S
H737 C743 0.930 . S
C738 H724 0.930 . S
C738 C736 1.395 . S
C738 C741 1.403 1_545 S
C739 C736 1.403 1_565 S
C739 C740 1.524 . S
C739 C743 1.400 . S
C740 H725 0.960 . S
C740 H726 0.960 . S
C740 H727 0.960 . S
C740 C739 1.524 . S
C741 C738 1.403 1_565 S
C741 C742 1.392 . S
C741 C745 1.495 1_565 S
C742 C741 1.392 . S
C742 C743 1.385 . S
C742 C744 1.478 . S
C743 H737 0.930 . S
C743 C739 1.400 . S
C743 C742 1.385 . S
C744 C742 1.478 . S
C744 C746 1.381 . S
C744 C750 1.383 . S
C745 C741 1.495 1_545 S
C745 H751 0.959 1_655 S
C745 H752 0.961 1_655 S
C745 H753 0.960 1_545 S
C746 C744 1.381 . S
C746 C747 1.394 . S
C746 H754 0.930 . S
C747 C746 1.394 . S
C747 C748 1.383 . S
C747 H755 0.929 . S
C748 C747 1.383 . S
C748 C749 1.377 . S
C749 H733 0.930 . S
C749 C748 1.377 . S
C749 C750 1.379 . S
C750 H734 0.931 . S
C750 C744 1.383 . S
C750 C749 1.379 . S
H751 C745 0.959 1_455 S
H752 C745 0.961 1_455 S
H753 C745 0.960 1_565 S
H754 C746 0.930 . S
H755 C747 0.929 . S
H756 C764 0.929 1_545 S
H757 C766 0.930 1_545 S
H758 C768 0.930 . S
H759 C771 0.929 . S
H760 C774 0.930 . S
H761 C776 0.960 1_655 S
H762 C776 0.960 . S
H763 C776 0.960 . S
C764 H756 0.929 1_565 S
C764 C765 1.377 . S
C764 C766 1.384 . S
C765 C764 1.377 . S
C765 C771 1.390 . S
C766 H757 0.930 1_565 S
C766 C764 1.384 . S
C766 C767 1.372 . S
C767 C766 1.372 . S
C767 C768 1.400 . S
C767 C772 1.490 . S
C768 H758 0.930 . S
C768 C767 1.400 . S
C768 C771 1.386 . S
H769 C785 0.930 . S
H770 C786 0.931 . S
C771 H759 0.929 . S
C771 C765 1.390 . S
C771 C768 1.386 . S
C772 C767 1.490 . S
C772 C774 1.395 1_455 S
C772 C775 1.403 1_455 S
H773 C779 0.930 . S
C774 H760 0.930 . S
C774 C772 1.395 1_655 S
C774 C777 1.403 . S
C775 C772 1.403 1_655 S
C775 C776 1.524 1_655 S
C775 C779 1.400 . S
C776 H761 0.960 1_455 S
C776 H762 0.960 . S
C776 H763 0.960 . S
C776 C775 1.524 1_455 S
C777 C774 1.403 . S
C777 C778 1.392 . S
C777 C781 1.495 . S
C778 C777 1.392 . S
C778 C779 1.385 . S
C778 C780 1.478 . S
C779 H773 0.930 . S
C779 C775 1.400 . S
C779 C778 1.385 . S
C780 C778 1.478 . S
C780 C782 1.381 . S
C780 C786 1.383 . S
C781 C777 1.495 . S
C781 H787 0.959 1_565 S
C781 H788 0.961 . S
C781 H789 0.960 1_565 S
C782 C780 1.381 . S
C782 C783 1.394 . S
C782 H790 0.930 1_565 S
C783 C782 1.394 . S
C783 C784 1.383 . S
C783 H791 0.929 1_565 S
C784 C783 1.383 . S
C784 C785 1.377 . S
C785 H769 0.930 . S
C785 C784 1.377 . S
C785 C786 1.379 . S
C786 H770 0.931 . S
C786 C780 1.383 . S
C786 C785 1.379 . S
H787 C781 0.959 1_545 S
H788 C781 0.961 . S
H789 C781 0.960 1_545 S
H790 C782 0.930 1_545 S
H791 C783 0.929 1_545 S
H792 C800 0.929 . S
H793 C802 0.930 . S
H794 C804 0.930 . S
H795 C807 0.929 . S
H796 C810 0.930 . S
H797 C812 0.960 . S
H798 C812 0.960 . S
H799 C812 0.960 . S
C800 H792 0.929 . S
C800 C801 1.377 . S
C800 C802 1.384 . S
C801 C800 1.377 . S
C801 C807 1.390 . S
C802 H793 0.930 . S
C802 C800 1.384 . S
C802 C803 1.372 . S
C803 C802 1.372 . S
C803 C804 1.400 . S
C803 C808 1.490 . S
C804 H794 0.930 . S
C804 C803 1.400 . S
C804 C807 1.386 . S
H805 C821 0.930 . S
H806 C822 0.931 . S
C807 H795 0.929 . S
C807 C801 1.390 . S
C807 C804 1.386 . S
C808 C803 1.490 . S
C808 C810 1.395 1_655 S
C808 C811 1.403 . S
H809 C815 0.930 . S
C810 H796 0.930 . S
C810 C808 1.395 1_455 S
C810 C813 1.403 1_565 S
C811 C808 1.403 . S
C811 C812 1.524 . S
C811 C815 1.400 1_655 S
C812 H797 0.960 . S
C812 H798 0.960 . S
C812 H799 0.960 . S
C812 C811 1.524 . S
C813 C810 1.403 1_545 S
C813 C814 1.392 . S
C813 C817 1.495 . S
C814 C813 1.392 . S
C814 C815 1.385 1_545 S
C814 C816 1.478 . S
C815 H809 0.930 . S
C815 C811 1.400 1_455 S
C815 C814 1.385 1_565 S
C816 C814 1.478 . S
C816 C818 1.381 . S
C816 C822 1.383 . S
C817 C813 1.495 . S
C817 H823 0.959 . S
C817 H824 0.961 . S
C817 H825 0.960 . S
C818 C816 1.381 . S
C818 C819 1.394 . S
C818 H826 0.930 . S
C819 C818 1.394 . S
C819 C820 1.383 . S
C819 H827 0.929 . S
C820 C819 1.383 . S
C820 C821 1.377 . S
C821 H805 0.930 . S
C821 C820 1.377 . S
C821 C822 1.379 . S
C822 H806 0.931 . S
C822 C816 1.383 . S
C822 C821 1.379 . S
H823 C817 0.959 . S
H824 C817 0.961 . S
H825 C817 0.960 . S
H826 C818 0.930 . S
H827 C819 0.929 . S
H828 C836 0.929 . S
H829 C838 0.930 . S
H830 C840 0.930 1_554 S
H831 C843 0.929 . S
H832 C846 0.930 . S
H833 C848 0.960 . S
H834 C848 0.960 1_556 S
H835 C848 0.960 . S
C836 H828 0.929 . S
C836 C837 1.377 . S
C836 C838 1.384 . S
C837 C836 1.377 . S
C837 C843 1.390 . S
C838 H829 0.930 . S
C838 C836 1.384 . S
C838 C839 1.372 . S
C839 C838 1.372 . S
C839 C840 1.400 . S
C839 C844 1.490 . S
C840 H830 0.930 1_556 S
C840 C839 1.400 . S
C840 C843 1.386 . S
H841 C857 0.930 . S
H842 C858 0.931 . S
C843 H831 0.929 . S
C843 C837 1.390 . S
C843 C840 1.386 . S
C844 C839 1.490 . S
C844 C846 1.395 . S
C844 C847 1.403 1_556 S
H845 C851 0.930 . S
C846 H832 0.930 . S
C846 C844 1.395 . S
C846 C849 1.404 1_556 S
C847 C844 1.403 1_554 S
C847 C848 1.524 . S
C847 C851 1.400 . S
C848 H833 0.960 . S
C848 H834 0.960 1_554 S
C848 H835 0.960 . S
C848 C847 1.524 . S
C849 C846 1.404 1_554 S
C849 C850 1.392 . S
C849 C853 1.493 1_554 S
C850 C849 1.392 . S
C850 C851 1.385 . S
C850 C852 1.478 . S
C851 H845 0.930 . S
C851 C847 1.400 . S
C851 C850 1.385 . S
C852 C850 1.478 . S
C852 C854 1.381 . S
C852 C858 1.383 . S
C853 C849 1.493 1_556 S
C853 H859 0.995 . S
C853 H860 0.901 1_556 S
C853 H861 0.991 . S
C854 C852 1.381 . S
C854 C855 1.394 . S
C854 H862 0.930 1_554 S
C855 C854 1.394 . S
C855 C856 1.383 . S
C855 H863 0.929 . S
C856 C855 1.383 . S
C856 C857 1.377 . S
C857 H841 0.930 . S
C857 C856 1.377 . S
C857 C858 1.379 . S
C858 H842 0.931 . S
C858 C852 1.383 . S
C858 C857 1.379 . S
H859 C853 0.995 . S
H860 C853 0.901 1_554 S
H861 C853 0.991 . S
H862 C854 0.930 1_556 S
H863 C855 0.929 . S
H864 C872 0.929 . S
H865 C874 0.930 . S
H866 C876 0.930 . S
H867 C879 0.929 1_455 S
H868 C882 0.930 . S
H869 C884 0.960 . S
H870 C884 0.960 . S
H871 C884 0.960 . S
C872 H864 0.929 . S
C872 C873 1.377 . S
C872 C874 1.384 . S
C873 C872 1.377 . S
C873 C879 1.390 . S
C874 H865 0.930 . S
C874 C872 1.384 . S
C874 C875 1.372 . S
C875 C874 1.372 . S
C875 C876 1.400 . S
C875 C880 1.490 . S
C876 H866 0.930 . S
C876 C875 1.400 . S
C876 C879 1.386 . S
H877 C893 0.930 . S
H878 C894 0.931 . S
C879 H867 0.929 1_655 S
C879 C873 1.390 . S
C879 C876 1.386 . S
C880 C875 1.490 . S
C880 C882 1.395 . S
C880 C883 1.403 . S
H881 C887 0.930 . S
C882 H868 0.930 . S
C882 C880 1.395 . S
C882 C885 1.403 . S
C883 C880 1.403 . S
C883 C884 1.524 . S
C883 C887 1.400 . S
C884 H869 0.960 . S
C884 H870 0.960 . S
C884 H871 0.960 . S
C884 C883 1.524 . S
C885 C882 1.403 . S
C885 C886 1.392 . S
C885 C889 1.495 . S
C886 C885 1.392 . S
C886 C887 1.385 . S
C886 C888 1.478 . S
C887 H881 0.930 . S
C887 C883 1.400 . S
C887 C886 1.385 . S
C888 C886 1.478 . S
C888 C890 1.381 . S
C888 C894 1.383 . S
C889 C885 1.495 . S
C889 H895 0.959 . S
C889 H896 0.961 . S
C889 H897 0.960 . S
C890 C888 1.381 . S
C890 C891 1.394 . S
C890 H898 0.930 . S
C891 C890 1.394 . S
C891 C892 1.383 . S
C891 H899 0.929 . S
C892 C891 1.383 . S
C892 C893 1.377 . S
C893 H877 0.930 . S
C893 C892 1.377 . S
C893 C894 1.379 . S
C894 H878 0.931 . S
C894 C888 1.383 . S
C894 C893 1.379 . S
H895 C889 0.959 . S
H896 C889 0.961 . S
H897 C889 0.960 . S
H898 C890 0.930 . S
H899 C891 0.929 . S
H900 C908 0.929 . S
H901 C910 0.930 . S
H902 C912 0.930 . S
H903 C915 0.929 . S
H904 C918 0.930 . S
H905 C920 0.960 . S
H906 C920 0.960 . S
H907 C920 0.960 . S
C908 H900 0.929 . S
C908 C909 1.377 . S
C908 C910 1.384 . S
C909 C908 1.377 . S
C909 C915 1.390 . S
C910 H901 0.930 . S
C910 C908 1.384 . S
C910 C911 1.372 . S
C911 C910 1.372 . S
C911 C912 1.400 . S
C911 C916 1.490 . S
C912 H902 0.930 . S
C912 C911 1.400 . S
C912 C915 1.386 . S
H913 C929 0.930 . S
H914 C930 0.931 . S
C915 H903 0.929 . S
C915 C909 1.390 . S
C915 C912 1.386 . S
C916 C911 1.490 . S
C916 C918 1.395 . S
C916 C919 1.403 . S
H917 C923 0.930 . S
C918 H904 0.930 . S
C918 C916 1.395 . S
C918 C921 1.403 . S
C919 C916 1.403 . S
C919 C920 1.524 . S
C919 C923 1.400 . S
C920 H905 0.960 . S
C920 H906 0.960 . S
C920 H907 0.960 . S
C920 C919 1.524 . S
C921 C918 1.403 . S
C921 C922 1.392 . S
C921 C925 1.495 . S
C922 C921 1.392 . S
C922 C923 1.385 . S
C922 C924 1.478 . S
C923 H917 0.930 . S
C923 C919 1.400 . S
C923 C922 1.385 . S
C924 C922 1.478 . S
C924 C926 1.381 . S
C924 C930 1.383 . S
C925 C921 1.495 . S
C925 H931 0.959 . S
C925 H932 0.961 . S
C925 H933 0.960 . S
C926 C924 1.381 . S
C926 C927 1.394 . S
C926 H934 0.930 . S
C927 C926 1.394 . S
C927 C928 1.383 . S
C927 H935 0.929 . S
C928 C927 1.383 . S
C928 C929 1.377 . S
C929 H913 0.930 . S
C929 C928 1.377 . S
C929 C930 1.379 . S
C930 H914 0.931 . S
C930 C924 1.383 . S
C930 C929 1.379 . S
H931 C925 0.959 . S
H932 C925 0.961 . S
H933 C925 0.960 . S
H934 C926 0.930 . S
H935 C927 0.929 . S
H936 C944 0.929 . S
H937 C946 0.930 . S
H938 C948 0.930 . S
H939 C951 0.929 . S
H940 C954 0.930 . S
H941 C956 0.960 . S
H942 C956 0.960 . S
H943 C956 0.960 . S
C944 H936 0.929 . S
C944 C945 1.377 . S
C944 C946 1.384 . S
C945 C944 1.377 . S
C945 C951 1.390 . S
C946 H937 0.930 . S
C946 C944 1.384 . S
C946 C947 1.372 . S
C947 C946 1.372 . S
C947 C948 1.400 . S
C947 C952 1.490 . S
C948 H938 0.930 . S
C948 C947 1.400 . S
C948 C951 1.386 . S
H949 C965 0.930 . S
H950 C966 0.931 . S
C951 H939 0.929 . S
C951 C945 1.390 . S
C951 C948 1.386 . S
C952 C947 1.490 . S
C952 C954 1.395 . S
C952 C955 1.403 . S
H953 C959 0.930 . S
C954 H940 0.930 . S
C954 C952 1.395 . S
C954 C957 1.403 . S
C955 C952 1.403 . S
C955 C956 1.524 . S
C955 C959 1.400 . S
C956 H941 0.960 . S
C956 H942 0.960 . S
C956 H943 0.960 . S
C956 C955 1.524 . S
C957 C954 1.403 . S
C957 C958 1.392 . S
C957 C961 1.495 . S
C958 C957 1.392 . S
C958 C959 1.385 . S
C958 C960 1.478 . S
C959 H953 0.930 . S
C959 C955 1.400 . S
C959 C958 1.385 . S
C960 C958 1.478 . S
C960 C962 1.381 . S
C960 C966 1.383 . S
C961 C957 1.495 . S
C961 H967 0.959 . S
C961 H968 0.961 . S
C961 H969 0.960 . S
C962 C960 1.381 . S
C962 C963 1.394 . S
C962 H970 0.930 . S
C963 C962 1.394 . S
C963 C964 1.383 . S
C963 H971 0.929 . S
C964 C963 1.383 . S
C964 C965 1.377 . S
C965 H949 0.930 . S
C965 C964 1.377 . S
C965 C966 1.379 . S
C966 H950 0.931 . S
C966 C960 1.383 . S
C966 C965 1.379 . S
H967 C961 0.959 . S
H968 C961 0.961 . S
H969 C961 0.960 . S
H970 C962 0.930 . S
H971 C963 0.929 . S
H972 C980 0.929 . S
H973 C982 0.930 . S
H974 C984 0.930 . S
H975 C987 0.929 1_655 S
H976 C990 0.930 . S
H977 C992 0.960 . S
H978 C992 0.960 . S
H979 C992 0.960 . S
C980 H972 0.929 . S
C980 C981 1.377 . S
C980 C982 1.384 . S
C981 C980 1.377 . S
C981 C987 1.390 . S
C982 H973 0.930 . S
C982 C980 1.384 . S
C982 C983 1.372 . S
C983 C982 1.372 . S
C983 C984 1.400 . S
C983 C988 1.490 . S
C984 H974 0.930 . S
C984 C983 1.400 . S
C984 C987 1.386 . S
H985 C1001 0.930 . S
H986 C1002 0.931 . S
C987 H975 0.929 1_455 S
C987 C981 1.390 . S
C987 C984 1.386 . S
C988 C983 1.490 . S
C988 C990 1.395 . S
C988 C991 1.403 . S
H989 C995 0.930 . S
C990 H976 0.930 . S
C990 C988 1.395 . S
C990 C993 1.403 . S
C991 C988 1.403 . S
C991 C992 1.524 . S
C991 C995 1.400 . S
C992 H977 0.960 . S
C992 H978 0.960 . S
C992 H979 0.960 . S
C992 C991 1.524 . S
C993 C990 1.403 . S
C993 C994 1.392 . S
C993 C997 1.495 . S
C994 C993 1.392 . S
C994 C995 1.385 . S
C994 C996 1.478 . S
C995 H989 0.930 . S
C995 C991 1.400 . S
C995 C994 1.385 . S
C996 C994 1.478 . S
C996 C998 1.381 . S
C996 C1002 1.383 . S
C997 C993 1.495 . S
C997 H1003 0.959 . S
C997 H1004 0.961 . S
C997 H1005 0.960 . S
C998 C996 1.381 . S
C998 C999 1.394 . S
C998 H1006 0.930 . S
C999 C998 1.394 . S
C999 C1000 1.383 . S
C999 H1007 0.929 . S
C1000 C999 1.383 . S
C1000 C1001 1.377 . S
C1001 H985 0.930 . S
C1001 C1000 1.377 . S
C1001 C1002 1.379 . S
C1002 H986 0.931 . S
C1002 C996 1.383 . S
C1002 C1001 1.379 . S
H1003 C997 0.959 . S
H1004 C997 0.961 . S
H1005 C997 0.960 . S
H1006 C998 0.930 . S
H1007 C999 0.929 . S
H1008 C1016 0.929 . S
H1009 C1018 0.930 . S
H1010 C1020 0.930 . S
H1011 C1023 0.929 . S
H1012 C1026 0.930 . S
H1013 C1028 0.960 . S
H1014 C1028 0.960 . S
H1015 C1028 0.960 . S
C1016 H1008 0.929 . S
C1016 C1017 1.377 . S
C1016 C1018 1.384 . S
C1017 C1016 1.377 . S
C1017 C1023 1.390 . S
C1018 H1009 0.930 . S
C1018 C1016 1.384 . S
C1018 C1019 1.372 . S
C1019 C1018 1.372 . S
C1019 C1020 1.400 . S
C1019 C1024 1.490 . S
C1020 H1010 0.930 . S
C1020 C1019 1.400 . S
C1020 C1023 1.386 . S
H1021 C1037 0.930 . S
H1022 C1038 0.931 . S
C1023 H1011 0.929 . S
C1023 C1017 1.390 . S
C1023 C1020 1.386 . S
C1024 C1019 1.490 . S
C1024 C1026 1.395 . S
C1024 C1027 1.403 . S
H1025 C1031 0.930 . S
C1026 H1012 0.930 . S
C1026 C1024 1.395 . S
C1026 C1029 1.403 . S
C1027 C1024 1.403 . S
C1027 C1028 1.524 . S
C1027 C1031 1.400 . S
C1028 H1013 0.960 . S
C1028 H1014 0.960 . S
C1028 H1015 0.960 . S
C1028 C1027 1.524 . S
C1029 C1026 1.403 . S
C1029 C1030 1.392 . S
C1029 C1033 1.495 . S
C1030 C1029 1.392 . S
C1030 C1031 1.385 . S
C1030 C1032 1.478 . S
C1031 H1025 0.930 . S
C1031 C1027 1.400 . S
C1031 C1030 1.385 . S
C1032 C1030 1.478 . S
C1032 C1034 1.381 . S
C1032 C1038 1.383 . S
C1033 C1029 1.495 . S
C1033 H1039 0.959 . S
C1033 H1040 0.961 . S
C1033 H1041 0.960 . S
C1034 C1032 1.381 . S
C1034 C1035 1.394 . S
C1034 H1042 0.930 . S
C1035 C1034 1.394 . S
C1035 C1036 1.383 . S
C1035 H1043 0.929 . S
C1036 C1035 1.383 . S
C1036 C1037 1.377 . S
C1037 H1021 0.930 . S
C1037 C1036 1.377 . S
C1037 C1038 1.379 . S
C1038 H1022 0.931 . S
C1038 C1032 1.383 . S
C1038 C1037 1.379 . S
H1039 C1033 0.959 . S
H1040 C1033 0.961 . S
H1041 C1033 0.960 . S
H1042 C1034 0.930 . S
H1043 C1035 0.929 . S
H1044 C1052 0.929 . S
H1045 C1054 0.930 . S
H1046 C1056 0.930 . S
H1047 C1059 0.929 . S
H1048 C1062 0.930 . S
H1049 C1064 0.960 . S
H1050 C1064 0.960 . S
H1051 C1064 0.960 . S
C1052 H1044 0.929 . S
C1052 C1053 1.377 . S
C1052 C1054 1.384 . S
C1053 C1052 1.377 . S
C1053 C1059 1.390 . S
C1054 H1045 0.930 . S
C1054 C1052 1.384 . S
C1054 C1055 1.372 . S
C1055 C1054 1.372 . S
C1055 C1056 1.400 . S
C1055 C1060 1.490 . S
C1056 H1046 0.930 . S
C1056 C1055 1.400 . S
C1056 C1059 1.386 . S
H1057 C1073 0.930 . S
H1058 C1074 0.931 . S
C1059 H1047 0.929 . S
C1059 C1053 1.390 . S
C1059 C1056 1.386 . S
C1060 C1055 1.490 . S
C1060 C1062 1.395 . S
C1060 C1063 1.403 . S
H1061 C1067 0.930 . S
C1062 H1048 0.930 . S
C1062 C1060 1.395 . S
C1062 C1065 1.403 . S
C1063 C1060 1.403 . S
C1063 C1064 1.524 . S
C1063 C1067 1.400 . S
C1064 H1049 0.960 . S
C1064 H1050 0.960 . S
C1064 H1051 0.960 . S
C1064 C1063 1.524 . S
C1065 C1062 1.403 . S
C1065 C1066 1.392 . S
C1065 C1069 1.495 . S
C1066 C1065 1.392 . S
C1066 C1067 1.385 . S
C1066 C1068 1.478 . S
C1067 H1061 0.930 . S
C1067 C1063 1.400 . S
C1067 C1066 1.385 . S
C1068 C1066 1.478 . S
C1068 C1070 1.381 . S
C1068 C1074 1.383 . S
C1069 C1065 1.495 . S
C1069 H1075 0.959 . S
C1069 H1076 0.961 . S
C1069 H1077 0.960 . S
C1070 C1068 1.381 . S
C1070 C1071 1.394 . S
C1070 H1078 0.930 . S
C1071 C1070 1.394 . S
C1071 C1072 1.383 . S
C1071 H1079 0.929 . S
C1072 C1071 1.383 . S
C1072 C1073 1.377 . S
C1073 H1057 0.930 . S
C1073 C1072 1.377 . S
C1073 C1074 1.379 . S
C1074 H1058 0.931 . S
C1074 C1068 1.383 . S
C1074 C1073 1.379 . S
H1075 C1069 0.959 . S
H1076 C1069 0.961 . S
H1077 C1069 0.960 . S
H1078 C1070 0.930 . S
H1079 C1071 0.929 . S
H1080 C1088 0.915 1_455 S
H1081 C1090 0.930 . S
H1082 C1092 0.941 . S
H1083 C1095 0.929 . S
H1084 C1098 0.940 . S
H1085 C1100 0.960 . S
H1086 C1100 0.960 . S
H1087 C1100 0.960 . S
C1088 H1080 0.915 1_655 S
C1088 C1089 1.377 . S
C1088 C1090 1.384 . S
C1089 C1088 1.377 . S
C1089 C1095 1.390 . S
C1090 H1081 0.930 . S
C1090 C1088 1.384 . S
C1090 C1091 1.372 . S
C1091 C1090 1.372 . S
C1091 C1092 1.400 . S
C1091 C1096 1.490 . S
C1092 H1082 0.941 . S
C1092 C1091 1.400 . S
C1092 C1095 1.386 . S
H1093 C1109 0.930 . S
H1094 C1110 0.931 . S
C1095 H1083 0.929 . S
C1095 C1089 1.390 . S
C1095 C1092 1.386 . S
C1096 C1091 1.490 . S
C1096 C1098 1.395 1_554 S
C1096 C1099 1.403 . S
H1097 C1103 0.930 . S
C1098 H1084 0.940 . S
C1098 C1096 1.395 1_556 S
C1098 C1101 1.403 . S
C1099 C1096 1.403 . S
C1099 C1100 1.524 . S
C1099 C1103 1.400 1_554 S
C1100 H1085 0.960 . S
C1100 H1086 0.960 . S
C1100 H1087 0.960 . S
C1100 C1099 1.524 . S
C1101 C1098 1.403 . S
C1101 C1102 1.392 . S
C1101 C1105 1.495 . S
C1102 C1101 1.392 . S
C1102 C1103 1.385 . S
C1102 C1104 1.478 . S
C1103 H1097 0.930 . S
C1103 C1099 1.400 1_556 S
C1103 C1102 1.385 . S
C1104 C1102 1.478 . S
C1104 C1106 1.381 . S
C1104 C1110 1.383 . S
C1105 C1101 1.495 . S
C1105 H1111 0.959 . S
C1105 H1112 0.961 . S
C1105 H1113 0.960 . S
C1106 C1104 1.381 . S
C1106 C1107 1.394 . S
C1106 H1114 0.930 . S
C1107 C1106 1.394 . S
C1107 C1108 1.383 . S
C1107 H1115 0.929 . S
C1108 C1107 1.383 . S
C1108 C1109 1.377 . S
C1109 H1093 0.930 . S
C1109 C1108 1.377 . S
C1109 C1110 1.379 . S
C1110 H1094 0.931 . S
C1110 C1104 1.383 . S
C1110 C1109 1.379 . S
H1111 C1105 0.959 . S
H1112 C1105 0.961 . S
H1113 C1105 0.960 . S
H1114 C1106 0.930 . S
H1115 C1107 0.929 . S
H1116 C1124 0.929 . S
H1117 C1126 0.930 . S
H1118 C1128 0.930 . S
H1119 C1131 0.929 1_545 S
H1120 C1134 0.930 . S
H1121 C1136 0.960 . S
H1122 C1136 0.960 . S
H1123 C1136 0.960 . S
C1124 H1116 0.929 . S
C1124 C1125 1.377 . S
C1124 C1126 1.384 . S
C1125 C1124 1.377 . S
C1125 C1131 1.390 . S
C1126 H1117 0.930 . S
C1126 C1124 1.384 . S
C1126 C1127 1.372 . S
C1127 C1126 1.372 . S
C1127 C1128 1.400 . S
C1127 C1132 1.490 . S
C1128 H1118 0.930 . S
C1128 C1127 1.400 . S
C1128 C1131 1.386 . S
H1129 C1145 0.930 . S
H1130 C1146 0.931 . S
C1131 H1119 0.929 1_565 S
C1131 C1125 1.390 . S
C1131 C1128 1.386 . S
C1132 C1127 1.490 . S
C1132 C1134 1.395 . S
C1132 C1135 1.403 . S
H1133 C1139 0.930 . S
C1134 H1120 0.930 . S
C1134 C1132 1.395 . S
C1134 C1137 1.403 . S
C1135 C1132 1.403 . S
C1135 C1136 1.524 . S
C1135 C1139 1.400 . S
C1136 H1121 0.960 . S
C1136 H1122 0.960 . S
C1136 H1123 0.960 . S
C1136 C1135 1.524 . S
C1137 C1134 1.403 . S
C1137 C1138 1.392 . S
C1137 C1141 1.495 . S
C1138 C1137 1.392 . S
C1138 C1139 1.385 . S
C1138 C1140 1.478 . S
C1139 H1133 0.930 . S
C1139 C1135 1.400 . S
C1139 C1138 1.385 . S
C1140 C1138 1.478 . S
C1140 C1142 1.381 . S
C1140 C1146 1.383 . S
C1141 C1137 1.495 . S
C1141 H1147 0.959 . S
C1141 H1148 0.961 . S
C1141 H1149 0.960 . S
C1142 C1140 1.381 . S
C1142 C1143 1.394 . S
C1142 H1150 0.930 . S
C1143 C1142 1.394 . S
C1143 C1144 1.383 . S
C1143 H1151 0.929 . S
C1144 C1143 1.383 . S
C1144 C1145 1.377 . S
C1145 H1129 0.930 . S
C1145 C1144 1.377 . S
C1145 C1146 1.379 . S
C1146 H1130 0.931 . S
C1146 C1140 1.383 . S
C1146 C1145 1.379 . S
H1147 C1141 0.959 . S
H1148 C1141 0.961 . S
H1149 C1141 0.960 . S
H1150 C1142 0.930 . S
H1151 C1143 0.929 . S
H1152 C1160 0.929 . S
H1153 C1162 0.930 . S
H1154 C1164 0.930 . S
H1155 C1167 0.929 . S
H1156 C1170 0.930 . S
H1157 C1172 0.960 . S
H1158 C1172 0.960 . S
H1159 C1172 0.960 . S
C1160 H1152 0.929 . S
C1160 C1161 1.377 . S
C1160 C1162 1.384 . S
C1161 C1160 1.377 . S
C1161 C1167 1.390 . S
C1162 H1153 0.930 . S
C1162 C1160 1.384 . S
C1162 C1163 1.372 . S
C1163 C1162 1.372 . S
C1163 C1164 1.400 . S
C1163 C1168 1.490 . S
C1164 H1154 0.930 . S
C1164 C1163 1.400 . S
C1164 C1167 1.386 . S
H1165 C1181 0.930 . S
H1166 C1182 0.931 . S
C1167 H1155 0.929 . S
C1167 C1161 1.390 . S
C1167 C1164 1.386 . S
C1168 C1163 1.490 . S
C1168 C1170 1.395 . S
C1168 C1171 1.403 . S
H1169 C1175 0.930 . S
C1170 H1156 0.930 . S
C1170 C1168 1.395 . S
C1170 C1173 1.403 . S
C1171 C1168 1.403 . S
C1171 C1172 1.524 . S
C1171 C1175 1.400 . S
C1172 H1157 0.960 . S
C1172 H1158 0.960 . S
C1172 H1159 0.960 . S
C1172 C1171 1.524 . S
C1173 C1170 1.403 . S
C1173 C1174 1.392 . S
C1173 C1177 1.495 . S
C1174 C1173 1.392 . S
C1174 C1175 1.385 . S
C1174 C1176 1.478 . S
C1175 H1169 0.930 . S
C1175 C1171 1.400 . S
C1175 C1174 1.385 . S
C1176 C1174 1.478 . S
C1176 C1178 1.381 . S
C1176 C1182 1.383 . S
C1177 C1173 1.495 . S
C1177 H1183 0.959 . S
C1177 H1184 0.961 . S
C1177 H1185 0.960 . S
C1178 C1176 1.381 . S
C1178 C1179 1.394 . S
C1178 H1186 0.930 . S
C1179 C1178 1.394 . S
C1179 C1180 1.383 . S
C1179 H1187 0.929 . S
C1180 C1179 1.383 . S
C1180 C1181 1.377 . S
C1181 H1165 0.930 . S
C1181 C1180 1.377 . S
C1181 C1182 1.379 . S
C1182 H1166 0.931 . S
C1182 C1176 1.383 . S
C1182 C1181 1.379 . S
H1183 C1177 0.959 . S
H1184 C1177 0.961 . S
H1185 C1177 0.960 . S
H1186 C1178 0.930 . S
H1187 C1179 0.929 . S
H1188 C1196 0.929 1_655 S
H1189 C1198 0.930 . S
H1190 C1200 0.930 . S
H1191 C1203 0.929 . S
H1192 C1206 0.930 . S
H1193 C1208 0.960 . S
H1194 C1208 0.960 . S
H1195 C1208 0.960 . S
C1196 H1188 0.929 1_455 S
C1196 C1197 1.377 . S
C1196 C1198 1.384 . S
C1197 C1196 1.377 . S
C1197 C1203 1.390 . S
C1198 H1189 0.930 . S
C1198 C1196 1.384 . S
C1198 C1199 1.372 . S
C1199 C1198 1.372 . S
C1199 C1200 1.400 . S
C1199 C1204 1.490 . S
C1200 H1190 0.930 . S
C1200 C1199 1.400 . S
C1200 C1203 1.386 . S
H1201 C1217 0.930 . S
H1202 C1218 0.931 . S
C1203 H1191 0.929 . S
C1203 C1197 1.390 . S
C1203 C1200 1.386 . S
C1204 C1199 1.490 . S
C1204 C1206 1.395 . S
C1204 C1207 1.403 . S
H1205 C1211 0.930 . S
C1206 H1192 0.930 . S
C1206 C1204 1.395 . S
C1206 C1209 1.403 . S
C1207 C1204 1.403 . S
C1207 C1208 1.524 . S
C1207 C1211 1.400 . S
C1208 H1193 0.960 . S
C1208 H1194 0.960 . S
C1208 H1195 0.960 . S
C1208 C1207 1.524 . S
C1209 C1206 1.403 . S
C1209 C1210 1.392 . S
C1209 C1213 1.495 . S
C1210 C1209 1.392 . S
C1210 C1211 1.385 . S
C1210 C1212 1.478 . S
C1211 H1205 0.930 . S
C1211 C1207 1.400 . S
C1211 C1210 1.385 . S
C1212 C1210 1.478 . S
C1212 C1214 1.381 . S
C1212 C1218 1.383 . S
C1213 C1209 1.495 . S
C1213 H1219 0.959 . S
C1213 H1220 0.961 . S
C1213 H1221 0.960 . S
C1214 C1212 1.381 . S
C1214 C1215 1.394 . S
C1214 H1222 0.930 . S
C1215 C1214 1.394 . S
C1215 C1216 1.383 . S
C1215 H1223 0.929 . S
C1216 C1215 1.383 . S
C1216 C1217 1.377 . S
C1217 H1201 0.930 . S
C1217 C1216 1.377 . S
C1217 C1218 1.379 . S
C1218 H1202 0.931 . S
C1218 C1212 1.383 . S
C1218 C1217 1.379 . S
H1219 C1213 0.959 . S
H1220 C1213 0.961 . S
H1221 C1213 0.960 . S
H1222 C1214 0.930 . S
H1223 C1215 0.929 . S
H1224 C1232 0.929 1_565 S
H1225 C1234 0.930 . S
H1226 C1236 0.930 . S
H1227 C1239 0.929 . S
H1228 C1242 0.930 . S
H1229 C1244 0.960 . S
H1230 C1244 0.960 . S
H1231 C1244 0.960 . S
C1232 H1224 0.929 1_545 S
C1232 C1233 1.377 . S
C1232 C1234 1.384 . S
C1233 C1232 1.377 . S
C1233 C1239 1.390 . S
C1234 H1225 0.930 . S
C1234 C1232 1.384 . S
C1234 C1235 1.372 . S
C1235 C1234 1.372 . S
C1235 C1236 1.400 . S
C1235 C1240 1.490 . S
C1236 H1226 0.930 . S
C1236 C1235 1.400 . S
C1236 C1239 1.386 . S
H1237 C1253 0.930 . S
H1238 C1254 0.931 . S
C1239 H1227 0.929 . S
C1239 C1233 1.390 . S
C1239 C1236 1.386 . S
C1240 C1235 1.490 . S
C1240 C1242 1.395 . S
C1240 C1243 1.403 . S
H1241 C1247 0.930 . S
C1242 H1228 0.930 . S
C1242 C1240 1.395 . S
C1242 C1245 1.403 . S
C1243 C1240 1.403 . S
C1243 C1244 1.524 . S
C1243 C1247 1.400 . S
C1244 H1229 0.960 . S
C1244 H1230 0.960 . S
C1244 H1231 0.960 . S
C1244 C1243 1.524 . S
C1245 C1242 1.403 . S
C1245 C1246 1.392 . S
C1245 C1249 1.495 . S
C1246 C1245 1.392 . S
C1246 C1247 1.385 . S
C1246 C1248 1.478 . S
C1247 H1241 0.930 . S
C1247 C1243 1.400 . S
C1247 C1246 1.385 . S
C1248 C1246 1.478 . S
C1248 C1250 1.381 . S
C1248 C1254 1.383 . S
C1249 C1245 1.495 . S
C1249 H1255 0.959 . S
C1249 H1256 0.961 . S
C1249 H1257 0.960 . S
C1250 C1248 1.381 . S
C1250 C1251 1.394 . S
C1250 H1258 0.930 . S
C1251 C1250 1.394 . S
C1251 C1252 1.383 . S
C1251 H1259 0.929 . S
C1252 C1251 1.383 . S
C1252 C1253 1.377 . S
C1253 H1237 0.930 . S
C1253 C1252 1.377 . S
C1253 C1254 1.379 . S
C1254 H1238 0.931 . S
C1254 C1248 1.383 . S
C1254 C1253 1.379 . S
H1255 C1249 0.959 . S
H1256 C1249 0.961 . S
H1257 C1249 0.960 . S
H1258 C1250 0.930 . S
H1259 C1251 0.929 . S
H1260 C1268 0.929 . S
H1261 C1270 0.930 . S
H1262 C1272 0.930 . S
H1263 C1275 0.929 . S
H1264 C1278 0.930 . S
H1265 C1280 0.960 . S
H1266 C1280 0.960 . S
H1267 C1280 0.960 . S
C1268 H1260 0.929 . S
C1268 C1269 1.377 1_655 S
C1268 C1270 1.384 . S
C1269 C1268 1.377 1_455 S
C1269 C1275 1.390 . S
C1270 H1261 0.930 . S
C1270 C1268 1.384 . S
C1270 C1271 1.372 1_655 S
C1271 C1270 1.372 1_455 S
C1271 C1272 1.400 . S
C1271 C1276 1.490 . S
C1272 H1262 0.930 . S
C1272 C1271 1.400 . S
C1272 C1275 1.386 . S
H1273 C1289 0.930 . S
H1274 C1290 0.931 . S
C1275 H1263 0.929 . S
C1275 C1269 1.390 . S
C1275 C1272 1.386 . S
C1276 C1271 1.490 . S
C1276 C1278 1.395 . S
C1276 C1279 1.403 1_455 S
H1277 C1283 0.930 . S
C1278 H1264 0.930 . S
C1278 C1276 1.395 . S
C1278 C1281 1.403 . S
C1279 C1276 1.403 1_655 S
C1279 C1280 1.524 . S
C1279 C1283 1.400 . S
C1280 H1265 0.960 . S
C1280 H1266 0.960 . S
C1280 H1267 0.960 . S
C1280 C1279 1.524 . S
C1281 C1278 1.403 . S
C1281 C1282 1.392 . S
C1281 C1285 1.495 . S
C1282 C1281 1.392 . S
C1282 C1283 1.385 1_455 S
C1282 C1284 1.478 . S
C1283 H1277 0.930 . S
C1283 C1279 1.400 . S
C1283 C1282 1.385 1_655 S
C1284 C1282 1.478 . S
C1284 C1286 1.381 1_455 S
C1284 C1290 1.383 . S
C1285 C1281 1.495 . S
C1285 H1291 0.959 . S
C1285 H1292 0.961 . S
C1285 H1293 0.960 . S
C1286 C1284 1.381 1_655 S
C1286 C1287 1.394 . S
C1286 H1294 0.930 . S
C1287 C1286 1.394 . S
C1287 C1288 1.383 1_655 S
C1287 H1295 0.929 . S
C1288 C1287 1.383 1_455 S
C1288 C1289 1.377 . S
C1289 H1273 0.930 . S
C1289 C1288 1.377 . S
C1289 C1290 1.379 . S
C1290 H1274 0.931 . S
C1290 C1284 1.383 . S
C1290 C1289 1.379 . S
H1291 C1285 0.959 . S
H1292 C1285 0.961 . S
H1293 C1285 0.960 . S
H1294 C1286 0.930 . S
H1295 C1287 0.929 . S
H1296 C1304 0.929 . S
H1297 C1306 0.930 . S
H1298 C1308 0.930 . S
H1299 C1311 0.929 . S
H1300 C1314 0.930 . S
H1301 C1316 0.960 . S
H1302 C1316 0.960 . S
H1303 C1316 0.960 . S
C1304 H1296 0.929 . S
C1304 C1305 1.377 . S
C1304 C1306 1.384 . S
C1305 C1304 1.377 . S
C1305 C1311 1.390 1_545 S
C1306 H1297 0.930 . S
C1306 C1304 1.384 . S
C1306 C1307 1.372 . S
C1307 C1306 1.372 . S
C1307 C1308 1.400 1_545 S
C1307 C1312 1.490 . S
C1308 H1298 0.930 . S
C1308 C1307 1.400 1_565 S
C1308 C1311 1.386 . S
H1309 C1325 0.930 . S
H1310 C1326 0.931 . S
C1311 H1299 0.929 . S
C1311 C1305 1.390 1_565 S
C1311 C1308 1.386 . S
C1312 C1307 1.490 . S
C1312 C1314 1.395 . S
C1312 C1315 1.403 1_545 S
H1313 C1319 0.930 . S
C1314 H1300 0.930 . S
C1314 C1312 1.395 . S
C1314 C1317 1.403 . S
C1315 C1312 1.403 1_565 S
C1315 C1316 1.524 . S
C1315 C1319 1.400 . S
C1316 H1301 0.960 . S
C1316 H1302 0.960 . S
C1316 H1303 0.960 . S
C1316 C1315 1.524 . S
C1317 C1314 1.403 . S
C1317 C1318 1.392 . S
C1317 C1321 1.495 . S
C1318 C1317 1.392 . S
C1318 C1319 1.385 1_545 S
C1318 C1320 1.478 . S
C1319 H1313 0.930 . S
C1319 C1315 1.400 . S
C1319 C1318 1.385 1_565 S
C1320 C1318 1.478 . S
C1320 C1322 1.381 . S
C1320 C1326 1.383 . S
C1321 C1317 1.495 . S
C1321 H1327 0.959 . S
C1321 H1328 0.961 . S
C1321 H1329 0.960 . S
C1322 C1320 1.381 . S
C1322 C1323 1.394 . S
C1322 H1330 0.930 . S
C1323 C1322 1.394 . S
C1323 C1324 1.383 . S
C1323 H1331 0.929 . S
C1324 C1323 1.383 . S
C1324 C1325 1.377 . S
C1325 H1309 0.930 . S
C1325 C1324 1.377 . S
C1325 C1326 1.379 . S
C1326 H1310 0.931 . S
C1326 C1320 1.383 . S
C1326 C1325 1.379 . S
H1327 C1321 0.959 . S
H1328 C1321 0.961 . S
H1329 C1321 0.960 . S
H1330 C1322 0.930 . S
H1331 C1323 0.929 . S
H1332 C1340 0.929 . S
H1333 C1342 0.930 . S
H1334 C1344 0.930 . S
H1335 C1347 0.929 . S
H1336 C1350 0.930 . S
H1337 C1352 0.960 . S
H1338 C1352 0.960 . S
H1339 C1352 0.960 . S
C1340 H1332 0.929 . S
C1340 C1341 1.377 . S
C1340 C1342 1.384 . S
C1341 C1340 1.377 . S
C1341 C1347 1.390 . S
C1342 H1333 0.930 . S
C1342 C1340 1.384 . S
C1342 C1343 1.372 . S
C1343 C1342 1.372 . S
C1343 C1344 1.400 . S
C1343 C1348 1.490 . S
C1344 H1334 0.930 . S
C1344 C1343 1.400 . S
C1344 C1347 1.386 . S
H1345 C1361 0.930 . S
H1346 C1362 0.931 . S
C1347 H1335 0.929 . S
C1347 C1341 1.390 . S
C1347 C1344 1.386 . S
C1348 C1343 1.490 . S
C1348 C1350 1.395 . S
C1348 C1351 1.403 . S
H1349 C1355 0.930 . S
C1350 H1336 0.930 . S
C1350 C1348 1.395 . S
C1350 C1353 1.403 . S
C1351 C1348 1.403 . S
C1351 C1352 1.524 . S
C1351 C1355 1.400 . S
C1352 H1337 0.960 . S
C1352 H1338 0.960 . S
C1352 H1339 0.960 . S
C1352 C1351 1.524 . S
C1353 C1350 1.403 . S
C1353 C1354 1.392 . S
C1353 C1357 1.495 . S
C1354 C1353 1.392 . S
C1354 C1355 1.385 . S
C1354 C1356 1.478 . S
C1355 H1349 0.930 . S
C1355 C1351 1.400 . S
C1355 C1354 1.385 . S
C1356 C1354 1.478 . S
C1356 C1358 1.381 . S
C1356 C1362 1.383 . S
C1357 C1353 1.495 . S
C1357 H1363 0.959 . S
C1357 H1364 0.961 . S
C1357 H1365 0.960 . S
C1358 C1356 1.381 . S
C1358 C1359 1.394 . S
C1358 H1366 0.930 . S
C1359 C1358 1.394 . S
C1359 C1360 1.383 . S
C1359 H1367 0.929 . S
C1360 C1359 1.383 . S
C1360 C1361 1.377 . S
C1361 H1345 0.930 . S
C1361 C1360 1.377 . S
C1361 C1362 1.379 . S
C1362 H1346 0.931 . S
C1362 C1356 1.383 . S
C1362 C1361 1.379 . S
H1363 C1357 0.959 . S
H1364 C1357 0.961 . S
H1365 C1357 0.960 . S
H1366 C1358 0.930 . S
H1367 C1359 0.929 . S
H1368 C1376 0.929 . S
H1369 C1378 0.930 . S
H1370 C1380 0.930 . S
H1371 C1383 0.929 . S
H1372 C1386 0.930 . S
H1373 C1388 0.960 . S
H1374 C1388 0.960 . S
H1375 C1388 0.960 . S
C1376 H1368 0.929 . S
C1376 C1377 1.377 1_455 S
C1376 C1378 1.384 . S
C1377 C1376 1.377 1_655 S
C1377 C1383 1.390 . S
C1378 H1369 0.930 . S
C1378 C1376 1.384 . S
C1378 C1379 1.372 1_455 S
C1379 C1378 1.372 1_655 S
C1379 C1380 1.400 . S
C1379 C1384 1.490 . S
C1380 H1370 0.930 . S
C1380 C1379 1.400 . S
C1380 C1383 1.386 . S
H1381 C1397 0.930 . S
H1382 C1398 0.931 . S
C1383 H1371 0.929 . S
C1383 C1377 1.390 . S
C1383 C1380 1.386 . S
C1384 C1379 1.490 . S
C1384 C1386 1.395 1_655 S
C1384 C1387 1.403 . S
H1385 C1391 0.930 . S
C1386 H1372 0.930 . S
C1386 C1384 1.395 1_455 S
C1386 C1389 1.403 . S
C1387 C1384 1.403 . S
C1387 C1388 1.524 . S
C1387 C1391 1.400 . S
C1388 H1373 0.960 . S
C1388 H1374 0.960 . S
C1388 H1375 0.960 . S
C1388 C1387 1.524 . S
C1389 C1386 1.403 . S
C1389 C1390 1.392 . S
C1389 C1393 1.495 . S
C1390 C1389 1.392 . S
C1390 C1391 1.385 1_455 S
C1390 C1392 1.478 . S
C1391 H1385 0.930 . S
C1391 C1387 1.400 . S
C1391 C1390 1.385 1_655 S
C1392 C1390 1.478 . S
C1392 C1394 1.381 . S
C1392 C1398 1.383 1_455 S
C1393 C1389 1.495 . S
C1393 H1399 0.959 . S
C1393 H1400 0.961 . S
C1393 H1401 0.960 . S
C1394 C1392 1.381 . S
C1394 C1395 1.394 . S
C1394 H1402 0.930 . S
C1395 C1394 1.394 . S
C1395 C1396 1.383 1_455 S
C1395 H1403 0.929 . S
C1396 C1395 1.383 1_655 S
C1396 C1397 1.377 . S
C1397 H1381 0.930 . S
C1397 C1396 1.377 . S
C1397 C1398 1.379 . S
C1398 H1382 0.931 . S
C1398 C1392 1.383 1_655 S
C1398 C1397 1.379 . S
H1399 C1393 0.959 . S
H1400 C1393 0.961 . S
H1401 C1393 0.960 . S
H1402 C1394 0.930 . S
H1403 C1395 0.929 . S
H1404 C1412 0.929 . S
H1405 C1414 0.930 . S
H1406 C1416 0.930 . S
H1407 C1419 0.929 . S
H1408 C1422 0.930 . S
H1409 C1424 0.960 . S
H1410 C1424 0.960 . S
H1411 C1424 0.960 1_565 S
C1412 H1404 0.929 . S
C1412 C1413 1.377 1_545 S
C1412 C1414 1.384 . S
C1413 C1412 1.377 1_565 S
C1413 C1419 1.390 . S
C1414 H1405 0.930 . S
C1414 C1412 1.384 . S
C1414 C1415 1.372 1_545 S
C1415 C1414 1.372 1_565 S
C1415 C1416 1.400 . S
C1415 C1420 1.490 . S
C1416 H1406 0.930 . S
C1416 C1415 1.400 . S
C1416 C1419 1.386 . S
H1417 C1433 0.930 . S
H1418 C1434 0.931 . S
C1419 H1407 0.929 . S
C1419 C1413 1.390 . S
C1419 C1416 1.386 . S
C1420 C1415 1.490 . S
C1420 C1422 1.395 . S
C1420 C1423 1.414 1_565 S
H1421 C1427 0.948 1_545 S
C1422 H1408 0.930 . S
C1422 C1420 1.395 . S
C1422 C1425 1.403 . S
C1423 C1420 1.414 1_545 S
C1423 C1424 1.522 . S
C1423 C1427 1.386 1_545 S
C1424 H1409 0.960 . S
C1424 H1410 0.960 . S
C1424 H1411 0.960 1_545 S
C1424 C1423 1.522 . S
C1425 C1422 1.403 . S
C1425 C1426 1.392 . S
C1425 C1429 1.495 . S
C1426 C1425 1.392 . S
C1426 C1427 1.384 . S
C1426 C1428 1.478 . S
C1427 H1421 0.948 1_565 S
C1427 C1423 1.386 1_565 S
C1427 C1426 1.384 . S
C1428 C1426 1.478 . S
C1428 C1430 1.381 1_565 S
C1428 C1434 1.383 . S
C1429 C1425 1.495 . S
C1429 H1435 0.959 . S
C1429 H1436 0.961 . S
C1429 H1437 0.960 1_565 S
C1430 C1428 1.381 1_545 S
C1430 C1431 1.394 . S
C1430 H1438 0.930 . S
C1431 C1430 1.394 . S
C1431 C1432 1.383 1_545 S
C1431 H1439 0.929 . S
C1432 C1431 1.383 1_565 S
C1432 C1433 1.377 . S
C1433 H1417 0.930 . S
C1433 C1432 1.377 . S
C1433 C1434 1.379 . S
C1434 H1418 0.931 . S
C1434 C1428 1.383 . S
C1434 C1433 1.379 . S
H1435 C1429 0.959 . S
H1436 C1429 0.961 . S
H1437 C1429 0.960 1_545 S
H1438 C1430 0.930 . S
H1439 C1431 0.929 . S
H1440 C1448 0.929 . S
H1441 C1450 0.930 . S
H1442 C1452 0.930 . S
H1443 C1455 0.929 . S
H1444 C1458 0.930 . S
H1445 C1460 0.960 . S
H1446 C1460 0.960 . S
H1447 C1460 0.960 . S
C1448 H1440 0.929 . S
C1448 C1449 1.377 . S
C1448 C1450 1.384 . S
C1449 C1448 1.377 . S
C1449 C1455 1.390 . S
C1450 H1441 0.930 . S
C1450 C1448 1.384 . S
C1450 C1451 1.372 . S
C1451 C1450 1.372 . S
C1451 C1452 1.400 . S
C1451 C1456 1.490 . S
C1452 H1442 0.930 . S
C1452 C1451 1.400 . S
C1452 C1455 1.386 . S
H1453 C1469 0.930 . S
H1454 C1470 0.931 . S
C1455 H1443 0.929 . S
C1455 C1449 1.390 . S
C1455 C1452 1.386 . S
C1456 C1451 1.490 . S
C1456 C1458 1.395 . S
C1456 C1459 1.403 . S
H1457 C1463 0.930 . S
C1458 H1444 0.930 . S
C1458 C1456 1.395 . S
C1458 C1461 1.403 . S
C1459 C1456 1.403 . S
C1459 C1460 1.524 . S
C1459 C1463 1.400 . S
C1460 H1445 0.960 . S
C1460 H1446 0.960 . S
C1460 H1447 0.960 . S
C1460 C1459 1.524 . S
C1461 C1458 1.403 . S
C1461 C1462 1.392 . S
C1461 C1465 1.495 . S
C1462 C1461 1.392 . S
C1462 C1463 1.385 . S
C1462 C1464 1.478 . S
C1463 H1457 0.930 . S
C1463 C1459 1.400 . S
C1463 C1462 1.385 . S
C1464 C1462 1.478 . S
C1464 C1466 1.381 . S
C1464 C1470 1.383 . S
C1465 C1461 1.495 . S
C1465 H1471 0.959 . S
C1465 H1472 0.961 . S
C1465 H1473 0.960 . S
C1466 C1464 1.381 . S
C1466 C1467 1.394 . S
C1466 H1474 0.930 . S
C1467 C1466 1.394 . S
C1467 C1468 1.383 . S
C1467 H1475 0.929 . S
C1468 C1467 1.383 . S
C1468 C1469 1.377 . S
C1469 H1453 0.930 . S
C1469 C1468 1.377 . S
C1469 C1470 1.379 . S
C1470 H1454 0.931 . S
C1470 C1464 1.383 . S
C1470 C1469 1.379 . S
H1471 C1465 0.959 . S
H1472 C1465 0.961 . S
H1473 C1465 0.960 . S
H1474 C1466 0.930 . S
H1475 C1467 0.929 . S
C405 C238 1.351 . S
C424 C7 1.326 . S
C441 C271 1.347 . S
C460 C40 1.324 . S
C477 C73 1.345 . S
C496 C304 1.363 . S
C513 C337 1.353 . S
C532 C106 1.339 . S
C549 C139 1.344 . S
C568 C370 1.334 . S
C585 C205 1.351 . S
C604 C172 1.356 . S
C621 N2 1.813 . S
C640 N266 1.807 . S
C657 N35 1.815 . S
C676 N299 1.828 . S
C693 N332 1.810 . S
C712 N68 1.808 . S
C729 N365 1.812 . S
C748 N101 1.818 . S
C765 N134 1.807 . S
C784 N200 1.787 . S
C801 N233 1.808 . S
C820 N167 1.787 . S
C837 N244 1.095 . S
C856 C21 1.113 . S
C873 N277 1.091 . S
C892 C54 1.107 . S
C909 N310 1.095 . S
C928 C87 1.103 . S
C945 C120 1.109 . S
C964 N343 1.106 . S
C981 N376 1.089 . S
C1000 C153 1.102 . S
C1017 C186 1.109 . S
C1036 N211 1.075 . S
C1053 C219 1.108 . S
C1072 N178 1.093 . S
C1089 N13 1.098 . S
C1108 C252 1.114 . S
C1125 N46 1.090 . S
C1144 C285 1.106 . S
C1161 N79 1.100 . S
C1180 C318 1.113 . S
C1197 N112 1.099 . S
C1216 C351 1.114 . S
C1233 N145 1.099 . S
C1252 C384 1.114 . S
C1269 C282 1.392 . S
C1288 C18 1.370 . S
C1305 C51 1.392 . S
C1324 C315 1.371 . S
C1341 C348 1.390 . S
C1360 C84 1.376 . S
C1377 C117 1.388 . S
C1396 C381 1.390 . S
C1413 C150 1.391 . S
C1432 C216 1.375 . S
C1449 C249 1.391 . S
C1468 C183 1.377 . S
