# Generated by pormake.
# Topology ukd, (4)-cn, num edge types: 1
# Building blocks:
#     Node 0, Type 0, BuildingBlock: GALJAG_clean_sbu_0, # of connection points: 4
#     Node 1, Type 0, BuildingBlock: GALJAG_clean_sbu_0, # of connection points: 4
#     Node 2, Type 0, BuildingBlock: GALJAG_clean_sbu_0, # of connection points: 4
#     Node 3, Type 0, BuildingBlock: GALJAG_clean_sbu_0, # of connection points: 4
#     Node 4, Type 0, BuildingBlock: GALJAG_clean_sbu_0, # of connection points: 4
#     Node 5, Type 0, BuildingBlock: GALJAG_clean_sbu_0, # of connection points: 4
#     Node 6, Type 0, BuildingBlock: GALJAG_clean_sbu_0, # of connection points: 4
#     Node 7, Type 0, BuildingBlock: GALJAG_clean_sbu_0, # of connection points: 4
#     Node 8, Type 0, BuildingBlock: GALJAG_clean_sbu_0, # of connection points: 4
#     Node 9, Type 0, BuildingBlock: GALJAG_clean_sbu_0, # of connection points: 4
#     Node 10, Type 0, BuildingBlock: GALJAG_clean_sbu_0, # of connection points: 4
#     Node 11, Type 0, BuildingBlock: GALJAG_clean_sbu_0, # of connection points: 4
#     Node 12, Type 0, BuildingBlock: GALJAG_clean_sbu_0, # of connection points: 4
#     Node 13, Type 0, BuildingBlock: GALJAG_clean_sbu_0, # of connection points: 4
#     Node 14, Type 0, BuildingBlock: GALJAG_clean_sbu_0, # of connection points: 4
#     Node 15, Type 0, BuildingBlock: GALJAG_clean_sbu_0, # of connection points: 4
#     Node 16, Type 0, BuildingBlock: GALJAG_clean_sbu_0, # of connection points: 4
#     Node 17, Type 0, BuildingBlock: GALJAG_clean_sbu_0, # of connection points: 4
#     Node 18, Type 0, BuildingBlock: GALJAG_clean_sbu_0, # of connection points: 4
#     Node 19, Type 0, BuildingBlock: GALJAG_clean_sbu_0, # of connection points: 4
#     Node 20, Type 0, BuildingBlock: GALJAG_clean_sbu_0, # of connection points: 4
#     Node 21, Type 0, BuildingBlock: GALJAG_clean_sbu_0, # of connection points: 4
#     Node 22, Type 0, BuildingBlock: GALJAG_clean_sbu_0, # of connection points: 4
#     Node 23, Type 0, BuildingBlock: GALJAG_clean_sbu_0, # of connection points: 4
#     Node 24, Type 0, BuildingBlock: GALJAG_clean_sbu_0, # of connection points: 4
#     Node 25, Type 0, BuildingBlock: GALJAG_clean_sbu_0, # of connection points: 4
#     Node 26, Type 0, BuildingBlock: GALJAG_clean_sbu_0, # of connection points: 4
#     Node 27, Type 0, BuildingBlock: GALJAG_clean_sbu_0, # of connection points: 4
#     Node 28, Type 0, BuildingBlock: GALJAG_clean_sbu_0, # of connection points: 4
#     Node 29, Type 0, BuildingBlock: GALJAG_clean_sbu_0, # of connection points: 4
#     Node 30, Type 0, BuildingBlock: GALJAG_clean_sbu_0, # of connection points: 4
#     Node 31, Type 0, BuildingBlock: GALJAG_clean_sbu_0, # of connection points: 4
#     Edge 32, Type (0, 0), BuildingBlock: KIFKEQ_clean_linker_1, # of connection points: 2
#     Edge 33, Type (0, 0), BuildingBlock: KIFKEQ_clean_linker_1, # of connection points: 2
#     Edge 34, Type (0, 0), BuildingBlock: KIFKEQ_clean_linker_1, # of connection points: 2
#     Edge 35, Type (0, 0), BuildingBlock: KIFKEQ_clean_linker_1, # of connection points: 2
#     Edge 36, Type (0, 0), BuildingBlock: KIFKEQ_clean_linker_1, # of connection points: 2
#     Edge 37, Type (0, 0), BuildingBlock: KIFKEQ_clean_linker_1, # of connection points: 2
#     Edge 38, Type (0, 0), BuildingBlock: KIFKEQ_clean_linker_1, # of connection points: 2
#     Edge 39, Type (0, 0), BuildingBlock: KIFKEQ_clean_linker_1, # of connection points: 2
#     Edge 40, Type (0, 0), BuildingBlock: KIFKEQ_clean_linker_1, # of connection points: 2
#     Edge 41, Type (0, 0), BuildingBlock: KIFKEQ_clean_linker_1, # of connection points: 2
#     Edge 42, Type (0, 0), BuildingBlock: KIFKEQ_clean_linker_1, # of connection points: 2
#     Edge 43, Type (0, 0), BuildingBlock: KIFKEQ_clean_linker_1, # of connection points: 2
#     Edge 44, Type (0, 0), BuildingBlock: KIFKEQ_clean_linker_1, # of connection points: 2
#     Edge 45, Type (0, 0), BuildingBlock: KIFKEQ_clean_linker_1, # of connection points: 2
#     Edge 46, Type (0, 0), BuildingBlock: KIFKEQ_clean_linker_1, # of connection points: 2
#     Edge 47, Type (0, 0), BuildingBlock: KIFKEQ_clean_linker_1, # of connection points: 2
#     Edge 48, Type (0, 0), BuildingBlock: KIFKEQ_clean_linker_1, # of connection points: 2
#     Edge 49, Type (0, 0), BuildingBlock: KIFKEQ_clean_linker_1, # of connection points: 2
#     Edge 50, Type (0, 0), BuildingBlock: KIFKEQ_clean_linker_1, # of connection points: 2
#     Edge 51, Type (0, 0), BuildingBlock: KIFKEQ_clean_linker_1, # of connection points: 2
#     Edge 52, Type (0, 0), BuildingBlock: KIFKEQ_clean_linker_1, # of connection points: 2
#     Edge 53, Type (0, 0), BuildingBlock: KIFKEQ_clean_linker_1, # of connection points: 2
#     Edge 54, Type (0, 0), BuildingBlock: KIFKEQ_clean_linker_1, # of connection points: 2
#     Edge 55, Type (0, 0), BuildingBlock: KIFKEQ_clean_linker_1, # of connection points: 2
#     Edge 56, Type (0, 0), BuildingBlock: KIFKEQ_clean_linker_1, # of connection points: 2
#     Edge 57, Type (0, 0), BuildingBlock: KIFKEQ_clean_linker_1, # of connection points: 2
#     Edge 58, Type (0, 0), BuildingBlock: KIFKEQ_clean_linker_1, # of connection points: 2
#     Edge 59, Type (0, 0), BuildingBlock: KIFKEQ_clean_linker_1, # of connection points: 2
#     Edge 60, Type (0, 0), BuildingBlock: KIFKEQ_clean_linker_1, # of connection points: 2
#     Edge 61, Type (0, 0), BuildingBlock: KIFKEQ_clean_linker_1, # of connection points: 2
#     Edge 62, Type (0, 0), BuildingBlock: KIFKEQ_clean_linker_1, # of connection points: 2
#     Edge 63, Type (0, 0), BuildingBlock: KIFKEQ_clean_linker_1, # of connection points: 2
#     Edge 64, Type (0, 0), BuildingBlock: KIFKEQ_clean_linker_1, # of connection points: 2
#     Edge 65, Type (0, 0), BuildingBlock: KIFKEQ_clean_linker_1, # of connection points: 2
#     Edge 66, Type (0, 0), BuildingBlock: KIFKEQ_clean_linker_1, # of connection points: 2
#     Edge 67, Type (0, 0), BuildingBlock: KIFKEQ_clean_linker_1, # of connection points: 2
#     Edge 68, Type (0, 0), BuildingBlock: KIFKEQ_clean_linker_1, # of connection points: 2
#     Edge 69, Type (0, 0), BuildingBlock: KIFKEQ_clean_linker_1, # of connection points: 2
#     Edge 70, Type (0, 0), BuildingBlock: KIFKEQ_clean_linker_1, # of connection points: 2
#     Edge 71, Type (0, 0), BuildingBlock: KIFKEQ_clean_linker_1, # of connection points: 2
#     Edge 72, Type (0, 0), BuildingBlock: KIFKEQ_clean_linker_1, # of connection points: 2
#     Edge 73, Type (0, 0), BuildingBlock: KIFKEQ_clean_linker_1, # of connection points: 2
#     Edge 74, Type (0, 0), BuildingBlock: KIFKEQ_clean_linker_1, # of connection points: 2
#     Edge 75, Type (0, 0), BuildingBlock: KIFKEQ_clean_linker_1, # of connection points: 2
#     Edge 76, Type (0, 0), BuildingBlock: KIFKEQ_clean_linker_1, # of connection points: 2
#     Edge 77, Type (0, 0), BuildingBlock: KIFKEQ_clean_linker_1, # of connection points: 2
#     Edge 78, Type (0, 0), BuildingBlock: KIFKEQ_clean_linker_1, # of connection points: 2
#     Edge 79, Type (0, 0), BuildingBlock: KIFKEQ_clean_linker_1, # of connection points: 2
#     Edge 80, Type (0, 0), BuildingBlock: KIFKEQ_clean_linker_1, # of connection points: 2
#     Edge 81, Type (0, 0), BuildingBlock: KIFKEQ_clean_linker_1, # of connection points: 2
#     Edge 82, Type (0, 0), BuildingBlock: KIFKEQ_clean_linker_1, # of connection points: 2
#     Edge 83, Type (0, 0), BuildingBlock: KIFKEQ_clean_linker_1, # of connection points: 2
#     Edge 84, Type (0, 0), BuildingBlock: KIFKEQ_clean_linker_1, # of connection points: 2
#     Edge 85, Type (0, 0), BuildingBlock: KIFKEQ_clean_linker_1, # of connection points: 2
#     Edge 86, Type (0, 0), BuildingBlock: KIFKEQ_clean_linker_1, # of connection points: 2
#     Edge 87, Type (0, 0), BuildingBlock: KIFKEQ_clean_linker_1, # of connection points: 2
#     Edge 88, Type (0, 0), BuildingBlock: KIFKEQ_clean_linker_1, # of connection points: 2
#     Edge 89, Type (0, 0), BuildingBlock: KIFKEQ_clean_linker_1, # of connection points: 2
#     Edge 90, Type (0, 0), BuildingBlock: KIFKEQ_clean_linker_1, # of connection points: 2
#     Edge 91, Type (0, 0), BuildingBlock: KIFKEQ_clean_linker_1, # of connection points: 2
#     Edge 92, Type (0, 0), BuildingBlock: KIFKEQ_clean_linker_1, # of connection points: 2
#     Edge 93, Type (0, 0), BuildingBlock: KIFKEQ_clean_linker_1, # of connection points: 2
#     Edge 94, Type (0, 0), BuildingBlock: KIFKEQ_clean_linker_1, # of connection points: 2
#     Edge 95, Type (0, 0), BuildingBlock: KIFKEQ_clean_linker_1, # of connection points: 2
# Relax obj value: 0.105
# Max RMSD: 0.103
# Mean RMSD: 0.103
data_MOF--net-ukd--node1-GALJAG_clean_sbu_0--edge1-KIFKEQ_clean_linker_1
_symmetry_space_group_name_H-M    P1
_symmetry_Int_Tables_number       1
_symmetry_cell_setting            triclinic
loop_
_symmetry_equiv_pos_as_xyz
'x, y, z'
_cell_length_a     46.750825
_cell_length_b     46.63455
_cell_length_c     72.569737
_cell_angle_alpha  90.002612
_cell_angle_beta   90.009459
_cell_angle_gamma 89.976356
loop_
_atom_site_label
_atom_site_type_symbol
_atom_site_fract_x
_atom_site_fract_y
_atom_site_fract_z
_atom_type_partial_charge
In0 In 0.21005 0.17956 0.34046 0.0
O1 O 0.1707 0.15279 0.33317 0.0
O2 O 0.18473 0.15326 0.36109 0.0
C3 C 0.2256 0.20057 0.30739 0.0
C4 C 0.25534 0.14654 0.34919 0.0
C5 C 0.18921 0.22796 0.35562 0.0
O6 O 0.20746 0.18065 0.309 0.0
O7 O 0.23626 0.2092 0.32235 0.0
O8 O 0.2117 0.21614 0.36167 0.0
O9 O 0.17747 0.21511 0.34234 0.0
C10 C 0.1668 0.14412 0.34948 0.0
O11 O 0.25053 0.17011 0.35722 0.0
O12 O 0.23767 0.14011 0.33674 0.0
In13 In 0.06198 0.96494 0.59489 0.0
O14 O 0.07264 0.00321 0.61334 0.0
O15 O 0.09915 0.9953 0.59006 0.0
C16 C 0.01371 0.95478 0.6145 0.0
C17 C 0.09903 0.92122 0.59981 0.0
C18 C 0.04131 0.97159 0.56048 0.0
O19 O 0.03577 0.93947 0.61572 0.0
O20 O 0.01618 0.97596 0.60385 0.0
O21 O 0.04282 0.94733 0.56815 0.0
O22 O 0.05096 0.99208 0.56995 0.0
C23 C 0.09412 0.01075 0.60395 0.0
O24 O 0.08639 0.92527 0.58464 0.0
O25 O 0.09329 0.93941 0.61212 0.0
In26 In 0.28593 0.81506 0.84201 0.0
O27 O 0.25099 0.82789 0.86245 0.0
O28 O 0.25021 0.847 0.83592 0.0
C29 C 0.30391 0.76889 0.86126 0.0
C30 C 0.32892 0.85268 0.84738 0.0
C31 C 0.27554 0.79216 0.80849 0.0
O32 O 0.27773 0.77425 0.85876 0.0
O33 O 0.32081 0.78698 0.85434 0.0
O34 O 0.28756 0.8162 0.81043 0.0
O35 O 0.2687 0.78002 0.82334 0.0
C36 C 0.23892 0.8453 0.85165 0.0
O37 O 0.32748 0.83705 0.83318 0.0
O38 O 0.30859 0.84947 0.85863 0.0
In39 In 0.43256 0.03513 0.09202 0.0
O40 O 0.42235 0.99806 0.11158 0.0
O41 O 0.39678 0.003 0.08752 0.0
C42 C 0.48069 0.04895 0.11096 0.0
C43 C 0.39345 0.07706 0.09655 0.0
C44 C 0.45262 0.02651 0.05763 0.0
O45 O 0.47848 0.02619 0.10174 0.0
O46 O 0.45846 0.06412 0.11112 0.0
O47 O 0.44765 0.05132 0.06383 0.0
O48 O 0.44678 0.00637 0.06857 0.0
C49 C 0.40163 0.98894 0.10204 0.0
O50 O 0.40722 0.07411 0.08168 0.0
O51 O 0.39916 0.0587 0.10877 0.0
In52 In 0.21004 0.81407 0.15377 0.0
O53 O 0.24656 0.82418 0.13383 0.0
O54 O 0.24318 0.84889 0.15838 0.0
C55 C 0.18669 0.76639 0.13914 0.0
C56 C 0.16772 0.85161 0.14634 0.0
C57 C 0.22643 0.7924 0.18648 0.0
O58 O 0.21066 0.77583 0.13383 0.0
O59 O 0.17483 0.78106 0.15157 0.0
O60 O 0.20916 0.81315 0.18519 0.0
O61 O 0.23567 0.78298 0.17131 0.0
C62 C 0.25653 0.84431 0.14357 0.0
O63 O 0.17248 0.84254 0.16245 0.0
O64 O 0.18462 0.84217 0.13421 0.0
In65 In 0.43071 0.95636 0.40422 0.0
O66 O 0.4223 0.99653 0.38676 0.0
O67 O 0.39001 0.98273 0.40537 0.0
C68 C 0.47861 0.93445 0.38909 0.0
C69 C 0.39602 0.91112 0.39861 0.0
C70 C 0.45169 0.97535 0.43656 0.0
O71 O 0.46504 0.9548 0.38158 0.0
O72 O 0.46776 0.92529 0.40386 0.0
O73 O 0.4319 0.95701 0.43566 0.0
O74 O 0.46024 0.98462 0.42121 0.0
C75 C 0.39763 0.00065 0.39334 0.0
O76 O 0.40435 0.91842 0.41449 0.0
O77 O 0.40514 0.92668 0.38564 0.0
In78 In 0.28746 0.18628 0.65224 0.0
O79 O 0.32543 0.15813 0.66069 0.0
O80 O 0.31339 0.15889 0.63247 0.0
C81 C 0.27044 0.20637 0.68521 0.0
C82 C 0.24143 0.15513 0.64246 0.0
C83 C 0.30818 0.2355 0.63797 0.0
O84 O 0.29022 0.18807 0.68357 0.0
O85 O 0.25909 0.21419 0.67025 0.0
O86 O 0.28584 0.22378 0.63171 0.0
O87 O 0.3199 0.22223 0.65108 0.0
C88 C 0.33024 0.14928 0.64455 0.0
O89 O 0.25071 0.17551 0.63267 0.0
O90 O 0.25532 0.15066 0.65709 0.0
In91 In 0.0704 0.04247 0.90517 0.0
O92 O 0.09884 0.07857 0.91578 0.0
O93 O 0.09903 0.07017 0.887 0.0
C94 C 0.04838 0.02575 0.93774 0.0
C95 C 0.10109 0.99656 0.89427 0.0
C96 C 0.0226 0.06506 0.89012 0.0
O97 O 0.06594 0.04614 0.93628 0.0
O98 O 0.04243 0.01324 0.92281 0.0
O99 O 0.03312 0.04174 0.88444 0.0
O100 O 0.03634 0.07675 0.903 0.0
C101 C 0.10823 0.0854 0.90009 0.0
O102 O 0.08083 0.00669 0.88476 0.0
O103 O 0.10575 0.00958 0.90922 0.0
In104 In 0.78906 0.82017 0.65603 0.0
O105 O 0.74919 0.82924 0.63856 0.0
O106 O 0.76212 0.86038 0.6583 0.0
C107 C 0.81034 0.77173 0.64092 0.0
C108 C 0.83254 0.8567 0.64968 0.0
C109 C 0.77233 0.79981 0.68906 0.0
O110 O 0.78897 0.78446 0.63407 0.0
O111 O 0.8207 0.78358 0.655 0.0
O112 O 0.79406 0.81552 0.68706 0.0
O113 O 0.75859 0.79489 0.67443 0.0
C114 C 0.74459 0.8534 0.64588 0.0
O115 O 0.8251 0.8493 0.66571 0.0
O116 O 0.81797 0.84571 0.63683 0.0
In117 In 0.93417 0.0335 0.40496 0.0
O118 O 0.97023 0.03252 0.38349 0.0
O119 O 0.97647 0.0564 0.40816 0.0
C120 C 0.89898 0.99302 0.39102 0.0
C121 C 0.94702 0.01456 0.43908 0.0
C122 C 0.90643 0.08262 0.39703 0.0
O123 O 0.92566 0.99243 0.38835 0.0
O124 O 0.89033 0.01386 0.40055 0.0
O125 O 0.90308 0.06979 0.41222 0.0
O126 O 0.92338 0.07053 0.38596 0.0
C127 C 0.98655 0.04852 0.39286 0.0
O128 O 0.93475 0.03828 0.43625 0.0
O129 O 0.95203 0.00013 0.42475 0.0
In130 In 0.70853 0.17885 0.15554 0.0
O131 O 0.67048 0.15163 0.16432 0.0
O132 O 0.67876 0.15566 0.1356 0.0
C133 C 0.72491 0.19671 0.18924 0.0
C134 C 0.7522 0.1446 0.14535 0.0
C135 C 0.69063 0.22898 0.1409 0.0
O136 O 0.70257 0.18213 0.1866 0.0
O137 O 0.73947 0.20156 0.17495 0.0
O138 O 0.7101 0.21425 0.1334 0.0
O139 O 0.68041 0.21825 0.15539 0.0
C140 C 0.66312 0.14521 0.1481 0.0
O141 O 0.74961 0.16988 0.13932 0.0
O142 O 0.73302 0.1369 0.15651 0.0
In143 In 0.56206 0.96152 0.90278 0.0
O144 O 0.52741 0.96211 0.8803 0.0
O145 O 0.52042 0.93709 0.90438 0.0
C146 C 0.59823 0.00336 0.89215 0.0
C147 C 0.54588 0.98091 0.93612 0.0
C148 C 0.59175 0.91353 0.89481 0.0
O149 O 0.57267 0.00235 0.88654 0.0
O150 O 0.60527 0.98346 0.903 0.0
O151 O 0.58735 0.92157 0.9112 0.0
O152 O 0.58132 0.92974 0.88262 0.0
C153 C 0.51099 0.94536 0.88901 0.0
O154 O 0.56127 0.95885 0.93414 0.0
O155 O 0.53924 0.99344 0.92132 0.0
In156 In 0.78836 0.18404 0.84358 0.0
O157 O 0.82858 0.15933 0.83526 0.0
O158 O 0.81878 0.16299 0.8638 0.0
C159 C 0.77055 0.20272 0.81046 0.0
C160 C 0.74524 0.14857 0.85302 0.0
C161 C 0.80517 0.2344 0.85812 0.0
O162 O 0.79029 0.18438 0.81214 0.0
O163 O 0.75942 0.21085 0.82541 0.0
O164 O 0.78767 0.21822 0.86641 0.0
O165 O 0.81403 0.22495 0.84288 0.0
C166 C 0.83565 0.15357 0.85165 0.0
O167 O 0.74726 0.17364 0.85949 0.0
O168 O 0.76477 0.1417 0.8419 0.0
In169 In 0.56451 0.03944 0.59078 0.0
O170 O 0.56157 0.04616 0.55974 0.0
O171 O 0.54384 0.00794 0.57093 0.0
C172 C 0.59637 0.08529 0.6001 0.0
C173 C 0.51337 0.05658 0.60402 0.0
C174 C 0.59928 0.99635 0.60127 0.0
O175 O 0.5932 0.07747 0.58355 0.0
O176 O 0.58365 0.06987 0.61181 0.0
O177 O 0.57373 0.99814 0.60685 0.0
O178 O 0.60694 0.016 0.59041 0.0
C179 C 0.54815 0.02312 0.55681 0.0
O180 O 0.52801 0.03753 0.61208 0.0
O181 O 0.52461 0.06658 0.58963 0.0
In182 In 0.70992 0.81399 0.33907 0.0
O183 O 0.66973 0.83906 0.3311 0.0
O184 O 0.68192 0.83813 0.35935 0.0
C185 C 0.72726 0.79385 0.3062 0.0
C186 C 0.75414 0.84836 0.34804 0.0
C187 C 0.69096 0.7645 0.35376 0.0
O188 O 0.70878 0.81351 0.30762 0.0
O189 O 0.73735 0.78501 0.32128 0.0
O190 O 0.71133 0.77839 0.36098 0.0
O191 O 0.68038 0.7758 0.33952 0.0
C192 C 0.66423 0.84671 0.34742 0.0
O193 O 0.74997 0.82462 0.356 0.0
O194 O 0.7362 0.85443 0.33567 0.0
In195 In 0.93289 0.95859 0.091 0.0
O196 O 0.93324 0.95757 0.05949 0.0
O197 O 0.96105 0.98674 0.07316 0.0
C198 C 0.90097 0.91227 0.09918 0.0
C199 C 0.98252 0.93961 0.10534 0.0
C200 C 0.89824 0.00204 0.10118 0.0
O201 O 0.90676 0.91919 0.08276 0.0
O202 O 0.91107 0.92883 0.1113 0.0
O203 O 0.92284 0.99874 0.10808 0.0
O204 O 0.8915 0.98372 0.08917 0.0
C205 C 0.95248 0.97646 0.05807 0.0
O206 O 0.96866 0.95994 0.11268 0.0
O207 O 0.97113 0.92906 0.09112 0.0
In208 In 0.70959 0.68092 0.8422 0.0
O209 O 0.74795 0.67224 0.86109 0.0
O210 O 0.74234 0.64575 0.83752 0.0
C211 C 0.68536 0.72803 0.85702 0.0
C212 C 0.66719 0.6435 0.84952 0.0
C213 C 0.72489 0.70375 0.80963 0.0
O214 O 0.70878 0.71809 0.86301 0.0
O215 O 0.6745 0.71408 0.84389 0.0
O216 O 0.70895 0.68196 0.81075 0.0
O217 O 0.73346 0.71353 0.82487 0.0
C218 C 0.75711 0.65146 0.85158 0.0
O219 O 0.67259 0.65201 0.83337 0.0
O220 O 0.68365 0.65329 0.86178 0.0
In221 In 0.56674 0.45626 0.08975 0.0
O222 O 0.57644 0.49332 0.10935 0.0
O223 O 0.60235 0.48864 0.08542 0.0
C224 C 0.51775 0.43458 0.10358 0.0
C225 C 0.60398 0.41419 0.0983 0.0
C226 C 0.5467 0.47148 0.05642 0.0
O227 O 0.52787 0.45817 0.10913 0.0
O228 O 0.53244 0.42223 0.09139 0.0
O229 O 0.56401 0.45096 0.05858 0.0
O230 O 0.54006 0.48463 0.071 0.0
C231 C 0.59719 0.50263 0.09994 0.0
O232 O 0.59699 0.41968 0.08187 0.0
O233 O 0.59258 0.4302 0.11024 0.0
In234 In 0.78661 0.31372 0.34294 0.0
O235 O 0.74776 0.32242 0.36137 0.0
O236 O 0.75536 0.3503 0.3387 0.0
C237 C 0.80871 0.26487 0.35672 0.0
C238 C 0.83021 0.34968 0.3506 0.0
C239 C 0.76968 0.29251 0.31033 0.0
O240 O 0.78952 0.27871 0.3652 0.0
O241 O 0.81659 0.27585 0.34169 0.0
O242 O 0.78751 0.31281 0.31156 0.0
O243 O 0.75992 0.28357 0.3255 0.0
C244 C 0.73984 0.34422 0.35236 0.0
O245 O 0.82442 0.34201 0.33434 0.0
O246 O 0.81384 0.33954 0.36276 0.0
In247 In 0.93063 0.53946 0.59128 0.0
O248 O 0.92163 0.49918 0.60845 0.0
O249 O 0.88909 0.5145 0.59046 0.0
C250 C 0.9804 0.55944 0.60481 0.0
C251 C 0.89853 0.58555 0.59974 0.0
C252 C 0.94917 0.52064 0.55831 0.0
O253 O 0.96708 0.5391 0.61252 0.0
O254 O 0.96844 0.56943 0.59062 0.0
O255 O 0.93016 0.53978 0.55976 0.0
O256 O 0.95802 0.51061 0.5734 0.0
C257 C 0.89659 0.49603 0.6022 0.0
O258 O 0.90444 0.57899 0.58327 0.0
O259 O 0.90856 0.56872 0.61174 0.0
In260 In 0.70813 0.31859 0.6563 0.0
O261 O 0.74789 0.32826 0.63897 0.0
O262 O 0.73531 0.35847 0.65943 0.0
C263 C 0.68676 0.27044 0.6409 0.0
C264 C 0.66476 0.35491 0.64928 0.0
C265 C 0.72398 0.29783 0.68941 0.0
O266 O 0.70939 0.28198 0.63493 0.0
O267 O 0.67531 0.28332 0.65424 0.0
O268 O 0.70269 0.31413 0.68732 0.0
O269 O 0.73781 0.29264 0.67487 0.0
C270 C 0.7527 0.35199 0.6468 0.0
O271 O 0.67049 0.34612 0.66531 0.0
O272 O 0.68112 0.34563 0.63678 0.0
In273 In 0.93403 0.46141 0.89982 0.0
O274 O 0.92311 0.49688 0.879 0.0
O275 O 0.90627 0.50029 0.90602 0.0
C276 C 0.97789 0.44473 0.87822 0.0
C277 C 0.89496 0.41881 0.89729 0.0
C278 C 0.9584 0.4692 0.93327 0.0
O279 O 0.97494 0.47044 0.88346 0.0
O280 O 0.95837 0.42792 0.88347 0.0
O281 O 0.93192 0.47214 0.93059 0.0
O282 O 0.97245 0.46202 0.91922 0.0
C283 C 0.90771 0.51088 0.89009 0.0
O284 O 0.91282 0.42014 0.9103 0.0
O285 O 0.89656 0.43913 0.8859 0.0
In286 In 0.78807 0.67755 0.15189 0.0
O287 O 0.75099 0.66787 0.13241 0.0
O288 O 0.75494 0.64281 0.15681 0.0
C289 C 0.81042 0.72582 0.13727 0.0
C290 C 0.82876 0.63848 0.14391 0.0
C291 C 0.77351 0.69876 0.18506 0.0
O292 O 0.78659 0.71598 0.13203 0.0
O293 O 0.82272 0.71116 0.14949 0.0
O294 O 0.79406 0.68149 0.18294 0.0
O295 O 0.75996 0.70478 0.17053 0.0
C296 C 0.74122 0.64765 0.14215 0.0
O297 O 0.82412 0.64692 0.16017 0.0
O298 O 0.81272 0.64949 0.13185 0.0
In299 In 0.56432 0.53701 0.40122 0.0
O300 O 0.59066 0.57595 0.41018 0.0
O301 O 0.59514 0.56111 0.38263 0.0
C302 C 0.5421 0.52284 0.43426 0.0
C303 C 0.59419 0.48974 0.39166 0.0
C304 C 0.5179 0.55906 0.38421 0.0
O305 O 0.56421 0.53818 0.43266 0.0
O306 O 0.53135 0.51461 0.41923 0.0
O307 O 0.5261 0.53358 0.38148 0.0
O308 O 0.53305 0.57306 0.39541 0.0
C309 C 0.60226 0.57937 0.39461 0.0
O310 O 0.57549 0.5007 0.38126 0.0
O311 O 0.59759 0.5025 0.40682 0.0
In312 In 0.28642 0.31131 0.15164 0.0
O313 O 0.2452 0.32165 0.13588 0.0
O314 O 0.26301 0.35377 0.15325 0.0
C315 C 0.30215 0.2602 0.13747 0.0
C316 C 0.33248 0.34297 0.14246 0.0
C317 C 0.27079 0.29409 0.18557 0.0
O318 O 0.28407 0.27604 0.12945 0.0
O319 O 0.3119 0.27023 0.15231 0.0
O320 O 0.2939 0.30725 0.18253 0.0
O321 O 0.2552 0.29033 0.17158 0.0
C322 C 0.24337 0.34684 0.1422 0.0
O323 O 0.32479 0.33945 0.15899 0.0
O324 O 0.31685 0.33069 0.13069 0.0
In325 In 0.4307 0.53919 0.90345 0.0
O326 O 0.43051 0.53626 0.93482 0.0
O327 O 0.46247 0.5131 0.92022 0.0
C328 C 0.39567 0.58466 0.89891 0.0
C329 C 0.47899 0.55959 0.88797 0.0
C330 C 0.39848 0.49425 0.8928 0.0
O331 O 0.40837 0.57955 0.91389 0.0
O332 O 0.40037 0.56667 0.88628 0.0
O333 O 0.41875 0.50377 0.88304 0.0
O334 O 0.3947 0.50733 0.90781 0.0
C335 C 0.45214 0.5201 0.93563 0.0
O336 O 0.46676 0.53731 0.88195 0.0
O337 O 0.4665 0.57152 0.90131 0.0
In338 In 0.20937 0.68583 0.65217 0.0
O339 O 0.24694 0.67541 0.63316 0.0
O340 O 0.23936 0.64808 0.65613 0.0
C341 C 0.18969 0.73573 0.63825 0.0
C342 C 0.16533 0.65059 0.6441 0.0
C343 C 0.22661 0.70481 0.68538 0.0
O344 O 0.21065 0.72269 0.63112 0.0
O345 O 0.17894 0.72352 0.65209 0.0
O346 O 0.20577 0.68785 0.68342 0.0
O347 O 0.23902 0.71181 0.6706 0.0
C348 C 0.25448 0.65346 0.64215 0.0
O349 O 0.17129 0.65776 0.66043 0.0
O350 O 0.18172 0.66092 0.63201 0.0
In351 In 0.0654 0.45774 0.40443 0.0
O352 O 0.06023 0.45087 0.43532 0.0
O353 O 0.04021 0.48737 0.42331 0.0
C354 C 0.10085 0.41417 0.39576 0.0
C355 C 0.01575 0.43855 0.39012 0.0
C356 C 0.09809 0.50299 0.39509 0.0
O357 O 0.09555 0.42101 0.41225 0.0
O358 O 0.08868 0.42958 0.38382 0.0
O359 O 0.07659 0.49546 0.38571 0.0
O360 O 0.10285 0.48783 0.40916 0.0
C361 C 0.04464 0.4727 0.43764 0.0
O362 O 0.02772 0.46099 0.38412 0.0
O363 O 0.02897 0.42612 0.40296 0.0
In364 In 0.28639 0.68271 0.34283 0.0
O365 O 0.25368 0.66834 0.3644 0.0
O366 O 0.25443 0.64667 0.33863 0.0
C367 C 0.29564 0.73042 0.36332 0.0
C368 C 0.33521 0.65166 0.34347 0.0
C369 C 0.27337 0.7005 0.30846 0.0
O370 O 0.27971 0.73009 0.34934 0.0
O371 O 0.30601 0.70636 0.36752 0.0
O372 O 0.29732 0.68961 0.31241 0.0
O373 O 0.25599 0.70179 0.3217 0.0
C374 C 0.24311 0.64895 0.35433 0.0
O375 O 0.33409 0.67689 0.33723 0.0
O376 O 0.31158 0.64185 0.349 0.0
In377 In 0.06372 0.53504 0.08869 0.0
O378 O 0.05841 0.54418 0.05804 0.0
O379 O 0.04992 0.50184 0.06743 0.0
C380 C 0.09338 0.58226 0.09839 0.0
C381 C 0.01104 0.54793 0.10147 0.0
C382 C 0.09925 0.49313 0.09999 0.0
O383 O 0.0927 0.57314 0.082 0.0
O384 O 0.07929 0.56747 0.10977 0.0
O385 O 0.07305 0.49342 0.1043 0.0
O386 O 0.10725 0.51379 0.09002 0.0
C387 C 0.0504 0.5191 0.05406 0.0
O388 O 0.02743 0.53097 0.11002 0.0
O389 O 0.02126 0.5579 0.08676 0.0
In390 In 0.20827 0.31665 0.84128 0.0
O391 O 0.24103 0.33186 0.86257 0.0
O392 O 0.24474 0.34782 0.83534 0.0
C393 C 0.19568 0.27082 0.86253 0.0
C394 C 0.16152 0.35062 0.84285 0.0
C395 C 0.21857 0.29372 0.80773 0.0
O396 O 0.22024 0.27491 0.85582 0.0
O397 O 0.17774 0.29025 0.85898 0.0
O398 O 0.21039 0.31932 0.80973 0.0
O399 O 0.22146 0.27995 0.82253 0.0
C400 C 0.25443 0.3478 0.85153 0.0
O401 O 0.16398 0.33049 0.83132 0.0
O402 O 0.18266 0.35365 0.85349 0.0
In403 In 0.43425 0.46446 0.59161 0.0
O404 O 0.44015 0.45418 0.56099 0.0
O405 O 0.45883 0.49236 0.57147 0.0
C406 C 0.39734 0.42164 0.59883 0.0
C407 C 0.48281 0.44737 0.60863 0.0
C408 C 0.40132 0.50931 0.60163 0.0
O409 O 0.40623 0.42673 0.58269 0.0
O410 O 0.40663 0.43851 0.61106 0.0
O411 O 0.42087 0.49948 0.61183 0.0
O412 O 0.39852 0.4966 0.58639 0.0
C413 C 0.45485 0.47631 0.55774 0.0
O414 O 0.47645 0.47349 0.60682 0.0
O415 O 0.46479 0.43019 0.60202 0.0
H416 H 0.12496 0.37421 0.41869 0.0
H417 H 0.11539 0.39682 0.36128 0.0
H418 H 0.14852 0.3294 0.40971 0.0
H419 H 0.13915 0.35249 0.35239 0.0
H420 H 0.14215 0.25624 0.34361 0.0
H421 H 0.12371 0.30213 0.35399 0.0
H422 H 0.19182 0.30803 0.39404 0.0
H423 H 0.21035 0.26148 0.38366 0.0
C424 C 0.12828 0.36981 0.40418 0.0
C425 C 0.11807 0.38883 0.39067 0.0
C426 C 0.14184 0.34424 0.39906 0.0
C427 C 0.1453 0.33728 0.38035 0.0
C428 C 0.13627 0.35701 0.36691 0.0
C429 C 0.12279 0.38247 0.37201 0.0
C430 C 0.15323 0.26722 0.35466 0.0
C431 C 0.17778 0.25531 0.36277 0.0
C432 C 0.14276 0.29365 0.36052 0.0
C433 C 0.15654 0.30887 0.37466 0.0
C434 C 0.18077 0.29674 0.38311 0.0
C435 C 0.19138 0.27018 0.37716 0.0
H436 H 0.9605 0.97599 0.60707 0.0
H437 H 0.0051 0.91396 0.64068 0.0
H438 H 0.9147 0.95635 0.61738 0.0
H439 H 0.95944 0.89441 0.65097 0.0
H440 H 0.87152 0.87649 0.67459 0.0
H441 H 0.9142 0.90519 0.66837 0.0
H442 H 0.8916 0.90858 0.61071 0.0
H443 H 0.84899 0.87994 0.6169 0.0
C444 C 0.96051 0.95858 0.61695 0.0
C445 C 0.98632 0.94635 0.62299 0.0
C446 C 0.93433 0.94724 0.62275 0.0
C447 C 0.93355 0.92373 0.63486 0.0
C448 C 0.95938 0.91266 0.64173 0.0
C449 C 0.98552 0.92377 0.63579 0.0
C450 C 0.87553 0.88364 0.66063 0.0
C451 C 0.85708 0.87583 0.64619 0.0
C452 C 0.89996 0.89999 0.65708 0.0
C453 C 0.9062 0.90909 0.63907 0.0
C454 C 0.88716 0.90215 0.62476 0.0
C455 C 0.86289 0.88557 0.62828 0.0
H456 H 0.35876 0.59546 0.87067 0.0
H457 H 0.39354 0.63254 0.92041 0.0
H458 H 0.33329 0.64019 0.86431 0.0
H459 H 0.36835 0.67742 0.91387 0.0
H460 H 0.35682 0.75901 0.87539 0.0
H461 H 0.37585 0.71372 0.88706 0.0
H462 H 0.2938 0.67352 0.87832 0.0
H463 H 0.27453 0.71908 0.86689 0.0
C464 C 0.36069 0.61306 0.88033 0.0
C465 C 0.37821 0.61062 0.89598 0.0
C466 C 0.346 0.63856 0.87675 0.0
C467 C 0.34894 0.6622 0.8886 0.0
C468 C 0.36585 0.6595 0.9045 0.0
C469 C 0.38016 0.63384 0.90825 0.0
C470 C 0.34273 0.74062 0.87624 0.0
C471 C 0.31426 0.74247 0.87021 0.0
C472 C 0.35357 0.71478 0.88299 0.0
C473 C 0.33627 0.69019 0.88353 0.0
C474 C 0.30756 0.6922 0.87796 0.0
C475 C 0.29654 0.71824 0.87153 0.0
H476 H 0.53417 0.02714 0.10531 0.0
H477 H 0.48848 0.09326 0.13485 0.0
H478 H 0.57962 0.04754 0.11572 0.0
H479 H 0.53382 0.11348 0.1453 0.0
H480 H 0.62109 0.12891 0.17194 0.0
H481 H 0.57753 0.10206 0.16483 0.0
H482 H 0.60427 0.09488 0.10807 0.0
H483 H 0.64771 0.12185 0.11512 0.0
C484 C 0.53384 0.0457 0.11429 0.0
C485 C 0.50783 0.0587 0.11923 0.0
C486 C 0.55982 0.05745 0.12013 0.0
C487 C 0.56021 0.08215 0.13122 0.0
C488 C 0.53415 0.09431 0.13686 0.0
C489 C 0.50821 0.0828 0.13084 0.0
C490 C 0.61775 0.12139 0.15798 0.0
C491 C 0.63769 0.12757 0.14405 0.0
C492 C 0.59282 0.10612 0.15392 0.0
C493 C 0.58757 0.0964 0.13592 0.0
C494 C 0.60793 0.10186 0.12211 0.0
C495 C 0.63267 0.11745 0.12612 0.0
H496 H 0.13488 0.74439 0.14822 0.0
H497 H 0.20877 0.72843 0.11398 0.0
H498 H 0.11341 0.69986 0.13773 0.0
H499 H 0.18734 0.68325 0.10363 0.0
H500 H 0.12344 0.61916 0.07634 0.0
H501 H 0.1468 0.66392 0.08547 0.0
H502 H 0.1218 0.6489 0.14197 0.0
H503 H 0.09812 0.60468 0.13283 0.0
C504 C 0.14657 0.73132 0.13844 0.0
C505 C 0.17358 0.73982 0.13198 0.0
C506 C 0.13432 0.70569 0.13251 0.0
C507 C 0.14881 0.68785 0.12001 0.0
C508 C 0.1756 0.69661 0.11321 0.0
C509 C 0.18791 0.72239 0.11917 0.0
C510 C 0.12306 0.62543 0.09071 0.0
C511 C 0.1088 0.60855 0.10386 0.0
C512 C 0.13655 0.65096 0.09595 0.0
C513 C 0.13594 0.66007 0.11441 0.0
C514 C 0.1222 0.64277 0.12758 0.0
C515 C 0.10876 0.61734 0.12236 0.0
H516 H 0.50774 0.95036 0.35785 0.0
H517 H 0.51056 0.89183 0.40396 0.0
H518 H 0.55371 0.93147 0.34694 0.0
H519 H 0.55587 0.8729 0.39304 0.0
H520 H 0.64967 0.86654 0.38136 0.0
H521 H 0.60526 0.88973 0.39052 0.0
H522 H 0.57533 0.88644 0.33424 0.0
H523 H 0.62021 0.86354 0.32496 0.0
C524 C 0.51809 0.93341 0.36558 0.0
C525 C 0.50564 0.92265 0.38179 0.0
C526 C 0.54431 0.92256 0.35932 0.0
C527 C 0.55854 0.90093 0.36925 0.0
C528 C 0.54575 0.88997 0.38529 0.0
C529 C 0.51965 0.90069 0.39147 0.0
C530 C 0.63375 0.87098 0.3709 0.0
C531 C 0.6383 0.863 0.35248 0.0
C532 C 0.60824 0.88414 0.37616 0.0
C533 C 0.58664 0.88955 0.36314 0.0
C534 C 0.59162 0.88264 0.34456 0.0
C535 C 0.61725 0.86943 0.33928 0.0
H536 H 0.28934 0.26755 0.60862 0.0
H537 H 0.35264 0.26576 0.65199 0.0
H538 H 0.30793 0.31409 0.59829 0.0
H539 H 0.37106 0.31178 0.64173 0.0
H540 H 0.3775 0.4065 0.63264 0.0
H541 H 0.35351 0.36218 0.64129 0.0
H542 H 0.35364 0.33495 0.58441 0.0
H543 H 0.37761 0.37964 0.57566 0.0
C544 C 0.30721 0.27705 0.61589 0.0
C545 C 0.31948 0.26309 0.63113 0.0
C546 C 0.31787 0.30358 0.60997 0.0
C547 C 0.34073 0.31667 0.61934 0.0
C548 C 0.35309 0.30248 0.63444 0.0
C549 C 0.34265 0.276 0.64023 0.0
C550 C 0.37212 0.39126 0.62192 0.0
C551 C 0.37968 0.39641 0.60349 0.0
C552 C 0.3585 0.36582 0.62689 0.0
C553 C 0.35207 0.34496 0.61355 0.0
C554 C 0.35829 0.3507 0.59497 0.0
C555 C 0.37207 0.3762 0.58998 0.0
H556 H 0.99634 0.1135 0.90193 0.0
H557 H 0.98808 0.04466 0.86243 0.0
H558 H 0.95091 0.13327 0.8918 0.0
H559 H 0.94209 0.06457 0.85229 0.0
H560 H 0.876 0.13144 0.82824 0.0
H561 H 0.92147 0.10878 0.83663 0.0
H562 H 0.90026 0.11811 0.89425 0.0
H563 H 0.8552 0.14084 0.88593 0.0
C564 C 0.98483 0.10261 0.89103 0.0
C565 C 0.99569 0.07744 0.88303 0.0
C566 C 0.9587 0.11386 0.88531 0.0
C567 C 0.94281 0.10028 0.87141 0.0
C568 C 0.95396 0.07549 0.86301 0.0
C569 C 0.98017 0.06408 0.86884 0.0
C570 C 0.88103 0.12844 0.84268 0.0
C571 C 0.86219 0.1381 0.85644 0.0
C572 C 0.90696 0.11537 0.84747 0.0
C573 C 0.9145 0.11196 0.86609 0.0
C574 C 0.89522 0.1209 0.87978 0.0
C575 C 0.86936 0.1338 0.87502 0.0
H576 H 0.88255 0.6022 0.63409 0.0
H577 H 0.87819 0.62778 0.57694 0.0
H578 H 0.85937 0.64675 0.64311 0.0
H579 H 0.85524 0.67285 0.58606 0.0
H580 H 0.79187 0.74014 0.61121 0.0
H581 H 0.8111 0.69411 0.60043 0.0
H582 H 0.87496 0.69682 0.64342 0.0
H583 H 0.85575 0.74214 0.65422 0.0
C584 C 0.87651 0.61731 0.62343 0.0
C585 C 0.88241 0.61163 0.60482 0.0
C586 C 0.86336 0.6429 0.62861 0.0
C587 C 0.85583 0.66348 0.61532 0.0
C588 C 0.86071 0.65736 0.59661 0.0
C589 C 0.87394 0.63164 0.5914 0.0
C590 C 0.81005 0.73084 0.61827 0.0
C591 C 0.8222 0.74464 0.63361 0.0
C592 C 0.8211 0.70459 0.61208 0.0
C593 C 0.84433 0.6917 0.62122 0.0
C594 C 0.85669 0.70588 0.63632 0.0
C595 C 0.84577 0.73198 0.64244 0.0
H596 H 0.12032 0.1291 0.32872 0.0
H597 H 0.15835 0.11783 0.38247 0.0
H598 H 0.07801 0.10271 0.33887 0.0
H599 H 0.11663 0.09076 0.39244 0.0
H600 H 0.02367 0.08307 0.41106 0.0
H601 H 0.06836 0.10296 0.39992 0.0
H602 H 0.05822 0.05687 0.34866 0.0
H603 H 0.01271 0.03739 0.35976 0.0
C604 C 0.11981 0.12059 0.3426 0.0
C605 C 0.14245 0.1258 0.35488 0.0
C606 C 0.09566 0.10532 0.34839 0.0
C607 C 0.09379 0.09486 0.36654 0.0
C608 C 0.11709 0.09903 0.3785 0.0
C609 C 0.14107 0.11444 0.37277 0.0
C610 C 0.03102 0.07698 0.39745 0.0
C611 C 0.01465 0.05871 0.38627 0.0
C612 C 0.05681 0.08824 0.3911 0.0
C613 C 0.06699 0.08144 0.37341 0.0
C614 C 0.05084 0.06274 0.36229 0.0
C615 C 0.0249 0.05145 0.36867 0.0
H616 H 0.62345 0.37093 0.07608 0.0
H617 H 0.62503 0.4016 0.13224 0.0
H618 H 0.64749 0.32682 0.08579 0.0
H619 H 0.64953 0.35803 0.14183 0.0
H620 H 0.64981 0.26301 0.15581 0.0
H621 H 0.63269 0.30898 0.14476 0.0
H622 H 0.6915 0.30465 0.09892 0.0
H623 H 0.70853 0.2579 0.10996 0.0
C624 C 0.62943 0.36848 0.09042 0.0
C625 C 0.62204 0.38949 0.10346 0.0
C626 C 0.64329 0.34329 0.09596 0.0
C627 C 0.65 0.33877 0.11462 0.0
C628 C 0.64407 0.36061 0.12742 0.0
C629 C 0.63016 0.38564 0.12191 0.0
C630 C 0.65918 0.2718 0.14338 0.0
C631 C 0.68055 0.25686 0.13376 0.0
C632 C 0.64951 0.29831 0.13713 0.0
C633 C 0.66098 0.31064 0.12109 0.0
C634 C 0.68223 0.29563 0.11131 0.0
C635 C 0.69201 0.26896 0.11763 0.0
H636 H 0.48846 0.95259 0.85435 0.0
H637 H 0.47055 0.91572 0.90773 0.0
H638 H 0.44268 0.93407 0.84281 0.0
H639 H 0.42535 0.89727 0.89628 0.0
H640 H 0.33561 0.88816 0.87679 0.0
H641 H 0.37838 0.91457 0.88569 0.0
H642 H 0.42112 0.88553 0.83633 0.0
H643 H 0.37803 0.8593 0.82726 0.0
C644 C 0.47469 0.94072 0.86362 0.0
C645 C 0.48305 0.93556 0.88192 0.0
C646 C 0.44861 0.93004 0.85701 0.0
C647 C 0.43037 0.91437 0.86867 0.0
C648 C 0.43868 0.90966 0.88703 0.0
C649 C 0.46471 0.92006 0.89355 0.0
C650 C 0.35398 0.88771 0.8677 0.0
C651 C 0.3536 0.87141 0.85144 0.0
C652 C 0.3785 0.90276 0.87283 0.0
C653 C 0.40321 0.90182 0.86182 0.0
C654 C 0.40235 0.88676 0.84505 0.0
C655 C 0.37775 0.87165 0.8399 0.0
H656 H 0.85617 0.41165 0.86978 0.0
H657 H 0.89108 0.36974 0.91789 0.0
H658 H 0.83028 0.36804 0.86185 0.0
H659 H 0.86516 0.32587 0.90982 0.0
H660 H 0.79824 0.25646 0.89297 0.0
H661 H 0.81569 0.30288 0.90445 0.0
H662 H 0.85075 0.32147 0.85071 0.0
H663 H 0.83362 0.2756 0.83937 0.0
C664 C 0.85795 0.39326 0.87883 0.0
C665 C 0.87594 0.39396 0.89432 0.0
C666 C 0.84319 0.36828 0.87425 0.0
C667 C 0.84603 0.34348 0.88509 0.0
C668 C 0.86252 0.34471 0.90127 0.0
C669 C 0.87742 0.36976 0.90583 0.0
C670 C 0.80955 0.27062 0.88365 0.0
C671 C 0.81463 0.26245 0.8653 0.0
C672 C 0.81957 0.29706 0.89021 0.0
C673 C 0.83434 0.31584 0.87841 0.0
C674 C 0.83903 0.30767 0.86004 0.0
C675 C 0.8294 0.28127 0.85359 0.0
H676 H 0.37444 0.13238 0.66682 0.0
H677 H 0.34133 0.12427 0.61149 0.0
H678 H 0.41769 0.10651 0.65761 0.0
H679 H 0.38404 0.09795 0.60243 0.0
H680 H 0.47854 0.09476 0.58711 0.0
H681 H 0.43304 0.11339 0.59773 0.0
H682 H 0.43861 0.06051 0.64649 0.0
H683 H 0.48492 0.04195 0.63585 0.0
C684 C 0.3762 0.12463 0.65279 0.0
C685 C 0.35473 0.13067 0.6398 0.0
C686 C 0.40088 0.1097 0.64755 0.0
C687 C 0.40445 0.10052 0.62923 0.0
C688 C 0.3822 0.10526 0.61655 0.0
C689 C 0.35768 0.12024 0.62176 0.0
C690 C 0.47009 0.08695 0.60007 0.0
C691 C 0.48531 0.06688 0.61065 0.0
C692 C 0.44384 0.09749 0.6061 0.0
C693 C 0.43206 0.08824 0.62288 0.0
C694 C 0.44722 0.0681 0.63353 0.0
C695 C 0.47362 0.05741 0.62742 0.0
H696 H 0.65158 0.72987 0.33784 0.0
H697 H 0.70642 0.73646 0.38559 0.0
H698 H 0.63393 0.68397 0.34875 0.0
H699 H 0.68858 0.68995 0.39658 0.0
H700 H 0.61707 0.62427 0.41701 0.0
H701 H 0.64162 0.66846 0.40797 0.0
H702 H 0.65295 0.63473 0.35303 0.0
H703 H 0.62829 0.59088 0.36195 0.0
C704 C 0.65993 0.72147 0.35069 0.0
C705 C 0.68043 0.73675 0.36086 0.0
C706 C 0.64994 0.69503 0.35686 0.0
C707 C 0.6601 0.68322 0.37341 0.0
C708 C 0.68038 0.69859 0.38377 0.0
C709 C 0.69062 0.72511 0.37748 0.0
C710 C 0.62522 0.62616 0.4031 0.0
C711 C 0.62047 0.60428 0.39012 0.0
C712 C 0.63936 0.65139 0.39795 0.0
C713 C 0.64884 0.65516 0.37974 0.0
C714 C 0.64542 0.63261 0.36709 0.0
C715 C 0.6314 0.60745 0.37222 0.0
H716 H 0.12417 0.86924 0.16892 0.0
H717 H 0.15496 0.87447 0.1129 0.0
H718 H 0.07993 0.89344 0.1597 0.0
H719 H 0.11116 0.8989 0.1038 0.0
H720 H 0.01604 0.89865 0.09003 0.0
H721 H 0.06193 0.88102 0.10081 0.0
H722 H 0.05818 0.93896 0.14719 0.0
H723 H 0.01163 0.95664 0.13638 0.0
C724 C 0.12171 0.87602 0.15473 0.0
C725 C 0.14284 0.86967 0.14158 0.0
C726 C 0.09645 0.88995 0.14948 0.0
C727 C 0.09193 0.89768 0.13098 0.0
C728 C 0.1138 0.89269 0.11809 0.0
C729 C 0.13895 0.87881 0.12332 0.0
C730 C 0.02494 0.90771 0.10253 0.0
C731 C 0.01026 0.92907 0.11235 0.0
C732 C 0.05137 0.89774 0.10863 0.0
C733 C 0.06383 0.90883 0.12473 0.0
C734 C 0.04905 0.93 0.13474 0.0
C735 C 0.0225 0.94015 0.12854 0.0
H736 H 0.70477 0.76409 0.88424 0.0
H737 H 0.63546 0.7518 0.84565 0.0
H738 H 0.68312 0.80945 0.89422 0.0
H739 H 0.61389 0.79654 0.85568 0.0
H740 H 0.60226 0.89234 0.86061 0.0
H741 H 0.62582 0.84755 0.85251 0.0
H742 H 0.63955 0.82928 0.91019 0.0
H743 H 0.61613 0.87455 0.91835 0.0
C744 C 0.68486 0.77096 0.87801 0.0
C745 C 0.67192 0.75452 0.86409 0.0
C746 C 0.67243 0.79682 0.88375 0.0
C747 C 0.64698 0.80669 0.87558 0.0
C748 C 0.63379 0.78981 0.86199 0.0
C749 C 0.64609 0.76406 0.85632 0.0
C750 C 0.61039 0.87886 0.87158 0.0
C751 C 0.60719 0.88686 0.89011 0.0
C752 C 0.62376 0.85312 0.86694 0.0
C753 C 0.63428 0.83475 0.88072 0.0
C754 C 0.63177 0.84307 0.89928 0.0
C755 C 0.61825 0.86888 0.90394 0.0
H756 H 0.48121 0.45636 0.1297 0.0
H757 H 0.49278 0.38512 0.09237 0.0
H758 H 0.43524 0.43616 0.13954 0.0
H759 H 0.44742 0.36497 0.10227 0.0
H760 H 0.35246 0.35284 0.10787 0.0
H761 H 0.39658 0.37688 0.09904 0.0
H762 H 0.41543 0.39353 0.15632 0.0
H763 H 0.37084 0.36972 0.1652 0.0
C764 C 0.474 0.43638 0.12368 0.0
C765 C 0.4905 0.42238 0.11023 0.0
C766 C 0.44778 0.42479 0.12934 0.0
C767 C 0.43761 0.39913 0.12153 0.0
C768 C 0.4544 0.38504 0.10828 0.0
C769 C 0.4805 0.39651 0.10271 0.0
C770 C 0.36589 0.36179 0.11859 0.0
C771 C 0.35833 0.3592 0.13723 0.0
C772 C 0.39124 0.37544 0.11353 0.0
C773 C 0.40962 0.38681 0.127 0.0
C774 C 0.40161 0.3851 0.14564 0.0
C775 C 0.37619 0.37135 0.15072 0.0
H776 H 0.85817 0.1054 0.41266 0.0
H777 H 0.92218 0.12107 0.37101 0.0
H778 H 0.83307 0.14918 0.40345 0.0
H779 H 0.89832 0.16532 0.36248 0.0
H780 H 0.83569 0.22464 0.33636 0.0
H781 H 0.85786 0.18054 0.34677 0.0
H782 H 0.83325 0.2001 0.40284 0.0
H783 H 0.80953 0.24383 0.39205 0.0
C784 C 0.86701 0.11842 0.40169 0.0
C785 C 0.89189 0.10974 0.39239 0.0
C786 C 0.85275 0.14358 0.39647 0.0
C787 C 0.86339 0.16071 0.38203 0.0
C788 C 0.88891 0.15233 0.37326 0.0
C789 C 0.90278 0.12702 0.37823 0.0
C790 C 0.83493 0.21947 0.35091 0.0
C791 C 0.8211 0.23772 0.36343 0.0
C792 C 0.84787 0.19426 0.35694 0.0
C793 C 0.84791 0.18688 0.37573 0.0
C794 C 0.83352 0.20494 0.38826 0.0
C795 C 0.82004 0.23005 0.38212 0.0
H796 H 0.15088 0.63034 0.61025 0.0
H797 H 0.12292 0.6313 0.66697 0.0
H798 H 0.10724 0.60544 0.60143 0.0
H799 H 0.07875 0.60677 0.65806 0.0
H800 H 0.01132 0.54281 0.63521 0.0
H801 H 0.05766 0.56178 0.64538 0.0
H802 H 0.05755 0.62076 0.59946 0.0
H803 H 0.01194 0.60173 0.58927 0.0
C804 C 0.13546 0.62507 0.62086 0.0
C805 C 0.14016 0.63302 0.63926 0.0
C806 C 0.11039 0.61092 0.6158 0.0
C807 C 0.08936 0.60451 0.62901 0.0
C808 C 0.09461 0.61131 0.64758 0.0
C809 C 0.11981 0.62545 0.65267 0.0
C810 C 0.02131 0.55979 0.62733 0.0
C811 C 0.00807 0.57073 0.61143 0.0
C812 C 0.04774 0.5707 0.63317 0.0
C813 C 0.06138 0.59257 0.62312 0.0
C814 C 0.04792 0.60352 0.60731 0.0
C815 C 0.02163 0.59274 0.60154 0.0
H816 H 0.62273 0.12418 0.57748 0.0
H817 H 0.60671 0.10471 0.63476 0.0
H818 H 0.64625 0.16893 0.58655 0.0
H819 H 0.63051 0.14891 0.64378 0.0
H820 H 0.63761 0.24471 0.65159 0.0
H821 H 0.61785 0.19953 0.64103 0.0
H822 H 0.68856 0.18946 0.60325 0.0
H823 H 0.70836 0.23541 0.61375 0.0
C824 C 0.62452 0.12931 0.59199 0.0
C825 C 0.61263 0.11113 0.60541 0.0
C826 C 0.63809 0.15483 0.59718 0.0
C827 C 0.63992 0.16258 0.61586 0.0
C828 C 0.62893 0.1438 0.62925 0.0
C829 C 0.61541 0.1184 0.62409 0.0
C830 C 0.64899 0.23297 0.64099 0.0
C831 C 0.67464 0.24353 0.63356 0.0
C832 C 0.63773 0.20695 0.63503 0.0
C833 C 0.65185 0.19073 0.6215 0.0
C834 C 0.6772 0.20155 0.61369 0.0
C835 C 0.68855 0.22775 0.61971 0.0
H836 H 0.11182 0.34543 0.82332 0.0
H837 H 0.15185 0.39502 0.86647 0.0
H838 H 0.06706 0.37136 0.82827 0.0
H839 H 0.10709 0.42059 0.87161 0.0
H840 H 0.02715 0.4741 0.87055 0.0
H841 H 0.07198 0.45424 0.85873 0.0
H842 H 0.0317 0.37134 0.85305 0.0
H843 H 0.98702 0.39121 0.86455 0.0
C844 C 0.11113 0.36205 0.83373 0.0
C845 C 0.13525 0.36805 0.84461 0.0
C846 C 0.08548 0.37683 0.83661 0.0
C847 C 0.08347 0.39795 0.85039 0.0
C848 C 0.10798 0.4047 0.86074 0.0
C849 C 0.13358 0.38989 0.85789 0.0
C850 C 0.02778 0.45179 0.86643 0.0
C851 C 0.00366 0.43415 0.86859 0.0
C852 C 0.05348 0.44037 0.85978 0.0
C853 C 0.05547 0.41116 0.85508 0.0
C854 C 0.03086 0.39397 0.85636 0.0
C855 C 0.00527 0.40533 0.86306 0.0
H856 H 0.87709 0.87276 0.07583 0.0
H857 H 0.88856 0.89268 0.13351 0.0
H858 H 0.85363 0.82765 0.08427 0.0
H859 H 0.86507 0.84796 0.14187 0.0
H860 H 0.85937 0.7513 0.14876 0.0
H861 H 0.87932 0.79685 0.13883 0.0
H862 H 0.80953 0.80768 0.10046 0.0
H863 H 0.78941 0.76159 0.1104 0.0
C864 C 0.87436 0.86764 0.09028 0.0
C865 C 0.88486 0.8861 0.10402 0.0
C866 C 0.86084 0.84192 0.0951 0.0
C867 C 0.8578 0.8342 0.11372 0.0
C868 C 0.86754 0.85314 0.1274 0.0
C869 C 0.88087 0.87881 0.12261 0.0
C870 C 0.84826 0.76329 0.13816 0.0
C871 C 0.82275 0.75294 0.1304 0.0
C872 C 0.85962 0.78949 0.13256 0.0
C873 C 0.84581 0.80596 0.11902 0.0
C874 C 0.82063 0.79536 0.1109 0.0
C875 C 0.8091 0.76909 0.11662 0.0
H876 H 0.50114 0.61478 0.385 0.0
H877 H 0.47673 0.53172 0.36385 0.0
H878 H 0.45769 0.6356 0.37229 0.0
H879 H 0.43301 0.55273 0.35097 0.0
H880 H 0.34283 0.59737 0.35668 0.0
H881 H 0.38808 0.57376 0.36397 0.0
H882 H 0.43422 0.64675 0.3426 0.0
H883 H 0.38901 0.67048 0.33547 0.0
C884 C 0.48657 0.601 0.37748 0.0
C885 C 0.49226 0.5716 0.37548 0.0
C886 C 0.46177 0.61299 0.37008 0.0
C887 C 0.44196 0.59582 0.36058 0.0
C888 C 0.44783 0.56644 0.35831 0.0
C889 C 0.47286 0.55446 0.36562 0.0
C890 C 0.36265 0.60818 0.3533 0.0
C891 C 0.3624 0.63587 0.34567 0.0
C892 C 0.38855 0.59459 0.35739 0.0
C893 C 0.41469 0.60851 0.354 0.0
C894 C 0.4144 0.63567 0.3456 0.0
C895 C 0.38852 0.64919 0.34144 0.0
H896 H 0.35996 0.08499 0.12667 0.0
H897 H 0.38359 0.12436 0.07499 0.0
H898 H 0.33365 0.12798 0.13527 0.0
H899 H 0.35739 0.16779 0.08377 0.0
H900 H 0.29122 0.23595 0.10363 0.0
H901 H 0.30904 0.18971 0.09207 0.0
H902 H 0.35261 0.17564 0.14377 0.0
H903 H 0.33496 0.22119 0.15522 0.0
C904 C 0.35923 0.10271 0.11703 0.0
C905 C 0.37416 0.10148 0.10026 0.0
C906 C 0.34422 0.12737 0.12199 0.0
C907 C 0.34384 0.1514 0.11032 0.0
C908 C 0.35725 0.14956 0.09301 0.0
C909 C 0.37233 0.12477 0.08803 0.0
C910 C 0.30446 0.22279 0.1125 0.0
C911 C 0.3117 0.23214 0.13031 0.0
C912 C 0.31471 0.19646 0.10587 0.0
C913 C 0.33201 0.17898 0.11708 0.0
C914 C 0.33892 0.18836 0.13492 0.0
C915 C 0.32896 0.21459 0.14143 0.0
H916 H 0.50978 0.60425 0.90123 0.0
H917 H 0.51076 0.53896 0.85899 0.0
H918 H 0.55643 0.62092 0.89117 0.0
H919 H 0.55797 0.55582 0.84885 0.0
H920 H 0.62592 0.62338 0.82607 0.0
H921 H 0.58065 0.6005 0.83455 0.0
H922 H 0.60613 0.60153 0.89175 0.0
H923 H 0.65106 0.62448 0.88336 0.0
C924 C 0.51995 0.59348 0.88974 0.0
C925 C 0.50665 0.57024 0.88092 0.0
C926 C 0.5468 0.60291 0.88408 0.0
C927 C 0.56099 0.58942 0.86939 0.0
C928 C 0.54747 0.56658 0.86023 0.0
C929 C 0.52054 0.55694 0.86602 0.0
C930 C 0.622 0.61827 0.84041 0.0
C931 C 0.64186 0.62599 0.85409 0.0
C932 C 0.59615 0.60512 0.84524 0.0
C933 C 0.58974 0.59964 0.86383 0.0
C934 C 0.6103 0.60598 0.87734 0.0
C935 C 0.63609 0.619 0.87253 0.0
H936 H 0.20391 0.76415 0.60636 0.0
H937 H 0.1503 0.76972 0.65472 0.0
H938 H 0.18504 0.81045 0.59565 0.0
H939 H 0.13173 0.8155 0.64412 0.0
H940 H 0.12721 0.90916 0.63157 0.0
H941 H 0.1519 0.86501 0.63971 0.0
H942 H 0.13623 0.83152 0.58517 0.0
H943 H 0.11142 0.87606 0.57689 0.0
C944 C 0.18817 0.77525 0.61467 0.0
C945 C 0.17862 0.7634 0.63139 0.0
C946 C 0.17735 0.80161 0.60853 0.0
C947 C 0.15715 0.81664 0.61915 0.0
C948 C 0.14762 0.80463 0.63579 0.0
C949 C 0.15814 0.7783 0.6418 0.0
C950 C 0.12931 0.89258 0.6212 0.0
C951 C 0.1171 0.89593 0.60365 0.0
C952 C 0.14337 0.86726 0.6259 0.0
C953 C 0.14563 0.84473 0.61315 0.0
C954 C 0.13483 0.84861 0.59524 0.0
C955 C 0.12058 0.87402 0.59054 0.0
H956 H 0.9833 0.45888 0.36132 0.0
H957 H 0.98576 0.39349 0.40348 0.0
H958 H 0.93675 0.44055 0.3509 0.0
H959 H 0.93985 0.37536 0.39312 0.0
H960 H 0.84565 0.3684 0.3846 0.0
H961 H 0.88961 0.39279 0.39333 0.0
H962 H 0.91594 0.39505 0.33631 0.0
H963 H 0.87154 0.37072 0.32747 0.0
C964 C 0.97394 0.44063 0.36831 0.0
C965 C 0.98809 0.42767 0.38324 0.0
C966 C 0.94742 0.43013 0.36233 0.0
C967 C 0.93457 0.40675 0.37134 0.0
C968 C 0.94895 0.39374 0.38613 0.0
C969 C 0.97538 0.40403 0.39198 0.0
C970 C 0.86062 0.37437 0.37388 0.0
C971 C 0.85533 0.36736 0.35537 0.0
C972 C 0.88584 0.38825 0.37889 0.0
C973 C 0.90635 0.39545 0.36553 0.0
C974 C 0.90045 0.3898 0.34688 0.0
C975 C 0.87513 0.37579 0.34185 0.0
H976 H 0.33499 0.73745 0.3908 0.0
H977 H 0.27704 0.78443 0.35559 0.0
H978 H 0.35603 0.78253 0.40124 0.0
H979 H 0.29776 0.82946 0.36622 0.0
H980 H 0.37291 0.89391 0.36604 0.0
H981 H 0.34461 0.85113 0.36006 0.0
H982 H 0.34893 0.82853 0.41773 0.0
H983 H 0.37764 0.87142 0.42371 0.0
C984 C 0.32629 0.75742 0.38563 0.0
C985 C 0.3046 0.75743 0.37224 0.0
C986 C 0.33829 0.78325 0.39165 0.0
C987 C 0.32881 0.80953 0.38435 0.0
C988 C 0.30586 0.80953 0.37183 0.0
C989 C 0.29388 0.78375 0.36584 0.0
C990 C 0.36766 0.87994 0.37747 0.0
C991 C 0.37758 0.88594 0.39532 0.0
C992 C 0.35124 0.85553 0.37408 0.0
C993 C 0.34443 0.83649 0.38845 0.0
C994 C 0.35398 0.84271 0.40637 0.0
C995 C 0.37032 0.86728 0.40979 0.0
H996 H 0.97303 0.58214 0.08391 0.0
H997 H 0.9846 0.5335 0.13403 0.0
H998 H 0.92728 0.59934 0.095 0.0
H999 H 0.93796 0.5504 0.14512 0.0
H1000 H 0.87374 0.62177 0.16549 0.0
H1001 H 0.91632 0.59543 0.1557 0.0
H1002 H 0.87931 0.58444 0.10158 0.0
H1003 H 0.83735 0.6115 0.1112 0.0
C1004 C 0.9656 0.57483 0.09725 0.0
C1005 C 0.98244 0.55653 0.10813 0.0
C1006 C 0.93919 0.58451 0.10356 0.0
C1007 C 0.92881 0.5761 0.1209 0.0
C1008 C 0.94545 0.5574 0.13173 0.0
C1009 C 0.97204 0.54763 0.12537 0.0
C1010 C 0.87459 0.61334 0.1516 0.0
C1011 C 0.85248 0.61904 0.13901 0.0
C1012 C 0.89891 0.59812 0.14601 0.0
C1013 C 0.9014 0.58821 0.12777 0.0
C1014 C 0.87836 0.59237 0.1156 0.0
C1015 C 0.85426 0.60776 0.12112 0.0
H1016 H 0.14805 0.26075 0.88312 0.0
H1017 H 0.22464 0.22007 0.86248 0.0
H1018 H 0.13123 0.21455 0.89474 0.0
H1019 H 0.20755 0.17376 0.8739 0.0
H1020 H 0.13825 0.09921 0.86916 0.0
H1021 H 0.16383 0.14387 0.86292 0.0
H1022 H 0.14418 0.1739 0.91774 0.0
H1023 H 0.11889 0.12904 0.92412 0.0
C1024 C 0.16148 0.24201 0.88136 0.0
C1025 C 0.18756 0.24393 0.87185 0.0
C1026 C 0.15193 0.21563 0.88807 0.0
C1027 C 0.16807 0.19063 0.88513 0.0
C1028 C 0.19467 0.19273 0.87625 0.0
C1029 C 0.20447 0.21921 0.86981 0.0
C1030 C 0.13982 0.11515 0.87997 0.0
C1031 C 0.12649 0.11076 0.89708 0.0
C1032 C 0.15456 0.14061 0.87644 0.0
C1033 C 0.15587 0.1623 0.88985 0.0
C1034 C 0.14335 0.15753 0.90717 0.0
C1035 C 0.129 0.13186 0.91081 0.0
H1036 H 0.53334 0.47636 0.61193 0.0
H1037 H 0.4926 0.39548 0.62418 0.0
H1038 H 0.57898 0.45732 0.62348 0.0
H1039 H 0.53781 0.37687 0.63611 0.0
H1040 H 0.61849 0.3642 0.67124 0.0
H1041 H 0.5746 0.39 0.6633 0.0
H1042 H 0.61062 0.41253 0.61051 0.0
H1043 H 0.65435 0.38618 0.61823 0.0
C1044 C 0.53407 0.45475 0.61738 0.0
C1045 C 0.50958 0.43731 0.61714 0.0
C1046 C 0.5601 0.44388 0.62389 0.0
C1047 C 0.56173 0.41572 0.63068 0.0
C1048 C 0.53698 0.39873 0.63107 0.0
C1049 C 0.51121 0.40932 0.62419 0.0
C1050 C 0.61718 0.37498 0.65804 0.0
C1051 C 0.63969 0.37306 0.64528 0.0
C1052 C 0.5921 0.38966 0.65352 0.0
C1053 C 0.58938 0.40318 0.63634 0.0
C1054 C 0.61238 0.40243 0.62391 0.0
C1055 C 0.63726 0.38726 0.62828 0.0
H1056 H 0.30491 0.29114 0.21594 0.0
H1057 H 0.22047 0.26955 0.19619 0.0
H1058 H 0.2944 0.26799 0.24523 0.0
H1059 H 0.20946 0.2473 0.22576 0.0
H1060 H 0.21005 0.18278 0.27293 0.0
H1061 H 0.22097 0.20591 0.24359 0.0
H1062 H 0.26702 0.27253 0.27253 0.0
H1063 H 0.25703 0.24879 0.30167 0.0
C1064 C 0.28394 0.2818 0.21798 0.0
C1065 C 0.26352 0.28213 0.2038 0.0
C1066 C 0.27785 0.2686 0.23479 0.0
C1067 C 0.25109 0.25566 0.23787 0.0
C1068 C 0.23046 0.25655 0.22376 0.0
C1069 C 0.23666 0.26954 0.20688 0.0
C1070 C 0.22265 0.20226 0.27296 0.0
C1071 C 0.23279 0.21392 0.28955 0.0
C1072 C 0.22871 0.21568 0.25618 0.0
C1073 C 0.24482 0.24117 0.25567 0.0
C1074 C 0.25496 0.25271 0.27234 0.0
C1075 C 0.24913 0.23917 0.28907 0.0
H1076 H 0.01482 0.93195 0.53852 0.0
H1077 H 0.03656 0.02184 0.54178 0.0
H1078 H 0.98941 0.94075 0.50959 0.0
H1079 H 0.01173 0.03051 0.51285 0.0
H1080 H 0.94116 0.04331 0.47157 0.0
H1081 H 0.96284 0.03135 0.50116 0.0
H1082 H -0.00126 0.95434 0.47744 0.0
H1083 H 0.97658 0.96604 0.44794 0.0
C1084 C 0.01439 0.9535 0.53297 0.0
C1085 C 0.02763 0.97621 0.5424 0.0
C1086 C -0.00013 0.95854 0.51642 0.0
C1087 C 0.99832 0.98638 0.50904 0.0
C1088 C 0.01202 0.00893 0.51836 0.0
C1089 C 0.02648 0.00391 0.53485 0.0
C1090 C 0.95336 0.02364 0.47275 0.0
C1091 C 0.95732 0.0057 0.45743 0.0
C1092 C 0.96596 0.0169 0.48965 0.0
C1093 C 0.98282 0.99209 0.49157 0.0
C1094 C 0.98577 0.97352 0.47643 0.0
C1095 C 0.97315 0.98028 0.45952 0.0
H1096 H 0.19947 0.6977 0.71827 0.0
H1097 H 0.27269 0.73857 0.69326 0.0
H1098 H 0.21196 0.7189 0.74786 0.0
H1099 H 0.28581 0.7591 0.72301 0.0
H1100 H 0.2815 0.81651 0.77442 0.0
H1101 H 0.27033 0.79492 0.74461 0.0
H1102 H 0.24637 0.71618 0.77201 0.0
H1103 H 0.25658 0.7381 0.80171 0.0
C1104 C 0.21843 0.71097 0.71916 0.0
C1105 C 0.23509 0.7165 0.70348 0.0
C1106 C 0.2257 0.72303 0.73614 0.0
C1107 C 0.24993 0.74072 0.73784 0.0
C1108 C 0.26678 0.74594 0.72214 0.0
C1109 C 0.25939 0.73401 0.70513 0.0
C1110 C 0.27386 0.7946 0.77402 0.0
C1111 C 0.26974 0.77905 0.79036 0.0
C1112 C 0.26763 0.78214 0.75695 0.0
C1113 C 0.25735 0.75381 0.7559 0.0
C1114 C 0.25372 0.73819 0.7723 0.0
C1115 C 0.25973 0.75071 0.78933 0.0
H1116 H 0.46414 0.97489 0.04194 0.0
H1117 H 0.47117 0.06607 0.03245 0.0
H1118 H 0.48799 0.96556 0.01277 0.0
H1119 H 0.49567 0.05671 0.00327 0.0
H1120 H 0.5091 0.02497 0.94317 0.0
H1121 H 0.4868 0.03716 0.97254 0.0
H1122 H 0.5352 0.97 -0.00077 0.0
H1123 H 0.55699 0.95741 0.96978 0.0
C1124 C 0.47079 0.99296 0.0336 0.0
C1125 C 0.4658 0.02122 0.03946 0.0
C1126 C 0.4847 0.98761 0.01695 0.0
C1127 C 0.49401 0.01039 0.00579 0.0
C1128 C 0.48861 0.0387 0.01152 0.0
C1129 C 0.47464 0.04407 0.02822 0.0
C1130 C 0.51516 0.01299 0.95536 0.0
C1131 C 0.53464 0.99011 0.95418 0.0
C1132 C 0.50247 0.02006 0.97219 0.0
C1133 C 0.50902 0.00438 0.98818 0.0
C1134 C 0.52929 0.98214 0.98708 0.0
C1135 C 0.54193 0.97505 0.97025 0.0
H1136 H 0.22246 0.72217 0.2968 0.0
H1137 H 0.30908 0.706 0.27887 0.0
H1138 H 0.21168 0.7442 0.26718 0.0
H1139 H 0.29854 0.72876 0.24933 0.0
H1140 H 0.25987 0.74534 0.19212 0.0
H1141 H 0.27123 0.72225 0.22135 0.0
H1142 H 0.22292 0.78726 0.25026 0.0
H1143 H 0.21095 0.80987 0.22095 0.0
C1144 C 0.2392 0.72332 0.2865 0.0
C1145 C 0.26662 0.71238 0.29013 0.0
C1146 C 0.23309 0.73616 0.26958 0.0
C1147 C 0.25431 0.73847 0.25594 0.0
C1148 C 0.28164 0.72709 0.25948 0.0
C1149 C 0.28772 0.71413 0.27641 0.0
C1150 C 0.25176 0.75474 0.20473 0.0
C1151 C 0.23445 0.77936 0.20427 0.0
C1152 C 0.25839 0.74158 0.22149 0.0
C1153 C 0.24789 0.75283 0.23814 0.0
C1154 C 0.23094 0.77775 0.23765 0.0
C1155 C 0.22424 0.79085 0.22089 0.0
H1156 H 0.49983 0.00736 0.44115 0.0
H1157 H 0.43445 0.96204 0.47144 0.0
H1158 H 0.52447 0.01832 0.46986 0.0
H1159 H 0.45847 0.97389 0.50029 0.0
H1160 H 0.52341 0.97272 0.54654 0.0
H1161 H 0.50039 0.96161 0.51727 0.0
H1162 H 0.52147 0.0463 0.49719 0.0
H1163 H 0.5454 0.05691 0.52623 0.0
C1164 C 0.49052 9e-05 0.45399 0.0
C1165 C 0.46526 0.98381 0.45408 0.0
C1166 C 0.50459 0.00645 0.47046 0.0
C1167 C 0.49355 0.99688 0.4874 0.0
C1168 C 0.46789 0.98111 0.48747 0.0
C1169 C 0.45396 0.97454 0.47097 0.0
C1170 C 0.52335 0.98882 0.53578 0.0
C1171 C 0.5362 0.01566 0.53863 0.0
C1172 C 0.50992 0.98258 0.51907 0.0
C1173 C 0.50881 0.00316 0.50491 0.0
C1174 C 0.52218 0.02983 0.50769 0.0
C1175 C 0.53585 0.03596 0.52435 0.0
H1176 H 0.21887 0.31994 0.77404 0.0
H1177 H 0.2323 0.23816 0.80063 0.0
H1178 H 0.23093 0.29847 0.74433 0.0
H1179 H 0.24356 0.21654 0.77097 0.0
H1180 H 0.29429 0.19598 0.71884 0.0
H1181 H 0.28113 0.21726 0.74832 0.0
H1182 H 0.21341 0.26479 0.72161 0.0
H1183 H 0.22712 0.24404 0.69205 0.0
C1184 C 0.22418 0.29735 0.77349 0.0
C1185 C 0.22477 0.28076 0.78963 0.0
C1186 C 0.23093 0.285 0.75648 0.0
C1187 C 0.2383 0.25579 0.75529 0.0
C1188 C 0.23846 0.23918 0.77144 0.0
C1189 C 0.23184 0.25154 0.78842 0.0
C1190 C 0.27655 0.2109 0.71929 0.0
C1191 C 0.26175 0.21837 0.70317 0.0
C1192 C 0.2689 0.223 0.73619 0.0
C1193 C 0.24619 0.24273 0.73733 0.0
C1194 C 0.23124 0.24998 0.72118 0.0
C1195 C 0.23897 0.23795 0.70427 0.0
H1196 H 0.01792 0.97748 0.9459 0.0
H1197 H 0.04768 0.05723 0.96924 0.0
H1198 H 0.99452 0.96563 0.97497 0.0
H1199 H 0.02319 0.04627 -0.00207 0.0
H1200 H 0.00193 0.00575 0.05283 0.0
H1201 H 0.02543 0.01679 0.02385 0.0
H1202 H 0.9555 0.97736 0.99415 0.0
H1203 H 0.93274 0.96503 0.02338 0.0
C1204 C 0.01933 0.99251 0.95725 0.0
C1205 C 0.03474 0.01817 0.95539 0.0
C1206 C 0.0057 0.98588 0.97386 0.0
C1207 C 0.00687 0.00499 0.98886 0.0
C1208 C 0.02224 0.03074 0.98685 0.0
C1209 C 0.0362 0.03713 0.97037 0.0
C1210 C 0.99152 -0.00043 0.0401 0.0
C1211 C 0.9655 0.98459 0.04033 0.0
C1212 C 0.00493 0.00602 0.02344 0.0
C1213 C 0.99239 0.99807 0.00658 0.0
C1214 C 0.96606 0.98341 0.00685 0.0
C1215 C 0.95285 0.97655 0.02357 0.0
H1216 H 0.80347 0.80027 0.72073 0.0
H1217 H 0.724 0.76979 0.69755 0.0
H1218 H 0.79231 0.77651 0.74969 0.0
H1219 H 0.71221 0.74686 0.7268 0.0
H1220 H 0.71455 0.68378 0.77488 0.0
H1221 H 0.72593 0.70729 0.74574 0.0
H1222 H 0.76158 0.77914 0.77559 0.0
H1223 H 0.7512 0.75512 0.80458 0.0
C1224 C 0.78342 0.78879 0.72192 0.0
C1225 C 0.76459 0.78688 0.70691 0.0
C1226 C 0.77695 0.77525 0.73856 0.0
C1227 C 0.75135 0.75973 0.74061 0.0
C1228 C 0.73232 0.75821 0.72561 0.0
C1229 C 0.73894 0.77155 0.70891 0.0
C1230 C 0.72494 0.70453 0.77516 0.0
C1231 C 0.73211 0.71758 0.79196 0.0
C1232 C 0.73126 0.71812 0.75848 0.0
C1233 C 0.74464 0.74516 0.7583 0.0
C1234 C 0.75171 0.75814 0.77518 0.0
C1235 C 0.74565 0.74444 0.79181 0.0
H1236 H 0.77413 0.2241 0.1991 0.0
H1237 H 0.69189 0.19752 0.22012 0.0
H1238 H 0.78493 0.24693 0.22853 0.0
H1239 H 0.70208 0.22126 0.24925 0.0
H1240 H 0.74031 0.24284 0.30513 0.0
H1241 H 0.73048 0.21853 0.27616 0.0
H1242 H 0.77174 0.28751 0.24651 0.0
H1243 H 0.78258 0.3112 0.27566 0.0
C1244 C 0.75838 0.22314 0.21004 0.0
C1245 C 0.73221 0.209 0.20736 0.0
C1246 C 0.76443 0.23645 0.22684 0.0
C1247 C 0.74431 0.23613 0.24125 0.0
C1248 C 0.71826 0.22162 0.23858 0.0
C1249 C 0.71235 0.20808 0.22185 0.0
C1250 C 0.74716 0.25286 0.29241 0.0
C1251 C 0.76219 0.27891 0.29263 0.0
C1252 C 0.74143 0.23898 0.27578 0.0
C1253 C 0.75034 0.25101 0.25896 0.0
C1254 C 0.76502 0.27735 0.25921 0.0
C1255 C 0.77101 0.29109 0.27588 0.0
H1256 H 0.78466 0.18389 0.77598 0.0
H1257 H 0.73872 0.25059 0.80476 0.0
H1258 H 0.77286 0.20647 0.74659 0.0
H1259 H 0.72813 0.27394 0.77564 0.0
H1260 H 0.69047 0.29515 0.71996 0.0
H1261 H 0.70064 0.2707 0.74883 0.0
H1262 H 0.78405 0.24662 0.72816 0.0
H1263 H 0.77312 0.26995 0.69891 0.0
C1264 C 0.77208 0.2034 0.77599 0.0
C1265 C 0.76249 0.21543 0.79261 0.0
C1266 C 0.76552 0.21651 0.75919 0.0
C1267 C 0.7496 0.24214 0.75869 0.0
C1268 C 0.73996 0.25399 0.7754 0.0
C1269 C 0.74615 0.24067 0.79214 0.0
C1270 C 0.71101 0.28471 0.72164 0.0
C1271 C 0.73104 0.28449 0.70725 0.0
C1272 C 0.71693 0.27077 0.73822 0.0
C1273 C 0.74321 0.25666 0.7409 0.0
C1274 C 0.76339 0.25678 0.7265 0.0
C1275 C 0.75727 0.27039 0.7098 0.0
H1276 H 0.71556 0.81379 0.27162 0.0
H1277 H 0.75665 0.74432 0.30073 0.0
H1278 H 0.72745 0.7911 0.24231 0.0
H1279 H 0.76737 0.72092 0.27161 0.0
H1280 H 0.8062 0.69904 0.21613 0.0
H1281 H 0.79615 0.72322 0.24515 0.0
H1282 H 0.71473 0.75177 0.22355 0.0
H1283 H 0.72554 0.72867 0.19425 0.0
C1284 C 0.72707 0.79363 0.27172 0.0
C1285 C 0.73527 0.78086 0.28841 0.0
C1286 C 0.73369 0.78047 0.25495 0.0
C1287 C 0.74829 0.75406 0.25454 0.0
C1288 C 0.75656 0.74145 0.27133 0.0
C1289 C 0.75029 0.7548 0.28805 0.0
C1290 C 0.78613 0.71042 0.21764 0.0
C1291 C 0.76664 0.71199 0.20297 0.0
C1292 C 0.78028 0.72421 0.2343 0.0
C1293 C 0.75461 0.73953 0.23675 0.0
C1294 C 0.73496 0.74069 0.22208 0.0
C1295 C 0.741 0.72722 0.20533 0.0
H1296 H 0.54943 0.44056 0.02458 0.0
H1297 H 0.51496 0.51853 0.04777 0.0
H1298 H 0.52577 0.45102 0.9954 0.0
H1299 H 0.49221 0.52966 0.01845 0.0
H1300 H 0.43078 0.52707 0.97031 0.0
H1301 H 0.45373 0.51456 -0.00062 0.0
H1302 H 0.52703 0.48222 0.96955 0.0
H1303 H 0.50352 0.49371 0.94054 0.0
C1304 C 0.53709 0.46012 0.02334 0.0
C1305 C 0.53398 0.47871 0.03842 0.0
C1306 C 0.52359 0.46619 0.00661 0.0
C1307 C 0.50695 0.49114 0.00457 0.0
C1308 C 0.50435 0.50997 0.01962 0.0
C1309 C 0.5176 0.50374 0.03639 0.0
C1310 C 0.45169 0.51709 0.97 0.0
C1311 C 0.46537 0.51135 0.95319 0.0
C1312 C 0.46498 0.51013 0.98666 0.0
C1313 C 0.49236 0.49756 0.98684 0.0
C1314 C 0.50581 0.49152 0.96995 0.0
C1315 C 0.4924 0.49822 0.95331 0.0
H1316 H 0.01736 0.52213 0.44727 0.0
H1317 H 0.04119 0.43873 0.46808 0.0
H1318 H 0.99375 0.53302 0.47638 0.0
H1319 H 0.01653 0.44898 0.49689 0.0
H1320 H 0.99662 0.48811 0.55286 0.0
H1321 H 0.01988 0.47678 0.52384 0.0
H1322 H 0.95304 0.5217 0.49441 0.0
H1323 H 0.93046 0.53411 0.52368 0.0
C1324 C 0.01745 0.5061 0.45808 0.0
C1325 C 0.03122 0.47965 0.45548 0.0
C1326 C 0.00367 0.51221 0.4747 0.0
C1327 C 0.00308 0.49185 0.489 0.0
C1328 C 0.01692 0.46537 0.48632 0.0
C1329 C 0.03099 0.45942 0.46978 0.0
C1330 C 0.9868 0.49541 0.54018 0.0
C1331 C 0.96174 0.51202 0.54051 0.0
C1332 C 7e-05 0.4888 0.5235 0.0
C1333 C 0.98841 0.49833 0.50672 0.0
C1334 C 0.96293 0.51444 0.50707 0.0
C1335 C 0.94982 0.52135 0.52381 0.0
H1336 H 0.03184 0.55512 0.02713 0.0
H1337 H 0.04434 0.46543 0.03967 0.0
H1338 H 0.0096 0.54205 -0.00222 0.0
H1339 H 0.0227 0.45246 0.01003 0.0
H1340 H 0.01115 0.45186 0.94465 0.0
H1341 H 0.03492 0.46332 0.97384 0.0
H1342 H 0.96095 0.5118 0.991 0.0
H1343 H 0.93682 0.49982 0.96204 0.0
C1344 C 0.03024 0.53266 0.02347 0.0
C1345 C 0.03977 0.51126 0.03562 0.0
C1346 C 0.01736 0.52522 0.00678 0.0
C1347 C 0.01438 0.4963 0.00181 0.0
C1348 C 0.02484 0.47491 0.01362 0.0
C1349 C 0.03716 0.48232 0.03052 0.0
C1350 C -9e-05 0.46478 0.95473 0.0
C1351 C 0.97217 0.47496 0.95115 0.0
C1352 C 0.01348 0.47126 0.97138 0.0
C1353 C -0.00026 0.48852 0.9845 0.0
C1354 C 0.97198 0.4986 0.98097 0.0
C1355 C 0.95817 0.49163 0.9645 0.0
H1356 H 0.56386 0.53396 0.46839 0.0
H1357 H 0.49198 0.49479 0.44075 0.0
H1358 H 0.54288 0.52187 0.49815 0.0
H1359 H 0.47051 0.48346 0.47048 0.0
H1360 H 0.45438 0.44263 0.52691 0.0
H1361 H 0.47604 0.45313 0.49704 0.0
H1362 H 0.50371 0.53568 0.51746 0.0
H1363 H 0.48287 0.52478 0.54737 0.0
C1364 C 0.54351 0.52287 0.4687 0.0
C1365 C 0.52954 0.51533 0.45228 0.0
C1366 C 0.53138 0.51608 0.48574 0.0
C1367 C 0.50493 0.50178 0.48672 0.0
C1368 C 0.49107 0.49413 0.47024 0.0
C1369 C 0.50329 0.50077 0.4532 0.0
C1370 C 0.46508 0.46301 0.52496 0.0
C1371 C 0.467 0.48286 0.53946 0.0
C1372 C 0.47737 0.4691 0.50784 0.0
C1373 C 0.49171 0.49522 0.50486 0.0
C1374 C 0.4933 0.51515 0.51936 0.0
C1375 C 0.48117 0.50899 0.53648 0.0
H1376 H 0.30207 0.15811 0.3708 0.0
H1377 H 0.26087 0.09046 0.33996 0.0
H1378 H 0.33878 0.12392 0.38115 0.0
H1379 H 0.29698 0.05651 0.35064 0.0
H1380 H 0.34021 0.00376 0.39805 0.0
H1381 H 0.30758 0.04058 0.38665 0.0
H1382 H 0.37873 0.0869 0.3633 0.0
H1383 H 0.41165 0.04948 0.37435 0.0
C1384 C 0.30098 0.13605 0.36616 0.0
C1385 C 0.27861 0.12689 0.35463 0.0
C1386 C 0.32196 0.11662 0.37201 0.0
C1387 C 0.32048 0.08772 0.3667 0.0
C1388 C 0.29843 0.07872 0.35494 0.0
C1389 C 0.27786 0.09816 0.34883 0.0
C1390 C 0.34896 0.02182 0.39055 0.0
C1391 C 0.37843 0.02375 0.38702 0.0
C1392 C 0.33028 0.04279 0.38401 0.0
C1393 C 0.34076 0.06639 0.37412 0.0
C1394 C 0.37028 0.06885 0.37096 0.0
C1395 C 0.38899 0.04747 0.37719 0.0
H1396 H 0.13817 0.0332 0.58416 0.0
H1397 H 0.09215 0.04295 0.6354 0.0
H1398 H 0.17122 0.07092 0.59347 0.0
H1399 H 0.12523 0.08093 0.64469 0.0
H1400 H 0.21509 0.11401 0.66293 0.0
H1401 H 0.17679 0.08182 0.65338 0.0
H1402 H 0.17398 0.12326 0.60017 0.0
H1403 H 0.21254 0.15546 0.60972 0.0
C1404 C 0.13495 0.04362 0.59734 0.0
C1405 C 0.1127 0.03503 0.60911 0.0
C1406 C 0.15377 0.06535 0.60261 0.0
C1407 C 0.15083 0.07883 0.61982 0.0
C1408 C 0.12815 0.07071 0.63142 0.0
C1409 C 0.10917 0.04909 0.62607 0.0
C1410 C 0.20614 0.11641 0.64925 0.0
C1411 C 0.2169 0.13711 0.63702 0.0
C1412 C 0.18407 0.09811 0.64383 0.0
C1413 C 0.17243 0.10001 0.62602 0.0
C1414 C 0.18274 0.12116 0.61393 0.0
C1415 C 0.2047 0.13964 0.61941 0.0
H1416 H 0.21132 0.88566 0.8311 0.0
H1417 H 0.21275 0.84727 0.88526 0.0
H1418 H 0.17552 0.92004 0.84151 0.0
H1419 H 0.17648 0.88133 0.89561 0.0
H1420 H 0.14544 0.97161 0.91257 0.0
H1421 H 0.17589 0.93251 0.90209 0.0
H1422 H 0.12634 0.92618 0.85198 0.0
H1423 H 0.09612 0.96579 0.86237 0.0
C1424 C 0.20364 0.88429 0.84515 0.0
C1425 C 0.21498 0.86393 0.85741 0.0
C1426 C 0.18301 0.9039 0.8511 0.0
C1427 C 0.17328 0.90356 0.86943 0.0
C1428 C 0.18386 0.88244 0.88148 0.0
C1429 C 0.2045 0.86283 0.87553 0.0
C1430 C 0.14093 0.96177 0.89936 0.0
C1431 C 0.1185 0.97185 0.88824 0.0
C1432 C 0.15826 0.9392 0.89341 0.0
C1433 C 0.15354 0.9262 0.8762 0.0
C1434 C 0.13072 0.93595 0.86522 0.0
C1435 C 0.11335 0.95854 0.87119 0.0
H1436 H 0.28526 0.84283 0.11076 0.0
H1437 H 0.28294 0.88623 0.16333 0.0
H1438 H 0.32346 0.87495 0.10057 0.0
H1439 H 0.32077 0.91842 0.15311 0.0
H1440 H 0.404 0.95867 0.13427 0.0
H1441 H 0.37174 0.9205 0.14435 0.0
H1442 H 0.32604 0.92641 0.09274 0.0
H1443 H 0.35836 0.96423 0.08263 0.0
C1444 C 0.29307 0.85906 0.12018 0.0
C1445 C 0.28103 0.86214 0.13779 0.0
C1446 C 0.31483 0.87751 0.11432 0.0
C1447 C 0.32506 0.89926 0.12602 0.0
C1448 C 0.3136 0.90168 0.14385 0.0
C1449 C 0.29178 0.88336 0.14966 0.0
C1450 C 0.38723 0.95158 0.12503 0.0
C1451 C 0.38358 0.96452 0.10772 0.0
C1452 C 0.3687 0.92984 0.13083 0.0
C1453 C 0.3463 0.92051 0.11936 0.0
C1454 C 0.34327 0.93288 0.10181 0.0
C1455 C 0.36167 0.95469 0.09607 0.0
H1456 H 0.69808 0.84088 0.6243 0.0
H1457 H 0.73906 0.9099 0.65398 0.0
H1458 H 0.66108 0.8744 0.61356 0.0
H1459 H 0.7026 0.94317 0.64299 0.0
H1460 H 0.65703 0.99626 0.59779 0.0
H1461 H 0.69078 0.9603 0.60889 0.0
H1462 H 0.62078 0.9092 0.62944 0.0
H1463 H 0.58671 0.94564 0.6186 0.0
C1464 C 0.6991 0.86312 0.62856 0.0
C1465 C 0.72145 0.87283 0.63992 0.0
C1466 C 0.67794 0.88219 0.62249 0.0
C1467 C 0.6792 0.91129 0.62741 0.0
C1468 C 0.70132 0.92085 0.63893 0.0
C1469 C 0.7221 0.90178 0.64524 0.0
C1470 C 0.64877 0.97733 0.60461 0.0
C1471 C 0.61926 0.97377 0.60741 0.0
C1472 C 0.66809 0.95684 0.611 0.0
C1473 C 0.6583 0.93213 0.62004 0.0
C1474 C 0.62877 0.92809 0.62244 0.0
C1475 C 0.60937 0.94893 0.61633 0.0
H1476 H 0.91186 0.93967 0.37751 0.0
H1477 H 0.84128 0.99705 0.38837 0.0
H1478 H 0.87808 0.90327 0.36634 0.0
H1479 H 0.80784 0.96103 0.37706 0.0
H1480 H 0.76147 0.9031 0.3362 0.0
H1481 H 0.79801 0.93729 0.34574 0.0
H1482 H 0.83608 0.87307 0.38086 0.0
H1483 H 0.7992 0.83865 0.37142 0.0
C1484 C 0.8892 0.94453 0.37741 0.0
C1485 C 0.87915 0.97115 0.38378 0.0
C1486 C 0.86993 0.9237 0.37113 0.0
C1487 C 0.84042 0.92944 0.3708 0.0
C1488 C 0.8305 0.95617 0.37701 0.0
C1489 C 0.84964 0.97672 0.38354 0.0
C1490 C 0.77771 0.89617 0.34587 0.0
C1491 C 0.77739 0.86826 0.35316 0.0
C1492 C 0.79855 0.91578 0.35136 0.0
C1493 C 0.81973 0.90782 0.36408 0.0
C1494 C 0.82004 0.87965 0.37095 0.0
C1495 C 0.7989 0.86006 0.36563 0.0
H1496 H 0.754 0.08685 0.14974 0.0
H1497 H 0.80199 0.15796 0.12739 0.0
H1498 H 0.79057 0.05364 0.13879 0.0
H1499 H 0.83902 0.12448 0.11669 0.0
H1500 H 0.90972 0.04988 0.12185 0.0
H1501 H 0.87531 0.08608 0.13255 0.0
H1502 H 0.80724 0.04075 0.10492 0.0
H1503 H 0.84138 0.00504 0.09399 0.0
C1504 C 0.77249 0.0954 0.14262 0.0
C1505 C 0.77513 0.12496 0.13934 0.0
C1506 C 0.79332 0.07639 0.13631 0.0
C1507 C 0.81747 0.08657 0.12687 0.0
C1508 C 0.82059 0.11619 0.124 0.0
C1509 C 0.79941 0.13525 0.13003 0.0
C1510 C 0.88743 0.04783 0.11799 0.0
C1511 C 0.87818 0.02464 0.10715 0.0
C1512 C 0.86785 0.06854 0.12403 0.0
C1513 C 0.83871 0.066 0.11961 0.0
C1514 C 0.82959 0.04301 0.10861 0.0
C1515 C 0.84915 0.02267 0.10232 0.0
H1516 H 0.58698 0.05409 0.87451 0.0
H1517 H 0.65578 0.00293 0.89689 0.0
H1518 H 0.62175 0.09061 0.8649 0.0
H1519 H 0.69026 0.03906 0.88713 0.0
H1520 H 0.74318 0.09151 0.84587 0.0
H1521 H 0.70652 0.0573 0.8552 0.0
H1522 H 0.65879 0.12546 0.88117 0.0
H1523 H 0.69582 0.15993 0.87198 0.0
C1524 C 0.60947 0.05067 0.87735 0.0
C1525 C 0.61872 0.02568 0.88639 0.0
C1526 C 0.62928 0.07157 0.87195 0.0
C1527 C 0.65862 0.06751 0.87523 0.0
C1528 C 0.66777 0.04256 0.88431 0.0
C1529 C 0.64802 0.02196 0.88994 0.0
C1530 C 0.72484 0.09926 0.85352 0.0
C1531 C 0.72239 0.12835 0.85828 0.0
C1532 C 0.70394 0.07966 0.8589 0.0
C1533 C 0.67995 0.08878 0.86894 0.0
C1534 C 0.67706 0.11797 0.87335 0.0
C1535 C 0.69826 0.1376 0.86819 0.0
H1536 H 0.79199 0.65821 0.8816 0.0
H1537 H 0.77971 0.60615 0.83302 0.0
H1538 H 0.83249 0.6281 0.89061 0.0
H1539 H 0.81957 0.57581 0.84216 0.0
H1540 H 0.90385 0.53561 0.85599 0.0
H1541 H 0.87084 0.57336 0.84631 0.0
H1542 H 0.83885 0.57971 0.90203 0.0
H1543 H 0.87221 0.5426 0.91172 0.0
C1544 C 0.79803 0.64044 0.87282 0.0
C1545 C 0.78259 0.63443 0.85667 0.0
C1546 C 0.82114 0.62313 0.878 0.0
C1547 C 0.82927 0.5995 0.86712 0.0
C1548 C 0.81421 0.59405 0.85072 0.0
C1549 C 0.79117 0.61132 0.84556 0.0
C1550 C 0.89008 0.54543 0.8662 0.0
C1551 C 0.89045 0.53601 0.88457 0.0
C1552 C 0.87105 0.56692 0.86065 0.0
C1553 C 0.85199 0.57938 0.87336 0.0
C1554 C 0.85338 0.57082 0.89191 0.0
C1555 C 0.8724 0.54939 0.89745 0.0
H1556 H 0.71507 0.60539 0.16181 0.0
H1557 H 0.712 0.64971 0.10957 0.0
H1558 H 0.67729 0.57317 0.15148 0.0
H1559 H 0.67392 0.61756 0.09927 0.0
H1560 H 0.64026 0.52806 0.08072 0.0
H1561 H 0.67213 0.5661 0.09111 0.0
H1562 H 0.62618 0.57083 0.14267 0.0
H1563 H 0.59436 0.53247 0.13231 0.0
C1564 C 0.70606 0.60846 0.1482 0.0
C1565 C 0.71661 0.62992 0.13644 0.0
C1566 C 0.68429 0.59012 0.14233 0.0
C1567 C 0.67271 0.59277 0.12454 0.0
C1568 C 0.68267 0.61482 0.11298 0.0
C1569 C 0.70436 0.63328 0.1189 0.0
C1570 C 0.63679 0.53739 0.09421 0.0
C1571 C 0.61495 0.52718 0.10576 0.0
C1572 C 0.65493 0.55932 0.10011 0.0
C1573 C 0.6517 0.57142 0.11772 0.0
C1574 C 0.62936 0.56171 0.12909 0.0
C1575 C 0.61108 0.53986 0.12314 0.0
H1576 H 0.71692 0.38871 0.33317 0.0
H1577 H 0.70712 0.34035 0.38355 0.0
H1578 H 0.67869 0.42087 0.34274 0.0
H1579 H 0.66848 0.37253 0.3931 0.0
H1580 H 0.59475 0.46191 0.35853 0.0
H1581 H 0.62687 0.42338 0.34886 0.0
H1582 H 0.66595 0.42338 0.40281 0.0
H1583 H 0.6337 0.4616 0.41251 0.0
C1584 C 0.70636 0.38476 0.34622 0.0
C1585 C 0.71511 0.36212 0.35767 0.0
C1586 C 0.6843 0.40308 0.35164 0.0
C1587 C 0.67058 0.39926 0.36868 0.0
C1588 C 0.67885 0.37616 0.37995 0.0
C1589 C 0.70085 0.35768 0.37446 0.0
C1590 C 0.60999 0.45344 0.36836 0.0
C1591 C 0.61187 0.46489 0.38622 0.0
C1592 C 0.62845 0.43147 0.36282 0.0
C1593 C 0.64903 0.42044 0.37505 0.0
C1594 C 0.65014 0.43121 0.39312 0.0
C1595 C 0.6318 0.45324 0.39863 0.0
H1596 H 0.83898 0.49465 0.59813 0.0
H1597 H 0.90979 0.44642 0.62059 0.0
H1598 H 0.80569 0.45845 0.60951 0.0
H1599 H 0.8762 0.40967 0.63164 0.0
H1600 H 0.79926 0.34001 0.62518 0.0
H1601 H 0.83609 0.37385 0.61466 0.0
H1602 H 0.7944 0.44194 0.64464 0.0
H1603 H 0.75813 0.40831 0.65547 0.0
C1604 C 0.84744 0.47618 0.60537 0.0
C1605 C 0.87694 0.47336 0.60855 0.0
C1606 C 0.82839 0.45557 0.61191 0.0
C1607 C 0.83849 0.43144 0.62144 0.0
C1608 C 0.86802 0.42813 0.62426 0.0
C1609 C 0.88712 0.44913 0.61803 0.0
C1610 C 0.79818 0.36215 0.62964 0.0
C1611 C 0.77583 0.37159 0.64109 0.0
C1612 C 0.81925 0.38139 0.62369 0.0
C1613 C 0.81787 0.41039 0.62882 0.0
C1614 C 0.79577 0.41968 0.64045 0.0
C1615 C 0.77511 0.40042 0.64667 0.0
H1616 H 0.1572 0.49412 0.0978 0.0
H1617 H 0.08665 0.44163 0.11623 0.0
H1618 H 0.19087 0.45779 0.10842 0.0
H1619 H 0.12061 0.40498 0.12676 0.0
H1620 H 0.19501 0.33604 0.12201 0.0
H1621 H 0.15874 0.37082 0.11209 0.0
H1622 H 0.20476 0.43822 0.14008 0.0
H1623 H 0.24071 0.4037 0.15006 0.0
C1624 C 0.14889 0.47476 0.10408 0.0
C1625 C 0.11932 0.47072 0.10624 0.0
C1626 C 0.16817 0.45405 0.11022 0.0
C1627 C 0.15831 0.42868 0.11847 0.0
C1628 C 0.12872 0.42433 0.12038 0.0
C1629 C 0.10936 0.44531 0.11444 0.0
C1630 C 0.19722 0.35826 0.1261 0.0
C1631 C 0.22072 0.3672 0.13672 0.0
C1632 C 0.17645 0.37808 0.12051 0.0
C1633 C 0.1791 0.40718 0.12525 0.0
C1634 C 0.20238 0.41596 0.13608 0.0
C1635 C 0.22288 0.39617 0.14184 0.0
H1636 H 0.35305 0.47201 0.9113 0.0
H1637 H 0.40188 0.46255 0.86114 0.0
H1638 H 0.3206 0.43443 0.9012 0.0
H1639 H 0.36968 0.42428 0.85116 0.0
H1640 H 0.27945 0.3508 0.88545 0.0
H1641 H 0.31701 0.38362 0.89546 0.0
H1642 H 0.32066 0.41974 0.84066 0.0
H1643 H 0.28367 0.38644 0.83058 0.0
C1644 C 0.35703 0.46166 0.89819 0.0
C1645 C 0.37992 0.4703 0.88697 0.0
C1646 C 0.33854 0.43994 0.89245 0.0
C1647 C 0.34254 0.4263 0.87537 0.0
C1648 C 0.36581 0.43459 0.86429 0.0
C1649 C 0.38433 0.45639 0.87004 0.0
C1650 C 0.2885 0.36557 0.87552 0.0
C1651 C 0.27853 0.36619 0.85727 0.0
C1652 C 0.3099 0.38447 0.88126 0.0
C1653 C 0.3217 0.40446 0.8689 0.0
C1654 C 0.31228 0.40443 0.85049 0.0
C1655 C 0.29095 0.38547 0.84474 0.0
H1656 H 0.36011 0.53565 0.58115 0.0
H1657 H 0.39977 0.5365 0.63493 0.0
H1658 H 0.32674 0.57279 0.5911 0.0
H1659 H 0.3665 0.57387 0.64483 0.0
H1660 H 0.27671 0.60823 0.66101 0.0
H1661 H 0.31443 0.57559 0.65112 0.0
H1662 H 0.32431 0.62391 0.60074 0.0
H1663 H 0.28629 0.65656 0.6106 0.0
C1664 C 0.36186 0.54397 0.59505 0.0
C1665 C 0.38242 0.53308 0.60731 0.0
C1666 C 0.34287 0.56537 0.6007 0.0
C1667 C 0.34397 0.57618 0.61876 0.0
C1668 C 0.36496 0.56572 0.63089 0.0
C1669 C 0.38407 0.54443 0.6252 0.0
C1670 C 0.28706 0.61201 0.64788 0.0
C1671 C 0.27849 0.63485 0.63653 0.0
C1672 C 0.30879 0.59343 0.64227 0.0
C1673 C 0.32231 0.59719 0.62516 0.0
C1674 C 0.31408 0.62035 0.61394 0.0
C1675 C 0.29243 0.63909 0.61961 0.0
H1676 H 0.1436 0.52422 0.41414 0.0
H1677 H 0.09525 0.5358 0.36395 0.0
H1678 H 0.17677 0.56163 0.40448 0.0
H1679 H 0.12832 0.57354 0.35436 0.0
H1680 H 0.21572 0.60819 0.33414 0.0
H1681 H 0.17868 0.5751 0.34437 0.0
H1682 H 0.18038 0.61364 0.3985 0.0
H1683 H 0.2178 0.64665 0.38828 0.0
C1684 C 0.13991 0.53497 0.40112 0.0
C1685 C 0.11694 0.52699 0.38974 0.0
C1686 C 0.15881 0.55653 0.39565 0.0
C1687 C 0.1552 0.57048 0.37864 0.0
C1688 C 0.13183 0.56293 0.36745 0.0
C1689 C 0.11283 0.54144 0.37297 0.0
C1690 C 0.20809 0.60971 0.3482 0.0
C1691 C 0.21974 0.6299 0.36044 0.0
C1692 C 0.18672 0.59089 0.35402 0.0
C1693 C 0.1766 0.59177 0.37224 0.0
C1694 C 0.18795 0.61228 0.38442 0.0
C1695 C 0.20927 0.63123 0.37856 0.0
loop_
_geom_bond_atom_site_label_1
_geom_bond_atom_site_label_2
_geom_bond_distance
_geom_bond_site_symmetry_2
_ccdc_geom_bond_type
In0 O1 2.294 . S
In0 O2 2.326 . S
In0 O6 2.266 . S
In0 O7 2.326 . S
In0 O8 2.266 . S
In0 O9 2.326 . S
In0 O11 2.294 . S
In0 O12 2.326 . S
O1 In0 2.294 . S
O1 C10 1.240 . S
O2 In0 2.326 . S
O2 C10 1.252 . S
C3 O6 1.252 . S
C3 O7 1.260 . S
C4 O11 1.240 . S
C4 O12 1.252 . S
C5 O8 1.252 . S
C5 O9 1.260 . S
O6 In0 2.266 . S
O6 C3 1.252 . S
O7 In0 2.326 . S
O7 C3 1.260 . S
O8 In0 2.266 . S
O8 C5 1.252 . S
O9 In0 2.326 . S
O9 C5 1.260 . S
C10 O1 1.240 . S
C10 O2 1.252 . S
O11 In0 2.294 . S
O11 C4 1.240 . S
O12 In0 2.326 . S
O12 C4 1.252 . S
In13 O14 2.294 . S
In13 O15 2.326 . S
In13 O19 2.266 . S
In13 O20 2.326 . S
In13 O21 2.266 . S
In13 O22 2.326 . S
In13 O24 2.294 . S
In13 O25 2.326 . S
O14 In13 2.294 . S
O14 C23 1.240 1_565 S
O15 In13 2.326 . S
O15 C23 1.252 1_565 S
C16 O19 1.252 . S
C16 O20 1.260 . S
C17 O24 1.240 . S
C17 O25 1.252 . S
C18 O21 1.252 . S
C18 O22 1.260 . S
O19 In13 2.266 . S
O19 C16 1.252 . S
O20 In13 2.326 . S
O20 C16 1.260 . S
O21 In13 2.266 . S
O21 C18 1.252 . S
O22 In13 2.326 . S
O22 C18 1.260 . S
C23 O14 1.240 1_545 S
C23 O15 1.252 1_545 S
O24 In13 2.294 . S
O24 C17 1.240 . S
O25 In13 2.326 . S
O25 C17 1.252 . S
In26 O27 2.294 . S
In26 O28 2.326 . S
In26 O32 2.266 . S
In26 O33 2.326 . S
In26 O34 2.266 . S
In26 O35 2.326 . S
In26 O37 2.294 . S
In26 O38 2.326 . S
O27 In26 2.294 . S
O27 C36 1.240 . S
O28 In26 2.326 . S
O28 C36 1.252 . S
C29 O32 1.252 . S
C29 O33 1.260 . S
C30 O37 1.240 . S
C30 O38 1.252 . S
C31 O34 1.252 . S
C31 O35 1.260 . S
O32 In26 2.266 . S
O32 C29 1.252 . S
O33 In26 2.326 . S
O33 C29 1.260 . S
O34 In26 2.266 . S
O34 C31 1.252 . S
O35 In26 2.326 . S
O35 C31 1.260 . S
C36 O27 1.240 . S
C36 O28 1.252 . S
O37 In26 2.294 . S
O37 C30 1.240 . S
O38 In26 2.326 . S
O38 C30 1.252 . S
In39 O40 2.294 . S
In39 O41 2.326 . S
In39 O45 2.266 . S
In39 O46 2.326 . S
In39 O47 2.266 . S
In39 O48 2.326 . S
In39 O50 2.294 . S
In39 O51 2.326 . S
O40 In39 2.294 . S
O40 C49 1.240 1_545 S
O41 In39 2.326 . S
O41 C49 1.252 1_545 S
C42 O45 1.252 . S
C42 O46 1.260 . S
C43 O50 1.240 . S
C43 O51 1.252 . S
C44 O47 1.252 . S
C44 O48 1.260 . S
O45 In39 2.266 . S
O45 C42 1.252 . S
O46 In39 2.326 . S
O46 C42 1.260 . S
O47 In39 2.266 . S
O47 C44 1.252 . S
O48 In39 2.326 . S
O48 C44 1.260 . S
C49 O40 1.240 1_565 S
C49 O41 1.252 1_565 S
O50 In39 2.294 . S
O50 C43 1.240 . S
O51 In39 2.326 . S
O51 C43 1.252 . S
In52 O53 2.294 . S
In52 O54 2.326 . S
In52 O58 2.266 . S
In52 O59 2.326 . S
In52 O60 2.266 . S
In52 O61 2.326 . S
In52 O63 2.294 . S
In52 O64 2.326 . S
O53 In52 2.294 . S
O53 C62 1.240 . S
O54 In52 2.326 . S
O54 C62 1.252 . S
C55 O58 1.252 . S
C55 O59 1.260 . S
C56 O63 1.240 . S
C56 O64 1.252 . S
C57 O60 1.252 . S
C57 O61 1.260 . S
O58 In52 2.266 . S
O58 C55 1.252 . S
O59 In52 2.326 . S
O59 C55 1.260 . S
O60 In52 2.266 . S
O60 C57 1.252 . S
O61 In52 2.326 . S
O61 C57 1.260 . S
C62 O53 1.240 . S
C62 O54 1.252 . S
O63 In52 2.294 . S
O63 C56 1.240 . S
O64 In52 2.326 . S
O64 C56 1.252 . S
In65 O66 2.294 . S
In65 O67 2.326 . S
In65 O71 2.266 . S
In65 O72 2.326 . S
In65 O73 2.266 . S
In65 O74 2.326 . S
In65 O76 2.294 . S
In65 O77 2.326 . S
O66 In65 2.294 . S
O66 C75 1.240 1_565 S
O67 In65 2.326 . S
O67 C75 1.252 1_565 S
C68 O71 1.252 . S
C68 O72 1.260 . S
C69 O76 1.240 . S
C69 O77 1.252 . S
C70 O73 1.252 . S
C70 O74 1.260 . S
O71 In65 2.266 . S
O71 C68 1.252 . S
O72 In65 2.326 . S
O72 C68 1.260 . S
O73 In65 2.266 . S
O73 C70 1.252 . S
O74 In65 2.326 . S
O74 C70 1.260 . S
C75 O66 1.240 1_545 S
C75 O67 1.252 1_545 S
O76 In65 2.294 . S
O76 C69 1.240 . S
O77 In65 2.326 . S
O77 C69 1.252 . S
In78 O79 2.294 . S
In78 O80 2.326 . S
In78 O84 2.266 . S
In78 O85 2.326 . S
In78 O86 2.266 . S
In78 O87 2.326 . S
In78 O89 2.294 . S
In78 O90 2.326 . S
O79 In78 2.294 . S
O79 C88 1.240 . S
O80 In78 2.326 . S
O80 C88 1.252 . S
C81 O84 1.252 . S
C81 O85 1.260 . S
C82 O89 1.240 . S
C82 O90 1.252 . S
C83 O86 1.252 . S
C83 O87 1.260 . S
O84 In78 2.266 . S
O84 C81 1.252 . S
O85 In78 2.326 . S
O85 C81 1.260 . S
O86 In78 2.266 . S
O86 C83 1.252 . S
O87 In78 2.326 . S
O87 C83 1.260 . S
C88 O79 1.240 . S
C88 O80 1.252 . S
O89 In78 2.294 . S
O89 C82 1.240 . S
O90 In78 2.326 . S
O90 C82 1.252 . S
In91 O92 2.294 . S
In91 O93 2.326 . S
In91 O97 2.266 . S
In91 O98 2.326 . S
In91 O99 2.266 . S
In91 O100 2.326 . S
In91 O102 2.294 . S
In91 O103 2.326 . S
O92 In91 2.294 . S
O92 C101 1.240 . S
O93 In91 2.326 . S
O93 C101 1.252 . S
C94 O97 1.252 . S
C94 O98 1.260 . S
C95 O102 1.240 1_565 S
C95 O103 1.252 1_565 S
C96 O99 1.252 . S
C96 O100 1.260 . S
O97 In91 2.266 . S
O97 C94 1.252 . S
O98 In91 2.326 . S
O98 C94 1.260 . S
O99 In91 2.266 . S
O99 C96 1.252 . S
O100 In91 2.326 . S
O100 C96 1.260 . S
C101 O92 1.240 . S
C101 O93 1.252 . S
O102 In91 2.294 . S
O102 C95 1.240 1_545 S
O103 In91 2.326 . S
O103 C95 1.252 1_545 S
In104 O105 2.294 . S
In104 O106 2.326 . S
In104 O110 2.266 . S
In104 O111 2.326 . S
In104 O112 2.266 . S
In104 O113 2.326 . S
In104 O115 2.294 . S
In104 O116 2.326 . S
O105 In104 2.294 . S
O105 C114 1.240 . S
O106 In104 2.326 . S
O106 C114 1.252 . S
C107 O110 1.252 . S
C107 O111 1.260 . S
C108 O115 1.240 . S
C108 O116 1.252 . S
C109 O112 1.252 . S
C109 O113 1.260 . S
O110 In104 2.266 . S
O110 C107 1.252 . S
O111 In104 2.326 . S
O111 C107 1.260 . S
O112 In104 2.266 . S
O112 C109 1.252 . S
O113 In104 2.326 . S
O113 C109 1.260 . S
C114 O105 1.240 . S
C114 O106 1.252 . S
O115 In104 2.294 . S
O115 C108 1.240 . S
O116 In104 2.326 . S
O116 C108 1.252 . S
In117 O118 2.294 . S
In117 O119 2.326 . S
In117 O123 2.266 . S
In117 O124 2.326 . S
In117 O125 2.266 . S
In117 O126 2.326 . S
In117 O128 2.294 . S
In117 O129 2.326 . S
O118 In117 2.294 . S
O118 C127 1.240 . S
O119 In117 2.326 . S
O119 C127 1.252 . S
C120 O123 1.252 1_565 S
C120 O124 1.260 1_565 S
C121 O128 1.240 . S
C121 O129 1.252 . S
C122 O125 1.252 . S
C122 O126 1.260 . S
O123 In117 2.266 . S
O123 C120 1.252 1_545 S
O124 In117 2.326 . S
O124 C120 1.260 1_545 S
O125 In117 2.266 . S
O125 C122 1.252 . S
O126 In117 2.326 . S
O126 C122 1.260 . S
C127 O118 1.240 . S
C127 O119 1.252 . S
O128 In117 2.294 . S
O128 C121 1.240 . S
O129 In117 2.326 . S
O129 C121 1.252 . S
In130 O131 2.294 . S
In130 O132 2.326 . S
In130 O136 2.266 . S
In130 O137 2.326 . S
In130 O138 2.266 . S
In130 O139 2.326 . S
In130 O141 2.294 . S
In130 O142 2.326 . S
O131 In130 2.294 . S
O131 C140 1.240 . S
O132 In130 2.326 . S
O132 C140 1.252 . S
C133 O136 1.252 . S
C133 O137 1.260 . S
C134 O141 1.240 . S
C134 O142 1.252 . S
C135 O138 1.252 . S
C135 O139 1.260 . S
O136 In130 2.266 . S
O136 C133 1.252 . S
O137 In130 2.326 . S
O137 C133 1.260 . S
O138 In130 2.266 . S
O138 C135 1.252 . S
O139 In130 2.326 . S
O139 C135 1.260 . S
C140 O131 1.240 . S
C140 O132 1.252 . S
O141 In130 2.294 . S
O141 C134 1.240 . S
O142 In130 2.326 . S
O142 C134 1.252 . S
In143 O144 2.294 . S
In143 O145 2.326 . S
In143 O149 2.266 . S
In143 O150 2.326 . S
In143 O151 2.266 . S
In143 O152 2.326 . S
In143 O154 2.294 . S
In143 O155 2.326 . S
O144 In143 2.294 . S
O144 C153 1.240 . S
O145 In143 2.326 . S
O145 C153 1.252 . S
C146 O149 1.252 1_545 S
C146 O150 1.260 1_545 S
C147 O154 1.240 . S
C147 O155 1.252 . S
C148 O151 1.252 . S
C148 O152 1.260 . S
O149 In143 2.266 . S
O149 C146 1.252 1_565 S
O150 In143 2.326 . S
O150 C146 1.260 1_565 S
O151 In143 2.266 . S
O151 C148 1.252 . S
O152 In143 2.326 . S
O152 C148 1.260 . S
C153 O144 1.240 . S
C153 O145 1.252 . S
O154 In143 2.294 . S
O154 C147 1.240 . S
O155 In143 2.326 . S
O155 C147 1.252 . S
In156 O157 2.294 . S
In156 O158 2.326 . S
In156 O162 2.266 . S
In156 O163 2.326 . S
In156 O164 2.266 . S
In156 O165 2.326 . S
In156 O167 2.294 . S
In156 O168 2.326 . S
O157 In156 2.294 . S
O157 C166 1.240 . S
O158 In156 2.326 . S
O158 C166 1.252 . S
C159 O162 1.252 . S
C159 O163 1.260 . S
C160 O167 1.240 . S
C160 O168 1.252 . S
C161 O164 1.252 . S
C161 O165 1.260 . S
O162 In156 2.266 . S
O162 C159 1.252 . S
O163 In156 2.326 . S
O163 C159 1.260 . S
O164 In156 2.266 . S
O164 C161 1.252 . S
O165 In156 2.326 . S
O165 C161 1.260 . S
C166 O157 1.240 . S
C166 O158 1.252 . S
O167 In156 2.294 . S
O167 C160 1.240 . S
O168 In156 2.326 . S
O168 C160 1.252 . S
In169 O170 2.294 . S
In169 O171 2.326 . S
In169 O175 2.266 . S
In169 O176 2.326 . S
In169 O177 2.266 . S
In169 O178 2.326 . S
In169 O180 2.294 . S
In169 O181 2.326 . S
O170 In169 2.294 . S
O170 C179 1.240 . S
O171 In169 2.326 . S
O171 C179 1.252 . S
C172 O175 1.252 . S
C172 O176 1.260 . S
C173 O180 1.240 . S
C173 O181 1.252 . S
C174 O177 1.252 1_565 S
C174 O178 1.260 1_565 S
O175 In169 2.266 . S
O175 C172 1.252 . S
O176 In169 2.326 . S
O176 C172 1.260 . S
O177 In169 2.266 . S
O177 C174 1.252 1_545 S
O178 In169 2.326 . S
O178 C174 1.260 1_545 S
C179 O170 1.240 . S
C179 O171 1.252 . S
O180 In169 2.294 . S
O180 C173 1.240 . S
O181 In169 2.326 . S
O181 C173 1.252 . S
In182 O183 2.294 . S
In182 O184 2.326 . S
In182 O188 2.266 . S
In182 O189 2.326 . S
In182 O190 2.266 . S
In182 O191 2.326 . S
In182 O193 2.294 . S
In182 O194 2.326 . S
O183 In182 2.294 . S
O183 C192 1.240 . S
O184 In182 2.326 . S
O184 C192 1.252 . S
C185 O188 1.252 . S
C185 O189 1.260 . S
C186 O193 1.240 . S
C186 O194 1.252 . S
C187 O190 1.252 . S
C187 O191 1.260 . S
O188 In182 2.266 . S
O188 C185 1.252 . S
O189 In182 2.326 . S
O189 C185 1.260 . S
O190 In182 2.266 . S
O190 C187 1.252 . S
O191 In182 2.326 . S
O191 C187 1.260 . S
C192 O183 1.240 . S
C192 O184 1.252 . S
O193 In182 2.294 . S
O193 C186 1.240 . S
O194 In182 2.326 . S
O194 C186 1.252 . S
In195 O196 2.294 . S
In195 O197 2.326 . S
In195 O201 2.266 . S
In195 O202 2.326 . S
In195 O203 2.266 . S
In195 O204 2.326 . S
In195 O206 2.294 . S
In195 O207 2.326 . S
O196 In195 2.294 . S
O196 C205 1.240 . S
O197 In195 2.326 . S
O197 C205 1.252 . S
C198 O201 1.252 . S
C198 O202 1.260 . S
C199 O206 1.240 . S
C199 O207 1.252 . S
C200 O203 1.252 1_545 S
C200 O204 1.260 1_545 S
O201 In195 2.266 . S
O201 C198 1.252 . S
O202 In195 2.326 . S
O202 C198 1.260 . S
O203 In195 2.266 . S
O203 C200 1.252 1_565 S
O204 In195 2.326 . S
O204 C200 1.260 1_565 S
C205 O196 1.240 . S
C205 O197 1.252 . S
O206 In195 2.294 . S
O206 C199 1.240 . S
O207 In195 2.326 . S
O207 C199 1.252 . S
In208 O209 2.294 . S
In208 O210 2.326 . S
In208 O214 2.266 . S
In208 O215 2.326 . S
In208 O216 2.266 . S
In208 O217 2.326 . S
In208 O219 2.294 . S
In208 O220 2.326 . S
O209 In208 2.294 . S
O209 C218 1.240 . S
O210 In208 2.326 . S
O210 C218 1.252 . S
C211 O214 1.252 . S
C211 O215 1.260 . S
C212 O219 1.240 . S
C212 O220 1.252 . S
C213 O216 1.252 . S
C213 O217 1.260 . S
O214 In208 2.266 . S
O214 C211 1.252 . S
O215 In208 2.326 . S
O215 C211 1.260 . S
O216 In208 2.266 . S
O216 C213 1.252 . S
O217 In208 2.326 . S
O217 C213 1.260 . S
C218 O209 1.240 . S
C218 O210 1.252 . S
O219 In208 2.294 . S
O219 C212 1.240 . S
O220 In208 2.326 . S
O220 C212 1.252 . S
In221 O222 2.294 . S
In221 O223 2.326 . S
In221 O227 2.266 . S
In221 O228 2.326 . S
In221 O229 2.266 . S
In221 O230 2.326 . S
In221 O232 2.294 . S
In221 O233 2.326 . S
O222 In221 2.294 . S
O222 C231 1.240 . S
O223 In221 2.326 . S
O223 C231 1.252 . S
C224 O227 1.252 . S
C224 O228 1.260 . S
C225 O232 1.240 . S
C225 O233 1.252 . S
C226 O229 1.252 . S
C226 O230 1.260 . S
O227 In221 2.266 . S
O227 C224 1.252 . S
O228 In221 2.326 . S
O228 C224 1.260 . S
O229 In221 2.266 . S
O229 C226 1.252 . S
O230 In221 2.326 . S
O230 C226 1.260 . S
C231 O222 1.240 . S
C231 O223 1.252 . S
O232 In221 2.294 . S
O232 C225 1.240 . S
O233 In221 2.326 . S
O233 C225 1.252 . S
In234 O235 2.294 . S
In234 O236 2.326 . S
In234 O240 2.266 . S
In234 O241 2.326 . S
In234 O242 2.266 . S
In234 O243 2.326 . S
In234 O245 2.294 . S
In234 O246 2.326 . S
O235 In234 2.294 . S
O235 C244 1.240 . S
O236 In234 2.326 . S
O236 C244 1.252 . S
C237 O240 1.252 . S
C237 O241 1.260 . S
C238 O245 1.240 . S
C238 O246 1.252 . S
C239 O242 1.252 . S
C239 O243 1.260 . S
O240 In234 2.266 . S
O240 C237 1.252 . S
O241 In234 2.326 . S
O241 C237 1.260 . S
O242 In234 2.266 . S
O242 C239 1.252 . S
O243 In234 2.326 . S
O243 C239 1.260 . S
C244 O235 1.240 . S
C244 O236 1.252 . S
O245 In234 2.294 . S
O245 C238 1.240 . S
O246 In234 2.326 . S
O246 C238 1.252 . S
In247 O248 2.294 . S
In247 O249 2.326 . S
In247 O253 2.266 . S
In247 O254 2.326 . S
In247 O255 2.266 . S
In247 O256 2.326 . S
In247 O258 2.294 . S
In247 O259 2.326 . S
O248 In247 2.294 . S
O248 C257 1.240 . S
O249 In247 2.326 . S
O249 C257 1.252 . S
C250 O253 1.252 . S
C250 O254 1.260 . S
C251 O258 1.240 . S
C251 O259 1.252 . S
C252 O255 1.252 . S
C252 O256 1.260 . S
O253 In247 2.266 . S
O253 C250 1.252 . S
O254 In247 2.326 . S
O254 C250 1.260 . S
O255 In247 2.266 . S
O255 C252 1.252 . S
O256 In247 2.326 . S
O256 C252 1.260 . S
C257 O248 1.240 . S
C257 O249 1.252 . S
O258 In247 2.294 . S
O258 C251 1.240 . S
O259 In247 2.326 . S
O259 C251 1.252 . S
In260 O261 2.294 . S
In260 O262 2.326 . S
In260 O266 2.266 . S
In260 O267 2.326 . S
In260 O268 2.266 . S
In260 O269 2.326 . S
In260 O271 2.294 . S
In260 O272 2.326 . S
O261 In260 2.294 . S
O261 C270 1.240 . S
O262 In260 2.326 . S
O262 C270 1.252 . S
C263 O266 1.252 . S
C263 O267 1.260 . S
C264 O271 1.240 . S
C264 O272 1.252 . S
C265 O268 1.252 . S
C265 O269 1.260 . S
O266 In260 2.266 . S
O266 C263 1.252 . S
O267 In260 2.326 . S
O267 C263 1.260 . S
O268 In260 2.266 . S
O268 C265 1.252 . S
O269 In260 2.326 . S
O269 C265 1.260 . S
C270 O261 1.240 . S
C270 O262 1.252 . S
O271 In260 2.294 . S
O271 C264 1.240 . S
O272 In260 2.326 . S
O272 C264 1.252 . S
In273 O274 2.294 . S
In273 O275 2.326 . S
In273 O279 2.266 . S
In273 O280 2.326 . S
In273 O281 2.266 . S
In273 O282 2.326 . S
In273 O284 2.294 . S
In273 O285 2.326 . S
O274 In273 2.294 . S
O274 C283 1.240 . S
O275 In273 2.326 . S
O275 C283 1.252 . S
C276 O279 1.252 . S
C276 O280 1.260 . S
C277 O284 1.240 . S
C277 O285 1.252 . S
C278 O281 1.252 . S
C278 O282 1.260 . S
O279 In273 2.266 . S
O279 C276 1.252 . S
O280 In273 2.326 . S
O280 C276 1.260 . S
O281 In273 2.266 . S
O281 C278 1.252 . S
O282 In273 2.326 . S
O282 C278 1.260 . S
C283 O274 1.240 . S
C283 O275 1.252 . S
O284 In273 2.294 . S
O284 C277 1.240 . S
O285 In273 2.326 . S
O285 C277 1.252 . S
In286 O287 2.294 . S
In286 O288 2.326 . S
In286 O292 2.266 . S
In286 O293 2.326 . S
In286 O294 2.266 . S
In286 O295 2.326 . S
In286 O297 2.294 . S
In286 O298 2.326 . S
O287 In286 2.294 . S
O287 C296 1.240 . S
O288 In286 2.326 . S
O288 C296 1.252 . S
C289 O292 1.252 . S
C289 O293 1.260 . S
C290 O297 1.240 . S
C290 O298 1.252 . S
C291 O294 1.252 . S
C291 O295 1.260 . S
O292 In286 2.266 . S
O292 C289 1.252 . S
O293 In286 2.326 . S
O293 C289 1.260 . S
O294 In286 2.266 . S
O294 C291 1.252 . S
O295 In286 2.326 . S
O295 C291 1.260 . S
C296 O287 1.240 . S
C296 O288 1.252 . S
O297 In286 2.294 . S
O297 C290 1.240 . S
O298 In286 2.326 . S
O298 C290 1.252 . S
In299 O300 2.294 . S
In299 O301 2.326 . S
In299 O305 2.266 . S
In299 O306 2.326 . S
In299 O307 2.266 . S
In299 O308 2.326 . S
In299 O310 2.294 . S
In299 O311 2.326 . S
O300 In299 2.294 . S
O300 C309 1.240 . S
O301 In299 2.326 . S
O301 C309 1.252 . S
C302 O305 1.252 . S
C302 O306 1.260 . S
C303 O310 1.240 . S
C303 O311 1.252 . S
C304 O307 1.252 . S
C304 O308 1.260 . S
O305 In299 2.266 . S
O305 C302 1.252 . S
O306 In299 2.326 . S
O306 C302 1.260 . S
O307 In299 2.266 . S
O307 C304 1.252 . S
O308 In299 2.326 . S
O308 C304 1.260 . S
C309 O300 1.240 . S
C309 O301 1.252 . S
O310 In299 2.294 . S
O310 C303 1.240 . S
O311 In299 2.326 . S
O311 C303 1.252 . S
In312 O313 2.294 . S
In312 O314 2.326 . S
In312 O318 2.266 . S
In312 O319 2.326 . S
In312 O320 2.266 . S
In312 O321 2.326 . S
In312 O323 2.294 . S
In312 O324 2.326 . S
O313 In312 2.294 . S
O313 C322 1.240 . S
O314 In312 2.326 . S
O314 C322 1.252 . S
C315 O318 1.252 . S
C315 O319 1.260 . S
C316 O323 1.240 . S
C316 O324 1.252 . S
C317 O320 1.252 . S
C317 O321 1.260 . S
O318 In312 2.266 . S
O318 C315 1.252 . S
O319 In312 2.326 . S
O319 C315 1.260 . S
O320 In312 2.266 . S
O320 C317 1.252 . S
O321 In312 2.326 . S
O321 C317 1.260 . S
C322 O313 1.240 . S
C322 O314 1.252 . S
O323 In312 2.294 . S
O323 C316 1.240 . S
O324 In312 2.326 . S
O324 C316 1.252 . S
In325 O326 2.294 . S
In325 O327 2.326 . S
In325 O331 2.266 . S
In325 O332 2.326 . S
In325 O333 2.266 . S
In325 O334 2.326 . S
In325 O336 2.294 . S
In325 O337 2.326 . S
O326 In325 2.294 . S
O326 C335 1.240 . S
O327 In325 2.326 . S
O327 C335 1.252 . S
C328 O331 1.252 . S
C328 O332 1.260 . S
C329 O336 1.240 . S
C329 O337 1.252 . S
C330 O333 1.252 . S
C330 O334 1.260 . S
O331 In325 2.266 . S
O331 C328 1.252 . S
O332 In325 2.326 . S
O332 C328 1.260 . S
O333 In325 2.266 . S
O333 C330 1.252 . S
O334 In325 2.326 . S
O334 C330 1.260 . S
C335 O326 1.240 . S
C335 O327 1.252 . S
O336 In325 2.294 . S
O336 C329 1.240 . S
O337 In325 2.326 . S
O337 C329 1.252 . S
In338 O339 2.294 . S
In338 O340 2.326 . S
In338 O344 2.266 . S
In338 O345 2.326 . S
In338 O346 2.266 . S
In338 O347 2.326 . S
In338 O349 2.294 . S
In338 O350 2.326 . S
O339 In338 2.294 . S
O339 C348 1.240 . S
O340 In338 2.326 . S
O340 C348 1.252 . S
C341 O344 1.252 . S
C341 O345 1.260 . S
C342 O349 1.240 . S
C342 O350 1.252 . S
C343 O346 1.252 . S
C343 O347 1.260 . S
O344 In338 2.266 . S
O344 C341 1.252 . S
O345 In338 2.326 . S
O345 C341 1.260 . S
O346 In338 2.266 . S
O346 C343 1.252 . S
O347 In338 2.326 . S
O347 C343 1.260 . S
C348 O339 1.240 . S
C348 O340 1.252 . S
O349 In338 2.294 . S
O349 C342 1.240 . S
O350 In338 2.326 . S
O350 C342 1.252 . S
In351 O352 2.294 . S
In351 O353 2.326 . S
In351 O357 2.266 . S
In351 O358 2.326 . S
In351 O359 2.266 . S
In351 O360 2.326 . S
In351 O362 2.294 . S
In351 O363 2.326 . S
O352 In351 2.294 . S
O352 C361 1.240 . S
O353 In351 2.326 . S
O353 C361 1.252 . S
C354 O357 1.252 . S
C354 O358 1.260 . S
C355 O362 1.240 . S
C355 O363 1.252 . S
C356 O359 1.252 . S
C356 O360 1.260 . S
O357 In351 2.266 . S
O357 C354 1.252 . S
O358 In351 2.326 . S
O358 C354 1.260 . S
O359 In351 2.266 . S
O359 C356 1.252 . S
O360 In351 2.326 . S
O360 C356 1.260 . S
C361 O352 1.240 . S
C361 O353 1.252 . S
O362 In351 2.294 . S
O362 C355 1.240 . S
O363 In351 2.326 . S
O363 C355 1.252 . S
In364 O365 2.294 . S
In364 O366 2.326 . S
In364 O370 2.266 . S
In364 O371 2.326 . S
In364 O372 2.266 . S
In364 O373 2.326 . S
In364 O375 2.294 . S
In364 O376 2.326 . S
O365 In364 2.294 . S
O365 C374 1.240 . S
O366 In364 2.326 . S
O366 C374 1.252 . S
C367 O370 1.252 . S
C367 O371 1.260 . S
C368 O375 1.240 . S
C368 O376 1.252 . S
C369 O372 1.252 . S
C369 O373 1.260 . S
O370 In364 2.266 . S
O370 C367 1.252 . S
O371 In364 2.326 . S
O371 C367 1.260 . S
O372 In364 2.266 . S
O372 C369 1.252 . S
O373 In364 2.326 . S
O373 C369 1.260 . S
C374 O365 1.240 . S
C374 O366 1.252 . S
O375 In364 2.294 . S
O375 C368 1.240 . S
O376 In364 2.326 . S
O376 C368 1.252 . S
In377 O378 2.294 . S
In377 O379 2.326 . S
In377 O383 2.266 . S
In377 O384 2.326 . S
In377 O385 2.266 . S
In377 O386 2.326 . S
In377 O388 2.294 . S
In377 O389 2.326 . S
O378 In377 2.294 . S
O378 C387 1.240 . S
O379 In377 2.326 . S
O379 C387 1.252 . S
C380 O383 1.252 . S
C380 O384 1.260 . S
C381 O388 1.240 . S
C381 O389 1.252 . S
C382 O385 1.252 . S
C382 O386 1.260 . S
O383 In377 2.266 . S
O383 C380 1.252 . S
O384 In377 2.326 . S
O384 C380 1.260 . S
O385 In377 2.266 . S
O385 C382 1.252 . S
O386 In377 2.326 . S
O386 C382 1.260 . S
C387 O378 1.240 . S
C387 O379 1.252 . S
O388 In377 2.294 . S
O388 C381 1.240 . S
O389 In377 2.326 . S
O389 C381 1.252 . S
In390 O391 2.294 . S
In390 O392 2.326 . S
In390 O396 2.266 . S
In390 O397 2.326 . S
In390 O398 2.266 . S
In390 O399 2.326 . S
In390 O401 2.294 . S
In390 O402 2.326 . S
O391 In390 2.294 . S
O391 C400 1.240 . S
O392 In390 2.326 . S
O392 C400 1.252 . S
C393 O396 1.252 . S
C393 O397 1.260 . S
C394 O401 1.240 . S
C394 O402 1.252 . S
C395 O398 1.252 . S
C395 O399 1.260 . S
O396 In390 2.266 . S
O396 C393 1.252 . S
O397 In390 2.326 . S
O397 C393 1.260 . S
O398 In390 2.266 . S
O398 C395 1.252 . S
O399 In390 2.326 . S
O399 C395 1.260 . S
C400 O391 1.240 . S
C400 O392 1.252 . S
O401 In390 2.294 . S
O401 C394 1.240 . S
O402 In390 2.326 . S
O402 C394 1.252 . S
In403 O404 2.294 . S
In403 O405 2.326 . S
In403 O409 2.266 . S
In403 O410 2.326 . S
In403 O411 2.266 . S
In403 O412 2.326 . S
In403 O414 2.294 . S
In403 O415 2.326 . S
O404 In403 2.294 . S
O404 C413 1.240 . S
O405 In403 2.326 . S
O405 C413 1.252 . S
C406 O409 1.252 . S
C406 O410 1.260 . S
C407 O414 1.240 . S
C407 O415 1.252 . S
C408 O411 1.252 . S
C408 O412 1.260 . S
O409 In403 2.266 . S
O409 C406 1.252 . S
O410 In403 2.326 . S
O410 C406 1.260 . S
O411 In403 2.266 . S
O411 C408 1.252 . S
O412 In403 2.326 . S
O412 C408 1.260 . S
C413 O404 1.240 . S
C413 O405 1.252 . S
O414 In403 2.294 . S
O414 C407 1.240 . S
O415 In403 2.326 . S
O415 C407 1.252 . S
H416 C424 0.950 . S
H417 C429 0.950 . S
H418 C426 0.950 . S
H419 C428 0.950 . S
H420 C430 0.950 . S
H421 C432 0.950 . S
H422 C434 0.950 . S
H423 C435 0.950 . S
C424 H416 0.950 . S
C424 C425 1.386 . S
C424 C426 1.391 . S
C425 C424 1.386 . S
C425 C429 1.393 . S
C426 H418 0.950 . S
C426 C424 1.391 . S
C426 C427 1.400 . S
C427 C426 1.400 . S
C427 C428 1.398 . S
C427 C433 1.491 . S
C428 H419 0.950 . S
C428 C427 1.398 . S
C428 C429 1.391 . S
C429 H417 0.950 . S
C429 C425 1.393 . S
C429 C428 1.391 . S
C430 H420 0.950 . S
C430 C431 1.386 . S
C430 C432 1.391 . S
C431 C430 1.386 . S
C431 C435 1.393 . S
C432 H421 0.950 . S
C432 C430 1.391 . S
C432 C433 1.400 . S
C433 C427 1.491 . S
C433 C432 1.400 . S
C433 C434 1.398 . S
C434 H422 0.950 . S
C434 C433 1.398 . S
C434 C435 1.391 . S
C435 H423 0.950 . S
C435 C431 1.393 . S
C435 C434 1.391 . S
H436 C444 0.950 . S
H437 C449 0.950 . S
H438 C446 0.950 . S
H439 C448 0.950 . S
H440 C450 0.950 . S
H441 C452 0.950 . S
H442 C454 0.950 . S
H443 C455 0.950 . S
C444 H436 0.950 . S
C444 C445 1.386 . S
C444 C446 1.391 . S
C445 C444 1.386 . S
C445 C449 1.393 . S
C446 H438 0.950 . S
C446 C444 1.391 . S
C446 C447 1.400 . S
C447 C446 1.400 . S
C447 C448 1.398 . S
C447 C453 1.491 . S
C448 H439 0.950 . S
C448 C447 1.398 . S
C448 C449 1.391 . S
C449 H437 0.950 . S
C449 C445 1.393 . S
C449 C448 1.391 . S
C450 H440 0.950 . S
C450 C451 1.386 . S
C450 C452 1.391 . S
C451 C450 1.386 . S
C451 C455 1.393 . S
C452 H441 0.950 . S
C452 C450 1.391 . S
C452 C453 1.400 . S
C453 C447 1.491 . S
C453 C452 1.400 . S
C453 C454 1.398 . S
C454 H442 0.950 . S
C454 C453 1.398 . S
C454 C455 1.391 . S
C455 H443 0.950 . S
C455 C451 1.393 . S
C455 C454 1.391 . S
H456 C464 0.950 . S
H457 C469 0.950 . S
H458 C466 0.950 . S
H459 C468 0.950 . S
H460 C470 0.950 . S
H461 C472 0.950 . S
H462 C474 0.950 . S
H463 C475 0.950 . S
C464 H456 0.950 . S
C464 C465 1.386 . S
C464 C466 1.391 . S
C465 C464 1.386 . S
C465 C469 1.393 . S
C466 H458 0.950 . S
C466 C464 1.391 . S
C466 C467 1.400 . S
C467 C466 1.400 . S
C467 C468 1.398 . S
C467 C473 1.491 . S
C468 H459 0.950 . S
C468 C467 1.398 . S
C468 C469 1.391 . S
C469 H457 0.950 . S
C469 C465 1.393 . S
C469 C468 1.391 . S
C470 H460 0.950 . S
C470 C471 1.386 . S
C470 C472 1.391 . S
C471 C470 1.386 . S
C471 C475 1.393 . S
C472 H461 0.950 . S
C472 C470 1.391 . S
C472 C473 1.400 . S
C473 C467 1.491 . S
C473 C472 1.400 . S
C473 C474 1.398 . S
C474 H462 0.950 . S
C474 C473 1.398 . S
C474 C475 1.391 . S
C475 H463 0.950 . S
C475 C471 1.393 . S
C475 C474 1.391 . S
H476 C484 0.950 . S
H477 C489 0.950 . S
H478 C486 0.950 . S
H479 C488 0.950 . S
H480 C490 0.950 . S
H481 C492 0.950 . S
H482 C494 0.950 . S
H483 C495 0.950 . S
C484 H476 0.950 . S
C484 C485 1.386 . S
C484 C486 1.391 . S
C485 C484 1.386 . S
C485 C489 1.393 . S
C486 H478 0.950 . S
C486 C484 1.391 . S
C486 C487 1.400 . S
C487 C486 1.400 . S
C487 C488 1.398 . S
C487 C493 1.491 . S
C488 H479 0.950 . S
C488 C487 1.398 . S
C488 C489 1.391 . S
C489 H477 0.950 . S
C489 C485 1.393 . S
C489 C488 1.391 . S
C490 H480 0.950 . S
C490 C491 1.386 . S
C490 C492 1.391 . S
C491 C490 1.386 . S
C491 C495 1.393 . S
C492 H481 0.950 . S
C492 C490 1.391 . S
C492 C493 1.400 . S
C493 C487 1.491 . S
C493 C492 1.400 . S
C493 C494 1.398 . S
C494 H482 0.950 . S
C494 C493 1.398 . S
C494 C495 1.391 . S
C495 H483 0.950 . S
C495 C491 1.393 . S
C495 C494 1.391 . S
H496 C504 0.950 . S
H497 C509 0.950 . S
H498 C506 0.950 . S
H499 C508 0.950 . S
H500 C510 0.950 . S
H501 C512 0.950 . S
H502 C514 0.950 . S
H503 C515 0.950 . S
C504 H496 0.950 . S
C504 C505 1.386 . S
C504 C506 1.391 . S
C505 C504 1.386 . S
C505 C509 1.393 . S
C506 H498 0.950 . S
C506 C504 1.391 . S
C506 C507 1.400 . S
C507 C506 1.400 . S
C507 C508 1.398 . S
C507 C513 1.491 . S
C508 H499 0.950 . S
C508 C507 1.398 . S
C508 C509 1.391 . S
C509 H497 0.950 . S
C509 C505 1.393 . S
C509 C508 1.391 . S
C510 H500 0.950 . S
C510 C511 1.386 . S
C510 C512 1.391 . S
C511 C510 1.386 . S
C511 C515 1.393 . S
C512 H501 0.950 . S
C512 C510 1.391 . S
C512 C513 1.400 . S
C513 C507 1.491 . S
C513 C512 1.400 . S
C513 C514 1.398 . S
C514 H502 0.950 . S
C514 C513 1.398 . S
C514 C515 1.391 . S
C515 H503 0.950 . S
C515 C511 1.393 . S
C515 C514 1.391 . S
H516 C524 0.950 . S
H517 C529 0.950 . S
H518 C526 0.950 . S
H519 C528 0.950 . S
H520 C530 0.950 . S
H521 C532 0.950 . S
H522 C534 0.950 . S
H523 C535 0.950 . S
C524 H516 0.950 . S
C524 C525 1.386 . S
C524 C526 1.391 . S
C525 C524 1.386 . S
C525 C529 1.393 . S
C526 H518 0.950 . S
C526 C524 1.391 . S
C526 C527 1.400 . S
C527 C526 1.400 . S
C527 C528 1.398 . S
C527 C533 1.491 . S
C528 H519 0.950 . S
C528 C527 1.398 . S
C528 C529 1.391 . S
C529 H517 0.950 . S
C529 C525 1.393 . S
C529 C528 1.391 . S
C530 H520 0.950 . S
C530 C531 1.386 . S
C530 C532 1.391 . S
C531 C530 1.386 . S
C531 C535 1.393 . S
C532 H521 0.950 . S
C532 C530 1.391 . S
C532 C533 1.400 . S
C533 C527 1.491 . S
C533 C532 1.400 . S
C533 C534 1.398 . S
C534 H522 0.950 . S
C534 C533 1.398 . S
C534 C535 1.391 . S
C535 H523 0.950 . S
C535 C531 1.393 . S
C535 C534 1.391 . S
H536 C544 0.950 . S
H537 C549 0.950 . S
H538 C546 0.950 . S
H539 C548 0.950 . S
H540 C550 0.950 . S
H541 C552 0.950 . S
H542 C554 0.950 . S
H543 C555 0.950 . S
C544 H536 0.950 . S
C544 C545 1.386 . S
C544 C546 1.391 . S
C545 C544 1.386 . S
C545 C549 1.393 . S
C546 H538 0.950 . S
C546 C544 1.391 . S
C546 C547 1.400 . S
C547 C546 1.400 . S
C547 C548 1.398 . S
C547 C553 1.491 . S
C548 H539 0.950 . S
C548 C547 1.398 . S
C548 C549 1.391 . S
C549 H537 0.950 . S
C549 C545 1.393 . S
C549 C548 1.391 . S
C550 H540 0.950 . S
C550 C551 1.386 . S
C550 C552 1.391 . S
C551 C550 1.386 . S
C551 C555 1.393 . S
C552 H541 0.950 . S
C552 C550 1.391 . S
C552 C553 1.400 . S
C553 C547 1.491 . S
C553 C552 1.400 . S
C553 C554 1.398 . S
C554 H542 0.950 . S
C554 C553 1.398 . S
C554 C555 1.391 . S
C555 H543 0.950 . S
C555 C551 1.393 . S
C555 C554 1.391 . S
H556 C564 0.950 . S
H557 C569 0.950 . S
H558 C566 0.950 . S
H559 C568 0.950 . S
H560 C570 0.950 . S
H561 C572 0.950 . S
H562 C574 0.950 . S
H563 C575 0.950 . S
C564 H556 0.950 . S
C564 C565 1.386 . S
C564 C566 1.391 . S
C565 C564 1.386 . S
C565 C569 1.393 . S
C566 H558 0.950 . S
C566 C564 1.391 . S
C566 C567 1.400 . S
C567 C566 1.400 . S
C567 C568 1.398 . S
C567 C573 1.491 . S
C568 H559 0.950 . S
C568 C567 1.398 . S
C568 C569 1.391 . S
C569 H557 0.950 . S
C569 C565 1.393 . S
C569 C568 1.391 . S
C570 H560 0.950 . S
C570 C571 1.386 . S
C570 C572 1.391 . S
C571 C570 1.386 . S
C571 C575 1.393 . S
C572 H561 0.950 . S
C572 C570 1.391 . S
C572 C573 1.400 . S
C573 C567 1.491 . S
C573 C572 1.400 . S
C573 C574 1.398 . S
C574 H562 0.950 . S
C574 C573 1.398 . S
C574 C575 1.391 . S
C575 H563 0.950 . S
C575 C571 1.393 . S
C575 C574 1.391 . S
H576 C584 0.950 . S
H577 C589 0.950 . S
H578 C586 0.950 . S
H579 C588 0.950 . S
H580 C590 0.950 . S
H581 C592 0.950 . S
H582 C594 0.950 . S
H583 C595 0.950 . S
C584 H576 0.950 . S
C584 C585 1.386 . S
C584 C586 1.391 . S
C585 C584 1.386 . S
C585 C589 1.393 . S
C586 H578 0.950 . S
C586 C584 1.391 . S
C586 C587 1.400 . S
C587 C586 1.400 . S
C587 C588 1.398 . S
C587 C593 1.491 . S
C588 H579 0.950 . S
C588 C587 1.398 . S
C588 C589 1.391 . S
C589 H577 0.950 . S
C589 C585 1.393 . S
C589 C588 1.391 . S
C590 H580 0.950 . S
C590 C591 1.386 . S
C590 C592 1.391 . S
C591 C590 1.386 . S
C591 C595 1.393 . S
C592 H581 0.950 . S
C592 C590 1.391 . S
C592 C593 1.400 . S
C593 C587 1.491 . S
C593 C592 1.400 . S
C593 C594 1.398 . S
C594 H582 0.950 . S
C594 C593 1.398 . S
C594 C595 1.391 . S
C595 H583 0.950 . S
C595 C591 1.393 . S
C595 C594 1.391 . S
H596 C604 0.950 . S
H597 C609 0.950 . S
H598 C606 0.950 . S
H599 C608 0.950 . S
H600 C610 0.950 . S
H601 C612 0.950 . S
H602 C614 0.950 . S
H603 C615 0.950 . S
C604 H596 0.950 . S
C604 C605 1.386 . S
C604 C606 1.391 . S
C605 C604 1.386 . S
C605 C609 1.393 . S
C606 H598 0.950 . S
C606 C604 1.391 . S
C606 C607 1.400 . S
C607 C606 1.400 . S
C607 C608 1.398 . S
C607 C613 1.491 . S
C608 H599 0.950 . S
C608 C607 1.398 . S
C608 C609 1.391 . S
C609 H597 0.950 . S
C609 C605 1.393 . S
C609 C608 1.391 . S
C610 H600 0.950 . S
C610 C611 1.386 . S
C610 C612 1.391 . S
C611 C610 1.386 . S
C611 C615 1.393 . S
C612 H601 0.950 . S
C612 C610 1.391 . S
C612 C613 1.400 . S
C613 C607 1.491 . S
C613 C612 1.400 . S
C613 C614 1.398 . S
C614 H602 0.950 . S
C614 C613 1.398 . S
C614 C615 1.391 . S
C615 H603 0.950 . S
C615 C611 1.393 . S
C615 C614 1.391 . S
H616 C624 0.950 . S
H617 C629 0.950 . S
H618 C626 0.950 . S
H619 C628 0.950 . S
H620 C630 0.950 . S
H621 C632 0.950 . S
H622 C634 0.950 . S
H623 C635 0.950 . S
C624 H616 0.950 . S
C624 C625 1.386 . S
C624 C626 1.391 . S
C625 C624 1.386 . S
C625 C629 1.393 . S
C626 H618 0.950 . S
C626 C624 1.391 . S
C626 C627 1.400 . S
C627 C626 1.400 . S
C627 C628 1.398 . S
C627 C633 1.491 . S
C628 H619 0.950 . S
C628 C627 1.398 . S
C628 C629 1.391 . S
C629 H617 0.950 . S
C629 C625 1.393 . S
C629 C628 1.391 . S
C630 H620 0.950 . S
C630 C631 1.386 . S
C630 C632 1.391 . S
C631 C630 1.386 . S
C631 C635 1.393 . S
C632 H621 0.950 . S
C632 C630 1.391 . S
C632 C633 1.400 . S
C633 C627 1.491 . S
C633 C632 1.400 . S
C633 C634 1.398 . S
C634 H622 0.950 . S
C634 C633 1.398 . S
C634 C635 1.391 . S
C635 H623 0.950 . S
C635 C631 1.393 . S
C635 C634 1.391 . S
H636 C644 0.950 . S
H637 C649 0.950 . S
H638 C646 0.950 . S
H639 C648 0.950 . S
H640 C650 0.950 . S
H641 C652 0.950 . S
H642 C654 0.950 . S
H643 C655 0.950 . S
C644 H636 0.950 . S
C644 C645 1.386 . S
C644 C646 1.391 . S
C645 C644 1.386 . S
C645 C649 1.393 . S
C646 H638 0.950 . S
C646 C644 1.391 . S
C646 C647 1.400 . S
C647 C646 1.400 . S
C647 C648 1.398 . S
C647 C653 1.491 . S
C648 H639 0.950 . S
C648 C647 1.398 . S
C648 C649 1.391 . S
C649 H637 0.950 . S
C649 C645 1.393 . S
C649 C648 1.391 . S
C650 H640 0.950 . S
C650 C651 1.386 . S
C650 C652 1.391 . S
C651 C650 1.386 . S
C651 C655 1.393 . S
C652 H641 0.950 . S
C652 C650 1.391 . S
C652 C653 1.400 . S
C653 C647 1.491 . S
C653 C652 1.400 . S
C653 C654 1.398 . S
C654 H642 0.950 . S
C654 C653 1.398 . S
C654 C655 1.391 . S
C655 H643 0.950 . S
C655 C651 1.393 . S
C655 C654 1.391 . S
H656 C664 0.950 . S
H657 C669 0.950 . S
H658 C666 0.950 . S
H659 C668 0.950 . S
H660 C670 0.950 . S
H661 C672 0.950 . S
H662 C674 0.950 . S
H663 C675 0.950 . S
C664 H656 0.950 . S
C664 C665 1.386 . S
C664 C666 1.391 . S
C665 C664 1.386 . S
C665 C669 1.393 . S
C666 H658 0.950 . S
C666 C664 1.391 . S
C666 C667 1.400 . S
C667 C666 1.400 . S
C667 C668 1.398 . S
C667 C673 1.491 . S
C668 H659 0.950 . S
C668 C667 1.398 . S
C668 C669 1.391 . S
C669 H657 0.950 . S
C669 C665 1.393 . S
C669 C668 1.391 . S
C670 H660 0.950 . S
C670 C671 1.386 . S
C670 C672 1.391 . S
C671 C670 1.386 . S
C671 C675 1.393 . S
C672 H661 0.950 . S
C672 C670 1.391 . S
C672 C673 1.400 . S
C673 C667 1.491 . S
C673 C672 1.400 . S
C673 C674 1.398 . S
C674 H662 0.950 . S
C674 C673 1.398 . S
C674 C675 1.391 . S
C675 H663 0.950 . S
C675 C671 1.393 . S
C675 C674 1.391 . S
H676 C684 0.950 . S
H677 C689 0.950 . S
H678 C686 0.950 . S
H679 C688 0.950 . S
H680 C690 0.950 . S
H681 C692 0.950 . S
H682 C694 0.950 . S
H683 C695 0.950 . S
C684 H676 0.950 . S
C684 C685 1.386 . S
C684 C686 1.391 . S
C685 C684 1.386 . S
C685 C689 1.393 . S
C686 H678 0.950 . S
C686 C684 1.391 . S
C686 C687 1.400 . S
C687 C686 1.400 . S
C687 C688 1.398 . S
C687 C693 1.491 . S
C688 H679 0.950 . S
C688 C687 1.398 . S
C688 C689 1.391 . S
C689 H677 0.950 . S
C689 C685 1.393 . S
C689 C688 1.391 . S
C690 H680 0.950 . S
C690 C691 1.386 . S
C690 C692 1.391 . S
C691 C690 1.386 . S
C691 C695 1.393 . S
C692 H681 0.950 . S
C692 C690 1.391 . S
C692 C693 1.400 . S
C693 C687 1.491 . S
C693 C692 1.400 . S
C693 C694 1.398 . S
C694 H682 0.950 . S
C694 C693 1.398 . S
C694 C695 1.391 . S
C695 H683 0.950 . S
C695 C691 1.393 . S
C695 C694 1.391 . S
H696 C704 0.950 . S
H697 C709 0.950 . S
H698 C706 0.950 . S
H699 C708 0.950 . S
H700 C710 0.950 . S
H701 C712 0.950 . S
H702 C714 0.950 . S
H703 C715 0.950 . S
C704 H696 0.950 . S
C704 C705 1.386 . S
C704 C706 1.391 . S
C705 C704 1.386 . S
C705 C709 1.393 . S
C706 H698 0.950 . S
C706 C704 1.391 . S
C706 C707 1.400 . S
C707 C706 1.400 . S
C707 C708 1.398 . S
C707 C713 1.491 . S
C708 H699 0.950 . S
C708 C707 1.398 . S
C708 C709 1.391 . S
C709 H697 0.950 . S
C709 C705 1.393 . S
C709 C708 1.391 . S
C710 H700 0.950 . S
C710 C711 1.386 . S
C710 C712 1.391 . S
C711 C710 1.386 . S
C711 C715 1.393 . S
C712 H701 0.950 . S
C712 C710 1.391 . S
C712 C713 1.400 . S
C713 C707 1.491 . S
C713 C712 1.400 . S
C713 C714 1.398 . S
C714 H702 0.950 . S
C714 C713 1.398 . S
C714 C715 1.391 . S
C715 H703 0.950 . S
C715 C711 1.393 . S
C715 C714 1.391 . S
H716 C724 0.950 . S
H717 C729 0.950 . S
H718 C726 0.950 . S
H719 C728 0.950 . S
H720 C730 0.950 . S
H721 C732 0.950 . S
H722 C734 0.950 . S
H723 C735 0.950 . S
C724 H716 0.950 . S
C724 C725 1.386 . S
C724 C726 1.391 . S
C725 C724 1.386 . S
C725 C729 1.393 . S
C726 H718 0.950 . S
C726 C724 1.391 . S
C726 C727 1.400 . S
C727 C726 1.400 . S
C727 C728 1.398 . S
C727 C733 1.491 . S
C728 H719 0.950 . S
C728 C727 1.398 . S
C728 C729 1.391 . S
C729 H717 0.950 . S
C729 C725 1.393 . S
C729 C728 1.391 . S
C730 H720 0.950 . S
C730 C731 1.386 . S
C730 C732 1.391 . S
C731 C730 1.386 . S
C731 C735 1.393 . S
C732 H721 0.950 . S
C732 C730 1.391 . S
C732 C733 1.400 . S
C733 C727 1.491 . S
C733 C732 1.400 . S
C733 C734 1.398 . S
C734 H722 0.950 . S
C734 C733 1.398 . S
C734 C735 1.391 . S
C735 H723 0.950 . S
C735 C731 1.393 . S
C735 C734 1.391 . S
H736 C744 0.950 . S
H737 C749 0.950 . S
H738 C746 0.950 . S
H739 C748 0.950 . S
H740 C750 0.950 . S
H741 C752 0.950 . S
H742 C754 0.950 . S
H743 C755 0.950 . S
C744 H736 0.950 . S
C744 C745 1.386 . S
C744 C746 1.391 . S
C745 C744 1.386 . S
C745 C749 1.393 . S
C746 H738 0.950 . S
C746 C744 1.391 . S
C746 C747 1.400 . S
C747 C746 1.400 . S
C747 C748 1.398 . S
C747 C753 1.491 . S
C748 H739 0.950 . S
C748 C747 1.398 . S
C748 C749 1.391 . S
C749 H737 0.950 . S
C749 C745 1.393 . S
C749 C748 1.391 . S
C750 H740 0.950 . S
C750 C751 1.386 . S
C750 C752 1.391 . S
C751 C750 1.386 . S
C751 C755 1.393 . S
C752 H741 0.950 . S
C752 C750 1.391 . S
C752 C753 1.400 . S
C753 C747 1.491 . S
C753 C752 1.400 . S
C753 C754 1.398 . S
C754 H742 0.950 . S
C754 C753 1.398 . S
C754 C755 1.391 . S
C755 H743 0.950 . S
C755 C751 1.393 . S
C755 C754 1.391 . S
H756 C764 0.950 . S
H757 C769 0.950 . S
H758 C766 0.950 . S
H759 C768 0.950 . S
H760 C770 0.950 . S
H761 C772 0.950 . S
H762 C774 0.950 . S
H763 C775 0.950 . S
C764 H756 0.950 . S
C764 C765 1.386 . S
C764 C766 1.391 . S
C765 C764 1.386 . S
C765 C769 1.393 . S
C766 H758 0.950 . S
C766 C764 1.391 . S
C766 C767 1.400 . S
C767 C766 1.400 . S
C767 C768 1.398 . S
C767 C773 1.491 . S
C768 H759 0.950 . S
C768 C767 1.398 . S
C768 C769 1.391 . S
C769 H757 0.950 . S
C769 C765 1.393 . S
C769 C768 1.391 . S
C770 H760 0.950 . S
C770 C771 1.386 . S
C770 C772 1.391 . S
C771 C770 1.386 . S
C771 C775 1.393 . S
C772 H761 0.950 . S
C772 C770 1.391 . S
C772 C773 1.400 . S
C773 C767 1.491 . S
C773 C772 1.400 . S
C773 C774 1.398 . S
C774 H762 0.950 . S
C774 C773 1.398 . S
C774 C775 1.391 . S
C775 H763 0.950 . S
C775 C771 1.393 . S
C775 C774 1.391 . S
H776 C784 0.950 . S
H777 C789 0.950 . S
H778 C786 0.950 . S
H779 C788 0.950 . S
H780 C790 0.950 . S
H781 C792 0.950 . S
H782 C794 0.950 . S
H783 C795 0.950 . S
C784 H776 0.950 . S
C784 C785 1.386 . S
C784 C786 1.391 . S
C785 C784 1.386 . S
C785 C789 1.393 . S
C786 H778 0.950 . S
C786 C784 1.391 . S
C786 C787 1.400 . S
C787 C786 1.400 . S
C787 C788 1.398 . S
C787 C793 1.491 . S
C788 H779 0.950 . S
C788 C787 1.398 . S
C788 C789 1.391 . S
C789 H777 0.950 . S
C789 C785 1.393 . S
C789 C788 1.391 . S
C790 H780 0.950 . S
C790 C791 1.386 . S
C790 C792 1.391 . S
C791 C790 1.386 . S
C791 C795 1.393 . S
C792 H781 0.950 . S
C792 C790 1.391 . S
C792 C793 1.400 . S
C793 C787 1.491 . S
C793 C792 1.400 . S
C793 C794 1.398 . S
C794 H782 0.950 . S
C794 C793 1.398 . S
C794 C795 1.391 . S
C795 H783 0.950 . S
C795 C791 1.393 . S
C795 C794 1.391 . S
H796 C804 0.950 . S
H797 C809 0.950 . S
H798 C806 0.950 . S
H799 C808 0.950 . S
H800 C810 0.950 . S
H801 C812 0.950 . S
H802 C814 0.950 . S
H803 C815 0.950 . S
C804 H796 0.950 . S
C804 C805 1.386 . S
C804 C806 1.391 . S
C805 C804 1.386 . S
C805 C809 1.393 . S
C806 H798 0.950 . S
C806 C804 1.391 . S
C806 C807 1.400 . S
C807 C806 1.400 . S
C807 C808 1.398 . S
C807 C813 1.491 . S
C808 H799 0.950 . S
C808 C807 1.398 . S
C808 C809 1.391 . S
C809 H797 0.950 . S
C809 C805 1.393 . S
C809 C808 1.391 . S
C810 H800 0.950 . S
C810 C811 1.386 . S
C810 C812 1.391 . S
C811 C810 1.386 . S
C811 C815 1.393 . S
C812 H801 0.950 . S
C812 C810 1.391 . S
C812 C813 1.400 . S
C813 C807 1.491 . S
C813 C812 1.400 . S
C813 C814 1.398 . S
C814 H802 0.950 . S
C814 C813 1.398 . S
C814 C815 1.391 . S
C815 H803 0.950 . S
C815 C811 1.393 . S
C815 C814 1.391 . S
H816 C824 0.950 . S
H817 C829 0.950 . S
H818 C826 0.950 . S
H819 C828 0.950 . S
H820 C830 0.950 . S
H821 C832 0.950 . S
H822 C834 0.950 . S
H823 C835 0.950 . S
C824 H816 0.950 . S
C824 C825 1.386 . S
C824 C826 1.391 . S
C825 C824 1.386 . S
C825 C829 1.393 . S
C826 H818 0.950 . S
C826 C824 1.391 . S
C826 C827 1.400 . S
C827 C826 1.400 . S
C827 C828 1.398 . S
C827 C833 1.491 . S
C828 H819 0.950 . S
C828 C827 1.398 . S
C828 C829 1.391 . S
C829 H817 0.950 . S
C829 C825 1.393 . S
C829 C828 1.391 . S
C830 H820 0.950 . S
C830 C831 1.386 . S
C830 C832 1.391 . S
C831 C830 1.386 . S
C831 C835 1.393 . S
C832 H821 0.950 . S
C832 C830 1.391 . S
C832 C833 1.400 . S
C833 C827 1.491 . S
C833 C832 1.400 . S
C833 C834 1.398 . S
C834 H822 0.950 . S
C834 C833 1.398 . S
C834 C835 1.391 . S
C835 H823 0.950 . S
C835 C831 1.393 . S
C835 C834 1.391 . S
H836 C844 0.950 . S
H837 C849 0.950 . S
H838 C846 0.950 . S
H839 C848 0.950 . S
H840 C850 0.950 . S
H841 C852 0.950 . S
H842 C854 0.950 . S
H843 C855 0.919 1_655 S
C844 H836 0.950 . S
C844 C845 1.386 . S
C844 C846 1.391 . S
C845 C844 1.386 . S
C845 C849 1.393 . S
C846 H838 0.950 . S
C846 C844 1.391 . S
C846 C847 1.400 . S
C847 C846 1.400 . S
C847 C848 1.398 . S
C847 C853 1.491 . S
C848 H839 0.950 . S
C848 C847 1.398 . S
C848 C849 1.391 . S
C849 H837 0.950 . S
C849 C845 1.393 . S
C849 C848 1.391 . S
C850 H840 0.950 . S
C850 C851 1.386 . S
C850 C852 1.391 . S
C851 C850 1.386 . S
C851 C855 1.393 . S
C852 H841 0.950 . S
C852 C850 1.391 . S
C852 C853 1.400 . S
C853 C847 1.491 . S
C853 C852 1.400 . S
C853 C854 1.398 . S
C854 H842 0.950 . S
C854 C853 1.398 . S
C854 C855 1.391 . S
C855 H843 0.919 1_455 S
C855 C851 1.393 . S
C855 C854 1.391 . S
H856 C864 0.950 . S
H857 C869 0.950 . S
H858 C866 0.950 . S
H859 C868 0.950 . S
H860 C870 0.950 . S
H861 C872 0.950 . S
H862 C874 0.950 . S
H863 C875 0.950 . S
C864 H856 0.950 . S
C864 C865 1.386 . S
C864 C866 1.391 . S
C865 C864 1.386 . S
C865 C869 1.393 . S
C866 H858 0.950 . S
C866 C864 1.391 . S
C866 C867 1.400 . S
C867 C866 1.400 . S
C867 C868 1.398 . S
C867 C873 1.491 . S
C868 H859 0.950 . S
C868 C867 1.398 . S
C868 C869 1.391 . S
C869 H857 0.950 . S
C869 C865 1.393 . S
C869 C868 1.391 . S
C870 H860 0.950 . S
C870 C871 1.386 . S
C870 C872 1.391 . S
C871 C870 1.386 . S
C871 C875 1.393 . S
C872 H861 0.950 . S
C872 C870 1.391 . S
C872 C873 1.400 . S
C873 C867 1.491 . S
C873 C872 1.400 . S
C873 C874 1.398 . S
C874 H862 0.950 . S
C874 C873 1.398 . S
C874 C875 1.391 . S
C875 H863 0.950 . S
C875 C871 1.393 . S
C875 C874 1.391 . S
H876 C884 0.950 . S
H877 C889 0.950 . S
H878 C886 0.950 . S
H879 C888 0.950 . S
H880 C890 0.950 . S
H881 C892 0.950 . S
H882 C894 0.950 . S
H883 C895 0.950 . S
C884 H876 0.950 . S
C884 C885 1.386 . S
C884 C886 1.391 . S
C885 C884 1.386 . S
C885 C889 1.393 . S
C886 H878 0.950 . S
C886 C884 1.391 . S
C886 C887 1.400 . S
C887 C886 1.400 . S
C887 C888 1.398 . S
C887 C893 1.491 . S
C888 H879 0.950 . S
C888 C887 1.398 . S
C888 C889 1.391 . S
C889 H877 0.950 . S
C889 C885 1.393 . S
C889 C888 1.391 . S
C890 H880 0.950 . S
C890 C891 1.386 . S
C890 C892 1.391 . S
C891 C890 1.386 . S
C891 C895 1.393 . S
C892 H881 0.950 . S
C892 C890 1.391 . S
C892 C893 1.400 . S
C893 C887 1.491 . S
C893 C892 1.400 . S
C893 C894 1.398 . S
C894 H882 0.950 . S
C894 C893 1.398 . S
C894 C895 1.391 . S
C895 H883 0.950 . S
C895 C891 1.393 . S
C895 C894 1.391 . S
H896 C904 0.950 . S
H897 C909 0.950 . S
H898 C906 0.950 . S
H899 C908 0.950 . S
H900 C910 0.950 . S
H901 C912 0.950 . S
H902 C914 0.950 . S
H903 C915 0.950 . S
C904 H896 0.950 . S
C904 C905 1.386 . S
C904 C906 1.391 . S
C905 C904 1.386 . S
C905 C909 1.393 . S
C906 H898 0.950 . S
C906 C904 1.391 . S
C906 C907 1.400 . S
C907 C906 1.400 . S
C907 C908 1.398 . S
C907 C913 1.491 . S
C908 H899 0.950 . S
C908 C907 1.398 . S
C908 C909 1.391 . S
C909 H897 0.950 . S
C909 C905 1.393 . S
C909 C908 1.391 . S
C910 H900 0.950 . S
C910 C911 1.386 . S
C910 C912 1.391 . S
C911 C910 1.386 . S
C911 C915 1.393 . S
C912 H901 0.950 . S
C912 C910 1.391 . S
C912 C913 1.400 . S
C913 C907 1.491 . S
C913 C912 1.400 . S
C913 C914 1.398 . S
C914 H902 0.950 . S
C914 C913 1.398 . S
C914 C915 1.391 . S
C915 H903 0.950 . S
C915 C911 1.393 . S
C915 C914 1.391 . S
H916 C924 0.950 . S
H917 C929 0.950 . S
H918 C926 0.950 . S
H919 C928 0.950 . S
H920 C930 0.950 . S
H921 C932 0.950 . S
H922 C934 0.950 . S
H923 C935 0.950 . S
C924 H916 0.950 . S
C924 C925 1.386 . S
C924 C926 1.391 . S
C925 C924 1.386 . S
C925 C929 1.393 . S
C926 H918 0.950 . S
C926 C924 1.391 . S
C926 C927 1.400 . S
C927 C926 1.400 . S
C927 C928 1.398 . S
C927 C933 1.491 . S
C928 H919 0.950 . S
C928 C927 1.398 . S
C928 C929 1.391 . S
C929 H917 0.950 . S
C929 C925 1.393 . S
C929 C928 1.391 . S
C930 H920 0.950 . S
C930 C931 1.386 . S
C930 C932 1.391 . S
C931 C930 1.386 . S
C931 C935 1.393 . S
C932 H921 0.950 . S
C932 C930 1.391 . S
C932 C933 1.400 . S
C933 C927 1.491 . S
C933 C932 1.400 . S
C933 C934 1.398 . S
C934 H922 0.950 . S
C934 C933 1.398 . S
C934 C935 1.391 . S
C935 H923 0.950 . S
C935 C931 1.393 . S
C935 C934 1.391 . S
H936 C944 0.950 . S
H937 C949 0.950 . S
H938 C946 0.950 . S
H939 C948 0.950 . S
H940 C950 0.950 . S
H941 C952 0.950 . S
H942 C954 0.950 . S
H943 C955 0.950 . S
C944 H936 0.950 . S
C944 C945 1.386 . S
C944 C946 1.391 . S
C945 C944 1.386 . S
C945 C949 1.393 . S
C946 H938 0.950 . S
C946 C944 1.391 . S
C946 C947 1.400 . S
C947 C946 1.400 . S
C947 C948 1.398 . S
C947 C953 1.491 . S
C948 H939 0.950 . S
C948 C947 1.398 . S
C948 C949 1.391 . S
C949 H937 0.950 . S
C949 C945 1.393 . S
C949 C948 1.391 . S
C950 H940 0.950 . S
C950 C951 1.386 . S
C950 C952 1.391 . S
C951 C950 1.386 . S
C951 C955 1.393 . S
C952 H941 0.950 . S
C952 C950 1.391 . S
C952 C953 1.400 . S
C953 C947 1.491 . S
C953 C952 1.400 . S
C953 C954 1.398 . S
C954 H942 0.950 . S
C954 C953 1.398 . S
C954 C955 1.391 . S
C955 H943 0.950 . S
C955 C951 1.393 . S
C955 C954 1.391 . S
H956 C964 0.950 . S
H957 C969 0.950 . S
H958 C966 0.950 . S
H959 C968 0.950 . S
H960 C970 0.950 . S
H961 C972 0.950 . S
H962 C974 0.950 . S
H963 C975 0.950 . S
C964 H956 0.950 . S
C964 C965 1.386 . S
C964 C966 1.391 . S
C965 C964 1.386 . S
C965 C969 1.393 . S
C966 H958 0.950 . S
C966 C964 1.391 . S
C966 C967 1.400 . S
C967 C966 1.400 . S
C967 C968 1.398 . S
C967 C973 1.491 . S
C968 H959 0.950 . S
C968 C967 1.398 . S
C968 C969 1.391 . S
C969 H957 0.950 . S
C969 C965 1.393 . S
C969 C968 1.391 . S
C970 H960 0.950 . S
C970 C971 1.386 . S
C970 C972 1.391 . S
C971 C970 1.386 . S
C971 C975 1.393 . S
C972 H961 0.950 . S
C972 C970 1.391 . S
C972 C973 1.400 . S
C973 C967 1.491 . S
C973 C972 1.400 . S
C973 C974 1.398 . S
C974 H962 0.950 . S
C974 C973 1.398 . S
C974 C975 1.391 . S
C975 H963 0.950 . S
C975 C971 1.393 . S
C975 C974 1.391 . S
H976 C984 0.950 . S
H977 C989 0.950 . S
H978 C986 0.950 . S
H979 C988 0.950 . S
H980 C990 0.950 . S
H981 C992 0.950 . S
H982 C994 0.950 . S
H983 C995 0.950 . S
C984 H976 0.950 . S
C984 C985 1.386 . S
C984 C986 1.391 . S
C985 C984 1.386 . S
C985 C989 1.393 . S
C986 H978 0.950 . S
C986 C984 1.391 . S
C986 C987 1.400 . S
C987 C986 1.400 . S
C987 C988 1.398 . S
C987 C993 1.491 . S
C988 H979 0.950 . S
C988 C987 1.398 . S
C988 C989 1.391 . S
C989 H977 0.950 . S
C989 C985 1.393 . S
C989 C988 1.391 . S
C990 H980 0.950 . S
C990 C991 1.386 . S
C990 C992 1.391 . S
C991 C990 1.386 . S
C991 C995 1.393 . S
C992 H981 0.950 . S
C992 C990 1.391 . S
C992 C993 1.400 . S
C993 C987 1.491 . S
C993 C992 1.400 . S
C993 C994 1.398 . S
C994 H982 0.950 . S
C994 C993 1.398 . S
C994 C995 1.391 . S
C995 H983 0.950 . S
C995 C991 1.393 . S
C995 C994 1.391 . S
H996 C1004 0.950 . S
H997 C1009 0.950 . S
H998 C1006 0.950 . S
H999 C1008 0.950 . S
H1000 C1010 0.950 . S
H1001 C1012 0.950 . S
H1002 C1014 0.950 . S
H1003 C1015 0.950 . S
C1004 H996 0.950 . S
C1004 C1005 1.386 . S
C1004 C1006 1.391 . S
C1005 C1004 1.386 . S
C1005 C1009 1.393 . S
C1006 H998 0.950 . S
C1006 C1004 1.391 . S
C1006 C1007 1.400 . S
C1007 C1006 1.400 . S
C1007 C1008 1.398 . S
C1007 C1013 1.491 . S
C1008 H999 0.950 . S
C1008 C1007 1.398 . S
C1008 C1009 1.391 . S
C1009 H997 0.950 . S
C1009 C1005 1.393 . S
C1009 C1008 1.391 . S
C1010 H1000 0.950 . S
C1010 C1011 1.386 . S
C1010 C1012 1.391 . S
C1011 C1010 1.386 . S
C1011 C1015 1.393 . S
C1012 H1001 0.950 . S
C1012 C1010 1.391 . S
C1012 C1013 1.400 . S
C1013 C1007 1.491 . S
C1013 C1012 1.400 . S
C1013 C1014 1.398 . S
C1014 H1002 0.950 . S
C1014 C1013 1.398 . S
C1014 C1015 1.391 . S
C1015 H1003 0.950 . S
C1015 C1011 1.393 . S
C1015 C1014 1.391 . S
H1016 C1024 0.950 . S
H1017 C1029 0.950 . S
H1018 C1026 0.950 . S
H1019 C1028 0.950 . S
H1020 C1030 0.950 . S
H1021 C1032 0.950 . S
H1022 C1034 0.950 . S
H1023 C1035 0.950 . S
C1024 H1016 0.950 . S
C1024 C1025 1.386 . S
C1024 C1026 1.391 . S
C1025 C1024 1.386 . S
C1025 C1029 1.393 . S
C1026 H1018 0.950 . S
C1026 C1024 1.391 . S
C1026 C1027 1.400 . S
C1027 C1026 1.400 . S
C1027 C1028 1.398 . S
C1027 C1033 1.491 . S
C1028 H1019 0.950 . S
C1028 C1027 1.398 . S
C1028 C1029 1.391 . S
C1029 H1017 0.950 . S
C1029 C1025 1.393 . S
C1029 C1028 1.391 . S
C1030 H1020 0.950 . S
C1030 C1031 1.386 . S
C1030 C1032 1.391 . S
C1031 C1030 1.386 . S
C1031 C1035 1.393 . S
C1032 H1021 0.950 . S
C1032 C1030 1.391 . S
C1032 C1033 1.400 . S
C1033 C1027 1.491 . S
C1033 C1032 1.400 . S
C1033 C1034 1.398 . S
C1034 H1022 0.950 . S
C1034 C1033 1.398 . S
C1034 C1035 1.391 . S
C1035 H1023 0.950 . S
C1035 C1031 1.393 . S
C1035 C1034 1.391 . S
H1036 C1044 0.950 . S
H1037 C1049 0.950 . S
H1038 C1046 0.950 . S
H1039 C1048 0.950 . S
H1040 C1050 0.950 . S
H1041 C1052 0.950 . S
H1042 C1054 0.950 . S
H1043 C1055 0.950 . S
C1044 H1036 0.950 . S
C1044 C1045 1.386 . S
C1044 C1046 1.391 . S
C1045 C1044 1.386 . S
C1045 C1049 1.393 . S
C1046 H1038 0.950 . S
C1046 C1044 1.391 . S
C1046 C1047 1.400 . S
C1047 C1046 1.400 . S
C1047 C1048 1.398 . S
C1047 C1053 1.491 . S
C1048 H1039 0.950 . S
C1048 C1047 1.398 . S
C1048 C1049 1.391 . S
C1049 H1037 0.950 . S
C1049 C1045 1.393 . S
C1049 C1048 1.391 . S
C1050 H1040 0.950 . S
C1050 C1051 1.386 . S
C1050 C1052 1.391 . S
C1051 C1050 1.386 . S
C1051 C1055 1.393 . S
C1052 H1041 0.950 . S
C1052 C1050 1.391 . S
C1052 C1053 1.400 . S
C1053 C1047 1.491 . S
C1053 C1052 1.400 . S
C1053 C1054 1.398 . S
C1054 H1042 0.950 . S
C1054 C1053 1.398 . S
C1054 C1055 1.391 . S
C1055 H1043 0.950 . S
C1055 C1051 1.393 . S
C1055 C1054 1.391 . S
H1056 C1064 0.950 . S
H1057 C1069 0.950 . S
H1058 C1066 0.950 . S
H1059 C1068 0.950 . S
H1060 C1070 0.950 . S
H1061 C1072 0.950 . S
H1062 C1074 0.950 . S
H1063 C1075 0.950 . S
C1064 H1056 0.950 . S
C1064 C1065 1.386 . S
C1064 C1066 1.391 . S
C1065 C1064 1.386 . S
C1065 C1069 1.393 . S
C1066 H1058 0.950 . S
C1066 C1064 1.391 . S
C1066 C1067 1.400 . S
C1067 C1066 1.400 . S
C1067 C1068 1.398 . S
C1067 C1073 1.491 . S
C1068 H1059 0.950 . S
C1068 C1067 1.398 . S
C1068 C1069 1.391 . S
C1069 H1057 0.950 . S
C1069 C1065 1.393 . S
C1069 C1068 1.391 . S
C1070 H1060 0.950 . S
C1070 C1071 1.386 . S
C1070 C1072 1.391 . S
C1071 C1070 1.386 . S
C1071 C1075 1.393 . S
C1072 H1061 0.950 . S
C1072 C1070 1.391 . S
C1072 C1073 1.400 . S
C1073 C1067 1.491 . S
C1073 C1072 1.400 . S
C1073 C1074 1.398 . S
C1074 H1062 0.950 . S
C1074 C1073 1.398 . S
C1074 C1075 1.391 . S
C1075 H1063 0.950 . S
C1075 C1071 1.393 . S
C1075 C1074 1.391 . S
H1076 C1084 0.950 1_655 S
H1077 C1089 0.950 . S
H1078 C1086 0.950 . S
H1079 C1088 0.950 . S
H1080 C1090 0.950 1_455 S
H1081 C1092 0.950 . S
H1082 C1094 0.950 . S
H1083 C1095 0.950 . S
C1084 H1076 0.950 1_455 S
C1084 C1085 1.386 . S
C1084 C1086 1.391 1_455 S
C1085 C1084 1.386 . S
C1085 C1089 1.393 1_565 S
C1086 H1078 0.950 . S
C1086 C1084 1.391 1_655 S
C1086 C1087 1.400 1_655 S
C1087 C1086 1.400 1_455 S
C1087 C1088 1.398 1_565 S
C1087 C1093 1.491 1_465 S
C1088 H1079 0.950 . S
C1088 C1087 1.398 1_545 S
C1088 C1089 1.391 . S
C1089 H1077 0.950 . S
C1089 C1085 1.393 1_545 S
C1089 C1088 1.391 . S
C1090 H1080 0.950 1_655 S
C1090 C1091 1.386 . S
C1090 C1092 1.391 1_655 S
C1091 C1090 1.386 . S
C1091 C1095 1.393 1_545 S
C1092 H1081 0.950 . S
C1092 C1090 1.391 1_455 S
C1092 C1093 1.400 1_455 S
C1093 C1087 1.491 1_645 S
C1093 C1092 1.400 1_655 S
C1093 C1094 1.398 1_545 S
C1094 H1082 0.950 . S
C1094 C1093 1.398 1_565 S
C1094 C1095 1.391 . S
C1095 H1083 0.950 . S
C1095 C1091 1.393 1_565 S
C1095 C1094 1.391 . S
H1096 C1104 0.950 . S
H1097 C1109 0.950 . S
H1098 C1106 0.950 . S
H1099 C1108 0.950 . S
H1100 C1110 0.950 . S
H1101 C1112 0.950 . S
H1102 C1114 0.950 . S
H1103 C1115 0.950 . S
C1104 H1096 0.950 . S
C1104 C1105 1.386 . S
C1104 C1106 1.391 . S
C1105 C1104 1.386 . S
C1105 C1109 1.393 . S
C1106 H1098 0.950 . S
C1106 C1104 1.391 . S
C1106 C1107 1.400 . S
C1107 C1106 1.400 . S
C1107 C1108 1.398 . S
C1107 C1113 1.491 . S
C1108 H1099 0.950 . S
C1108 C1107 1.398 . S
C1108 C1109 1.391 . S
C1109 H1097 0.950 . S
C1109 C1105 1.393 . S
C1109 C1108 1.391 . S
C1110 H1100 0.950 . S
C1110 C1111 1.386 . S
C1110 C1112 1.391 . S
C1111 C1110 1.386 . S
C1111 C1115 1.393 . S
C1112 H1101 0.950 . S
C1112 C1110 1.391 . S
C1112 C1113 1.400 . S
C1113 C1107 1.491 . S
C1113 C1112 1.400 . S
C1113 C1114 1.398 . S
C1114 H1102 0.950 . S
C1114 C1113 1.398 . S
C1114 C1115 1.391 . S
C1115 H1103 0.950 . S
C1115 C1111 1.393 . S
C1115 C1114 1.391 . S
H1116 C1124 0.950 . S
H1117 C1129 0.950 . S
H1118 C1126 0.950 . S
H1119 C1128 0.950 . S
H1120 C1130 0.950 . S
H1121 C1132 0.950 . S
H1122 C1134 0.950 . S
H1123 C1135 0.950 . S
C1124 H1116 0.950 . S
C1124 C1125 1.386 1_565 S
C1124 C1126 1.391 . S
C1125 C1124 1.386 1_545 S
C1125 C1129 1.393 . S
C1126 H1118 0.950 . S
C1126 C1124 1.391 . S
C1126 C1127 1.400 1_565 S
C1127 C1126 1.400 1_545 S
C1127 C1128 1.398 . S
C1127 C1133 1.491 1_544 S
C1128 H1119 0.950 . S
C1128 C1127 1.398 . S
C1128 C1129 1.391 . S
C1129 H1117 0.950 . S
C1129 C1125 1.393 . S
C1129 C1128 1.391 . S
C1130 H1120 0.950 . S
C1130 C1131 1.386 1_545 S
C1130 C1132 1.391 . S
C1131 C1130 1.386 1_565 S
C1131 C1135 1.393 . S
C1132 H1121 0.950 . S
C1132 C1130 1.391 . S
C1132 C1133 1.400 1_545 S
C1133 C1127 1.491 1_566 S
C1133 C1132 1.400 1_565 S
C1133 C1134 1.398 . S
C1134 H1122 0.950 . S
C1134 C1133 1.398 . S
C1134 C1135 1.391 . S
C1135 H1123 0.950 . S
C1135 C1131 1.393 . S
C1135 C1134 1.391 . S
H1136 C1144 0.950 . S
H1137 C1149 0.950 . S
H1138 C1146 0.950 . S
H1139 C1148 0.950 . S
H1140 C1150 0.950 . S
H1141 C1152 0.950 . S
H1142 C1154 0.950 . S
H1143 C1155 0.950 . S
C1144 H1136 0.950 . S
C1144 C1145 1.386 . S
C1144 C1146 1.391 . S
C1145 C1144 1.386 . S
C1145 C1149 1.393 . S
C1146 H1138 0.950 . S
C1146 C1144 1.391 . S
C1146 C1147 1.400 . S
C1147 C1146 1.400 . S
C1147 C1148 1.398 . S
C1147 C1153 1.491 . S
C1148 H1139 0.950 . S
C1148 C1147 1.398 . S
C1148 C1149 1.391 . S
C1149 H1137 0.950 . S
C1149 C1145 1.393 . S
C1149 C1148 1.391 . S
C1150 H1140 0.950 . S
C1150 C1151 1.386 . S
C1150 C1152 1.391 . S
C1151 C1150 1.386 . S
C1151 C1155 1.393 . S
C1152 H1141 0.950 . S
C1152 C1150 1.391 . S
C1152 C1153 1.400 . S
C1153 C1147 1.491 . S
C1153 C1152 1.400 . S
C1153 C1154 1.398 . S
C1154 H1142 0.950 . S
C1154 C1153 1.398 . S
C1154 C1155 1.391 . S
C1155 H1143 0.950 . S
C1155 C1151 1.393 . S
C1155 C1154 1.391 . S
H1156 C1164 0.950 . S
H1157 C1169 0.950 . S
H1158 C1166 0.950 . S
H1159 C1168 0.950 . S
H1160 C1170 0.950 . S
H1161 C1172 0.950 . S
H1162 C1174 0.950 . S
H1163 C1175 0.950 . S
C1164 H1156 0.950 . S
C1164 C1165 1.386 1_545 S
C1164 C1166 1.391 . S
C1165 C1164 1.386 1_565 S
C1165 C1169 1.393 . S
C1166 H1158 0.950 . S
C1166 C1164 1.391 . S
C1166 C1167 1.400 1_545 S
C1167 C1166 1.400 1_565 S
C1167 C1168 1.398 . S
C1167 C1173 1.491 1_565 S
C1168 H1159 0.950 . S
C1168 C1167 1.398 . S
C1168 C1169 1.391 . S
C1169 H1157 0.950 . S
C1169 C1165 1.393 . S
C1169 C1168 1.391 . S
C1170 H1160 0.950 . S
C1170 C1171 1.386 1_565 S
C1170 C1172 1.391 . S
C1171 C1170 1.386 1_545 S
C1171 C1175 1.393 . S
C1172 H1161 0.950 . S
C1172 C1170 1.391 . S
C1172 C1173 1.400 1_565 S
C1173 C1167 1.491 1_545 S
C1173 C1172 1.400 1_545 S
C1173 C1174 1.398 . S
C1174 H1162 0.950 . S
C1174 C1173 1.398 . S
C1174 C1175 1.391 . S
C1175 H1163 0.950 . S
C1175 C1171 1.393 . S
C1175 C1174 1.391 . S
H1176 C1184 0.950 . S
H1177 C1189 0.950 . S
H1178 C1186 0.950 . S
H1179 C1188 0.950 . S
H1180 C1190 0.950 . S
H1181 C1192 0.950 . S
H1182 C1194 0.950 . S
H1183 C1195 0.950 . S
C1184 H1176 0.950 . S
C1184 C1185 1.386 . S
C1184 C1186 1.391 . S
C1185 C1184 1.386 . S
C1185 C1189 1.393 . S
C1186 H1178 0.950 . S
C1186 C1184 1.391 . S
C1186 C1187 1.400 . S
C1187 C1186 1.400 . S
C1187 C1188 1.398 . S
C1187 C1193 1.491 . S
C1188 H1179 0.950 . S
C1188 C1187 1.398 . S
C1188 C1189 1.391 . S
C1189 H1177 0.950 . S
C1189 C1185 1.393 . S
C1189 C1188 1.391 . S
C1190 H1180 0.950 . S
C1190 C1191 1.386 . S
C1190 C1192 1.391 . S
C1191 C1190 1.386 . S
C1191 C1195 1.393 . S
C1192 H1181 0.950 . S
C1192 C1190 1.391 . S
C1192 C1193 1.400 . S
C1193 C1187 1.491 . S
C1193 C1192 1.400 . S
C1193 C1194 1.398 . S
C1194 H1182 0.950 . S
C1194 C1193 1.398 . S
C1194 C1195 1.391 . S
C1195 H1183 0.950 . S
C1195 C1191 1.393 . S
C1195 C1194 1.391 . S
H1196 C1204 0.950 1_655 S
H1197 C1209 0.950 . S
H1198 C1206 0.950 . S
H1199 C1208 0.950 . S
H1200 C1210 0.929 1_455 S
H1201 C1212 0.950 . S
H1202 C1214 0.950 . S
H1203 C1215 0.950 . S
C1204 H1196 0.950 1_455 S
C1204 C1205 1.386 . S
C1204 C1206 1.391 1_455 S
C1205 C1204 1.386 . S
C1205 C1209 1.393 1_545 S
C1206 H1198 0.950 . S
C1206 C1204 1.391 1_655 S
C1206 C1207 1.400 1_655 S
C1207 C1206 1.400 1_455 S
C1207 C1208 1.398 1_545 S
C1207 C1213 1.491 1_446 S
C1208 H1199 0.950 . S
C1208 C1207 1.398 1_565 S
C1208 C1209 1.391 . S
C1209 H1197 0.950 . S
C1209 C1205 1.393 1_565 S
C1209 C1208 1.391 . S
C1210 H1200 0.929 1_655 S
C1210 C1211 1.420 . S
C1210 C1212 1.378 1_655 S
C1211 C1210 1.420 . S
C1211 C1215 1.393 1_565 S
C1212 H1201 0.950 . S
C1212 C1210 1.378 1_455 S
C1212 C1213 1.400 1_455 S
C1213 C1207 1.491 1_664 S
C1213 C1212 1.400 1_655 S
C1213 C1214 1.398 1_565 S
C1214 H1202 0.950 . S
C1214 C1213 1.398 1_545 S
C1214 C1215 1.391 . S
C1215 H1203 0.950 . S
C1215 C1211 1.393 1_545 S
C1215 C1214 1.391 . S
H1216 C1224 0.950 . S
H1217 C1229 0.950 . S
H1218 C1226 0.950 . S
H1219 C1228 0.950 . S
H1220 C1230 0.950 . S
H1221 C1232 0.950 . S
H1222 C1234 0.950 . S
H1223 C1235 0.950 . S
C1224 H1216 0.950 . S
C1224 C1225 1.386 . S
C1224 C1226 1.391 . S
C1225 C1224 1.386 . S
C1225 C1229 1.393 . S
C1226 H1218 0.950 . S
C1226 C1224 1.391 . S
C1226 C1227 1.400 . S
C1227 C1226 1.400 . S
C1227 C1228 1.398 . S
C1227 C1233 1.491 . S
C1228 H1219 0.950 . S
C1228 C1227 1.398 . S
C1228 C1229 1.391 . S
C1229 H1217 0.950 . S
C1229 C1225 1.393 . S
C1229 C1228 1.391 . S
C1230 H1220 0.950 . S
C1230 C1231 1.386 . S
C1230 C1232 1.391 . S
C1231 C1230 1.386 . S
C1231 C1235 1.393 . S
C1232 H1221 0.950 . S
C1232 C1230 1.391 . S
C1232 C1233 1.400 . S
C1233 C1227 1.491 . S
C1233 C1232 1.400 . S
C1233 C1234 1.398 . S
C1234 H1222 0.950 . S
C1234 C1233 1.398 . S
C1234 C1235 1.391 . S
C1235 H1223 0.950 . S
C1235 C1231 1.393 . S
C1235 C1234 1.391 . S
H1236 C1244 0.950 . S
H1237 C1249 0.950 . S
H1238 C1246 0.950 . S
H1239 C1248 0.950 . S
H1240 C1250 0.950 . S
H1241 C1252 0.950 . S
H1242 C1254 0.950 . S
H1243 C1255 0.950 . S
C1244 H1236 0.950 . S
C1244 C1245 1.386 . S
C1244 C1246 1.391 . S
C1245 C1244 1.386 . S
C1245 C1249 1.393 . S
C1246 H1238 0.950 . S
C1246 C1244 1.391 . S
C1246 C1247 1.400 . S
C1247 C1246 1.400 . S
C1247 C1248 1.398 . S
C1247 C1253 1.491 . S
C1248 H1239 0.950 . S
C1248 C1247 1.398 . S
C1248 C1249 1.391 . S
C1249 H1237 0.950 . S
C1249 C1245 1.393 . S
C1249 C1248 1.391 . S
C1250 H1240 0.950 . S
C1250 C1251 1.386 . S
C1250 C1252 1.391 . S
C1251 C1250 1.386 . S
C1251 C1255 1.393 . S
C1252 H1241 0.950 . S
C1252 C1250 1.391 . S
C1252 C1253 1.400 . S
C1253 C1247 1.491 . S
C1253 C1252 1.400 . S
C1253 C1254 1.398 . S
C1254 H1242 0.950 . S
C1254 C1253 1.398 . S
C1254 C1255 1.391 . S
C1255 H1243 0.950 . S
C1255 C1251 1.393 . S
C1255 C1254 1.391 . S
H1256 C1264 0.950 . S
H1257 C1269 0.950 . S
H1258 C1266 0.950 . S
H1259 C1268 0.950 . S
H1260 C1270 0.950 . S
H1261 C1272 0.950 . S
H1262 C1274 0.950 . S
H1263 C1275 0.950 . S
C1264 H1256 0.950 . S
C1264 C1265 1.386 . S
C1264 C1266 1.391 . S
C1265 C1264 1.386 . S
C1265 C1269 1.393 . S
C1266 H1258 0.950 . S
C1266 C1264 1.391 . S
C1266 C1267 1.400 . S
C1267 C1266 1.400 . S
C1267 C1268 1.398 . S
C1267 C1273 1.491 . S
C1268 H1259 0.950 . S
C1268 C1267 1.398 . S
C1268 C1269 1.391 . S
C1269 H1257 0.950 . S
C1269 C1265 1.393 . S
C1269 C1268 1.391 . S
C1270 H1260 0.950 . S
C1270 C1271 1.386 . S
C1270 C1272 1.391 . S
C1271 C1270 1.386 . S
C1271 C1275 1.393 . S
C1272 H1261 0.950 . S
C1272 C1270 1.391 . S
C1272 C1273 1.400 . S
C1273 C1267 1.491 . S
C1273 C1272 1.400 . S
C1273 C1274 1.398 . S
C1274 H1262 0.950 . S
C1274 C1273 1.398 . S
C1274 C1275 1.391 . S
C1275 H1263 0.950 . S
C1275 C1271 1.393 . S
C1275 C1274 1.391 . S
H1276 C1284 0.950 . S
H1277 C1289 0.950 . S
H1278 C1286 0.950 . S
H1279 C1288 0.950 . S
H1280 C1290 0.950 . S
H1281 C1292 0.950 . S
H1282 C1294 0.950 . S
H1283 C1295 0.950 . S
C1284 H1276 0.950 . S
C1284 C1285 1.386 . S
C1284 C1286 1.391 . S
C1285 C1284 1.386 . S
C1285 C1289 1.393 . S
C1286 H1278 0.950 . S
C1286 C1284 1.391 . S
C1286 C1287 1.400 . S
C1287 C1286 1.400 . S
C1287 C1288 1.398 . S
C1287 C1293 1.491 . S
C1288 H1279 0.950 . S
C1288 C1287 1.398 . S
C1288 C1289 1.391 . S
C1289 H1277 0.950 . S
C1289 C1285 1.393 . S
C1289 C1288 1.391 . S
C1290 H1280 0.950 . S
C1290 C1291 1.386 . S
C1290 C1292 1.391 . S
C1291 C1290 1.386 . S
C1291 C1295 1.393 . S
C1292 H1281 0.950 . S
C1292 C1290 1.391 . S
C1292 C1293 1.400 . S
C1293 C1287 1.491 . S
C1293 C1292 1.400 . S
C1293 C1294 1.398 . S
C1294 H1282 0.950 . S
C1294 C1293 1.398 . S
C1294 C1295 1.391 . S
C1295 H1283 0.950 . S
C1295 C1291 1.393 . S
C1295 C1294 1.391 . S
H1296 C1304 0.950 . S
H1297 C1309 0.950 . S
H1298 C1306 0.950 . S
H1299 C1308 0.950 . S
H1300 C1310 0.950 . S
H1301 C1312 0.950 . S
H1302 C1314 0.950 . S
H1303 C1315 0.950 . S
C1304 H1296 0.950 . S
C1304 C1305 1.386 . S
C1304 C1306 1.391 . S
C1305 C1304 1.386 . S
C1305 C1309 1.393 . S
C1306 H1298 0.950 . S
C1306 C1304 1.391 . S
C1306 C1307 1.400 . S
C1307 C1306 1.400 . S
C1307 C1308 1.398 . S
C1307 C1313 1.491 1_554 S
C1308 H1299 0.950 . S
C1308 C1307 1.398 . S
C1308 C1309 1.391 . S
C1309 H1297 0.950 . S
C1309 C1305 1.393 . S
C1309 C1308 1.391 . S
C1310 H1300 0.950 . S
C1310 C1311 1.386 . S
C1310 C1312 1.391 . S
C1311 C1310 1.386 . S
C1311 C1315 1.393 . S
C1312 H1301 0.950 . S
C1312 C1310 1.391 . S
C1312 C1313 1.400 . S
C1313 C1307 1.491 1_556 S
C1313 C1312 1.400 . S
C1313 C1314 1.398 . S
C1314 H1302 0.950 . S
C1314 C1313 1.398 . S
C1314 C1315 1.391 . S
C1315 H1303 0.950 . S
C1315 C1311 1.393 . S
C1315 C1314 1.391 . S
H1316 C1324 0.941 1_655 S
H1317 C1329 0.950 . S
H1318 C1326 0.950 . S
H1319 C1328 0.950 . S
H1320 C1330 0.944 1_455 S
H1321 C1332 0.950 . S
H1322 C1334 0.950 . S
H1323 C1335 0.950 . S
C1324 H1316 0.941 1_455 S
C1324 C1325 1.386 . S
C1324 C1326 1.391 1_455 S
C1325 C1324 1.386 . S
C1325 C1329 1.393 . S
C1326 H1318 0.950 . S
C1326 C1324 1.391 1_655 S
C1326 C1327 1.400 1_655 S
C1327 C1326 1.400 1_455 S
C1327 C1328 1.398 . S
C1327 C1333 1.491 1_455 S
C1328 H1319 0.950 . S
C1328 C1327 1.398 . S
C1328 C1329 1.391 . S
C1329 H1317 0.950 . S
C1329 C1325 1.393 . S
C1329 C1328 1.391 . S
C1330 H1320 0.944 1_655 S
C1330 C1331 1.386 . S
C1330 C1332 1.391 1_655 S
C1331 C1330 1.386 . S
C1331 C1335 1.393 . S
C1332 H1321 0.950 . S
C1332 C1330 1.391 1_455 S
C1332 C1333 1.400 1_455 S
C1333 C1327 1.491 1_655 S
C1333 C1332 1.400 1_655 S
C1333 C1334 1.398 . S
C1334 H1322 0.950 . S
C1334 C1333 1.398 . S
C1334 C1335 1.391 . S
C1335 H1323 0.950 . S
C1335 C1331 1.393 . S
C1335 C1334 1.391 . S
H1336 C1344 0.950 1_655 S
H1337 C1349 0.950 . S
H1338 C1346 0.950 . S
H1339 C1348 0.950 . S
H1340 C1350 0.950 1_455 S
H1341 C1352 0.950 . S
H1342 C1354 0.950 . S
H1343 C1355 0.950 . S
C1344 H1336 0.950 1_455 S
C1344 C1345 1.386 . S
C1344 C1346 1.391 1_455 S
C1345 C1344 1.386 . S
C1345 C1349 1.393 . S
C1346 H1338 0.950 . S
C1346 C1344 1.391 1_655 S
C1346 C1347 1.400 1_655 S
C1347 C1346 1.400 1_455 S
C1347 C1348 1.398 . S
C1347 C1353 1.491 1_454 S
C1348 H1339 0.950 . S
C1348 C1347 1.398 . S
C1348 C1349 1.391 . S
C1349 H1337 0.950 . S
C1349 C1345 1.393 . S
C1349 C1348 1.391 . S
C1350 H1340 0.950 1_655 S
C1350 C1351 1.386 . S
C1350 C1352 1.391 1_655 S
C1351 C1350 1.386 . S
C1351 C1355 1.393 . S
C1352 H1341 0.950 . S
C1352 C1350 1.391 1_455 S
C1352 C1353 1.400 1_455 S
C1353 C1347 1.491 1_656 S
C1353 C1352 1.400 1_655 S
C1353 C1354 1.398 . S
C1354 H1342 0.950 . S
C1354 C1353 1.398 . S
C1354 C1355 1.391 . S
C1355 H1343 0.950 . S
C1355 C1351 1.393 . S
C1355 C1354 1.391 . S
H1356 C1364 0.950 . S
H1357 C1369 0.950 . S
H1358 C1366 0.950 . S
H1359 C1368 0.950 . S
H1360 C1370 0.950 . S
H1361 C1372 0.950 . S
H1362 C1374 0.950 . S
H1363 C1375 0.950 . S
C1364 H1356 0.950 . S
C1364 C1365 1.386 . S
C1364 C1366 1.391 . S
C1365 C1364 1.386 . S
C1365 C1369 1.393 . S
C1366 H1358 0.950 . S
C1366 C1364 1.391 . S
C1366 C1367 1.400 . S
C1367 C1366 1.400 . S
C1367 C1368 1.398 . S
C1367 C1373 1.491 . S
C1368 H1359 0.950 . S
C1368 C1367 1.398 . S
C1368 C1369 1.391 . S
C1369 H1357 0.950 . S
C1369 C1365 1.393 . S
C1369 C1368 1.391 . S
C1370 H1360 0.950 . S
C1370 C1371 1.386 . S
C1370 C1372 1.391 . S
C1371 C1370 1.386 . S
C1371 C1375 1.393 . S
C1372 H1361 0.950 . S
C1372 C1370 1.391 . S
C1372 C1373 1.400 . S
C1373 C1367 1.491 . S
C1373 C1372 1.400 . S
C1373 C1374 1.398 . S
C1374 H1362 0.950 . S
C1374 C1373 1.398 . S
C1374 C1375 1.391 . S
C1375 H1363 0.950 . S
C1375 C1371 1.393 . S
C1375 C1374 1.391 . S
H1376 C1384 0.950 . S
H1377 C1389 0.950 . S
H1378 C1386 0.950 . S
H1379 C1388 0.950 . S
H1380 C1390 0.950 1_565 S
H1381 C1392 0.950 . S
H1382 C1394 0.950 . S
H1383 C1395 0.950 . S
C1384 H1376 0.950 . S
C1384 C1385 1.386 . S
C1384 C1386 1.391 . S
C1385 C1384 1.386 . S
C1385 C1389 1.393 . S
C1386 H1378 0.950 . S
C1386 C1384 1.391 . S
C1386 C1387 1.400 . S
C1387 C1386 1.400 . S
C1387 C1388 1.398 . S
C1387 C1393 1.491 . S
C1388 H1379 0.950 . S
C1388 C1387 1.398 . S
C1388 C1389 1.391 . S
C1389 H1377 0.950 . S
C1389 C1385 1.393 . S
C1389 C1388 1.391 . S
C1390 H1380 0.950 1_545 S
C1390 C1391 1.386 . S
C1390 C1392 1.391 . S
C1391 C1390 1.386 . S
C1391 C1395 1.393 . S
C1392 H1381 0.950 . S
C1392 C1390 1.391 . S
C1392 C1393 1.400 . S
C1393 C1387 1.491 . S
C1393 C1392 1.400 . S
C1393 C1394 1.398 . S
C1394 H1382 0.950 . S
C1394 C1393 1.398 . S
C1394 C1395 1.391 . S
C1395 H1383 0.950 . S
C1395 C1391 1.393 . S
C1395 C1394 1.391 . S
H1396 C1404 0.950 . S
H1397 C1409 0.950 . S
H1398 C1406 0.950 . S
H1399 C1408 0.950 . S
H1400 C1410 0.950 . S
H1401 C1412 0.950 . S
H1402 C1414 0.950 . S
H1403 C1415 0.950 . S
C1404 H1396 0.950 . S
C1404 C1405 1.386 . S
C1404 C1406 1.391 . S
C1405 C1404 1.386 . S
C1405 C1409 1.393 . S
C1406 H1398 0.950 . S
C1406 C1404 1.391 . S
C1406 C1407 1.400 . S
C1407 C1406 1.400 . S
C1407 C1408 1.398 . S
C1407 C1413 1.491 . S
C1408 H1399 0.950 . S
C1408 C1407 1.398 . S
C1408 C1409 1.391 . S
C1409 H1397 0.950 . S
C1409 C1405 1.393 . S
C1409 C1408 1.391 . S
C1410 H1400 0.950 . S
C1410 C1411 1.386 . S
C1410 C1412 1.391 . S
C1411 C1410 1.386 . S
C1411 C1415 1.393 . S
C1412 H1401 0.950 . S
C1412 C1410 1.391 . S
C1412 C1413 1.400 . S
C1413 C1407 1.491 . S
C1413 C1412 1.400 . S
C1413 C1414 1.398 . S
C1414 H1402 0.950 . S
C1414 C1413 1.398 . S
C1414 C1415 1.391 . S
C1415 H1403 0.950 . S
C1415 C1411 1.393 . S
C1415 C1414 1.391 . S
H1416 C1424 0.950 . S
H1417 C1429 0.950 . S
H1418 C1426 0.950 . S
H1419 C1428 0.950 . S
H1420 C1430 0.950 . S
H1421 C1432 0.950 . S
H1422 C1434 0.950 . S
H1423 C1435 0.950 . S
C1424 H1416 0.950 . S
C1424 C1425 1.386 . S
C1424 C1426 1.391 . S
C1425 C1424 1.386 . S
C1425 C1429 1.393 . S
C1426 H1418 0.950 . S
C1426 C1424 1.391 . S
C1426 C1427 1.400 . S
C1427 C1426 1.400 . S
C1427 C1428 1.398 . S
C1427 C1433 1.491 . S
C1428 H1419 0.950 . S
C1428 C1427 1.398 . S
C1428 C1429 1.391 . S
C1429 H1417 0.950 . S
C1429 C1425 1.393 . S
C1429 C1428 1.391 . S
C1430 H1420 0.950 . S
C1430 C1431 1.386 . S
C1430 C1432 1.391 . S
C1431 C1430 1.386 . S
C1431 C1435 1.393 . S
C1432 H1421 0.950 . S
C1432 C1430 1.391 . S
C1432 C1433 1.400 . S
C1433 C1427 1.491 . S
C1433 C1432 1.400 . S
C1433 C1434 1.398 . S
C1434 H1422 0.950 . S
C1434 C1433 1.398 . S
C1434 C1435 1.391 . S
C1435 H1423 0.950 . S
C1435 C1431 1.393 . S
C1435 C1434 1.391 . S
H1436 C1444 0.950 . S
H1437 C1449 0.950 . S
H1438 C1446 0.950 . S
H1439 C1448 0.950 . S
H1440 C1450 0.950 . S
H1441 C1452 0.950 . S
H1442 C1454 0.950 . S
H1443 C1455 0.950 . S
C1444 H1436 0.950 . S
C1444 C1445 1.386 . S
C1444 C1446 1.391 . S
C1445 C1444 1.386 . S
C1445 C1449 1.393 . S
C1446 H1438 0.950 . S
C1446 C1444 1.391 . S
C1446 C1447 1.400 . S
C1447 C1446 1.400 . S
C1447 C1448 1.398 . S
C1447 C1453 1.491 . S
C1448 H1439 0.950 . S
C1448 C1447 1.398 . S
C1448 C1449 1.391 . S
C1449 H1437 0.950 . S
C1449 C1445 1.393 . S
C1449 C1448 1.391 . S
C1450 H1440 0.950 . S
C1450 C1451 1.386 . S
C1450 C1452 1.391 . S
C1451 C1450 1.386 . S
C1451 C1455 1.393 . S
C1452 H1441 0.950 . S
C1452 C1450 1.391 . S
C1452 C1453 1.400 . S
C1453 C1447 1.491 . S
C1453 C1452 1.400 . S
C1453 C1454 1.398 . S
C1454 H1442 0.950 . S
C1454 C1453 1.398 . S
C1454 C1455 1.391 . S
C1455 H1443 0.950 . S
C1455 C1451 1.393 . S
C1455 C1454 1.391 . S
H1456 C1464 0.950 . S
H1457 C1469 0.950 . S
H1458 C1466 0.950 . S
H1459 C1468 0.950 . S
H1460 C1470 0.950 1_545 S
H1461 C1472 0.950 . S
H1462 C1474 0.950 . S
H1463 C1475 0.950 . S
C1464 H1456 0.950 . S
C1464 C1465 1.386 . S
C1464 C1466 1.391 . S
C1465 C1464 1.386 . S
C1465 C1469 1.393 . S
C1466 H1458 0.950 . S
C1466 C1464 1.391 . S
C1466 C1467 1.400 . S
C1467 C1466 1.400 . S
C1467 C1468 1.398 . S
C1467 C1473 1.491 . S
C1468 H1459 0.950 . S
C1468 C1467 1.398 . S
C1468 C1469 1.391 . S
C1469 H1457 0.950 . S
C1469 C1465 1.393 . S
C1469 C1468 1.391 . S
C1470 H1460 0.950 1_565 S
C1470 C1471 1.386 . S
C1470 C1472 1.391 . S
C1471 C1470 1.386 . S
C1471 C1475 1.393 . S
C1472 H1461 0.950 . S
C1472 C1470 1.391 . S
C1472 C1473 1.400 . S
C1473 C1467 1.491 . S
C1473 C1472 1.400 . S
C1473 C1474 1.398 . S
C1474 H1462 0.950 . S
C1474 C1473 1.398 . S
C1474 C1475 1.391 . S
C1475 H1463 0.950 . S
C1475 C1471 1.393 . S
C1475 C1474 1.391 . S
H1476 C1484 0.950 . S
H1477 C1489 0.950 1_545 S
H1478 C1486 0.950 . S
H1479 C1488 0.950 . S
H1480 C1490 0.950 . S
H1481 C1492 0.950 . S
H1482 C1494 0.950 . S
H1483 C1495 0.950 . S
C1484 H1476 0.950 . S
C1484 C1485 1.386 . S
C1484 C1486 1.391 . S
C1485 C1484 1.386 . S
C1485 C1489 1.393 . S
C1486 H1478 0.950 . S
C1486 C1484 1.391 . S
C1486 C1487 1.400 . S
C1487 C1486 1.400 . S
C1487 C1488 1.398 . S
C1487 C1493 1.491 . S
C1488 H1479 0.950 . S
C1488 C1487 1.398 . S
C1488 C1489 1.391 . S
C1489 H1477 0.950 1_565 S
C1489 C1485 1.393 . S
C1489 C1488 1.391 . S
C1490 H1480 0.950 . S
C1490 C1491 1.386 . S
C1490 C1492 1.391 . S
C1491 C1490 1.386 . S
C1491 C1495 1.393 . S
C1492 H1481 0.950 . S
C1492 C1490 1.391 . S
C1492 C1493 1.400 . S
C1493 C1487 1.491 . S
C1493 C1492 1.400 . S
C1493 C1494 1.398 . S
C1494 H1482 0.950 . S
C1494 C1493 1.398 . S
C1494 C1495 1.391 . S
C1495 H1483 0.950 . S
C1495 C1491 1.393 . S
C1495 C1494 1.391 . S
H1496 C1504 0.950 . S
H1497 C1509 0.950 . S
H1498 C1506 0.950 . S
H1499 C1508 0.950 . S
H1500 C1510 0.950 . S
H1501 C1512 0.950 . S
H1502 C1514 0.950 . S
H1503 C1515 0.950 . S
C1504 H1496 0.950 . S
C1504 C1505 1.386 . S
C1504 C1506 1.391 . S
C1505 C1504 1.386 . S
C1505 C1509 1.393 . S
C1506 H1498 0.950 . S
C1506 C1504 1.391 . S
C1506 C1507 1.400 . S
C1507 C1506 1.400 . S
C1507 C1508 1.398 . S
C1507 C1513 1.491 . S
C1508 H1499 0.950 . S
C1508 C1507 1.398 . S
C1508 C1509 1.391 . S
C1509 H1497 0.950 . S
C1509 C1505 1.393 . S
C1509 C1508 1.391 . S
C1510 H1500 0.950 . S
C1510 C1511 1.386 . S
C1510 C1512 1.391 . S
C1511 C1510 1.386 . S
C1511 C1515 1.393 . S
C1512 H1501 0.950 . S
C1512 C1510 1.391 . S
C1512 C1513 1.400 . S
C1513 C1507 1.491 . S
C1513 C1512 1.400 . S
C1513 C1514 1.398 . S
C1514 H1502 0.950 . S
C1514 C1513 1.398 . S
C1514 C1515 1.391 . S
C1515 H1503 0.950 . S
C1515 C1511 1.393 . S
C1515 C1514 1.391 . S
H1516 C1524 0.950 . S
H1517 C1529 0.950 1_565 S
H1518 C1526 0.950 . S
H1519 C1528 0.950 . S
H1520 C1530 0.950 . S
H1521 C1532 0.950 . S
H1522 C1534 0.950 . S
H1523 C1535 0.950 . S
C1524 H1516 0.950 . S
C1524 C1525 1.386 . S
C1524 C1526 1.391 . S
C1525 C1524 1.386 . S
C1525 C1529 1.393 . S
C1526 H1518 0.950 . S
C1526 C1524 1.391 . S
C1526 C1527 1.400 . S
C1527 C1526 1.400 . S
C1527 C1528 1.398 . S
C1527 C1533 1.491 . S
C1528 H1519 0.950 . S
C1528 C1527 1.398 . S
C1528 C1529 1.391 . S
C1529 H1517 0.950 1_545 S
C1529 C1525 1.393 . S
C1529 C1528 1.391 . S
C1530 H1520 0.950 . S
C1530 C1531 1.386 . S
C1530 C1532 1.391 . S
C1531 C1530 1.386 . S
C1531 C1535 1.393 . S
C1532 H1521 0.950 . S
C1532 C1530 1.391 . S
C1532 C1533 1.400 . S
C1533 C1527 1.491 . S
C1533 C1532 1.400 . S
C1533 C1534 1.398 . S
C1534 H1522 0.950 . S
C1534 C1533 1.398 . S
C1534 C1535 1.391 . S
C1535 H1523 0.950 . S
C1535 C1531 1.393 . S
C1535 C1534 1.391 . S
H1536 C1544 0.950 . S
H1537 C1549 0.950 . S
H1538 C1546 0.950 . S
H1539 C1548 0.950 . S
H1540 C1550 0.950 . S
H1541 C1552 0.950 . S
H1542 C1554 0.950 . S
H1543 C1555 0.950 . S
C1544 H1536 0.950 . S
C1544 C1545 1.386 . S
C1544 C1546 1.391 . S
C1545 C1544 1.386 . S
C1545 C1549 1.393 . S
C1546 H1538 0.950 . S
C1546 C1544 1.391 . S
C1546 C1547 1.400 . S
C1547 C1546 1.400 . S
C1547 C1548 1.398 . S
C1547 C1553 1.491 . S
C1548 H1539 0.950 . S
C1548 C1547 1.398 . S
C1548 C1549 1.391 . S
C1549 H1537 0.950 . S
C1549 C1545 1.393 . S
C1549 C1548 1.391 . S
C1550 H1540 0.950 . S
C1550 C1551 1.386 . S
C1550 C1552 1.391 . S
C1551 C1550 1.386 . S
C1551 C1555 1.393 . S
C1552 H1541 0.950 . S
C1552 C1550 1.391 . S
C1552 C1553 1.400 . S
C1553 C1547 1.491 . S
C1553 C1552 1.400 . S
C1553 C1554 1.398 . S
C1554 H1542 0.950 . S
C1554 C1553 1.398 . S
C1554 C1555 1.391 . S
C1555 H1543 0.950 . S
C1555 C1551 1.393 . S
C1555 C1554 1.391 . S
H1556 C1564 0.950 . S
H1557 C1569 0.950 . S
H1558 C1566 0.950 . S
H1559 C1568 0.950 . S
H1560 C1570 0.950 . S
H1561 C1572 0.950 . S
H1562 C1574 0.950 . S
H1563 C1575 0.950 . S
C1564 H1556 0.950 . S
C1564 C1565 1.386 . S
C1564 C1566 1.391 . S
C1565 C1564 1.386 . S
C1565 C1569 1.393 . S
C1566 H1558 0.950 . S
C1566 C1564 1.391 . S
C1566 C1567 1.400 . S
C1567 C1566 1.400 . S
C1567 C1568 1.398 . S
C1567 C1573 1.491 . S
C1568 H1559 0.950 . S
C1568 C1567 1.398 . S
C1568 C1569 1.391 . S
C1569 H1557 0.950 . S
C1569 C1565 1.393 . S
C1569 C1568 1.391 . S
C1570 H1560 0.950 . S
C1570 C1571 1.386 . S
C1570 C1572 1.391 . S
C1571 C1570 1.386 . S
C1571 C1575 1.393 . S
C1572 H1561 0.950 . S
C1572 C1570 1.391 . S
C1572 C1573 1.400 . S
C1573 C1567 1.491 . S
C1573 C1572 1.400 . S
C1573 C1574 1.398 . S
C1574 H1562 0.950 . S
C1574 C1573 1.398 . S
C1574 C1575 1.391 . S
C1575 H1563 0.950 . S
C1575 C1571 1.393 . S
C1575 C1574 1.391 . S
H1576 C1584 0.950 . S
H1577 C1589 0.950 . S
H1578 C1586 0.950 . S
H1579 C1588 0.950 . S
H1580 C1590 0.950 . S
H1581 C1592 0.950 . S
H1582 C1594 0.950 . S
H1583 C1595 0.950 . S
C1584 H1576 0.950 . S
C1584 C1585 1.386 . S
C1584 C1586 1.391 . S
C1585 C1584 1.386 . S
C1585 C1589 1.393 . S
C1586 H1578 0.950 . S
C1586 C1584 1.391 . S
C1586 C1587 1.400 . S
C1587 C1586 1.400 . S
C1587 C1588 1.398 . S
C1587 C1593 1.491 . S
C1588 H1579 0.950 . S
C1588 C1587 1.398 . S
C1588 C1589 1.391 . S
C1589 H1577 0.950 . S
C1589 C1585 1.393 . S
C1589 C1588 1.391 . S
C1590 H1580 0.950 . S
C1590 C1591 1.386 . S
C1590 C1592 1.391 . S
C1591 C1590 1.386 . S
C1591 C1595 1.393 . S
C1592 H1581 0.950 . S
C1592 C1590 1.391 . S
C1592 C1593 1.400 . S
C1593 C1587 1.491 . S
C1593 C1592 1.400 . S
C1593 C1594 1.398 . S
C1594 H1582 0.950 . S
C1594 C1593 1.398 . S
C1594 C1595 1.391 . S
C1595 H1583 0.950 . S
C1595 C1591 1.393 . S
C1595 C1594 1.391 . S
H1596 C1604 0.950 . S
H1597 C1609 0.950 . S
H1598 C1606 0.950 . S
H1599 C1608 0.950 . S
H1600 C1610 0.950 . S
H1601 C1612 0.950 . S
H1602 C1614 0.950 . S
H1603 C1615 0.950 . S
C1604 H1596 0.950 . S
C1604 C1605 1.386 . S
C1604 C1606 1.391 . S
C1605 C1604 1.386 . S
C1605 C1609 1.393 . S
C1606 H1598 0.950 . S
C1606 C1604 1.391 . S
C1606 C1607 1.400 . S
C1607 C1606 1.400 . S
C1607 C1608 1.398 . S
C1607 C1613 1.491 . S
C1608 H1599 0.950 . S
C1608 C1607 1.398 . S
C1608 C1609 1.391 . S
C1609 H1597 0.950 . S
C1609 C1605 1.393 . S
C1609 C1608 1.391 . S
C1610 H1600 0.950 . S
C1610 C1611 1.386 . S
C1610 C1612 1.391 . S
C1611 C1610 1.386 . S
C1611 C1615 1.393 . S
C1612 H1601 0.950 . S
C1612 C1610 1.391 . S
C1612 C1613 1.400 . S
C1613 C1607 1.491 . S
C1613 C1612 1.400 . S
C1613 C1614 1.398 . S
C1614 H1602 0.950 . S
C1614 C1613 1.398 . S
C1614 C1615 1.391 . S
C1615 H1603 0.950 . S
C1615 C1611 1.393 . S
C1615 C1614 1.391 . S
H1616 C1624 0.950 . S
H1617 C1629 0.950 . S
H1618 C1626 0.950 . S
H1619 C1628 0.950 . S
H1620 C1630 0.950 . S
H1621 C1632 0.950 . S
H1622 C1634 0.950 . S
H1623 C1635 0.950 . S
C1624 H1616 0.950 . S
C1624 C1625 1.386 . S
C1624 C1626 1.391 . S
C1625 C1624 1.386 . S
C1625 C1629 1.393 . S
C1626 H1618 0.950 . S
C1626 C1624 1.391 . S
C1626 C1627 1.400 . S
C1627 C1626 1.400 . S
C1627 C1628 1.398 . S
C1627 C1633 1.491 . S
C1628 H1619 0.950 . S
C1628 C1627 1.398 . S
C1628 C1629 1.391 . S
C1629 H1617 0.950 . S
C1629 C1625 1.393 . S
C1629 C1628 1.391 . S
C1630 H1620 0.950 . S
C1630 C1631 1.386 . S
C1630 C1632 1.391 . S
C1631 C1630 1.386 . S
C1631 C1635 1.393 . S
C1632 H1621 0.950 . S
C1632 C1630 1.391 . S
C1632 C1633 1.400 . S
C1633 C1627 1.491 . S
C1633 C1632 1.400 . S
C1633 C1634 1.398 . S
C1634 H1622 0.950 . S
C1634 C1633 1.398 . S
C1634 C1635 1.391 . S
C1635 H1623 0.950 . S
C1635 C1631 1.393 . S
C1635 C1634 1.391 . S
H1636 C1644 0.950 . S
H1637 C1649 0.950 . S
H1638 C1646 0.950 . S
H1639 C1648 0.950 . S
H1640 C1650 0.950 . S
H1641 C1652 0.950 . S
H1642 C1654 0.950 . S
H1643 C1655 0.950 . S
C1644 H1636 0.950 . S
C1644 C1645 1.386 . S
C1644 C1646 1.391 . S
C1645 C1644 1.386 . S
C1645 C1649 1.393 . S
C1646 H1638 0.950 . S
C1646 C1644 1.391 . S
C1646 C1647 1.400 . S
C1647 C1646 1.400 . S
C1647 C1648 1.398 . S
C1647 C1653 1.491 . S
C1648 H1639 0.950 . S
C1648 C1647 1.398 . S
C1648 C1649 1.391 . S
C1649 H1637 0.950 . S
C1649 C1645 1.393 . S
C1649 C1648 1.391 . S
C1650 H1640 0.950 . S
C1650 C1651 1.386 . S
C1650 C1652 1.391 . S
C1651 C1650 1.386 . S
C1651 C1655 1.393 . S
C1652 H1641 0.950 . S
C1652 C1650 1.391 . S
C1652 C1653 1.400 . S
C1653 C1647 1.491 . S
C1653 C1652 1.400 . S
C1653 C1654 1.398 . S
C1654 H1642 0.950 . S
C1654 C1653 1.398 . S
C1654 C1655 1.391 . S
C1655 H1643 0.950 . S
C1655 C1651 1.393 . S
C1655 C1654 1.391 . S
H1656 C1664 0.950 . S
H1657 C1669 0.950 . S
H1658 C1666 0.950 . S
H1659 C1668 0.950 . S
H1660 C1670 0.950 . S
H1661 C1672 0.950 . S
H1662 C1674 0.950 . S
H1663 C1675 0.950 . S
C1664 H1656 0.950 . S
C1664 C1665 1.386 . S
C1664 C1666 1.391 . S
C1665 C1664 1.386 . S
C1665 C1669 1.393 . S
C1666 H1658 0.950 . S
C1666 C1664 1.391 . S
C1666 C1667 1.400 . S
C1667 C1666 1.400 . S
C1667 C1668 1.398 . S
C1667 C1673 1.491 . S
C1668 H1659 0.950 . S
C1668 C1667 1.398 . S
C1668 C1669 1.391 . S
C1669 H1657 0.950 . S
C1669 C1665 1.393 . S
C1669 C1668 1.391 . S
C1670 H1660 0.950 . S
C1670 C1671 1.386 . S
C1670 C1672 1.391 . S
C1671 C1670 1.386 . S
C1671 C1675 1.393 . S
C1672 H1661 0.950 . S
C1672 C1670 1.391 . S
C1672 C1673 1.400 . S
C1673 C1667 1.491 . S
C1673 C1672 1.400 . S
C1673 C1674 1.398 . S
C1674 H1662 0.950 . S
C1674 C1673 1.398 . S
C1674 C1675 1.391 . S
C1675 H1663 0.950 . S
C1675 C1671 1.393 . S
C1675 C1674 1.391 . S
H1676 C1684 0.950 . S
H1677 C1689 0.950 . S
H1678 C1686 0.950 . S
H1679 C1688 0.950 . S
H1680 C1690 0.950 . S
H1681 C1692 0.950 . S
H1682 C1694 0.950 . S
H1683 C1695 0.950 . S
C1684 H1676 0.950 . S
C1684 C1685 1.386 . S
C1684 C1686 1.391 . S
C1685 C1684 1.386 . S
C1685 C1689 1.393 . S
C1686 H1678 0.950 . S
C1686 C1684 1.391 . S
C1686 C1687 1.400 . S
C1687 C1686 1.400 . S
C1687 C1688 1.398 . S
C1687 C1693 1.491 . S
C1688 H1679 0.950 . S
C1688 C1687 1.398 . S
C1688 C1689 1.391 . S
C1689 H1677 0.950 . S
C1689 C1685 1.393 . S
C1689 C1688 1.391 . S
C1690 H1680 0.950 . S
C1690 C1691 1.386 . S
C1690 C1692 1.391 . S
C1691 C1690 1.386 . S
C1691 C1695 1.393 . S
C1692 H1681 0.950 . S
C1692 C1690 1.391 . S
C1692 C1693 1.400 . S
C1693 C1687 1.491 . S
C1693 C1692 1.400 . S
C1693 C1694 1.398 . S
C1694 H1682 0.950 . S
C1694 C1693 1.398 . S
C1694 C1695 1.391 . S
C1695 H1683 0.950 . S
C1695 C1691 1.393 . S
C1695 C1694 1.391 . S
C425 C354 1.488 . S
C431 C5 1.494 . S
C445 C16 1.478 1_655 S
C451 C108 1.488 . S
C465 C328 1.494 . S
C471 C29 1.488 . S
C485 C42 1.478 . S
C491 C140 1.488 . S
C505 C55 1.489 . S
C511 C380 1.495 . S
C525 C68 1.488 . S
C531 C192 1.480 . S
C545 C83 1.497 . S
C551 C406 1.486 . S
C565 C96 1.478 1_655 S
C571 C166 1.489 . S
C585 C251 1.492 . S
C591 C107 1.498 . S
C605 C10 1.488 . S
C611 C127 1.480 1_455 S
C625 C225 1.500 . S
C631 C135 1.490 . S
C645 C153 1.480 . S
C651 C30 1.488 . S
C665 C277 1.493 . S
C671 C161 1.499 . S
C685 C88 1.488 . S
C691 C173 1.480 . S
C705 C187 1.498 . S
C711 C309 1.492 . S
C725 C56 1.488 . S
C731 C199 1.482 1_455 S
C745 C211 1.492 . S
C751 C148 1.490 . S
C765 C224 1.485 . S
C771 C316 1.481 . S
C785 C122 1.491 . S
C791 C237 1.491 . S
C805 C342 1.489 . S
C811 C250 1.477 1_455 S
C825 C172 1.488 . S
C831 C263 1.494 . S
C845 C394 1.485 . S
C851 C276 1.484 1_455 S
C865 C198 1.488 . S
C871 C289 1.494 . S
C885 C304 1.485 . S
C891 C368 1.484 . S
C905 C43 1.495 . S
C911 C315 1.493 . S
C925 C329 1.486 . S
C931 C212 1.480 . S
C945 C341 1.489 . S
C951 C17 1.500 . S
C965 C355 1.484 1_655 S
C971 C238 1.486 . S
C985 C367 1.490 . S
C991 C69 1.498 . S
C1005 C381 1.488 1_655 S
C1011 C290 1.480 . S
C1025 C393 1.491 . S
C1031 C101 1.497 . S
C1045 C407 1.486 . S
C1051 C264 1.484 . S
C1065 C317 1.533 . S
C1071 C3 1.533 . S
C1085 C18 1.536 . S
C1091 C121 1.533 . S
C1105 C343 1.533 . S
C1111 C31 1.533 . S
C1125 C44 1.535 . S
C1131 C147 1.532 . S
C1145 C369 1.527 . S
C1151 C57 1.527 . S
C1165 C70 1.532 . S
C1171 C179 1.529 . S
C1185 C395 1.534 . S
C1191 C81 1.534 . S
C1205 C94 1.537 . S
C1211 C205 1.535 . S
C1225 C109 1.533 . S
C1231 C213 1.533 . S
C1245 C133 1.527 . S
C1251 C239 1.527 . S
C1265 C159 1.533 . S
C1271 C265 1.533 . S
C1285 C185 1.532 . S
C1291 C291 1.533 . S
C1305 C226 1.530 . S
C1311 C335 1.526 . S
C1325 C361 1.526 . S
C1331 C252 1.530 . S
C1345 C387 1.528 . S
C1351 C278 1.531 . S
C1365 C302 1.530 . S
C1371 C413 1.526 . S
C1385 C4 1.385 . S
C1391 C75 1.386 . S
C1405 C23 1.386 . S
C1411 C82 1.383 . S
C1425 C36 1.387 . S
C1431 C95 1.384 . S
C1445 C62 1.383 . S
C1451 C49 1.387 . S
C1465 C114 1.385 . S
C1471 C174 1.384 . S
C1485 C120 1.384 . S
C1491 C186 1.387 . S
C1505 C134 1.388 . S
C1511 C200 1.387 . S
C1525 C146 1.384 . S
C1531 C160 1.386 . S
C1545 C218 1.384 . S
C1551 C283 1.387 . S
C1565 C296 1.387 . S
C1571 C231 1.384 . S
C1585 C244 1.385 . S
C1591 C303 1.383 . S
C1605 C257 1.384 . S
C1611 C270 1.385 . S
C1625 C382 1.388 . S
C1631 C322 1.387 . S
C1645 C330 1.388 . S
C1651 C400 1.386 . S
C1665 C408 1.384 . S
C1671 C348 1.388 . S
C1685 C356 1.384 . S
C1691 C374 1.387 . S
