# Generated by pormake.
# Topology zfx, (5)-cn, num edge types: 1
# Building blocks:
#     Node 0, Type 0, BuildingBlock: XOMCOT_clean_sbu_1, # of connection points: 5
#     Node 1, Type 0, BuildingBlock: XOMCOT_clean_sbu_1, # of connection points: 5
#     Node 2, Type 0, BuildingBlock: XOMCOT_clean_sbu_1, # of connection points: 5
#     Node 3, Type 0, BuildingBlock: XOMCOT_clean_sbu_1, # of connection points: 5
#     Node 4, Type 0, BuildingBlock: XOMCOT_clean_sbu_1, # of connection points: 5
#     Node 5, Type 0, BuildingBlock: XOMCOT_clean_sbu_1, # of connection points: 5
#     Node 6, Type 0, BuildingBlock: XOMCOT_clean_sbu_1, # of connection points: 5
#     Node 7, Type 0, BuildingBlock: XOMCOT_clean_sbu_1, # of connection points: 5
#     Node 8, Type 0, BuildingBlock: XOMCOT_clean_sbu_1, # of connection points: 5
#     Node 9, Type 0, BuildingBlock: XOMCOT_clean_sbu_1, # of connection points: 5
#     Node 10, Type 0, BuildingBlock: XOMCOT_clean_sbu_1, # of connection points: 5
#     Node 11, Type 0, BuildingBlock: XOMCOT_clean_sbu_1, # of connection points: 5
#     Node 12, Type 0, BuildingBlock: XOMCOT_clean_sbu_1, # of connection points: 5
#     Node 13, Type 0, BuildingBlock: XOMCOT_clean_sbu_1, # of connection points: 5
#     Node 14, Type 0, BuildingBlock: XOMCOT_clean_sbu_1, # of connection points: 5
#     Node 15, Type 0, BuildingBlock: XOMCOT_clean_sbu_1, # of connection points: 5
#     Edge 16, Type (0, 0), BuildingBlock: EZIPEK_clean_linker_0, # of connection points: 2
#     Edge 17, Type (0, 0), BuildingBlock: EZIPEK_clean_linker_0, # of connection points: 2
#     Edge 18, Type (0, 0), BuildingBlock: EZIPEK_clean_linker_0, # of connection points: 2
#     Edge 19, Type (0, 0), BuildingBlock: EZIPEK_clean_linker_0, # of connection points: 2
#     Edge 20, Type (0, 0), BuildingBlock: EZIPEK_clean_linker_0, # of connection points: 2
#     Edge 21, Type (0, 0), BuildingBlock: EZIPEK_clean_linker_0, # of connection points: 2
#     Edge 22, Type (0, 0), BuildingBlock: EZIPEK_clean_linker_0, # of connection points: 2
#     Edge 23, Type (0, 0), BuildingBlock: EZIPEK_clean_linker_0, # of connection points: 2
#     Edge 24, Type (0, 0), BuildingBlock: EZIPEK_clean_linker_0, # of connection points: 2
#     Edge 25, Type (0, 0), BuildingBlock: EZIPEK_clean_linker_0, # of connection points: 2
#     Edge 26, Type (0, 0), BuildingBlock: EZIPEK_clean_linker_0, # of connection points: 2
#     Edge 27, Type (0, 0), BuildingBlock: EZIPEK_clean_linker_0, # of connection points: 2
#     Edge 28, Type (0, 0), BuildingBlock: EZIPEK_clean_linker_0, # of connection points: 2
#     Edge 29, Type (0, 0), BuildingBlock: EZIPEK_clean_linker_0, # of connection points: 2
#     Edge 30, Type (0, 0), BuildingBlock: EZIPEK_clean_linker_0, # of connection points: 2
#     Edge 31, Type (0, 0), BuildingBlock: EZIPEK_clean_linker_0, # of connection points: 2
#     Edge 32, Type (0, 0), BuildingBlock: EZIPEK_clean_linker_0, # of connection points: 2
#     Edge 33, Type (0, 0), BuildingBlock: EZIPEK_clean_linker_0, # of connection points: 2
#     Edge 34, Type (0, 0), BuildingBlock: EZIPEK_clean_linker_0, # of connection points: 2
#     Edge 35, Type (0, 0), BuildingBlock: EZIPEK_clean_linker_0, # of connection points: 2
#     Edge 36, Type (0, 0), BuildingBlock: EZIPEK_clean_linker_0, # of connection points: 2
#     Edge 37, Type (0, 0), BuildingBlock: EZIPEK_clean_linker_0, # of connection points: 2
#     Edge 38, Type (0, 0), BuildingBlock: EZIPEK_clean_linker_0, # of connection points: 2
#     Edge 39, Type (0, 0), BuildingBlock: EZIPEK_clean_linker_0, # of connection points: 2
#     Edge 40, Type (0, 0), BuildingBlock: EZIPEK_clean_linker_0, # of connection points: 2
#     Edge 41, Type (0, 0), BuildingBlock: EZIPEK_clean_linker_0, # of connection points: 2
#     Edge 42, Type (0, 0), BuildingBlock: EZIPEK_clean_linker_0, # of connection points: 2
#     Edge 43, Type (0, 0), BuildingBlock: EZIPEK_clean_linker_0, # of connection points: 2
#     Edge 44, Type (0, 0), BuildingBlock: EZIPEK_clean_linker_0, # of connection points: 2
#     Edge 45, Type (0, 0), BuildingBlock: EZIPEK_clean_linker_0, # of connection points: 2
#     Edge 46, Type (0, 0), BuildingBlock: EZIPEK_clean_linker_0, # of connection points: 2
#     Edge 47, Type (0, 0), BuildingBlock: EZIPEK_clean_linker_0, # of connection points: 2
#     Edge 48, Type (0, 0), BuildingBlock: EZIPEK_clean_linker_0, # of connection points: 2
#     Edge 49, Type (0, 0), BuildingBlock: EZIPEK_clean_linker_0, # of connection points: 2
#     Edge 50, Type (0, 0), BuildingBlock: EZIPEK_clean_linker_0, # of connection points: 2
#     Edge 51, Type (0, 0), BuildingBlock: EZIPEK_clean_linker_0, # of connection points: 2
#     Edge 52, Type (0, 0), BuildingBlock: EZIPEK_clean_linker_0, # of connection points: 2
#     Edge 53, Type (0, 0), BuildingBlock: EZIPEK_clean_linker_0, # of connection points: 2
#     Edge 54, Type (0, 0), BuildingBlock: EZIPEK_clean_linker_0, # of connection points: 2
#     Edge 55, Type (0, 0), BuildingBlock: EZIPEK_clean_linker_0, # of connection points: 2
# Relax obj value: 0.378
# Max RMSD: 0.203
# Mean RMSD: 0.203
data_MOF--net-zfx--node1-XOMCOT_clean_sbu_1--edge1-EZIPEK_clean_linker_0
_symmetry_space_group_name_H-M    P1
_symmetry_Int_Tables_number       1
_symmetry_cell_setting            triclinic
loop_
_symmetry_equiv_pos_as_xyz
'x, y, z'
_cell_length_a     48.85758
_cell_length_b     48.877775
_cell_length_c     18.012917
_cell_angle_alpha  89.917366
_cell_angle_beta   89.903673
_cell_angle_gamma 90.12139
loop_
_atom_site_label
_atom_site_type_symbol
_atom_site_fract_x
_atom_site_fract_y
_atom_site_fract_z
_atom_type_partial_charge
C0 C 0.56497 0.12997 0.3982 0.0
C1 C 0.58698 0.12957 0.446 0.0
N2 N 0.58259 0.14867 0.49822 0.0
N3 N 0.54695 0.14912 0.421 0.0
C4 C 0.55855 0.16048 0.48134 0.0
H5 H 0.56122 0.11569 0.35352 0.0
Co6 Co 0.51116 0.15181 0.38808 0.0
C7 C 0.4866 0.17409 0.53531 0.0
O8 O 0.47572 0.1505 0.55341 0.0
N9 N 0.47507 0.15394 0.35421 0.0
C10 C 0.43007 0.14769 0.34097 0.0
C11 C 0.45149 0.14757 0.39016 0.0
C12 C 0.46733 0.15776 0.28334 0.0
N13 N 0.44036 0.15382 0.27405 0.0
O14 O 0.52202 0.18391 0.32565 0.0
H15 H 0.44985 0.14103 0.44688 0.0
H16 H 0.48107 0.16229 0.23806 0.0
O17 O 0.50066 0.1766 0.47486 0.0
C18 C 0.53196 0.17597 0.26299 0.0
O19 O 0.53187 0.14953 0.24951 0.0
N20 N 0.50297 0.11826 0.43803 0.0
C21 C 0.49957 0.06362 0.48489 0.0
C22 C 0.50935 0.08397 0.53285 0.0
C23 C 0.51134 0.11112 0.50784 0.0
C24 C 0.49376 0.0984 0.39076 0.0
C25 C 0.49149 0.07113 0.41336 0.0
H26 H 0.52037 0.12623 0.5439 0.0
H27 H 0.48924 0.10346 0.33365 0.0
H28 H 0.54862 0.17535 0.51654 0.0
H29 H 0.60365 0.11502 0.44612 0.0
H30 H 0.40889 0.14266 0.35256 0.0
H31 H 0.51633 0.07872 0.58808 0.0
H32 H 0.48448 0.05583 0.37428 0.0
C33 C 0.13273 0.31134 0.6499 0.0
C34 C 0.13237 0.3331 0.69861 0.0
N35 N 0.11399 0.32737 0.75204 0.0
N36 N 0.11472 0.29215 0.67311 0.0
C37 C 0.10338 0.30273 0.73504 0.0
H38 H 0.1467 0.30873 0.60381 0.0
Co39 Co 0.11329 0.25636 0.63825 0.0
C40 C 0.09307 0.23072 0.78761 0.0
O41 O 0.11744 0.22232 0.8073 0.0
N42 N 0.11217 0.22018 0.60378 0.0
C43 C 0.11834 0.17506 0.5963 0.0
C44 C 0.11951 0.19742 0.64188 0.0
C45 C 0.10682 0.211 0.53476 0.0
N46 N 0.11016 0.18376 0.52942 0.0
O47 O 0.08039 0.26603 0.57801 0.0
H48 H 0.12706 0.19702 0.69783 0.0
H49 H 0.10188 0.22395 0.48816 0.0
O50 O 0.08974 0.24407 0.72625 0.0
C51 C 0.08741 0.27648 0.51498 0.0
O52 O 0.11368 0.27793 0.49965 0.0
N53 N 0.14762 0.24953 0.68486 0.0
C54 C 0.20306 0.2489 0.72407 0.0
C55 C 0.18318 0.25778 0.77477 0.0
C56 C 0.15555 0.25833 0.7536 0.0
C57 C 0.16703 0.24126 0.63495 0.0
C58 C 0.1947 0.2403 0.6538 0.0
H59 H 0.1407 0.26673 0.79153 0.0
H60 H 0.16124 0.23651 0.57852 0.0
H61 H 0.08937 0.29178 0.77095 0.0
H62 H 0.14585 0.3507 0.69802 0.0
H63 H 0.12377 0.15421 0.6102 0.0
H64 H 0.18909 0.26514 0.82913 0.0
H65 H 0.20961 0.23397 0.61271 0.0
C66 C 0.95729 0.87443 0.88259 0.0
C67 C 0.93533 0.87489 0.93087 0.0
N68 N 0.94114 0.85811 0.98786 0.0
N69 N 0.97675 0.85757 0.90967 0.0
C70 C 0.96603 0.84767 0.97332 0.0
H71 H 0.96004 0.88765 0.83496 0.0
Co72 Co 0.01323 0.85751 0.87991 0.0
C73 C 0.04065 0.83371 0.01987 0.0
O74 O 0.05574 0.85561 0.02885 0.0
N75 N 0.05041 0.85816 0.85025 0.0
C76 C 0.09433 0.87028 0.83731 0.0
C77 C 0.07145 0.87238 0.88099 0.0
C78 C 0.06138 0.84744 0.78805 0.0
N79 N 0.08776 0.85466 0.77911 0.0
O80 O 1.0056 0.82598 0.81355 0.0
H81 H 0.07009 0.88548 0.92899 0.0
H82 H 0.05013 0.83585 0.74738 0.0
O83 O 0.02361 0.83226 0.96538 0.0
C84 C 0.99516 0.83305 0.75064 0.0
O85 O 0.99166 0.85929 0.73798 0.0
N86 N 0.01817 0.8904 0.93305 0.0
C87 C 0.02082 0.94432 0.98357 0.0
C88 C 0.01606 0.92272 0.03345 0.0
C89 C 0.01432 0.89578 1.0067 0.0
C90 C 0.02191 0.91142 0.88405 0.0
C91 C 0.02375 0.93843 0.90817 0.0
H92 H 0.00908 0.87956 0.04465 0.0
H93 H 0.02334 0.90708 0.82528 0.0
H94 H 0.9771 0.83511 1.01236 0.0
H95 H 0.91774 0.88827 0.92792 0.0
H96 H 0.11354 0.88104 0.84445 0.0
H97 H 0.01298 0.92676 0.09196 0.0
H98 H 0.02687 0.95469 0.86806 0.0
C99 C 0.39375 0.70215 0.12317 0.0
C100 C 0.3934 0.67965 0.16959 0.0
N101 N 0.40571 0.68689 0.23327 0.0
N102 N 0.40613 0.72326 0.15808 0.0
C103 C 0.4133 0.71313 0.22479 0.0
H104 H 0.38365 0.70363 0.06999 0.0
Co105 Co 0.40528 0.75972 0.12917 0.0
C106 C 0.42631 0.78621 0.27418 0.0
O107 O 0.40163 0.79509 0.28919 0.0
N108 N 0.40402 0.79694 0.10058 0.0
C109 C 0.39225 0.841 0.09131 0.0
C110 C 0.39032 0.81775 0.13384 0.0
C111 C 0.41462 0.80849 0.03893 0.0
N112 N 0.40752 0.8349 0.03187 0.0
O113 O 0.43751 0.75294 0.06386 0.0
H114 H 0.37803 0.81601 0.18342 0.0
H115 H 0.42656 0.79779 0.99819 0.0
O116 O 0.43008 0.77155 0.21544 0.0
C117 C 0.43069 0.74355 0.99949 0.0
O118 O 0.40447 0.74212 0.98384 0.0
N119 N 0.37119 0.76337 0.18013 0.0
C120 C 0.31598 0.76312 0.22283 0.0
C121 C 0.33657 0.75654 0.27402 0.0
C122 C 0.36409 0.75618 0.25109 0.0
C123 C 0.35107 0.76867 0.12947 0.0
C124 C 0.3235 0.76916 0.14982 0.0
H125 H 0.37944 0.74967 0.29025 0.0
H126 H 0.35648 0.7722 0.07199 0.0
H127 H 0.42122 0.72532 0.2697 0.0
H128 H 0.38329 0.66028 0.15964 0.0
H129 H 0.38196 0.86029 0.10072 0.0
H130 H 0.33134 0.75106 0.33057 0.0
H131 H 0.3081 0.77367 0.10839 0.0
C132 C 0.56472 0.88474 0.62825 0.0
C133 C 0.58725 0.88403 0.58237 0.0
N134 N 0.5857 0.86102 0.54176 0.0
N135 N 0.54899 0.86249 0.61546 0.0
C136 C 0.56337 0.84759 0.56638 0.0
H137 H 0.55898 0.90161 0.6637 0.0
Co138 Co 0.51316 0.85847 0.64858 0.0
C139 C 0.50492 0.8314 0.48706 0.0
O140 O 0.5254 0.84274 0.45123 0.0
N141 N 0.47751 0.85521 0.68418 0.0
C142 C 0.43362 0.84592 0.70178 0.0
C143 C 0.45578 0.84168 0.65649 0.0
C144 C 0.46806 0.86709 0.74651 0.0
N145 N 0.441 0.86272 0.75795 0.0
O146 O 0.52413 0.82547 0.70516 0.0
H147 H 0.45591 0.82866 0.60811 0.0
H148 H 0.48144 0.87748 0.78458 0.0
O149 O 0.50092 0.83677 0.55654 0.0
C150 C 0.53187 0.83305 0.77031 0.0
O151 O 0.53023 0.85922 0.78621 0.0
N152 N 0.5041 0.89287 0.60466 0.0
C153 C 0.49935 0.94796 0.56297 0.0
C154 C 0.50005 0.92728 0.50922 0.0
C155 C 0.50254 0.89983 0.53122 0.0
C156 C 0.50323 0.91299 0.65722 0.0
C157 C 0.50061 0.94054 0.63777 0.0
H158 H 0.50427 0.88474 0.48864 0.0
H159 H 0.50626 0.90784 0.71488 0.0
H160 H 0.55671 0.82809 0.54476 0.0
H161 H 0.60164 0.90055 0.57301 0.0
H162 H 0.41417 0.83565 0.69554 0.0
H163 H 0.49953 0.93239 0.45071 0.0
H164 H 0.50068 0.95603 0.68072 0.0
C165 C 0.39244 0.31631 0.89761 0.0
C166 C 0.39089 0.33827 0.84955 0.0
N167 N 0.40512 0.33182 0.78813 0.0
N168 N 0.40734 0.29625 0.86577 0.0
C169 C 0.41506 0.30655 0.79963 0.0
H170 H 0.38102 0.31401 0.94871 0.0
Co171 Co 0.40651 0.2598 0.8934 0.0
C172 C 0.43004 0.23073 0.75674 0.0
O173 O 0.40889 0.21427 0.75396 0.0
N174 N 0.40463 0.22251 0.92137 0.0
C175 C 0.38879 0.18015 0.9414 0.0
C176 C 0.38725 0.20278 0.89661 0.0
C177 C 0.41704 0.21075 0.97987 0.0
N178 N 0.40739 0.18551 0.99381 0.0
O179 O 0.43847 0.26635 0.95926 0.0
H180 H 0.37268 0.20499 0.85199 0.0
H181 H 0.4315 0.2209 1.01552 0.0
O182 O 0.43136 0.24931 0.80734 0.0
C183 C 0.43191 0.27531 0.02421 0.0
O184 O 0.40575 0.27711 0.0405 0.0
N185 N 0.37341 0.25621 0.84067 0.0
C186 C 0.31909 0.25377 0.79331 0.0
C187 C 0.34055 0.25535 0.74146 0.0
C188 C 0.36775 0.25704 0.76648 0.0
C189 C 0.35258 0.2557 0.89124 0.0
C190 C 0.32535 0.25412 0.86887 0.0
H191 H 0.38394 0.25968 0.72649 0.0
H192 H 0.35732 0.25627 0.94988 0.0
H193 H 0.42521 0.29488 0.7569 0.0
H194 H 0.37836 0.35634 0.85615 0.0
H195 H 0.37567 0.16229 0.93978 0.0
H196 H 0.33625 0.2558 0.68252 0.0
H197 H 0.30927 0.25336 0.9103 0.0
C198 C 0.95879 0.11977 0.12593 0.0
C199 C 0.93623 0.1202 0.08029 0.0
N200 N 0.93622 0.14425 0.04395 0.0
N201 N 0.9731 0.14324 0.11713 0.0
C202 C 0.95758 0.1585 0.07144 0.0
H203 H 0.96571 0.10233 0.15762 0.0
Co204 Co 0.0093 0.14813 0.148 0.0
C205 C 0.01505 0.17643 0.98649 0.0
O206 O 0.99259 0.1673 0.95538 0.0
N207 N 0.04503 0.15207 0.18063 0.0
C208 C 0.08951 0.15931 0.19342 0.0
C209 C 0.06757 0.16176 0.14637 0.0
C210 C 0.05382 0.14374 0.24748 0.0
N211 N 0.08109 0.14709 0.25695 0.0
O212 O 0.99828 0.18078 0.20564 0.0
H213 H 0.06828 0.17057 0.09136 0.0
H214 H 0.03991 0.13624 0.28929 0.0
O215 O 0.02048 0.17 0.05465 0.0
C216 C 0.99003 0.17374 0.27105 0.0
O217 O 0.98938 0.14756 0.28747 0.0
N218 N 0.01887 0.11432 0.10412 0.0
C219 C 0.02353 0.05951 0.06214 0.0
C220 C 0.02077 0.08009 1.00841 0.0
C221 C 0.0185 0.1075 0.03071 0.0
C222 C 0.02222 0.09441 0.15661 0.0
C223 C 0.02482 0.06695 0.13686 0.0
H224 H 0.01483 0.12271 0.98933 0.0
H225 H 0.02113 0.09963 0.21475 0.0
H226 H 0.96294 0.17896 0.0538 0.0
H227 H 0.92299 0.10303 0.06784 0.0
H228 H 0.10959 0.16747 0.18188 0.0
H229 H 0.01935 0.07492 0.95009 0.0
H230 H 0.02652 0.0515 0.1798 0.0
C231 C 0.13497 0.69722 0.38865 0.0
C232 C 0.13632 0.67503 0.34151 0.0
N233 N 0.11783 0.67896 0.28738 0.0
N234 N 0.11576 0.7148 0.3637 0.0
C235 C 0.10547 0.70285 0.30243 0.0
H236 H 0.1485 0.70132 0.43478 0.0
Co237 Co 0.11163 0.75058 0.39536 0.0
C238 C 0.09071 0.77697 0.25173 0.0
O239 O 0.11146 0.79408 0.25281 0.0
N240 N 0.10784 0.78665 0.4293 0.0
C241 C 0.09573 0.82956 0.45146 0.0
C242 C 0.09171 0.80734 0.40666 0.0
C243 C 0.12031 0.79659 0.49026 0.0
N244 N 0.11451 0.82319 0.50358 0.0
O245 O 0.07958 0.73959 0.45567 0.0
H246 H 0.07648 0.8063 0.36386 0.0
H247 H 0.13157 0.7836 0.52745 0.0
O248 O 0.088 0.75936 0.30468 0.0
C249 C 0.08721 0.73265 0.52138 0.0
O250 O 0.11342 0.73419 0.53699 0.0
N251 N 0.14545 0.75929 0.34669 0.0
C252 C 0.19999 0.76237 0.29788 0.0
C253 C 0.17893 0.75559 0.24837 0.0
C254 C 0.15185 0.75362 0.27432 0.0
C255 C 0.16613 0.76499 0.39532 0.0
C256 C 0.19329 0.76725 0.37197 0.0
H257 H 0.13639 0.74607 0.23722 0.0
H258 H 0.16216 0.76574 0.45392 0.0
H259 H 0.09092 0.71233 0.26538 0.0
H260 H 0.15107 0.65855 0.34333 0.0
H261 H 0.08366 0.84804 0.44904 0.0
H262 H 0.18355 0.7507 0.19108 0.0
H263 H 0.20916 0.77143 0.41236 0.0
C264 C 0.90087 0.81657 0.38855 0.0
C265 C 0.9014 0.83847 0.33992 0.0
N266 N 0.91275 0.82977 0.27619 0.0
N267 N 0.91173 0.79442 0.35492 0.0
C268 C 0.91882 0.80328 0.28673 0.0
H269 H 0.89148 0.81636 0.44294 0.0
Co270 Co 0.90996 0.75853 0.38851 0.0
C271 C 0.93043 0.73099 0.24253 0.0
O272 O 0.90584 0.72237 0.22535 0.0
N273 N 0.90746 0.72229 0.42221 0.0
C274 C 0.8976 0.6779 0.43617 0.0
C275 C 0.89804 0.69956 0.38738 0.0
C276 C 0.91158 0.71399 0.49228 0.0
N277 N 0.90655 0.68723 0.50169 0.0
O278 O 0.94348 0.76525 0.45091 0.0
H279 H 0.89026 0.69879 0.33167 0.0
H280 H 0.91639 0.72747 0.53695 0.0
O281 O 0.93402 0.74506 0.30235 0.0
C282 C 0.93925 0.77547 0.51604 0.0
O283 O 0.91381 0.77941 0.53702 0.0
N284 N 0.87549 0.75441 0.33968 0.0
C285 C 0.82014 0.75325 0.29861 0.0
C286 C 0.84047 0.76007 0.24661 0.0
C287 C 0.86807 0.76098 0.26861 0.0
C288 C 0.85558 0.7488 0.391 0.0
C289 C 0.82798 0.7476 0.37148 0.0
H290 H 0.88319 0.76739 0.22857 0.0
H291 H 0.86108 0.74575 0.44853 0.0
H292 H 0.92576 0.79017 0.24262 0.0
H293 H 0.89286 0.8586 0.34901 0.0
H294 H 0.89101 0.65715 0.42501 0.0
H295 H 0.83499 0.76521 0.19005 0.0
H296 H 0.81278 0.74292 0.4135 0.0
C297 C 0.63023 0.19816 0.88513 0.0
C298 C 0.63 0.17642 0.83664 0.0
N299 N 0.61293 0.18276 0.78085 0.0
N300 N 0.61334 0.21789 0.85973 0.0
C301 C 0.60291 0.20776 0.79623 0.0
H302 H 0.64346 0.20039 0.93281 0.0
Co303 Co 0.6131 0.2532 0.89678 0.0
C304 C 0.59564 0.28221 0.75061 0.0
O305 O 0.62141 0.28702 0.73561 0.0
N306 N 0.61333 0.28906 0.93445 0.0
C307 C 0.62331 0.33331 0.95011 0.0
C308 C 0.62459 0.31153 0.90225 0.0
C309 C 0.60504 0.29793 1.00158 0.0
N310 N 0.6109 0.3245 1.01202 0.0
O311 O 0.58 0.24358 0.95699 0.0
H312 H 0.63499 0.3118 0.8495 0.0
H313 H 0.59575 0.28528 0.04377 0.0
O314 O 0.5896 0.26816 0.80945 0.0
C315 C 0.58802 0.23349 0.01952 0.0
O316 O 0.61445 0.23411 0.03317 0.0
N317 N 0.64821 0.25908 0.85111 0.0
C318 C 0.70356 0.26118 0.81019 0.0
C319 C 0.68384 0.25137 0.76057 0.0
C320 C 0.65636 0.24986 0.78281 0.0
C321 C 0.66772 0.26702 0.90116 0.0
C322 C 0.69531 0.26893 0.88133 0.0
H323 H 0.64161 0.24138 0.74476 0.0
H324 H 0.66201 0.27142 0.95791 0.0
H325 H 0.59032 0.21932 0.75828 0.0
H326 H 0.64277 0.15838 0.83909 0.0
H327 H 0.63154 0.35364 0.94142 0.0
H328 H 0.68972 0.2444 0.70579 0.0
H329 H 0.7102 0.27563 0.92195 0.0
C330 C 0.6345 0.81384 0.15033 0.0
C331 C 0.63468 0.835 0.20092 0.0
N332 N 0.61678 0.82863 0.25499 0.0
N333 N 0.61657 0.79449 0.1731 0.0
C334 C 0.6058 0.80437 0.23648 0.0
H335 H 0.64812 0.81163 0.10335 0.0
Co336 Co 0.61513 0.75908 0.13731 0.0
C337 C 0.59311 0.73018 0.27774 0.0
O338 O 0.61598 0.71673 0.28725 0.0
N339 N 0.61428 0.72284 0.10111 0.0
C340 C 0.62393 0.67871 0.0813 0.0
C341 C 0.62669 0.70028 0.12944 0.0
C342 C 0.60399 0.71416 0.0359 0.0
N343 N 0.60962 0.68775 0.02299 0.0
O344 O 0.58293 0.76949 0.07552 0.0
H345 H 0.63898 0.6997 0.17904 0.0
H346 H 0.59373 0.72689 0.99596 0.0
O347 O 0.59065 0.74703 0.22301 0.0
C348 C 0.59097 0.7788 1.01215 0.0
O349 O 0.61732 0.77746 0.99749 0.0
N350 N 0.64876 0.7521 0.18646 0.0
C351 C 0.70368 0.75108 0.23046 0.0
C352 C 0.68288 0.75672 0.2821 0.0
C353 C 0.65546 0.75758 0.25863 0.0
C354 C 0.66899 0.74717 0.13579 0.0
C355 C 0.69644 0.74609 0.15675 0.0
H356 H 0.63989 0.76375 0.29765 0.0
H357 H 0.66382 0.74486 0.07776 0.0
H358 H 0.5918 0.79327 0.27195 0.0
H359 H 0.64815 0.85262 0.20091 0.0
H360 H 0.63279 0.65853 0.08663 0.0
H361 H 0.6879 0.76136 0.33926 0.0
H362 H 0.712 0.74227 0.11515 0.0
C363 C 0.87752 0.19698 0.66974 0.0
C364 C 0.87747 0.17597 0.72069 0.0
N365 N 0.90112 0.17722 0.75847 0.0
N366 N 0.9008 0.21175 0.67707 0.0
C367 C 0.91548 0.19794 0.72798 0.0
H368 H 0.86058 0.20238 0.63426 0.0
Co369 Co 0.90659 0.24706 0.64009 0.0
C370 C 0.93469 0.25616 0.79888 0.0
O371 O 0.92141 0.23766 0.83763 0.0
N372 N 0.91218 0.2824 0.60311 0.0
C373 C 0.93166 0.32173 0.57254 0.0
C374 C 0.9343 0.29836 0.61386 0.0
C375 C 0.89649 0.29655 0.55502 0.0
N376 N 0.90772 0.32083 0.53503 0.0
O377 O 0.93818 0.23312 0.58064 0.0
H378 H 0.95213 0.29271 0.64581 0.0
H379 H 0.87844 0.28786 0.53083 0.0
O380 O 0.92979 0.25904 0.72891 0.0
C381 C 0.93366 0.23317 0.50997 0.0
O382 O 0.91195 0.24635 0.48657 0.0
N383 N 0.87336 0.25852 0.68566 0.0
C384 C 0.81878 0.26408 0.73025 0.0
C385 C 0.84006 0.26698 0.78167 0.0
C386 C 0.86731 0.26413 0.75822 0.0
C387 C 0.85266 0.25645 0.6351 0.0
C388 C 0.82531 0.25933 0.65596 0.0
H389 H 0.88292 0.26545 0.79949 0.0
H390 H 0.85732 0.25056 0.57867 0.0
H391 H 0.93557 0.20409 0.74667 0.0
H392 H 0.86044 0.16261 0.73394 0.0
H393 H 0.94757 0.33695 0.56543 0.0
H394 H 0.83559 0.27047 0.83981 0.0
H395 H 0.80933 0.25656 0.61501 0.0
C396 C 0.07129 0.63152 0.89771 0.0
C397 C 0.09287 0.63135 0.94695 0.0
N398 N 0.08628 0.64793 1.00364 0.0
N399 N 0.05141 0.64806 0.92394 0.0
C400 C 0.0613 0.65789 0.98839 0.0
H401 H 0.06926 0.61873 0.84909 0.0
Co402 Co 0.01591 0.64913 0.88896 0.0
C403 C 0.98962 0.69198 0.98691 0.0
O404 O 0.98233 0.70624 0.92836 0.0
N405 N 0.97948 0.64935 0.85398 0.0
C406 C 0.9358 0.6374 0.8359 0.0
C407 C 0.95784 0.63544 0.88274 0.0
C408 C 0.96964 0.66013 0.79047 0.0
N409 N 0.94344 0.65298 0.77826 0.0
O410 O 0.02555 0.68201 0.82983 0.0
H411 H 0.95827 0.6229 0.93205 0.0
H412 H 0.98154 0.67168 0.75088 0.0
O413 O 1.00353 0.67001 0.97807 0.0
C414 C 0.03394 0.67392 0.76567 0.0
O415 O 0.03121 0.64774 0.75058 0.0
N416 N 0.00956 0.61557 0.93659 0.0
C417 C 1.00536 0.56169 0.98614 0.0
C418 C 1.00528 0.58346 0.03702 0.0
C419 C 0.00784 0.61044 1.01105 0.0
C420 C 0.00972 0.59459 0.88684 0.0
C421 C 0.00761 0.5675 0.91037 0.0
H422 H 0.00899 0.62697 0.05065 0.0
H423 H 0.01186 0.59904 0.82826 0.0
H424 H 0.04978 0.67038 0.02678 0.0
H425 H 0.11101 0.61872 0.94412 0.0
H426 H 0.91633 0.62697 0.84129 0.0
H427 H 1.00394 0.57953 0.0961 0.0
H428 H 0.00793 0.55117 0.8698 0.0
C429 C 0.44352 0.36783 0.3863 0.0
C430 C 0.42141 0.3674 0.43398 0.0
N431 N 0.42961 0.35567 0.49763 0.0
N432 N 0.46536 0.35651 0.4204 0.0
C433 C 0.45608 0.34909 0.4879 0.0
H434 H 0.44425 0.37796 0.33297 0.0
Co435 Co 0.5013 0.36006 0.38932 0.0
C436 C 0.53175 0.34418 0.53153 0.0
O437 O 0.53842 0.36998 0.5392 0.0
N438 N 0.53813 0.36419 0.35819 0.0
C439 C 0.58031 0.38062 0.33844 0.0
C440 C 0.55761 0.38176 0.38338 0.0
C441 C 0.55022 0.35184 0.30007 0.0
N442 N 0.57533 0.36182 0.28623 0.0
O443 O 0.49664 0.32675 0.32716 0.0
H444 H 0.55518 0.39597 0.42869 0.0
H445 H 0.54069 0.33658 0.26578 0.0
O446 O 0.51599 0.33736 0.47711 0.0
C447 C 0.48681 0.33262 0.26256 0.0
O448 O 0.48336 0.35859 0.24626 0.0
N449 N 0.5024 0.39498 0.43645 0.0
C450 C 0.5005 0.45049 0.47433 0.0
C451 C 0.49541 0.43024 0.52797 0.0
C452 C 0.49576 0.40249 0.5074 0.0
C453 C 0.50531 0.41472 0.38315 0.0
C454 C 0.50513 0.44247 0.40107 0.0
H455 H 0.49081 0.38719 0.54859 0.0
H456 H 0.50812 0.40879 0.3258 0.0
H457 H 0.46897 0.34163 0.53212 0.0
H458 H 0.40164 0.37678 0.42495 0.0
H459 H 0.59817 0.39373 0.34074 0.0
H460 H 0.4909 0.43585 0.58481 0.0
H461 H 0.50833 0.45759 0.35786 0.0
C462 C 0.06437 0.37521 0.14069 0.0
C463 C 0.0861 0.37559 0.09167 0.0
N464 N 0.07982 0.35892 0.03493 0.0
N465 N 0.04466 0.35842 0.11446 0.0
C466 C 0.05482 0.34874 0.05004 0.0
H467 H 0.06212 0.38804 0.18915 0.0
Co468 Co 0.00906 0.35675 0.15096 0.0
C469 C 0.98215 0.33538 1.00539 0.0
O470 O 0.97486 0.36021 0.98667 0.0
N471 N 0.97275 0.3554 0.1875 0.0
C472 C 0.92787 0.36328 0.19794 0.0
C473 C 0.9502 0.36481 0.15192 0.0
C474 C 0.9633 0.34795 0.25509 0.0
N475 N 0.93628 0.35259 0.26242 0.0
O476 O 0.01992 0.32497 0.21334 0.0
H477 H 0.95011 0.3742 0.09783 0.0
H478 H 0.97586 0.34034 0.29978 0.0
O479 O 0.9961 0.33175 0.0656 0.0
C480 C 0.02852 0.33379 0.27661 0.0
O481 O 0.02521 0.36 0.29036 0.0
N482 N 1.00178 0.39079 0.1027 0.0
C483 C 1.00077 0.44619 0.0625 0.0
C484 C 0.009 0.42624 1.01139 0.0
C485 C 0.0101 0.39871 0.0333 0.0
C486 C 0.99431 0.41032 0.15313 0.0
C487 C 0.99328 0.43798 0.13398 0.0
H488 H 0.01838 0.38397 0.99495 0.0
H489 H 0.99025 0.40459 0.21009 0.0
H490 H 0.04327 0.33674 1.01093 0.0
H491 H 0.10416 0.3884 0.09475 0.0
H492 H 0.9074 0.37058 0.18649 0.0
H493 H 0.01569 0.43205 0.95622 0.0
H494 H 0.98758 0.45296 0.17544 0.0
C495 C 0.44292 0.64391 0.63258 0.0
C496 C 0.42164 0.64403 0.58232 0.0
N497 N 0.42978 0.6585 0.5227 0.0
N498 N 0.46428 0.65801 0.60395 0.0
C499 C 0.45543 0.66692 0.53742 0.0
H500 H 0.44375 0.63205 0.68324 0.0
Co501 Co 0.50007 0.65525 0.63673 0.0
C502 C 0.53321 0.67581 0.50288 0.0
O503 O 0.54846 0.6538 0.504 0.0
N504 N 0.53661 0.65148 0.67012 0.0
C505 C 0.57763 0.63375 0.69678 0.0
C506 C 0.55559 0.63259 0.64987 0.0
C507 C 0.5483 0.66437 0.72808 0.0
N508 N 0.5727 0.65363 0.74593 0.0
O509 O 0.49437 0.68807 0.70009 0.0
H510 H 0.55326 0.61754 0.60649 0.0
H511 H 0.53874 0.68032 0.76 0.0
O512 O 0.51378 0.67865 0.55074 0.0
C513 C 0.48409 0.68249 0.76439 0.0
O514 O 0.48005 0.65663 0.78122 0.0
N515 N 0.50253 0.62154 0.58624 0.0
C516 C 0.50173 0.56684 0.54142 0.0
C517 C 0.50234 0.58801 0.48857 0.0
C518 C 0.50236 0.61543 0.51227 0.0
C519 C 0.50085 0.60106 0.63767 0.0
C520 C 0.50084 0.57364 0.61662 0.0
H521 H 0.50149 0.63149 0.4714 0.0
H522 H 0.49973 0.60621 0.696 0.0
H523 H 0.46819 0.67714 0.49702 0.0
H524 H 0.40269 0.63261 0.58642 0.0
H525 H 0.59484 0.61985 0.69834 0.0
H526 H 0.50235 0.58337 0.42981 0.0
H527 H 0.49991 0.55783 0.65877 0.0
C528 C 0.4747 0.02104 0.52713 0.0
C529 C 0.49961 0.03412 0.50689 0.0
C530 C 0.52448 0.991 0.52654 0.0
C531 C 0.49929 0.97749 0.54154 0.0
N532 N 0.45007 0.97839 0.54735 0.0
N533 N 0.54761 0.03104 0.47677 0.0
C534 C 0.47427 0.99219 0.53936 0.0
C535 C 0.52437 0.01896 0.50384 0.0
N536 N 0.4516 0.0364 0.53663 0.0
N537 N 0.5486 0.97725 0.53581 0.0
H538 H 0.54851 0.05154 0.4607 0.0
H539 H 0.5655 0.02037 0.4649 0.0
H540 H 0.54954 0.95658 0.55013 0.0
H541 H 0.56771 0.98669 0.5345 0.0
H542 H 0.43344 0.02877 0.55879 0.0
H543 H 0.45116 0.05749 0.52763 0.0
H544 H 0.43099 0.9872 0.53847 0.0
H545 H 0.44907 0.95739 0.5576 0.0
C546 C 0.27542 0.27682 0.75342 0.0
C547 C 0.28984 0.25238 0.77005 0.0
C548 C 0.24696 0.2261 0.76286 0.0
C549 C 0.23284 0.25025 0.74192 0.0
N550 N 0.23397 0.29778 0.7059 0.0
N551 N 0.29063 0.20325 0.77998 0.0
C552 C 0.24719 0.2754 0.73397 0.0
C553 C 0.27594 0.22685 0.77161 0.0
N554 N 0.28852 0.3015 0.75867 0.0
N555 N 0.23249 0.20263 0.77645 0.0
H556 H 0.31183 0.20311 0.78697 0.0
H557 H 0.28228 0.18378 0.77405 0.0
H558 H 0.21131 0.20131 0.7699 0.0
H559 H 0.24101 0.18509 0.79956 0.0
H560 H 0.2785 0.32025 0.75603 0.0
H561 H 0.30931 0.30333 0.77081 0.0
H562 H 0.24391 0.31579 0.69067 0.0
H563 H 0.2132 0.29774 0.69255 0.0
C564 C 0.0477 0.01559 0.03022 0.0
C565 C 0.02285 0.02999 0.04151 0.0
C566 C 0.99656 0.98813 1.01564 0.0
C567 C 0.02144 0.97338 1.00847 0.0
N568 N 0.07054 0.97166 0.01852 0.0
N569 N 0.97373 0.02975 0.05499 0.0
C570 C 0.04699 0.98675 0.01854 0.0
C571 C 0.99729 0.01617 0.03709 0.0
N572 N 0.07191 0.02968 0.02899 0.0
N573 N 0.97227 0.97551 0.99947 0.0
H574 H 0.97327 0.05051 0.06827 0.0
H575 H 0.95484 0.02017 0.06156 0.0
H576 H 0.97081 0.95483 0.98577 0.0
H577 H 0.95373 0.98581 0.99481 0.0
H578 H 0.0905 0.02109 1.01325 0.0
H579 H 0.07317 0.05068 0.03872 0.0
H580 H 0.08962 0.97947 0.03293 0.0
H581 H 0.07072 0.95057 1.00953 0.0
C582 C 0.27208 0.73746 0.24897 0.0
C583 C 0.28636 0.76275 0.24383 0.0
C584 C 0.24323 0.78761 0.26368 0.0
C585 C 0.22939 0.76237 0.27483 0.0
N586 N 0.23109 0.71331 0.28856 0.0
N587 N 0.28664 0.81181 0.25625 0.0
C588 C 0.24394 0.73728 0.27022 0.0
C589 C 0.27221 0.78782 0.25388 0.0
N590 N 0.2852 0.71365 0.23126 0.0
N591 N 0.22851 0.81135 0.26069 0.0
H592 H 0.30782 0.81273 0.24915 0.0
H593 H 0.27808 0.8305 0.27119 0.0
H594 H 0.20733 0.81191 0.26799 0.0
H595 H 0.23681 0.83012 0.24502 0.0
H596 H 0.27523 0.69494 0.22551 0.0
H597 H 0.30586 0.71287 0.21673 0.0
H598 H 0.24128 0.69478 0.29491 0.0
H599 H 0.21041 0.71221 0.30284 0.0
C600 C 0.77694 0.72752 0.26725 0.0
C601 C 0.79045 0.75291 0.2787 0.0
C602 C 0.74714 0.77727 0.25728 0.0
C603 C 0.73327 0.75179 0.25134 0.0
N604 N 0.73389 0.70265 0.26102 0.0
N605 N 0.78805 0.80177 0.29544 0.0
C606 C 0.74791 0.72689 0.25924 0.0
C607 C 0.77544 0.77776 0.27666 0.0
N608 N 0.79203 0.70406 0.26211 0.0
N609 N 0.73348 0.801 0.24193 0.0
H610 H 0.80882 0.80308 0.30826 0.0
H611 H 0.77761 0.82007 0.30361 0.0
H612 H 0.71269 0.80158 0.22896 0.0
H613 H 0.74308 0.81994 0.23668 0.0
H614 H 0.78391 0.68528 0.24602 0.0
H615 H 0.81326 0.70376 0.26811 0.0
H616 H 0.74284 0.68398 0.27435 0.0
H617 H 0.71268 0.70146 0.25512 0.0
C618 C 0.77726 0.23848 0.77536 0.0
C619 C 0.78958 0.26369 0.75426 0.0
C620 C 0.7451 0.2868 0.76456 0.0
C621 C 0.73312 0.26194 0.78966 0.0
N622 N 0.73806 0.21507 0.82912 0.0
N623 N 0.78665 0.31247 0.73777 0.0
C624 C 0.7493 0.23802 0.79787 0.0
C625 C 0.77388 0.28806 0.75151 0.0
N626 N 0.79217 0.21484 0.77196 0.0
N627 N 0.72877 0.30896 0.75132 0.0
H628 H 0.80757 0.314 0.7267 0.0
H629 H 0.7771 0.33139 0.74256 0.0
H630 H 0.70773 0.30886 0.76134 0.0
H631 H 0.73556 0.3268 0.72556 0.0
H632 H 0.78368 0.19541 0.77775 0.0
H633 H 0.81294 0.21443 0.75855 0.0
H634 H 0.74938 0.198 0.84468 0.0
H635 H 0.71751 0.21371 0.84453 0.0
C636 C 0.02775 0.51904 0.03542 0.0
C637 C 1.0037 0.5326 1.01094 0.0
C638 C 0.9774 0.48983 0.02375 0.0
C639 C 1.00181 0.4759 0.04355 0.0
N640 N 0.05056 0.47614 0.064 0.0
N641 N 0.95603 0.53129 0.97702 0.0
C642 C 0.02709 0.49025 0.04838 0.0
C643 C 0.9786 0.51808 1.00402 0.0
N644 N 0.05116 0.53385 0.04698 0.0
N645 N 0.953 0.47604 0.02502 0.0
H646 H 0.95568 0.55227 0.96633 0.0
H647 H 0.938 0.52146 0.96179 0.0
H648 H 0.95152 0.4551 0.0356 0.0
H649 H 0.93401 0.4854 0.01964 0.0
H650 H 0.06858 0.52612 0.07259 0.0
H651 H 0.0528 0.55466 0.03501 0.0
H652 H 0.07013 0.48445 0.06004 0.0
H653 H 0.05077 0.45536 0.07721 0.0
C654 C 0.52574 0.49356 0.5089 0.0
C655 C 0.50055 0.48021 0.49335 0.0
C656 C 0.47603 0.5238 0.50814 0.0
C657 C 0.5014 0.5374 0.51952 0.0
N658 N 0.55066 0.53642 0.52147 0.0
N659 N 0.45214 0.48261 0.46897 0.0
C660 C 0.52635 0.52258 0.51719 0.0
C661 C 0.47579 0.49535 0.49045 0.0
N662 N 0.54898 0.47832 0.5175 0.0
N663 N 0.45211 0.53799 0.51627 0.0
H664 H 0.45099 0.46167 0.45822 0.0
H665 H 0.43405 0.49293 0.45723 0.0
H666 H 0.4515 0.559 0.52622 0.0
H667 H 0.43288 0.52882 0.5176 0.0
H668 H 0.56746 0.48622 0.5366 0.0
H669 H 0.54935 0.45713 0.5107 0.0
H670 H 0.56966 0.52743 0.51243 0.0
H671 H 0.55182 0.55757 0.52861 0.0
C672 C 0.40649 0.17702 0.19776 0.0
C673 C 0.42611 0.15627 0.20525 0.0
C674 C 0.42834 0.15013 0.07125 0.0
C675 C 0.40983 0.17205 0.06371 0.0
N676 N 0.37544 0.20141 0.11604 0.0
N677 N 0.45007 0.11776 0.15475 0.0
C678 C 0.3967 0.1837 0.12618 0.0
C679 C 0.43507 0.14091 0.14344 0.0
N680 N 0.39958 0.19135 0.25974 0.0
N681 N 0.44042 0.13937 1.00951 0.0
H682 H 0.45452 0.11063 0.20805 0.0
H683 H 0.45593 0.10453 0.11242 0.0
H684 H 0.43523 0.14572 0.95602 0.0
H685 H 0.45627 0.12518 1.01127 0.0
H686 H 0.3871 0.20862 0.26018 0.0
H687 H 0.3871 0.20862 0.26018 0.0
H688 H 0.36342 0.20898 0.15904 0.0
H689 H 0.36826 0.20664 0.06341 0.0
C690 C 0.08178 0.13475 0.39026 0.0
C691 C 0.09573 0.14438 0.32672 0.0
C692 C 0.12656 0.17054 0.40534 0.0
C693 C 0.10741 0.16753 0.46394 0.0
N694 N 0.06735 0.14548 0.51505 0.0
N695 N 0.14139 0.15374 0.28511 0.0
C696 C 0.08553 0.14866 0.4581 0.0
C697 C 0.12139 0.15712 0.33703 0.0
N698 N 0.06628 0.11161 0.38584 0.0
N699 N 0.14915 0.1866 0.41483 0.0
H700 H 0.13868 0.14036 0.24057 0.0
H701 H 0.1613 0.16103 0.2912 0.0
H702 H 0.15412 0.19527 0.46599 0.0
H703 H 0.1623 0.192 0.37162 0.0
H704 H 0.05712 0.10243 0.43187 0.0
H705 H 0.06544 0.10022 0.33683 0.0
H706 H 0.04945 0.13399 0.51014 0.0
H707 H 0.06912 0.15602 0.56511 0.0
C708 C 0.10839 0.86443 0.58151 0.0
C709 C 0.1206 0.83865 0.57034 0.0
C710 C 0.12204 0.83089 0.70344 0.0
C711 C 0.10295 0.85229 0.71175 0.0
N712 N 0.08074 0.89244 0.66302 0.0
N713 N 0.15607 0.8107 0.62242 0.0
C714 C 0.09747 0.87047 0.65234 0.0
C715 C 0.13292 0.82576 0.63202 0.0
N716 N 0.10875 0.88323 0.52561 0.0
N717 N 0.12852 0.81476 0.76264 0.0
H718 H 0.16579 0.80977 0.57076 0.0
H719 H 0.16709 0.80226 0.66627 0.0
H720 H 0.12091 0.81855 0.81582 0.0
H721 H 0.14023 0.79705 0.75785 0.0
H722 H 0.10181 0.90324 0.5316 0.0
H723 H 0.11891 0.87923 0.47571 0.0
H724 H 0.0736 0.90465 0.6198 0.0
H725 H 0.07311 0.89768 0.71521 0.0
C726 C 0.43263 0.86916 0.95863 0.0
C727 C 0.41045 0.85079 0.96573 0.0
C728 C 0.3992 0.85729 0.83526 0.0
C729 C 0.42552 0.86862 0.82506 0.0
N730 N 0.45472 0.90269 0.87929 0.0
N731 N 0.36985 0.83008 0.91488 0.0
C732 C 0.4386 0.88013 0.88765 0.0
C733 C 0.39243 0.84618 0.90552 0.0
N734 N 0.44868 0.87482 0.01853 0.0
N735 N 0.38045 0.85904 0.77959 0.0
H736 H 0.3641 0.82234 0.96664 0.0
H737 H 0.35765 0.82353 0.87096 0.0
H738 H 0.38481 0.86984 0.73085 0.0
H739 H 0.36015 0.85283 0.78522 0.0
H740 H 0.46689 0.88587 1.01471 0.0
H741 H 0.44423 0.86719 0.07137 0.0
H742 H 0.46341 0.91317 0.92376 0.0
H743 H 0.45639 0.91257 0.82799 0.0
C744 C 0.53452 0.79329 0.86416 0.0
C745 C 0.54716 0.81529 0.82498 0.0
C746 C 0.58328 0.81652 0.91994 0.0
C747 C 0.57287 0.79251 0.95472 0.0
N748 N 0.53954 0.75598 0.95306 0.0
N749 N 0.58777 0.84242 0.80616 0.0
C750 C 0.54867 0.78028 0.92503 0.0
C751 C 0.57287 0.82508 0.85005 0.0
N752 N 0.50866 0.78542 0.84517 0.0
N753 N 0.60244 0.83212 0.95547 0.0
H754 H 0.58132 0.8483 0.7533 0.0
H755 H 0.60776 0.8483 0.8186 0.0
H756 H 0.60919 0.82777 1.00908 0.0
H757 H 0.60896 0.85111 0.9357 0.0
H758 H 0.49706 0.7718 0.8767 0.0
H759 H 0.49823 0.79393 0.80024 0.0
H760 H 0.52405 0.74454 0.92836 0.0
H761 H 0.54858 0.74643 0.9985 0.0
C762 C 0.96977 0.79037 0.70432 0.0
C763 C 0.98698 0.81324 0.68987 0.0
C764 C 0.9785 0.807 0.5549 0.0
C765 C 0.96149 0.78408 0.56984 0.0
N766 N 0.95144 0.74792 0.65614 0.0
N767 N 0.01429 0.83743 0.59889 0.0
C768 C 0.96037 0.77395 0.64387 0.0
C769 C 0.99347 0.8196 0.61426 0.0
N770 N 0.96119 0.78478 0.77493 0.0
N771 N 0.97933 0.81777 0.48495 0.0
H772 H 0.02603 0.84662 0.64019 0.0
H773 H 0.02174 0.84083 0.54543 0.0
H774 H 0.96947 0.80871 0.43996 0.0
H775 H 0.98853 0.83648 0.47255 0.0
H776 H 0.94631 0.77009 0.78683 0.0
H777 H 0.96704 0.79622 0.82095 0.0
H778 H 0.95158 0.73858 0.70819 0.0
H779 H 0.94856 0.73444 0.61231 0.0
C780 C 0.95021 0.19988 0.32268 0.0
C781 C 0.97824 0.1931 0.3278 0.0
C782 C 0.97865 0.21281 0.45519 0.0
C783 C 0.94983 0.21714 0.45201 0.0
N784 N 0.90798 0.2027 0.39134 0.0
N785 N 0.01776 0.18767 0.40638 0.0
C786 C 0.93555 0.20742 0.38793 0.0
C787 C 0.99202 0.19785 0.39654 0.0
N788 N 0.93707 0.19805 0.25602 0.0
N789 N 0.99348 0.22337 0.51259 0.0
H790 H 0.02876 0.1784 0.36362 0.0
H791 H 0.02763 0.18733 0.45757 0.0
H792 H 0.98502 0.23559 0.55385 0.0
H793 H 0.01463 0.22172 0.51665 0.0
H794 H 0.91712 0.20499 0.24818 0.0
H795 H 0.94701 0.19221 0.2073 0.0
H796 H 0.89703 0.19366 0.34821 0.0
H797 H 0.89689 0.20382 0.44077 0.0
C798 C 0.53306 0.21692 0.17102 0.0
C799 C 0.54603 0.19424 0.20642 0.0
C800 C 0.58044 0.19416 0.10664 0.0
C801 C 0.57007 0.21886 0.07609 0.0
N802 N 0.53773 0.25586 0.08684 0.0
N803 N 0.58716 0.16742 0.21772 0.0
C804 C 0.54661 0.23088 0.1103 0.0
C805 C 0.57128 0.18486 0.17712 0.0
N806 N 0.50751 0.22459 0.19328 0.0
N807 N 0.59851 0.17874 0.06685 0.0
H808 H 0.58201 0.16139 0.27154 0.0
H809 H 0.60686 0.16177 0.20156 0.0
H810 H 0.60411 0.1837 1.01268 0.0
H811 H 0.60497 0.1594 0.08388 0.0
H812 H 0.49579 0.23888 0.16459 0.0
H813 H 0.49737 0.21527 0.23759 0.0
H814 H 0.52272 0.26699 0.11458 0.0
H815 H 0.54668 0.2662 0.04231 0.0
C816 C 0.90706 0.67454 0.70437 0.0
C817 C 0.92933 0.65627 0.70938 0.0
C818 C 0.93291 0.6539 0.57468 0.0
C819 C 0.91086 0.67253 0.56936 0.0
N820 N 0.87246 0.695 0.62539 0.0
N821 N 0.9578 0.62217 0.65271 0.0
C822 C 0.89629 0.6808 0.63339 0.0
C823 C 0.94022 0.64368 0.64531 0.0
N824 N 0.89747 0.68707 0.76686 0.0
N825 N 0.94823 0.64776 0.51346 0.0
H826 H 0.96314 0.61422 0.7045 0.0
H827 H 0.96479 0.61064 0.60797 0.0
H828 H 0.9439 0.65533 0.46073 0.0
H829 H 0.96647 0.63682 0.51592 0.0
H830 H 0.88316 0.70282 0.76604 0.0
H831 H 0.90517 0.68277 0.81956 0.0
H832 H 0.85968 0.70006 0.66959 0.0
H833 H 0.86435 0.69951 0.57319 0.0
C834 C 0.58189 0.65583 0.95045 0.0
C835 C 0.60441 0.67385 0.95492 0.0
C836 C 0.609 0.67471 0.82009 0.0
C837 C 0.58601 0.65732 0.81563 0.0
N838 N 0.55453 0.62588 0.87313 0.0
N839 N 0.64327 0.69586 0.89899 0.0
C840 C 0.57386 0.64593 0.88005 0.0
C841 C 0.61937 0.68164 0.89099 0.0
N842 N 0.56728 0.6497 1.01305 0.0
N843 N 0.61983 0.68555 0.75657 0.0
H844 H 0.65108 0.70099 0.95105 0.0
H845 H 0.65632 0.70067 0.85514 0.0
H846 H 0.61259 0.68026 0.70401 0.0
H847 H 0.63492 0.70059 0.7558 0.0
H848 H 0.54875 0.63915 1.01268 0.0
H849 H 0.57301 0.65664 0.06553 0.0
H850 H 0.54635 0.61513 0.91792 0.0
H851 H 0.54824 0.61844 0.82164 0.0
C852 C 0.58516 0.35866 0.08295 0.0
C853 C 0.60654 0.33931 0.07923 0.0
C854 C 0.6116 0.33978 0.21391 0.0
C855 C 0.58954 0.35829 0.21766 0.0
N856 N 0.56014 0.39106 0.15882 0.0
N857 N 0.64465 0.31647 0.13569 0.0
C858 C 0.57812 0.36983 0.15275 0.0
C859 C 0.6214 0.33166 0.14328 0.0
N860 N 0.57043 0.36475 0.02072 0.0
N861 N 0.62194 0.32898 0.27788 0.0
H862 H 0.65211 0.31059 0.08377 0.0
H863 H 0.65762 0.31167 0.17957 0.0
H864 H 0.61518 0.3352 0.33019 0.0
H865 H 0.63616 0.31316 0.27925 0.0
H866 H 0.55263 0.37642 0.02122 0.0
H867 H 0.57505 0.35661 0.96874 0.0
H868 H 0.55255 0.40188 0.11351 0.0
H869 H 0.55468 0.39938 0.21004 0.0
C870 C 0.88888 0.32547 0.40803 0.0
C871 C 0.90142 0.3375 0.47053 0.0
C872 C 0.92611 0.3688 0.38877 0.0
C873 C 0.92076 0.35047 0.3296 0.0
N874 N 0.89514 0.3125 0.27987 0.0
N875 N 0.91903 0.37926 0.51992 0.0
C876 C 0.9011 0.32943 0.33776 0.0
C877 C 0.91564 0.36241 0.4604 0.0
N878 N 0.86427 0.31265 0.41508 0.0
N879 N 0.94199 0.39135 0.37634 0.0
H880 H 0.91031 0.37442 0.57133 0.0
H881 H 0.92871 0.39822 0.5178 0.0
H882 H 0.94882 0.39666 0.32329 0.0
H883 H 0.94837 0.40474 0.41768 0.0
H884 H 0.85347 0.30481 0.36996 0.0
H885 H 0.85307 0.31389 0.46439 0.0
H886 H 0.88284 0.29517 0.28578 0.0
H887 H 0.90395 0.31489 0.22747 0.0
C888 C 0.03507 0.29003 0.35693 0.0
C889 C 0.04335 0.31683 0.3349 0.0
C890 C 0.07341 0.31843 0.445 0.0
C891 C 0.06811 0.2906 0.46164 0.0
N892 N 0.04773 0.24832 0.42154 0.0
N893 N 0.07814 0.35184 0.34735 0.0
C894 C 0.04993 0.27593 0.4144 0.0
C895 C 0.0647 0.32969 0.37611 0.0
N896 N 0.01255 0.27821 0.32569 0.0
N897 N 0.08695 0.33435 0.49524 0.0
H898 H 0.07462 0.35904 0.29377 0.0
H899 H 0.09527 0.36054 0.37247 0.0
H900 H 0.09277 0.327 0.54722 0.0
H901 H 0.08942 0.35541 0.48857 0.0
H902 H 1.00421 0.25987 0.34498 0.0
H903 H 1.00085 0.28783 0.28507 0.0
H904 H 0.03825 0.2363 0.38142 0.0
H905 H 0.05714 0.23754 0.46439 0.0
C906 C 0.44835 0.27538 0.15774 0.0
C907 C 0.45223 0.28426 0.08288 0.0
C908 C 0.48696 0.31691 0.12849 0.0
C909 C 0.47903 0.31186 0.20367 0.0
N910 N 0.45038 0.28656 0.28887 0.0
N911 N 0.47454 0.31551 0.99825 0.0
C912 C 0.45965 0.29076 0.21815 0.0
C913 C 0.47178 0.30518 0.06843 0.0
N914 N 0.43391 0.25194 0.17128 0.0
N915 N 0.50924 0.333 0.11417 0.0
H916 H 0.46413 0.30778 0.95248 0.0
H917 H 0.48567 0.33317 0.98619 0.0
H918 H 0.52062 0.34227 0.15591 0.0
H919 H 0.51802 0.33489 0.06167 0.0
H920 H 0.43291 0.24262 0.22326 0.0
H921 H 0.42527 0.24027 0.12905 0.0
H922 H 0.43371 0.27407 0.30151 0.0
H923 H 0.45801 0.29695 0.3348 0.0
C924 C 0.46991 0.71245 0.95683 0.0
C925 C 0.45062 0.73342 0.94098 0.0
C926 C 0.45712 0.72462 0.80621 0.0
C927 C 0.47638 0.70368 0.8221 0.0
N928 N 0.50663 0.6834 0.91228 0.0
N929 N 0.43221 0.76439 0.84931 0.0
C930 C 0.48456 0.69959 0.89736 0.0
C931 C 0.4464 0.74108 0.86522 0.0
N932 N 0.47293 0.7032 0.02797 0.0
N933 N 0.44737 0.72765 0.73561 0.0
H934 H 0.42379 0.77682 0.89017 0.0
H935 H 0.43115 0.77285 0.79627 0.0
H936 H 0.45449 0.71635 0.69063 0.0
H937 H 0.4307 0.73998 0.72245 0.0
H938 H 0.48387 0.68562 0.04149 0.0
H939 H 0.46293 0.71175 0.07334 0.0
H940 H 0.51565 0.68208 0.96452 0.0
H941 H 0.51763 0.67343 0.87088 0.0
C942 C 0.03765 0.71787 0.6847 0.0
C943 C 0.04764 0.69172 0.70721 0.0
C944 C 0.07675 0.69081 0.59538 0.0
C945 C 0.0693 0.71791 0.5767 0.0
N946 N 0.04516 0.75897 0.60962 0.0
N947 N 0.08412 0.65872 0.69488 0.0
C948 C 0.05041 0.732 0.62318 0.0
C949 C 0.06931 0.67979 0.66552 0.0
N950 N 0.01567 0.72896 0.72019 0.0
N951 N 0.09094 0.67531 0.5455 0.0
H952 H 0.0812 0.6517 0.74898 0.0
H953 H 0.10158 0.65083 0.66946 0.0
H954 H 0.09575 0.68242 0.49247 0.0
H955 H 0.09494 0.65458 0.55366 0.0
H956 H 0.00639 0.74697 0.70309 0.0
H957 H 1.0056 0.71939 0.76409 0.0
H958 H 0.03419 0.77143 0.64577 0.0
H959 H 0.05329 0.76926 0.56377 0.0
C960 C 0.47439 0.20808 0.71978 0.0
C961 C 0.45252 0.22588 0.7013 0.0
C962 C 0.46088 0.21735 0.56817 0.0
C963 C 0.48086 0.19746 0.58699 0.0
N964 N 0.51252 0.18006 0.67708 0.0
N965 N 0.43115 0.25429 0.60957 0.0
C966 C 0.48968 0.19512 0.66185 0.0
C967 C 0.44798 0.23286 0.62577 0.0
N968 N 0.47936 0.2023 0.79273 0.0
N969 N 0.4529 0.22005 0.4959 0.0
H970 H 0.4221 0.26602 0.65113 0.0
H971 H 0.42838 0.26209 0.55633 0.0
H972 H 0.46258 0.20976 0.45255 0.0
H973 H 0.43615 0.23161 0.47907 0.0
H974 H 0.49273 0.18712 0.8106 0.0
H975 H 0.46922 0.21232 0.83585 0.0
H976 H 0.52161 0.17902 0.72921 0.0
H977 H 0.52379 0.17048 0.6353 0.0
C978 C 0.03917 0.18221 0.86219 0.0
C979 C 0.03537 0.19132 0.93695 0.0
C980 C 0.06797 0.22901 0.91095 0.0
C981 C 0.06956 0.22108 0.83494 0.0
N982 N 0.05139 0.19367 0.73545 0.0
N983 N 0.04285 0.2269 0.02758 0.0
C984 C 0.05321 0.19905 0.80971 0.0
C985 C 0.04902 0.21563 0.96024 0.0
N986 N 0.03132 0.15642 0.84202 0.0
N987 N 0.08464 0.24947 0.9361 0.0
H988 H 0.02849 0.21851 0.06388 0.0
H989 H 0.05001 0.24594 0.04473 0.0
H990 H 0.09701 0.26108 0.9007 0.0
H991 H 0.08711 0.2541 0.9921 0.0
H992 H 0.0361 0.14777 0.7908 0.0
H993 H 0.02324 0.14223 0.8791 0.0
H994 H 0.03747 0.17972 0.71336 0.0
H995 H 0.06164 0.20507 0.69519 0.0
C996 C 0.06571 0.79084 0.05654 0.0
C997 C 0.04531 0.81056 0.07321 0.0
C998 C 0.04578 0.79542 0.20405 0.0
C999 C 0.0701 0.78055 0.19034 0.0
N1000 N 0.09879 0.75749 0.10278 0.0
N1001 N 0.01389 0.83013 0.16127 0.0
C1002 C 0.07846 0.77599 0.11582 0.0
C1003 C 0.03438 0.812 0.14638 0.0
N1004 N 0.07325 0.78707 0.98416 0.0
N1005 N 0.03354 0.79333 0.27194 0.0
H1006 H 1.00419 0.84125 0.1196 0.0
H1007 H 0.00704 0.83474 0.21454 0.0
H1008 H 0.04098 0.7802 0.31287 0.0
H1009 H 0.01469 0.80201 0.28486 0.0
H1010 H 0.08787 0.77313 0.96634 0.0
H1011 H 0.06378 0.79743 0.94053 0.0
H1012 H 0.10763 0.75376 0.0513 0.0
H1013 H 0.10606 0.74478 0.14481 0.0
C1014 C 0.47053 0.78027 0.35287 0.0
C1015 C 0.44926 0.79698 0.32306 0.0
C1016 C 0.46105 0.83275 0.4143 0.0
C1017 C 0.4836 0.81731 0.44027 0.0
N1018 N 0.51234 0.77771 0.42634 0.0
N1019 N 0.43248 0.84311 0.30884 0.0
C1020 C 0.48909 0.79144 0.40704 0.0
C1021 C 0.44695 0.82437 0.34914 0.0
N1022 N 0.47289 0.75368 0.33106 0.0
N1023 N 0.45282 0.85556 0.45174 0.0
H1024 H 0.42399 0.83855 0.25721 0.0
H1025 H 0.4321 0.8639 0.32165 0.0
H1026 H 0.46186 0.86186 0.50109 0.0
H1027 H 0.435 0.8662 0.43859 0.0
H1028 H 0.48537 0.73951 0.3578 0.0
H1029 H 0.46163 0.74545 0.28767 0.0
H1030 H 0.5194 0.76053 0.39815 0.0
H1031 H 0.52542 0.78448 0.46827 0.0
C1032 C 0.61918 0.83863 0.46014 0.0
C1033 C 0.59727 0.85712 0.46921 0.0
C1034 C 0.5917 0.86057 0.33431 0.0
C1035 C 0.61324 0.84172 0.32549 0.0
N1036 N 0.65125 0.81685 0.37569 0.0
N1037 N 0.56554 0.88964 0.41672 0.0
C1038 C 0.62831 0.83216 0.38735 0.0
C1039 C 0.58461 0.86957 0.40667 0.0
N1040 N 0.63038 0.82661 0.52143 0.0
N1041 N 0.57716 0.86858 0.27332 0.0
H1042 H 0.55871 0.89583 0.46874 0.0
H1043 H 0.55754 0.90141 0.37379 0.0
H1044 H 0.58269 0.86281 0.21959 0.0
H1045 H 0.55905 0.8797 0.27573 0.0
H1046 H 0.64457 0.81079 0.51929 0.0
H1047 H 0.62435 0.83182 0.57521 0.0
H1048 H 0.66437 0.81049 0.4177 0.0
H1049 H 0.65836 0.81236 0.32249 0.0
C1050 C 0.93532 0.86283 0.19275 0.0
C1051 C 0.91428 0.84357 0.20588 0.0
C1052 C 0.90633 0.83898 0.07245 0.0
C1053 C 0.92816 0.85731 0.05943 0.0
N1054 N 0.95663 0.89368 0.10432 0.0
N1055 N 0.87431 0.82009 0.16231 0.0
C1056 C 0.94034 0.87167 0.119 0.0
C1057 C 0.89785 0.834 0.14667 0.0
N1058 N 0.95152 0.87126 0.24998 0.0
N1059 N 0.89479 0.82546 1.01413 0.0
H1060 H 0.86761 0.81727 0.21685 0.0
H1061 H 0.86038 0.81383 0.12206 0.0
H1062 H 0.90051 0.82937 0.95927 0.0
H1063 H 0.88066 0.80964 0.02033 0.0
H1064 H 0.96921 0.88289 0.24248 0.0
H1065 H 0.94808 0.86516 0.30472 0.0
H1066 H 0.96476 0.90626 0.14541 0.0
H1067 H 0.95945 0.90091 0.05033 0.0
C1068 C 0.89494 0.17814 0.8949 0.0
C1069 C 0.9064 0.16578 0.83057 0.0
C1070 C 0.93553 0.13689 0.90775 0.0
C1071 C 0.92419 0.1493 0.97233 0.0
N1072 N 0.89052 0.17782 0.02959 0.0
N1073 N 0.93305 0.13051 0.77404 0.0
C1074 C 0.90292 0.16865 0.96636 0.0
C1075 C 0.92521 0.1441 0.83674 0.0
N1076 N 0.87746 0.19976 0.88738 0.0
N1077 N 0.95717 0.1194 0.91411 0.0
H1078 H 0.92586 0.13592 0.72148 0.0
H1079 H 0.94476 0.11275 0.7743 0.0
H1080 H 0.96529 0.1134 0.96485 0.0
H1081 H 0.96846 0.11222 0.86917 0.0
H1082 H 0.87051 0.21157 0.93152 0.0
H1083 H 0.87108 0.20713 0.836 0.0
H1084 H 0.87326 0.19025 0.03011 0.0
H1085 H 0.8965 0.17121 0.08226 0.0
C1086 C 0.61697 0.17114 0.57665 0.0
C1087 C 0.59609 0.1514 0.56838 0.0
C1088 C 0.59073 0.14802 0.70262 0.0
C1089 C 0.61038 0.16895 0.71109 0.0
N1090 N 0.64865 0.1936 0.66053 0.0
N1091 N 0.5677 0.11632 0.62233 0.0
C1092 C 0.62565 0.17835 0.6492 0.0
C1093 C 0.58481 0.13809 0.63114 0.0
N1094 N 0.62745 0.18372 0.51518 0.0
N1095 N 0.57698 0.13753 0.76189 0.0
H1096 H 0.56445 0.10739 0.57056 0.0
H1097 H 0.55834 0.10644 0.66715 0.0
H1098 H 0.58017 0.14393 0.81648 0.0
H1099 H 0.58017 0.14393 0.81648 0.0
H1100 H 0.64067 0.20043 0.51739 0.0
H1101 H 0.62174 0.178 0.46156 0.0
H1102 H 0.66175 0.19985 0.61812 0.0
H1103 H 0.65608 0.19735 0.71374 0.0
C1104 C 0.98481 0.72804 0.08814 0.0
C1105 C 0.97984 0.70083 0.06291 0.0
C1106 C 0.9536 0.69224 0.17771 0.0
C1107 C 0.95353 0.72055 0.1944 0.0
N1108 N 0.97272 0.76509 0.17244 0.0
N1109 N 0.95711 0.65746 0.08339 0.0
C1110 C 0.97051 0.73834 0.15207 0.0
C1111 C 0.96405 0.68287 0.10839 0.0
N1112 N 1.00389 0.7437 0.05224 0.0
N1113 N 0.94369 0.67419 0.22912 0.0
H1114 H 0.96348 0.6499 0.03253 0.0
H1115 H 0.94297 0.64483 0.11005 0.0
H1116 H 0.93681 0.68059 0.28112 0.0
H1117 H 0.94535 0.65303 0.22383 0.0
H1118 H 0.01013 0.76289 0.07036 0.0
H1119 H 0.01526 0.73647 1.0073 0.0
H1120 H 0.98092 0.78031 0.13861 0.0
H1121 H 0.96638 0.77183 0.22443 0.0
C1122 C 0.57418 0.73236 0.40757 0.0
C1123 C 0.57047 0.72454 0.3323 0.0
C1124 C 0.53293 0.6939 0.3715 0.0
C1125 C 0.54054 0.69752 0.44697 0.0
N1126 N 0.56711 0.72154 0.53825 0.0
N1127 N 0.54529 0.69897 0.24112 0.0
C1128 C 0.5604 0.71763 0.46541 0.0
C1129 C 0.54906 0.7061 0.31371 0.0
N1130 N 0.591 0.75393 0.42329 0.0
N1131 N 0.51026 0.67868 0.35543 0.0
H1132 H 0.55606 0.70823 0.19776 0.0
H1133 H 0.5324 0.68323 0.22394 0.0
H1134 H 0.49814 0.67001 0.39692 0.0
H1135 H 0.50199 0.67686 0.30246 0.0
H1136 H 0.59309 0.76242 0.47594 0.0
H1137 H 0.60098 0.765 0.38172 0.0
H1138 H 0.58361 0.73335 0.5558 0.0
H1139 H 0.55653 0.71198 0.58153 0.0
C1140 C 0.57351 0.33189 0.60348 0.0
C1141 C 0.54677 0.32412 0.58165 0.0
C1142 C 0.55039 0.28583 0.6727 0.0
C1143 C 0.57516 0.29725 0.70164 0.0
N1144 N 0.60204 0.33879 0.70966 0.0
N1145 N 0.50834 0.29385 0.60271 0.0
C1146 C 0.58403 0.32267 0.67178 0.0
C1147 C 0.53469 0.30102 0.6182 0.0
N1148 N 0.58948 0.34769 0.55817 0.0
N1149 N 0.54212 0.26048 0.69514 0.0
H1150 H 0.49681 0.30374 0.5623 0.0
H1151 H 0.49755 0.27916 0.63292 0.0
H1152 H 0.55247 0.24936 0.73556 0.0
H1153 H 0.52598 0.24994 0.6704 0.0
H1154 H 0.60976 0.35246 0.571 0.0
H1155 H 0.58364 0.35277 0.5042 0.0
H1156 H 0.60776 0.35821 0.69098 0.0
H1157 H 0.60802 0.33436 0.7638 0.0
C1158 C 0.98628 0.28954 0.93292 0.0
C1159 C 0.97064 0.3124 0.95788 0.0
C1160 C 0.9363 0.30195 0.86166 0.0
C1161 C 0.95 0.27751 0.84237 0.0
N1162 N 0.98682 0.24621 0.86612 0.0
N1163 N 0.9256 0.33274 0.96178 0.0
C1164 C 0.97466 0.27078 0.88005 0.0
C1165 C 0.94414 0.31633 0.92671 0.0
N1166 N 0.01236 0.2859 0.95762 0.0
N1167 N 0.91579 0.31179 0.81786 0.0
H1168 H 0.92943 0.34146 1.01351 0.0
H1169 H 0.90531 0.33452 0.94458 0.0
H1170 H 0.91054 0.30284 0.76745 0.0
H1171 H 0.90656 0.33071 0.82697 0.0
H1172 H 0.02601 0.27239 0.93275 0.0
H1173 H 0.02076 0.29722 1.00067 0.0
H1174 H 1.00281 0.23858 0.89789 0.0
H1175 H 0.97986 0.23285 0.8251 0.0
C1176 C 0.09023 0.3612 0.82989 0.0
C1177 C 0.11061 0.34096 0.82204 0.0
C1178 C 0.1151 0.3374 0.9566 0.0
C1179 C 0.09363 0.35643 0.96487 0.0
N1180 N 0.06703 0.39281 0.91265 0.0
N1181 N 0.14682 0.31435 0.87623 0.0
C1182 C 0.0832 0.37045 0.90222 0.0
C1183 C 0.12464 0.33086 0.88494 0.0
N1184 N 0.0769 0.37053 0.76838 0.0
N1185 N 0.12648 0.32475 0.01629 0.0
H1186 H 0.15548 0.31078 0.82419 0.0
H1187 H 0.15728 0.30585 0.92115 0.0
H1188 H 0.12045 0.32841 0.07097 0.0
H1189 H 0.12045 0.32841 0.07097 0.0
H1190 H 0.05982 0.38319 0.77048 0.0
H1191 H 0.08238 0.36437 0.71487 0.0
H1192 H 0.05991 0.40513 0.86972 0.0
H1193 H 0.0632 0.40056 0.96562 0.0
C1194 C 0.38875 0.33127 0.65983 0.0
C1195 C 0.40368 0.34457 0.7165 0.0
C1196 C 0.4252 0.37381 0.62384 0.0
C1197 C 0.41585 0.35579 0.56796 0.0
N1198 N 0.38796 0.31779 0.53041 0.0
N1199 N 0.43513 0.37952 0.75484 0.0
C1200 C 0.39684 0.33496 0.58497 0.0
C1201 C 0.4212 0.36665 0.69936 0.0
N1202 N 0.36713 0.31502 0.67853 0.0
N1203 N 0.43794 0.39753 0.60385 0.0
H1204 H 0.43202 0.37469 0.81068 0.0
H1205 H 0.45049 0.39391 0.74527 0.0
H1206 H 0.43988 0.40323 0.54823 0.0
H1207 H 0.44388 0.41249 0.64168 0.0
H1208 H 0.35418 0.30603 0.63965 0.0
H1209 H 0.36068 0.31308 0.73356 0.0
H1210 H 0.37642 0.30026 0.54086 0.0
H1211 H 0.39348 0.32048 0.47489 0.0
C1212 C 0.39581 0.67718 0.43529 0.0
C1213 C 0.41752 0.659 0.45034 0.0
C1214 C 0.42636 0.65326 0.31781 0.0
C1215 C 0.40571 0.67261 0.30288 0.0
N1216 N 0.36505 0.69578 0.34238 0.0
N1217 N 0.44641 0.62257 0.40846 0.0
C1218 C 0.38836 0.68203 0.36034 0.0
C1219 C 0.43039 0.64454 0.39201 0.0
N1220 N 0.38359 0.6909 0.49223 0.0
N1221 N 0.44302 0.64458 0.26179 0.0
H1222 H 0.4483 0.6154 0.4628 0.0
H1223 H 0.45521 0.61 0.36838 0.0
H1224 H 0.44003 0.65051 0.20672 0.0
H1225 H 0.46046 0.63281 0.27053 0.0
H1226 H 0.36956 0.70665 0.48436 0.0
H1227 H 0.38866 0.68734 0.54764 0.0
H1228 H 0.35046 0.70179 0.38124 0.0
H1229 H 0.35922 0.69871 0.28721 0.0
C1230 C 0.09593 0.64447 0.20845 0.0
C1231 C 0.11588 0.66512 0.21749 0.0
C1232 C 0.12064 0.66997 0.08301 0.0
C1233 C 0.09971 0.65029 0.07399 0.0
N1234 N 0.07175 0.61423 0.1238 0.0
N1235 N 0.15213 0.69269 0.16702 0.0
C1236 C 0.08894 0.63585 0.13568 0.0
C1237 C 0.13004 0.6761 0.15558 0.0
N1238 N 0.08282 0.63436 0.26962 0.0
N1239 N 0.13018 0.68381 0.02235 0.0
H1240 H 0.15933 0.69713 0.22011 0.0
H1241 H 0.16462 0.7001 0.12466 0.0
H1242 H 0.12379 0.67918 0.96855 0.0
H1243 H 0.14327 0.7006 0.02532 0.0
H1244 H 0.06602 0.62127 0.26737 0.0
H1245 H 0.08836 0.64008 0.32337 0.0
H1246 H 0.06435 0.60155 0.16574 0.0
H1247 H 0.06655 0.60773 0.0705 0.0
loop_
_geom_bond_atom_site_label_1
_geom_bond_atom_site_label_2
_geom_bond_distance
_geom_bond_site_symmetry_2
_ccdc_geom_bond_type
C0 C1 1.351 . S
C0 N3 1.368 . S
C0 H5 0.931 . S
C1 C0 1.351 . S
C1 N2 1.373 . S
C1 H29 0.930 . S
N2 C1 1.373 . S
N2 C4 1.340 . S
N3 C0 1.368 . S
N3 C4 1.321 . S
N3 Co6 2.135 . S
C4 N2 1.340 . S
C4 N3 1.321 . S
C4 H28 0.930 . S
H5 C0 0.931 . S
Co6 N3 2.135 . S
Co6 N9 2.121 . S
Co6 O14 2.055 . S
Co6 O17 2.039 . S
Co6 N20 2.140 . S
C7 O8 1.227 . S
C7 O17 1.265 . S
O8 C7 1.227 . S
N9 Co6 2.121 . S
N9 C11 1.375 . S
N9 C12 1.313 . S
C10 C11 1.338 . S
C10 N13 1.377 . S
C10 H30 0.930 . S
C11 N9 1.375 . S
C11 C10 1.338 . S
C11 H15 0.931 . S
C12 N9 1.313 . S
C12 N13 1.344 . S
C12 H16 0.930 . S
N13 C10 1.377 . S
N13 C12 1.344 . S
O14 Co6 2.055 . S
O14 C18 1.253 . S
H15 C11 0.931 . S
H16 C12 0.930 . S
O17 Co6 2.039 . S
O17 C7 1.265 . S
C18 O14 1.253 . S
C18 O19 1.227 . S
O19 C18 1.227 . S
N20 Co6 2.140 . S
N20 C23 1.346 . S
N20 C24 1.345 . S
C21 C22 1.387 . S
C21 C25 1.391 . S
C22 C21 1.387 . S
C22 C23 1.369 . S
C22 H31 0.929 . S
C23 N20 1.346 . S
C23 C22 1.369 . S
C23 H26 0.928 . S
C24 N20 1.345 . S
C24 C25 1.371 . S
C24 H27 0.931 . S
C25 C21 1.391 . S
C25 C24 1.371 . S
C25 H32 0.930 . S
H26 C23 0.928 . S
H27 C24 0.931 . S
H28 C4 0.930 . S
H29 C1 0.930 . S
H30 C10 0.930 . S
H31 C22 0.929 . S
H32 C25 0.930 . S
C33 C34 1.351 . S
C33 N36 1.368 . S
C33 H38 0.931 . S
C34 C33 1.351 . S
C34 N35 1.373 . S
C34 H62 0.930 . S
N35 C34 1.373 . S
N35 C37 1.340 . S
N36 C33 1.368 . S
N36 C37 1.321 . S
N36 Co39 2.135 . S
C37 N35 1.340 . S
C37 N36 1.321 . S
C37 H61 0.930 . S
H38 C33 0.931 . S
Co39 N36 2.135 . S
Co39 N42 2.121 . S
Co39 O47 2.055 . S
Co39 O50 2.039 . S
Co39 N53 2.140 . S
C40 O41 1.227 . S
C40 O50 1.265 . S
O41 C40 1.227 . S
N42 Co39 2.121 . S
N42 C44 1.375 . S
N42 C45 1.313 . S
C43 C44 1.338 . S
C43 N46 1.377 . S
C43 H63 0.930 . S
C44 N42 1.375 . S
C44 C43 1.338 . S
C44 H48 0.931 . S
C45 N42 1.313 . S
C45 N46 1.344 . S
C45 H49 0.930 . S
N46 C43 1.377 . S
N46 C45 1.344 . S
O47 Co39 2.055 . S
O47 C51 1.253 . S
H48 C44 0.931 . S
H49 C45 0.930 . S
O50 Co39 2.039 . S
O50 C40 1.265 . S
C51 O47 1.253 . S
C51 O52 1.227 . S
O52 C51 1.227 . S
N53 Co39 2.140 . S
N53 C56 1.346 . S
N53 C57 1.345 . S
C54 C55 1.387 . S
C54 C58 1.391 . S
C55 C54 1.387 . S
C55 C56 1.369 . S
C55 H64 0.929 . S
C56 N53 1.346 . S
C56 C55 1.369 . S
C56 H59 0.928 . S
C57 N53 1.345 . S
C57 C58 1.371 . S
C57 H60 0.931 . S
C58 C54 1.391 . S
C58 C57 1.371 . S
C58 H65 0.930 . S
H59 C56 0.928 . S
H60 C57 0.931 . S
H61 C37 0.930 . S
H62 C34 0.930 . S
H63 C43 0.930 . S
H64 C55 0.929 . S
H65 C58 0.930 . S
C66 C67 1.351 . S
C66 N69 1.368 . S
C66 H71 0.931 . S
C67 C66 1.351 . S
C67 N68 1.373 1_556 S
C67 H95 0.930 . S
N68 C67 1.373 1_554 S
N68 C70 1.340 . S
N69 C66 1.368 . S
N69 C70 1.321 1_556 S
N69 Co72 2.135 1_655 S
C70 N68 1.340 . S
C70 N69 1.321 1_554 S
C70 H94 0.930 . S
H71 C66 0.931 . S
Co72 N69 2.135 1_455 S
Co72 N75 2.121 . S
Co72 O80 2.055 1_455 S
Co72 O83 2.039 . S
Co72 N86 2.140 . S
C73 O74 1.227 1_556 S
C73 O83 1.265 . S
O74 C73 1.227 1_554 S
N75 Co72 2.121 . S
N75 C77 1.375 . S
N75 C78 1.313 . S
C76 C77 1.338 . S
C76 N79 1.377 . S
C76 H96 0.930 . S
C77 N75 1.375 . S
C77 C76 1.338 . S
C77 H81 0.931 . S
C78 N75 1.313 . S
C78 N79 1.344 . S
C78 H82 0.930 . S
N79 C76 1.377 . S
N79 C78 1.344 . S
O80 Co72 2.055 1_655 S
O80 C84 1.253 . S
H81 C77 0.931 . S
H82 C78 0.930 . S
O83 Co72 2.039 . S
O83 C73 1.265 . S
C84 O80 1.253 . S
C84 O85 1.227 . S
O85 C84 1.227 . S
N86 Co72 2.140 . S
N86 C89 1.346 . S
N86 C90 1.345 . S
C87 C88 1.387 . S
C87 C91 1.391 . S
C88 C87 1.387 . S
C88 C89 1.369 . S
C88 H97 0.928 1_456 S
C89 N86 1.346 . S
C89 C88 1.369 . S
C89 H92 0.937 1_455 S
C90 N86 1.345 . S
C90 C91 1.371 . S
C90 H93 0.931 . S
C91 C87 1.391 . S
C91 C90 1.371 . S
C91 H98 0.930 . S
H92 C89 0.937 1_655 S
H93 C90 0.931 . S
H94 C70 0.930 . S
H95 C67 0.930 . S
H96 C76 0.930 . S
H97 C88 0.928 1_654 S
H98 C91 0.930 . S
C99 C100 1.351 . S
C99 N102 1.368 . S
C99 H104 0.931 . S
C100 C99 1.351 . S
C100 N101 1.373 . S
C100 H128 0.930 . S
N101 C100 1.373 . S
N101 C103 1.340 . S
N102 C99 1.368 . S
N102 C103 1.321 . S
N102 Co105 2.135 . S
C103 N101 1.340 . S
C103 N102 1.321 . S
C103 H127 0.930 . S
H104 C99 0.931 . S
Co105 N102 2.135 . S
Co105 N108 2.121 . S
Co105 O113 2.055 . S
Co105 O116 2.039 . S
Co105 N119 2.140 . S
C106 O107 1.227 . S
C106 O116 1.265 . S
O107 C106 1.227 . S
N108 Co105 2.121 . S
N108 C110 1.375 . S
N108 C111 1.313 1_554 S
C109 C110 1.338 . S
C109 N112 1.377 1_554 S
C109 H129 0.930 . S
C110 N108 1.375 . S
C110 C109 1.338 . S
C110 H114 0.931 . S
C111 N108 1.313 1_556 S
C111 N112 1.344 . S
C111 H115 0.930 . S
N112 C109 1.377 1_556 S
N112 C111 1.344 . S
O113 Co105 2.055 . S
O113 C117 1.253 . S
H114 C110 0.931 . S
H115 C111 0.930 . S
O116 Co105 2.039 . S
O116 C106 1.265 . S
C117 O113 1.253 . S
C117 O118 1.227 . S
O118 C117 1.227 . S
N119 Co105 2.140 . S
N119 C122 1.346 . S
N119 C123 1.345 . S
C120 C121 1.387 . S
C120 C124 1.391 . S
C121 C120 1.387 . S
C121 C122 1.369 . S
C121 H130 0.929 . S
C122 N119 1.346 . S
C122 C121 1.369 . S
C122 H125 0.928 . S
C123 N119 1.345 . S
C123 C124 1.371 . S
C123 H126 0.931 . S
C124 C120 1.391 . S
C124 C123 1.371 . S
C124 H131 0.930 . S
H125 C122 0.928 . S
H126 C123 0.931 . S
H127 C103 0.930 . S
H128 C100 0.930 . S
H129 C109 0.930 . S
H130 C121 0.929 . S
H131 C124 0.930 . S
C132 C133 1.351 . S
C132 N135 1.368 . S
C132 H137 0.931 . S
C133 C132 1.351 . S
C133 N134 1.373 . S
C133 H161 0.930 . S
N134 C133 1.373 . S
N134 C136 1.340 . S
N135 C132 1.368 . S
N135 C136 1.321 . S
N135 Co138 2.135 . S
C136 N134 1.340 . S
C136 N135 1.321 . S
C136 H160 0.930 . S
H137 C132 0.931 . S
Co138 N135 2.135 . S
Co138 N141 2.121 . S
Co138 O146 2.055 . S
Co138 O149 2.039 . S
Co138 N152 2.140 . S
C139 O140 1.227 . S
C139 O149 1.265 . S
O140 C139 1.227 . S
N141 Co138 2.121 . S
N141 C143 1.375 . S
N141 C144 1.313 . S
C142 C143 1.338 . S
C142 N145 1.377 . S
C142 H162 0.930 . S
C143 N141 1.375 . S
C143 C142 1.338 . S
C143 H147 0.931 . S
C144 N141 1.313 . S
C144 N145 1.344 . S
C144 H148 0.930 . S
N145 C142 1.377 . S
N145 C144 1.344 . S
O146 Co138 2.055 . S
O146 C150 1.253 . S
H147 C143 0.931 . S
H148 C144 0.930 . S
O149 Co138 2.039 . S
O149 C139 1.265 . S
C150 O146 1.253 . S
C150 O151 1.227 . S
O151 C150 1.227 . S
N152 Co138 2.140 . S
N152 C155 1.346 . S
N152 C156 1.345 . S
C153 C154 1.387 . S
C153 C157 1.391 . S
C154 C153 1.387 . S
C154 C155 1.369 . S
C154 H163 0.929 . S
C155 N152 1.346 . S
C155 C154 1.369 . S
C155 H158 0.928 . S
C156 N152 1.345 . S
C156 C157 1.371 . S
C156 H159 0.931 . S
C157 C153 1.391 . S
C157 C156 1.371 . S
C157 H164 0.930 . S
H158 C155 0.928 . S
H159 C156 0.931 . S
H160 C136 0.930 . S
H161 C133 0.930 . S
H162 C142 0.930 . S
H163 C154 0.929 . S
H164 C157 0.930 . S
C165 C166 1.351 . S
C165 N168 1.368 . S
C165 H170 0.931 . S
C166 C165 1.351 . S
C166 N167 1.373 . S
C166 H194 0.930 . S
N167 C166 1.373 . S
N167 C169 1.340 . S
N168 C165 1.368 . S
N168 C169 1.321 . S
N168 Co171 2.135 . S
C169 N167 1.340 . S
C169 N168 1.321 . S
C169 H193 0.930 . S
H170 C165 0.931 . S
Co171 N168 2.135 . S
Co171 N174 2.121 . S
Co171 O179 2.055 . S
Co171 O182 2.039 . S
Co171 N185 2.140 . S
C172 O173 1.227 . S
C172 O182 1.265 . S
O173 C172 1.227 . S
N174 Co171 2.121 . S
N174 C176 1.375 . S
N174 C177 1.313 1_556 S
C175 C176 1.338 . S
C175 N178 1.377 1_556 S
C175 H195 0.930 . S
C176 N174 1.375 . S
C176 C175 1.338 . S
C176 H180 0.931 . S
C177 N174 1.313 1_554 S
C177 N178 1.344 . S
C177 H181 0.930 . S
N178 C175 1.377 1_554 S
N178 C177 1.344 . S
O179 Co171 2.055 . S
O179 C183 1.253 . S
H180 C176 0.931 . S
H181 C177 0.930 . S
O182 Co171 2.039 . S
O182 C172 1.265 . S
C183 O179 1.253 . S
C183 O184 1.227 . S
O184 C183 1.227 . S
N185 Co171 2.140 . S
N185 C188 1.346 . S
N185 C189 1.345 . S
C186 C187 1.387 . S
C186 C190 1.391 . S
C187 C186 1.387 . S
C187 C188 1.369 . S
C187 H196 0.929 . S
C188 N185 1.346 . S
C188 C187 1.369 . S
C188 H191 0.928 . S
C189 N185 1.345 . S
C189 C190 1.371 . S
C189 H192 0.931 . S
C190 C186 1.391 . S
C190 C189 1.371 . S
C190 H197 0.930 . S
H191 C188 0.928 . S
H192 C189 0.931 . S
H193 C169 0.930 . S
H194 C166 0.930 . S
H195 C175 0.930 . S
H196 C187 0.929 . S
H197 C190 0.930 . S
C198 C199 1.351 . S
C198 N201 1.368 . S
C198 H203 0.931 . S
C199 C198 1.351 . S
C199 N200 1.373 1_554 S
C199 H227 0.930 . S
N200 C199 1.373 1_556 S
N200 C202 1.340 . S
N201 C198 1.368 . S
N201 C202 1.321 1_554 S
N201 Co204 2.135 1_655 S
C202 N200 1.340 . S
C202 N201 1.321 1_556 S
C202 H226 0.930 . S
H203 C198 0.931 . S
Co204 N201 2.135 1_455 S
Co204 N207 2.121 . S
Co204 O212 2.055 1_455 S
Co204 O215 2.039 . S
Co204 N218 2.140 . S
C205 O206 1.227 1_554 S
C205 O215 1.265 . S
O206 C205 1.227 1_556 S
N207 Co204 2.121 . S
N207 C209 1.375 . S
N207 C210 1.313 . S
C208 C209 1.338 . S
C208 N211 1.377 . S
C208 H228 0.930 . S
C209 N207 1.375 . S
C209 C208 1.338 . S
C209 H213 0.931 . S
C210 N207 1.313 . S
C210 N211 1.344 . S
C210 H214 0.930 . S
N211 C208 1.377 . S
N211 C210 1.344 . S
O212 Co204 2.055 1_655 S
O212 C216 1.253 . S
H213 C209 0.931 . S
H214 C210 0.930 . S
O215 Co204 2.039 . S
O215 C205 1.265 . S
C216 O212 1.253 . S
C216 O217 1.227 . S
O217 C216 1.227 . S
N218 Co204 2.140 . S
N218 C221 1.346 . S
N218 C222 1.345 . S
C219 C220 1.387 . S
C219 C223 1.391 . S
C220 C219 1.387 . S
C220 C221 1.369 . S
C220 H229 0.928 1_454 S
C221 N218 1.346 . S
C221 C220 1.369 . S
C221 H224 0.937 1_455 S
C222 N218 1.345 . S
C222 C223 1.371 . S
C222 H225 0.931 . S
C223 C219 1.391 . S
C223 C222 1.371 . S
C223 H230 0.930 . S
H224 C221 0.937 1_655 S
H225 C222 0.931 . S
H226 C202 0.930 . S
H227 C199 0.930 . S
H228 C208 0.930 . S
H229 C220 0.928 1_656 S
H230 C223 0.930 . S
C231 C232 1.351 . S
C231 N234 1.368 . S
C231 H236 0.931 . S
C232 C231 1.351 . S
C232 N233 1.373 . S
C232 H260 0.930 . S
N233 C232 1.373 . S
N233 C235 1.340 . S
N234 C231 1.368 . S
N234 C235 1.321 . S
N234 Co237 2.135 . S
C235 N233 1.340 . S
C235 N234 1.321 . S
C235 H259 0.930 . S
H236 C231 0.931 . S
Co237 N234 2.135 . S
Co237 N240 2.121 . S
Co237 O245 2.055 . S
Co237 O248 2.039 . S
Co237 N251 2.140 . S
C238 O239 1.227 . S
C238 O248 1.265 . S
O239 C238 1.227 . S
N240 Co237 2.121 . S
N240 C242 1.375 . S
N240 C243 1.313 . S
C241 C242 1.338 . S
C241 N244 1.377 . S
C241 H261 0.930 . S
C242 N240 1.375 . S
C242 C241 1.338 . S
C242 H246 0.931 . S
C243 N240 1.313 . S
C243 N244 1.344 . S
C243 H247 0.930 . S
N244 C241 1.377 . S
N244 C243 1.344 . S
O245 Co237 2.055 . S
O245 C249 1.253 . S
H246 C242 0.931 . S
H247 C243 0.930 . S
O248 Co237 2.039 . S
O248 C238 1.265 . S
C249 O245 1.253 . S
C249 O250 1.227 . S
O250 C249 1.227 . S
N251 Co237 2.140 . S
N251 C254 1.346 . S
N251 C255 1.345 . S
C252 C253 1.387 . S
C252 C256 1.391 . S
C253 C252 1.387 . S
C253 C254 1.369 . S
C253 H262 0.929 . S
C254 N251 1.346 . S
C254 C253 1.369 . S
C254 H257 0.928 . S
C255 N251 1.345 . S
C255 C256 1.371 . S
C255 H258 0.931 . S
C256 C252 1.391 . S
C256 C255 1.371 . S
C256 H263 0.930 . S
H257 C254 0.928 . S
H258 C255 0.931 . S
H259 C235 0.930 . S
H260 C232 0.930 . S
H261 C241 0.930 . S
H262 C253 0.929 . S
H263 C256 0.930 . S
C264 C265 1.351 . S
C264 N267 1.368 . S
C264 H269 0.931 . S
C265 C264 1.351 . S
C265 N266 1.373 . S
C265 H293 0.930 . S
N266 C265 1.373 . S
N266 C268 1.340 . S
N267 C264 1.368 . S
N267 C268 1.321 . S
N267 Co270 2.135 . S
C268 N266 1.340 . S
C268 N267 1.321 . S
C268 H292 0.930 . S
H269 C264 0.931 . S
Co270 N267 2.135 . S
Co270 N273 2.121 . S
Co270 O278 2.055 . S
Co270 O281 2.039 . S
Co270 N284 2.140 . S
C271 O272 1.227 . S
C271 O281 1.265 . S
O272 C271 1.227 . S
N273 Co270 2.121 . S
N273 C275 1.375 . S
N273 C276 1.313 . S
C274 C275 1.338 . S
C274 N277 1.377 . S
C274 H294 0.930 . S
C275 N273 1.375 . S
C275 C274 1.338 . S
C275 H279 0.931 . S
C276 N273 1.313 . S
C276 N277 1.344 . S
C276 H280 0.930 . S
N277 C274 1.377 . S
N277 C276 1.344 . S
O278 Co270 2.055 . S
O278 C282 1.253 . S
H279 C275 0.931 . S
H280 C276 0.930 . S
O281 Co270 2.039 . S
O281 C271 1.265 . S
C282 O278 1.253 . S
C282 O283 1.227 . S
O283 C282 1.227 . S
N284 Co270 2.140 . S
N284 C287 1.346 . S
N284 C288 1.345 . S
C285 C286 1.387 . S
C285 C289 1.391 . S
C286 C285 1.387 . S
C286 C287 1.369 . S
C286 H295 0.929 . S
C287 N284 1.346 . S
C287 C286 1.369 . S
C287 H290 0.928 . S
C288 N284 1.345 . S
C288 C289 1.371 . S
C288 H291 0.931 . S
C289 C285 1.391 . S
C289 C288 1.371 . S
C289 H296 0.930 . S
H290 C287 0.928 . S
H291 C288 0.931 . S
H292 C268 0.930 . S
H293 C265 0.930 . S
H294 C274 0.930 . S
H295 C286 0.929 . S
H296 C289 0.930 . S
C297 C298 1.351 . S
C297 N300 1.368 . S
C297 H302 0.931 . S
C298 C297 1.351 . S
C298 N299 1.373 . S
C298 H326 0.930 . S
N299 C298 1.373 . S
N299 C301 1.340 . S
N300 C297 1.368 . S
N300 C301 1.321 . S
N300 Co303 2.135 . S
C301 N299 1.340 . S
C301 N300 1.321 . S
C301 H325 0.930 . S
H302 C297 0.931 . S
Co303 N300 2.135 . S
Co303 N306 2.121 . S
Co303 O311 2.055 . S
Co303 O314 2.039 . S
Co303 N317 2.140 . S
C304 O305 1.227 . S
C304 O314 1.265 . S
O305 C304 1.227 . S
N306 Co303 2.121 . S
N306 C308 1.375 . S
N306 C309 1.313 1_556 S
C307 C308 1.338 . S
C307 N310 1.377 1_556 S
C307 H327 0.930 . S
C308 N306 1.375 . S
C308 C307 1.338 . S
C308 H312 0.931 . S
C309 N306 1.313 1_554 S
C309 N310 1.344 . S
C309 H313 0.930 . S
N310 C307 1.377 1_554 S
N310 C309 1.344 . S
O311 Co303 2.055 . S
O311 C315 1.253 . S
H312 C308 0.931 . S
H313 C309 0.930 . S
O314 Co303 2.039 . S
O314 C304 1.265 . S
C315 O311 1.253 . S
C315 O316 1.227 . S
O316 C315 1.227 . S
N317 Co303 2.140 . S
N317 C320 1.346 . S
N317 C321 1.345 . S
C318 C319 1.387 . S
C318 C322 1.391 . S
C319 C318 1.387 . S
C319 C320 1.369 . S
C319 H328 0.929 . S
C320 N317 1.346 . S
C320 C319 1.369 . S
C320 H323 0.928 . S
C321 N317 1.345 . S
C321 C322 1.371 . S
C321 H324 0.931 . S
C322 C318 1.391 . S
C322 C321 1.371 . S
C322 H329 0.930 . S
H323 C320 0.928 . S
H324 C321 0.931 . S
H325 C301 0.930 . S
H326 C298 0.930 . S
H327 C307 0.930 . S
H328 C319 0.929 . S
H329 C322 0.930 . S
C330 C331 1.351 . S
C330 N333 1.368 . S
C330 H335 0.931 . S
C331 C330 1.351 . S
C331 N332 1.373 . S
C331 H359 0.930 . S
N332 C331 1.373 . S
N332 C334 1.340 . S
N333 C330 1.368 . S
N333 C334 1.321 . S
N333 Co336 2.135 . S
C334 N332 1.340 . S
C334 N333 1.321 . S
C334 H358 0.930 . S
H335 C330 0.931 . S
Co336 N333 2.135 . S
Co336 N339 2.121 . S
Co336 O344 2.055 . S
Co336 O347 2.039 . S
Co336 N350 2.140 . S
C337 O338 1.227 . S
C337 O347 1.265 . S
O338 C337 1.227 . S
N339 Co336 2.121 . S
N339 C341 1.375 . S
N339 C342 1.313 1_554 S
C340 C341 1.338 . S
C340 N343 1.377 1_554 S
C340 H360 0.930 . S
C341 N339 1.375 . S
C341 C340 1.338 . S
C341 H345 0.931 . S
C342 N339 1.313 1_556 S
C342 N343 1.344 . S
C342 H346 0.930 . S
N343 C340 1.377 1_556 S
N343 C342 1.344 . S
O344 Co336 2.055 . S
O344 C348 1.253 . S
H345 C341 0.931 . S
H346 C342 0.930 . S
O347 Co336 2.039 . S
O347 C337 1.265 . S
C348 O344 1.253 . S
C348 O349 1.227 . S
O349 C348 1.227 . S
N350 Co336 2.140 . S
N350 C353 1.346 . S
N350 C354 1.345 . S
C351 C352 1.387 . S
C351 C355 1.391 . S
C352 C351 1.387 . S
C352 C353 1.369 . S
C352 H361 0.929 . S
C353 N350 1.346 . S
C353 C352 1.369 . S
C353 H356 0.928 . S
C354 N350 1.345 . S
C354 C355 1.371 . S
C354 H357 0.931 . S
C355 C351 1.391 . S
C355 C354 1.371 . S
C355 H362 0.930 . S
H356 C353 0.928 . S
H357 C354 0.931 . S
H358 C334 0.930 . S
H359 C331 0.930 . S
H360 C340 0.930 . S
H361 C352 0.929 . S
H362 C355 0.930 . S
C363 C364 1.351 . S
C363 N366 1.368 . S
C363 H368 0.931 . S
C364 C363 1.351 . S
C364 N365 1.373 . S
C364 H392 0.930 . S
N365 C364 1.373 . S
N365 C367 1.340 . S
N366 C363 1.368 . S
N366 C367 1.321 . S
N366 Co369 2.135 . S
C367 N365 1.340 . S
C367 N366 1.321 . S
C367 H391 0.930 . S
H368 C363 0.931 . S
Co369 N366 2.135 . S
Co369 N372 2.121 . S
Co369 O377 2.055 . S
Co369 O380 2.039 . S
Co369 N383 2.140 . S
C370 O371 1.227 . S
C370 O380 1.265 . S
O371 C370 1.227 . S
N372 Co369 2.121 . S
N372 C374 1.375 . S
N372 C375 1.313 . S
C373 C374 1.338 . S
C373 N376 1.377 . S
C373 H393 0.930 . S
C374 N372 1.375 . S
C374 C373 1.338 . S
C374 H378 0.931 . S
C375 N372 1.313 . S
C375 N376 1.344 . S
C375 H379 0.930 . S
N376 C373 1.377 . S
N376 C375 1.344 . S
O377 Co369 2.055 . S
O377 C381 1.253 . S
H378 C374 0.931 . S
H379 C375 0.930 . S
O380 Co369 2.039 . S
O380 C370 1.265 . S
C381 O377 1.253 . S
C381 O382 1.227 . S
O382 C381 1.227 . S
N383 Co369 2.140 . S
N383 C386 1.346 . S
N383 C387 1.345 . S
C384 C385 1.387 . S
C384 C388 1.391 . S
C385 C384 1.387 . S
C385 C386 1.369 . S
C385 H394 0.929 . S
C386 N383 1.346 . S
C386 C385 1.369 . S
C386 H389 0.928 . S
C387 N383 1.345 . S
C387 C388 1.371 . S
C387 H390 0.931 . S
C388 C384 1.391 . S
C388 C387 1.371 . S
C388 H395 0.930 . S
H389 C386 0.928 . S
H390 C387 0.931 . S
H391 C367 0.930 . S
H392 C364 0.930 . S
H393 C373 0.930 . S
H394 C385 0.929 . S
H395 C388 0.930 . S
C396 C397 1.351 . S
C396 N399 1.368 . S
C396 H401 0.931 . S
C397 C396 1.351 . S
C397 N398 1.373 1_556 S
C397 H425 0.930 . S
N398 C397 1.373 1_554 S
N398 C400 1.340 . S
N399 C396 1.368 . S
N399 C400 1.321 1_556 S
N399 Co402 2.135 . S
C400 N398 1.340 . S
C400 N399 1.321 1_554 S
C400 H424 0.930 . S
H401 C396 0.931 . S
Co402 N399 2.135 . S
Co402 N405 2.121 1_455 S
Co402 O410 2.055 . S
Co402 O413 2.039 1_455 S
Co402 N416 2.140 . S
C403 O404 1.227 1_556 S
C403 O413 1.265 . S
O404 C403 1.227 1_554 S
N405 Co402 2.121 1_655 S
N405 C407 1.375 . S
N405 C408 1.313 . S
C406 C407 1.338 . S
C406 N409 1.377 . S
C406 H426 0.930 . S
C407 N405 1.375 . S
C407 C406 1.338 . S
C407 H411 0.931 . S
C408 N405 1.313 . S
C408 N409 1.344 . S
C408 H412 0.930 . S
N409 C406 1.377 . S
N409 C408 1.344 . S
O410 Co402 2.055 . S
O410 C414 1.253 . S
H411 C407 0.931 . S
H412 C408 0.930 . S
O413 Co402 2.039 1_655 S
O413 C403 1.265 . S
C414 O410 1.253 . S
C414 O415 1.227 . S
O415 C414 1.227 . S
N416 Co402 2.140 . S
N416 C419 1.346 . S
N416 C420 1.351 . S
C417 C418 1.387 . S
C417 C421 1.395 . S
C418 C417 1.387 . S
C418 C419 1.369 . S
C418 H427 0.929 1_556 S
C419 N416 1.346 . S
C419 C418 1.369 . S
C419 H422 0.936 . S
C420 N416 1.351 . S
C420 C421 1.371 . S
C420 H423 0.926 1_455 S
C421 C417 1.395 . S
C421 C420 1.371 . S
C421 H428 0.927 1_455 S
H422 C419 0.936 . S
H423 C420 0.926 1_655 S
H424 C400 0.930 . S
H425 C397 0.930 . S
H426 C406 0.930 . S
H427 C418 0.929 1_554 S
H428 C421 0.927 1_655 S
C429 C430 1.351 . S
C429 N432 1.368 . S
C429 H434 0.931 . S
C430 C429 1.351 . S
C430 N431 1.373 . S
C430 H458 0.930 . S
N431 C430 1.373 . S
N431 C433 1.340 . S
N432 C429 1.368 . S
N432 C433 1.321 . S
N432 Co435 2.135 . S
C433 N431 1.340 . S
C433 N432 1.321 . S
C433 H457 0.930 . S
H434 C429 0.931 . S
Co435 N432 2.135 . S
Co435 N438 2.121 . S
Co435 O443 2.055 . S
Co435 O446 2.039 . S
Co435 N449 2.140 . S
C436 O437 1.227 . S
C436 O446 1.265 . S
O437 C436 1.227 . S
N438 Co435 2.121 . S
N438 C440 1.375 . S
N438 C441 1.313 . S
C439 C440 1.338 . S
C439 N442 1.377 . S
C439 H459 0.930 . S
C440 N438 1.375 . S
C440 C439 1.338 . S
C440 H444 0.931 . S
C441 N438 1.313 . S
C441 N442 1.344 . S
C441 H445 0.930 . S
N442 C439 1.377 . S
N442 C441 1.344 . S
O443 Co435 2.055 . S
O443 C447 1.253 . S
H444 C440 0.931 . S
H445 C441 0.930 . S
O446 Co435 2.039 . S
O446 C436 1.265 . S
C447 O443 1.253 . S
C447 O448 1.227 . S
O448 C447 1.227 . S
N449 Co435 2.140 . S
N449 C452 1.346 . S
N449 C453 1.345 . S
C450 C451 1.387 . S
C450 C454 1.391 . S
C451 C450 1.387 . S
C451 C452 1.369 . S
C451 H460 0.929 . S
C452 N449 1.346 . S
C452 C451 1.369 . S
C452 H455 0.928 . S
C453 N449 1.345 . S
C453 C454 1.371 . S
C453 H456 0.931 . S
C454 C450 1.391 . S
C454 C453 1.371 . S
C454 H461 0.930 . S
H455 C452 0.928 . S
H456 C453 0.931 . S
H457 C433 0.930 . S
H458 C430 0.930 . S
H459 C439 0.930 . S
H460 C451 0.929 . S
H461 C454 0.930 . S
C462 C463 1.351 . S
C462 N465 1.368 . S
C462 H467 0.931 . S
C463 C462 1.351 . S
C463 N464 1.373 1_554 S
C463 H491 0.930 . S
N464 C463 1.373 1_556 S
N464 C466 1.340 . S
N465 C462 1.368 . S
N465 C466 1.321 1_554 S
N465 Co468 2.135 . S
C466 N464 1.340 . S
C466 N465 1.321 1_556 S
C466 H490 0.930 . S
H467 C462 0.931 . S
Co468 N465 2.135 . S
Co468 N471 2.121 1_455 S
Co468 O476 2.055 . S
Co468 O479 2.039 1_455 S
Co468 N482 2.140 . S
C469 O470 1.227 1_554 S
C469 O479 1.265 . S
O470 C469 1.227 1_556 S
N471 Co468 2.121 1_655 S
N471 C473 1.375 . S
N471 C474 1.313 . S
C472 C473 1.338 . S
C472 N475 1.377 . S
C472 H492 0.930 . S
C473 N471 1.375 . S
C473 C472 1.338 . S
C473 H477 0.931 . S
C474 N471 1.313 . S
C474 N475 1.344 . S
C474 H478 0.930 . S
N475 C472 1.377 . S
N475 C474 1.344 . S
O476 Co468 2.055 . S
O476 C480 1.253 . S
H477 C473 0.931 . S
H478 C474 0.930 . S
O479 Co468 2.039 1_655 S
O479 C469 1.265 . S
C480 O476 1.253 . S
C480 O481 1.227 . S
O481 C480 1.227 . S
N482 Co468 2.140 . S
N482 C485 1.346 . S
N482 C486 1.351 . S
C483 C484 1.387 . S
C483 C487 1.395 . S
C484 C483 1.387 . S
C484 C485 1.369 . S
C484 H493 0.929 1_554 S
C485 N482 1.346 . S
C485 C484 1.369 . S
C485 H488 0.936 . S
C486 N482 1.351 . S
C486 C487 1.371 . S
C486 H489 0.926 1_455 S
C487 C483 1.395 . S
C487 C486 1.371 . S
C487 H494 0.927 1_455 S
H488 C485 0.936 . S
H489 C486 0.926 1_655 S
H490 C466 0.930 . S
H491 C463 0.930 . S
H492 C472 0.930 . S
H493 C484 0.929 1_556 S
H494 C487 0.927 1_655 S
C495 C496 1.351 . S
C495 N498 1.368 . S
C495 H500 0.931 . S
C496 C495 1.351 . S
C496 N497 1.373 . S
C496 H524 0.930 . S
N497 C496 1.373 . S
N497 C499 1.340 . S
N498 C495 1.368 . S
N498 C499 1.321 . S
N498 Co501 2.135 . S
C499 N497 1.340 . S
C499 N498 1.321 . S
C499 H523 0.930 . S
H500 C495 0.931 . S
Co501 N498 2.135 . S
Co501 N504 2.121 . S
Co501 O509 2.055 . S
Co501 O512 2.039 . S
Co501 N515 2.140 . S
C502 O503 1.227 . S
C502 O512 1.265 . S
O503 C502 1.227 . S
N504 Co501 2.121 . S
N504 C506 1.375 . S
N504 C507 1.313 . S
C505 C506 1.338 . S
C505 N508 1.377 . S
C505 H525 0.930 . S
C506 N504 1.375 . S
C506 C505 1.338 . S
C506 H510 0.931 . S
C507 N504 1.313 . S
C507 N508 1.344 . S
C507 H511 0.930 . S
N508 C505 1.377 . S
N508 C507 1.344 . S
O509 Co501 2.055 . S
O509 C513 1.253 . S
H510 C506 0.931 . S
H511 C507 0.930 . S
O512 Co501 2.039 . S
O512 C502 1.265 . S
C513 O509 1.253 . S
C513 O514 1.227 . S
O514 C513 1.227 . S
N515 Co501 2.140 . S
N515 C518 1.346 . S
N515 C519 1.345 . S
C516 C517 1.387 . S
C516 C520 1.391 . S
C517 C516 1.387 . S
C517 C518 1.369 . S
C517 H526 0.929 . S
C518 N515 1.346 . S
C518 C517 1.369 . S
C518 H521 0.928 . S
C519 N515 1.345 . S
C519 C520 1.371 . S
C519 H522 0.931 . S
C520 C516 1.391 . S
C520 C519 1.371 . S
C520 H527 0.930 . S
H521 C518 0.928 . S
H522 C519 0.931 . S
H523 C499 0.930 . S
H524 C496 0.930 . S
H525 C505 0.930 . S
H526 C517 0.929 . S
H527 C520 0.930 . S
C528 C529 1.341 1_565 S
C528 C534 1.399 . S
C528 N536 1.350 1_565 S
C529 C528 1.341 1_545 S
C529 C535 1.363 . S
C530 C531 1.341 1_545 S
C530 C535 1.399 . S
C530 N537 1.350 1_545 S
C531 C530 1.341 1_565 S
C531 C534 1.363 . S
N532 C534 1.356 . S
N532 H544 0.984 . S
N532 H545 0.985 . S
N533 C535 1.356 . S
N533 H538 0.984 . S
N533 H539 0.985 . S
C534 C528 1.399 . S
C534 C531 1.363 . S
C534 N532 1.356 . S
C535 C529 1.363 . S
C535 C530 1.399 . S
C535 N533 1.356 . S
N536 C528 1.350 1_545 S
N536 H542 0.984 1_545 S
N536 H543 0.984 . S
N537 C530 1.350 1_565 S
N537 H540 0.984 . S
N537 H541 0.985 1_565 S
H538 N533 0.984 . S
H539 N533 0.985 . S
H540 N537 0.984 . S
H541 N537 0.985 1_545 S
H542 N536 0.984 1_565 S
H543 N536 0.984 . S
H544 N532 0.984 . S
H545 N532 0.985 . S
C546 C547 1.363 . S
C546 C552 1.379 . S
C546 N554 1.356 . S
C547 C546 1.363 . S
C547 C553 1.363 . S
C548 C549 1.363 . S
C548 C553 1.379 . S
C548 N555 1.356 . S
C549 C548 1.363 . S
C549 C552 1.363 . S
N550 C552 1.356 . S
N550 H562 0.984 . S
N550 H563 0.985 . S
N551 C553 1.356 . S
N551 H556 0.984 . S
N551 H557 0.985 . S
C552 C546 1.379 . S
C552 C549 1.363 . S
C552 N550 1.356 . S
C553 C547 1.363 . S
C553 C548 1.379 . S
C553 N551 1.356 . S
N554 C546 1.356 . S
N554 H560 0.984 . S
N554 H561 0.984 . S
N555 C548 1.356 . S
N555 H558 0.984 . S
N555 H559 0.985 . S
H556 N551 0.984 . S
H557 N551 0.985 . S
H558 N555 0.984 . S
H559 N555 0.985 . S
H560 N554 0.984 . S
H561 N554 0.984 . S
H562 N550 0.984 . S
H563 N550 0.985 . S
C564 C565 1.363 1_565 S
C564 C570 1.379 . S
C564 N572 1.356 1_565 S
C565 C564 1.363 1_545 S
C565 C571 1.363 1_454 S
C566 C567 1.363 1_645 S
C566 C571 1.379 . S
C566 N573 1.356 1_545 S
C567 C566 1.363 1_465 S
C567 C570 1.363 1_556 S
N568 C570 1.356 1_556 S
N568 H580 0.984 1_556 S
N568 H581 0.985 . S
N569 C571 1.356 1_554 S
N569 H574 0.984 . S
N569 H575 0.985 1_554 S
C570 C564 1.379 . S
C570 C567 1.363 1_554 S
C570 N568 1.356 1_554 S
C571 C565 1.363 1_656 S
C571 C566 1.379 . S
C571 N569 1.356 1_556 S
N572 C564 1.356 1_545 S
N572 H578 0.984 1_545 S
N572 H579 0.984 . S
N573 C566 1.356 1_565 S
N573 H576 0.984 . S
N573 H577 0.985 1_565 S
H574 N569 0.984 . S
H575 N569 0.985 1_556 S
H576 N573 0.984 . S
H577 N573 0.985 1_545 S
H578 N572 0.984 1_565 S
H579 N572 0.984 . S
H580 N568 0.984 1_554 S
H581 N568 0.985 . S
C582 C583 1.363 . S
C582 C588 1.379 . S
C582 N590 1.356 . S
C583 C582 1.363 . S
C583 C589 1.363 . S
C584 C585 1.363 . S
C584 C589 1.379 . S
C584 N591 1.356 . S
C585 C584 1.363 . S
C585 C588 1.363 . S
N586 C588 1.356 . S
N586 H598 0.984 . S
N586 H599 0.985 . S
N587 C589 1.356 . S
N587 H592 0.984 . S
N587 H593 0.985 . S
C588 C582 1.379 . S
C588 C585 1.363 . S
C588 N586 1.356 . S
C589 C583 1.363 . S
C589 C584 1.379 . S
C589 N587 1.356 . S
N590 C582 1.356 . S
N590 H596 0.984 . S
N590 H597 0.984 . S
N591 C584 1.356 . S
N591 H594 0.984 . S
N591 H595 0.985 . S
H592 N587 0.984 . S
H593 N587 0.985 . S
H594 N591 0.984 . S
H595 N591 0.985 . S
H596 N590 0.984 . S
H597 N590 0.984 . S
H598 N586 0.984 . S
H599 N586 0.985 . S
C600 C601 1.363 . S
C600 C606 1.379 . S
C600 N608 1.356 . S
C601 C600 1.363 . S
C601 C607 1.363 . S
C602 C603 1.363 . S
C602 C607 1.379 . S
C602 N609 1.356 . S
C603 C602 1.363 . S
C603 C606 1.363 . S
N604 C606 1.356 . S
N604 H616 0.984 . S
N604 H617 0.985 . S
N605 C607 1.356 . S
N605 H610 0.984 . S
N605 H611 0.985 . S
C606 C600 1.379 . S
C606 C603 1.363 . S
C606 N604 1.356 . S
C607 C601 1.363 . S
C607 C602 1.379 . S
C607 N605 1.356 . S
N608 C600 1.356 . S
N608 H614 0.984 . S
N608 H615 0.984 . S
N609 C602 1.356 . S
N609 H612 0.984 . S
N609 H613 0.985 . S
H610 N605 0.984 . S
H611 N605 0.985 . S
H612 N609 0.984 . S
H613 N609 0.985 . S
H614 N608 0.984 . S
H615 N608 0.984 . S
H616 N604 0.984 . S
H617 N604 0.985 . S
C618 C619 1.363 . S
C618 C624 1.379 . S
C618 N626 1.356 . S
C619 C618 1.363 . S
C619 C625 1.363 . S
C620 C621 1.363 . S
C620 C625 1.379 . S
C620 N627 1.356 . S
C621 C620 1.363 . S
C621 C624 1.363 . S
N622 C624 1.356 . S
N622 H634 0.984 . S
N622 H635 0.985 . S
N623 C625 1.356 . S
N623 H628 0.984 . S
N623 H629 0.985 . S
C624 C618 1.379 . S
C624 C621 1.363 . S
C624 N622 1.356 . S
C625 C619 1.363 . S
C625 C620 1.379 . S
C625 N623 1.356 . S
N626 C618 1.356 . S
N626 H632 0.984 . S
N626 H633 0.984 . S
N627 C620 1.356 . S
N627 H630 0.984 . S
N627 H631 0.985 . S
H628 N623 0.984 . S
H629 N623 0.985 . S
H630 N627 0.984 . S
H631 N627 0.985 . S
H632 N626 0.984 . S
H633 N626 0.984 . S
H634 N622 0.984 . S
H635 N622 0.985 . S
C636 C637 1.363 1_554 S
C636 C642 1.379 . S
C636 N644 1.356 1_554 S
C637 C636 1.363 1_556 S
C637 C643 1.363 1_455 S
C638 C639 1.363 1_656 S
C638 C643 1.379 . S
C638 N645 1.356 1_556 S
C639 C638 1.363 1_454 S
C639 C642 1.363 . S
N640 C642 1.356 . S
N640 H652 0.984 . S
N640 H653 0.985 . S
N641 C643 1.356 . S
N641 H646 0.984 . S
N641 H647 0.985 . S
C642 C636 1.379 . S
C642 C639 1.363 . S
C642 N640 1.356 . S
C643 C637 1.363 1_655 S
C643 C638 1.379 . S
C643 N641 1.356 . S
N644 C636 1.356 1_556 S
N644 H650 0.984 1_556 S
N644 H651 0.984 . S
N645 C638 1.356 1_554 S
N645 H648 0.984 . S
N645 H649 0.985 1_554 S
H646 N641 0.984 . S
H647 N641 0.985 . S
H648 N645 0.984 . S
H649 N645 0.985 1_556 S
H650 N644 0.984 1_554 S
H651 N644 0.984 . S
H652 N640 0.984 . S
H653 N640 0.985 . S
C654 C655 1.363 . S
C654 C660 1.379 . S
C654 N662 1.356 . S
C655 C654 1.363 . S
C655 C661 1.363 . S
C656 C657 1.363 . S
C656 C661 1.379 . S
C656 N663 1.356 . S
C657 C656 1.363 . S
C657 C660 1.363 . S
N658 C660 1.356 . S
N658 H670 0.984 . S
N658 H671 0.985 . S
N659 C661 1.356 . S
N659 H664 0.984 . S
N659 H665 0.985 . S
C660 C654 1.379 . S
C660 C657 1.363 . S
C660 N658 1.356 . S
C661 C655 1.363 . S
C661 C656 1.379 . S
C661 N659 1.356 . S
N662 C654 1.356 . S
N662 H668 0.984 . S
N662 H669 0.984 . S
N663 C656 1.356 . S
N663 H666 0.984 . S
N663 H667 0.985 . S
H664 N659 0.984 . S
H665 N659 0.985 . S
H666 N663 0.984 . S
H667 N663 0.985 . S
H668 N662 0.984 . S
H669 N662 0.984 . S
H670 N658 0.984 . S
H671 N658 0.985 . S
C672 C673 1.363 . S
C672 C678 1.379 . S
C672 N680 1.356 . S
C673 C672 1.363 . S
C673 C679 1.363 . S
C674 C675 1.363 . S
C674 C679 1.379 . S
C674 N681 1.356 1_554 S
C675 C674 1.363 . S
C675 C678 1.363 . S
N676 C678 1.356 . S
N676 H688 0.984 . S
N676 H689 0.985 . S
N677 C679 1.356 . S
N677 H682 0.984 . S
N677 H683 0.985 . S
C678 C672 1.379 . S
C678 C675 1.363 . S
C678 N676 1.356 . S
C679 C673 1.363 . S
C679 C674 1.379 . S
C679 N677 1.356 . S
N680 C672 1.356 . S
N680 H686 0.984 . S
N680 H687 0.984 . S
N681 C674 1.356 1_556 S
N681 H684 0.984 . S
N681 H685 0.985 . S
H682 N677 0.984 . S
H683 N677 0.985 . S
H684 N681 0.984 . S
H685 N681 0.985 . S
H686 N680 0.984 . S
H687 N680 0.984 . S
H688 N676 0.984 . S
H689 N676 0.985 . S
C690 C691 1.363 . S
C690 C696 1.379 . S
C690 N698 1.356 . S
C691 C690 1.363 . S
C691 C697 1.363 . S
C692 C693 1.363 . S
C692 C697 1.379 . S
C692 N699 1.356 . S
C693 C692 1.363 . S
C693 C696 1.363 . S
N694 C696 1.356 . S
N694 H706 0.984 . S
N694 H707 0.985 . S
N695 C697 1.356 . S
N695 H700 0.984 . S
N695 H701 0.985 . S
C696 C690 1.379 . S
C696 C693 1.363 . S
C696 N694 1.356 . S
C697 C691 1.363 . S
C697 C692 1.379 . S
C697 N695 1.356 . S
N698 C690 1.356 . S
N698 H704 0.984 . S
N698 H705 0.984 . S
N699 C692 1.356 . S
N699 H702 0.984 . S
N699 H703 0.985 . S
H700 N695 0.984 . S
H701 N695 0.985 . S
H702 N699 0.984 . S
H703 N699 0.985 . S
H704 N698 0.984 . S
H705 N698 0.984 . S
H706 N694 0.984 . S
H707 N694 0.985 . S
C708 C709 1.363 . S
C708 C714 1.379 . S
C708 N716 1.356 . S
C709 C708 1.363 . S
C709 C715 1.363 . S
C710 C711 1.363 . S
C710 C715 1.379 . S
C710 N717 1.356 . S
C711 C710 1.363 . S
C711 C714 1.363 . S
N712 C714 1.356 . S
N712 H724 0.984 . S
N712 H725 0.985 . S
N713 C715 1.356 . S
N713 H718 0.984 . S
N713 H719 0.985 . S
C714 C708 1.379 . S
C714 C711 1.363 . S
C714 N712 1.356 . S
C715 C709 1.363 . S
C715 C710 1.379 . S
C715 N713 1.356 . S
N716 C708 1.356 . S
N716 H722 0.984 . S
N716 H723 0.984 . S
N717 C710 1.356 . S
N717 H720 0.984 . S
N717 H721 0.985 . S
H718 N713 0.984 . S
H719 N713 0.985 . S
H720 N717 0.984 . S
H721 N717 0.985 . S
H722 N716 0.984 . S
H723 N716 0.984 . S
H724 N712 0.984 . S
H725 N712 0.985 . S
C726 C727 1.363 . S
C726 C732 1.379 . S
C726 N734 1.356 . S
C727 C726 1.363 . S
C727 C733 1.363 . S
C728 C729 1.363 . S
C728 C733 1.379 . S
C728 N735 1.356 . S
C729 C728 1.363 . S
C729 C732 1.363 . S
N730 C732 1.356 . S
N730 H742 0.984 . S
N730 H743 0.985 . S
N731 C733 1.356 . S
N731 H736 0.984 . S
N731 H737 0.985 . S
C732 C726 1.379 . S
C732 C729 1.363 . S
C732 N730 1.356 . S
C733 C727 1.363 . S
C733 C728 1.379 . S
C733 N731 1.356 . S
N734 C726 1.356 . S
N734 H740 0.984 . S
N734 H741 0.984 . S
N735 C728 1.356 . S
N735 H738 0.984 . S
N735 H739 0.985 . S
H736 N731 0.984 . S
H737 N731 0.985 . S
H738 N735 0.984 . S
H739 N735 0.985 . S
H740 N734 0.984 . S
H741 N734 0.984 . S
H742 N730 0.984 . S
H743 N730 0.985 . S
C744 C745 1.363 . S
C744 C750 1.379 . S
C744 N752 1.356 . S
C745 C744 1.363 . S
C745 C751 1.363 . S
C746 C747 1.363 . S
C746 C751 1.379 . S
C746 N753 1.356 . S
C747 C746 1.363 . S
C747 C750 1.363 . S
N748 C750 1.356 . S
N748 H760 0.984 . S
N748 H761 0.985 . S
N749 C751 1.356 . S
N749 H754 0.984 . S
N749 H755 0.985 . S
C750 C744 1.379 . S
C750 C747 1.363 . S
C750 N748 1.356 . S
C751 C745 1.363 . S
C751 C746 1.379 . S
C751 N749 1.356 . S
N752 C744 1.356 . S
N752 H758 0.984 . S
N752 H759 0.984 . S
N753 C746 1.356 . S
N753 H756 0.984 1_556 S
N753 H757 0.985 . S
H754 N749 0.984 . S
H755 N749 0.985 . S
H756 N753 0.984 1_554 S
H757 N753 0.985 . S
H758 N752 0.984 . S
H759 N752 0.984 . S
H760 N748 0.984 . S
H761 N748 0.985 . S
C762 C763 1.363 . S
C762 C768 1.379 . S
C762 N770 1.356 . S
C763 C762 1.363 . S
C763 C769 1.363 . S
C764 C765 1.363 . S
C764 C769 1.379 . S
C764 N771 1.356 . S
C765 C764 1.363 . S
C765 C768 1.363 . S
N766 C768 1.356 . S
N766 H778 0.984 . S
N766 H779 0.985 . S
N767 C769 1.356 . S
N767 H772 0.984 . S
N767 H773 0.985 . S
C768 C762 1.379 . S
C768 C765 1.363 . S
C768 N766 1.356 . S
C769 C763 1.363 . S
C769 C764 1.379 . S
C769 N767 1.356 . S
N770 C762 1.356 . S
N770 H776 0.984 . S
N770 H777 0.984 . S
N771 C764 1.356 . S
N771 H774 0.984 . S
N771 H775 0.985 . S
H772 N767 0.984 . S
H773 N767 0.985 . S
H774 N771 0.984 . S
H775 N771 0.985 . S
H776 N770 0.984 . S
H777 N770 0.984 . S
H778 N766 0.984 . S
H779 N766 0.985 . S
C780 C781 1.363 . S
C780 C786 1.379 . S
C780 N788 1.356 . S
C781 C780 1.363 . S
C781 C787 1.363 . S
C782 C783 1.363 . S
C782 C787 1.379 . S
C782 N789 1.356 . S
C783 C782 1.363 . S
C783 C786 1.363 . S
N784 C786 1.356 . S
N784 H796 0.984 . S
N784 H797 0.985 . S
N785 C787 1.356 . S
N785 H790 0.984 . S
N785 H791 0.985 1_655 S
C786 C780 1.379 . S
C786 C783 1.363 . S
C786 N784 1.356 . S
C787 C781 1.363 . S
C787 C782 1.379 . S
C787 N785 1.356 . S
N788 C780 1.356 . S
N788 H794 0.984 . S
N788 H795 0.984 . S
N789 C782 1.356 . S
N789 H792 0.984 . S
N789 H793 0.985 . S
H790 N785 0.984 . S
H791 N785 0.985 1_455 S
H792 N789 0.984 . S
H793 N789 0.985 . S
H794 N788 0.984 . S
H795 N788 0.984 . S
H796 N784 0.984 . S
H797 N784 0.985 . S
C798 C799 1.363 . S
C798 C804 1.379 . S
C798 N806 1.356 . S
C799 C798 1.363 . S
C799 C805 1.363 . S
C800 C801 1.363 . S
C800 C805 1.379 . S
C800 N807 1.356 . S
C801 C800 1.363 . S
C801 C804 1.363 . S
N802 C804 1.356 . S
N802 H814 0.984 . S
N802 H815 0.985 . S
N803 C805 1.356 . S
N803 H808 0.984 . S
N803 H809 0.985 . S
C804 C798 1.379 . S
C804 C801 1.363 . S
C804 N802 1.356 . S
C805 C799 1.363 . S
C805 C800 1.379 . S
C805 N803 1.356 . S
N806 C798 1.356 . S
N806 H812 0.984 . S
N806 H813 0.984 . S
N807 C800 1.356 . S
N807 H810 0.984 . S
N807 H811 0.985 . S
H808 N803 0.984 . S
H809 N803 0.985 . S
H810 N807 0.984 . S
H811 N807 0.985 . S
H812 N806 0.984 . S
H813 N806 0.984 . S
H814 N802 0.984 . S
H815 N802 0.985 . S
C816 C817 1.363 . S
C816 C822 1.379 . S
C816 N824 1.356 . S
C817 C816 1.363 . S
C817 C823 1.363 . S
C818 C819 1.363 . S
C818 C823 1.379 . S
C818 N825 1.356 . S
C819 C818 1.363 . S
C819 C822 1.363 . S
N820 C822 1.356 . S
N820 H832 0.984 . S
N820 H833 0.985 . S
N821 C823 1.356 . S
N821 H826 0.984 . S
N821 H827 0.985 . S
C822 C816 1.379 . S
C822 C819 1.363 . S
C822 N820 1.356 . S
C823 C817 1.363 . S
C823 C818 1.379 . S
C823 N821 1.356 . S
N824 C816 1.356 . S
N824 H830 0.984 . S
N824 H831 0.984 . S
N825 C818 1.356 . S
N825 H828 0.984 . S
N825 H829 0.985 . S
H826 N821 0.984 . S
H827 N821 0.985 . S
H828 N825 0.984 . S
H829 N825 0.985 . S
H830 N824 0.984 . S
H831 N824 0.984 . S
H832 N820 0.984 . S
H833 N820 0.985 . S
C834 C835 1.363 . S
C834 C840 1.379 . S
C834 N842 1.356 1_556 S
C835 C834 1.363 . S
C835 C841 1.363 . S
C836 C837 1.363 . S
C836 C841 1.379 . S
C836 N843 1.356 . S
C837 C836 1.363 . S
C837 C840 1.363 . S
N838 C840 1.356 . S
N838 H850 0.984 . S
N838 H851 0.985 . S
N839 C841 1.356 . S
N839 H844 0.984 . S
N839 H845 0.985 . S
C840 C834 1.379 . S
C840 C837 1.363 . S
C840 N838 1.356 . S
C841 C835 1.363 . S
C841 C836 1.379 . S
C841 N839 1.356 . S
N842 C834 1.356 1_554 S
N842 H848 0.984 . S
N842 H849 0.984 . S
N843 C836 1.356 . S
N843 H846 0.984 . S
N843 H847 0.985 . S
H844 N839 0.984 . S
H845 N839 0.985 . S
H846 N843 0.984 . S
H847 N843 0.985 . S
H848 N842 0.984 . S
H849 N842 0.984 . S
H850 N838 0.984 . S
H851 N838 0.985 . S
C852 C853 1.363 . S
C852 C858 1.379 . S
C852 N860 1.356 1_554 S
C853 C852 1.363 . S
C853 C859 1.363 . S
C854 C855 1.363 . S
C854 C859 1.379 . S
C854 N861 1.356 . S
C855 C854 1.363 . S
C855 C858 1.363 . S
N856 C858 1.356 . S
N856 H868 0.984 . S
N856 H869 0.985 . S
N857 C859 1.356 . S
N857 H862 0.984 . S
N857 H863 0.985 . S
C858 C852 1.379 . S
C858 C855 1.363 . S
C858 N856 1.356 . S
C859 C853 1.363 . S
C859 C854 1.379 . S
C859 N857 1.356 . S
N860 C852 1.356 1_556 S
N860 H866 0.984 . S
N860 H867 0.984 . S
N861 C854 1.356 . S
N861 H864 0.984 . S
N861 H865 0.985 . S
H862 N857 0.984 . S
H863 N857 0.985 . S
H864 N861 0.984 . S
H865 N861 0.985 . S
H866 N860 0.984 . S
H867 N860 0.984 . S
H868 N856 0.984 . S
H869 N856 0.985 . S
C870 C871 1.363 . S
C870 C876 1.379 . S
C870 N878 1.356 . S
C871 C870 1.363 . S
C871 C877 1.363 . S
C872 C873 1.363 . S
C872 C877 1.379 . S
C872 N879 1.356 . S
C873 C872 1.363 . S
C873 C876 1.363 . S
N874 C876 1.356 . S
N874 H886 0.984 . S
N874 H887 0.985 . S
N875 C877 1.356 . S
N875 H880 0.984 . S
N875 H881 0.985 . S
C876 C870 1.379 . S
C876 C873 1.363 . S
C876 N874 1.356 . S
C877 C871 1.363 . S
C877 C872 1.379 . S
C877 N875 1.356 . S
N878 C870 1.356 . S
N878 H884 0.984 . S
N878 H885 0.984 . S
N879 C872 1.356 . S
N879 H882 0.984 . S
N879 H883 0.985 . S
H880 N875 0.984 . S
H881 N875 0.985 . S
H882 N879 0.984 . S
H883 N879 0.985 . S
H884 N878 0.984 . S
H885 N878 0.984 . S
H886 N874 0.984 . S
H887 N874 0.985 . S
C888 C889 1.363 . S
C888 C894 1.379 . S
C888 N896 1.356 . S
C889 C888 1.363 . S
C889 C895 1.363 . S
C890 C891 1.363 . S
C890 C895 1.379 . S
C890 N897 1.356 . S
C891 C890 1.363 . S
C891 C894 1.363 . S
N892 C894 1.356 . S
N892 H904 0.984 . S
N892 H905 0.985 . S
N893 C895 1.356 . S
N893 H898 0.984 . S
N893 H899 0.985 . S
C894 C888 1.379 . S
C894 C891 1.363 . S
C894 N892 1.356 . S
C895 C889 1.363 . S
C895 C890 1.379 . S
C895 N893 1.356 . S
N896 C888 1.356 . S
N896 H902 0.984 . S
N896 H903 0.984 . S
N897 C890 1.356 . S
N897 H900 0.984 . S
N897 H901 0.985 . S
H898 N893 0.984 . S
H899 N893 0.985 . S
H900 N897 0.984 . S
H901 N897 0.985 . S
H902 N896 0.984 . S
H903 N896 0.984 . S
H904 N892 0.984 . S
H905 N892 0.985 . S
C906 C907 1.363 . S
C906 C912 1.379 . S
C906 N914 1.356 . S
C907 C906 1.363 . S
C907 C913 1.363 . S
C908 C909 1.363 . S
C908 C913 1.379 . S
C908 N915 1.356 . S
C909 C908 1.363 . S
C909 C912 1.363 . S
N910 C912 1.356 . S
N910 H922 0.984 . S
N910 H923 0.985 . S
N911 C913 1.356 1_556 S
N911 H916 0.984 . S
N911 H917 0.985 . S
C912 C906 1.379 . S
C912 C909 1.363 . S
C912 N910 1.356 . S
C913 C907 1.363 . S
C913 C908 1.379 . S
C913 N911 1.356 1_554 S
N914 C906 1.356 . S
N914 H920 0.984 . S
N914 H921 0.984 . S
N915 C908 1.356 . S
N915 H918 0.984 . S
N915 H919 0.985 . S
H916 N911 0.984 . S
H917 N911 0.985 . S
H918 N915 0.984 . S
H919 N915 0.985 . S
H920 N914 0.984 . S
H921 N914 0.984 . S
H922 N910 0.984 . S
H923 N910 0.985 . S
C924 C925 1.363 . S
C924 C930 1.379 . S
C924 N932 1.356 1_556 S
C925 C924 1.363 . S
C925 C931 1.363 . S
C926 C927 1.363 . S
C926 C931 1.379 . S
C926 N933 1.356 . S
C927 C926 1.363 . S
C927 C930 1.363 . S
N928 C930 1.356 . S
N928 H940 0.984 . S
N928 H941 0.985 . S
N929 C931 1.356 . S
N929 H934 0.984 . S
N929 H935 0.985 . S
C930 C924 1.379 . S
C930 C927 1.363 . S
C930 N928 1.356 . S
C931 C925 1.363 . S
C931 C926 1.379 . S
C931 N929 1.356 . S
N932 C924 1.356 1_554 S
N932 H938 0.984 . S
N932 H939 0.984 . S
N933 C926 1.356 . S
N933 H936 0.984 . S
N933 H937 0.985 . S
H934 N929 0.984 . S
H935 N929 0.985 . S
H936 N933 0.984 . S
H937 N933 0.985 . S
H938 N932 0.984 . S
H939 N932 0.984 . S
H940 N928 0.984 . S
H941 N928 0.985 . S
C942 C943 1.363 . S
C942 C948 1.379 . S
C942 N950 1.356 . S
C943 C942 1.363 . S
C943 C949 1.363 . S
C944 C945 1.363 . S
C944 C949 1.379 . S
C944 N951 1.356 . S
C945 C944 1.363 . S
C945 C948 1.363 . S
N946 C948 1.356 . S
N946 H958 0.984 . S
N946 H959 0.985 . S
N947 C949 1.356 . S
N947 H952 0.984 . S
N947 H953 0.985 . S
C948 C942 1.379 . S
C948 C945 1.363 . S
C948 N946 1.356 . S
C949 C943 1.363 . S
C949 C944 1.379 . S
C949 N947 1.356 . S
N950 C942 1.356 . S
N950 H956 0.984 . S
N950 H957 0.984 . S
N951 C944 1.356 . S
N951 H954 0.984 . S
N951 H955 0.985 . S
H952 N947 0.984 . S
H953 N947 0.985 . S
H954 N951 0.984 . S
H955 N951 0.985 . S
H956 N950 0.984 . S
H957 N950 0.984 . S
H958 N946 0.984 . S
H959 N946 0.985 . S
C960 C961 1.363 . S
C960 C966 1.379 . S
C960 N968 1.356 . S
C961 C960 1.363 . S
C961 C967 1.363 . S
C962 C963 1.363 . S
C962 C967 1.379 . S
C962 N969 1.356 . S
C963 C962 1.363 . S
C963 C966 1.363 . S
N964 C966 1.356 . S
N964 H976 0.984 . S
N964 H977 0.985 . S
N965 C967 1.356 . S
N965 H970 0.984 . S
N965 H971 0.985 . S
C966 C960 1.379 . S
C966 C963 1.363 . S
C966 N964 1.356 . S
C967 C961 1.363 . S
C967 C962 1.379 . S
C967 N965 1.356 . S
N968 C960 1.356 . S
N968 H974 0.984 . S
N968 H975 0.984 . S
N969 C962 1.356 . S
N969 H972 0.984 . S
N969 H973 0.985 . S
H970 N965 0.984 . S
H971 N965 0.985 . S
H972 N969 0.984 . S
H973 N969 0.985 . S
H974 N968 0.984 . S
H975 N968 0.984 . S
H976 N964 0.984 . S
H977 N964 0.985 . S
C978 C979 1.363 . S
C978 C984 1.379 . S
C978 N986 1.356 . S
C979 C978 1.363 . S
C979 C985 1.363 . S
C980 C981 1.363 . S
C980 C985 1.379 . S
C980 N987 1.356 . S
C981 C980 1.363 . S
C981 C984 1.363 . S
N982 C984 1.356 . S
N982 H994 0.984 . S
N982 H995 0.985 . S
N983 C985 1.356 . S
N983 H988 0.984 1_556 S
N983 H989 0.985 . S
C984 C978 1.379 . S
C984 C981 1.363 . S
C984 N982 1.356 . S
C985 C979 1.363 . S
C985 C980 1.379 . S
C985 N983 1.356 . S
N986 C978 1.356 . S
N986 H992 0.984 . S
N986 H993 0.984 . S
N987 C980 1.356 . S
N987 H990 0.984 . S
N987 H991 0.985 . S
H988 N983 0.984 1_554 S
H989 N983 0.985 . S
H990 N987 0.984 . S
H991 N987 0.985 . S
H992 N986 0.984 . S
H993 N986 0.984 . S
H994 N982 0.984 . S
H995 N982 0.985 . S
C996 C997 1.363 . S
C996 C1002 1.379 . S
C996 N1004 1.356 . S
C997 C996 1.363 . S
C997 C1003 1.363 . S
C998 C999 1.363 . S
C998 C1003 1.379 . S
C998 N1005 1.356 . S
C999 C998 1.363 . S
C999 C1002 1.363 . S
N1000 C1002 1.356 . S
N1000 H1012 0.984 . S
N1000 H1013 0.985 . S
N1001 C1003 1.356 . S
N1001 H1006 0.984 . S
N1001 H1007 0.985 . S
C1002 C996 1.379 . S
C1002 C999 1.363 . S
C1002 N1000 1.356 . S
C1003 C997 1.363 . S
C1003 C998 1.379 . S
C1003 N1001 1.356 . S
N1004 C996 1.356 . S
N1004 H1010 0.984 1_554 S
N1004 H1011 0.984 1_554 S
N1005 C998 1.356 . S
N1005 H1008 0.984 . S
N1005 H1009 0.985 . S
H1006 N1001 0.984 . S
H1007 N1001 0.985 . S
H1008 N1005 0.984 . S
H1009 N1005 0.985 . S
H1010 N1004 0.984 1_556 S
H1011 N1004 0.984 1_556 S
H1012 N1000 0.984 . S
H1013 N1000 0.985 . S
C1014 C1015 1.363 . S
C1014 C1020 1.379 . S
C1014 N1022 1.356 . S
C1015 C1014 1.363 . S
C1015 C1021 1.363 . S
C1016 C1017 1.363 . S
C1016 C1021 1.379 . S
C1016 N1023 1.356 . S
C1017 C1016 1.363 . S
C1017 C1020 1.363 . S
N1018 C1020 1.356 . S
N1018 H1030 0.984 . S
N1018 H1031 0.985 . S
N1019 C1021 1.356 . S
N1019 H1024 0.984 . S
N1019 H1025 0.985 . S
C1020 C1014 1.379 . S
C1020 C1017 1.363 . S
C1020 N1018 1.356 . S
C1021 C1015 1.363 . S
C1021 C1016 1.379 . S
C1021 N1019 1.356 . S
N1022 C1014 1.356 . S
N1022 H1028 0.984 . S
N1022 H1029 0.984 . S
N1023 C1016 1.356 . S
N1023 H1026 0.984 . S
N1023 H1027 0.985 . S
H1024 N1019 0.984 . S
H1025 N1019 0.985 . S
H1026 N1023 0.984 . S
H1027 N1023 0.985 . S
H1028 N1022 0.984 . S
H1029 N1022 0.984 . S
H1030 N1018 0.984 . S
H1031 N1018 0.985 . S
C1032 C1033 1.363 . S
C1032 C1038 1.379 . S
C1032 N1040 1.356 . S
C1033 C1032 1.363 . S
C1033 C1039 1.363 . S
C1034 C1035 1.363 . S
C1034 C1039 1.379 . S
C1034 N1041 1.356 . S
C1035 C1034 1.363 . S
C1035 C1038 1.363 . S
N1036 C1038 1.356 . S
N1036 H1048 0.984 . S
N1036 H1049 0.985 . S
N1037 C1039 1.356 . S
N1037 H1042 0.984 . S
N1037 H1043 0.985 . S
C1038 C1032 1.379 . S
C1038 C1035 1.363 . S
C1038 N1036 1.356 . S
C1039 C1033 1.363 . S
C1039 C1034 1.379 . S
C1039 N1037 1.356 . S
N1040 C1032 1.356 . S
N1040 H1046 0.984 . S
N1040 H1047 0.984 . S
N1041 C1034 1.356 . S
N1041 H1044 0.984 . S
N1041 H1045 0.985 . S
H1042 N1037 0.984 . S
H1043 N1037 0.985 . S
H1044 N1041 0.984 . S
H1045 N1041 0.985 . S
H1046 N1040 0.984 . S
H1047 N1040 0.984 . S
H1048 N1036 0.984 . S
H1049 N1036 0.985 . S
C1050 C1051 1.363 . S
C1050 C1056 1.379 . S
C1050 N1058 1.356 . S
C1051 C1050 1.363 . S
C1051 C1057 1.363 . S
C1052 C1053 1.363 . S
C1052 C1057 1.379 . S
C1052 N1059 1.356 1_554 S
C1053 C1052 1.363 . S
C1053 C1056 1.363 . S
N1054 C1056 1.356 . S
N1054 H1066 0.984 . S
N1054 H1067 0.985 . S
N1055 C1057 1.356 . S
N1055 H1060 0.984 . S
N1055 H1061 0.985 . S
C1056 C1050 1.379 . S
C1056 C1053 1.363 . S
C1056 N1054 1.356 . S
C1057 C1051 1.363 . S
C1057 C1052 1.379 . S
C1057 N1055 1.356 . S
N1058 C1050 1.356 . S
N1058 H1064 0.984 . S
N1058 H1065 0.984 . S
N1059 C1052 1.356 1_556 S
N1059 H1062 0.984 . S
N1059 H1063 0.985 . S
H1060 N1055 0.984 . S
H1061 N1055 0.985 . S
H1062 N1059 0.984 . S
H1063 N1059 0.985 . S
H1064 N1058 0.984 . S
H1065 N1058 0.984 . S
H1066 N1054 0.984 . S
H1067 N1054 0.985 . S
C1068 C1069 1.363 . S
C1068 C1074 1.379 . S
C1068 N1076 1.356 . S
C1069 C1068 1.363 . S
C1069 C1075 1.363 . S
C1070 C1071 1.363 . S
C1070 C1075 1.379 . S
C1070 N1077 1.356 . S
C1071 C1070 1.363 . S
C1071 C1074 1.363 . S
N1072 C1074 1.356 . S
N1072 H1084 0.984 . S
N1072 H1085 0.985 . S
N1073 C1075 1.356 . S
N1073 H1078 0.984 . S
N1073 H1079 0.985 . S
C1074 C1068 1.379 . S
C1074 C1071 1.363 . S
C1074 N1072 1.356 . S
C1075 C1069 1.363 . S
C1075 C1070 1.379 . S
C1075 N1073 1.356 . S
N1076 C1068 1.356 . S
N1076 H1082 0.984 . S
N1076 H1083 0.984 . S
N1077 C1070 1.356 . S
N1077 H1080 0.984 . S
N1077 H1081 0.985 . S
H1078 N1073 0.984 . S
H1079 N1073 0.985 . S
H1080 N1077 0.984 . S
H1081 N1077 0.985 . S
H1082 N1076 0.984 . S
H1083 N1076 0.984 . S
H1084 N1072 0.984 . S
H1085 N1072 0.985 . S
C1086 C1087 1.363 . S
C1086 C1092 1.379 . S
C1086 N1094 1.356 . S
C1087 C1086 1.363 . S
C1087 C1093 1.363 . S
C1088 C1089 1.363 . S
C1088 C1093 1.379 . S
C1088 N1095 1.356 . S
C1089 C1088 1.363 . S
C1089 C1092 1.363 . S
N1090 C1092 1.356 . S
N1090 H1102 0.984 . S
N1090 H1103 0.985 . S
N1091 C1093 1.356 . S
N1091 H1096 0.984 . S
N1091 H1097 0.985 . S
C1092 C1086 1.379 . S
C1092 C1089 1.363 . S
C1092 N1090 1.356 . S
C1093 C1087 1.363 . S
C1093 C1088 1.379 . S
C1093 N1091 1.356 . S
N1094 C1086 1.356 . S
N1094 H1100 0.984 . S
N1094 H1101 0.984 . S
N1095 C1088 1.356 . S
N1095 H1098 0.984 . S
N1095 H1099 0.985 . S
H1096 N1091 0.984 . S
H1097 N1091 0.985 . S
H1098 N1095 0.984 . S
H1099 N1095 0.985 . S
H1100 N1094 0.984 . S
H1101 N1094 0.984 . S
H1102 N1090 0.984 . S
H1103 N1090 0.985 . S
C1104 C1105 1.363 . S
C1104 C1110 1.379 . S
C1104 N1112 1.356 . S
C1105 C1104 1.363 . S
C1105 C1111 1.363 . S
C1106 C1107 1.363 . S
C1106 C1111 1.379 . S
C1106 N1113 1.356 . S
C1107 C1106 1.363 . S
C1107 C1110 1.363 . S
N1108 C1110 1.356 . S
N1108 H1120 0.984 . S
N1108 H1121 0.985 . S
N1109 C1111 1.356 . S
N1109 H1114 0.984 . S
N1109 H1115 0.985 . S
C1110 C1104 1.379 . S
C1110 C1107 1.363 . S
C1110 N1108 1.356 . S
C1111 C1105 1.363 . S
C1111 C1106 1.379 . S
C1111 N1109 1.356 . S
N1112 C1104 1.356 . S
N1112 H1118 0.984 . S
N1112 H1119 0.984 1_554 S
N1113 C1106 1.356 . S
N1113 H1116 0.984 . S
N1113 H1117 0.985 . S
H1114 N1109 0.984 . S
H1115 N1109 0.985 . S
H1116 N1113 0.984 . S
H1117 N1113 0.985 . S
H1118 N1112 0.984 . S
H1119 N1112 0.984 1_556 S
H1120 N1108 0.984 . S
H1121 N1108 0.985 . S
C1122 C1123 1.363 . S
C1122 C1128 1.379 . S
C1122 N1130 1.356 . S
C1123 C1122 1.363 . S
C1123 C1129 1.363 . S
C1124 C1125 1.363 . S
C1124 C1129 1.379 . S
C1124 N1131 1.356 . S
C1125 C1124 1.363 . S
C1125 C1128 1.363 . S
N1126 C1128 1.356 . S
N1126 H1138 0.984 . S
N1126 H1139 0.985 . S
N1127 C1129 1.356 . S
N1127 H1132 0.984 . S
N1127 H1133 0.985 . S
C1128 C1122 1.379 . S
C1128 C1125 1.363 . S
C1128 N1126 1.356 . S
C1129 C1123 1.363 . S
C1129 C1124 1.379 . S
C1129 N1127 1.356 . S
N1130 C1122 1.356 . S
N1130 H1136 0.984 . S
N1130 H1137 0.984 . S
N1131 C1124 1.356 . S
N1131 H1134 0.984 . S
N1131 H1135 0.985 . S
H1132 N1127 0.984 . S
H1133 N1127 0.985 . S
H1134 N1131 0.984 . S
H1135 N1131 0.985 . S
H1136 N1130 0.984 . S
H1137 N1130 0.984 . S
H1138 N1126 0.984 . S
H1139 N1126 0.985 . S
C1140 C1141 1.363 . S
C1140 C1146 1.379 . S
C1140 N1148 1.356 . S
C1141 C1140 1.363 . S
C1141 C1147 1.363 . S
C1142 C1143 1.363 . S
C1142 C1147 1.379 . S
C1142 N1149 1.356 . S
C1143 C1142 1.363 . S
C1143 C1146 1.363 . S
N1144 C1146 1.356 . S
N1144 H1156 0.984 . S
N1144 H1157 0.985 . S
N1145 C1147 1.356 . S
N1145 H1150 0.984 . S
N1145 H1151 0.985 . S
C1146 C1140 1.379 . S
C1146 C1143 1.363 . S
C1146 N1144 1.356 . S
C1147 C1141 1.363 . S
C1147 C1142 1.379 . S
C1147 N1145 1.356 . S
N1148 C1140 1.356 . S
N1148 H1154 0.984 . S
N1148 H1155 0.984 . S
N1149 C1142 1.356 . S
N1149 H1152 0.984 . S
N1149 H1153 0.985 . S
H1150 N1145 0.984 . S
H1151 N1145 0.985 . S
H1152 N1149 0.984 . S
H1153 N1149 0.985 . S
H1154 N1148 0.984 . S
H1155 N1148 0.984 . S
H1156 N1144 0.984 . S
H1157 N1144 0.985 . S
C1158 C1159 1.363 . S
C1158 C1164 1.379 . S
C1158 N1166 1.356 . S
C1159 C1158 1.363 . S
C1159 C1165 1.363 . S
C1160 C1161 1.363 . S
C1160 C1165 1.379 . S
C1160 N1167 1.356 . S
C1161 C1160 1.363 . S
C1161 C1164 1.363 . S
N1162 C1164 1.356 . S
N1162 H1174 0.984 . S
N1162 H1175 0.985 . S
N1163 C1165 1.356 . S
N1163 H1168 0.984 . S
N1163 H1169 0.985 . S
C1164 C1158 1.379 . S
C1164 C1161 1.363 . S
C1164 N1162 1.356 . S
C1165 C1159 1.363 . S
C1165 C1160 1.379 . S
C1165 N1163 1.356 . S
N1166 C1158 1.356 . S
N1166 H1172 0.984 . S
N1166 H1173 0.989 . S
N1167 C1160 1.356 . S
N1167 H1170 0.984 . S
N1167 H1171 0.985 . S
H1168 N1163 0.984 . S
H1169 N1163 0.985 . S
H1170 N1167 0.984 . S
H1171 N1167 0.985 . S
H1172 N1166 0.984 . S
H1173 N1166 0.989 . S
H1174 N1162 0.984 . S
H1175 N1162 0.985 . S
C1176 C1177 1.363 . S
C1176 C1182 1.379 . S
C1176 N1184 1.356 . S
C1177 C1176 1.363 . S
C1177 C1183 1.363 . S
C1178 C1179 1.363 . S
C1178 C1183 1.379 . S
C1178 N1185 1.356 1_556 S
C1179 C1178 1.363 . S
C1179 C1182 1.363 . S
N1180 C1182 1.356 . S
N1180 H1192 0.984 . S
N1180 H1193 0.985 . S
N1181 C1183 1.356 . S
N1181 H1186 0.984 . S
N1181 H1187 0.985 . S
C1182 C1176 1.379 . S
C1182 C1179 1.363 . S
C1182 N1180 1.356 . S
C1183 C1177 1.363 . S
C1183 C1178 1.379 . S
C1183 N1181 1.356 . S
N1184 C1176 1.356 . S
N1184 H1190 0.984 . S
N1184 H1191 0.984 . S
N1185 C1178 1.356 1_554 S
N1185 H1188 0.984 . S
N1185 H1189 0.985 . S
H1186 N1181 0.984 . S
H1187 N1181 0.985 . S
H1188 N1185 0.984 . S
H1189 N1185 0.985 . S
H1190 N1184 0.984 . S
H1191 N1184 0.984 . S
H1192 N1180 0.984 . S
H1193 N1180 0.985 . S
C1194 C1195 1.363 . S
C1194 C1200 1.379 . S
C1194 N1202 1.356 . S
C1195 C1194 1.363 . S
C1195 C1201 1.363 . S
C1196 C1197 1.363 . S
C1196 C1201 1.379 . S
C1196 N1203 1.356 . S
C1197 C1196 1.363 . S
C1197 C1200 1.363 . S
N1198 C1200 1.356 . S
N1198 H1210 0.984 . S
N1198 H1211 0.985 . S
N1199 C1201 1.356 . S
N1199 H1204 0.984 . S
N1199 H1205 0.985 . S
C1200 C1194 1.379 . S
C1200 C1197 1.363 . S
C1200 N1198 1.356 . S
C1201 C1195 1.363 . S
C1201 C1196 1.379 . S
C1201 N1199 1.356 . S
N1202 C1194 1.356 . S
N1202 H1208 0.984 . S
N1202 H1209 0.984 . S
N1203 C1196 1.356 . S
N1203 H1206 0.984 . S
N1203 H1207 0.985 . S
H1204 N1199 0.984 . S
H1205 N1199 0.985 . S
H1206 N1203 0.984 . S
H1207 N1203 0.985 . S
H1208 N1202 0.984 . S
H1209 N1202 0.984 . S
H1210 N1198 0.984 . S
H1211 N1198 0.985 . S
C1212 C1213 1.363 . S
C1212 C1218 1.379 . S
C1212 N1220 1.356 . S
C1213 C1212 1.363 . S
C1213 C1219 1.363 . S
C1214 C1215 1.363 . S
C1214 C1219 1.379 . S
C1214 N1221 1.356 . S
C1215 C1214 1.363 . S
C1215 C1218 1.363 . S
N1216 C1218 1.356 . S
N1216 H1228 0.984 . S
N1216 H1229 0.985 . S
N1217 C1219 1.356 . S
N1217 H1222 0.984 . S
N1217 H1223 0.985 . S
C1218 C1212 1.379 . S
C1218 C1215 1.363 . S
C1218 N1216 1.356 . S
C1219 C1213 1.363 . S
C1219 C1214 1.379 . S
C1219 N1217 1.356 . S
N1220 C1212 1.356 . S
N1220 H1226 0.984 . S
N1220 H1227 0.984 . S
N1221 C1214 1.356 . S
N1221 H1224 0.984 . S
N1221 H1225 0.985 . S
H1222 N1217 0.984 . S
H1223 N1217 0.985 . S
H1224 N1221 0.984 . S
H1225 N1221 0.985 . S
H1226 N1220 0.984 . S
H1227 N1220 0.984 . S
H1228 N1216 0.984 . S
H1229 N1216 0.985 . S
C1230 C1231 1.363 . S
C1230 C1236 1.379 . S
C1230 N1238 1.356 . S
C1231 C1230 1.363 . S
C1231 C1237 1.363 . S
C1232 C1233 1.363 . S
C1232 C1237 1.379 . S
C1232 N1239 1.356 . S
C1233 C1232 1.363 . S
C1233 C1236 1.363 . S
N1234 C1236 1.356 . S
N1234 H1246 0.984 . S
N1234 H1247 0.985 . S
N1235 C1237 1.356 . S
N1235 H1240 0.984 . S
N1235 H1241 0.985 . S
C1236 C1230 1.379 . S
C1236 C1233 1.363 . S
C1236 N1234 1.356 . S
C1237 C1231 1.363 . S
C1237 C1232 1.379 . S
C1237 N1235 1.356 . S
N1238 C1230 1.356 . S
N1238 H1244 0.984 . S
N1238 H1245 0.984 . S
N1239 C1232 1.356 . S
N1239 H1242 0.984 . S
N1239 H1243 0.985 . S
H1240 N1235 0.984 . S
H1241 N1235 0.985 . S
H1242 N1239 0.984 . S
H1243 N1239 0.985 . S
H1244 N1238 0.984 . S
H1245 N1238 0.984 . S
H1246 N1234 0.984 . S
H1247 N1234 0.985 . S
C529 C21 1.328 . S
C531 C153 1.328 . S
C547 C186 1.328 . S
C549 C54 1.328 . S
C565 C219 1.329 . S
C567 C87 1.329 . S
C583 C120 1.328 . S
C585 C252 1.328 . S
C601 C285 1.328 . S
C603 C351 1.328 . S
C619 C384 1.328 . S
C621 C318 1.328 . S
C637 C417 1.328 . S
C639 C483 1.328 . S
C655 C450 1.329 . S
C657 C516 1.329 . S
C673 N13 1.227 . S
C675 N178 1.227 . S
C691 N211 1.227 . S
C693 N46 1.227 . S
C709 N244 1.227 . S
C711 N79 1.227 . S
C727 N112 1.227 . S
C729 N145 1.227 . S
C745 C150 2.017 . S
C747 C348 2.017 1_556 S
C763 C84 2.017 . S
C765 C282 2.017 . S
C781 C216 2.017 . S
C783 C381 2.017 . S
C799 C18 2.017 . S
C801 C315 2.017 1_554 S
C817 N409 1.227 . S
C819 N277 1.227 . S
C835 N343 1.227 . S
C837 N508 1.227 . S
C853 N310 1.227 . S
C855 N442 1.227 . S
C871 N376 1.227 . S
C873 N475 1.227 . S
C889 C480 2.017 . S
C891 C51 2.017 . S
C907 C183 2.017 1_554 S
C909 C447 2.017 . S
C925 C117 2.017 1_556 S
C927 C513 2.017 . S
C943 C414 2.017 . S
C945 C249 2.017 . S
C961 C172 1.812 . S
C963 C7 1.812 . S
C979 C205 1.812 1_556 S
C981 C40 1.812 . S
C997 C73 1.812 1_554 S
C999 C238 1.812 . S
C1015 C106 1.812 . S
C1017 C139 1.812 . S
C1033 N134 0.826 . S
C1035 N332 0.826 . S
C1051 N266 0.826 . S
C1053 N68 0.826 . S
C1069 N365 0.826 . S
C1071 N200 0.826 . S
C1087 N2 0.826 . S
C1089 N299 0.826 . S
C1105 C403 1.812 1_554 S
C1107 C271 1.812 . S
C1123 C337 1.812 . S
C1125 C502 1.812 . S
C1141 C436 1.812 . S
C1143 C304 1.812 . S
C1159 C469 1.812 1_556 S
C1161 C370 1.812 . S
C1177 N35 0.826 . S
C1179 N464 0.826 . S
C1195 N167 0.826 . S
C1197 N431 0.826 . S
C1213 N497 0.826 . S
C1215 N101 0.826 . S
C1231 N233 0.826 . S
C1233 N398 0.826 . S
