# Generated by pormake.
# Topology ato, (4)-cn, num edge types: 1
# Building blocks:
#     Node 0, Type 0, BuildingBlock: QUQFOY_clean_sbu_1, # of connection points: 4
#     Node 1, Type 0, BuildingBlock: QUQFOY_clean_sbu_1, # of connection points: 4
#     Node 2, Type 0, BuildingBlock: QUQFOY_clean_sbu_1, # of connection points: 4
#     Node 3, Type 0, BuildingBlock: QUQFOY_clean_sbu_1, # of connection points: 4
#     Node 4, Type 0, BuildingBlock: QUQFOY_clean_sbu_1, # of connection points: 4
#     Node 5, Type 0, BuildingBlock: QUQFOY_clean_sbu_1, # of connection points: 4
#     Node 6, Type 0, BuildingBlock: QUQFOY_clean_sbu_1, # of connection points: 4
#     Node 7, Type 0, BuildingBlock: QUQFOY_clean_sbu_1, # of connection points: 4
#     Node 8, Type 0, BuildingBlock: QUQFOY_clean_sbu_1, # of connection points: 4
#     Node 9, Type 0, BuildingBlock: QUQFOY_clean_sbu_1, # of connection points: 4
#     Node 10, Type 0, BuildingBlock: QUQFOY_clean_sbu_1, # of connection points: 4
#     Node 11, Type 0, BuildingBlock: QUQFOY_clean_sbu_1, # of connection points: 4
#     Node 12, Type 0, BuildingBlock: QUQFOY_clean_sbu_1, # of connection points: 4
#     Node 13, Type 0, BuildingBlock: QUQFOY_clean_sbu_1, # of connection points: 4
#     Node 14, Type 0, BuildingBlock: QUQFOY_clean_sbu_1, # of connection points: 4
#     Node 15, Type 0, BuildingBlock: QUQFOY_clean_sbu_1, # of connection points: 4
#     Node 16, Type 0, BuildingBlock: QUQFOY_clean_sbu_1, # of connection points: 4
#     Node 17, Type 0, BuildingBlock: QUQFOY_clean_sbu_1, # of connection points: 4
#     Node 18, Type 0, BuildingBlock: QUQFOY_clean_sbu_1, # of connection points: 4
#     Node 19, Type 0, BuildingBlock: QUQFOY_clean_sbu_1, # of connection points: 4
#     Node 20, Type 0, BuildingBlock: QUQFOY_clean_sbu_1, # of connection points: 4
#     Node 21, Type 0, BuildingBlock: QUQFOY_clean_sbu_1, # of connection points: 4
#     Node 22, Type 0, BuildingBlock: QUQFOY_clean_sbu_1, # of connection points: 4
#     Node 23, Type 0, BuildingBlock: QUQFOY_clean_sbu_1, # of connection points: 4
#     Node 24, Type 0, BuildingBlock: QUQFOY_clean_sbu_1, # of connection points: 4
#     Node 25, Type 0, BuildingBlock: QUQFOY_clean_sbu_1, # of connection points: 4
#     Node 26, Type 0, BuildingBlock: QUQFOY_clean_sbu_1, # of connection points: 4
#     Node 27, Type 0, BuildingBlock: QUQFOY_clean_sbu_1, # of connection points: 4
#     Node 28, Type 0, BuildingBlock: QUQFOY_clean_sbu_1, # of connection points: 4
#     Node 29, Type 0, BuildingBlock: QUQFOY_clean_sbu_1, # of connection points: 4
#     Node 30, Type 0, BuildingBlock: QUQFOY_clean_sbu_1, # of connection points: 4
#     Node 31, Type 0, BuildingBlock: QUQFOY_clean_sbu_1, # of connection points: 4
#     Node 32, Type 0, BuildingBlock: QUQFOY_clean_sbu_1, # of connection points: 4
#     Node 33, Type 0, BuildingBlock: QUQFOY_clean_sbu_1, # of connection points: 4
#     Node 34, Type 0, BuildingBlock: QUQFOY_clean_sbu_1, # of connection points: 4
#     Node 35, Type 0, BuildingBlock: QUQFOY_clean_sbu_1, # of connection points: 4
#     Edge 36, Type (0, 0), BuildingBlock: OJICUG_clean_linker_0, # of connection points: 2
#     Edge 37, Type (0, 0), BuildingBlock: OJICUG_clean_linker_0, # of connection points: 2
#     Edge 38, Type (0, 0), BuildingBlock: OJICUG_clean_linker_0, # of connection points: 2
#     Edge 39, Type (0, 0), BuildingBlock: OJICUG_clean_linker_0, # of connection points: 2
#     Edge 40, Type (0, 0), BuildingBlock: OJICUG_clean_linker_0, # of connection points: 2
#     Edge 41, Type (0, 0), BuildingBlock: OJICUG_clean_linker_0, # of connection points: 2
#     Edge 42, Type (0, 0), BuildingBlock: OJICUG_clean_linker_0, # of connection points: 2
#     Edge 43, Type (0, 0), BuildingBlock: OJICUG_clean_linker_0, # of connection points: 2
#     Edge 44, Type (0, 0), BuildingBlock: OJICUG_clean_linker_0, # of connection points: 2
#     Edge 45, Type (0, 0), BuildingBlock: OJICUG_clean_linker_0, # of connection points: 2
#     Edge 46, Type (0, 0), BuildingBlock: OJICUG_clean_linker_0, # of connection points: 2
#     Edge 47, Type (0, 0), BuildingBlock: OJICUG_clean_linker_0, # of connection points: 2
#     Edge 48, Type (0, 0), BuildingBlock: OJICUG_clean_linker_0, # of connection points: 2
#     Edge 49, Type (0, 0), BuildingBlock: OJICUG_clean_linker_0, # of connection points: 2
#     Edge 50, Type (0, 0), BuildingBlock: OJICUG_clean_linker_0, # of connection points: 2
#     Edge 51, Type (0, 0), BuildingBlock: OJICUG_clean_linker_0, # of connection points: 2
#     Edge 52, Type (0, 0), BuildingBlock: OJICUG_clean_linker_0, # of connection points: 2
#     Edge 53, Type (0, 0), BuildingBlock: OJICUG_clean_linker_0, # of connection points: 2
#     Edge 54, Type (0, 0), BuildingBlock: OJICUG_clean_linker_0, # of connection points: 2
#     Edge 55, Type (0, 0), BuildingBlock: OJICUG_clean_linker_0, # of connection points: 2
#     Edge 56, Type (0, 0), BuildingBlock: OJICUG_clean_linker_0, # of connection points: 2
#     Edge 57, Type (0, 0), BuildingBlock: OJICUG_clean_linker_0, # of connection points: 2
#     Edge 58, Type (0, 0), BuildingBlock: OJICUG_clean_linker_0, # of connection points: 2
#     Edge 59, Type (0, 0), BuildingBlock: OJICUG_clean_linker_0, # of connection points: 2
#     Edge 60, Type (0, 0), BuildingBlock: OJICUG_clean_linker_0, # of connection points: 2
#     Edge 61, Type (0, 0), BuildingBlock: OJICUG_clean_linker_0, # of connection points: 2
#     Edge 62, Type (0, 0), BuildingBlock: OJICUG_clean_linker_0, # of connection points: 2
#     Edge 63, Type (0, 0), BuildingBlock: OJICUG_clean_linker_0, # of connection points: 2
#     Edge 64, Type (0, 0), BuildingBlock: OJICUG_clean_linker_0, # of connection points: 2
#     Edge 65, Type (0, 0), BuildingBlock: OJICUG_clean_linker_0, # of connection points: 2
#     Edge 66, Type (0, 0), BuildingBlock: OJICUG_clean_linker_0, # of connection points: 2
#     Edge 67, Type (0, 0), BuildingBlock: OJICUG_clean_linker_0, # of connection points: 2
#     Edge 68, Type (0, 0), BuildingBlock: OJICUG_clean_linker_0, # of connection points: 2
#     Edge 69, Type (0, 0), BuildingBlock: OJICUG_clean_linker_0, # of connection points: 2
#     Edge 70, Type (0, 0), BuildingBlock: OJICUG_clean_linker_0, # of connection points: 2
#     Edge 71, Type (0, 0), BuildingBlock: OJICUG_clean_linker_0, # of connection points: 2
#     Edge 72, Type (0, 0), BuildingBlock: OJICUG_clean_linker_0, # of connection points: 2
#     Edge 73, Type (0, 0), BuildingBlock: OJICUG_clean_linker_0, # of connection points: 2
#     Edge 74, Type (0, 0), BuildingBlock: OJICUG_clean_linker_0, # of connection points: 2
#     Edge 75, Type (0, 0), BuildingBlock: OJICUG_clean_linker_0, # of connection points: 2
#     Edge 76, Type (0, 0), BuildingBlock: OJICUG_clean_linker_0, # of connection points: 2
#     Edge 77, Type (0, 0), BuildingBlock: OJICUG_clean_linker_0, # of connection points: 2
#     Edge 78, Type (0, 0), BuildingBlock: OJICUG_clean_linker_0, # of connection points: 2
#     Edge 79, Type (0, 0), BuildingBlock: OJICUG_clean_linker_0, # of connection points: 2
#     Edge 80, Type (0, 0), BuildingBlock: OJICUG_clean_linker_0, # of connection points: 2
#     Edge 81, Type (0, 0), BuildingBlock: OJICUG_clean_linker_0, # of connection points: 2
#     Edge 82, Type (0, 0), BuildingBlock: OJICUG_clean_linker_0, # of connection points: 2
#     Edge 83, Type (0, 0), BuildingBlock: OJICUG_clean_linker_0, # of connection points: 2
#     Edge 84, Type (0, 0), BuildingBlock: OJICUG_clean_linker_0, # of connection points: 2
#     Edge 85, Type (0, 0), BuildingBlock: OJICUG_clean_linker_0, # of connection points: 2
#     Edge 86, Type (0, 0), BuildingBlock: OJICUG_clean_linker_0, # of connection points: 2
#     Edge 87, Type (0, 0), BuildingBlock: OJICUG_clean_linker_0, # of connection points: 2
#     Edge 88, Type (0, 0), BuildingBlock: OJICUG_clean_linker_0, # of connection points: 2
#     Edge 89, Type (0, 0), BuildingBlock: OJICUG_clean_linker_0, # of connection points: 2
#     Edge 90, Type (0, 0), BuildingBlock: OJICUG_clean_linker_0, # of connection points: 2
#     Edge 91, Type (0, 0), BuildingBlock: OJICUG_clean_linker_0, # of connection points: 2
#     Edge 92, Type (0, 0), BuildingBlock: OJICUG_clean_linker_0, # of connection points: 2
#     Edge 93, Type (0, 0), BuildingBlock: OJICUG_clean_linker_0, # of connection points: 2
#     Edge 94, Type (0, 0), BuildingBlock: OJICUG_clean_linker_0, # of connection points: 2
#     Edge 95, Type (0, 0), BuildingBlock: OJICUG_clean_linker_0, # of connection points: 2
#     Edge 96, Type (0, 0), BuildingBlock: OJICUG_clean_linker_0, # of connection points: 2
#     Edge 97, Type (0, 0), BuildingBlock: OJICUG_clean_linker_0, # of connection points: 2
#     Edge 98, Type (0, 0), BuildingBlock: OJICUG_clean_linker_0, # of connection points: 2
#     Edge 99, Type (0, 0), BuildingBlock: OJICUG_clean_linker_0, # of connection points: 2
#     Edge 100, Type (0, 0), BuildingBlock: OJICUG_clean_linker_0, # of connection points: 2
#     Edge 101, Type (0, 0), BuildingBlock: OJICUG_clean_linker_0, # of connection points: 2
#     Edge 102, Type (0, 0), BuildingBlock: OJICUG_clean_linker_0, # of connection points: 2
#     Edge 103, Type (0, 0), BuildingBlock: OJICUG_clean_linker_0, # of connection points: 2
#     Edge 104, Type (0, 0), BuildingBlock: OJICUG_clean_linker_0, # of connection points: 2
#     Edge 105, Type (0, 0), BuildingBlock: OJICUG_clean_linker_0, # of connection points: 2
#     Edge 106, Type (0, 0), BuildingBlock: OJICUG_clean_linker_0, # of connection points: 2
#     Edge 107, Type (0, 0), BuildingBlock: OJICUG_clean_linker_0, # of connection points: 2
# Relax obj value: 0.083
# Max RMSD: 0.156
# Mean RMSD: 0.156
data_MOF--net-ato--node1-QUQFOY_clean_sbu_1--edge1-OJICUG_clean_linker_0
_symmetry_space_group_name_H-M    P1
_symmetry_Int_Tables_number       1
_symmetry_cell_setting            triclinic
loop_
_symmetry_equiv_pos_as_xyz
'x, y, z'
_cell_length_a     82.504471
_cell_length_b     82.589579
_cell_length_c     18.104622
_cell_angle_alpha  90.040288
_cell_angle_beta   90.002215
_cell_angle_gamma 119.94003
loop_
_atom_site_label
_atom_site_type_symbol
_atom_site_fract_x
_atom_site_fract_y
_atom_site_fract_z
_atom_type_partial_charge
O0 O 0.25677 0.02361 0.16031 0.0
Cd1 Cd 0.26651 0.03895 0.25662 0.0
Cd2 Cd 0.25821 0.06169 0.17216 0.0
O3 O 0.24124 0.037 0.11831 0.0
O4 O 0.26941 0.02156 0.32457 0.0
O5 O 0.24932 0.03133 0.34543 0.0
C6 C 0.25644 0.02118 0.36532 0.0
C7 C 0.24793 0.08345 0.18033 0.0
C8 C 0.24526 0.02406 0.1149 0.0
C9 C 0.29851 0.07321 0.19837 0.0
O10 O 0.28672 0.07363 0.15447 0.0
O11 O 0.29304 0.06201 0.25274 0.0
O12 O 0.25252 0.07921 0.11841 0.0
O13 O 0.24871 0.07492 0.23881 0.0
O14 O 0.97492 0.21752 0.18203 0.0
Cd15 Cd 0.95743 0.2145 0.26919 0.0
Cd16 Cd 0.93314 0.18382 0.17844 0.0
O17 O 0.95739 0.19095 0.12303 0.0
O18 O 0.97441 0.2353 0.33608 0.0
O19 O 0.96246 0.20557 0.36601 0.0
C20 C 0.97315 0.22296 0.38258 0.0
C21 C 0.91081 0.15216 0.19027 0.0
C22 C 0.97274 0.20613 0.13056 0.0
C23 C 0.924 0.21429 0.20064 0.0
O24 O 0.92186 0.20074 0.16069 0.0
O25 O 0.93605 0.2205 0.25234 0.0
O26 O 0.915 0.16047 0.12729 0.0
O27 O 0.9198 0.16173 0.24765 0.0
O28 O 0.7836 0.76351 0.15463 0.0
Cd29 Cd 0.7785 0.74484 0.23833 0.0
Cd30 Cd 0.81053 0.7453 0.16322 0.0
O31 O 0.80628 0.76256 0.09344 0.0
O32 O 0.7601 0.74816 0.29835 0.0
O33 O 0.78762 0.75404 0.34158 0.0
C34 C 0.77209 0.75399 0.35143 0.0
C35 C 0.84142 0.75113 0.16818 0.0
C36 C 0.79492 0.7686 0.10077 0.0
C37 C 0.77389 0.70824 0.18447 0.0
O38 O 0.79095 0.71724 0.16489 0.0
O39 O 0.76598 0.71659 0.2131 0.0
O40 O 0.83122 0.74463 0.11007 0.0
O41 O 0.83419 0.75468 0.22477 0.0
O42 O 0.02132 0.24193 0.84519 0.0
Cd43 Cd 0.03536 0.25835 0.75637 0.0
Cd44 Cd 0.06648 0.25805 0.83721 0.0
O45 O 0.04451 0.24214 0.9076 0.0
O46 O 0.01489 0.25746 0.69481 0.0
O47 O 0.03221 0.24544 0.65813 0.0
C48 C 0.01857 0.24852 0.6456 0.0
C49 C 0.09082 0.25106 0.8343 0.0
C50 C 0.0273 0.23709 0.9007 0.0
C51 C 0.06827 0.29522 0.80582 0.0
O52 O 0.07578 0.28623 0.83175 0.0
O53 O 0.05243 0.28678 0.77402 0.0
O54 O 0.0875 0.25818 0.89148 0.0
O55 O 0.08 0.24744 0.77782 0.0
O56 O 0.76408 0.78828 0.81866 0.0
Cd57 Cd 0.74654 0.78681 0.73427 0.0
Cd58 Cd 0.74944 0.81742 0.82553 0.0
O59 O 0.7681 0.81275 0.88296 0.0
O60 O 0.74679 0.76664 0.67433 0.0
O61 O 0.75647 0.79501 0.63076 0.0
C62 C 0.75394 0.77842 0.62108 0.0
C63 C 0.75552 0.84827 0.81777 0.0
C64 C 0.77149 0.79954 0.87231 0.0
C65 C 0.71147 0.78291 0.80458 0.0
O66 O 0.72163 0.79803 0.83934 0.0
O67 O 0.71845 0.77676 0.75714 0.0
O68 O 0.75137 0.83928 0.87921 0.0
O69 O 0.75671 0.83988 0.75957 0.0
O70 O 0.22988 0.97154 0.8275 0.0
Cd71 Cd 0.22331 0.95578 0.73202 0.0
Cd72 Cd 0.19185 0.93554 0.8142 0.0
O73 O 0.20094 0.96083 0.86548 0.0
O74 O 0.2438 0.97201 0.66258 0.0
O75 O 0.21428 0.96396 0.64328 0.0
C76 C 0.23154 0.97317 0.62239 0.0
C77 C 0.15963 0.9149 0.80508 0.0
C78 C 0.21827 0.97254 0.87067 0.0
C79 C 0.2183 0.92087 0.79394 0.0
O80 O 0.20665 0.92195 0.83652 0.0
O81 O 0.22475 0.93159 0.73826 0.0
O82 O 0.16815 0.91943 0.86762 0.0
O83 O 0.16931 0.92272 0.74649 0.0
O84 O 0.74294 0.97573 0.83734 0.0
Cd85 Cd 0.7331 0.9604 0.74102 0.0
Cd86 Cd 0.74134 0.93767 0.82511 0.0
O87 O 0.75856 0.96236 0.87841 0.0
O88 O 0.73036 0.97785 0.6729 0.0
O89 O 0.75032 0.96789 0.65237 0.0
C90 C 0.74331 0.97812 0.63231 0.0
C91 C 0.75116 0.91556 0.81737 0.0
C92 C 0.75455 0.97529 0.88224 0.0
C93 C 0.70109 0.92629 0.79954 0.0
O94 O 0.7129 0.92595 0.84352 0.0
O95 O 0.70655 0.93739 0.74486 0.0
O96 O 0.74678 0.92003 0.87922 0.0
O97 O 0.7505 0.92409 0.75871 0.0
O98 O 0.02518 0.78172 0.81911 0.0
Cd99 Cd 0.0424 0.78442 0.73142 0.0
Cd100 Cd 0.06713 0.81515 0.82187 0.0
O101 O 0.04308 0.80816 0.87846 0.0
O102 O 0.02512 0.76345 0.66581 0.0
O103 O 0.03719 0.79309 0.6343 0.0
C104 C 0.02635 0.77566 0.6187 0.0
C105 C 0.08953 0.84678 0.80975 0.0
C106 C 0.02762 0.79309 0.87098 0.0
C107 C 0.07582 0.78437 0.79904 0.0
O108 O 0.07825 0.79806 0.83877 0.0
O109 O 0.06362 0.77818 0.74789 0.0
O110 O 0.08549 0.83845 0.8727 0.0
O111 O 0.08039 0.83723 0.75258 0.0
O112 O 0.22021 0.24 0.84246 0.0
Cd113 Cd 0.22272 0.25666 0.75421 0.0
Cd114 Cd 0.19128 0.25634 0.83564 0.0
O115 O 0.19701 0.23989 0.90446 0.0
O116 O 0.24208 0.25565 0.69156 0.0
O117 O 0.21268 0.24387 0.65598 0.0
C118 C 0.22932 0.24681 0.64269 0.0
C119 C 0.16015 0.24996 0.83355 0.0
C120 C 0.20919 0.23486 0.89742 0.0
C121 C 0.22684 0.29349 0.80524 0.0
O122 O 0.21039 0.28447 0.83145 0.0
O123 O 0.23418 0.2851 0.77254 0.0
O124 O 0.17062 0.25668 0.89087 0.0
O125 O 0.16717 0.24633 0.77651 0.0
O126 O 0.97905 0.75672 0.15627 0.0
Cd127 Cd 0.96451 0.74026 0.24425 0.0
Cd128 Cd 0.93417 0.7419 0.16554 0.0
O129 O 0.95625 0.75765 0.09552 0.0
O130 O 0.98447 0.74062 0.30745 0.0
O131 O 0.96748 0.75318 0.34224 0.0
C132 C 0.98086 0.74978 0.35594 0.0
C133 C 0.9104 0.74962 0.16895 0.0
C134 C 0.97332 0.76212 0.10168 0.0
C135 C 0.93101 0.70406 0.19339 0.0
O136 O 0.92395 0.71355 0.16852 0.0
O137 O 0.94686 0.71197 0.22525 0.0
O138 O 0.91367 0.74264 0.11123 0.0
O139 O 0.921 0.75273 0.22579 0.0
O140 O 0.24094 0.21432 0.17864 0.0
Cd141 Cd 0.25571 0.21195 0.26626 0.0
Cd142 Cd 0.25072 0.18172 0.17215 0.0
O143 O 0.23302 0.18824 0.11739 0.0
O144 O 0.25915 0.23294 0.33138 0.0
O145 O 0.24203 0.20333 0.36391 0.0
C146 C 0.24842 0.22076 0.37904 0.0
C147 C 0.24315 0.15042 0.17997 0.0
C148 C 0.23221 0.20307 0.12615 0.0
C149 C 0.2897 0.2133 0.1975 0.0
O150 O 0.27875 0.1998 0.15632 0.0
O151 O 0.28335 0.21882 0.24984 0.0
O152 O 0.24706 0.15922 0.11808 0.0
O153 O 0.24281 0.15921 0.23841 0.0
O154 O 0.77035 0.02773 0.17013 0.0
Cd155 Cd 0.77698 0.04349 0.2656 0.0
Cd156 Cd 0.80838 0.06366 0.18334 0.0
O157 O 0.79925 0.03841 0.13176 0.0
O158 O 0.7564 0.02731 0.33478 0.0
O159 O 0.78588 0.03523 0.35451 0.0
C160 C 0.76859 0.02609 0.37518 0.0
C161 C 0.8406 0.08419 0.19334 0.0
C162 C 0.78191 0.02672 0.12672 0.0
C163 C 0.78198 0.07838 0.20358 0.0
O164 O 0.79363 0.0773 0.16097 0.0
O165 O 0.77555 0.06769 0.25931 0.0
O166 O 0.83218 0.07978 0.13056 0.0
O167 O 0.83081 0.07632 0.25165 0.0
O168 O 0.92182 0.3562 0.49945 0.0
Cd169 Cd 0.93173 0.37167 0.59537 0.0
Cd170 Cd 0.92394 0.39438 0.50922 0.0
O171 O 0.90631 0.36958 0.45737 0.0
O172 O 0.93447 0.35422 0.66344 0.0
O173 O 0.9146 0.36426 0.68432 0.0
C174 C 0.92159 0.35401 0.70425 0.0
C175 C 0.91465 0.41693 0.5162 0.0
C176 C 0.91022 0.35657 0.45434 0.0
C177 C 0.96401 0.40515 0.5353 0.0
O178 O 0.9523 0.40545 0.49056 0.0
O179 O 0.95841 0.39445 0.59117 0.0
O180 O 0.91884 0.4122 0.45448 0.0
O181 O 0.91523 0.40844 0.57514 0.0
O182 O 0.64026 0.54821 0.5107 0.0
Cd183 Cd 0.6233 0.54596 0.59871 0.0
Cd184 Cd 0.59787 0.51584 0.50446 0.0
O185 O 0.62193 0.52234 0.44861 0.0
O186 O 0.64104 0.56715 0.66252 0.0
O187 O 0.62862 0.53767 0.69669 0.0
C188 C 0.63969 0.55515 0.71081 0.0
C189 C 0.57418 0.48455 0.51322 0.0
C190 C 0.63762 0.53708 0.4576 0.0
C191 C 0.59076 0.54759 0.53053 0.0
O192 O 0.58799 0.53401 0.48941 0.0
O193 O 0.60269 0.55304 0.58257 0.0
O194 O 0.57885 0.49329 0.45117 0.0
O195 O 0.5835 0.4934 0.57124 0.0
O196 O 0.45199 0.09417 0.4948 0.0
Cd197 Cd 0.45006 0.07757 0.58224 0.0
Cd198 Cd 0.48105 0.07806 0.49938 0.0
O199 O 0.47453 0.09383 0.42985 0.0
O200 O 0.42998 0.07757 0.64359 0.0
O201 O 0.45922 0.09005 0.68176 0.0
C202 C 0.44233 0.08647 0.69372 0.0
C203 C 0.51253 0.08577 0.50327 0.0
C204 C 0.46244 0.09892 0.43822 0.0
C205 C 0.44623 0.04083 0.52892 0.0
O206 O 0.46268 0.04974 0.50274 0.0
O207 O 0.43898 0.0493 0.56179 0.0
O208 O 0.50238 0.07889 0.44524 0.0
O209 O 0.50494 0.08877 0.56011 0.0
O210 O 0.6864 0.57501 0.17388 0.0
Cd211 Cd 0.70091 0.59171 0.0863 0.0
Cd212 Cd 0.73152 0.59074 0.16631 0.0
O213 O 0.70934 0.57454 0.23533 0.0
O214 O 0.68088 0.5909 0.02216 0.0
O215 O 0.69843 0.57886 0.98852 0.0
C216 C 0.68486 0.58192 0.9741 0.0
C217 C 0.75544 0.58318 0.16332 0.0
C218 C 0.69219 0.5697 0.22856 0.0
C219 C 0.73393 0.62828 0.1374 0.0
O220 O 0.74121 0.61904 0.16285 0.0
O221 O 0.71813 0.62009 0.10518 0.0
O222 O 0.75217 0.59023 0.22081 0.0
O223 O 0.74488 0.58006 0.10634 0.0
O224 O 0.42726 0.11583 0.15749 0.0
Cd225 Cd 0.41212 0.11766 0.07001 0.0
Cd226 Cd 0.41627 0.14762 0.16254 0.0
O227 O 0.43445 0.14186 0.21763 0.0
O228 O 0.40965 0.09727 0.00356 0.0
O229 O 0.42599 0.12712 0.97324 0.0
C230 C 0.42027 0.10987 0.95696 0.0
C231 C 0.42354 0.1788 0.15326 0.0
C232 C 0.43584 0.12734 0.20943 0.0
C233 C 0.37761 0.11544 0.13769 0.0
O234 O 0.3883 0.12916 0.17848 0.0
O235 O 0.38424 0.11003 0.08602 0.0
O236 O 0.4196 0.17014 0.21546 0.0
O237 O 0.42393 0.1699 0.09525 0.0
O238 O 0.89469 0.30436 0.16635 0.0
Cd239 Cd 0.88836 0.28862 0.07094 0.0
Cd240 Cd 0.85769 0.26734 0.15617 0.0
O241 O 0.8659 0.29235 0.2083 0.0
O242 O 0.9089 0.30528 0.00254 0.0
O243 O 0.8793 0.29661 0.98157 0.0
C244 C 0.89661 0.30614 0.96157 0.0
C245 C 0.82566 0.24619 0.14325 0.0
C246 C 0.88307 0.30472 0.21139 0.0
C247 C 0.88543 0.25449 0.13264 0.0
O248 O 0.87371 0.25492 0.17691 0.0
O249 O 0.89096 0.26508 0.0764 0.0
O250 O 0.83378 0.25024 0.2067 0.0
O251 O 0.83568 0.25462 0.08602 0.0
O252 O 0.40931 0.30497 0.16841 0.0
Cd253 Cd 0.39996 0.28937 0.07263 0.0
Cd254 Cd 0.40905 0.26776 0.15838 0.0
O255 O 0.426 0.2928 0.2099 0.0
O256 O 0.3963 0.30619 0.00433 0.0
O257 O 0.41713 0.29736 0.9837 0.0
C258 C 0.40947 0.307 0.96361 0.0
C259 C 0.41947 0.24612 0.15068 0.0
C260 C 0.42129 0.30523 0.21325 0.0
C261 C 0.36859 0.25526 0.13326 0.0
O262 O 0.38062 0.25562 0.17801 0.0
O263 O 0.37378 0.26588 0.07713 0.0
O264 O 0.41522 0.25066 0.2127 0.0
O265 O 0.41835 0.25434 0.09185 0.0
O266 O 0.69586 0.11046 0.1423 0.0
Cd267 Cd 0.71307 0.11774 0.05108 0.0
Cd268 Cd 0.73221 0.14718 0.14381 0.0
O269 O 0.70616 0.13869 0.18741 0.0
O270 O 0.69785 0.09692 0.98129 0.0
O271 O 0.70537 0.12612 0.95897 0.0
C272 C 0.69669 0.1088 0.93896 0.0
C273 C 0.75452 0.17893 0.13602 0.0
C274 C 0.69415 0.1214 0.18689 0.0
C275 C 0.74581 0.12011 0.12341 0.0
O276 O 0.74382 0.13069 0.16892 0.0
O277 O 0.73691 0.11578 0.06267 0.0
O278 O 0.74879 0.17056 0.19853 0.0
O279 O 0.74683 0.16944 0.0768 0.0
O280 O 0.88423 0.5711 0.17641 0.0
Cd281 Cd 0.88665 0.58794 0.08901 0.0
Cd282 Cd 0.85496 0.58695 0.16964 0.0
O283 O 0.8607 0.57042 0.23793 0.0
O284 O 0.90634 0.5875 0.02654 0.0
O285 O 0.87699 0.57545 0.99 0.0
C286 C 0.89374 0.5787 0.97708 0.0
C287 C 0.82382 0.58043 0.16585 0.0
C288 C 0.87308 0.56567 0.23098 0.0
C289 C 0.89027 0.62438 0.14269 0.0
O290 O 0.87378 0.61515 0.16822 0.0
O291 O 0.89779 0.61624 0.10931 0.0
O292 O 0.83398 0.58677 0.22416 0.0
O293 O 0.83115 0.57717 0.10883 0.0
O294 O 0.64591 0.08182 0.47619 0.0
Cd295 Cd 0.63191 0.0699 0.5719 0.0
Cd296 Cd 0.60429 0.07548 0.49787 0.0
O297 O 0.62727 0.09146 0.43114 0.0
O298 O 0.65134 0.06971 0.63665 0.0
O299 O 0.63742 0.08594 0.66318 0.0
C300 C 0.64962 0.0811 0.68011 0.0
C301 C 0.58156 0.08467 0.50254 0.0
C302 C 0.64225 0.09069 0.42808 0.0
C303 C 0.59699 0.03575 0.52541 0.0
O304 O 0.59224 0.04661 0.49484 0.0
O305 O 0.61189 0.04222 0.56333 0.0
O306 O 0.58494 0.07827 0.44335 0.0
O307 O 0.59155 0.08645 0.5601 0.0
O308 O 0.90625 0.54714 0.51244 0.0
Cd309 Cd 0.92172 0.54576 0.59955 0.0
Cd310 Cd 0.91788 0.51576 0.50614 0.0
O311 O 0.89955 0.52137 0.45123 0.0
O312 O 0.92431 0.56644 0.66458 0.0
O313 O 0.90838 0.53678 0.69767 0.0
C314 C 0.91406 0.55409 0.7126 0.0
C315 C 0.91109 0.48468 0.51424 0.0
C316 C 0.89788 0.53571 0.46002 0.0
C317 C 0.95633 0.54852 0.53019 0.0
O318 O 0.94574 0.53459 0.49013 0.0
O319 O 0.94965 0.55385 0.58195 0.0
O320 O 0.91496 0.49349 0.45238 0.0
O321 O 0.91047 0.49337 0.57256 0.0
O322 O 0.43464 0.35684 0.50151 0.0
Cd323 Cd 0.44044 0.37243 0.59716 0.0
Cd324 Cd 0.47098 0.39474 0.51078 0.0
O325 O 0.46351 0.3698 0.45951 0.0
O326 O 0.42021 0.35521 0.66546 0.0
O327 O 0.45005 0.36493 0.68624 0.0
C328 C 0.4328 0.35486 0.70628 0.0
C329 C 0.50289 0.41699 0.51723 0.0
C330 C 0.44652 0.35698 0.4565 0.0
C331 C 0.44198 0.40597 0.53619 0.0
O332 O 0.4539 0.40605 0.4916 0.0
O333 O 0.43683 0.39538 0.59242 0.0
O334 O 0.49394 0.41226 0.45562 0.0
O335 O 0.49381 0.40868 0.57639 0.0
O336 O 0.59064 0.69226 0.83349 0.0
Cd337 Cd 0.60043 0.7078 0.92922 0.0
Cd338 Cd 0.59244 0.73031 0.84278 0.0
O339 O 0.57501 0.70547 0.79093 0.0
O340 O 0.60338 0.6905 0.99724 0.0
O341 O 0.58335 0.70033 0.01836 0.0
C342 C 0.59049 0.6902 0.03821 0.0
C343 C 0.58275 0.75256 0.84897 0.0
C344 C 0.57904 0.69254 0.78813 0.0
C345 C 0.63258 0.74131 0.86884 0.0
O346 O 0.62084 0.74156 0.82422 0.0
O347 O 0.62704 0.73063 0.92479 0.0
O348 O 0.58713 0.74791 0.7875 0.0
O349 O 0.58343 0.7442 0.90815 0.0
O350 O 0.30354 0.88742 0.85412 0.0
Cd351 Cd 0.28637 0.88035 0.94539 0.0
Cd352 Cd 0.26687 0.85092 0.85254 0.0
O353 O 0.29282 0.85916 0.80859 0.0
O354 O 0.30181 0.90114 0.01499 0.0
O355 O 0.29394 0.87186 0.03757 0.0
C356 C 0.30281 0.88919 0.05741 0.0
C357 C 0.2444 0.81921 0.86032 0.0
C358 C 0.30503 0.87639 0.8093 0.0
C359 C 0.25378 0.87842 0.87337 0.0
O360 O 0.2555 0.86766 0.82787 0.0
O361 O 0.26275 0.8827 0.93391 0.0
O362 O 0.25008 0.82761 0.79783 0.0
O363 O 0.25218 0.82866 0.91952 0.0
O364 O 0.11638 0.4301 0.82294 0.0
Cd365 Cd 0.11144 0.41147 0.9065 0.0
Cd366 Cd 0.14369 0.41238 0.83211 0.0
O367 O 0.13936 0.42958 0.76233 0.0
O368 O 0.09288 0.41453 0.96635 0.0
O369 O 0.12045 0.42064 0.0098 0.0
C370 C 0.10483 0.42041 0.01953 0.0
C371 C 0.17455 0.41819 0.83671 0.0
C372 C 0.1278 0.43538 0.76938 0.0
C373 C 0.10724 0.37512 0.85244 0.0
O374 O 0.1243 0.38431 0.83314 0.0
O375 O 0.09913 0.38327 0.88112 0.0
O376 O 0.16434 0.41177 0.77861 0.0
O377 O 0.16737 0.42173 0.89346 0.0
O378 O 0.35348 0.91563 0.52014 0.0
Cd379 Cd 0.36759 0.92757 0.42466 0.0
Cd380 Cd 0.39504 0.92183 0.49932 0.0
O381 O 0.37196 0.90582 0.5655 0.0
O382 O 0.34826 0.92795 0.35988 0.0
O383 O 0.36204 0.9116 0.33314 0.0
C384 C 0.34992 0.91654 0.31627 0.0
C385 C 0.41777 0.91264 0.49507 0.0
C386 C 0.35702 0.90668 0.56829 0.0
C387 C 0.40246 0.96162 0.47222 0.0
O388 O 0.40711 0.9507 0.50292 0.0
O389 O 0.38765 0.95522 0.43375 0.0
O390 O 0.4143 0.91896 0.55424 0.0
O391 O 0.40788 0.91092 0.43729 0.0
O392 O 0.09601 0.45375 0.48687 0.0
Cd393 Cd 0.07829 0.45198 0.40283 0.0
Cd394 Cd 0.08071 0.48234 0.49279 0.0
O395 O 0.09945 0.478 0.55104 0.0
O396 O 0.07891 0.43209 0.34251 0.0
O397 O 0.08816 0.46043 0.2995 0.0
C398 C 0.08593 0.44396 0.2895 0.0
C399 C 0.08703 0.51322 0.48315 0.0
C400 C 0.10321 0.46505 0.5405 0.0
C401 C 0.04293 0.4476 0.47244 0.0
O402 O 0.05289 0.46286 0.50662 0.0
O403 O 0.05013 0.4415 0.42575 0.0
O404 O 0.08266 0.50438 0.54495 0.0
O405 O 0.08813 0.5046 0.42554 0.0
O406 O 0.56433 0.64042 0.50046 0.0
Cd407 Cd 0.55801 0.62481 0.40465 0.0
Cd408 Cd 0.52749 0.6036 0.48974 0.0
O409 O 0.53542 0.6287 0.54032 0.0
O410 O 0.57844 0.64151 0.33606 0.0
O411 O 0.54879 0.63283 0.31601 0.0
C412 C 0.56607 0.64238 0.29562 0.0
C413 C 0.4956 0.58168 0.48107 0.0
C414 C 0.55261 0.64093 0.54445 0.0
C415 C 0.55515 0.59078 0.46594 0.0
O416 O 0.54376 0.59154 0.51105 0.0
O417 O 0.56043 0.60114 0.40904 0.0
O418 O 0.50419 0.58647 0.54347 0.0
O419 O 0.50501 0.58991 0.42242 0.0
O420 O 0.07656 0.64164 0.49838 0.0
Cd421 Cd 0.06664 0.62602 0.40275 0.0
Cd422 Cd 0.0754 0.60402 0.48713 0.0
O423 O 0.09299 0.629 0.53774 0.0
O424 O 0.06368 0.64314 0.33361 0.0
O425 O 0.08382 0.63337 0.31405 0.0
C426 C 0.07668 0.64344 0.29333 0.0
C427 C 0.08486 0.58164 0.47991 0.0
C428 C 0.08863 0.64167 0.54206 0.0
C429 C 0.03505 0.59223 0.46416 0.0
O430 O 0.04711 0.59245 0.5083 0.0
O431 O 0.04021 0.60283 0.40793 0.0
O432 O 0.08105 0.58662 0.54185 0.0
O433 O 0.08393 0.58989 0.42084 0.0
O434 O 0.35743 0.4528 0.48445 0.0
Cd435 Cd 0.37363 0.45145 0.40045 0.0
Cd436 Cd 0.40113 0.4821 0.49037 0.0
O437 O 0.37787 0.47731 0.54837 0.0
O438 O 0.35334 0.43132 0.34011 0.0
O439 O 0.372 0.45976 0.29709 0.0
C440 C 0.35798 0.44317 0.28711 0.0
C441 C 0.42529 0.51317 0.48143 0.0
C442 C 0.36129 0.46409 0.53797 0.0
C443 C 0.40498 0.4478 0.47048 0.0
O444 O 0.40996 0.46302 0.50456 0.0
O445 O 0.39172 0.44147 0.42361 0.0
O446 O 0.42084 0.50427 0.5431 0.0
O447 O 0.41576 0.5045 0.42354 0.0
O448 O 0.54726 0.90301 0.50432 0.0
Cd449 Cd 0.54924 0.91968 0.41706 0.0
Cd450 Cd 0.51828 0.91922 0.49995 0.0
O451 O 0.5247 0.90333 0.56925 0.0
O452 O 0.56931 0.91968 0.3556 0.0
O453 O 0.54006 0.90726 0.31747 0.0
C454 C 0.55695 0.91083 0.30544 0.0
C455 C 0.48682 0.91154 0.49554 0.0
C456 C 0.53677 0.89821 0.56081 0.0
C457 C 0.55314 0.95644 0.47059 0.0
O458 O 0.5367 0.94754 0.49685 0.0
O459 O 0.56036 0.94795 0.43762 0.0
O460 O 0.4969 0.91837 0.55378 0.0
O461 O 0.49447 0.90859 0.4388 0.0
O462 O 0.31346 0.4285 0.82091 0.0
Cd463 Cd 0.29986 0.40988 0.90461 0.0
Cd464 Cd 0.26845 0.41067 0.83106 0.0
O465 O 0.28981 0.42766 0.76033 0.0
O466 O 0.32152 0.41308 0.96455 0.0
O467 O 0.29999 0.41914 0.00772 0.0
C468 C 0.31542 0.41899 0.01756 0.0
C469 C 0.24372 0.41695 0.83643 0.0
C470 C 0.30719 0.4336 0.7672 0.0
C471 C 0.26765 0.37343 0.85169 0.0
O472 O 0.25967 0.38256 0.83286 0.0
O473 O 0.28399 0.38166 0.87952 0.0
O474 O 0.24715 0.4102 0.77844 0.0
O475 O 0.25455 0.42045 0.89278 0.0
O476 O 0.57184 0.88129 0.84135 0.0
Cd477 Cd 0.58722 0.87986 0.92873 0.0
Cd478 Cd 0.58378 0.85024 0.83534 0.0
O479 O 0.56516 0.85547 0.78068 0.0
O480 O 0.58938 0.9002 0.99472 0.0
O481 O 0.57354 0.87039 0.0259 0.0
C482 C 0.579 0.8876 0.04175 0.0
C483 C 0.57745 0.81935 0.84446 0.0
C484 C 0.56342 0.86978 0.78925 0.0
C485 C 0.62206 0.88302 0.86035 0.0
O486 O 0.61158 0.86927 0.81928 0.0
O487 O 0.61523 0.88808 0.91247 0.0
O488 O 0.58112 0.828 0.78227 0.0
O489 O 0.57673 0.82806 0.90249 0.0
O490 O 0.10425 0.69353 0.83124 0.0
Cd491 Cd 0.11048 0.70909 0.92715 0.0
Cd492 Cd 0.14133 0.73052 0.84206 0.0
O493 O 0.13305 0.70557 0.78934 0.0
O494 O 0.08979 0.69235 0.99492 0.0
O495 O 0.11933 0.70089 0.01654 0.0
C496 C 0.10199 0.69137 0.0361 0.0
C497 C 0.17338 0.75174 0.85417 0.0
C498 C 0.11587 0.69324 0.78601 0.0
C499 C 0.11363 0.7434 0.86616 0.0
O500 O 0.12535 0.74299 0.82186 0.0
O501 O 0.10801 0.73273 0.92216 0.0
O502 O 0.16515 0.74765 0.79095 0.0
O503 O 0.16347 0.74329 0.9116 0.0
C504 C 0.22611 0.99162 0.5247 0.0
C505 C 0.23743 0.9851 0.55564 0.0
H506 H 0.22341 0.00854 0.44089 0.0
C507 C 0.25499 0.99071 0.52394 0.0
H508 H 0.21256 0.98764 0.54832 0.0
C509 C 0.26107 0.00244 0.46241 0.0
C510 C 0.2499 0.00914 0.43176 0.0
H511 H 0.26405 0.98595 0.54647 0.0
H512 H 0.27464 0.00637 0.43915 0.0
C513 C 0.23237 0.00369 0.46366 0.0
C514 C 0.0035 0.22509 0.54362 0.0
C515 C 0.00719 0.24188 0.57777 0.0
H516 H 0.98917 0.20553 0.45589 0.0
C517 C 0.9992 0.25203 0.54843 0.0
H518 H 0.00936 0.21693 0.5657 0.0
C519 C 0.98805 0.24575 0.48523 0.0
C520 C 0.98416 0.22888 0.45146 0.0
H521 H 0.0018 0.26499 0.57382 0.0
H522 H 0.98236 0.25404 0.46299 0.0
C523 C 0.99182 0.21849 0.48149 0.0
C524 C 0.75948 0.77175 0.41804 0.0
C525 C 0.76816 0.76081 0.42048 0.0
H526 H 0.74871 0.78649 0.48023 0.0
C527 C 0.77265 0.75622 0.48909 0.0
H528 H 0.75598 0.77553 0.36555 0.0
C529 C 0.76793 0.76195 0.5544 0.0
C530 C 0.75932 0.77295 0.55195 0.0
H531 H 0.7793 0.74777 0.4922 0.0
H532 H 0.77112 0.75788 0.60691 0.0
C533 C 0.75541 0.77808 0.48332 0.0
C534 C 0.76748 0.9955 0.53417 0.0
C535 C 0.74995 0.99014 0.56585 0.0
H536 H 0.78738 0.01147 0.44967 0.0
C537 C 0.73887 0.99692 0.53496 0.0
H538 H 0.77637 0.99058 0.55714 0.0
C539 C 0.74505 0.00864 0.47341 0.0
C540 C 0.76261 0.01416 0.44194 0.0
H541 H 0.7253 0.99306 0.55805 0.0
H542 H 0.73606 0.01347 0.45069 0.0
C543 C 0.77383 0.00756 0.47312 0.0
C544 C 0.00781 0.78009 0.5191 0.0
C545 C 0.0152 0.76957 0.55018 0.0
H546 H 0.99049 0.7817 0.43406 0.0
C547 C 0.01099 0.75247 0.51765 0.0
H548 H 0.01072 0.79323 0.54372 0.0
C549 C 0.99981 0.7461 0.45453 0.0
C550 C 0.99213 0.75641 0.42404 0.0
H551 H 0.01648 0.74408 0.54069 0.0
H552 H 0.99699 0.73298 0.43001 0.0
C553 C 0.99611 0.77341 0.45706 0.0
C554 C 0.22559 0.21645 0.47908 0.0
C555 C 0.24348 0.22688 0.44779 0.0
H556 H 0.2068 0.21498 0.56451 0.0
C557 C 0.25647 0.24391 0.48039 0.0
H558 H 0.21527 0.20336 0.45441 0.0
C559 C 0.2518 0.25031 0.5438 0.0
C560 C 0.23383 0.24011 0.57446 0.0
H561 H 0.27035 0.25223 0.45718 0.0
H562 H 0.26219 0.26338 0.56836 0.0
C563 C 0.22069 0.22317 0.54138 0.0
C564 C 0.89743 0.33651 0.80225 0.0
C565 C 0.91502 0.34204 0.77082 0.0
H566 H 0.87754 0.3204 0.88662 0.0
C567 C 0.92624 0.33546 0.80199 0.0
H568 H 0.88844 0.34127 0.77903 0.0
C569 C 0.92013 0.32376 0.8636 0.0
C570 C 0.90251 0.31807 0.89481 0.0
H571 H 0.93986 0.33945 0.77907 0.0
H572 H 0.92922 0.31909 0.88653 0.0
C573 C 0.89114 0.32446 0.86335 0.0
C574 C 0.65504 0.57872 0.81055 0.0
C575 C 0.65085 0.56151 0.77924 0.0
H576 H 0.6689 0.5985 0.89747 0.0
C577 C 0.65822 0.55111 0.81162 0.0
H578 H 0.64956 0.58703 0.78649 0.0
C579 C 0.66985 0.558 0.87381 0.0
C580 C 0.67376 0.5751 0.90567 0.0
H581 H 0.65533 0.53788 0.78795 0.0
H582 H 0.67543 0.5498 0.89789 0.0
C583 C 0.66613 0.5853 0.87383 0.0
C584 C 0.44955 0.10947 0.79649 0.0
C585 C 0.43706 0.09252 0.76185 0.0
H586 H 0.45375 0.12865 0.88457 0.0
C587 C 0.41897 0.08164 0.7908 0.0
H588 H 0.46352 0.11818 0.77469 0.0
C589 C 0.41357 0.0874 0.85407 0.0
C590 C 0.42592 0.10444 0.88823 0.0
H591 H 0.40907 0.06853 0.765 0.0
H592 H 0.39963 0.07857 0.87597 0.0
C593 C 0.44392 0.11554 0.85864 0.0
C594 C 0.40954 0.33654 0.80413 0.0
C595 C 0.4273 0.34293 0.77296 0.0
H596 H 0.3901 0.32031 0.88862 0.0
C597 C 0.43922 0.33722 0.80445 0.0
H598 H 0.40003 0.34068 0.78117 0.0
C599 C 0.43335 0.32517 0.86556 0.0
C600 C 0.41562 0.31896 0.89697 0.0
H601 H 0.45294 0.34183 0.78123 0.0
H602 H 0.44277 0.32096 0.88884 0.0
C603 C 0.40384 0.32485 0.86573 0.0
C604 C 0.68141 0.08541 0.83832 0.0
C605 C 0.68523 0.10238 0.87107 0.0
H606 H 0.66729 0.06554 0.75221 0.0
C607 C 0.6772 0.11241 0.84072 0.0
H608 H 0.68739 0.07737 0.86053 0.0
C609 C 0.66527 0.10537 0.77938 0.0
C610 C 0.66156 0.08842 0.74653 0.0
H611 H 0.67979 0.12545 0.86531 0.0
H612 H 0.65915 0.11328 0.75716 0.0
C613 C 0.66987 0.07862 0.77632 0.0
C614 C 0.89101 0.54896 0.81277 0.0
C615 C 0.90884 0.55985 0.78154 0.0
H616 H 0.87195 0.54677 0.89834 0.0
C617 C 0.92146 0.577 0.81438 0.0
H618 H 0.88097 0.53577 0.78789 0.0
C619 C 0.91649 0.58305 0.87801 0.0
C620 C 0.89856 0.57237 0.9086 0.0
H621 H 0.93528 0.58567 0.79119 0.0
H622 H 0.9266 0.59622 0.90281 0.0
C623 C 0.88579 0.55533 0.87525 0.0
C624 C 0.56035 0.66061 0.19781 0.0
C625 C 0.57184 0.65432 0.22894 0.0
H626 H 0.55741 0.67731 0.11366 0.0
C627 C 0.58945 0.66013 0.1974 0.0
H628 H 0.54676 0.65646 0.22133 0.0
C629 C 0.59542 0.67181 0.13577 0.0
C630 C 0.58407 0.67827 0.10488 0.0
H631 H 0.59864 0.65553 0.22009 0.0
H632 H 0.60903 0.67588 0.11259 0.0
C633 C 0.5665 0.67264 0.13666 0.0
C634 C 0.32983 0.91926 0.21997 0.0
C635 C 0.33799 0.90932 0.24978 0.0
H636 H 0.31243 0.9207 0.13574 0.0
C637 C 0.33412 0.89232 0.21696 0.0
H638 H 0.33254 0.93239 0.24407 0.0
C639 C 0.32218 0.88537 0.15563 0.0
C640 C 0.31429 0.89554 0.12526 0.0
H641 H 0.34012 0.88431 0.23921 0.0
H642 H 0.31945 0.87228 0.13106 0.0
C643 C 0.31829 0.91256 0.15796 0.0
C644 C 0.10035 0.42795 0.22257 0.0
C645 C 0.09151 0.43874 0.22031 0.0
H646 H 0.11207 0.41415 0.16013 0.0
C647 C 0.08758 0.4439 0.15179 0.0
H648 H 0.10356 0.42388 0.275 0.0
C649 C 0.09184 0.43779 0.08639 0.0
C650 C 0.10074 0.42705 0.08867 0.0
H651 H 0.08071 0.45215 0.14886 0.0
H652 H 0.08832 0.44157 0.03397 0.0
C653 C 0.10526 0.42245 0.15717 0.0
C654 C 0.10097 0.66099 0.19581 0.0
C655 C 0.08328 0.65535 0.22659 0.0
H656 H 0.12101 0.67722 0.11206 0.0
C657 C 0.07204 0.66181 0.19471 0.0
H658 H 0.10999 0.65633 0.21957 0.0
C659 C 0.07822 0.67352 0.13313 0.0
C660 C 0.09595 0.67935 0.10264 0.0
H661 H 0.05835 0.65773 0.21711 0.0
H662 H 0.06912 0.67812 0.1097 0.0
C663 C 0.10733 0.67305 0.13474 0.0
C664 C 0.32754 0.42686 0.22046 0.0
C665 C 0.34714 0.43777 0.218 0.0
H666 H 0.30199 0.4128 0.15826 0.0
C667 C 0.35619 0.4429 0.1494 0.0
H668 H 0.32029 0.4228 0.27297 0.0
C669 C 0.34579 0.43664 0.08411 0.0
C670 C 0.32618 0.42577 0.08657 0.0
H671 H 0.37129 0.45126 0.14633 0.0
H672 H 0.35306 0.4404 0.03162 0.0
C673 C 0.31709 0.42119 0.15516 0.0
C674 C 0.54977 0.88783 0.20276 0.0
C675 C 0.56221 0.90483 0.23718 0.0
H676 H 0.54563 0.86864 0.11473 0.0
C677 C 0.58024 0.91581 0.2079 0.0
H678 H 0.53585 0.87904 0.22483 0.0
C679 C 0.58564 0.9101 0.14449 0.0
C680 C 0.57335 0.893 0.11056 0.0
H681 H 0.5901 0.92896 0.23354 0.0
H682 H 0.59953 0.919 0.12232 0.0
C683 C 0.55541 0.8818 0.14048 0.0
C684 C 0.21403 0.99296 0.96166 0.0
C685 C 0.22515 0.98611 0.93181 0.0
H686 H 0.21185 0.0107 0.04299 0.0
C687 C 0.24268 0.99155 0.96339 0.0
H688 H 0.20042 0.98889 0.93835 0.0
C689 C 0.2489 0.00347 0.02432 0.0
C690 C 0.23794 0.01056 0.0536 0.0
H691 H 0.25143 0.9863 0.94194 0.0
H692 H 0.26249 0.00743 0.04759 0.0
C693 C 0.22052 0.00535 0.02144 0.0
C694 C 0.00617 0.22419 0.09082 0.0
C695 C 0.98735 0.21166 0.07386 0.0
H696 H 0.03386 0.24169 0.04857 0.0
C697 C 0.98225 0.20594 0.00034 0.0
H698 H 0.01044 0.22876 0.14717 0.0
C699 C 0.99549 0.21366 0.94404 0.0
C700 C 0.01414 0.22679 0.96062 0.0
H701 H 0.96781 0.19636 0.98572 0.0
H702 H 0.99105 0.20981 0.88729 0.0
C703 C 0.01955 0.2315 0.03461 0.0
C704 C 0.78954 0.78411 0.91158 0.0
C705 C 0.78169 0.79533 0.92893 0.0
H706 H 0.80045 0.76718 0.95319 0.0
C707 C 0.78112 0.80007 0.00304 0.0
H708 H 0.79022 0.78032 0.85483 0.0
C709 C 0.78658 0.79225 0.05921 0.0
C710 C 0.79315 0.77995 0.04209 0.0
H711 H 0.77512 0.80866 0.0181 0.0
H712 H 0.78481 0.79509 0.11617 0.0
C713 C 0.79545 0.77665 0.96778 0.0
C714 C 0.75107 0.9959 0.97329 0.0
C715 C 0.76197 0.98879 0.94355 0.0
H716 H 0.74868 0.01305 0.05609 0.0
C717 C 0.77943 0.99396 0.97528 0.0
H718 H 0.73747 0.99196 0.95035 0.0
C719 C 0.78602 0.00632 0.03514 0.0
C720 C 0.77495 0.01319 0.06547 0.0
H721 H 0.78805 0.98859 0.95337 0.0
H722 H 0.79964 0.01037 0.05813 0.0
C723 C 0.75739 0.00778 0.03428 0.0
C724 C 0.99424 0.77554 0.91142 0.0
C725 C 0.01317 0.78762 0.92826 0.0
H726 H 0.96652 0.75837 0.95394 0.0
C727 C 0.01848 0.79286 0.00202 0.0
H728 H 0.98982 0.77133 0.85489 0.0
C729 C 0.00531 0.78509 0.05852 0.0
C730 C 0.98653 0.77242 0.04195 0.0
H731 H 0.03301 0.80208 0.0165 0.0
H732 H 0.00989 0.78856 0.11533 0.0
C733 C 0.98094 0.7682 0.96788 0.0
C734 C 0.2163 0.22068 0.08696 0.0
C735 C 0.22307 0.20855 0.06943 0.0
H736 H 0.20599 0.23815 0.04551 0.0
C737 C 0.22308 0.20344 0.99542 0.0
H738 H 0.21613 0.22479 0.14367 0.0
C739 C 0.21776 0.21143 0.9394 0.0
C740 C 0.21182 0.22421 0.95665 0.0
H741 H 0.22832 0.1942 0.98034 0.0
H742 H 0.21886 0.20808 0.88241 0.0
C743 C 0.21045 0.22825 0.03097 0.0
C744 C 0.88516 0.33736 0.36265 0.0
C745 C 0.90282 0.34297 0.39343 0.0
H746 H 0.86483 0.32045 0.28092 0.0
C747 C 0.91394 0.33619 0.36316 0.0
H748 H 0.87638 0.34248 0.38501 0.0
C749 C 0.90765 0.32419 0.30254 0.0
C750 C 0.8899 0.31833 0.27234 0.0
H751 H 0.9277 0.34047 0.38537 0.0
H752 H 0.91654 0.31919 0.28026 0.0
C753 C 0.87861 0.32485 0.30322 0.0
C754 C 0.68441 0.56244 0.36184 0.0
C755 C 0.6789 0.55891 0.28749 0.0
H756 H 0.67543 0.55835 0.47481 0.0
C757 C 0.66013 0.54636 0.27013 0.0
H758 H 0.69882 0.57213 0.37648 0.0
C759 C 0.64689 0.53811 0.3262 0.0
C760 C 0.65213 0.54272 0.40042 0.0
H761 H 0.65559 0.54337 0.2131 0.0
H762 H 0.63237 0.52906 0.31116 0.0
C763 C 0.67106 0.55461 0.41794 0.0
C764 C 0.45288 0.11084 0.24848 0.0
C765 C 0.44573 0.12266 0.26571 0.0
H766 H 0.46442 0.09446 0.29021 0.0
C767 C 0.44635 0.12843 0.33916 0.0
H768 H 0.45262 0.10625 0.19219 0.0
C769 C 0.45268 0.12137 0.39518 0.0
C770 C 0.45899 0.10886 0.37842 0.0
H771 H 0.44087 0.13749 0.35402 0.0
H772 H 0.45203 0.12519 0.45194 0.0
C773 C 0.45971 0.10418 0.30438 0.0
C774 C 0.41644 0.32483 0.30471 0.0
C775 C 0.42818 0.31881 0.27427 0.0
H776 H 0.41292 0.34122 0.38784 0.0
C777 C 0.44597 0.32513 0.30503 0.0
H778 H 0.40257 0.31998 0.28252 0.0
C779 C 0.45205 0.33759 0.36459 0.0
C780 C 0.44016 0.34337 0.3956 0.0
H781 H 0.45522 0.3206 0.28255 0.0
H782 H 0.46593 0.34256 0.38685 0.0
C783 C 0.42227 0.33679 0.36545 0.0
C784 C 0.67228 0.12377 0.27704 0.0
C785 C 0.67982 0.11345 0.24512 0.0
H786 H 0.65386 0.12434 0.3598 0.0
C787 C 0.67451 0.09559 0.2726 0.0
H788 H 0.67623 0.13759 0.25677 0.0
C789 C 0.66237 0.08839 0.33237 0.0
C790 C 0.65485 0.09865 0.36453 0.0
H791 H 0.68024 0.08741 0.24952 0.0
H792 H 0.65877 0.07472 0.35334 0.0
C793 C 0.65956 0.11624 0.33568 0.0
C794 C 0.88828 0.53536 0.32947 0.0
C795 C 0.88817 0.54051 0.40335 0.0
H796 H 0.8837 0.53957 0.21638 0.0
C797 C 0.88076 0.5521 0.42067 0.0
H798 H 0.89399 0.52651 0.31453 0.0
C799 C 0.87443 0.55919 0.36455 0.0
C800 C 0.87595 0.5552 0.29031 0.0
H801 H 0.88048 0.55622 0.47728 0.0
H802 H 0.86953 0.56876 0.37891 0.0
C803 C 0.88247 0.54287 0.27331 0.0
C804 C 0.57692 0.66029 0.63669 0.0
C805 C 0.55929 0.65449 0.60554 0.0
H806 H 0.5967 0.67646 0.72046 0.0
C807 C 0.5479 0.661 0.63571 0.0
H808 H 0.58587 0.65529 0.61496 0.0
C809 C 0.55427 0.67342 0.69539 0.0
C810 C 0.57181 0.67898 0.72711 0.0
H811 H 0.53421 0.65664 0.61269 0.0
H812 H 0.54542 0.67854 0.7172 0.0
C813 C 0.58302 0.67221 0.69753 0.0
C814 C 0.32491 0.90213 0.72377 0.0
C815 C 0.31936 0.88421 0.75107 0.0
H816 H 0.34086 0.92297 0.64322 0.0
C817 C 0.32668 0.87371 0.719 0.0
H818 H 0.31935 0.91045 0.74698 0.0
C819 C 0.33943 0.88113 0.6604 0.0
C820 C 0.34438 0.8988 0.63175 0.0
H821 H 0.32255 0.85983 0.73914 0.0
H822 H 0.34497 0.87289 0.63616 0.0
C823 C 0.33708 0.90923 0.66404 0.0
C824 C 0.12809 0.44314 0.63627 0.0
C825 C 0.12583 0.44654 0.71049 0.0
H826 H 0.12251 0.44638 0.5233 0.0
C827 C 0.11899 0.45863 0.72734 0.0
H828 H 0.1333 0.43383 0.62191 0.0
C829 C 0.11319 0.4661 0.67103 0.0
C830 C 0.1137 0.46121 0.59709 0.0
H831 H 0.11724 0.46153 0.78425 0.0
H832 H 0.10698 0.47452 0.68593 0.0
C833 C 0.12185 0.45025 0.57994 0.0
C834 C 0.09118 0.67376 0.69515 0.0
C835 C 0.10902 0.67975 0.72464 0.0
H836 H 0.07102 0.65743 0.61271 0.0
C837 C 0.12041 0.67346 0.69266 0.0
H838 H 0.08221 0.67858 0.71826 0.0
C839 C 0.11384 0.66105 0.63293 0.0
C840 C 0.09607 0.65528 0.60296 0.0
H841 H 0.13426 0.67797 0.71435 0.0
H842 H 0.1227 0.65611 0.60978 0.0
C843 C 0.08486 0.66184 0.63427 0.0
C844 C 0.31455 0.44135 0.63402 0.0
C845 C 0.32022 0.44483 0.70821 0.0
H846 H 0.32334 0.44477 0.52098 0.0
C847 C 0.33909 0.45717 0.72498 0.0
H848 H 0.30007 0.43185 0.61974 0.0
C849 C 0.35231 0.46487 0.66859 0.0
C850 C 0.34692 0.45995 0.59466 0.0
H851 H 0.34375 0.46014 0.78186 0.0
H852 H 0.36691 0.47351 0.68341 0.0
C853 C 0.32785 0.44869 0.57761 0.0
C854 C 0.55292 0.86869 0.65947 0.0
C855 C 0.55338 0.87431 0.73305 0.0
H856 H 0.54739 0.87209 0.54669 0.0
C857 C 0.54605 0.88598 0.75043 0.0
H858 H 0.55854 0.85976 0.64448 0.0
C859 C 0.53924 0.89266 0.69458 0.0
C860 C 0.54016 0.88817 0.62045 0.0
H861 H 0.54619 0.89045 0.80682 0.0
H862 H 0.53441 0.90228 0.70891 0.0
C863 C 0.5466 0.87578 0.60351 0.0
C864 C 0.3508 0.10272 0.2259 0.0
C865 C 0.35733 0.10524 0.15275 0.0
H866 H 0.32696 0.09019 0.29782 0.0
C867 C 0.34438 0.09765 0.09475 0.0
H868 H 0.36054 0.10837 0.27162 0.0
C869 C 0.32518 0.08778 0.10967 0.0
C870 C 0.31868 0.08481 0.18292 0.0
H871 H 0.34908 0.09946 0.03792 0.0
H872 H 0.31545 0.082 0.06399 0.0
C873 C 0.33165 0.09231 0.24093 0.0
C874 C 0.89944 0.23509 0.09358 0.0
C875 C 0.89398 0.24296 0.15022 0.0
H876 H 0.91283 0.21937 0.06564 0.0
C877 C 0.89781 0.24073 0.22399 0.0
H878 H 0.89666 0.23665 0.03631 0.0
C879 C 0.90756 0.23137 0.24065 0.0
C880 C 0.91308 0.22356 0.18396 0.0
H881 H 0.89387 0.24682 0.26864 0.0
H882 H 0.91078 0.23024 0.29777 0.0
C883 C 0.90863 0.2252 0.1104 0.0
C884 C 0.73423 0.65874 0.1506 0.0
C885 C 0.74396 0.6488 0.1475 0.0
H886 H 0.73603 0.68537 0.16657 0.0
C887 C 0.76345 0.65854 0.15711 0.0
H888 H 0.71918 0.65156 0.14395 0.0
C889 C 0.77306 0.67781 0.16895 0.0
C890 C 0.76337 0.68776 0.17307 0.0
H891 H 0.77134 0.65129 0.15499 0.0
H892 H 0.78811 0.6849 0.1757 0.0
C893 C 0.74384 0.67803 0.16415 0.0
C894 C 0.09755 0.32572 0.82453 0.0
C895 C 0.07805 0.31573 0.81528 0.0
H896 H 0.12197 0.35225 0.84294 0.0
C897 C 0.06807 0.32541 0.81857 0.0
H898 H 0.10562 0.31865 0.82227 0.0
C899 C 0.07743 0.3447 0.83209 0.0
C900 C 0.09697 0.35466 0.8408 0.0
H901 H 0.05301 0.31803 0.81222 0.0
H902 H 0.06944 0.35184 0.83475 0.0
C903 C 0.10691 0.34497 0.83636 0.0
C904 C 0.68492 0.77099 0.89371 0.0
C905 C 0.69128 0.77232 0.82074 0.0
H906 H 0.66122 0.7597 0.96641 0.0
C907 C 0.67823 0.76367 0.76372 0.0
H908 H 0.69476 0.77753 0.93862 0.0
C909 C 0.65907 0.75405 0.77931 0.0
C910 C 0.65273 0.7524 0.85246 0.0
H911 H 0.68282 0.7646 0.70703 0.0
H912 H 0.64923 0.74752 0.73439 0.0
C913 C 0.6658 0.76082 0.90961 0.0
C914 C 0.22643 0.90386 0.88754 0.0
C915 C 0.22564 0.90836 0.81322 0.0
H916 H 0.23623 0.89105 0.96502 0.0
C917 C 0.23298 0.90177 0.75854 0.0
H918 H 0.22096 0.90884 0.93091 0.0
C919 C 0.2413 0.8912 0.77799 0.0
C920 C 0.24289 0.88749 0.85261 0.0
H921 H 0.2325 0.90499 0.70086 0.0
H922 H 0.24721 0.88664 0.73481 0.0
C923 C 0.23521 0.89375 0.90714 0.0
C924 C 0.66798 0.90701 0.75696 0.0
C925 C 0.68093 0.91461 0.81497 0.0
H926 H 0.63912 0.89057 0.7263 0.0
C927 C 0.67443 0.91151 0.88824 0.0
H928 H 0.67266 0.90921 0.70006 0.0
C929 C 0.65526 0.90136 0.90319 0.0
C930 C 0.64232 0.89363 0.8452 0.0
H931 H 0.68416 0.91735 0.93392 0.0
H932 H 0.65055 0.89942 0.96004 0.0
C933 C 0.64885 0.89633 0.77201 0.0
C934 C 0.09094 0.77314 0.88901 0.0
C935 C 0.08654 0.77489 0.81551 0.0
H936 H 0.10268 0.76141 0.96287 0.0
C937 C 0.09188 0.76696 0.75869 0.0
H938 H 0.08687 0.77905 0.93387 0.0
C939 C 0.10142 0.75739 0.77515 0.0
C940 C 0.10522 0.75506 0.84886 0.0
H941 H 0.08868 0.76816 0.70161 0.0
H942 H 0.10524 0.75122 0.73039 0.0
C943 C 0.09992 0.76303 0.90565 0.0
C944 C 0.25721 0.32375 0.8174 0.0
C945 C 0.23755 0.314 0.81501 0.0
H946 H 0.28224 0.35023 0.83272 0.0
C947 C 0.22801 0.32394 0.82518 0.0
H948 H 0.26493 0.31641 0.8103 0.0
C949 C 0.23786 0.3432 0.83694 0.0
C950 C 0.2575 0.35295 0.84038 0.0
H951 H 0.21287 0.31683 0.82361 0.0
H952 H 0.23005 0.35043 0.84416 0.0
C953 C 0.26711 0.34304 0.83084 0.0
C954 C 0.90115 0.67401 0.17577 0.0
C955 C 0.92073 0.6836 0.18242 0.0
H956 H 0.87621 0.64775 0.15864 0.0
C957 C 0.93032 0.67362 0.175 0.0
H958 H 0.8934 0.68135 0.18118 0.0
C959 C 0.92049 0.65441 0.16014 0.0
C960 C 0.90088 0.64481 0.15433 0.0
H961 H 0.94542 0.68071 0.17922 0.0
H962 H 0.92819 0.64702 0.1545 0.0
C963 C 0.89132 0.65478 0.16279 0.0
C964 C 0.3422 0.2409 0.22329 0.0
C965 C 0.34849 0.24356 0.14977 0.0
H966 H 0.31851 0.22956 0.29604 0.0
C967 C 0.33537 0.23574 0.09242 0.0
H968 H 0.35205 0.24693 0.26848 0.0
C969 C 0.31627 0.22541 0.10832 0.0
C970 C 0.30993 0.22325 0.18168 0.0
H971 H 0.33989 0.2376 0.03533 0.0
H972 H 0.30641 0.21957 0.06304 0.0
C973 C 0.32305 0.23108 0.23906 0.0
C974 C 0.76474 0.10515 0.08995 0.0
C975 C 0.7569 0.11128 0.14434 0.0
H976 H 0.77927 0.09032 0.06646 0.0
C977 C 0.75856 0.10766 0.21902 0.0
H978 H 0.76368 0.10778 0.03203 0.0
C979 C 0.76708 0.09729 0.23866 0.0
C980 C 0.77455 0.0908 0.18412 0.0
H981 H 0.75255 0.11214 0.26211 0.0
H982 H 0.76759 0.09412 0.29638 0.0
C983 C 0.77371 0.09523 0.10974 0.0
C984 C 0.01627 0.43537 0.56113 0.0
C985 C 0.02275 0.43677 0.48832 0.0
H986 H 0.99247 0.4238 0.63338 0.0
C987 C 0.00979 0.42792 0.43113 0.0
H988 H 0.02603 0.44206 0.60616 0.0
C989 C 0.99063 0.41805 0.44638 0.0
C990 C 0.98417 0.41635 0.51936 0.0
H991 H 0.01448 0.42888 0.37456 0.0
H992 H 0.98086 0.4114 0.40131 0.0
C993 C 0.99714 0.42495 0.57671 0.0
C994 C 0.57657 0.55997 0.44132 0.0
C995 C 0.58075 0.55782 0.51468 0.0
H996 H 0.56548 0.57249 0.36822 0.0
C997 C 0.57586 0.56602 0.57194 0.0
H998 H 0.58031 0.55387 0.39612 0.0
C999 C 0.56691 0.5762 0.55608 0.0
C1000 C 0.56327 0.57884 0.48256 0.0
H1001 H 0.57892 0.56452 0.62891 0.0
H1002 H 0.56337 0.5825 0.60119 0.0
C1003 C 0.56817 0.57065 0.42531 0.0
C1004 C 0.44373 0.00959 0.51196 0.0
C1005 C 0.43503 0.02048 0.51669 0.0
H1006 H 0.44014 0.98227 0.49522 0.0
C1007 C 0.41562 0.01191 0.50584 0.0
H1008 H 0.45868 0.01588 0.51996 0.0
C1009 C 0.40514 0.99286 0.48938 0.0
C1010 C 0.41379 0.98192 0.48553 0.0
H1011 H 0.4086 0.02002 0.50844 0.0
H1012 H 0.3902 0.98662 0.48101 0.0
C1013 C 0.43315 0.99041 0.49768 0.0
C1014 C 0.59429 0.00447 0.50881 0.0
C1015 C 0.58564 0.01542 0.51267 0.0
H1016 H 0.5908 0.97729 0.4902 0.0
C1017 C 0.56626 0.0069 0.50112 0.0
H1018 H 0.60925 0.01074 0.51673 0.0
C1019 C 0.55566 0.98769 0.48736 0.0
C1020 C 0.56435 0.97681 0.48258 0.0
H1021 H 0.55927 0.01504 0.50361 0.0
H1022 H 0.54069 0.98139 0.47976 0.0
C1023 C 0.58378 0.9854 0.49288 0.0
C1024 C 0.98967 0.56743 0.57084 0.0
C1025 C 0.97652 0.55916 0.5138 0.0
H1026 H 0.01866 0.584 0.59959 0.0
C1027 C 0.98278 0.56148 0.44028 0.0
H1028 H 0.98518 0.56581 0.62793 0.0
C1029 C 0.00182 0.5723 0.42391 0.0
C1030 C 0.01498 0.58045 0.48098 0.0
H1031 H 0.97288 0.55532 0.39527 0.0
H1032 H 0.00628 0.57419 0.36675 0.0
C1033 C 0.00877 0.57773 0.55463 0.0
C1034 C 0.41972 0.43607 0.55999 0.0
C1035 C 0.41461 0.43725 0.48699 0.0
H1036 H 0.43207 0.42479 0.6331 0.0
C1037 C 0.41885 0.42838 0.4303 0.0
H1038 H 0.41653 0.44276 0.60466 0.0
C1039 C 0.42828 0.41868 0.44624 0.0
C1040 C 0.43304 0.41716 0.51944 0.0
H1041 H 0.4151 0.42918 0.3736 0.0
H1042 H 0.43146 0.41197 0.40156 0.0
C1043 C 0.42856 0.42581 0.57627 0.0
C1044 C 0.2405 0.1057 0.11712 0.0
C1045 C 0.24334 0.09862 0.18334 0.0
H1046 H 0.23788 0.12738 0.06451 0.0
C1047 C 0.2436 0.10739 0.25029 0.0
H1048 H 0.23998 0.09913 0.06465 0.0
C1049 C 0.24238 0.12374 0.25021 0.0
C1050 C 0.24087 0.13149 0.18317 0.0
H1051 H 0.24573 0.10222 0.30222 0.0
H1052 H 0.24362 0.13082 0.30207 0.0
C1053 C 0.23928 0.12192 0.11704 0.0
C1054 C 0.86818 0.10897 0.26346 0.0
C1055 C 0.86036 0.09925 0.19729 0.0
H1056 H 0.89062 0.13356 0.31347 0.0
C1057 C 0.87078 0.10562 0.13178 0.0
H1058 H 0.86047 0.10435 0.31482 0.0
C1059 C 0.88787 0.12222 0.131 0.0
C1060 C 0.89499 0.13283 0.19572 0.0
H1061 H 0.86527 0.09831 0.08004 0.0
H1062 H 0.89505 0.12721 0.07871 0.0
C1063 C 0.88542 0.12568 0.26269 0.0
C1064 C 0.88489 0.75136 0.10318 0.0
C1065 C 0.89426 0.75276 0.16968 0.0
H1066 H 0.86111 0.74999 0.05077 0.0
C1067 C 0.88707 0.75557 0.2359 0.0
H1068 H 0.89014 0.74941 0.05106 0.0
C1069 C 0.87021 0.7559 0.23574 0.0
C1070 C 0.86037 0.75342 0.16936 0.0
H1071 H 0.89402 0.75672 0.288 0.0
H1072 H 0.86453 0.75731 0.28771 0.0
C1073 C 0.86819 0.75168 0.10302 0.0
C1074 C 0.11708 0.25052 0.89962 0.0
C1075 C 0.1072 0.24825 0.83369 0.0
H1076 H 0.14127 0.25258 0.95117 0.0
C1077 C 0.11397 0.24471 0.76788 0.0
H1078 H 0.11218 0.25307 0.95146 0.0
C1079 C 0.13086 0.24444 0.76769 0.0
C1080 C 0.14117 0.24769 0.83333 0.0
H1081 H 0.10663 0.24288 0.71621 0.0
H1082 H 0.13616 0.24241 0.71589 0.0
C1083 C 0.13382 0.25024 0.89945 0.0
C1084 C 0.75648 0.87508 0.74779 0.0
C1085 C 0.75751 0.86707 0.8149 0.0
H1086 H 0.75371 0.89694 0.69559 0.0
C1087 C 0.7587 0.87642 0.88124 0.0
H1088 H 0.75558 0.86819 0.69577 0.0
C1089 C 0.75766 0.89273 0.88113 0.0
C1090 C 0.75539 0.90014 0.81469 0.0
H1091 H 0.75974 0.87076 0.93385 0.0
H1092 H 0.75793 0.89915 0.93369 0.0
C1093 C 0.75541 0.89152 0.74768 0.0
C1094 C 0.13196 0.89003 0.73566 0.0
C1095 C 0.13989 0.89977 0.80169 0.0
H1096 H 0.10946 0.8654 0.6861 0.0
C1097 C 0.12963 0.89336 0.86753 0.0
H1098 H 0.13955 0.89467 0.68405 0.0
C1099 C 0.11257 0.87672 0.86871 0.0
C1100 C 0.10533 0.86611 0.80406 0.0
H1101 H 0.13522 0.90068 0.91918 0.0
H1102 H 0.10551 0.87171 0.9212 0.0
C1103 C 0.11475 0.87328 0.73683 0.0
C1104 C 0.91082 0.44131 0.58522 0.0
C1105 C 0.91069 0.43254 0.51843 0.0
H1106 H 0.91094 0.46483 0.63661 0.0
C1107 C 0.90845 0.4399 0.45182 0.0
H1108 H 0.9125 0.43592 0.63745 0.0
C1109 C 0.90757 0.45631 0.45134 0.0
C1110 C 0.90889 0.46579 0.51747 0.0
H1111 H 0.90807 0.43338 0.39942 0.0
H1112 H 0.90654 0.46192 0.39861 0.0
C1113 C 0.90992 0.45784 0.58474 0.0
C1114 C 0.53121 0.44136 0.58561 0.0
C1115 C 0.52252 0.43244 0.5191 0.0
H1116 H 0.55464 0.46498 0.63624 0.0
C1117 C 0.53214 0.43956 0.45232 0.0
H1118 H 0.52415 0.43616 0.63795 0.0
C1119 C 0.54946 0.45591 0.45135 0.0
C1120 C 0.55763 0.46558 0.51713 0.0
H1121 H 0.52597 0.4329 0.40015 0.0
H1122 H 0.55609 0.46138 0.39847 0.0
C1123 C 0.54867 0.45783 0.58463 0.0
C1124 C 0.55805 0.09004 0.57104 0.0
C1125 C 0.56573 0.08831 0.50414 0.0
H1126 H 0.53501 0.0907 0.62355 0.0
C1127 C 0.55694 0.08814 0.43751 0.0
H1128 H 0.56455 0.09023 0.62326 0.0
C1129 C 0.54018 0.08837 0.43769 0.0
C1130 C 0.53178 0.08882 0.50449 0.0
H1131 H 0.5626 0.08707 0.38492 0.0
H1132 H 0.53345 0.08748 0.38526 0.0
C1133 C 0.54117 0.09031 0.57121 0.0
C1134 C 0.78071 0.5811 0.22986 0.0
C1135 C 0.77145 0.57981 0.16315 0.0
H1136 H 0.80421 0.58201 0.2829 0.0
C1137 C 0.77854 0.57671 0.09726 0.0
H1138 H 0.77552 0.58326 0.28176 0.0
C1139 C 0.79519 0.57599 0.0979 0.0
C1140 C 0.80493 0.57834 0.16446 0.0
H1141 H 0.77167 0.57562 0.04501 0.0
H1142 H 0.80081 0.57438 0.04611 0.0
C1143 C 0.7972 0.58037 0.23052 0.0
C1144 C 0.42787 0.20759 0.21504 0.0
C1145 C 0.42594 0.19776 0.14931 0.0
H1146 H 0.42765 0.2307 0.26662 0.0
C1147 C 0.42434 0.20535 0.08204 0.0
H1148 H 0.42937 0.20225 0.2677 0.0
C1149 C 0.42332 0.22182 0.08141 0.0
C1150 C 0.42392 0.23087 0.14804 0.0
H1151 H 0.42286 0.19808 0.03048 0.0
H1152 H 0.42109 0.22687 0.02937 0.0
C1153 C 0.42688 0.22394 0.21441 0.0
C1154 C 0.78093 0.20558 0.06794 0.0
C1155 C 0.77078 0.19811 0.13355 0.0
H1156 H 0.80644 0.22693 0.01924 0.0
C1157 C 0.77769 0.20814 0.19969 0.0
H1158 H 0.77594 0.19817 0.01609 0.0
C1159 C 0.79505 0.22445 0.2015 0.0
C1160 C 0.80591 0.23118 0.13719 0.0
H1161 H 0.77012 0.2029 0.25108 0.0
H1162 H 0.80032 0.23132 0.25419 0.0
C1163 C 0.79839 0.22203 0.06974 0.0
C1164 C 0.57587 0.77495 0.78369 0.0
C1165 C 0.57837 0.76788 0.85059 0.0
H1166 H 0.57332 0.79651 0.72964 0.0
C1167 C 0.5783 0.77667 0.91706 0.0
H1168 H 0.57562 0.76839 0.73154 0.0
C1169 C 0.57696 0.79296 0.91596 0.0
C1170 C 0.57567 0.80063 0.84838 0.0
H1171 H 0.58017 0.77151 0.9695 0.0
H1172 H 0.57784 0.79999 0.96757 0.0
C1173 C 0.57454 0.7911 0.7826 0.0
C1174 C 0.20072 0.77597 0.92717 0.0
C1175 C 0.1931 0.76684 0.85978 0.0
H1176 H 0.2232 0.79986 0.98057 0.0
C1177 C 0.20382 0.77366 0.79517 0.0
H1178 H 0.19278 0.771 0.97789 0.0
C1179 C 0.22114 0.79004 0.7967 0.0
C1180 C 0.22815 0.80003 0.86286 0.0
H1181 H 0.19847 0.76682 0.7425 0.0
H1182 H 0.2286 0.79534 0.74513 0.0
C1183 C 0.21813 0.79248 0.92869 0.0
C1184 C 0.2011 0.41837 0.77135 0.0
C1185 C 0.19345 0.42035 0.8377 0.0
H1186 H 0.22295 0.41598 0.71915 0.0
C1187 C 0.20341 0.42298 0.90388 0.0
H1188 H 0.19393 0.41654 0.71924 0.0
C1189 C 0.22027 0.42265 0.90382 0.0
C1190 C 0.22733 0.41969 0.83759 0.0
H1191 H 0.19785 0.42456 0.95585 0.0
H1192 H 0.22736 0.42401 0.95574 0.0
C1193 C 0.21779 0.41804 0.7713 0.0
C1194 C 0.44234 0.90915 0.56053 0.0
C1195 C 0.43361 0.90901 0.49375 0.0
H1196 H 0.46577 0.90979 0.6132 0.0
C1197 C 0.44138 0.90732 0.42698 0.0
H1198 H 0.43662 0.91019 0.61302 0.0
C1199 C 0.45826 0.90706 0.42711 0.0
C1200 C 0.46758 0.90852 0.494 0.0
H1201 H 0.43493 0.90716 0.37465 0.0
H1202 H 0.46448 0.9067 0.37488 0.0
C1203 C 0.4591 0.90893 0.56065 0.0
C1204 C 0.08803 0.55685 0.41109 0.0
C1205 C 0.08859 0.56589 0.4777 0.0
H1206 H 0.08719 0.53292 0.36025 0.0
C1207 C 0.09086 0.55857 0.54438 0.0
H1208 H 0.08631 0.56219 0.35883 0.0
C1209 C 0.0913 0.54194 0.54518 0.0
C1210 C 0.08953 0.53221 0.47933 0.0
H1211 H 0.09157 0.5653 0.59662 0.0
H1212 H 0.09236 0.53638 0.59799 0.0
C1213 C 0.08852 0.54011 0.4119 0.0
C1214 C 0.46623 0.55874 0.544 0.0
C1215 C 0.4761 0.56604 0.47785 0.0
H1216 H 0.4424 0.53648 0.5966 0.0
C1217 C 0.46791 0.55696 0.41093 0.0
H1218 H 0.47202 0.56549 0.59644 0.0
C1219 C 0.45073 0.54018 0.41104 0.0
C1220 C 0.4416 0.53227 0.47807 0.0
H1221 H 0.47519 0.56229 0.35906 0.0
H1222 H 0.44513 0.53294 0.35926 0.0
C1223 C 0.44922 0.54206 0.54412 0.0
loop_
_geom_bond_atom_site_label_1
_geom_bond_atom_site_label_2
_geom_bond_distance
_geom_bond_site_symmetry_2
_ccdc_geom_bond_type
O0 Cd1 2.223 . S
O0 C8 1.315 . S
Cd1 O0 2.223 . S
Cd1 O4 2.297 . S
Cd1 O5 2.439 . S
Cd1 O11 2.240 . S
Cd2 O3 2.240 . S
Cd2 O10 2.223 . S
Cd2 O12 2.297 . S
Cd2 O13 2.439 . S
O3 Cd2 2.240 . S
O3 C8 1.279 . S
O4 Cd1 2.297 . S
O4 C6 1.247 . S
O5 Cd1 2.439 . S
O5 C6 1.208 . S
C6 O4 1.247 . S
C6 O5 1.208 . S
C7 O12 1.247 . S
C7 O13 1.208 . S
C8 O0 1.315 . S
C8 O3 1.279 . S
C9 O10 1.315 . S
C9 O11 1.279 . S
O10 Cd2 2.223 . S
O10 C9 1.315 . S
O11 Cd1 2.240 . S
O11 C9 1.279 . S
O12 Cd2 2.297 . S
O12 C7 1.247 . S
O13 Cd2 2.439 . S
O13 C7 1.208 . S
O14 Cd15 2.223 . S
O14 C22 1.315 . S
Cd15 O14 2.223 . S
Cd15 O18 2.297 . S
Cd15 O19 2.439 . S
Cd15 O25 2.240 . S
Cd16 O17 2.240 . S
Cd16 O24 2.223 . S
Cd16 O26 2.297 . S
Cd16 O27 2.439 . S
O17 Cd16 2.240 . S
O17 C22 1.279 . S
O18 Cd15 2.297 . S
O18 C20 1.247 . S
O19 Cd15 2.439 . S
O19 C20 1.208 . S
C20 O18 1.247 . S
C20 O19 1.208 . S
C21 O26 1.247 . S
C21 O27 1.208 . S
C22 O14 1.315 . S
C22 O17 1.279 . S
C23 O24 1.315 . S
C23 O25 1.279 . S
O24 Cd16 2.223 . S
O24 C23 1.315 . S
O25 Cd15 2.240 . S
O25 C23 1.279 . S
O26 Cd16 2.297 . S
O26 C21 1.247 . S
O27 Cd16 2.439 . S
O27 C21 1.208 . S
O28 Cd29 2.223 . S
O28 C36 1.315 . S
Cd29 O28 2.223 . S
Cd29 O32 2.297 . S
Cd29 O33 2.439 . S
Cd29 O39 2.240 . S
Cd30 O31 2.240 . S
Cd30 O38 2.223 . S
Cd30 O40 2.297 . S
Cd30 O41 2.439 . S
O31 Cd30 2.240 . S
O31 C36 1.279 . S
O32 Cd29 2.297 . S
O32 C34 1.247 . S
O33 Cd29 2.439 . S
O33 C34 1.208 . S
C34 O32 1.247 . S
C34 O33 1.208 . S
C35 O40 1.247 . S
C35 O41 1.208 . S
C36 O28 1.315 . S
C36 O31 1.279 . S
C37 O38 1.315 . S
C37 O39 1.279 . S
O38 Cd30 2.223 . S
O38 C37 1.315 . S
O39 Cd29 2.240 . S
O39 C37 1.279 . S
O40 Cd30 2.297 . S
O40 C35 1.247 . S
O41 Cd30 2.439 . S
O41 C35 1.208 . S
O42 Cd43 2.223 . S
O42 C50 1.315 . S
Cd43 O42 2.223 . S
Cd43 O46 2.297 . S
Cd43 O47 2.439 . S
Cd43 O53 2.240 . S
Cd44 O45 2.240 . S
Cd44 O52 2.223 . S
Cd44 O54 2.297 . S
Cd44 O55 2.439 . S
O45 Cd44 2.240 . S
O45 C50 1.279 . S
O46 Cd43 2.297 . S
O46 C48 1.247 . S
O47 Cd43 2.439 . S
O47 C48 1.208 . S
C48 O46 1.247 . S
C48 O47 1.208 . S
C49 O54 1.247 . S
C49 O55 1.208 . S
C50 O42 1.315 . S
C50 O45 1.279 . S
C51 O52 1.315 . S
C51 O53 1.279 . S
O52 Cd44 2.223 . S
O52 C51 1.315 . S
O53 Cd43 2.240 . S
O53 C51 1.279 . S
O54 Cd44 2.297 . S
O54 C49 1.247 . S
O55 Cd44 2.439 . S
O55 C49 1.208 . S
O56 Cd57 2.223 . S
O56 C64 1.315 . S
Cd57 O56 2.223 . S
Cd57 O60 2.297 . S
Cd57 O61 2.439 . S
Cd57 O67 2.240 . S
Cd58 O59 2.240 . S
Cd58 O66 2.223 . S
Cd58 O68 2.297 . S
Cd58 O69 2.439 . S
O59 Cd58 2.240 . S
O59 C64 1.279 . S
O60 Cd57 2.297 . S
O60 C62 1.247 . S
O61 Cd57 2.439 . S
O61 C62 1.208 . S
C62 O60 1.247 . S
C62 O61 1.208 . S
C63 O68 1.247 . S
C63 O69 1.208 . S
C64 O56 1.315 . S
C64 O59 1.279 . S
C65 O66 1.315 . S
C65 O67 1.279 . S
O66 Cd58 2.223 . S
O66 C65 1.315 . S
O67 Cd57 2.240 . S
O67 C65 1.279 . S
O68 Cd58 2.297 . S
O68 C63 1.247 . S
O69 Cd58 2.439 . S
O69 C63 1.208 . S
O70 Cd71 2.223 . S
O70 C78 1.315 . S
Cd71 O70 2.223 . S
Cd71 O74 2.297 . S
Cd71 O75 2.439 . S
Cd71 O81 2.240 . S
Cd72 O73 2.240 . S
Cd72 O80 2.223 . S
Cd72 O82 2.297 . S
Cd72 O83 2.439 . S
O73 Cd72 2.240 . S
O73 C78 1.279 . S
O74 Cd71 2.297 . S
O74 C76 1.247 . S
O75 Cd71 2.439 . S
O75 C76 1.208 . S
C76 O74 1.247 . S
C76 O75 1.208 . S
C77 O82 1.247 . S
C77 O83 1.208 . S
C78 O70 1.315 . S
C78 O73 1.279 . S
C79 O80 1.315 . S
C79 O81 1.279 . S
O80 Cd72 2.223 . S
O80 C79 1.315 . S
O81 Cd71 2.240 . S
O81 C79 1.279 . S
O82 Cd72 2.297 . S
O82 C77 1.247 . S
O83 Cd72 2.439 . S
O83 C77 1.208 . S
O84 Cd85 2.223 . S
O84 C92 1.315 . S
Cd85 O84 2.223 . S
Cd85 O88 2.297 . S
Cd85 O89 2.439 . S
Cd85 O95 2.240 . S
Cd86 O87 2.240 . S
Cd86 O94 2.223 . S
Cd86 O96 2.297 . S
Cd86 O97 2.439 . S
O87 Cd86 2.240 . S
O87 C92 1.279 . S
O88 Cd85 2.297 . S
O88 C90 1.247 . S
O89 Cd85 2.439 . S
O89 C90 1.208 . S
C90 O88 1.247 . S
C90 O89 1.208 . S
C91 O96 1.247 . S
C91 O97 1.208 . S
C92 O84 1.315 . S
C92 O87 1.279 . S
C93 O94 1.315 . S
C93 O95 1.279 . S
O94 Cd86 2.223 . S
O94 C93 1.315 . S
O95 Cd85 2.240 . S
O95 C93 1.279 . S
O96 Cd86 2.297 . S
O96 C91 1.247 . S
O97 Cd86 2.439 . S
O97 C91 1.208 . S
O98 Cd99 2.223 . S
O98 C106 1.315 . S
Cd99 O98 2.223 . S
Cd99 O102 2.297 . S
Cd99 O103 2.439 . S
Cd99 O109 2.240 . S
Cd100 O101 2.240 . S
Cd100 O108 2.223 . S
Cd100 O110 2.297 . S
Cd100 O111 2.439 . S
O101 Cd100 2.240 . S
O101 C106 1.279 . S
O102 Cd99 2.297 . S
O102 C104 1.247 . S
O103 Cd99 2.439 . S
O103 C104 1.208 . S
C104 O102 1.247 . S
C104 O103 1.208 . S
C105 O110 1.247 . S
C105 O111 1.208 . S
C106 O98 1.315 . S
C106 O101 1.279 . S
C107 O108 1.315 . S
C107 O109 1.279 . S
O108 Cd100 2.223 . S
O108 C107 1.315 . S
O109 Cd99 2.240 . S
O109 C107 1.279 . S
O110 Cd100 2.297 . S
O110 C105 1.247 . S
O111 Cd100 2.439 . S
O111 C105 1.208 . S
O112 Cd113 2.223 . S
O112 C120 1.315 . S
Cd113 O112 2.223 . S
Cd113 O116 2.297 . S
Cd113 O117 2.439 . S
Cd113 O123 2.240 . S
Cd114 O115 2.240 . S
Cd114 O122 2.223 . S
Cd114 O124 2.297 . S
Cd114 O125 2.439 . S
O115 Cd114 2.240 . S
O115 C120 1.279 . S
O116 Cd113 2.297 . S
O116 C118 1.247 . S
O117 Cd113 2.439 . S
O117 C118 1.208 . S
C118 O116 1.247 . S
C118 O117 1.208 . S
C119 O124 1.247 . S
C119 O125 1.208 . S
C120 O112 1.315 . S
C120 O115 1.279 . S
C121 O122 1.315 . S
C121 O123 1.279 . S
O122 Cd114 2.223 . S
O122 C121 1.315 . S
O123 Cd113 2.240 . S
O123 C121 1.279 . S
O124 Cd114 2.297 . S
O124 C119 1.247 . S
O125 Cd114 2.439 . S
O125 C119 1.208 . S
O126 Cd127 2.223 . S
O126 C134 1.315 . S
Cd127 O126 2.223 . S
Cd127 O130 2.297 . S
Cd127 O131 2.439 . S
Cd127 O137 2.240 . S
Cd128 O129 2.240 . S
Cd128 O136 2.223 . S
Cd128 O138 2.297 . S
Cd128 O139 2.439 . S
O129 Cd128 2.240 . S
O129 C134 1.279 . S
O130 Cd127 2.297 . S
O130 C132 1.247 . S
O131 Cd127 2.439 . S
O131 C132 1.208 . S
C132 O130 1.247 . S
C132 O131 1.208 . S
C133 O138 1.247 . S
C133 O139 1.208 . S
C134 O126 1.315 . S
C134 O129 1.279 . S
C135 O136 1.315 . S
C135 O137 1.279 . S
O136 Cd128 2.223 . S
O136 C135 1.315 . S
O137 Cd127 2.240 . S
O137 C135 1.279 . S
O138 Cd128 2.297 . S
O138 C133 1.247 . S
O139 Cd128 2.439 . S
O139 C133 1.208 . S
O140 Cd141 2.223 . S
O140 C148 1.315 . S
Cd141 O140 2.223 . S
Cd141 O144 2.297 . S
Cd141 O145 2.439 . S
Cd141 O151 2.240 . S
Cd142 O143 2.240 . S
Cd142 O150 2.223 . S
Cd142 O152 2.297 . S
Cd142 O153 2.439 . S
O143 Cd142 2.240 . S
O143 C148 1.279 . S
O144 Cd141 2.297 . S
O144 C146 1.247 . S
O145 Cd141 2.439 . S
O145 C146 1.208 . S
C146 O144 1.247 . S
C146 O145 1.208 . S
C147 O152 1.247 . S
C147 O153 1.208 . S
C148 O140 1.315 . S
C148 O143 1.279 . S
C149 O150 1.315 . S
C149 O151 1.279 . S
O150 Cd142 2.223 . S
O150 C149 1.315 . S
O151 Cd141 2.240 . S
O151 C149 1.279 . S
O152 Cd142 2.297 . S
O152 C147 1.247 . S
O153 Cd142 2.439 . S
O153 C147 1.208 . S
O154 Cd155 2.223 . S
O154 C162 1.315 . S
Cd155 O154 2.223 . S
Cd155 O158 2.297 . S
Cd155 O159 2.439 . S
Cd155 O165 2.240 . S
Cd156 O157 2.240 . S
Cd156 O164 2.223 . S
Cd156 O166 2.297 . S
Cd156 O167 2.439 . S
O157 Cd156 2.240 . S
O157 C162 1.279 . S
O158 Cd155 2.297 . S
O158 C160 1.247 . S
O159 Cd155 2.439 . S
O159 C160 1.208 . S
C160 O158 1.247 . S
C160 O159 1.208 . S
C161 O166 1.247 . S
C161 O167 1.208 . S
C162 O154 1.315 . S
C162 O157 1.279 . S
C163 O164 1.315 . S
C163 O165 1.279 . S
O164 Cd156 2.223 . S
O164 C163 1.315 . S
O165 Cd155 2.240 . S
O165 C163 1.279 . S
O166 Cd156 2.297 . S
O166 C161 1.247 . S
O167 Cd156 2.439 . S
O167 C161 1.208 . S
O168 Cd169 2.223 . S
O168 C176 1.315 . S
Cd169 O168 2.223 . S
Cd169 O172 2.297 . S
Cd169 O173 2.439 . S
Cd169 O179 2.240 . S
Cd170 O171 2.240 . S
Cd170 O178 2.223 . S
Cd170 O180 2.297 . S
Cd170 O181 2.439 . S
O171 Cd170 2.240 . S
O171 C176 1.279 . S
O172 Cd169 2.297 . S
O172 C174 1.247 . S
O173 Cd169 2.439 . S
O173 C174 1.208 . S
C174 O172 1.247 . S
C174 O173 1.208 . S
C175 O180 1.247 . S
C175 O181 1.208 . S
C176 O168 1.315 . S
C176 O171 1.279 . S
C177 O178 1.315 . S
C177 O179 1.279 . S
O178 Cd170 2.223 . S
O178 C177 1.315 . S
O179 Cd169 2.240 . S
O179 C177 1.279 . S
O180 Cd170 2.297 . S
O180 C175 1.247 . S
O181 Cd170 2.439 . S
O181 C175 1.208 . S
O182 Cd183 2.223 . S
O182 C190 1.315 . S
Cd183 O182 2.223 . S
Cd183 O186 2.297 . S
Cd183 O187 2.439 . S
Cd183 O193 2.240 . S
Cd184 O185 2.240 . S
Cd184 O192 2.223 . S
Cd184 O194 2.297 . S
Cd184 O195 2.439 . S
O185 Cd184 2.240 . S
O185 C190 1.279 . S
O186 Cd183 2.297 . S
O186 C188 1.247 . S
O187 Cd183 2.439 . S
O187 C188 1.208 . S
C188 O186 1.247 . S
C188 O187 1.208 . S
C189 O194 1.247 . S
C189 O195 1.208 . S
C190 O182 1.315 . S
C190 O185 1.279 . S
C191 O192 1.315 . S
C191 O193 1.279 . S
O192 Cd184 2.223 . S
O192 C191 1.315 . S
O193 Cd183 2.240 . S
O193 C191 1.279 . S
O194 Cd184 2.297 . S
O194 C189 1.247 . S
O195 Cd184 2.439 . S
O195 C189 1.208 . S
O196 Cd197 2.223 . S
O196 C204 1.315 . S
Cd197 O196 2.223 . S
Cd197 O200 2.297 . S
Cd197 O201 2.439 . S
Cd197 O207 2.240 . S
Cd198 O199 2.240 . S
Cd198 O206 2.223 . S
Cd198 O208 2.297 . S
Cd198 O209 2.439 . S
O199 Cd198 2.240 . S
O199 C204 1.279 . S
O200 Cd197 2.297 . S
O200 C202 1.247 . S
O201 Cd197 2.439 . S
O201 C202 1.208 . S
C202 O200 1.247 . S
C202 O201 1.208 . S
C203 O208 1.247 . S
C203 O209 1.208 . S
C204 O196 1.315 . S
C204 O199 1.279 . S
C205 O206 1.315 . S
C205 O207 1.279 . S
O206 Cd198 2.223 . S
O206 C205 1.315 . S
O207 Cd197 2.240 . S
O207 C205 1.279 . S
O208 Cd198 2.297 . S
O208 C203 1.247 . S
O209 Cd198 2.439 . S
O209 C203 1.208 . S
O210 Cd211 2.223 . S
O210 C218 1.315 . S
Cd211 O210 2.223 . S
Cd211 O214 2.297 1_554 S
Cd211 O215 2.439 1_554 S
Cd211 O221 2.240 . S
Cd212 O213 2.240 . S
Cd212 O220 2.223 . S
Cd212 O222 2.297 . S
Cd212 O223 2.439 . S
O213 Cd212 2.240 . S
O213 C218 1.279 . S
O214 Cd211 2.297 1_556 S
O214 C216 1.247 . S
O215 Cd211 2.439 1_556 S
O215 C216 1.208 . S
C216 O214 1.247 . S
C216 O215 1.208 . S
C217 O222 1.247 . S
C217 O223 1.208 . S
C218 O210 1.315 . S
C218 O213 1.279 . S
C219 O220 1.315 . S
C219 O221 1.279 . S
O220 Cd212 2.223 . S
O220 C219 1.315 . S
O221 Cd211 2.240 . S
O221 C219 1.279 . S
O222 Cd212 2.297 . S
O222 C217 1.247 . S
O223 Cd212 2.439 . S
O223 C217 1.208 . S
O224 Cd225 2.223 . S
O224 C232 1.315 . S
Cd225 O224 2.223 . S
Cd225 O228 2.297 1_554 S
Cd225 O229 2.439 1_554 S
Cd225 O235 2.240 . S
Cd226 O227 2.240 . S
Cd226 O234 2.223 . S
Cd226 O236 2.297 . S
Cd226 O237 2.439 . S
O227 Cd226 2.240 . S
O227 C232 1.279 . S
O228 Cd225 2.297 1_556 S
O228 C230 1.247 . S
O229 Cd225 2.439 1_556 S
O229 C230 1.208 . S
C230 O228 1.247 . S
C230 O229 1.208 . S
C231 O236 1.247 . S
C231 O237 1.208 . S
C232 O224 1.315 . S
C232 O227 1.279 . S
C233 O234 1.315 . S
C233 O235 1.279 . S
O234 Cd226 2.223 . S
O234 C233 1.315 . S
O235 Cd225 2.240 . S
O235 C233 1.279 . S
O236 Cd226 2.297 . S
O236 C231 1.247 . S
O237 Cd226 2.439 . S
O237 C231 1.208 . S
O238 Cd239 2.223 . S
O238 C246 1.315 . S
Cd239 O238 2.223 . S
Cd239 O242 2.297 1_554 S
Cd239 O243 2.439 1_554 S
Cd239 O249 2.240 . S
Cd240 O241 2.240 . S
Cd240 O248 2.223 . S
Cd240 O250 2.297 . S
Cd240 O251 2.439 . S
O241 Cd240 2.240 . S
O241 C246 1.279 . S
O242 Cd239 2.297 1_556 S
O242 C244 1.247 . S
O243 Cd239 2.439 1_556 S
O243 C244 1.208 . S
C244 O242 1.247 . S
C244 O243 1.208 . S
C245 O250 1.247 . S
C245 O251 1.208 . S
C246 O238 1.315 . S
C246 O241 1.279 . S
C247 O248 1.315 . S
C247 O249 1.279 . S
O248 Cd240 2.223 . S
O248 C247 1.315 . S
O249 Cd239 2.240 . S
O249 C247 1.279 . S
O250 Cd240 2.297 . S
O250 C245 1.247 . S
O251 Cd240 2.439 . S
O251 C245 1.208 . S
O252 Cd253 2.223 . S
O252 C260 1.315 . S
Cd253 O252 2.223 . S
Cd253 O256 2.297 1_554 S
Cd253 O257 2.439 1_554 S
Cd253 O263 2.240 . S
Cd254 O255 2.240 . S
Cd254 O262 2.223 . S
Cd254 O264 2.297 . S
Cd254 O265 2.439 . S
O255 Cd254 2.240 . S
O255 C260 1.279 . S
O256 Cd253 2.297 1_556 S
O256 C258 1.247 . S
O257 Cd253 2.439 1_556 S
O257 C258 1.208 . S
C258 O256 1.247 . S
C258 O257 1.208 . S
C259 O264 1.247 . S
C259 O265 1.208 . S
C260 O252 1.315 . S
C260 O255 1.279 . S
C261 O262 1.315 . S
C261 O263 1.279 . S
O262 Cd254 2.223 . S
O262 C261 1.315 . S
O263 Cd253 2.240 . S
O263 C261 1.279 . S
O264 Cd254 2.297 . S
O264 C259 1.247 . S
O265 Cd254 2.439 . S
O265 C259 1.208 . S
O266 Cd267 2.223 . S
O266 C274 1.315 . S
Cd267 O266 2.223 . S
Cd267 O270 2.297 1_554 S
Cd267 O271 2.439 1_554 S
Cd267 O277 2.240 . S
Cd268 O269 2.240 . S
Cd268 O276 2.223 . S
Cd268 O278 2.297 . S
Cd268 O279 2.439 . S
O269 Cd268 2.240 . S
O269 C274 1.279 . S
O270 Cd267 2.297 1_556 S
O270 C272 1.247 . S
O271 Cd267 2.439 1_556 S
O271 C272 1.208 . S
C272 O270 1.247 . S
C272 O271 1.208 . S
C273 O278 1.247 . S
C273 O279 1.208 . S
C274 O266 1.315 . S
C274 O269 1.279 . S
C275 O276 1.315 . S
C275 O277 1.279 . S
O276 Cd268 2.223 . S
O276 C275 1.315 . S
O277 Cd267 2.240 . S
O277 C275 1.279 . S
O278 Cd268 2.297 . S
O278 C273 1.247 . S
O279 Cd268 2.439 . S
O279 C273 1.208 . S
O280 Cd281 2.223 . S
O280 C288 1.315 . S
Cd281 O280 2.223 . S
Cd281 O284 2.297 1_554 S
Cd281 O285 2.439 1_554 S
Cd281 O291 2.240 . S
Cd282 O283 2.240 . S
Cd282 O290 2.223 . S
Cd282 O292 2.297 . S
Cd282 O293 2.439 . S
O283 Cd282 2.240 . S
O283 C288 1.279 . S
O284 Cd281 2.297 1_556 S
O284 C286 1.247 . S
O285 Cd281 2.439 1_556 S
O285 C286 1.208 . S
C286 O284 1.247 . S
C286 O285 1.208 . S
C287 O292 1.247 . S
C287 O293 1.208 . S
C288 O280 1.315 . S
C288 O283 1.279 . S
C289 O290 1.315 . S
C289 O291 1.279 . S
O290 Cd282 2.223 . S
O290 C289 1.315 . S
O291 Cd281 2.240 . S
O291 C289 1.279 . S
O292 Cd282 2.297 . S
O292 C287 1.247 . S
O293 Cd282 2.439 . S
O293 C287 1.208 . S
O294 Cd295 2.223 . S
O294 C302 1.315 . S
Cd295 O294 2.223 . S
Cd295 O298 2.297 . S
Cd295 O299 2.439 . S
Cd295 O305 2.240 . S
Cd296 O297 2.240 . S
Cd296 O304 2.223 . S
Cd296 O306 2.297 . S
Cd296 O307 2.439 . S
O297 Cd296 2.240 . S
O297 C302 1.279 . S
O298 Cd295 2.297 . S
O298 C300 1.247 . S
O299 Cd295 2.439 . S
O299 C300 1.208 . S
C300 O298 1.247 . S
C300 O299 1.208 . S
C301 O306 1.247 . S
C301 O307 1.208 . S
C302 O294 1.315 . S
C302 O297 1.279 . S
C303 O304 1.315 . S
C303 O305 1.279 . S
O304 Cd296 2.223 . S
O304 C303 1.315 . S
O305 Cd295 2.240 . S
O305 C303 1.279 . S
O306 Cd296 2.297 . S
O306 C301 1.247 . S
O307 Cd296 2.439 . S
O307 C301 1.208 . S
O308 Cd309 2.223 . S
O308 C316 1.315 . S
Cd309 O308 2.223 . S
Cd309 O312 2.297 . S
Cd309 O313 2.439 . S
Cd309 O319 2.240 . S
Cd310 O311 2.240 . S
Cd310 O318 2.223 . S
Cd310 O320 2.297 . S
Cd310 O321 2.439 . S
O311 Cd310 2.240 . S
O311 C316 1.279 . S
O312 Cd309 2.297 . S
O312 C314 1.247 . S
O313 Cd309 2.439 . S
O313 C314 1.208 . S
C314 O312 1.247 . S
C314 O313 1.208 . S
C315 O320 1.247 . S
C315 O321 1.208 . S
C316 O308 1.315 . S
C316 O311 1.279 . S
C317 O318 1.315 . S
C317 O319 1.279 . S
O318 Cd310 2.223 . S
O318 C317 1.315 . S
O319 Cd309 2.240 . S
O319 C317 1.279 . S
O320 Cd310 2.297 . S
O320 C315 1.247 . S
O321 Cd310 2.439 . S
O321 C315 1.208 . S
O322 Cd323 2.223 . S
O322 C330 1.315 . S
Cd323 O322 2.223 . S
Cd323 O326 2.297 . S
Cd323 O327 2.439 . S
Cd323 O333 2.240 . S
Cd324 O325 2.240 . S
Cd324 O332 2.223 . S
Cd324 O334 2.297 . S
Cd324 O335 2.439 . S
O325 Cd324 2.240 . S
O325 C330 1.279 . S
O326 Cd323 2.297 . S
O326 C328 1.247 . S
O327 Cd323 2.439 . S
O327 C328 1.208 . S
C328 O326 1.247 . S
C328 O327 1.208 . S
C329 O334 1.247 . S
C329 O335 1.208 . S
C330 O322 1.315 . S
C330 O325 1.279 . S
C331 O332 1.315 . S
C331 O333 1.279 . S
O332 Cd324 2.223 . S
O332 C331 1.315 . S
O333 Cd323 2.240 . S
O333 C331 1.279 . S
O334 Cd324 2.297 . S
O334 C329 1.247 . S
O335 Cd324 2.439 . S
O335 C329 1.208 . S
O336 Cd337 2.223 . S
O336 C344 1.315 . S
Cd337 O336 2.223 . S
Cd337 O340 2.297 1_556 S
Cd337 O341 2.439 1_556 S
Cd337 O347 2.240 . S
Cd338 O339 2.240 . S
Cd338 O346 2.223 . S
Cd338 O348 2.297 . S
Cd338 O349 2.439 . S
O339 Cd338 2.240 . S
O339 C344 1.279 . S
O340 Cd337 2.297 1_554 S
O340 C342 1.247 . S
O341 Cd337 2.439 1_554 S
O341 C342 1.208 . S
C342 O340 1.247 . S
C342 O341 1.208 . S
C343 O348 1.247 . S
C343 O349 1.208 . S
C344 O336 1.315 . S
C344 O339 1.279 . S
C345 O346 1.315 . S
C345 O347 1.279 . S
O346 Cd338 2.223 . S
O346 C345 1.315 . S
O347 Cd337 2.240 . S
O347 C345 1.279 . S
O348 Cd338 2.297 . S
O348 C343 1.247 . S
O349 Cd338 2.439 . S
O349 C343 1.208 . S
O350 Cd351 2.223 . S
O350 C358 1.315 . S
Cd351 O350 2.223 . S
Cd351 O354 2.297 1_556 S
Cd351 O355 2.439 1_556 S
Cd351 O361 2.240 . S
Cd352 O353 2.240 . S
Cd352 O360 2.223 . S
Cd352 O362 2.297 . S
Cd352 O363 2.439 . S
O353 Cd352 2.240 . S
O353 C358 1.279 . S
O354 Cd351 2.297 1_554 S
O354 C356 1.247 . S
O355 Cd351 2.439 1_554 S
O355 C356 1.208 . S
C356 O354 1.247 . S
C356 O355 1.208 . S
C357 O362 1.247 . S
C357 O363 1.208 . S
C358 O350 1.315 . S
C358 O353 1.279 . S
C359 O360 1.315 . S
C359 O361 1.279 . S
O360 Cd352 2.223 . S
O360 C359 1.315 . S
O361 Cd351 2.240 . S
O361 C359 1.279 . S
O362 Cd352 2.297 . S
O362 C357 1.247 . S
O363 Cd352 2.439 . S
O363 C357 1.208 . S
O364 Cd365 2.223 . S
O364 C372 1.315 . S
Cd365 O364 2.223 . S
Cd365 O368 2.297 1_556 S
Cd365 O369 2.439 1_556 S
Cd365 O375 2.240 . S
Cd366 O367 2.240 . S
Cd366 O374 2.223 . S
Cd366 O376 2.297 . S
Cd366 O377 2.439 . S
O367 Cd366 2.240 . S
O367 C372 1.279 . S
O368 Cd365 2.297 1_554 S
O368 C370 1.247 . S
O369 Cd365 2.439 1_554 S
O369 C370 1.208 . S
C370 O368 1.247 . S
C370 O369 1.208 . S
C371 O376 1.247 . S
C371 O377 1.208 . S
C372 O364 1.315 . S
C372 O367 1.279 . S
C373 O374 1.315 . S
C373 O375 1.279 . S
O374 Cd366 2.223 . S
O374 C373 1.315 . S
O375 Cd365 2.240 . S
O375 C373 1.279 . S
O376 Cd366 2.297 . S
O376 C371 1.247 . S
O377 Cd366 2.439 . S
O377 C371 1.208 . S
O378 Cd379 2.223 . S
O378 C386 1.315 . S
Cd379 O378 2.223 . S
Cd379 O382 2.297 . S
Cd379 O383 2.439 . S
Cd379 O389 2.240 . S
Cd380 O381 2.240 . S
Cd380 O388 2.223 . S
Cd380 O390 2.297 . S
Cd380 O391 2.439 . S
O381 Cd380 2.240 . S
O381 C386 1.279 . S
O382 Cd379 2.297 . S
O382 C384 1.247 . S
O383 Cd379 2.439 . S
O383 C384 1.208 . S
C384 O382 1.247 . S
C384 O383 1.208 . S
C385 O390 1.247 . S
C385 O391 1.208 . S
C386 O378 1.315 . S
C386 O381 1.279 . S
C387 O388 1.315 . S
C387 O389 1.279 . S
O388 Cd380 2.223 . S
O388 C387 1.315 . S
O389 Cd379 2.240 . S
O389 C387 1.279 . S
O390 Cd380 2.297 . S
O390 C385 1.247 . S
O391 Cd380 2.439 . S
O391 C385 1.208 . S
O392 Cd393 2.223 . S
O392 C400 1.315 . S
Cd393 O392 2.223 . S
Cd393 O396 2.297 . S
Cd393 O397 2.439 . S
Cd393 O403 2.240 . S
Cd394 O395 2.240 . S
Cd394 O402 2.223 . S
Cd394 O404 2.297 . S
Cd394 O405 2.439 . S
O395 Cd394 2.240 . S
O395 C400 1.279 . S
O396 Cd393 2.297 . S
O396 C398 1.247 . S
O397 Cd393 2.439 . S
O397 C398 1.208 . S
C398 O396 1.247 . S
C398 O397 1.208 . S
C399 O404 1.247 . S
C399 O405 1.208 . S
C400 O392 1.315 . S
C400 O395 1.279 . S
C401 O402 1.315 . S
C401 O403 1.279 . S
O402 Cd394 2.223 . S
O402 C401 1.315 . S
O403 Cd393 2.240 . S
O403 C401 1.279 . S
O404 Cd394 2.297 . S
O404 C399 1.247 . S
O405 Cd394 2.439 . S
O405 C399 1.208 . S
O406 Cd407 2.223 . S
O406 C414 1.315 . S
Cd407 O406 2.223 . S
Cd407 O410 2.297 . S
Cd407 O411 2.439 . S
Cd407 O417 2.240 . S
Cd408 O409 2.240 . S
Cd408 O416 2.223 . S
Cd408 O418 2.297 . S
Cd408 O419 2.439 . S
O409 Cd408 2.240 . S
O409 C414 1.279 . S
O410 Cd407 2.297 . S
O410 C412 1.247 . S
O411 Cd407 2.439 . S
O411 C412 1.208 . S
C412 O410 1.247 . S
C412 O411 1.208 . S
C413 O418 1.247 . S
C413 O419 1.208 . S
C414 O406 1.315 . S
C414 O409 1.279 . S
C415 O416 1.315 . S
C415 O417 1.279 . S
O416 Cd408 2.223 . S
O416 C415 1.315 . S
O417 Cd407 2.240 . S
O417 C415 1.279 . S
O418 Cd408 2.297 . S
O418 C413 1.247 . S
O419 Cd408 2.439 . S
O419 C413 1.208 . S
O420 Cd421 2.223 . S
O420 C428 1.315 . S
Cd421 O420 2.223 . S
Cd421 O424 2.297 . S
Cd421 O425 2.439 . S
Cd421 O431 2.240 . S
Cd422 O423 2.240 . S
Cd422 O430 2.223 . S
Cd422 O432 2.297 . S
Cd422 O433 2.439 . S
O423 Cd422 2.240 . S
O423 C428 1.279 . S
O424 Cd421 2.297 . S
O424 C426 1.247 . S
O425 Cd421 2.439 . S
O425 C426 1.208 . S
C426 O424 1.247 . S
C426 O425 1.208 . S
C427 O432 1.247 . S
C427 O433 1.208 . S
C428 O420 1.315 . S
C428 O423 1.279 . S
C429 O430 1.315 . S
C429 O431 1.279 . S
O430 Cd422 2.223 . S
O430 C429 1.315 . S
O431 Cd421 2.240 . S
O431 C429 1.279 . S
O432 Cd422 2.297 . S
O432 C427 1.247 . S
O433 Cd422 2.439 . S
O433 C427 1.208 . S
O434 Cd435 2.223 . S
O434 C442 1.315 . S
Cd435 O434 2.223 . S
Cd435 O438 2.297 . S
Cd435 O439 2.439 . S
Cd435 O445 2.240 . S
Cd436 O437 2.240 . S
Cd436 O444 2.223 . S
Cd436 O446 2.297 . S
Cd436 O447 2.439 . S
O437 Cd436 2.240 . S
O437 C442 1.279 . S
O438 Cd435 2.297 . S
O438 C440 1.247 . S
O439 Cd435 2.439 . S
O439 C440 1.208 . S
C440 O438 1.247 . S
C440 O439 1.208 . S
C441 O446 1.247 . S
C441 O447 1.208 . S
C442 O434 1.315 . S
C442 O437 1.279 . S
C443 O444 1.315 . S
C443 O445 1.279 . S
O444 Cd436 2.223 . S
O444 C443 1.315 . S
O445 Cd435 2.240 . S
O445 C443 1.279 . S
O446 Cd436 2.297 . S
O446 C441 1.247 . S
O447 Cd436 2.439 . S
O447 C441 1.208 . S
O448 Cd449 2.223 . S
O448 C456 1.315 . S
Cd449 O448 2.223 . S
Cd449 O452 2.297 . S
Cd449 O453 2.439 . S
Cd449 O459 2.240 . S
Cd450 O451 2.240 . S
Cd450 O458 2.223 . S
Cd450 O460 2.297 . S
Cd450 O461 2.439 . S
O451 Cd450 2.240 . S
O451 C456 1.279 . S
O452 Cd449 2.297 . S
O452 C454 1.247 . S
O453 Cd449 2.439 . S
O453 C454 1.208 . S
C454 O452 1.247 . S
C454 O453 1.208 . S
C455 O460 1.247 . S
C455 O461 1.208 . S
C456 O448 1.315 . S
C456 O451 1.279 . S
C457 O458 1.315 . S
C457 O459 1.279 . S
O458 Cd450 2.223 . S
O458 C457 1.315 . S
O459 Cd449 2.240 . S
O459 C457 1.279 . S
O460 Cd450 2.297 . S
O460 C455 1.247 . S
O461 Cd450 2.439 . S
O461 C455 1.208 . S
O462 Cd463 2.223 . S
O462 C470 1.315 . S
Cd463 O462 2.223 . S
Cd463 O466 2.297 1_556 S
Cd463 O467 2.439 1_556 S
Cd463 O473 2.240 . S
Cd464 O465 2.240 . S
Cd464 O472 2.223 . S
Cd464 O474 2.297 . S
Cd464 O475 2.439 . S
O465 Cd464 2.240 . S
O465 C470 1.279 . S
O466 Cd463 2.297 1_554 S
O466 C468 1.247 . S
O467 Cd463 2.439 1_554 S
O467 C468 1.208 . S
C468 O466 1.247 . S
C468 O467 1.208 . S
C469 O474 1.247 . S
C469 O475 1.208 . S
C470 O462 1.315 . S
C470 O465 1.279 . S
C471 O472 1.315 . S
C471 O473 1.279 . S
O472 Cd464 2.223 . S
O472 C471 1.315 . S
O473 Cd463 2.240 . S
O473 C471 1.279 . S
O474 Cd464 2.297 . S
O474 C469 1.247 . S
O475 Cd464 2.439 . S
O475 C469 1.208 . S
O476 Cd477 2.223 . S
O476 C484 1.315 . S
Cd477 O476 2.223 . S
Cd477 O480 2.297 1_556 S
Cd477 O481 2.439 1_556 S
Cd477 O487 2.240 . S
Cd478 O479 2.240 . S
Cd478 O486 2.223 . S
Cd478 O488 2.297 . S
Cd478 O489 2.439 . S
O479 Cd478 2.240 . S
O479 C484 1.279 . S
O480 Cd477 2.297 1_554 S
O480 C482 1.247 . S
O481 Cd477 2.439 1_554 S
O481 C482 1.208 . S
C482 O480 1.247 . S
C482 O481 1.208 . S
C483 O488 1.247 . S
C483 O489 1.208 . S
C484 O476 1.315 . S
C484 O479 1.279 . S
C485 O486 1.315 . S
C485 O487 1.279 . S
O486 Cd478 2.223 . S
O486 C485 1.315 . S
O487 Cd477 2.240 . S
O487 C485 1.279 . S
O488 Cd478 2.297 . S
O488 C483 1.247 . S
O489 Cd478 2.439 . S
O489 C483 1.208 . S
O490 Cd491 2.223 . S
O490 C498 1.315 . S
Cd491 O490 2.223 . S
Cd491 O494 2.297 1_556 S
Cd491 O495 2.439 1_556 S
Cd491 O501 2.240 . S
Cd492 O493 2.240 . S
Cd492 O500 2.223 . S
Cd492 O502 2.297 . S
Cd492 O503 2.439 . S
O493 Cd492 2.240 . S
O493 C498 1.279 . S
O494 Cd491 2.297 1_554 S
O494 C496 1.247 . S
O495 Cd491 2.439 1_554 S
O495 C496 1.208 . S
C496 O494 1.247 . S
C496 O495 1.208 . S
C497 O502 1.247 . S
C497 O503 1.208 . S
C498 O490 1.315 . S
C498 O493 1.279 . S
C499 O500 1.315 . S
C499 O501 1.279 . S
O500 Cd492 2.223 . S
O500 C499 1.315 . S
O501 Cd491 2.240 . S
O501 C499 1.279 . S
O502 Cd492 2.297 . S
O502 C497 1.247 . S
O503 Cd492 2.439 . S
O503 C497 1.208 . S
C504 C505 1.387 . S
C504 H508 0.950 . S
C504 C513 1.390 1_565 S
C505 C504 1.387 . S
C505 C507 1.387 . S
H506 C513 0.950 . S
C507 C505 1.387 . S
C507 C509 1.390 1_565 S
C507 H511 0.950 . S
H508 C504 0.950 . S
C509 C507 1.390 1_545 S
C509 C510 1.387 . S
C509 H512 0.950 . S
C510 C509 1.387 . S
C510 C513 1.387 . S
H511 C507 0.950 . S
H512 C509 0.950 . S
C513 C504 1.390 1_545 S
C513 H506 0.950 . S
C513 C510 1.387 . S
C514 C515 1.389 . S
C514 H518 0.941 . S
C514 C523 1.382 1_455 S
C515 C514 1.389 . S
C515 C517 1.387 . S
H516 C523 0.950 . S
C517 C515 1.387 . S
C517 C519 1.382 1_455 S
C517 H521 0.950 . S
H518 C514 0.941 . S
C519 C517 1.382 1_655 S
C519 C520 1.389 . S
C519 H522 0.941 . S
C520 C519 1.389 . S
C520 C523 1.387 . S
H521 C517 0.950 . S
H522 C519 0.941 . S
C523 C514 1.382 1_655 S
C523 H516 0.950 . S
C523 C520 1.387 . S
C524 C525 1.387 . S
C524 H528 0.950 . S
C524 C533 1.390 . S
C525 C524 1.387 . S
C525 C527 1.387 . S
H526 C533 0.950 . S
C527 C525 1.387 . S
C527 C529 1.390 . S
C527 H531 0.950 . S
H528 C524 0.950 . S
C529 C527 1.390 . S
C529 C530 1.387 . S
C529 H532 0.950 . S
C530 C529 1.387 . S
C530 C533 1.387 . S
H531 C527 0.950 . S
H532 C529 0.950 . S
C533 C524 1.390 . S
C533 H526 0.950 . S
C533 C530 1.387 . S
C534 C535 1.387 . S
C534 H538 0.950 . S
C534 C543 1.390 1_565 S
C535 C534 1.387 . S
C535 C537 1.387 . S
H536 C543 0.950 . S
C537 C535 1.387 . S
C537 C539 1.390 1_565 S
C537 H541 0.950 . S
H538 C534 0.950 . S
C539 C537 1.390 1_545 S
C539 C540 1.387 . S
C539 H542 0.950 . S
C540 C539 1.387 . S
C540 C543 1.387 . S
H541 C537 0.950 . S
H542 C539 0.950 . S
C543 C534 1.390 1_545 S
C543 H536 0.950 . S
C543 C540 1.387 . S
C544 C545 1.387 . S
C544 H548 0.950 . S
C544 C553 1.390 . S
C545 C544 1.387 . S
C545 C547 1.387 1_455 S
H546 C553 0.950 . S
C547 C545 1.387 1_655 S
C547 C549 1.390 . S
C547 H551 0.950 . S
H548 C544 0.950 . S
C549 C547 1.390 . S
C549 C550 1.387 . S
C549 H552 0.950 . S
C550 C549 1.387 . S
C550 C553 1.387 1_655 S
H551 C547 0.950 . S
H552 C549 0.950 . S
C553 C544 1.390 . S
C553 H546 0.950 . S
C553 C550 1.387 1_455 S
C554 C555 1.387 . S
C554 H558 0.950 . S
C554 C563 1.390 . S
C555 C554 1.387 . S
C555 C557 1.387 . S
H556 C563 0.950 . S
C557 C555 1.387 . S
C557 C559 1.390 . S
C557 H561 0.950 . S
H558 C554 0.950 . S
C559 C557 1.390 . S
C559 C560 1.387 . S
C559 H562 0.950 . S
C560 C559 1.387 . S
C560 C563 1.387 . S
H561 C557 0.950 . S
H562 C559 0.950 . S
C563 C554 1.390 . S
C563 H556 0.950 . S
C563 C560 1.387 . S
C564 C565 1.387 . S
C564 H568 0.950 . S
C564 C573 1.390 . S
C565 C564 1.387 . S
C565 C567 1.387 . S
H566 C573 0.950 . S
C567 C565 1.387 . S
C567 C569 1.390 . S
C567 H571 0.950 . S
H568 C564 0.950 . S
C569 C567 1.390 . S
C569 C570 1.387 . S
C569 H572 0.950 . S
C570 C569 1.387 . S
C570 C573 1.387 . S
H571 C567 0.950 . S
H572 C569 0.950 . S
C573 C564 1.390 . S
C573 H566 0.950 . S
C573 C570 1.387 . S
C574 C575 1.387 . S
C574 H578 0.950 . S
C574 C583 1.390 . S
C575 C574 1.387 . S
C575 C577 1.387 . S
H576 C583 0.950 . S
C577 C575 1.387 . S
C577 C579 1.390 . S
C577 H581 0.950 . S
H578 C574 0.950 . S
C579 C577 1.390 . S
C579 C580 1.387 . S
C579 H582 0.950 . S
C580 C579 1.387 . S
C580 C583 1.387 . S
H581 C577 0.950 . S
H582 C579 0.950 . S
C583 C574 1.390 . S
C583 H576 0.950 . S
C583 C580 1.387 . S
C584 C585 1.387 . S
C584 H588 0.950 . S
C584 C593 1.390 . S
C585 C584 1.387 . S
C585 C587 1.387 . S
H586 C593 0.950 . S
C587 C585 1.387 . S
C587 C589 1.390 . S
C587 H591 0.950 . S
H588 C584 0.950 . S
C589 C587 1.390 . S
C589 C590 1.387 . S
C589 H592 0.950 . S
C590 C589 1.387 . S
C590 C593 1.387 . S
H591 C587 0.950 . S
H592 C589 0.950 . S
C593 C584 1.390 . S
C593 H586 0.950 . S
C593 C590 1.387 . S
C594 C595 1.387 . S
C594 H598 0.950 . S
C594 C603 1.390 . S
C595 C594 1.387 . S
C595 C597 1.387 . S
H596 C603 0.950 . S
C597 C595 1.387 . S
C597 C599 1.390 . S
C597 H601 0.950 . S
H598 C594 0.950 . S
C599 C597 1.390 . S
C599 C600 1.387 . S
C599 H602 0.950 . S
C600 C599 1.387 . S
C600 C603 1.387 . S
H601 C597 0.950 . S
H602 C599 0.950 . S
C603 C594 1.390 . S
C603 H596 0.950 . S
C603 C600 1.387 . S
C604 C605 1.387 . S
C604 H608 0.950 . S
C604 C613 1.390 . S
C605 C604 1.387 . S
C605 C607 1.387 . S
H606 C613 0.950 . S
C607 C605 1.387 . S
C607 C609 1.390 . S
C607 H611 0.950 . S
H608 C604 0.950 . S
C609 C607 1.390 . S
C609 C610 1.387 . S
C609 H612 0.950 . S
C610 C609 1.387 . S
C610 C613 1.387 . S
H611 C607 0.950 . S
H612 C609 0.950 . S
C613 C604 1.390 . S
C613 H606 0.950 . S
C613 C610 1.387 . S
C614 C615 1.387 . S
C614 H618 0.950 . S
C614 C623 1.390 . S
C615 C614 1.387 . S
C615 C617 1.387 . S
H616 C623 0.950 . S
C617 C615 1.387 . S
C617 C619 1.390 . S
C617 H621 0.950 . S
H618 C614 0.950 . S
C619 C617 1.390 . S
C619 C620 1.387 . S
C619 H622 0.950 . S
C620 C619 1.387 . S
C620 C623 1.387 . S
H621 C617 0.950 . S
H622 C619 0.950 . S
C623 C614 1.390 . S
C623 H616 0.950 . S
C623 C620 1.387 . S
C624 C625 1.387 . S
C624 H628 0.950 . S
C624 C633 1.390 . S
C625 C624 1.387 . S
C625 C627 1.387 . S
H626 C633 0.950 . S
C627 C625 1.387 . S
C627 C629 1.390 . S
C627 H631 0.950 . S
H628 C624 0.950 . S
C629 C627 1.390 . S
C629 C630 1.387 . S
C629 H632 0.950 . S
C630 C629 1.387 . S
C630 C633 1.387 . S
H631 C627 0.950 . S
H632 C629 0.950 . S
C633 C624 1.390 . S
C633 H626 0.950 . S
C633 C630 1.387 . S
C634 C635 1.387 . S
C634 H638 0.950 . S
C634 C643 1.390 . S
C635 C634 1.387 . S
C635 C637 1.387 . S
H636 C643 0.950 . S
C637 C635 1.387 . S
C637 C639 1.390 . S
C637 H641 0.950 . S
H638 C634 0.950 . S
C639 C637 1.390 . S
C639 C640 1.387 . S
C639 H642 0.950 . S
C640 C639 1.387 . S
C640 C643 1.387 . S
H641 C637 0.950 . S
H642 C639 0.950 . S
C643 C634 1.390 . S
C643 H636 0.950 . S
C643 C640 1.387 . S
C644 C645 1.387 . S
C644 H648 0.950 . S
C644 C653 1.390 . S
C645 C644 1.387 . S
C645 C647 1.387 . S
H646 C653 0.950 . S
C647 C645 1.387 . S
C647 C649 1.390 . S
C647 H651 0.950 . S
H648 C644 0.950 . S
C649 C647 1.390 . S
C649 C650 1.387 . S
C649 H652 0.950 . S
C650 C649 1.387 . S
C650 C653 1.387 . S
H651 C647 0.950 . S
H652 C649 0.950 . S
C653 C644 1.390 . S
C653 H646 0.950 . S
C653 C650 1.387 . S
C654 C655 1.387 . S
C654 H658 0.950 . S
C654 C663 1.390 . S
C655 C654 1.387 . S
C655 C657 1.387 . S
H656 C663 0.950 . S
C657 C655 1.387 . S
C657 C659 1.390 . S
C657 H661 0.950 . S
H658 C654 0.950 . S
C659 C657 1.390 . S
C659 C660 1.387 . S
C659 H662 0.950 . S
C660 C659 1.387 . S
C660 C663 1.387 . S
H661 C657 0.950 . S
H662 C659 0.950 . S
C663 C654 1.390 . S
C663 H656 0.950 . S
C663 C660 1.387 . S
C664 C665 1.387 . S
C664 H668 0.950 . S
C664 C673 1.390 . S
C665 C664 1.387 . S
C665 C667 1.387 . S
H666 C673 0.950 . S
C667 C665 1.387 . S
C667 C669 1.390 . S
C667 H671 0.950 . S
H668 C664 0.950 . S
C669 C667 1.390 . S
C669 C670 1.387 . S
C669 H672 0.950 . S
C670 C669 1.387 . S
C670 C673 1.387 . S
H671 C667 0.950 . S
H672 C669 0.950 . S
C673 C664 1.390 . S
C673 H666 0.950 . S
C673 C670 1.387 . S
C674 C675 1.387 . S
C674 H678 0.950 . S
C674 C683 1.390 . S
C675 C674 1.387 . S
C675 C677 1.387 . S
H676 C683 0.950 . S
C677 C675 1.387 . S
C677 C679 1.390 . S
C677 H681 0.950 . S
H678 C674 0.950 . S
C679 C677 1.390 . S
C679 C680 1.387 . S
C679 H682 0.950 . S
C680 C679 1.387 . S
C680 C683 1.387 . S
H681 C677 0.950 . S
H682 C679 0.950 . S
C683 C674 1.390 . S
C683 H676 0.950 . S
C683 C680 1.387 . S
C684 C685 1.387 . S
C684 H688 0.950 . S
C684 C693 1.390 1_566 S
C685 C684 1.387 . S
C685 C687 1.387 . S
H686 C693 0.950 . S
C687 C685 1.387 . S
C687 C689 1.390 1_566 S
C687 H691 0.950 . S
H688 C684 0.950 . S
C689 C687 1.390 1_544 S
C689 C690 1.387 . S
C689 H692 0.950 . S
C690 C689 1.387 . S
C690 C693 1.387 . S
H691 C687 0.950 . S
H692 C689 0.950 . S
C693 C684 1.390 1_544 S
C693 H686 0.950 . S
C693 C690 1.387 . S
C694 C695 1.387 . S
C694 H698 0.950 . S
C694 C703 1.390 1_654 S
C695 C694 1.387 . S
C695 C697 1.387 . S
H696 C703 0.950 . S
C697 C695 1.387 . S
C697 C699 1.390 1_654 S
C697 H701 0.950 . S
H698 C694 0.950 . S
C699 C697 1.390 1_456 S
C699 C700 1.387 . S
C699 H702 0.950 . S
C700 C699 1.387 . S
C700 C703 1.387 . S
H701 C697 0.950 . S
H702 C699 0.950 . S
C703 C694 1.390 1_456 S
C703 H696 0.950 . S
C703 C700 1.387 . S
C704 C705 1.387 . S
C704 H708 0.950 . S
C704 C713 1.390 . S
C705 C704 1.387 . S
C705 C707 1.387 1_556 S
H706 C713 0.950 . S
C707 C705 1.387 1_554 S
C707 C709 1.390 . S
C707 H711 0.950 . S
H708 C704 0.950 . S
C709 C707 1.390 . S
C709 C710 1.387 . S
C709 H712 0.950 . S
C710 C709 1.387 . S
C710 C713 1.387 1_554 S
H711 C707 0.950 . S
H712 C709 0.950 . S
C713 C704 1.390 . S
C713 H706 0.950 . S
C713 C710 1.387 1_556 S
C714 C715 1.387 . S
C714 H718 0.950 . S
C714 C723 1.390 1_566 S
C715 C714 1.387 . S
C715 C717 1.387 . S
H716 C723 0.950 . S
C717 C715 1.387 . S
C717 C719 1.390 1_566 S
C717 H721 0.950 . S
H718 C714 0.950 . S
C719 C717 1.390 1_544 S
C719 C720 1.387 . S
C719 H722 0.950 . S
C720 C719 1.387 . S
C720 C723 1.387 . S
H721 C717 0.950 . S
H722 C719 0.950 . S
C723 C714 1.390 1_544 S
C723 H716 0.950 . S
C723 C720 1.387 . S
C724 C725 1.387 1_655 S
C724 H728 0.950 . S
C724 C733 1.400 . S
C725 C724 1.387 1_455 S
C725 C727 1.375 1_556 S
H726 C733 0.950 . S
C727 C725 1.375 1_554 S
C727 C729 1.403 . S
C727 H731 0.950 . S
H728 C724 0.950 . S
C729 C727 1.403 . S
C729 C730 1.387 1_455 S
C729 H732 0.950 . S
C730 C729 1.387 1_655 S
C730 C733 1.378 1_554 S
H731 C727 0.950 . S
H732 C729 0.950 . S
C733 C724 1.400 . S
C733 H726 0.950 . S
C733 C730 1.378 1_556 S
C734 C735 1.387 . S
C734 H738 0.950 . S
C734 C743 1.390 1_554 S
C735 C734 1.387 . S
C735 C737 1.387 . S
H736 C743 0.950 . S
C737 C735 1.387 . S
C737 C739 1.390 1_554 S
C737 H741 0.950 . S
H738 C734 0.950 . S
C739 C737 1.390 1_556 S
C739 C740 1.387 . S
C739 H742 0.950 . S
C740 C739 1.387 . S
C740 C743 1.387 . S
H741 C737 0.950 . S
H742 C739 0.950 . S
C743 C734 1.390 1_556 S
C743 H736 0.950 . S
C743 C740 1.387 . S
C744 C745 1.387 . S
C744 H748 0.950 . S
C744 C753 1.390 . S
C745 C744 1.387 . S
C745 C747 1.387 . S
H746 C753 0.950 . S
C747 C745 1.387 . S
C747 C749 1.390 . S
C747 H751 0.950 . S
H748 C744 0.950 . S
C749 C747 1.390 . S
C749 C750 1.387 . S
C749 H752 0.950 . S
C750 C749 1.387 . S
C750 C753 1.387 . S
H751 C747 0.950 . S
H752 C749 0.950 . S
C753 C744 1.390 . S
C753 H746 0.950 . S
C753 C750 1.387 . S
C754 C755 1.387 . S
C754 H758 0.950 . S
C754 C763 1.390 . S
C755 C754 1.387 . S
C755 C757 1.387 . S
H756 C763 0.950 . S
C757 C755 1.387 . S
C757 C759 1.390 . S
C757 H761 0.950 . S
H758 C754 0.950 . S
C759 C757 1.390 . S
C759 C760 1.387 . S
C759 H762 0.950 . S
C760 C759 1.387 . S
C760 C763 1.387 . S
H761 C757 0.950 . S
H762 C759 0.950 . S
C763 C754 1.390 . S
C763 H756 0.950 . S
C763 C760 1.387 . S
C764 C765 1.387 . S
C764 H768 0.950 . S
C764 C773 1.390 . S
C765 C764 1.387 . S
C765 C767 1.387 . S
H766 C773 0.950 . S
C767 C765 1.387 . S
C767 C769 1.390 . S
C767 H771 0.950 . S
H768 C764 0.950 . S
C769 C767 1.390 . S
C769 C770 1.387 . S
C769 H772 0.950 . S
C770 C769 1.387 . S
C770 C773 1.387 . S
H771 C767 0.950 . S
H772 C769 0.950 . S
C773 C764 1.390 . S
C773 H766 0.950 . S
C773 C770 1.387 . S
C774 C775 1.387 . S
C774 H778 0.950 . S
C774 C783 1.390 . S
C775 C774 1.387 . S
C775 C777 1.387 . S
H776 C783 0.950 . S
C777 C775 1.387 . S
C777 C779 1.390 . S
C777 H781 0.950 . S
H778 C774 0.950 . S
C779 C777 1.390 . S
C779 C780 1.387 . S
C779 H782 0.950 . S
C780 C779 1.387 . S
C780 C783 1.387 . S
H781 C777 0.950 . S
H782 C779 0.950 . S
C783 C774 1.390 . S
C783 H776 0.950 . S
C783 C780 1.387 . S
C784 C785 1.387 . S
C784 H788 0.950 . S
C784 C793 1.390 . S
C785 C784 1.387 . S
C785 C787 1.387 . S
H786 C793 0.950 . S
C787 C785 1.387 . S
C787 C789 1.390 . S
C787 H791 0.950 . S
H788 C784 0.950 . S
C789 C787 1.390 . S
C789 C790 1.387 . S
C789 H792 0.950 . S
C790 C789 1.387 . S
C790 C793 1.387 . S
H791 C787 0.950 . S
H792 C789 0.950 . S
C793 C784 1.390 . S
C793 H786 0.950 . S
C793 C790 1.387 . S
C794 C795 1.387 . S
C794 H798 0.950 . S
C794 C803 1.390 . S
C795 C794 1.387 . S
C795 C797 1.387 . S
H796 C803 0.950 . S
C797 C795 1.387 . S
C797 C799 1.390 . S
C797 H801 0.950 . S
H798 C794 0.950 . S
C799 C797 1.390 . S
C799 C800 1.387 . S
C799 H802 0.950 . S
C800 C799 1.387 . S
C800 C803 1.387 . S
H801 C797 0.950 . S
H802 C799 0.950 . S
C803 C794 1.390 . S
C803 H796 0.950 . S
C803 C800 1.387 . S
C804 C805 1.387 . S
C804 H808 0.950 . S
C804 C813 1.390 . S
C805 C804 1.387 . S
C805 C807 1.387 . S
H806 C813 0.950 . S
C807 C805 1.387 . S
C807 C809 1.390 . S
C807 H811 0.950 . S
H808 C804 0.950 . S
C809 C807 1.390 . S
C809 C810 1.387 . S
C809 H812 0.950 . S
C810 C809 1.387 . S
C810 C813 1.387 . S
H811 C807 0.950 . S
H812 C809 0.950 . S
C813 C804 1.390 . S
C813 H806 0.950 . S
C813 C810 1.387 . S
C814 C815 1.387 . S
C814 H818 0.950 . S
C814 C823 1.390 . S
C815 C814 1.387 . S
C815 C817 1.387 . S
H816 C823 0.950 . S
C817 C815 1.387 . S
C817 C819 1.390 . S
C817 H821 0.950 . S
H818 C814 0.950 . S
C819 C817 1.390 . S
C819 C820 1.387 . S
C819 H822 0.950 . S
C820 C819 1.387 . S
C820 C823 1.387 . S
H821 C817 0.950 . S
H822 C819 0.950 . S
C823 C814 1.390 . S
C823 H816 0.950 . S
C823 C820 1.387 . S
C824 C825 1.387 . S
C824 H828 0.950 . S
C824 C833 1.390 . S
C825 C824 1.387 . S
C825 C827 1.387 . S
H826 C833 0.950 . S
C827 C825 1.387 . S
C827 C829 1.390 . S
C827 H831 0.950 . S
H828 C824 0.950 . S
C829 C827 1.390 . S
C829 C830 1.387 . S
C829 H832 0.950 . S
C830 C829 1.387 . S
C830 C833 1.387 . S
H831 C827 0.950 . S
H832 C829 0.950 . S
C833 C824 1.390 . S
C833 H826 0.950 . S
C833 C830 1.387 . S
C834 C835 1.387 . S
C834 H838 0.950 . S
C834 C843 1.390 . S
C835 C834 1.387 . S
C835 C837 1.387 . S
H836 C843 0.950 . S
C837 C835 1.387 . S
C837 C839 1.390 . S
C837 H841 0.950 . S
H838 C834 0.950 . S
C839 C837 1.390 . S
C839 C840 1.387 . S
C839 H842 0.950 . S
C840 C839 1.387 . S
C840 C843 1.387 . S
H841 C837 0.950 . S
H842 C839 0.950 . S
C843 C834 1.390 . S
C843 H836 0.950 . S
C843 C840 1.387 . S
C844 C845 1.387 . S
C844 H848 0.950 . S
C844 C853 1.390 . S
C845 C844 1.387 . S
C845 C847 1.387 . S
H846 C853 0.950 . S
C847 C845 1.387 . S
C847 C849 1.390 . S
C847 H851 0.950 . S
H848 C844 0.950 . S
C849 C847 1.390 . S
C849 C850 1.387 . S
C849 H852 0.950 . S
C850 C849 1.387 . S
C850 C853 1.387 . S
H851 C847 0.950 . S
H852 C849 0.950 . S
C853 C844 1.390 . S
C853 H846 0.950 . S
C853 C850 1.387 . S
C854 C855 1.387 . S
C854 H858 0.950 . S
C854 C863 1.390 . S
C855 C854 1.387 . S
C855 C857 1.387 . S
H856 C863 0.950 . S
C857 C855 1.387 . S
C857 C859 1.390 . S
C857 H861 0.950 . S
H858 C854 0.950 . S
C859 C857 1.390 . S
C859 C860 1.387 . S
C859 H862 0.950 . S
C860 C859 1.387 . S
C860 C863 1.387 . S
H861 C857 0.950 . S
H862 C859 0.950 . S
C863 C854 1.390 . S
C863 H856 0.950 . S
C863 C860 1.387 . S
C864 C865 1.387 . S
C864 H868 0.950 . S
C864 C873 1.390 . S
C865 C864 1.387 . S
C865 C867 1.387 . S
H866 C873 0.950 . S
C867 C865 1.387 . S
C867 C869 1.390 . S
C867 H871 0.950 . S
H868 C864 0.950 . S
C869 C867 1.390 . S
C869 C870 1.387 . S
C869 H872 0.950 . S
C870 C869 1.387 . S
C870 C873 1.387 . S
H871 C867 0.950 . S
H872 C869 0.950 . S
C873 C864 1.390 . S
C873 H866 0.950 . S
C873 C870 1.387 . S
C874 C875 1.387 . S
C874 H878 0.950 . S
C874 C883 1.390 . S
C875 C874 1.387 . S
C875 C877 1.387 . S
H876 C883 0.950 . S
C877 C875 1.387 . S
C877 C879 1.390 . S
C877 H881 0.950 . S
H878 C874 0.950 . S
C879 C877 1.390 . S
C879 C880 1.387 . S
C879 H882 0.950 . S
C880 C879 1.387 . S
C880 C883 1.387 . S
H881 C877 0.950 . S
H882 C879 0.950 . S
C883 C874 1.390 . S
C883 H876 0.950 . S
C883 C880 1.387 . S
C884 C885 1.387 . S
C884 H888 0.950 . S
C884 C893 1.390 . S
C885 C884 1.387 . S
C885 C887 1.387 . S
H886 C893 0.950 . S
C887 C885 1.387 . S
C887 C889 1.390 . S
C887 H891 0.950 . S
H888 C884 0.950 . S
C889 C887 1.390 . S
C889 C890 1.387 . S
C889 H892 0.950 . S
C890 C889 1.387 . S
C890 C893 1.387 . S
H891 C887 0.950 . S
H892 C889 0.950 . S
C893 C884 1.390 . S
C893 H886 0.950 . S
C893 C890 1.387 . S
C894 C895 1.387 . S
C894 H898 0.950 . S
C894 C903 1.390 . S
C895 C894 1.387 . S
C895 C897 1.387 . S
H896 C903 0.950 . S
C897 C895 1.387 . S
C897 C899 1.390 . S
C897 H901 0.950 . S
H898 C894 0.950 . S
C899 C897 1.390 . S
C899 C900 1.387 . S
C899 H902 0.950 . S
C900 C899 1.387 . S
C900 C903 1.387 . S
H901 C897 0.950 . S
H902 C899 0.950 . S
C903 C894 1.390 . S
C903 H896 0.950 . S
C903 C900 1.387 . S
C904 C905 1.387 . S
C904 H908 0.950 . S
C904 C913 1.390 . S
C905 C904 1.387 . S
C905 C907 1.387 . S
H906 C913 0.950 . S
C907 C905 1.387 . S
C907 C909 1.390 . S
C907 H911 0.950 . S
H908 C904 0.950 . S
C909 C907 1.390 . S
C909 C910 1.387 . S
C909 H912 0.950 . S
C910 C909 1.387 . S
C910 C913 1.387 . S
H911 C907 0.950 . S
H912 C909 0.950 . S
C913 C904 1.390 . S
C913 H906 0.950 . S
C913 C910 1.387 . S
C914 C915 1.387 . S
C914 H918 0.950 . S
C914 C923 1.390 . S
C915 C914 1.387 . S
C915 C917 1.387 . S
H916 C923 0.950 . S
C917 C915 1.387 . S
C917 C919 1.390 . S
C917 H921 0.950 . S
H918 C914 0.950 . S
C919 C917 1.390 . S
C919 C920 1.387 . S
C919 H922 0.950 . S
C920 C919 1.387 . S
C920 C923 1.387 . S
H921 C917 0.950 . S
H922 C919 0.950 . S
C923 C914 1.390 . S
C923 H916 0.950 . S
C923 C920 1.387 . S
C924 C925 1.387 . S
C924 H928 0.950 . S
C924 C933 1.390 . S
C925 C924 1.387 . S
C925 C927 1.387 . S
H926 C933 0.950 . S
C927 C925 1.387 . S
C927 C929 1.390 . S
C927 H931 0.950 . S
H928 C924 0.950 . S
C929 C927 1.390 . S
C929 C930 1.387 . S
C929 H932 0.950 . S
C930 C929 1.387 . S
C930 C933 1.387 . S
H931 C927 0.950 . S
H932 C929 0.950 . S
C933 C924 1.390 . S
C933 H926 0.950 . S
C933 C930 1.387 . S
C934 C935 1.387 . S
C934 H938 0.950 . S
C934 C943 1.390 . S
C935 C934 1.387 . S
C935 C937 1.387 . S
H936 C943 0.950 . S
C937 C935 1.387 . S
C937 C939 1.390 . S
C937 H941 0.950 . S
H938 C934 0.950 . S
C939 C937 1.390 . S
C939 C940 1.387 . S
C939 H942 0.950 . S
C940 C939 1.387 . S
C940 C943 1.387 . S
H941 C937 0.950 . S
H942 C939 0.950 . S
C943 C934 1.390 . S
C943 H936 0.950 . S
C943 C940 1.387 . S
C944 C945 1.387 . S
C944 H948 0.950 . S
C944 C953 1.390 . S
C945 C944 1.387 . S
C945 C947 1.387 . S
H946 C953 0.950 . S
C947 C945 1.387 . S
C947 C949 1.390 . S
C947 H951 0.950 . S
H948 C944 0.950 . S
C949 C947 1.390 . S
C949 C950 1.387 . S
C949 H952 0.950 . S
C950 C949 1.387 . S
C950 C953 1.387 . S
H951 C947 0.950 . S
H952 C949 0.950 . S
C953 C944 1.390 . S
C953 H946 0.950 . S
C953 C950 1.387 . S
C954 C955 1.387 . S
C954 H958 0.950 . S
C954 C963 1.390 . S
C955 C954 1.387 . S
C955 C957 1.387 . S
H956 C963 0.950 . S
C957 C955 1.387 . S
C957 C959 1.390 . S
C957 H961 0.950 . S
H958 C954 0.950 . S
C959 C957 1.390 . S
C959 C960 1.387 . S
C959 H962 0.950 . S
C960 C959 1.387 . S
C960 C963 1.387 . S
H961 C957 0.950 . S
H962 C959 0.950 . S
C963 C954 1.390 . S
C963 H956 0.950 . S
C963 C960 1.387 . S
C964 C965 1.387 . S
C964 H968 0.950 . S
C964 C973 1.390 . S
C965 C964 1.387 . S
C965 C967 1.387 . S
H966 C973 0.950 . S
C967 C965 1.387 . S
C967 C969 1.390 . S
C967 H971 0.950 . S
H968 C964 0.950 . S
C969 C967 1.390 . S
C969 C970 1.387 . S
C969 H972 0.950 . S
C970 C969 1.387 . S
C970 C973 1.387 . S
H971 C967 0.950 . S
H972 C969 0.950 . S
C973 C964 1.390 . S
C973 H966 0.950 . S
C973 C970 1.387 . S
C974 C975 1.387 . S
C974 H978 0.950 . S
C974 C983 1.390 . S
C975 C974 1.387 . S
C975 C977 1.387 . S
H976 C983 0.950 . S
C977 C975 1.387 . S
C977 C979 1.390 . S
C977 H981 0.950 . S
H978 C974 0.950 . S
C979 C977 1.390 . S
C979 C980 1.387 . S
C979 H982 0.950 . S
C980 C979 1.387 . S
C980 C983 1.387 . S
H981 C977 0.950 . S
H982 C979 0.950 . S
C983 C974 1.390 . S
C983 H976 0.950 . S
C983 C980 1.387 . S
C984 C985 1.387 . S
C984 H988 0.950 . S
C984 C993 1.390 1_455 S
C985 C984 1.387 . S
C985 C987 1.387 . S
H986 C993 0.950 . S
C987 C985 1.387 . S
C987 C989 1.390 1_455 S
C987 H991 0.950 . S
H988 C984 0.950 . S
C989 C987 1.390 1_655 S
C989 C990 1.387 . S
C989 H992 0.950 . S
C990 C989 1.387 . S
C990 C993 1.387 . S
H991 C987 0.950 . S
H992 C989 0.950 . S
C993 C984 1.390 1_655 S
C993 H986 0.950 . S
C993 C990 1.387 . S
C994 C995 1.387 . S
C994 H998 0.950 . S
C994 C1003 1.390 . S
C995 C994 1.387 . S
C995 C997 1.387 . S
H996 C1003 0.950 . S
C997 C995 1.387 . S
C997 C999 1.390 . S
C997 H1001 0.950 . S
H998 C994 0.950 . S
C999 C997 1.390 . S
C999 C1000 1.387 . S
C999 H1002 0.950 . S
C1000 C999 1.387 . S
C1000 C1003 1.387 . S
H1001 C997 0.950 . S
H1002 C999 0.950 . S
C1003 C994 1.390 . S
C1003 H996 0.950 . S
C1003 C1000 1.387 . S
C1004 C1005 1.387 . S
C1004 H1008 0.950 . S
C1004 C1013 1.390 1_545 S
C1005 C1004 1.387 . S
C1005 C1007 1.387 . S
H1006 C1013 0.950 . S
C1007 C1005 1.387 . S
C1007 C1009 1.390 1_545 S
C1007 H1011 0.950 . S
H1008 C1004 0.950 . S
C1009 C1007 1.390 1_565 S
C1009 C1010 1.387 . S
C1009 H1012 0.950 . S
C1010 C1009 1.387 . S
C1010 C1013 1.387 . S
H1011 C1007 0.950 . S
H1012 C1009 0.950 . S
C1013 C1004 1.390 1_565 S
C1013 H1006 0.950 . S
C1013 C1010 1.387 . S
C1014 C1015 1.387 . S
C1014 H1018 0.950 . S
C1014 C1023 1.390 1_545 S
C1015 C1014 1.387 . S
C1015 C1017 1.387 . S
H1016 C1023 0.950 . S
C1017 C1015 1.387 . S
C1017 C1019 1.390 1_545 S
C1017 H1021 0.950 . S
H1018 C1014 0.950 . S
C1019 C1017 1.390 1_565 S
C1019 C1020 1.387 . S
C1019 H1022 0.950 . S
C1020 C1019 1.387 . S
C1020 C1023 1.387 . S
H1021 C1017 0.950 . S
H1022 C1019 0.950 . S
C1023 C1014 1.390 1_565 S
C1023 H1016 0.950 . S
C1023 C1020 1.387 . S
C1024 C1025 1.387 . S
C1024 H1028 0.950 . S
C1024 C1033 1.390 1_655 S
C1025 C1024 1.387 . S
C1025 C1027 1.387 . S
H1026 C1033 0.950 . S
C1027 C1025 1.387 . S
C1027 C1029 1.390 1_655 S
C1027 H1031 0.950 . S
H1028 C1024 0.950 . S
C1029 C1027 1.390 1_455 S
C1029 C1030 1.387 . S
C1029 H1032 0.950 . S
C1030 C1029 1.387 . S
C1030 C1033 1.387 . S
H1031 C1027 0.950 . S
H1032 C1029 0.950 . S
C1033 C1024 1.390 1_455 S
C1033 H1026 0.950 . S
C1033 C1030 1.387 . S
C1034 C1035 1.387 . S
C1034 H1038 0.950 . S
C1034 C1043 1.390 . S
C1035 C1034 1.387 . S
C1035 C1037 1.387 . S
H1036 C1043 0.950 . S
C1037 C1035 1.387 . S
C1037 C1039 1.390 . S
C1037 H1041 0.950 . S
H1038 C1034 0.950 . S
C1039 C1037 1.390 . S
C1039 C1040 1.387 . S
C1039 H1042 0.950 . S
C1040 C1039 1.387 . S
C1040 C1043 1.387 . S
H1041 C1037 0.950 . S
H1042 C1039 0.950 . S
C1043 C1034 1.390 . S
C1043 H1036 0.950 . S
C1043 C1040 1.387 . S
C1044 C1045 1.387 . S
C1044 H1048 0.950 . S
C1044 C1053 1.390 . S
C1045 C1044 1.387 . S
C1045 C1047 1.387 . S
H1046 C1053 0.950 . S
C1047 C1045 1.387 . S
C1047 C1049 1.390 . S
C1047 H1051 0.950 . S
H1048 C1044 0.950 . S
C1049 C1047 1.390 . S
C1049 C1050 1.387 . S
C1049 H1052 0.950 . S
C1050 C1049 1.387 . S
C1050 C1053 1.387 . S
H1051 C1047 0.950 . S
H1052 C1049 0.950 . S
C1053 C1044 1.390 . S
C1053 H1046 0.950 . S
C1053 C1050 1.387 . S
C1054 C1055 1.387 . S
C1054 H1058 0.950 . S
C1054 C1063 1.390 . S
C1055 C1054 1.387 . S
C1055 C1057 1.387 . S
H1056 C1063 0.950 . S
C1057 C1055 1.387 . S
C1057 C1059 1.390 . S
C1057 H1061 0.950 . S
H1058 C1054 0.950 . S
C1059 C1057 1.390 . S
C1059 C1060 1.387 . S
C1059 H1062 0.950 . S
C1060 C1059 1.387 . S
C1060 C1063 1.387 . S
H1061 C1057 0.950 . S
H1062 C1059 0.950 . S
C1063 C1054 1.390 . S
C1063 H1056 0.950 . S
C1063 C1060 1.387 . S
C1064 C1065 1.387 . S
C1064 H1068 0.950 . S
C1064 C1073 1.390 . S
C1065 C1064 1.387 . S
C1065 C1067 1.387 . S
H1066 C1073 0.950 . S
C1067 C1065 1.387 . S
C1067 C1069 1.390 . S
C1067 H1071 0.950 . S
H1068 C1064 0.950 . S
C1069 C1067 1.390 . S
C1069 C1070 1.387 . S
C1069 H1072 0.950 . S
C1070 C1069 1.387 . S
C1070 C1073 1.387 . S
H1071 C1067 0.950 . S
H1072 C1069 0.950 . S
C1073 C1064 1.390 . S
C1073 H1066 0.950 . S
C1073 C1070 1.387 . S
C1074 C1075 1.387 . S
C1074 H1078 0.950 . S
C1074 C1083 1.390 . S
C1075 C1074 1.387 . S
C1075 C1077 1.387 . S
H1076 C1083 0.950 . S
C1077 C1075 1.387 . S
C1077 C1079 1.390 . S
C1077 H1081 0.950 . S
H1078 C1074 0.950 . S
C1079 C1077 1.390 . S
C1079 C1080 1.387 . S
C1079 H1082 0.950 . S
C1080 C1079 1.387 . S
C1080 C1083 1.387 . S
H1081 C1077 0.950 . S
H1082 C1079 0.950 . S
C1083 C1074 1.390 . S
C1083 H1076 0.950 . S
C1083 C1080 1.387 . S
C1084 C1085 1.387 . S
C1084 H1088 0.950 . S
C1084 C1093 1.390 . S
C1085 C1084 1.387 . S
C1085 C1087 1.387 . S
H1086 C1093 0.950 . S
C1087 C1085 1.387 . S
C1087 C1089 1.390 . S
C1087 H1091 0.950 . S
H1088 C1084 0.950 . S
C1089 C1087 1.390 . S
C1089 C1090 1.387 . S
C1089 H1092 0.950 . S
C1090 C1089 1.387 . S
C1090 C1093 1.387 . S
H1091 C1087 0.950 . S
H1092 C1089 0.950 . S
C1093 C1084 1.390 . S
C1093 H1086 0.950 . S
C1093 C1090 1.387 . S
C1094 C1095 1.387 . S
C1094 H1098 0.950 . S
C1094 C1103 1.390 . S
C1095 C1094 1.387 . S
C1095 C1097 1.387 . S
H1096 C1103 0.950 . S
C1097 C1095 1.387 . S
C1097 C1099 1.390 . S
C1097 H1101 0.950 . S
H1098 C1094 0.950 . S
C1099 C1097 1.390 . S
C1099 C1100 1.387 . S
C1099 H1102 0.950 . S
C1100 C1099 1.387 . S
C1100 C1103 1.387 . S
H1101 C1097 0.950 . S
H1102 C1099 0.950 . S
C1103 C1094 1.390 . S
C1103 H1096 0.950 . S
C1103 C1100 1.387 . S
C1104 C1105 1.387 . S
C1104 H1108 0.950 . S
C1104 C1113 1.390 . S
C1105 C1104 1.387 . S
C1105 C1107 1.387 . S
H1106 C1113 0.950 . S
C1107 C1105 1.387 . S
C1107 C1109 1.390 . S
C1107 H1111 0.950 . S
H1108 C1104 0.950 . S
C1109 C1107 1.390 . S
C1109 C1110 1.387 . S
C1109 H1112 0.950 . S
C1110 C1109 1.387 . S
C1110 C1113 1.387 . S
H1111 C1107 0.950 . S
H1112 C1109 0.950 . S
C1113 C1104 1.390 . S
C1113 H1106 0.950 . S
C1113 C1110 1.387 . S
C1114 C1115 1.387 . S
C1114 H1118 0.950 . S
C1114 C1123 1.390 . S
C1115 C1114 1.387 . S
C1115 C1117 1.387 . S
H1116 C1123 0.950 . S
C1117 C1115 1.387 . S
C1117 C1119 1.390 . S
C1117 H1121 0.950 . S
H1118 C1114 0.950 . S
C1119 C1117 1.390 . S
C1119 C1120 1.387 . S
C1119 H1122 0.950 . S
C1120 C1119 1.387 . S
C1120 C1123 1.387 . S
H1121 C1117 0.950 . S
H1122 C1119 0.950 . S
C1123 C1114 1.390 . S
C1123 H1116 0.950 . S
C1123 C1120 1.387 . S
C1124 C1125 1.387 . S
C1124 H1128 0.950 . S
C1124 C1133 1.390 . S
C1125 C1124 1.387 . S
C1125 C1127 1.387 . S
H1126 C1133 0.950 . S
C1127 C1125 1.387 . S
C1127 C1129 1.390 . S
C1127 H1131 0.950 . S
H1128 C1124 0.950 . S
C1129 C1127 1.390 . S
C1129 C1130 1.387 . S
C1129 H1132 0.950 . S
C1130 C1129 1.387 . S
C1130 C1133 1.387 . S
H1131 C1127 0.950 . S
H1132 C1129 0.950 . S
C1133 C1124 1.390 . S
C1133 H1126 0.950 . S
C1133 C1130 1.387 . S
C1134 C1135 1.387 . S
C1134 H1138 0.950 . S
C1134 C1143 1.390 . S
C1135 C1134 1.387 . S
C1135 C1137 1.387 . S
H1136 C1143 0.950 . S
C1137 C1135 1.387 . S
C1137 C1139 1.390 . S
C1137 H1141 0.950 . S
H1138 C1134 0.950 . S
C1139 C1137 1.390 . S
C1139 C1140 1.387 . S
C1139 H1142 0.950 . S
C1140 C1139 1.387 . S
C1140 C1143 1.387 . S
H1141 C1137 0.950 . S
H1142 C1139 0.950 . S
C1143 C1134 1.390 . S
C1143 H1136 0.950 . S
C1143 C1140 1.387 . S
C1144 C1145 1.387 . S
C1144 H1148 0.950 . S
C1144 C1153 1.390 . S
C1145 C1144 1.387 . S
C1145 C1147 1.387 . S
H1146 C1153 0.950 . S
C1147 C1145 1.387 . S
C1147 C1149 1.390 . S
C1147 H1151 0.950 1_554 S
H1148 C1144 0.950 . S
C1149 C1147 1.390 . S
C1149 C1150 1.387 . S
C1149 H1152 0.950 1_554 S
C1150 C1149 1.387 . S
C1150 C1153 1.387 . S
H1151 C1147 0.950 1_556 S
H1152 C1149 0.950 1_556 S
C1153 C1144 1.390 . S
C1153 H1146 0.950 . S
C1153 C1150 1.387 . S
C1154 C1155 1.387 . S
C1154 H1158 0.950 1_554 S
C1154 C1163 1.390 . S
C1155 C1154 1.387 . S
C1155 C1157 1.387 . S
H1156 C1163 0.950 1_556 S
C1157 C1155 1.387 . S
C1157 C1159 1.390 . S
C1157 H1161 0.950 . S
H1158 C1154 0.950 1_556 S
C1159 C1157 1.390 . S
C1159 C1160 1.387 . S
C1159 H1162 0.950 . S
C1160 C1159 1.387 . S
C1160 C1163 1.387 . S
H1161 C1157 0.950 . S
H1162 C1159 0.950 . S
C1163 C1154 1.390 . S
C1163 H1156 0.950 1_554 S
C1163 C1160 1.387 . S
C1164 C1165 1.387 . S
C1164 H1168 0.950 . S
C1164 C1173 1.390 . S
C1165 C1164 1.387 . S
C1165 C1167 1.387 . S
H1166 C1173 0.950 . S
C1167 C1165 1.387 . S
C1167 C1169 1.390 . S
C1167 H1171 0.950 1_556 S
H1168 C1164 0.950 . S
C1169 C1167 1.390 . S
C1169 C1170 1.387 . S
C1169 H1172 0.950 1_556 S
C1170 C1169 1.387 . S
C1170 C1173 1.387 . S
H1171 C1167 0.950 1_554 S
H1172 C1169 0.950 1_554 S
C1173 C1164 1.390 . S
C1173 H1166 0.950 . S
C1173 C1170 1.387 . S
C1174 C1175 1.387 . S
C1174 H1178 0.950 1_556 S
C1174 C1183 1.390 . S
C1175 C1174 1.387 . S
C1175 C1177 1.387 . S
H1176 C1183 0.950 1_554 S
C1177 C1175 1.387 . S
C1177 C1179 1.390 . S
C1177 H1181 0.950 . S
H1178 C1174 0.950 1_554 S
C1179 C1177 1.390 . S
C1179 C1180 1.387 . S
C1179 H1182 0.950 . S
C1180 C1179 1.387 . S
C1180 C1183 1.387 . S
H1181 C1177 0.950 . S
H1182 C1179 0.950 . S
C1183 C1174 1.390 . S
C1183 H1176 0.950 1_556 S
C1183 C1180 1.387 . S
C1184 C1185 1.387 . S
C1184 H1188 0.950 . S
C1184 C1193 1.390 . S
C1185 C1184 1.387 . S
C1185 C1187 1.387 . S
H1186 C1193 0.950 . S
C1187 C1185 1.387 . S
C1187 C1189 1.390 . S
C1187 H1191 0.950 . S
H1188 C1184 0.950 . S
C1189 C1187 1.390 . S
C1189 C1190 1.387 . S
C1189 H1192 0.950 . S
C1190 C1189 1.387 . S
C1190 C1193 1.387 . S
H1191 C1187 0.950 . S
H1192 C1189 0.950 . S
C1193 C1184 1.390 . S
C1193 H1186 0.950 . S
C1193 C1190 1.387 . S
C1194 C1195 1.387 . S
C1194 H1198 0.950 . S
C1194 C1203 1.390 . S
C1195 C1194 1.387 . S
C1195 C1197 1.387 . S
H1196 C1203 0.950 . S
C1197 C1195 1.387 . S
C1197 C1199 1.390 . S
C1197 H1201 0.950 . S
H1198 C1194 0.950 . S
C1199 C1197 1.390 . S
C1199 C1200 1.387 . S
C1199 H1202 0.950 . S
C1200 C1199 1.387 . S
C1200 C1203 1.387 . S
H1201 C1197 0.950 . S
H1202 C1199 0.950 . S
C1203 C1194 1.390 . S
C1203 H1196 0.950 . S
C1203 C1200 1.387 . S
C1204 C1205 1.387 . S
C1204 H1208 0.950 . S
C1204 C1213 1.390 . S
C1205 C1204 1.387 . S
C1205 C1207 1.387 . S
H1206 C1213 0.950 . S
C1207 C1205 1.387 . S
C1207 C1209 1.390 . S
C1207 H1211 0.950 . S
H1208 C1204 0.950 . S
C1209 C1207 1.390 . S
C1209 C1210 1.387 . S
C1209 H1212 0.950 . S
C1210 C1209 1.387 . S
C1210 C1213 1.387 . S
H1211 C1207 0.950 . S
H1212 C1209 0.950 . S
C1213 C1204 1.390 . S
C1213 H1206 0.950 . S
C1213 C1210 1.387 . S
C1214 C1215 1.387 . S
C1214 H1218 0.950 . S
C1214 C1223 1.390 . S
C1215 C1214 1.387 . S
C1215 C1217 1.387 . S
H1216 C1223 0.950 . S
C1217 C1215 1.387 . S
C1217 C1219 1.390 . S
C1217 H1221 0.950 . S
H1218 C1214 0.950 . S
C1219 C1217 1.390 . S
C1219 C1220 1.387 . S
C1219 H1222 0.950 . S
C1220 C1219 1.387 . S
C1220 C1223 1.387 . S
H1221 C1217 0.950 . S
H1222 C1219 0.950 . S
C1223 C1214 1.390 . S
C1223 H1216 0.950 . S
C1223 C1220 1.387 . S
C505 C76 1.325 . S
C510 C6 1.325 . S
C515 C48 1.326 . S
C520 C20 1.325 . S
C525 C34 1.327 . S
C530 C62 1.324 . S
C535 C90 1.325 . S
C540 C160 1.326 . S
C545 C104 1.327 . S
C550 C132 1.324 . S
C555 C146 1.326 . S
C560 C118 1.324 . S
C565 C174 1.325 . S
C570 C244 1.325 . S
C575 C188 1.327 . S
C580 C216 1.324 . S
C585 C202 1.325 . S
C590 C230 1.326 . S
C595 C328 1.326 . S
C600 C258 1.325 . S
C605 C272 1.326 . S
C610 C300 1.325 . S
C615 C314 1.327 . S
C620 C286 1.324 . S
C625 C412 1.325 . S
C630 C342 1.325 . S
C635 C384 1.324 . S
C640 C356 1.327 . S
C645 C398 1.327 . S
C650 C370 1.324 . S
C655 C426 1.326 . S
C660 C496 1.326 . S
C665 C440 1.324 . S
C670 C468 1.327 . S
C675 C454 1.325 . S
C680 C482 1.326 . S
C685 C78 1.935 . S
C690 C8 1.935 . S
C695 C22 1.936 . S
C700 C50 1.936 . S
C705 C64 1.936 . S
C710 C36 1.937 . S
C715 C92 1.935 . S
C720 C162 1.935 . S
C725 C106 1.936 . S
C730 C134 1.935 . S
C735 C148 1.936 . S
C740 C120 1.935 . S
C745 C176 1.935 . S
C750 C246 1.935 . S
C755 C218 1.936 . S
C760 C190 1.935 . S
C765 C232 1.936 . S
C770 C204 1.936 . S
C775 C260 1.935 . S
C780 C330 1.935 . S
C785 C274 1.936 . S
C790 C302 1.936 . S
C795 C316 1.936 . S
C800 C288 1.936 . S
C805 C414 1.936 . S
C810 C344 1.936 . S
C815 C358 1.936 . S
C820 C386 1.936 . S
C825 C372 1.936 . S
C830 C400 1.936 . S
C835 C498 1.935 . S
C840 C428 1.935 . S
C845 C470 1.935 . S
C850 C442 1.936 . S
C855 C484 1.936 . S
C860 C456 1.936 . S
C865 C233 1.642 . S
C870 C9 1.641 . S
C875 C247 1.641 . S
C880 C23 1.642 . S
C885 C219 1.641 . S
C890 C37 1.641 . S
C895 C51 1.642 . S
C900 C373 1.642 . S
C905 C65 1.642 . S
C910 C345 1.641 . S
C915 C79 1.642 . S
C920 C359 1.641 . S
C925 C93 1.642 . S
C930 C485 1.641 . S
C935 C107 1.640 . S
C940 C499 1.642 . S
C945 C121 1.642 . S
C950 C471 1.642 . S
C955 C135 1.641 . S
C960 C289 1.641 . S
C965 C261 1.641 . S
C970 C149 1.642 . S
C975 C275 1.642 . S
C980 C163 1.641 . S
C985 C401 1.642 . S
C990 C177 1.641 . S
C995 C191 1.642 . S
C1000 C415 1.640 . S
C1005 C205 1.642 . S
C1010 C387 1.642 . S
C1015 C303 1.642 . S
C1020 C457 1.642 . S
C1025 C317 1.642 . S
C1030 C429 1.641 . S
C1035 C443 1.640 . S
C1040 C331 1.642 . S
C1045 C7 1.441 . S
C1050 C147 1.441 . S
C1055 C161 1.441 . S
C1060 C21 1.441 . S
C1065 C133 1.439 . S
C1070 C35 1.442 . S
C1075 C49 1.443 . S
C1080 C119 1.440 . S
C1085 C63 1.441 . S
C1090 C91 1.441 . S
C1095 C77 1.441 . S
C1100 C105 1.441 . S
C1105 C175 1.441 . S
C1110 C315 1.441 . S
C1115 C329 1.441 . S
C1120 C189 1.441 . S
C1125 C301 1.443 . S
C1130 C203 1.440 . S
C1135 C217 1.443 . S
C1140 C287 1.440 . S
C1145 C231 1.441 . S
C1150 C259 1.441 . S
C1155 C273 1.441 . S
C1160 C245 1.441 . S
C1165 C343 1.441 . S
C1170 C483 1.441 . S
C1175 C497 1.441 . S
C1180 C357 1.441 . S
C1185 C371 1.442 . S
C1190 C469 1.439 . S
C1195 C385 1.443 . S
C1200 C455 1.440 . S
C1205 C427 1.441 . S
C1210 C399 1.441 . S
C1215 C413 1.441 . S
C1220 C441 1.441 . S
