# Generated by pormake.
# Topology sxb, (6)-cn, num edge types: 1
# Building blocks:
#     Node 0, Type 0, BuildingBlock: CUKXOW_clean_sbu_0, # of connection points: 6
#     Node 1, Type 0, BuildingBlock: CUKXOW_clean_sbu_0, # of connection points: 6
#     Node 2, Type 0, BuildingBlock: CUKXOW_clean_sbu_0, # of connection points: 6
#     Node 3, Type 0, BuildingBlock: CUKXOW_clean_sbu_0, # of connection points: 6
#     Edge 4, Type (0, 0), BuildingBlock: FUNLAD_clean_linker_1, # of connection points: 2
#     Edge 5, Type (0, 0), BuildingBlock: FUNLAD_clean_linker_1, # of connection points: 2
#     Edge 6, Type (0, 0), BuildingBlock: FUNLAD_clean_linker_1, # of connection points: 2
#     Edge 7, Type (0, 0), BuildingBlock: FUNLAD_clean_linker_1, # of connection points: 2
#     Edge 8, Type (0, 0), BuildingBlock: FUNLAD_clean_linker_1, # of connection points: 2
#     Edge 9, Type (0, 0), BuildingBlock: FUNLAD_clean_linker_1, # of connection points: 2
#     Edge 10, Type (0, 0), BuildingBlock: FUNLAD_clean_linker_1, # of connection points: 2
#     Edge 11, Type (0, 0), BuildingBlock: FUNLAD_clean_linker_1, # of connection points: 2
#     Edge 12, Type (0, 0), BuildingBlock: FUNLAD_clean_linker_1, # of connection points: 2
#     Edge 13, Type (0, 0), BuildingBlock: FUNLAD_clean_linker_1, # of connection points: 2
#     Edge 14, Type (0, 0), BuildingBlock: FUNLAD_clean_linker_1, # of connection points: 2
#     Edge 15, Type (0, 0), BuildingBlock: FUNLAD_clean_linker_1, # of connection points: 2
# Relax obj value: 0.016
# Max RMSD: 0.070
# Mean RMSD: 0.070
data_MOF--net-sxb--node1-CUKXOW_clean_sbu_0--edge1-FUNLAD_clean_linker_1
_symmetry_space_group_name_H-M    P1
_symmetry_Int_Tables_number       1
_symmetry_cell_setting            triclinic
loop_
_symmetry_equiv_pos_as_xyz
'x, y, z'
_cell_length_a     14.800152
_cell_length_b     33.952104
_cell_length_c     31.683225
_cell_angle_alpha  89.968454
_cell_angle_beta   103.32704
_cell_angle_gamma 90.198025
loop_
_atom_site_label
_atom_site_type_symbol
_atom_site_fract_x
_atom_site_fract_y
_atom_site_fract_z
_atom_type_partial_charge
Tb0 Tb 1.03303 0.04337 0.0047 0.0
C1 C 0.0635 0.00177 0.92199 0.0
Tb2 Tb 0.06896 0.95467 0.00952 0.0
O3 O 0.1726 0.05484 0.99513 0.0
O4 O 0.14658 0.00609 0.03101 0.0
O5 O 1.02204 0.03203 0.9361 0.0
C6 C 0.12894 0.88153 0.00382 0.0
O7 O 0.09736 0.97139 0.94697 0.0
C8 C 0.89538 0.97583 0.99938 0.0
C9 C 1.04387 0.99631 0.09306 0.0
O10 O 0.0475 0.8945 0.98501 0.0
O11 O 0.17721 0.90961 0.02629 0.0
O12 O 0.92933 0.94403 0.01965 0.0
O13 O 0.95587 0.99202 0.98305 0.0
O14 O 0.08354 0.96591 0.07823 0.0
O15 O 1.00909 0.02682 0.06836 0.0
C16 C 0.96678 0.11578 0.0081 0.0
O17 O 0.04951 0.10436 0.02713 0.0
O18 O 0.92085 0.08654 0.98684 0.0
C19 C 0.2068 0.02282 0.01488 0.0
Tb20 Tb 0.10479 0.03747 0.51517 0.0
C21 C 0.06405 0.99392 0.59524 0.0
Tb22 Tb 0.0641 0.94883 0.50688 0.0
O23 O 0.96341 0.04995 0.52168 0.0
O24 O 0.99057 0.0012 0.48633 0.0
O25 O 0.10632 0.02479 0.58256 0.0
C26 C 0.99619 0.87618 0.50672 0.0
O27 O 1.03358 0.96345 0.56958 0.0
C28 C 0.23942 0.96917 0.52013 0.0
C29 C 0.09713 0.99285 0.42575 0.0
O30 O 0.0796 0.88691 0.52583 0.0
O31 O 0.95058 0.90626 0.48741 0.0
O32 O 0.20517 0.9378 0.49884 0.0
O33 O 0.17792 0.98519 0.53581 0.0
O34 O 0.05485 0.96221 0.43894 0.0
O35 O 0.13178 0.02269 0.45167 0.0
C36 C 0.18417 0.10812 0.51857 0.0
O37 O 0.10186 0.09938 0.49584 0.0
O38 O 0.22174 0.07725 0.53946 0.0
C39 C 0.92915 0.01802 0.50145 0.0
Tb40 Tb 0.52119 0.54258 0.99102 0.0
C41 C 0.54953 0.50157 0.90765 0.0
Tb42 Tb 0.55475 0.45366 0.99485 0.0
O43 O 0.66151 0.55323 0.9823 0.0
O44 O 0.63327 0.5045 0.01758 0.0
O45 O 0.50942 0.53192 0.92236 0.0
C46 C 0.61621 0.38048 0.99082 0.0
O47 O 0.58277 0.47076 0.93218 0.0
C48 C 0.3813 0.47508 0.98372 0.0
C49 C 0.52169 0.49471 0.07742 0.0
O50 O 0.53566 0.39331 0.97052 0.0
O51 O 0.66285 0.40877 0.01362 0.0
O52 O 0.414 0.44269 0.00307 0.0
O53 O 0.44285 0.49166 0.96839 0.0
O54 O 0.5636 0.46452 0.06342 0.0
O55 O 0.48902 0.52532 0.05259 0.0
C56 C 0.46438 0.61614 0.99737 0.0
O57 O 0.54375 0.60204 0.01747 0.0
O58 O 0.41624 0.58892 0.9733 0.0
C59 C 0.69446 0.52103 0.00195 0.0
Tb60 Tb 0.52941 0.55049 0.49403 0.0
C61 C 0.49956 0.50605 0.57539 0.0
Tb62 Tb 0.48497 0.46247 0.48459 0.0
O63 O 0.38972 0.56202 0.5037 0.0
O64 O 0.4135 0.51533 0.46481 0.0
O65 O 0.5414 0.53673 0.56205 0.0
C66 C 0.39864 0.39334 0.48091 0.0
O67 O 0.46364 0.47643 0.54938 0.0
C68 C 0.66138 0.48093 0.49775 0.0
C69 C 0.52251 0.50628 0.40423 0.0
O70 O 0.48529 0.39954 0.4995 0.0
O71 O 0.36088 0.42582 0.46418 0.0
O72 O 0.62549 0.44969 0.4765 0.0
O73 O 0.60091 0.49753 0.51368 0.0
O74 O 0.48038 0.47548 0.41707 0.0
O75 O 0.55487 0.53643 0.4301 0.0
C76 C 0.60232 0.62221 0.49407 0.0
O77 O 0.51625 0.61311 0.47797 0.0
O78 O 0.64767 0.59108 0.51063 0.0
C79 C 0.35347 0.53142 0.48144 0.0
H80 H 0.48214 0.67567 0.02505 0.0
C81 C 0.43404 0.6564 0.00327 0.0
H82 H 0.30112 0.65094 0.96133 0.0
H83 H 0.25551 0.80014 0.09107 0.0
H84 H 0.26639 0.75 0.14666 0.0
H85 H 0.30022 0.68093 0.13184 0.0
H86 H 0.32377 0.66162 0.0615 0.0
C87 C 0.34928 0.66944 0.98403 0.0
C88 C 0.3214 0.71023 0.99205 0.0
C89 C 0.30643 0.72081 0.03323 0.0
C90 C 0.28532 0.76045 0.04156 0.0
C91 C 0.27133 0.77038 0.08299 0.0
C92 C 0.27732 0.7419 0.11518 0.0
C93 C 0.2965 0.70303 0.10685 0.0
C94 C 0.31056 0.6924 0.06639 0.0
H95 H 0.11283 0.82142 0.97767 0.0
C96 C 0.16112 0.84154 0.99816 0.0
H97 H 0.29634 0.84907 0.03746 0.0
H98 H 0.34483 0.69948 0.90961 0.0
H99 H 0.33381 0.74969 0.85409 0.0
H100 H 0.29795 0.81858 0.86873 0.0
H101 H 0.27247 0.83758 0.93885 0.0
C102 C 0.24762 0.8297 0.01615 0.0
C103 C 0.27694 0.78909 0.00841 0.0
C104 C 0.29192 0.77853 0.96726 0.0
C105 C 0.31351 0.73895 0.95898 0.0
C106 C 0.32827 0.72916 0.91764 0.0
C107 C 0.32224 0.75769 0.88549 0.0
C108 C 0.30196 0.79646 0.89371 0.0
C109 C 0.28707 0.80694 0.93406 0.0
H110 H 0.60174 0.31965 0.96651 0.0
C111 C 0.64857 0.3401 0.98727 0.0
H112 H 0.77974 0.3479 0.03002 0.0
H113 H 0.8184 0.16415 0.06911 0.0
H114 H 0.78997 0.18836 0.13687 0.0
H115 H 0.74945 0.25799 0.14473 0.0
H116 H 0.73658 0.30372 0.08475 0.0
C117 C 0.73326 0.32814 0.00814 0.0
C118 C 0.76285 0.28683 0.00392 0.0
C119 C 0.77182 0.26076 0.03957 0.0
C120 C 0.7962 0.22076 0.03522 0.0
C121 C 0.80188 0.19501 0.07092 0.0
C122 C 0.78528 0.20848 0.10994 0.0
C123 C 0.76237 0.24767 0.11434 0.0
C124 C 0.75536 0.27362 0.07966 0.0
H125 H 0.9779 0.17707 0.03093 0.0
C126 C 0.93153 0.15569 0.01141 0.0
H127 H 0.79857 0.14549 0.97101 0.0
H128 H 0.75895 0.32989 0.93022 0.0
H129 H 0.78524 0.30531 0.86224 0.0
H130 H 0.8238 0.23548 0.85424 0.0
H131 H 0.83683 0.18988 0.91434 0.0
C132 C 0.84494 0.16617 0.99163 0.0
C133 C 0.81295 0.20715 0.99542 0.0
C134 C 0.80325 0.2331 0.95966 0.0
C135 C 0.77933 0.27316 0.96405 0.0
C136 C 0.77417 0.29889 0.92836 0.0
C137 C 0.78979 0.28524 0.88921 0.0
C138 C 0.81165 0.24594 0.88472 0.0
C139 C 0.81881 0.22008 0.91947 0.0
H140 H 0.29981 0.14991 0.53958 0.0
C141 C 0.22997 0.14656 0.51951 0.0
H142 H 0.11918 0.17393 0.47513 0.0
H143 H 0.31139 0.33663 0.56058 0.0
H144 H 0.20836 0.32628 0.60911 0.0
H145 H 0.11789 0.26473 0.60619 0.0
H146 H 0.12994 0.21318 0.55463 0.0
C147 C 0.18876 0.17681 0.49554 0.0
C148 C 0.23859 0.2147 0.49552 0.0
C149 C 0.22974 0.24459 0.52543 0.0
C150 C 0.28094 0.2802 0.52673 0.0
C151 C 0.27267 0.30929 0.55763 0.0
C152 C 0.21413 0.30365 0.58582 0.0
C153 C 0.16326 0.26899 0.5842 0.0
C154 C 0.17086 0.23964 0.5545 0.0
H155 H 0.27508 0.35512 0.46513 0.0
C156 C 0.3489 0.35587 0.48021 0.0
H157 H 0.46603 0.32337 0.51258 0.0
H158 H 0.26722 0.16377 0.43295 0.0
H159 H 0.36774 0.17464 0.38331 0.0
H160 H 0.45677 0.2365 0.38554 0.0
H161 H 0.44584 0.28787 0.43743 0.0
C162 C 0.39186 0.32329 0.49827 0.0
C163 C 0.3397 0.28589 0.49765 0.0
C164 C 0.34784 0.25612 0.46747 0.0
C165 C 0.29677 0.22049 0.46626 0.0
C166 C 0.30505 0.19133 0.43543 0.0
C167 C 0.36233 0.19722 0.40671 0.0
C168 C 0.41244 0.23205 0.40796 0.0
C169 C 0.40556 0.26127 0.43791 0.0
H170 H 1.0063 0.81365 0.52509 0.0
C171 C 0.95927 0.83629 0.50872 0.0
H172 H 0.82236 0.84989 0.47531 0.0
H173 H 0.72119 0.67239 0.4226 0.0
H174 H 0.72613 0.70075 0.35296 0.0
H175 H 0.7802 0.76902 0.34777 0.0
H176 H 0.82984 0.80924 0.41227 0.0
C177 C 0.86956 0.82769 0.49255 0.0
C178 C 0.83372 0.78716 0.49584 0.0
C179 C 0.80393 0.76428 0.45776 0.0
C180 C 0.77243 0.72502 0.46073 0.0
C181 C 0.74479 0.70252 0.42224 0.0
C182 C 0.74754 0.71841 0.38202 0.0
C183 C 0.77802 0.75683 0.3791 0.0
C184 C 0.80616 0.77961 0.4164 0.0
H185 H 0.595 0.68522 0.47782 0.0
C186 C 0.64179 0.66157 0.49177 0.0
H187 H 0.78049 0.64547 0.5197 0.0
H188 H 0.87623 0.82449 0.57486 0.0
H189 H 0.87369 0.79565 0.64455 0.0
H190 H 0.82501 0.72661 0.6499 0.0
H191 H 0.77767 0.68615 0.58542 0.0
C192 C 0.73304 0.66863 0.50498 0.0
C193 C 0.77039 0.70887 0.5018 0.0
C194 C 0.8007 0.73163 0.53991 0.0
C195 C 0.83091 0.77109 0.5369 0.0
C196 C 0.8559 0.7939 0.5753 0.0
C197 C 0.85399 0.77781 0.61555 0.0
C198 C 0.82642 0.73897 0.61855 0.0
C199 C 0.79956 0.71606 0.58128 0.0
H200 H 0.32368 0.98192 0.03733 0.0
C201 C 0.30179 0.00827 0.01828 0.0
H202 H 0.33934 0.05341 0.9798 0.0
H203 H 0.77121 0.03892 0.05712 0.0
H204 H 0.73871 0.10245 0.08472 0.0
H205 H 0.57776 0.12605 0.0746 0.0
H206 H 0.44812 0.08577 0.03748 0.0
C207 C 0.36057 0.02656 0.99804 0.0
C208 C 0.45772 0.01269 0.00217 0.0
C209 C 0.53296 0.03701 0.02306 0.0
C210 C 0.62603 0.02384 0.02798 0.0
C211 C 0.6994 0.04795 0.05095 0.0
C212 C 0.68172 0.08446 0.06731 0.0
C213 C 0.59108 0.09768 0.06173 0.0
C214 C 0.5173 0.07427 0.04019 0.0
H215 H 0.77906 0.01684 0.97613 0.0
C216 C 0.80041 0.99061 0.99549 0.0
H217 H 0.76156 0.94585 0.03404 0.0
H218 H 0.33037 0.96075 0.95559 0.0
H219 H 0.36289 0.89739 0.92758 0.0
H220 H 0.52381 0.87374 0.93773 0.0
H221 H 0.65344 0.91382 0.97529 0.0
C222 C 0.74095 0.97264 0.01558 0.0
C223 C 0.64384 0.98673 0.01096 0.0
C224 C 0.5686 0.96249 0.98989 0.0
C225 C 0.47553 0.97568 0.98496 0.0
C226 C 0.40217 0.95168 0.96178 0.0
C227 C 0.41986 0.91527 0.94519 0.0
C228 C 0.51049 0.90203 0.95079 0.0
C229 C 0.58426 0.92532 0.97258 0.0
H230 H 0.35476 0.01141 0.54239 0.0
C231 C 0.33489 0.9842 0.52458 0.0
H232 H 0.37577 0.93852 0.48803 0.0
H233 H 0.69749 0.03226 0.43237 0.0
H234 H 0.58143 0.02991 0.36457 0.0
H235 H 0.42341 0.00513 0.36207 0.0
H236 H 0.38039 0.98272 0.42741 0.0
C237 C 0.39671 0.96506 0.50699 0.0
C238 C 0.49223 0.98065 0.50928 0.0
C239 C 0.51698 0.99309 0.47066 0.0
C240 C 0.60857 0.00699 0.47203 0.0
C241 C 0.62993 0.0205 0.43314 0.0
C242 C 0.5637 0.01956 0.39398 0.0
C243 C 0.47472 0.00563 0.39256 0.0
C244 C 0.4511 0.99269 0.43034 0.0
H245 H 0.81307 0.97606 0.47968 0.0
C246 C 0.83329 0.00348 0.497 0.0
H247 H 0.79289 0.04993 0.53273 0.0
H248 H 0.47087 0.95624 0.58893 0.0
H249 H 0.5868 0.95883 0.65674 0.0
H250 H 0.74463 0.98386 0.65926 0.0
H251 H 0.78758 0.00623 0.59389 0.0
C252 C 0.77166 0.0232 0.51417 0.0
C253 C 0.67592 0.00794 0.51199 0.0
C254 C 0.65112 0.99562 0.55062 0.0
C255 C 0.55957 0.98166 0.54925 0.0
C256 C 0.53831 0.96812 0.58815 0.0
C257 C 0.60449 0.96918 0.62733 0.0
C258 C 0.69336 0.98324 0.62875 0.0
C259 C 0.71695 0.99615 0.59095 0.0
H260 H 0.80969 0.47899 0.02328 0.0
C261 C 0.78967 0.5065 0.00618 0.0
H262 H 0.83023 0.5535 0.97095 0.0
H263 H 0.24192 0.48794 0.07626 0.0
H264 H 0.19929 0.51124 0.14133 0.0
H265 H 1.04132 0.53578 0.13855 0.0
H266 H 0.92497 0.53701 0.07077 0.0
C267 C 0.85114 0.52663 0.98923 0.0
C268 C 0.94655 0.51171 0.9915 0.0
C269 C 1.01383 0.51142 0.03146 0.0
C270 C 0.10524 0.49767 0.03298 0.0
C271 C 0.17129 0.49785 0.07325 0.0
C272 C 0.14788 0.51128 0.11086 0.0
C273 C 0.05893 0.52507 0.10929 0.0
C274 C 0.99257 0.52538 0.07016 0.0
H275 H 0.26646 0.51734 0.96264 0.0
C276 C 0.28633 0.4898 0.9797 0.0
H277 H 0.24569 0.44292 0.01505 0.0
H278 H 0.83432 0.50872 0.90971 0.0
H279 H 0.87699 0.48547 0.84463 0.0
H280 H 1.03486 0.46081 0.84743 0.0
H281 H 0.15108 0.45945 0.91523 0.0
C282 C 0.22488 0.46979 0.99677 0.0
C283 C 0.12955 0.48479 0.9945 0.0
C284 C 0.06228 0.4851 0.95455 0.0
C285 C 0.9709 0.49887 0.95302 0.0
C286 C 0.9049 0.49876 0.91273 0.0
C287 C 0.92834 0.48536 0.87512 0.0
C288 C 1.01724 0.47151 0.87669 0.0
C289 C 0.08353 0.47112 0.91585 0.0
H290 H 0.23382 0.49252 0.45493 0.0
C291 C 0.25749 0.51686 0.47699 0.0
H292 H 0.22334 0.55718 0.52137 0.0
H293 H 0.78897 0.54925 0.44872 0.0
H294 H 0.82373 0.61569 0.43014 0.0
H295 H 0.98556 0.63879 0.44117 0.0
H296 H 0.1139 0.59505 0.4702 0.0
C297 C 0.20015 0.53234 0.49993 0.0
C298 C 0.1022 0.5183 0.49501 0.0
C299 C 1.02754 0.54451 0.47906 0.0
C300 C 0.93382 0.53156 0.47387 0.0
C301 C 0.86124 0.55783 0.45535 0.0
C302 C 0.88019 0.59609 0.44406 0.0
C303 C 0.97132 0.60902 0.45015 0.0
C304 C 1.04437 0.5836 0.46705 0.0
H305 H 0.78088 0.51989 0.52422 0.0
C306 C 0.75793 0.495 0.50284 0.0
H307 H 0.79382 0.45332 0.4603 0.0
H308 H 0.22797 0.46148 0.53111 0.0
H309 H 0.19341 0.39503 0.55002 0.0
H310 H 1.03153 0.37227 0.5402 0.0
H311 H 0.90305 0.41611 0.51161 0.0
C312 C 0.81645 0.47865 0.48105 0.0
C313 C 0.91452 0.49268 0.48604 0.0
C314 C 0.98925 0.46648 0.50209 0.0
C315 C 0.08297 0.47937 0.50702 0.0
C316 C 0.15568 0.453 0.52506 0.0
C317 C 0.13684 0.41476 0.53651 0.0
C318 C 0.04569 0.40199 0.53104 0.0
C319 C 0.97255 0.42746 0.51438 0.0
H320 H 0.16367 0.01213 0.3738 0.0
C321 C 0.10782 0.99418 0.38068 0.0
H322 H 0.99268 0.95784 0.35504 0.0
H323 H 0.11916 0.05267 0.18996 0.0
H324 H 0.09607 0.11352 0.22586 0.0
H325 H 0.04759 0.11259 0.29532 0.0
H326 H 1.02625 0.05084 0.33009 0.0
C327 C 0.04876 0.97562 0.34811 0.0
C328 C 0.06053 0.97673 0.3025 0.0
C329 C 0.06391 0.01313 0.28073 0.0
C330 C 0.08259 0.01365 0.23863 0.0
C331 C 0.09745 0.05046 0.22019 0.0
C332 C 0.08554 0.08568 0.24072 0.0
C333 C 0.05891 0.08515 0.27995 0.0
C334 C 0.04801 0.04942 0.29983 0.0
H335 H 0.98036 0.01389 0.14647 0.0
C336 C 1.03572 0.99652 0.13851 0.0
H337 H 0.15214 0.96064 0.16214 0.0
H338 H 0.06057 0.90176 0.33488 0.0
H339 H 0.07016 0.84098 0.29633 0.0
H340 H 0.08437 0.84179 0.2203 0.0
H341 H 0.09075 0.90338 0.18265 0.0
C342 C 0.09641 0.97773 0.17015 0.0
C343 C 0.0868 0.97774 0.21612 0.0
C344 C 0.08036 0.94134 0.23733 0.0
C345 C 0.06899 0.94085 0.28076 0.0
C346 C 0.06668 0.90402 0.30161 0.0
C347 C 0.07244 0.86881 0.2799 0.0
C348 C 0.08063 0.86927 0.23714 0.0
C349 C 0.08451 0.90495 0.21594 0.0
H350 H 0.13664 0.98602 0.87155 0.0
C351 C 0.07689 0.00178 0.87742 0.0
H352 H 0.95547 0.03333 0.84976 0.0
H353 H 0.06289 0.08874 0.67835 0.0
H354 H 1.03161 0.15021 0.71083 0.0
H355 H 1.0026 0.15169 0.78439 0.0
H356 H 1.00289 0.09163 0.82556 0.0
C357 C 1.01578 0.01797 0.84397 0.0
C358 C 1.03072 0.01668 0.79886 0.0
C359 C 1.03295 0.0523 0.77566 0.0
C360 C 0.05282 0.0516 0.73376 0.0
C361 C 0.05076 0.0875 0.7107 0.0
C362 C 1.03256 0.12308 0.7289 0.0
C363 C 1.01605 0.12391 0.77027 0.0
C364 C 1.01624 0.08908 0.79354 0.0
H365 H 0.99176 0.97396 0.64482 0.0
C366 C 0.04606 0.99349 0.63907 0.0
H367 H 0.14932 0.03498 0.66605 0.0
H368 H 1.00637 0.94199 0.82799 0.0
H369 H 0.04957 0.88089 0.79849 0.0
H370 H 0.11343 0.88099 0.7331 0.0
H371 H 0.13002 0.94191 0.69582 0.0
C372 C 0.09529 0.01533 0.67182 0.0
C373 C 0.07402 0.01547 0.71571 0.0
C374 C 0.07363 0.97991 0.73938 0.0
C375 C 0.04619 0.98027 0.77955 0.0
C376 C 1.03442 0.9438 0.79942 0.0
C377 C 0.05785 0.90842 0.78252 0.0
C378 C 0.09314 0.90845 0.74556 0.0
C379 C 0.10121 0.94366 0.72415 0.0
H380 H 0.59145 0.5267 0.3536 0.0
C381 C 0.53826 0.5069 0.35997 0.0
H382 H 0.43635 0.46446 0.3342 0.0
H383 H 0.57338 0.5556 0.16953 0.0
H384 H 0.52783 0.6169 0.19768 0.0
H385 H 0.46474 0.61754 0.26328 0.0
H386 H 0.45117 0.55716 0.30211 0.0
C387 C 0.48918 0.48441 0.32777 0.0
C388 C 0.50973 0.48363 0.28374 0.0
C389 C 0.50849 0.51877 0.25923 0.0
C390 C 0.53566 0.51789 0.21899 0.0
C391 C 0.54566 0.5541 0.19822 0.0
C392 C 0.52088 0.5896 0.21434 0.0
C393 C 0.48601 0.59 0.25141 0.0
C394 C 0.47965 0.55511 0.2737 0.0
H395 H 0.4457 0.50969 0.12702 0.0
C396 C 0.50664 0.49449 0.12168 0.0
H397 H 0.62987 0.46457 0.1504 0.0
H398 H 0.52365 0.411 0.32273 0.0
H399 H 0.55711 0.3492 0.2916 0.0
H400 H 0.58602 0.34669 0.21806 0.0
H401 H 0.5834 0.40609 0.17554 0.0
C402 C 0.56829 0.47933 0.15561 0.0
C403 C 0.55271 0.48126 0.20056 0.0
C404 C 0.55188 0.44603 0.22457 0.0
C405 C 0.53211 0.44731 0.26647 0.0
C406 C 0.53561 0.41179 0.29034 0.0
C407 C 0.55509 0.37602 0.27292 0.0
C408 C 0.57154 0.37462 0.23156 0.0
C409 C 0.56999 0.40906 0.20751 0.0
H410 H 0.43375 0.48723 0.6277 0.0
C411 C 0.49051 0.5045 0.62068 0.0
H412 H 0.60858 0.53925 0.64602 0.0
H413 H 0.51715 0.59541 0.81939 0.0
H414 H 0.53162 0.6568 0.78263 0.0
H415 H 0.54709 0.65728 0.70679 0.0
H416 H 0.54987 0.59638 0.66753 0.0
C417 C 0.55154 0.52226 0.65317 0.0
C418 C 0.54047 0.52145 0.6989 0.0
C419 C 0.53604 0.5575 0.72103 0.0
C420 C 0.52396 0.55728 0.76435 0.0
C421 C 0.52378 0.59372 0.78616 0.0
C422 C 0.53231 0.62928 0.76548 0.0
C423 C 0.54121 0.62954 0.72282 0.0
C424 C 0.54301 0.59423 0.7007 0.0
H425 H 0.61428 0.48358 0.85479 0.0
C426 C 0.55976 0.50165 0.86251 0.0
H427 H 0.44677 0.53927 0.83842 0.0
H428 H 0.56779 0.44672 0.67084 0.0
H429 H 0.53914 0.38547 0.70482 0.0
H430 H 0.48924 0.38559 0.77394 0.0
H431 H 0.47208 0.44688 0.81032 0.0
C432 C 0.50159 0.52136 0.83074 0.0
C433 C 0.51277 0.5211 0.78504 0.0
C434 C 0.5136 0.48509 0.76225 0.0
C435 C 0.53306 0.48518 0.7203 0.0
C436 C 0.54554 0.44859 0.70095 0.0
C437 C 0.53045 0.41313 0.72039 0.0
C438 C 0.50302 0.41318 0.75942 0.0
C439 C 0.49452 0.44862 0.78023 0.0
loop_
_geom_bond_atom_site_label_1
_geom_bond_atom_site_label_2
_geom_bond_distance
_geom_bond_site_symmetry_2
_ccdc_geom_bond_type
Tb0 O3 2.453 . S
Tb0 O4 2.596 1_545 S
Tb0 O5 2.374 1_454 S
Tb0 O13 2.343 1_454 S
Tb0 O15 2.353 . S
Tb0 O17 2.427 1_455 S
Tb0 O18 2.513 1_454 S
C1 O5 1.251 . S
C1 O7 1.263 1_545 S
Tb2 O4 2.343 1_656 S
Tb2 O7 2.353 . S
Tb2 O10 2.427 1_655 S
Tb2 O11 2.513 1_656 S
Tb2 O12 2.453 . S
Tb2 O13 2.596 1_565 S
Tb2 O14 2.374 1_656 S
O3 Tb0 2.453 . S
O3 C19 1.245 . S
O4 Tb0 2.596 1_565 S
O4 Tb2 2.343 1_454 S
O4 C19 1.259 1_565 S
O5 Tb0 2.374 1_656 S
O5 C1 1.251 . S
C6 O10 1.275 1_554 S
C6 O11 1.246 . S
O7 C1 1.263 1_565 S
O7 Tb2 2.353 . S
C8 O12 1.245 . S
C8 O13 1.259 1_565 S
C9 O14 1.250 . S
C9 O15 1.263 1_565 S
O10 Tb2 2.427 1_455 S
O10 C6 1.275 1_556 S
O11 Tb2 2.513 1_454 S
O11 C6 1.246 . S
O12 Tb2 2.453 . S
O12 C8 1.245 . S
O13 Tb0 2.343 1_656 S
O13 Tb2 2.596 1_545 S
O13 C8 1.259 1_545 S
O14 Tb2 2.374 1_454 S
O14 C9 1.250 . S
O15 Tb0 2.353 . S
O15 C9 1.263 1_545 S
C16 O17 1.275 1_556 S
C16 O18 1.246 . S
O17 Tb0 2.427 1_655 S
O17 C16 1.275 1_554 S
O18 Tb0 2.513 1_656 S
O18 C16 1.246 . S
C19 O3 1.245 . S
C19 O4 1.259 1_545 S
Tb20 O23 2.453 . S
Tb20 O24 2.596 1_545 S
Tb20 O25 2.374 1_655 S
Tb20 O33 2.343 1_655 S
Tb20 O35 2.353 . S
Tb20 O37 2.427 1_655 S
Tb20 O38 2.513 1_655 S
C21 O25 1.251 . S
C21 O27 1.263 1_545 S
Tb22 O24 2.343 1_455 S
Tb22 O27 2.353 . S
Tb22 O30 2.427 1_455 S
Tb22 O31 2.513 1_455 S
Tb22 O32 2.453 . S
Tb22 O33 2.596 1_565 S
Tb22 O34 2.374 1_455 S
O23 Tb20 2.453 . S
O23 C39 1.245 . S
O24 Tb20 2.596 1_565 S
O24 Tb22 2.343 1_655 S
O24 C39 1.259 1_565 S
O25 Tb20 2.374 1_455 S
O25 C21 1.251 . S
C26 O30 1.275 . S
C26 O31 1.246 . S
O27 C21 1.263 1_565 S
O27 Tb22 2.353 . S
C28 O32 1.245 . S
C28 O33 1.259 1_565 S
C29 O34 1.250 . S
C29 O35 1.263 1_565 S
O30 Tb22 2.427 1_655 S
O30 C26 1.275 . S
O31 Tb22 2.513 1_655 S
O31 C26 1.246 . S
O32 Tb22 2.453 . S
O32 C28 1.245 . S
O33 Tb20 2.343 1_455 S
O33 Tb22 2.596 1_545 S
O33 C28 1.259 1_545 S
O34 Tb22 2.374 1_655 S
O34 C29 1.250 . S
O35 Tb20 2.353 . S
O35 C29 1.263 1_545 S
C36 O37 1.275 . S
C36 O38 1.246 . S
O37 Tb20 2.427 1_455 S
O37 C36 1.275 . S
O38 Tb20 2.513 1_455 S
O38 C36 1.246 . S
C39 O23 1.245 . S
C39 O24 1.259 1_545 S
Tb40 O43 2.453 . S
Tb40 O44 2.596 . S
Tb40 O45 2.374 1_554 S
Tb40 O53 2.343 1_554 S
Tb40 O55 2.353 . S
Tb40 O57 2.427 . S
Tb40 O58 2.513 1_554 S
C41 O45 1.251 . S
C41 O47 1.263 . S
Tb42 O44 2.343 1_556 S
Tb42 O47 2.353 . S
Tb42 O50 2.427 . S
Tb42 O51 2.513 1_556 S
Tb42 O52 2.453 . S
Tb42 O53 2.596 . S
Tb42 O54 2.374 1_556 S
O43 Tb40 2.453 . S
O43 C59 1.245 . S
O44 Tb40 2.596 . S
O44 Tb42 2.343 1_554 S
O44 C59 1.259 . S
O45 Tb40 2.374 1_556 S
O45 C41 1.251 . S
C46 O50 1.275 1_554 S
C46 O51 1.246 . S
O47 C41 1.263 . S
O47 Tb42 2.353 . S
C48 O52 1.245 . S
C48 O53 1.259 . S
C49 O54 1.250 . S
C49 O55 1.263 . S
O50 Tb42 2.427 . S
O50 C46 1.275 1_556 S
O51 Tb42 2.513 1_554 S
O51 C46 1.246 . S
O52 Tb42 2.453 . S
O52 C48 1.245 . S
O53 Tb40 2.343 1_556 S
O53 Tb42 2.596 . S
O53 C48 1.259 . S
O54 Tb42 2.374 1_554 S
O54 C49 1.250 . S
O55 Tb40 2.353 . S
O55 C49 1.263 . S
C56 O57 1.275 1_556 S
C56 O58 1.246 . S
O57 Tb40 2.427 . S
O57 C56 1.275 1_554 S
O58 Tb40 2.513 1_556 S
O58 C56 1.246 . S
C59 O43 1.245 . S
C59 O44 1.259 . S
Tb60 O63 2.453 . S
Tb60 O64 2.596 . S
Tb60 O65 2.374 . S
Tb60 O73 2.343 . S
Tb60 O75 2.353 . S
Tb60 O77 2.427 . S
Tb60 O78 2.513 . S
C61 O65 1.251 . S
C61 O67 1.263 . S
Tb62 O64 2.343 . S
Tb62 O67 2.353 . S
Tb62 O70 2.427 . S
Tb62 O71 2.513 . S
Tb62 O72 2.453 . S
Tb62 O73 2.596 . S
Tb62 O74 2.374 . S
O63 Tb60 2.453 . S
O63 C79 1.245 . S
O64 Tb60 2.596 . S
O64 Tb62 2.343 . S
O64 C79 1.259 . S
O65 Tb60 2.374 . S
O65 C61 1.251 . S
C66 O70 1.275 . S
C66 O71 1.246 . S
O67 C61 1.263 . S
O67 Tb62 2.353 . S
C68 O72 1.245 . S
C68 O73 1.259 . S
C69 O74 1.250 . S
C69 O75 1.263 . S
O70 Tb62 2.427 . S
O70 C66 1.275 . S
O71 Tb62 2.513 . S
O71 C66 1.246 . S
O72 Tb62 2.453 . S
O72 C68 1.245 . S
O73 Tb60 2.343 . S
O73 Tb62 2.596 . S
O73 C68 1.259 . S
O74 Tb62 2.374 . S
O74 C69 1.250 . S
O75 Tb60 2.353 . S
O75 C69 1.263 . S
C76 O77 1.275 . S
C76 O78 1.246 . S
O77 Tb60 2.427 . S
O77 C76 1.275 . S
O78 Tb60 2.513 . S
O78 C76 1.246 . S
C79 O63 1.245 . S
C79 O64 1.259 . S
H80 C81 0.951 . S
C81 H80 0.951 . S
C81 C87 1.267 . S
H82 C87 0.942 1_554 S
H83 C91 0.949 . S
H84 C92 0.950 . S
H85 C93 0.951 . S
H86 C94 0.951 . S
C87 C81 1.267 . S
C87 H82 0.942 1_556 S
C87 C88 1.478 . S
C88 C87 1.478 . S
C88 C89 1.390 1_556 S
C88 C105 1.400 . S
C89 C88 1.390 1_554 S
C89 C90 1.438 . S
C89 C94 1.429 . S
C90 C89 1.438 . S
C90 C91 1.428 . S
C90 C103 1.405 . S
C91 H83 0.949 . S
C91 C90 1.428 . S
C91 C92 1.345 . S
C92 H84 0.950 . S
C92 C91 1.345 . S
C92 C93 1.424 . S
C93 H85 0.951 . S
C93 C92 1.424 . S
C93 C94 1.347 . S
C94 H86 0.951 . S
C94 C89 1.429 . S
C94 C93 1.347 . S
H95 C96 0.951 . S
C96 H95 0.951 . S
C96 C102 1.269 . S
H97 C102 0.942 1_556 S
H98 C106 0.949 . S
H99 C107 0.950 . S
H100 C108 0.951 . S
H101 C109 0.951 . S
C102 C96 1.269 . S
C102 H97 0.942 1_554 S
C102 C103 1.478 . S
C103 C90 1.405 . S
C103 C102 1.478 . S
C103 C104 1.385 1_554 S
C104 C103 1.385 1_556 S
C104 C105 1.438 . S
C104 C109 1.429 . S
C105 C88 1.400 . S
C105 C104 1.438 . S
C105 C106 1.428 . S
C106 H98 0.949 . S
C106 C105 1.428 . S
C106 C107 1.345 . S
C107 H99 0.950 . S
C107 C106 1.345 . S
C107 C108 1.424 . S
C108 H100 0.951 . S
C108 C107 1.424 . S
C108 C109 1.347 . S
C109 H101 0.951 . S
C109 C104 1.429 . S
C109 C108 1.347 . S
H110 C111 0.949 1_556 S
C111 H110 0.949 1_554 S
C111 C117 1.265 . S
H112 C117 0.950 . S
H113 C121 0.949 . S
H114 C122 0.950 . S
H115 C123 0.951 . S
H116 C124 0.951 . S
C117 C111 1.265 . S
C117 H112 0.950 . S
C117 C118 1.478 . S
C118 C117 1.478 . S
C118 C119 1.397 . S
C118 C135 1.394 1_554 S
C119 C118 1.397 . S
C119 C120 1.438 . S
C119 C124 1.429 . S
C120 C119 1.438 . S
C120 C121 1.428 . S
C120 C133 1.394 1_554 S
C121 H113 0.949 . S
C121 C120 1.428 . S
C121 C122 1.345 . S
C122 H114 0.950 . S
C122 C121 1.345 . S
C122 C123 1.424 . S
C123 H115 0.951 . S
C123 C122 1.424 . S
C123 C124 1.347 . S
C124 H116 0.951 . S
C124 C119 1.429 . S
C124 C123 1.347 . S
H125 C126 0.949 1_554 S
C126 H125 0.949 1_556 S
C126 C132 1.265 . S
H127 C132 0.950 . S
H128 C136 0.949 . S
H129 C137 0.950 . S
H130 C138 0.951 . S
H131 C139 0.951 . S
C132 C126 1.265 . S
C132 H127 0.950 . S
C132 C133 1.478 . S
C133 C120 1.394 1_556 S
C133 C132 1.478 . S
C133 C134 1.397 . S
C134 C133 1.397 . S
C134 C135 1.438 . S
C134 C139 1.429 . S
C135 C118 1.394 1_556 S
C135 C134 1.438 . S
C135 C136 1.428 . S
C136 H128 0.949 . S
C136 C135 1.428 . S
C136 C137 1.345 . S
C137 H129 0.950 . S
C137 C136 1.345 . S
C137 C138 1.424 . S
C138 H130 0.951 . S
C138 C137 1.424 . S
C138 C139 1.347 . S
C139 H131 0.951 . S
C139 C134 1.429 . S
C139 C138 1.347 . S
H140 C141 0.951 . S
C141 H140 0.951 . S
C141 C147 1.265 . S
H142 C147 0.950 . S
H143 C151 0.949 . S
H144 C152 0.950 . S
H145 C153 0.951 . S
H146 C154 0.951 . S
C147 C141 1.265 . S
C147 H142 0.950 . S
C147 C148 1.478 . S
C148 C147 1.478 . S
C148 C149 1.397 . S
C148 C165 1.394 . S
C149 C148 1.397 . S
C149 C150 1.438 . S
C149 C154 1.429 . S
C150 C149 1.438 . S
C150 C151 1.428 . S
C150 C163 1.394 . S
C151 H143 0.949 . S
C151 C150 1.428 . S
C151 C152 1.345 . S
C152 H144 0.950 . S
C152 C151 1.345 . S
C152 C153 1.424 . S
C153 H145 0.951 . S
C153 C152 1.424 . S
C153 C154 1.347 . S
C154 H146 0.951 . S
C154 C149 1.429 . S
C154 C153 1.347 . S
H155 C156 0.951 . S
C156 H155 0.951 . S
C156 C162 1.265 . S
H157 C162 0.950 . S
H158 C166 0.949 . S
H159 C167 0.950 . S
H160 C168 0.951 . S
H161 C169 0.951 . S
C162 C156 1.265 . S
C162 H157 0.950 . S
C162 C163 1.478 . S
C163 C150 1.394 . S
C163 C162 1.478 . S
C163 C164 1.397 . S
C164 C163 1.397 . S
C164 C165 1.438 . S
C164 C169 1.429 . S
C165 C148 1.394 . S
C165 C164 1.438 . S
C165 C166 1.428 . S
C166 H158 0.949 . S
C166 C165 1.428 . S
C166 C167 1.345 . S
C167 H159 0.950 . S
C167 C166 1.345 . S
C167 C168 1.424 . S
C168 H160 0.951 . S
C168 C167 1.424 . S
C168 C169 1.347 . S
C169 H161 0.951 . S
C169 C164 1.429 . S
C169 C168 1.347 . S
H170 C171 0.951 . S
C171 H170 0.951 . S
C171 C177 1.265 . S
H172 C177 0.950 . S
H173 C181 0.949 . S
H174 C182 0.950 . S
H175 C183 0.951 . S
H176 C184 0.951 . S
C177 C171 1.265 . S
C177 H172 0.950 . S
C177 C178 1.478 . S
C178 C177 1.478 . S
C178 C179 1.397 . S
C178 C195 1.394 . S
C179 C178 1.397 . S
C179 C180 1.438 . S
C179 C184 1.429 . S
C180 C179 1.438 . S
C180 C181 1.428 . S
C180 C193 1.394 . S
C181 H173 0.949 . S
C181 C180 1.428 . S
C181 C182 1.345 . S
C182 H174 0.950 . S
C182 C181 1.345 . S
C182 C183 1.424 . S
C183 H175 0.951 . S
C183 C182 1.424 . S
C183 C184 1.347 . S
C184 H176 0.951 . S
C184 C179 1.429 . S
C184 C183 1.347 . S
H185 C186 0.951 . S
C186 H185 0.951 . S
C186 C192 1.265 . S
H187 C192 0.950 . S
H188 C196 0.949 . S
H189 C197 0.950 . S
H190 C198 0.951 . S
H191 C199 0.951 . S
C192 C186 1.265 . S
C192 H187 0.950 . S
C192 C193 1.478 . S
C193 C180 1.394 . S
C193 C192 1.478 . S
C193 C194 1.397 . S
C194 C193 1.397 . S
C194 C195 1.438 . S
C194 C199 1.429 . S
C195 C178 1.394 . S
C195 C194 1.438 . S
C195 C196 1.428 . S
C196 H188 0.949 . S
C196 C195 1.428 . S
C196 C197 1.345 . S
C197 H189 0.950 . S
C197 C196 1.345 . S
C197 C198 1.424 . S
C198 H190 0.951 . S
C198 C197 1.424 . S
C198 C199 1.347 . S
C199 H191 0.951 . S
C199 C194 1.429 . S
C199 C198 1.347 . S
H200 C201 0.951 . S
C201 H200 0.951 . S
C201 C207 1.265 1_564 S
H202 C207 0.950 . S
H203 C211 0.949 . S
H204 C212 0.950 . S
H205 C213 0.951 . S
H206 C214 0.951 . S
C207 C201 1.265 1_546 S
C207 H202 0.950 . S
C207 C208 1.478 . S
C208 C207 1.478 . S
C208 C209 1.397 1_556 S
C208 C225 1.394 1_545 S
C209 C208 1.397 1_554 S
C209 C210 1.438 . S
C209 C214 1.429 . S
C210 C209 1.438 . S
C210 C211 1.428 . S
C210 C223 1.394 1_545 S
C211 H203 0.949 . S
C211 C210 1.428 . S
C211 C212 1.345 . S
C212 H204 0.950 . S
C212 C211 1.345 . S
C212 C213 1.424 . S
C213 H205 0.951 . S
C213 C212 1.424 . S
C213 C214 1.347 . S
C214 H206 0.951 . S
C214 C209 1.429 . S
C214 C213 1.347 . S
H215 C216 0.951 . S
C216 H215 0.951 . S
C216 C222 1.265 1_546 S
H217 C222 0.950 . S
H218 C226 0.949 . S
H219 C227 0.950 . S
H220 C228 0.951 . S
H221 C229 0.951 . S
C222 C216 1.265 1_564 S
C222 H217 0.950 . S
C222 C223 1.478 . S
C223 C210 1.394 1_565 S
C223 C222 1.478 . S
C223 C224 1.397 1_554 S
C224 C223 1.397 1_556 S
C224 C225 1.438 . S
C224 C229 1.429 . S
C225 C208 1.394 1_565 S
C225 C224 1.438 . S
C225 C226 1.428 . S
C226 H218 0.949 . S
C226 C225 1.428 . S
C226 C227 1.345 . S
C227 H219 0.950 . S
C227 C226 1.345 . S
C227 C228 1.424 . S
C228 H220 0.951 . S
C228 C227 1.424 . S
C228 C229 1.347 . S
C229 H221 0.951 . S
C229 C224 1.429 . S
C229 C228 1.347 . S
H230 C231 0.950 . S
C231 H230 0.950 . S
C231 C237 1.265 . S
H232 C237 0.950 . S
H233 C241 0.949 . S
H234 C242 0.950 . S
H235 C243 0.951 . S
H236 C244 0.951 . S
C237 C231 1.265 . S
C237 H232 0.950 . S
C237 C238 1.478 . S
C238 C237 1.478 . S
C238 C239 1.397 1_545 S
C238 C255 1.394 . S
C239 C238 1.397 1_565 S
C239 C240 1.438 . S
C239 C244 1.429 . S
C240 C239 1.438 . S
C240 C241 1.428 . S
C240 C253 1.394 . S
C241 H233 0.949 . S
C241 C240 1.428 . S
C241 C242 1.345 . S
C242 H234 0.950 . S
C242 C241 1.345 . S
C242 C243 1.424 . S
C243 H235 0.951 . S
C243 C242 1.424 . S
C243 C244 1.347 . S
C244 H236 0.951 . S
C244 C239 1.429 . S
C244 C243 1.347 . S
H245 C246 0.950 1_545 S
C246 H245 0.950 1_565 S
C246 C252 1.265 . S
H247 C252 0.950 . S
H248 C256 0.949 . S
H249 C257 0.950 . S
H250 C258 0.951 . S
H251 C259 0.951 . S
C252 C246 1.265 . S
C252 H247 0.950 . S
C252 C253 1.478 . S
C253 C240 1.394 . S
C253 C252 1.478 . S
C253 C254 1.397 1_565 S
C254 C253 1.397 1_545 S
C254 C255 1.438 . S
C254 C259 1.429 . S
C255 C238 1.394 . S
C255 C254 1.438 . S
C255 C256 1.428 . S
C256 H248 0.949 . S
C256 C255 1.428 . S
C256 C257 1.345 . S
C257 H249 0.950 . S
C257 C256 1.345 . S
C257 C258 1.424 . S
C258 H250 0.951 . S
C258 C257 1.424 . S
C258 C259 1.347 . S
C259 H251 0.951 . S
C259 C254 1.429 . S
C259 C258 1.347 . S
H260 C261 0.951 . S
C261 H260 0.951 . S
C261 C267 1.265 1_556 S
H262 C267 0.950 . S
H263 C271 0.949 . S
H264 C272 0.950 . S
H265 C273 0.951 . S
H266 C274 0.951 . S
C267 C261 1.265 1_554 S
C267 H262 0.950 . S
C267 C268 1.478 . S
C268 C267 1.478 . S
C268 C269 1.397 . S
C268 C285 1.394 1_554 S
C269 C268 1.397 . S
C269 C270 1.438 1_655 S
C269 C274 1.429 . S
C270 C269 1.438 1_455 S
C270 C271 1.428 . S
C270 C283 1.394 1_554 S
C271 H263 0.949 . S
C271 C270 1.428 . S
C271 C272 1.345 . S
C272 H264 0.950 . S
C272 C271 1.345 . S
C272 C273 1.424 . S
C273 H265 0.951 . S
C273 C272 1.424 . S
C273 C274 1.347 1_455 S
C274 H266 0.951 . S
C274 C269 1.429 . S
C274 C273 1.347 1_655 S
H275 C276 0.951 . S
C276 H275 0.951 . S
C276 C282 1.265 1_554 S
H277 C282 0.950 . S
H278 C286 0.949 . S
H279 C287 0.950 . S
H280 C288 0.951 . S
H281 C289 0.951 . S
C282 C276 1.265 1_556 S
C282 H277 0.950 . S
C282 C283 1.478 . S
C283 C270 1.394 1_556 S
C283 C282 1.478 . S
C283 C284 1.397 . S
C284 C283 1.397 . S
C284 C285 1.438 1_455 S
C284 C289 1.429 . S
C285 C268 1.394 1_556 S
C285 C284 1.438 1_655 S
C285 C286 1.428 . S
C286 H278 0.949 . S
C286 C285 1.428 . S
C286 C287 1.345 . S
C287 H279 0.950 . S
C287 C286 1.345 . S
C287 C288 1.424 . S
C288 H280 0.951 . S
C288 C287 1.424 . S
C288 C289 1.347 1_655 S
C289 H281 0.951 . S
C289 C284 1.429 . S
C289 C288 1.347 1_455 S
H290 C291 0.951 . S
C291 H290 0.951 . S
C291 C297 1.265 . S
H292 C297 0.950 . S
H293 C301 0.949 . S
H294 C302 0.950 . S
H295 C303 0.951 . S
H296 C304 0.951 . S
C297 C291 1.265 . S
C297 H292 0.950 . S
C297 C298 1.478 . S
C298 C297 1.478 . S
C298 C299 1.397 . S
C298 C315 1.394 . S
C299 C298 1.397 . S
C299 C300 1.438 1_455 S
C299 C304 1.429 . S
C300 C299 1.438 1_655 S
C300 C301 1.428 . S
C300 C313 1.394 . S
C301 H293 0.949 . S
C301 C300 1.428 . S
C301 C302 1.345 . S
C302 H294 0.950 . S
C302 C301 1.345 . S
C302 C303 1.424 1_655 S
C303 H295 0.951 . S
C303 C302 1.424 1_455 S
C303 C304 1.347 . S
C304 H296 0.951 . S
C304 C299 1.429 . S
C304 C303 1.347 . S
H305 C306 0.951 . S
C306 H305 0.951 . S
C306 C312 1.265 . S
H307 C312 0.950 . S
H308 C316 0.949 . S
H309 C317 0.950 . S
H310 C318 0.951 . S
H311 C319 0.951 . S
C312 C306 1.265 . S
C312 H307 0.950 . S
C312 C313 1.478 . S
C313 C300 1.394 . S
C313 C312 1.478 . S
C313 C314 1.397 . S
C314 C313 1.397 . S
C314 C315 1.438 1_655 S
C314 C319 1.429 . S
C315 C298 1.394 . S
C315 C314 1.438 1_455 S
C315 C316 1.428 . S
C316 H308 0.949 . S
C316 C315 1.428 . S
C316 C317 1.345 . S
C317 H309 0.950 . S
C317 C316 1.345 . S
C317 C318 1.424 1_455 S
C318 H310 0.951 . S
C318 C317 1.424 1_655 S
C318 C319 1.347 . S
C319 H311 0.951 . S
C319 C314 1.429 . S
C319 C318 1.347 . S
H320 C321 0.951 . S
C321 H320 0.951 . S
C321 C327 1.265 1_465 S
H322 C327 0.950 . S
H323 C331 0.949 . S
H324 C332 0.950 . S
H325 C333 0.951 . S
H326 C334 0.951 . S
C327 C321 1.265 1_645 S
C327 H322 0.950 . S
C327 C328 1.478 1_545 S
C328 C327 1.478 1_565 S
C328 C329 1.391 1_565 S
C328 C345 1.400 1_655 S
C329 C328 1.391 1_545 S
C329 C330 1.438 . S
C329 C334 1.429 . S
C330 C329 1.438 . S
C330 C331 1.428 . S
C330 C343 1.394 1_645 S
C331 H323 0.949 . S
C331 C330 1.428 . S
C331 C332 1.345 . S
C332 H324 0.950 . S
C332 C331 1.345 . S
C332 C333 1.424 . S
C333 H325 0.951 . S
C333 C332 1.424 . S
C333 C334 1.347 . S
C334 H326 0.951 . S
C334 C329 1.429 . S
C334 C333 1.347 . S
H335 C336 0.951 1_545 S
C336 H335 0.951 1_565 S
C336 C342 1.265 1_655 S
H337 C342 0.950 . S
H338 C346 0.949 . S
H339 C347 0.950 . S
H340 C348 0.951 . S
H341 C349 0.951 . S
C342 C336 1.265 1_455 S
C342 H337 0.950 . S
C342 C343 1.478 . S
C343 C330 1.394 1_465 S
C343 C342 1.478 . S
C343 C344 1.397 . S
C344 C343 1.397 . S
C344 C345 1.438 . S
C344 C349 1.429 . S
C345 C328 1.400 1_455 S
C345 C344 1.438 . S
C345 C346 1.428 . S
C346 H338 0.949 . S
C346 C345 1.428 . S
C346 C347 1.345 . S
C347 H339 0.950 . S
C347 C346 1.345 . S
C347 C348 1.424 . S
C348 H340 0.951 . S
C348 C347 1.424 . S
C348 C349 1.347 . S
C349 H341 0.951 . S
C349 C344 1.429 . S
C349 C348 1.347 . S
H350 C351 0.949 1_565 S
C351 H350 0.949 1_545 S
C351 C357 1.265 1_455 S
H352 C357 0.950 . S
H353 C361 0.949 . S
H354 C362 0.950 . S
H355 C363 0.951 . S
H356 C364 0.951 . S
C357 C351 1.265 1_655 S
C357 H352 0.950 . S
C357 C358 1.478 . S
C358 C357 1.478 . S
C358 C359 1.397 . S
C358 C375 1.394 1_645 S
C359 C358 1.397 . S
C359 C360 1.438 . S
C359 C364 1.429 . S
C360 C359 1.438 . S
C360 C361 1.428 . S
C360 C373 1.412 1_655 S
C361 H353 0.949 . S
C361 C360 1.428 . S
C361 C362 1.345 . S
C362 H354 0.950 . S
C362 C361 1.345 . S
C362 C363 1.424 . S
C363 H355 0.951 . S
C363 C362 1.424 . S
C363 C364 1.347 . S
C364 H356 0.951 . S
C364 C359 1.429 . S
C364 C363 1.347 . S
H365 C366 0.951 . S
C366 H365 0.951 . S
C366 C372 1.263 1_645 S
H367 C372 0.953 . S
H368 C376 0.949 . S
H369 C377 0.950 . S
H370 C378 0.951 . S
H371 C379 0.951 . S
C372 C366 1.263 1_465 S
C372 H367 0.953 . S
C372 C373 1.477 1_565 S
C373 C360 1.412 1_455 S
C373 C372 1.477 1_545 S
C373 C374 1.380 1_545 S
C374 C373 1.380 1_565 S
C374 C375 1.438 . S
C374 C379 1.429 . S
C375 C358 1.394 1_465 S
C375 C374 1.438 . S
C375 C376 1.428 . S
C376 H368 0.949 . S
C376 C375 1.428 . S
C376 C377 1.345 . S
C377 H369 0.950 . S
C377 C376 1.345 . S
C377 C378 1.424 . S
C378 H370 0.951 . S
C378 C377 1.424 . S
C378 C379 1.347 . S
C379 H371 0.951 . S
C379 C374 1.429 . S
C379 C378 1.347 . S
H380 C381 0.951 . S
C381 H380 0.951 . S
C381 C387 1.265 . S
H382 C387 0.950 . S
H383 C391 0.949 . S
H384 C392 0.950 . S
H385 C393 0.951 . S
H386 C394 0.951 . S
C387 C381 1.265 . S
C387 H382 0.950 . S
C387 C388 1.478 . S
C388 C387 1.478 . S
C388 C389 1.397 . S
C388 C405 1.394 . S
C389 C388 1.397 . S
C389 C390 1.438 . S
C389 C394 1.429 . S
C390 C389 1.438 . S
C390 C391 1.428 . S
C390 C403 1.394 . S
C391 H383 0.949 . S
C391 C390 1.428 . S
C391 C392 1.345 . S
C392 H384 0.950 . S
C392 C391 1.345 . S
C392 C393 1.424 . S
C393 H385 0.951 . S
C393 C392 1.424 . S
C393 C394 1.347 . S
C394 H386 0.951 . S
C394 C389 1.429 . S
C394 C393 1.347 . S
H395 C396 0.951 . S
C396 H395 0.951 . S
C396 C402 1.265 . S
H397 C402 0.950 . S
H398 C406 0.949 . S
H399 C407 0.950 . S
H400 C408 0.951 . S
H401 C409 0.951 . S
C402 C396 1.265 . S
C402 H397 0.950 . S
C402 C403 1.478 . S
C403 C390 1.394 . S
C403 C402 1.478 . S
C403 C404 1.397 . S
C404 C403 1.397 . S
C404 C405 1.438 . S
C404 C409 1.429 . S
C405 C388 1.394 . S
C405 C404 1.438 . S
C405 C406 1.428 . S
C406 H398 0.949 . S
C406 C405 1.428 . S
C406 C407 1.345 . S
C407 H399 0.950 . S
C407 C406 1.345 . S
C407 C408 1.424 . S
C408 H400 0.951 . S
C408 C407 1.424 . S
C408 C409 1.347 . S
C409 H401 0.951 . S
C409 C404 1.429 . S
C409 C408 1.347 . S
H410 C411 0.951 . S
C411 H410 0.951 . S
C411 C417 1.265 . S
H412 C417 0.950 . S
H413 C421 0.949 . S
H414 C422 0.950 . S
H415 C423 0.951 . S
H416 C424 0.951 . S
C417 C411 1.265 . S
C417 H412 0.950 . S
C417 C418 1.478 . S
C418 C417 1.478 . S
C418 C419 1.397 . S
C418 C435 1.394 . S
C419 C418 1.397 . S
C419 C420 1.438 . S
C419 C424 1.429 . S
C420 C419 1.438 . S
C420 C421 1.428 . S
C420 C433 1.394 . S
C421 H413 0.949 . S
C421 C420 1.428 . S
C421 C422 1.345 . S
C422 H414 0.950 . S
C422 C421 1.345 . S
C422 C423 1.424 . S
C423 H415 0.951 . S
C423 C422 1.424 . S
C423 C424 1.347 . S
C424 H416 0.951 . S
C424 C419 1.429 . S
C424 C423 1.347 . S
H425 C426 0.951 . S
C426 H425 0.951 . S
C426 C432 1.265 . S
H427 C432 0.950 . S
H428 C436 0.949 . S
H429 C437 0.950 . S
H430 C438 0.951 . S
H431 C439 0.951 . S
C432 C426 1.265 . S
C432 H427 0.950 . S
C432 C433 1.478 . S
C433 C420 1.394 . S
C433 C432 1.478 . S
C433 C434 1.397 . S
C434 C433 1.397 . S
C434 C435 1.438 . S
C434 C439 1.429 . S
C435 C418 1.394 . S
C435 C434 1.438 . S
C435 C436 1.428 . S
C436 H428 0.949 . S
C436 C435 1.428 . S
C436 C437 1.345 . S
C437 H429 0.950 . S
C437 C436 1.345 . S
C437 C438 1.424 . S
C438 H430 0.951 . S
C438 C437 1.424 . S
C438 C439 1.347 . S
C439 H431 0.951 . S
C439 C434 1.429 . S
C439 C438 1.347 . S
C81 C56 1.428 . S
C96 C6 1.428 . S
C111 C46 1.434 . S
C126 C16 1.433 . S
C141 C36 1.518 . S
C156 C66 1.516 . S
C171 C26 1.430 . S
C186 C76 1.432 . S
C201 C19 1.803 1_565 S
C216 C8 1.803 1_545 S
C231 C28 1.786 1_545 S
C246 C39 1.786 1_565 S
C261 C59 1.807 1_556 S
C276 C48 1.807 1_554 S
C291 C79 1.771 . S
C306 C68 1.771 . S
C321 C29 1.500 1_455 S
C336 C9 1.498 1_655 S
C351 C1 1.500 1_455 S
C366 C21 1.502 1_655 S
C381 C69 1.499 . S
C396 C49 1.498 . S
C411 C61 1.500 . S
C426 C41 1.503 . S
