# Generated by pormake.
# Topology utm, (3)-cn, num edge types: 1
# Building blocks:
#     Node 0, Type 0, BuildingBlock: OLANEW_clean_sbu_2, # of connection points: 3
#     Node 1, Type 0, BuildingBlock: OLANEW_clean_sbu_2, # of connection points: 3
#     Node 2, Type 0, BuildingBlock: OLANEW_clean_sbu_2, # of connection points: 3
#     Node 3, Type 0, BuildingBlock: OLANEW_clean_sbu_2, # of connection points: 3
#     Node 4, Type 0, BuildingBlock: OLANEW_clean_sbu_2, # of connection points: 3
#     Node 5, Type 0, BuildingBlock: OLANEW_clean_sbu_2, # of connection points: 3
#     Node 6, Type 0, BuildingBlock: OLANEW_clean_sbu_2, # of connection points: 3
#     Node 7, Type 0, BuildingBlock: OLANEW_clean_sbu_2, # of connection points: 3
#     Node 8, Type 0, BuildingBlock: OLANEW_clean_sbu_2, # of connection points: 3
#     Node 9, Type 0, BuildingBlock: OLANEW_clean_sbu_2, # of connection points: 3
#     Node 10, Type 0, BuildingBlock: OLANEW_clean_sbu_2, # of connection points: 3
#     Node 11, Type 0, BuildingBlock: OLANEW_clean_sbu_2, # of connection points: 3
#     Node 12, Type 0, BuildingBlock: OLANEW_clean_sbu_2, # of connection points: 3
#     Node 13, Type 0, BuildingBlock: OLANEW_clean_sbu_2, # of connection points: 3
#     Node 14, Type 0, BuildingBlock: OLANEW_clean_sbu_2, # of connection points: 3
#     Node 15, Type 0, BuildingBlock: OLANEW_clean_sbu_2, # of connection points: 3
#     Node 16, Type 0, BuildingBlock: OLANEW_clean_sbu_2, # of connection points: 3
#     Node 17, Type 0, BuildingBlock: OLANEW_clean_sbu_2, # of connection points: 3
#     Node 18, Type 0, BuildingBlock: OLANEW_clean_sbu_2, # of connection points: 3
#     Node 19, Type 0, BuildingBlock: OLANEW_clean_sbu_2, # of connection points: 3
#     Node 20, Type 0, BuildingBlock: OLANEW_clean_sbu_2, # of connection points: 3
#     Node 21, Type 0, BuildingBlock: OLANEW_clean_sbu_2, # of connection points: 3
#     Node 22, Type 0, BuildingBlock: OLANEW_clean_sbu_2, # of connection points: 3
#     Node 23, Type 0, BuildingBlock: OLANEW_clean_sbu_2, # of connection points: 3
#     Node 24, Type 0, BuildingBlock: OLANEW_clean_sbu_2, # of connection points: 3
#     Node 25, Type 0, BuildingBlock: OLANEW_clean_sbu_2, # of connection points: 3
#     Node 26, Type 0, BuildingBlock: OLANEW_clean_sbu_2, # of connection points: 3
#     Node 27, Type 0, BuildingBlock: OLANEW_clean_sbu_2, # of connection points: 3
#     Node 28, Type 0, BuildingBlock: OLANEW_clean_sbu_2, # of connection points: 3
#     Node 29, Type 0, BuildingBlock: OLANEW_clean_sbu_2, # of connection points: 3
#     Node 30, Type 0, BuildingBlock: OLANEW_clean_sbu_2, # of connection points: 3
#     Node 31, Type 0, BuildingBlock: OLANEW_clean_sbu_2, # of connection points: 3
#     Edge 32, Type (0, 0), BuildingBlock: OJICUG_clean_linker_0, # of connection points: 2
#     Edge 33, Type (0, 0), BuildingBlock: OJICUG_clean_linker_0, # of connection points: 2
#     Edge 34, Type (0, 0), BuildingBlock: OJICUG_clean_linker_0, # of connection points: 2
#     Edge 35, Type (0, 0), BuildingBlock: OJICUG_clean_linker_0, # of connection points: 2
#     Edge 36, Type (0, 0), BuildingBlock: OJICUG_clean_linker_0, # of connection points: 2
#     Edge 37, Type (0, 0), BuildingBlock: OJICUG_clean_linker_0, # of connection points: 2
#     Edge 38, Type (0, 0), BuildingBlock: OJICUG_clean_linker_0, # of connection points: 2
#     Edge 39, Type (0, 0), BuildingBlock: OJICUG_clean_linker_0, # of connection points: 2
#     Edge 40, Type (0, 0), BuildingBlock: OJICUG_clean_linker_0, # of connection points: 2
#     Edge 41, Type (0, 0), BuildingBlock: OJICUG_clean_linker_0, # of connection points: 2
#     Edge 42, Type (0, 0), BuildingBlock: OJICUG_clean_linker_0, # of connection points: 2
#     Edge 43, Type (0, 0), BuildingBlock: OJICUG_clean_linker_0, # of connection points: 2
#     Edge 44, Type (0, 0), BuildingBlock: OJICUG_clean_linker_0, # of connection points: 2
#     Edge 45, Type (0, 0), BuildingBlock: OJICUG_clean_linker_0, # of connection points: 2
#     Edge 46, Type (0, 0), BuildingBlock: OJICUG_clean_linker_0, # of connection points: 2
#     Edge 47, Type (0, 0), BuildingBlock: OJICUG_clean_linker_0, # of connection points: 2
#     Edge 48, Type (0, 0), BuildingBlock: OJICUG_clean_linker_0, # of connection points: 2
#     Edge 49, Type (0, 0), BuildingBlock: OJICUG_clean_linker_0, # of connection points: 2
#     Edge 50, Type (0, 0), BuildingBlock: OJICUG_clean_linker_0, # of connection points: 2
#     Edge 51, Type (0, 0), BuildingBlock: OJICUG_clean_linker_0, # of connection points: 2
#     Edge 52, Type (0, 0), BuildingBlock: OJICUG_clean_linker_0, # of connection points: 2
#     Edge 53, Type (0, 0), BuildingBlock: OJICUG_clean_linker_0, # of connection points: 2
#     Edge 54, Type (0, 0), BuildingBlock: OJICUG_clean_linker_0, # of connection points: 2
#     Edge 55, Type (0, 0), BuildingBlock: OJICUG_clean_linker_0, # of connection points: 2
#     Edge 56, Type (0, 0), BuildingBlock: OJICUG_clean_linker_0, # of connection points: 2
#     Edge 57, Type (0, 0), BuildingBlock: OJICUG_clean_linker_0, # of connection points: 2
#     Edge 58, Type (0, 0), BuildingBlock: OJICUG_clean_linker_0, # of connection points: 2
#     Edge 59, Type (0, 0), BuildingBlock: OJICUG_clean_linker_0, # of connection points: 2
#     Edge 60, Type (0, 0), BuildingBlock: OJICUG_clean_linker_0, # of connection points: 2
#     Edge 61, Type (0, 0), BuildingBlock: OJICUG_clean_linker_0, # of connection points: 2
#     Edge 62, Type (0, 0), BuildingBlock: OJICUG_clean_linker_0, # of connection points: 2
#     Edge 63, Type (0, 0), BuildingBlock: OJICUG_clean_linker_0, # of connection points: 2
#     Edge 64, Type (0, 0), BuildingBlock: OJICUG_clean_linker_0, # of connection points: 2
#     Edge 65, Type (0, 0), BuildingBlock: OJICUG_clean_linker_0, # of connection points: 2
#     Edge 66, Type (0, 0), BuildingBlock: OJICUG_clean_linker_0, # of connection points: 2
#     Edge 67, Type (0, 0), BuildingBlock: OJICUG_clean_linker_0, # of connection points: 2
#     Edge 68, Type (0, 0), BuildingBlock: OJICUG_clean_linker_0, # of connection points: 2
#     Edge 69, Type (0, 0), BuildingBlock: OJICUG_clean_linker_0, # of connection points: 2
#     Edge 70, Type (0, 0), BuildingBlock: OJICUG_clean_linker_0, # of connection points: 2
#     Edge 71, Type (0, 0), BuildingBlock: OJICUG_clean_linker_0, # of connection points: 2
#     Edge 72, Type (0, 0), BuildingBlock: OJICUG_clean_linker_0, # of connection points: 2
#     Edge 73, Type (0, 0), BuildingBlock: OJICUG_clean_linker_0, # of connection points: 2
#     Edge 74, Type (0, 0), BuildingBlock: OJICUG_clean_linker_0, # of connection points: 2
#     Edge 75, Type (0, 0), BuildingBlock: OJICUG_clean_linker_0, # of connection points: 2
#     Edge 76, Type (0, 0), BuildingBlock: OJICUG_clean_linker_0, # of connection points: 2
#     Edge 77, Type (0, 0), BuildingBlock: OJICUG_clean_linker_0, # of connection points: 2
#     Edge 78, Type (0, 0), BuildingBlock: OJICUG_clean_linker_0, # of connection points: 2
#     Edge 79, Type (0, 0), BuildingBlock: OJICUG_clean_linker_0, # of connection points: 2
# Relax obj value: 0.001
# Max RMSD: 0.034
# Mean RMSD: 0.034
data_MOF--net-utm--node1-OLANEW_clean_sbu_2--edge1-OJICUG_clean_linker_0
_symmetry_space_group_name_H-M    P1
_symmetry_Int_Tables_number       1
_symmetry_cell_setting            triclinic
loop_
_symmetry_equiv_pos_as_xyz
'x, y, z'
_cell_length_a     61.668594
_cell_length_b     61.705024
_cell_length_c     35.045233
_cell_angle_alpha  89.946858
_cell_angle_beta   89.948692
_cell_angle_gamma 90.006348
loop_
_atom_site_label
_atom_site_type_symbol
_atom_site_fract_x
_atom_site_fract_y
_atom_site_fract_z
_atom_type_partial_charge
O0 O 0.17859 0.29572 0.02361 0.0
Cd1 Cd 0.14903 0.29691 0.07028 0.0
O2 O 0.19815 0.31807 0.05832 0.0
Cd3 Cd 0.17065 0.32835 0.09296 0.0
O4 O 0.14305 0.34746 0.11245 0.0
C5 C 0.13082 0.35576 0.08716 0.0
O6 O 0.13491 0.35176 0.05104 0.0
C7 C 0.19646 0.30538 0.02989 0.0
C8 C 0.15936 0.26935 0.13083 0.0
O9 O 0.14717 0.26289 0.1035 0.0
O10 O 0.16621 0.28893 0.12998 0.0
O11 O 0.00102 0.94943 0.29245 0.0
Cd12 Cd 0.00385 0.92533 0.34741 0.0
O13 O 0.97172 0.96518 0.31518 0.0
Cd14 Cd 0.96623 0.94079 0.3592 0.0
O15 O 0.95026 0.91552 0.39252 0.0
C16 C 0.93972 0.90113 0.37441 0.0
O17 O 0.93967 0.90171 0.33692 0.0
C18 C 0.98668 0.96419 0.29023 0.0
C19 C 0.02568 0.94756 0.40495 0.0
O20 O 0.03601 0.93552 0.38134 0.0
O21 O 0.00501 0.94863 0.40189 0.0
O22 O 0.27293 0.74329 0.56695 0.0
Cd23 Cd 0.29534 0.74147 0.62409 0.0
O24 O 0.27972 0.71007 0.54741 0.0
Cd25 Cd 0.30545 0.7029 0.58818 0.0
O26 O 0.33325 0.68392 0.60752 0.0
C27 C 0.34398 0.67414 0.58177 0.0
O28 O 0.33819 0.67663 0.54595 0.0
C29 C 0.26955 0.72786 0.54372 0.0
C30 C 0.27079 0.75868 0.68375 0.0
O31 O 0.27053 0.73832 0.67657 0.0
O32 O 0.28317 0.77077 0.66346 0.0
O33 O 0.51095 0.02643 0.90313 0.0
Cd34 Cd 0.50509 0.0546 0.95088 0.0
O35 O 0.54054 0.04041 0.8777 0.0
Cd36 Cd 0.54196 0.0713 0.90795 0.0
O37 O 0.56006 0.10168 0.91291 0.0
C38 C 0.56611 0.11053 0.88187 0.0
O39 O 0.56005 0.10178 0.84942 0.0
C40 C 0.52662 0.02525 0.87965 0.0
C41 C 0.48008 0.03701 0.00983 0.0
O42 O 0.47119 0.04769 0.98264 0.0
O43 O 0.50077 0.03508 0.00957 0.0
O44 O 0.1978 0.75509 0.4155 0.0
Cd45 Cd 0.17471 0.76063 0.35995 0.0
O46 O 0.1977 0.71963 0.40895 0.0
Cd47 Cd 0.17021 0.71813 0.36991 0.0
O48 O 0.14064 0.70189 0.35095 0.0
C49 C 0.12915 0.69298 0.37672 0.0
O50 O 0.13514 0.69494 0.41253 0.0
C51 C 0.20493 0.73656 0.42518 0.0
C52 C 0.20002 0.78096 0.30437 0.0
O53 O 0.18831 0.79206 0.32741 0.0
O54 O 0.19926 0.76025 0.30693 0.0
O55 O 0.52143 0.93739 0.77616 0.0
Cd56 Cd 0.52304 0.90998 0.72606 0.0
O57 O 0.55539 0.94684 0.7665 0.0
Cd58 Cd 0.56391 0.91854 0.73234 0.0
O59 O 0.58335 0.8923 0.7083 0.0
C60 C 0.59373 0.88016 0.73122 0.0
O61 O 0.59155 0.88331 0.7681 0.0
C62 C 0.53721 0.95012 0.78263 0.0
C63 C 0.51657 0.93186 0.65731 0.0
O64 O 0.50052 0.92448 0.67661 0.0
O65 O 0.53574 0.92817 0.66981 0.0
O66 O 0.26383 0.30041 0.88752 0.0
Cd67 Cd 0.29051 0.30564 0.83655 0.0
O68 O 0.28646 0.30908 0.93356 0.0
Cd69 Cd 0.31386 0.31545 0.89589 0.0
O70 O 0.34169 0.33213 0.87117 0.0
C71 C 0.35409 0.34233 0.89389 0.0
O72 O 0.34996 0.34164 0.93066 0.0
C73 C 0.26764 0.30333 0.92281 0.0
C74 C 0.28497 0.27576 0.77767 0.0
O75 O 0.29884 0.27243 0.80425 0.0
O76 O 0.27378 0.29325 0.77886 0.0
O77 O 0.9968 0.01961 0.13323 0.0
Cd78 Cd 0.99657 0.03852 0.0722 0.0
O79 O 0.97114 0.03859 0.16138 0.0
Cd80 Cd 0.96506 0.0607 0.11395 0.0
O81 O 0.94636 0.08458 0.08182 0.0
C82 C 0.93572 0.09844 0.10108 0.0
O83 O 0.93728 0.09812 0.13847 0.0
C84 C 0.98488 0.02324 0.16211 0.0
C85 C 0.01497 0.01061 0.01863 0.0
O86 O 0.02669 0.02409 0.03728 0.0
O87 O 0.99446 0.01078 0.02452 0.0
O88 O 0.76246 0.6826 0.99774 0.0
Cd89 Cd 0.77722 0.66505 0.94096 0.0
O90 O 0.7936 0.69817 0.01152 0.0
Cd91 Cd 0.81213 0.67981 0.96949 0.0
O92 O 0.83442 0.65833 0.9393 0.0
C93 C 0.85185 0.65266 0.95588 0.0
O94 O 0.85592 0.66017 0.99022 0.0
C95 C 0.77349 0.69552 0.01827 0.0
C96 C 0.7612 0.68634 0.87669 0.0
O97 O 0.75197 0.66918 0.88942 0.0
O98 O 0.77823 0.69312 0.89385 0.0
O99 O 0.08598 0.00106 0.63635 0.0
Cd100 Cd 0.09178 0.0208 0.57689 0.0
O101 O 0.0523 0.01221 0.64361 0.0
Cd102 Cd 0.05803 0.03811 0.60243 0.0
O103 O 0.07758 0.06414 0.57794 0.0
C104 C 0.08042 0.08117 0.59765 0.0
O105 O 0.07022 0.08303 0.63043 0.0
C106 C 0.06793 8e-05 0.65392 0.0
C107 C 0.07097 0.9981 0.51869 0.0
O108 O 0.09096 0.99455 0.52645 0.0
O109 O 0.06103 0.01274 0.53778 0.0
O110 O 0.73592 0.24534 0.33994 0.0
Cd111 Cd 0.72171 0.22861 0.28218 0.0
O112 O 0.71385 0.27265 0.33065 0.0
Cd113 Cd 0.70071 0.30515 0.34037 0.0
O114 O 0.68607 0.33736 0.34326 0.0
C115 C 0.67196 0.34266 0.31853 0.0
O116 O 0.66658 0.32856 0.2921 0.0
C117 C 0.72865 0.26366 0.35038 0.0
C118 C 0.75329 0.22731 0.22527 0.0
O119 O 0.74122 0.24403 0.22975 0.0
O120 O 0.75037 0.21113 0.24767 0.0
O121 O 0.41626 0.98769 0.24587 0.0
Cd122 Cd 0.40378 0.97512 0.18349 0.0
O123 O 0.44253 0.96354 0.24725 0.0
Cd124 Cd 0.42808 0.94434 0.20158 0.0
O125 O 0.4071 0.92125 0.1721 0.0
C126 C 0.39984 0.9053 0.19124 0.0
O127 O 0.40563 0.90327 0.22715 0.0
C128 C 0.4332 0.98002 0.26159 0.0
C129 C 0.42813 0.99516 0.12612 0.0
O130 O 0.40975 0.0029 0.13645 0.0
O131 O 0.43481 0.97783 0.14249 0.0
O132 O 0.75401 0.31366 0.50804 0.0
Cd133 Cd 0.76756 0.32728 0.56894 0.0
O134 O 0.78643 0.30379 0.48826 0.0
Cd135 Cd 0.80409 0.32038 0.53361 0.0
O136 O 0.82729 0.34114 0.5633 0.0
C137 C 0.84453 0.34651 0.54571 0.0
O138 O 0.84775 0.33908 0.51103 0.0
C139 C 0.766 0.30442 0.48339 0.0
C140 C 0.74729 0.30512 0.62867 0.0
O141 O 0.74006 0.32346 0.61713 0.0
O142 O 0.76424 0.29745 0.61235 0.0
O143 O 0.48373 0.00797 0.41609 0.0
Cd144 Cd 0.49784 0.02265 0.47569 0.0
O145 O 0.45841 0.03271 0.41835 0.0
Cd146 Cd 0.43051 0.05253 0.4015 0.0
O147 O 0.40087 0.07132 0.39306 0.0
C148 C 0.3866 0.06522 0.36923 0.0
O149 O 0.39006 0.0476 0.34912 0.0
C150 C 0.46697 0.01657 0.40142 0.0
C151 C 0.50352 0.99076 0.5312 0.0
O152 O 0.48522 0.00033 0.52698 0.0
O153 O 0.51912 0.9962 0.50898 0.0
O154 O 0.74025 0.76247 0.14855 0.0
Cd155 Cd 0.72609 0.78142 0.20415 0.0
O156 O 0.71862 0.73537 0.16203 0.0
Cd157 Cd 0.70564 0.70243 0.1578 0.0
O158 O 0.68987 0.67073 0.15799 0.0
C159 C 0.69702 0.65559 0.17914 0.0
O160 O 0.7142 0.6592 0.20034 0.0
C161 C 0.73335 0.74355 0.14103 0.0
C162 C 0.75664 0.77964 0.26258 0.0
O163 O 0.74289 0.76431 0.25772 0.0
O164 O 0.75574 0.79602 0.24011 0.0
O165 O 0.07484 0.93825 0.8032 0.0
Cd166 Cd 0.07274 0.91952 0.86435 0.0
O167 O 0.04105 0.93119 0.78733 0.0
Cd168 Cd 0.04063 0.90499 0.82917 0.0
O169 O 0.05682 0.87697 0.85445 0.0
C170 C 0.06735 0.86488 0.83166 0.0
O171 O 0.06669 0.86917 0.79495 0.0
C172 C 0.05876 0.94117 0.78108 0.0
C173 C 0.05402 0.94803 0.9166 0.0
O174 O 0.07462 0.94729 0.91196 0.0
O175 O 0.0423 0.93488 0.89724 0.0
O176 O 0.73574 0.76182 0.64057 0.0
Cd177 Cd 0.70764 0.75756 0.68903 0.0
O178 O 0.73157 0.79722 0.63816 0.0
Cd179 Cd 0.70279 0.79886 0.67431 0.0
O180 O 0.67358 0.81364 0.69808 0.0
C181 C 0.66076 0.82306 0.67501 0.0
O182 O 0.66518 0.82253 0.63833 0.0
C183 C 0.7416 0.78021 0.62779 0.0
C184 C 0.72442 0.73421 0.75044 0.0
O185 O 0.71373 0.72466 0.724 0.0
O186 O 0.72685 0.75479 0.74811 0.0
O187 O 0.46402 0.48958 0.8326 0.0
Cd188 Cd 0.45617 0.46604 0.88723 0.0
O189 O 0.4565 0.46455 0.78993 0.0
Cd190 Cd 0.44821 0.43956 0.83141 0.0
O191 O 0.42908 0.41386 0.85775 0.0
C192 C 0.41904 0.40112 0.83541 0.0
O193 O 0.42139 0.40363 0.7984 0.0
C194 C 0.46226 0.48381 0.79791 0.0
C195 C 0.48895 0.46636 0.942 0.0
O196 O 0.48807 0.45143 0.91664 0.0
O197 O 0.4744 0.48117 0.94137 0.0
O198 O 0.80903 0.22174 0.98056 0.0
Cd199 Cd 0.83644 0.2211 0.03071 0.0
O200 O 0.80246 0.18687 0.98682 0.0
Cd201 Cd 0.83127 0.18003 0.02088 0.0
O202 O 0.85887 0.16451 0.04875 0.0
C203 C 0.87158 0.15299 0.02865 0.0
O204 O 0.86805 0.15144 0.99178 0.0
C205 C 0.79767 0.20518 0.97245 0.0
C206 C 0.8137 0.22355 0.09938 0.0
O207 O 0.81956 0.24073 0.08158 0.0
O208 O 0.81936 0.20519 0.0855 0.0
O209 O 0.00366 0.54865 0.33292 0.0
Cd210 Cd 0.00204 0.57013 0.39118 0.0
O211 O 0.02719 0.56818 0.30028 0.0
Cd212 Cd 0.0326 0.59377 0.34214 0.0
O213 O 0.05222 0.62096 0.3622 0.0
C214 C 0.06134 0.63248 0.33671 0.0
O215 O 0.05766 0.62799 0.30064 0.0
C216 C 0.01487 0.55173 0.30297 0.0
C217 C 0.98007 0.54514 0.44534 0.0
O218 O 0.96988 0.55861 0.42403 0.0
O219 O 0.00073 0.544 0.44185 0.0
O220 O 0.71765 0.22984 0.85854 0.0
Cd221 Cd 0.6883 0.23501 0.81282 0.0
O222 O 0.70591 0.19885 0.88216 0.0
Cd223 Cd 0.67418 0.19746 0.85466 0.0
O224 O 0.64296 0.18075 0.85061 0.0
C225 C 0.63405 0.17498 0.88176 0.0
O226 O 0.64332 0.18043 0.91411 0.0
C227 C 0.72028 0.2136 0.88037 0.0
C228 C 0.70527 0.25773 0.7506 0.0
O229 O 0.69545 0.2677 0.77762 0.0
O230 O 0.70653 0.23703 0.75252 0.0
O231 O 0.00279 0.47085 0.18493 0.0
Cd232 Cd 0.00111 0.44488 0.13255 0.0
O233 O 0.03175 0.48647 0.16064 0.0
Cd234 Cd 0.03907 0.4594 0.12282 0.0
O235 O 0.05761 0.43143 0.10324 0.0
C236 C 0.0672 0.42034 0.12875 0.0
O237 O 0.06472 0.42583 0.16471 0.0
C238 C 0.01655 0.4862 0.18518 0.0
C239 C 0.97961 0.46516 0.0723 0.0
O240 O 0.96921 0.45367 0.09668 0.0
O241 O 0.00025 0.46653 0.07578 0.0
O242 O 0.82052 0.77123 0.5046 0.0
Cd243 Cd 0.84506 0.77295 0.45008 0.0
O244 O 0.81826 0.80672 0.50904 0.0
Cd245 Cd 0.84422 0.81363 0.46849 0.0
O246 O 0.86939 0.83048 0.43625 0.0
C247 C 0.8824 0.84258 0.4546 0.0
O248 O 0.88057 0.84375 0.4919 0.0
C249 C 0.81218 0.78798 0.51974 0.0
C250 C 0.81918 0.77496 0.38504 0.0
O251 O 0.82464 0.75673 0.39967 0.0
O252 O 0.82657 0.79229 0.40042 0.0
O253 O 0.4713 0.56739 0.68401 0.0
Cd254 Cd 0.469 0.59511 0.63406 0.0
O255 O 0.44908 0.5461 0.65231 0.0
Cd256 Cd 0.43806 0.57208 0.61488 0.0
O257 O 0.41798 0.5991 0.59575 0.0
C258 C 0.40955 0.61104 0.62132 0.0
O259 O 0.41394 0.60698 0.65732 0.0
C260 C 0.46191 0.54915 0.68019 0.0
C261 C 0.49709 0.58463 0.57427 0.0
O262 O 0.50279 0.59804 0.60031 0.0
O263 O 0.47803 0.57645 0.57614 0.0
O264 O 0.21187 0.18143 0.35335 0.0
Cd265 Cd 0.20966 0.17466 0.28471 0.0
O266 O 0.24259 0.16414 0.34778 0.0
Cd267 Cd 0.27212 0.14713 0.36527 0.0
O268 O 0.30234 0.12929 0.3738 0.0
C269 C 0.30644 0.11314 0.35251 0.0
O270 O 0.29226 0.10755 0.32634 0.0
C271 C 0.22891 0.17391 0.36885 0.0
C272 C 0.19103 0.20753 0.24111 0.0
O273 O 0.17969 0.19133 0.25243 0.0
O274 O 0.21098 0.20841 0.2512 0.0
O275 O 0.58778 0.47626 0.16705 0.0
Cd276 Cd 0.59491 0.46884 0.09955 0.0
O277 O 0.60386 0.50701 0.15491 0.0
Cd278 Cd 0.61982 0.5381 0.16558 0.0
O279 O 0.63587 0.56965 0.16593 0.0
C280 C 0.65331 0.57259 0.1845 0.0
O281 O 0.66148 0.55642 0.20423 0.0
C282 C 0.59475 0.49443 0.17886 0.0
C283 C 0.5586 0.46779 0.05222 0.0
O284 O 0.56657 0.45028 0.06604 0.0
O285 O 0.56749 0.48581 0.06147 0.0
O286 O 0.20659 0.81781 0.9113 0.0
Cd287 Cd 0.18619 0.81383 0.85212 0.0
O288 O 0.20069 0.78443 0.93095 0.0
Cd289 Cd 0.174 0.78178 0.8904 0.0
O290 O 0.1446 0.79567 0.86575 0.0
C291 C 0.13194 0.80545 0.88863 0.0
O292 O 0.13658 0.80542 0.92522 0.0
C293 C 0.21029 0.80254 0.93483 0.0
C294 C 0.21333 0.79578 0.79687 0.0
O295 O 0.21201 0.81636 0.80121 0.0
O296 O 0.2015 0.78373 0.81822 0.0
O297 O 0.9128 0.47343 0.6592 0.0
Cd298 Cd 0.91125 0.4588 0.59458 0.0
O299 O 0.94552 0.46074 0.67061 0.0
Cd300 Cd 0.94143 0.43786 0.62377 0.0
O301 O 0.92211 0.41308 0.5951 0.0
C302 C 0.90521 0.40697 0.61294 0.0
O303 O 0.90101 0.41556 0.64645 0.0
C304 C 0.92951 0.47248 0.68041 0.0
C305 C 0.93354 0.48675 0.5456 0.0
O306 O 0.9131 0.48883 0.55118 0.0
O307 O 0.94336 0.47123 0.56268 0.0
O308 O 0.26661 0.83588 0.0795 0.0
Cd309 Cd 0.28359 0.84248 0.14124 0.0
O310 O 0.28022 0.80302 0.07458 0.0
Cd311 Cd 0.30457 0.81096 0.11748 0.0
O312 O 0.32986 0.83027 0.14483 0.0
C313 C 0.33752 0.84596 0.12553 0.0
O314 O 0.33012 0.84931 0.09086 0.0
C315 C 0.26742 0.81767 0.06254 0.0
C316 C 0.25749 0.82303 0.19665 0.0
O317 O 0.25505 0.84304 0.18783 0.0
O318 O 0.27264 0.8124 0.18003 0.0
O319 O 0.91395 0.52218 0.84138 0.0
Cd320 Cd 0.91197 0.53981 0.90361 0.0
O321 O 0.9469 0.53381 0.82828 0.0
Cd322 Cd 0.94406 0.55785 0.87355 0.0
O323 O 0.92642 0.58367 0.90269 0.0
C324 C 0.90953 0.59042 0.88561 0.0
O325 O 0.90447 0.58188 0.85244 0.0
C326 C 0.93061 0.52209 0.81992 0.0
C327 C 0.93394 0.5151 0.95798 0.0
O328 O 0.9136 0.51244 0.95217 0.0
O329 O 0.94383 0.52959 0.93835 0.0
O330 O 0.2584 0.18234 0.54736 0.0
Cd331 Cd 0.2607 0.17505 0.61595 0.0
O332 O 0.22652 0.16752 0.5542 0.0
Cd333 Cd 0.19583 0.15215 0.53846 0.0
O334 O 0.16545 0.13404 0.53963 0.0
C335 C 0.15135 0.1392 0.56448 0.0
O336 O 0.1553 0.15568 0.58718 0.0
C337 C 0.24077 0.1759 0.53244 0.0
C338 C 0.26985 0.2102 0.66315 0.0
O339 O 0.28501 0.19761 0.65153 0.0
O340 O 0.25048 0.20653 0.65156 0.0
O341 O 0.5874 0.53358 0.35186 0.0
Cd342 Cd 0.5942 0.53926 0.41998 0.0
O343 O 0.60415 0.50309 0.36319 0.0
Cd344 Cd 0.62067 0.47246 0.35108 0.0
O345 O 0.63686 0.44105 0.34755 0.0
C346 C 0.63139 0.42725 0.32244 0.0
O347 O 0.61598 0.43224 0.29809 0.0
C348 C 0.59478 0.51566 0.33957 0.0
C349 C 0.56009 0.55572 0.46348 0.0
O350 O 0.57479 0.5683 0.45008 0.0
O351 O 0.56116 0.5355 0.45535 0.0
C352 C 0.16291 0.21974 0.19428 0.0
C353 C 0.18175 0.22414 0.21545 0.0
H354 H 0.14114 0.23053 0.15057 0.0
C355 C 0.19235 0.24407 0.2102 0.0
H356 H 0.15442 0.20449 0.19765 0.0
C357 C 0.18457 0.2591 0.18369 0.0
C358 C 0.16626 0.25432 0.16138 0.0
H359 H 0.20686 0.24795 0.22622 0.0
H360 H 0.19334 0.27415 0.17979 0.0
C361 C 0.15535 0.23461 0.16724 0.0
C362 C 0.05979 0.95795 0.43928 0.0
C363 C 0.0373 0.96028 0.4343 0.0
H364 H 0.08809 0.96805 0.46984 0.0
C365 C 0.02603 0.97526 0.45708 0.0
H366 H 0.06894 0.94657 0.42213 0.0
C367 C 0.03702 0.98768 0.48418 0.0
C368 C 0.0595 0.98531 0.48927 0.0
H369 H 0.00871 0.97751 0.45386 0.0
H370 H 0.02785 0.99905 0.50131 0.0
C371 C 0.07077 0.97029 0.46657 0.0
C372 C 0.22908 0.76368 0.76285 0.0
C373 C 0.22822 0.78624 0.76829 0.0
H374 H 0.24323 0.73728 0.73203 0.0
C375 C 0.24186 0.79959 0.74633 0.0
H376 H 0.21883 0.75294 0.77937 0.0
C377 C 0.25592 0.79061 0.71933 0.0
C378 C 0.25663 0.76808 0.71361 0.0
H379 H 0.24166 0.81702 0.7499 0.0
H380 H 0.26608 0.80138 0.70268 0.0
C381 C 0.24311 0.7547 0.73577 0.0
C382 C 0.44486 0.03216 0.04473 0.0
C383 C 0.46683 0.02668 0.04006 0.0
H384 H 0.41543 0.02663 0.07583 0.0
C385 C 0.47595 0.01084 0.064 0.0
H386 H 0.43737 0.04431 0.02673 0.0
C387 C 0.46333 0.00051 0.09171 0.0
C388 C 0.44138 0.00601 0.09648 0.0
H389 H 0.49281 0.00619 0.06101 0.0
H390 H 0.47082 0.98829 0.10958 0.0
C391 C 0.43231 0.02204 0.07286 0.0
C392 C 0.21373 0.81431 0.27124 0.0
C393 C 0.21446 0.79173 0.27639 0.0
H394 H 0.22672 0.84191 0.24201 0.0
C395 C 0.22954 0.77956 0.25527 0.0
H396 H 0.20232 0.82415 0.28711 0.0
C397 C 0.24366 0.78976 0.22971 0.0
C398 C 0.2429 0.81234 0.22447 0.0
H399 H 0.23058 0.76214 0.25869 0.0
H400 H 0.25507 0.77991 0.21388 0.0
C401 C 0.22774 0.8245 0.24543 0.0
C402 C 0.53069 0.95234 0.60072 0.0
C403 C 0.51304 0.94537 0.62297 0.0
H404 H 0.54152 0.97201 0.55408 0.0
C405 C 0.4921 0.95257 0.6135 0.0
H406 H 0.54702 0.94706 0.60724 0.0
C407 C 0.48896 0.967 0.58325 0.0
C408 C 0.50668 0.97442 0.56162 0.0
H409 H 0.47815 0.94752 0.63009 0.0
H410 H 0.47268 0.97259 0.57719 0.0
C411 C 0.52753 0.96664 0.57025 0.0
C412 C 0.2627 0.26013 0.7247 0.0
C413 C 0.28164 0.25968 0.74697 0.0
H414 H 0.24405 0.24474 0.68089 0.0
C415 C 0.29712 0.24341 0.74022 0.0
H416 H 0.25047 0.27246 0.72926 0.0
C417 C 0.2936 0.22775 0.7121 0.0
C418 C 0.27436 0.22781 0.69063 0.0
H419 H 0.31192 0.24272 0.75679 0.0
H420 H 0.3057 0.21525 0.7079 0.0
C421 C 0.25901 0.24424 0.69705 0.0
C422 C 0.05698 0.97885 0.96285 0.0
C423 C 0.04403 0.96395 0.94287 0.0
H424 H 0.05799 0.00533 0.0022 0.0
C425 C 0.0214 0.96471 0.94765 0.0
H426 H 0.07446 0.97875 0.95972 0.0
C427 C 0.01195 0.97999 0.97196 0.0
C428 C 0.02492 0.99486 0.99198 0.0
H429 H 0.01095 0.9535 0.9326 0.0
H430 H 0.99448 0.98007 0.97513 0.0
C431 C 0.04753 0.99414 0.98711 0.0
C432 C 0.74971 0.73134 0.80601 0.0
C433 C 0.7339 0.72184 0.78252 0.0
H434 H 0.77095 0.72747 0.8538 0.0
C435 C 0.72737 0.70041 0.78984 0.0
H436 H 0.75515 0.74779 0.80098 0.0
C437 C 0.73627 0.68883 0.82038 0.0
C438 C 0.75211 0.69833 0.84382 0.0
H439 H 0.71522 0.69265 0.77223 0.0
H440 H 0.73078 0.67241 0.82555 0.0
C441 C 0.75884 0.71966 0.83616 0.0
C442 C 0.77497 0.24538 0.17387 0.0
C443 C 0.76979 0.22658 0.19463 0.0
H444 H 0.79315 0.25922 0.12789 0.0
C445 C 0.78014 0.20701 0.18522 0.0
H446 H 0.76738 0.26074 0.18058 0.0
C447 C 0.79483 0.20611 0.15484 0.0
C448 C 0.79965 0.22482 0.13355 0.0
H449 H 0.77653 0.19225 0.20073 0.0
H450 H 0.80216 0.19068 0.1477 0.0
C451 C 0.78983 0.24453 0.14377 0.0
C452 C 0.73068 0.25949 0.69495 0.0
C453 C 0.7155 0.26977 0.71877 0.0
H454 H 0.7528 0.26266 0.64817 0.0
C455 C 0.71073 0.29177 0.71257 0.0
H456 H 0.73479 0.24258 0.6991 0.0
C457 C 0.7209 0.30323 0.68309 0.0
C458 C 0.73631 0.29301 0.65963 0.0
H459 H 0.6991 0.30013 0.73045 0.0
H460 H 0.71689 0.32016 0.67899 0.0
C461 C 0.74109 0.27103 0.66588 0.0
C462 C 0.80041 0.7956 0.33302 0.0
C463 C 0.80398 0.77599 0.35247 0.0
H464 H 0.78275 0.8121 0.28913 0.0
C465 C 0.79216 0.75753 0.34161 0.0
H466 H 0.80928 0.8101 0.34073 0.0
C467 C 0.77678 0.75875 0.31244 0.0
C468 C 0.77309 0.77838 0.29318 0.0
H469 H 0.79447 0.7422 0.35613 0.0
H470 H 0.76779 0.74428 0.305 0.0
C471 C 0.78522 0.79674 0.30348 0.0
C472 C 0.5281 0.48603 0.01767 0.0
C473 C 0.54017 0.4672 0.02527 0.0
H474 H 0.50224 0.50044 0.98574 0.0
C475 C 0.53497 0.44798 0.00584 0.0
H476 H 0.5317 0.50107 0.03227 0.0
C477 C 0.51836 0.44772 0.97871 0.0
C478 C 0.50634 0.46656 0.97102 0.0
H479 H 0.54405 0.43324 0.01097 0.0
H480 H 0.5149 0.43273 0.96384 0.0
C481 C 0.51121 0.48566 0.99109 0.0
C482 C 0.94565 0.53242 0.47625 0.0
C483 C 0.96827 0.53075 0.47208 0.0
H484 H 0.91696 0.51987 0.50268 0.0
C485 C 0.97939 0.51465 0.49265 0.0
H486 H 0.93659 0.54463 0.46079 0.0
C487 C 0.96811 0.50037 0.5165 0.0
C488 C 0.94548 0.50193 0.52043 0.0
H489 H 0.9968 0.51288 0.49002 0.0
H490 H 0.97716 0.48808 0.53179 0.0
C491 C 0.93439 0.51819 0.50022 0.0
C492 C 0.93444 0.4872 0.01003 0.0
C493 C 0.94569 0.50187 0.98653 0.0
H494 H 0.93633 0.46406 0.05547 0.0
C495 C 0.96827 0.50386 0.99068 0.0
H496 H 0.91705 0.48525 0.0075 0.0
C497 C 0.97933 0.49162 0.01802 0.0
C498 C 0.96805 0.4772 0.04193 0.0
H499 H 0.97743 0.51495 0.97293 0.0
H500 H 0.9967 0.4937 0.02074 0.0
C501 C 0.9455 0.47503 0.0375 0.0
C502 C 0.54596 0.58378 0.50868 0.0
C503 C 0.54306 0.56404 0.48937 0.0
H504 H 0.53379 0.60566 0.55105 0.0
C505 C 0.52436 0.55172 0.49675 0.0
H506 H 0.56025 0.59359 0.50368 0.0
C507 C 0.50906 0.55879 0.52344 0.0
C508 C 0.51237 0.57812 0.54382 0.0
H509 H 0.52166 0.53646 0.48223 0.0
H510 H 0.49497 0.54877 0.52895 0.0
C511 C 0.53087 0.59064 0.53592 0.0
C512 C 0.094 0.39156 0.14647 0.0
C513 C 0.08223 0.40262 0.11817 0.0
H514 H 0.11851 0.36806 0.15896 0.0
C515 C 0.0857 0.39722 0.0797 0.0
H516 H 0.09168 0.39527 0.1764 0.0
C517 C 0.10108 0.38158 0.06971 0.0
C518 C 0.11335 0.37102 0.09796 0.0
H519 H 0.07684 0.40538 0.0572 0.0
H520 H 0.10366 0.37812 0.03975 0.0
C521 C 0.10941 0.37595 0.13648 0.0
C522 C 0.91162 0.87078 0.45448 0.0
C523 C 0.89828 0.85637 0.43418 0.0
H524 H 0.93523 0.89616 0.45161 0.0
C525 C 0.8996 0.85596 0.39415 0.0
H526 H 0.91106 0.87146 0.48535 0.0
C527 C 0.91349 0.87012 0.37481 0.0
C528 C 0.92634 0.885 0.39506 0.0
H529 H 0.88961 0.845 0.37765 0.0
H530 H 0.9138 0.86967 0.34391 0.0
C531 C 0.9255 0.88495 0.43514 0.0
C532 C 0.37266 0.64741 0.5632 0.0
C533 C 0.36179 0.65909 0.59185 0.0
H534 H 0.3963 0.62316 0.54995 0.0
C535 C 0.36754 0.6556 0.63016 0.0
H536 H 0.36868 0.64975 0.53339 0.0
C537 C 0.38342 0.64035 0.63964 0.0
C538 C 0.39387 0.62824 0.61104 0.0
H539 H 0.35952 0.66437 0.65291 0.0
H540 H 0.3872 0.63778 0.66948 0.0
C541 C 0.38852 0.63215 0.57269 0.0
C542 C 0.58992 0.13699 0.9165 0.0
C543 C 0.58169 0.12883 0.88201 0.0
H544 H 0.61278 0.15807 0.94347 0.0
C545 C 0.58959 0.13733 0.84743 0.0
H546 H 0.58413 0.13088 0.94364 0.0
C547 C 0.60605 0.15292 0.84731 0.0
C548 C 0.61496 0.16037 0.88178 0.0
H549 H 0.58353 0.1315 0.82033 0.0
H550 H 0.61221 0.15865 0.82016 0.0
C551 C 0.60637 0.1526 0.91638 0.0
C552 C 0.08841 0.66098 0.31861 0.0
C553 C 0.07731 0.64939 0.34716 0.0
H554 H 0.1134 0.6839 0.30548 0.0
C555 C 0.08245 0.65335 0.38558 0.0
H556 H 0.0848 0.6584 0.28872 0.0
C557 C 0.09885 0.668 0.39517 0.0
C558 C 0.11049 0.67901 0.36656 0.0
H559 H 0.07416 0.64476 0.40827 0.0
H560 H 0.10273 0.6703 0.42503 0.0
C561 C 0.10483 0.67563 0.3282 0.0
C562 C 0.61293 0.86156 0.67729 0.0
C563 C 0.6095 0.86404 0.7167 0.0
H564 H 0.63168 0.84659 0.63324 0.0
C565 C 0.62212 0.85179 0.74221 0.0
H566 H 0.60343 0.87069 0.65686 0.0
C567 C 0.63835 0.83796 0.72867 0.0
C568 C 0.6423 0.83608 0.68931 0.0
H569 H 0.61985 0.85324 0.77275 0.0
H570 H 0.64813 0.82916 0.74913 0.0
C571 C 0.62914 0.84773 0.66375 0.0
C572 C 0.37575 0.35764 0.83965 0.0
C573 C 0.37187 0.35608 0.87907 0.0
H574 H 0.39377 0.37297 0.79498 0.0
C575 C 0.38452 0.36856 0.90417 0.0
H576 H 0.36636 0.34819 0.81956 0.0
C577 C 0.40023 0.3828 0.89008 0.0
C578 C 0.40365 0.38484 0.85059 0.0
H579 H 0.38199 0.36769 0.93472 0.0
H580 H 0.40939 0.39251 0.91014 0.0
C581 C 0.39149 0.37185 0.82557 0.0
C582 C 0.90789 0.12795 0.10392 0.0
C583 C 0.92052 0.11358 0.08211 0.0
H584 H 0.88262 0.15171 0.1042 0.0
C585 C 0.91774 0.11316 0.04232 0.0
H586 H 0.90967 0.12874 0.13463 0.0
C587 C 0.90221 0.12636 0.02486 0.0
C588 C 0.88912 0.14025 0.04681 0.0
H589 H 0.92725 0.10233 0.02468 0.0
H590 H 0.90019 0.12534 0.99422 0.0
C591 C 0.89236 0.14113 0.08647 0.0
C592 C 0.88599 0.63059 0.95625 0.0
C593 C 0.86702 0.63731 0.93739 0.0
H594 H 0.91433 0.61054 0.95473 0.0
C595 C 0.86249 0.62891 0.90102 0.0
H596 H 0.88998 0.63677 0.98429 0.0
C597 C 0.87645 0.61389 0.8841 0.0
C598 C 0.89526 0.60693 0.90315 0.0
H599 H 0.84805 0.63377 0.88568 0.0
H600 H 0.87236 0.6076 0.85617 0.0
C601 C 0.89996 0.61555 0.93931 0.0
C602 C 0.1004 0.1159 0.60874 0.0
C603 C 0.09697 0.09733 0.58636 0.0
H604 H 0.12014 0.14376 0.61921 0.0
C605 C 0.11056 0.09359 0.55482 0.0
H606 H 0.09016 0.11933 0.63313 0.0
C607 C 0.12783 0.10758 0.5469 0.0
C608 C 0.13181 0.12565 0.57029 0.0
H609 H 0.10833 0.07946 0.53693 0.0
H610 H 0.13839 0.1039 0.52307 0.0
C611 C 0.11761 0.12993 0.60075 0.0
C612 C 0.65795 0.40011 0.34803 0.0
C613 C 0.64196 0.40571 0.32118 0.0
H614 H 0.67992 0.37586 0.36832 0.0
C615 C 0.63602 0.39044 0.29336 0.0
H616 H 0.6629 0.41149 0.36986 0.0
C617 C 0.6458 0.37 0.29247 0.0
C618 C 0.66172 0.36437 0.31941 0.0
H619 H 0.62377 0.39422 0.27225 0.0
H620 H 0.64081 0.35861 0.27069 0.0
C621 C 0.6677 0.37966 0.34717 0.0
C622 C 0.3774 0.89233 0.13614 0.0
C623 C 0.38449 0.88968 0.17395 0.0
H624 H 0.35707 0.88062 0.09123 0.0
C625 C 0.37639 0.87219 0.19544 0.0
H626 H 0.38333 0.90561 0.11878 0.0
C627 C 0.36133 0.85784 0.17964 0.0
C628 C 0.35402 0.86067 0.142 0.0
H629 H 0.38154 0.86966 0.22464 0.0
H630 H 0.35528 0.84466 0.19707 0.0
C631 C 0.36233 0.87799 0.12035 0.0
C632 C 0.87141 0.38455 0.61615 0.0
C633 C 0.8901 0.39098 0.59609 0.0
H634 H 0.84242 0.36548 0.61612 0.0
C635 C 0.89392 0.38226 0.55968 0.0
H636 H 0.86797 0.39092 0.64431 0.0
C637 C 0.87924 0.36765 0.5435 0.0
C638 C 0.86041 0.36143 0.5634 0.0
H639 H 0.90817 0.38686 0.54348 0.0
H640 H 0.88258 0.36137 0.51525 0.0
C641 C 0.85674 0.36995 0.6 0.0
C642 C 0.36199 0.09586 0.38757 0.0
C643 C 0.36618 0.0776 0.36475 0.0
H644 H 0.33988 0.12136 0.40172 0.0
C645 C 0.35056 0.07115 0.33788 0.0
H646 H 0.37366 0.10126 0.40859 0.0
C647 C 0.33118 0.08269 0.33393 0.0
C648 C 0.32697 0.10091 0.35681 0.0
H649 H 0.35326 0.05716 0.31986 0.0
H650 H 0.3195 0.07727 0.31294 0.0
C651 C 0.34259 0.10738 0.38367 0.0
C652 C 0.68345 0.59738 0.20453 0.0
C653 C 0.66446 0.59384 0.18327 0.0
H654 H 0.70861 0.61959 0.21991 0.0
C655 C 0.65632 0.61077 0.16053 0.0
H656 H 0.69016 0.58468 0.22232 0.0
C657 C 0.66694 0.63076 0.15906 0.0
C658 C 0.68591 0.63432 0.18037 0.0
H659 H 0.64175 0.60859 0.14373 0.0
H660 H 0.66022 0.64345 0.14126 0.0
C661 C 0.69404 0.6174 0.20313 0.0
C662 C 0.10056 0.83048 0.8995 0.0
C663 C 0.11371 0.81871 0.87409 0.0
H664 H 0.07549 0.85418 0.90611 0.0
C665 C 0.11018 0.82093 0.83468 0.0
H666 H 0.10277 0.82907 0.93006 0.0
C667 C 0.09453 0.83534 0.82095 0.0
C668 C 0.08206 0.84783 0.84634 0.0
H669 H 0.11997 0.81204 0.81433 0.0
H670 H 0.09268 0.83713 0.79038 0.0
C671 C 0.08489 0.84488 0.88578 0.0
C672 C 0.2293 0.29385 0.94065 0.0
C673 C 0.24987 0.30169 0.95113 0.0
H674 H 0.19629 0.28862 0.95749 0.0
C675 C 0.25299 0.30931 0.98852 0.0
H676 H 0.22639 0.2878 0.91211 0.0
C677 C 0.23574 0.30997 0.0143 0.0
C678 C 0.21502 0.30281 0.00348 0.0
H679 H 0.26861 0.31543 0.99761 0.0
H680 H 0.2386 0.31646 0.04256 0.0
C681 C 0.21207 0.29428 0.96666 0.0
C682 C 0.97162 0.01138 0.22638 0.0
C683 C 0.98627 0.00893 0.19595 0.0
H684 H 0.96024 0.99921 0.27989 0.0
C685 C 0.00164 0.99212 0.19749 0.0
H686 H 0.95958 0.02416 0.22615 0.0
C687 C 0.00204 0.9778 0.22841 0.0
C688 C 0.98703 0.97993 0.25836 0.0
H689 H 0.0132 0.98981 0.17456 0.0
H690 H 0.0139 0.96485 0.22848 0.0
C691 C 0.97197 0.99702 0.25718 0.0
C692 C 0.22784 0.75259 0.47716 0.0
C693 C 0.22169 0.73457 0.45517 0.0
H694 H 0.24773 0.76462 0.52249 0.0
C695 C 0.23167 0.71448 0.46214 0.0
H696 H 0.22045 0.76829 0.4725 0.0
C697 C 0.24738 0.71241 0.49054 0.0
C698 C 0.25337 0.73034 0.51286 0.0
H699 H 0.22738 0.70028 0.44562 0.0
H700 H 0.25466 0.69665 0.49522 0.0
C701 C 0.24346 0.75047 0.50583 0.0
C702 C 0.51532 0.97193 0.82938 0.0
C703 C 0.5344 0.96912 0.80794 0.0
H704 H 0.49788 0.99183 0.869 0.0
C705 C 0.55078 0.98489 0.8103 0.0
H706 H 0.50239 0.96007 0.82818 0.0
C707 C 0.54812 0.00312 0.83336 0.0
C708 C 0.5291 0.00596 0.8549 0.0
H709 H 0.56565 0.98329 0.79408 0.0
H710 H 0.5611 0.01494 0.83441 0.0
C711 C 0.51274 0.99013 0.85277 0.0
C712 C 0.77497 0.72292 0.07081 0.0
C713 C 0.76303 0.70766 0.04973 0.0
H714 H 0.77485 0.74616 0.11607 0.0
C715 C 0.74104 0.70437 0.05878 0.0
H716 H 0.7919 0.72594 0.06454 0.0
C717 C 0.73128 0.71601 0.08843 0.0
C718 C 0.74332 0.7311 0.10961 0.0
H719 H 0.73133 0.69289 0.04287 0.0
H720 H 0.71421 0.71354 0.0941 0.0
C721 C 0.76519 0.73457 0.10027 0.0
C722 C 0.08152 0.96217 0.73521 0.0
C723 C 0.06086 0.95609 0.7483 0.0
H724 H 0.09991 0.98064 0.69497 0.0
C725 C 0.04243 0.96456 0.73004 0.0
H726 H 0.09604 0.95587 0.7486 0.0
C727 C 0.04465 0.97903 0.69954 0.0
C728 C 0.06535 0.98498 0.68634 0.0
H729 H 0.02629 0.96021 0.73961 0.0
H730 H 0.03019 0.9854 0.68608 0.0
C731 C 0.08374 0.97632 0.70439 0.0
C732 C 0.7252 0.28739 0.40814 0.0
C733 C 0.73803 0.27446 0.3841 0.0
H734 H 0.72392 0.30694 0.45857 0.0
C735 C 0.75999 0.27137 0.39304 0.0
H736 H 0.70807 0.28951 0.40258 0.0
C737 C 0.76908 0.28126 0.42506 0.0
C738 C 0.7563 0.29423 0.4492 0.0
H739 H 0.77023 0.26141 0.37504 0.0
H740 H 0.7861 0.27858 0.43103 0.0
C741 C 0.73424 0.29715 0.44045 0.0
C742 C 0.47158 0.99532 0.34131 0.0
C743 C 0.45819 0.00784 0.36519 0.0
H744 H 0.47421 0.97677 0.28994 0.0
C745 C 0.43646 0.01108 0.35462 0.0
H746 H 0.48838 0.99238 0.34868 0.0
C747 C 0.42845 0.00248 0.32052 0.0
C748 C 0.44185 0.98993 0.29681 0.0
H749 H 0.42536 0.01955 0.37313 0.0
H750 H 0.41158 0.00513 0.31329 0.0
C751 C 0.46348 0.98638 0.30762 0.0
C752 C 0.7673 0.8025 0.58888 0.0
C753 C 0.76005 0.782 0.60091 0.0
H754 H 0.78944 0.82045 0.55423 0.0
C755 C 0.77053 0.76341 0.58685 0.0
H756 H 0.75967 0.81717 0.59923 0.0
C757 C 0.78768 0.7653 0.56089 0.0
C758 C 0.79474 0.78582 0.54857 0.0
H759 H 0.76537 0.74737 0.5956 0.0
H760 H 0.79526 0.75066 0.55024 0.0
C761 C 0.78445 0.80438 0.5631 0.0
C762 C 0.4582 0.49479 0.72959 0.0
C763 C 0.4649 0.49989 0.76684 0.0
H764 H 0.452 0.50633 0.67311 0.0
C765 C 0.47248 0.52095 0.77449 0.0
H766 H 0.45231 0.47873 0.72263 0.0
C767 C 0.47249 0.53678 0.74584 0.0
C768 C 0.46465 0.53192 0.70917 0.0
H769 H 0.47785 0.52537 0.80285 0.0
H770 H 0.47778 0.55303 0.75287 0.0
C771 C 0.45795 0.51064 0.70117 0.0
C772 C 0.77378 0.22678 0.92859 0.0
C773 C 0.7783 0.20729 0.94781 0.0
H774 H 0.75195 0.24408 0.89206 0.0
C775 C 0.7637 0.18991 0.94432 0.0
H776 H 0.78469 0.24048 0.9307 0.0
C777 C 0.74489 0.19204 0.92254 0.0
C778 C 0.74029 0.21153 0.90343 0.0
H779 H 0.76663 0.17468 0.95883 0.0
H780 H 0.73397 0.17833 0.92067 0.0
C781 C 0.75501 0.22885 0.90647 0.0
C782 C 0.02875 0.53735 0.24079 0.0
C783 C 0.01435 0.53559 0.27175 0.0
H784 H 0.04076 0.52317 0.18932 0.0
C785 C 1.00008 0.51783 0.27326 0.0
H786 H 0.03996 0.55081 0.2387 0.0
C787 C 0.00049 0.50197 0.2448 0.0
C788 C 0.01527 0.50348 0.21435 0.0
H789 H 0.98875 0.51601 0.29667 0.0
H790 H 0.98948 0.48835 0.24705 0.0
C791 C 0.02925 0.52145 0.21249 0.0
C792 C 0.21683 0.17776 0.47461 0.0
C793 C 0.23769 0.1768 0.49059 0.0
H794 H 0.19773 0.17751 0.42358 0.0
C795 C 0.25574 0.17637 0.46611 0.0
H796 H 0.20265 0.17918 0.49257 0.0
C797 C 0.25295 0.17584 0.42653 0.0
C798 C 0.23206 0.17565 0.41061 0.0
H799 H 0.27205 0.17604 0.47754 0.0
H800 H 0.26718 0.17582 0.4085 0.0
C801 C 0.21404 0.17716 0.43503 0.0
C802 C 0.59284 0.48854 0.28638 0.0
C803 C 0.59345 0.51021 0.29851 0.0
H804 H 0.59283 0.46659 0.23907 0.0
C805 C 0.59295 0.52675 0.27093 0.0
H806 H 0.59211 0.47544 0.30685 0.0
C807 C 0.59291 0.5217 0.23202 0.0
C808 C 0.59343 0.50001 0.21989 0.0
H809 H 0.59298 0.54363 0.27941 0.0
H810 H 0.59226 0.5348 0.21156 0.0
C811 C 0.59287 0.48348 0.2475 0.0
C812 C 0.23437 0.78867 0.98709 0.0
C813 C 0.22531 0.80619 0.96701 0.0
H814 H 0.25512 0.77857 0.0328 0.0
C815 C 0.23054 0.82742 0.97818 0.0
H816 H 0.23069 0.77214 0.97902 0.0
C817 C 0.24422 0.83109 0.00918 0.0
C818 C 0.2533 0.81361 0.02928 0.0
H819 H 0.22377 0.84126 0.96335 0.0
H820 H 0.24776 0.84765 0.01731 0.0
C821 C 0.24841 0.79235 0.01774 0.0
C822 C 0.91083 0.50277 0.76807 0.0
C823 C 0.93059 0.50897 0.78471 0.0
H824 H 0.89505 0.48665 0.7218 0.0
C825 C 0.95011 0.50286 0.76703 0.0
H826 H 0.89552 0.50733 0.78095 0.0
C827 C 0.94984 0.49067 0.73338 0.0
C828 C 0.93004 0.48483 0.71644 0.0
H829 H 0.96558 0.50738 0.77931 0.0
H830 H 0.9651 0.48613 0.7203 0.0
C831 C 0.91056 0.49103 0.7341 0.0
loop_
_geom_bond_atom_site_label_1
_geom_bond_atom_site_label_2
_geom_bond_distance
_geom_bond_site_symmetry_2
_ccdc_geom_bond_type
O0 Cd1 2.300 . S
O0 C7 1.275 . S
Cd1 O0 2.300 . S
Cd1 O9 2.381 . S
Cd1 O10 2.378 . S
O2 Cd3 2.385 . S
O2 C7 1.255 . S
Cd3 O2 2.385 . S
Cd3 O4 2.317 . S
O4 Cd3 2.317 . S
O4 C5 1.232 . S
C5 O4 1.232 . S
C5 O6 1.218 . S
O6 C5 1.218 . S
C7 O0 1.275 . S
C7 O2 1.255 . S
C8 O9 1.258 . S
C8 O10 1.256 . S
O9 Cd1 2.381 . S
O9 C8 1.258 . S
O10 Cd1 2.378 . S
O10 C8 1.256 . S
O11 Cd12 2.300 . S
O11 C18 1.275 . S
Cd12 O11 2.300 . S
Cd12 O20 2.381 . S
Cd12 O21 2.378 . S
O13 Cd14 2.385 . S
O13 C18 1.255 . S
Cd14 O13 2.385 . S
Cd14 O15 2.317 . S
O15 Cd14 2.317 . S
O15 C16 1.232 . S
C16 O15 1.232 . S
C16 O17 1.218 . S
O17 C16 1.218 . S
C18 O11 1.275 . S
C18 O13 1.255 . S
C19 O20 1.258 . S
C19 O21 1.256 . S
O20 Cd12 2.381 . S
O20 C19 1.258 . S
O21 Cd12 2.378 . S
O21 C19 1.256 . S
O22 Cd23 2.300 . S
O22 C29 1.275 . S
Cd23 O22 2.300 . S
Cd23 O31 2.381 . S
Cd23 O32 2.378 . S
O24 Cd25 2.385 . S
O24 C29 1.255 . S
Cd25 O24 2.385 . S
Cd25 O26 2.317 . S
O26 Cd25 2.317 . S
O26 C27 1.232 . S
C27 O26 1.232 . S
C27 O28 1.218 . S
O28 C27 1.218 . S
C29 O22 1.275 . S
C29 O24 1.255 . S
C30 O31 1.258 . S
C30 O32 1.256 . S
O31 Cd23 2.381 . S
O31 C30 1.258 . S
O32 Cd23 2.378 . S
O32 C30 1.256 . S
O33 Cd34 2.300 . S
O33 C40 1.275 . S
Cd34 O33 2.300 . S
Cd34 O42 2.381 . S
Cd34 O43 2.378 . S
O35 Cd36 2.385 . S
O35 C40 1.255 . S
Cd36 O35 2.385 . S
Cd36 O37 2.317 . S
O37 Cd36 2.317 . S
O37 C38 1.232 . S
C38 O37 1.232 . S
C38 O39 1.218 . S
O39 C38 1.218 . S
C40 O33 1.275 . S
C40 O35 1.255 . S
C41 O42 1.258 . S
C41 O43 1.256 . S
O42 Cd34 2.381 . S
O42 C41 1.258 . S
O43 Cd34 2.378 . S
O43 C41 1.256 . S
O44 Cd45 2.300 . S
O44 C51 1.275 . S
Cd45 O44 2.300 . S
Cd45 O53 2.381 . S
Cd45 O54 2.378 . S
O46 Cd47 2.385 . S
O46 C51 1.255 . S
Cd47 O46 2.385 . S
Cd47 O48 2.317 . S
O48 Cd47 2.317 . S
O48 C49 1.232 . S
C49 O48 1.232 . S
C49 O50 1.218 . S
O50 C49 1.218 . S
C51 O44 1.275 . S
C51 O46 1.255 . S
C52 O53 1.258 . S
C52 O54 1.256 . S
O53 Cd45 2.381 . S
O53 C52 1.258 . S
O54 Cd45 2.378 . S
O54 C52 1.256 . S
O55 Cd56 2.300 . S
O55 C62 1.275 . S
Cd56 O55 2.300 . S
Cd56 O64 2.381 . S
Cd56 O65 2.378 . S
O57 Cd58 2.385 . S
O57 C62 1.255 . S
Cd58 O57 2.385 . S
Cd58 O59 2.317 . S
O59 Cd58 2.317 . S
O59 C60 1.232 . S
C60 O59 1.232 . S
C60 O61 1.218 . S
O61 C60 1.218 . S
C62 O55 1.275 . S
C62 O57 1.255 . S
C63 O64 1.258 . S
C63 O65 1.256 . S
O64 Cd56 2.381 . S
O64 C63 1.258 . S
O65 Cd56 2.378 . S
O65 C63 1.256 . S
O66 Cd67 2.300 . S
O66 C73 1.275 . S
Cd67 O66 2.300 . S
Cd67 O75 2.381 . S
Cd67 O76 2.378 . S
O68 Cd69 2.385 . S
O68 C73 1.255 . S
Cd69 O68 2.385 . S
Cd69 O70 2.317 . S
O70 Cd69 2.317 . S
O70 C71 1.232 . S
C71 O70 1.232 . S
C71 O72 1.218 . S
O72 C71 1.218 . S
C73 O66 1.275 . S
C73 O68 1.255 . S
C74 O75 1.258 . S
C74 O76 1.256 . S
O75 Cd67 2.381 . S
O75 C74 1.258 . S
O76 Cd67 2.378 . S
O76 C74 1.256 . S
O77 Cd78 2.300 . S
O77 C84 1.275 . S
Cd78 O77 2.300 . S
Cd78 O86 2.381 . S
Cd78 O87 2.378 . S
O79 Cd80 2.385 . S
O79 C84 1.255 . S
Cd80 O79 2.385 . S
Cd80 O81 2.317 . S
O81 Cd80 2.317 . S
O81 C82 1.232 . S
C82 O81 1.232 . S
C82 O83 1.218 . S
O83 C82 1.218 . S
C84 O77 1.275 . S
C84 O79 1.255 . S
C85 O86 1.258 . S
C85 O87 1.256 . S
O86 Cd78 2.381 . S
O86 C85 1.258 . S
O87 Cd78 2.378 . S
O87 C85 1.256 . S
O88 Cd89 2.300 . S
O88 C95 1.275 . S
Cd89 O88 2.300 . S
Cd89 O97 2.381 . S
Cd89 O98 2.378 . S
O90 Cd91 2.385 . S
O90 C95 1.255 . S
Cd91 O90 2.385 . S
Cd91 O92 2.317 . S
O92 Cd91 2.317 . S
O92 C93 1.232 . S
C93 O92 1.232 . S
C93 O94 1.218 . S
O94 C93 1.218 . S
C95 O88 1.275 . S
C95 O90 1.255 . S
C96 O97 1.258 . S
C96 O98 1.256 . S
O97 Cd89 2.381 . S
O97 C96 1.258 . S
O98 Cd89 2.378 . S
O98 C96 1.256 . S
O99 Cd100 2.300 1_565 S
O99 C106 1.275 1_565 S
Cd100 O99 2.300 1_545 S
Cd100 O108 2.381 1_545 S
Cd100 O109 2.378 . S
O101 Cd102 2.385 . S
O101 C106 1.255 . S
Cd102 O101 2.385 . S
Cd102 O103 2.317 . S
O103 Cd102 2.317 . S
O103 C104 1.232 . S
C104 O103 1.232 . S
C104 O105 1.218 . S
O105 C104 1.218 . S
C106 O99 1.275 1_545 S
C106 O101 1.255 . S
C107 O108 1.258 1_545 S
C107 O109 1.256 . S
O108 Cd100 2.381 1_565 S
O108 C107 1.258 1_565 S
O109 Cd100 2.378 . S
O109 C107 1.256 . S
O110 Cd111 2.300 . S
O110 C117 1.275 . S
Cd111 O110 2.300 . S
Cd111 O119 2.381 . S
Cd111 O120 2.378 . S
O112 Cd113 2.385 . S
O112 C117 1.255 . S
Cd113 O112 2.385 . S
Cd113 O114 2.317 . S
O114 Cd113 2.317 . S
O114 C115 1.232 . S
C115 O114 1.232 . S
C115 O116 1.218 . S
O116 C115 1.218 . S
C117 O110 1.275 . S
C117 O112 1.255 . S
C118 O119 1.258 . S
C118 O120 1.256 . S
O119 Cd111 2.381 . S
O119 C118 1.258 . S
O120 Cd111 2.378 . S
O120 C118 1.256 . S
O121 Cd122 2.300 1_545 S
O121 C128 1.275 1_545 S
Cd122 O121 2.300 1_565 S
Cd122 O130 2.381 1_565 S
Cd122 O131 2.378 . S
O123 Cd124 2.385 . S
O123 C128 1.255 . S
Cd124 O123 2.385 . S
Cd124 O125 2.317 . S
O125 Cd124 2.317 . S
O125 C126 1.232 . S
C126 O125 1.232 . S
C126 O127 1.218 . S
O127 C126 1.218 . S
C128 O121 1.275 1_565 S
C128 O123 1.255 . S
C129 O130 1.258 1_565 S
C129 O131 1.256 . S
O130 Cd122 2.381 1_545 S
O130 C129 1.258 1_545 S
O131 Cd122 2.378 . S
O131 C129 1.256 . S
O132 Cd133 2.300 . S
O132 C139 1.275 . S
Cd133 O132 2.300 . S
Cd133 O141 2.381 . S
Cd133 O142 2.378 . S
O134 Cd135 2.385 . S
O134 C139 1.255 . S
Cd135 O134 2.385 . S
Cd135 O136 2.317 . S
O136 Cd135 2.317 . S
O136 C137 1.232 . S
C137 O136 1.232 . S
C137 O138 1.218 . S
O138 C137 1.218 . S
C139 O132 1.275 . S
C139 O134 1.255 . S
C140 O141 1.258 . S
C140 O142 1.256 . S
O141 Cd133 2.381 . S
O141 C140 1.258 . S
O142 Cd133 2.378 . S
O142 C140 1.256 . S
O143 Cd144 2.300 1_565 S
O143 C150 1.275 1_565 S
Cd144 O143 2.300 1_545 S
Cd144 O152 2.381 1_545 S
Cd144 O153 2.378 . S
O145 Cd146 2.385 . S
O145 C150 1.255 . S
Cd146 O145 2.385 . S
Cd146 O147 2.317 . S
O147 Cd146 2.317 . S
O147 C148 1.232 . S
C148 O147 1.232 . S
C148 O149 1.218 . S
O149 C148 1.218 . S
C150 O143 1.275 1_545 S
C150 O145 1.255 . S
C151 O152 1.258 1_545 S
C151 O153 1.256 . S
O152 Cd144 2.381 1_565 S
O152 C151 1.258 1_565 S
O153 Cd144 2.378 . S
O153 C151 1.256 . S
O154 Cd155 2.300 . S
O154 C161 1.275 . S
Cd155 O154 2.300 . S
Cd155 O163 2.381 . S
Cd155 O164 2.378 . S
O156 Cd157 2.385 . S
O156 C161 1.255 . S
Cd157 O156 2.385 . S
Cd157 O158 2.317 . S
O158 Cd157 2.317 . S
O158 C159 1.232 . S
C159 O158 1.232 . S
C159 O160 1.218 . S
O160 C159 1.218 . S
C161 O154 1.275 . S
C161 O156 1.255 . S
C162 O163 1.258 . S
C162 O164 1.256 . S
O163 Cd155 2.381 . S
O163 C162 1.258 . S
O164 Cd155 2.378 . S
O164 C162 1.256 . S
O165 Cd166 2.300 1_545 S
O165 C172 1.275 1_545 S
Cd166 O165 2.300 1_565 S
Cd166 O174 2.381 1_565 S
Cd166 O175 2.378 . S
O167 Cd168 2.385 . S
O167 C172 1.255 . S
Cd168 O167 2.385 . S
Cd168 O169 2.317 . S
O169 Cd168 2.317 . S
O169 C170 1.232 . S
C170 O169 1.232 . S
C170 O171 1.218 . S
O171 C170 1.218 . S
C172 O165 1.275 1_565 S
C172 O167 1.255 . S
C173 O174 1.258 1_565 S
C173 O175 1.256 . S
O174 Cd166 2.381 1_545 S
O174 C173 1.258 1_545 S
O175 Cd166 2.378 . S
O175 C173 1.256 . S
O176 Cd177 2.300 . S
O176 C183 1.275 . S
Cd177 O176 2.300 . S
Cd177 O185 2.381 . S
Cd177 O186 2.378 . S
O178 Cd179 2.385 . S
O178 C183 1.255 . S
Cd179 O178 2.385 . S
Cd179 O180 2.317 . S
O180 Cd179 2.317 . S
O180 C181 1.232 . S
C181 O180 1.232 . S
C181 O182 1.218 . S
O182 C181 1.218 . S
C183 O176 1.275 . S
C183 O178 1.255 . S
C184 O185 1.258 . S
C184 O186 1.256 . S
O185 Cd177 2.381 . S
O185 C184 1.258 . S
O186 Cd177 2.378 . S
O186 C184 1.256 . S
O187 Cd188 2.300 . S
O187 C194 1.275 . S
Cd188 O187 2.300 . S
Cd188 O196 2.381 . S
Cd188 O197 2.378 . S
O189 Cd190 2.385 . S
O189 C194 1.255 . S
Cd190 O189 2.385 . S
Cd190 O191 2.317 . S
O191 Cd190 2.317 . S
O191 C192 1.232 . S
C192 O191 1.232 . S
C192 O193 1.218 . S
O193 C192 1.218 . S
C194 O187 1.275 . S
C194 O189 1.255 . S
C195 O196 1.258 . S
C195 O197 1.256 . S
O196 Cd188 2.381 . S
O196 C195 1.258 . S
O197 Cd188 2.378 . S
O197 C195 1.256 . S
O198 Cd199 2.300 . S
O198 C205 1.275 . S
Cd199 O198 2.300 . S
Cd199 O207 2.381 . S
Cd199 O208 2.378 . S
O200 Cd201 2.385 . S
O200 C205 1.255 . S
Cd201 O200 2.385 . S
Cd201 O202 2.317 . S
O202 Cd201 2.317 . S
O202 C203 1.232 . S
C203 O202 1.232 . S
C203 O204 1.218 . S
O204 C203 1.218 . S
C205 O198 1.275 . S
C205 O200 1.255 . S
C206 O207 1.258 . S
C206 O208 1.256 . S
O207 Cd199 2.381 . S
O207 C206 1.258 . S
O208 Cd199 2.378 . S
O208 C206 1.256 . S
O209 Cd210 2.300 . S
O209 C216 1.275 . S
Cd210 O209 2.300 . S
Cd210 O218 2.381 . S
Cd210 O219 2.378 . S
O211 Cd212 2.385 . S
O211 C216 1.255 . S
Cd212 O211 2.385 . S
Cd212 O213 2.317 . S
O213 Cd212 2.317 . S
O213 C214 1.232 . S
C214 O213 1.232 . S
C214 O215 1.218 . S
O215 C214 1.218 . S
C216 O209 1.275 . S
C216 O211 1.255 . S
C217 O218 1.258 . S
C217 O219 1.256 . S
O218 Cd210 2.381 . S
O218 C217 1.258 . S
O219 Cd210 2.378 . S
O219 C217 1.256 . S
O220 Cd221 2.300 . S
O220 C227 1.275 . S
Cd221 O220 2.300 . S
Cd221 O229 2.381 . S
Cd221 O230 2.378 . S
O222 Cd223 2.385 . S
O222 C227 1.255 . S
Cd223 O222 2.385 . S
Cd223 O224 2.317 . S
O224 Cd223 2.317 . S
O224 C225 1.232 . S
C225 O224 1.232 . S
C225 O226 1.218 . S
O226 C225 1.218 . S
C227 O220 1.275 . S
C227 O222 1.255 . S
C228 O229 1.258 . S
C228 O230 1.256 . S
O229 Cd221 2.381 . S
O229 C228 1.258 . S
O230 Cd221 2.378 . S
O230 C228 1.256 . S
O231 Cd232 2.300 . S
O231 C238 1.275 . S
Cd232 O231 2.300 . S
Cd232 O240 2.381 . S
Cd232 O241 2.378 . S
O233 Cd234 2.385 . S
O233 C238 1.255 . S
Cd234 O233 2.385 . S
Cd234 O235 2.317 . S
O235 Cd234 2.317 . S
O235 C236 1.232 . S
C236 O235 1.232 . S
C236 O237 1.218 . S
O237 C236 1.218 . S
C238 O231 1.275 . S
C238 O233 1.255 . S
C239 O240 1.258 . S
C239 O241 1.256 . S
O240 Cd232 2.381 . S
O240 C239 1.258 . S
O241 Cd232 2.378 . S
O241 C239 1.256 . S
O242 Cd243 2.300 . S
O242 C249 1.275 . S
Cd243 O242 2.300 . S
Cd243 O251 2.381 . S
Cd243 O252 2.378 . S
O244 Cd245 2.385 . S
O244 C249 1.255 . S
Cd245 O244 2.385 . S
Cd245 O246 2.317 . S
O246 Cd245 2.317 . S
O246 C247 1.232 . S
C247 O246 1.232 . S
C247 O248 1.218 . S
O248 C247 1.218 . S
C249 O242 1.275 . S
C249 O244 1.255 . S
C250 O251 1.258 . S
C250 O252 1.256 . S
O251 Cd243 2.381 . S
O251 C250 1.258 . S
O252 Cd243 2.378 . S
O252 C250 1.256 . S
O253 Cd254 2.300 . S
O253 C260 1.275 . S
Cd254 O253 2.300 . S
Cd254 O262 2.381 . S
Cd254 O263 2.378 . S
O255 Cd256 2.385 . S
O255 C260 1.255 . S
Cd256 O255 2.385 . S
Cd256 O257 2.317 . S
O257 Cd256 2.317 . S
O257 C258 1.232 . S
C258 O257 1.232 . S
C258 O259 1.218 . S
O259 C258 1.218 . S
C260 O253 1.275 . S
C260 O255 1.255 . S
C261 O262 1.258 . S
C261 O263 1.256 . S
O262 Cd254 2.381 . S
O262 C261 1.258 . S
O263 Cd254 2.378 . S
O263 C261 1.256 . S
O264 Cd265 2.300 . S
O264 C271 1.275 . S
Cd265 O264 2.300 . S
Cd265 O273 2.381 . S
Cd265 O274 2.378 . S
O266 Cd267 2.385 . S
O266 C271 1.255 . S
Cd267 O266 2.385 . S
Cd267 O268 2.317 . S
O268 Cd267 2.317 . S
O268 C269 1.232 . S
C269 O268 1.232 . S
C269 O270 1.218 . S
O270 C269 1.218 . S
C271 O264 1.275 . S
C271 O266 1.255 . S
C272 O273 1.258 . S
C272 O274 1.256 . S
O273 Cd265 2.381 . S
O273 C272 1.258 . S
O274 Cd265 2.378 . S
O274 C272 1.256 . S
O275 Cd276 2.300 . S
O275 C282 1.275 . S
Cd276 O275 2.300 . S
Cd276 O284 2.381 . S
Cd276 O285 2.378 . S
O277 Cd278 2.385 . S
O277 C282 1.255 . S
Cd278 O277 2.385 . S
Cd278 O279 2.317 . S
O279 Cd278 2.317 . S
O279 C280 1.232 . S
C280 O279 1.232 . S
C280 O281 1.218 . S
O281 C280 1.218 . S
C282 O275 1.275 . S
C282 O277 1.255 . S
C283 O284 1.258 . S
C283 O285 1.256 . S
O284 Cd276 2.381 . S
O284 C283 1.258 . S
O285 Cd276 2.378 . S
O285 C283 1.256 . S
O286 Cd287 2.300 . S
O286 C293 1.275 . S
Cd287 O286 2.300 . S
Cd287 O295 2.381 . S
Cd287 O296 2.378 . S
O288 Cd289 2.385 . S
O288 C293 1.255 . S
Cd289 O288 2.385 . S
Cd289 O290 2.317 . S
O290 Cd289 2.317 . S
O290 C291 1.232 . S
C291 O290 1.232 . S
C291 O292 1.218 . S
O292 C291 1.218 . S
C293 O286 1.275 . S
C293 O288 1.255 . S
C294 O295 1.258 . S
C294 O296 1.256 . S
O295 Cd287 2.381 . S
O295 C294 1.258 . S
O296 Cd287 2.378 . S
O296 C294 1.256 . S
O297 Cd298 2.300 . S
O297 C304 1.275 . S
Cd298 O297 2.300 . S
Cd298 O306 2.381 . S
Cd298 O307 2.378 . S
O299 Cd300 2.385 . S
O299 C304 1.255 . S
Cd300 O299 2.385 . S
Cd300 O301 2.317 . S
O301 Cd300 2.317 . S
O301 C302 1.232 . S
C302 O301 1.232 . S
C302 O303 1.218 . S
O303 C302 1.218 . S
C304 O297 1.275 . S
C304 O299 1.255 . S
C305 O306 1.258 . S
C305 O307 1.256 . S
O306 Cd298 2.381 . S
O306 C305 1.258 . S
O307 Cd298 2.378 . S
O307 C305 1.256 . S
O308 Cd309 2.300 . S
O308 C315 1.275 . S
Cd309 O308 2.300 . S
Cd309 O317 2.381 . S
Cd309 O318 2.378 . S
O310 Cd311 2.385 . S
O310 C315 1.255 . S
Cd311 O310 2.385 . S
Cd311 O312 2.317 . S
O312 Cd311 2.317 . S
O312 C313 1.232 . S
C313 O312 1.232 . S
C313 O314 1.218 . S
O314 C313 1.218 . S
C315 O308 1.275 . S
C315 O310 1.255 . S
C316 O317 1.258 . S
C316 O318 1.256 . S
O317 Cd309 2.381 . S
O317 C316 1.258 . S
O318 Cd309 2.378 . S
O318 C316 1.256 . S
O319 Cd320 2.300 . S
O319 C326 1.275 . S
Cd320 O319 2.300 . S
Cd320 O328 2.381 . S
Cd320 O329 2.378 . S
O321 Cd322 2.385 . S
O321 C326 1.255 . S
Cd322 O321 2.385 . S
Cd322 O323 2.317 . S
O323 Cd322 2.317 . S
O323 C324 1.232 . S
C324 O323 1.232 . S
C324 O325 1.218 . S
O325 C324 1.218 . S
C326 O319 1.275 . S
C326 O321 1.255 . S
C327 O328 1.258 . S
C327 O329 1.256 . S
O328 Cd320 2.381 . S
O328 C327 1.258 . S
O329 Cd320 2.378 . S
O329 C327 1.256 . S
O330 Cd331 2.300 . S
O330 C337 1.275 . S
Cd331 O330 2.300 . S
Cd331 O339 2.381 . S
Cd331 O340 2.378 . S
O332 Cd333 2.385 . S
O332 C337 1.255 . S
Cd333 O332 2.385 . S
Cd333 O334 2.317 . S
O334 Cd333 2.317 . S
O334 C335 1.232 . S
C335 O334 1.232 . S
C335 O336 1.218 . S
O336 C335 1.218 . S
C337 O330 1.275 . S
C337 O332 1.255 . S
C338 O339 1.258 . S
C338 O340 1.256 . S
O339 Cd331 2.381 . S
O339 C338 1.258 . S
O340 Cd331 2.378 . S
O340 C338 1.256 . S
O341 Cd342 2.300 . S
O341 C348 1.275 . S
Cd342 O341 2.300 . S
Cd342 O350 2.381 . S
Cd342 O351 2.378 . S
O343 Cd344 2.385 . S
O343 C348 1.255 . S
Cd344 O343 2.385 . S
Cd344 O345 2.317 . S
O345 Cd344 2.317 . S
O345 C346 1.232 . S
C346 O345 1.232 . S
C346 O347 1.218 . S
O347 C346 1.218 . S
C348 O341 1.275 . S
C348 O343 1.255 . S
C349 O350 1.258 . S
C349 O351 1.256 . S
O350 Cd342 2.381 . S
O350 C349 1.258 . S
O351 Cd342 2.378 . S
O351 C349 1.256 . S
C352 C353 1.387 . S
C352 H356 0.950 . S
C352 C361 1.390 . S
C353 C352 1.387 . S
C353 C355 1.387 . S
H354 C361 0.950 . S
C355 C353 1.387 . S
C355 C357 1.390 . S
C355 H359 0.950 . S
H356 C352 0.950 . S
C357 C355 1.390 . S
C357 C358 1.387 . S
C357 H360 0.950 . S
C358 C357 1.387 . S
C358 C361 1.387 . S
H359 C355 0.950 . S
H360 C357 0.950 . S
C361 C352 1.390 . S
C361 H354 0.950 . S
C361 C358 1.387 . S
C362 C363 1.431 . S
C362 H366 0.950 . S
C362 C371 1.390 1_655 S
C363 C362 1.431 . S
C363 C365 1.342 1_565 S
H364 C371 0.950 . S
C365 C363 1.342 1_545 S
C365 C367 1.390 1_655 S
C365 H369 0.950 . S
H366 C362 0.950 . S
C367 C365 1.390 1_455 S
C367 C368 1.431 . S
C367 H370 0.950 . S
C368 C367 1.431 . S
C368 C371 1.342 1_545 S
H369 C365 0.950 . S
H370 C367 0.950 . S
C371 C362 1.390 1_455 S
C371 H364 0.950 . S
C371 C368 1.342 1_565 S
C372 C373 1.387 . S
C372 H376 0.950 . S
C372 C381 1.390 . S
C373 C372 1.387 . S
C373 C375 1.387 . S
H374 C381 0.950 . S
C375 C373 1.387 . S
C375 C377 1.390 . S
C375 H379 0.950 . S
H376 C372 0.950 . S
C377 C375 1.390 . S
C377 C378 1.387 . S
C377 H380 0.950 . S
C378 C377 1.387 . S
C378 C381 1.387 . S
H379 C375 0.950 . S
H380 C377 0.950 . S
C381 C372 1.390 . S
C381 H374 0.950 . S
C381 C378 1.387 . S
C382 C383 1.430 . S
C382 H386 0.950 . S
C382 C391 1.390 1_556 S
C383 C382 1.430 . S
C383 C385 1.343 1_545 S
H384 C391 0.950 . S
C385 C383 1.343 1_565 S
C385 C387 1.390 1_556 S
C385 H389 0.950 . S
H386 C382 0.950 . S
C387 C385 1.390 1_554 S
C387 C388 1.430 . S
C387 H390 0.950 . S
C388 C387 1.430 . S
C388 C391 1.343 1_565 S
H389 C385 0.950 . S
H390 C387 0.950 . S
C391 C382 1.390 1_554 S
C391 H384 0.950 . S
C391 C388 1.343 1_545 S
C392 C393 1.387 . S
C392 H396 0.950 . S
C392 C401 1.390 . S
C393 C392 1.387 . S
C393 C395 1.387 . S
H394 C401 0.950 . S
C395 C393 1.387 . S
C395 C397 1.390 . S
C395 H399 0.950 . S
H396 C392 0.950 . S
C397 C395 1.390 . S
C397 C398 1.387 . S
C397 H400 0.950 . S
C398 C397 1.387 . S
C398 C401 1.387 . S
H399 C395 0.950 . S
H400 C397 0.950 . S
C401 C392 1.390 . S
C401 H394 0.950 . S
C401 C398 1.387 . S
C402 C403 1.345 1_545 S
C402 H406 0.950 . S
C402 C411 1.390 . S
C403 C402 1.345 1_565 S
C403 C405 1.428 . S
H404 C411 0.950 . S
C405 C403 1.428 . S
C405 C407 1.390 . S
C405 H409 0.950 . S
H406 C402 0.950 . S
C407 C405 1.390 . S
C407 C408 1.345 1_565 S
C407 H410 0.950 . S
C408 C407 1.345 1_545 S
C408 C411 1.428 . S
H409 C405 0.950 . S
H410 C407 0.950 . S
C411 C402 1.390 . S
C411 H404 0.950 . S
C411 C408 1.428 . S
C412 C413 1.387 . S
C412 H416 0.950 . S
C412 C421 1.390 . S
C413 C412 1.387 . S
C413 C415 1.387 . S
H414 C421 0.950 . S
C415 C413 1.387 . S
C415 C417 1.390 . S
C415 H419 0.950 . S
H416 C412 0.950 . S
C417 C415 1.390 . S
C417 C418 1.387 . S
C417 H420 0.950 . S
C418 C417 1.387 . S
C418 C421 1.387 . S
H419 C415 0.950 . S
H420 C417 0.950 . S
C421 C412 1.390 . S
C421 H414 0.950 . S
C421 C418 1.387 . S
C422 C423 1.344 1_545 S
C422 H426 0.950 . S
C422 C431 1.390 1_456 S
C423 C422 1.344 1_565 S
C423 C425 1.430 . S
H424 C431 0.950 . S
C425 C423 1.430 . S
C425 C427 1.390 1_456 S
C425 H429 0.950 . S
H426 C422 0.950 . S
C427 C425 1.390 1_654 S
C427 C428 1.344 1_565 S
C427 H430 0.950 . S
C428 C427 1.344 1_545 S
C428 C431 1.430 . S
H429 C425 0.950 . S
H430 C427 0.950 . S
C431 C422 1.390 1_654 S
C431 H424 0.950 . S
C431 C428 1.430 . S
C432 C433 1.387 . S
C432 H436 0.950 . S
C432 C441 1.390 . S
C433 C432 1.387 . S
C433 C435 1.387 . S
H434 C441 0.950 . S
C435 C433 1.387 . S
C435 C437 1.390 . S
C435 H439 0.950 . S
H436 C432 0.950 . S
C437 C435 1.390 . S
C437 C438 1.387 . S
C437 H440 0.950 . S
C438 C437 1.387 . S
C438 C441 1.387 . S
H439 C435 0.950 . S
H440 C437 0.950 . S
C441 C432 1.390 . S
C441 H434 0.950 . S
C441 C438 1.387 . S
C442 C443 1.387 . S
C442 H446 0.950 . S
C442 C451 1.390 . S
C443 C442 1.387 . S
C443 C445 1.387 . S
H444 C451 0.950 . S
C445 C443 1.387 . S
C445 C447 1.390 . S
C445 H449 0.950 . S
H446 C442 0.950 . S
C447 C445 1.390 . S
C447 C448 1.387 . S
C447 H450 0.950 . S
C448 C447 1.387 . S
C448 C451 1.387 . S
H449 C445 0.950 . S
H450 C447 0.950 . S
C451 C442 1.390 . S
C451 H444 0.950 . S
C451 C448 1.387 . S
C452 C453 1.387 . S
C452 H456 0.950 . S
C452 C461 1.390 . S
C453 C452 1.387 . S
C453 C455 1.387 . S
H454 C461 0.950 . S
C455 C453 1.387 . S
C455 C457 1.390 . S
C455 H459 0.950 . S
H456 C452 0.950 . S
C457 C455 1.390 . S
C457 C458 1.387 . S
C457 H460 0.950 . S
C458 C457 1.387 . S
C458 C461 1.387 . S
H459 C455 0.950 . S
H460 C457 0.950 . S
C461 C452 1.390 . S
C461 H454 0.950 . S
C461 C458 1.387 . S
C462 C463 1.387 . S
C462 H466 0.950 . S
C462 C471 1.390 . S
C463 C462 1.387 . S
C463 C465 1.387 . S
H464 C471 0.950 . S
C465 C463 1.387 . S
C465 C467 1.390 . S
C465 H469 0.950 . S
H466 C462 0.950 . S
C467 C465 1.390 . S
C467 C468 1.387 . S
C467 H470 0.950 . S
C468 C467 1.387 . S
C468 C471 1.387 . S
H469 C465 0.950 . S
H470 C467 0.950 . S
C471 C462 1.390 . S
C471 H464 0.950 . S
C471 C468 1.387 . S
C472 C473 1.387 . S
C472 H476 0.950 . S
C472 C481 1.390 1_554 S
C473 C472 1.387 . S
C473 C475 1.387 . S
H474 C481 0.950 . S
C475 C473 1.387 . S
C475 C477 1.390 1_554 S
C475 H479 0.950 . S
H476 C472 0.950 . S
C477 C475 1.390 1_556 S
C477 C478 1.387 . S
C477 H480 0.950 . S
C478 C477 1.387 . S
C478 C481 1.387 . S
H479 C475 0.950 . S
H480 C477 0.950 . S
C481 C472 1.390 1_556 S
C481 H474 0.950 . S
C481 C478 1.387 . S
C482 C483 1.387 . S
C482 H486 0.950 . S
C482 C491 1.390 1_455 S
C483 C482 1.387 . S
C483 C485 1.387 . S
H484 C491 0.950 . S
C485 C483 1.387 . S
C485 C487 1.390 1_455 S
C485 H489 0.950 . S
H486 C482 0.950 . S
C487 C485 1.390 1_655 S
C487 C488 1.387 . S
C487 H490 0.950 . S
C488 C487 1.387 . S
C488 C491 1.387 . S
H489 C485 0.950 . S
H490 C487 0.950 . S
C491 C482 1.390 1_655 S
C491 H484 0.950 . S
C491 C488 1.387 . S
C492 C493 1.387 . S
C492 H496 0.950 . S
C492 C501 1.390 1_656 S
C493 C492 1.387 . S
C493 C495 1.387 . S
H494 C501 0.950 . S
C495 C493 1.387 . S
C495 C497 1.390 1_656 S
C495 H499 0.950 . S
H496 C492 0.950 . S
C497 C495 1.390 1_454 S
C497 C498 1.387 . S
C497 H500 0.950 . S
C498 C497 1.387 . S
C498 C501 1.387 . S
H499 C495 0.950 . S
H500 C497 0.950 . S
C501 C492 1.390 1_454 S
C501 H494 0.950 . S
C501 C498 1.387 . S
C502 C503 1.387 . S
C502 H506 0.950 . S
C502 C511 1.390 . S
C503 C502 1.387 . S
C503 C505 1.387 . S
H504 C511 0.950 . S
C505 C503 1.387 . S
C505 C507 1.390 . S
C505 H509 0.950 . S
H506 C502 0.950 . S
C507 C505 1.390 . S
C507 C508 1.387 . S
C507 H510 0.950 . S
C508 C507 1.387 . S
C508 C511 1.387 . S
H509 C505 0.950 . S
H510 C507 0.950 . S
C511 C502 1.390 . S
C511 H504 0.950 . S
C511 C508 1.387 . S
C512 C513 1.387 . S
C512 H516 0.950 . S
C512 C521 1.390 . S
C513 C512 1.387 . S
C513 C515 1.387 . S
H514 C521 0.950 . S
C515 C513 1.387 . S
C515 C517 1.390 . S
C515 H519 0.950 . S
H516 C512 0.950 . S
C517 C515 1.390 . S
C517 C518 1.387 . S
C517 H520 0.950 . S
C518 C517 1.387 . S
C518 C521 1.387 . S
H519 C515 0.950 . S
H520 C517 0.950 . S
C521 C512 1.390 . S
C521 H514 0.950 . S
C521 C518 1.387 . S
C522 C523 1.387 . S
C522 H526 0.950 . S
C522 C531 1.390 . S
C523 C522 1.387 . S
C523 C525 1.387 . S
H524 C531 0.950 . S
C525 C523 1.387 . S
C525 C527 1.390 . S
C525 H529 0.950 . S
H526 C522 0.950 . S
C527 C525 1.390 . S
C527 C528 1.387 . S
C527 H530 0.950 . S
C528 C527 1.387 . S
C528 C531 1.387 . S
H529 C525 0.950 . S
H530 C527 0.950 . S
C531 C522 1.390 . S
C531 H524 0.950 . S
C531 C528 1.387 . S
C532 C533 1.387 . S
C532 H536 0.950 . S
C532 C541 1.390 . S
C533 C532 1.387 . S
C533 C535 1.387 . S
H534 C541 0.950 . S
C535 C533 1.387 . S
C535 C537 1.390 . S
C535 H539 0.950 . S
H536 C532 0.950 . S
C537 C535 1.390 . S
C537 C538 1.387 . S
C537 H540 0.950 . S
C538 C537 1.387 . S
C538 C541 1.387 . S
H539 C535 0.950 . S
H540 C537 0.950 . S
C541 C532 1.390 . S
C541 H534 0.950 . S
C541 C538 1.387 . S
C542 C543 1.387 . S
C542 H546 0.950 . S
C542 C551 1.390 . S
C543 C542 1.387 . S
C543 C545 1.387 . S
H544 C551 0.950 . S
C545 C543 1.387 . S
C545 C547 1.390 . S
C545 H549 0.950 . S
H546 C542 0.950 . S
C547 C545 1.390 . S
C547 C548 1.387 . S
C547 H550 0.950 . S
C548 C547 1.387 . S
C548 C551 1.387 . S
H549 C545 0.950 . S
H550 C547 0.950 . S
C551 C542 1.390 . S
C551 H544 0.950 . S
C551 C548 1.387 . S
C552 C553 1.387 . S
C552 H556 0.950 . S
C552 C561 1.390 . S
C553 C552 1.387 . S
C553 C555 1.387 . S
H554 C561 0.950 . S
C555 C553 1.387 . S
C555 C557 1.390 . S
C555 H559 0.950 . S
H556 C552 0.950 . S
C557 C555 1.390 . S
C557 C558 1.387 . S
C557 H560 0.950 . S
C558 C557 1.387 . S
C558 C561 1.387 . S
H559 C555 0.950 . S
H560 C557 0.950 . S
C561 C552 1.390 . S
C561 H554 0.950 . S
C561 C558 1.387 . S
C562 C563 1.387 . S
C562 H566 0.950 . S
C562 C571 1.390 . S
C563 C562 1.387 . S
C563 C565 1.387 . S
H564 C571 0.950 . S
C565 C563 1.387 . S
C565 C567 1.390 . S
C565 H569 0.950 . S
H566 C562 0.950 . S
C567 C565 1.390 . S
C567 C568 1.387 . S
C567 H570 0.950 . S
C568 C567 1.387 . S
C568 C571 1.387 . S
H569 C565 0.950 . S
H570 C567 0.950 . S
C571 C562 1.390 . S
C571 H564 0.950 . S
C571 C568 1.387 . S
C572 C573 1.387 . S
C572 H576 0.950 . S
C572 C581 1.390 . S
C573 C572 1.387 . S
C573 C575 1.387 . S
H574 C581 0.950 . S
C575 C573 1.387 . S
C575 C577 1.390 . S
C575 H579 0.950 . S
H576 C572 0.950 . S
C577 C575 1.390 . S
C577 C578 1.387 . S
C577 H580 0.950 . S
C578 C577 1.387 . S
C578 C581 1.387 . S
H579 C575 0.950 . S
H580 C577 0.950 . S
C581 C572 1.390 . S
C581 H574 0.950 . S
C581 C578 1.387 . S
C582 C583 1.387 . S
C582 H586 0.950 . S
C582 C591 1.390 . S
C583 C582 1.387 . S
C583 C585 1.387 . S
H584 C591 0.950 . S
C585 C583 1.387 . S
C585 C587 1.390 . S
C585 H589 0.950 . S
H586 C582 0.950 . S
C587 C585 1.390 . S
C587 C588 1.387 . S
C587 H590 0.950 . S
C588 C587 1.387 . S
C588 C591 1.387 . S
H589 C585 0.950 . S
H590 C587 0.950 . S
C591 C582 1.390 . S
C591 H584 0.950 . S
C591 C588 1.387 . S
C592 C593 1.387 . S
C592 H596 0.950 . S
C592 C601 1.390 . S
C593 C592 1.387 . S
C593 C595 1.387 . S
H594 C601 0.950 . S
C595 C593 1.387 . S
C595 C597 1.390 . S
C595 H599 0.950 . S
H596 C592 0.950 . S
C597 C595 1.390 . S
C597 C598 1.387 . S
C597 H600 0.950 . S
C598 C597 1.387 . S
C598 C601 1.387 . S
H599 C595 0.950 . S
H600 C597 0.950 . S
C601 C592 1.390 . S
C601 H594 0.950 . S
C601 C598 1.387 . S
C602 C603 1.387 . S
C602 H606 0.950 . S
C602 C611 1.390 . S
C603 C602 1.387 . S
C603 C605 1.387 . S
H604 C611 0.950 . S
C605 C603 1.387 . S
C605 C607 1.390 . S
C605 H609 0.950 . S
H606 C602 0.950 . S
C607 C605 1.390 . S
C607 C608 1.387 . S
C607 H610 0.950 . S
C608 C607 1.387 . S
C608 C611 1.387 . S
H609 C605 0.950 . S
H610 C607 0.950 . S
C611 C602 1.390 . S
C611 H604 0.950 . S
C611 C608 1.387 . S
C612 C613 1.387 . S
C612 H616 0.950 . S
C612 C621 1.390 . S
C613 C612 1.387 . S
C613 C615 1.387 . S
H614 C621 0.950 . S
C615 C613 1.387 . S
C615 C617 1.390 . S
C615 H619 0.950 . S
H616 C612 0.950 . S
C617 C615 1.390 . S
C617 C618 1.387 . S
C617 H620 0.950 . S
C618 C617 1.387 . S
C618 C621 1.387 . S
H619 C615 0.950 . S
H620 C617 0.950 . S
C621 C612 1.390 . S
C621 H614 0.950 . S
C621 C618 1.387 . S
C622 C623 1.387 . S
C622 H626 0.950 . S
C622 C631 1.390 . S
C623 C622 1.387 . S
C623 C625 1.387 . S
H624 C631 0.950 . S
C625 C623 1.387 . S
C625 C627 1.390 . S
C625 H629 0.950 . S
H626 C622 0.950 . S
C627 C625 1.390 . S
C627 C628 1.387 . S
C627 H630 0.950 . S
C628 C627 1.387 . S
C628 C631 1.387 . S
H629 C625 0.950 . S
H630 C627 0.950 . S
C631 C622 1.390 . S
C631 H624 0.950 . S
C631 C628 1.387 . S
C632 C633 1.387 . S
C632 H636 0.950 . S
C632 C641 1.390 . S
C633 C632 1.387 . S
C633 C635 1.387 . S
H634 C641 0.950 . S
C635 C633 1.387 . S
C635 C637 1.390 . S
C635 H639 0.950 . S
H636 C632 0.950 . S
C637 C635 1.390 . S
C637 C638 1.387 . S
C637 H640 0.950 . S
C638 C637 1.387 . S
C638 C641 1.387 . S
H639 C635 0.950 . S
H640 C637 0.950 . S
C641 C632 1.390 . S
C641 H634 0.950 . S
C641 C638 1.387 . S
C642 C643 1.387 . S
C642 H646 0.950 . S
C642 C651 1.390 . S
C643 C642 1.387 . S
C643 C645 1.387 . S
H644 C651 0.950 . S
C645 C643 1.387 . S
C645 C647 1.390 . S
C645 H649 0.950 . S
H646 C642 0.950 . S
C647 C645 1.390 . S
C647 C648 1.387 . S
C647 H650 0.950 . S
C648 C647 1.387 . S
C648 C651 1.387 . S
H649 C645 0.950 . S
H650 C647 0.950 . S
C651 C642 1.390 . S
C651 H644 0.950 . S
C651 C648 1.387 . S
C652 C653 1.387 . S
C652 H656 0.950 . S
C652 C661 1.390 . S
C653 C652 1.387 . S
C653 C655 1.387 . S
H654 C661 0.950 . S
C655 C653 1.387 . S
C655 C657 1.390 . S
C655 H659 0.950 . S
H656 C652 0.950 . S
C657 C655 1.390 . S
C657 C658 1.387 . S
C657 H660 0.950 . S
C658 C657 1.387 . S
C658 C661 1.387 . S
H659 C655 0.950 . S
H660 C657 0.950 . S
C661 C652 1.390 . S
C661 H654 0.950 . S
C661 C658 1.387 . S
C662 C663 1.387 . S
C662 H666 0.950 . S
C662 C671 1.390 . S
C663 C662 1.387 . S
C663 C665 1.387 . S
H664 C671 0.950 . S
C665 C663 1.387 . S
C665 C667 1.390 . S
C665 H669 0.950 . S
H666 C662 0.950 . S
C667 C665 1.390 . S
C667 C668 1.387 . S
C667 H670 0.950 . S
C668 C667 1.387 . S
C668 C671 1.387 . S
H669 C665 0.950 . S
H670 C667 0.950 . S
C671 C662 1.390 . S
C671 H664 0.950 . S
C671 C668 1.387 . S
C672 C673 1.387 . S
C672 H676 0.950 . S
C672 C681 1.390 1_556 S
C673 C672 1.387 . S
C673 C675 1.387 . S
H674 C681 0.950 . S
C675 C673 1.387 . S
C675 C677 1.390 1_556 S
C675 H679 0.950 . S
H676 C672 0.950 . S
C677 C675 1.390 1_554 S
C677 C678 1.387 . S
C677 H680 0.950 . S
C678 C677 1.387 . S
C678 C681 1.387 . S
H679 C675 0.950 . S
H680 C677 0.950 . S
C681 C672 1.390 1_554 S
C681 H674 0.950 . S
C681 C678 1.387 . S
C682 C683 1.387 . S
C682 H686 0.950 . S
C682 C691 1.390 1_545 S
C683 C682 1.387 . S
C683 C685 1.387 . S
H684 C691 0.950 . S
C685 C683 1.387 . S
C685 C687 1.390 1_545 S
C685 H689 0.950 . S
H686 C682 0.950 . S
C687 C685 1.390 1_565 S
C687 C688 1.387 . S
C687 H690 0.950 . S
C688 C687 1.387 . S
C688 C691 1.387 . S
H689 C685 0.950 . S
H690 C687 0.950 . S
C691 C682 1.390 1_565 S
C691 H684 0.950 . S
C691 C688 1.387 . S
C692 C693 1.387 . S
C692 H696 0.950 . S
C692 C701 1.390 . S
C693 C692 1.387 . S
C693 C695 1.387 . S
H694 C701 0.950 . S
C695 C693 1.387 . S
C695 C697 1.390 . S
C695 H699 0.950 . S
H696 C692 0.950 . S
C697 C695 1.390 . S
C697 C698 1.387 . S
C697 H700 0.950 . S
C698 C697 1.387 . S
C698 C701 1.387 . S
H699 C695 0.950 . S
H700 C697 0.950 . S
C701 C692 1.390 . S
C701 H694 0.950 . S
C701 C698 1.387 . S
C702 C703 1.387 . S
C702 H706 0.950 . S
C702 C711 1.390 1_565 S
C703 C702 1.387 . S
C703 C705 1.387 . S
H704 C711 0.950 . S
C705 C703 1.387 . S
C705 C707 1.390 1_565 S
C705 H709 0.950 . S
H706 C702 0.950 . S
C707 C705 1.390 1_545 S
C707 C708 1.387 . S
C707 H710 0.950 . S
C708 C707 1.387 . S
C708 C711 1.387 . S
H709 C705 0.950 . S
H710 C707 0.950 . S
C711 C702 1.390 1_545 S
C711 H704 0.950 . S
C711 C708 1.387 . S
C712 C713 1.387 . S
C712 H716 0.950 . S
C712 C721 1.390 1_556 S
C713 C712 1.387 . S
C713 C715 1.387 . S
H714 C721 0.950 . S
C715 C713 1.387 . S
C715 C717 1.390 1_556 S
C715 H719 0.950 . S
H716 C712 0.950 . S
C717 C715 1.390 1_554 S
C717 C718 1.387 . S
C717 H720 0.950 . S
C718 C717 1.387 . S
C718 C721 1.387 . S
H719 C715 0.950 . S
H720 C717 0.950 . S
C721 C712 1.390 1_554 S
C721 H714 0.950 . S
C721 C718 1.387 . S
C722 C723 1.387 . S
C722 H726 0.950 . S
C722 C731 1.390 1_565 S
C723 C722 1.387 . S
C723 C725 1.387 . S
H724 C731 0.950 . S
C725 C723 1.387 . S
C725 C727 1.390 1_565 S
C725 H729 0.950 . S
H726 C722 0.950 . S
C727 C725 1.390 1_545 S
C727 C728 1.387 . S
C727 H730 0.950 . S
C728 C727 1.387 . S
C728 C731 1.387 . S
H729 C725 0.950 . S
H730 C727 0.950 . S
C731 C722 1.390 1_545 S
C731 H724 0.950 . S
C731 C728 1.387 . S
C732 C733 1.387 . S
C732 H736 0.950 . S
C732 C741 1.390 . S
C733 C732 1.387 . S
C733 C735 1.387 . S
H734 C741 0.950 . S
C735 C733 1.387 . S
C735 C737 1.390 . S
C735 H739 0.950 . S
H736 C732 0.950 . S
C737 C735 1.390 . S
C737 C738 1.387 . S
C737 H740 0.950 . S
C738 C737 1.387 . S
C738 C741 1.387 . S
H739 C735 0.950 . S
H740 C737 0.950 . S
C741 C732 1.390 . S
C741 H734 0.950 . S
C741 C738 1.387 . S
C742 C743 1.387 . S
C742 H746 0.950 . S
C742 C751 1.390 1_545 S
C743 C742 1.387 . S
C743 C745 1.387 . S
H744 C751 0.950 . S
C745 C743 1.387 . S
C745 C747 1.390 1_545 S
C745 H749 0.950 . S
H746 C742 0.950 . S
C747 C745 1.390 1_565 S
C747 C748 1.387 . S
C747 H750 0.950 . S
C748 C747 1.387 . S
C748 C751 1.387 . S
H749 C745 0.950 . S
H750 C747 0.950 . S
C751 C742 1.390 1_565 S
C751 H744 0.950 . S
C751 C748 1.387 . S
C752 C753 1.387 . S
C752 H756 0.950 . S
C752 C761 1.390 . S
C753 C752 1.387 . S
C753 C755 1.387 . S
H754 C761 0.950 . S
C755 C753 1.387 . S
C755 C757 1.390 . S
C755 H759 0.950 . S
H756 C752 0.950 . S
C757 C755 1.390 . S
C757 C758 1.387 . S
C757 H760 0.950 . S
C758 C757 1.387 . S
C758 C761 1.387 . S
H759 C755 0.950 . S
H760 C757 0.950 . S
C761 C752 1.390 . S
C761 H754 0.950 . S
C761 C758 1.387 . S
C762 C763 1.387 . S
C762 H766 0.950 . S
C762 C771 1.390 . S
C763 C762 1.387 . S
C763 C765 1.387 . S
H764 C771 0.950 . S
C765 C763 1.387 . S
C765 C767 1.390 . S
C765 H769 0.950 . S
H766 C762 0.950 . S
C767 C765 1.390 . S
C767 C768 1.387 . S
C767 H770 0.950 . S
C768 C767 1.387 . S
C768 C771 1.387 . S
H769 C765 0.950 . S
H770 C767 0.950 . S
C771 C762 1.390 . S
C771 H764 0.950 . S
C771 C768 1.387 . S
C772 C773 1.387 . S
C772 H776 0.950 . S
C772 C781 1.390 1_554 S
C773 C772 1.387 . S
C773 C775 1.387 . S
H774 C781 0.950 . S
C775 C773 1.387 . S
C775 C777 1.390 1_554 S
C775 H779 0.950 . S
H776 C772 0.950 . S
C777 C775 1.390 1_556 S
C777 C778 1.387 . S
C777 H780 0.950 . S
C778 C777 1.387 . S
C778 C781 1.387 . S
H779 C775 0.950 . S
H780 C777 0.950 . S
C781 C772 1.390 1_556 S
C781 H774 0.950 . S
C781 C778 1.387 . S
C782 C783 1.387 . S
C782 H786 0.950 . S
C782 C791 1.390 . S
C783 C782 1.387 . S
C783 C785 1.387 . S
H784 C791 0.950 . S
C785 C783 1.387 . S
C785 C787 1.390 . S
C785 H789 0.950 . S
H786 C782 0.950 . S
C787 C785 1.390 . S
C787 C788 1.387 . S
C787 H790 0.950 . S
C788 C787 1.387 . S
C788 C791 1.387 . S
H789 C785 0.950 . S
H790 C787 0.950 . S
C791 C782 1.390 . S
C791 H784 0.950 . S
C791 C788 1.387 . S
C792 C793 1.387 . S
C792 H796 0.950 . S
C792 C801 1.390 . S
C793 C792 1.387 . S
C793 C795 1.387 . S
H794 C801 0.950 . S
C795 C793 1.387 . S
C795 C797 1.390 . S
C795 H799 0.950 . S
H796 C792 0.950 . S
C797 C795 1.390 . S
C797 C798 1.387 . S
C797 H800 0.950 . S
C798 C797 1.387 . S
C798 C801 1.387 . S
H799 C795 0.950 . S
H800 C797 0.950 . S
C801 C792 1.390 . S
C801 H794 0.950 . S
C801 C798 1.387 . S
C802 C803 1.387 . S
C802 H806 0.950 . S
C802 C811 1.390 . S
C803 C802 1.387 . S
C803 C805 1.387 . S
H804 C811 0.950 . S
C805 C803 1.387 . S
C805 C807 1.390 . S
C805 H809 0.950 . S
H806 C802 0.950 . S
C807 C805 1.390 . S
C807 C808 1.387 . S
C807 H810 0.950 . S
C808 C807 1.387 . S
C808 C811 1.387 . S
H809 C805 0.950 . S
H810 C807 0.950 . S
C811 C802 1.390 . S
C811 H804 0.950 . S
C811 C808 1.387 . S
C812 C813 1.387 . S
C812 H816 0.950 . S
C812 C821 1.390 1_556 S
C813 C812 1.387 . S
C813 C815 1.387 . S
H814 C821 0.950 . S
C815 C813 1.387 . S
C815 C817 1.390 1_556 S
C815 H819 0.950 . S
H816 C812 0.950 . S
C817 C815 1.390 1_554 S
C817 C818 1.387 . S
C817 H820 0.950 . S
C818 C817 1.387 . S
C818 C821 1.387 . S
H819 C815 0.950 . S
H820 C817 0.950 . S
C821 C812 1.390 1_554 S
C821 H814 0.950 . S
C821 C818 1.387 . S
C822 C823 1.387 . S
C822 H826 0.950 . S
C822 C831 1.390 . S
C823 C822 1.387 . S
C823 C825 1.387 . S
H824 C831 0.950 . S
C825 C823 1.387 . S
C825 C827 1.390 . S
C825 H829 0.950 . S
H826 C822 0.950 . S
C827 C825 1.390 . S
C827 C828 1.387 . S
C827 H830 0.950 . S
C828 C827 1.387 . S
C828 C831 1.387 . S
H829 C825 0.950 . S
H830 C827 0.950 . S
C831 C822 1.390 . S
C831 H824 0.950 . S
C831 C828 1.387 . S
C353 C272 1.550 . S
C358 C8 1.605 . S
C363 C19 1.609 . S
C368 C107 1.561 . S
C373 C294 1.547 . S
C378 C30 1.604 . S
C383 C41 1.609 . S
C388 C129 1.561 . S
C393 C52 1.605 . S
C398 C316 1.550 . S
C403 C63 1.608 . S
C408 C151 1.559 . S
C413 C74 1.604 . S
C418 C338 1.547 . S
C423 C173 1.561 . S
C428 C85 1.609 . S
C433 C184 1.604 . S
C438 C96 1.548 . S
C443 C118 1.549 . S
C448 C206 1.605 . S
C453 C228 1.604 . S
C458 C140 1.547 . S
C463 C250 1.604 . S
C468 C162 1.549 . S
C473 C283 1.547 . S
C478 C195 1.604 . S
C483 C217 1.605 . S
C488 C305 1.550 . S
C493 C327 1.550 . S
C498 C239 1.605 . S
C503 C349 1.550 . S
C508 C261 1.605 . S
C513 C236 1.392 . S
C518 C5 1.394 . S
C523 C247 1.390 . S
C528 C16 1.395 . S
C533 C27 1.390 . S
C538 C258 1.395 . S
C543 C38 1.395 . S
C548 C225 1.390 . S
C553 C214 1.390 . S
C558 C49 1.395 . S
C563 C60 1.395 . S
C568 C181 1.390 . S
C573 C71 1.395 . S
C578 C192 1.390 . S
C583 C82 1.390 . S
C588 C203 1.395 . S
C593 C93 1.287 . S
C598 C324 1.291 . S
C603 C104 1.286 . S
C608 C335 1.291 . S
C613 C346 1.292 . S
C618 C115 1.287 . S
C623 C126 1.291 . S
C628 C313 1.286 . S
C633 C302 1.286 . S
C638 C137 1.291 . S
C643 C148 1.292 . S
C648 C269 1.287 . S
C653 C280 1.286 . S
C658 C159 1.289 . S
C663 C291 1.286 . S
C668 C170 1.291 . S
C673 C73 1.581 . S
C678 C7 1.581 . S
C683 C84 1.582 . S
C688 C18 1.582 . S
C693 C51 1.581 . S
C698 C29 1.581 . S
C703 C62 1.581 . S
C708 C40 1.581 . S
C713 C95 1.513 . S
C718 C161 1.513 . S
C723 C172 1.514 . S
C728 C106 1.514 . S
C733 C117 1.514 . S
C738 C139 1.514 . S
C743 C150 1.513 . S
C748 C128 1.513 . S
C753 C183 1.582 . S
C758 C249 1.582 . S
C763 C194 1.582 . S
C768 C260 1.582 . S
C773 C205 1.581 . S
C778 C227 1.581 . S
C783 C216 1.582 . S
C788 C238 1.582 . S
C793 C337 1.513 . S
C798 C271 1.513 . S
C803 C348 1.513 . S
C808 C282 1.512 . S
C813 C293 1.513 . S
C818 C315 1.513 . S
C823 C326 1.514 . S
C828 C304 1.514 . S
