# Generated by pormake.
# Topology oob, (7)-cn, num edge types: 1
# Building blocks:
#     Node 0, Type 0, BuildingBlock: HICVOG_clean_sbu_0, # of connection points: 7
#     Node 1, Type 0, BuildingBlock: HICVOG_clean_sbu_0, # of connection points: 7
#     Node 2, Type 0, BuildingBlock: HICVOG_clean_sbu_0, # of connection points: 7
#     Node 3, Type 0, BuildingBlock: HICVOG_clean_sbu_0, # of connection points: 7
#     Edge 4, Type (0, 0), BuildingBlock: CIFDUS_clean_linker_0, # of connection points: 2
#     Edge 5, Type (0, 0), BuildingBlock: CIFDUS_clean_linker_0, # of connection points: 2
#     Edge 6, Type (0, 0), BuildingBlock: CIFDUS_clean_linker_0, # of connection points: 2
#     Edge 7, Type (0, 0), BuildingBlock: CIFDUS_clean_linker_0, # of connection points: 2
#     Edge 8, Type (0, 0), BuildingBlock: CIFDUS_clean_linker_0, # of connection points: 2
#     Edge 9, Type (0, 0), BuildingBlock: CIFDUS_clean_linker_0, # of connection points: 2
#     Edge 10, Type (0, 0), BuildingBlock: CIFDUS_clean_linker_0, # of connection points: 2
#     Edge 11, Type (0, 0), BuildingBlock: CIFDUS_clean_linker_0, # of connection points: 2
#     Edge 12, Type (0, 0), BuildingBlock: CIFDUS_clean_linker_0, # of connection points: 2
#     Edge 13, Type (0, 0), BuildingBlock: CIFDUS_clean_linker_0, # of connection points: 2
#     Edge 14, Type (0, 0), BuildingBlock: CIFDUS_clean_linker_0, # of connection points: 2
#     Edge 15, Type (0, 0), BuildingBlock: CIFDUS_clean_linker_0, # of connection points: 2
#     Edge 16, Type (0, 0), BuildingBlock: CIFDUS_clean_linker_0, # of connection points: 2
#     Edge 17, Type (0, 0), BuildingBlock: CIFDUS_clean_linker_0, # of connection points: 2
# Relax obj value: 0.272
# Max RMSD: 0.258
# Mean RMSD: 0.258
data_MOF--net-oob--node1-HICVOG_clean_sbu_0--edge1-CIFDUS_clean_linker_0
_symmetry_space_group_name_H-M    P1
_symmetry_Int_Tables_number       1
_symmetry_cell_setting            triclinic
loop_
_symmetry_equiv_pos_as_xyz
'x, y, z'
_cell_length_a     15.962833
_cell_length_b     35.93413
_cell_length_c     23.77515
_cell_angle_alpha  91.26985
_cell_angle_beta   106.94696
_cell_angle_gamma 90.18525
loop_
_atom_site_label
_atom_site_type_symbol
_atom_site_fract_x
_atom_site_fract_y
_atom_site_fract_z
_atom_type_partial_charge
Zn0 Zn 0.27504 0.0619 0.83325 0.0
C1 C 0.17358 0.03962 0.96396 0.0
N2 N 0.24296 0.06083 0.99161 0.0
C3 C 0.28985 0.06267 0.95375 0.0
N4 N 0.24917 0.04436 0.90309 0.0
N5 N 0.17594 0.02925 0.90894 0.0
C6 C 0.93716 0.03049 0.83864 0.0
O7 O 0.98212 0.05877 0.82793 0.0
O8 O 0.40451 0.05628 0.84126 0.0
Zn9 Zn 0.10265 0.9929 0.85231 0.0
N10 N 0.24568 0.11494 0.8303 0.0
C11 C 0.14885 0.15981 0.85133 0.0
C12 C 0.17385 0.12301 0.84781 0.0
C13 C 0.29299 0.14262 0.81478 0.0
N14 N 0.19569 0.18731 0.83611 0.0
C15 C 0.26708 0.18014 0.81743 0.0
O16 O 0.10273 0.99893 0.76778 0.0
C17 C 0.14178 1.01492 0.73515 0.0
O18 O 0.2057 0.0374 0.75607 0.0
H19 H 0.13668 0.10093 0.85972 0.0
H20 H 0.3503 0.13549 0.80144 0.0
C21 C 0.13303 0.91238 0.83924 0.0
C22 C 0.16715 0.87736 0.86053 0.0
C23 C 0.22342 0.9047 0.95609 0.0
C24 C 0.19177 0.93918 0.93466 0.0
N25 N 0.14532 0.9425 0.87711 0.0
N26 N 0.21061 0.87483 0.91875 0.0
H27 H 0.09743 0.91574 0.79341 0.0
C28 C 0.44534 0.02656 0.85989 0.0
O29 O 0.40269 0.99906 0.87514 0.0
O30 O 0.97396 0.999 0.84876 0.0
H31 H 0.20455 0.96312 0.96411 0.0
H32 H 0.0923 0.16651 0.86581 0.0
H33 H 0.25924 0.90179 1.00199 0.0
Zn34 Zn 0.76555 0.04992 0.29567 0.0
C35 C 0.88325 0.02719 0.17448 0.0
N36 N 0.81547 0.04542 0.13953 0.0
C37 C 0.76106 0.04857 0.17288 0.0
N38 N 0.79488 0.03328 0.226 0.0
N39 N 0.87138 1.01911 0.22674 0.0
C40 C 0.09966 0.99412 0.29272 0.0
O41 O 0.07531 0.02291 0.319 0.0
O42 O 0.63613 0.04804 0.28558 0.0
Zn43 Zn 0.92088 0.97654 0.27349 0.0
N44 N 0.80367 0.10164 0.30906 0.0
C45 C 0.9231 0.14365 0.34757 0.0
C46 C 0.89039 0.10743 0.33586 0.0
C47 C 0.74795 0.13077 0.29278 0.0
N48 N 0.86785 0.17271 0.33157 0.0
C49 C 0.78076 0.16765 0.3041 0.0
O50 O 0.92973 0.98325 0.35992 0.0
C51 C 0.89103 1.00092 0.39201 0.0
O52 O 0.82988 0.02387 0.3708 0.0
H53 H 0.93366 0.08397 0.34816 0.0
H54 H 0.67915 0.12505 0.27216 0.0
C55 C 0.85393 0.89934 0.26633 0.0
C56 C 0.80341 0.8686 0.23629 0.0
C57 C 0.74686 0.90618 0.15305 0.0
C58 C 0.79685 0.93622 0.18261 0.0
N59 N 0.8498 0.93248 0.23851 0.0
N60 N 0.75151 0.87326 0.18033 0.0
H61 H 0.89725 0.89682 0.3105 0.0
C62 C 0.59505 1.01835 0.28956 0.0
O63 O 0.63733 0.98668 0.29812 0.0
O64 O 0.04346 0.96904 0.26899 0.0
H65 H 0.79368 0.96221 0.16046 0.0
H66 H 0.99197 0.14866 0.36916 0.0
H67 H 0.70486 0.90892 0.10854 0.0
Zn68 Zn 0.72954 0.54314 0.28252 0.0
C69 C 0.64402 0.47149 0.38414 0.0
N70 N 0.72798 0.47251 0.41648 0.0
C71 C 0.76678 0.4945 0.38659 0.0
N72 N 0.70983 0.50536 0.3356 0.0
N73 N 0.63371 0.48946 0.33334 0.0
C74 C 0.40122 0.53006 0.30966 0.0
O75 O 0.46074 0.5547 0.33735 0.0
O76 O 0.85671 0.54231 0.28416 0.0
Zn77 Zn 0.53113 0.48315 0.26644 0.0
N78 N 0.7014 0.5924 0.30831 0.0
C79 C 0.64391 0.62879 0.37303 0.0
C80 C 0.65899 0.59425 0.35023 0.0
C81 C 0.72902 0.62393 0.28791 0.0
N82 N 0.67158 0.66021 0.35291 0.0
C83 C 0.71366 0.65905 0.31064 0.0
O84 O 0.54097 0.50256 0.18996 0.0
C85 C 0.5911 0.52013 0.1667 0.0
O86 O 0.66286 0.53481 0.19736 0.0
H87 H 0.63879 0.56903 0.36678 0.0
H88 H 0.76443 0.62143 0.25555 0.0
C89 C 0.56441 0.402 0.26735 0.0
C90 C 0.53667 0.36469 0.25185 0.0
C91 C 0.39425 0.38652 0.20223 0.0
C92 C 0.42191 0.423 0.21771 0.0
N93 N 0.50595 0.43017 0.25003 0.0
N94 N 0.45185 0.35847 0.21957 0.0
H95 H 0.63125 0.40882 0.29183 0.0
C96 C 0.89033 0.51154 0.27549 0.0
O97 O 0.84036 0.48157 0.26311 0.0
O98 O 0.42208 0.50291 0.28159 0.0
H99 H 0.37671 0.44566 0.20383 0.0
H100 H 0.61084 0.63064 0.40675 0.0
H101 H 0.32748 0.38047 0.17649 0.0
Zn102 Zn 0.25159 0.56211 0.71569 0.0
C103 C 0.35426 0.52878 0.59011 0.0
N104 N 0.27697 0.54082 0.55636 0.0
C105 C 0.23127 0.54591 0.59497 0.0
N106 N 0.27898 0.53778 0.64984 0.0
N107 N 0.3558 0.52553 0.64712 0.0
C108 C 0.59871 0.52672 0.72983 0.0
O109 O 0.55883 0.55331 0.75056 0.0
O110 O 0.12339 0.55509 0.70972 0.0
Zn111 Zn 0.42896 0.49219 0.706 0.0
N112 N 0.27578 0.6155 0.71196 0.0
C113 C 0.35115 0.66154 0.6742 0.0
C114 C 0.33343 0.62439 0.68194 0.0
C115 C 0.2364 0.64276 0.73601 0.0
N116 N 0.31184 0.6886 0.69773 0.0
C117 C 0.2551 0.68063 0.72896 0.0
O118 O 0.42578 0.5033 0.78958 0.0
C119 C 0.38407 0.52214 0.81853 0.0
O120 O 0.32101 0.54334 0.79399 0.0
H121 H 0.3652 0.60278 0.66366 0.0
H122 H 0.19052 0.63498 0.75949 0.0
C123 C 0.39618 0.41204 0.72301 0.0
C124 C 0.37178 0.37521 0.70171 0.0
C125 C 0.33881 0.39645 0.60395 0.0
C126 C 0.36207 0.4325 0.62506 0.0
N127 N 0.39157 0.43992 0.68386 0.0
N128 N 0.34428 0.36883 0.64252 0.0
H129 H 0.41958 0.41834 0.76972 0.0
C130 C 0.09528 0.52371 0.7206 0.0
O131 O 0.15013 0.4959 0.73462 0.0
O132 O 0.55588 0.49737 0.70768 0.0
H133 H 0.35671 0.45431 0.59442 0.0
H134 H 0.39626 0.66887 0.64989 0.0
H135 H 0.3161 0.39045 0.55713 0.0
H136 H 0.83484 0.98175 0.87657 0.0
H137 H 0.83382 0.09116 0.805 0.0
H138 H 0.68321 0.10008 0.80695 0.0
H139 H 0.55039 0.07647 0.82699 0.0
H140 H 0.55119 0.96713 0.89877 0.0
H141 H 0.703 0.95876 0.89904 0.0
C142 C 0.8016 1.0075 0.8612 0.0
C143 C 0.84558 0.0356 0.8402 0.0
C144 C 0.7148 1.01255 0.86259 0.0
C145 C 0.80169 0.06898 0.8212 0.0
C146 C 0.7154 0.07414 0.8223 0.0
C147 C 0.58375 0.05082 0.84284 0.0
C148 C 0.53894 0.02239 0.86243 0.0
C149 C 0.67113 0.04607 0.84265 0.0
C150 C 0.58365 0.98944 0.88311 0.0
C151 C 0.67061 0.98458 0.88325 0.0
H152 H 0.47925 0.96051 0.27498 0.0
H153 H 0.5006 0.08003 0.2983 0.0
H154 H 0.3492 0.08295 0.30088 0.0
H155 H 0.21259 0.05155 0.30039 0.0
H156 H 0.18763 0.9325 0.27285 0.0
H157 H 0.33855 0.9294 0.26797 0.0
C158 C 0.45066 0.98719 0.2805 0.0
C159 C 0.50149 1.01993 0.28712 0.0
C160 C 0.36312 0.98875 0.28148 0.0
C161 C 0.46309 0.05436 0.29331 0.0
C162 C 0.37654 0.05608 0.29497 0.0
C163 C 0.24031 0.02491 0.29351 0.0
C164 C 0.18971 0.99223 0.28792 0.0
C165 C 0.32636 0.02344 0.28985 0.0
C166 C 0.22564 0.95802 0.27763 0.0
C167 C 0.31186 0.95623 0.27488 0.0
H168 H 0.27531 0.47721 0.27323 0.0
H169 H 0.32091 0.588 0.35054 0.0
H170 H 0.1664 0.59189 0.34784 0.0
H171 H 0.01731 0.56433 0.31985 0.0
H172 H 0.97549 0.45324 0.24312 0.0
H173 H 0.13015 0.4491 0.24918 0.0
C174 C 0.25176 0.50235 0.28944 0.0
C175 C 0.30938 0.53251 0.31129 0.0
C176 C 0.16348 0.50438 0.2876 0.0
C177 C 0.27781 0.56449 0.33313 0.0
C178 C 0.18949 0.56674 0.33147 0.0
C179 C 0.04207 0.53927 0.30432 0.0
C180 C 0.98466 0.50928 0.28043 0.0
C181 C 0.13149 0.53698 0.30811 0.0
C182 C 0.01801 0.47678 0.2614 0.0
C183 C 0.10648 0.47437 0.26483 0.0
H184 H 0.71118 0.47419 0.71132 0.0
H185 H 0.69057 0.59201 0.74327 0.0
H186 H 0.84043 0.60179 0.73993 0.0
H187 H 0.97905 0.57675 0.73054 0.0
H188 H 0.0027 0.45855 0.7042 0.0
H189 H 0.85023 0.44908 0.70248 0.0
C190 C 0.73949 0.502 0.71749 0.0
C191 C 0.6898 0.53229 0.72778 0.0
C192 C 0.82638 0.50737 0.71652 0.0
C193 C 0.72754 0.56814 0.73579 0.0
C194 C 0.81322 0.5738 0.73371 0.0
C195 C 0.9506 0.54896 0.72409 0.0
C196 C 0.00209 0.5184 0.71759 0.0
C197 C 0.86347 0.54361 0.72448 0.0
C198 C 0.96459 0.48251 0.70973 0.0
C199 C 0.87737 0.47707 0.70865 0.0
H200 H 0.97348 1.00343 0.66854 0.0
H201 H 0.23721 1.01312 0.65694 0.0
H202 H 0.1833 1.0056 0.54978 0.0
H203 H 0.06025 0.99974 0.45886 0.0
H204 H 0.79558 0.99737 0.46988 0.0
H205 H 0.85029 0.9982 0.57754 0.0
C206 C 0.01913 1.00348 0.64251 0.0
C207 C 0.10927 1.00858 0.67059 0.0
C208 C 0.98729 1.0005 0.58077 0.0
C209 C 0.16756 1.00928 0.6363 0.0
C210 C 0.13676 1.00495 0.57507 0.0
C211 C 0.01477 0.99881 0.48497 0.0
C212 C 0.9241 0.99799 0.45668 0.0
C213 C 0.04669 1.00096 0.54675 0.0
C214 C 0.86564 0.99777 0.49083 0.0
C215 C 0.89693 0.99835 0.5523 0.0
H216 H 0.54821 0.524 0.89402 0.0
H217 H 0.27578 0.51607 0.88681 0.0
H218 H 0.31574 0.51414 0.99418 0.0
H219 H 0.42802 0.51542 0.08997 0.0
H220 H 0.70006 0.52869 0.09807 0.0
H221 H 0.66061 0.5283 0.99064 0.0
C222 C 0.49796 0.52156 0.9162 0.0
C223 C 0.40942 0.51974 0.883 0.0
C224 C 0.52131 0.5218 0.97796 0.0
C225 C 0.3444 0.51739 0.91181 0.0
C226 C 0.36719 0.51633 0.97306 0.0
C227 C 0.47865 0.51824 0.0682 0.0
C228 C 0.56679 0.5219 0.10187 0.0
C229 C 0.45538 0.51868 1.00657 0.0
C230 C 0.63163 0.526 0.0731 0.0
C231 C 0.6092 0.52558 1.01169 0.0
H232 H 0.3773 1.01472 1.02919 0.0
H233 H 0.41168 0.11398 0.93979 0.0
H234 H 0.56295 0.12077 1.00528 0.0
H235 H 0.68188 0.09884 0.09151 0.0
H236 H 0.63467 1.00278 0.1839 0.0
H237 H 0.48794 0.99597 0.11662 0.0
C238 C 0.41851 0.03763 1.02356 0.0
C239 C 0.38502 0.06347 0.97948 0.0
C240 C 0.50055 0.04296 0.06395 0.0
C241 C 0.43757 0.09333 0.9727 0.0
C242 C 0.52289 0.09754 1.01084 0.0
C243 C 0.63793 0.07729 0.09778 0.0
C244 C 0.6672 0.05226 0.14407 0.0
C245 C 0.55413 0.07296 0.0576 0.0
C246 C 0.61153 0.02362 0.15091 0.0
C247 C 0.52879 1.019 0.11126 0.0
H248 H 0.1101 0.58561 0.51617 0.0
H249 H 0.14784 0.48786 0.62229 0.0
H250 H 0.00873 0.46216 0.56276 0.0
H251 H 0.88752 0.46378 0.47394 0.0
H252 H 0.83355 0.56449 0.37581 0.0
H253 H 0.9714 0.59181 0.43551 0.0
C254 C 0.08556 0.55948 0.52746 0.0
C255 C 0.13726 0.5391 0.57435 0.0
C256 C 0.00615 0.54439 0.49207 0.0
C257 C 0.10693 0.50476 0.58802 0.0
C258 C 0.0287 0.48953 0.55294 0.0
C259 C 0.90572 0.49174 0.46526 0.0
C260 C 0.85286 0.51111 0.41746 0.0
C261 C 0.97986 0.50849 0.50362 0.0
C262 C 0.87604 0.54774 0.40867 0.0
C263 C 0.9537 0.56385 0.44433 0.0
H264 H 0.8959 0.98145 0.08593 0.0
H265 H 0.0379 0.06131 0.21734 0.0
H266 H 0.14265 0.07109 0.16228 0.0
H267 H 0.17517 0.06579 0.07018 0.0
H268 H 0.05001 0.98093 0.94217 0.0
H269 H 0.95184 0.96587 1.00054 0.0
C270 C 0.95236 0.99961 0.10353 0.0
C271 C 0.96113 1.02004 0.15611 0.0
C272 C 0.01054 1.00605 0.07041 0.0
C273 C 0.03234 0.04435 0.17813 0.0
C274 C 0.0907 0.05063 0.14587 0.0
C275 C 0.1271 0.04368 0.05434 0.0
C276 C 0.11497 0.02678 0.99833 0.0
C277 C 0.07735 0.03306 0.09069 0.0
C278 C 0.05443 0.99731 0.98113 0.0
C279 C 1.00072 0.98768 1.01602 0.0
H280 H 0.32915 0.48459 0.49357 0.0
H281 H 0.52428 0.54956 0.62147 0.0
H282 H 0.63335 0.53352 0.5713 0.0
H283 H 0.66777 0.50614 0.48754 0.0
H284 H 0.47358 0.44348 0.35421 0.0
H285 H 0.36669 0.45444 0.40925 0.0
C286 C 0.39628 0.49446 0.5109 0.0
C287 C 0.42137 0.51613 0.56342 0.0
C288 C 0.45691 0.48629 0.48015 0.0
C289 C 0.50656 0.5303 0.58426 0.0
C290 C 0.56772 0.52195 0.55457 0.0
C291 C 0.60268 0.49396 0.47073 0.0
C292 C 0.57844 0.47384 0.41676 0.0
C293 C 0.54309 0.50033 0.50233 0.0
C294 C 0.49338 0.45921 0.3953 0.0
C295 C 0.43273 0.46539 0.42691 0.0
H296 H 0.27959 0.25173 0.85873 0.0
H297 H 0.3512 0.181 0.73126 0.0
H298 H 0.4005 0.23539 0.68966 0.0
H299 H 0.4066 0.30332 0.68167 0.0
H300 H 0.33106 0.37448 0.80679 0.0
H301 H 0.3013 0.31969 0.85751 0.0
C302 C 0.30712 0.2481 0.82233 0.0
C303 C 0.31117 0.21209 0.7982 0.0
C304 C 0.33422 0.27968 0.79791 0.0
C305 C 0.34793 0.20805 0.75139 0.0
C306 C 0.37547 0.2393 0.72711 0.0
C307 C 0.38496 0.30691 0.72065 0.0
C308 C 0.37072 0.34309 0.74011 0.0
C309 C 0.36653 0.27527 0.74892 0.0
C310 C 0.34349 0.34715 0.79104 0.0
C311 C 0.32554 0.31573 0.81972 0.0
H312 H 0.51258 0.29574 0.20038 0.0
H313 H 0.69219 0.35849 0.3425 0.0
H314 H 0.78194 0.30338 0.36984 0.0
H315 H 0.80833 0.2369 0.35512 0.0
H316 H 0.62727 0.17443 0.21351 0.0
H317 H 0.53862 0.22975 0.18569 0.0
C318 C 0.57127 0.29761 0.2375 0.0
C319 C 0.59526 0.33181 0.26865 0.0
C320 C 0.62207 0.26558 0.25379 0.0
C321 C 0.67213 0.3332 0.31647 0.0
C322 C 0.72341 0.30142 0.33266 0.0
C323 C 0.74947 0.23527 0.3181 0.0
C324 C 0.72433 0.20106 0.28726 0.0
C325 C 0.69883 0.26743 0.30177 0.0
C326 C 0.64766 0.19979 0.23937 0.0
C327 C 0.59713 0.23165 0.2229 0.0
H328 H 0.78278 0.80176 0.17941 0.0
H329 H 0.82127 0.85161 0.352 0.0
H330 H 0.80178 0.79063 0.39056 0.0
H331 H 0.76276 0.72385 0.37338 0.0
H332 H 0.72229 0.67496 0.19981 0.0
H333 H 0.75389 0.73478 0.16379 0.0
C334 C 0.78767 0.79931 0.22565 0.0
C335 C 0.80339 0.83137 0.26263 0.0
C336 C 0.77554 0.76427 0.24734 0.0
C337 C 0.81034 0.8275 0.32255 0.0
C338 C 0.79835 0.79261 0.34453 0.0
C339 C 0.76146 0.72621 0.32774 0.0
C340 C 0.74042 0.69469 0.28957 0.0
C341 C 0.77925 0.76093 0.30705 0.0
C342 C 0.73961 0.69833 0.23063 0.0
C343 C 0.757 0.73271 0.20977 0.0
H344 H 0.2191 0.75024 0.68663 0.0
H345 H 0.21206 0.68278 0.83324 0.0
H346 H 0.17435 0.73738 0.88342 0.0
H347 H 0.15902 0.8053 0.89041 0.0
H348 H 0.16962 0.87308 0.74496 0.0
H349 H 0.18896 0.81736 0.68951 0.0
C350 C 0.20823 0.74733 0.72928 0.0
C351 C 0.21872 0.71224 0.75597 0.0
C352 C 0.18754 0.77903 0.75833 0.0
C353 C 0.20355 0.7091 0.81106 0.0
C354 C 0.18272 0.74049 0.84014 0.0
C355 C 0.16428 0.8079 0.8462 0.0
C356 C 0.16295 0.84354 0.82215 0.0
C357 C 0.17677 0.77572 0.81484 0.0
C358 C 0.1692 0.8462 0.76457 0.0
C359 C 0.18125 0.81427 0.73298 0.0
loop_
_geom_bond_atom_site_label_1
_geom_bond_atom_site_label_2
_geom_bond_distance
_geom_bond_site_symmetry_2
_ccdc_geom_bond_type
Zn0 N4 2.020 . S
Zn0 O8 2.019 . S
Zn0 N10 2.119 . S
Zn0 O18 1.975 . S
C1 N2 1.337 . S
C1 N5 1.336 . S
N2 C1 1.337 . S
N2 C3 1.330 1_565 S
C3 N2 1.330 1_545 S
C3 N4 1.336 . S
N4 Zn0 2.020 . S
N4 C3 1.336 . S
N4 N5 1.354 1_545 S
N5 C1 1.336 . S
N5 N4 1.354 1_565 S
N5 Zn9 2.020 . S
C6 O7 1.244 1_565 S
C6 O30 1.257 . S
O7 C6 1.244 1_545 S
O8 Zn0 2.019 . S
O8 C28 1.257 . S
Zn9 N5 2.020 . S
Zn9 O16 1.975 . S
Zn9 N25 2.119 . S
Zn9 O30 2.019 1_455 S
N10 Zn0 2.119 . S
N10 C12 1.334 . S
N10 C13 1.328 . S
C11 C12 1.391 . S
C11 N14 1.329 . S
C11 H32 0.930 . S
C12 N10 1.334 . S
C12 C11 1.391 . S
C12 H19 0.930 . S
C13 N10 1.328 . S
C13 C15 1.392 . S
C13 H20 0.930 . S
N14 C11 1.329 . S
N14 C15 1.331 . S
C15 C13 1.392 . S
C15 N14 1.331 . S
O16 Zn9 1.975 . S
O16 C17 1.250 1_565 S
C17 O16 1.250 1_545 S
C17 O18 1.254 . S
O18 Zn0 1.975 . S
O18 C17 1.254 . S
H19 C12 0.930 . S
H20 C13 0.930 . S
C21 C22 1.392 . S
C21 N25 1.328 . S
C21 H27 0.930 . S
C22 C21 1.392 . S
C22 N26 1.331 . S
C23 C24 1.391 . S
C23 N26 1.329 . S
C23 H33 0.930 . S
C24 C23 1.391 . S
C24 N25 1.334 . S
C24 H31 0.930 . S
N25 Zn9 2.119 . S
N25 C21 1.328 . S
N25 C24 1.334 . S
N26 C22 1.331 . S
N26 C23 1.329 . S
H27 C21 0.930 . S
C28 O8 1.257 . S
C28 O29 1.244 1_545 S
O29 C28 1.244 1_565 S
O30 C6 1.257 . S
O30 Zn9 2.019 1_655 S
H31 C24 0.930 . S
H32 C11 0.930 . S
H33 C23 0.930 . S
Zn34 N38 2.020 . S
Zn34 O42 2.019 . S
Zn34 N44 2.119 . S
Zn34 O52 1.975 . S
C35 N36 1.338 . S
C35 N39 1.336 . S
N36 C35 1.338 . S
N36 C37 1.330 1_565 S
C37 N36 1.330 1_545 S
C37 N38 1.336 . S
N38 Zn34 2.020 . S
N38 C37 1.336 . S
N38 N39 1.354 1_545 S
N39 C35 1.336 . S
N39 N38 1.354 1_565 S
N39 Zn43 2.020 . S
C40 O41 1.244 1_565 S
C40 O64 1.257 . S
O41 C40 1.244 1_545 S
O42 Zn34 2.019 . S
O42 C62 1.257 . S
Zn43 N39 2.020 . S
Zn43 O50 1.975 . S
Zn43 N59 2.119 . S
Zn43 O64 2.019 1_655 S
N44 Zn34 2.119 . S
N44 C46 1.334 . S
N44 C47 1.328 . S
C45 C46 1.391 . S
C45 N48 1.329 . S
C45 H66 0.930 . S
C46 N44 1.334 . S
C46 C45 1.391 . S
C46 H53 0.930 . S
C47 N44 1.328 . S
C47 C49 1.392 . S
C47 H54 0.930 . S
N48 C45 1.329 . S
N48 C49 1.331 . S
C49 C47 1.392 . S
C49 N48 1.331 . S
O50 Zn43 1.975 . S
O50 C51 1.250 1_565 S
C51 O50 1.250 1_545 S
C51 O52 1.254 . S
O52 Zn34 1.975 . S
O52 C51 1.254 . S
H53 C46 0.930 . S
H54 C47 0.930 . S
C55 C56 1.392 . S
C55 N59 1.328 . S
C55 H61 0.930 . S
C56 C55 1.392 . S
C56 N60 1.331 . S
C57 C58 1.391 . S
C57 N60 1.329 . S
C57 H67 0.930 . S
C58 C57 1.391 . S
C58 N59 1.334 . S
C58 H65 0.930 . S
N59 Zn43 2.119 . S
N59 C55 1.328 . S
N59 C58 1.334 . S
N60 C56 1.331 . S
N60 C57 1.329 . S
H61 C55 0.930 . S
C62 O42 1.257 . S
C62 O63 1.244 1_545 S
O63 C62 1.244 1_565 S
O64 C40 1.257 . S
O64 Zn43 2.019 1_455 S
H65 C58 0.930 . S
H66 C45 0.930 . S
H67 C57 0.930 . S
Zn68 N72 2.020 . S
Zn68 O76 2.019 . S
Zn68 N78 2.119 . S
Zn68 O86 1.975 . S
C69 N70 1.334 . S
C69 N73 1.336 . S
N70 C69 1.334 . S
N70 C71 1.334 . S
C71 N70 1.334 . S
C71 N72 1.336 . S
N72 Zn68 2.020 . S
N72 C71 1.336 . S
N72 N73 1.354 . S
N73 C69 1.336 . S
N73 N72 1.354 . S
N73 Zn77 2.020 . S
C74 O75 1.244 . S
C74 O98 1.257 . S
O75 C74 1.244 . S
O76 Zn68 2.019 . S
O76 C96 1.257 . S
Zn77 N73 2.020 . S
Zn77 O84 1.975 . S
Zn77 N93 2.119 . S
Zn77 O98 2.019 . S
N78 Zn68 2.119 . S
N78 C80 1.334 . S
N78 C81 1.328 . S
C79 C80 1.391 . S
C79 N82 1.329 . S
C79 H100 0.930 . S
C80 N78 1.334 . S
C80 C79 1.391 . S
C80 H87 0.930 . S
C81 N78 1.328 . S
C81 C83 1.392 . S
C81 H88 0.930 . S
N82 C79 1.329 . S
N82 C83 1.331 . S
C83 C81 1.392 . S
C83 N82 1.331 . S
O84 Zn77 1.975 . S
O84 C85 1.252 . S
C85 O84 1.252 . S
C85 O86 1.252 . S
O86 Zn68 1.975 . S
O86 C85 1.252 . S
H87 C80 0.930 . S
H88 C81 0.930 . S
C89 C90 1.392 . S
C89 N93 1.328 . S
C89 H95 0.930 . S
C90 C89 1.392 . S
C90 N94 1.331 . S
C91 C92 1.391 . S
C91 N94 1.329 . S
C91 H101 0.930 . S
C92 C91 1.391 . S
C92 N93 1.334 . S
C92 H99 0.930 . S
N93 Zn77 2.119 . S
N93 C89 1.328 . S
N93 C92 1.334 . S
N94 C90 1.331 . S
N94 C91 1.329 . S
H95 C89 0.930 . S
C96 O76 1.257 . S
C96 O97 1.244 . S
O97 C96 1.244 . S
O98 C74 1.257 . S
O98 Zn77 2.019 . S
H99 C92 0.930 . S
H100 C79 0.930 . S
H101 C91 0.930 . S
Zn102 N106 2.020 . S
Zn102 O110 2.019 . S
Zn102 N112 2.119 . S
Zn102 O120 1.975 . S
C103 N104 1.334 . S
C103 N107 1.336 . S
N104 C103 1.334 . S
N104 C105 1.334 . S
C105 N104 1.334 . S
C105 N106 1.336 . S
N106 Zn102 2.020 . S
N106 C105 1.336 . S
N106 N107 1.354 . S
N107 C103 1.336 . S
N107 N106 1.354 . S
N107 Zn111 2.020 . S
C108 O109 1.244 . S
C108 O132 1.257 . S
O109 C108 1.244 . S
O110 Zn102 2.019 . S
O110 C130 1.257 . S
Zn111 N107 2.020 . S
Zn111 O118 1.975 . S
Zn111 N127 2.119 . S
Zn111 O132 2.019 . S
N112 Zn102 2.119 . S
N112 C114 1.334 . S
N112 C115 1.328 . S
C113 C114 1.391 . S
C113 N116 1.329 . S
C113 H134 0.930 . S
C114 N112 1.334 . S
C114 C113 1.391 . S
C114 H121 0.930 . S
C115 N112 1.328 . S
C115 C117 1.392 . S
C115 H122 0.930 . S
N116 C113 1.329 . S
N116 C117 1.331 . S
C117 C115 1.392 . S
C117 N116 1.331 . S
O118 Zn111 1.975 . S
O118 C119 1.252 . S
C119 O118 1.252 . S
C119 O120 1.252 . S
O120 Zn102 1.975 . S
O120 C119 1.252 . S
H121 C114 0.930 . S
H122 C115 0.930 . S
C123 C124 1.392 . S
C123 N127 1.328 . S
C123 H129 0.930 . S
C124 C123 1.392 . S
C124 N128 1.331 . S
C125 C126 1.391 . S
C125 N128 1.329 . S
C125 H135 0.930 . S
C126 C125 1.391 . S
C126 N127 1.334 . S
C126 H133 0.930 . S
N127 Zn111 2.119 . S
N127 C123 1.328 . S
N127 C126 1.334 . S
N128 C124 1.331 . S
N128 C125 1.329 . S
H129 C123 0.930 . S
C130 O110 1.257 . S
C130 O131 1.244 . S
O131 C130 1.244 . S
O132 C108 1.257 . S
O132 Zn111 2.019 . S
H133 C126 0.930 . S
H134 C113 0.930 . S
H135 C125 0.930 . S
H136 C142 0.930 . S
H137 C145 0.930 . S
H138 C146 0.930 . S
H139 C147 0.930 . S
H140 C150 0.930 . S
H141 C151 0.930 . S
C142 H136 0.930 . S
C142 C143 1.355 . S
C142 C144 1.415 . S
C143 C142 1.355 . S
C143 C145 1.419 1_565 S
C144 C142 1.415 . S
C144 C149 1.425 1_565 S
C144 C151 1.409 . S
C145 H137 0.930 . S
C145 C143 1.419 1_545 S
C145 C146 1.362 . S
C146 H138 0.930 . S
C146 C145 1.362 . S
C146 C149 1.409 . S
C147 H139 0.930 . S
C147 C148 1.355 . S
C147 C149 1.415 . S
C148 C147 1.355 . S
C148 C150 1.419 1_545 S
C149 C144 1.425 1_545 S
C149 C146 1.409 . S
C149 C147 1.415 . S
C150 H140 0.930 . S
C150 C148 1.419 1_565 S
C150 C151 1.362 . S
C151 H141 0.930 . S
C151 C144 1.409 . S
C151 C150 1.362 . S
H152 C158 0.930 . S
H153 C161 0.930 . S
H154 C162 0.930 . S
H155 C163 0.930 . S
H156 C166 0.930 . S
H157 C167 0.930 . S
C158 H152 0.930 . S
C158 C159 1.355 1_565 S
C158 C160 1.415 . S
C159 C158 1.355 1_545 S
C159 C161 1.419 . S
C160 C158 1.415 . S
C160 C165 1.425 1_565 S
C160 C167 1.409 . S
C161 H153 0.930 . S
C161 C159 1.419 . S
C161 C162 1.362 . S
C162 H154 0.930 . S
C162 C161 1.362 . S
C162 C165 1.409 . S
C163 H155 0.930 . S
C163 C164 1.355 1_545 S
C163 C165 1.415 . S
C164 C163 1.355 1_565 S
C164 C166 1.419 . S
C165 C160 1.425 1_545 S
C165 C162 1.409 . S
C165 C163 1.415 . S
C166 H156 0.930 . S
C166 C164 1.419 . S
C166 C167 1.362 . S
C167 H157 0.930 . S
C167 C160 1.409 . S
C167 C166 1.362 . S
H168 C174 0.930 . S
H169 C177 0.930 . S
H170 C178 0.930 . S
H171 C179 0.930 . S
H172 C182 0.930 1_655 S
H173 C183 0.930 . S
C174 H168 0.930 . S
C174 C175 1.355 . S
C174 C176 1.415 . S
C175 C174 1.355 . S
C175 C177 1.419 . S
C176 C174 1.415 . S
C176 C181 1.425 . S
C176 C183 1.409 . S
C177 H169 0.930 . S
C177 C175 1.419 . S
C177 C178 1.362 . S
C178 H170 0.930 . S
C178 C177 1.362 . S
C178 C181 1.409 . S
C179 H171 0.930 . S
C179 C180 1.355 . S
C179 C181 1.415 . S
C180 C179 1.355 . S
C180 C182 1.419 . S
C181 C176 1.425 . S
C181 C178 1.409 . S
C181 C179 1.415 . S
C182 H172 0.930 1_455 S
C182 C180 1.419 . S
C182 C183 1.362 . S
C183 H173 0.930 . S
C183 C176 1.409 . S
C183 C182 1.362 . S
H184 C190 0.930 . S
H185 C193 0.930 . S
H186 C194 0.930 . S
H187 C195 0.930 . S
H188 C198 0.930 . S
H189 C199 0.930 . S
C190 H184 0.930 . S
C190 C191 1.355 . S
C190 C192 1.415 . S
C191 C190 1.355 . S
C191 C193 1.419 . S
C192 C190 1.415 . S
C192 C197 1.425 . S
C192 C199 1.409 . S
C193 H185 0.930 . S
C193 C191 1.419 . S
C193 C194 1.362 . S
C194 H186 0.930 . S
C194 C193 1.362 . S
C194 C197 1.409 . S
C195 H187 0.930 . S
C195 C196 1.355 . S
C195 C197 1.415 . S
C196 C195 1.355 . S
C196 C198 1.419 . S
C197 C192 1.425 . S
C197 C194 1.409 . S
C197 C195 1.415 . S
C198 H188 0.930 . S
C198 C196 1.419 . S
C198 C199 1.362 . S
C199 H189 0.930 . S
C199 C192 1.409 . S
C199 C198 1.362 . S
H200 C206 0.930 1_655 S
H201 C209 0.930 . S
H202 C210 0.930 . S
H203 C211 0.930 1_455 S
H204 C214 0.930 . S
H205 C215 0.930 . S
C206 H200 0.930 1_455 S
C206 C207 1.355 1_545 S
C206 C208 1.415 1_455 S
C207 C206 1.355 1_565 S
C207 C209 1.419 . S
C208 C206 1.415 1_655 S
C208 C213 1.425 1_645 S
C208 C215 1.409 . S
C209 H201 0.930 . S
C209 C207 1.419 . S
C209 C210 1.362 . S
C210 H202 0.930 . S
C210 C209 1.362 . S
C210 C213 1.409 . S
C211 H203 0.930 1_655 S
C211 C212 1.355 1_565 S
C211 C213 1.415 1_655 S
C212 C211 1.355 1_545 S
C212 C214 1.419 . S
C213 C208 1.425 1_465 S
C213 C210 1.409 . S
C213 C211 1.415 1_455 S
C214 H204 0.930 . S
C214 C212 1.419 . S
C214 C215 1.362 . S
C215 H205 0.930 . S
C215 C208 1.409 . S
C215 C214 1.362 . S
H216 C222 0.930 . S
H217 C225 0.930 . S
H218 C226 0.930 . S
H219 C227 0.930 . S
H220 C230 0.930 . S
H221 C231 0.930 . S
C222 H216 0.930 . S
C222 C223 1.355 . S
C222 C224 1.415 . S
C223 C222 1.355 . S
C223 C225 1.419 . S
C224 C222 1.415 . S
C224 C229 1.425 1_556 S
C224 C231 1.409 1_556 S
C225 H217 0.930 . S
C225 C223 1.419 . S
C225 C226 1.362 . S
C226 H218 0.930 . S
C226 C225 1.362 . S
C226 C229 1.409 1_556 S
C227 H219 0.930 . S
C227 C228 1.355 . S
C227 C229 1.415 . S
C228 C227 1.355 . S
C228 C230 1.419 . S
C229 C224 1.425 1_554 S
C229 C226 1.409 1_554 S
C229 C227 1.415 . S
C230 H220 0.930 . S
C230 C228 1.419 . S
C230 C231 1.362 . S
C231 H221 0.930 . S
C231 C224 1.409 1_554 S
C231 C230 1.362 . S
H232 C238 0.930 . S
H233 C241 0.930 . S
H234 C242 0.930 . S
H235 C243 0.930 . S
H236 C246 0.930 . S
H237 C247 0.930 . S
C238 H232 0.930 . S
C238 C239 1.355 . S
C238 C240 1.415 . S
C239 C238 1.355 . S
C239 C241 1.419 . S
C240 C238 1.415 . S
C240 C245 1.425 1_556 S
C240 C247 1.409 . S
C241 H233 0.930 . S
C241 C239 1.419 . S
C241 C242 1.362 1_556 S
C242 H234 0.930 . S
C242 C241 1.362 1_554 S
C242 C245 1.409 . S
C243 H235 0.930 . S
C243 C244 1.355 . S
C243 C245 1.415 . S
C244 C243 1.355 . S
C244 C246 1.419 . S
C245 C240 1.425 1_554 S
C245 C242 1.409 . S
C245 C243 1.415 . S
C246 H236 0.930 . S
C246 C244 1.419 . S
C246 C247 1.362 1_554 S
C247 H237 0.930 . S
C247 C240 1.409 . S
C247 C246 1.362 1_556 S
H248 C254 0.930 . S
H249 C257 0.930 . S
H250 C258 0.930 . S
H251 C259 0.930 . S
H252 C262 0.930 . S
H253 C263 0.930 . S
C254 H248 0.930 . S
C254 C255 1.355 . S
C254 C256 1.415 . S
C255 C254 1.355 . S
C255 C257 1.419 . S
C256 C254 1.415 . S
C256 C261 1.425 1_455 S
C256 C263 1.409 . S
C257 H249 0.930 . S
C257 C255 1.419 . S
C257 C258 1.362 1_455 S
C258 H250 0.930 . S
C258 C257 1.362 1_655 S
C258 C261 1.409 . S
C259 H251 0.930 . S
C259 C260 1.355 . S
C259 C261 1.415 . S
C260 C259 1.355 . S
C260 C262 1.419 . S
C261 C256 1.425 1_655 S
C261 C258 1.409 . S
C261 C259 1.415 . S
C262 H252 0.930 . S
C262 C260 1.419 . S
C262 C263 1.362 1_655 S
C263 H253 0.930 . S
C263 C256 1.409 . S
C263 C262 1.362 1_455 S
H264 C270 0.930 . S
H265 C273 0.930 . S
H266 C274 0.930 . S
H267 C275 0.930 1_545 S
H268 C278 0.930 . S
H269 C279 0.930 . S
C270 H264 0.930 . S
C270 C271 1.355 . S
C270 C272 1.415 1_554 S
C271 C270 1.355 . S
C271 C273 1.419 1_565 S
C272 C270 1.415 1_556 S
C272 C277 1.425 1_656 S
C272 C279 1.409 . S
C273 H265 0.930 . S
C273 C271 1.419 1_545 S
C273 C274 1.362 1_655 S
C274 H266 0.930 . S
C274 C273 1.362 1_455 S
C274 C277 1.409 1_545 S
C275 H267 0.930 1_565 S
C275 C276 1.355 . S
C275 C277 1.415 1_556 S
C276 C275 1.355 . S
C276 C278 1.419 . S
C277 C272 1.425 1_454 S
C277 C274 1.409 1_565 S
C277 C275 1.415 1_554 S
C278 H268 0.930 . S
C278 C276 1.419 . S
C278 C279 1.362 1_455 S
C279 H269 0.930 . S
C279 C272 1.409 . S
C279 C278 1.362 1_655 S
H280 C286 0.930 . S
H281 C289 0.930 . S
H282 C290 0.930 . S
H283 C291 0.930 . S
H284 C294 0.930 . S
H285 C295 0.930 . S
C286 H280 0.930 . S
C286 C287 1.355 . S
C286 C288 1.415 . S
C287 C286 1.355 . S
C287 C289 1.419 . S
C288 C286 1.415 . S
C288 C293 1.425 . S
C288 C295 1.409 . S
C289 H281 0.930 . S
C289 C287 1.419 . S
C289 C290 1.362 . S
C290 H282 0.930 . S
C290 C289 1.362 . S
C290 C293 1.409 . S
C291 H283 0.930 . S
C291 C292 1.355 . S
C291 C293 1.415 . S
C292 C291 1.355 . S
C292 C294 1.419 . S
C293 C288 1.425 . S
C293 C290 1.409 . S
C293 C291 1.415 . S
C294 H284 0.930 . S
C294 C292 1.419 . S
C294 C295 1.362 . S
C295 H285 0.930 . S
C295 C288 1.409 . S
C295 C294 1.362 . S
H296 C302 0.930 . S
H297 C305 0.930 . S
H298 C306 0.930 . S
H299 C307 0.930 . S
H300 C310 0.930 . S
H301 C311 0.930 . S
C302 H296 0.930 . S
C302 C303 1.355 . S
C302 C304 1.415 . S
C303 C302 1.355 . S
C303 C305 1.419 . S
C304 C302 1.415 . S
C304 C309 1.425 . S
C304 C311 1.409 . S
C305 H297 0.930 . S
C305 C303 1.419 . S
C305 C306 1.362 . S
C306 H298 0.930 . S
C306 C305 1.362 . S
C306 C309 1.409 . S
C307 H299 0.930 . S
C307 C308 1.355 . S
C307 C309 1.415 . S
C308 C307 1.355 . S
C308 C310 1.419 . S
C309 C304 1.425 . S
C309 C306 1.409 . S
C309 C307 1.415 . S
C310 H300 0.930 . S
C310 C308 1.419 . S
C310 C311 1.362 . S
C311 H301 0.930 . S
C311 C304 1.409 . S
C311 C310 1.362 . S
H312 C318 0.930 . S
H313 C321 0.930 . S
H314 C322 0.930 . S
H315 C323 0.930 . S
H316 C326 0.930 . S
H317 C327 0.930 . S
C318 H312 0.930 . S
C318 C319 1.355 . S
C318 C320 1.415 . S
C319 C318 1.355 . S
C319 C321 1.419 . S
C320 C318 1.415 . S
C320 C325 1.425 . S
C320 C327 1.409 . S
C321 H313 0.930 . S
C321 C319 1.419 . S
C321 C322 1.362 . S
C322 H314 0.930 . S
C322 C321 1.362 . S
C322 C325 1.409 . S
C323 H315 0.930 . S
C323 C324 1.355 . S
C323 C325 1.415 . S
C324 C323 1.355 . S
C324 C326 1.419 . S
C325 C320 1.425 . S
C325 C322 1.409 . S
C325 C323 1.415 . S
C326 H316 0.930 . S
C326 C324 1.419 . S
C326 C327 1.362 . S
C327 H317 0.930 . S
C327 C320 1.409 . S
C327 C326 1.362 . S
H328 C334 0.930 . S
H329 C337 0.930 . S
H330 C338 0.930 . S
H331 C339 0.930 . S
H332 C342 0.930 . S
H333 C343 0.930 . S
C334 H328 0.930 . S
C334 C335 1.355 . S
C334 C336 1.415 . S
C335 C334 1.355 . S
C335 C337 1.419 . S
C336 C334 1.415 . S
C336 C341 1.425 . S
C336 C343 1.409 . S
C337 H329 0.930 . S
C337 C335 1.419 . S
C337 C338 1.362 . S
C338 H330 0.930 . S
C338 C337 1.362 . S
C338 C341 1.409 . S
C339 H331 0.930 . S
C339 C340 1.355 . S
C339 C341 1.415 . S
C340 C339 1.355 . S
C340 C342 1.419 . S
C341 C336 1.425 . S
C341 C338 1.409 . S
C341 C339 1.415 . S
C342 H332 0.930 . S
C342 C340 1.419 . S
C342 C343 1.362 . S
C343 H333 0.930 . S
C343 C336 1.409 . S
C343 C342 1.362 . S
H344 C350 0.930 . S
H345 C353 0.930 . S
H346 C354 0.930 . S
H347 C355 0.930 . S
H348 C358 0.925 1_655 S
H349 C359 0.930 1_655 S
C350 H344 0.930 . S
C350 C351 1.355 . S
C350 C352 1.415 . S
C351 C350 1.355 . S
C351 C353 1.419 . S
C352 C350 1.415 . S
C352 C357 1.425 . S
C352 C359 1.409 . S
C353 H345 0.930 . S
C353 C351 1.419 . S
C353 C354 1.362 . S
C354 H346 0.930 . S
C354 C353 1.362 . S
C354 C357 1.409 . S
C355 H347 0.930 . S
C355 C356 1.355 . S
C355 C357 1.415 . S
C356 C355 1.355 . S
C356 C358 1.423 . S
C357 C352 1.425 . S
C357 C354 1.409 . S
C357 C355 1.415 . S
C358 H348 0.925 1_455 S
C358 C356 1.423 . S
C358 C359 1.363 . S
C359 H349 0.930 1_455 S
C359 C352 1.409 . S
C359 C358 1.363 . S
C143 C6 1.122 . S
C148 C28 1.128 . S
C159 C62 1.165 . S
C164 C40 1.170 . S
C175 C74 1.122 . S
C180 C96 1.133 1_455 S
C191 C108 1.139 . S
C196 C130 1.125 1_655 S
C207 C17 1.912 1_565 S
C212 C51 1.914 . S
C223 C119 1.889 . S
C228 C85 1.890 . S
C239 C3 1.231 . S
C244 C37 1.264 . S
C255 C105 1.326 . S
C260 C71 1.318 . S
C271 C35 2.008 . S
C276 C1 2.032 . S
C287 C103 2.024 . S
C292 C69 2.021 . S
C303 C15 1.859 . S
C308 C124 1.729 . S
C319 C90 1.729 . S
C324 C49 1.859 . S
C335 C56 1.652 . S
C340 C83 1.894 . S
C351 C117 1.860 . S
C356 C22 1.729 . S
