# Generated by pormake.
# Topology mon, (4)-cn, num edge types: 1
# Building blocks:
#     Node 0, Type 0, BuildingBlock: UXUYUI_clean_sbu_0, # of connection points: 4
#     Node 1, Type 0, BuildingBlock: UXUYUI_clean_sbu_0, # of connection points: 4
#     Node 2, Type 0, BuildingBlock: UXUYUI_clean_sbu_0, # of connection points: 4
#     Node 3, Type 0, BuildingBlock: UXUYUI_clean_sbu_0, # of connection points: 4
#     Node 4, Type 0, BuildingBlock: UXUYUI_clean_sbu_0, # of connection points: 4
#     Node 5, Type 0, BuildingBlock: UXUYUI_clean_sbu_0, # of connection points: 4
#     Node 6, Type 0, BuildingBlock: UXUYUI_clean_sbu_0, # of connection points: 4
#     Node 7, Type 0, BuildingBlock: UXUYUI_clean_sbu_0, # of connection points: 4
#     Node 8, Type 0, BuildingBlock: UXUYUI_clean_sbu_0, # of connection points: 4
#     Node 9, Type 0, BuildingBlock: UXUYUI_clean_sbu_0, # of connection points: 4
#     Node 10, Type 0, BuildingBlock: UXUYUI_clean_sbu_0, # of connection points: 4
#     Node 11, Type 0, BuildingBlock: UXUYUI_clean_sbu_0, # of connection points: 4
#     Node 12, Type 0, BuildingBlock: UXUYUI_clean_sbu_0, # of connection points: 4
#     Node 13, Type 0, BuildingBlock: UXUYUI_clean_sbu_0, # of connection points: 4
#     Node 14, Type 0, BuildingBlock: UXUYUI_clean_sbu_0, # of connection points: 4
#     Node 15, Type 0, BuildingBlock: UXUYUI_clean_sbu_0, # of connection points: 4
#     Edge 16, Type (0, 0), BuildingBlock: KIFKEQ_clean_linker_1, # of connection points: 2
#     Edge 17, Type (0, 0), BuildingBlock: KIFKEQ_clean_linker_1, # of connection points: 2
#     Edge 18, Type (0, 0), BuildingBlock: KIFKEQ_clean_linker_1, # of connection points: 2
#     Edge 19, Type (0, 0), BuildingBlock: KIFKEQ_clean_linker_1, # of connection points: 2
#     Edge 20, Type (0, 0), BuildingBlock: KIFKEQ_clean_linker_1, # of connection points: 2
#     Edge 21, Type (0, 0), BuildingBlock: KIFKEQ_clean_linker_1, # of connection points: 2
#     Edge 22, Type (0, 0), BuildingBlock: KIFKEQ_clean_linker_1, # of connection points: 2
#     Edge 23, Type (0, 0), BuildingBlock: KIFKEQ_clean_linker_1, # of connection points: 2
#     Edge 24, Type (0, 0), BuildingBlock: KIFKEQ_clean_linker_1, # of connection points: 2
#     Edge 25, Type (0, 0), BuildingBlock: KIFKEQ_clean_linker_1, # of connection points: 2
#     Edge 26, Type (0, 0), BuildingBlock: KIFKEQ_clean_linker_1, # of connection points: 2
#     Edge 27, Type (0, 0), BuildingBlock: KIFKEQ_clean_linker_1, # of connection points: 2
#     Edge 28, Type (0, 0), BuildingBlock: KIFKEQ_clean_linker_1, # of connection points: 2
#     Edge 29, Type (0, 0), BuildingBlock: KIFKEQ_clean_linker_1, # of connection points: 2
#     Edge 30, Type (0, 0), BuildingBlock: KIFKEQ_clean_linker_1, # of connection points: 2
#     Edge 31, Type (0, 0), BuildingBlock: KIFKEQ_clean_linker_1, # of connection points: 2
#     Edge 32, Type (0, 0), BuildingBlock: KIFKEQ_clean_linker_1, # of connection points: 2
#     Edge 33, Type (0, 0), BuildingBlock: KIFKEQ_clean_linker_1, # of connection points: 2
#     Edge 34, Type (0, 0), BuildingBlock: KIFKEQ_clean_linker_1, # of connection points: 2
#     Edge 35, Type (0, 0), BuildingBlock: KIFKEQ_clean_linker_1, # of connection points: 2
#     Edge 36, Type (0, 0), BuildingBlock: KIFKEQ_clean_linker_1, # of connection points: 2
#     Edge 37, Type (0, 0), BuildingBlock: KIFKEQ_clean_linker_1, # of connection points: 2
#     Edge 38, Type (0, 0), BuildingBlock: KIFKEQ_clean_linker_1, # of connection points: 2
#     Edge 39, Type (0, 0), BuildingBlock: KIFKEQ_clean_linker_1, # of connection points: 2
#     Edge 40, Type (0, 0), BuildingBlock: KIFKEQ_clean_linker_1, # of connection points: 2
#     Edge 41, Type (0, 0), BuildingBlock: KIFKEQ_clean_linker_1, # of connection points: 2
#     Edge 42, Type (0, 0), BuildingBlock: KIFKEQ_clean_linker_1, # of connection points: 2
#     Edge 43, Type (0, 0), BuildingBlock: KIFKEQ_clean_linker_1, # of connection points: 2
#     Edge 44, Type (0, 0), BuildingBlock: KIFKEQ_clean_linker_1, # of connection points: 2
#     Edge 45, Type (0, 0), BuildingBlock: KIFKEQ_clean_linker_1, # of connection points: 2
#     Edge 46, Type (0, 0), BuildingBlock: KIFKEQ_clean_linker_1, # of connection points: 2
#     Edge 47, Type (0, 0), BuildingBlock: KIFKEQ_clean_linker_1, # of connection points: 2
# Relax obj value: 0.204
# Max RMSD: 0.157
# Mean RMSD: 0.156
data_MOF--net-mon--node1-UXUYUI_clean_sbu_0--edge1-KIFKEQ_clean_linker_1
_symmetry_space_group_name_H-M    P1
_symmetry_Int_Tables_number       1
_symmetry_cell_setting            triclinic
loop_
_symmetry_equiv_pos_as_xyz
'x, y, z'
_cell_length_a     50.441393
_cell_length_b     50.369605
_cell_length_c     124.58984
_cell_angle_alpha  89.98611
_cell_angle_beta   90.01084
_cell_angle_gamma 90.011412
loop_
_atom_site_label
_atom_site_type_symbol
_atom_site_fract_x
_atom_site_fract_y
_atom_site_fract_z
_atom_type_partial_charge
Li0 Li 0.00109 0.02369 0.57577 0.0
Li1 Li 0.00327 0.05646 0.59018 0.0
Li2 Li 0.02598 0.0141 0.59177 0.0
Li3 Li 0.97766 0.0172 0.59275 0.0
C4 C 0.04545 0.05035 0.57226 0.0
N5 N 0.06935 0.06584 0.55332 0.0
C6 C 0.04384 0.07674 0.56886 0.0
C7 C 0.05934 0.03187 0.56607 0.0
C8 C 0.05605 0.08418 0.55925 0.0
C9 C 0.07122 0.04007 0.5565 0.0
C10 C 0.94517 0.04509 0.58083 0.0
C11 C 0.90165 0.05417 0.58796 0.0
N12 N 0.89061 0.0424 0.5792 0.0
C13 C 0.93341 0.03319 0.57189 0.0
C14 C 0.9292 0.05579 0.58891 0.0
C15 C 0.90578 0.03201 0.57122 0.0
C16 C -0.00181 0.99293 0.55698 0.0
N17 N -0.00098 0.01824 0.56072 0.0
C18 C -0.00301 0.03542 0.54287 0.0
C19 C -0.00205 0.03937 0.55395 0.0
C20 C -0.00346 0.00944 0.53873 0.0
C21 C -0.0031 0.98804 0.54598 0.0
H22 H -0.00165 0.9765 0.56255 0.0
H23 H -0.00196 0.0593 0.55716 0.0
C24 C 0.02977 0.10272 0.59676 0.0
N25 N 0.00616 0.09307 0.59324 0.0
C26 C 0.0328 0.12979 0.59874 0.0
C27 C 0.98718 0.13643 0.59338 0.0
C28 C 0.98501 0.10921 0.59155 0.0
C29 C 0.01139 0.14708 0.59695 0.0
H30 H 0.04632 0.08937 0.5979 0.0
H31 H 0.96662 0.10102 0.58859 0.0
C32 C 0.0088 0.96661 0.58634 0.0
N33 N 0.03001 0.91719 0.5907 0.0
C34 C -0.00215 0.95077 0.59442 0.0
C35 C 0.03041 0.95723 0.58043 0.0
C36 C 0.00887 0.92585 0.5965 0.0
C37 C 0.0409 0.93224 0.58278 0.0
C38 C 0.00897 0.04911 0.61089 0.0
C39 C 0.03461 0.05123 0.61506 0.0
C40 C 0.98879 0.06528 0.61493 0.0
C41 C 0.03968 0.0697 0.62317 0.0
C42 C 0.99468 0.08355 0.62302 0.0
N43 N 0.01978 0.08537 0.62694 0.0
C44 C 0.08024 -0.00082 0.59296 0.0
C45 C 0.05181 0.97998 0.60599 0.0
C46 C 0.10167 0.98444 0.59681 0.0
N47 N 0.05587 0.99629 0.59746 0.0
C48 C 0.07253 0.96463 0.60999 0.0
C49 C 0.09775 0.96654 0.60529 0.0
H50 H 0.08294 0.01259 0.58628 0.0
H51 H 0.03227 0.97849 0.60951 0.0
C52 C 0.93138 0.98625 0.59283 0.0
N53 N 0.94734 0.00154 0.59908 0.0
C54 C 0.91033 0.97229 0.59739 0.0
C55 C 0.92256 0.99012 0.61473 0.0
C56 C 0.94324 0.00393 0.60981 0.0
C57 C 0.90605 0.97376 0.60851 0.0
H58 H 0.93557 0.98422 0.58436 0.0
H59 H 0.95653 0.01586 0.6146 0.0
O60 O 0.0334 0.04261 0.58159 0.0
O61 O 0.97217 0.04611 0.58171 0.0
O62 O -0.00131 0.99133 0.58434 0.0
O63 O 0.00371 0.03145 0.60283 0.0
H64 H 0.03308 0.0913 0.57352 0.0
H65 H 0.06064 0.01133 0.56855 0.0
H66 H 0.05488 0.10451 0.55649 0.0
H67 H 0.08187 0.02594 0.55159 0.0
H68 H 0.88905 0.0622 0.59418 0.0
H69 H 0.94545 0.02477 0.56557 0.0
H70 H 0.93798 0.06494 0.59592 0.0
H71 H 0.8964 0.02275 0.56436 0.0
H72 H -0.00303 0.05255 0.53762 0.0
H73 H 0.99589 0.9677 0.54321 0.0
H74 H 0.05173 0.13711 0.60158 0.0
H75 H 0.97033 0.14906 0.59168 0.0
H76 H 0.98122 0.95773 0.59912 0.0
H77 H 0.03921 0.96929 0.57419 0.0
H78 H 0.00068 0.91343 0.60277 0.0
H79 H 0.05775 0.92483 0.57832 0.0
H80 H 0.05048 0.03893 0.61201 0.0
H81 H 0.96887 0.06398 0.61175 0.0
H82 H 0.05945 0.07165 0.62644 0.0
H83 H 0.9793 0.09633 0.62617 0.0
H84 H 0.12086 0.98638 0.59299 0.0
H85 H 0.06887 0.9513 0.61665 0.0
H86 H 0.89834 0.95952 0.59236 0.0
H87 H 0.91984 0.99177 0.62333 0.0
Li88 Li 0.23681 0.72595 0.84255 0.0
Li89 Li 0.19572 0.75063 0.8412 0.0
Li90 Li 0.22619 0.7482 0.82604 0.0
Li91 Li 0.23641 0.77436 0.84197 0.0
C92 C 0.19675 0.7052 0.82448 0.0
N93 N 0.17714 0.67941 0.80659 0.0
C94 C 0.17002 0.70769 0.8217 0.0
C95 C 0.21348 0.68949 0.81818 0.0
C96 C 0.16048 0.69449 0.81263 0.0
C97 C 0.2032 0.67667 0.80915 0.0
C98 C 0.20559 0.74843 0.86178 0.0
C99 C 0.17313 0.76653 0.87397 0.0
N100 N 0.17089 0.74238 0.87877 0.0
C101 C 0.203 0.7238 0.86685 0.0
C102 C 0.19061 0.77002 0.86539 0.0
C103 C 0.18535 0.72115 0.87542 0.0
C104 C 0.27002 0.70033 0.85728 0.0
N105 N 0.2536 0.6961 0.84881 0.0
C106 C 0.26264 0.6496 0.84921 0.0
C107 C 0.24941 0.67137 0.84481 0.0
C108 C 0.28025 0.65341 0.85781 0.0
C109 C 0.28372 0.67918 0.8619 0.0
H110 H 0.27272 0.72024 0.86034 0.0
H111 H 0.23589 0.66855 0.83819 0.0
C112 C 0.14438 0.77204 0.84369 0.0
N113 N 0.15968 0.7502 0.84523 0.0
C114 C 0.11759 0.77151 0.84642 0.0
C115 C 0.12294 0.72605 0.85231 0.0
C116 C 0.14962 0.72747 0.84946 0.0
C117 C 0.10652 0.74821 0.85071 0.0
H118 H 0.15287 0.78969 0.84017 0.0
H119 H 0.16232 0.71036 0.85051 0.0
C120 C 0.28399 0.73882 0.83565 0.0
N121 N 0.33218 0.71495 0.83988 0.0
C122 C 0.301 0.74959 0.84336 0.0
C123 C 0.29154 0.71599 0.83006 0.0
C124 C 0.32529 0.73723 0.84538 0.0
C125 C 0.31595 0.70418 0.83233 0.0
C126 C 0.20912 0.80608 0.82977 0.0
C127 C 0.2216 0.81523 0.82046 0.0
C128 C 0.2 0.82431 0.83738 0.0
C129 C 0.22488 0.84252 0.81895 0.0
C130 C 0.20371 0.85143 0.83559 0.0
N131 N 0.21597 0.8599 0.82648 0.0
C132 C 0.20729 0.74915 0.80461 0.0
C133 C 0.25401 0.74678 0.80651 0.0
C134 C 0.2096 0.74928 0.79344 0.0
N135 N 0.22933 0.74758 0.81086 0.0
C136 C 0.25726 0.74725 0.7954 0.0
C137 C 0.23486 0.74847 0.78873 0.0
H138 H 0.18795 0.75053 0.8083 0.0
H139 H 0.27121 0.74614 0.81167 0.0
C140 C 0.25058 0.81526 0.85661 0.0
N141 N 0.25437 0.80526 0.8466 0.0
C142 C 0.26514 0.83724 0.86004 0.0
C143 C 0.28701 0.83819 0.84277 0.0
C144 C 0.27193 0.81633 0.83965 0.0
C145 C 0.28392 0.84869 0.85313 0.0
H146 H 0.23672 0.80583 0.86201 0.0
H147 H 0.27456 0.80779 0.83176 0.0
O148 O 0.20654 0.71817 0.83328 0.0
O149 O 0.22244 0.75132 0.85326 0.0
O150 O 0.25986 0.75026 0.83373 0.0
O151 O 0.20624 0.77941 0.83151 0.0
H152 H 0.15679 0.71988 0.82643 0.0
H153 H 0.23428 0.68753 0.82015 0.0
H154 H 0.13986 0.69632 0.81036 0.0
H155 H 0.21597 0.6646 0.80417 0.0
H156 H 0.16126 0.78301 0.87678 0.0
H157 H 0.21428 0.70684 0.86413 0.0
H158 H 0.19208 0.78913 0.86147 0.0
H159 H 0.18307 0.70218 0.87939 0.0
H160 H 0.25908 0.63002 0.84592 0.0
H161 H 0.29733 0.68311 0.86843 0.0
H162 H 0.10551 0.78886 0.84486 0.0
H163 H 0.11521 0.70777 0.85566 0.0
H164 H 0.2954 0.76709 0.84785 0.0
H165 H 0.27852 0.70728 0.82412 0.0
H166 H 0.3386 0.74527 0.85137 0.0
H167 H 0.32196 0.6864 0.82812 0.0
H168 H 0.2289 0.80144 0.8145 0.0
H169 H 0.19059 0.81757 0.84469 0.0
H170 H 0.23459 0.84988 0.8118 0.0
H171 H 0.19694 0.86574 0.84145 0.0
H172 H 0.19189 0.75061 0.78855 0.0
H173 H 0.27707 0.74654 0.79205 0.0
H174 H 0.26247 0.84455 0.86815 0.0
H175 H 0.30118 0.84658 0.83718 0.0
Li176 Li 0.54272 0.97548 0.09288 0.0
Li177 Li 0.49462 0.98066 0.09201 0.0
Li178 Li 0.51549 0.9373 0.09031 0.0
Li179 Li 0.51872 0.97003 0.07598 0.0
C180 C 0.51017 0.94458 0.11099 0.0
N181 N 0.49768 0.9085 0.12692 0.0
C182 C 0.48448 0.94362 0.11518 0.0
C183 C 0.52954 0.9273 0.11494 0.0
C184 C 0.47857 0.92523 0.12323 0.0
C185 C 0.52282 0.90915 0.12297 0.0
C186 C 0.51375 0.02739 0.08675 0.0
C187 C 0.48281 0.06314 0.08373 0.0
N188 N 0.49479 0.07743 0.09162 0.0
C189 C 0.5258 0.04246 0.09481 0.0
C190 C 0.49214 0.03784 0.08113 0.0
C191 C 0.51592 0.06771 0.09715 0.0
C192 C 0.59046 0.00445 0.09327 0.0
N193 N 0.57372 0.98951 0.09932 0.0
C194 C 0.59884 -0.00137 0.11513 0.0
C195 C 0.57759 0.9862 0.11003 0.0
C196 C 0.61617 0.01464 0.10914 0.0
C197 C 0.61208 0.0171 0.09803 0.0
H198 H 0.5865 0.00722 0.08482 0.0
H199 H 0.5637 0.97459 0.11467 0.0
C200 C 0.44144 -0.00048 0.09327 0.0
N201 N 0.46586 -4e-05 0.09788 0.0
C202 C 0.42124 0.01573 0.09724 0.0
C203 C 0.45161 0.03187 0.11078 0.0
C204 C 0.47108 0.01521 0.10662 0.0
C205 C 0.42643 0.03252 0.10599 0.0
H206 H 0.4378 0.98699 0.08639 0.0
H207 H 0.49063 0.01484 0.11018 0.0
C208 C 0.57388 0.94669 0.08083 0.0
N209 N 0.62846 0.94768 0.07902 0.0
C210 C 0.58582 0.95858 0.07192 0.0
C211 C 0.58968 0.93516 0.08879 0.0
C212 C 0.61345 0.95889 0.07116 0.0
C213 C 0.61724 0.93593 0.08774 0.0
C214 C 0.47362 0.94526 0.07249 0.0
C215 C 0.47479 0.91896 0.06894 0.0
C216 C 0.4603 0.96424 0.06632 0.0
C217 C 0.4627 0.91212 0.05924 0.0
C218 C 0.44854 0.95662 0.05665 0.0
N219 N 0.44997 0.93093 0.05334 0.0
C220 C 0.4877 0.8916 0.09686 0.0
C221 C 0.53209 0.88407 0.09139 0.0
C222 C 0.48403 0.86455 0.09875 0.0
N223 N 0.51145 0.90072 0.09326 0.0
C224 C 0.52928 0.85688 0.09312 0.0
C225 C 0.50493 0.84677 0.09678 0.0
H226 H 0.47155 0.90535 0.09815 0.0
H227 H 0.55058 0.89184 0.08835 0.0
C228 C 0.51866 -0.00025 0.05678 0.0
N229 N 0.52026 0.97482 0.06088 0.0
C230 C 0.5183 0.00365 0.04571 0.0
C231 C 0.522 0.95617 0.04327 0.0
C232 C 0.52242 0.95321 0.05441 0.0
C233 C 0.51964 0.98166 0.03878 0.0
H234 H 0.51757 0.01661 0.06211 0.0
H235 H 0.524 0.93363 0.05792 0.0
O236 O 0.51624 0.96214 0.10299 0.0
O237 O 0.52274 0.00236 0.0845 0.0
O238 O 0.54687 0.94649 0.0818 0.0
O239 O 0.4857 0.95246 0.08188 0.0
H240 H 0.46921 0.95675 0.11219 0.0
H241 H 0.54946 0.92764 0.11172 0.0
H242 H 0.45875 0.92419 0.12652 0.0
H243 H 0.53756 0.89554 0.12605 0.0
H244 H 0.46596 0.07137 0.07951 0.0
H245 H 0.54241 0.03467 0.0993 0.0
H246 H 0.48237 0.02635 0.07495 0.0
H247 H 0.52498 0.07954 0.1034 0.0
H248 H 0.60138 0.99618 0.12371 0.0
H249 H 0.62471 0.02965 0.09316 0.0
H250 H 0.40206 0.01573 0.09333 0.0
H251 H 0.45623 0.04423 0.11765 0.0
H252 H 0.57392 0.96768 0.06571 0.0
H253 H 0.58076 0.92605 0.09578 0.0
H254 H 0.62298 0.96812 0.06433 0.0
H255 H 0.62971 0.92726 0.09387 0.0
H256 H 0.48513 0.90403 0.07357 0.0
H257 H 0.45944 0.98474 0.06889 0.0
H258 H 0.46354 0.89186 0.05637 0.0
H259 H 0.43837 0.97114 0.05176 0.0
H260 H 0.465 0.85765 0.10165 0.0
H261 H 0.54574 0.84386 0.09128 0.0
H262 H 0.51707 0.0237 0.0426 0.0
H263 H 0.52292 0.93865 0.03825 0.0
Li264 Li 0.27531 0.26805 0.34276 0.0
Li265 Li 0.31409 0.24165 0.33998 0.0
Li266 Li 0.27959 0.2423 0.32662 0.0
Li267 Li 0.27273 0.22037 0.34342 0.0
C268 C 0.31844 0.29361 0.33306 0.0
N269 N 0.35164 0.33632 0.3367 0.0
C270 C 0.3239 0.30183 0.34355 0.0
C271 C 0.32984 0.30713 0.32443 0.0
C272 C 0.34074 0.32346 0.34522 0.0
C273 C 0.34658 0.32867 0.32643 0.0
C274 C 0.30345 0.22935 0.36136 0.0
C275 C 0.32862 0.19151 0.36744 0.0
N276 N 0.32524 0.19957 0.37776 0.0
C277 C 0.30025 0.23727 0.37202 0.0
C278 C 0.31777 0.2063 0.35903 0.0
C279 C 0.31141 0.22195 0.38021 0.0
C280 C 0.24937 0.29603 0.35874 0.0
N281 N 0.26103 0.29922 0.34901 0.0
C282 C 0.25015 0.34536 0.34889 0.0
C283 C 0.26168 0.32322 0.34402 0.0
C284 C 0.23774 0.34265 0.35893 0.0
C285 C 0.23754 0.31757 0.36387 0.0
H286 H 0.24896 0.2766 0.36244 0.0
H287 H 0.27095 0.32516 0.33624 0.0
C288 C 0.36557 0.22822 0.33398 0.0
N289 N 0.35128 0.24034 0.34179 0.0
C290 C 0.39317 0.22798 0.33448 0.0
C291 C 0.39077 0.25262 0.35111 0.0
C292 C 0.36319 0.25208 0.35035 0.0
C293 C 0.40619 0.24069 0.34304 0.0
H294 H 0.35547 0.21906 0.32728 0.0
H295 H 0.3513 0.26153 0.35647 0.0
C296 C 0.22904 0.26069 0.33145 0.0
N297 N 0.19054 0.29229 0.32218 0.0
C298 C 0.20221 0.25504 0.33306 0.0
C299 C 0.23628 0.2824 0.32509 0.0
C300 C 0.18305 0.27125 0.32831 0.0
C301 C 0.21653 0.29814 0.32048 0.0
C302 C 0.29098 0.18876 0.32668 0.0
C303 C 0.26402 0.18379 0.32501 0.0
C304 C 0.30981 0.17101 0.32267 0.0
C305 C 0.25636 0.16115 0.31933 0.0
C306 C 0.30136 0.14858 0.31703 0.0
N307 N 0.27503 0.14416 0.31549 0.0
C308 C 0.29289 0.24824 0.30493 0.0
C309 C 0.2491 0.23267 0.30778 0.0
C310 C 0.28922 0.24749 0.29382 0.0
N311 N 0.27293 0.24096 0.31162 0.0
C312 C 0.24456 0.23161 0.29675 0.0
C313 C 0.26477 0.2391 0.2896 0.0
H314 H 0.31171 0.25451 0.30823 0.0
H315 H 0.23356 0.22688 0.31327 0.0
C316 C 0.23023 0.19685 0.35381 0.0
N317 N 0.2552 0.19182 0.35029 0.0
C318 C 0.21504 0.17659 0.35829 0.0
C319 C 0.25191 0.14651 0.3558 0.0
C320 C 0.26634 0.16734 0.35126 0.0
C321 C 0.22578 0.15099 0.35922 0.0
H322 H 0.22203 0.21657 0.35298 0.0
H323 H 0.2862 0.16386 0.34832 0.0
O324 O 0.30215 0.27239 0.33118 0.0
O325 O 0.29252 0.24424 0.3533 0.0
O326 O 0.24795 0.24494 0.3361 0.0
O327 O 0.29913 0.21079 0.33221 0.0
H328 H 0.31527 0.29165 0.35034 0.0
H329 H 0.3258 0.30102 0.31626 0.0
H330 H 0.34515 0.33 0.35329 0.0
H331 H 0.35555 0.33931 0.31982 0.0
H332 H 0.33972 0.17363 0.36575 0.0
H333 H 0.28924 0.25509 0.37395 0.0
H334 H 0.32053 0.19984 0.35084 0.0
H335 H 0.30907 0.22784 0.3885 0.0
H336 H 0.25095 0.36435 0.34482 0.0
H337 H 0.22776 0.31442 0.3715 0.0
H338 H 0.40417 0.21807 0.32818 0.0
H339 H 0.39986 0.26293 0.35778 0.0
H340 H 0.19625 0.23827 0.33793 0.0
H341 H 0.25689 0.28706 0.32368 0.0
H342 H 0.16221 0.26711 0.3295 0.0
H343 H 0.22186 0.31499 0.31555 0.0
H344 H 0.24911 0.19717 0.32809 0.0
H345 H 0.33076 0.17452 0.32391 0.0
H346 H 0.23557 0.15708 0.31799 0.0
H347 H 0.31573 0.13468 0.31388 0.0
H348 H 0.30547 0.25308 0.28861 0.0
H349 H 0.22532 0.22532 0.29385 0.0
H350 H 0.19507 0.18087 0.36097 0.0
H351 H 0.26078 0.12696 0.35633 0.0
Li352 Li 0.97829 0.97863 0.40471 0.0
Li353 Li 0.02607 0.97614 0.40587 0.0
Li354 Li -0.00031 0.93521 0.40635 0.0
Li355 Li 0.00087 0.96514 0.42149 0.0
C356 C 0.9895 0.9526 0.38566 0.0
N357 N 0.96274 0.93425 0.36779 0.0
C358 C 0.00135 0.95394 0.37554 0.0
C359 C 0.96402 0.94195 0.3867 0.0
C360 C 0.9875 0.94456 0.3666 0.0
C361 C 0.95083 0.93277 0.37757 0.0
C362 C 0.01724 0.0221 0.41504 0.0
C363 C 0.0506 0.04743 0.42441 0.0
N364 N 0.04957 0.06626 0.4166 0.0
C365 C 0.01625 0.0419 0.40719 0.0
C366 C 0.03434 0.02503 0.42379 0.0
C367 C 0.03285 0.06399 0.40808 0.0
C368 C 0.9249 0.99572 0.40123 0.0
N369 N 0.95064 -0.00203 0.39814 0.0
C370 C 0.93936 0.03051 0.38501 0.0
C371 C 0.95806 0.01448 0.39006 0.0
C372 C 0.91272 0.02907 0.38817 0.0
C373 C 0.90538 0.0111 0.39625 0.0
H374 H 0.91959 0.98219 0.4076 0.0
H375 H 0.9786 0.0153 0.38761 0.0
C376 C 0.08105 0.99082 0.40468 0.0
N377 N 0.05673 0.99227 0.40002 0.0
C378 C 0.10257 0.00413 0.40012 0.0
C379 C 0.07364 0.0196 0.38596 0.0
C380 C 0.05277 0.00599 0.39078 0.0
C381 C 0.09895 0.01891 0.39066 0.0
H382 H 0.08377 0.97949 0.41194 0.0
H383 H 0.03316 0.00678 0.38727 0.0
C384 C 0.9575 0.93178 0.42185 0.0
N385 N 0.93516 0.89786 0.43678 0.0
C386 C 0.97214 0.91056 0.42598 0.0
C387 C 0.93152 0.93586 0.42538 0.0
C388 C 0.96051 0.89361 0.43349 0.0
C389 C 0.92056 0.91846 0.43291 0.0
C390 C 0.04707 0.93469 0.42289 0.0
C391 C 0.04886 0.90723 0.42441 0.0
C392 C 0.06202 0.95166 0.42939 0.0
C393 C 0.06529 0.89727 0.43249 0.0
C394 C 0.07821 0.94093 0.43738 0.0
N395 N 0.07948 0.91418 0.43876 0.0
C396 C 0.02198 0.89012 0.39734 0.0
C397 C 0.97644 0.88496 0.40157 0.0
C398 C 0.02347 0.86388 0.39385 0.0
N399 N -0.00111 0.89986 0.40131 0.0
C400 C 0.97707 0.85853 0.39824 0.0
C401 C 0.00094 0.84753 0.39448 0.0
H402 H 0.03935 0.9027 0.39705 0.0
H403 H 0.95817 0.89343 0.40453 0.0
C404 C 0.9876 0.99101 0.44047 0.0
N405 N -0.00159 0.96811 0.43673 0.0
C406 C 0.98559 0.99555 0.45149 0.0
C407 C 0.00519 0.95248 0.45464 0.0
C408 C 0.00655 0.94868 0.44356 0.0
C409 C 0.99482 0.97631 0.45875 0.0
H410 H 0.98069 0.00589 0.43487 0.0
H411 H 0.0143 0.93026 0.44045 0.0
O412 O 0.00288 0.96174 0.39447 0.0
O413 O 0.0017 -9e-05 0.41414 0.0
O414 O 0.96869 0.94888 0.4146 0.0
O415 O 0.03105 0.94476 0.415 0.0
H416 H 0.02105 0.96216 0.37461 0.0
H417 H 0.95449 0.94078 0.39445 0.0
H418 H -0.00357 0.94547 0.35872 0.0
H419 H 0.93112 0.92448 0.37825 0.0
H420 H 0.06403 0.04985 0.43111 0.0
H421 H 0.00304 0.04012 0.4004 0.0
H422 H 0.03504 0.01023 0.43005 0.0
H423 H 0.03247 0.07931 0.402 0.0
H424 H 0.94561 0.04392 0.37869 0.0
H425 H 0.88496 0.00955 0.39887 0.0
H426 H 0.12182 0.00282 0.40394 0.0
H427 H 0.0698 0.03109 0.37878 0.0
H428 H 0.9923 0.90726 0.42342 0.0
H429 H 0.91994 0.95232 0.42238 0.0
H430 H 0.97167 0.87711 0.43673 0.0
H431 H 0.90046 0.92136 0.4357 0.0
H432 H 0.03765 0.89371 0.41943 0.0
H433 H 0.06099 0.9729 0.42834 0.0
H434 H 0.06676 0.87608 0.43377 0.0
H435 H 0.08974 0.95388 0.4425 0.0
H436 H 0.04213 0.85642 0.3908 0.0
H437 H 0.95926 0.84665 0.39895 0.0
H438 H 0.9768 0.01392 0.45425 0.0
H439 H 0.01268 0.9371 0.45989 0.0
Li440 Li 0.27396 0.77256 0.6548 0.0
Li441 Li 0.27903 0.74943 0.67149 0.0
Li442 Li 0.31417 0.74929 0.65851 0.0
Li443 Li 0.27446 0.72482 0.65518 0.0
C444 C 0.29266 0.80256 0.67201 0.0
N445 N 0.27814 0.84717 0.68351 0.0
C446 C 0.2659 0.80926 0.67311 0.0
C447 C 0.31202 0.81857 0.67675 0.0
C448 C 0.25896 0.83188 0.67895 0.0
C449 C 0.30429 0.84104 0.68253 0.0
C450 C 0.22782 0.7341 0.66611 0.0
C451 C 0.21241 0.69691 0.6766 0.0
N452 N 0.18693 0.70448 0.67475 0.0
C453 C 0.2015 0.74151 0.66432 0.0
C454 C 0.23335 0.71163 0.67231 0.0
C455 C 0.1811 0.72628 0.66875 0.0
C456 C 0.23484 0.79486 0.64248 0.0
N457 N 0.25784 0.80123 0.6475 0.0
C458 C 0.25474 0.8461 0.64141 0.0
C459 C 0.2681 0.82618 0.64705 0.0
C460 C 0.23077 0.84009 0.63618 0.0
C461 C 0.22088 0.81406 0.63678 0.0
H462 H 0.22731 0.77479 0.64296 0.0
H463 H 0.2866 0.83061 0.65106 0.0
C464 C 0.28979 0.73858 0.69302 0.0
N465 N 0.27158 0.74983 0.68641 0.0
C466 C 0.28561 0.73814 0.70408 0.0
C467 C 0.2441 0.76116 0.70133 0.0
C468 C 0.24897 0.7609 0.6903 0.0
C469 C 0.26257 0.74967 0.7084 0.0
H470 H 0.30756 0.7299 0.68967 0.0
H471 H 0.23474 0.76963 0.68486 0.0
C472 C 0.30533 0.76305 0.63718 0.0
N473 N 0.32936 0.79264 0.62123 0.0
C474 C 0.30332 0.75518 0.62645 0.0
C475 C 0.31955 0.78599 0.63979 0.0
C476 C 0.31562 0.7704 0.61851 0.0
C477 C 0.33155 0.80067 0.63162 0.0
C478 C 0.31565 0.69667 0.66461 0.0
C479 C 0.32184 0.69011 0.654 0.0
C480 C 0.32507 0.68078 0.67298 0.0
C481 C 0.33744 0.66777 0.65194 0.0
C482 C 0.34061 0.65859 0.67059 0.0
N483 N 0.34643 0.65261 0.66021 0.0
C484 C 0.36559 0.75801 0.66569 0.0
C485 C 0.36364 0.73985 0.64814 0.0
C486 C 0.39322 0.75753 0.66548 0.0
N487 N 0.35149 0.74919 0.65712 0.0
C488 C 0.39124 0.73907 0.64757 0.0
C489 C 0.40638 0.74784 0.65634 0.0
H490 H 0.3553 0.76519 0.67273 0.0
H491 H 0.35193 0.73266 0.64149 0.0
C492 C 0.2469 0.69976 0.63894 0.0
N493 N 0.2588 0.69494 0.64852 0.0
C494 C 0.23366 0.67947 0.63356 0.0
C495 C 0.24545 0.64947 0.64795 0.0
C496 C 0.25836 0.67044 0.65309 0.0
C497 C 0.23271 0.65391 0.63807 0.0
H498 H 0.24734 0.71958 0.63559 0.0
H499 H 0.26775 0.66722 0.66079 0.0
O500 O 0.3001 0.78049 0.66636 0.0
O501 O 0.2479 0.74888 0.66177 0.0
O502 O 0.29323 0.7483 0.64499 0.0
O503 O 0.30052 0.71851 0.6669 0.0
H504 H 0.2506 0.7972 0.6695 0.0
H505 H 0.33283 0.81367 0.67596 0.0
H506 H 0.23833 0.83728 0.67987 0.0
H507 H 0.31908 0.8536 0.68624 0.0
H508 H 0.21641 0.67948 0.68141 0.0
H509 H 0.19689 0.75888 0.65955 0.0
H510 H 0.25356 0.70557 0.67382 0.0
H511 H 0.16063 0.73179 0.66742 0.0
H512 H 0.26313 0.86587 0.64108 0.0
H513 H 0.20227 0.80864 0.63304 0.0
H514 H 0.30019 0.72864 0.70917 0.0
H515 H 0.22625 0.7706 0.70427 0.0
H516 H 0.29236 0.73748 0.6243 0.0
H517 H 0.32138 0.79242 0.64803 0.0
H518 H 0.31423 0.76454 0.61017 0.0
H519 H 0.34261 0.81845 0.63353 0.0
H520 H 0.31467 0.70202 0.6474 0.0
H521 H 0.32042 0.68553 0.68124 0.0
H522 H 0.34238 0.66249 0.64377 0.0
H523 H 0.34804 0.64613 0.67699 0.0
H524 H 0.40416 0.76475 0.67236 0.0
H525 H 0.40061 0.73113 0.64044 0.0
H526 H 0.22367 0.68399 0.62608 0.0
H527 H 0.24541 0.63006 0.65168 0.0
Li528 Li 0.51128 0.05575 0.90697 0.0
Li529 Li 0.50788 0.02368 0.92151 0.0
Li530 Li 0.53331 0.01415 0.90456 0.0
Li531 Li 0.48502 0.0144 0.90434 0.0
C532 C 0.55412 0.06328 0.91874 0.0
N533 N 0.5804 0.10936 0.92439 0.0
C534 C 0.54868 0.07567 0.92854 0.0
C535 C 0.57319 0.07414 0.91189 0.0
C536 C 0.56212 0.099 0.93123 0.0
C537 C 0.58618 0.0975 0.91486 0.0
C538 C 0.45591 0.04564 0.9207 0.0
C539 C 0.41892 0.0245 0.92952 0.0
N540 N 0.41045 0.04859 0.93305 0.0
C541 C 0.44664 0.07024 0.92431 0.0
C542 C 0.44178 0.02263 0.92325 0.0
C543 C 0.4237 0.0713 0.93058 0.0
C544 C 0.51856 0.10206 0.89427 0.0
N545 N 0.51243 0.09263 0.90419 0.0
C546 C 0.50629 0.13659 0.91085 0.0
C547 C 0.50648 0.10922 0.91243 0.0
C548 C 0.51244 0.1469 0.90069 0.0
C549 C 0.51887 0.12935 0.89235 0.0
H550 H 0.5229 0.08844 0.88782 0.0
H551 H 0.50188 0.10114 0.92025 0.0
C552 C 0.52369 -0.00115 0.94047 0.0
N553 N 0.50797 0.01857 0.93661 0.0
C554 C 0.52517 0.99409 0.95148 0.0
C555 C 0.4945 0.03026 0.95436 0.0
C556 C 0.49366 0.03435 0.94329 0.0
C557 C 0.51044 0.00992 0.9586 0.0
H558 H 0.53515 0.98687 0.93495 0.0
H559 H 0.48186 0.05033 0.94008 0.0
C560 C 0.52144 0.02917 0.88447 0.0
N561 N 0.54617 0.02152 0.86491 0.0
C562 C 0.50878 0.01478 0.87636 0.0
C563 C 0.54651 0.04002 0.88256 0.0
C564 C 0.52165 0.01105 0.86655 0.0
C565 C 0.55874 0.03583 0.87265 0.0
C566 C 0.49917 0.96599 0.915 0.0
C567 C 0.50634 0.94425 0.90866 0.0
C568 C 0.48292 0.96194 0.92395 0.0
C569 C 0.49644 0.91908 0.91114 0.0
C570 C 0.47346 0.93647 0.92619 0.0
N571 N 0.48031 0.91575 0.91978 0.0
C572 C 0.58782 0.00054 0.90245 0.0
C573 C 0.55785 0.97727 0.89119 0.0
C574 C 0.60908 0.98568 0.89849 0.0
N575 N 0.56284 0.99587 0.89881 0.0
C576 C 0.57839 0.96192 0.88707 0.0
C577 C 0.60432 0.96578 0.89084 0.0
H578 H 0.59113 0.0154 0.90857 0.0
H579 H 0.53781 0.97414 0.8884 0.0
C580 C 0.43096 0.00943 0.89751 0.0
N581 N 0.45557 -0.00164 0.89744 0.0
C582 C 0.41003 -0.00299 0.89215 0.0
C583 C 0.44052 0.96292 0.88629 0.0
C584 C 0.46068 0.97572 0.8919 0.0
C585 C 0.41482 0.97351 0.88643 0.0
H586 H 0.42759 0.02799 0.90164 0.0
H587 H 0.48061 0.96794 0.89164 0.0
O588 O 0.54078 0.04071 0.91588 0.0
O589 O 0.47856 0.04427 0.91465 0.0
O590 O 0.5093 0.03269 0.8942 0.0
O591 O 0.50896 0.99079 0.91273 0.0
H592 H 0.53401 0.06758 0.93394 0.0
H593 H 0.5779 0.06467 0.90435 0.0
H594 H 0.55795 0.1089 0.93874 0.0
H595 H 0.60087 0.1062 0.9096 0.0
H596 H 0.40783 0.0068 0.93153 0.0
H597 H 0.45702 0.08834 0.92231 0.0
H598 H 0.44803 0.00361 0.9202 0.0
H599 H 0.41642 0.09019 0.93347 0.0
H600 H 0.50156 0.14956 0.91752 0.0
H601 H 0.5235 0.13663 0.88438 0.0
H602 H 0.53807 0.97849 0.9544 0.0
H603 H 0.48268 0.04284 0.95953 0.0
H604 H 0.4892 0.00666 0.8776 0.0
H605 H 0.55654 0.0513 0.88871 0.0
H606 H 0.51211 -0.00014 0.86022 0.0
H607 H 0.57824 0.04392 0.87111 0.0
H608 H 0.5193 0.9467 0.90184 0.0
H609 H 0.47782 0.97816 0.92922 0.0
H610 H 0.50166 0.90218 0.90622 0.0
H611 H 0.46077 0.93317 0.93306 0.0
H612 H 0.62882 0.98909 0.90162 0.0
H613 H 0.57399 0.94702 0.88106 0.0
H614 H 0.39047 0.00588 0.8923 0.0
H615 H 0.44494 0.94481 0.88196 0.0
Li616 Li 0.22882 0.24115 0.17192 0.0
Li617 Li 0.24048 0.2227 0.15465 0.0
Li618 Li 0.23532 0.27069 0.1572 0.0
Li619 Li 0.1966 0.24284 0.15705 0.0
C620 C 0.28221 0.24744 0.17093 0.0
N621 N 0.32268 0.24818 0.18591 0.0
C622 C 0.30215 0.22815 0.17065 0.0
C623 C 0.283 0.26717 0.17881 0.0
C624 C 0.3224 0.22885 0.17829 0.0
C625 C 0.30357 0.26719 0.18632 0.0
C626 C 0.21644 0.18725 0.16955 0.0
C627 C 0.2009 0.1476 0.17842 0.0
N628 N 0.22643 0.14 0.18011 0.0
C629 C 0.24249 0.17898 0.17135 0.0
C630 C 0.19544 0.17139 0.17309 0.0
C631 C 0.24716 0.15507 0.1767 0.0
C632 C 0.21387 0.25062 0.19325 0.0
N633 N 0.23162 0.23702 0.18716 0.0
C634 C 0.25318 0.22056 0.2029 0.0
C635 C 0.25075 0.22176 0.19176 0.0
C636 C 0.23563 0.23507 0.20939 0.0
C637 C 0.21555 0.24999 0.20443 0.0
H638 H 0.19855 0.26225 0.18941 0.0
H639 H 0.26468 0.21104 0.18683 0.0
C640 C 0.28438 0.20531 0.14341 0.0
N641 N 0.26035 0.19703 0.14699 0.0
C642 C 0.30141 0.18757 0.13832 0.0
C643 C 0.26802 0.15339 0.14015 0.0
C644 C 0.25165 0.17182 0.14529 0.0
C645 C 0.29346 0.16113 0.13679 0.0
H646 H 0.29052 0.22562 0.14473 0.0
H647 H 0.23227 0.16587 0.14811 0.0
C648 C 0.20187 0.29764 0.16836 0.0
N649 N 0.196 0.35212 0.16945 0.0
C650 C 0.18611 0.31092 0.16085 0.0
C651 C 0.21443 0.31205 0.17649 0.0
C652 C 0.18345 0.33848 0.16152 0.0
C653 C 0.21127 0.33958 0.17689 0.0
C654 C 0.21382 0.23582 0.13604 0.0
C655 C 0.21936 0.24673 0.12598 0.0
C656 C 0.20025 0.21166 0.13672 0.0
C657 C 0.21118 0.23331 0.11674 0.0
C658 C 0.19242 0.19885 0.1273 0.0
N659 N 0.198 0.20984 0.11759 0.0
C660 C 0.26848 0.31654 0.15715 0.0
C661 C 0.23676 0.31395 0.14315 0.0
C662 C 0.27905 0.33973 0.15277 0.0
N663 N 0.24797 0.30402 0.15223 0.0
C664 C 0.24675 0.33706 0.13847 0.0
C665 C 0.26849 0.34998 0.1432 0.0
H666 H 0.27723 0.30818 0.16427 0.0
H667 H 0.2204 0.30357 0.13942 0.0
C668 C 0.14386 0.22693 0.15964 0.0
N669 N 0.16032 0.24144 0.15333 0.0
C670 C 0.11672 0.22638 0.15754 0.0
C671 C 0.12401 0.25588 0.1425 0.0
C672 C 0.15108 0.25558 0.14482 0.0
C673 C 0.1065 0.24123 0.14895 0.0
H674 H 0.15177 0.21629 0.16646 0.0
H675 H 0.16469 0.26703 0.13996 0.0
O676 O 0.26214 0.247 0.16352 0.0
O677 O 0.21138 0.21054 0.16427 0.0
O678 O 0.20528 0.27075 0.16765 0.0
O679 O 0.22184 0.24877 0.14513 0.0
H680 H 0.30197 0.21269 0.16464 0.0
H681 H 0.26762 0.28202 0.17927 0.0
H682 H 0.33788 0.21399 0.17818 0.0
H683 H 0.30426 0.28223 0.19251 0.0
H684 H 0.18482 0.13516 0.18121 0.0
H685 H 0.25897 0.19091 0.16866 0.0
H686 H 0.17512 0.17732 0.17173 0.0
H687 H 0.26726 0.14851 0.17815 0.0
H688 H 0.26914 0.20902 0.20637 0.0
H689 H 0.2013 0.26109 0.20913 0.0
H690 H 0.32069 0.19442 0.13567 0.0
H691 H 0.26121 0.13316 0.13913 0.0
H692 H 0.17633 0.30013 0.15449 0.0
H693 H 0.2265 0.30212 0.18243 0.0
H694 H 0.17147 0.34902 0.15572 0.0
H695 H 0.22097 0.35099 0.18311 0.0
H696 H 0.22991 0.26538 0.12531 0.0
H697 H 0.19579 0.20286 0.14443 0.0
H698 H 0.21534 0.24153 0.1089 0.0
H699 H 0.18191 0.18015 0.12771 0.0
H700 H 0.29607 0.34881 0.15659 0.0
H701 H 0.23788 0.34445 0.13114 0.0
H702 H 0.10376 0.21518 0.16279 0.0
H703 H 0.11682 0.2675 0.13579 0.0
Li704 Li 0.78557 0.25504 0.16935 0.0
Li705 Li 0.77315 0.27684 0.15157 0.0
Li706 Li 0.77784 0.22857 0.15332 0.0
Li707 Li 0.81556 0.25613 0.15426 0.0
C708 C 0.73179 0.23483 0.16264 0.0
N709 N 0.69165 0.19818 0.16553 0.0
C710 C 0.70958 0.2351 0.15593 0.0
C711 C 0.73355 0.21597 0.17084 0.0
C712 C 0.68951 0.21639 0.15752 0.0
C713 C 0.71305 0.19761 0.17218 0.0
C714 C 0.82311 0.30182 0.16401 0.0
C715 C 0.85704 0.33166 0.15763 0.0
N716 N 0.86932 0.33012 0.16733 0.0
C717 C 0.83593 0.30074 0.17394 0.0
C718 C 0.8336 0.31759 0.15581 0.0
C719 C 0.85932 0.31512 0.17545 0.0
C720 C 0.79973 0.24637 0.19097 0.0
N721 N 0.78098 0.25673 0.18435 0.0
C722 C 0.7537 0.26833 0.19927 0.0
C723 C 0.75834 0.2677 0.18824 0.0
C724 C 0.77265 0.25771 0.20634 0.0
C725 C 0.79601 0.24678 0.20207 0.0
H726 H 0.8175 0.23771 0.1876 0.0
H727 H 0.7438 0.27572 0.18274 0.0
C728 C 0.73324 0.29715 0.13844 0.0
N729 N 0.75303 0.30423 0.14525 0.0
C730 C 0.71657 0.31645 0.13411 0.0
C731 C 0.74192 0.3501 0.14344 0.0
C732 C 0.75784 0.33006 0.14775 0.0
C733 C 0.72073 0.34325 0.13669 0.0
H734 H 0.73026 0.27645 0.13649 0.0
H735 H 0.77378 0.33503 0.1532 0.0
C736 C 0.82274 0.20407 0.16156 0.0
N737 N 0.85462 0.16089 0.15704 0.0
C738 C 0.82914 0.19789 0.15094 0.0
C739 C 0.83256 0.1883 0.16988 0.0
C740 C 0.84528 0.17599 0.14881 0.0
C741 C 0.84864 0.16654 0.16744 0.0
C742 C 0.79928 0.25795 0.13184 0.0
C743 C 0.80414 0.23764 0.12445 0.0
C744 C 0.80241 0.28441 0.1287 0.0
C745 C 0.81249 0.24416 0.11409 0.0
C746 C 0.81077 0.29011 0.11827 0.0
N747 N 0.81562 0.27004 0.11124 0.0
C748 C 0.74995 0.19775 0.13867 0.0
C749 C 0.76482 0.17342 0.15381 0.0
C750 C 0.73754 0.17527 0.13452 0.0
N751 N 0.76314 0.19643 0.14815 0.0
C752 C 0.7528 0.15038 0.14993 0.0
C753 C 0.73879 0.15115 0.14017 0.0
H754 H 0.74866 0.21647 0.13444 0.0
H755 H 0.77515 0.17305 0.16141 0.0
C756 C 0.86815 0.25271 0.1602 0.0
N757 N 0.85284 0.25742 0.15143 0.0
C758 C 0.89562 0.25135 0.15927 0.0
C759 C 0.8913 0.25977 0.14026 0.0
C760 C 0.86384 0.26118 0.14158 0.0
C761 C 0.90756 0.2545 0.14917 0.0
H762 H 0.85891 0.24965 0.16793 0.0
H763 H 0.85151 0.26476 0.13469 0.0
O764 O 0.75212 0.25233 0.16098 0.0
O765 O 0.8005 0.2874 0.16231 0.0
O766 O 0.80713 0.22554 0.16387 0.0
O767 O 0.79079 0.25185 0.14197 0.0
H768 H 0.70792 0.24948 0.14952 0.0
H769 H 0.75078 0.2152 0.17601 0.0
H770 H 0.67226 0.2163 0.15236 0.0
H771 H 0.71423 0.18281 0.17845 0.0
H772 H 0.86549 0.34378 0.15133 0.0
H773 H 0.82805 0.28872 0.18039 0.0
H774 H 0.82388 0.31881 0.1481 0.0
H775 H 0.86954 0.31431 0.18308 0.0
H776 H 0.73557 0.27718 0.20225 0.0
H777 H 0.81097 0.23816 0.20724 0.0
H778 H 0.70056 0.31054 0.12883 0.0
H779 H 0.74558 0.37059 0.14562 0.0
H780 H 0.82182 0.2099 0.1444 0.0
H781 H 0.82779 0.19282 0.17815 0.0
H782 H 0.85041 0.17102 0.14063 0.0
H783 H 0.85637 0.15416 0.1738 0.0
H784 H 0.80146 0.21705 0.12669 0.0
H785 H 0.79854 0.30039 0.13425 0.0
H786 H 0.81641 0.22864 0.1083 0.0
H787 H 0.81339 0.3105 0.11575 0.0
H788 H 0.72649 0.17699 0.1271 0.0
H789 H 0.75442 0.1322 0.15452 0.0
H790 H 0.90735 0.24776 0.1664 0.0
H791 H 0.8996 0.26207 0.1323 0.0
Li792 Li 0.73277 0.74169 0.67078 0.0
Li793 Li 0.73953 0.71779 0.65438 0.0
Li794 Li 0.73736 0.76552 0.65423 0.0
Li795 Li 0.69836 0.73987 0.65744 0.0
C796 C 0.78354 0.75877 0.66569 0.0
N797 N 0.82253 0.7909 0.67431 0.0
C798 C 0.81028 0.75257 0.66417 0.0
C799 C 0.77664 0.7813 0.67162 0.0
C800 C 0.8297 0.76906 0.66859 0.0
C801 C 0.79664 0.7973 0.6759 0.0
C802 C 0.72067 0.68828 0.6717 0.0
C803 C 0.70938 0.64971 0.68222 0.0
N804 N 0.7356 0.64477 0.68379 0.0
C805 C 0.74752 0.68281 0.67341 0.0
C806 C 0.70143 0.6716 0.67613 0.0
C807 C 0.75466 0.66073 0.67954 0.0
C808 C 0.71971 0.75096 0.69227 0.0
N809 N 0.73935 0.742 0.68576 0.0
C810 C 0.76724 0.73321 0.70083 0.0
C811 C 0.76282 0.73322 0.68979 0.0
C812 C 0.74732 0.74235 0.70779 0.0
C813 C 0.72331 0.75137 0.70338 0.0
H814 H 0.7012 0.75763 0.68882 0.0
H815 H 0.77813 0.72619 0.68443 0.0
C816 C 0.7818 0.69322 0.6443 0.0
N817 N 0.75696 0.68844 0.64802 0.0
C818 C 0.79697 0.6726 0.6401 0.0
C819 C 0.76033 0.6426 0.64328 0.0
C820 C 0.74591 0.66383 0.64752 0.0
C821 C 0.78634 0.64686 0.63965 0.0
H822 H 0.78991 0.71306 0.64474 0.0
H823 H 0.72613 0.66057 0.6506 0.0
C824 C 0.69452 0.79252 0.66316 0.0
N825 N 0.66186 0.83487 0.65828 0.0
C826 C 0.68862 0.79851 0.65247 0.0
C827 C 0.68382 0.80808 0.67137 0.0
C828 C 0.67206 0.82 0.65017 0.0
C829 C 0.66735 0.82941 0.66874 0.0
C830 C 0.70895 0.72505 0.6363 0.0
C831 C 0.71208 0.73172 0.62549 0.0
C832 C 0.6946 0.70231 0.63909 0.0
C833 C 0.70079 0.7155 0.61762 0.0
C834 C 0.68362 0.68661 0.63099 0.0
N835 N 0.68691 0.69347 0.62051 0.0
C836 C 0.76741 0.79095 0.63877 0.0
C837 C 0.75143 0.82042 0.65213 0.0
C838 C 0.78196 0.81132 0.63401 0.0
N839 N 0.7528 0.79577 0.64771 0.0
C840 C 0.76547 0.84147 0.64756 0.0
C841 C 0.78134 0.83687 0.6385 0.0
H842 H 0.76832 0.77104 0.63553 0.0
H843 H 0.74017 0.8236 0.65939 0.0
C844 C 0.64742 0.73045 0.66471 0.0
N845 N 0.66111 0.73872 0.65594 0.0
C846 C 0.6198 0.7305 0.66464 0.0
C847 C 0.6209 0.74732 0.64645 0.0
C848 C 0.64854 0.74698 0.64688 0.0
C849 C 0.6062 0.73924 0.65546 0.0
H850 H 0.65806 0.72417 0.67181 0.0
H851 H 0.65995 0.75379 0.64007 0.0
O852 O 0.76439 0.74283 0.66131 0.0
O853 O 0.71303 0.70979 0.66575 0.0
O854 O 0.71045 0.77142 0.66568 0.0
O855 O 0.72004 0.7408 0.64404 0.0
H856 H 0.81598 0.73518 0.65962 0.0
H857 H 0.7561 0.78645 0.67293 0.0
H858 H 0.85047 0.7645 0.66746 0.0
H859 H 0.79157 0.8148 0.68049 0.0
H860 H 0.69469 0.63663 0.6857 0.0
H861 H 0.76272 0.6954 0.67003 0.0
H862 H 0.68056 0.67556 0.67488 0.0
H863 H 0.77536 0.65627 0.68092 0.0
H864 H 0.78615 0.72638 0.70389 0.0
H865 H 0.70732 0.75826 0.70847 0.0
H866 H 0.81681 0.67673 0.63723 0.0
H867 H 0.75154 0.62299 0.64311 0.0
H868 H 0.69671 0.78676 0.64599 0.0
H869 H 0.68818 0.80368 0.67969 0.0
H870 H 0.66732 0.82484 0.64193 0.0
H871 H 0.65892 0.84161 0.67502 0.0
H872 H 0.72315 0.74925 0.62321 0.0
H873 H 0.69189 0.69682 0.6474 0.0
H874 H 0.70306 0.72043 0.60922 0.0
H875 H 0.67247 0.66897 0.63303 0.0
H876 H 0.79389 0.80707 0.62698 0.0
H877 H 0.76481 0.86083 0.65133 0.0
H878 H 0.60922 0.72382 0.6717 0.0
H879 H 0.61116 0.7545 0.63927 0.0
Li880 Li 0.69781 0.25304 0.33821 0.0
Li881 Li 0.73729 0.22802 0.3397 0.0
Li882 Li 0.73872 0.27667 0.34114 0.0
Li883 Li 0.72856 0.25323 0.32339 0.0
C884 C 0.71418 0.25485 0.36099 0.0
N885 N 0.69906 0.26268 0.38207 0.0
C886 C 0.71182 0.23323 0.36797 0.0
C887 C 0.70921 0.28049 0.36478 0.0
C888 C 0.70404 0.23759 0.37858 0.0
C889 C 0.70149 0.28402 0.37546 0.0
C890 C 0.69428 0.20023 0.33117 0.0
C891 C 0.67181 0.16065 0.32519 0.0
N892 N 0.66499 0.15515 0.33552 0.0
C893 C 0.68701 0.19422 0.34171 0.0
C894 C 0.68659 0.18337 0.32283 0.0
C895 C 0.67222 0.17133 0.34375 0.0
C896 C 0.6456 0.24896 0.33186 0.0
N897 N 0.66057 0.25285 0.34079 0.0
C898 C 0.62169 0.25556 0.35169 0.0
C899 C 0.64924 0.25599 0.35062 0.0
C900 C 0.60583 0.25219 0.34254 0.0
C901 C 0.61805 0.24885 0.33253 0.0
H902 H 0.65516 0.24606 0.32418 0.0
H903 H 0.66139 0.25883 0.35763 0.0
C904 C 0.77075 0.20341 0.35395 0.0
N905 N 0.75468 0.19795 0.34549 0.0
C906 C 0.78664 0.18361 0.35834 0.0
C907 C 0.76819 0.15249 0.34557 0.0
C908 C 0.753 0.17311 0.34125 0.0
C909 C 0.78553 0.1579 0.35409 0.0
H910 H 0.77177 0.22343 0.35707 0.0
H911 H 0.74044 0.16943 0.33439 0.0
C912 C 0.68854 0.29905 0.32869 0.0
N913 N 0.64167 0.32663 0.32599 0.0
C914 C 0.67545 0.29855 0.31881 0.0
C915 C 0.67801 0.3139 0.33715 0.0
C916 C 0.65173 0.31255 0.31761 0.0
C917 C 0.65423 0.32761 0.33564 0.0
C918 C 0.78373 0.23792 0.33082 0.0
C919 C 0.80602 0.24222 0.33725 0.0
C920 C 0.78377 0.21723 0.32335 0.0
C921 C 0.82797 0.22552 0.33616 0.0
C922 C 0.80611 0.20098 0.3225 0.0
N923 N 0.82755 0.20541 0.32887 0.0
C924 C 0.77465 0.29903 0.35535 0.0
C925 C 0.75181 0.33062 0.34468 0.0
C926 C 0.78946 0.31905 0.36021 0.0
N927 N 0.75655 0.30513 0.34768 0.0
C928 C 0.76605 0.35134 0.3494 0.0
C929 C 0.78539 0.34565 0.3572 0.0
H930 H 0.77782 0.2785 0.35757 0.0
H931 H 0.73716 0.33479 0.33857 0.0
C932 C 0.71407 0.24522 0.30185 0.0
N933 N 0.7334 0.25462 0.30842 0.0
C934 C 0.71746 0.24583 0.29073 0.0
C935 C 0.7607 0.26555 0.29341 0.0
C936 C 0.75637 0.26473 0.30446 0.0
C937 C 0.74109 0.25603 0.28637 0.0
H938 H 0.69599 0.23734 0.30527 0.0
H939 H 0.77142 0.27193 0.30992 0.0
O940 O 0.7221 0.25091 0.35062 0.0
O941 O 0.70864 0.2226 0.32893 0.0
O942 O 0.71145 0.28494 0.33009 0.0
O943 O 0.76163 0.25335 0.33204 0.0
H944 H 0.71602 0.21328 0.36522 0.0
H945 H 0.71126 0.29748 0.35956 0.0
H946 H 0.70204 0.22103 0.38405 0.0
H947 H 0.69748 0.30375 0.37848 0.0
H948 H 0.66575 0.1474 0.31881 0.0
H949 H 0.69263 0.20711 0.34825 0.0
H950 H 0.69202 0.18781 0.31461 0.0
H951 H 0.66645 0.16645 0.35188 0.0
H952 H 0.61286 0.25821 0.35954 0.0
H953 H 0.60642 0.24583 0.32533 0.0
H954 H 0.79986 0.18835 0.36492 0.0
H955 H 0.76713 0.13283 0.34207 0.0
H956 H 0.68339 0.28725 0.31216 0.0
H957 H 0.68796 0.31465 0.34482 0.0
H958 H 0.64128 0.31217 0.31003 0.0
H959 H 0.64574 0.339 0.34215 0.0
H960 H 0.80627 0.25811 0.34308 0.0
H961 H 0.76655 0.21349 0.31838 0.0
H962 H 0.84531 0.2285 0.34112 0.0
H963 H 0.80635 0.18477 0.31681 0.0
H964 H 0.8044 0.31362 0.36605 0.0
H965 H 0.76199 0.37156 0.34694 0.0
H966 H 0.70166 0.23863 0.28562 0.0
H967 H 0.77937 0.27319 0.29043 0.0
Li968 Li 0.7781 0.76807 0.84193 0.0
Li969 Li 0.81886 0.74274 0.84023 0.0
Li970 Li 0.78579 0.74253 0.82531 0.0
Li971 Li 0.77857 0.71831 0.84204 0.0
C972 C 0.80808 0.79781 0.82679 0.0
N973 N 0.81091 0.848 0.81787 0.0
C974 C 0.82926 0.81462 0.82929 0.0
C975 C 0.78859 0.8064 0.81962 0.0
C976 C 0.83027 0.83996 0.82474 0.0
C977 C 0.7903 0.83186 0.81523 0.0
C978 C 0.81036 0.74657 0.86114 0.0
C979 C 0.84245 0.72896 0.87361 0.0
N980 N 0.8445 0.75328 0.87828 0.0
C981 C 0.81263 0.77134 0.86612 0.0
C982 C 0.82523 0.72513 0.86497 0.0
C983 C 0.83004 0.77434 0.87475 0.0
C984 C 0.73832 0.79164 0.85347 0.0
N985 N 0.76126 0.79765 0.84832 0.0
C986 C 0.75781 0.84308 0.85365 0.0
C987 C 0.77129 0.82272 0.84834 0.0
C988 C 0.73404 0.83739 0.85906 0.0
C989 C 0.72427 0.81128 0.85888 0.0
H990 H 0.73101 0.77145 0.85338 0.0
H991 H 0.7899 0.82688 0.84443 0.0
C992 C 0.87068 0.72208 0.84137 0.0
N993 N 0.8553 0.74344 0.8437 0.0
C994 C 0.89751 0.72213 0.84405 0.0
C995 C 0.89212 0.7662 0.85145 0.0
C996 C 0.86541 0.76529 0.84862 0.0
C997 C 0.90854 0.74444 0.84914 0.0
H998 H 0.86215 0.7051 0.83736 0.0
H999 H 0.85264 0.78193 0.85041 0.0
C1000 C 0.73014 0.74866 0.82987 0.0
N1001 N 0.68184 0.76062 0.82054 0.0
C1002 C 0.71154 0.72861 0.82799 0.0
C1003 C 0.72389 0.77488 0.82721 0.0
C1004 C 0.68732 0.73502 0.8232 0.0
C1005 C 0.69945 0.78051 0.82245 0.0
C1006 C 0.80665 0.68549 0.83019 0.0
C1007 C 0.79618 0.67372 0.82096 0.0
C1008 C 0.81655 0.66947 0.83843 0.0
C1009 C 0.79544 0.64606 0.82019 0.0
C1010 C 0.81542 0.64189 0.83737 0.0
N1011 N 0.80495 0.63085 0.82835 0.0
C1012 C 0.79967 0.75358 0.8039 0.0
C1013 C 0.75953 0.7296 0.80587 0.0
C1014 C 0.79675 0.75381 0.79276 0.0
N1015 N 0.78099 0.74192 0.81019 0.0
C1016 C 0.75586 0.72925 0.79477 0.0
C1017 C 0.77455 0.7416 0.78807 0.0
H1018 H 0.81683 0.76275 0.80755 0.0
H1019 H 0.7454 0.71977 0.81101 0.0
C1020 C 0.7625 0.68561 0.85906 0.0
N1021 N 0.76177 0.68829 0.84822 0.0
C1022 C 0.74882 0.66497 0.86405 0.0
C1023 C 0.73421 0.64995 0.84659 0.0
C1024 C 0.74823 0.67089 0.84194 0.0
C1025 C 0.73406 0.64706 0.8578 0.0
H1026 H 0.7732 0.69987 0.86387 0.0
H1027 H 0.74783 0.67361 0.83334 0.0
O1028 O 0.80688 0.7729 0.83118 0.0
O1029 O 0.79369 0.74333 0.85258 0.0
O1030 O 0.75389 0.74267 0.83463 0.0
O1031 O 0.80729 0.71255 0.83113 0.0
H1032 H 0.84475 0.80824 0.8347 0.0
H1033 H 0.77251 0.79346 0.81732 0.0
H1034 H 0.84646 0.85322 0.82666 0.0
H1035 H 0.7753 0.83874 0.80968 0.0
H1036 H 0.85422 0.71259 0.8766 0.0
H1037 H 0.80126 0.78813 0.86329 0.0
H1038 H 0.82365 0.70582 0.86124 0.0
H1039 H 0.83211 0.79343 0.87864 0.0
H1040 H 0.76613 0.86291 0.8537 0.0
H1041 H 0.70583 0.80611 0.8628 0.0
H1042 H 0.90959 0.70514 0.84196 0.0
H1043 H 0.89979 0.78368 0.85545 0.0
H1044 H 0.71579 0.70826 0.83012 0.0
H1045 H 0.73754 0.79083 0.82892 0.0
H1046 H 0.67287 0.71964 0.82161 0.0
H1047 H 0.69443 0.80072 0.82033 0.0
H1048 H 0.78862 0.68579 0.81447 0.0
H1049 H 0.82478 0.67824 0.84561 0.0
H1050 H 0.78727 0.63668 0.81312 0.0
H1051 H 0.82282 0.62926 0.84372 0.0
H1052 H 0.81186 0.76314 0.78787 0.0
H1053 H 0.73843 0.71967 0.79149 0.0
H1054 H 0.74949 0.66329 0.87271 0.0
H1055 H 0.72282 0.63682 0.84148 0.0
Li1056 Li 0.49167 0.5218 0.07453 0.0
Li1057 Li 0.49076 0.55623 0.0883 0.0
Li1058 Li 0.51477 0.51473 0.0912 0.0
Li1059 Li 0.46641 0.51632 0.09119 0.0
C1060 C 0.53639 0.54945 0.07172 0.0
N1061 N 0.56406 0.56337 0.05343 0.0
C1062 C 0.53547 0.57553 0.0679 0.0
C1063 C 0.55155 0.53051 0.06629 0.0
C1064 C 0.54959 0.58217 0.05863 0.0
C1065 C 0.56533 0.53791 0.05703 0.0
C1066 C 0.43442 0.54048 0.07805 0.0
C1067 C 0.38944 0.54767 0.08394 0.0
N1068 N 0.3805 0.5334 0.07541 0.0
C1069 C 0.42479 0.52595 0.06932 0.0
C1070 C 0.41663 0.55153 0.0854 0.0
C1071 C 0.39745 0.52259 0.06813 0.0
C1072 C 0.49132 0.49006 0.05579 0.0
N1073 N 0.49193 0.51542 0.05951 0.0
C1074 C 0.49346 0.53251 0.04165 0.0
C1075 C 0.49236 0.53652 0.05271 0.0
C1076 C 0.49316 0.50656 0.03759 0.0
C1077 C 0.49173 0.48514 0.04476 0.0
H1078 H 0.49042 0.47367 0.06138 0.0
H1079 H 0.49199 0.55647 0.05589 0.0
C1080 C 0.51346 0.60511 0.09452 0.0
N1081 N 0.49126 0.59334 0.09058 0.0
C1082 C 0.51394 0.63246 0.09629 0.0
C1083 C 0.46887 0.63499 0.08972 0.0
C1084 C 0.46923 0.60761 0.08813 0.0
C1085 C 0.49145 0.64774 0.09382 0.0
H1086 H 0.5308 0.59323 0.09625 0.0
H1087 H 0.45198 0.59775 0.0849 0.0
C1088 C 0.4998 0.46602 0.08596 0.0
N1089 N 0.522 0.41744 0.09099 0.0
C1090 C 0.48871 0.45031 0.09405 0.0
C1091 C 0.52202 0.45692 0.08036 0.0
C1092 C 0.50025 0.42582 0.09648 0.0
C1093 C 0.53301 0.43235 0.08305 0.0
C1094 C 0.49527 0.55169 0.10915 0.0
C1095 C 0.52047 0.55433 0.11369 0.0
C1096 C 0.47483 0.56861 0.11241 0.0
C1097 C 0.52484 0.574 0.1214 0.0
C1098 C 0.48002 0.58806 0.12012 0.0
N1099 N 0.50471 0.59033 0.12442 0.0
C1100 C 0.56937 0.50227 0.09404 0.0
C1101 C 0.53962 0.4823 0.10635 0.0
C1102 C 0.59076 0.48896 0.09871 0.0
N1103 N 0.54441 0.49837 0.09782 0.0
C1104 C 0.56029 0.46833 0.11116 0.0
C1105 C 0.58633 0.47139 0.1073 0.0
H1106 H 0.57267 0.51558 0.08737 0.0
H1107 H 0.51958 0.47994 0.10928 0.0
C1108 C 0.42144 0.48291 0.0918 0.0
N1109 N 0.43577 0.50098 0.09745 0.0
C1110 C 0.39962 0.47046 0.09651 0.0
C1111 C 0.40768 0.49566 0.11271 0.0
C1112 C 0.42931 0.50759 0.10768 0.0
C1113 C 0.39271 0.47657 0.10715 0.0
H1114 H 0.42731 0.47781 0.08371 0.0
H1115 H 0.44123 0.52178 0.11203 0.0
O1116 O 0.52248 0.5425 0.08071 0.0
O1117 O 0.46114 0.54355 0.07948 0.0
O1118 O 0.48912 0.49029 0.08361 0.0
O1119 O 0.49071 0.53284 0.10146 0.0
H1120 H 0.52379 0.59044 0.07198 0.0
H1121 H 0.55243 0.51023 0.06912 0.0
H1122 H 0.54895 0.60224 0.05555 0.0
H1123 H 0.57698 0.52341 0.05271 0.0
H1124 H 0.37546 0.55593 0.08961 0.0
H1125 H 0.43825 0.51718 0.06358 0.0
H1126 H 0.42375 0.56258 0.09227 0.0
H1127 H 0.38972 0.51131 0.06144 0.0
H1128 H 0.49418 0.54947 0.0363 0.0
H1129 H 0.49136 0.46487 0.04186 0.0
H1130 H 0.53187 0.64161 0.09932 0.0
H1131 H 0.45108 0.64604 0.08779 0.0
H1132 H 0.47159 0.45709 0.0985 0.0
H1133 H 0.53084 0.46883 0.07409 0.0
H1134 H 0.49198 0.41353 0.10276 0.0
H1135 H 0.55033 0.42515 0.07884 0.0
H1136 H 0.53656 0.54151 0.11124 0.0
H1137 H 0.4553 0.56708 0.10887 0.0
H1138 H 0.54427 0.57633 0.12495 0.0
H1139 H 0.46445 0.60144 0.12265 0.0
H1140 H 0.6105 0.49241 0.0956 0.0
H1141 H 0.55572 0.45478 0.11764 0.0
H1142 H 0.38889 0.45556 0.09199 0.0
H1143 H 0.40291 0.50111 0.12089 0.0
Li1144 Li 0.98537 0.47666 0.59049 0.0
Li1145 Li 0.03368 0.47908 0.58964 0.0
Li1146 Li 0.00714 0.47069 0.57352 0.0
Li1147 Li 0.01214 0.43718 0.58755 0.0
C1148 C 0.99564 0.52587 0.58509 0.0
N1149 N 0.9697 0.57184 0.59107 0.0
C1150 C 0.00577 0.54163 0.59336 0.0
C1151 C 0.97246 0.53359 0.57979 0.0
C1152 C 0.99234 0.5648 0.59627 0.0
C1153 C 0.95958 0.55685 0.58296 0.0
C1154 C 0.01073 0.44273 0.60843 0.0
C1155 C 0.03189 0.40976 0.61955 0.0
N1156 N 0.00815 0.40438 0.62425 0.0
C1157 C 0.98655 0.43694 0.61338 0.0
C1158 C 0.03362 0.42914 0.61156 0.0
C1159 C 0.98567 0.41747 0.62137 0.0
C1160 C 0.93057 0.4881 0.5935 0.0
N1161 N 0.95539 0.49095 0.59757 0.0
C1162 C 0.9391 0.51767 0.61193 0.0
C1163 C 0.95994 0.50497 0.6067 0.0
C1164 C 0.91328 0.51575 0.60777 0.0
C1165 C 0.90908 0.50045 0.59849 0.0
H1166 H 0.9275 0.47656 0.5863 0.0
H1167 H 0.97993 0.50676 0.60976 0.0
C1168 C 0.07715 0.51395 0.58836 0.0
N1169 N 0.06357 0.4975 0.59503 0.0
C1170 C 0.09861 0.52858 0.59222 0.0
C1171 C 0.09129 0.50947 0.60978 0.0
C1172 C 0.07015 0.495 0.60555 0.0
C1173 C 0.10578 0.52667 0.6031 0.0
H1174 H 0.07112 0.51588 0.58007 0.0
H1175 H 0.0586 0.48223 0.61071 0.0
C1176 C 0.96499 0.43927 0.57151 0.0
N1177 N 0.93756 0.42194 0.55364 0.0
C1178 C 0.96748 0.41299 0.56806 0.0
C1179 C 0.94845 0.45671 0.56591 0.0
C1180 C 0.95345 0.40462 0.559 0.0
C1181 C 0.9348 0.44758 0.55687 0.0
C1182 C 0.06606 0.4555 0.57611 0.0
C1183 C 0.07413 0.46842 0.56673 0.0
C1184 C 0.08508 0.44673 0.58346 0.0
C1185 C 0.10115 0.47256 0.56491 0.0
C1186 C 0.1119 0.4513 0.58136 0.0
N1187 N 0.11931 0.46402 0.57221 0.0
C1188 C 0.00498 0.50239 0.55494 0.0
C1189 C 0.00576 0.4561 0.55159 0.0
C1190 C 0.00456 0.50773 0.54395 0.0
N1191 N 0.00541 0.47692 0.55851 0.0
C1192 C 0.00478 0.46049 0.54054 0.0
C1193 C 0.00433 0.48663 0.53655 0.0
H1194 H 0.00542 0.51859 0.56062 0.0
H1195 H 0.00682 0.43606 0.55465 0.0
C1196 C 0.99349 0.38743 0.59455 0.0
N1197 N 0.01467 0.40035 0.5903 0.0
C1198 C 0.99484 0.36023 0.59659 0.0
C1199 C 0.03971 0.36021 0.58974 0.0
C1200 C 0.03751 0.3874 0.58788 0.0
C1201 C 0.01814 0.34627 0.5941 0.0
H1202 H 0.97545 0.39825 0.59626 0.0
H1203 H 0.05394 0.39815 0.58441 0.0
O1204 O 0.00807 0.50274 0.58233 0.0
O1205 O 0.01192 0.46135 0.60045 0.0
O1206 O 0.97867 0.44788 0.58033 0.0
O1207 O 0.03968 0.45153 0.5781 0.0
H1208 H 0.02361 0.53589 0.59758 0.0
H1209 H 0.96434 0.52155 0.5734 0.0
H1210 H -0.00015 0.57711 0.6027 0.0
H1211 H 0.94151 0.56295 0.57899 0.0
H1212 H 0.04941 0.39896 0.622 0.0
H1213 H 0.96861 0.44714 0.61102 0.0
H1214 H 0.05245 0.43325 0.60775 0.0
H1215 H 0.96707 0.41269 0.62524 0.0
H1216 H 0.94335 0.52956 0.61897 0.0
H1217 H 0.88944 0.49817 0.5951 0.0
H1218 H 0.10933 0.54135 0.58674 0.0
H1219 H 0.09567 0.50778 0.61825 0.0
H1220 H 0.98026 0.39924 0.57226 0.0
H1221 H 0.94648 0.47717 0.56841 0.0
H1222 H 0.95526 0.38436 0.55621 0.0
H1223 H 0.92208 0.4609 0.55242 0.0
H1224 H 0.05971 0.47534 0.56095 0.0
H1225 H 0.07918 0.43687 0.5908 0.0
H1226 H 0.10767 0.48263 0.55771 0.0
H1227 H 0.12682 0.44482 0.58702 0.0
H1228 H 0.00495 0.52821 0.54132 0.0
H1229 H 0.00428 0.44351 0.53523 0.0
H1230 H 0.97763 0.35014 0.59981 0.0
H1231 H 0.05808 0.35019 0.58777 0.0
Li1232 Li 0.47916 0.47601 0.90384 0.0
Li1233 Li 0.52741 0.47802 0.90445 0.0
Li1234 Li 0.50392 0.43607 0.90602 0.0
Li1235 Li 0.5032 0.4684 0.92061 0.0
C1236 C 0.50864 0.44375 0.88531 0.0
N1237 N 0.51764 0.40758 0.86904 0.0
C1238 C 0.53387 0.44142 0.88076 0.0
C1239 C 0.48797 0.42777 0.88155 0.0
C1240 C 0.53801 0.42301 0.87255 0.0
C1241 C 0.49294 0.40956 0.87334 0.0
C1242 C 0.51197 0.52549 0.91017 0.0
C1243 C 0.54454 0.55931 0.91388 0.0
N1244 N 0.53483 0.57405 0.90562 0.0
C1245 C 0.50222 0.541 0.90174 0.0
C1246 C 0.5332 0.53474 0.91633 0.0
C1247 C 0.51407 0.5655 0.89957 0.0
C1248 C 0.43441 0.50908 0.90408 0.0
N1249 N 0.4488 0.49233 0.89783 0.0
C1250 C 0.4215 0.50182 0.88266 0.0
C1251 C 0.44275 0.48837 0.88733 0.0
C1252 C 0.40649 0.51959 0.88887 0.0
C1253 C 0.41295 0.52288 0.89976 0.0
H1254 H 0.44004 0.51217 0.91237 0.0
H1255 H 0.45478 0.47525 0.88251 0.0
C1256 C 0.58155 0.49308 0.90323 0.0
N1257 N 0.55736 0.49523 0.89852 0.0
C1258 C 0.6033 0.50653 0.89895 0.0
C1259 C 0.57489 0.52358 0.88491 0.0
C1260 C 0.55373 0.50981 0.88946 0.0
C1261 C 0.60006 0.52216 0.88971 0.0
H1262 H 0.58394 0.48101 0.91033 0.0
H1263 H 0.53425 0.51093 0.88585 0.0
C1264 C 0.44657 0.44899 0.91585 0.0
N1265 N 0.39225 0.45404 0.91784 0.0
C1266 C 0.43572 0.46183 0.92477 0.0
C1267 C 0.42979 0.43856 0.90798 0.0
C1268 C 0.40821 0.46419 0.92563 0.0
C1269 C 0.40238 0.44139 0.90911 0.0
C1270 C 0.54767 0.44079 0.92347 0.0
C1271 C 0.54718 0.41404 0.92646 0.0
C1272 C 0.56138 0.45912 0.92982 0.0
C1273 C 0.5603 0.4061 0.9358 0.0
C1274 C 0.57419 0.45039 0.93911 0.0
N1275 N 0.57339 0.42429 0.94189 0.0
C1276 C 0.52834 0.38916 0.89874 0.0
C1277 C 0.4841 0.38405 0.90484 0.0
C1278 C 0.53004 0.36212 0.89645 0.0
N1279 N 0.50558 0.39948 0.90281 0.0
C1280 C 0.48497 0.3569 0.90273 0.0
C1281 C 0.50819 0.34557 0.8985 0.0
H1282 H 0.54521 0.40195 0.89734 0.0
H1283 H 0.46644 0.39275 0.90825 0.0
C1284 C 0.49975 0.49778 0.93983 0.0
N1285 N 0.50178 0.47286 0.93573 0.0
C1286 C 0.49841 0.50158 0.95091 0.0
C1287 C 0.50144 0.45402 0.95332 0.0
C1288 C 0.50207 0.4511 0.94219 0.0
C1289 C 0.49954 0.47951 0.95776 0.0
H1290 H 0.49901 0.51468 0.93449 0.0
H1291 H 0.50285 0.43149 0.93869 0.0
O1292 O 0.50427 0.46138 0.89347 0.0
O1293 O 0.5011 0.50116 0.91226 0.0
O1294 O 0.47347 0.44692 0.91476 0.0
O1295 O 0.53478 0.44899 0.9144 0.0
H1296 H 0.55015 0.45348 0.88361 0.0
H1297 H 0.46839 0.42911 0.88505 0.0
H1298 H 0.55745 0.42092 0.86898 0.0
H1299 H 0.47717 0.39693 0.87041 0.0
H1300 H 0.56111 0.56664 0.91853 0.0
H1301 H 0.48592 0.53408 0.89684 0.0
H1302 H 0.54103 0.52293 0.92285 0.0
H1303 H 0.50683 0.57765 0.89303 0.0
H1304 H 0.41708 0.4986 0.87426 0.0
H1305 H 0.40219 0.53672 0.90478 0.0
H1306 H 0.62245 0.50462 0.90281 0.0
H1307 H 0.57144 0.53565 0.87786 0.0
H1308 H 0.44839 0.47007 0.93093 0.0
H1309 H 0.43786 0.42874 0.90098 0.0
H1310 H 0.39954 0.47417 0.93246 0.0
H1311 H 0.38917 0.43359 0.90304 0.0
H1312 H 0.53662 0.39959 0.92168 0.0
H1313 H 0.56178 0.47993 0.92768 0.0
H1314 H 0.56 0.38548 0.93823 0.0
H1315 H 0.5847 0.46439 0.94414 0.0
H1316 H 0.54826 0.35426 0.89313 0.0
H1317 H 0.46786 0.34483 0.90467 0.0
H1318 H 0.49686 0.52152 0.95411 0.0
H1319 H 0.50199 0.43658 0.9584 0.0
Li1320 Li 0.01416 0.56098 0.40395 0.0
Li1321 Li 0.01258 0.53086 0.41937 0.0
Li1322 Li 0.04006 0.52149 0.40359 0.0
Li1323 Li 0.99163 0.5184 0.40268 0.0
C1324 C 0.06956 0.55143 0.41604 0.0
N1325 N 0.12335 0.54917 0.42013 0.0
C1326 C 0.07878 0.54158 0.42584 0.0
C1327 C 0.08768 0.56032 0.40835 0.0
C1328 C 0.10606 0.54057 0.42775 0.0
C1329 C 0.1148 0.55894 0.41055 0.0
C1330 C 0.96681 0.55787 0.41994 0.0
C1331 C 0.93583 0.55011 0.43435 0.0
N1332 N 0.936 0.57651 0.43665 0.0
C1333 C 0.96663 0.58493 0.42243 0.0
C1334 C 0.95122 0.54031 0.42591 0.0
C1335 C 0.95092 0.59396 0.43091 0.0
C1336 C 0.98956 0.6059 0.39502 0.0
N1337 N 0.01227 0.59686 0.39962 0.0
C1338 C 0.0322 0.63964 0.39825 0.0
C1339 C 0.03342 0.61302 0.40126 0.0
C1340 C 0.00895 0.64967 0.39353 0.0
C1341 C 0.98748 0.63238 0.39186 0.0
H1342 H 0.97301 0.59253 0.3939 0.0
H1343 H 0.05108 0.60533 0.40504 0.0
C1344 C 0.01439 0.50269 0.43867 0.0
N1345 N 0.01082 0.52738 0.43454 0.0
C1346 C 0.01321 0.49856 0.44972 0.0
C1347 C 0.00481 0.54542 0.45211 0.0
C1348 C 0.00671 0.54872 0.441 0.0
C1349 C 0.008 0.52001 0.45663 0.0
H1350 H 0.01841 0.48619 0.43338 0.0
H1351 H 0.00472 0.56828 0.43754 0.0
C1352 C 0.01343 0.54996 0.38339 0.0
N1353 N 0.00671 0.58338 0.36602 0.0
C1354 C 0.98892 0.55135 0.3782 0.0
C1355 C 0.03459 0.56541 0.37971 0.0
C1356 C 0.98591 0.56839 0.36943 0.0
C1357 C 0.03076 0.58225 0.37094 0.0
C1358 C 0.00732 0.47201 0.41042 0.0
C1359 C 0.01999 0.45451 0.40339 0.0
C1360 C 0.98474 0.46373 0.41599 0.0
C1361 C 0.00965 0.42902 0.40197 0.0
C1362 C 0.97499 0.4381 0.41434 0.0
N1363 N 0.98753 0.42142 0.40742 0.0
C1364 C 0.08638 0.49106 0.4062 0.0
C1365 C 0.07827 0.50559 0.3884 0.0
C1366 C 0.10871 0.47696 0.40286 0.0
N1367 N 0.07172 0.5049 0.39896 0.0
C1368 C 0.10031 0.49161 0.38469 0.0
C1369 C 0.11569 0.47675 0.39194 0.0
H1370 H 0.08039 0.49054 0.41453 0.0
H1371 H 0.06591 0.51629 0.38279 0.0
C1372 C 0.93763 0.50589 0.39938 0.0
N1373 N 0.96285 0.49995 0.39641 0.0
C1374 C 0.91633 0.49203 0.39495 0.0
C1375 C 0.94741 0.46653 0.38437 0.0
C1376 C 0.96806 0.48108 0.38892 0.0
C1377 C 0.92109 0.47184 0.3874 0.0
H1378 H 0.93404 0.52145 0.40516 0.0
H1379 H 0.98832 0.47717 0.38657 0.0
O1380 O 0.04294 0.55229 0.41397 0.0
O1381 O 0.98211 0.54863 0.41168 0.0
O1382 O 0.01664 0.53377 0.39211 0.0
O1383 O 0.01688 0.49719 0.4118 0.0
H1384 H 0.06505 0.53464 0.43189 0.0
H1385 H 0.08088 0.56785 0.40069 0.0
H1386 H 0.11348 0.5329 0.43528 0.0
H1387 H 0.12905 0.56556 0.40464 0.0
H1388 H 0.92378 0.53673 0.43908 0.0
H1389 H 0.97865 0.5988 0.41793 0.0
H1390 H 0.95119 0.5193 0.42412 0.0
H1391 H 0.95066 0.61483 0.43295 0.0
H1392 H 0.04901 0.65238 0.39989 0.0
H1393 H 0.96927 0.63925 0.3882 0.0
H1394 H 0.01668 0.47876 0.45279 0.0
H1395 H 0.0006 0.56259 0.45704 0.0
H1396 H 0.97231 0.53959 0.38096 0.0
H1397 H 0.05365 0.56468 0.38369 0.0
H1398 H 0.96702 0.56977 0.36536 0.0
H1399 H 0.04689 0.59448 0.36806 0.0
H1400 H 0.03744 0.46061 0.39899 0.0
H1401 H 0.97475 0.47704 0.42147 0.0
H1402 H 0.01915 0.4153 0.39651 0.0
H1403 H 0.95744 0.43148 0.41854 0.0
H1404 H 0.1201 0.46602 0.40875 0.0
H1405 H 0.10457 0.4916 0.37617 0.0
H1406 H 0.89637 0.4972 0.39736 0.0
H1407 H 0.95211 0.45099 0.37868 0.0
H1408 H 0.05417 0.17743 0.59137 0.0
H1409 H 0.97582 0.18265 0.60526 0.0
H1410 H 0.05813 0.22553 0.59206 0.0
H1411 H 0.97926 0.23088 0.60543 0.0
H1412 H 0.00087 0.31715 0.61128 0.0
H1413 H 0.00141 0.26888 0.61328 0.0
H1414 H 0.0386 0.26163 0.58217 0.0
H1415 H 0.03829 0.30966 0.58025 0.0
C1416 C 0.0379 0.1888 0.59469 0.0
C1417 C 0.01459 0.1762 0.5982 0.0
C1418 C 0.04005 0.21641 0.59496 0.0
C1419 C 0.0189 0.23206 0.59869 0.0
C1420 C 0.99598 0.21942 0.60257 0.0
C1421 C 0.99387 0.19178 0.60234 0.0
C1422 C 0.00918 0.30517 0.6049 0.0
C1423 C 0.01953 0.31714 0.59561 0.0
C1424 C 0.00949 0.27757 0.60604 0.0
C1425 C 0.02007 0.26142 0.59789 0.0
C1426 C 0.03077 0.27349 0.58869 0.0
C1427 C 0.03055 0.30103 0.58757 0.0
H1428 H 0.93955 0.70499 0.85751 0.0
H1429 H 0.94239 0.78602 0.84618 0.0
H1430 H 0.98757 0.70546 0.85998 0.0
H1431 H 0.99023 0.78649 0.84863 0.0
H1432 H 0.07466 0.78562 0.86005 0.0
H1433 H 0.02642 0.78463 0.8617 0.0
H1434 H 0.02518 0.70626 0.84761 0.0
H1435 H 0.0732 0.70724 0.84597 0.0
C1436 C 0.95043 0.72291 0.85559 0.0
C1437 C 0.93725 0.7454 0.85158 0.0
C1438 C 0.97787 0.7232 0.85702 0.0
C1439 C 0.99267 0.74597 0.85446 0.0
C1440 C 0.97935 0.76877 0.85083 0.0
C1441 C 0.95193 0.76848 0.8494 0.0
C1442 C 0.06405 0.76814 0.85737 0.0
C1443 C 0.07768 0.74658 0.85282 0.0
C1444 C 0.03647 0.76757 0.85832 0.0
C1445 C 0.02202 0.74543 0.85473 0.0
C1446 C 0.03577 0.72345 0.85059 0.0
C1447 C 0.06331 0.72402 0.84965 0.0
H1448 H 0.51089 0.67627 0.11078 0.0
H1449 H 0.47295 0.68507 0.0799 0.0
H1450 H 0.5123 0.72453 0.11273 0.0
H1451 H 0.47458 0.7331 0.08176 0.0
H1452 H 0.4613 0.81758 0.09128 0.0
H1453 H 0.45621 0.76957 0.09182 0.0
H1454 H 0.53527 0.76202 0.10483 0.0
H1455 H 0.53986 0.81017 0.10481 0.0
C1456 C 0.50294 0.68854 0.1044 0.0
C1457 C 0.49179 0.67694 0.09519 0.0
C1458 C 0.50374 0.71613 0.10551 0.0
C1459 C 0.49348 0.73265 0.09742 0.0
C1460 C 0.48216 0.72096 0.08825 0.0
C1461 C 0.48128 0.69343 0.08716 0.0
C1462 C 0.47738 0.80575 0.09449 0.0
C1463 C 0.50106 0.81771 0.09795 0.0
C1464 C 0.47458 0.77819 0.09466 0.0
C1465 C 0.49545 0.76196 0.09825 0.0
C1466 C 0.51876 0.77396 0.10208 0.0
C1467 C 0.52152 0.80154 0.10194 0.0
H1468 H 0.57529 0.22297 0.35618 0.0
H1469 H 0.57083 0.28084 0.33071 0.0
H1470 H 0.52695 0.2202 0.35659 0.0
H1471 H 0.52259 0.27903 0.33134 0.0
H1472 H 0.44006 0.24741 0.32611 0.0
H1473 H 0.48802 0.25006 0.32646 0.0
H1474 H 0.48705 0.24264 0.36103 0.0
H1475 H 0.43902 0.238 0.36061 0.0
C1476 C 0.56387 0.23539 0.3508 0.0
C1477 C 0.57664 0.25195 0.34336 0.0
C1478 C 0.53621 0.23391 0.35104 0.0
C1479 C 0.52083 0.24923 0.34393 0.0
C1480 C 0.53377 0.26645 0.33674 0.0
C1481 C 0.56138 0.26763 0.33641 0.0
C1482 C 0.45004 0.24584 0.33378 0.0
C1483 C 0.4356 0.24234 0.34333 0.0
C1484 C 0.47759 0.24785 0.334 0.0
C1485 C 0.49146 0.2468 0.34378 0.0
C1486 C 0.47706 0.2433 0.35334 0.0
C1487 C 0.44946 0.24098 0.35311 0.0
H1488 H 0.96411 0.8162 0.3843 0.0
H1489 H 0.04172 0.81374 0.39901 0.0
H1490 H 0.96557 0.76807 0.38187 0.0
H1491 H 0.0433 0.76602 0.39639 0.0
H1492 H 0.04652 0.68211 0.38462 0.0
H1493 H 0.04463 0.73031 0.38265 0.0
H1494 H 0.96441 0.73014 0.39477 0.0
H1495 H 0.96634 0.68213 0.39685 0.0
C1496 C 0.98153 0.80546 0.38695 0.0
C1497 C 0.00274 0.81882 0.3919 0.0
C1498 C 0.98239 0.77796 0.38551 0.0
C1499 C 0.00454 0.76334 0.38893 0.0
C1500 C 0.02614 0.77681 0.3935 0.0
C1501 C 0.02523 0.80421 0.395 0.0
C1502 C 0.02844 0.69237 0.3868 0.0
C1503 C 0.00669 0.67835 0.391 0.0
C1504 C 0.02734 0.71991 0.38565 0.0
C1505 C 0.00445 0.73396 0.38863 0.0
C1506 C 0.98222 0.71981 0.39229 0.0
C1507 C 0.98334 0.69229 0.39348 0.0
H1508 H 0.43963 0.73146 0.6723 0.0
H1509 H 0.43934 0.76091 0.63973 0.0
H1510 H 0.48785 0.72924 0.67192 0.0
H1511 H 0.48768 0.7588 0.63936 0.0
H1512 H 0.5723 0.72458 0.63935 0.0
H1513 H 0.52393 0.72655 0.63943 0.0
H1514 H 0.52563 0.75916 0.6715 0.0
H1515 H 0.57386 0.75709 0.67144 0.0
C1516 C 0.4499 0.7377 0.66509 0.0
C1517 C 0.43571 0.74647 0.65606 0.0
C1518 C 0.47752 0.73642 0.66487 0.0
C1519 C 0.49158 0.74392 0.65562 0.0
C1520 C 0.47739 0.75255 0.64656 0.0
C1521 C 0.44973 0.75379 0.64677 0.0
C1522 C 0.56231 0.73232 0.64638 0.0
C1523 C 0.57685 0.74054 0.65541 0.0
C1524 C 0.53463 0.73347 0.64642 0.0
C1525 C 0.52096 0.74291 0.65548 0.0
C1526 C 0.53556 0.75132 0.66447 0.0
C1527 C 0.56318 0.75013 0.66443 0.0
H1528 H 0.46989 0.31243 0.89057 0.0
H1529 H 0.55028 0.31285 0.90262 0.0
H1530 H 0.47105 0.26405 0.88967 0.0
H1531 H 0.55153 0.26458 0.90148 0.0
H1532 H 0.54967 0.17758 0.89071 0.0
H1533 H 0.54912 0.22591 0.88843 0.0
H1534 H 0.47304 0.22945 0.90429 0.0
H1535 H 0.47352 0.18132 0.90647 0.0
C1536 C 0.48784 0.30224 0.89297 0.0
C1537 C 0.50989 0.31649 0.89678 0.0
C1538 C 0.48852 0.27458 0.89241 0.0
C1539 C 0.51132 0.26064 0.89556 0.0
C1540 C 0.53379 0.27488 0.89889 0.0
C1541 C 0.53306 0.30253 0.89953 0.0
C1542 C 0.53274 0.18874 0.89359 0.0
C1543 C 0.5117 0.17585 0.89882 0.0
C1544 C 0.53249 0.21631 0.89234 0.0
C1545 C 0.51103 0.23133 0.89617 0.0
C1546 C 0.4897 0.21831 0.90115 0.0
C1547 C 0.49009 0.19085 0.90251 0.0
H1548 H 0.07622 0.28532 0.14582 0.0
H1549 H 0.0716 0.19995 0.14816 0.0
H1550 H 0.02803 0.28786 0.1448 0.0
H1551 H 0.02341 0.20227 0.14679 0.0
H1552 H 0.94008 0.21896 0.1592 0.0
H1553 H 0.98795 0.21558 0.15802 0.0
H1554 H 0.98898 0.27894 0.13461 0.0
H1555 H 0.94104 0.28345 0.13632 0.0
C1556 C 0.06486 0.26707 0.14588 0.0
C1557 C 0.07755 0.24246 0.14714 0.0
C1558 C 0.03725 0.26849 0.14527 0.0
C1559 C 0.02178 0.24528 0.14581 0.0
C1560 C 0.03466 0.22057 0.1466 0.0
C1561 C 0.06223 0.2192 0.14733 0.0
C1562 C 0.9505 0.2324 0.15389 0.0
C1563 C 0.93671 0.25169 0.14795 0.0
C1564 C 0.97797 0.23015 0.15307 0.0
C1565 C 0.99238 0.24694 0.1462 0.0
C1566 C 0.97855 0.26589 0.14008 0.0
C1567 C 0.95102 0.26827 0.14096 0.0
H1568 H 0.00347 0.02323 0.46935 0.0
H1569 H 0.9845 0.9406 0.4749 0.0
H1570 H 0.00276 0.03123 0.48863 0.0
H1571 H 0.98477 0.9486 0.4942 0.0
H1572 H 0.02144 0.97003 0.52738 0.0
H1573 H 0.01974 0.96181 0.50813 0.0
H1574 H 0.96905 0.03007 0.50401 0.0
H1575 H 0.96987 0.0379 0.52333 0.0
C1576 C -0.00111 0.00681 0.47464 0.0
C1577 C 0.99402 0.98124 0.47053 0.0
C1578 C -0.00141 0.01142 0.48569 0.0
C1579 C 0.99376 0.99053 0.49288 0.0
C1580 C 0.98886 0.965 0.48882 0.0
C1581 C 0.98882 0.96043 0.47776 0.0
C1582 C 0.00957 0.98309 0.52243 0.0
C1583 C 0.99573 0.00461 0.52695 0.0
C1584 C 0.0087 0.97839 0.51139 0.0
C1585 C 0.99426 0.99529 0.5046 0.0
C1586 C 0.98055 0.01689 0.50906 0.0
C1587 C 0.98115 0.02142 0.52013 0.0
H1588 H 0.2086 0.71897 0.77375 0.0
H1589 H 0.26808 0.77999 0.77716 0.0
H1590 H 0.21497 0.7193 0.75433 0.0
H1591 H 0.27392 0.78109 0.75775 0.0
H1592 H 0.29921 0.75644 0.72439 0.0
H1593 H 0.29202 0.75564 0.74365 0.0
H1594 H 0.20802 0.74445 0.73845 0.0
H1595 H 0.21549 0.74337 0.71917 0.0
C1596 C 0.22281 0.73267 0.7703 0.0
C1597 C 0.23798 0.74932 0.77693 0.0
C1598 C 0.22641 0.73296 0.75918 0.0
C1599 C 0.24505 0.75015 0.75445 0.0
C1600 C 0.25982 0.76718 0.76112 0.0
C1601 C 0.25643 0.76664 0.77223 0.0
C1602 C 0.27925 0.75339 0.72734 0.0
C1603 C 0.25796 0.74985 0.72019 0.0
C1604 C 0.27505 0.75337 0.73841 0.0
C1605 C 0.24941 0.7501 0.74264 0.0
C1606 C 0.22808 0.74671 0.7355 0.0
C1607 C 0.23232 0.74647 0.72441 0.0
H1608 H 0.54806 0.95571 0.02324 0.0
H1609 H 0.48795 0.01589 0.02759 0.0
H1610 H 0.54578 0.96214 0.00384 0.0
H1611 H 0.48595 0.02249 0.00824 0.0
H1612 H 0.51245 0.04733 0.97449 0.0
H1613 H 0.51458 0.04013 0.99381 0.0
H1614 H 0.51443 0.95532 0.98869 0.0
H1615 H 0.51198 0.96247 0.96935 0.0
C1616 C 0.53423 0.97016 0.02006 0.0
C1617 C 0.51827 0.98537 0.02697 0.0
C1618 C 0.53295 0.97385 0.00895 0.0
C1619 C 0.51576 0.99289 0.00453 0.0
C1620 C 0.49971 0.00798 0.01143 0.0
C1621 C 0.5009 0.00422 0.02252 0.0
C1622 C 0.51257 0.02714 0.97748 0.0
C1623 C 0.51195 0.00548 0.97037 0.0
C1624 C 0.51384 0.02302 0.98855 0.0
C1625 C 0.51462 -0.00284 0.99276 0.0
C1626 C 0.51418 0.97549 0.98567 0.0
C1627 C 0.51281 0.9796 0.97459 0.0
H1628 H 0.23109 0.27741 0.22298 0.0
H1629 H 0.24759 0.19324 0.22259 0.0
H1630 H 0.23731 0.27808 0.24237 0.0
H1631 H 0.25488 0.19413 0.24193 0.0
H1632 H 0.239 0.20082 0.27802 0.0
H1633 H 0.23089 0.19989 0.25873 0.0
H1634 H 0.27328 0.27394 0.25523 0.0
H1635 H 0.28046 0.27541 0.27456 0.0
C1636 C 0.23589 0.25902 0.22704 0.0
C1637 C 0.2388 0.23526 0.22124 0.0
C1638 C 0.2398 0.25947 0.23813 0.0
C1639 C 0.24672 0.23619 0.24369 0.0
C1640 C 0.24935 0.21237 0.23791 0.0
C1641 C 0.24545 0.21191 0.22681 0.0
C1642 C 0.24636 0.21703 0.27314 0.0
C1643 C 0.26032 0.23823 0.27783 0.0
C1644 C 0.24197 0.21634 0.26208 0.0
C1645 C 0.25142 0.23684 0.25545 0.0
C1646 C 0.26546 0.25799 0.26013 0.0
C1647 C 0.26986 0.25867 0.27119 0.0
H1648 H 0.80753 0.27074 0.22227 0.0
H1649 H 0.72703 0.24469 0.21689 0.0
H1650 H 0.79974 0.27034 0.24163 0.0
H1651 H 0.7191 0.24477 0.23622 0.0
H1652 H 0.72687 0.21836 0.27158 0.0
H1653 H 0.73418 0.21913 0.25224 0.0
H1654 H 0.77276 0.29534 0.25508 0.0
H1655 H 0.76503 0.2949 0.2744 0.0
C1656 C 0.78821 0.26489 0.22523 0.0
C1657 C 0.76789 0.25775 0.21808 0.0
C1658 C 0.78368 0.2649 0.2363 0.0
C1659 C 0.75881 0.25754 0.24042 0.0
C1660 C 0.73852 0.25033 0.23327 0.0
C1661 C 0.74299 0.25052 0.22221 0.0
C1662 C 0.7366 0.23546 0.26808 0.0
C1663 C 0.74536 0.25657 0.27456 0.0
C1664 C 0.74084 0.23585 0.257 0.0
C1665 C 0.75407 0.25727 0.25217 0.0
C1666 C 0.76283 0.27839 0.25862 0.0
C1667 C 0.75844 0.27809 0.26969 0.0
H1668 H 0.7702 0.70353 0.72 0.0
H1669 H 0.73392 0.78104 0.72219 0.0
H1670 H 0.77746 0.70357 0.73935 0.0
H1671 H 0.74042 0.7807 0.7416 0.0
H1672 H 0.78275 0.78274 0.77415 0.0
H1673 H 0.77676 0.78286 0.75471 0.0
H1674 H 0.75134 0.701 0.75592 0.0
H1675 H 0.75814 0.70062 0.7753 0.0
C1676 C 0.76384 0.7206 0.72461 0.0
C1677 C 0.75152 0.7423 0.71957 0.0
C1678 C 0.76774 0.7205 0.73571 0.0
C1679 C 0.75948 0.74213 0.742 0.0
C1680 C 0.74723 0.76386 0.73695 0.0
C1681 C 0.74324 0.76393 0.72586 0.0
C1682 C 0.77613 0.7647 0.77024 0.0
C1683 C 0.77092 0.74167 0.77625 0.0
C1684 C 0.77243 0.76486 0.75913 0.0
C1685 C 0.76353 0.74195 0.75379 0.0
C1686 C 0.75845 0.71888 0.7598 0.0
C1687 C 0.76207 0.71876 0.77091 0.0
H1688 H 0.53592 0.46312 0.97242 0.0
H1689 H 0.46102 0.50384 0.96941 0.0
H1690 H 0.53461 0.46951 0.99195 0.0
H1691 H 0.45935 0.50956 0.98897 0.0
H1692 H 0.45753 0.47976 0.02531 0.0
H1693 H 0.45891 0.47303 0.00578 0.0
H1694 H 0.53302 0.51568 0.00425 0.0
H1695 H 0.53126 0.52306 0.02371 0.0
C1696 C 0.51916 0.47328 0.97598 0.0
C1697 C 0.49858 0.48306 0.9695 0.0
C1698 C 0.51845 0.47699 0.98709 0.0
C1699 C 0.49686 0.48996 0.99188 0.0
C1700 C 0.47612 0.49941 0.98542 0.0
C1701 C 0.47712 0.49625 0.97428 0.0
C1702 C 0.47407 0.48763 0.02076 0.0
C1703 C 0.49427 0.50193 0.02592 0.0
C1704 C 0.47481 0.48388 0.00965 0.0
C1705 C 0.49608 0.49385 0.00361 0.0
C1706 C 0.5165 0.50776 0.00879 0.0
C1707 C 0.51545 0.51204 0.01986 0.0
H1708 H 0.97995 0.52751 0.52569 0.0
H1709 H 0.02838 0.45769 0.52057 0.0
H1710 H 0.98072 0.53644 0.50644 0.0
H1711 H 0.02756 0.46598 0.50132 0.0
H1712 H 0.98835 0.47659 0.46735 0.0
H1713 H 0.98756 0.46874 0.48664 0.0
H1714 H 0.02097 0.54634 0.49216 0.0
H1715 H 0.0234 0.55387 0.47283 0.0
C1716 C 0.99084 0.5141 0.52053 0.0
C1717 C 0.00412 0.49184 0.52477 0.0
C1718 C 0.99108 0.51918 0.5095 0.0
C1719 C 0.00411 0.50182 0.50247 0.0
C1720 C 0.01714 0.47948 0.50662 0.0
C1721 C 0.01739 0.47468 0.51765 0.0
C1722 C 0.99597 0.4919 0.47261 0.0
C1723 C 0.00619 0.51581 0.46845 0.0
C1724 C 0.99528 0.48742 0.48366 0.0
C1725 C 0.00422 0.50694 0.49081 0.0
C1726 C 0.01378 0.53109 0.48676 0.0
C1727 C 0.015 0.5354 0.47569 0.0
H1728 H 0.20507 0.83535 0.61698 0.0
H1729 H 0.22187 0.8916 0.64228 0.0
H1730 H 0.17504 0.8672 0.60867 0.0
H1731 H 0.19209 0.92366 0.63381 0.0
H1732 H 0.14872 0.98048 0.61032 0.0
H1733 H 0.18418 0.95123 0.61682 0.0
H1734 H 0.13083 0.88429 0.61504 0.0
H1735 H 0.09566 0.91333 0.60854 0.0
C1736 C 0.20248 0.85458 0.62073 0.0
C1737 C 0.21551 0.8608 0.63039 0.0
C1738 C 0.18536 0.87281 0.61595 0.0
C1739 C 0.18103 0.89773 0.62068 0.0
C1740 C 0.19519 0.90461 0.62998 0.0
C1741 C 0.21225 0.88627 0.63481 0.0
C1742 C 0.14474 0.95947 0.61126 0.0
C1743 C 0.11948 0.94912 0.609 0.0
C1744 C 0.16492 0.94282 0.61502 0.0
C1745 C 0.16024 0.91553 0.61638 0.0
C1746 C 0.13508 0.9052 0.61395 0.0
C1747 C 0.11489 0.92184 0.61033 0.0
H1748 H 0.27039 0.89332 0.86442 0.0
H1749 H 0.3373 0.85211 0.85066 0.0
H1750 H 0.30025 0.92727 0.87156 0.0
H1751 H 0.36709 0.88537 0.85796 0.0
H1752 H 0.41499 0.95665 0.86571 0.0
H1753 H 0.38144 0.92996 0.85666 0.0
H1754 H 0.33305 0.9318 0.88531 0.0
H1755 H 0.36632 0.95938 0.89417 0.0
C1756 C 0.29148 0.89158 0.86292 0.0
C1757 C 0.30155 0.87017 0.85696 0.0
C1758 C 0.30857 0.91094 0.86703 0.0
C1759 C 0.33609 0.90911 0.86532 0.0
C1760 C 0.346 0.8878 0.85923 0.0
C1761 C 0.32893 0.86865 0.85507 0.0
C1762 C 0.39701 0.95154 0.87 0.0
C1763 C 0.39326 0.95978 0.88064 0.0
C1764 C 0.37785 0.93617 0.86485 0.0
C1765 C 0.3547 0.92837 0.8703 0.0
C1766 C 0.35049 0.93764 0.88082 0.0
C1767 C 0.36955 0.95333 0.88593 0.0
H1768 H 0.43284 0.08481 0.11069 0.0
H1769 H 0.37408 0.02249 0.11011 0.0
H1770 H 0.4 0.11562 0.11772 0.0
H1771 H 0.34114 0.05322 0.11739 0.0
H1772 H 0.28357 0.12372 0.12133 0.0
H1773 H 0.3151 0.09244 0.11342 0.0
H1774 H 0.37671 0.12302 0.13414 0.0
H1775 H 0.34543 0.1544 0.14183 0.0
C1776 C 0.4129 0.07768 0.11216 0.0
C1777 C 0.40604 0.05122 0.10996 0.0
C1778 C 0.39408 0.09529 0.1162 0.0
C1779 C 0.368 0.08682 0.11823 0.0
C1780 C 0.36099 0.06045 0.11583 0.0
C1781 C 0.37983 0.04283 0.11169 0.0
C1782 C 0.30385 0.1236 0.12419 0.0
C1783 C 0.31214 0.14164 0.13211 0.0
C1784 C 0.32189 0.10569 0.11969 0.0
C1785 C 0.3485 0.10539 0.12308 0.0
C1786 C 0.35654 0.12314 0.13115 0.0
C1787 C 0.33861 0.14109 0.13558 0.0
H1788 H 0.13664 0.04827 0.40112 0.0
H1789 H 0.1111 0.02469 0.3694 0.0
H1790 H 0.16987 0.07747 0.39316 0.0
H1791 H 0.14405 0.05421 0.36148 0.0
H1792 H 0.17521 0.13863 0.35365 0.0
H1793 H 0.14714 0.10376 0.36105 0.0
H1794 H 0.21128 0.07858 0.38166 0.0
H1795 H 0.23941 0.11385 0.37428 0.0
C1796 C 0.13844 0.04891 0.39246 0.0
C1797 C 0.12102 0.03439 0.38589 0.0
C1798 C 0.15747 0.06565 0.38791 0.0
C1799 C 0.15933 0.06827 0.37671 0.0
C1800 C 0.14272 0.05288 0.37014 0.0
C1801 C 0.12382 0.03606 0.37468 0.0
C1802 C 0.1833 0.12564 0.35976 0.0
C1803 C 0.20938 0.12901 0.36345 0.0
C1804 C 0.16735 0.10552 0.36391 0.0
C1805 C 0.17708 0.08844 0.37191 0.0
C1806 C 0.20328 0.09157 0.37553 0.0
C1807 C 0.21938 0.11159 0.37128 0.0
H1808 H 0.86573 0.01593 0.37864 0.0
H1809 H 0.91554 0.08258 0.38675 0.0
H1810 H 0.83454 0.04588 0.36971 0.0
H1811 H 0.88405 0.11269 0.37839 0.0
H1812 H 0.83901 0.15861 0.35382 0.0
H1813 H 0.86928 0.12622 0.36158 0.0
H1814 H 0.80232 0.07927 0.37217 0.0
H1815 H 0.77221 0.11124 0.36377 0.0
C1816 C 0.86975 0.03705 0.3786 0.0
C1817 C 0.89304 0.04703 0.38326 0.0
C1818 C 0.8519 0.05424 0.37354 0.0
C1819 C 0.85685 0.08175 0.3732 0.0
C1820 C 0.87989 0.09161 0.37818 0.0
C1821 C 0.89787 0.07442 0.38305 0.0
C1822 C 0.83092 0.14119 0.35773 0.0
C1823 C 0.80346 0.13731 0.35828 0.0
C1824 C 0.84817 0.12274 0.36228 0.0
C1825 C 0.8383 0.10026 0.36769 0.0
C1826 C 0.81068 0.09616 0.36799 0.0
C1827 C 0.79341 0.11446 0.36325 0.0
H1828 H 0.61148 0.04342 0.12752 0.0
H1829 H 0.66764 0.02206 0.10284 0.0
H1830 H 0.64389 0.07317 0.13548 0.0
H1831 H 0.7005 0.05156 0.11094 0.0
H1832 H 0.73434 0.13429 0.11936 0.0
H1833 H 0.70693 0.09843 0.11248 0.0
H1834 H 0.68483 0.07728 0.14489 0.0
H1835 H 0.711 0.11419 0.15174 0.0
C1836 C 0.63102 0.04462 0.12395 0.0
C1837 C 0.63701 0.03047 0.11455 0.0
C1838 C 0.64966 0.06166 0.12852 0.0
C1839 C 0.67482 0.06484 0.12384 0.0
C1840 C 0.68116 0.04991 0.11465 0.0
C1841 C 0.6624 0.03298 0.11002 0.0
C1842 C 0.72358 0.12204 0.12502 0.0
C1843 C 0.7246 0.12736 0.13609 0.0
C1844 C 0.70816 0.10119 0.12108 0.0
C1845 C 0.69353 0.08503 0.12813 0.0
C1846 C 0.69552 0.0896 0.13923 0.0
C1847 C 0.7108 0.11058 0.14317 0.0
H1848 H 0.71076 0.834 0.87875 0.0
H1849 H 0.72383 0.88817 0.85238 0.0
H1850 H 0.68202 0.86653 0.88735 0.0
H1851 H 0.69507 0.92084 0.86105 0.0
H1852 H 0.65413 0.97976 0.88409 0.0
H1853 H 0.68895 0.95014 0.87732 0.0
H1854 H 0.63739 0.88277 0.88234 0.0
H1855 H 0.60305 0.9121 0.8892 0.0
C1856 C 0.70756 0.85292 0.87482 0.0
C1857 C 0.71919 0.85839 0.86481 0.0
C1858 C 0.69118 0.87154 0.87975 0.0
C1859 C 0.68608 0.89606 0.8748 0.0
C1860 C 0.6988 0.90215 0.86507 0.0
C1861 C 0.71522 0.88345 0.86011 0.0
C1862 C 0.65046 0.95858 0.88383 0.0
C1863 C 0.62589 0.94819 0.88709 0.0
C1864 C 0.67025 0.9417 0.87991 0.0
C1865 C 0.66587 0.91417 0.87934 0.0
C1866 C 0.64146 0.90385 0.8828 0.0
C1867 C 0.62169 0.92067 0.88662 0.0
H1868 H 0.83356 0.83333 0.63339 0.0
H1869 H 0.76791 0.88834 0.63397 0.0
H1870 H 0.8625 0.86829 0.62659 0.0
H1871 H 0.79707 0.92354 0.62717 0.0
H1872 H 0.85481 0.96492 0.60219 0.0
H1873 H 0.82342 0.93287 0.60978 0.0
H1874 H 0.88096 0.91151 0.63395 0.0
H1875 H 0.91232 0.94323 0.62634 0.0
C1876 C 0.8253 0.85288 0.63199 0.0
C1877 C 0.7985 0.85814 0.63416 0.0
C1878 C 0.84191 0.87293 0.62821 0.0
C1879 C 0.83201 0.89861 0.62642 0.0
C1880 C 0.80513 0.90386 0.62846 0.0
C1881 C 0.78854 0.88383 0.63239 0.0
C1882 C 0.8606 0.9535 0.60917 0.0
C1883 C 0.88598 0.95651 0.61367 0.0
C1884 C 0.84263 0.93533 0.61354 0.0
C1885 C 0.84989 0.91964 0.62239 0.0
C1886 C 0.87498 0.9232 0.62706 0.0
C1887 C 0.89281 0.94153 0.62277 0.0
H1888 H 0.66713 0.34347 0.13834 0.0
H1889 H 0.73292 0.38912 0.12608 0.0
H1890 H 0.63622 0.37699 0.13164 0.0
H1891 H 0.70184 0.42262 0.1192 0.0
H1892 H 0.62921 0.44967 0.09694 0.0
H1893 H 0.66346 0.42102 0.10448 0.0
H1894 H 0.6272 0.42753 0.13572 0.0
H1895 H 0.5936 0.4572 0.12838 0.0
C1896 C 0.67491 0.36068 0.13418 0.0
C1897 C 0.70231 0.36377 0.13268 0.0
C1898 C 0.65729 0.3799 0.13043 0.0
C1899 C 0.66674 0.40234 0.12494 0.0
C1900 C 0.69415 0.40543 0.12339 0.0
C1901 C 0.71185 0.38641 0.12734 0.0
C1902 C 0.62884 0.44561 0.10547 0.0
C1903 C 0.60841 0.45563 0.11202 0.0
C1904 C 0.64842 0.4291 0.10976 0.0
C1905 C 0.64776 0.42198 0.12064 0.0
C1906 C 0.6279 0.43252 0.12727 0.0
C1907 C 0.60857 0.44935 0.12303 0.0
H1908 H 0.80285 0.35036 0.37794 0.0
H1909 H 0.80585 0.38936 0.34705 0.0
H1910 H 0.83402 0.3826 0.38509 0.0
H1911 H 0.83569 0.42266 0.35441 0.0
H1912 H 0.91547 0.45351 0.36682 0.0
H1913 H 0.88082 0.42495 0.35975 0.0
H1914 H 0.84067 0.42734 0.39039 0.0
H1915 H 0.87628 0.45447 0.39767 0.0
C1916 C 0.80997 0.36596 0.37269 0.0
C1917 C 0.80206 0.36704 0.36188 0.0
C1918 C 0.82757 0.38471 0.37684 0.0
C1919 C 0.83751 0.40519 0.37031 0.0
C1920 C 0.82878 0.4069 0.35961 0.0
C1921 C 0.81134 0.388 0.35544 0.0
C1922 C 0.89938 0.44777 0.37209 0.0
C1923 C 0.89885 0.4561 0.38285 0.0
C1924 C 0.87925 0.43172 0.36798 0.0
C1925 C 0.85792 0.42378 0.3745 0.0
C1926 C 0.85698 0.43275 0.38518 0.0
C1927 C 0.87725 0.44863 0.38932 0.0
H1928 H 0.90335 0.52247 0.6292 0.0
H1929 H 0.8735 0.54317 0.59777 0.0
H1930 H 0.87032 0.55139 0.63743 0.0
H1931 H 0.84027 0.57177 0.60603 0.0
H1932 H 0.77215 0.60816 0.62534 0.0
H1933 H 0.80029 0.5728 0.61807 0.0
H1934 H 0.86548 0.60055 0.63757 0.0
H1935 H 0.83739 0.63545 0.6449 0.0
C1936 C 0.88965 0.53306 0.62405 0.0
C1937 C 0.89124 0.53074 0.61282 0.0
C1938 C 0.87071 0.54955 0.62876 0.0
C1939 C 0.85288 0.56397 0.62236 0.0
C1940 C 0.8536 0.56069 0.61117 0.0
C1941 C 0.87263 0.54428 0.60644 0.0
C1942 C 0.79241 0.60642 0.62815 0.0
C1943 C 0.80269 0.62461 0.63562 0.0
C1944 C 0.80852 0.58634 0.62395 0.0
C1945 C 0.83505 0.58394 0.62726 0.0
C1946 C 0.84504 0.60172 0.63495 0.0
C1947 C 0.82906 0.62188 0.63906 0.0
H1948 H 0.72628 0.59541 0.85156 0.0
H1949 H 0.70345 0.65259 0.8757 0.0
H1950 H 0.69626 0.56286 0.85956 0.0
H1951 H 0.67368 0.62018 0.88367 0.0
H1952 H 0.61346 0.52881 0.8686 0.0
H1953 H 0.64809 0.55726 0.86124 0.0
H1954 H 0.67265 0.57813 0.89337 0.0
H1955 H 0.63739 0.55048 0.90073 0.0
C1956 C 0.71491 0.60101 0.85857 0.0
C1957 C 0.71726 0.62657 0.863 0.0
C1958 C 0.69775 0.58238 0.86315 0.0
C1959 C 0.68263 0.58896 0.87225 0.0
C1960 C 0.6854 0.61433 0.87678 0.0
C1961 C 0.70249 0.63292 0.87221 0.0
C1962 C 0.62625 0.5395 0.87409 0.0
C1963 C 0.62255 0.53758 0.88524 0.0
C1964 C 0.64629 0.55553 0.86987 0.0
C1965 C 0.66303 0.57002 0.87673 0.0
C1966 C 0.65986 0.56744 0.88789 0.0
C1967 C 0.63984 0.55139 0.8921 0.0
H1968 H 0.40804 0.54488 0.86954 0.0
H1969 H 0.35747 0.53153 0.897 0.0
H1970 H 0.37508 0.57461 0.86191 0.0
H1971 H 0.32425 0.56124 0.8893 0.0
H1972 H 0.29152 0.64322 0.8789 0.0
H1973 H 0.32005 0.60853 0.88611 0.0
H1974 H 0.33129 0.57719 0.85415 0.0
H1975 H 0.30378 0.61265 0.84688 0.0
C1976 C 0.38962 0.54788 0.87384 0.0
C1977 C 0.38537 0.5359 0.88388 0.0
C1978 C 0.3707 0.56492 0.86946 0.0
C1979 C 0.34704 0.57034 0.875 0.0
C1980 C 0.34245 0.55778 0.88491 0.0
C1981 C 0.36144 0.54076 0.88931 0.0
C1982 C 0.30014 0.62896 0.87341 0.0
C1983 C 0.29558 0.63086 0.86231 0.0
C1984 C 0.3162 0.60886 0.87756 0.0
C1985 C 0.32803 0.59015 0.8707 0.0
C1986 C 0.32274 0.59151 0.85963 0.0
C1987 C 0.30673 0.61166 0.85548 0.0
H1988 H 0.14254 0.51336 0.61845 0.0
H1989 H 0.11773 0.57817 0.59801 0.0
H1990 H 0.17576 0.54217 0.62668 0.0
H1991 H 0.15138 0.60651 0.60602 0.0
H1992 H 0.22944 0.64333 0.61653 0.0
H1993 H 0.20107 0.61086 0.60763 0.0
H1994 H 0.17356 0.58312 0.63847 0.0
H1995 H 0.20136 0.61596 0.6474 0.0
C1996 C 0.14417 0.53368 0.61569 0.0
C1997 C 0.12736 0.54344 0.60758 0.0
C1998 C 0.16327 0.55011 0.62037 0.0
C1999 C 0.16613 0.57653 0.61697 0.0
C2000 C 0.14986 0.5861 0.60869 0.0
C2001 C 0.13061 0.56979 0.60408 0.0
C2002 C 0.21731 0.63036 0.62143 0.0
C2003 C 0.21751 0.63244 0.63268 0.0
C2004 C 0.20116 0.61172 0.61632 0.0
C2005 C 0.18507 0.59459 0.62237 0.0
C2006 C 0.186 0.5959 0.63362 0.0
C2007 C 0.20198 0.6147 0.63873 0.0
H2008 H 0.12883 0.42681 0.39869 0.0
H2009 H 0.15195 0.48778 0.37611 0.0
H2010 H 0.16199 0.39716 0.39117 0.0
H2011 H 0.18487 0.4577 0.36844 0.0
H2012 H 0.20746 0.38079 0.34921 0.0
H2013 H 0.18169 0.41575 0.35778 0.0
H2014 H 0.2106 0.3908 0.38881 0.0
H2015 H 0.2368 0.35603 0.38024 0.0
C2016 C 0.14134 0.43413 0.39227 0.0
C2017 C 0.13763 0.45969 0.38798 0.0
C2018 C 0.16033 0.41707 0.38795 0.0
C2019 C 0.17595 0.4251 0.3792 0.0
C2020 C 0.17286 0.4509 0.37511 0.0
C2021 C 0.15397 0.46806 0.37948 0.0
C2022 C 0.20883 0.38311 0.35784 0.0
C2023 C 0.22404 0.36546 0.36405 0.0
C2024 C 0.19404 0.40315 0.36274 0.0
C2025 C 0.19403 0.40589 0.37396 0.0
C2026 C 0.20996 0.38889 0.38015 0.0
C2027 C 0.22487 0.36894 0.37524 0.0
H2028 H 0.39276 0.45709 0.12757 0.0
H2029 H 0.34404 0.46261 0.09913 0.0
H2030 H 0.359 0.43023 0.13625 0.0
H2031 H 0.31004 0.4356 0.10787 0.0
H2032 H 0.2794 0.35521 0.12186 0.0
H2033 H 0.30615 0.38926 0.11323 0.0
H2034 H 0.3144 0.42992 0.14358 0.0
H2035 H 0.28766 0.39565 0.15225 0.0
C2036 C 0.37458 0.45303 0.12325 0.0
C2037 C 0.3711 0.46194 0.11265 0.0
C2038 C 0.35517 0.43764 0.12824 0.0
C2039 C 0.33181 0.43078 0.12275 0.0
C2040 C 0.32797 0.44029 0.11225 0.0
C2041 C 0.34744 0.45571 0.10725 0.0
C2042 C 0.28637 0.37175 0.12665 0.0
C2043 C 0.2816 0.37264 0.13775 0.0
C2044 C 0.30171 0.39129 0.12169 0.0
C2045 C 0.31259 0.41218 0.12774 0.0
C2046 C 0.30669 0.4138 0.13875 0.0
C2047 C 0.29138 0.39421 0.14371 0.0
loop_
_geom_bond_atom_site_label_1
_geom_bond_atom_site_label_2
_geom_bond_distance
_geom_bond_site_symmetry_2
_ccdc_geom_bond_type
Li0 N17 1.990 . S
Li0 O60 1.956 . S
Li0 O61 1.970 1_455 S
Li0 O62 1.961 . S
Li1 N25 1.990 . S
Li1 O60 1.970 . S
Li1 O61 1.956 1_455 S
Li1 O63 1.961 . S
Li2 N47 1.990 . S
Li2 O60 1.961 . S
Li2 O62 1.956 . S
Li2 O63 1.970 . S
Li3 N53 1.990 . S
Li3 O61 1.961 . S
Li3 O62 1.970 1_655 S
Li3 O63 1.956 1_655 S
C4 C6 1.348 . S
C4 C7 1.356 . S
C4 O60 1.325 . S
N5 C8 1.314 . S
N5 C9 1.279 . S
C6 C4 1.348 . S
C6 C8 1.353 . S
C6 H64 0.929 . S
C7 C4 1.356 . S
C7 C9 1.358 . S
C7 H65 0.930 . S
C8 N5 1.314 . S
C8 C6 1.353 . S
C8 H66 0.930 . S
C9 N5 1.279 . S
C9 C7 1.358 . S
C9 H67 0.930 . S
C10 C13 1.348 . S
C10 C14 1.356 . S
C10 O61 1.325 . S
C11 N12 1.279 . S
C11 C14 1.358 . S
C11 H68 0.930 . S
N12 C11 1.279 . S
N12 C15 1.314 . S
C13 C10 1.348 . S
C13 C15 1.353 . S
C13 H69 0.929 . S
C14 C10 1.356 . S
C14 C11 1.358 . S
C14 H70 0.930 . S
C15 N12 1.314 . S
C15 C13 1.353 . S
C15 H71 0.930 . S
C16 N17 1.314 1_655 S
C16 C21 1.353 . S
C16 H22 0.930 . S
N17 Li0 1.990 . S
N17 C16 1.314 1_455 S
N17 C19 1.279 . S
C18 C19 1.358 . S
C18 C20 1.356 . S
C18 H72 0.930 . S
C19 N17 1.279 . S
C19 C18 1.358 . S
C19 H23 0.930 . S
C20 C18 1.356 . S
C20 C21 1.348 1_455 S
C21 C16 1.353 . S
C21 C20 1.348 1_655 S
C21 H73 0.929 1_545 S
H22 C16 0.930 . S
H23 C19 0.930 . S
C24 N25 1.314 . S
C24 C26 1.353 . S
C24 H30 0.930 . S
N25 Li1 1.990 . S
N25 C24 1.314 . S
N25 C28 1.279 1_455 S
C26 C24 1.353 . S
C26 C29 1.348 . S
C26 H74 0.929 . S
C27 C28 1.358 . S
C27 C29 1.356 1_655 S
C27 H75 0.930 . S
C28 N25 1.279 1_655 S
C28 C27 1.358 . S
C28 H31 0.930 . S
C29 C26 1.348 . S
C29 C27 1.356 1_455 S
H30 C24 0.930 . S
H31 C28 0.930 . S
C32 C34 1.348 1_455 S
C32 C35 1.356 . S
C32 O62 1.325 1_565 S
N33 C36 1.314 1_455 S
N33 C37 1.279 . S
C34 C32 1.348 1_655 S
C34 C36 1.353 . S
C34 H76 0.929 . S
C35 C32 1.356 . S
C35 C37 1.358 . S
C35 H77 0.930 . S
C36 N33 1.314 1_655 S
C36 C34 1.353 . S
C36 H78 0.930 . S
C37 N33 1.279 . S
C37 C35 1.358 . S
C37 H79 0.930 . S
C38 C39 1.348 . S
C38 C40 1.356 1_455 S
C38 O63 1.325 . S
C39 C38 1.348 . S
C39 C41 1.353 . S
C39 H80 0.929 . S
C40 C38 1.356 1_655 S
C40 C42 1.358 . S
C40 H81 0.930 . S
C41 C39 1.353 . S
C41 N43 1.314 . S
C41 H82 0.930 . S
C42 C40 1.358 . S
C42 N43 1.279 1_655 S
C42 H83 0.930 . S
N43 C41 1.314 . S
N43 C42 1.279 1_455 S
C44 C46 1.353 . S
C44 N47 1.314 . S
C44 H50 0.930 . S
C45 N47 1.279 1_565 S
C45 C48 1.358 . S
C45 H51 0.930 . S
C46 C44 1.353 . S
C46 C49 1.348 1_545 S
C46 H84 0.929 . S
N47 Li2 1.990 . S
N47 C44 1.314 . S
N47 C45 1.279 1_545 S
C48 C45 1.358 . S
C48 C49 1.356 . S
C48 H85 0.930 . S
C49 C46 1.348 1_565 S
C49 C48 1.356 . S
H50 C44 0.930 . S
H51 C45 0.930 . S
C52 N53 1.314 . S
C52 C54 1.353 1_545 S
C52 H58 0.930 . S
N53 Li3 1.990 . S
N53 C52 1.314 . S
N53 C56 1.279 . S
C54 C52 1.353 1_565 S
C54 C57 1.348 . S
C54 H86 0.929 . S
C55 C56 1.358 1_565 S
C55 C57 1.356 . S
C55 H87 0.930 . S
C56 N53 1.279 . S
C56 C55 1.358 1_545 S
C56 H59 0.930 . S
C57 C54 1.348 . S
C57 C55 1.356 . S
H58 C52 0.930 . S
H59 C56 0.930 . S
O60 Li0 1.956 . S
O60 Li1 1.970 . S
O60 Li2 1.961 . S
O60 C4 1.325 . S
O61 Li0 1.970 1_655 S
O61 Li1 1.956 1_655 S
O61 Li3 1.961 . S
O61 C10 1.325 . S
O62 Li0 1.961 . S
O62 Li2 1.956 . S
O62 Li3 1.970 1_455 S
O62 C32 1.325 1_545 S
O63 Li1 1.961 . S
O63 Li2 1.970 . S
O63 Li3 1.956 1_455 S
O63 C38 1.325 . S
H64 C6 0.929 . S
H65 C7 0.930 . S
H66 C8 0.930 . S
H67 C9 0.930 . S
H68 C11 0.930 . S
H69 C13 0.929 . S
H70 C14 0.930 . S
H71 C15 0.930 . S
H72 C18 0.930 . S
H73 C21 0.929 1_565 S
H74 C26 0.929 . S
H75 C27 0.930 . S
H76 C34 0.929 . S
H77 C35 0.930 . S
H78 C36 0.930 . S
H79 C37 0.930 . S
H80 C39 0.929 . S
H81 C40 0.930 . S
H82 C41 0.930 . S
H83 C42 0.930 . S
H84 C46 0.929 . S
H85 C48 0.930 . S
H86 C54 0.929 . S
H87 C55 0.930 . S
Li88 N105 1.990 . S
Li88 O148 1.956 . S
Li88 O149 1.970 . S
Li88 O150 1.961 . S
Li89 N113 1.990 . S
Li89 O148 1.970 . S
Li89 O149 1.956 . S
Li89 O151 1.961 . S
Li90 N135 1.990 . S
Li90 O148 1.961 . S
Li90 O150 1.956 . S
Li90 O151 1.970 . S
Li91 N141 1.990 . S
Li91 O149 1.961 . S
Li91 O150 1.970 . S
Li91 O151 1.956 . S
C92 C94 1.348 . S
C92 C95 1.356 . S
C92 O148 1.325 . S
N93 C96 1.314 . S
N93 C97 1.279 . S
C94 C92 1.348 . S
C94 C96 1.353 . S
C94 H152 0.929 . S
C95 C92 1.356 . S
C95 C97 1.358 . S
C95 H153 0.930 . S
C96 N93 1.314 . S
C96 C94 1.353 . S
C96 H154 0.930 . S
C97 N93 1.279 . S
C97 C95 1.358 . S
C97 H155 0.930 . S
C98 C101 1.348 . S
C98 C102 1.356 . S
C98 O149 1.325 . S
C99 N100 1.279 . S
C99 C102 1.358 . S
C99 H156 0.930 . S
N100 C99 1.279 . S
N100 C103 1.314 . S
C101 C98 1.348 . S
C101 C103 1.353 . S
C101 H157 0.929 . S
C102 C98 1.356 . S
C102 C99 1.358 . S
C102 H158 0.930 . S
C103 N100 1.314 . S
C103 C101 1.353 . S
C103 H159 0.930 . S
C104 N105 1.314 . S
C104 C109 1.353 . S
C104 H110 0.930 . S
N105 Li88 1.990 . S
N105 C104 1.314 . S
N105 C107 1.279 . S
C106 C107 1.358 . S
C106 C108 1.356 . S
C106 H160 0.930 . S
C107 N105 1.279 . S
C107 C106 1.358 . S
C107 H111 0.930 . S
C108 C106 1.356 . S
C108 C109 1.348 . S
C109 C104 1.353 . S
C109 C108 1.348 . S
C109 H161 0.929 . S
H110 C104 0.930 . S
H111 C107 0.930 . S
C112 N113 1.314 . S
C112 C114 1.353 . S
C112 H118 0.930 . S
N113 Li89 1.990 . S
N113 C112 1.314 . S
N113 C116 1.279 . S
C114 C112 1.353 . S
C114 C117 1.348 . S
C114 H162 0.929 . S
C115 C116 1.358 . S
C115 C117 1.356 . S
C115 H163 0.930 . S
C116 N113 1.279 . S
C116 C115 1.358 . S
C116 H119 0.930 . S
C117 C114 1.348 . S
C117 C115 1.356 . S
H118 C112 0.930 . S
H119 C116 0.930 . S
C120 C122 1.348 . S
C120 C123 1.356 . S
C120 O150 1.325 . S
N121 C124 1.314 . S
N121 C125 1.279 . S
C122 C120 1.348 . S
C122 C124 1.353 . S
C122 H164 0.929 . S
C123 C120 1.356 . S
C123 C125 1.358 . S
C123 H165 0.930 . S
C124 N121 1.314 . S
C124 C122 1.353 . S
C124 H166 0.930 . S
C125 N121 1.279 . S
C125 C123 1.358 . S
C125 H167 0.930 . S
C126 C127 1.348 . S
C126 C128 1.356 . S
C126 O151 1.325 . S
C127 C126 1.348 . S
C127 C129 1.353 . S
C127 H168 0.929 . S
C128 C126 1.356 . S
C128 C130 1.358 . S
C128 H169 0.930 . S
C129 C127 1.353 . S
C129 N131 1.314 . S
C129 H170 0.930 . S
C130 C128 1.358 . S
C130 N131 1.279 . S
C130 H171 0.930 . S
N131 C129 1.314 . S
N131 C130 1.279 . S
C132 C134 1.353 . S
C132 N135 1.314 . S
C132 H138 0.930 . S
C133 N135 1.279 . S
C133 C136 1.358 . S
C133 H139 0.930 . S
C134 C132 1.353 . S
C134 C137 1.348 . S
C134 H172 0.929 . S
N135 Li90 1.990 . S
N135 C132 1.314 . S
N135 C133 1.279 . S
C136 C133 1.358 . S
C136 C137 1.356 . S
C136 H173 0.930 . S
C137 C134 1.348 . S
C137 C136 1.356 . S
H138 C132 0.930 . S
H139 C133 0.930 . S
C140 N141 1.314 . S
C140 C142 1.353 . S
C140 H146 0.930 . S
N141 Li91 1.990 . S
N141 C140 1.314 . S
N141 C144 1.279 . S
C142 C140 1.353 . S
C142 C145 1.348 . S
C142 H174 0.929 . S
C143 C144 1.358 . S
C143 C145 1.356 . S
C143 H175 0.930 . S
C144 N141 1.279 . S
C144 C143 1.358 . S
C144 H147 0.930 . S
C145 C142 1.348 . S
C145 C143 1.356 . S
H146 C140 0.930 . S
H147 C144 0.930 . S
O148 Li88 1.956 . S
O148 Li89 1.970 . S
O148 Li90 1.961 . S
O148 C92 1.325 . S
O149 Li88 1.970 . S
O149 Li89 1.956 . S
O149 Li91 1.961 . S
O149 C98 1.325 . S
O150 Li88 1.961 . S
O150 Li90 1.956 . S
O150 Li91 1.970 . S
O150 C120 1.325 . S
O151 Li89 1.961 . S
O151 Li90 1.970 . S
O151 Li91 1.956 . S
O151 C126 1.325 . S
H152 C94 0.929 . S
H153 C95 0.930 . S
H154 C96 0.930 . S
H155 C97 0.930 . S
H156 C99 0.930 . S
H157 C101 0.929 . S
H158 C102 0.930 . S
H159 C103 0.930 . S
H160 C106 0.930 . S
H161 C109 0.929 . S
H162 C114 0.929 . S
H163 C115 0.930 . S
H164 C122 0.929 . S
H165 C123 0.930 . S
H166 C124 0.930 . S
H167 C125 0.930 . S
H168 C127 0.929 . S
H169 C128 0.930 . S
H170 C129 0.930 . S
H171 C130 0.930 . S
H172 C134 0.929 . S
H173 C136 0.930 . S
H174 C142 0.929 . S
H175 C143 0.930 . S
Li176 N193 1.990 . S
Li176 O236 1.956 . S
Li176 O237 1.970 . S
Li176 O238 1.961 . S
Li177 N201 1.990 . S
Li177 O236 1.970 . S
Li177 O237 1.956 . S
Li177 O239 1.961 . S
Li178 N223 1.990 . S
Li178 O236 1.961 . S
Li178 O238 1.956 . S
Li178 O239 1.970 . S
Li179 N229 1.990 . S
Li179 O237 1.961 . S
Li179 O238 1.970 . S
Li179 O239 1.956 . S
C180 C182 1.348 . S
C180 C183 1.356 . S
C180 O236 1.325 . S
N181 C184 1.314 . S
N181 C185 1.279 . S
C182 C180 1.348 . S
C182 C184 1.353 . S
C182 H240 0.929 . S
C183 C180 1.356 . S
C183 C185 1.358 . S
C183 H241 0.930 . S
C184 N181 1.314 . S
C184 C182 1.353 . S
C184 H242 0.930 . S
C185 N181 1.279 . S
C185 C183 1.358 . S
C185 H243 0.930 . S
C186 C189 1.348 . S
C186 C190 1.356 . S
C186 O237 1.325 1_545 S
C187 N188 1.279 . S
C187 C190 1.358 . S
C187 H244 0.930 . S
N188 C187 1.279 . S
N188 C191 1.314 . S
C189 C186 1.348 . S
C189 C191 1.353 . S
C189 H245 0.929 . S
C190 C186 1.356 . S
C190 C187 1.358 . S
C190 H246 0.930 . S
C191 N188 1.314 . S
C191 C189 1.353 . S
C191 H247 0.930 . S
C192 N193 1.314 . S
C192 C197 1.353 1_565 S
C192 H198 0.930 . S
N193 Li176 1.990 . S
N193 C192 1.314 . S
N193 C195 1.279 . S
C194 C195 1.358 1_545 S
C194 C196 1.356 . S
C194 H248 0.930 . S
C195 N193 1.279 . S
C195 C194 1.358 1_565 S
C195 H199 0.930 . S
C196 C194 1.356 . S
C196 C197 1.348 . S
C197 C192 1.353 1_545 S
C197 C196 1.348 . S
C197 H249 0.929 . S
H198 C192 0.930 . S
H199 C195 0.930 . S
C200 N201 1.314 . S
C200 C202 1.353 . S
C200 H206 0.930 . S
N201 Li177 1.990 . S
N201 C200 1.314 . S
N201 C204 1.279 1_565 S
C202 C200 1.353 . S
C202 C205 1.348 1_565 S
C202 H250 0.929 . S
C203 C204 1.358 . S
C203 C205 1.356 . S
C203 H251 0.930 . S
C204 N201 1.279 1_545 S
C204 C203 1.358 . S
C204 H207 0.930 . S
C205 C202 1.348 1_545 S
C205 C203 1.356 . S
H206 C200 0.930 . S
H207 C204 0.930 . S
C208 C210 1.348 . S
C208 C211 1.356 . S
C208 O238 1.325 . S
N209 C212 1.314 . S
N209 C213 1.279 . S
C210 C208 1.348 . S
C210 C212 1.353 . S
C210 H252 0.929 . S
C211 C208 1.356 . S
C211 C213 1.358 . S
C211 H253 0.930 . S
C212 N209 1.314 . S
C212 C210 1.353 . S
C212 H254 0.930 . S
C213 N209 1.279 . S
C213 C211 1.358 . S
C213 H255 0.930 . S
C214 C215 1.348 . S
C214 C216 1.356 . S
C214 O239 1.325 . S
C215 C214 1.348 . S
C215 C217 1.353 . S
C215 H256 0.929 . S
C216 C214 1.356 . S
C216 C218 1.358 . S
C216 H257 0.930 . S
C217 C215 1.353 . S
C217 N219 1.314 . S
C217 H258 0.930 . S
C218 C216 1.358 . S
C218 N219 1.279 . S
C218 H259 0.930 . S
N219 C217 1.314 . S
N219 C218 1.279 . S
C220 C222 1.353 . S
C220 N223 1.314 . S
C220 H226 0.930 . S
C221 N223 1.279 . S
C221 C224 1.358 . S
C221 H227 0.930 . S
C222 C220 1.353 . S
C222 C225 1.348 . S
C222 H260 0.929 . S
N223 Li178 1.990 . S
N223 C220 1.314 . S
N223 C221 1.279 . S
C224 C221 1.358 . S
C224 C225 1.356 . S
C224 H261 0.930 . S
C225 C222 1.348 . S
C225 C224 1.356 . S
H226 C220 0.930 . S
H227 C221 0.930 . S
C228 N229 1.314 . S
C228 C230 1.353 . S
C228 H234 0.930 . S
N229 Li179 1.990 . S
N229 C228 1.314 . S
N229 C232 1.279 . S
C230 C228 1.353 . S
C230 C233 1.348 . S
C230 H262 0.929 1_565 S
C231 C232 1.358 . S
C231 C233 1.356 . S
C231 H263 0.930 . S
C232 N229 1.279 . S
C232 C231 1.358 . S
C232 H235 0.930 . S
C233 C230 1.348 . S
C233 C231 1.356 . S
H234 C228 0.930 . S
H235 C232 0.930 . S
O236 Li176 1.956 . S
O236 Li177 1.970 . S
O236 Li178 1.961 . S
O236 C180 1.325 . S
O237 Li176 1.970 . S
O237 Li177 1.956 . S
O237 Li179 1.961 . S
O237 C186 1.325 1_565 S
O238 Li176 1.961 . S
O238 Li178 1.956 . S
O238 Li179 1.970 . S
O238 C208 1.325 . S
O239 Li177 1.961 . S
O239 Li178 1.970 . S
O239 Li179 1.956 . S
O239 C214 1.325 . S
H240 C182 0.929 . S
H241 C183 0.930 . S
H242 C184 0.930 . S
H243 C185 0.930 . S
H244 C187 0.930 . S
H245 C189 0.929 . S
H246 C190 0.930 . S
H247 C191 0.930 . S
H248 C194 0.930 . S
H249 C197 0.929 . S
H250 C202 0.929 . S
H251 C203 0.930 . S
H252 C210 0.929 . S
H253 C211 0.930 . S
H254 C212 0.930 . S
H255 C213 0.930 . S
H256 C215 0.929 . S
H257 C216 0.930 . S
H258 C217 0.930 . S
H259 C218 0.930 . S
H260 C222 0.929 . S
H261 C224 0.930 . S
H262 C230 0.929 1_545 S
H263 C231 0.930 . S
Li264 N281 1.990 . S
Li264 O324 1.956 . S
Li264 O325 1.970 . S
Li264 O326 1.961 . S
Li265 N289 1.990 . S
Li265 O324 1.970 . S
Li265 O325 1.956 . S
Li265 O327 1.961 . S
Li266 N311 1.990 . S
Li266 O324 1.961 . S
Li266 O326 1.956 . S
Li266 O327 1.970 . S
Li267 N317 1.990 . S
Li267 O325 1.961 . S
Li267 O326 1.970 . S
Li267 O327 1.956 . S
C268 C270 1.348 . S
C268 C271 1.356 . S
C268 O324 1.325 . S
N269 C272 1.314 . S
N269 C273 1.279 . S
C270 C268 1.348 . S
C270 C272 1.353 . S
C270 H328 0.929 . S
C271 C268 1.356 . S
C271 C273 1.358 . S
C271 H329 0.930 . S
C272 N269 1.314 . S
C272 C270 1.353 . S
C272 H330 0.930 . S
C273 N269 1.279 . S
C273 C271 1.358 . S
C273 H331 0.930 . S
C274 C277 1.348 . S
C274 C278 1.356 . S
C274 O325 1.325 . S
C275 N276 1.279 . S
C275 C278 1.358 . S
C275 H332 0.930 . S
N276 C275 1.279 . S
N276 C279 1.314 . S
C277 C274 1.348 . S
C277 C279 1.353 . S
C277 H333 0.929 . S
C278 C274 1.356 . S
C278 C275 1.358 . S
C278 H334 0.930 . S
C279 N276 1.314 . S
C279 C277 1.353 . S
C279 H335 0.930 . S
C280 N281 1.314 . S
C280 C285 1.353 . S
C280 H286 0.930 . S
N281 Li264 1.990 . S
N281 C280 1.314 . S
N281 C283 1.279 . S
C282 C283 1.358 . S
C282 C284 1.356 . S
C282 H336 0.930 . S
C283 N281 1.279 . S
C283 C282 1.358 . S
C283 H287 0.930 . S
C284 C282 1.356 . S
C284 C285 1.348 . S
C285 C280 1.353 . S
C285 C284 1.348 . S
C285 H337 0.929 . S
H286 C280 0.930 . S
H287 C283 0.930 . S
C288 N289 1.314 . S
C288 C290 1.353 . S
C288 H294 0.930 . S
N289 Li265 1.990 . S
N289 C288 1.314 . S
N289 C292 1.279 . S
C290 C288 1.353 . S
C290 C293 1.348 . S
C290 H338 0.929 . S
C291 C292 1.358 . S
C291 C293 1.356 . S
C291 H339 0.930 . S
C292 N289 1.279 . S
C292 C291 1.358 . S
C292 H295 0.930 . S
C293 C290 1.348 . S
C293 C291 1.356 . S
H294 C288 0.930 . S
H295 C292 0.930 . S
C296 C298 1.348 . S
C296 C299 1.356 . S
C296 O326 1.325 . S
N297 C300 1.314 . S
N297 C301 1.279 . S
C298 C296 1.348 . S
C298 C300 1.353 . S
C298 H340 0.929 . S
C299 C296 1.356 . S
C299 C301 1.358 . S
C299 H341 0.930 . S
C300 N297 1.314 . S
C300 C298 1.353 . S
C300 H342 0.930 . S
C301 N297 1.279 . S
C301 C299 1.358 . S
C301 H343 0.930 . S
C302 C303 1.348 . S
C302 C304 1.356 . S
C302 O327 1.325 . S
C303 C302 1.348 . S
C303 C305 1.353 . S
C303 H344 0.929 . S
C304 C302 1.356 . S
C304 C306 1.358 . S
C304 H345 0.930 . S
C305 C303 1.353 . S
C305 N307 1.314 . S
C305 H346 0.930 . S
C306 C304 1.358 . S
C306 N307 1.279 . S
C306 H347 0.930 . S
N307 C305 1.314 . S
N307 C306 1.279 . S
C308 C310 1.353 . S
C308 N311 1.314 . S
C308 H314 0.930 . S
C309 N311 1.279 . S
C309 C312 1.358 . S
C309 H315 0.930 . S
C310 C308 1.353 . S
C310 C313 1.348 . S
C310 H348 0.929 . S
N311 Li266 1.990 . S
N311 C308 1.314 . S
N311 C309 1.279 . S
C312 C309 1.358 . S
C312 C313 1.356 . S
C312 H349 0.930 . S
C313 C310 1.348 . S
C313 C312 1.356 . S
H314 C308 0.930 . S
H315 C309 0.930 . S
C316 N317 1.314 . S
C316 C318 1.353 . S
C316 H322 0.930 . S
N317 Li267 1.990 . S
N317 C316 1.314 . S
N317 C320 1.279 . S
C318 C316 1.353 . S
C318 C321 1.348 . S
C318 H350 0.929 . S
C319 C320 1.358 . S
C319 C321 1.356 . S
C319 H351 0.930 . S
C320 N317 1.279 . S
C320 C319 1.358 . S
C320 H323 0.930 . S
C321 C318 1.348 . S
C321 C319 1.356 . S
H322 C316 0.930 . S
H323 C320 0.930 . S
O324 Li264 1.956 . S
O324 Li265 1.970 . S
O324 Li266 1.961 . S
O324 C268 1.325 . S
O325 Li264 1.970 . S
O325 Li265 1.956 . S
O325 Li267 1.961 . S
O325 C274 1.325 . S
O326 Li264 1.961 . S
O326 Li266 1.956 . S
O326 Li267 1.970 . S
O326 C296 1.325 . S
O327 Li265 1.961 . S
O327 Li266 1.970 . S
O327 Li267 1.956 . S
O327 C302 1.325 . S
H328 C270 0.929 . S
H329 C271 0.930 . S
H330 C272 0.930 . S
H331 C273 0.930 . S
H332 C275 0.930 . S
H333 C277 0.929 . S
H334 C278 0.930 . S
H335 C279 0.930 . S
H336 C282 0.930 . S
H337 C285 0.929 . S
H338 C290 0.929 . S
H339 C291 0.930 . S
H340 C298 0.929 . S
H341 C299 0.930 . S
H342 C300 0.930 . S
H343 C301 0.930 . S
H344 C303 0.929 . S
H345 C304 0.930 . S
H346 C305 0.930 . S
H347 C306 0.930 . S
H348 C310 0.929 . S
H349 C312 0.930 . S
H350 C318 0.929 . S
H351 C319 0.930 . S
Li352 N369 1.990 . S
Li352 O412 1.956 1_655 S
Li352 O413 1.970 1_655 S
Li352 O414 1.961 . S
Li353 N377 1.990 . S
Li353 O412 1.970 . S
Li353 O413 1.956 . S
Li353 O415 1.961 . S
Li354 N399 1.990 . S
Li354 O412 1.961 . S
Li354 O414 1.956 1_455 S
Li354 O415 1.970 . S
Li355 N405 1.990 . S
Li355 O413 1.961 . S
Li355 O414 1.970 1_455 S
Li355 O415 1.956 . S
C356 C358 1.348 . S
C356 C359 1.356 1_455 S
C356 O412 1.325 . S
N357 C360 1.314 . S
N357 C361 1.279 1_455 S
C358 C356 1.348 . S
C358 C360 1.353 . S
C358 H416 0.929 . S
C359 C356 1.356 1_655 S
C359 C361 1.358 . S
C359 H417 0.930 . S
C360 N357 1.314 . S
C360 C358 1.353 . S
C360 H418 0.930 . S
C361 N357 1.279 1_655 S
C361 C359 1.358 . S
C361 H419 0.930 . S
C362 C365 1.348 1_455 S
C362 C366 1.356 . S
C362 O413 1.325 1_545 S
C363 N364 1.279 . S
C363 C366 1.358 . S
C363 H420 0.930 . S
N364 C363 1.279 . S
N364 C367 1.314 1_455 S
C365 C362 1.348 1_655 S
C365 C367 1.353 . S
C365 H421 0.929 . S
C366 C362 1.356 . S
C366 C363 1.358 . S
C366 H422 0.930 . S
C367 N364 1.314 1_655 S
C367 C365 1.353 . S
C367 H423 0.930 . S
C368 N369 1.314 . S
C368 C373 1.353 1_565 S
C368 H374 0.930 . S
N369 Li352 1.990 . S
N369 C368 1.314 . S
N369 C371 1.279 . S
C370 C371 1.358 1_545 S
C370 C372 1.356 . S
C370 H424 0.930 . S
C371 N369 1.279 . S
C371 C370 1.358 1_565 S
C371 H375 0.930 . S
C372 C370 1.356 . S
C372 C373 1.348 . S
C373 C368 1.353 1_545 S
C373 C372 1.348 . S
C373 H425 0.929 . S
H374 C368 0.930 . S
H375 C371 0.930 . S
C376 N377 1.314 . S
C376 C378 1.353 . S
C376 H382 0.930 . S
N377 Li353 1.990 . S
N377 C376 1.314 . S
N377 C380 1.279 1_565 S
C378 C376 1.353 . S
C378 C381 1.348 1_565 S
C378 H426 0.929 . S
C379 C380 1.358 . S
C379 C381 1.356 . S
C379 H427 0.930 . S
C380 N377 1.279 1_545 S
C380 C379 1.358 . S
C380 H383 0.930 . S
C381 C378 1.348 1_545 S
C381 C379 1.356 . S
H382 C376 0.930 . S
H383 C380 0.930 . S
C384 C386 1.348 . S
C384 C387 1.356 . S
C384 O414 1.325 . S
N385 C388 1.314 . S
N385 C389 1.279 . S
C386 C384 1.348 . S
C386 C388 1.353 . S
C386 H428 0.929 . S
C387 C384 1.356 . S
C387 C389 1.358 . S
C387 H429 0.930 . S
C388 N385 1.314 . S
C388 C386 1.353 . S
C388 H430 0.930 . S
C389 N385 1.279 . S
C389 C387 1.358 . S
C389 H431 0.930 . S
C390 C391 1.348 . S
C390 C392 1.356 . S
C390 O415 1.325 . S
C391 C390 1.348 . S
C391 C393 1.353 . S
C391 H432 0.929 . S
C392 C390 1.356 . S
C392 C394 1.358 . S
C392 H433 0.930 . S
C393 C391 1.353 . S
C393 N395 1.314 . S
C393 H434 0.930 . S
C394 C392 1.358 . S
C394 N395 1.279 . S
C394 H435 0.930 . S
N395 C393 1.314 . S
N395 C394 1.279 . S
C396 C398 1.353 . S
C396 N399 1.314 . S
C396 H402 0.930 . S
C397 N399 1.279 1_655 S
C397 C400 1.358 . S
C397 H403 0.930 . S
C398 C396 1.353 . S
C398 C401 1.348 . S
C398 H436 0.929 . S
N399 Li354 1.990 . S
N399 C396 1.314 . S
N399 C397 1.279 1_455 S
C400 C397 1.358 . S
C400 C401 1.356 1_655 S
C400 H437 0.930 . S
C401 C398 1.348 . S
C401 C400 1.356 1_455 S
H402 C396 0.930 . S
H403 C397 0.930 . S
C404 N405 1.314 1_655 S
C404 C406 1.353 . S
C404 H410 0.930 . S
N405 Li355 1.990 . S
N405 C404 1.314 1_455 S
N405 C408 1.279 . S
C406 C404 1.353 . S
C406 C409 1.348 1_655 S
C406 H438 0.929 1_565 S
C407 C408 1.358 . S
C407 C409 1.356 . S
C407 H439 0.930 . S
C408 N405 1.279 . S
C408 C407 1.358 . S
C408 H411 0.930 . S
C409 C406 1.348 1_455 S
C409 C407 1.356 . S
H410 C404 0.930 . S
H411 C408 0.930 . S
O412 Li352 1.956 1_455 S
O412 Li353 1.970 . S
O412 Li354 1.961 . S
O412 C356 1.325 . S
O413 Li352 1.970 1_455 S
O413 Li353 1.956 . S
O413 Li355 1.961 . S
O413 C362 1.325 1_565 S
O414 Li352 1.961 . S
O414 Li354 1.956 1_655 S
O414 Li355 1.970 1_655 S
O414 C384 1.325 . S
O415 Li353 1.961 . S
O415 Li354 1.970 . S
O415 Li355 1.956 . S
O415 C390 1.325 . S
H416 C358 0.929 . S
H417 C359 0.930 . S
H418 C360 0.930 . S
H419 C361 0.930 . S
H420 C363 0.930 . S
H421 C365 0.929 . S
H422 C366 0.930 . S
H423 C367 0.930 . S
H424 C370 0.930 . S
H425 C373 0.929 . S
H426 C378 0.929 . S
H427 C379 0.930 . S
H428 C386 0.929 . S
H429 C387 0.930 . S
H430 C388 0.930 . S
H431 C389 0.930 . S
H432 C391 0.929 . S
H433 C392 0.930 . S
H434 C393 0.930 . S
H435 C394 0.930 . S
H436 C398 0.929 . S
H437 C400 0.930 . S
H438 C406 0.929 1_545 S
H439 C407 0.930 . S
Li440 N457 1.990 . S
Li440 O500 1.956 . S
Li440 O501 1.970 . S
Li440 O502 1.961 . S
Li441 N465 1.990 . S
Li441 O500 1.970 . S
Li441 O501 1.956 . S
Li441 O503 1.961 . S
Li442 N487 1.990 . S
Li442 O500 1.961 . S
Li442 O502 1.956 . S
Li442 O503 1.970 . S
Li443 N493 1.990 . S
Li443 O501 1.961 . S
Li443 O502 1.970 . S
Li443 O503 1.956 . S
C444 C446 1.348 . S
C444 C447 1.356 . S
C444 O500 1.325 . S
N445 C448 1.314 . S
N445 C449 1.279 . S
C446 C444 1.348 . S
C446 C448 1.353 . S
C446 H504 0.929 . S
C447 C444 1.356 . S
C447 C449 1.358 . S
C447 H505 0.930 . S
C448 N445 1.314 . S
C448 C446 1.353 . S
C448 H506 0.930 . S
C449 N445 1.279 . S
C449 C447 1.358 . S
C449 H507 0.930 . S
C450 C453 1.348 . S
C450 C454 1.356 . S
C450 O501 1.325 . S
C451 N452 1.279 . S
C451 C454 1.358 . S
C451 H508 0.930 . S
N452 C451 1.279 . S
N452 C455 1.314 . S
C453 C450 1.348 . S
C453 C455 1.353 . S
C453 H509 0.929 . S
C454 C450 1.356 . S
C454 C451 1.358 . S
C454 H510 0.930 . S
C455 N452 1.314 . S
C455 C453 1.353 . S
C455 H511 0.930 . S
C456 N457 1.314 . S
C456 C461 1.353 . S
C456 H462 0.930 . S
N457 Li440 1.990 . S
N457 C456 1.314 . S
N457 C459 1.279 . S
C458 C459 1.358 . S
C458 C460 1.356 . S
C458 H512 0.930 . S
C459 N457 1.279 . S
C459 C458 1.358 . S
C459 H463 0.930 . S
C460 C458 1.356 . S
C460 C461 1.348 . S
C461 C456 1.353 . S
C461 C460 1.348 . S
C461 H513 0.929 . S
H462 C456 0.930 . S
H463 C459 0.930 . S
C464 N465 1.314 . S
C464 C466 1.353 . S
C464 H470 0.930 . S
N465 Li441 1.990 . S
N465 C464 1.314 . S
N465 C468 1.279 . S
C466 C464 1.353 . S
C466 C469 1.348 . S
C466 H514 0.929 . S
C467 C468 1.358 . S
C467 C469 1.356 . S
C467 H515 0.930 . S
C468 N465 1.279 . S
C468 C467 1.358 . S
C468 H471 0.930 . S
C469 C466 1.348 . S
C469 C467 1.356 . S
H470 C464 0.930 . S
H471 C468 0.930 . S
C472 C474 1.348 . S
C472 C475 1.356 . S
C472 O502 1.325 . S
N473 C476 1.314 . S
N473 C477 1.279 . S
C474 C472 1.348 . S
C474 C476 1.353 . S
C474 H516 0.929 . S
C475 C472 1.356 . S
C475 C477 1.358 . S
C475 H517 0.930 . S
C476 N473 1.314 . S
C476 C474 1.353 . S
C476 H518 0.930 . S
C477 N473 1.279 . S
C477 C475 1.358 . S
C477 H519 0.930 . S
C478 C479 1.348 . S
C478 C480 1.356 . S
C478 O503 1.325 . S
C479 C478 1.348 . S
C479 C481 1.353 . S
C479 H520 0.929 . S
C480 C478 1.356 . S
C480 C482 1.358 . S
C480 H521 0.930 . S
C481 C479 1.353 . S
C481 N483 1.314 . S
C481 H522 0.930 . S
C482 C480 1.358 . S
C482 N483 1.279 . S
C482 H523 0.930 . S
N483 C481 1.314 . S
N483 C482 1.279 . S
C484 C486 1.353 . S
C484 N487 1.314 . S
C484 H490 0.930 . S
C485 N487 1.279 . S
C485 C488 1.358 . S
C485 H491 0.930 . S
C486 C484 1.353 . S
C486 C489 1.348 . S
C486 H524 0.929 . S
N487 Li442 1.990 . S
N487 C484 1.314 . S
N487 C485 1.279 . S
C488 C485 1.358 . S
C488 C489 1.356 . S
C488 H525 0.930 . S
C489 C486 1.348 . S
C489 C488 1.356 . S
H490 C484 0.930 . S
H491 C485 0.930 . S
C492 N493 1.314 . S
C492 C494 1.353 . S
C492 H498 0.930 . S
N493 Li443 1.990 . S
N493 C492 1.314 . S
N493 C496 1.279 . S
C494 C492 1.353 . S
C494 C497 1.348 . S
C494 H526 0.929 . S
C495 C496 1.358 . S
C495 C497 1.356 . S
C495 H527 0.930 . S
C496 N493 1.279 . S
C496 C495 1.358 . S
C496 H499 0.930 . S
C497 C494 1.348 . S
C497 C495 1.356 . S
H498 C492 0.930 . S
H499 C496 0.930 . S
O500 Li440 1.956 . S
O500 Li441 1.970 . S
O500 Li442 1.961 . S
O500 C444 1.325 . S
O501 Li440 1.970 . S
O501 Li441 1.956 . S
O501 Li443 1.961 . S
O501 C450 1.325 . S
O502 Li440 1.961 . S
O502 Li442 1.956 . S
O502 Li443 1.970 . S
O502 C472 1.325 . S
O503 Li441 1.961 . S
O503 Li442 1.970 . S
O503 Li443 1.956 . S
O503 C478 1.325 . S
H504 C446 0.929 . S
H505 C447 0.930 . S
H506 C448 0.930 . S
H507 C449 0.930 . S
H508 C451 0.930 . S
H509 C453 0.929 . S
H510 C454 0.930 . S
H511 C455 0.930 . S
H512 C458 0.930 . S
H513 C461 0.929 . S
H514 C466 0.929 . S
H515 C467 0.930 . S
H516 C474 0.929 . S
H517 C475 0.930 . S
H518 C476 0.930 . S
H519 C477 0.930 . S
H520 C479 0.929 . S
H521 C480 0.930 . S
H522 C481 0.930 . S
H523 C482 0.930 . S
H524 C486 0.929 . S
H525 C488 0.930 . S
H526 C494 0.929 . S
H527 C495 0.930 . S
Li528 N545 1.990 . S
Li528 O588 1.956 . S
Li528 O589 1.970 . S
Li528 O590 1.961 . S
Li529 N553 1.990 . S
Li529 O588 1.970 . S
Li529 O589 1.956 . S
Li529 O591 1.961 . S
Li530 N575 1.990 . S
Li530 O588 1.961 . S
Li530 O590 1.956 . S
Li530 O591 1.970 . S
Li531 N581 1.990 . S
Li531 O589 1.961 . S
Li531 O590 1.970 . S
Li531 O591 1.956 . S
C532 C534 1.348 . S
C532 C535 1.356 . S
C532 O588 1.325 . S
N533 C536 1.314 . S
N533 C537 1.279 . S
C534 C532 1.348 . S
C534 C536 1.353 . S
C534 H592 0.929 . S
C535 C532 1.356 . S
C535 C537 1.358 . S
C535 H593 0.930 . S
C536 N533 1.314 . S
C536 C534 1.353 . S
C536 H594 0.930 . S
C537 N533 1.279 . S
C537 C535 1.358 . S
C537 H595 0.930 . S
C538 C541 1.348 . S
C538 C542 1.356 . S
C538 O589 1.325 . S
C539 N540 1.279 . S
C539 C542 1.358 . S
C539 H596 0.930 . S
N540 C539 1.279 . S
N540 C543 1.314 . S
C541 C538 1.348 . S
C541 C543 1.353 . S
C541 H597 0.929 . S
C542 C538 1.356 . S
C542 C539 1.358 . S
C542 H598 0.930 . S
C543 N540 1.314 . S
C543 C541 1.353 . S
C543 H599 0.930 . S
C544 N545 1.314 . S
C544 C549 1.353 . S
C544 H550 0.930 . S
N545 Li528 1.990 . S
N545 C544 1.314 . S
N545 C547 1.279 . S
C546 C547 1.358 . S
C546 C548 1.356 . S
C546 H600 0.930 . S
C547 N545 1.279 . S
C547 C546 1.358 . S
C547 H551 0.930 . S
C548 C546 1.356 . S
C548 C549 1.348 . S
C549 C544 1.353 . S
C549 C548 1.348 . S
C549 H601 0.929 . S
H550 C544 0.930 . S
H551 C547 0.930 . S
C552 N553 1.314 . S
C552 C554 1.353 . S
C552 H558 0.930 . S
N553 Li529 1.990 . S
N553 C552 1.314 . S
N553 C556 1.279 . S
C554 C552 1.353 . S
C554 C557 1.348 . S
C554 H602 0.929 1_545 S
C555 C556 1.358 . S
C555 C557 1.356 . S
C555 H603 0.930 . S
C556 N553 1.279 . S
C556 C555 1.358 . S
C556 H559 0.930 . S
C557 C554 1.348 . S
C557 C555 1.356 . S
H558 C552 0.930 . S
H559 C556 0.930 . S
C560 C562 1.348 . S
C560 C563 1.356 . S
C560 O590 1.325 . S
N561 C564 1.314 . S
N561 C565 1.279 . S
C562 C560 1.348 . S
C562 C564 1.353 . S
C562 H604 0.929 . S
C563 C560 1.356 . S
C563 C565 1.358 . S
C563 H605 0.930 . S
C564 N561 1.314 . S
C564 C562 1.353 . S
C564 H606 0.930 . S
C565 N561 1.279 . S
C565 C563 1.358 . S
C565 H607 0.930 . S
C566 C567 1.348 . S
C566 C568 1.356 . S
C566 O591 1.325 1_565 S
C567 C566 1.348 . S
C567 C569 1.353 . S
C567 H608 0.929 . S
C568 C566 1.356 . S
C568 C570 1.358 . S
C568 H609 0.930 . S
C569 C567 1.353 . S
C569 N571 1.314 . S
C569 H610 0.930 . S
C570 C568 1.358 . S
C570 N571 1.279 . S
C570 H611 0.930 . S
N571 C569 1.314 . S
N571 C570 1.279 . S
C572 C574 1.353 1_545 S
C572 N575 1.314 . S
C572 H578 0.930 . S
C573 N575 1.279 . S
C573 C576 1.358 1_545 S
C573 H579 0.930 . S
C574 C572 1.353 1_565 S
C574 C577 1.348 . S
C574 H612 0.929 . S
N575 Li530 1.990 . S
N575 C572 1.314 . S
N575 C573 1.279 . S
C576 C573 1.358 1_565 S
C576 C577 1.356 . S
C576 H613 0.930 . S
C577 C574 1.348 . S
C577 C576 1.356 . S
H578 C572 0.930 . S
H579 C573 0.930 . S
C580 N581 1.314 . S
C580 C582 1.353 . S
C580 H586 0.930 . S
N581 Li531 1.990 . S
N581 C580 1.314 . S
N581 C584 1.279 1_545 S
C582 C580 1.353 . S
C582 C585 1.348 1_545 S
C582 H614 0.929 . S
C583 C584 1.358 . S
C583 C585 1.356 . S
C583 H615 0.930 . S
C584 N581 1.279 1_565 S
C584 C583 1.358 . S
C584 H587 0.930 . S
C585 C582 1.348 1_565 S
C585 C583 1.356 . S
H586 C580 0.930 . S
H587 C584 0.930 . S
O588 Li528 1.956 . S
O588 Li529 1.970 . S
O588 Li530 1.961 . S
O588 C532 1.325 . S
O589 Li528 1.970 . S
O589 Li529 1.956 . S
O589 Li531 1.961 . S
O589 C538 1.325 . S
O590 Li528 1.961 . S
O590 Li530 1.956 . S
O590 Li531 1.970 . S
O590 C560 1.325 . S
O591 Li529 1.961 . S
O591 Li530 1.970 . S
O591 Li531 1.956 . S
O591 C566 1.325 1_545 S
H592 C534 0.929 . S
H593 C535 0.930 . S
H594 C536 0.930 . S
H595 C537 0.930 . S
H596 C539 0.930 . S
H597 C541 0.929 . S
H598 C542 0.930 . S
H599 C543 0.930 . S
H600 C546 0.930 . S
H601 C549 0.929 . S
H602 C554 0.929 1_565 S
H603 C555 0.930 . S
H604 C562 0.929 . S
H605 C563 0.930 . S
H606 C564 0.930 . S
H607 C565 0.930 . S
H608 C567 0.929 . S
H609 C568 0.930 . S
H610 C569 0.930 . S
H611 C570 0.930 . S
H612 C574 0.929 . S
H613 C576 0.930 . S
H614 C582 0.929 . S
H615 C583 0.930 . S
Li616 N633 1.990 . S
Li616 O676 1.956 . S
Li616 O677 1.970 . S
Li616 O678 1.961 . S
Li617 N641 1.990 . S
Li617 O676 1.970 . S
Li617 O677 1.956 . S
Li617 O679 1.961 . S
Li618 N663 1.990 . S
Li618 O676 1.961 . S
Li618 O678 1.956 . S
Li618 O679 1.970 . S
Li619 N669 1.990 . S
Li619 O677 1.961 . S
Li619 O678 1.970 . S
Li619 O679 1.956 . S
C620 C622 1.348 . S
C620 C623 1.356 . S
C620 O676 1.325 . S
N621 C624 1.314 . S
N621 C625 1.279 . S
C622 C620 1.348 . S
C622 C624 1.353 . S
C622 H680 0.929 . S
C623 C620 1.356 . S
C623 C625 1.358 . S
C623 H681 0.930 . S
C624 N621 1.314 . S
C624 C622 1.353 . S
C624 H682 0.930 . S
C625 N621 1.279 . S
C625 C623 1.358 . S
C625 H683 0.930 . S
C626 C629 1.348 . S
C626 C630 1.356 . S
C626 O677 1.325 . S
C627 N628 1.279 . S
C627 C630 1.358 . S
C627 H684 0.930 . S
N628 C627 1.279 . S
N628 C631 1.314 . S
C629 C626 1.348 . S
C629 C631 1.353 . S
C629 H685 0.929 . S
C630 C626 1.356 . S
C630 C627 1.358 . S
C630 H686 0.930 . S
C631 N628 1.314 . S
C631 C629 1.353 . S
C631 H687 0.930 . S
C632 N633 1.314 . S
C632 C637 1.353 . S
C632 H638 0.930 . S
N633 Li616 1.990 . S
N633 C632 1.314 . S
N633 C635 1.279 . S
C634 C635 1.358 . S
C634 C636 1.356 . S
C634 H688 0.930 . S
C635 N633 1.279 . S
C635 C634 1.358 . S
C635 H639 0.930 . S
C636 C634 1.356 . S
C636 C637 1.348 . S
C637 C632 1.353 . S
C637 C636 1.348 . S
C637 H689 0.929 . S
H638 C632 0.930 . S
H639 C635 0.930 . S
C640 N641 1.314 . S
C640 C642 1.353 . S
C640 H646 0.930 . S
N641 Li617 1.990 . S
N641 C640 1.314 . S
N641 C644 1.279 . S
C642 C640 1.353 . S
C642 C645 1.348 . S
C642 H690 0.929 . S
C643 C644 1.358 . S
C643 C645 1.356 . S
C643 H691 0.930 . S
C644 N641 1.279 . S
C644 C643 1.358 . S
C644 H647 0.930 . S
C645 C642 1.348 . S
C645 C643 1.356 . S
H646 C640 0.930 . S
H647 C644 0.930 . S
C648 C650 1.348 . S
C648 C651 1.356 . S
C648 O678 1.325 . S
N649 C652 1.314 . S
N649 C653 1.279 . S
C650 C648 1.348 . S
C650 C652 1.353 . S
C650 H692 0.929 . S
C651 C648 1.356 . S
C651 C653 1.358 . S
C651 H693 0.930 . S
C652 N649 1.314 . S
C652 C650 1.353 . S
C652 H694 0.930 . S
C653 N649 1.279 . S
C653 C651 1.358 . S
C653 H695 0.930 . S
C654 C655 1.348 . S
C654 C656 1.356 . S
C654 O679 1.325 . S
C655 C654 1.348 . S
C655 C657 1.353 . S
C655 H696 0.929 . S
C656 C654 1.356 . S
C656 C658 1.358 . S
C656 H697 0.930 . S
C657 C655 1.353 . S
C657 N659 1.314 . S
C657 H698 0.930 . S
C658 C656 1.358 . S
C658 N659 1.279 . S
C658 H699 0.930 . S
N659 C657 1.314 . S
N659 C658 1.279 . S
C660 C662 1.353 . S
C660 N663 1.314 . S
C660 H666 0.930 . S
C661 N663 1.279 . S
C661 C664 1.358 . S
C661 H667 0.930 . S
C662 C660 1.353 . S
C662 C665 1.348 . S
C662 H700 0.929 . S
N663 Li618 1.990 . S
N663 C660 1.314 . S
N663 C661 1.279 . S
C664 C661 1.358 . S
C664 C665 1.356 . S
C664 H701 0.930 . S
C665 C662 1.348 . S
C665 C664 1.356 . S
H666 C660 0.930 . S
H667 C661 0.930 . S
C668 N669 1.314 . S
C668 C670 1.353 . S
C668 H674 0.930 . S
N669 Li619 1.990 . S
N669 C668 1.314 . S
N669 C672 1.279 . S
C670 C668 1.353 . S
C670 C673 1.348 . S
C670 H702 0.929 . S
C671 C672 1.358 . S
C671 C673 1.356 . S
C671 H703 0.930 . S
C672 N669 1.279 . S
C672 C671 1.358 . S
C672 H675 0.930 . S
C673 C670 1.348 . S
C673 C671 1.356 . S
H674 C668 0.930 . S
H675 C672 0.930 . S
O676 Li616 1.956 . S
O676 Li617 1.970 . S
O676 Li618 1.961 . S
O676 C620 1.325 . S
O677 Li616 1.970 . S
O677 Li617 1.956 . S
O677 Li619 1.961 . S
O677 C626 1.325 . S
O678 Li616 1.961 . S
O678 Li618 1.956 . S
O678 Li619 1.970 . S
O678 C648 1.325 . S
O679 Li617 1.961 . S
O679 Li618 1.970 . S
O679 Li619 1.956 . S
O679 C654 1.325 . S
H680 C622 0.929 . S
H681 C623 0.930 . S
H682 C624 0.930 . S
H683 C625 0.930 . S
H684 C627 0.930 . S
H685 C629 0.929 . S
H686 C630 0.930 . S
H687 C631 0.930 . S
H688 C634 0.930 . S
H689 C637 0.929 . S
H690 C642 0.929 . S
H691 C643 0.930 . S
H692 C650 0.929 . S
H693 C651 0.930 . S
H694 C652 0.930 . S
H695 C653 0.930 . S
H696 C655 0.929 . S
H697 C656 0.930 . S
H698 C657 0.930 . S
H699 C658 0.930 . S
H700 C662 0.929 . S
H701 C664 0.930 . S
H702 C670 0.929 . S
H703 C671 0.930 . S
Li704 N721 1.990 . S
Li704 O764 1.956 . S
Li704 O765 1.970 . S
Li704 O766 1.961 . S
Li705 N729 1.990 . S
Li705 O764 1.970 . S
Li705 O765 1.956 . S
Li705 O767 1.961 . S
Li706 N751 1.990 . S
Li706 O764 1.961 . S
Li706 O766 1.956 . S
Li706 O767 1.970 . S
Li707 N757 1.990 . S
Li707 O765 1.961 . S
Li707 O766 1.970 . S
Li707 O767 1.956 . S
C708 C710 1.348 . S
C708 C711 1.356 . S
C708 O764 1.325 . S
N709 C712 1.314 . S
N709 C713 1.279 . S
C710 C708 1.348 . S
C710 C712 1.353 . S
C710 H768 0.929 . S
C711 C708 1.356 . S
C711 C713 1.358 . S
C711 H769 0.930 . S
C712 N709 1.314 . S
C712 C710 1.353 . S
C712 H770 0.930 . S
C713 N709 1.279 . S
C713 C711 1.358 . S
C713 H771 0.930 . S
C714 C717 1.348 . S
C714 C718 1.356 . S
C714 O765 1.325 . S
C715 N716 1.279 . S
C715 C718 1.358 . S
C715 H772 0.930 . S
N716 C715 1.279 . S
N716 C719 1.314 . S
C717 C714 1.348 . S
C717 C719 1.353 . S
C717 H773 0.929 . S
C718 C714 1.356 . S
C718 C715 1.358 . S
C718 H774 0.930 . S
C719 N716 1.314 . S
C719 C717 1.353 . S
C719 H775 0.930 . S
C720 N721 1.314 . S
C720 C725 1.353 . S
C720 H726 0.930 . S
N721 Li704 1.990 . S
N721 C720 1.314 . S
N721 C723 1.279 . S
C722 C723 1.358 . S
C722 C724 1.356 . S
C722 H776 0.930 . S
C723 N721 1.279 . S
C723 C722 1.358 . S
C723 H727 0.930 . S
C724 C722 1.356 . S
C724 C725 1.348 . S
C725 C720 1.353 . S
C725 C724 1.348 . S
C725 H777 0.929 . S
H726 C720 0.930 . S
H727 C723 0.930 . S
C728 N729 1.314 . S
C728 C730 1.353 . S
C728 H734 0.930 . S
N729 Li705 1.990 . S
N729 C728 1.314 . S
N729 C732 1.279 . S
C730 C728 1.353 . S
C730 C733 1.348 . S
C730 H778 0.929 . S
C731 C732 1.358 . S
C731 C733 1.356 . S
C731 H779 0.930 . S
C732 N729 1.279 . S
C732 C731 1.358 . S
C732 H735 0.930 . S
C733 C730 1.348 . S
C733 C731 1.356 . S
H734 C728 0.930 . S
H735 C732 0.930 . S
C736 C738 1.348 . S
C736 C739 1.356 . S
C736 O766 1.325 . S
N737 C740 1.314 . S
N737 C741 1.279 . S
C738 C736 1.348 . S
C738 C740 1.353 . S
C738 H780 0.929 . S
C739 C736 1.356 . S
C739 C741 1.358 . S
C739 H781 0.930 . S
C740 N737 1.314 . S
C740 C738 1.353 . S
C740 H782 0.930 . S
C741 N737 1.279 . S
C741 C739 1.358 . S
C741 H783 0.930 . S
C742 C743 1.348 . S
C742 C744 1.356 . S
C742 O767 1.325 . S
C743 C742 1.348 . S
C743 C745 1.353 . S
C743 H784 0.929 . S
C744 C742 1.356 . S
C744 C746 1.358 . S
C744 H785 0.930 . S
C745 C743 1.353 . S
C745 N747 1.314 . S
C745 H786 0.930 . S
C746 C744 1.358 . S
C746 N747 1.279 . S
C746 H787 0.930 . S
N747 C745 1.314 . S
N747 C746 1.279 . S
C748 C750 1.353 . S
C748 N751 1.314 . S
C748 H754 0.930 . S
C749 N751 1.279 . S
C749 C752 1.358 . S
C749 H755 0.930 . S
C750 C748 1.353 . S
C750 C753 1.348 . S
C750 H788 0.929 . S
N751 Li706 1.990 . S
N751 C748 1.314 . S
N751 C749 1.279 . S
C752 C749 1.358 . S
C752 C753 1.356 . S
C752 H789 0.930 . S
C753 C750 1.348 . S
C753 C752 1.356 . S
H754 C748 0.930 . S
H755 C749 0.930 . S
C756 N757 1.314 . S
C756 C758 1.353 . S
C756 H762 0.930 . S
N757 Li707 1.990 . S
N757 C756 1.314 . S
N757 C760 1.279 . S
C758 C756 1.353 . S
C758 C761 1.348 . S
C758 H790 0.929 . S
C759 C760 1.358 . S
C759 C761 1.356 . S
C759 H791 0.930 . S
C760 N757 1.279 . S
C760 C759 1.358 . S
C760 H763 0.930 . S
C761 C758 1.348 . S
C761 C759 1.356 . S
H762 C756 0.930 . S
H763 C760 0.930 . S
O764 Li704 1.956 . S
O764 Li705 1.970 . S
O764 Li706 1.961 . S
O764 C708 1.325 . S
O765 Li704 1.970 . S
O765 Li705 1.956 . S
O765 Li707 1.961 . S
O765 C714 1.325 . S
O766 Li704 1.961 . S
O766 Li706 1.956 . S
O766 Li707 1.970 . S
O766 C736 1.325 . S
O767 Li705 1.961 . S
O767 Li706 1.970 . S
O767 Li707 1.956 . S
O767 C742 1.325 . S
H768 C710 0.929 . S
H769 C711 0.930 . S
H770 C712 0.930 . S
H771 C713 0.930 . S
H772 C715 0.930 . S
H773 C717 0.929 . S
H774 C718 0.930 . S
H775 C719 0.930 . S
H776 C722 0.930 . S
H777 C725 0.929 . S
H778 C730 0.929 . S
H779 C731 0.930 . S
H780 C738 0.929 . S
H781 C739 0.930 . S
H782 C740 0.930 . S
H783 C741 0.930 . S
H784 C743 0.929 . S
H785 C744 0.930 . S
H786 C745 0.930 . S
H787 C746 0.930 . S
H788 C750 0.929 . S
H789 C752 0.930 . S
H790 C758 0.929 . S
H791 C759 0.930 . S
Li792 N809 1.990 . S
Li792 O852 1.956 . S
Li792 O853 1.970 . S
Li792 O854 1.961 . S
Li793 N817 1.990 . S
Li793 O852 1.970 . S
Li793 O853 1.956 . S
Li793 O855 1.961 . S
Li794 N839 1.990 . S
Li794 O852 1.961 . S
Li794 O854 1.956 . S
Li794 O855 1.970 . S
Li795 N845 1.990 . S
Li795 O853 1.961 . S
Li795 O854 1.970 . S
Li795 O855 1.956 . S
C796 C798 1.348 . S
C796 C799 1.356 . S
C796 O852 1.325 . S
N797 C800 1.314 . S
N797 C801 1.279 . S
C798 C796 1.348 . S
C798 C800 1.353 . S
C798 H856 0.929 . S
C799 C796 1.356 . S
C799 C801 1.358 . S
C799 H857 0.930 . S
C800 N797 1.314 . S
C800 C798 1.353 . S
C800 H858 0.930 . S
C801 N797 1.279 . S
C801 C799 1.358 . S
C801 H859 0.930 . S
C802 C805 1.348 . S
C802 C806 1.356 . S
C802 O853 1.325 . S
C803 N804 1.279 . S
C803 C806 1.358 . S
C803 H860 0.930 . S
N804 C803 1.279 . S
N804 C807 1.314 . S
C805 C802 1.348 . S
C805 C807 1.353 . S
C805 H861 0.929 . S
C806 C802 1.356 . S
C806 C803 1.358 . S
C806 H862 0.930 . S
C807 N804 1.314 . S
C807 C805 1.353 . S
C807 H863 0.930 . S
C808 N809 1.314 . S
C808 C813 1.353 . S
C808 H814 0.930 . S
N809 Li792 1.990 . S
N809 C808 1.314 . S
N809 C811 1.279 . S
C810 C811 1.358 . S
C810 C812 1.356 . S
C810 H864 0.930 . S
C811 N809 1.279 . S
C811 C810 1.358 . S
C811 H815 0.930 . S
C812 C810 1.356 . S
C812 C813 1.348 . S
C813 C808 1.353 . S
C813 C812 1.348 . S
C813 H865 0.929 . S
H814 C808 0.930 . S
H815 C811 0.930 . S
C816 N817 1.314 . S
C816 C818 1.353 . S
C816 H822 0.930 . S
N817 Li793 1.990 . S
N817 C816 1.314 . S
N817 C820 1.279 . S
C818 C816 1.353 . S
C818 C821 1.348 . S
C818 H866 0.929 . S
C819 C820 1.358 . S
C819 C821 1.356 . S
C819 H867 0.930 . S
C820 N817 1.279 . S
C820 C819 1.358 . S
C820 H823 0.930 . S
C821 C818 1.348 . S
C821 C819 1.356 . S
H822 C816 0.930 . S
H823 C820 0.930 . S
C824 C826 1.348 . S
C824 C827 1.356 . S
C824 O854 1.325 . S
N825 C828 1.314 . S
N825 C829 1.279 . S
C826 C824 1.348 . S
C826 C828 1.353 . S
C826 H868 0.929 . S
C827 C824 1.356 . S
C827 C829 1.358 . S
C827 H869 0.930 . S
C828 N825 1.314 . S
C828 C826 1.353 . S
C828 H870 0.930 . S
C829 N825 1.279 . S
C829 C827 1.358 . S
C829 H871 0.930 . S
C830 C831 1.348 . S
C830 C832 1.356 . S
C830 O855 1.325 . S
C831 C830 1.348 . S
C831 C833 1.353 . S
C831 H872 0.929 . S
C832 C830 1.356 . S
C832 C834 1.358 . S
C832 H873 0.930 . S
C833 C831 1.353 . S
C833 N835 1.314 . S
C833 H874 0.930 . S
C834 C832 1.358 . S
C834 N835 1.279 . S
C834 H875 0.930 . S
N835 C833 1.314 . S
N835 C834 1.279 . S
C836 C838 1.353 . S
C836 N839 1.314 . S
C836 H842 0.930 . S
C837 N839 1.279 . S
C837 C840 1.358 . S
C837 H843 0.930 . S
C838 C836 1.353 . S
C838 C841 1.348 . S
C838 H876 0.929 . S
N839 Li794 1.990 . S
N839 C836 1.314 . S
N839 C837 1.279 . S
C840 C837 1.358 . S
C840 C841 1.356 . S
C840 H877 0.930 . S
C841 C838 1.348 . S
C841 C840 1.356 . S
H842 C836 0.930 . S
H843 C837 0.930 . S
C844 N845 1.314 . S
C844 C846 1.353 . S
C844 H850 0.930 . S
N845 Li795 1.990 . S
N845 C844 1.314 . S
N845 C848 1.279 . S
C846 C844 1.353 . S
C846 C849 1.348 . S
C846 H878 0.929 . S
C847 C848 1.358 . S
C847 C849 1.356 . S
C847 H879 0.930 . S
C848 N845 1.279 . S
C848 C847 1.358 . S
C848 H851 0.930 . S
C849 C846 1.348 . S
C849 C847 1.356 . S
H850 C844 0.930 . S
H851 C848 0.930 . S
O852 Li792 1.956 . S
O852 Li793 1.970 . S
O852 Li794 1.961 . S
O852 C796 1.325 . S
O853 Li792 1.970 . S
O853 Li793 1.956 . S
O853 Li795 1.961 . S
O853 C802 1.325 . S
O854 Li792 1.961 . S
O854 Li794 1.956 . S
O854 Li795 1.970 . S
O854 C824 1.325 . S
O855 Li793 1.961 . S
O855 Li794 1.970 . S
O855 Li795 1.956 . S
O855 C830 1.325 . S
H856 C798 0.929 . S
H857 C799 0.930 . S
H858 C800 0.930 . S
H859 C801 0.930 . S
H860 C803 0.930 . S
H861 C805 0.929 . S
H862 C806 0.930 . S
H863 C807 0.930 . S
H864 C810 0.930 . S
H865 C813 0.929 . S
H866 C818 0.929 . S
H867 C819 0.930 . S
H868 C826 0.929 . S
H869 C827 0.930 . S
H870 C828 0.930 . S
H871 C829 0.930 . S
H872 C831 0.929 . S
H873 C832 0.930 . S
H874 C833 0.930 . S
H875 C834 0.930 . S
H876 C838 0.929 . S
H877 C840 0.930 . S
H878 C846 0.929 . S
H879 C847 0.930 . S
Li880 N897 1.990 . S
Li880 O940 1.956 . S
Li880 O941 1.970 . S
Li880 O942 1.961 . S
Li881 N905 1.990 . S
Li881 O940 1.970 . S
Li881 O941 1.956 . S
Li881 O943 1.961 . S
Li882 N927 1.990 . S
Li882 O940 1.961 . S
Li882 O942 1.956 . S
Li882 O943 1.970 . S
Li883 N933 1.990 . S
Li883 O941 1.961 . S
Li883 O942 1.970 . S
Li883 O943 1.956 . S
C884 C886 1.348 . S
C884 C887 1.356 . S
C884 O940 1.325 . S
N885 C888 1.314 . S
N885 C889 1.279 . S
C886 C884 1.348 . S
C886 C888 1.353 . S
C886 H944 0.929 . S
C887 C884 1.356 . S
C887 C889 1.358 . S
C887 H945 0.930 . S
C888 N885 1.314 . S
C888 C886 1.353 . S
C888 H946 0.930 . S
C889 N885 1.279 . S
C889 C887 1.358 . S
C889 H947 0.930 . S
C890 C893 1.348 . S
C890 C894 1.356 . S
C890 O941 1.325 . S
C891 N892 1.279 . S
C891 C894 1.358 . S
C891 H948 0.930 . S
N892 C891 1.279 . S
N892 C895 1.314 . S
C893 C890 1.348 . S
C893 C895 1.353 . S
C893 H949 0.929 . S
C894 C890 1.356 . S
C894 C891 1.358 . S
C894 H950 0.930 . S
C895 N892 1.314 . S
C895 C893 1.353 . S
C895 H951 0.930 . S
C896 N897 1.314 . S
C896 C901 1.353 . S
C896 H902 0.930 . S
N897 Li880 1.990 . S
N897 C896 1.314 . S
N897 C899 1.279 . S
C898 C899 1.358 . S
C898 C900 1.356 . S
C898 H952 0.930 . S
C899 N897 1.279 . S
C899 C898 1.358 . S
C899 H903 0.930 . S
C900 C898 1.356 . S
C900 C901 1.348 . S
C901 C896 1.353 . S
C901 C900 1.348 . S
C901 H953 0.929 . S
H902 C896 0.930 . S
H903 C899 0.930 . S
C904 N905 1.314 . S
C904 C906 1.353 . S
C904 H910 0.930 . S
N905 Li881 1.990 . S
N905 C904 1.314 . S
N905 C908 1.279 . S
C906 C904 1.353 . S
C906 C909 1.348 . S
C906 H954 0.929 . S
C907 C908 1.358 . S
C907 C909 1.356 . S
C907 H955 0.930 . S
C908 N905 1.279 . S
C908 C907 1.358 . S
C908 H911 0.930 . S
C909 C906 1.348 . S
C909 C907 1.356 . S
H910 C904 0.930 . S
H911 C908 0.930 . S
C912 C914 1.348 . S
C912 C915 1.356 . S
C912 O942 1.325 . S
N913 C916 1.314 . S
N913 C917 1.279 . S
C914 C912 1.348 . S
C914 C916 1.353 . S
C914 H956 0.929 . S
C915 C912 1.356 . S
C915 C917 1.358 . S
C915 H957 0.930 . S
C916 N913 1.314 . S
C916 C914 1.353 . S
C916 H958 0.930 . S
C917 N913 1.279 . S
C917 C915 1.358 . S
C917 H959 0.930 . S
C918 C919 1.348 . S
C918 C920 1.356 . S
C918 O943 1.325 . S
C919 C918 1.348 . S
C919 C921 1.353 . S
C919 H960 0.929 . S
C920 C918 1.356 . S
C920 C922 1.358 . S
C920 H961 0.930 . S
C921 C919 1.353 . S
C921 N923 1.314 . S
C921 H962 0.930 . S
C922 C920 1.358 . S
C922 N923 1.279 . S
C922 H963 0.930 . S
N923 C921 1.314 . S
N923 C922 1.279 . S
C924 C926 1.353 . S
C924 N927 1.314 . S
C924 H930 0.930 . S
C925 N927 1.279 . S
C925 C928 1.358 . S
C925 H931 0.930 . S
C926 C924 1.353 . S
C926 C929 1.348 . S
C926 H964 0.929 . S
N927 Li882 1.990 . S
N927 C924 1.314 . S
N927 C925 1.279 . S
C928 C925 1.358 . S
C928 C929 1.356 . S
C928 H965 0.930 . S
C929 C926 1.348 . S
C929 C928 1.356 . S
H930 C924 0.930 . S
H931 C925 0.930 . S
C932 N933 1.314 . S
C932 C934 1.353 . S
C932 H938 0.930 . S
N933 Li883 1.990 . S
N933 C932 1.314 . S
N933 C936 1.279 . S
C934 C932 1.353 . S
C934 C937 1.348 . S
C934 H966 0.929 . S
C935 C936 1.358 . S
C935 C937 1.356 . S
C935 H967 0.930 . S
C936 N933 1.279 . S
C936 C935 1.358 . S
C936 H939 0.930 . S
C937 C934 1.348 . S
C937 C935 1.356 . S
H938 C932 0.930 . S
H939 C936 0.930 . S
O940 Li880 1.956 . S
O940 Li881 1.970 . S
O940 Li882 1.961 . S
O940 C884 1.325 . S
O941 Li880 1.970 . S
O941 Li881 1.956 . S
O941 Li883 1.961 . S
O941 C890 1.325 . S
O942 Li880 1.961 . S
O942 Li882 1.956 . S
O942 Li883 1.970 . S
O942 C912 1.325 . S
O943 Li881 1.961 . S
O943 Li882 1.970 . S
O943 Li883 1.956 . S
O943 C918 1.325 . S
H944 C886 0.929 . S
H945 C887 0.930 . S
H946 C888 0.930 . S
H947 C889 0.930 . S
H948 C891 0.930 . S
H949 C893 0.929 . S
H950 C894 0.930 . S
H951 C895 0.930 . S
H952 C898 0.930 . S
H953 C901 0.929 . S
H954 C906 0.929 . S
H955 C907 0.930 . S
H956 C914 0.929 . S
H957 C915 0.930 . S
H958 C916 0.930 . S
H959 C917 0.930 . S
H960 C919 0.929 . S
H961 C920 0.930 . S
H962 C921 0.930 . S
H963 C922 0.930 . S
H964 C926 0.929 . S
H965 C928 0.930 . S
H966 C934 0.929 . S
H967 C935 0.930 . S
Li968 N985 1.990 . S
Li968 O1028 1.956 . S
Li968 O1029 1.970 . S
Li968 O1030 1.961 . S
Li969 N993 1.990 . S
Li969 O1028 1.970 . S
Li969 O1029 1.956 . S
Li969 O1031 1.961 . S
Li970 N1015 1.990 . S
Li970 O1028 1.961 . S
Li970 O1030 1.956 . S
Li970 O1031 1.970 . S
Li971 N1021 1.990 . S
Li971 O1029 1.961 . S
Li971 O1030 1.970 . S
Li971 O1031 1.956 . S
C972 C974 1.348 . S
C972 C975 1.356 . S
C972 O1028 1.325 . S
N973 C976 1.314 . S
N973 C977 1.279 . S
C974 C972 1.348 . S
C974 C976 1.353 . S
C974 H1032 0.929 . S
C975 C972 1.356 . S
C975 C977 1.358 . S
C975 H1033 0.930 . S
C976 N973 1.314 . S
C976 C974 1.353 . S
C976 H1034 0.930 . S
C977 N973 1.279 . S
C977 C975 1.358 . S
C977 H1035 0.930 . S
C978 C981 1.348 . S
C978 C982 1.356 . S
C978 O1029 1.325 . S
C979 N980 1.279 . S
C979 C982 1.358 . S
C979 H1036 0.930 . S
N980 C979 1.279 . S
N980 C983 1.314 . S
C981 C978 1.348 . S
C981 C983 1.353 . S
C981 H1037 0.929 . S
C982 C978 1.356 . S
C982 C979 1.358 . S
C982 H1038 0.930 . S
C983 N980 1.314 . S
C983 C981 1.353 . S
C983 H1039 0.930 . S
C984 N985 1.314 . S
C984 C989 1.353 . S
C984 H990 0.930 . S
N985 Li968 1.990 . S
N985 C984 1.314 . S
N985 C987 1.279 . S
C986 C987 1.358 . S
C986 C988 1.356 . S
C986 H1040 0.930 . S
C987 N985 1.279 . S
C987 C986 1.358 . S
C987 H991 0.930 . S
C988 C986 1.356 . S
C988 C989 1.348 . S
C989 C984 1.353 . S
C989 C988 1.348 . S
C989 H1041 0.929 . S
H990 C984 0.930 . S
H991 C987 0.930 . S
C992 N993 1.314 . S
C992 C994 1.353 . S
C992 H998 0.930 . S
N993 Li969 1.990 . S
N993 C992 1.314 . S
N993 C996 1.279 . S
C994 C992 1.353 . S
C994 C997 1.348 . S
C994 H1042 0.929 . S
C995 C996 1.358 . S
C995 C997 1.356 . S
C995 H1043 0.930 . S
C996 N993 1.279 . S
C996 C995 1.358 . S
C996 H999 0.930 . S
C997 C994 1.348 . S
C997 C995 1.356 . S
H998 C992 0.930 . S
H999 C996 0.930 . S
C1000 C1002 1.348 . S
C1000 C1003 1.356 . S
C1000 O1030 1.325 . S
N1001 C1004 1.314 . S
N1001 C1005 1.279 . S
C1002 C1000 1.348 . S
C1002 C1004 1.353 . S
C1002 H1044 0.929 . S
C1003 C1000 1.356 . S
C1003 C1005 1.358 . S
C1003 H1045 0.930 . S
C1004 N1001 1.314 . S
C1004 C1002 1.353 . S
C1004 H1046 0.930 . S
C1005 N1001 1.279 . S
C1005 C1003 1.358 . S
C1005 H1047 0.930 . S
C1006 C1007 1.348 . S
C1006 C1008 1.356 . S
C1006 O1031 1.325 . S
C1007 C1006 1.348 . S
C1007 C1009 1.353 . S
C1007 H1048 0.929 . S
C1008 C1006 1.356 . S
C1008 C1010 1.358 . S
C1008 H1049 0.930 . S
C1009 C1007 1.353 . S
C1009 N1011 1.314 . S
C1009 H1050 0.930 . S
C1010 C1008 1.358 . S
C1010 N1011 1.279 . S
C1010 H1051 0.930 . S
N1011 C1009 1.314 . S
N1011 C1010 1.279 . S
C1012 C1014 1.353 . S
C1012 N1015 1.314 . S
C1012 H1018 0.930 . S
C1013 N1015 1.279 . S
C1013 C1016 1.358 . S
C1013 H1019 0.930 . S
C1014 C1012 1.353 . S
C1014 C1017 1.348 . S
C1014 H1052 0.929 . S
N1015 Li970 1.990 . S
N1015 C1012 1.314 . S
N1015 C1013 1.279 . S
C1016 C1013 1.358 . S
C1016 C1017 1.356 . S
C1016 H1053 0.930 . S
C1017 C1014 1.348 . S
C1017 C1016 1.356 . S
H1018 C1012 0.930 . S
H1019 C1013 0.930 . S
C1020 N1021 1.314 . S
C1020 C1022 1.353 . S
C1020 H1026 0.930 . S
N1021 Li971 1.990 . S
N1021 C1020 1.314 . S
N1021 C1024 1.279 . S
C1022 C1020 1.353 . S
C1022 C1025 1.348 . S
C1022 H1054 0.929 . S
C1023 C1024 1.358 . S
C1023 C1025 1.356 . S
C1023 H1055 0.930 . S
C1024 N1021 1.279 . S
C1024 C1023 1.358 . S
C1024 H1027 0.930 . S
C1025 C1022 1.348 . S
C1025 C1023 1.356 . S
H1026 C1020 0.930 . S
H1027 C1024 0.930 . S
O1028 Li968 1.956 . S
O1028 Li969 1.970 . S
O1028 Li970 1.961 . S
O1028 C972 1.325 . S
O1029 Li968 1.970 . S
O1029 Li969 1.956 . S
O1029 Li971 1.961 . S
O1029 C978 1.325 . S
O1030 Li968 1.961 . S
O1030 Li970 1.956 . S
O1030 Li971 1.970 . S
O1030 C1000 1.325 . S
O1031 Li969 1.961 . S
O1031 Li970 1.970 . S
O1031 Li971 1.956 . S
O1031 C1006 1.325 . S
H1032 C974 0.929 . S
H1033 C975 0.930 . S
H1034 C976 0.930 . S
H1035 C977 0.930 . S
H1036 C979 0.930 . S
H1037 C981 0.929 . S
H1038 C982 0.930 . S
H1039 C983 0.930 . S
H1040 C986 0.930 . S
H1041 C989 0.929 . S
H1042 C994 0.929 . S
H1043 C995 0.930 . S
H1044 C1002 0.929 . S
H1045 C1003 0.930 . S
H1046 C1004 0.930 . S
H1047 C1005 0.930 . S
H1048 C1007 0.929 . S
H1049 C1008 0.930 . S
H1050 C1009 0.930 . S
H1051 C1010 0.930 . S
H1052 C1014 0.929 . S
H1053 C1016 0.930 . S
H1054 C1022 0.929 . S
H1055 C1023 0.930 . S
Li1056 N1073 1.990 . S
Li1056 O1116 1.956 . S
Li1056 O1117 1.970 . S
Li1056 O1118 1.961 . S
Li1057 N1081 1.990 . S
Li1057 O1116 1.970 . S
Li1057 O1117 1.956 . S
Li1057 O1119 1.961 . S
Li1058 N1103 1.990 . S
Li1058 O1116 1.961 . S
Li1058 O1118 1.956 . S
Li1058 O1119 1.970 . S
Li1059 N1109 1.990 . S
Li1059 O1117 1.961 . S
Li1059 O1118 1.970 . S
Li1059 O1119 1.956 . S
C1060 C1062 1.348 . S
C1060 C1063 1.356 . S
C1060 O1116 1.325 . S
N1061 C1064 1.314 . S
N1061 C1065 1.279 . S
C1062 C1060 1.348 . S
C1062 C1064 1.353 . S
C1062 H1120 0.929 . S
C1063 C1060 1.356 . S
C1063 C1065 1.358 . S
C1063 H1121 0.930 . S
C1064 N1061 1.314 . S
C1064 C1062 1.353 . S
C1064 H1122 0.930 . S
C1065 N1061 1.279 . S
C1065 C1063 1.358 . S
C1065 H1123 0.930 . S
C1066 C1069 1.348 . S
C1066 C1070 1.356 . S
C1066 O1117 1.325 . S
C1067 N1068 1.279 . S
C1067 C1070 1.358 . S
C1067 H1124 0.930 . S
N1068 C1067 1.279 . S
N1068 C1071 1.314 . S
C1069 C1066 1.348 . S
C1069 C1071 1.353 . S
C1069 H1125 0.929 . S
C1070 C1066 1.356 . S
C1070 C1067 1.358 . S
C1070 H1126 0.930 . S
C1071 N1068 1.314 . S
C1071 C1069 1.353 . S
C1071 H1127 0.930 . S
C1072 N1073 1.314 . S
C1072 C1077 1.353 . S
C1072 H1078 0.930 . S
N1073 Li1056 1.990 . S
N1073 C1072 1.314 . S
N1073 C1075 1.279 . S
C1074 C1075 1.358 . S
C1074 C1076 1.356 . S
C1074 H1128 0.930 . S
C1075 N1073 1.279 . S
C1075 C1074 1.358 . S
C1075 H1079 0.930 . S
C1076 C1074 1.356 . S
C1076 C1077 1.348 . S
C1077 C1072 1.353 . S
C1077 C1076 1.348 . S
C1077 H1129 0.929 . S
H1078 C1072 0.930 . S
H1079 C1075 0.930 . S
C1080 N1081 1.314 . S
C1080 C1082 1.353 . S
C1080 H1086 0.930 . S
N1081 Li1057 1.990 . S
N1081 C1080 1.314 . S
N1081 C1084 1.279 . S
C1082 C1080 1.353 . S
C1082 C1085 1.348 . S
C1082 H1130 0.929 . S
C1083 C1084 1.358 . S
C1083 C1085 1.356 . S
C1083 H1131 0.930 . S
C1084 N1081 1.279 . S
C1084 C1083 1.358 . S
C1084 H1087 0.930 . S
C1085 C1082 1.348 . S
C1085 C1083 1.356 . S
H1086 C1080 0.930 . S
H1087 C1084 0.930 . S
C1088 C1090 1.348 . S
C1088 C1091 1.356 . S
C1088 O1118 1.325 . S
N1089 C1092 1.314 . S
N1089 C1093 1.279 . S
C1090 C1088 1.348 . S
C1090 C1092 1.353 . S
C1090 H1132 0.929 . S
C1091 C1088 1.356 . S
C1091 C1093 1.358 . S
C1091 H1133 0.930 . S
C1092 N1089 1.314 . S
C1092 C1090 1.353 . S
C1092 H1134 0.930 . S
C1093 N1089 1.279 . S
C1093 C1091 1.358 . S
C1093 H1135 0.930 . S
C1094 C1095 1.348 . S
C1094 C1096 1.356 . S
C1094 O1119 1.325 . S
C1095 C1094 1.348 . S
C1095 C1097 1.353 . S
C1095 H1136 0.929 . S
C1096 C1094 1.356 . S
C1096 C1098 1.358 . S
C1096 H1137 0.930 . S
C1097 C1095 1.353 . S
C1097 N1099 1.314 . S
C1097 H1138 0.930 . S
C1098 C1096 1.358 . S
C1098 N1099 1.279 . S
C1098 H1139 0.930 . S
N1099 C1097 1.314 . S
N1099 C1098 1.279 . S
C1100 C1102 1.353 . S
C1100 N1103 1.314 . S
C1100 H1106 0.930 . S
C1101 N1103 1.279 . S
C1101 C1104 1.358 . S
C1101 H1107 0.930 . S
C1102 C1100 1.353 . S
C1102 C1105 1.348 . S
C1102 H1140 0.929 . S
N1103 Li1058 1.990 . S
N1103 C1100 1.314 . S
N1103 C1101 1.279 . S
C1104 C1101 1.358 . S
C1104 C1105 1.356 . S
C1104 H1141 0.930 . S
C1105 C1102 1.348 . S
C1105 C1104 1.356 . S
H1106 C1100 0.930 . S
H1107 C1101 0.930 . S
C1108 N1109 1.314 . S
C1108 C1110 1.353 . S
C1108 H1114 0.930 . S
N1109 Li1059 1.990 . S
N1109 C1108 1.314 . S
N1109 C1112 1.279 . S
C1110 C1108 1.353 . S
C1110 C1113 1.348 . S
C1110 H1142 0.929 . S
C1111 C1112 1.358 . S
C1111 C1113 1.356 . S
C1111 H1143 0.930 . S
C1112 N1109 1.279 . S
C1112 C1111 1.358 . S
C1112 H1115 0.930 . S
C1113 C1110 1.348 . S
C1113 C1111 1.356 . S
H1114 C1108 0.930 . S
H1115 C1112 0.930 . S
O1116 Li1056 1.956 . S
O1116 Li1057 1.970 . S
O1116 Li1058 1.961 . S
O1116 C1060 1.325 . S
O1117 Li1056 1.970 . S
O1117 Li1057 1.956 . S
O1117 Li1059 1.961 . S
O1117 C1066 1.325 . S
O1118 Li1056 1.961 . S
O1118 Li1058 1.956 . S
O1118 Li1059 1.970 . S
O1118 C1088 1.325 . S
O1119 Li1057 1.961 . S
O1119 Li1058 1.970 . S
O1119 Li1059 1.956 . S
O1119 C1094 1.325 . S
H1120 C1062 0.929 . S
H1121 C1063 0.930 . S
H1122 C1064 0.930 . S
H1123 C1065 0.930 . S
H1124 C1067 0.930 . S
H1125 C1069 0.929 . S
H1126 C1070 0.930 . S
H1127 C1071 0.930 . S
H1128 C1074 0.930 . S
H1129 C1077 0.929 . S
H1130 C1082 0.929 . S
H1131 C1083 0.930 . S
H1132 C1090 0.929 . S
H1133 C1091 0.930 . S
H1134 C1092 0.930 . S
H1135 C1093 0.930 . S
H1136 C1095 0.929 . S
H1137 C1096 0.930 . S
H1138 C1097 0.930 . S
H1139 C1098 0.930 . S
H1140 C1102 0.929 . S
H1141 C1104 0.930 . S
H1142 C1110 0.929 . S
H1143 C1111 0.930 . S
Li1144 N1161 1.990 . S
Li1144 O1204 1.956 1_655 S
Li1144 O1205 1.970 1_655 S
Li1144 O1206 1.961 . S
Li1145 N1169 1.990 . S
Li1145 O1204 1.970 . S
Li1145 O1205 1.956 . S
Li1145 O1207 1.961 . S
Li1146 N1191 1.990 . S
Li1146 O1204 1.961 . S
Li1146 O1206 1.956 1_455 S
Li1146 O1207 1.970 . S
Li1147 N1197 1.990 . S
Li1147 O1205 1.961 . S
Li1147 O1206 1.970 1_455 S
Li1147 O1207 1.956 . S
C1148 C1150 1.348 . S
C1148 C1151 1.356 1_455 S
C1148 O1204 1.325 . S
N1149 C1152 1.314 . S
N1149 C1153 1.279 1_455 S
C1150 C1148 1.348 . S
C1150 C1152 1.353 . S
C1150 H1208 0.929 . S
C1151 C1148 1.356 1_655 S
C1151 C1153 1.358 . S
C1151 H1209 0.930 . S
C1152 N1149 1.314 . S
C1152 C1150 1.353 . S
C1152 H1210 0.930 . S
C1153 N1149 1.279 1_655 S
C1153 C1151 1.358 . S
C1153 H1211 0.930 . S
C1154 C1157 1.348 1_455 S
C1154 C1158 1.356 . S
C1154 O1205 1.325 . S
C1155 N1156 1.279 . S
C1155 C1158 1.358 . S
C1155 H1212 0.930 . S
N1156 C1155 1.279 . S
N1156 C1159 1.314 . S
C1157 C1154 1.348 1_655 S
C1157 C1159 1.353 1_655 S
C1157 H1213 0.929 . S
C1158 C1154 1.356 . S
C1158 C1155 1.358 . S
C1158 H1214 0.930 . S
C1159 N1156 1.314 . S
C1159 C1157 1.353 1_455 S
C1159 H1215 0.930 1_455 S
C1160 N1161 1.314 . S
C1160 C1165 1.353 . S
C1160 H1166 0.930 . S
N1161 Li1144 1.990 . S
N1161 C1160 1.314 . S
N1161 C1163 1.279 . S
C1162 C1163 1.358 . S
C1162 C1164 1.356 . S
C1162 H1216 0.930 . S
C1163 N1161 1.279 . S
C1163 C1162 1.358 . S
C1163 H1167 0.930 . S
C1164 C1162 1.356 . S
C1164 C1165 1.348 . S
C1165 C1160 1.353 . S
C1165 C1164 1.348 . S
C1165 H1217 0.929 . S
H1166 C1160 0.930 . S
H1167 C1163 0.930 . S
C1168 N1169 1.314 . S
C1168 C1170 1.353 . S
C1168 H1174 0.930 . S
N1169 Li1145 1.990 . S
N1169 C1168 1.314 . S
N1169 C1172 1.279 . S
C1170 C1168 1.353 . S
C1170 C1173 1.348 . S
C1170 H1218 0.929 . S
C1171 C1172 1.358 . S
C1171 C1173 1.356 . S
C1171 H1219 0.930 . S
C1172 N1169 1.279 . S
C1172 C1171 1.358 . S
C1172 H1175 0.930 . S
C1173 C1170 1.348 . S
C1173 C1171 1.356 . S
H1174 C1168 0.930 . S
H1175 C1172 0.930 . S
C1176 C1178 1.348 . S
C1176 C1179 1.356 . S
C1176 O1206 1.325 . S
N1177 C1180 1.314 . S
N1177 C1181 1.279 . S
C1178 C1176 1.348 . S
C1178 C1180 1.353 . S
C1178 H1220 0.929 . S
C1179 C1176 1.356 . S
C1179 C1181 1.358 . S
C1179 H1221 0.930 . S
C1180 N1177 1.314 . S
C1180 C1178 1.353 . S
C1180 H1222 0.930 . S
C1181 N1177 1.279 . S
C1181 C1179 1.358 . S
C1181 H1223 0.930 . S
C1182 C1183 1.348 . S
C1182 C1184 1.356 . S
C1182 O1207 1.325 . S
C1183 C1182 1.348 . S
C1183 C1185 1.353 . S
C1183 H1224 0.929 . S
C1184 C1182 1.356 . S
C1184 C1186 1.358 . S
C1184 H1225 0.930 . S
C1185 C1183 1.353 . S
C1185 N1187 1.314 . S
C1185 H1226 0.930 . S
C1186 C1184 1.358 . S
C1186 N1187 1.279 . S
C1186 H1227 0.930 . S
N1187 C1185 1.314 . S
N1187 C1186 1.279 . S
C1188 C1190 1.353 . S
C1188 N1191 1.314 . S
C1188 H1194 0.930 . S
C1189 N1191 1.279 1_655 S
C1189 C1192 1.358 . S
C1189 H1195 0.930 . S
C1190 C1188 1.353 . S
C1190 C1193 1.348 . S
C1190 H1228 0.929 . S
N1191 Li1146 1.990 . S
N1191 C1188 1.314 . S
N1191 C1189 1.279 1_455 S
C1192 C1189 1.358 . S
C1192 C1193 1.356 1_655 S
C1192 H1229 0.930 . S
C1193 C1190 1.348 . S
C1193 C1192 1.356 1_455 S
H1194 C1188 0.930 . S
H1195 C1189 0.930 . S
C1196 N1197 1.321 . S
C1196 C1198 1.352 1_455 S
C1196 H1202 0.923 1_455 S
N1197 Li1147 1.990 . S
N1197 C1196 1.321 . S
N1197 C1200 1.279 . S
C1198 C1196 1.352 1_655 S
C1198 C1201 1.348 1_655 S
C1198 H1230 0.929 . S
C1199 C1200 1.358 . S
C1199 C1201 1.356 . S
C1199 H1231 0.930 . S
C1200 N1197 1.279 . S
C1200 C1199 1.358 . S
C1200 H1203 0.930 . S
C1201 C1198 1.348 1_455 S
C1201 C1199 1.356 . S
H1202 C1196 0.923 1_655 S
H1203 C1200 0.930 . S
O1204 Li1144 1.956 1_455 S
O1204 Li1145 1.970 . S
O1204 Li1146 1.961 . S
O1204 C1148 1.325 . S
O1205 Li1144 1.970 1_455 S
O1205 Li1145 1.956 . S
O1205 Li1147 1.961 . S
O1205 C1154 1.325 . S
O1206 Li1144 1.961 . S
O1206 Li1146 1.956 1_655 S
O1206 Li1147 1.970 1_655 S
O1206 C1176 1.325 . S
O1207 Li1145 1.961 . S
O1207 Li1146 1.970 . S
O1207 Li1147 1.956 . S
O1207 C1182 1.325 . S
H1208 C1150 0.929 . S
H1209 C1151 0.930 . S
H1210 C1152 0.930 . S
H1211 C1153 0.930 . S
H1212 C1155 0.930 . S
H1213 C1157 0.929 . S
H1214 C1158 0.930 . S
H1215 C1159 0.930 1_655 S
H1216 C1162 0.930 . S
H1217 C1165 0.929 . S
H1218 C1170 0.929 . S
H1219 C1171 0.930 . S
H1220 C1178 0.929 . S
H1221 C1179 0.930 . S
H1222 C1180 0.930 . S
H1223 C1181 0.930 . S
H1224 C1183 0.929 . S
H1225 C1184 0.930 . S
H1226 C1185 0.930 . S
H1227 C1186 0.930 . S
H1228 C1190 0.929 . S
H1229 C1192 0.930 . S
H1230 C1198 0.929 . S
H1231 C1199 0.930 . S
Li1232 N1249 1.990 . S
Li1232 O1292 1.956 . S
Li1232 O1293 1.970 . S
Li1232 O1294 1.961 . S
Li1233 N1257 1.990 . S
Li1233 O1292 1.970 . S
Li1233 O1293 1.956 . S
Li1233 O1295 1.961 . S
Li1234 N1279 1.990 . S
Li1234 O1292 1.961 . S
Li1234 O1294 1.956 . S
Li1234 O1295 1.970 . S
Li1235 N1285 1.990 . S
Li1235 O1293 1.961 . S
Li1235 O1294 1.970 . S
Li1235 O1295 1.956 . S
C1236 C1238 1.348 . S
C1236 C1239 1.356 . S
C1236 O1292 1.325 . S
N1237 C1240 1.314 . S
N1237 C1241 1.279 . S
C1238 C1236 1.348 . S
C1238 C1240 1.353 . S
C1238 H1296 0.929 . S
C1239 C1236 1.356 . S
C1239 C1241 1.358 . S
C1239 H1297 0.930 . S
C1240 N1237 1.314 . S
C1240 C1238 1.353 . S
C1240 H1298 0.930 . S
C1241 N1237 1.279 . S
C1241 C1239 1.358 . S
C1241 H1299 0.930 . S
C1242 C1245 1.348 . S
C1242 C1246 1.356 . S
C1242 O1293 1.325 . S
C1243 N1244 1.279 . S
C1243 C1246 1.358 . S
C1243 H1300 0.930 . S
N1244 C1243 1.279 . S
N1244 C1247 1.314 . S
C1245 C1242 1.348 . S
C1245 C1247 1.353 . S
C1245 H1301 0.929 . S
C1246 C1242 1.356 . S
C1246 C1243 1.358 . S
C1246 H1302 0.930 . S
C1247 N1244 1.314 . S
C1247 C1245 1.353 . S
C1247 H1303 0.930 . S
C1248 N1249 1.314 . S
C1248 C1253 1.353 . S
C1248 H1254 0.930 . S
N1249 Li1232 1.990 . S
N1249 C1248 1.314 . S
N1249 C1251 1.279 . S
C1250 C1251 1.358 . S
C1250 C1252 1.356 . S
C1250 H1304 0.930 . S
C1251 N1249 1.279 . S
C1251 C1250 1.358 . S
C1251 H1255 0.930 . S
C1252 C1250 1.356 . S
C1252 C1253 1.348 . S
C1253 C1248 1.353 . S
C1253 C1252 1.348 . S
C1253 H1305 0.929 . S
H1254 C1248 0.930 . S
H1255 C1251 0.930 . S
C1256 N1257 1.314 . S
C1256 C1258 1.353 . S
C1256 H1262 0.930 . S
N1257 Li1233 1.990 . S
N1257 C1256 1.314 . S
N1257 C1260 1.279 . S
C1258 C1256 1.353 . S
C1258 C1261 1.348 . S
C1258 H1306 0.929 . S
C1259 C1260 1.358 . S
C1259 C1261 1.356 . S
C1259 H1307 0.930 . S
C1260 N1257 1.279 . S
C1260 C1259 1.358 . S
C1260 H1263 0.930 . S
C1261 C1258 1.348 . S
C1261 C1259 1.356 . S
H1262 C1256 0.930 . S
H1263 C1260 0.930 . S
C1264 C1266 1.348 . S
C1264 C1267 1.356 . S
C1264 O1294 1.325 . S
N1265 C1268 1.314 . S
N1265 C1269 1.279 . S
C1266 C1264 1.348 . S
C1266 C1268 1.353 . S
C1266 H1308 0.929 . S
C1267 C1264 1.356 . S
C1267 C1269 1.358 . S
C1267 H1309 0.930 . S
C1268 N1265 1.314 . S
C1268 C1266 1.353 . S
C1268 H1310 0.930 . S
C1269 N1265 1.279 . S
C1269 C1267 1.358 . S
C1269 H1311 0.930 . S
C1270 C1271 1.348 . S
C1270 C1272 1.356 . S
C1270 O1295 1.325 . S
C1271 C1270 1.348 . S
C1271 C1273 1.353 . S
C1271 H1312 0.929 . S
C1272 C1270 1.356 . S
C1272 C1274 1.358 . S
C1272 H1313 0.930 . S
C1273 C1271 1.353 . S
C1273 N1275 1.314 . S
C1273 H1314 0.930 . S
C1274 C1272 1.358 . S
C1274 N1275 1.279 . S
C1274 H1315 0.930 . S
N1275 C1273 1.314 . S
N1275 C1274 1.279 . S
C1276 C1278 1.353 . S
C1276 N1279 1.314 . S
C1276 H1282 0.930 . S
C1277 N1279 1.279 . S
C1277 C1280 1.358 . S
C1277 H1283 0.930 . S
C1278 C1276 1.353 . S
C1278 C1281 1.348 . S
C1278 H1316 0.929 . S
N1279 Li1234 1.990 . S
N1279 C1276 1.314 . S
N1279 C1277 1.279 . S
C1280 C1277 1.358 . S
C1280 C1281 1.356 . S
C1280 H1317 0.930 . S
C1281 C1278 1.348 . S
C1281 C1280 1.356 . S
H1282 C1276 0.930 . S
H1283 C1277 0.930 . S
C1284 N1285 1.314 . S
C1284 C1286 1.353 . S
C1284 H1290 0.930 . S
N1285 Li1235 1.990 . S
N1285 C1284 1.314 . S
N1285 C1288 1.279 . S
C1286 C1284 1.353 . S
C1286 C1289 1.348 . S
C1286 H1318 0.929 . S
C1287 C1288 1.358 . S
C1287 C1289 1.356 . S
C1287 H1319 0.930 . S
C1288 N1285 1.279 . S
C1288 C1287 1.358 . S
C1288 H1291 0.930 . S
C1289 C1286 1.348 . S
C1289 C1287 1.356 . S
H1290 C1284 0.930 . S
H1291 C1288 0.930 . S
O1292 Li1232 1.956 . S
O1292 Li1233 1.970 . S
O1292 Li1234 1.961 . S
O1292 C1236 1.325 . S
O1293 Li1232 1.970 . S
O1293 Li1233 1.956 . S
O1293 Li1235 1.961 . S
O1293 C1242 1.325 . S
O1294 Li1232 1.961 . S
O1294 Li1234 1.956 . S
O1294 Li1235 1.970 . S
O1294 C1264 1.325 . S
O1295 Li1233 1.961 . S
O1295 Li1234 1.970 . S
O1295 Li1235 1.956 . S
O1295 C1270 1.325 . S
H1296 C1238 0.929 . S
H1297 C1239 0.930 . S
H1298 C1240 0.930 . S
H1299 C1241 0.930 . S
H1300 C1243 0.930 . S
H1301 C1245 0.929 . S
H1302 C1246 0.930 . S
H1303 C1247 0.930 . S
H1304 C1250 0.930 . S
H1305 C1253 0.929 . S
H1306 C1258 0.929 . S
H1307 C1259 0.930 . S
H1308 C1266 0.929 . S
H1309 C1267 0.930 . S
H1310 C1268 0.930 . S
H1311 C1269 0.930 . S
H1312 C1271 0.929 . S
H1313 C1272 0.930 . S
H1314 C1273 0.930 . S
H1315 C1274 0.930 . S
H1316 C1278 0.929 . S
H1317 C1280 0.930 . S
H1318 C1286 0.929 . S
H1319 C1287 0.930 . S
Li1320 N1337 1.990 . S
Li1320 O1380 1.956 . S
Li1320 O1381 1.970 1_455 S
Li1320 O1382 1.961 . S
Li1321 N1345 1.990 . S
Li1321 O1380 1.970 . S
Li1321 O1381 1.956 1_455 S
Li1321 O1383 1.961 . S
Li1322 N1367 1.990 . S
Li1322 O1380 1.961 . S
Li1322 O1382 1.956 . S
Li1322 O1383 1.970 . S
Li1323 N1373 1.990 . S
Li1323 O1381 1.961 . S
Li1323 O1382 1.970 1_655 S
Li1323 O1383 1.956 1_655 S
C1324 C1326 1.348 . S
C1324 C1327 1.356 . S
C1324 O1380 1.325 . S
N1325 C1328 1.314 . S
N1325 C1329 1.279 . S
C1326 C1324 1.348 . S
C1326 C1328 1.353 . S
C1326 H1384 0.929 . S
C1327 C1324 1.356 . S
C1327 C1329 1.358 . S
C1327 H1385 0.930 . S
C1328 N1325 1.314 . S
C1328 C1326 1.353 . S
C1328 H1386 0.930 . S
C1329 N1325 1.279 . S
C1329 C1327 1.358 . S
C1329 H1387 0.930 . S
C1330 C1333 1.348 . S
C1330 C1334 1.356 . S
C1330 O1381 1.325 . S
C1331 N1332 1.279 . S
C1331 C1334 1.358 . S
C1331 H1388 0.930 . S
N1332 C1331 1.279 . S
N1332 C1335 1.314 . S
C1333 C1330 1.348 . S
C1333 C1335 1.353 . S
C1333 H1389 0.929 . S
C1334 C1330 1.356 . S
C1334 C1331 1.358 . S
C1334 H1390 0.930 . S
C1335 N1332 1.314 . S
C1335 C1333 1.353 . S
C1335 H1391 0.930 . S
C1336 N1337 1.321 . S
C1336 C1341 1.352 1_455 S
C1336 H1342 0.923 1_455 S
N1337 Li1320 1.990 . S
N1337 C1336 1.321 . S
N1337 C1339 1.279 . S
C1338 C1339 1.358 . S
C1338 C1340 1.356 . S
C1338 H1392 0.930 . S
C1339 N1337 1.279 . S
C1339 C1338 1.358 . S
C1339 H1343 0.930 . S
C1340 C1338 1.356 . S
C1340 C1341 1.348 1_455 S
C1341 C1336 1.352 1_655 S
C1341 C1340 1.348 1_655 S
C1341 H1393 0.929 . S
H1342 C1336 0.923 1_655 S
H1343 C1339 0.930 . S
C1344 N1345 1.314 . S
C1344 C1346 1.353 . S
C1344 H1350 0.930 . S
N1345 Li1321 1.990 . S
N1345 C1344 1.314 . S
N1345 C1348 1.279 1_455 S
C1346 C1344 1.353 . S
C1346 C1349 1.348 . S
C1346 H1394 0.929 . S
C1347 C1348 1.358 . S
C1347 C1349 1.356 1_655 S
C1347 H1395 0.930 . S
C1348 N1345 1.279 1_655 S
C1348 C1347 1.358 . S
C1348 H1351 0.930 . S
C1349 C1346 1.348 . S
C1349 C1347 1.356 1_455 S
H1350 C1344 0.930 . S
H1351 C1348 0.930 . S
C1352 C1354 1.348 1_455 S
C1352 C1355 1.356 . S
C1352 O1382 1.325 . S
N1353 C1356 1.314 . S
N1353 C1357 1.279 . S
C1354 C1352 1.348 1_655 S
C1354 C1356 1.353 1_655 S
C1354 H1396 0.929 . S
C1355 C1352 1.356 . S
C1355 C1357 1.358 . S
C1355 H1397 0.930 . S
C1356 N1353 1.314 . S
C1356 C1354 1.353 1_455 S
C1356 H1398 0.930 1_455 S
C1357 N1353 1.279 . S
C1357 C1355 1.358 . S
C1357 H1399 0.930 . S
C1358 C1359 1.348 . S
C1358 C1360 1.356 1_455 S
C1358 O1383 1.325 . S
C1359 C1358 1.348 . S
C1359 C1361 1.353 . S
C1359 H1400 0.929 . S
C1360 C1358 1.356 1_655 S
C1360 C1362 1.358 . S
C1360 H1401 0.930 . S
C1361 C1359 1.353 . S
C1361 N1363 1.314 . S
C1361 H1402 0.930 . S
C1362 C1360 1.358 . S
C1362 N1363 1.279 1_655 S
C1362 H1403 0.930 . S
N1363 C1361 1.314 . S
N1363 C1362 1.279 1_455 S
C1364 C1366 1.353 . S
C1364 N1367 1.314 . S
C1364 H1370 0.930 . S
C1365 N1367 1.279 . S
C1365 C1368 1.358 . S
C1365 H1371 0.930 . S
C1366 C1364 1.353 . S
C1366 C1369 1.348 . S
C1366 H1404 0.929 . S
N1367 Li1322 1.990 . S
N1367 C1364 1.314 . S
N1367 C1365 1.279 . S
C1368 C1365 1.358 . S
C1368 C1369 1.356 . S
C1368 H1405 0.930 . S
C1369 C1366 1.348 . S
C1369 C1368 1.356 . S
H1370 C1364 0.930 . S
H1371 C1365 0.930 . S
C1372 N1373 1.314 . S
C1372 C1374 1.353 . S
C1372 H1378 0.930 . S
N1373 Li1323 1.990 . S
N1373 C1372 1.314 . S
N1373 C1376 1.279 . S
C1374 C1372 1.353 . S
C1374 C1377 1.348 . S
C1374 H1406 0.929 . S
C1375 C1376 1.358 . S
C1375 C1377 1.356 . S
C1375 H1407 0.930 . S
C1376 N1373 1.279 . S
C1376 C1375 1.358 . S
C1376 H1379 0.930 . S
C1377 C1374 1.348 . S
C1377 C1375 1.356 . S
H1378 C1372 0.930 . S
H1379 C1376 0.930 . S
O1380 Li1320 1.956 . S
O1380 Li1321 1.970 . S
O1380 Li1322 1.961 . S
O1380 C1324 1.325 . S
O1381 Li1320 1.970 1_655 S
O1381 Li1321 1.956 1_655 S
O1381 Li1323 1.961 . S
O1381 C1330 1.325 . S
O1382 Li1320 1.961 . S
O1382 Li1322 1.956 . S
O1382 Li1323 1.970 1_455 S
O1382 C1352 1.325 . S
O1383 Li1321 1.961 . S
O1383 Li1322 1.970 . S
O1383 Li1323 1.956 1_455 S
O1383 C1358 1.325 . S
H1384 C1326 0.929 . S
H1385 C1327 0.930 . S
H1386 C1328 0.930 . S
H1387 C1329 0.930 . S
H1388 C1331 0.930 . S
H1389 C1333 0.929 . S
H1390 C1334 0.930 . S
H1391 C1335 0.930 . S
H1392 C1338 0.930 . S
H1393 C1341 0.929 . S
H1394 C1346 0.929 . S
H1395 C1347 0.930 . S
H1396 C1354 0.929 . S
H1397 C1355 0.930 . S
H1398 C1356 0.930 1_655 S
H1399 C1357 0.930 . S
H1400 C1359 0.929 . S
H1401 C1360 0.930 . S
H1402 C1361 0.930 . S
H1403 C1362 0.930 . S
H1404 C1366 0.929 . S
H1405 C1368 0.930 . S
H1406 C1374 0.929 . S
H1407 C1375 0.930 . S
H1408 C1416 0.950 . S
H1409 C1421 0.950 1_655 S
H1410 C1418 0.950 . S
H1411 C1420 0.950 1_655 S
H1412 C1422 0.950 . S
H1413 C1424 0.950 . S
H1414 C1426 0.950 . S
H1415 C1427 0.950 . S
C1416 H1408 0.950 . S
C1416 C1417 1.386 . S
C1416 C1418 1.391 . S
C1417 C1416 1.386 . S
C1417 C1421 1.393 . S
C1418 H1410 0.950 . S
C1418 C1416 1.391 . S
C1418 C1419 1.400 . S
C1419 C1418 1.400 . S
C1419 C1420 1.398 . S
C1419 C1425 1.491 . S
C1420 H1411 0.950 1_455 S
C1420 C1419 1.398 . S
C1420 C1421 1.391 . S
C1421 H1409 0.950 1_455 S
C1421 C1417 1.393 . S
C1421 C1420 1.391 . S
C1422 H1412 0.950 . S
C1422 C1423 1.386 . S
C1422 C1424 1.391 . S
C1423 C1422 1.386 . S
C1423 C1427 1.393 . S
C1424 H1413 0.950 . S
C1424 C1422 1.391 . S
C1424 C1425 1.400 . S
C1425 C1419 1.491 . S
C1425 C1424 1.400 . S
C1425 C1426 1.398 . S
C1426 H1414 0.950 . S
C1426 C1425 1.398 . S
C1426 C1427 1.391 . S
C1427 H1415 0.950 . S
C1427 C1423 1.393 . S
C1427 C1426 1.391 . S
H1428 C1436 0.950 . S
H1429 C1441 0.950 . S
H1430 C1438 0.950 . S
H1431 C1440 0.950 . S
H1432 C1442 0.950 . S
H1433 C1444 0.950 . S
H1434 C1446 0.950 . S
H1435 C1447 0.950 . S
C1436 H1428 0.950 . S
C1436 C1437 1.386 . S
C1436 C1438 1.391 . S
C1437 C1436 1.386 . S
C1437 C1441 1.393 . S
C1438 H1430 0.950 . S
C1438 C1436 1.391 . S
C1438 C1439 1.400 . S
C1439 C1438 1.400 . S
C1439 C1440 1.398 . S
C1439 C1445 1.491 1_655 S
C1440 H1431 0.950 . S
C1440 C1439 1.398 . S
C1440 C1441 1.391 . S
C1441 H1429 0.950 . S
C1441 C1437 1.393 . S
C1441 C1440 1.391 . S
C1442 H1432 0.950 . S
C1442 C1443 1.386 . S
C1442 C1444 1.391 . S
C1443 C1442 1.386 . S
C1443 C1447 1.393 . S
C1444 H1433 0.950 . S
C1444 C1442 1.391 . S
C1444 C1445 1.400 . S
C1445 C1439 1.491 1_455 S
C1445 C1444 1.400 . S
C1445 C1446 1.398 . S
C1446 H1434 0.950 . S
C1446 C1445 1.398 . S
C1446 C1447 1.391 . S
C1447 H1435 0.950 . S
C1447 C1443 1.393 . S
C1447 C1446 1.391 . S
H1448 C1456 0.950 . S
H1449 C1461 0.950 . S
H1450 C1458 0.950 . S
H1451 C1460 0.950 . S
H1452 C1462 0.950 . S
H1453 C1464 0.950 . S
H1454 C1466 0.950 . S
H1455 C1467 0.950 . S
C1456 H1448 0.950 . S
C1456 C1457 1.386 . S
C1456 C1458 1.391 . S
C1457 C1456 1.386 . S
C1457 C1461 1.393 . S
C1458 H1450 0.950 . S
C1458 C1456 1.391 . S
C1458 C1459 1.400 . S
C1459 C1458 1.400 . S
C1459 C1460 1.398 . S
C1459 C1465 1.491 . S
C1460 H1451 0.950 . S
C1460 C1459 1.398 . S
C1460 C1461 1.391 . S
C1461 H1449 0.950 . S
C1461 C1457 1.393 . S
C1461 C1460 1.391 . S
C1462 H1452 0.950 . S
C1462 C1463 1.386 . S
C1462 C1464 1.391 . S
C1463 C1462 1.386 . S
C1463 C1467 1.393 . S
C1464 H1453 0.950 . S
C1464 C1462 1.391 . S
C1464 C1465 1.400 . S
C1465 C1459 1.491 . S
C1465 C1464 1.400 . S
C1465 C1466 1.398 . S
C1466 H1454 0.950 . S
C1466 C1465 1.398 . S
C1466 C1467 1.391 . S
C1467 H1455 0.950 . S
C1467 C1463 1.393 . S
C1467 C1466 1.391 . S
H1468 C1476 0.950 . S
H1469 C1481 0.950 . S
H1470 C1478 0.950 . S
H1471 C1480 0.950 . S
H1472 C1482 0.950 . S
H1473 C1484 0.950 . S
H1474 C1486 0.950 . S
H1475 C1487 0.950 . S
C1476 H1468 0.950 . S
C1476 C1477 1.386 . S
C1476 C1478 1.391 . S
C1477 C1476 1.386 . S
C1477 C1481 1.393 . S
C1478 H1470 0.950 . S
C1478 C1476 1.391 . S
C1478 C1479 1.400 . S
C1479 C1478 1.400 . S
C1479 C1480 1.398 . S
C1479 C1485 1.491 . S
C1480 H1471 0.950 . S
C1480 C1479 1.398 . S
C1480 C1481 1.391 . S
C1481 H1469 0.950 . S
C1481 C1477 1.393 . S
C1481 C1480 1.391 . S
C1482 H1472 0.950 . S
C1482 C1483 1.386 . S
C1482 C1484 1.391 . S
C1483 C1482 1.386 . S
C1483 C1487 1.393 . S
C1484 H1473 0.950 . S
C1484 C1482 1.391 . S
C1484 C1485 1.400 . S
C1485 C1479 1.491 . S
C1485 C1484 1.400 . S
C1485 C1486 1.398 . S
C1486 H1474 0.950 . S
C1486 C1485 1.398 . S
C1486 C1487 1.391 . S
C1487 H1475 0.950 . S
C1487 C1483 1.393 . S
C1487 C1486 1.391 . S
H1488 C1496 0.950 . S
H1489 C1501 0.950 . S
H1490 C1498 0.950 . S
H1491 C1500 0.950 . S
H1492 C1502 0.950 . S
H1493 C1504 0.950 . S
H1494 C1506 0.950 . S
H1495 C1507 0.950 . S
C1496 H1488 0.950 . S
C1496 C1497 1.386 1_655 S
C1496 C1498 1.391 . S
C1497 C1496 1.386 1_455 S
C1497 C1501 1.393 . S
C1498 H1490 0.950 . S
C1498 C1496 1.391 . S
C1498 C1499 1.400 1_655 S
C1499 C1498 1.400 1_455 S
C1499 C1500 1.398 . S
C1499 C1505 1.491 . S
C1500 H1491 0.950 . S
C1500 C1499 1.398 . S
C1500 C1501 1.391 . S
C1501 H1489 0.950 . S
C1501 C1497 1.393 . S
C1501 C1500 1.391 . S
C1502 H1492 0.950 . S
C1502 C1503 1.386 . S
C1502 C1504 1.391 . S
C1503 C1502 1.386 . S
C1503 C1507 1.393 1_455 S
C1504 H1493 0.950 . S
C1504 C1502 1.391 . S
C1504 C1505 1.400 . S
C1505 C1499 1.491 . S
C1505 C1504 1.400 . S
C1505 C1506 1.398 1_455 S
C1506 H1494 0.950 . S
C1506 C1505 1.398 1_655 S
C1506 C1507 1.391 . S
C1507 H1495 0.950 . S
C1507 C1503 1.393 1_655 S
C1507 C1506 1.391 . S
H1508 C1516 0.950 . S
H1509 C1521 0.950 . S
H1510 C1518 0.950 . S
H1511 C1520 0.950 . S
H1512 C1522 0.950 . S
H1513 C1524 0.950 . S
H1514 C1526 0.950 . S
H1515 C1527 0.950 . S
C1516 H1508 0.950 . S
C1516 C1517 1.386 . S
C1516 C1518 1.391 . S
C1517 C1516 1.386 . S
C1517 C1521 1.393 . S
C1518 H1510 0.950 . S
C1518 C1516 1.391 . S
C1518 C1519 1.400 . S
C1519 C1518 1.400 . S
C1519 C1520 1.398 . S
C1519 C1525 1.491 . S
C1520 H1511 0.950 . S
C1520 C1519 1.398 . S
C1520 C1521 1.391 . S
C1521 H1509 0.950 . S
C1521 C1517 1.393 . S
C1521 C1520 1.391 . S
C1522 H1512 0.950 . S
C1522 C1523 1.386 . S
C1522 C1524 1.391 . S
C1523 C1522 1.386 . S
C1523 C1527 1.393 . S
C1524 H1513 0.950 . S
C1524 C1522 1.391 . S
C1524 C1525 1.400 . S
C1525 C1519 1.491 . S
C1525 C1524 1.400 . S
C1525 C1526 1.398 . S
C1526 H1514 0.950 . S
C1526 C1525 1.398 . S
C1526 C1527 1.391 . S
C1527 H1515 0.950 . S
C1527 C1523 1.393 . S
C1527 C1526 1.391 . S
H1528 C1536 0.950 . S
H1529 C1541 0.950 . S
H1530 C1538 0.950 . S
H1531 C1540 0.950 . S
H1532 C1542 0.950 . S
H1533 C1544 0.950 . S
H1534 C1546 0.950 . S
H1535 C1547 0.950 . S
C1536 H1528 0.950 . S
C1536 C1537 1.386 . S
C1536 C1538 1.391 . S
C1537 C1536 1.386 . S
C1537 C1541 1.393 . S
C1538 H1530 0.950 . S
C1538 C1536 1.391 . S
C1538 C1539 1.400 . S
C1539 C1538 1.400 . S
C1539 C1540 1.398 . S
C1539 C1545 1.491 . S
C1540 H1531 0.950 . S
C1540 C1539 1.398 . S
C1540 C1541 1.391 . S
C1541 H1529 0.950 . S
C1541 C1537 1.393 . S
C1541 C1540 1.391 . S
C1542 H1532 0.950 . S
C1542 C1543 1.386 . S
C1542 C1544 1.391 . S
C1543 C1542 1.386 . S
C1543 C1547 1.393 . S
C1544 H1533 0.950 . S
C1544 C1542 1.391 . S
C1544 C1545 1.400 . S
C1545 C1539 1.491 . S
C1545 C1544 1.400 . S
C1545 C1546 1.398 . S
C1546 H1534 0.950 . S
C1546 C1545 1.398 . S
C1546 C1547 1.391 . S
C1547 H1535 0.950 . S
C1547 C1543 1.393 . S
C1547 C1546 1.391 . S
H1548 C1556 0.950 . S
H1549 C1561 0.950 . S
H1550 C1558 0.950 . S
H1551 C1560 0.950 . S
H1552 C1562 0.950 . S
H1553 C1564 0.950 . S
H1554 C1566 0.950 . S
H1555 C1567 0.950 . S
C1556 H1548 0.950 . S
C1556 C1557 1.386 . S
C1556 C1558 1.391 . S
C1557 C1556 1.386 . S
C1557 C1561 1.393 . S
C1558 H1550 0.950 . S
C1558 C1556 1.391 . S
C1558 C1559 1.400 . S
C1559 C1558 1.400 . S
C1559 C1560 1.398 . S
C1559 C1565 1.491 1_455 S
C1560 H1551 0.950 . S
C1560 C1559 1.398 . S
C1560 C1561 1.391 . S
C1561 H1549 0.950 . S
C1561 C1557 1.393 . S
C1561 C1560 1.391 . S
C1562 H1552 0.950 . S
C1562 C1563 1.386 . S
C1562 C1564 1.391 . S
C1563 C1562 1.386 . S
C1563 C1567 1.393 . S
C1564 H1553 0.950 . S
C1564 C1562 1.391 . S
C1564 C1565 1.400 . S
C1565 C1559 1.491 1_655 S
C1565 C1564 1.400 . S
C1565 C1566 1.398 . S
C1566 H1554 0.950 . S
C1566 C1565 1.398 . S
C1566 C1567 1.391 . S
C1567 H1555 0.950 . S
C1567 C1563 1.393 . S
C1567 C1566 1.391 . S
H1568 C1576 0.950 . S
H1569 C1581 0.950 . S
H1570 C1578 0.950 . S
H1571 C1580 0.950 . S
H1572 C1582 0.950 . S
H1573 C1584 0.950 . S
H1574 C1586 0.950 . S
H1575 C1587 0.950 . S
C1576 H1568 0.950 . S
C1576 C1577 1.386 1_645 S
C1576 C1578 1.391 . S
C1577 C1576 1.386 1_465 S
C1577 C1581 1.393 . S
C1578 H1570 0.950 . S
C1578 C1576 1.391 . S
C1578 C1579 1.400 1_645 S
C1579 C1578 1.400 1_465 S
C1579 C1580 1.398 . S
C1579 C1585 1.491 1_565 S
C1580 H1571 0.950 . S
C1580 C1579 1.398 . S
C1580 C1581 1.391 . S
C1581 H1569 0.950 . S
C1581 C1577 1.393 . S
C1581 C1580 1.391 . S
C1582 H1572 0.950 . S
C1582 C1583 1.386 1_565 S
C1582 C1584 1.391 . S
C1583 C1582 1.386 1_545 S
C1583 C1587 1.393 1_455 S
C1584 H1573 0.950 . S
C1584 C1582 1.391 . S
C1584 C1585 1.400 1_565 S
C1585 C1579 1.491 1_545 S
C1585 C1584 1.400 1_545 S
C1585 C1586 1.398 1_455 S
C1586 H1574 0.950 . S
C1586 C1585 1.398 1_655 S
C1586 C1587 1.391 . S
C1587 H1575 0.950 . S
C1587 C1583 1.393 1_655 S
C1587 C1586 1.391 . S
H1588 C1596 0.950 . S
H1589 C1601 0.950 . S
H1590 C1598 0.950 . S
H1591 C1600 0.950 . S
H1592 C1602 0.950 . S
H1593 C1604 0.950 . S
H1594 C1606 0.950 . S
H1595 C1607 0.950 . S
C1596 H1588 0.950 . S
C1596 C1597 1.386 . S
C1596 C1598 1.391 . S
C1597 C1596 1.386 . S
C1597 C1601 1.393 . S
C1598 H1590 0.950 . S
C1598 C1596 1.391 . S
C1598 C1599 1.400 . S
C1599 C1598 1.400 . S
C1599 C1600 1.398 . S
C1599 C1605 1.491 . S
C1600 H1591 0.950 . S
C1600 C1599 1.398 . S
C1600 C1601 1.391 . S
C1601 H1589 0.950 . S
C1601 C1597 1.393 . S
C1601 C1600 1.391 . S
C1602 H1592 0.950 . S
C1602 C1603 1.386 . S
C1602 C1604 1.391 . S
C1603 C1602 1.386 . S
C1603 C1607 1.393 . S
C1604 H1593 0.950 . S
C1604 C1602 1.391 . S
C1604 C1605 1.400 . S
C1605 C1599 1.491 . S
C1605 C1604 1.400 . S
C1605 C1606 1.398 . S
C1606 H1594 0.950 . S
C1606 C1605 1.398 . S
C1606 C1607 1.391 . S
C1607 H1595 0.950 . S
C1607 C1603 1.393 . S
C1607 C1606 1.391 . S
H1608 C1616 0.950 . S
H1609 C1621 0.950 . S
H1610 C1618 0.950 . S
H1611 C1620 0.950 . S
H1612 C1622 0.950 . S
H1613 C1624 0.950 . S
H1614 C1626 0.950 . S
H1615 C1627 0.950 . S
C1616 H1608 0.950 . S
C1616 C1617 1.386 . S
C1616 C1618 1.391 . S
C1617 C1616 1.386 . S
C1617 C1621 1.393 1_565 S
C1618 H1610 0.950 . S
C1618 C1616 1.391 . S
C1618 C1619 1.400 . S
C1619 C1618 1.400 . S
C1619 C1620 1.398 1_565 S
C1619 C1625 1.491 1_564 S
C1620 H1611 0.950 . S
C1620 C1619 1.398 1_545 S
C1620 C1621 1.391 . S
C1621 H1609 0.950 . S
C1621 C1617 1.393 1_545 S
C1621 C1620 1.391 . S
C1622 H1612 0.950 . S
C1622 C1623 1.386 . S
C1622 C1624 1.391 . S
C1623 C1622 1.386 . S
C1623 C1627 1.393 1_545 S
C1624 H1613 0.950 . S
C1624 C1622 1.391 . S
C1624 C1625 1.400 . S
C1625 C1619 1.491 1_546 S
C1625 C1624 1.400 . S
C1625 C1626 1.398 1_545 S
C1626 H1614 0.950 . S
C1626 C1625 1.398 1_565 S
C1626 C1627 1.391 . S
C1627 H1615 0.950 . S
C1627 C1623 1.393 1_565 S
C1627 C1626 1.391 . S
H1628 C1636 0.950 . S
H1629 C1641 0.950 . S
H1630 C1638 0.950 . S
H1631 C1640 0.950 . S
H1632 C1642 0.950 . S
H1633 C1644 0.950 . S
H1634 C1646 0.950 . S
H1635 C1647 0.950 . S
C1636 H1628 0.950 . S
C1636 C1637 1.386 . S
C1636 C1638 1.391 . S
C1637 C1636 1.386 . S
C1637 C1641 1.393 . S
C1638 H1630 0.950 . S
C1638 C1636 1.391 . S
C1638 C1639 1.400 . S
C1639 C1638 1.400 . S
C1639 C1640 1.398 . S
C1639 C1645 1.491 . S
C1640 H1631 0.950 . S
C1640 C1639 1.398 . S
C1640 C1641 1.391 . S
C1641 H1629 0.950 . S
C1641 C1637 1.393 . S
C1641 C1640 1.391 . S
C1642 H1632 0.950 . S
C1642 C1643 1.386 . S
C1642 C1644 1.391 . S
C1643 C1642 1.386 . S
C1643 C1647 1.393 . S
C1644 H1633 0.950 . S
C1644 C1642 1.391 . S
C1644 C1645 1.400 . S
C1645 C1639 1.491 . S
C1645 C1644 1.400 . S
C1645 C1646 1.398 . S
C1646 H1634 0.950 . S
C1646 C1645 1.398 . S
C1646 C1647 1.391 . S
C1647 H1635 0.950 . S
C1647 C1643 1.393 . S
C1647 C1646 1.391 . S
H1648 C1656 0.950 . S
H1649 C1661 0.950 . S
H1650 C1658 0.950 . S
H1651 C1660 0.950 . S
H1652 C1662 0.950 . S
H1653 C1664 0.950 . S
H1654 C1666 0.950 . S
H1655 C1667 0.950 . S
C1656 H1648 0.950 . S
C1656 C1657 1.386 . S
C1656 C1658 1.391 . S
C1657 C1656 1.386 . S
C1657 C1661 1.393 . S
C1658 H1650 0.950 . S
C1658 C1656 1.391 . S
C1658 C1659 1.400 . S
C1659 C1658 1.400 . S
C1659 C1660 1.398 . S
C1659 C1665 1.491 . S
C1660 H1651 0.950 . S
C1660 C1659 1.398 . S
C1660 C1661 1.391 . S
C1661 H1649 0.950 . S
C1661 C1657 1.393 . S
C1661 C1660 1.391 . S
C1662 H1652 0.950 . S
C1662 C1663 1.386 . S
C1662 C1664 1.391 . S
C1663 C1662 1.386 . S
C1663 C1667 1.393 . S
C1664 H1653 0.950 . S
C1664 C1662 1.391 . S
C1664 C1665 1.400 . S
C1665 C1659 1.491 . S
C1665 C1664 1.400 . S
C1665 C1666 1.398 . S
C1666 H1654 0.950 . S
C1666 C1665 1.398 . S
C1666 C1667 1.391 . S
C1667 H1655 0.950 . S
C1667 C1663 1.393 . S
C1667 C1666 1.391 . S
H1668 C1676 0.950 . S
H1669 C1681 0.950 . S
H1670 C1678 0.950 . S
H1671 C1680 0.950 . S
H1672 C1682 0.950 . S
H1673 C1684 0.950 . S
H1674 C1686 0.950 . S
H1675 C1687 0.950 . S
C1676 H1668 0.950 . S
C1676 C1677 1.386 . S
C1676 C1678 1.391 . S
C1677 C1676 1.386 . S
C1677 C1681 1.393 . S
C1678 H1670 0.950 . S
C1678 C1676 1.391 . S
C1678 C1679 1.400 . S
C1679 C1678 1.400 . S
C1679 C1680 1.398 . S
C1679 C1685 1.491 . S
C1680 H1671 0.950 . S
C1680 C1679 1.398 . S
C1680 C1681 1.391 . S
C1681 H1669 0.950 . S
C1681 C1677 1.393 . S
C1681 C1680 1.391 . S
C1682 H1672 0.950 . S
C1682 C1683 1.386 . S
C1682 C1684 1.391 . S
C1683 C1682 1.386 . S
C1683 C1687 1.393 . S
C1684 H1673 0.950 . S
C1684 C1682 1.391 . S
C1684 C1685 1.400 . S
C1685 C1679 1.491 . S
C1685 C1684 1.400 . S
C1685 C1686 1.398 . S
C1686 H1674 0.950 . S
C1686 C1685 1.398 . S
C1686 C1687 1.391 . S
C1687 H1675 0.950 . S
C1687 C1683 1.393 . S
C1687 C1686 1.391 . S
H1688 C1696 0.950 . S
H1689 C1701 0.950 . S
H1690 C1698 0.950 . S
H1691 C1700 0.950 . S
H1692 C1702 0.950 . S
H1693 C1704 0.950 . S
H1694 C1706 0.950 . S
H1695 C1707 0.950 . S
C1696 H1688 0.950 . S
C1696 C1697 1.386 . S
C1696 C1698 1.391 . S
C1697 C1696 1.386 . S
C1697 C1701 1.393 . S
C1698 H1690 0.950 . S
C1698 C1696 1.391 . S
C1698 C1699 1.400 . S
C1699 C1698 1.400 . S
C1699 C1700 1.398 . S
C1699 C1705 1.491 1_556 S
C1700 H1691 0.950 . S
C1700 C1699 1.398 . S
C1700 C1701 1.391 . S
C1701 H1689 0.950 . S
C1701 C1697 1.393 . S
C1701 C1700 1.391 . S
C1702 H1692 0.950 . S
C1702 C1703 1.386 . S
C1702 C1704 1.391 . S
C1703 C1702 1.386 . S
C1703 C1707 1.393 . S
C1704 H1693 0.950 . S
C1704 C1702 1.391 . S
C1704 C1705 1.400 . S
C1705 C1699 1.491 1_554 S
C1705 C1704 1.400 . S
C1705 C1706 1.398 . S
C1706 H1694 0.950 . S
C1706 C1705 1.398 . S
C1706 C1707 1.391 . S
C1707 H1695 0.950 . S
C1707 C1703 1.393 . S
C1707 C1706 1.391 . S
H1708 C1716 0.950 . S
H1709 C1721 0.950 . S
H1710 C1718 0.950 . S
H1711 C1720 0.950 . S
H1712 C1722 0.950 . S
H1713 C1724 0.950 . S
H1714 C1726 0.950 . S
H1715 C1727 0.950 . S
C1716 H1708 0.950 . S
C1716 C1717 1.386 1_655 S
C1716 C1718 1.391 . S
C1717 C1716 1.386 1_455 S
C1717 C1721 1.393 . S
C1718 H1710 0.950 . S
C1718 C1716 1.391 . S
C1718 C1719 1.400 1_655 S
C1719 C1718 1.400 1_455 S
C1719 C1720 1.398 . S
C1719 C1725 1.491 . S
C1720 H1711 0.950 . S
C1720 C1719 1.398 . S
C1720 C1721 1.391 . S
C1721 H1709 0.950 . S
C1721 C1717 1.393 . S
C1721 C1720 1.391 . S
C1722 H1712 0.950 . S
C1722 C1723 1.386 . S
C1722 C1724 1.391 . S
C1723 C1722 1.386 . S
C1723 C1727 1.393 1_455 S
C1724 H1713 0.950 . S
C1724 C1722 1.391 . S
C1724 C1725 1.400 . S
C1725 C1719 1.491 . S
C1725 C1724 1.400 . S
C1725 C1726 1.398 1_455 S
C1726 H1714 0.950 . S
C1726 C1725 1.398 1_655 S
C1726 C1727 1.391 . S
C1727 H1715 0.950 . S
C1727 C1723 1.393 1_655 S
C1727 C1726 1.391 . S
H1728 C1736 0.950 . S
H1729 C1741 0.950 . S
H1730 C1738 0.950 . S
H1731 C1740 0.950 . S
H1732 C1742 0.950 . S
H1733 C1744 0.950 . S
H1734 C1746 0.950 . S
H1735 C1747 0.950 . S
C1736 H1728 0.950 . S
C1736 C1737 1.386 . S
C1736 C1738 1.391 . S
C1737 C1736 1.386 . S
C1737 C1741 1.393 . S
C1738 H1730 0.950 . S
C1738 C1736 1.391 . S
C1738 C1739 1.400 . S
C1739 C1738 1.400 . S
C1739 C1740 1.398 . S
C1739 C1745 1.491 . S
C1740 H1731 0.950 . S
C1740 C1739 1.398 . S
C1740 C1741 1.391 . S
C1741 H1729 0.950 . S
C1741 C1737 1.393 . S
C1741 C1740 1.391 . S
C1742 H1732 0.950 . S
C1742 C1743 1.386 . S
C1742 C1744 1.391 . S
C1743 C1742 1.386 . S
C1743 C1747 1.393 . S
C1744 H1733 0.950 . S
C1744 C1742 1.391 . S
C1744 C1745 1.400 . S
C1745 C1739 1.491 . S
C1745 C1744 1.400 . S
C1745 C1746 1.398 . S
C1746 H1734 0.950 . S
C1746 C1745 1.398 . S
C1746 C1747 1.391 . S
C1747 H1735 0.950 . S
C1747 C1743 1.393 . S
C1747 C1746 1.391 . S
H1748 C1756 0.950 . S
H1749 C1761 0.950 . S
H1750 C1758 0.950 . S
H1751 C1760 0.950 . S
H1752 C1762 0.950 . S
H1753 C1764 0.950 . S
H1754 C1766 0.950 . S
H1755 C1767 0.950 . S
C1756 H1748 0.950 . S
C1756 C1757 1.386 . S
C1756 C1758 1.391 . S
C1757 C1756 1.386 . S
C1757 C1761 1.393 . S
C1758 H1750 0.950 . S
C1758 C1756 1.391 . S
C1758 C1759 1.400 . S
C1759 C1758 1.400 . S
C1759 C1760 1.398 . S
C1759 C1765 1.491 . S
C1760 H1751 0.950 . S
C1760 C1759 1.398 . S
C1760 C1761 1.391 . S
C1761 H1749 0.950 . S
C1761 C1757 1.393 . S
C1761 C1760 1.391 . S
C1762 H1752 0.950 . S
C1762 C1763 1.386 . S
C1762 C1764 1.391 . S
C1763 C1762 1.386 . S
C1763 C1767 1.393 . S
C1764 H1753 0.950 . S
C1764 C1762 1.391 . S
C1764 C1765 1.400 . S
C1765 C1759 1.491 . S
C1765 C1764 1.400 . S
C1765 C1766 1.398 . S
C1766 H1754 0.950 . S
C1766 C1765 1.398 . S
C1766 C1767 1.391 . S
C1767 H1755 0.950 . S
C1767 C1763 1.393 . S
C1767 C1766 1.391 . S
H1768 C1776 0.950 . S
H1769 C1781 0.950 . S
H1770 C1778 0.950 . S
H1771 C1780 0.950 . S
H1772 C1782 0.950 . S
H1773 C1784 0.950 . S
H1774 C1786 0.950 . S
H1775 C1787 0.950 . S
C1776 H1768 0.950 . S
C1776 C1777 1.386 . S
C1776 C1778 1.391 . S
C1777 C1776 1.386 . S
C1777 C1781 1.393 . S
C1778 H1770 0.950 . S
C1778 C1776 1.391 . S
C1778 C1779 1.400 . S
C1779 C1778 1.400 . S
C1779 C1780 1.398 . S
C1779 C1785 1.491 . S
C1780 H1771 0.950 . S
C1780 C1779 1.398 . S
C1780 C1781 1.391 . S
C1781 H1769 0.950 . S
C1781 C1777 1.393 . S
C1781 C1780 1.391 . S
C1782 H1772 0.950 . S
C1782 C1783 1.386 . S
C1782 C1784 1.391 . S
C1783 C1782 1.386 . S
C1783 C1787 1.393 . S
C1784 H1773 0.950 . S
C1784 C1782 1.391 . S
C1784 C1785 1.400 . S
C1785 C1779 1.491 . S
C1785 C1784 1.400 . S
C1785 C1786 1.398 . S
C1786 H1774 0.950 . S
C1786 C1785 1.398 . S
C1786 C1787 1.391 . S
C1787 H1775 0.950 . S
C1787 C1783 1.393 . S
C1787 C1786 1.391 . S
H1788 C1796 0.950 . S
H1789 C1801 0.950 . S
H1790 C1798 0.950 . S
H1791 C1800 0.950 . S
H1792 C1802 0.950 . S
H1793 C1804 0.950 . S
H1794 C1806 0.950 . S
H1795 C1807 0.950 . S
C1796 H1788 0.950 . S
C1796 C1797 1.386 . S
C1796 C1798 1.391 . S
C1797 C1796 1.386 . S
C1797 C1801 1.393 . S
C1798 H1790 0.950 . S
C1798 C1796 1.391 . S
C1798 C1799 1.400 . S
C1799 C1798 1.400 . S
C1799 C1800 1.398 . S
C1799 C1805 1.491 . S
C1800 H1791 0.950 . S
C1800 C1799 1.398 . S
C1800 C1801 1.391 . S
C1801 H1789 0.950 . S
C1801 C1797 1.393 . S
C1801 C1800 1.391 . S
C1802 H1792 0.950 . S
C1802 C1803 1.386 . S
C1802 C1804 1.391 . S
C1803 C1802 1.386 . S
C1803 C1807 1.393 . S
C1804 H1793 0.950 . S
C1804 C1802 1.391 . S
C1804 C1805 1.400 . S
C1805 C1799 1.491 . S
C1805 C1804 1.400 . S
C1805 C1806 1.398 . S
C1806 H1794 0.950 . S
C1806 C1805 1.398 . S
C1806 C1807 1.391 . S
C1807 H1795 0.950 . S
C1807 C1803 1.393 . S
C1807 C1806 1.391 . S
H1808 C1816 0.950 . S
H1809 C1821 0.950 . S
H1810 C1818 0.950 . S
H1811 C1820 0.950 . S
H1812 C1822 0.950 . S
H1813 C1824 0.950 . S
H1814 C1826 0.950 . S
H1815 C1827 0.950 . S
C1816 H1808 0.950 . S
C1816 C1817 1.386 . S
C1816 C1818 1.391 . S
C1817 C1816 1.386 . S
C1817 C1821 1.393 . S
C1818 H1810 0.950 . S
C1818 C1816 1.391 . S
C1818 C1819 1.400 . S
C1819 C1818 1.400 . S
C1819 C1820 1.398 . S
C1819 C1825 1.491 . S
C1820 H1811 0.950 . S
C1820 C1819 1.398 . S
C1820 C1821 1.391 . S
C1821 H1809 0.950 . S
C1821 C1817 1.393 . S
C1821 C1820 1.391 . S
C1822 H1812 0.950 . S
C1822 C1823 1.386 . S
C1822 C1824 1.391 . S
C1823 C1822 1.386 . S
C1823 C1827 1.393 . S
C1824 H1813 0.950 . S
C1824 C1822 1.391 . S
C1824 C1825 1.400 . S
C1825 C1819 1.491 . S
C1825 C1824 1.400 . S
C1825 C1826 1.398 . S
C1826 H1814 0.950 . S
C1826 C1825 1.398 . S
C1826 C1827 1.391 . S
C1827 H1815 0.950 . S
C1827 C1823 1.393 . S
C1827 C1826 1.391 . S
H1828 C1836 0.950 . S
H1829 C1841 0.950 . S
H1830 C1838 0.950 . S
H1831 C1840 0.950 . S
H1832 C1842 0.950 . S
H1833 C1844 0.950 . S
H1834 C1846 0.950 . S
H1835 C1847 0.950 . S
C1836 H1828 0.950 . S
C1836 C1837 1.386 . S
C1836 C1838 1.391 . S
C1837 C1836 1.386 . S
C1837 C1841 1.393 . S
C1838 H1830 0.950 . S
C1838 C1836 1.391 . S
C1838 C1839 1.400 . S
C1839 C1838 1.400 . S
C1839 C1840 1.398 . S
C1839 C1845 1.491 . S
C1840 H1831 0.950 . S
C1840 C1839 1.398 . S
C1840 C1841 1.391 . S
C1841 H1829 0.950 . S
C1841 C1837 1.393 . S
C1841 C1840 1.391 . S
C1842 H1832 0.950 . S
C1842 C1843 1.386 . S
C1842 C1844 1.391 . S
C1843 C1842 1.386 . S
C1843 C1847 1.393 . S
C1844 H1833 0.950 . S
C1844 C1842 1.391 . S
C1844 C1845 1.400 . S
C1845 C1839 1.491 . S
C1845 C1844 1.400 . S
C1845 C1846 1.398 . S
C1846 H1834 0.950 . S
C1846 C1845 1.398 . S
C1846 C1847 1.391 . S
C1847 H1835 0.950 . S
C1847 C1843 1.393 . S
C1847 C1846 1.391 . S
H1848 C1856 0.950 . S
H1849 C1861 0.950 . S
H1850 C1858 0.950 . S
H1851 C1860 0.950 . S
H1852 C1862 0.950 . S
H1853 C1864 0.950 . S
H1854 C1866 0.950 . S
H1855 C1867 0.950 . S
C1856 H1848 0.950 . S
C1856 C1857 1.386 . S
C1856 C1858 1.391 . S
C1857 C1856 1.386 . S
C1857 C1861 1.393 . S
C1858 H1850 0.950 . S
C1858 C1856 1.391 . S
C1858 C1859 1.400 . S
C1859 C1858 1.400 . S
C1859 C1860 1.398 . S
C1859 C1865 1.491 . S
C1860 H1851 0.950 . S
C1860 C1859 1.398 . S
C1860 C1861 1.391 . S
C1861 H1849 0.950 . S
C1861 C1857 1.393 . S
C1861 C1860 1.391 . S
C1862 H1852 0.950 . S
C1862 C1863 1.386 . S
C1862 C1864 1.391 . S
C1863 C1862 1.386 . S
C1863 C1867 1.393 . S
C1864 H1853 0.950 . S
C1864 C1862 1.391 . S
C1864 C1865 1.400 . S
C1865 C1859 1.491 . S
C1865 C1864 1.400 . S
C1865 C1866 1.398 . S
C1866 H1854 0.950 . S
C1866 C1865 1.398 . S
C1866 C1867 1.391 . S
C1867 H1855 0.950 . S
C1867 C1863 1.393 . S
C1867 C1866 1.391 . S
H1868 C1876 0.950 . S
H1869 C1881 0.950 . S
H1870 C1878 0.950 . S
H1871 C1880 0.950 . S
H1872 C1882 0.950 . S
H1873 C1884 0.950 . S
H1874 C1886 0.950 . S
H1875 C1887 0.950 . S
C1876 H1868 0.950 . S
C1876 C1877 1.386 . S
C1876 C1878 1.391 . S
C1877 C1876 1.386 . S
C1877 C1881 1.393 . S
C1878 H1870 0.950 . S
C1878 C1876 1.391 . S
C1878 C1879 1.400 . S
C1879 C1878 1.400 . S
C1879 C1880 1.398 . S
C1879 C1885 1.491 . S
C1880 H1871 0.950 . S
C1880 C1879 1.398 . S
C1880 C1881 1.391 . S
C1881 H1869 0.950 . S
C1881 C1877 1.393 . S
C1881 C1880 1.391 . S
C1882 H1872 0.950 . S
C1882 C1883 1.386 . S
C1882 C1884 1.391 . S
C1883 C1882 1.386 . S
C1883 C1887 1.393 . S
C1884 H1873 0.950 . S
C1884 C1882 1.391 . S
C1884 C1885 1.400 . S
C1885 C1879 1.491 . S
C1885 C1884 1.400 . S
C1885 C1886 1.398 . S
C1886 H1874 0.950 . S
C1886 C1885 1.398 . S
C1886 C1887 1.391 . S
C1887 H1875 0.950 . S
C1887 C1883 1.393 . S
C1887 C1886 1.391 . S
H1888 C1896 0.950 . S
H1889 C1901 0.950 . S
H1890 C1898 0.950 . S
H1891 C1900 0.950 . S
H1892 C1902 0.950 . S
H1893 C1904 0.950 . S
H1894 C1906 0.950 . S
H1895 C1907 0.950 . S
C1896 H1888 0.950 . S
C1896 C1897 1.386 . S
C1896 C1898 1.391 . S
C1897 C1896 1.386 . S
C1897 C1901 1.393 . S
C1898 H1890 0.950 . S
C1898 C1896 1.391 . S
C1898 C1899 1.400 . S
C1899 C1898 1.400 . S
C1899 C1900 1.398 . S
C1899 C1905 1.491 . S
C1900 H1891 0.950 . S
C1900 C1899 1.398 . S
C1900 C1901 1.391 . S
C1901 H1889 0.950 . S
C1901 C1897 1.393 . S
C1901 C1900 1.391 . S
C1902 H1892 0.950 . S
C1902 C1903 1.386 . S
C1902 C1904 1.391 . S
C1903 C1902 1.386 . S
C1903 C1907 1.393 . S
C1904 H1893 0.950 . S
C1904 C1902 1.391 . S
C1904 C1905 1.400 . S
C1905 C1899 1.491 . S
C1905 C1904 1.400 . S
C1905 C1906 1.398 . S
C1906 H1894 0.950 . S
C1906 C1905 1.398 . S
C1906 C1907 1.391 . S
C1907 H1895 0.950 . S
C1907 C1903 1.393 . S
C1907 C1906 1.391 . S
H1908 C1916 0.950 . S
H1909 C1921 0.950 . S
H1910 C1918 0.950 . S
H1911 C1920 0.950 . S
H1912 C1922 0.950 . S
H1913 C1924 0.950 . S
H1914 C1926 0.950 . S
H1915 C1927 0.950 . S
C1916 H1908 0.950 . S
C1916 C1917 1.386 . S
C1916 C1918 1.391 . S
C1917 C1916 1.386 . S
C1917 C1921 1.393 . S
C1918 H1910 0.950 . S
C1918 C1916 1.391 . S
C1918 C1919 1.400 . S
C1919 C1918 1.400 . S
C1919 C1920 1.398 . S
C1919 C1925 1.491 . S
C1920 H1911 0.950 . S
C1920 C1919 1.398 . S
C1920 C1921 1.391 . S
C1921 H1909 0.950 . S
C1921 C1917 1.393 . S
C1921 C1920 1.391 . S
C1922 H1912 0.950 . S
C1922 C1923 1.386 . S
C1922 C1924 1.391 . S
C1923 C1922 1.386 . S
C1923 C1927 1.393 . S
C1924 H1913 0.950 . S
C1924 C1922 1.391 . S
C1924 C1925 1.400 . S
C1925 C1919 1.491 . S
C1925 C1924 1.400 . S
C1925 C1926 1.398 . S
C1926 H1914 0.950 . S
C1926 C1925 1.398 . S
C1926 C1927 1.391 . S
C1927 H1915 0.950 . S
C1927 C1923 1.393 . S
C1927 C1926 1.391 . S
H1928 C1936 0.950 . S
H1929 C1941 0.950 . S
H1930 C1938 0.950 . S
H1931 C1940 0.950 . S
H1932 C1942 0.950 . S
H1933 C1944 0.950 . S
H1934 C1946 0.950 . S
H1935 C1947 0.950 . S
C1936 H1928 0.950 . S
C1936 C1937 1.386 . S
C1936 C1938 1.391 . S
C1937 C1936 1.386 . S
C1937 C1941 1.393 . S
C1938 H1930 0.950 . S
C1938 C1936 1.391 . S
C1938 C1939 1.400 . S
C1939 C1938 1.400 . S
C1939 C1940 1.398 . S
C1939 C1945 1.491 . S
C1940 H1931 0.950 . S
C1940 C1939 1.398 . S
C1940 C1941 1.391 . S
C1941 H1929 0.950 . S
C1941 C1937 1.393 . S
C1941 C1940 1.391 . S
C1942 H1932 0.950 . S
C1942 C1943 1.386 . S
C1942 C1944 1.391 . S
C1943 C1942 1.386 . S
C1943 C1947 1.393 . S
C1944 H1933 0.950 . S
C1944 C1942 1.391 . S
C1944 C1945 1.400 . S
C1945 C1939 1.491 . S
C1945 C1944 1.400 . S
C1945 C1946 1.398 . S
C1946 H1934 0.950 . S
C1946 C1945 1.398 . S
C1946 C1947 1.391 . S
C1947 H1935 0.950 . S
C1947 C1943 1.393 . S
C1947 C1946 1.391 . S
H1948 C1956 0.950 . S
H1949 C1961 0.950 . S
H1950 C1958 0.950 . S
H1951 C1960 0.950 . S
H1952 C1962 0.950 . S
H1953 C1964 0.950 . S
H1954 C1966 0.950 . S
H1955 C1967 0.950 . S
C1956 H1948 0.950 . S
C1956 C1957 1.386 . S
C1956 C1958 1.391 . S
C1957 C1956 1.386 . S
C1957 C1961 1.393 . S
C1958 H1950 0.950 . S
C1958 C1956 1.391 . S
C1958 C1959 1.400 . S
C1959 C1958 1.400 . S
C1959 C1960 1.398 . S
C1959 C1965 1.491 . S
C1960 H1951 0.950 . S
C1960 C1959 1.398 . S
C1960 C1961 1.391 . S
C1961 H1949 0.950 . S
C1961 C1957 1.393 . S
C1961 C1960 1.391 . S
C1962 H1952 0.950 . S
C1962 C1963 1.386 . S
C1962 C1964 1.391 . S
C1963 C1962 1.386 . S
C1963 C1967 1.393 . S
C1964 H1953 0.950 . S
C1964 C1962 1.391 . S
C1964 C1965 1.400 . S
C1965 C1959 1.491 . S
C1965 C1964 1.400 . S
C1965 C1966 1.398 . S
C1966 H1954 0.950 . S
C1966 C1965 1.398 . S
C1966 C1967 1.391 . S
C1967 H1955 0.950 . S
C1967 C1963 1.393 . S
C1967 C1966 1.391 . S
H1968 C1976 0.950 . S
H1969 C1981 0.950 . S
H1970 C1978 0.950 . S
H1971 C1980 0.950 . S
H1972 C1982 0.950 . S
H1973 C1984 0.950 . S
H1974 C1986 0.950 . S
H1975 C1987 0.950 . S
C1976 H1968 0.950 . S
C1976 C1977 1.386 . S
C1976 C1978 1.391 . S
C1977 C1976 1.386 . S
C1977 C1981 1.393 . S
C1978 H1970 0.950 . S
C1978 C1976 1.391 . S
C1978 C1979 1.400 . S
C1979 C1978 1.400 . S
C1979 C1980 1.398 . S
C1979 C1985 1.491 . S
C1980 H1971 0.950 . S
C1980 C1979 1.398 . S
C1980 C1981 1.391 . S
C1981 H1969 0.950 . S
C1981 C1977 1.393 . S
C1981 C1980 1.391 . S
C1982 H1972 0.950 . S
C1982 C1983 1.386 . S
C1982 C1984 1.391 . S
C1983 C1982 1.386 . S
C1983 C1987 1.393 . S
C1984 H1973 0.950 . S
C1984 C1982 1.391 . S
C1984 C1985 1.400 . S
C1985 C1979 1.491 . S
C1985 C1984 1.400 . S
C1985 C1986 1.398 . S
C1986 H1974 0.950 . S
C1986 C1985 1.398 . S
C1986 C1987 1.391 . S
C1987 H1975 0.950 . S
C1987 C1983 1.393 . S
C1987 C1986 1.391 . S
H1988 C1996 0.950 . S
H1989 C2001 0.950 . S
H1990 C1998 0.950 . S
H1991 C2000 0.950 . S
H1992 C2002 0.950 . S
H1993 C2004 0.950 . S
H1994 C2006 0.950 . S
H1995 C2007 0.950 . S
C1996 H1988 0.950 . S
C1996 C1997 1.386 . S
C1996 C1998 1.391 . S
C1997 C1996 1.386 . S
C1997 C2001 1.393 . S
C1998 H1990 0.950 . S
C1998 C1996 1.391 . S
C1998 C1999 1.400 . S
C1999 C1998 1.400 . S
C1999 C2000 1.398 . S
C1999 C2005 1.491 . S
C2000 H1991 0.950 . S
C2000 C1999 1.398 . S
C2000 C2001 1.391 . S
C2001 H1989 0.950 . S
C2001 C1997 1.393 . S
C2001 C2000 1.391 . S
C2002 H1992 0.950 . S
C2002 C2003 1.386 . S
C2002 C2004 1.391 . S
C2003 C2002 1.386 . S
C2003 C2007 1.393 . S
C2004 H1993 0.950 . S
C2004 C2002 1.391 . S
C2004 C2005 1.400 . S
C2005 C1999 1.491 . S
C2005 C2004 1.400 . S
C2005 C2006 1.398 . S
C2006 H1994 0.950 . S
C2006 C2005 1.398 . S
C2006 C2007 1.391 . S
C2007 H1995 0.950 . S
C2007 C2003 1.393 . S
C2007 C2006 1.391 . S
H2008 C2016 0.950 . S
H2009 C2021 0.950 . S
H2010 C2018 0.950 . S
H2011 C2020 0.950 . S
H2012 C2022 0.950 . S
H2013 C2024 0.950 . S
H2014 C2026 0.950 . S
H2015 C2027 0.950 . S
C2016 H2008 0.950 . S
C2016 C2017 1.386 . S
C2016 C2018 1.391 . S
C2017 C2016 1.386 . S
C2017 C2021 1.393 . S
C2018 H2010 0.950 . S
C2018 C2016 1.391 . S
C2018 C2019 1.400 . S
C2019 C2018 1.400 . S
C2019 C2020 1.398 . S
C2019 C2025 1.491 . S
C2020 H2011 0.950 . S
C2020 C2019 1.398 . S
C2020 C2021 1.391 . S
C2021 H2009 0.950 . S
C2021 C2017 1.393 . S
C2021 C2020 1.391 . S
C2022 H2012 0.950 . S
C2022 C2023 1.386 . S
C2022 C2024 1.391 . S
C2023 C2022 1.386 . S
C2023 C2027 1.393 . S
C2024 H2013 0.950 . S
C2024 C2022 1.391 . S
C2024 C2025 1.400 . S
C2025 C2019 1.491 . S
C2025 C2024 1.400 . S
C2025 C2026 1.398 . S
C2026 H2014 0.950 . S
C2026 C2025 1.398 . S
C2026 C2027 1.391 . S
C2027 H2015 0.950 . S
C2027 C2023 1.393 . S
C2027 C2026 1.391 . S
H2028 C2036 0.950 . S
H2029 C2041 0.950 . S
H2030 C2038 0.950 . S
H2031 C2040 0.950 . S
H2032 C2042 0.950 . S
H2033 C2044 0.950 . S
H2034 C2046 0.950 . S
H2035 C2047 0.950 . S
C2036 H2028 0.950 . S
C2036 C2037 1.386 . S
C2036 C2038 1.391 . S
C2037 C2036 1.386 . S
C2037 C2041 1.393 . S
C2038 H2030 0.950 . S
C2038 C2036 1.391 . S
C2038 C2039 1.400 . S
C2039 C2038 1.400 . S
C2039 C2040 1.398 . S
C2039 C2045 1.491 . S
C2040 H2031 0.950 . S
C2040 C2039 1.398 . S
C2040 C2041 1.391 . S
C2041 H2029 0.950 . S
C2041 C2037 1.393 . S
C2041 C2040 1.391 . S
C2042 H2032 0.950 . S
C2042 C2043 1.386 . S
C2042 C2044 1.391 . S
C2043 C2042 1.386 . S
C2043 C2047 1.393 . S
C2044 H2033 0.950 . S
C2044 C2042 1.391 . S
C2044 C2045 1.400 . S
C2045 C2039 1.491 . S
C2045 C2044 1.400 . S
C2045 C2046 1.398 . S
C2046 H2034 0.950 . S
C2046 C2045 1.398 . S
C2046 C2047 1.391 . S
C2047 H2035 0.950 . S
C2047 C2043 1.393 . S
C2047 C2046 1.391 . S
C1417 C29 0.698 . S
C1423 C1201 0.700 . S
C1437 C997 0.699 . S
C1443 C117 0.717 . S
C1457 C1085 0.694 . S
C1463 C225 0.707 . S
C1477 C900 0.712 . S
C1483 C293 0.702 . S
C1497 C401 0.710 . S
C1503 C1340 0.690 . S
C1517 C489 0.707 . S
C1523 C849 0.707 . S
C1537 C1281 0.708 . S
C1543 C548 0.690 . S
C1557 C673 0.715 . S
C1563 C761 0.700 . S
C1577 C409 1.694 . S
C1583 C20 1.693 . S
C1597 C137 1.697 . S
C1603 C469 1.696 . S
C1617 C233 1.690 . S
C1623 C557 1.692 . S
C1637 C636 1.698 . S
C1643 C313 1.698 . S
C1657 C724 1.695 . S
C1663 C937 1.694 . S
C1677 C812 1.693 . S
C1683 C1017 1.694 . S
C1697 C1289 1.691 . S
C1703 C1076 1.690 . S
C1717 C1193 1.692 . S
C1723 C1349 1.690 . S
C1737 C460 1.264 . S
C1743 C49 1.274 . S
C1757 C145 1.269 . S
C1763 C585 1.277 . S
C1777 C205 1.270 . S
C1783 C645 1.264 . S
C1797 C381 1.270 . S
C1803 C321 1.278 . S
C1817 C372 1.264 . S
C1823 C909 1.265 . S
C1837 C196 1.277 . S
C1843 C753 1.261 . S
C1857 C988 1.275 . S
C1863 C577 1.269 . S
C1877 C841 1.273 . S
C1883 C57 1.273 . S
C1897 C733 1.270 . S
C1903 C1105 1.262 . S
C1917 C929 1.267 . S
C1923 C1377 1.277 . S
C1937 C1164 1.260 . S
C1943 C821 1.272 . S
C1957 C1025 1.271 . S
C1963 C1261 1.277 . S
C1977 C1252 1.277 . S
C1983 C108 1.261 . S
C1997 C1173 1.274 . S
C2003 C497 1.259 . S
C2017 C1369 1.266 . S
C2023 C284 1.276 . S
C2037 C1113 1.278 . S
C2043 C665 1.263 . S
