# Generated by pormake.
# Topology cag, (4)-cn, num edge types: 1
# Building blocks:
#     Node 0, Type 0, BuildingBlock: GALJAG_clean_sbu_0, # of connection points: 4
#     Node 1, Type 0, BuildingBlock: GALJAG_clean_sbu_0, # of connection points: 4
#     Node 2, Type 0, BuildingBlock: GALJAG_clean_sbu_0, # of connection points: 4
#     Node 3, Type 0, BuildingBlock: GALJAG_clean_sbu_0, # of connection points: 4
#     Node 4, Type 0, BuildingBlock: GALJAG_clean_sbu_0, # of connection points: 4
#     Node 5, Type 0, BuildingBlock: GALJAG_clean_sbu_0, # of connection points: 4
#     Node 6, Type 0, BuildingBlock: GALJAG_clean_sbu_0, # of connection points: 4
#     Node 7, Type 0, BuildingBlock: GALJAG_clean_sbu_0, # of connection points: 4
#     Node 8, Type 0, BuildingBlock: GALJAG_clean_sbu_0, # of connection points: 4
#     Node 9, Type 0, BuildingBlock: GALJAG_clean_sbu_0, # of connection points: 4
#     Node 10, Type 0, BuildingBlock: GALJAG_clean_sbu_0, # of connection points: 4
#     Node 11, Type 0, BuildingBlock: GALJAG_clean_sbu_0, # of connection points: 4
#     Node 12, Type 0, BuildingBlock: GALJAG_clean_sbu_0, # of connection points: 4
#     Node 13, Type 0, BuildingBlock: GALJAG_clean_sbu_0, # of connection points: 4
#     Node 14, Type 0, BuildingBlock: GALJAG_clean_sbu_0, # of connection points: 4
#     Node 15, Type 0, BuildingBlock: GALJAG_clean_sbu_0, # of connection points: 4
#     Edge 16, Type (0, 0), BuildingBlock: KIFKEQ_clean_linker_1, # of connection points: 2
#     Edge 17, Type (0, 0), BuildingBlock: KIFKEQ_clean_linker_1, # of connection points: 2
#     Edge 18, Type (0, 0), BuildingBlock: KIFKEQ_clean_linker_1, # of connection points: 2
#     Edge 19, Type (0, 0), BuildingBlock: KIFKEQ_clean_linker_1, # of connection points: 2
#     Edge 20, Type (0, 0), BuildingBlock: KIFKEQ_clean_linker_1, # of connection points: 2
#     Edge 21, Type (0, 0), BuildingBlock: KIFKEQ_clean_linker_1, # of connection points: 2
#     Edge 22, Type (0, 0), BuildingBlock: KIFKEQ_clean_linker_1, # of connection points: 2
#     Edge 23, Type (0, 0), BuildingBlock: KIFKEQ_clean_linker_1, # of connection points: 2
#     Edge 24, Type (0, 0), BuildingBlock: KIFKEQ_clean_linker_1, # of connection points: 2
#     Edge 25, Type (0, 0), BuildingBlock: KIFKEQ_clean_linker_1, # of connection points: 2
#     Edge 26, Type (0, 0), BuildingBlock: KIFKEQ_clean_linker_1, # of connection points: 2
#     Edge 27, Type (0, 0), BuildingBlock: KIFKEQ_clean_linker_1, # of connection points: 2
#     Edge 28, Type (0, 0), BuildingBlock: KIFKEQ_clean_linker_1, # of connection points: 2
#     Edge 29, Type (0, 0), BuildingBlock: KIFKEQ_clean_linker_1, # of connection points: 2
#     Edge 30, Type (0, 0), BuildingBlock: KIFKEQ_clean_linker_1, # of connection points: 2
#     Edge 31, Type (0, 0), BuildingBlock: KIFKEQ_clean_linker_1, # of connection points: 2
#     Edge 32, Type (0, 0), BuildingBlock: KIFKEQ_clean_linker_1, # of connection points: 2
#     Edge 33, Type (0, 0), BuildingBlock: KIFKEQ_clean_linker_1, # of connection points: 2
#     Edge 34, Type (0, 0), BuildingBlock: KIFKEQ_clean_linker_1, # of connection points: 2
#     Edge 35, Type (0, 0), BuildingBlock: KIFKEQ_clean_linker_1, # of connection points: 2
#     Edge 36, Type (0, 0), BuildingBlock: KIFKEQ_clean_linker_1, # of connection points: 2
#     Edge 37, Type (0, 0), BuildingBlock: KIFKEQ_clean_linker_1, # of connection points: 2
#     Edge 38, Type (0, 0), BuildingBlock: KIFKEQ_clean_linker_1, # of connection points: 2
#     Edge 39, Type (0, 0), BuildingBlock: KIFKEQ_clean_linker_1, # of connection points: 2
#     Edge 40, Type (0, 0), BuildingBlock: KIFKEQ_clean_linker_1, # of connection points: 2
#     Edge 41, Type (0, 0), BuildingBlock: KIFKEQ_clean_linker_1, # of connection points: 2
#     Edge 42, Type (0, 0), BuildingBlock: KIFKEQ_clean_linker_1, # of connection points: 2
#     Edge 43, Type (0, 0), BuildingBlock: KIFKEQ_clean_linker_1, # of connection points: 2
#     Edge 44, Type (0, 0), BuildingBlock: KIFKEQ_clean_linker_1, # of connection points: 2
#     Edge 45, Type (0, 0), BuildingBlock: KIFKEQ_clean_linker_1, # of connection points: 2
#     Edge 46, Type (0, 0), BuildingBlock: KIFKEQ_clean_linker_1, # of connection points: 2
#     Edge 47, Type (0, 0), BuildingBlock: KIFKEQ_clean_linker_1, # of connection points: 2
# Relax obj value: 0.084
# Max RMSD: 0.168
# Mean RMSD: 0.142
data_MOF--net-cag--node1-GALJAG_clean_sbu_0--edge1-KIFKEQ_clean_linker_1
_symmetry_space_group_name_H-M    P1
_symmetry_Int_Tables_number       1
_symmetry_cell_setting            triclinic
loop_
_symmetry_equiv_pos_as_xyz
'x, y, z'
_cell_length_a     47.204066
_cell_length_b     50.653548
_cell_length_c     39.277368
_cell_angle_alpha  89.970031
_cell_angle_beta   89.990675
_cell_angle_gamma 90.04193
loop_
_atom_site_label
_atom_site_type_symbol
_atom_site_fract_x
_atom_site_fract_y
_atom_site_fract_z
_atom_type_partial_charge
In0 In 0.3398 0.14179 0.08154 0.0
O1 O 0.29833 0.13906 0.11126 0.0
O2 O 0.33652 0.1424 0.13952 0.0
C3 C 0.3364 0.09144 0.05905 0.0
C4 C 0.31403 0.1822 0.04875 0.0
C5 C 0.39638 0.15115 0.07971 0.0
O6 O 0.34142 0.09702 0.08976 0.0
O7 O 0.33327 0.11117 0.03986 0.0
O8 O 0.38157 0.15474 0.106 0.0
O9 O 0.3826 0.14335 0.05414 0.0
C10 C 0.30987 0.14054 0.14015 0.0
O11 O 0.33117 0.18585 0.07294 0.0
O12 O 0.31043 0.15836 0.04076 0.0
In13 In 0.17211 0.86001 0.58431 0.0
O14 O 0.18166 0.81711 0.57095 0.0
O15 O 0.20389 0.84688 0.54383 0.0
C16 C 0.11567 0.8529 0.59227 0.0
C17 C 0.20359 0.85802 0.64169 0.0
C18 C 0.17099 0.90825 0.55509 0.0
O19 O 0.12968 0.84176 0.56901 0.0
O20 O 0.13018 0.86732 0.6118 0.0
O21 O 0.17697 0.90469 0.58603 0.0
O22 O 0.16557 0.88742 0.53868 0.0
C23 C 0.19999 0.82253 0.54865 0.0
O24 O 0.21084 0.87098 0.61571 0.0
O25 O 0.18022 0.84609 0.63894 0.0
In26 In 0.33282 0.86235 0.92562 0.0
O27 O 0.32521 0.83061 0.96633 0.0
O28 O 0.28985 0.84435 0.93815 0.0
C29 C 0.3887 0.85363 0.91499 0.0
C30 C 0.31376 0.85971 0.861 0.0
C31 C 0.32809 0.90773 0.96164 0.0
O32 O 0.37302 0.83717 0.93008 0.0
O33 O 0.37612 0.87414 0.90493 0.0
O34 O 0.31283 0.90251 0.93623 0.0
O35 O 0.34543 0.88982 0.96944 0.0
C36 C 0.29893 0.82895 0.96082 0.0
O37 O 0.31785 0.88127 0.87632 0.0
O38 O 0.32004 0.83936 0.87798 0.0
In39 In 0.17003 0.13778 0.41907 0.0
O40 O 0.2071 0.12632 0.38522 0.0
O41 O 0.17563 0.15118 0.36375 0.0
C42 C 0.16963 0.0896 0.44857 0.0
C43 C 0.19969 0.17565 0.45203 0.0
C44 C 0.11338 0.14518 0.41462 0.0
O45 O 0.17352 0.093 0.41713 0.0
O46 O 0.16593 0.11056 0.46535 0.0
O47 O 0.12813 0.15487 0.43831 0.0
O48 O 0.12723 0.13206 0.393 0.0
C49 C 0.19868 0.139 0.35954 0.0
O50 O 0.1793 0.18082 0.43239 0.0
O51 O 0.20484 0.15138 0.45552 0.0
In52 In 0.65755 0.86079 0.91375 0.0
O53 O 0.6719 0.8356 0.95902 0.0
O54 O 0.67833 0.82026 0.90935 0.0
C55 C 0.6591 0.90894 0.94357 0.0
C56 C 0.69059 0.86848 0.85858 0.0
C57 C 0.60149 0.84978 0.9094 0.0
O58 O 0.67285 0.88949 0.95489 0.0
O59 O 0.64465 0.9041 0.91734 0.0
O60 O 0.6159 0.85756 0.8843 0.0
O61 O 0.61544 0.84701 0.93652 0.0
C62 C 0.68139 0.81702 0.94095 0.0
O63 O 0.66606 0.85861 0.85669 0.0
O64 O 0.69838 0.87461 0.8883 0.0
In65 In 0.8437 0.13643 0.41203 0.0
O66 O 0.83868 0.13992 0.35437 0.0
O67 O 0.80412 0.12427 0.38244 0.0
C68 C 0.8999 0.14689 0.41183 0.0
C69 C 0.81975 0.1793 0.44144 0.0
C70 C 0.8411 0.0876 0.43987 0.0
O71 O 0.88612 0.14183 0.38511 0.0
O72 O 0.88523 0.14721 0.43871 0.0
O73 O 0.82375 0.10562 0.44722 0.0
O74 O 0.85951 0.09405 0.41815 0.0
C75 C 0.81377 0.13093 0.35376 0.0
O76 O 0.82545 0.15855 0.45779 0.0
O77 O 0.82688 0.17872 0.41053 0.0
In78 In 0.66608 0.13773 0.08127 0.0
O79 O 0.70011 0.15294 0.04506 0.0
O80 O 0.67677 0.18142 0.07301 0.0
C81 C 0.66409 0.08951 0.05184 0.0
C82 C 0.69618 0.13454 0.13961 0.0
C83 C 0.60978 0.14793 0.0828 0.0
O84 O 0.66677 0.11051 0.03485 0.0
O85 O 0.66233 0.09285 0.08357 0.0
O86 O 0.623 0.13829 0.10778 0.0
O87 O 0.62502 0.15288 0.05719 0.0
C88 C 0.69627 0.17701 0.05179 0.0
O89 O 0.67278 0.14652 0.13786 0.0
O90 O 0.70423 0.12419 0.11208 0.0
In91 In 0.84632 0.86545 0.59419 0.0
O92 O 0.83199 0.84042 0.54878 0.0
O93 O 0.8238 0.82563 0.59829 0.0
C94 C 0.84366 0.91268 0.56211 0.0
C95 C 0.81683 0.87348 0.65219 0.0
C96 C 0.90234 0.85441 0.59727 0.0
O97 O 0.82554 0.89473 0.55755 0.0
O98 O 0.86293 0.90693 0.58305 0.0
O99 O 0.88857 0.86304 0.62244 0.0
O100 O 0.88775 0.85087 0.57075 0.0
C101 C 0.82131 0.8223 0.56666 0.0
O102 O 0.83991 0.86091 0.65153 0.0
O103 O 0.80895 0.88241 0.62374 0.0
In104 In 0.83217 0.63859 0.08022 0.0
O105 O 0.81255 0.62141 0.12805 0.0
O106 O 0.81569 0.66323 0.12496 0.0
C107 C 0.82854 0.5904 0.05039 0.0
C108 C 0.79887 0.67289 0.04601 0.0
C109 C 0.88881 0.64739 0.08577 0.0
O110 O 0.82713 0.59386 0.08204 0.0
O111 O 0.83168 0.61131 0.0334 0.0
O112 O 0.87512 0.65162 0.05883 0.0
O113 O 0.87397 0.63902 0.11011 0.0
C114 C 0.80766 0.64339 0.1419 0.0
O115 O 0.82494 0.67685 0.05093 0.0
O116 O 0.78957 0.65142 0.05796 0.0
In117 In 0.67256 0.36398 0.57494 0.0
O118 O 0.71113 0.37457 0.60696 0.0
O119 O 0.67865 0.35206 0.6306 0.0
C120 C 0.67349 0.41254 0.54649 0.0
C121 C 0.70117 0.32513 0.54275 0.0
C122 C 0.61578 0.3566 0.57876 0.0
O123 O 0.67465 0.40878 0.57819 0.0
O124 O 0.67176 0.39174 0.52893 0.0
O125 O 0.6306 0.34716 0.55498 0.0
O126 O 0.62959 0.36946 0.60064 0.0
C127 C 0.7025 0.3631 0.63349 0.0
O128 O 0.68275 0.32055 0.56528 0.0
O129 O 0.70468 0.34924 0.53591 0.0
In130 In 0.84026 0.36225 0.91363 0.0
O131 O 0.81916 0.34372 0.9606 0.0
O132 O 0.82486 0.31965 0.91701 0.0
C133 C 0.89753 0.35832 0.90882 0.0
C134 C 0.81276 0.36395 0.85338 0.0
C135 C 0.83181 0.40877 0.9454 0.0
O136 O 0.88186 0.33843 0.91307 0.0
O137 O 0.88437 0.37983 0.90647 0.0
O138 O 0.82463 0.40471 0.9149 0.0
O139 O 0.84281 0.38913 0.96022 0.0
C140 C 0.81536 0.32149 0.94689 0.0
O141 O 0.80043 0.3665 0.88165 0.0
O142 O 0.83925 0.3608 0.85531 0.0
In143 In 0.67107 0.64593 0.42202 0.0
O144 O 0.67674 0.68067 0.45866 0.0
O145 O 0.71367 0.66108 0.44083 0.0
C146 C 0.61539 0.65876 0.42195 0.0
C147 C 0.69417 0.64806 0.35917 0.0
C148 C 0.67402 0.59621 0.44703 0.0
O149 O 0.62811 0.65046 0.44805 0.0
O150 O 0.63093 0.66138 0.39604 0.0
O151 O 0.68731 0.61524 0.46019 0.0
O152 O 0.65943 0.60224 0.42132 0.0
C153 C 0.70346 0.67944 0.45867 0.0
O154 O 0.68676 0.6267 0.37307 0.0
O155 O 0.68931 0.66847 0.37658 0.0
In156 In 0.1674 0.36666 0.91228 0.0
O157 O 0.20641 0.35085 0.93978 0.0
O158 O 0.17313 0.32382 0.93038 0.0
C159 C 0.16685 0.41414 0.94337 0.0
C160 C 0.19465 0.37042 0.85184 0.0
C161 C 0.11075 0.3583 0.91164 0.0
O162 O 0.17254 0.39295 0.95883 0.0
O163 O 0.16145 0.41143 0.91207 0.0
O164 O 0.12549 0.35812 0.88482 0.0
O165 O 0.12461 0.36219 0.93861 0.0
C166 C 0.19749 0.32755 0.94258 0.0
O167 O 0.17406 0.35492 0.85649 0.0
O168 O 0.20107 0.38424 0.87738 0.0
In169 In 0.347 0.63921 0.41206 0.0
O170 O 0.33864 0.64579 0.3554 0.0
O171 O 0.30819 0.6239 0.38345 0.0
C172 C 0.40294 0.65151 0.41167 0.0
C173 C 0.31918 0.68002 0.44095 0.0
C174 C 0.34726 0.59114 0.44209 0.0
O175 O 0.39073 0.64044 0.38699 0.0
O176 O 0.38691 0.6567 0.43644 0.0
O177 O 0.33609 0.61115 0.4556 0.0
O178 O 0.35828 0.5953 0.41332 0.0
C179 C 0.3154 0.63349 0.3551 0.0
O180 O 0.32328 0.65837 0.45601 0.0
O181 O 0.32957 0.68134 0.41138 0.0
In182 In 0.15875 0.63909 0.09061 0.0
O183 O 0.17597 0.66337 0.04614 0.0
O184 O 0.17551 0.68138 0.09483 0.0
C185 C 0.16263 0.59088 0.06152 0.0
C186 C 0.19073 0.63184 0.14681 0.0
C187 C 0.10224 0.64863 0.09069 0.0
O188 O 0.17475 0.61103 0.04952 0.0
O189 O 0.1488 0.59493 0.08851 0.0
O190 O 0.11655 0.64701 0.11771 0.0
O191 O 0.11648 0.64596 0.06379 0.0
C192 C 0.18188 0.68339 0.06378 0.0
O193 O 0.16493 0.63832 0.14824 0.0
O194 O 0.20024 0.62863 0.11707 0.0
In195 In 0.34568 0.3629 0.58188 0.0
O196 O 0.33909 0.36032 0.63937 0.0
O197 O 0.30407 0.3722 0.60909 0.0
C198 C 0.40219 0.35315 0.58251 0.0
C199 C 0.31943 0.32105 0.55298 0.0
C200 C 0.34535 0.4116 0.55349 0.0
O201 O 0.38819 0.35778 0.60917 0.0
O202 O 0.38763 0.35283 0.55563 0.0
O203 O 0.34011 0.39088 0.53691 0.0
O204 O 0.35062 0.40787 0.5846 0.0
C205 C 0.31342 0.36722 0.63849 0.0
O206 O 0.31821 0.34408 0.54096 0.0
O207 O 0.33442 0.31886 0.57943 0.0
H208 H 0.27858 0.1788 0.9942 0.0
H209 H 0.31344 0.23438 0.06628 0.0
H210 H 0.25077 0.21401 0.96832 0.0
H211 H 0.28501 0.26952 0.04106 0.0
H212 H 0.25168 0.33094 0.96593 0.0
H213 H 0.28052 0.296 0.99067 0.0
H214 H 0.21052 0.24151 0.98034 0.0
H215 H 0.18196 0.2764 0.95465 0.0
C216 C 0.28029 0.19857 0.00451 0.0
C217 C 0.29821 0.20386 0.03223 0.0
C218 C 0.26417 0.21871 0.98986 0.0
C219 C 0.2655 0.24459 0.00271 0.0
C220 C 0.28371 0.2499 0.03025 0.0
C221 C 0.29994 0.22975 0.0448 0.0
C222 C 0.24245 0.3115 0.96897 0.0
C223 C 0.21457 0.30638 0.95833 0.0
C224 C 0.25894 0.29149 0.98334 0.0
C225 C 0.24788 0.26591 0.98752 0.0
C226 C 0.21987 0.26087 0.97702 0.0
C227 C 0.20342 0.28089 0.96252 0.0
H228 H 0.30287 0.7264 0.41129 0.0
H229 H 0.2978 0.68233 0.50525 0.0
H230 H 0.2733 0.761 0.43598 0.0
H231 H 0.26897 0.71712 0.53026 0.0
H232 H 0.19336 0.76919 0.55282 0.0
H233 H 0.2221 0.73517 0.52584 0.0
H234 H 0.27348 0.79551 0.47836 0.0
H235 H 0.24417 0.82953 0.50466 0.0
C236 C 0.29565 0.72424 0.43732 0.0
C237 C 0.30257 0.70165 0.45632 0.0
C238 C 0.2788 0.74409 0.45152 0.0
C239 C 0.2686 0.74178 0.48506 0.0
C240 C 0.27598 0.71932 0.50416 0.0
C241 C 0.2927 0.69946 0.48993 0.0
C242 C 0.21068 0.77517 0.53644 0.0
C243 C 0.21655 0.802 0.53089 0.0
C244 C 0.2273 0.75568 0.52117 0.0
C245 C 0.25027 0.76259 0.50014 0.0
C246 C 0.2558 0.78948 0.49413 0.0
C247 C 0.23908 0.80898 0.50931 0.0
H248 H 0.2446 0.8162 0.9445 0.0
H249 H 0.31151 0.79784 0.01569 0.0
H250 H 0.21473 0.78235 0.97046 0.0
H251 H 0.28143 0.76403 0.04183 0.0
H252 H 0.20727 0.72353 0.09866 0.0
H253 H 0.2347 0.76028 0.07508 0.0
H254 H 0.21752 0.73215 0.97341 0.0
H255 H 0.19033 0.69534 0.9969 0.0
C256 C 0.25283 0.80508 0.96589 0.0
C257 C 0.28041 0.80959 0.97804 0.0
C258 C 0.23577 0.78565 0.98061 0.0
C259 C 0.24581 0.77056 0.00807 0.0
C260 C 0.27311 0.77554 0.02084 0.0
C261 C 0.29034 0.79477 0.00581 0.0
C262 C 0.20917 0.72535 0.07128 0.0
C263 C 0.19669 0.7066 0.04959 0.0
C264 C 0.22499 0.74626 0.05783 0.0
C265 C 0.22824 0.749 0.02246 0.0
C266 C 0.21516 0.73061 0.00078 0.0
C267 C 0.19969 0.70952 0.01422 0.0
H268 H 0.29109 0.32043 0.49271 0.0
H269 H 0.31125 0.27173 0.57964 0.0
H270 H 0.26263 0.28486 0.46895 0.0
H271 H 0.2819 0.2363 0.55647 0.0
H272 H 0.24887 0.16961 0.48778 0.0
H273 H 0.27871 0.20419 0.51197 0.0
H274 H 0.2187 0.2631 0.47829 0.0
H275 H 0.18948 0.22859 0.45314 0.0
C276 C 0.28939 0.30209 0.50677 0.0
C277 C 0.30337 0.29886 0.53804 0.0
C278 C 0.27286 0.28176 0.4933 0.0
C279 C 0.26968 0.25775 0.51093 0.0
C280 C 0.28407 0.2544 0.54202 0.0
C281 C 0.30082 0.27472 0.55538 0.0
C282 C 0.24205 0.18996 0.48568 0.0
C283 C 0.21691 0.19643 0.46846 0.0
C284 C 0.25908 0.20979 0.49968 0.0
C285 C 0.25124 0.2365 0.49694 0.0
C286 C 0.22573 0.24282 0.48029 0.0
C287 C 0.20883 0.22303 0.46609 0.0
H288 H 0.81522 0.71313 0.00444 0.0
H289 H 0.74128 0.67683 0.04932 0.0
H290 H 0.78513 0.74661 0.97784 0.0
H291 H 0.71125 0.71076 0.02325 0.0
H292 H 0.68099 0.79978 0.00686 0.0
H293 H 0.70824 0.76316 0.03117 0.0
H294 H 0.74365 0.74653 0.93219 0.0
H295 H 0.71602 0.78271 0.90769 0.0
C296 C 0.79254 0.71229 0.00852 0.0
C297 C 0.78055 0.6924 0.02886 0.0
C298 C 0.77535 0.73136 0.99323 0.0
C299 C 0.74594 0.7312 0.99857 0.0
C300 C 0.73391 0.71131 0.01888 0.0
C301 C 0.75105 0.69189 0.03361 0.0
C302 C 0.69438 0.78812 0.99028 0.0
C303 C 0.69642 0.79406 0.95542 0.0
C304 C 0.70985 0.76716 0.00414 0.0
C305 C 0.72804 0.75215 0.98351 0.0
C306 C 0.72985 0.75792 0.94861 0.0
C307 C 0.71397 0.77852 0.93463 0.0
H308 H 0.8027 0.18501 0.50741 0.0
H309 H 0.80132 0.22396 0.40958 0.0
H310 H 0.77444 0.22067 0.53162 0.0
H311 H 0.77248 0.25931 0.43352 0.0
H312 H 0.74402 0.33065 0.49663 0.0
H313 H 0.77388 0.29605 0.47266 0.0
H314 H 0.72652 0.23731 0.5287 0.0
H315 H 0.69713 0.272 0.55326 0.0
C316 C 0.79642 0.20124 0.49112 0.0
C317 C 0.80422 0.20171 0.45662 0.0
C318 C 0.78002 0.22157 0.5049 0.0
C319 C 0.771 0.24277 0.48446 0.0
C320 C 0.77929 0.24343 0.45008 0.0
C321 C 0.79574 0.22313 0.43632 0.0
C322 C 0.73994 0.31033 0.50371 0.0
C323 C 0.71825 0.30403 0.52684 0.0
C324 C 0.75699 0.29049 0.48988 0.0
C325 C 0.75269 0.2639 0.49885 0.0
C326 C 0.73073 0.25762 0.52169 0.0
C327 C 0.71372 0.27747 0.53555 0.0
H328 H 0.80011 0.27436 0.91912 0.0
H329 H 0.79427 0.3199 0.01176 0.0
H330 H 0.77128 0.23977 0.94462 0.0
H331 H 0.76606 0.28484 0.03783 0.0
H332 H 0.69031 0.23039 0.05937 0.0
H333 H 0.71975 0.26513 0.03466 0.0
H334 H 0.77211 0.20589 0.98664 0.0
H335 H 0.74218 0.17134 0.01045 0.0
C336 C 0.79296 0.27681 0.94513 0.0
C337 C 0.79948 0.29983 0.96346 0.0
C338 C 0.77651 0.25691 0.95984 0.0
C339 C 0.7663 0.25946 0.99333 0.0
C340 C 0.77319 0.28238 0.01182 0.0
C341 C 0.78956 0.30238 0.99701 0.0
C342 C 0.70807 0.22485 0.04344 0.0
C343 C 0.71386 0.19816 0.03671 0.0
C344 C 0.72509 0.24474 0.02949 0.0
C345 C 0.74836 0.23835 0.00864 0.0
C346 C 0.75414 0.21159 0.00211 0.0
C347 C 0.73705 0.19175 0.0159 0.0
H348 H 0.78719 0.78727 0.59978 0.0
H349 H 0.82006 0.80666 0.5002 0.0
H350 H 0.75918 0.75152 0.5749 0.0
H351 H 0.79224 0.77072 0.47542 0.0
H352 H 0.76033 0.68661 0.45155 0.0
H353 H 0.78995 0.72014 0.47865 0.0
H354 H 0.71712 0.74946 0.53328 0.0
H355 H 0.68735 0.71605 0.50593 0.0
C356 C 0.78861 0.78374 0.57263 0.0
C357 C 0.80578 0.79974 0.55189 0.0
C358 C 0.77247 0.7634 0.55841 0.0
C359 C 0.77353 0.75841 0.52327 0.0
C360 C 0.7912 0.77403 0.50264 0.0
C361 C 0.80702 0.79462 0.51678 0.0
C362 C 0.75067 0.7001 0.46951 0.0
C363 C 0.72152 0.69876 0.47662 0.0
C364 C 0.7676 0.71936 0.48485 0.0
C365 C 0.75579 0.73739 0.50797 0.0
C366 C 0.72678 0.73566 0.51571 0.0
C367 C 0.70975 0.71663 0.49999 0.0
H368 H 0.32673 0.07545 0.99396 0.0
H369 H 0.34118 0.04563 0.09553 0.0
H370 H 0.32342 0.03046 0.97259 0.0
H371 H 0.33729 1.00042 0.07422 0.0
H372 H 0.36208 0.92523 0.01323 0.0
H373 H 0.36314 0.96934 0.03828 0.0
H374 H 0.29255 0.99234 0.97485 0.0
H375 H 0.29193 0.9485 0.94935 0.0
C376 C 0.32905 0.05925 0.01176 0.0
C377 C 0.33423 0.06405 0.04641 0.0
C378 C 0.32695 0.03345 0.99956 0.0
C379 C 0.32993 0.01183 0.02173 0.0
C380 C 0.33513 0.01664 0.05644 0.0
C381 C 0.33725 0.04251 0.06866 0.0
C382 C 0.34664 0.93966 0.0049 0.0
C383 C 0.32705 0.93349 0.97919 0.0
C384 C 0.34716 0.9649 0.01934 0.0
C385 C 0.32808 0.98444 0.00835 0.0
C386 C 0.30788 0.9779 0.98343 0.0
C387 C 0.3074 0.95273 0.96898 0.0
H388 H 0.15346 0.92158 0.4911 0.0
H389 H 0.18728 0.95475 0.58386 0.0
H390 H 0.15224 0.9655 0.46562 0.0
H391 H 0.18698 0.99851 0.55812 0.0
H392 H 0.15631 0.07667 0.51417 0.0
H393 H 0.15574 0.03278 0.53981 0.0
H394 H 0.18304 0.99904 0.4442 0.0
H395 H 0.18266 0.04277 0.41841 0.0
C396 C 0.16079 0.93826 0.50595 0.0
C397 C 0.17044 0.93476 0.53945 0.0
C398 C 0.16025 0.96341 0.49131 0.0
C399 C 0.16954 0.98559 0.50979 0.0
C400 C 0.17924 0.98198 0.54333 0.0
C401 C 0.17959 0.95687 0.55802 0.0
C402 C 0.16214 0.05984 0.49868 0.0
C403 C 0.1695 0.06312 0.46431 0.0
C404 C 0.16197 0.0347 0.51339 0.0
C405 C 0.16936 0.01233 0.49409 0.0
C406 C 0.17678 0.01573 0.45969 0.0
C407 C 0.17676 0.04082 0.44495 0.0
H408 H 0.68786 0.9239 0.00075 0.0
H409 H 0.63213 0.95359 0.9224 0.0
H410 H 0.68931 0.96766 0.0268 0.0
H411 H 0.63321 0.99719 0.94869 0.0
H412 H 0.66692 0.07754 0.98417 0.0
H413 H 0.66608 0.03382 0.95803 0.0
H414 H 0.65825 0.99816 0.05754 0.0
H415 H 0.65954 0.04183 0.08367 0.0
C416 C 0.67586 0.93976 0.98917 0.0
C417 C 0.6599 0.93534 0.95954 0.0
C418 C 0.67657 0.96478 0.00418 0.0
C419 C 0.66138 0.9859 0.98981 0.0
C420 C 0.64543 0.98142 0.96014 0.0
C421 C 0.64468 0.95641 0.9452 0.0
C422 C 0.66502 0.06035 0.00043 0.0
C423 C 0.6633 0.06309 0.03595 0.0
C424 C 0.66439 0.03532 0.98546 0.0
C425 C 0.66209 0.01251 0.00571 0.0
C426 C 0.66039 0.01531 0.04126 0.0
C427 C 0.66096 0.04033 0.05622 0.0
H428 H 0.79948 0.06672 0.47995 0.0
H429 H 0.8817 0.04942 0.43715 0.0
H430 H 0.79962 0.024 0.50907 0.0
H431 H 0.88188 0.00684 0.46644 0.0
H432 H 0.88497 0.9502 0.55916 0.0
H433 H 0.88381 0.99217 0.52851 0.0
H434 H 0.79906 0.97489 0.49366 0.0
H435 H 0.80026 0.93274 0.52415 0.0
C436 C 0.81751 0.05374 0.47667 0.0
C437 C 0.84059 0.06138 0.45632 0.0
C438 C 0.81753 0.02929 0.49321 0.0
C439 C 0.84081 0.01219 0.49008 0.0
C440 C 0.86379 0.01976 0.46954 0.0
C441 C 0.8636 0.04405 0.45264 0.0
C442 C 0.86609 0.95537 0.54498 0.0
C443 C 0.84271 0.93823 0.54402 0.0
C444 C 0.8655 0.97931 0.5273 0.0
C445 C 0.84138 0.98672 0.50867 0.0
C446 C 0.81786 0.96971 0.508 0.0
C447 C 0.81859 0.94558 0.52532 0.0
H448 H 0.85078 0.42381 0.00811 0.0
H449 H 0.80683 0.45285 0.91925 0.0
H450 H 0.849 0.46777 0.03329 0.0
H451 H 0.80431 0.49667 0.94476 0.0
H452 H 0.83555 0.57724 0.98342 0.0
H453 H 0.8351 0.5331 0.95848 0.0
H454 H 0.81723 0.49966 0.05746 0.0
H455 H 0.81848 0.54365 0.08241 0.0
C456 C 0.84043 0.43953 0.99416 0.0
C457 C 0.829 0.43491 0.96171 0.0
C458 C 0.83929 0.46471 0.00863 0.0
C459 C 0.82657 0.48581 0.99102 0.0
C460 C 0.81467 0.481 0.95879 0.0
C461 C 0.81591 0.45584 0.94428 0.0
C462 C 0.83146 0.56044 0.99977 0.0
C463 C 0.82715 0.56387 0.03485 0.0
C464 C 0.83103 0.53515 0.98548 0.0
C465 C 0.82618 0.51279 0.00598 0.0
C466 C 0.82148 0.51637 0.04101 0.0
C467 C 0.82202 0.54161 0.05529 0.0
H468 H 0.67274 0.42576 0.47902 0.0
H469 H 0.67598 0.45959 0.57987 0.0
H470 H 0.67418 0.46999 0.4543 0.0
H471 H 0.67673 0.50374 0.55529 0.0
H472 H 0.70586 0.57791 0.50005 0.0
H473 H 0.70684 0.53321 0.52326 0.0
H474 H 0.64476 0.50881 0.44875 0.0
H475 H 0.64436 0.55329 0.42508 0.0
C476 C 0.67366 0.44265 0.49588 0.0
C477 C 0.67423 0.43923 0.53136 0.0
C478 C 0.67434 0.46799 0.48175 0.0
C479 C 0.67559 0.49043 0.50281 0.0
C480 C 0.67621 0.48691 0.53831 0.0
C481 C 0.67557 0.4616 0.55241 0.0
C482 C 0.69252 0.56295 0.4886 0.0
C483 C 0.67502 0.56909 0.4608 0.0
C484 C 0.69295 0.53738 0.50199 0.0
C485 C 0.67582 0.51742 0.48793 0.0
C486 C 0.6585 0.52359 0.45991 0.0
C487 C 0.65814 0.54913 0.44647 0.0
H488 H 0.1884 0.57852 0.00147 0.0
H489 H 0.13963 0.54444 0.08355 0.0
H490 H 0.18969 0.53572 0.97301 0.0
H491 H 0.14064 0.50167 0.05489 0.0
H492 H 0.17513 0.42402 0.01086 0.0
H493 H 0.1746 0.46669 0.03966 0.0
H494 H 0.15679 0.50533 0.94395 0.0
H495 H 0.15765 0.46264 0.91507 0.0
C496 C 0.17798 0.56187 0.01344 0.0
C497 C 0.16393 0.5648 0.04475 0.0
C498 C 0.17855 0.5374 0.99703 0.0
C499 C 0.1652 0.51533 0.01166 0.0
C500 C 0.15137 0.51824 0.04314 0.0
C501 C 0.15068 0.54275 0.05948 0.0
C502 C 0.17112 0.44163 0.99597 0.0
C503 C 0.16645 0.44001 0.96071 0.0
C504 C 0.17066 0.46605 0.0125 0.0
C505 C 0.16565 0.48938 0.99409 0.0
C506 C 0.16104 0.48773 0.95877 0.0
C507 C 0.16138 0.46329 0.94227 0.0
H508 H 0.32503 0.57794 0.50389 0.0
H509 H 0.36957 0.5452 0.41763 0.0
H510 H 0.32454 0.53458 0.53099 0.0
H511 H 0.36952 0.50192 0.44497 0.0
H512 H 0.33553 0.42367 0.48693 0.0
H513 H 0.33605 0.46713 0.46025 0.0
H514 H 0.35675 0.50265 0.55711 0.0
H515 H 0.35575 0.45913 0.58393 0.0
C516 C 0.33482 0.56149 0.49079 0.0
C517 C 0.34729 0.56493 0.45862 0.0
C518 C 0.33468 0.53669 0.50641 0.0
C519 C 0.34698 0.51479 0.49014 0.0
C520 C 0.35954 0.51831 0.45798 0.0
C521 C 0.35971 0.54312 0.44239 0.0
C522 C 0.34015 0.44076 0.50253 0.0
C523 C 0.34558 0.43801 0.53752 0.0
C524 C 0.34064 0.46565 0.4872 0.0
C525 C 0.34651 0.48835 0.50653 0.0
C526 C 0.35185 0.48558 0.54159 0.0
C527 C 0.35141 0.46066 0.55692 0.0
H528 H 0.57268 0.13631 0.13392 0.0
H529 H 0.57665 0.16797 0.03191 0.0
H530 H 0.5212 0.13961 0.13282 0.0
H531 H 0.52509 0.17186 0.03105 0.0
H532 H 0.43282 0.14124 0.0273 0.0
H533 H 0.48443 0.14291 0.02832 0.0
H534 H 0.48199 0.17014 0.13253 0.0
H535 H 0.43034 0.16784 0.1317 0.0
C536 C 0.56256 0.14429 0.1114 0.0
C537 C 0.57871 0.15178 0.08295 0.0
C538 C 0.53303 0.14633 0.11084 0.0
C539 C 0.51895 0.15596 0.08181 0.0
C540 C 0.53521 0.16402 0.05363 0.0
C541 C 0.56476 0.16194 0.0542 0.0
C542 C 0.44331 0.14779 0.05033 0.0
C543 C 0.42754 0.15429 0.07947 0.0
C544 C 0.47291 0.14889 0.05087 0.0
C545 C 0.48742 0.15657 0.08056 0.0
C546 C 0.47153 0.16375 0.10941 0.0
C547 C 0.44193 0.1626 0.10888 0.0
H548 H 0.93739 0.85666 0.65248 0.0
H549 H 0.93737 0.8438 0.54382 0.0
H550 H 0.98894 0.85335 0.65316 0.0
H551 H 0.98889 0.84148 0.54416 0.0
H552 H 0.0808 0.81944 0.55742 0.0
H553 H 0.02927 0.81668 0.56054 0.0
H554 H 0.02886 0.87863 0.63624 0.0
H555 H 0.08036 0.88059 0.63395 0.0
C556 C 0.94843 0.85306 0.62875 0.0
C557 C 0.93337 0.85055 0.59809 0.0
C558 C 0.978 0.85135 0.62908 0.0
C559 C 0.9932 0.84733 0.59868 0.0
C560 C 0.97796 0.84421 0.56814 0.0
C561 C 0.9484 0.8457 0.56788 0.0
C562 C 0.06966 0.83228 0.57493 0.0
C563 C 0.08459 0.85026 0.59539 0.0
C564 C 0.0401 0.83084 0.57658 0.0
C565 C 0.02478 0.84752 0.59853 0.0
C566 C 0.03988 0.86518 0.61942 0.0
C567 C 0.06944 0.86645 0.61797 0.0
H568 H 0.42158 0.81339 0.93941 0.0
H569 H 0.42561 0.88586 0.88162 0.0
H570 H 0.47312 0.80921 0.93568 0.0
H571 H 0.47695 0.88191 0.87827 0.0
H572 H 0.56674 0.85759 0.8548 0.0
H573 H 0.51508 0.85551 0.85357 0.0
H574 H 0.51441 0.83236 0.95945 0.0
H575 H 0.56607 0.83407 0.96051 0.0
C576 C 0.43345 0.82831 0.92572 0.0
C577 C 0.41959 0.84999 0.91089 0.0
C578 C 0.46296 0.826 0.92374 0.0
C579 C 0.47915 0.84525 0.90673 0.0
C580 C 0.46511 0.86655 0.89118 0.0
C581 C 0.43569 0.86891 0.89328 0.0
C582 C 0.55556 0.85176 0.87768 0.0
C583 C 0.57043 0.84613 0.9078 0.0
C584 C 0.52597 0.85071 0.87704 0.0
C585 C 0.51062 0.84395 0.90647 0.0
C586 C 0.52559 0.83739 0.93625 0.0
C587 C 0.55518 0.83851 0.93691 0.0
H588 H 0.07708 0.12191 0.3698 0.0
H589 H 0.07936 0.17485 0.4559 0.0
H590 H 0.0256 0.1246 0.36888 0.0
H591 H 0.02779 0.17827 0.45438 0.0
H592 H 0.93511 0.15069 0.46678 0.0
H593 H 0.98674 0.15218 0.4667 0.0
H594 H 0.98654 0.15285 0.35664 0.0
H595 H 0.93496 0.15049 0.35684 0.0
C596 C 0.06657 0.13439 0.38828 0.0
C597 C 0.08225 0.1481 0.41298 0.0
C598 C 0.03703 0.13609 0.38764 0.0
C599 C 0.02245 0.15168 0.41155 0.0
C600 C 0.03825 0.16578 0.43589 0.0
C601 C 0.06782 0.16395 0.43664 0.0
C602 C 0.94612 0.15139 0.44259 0.0
C603 C 0.93101 0.15032 0.41183 0.0
C604 C 0.97574 0.15238 0.44252 0.0
C605 C 0.99089 0.15248 0.41165 0.0
C606 C 0.97563 0.15229 0.38089 0.0
C607 C 0.94604 0.15112 0.38098 0.0
H608 H 0.06683 0.64536 0.03616 0.0
H609 H 0.06734 0.6587 0.14472 0.0
H610 H 0.01536 0.64711 0.036 0.0
H611 H 0.01571 0.66151 0.14451 0.0
H612 H 0.92391 0.63128 0.1369 0.0
H613 H 0.97545 0.6338 0.13857 0.0
H614 H 0.97524 0.67456 0.0418 0.0
H615 H 0.92378 0.67102 0.03963 0.0
C616 C 0.05592 0.64908 0.05994 0.0
C617 C 0.07111 0.6518 0.09047 0.0
C618 C 0.02635 0.65026 0.05984 0.0
C619 C 0.01123 0.65444 0.09025 0.0
C620 C 0.02656 0.65782 0.12069 0.0
C621 C 0.05617 0.65641 0.12081 0.0
C622 C 0.93491 0.64092 0.11611 0.0
C623 C 0.91985 0.65079 0.08804 0.0
C624 C 0.96448 0.64252 0.11714 0.0
C625 C 0.97965 0.65428 0.09024 0.0
C626 C 0.96438 0.66489 0.06266 0.0
C627 C 0.93485 0.66303 0.06149 0.0
H628 H 0.57943 0.38015 0.62322 0.0
H629 H 0.58179 0.32642 0.53795 0.0
H630 H 0.52799 0.37712 0.62447 0.0
H631 H 0.53023 0.32262 0.53985 0.0
H632 H 0.43731 0.34903 0.52757 0.0
H633 H 0.48892 0.34805 0.5274 0.0
H634 H 0.4891 0.34892 0.63746 0.0
H635 H 0.43748 0.35078 0.63748 0.0
C636 C 0.56894 0.36743 0.60498 0.0
C637 C 0.58464 0.35359 0.58042 0.0
C638 C 0.53942 0.36553 0.60583 0.0
C639 C 0.52485 0.34959 0.58229 0.0
C640 C 0.54067 0.33539 0.55806 0.0
C641 C 0.57023 0.33743 0.55707 0.0
C642 C 0.44839 0.3488 0.55172 0.0
C643 C 0.43336 0.35012 0.58253 0.0
C644 C 0.47801 0.34809 0.55165 0.0
C645 C 0.49328 0.34854 0.58242 0.0
C646 C 0.47811 0.34904 0.61326 0.0
C647 C 0.44849 0.34991 0.61331 0.0
H648 H 0.07419 0.37182 0.96218 0.0
H649 H 0.07693 0.33927 0.86061 0.0
H650 H 0.02244 0.3706 0.96082 0.0
H651 H 0.02494 0.33748 0.8597 0.0
H652 H 0.93104 0.31506 0.89741 0.0
H653 H 0.98309 0.31335 0.89753 0.0
H654 H 0.9862 0.3967 0.91983 0.0
H655 H 0.93451 0.39862 0.91887 0.0
C656 C 0.06374 0.36411 0.93974 0.0
C657 C 0.07956 0.35572 0.91145 0.0
C658 C 0.03416 0.3635 0.93895 0.0
C659 C 0.01983 0.354 0.91014 0.0
C660 C 0.03558 0.34479 0.88224 0.0
C661 C 0.06523 0.3459 0.88274 0.0
C662 C 0.94291 0.33299 0.90216 0.0
C663 C 0.92879 0.35697 0.90811 0.0
C664 C 0.97259 0.33202 0.90212 0.0
C665 C 0.98851 0.35488 0.90884 0.0
C666 C 0.97436 0.37879 0.9148 0.0
C667 C 0.94481 0.37988 0.9141 0.0
H668 H 0.57772 0.65143 0.4737 0.0
H669 H 0.58297 0.67462 0.36806 0.0
H670 H 0.52622 0.65293 0.47067 0.0
H671 H 0.53133 0.67673 0.36517 0.0
H672 H 0.44169 0.63963 0.36253 0.0
H673 H 0.49294 0.64503 0.36514 0.0
H674 H 0.4851 0.68095 0.46447 0.0
H675 H 0.4338 0.67497 0.46212 0.0
C676 C 0.56786 0.65729 0.44998 0.0
C677 C 0.58438 0.66276 0.42107 0.0
C678 C 0.53831 0.65829 0.44827 0.0
C679 C 0.5246 0.66481 0.41761 0.0
C680 C 0.54121 0.67124 0.38903 0.0
C681 C 0.57078 0.67021 0.39074 0.0
C682 C 0.45089 0.64888 0.3848 0.0
C683 C 0.43375 0.65674 0.4122 0.0
C684 C 0.48027 0.65215 0.38621 0.0
C685 C 0.49318 0.66338 0.41506 0.0
C686 C 0.47589 0.6719 0.44208 0.0
C687 C 0.44649 0.6686 0.44067 0.0
H688 H 0.2525 0.13693 0.14756 0.0
H689 H 0.33017 0.14391 0.205 0.0
H690 H 0.22539 0.13663 0.20049 0.0
H691 H 0.30308 0.14411 0.25788 0.0
H692 H 0.24825 0.11385 0.34546 0.0
H693 H 0.2748 0.11415 0.29229 0.0
H694 H 0.21215 0.16573 0.24751 0.0
H695 H 0.18525 0.165 0.30068 0.0
C696 C 0.26376 0.13847 0.1715 0.0
C697 C 0.29345 0.14037 0.17217 0.0
C698 C 0.24823 0.13847 0.20181 0.0
C699 C 0.26207 0.14034 0.23341 0.0
C700 C 0.29179 0.14229 0.23399 0.0
C701 C 0.30731 0.1423 0.2037 0.0
C702 C 0.24013 0.12525 0.32427 0.0
C703 C 0.21467 0.13941 0.32722 0.0
C704 C 0.25544 0.12555 0.29385 0.0
C705 C 0.24564 0.14003 0.26568 0.0
C706 C 0.22011 0.15415 0.26863 0.0
C707 C 0.20478 0.15385 0.29911 0.0
H708 H 0.29572 0.81593 0.82663 0.0
H709 H 0.30162 0.90083 0.8188 0.0
H710 H 0.27036 0.8145 0.77237 0.0
H711 H 0.27615 0.89942 0.76484 0.0
H712 H 0.25263 0.88469 0.65397 0.0
H713 H 0.28139 0.88393 0.70554 0.0
H714 H 0.22293 0.8287 0.75133 0.0
H715 H 0.19423 0.82928 0.69953 0.0
C716 C 0.29183 0.83424 0.81317 0.0
C717 C 0.30062 0.85849 0.82693 0.0
C718 C 0.27714 0.83344 0.78226 0.0
C719 C 0.27117 0.85685 0.76443 0.0
C720 C 0.28066 0.88102 0.77781 0.0
C721 C 0.29516 0.88183 0.80878 0.0
C722 C 0.24596 0.87233 0.67501 0.0
C723 C 0.22113 0.85712 0.6728 0.0
C724 C 0.26238 0.87197 0.70457 0.0
C725 C 0.2544 0.85629 0.73249 0.0
C726 C 0.22977 0.84076 0.73008 0.0
C727 C 0.21325 0.84123 0.70054 0.0
H728 H 0.74574 0.88472 0.85735 0.0
H729 H 0.67728 0.85945 0.79204 0.0
H730 H 0.77687 0.88843 0.80785 0.0
H731 H 0.70842 0.86298 0.74265 0.0
H732 H 0.76431 0.89539 0.65801 0.0
H733 H 0.73397 0.89644 0.70834 0.0
H734 H 0.79944 0.85772 0.76671 0.0
H735 H 0.82988 0.85686 0.71644 0.0
C736 C 0.73732 0.88007 0.8324 0.0
C737 C 0.7091 0.87175 0.82854 0.0
C738 C 0.75517 0.88207 0.80411 0.0
C739 C 0.7451 0.87599 0.77137 0.0
C740 C 0.71671 0.8681 0.76749 0.0
C741 C 0.69893 0.86594 0.7958 0.0
C742 C 0.77232 0.88733 0.68167 0.0
C743 C 0.79942 0.87597 0.68328 0.0
C744 C 0.75488 0.88779 0.71042 0.0
C745 C 0.76426 0.87704 0.74142 0.0
C746 C 0.79171 0.86637 0.74326 0.0
C747 C 0.80909 0.86577 0.71445 0.0
H748 H 0.83093 0.14209 0.28902 0.0
H749 H 0.75814 0.11706 0.34742 0.0
H750 H 0.8022 0.14216 0.23735 0.0
H751 H 0.72945 0.11694 0.29565 0.0
H752 H 0.6818 0.15217 0.20304 0.0
H753 H 0.7103 0.15008 0.25493 0.0
H754 H 0.77711 0.11097 0.19928 0.0
H755 H 0.74875 0.11323 0.14743 0.0
C756 C 0.80885 0.13641 0.29076 0.0
C757 C 0.79677 0.12958 0.32224 0.0
C758 C 0.79243 0.13635 0.26116 0.0
C759 C 0.76355 0.12961 0.26246 0.0
C760 C 0.75156 0.12252 0.29392 0.0
C761 C 0.76803 0.12242 0.3235 0.0
C762 C 0.70255 0.14309 0.20195 0.0
C763 C 0.71307 0.13291 0.1712 0.0
C764 C 0.71879 0.14175 0.23167 0.0
C765 C 0.74596 0.13037 0.23116 0.0
C766 C 0.75639 0.12011 0.20039 0.0
C767 C 0.74009 0.12129 0.17075 0.0
H768 H 0.72494 0.68869 0.33245 0.0
H769 H 0.69729 0.60904 0.3118 0.0
H770 H 0.75322 0.68839 0.28048 0.0
H771 H 0.72432 0.60906 0.25904 0.0
H772 H 0.79888 0.60447 0.18824 0.0
H773 H 0.77136 0.60666 0.24046 0.0
H774 H 0.75276 0.68881 0.22038 0.0
H775 H 0.7816 0.68678 0.16882 0.0
C776 C 0.72455 0.67128 0.31644 0.0
C777 C 0.70908 0.64883 0.32618 0.0
C778 C 0.74068 0.67112 0.28657 0.0
C779 C 0.74135 0.6486 0.2656 0.0
C780 C 0.72497 0.62651 0.27493 0.0
C781 C 0.70923 0.62655 0.30501 0.0
C782 C 0.78908 0.62304 0.19516 0.0
C783 C 0.79233 0.64545 0.17451 0.0
C784 C 0.77304 0.62426 0.22495 0.0
C785 C 0.75943 0.64782 0.23453 0.0
C786 C 0.76313 0.6704 0.21405 0.0
C787 C 0.77958 0.66925 0.18444 0.0
H788 H 0.68813 0.34013 0.69395 0.0
H789 H 0.75419 0.38541 0.64503 0.0
H790 H 0.71535 0.33998 0.74677 0.0
H791 H 0.78118 0.3857 0.69799 0.0
H792 H 0.83397 0.35705 0.78919 0.0
H793 H 0.80754 0.35623 0.73569 0.0
H794 H 0.72991 0.3709 0.79081 0.0
H795 H 0.75618 0.37121 0.84416 0.0
C796 C 0.70844 0.35009 0.69452 0.0
C797 C 0.71902 0.36281 0.66541 0.0
C798 C 0.72396 0.35014 0.72481 0.0
C799 C 0.7504 0.3629 0.72661 0.0
C800 C 0.76105 0.37544 0.69735 0.0
C801 C 0.74551 0.37541 0.66708 0.0
C802 C 0.81127 0.36013 0.7898 0.0
C803 C 0.79713 0.36416 0.82082 0.0
C804 C 0.79615 0.35977 0.75918 0.0
C805 C 0.7666 0.36341 0.75901 0.0
C806 C 0.75257 0.36761 0.7901 0.0
C807 C 0.76766 0.36797 0.82065 0.0
H808 H 0.3303 0.3625 0.70461 0.0
H809 H 0.25632 0.37543 0.64208 0.0
H810 H 0.3008 0.36427 0.75563 0.0
H811 H 0.22679 0.37721 0.69321 0.0
H812 H 0.1825 0.34585 0.7916 0.0
H813 H 0.21085 0.34601 0.73944 0.0
H814 H 0.27186 0.39744 0.78756 0.0
H815 H 0.24361 0.39728 0.8396 0.0
C816 C 0.30775 0.36581 0.70178 0.0
C817 C 0.29561 0.36885 0.66937 0.0
C818 C 0.29089 0.36694 0.73099 0.0
C819 C 0.26149 0.37091 0.7284 0.0
C820 C 0.24935 0.37392 0.69597 0.0
C821 C 0.26626 0.37304 0.66674 0.0
C822 C 0.20188 0.35731 0.79092 0.0
C823 C 0.21087 0.37151 0.81968 0.0
C824 C 0.21803 0.35749 0.76105 0.0
C825 C 0.24363 0.37166 0.75949 0.0
C826 C 0.2524 0.38611 0.78814 0.0
C827 C 0.23613 0.38613 0.81786 0.0
H828 H 0.32691 0.65213 0.2914 0.0
H829 H 0.26366 0.60981 0.34927 0.0
H830 H 0.2967 0.65 0.24109 0.0
H831 H 0.23359 0.60732 0.29879 0.0
H832 H 0.17516 0.63853 0.21319 0.0
H833 H 0.2056 0.63741 0.26339 0.0
H834 H 0.27746 0.61861 0.19974 0.0
H835 H 0.24709 0.62014 0.1495 0.0
C836 C 0.30664 0.6422 0.29329 0.0
C837 C 0.29762 0.6312 0.32428 0.0
C838 C 0.2894 0.64084 0.26442 0.0
C839 C 0.26273 0.6285 0.26594 0.0
C840 C 0.25387 0.61723 0.29689 0.0
C841 C 0.27115 0.61853 0.32574 0.0
C842 C 0.19742 0.63399 0.20997 0.0
C843 C 0.20876 0.6295 0.17742 0.0
C844 C 0.21484 0.63322 0.23873 0.0
C845 C 0.24398 0.628 0.23555 0.0
C846 C 0.25518 0.62304 0.203 0.0
C847 C 0.23775 0.62375 0.17425 0.0
loop_
_geom_bond_atom_site_label_1
_geom_bond_atom_site_label_2
_geom_bond_distance
_geom_bond_site_symmetry_2
_ccdc_geom_bond_type
In0 O1 2.294 . S
In0 O2 2.326 . S
In0 O6 2.266 . S
In0 O7 2.326 . S
In0 O8 2.266 . S
In0 O9 2.326 . S
In0 O11 2.294 . S
In0 O12 2.326 . S
O1 In0 2.294 . S
O1 C10 1.240 . S
O2 In0 2.326 . S
O2 C10 1.252 . S
C3 O6 1.252 . S
C3 O7 1.260 . S
C4 O11 1.240 . S
C4 O12 1.252 . S
C5 O8 1.252 . S
C5 O9 1.260 . S
O6 In0 2.266 . S
O6 C3 1.252 . S
O7 In0 2.326 . S
O7 C3 1.260 . S
O8 In0 2.266 . S
O8 C5 1.252 . S
O9 In0 2.326 . S
O9 C5 1.260 . S
C10 O1 1.240 . S
C10 O2 1.252 . S
O11 In0 2.294 . S
O11 C4 1.240 . S
O12 In0 2.326 . S
O12 C4 1.252 . S
In13 O14 2.294 . S
In13 O15 2.326 . S
In13 O19 2.266 . S
In13 O20 2.326 . S
In13 O21 2.266 . S
In13 O22 2.326 . S
In13 O24 2.294 . S
In13 O25 2.326 . S
O14 In13 2.294 . S
O14 C23 1.240 . S
O15 In13 2.326 . S
O15 C23 1.252 . S
C16 O19 1.252 . S
C16 O20 1.260 . S
C17 O24 1.240 . S
C17 O25 1.252 . S
C18 O21 1.252 . S
C18 O22 1.260 . S
O19 In13 2.266 . S
O19 C16 1.252 . S
O20 In13 2.326 . S
O20 C16 1.260 . S
O21 In13 2.266 . S
O21 C18 1.252 . S
O22 In13 2.326 . S
O22 C18 1.260 . S
C23 O14 1.240 . S
C23 O15 1.252 . S
O24 In13 2.294 . S
O24 C17 1.240 . S
O25 In13 2.326 . S
O25 C17 1.252 . S
In26 O27 2.294 . S
In26 O28 2.326 . S
In26 O32 2.266 . S
In26 O33 2.326 . S
In26 O34 2.266 . S
In26 O35 2.326 . S
In26 O37 2.294 . S
In26 O38 2.326 . S
O27 In26 2.294 . S
O27 C36 1.240 . S
O28 In26 2.326 . S
O28 C36 1.252 . S
C29 O32 1.252 . S
C29 O33 1.260 . S
C30 O37 1.240 . S
C30 O38 1.252 . S
C31 O34 1.252 . S
C31 O35 1.260 . S
O32 In26 2.266 . S
O32 C29 1.252 . S
O33 In26 2.326 . S
O33 C29 1.260 . S
O34 In26 2.266 . S
O34 C31 1.252 . S
O35 In26 2.326 . S
O35 C31 1.260 . S
C36 O27 1.240 . S
C36 O28 1.252 . S
O37 In26 2.294 . S
O37 C30 1.240 . S
O38 In26 2.326 . S
O38 C30 1.252 . S
In39 O40 2.294 . S
In39 O41 2.326 . S
In39 O45 2.266 . S
In39 O46 2.326 . S
In39 O47 2.266 . S
In39 O48 2.326 . S
In39 O50 2.294 . S
In39 O51 2.326 . S
O40 In39 2.294 . S
O40 C49 1.240 . S
O41 In39 2.326 . S
O41 C49 1.252 . S
C42 O45 1.252 . S
C42 O46 1.260 . S
C43 O50 1.240 . S
C43 O51 1.252 . S
C44 O47 1.252 . S
C44 O48 1.260 . S
O45 In39 2.266 . S
O45 C42 1.252 . S
O46 In39 2.326 . S
O46 C42 1.260 . S
O47 In39 2.266 . S
O47 C44 1.252 . S
O48 In39 2.326 . S
O48 C44 1.260 . S
C49 O40 1.240 . S
C49 O41 1.252 . S
O50 In39 2.294 . S
O50 C43 1.240 . S
O51 In39 2.326 . S
O51 C43 1.252 . S
In52 O53 2.294 . S
In52 O54 2.326 . S
In52 O58 2.266 . S
In52 O59 2.326 . S
In52 O60 2.266 . S
In52 O61 2.326 . S
In52 O63 2.294 . S
In52 O64 2.326 . S
O53 In52 2.294 . S
O53 C62 1.240 . S
O54 In52 2.326 . S
O54 C62 1.252 . S
C55 O58 1.252 . S
C55 O59 1.260 . S
C56 O63 1.240 . S
C56 O64 1.252 . S
C57 O60 1.252 . S
C57 O61 1.260 . S
O58 In52 2.266 . S
O58 C55 1.252 . S
O59 In52 2.326 . S
O59 C55 1.260 . S
O60 In52 2.266 . S
O60 C57 1.252 . S
O61 In52 2.326 . S
O61 C57 1.260 . S
C62 O53 1.240 . S
C62 O54 1.252 . S
O63 In52 2.294 . S
O63 C56 1.240 . S
O64 In52 2.326 . S
O64 C56 1.252 . S
In65 O66 2.294 . S
In65 O67 2.326 . S
In65 O71 2.266 . S
In65 O72 2.326 . S
In65 O73 2.266 . S
In65 O74 2.326 . S
In65 O76 2.294 . S
In65 O77 2.326 . S
O66 In65 2.294 . S
O66 C75 1.240 . S
O67 In65 2.326 . S
O67 C75 1.252 . S
C68 O71 1.252 . S
C68 O72 1.260 . S
C69 O76 1.240 . S
C69 O77 1.252 . S
C70 O73 1.252 . S
C70 O74 1.260 . S
O71 In65 2.266 . S
O71 C68 1.252 . S
O72 In65 2.326 . S
O72 C68 1.260 . S
O73 In65 2.266 . S
O73 C70 1.252 . S
O74 In65 2.326 . S
O74 C70 1.260 . S
C75 O66 1.240 . S
C75 O67 1.252 . S
O76 In65 2.294 . S
O76 C69 1.240 . S
O77 In65 2.326 . S
O77 C69 1.252 . S
In78 O79 2.294 . S
In78 O80 2.326 . S
In78 O84 2.266 . S
In78 O85 2.326 . S
In78 O86 2.266 . S
In78 O87 2.326 . S
In78 O89 2.294 . S
In78 O90 2.326 . S
O79 In78 2.294 . S
O79 C88 1.240 . S
O80 In78 2.326 . S
O80 C88 1.252 . S
C81 O84 1.252 . S
C81 O85 1.260 . S
C82 O89 1.240 . S
C82 O90 1.252 . S
C83 O86 1.252 . S
C83 O87 1.260 . S
O84 In78 2.266 . S
O84 C81 1.252 . S
O85 In78 2.326 . S
O85 C81 1.260 . S
O86 In78 2.266 . S
O86 C83 1.252 . S
O87 In78 2.326 . S
O87 C83 1.260 . S
C88 O79 1.240 . S
C88 O80 1.252 . S
O89 In78 2.294 . S
O89 C82 1.240 . S
O90 In78 2.326 . S
O90 C82 1.252 . S
In91 O92 2.294 . S
In91 O93 2.326 . S
In91 O97 2.266 . S
In91 O98 2.326 . S
In91 O99 2.266 . S
In91 O100 2.326 . S
In91 O102 2.294 . S
In91 O103 2.326 . S
O92 In91 2.294 . S
O92 C101 1.240 . S
O93 In91 2.326 . S
O93 C101 1.252 . S
C94 O97 1.252 . S
C94 O98 1.260 . S
C95 O102 1.240 . S
C95 O103 1.252 . S
C96 O99 1.252 . S
C96 O100 1.260 . S
O97 In91 2.266 . S
O97 C94 1.252 . S
O98 In91 2.326 . S
O98 C94 1.260 . S
O99 In91 2.266 . S
O99 C96 1.252 . S
O100 In91 2.326 . S
O100 C96 1.260 . S
C101 O92 1.240 . S
C101 O93 1.252 . S
O102 In91 2.294 . S
O102 C95 1.240 . S
O103 In91 2.326 . S
O103 C95 1.252 . S
In104 O105 2.294 . S
In104 O106 2.326 . S
In104 O110 2.266 . S
In104 O111 2.326 . S
In104 O112 2.266 . S
In104 O113 2.326 . S
In104 O115 2.294 . S
In104 O116 2.326 . S
O105 In104 2.294 . S
O105 C114 1.240 . S
O106 In104 2.326 . S
O106 C114 1.252 . S
C107 O110 1.252 . S
C107 O111 1.260 . S
C108 O115 1.240 . S
C108 O116 1.252 . S
C109 O112 1.252 . S
C109 O113 1.260 . S
O110 In104 2.266 . S
O110 C107 1.252 . S
O111 In104 2.326 . S
O111 C107 1.260 . S
O112 In104 2.266 . S
O112 C109 1.252 . S
O113 In104 2.326 . S
O113 C109 1.260 . S
C114 O105 1.240 . S
C114 O106 1.252 . S
O115 In104 2.294 . S
O115 C108 1.240 . S
O116 In104 2.326 . S
O116 C108 1.252 . S
In117 O118 2.294 . S
In117 O119 2.326 . S
In117 O123 2.266 . S
In117 O124 2.326 . S
In117 O125 2.266 . S
In117 O126 2.326 . S
In117 O128 2.294 . S
In117 O129 2.326 . S
O118 In117 2.294 . S
O118 C127 1.240 . S
O119 In117 2.326 . S
O119 C127 1.252 . S
C120 O123 1.252 . S
C120 O124 1.260 . S
C121 O128 1.240 . S
C121 O129 1.252 . S
C122 O125 1.252 . S
C122 O126 1.260 . S
O123 In117 2.266 . S
O123 C120 1.252 . S
O124 In117 2.326 . S
O124 C120 1.260 . S
O125 In117 2.266 . S
O125 C122 1.252 . S
O126 In117 2.326 . S
O126 C122 1.260 . S
C127 O118 1.240 . S
C127 O119 1.252 . S
O128 In117 2.294 . S
O128 C121 1.240 . S
O129 In117 2.326 . S
O129 C121 1.252 . S
In130 O131 2.294 . S
In130 O132 2.326 . S
In130 O136 2.266 . S
In130 O137 2.326 . S
In130 O138 2.266 . S
In130 O139 2.326 . S
In130 O141 2.294 . S
In130 O142 2.326 . S
O131 In130 2.294 . S
O131 C140 1.240 . S
O132 In130 2.326 . S
O132 C140 1.252 . S
C133 O136 1.252 . S
C133 O137 1.260 . S
C134 O141 1.240 . S
C134 O142 1.252 . S
C135 O138 1.252 . S
C135 O139 1.260 . S
O136 In130 2.266 . S
O136 C133 1.252 . S
O137 In130 2.326 . S
O137 C133 1.260 . S
O138 In130 2.266 . S
O138 C135 1.252 . S
O139 In130 2.326 . S
O139 C135 1.260 . S
C140 O131 1.240 . S
C140 O132 1.252 . S
O141 In130 2.294 . S
O141 C134 1.240 . S
O142 In130 2.326 . S
O142 C134 1.252 . S
In143 O144 2.294 . S
In143 O145 2.326 . S
In143 O149 2.266 . S
In143 O150 2.326 . S
In143 O151 2.266 . S
In143 O152 2.326 . S
In143 O154 2.294 . S
In143 O155 2.326 . S
O144 In143 2.294 . S
O144 C153 1.240 . S
O145 In143 2.326 . S
O145 C153 1.252 . S
C146 O149 1.252 . S
C146 O150 1.260 . S
C147 O154 1.240 . S
C147 O155 1.252 . S
C148 O151 1.252 . S
C148 O152 1.260 . S
O149 In143 2.266 . S
O149 C146 1.252 . S
O150 In143 2.326 . S
O150 C146 1.260 . S
O151 In143 2.266 . S
O151 C148 1.252 . S
O152 In143 2.326 . S
O152 C148 1.260 . S
C153 O144 1.240 . S
C153 O145 1.252 . S
O154 In143 2.294 . S
O154 C147 1.240 . S
O155 In143 2.326 . S
O155 C147 1.252 . S
In156 O157 2.294 . S
In156 O158 2.326 . S
In156 O162 2.266 . S
In156 O163 2.326 . S
In156 O164 2.266 . S
In156 O165 2.326 . S
In156 O167 2.294 . S
In156 O168 2.326 . S
O157 In156 2.294 . S
O157 C166 1.240 . S
O158 In156 2.326 . S
O158 C166 1.252 . S
C159 O162 1.252 . S
C159 O163 1.260 . S
C160 O167 1.240 . S
C160 O168 1.252 . S
C161 O164 1.252 . S
C161 O165 1.260 . S
O162 In156 2.266 . S
O162 C159 1.252 . S
O163 In156 2.326 . S
O163 C159 1.260 . S
O164 In156 2.266 . S
O164 C161 1.252 . S
O165 In156 2.326 . S
O165 C161 1.260 . S
C166 O157 1.240 . S
C166 O158 1.252 . S
O167 In156 2.294 . S
O167 C160 1.240 . S
O168 In156 2.326 . S
O168 C160 1.252 . S
In169 O170 2.294 . S
In169 O171 2.326 . S
In169 O175 2.266 . S
In169 O176 2.326 . S
In169 O177 2.266 . S
In169 O178 2.326 . S
In169 O180 2.294 . S
In169 O181 2.326 . S
O170 In169 2.294 . S
O170 C179 1.240 . S
O171 In169 2.326 . S
O171 C179 1.252 . S
C172 O175 1.252 . S
C172 O176 1.260 . S
C173 O180 1.240 . S
C173 O181 1.252 . S
C174 O177 1.252 . S
C174 O178 1.260 . S
O175 In169 2.266 . S
O175 C172 1.252 . S
O176 In169 2.326 . S
O176 C172 1.260 . S
O177 In169 2.266 . S
O177 C174 1.252 . S
O178 In169 2.326 . S
O178 C174 1.260 . S
C179 O170 1.240 . S
C179 O171 1.252 . S
O180 In169 2.294 . S
O180 C173 1.240 . S
O181 In169 2.326 . S
O181 C173 1.252 . S
In182 O183 2.294 . S
In182 O184 2.326 . S
In182 O188 2.266 . S
In182 O189 2.326 . S
In182 O190 2.266 . S
In182 O191 2.326 . S
In182 O193 2.294 . S
In182 O194 2.326 . S
O183 In182 2.294 . S
O183 C192 1.240 . S
O184 In182 2.326 . S
O184 C192 1.252 . S
C185 O188 1.252 . S
C185 O189 1.260 . S
C186 O193 1.240 . S
C186 O194 1.252 . S
C187 O190 1.252 . S
C187 O191 1.260 . S
O188 In182 2.266 . S
O188 C185 1.252 . S
O189 In182 2.326 . S
O189 C185 1.260 . S
O190 In182 2.266 . S
O190 C187 1.252 . S
O191 In182 2.326 . S
O191 C187 1.260 . S
C192 O183 1.240 . S
C192 O184 1.252 . S
O193 In182 2.294 . S
O193 C186 1.240 . S
O194 In182 2.326 . S
O194 C186 1.252 . S
In195 O196 2.294 . S
In195 O197 2.326 . S
In195 O201 2.266 . S
In195 O202 2.326 . S
In195 O203 2.266 . S
In195 O204 2.326 . S
In195 O206 2.294 . S
In195 O207 2.326 . S
O196 In195 2.294 . S
O196 C205 1.240 . S
O197 In195 2.326 . S
O197 C205 1.252 . S
C198 O201 1.252 . S
C198 O202 1.260 . S
C199 O206 1.240 . S
C199 O207 1.252 . S
C200 O203 1.252 . S
C200 O204 1.260 . S
O201 In195 2.266 . S
O201 C198 1.252 . S
O202 In195 2.326 . S
O202 C198 1.260 . S
O203 In195 2.266 . S
O203 C200 1.252 . S
O204 In195 2.326 . S
O204 C200 1.260 . S
C205 O196 1.240 . S
C205 O197 1.252 . S
O206 In195 2.294 . S
O206 C199 1.240 . S
O207 In195 2.326 . S
O207 C199 1.252 . S
H208 C216 0.950 . S
H209 C221 0.950 . S
H210 C218 0.950 . S
H211 C220 0.950 . S
H212 C222 0.950 . S
H213 C224 0.950 . S
H214 C226 0.950 1_554 S
H215 C227 0.950 . S
C216 H208 0.950 . S
C216 C217 1.386 . S
C216 C218 1.391 . S
C217 C216 1.386 . S
C217 C221 1.393 . S
C218 H210 0.950 . S
C218 C216 1.391 . S
C218 C219 1.378 1_554 S
C219 C218 1.378 1_556 S
C219 C220 1.404 . S
C219 C225 1.507 . S
C220 H211 0.950 . S
C220 C219 1.404 . S
C220 C221 1.391 1_556 S
C221 H209 0.950 . S
C221 C217 1.393 . S
C221 C220 1.391 1_554 S
C222 H212 0.950 . S
C222 C223 1.386 . S
C222 C224 1.391 . S
C223 C222 1.386 . S
C223 C227 1.393 . S
C224 H213 0.950 . S
C224 C222 1.391 . S
C224 C225 1.400 . S
C225 C219 1.507 . S
C225 C224 1.400 . S
C225 C226 1.398 . S
C226 H214 0.950 1_556 S
C226 C225 1.398 . S
C226 C227 1.391 . S
C227 H215 0.950 . S
C227 C223 1.393 . S
C227 C226 1.391 . S
H228 C236 0.950 . S
H229 C241 0.950 . S
H230 C238 0.950 . S
H231 C240 0.950 . S
H232 C242 0.950 . S
H233 C244 0.950 . S
H234 C246 0.950 . S
H235 C247 0.950 . S
C236 H228 0.950 . S
C236 C237 1.386 . S
C236 C238 1.391 . S
C237 C236 1.386 . S
C237 C241 1.393 . S
C238 H230 0.950 . S
C238 C236 1.391 . S
C238 C239 1.400 . S
C239 C238 1.400 . S
C239 C240 1.398 . S
C239 C245 1.491 . S
C240 H231 0.950 . S
C240 C239 1.398 . S
C240 C241 1.391 . S
C241 H229 0.950 . S
C241 C237 1.393 . S
C241 C240 1.391 . S
C242 H232 0.950 . S
C242 C243 1.386 . S
C242 C244 1.391 . S
C243 C242 1.386 . S
C243 C247 1.393 . S
C244 H233 0.950 . S
C244 C242 1.391 . S
C244 C245 1.400 . S
C245 C239 1.491 . S
C245 C244 1.400 . S
C245 C246 1.398 . S
C246 H234 0.950 . S
C246 C245 1.398 . S
C246 C247 1.391 . S
C247 H235 0.950 . S
C247 C243 1.393 . S
C247 C246 1.391 . S
H248 C256 0.950 . S
H249 C261 0.950 1_554 S
H250 C258 0.950 . S
H251 C260 0.950 . S
H252 C262 0.950 . S
H253 C264 0.950 . S
H254 C266 0.950 1_556 S
H255 C267 0.950 . S
C256 H248 0.950 . S
C256 C257 1.386 . S
C256 C258 1.391 . S
C257 C256 1.386 . S
C257 C261 1.393 . S
C258 H250 0.950 . S
C258 C256 1.391 . S
C258 C259 1.400 1_556 S
C259 C258 1.400 1_554 S
C259 C260 1.398 . S
C259 C265 1.491 . S
C260 H251 0.950 . S
C260 C259 1.398 . S
C260 C261 1.391 1_554 S
C261 H249 0.950 1_556 S
C261 C257 1.393 . S
C261 C260 1.391 1_556 S
C262 H252 0.950 . S
C262 C263 1.386 . S
C262 C264 1.391 . S
C263 C262 1.386 . S
C263 C267 1.393 . S
C264 H253 0.950 . S
C264 C262 1.391 . S
C264 C265 1.400 . S
C265 C259 1.491 . S
C265 C264 1.400 . S
C265 C266 1.398 . S
C266 H254 0.950 1_554 S
C266 C265 1.398 . S
C266 C267 1.391 . S
C267 H255 0.950 . S
C267 C263 1.393 . S
C267 C266 1.391 . S
H268 C276 0.950 . S
H269 C281 0.950 . S
H270 C278 0.950 . S
H271 C280 0.950 . S
H272 C282 0.950 . S
H273 C284 0.950 . S
H274 C286 0.950 . S
H275 C287 0.950 . S
C276 H268 0.950 . S
C276 C277 1.386 . S
C276 C278 1.391 . S
C277 C276 1.386 . S
C277 C281 1.393 . S
C278 H270 0.950 . S
C278 C276 1.391 . S
C278 C279 1.400 . S
C279 C278 1.400 . S
C279 C280 1.398 . S
C279 C285 1.491 . S
C280 H271 0.950 . S
C280 C279 1.398 . S
C280 C281 1.391 . S
C281 H269 0.950 . S
C281 C277 1.393 . S
C281 C280 1.391 . S
C282 H272 0.950 . S
C282 C283 1.386 . S
C282 C284 1.391 . S
C283 C282 1.386 . S
C283 C287 1.393 . S
C284 H273 0.950 . S
C284 C282 1.391 . S
C284 C285 1.400 . S
C285 C279 1.491 . S
C285 C284 1.400 . S
C285 C286 1.398 . S
C286 H274 0.950 . S
C286 C285 1.398 . S
C286 C287 1.391 . S
C287 H275 0.950 . S
C287 C283 1.393 . S
C287 C286 1.391 . S
H288 C296 0.950 1_556 S
H289 C301 0.950 . S
H290 C298 0.950 . S
H291 C300 0.950 . S
H292 C302 0.950 . S
H293 C304 0.950 1_554 S
H294 C306 0.950 . S
H295 C307 0.950 . S
C296 H288 0.950 1_554 S
C296 C297 1.386 . S
C296 C298 1.391 1_554 S
C297 C296 1.386 . S
C297 C301 1.393 . S
C298 H290 0.950 . S
C298 C296 1.391 1_556 S
C298 C299 1.400 . S
C299 C298 1.400 . S
C299 C300 1.398 1_556 S
C299 C305 1.491 . S
C300 H291 0.950 . S
C300 C299 1.398 1_554 S
C300 C301 1.391 . S
C301 H289 0.950 . S
C301 C297 1.393 . S
C301 C300 1.391 . S
C302 H292 0.950 . S
C302 C303 1.386 . S
C302 C304 1.391 . S
C303 C302 1.386 . S
C303 C307 1.393 . S
C304 H293 0.950 1_556 S
C304 C302 1.391 . S
C304 C305 1.400 . S
C305 C299 1.491 . S
C305 C304 1.400 . S
C305 C306 1.398 . S
C306 H294 0.950 . S
C306 C305 1.398 . S
C306 C307 1.391 . S
C307 H295 0.950 . S
C307 C303 1.393 . S
C307 C306 1.391 . S
H308 C316 0.950 . S
H309 C321 0.950 . S
H310 C318 0.950 . S
H311 C320 0.950 . S
H312 C322 0.950 . S
H313 C324 0.950 . S
H314 C326 0.950 . S
H315 C327 0.950 . S
C316 H308 0.950 . S
C316 C317 1.386 . S
C316 C318 1.391 . S
C317 C316 1.386 . S
C317 C321 1.393 . S
C318 H310 0.950 . S
C318 C316 1.391 . S
C318 C319 1.400 . S
C319 C318 1.400 . S
C319 C320 1.398 . S
C319 C325 1.491 . S
C320 H311 0.950 . S
C320 C319 1.398 . S
C320 C321 1.391 . S
C321 H309 0.950 . S
C321 C317 1.393 . S
C321 C320 1.391 . S
C322 H312 0.950 . S
C322 C323 1.386 . S
C322 C324 1.391 . S
C323 C322 1.386 . S
C323 C327 1.393 . S
C324 H313 0.950 . S
C324 C322 1.391 . S
C324 C325 1.400 . S
C325 C319 1.491 . S
C325 C324 1.400 . S
C325 C326 1.398 . S
C326 H314 0.950 . S
C326 C325 1.398 . S
C326 C327 1.391 . S
C327 H315 0.950 . S
C327 C323 1.393 . S
C327 C326 1.391 . S
H328 C336 0.950 . S
H329 C341 0.950 1_554 S
H330 C338 0.950 . S
H331 C340 0.950 . S
H332 C342 0.950 . S
H333 C344 0.950 . S
H334 C346 0.950 1_556 S
H335 C347 0.950 . S
C336 H328 0.950 . S
C336 C337 1.386 . S
C336 C338 1.391 . S
C337 C336 1.386 . S
C337 C341 1.393 . S
C338 H330 0.950 . S
C338 C336 1.391 . S
C338 C339 1.400 1_556 S
C339 C338 1.400 1_554 S
C339 C340 1.398 . S
C339 C345 1.491 . S
C340 H331 0.950 . S
C340 C339 1.398 . S
C340 C341 1.391 1_554 S
C341 H329 0.950 1_556 S
C341 C337 1.393 . S
C341 C340 1.391 1_556 S
C342 H332 0.950 . S
C342 C343 1.386 . S
C342 C344 1.391 . S
C343 C342 1.386 . S
C343 C347 1.393 . S
C344 H333 0.950 . S
C344 C342 1.391 . S
C344 C345 1.400 . S
C345 C339 1.491 . S
C345 C344 1.400 . S
C345 C346 1.398 . S
C346 H334 0.950 1_554 S
C346 C345 1.398 . S
C346 C347 1.391 . S
C347 H335 0.950 . S
C347 C343 1.393 . S
C347 C346 1.391 . S
H348 C356 0.950 . S
H349 C361 0.950 . S
H350 C358 0.950 . S
H351 C360 0.950 . S
H352 C362 0.950 . S
H353 C364 0.950 . S
H354 C366 0.950 . S
H355 C367 0.950 . S
C356 H348 0.950 . S
C356 C357 1.386 . S
C356 C358 1.391 . S
C357 C356 1.386 . S
C357 C361 1.393 . S
C358 H350 0.950 . S
C358 C356 1.391 . S
C358 C359 1.400 . S
C359 C358 1.400 . S
C359 C360 1.398 . S
C359 C365 1.491 . S
C360 H351 0.950 . S
C360 C359 1.398 . S
C360 C361 1.391 . S
C361 H349 0.950 . S
C361 C357 1.393 . S
C361 C360 1.391 . S
C362 H352 0.950 . S
C362 C363 1.386 . S
C362 C364 1.391 . S
C363 C362 1.386 . S
C363 C367 1.393 . S
C364 H353 0.950 . S
C364 C362 1.391 . S
C364 C365 1.400 . S
C365 C359 1.491 . S
C365 C364 1.400 . S
C365 C366 1.398 . S
C366 H354 0.950 . S
C366 C365 1.398 . S
C366 C367 1.391 . S
C367 H355 0.950 . S
C367 C363 1.393 . S
C367 C366 1.391 . S
H368 C376 0.950 . S
H369 C381 0.950 . S
H370 C378 0.950 . S
H371 C380 0.950 . S
H372 C382 0.950 . S
H373 C384 0.950 . S
H374 C386 0.950 . S
H375 C387 0.950 . S
C376 H368 0.950 . S
C376 C377 1.386 . S
C376 C378 1.391 1_554 S
C377 C376 1.386 . S
C377 C381 1.393 . S
C378 H370 0.950 . S
C378 C376 1.391 1_556 S
C378 C379 1.400 1_556 S
C379 C378 1.400 1_554 S
C379 C380 1.398 . S
C379 C385 1.491 1_544 S
C380 H371 0.950 . S
C380 C379 1.398 . S
C380 C381 1.391 . S
C381 H369 0.950 . S
C381 C377 1.393 . S
C381 C380 1.391 . S
C382 H372 0.950 . S
C382 C383 1.386 . S
C382 C384 1.391 1_556 S
C383 C382 1.386 . S
C383 C387 1.393 . S
C384 H373 0.950 . S
C384 C382 1.391 1_554 S
C384 C385 1.400 1_554 S
C385 C379 1.491 1_566 S
C385 C384 1.400 1_556 S
C385 C386 1.398 . S
C386 H374 0.950 . S
C386 C385 1.398 . S
C386 C387 1.391 . S
C387 H375 0.950 . S
C387 C383 1.393 . S
C387 C386 1.391 . S
H388 C396 0.950 . S
H389 C401 0.950 . S
H390 C398 0.950 . S
H391 C400 0.950 . S
H392 C402 0.950 . S
H393 C404 0.950 . S
H394 C406 0.950 . S
H395 C407 0.950 . S
C396 H388 0.950 . S
C396 C397 1.386 . S
C396 C398 1.391 . S
C397 C396 1.386 . S
C397 C401 1.393 . S
C398 H390 0.950 . S
C398 C396 1.391 . S
C398 C399 1.400 . S
C399 C398 1.400 . S
C399 C400 1.398 . S
C399 C405 1.491 1_565 S
C400 H391 0.950 . S
C400 C399 1.398 . S
C400 C401 1.391 . S
C401 H389 0.950 . S
C401 C397 1.393 . S
C401 C400 1.391 . S
C402 H392 0.950 . S
C402 C403 1.386 . S
C402 C404 1.391 . S
C403 C402 1.386 . S
C403 C407 1.393 . S
C404 H393 0.950 . S
C404 C402 1.391 . S
C404 C405 1.400 . S
C405 C399 1.491 1_545 S
C405 C404 1.400 . S
C405 C406 1.398 . S
C406 H394 0.950 . S
C406 C405 1.398 . S
C406 C407 1.391 . S
C407 H395 0.950 . S
C407 C403 1.393 . S
C407 C406 1.391 . S
H408 C416 0.950 . S
H409 C421 0.950 . S
H410 C418 0.950 1_554 S
H411 C420 0.950 . S
H412 C422 0.950 . S
H413 C424 0.950 1_556 S
H414 C426 0.950 . S
H415 C427 0.950 . S
C416 H408 0.950 . S
C416 C417 1.386 . S
C416 C418 1.391 . S
C417 C416 1.386 . S
C417 C421 1.393 . S
C418 H410 0.950 1_556 S
C418 C416 1.391 . S
C418 C419 1.400 . S
C419 C418 1.400 . S
C419 C420 1.398 . S
C419 C425 1.491 1_566 S
C420 H411 0.950 . S
C420 C419 1.398 . S
C420 C421 1.391 . S
C421 H409 0.950 . S
C421 C417 1.393 . S
C421 C420 1.391 . S
C422 H412 0.950 . S
C422 C423 1.386 . S
C422 C424 1.391 . S
C423 C422 1.386 . S
C423 C427 1.393 . S
C424 H413 0.950 1_554 S
C424 C422 1.391 . S
C424 C425 1.400 . S
C425 C419 1.491 1_544 S
C425 C424 1.400 . S
C425 C426 1.398 . S
C426 H414 0.950 . S
C426 C425 1.398 . S
C426 C427 1.391 . S
C427 H415 0.950 . S
C427 C423 1.393 . S
C427 C426 1.391 . S
H428 C436 0.950 . S
H429 C441 0.950 . S
H430 C438 0.950 . S
H431 C440 0.950 . S
H432 C442 0.950 . S
H433 C444 0.950 . S
H434 C446 0.950 . S
H435 C447 0.950 . S
C436 H428 0.950 . S
C436 C437 1.386 . S
C436 C438 1.391 . S
C437 C436 1.386 . S
C437 C441 1.393 . S
C438 H430 0.950 . S
C438 C436 1.391 . S
C438 C439 1.400 . S
C439 C438 1.400 . S
C439 C440 1.398 . S
C439 C445 1.491 1_545 S
C440 H431 0.950 . S
C440 C439 1.398 . S
C440 C441 1.391 . S
C441 H429 0.950 . S
C441 C437 1.393 . S
C441 C440 1.391 . S
C442 H432 0.950 . S
C442 C443 1.386 . S
C442 C444 1.391 . S
C443 C442 1.386 . S
C443 C447 1.393 . S
C444 H433 0.950 . S
C444 C442 1.391 . S
C444 C445 1.400 . S
C445 C439 1.491 1_565 S
C445 C444 1.400 . S
C445 C446 1.398 . S
C446 H434 0.950 . S
C446 C445 1.398 . S
C446 C447 1.391 . S
C447 H435 0.950 . S
C447 C443 1.393 . S
C447 C446 1.391 . S
H448 C456 0.950 . S
H449 C461 0.950 . S
H450 C458 0.950 . S
H451 C460 0.950 . S
H452 C462 0.950 . S
H453 C464 0.950 . S
H454 C466 0.950 . S
H455 C467 0.950 . S
C456 H448 0.950 . S
C456 C457 1.386 1_554 S
C456 C458 1.391 . S
C457 C456 1.386 1_556 S
C457 C461 1.393 . S
C458 H450 0.950 . S
C458 C456 1.391 . S
C458 C459 1.400 1_554 S
C459 C458 1.400 1_556 S
C459 C460 1.398 . S
C459 C465 1.491 1_556 S
C460 H451 0.950 . S
C460 C459 1.398 . S
C460 C461 1.391 . S
C461 H449 0.950 . S
C461 C457 1.393 . S
C461 C460 1.391 . S
C462 H452 0.950 . S
C462 C463 1.386 1_556 S
C462 C464 1.391 . S
C463 C462 1.386 1_554 S
C463 C467 1.393 . S
C464 H453 0.950 . S
C464 C462 1.391 . S
C464 C465 1.400 1_556 S
C465 C459 1.491 1_554 S
C465 C464 1.400 1_554 S
C465 C466 1.398 . S
C466 H454 0.950 . S
C466 C465 1.398 . S
C466 C467 1.391 . S
C467 H455 0.950 . S
C467 C463 1.393 . S
C467 C466 1.391 . S
H468 C476 0.950 . S
H469 C481 0.950 . S
H470 C478 0.950 . S
H471 C480 0.950 . S
H472 C482 0.950 . S
H473 C484 0.950 . S
H474 C486 0.950 . S
H475 C487 0.950 . S
C476 H468 0.950 . S
C476 C477 1.386 . S
C476 C478 1.391 . S
C477 C476 1.386 . S
C477 C481 1.393 . S
C478 H470 0.950 . S
C478 C476 1.391 . S
C478 C479 1.400 . S
C479 C478 1.400 . S
C479 C480 1.398 . S
C479 C485 1.491 . S
C480 H471 0.950 . S
C480 C479 1.398 . S
C480 C481 1.391 . S
C481 H469 0.950 . S
C481 C477 1.393 . S
C481 C480 1.391 . S
C482 H472 0.950 . S
C482 C483 1.386 . S
C482 C484 1.391 . S
C483 C482 1.386 . S
C483 C487 1.393 . S
C484 H473 0.950 . S
C484 C482 1.391 . S
C484 C485 1.400 . S
C485 C479 1.491 . S
C485 C484 1.400 . S
C485 C486 1.398 . S
C486 H474 0.950 . S
C486 C485 1.398 . S
C486 C487 1.391 . S
C487 H475 0.950 . S
C487 C483 1.393 . S
C487 C486 1.391 . S
H488 C496 0.950 . S
H489 C501 0.950 . S
H490 C498 0.950 . S
H491 C500 0.950 . S
H492 C502 0.950 . S
H493 C504 0.950 . S
H494 C506 0.950 . S
H495 C507 0.950 . S
C496 H488 0.950 . S
C496 C497 1.386 . S
C496 C498 1.391 1_554 S
C497 C496 1.386 . S
C497 C501 1.393 . S
C498 H490 0.950 . S
C498 C496 1.391 1_556 S
C498 C499 1.400 1_556 S
C499 C498 1.400 1_554 S
C499 C500 1.398 . S
C499 C505 1.491 1_554 S
C500 H491 0.950 . S
C500 C499 1.398 . S
C500 C501 1.391 . S
C501 H489 0.950 . S
C501 C497 1.393 . S
C501 C500 1.391 . S
C502 H492 0.950 . S
C502 C503 1.386 . S
C502 C504 1.391 1_556 S
C503 C502 1.386 . S
C503 C507 1.393 . S
C504 H493 0.950 . S
C504 C502 1.391 1_554 S
C504 C505 1.400 1_554 S
C505 C499 1.491 1_556 S
C505 C504 1.400 1_556 S
C505 C506 1.398 . S
C506 H494 0.950 . S
C506 C505 1.398 . S
C506 C507 1.391 . S
C507 H495 0.950 . S
C507 C503 1.393 . S
C507 C506 1.391 . S
H508 C516 0.950 . S
H509 C521 0.950 . S
H510 C518 0.950 . S
H511 C520 0.950 . S
H512 C522 0.950 . S
H513 C524 0.950 . S
H514 C526 0.950 . S
H515 C527 0.950 . S
C516 H508 0.950 . S
C516 C517 1.386 . S
C516 C518 1.391 . S
C517 C516 1.386 . S
C517 C521 1.393 . S
C518 H510 0.950 . S
C518 C516 1.391 . S
C518 C519 1.400 . S
C519 C518 1.400 . S
C519 C520 1.398 . S
C519 C525 1.491 . S
C520 H511 0.950 . S
C520 C519 1.398 . S
C520 C521 1.391 . S
C521 H509 0.950 . S
C521 C517 1.393 . S
C521 C520 1.391 . S
C522 H512 0.950 . S
C522 C523 1.386 . S
C522 C524 1.391 . S
C523 C522 1.386 . S
C523 C527 1.393 . S
C524 H513 0.950 . S
C524 C522 1.391 . S
C524 C525 1.400 . S
C525 C519 1.491 . S
C525 C524 1.400 . S
C525 C526 1.398 . S
C526 H514 0.950 . S
C526 C525 1.398 . S
C526 C527 1.391 . S
C527 H515 0.950 . S
C527 C523 1.393 . S
C527 C526 1.391 . S
H528 C536 0.950 . S
H529 C541 0.950 . S
H530 C538 0.950 . S
H531 C540 0.950 . S
H532 C542 0.950 . S
H533 C544 0.950 . S
H534 C546 0.950 . S
H535 C547 0.950 . S
C536 H528 0.950 . S
C536 C537 1.386 . S
C536 C538 1.391 . S
C537 C536 1.386 . S
C537 C541 1.393 . S
C538 H530 0.950 . S
C538 C536 1.391 . S
C538 C539 1.400 . S
C539 C538 1.400 . S
C539 C540 1.398 . S
C539 C545 1.491 . S
C540 H531 0.950 . S
C540 C539 1.398 . S
C540 C541 1.391 . S
C541 H529 0.950 . S
C541 C537 1.393 . S
C541 C540 1.391 . S
C542 H532 0.950 . S
C542 C543 1.386 . S
C542 C544 1.391 . S
C543 C542 1.386 . S
C543 C547 1.393 . S
C544 H533 0.950 . S
C544 C542 1.391 . S
C544 C545 1.400 . S
C545 C539 1.491 . S
C545 C544 1.400 . S
C545 C546 1.398 . S
C546 H534 0.950 . S
C546 C545 1.398 . S
C546 C547 1.391 . S
C547 H535 0.950 . S
C547 C543 1.393 . S
C547 C546 1.391 . S
H548 C556 0.950 . S
H549 C561 0.950 . S
H550 C558 0.950 . S
H551 C560 0.950 . S
H552 C562 0.950 . S
H553 C564 0.950 . S
H554 C566 0.950 . S
H555 C567 0.950 . S
C556 H548 0.950 . S
C556 C557 1.386 . S
C556 C558 1.391 . S
C557 C556 1.386 . S
C557 C561 1.393 . S
C558 H550 0.950 . S
C558 C556 1.391 . S
C558 C559 1.400 . S
C559 C558 1.400 . S
C559 C560 1.398 . S
C559 C565 1.491 1_655 S
C560 H551 0.950 . S
C560 C559 1.398 . S
C560 C561 1.391 . S
C561 H549 0.950 . S
C561 C557 1.393 . S
C561 C560 1.391 . S
C562 H552 0.950 . S
C562 C563 1.386 . S
C562 C564 1.391 . S
C563 C562 1.386 . S
C563 C567 1.393 . S
C564 H553 0.950 . S
C564 C562 1.391 . S
C564 C565 1.400 . S
C565 C559 1.491 1_455 S
C565 C564 1.400 . S
C565 C566 1.398 . S
C566 H554 0.950 . S
C566 C565 1.398 . S
C566 C567 1.391 . S
C567 H555 0.950 . S
C567 C563 1.393 . S
C567 C566 1.391 . S
H568 C576 0.950 . S
H569 C581 0.950 . S
H570 C578 0.950 . S
H571 C580 0.950 . S
H572 C582 0.950 . S
H573 C584 0.950 . S
H574 C586 0.950 . S
H575 C587 0.950 . S
C576 H568 0.950 . S
C576 C577 1.386 . S
C576 C578 1.391 . S
C577 C576 1.386 . S
C577 C581 1.393 . S
C578 H570 0.950 . S
C578 C576 1.391 . S
C578 C579 1.400 . S
C579 C578 1.400 . S
C579 C580 1.398 . S
C579 C585 1.491 . S
C580 H571 0.950 . S
C580 C579 1.398 . S
C580 C581 1.391 . S
C581 H569 0.950 . S
C581 C577 1.393 . S
C581 C580 1.391 . S
C582 H572 0.950 . S
C582 C583 1.386 . S
C582 C584 1.391 . S
C583 C582 1.386 . S
C583 C587 1.393 . S
C584 H573 0.950 . S
C584 C582 1.391 . S
C584 C585 1.400 . S
C585 C579 1.491 . S
C585 C584 1.400 . S
C585 C586 1.398 . S
C586 H574 0.950 . S
C586 C585 1.398 . S
C586 C587 1.391 . S
C587 H575 0.950 . S
C587 C583 1.393 . S
C587 C586 1.391 . S
H588 C596 0.950 . S
H589 C601 0.950 . S
H590 C598 0.950 . S
H591 C600 0.950 . S
H592 C602 0.950 . S
H593 C604 0.950 . S
H594 C606 0.950 . S
H595 C607 0.950 . S
C596 H588 0.950 . S
C596 C597 1.386 . S
C596 C598 1.391 . S
C597 C596 1.386 . S
C597 C601 1.393 . S
C598 H590 0.950 . S
C598 C596 1.391 . S
C598 C599 1.400 . S
C599 C598 1.400 . S
C599 C600 1.398 . S
C599 C605 1.491 1_455 S
C600 H591 0.950 . S
C600 C599 1.398 . S
C600 C601 1.391 . S
C601 H589 0.950 . S
C601 C597 1.393 . S
C601 C600 1.391 . S
C602 H592 0.950 . S
C602 C603 1.386 . S
C602 C604 1.391 . S
C603 C602 1.386 . S
C603 C607 1.393 . S
C604 H593 0.950 . S
C604 C602 1.391 . S
C604 C605 1.400 . S
C605 C599 1.491 1_655 S
C605 C604 1.400 . S
C605 C606 1.398 . S
C606 H594 0.950 . S
C606 C605 1.398 . S
C606 C607 1.391 . S
C607 H595 0.950 . S
C607 C603 1.393 . S
C607 C606 1.391 . S
H608 C616 0.950 . S
H609 C621 0.950 . S
H610 C618 0.950 . S
H611 C620 0.950 . S
H612 C622 0.950 . S
H613 C624 0.950 . S
H614 C626 0.950 . S
H615 C627 0.950 . S
C616 H608 0.950 . S
C616 C617 1.386 . S
C616 C618 1.391 . S
C617 C616 1.386 . S
C617 C621 1.393 . S
C618 H610 0.950 . S
C618 C616 1.391 . S
C618 C619 1.400 . S
C619 C618 1.400 . S
C619 C620 1.398 . S
C619 C625 1.491 1_455 S
C620 H611 0.950 . S
C620 C619 1.398 . S
C620 C621 1.391 . S
C621 H609 0.950 . S
C621 C617 1.393 . S
C621 C620 1.391 . S
C622 H612 0.950 . S
C622 C623 1.386 . S
C622 C624 1.391 . S
C623 C622 1.386 . S
C623 C627 1.393 . S
C624 H613 0.950 . S
C624 C622 1.391 . S
C624 C625 1.400 . S
C625 C619 1.491 1_655 S
C625 C624 1.400 . S
C625 C626 1.398 . S
C626 H614 0.950 . S
C626 C625 1.398 . S
C626 C627 1.391 . S
C627 H615 0.950 . S
C627 C623 1.393 . S
C627 C626 1.391 . S
H628 C636 0.950 . S
H629 C641 0.950 . S
H630 C638 0.950 . S
H631 C640 0.950 . S
H632 C642 0.950 . S
H633 C644 0.950 . S
H634 C646 0.950 . S
H635 C647 0.950 . S
C636 H628 0.950 . S
C636 C637 1.386 . S
C636 C638 1.391 . S
C637 C636 1.386 . S
C637 C641 1.393 . S
C638 H630 0.950 . S
C638 C636 1.391 . S
C638 C639 1.400 . S
C639 C638 1.400 . S
C639 C640 1.398 . S
C639 C645 1.491 . S
C640 H631 0.950 . S
C640 C639 1.398 . S
C640 C641 1.391 . S
C641 H629 0.950 . S
C641 C637 1.393 . S
C641 C640 1.391 . S
C642 H632 0.950 . S
C642 C643 1.386 . S
C642 C644 1.391 . S
C643 C642 1.386 . S
C643 C647 1.393 . S
C644 H633 0.950 . S
C644 C642 1.391 . S
C644 C645 1.400 . S
C645 C639 1.491 . S
C645 C644 1.400 . S
C645 C646 1.398 . S
C646 H634 0.950 . S
C646 C645 1.398 . S
C646 C647 1.391 . S
C647 H635 0.950 . S
C647 C643 1.393 . S
C647 C646 1.391 . S
H648 C656 0.950 . S
H649 C661 0.950 . S
H650 C658 0.950 . S
H651 C660 0.950 . S
H652 C662 0.950 . S
H653 C664 0.950 . S
H654 C666 0.950 . S
H655 C667 0.950 . S
C656 H648 0.950 . S
C656 C657 1.386 . S
C656 C658 1.391 . S
C657 C656 1.386 . S
C657 C661 1.393 . S
C658 H650 0.950 . S
C658 C656 1.391 . S
C658 C659 1.400 . S
C659 C658 1.400 . S
C659 C660 1.398 . S
C659 C665 1.491 1_455 S
C660 H651 0.950 . S
C660 C659 1.398 . S
C660 C661 1.391 . S
C661 H649 0.950 . S
C661 C657 1.393 . S
C661 C660 1.391 . S
C662 H652 0.950 . S
C662 C663 1.386 . S
C662 C664 1.391 . S
C663 C662 1.386 . S
C663 C667 1.393 . S
C664 H653 0.950 . S
C664 C662 1.391 . S
C664 C665 1.400 . S
C665 C659 1.491 1_655 S
C665 C664 1.400 . S
C665 C666 1.398 . S
C666 H654 0.950 . S
C666 C665 1.398 . S
C666 C667 1.391 . S
C667 H655 0.950 . S
C667 C663 1.393 . S
C667 C666 1.391 . S
H668 C676 0.950 . S
H669 C681 0.950 . S
H670 C678 0.950 . S
H671 C680 0.950 . S
H672 C682 0.950 . S
H673 C684 0.950 . S
H674 C686 0.950 . S
H675 C687 0.950 . S
C676 H668 0.950 . S
C676 C677 1.386 . S
C676 C678 1.391 . S
C677 C676 1.386 . S
C677 C681 1.393 . S
C678 H670 0.950 . S
C678 C676 1.391 . S
C678 C679 1.400 . S
C679 C678 1.400 . S
C679 C680 1.398 . S
C679 C685 1.491 . S
C680 H671 0.950 . S
C680 C679 1.398 . S
C680 C681 1.391 . S
C681 H669 0.950 . S
C681 C677 1.393 . S
C681 C680 1.391 . S
C682 H672 0.950 . S
C682 C683 1.386 . S
C682 C684 1.391 . S
C683 C682 1.386 . S
C683 C687 1.393 . S
C684 H673 0.950 . S
C684 C682 1.391 . S
C684 C685 1.400 . S
C685 C679 1.491 . S
C685 C684 1.400 . S
C685 C686 1.398 . S
C686 H674 0.950 . S
C686 C685 1.398 . S
C686 C687 1.391 . S
C687 H675 0.950 . S
C687 C683 1.393 . S
C687 C686 1.391 . S
H688 C696 0.950 . S
H689 C701 0.950 . S
H690 C698 0.950 . S
H691 C700 0.950 . S
H692 C702 0.950 . S
H693 C704 0.950 . S
H694 C706 0.950 . S
H695 C707 0.950 . S
C696 H688 0.950 . S
C696 C697 1.386 . S
C696 C698 1.391 . S
C697 C696 1.386 . S
C697 C701 1.393 . S
C698 H690 0.950 . S
C698 C696 1.391 . S
C698 C699 1.400 . S
C699 C698 1.400 . S
C699 C700 1.398 . S
C699 C705 1.491 . S
C700 H691 0.950 . S
C700 C699 1.398 . S
C700 C701 1.391 . S
C701 H689 0.950 . S
C701 C697 1.393 . S
C701 C700 1.391 . S
C702 H692 0.950 . S
C702 C703 1.386 . S
C702 C704 1.391 . S
C703 C702 1.386 . S
C703 C707 1.393 . S
C704 H693 0.950 . S
C704 C702 1.391 . S
C704 C705 1.400 . S
C705 C699 1.491 . S
C705 C704 1.400 . S
C705 C706 1.398 . S
C706 H694 0.950 . S
C706 C705 1.398 . S
C706 C707 1.391 . S
C707 H695 0.950 . S
C707 C703 1.393 . S
C707 C706 1.391 . S
H708 C716 0.950 . S
H709 C721 0.950 . S
H710 C718 0.950 . S
H711 C720 0.950 . S
H712 C722 0.950 . S
H713 C724 0.950 . S
H714 C726 0.950 . S
H715 C727 0.950 . S
C716 H708 0.950 . S
C716 C717 1.386 . S
C716 C718 1.391 . S
C717 C716 1.386 . S
C717 C721 1.393 . S
C718 H710 0.950 . S
C718 C716 1.391 . S
C718 C719 1.400 . S
C719 C718 1.400 . S
C719 C720 1.398 . S
C719 C725 1.491 . S
C720 H711 0.950 . S
C720 C719 1.398 . S
C720 C721 1.391 . S
C721 H709 0.950 . S
C721 C717 1.393 . S
C721 C720 1.391 . S
C722 H712 0.950 . S
C722 C723 1.386 . S
C722 C724 1.391 . S
C723 C722 1.386 . S
C723 C727 1.393 . S
C724 H713 0.950 . S
C724 C722 1.391 . S
C724 C725 1.400 . S
C725 C719 1.491 . S
C725 C724 1.400 . S
C725 C726 1.398 . S
C726 H714 0.950 . S
C726 C725 1.398 . S
C726 C727 1.391 . S
C727 H715 0.950 . S
C727 C723 1.393 . S
C727 C726 1.391 . S
H728 C736 0.950 . S
H729 C741 0.950 . S
H730 C738 0.950 . S
H731 C740 0.950 . S
H732 C742 0.950 . S
H733 C744 0.950 . S
H734 C746 0.950 . S
H735 C747 0.950 . S
C736 H728 0.950 . S
C736 C737 1.386 . S
C736 C738 1.391 . S
C737 C736 1.386 . S
C737 C741 1.393 . S
C738 H730 0.950 . S
C738 C736 1.391 . S
C738 C739 1.400 . S
C739 C738 1.400 . S
C739 C740 1.398 . S
C739 C745 1.491 . S
C740 H731 0.950 . S
C740 C739 1.398 . S
C740 C741 1.391 . S
C741 H729 0.950 . S
C741 C737 1.393 . S
C741 C740 1.391 . S
C742 H732 0.950 . S
C742 C743 1.386 . S
C742 C744 1.391 . S
C743 C742 1.386 . S
C743 C747 1.393 . S
C744 H733 0.950 . S
C744 C742 1.391 . S
C744 C745 1.400 . S
C745 C739 1.491 . S
C745 C744 1.400 . S
C745 C746 1.398 . S
C746 H734 0.950 . S
C746 C745 1.398 . S
C746 C747 1.391 . S
C747 H735 0.950 . S
C747 C743 1.393 . S
C747 C746 1.391 . S
H748 C756 0.950 . S
H749 C761 0.950 . S
H750 C758 0.950 . S
H751 C760 0.950 . S
H752 C762 0.950 . S
H753 C764 0.950 . S
H754 C766 0.950 . S
H755 C767 0.950 . S
C756 H748 0.950 . S
C756 C757 1.386 . S
C756 C758 1.391 . S
C757 C756 1.386 . S
C757 C761 1.393 . S
C758 H750 0.950 . S
C758 C756 1.391 . S
C758 C759 1.400 . S
C759 C758 1.400 . S
C759 C760 1.398 . S
C759 C765 1.491 . S
C760 H751 0.950 . S
C760 C759 1.398 . S
C760 C761 1.391 . S
C761 H749 0.950 . S
C761 C757 1.393 . S
C761 C760 1.391 . S
C762 H752 0.950 . S
C762 C763 1.386 . S
C762 C764 1.391 . S
C763 C762 1.386 . S
C763 C767 1.393 . S
C764 H753 0.950 . S
C764 C762 1.391 . S
C764 C765 1.400 . S
C765 C759 1.491 . S
C765 C764 1.400 . S
C765 C766 1.398 . S
C766 H754 0.950 . S
C766 C765 1.398 . S
C766 C767 1.391 . S
C767 H755 0.950 . S
C767 C763 1.393 . S
C767 C766 1.391 . S
H768 C776 0.950 . S
H769 C781 0.950 . S
H770 C778 0.950 . S
H771 C780 0.950 . S
H772 C782 0.950 . S
H773 C784 0.950 . S
H774 C786 0.950 . S
H775 C787 0.950 . S
C776 H768 0.950 . S
C776 C777 1.386 . S
C776 C778 1.391 . S
C777 C776 1.386 . S
C777 C781 1.393 . S
C778 H770 0.950 . S
C778 C776 1.391 . S
C778 C779 1.400 . S
C779 C778 1.400 . S
C779 C780 1.398 . S
C779 C785 1.491 . S
C780 H771 0.950 . S
C780 C779 1.398 . S
C780 C781 1.391 . S
C781 H769 0.950 . S
C781 C777 1.393 . S
C781 C780 1.391 . S
C782 H772 0.950 . S
C782 C783 1.386 . S
C782 C784 1.391 . S
C783 C782 1.386 . S
C783 C787 1.393 . S
C784 H773 0.950 . S
C784 C782 1.391 . S
C784 C785 1.400 . S
C785 C779 1.491 . S
C785 C784 1.400 . S
C785 C786 1.398 . S
C786 H774 0.950 . S
C786 C785 1.398 . S
C786 C787 1.391 . S
C787 H775 0.950 . S
C787 C783 1.393 . S
C787 C786 1.391 . S
H788 C796 0.950 . S
H789 C801 0.950 . S
H790 C798 0.950 . S
H791 C800 0.950 . S
H792 C802 0.950 . S
H793 C804 0.950 . S
H794 C806 0.950 . S
H795 C807 0.950 . S
C796 H788 0.950 . S
C796 C797 1.386 . S
C796 C798 1.391 . S
C797 C796 1.386 . S
C797 C801 1.393 . S
C798 H790 0.950 . S
C798 C796 1.391 . S
C798 C799 1.400 . S
C799 C798 1.400 . S
C799 C800 1.398 . S
C799 C805 1.491 . S
C800 H791 0.950 . S
C800 C799 1.398 . S
C800 C801 1.391 . S
C801 H789 0.950 . S
C801 C797 1.393 . S
C801 C800 1.391 . S
C802 H792 0.950 . S
C802 C803 1.386 . S
C802 C804 1.391 . S
C803 C802 1.386 . S
C803 C807 1.393 . S
C804 H793 0.950 . S
C804 C802 1.391 . S
C804 C805 1.400 . S
C805 C799 1.491 . S
C805 C804 1.400 . S
C805 C806 1.398 . S
C806 H794 0.950 . S
C806 C805 1.398 . S
C806 C807 1.391 . S
C807 H795 0.950 . S
C807 C803 1.393 . S
C807 C806 1.391 . S
H808 C816 0.950 . S
H809 C821 0.950 . S
H810 C818 0.950 . S
H811 C820 0.950 . S
H812 C822 0.950 . S
H813 C824 0.950 . S
H814 C826 0.950 . S
H815 C827 0.950 . S
C816 H808 0.950 . S
C816 C817 1.386 . S
C816 C818 1.391 . S
C817 C816 1.386 . S
C817 C821 1.393 . S
C818 H810 0.950 . S
C818 C816 1.391 . S
C818 C819 1.400 . S
C819 C818 1.400 . S
C819 C820 1.398 . S
C819 C825 1.491 . S
C820 H811 0.950 . S
C820 C819 1.398 . S
C820 C821 1.391 . S
C821 H809 0.950 . S
C821 C817 1.393 . S
C821 C820 1.391 . S
C822 H812 0.950 . S
C822 C823 1.386 . S
C822 C824 1.391 . S
C823 C822 1.386 . S
C823 C827 1.393 . S
C824 H813 0.950 . S
C824 C822 1.391 . S
C824 C825 1.400 . S
C825 C819 1.491 . S
C825 C824 1.400 . S
C825 C826 1.398 . S
C826 H814 0.950 . S
C826 C825 1.398 . S
C826 C827 1.391 . S
C827 H815 0.950 . S
C827 C823 1.393 . S
C827 C826 1.391 . S
H828 C836 0.950 . S
H829 C841 0.950 . S
H830 C838 0.950 . S
H831 C840 0.950 . S
H832 C842 0.950 . S
H833 C844 0.950 . S
H834 C846 0.950 . S
H835 C847 0.950 . S
C836 H828 0.950 . S
C836 C837 1.386 . S
C836 C838 1.391 . S
C837 C836 1.386 . S
C837 C841 1.393 . S
C838 H830 0.950 . S
C838 C836 1.391 . S
C838 C839 1.400 . S
C839 C838 1.400 . S
C839 C840 1.398 . S
C839 C845 1.491 . S
C840 H831 0.950 . S
C840 C839 1.398 . S
C840 C841 1.391 . S
C841 H829 0.950 . S
C841 C837 1.393 . S
C841 C840 1.391 . S
C842 H832 0.950 . S
C842 C843 1.386 . S
C842 C844 1.391 . S
C843 C842 1.386 . S
C843 C847 1.393 . S
C844 H833 0.950 . S
C844 C842 1.391 . S
C844 C845 1.400 . S
C845 C839 1.491 . S
C845 C844 1.400 . S
C845 C846 1.398 . S
C846 H834 0.950 . S
C846 C845 1.398 . S
C846 C847 1.391 . S
C847 H835 0.950 . S
C847 C843 1.393 . S
C847 C846 1.391 . S
C217 C4 1.624 . S
C223 C166 1.622 . S
C237 C173 1.618 . S
C243 C23 1.626 . S
C257 C36 1.624 . S
C263 C192 1.622 . S
C277 C199 1.615 . S
C283 C43 1.626 . S
C297 C108 1.628 . S
C303 C62 1.612 . S
C317 C69 1.621 . S
C323 C121 1.624 . S
C337 C140 1.624 . S
C343 C88 1.622 . S
C357 C101 1.611 . S
C363 C153 1.628 . S
C377 C3 1.632 . S
C383 C31 1.632 . S
C397 C18 1.617 . S
C403 C42 1.617 . S
C417 C55 1.649 . S
C423 C81 1.651 . S
C437 C70 1.651 . S
C443 C94 1.650 . S
C457 C135 1.622 . S
C463 C107 1.621 . S
C477 C120 1.617 . S
C483 C148 1.617 . S
C497 C185 1.647 . S
C503 C159 1.649 . S
C517 C174 1.650 . S
C523 C200 1.651 . S
C537 C83 1.492 . S
C543 C5 1.494 . S
C557 C96 1.492 . S
C563 C16 1.491 . S
C577 C29 1.493 . S
C583 C57 1.491 . S
C597 C44 1.491 . S
C603 C68 1.492 . S
C617 C187 1.487 . S
C623 C109 1.491 . S
C637 C122 1.491 . S
C643 C198 1.492 . S
C657 C161 1.486 . S
C663 C133 1.487 . S
C677 C146 1.487 . S
C683 C172 1.484 . S
C697 C10 1.459 . S
C703 C49 1.468 . S
C717 C30 1.459 . S
C723 C17 1.465 . S
C737 C56 1.737 . S
C743 C95 1.738 . S
C757 C75 1.739 . S
C763 C82 1.738 . S
C777 C147 1.459 . S
C783 C114 1.468 . S
C797 C127 1.468 . S
C803 C134 1.459 . S
C817 C205 1.739 . S
C823 C160 1.738 . S
C837 C179 1.739 . S
C843 C186 1.738 . S
