# Generated by pormake.
# Topology snp, (6)-cn, num edge types: 1
# Building blocks:
#     Node 0, Type 0, BuildingBlock: LEVNOQ01_clean_sbu_1, # of connection points: 6
#     Node 1, Type 0, BuildingBlock: LEVNOQ01_clean_sbu_1, # of connection points: 6
#     Node 2, Type 0, BuildingBlock: LEVNOQ01_clean_sbu_1, # of connection points: 6
#     Node 3, Type 0, BuildingBlock: LEVNOQ01_clean_sbu_1, # of connection points: 6
#     Edge 4, Type (0, 0), BuildingBlock: UVAHIK_clean_linker_0, # of connection points: 2
#     Edge 5, Type (0, 0), BuildingBlock: UVAHIK_clean_linker_0, # of connection points: 2
#     Edge 6, Type (0, 0), BuildingBlock: UVAHIK_clean_linker_0, # of connection points: 2
#     Edge 7, Type (0, 0), BuildingBlock: UVAHIK_clean_linker_0, # of connection points: 2
#     Edge 8, Type (0, 0), BuildingBlock: UVAHIK_clean_linker_0, # of connection points: 2
#     Edge 9, Type (0, 0), BuildingBlock: UVAHIK_clean_linker_0, # of connection points: 2
#     Edge 10, Type (0, 0), BuildingBlock: UVAHIK_clean_linker_0, # of connection points: 2
#     Edge 11, Type (0, 0), BuildingBlock: UVAHIK_clean_linker_0, # of connection points: 2
#     Edge 12, Type (0, 0), BuildingBlock: UVAHIK_clean_linker_0, # of connection points: 2
#     Edge 13, Type (0, 0), BuildingBlock: UVAHIK_clean_linker_0, # of connection points: 2
#     Edge 14, Type (0, 0), BuildingBlock: UVAHIK_clean_linker_0, # of connection points: 2
#     Edge 15, Type (0, 0), BuildingBlock: UVAHIK_clean_linker_0, # of connection points: 2
# Relax obj value: 0.511
# Max RMSD: 0.249
# Mean RMSD: 0.247
data_MOF--net-snp--node1-LEVNOQ01_clean_sbu_1--edge1-UVAHIK_clean_linker_0
_symmetry_space_group_name_H-M    P1
_symmetry_Int_Tables_number       1
_symmetry_cell_setting            triclinic
loop_
_symmetry_equiv_pos_as_xyz
'x, y, z'
_cell_length_a     33.887237
_cell_length_b     33.909566
_cell_length_c     30.87191
_cell_angle_alpha  99.644132
_cell_angle_beta   99.70519
_cell_angle_gamma 92.846519
loop_
_atom_site_label
_atom_site_type_symbol
_atom_site_fract_x
_atom_site_fract_y
_atom_site_fract_z
_atom_type_partial_charge
O0 O 0.21071 0.0526 1.00848 0.0
Mg1 Mg 0.17456 0.00566 0.02256 0.0
O2 O 0.27095 0.04777 0.0498 0.0
Mg3 Mg 0.26129 -0.00039 0.09568 0.0
O4 O 0.19782 0.00749 0.08613 0.0
O5 O 0.13439 0.01597 0.06881 0.0
O6 O 0.24904 0.95138 0.13987 0.0
O7 O 0.26757 0.04836 0.15758 0.0
Mg8 Mg 0.33851 0.98319 0.17201 0.0
O9 O 0.32651 -0.00519 0.10928 0.0
O10 O 0.30528 0.9279 0.17036 0.0
O11 O 0.31564 0.03428 0.21034 0.0
O12 O 0.38862 -0.00966 0.1398 0.0
C13 C 0.22292 0.93163 1.00286 0.0
C14 C 0.24791 0.06357 0.02101 0.0
C15 C 0.16468 0.01334 0.09926 0.0
C16 C 0.2672 0.92636 0.16139 0.0
C17 C 0.28743 0.05567 0.19743 0.0
C18 C 0.36378 -0.00052 0.1073 0.0
O19 O 0.18964 0.94748 0.99594 0.0
O20 O 0.25248 0.94756 0.03349 0.0
O21 O -0.00399 0.29619 0.70012 0.0
Mg22 Mg 0.04672 0.31244 0.66952 0.0
O23 O 0.96491 0.24735 0.64575 0.0
Mg24 Mg 0.00158 0.23378 0.59059 0.0
O25 O 0.02473 0.29678 0.6039 0.0
O26 O 0.04084 0.35983 0.63129 0.0
O27 O 0.04007 0.21814 0.53506 0.0
O28 O 0.94841 0.25053 0.53696 0.0
Mg29 Mg 0.95496 0.15689 0.51559 0.0
O30 O 0.9766 0.17097 0.58121 0.0
O31 O 0.00683 0.16635 0.48581 0.0
O32 O 0.90933 0.19515 0.50475 0.0
O33 O 0.94782 0.11096 0.55198 0.0
C34 C 0.08727 0.23542 0.66912 0.0
C35 C 0.96687 0.26955 0.68384 0.0
C36 C 0.02212 0.33318 0.59871 0.0
C37 C 0.03696 0.19219 0.49913 0.0
C38 C 0.91611 0.23295 0.51183 0.0
C39 C 0.96634 0.13557 0.58675 0.0
O40 O 0.09368 0.27348 0.6776 0.0
O41 O 0.05528 0.2179 0.64321 0.0
O42 O 0.7174 0.03803 0.91905 0.0
Mg43 Mg 0.68529 0.9885 0.93698 0.0
O44 O 0.77229 0.04291 0.97159 0.0
Mg45 Mg 0.76459 -0.00132 1.01978 0.0
O46 O 0.6986 0.0007 1.00454 0.0
O47 O 0.63626 -0.00064 0.97046 0.0
O48 O 0.75724 0.95318 0.06876 0.0
O49 O 0.76606 0.05518 0.07793 0.0
Mg50 Mg 0.84538 0.00755 0.09876 0.0
O51 O 0.83045 -0.00364 0.03193 0.0
O52 O 0.81432 0.96015 0.1188 0.0
O53 O 0.82808 0.06533 0.11799 0.0
O54 O 0.89323 -0.00245 0.06508 0.0
C55 C 0.74131 0.9224 0.92799 0.0
C56 C 0.75235 0.05414 0.9374 0.0
C57 C 0.66215 0.00757 1.00703 0.0
C58 C 0.77939 0.94332 0.10263 0.0
C59 C 0.79305 0.07654 0.10808 0.0
C60 C 0.86726 -0.00753 0.02858 0.0
O61 O 0.7057 0.93128 0.91528 0.0
O62 O 0.76431 0.94395 0.96173 0.0
O63 O 0.94969 0.69393 0.40166 0.0
Mg64 Mg -0.0043 0.66558 0.43822 0.0
O65 O 0.95135 0.74793 0.45413 0.0
Mg66 Mg 0.00303 0.74252 0.51273 0.0
O67 O 0.98646 0.67545 0.50359 0.0
O68 O 0.98039 0.61456 0.46168 0.0
O69 O 0.05527 0.73706 0.57222 0.0
O70 O 0.95833 0.75434 0.56356 0.0
Mg71 Mg 0.03187 0.83143 0.58278 0.0
O72 O 0.01921 0.80656 0.51874 0.0
O73 O 0.07978 0.79899 0.6065 0.0
O74 O 0.97616 0.81659 0.60242 0.0
O75 O 0.03751 0.87049 0.53678 0.0
C76 C 0.06682 0.71527 0.43813 0.0
C77 C 0.93655 0.72736 0.41561 0.0
C78 C 0.977 0.63735 0.49854 0.0
C79 C 0.08139 0.76114 0.60065 0.0
C80 C 0.95281 0.78446 0.59263 0.0
C81 C 0.02572 0.83971 0.5058 0.0
O82 O 0.05463 0.67854 0.42608 0.0
O83 O 0.04949 0.73777 0.4652 0.0
C84 C 0.90557 0.0094 0.97496 0.0
C85 C 0.8808 0.97977 0.98624 0.0
C86 C 0.94675 0.00477 0.97962 0.0
C87 C 0.02259 0.94641 0.03558 0.0
H88 H 0.01257 0.02499 0.13939 0.0
C89 C 0.15045 0.97083 0.15005 0.0
C90 C 0.15855 0.01043 0.14439 0.0
C91 C 0.11157 0.95877 0.15469 0.0
C92 C 0.01618 0.00293 0.11094 0.0
H93 H 0.87394 0.91639 0.98763 0.0
H94 H 0.94451 0.90736 0.99355 0.0
H95 H 0.96739 0.02309 0.06964 0.0
H96 H 0.14266 0.07099 0.16277 0.0
H97 H 0.07534 0.05067 0.16947 0.0
H98 H 0.07308 0.92783 0.07544 0.0
C99 C 0.9342 0.93553 0.98575 0.0
C100 C -0.00957 0.00211 0.07059 0.0
C101 C 0.8932 0.94062 0.98163 0.0
C102 C 0.13518 0.03952 0.16266 0.0
C103 C 0.09598 0.0275 0.16597 0.0
C104 C 0.04949 0.94816 0.0756 0.0
C105 C 0.9612 0.96969 0.99298 0.0
C106 C -0.00644 0.97412 0.03238 0.0
C107 C 0.08226 0.98665 0.15151 0.0
C108 C 0.04729 0.97714 0.11383 0.0
H109 H 0.89572 0.0393 0.9748 0.0
H110 H 0.96714 0.03111 0.98253 0.0
H111 H 0.02473 0.92373 1.00702 0.0
H112 H 0.16933 0.94772 0.13913 0.0
H113 H 0.10279 0.92692 0.14912 0.0
C114 C 0.97123 0.8469 0.44811 0.0
C115 C 0.01292 0.84554 0.45966 0.0
C116 C 0.95617 0.88398 0.44394 0.0
C117 C -0.00195 -0.01016 0.48834 0.0
H118 H 0.9664 0.96325 0.59601 0.0
C119 C 0.0223 0.11078 0.62805 0.0
C120 C 0.98222 0.11968 0.62695 0.0
C121 C 0.02991 0.07068 0.61597 0.0
C122 C 0.97546 0.97103 0.56628 0.0
H123 H 0.0695 0.8721 0.45073 0.0
H124 H 0.04425 0.93659 0.44432 0.0
H125 H 0.95622 0.91291 0.52847 0.0
H126 H 0.92577 0.09754 0.64081 0.0
H127 H 0.93782 0.02768 0.61986 0.0
H128 H 0.01773 0.0479 0.52668 0.0
C129 C 0.02266 0.91152 0.44277 0.0
C130 C 0.96875 0.94258 0.52705 0.0
C131 C 0.03731 0.87418 0.44625 0.0
C132 C 0.95587 0.09044 0.63659 0.0
C133 C 0.96265 0.05015 0.62398 0.0
C134 C 0.00474 0.01828 0.5276 0.0
C135 C 0.98368 0.9179 0.45109 0.0
C136 C 0.98061 0.95138 0.48772 0.0
C137 C -0.00232 0.04096 0.60685 0.0
C138 C -0.00569 0.00888 0.56725 0.0
H139 H 0.95121 0.82396 0.4551 0.0
H140 H 0.92503 0.88753 0.44666 0.0
H141 H 0.00773 -0.00255 0.45886 0.0
H142 H 0.04466 0.13363 0.625 0.0
H143 H 0.05827 0.06404 0.60576 0.0
C144 C 0.65663 0.0752 0.04715 0.0
C145 C 0.65134 0.03357 0.04529 0.0
C146 C 0.6302 0.10044 0.06588 0.0
C147 C 0.54194 0.10589 0.12084 0.0
H148 H 0.47987 0.10239 1.00231 0.0
C149 C 0.40538 0.01219 0.05209 0.0
C150 C 0.37869 0.02615 0.08001 0.0
C151 C 0.43404 0.03902 0.04281 0.0
C152 C 0.49688 0.10554 0.03589 0.0
H153 H 0.61914 0.98616 0.06703 0.0
H154 H 0.57457 0.03032 0.10223 0.0
H155 H 0.55297 0.10541 1.01303 0.0
H156 H 0.35743 0.07885 0.11611 0.0
H157 H 0.40936 0.12553 0.10221 0.0
H158 H 0.48562 0.10211 0.14287 0.0
C159 C 0.5985 0.04363 0.08875 0.0
C160 C 0.53876 0.10728 0.04216 0.0
C161 C 0.62399 0.01824 0.06869 0.0
C162 C 0.37758 0.06765 0.09394 0.0
C163 C 0.40725 0.09436 0.0861 0.0
C164 C 0.50013 0.10542 0.11482 0.0
C165 C 0.59916 0.0842 0.08399 0.0
C166 C 0.56121 0.10373 0.08385 0.0
C167 C 0.43723 0.07973 0.06295 0.0
C168 C 0.4773 0.10153 0.07161 0.0
H169 H 0.67738 0.08744 0.02872 0.0
H170 H 0.63111 0.13153 0.06164 0.0
H171 H 0.55862 0.103 0.15318 0.0
H172 H 0.40703 0.98027 0.04163 0.0
H173 H 0.45713 0.02697 0.02521 0.0
C174 C -0.00499 0.372 0.54095 0.0
C175 C -0.0119 0.34517 0.56918 0.0
C176 C 0.96523 0.3967 0.52762 0.0
C177 C 0.89527 0.44911 0.50839 0.0
H178 H 0.91317 0.51644 0.6258 0.0
C179 C 0.91346 0.61304 0.51659 0.0
C180 C 0.95532 0.62028 0.52906 0.0
C181 C 0.8934 0.58163 0.53026 0.0
C182 C 0.90629 0.49778 0.59295 0.0
H183 H 0.94412 0.32021 0.60262 0.0
H184 H 0.89263 0.36474 0.58089 0.0
H185 H 0.9184 0.44424 0.61908 0.0
H186 H 0.00845 0.60463 0.56984 0.0
H187 H 0.97346 0.55056 0.59507 0.0
H188 H 0.88679 0.50306 0.48213 0.0
C189 C 0.92031 0.36576 0.5678 0.0
C190 C 0.90917 0.45642 0.589 0.0
C191 C 0.94973 0.34027 0.58005 0.0
C192 C 0.97606 0.59985 0.56043 0.0
C193 C 0.9559 0.5689 0.57479 0.0
C194 C 0.89138 0.4903 0.51234 0.0
C195 C 0.92883 0.39577 0.54379 0.0
C196 C 0.90701 0.43244 0.54668 0.0
C197 C 0.91511 0.55748 0.55686 0.0
C198 C 0.90027 0.51532 0.55456 0.0
H199 H 0.02461 0.37669 0.53292 0.0
H200 H 0.97268 0.41994 0.50948 0.0
H201 H 0.89352 0.43119 0.47549 0.0
H202 H 0.89708 0.62835 0.49194 0.0
H203 H 0.86202 0.5734 0.51602 0.0
C204 C 0.05928 0.17866 0.42547 0.0
C205 C 0.06908 0.19131 0.47196 0.0
C206 C 0.08934 0.17485 0.39953 0.0
C207 C 0.19025 0.14772 0.40217 0.0
H208 H 0.18389 0.19057 0.29259 0.0
C209 C 0.29201 0.09406 0.27562 0.0
C210 C 0.27269 0.08556 0.2307 0.0
C211 C 0.27385 0.11652 0.30814 0.0
C212 C 0.18605 0.1781 0.32289 0.0
H213 H 0.11805 0.21031 0.52779 0.0
H214 H 0.17108 0.20213 0.48222 0.0
H215 H 0.13842 0.2115 0.34403 0.0
H216 H 0.22003 0.09611 0.18453 0.0
H217 H 0.1881 0.13358 0.24073 0.0
H218 H 0.23569 0.11208 0.37997 0.0
C219 C 0.13993 0.1959 0.46603 0.0
C220 C 0.16017 0.1904 0.35248 0.0
C221 C 0.10966 0.20071 0.49198 0.0
C222 C 0.23595 0.102 0.21875 0.0
C223 C 0.21762 0.1239 0.2512 0.0
C224 C 0.21568 0.13484 0.37221 0.0
C225 C 0.12996 0.18275 0.41958 0.0
C226 C 0.16141 0.17463 0.39188 0.0
C227 C 0.23576 0.13064 0.29658 0.0
C228 C 0.21322 0.14903 0.33153 0.0
H229 H 0.02827 0.17133 0.40912 0.0
H230 H 0.08087 0.16432 0.36386 0.0
H231 H 0.19155 0.13485 0.43217 0.0
H232 H 0.32043 0.08211 0.28597 0.0
H233 H 0.28922 0.1218 0.34254 0.0
C234 C 0.90764 0.22779 0.69456 0.0
C235 C 0.93688 0.26012 0.71133 0.0
C236 C 0.88321 0.21419 0.72195 0.0
C237 C 0.88212 0.21278 0.84098 0.0
H238 H 0.77708 0.15792 0.79171 0.0
C239 C 0.81273 0.09277 0.92398 0.0
C240 C 0.77078 0.08586 0.91777 0.0
C241 C 0.83022 0.12066 0.90279 0.0
C242 C 0.80601 0.17367 0.80658 0.0
H243 H 0.96141 0.30512 0.76954 0.0
H244 H 0.91776 0.28199 0.81726 0.0
H245 H 0.80977 0.19732 0.74735 0.0
H246 H 0.71422 0.10436 0.88655 0.0
H247 H 0.74455 0.15422 0.85118 0.0
H248 H 0.87793 0.18989 0.90066 0.0
C249 C 0.91458 0.26651 0.78307 0.0
C250 C 0.82511 0.19588 0.78071 0.0
C251 C 0.93939 0.28001 0.7556 0.0
C252 C 0.74667 0.10861 0.89143 0.0
C253 C 0.76414 0.13707 0.87093 0.0
C254 C 0.86273 0.19102 0.86716 0.0
C255 C 0.88685 0.23275 0.76687 0.0
C256 C 0.86397 0.21469 0.79699 0.0
C257 C 0.80619 0.14293 0.87551 0.0
C258 C 0.82487 0.17016 0.84987 0.0
H259 H 0.9047 0.2116 0.66066 0.0
H260 H 0.86281 0.18777 0.70827 0.0
H261 H 0.9121 0.22661 0.8547 0.0
H262 H 0.83212 0.07557 0.94395 0.0
H263 H 0.86263 0.12362 0.90665 0.0
C264 C 0.89896 0.72869 0.33899 0.0
C265 C 0.90537 0.74359 0.38513 0.0
C266 C 0.87215 0.74574 0.3093 0.0
C267 C 0.82569 0.84064 0.30011 0.0
H268 H 0.76865 0.7789 0.18776 0.0
C269 C 0.752 0.92254 0.16524 0.0
C270 C 0.76584 0.91151 0.12494 0.0
C271 C 0.75505 0.89709 0.19675 0.0
C272 C 0.78419 0.79653 0.21909 0.0
H273 H 0.88657 0.78649 0.43653 0.0
H274 H 0.83954 0.81634 0.38463 0.0
H275 H 0.80169 0.74423 0.24546 0.0
H276 H 0.79113 0.8645 0.08439 0.0
H277 H 0.79603 0.81969 0.1389 0.0
H278 H 0.80927 0.8929 0.27341 0.0
C279 C 0.85601 0.79197 0.3713 0.0
C280 C 0.80332 0.77671 0.25211 0.0
C281 C 0.883 0.77491 0.40108 0.0
C282 C 0.77927 0.87316 0.11479 0.0
C283 C 0.7823 0.84763 0.14623 0.0
C284 C 0.80636 0.8604 0.26727 0.0
C285 C 0.85072 0.77801 0.32491 0.0
C286 C 0.82534 0.79856 0.29254 0.0
C287 C 0.77237 0.86031 0.18858 0.0
C288 C 0.78629 0.83868 0.22588 0.0
H289 H 0.91572 0.70464 0.32548 0.0
H290 H 0.8695 0.73454 0.27388 0.0
H291 H 0.84275 0.85857 0.33044 0.0
H292 H 0.74235 0.95236 0.17413 0.0
H293 H 0.7466 0.90747 0.22879 0.0
C294 C 0.14929 0.76663 0.64607 0.0
C295 C 0.11085 0.74637 0.63358 0.0
C296 C 0.17155 0.76747 0.6886 0.0
C297 C 0.14513 0.77117 0.79756 0.0
H298 H 0.25952 0.79736 0.83817 0.0
C299 C 0.19962 0.86086 0.97144 0.0
C300 C 0.22648 0.89405 0.97298 0.0
C301 C 0.19396 0.82911 0.93529 0.0
C302 C 0.22751 0.79006 0.82743 0.0
H303 H 0.06759 0.70694 0.65315 0.0
H304 H 0.10681 0.7077 0.7275 0.0
H305 H 0.23465 0.7618 0.76198 0.0
H306 H 0.27008 0.91967 0.93979 0.0
H307 H 0.25942 0.8649 0.87558 0.0
H308 H 0.13734 0.80153 0.86132 0.0
C309 C 0.11956 0.72345 0.70469 0.0
C310 C 0.21329 0.7695 0.78386 0.0
C311 C 0.09733 0.72247 0.66189 0.0
C312 C 0.24972 0.89391 0.9395 0.0
C313 C 0.24352 0.86247 0.90275 0.0
C314 C 0.15925 0.79177 0.84086 0.0
C315 C 0.15558 0.74822 0.71948 0.0
C316 C 0.1718 0.76095 0.76798 0.0
C317 C 0.21418 0.83056 0.89927 0.0
C318 C 0.20053 0.80257 0.85602 0.0
H319 H 0.16019 0.78546 0.62479 0.0
H320 H 0.19906 0.78691 0.6987 0.0
H321 H 0.11295 0.766 0.78635 0.0
H322 H 0.18121 0.86063 0.99692 0.0
H323 H 0.17191 0.8046 0.93432 0.0
C324 C 0.79974 0.88912 0.90175 0.0
C325 C 0.758 0.8905 0.89866 0.0
C326 C 0.81578 0.86504 0.86861 0.0
C327 C 0.78893 0.82613 0.74871 0.0
H328 H 0.89024 0.7775 0.7665 0.0
C329 C 0.91327 0.7511 0.64026 0.0
C330 C 0.91938 0.78288 0.61758 0.0
C331 C 0.88774 0.75451 0.67193 0.0
C332 C 0.86155 0.79029 0.76089 0.0
H333 H 0.70029 0.86504 0.85976 0.0
H334 H 0.72817 0.82288 0.80212 0.0
H335 H 0.85792 0.79982 0.83058 0.0
H336 H 0.90206 0.84184 0.608 0.0
H337 H 0.85675 0.84726 0.66174 0.0
H338 H 0.79331 0.8181 0.67942 0.0
C339 C 0.74861 0.84097 0.82991 0.0
C340 C 0.84325 0.80345 0.79765 0.0
C341 C 0.73262 0.86502 0.86312 0.0
C342 C 0.89765 0.81681 0.62486 0.0
C343 C 0.87166 0.81987 0.65562 0.0
C344 C 0.80736 0.8133 0.71213 0.0
C345 C 0.79036 0.84176 0.83139 0.0
C346 C 0.80716 0.82239 0.79214 0.0
C347 C 0.86731 0.78936 0.68056 0.0
C348 C 0.84439 0.79619 0.71792 0.0
H349 H 0.82001 0.90873 0.92816 0.0
H350 H 0.84807 0.86677 0.87071 0.0
H351 H 0.76142 0.84094 0.74317 0.0
H352 H 0.93012 0.72486 0.63562 0.0
H353 H 0.88485 0.73048 0.69057 0.0
C354 C 0.21811 0.91715 0.21095 0.0
C355 C 0.24432 0.90019 0.18369 0.0
C356 C 0.20088 0.89457 0.2379 0.0
C357 C 0.17376 0.79349 0.25502 0.0
H358 H 0.18752 0.84298 0.37987 0.0
C359 C 0.11492 0.71052 0.38373 0.0
C360 C 0.0964 0.73384 0.4155 0.0
C361 C 0.13736 0.72889 0.35724 0.0
C362 C 0.18289 0.82878 0.34509 0.0
H363 H 0.27306 0.84638 0.16291 0.0
H364 H 0.24184 0.80622 0.20935 0.0
H365 H 0.21442 0.8784 0.3275 0.0
H366 H 0.08864 0.7949 0.44561 0.0
H367 H 0.12625 0.82659 0.39904 0.0
H368 H 0.14081 0.74456 0.27199 0.0
C369 C 0.23458 0.837 0.20962 0.0
C370 C 0.19848 0.84912 0.31511 0.0
C371 C 0.25237 0.85988 0.18311 0.0
C372 C 0.10249 0.77588 0.42159 0.0
C373 C 0.12439 0.79417 0.39485 0.0
C374 C 0.15754 0.77334 0.28491 0.0
C375 C 0.20939 0.85446 0.23805 0.0
C376 C 0.19375 0.83189 0.26971 0.0
C377 C 0.14149 0.77101 0.3616 0.0
C378 C 0.16151 0.79089 0.33035 0.0
H379 H 0.21266 0.94856 0.21331 0.0
H380 H 0.18153 0.90876 0.25942 0.0
H381 H 0.1696 0.77959 0.22014 0.0
H382 H 0.11104 0.67806 0.37829 0.0
H383 H 0.1508 0.71 0.33276 0.0
C384 C 0.09954 0.17994 0.7127 0.0
C385 C 0.11484 0.21227 0.69576 0.0
C386 C 0.12343 0.16415 0.74622 0.0
C387 C 0.22666 0.16047 0.80758 0.0
H388 H 0.17201 0.15477 0.90729 0.0
C389 C 0.27596 0.07809 0.95646 0.0
C390 C 0.2634 0.09292 0.99677 0.0
C391 C 0.2686 0.09844 0.9203 0.0
C392 C 0.188 0.15672 0.88006 0.0
H393 H 0.16793 0.25162 0.69846 0.0
H394 H 0.20984 0.22361 0.75657 0.0
H395 H 0.136 0.17331 0.83971 0.0
H396 H 0.23844 0.14294 0.033 0.0
H397 H 0.22728 0.17939 0.97085 0.0
H398 H 0.27867 0.14323 0.8483 0.0
C399 C 0.1794 0.21053 0.74402 0.0
C400 C 0.16707 0.16667 0.84097 0.0
C401 C 0.15536 0.2266 0.71082 0.0
C402 C 0.24896 0.13116 1.0025 0.0
C403 C 0.2418 0.1516 0.96656 0.0
C404 C 0.2476 0.14993 0.84675 0.0
C405 C 0.1632 0.18021 0.76332 0.0
C406 C 0.18599 0.16848 0.80416 0.0
C407 C 0.24868 0.13394 0.92418 0.0
C408 C 0.22847 0.14807 0.8835 0.0
H409 H 0.06827 0.16886 0.70259 0.0
H410 H 0.11023 0.14051 0.76017 0.0
H411 H 0.24205 0.16174 0.77976 0.0
H412 H 0.28638 0.04827 0.95093 0.0
H413 H 0.2744 0.08407 0.88817 0.0
C414 C 0.81426 0.14549 0.14854 0.0
C415 C 0.78427 0.11358 0.13614 0.0
C416 C 0.81479 0.1744 0.18654 0.0
C417 C 0.78461 0.17769 0.29521 0.0
H418 H 0.84307 0.28263 0.32022 0.0
C419 C 0.90675 0.26652 0.44639 0.0
C420 C 0.8903 0.25343 0.48081 0.0
C421 C 0.88298 0.26429 0.40409 0.0
C422 C 0.82646 0.25351 0.31382 0.0
H423 H 0.72893 0.08904 0.15093 0.0
H424 H 0.72911 0.14034 0.21723 0.0
H425 H 0.81815 0.25017 0.24291 0.0
H426 H 0.83523 0.23411 0.50046 0.0
H427 H 0.79327 0.23257 0.42776 0.0
H428 H 0.79436 0.17995 0.36566 0.0
C429 C 0.75279 0.14257 0.19798 0.0
C430 C 0.81218 0.23482 0.26947 0.0
C431 C 0.75225 0.11352 0.15963 0.0
C432 C 0.84859 0.24454 0.47449 0.0
C433 C 0.82474 0.24285 0.43252 0.0
C434 C 0.79864 0.19641 0.3394 0.0
C435 C 0.78528 0.17211 0.21323 0.0
C436 C 0.79231 0.196 0.25953 0.0
C437 C 0.84229 0.24955 0.39595 0.0
C438 C 0.82088 0.23402 0.34935 0.0
H439 H 0.83938 0.14609 0.13102 0.0
H440 H 0.84045 0.19628 0.19703 0.0
H441 H 0.7702 0.14757 0.28921 0.0
H442 H 0.93892 0.27296 0.45019 0.0
H443 H 0.89761 0.26985 0.37685 0.0
loop_
_geom_bond_atom_site_label_1
_geom_bond_atom_site_label_2
_geom_bond_distance
_geom_bond_site_symmetry_2
_ccdc_geom_bond_type
O0 Mg1 1.990 . S
O0 C14 1.253 . S
Mg1 O0 1.990 . S
Mg1 O4 2.180 1_556 S
Mg1 O5 2.117 1_556 S
Mg1 O19 2.030 1_545 S
O2 Mg3 2.072 . S
O2 C14 1.260 1_554 S
Mg3 O2 2.072 . S
Mg3 O4 2.099 . S
Mg3 O6 2.079 1_545 S
Mg3 O7 2.072 . S
Mg3 O9 2.099 . S
Mg3 O20 2.079 1_545 S
O4 Mg1 2.180 1_554 S
O4 Mg3 2.099 . S
O4 C15 1.279 . S
O5 Mg1 2.117 1_554 S
O5 C15 1.250 . S
O6 Mg3 2.079 1_565 S
O6 C16 1.264 . S
O7 Mg3 2.072 . S
O7 C17 1.260 . S
Mg8 O9 2.180 . S
Mg8 O10 2.030 1_545 S
Mg8 O11 1.990 . S
Mg8 O12 2.117 . S
O9 Mg3 2.099 . S
O9 Mg8 2.180 . S
O9 C18 1.279 . S
O10 Mg8 2.030 1_565 S
O10 C16 1.248 . S
O11 Mg8 1.990 . S
O11 C17 1.253 . S
O12 Mg8 2.117 . S
O12 C18 1.250 . S
C13 O19 1.248 . S
C13 O20 1.264 1_556 S
C14 O0 1.253 . S
C14 O2 1.260 1_556 S
C15 O4 1.279 . S
C15 O5 1.250 . S
C16 O6 1.264 . S
C16 O10 1.248 . S
C17 O7 1.260 . S
C17 O11 1.253 . S
C18 O9 1.279 . S
C18 O12 1.250 . S
O19 Mg1 2.030 1_565 S
O19 C13 1.248 . S
O20 Mg3 2.079 1_565 S
O20 C13 1.264 1_554 S
O21 Mg22 1.990 1_655 S
O21 C35 1.253 . S
Mg22 O21 1.990 1_455 S
Mg22 O25 2.180 . S
Mg22 O26 2.122 . S
Mg22 O40 2.030 . S
O23 Mg24 2.072 1_655 S
O23 C35 1.260 . S
Mg24 O23 2.072 1_455 S
Mg24 O25 2.099 . S
Mg24 O27 2.079 . S
Mg24 O28 2.072 1_455 S
Mg24 O30 2.099 . S
Mg24 O41 2.079 . S
O25 Mg22 2.180 . S
O25 Mg24 2.099 . S
O25 C36 1.279 . S
O26 Mg22 2.122 . S
O26 C36 1.259 . S
O27 Mg24 2.079 . S
O27 C37 1.264 . S
O28 Mg24 2.072 1_655 S
O28 C38 1.260 . S
Mg29 O30 2.180 . S
Mg29 O31 2.030 . S
Mg29 O32 1.990 1_455 S
Mg29 O33 2.117 1_455 S
O30 Mg24 2.099 . S
O30 Mg29 2.180 . S
O30 C39 1.279 . S
O31 Mg29 2.030 . S
O31 C37 1.248 . S
O32 Mg29 1.990 1_655 S
O32 C38 1.253 . S
O33 Mg29 2.117 1_655 S
O33 C39 1.250 1_655 S
C34 O40 1.248 . S
C34 O41 1.264 . S
C35 O21 1.253 . S
C35 O23 1.260 . S
C36 O25 1.279 . S
C36 O26 1.259 . S
C37 O27 1.264 . S
C37 O31 1.248 . S
C38 O28 1.260 . S
C38 O32 1.253 . S
C39 O30 1.279 . S
C39 O33 1.250 1_455 S
O40 Mg22 2.030 . S
O40 C34 1.248 . S
O41 Mg24 2.079 . S
O41 C34 1.264 . S
O42 Mg43 1.990 1_545 S
O42 C56 1.253 . S
Mg43 O42 1.990 1_565 S
Mg43 O46 2.180 . S
Mg43 O47 2.117 1_565 S
Mg43 O61 2.030 . S
O44 Mg45 2.072 1_546 S
O44 C56 1.260 . S
Mg45 O44 2.072 1_564 S
Mg45 O46 2.099 1_554 S
Mg45 O48 2.079 . S
Mg45 O49 2.072 1_565 S
Mg45 O51 2.099 . S
Mg45 O62 2.079 1_554 S
O46 Mg43 2.180 . S
O46 Mg45 2.099 1_556 S
O46 C57 1.279 1_565 S
O47 Mg43 2.117 1_545 S
O47 C57 1.250 . S
O48 Mg45 2.079 . S
O48 C58 1.264 . S
O49 Mg45 2.072 1_545 S
O49 C59 1.260 . S
Mg50 O51 2.181 1_545 S
Mg50 O52 2.020 1_545 S
Mg50 O53 2.003 . S
Mg50 O54 2.124 . S
O51 Mg45 2.099 . S
O51 Mg50 2.181 1_565 S
O51 C60 1.279 1_565 S
O52 Mg50 2.020 1_565 S
O52 C58 1.248 . S
O53 Mg50 2.003 . S
O53 C59 1.253 . S
O54 Mg50 2.124 . S
O54 C60 1.250 . S
C55 O61 1.248 . S
C55 O62 1.264 . S
C56 O42 1.253 . S
C56 O44 1.260 . S
C57 O46 1.279 1_545 S
C57 O47 1.250 . S
C58 O48 1.264 . S
C58 O52 1.248 . S
C59 O49 1.260 . S
C59 O53 1.253 . S
C60 O51 1.279 1_545 S
C60 O54 1.250 . S
O61 Mg43 2.030 . S
O61 C55 1.248 . S
O62 Mg45 2.079 1_556 S
O62 C55 1.264 . S
O63 Mg64 1.990 1_655 S
O63 C77 1.253 . S
Mg64 O63 1.990 1_455 S
Mg64 O67 2.180 . S
Mg64 O68 2.117 1_455 S
Mg64 O82 2.030 . S
O65 Mg66 2.072 1_655 S
O65 C77 1.260 . S
Mg66 O65 2.072 1_455 S
Mg66 O67 2.099 . S
Mg66 O69 2.079 . S
Mg66 O70 2.072 1_455 S
Mg66 O72 2.099 . S
Mg66 O83 2.079 . S
O67 Mg64 2.180 . S
O67 Mg66 2.099 . S
O67 C78 1.279 1_455 S
O68 Mg64 2.117 1_655 S
O68 C78 1.250 . S
O69 Mg66 2.079 . S
O69 C79 1.264 . S
O70 Mg66 2.072 1_655 S
O70 C80 1.260 . S
Mg71 O72 2.180 . S
Mg71 O73 2.030 . S
Mg71 O74 1.990 1_455 S
Mg71 O75 2.117 1_455 S
O72 Mg66 2.099 . S
O72 Mg71 2.180 . S
O72 C81 1.279 1_455 S
O73 Mg71 2.030 . S
O73 C79 1.248 . S
O74 Mg71 1.990 1_655 S
O74 C80 1.253 . S
O75 Mg71 2.117 1_655 S
O75 C81 1.250 . S
C76 O82 1.248 . S
C76 O83 1.264 . S
C77 O63 1.253 . S
C77 O65 1.260 . S
C78 O67 1.279 1_655 S
C78 O68 1.250 . S
C79 O69 1.264 . S
C79 O73 1.248 . S
C80 O70 1.260 . S
C80 O74 1.253 . S
C81 O72 1.279 1_655 S
C81 O75 1.250 . S
O82 Mg64 2.030 . S
O82 C76 1.248 . S
O83 Mg66 2.079 . S
O83 C76 1.264 . S
C84 C85 1.349 1_554 S
C84 C86 1.327 . S
C84 H109 0.950 . S
C85 C84 1.349 1_556 S
C85 C101 1.349 1_545 S
C86 C84 1.327 . S
C86 C105 1.429 . S
C86 H110 0.950 . S
C87 C104 1.574 1_655 S
C87 C106 1.368 1_565 S
C87 H111 0.949 1_554 S
H88 C92 0.949 . S
C89 C90 1.349 1_565 S
C89 C91 1.327 . S
C89 H112 0.950 . S
C90 C89 1.349 1_545 S
C90 C102 1.349 . S
C91 C89 1.327 . S
C91 C107 1.429 1_565 S
C91 H113 0.950 . S
C92 H88 0.949 . S
C92 C100 1.574 1_455 S
C92 C108 1.368 . S
H93 C101 0.950 . S
H94 C99 0.950 . S
H95 C100 0.949 . S
H96 C102 0.950 . S
H97 C103 0.950 . S
H98 C104 0.949 . S
C99 H94 0.950 . S
C99 C101 1.327 . S
C99 C105 1.429 1_566 S
C100 C92 1.574 1_655 S
C100 H95 0.949 . S
C100 C106 1.368 . S
C101 C85 1.349 1_565 S
C101 H93 0.950 . S
C101 C99 1.327 . S
C102 C90 1.349 . S
C102 H96 0.950 . S
C102 C103 1.327 . S
C103 H97 0.950 . S
C103 C102 1.327 . S
C103 C107 1.429 . S
C104 C87 1.574 1_455 S
C104 H98 0.949 . S
C104 C108 1.368 1_565 S
C105 C86 1.429 . S
C105 C99 1.429 1_544 S
C105 C106 1.523 . S
C106 C87 1.368 1_545 S
C106 C100 1.368 . S
C106 C105 1.523 . S
C107 C91 1.429 1_545 S
C107 C103 1.429 . S
C107 C108 1.523 . S
C108 C92 1.368 . S
C108 C104 1.368 1_545 S
C108 C107 1.523 . S
H109 C84 0.950 . S
H110 C86 0.950 . S
H111 C87 0.949 1_556 S
H112 C89 0.950 . S
H113 C91 0.950 . S
C114 C115 1.349 . S
C114 C116 1.327 . S
C114 H139 0.950 . S
C115 C114 1.349 . S
C115 C131 1.349 1_655 S
C116 C114 1.327 . S
C116 C135 1.429 . S
C116 H140 0.950 . S
C117 C134 1.574 1_565 S
C117 C136 1.373 . S
C117 H141 0.949 . S
H118 C122 0.949 . S
C119 C120 1.349 . S
C119 C121 1.327 . S
C119 H142 0.950 . S
C120 C119 1.349 . S
C120 C132 1.349 . S
C121 C119 1.327 . S
C121 C137 1.429 . S
C121 H143 0.950 . S
C122 H118 0.949 . S
C122 C130 1.574 1_545 S
C122 C138 1.368 1_655 S
H123 C131 0.950 . S
H124 C129 0.950 . S
H125 C130 0.949 . S
H126 C132 0.950 1_655 S
H127 C133 0.950 . S
H128 C134 0.949 . S
C129 H124 0.950 . S
C129 C131 1.327 . S
C129 C135 1.429 1_455 S
C130 C122 1.574 1_565 S
C130 H125 0.949 . S
C130 C136 1.363 1_655 S
C131 C115 1.349 1_455 S
C131 H123 0.950 . S
C131 C129 1.327 . S
C132 C120 1.349 . S
C132 H126 0.950 1_455 S
C132 C133 1.327 1_455 S
C133 H127 0.950 . S
C133 C132 1.327 1_655 S
C133 C137 1.429 1_655 S
C134 C117 1.574 1_545 S
C134 H128 0.949 . S
C134 C138 1.368 . S
C135 C116 1.429 . S
C135 C129 1.429 1_655 S
C135 C136 1.523 1_655 S
C136 C117 1.373 . S
C136 C130 1.363 1_455 S
C136 C135 1.523 1_455 S
C137 C121 1.429 . S
C137 C133 1.429 1_455 S
C137 C138 1.523 . S
C138 C122 1.368 1_455 S
C138 C134 1.368 . S
C138 C137 1.523 . S
H139 C114 0.950 . S
H140 C116 0.950 . S
H141 C117 0.949 . S
H142 C119 0.950 . S
H143 C121 0.950 . S
C144 C145 1.349 . S
C144 C146 1.327 . S
C144 H169 0.950 1_554 S
C145 C144 1.349 . S
C145 C161 1.349 1_545 S
C146 C144 1.327 . S
C146 C165 1.429 . S
C146 H170 0.950 . S
C147 C164 1.574 . S
C147 C166 1.368 1_565 S
C147 H171 0.949 . S
H148 C152 0.949 . S
C149 C150 1.349 1_565 S
C149 C151 1.327 . S
C149 H172 0.950 . S
C150 C149 1.349 1_545 S
C150 C162 1.349 . S
C151 C149 1.327 . S
C151 C167 1.429 1_565 S
C151 H173 0.950 . S
C152 H148 0.949 . S
C152 C160 1.574 . S
C152 C168 1.368 . S
H153 C161 0.950 . S
H154 C159 0.950 . S
H155 C160 0.949 . S
H156 C162 0.950 . S
H157 C163 0.950 . S
H158 C164 0.949 . S
C159 H154 0.950 . S
C159 C161 1.327 . S
C159 C165 1.429 1_565 S
C160 C152 1.574 . S
C160 H155 0.949 . S
C160 C166 1.368 . S
C161 C145 1.349 1_565 S
C161 H153 0.950 . S
C161 C159 1.327 . S
C162 C150 1.349 . S
C162 H156 0.950 . S
C162 C163 1.327 . S
C163 H157 0.950 . S
C163 C162 1.327 . S
C163 C167 1.429 . S
C164 C147 1.574 . S
C164 H158 0.949 . S
C164 C168 1.368 1_565 S
C165 C146 1.429 . S
C165 C159 1.429 1_545 S
C165 C166 1.523 . S
C166 C147 1.368 1_545 S
C166 C160 1.368 . S
C166 C165 1.523 . S
C167 C151 1.429 1_545 S
C167 C163 1.429 . S
C167 C168 1.523 . S
C168 C152 1.368 . S
C168 C164 1.368 1_545 S
C168 C167 1.523 . S
H169 C144 0.950 1_556 S
H170 C146 0.950 . S
H171 C147 0.949 . S
H172 C149 0.950 . S
H173 C151 0.950 . S
C174 C175 1.349 . S
C174 C176 1.327 . S
C174 H199 0.950 . S
C175 C174 1.349 . S
C175 C191 1.346 1_455 S
C176 C174 1.327 . S
C176 C195 1.429 . S
C176 H200 0.950 . S
C177 C194 1.574 . S
C177 C196 1.368 1_655 S
C177 H201 0.949 . S
H178 C182 0.949 . S
C179 C180 1.349 . S
C179 C181 1.327 . S
C179 H202 0.950 . S
C180 C179 1.349 . S
C180 C192 1.349 1_655 S
C181 C179 1.327 . S
C181 C197 1.429 . S
C181 H203 0.950 . S
C182 H178 0.949 . S
C182 C190 1.574 . S
C182 C198 1.368 . S
H183 C191 0.952 . S
H184 C189 0.950 . S
H185 C190 0.949 . S
H186 C192 0.950 . S
H187 C193 0.950 . S
H188 C194 0.949 . S
C189 H184 0.950 . S
C189 C191 1.328 . S
C189 C195 1.429 1_655 S
C190 C182 1.574 . S
C190 H185 0.949 . S
C190 C196 1.368 . S
C191 C175 1.346 1_655 S
C191 H183 0.952 . S
C191 C189 1.328 . S
C192 C180 1.349 1_455 S
C192 H186 0.950 . S
C192 C193 1.327 . S
C193 H187 0.950 . S
C193 C192 1.327 . S
C193 C197 1.429 1_455 S
C194 C177 1.574 . S
C194 H188 0.949 . S
C194 C198 1.368 1_655 S
C195 C176 1.429 . S
C195 C189 1.429 1_455 S
C195 C196 1.523 . S
C196 C177 1.368 1_455 S
C196 C190 1.368 . S
C196 C195 1.523 . S
C197 C181 1.429 . S
C197 C193 1.429 1_655 S
C197 C198 1.523 1_655 S
C198 C182 1.368 . S
C198 C194 1.368 1_455 S
C198 C197 1.523 1_455 S
H199 C174 0.950 . S
H200 C176 0.950 . S
H201 C177 0.949 . S
H202 C179 0.950 . S
H203 C181 0.950 . S
C204 C205 1.349 . S
C204 C206 1.327 . S
C204 H229 0.950 . S
C205 C204 1.349 . S
C205 C221 1.349 . S
C206 C204 1.327 . S
C206 C225 1.429 . S
C206 H230 0.950 . S
C207 C224 1.574 . S
C207 C226 1.368 . S
C207 H231 0.949 . S
H208 C212 0.949 . S
C209 C210 1.349 . S
C209 C211 1.327 . S
C209 H232 0.950 . S
C210 C209 1.349 . S
C210 C222 1.349 . S
C211 C209 1.327 . S
C211 C227 1.429 . S
C211 H233 0.950 . S
C212 H208 0.949 . S
C212 C220 1.574 . S
C212 C228 1.368 . S
H213 C221 0.950 . S
H214 C219 0.950 . S
H215 C220 0.949 . S
H216 C222 0.950 . S
H217 C223 0.950 . S
H218 C224 0.949 . S
C219 H214 0.950 . S
C219 C221 1.327 . S
C219 C225 1.429 . S
C220 C212 1.574 . S
C220 H215 0.949 . S
C220 C226 1.368 . S
C221 C205 1.349 . S
C221 H213 0.950 . S
C221 C219 1.327 . S
C222 C210 1.349 . S
C222 H216 0.950 . S
C222 C223 1.327 . S
C223 H217 0.950 . S
C223 C222 1.327 . S
C223 C227 1.429 . S
C224 C207 1.574 . S
C224 H218 0.949 . S
C224 C228 1.368 . S
C225 C206 1.429 . S
C225 C219 1.429 . S
C225 C226 1.523 . S
C226 C207 1.368 . S
C226 C220 1.368 . S
C226 C225 1.523 . S
C227 C211 1.429 . S
C227 C223 1.429 . S
C227 C228 1.523 . S
C228 C212 1.368 . S
C228 C224 1.368 . S
C228 C227 1.523 . S
H229 C204 0.950 . S
H230 C206 0.950 . S
H231 C207 0.949 . S
H232 C209 0.950 . S
H233 C211 0.950 . S
C234 C235 1.349 . S
C234 C236 1.327 . S
C234 H259 0.950 . S
C235 C234 1.349 . S
C235 C251 1.349 . S
C236 C234 1.327 . S
C236 C255 1.429 . S
C236 H260 0.950 . S
C237 C254 1.574 . S
C237 C256 1.368 . S
C237 H261 0.949 . S
H238 C242 0.949 . S
C239 C240 1.349 . S
C239 C241 1.327 . S
C239 H262 0.950 . S
C240 C239 1.349 . S
C240 C252 1.349 . S
C241 C239 1.327 . S
C241 C257 1.429 . S
C241 H263 0.950 . S
C242 H238 0.949 . S
C242 C250 1.574 . S
C242 C258 1.368 . S
H243 C251 0.950 . S
H244 C249 0.950 . S
H245 C250 0.949 . S
H246 C252 0.950 . S
H247 C253 0.950 . S
H248 C254 0.949 . S
C249 H244 0.950 . S
C249 C251 1.327 . S
C249 C255 1.429 . S
C250 C242 1.574 . S
C250 H245 0.949 . S
C250 C256 1.368 . S
C251 C235 1.349 . S
C251 H243 0.950 . S
C251 C249 1.327 . S
C252 C240 1.349 . S
C252 H246 0.950 . S
C252 C253 1.327 . S
C253 H247 0.950 . S
C253 C252 1.327 . S
C253 C257 1.429 . S
C254 C237 1.574 . S
C254 H248 0.949 . S
C254 C258 1.368 . S
C255 C236 1.429 . S
C255 C249 1.429 . S
C255 C256 1.523 . S
C256 C237 1.368 . S
C256 C250 1.368 . S
C256 C255 1.523 . S
C257 C241 1.429 . S
C257 C253 1.429 . S
C257 C258 1.523 . S
C258 C242 1.368 . S
C258 C254 1.368 . S
C258 C257 1.523 . S
H259 C234 0.950 . S
H260 C236 0.950 . S
H261 C237 0.949 . S
H262 C239 0.950 . S
H263 C241 0.950 . S
C264 C265 1.349 . S
C264 C266 1.327 . S
C264 H289 0.950 . S
C265 C264 1.349 . S
C265 C281 1.349 . S
C266 C264 1.327 . S
C266 C285 1.429 . S
C266 H290 0.950 . S
C267 C284 1.574 . S
C267 C286 1.368 . S
C267 H291 0.949 . S
H268 C272 0.949 . S
C269 C270 1.349 . S
C269 C271 1.327 . S
C269 H292 0.950 . S
C270 C269 1.349 . S
C270 C282 1.349 . S
C271 C269 1.327 . S
C271 C287 1.429 . S
C271 H293 0.950 . S
C272 H268 0.949 . S
C272 C280 1.574 . S
C272 C288 1.368 . S
H273 C281 0.950 . S
H274 C279 0.950 . S
H275 C280 0.949 . S
H276 C282 0.950 . S
H277 C283 0.950 . S
H278 C284 0.949 . S
C279 H274 0.950 . S
C279 C281 1.327 . S
C279 C285 1.429 . S
C280 C272 1.574 . S
C280 H275 0.949 . S
C280 C286 1.368 . S
C281 C265 1.349 . S
C281 H273 0.950 . S
C281 C279 1.327 . S
C282 C270 1.349 . S
C282 H276 0.950 . S
C282 C283 1.327 . S
C283 H277 0.950 . S
C283 C282 1.327 . S
C283 C287 1.429 . S
C284 C267 1.574 . S
C284 H278 0.949 . S
C284 C288 1.368 . S
C285 C266 1.429 . S
C285 C279 1.429 . S
C285 C286 1.523 . S
C286 C267 1.368 . S
C286 C280 1.368 . S
C286 C285 1.523 . S
C287 C271 1.429 . S
C287 C283 1.429 . S
C287 C288 1.523 . S
C288 C272 1.368 . S
C288 C284 1.368 . S
C288 C287 1.523 . S
H289 C264 0.950 . S
H290 C266 0.950 . S
H291 C267 0.949 . S
H292 C269 0.950 . S
H293 C271 0.950 . S
C294 C295 1.349 . S
C294 C296 1.327 . S
C294 H319 0.950 . S
C295 C294 1.349 . S
C295 C311 1.349 . S
C296 C294 1.327 . S
C296 C315 1.429 . S
C296 H320 0.950 . S
C297 C314 1.574 . S
C297 C316 1.368 . S
C297 H321 0.949 . S
H298 C302 0.949 . S
C299 C300 1.349 . S
C299 C301 1.327 . S
C299 H322 0.950 . S
C300 C299 1.349 . S
C300 C312 1.349 . S
C301 C299 1.327 . S
C301 C317 1.429 . S
C301 H323 0.950 . S
C302 H298 0.949 . S
C302 C310 1.574 . S
C302 C318 1.368 . S
H303 C311 0.950 . S
H304 C309 0.950 . S
H305 C310 0.949 . S
H306 C312 0.950 . S
H307 C313 0.950 . S
H308 C314 0.949 . S
C309 H304 0.950 . S
C309 C311 1.327 . S
C309 C315 1.429 . S
C310 C302 1.574 . S
C310 H305 0.949 . S
C310 C316 1.368 . S
C311 C295 1.349 . S
C311 H303 0.950 . S
C311 C309 1.327 . S
C312 C300 1.349 . S
C312 H306 0.950 . S
C312 C313 1.327 . S
C313 H307 0.950 . S
C313 C312 1.327 . S
C313 C317 1.429 . S
C314 C297 1.574 . S
C314 H308 0.949 . S
C314 C318 1.368 . S
C315 C296 1.429 . S
C315 C309 1.429 . S
C315 C316 1.523 . S
C316 C297 1.368 . S
C316 C310 1.368 . S
C316 C315 1.523 . S
C317 C301 1.429 . S
C317 C313 1.429 . S
C317 C318 1.523 . S
C318 C302 1.368 . S
C318 C314 1.368 . S
C318 C317 1.523 . S
H319 C294 0.950 . S
H320 C296 0.950 . S
H321 C297 0.949 . S
H322 C299 0.950 . S
H323 C301 0.950 . S
C324 C325 1.349 . S
C324 C326 1.327 . S
C324 H349 0.950 . S
C325 C324 1.349 . S
C325 C341 1.349 . S
C326 C324 1.327 . S
C326 C345 1.429 . S
C326 H350 0.950 . S
C327 C344 1.574 . S
C327 C346 1.368 . S
C327 H351 0.949 . S
H328 C332 0.949 . S
C329 C330 1.349 . S
C329 C331 1.327 . S
C329 H352 0.950 . S
C330 C329 1.349 . S
C330 C342 1.349 . S
C331 C329 1.327 . S
C331 C347 1.429 . S
C331 H353 0.950 . S
C332 H328 0.949 . S
C332 C340 1.574 . S
C332 C348 1.368 . S
H333 C341 0.950 . S
H334 C339 0.950 . S
H335 C340 0.949 . S
H336 C342 0.950 . S
H337 C343 0.950 . S
H338 C344 0.949 . S
C339 H334 0.950 . S
C339 C341 1.327 . S
C339 C345 1.429 . S
C340 C332 1.574 . S
C340 H335 0.949 . S
C340 C346 1.368 . S
C341 C325 1.349 . S
C341 H333 0.950 . S
C341 C339 1.327 . S
C342 C330 1.349 . S
C342 H336 0.950 . S
C342 C343 1.327 . S
C343 H337 0.950 . S
C343 C342 1.327 . S
C343 C347 1.429 . S
C344 C327 1.574 . S
C344 H338 0.949 . S
C344 C348 1.368 . S
C345 C326 1.429 . S
C345 C339 1.429 . S
C345 C346 1.523 . S
C346 C327 1.368 . S
C346 C340 1.368 . S
C346 C345 1.523 . S
C347 C331 1.429 . S
C347 C343 1.429 . S
C347 C348 1.523 . S
C348 C332 1.368 . S
C348 C344 1.368 . S
C348 C347 1.523 . S
H349 C324 0.950 . S
H350 C326 0.950 . S
H351 C327 0.949 . S
H352 C329 0.950 . S
H353 C331 0.950 . S
C354 C355 1.349 . S
C354 C356 1.327 . S
C354 H379 0.950 . S
C355 C354 1.349 . S
C355 C371 1.349 . S
C356 C354 1.327 . S
C356 C375 1.429 . S
C356 H380 0.950 . S
C357 C374 1.574 . S
C357 C376 1.368 . S
C357 H381 0.949 . S
H358 C362 0.949 . S
C359 C360 1.349 . S
C359 C361 1.327 . S
C359 H382 0.950 . S
C360 C359 1.349 . S
C360 C372 1.349 . S
C361 C359 1.327 . S
C361 C377 1.429 . S
C361 H383 0.950 . S
C362 H358 0.949 . S
C362 C370 1.574 . S
C362 C378 1.368 . S
H363 C371 0.950 . S
H364 C369 0.950 . S
H365 C370 0.949 . S
H366 C372 0.950 . S
H367 C373 0.950 . S
H368 C374 0.949 . S
C369 H364 0.950 . S
C369 C371 1.327 . S
C369 C375 1.429 . S
C370 C362 1.574 . S
C370 H365 0.949 . S
C370 C376 1.368 . S
C371 C355 1.349 . S
C371 H363 0.950 . S
C371 C369 1.327 . S
C372 C360 1.349 . S
C372 H366 0.950 . S
C372 C373 1.327 . S
C373 H367 0.950 . S
C373 C372 1.327 . S
C373 C377 1.429 . S
C374 C357 1.574 . S
C374 H368 0.949 . S
C374 C378 1.368 . S
C375 C356 1.429 . S
C375 C369 1.429 . S
C375 C376 1.523 . S
C376 C357 1.368 . S
C376 C370 1.368 . S
C376 C375 1.523 . S
C377 C361 1.429 . S
C377 C373 1.429 . S
C377 C378 1.523 . S
C378 C362 1.368 . S
C378 C374 1.368 . S
C378 C377 1.523 . S
H379 C354 0.950 . S
H380 C356 0.950 . S
H381 C357 0.949 . S
H382 C359 0.950 . S
H383 C361 0.950 . S
C384 C385 1.349 . S
C384 C386 1.327 . S
C384 H409 0.950 . S
C385 C384 1.349 . S
C385 C401 1.349 . S
C386 C384 1.327 . S
C386 C405 1.429 . S
C386 H410 0.950 . S
C387 C404 1.574 . S
C387 C406 1.368 . S
C387 H411 0.949 . S
H388 C392 0.949 . S
C389 C390 1.349 . S
C389 C391 1.327 . S
C389 H412 0.950 . S
C390 C389 1.349 . S
C390 C402 1.349 . S
C391 C389 1.327 . S
C391 C407 1.429 . S
C391 H413 0.950 . S
C392 H388 0.949 . S
C392 C400 1.574 . S
C392 C408 1.368 . S
H393 C401 0.950 . S
H394 C399 0.950 . S
H395 C400 0.949 . S
H396 C402 0.950 . S
H397 C403 0.950 . S
H398 C404 0.949 . S
C399 H394 0.950 . S
C399 C401 1.327 . S
C399 C405 1.429 . S
C400 C392 1.574 . S
C400 H395 0.949 . S
C400 C406 1.368 . S
C401 C385 1.349 . S
C401 H393 0.950 . S
C401 C399 1.327 . S
C402 C390 1.349 . S
C402 H396 0.950 . S
C402 C403 1.327 . S
C403 H397 0.950 . S
C403 C402 1.327 . S
C403 C407 1.429 . S
C404 C387 1.574 . S
C404 H398 0.949 . S
C404 C408 1.368 . S
C405 C386 1.429 . S
C405 C399 1.429 . S
C405 C406 1.523 . S
C406 C387 1.368 . S
C406 C400 1.368 . S
C406 C405 1.523 . S
C407 C391 1.429 . S
C407 C403 1.429 . S
C407 C408 1.523 . S
C408 C392 1.368 . S
C408 C404 1.368 . S
C408 C407 1.523 . S
H409 C384 0.950 . S
H410 C386 0.950 . S
H411 C387 0.949 . S
H412 C389 0.950 . S
H413 C391 0.950 . S
C414 C415 1.349 . S
C414 C416 1.327 . S
C414 H439 0.950 . S
C415 C414 1.349 . S
C415 C431 1.349 . S
C416 C414 1.327 . S
C416 C435 1.429 . S
C416 H440 0.950 . S
C417 C434 1.574 . S
C417 C436 1.368 . S
C417 H441 0.949 . S
H418 C422 0.949 . S
C419 C420 1.349 . S
C419 C421 1.327 . S
C419 H442 0.950 . S
C420 C419 1.349 . S
C420 C432 1.349 . S
C421 C419 1.327 . S
C421 C437 1.429 . S
C421 H443 0.950 . S
C422 H418 0.949 . S
C422 C430 1.574 . S
C422 C438 1.368 . S
H423 C431 0.950 . S
H424 C429 0.950 . S
H425 C430 0.949 . S
H426 C432 0.950 . S
H427 C433 0.950 . S
H428 C434 0.949 . S
C429 H424 0.950 . S
C429 C431 1.327 . S
C429 C435 1.429 . S
C430 C422 1.574 . S
C430 H425 0.949 . S
C430 C436 1.368 . S
C431 C415 1.349 . S
C431 H423 0.950 . S
C431 C429 1.327 . S
C432 C420 1.349 . S
C432 H426 0.950 . S
C432 C433 1.327 . S
C433 H427 0.950 . S
C433 C432 1.327 . S
C433 C437 1.429 . S
C434 C417 1.574 . S
C434 H428 0.949 . S
C434 C438 1.368 . S
C435 C416 1.429 . S
C435 C429 1.429 . S
C435 C436 1.523 . S
C436 C417 1.368 . S
C436 C430 1.368 . S
C436 C435 1.523 . S
C437 C421 1.429 . S
C437 C433 1.429 . S
C437 C438 1.523 . S
C438 C422 1.368 . S
C438 C434 1.368 . S
C438 C437 1.523 . S
H439 C414 0.950 . S
H440 C416 0.950 . S
H441 C417 0.949 . S
H442 C419 0.950 . S
H443 C421 0.950 . S
C85 C60 1.549 1_556 S
C90 C15 1.549 . S
C115 C81 1.549 . S
C120 C39 1.549 . S
C145 C57 0.731 1_554 S
C150 C18 0.732 . S
C175 C36 0.731 . S
C180 C78 0.731 . S
C205 C37 1.185 . S
C210 C17 1.328 . S
C235 C35 1.755 . S
C240 C56 1.753 . S
C265 C77 1.327 . S
C270 C58 1.187 . S
C295 C79 0.897 . S
C300 C13 0.897 . S
C325 C55 1.349 . S
C330 C80 1.212 . S
C355 C16 1.627 . S
C360 C76 1.627 . S
C385 C34 1.349 . S
C390 C14 1.212 . S
C415 C59 1.017 . S
C420 C38 1.018 . S
