# Generated by pormake.
# Topology uke, (4)-cn, num edge types: 1
# Building blocks:
#     Node 0, Type 0, BuildingBlock: QUQFOY_clean_sbu_1, # of connection points: 4
#     Node 1, Type 0, BuildingBlock: QUQFOY_clean_sbu_1, # of connection points: 4
#     Node 2, Type 0, BuildingBlock: QUQFOY_clean_sbu_1, # of connection points: 4
#     Node 3, Type 0, BuildingBlock: QUQFOY_clean_sbu_1, # of connection points: 4
#     Node 4, Type 0, BuildingBlock: QUQFOY_clean_sbu_1, # of connection points: 4
#     Node 5, Type 0, BuildingBlock: QUQFOY_clean_sbu_1, # of connection points: 4
#     Node 6, Type 0, BuildingBlock: QUQFOY_clean_sbu_1, # of connection points: 4
#     Node 7, Type 0, BuildingBlock: QUQFOY_clean_sbu_1, # of connection points: 4
#     Node 8, Type 0, BuildingBlock: QUQFOY_clean_sbu_1, # of connection points: 4
#     Node 9, Type 0, BuildingBlock: QUQFOY_clean_sbu_1, # of connection points: 4
#     Node 10, Type 0, BuildingBlock: QUQFOY_clean_sbu_1, # of connection points: 4
#     Node 11, Type 0, BuildingBlock: QUQFOY_clean_sbu_1, # of connection points: 4
#     Node 12, Type 0, BuildingBlock: QUQFOY_clean_sbu_1, # of connection points: 4
#     Node 13, Type 0, BuildingBlock: QUQFOY_clean_sbu_1, # of connection points: 4
#     Node 14, Type 0, BuildingBlock: QUQFOY_clean_sbu_1, # of connection points: 4
#     Node 15, Type 0, BuildingBlock: QUQFOY_clean_sbu_1, # of connection points: 4
#     Node 16, Type 0, BuildingBlock: QUQFOY_clean_sbu_1, # of connection points: 4
#     Node 17, Type 0, BuildingBlock: QUQFOY_clean_sbu_1, # of connection points: 4
#     Node 18, Type 0, BuildingBlock: QUQFOY_clean_sbu_1, # of connection points: 4
#     Node 19, Type 0, BuildingBlock: QUQFOY_clean_sbu_1, # of connection points: 4
#     Node 20, Type 0, BuildingBlock: QUQFOY_clean_sbu_1, # of connection points: 4
#     Node 21, Type 0, BuildingBlock: QUQFOY_clean_sbu_1, # of connection points: 4
#     Node 22, Type 0, BuildingBlock: QUQFOY_clean_sbu_1, # of connection points: 4
#     Node 23, Type 0, BuildingBlock: QUQFOY_clean_sbu_1, # of connection points: 4
#     Node 24, Type 0, BuildingBlock: QUQFOY_clean_sbu_1, # of connection points: 4
#     Node 25, Type 0, BuildingBlock: QUQFOY_clean_sbu_1, # of connection points: 4
#     Node 26, Type 0, BuildingBlock: QUQFOY_clean_sbu_1, # of connection points: 4
#     Node 27, Type 0, BuildingBlock: QUQFOY_clean_sbu_1, # of connection points: 4
#     Node 28, Type 0, BuildingBlock: QUQFOY_clean_sbu_1, # of connection points: 4
#     Node 29, Type 0, BuildingBlock: QUQFOY_clean_sbu_1, # of connection points: 4
#     Node 30, Type 0, BuildingBlock: QUQFOY_clean_sbu_1, # of connection points: 4
#     Node 31, Type 0, BuildingBlock: QUQFOY_clean_sbu_1, # of connection points: 4
#     Edge 32, Type (0, 0), BuildingBlock: AJUNOK_clean_linker_0, # of connection points: 2
#     Edge 33, Type (0, 0), BuildingBlock: AJUNOK_clean_linker_0, # of connection points: 2
#     Edge 34, Type (0, 0), BuildingBlock: AJUNOK_clean_linker_0, # of connection points: 2
#     Edge 35, Type (0, 0), BuildingBlock: AJUNOK_clean_linker_0, # of connection points: 2
#     Edge 36, Type (0, 0), BuildingBlock: AJUNOK_clean_linker_0, # of connection points: 2
#     Edge 37, Type (0, 0), BuildingBlock: AJUNOK_clean_linker_0, # of connection points: 2
#     Edge 38, Type (0, 0), BuildingBlock: AJUNOK_clean_linker_0, # of connection points: 2
#     Edge 39, Type (0, 0), BuildingBlock: AJUNOK_clean_linker_0, # of connection points: 2
#     Edge 40, Type (0, 0), BuildingBlock: AJUNOK_clean_linker_0, # of connection points: 2
#     Edge 41, Type (0, 0), BuildingBlock: AJUNOK_clean_linker_0, # of connection points: 2
#     Edge 42, Type (0, 0), BuildingBlock: AJUNOK_clean_linker_0, # of connection points: 2
#     Edge 43, Type (0, 0), BuildingBlock: AJUNOK_clean_linker_0, # of connection points: 2
#     Edge 44, Type (0, 0), BuildingBlock: AJUNOK_clean_linker_0, # of connection points: 2
#     Edge 45, Type (0, 0), BuildingBlock: AJUNOK_clean_linker_0, # of connection points: 2
#     Edge 46, Type (0, 0), BuildingBlock: AJUNOK_clean_linker_0, # of connection points: 2
#     Edge 47, Type (0, 0), BuildingBlock: AJUNOK_clean_linker_0, # of connection points: 2
#     Edge 48, Type (0, 0), BuildingBlock: AJUNOK_clean_linker_0, # of connection points: 2
#     Edge 49, Type (0, 0), BuildingBlock: AJUNOK_clean_linker_0, # of connection points: 2
#     Edge 50, Type (0, 0), BuildingBlock: AJUNOK_clean_linker_0, # of connection points: 2
#     Edge 51, Type (0, 0), BuildingBlock: AJUNOK_clean_linker_0, # of connection points: 2
#     Edge 52, Type (0, 0), BuildingBlock: AJUNOK_clean_linker_0, # of connection points: 2
#     Edge 53, Type (0, 0), BuildingBlock: AJUNOK_clean_linker_0, # of connection points: 2
#     Edge 54, Type (0, 0), BuildingBlock: AJUNOK_clean_linker_0, # of connection points: 2
#     Edge 55, Type (0, 0), BuildingBlock: AJUNOK_clean_linker_0, # of connection points: 2
#     Edge 56, Type (0, 0), BuildingBlock: AJUNOK_clean_linker_0, # of connection points: 2
#     Edge 57, Type (0, 0), BuildingBlock: AJUNOK_clean_linker_0, # of connection points: 2
#     Edge 58, Type (0, 0), BuildingBlock: AJUNOK_clean_linker_0, # of connection points: 2
#     Edge 59, Type (0, 0), BuildingBlock: AJUNOK_clean_linker_0, # of connection points: 2
#     Edge 60, Type (0, 0), BuildingBlock: AJUNOK_clean_linker_0, # of connection points: 2
#     Edge 61, Type (0, 0), BuildingBlock: AJUNOK_clean_linker_0, # of connection points: 2
#     Edge 62, Type (0, 0), BuildingBlock: AJUNOK_clean_linker_0, # of connection points: 2
#     Edge 63, Type (0, 0), BuildingBlock: AJUNOK_clean_linker_0, # of connection points: 2
#     Edge 64, Type (0, 0), BuildingBlock: AJUNOK_clean_linker_0, # of connection points: 2
#     Edge 65, Type (0, 0), BuildingBlock: AJUNOK_clean_linker_0, # of connection points: 2
#     Edge 66, Type (0, 0), BuildingBlock: AJUNOK_clean_linker_0, # of connection points: 2
#     Edge 67, Type (0, 0), BuildingBlock: AJUNOK_clean_linker_0, # of connection points: 2
#     Edge 68, Type (0, 0), BuildingBlock: AJUNOK_clean_linker_0, # of connection points: 2
#     Edge 69, Type (0, 0), BuildingBlock: AJUNOK_clean_linker_0, # of connection points: 2
#     Edge 70, Type (0, 0), BuildingBlock: AJUNOK_clean_linker_0, # of connection points: 2
#     Edge 71, Type (0, 0), BuildingBlock: AJUNOK_clean_linker_0, # of connection points: 2
#     Edge 72, Type (0, 0), BuildingBlock: AJUNOK_clean_linker_0, # of connection points: 2
#     Edge 73, Type (0, 0), BuildingBlock: AJUNOK_clean_linker_0, # of connection points: 2
#     Edge 74, Type (0, 0), BuildingBlock: AJUNOK_clean_linker_0, # of connection points: 2
#     Edge 75, Type (0, 0), BuildingBlock: AJUNOK_clean_linker_0, # of connection points: 2
#     Edge 76, Type (0, 0), BuildingBlock: AJUNOK_clean_linker_0, # of connection points: 2
#     Edge 77, Type (0, 0), BuildingBlock: AJUNOK_clean_linker_0, # of connection points: 2
#     Edge 78, Type (0, 0), BuildingBlock: AJUNOK_clean_linker_0, # of connection points: 2
#     Edge 79, Type (0, 0), BuildingBlock: AJUNOK_clean_linker_0, # of connection points: 2
#     Edge 80, Type (0, 0), BuildingBlock: AJUNOK_clean_linker_0, # of connection points: 2
#     Edge 81, Type (0, 0), BuildingBlock: AJUNOK_clean_linker_0, # of connection points: 2
#     Edge 82, Type (0, 0), BuildingBlock: AJUNOK_clean_linker_0, # of connection points: 2
#     Edge 83, Type (0, 0), BuildingBlock: AJUNOK_clean_linker_0, # of connection points: 2
#     Edge 84, Type (0, 0), BuildingBlock: AJUNOK_clean_linker_0, # of connection points: 2
#     Edge 85, Type (0, 0), BuildingBlock: AJUNOK_clean_linker_0, # of connection points: 2
#     Edge 86, Type (0, 0), BuildingBlock: AJUNOK_clean_linker_0, # of connection points: 2
#     Edge 87, Type (0, 0), BuildingBlock: AJUNOK_clean_linker_0, # of connection points: 2
#     Edge 88, Type (0, 0), BuildingBlock: AJUNOK_clean_linker_0, # of connection points: 2
#     Edge 89, Type (0, 0), BuildingBlock: AJUNOK_clean_linker_0, # of connection points: 2
#     Edge 90, Type (0, 0), BuildingBlock: AJUNOK_clean_linker_0, # of connection points: 2
#     Edge 91, Type (0, 0), BuildingBlock: AJUNOK_clean_linker_0, # of connection points: 2
#     Edge 92, Type (0, 0), BuildingBlock: AJUNOK_clean_linker_0, # of connection points: 2
#     Edge 93, Type (0, 0), BuildingBlock: AJUNOK_clean_linker_0, # of connection points: 2
#     Edge 94, Type (0, 0), BuildingBlock: AJUNOK_clean_linker_0, # of connection points: 2
#     Edge 95, Type (0, 0), BuildingBlock: AJUNOK_clean_linker_0, # of connection points: 2
# Relax obj value: 0.019
# Max RMSD: 0.075
# Mean RMSD: 0.075
data_MOF--net-uke--node1-QUQFOY_clean_sbu_1--edge1-AJUNOK_clean_linker_0
_symmetry_space_group_name_H-M    P1
_symmetry_Int_Tables_number       1
_symmetry_cell_setting            triclinic
loop_
_symmetry_equiv_pos_as_xyz
'x, y, z'
_cell_length_a     19.347948
_cell_length_b     81.23345
_cell_length_c     37.842333
_cell_angle_alpha  90.097509
_cell_angle_beta   89.947972
_cell_angle_gamma 90.008911
loop_
_atom_site_label
_atom_site_type_symbol
_atom_site_fract_x
_atom_site_fract_y
_atom_site_fract_z
_atom_type_partial_charge
O0 O 0.07888 0.11654 0.30207 0.0
Cd1 Cd 0.05331 0.09255 0.29015 0.0
Cd2 Cd 0.18525 0.09074 0.28982 0.0
O3 O 0.18252 0.11111 0.32297 0.0
O4 O 0.95597 0.08918 0.30735 0.0
O5 O 0.0472 0.07828 0.33351 0.0
C6 C 0.98157 0.0812 0.33381 0.0
C7 C 0.22459 0.06389 0.29304 0.0
C8 C 0.13269 0.12119 0.31861 0.0
C9 C 0.12342 0.09014 0.22084 0.0
O10 O 0.17337 0.09625 0.23806 0.0
O11 O 0.06977 0.08516 0.23741 0.0
O12 O 0.26782 0.07601 0.29053 0.0
O13 O 0.1604 0.06736 0.29903 0.0
O14 O 0.20905 0.19651 0.30195 0.0
Cd15 Cd 0.23268 0.22055 0.28973 0.0
Cd16 Cd 0.10045 0.22183 0.28976 0.0
O17 O 0.10496 0.20153 0.32298 0.0
O18 O 0.32979 0.22435 0.30682 0.0
O19 O 0.23778 0.23487 0.33311 0.0
C20 C 0.30358 0.2322 0.33338 0.0
C21 C 0.06065 0.24864 0.29308 0.0
C22 C 0.15591 0.19174 0.31887 0.0
C23 C 0.16142 0.22256 0.22063 0.0
O24 O 0.11213 0.21625 0.238 0.0
O25 O 0.21491 0.22777 0.23701 0.0
O26 O 0.01758 0.23648 0.29084 0.0
O27 O 0.12498 0.24526 0.29873 0.0
O28 O 0.07404 0.1961 0.9871 0.0
Cd29 Cd 0.05041 0.22013 1.00004 0.0
Cd30 Cd 0.18242 0.22162 0.99845 0.0
O31 O 0.17762 0.2012 0.96553 0.0
O32 O 0.95224 0.22383 0.98481 0.0
O33 O 0.04209 0.23467 0.95716 0.0
C34 C 0.97626 0.232 0.95822 0.0
C35 C 0.22611 0.24802 0.99541 0.0
C36 C 0.12697 0.19136 0.96991 0.0
C37 C 0.12486 0.22259 0.06822 0.0
O38 O 0.17357 0.2163 0.0504 0.0
O39 O 0.06986 0.22734 0.05261 0.0
O40 O 0.26718 0.23547 0.99693 0.0
O41 O 0.16115 0.24527 0.98976 0.0
O42 O 0.20567 0.11637 0.98738 0.0
Cd43 Cd 0.23162 0.09247 1.00001 0.0
Cd44 Cd 0.10016 0.09028 0.99846 0.0
O45 O 0.10305 0.11065 0.9655 0.0
O46 O 0.33008 0.08925 0.98469 0.0
O47 O 0.24124 0.07793 0.95707 0.0
C48 C 0.30682 0.08092 0.95811 0.0
C49 C 0.05739 0.06377 0.99567 0.0
C50 C 0.15225 0.12085 0.97032 0.0
C51 C 0.15783 0.0898 0.06822 0.0
O52 O 0.10864 0.0958 0.05039 0.0
O53 O 0.21314 0.08523 0.05258 0.0
O54 O 1.01594 0.07625 0.99724 0.0
O55 O 0.12222 0.06662 0.98983 0.0
O56 O 0.959 0.94589 0.73708 0.0
Cd57 Cd 0.98492 0.96981 0.7497 0.0
Cd58 Cd 0.85293 0.97179 0.74979 0.0
O59 O 0.85514 0.95143 0.7166 0.0
O60 O 0.08348 0.97291 0.73428 0.0
O61 O 0.99488 0.98434 0.70682 0.0
C62 C 0.06039 0.98129 0.70781 0.0
C63 C 0.81519 0.99875 0.74651 0.0
C64 C 0.90486 0.94131 0.72073 0.0
C65 C 0.91379 0.97202 0.81896 0.0
O66 O 0.86348 0.96619 0.80158 0.0
O67 O 0.96783 0.97687 0.80256 0.0
O68 O 0.77124 0.98676 0.74858 0.0
O69 O 0.87934 0.9951 0.74088 0.0
O70 O 0.82727 0.86611 0.73915 0.0
Cd71 Cd 0.80337 0.84209 0.75149 0.0
Cd72 Cd 0.93575 0.84077 0.75108 0.0
O73 O 0.93075 0.86094 0.71752 0.0
O74 O 0.7059 0.83829 0.73478 0.0
O75 O 0.79754 0.8278 0.70811 0.0
C76 C 0.73172 0.83043 0.70812 0.0
C77 C 0.97284 0.81374 0.74806 0.0
C78 C 0.88009 0.8708 0.72185 0.0
C79 C 0.87618 0.84 0.82027 0.0
O80 O 0.92488 0.84651 0.8028 0.0
O81 O 0.82267 0.83471 0.804 0.0
O82 O 1.01723 0.82566 0.74961 0.0
O83 O 0.90874 0.81748 0.74282 0.0
O84 O 0.96468 0.86538 0.05351 0.0
Cd85 Cd 0.98819 0.84135 0.0407 0.0
Cd86 Cd 0.85625 0.83987 0.04217 0.0
O87 O 0.861 0.86033 0.07501 0.0
O88 O 0.08606 0.83767 0.05626 0.0
O89 O 0.99583 0.82683 0.08362 0.0
C90 C 0.06166 0.82953 0.08281 0.0
C91 C 0.81052 0.81364 0.04482 0.0
C92 C 0.91174 0.87016 0.07064 0.0
C93 C 0.91465 0.83895 0.97245 0.0
O94 O 0.86574 0.84517 0.99024 0.0
O95 O 0.96963 0.83421 0.98806 0.0
O96 O 0.77048 0.82638 0.04316 0.0
O97 O 0.87554 0.8161 0.05092 0.0
O98 O 0.8335 0.94509 0.05263 0.0
Cd99 Cd 0.80705 0.96895 0.04014 0.0
Cd100 Cd 0.93937 0.9712 0.0411 0.0
O101 O 0.93628 0.95088 0.07431 0.0
O102 O 0.70929 0.97233 0.05689 0.0
O103 O 0.80001 0.9834 0.08324 0.0
C104 C 0.7344 0.98047 0.08331 0.0
C105 C 0.97646 0.99822 0.04405 0.0
C106 C 0.88703 0.94066 0.06964 0.0
C107 C 0.88057 0.97163 0.97168 0.0
O108 O 0.92994 0.96557 0.98932 0.0
O109 O 0.82548 0.97624 0.98753 0.0
O110 O 0.0208 0.98629 0.04242 0.0
O111 O 0.91237 0.99449 0.04955 0.0
O112 O 0.07574 0.61637 0.80359 0.0
Cd113 Cd 0.04972 0.59239 0.79154 0.0
Cd114 Cd 0.18125 0.59023 0.79254 0.0
O115 O 0.17868 0.61076 0.8252 0.0
O116 O 0.95267 0.58893 0.80883 0.0
O117 O 0.04427 0.578 0.83465 0.0
C118 C 0.97858 0.58087 0.8351 0.0
C119 C 0.22623 0.56392 0.7952 0.0
C120 C 0.12938 0.62094 0.82039 0.0
C121 C 0.12165 0.58947 0.72306 0.0
O122 O 0.17119 0.59551 0.74064 0.0
O123 O 0.06652 0.58497 0.73893 0.0
O124 O 0.26662 0.57658 0.79313 0.0
O125 O 0.16141 0.5665 0.8016 0.0
O126 O 0.20735 0.69626 0.80301 0.0
Cd127 Cd 0.23047 0.72035 0.79055 0.0
Cd128 Cd 0.09895 0.72148 0.79084 0.0
O129 O 0.10338 0.70125 0.82413 0.0
O130 O 0.32855 0.72401 0.80594 0.0
O131 O 0.23864 0.73476 0.83376 0.0
C132 C 0.30446 0.73208 0.8327 0.0
C133 C 0.0558 0.74797 0.79402 0.0
C134 C 0.15429 0.69147 0.81999 0.0
C135 C 0.15864 0.72234 0.72158 0.0
O136 O 0.10974 0.71588 0.73897 0.0
O137 O 0.21196 0.72762 0.73798 0.0
O138 O 1.01452 0.73546 0.79207 0.0
O139 O 0.12066 0.74513 0.79967 0.0
O140 O 0.07662 0.69617 0.48787 0.0
Cd141 Cd 0.05191 0.72015 0.50024 0.0
Cd142 Cd 0.18473 0.72183 0.49982 0.0
O143 O 0.18098 0.70126 0.46722 0.0
O144 O 0.95471 0.72376 0.48314 0.0
O145 O 0.04641 0.73451 0.45704 0.0
C146 C 0.98069 0.73172 0.45672 0.0
C147 C 0.22499 0.74855 0.49619 0.0
C148 C 0.13018 0.69142 0.47122 0.0
C149 C 0.12397 0.72286 0.56909 0.0
O150 O 0.17374 0.71674 0.55174 0.0
O151 O 0.06918 0.72742 0.55301 0.0
O152 O 0.26785 0.73636 0.49861 0.0
O153 O 0.16067 0.7452 0.49029 0.0
O154 O 0.20667 0.61628 0.48971 0.0
Cd155 Cd 0.23138 0.59228 0.50204 0.0
Cd156 Cd 0.09968 0.59063 0.50132 0.0
O157 O 0.10377 0.61083 0.4679 0.0
O158 O 0.32985 0.58889 0.48674 0.0
O159 O 0.24065 0.57795 0.45878 0.0
C160 C 0.30633 0.58076 0.45994 0.0
C161 C 0.06185 0.56369 0.49794 0.0
C162 C 0.15353 0.6209 0.47261 0.0
C163 C 0.15851 0.59004 0.57071 0.0
O164 O 0.1095 0.59634 0.55316 0.0
O165 O 0.21234 0.58491 0.5545 0.0
O166 O 0.0179 0.57569 0.49976 0.0
O167 O 0.12611 0.56731 0.49265 0.0
O168 O 0.95443 0.44571 0.23859 0.0
Cd169 Cd 0.98044 0.46967 0.25081 0.0
Cd170 Cd 0.8486 0.47161 0.25088 0.0
O171 O 0.85115 0.45133 0.21748 0.0
O172 O 0.07801 0.47303 0.23388 0.0
O173 O 0.98711 0.48404 0.20765 0.0
C174 C 0.05273 0.48112 0.20749 0.0
C175 C 0.81028 0.49853 0.24782 0.0
C176 C 0.90066 0.44117 0.22187 0.0
C177 C 0.90945 0.47212 0.31994 0.0
O178 O 0.85977 0.46596 0.30261 0.0
O179 O 0.96322 0.4771 0.30348 0.0
O180 O 0.76657 0.48649 0.25002 0.0
O181 O 0.87442 0.49495 0.24204 0.0
O182 O 0.82172 0.36594 0.23734 0.0
Cd183 Cd 0.79743 0.34191 0.24961 0.0
Cd184 Cd 0.9294 0.34029 0.24882 0.0
O185 O 0.92562 0.36078 0.21619 0.0
O186 O 0.70058 0.33813 0.2324 0.0
O187 O 0.79277 0.32745 0.20647 0.0
C188 C 0.72695 0.33015 0.20605 0.0
C189 C 0.97509 0.31405 0.24609 0.0
C190 C 0.87504 0.37066 0.22048 0.0
C191 C 0.86939 0.33935 0.31821 0.0
O192 O 0.91868 0.34555 0.30073 0.0
O193 O 0.81462 0.33465 0.30228 0.0
O194 O 1.01516 0.32677 0.24819 0.0
O195 O 0.91023 0.31653 0.23968 0.0
O196 O 0.95446 0.36641 0.55137 0.0
Cd197 Cd 0.97864 0.34232 0.53916 0.0
Cd198 Cd 0.84768 0.34086 0.53987 0.0
O199 O 0.85172 0.36102 0.57345 0.0
O200 O 0.07661 0.33879 0.55481 0.0
O201 O 0.98655 0.32806 0.58251 0.0
C202 C 0.05235 0.33078 0.58158 0.0
C203 C 0.80402 0.31442 0.5425 0.0
C204 C 0.90146 0.37107 0.56862 0.0
C205 C 0.9067 0.34009 0.47049 0.0
O206 O 0.8581 0.34658 0.48808 0.0
O207 O 0.96017 0.33481 0.4867 0.0
O208 O 0.763 0.32697 0.54079 0.0
O209 O 0.86892 0.31717 0.54828 0.0
O210 O 0.82543 0.44637 0.55358 0.0
Cd211 Cd 0.80163 0.47039 0.54099 0.0
Cd212 Cd 0.93367 0.47183 0.54191 0.0
O213 O 0.92949 0.45139 0.57458 0.0
O214 O 0.70363 0.47396 0.55658 0.0
O215 O 0.79353 0.48488 0.58405 0.0
C216 C 0.72776 0.48212 0.58319 0.0
C217 C 0.97816 0.49815 0.54497 0.0
C218 C 0.87862 0.44159 0.5704 0.0
C219 C 0.87452 0.47279 0.47244 0.0
O220 O 0.92368 0.46658 0.48995 0.0
O221 O 0.81975 0.47754 0.48835 0.0
O222 O 0.01883 0.48554 0.54297 0.0
O223 O 0.91327 0.49551 0.5511 0.0
O224 O 0.57878 0.11642 0.80274 0.0
Cd225 Cd 0.55367 0.09239 0.7906 0.0
Cd226 Cd 0.68518 0.09079 0.79021 0.0
O227 O 0.68252 0.11107 0.82354 0.0
O228 O 0.45645 0.08893 0.80769 0.0
O229 O 0.54774 0.07794 0.83366 0.0
C230 C 0.48206 0.08084 0.83399 0.0
C231 C 0.73008 0.06442 0.79269 0.0
C232 C 0.63257 0.12111 0.81926 0.0
C233 C 0.62317 0.09022 0.72125 0.0
O234 O 0.67288 0.09641 0.7385 0.0
O235 O 0.56978 0.08511 0.73782 0.0
O236 O 0.77048 0.07707 0.79029 0.0
O237 O 0.66531 0.06705 0.79915 0.0
O238 O 0.7087 0.19649 0.80259 0.0
Cd239 Cd 0.73179 0.22059 0.7903 0.0
Cd240 Cd 0.60014 0.22161 0.79023 0.0
O241 O 0.60455 0.2014 0.82359 0.0
O242 O 0.8288 0.22445 0.80724 0.0
O243 O 0.7368 0.23503 0.83349 0.0
C244 C 0.80265 0.23237 0.83372 0.0
C245 C 0.55471 0.24791 0.79271 0.0
C246 C 0.65563 0.19166 0.81951 0.0
C247 C 0.66125 0.22245 0.72117 0.0
O248 O 0.61235 0.21595 0.7385 0.0
O249 O 0.71433 0.22782 0.73762 0.0
O250 O 0.51453 0.23521 0.79059 0.0
O251 O 0.61959 0.24538 0.79899 0.0
O252 O 0.57404 0.19627 0.48769 0.0
Cd253 Cd 0.55012 0.22024 0.5005 0.0
Cd254 Cd 0.68279 0.22189 0.49901 0.0
O255 O 0.67755 0.20144 0.46607 0.0
O256 O 0.45185 0.22391 0.48515 0.0
O257 O 0.54174 0.2346 0.45734 0.0
C258 C 0.47595 0.23195 0.4584 0.0
C259 C 0.72007 0.24884 0.49533 0.0
C260 C 0.62695 0.19157 0.47045 0.0
C261 C 0.62517 0.22279 0.56874 0.0
O262 O 0.67426 0.21662 0.55097 0.0
O263 O 0.56998 0.22743 0.5531 0.0
O264 O 0.76435 0.2369 0.49667 0.0
O265 O 0.65579 0.24514 0.49043 0.0
O266 O 0.70541 0.11665 0.48784 0.0
Cd267 Cd 0.73164 0.09279 0.50036 0.0
Cd268 Cd 0.59957 0.09043 0.49885 0.0
O269 O 0.60281 0.11086 0.46596 0.0
O270 O 0.83027 0.08963 0.48503 0.0
O271 O 0.74151 0.07843 0.45716 0.0
C272 C 0.80707 0.0814 0.45829 0.0
C273 C 0.56353 0.06337 0.4952 0.0
C274 C 0.65197 0.12109 0.47077 0.0
C275 C 0.65706 0.08997 0.5686 0.0
O276 O 0.60751 0.09586 0.55082 0.0
O277 O 0.71259 0.08554 0.55292 0.0
O278 O 0.51876 0.07521 0.49664 0.0
O279 O 0.62765 0.06722 0.49021 0.0
O280 O 0.45857 0.9458 0.23782 0.0
Cd281 Cd 0.4848 0.96976 0.24996 0.0
Cd282 Cd 0.3533 0.97197 0.24889 0.0
O283 O 0.35555 0.95141 0.21634 0.0
O284 O 0.58296 0.97283 0.23418 0.0
O285 O 0.4938 0.98408 0.20676 0.0
C286 C 0.55936 0.98104 0.20757 0.0
C287 C 0.30872 0.99829 0.24602 0.0
C288 C 0.40484 0.94123 0.2211 0.0
C289 C 0.41255 0.97274 0.31843 0.0
O290 O 0.36289 0.96676 0.30086 0.0
O291 O 0.46775 0.97718 0.30256 0.0
O292 O 0.26818 0.98566 0.24811 0.0
O293 O 0.37355 0.99566 0.23965 0.0
O294 O 0.32696 0.86593 0.23891 0.0
Cd295 Cd 0.30392 0.84183 0.2513 0.0
Cd296 Cd 0.43551 0.84079 0.25109 0.0
O297 O 0.43075 0.86092 0.21755 0.0
O298 O 0.20708 0.83777 0.23423 0.0
O299 O 0.29962 0.82737 0.20815 0.0
C300 C 0.23367 0.82987 0.20783 0.0
C301 C 0.47979 0.81439 0.24858 0.0
C302 C 0.37986 0.87071 0.22178 0.0
C303 C 0.37525 0.83995 0.32024 0.0
O304 O 0.42379 0.84654 0.30279 0.0
O305 O 0.32212 0.83453 0.30389 0.0
O306 O 0.52059 0.82699 0.25048 0.0
O307 O 0.41493 0.81707 0.24261 0.0
O308 O 0.46068 0.86608 0.5529 0.0
Cd309 Cd 0.48578 0.84207 0.54071 0.0
Cd310 Cd 0.35451 0.84012 0.54211 0.0
O311 O 0.35787 0.86059 0.57487 0.0
O312 O 0.58353 0.83859 0.55667 0.0
O313 O 0.49323 0.82771 0.58391 0.0
C314 C 0.55901 0.83048 0.58323 0.0
C315 C 0.30954 0.81384 0.54464 0.0
C316 C 0.40732 0.87071 0.5699 0.0
C317 C 0.41293 0.83928 0.47247 0.0
O318 O 0.36382 0.84545 0.49019 0.0
O319 O 0.46799 0.83466 0.48818 0.0
O320 O 0.26915 0.82651 0.54294 0.0
O321 O 0.37444 0.81638 0.55091 0.0
O322 O 0.33012 0.94599 0.55222 0.0
Cd323 Cd 0.30647 0.97007 0.54003 0.0
Cd324 Cd 0.43805 0.97122 0.53981 0.0
O325 O 0.43401 0.95105 0.5733 0.0
O326 O 0.20929 0.9738 0.55698 0.0
O327 O 0.30102 0.98442 0.58334 0.0
C328 C 0.23522 0.98169 0.58353 0.0
C329 C 0.48175 0.99768 0.54227 0.0
C330 C 0.38318 0.94124 0.56919 0.0
C331 C 0.37706 0.97204 0.47087 0.0
O332 O 0.42587 0.9655 0.48812 0.0
O333 O 0.32404 0.97742 0.48742 0.0
O334 O 0.5228 0.98514 0.54016 0.0
O335 O 0.41702 0.9949 0.5485 0.0
O336 O 0.57652 0.61653 0.30382 0.0
Cd337 Cd 0.55079 0.59255 0.2917 0.0
Cd338 Cd 0.68237 0.59047 0.29244 0.0
O339 O 0.67957 0.61094 0.32527 0.0
O340 O 0.45386 0.58901 0.30908 0.0
O341 O 0.54571 0.57813 0.33478 0.0
C342 C 0.47999 0.58095 0.3353 0.0
C343 C 0.72704 0.56413 0.2951 0.0
C344 C 0.63016 0.62109 0.32061 0.0
C345 C 0.62234 0.5897 0.22308 0.0
O346 O 0.67197 0.59576 0.24055 0.0
O347 O 0.56739 0.58516 0.23905 0.0
O348 O 0.7676 0.57676 0.293 0.0
O349 O 0.66226 0.56677 0.30149 0.0
O350 O 0.70818 0.69616 0.30295 0.0
Cd351 Cd 0.73247 0.72008 0.29008 0.0
Cd352 Cd 0.60003 0.72185 0.29189 0.0
O353 O 0.60509 0.7015 0.32493 0.0
O354 O 0.83098 0.72363 0.30518 0.0
O355 O 0.7416 0.73445 0.33327 0.0
C356 C 0.80731 0.73171 0.33204 0.0
C357 C 0.56341 0.74885 0.29558 0.0
C358 C 0.65542 0.69156 0.32041 0.0
C359 C 0.65679 0.72256 0.22203 0.0
O360 O 0.60789 0.71641 0.23993 0.0
O361 O 0.71209 0.72723 0.23756 0.0
O362 O 0.51887 0.73695 0.29441 0.0
O363 O 0.62768 0.74509 0.30027 0.0
O364 O 0.57419 0.6963 0.98775 0.0
Cd365 Cd 0.5503 0.72034 1.00025 0.0
Cd366 Cd 0.6828 0.72162 1.00044 0.0
O367 O 0.67881 0.70123 0.96732 0.0
O368 O 0.4529 0.72401 0.9835 0.0
O369 O 0.5443 0.7348 0.9572 0.0
C370 C 0.47855 0.73203 0.95707 0.0
C371 C 0.72336 0.74836 0.99722 0.0
C372 C 0.62768 0.69147 0.97116 0.0
C373 C 0.62121 0.72237 0.06951 0.0
O374 O 0.67081 0.71614 0.0522 0.0
O375 O 0.5677 0.72749 0.05307 0.0
O376 O 0.76604 0.73613 0.9996 0.0
O377 O 0.65901 0.74506 0.99131 0.0
O378 O 0.70408 0.61629 0.98925 0.0
Cd379 Cd 0.72916 0.59231 1.00163 0.0
Cd380 Cd 0.59734 0.59061 1.00136 0.0
O381 O 0.60073 0.61084 0.96798 0.0
O382 O 0.82767 0.58903 0.98628 0.0
O383 O 0.73871 0.57792 0.95844 0.0
C384 C 0.80432 0.58082 0.95956 0.0
C385 C 0.55972 0.56363 0.99815 0.0
C386 C 0.65059 0.62091 0.97243 0.0
C387 C 0.65719 0.59011 0.07058 0.0
O388 O 0.6078 0.59632 0.05316 0.0
O389 O 0.71091 0.58501 0.0542 0.0
O390 O 0.51569 0.57561 1.00011 0.0
O391 O 0.62388 0.56729 0.9926 0.0
O392 O 0.45804 0.4461 0.7383 0.0
Cd393 Cd 0.48228 0.47011 0.75095 0.0
Cd394 Cd 0.34991 0.47152 0.75104 0.0
O395 O 0.35392 0.45126 0.7176 0.0
O396 O 0.5797 0.47382 0.73414 0.0
O397 O 0.48826 0.48458 0.70795 0.0
C398 C 0.55402 0.48186 0.70778 0.0
C399 C 0.31072 0.49839 0.74797 0.0
C400 C 0.40468 0.4414 0.72148 0.0
C401 C 0.41085 0.47216 0.82012 0.0
O402 O 0.36145 0.4659 0.80274 0.0
O403 O 0.46442 0.47731 0.80372 0.0
O404 O 0.26738 0.48628 0.75015 0.0
O405 O 0.37498 0.49491 0.74225 0.0
O406 O 0.3246 0.3664 0.73768 0.0
Cd407 Cd 0.29782 0.34252 0.74976 0.0
Cd408 Cd 0.43011 0.34011 0.74883 0.0
O409 O 0.42767 0.36066 0.71623 0.0
O410 O 0.20036 0.33921 0.73265 0.0
O411 O 0.2914 0.32813 0.70653 0.0
C412 C 0.22581 0.33109 0.70626 0.0
C413 C 0.46882 0.31325 0.74535 0.0
C414 C 0.37848 0.37089 0.72097 0.0
C415 C 0.37043 0.33951 0.81828 0.0
O416 O 0.4204 0.34539 0.80077 0.0
O417 O 0.3151 0.33516 0.80238 0.0
O418 O 0.51239 0.32532 0.74732 0.0
O419 O 0.40459 0.31677 0.73973 0.0
O420 O 0.45522 0.36578 0.05264 0.0
Cd421 Cd 0.47872 0.34178 0.03967 0.0
Cd422 Cd 0.34645 0.34058 0.04001 0.0
O423 O 0.35112 0.36077 0.07362 0.0
O424 O 0.5772 0.33821 0.05471 0.0
O425 O 0.48788 0.32732 0.08266 0.0
C426 C 0.5536 0.33007 0.08144 0.0
C427 C 0.30903 0.3136 0.04303 0.0
C428 C 0.40215 0.37054 0.06967 0.0
C429 C 0.40592 0.33993 0.97075 0.0
O430 O 0.35695 0.34631 0.98828 0.0
O431 O 0.45941 0.33465 0.98699 0.0
O432 O 0.26487 0.32556 0.04141 0.0
O433 O 0.37321 0.31728 0.04837 0.0
O434 O 0.32635 0.44574 0.05296 0.0
Cd435 Cd 0.3015 0.46975 0.0408 0.0
Cd436 Cd 0.43306 0.47163 0.04224 0.0
O437 O 0.42919 0.45116 0.07492 0.0
O438 O 0.20338 0.47316 0.05641 0.0
O439 O 0.29303 0.4841 0.08406 0.0
C440 C 0.2273 0.48129 0.08312 0.0
C441 C 0.4769 0.49803 0.04532 0.0
C442 C 0.37955 0.44108 0.06997 0.0
C443 C 0.37495 0.47249 0.97257 0.0
O444 O 0.42403 0.46633 0.99023 0.0
O445 O 0.31986 0.47712 0.98834 0.0
O446 O 0.51787 0.48546 0.04352 0.0
O447 O 0.412 0.49529 0.05124 0.0
C448 C 0.20568 0.09012 0.12958 0.0
C449 C 0.149 0.08824 0.10691 0.0
C450 C 0.19657 0.09044 0.16632 0.0
C451 C 0.13054 0.08868 0.18188 0.0
H452 H 0.25708 0.09193 0.11889 0.0
H453 H 0.24191 0.09228 0.18263 0.0
S454 S 0.96639 0.08147 0.13379 0.0
N455 N 0.02519 0.08326 0.10238 0.0
N456 N 1.00836 0.08372 0.17147 0.0
C457 C 0.07388 0.08599 0.15946 0.0
C458 C 0.08305 0.08583 0.122 0.0
C459 C 0.07777 0.22234 0.12977 0.0
C460 C 0.13405 0.2243 0.10684 0.0
C461 C 0.08745 0.22208 0.16646 0.0
C462 C 0.15365 0.22401 0.18171 0.0
H463 H 0.02631 0.22039 0.1193 0.0
H464 H 0.04244 0.22015 0.18299 0.0
S465 S 0.31674 0.23156 0.13283 0.0
N466 N 0.25755 0.22958 0.10171 0.0
N467 N 0.27544 0.22926 0.17072 0.0
C468 C 0.20984 0.22682 0.15903 0.0
C469 C 0.20011 0.2269 0.12161 0.0
C470 C 0.83212 0.97191 0.91038 0.0
C471 C 0.88918 0.9733 0.93298 0.0
C472 C 0.84088 0.97178 0.8736 0.0
C473 C 0.90695 0.97326 0.85795 0.0
H474 H 0.78063 0.97034 0.92114 0.0
H475 H 0.79527 0.97031 0.85732 0.0
S476 S 0.07228 0.97908 0.90582 0.0
N477 N 1.01357 0.97748 0.93731 0.0
N478 N 0.02971 0.97736 0.8682 0.0
C479 C 0.96406 0.97544 0.88031 0.0
C480 C 0.95524 0.9754 0.91779 0.0
C481 C 0.96102 0.84031 0.91088 0.0
C482 C 0.90561 0.83736 0.93384 0.0
C483 C 0.95073 0.84089 0.87424 0.0
C484 C 0.8848 0.83831 0.85911 0.0
H485 H 1.01208 0.84283 0.92131 0.0
H486 H 0.99499 0.8436 0.8577 0.0
S487 S 0.72453 0.828 0.90815 0.0
N488 N 0.78369 0.8304 0.93916 0.0
N489 N 0.76457 0.83129 0.87026 0.0
C490 C 0.82969 0.83449 0.88183 0.0
C491 C 0.84005 0.83408 0.91918 0.0
C492 C 0.07455 0.59067 0.66162 0.0
C493 C 0.13021 0.58778 0.68442 0.0
C494 C 0.08443 0.59112 0.62493 0.0
C495 C 0.1502 0.58849 0.6096 0.0
H496 H 0.0236 0.59322 0.67221 0.0
H497 H 0.04001 0.59378 0.60851 0.0
S498 S 0.31105 0.57837 0.65819 0.0
N499 N 0.25221 0.58085 0.68937 0.0
N500 N 0.27057 0.58154 0.62041 0.0
C501 C 0.20556 0.58476 0.63217 0.0
C502 C 0.19561 0.58446 0.66956 0.0
C503 C 0.08523 0.72134 0.66716 0.0
C504 C 0.15083 0.7239 0.68267 0.0
C505 C 0.07588 0.72179 0.63043 0.0
C506 C 0.13194 0.72459 0.60777 0.0
H507 H 0.04052 0.71874 0.68348 0.0
H508 H 0.02503 0.71929 0.6197 0.0
S509 S 0.31262 0.73376 0.63453 0.0
N510 N 0.27149 0.73067 0.6722 0.0
N511 N 0.25418 0.73134 0.60318 0.0
C512 C 0.19719 0.72784 0.62283 0.0
C513 C 0.20658 0.72755 0.66025 0.0
C514 C 0.82673 0.47184 0.41113 0.0
C515 C 0.88293 0.47441 0.43378 0.0
C516 C 0.8361 0.47138 0.37441 0.0
C517 C 0.90188 0.47368 0.35888 0.0
H518 H 0.77568 0.46956 0.42185 0.0
H519 H 0.79121 0.46897 0.35811 0.0
S520 S 0.06425 0.48291 0.40702 0.0
N521 N 1.00562 0.48069 0.43839 0.0
N522 N 0.023 0.47999 0.36934 0.0
C523 C 0.95787 0.4771 0.3813 0.0
C524 C 0.94845 0.4774 0.41873 0.0
C525 C 0.82242 0.34063 0.37972 0.0
C526 C 0.87794 0.33764 0.35683 0.0
C527 C 0.83245 0.34114 0.4164 0.0
C528 C 0.89822 0.33846 0.43161 0.0
H529 H 0.77151 0.34323 0.36922 0.0
H530 H 0.78815 0.34389 0.43291 0.0
S531 S 0.05864 0.32804 0.38273 0.0
N532 N 0.99974 0.33055 0.35165 0.0
N533 N 0.01838 0.33133 0.42059 0.0
C534 C 0.95341 0.33461 0.40894 0.0
C535 C 0.94331 0.33426 0.37157 0.0
C536 C 0.69615 0.09074 0.66667 0.0
C537 C 0.63025 0.08881 0.68229 0.0
C538 C 0.70514 0.09042 0.62992 0.0
C539 C 0.64846 0.0884 0.6073 0.0
H540 H 0.74145 0.0927 0.68294 0.0
H541 H 0.75642 0.09236 0.61917 0.0
S542 S 0.46623 0.08122 0.63437 0.0
N543 N 0.50826 0.08357 0.672 0.0
N544 N 0.52484 0.08313 0.6029 0.0
C545 C 0.58267 0.08584 0.62245 0.0
C546 C 0.57364 0.08599 0.65992 0.0
C547 C 0.58741 0.22187 0.66695 0.0
C548 C 0.65345 0.22396 0.68227 0.0
C549 C 0.57783 0.22223 0.63024 0.0
C550 C 0.63407 0.22446 0.6074 0.0
H551 H 0.54248 0.21974 0.68342 0.0
H552 H 0.52652 0.22014 0.6197 0.0
S553 S 0.81625 0.23218 0.63366 0.0
N554 N 0.77496 0.22963 0.67146 0.0
N555 N 0.75726 0.23014 0.60245 0.0
C556 C 0.69991 0.22721 0.62226 0.0
C557 C 0.70954 0.22703 0.65968 0.0
C558 C 0.45051 0.97099 0.41646 0.0
C559 C 0.38491 0.97363 0.43197 0.0
C560 C 0.46007 0.97147 0.37976 0.0
C561 C 0.40422 0.97439 0.3571 0.0
H562 H 0.49509 0.96831 0.43277 0.0
H563 H 0.51091 0.96891 0.36905 0.0
S564 S 0.2237 0.98385 0.38382 0.0
N565 N 0.26451 0.98064 0.42149 0.0
N566 N 0.28222 0.98137 0.35247 0.0
C567 C 0.33897 0.97772 0.37213 0.0
C568 C 0.32937 0.97741 0.40955 0.0
C569 C 0.45962 0.84046 0.41094 0.0
C570 C 0.40406 0.8376 0.43386 0.0
C571 C 0.44953 0.84094 0.37428 0.0
C572 C 0.38365 0.83835 0.35909 0.0
H573 H 0.51065 0.84298 0.4214 0.0
H574 H 0.4939 0.84358 0.35776 0.0
S575 S 0.22301 0.82827 0.40804 0.0
N576 N 0.28203 0.83072 0.43909 0.0
N577 N 0.2633 0.83144 0.37015 0.0
C578 C 0.32839 0.83462 0.38178 0.0
C579 C 0.33854 0.83431 0.41915 0.0
C580 C 0.58384 0.59115 0.12505 0.0
C581 C 0.64947 0.58862 0.10951 0.0
C582 C 0.57447 0.59075 0.16178 0.0
C583 C 0.63054 0.58802 0.18441 0.0
H584 H 0.5391 0.59369 0.10876 0.0
H585 H 0.52357 0.59321 0.17252 0.0
S586 S 0.81135 0.57892 0.1576 0.0
N587 N 0.77023 0.58194 0.11994 0.0
N588 N 0.75285 0.58135 0.18897 0.0
C589 C 0.69586 0.58481 0.16934 0.0
C590 C 0.70528 0.58505 0.13191 0.0
C591 C 0.70422 0.72249 0.16052 0.0
C592 C 0.64762 0.72417 0.18337 0.0
C593 C 0.69485 0.72221 0.1238 0.0
C594 C 0.62862 0.72383 0.10845 0.0
H595 H 0.75577 0.7208 0.17105 0.0
H596 H 0.74012 0.72051 0.10733 0.0
S597 S 0.46449 0.73046 0.15703 0.0
N598 N 0.5236 0.7288 0.18826 0.0
N599 N 0.50632 0.72842 0.11922 0.0
C600 C 0.57203 0.72632 0.13104 0.0
C601 C 0.58145 0.72643 0.16848 0.0
C602 C 0.33716 0.47141 0.87445 0.0
C603 C 0.40311 0.47365 0.85905 0.0
C604 C 0.3276 0.47178 0.91116 0.0
C605 C 0.38375 0.47416 0.93394 0.0
H606 H 0.29229 0.46915 0.85805 0.0
H607 H 0.2764 0.46956 0.92176 0.0
S608 S 0.56552 0.48238 0.90756 0.0
N609 N 0.52437 0.47967 0.86977 0.0
N610 N 0.50664 0.48019 0.9388 0.0
C611 C 0.44946 0.47707 0.91903 0.0
C612 C 0.45908 0.47688 0.8816 0.0
C613 C 0.32281 0.3407 0.8797 0.0
C614 C 0.37867 0.33782 0.85694 0.0
C615 C 0.33235 0.34111 0.91642 0.0
C616 C 0.39795 0.33844 0.93183 0.0
H617 H 0.27197 0.34326 0.86908 0.0
H618 H 0.28778 0.34376 0.93281 0.0
S619 S 0.55925 0.32838 0.88339 0.0
N620 N 0.50073 0.33089 0.85214 0.0
N621 N 0.51839 0.3315 0.92114 0.0
C622 C 0.45351 0.33473 0.9093 0.0
C623 C 0.44393 0.33448 0.87188 0.0
C624 C 0.33024 1.02847 0.25522 0.0
C625 C 0.28421 1.01504 0.25625 0.0
C626 C 0.31155 0.04399 0.26857 0.0
C627 C 0.24598 0.04681 0.28363 0.0
H628 H 0.38163 1.02699 0.24428 0.0
H629 H 0.34866 0.05392 0.26644 0.0
S630 S 0.10679 1.01567 0.29407 0.0
N631 N 0.17022 1.00558 0.27451 0.0
N632 N 0.13529 0.03466 0.29947 0.0
C633 C 0.19956 0.03346 0.28515 0.0
C634 C 0.21852 1.01765 0.27145 0.0
C635 C 0.95435 0.28386 0.25525 0.0
C636 C 1.00003 0.29735 0.25632 0.0
C637 C 0.97333 0.26839 0.26859 0.0
C638 C 0.03888 0.26568 0.28369 0.0
H639 H 0.903 0.28524 0.24426 0.0
H640 H 0.9365 0.25839 0.26642 0.0
S641 S 0.17721 0.29703 0.29426 0.0
N642 N 0.11364 0.30701 0.27468 0.0
N643 N 0.14917 0.27801 0.29962 0.0
C644 C 0.08495 0.2791 0.28525 0.0
C645 C 0.06568 0.29486 0.27157 0.0
C646 C 0.20281 0.27795 1.00678 0.0
C647 C 0.25028 0.26481 1.00556 0.0
C648 C 0.22144 0.29342 1.02033 0.0
C649 C 0.28841 0.2965 0.03334 0.0
H650 H 0.1503 0.27626 0.99755 0.0
H651 H 0.18305 0.30312 1.02004 0.0
S652 S 0.43222 0.26622 0.0369 0.0
N653 N 0.36745 0.25592 1.01911 0.0
N654 N 0.40234 0.28493 0.04447 0.0
C655 C 0.33641 0.28345 0.03247 0.0
C656 C 0.31748 0.26768 1.01856 0.0
C657 C 0.08138 0.03386 1.00686 0.0
C658 C 0.03374 0.04697 1.00598 0.0
C659 C 0.06326 1.0184 0.02057 0.0
C660 C 0.99669 1.01531 0.03414 0.0
H661 H 0.13362 0.03556 0.99722 0.0
H662 H 0.10172 1.00871 1.01998 0.0
S663 S 0.85262 0.04549 0.03872 0.0
N664 N 0.9168 0.0558 1.0204 0.0
N665 N 0.88293 1.02683 0.04611 0.0
C666 C 0.94852 1.02832 0.03359 0.0
C667 C 0.96689 0.04407 1.01949 0.0
C668 C 0.70714 0.03452 0.78086 0.0
C669 C 0.75469 0.04762 0.78289 0.0
C670 C 0.72646 1.01902 0.76769 0.0
C671 C 0.79427 1.01588 0.7559 0.0
H672 H 0.654 0.03625 0.78911 0.0
H673 H 0.68787 1.00936 0.76727 0.0
S674 S 0.939 0.04597 0.75532 0.0
N675 N 0.87306 0.05636 0.77175 0.0
N676 N 0.90928 1.02731 0.74709 0.0
C677 C 0.84244 1.02887 0.75767 0.0
C678 C 0.82278 0.04467 0.7712 0.0
C679 C 0.08022 0.77774 0.78158 0.0
C680 C 0.03187 0.76483 0.78447 0.0
C681 C 0.06131 0.79326 0.76845 0.0
C682 C 0.99318 0.7966 0.75755 0.0
H683 H 0.13364 0.77583 0.78906 0.0
H684 H 0.1005 0.80276 0.7673 0.0
S685 S 0.84629 0.76711 0.75968 0.0
N686 N 0.91234 0.75654 0.77529 0.0
N687 N 0.87691 0.78559 0.75066 0.0
C688 C 0.94419 0.78381 0.76026 0.0
C689 C 0.96342 0.76801 0.77376 0.0
C690 C 0.81124 0.768 0.02178 0.0
C691 C 0.74555 0.76537 1.00675 0.0
C692 C 0.83064 0.78344 0.03526 0.0
C693 C 0.78522 0.79698 0.03443 0.0
H694 H 0.84789 0.75796 0.02377 0.0
H695 H 0.88208 0.78476 0.04618 0.0
S696 S 0.60782 0.79689 0.99673 0.0
N697 N 0.63544 0.77784 0.99112 0.0
N698 N 0.67171 0.80678 1.01634 0.0
C699 C 0.71943 0.79457 1.01925 0.0
C700 C 0.69975 0.77884 1.0054 0.0
C701 C 0.20464 0.53378 0.78555 0.0
C702 C 0.25085 0.54718 0.78495 0.0
C703 C 0.22344 0.51829 0.77214 0.0
C704 C 0.28932 0.51546 0.75746 0.0
H705 H 0.15301 0.53527 0.79618 0.0
H706 H 0.18616 0.50837 0.77392 0.0
S707 S 0.42922 0.54651 0.74835 0.0
N708 N 0.36541 0.5566 0.76759 0.0
N709 N 0.40059 0.52756 0.74252 0.0
C710 C 0.33596 0.52877 0.7564 0.0
C711 C 0.31687 0.54456 0.77016 0.0
C712 C 0.33005 0.78361 0.53577 0.0
C713 C 0.28484 0.79717 0.53402 0.0
C714 C 0.31142 0.76816 0.52207 0.0
C715 C 0.24678 0.76556 0.50587 0.0
H716 H 0.3807 0.78492 0.54761 0.0
H717 H 0.34774 0.7581 0.52486 0.0
S718 S 0.11023 0.79712 0.49306 0.0
N719 N 0.17279 0.80701 0.51377 0.0
N720 N 0.13799 0.77805 0.48813 0.0
C721 C 0.20124 0.77904 0.5036 0.0
C722 C 0.2201 0.79478 0.51768 0.0
C723 C 0.95577 0.52818 0.53473 0.0
C724 C 1.0026 0.51491 0.53487 0.0
C725 C 0.97447 0.54366 0.52132 0.0
C726 C 0.04087 0.5466 0.5074 0.0
H727 H 0.90372 0.52661 0.54473 0.0
H728 H 0.93663 0.55347 0.52249 0.0
S729 S 0.18269 0.51592 0.5006 0.0
N730 N 0.11844 0.50573 0.51915 0.0
N731 N 0.15344 0.53475 0.49409 0.0
C732 C 0.08819 0.53342 0.50714 0.0
C733 C 0.0692 0.51764 0.52089 0.0
C734 C 0.70472 0.53406 0.28513 0.0
C735 C 0.75139 0.54737 0.28489 0.0
C736 C 0.72326 0.51856 0.2717 0.0
C737 C 0.78934 0.51563 0.25735 0.0
H738 H 0.65291 0.53562 0.29548 0.0
H739 H 0.68558 0.50872 0.27317 0.0
S740 S 0.93058 0.5464 0.2494 0.0
N741 N 0.86669 0.55659 0.26833 0.0
N742 N 0.9014 0.52753 0.24321 0.0
C743 C 0.83648 0.52885 0.25669 0.0
C744 C 0.81765 0.54465 0.27047 0.0
C745 C 0.82767 0.2846 0.53003 0.0
C746 C 0.77978 0.29761 0.53254 0.0
C747 C 0.80862 0.26913 0.51658 0.0
C748 C 0.74078 0.26595 0.50494 0.0
H749 H 0.88085 0.28638 0.53811 0.0
H750 H 0.84742 0.25953 0.51581 0.0
S751 S 0.59519 0.2958 0.50567 0.0
N752 N 0.66102 0.30621 0.5221 0.0
N753 N 0.62535 0.27724 0.49685 0.0
C754 C 0.69226 0.27886 0.50723 0.0
C755 C 0.71163 0.29461 0.52107 0.0
C756 C 0.55749 0.29326 0.76759 0.0
C757 C 0.49009 0.2962 0.75505 0.0
C758 C 0.57688 0.27785 0.78106 0.0
C759 C 0.5298 0.26464 0.78269 0.0
H760 H 0.59566 0.30302 0.76752 0.0
H761 H 0.62972 0.27627 0.78987 0.0
S762 S 0.34665 0.26577 0.75323 0.0
N763 N 0.37595 0.28447 0.74515 0.0
N764 N 0.41228 0.25559 0.77042 0.0
C765 C 0.46209 0.2674 0.77031 0.0
C766 C 0.44237 0.2831 0.75646 0.0
C767 C 0.47584 0.04295 0.51668 0.0
C768 C 0.54345 0.04623 0.50479 0.0
C769 C 0.45734 1.02746 0.5301 0.0
C770 C 0.50556 1.01451 0.5323 0.0
H771 H 0.43678 0.0525 0.51614 0.0
H772 H 0.40431 1.02561 0.53839 0.0
S773 S 0.68974 1.01658 0.50468 0.0
N774 N 0.65906 0.0351 0.49614 0.0
N775 N 0.62436 1.00607 0.52129 0.0
C776 C 0.57348 1.0176 0.52056 0.0
C777 C 0.59231 0.03339 0.50678 0.0
C778 C 0.47503 0.76916 0.27448 0.0
C779 C 0.54289 0.76596 0.28601 0.0
C780 C 0.45606 0.78461 0.26106 0.0
C781 C 0.50404 0.7976 0.25851 0.0
H782 H 0.43613 0.75957 0.27528 0.0
H783 H 0.40286 0.78639 0.25304 0.0
S784 S 0.68874 0.79574 0.2851 0.0
N785 N 0.65848 0.77721 0.29394 0.0
N786 N 0.6229 0.80616 0.2688 0.0
C787 C 0.57221 0.79459 0.26989 0.0
C788 C 0.59152 0.77884 0.28367 0.0
C789 C 0.45397 0.52802 0.03483 0.0
C790 C 0.50108 0.5148 0.03521 0.0
C791 C 0.4725 0.54352 0.02141 0.0
C792 C 0.53901 0.54653 1.00768 0.0
H793 H 0.40183 0.5264 0.04467 0.0
H794 H 0.43443 0.55328 0.02239 0.0
S795 S 0.6816 0.51601 1.00156 0.0
N796 N 0.61733 0.50576 1.01994 0.0
N797 N 0.65201 0.53479 0.99484 0.0
C798 C 0.58662 0.5334 1.00766 0.0
C799 C 0.5678 0.51761 0.02143 0.0
C800 C 0.08539 0.16627 0.32773 0.0
C801 C 0.15021 0.17406 0.32831 0.0
C802 C 0.08013 0.14904 0.32738 0.0
C803 C 0.1394 0.13892 0.32793 0.0
H804 H 0.03858 0.17346 0.32488 0.0
H805 H 0.0292 0.14365 0.32466 0.0
S806 S 0.32054 0.15337 0.3368 0.0
N807 N 0.27437 0.17044 0.33479 0.0
N808 N 0.26445 0.13809 0.33436 0.0
C809 C 0.20409 0.14658 0.33212 0.0
C810 C 0.20948 0.16414 0.33219 0.0
C811 C 0.19813 0.16599 0.96102 0.0
C812 C 0.13306 0.17366 0.96054 0.0
C813 C 0.20394 0.14877 0.96142 0.0
C814 C 0.14499 0.13855 0.96096 0.0
H815 H 0.24474 0.17327 0.96378 0.0
H816 H 0.25504 0.14347 0.96409 0.0
S817 S 0.96332 0.15266 0.95248 0.0
N818 N 1.00897 0.16981 0.95437 0.0
N819 N 0.01991 0.13748 0.9548 0.0
C820 C 0.08003 0.14608 0.95688 0.0
C821 C 0.07408 0.16363 0.95681 0.0
C822 C 0.95649 0.91337 0.71166 0.0
C823 C 0.89744 0.92357 0.71164 0.0
C824 C 0.95081 0.89615 0.71172 0.0
C825 C 0.8858 0.88845 0.7121 0.0
H826 H 1.00765 0.91872 0.71368 0.0
H827 H 0.99758 0.88891 0.71412 0.0
S828 S 0.71558 0.90933 0.70547 0.0
N829 N 0.77214 0.92454 0.70685 0.0
N830 N 0.76144 0.89221 0.70717 0.0
C831 C 0.8266 0.89843 0.70877 0.0
C832 C 0.8324 0.91598 0.70842 0.0
C833 C 0.83515 0.91278 0.07887 0.0
C834 C 0.89419 0.92298 0.07922 0.0
C835 C 0.84079 0.89557 0.07941 0.0
C836 C 0.90579 0.88786 0.07995 0.0
H837 H 0.78409 0.9181 0.07616 0.0
H838 H 0.79411 0.88831 0.07671 0.0
S839 S 0.07571 0.9088 0.08789 0.0
N840 N 0.01926 0.924 0.0854 0.0
N841 N 0.0299 0.89167 0.08615 0.0
C842 C 0.96486 0.89787 0.08361 0.0
C843 C 0.95907 0.91543 0.08338 0.0
C844 C 0.07768 0.64887 0.82909 0.0
C845 C 0.13669 0.63867 0.82949 0.0
C846 C 0.0834 0.66609 0.82925 0.0
C847 C 0.14844 0.67379 0.82944 0.0
H848 H 0.02658 0.64354 0.82666 0.0
H849 H 0.03671 0.67333 0.82659 0.0
S850 S 0.31839 0.65287 0.8372 0.0
N851 N 0.26184 0.63767 0.83524 0.0
N852 N 0.27263 0.67 0.83527 0.0
C853 C 0.20752 0.66379 0.83309 0.0
C854 C 0.20166 0.64624 0.83325 0.0
C855 C 0.20122 0.66595 0.46358 0.0
C856 C 0.13643 0.67372 0.462 0.0
C857 C 0.2065 0.64873 0.46424 0.0
C858 C 0.14729 0.63859 0.46302 0.0
H859 H 0.24783 0.67317 0.46699 0.0
H860 H 0.25728 0.64336 0.46775 0.0
S861 S 0.96666 0.65297 0.45144 0.0
N862 N 1.01269 0.67005 0.45387 0.0
N863 N 0.02262 0.63771 0.45485 0.0
C864 C 0.08283 0.64622 0.45783 0.0
C865 C 0.07742 0.66377 0.45745 0.0
C866 C 0.94656 0.39602 0.2124 0.0
C867 C 0.88148 0.38836 0.21136 0.0
C868 C 0.95242 0.41323 0.21305 0.0
C869 C 0.89351 0.42347 0.21234 0.0
H870 H 0.99306 0.38873 0.21538 0.0
H871 H 1.00348 0.41852 0.21612 0.0
S872 S 0.71206 0.4094 0.20232 0.0
N873 N 0.75761 0.39223 0.20433 0.0
N874 N 0.76862 0.42456 0.20528 0.0
C875 C 0.82864 0.41595 0.20771 0.0
C876 C 0.82265 0.39841 0.20736 0.0
C877 C 0.95456 0.39887 0.57718 0.0
C878 C 0.89528 0.38877 0.57826 0.0
C879 C 0.94938 0.41609 0.57797 0.0
C880 C 0.88462 0.42389 0.5795 0.0
H881 H 1.00533 0.39348 0.57371 0.0
H882 H 0.99608 0.42329 0.57468 0.0
S883 S 0.71461 0.40321 0.5896 0.0
N884 N 0.77051 0.38793 0.5862 0.0
N885 N 0.76078 0.42028 0.58736 0.0
C886 C 0.8255 0.41397 0.58387 0.0
C887 C 0.83081 0.39642 0.5834 0.0
C888 C 0.57997 0.14895 0.82802 0.0
C889 C 0.63925 0.13884 0.82855 0.0
C890 C 0.58522 0.16618 0.82836 0.0
C891 C 0.65004 0.17397 0.8289 0.0
H892 H 0.52904 0.14355 0.82533 0.0
H893 H 0.53838 0.17336 0.82554 0.0
S894 S 0.82041 0.15331 0.8373 0.0
N895 N 0.76432 0.13803 0.83492 0.0
N896 N 0.7742 0.17037 0.83529 0.0
C897 C 0.70932 0.16406 0.83274 0.0
C898 C 0.70394 0.1465 0.8327 0.0
C899 C 0.69802 0.16621 0.46133 0.0
C900 C 0.63299 0.17389 0.46094 0.0
C901 C 0.70374 0.14899 0.4617 0.0
C902 C 0.64473 0.13878 0.46133 0.0
H903 H 0.74467 0.17347 0.46405 0.0
H904 H 0.75483 0.14367 0.46432 0.0
S905 S 0.4631 0.15293 0.45306 0.0
N906 N 0.50885 0.17007 0.45488 0.0
N907 N 0.51963 0.13774 0.45532 0.0
C908 C 0.5798 0.14633 0.45732 0.0
C909 C 0.57394 0.16387 0.45725 0.0
C910 C 0.45643 0.91329 0.21234 0.0
C911 C 0.39744 0.92349 0.21207 0.0
C912 C 0.45069 0.89607 0.21225 0.0
C913 C 0.38564 0.88838 0.21225 0.0
H914 H 0.50757 0.91862 0.21463 0.0
H915 H 0.4974 0.88882 0.21481 0.0
S916 S 0.21564 0.9093 0.20489 0.0
N917 N 0.27222 0.9245 0.20665 0.0
N918 N 0.2614 0.89217 0.20675 0.0
C919 C 0.32654 0.89837 0.20873 0.0
C920 C 0.33241 0.91592 0.2085 0.0
C921 C 0.45393 0.91584 0.57847 0.0
C922 C 0.38898 0.92358 0.57874 0.0
C923 C 0.45947 0.89862 0.57839 0.0
C924 C 0.40034 0.88846 0.57895 0.0
H925 H 0.50068 0.92307 0.57568 0.0
H926 H 0.5105 0.89325 0.57588 0.0
S927 S 0.21881 0.90277 0.58681 0.0
N928 N 0.26476 0.91987 0.58476 0.0
N929 N 0.27518 0.88753 0.58486 0.0
C930 C 0.33546 0.89607 0.58278 0.0
C931 C 0.3298 0.91362 0.58254 0.0
C932 C 0.58416 0.66625 0.32959 0.0
C933 C 0.64922 0.67392 0.33004 0.0
C934 C 0.57838 0.64903 0.32933 0.0
C935 C 0.63736 0.63882 0.32987 0.0
H936 H 0.53756 0.67351 0.32674 0.0
H937 H 0.52729 0.64371 0.32667 0.0
S938 S 0.81899 0.65298 0.33836 0.0
N939 N 0.7733 0.67011 0.33632 0.0
N940 N 0.76243 0.63779 0.33611 0.0
C941 C 0.7023 0.64637 0.33394 0.0
C942 C 0.70821 0.66391 0.33389 0.0
C943 C 0.69832 0.66595 0.9631 0.0
C944 C 0.63356 0.67375 0.96193 0.0
C945 C 0.7035 0.64873 0.96373 0.0
C946 C 0.64421 0.63861 0.96288 0.0
H947 H 0.74507 0.67314 0.96621 0.0
H948 H 0.75433 0.64334 0.96691 0.0
S949 S 0.4634 0.65306 0.95246 0.0
N950 N 0.50959 0.67012 0.95458 0.0
N951 N 0.51935 0.63778 0.95552 0.0
C952 C 0.57968 0.64626 0.9581 0.0
C953 C 0.57437 0.66382 0.95775 0.0
C954 C 0.33326 0.41608 0.71223 0.0
C955 C 0.39842 0.42372 0.71191 0.0
C956 C 0.32725 0.39887 0.71238 0.0
C957 C 0.38608 0.38861 0.71185 0.0
H958 H 0.28671 0.42338 0.71503 0.0
H959 H 0.27605 0.3936 0.71491 0.0
S960 S 0.56796 0.40262 0.7037 0.0
N961 N 0.52251 0.4198 0.70576 0.0
N962 N 0.51117 0.38748 0.70579 0.0
C963 C 0.45115 0.39611 0.70794 0.0
C964 C 0.4573 0.41366 0.70809 0.0
C965 C 0.32662 0.41326 0.07837 0.0
C966 C 0.38596 0.42335 0.07919 0.0
C967 C 0.33174 0.39603 0.07861 0.0
C968 C 0.3965 0.38821 0.07931 0.0
H969 H 0.27577 0.41868 0.07552 0.0
H970 H 0.28491 0.38886 0.07555 0.0
S971 S 0.56691 0.40883 0.0884 0.0
N972 N 0.51096 0.42413 0.08595 0.0
N973 N 0.52061 0.39178 0.08613 0.0
C974 C 0.4558 0.39811 0.08343 0.0
C975 C 0.45055 0.41567 0.0835 0.0
C976 C 0.86585 0.07757 0.36289 0.0
C977 C 0.93843 0.07765 0.36556 0.0
C978 C 0.82365 0.07743 0.39316 0.0
C979 C 0.85229 0.07777 0.42738 0.0
H980 H 0.84132 0.07829 0.33722 0.0
H981 H 0.76818 0.07816 0.38962 0.0
S982 S 0.0391 0.07629 0.44908 0.0
N983 N 0.03693 0.07645 0.40546 0.0
N984 N 0.95765 0.07669 0.46212 0.0
C985 C 0.92462 0.0769 0.43045 0.0
C986 C 0.96763 0.0767 0.39963 0.0
C987 C 0.41889 0.2358 0.36283 0.0
C988 C 0.34627 0.23583 0.36525 0.0
C989 C 0.46058 0.2359 0.39324 0.0
C990 C 0.43138 0.23568 0.42737 0.0
H991 H 0.44384 0.23498 0.33725 0.0
H992 H 0.51608 0.23507 0.38988 0.0
S993 S 0.24428 0.23758 0.44844 0.0
N994 N 0.24717 0.23731 0.40483 0.0
N995 N 0.3255 0.23704 0.46175 0.0
C996 C 0.35904 0.2367 0.43019 0.0
C997 C 0.31654 0.23692 0.39922 0.0
C998 C 0.9182 0.23609 0.86286 0.0
C999 C 0.84559 0.23606 0.86548 0.0
C1000 C 0.96025 0.23616 0.89315 0.0
C1001 C 0.93142 0.23585 0.92734 0.0
H1002 H 0.94288 0.23532 0.8372 0.0
H1003 H 1.01571 0.23535 0.88962 0.0
S1004 S 0.74449 0.23758 0.94895 0.0
N1005 N 0.74691 0.2374 0.90533 0.0
N1006 N 0.82586 0.23709 0.96203 0.0
C1007 C 0.85908 0.23683 0.93037 0.0
C1008 C 0.81622 0.23707 0.89953 0.0
C1009 C 0.32375 0.07689 0.89302 0.0
C1010 C 0.35215 0.07721 0.92728 0.0
C1011 C 0.36618 0.07706 0.86283 0.0
C1012 C 0.43875 0.07716 0.86562 0.0
H1013 H 0.2683 0.07763 0.88939 0.0
H1014 H 0.34182 0.07781 0.83712 0.0
S1015 S 0.53883 0.07573 0.94931 0.0
N1016 N 0.45729 0.0761 0.9622 0.0
N1017 N 0.53697 0.07593 0.90569 0.0
C1018 C 0.46772 0.07617 0.89973 0.0
C1019 C 0.42447 0.07633 0.93047 0.0
C1020 C 0.11954 0.98552 0.61258 0.0
C1021 C 0.19212 0.98529 0.61531 0.0
C1022 C 0.07723 0.98559 0.64282 0.0
C1023 C 0.10574 0.98505 0.67704 0.0
H1024 H 0.09508 0.98494 0.58687 0.0
H1025 H 0.02176 0.98497 0.63921 0.0
S1026 S 0.29254 0.9861 0.69894 0.0
N1027 N 0.29051 0.98613 0.65532 0.0
N1028 N 0.21104 0.98579 0.7119 0.0
C1029 C 0.1781 0.98579 0.68019 0.0
C1030 C 0.22123 0.98605 0.64942 0.0
C1031 C 0.616 0.82702 0.67888 0.0
C1032 C 0.68862 0.82676 0.6764 0.0
C1033 C 0.57417 0.82684 0.64851 0.0
C1034 C 0.60329 0.82676 0.61437 0.0
H1035 H 0.5912 0.82808 0.70446 0.0
H1036 H 0.51873 0.82788 0.65186 0.0
S1037 S 0.79018 0.82416 0.59316 0.0
N1038 N 0.78748 0.82472 0.63676 0.0
N1039 N 0.70894 0.82485 0.57993 0.0
C1040 C 0.67555 0.8255 0.61151 0.0
C1041 C 0.71816 0.82536 0.64243 0.0
C1042 C 0.11846 0.82595 0.17844 0.0
C1043 C 0.19111 0.826 0.17604 0.0
C1044 C 0.07679 0.82568 0.14802 0.0
C1045 C 0.10605 0.8258 0.11391 0.0
H1046 H 0.09347 0.82686 0.204 0.0
H1047 H 0.02128 0.8265 0.15134 0.0
S1048 S 0.29322 0.824 0.09293 0.0
N1049 N 0.29028 0.82444 0.13653 0.0
N1050 N 0.21201 0.82439 0.07959 0.0
C1051 C 0.17842 0.82482 0.11113 0.0
C1052 C 0.22089 0.82478 0.14211 0.0
C1053 C 0.6182 0.98404 0.11208 0.0
C1054 C 0.69078 0.98422 0.11483 0.0
C1055 C 0.57581 0.98439 0.14229 0.0
C1056 C 0.6043 0.98456 0.17654 0.0
H1057 H 0.59385 0.98293 0.08642 0.0
H1058 H 0.52041 0.98342 0.13874 0.0
S1059 S 0.79088 0.98694 0.19841 0.0
N1060 N 0.78896 0.98625 0.15481 0.0
N1061 N 0.70939 0.98641 0.21135 0.0
C1062 C 0.67656 0.98571 0.17965 0.0
C1063 C 0.71973 0.98569 0.14889 0.0
C1064 C 0.86302 0.57702 0.86418 0.0
C1065 C 0.9356 0.57718 0.86683 0.0
C1066 C 0.82084 0.57682 0.89445 0.0
C1067 C 0.84951 0.57716 0.92866 0.0
H1068 H 0.83845 0.57774 0.83852 0.0
H1069 H 0.76536 0.5775 0.89092 0.0
S1070 S 0.03638 0.57584 0.9503 0.0
N1071 N 0.03416 0.57604 0.90668 0.0
N1072 N 0.95494 0.57614 0.96337 0.0
C1073 C 0.92186 0.57635 0.93171 0.0
C1074 C 0.96486 0.57622 0.90088 0.0
C1075 C 0.32052 0.73581 0.89792 0.0
C1076 C 0.34923 0.7358 0.86369 0.0
C1077 C 0.36268 0.7356 0.92817 0.0
C1078 C 0.43528 0.73575 0.92548 0.0
H1079 H 0.26509 0.73485 0.90145 0.0
H1080 H 0.33813 0.73461 0.95382 0.0
S1081 S 0.53598 0.73808 0.84197 0.0
N1082 N 0.45458 0.7375 0.82896 0.0
N1083 N 0.53375 0.73759 0.88558 0.0
C1084 C 0.46447 0.73707 0.89144 0.0
C1085 C 0.42152 0.73695 0.86063 0.0
C1086 C 0.86523 0.73542 0.42752 0.0
C1087 C 0.93783 0.73537 0.42496 0.0
C1088 C 0.8233 0.7356 0.3972 0.0
C1089 C 0.85223 0.73536 0.36302 0.0
H1090 H 0.84047 0.73462 0.45315 0.0
H1091 H 0.76781 0.73483 0.40067 0.0
S1092 S 0.03922 0.737 0.34159 0.0
N1093 N 0.03666 0.73673 0.3852 0.0
N1094 N 0.95789 0.73659 0.32843 0.0
C1095 C 0.92458 0.73628 0.36006 0.0
C1096 C 0.96732 0.73643 0.39094 0.0
C1097 C 0.36461 0.57702 0.36449 0.0
C1098 C 0.43719 0.57721 0.36706 0.0
C1099 C 0.32258 0.57679 0.39481 0.0
C1100 C 0.3514 0.57712 0.42899 0.0
H1101 H 0.33991 0.57776 0.33886 0.0
H1102 H 0.26708 0.57747 0.39135 0.0
S1103 S 0.53838 0.5758 0.4504 0.0
N1104 N 0.53595 0.57604 0.40679 0.0
N1105 N 0.45699 0.57608 0.46357 0.0
C1106 C 0.42377 0.57631 0.43195 0.0
C1107 C 0.46662 0.57621 0.40107 0.0
C1108 C 0.1688 0.48459 0.17862 0.0
C1109 C 0.09621 0.48481 0.17592 0.0
C1110 C 0.21108 0.48484 0.14837 0.0
C1111 C 0.18247 0.48494 0.11415 0.0
H1112 H 0.19323 0.48352 0.20426 0.0
H1113 H 0.26648 0.48383 0.15189 0.0
S1114 S 0.99585 0.48742 0.09244 0.0
N1115 N 0.99792 0.48682 0.13604 0.0
N1116 N 0.07729 0.4868 0.07942 0.0
C1117 C 0.11023 0.48614 0.1111 0.0
C1118 C 0.06716 0.48622 0.1419 0.0
C1119 C 0.6117 0.32616 0.17682 0.0
C1120 C 0.68429 0.3264 0.17424 0.0
C1121 C 0.56975 0.32596 0.1465 0.0
C1122 C 0.59864 0.32637 0.11232 0.0
H1123 H 0.58693 0.32684 0.20246 0.0
H1124 H 0.51424 0.3266 0.15 0.0
S1125 S 0.78569 0.32522 0.09085 0.0
N1126 N 0.78315 0.32538 0.13446 0.0
N1127 N 0.70434 0.32547 0.0777 0.0
C1128 C 0.67103 0.32561 0.10934 0.0
C1129 C 0.71381 0.32549 0.14021 0.0
C1130 C 0.06799 0.32736 0.64688 0.0
C1131 C 0.0969 0.32719 0.61269 0.0
C1132 C 0.10999 0.32764 0.67719 0.0
C1133 C 0.18259 0.32739 0.67461 0.0
H1134 H 1.01256 0.32838 0.65031 0.0
H1135 H 0.08532 0.32875 0.70279 0.0
S1136 S 0.28372 0.32463 0.59128 0.0
N1137 N 0.20241 0.32525 0.57813 0.0
N1138 N 0.28125 0.3253 0.63487 0.0
C1139 C 0.21195 0.32592 0.64062 0.0
C1140 C 0.16918 0.32596 0.60975 0.0
C1141 C 0.66985 0.48549 0.67876 0.0
C1142 C 0.59725 0.48564 0.67617 0.0
C1143 C 0.71194 0.48576 0.64845 0.0
C1144 C 0.68313 0.48582 0.61427 0.0
H1145 H 0.69445 0.48444 0.70436 0.0
H1146 H 0.76737 0.48478 0.65188 0.0
S1147 S 0.49636 0.48817 0.59284 0.0
N1148 N 0.49869 0.48758 0.63644 0.0
N1149 N 0.57773 0.48761 0.5797 0.0
C1150 C 0.61086 0.48698 0.61133 0.0
C1151 C 0.56798 0.48704 0.64219 0.0
loop_
_geom_bond_atom_site_label_1
_geom_bond_atom_site_label_2
_geom_bond_distance
_geom_bond_site_symmetry_2
_ccdc_geom_bond_type
O0 Cd1 2.223 . S
O0 C8 1.315 . S
Cd1 O0 2.223 . S
Cd1 O4 2.297 1_455 S
Cd1 O5 2.439 . S
Cd1 O11 2.240 . S
Cd2 O3 2.240 . S
Cd2 O10 2.223 . S
Cd2 O12 2.297 . S
Cd2 O13 2.439 . S
O3 Cd2 2.240 . S
O3 C8 1.279 . S
O4 Cd1 2.297 1_655 S
O4 C6 1.247 . S
O5 Cd1 2.439 . S
O5 C6 1.208 1_455 S
C6 O4 1.247 . S
C6 O5 1.208 1_655 S
C7 O12 1.247 . S
C7 O13 1.208 . S
C8 O0 1.315 . S
C8 O3 1.279 . S
C9 O10 1.315 . S
C9 O11 1.279 . S
O10 Cd2 2.223 . S
O10 C9 1.315 . S
O11 Cd1 2.240 . S
O11 C9 1.279 . S
O12 Cd2 2.297 . S
O12 C7 1.247 . S
O13 Cd2 2.439 . S
O13 C7 1.208 . S
O14 Cd15 2.223 . S
O14 C22 1.315 . S
Cd15 O14 2.223 . S
Cd15 O18 2.297 . S
Cd15 O19 2.439 . S
Cd15 O25 2.240 . S
Cd16 O17 2.240 . S
Cd16 O24 2.223 . S
Cd16 O26 2.297 . S
Cd16 O27 2.439 . S
O17 Cd16 2.240 . S
O17 C22 1.279 . S
O18 Cd15 2.297 . S
O18 C20 1.247 . S
O19 Cd15 2.439 . S
O19 C20 1.208 . S
C20 O18 1.247 . S
C20 O19 1.208 . S
C21 O26 1.247 . S
C21 O27 1.208 . S
C22 O14 1.315 . S
C22 O17 1.279 . S
C23 O24 1.315 . S
C23 O25 1.279 . S
O24 Cd16 2.223 . S
O24 C23 1.315 . S
O25 Cd15 2.240 . S
O25 C23 1.279 . S
O26 Cd16 2.297 . S
O26 C21 1.247 . S
O27 Cd16 2.439 . S
O27 C21 1.208 . S
O28 Cd29 2.225 . S
O28 C36 1.315 1_554 S
Cd29 O28 2.225 . S
Cd29 O32 2.281 1_454 S
Cd29 O33 2.421 1_554 S
Cd29 O39 2.252 . S
Cd30 O31 2.240 . S
Cd30 O38 2.223 1_556 S
Cd30 O40 2.297 1_556 S
Cd30 O41 2.439 . S
O31 Cd30 2.240 . S
O31 C36 1.279 . S
O32 Cd29 2.281 1_656 S
O32 C34 1.247 . S
O33 Cd29 2.421 1_556 S
O33 C34 1.208 1_455 S
C34 O32 1.247 . S
C34 O33 1.208 1_655 S
C35 O40 1.247 1_556 S
C35 O41 1.208 . S
C36 O28 1.315 1_556 S
C36 O31 1.279 . S
C37 O38 1.315 . S
C37 O39 1.279 . S
O38 Cd30 2.223 1_554 S
O38 C37 1.315 . S
O39 Cd29 2.252 . S
O39 C37 1.279 . S
O40 Cd30 2.297 1_554 S
O40 C35 1.247 1_554 S
O41 Cd30 2.439 . S
O41 C35 1.208 . S
O42 Cd43 2.225 . S
O42 C50 1.315 1_554 S
Cd43 O42 2.225 . S
Cd43 O46 2.281 1_554 S
Cd43 O47 2.421 1_554 S
Cd43 O53 2.252 . S
Cd44 O45 2.240 . S
Cd44 O52 2.223 1_556 S
Cd44 O54 2.297 1_556 S
Cd44 O55 2.439 . S
O45 Cd44 2.240 . S
O45 C50 1.279 . S
O46 Cd43 2.281 1_556 S
O46 C48 1.247 . S
O47 Cd43 2.421 1_556 S
O47 C48 1.208 . S
C48 O46 1.247 . S
C48 O47 1.208 . S
C49 O54 1.247 1_556 S
C49 O55 1.208 . S
C50 O42 1.315 1_556 S
C50 O45 1.279 . S
C51 O52 1.315 . S
C51 O53 1.279 . S
O52 Cd44 2.223 1_554 S
O52 C51 1.315 . S
O53 Cd43 2.252 . S
O53 C51 1.279 . S
O54 Cd44 2.297 1_554 S
O54 C49 1.247 1_554 S
O55 Cd44 2.439 . S
O55 C49 1.208 . S
O56 Cd57 2.223 . S
O56 C64 1.315 . S
Cd57 O56 2.223 . S
Cd57 O60 2.297 1_655 S
Cd57 O61 2.439 . S
Cd57 O67 2.240 . S
Cd58 O59 2.240 . S
Cd58 O66 2.223 . S
Cd58 O68 2.297 . S
Cd58 O69 2.439 . S
O59 Cd58 2.240 . S
O59 C64 1.279 . S
O60 Cd57 2.297 1_455 S
O60 C62 1.247 . S
O61 Cd57 2.439 . S
O61 C62 1.208 1_655 S
C62 O60 1.247 . S
C62 O61 1.208 1_455 S
C63 O68 1.247 . S
C63 O69 1.208 . S
C64 O56 1.315 . S
C64 O59 1.279 . S
C65 O66 1.315 . S
C65 O67 1.279 . S
O66 Cd58 2.223 . S
O66 C65 1.315 . S
O67 Cd57 2.240 . S
O67 C65 1.279 . S
O68 Cd58 2.297 . S
O68 C63 1.247 . S
O69 Cd58 2.439 . S
O69 C63 1.208 . S
O70 Cd71 2.223 . S
O70 C78 1.315 . S
Cd71 O70 2.223 . S
Cd71 O74 2.297 . S
Cd71 O75 2.439 . S
Cd71 O81 2.240 . S
Cd72 O73 2.240 . S
Cd72 O80 2.223 . S
Cd72 O82 2.297 . S
Cd72 O83 2.439 . S
O73 Cd72 2.240 . S
O73 C78 1.279 . S
O74 Cd71 2.297 . S
O74 C76 1.247 . S
O75 Cd71 2.439 . S
O75 C76 1.208 . S
C76 O74 1.247 . S
C76 O75 1.208 . S
C77 O82 1.247 . S
C77 O83 1.208 . S
C78 O70 1.315 . S
C78 O73 1.279 . S
C79 O80 1.315 . S
C79 O81 1.279 . S
O80 Cd72 2.223 . S
O80 C79 1.315 . S
O81 Cd71 2.240 . S
O81 C79 1.279 . S
O82 Cd72 2.297 . S
O82 C77 1.247 . S
O83 Cd72 2.439 . S
O83 C77 1.208 . S
O84 Cd85 2.225 . S
O84 C92 1.315 1_556 S
Cd85 O84 2.225 . S
Cd85 O88 2.281 1_656 S
Cd85 O89 2.421 1_556 S
Cd85 O95 2.252 . S
Cd86 O87 2.240 . S
Cd86 O94 2.223 1_554 S
Cd86 O96 2.297 1_554 S
Cd86 O97 2.439 . S
O87 Cd86 2.240 . S
O87 C92 1.279 . S
O88 Cd85 2.281 1_454 S
O88 C90 1.247 . S
O89 Cd85 2.421 1_554 S
O89 C90 1.208 1_655 S
C90 O88 1.247 . S
C90 O89 1.208 1_455 S
C91 O96 1.247 1_554 S
C91 O97 1.208 . S
C92 O84 1.315 1_554 S
C92 O87 1.279 . S
C93 O94 1.315 . S
C93 O95 1.279 . S
O94 Cd86 2.223 1_556 S
O94 C93 1.315 . S
O95 Cd85 2.252 . S
O95 C93 1.279 . S
O96 Cd86 2.297 1_556 S
O96 C91 1.247 1_556 S
O97 Cd86 2.439 . S
O97 C91 1.208 . S
O98 Cd99 2.225 . S
O98 C106 1.315 1_556 S
Cd99 O98 2.225 . S
Cd99 O102 2.281 1_556 S
Cd99 O103 2.421 1_556 S
Cd99 O109 2.252 . S
Cd100 O101 2.240 . S
Cd100 O108 2.223 1_554 S
Cd100 O110 2.297 1_554 S
Cd100 O111 2.439 . S
O101 Cd100 2.240 . S
O101 C106 1.279 . S
O102 Cd99 2.281 1_554 S
O102 C104 1.247 . S
O103 Cd99 2.421 1_554 S
O103 C104 1.208 . S
C104 O102 1.247 . S
C104 O103 1.208 . S
C105 O110 1.247 1_554 S
C105 O111 1.208 . S
C106 O98 1.315 1_554 S
C106 O101 1.279 . S
C107 O108 1.315 . S
C107 O109 1.279 . S
O108 Cd100 2.223 1_556 S
O108 C107 1.315 . S
O109 Cd99 2.252 . S
O109 C107 1.279 . S
O110 Cd100 2.297 1_556 S
O110 C105 1.247 1_556 S
O111 Cd100 2.439 . S
O111 C105 1.208 . S
O112 Cd113 2.223 . S
O112 C120 1.315 . S
Cd113 O112 2.223 . S
Cd113 O116 2.297 1_455 S
Cd113 O117 2.439 . S
Cd113 O123 2.240 . S
Cd114 O115 2.240 . S
Cd114 O122 2.223 . S
Cd114 O124 2.297 . S
Cd114 O125 2.439 . S
O115 Cd114 2.240 . S
O115 C120 1.279 . S
O116 Cd113 2.297 1_655 S
O116 C118 1.247 . S
O117 Cd113 2.439 . S
O117 C118 1.208 1_455 S
C118 O116 1.247 . S
C118 O117 1.208 1_655 S
C119 O124 1.247 . S
C119 O125 1.208 . S
C120 O112 1.315 . S
C120 O115 1.279 . S
C121 O122 1.315 . S
C121 O123 1.279 . S
O122 Cd114 2.223 . S
O122 C121 1.315 . S
O123 Cd113 2.240 . S
O123 C121 1.279 . S
O124 Cd114 2.297 . S
O124 C119 1.247 . S
O125 Cd114 2.439 . S
O125 C119 1.208 . S
O126 Cd127 2.223 . S
O126 C134 1.315 . S
Cd127 O126 2.223 . S
Cd127 O130 2.297 . S
Cd127 O131 2.439 . S
Cd127 O137 2.240 . S
Cd128 O129 2.240 . S
Cd128 O136 2.223 . S
Cd128 O138 2.297 . S
Cd128 O139 2.439 . S
O129 Cd128 2.240 . S
O129 C134 1.279 . S
O130 Cd127 2.297 . S
O130 C132 1.247 . S
O131 Cd127 2.439 . S
O131 C132 1.208 . S
C132 O130 1.247 . S
C132 O131 1.208 . S
C133 O138 1.247 . S
C133 O139 1.208 . S
C134 O126 1.315 . S
C134 O129 1.279 . S
C135 O136 1.315 . S
C135 O137 1.279 . S
O136 Cd128 2.223 . S
O136 C135 1.315 . S
O137 Cd127 2.240 . S
O137 C135 1.279 . S
O138 Cd128 2.297 . S
O138 C133 1.247 . S
O139 Cd128 2.439 . S
O139 C133 1.208 . S
O140 Cd141 2.223 . S
O140 C148 1.315 . S
Cd141 O140 2.223 . S
Cd141 O144 2.297 1_455 S
Cd141 O145 2.439 . S
Cd141 O151 2.240 . S
Cd142 O143 2.240 . S
Cd142 O150 2.223 . S
Cd142 O152 2.297 . S
Cd142 O153 2.439 . S
O143 Cd142 2.240 . S
O143 C148 1.279 . S
O144 Cd141 2.297 1_655 S
O144 C146 1.247 . S
O145 Cd141 2.439 . S
O145 C146 1.208 1_455 S
C146 O144 1.247 . S
C146 O145 1.208 1_655 S
C147 O152 1.247 . S
C147 O153 1.208 . S
C148 O140 1.315 . S
C148 O143 1.279 . S
C149 O150 1.315 . S
C149 O151 1.279 . S
O150 Cd142 2.223 . S
O150 C149 1.315 . S
O151 Cd141 2.240 . S
O151 C149 1.279 . S
O152 Cd142 2.297 . S
O152 C147 1.247 . S
O153 Cd142 2.439 . S
O153 C147 1.208 . S
O154 Cd155 2.223 . S
O154 C162 1.315 . S
Cd155 O154 2.223 . S
Cd155 O158 2.297 . S
Cd155 O159 2.439 . S
Cd155 O165 2.240 . S
Cd156 O157 2.240 . S
Cd156 O164 2.223 . S
Cd156 O166 2.297 . S
Cd156 O167 2.439 . S
O157 Cd156 2.240 . S
O157 C162 1.279 . S
O158 Cd155 2.297 . S
O158 C160 1.247 . S
O159 Cd155 2.439 . S
O159 C160 1.208 . S
C160 O158 1.247 . S
C160 O159 1.208 . S
C161 O166 1.247 . S
C161 O167 1.208 . S
C162 O154 1.315 . S
C162 O157 1.279 . S
C163 O164 1.315 . S
C163 O165 1.279 . S
O164 Cd156 2.223 . S
O164 C163 1.315 . S
O165 Cd155 2.240 . S
O165 C163 1.279 . S
O166 Cd156 2.297 . S
O166 C161 1.247 . S
O167 Cd156 2.439 . S
O167 C161 1.208 . S
O168 Cd169 2.223 . S
O168 C176 1.315 . S
Cd169 O168 2.223 . S
Cd169 O172 2.297 1_655 S
Cd169 O173 2.439 . S
Cd169 O179 2.240 . S
Cd170 O171 2.240 . S
Cd170 O178 2.223 . S
Cd170 O180 2.297 . S
Cd170 O181 2.439 . S
O171 Cd170 2.240 . S
O171 C176 1.279 . S
O172 Cd169 2.297 1_455 S
O172 C174 1.247 . S
O173 Cd169 2.439 . S
O173 C174 1.208 1_655 S
C174 O172 1.247 . S
C174 O173 1.208 1_455 S
C175 O180 1.247 . S
C175 O181 1.208 . S
C176 O168 1.315 . S
C176 O171 1.279 . S
C177 O178 1.315 . S
C177 O179 1.279 . S
O178 Cd170 2.223 . S
O178 C177 1.315 . S
O179 Cd169 2.240 . S
O179 C177 1.279 . S
O180 Cd170 2.297 . S
O180 C175 1.247 . S
O181 Cd170 2.439 . S
O181 C175 1.208 . S
O182 Cd183 2.223 . S
O182 C190 1.315 . S
Cd183 O182 2.223 . S
Cd183 O186 2.297 . S
Cd183 O187 2.439 . S
Cd183 O193 2.240 . S
Cd184 O185 2.240 . S
Cd184 O192 2.223 . S
Cd184 O194 2.297 . S
Cd184 O195 2.439 . S
O185 Cd184 2.240 . S
O185 C190 1.279 . S
O186 Cd183 2.297 . S
O186 C188 1.247 . S
O187 Cd183 2.439 . S
O187 C188 1.208 . S
C188 O186 1.247 . S
C188 O187 1.208 . S
C189 O194 1.247 . S
C189 O195 1.208 . S
C190 O182 1.315 . S
C190 O185 1.279 . S
C191 O192 1.315 . S
C191 O193 1.279 . S
O192 Cd184 2.223 . S
O192 C191 1.315 . S
O193 Cd183 2.240 . S
O193 C191 1.279 . S
O194 Cd184 2.297 . S
O194 C189 1.247 . S
O195 Cd184 2.439 . S
O195 C189 1.208 . S
O196 Cd197 2.223 . S
O196 C204 1.315 . S
Cd197 O196 2.223 . S
Cd197 O200 2.297 1_655 S
Cd197 O201 2.439 . S
Cd197 O207 2.240 . S
Cd198 O199 2.240 . S
Cd198 O206 2.223 . S
Cd198 O208 2.297 . S
Cd198 O209 2.439 . S
O199 Cd198 2.240 . S
O199 C204 1.279 . S
O200 Cd197 2.297 1_455 S
O200 C202 1.247 . S
O201 Cd197 2.439 . S
O201 C202 1.208 1_655 S
C202 O200 1.247 . S
C202 O201 1.208 1_455 S
C203 O208 1.247 . S
C203 O209 1.208 . S
C204 O196 1.315 . S
C204 O199 1.279 . S
C205 O206 1.315 . S
C205 O207 1.279 . S
O206 Cd198 2.223 . S
O206 C205 1.315 . S
O207 Cd197 2.240 . S
O207 C205 1.279 . S
O208 Cd198 2.297 . S
O208 C203 1.247 . S
O209 Cd198 2.439 . S
O209 C203 1.208 . S
O210 Cd211 2.223 . S
O210 C218 1.315 . S
Cd211 O210 2.223 . S
Cd211 O214 2.297 . S
Cd211 O215 2.439 . S
Cd211 O221 2.240 . S
Cd212 O213 2.240 . S
Cd212 O220 2.223 . S
Cd212 O222 2.297 . S
Cd212 O223 2.439 . S
O213 Cd212 2.240 . S
O213 C218 1.279 . S
O214 Cd211 2.297 . S
O214 C216 1.247 . S
O215 Cd211 2.439 . S
O215 C216 1.208 . S
C216 O214 1.247 . S
C216 O215 1.208 . S
C217 O222 1.247 . S
C217 O223 1.208 . S
C218 O210 1.315 . S
C218 O213 1.279 . S
C219 O220 1.315 . S
C219 O221 1.279 . S
O220 Cd212 2.223 . S
O220 C219 1.315 . S
O221 Cd211 2.240 . S
O221 C219 1.279 . S
O222 Cd212 2.297 . S
O222 C217 1.247 . S
O223 Cd212 2.439 . S
O223 C217 1.208 . S
O224 Cd225 2.223 . S
O224 C232 1.315 . S
Cd225 O224 2.223 . S
Cd225 O228 2.297 . S
Cd225 O229 2.439 . S
Cd225 O235 2.240 . S
Cd226 O227 2.240 . S
Cd226 O234 2.223 . S
Cd226 O236 2.297 . S
Cd226 O237 2.439 . S
O227 Cd226 2.240 . S
O227 C232 1.279 . S
O228 Cd225 2.297 . S
O228 C230 1.247 . S
O229 Cd225 2.439 . S
O229 C230 1.208 . S
C230 O228 1.247 . S
C230 O229 1.208 . S
C231 O236 1.247 . S
C231 O237 1.208 . S
C232 O224 1.315 . S
C232 O227 1.279 . S
C233 O234 1.315 . S
C233 O235 1.279 . S
O234 Cd226 2.223 . S
O234 C233 1.315 . S
O235 Cd225 2.240 . S
O235 C233 1.279 . S
O236 Cd226 2.297 . S
O236 C231 1.247 . S
O237 Cd226 2.439 . S
O237 C231 1.208 . S
O238 Cd239 2.223 . S
O238 C246 1.315 . S
Cd239 O238 2.223 . S
Cd239 O242 2.297 . S
Cd239 O243 2.439 . S
Cd239 O249 2.240 . S
Cd240 O241 2.240 . S
Cd240 O248 2.223 . S
Cd240 O250 2.297 . S
Cd240 O251 2.439 . S
O241 Cd240 2.240 . S
O241 C246 1.279 . S
O242 Cd239 2.297 . S
O242 C244 1.247 . S
O243 Cd239 2.439 . S
O243 C244 1.208 . S
C244 O242 1.247 . S
C244 O243 1.208 . S
C245 O250 1.247 . S
C245 O251 1.208 . S
C246 O238 1.315 . S
C246 O241 1.279 . S
C247 O248 1.315 . S
C247 O249 1.279 . S
O248 Cd240 2.223 . S
O248 C247 1.315 . S
O249 Cd239 2.240 . S
O249 C247 1.279 . S
O250 Cd240 2.297 . S
O250 C245 1.247 . S
O251 Cd240 2.439 . S
O251 C245 1.208 . S
O252 Cd253 2.223 . S
O252 C260 1.315 . S
Cd253 O252 2.223 . S
Cd253 O256 2.297 . S
Cd253 O257 2.439 . S
Cd253 O263 2.240 . S
Cd254 O255 2.240 . S
Cd254 O262 2.223 . S
Cd254 O264 2.297 . S
Cd254 O265 2.439 . S
O255 Cd254 2.240 . S
O255 C260 1.279 . S
O256 Cd253 2.297 . S
O256 C258 1.247 . S
O257 Cd253 2.439 . S
O257 C258 1.208 . S
C258 O256 1.247 . S
C258 O257 1.208 . S
C259 O264 1.247 . S
C259 O265 1.208 . S
C260 O252 1.315 . S
C260 O255 1.279 . S
C261 O262 1.315 . S
C261 O263 1.279 . S
O262 Cd254 2.223 . S
O262 C261 1.315 . S
O263 Cd253 2.240 . S
O263 C261 1.279 . S
O264 Cd254 2.297 . S
O264 C259 1.247 . S
O265 Cd254 2.439 . S
O265 C259 1.208 . S
O266 Cd267 2.223 . S
O266 C274 1.315 . S
Cd267 O266 2.223 . S
Cd267 O270 2.297 . S
Cd267 O271 2.439 . S
Cd267 O277 2.240 . S
Cd268 O269 2.240 . S
Cd268 O276 2.223 . S
Cd268 O278 2.297 . S
Cd268 O279 2.439 . S
O269 Cd268 2.240 . S
O269 C274 1.279 . S
O270 Cd267 2.297 . S
O270 C272 1.247 . S
O271 Cd267 2.439 . S
O271 C272 1.208 . S
C272 O270 1.247 . S
C272 O271 1.208 . S
C273 O278 1.247 . S
C273 O279 1.208 . S
C274 O266 1.315 . S
C274 O269 1.279 . S
C275 O276 1.315 . S
C275 O277 1.279 . S
O276 Cd268 2.223 . S
O276 C275 1.315 . S
O277 Cd267 2.240 . S
O277 C275 1.279 . S
O278 Cd268 2.297 . S
O278 C273 1.247 . S
O279 Cd268 2.439 . S
O279 C273 1.208 . S
O280 Cd281 2.223 . S
O280 C288 1.315 . S
Cd281 O280 2.223 . S
Cd281 O284 2.297 . S
Cd281 O285 2.439 . S
Cd281 O291 2.240 . S
Cd282 O283 2.240 . S
Cd282 O290 2.223 . S
Cd282 O292 2.297 . S
Cd282 O293 2.439 . S
O283 Cd282 2.240 . S
O283 C288 1.279 . S
O284 Cd281 2.297 . S
O284 C286 1.247 . S
O285 Cd281 2.439 . S
O285 C286 1.208 . S
C286 O284 1.247 . S
C286 O285 1.208 . S
C287 O292 1.247 . S
C287 O293 1.208 . S
C288 O280 1.315 . S
C288 O283 1.279 . S
C289 O290 1.315 . S
C289 O291 1.279 . S
O290 Cd282 2.223 . S
O290 C289 1.315 . S
O291 Cd281 2.240 . S
O291 C289 1.279 . S
O292 Cd282 2.297 . S
O292 C287 1.247 . S
O293 Cd282 2.439 . S
O293 C287 1.208 . S
O294 Cd295 2.223 . S
O294 C302 1.315 . S
Cd295 O294 2.223 . S
Cd295 O298 2.297 . S
Cd295 O299 2.439 . S
Cd295 O305 2.240 . S
Cd296 O297 2.240 . S
Cd296 O304 2.223 . S
Cd296 O306 2.297 . S
Cd296 O307 2.439 . S
O297 Cd296 2.240 . S
O297 C302 1.279 . S
O298 Cd295 2.297 . S
O298 C300 1.247 . S
O299 Cd295 2.439 . S
O299 C300 1.208 . S
C300 O298 1.247 . S
C300 O299 1.208 . S
C301 O306 1.247 . S
C301 O307 1.208 . S
C302 O294 1.315 . S
C302 O297 1.279 . S
C303 O304 1.315 . S
C303 O305 1.279 . S
O304 Cd296 2.223 . S
O304 C303 1.315 . S
O305 Cd295 2.240 . S
O305 C303 1.279 . S
O306 Cd296 2.297 . S
O306 C301 1.247 . S
O307 Cd296 2.439 . S
O307 C301 1.208 . S
O308 Cd309 2.223 . S
O308 C316 1.315 . S
Cd309 O308 2.223 . S
Cd309 O312 2.297 . S
Cd309 O313 2.439 . S
Cd309 O319 2.240 . S
Cd310 O311 2.240 . S
Cd310 O318 2.223 . S
Cd310 O320 2.297 . S
Cd310 O321 2.439 . S
O311 Cd310 2.240 . S
O311 C316 1.279 . S
O312 Cd309 2.297 . S
O312 C314 1.247 . S
O313 Cd309 2.439 . S
O313 C314 1.208 . S
C314 O312 1.247 . S
C314 O313 1.208 . S
C315 O320 1.247 . S
C315 O321 1.208 . S
C316 O308 1.315 . S
C316 O311 1.279 . S
C317 O318 1.315 . S
C317 O319 1.279 . S
O318 Cd310 2.223 . S
O318 C317 1.315 . S
O319 Cd309 2.240 . S
O319 C317 1.279 . S
O320 Cd310 2.297 . S
O320 C315 1.247 . S
O321 Cd310 2.439 . S
O321 C315 1.208 . S
O322 Cd323 2.223 . S
O322 C330 1.315 . S
Cd323 O322 2.223 . S
Cd323 O326 2.297 . S
Cd323 O327 2.439 . S
Cd323 O333 2.240 . S
Cd324 O325 2.240 . S
Cd324 O332 2.223 . S
Cd324 O334 2.297 . S
Cd324 O335 2.439 . S
O325 Cd324 2.240 . S
O325 C330 1.279 . S
O326 Cd323 2.297 . S
O326 C328 1.247 . S
O327 Cd323 2.439 . S
O327 C328 1.208 . S
C328 O326 1.247 . S
C328 O327 1.208 . S
C329 O334 1.247 . S
C329 O335 1.208 . S
C330 O322 1.315 . S
C330 O325 1.279 . S
C331 O332 1.315 . S
C331 O333 1.279 . S
O332 Cd324 2.223 . S
O332 C331 1.315 . S
O333 Cd323 2.240 . S
O333 C331 1.279 . S
O334 Cd324 2.297 . S
O334 C329 1.247 . S
O335 Cd324 2.439 . S
O335 C329 1.208 . S
O336 Cd337 2.223 . S
O336 C344 1.315 . S
Cd337 O336 2.223 . S
Cd337 O340 2.297 . S
Cd337 O341 2.439 . S
Cd337 O347 2.240 . S
Cd338 O339 2.240 . S
Cd338 O346 2.223 . S
Cd338 O348 2.297 . S
Cd338 O349 2.439 . S
O339 Cd338 2.240 . S
O339 C344 1.279 . S
O340 Cd337 2.297 . S
O340 C342 1.247 . S
O341 Cd337 2.439 . S
O341 C342 1.208 . S
C342 O340 1.247 . S
C342 O341 1.208 . S
C343 O348 1.247 . S
C343 O349 1.208 . S
C344 O336 1.315 . S
C344 O339 1.279 . S
C345 O346 1.315 . S
C345 O347 1.279 . S
O346 Cd338 2.223 . S
O346 C345 1.315 . S
O347 Cd337 2.240 . S
O347 C345 1.279 . S
O348 Cd338 2.297 . S
O348 C343 1.247 . S
O349 Cd338 2.439 . S
O349 C343 1.208 . S
O350 Cd351 2.223 . S
O350 C358 1.315 . S
Cd351 O350 2.223 . S
Cd351 O354 2.297 . S
Cd351 O355 2.439 . S
Cd351 O361 2.240 . S
Cd352 O353 2.240 . S
Cd352 O360 2.223 . S
Cd352 O362 2.297 . S
Cd352 O363 2.439 . S
O353 Cd352 2.240 . S
O353 C358 1.279 . S
O354 Cd351 2.297 . S
O354 C356 1.247 . S
O355 Cd351 2.439 . S
O355 C356 1.208 . S
C356 O354 1.247 . S
C356 O355 1.208 . S
C357 O362 1.247 . S
C357 O363 1.208 . S
C358 O350 1.315 . S
C358 O353 1.279 . S
C359 O360 1.315 . S
C359 O361 1.279 . S
O360 Cd352 2.223 . S
O360 C359 1.315 . S
O361 Cd351 2.240 . S
O361 C359 1.279 . S
O362 Cd352 2.297 . S
O362 C357 1.247 . S
O363 Cd352 2.439 . S
O363 C357 1.208 . S
O364 Cd365 2.225 . S
O364 C372 1.315 1_554 S
Cd365 O364 2.225 . S
Cd365 O368 2.281 1_554 S
Cd365 O369 2.421 1_554 S
Cd365 O375 2.252 . S
Cd366 O367 2.240 . S
Cd366 O374 2.223 1_556 S
Cd366 O376 2.297 1_556 S
Cd366 O377 2.439 . S
O367 Cd366 2.240 . S
O367 C372 1.279 . S
O368 Cd365 2.281 1_556 S
O368 C370 1.247 . S
O369 Cd365 2.421 1_556 S
O369 C370 1.208 . S
C370 O368 1.247 . S
C370 O369 1.208 . S
C371 O376 1.247 1_556 S
C371 O377 1.208 . S
C372 O364 1.315 1_556 S
C372 O367 1.279 . S
C373 O374 1.315 . S
C373 O375 1.279 . S
O374 Cd366 2.223 1_554 S
O374 C373 1.315 . S
O375 Cd365 2.252 . S
O375 C373 1.279 . S
O376 Cd366 2.297 1_554 S
O376 C371 1.247 1_554 S
O377 Cd366 2.439 . S
O377 C371 1.208 . S
O378 Cd379 2.225 . S
O378 C386 1.315 1_554 S
Cd379 O378 2.225 . S
Cd379 O382 2.281 1_554 S
Cd379 O383 2.421 1_554 S
Cd379 O389 2.252 . S
Cd380 O381 2.240 . S
Cd380 O388 2.223 1_556 S
Cd380 O390 2.297 1_556 S
Cd380 O391 2.439 . S
O381 Cd380 2.240 . S
O381 C386 1.279 . S
O382 Cd379 2.281 1_556 S
O382 C384 1.247 . S
O383 Cd379 2.421 1_556 S
O383 C384 1.208 . S
C384 O382 1.247 . S
C384 O383 1.208 . S
C385 O390 1.247 1_556 S
C385 O391 1.208 . S
C386 O378 1.315 1_556 S
C386 O381 1.279 . S
C387 O388 1.315 . S
C387 O389 1.279 . S
O388 Cd380 2.223 1_554 S
O388 C387 1.315 . S
O389 Cd379 2.252 . S
O389 C387 1.279 . S
O390 Cd380 2.297 1_554 S
O390 C385 1.247 1_554 S
O391 Cd380 2.439 . S
O391 C385 1.208 . S
O392 Cd393 2.223 . S
O392 C400 1.315 . S
Cd393 O392 2.223 . S
Cd393 O396 2.297 . S
Cd393 O397 2.439 . S
Cd393 O403 2.240 . S
Cd394 O395 2.240 . S
Cd394 O402 2.223 . S
Cd394 O404 2.297 . S
Cd394 O405 2.439 . S
O395 Cd394 2.240 . S
O395 C400 1.279 . S
O396 Cd393 2.297 . S
O396 C398 1.247 . S
O397 Cd393 2.439 . S
O397 C398 1.208 . S
C398 O396 1.247 . S
C398 O397 1.208 . S
C399 O404 1.247 . S
C399 O405 1.208 . S
C400 O392 1.315 . S
C400 O395 1.279 . S
C401 O402 1.315 . S
C401 O403 1.279 . S
O402 Cd394 2.223 . S
O402 C401 1.315 . S
O403 Cd393 2.240 . S
O403 C401 1.279 . S
O404 Cd394 2.297 . S
O404 C399 1.247 . S
O405 Cd394 2.439 . S
O405 C399 1.208 . S
O406 Cd407 2.223 . S
O406 C414 1.315 . S
Cd407 O406 2.223 . S
Cd407 O410 2.297 . S
Cd407 O411 2.439 . S
Cd407 O417 2.240 . S
Cd408 O409 2.240 . S
Cd408 O416 2.223 . S
Cd408 O418 2.297 . S
Cd408 O419 2.439 . S
O409 Cd408 2.240 . S
O409 C414 1.279 . S
O410 Cd407 2.297 . S
O410 C412 1.247 . S
O411 Cd407 2.439 . S
O411 C412 1.208 . S
C412 O410 1.247 . S
C412 O411 1.208 . S
C413 O418 1.247 . S
C413 O419 1.208 . S
C414 O406 1.315 . S
C414 O409 1.279 . S
C415 O416 1.315 . S
C415 O417 1.279 . S
O416 Cd408 2.223 . S
O416 C415 1.315 . S
O417 Cd407 2.240 . S
O417 C415 1.279 . S
O418 Cd408 2.297 . S
O418 C413 1.247 . S
O419 Cd408 2.439 . S
O419 C413 1.208 . S
O420 Cd421 2.225 . S
O420 C428 1.315 1_556 S
Cd421 O420 2.225 . S
Cd421 O424 2.281 1_556 S
Cd421 O425 2.421 1_556 S
Cd421 O431 2.252 . S
Cd422 O423 2.240 . S
Cd422 O430 2.223 1_554 S
Cd422 O432 2.297 1_554 S
Cd422 O433 2.439 . S
O423 Cd422 2.240 . S
O423 C428 1.279 . S
O424 Cd421 2.281 1_554 S
O424 C426 1.247 . S
O425 Cd421 2.421 1_554 S
O425 C426 1.208 . S
C426 O424 1.247 . S
C426 O425 1.208 . S
C427 O432 1.247 1_554 S
C427 O433 1.208 . S
C428 O420 1.315 1_554 S
C428 O423 1.279 . S
C429 O430 1.315 . S
C429 O431 1.279 . S
O430 Cd422 2.223 1_556 S
O430 C429 1.315 . S
O431 Cd421 2.252 . S
O431 C429 1.279 . S
O432 Cd422 2.297 1_556 S
O432 C427 1.247 1_556 S
O433 Cd422 2.439 . S
O433 C427 1.208 . S
O434 Cd435 2.225 . S
O434 C442 1.315 1_556 S
Cd435 O434 2.225 . S
Cd435 O438 2.281 1_556 S
Cd435 O439 2.421 1_556 S
Cd435 O445 2.252 . S
Cd436 O437 2.240 . S
Cd436 O444 2.223 1_554 S
Cd436 O446 2.297 1_554 S
Cd436 O447 2.439 . S
O437 Cd436 2.240 . S
O437 C442 1.279 . S
O438 Cd435 2.281 1_554 S
O438 C440 1.247 . S
O439 Cd435 2.421 1_554 S
O439 C440 1.208 . S
C440 O438 1.247 . S
C440 O439 1.208 . S
C441 O446 1.247 1_554 S
C441 O447 1.208 . S
C442 O434 1.315 1_554 S
C442 O437 1.279 . S
C443 O444 1.315 . S
C443 O445 1.279 . S
O444 Cd436 2.223 1_556 S
O444 C443 1.315 . S
O445 Cd435 2.252 . S
O445 C443 1.279 . S
O446 Cd436 2.297 1_556 S
O446 C441 1.247 1_556 S
O447 Cd436 2.439 . S
O447 C441 1.208 . S
C448 C449 1.369 . S
C448 C450 1.419 . S
C448 H452 0.930 . S
C449 C448 1.369 . S
C449 C458 1.429 . S
C450 C448 1.419 . S
C450 C451 1.363 . S
C450 H453 0.929 . S
C451 C450 1.363 . S
C451 C457 1.428 . S
H452 C448 0.930 . S
H453 C450 0.929 . S
S454 N455 1.613 . S
S454 N456 1.610 . S
N455 S454 1.613 . S
N455 C458 1.350 . S
N456 S454 1.610 . S
N456 C457 1.351 . S
C457 C451 1.428 . S
C457 N456 1.351 . S
C457 C458 1.434 . S
C458 C449 1.429 . S
C458 N455 1.350 . S
C458 C457 1.434 . S
C459 C460 1.369 . S
C459 C461 1.419 . S
C459 H463 0.930 . S
C460 C459 1.369 . S
C460 C469 1.429 . S
C461 C459 1.419 . S
C461 C462 1.363 . S
C461 H464 0.929 . S
C462 C461 1.363 . S
C462 C468 1.428 . S
H463 C459 0.930 . S
H464 C461 0.929 . S
S465 N466 1.613 . S
S465 N467 1.610 . S
N466 S465 1.613 . S
N466 C469 1.350 . S
N467 S465 1.610 . S
N467 C468 1.351 . S
C468 C462 1.428 . S
C468 N467 1.351 . S
C468 C469 1.434 . S
C469 C460 1.429 . S
C469 N466 1.350 . S
C469 C468 1.434 . S
C470 C471 1.369 . S
C470 C472 1.419 . S
C470 H474 0.930 . S
C471 C470 1.369 . S
C471 C480 1.429 . S
C472 C470 1.419 . S
C472 C473 1.363 . S
C472 H475 0.929 . S
C473 C472 1.363 . S
C473 C479 1.428 . S
H474 C470 0.930 . S
H475 C472 0.929 . S
S476 N477 1.613 . S
S476 N478 1.610 . S
N477 S476 1.613 . S
N477 C480 1.350 . S
N478 S476 1.610 . S
N478 C479 1.351 . S
C479 C473 1.428 . S
C479 N478 1.351 . S
C479 C480 1.434 . S
C480 C471 1.429 . S
C480 N477 1.350 . S
C480 C479 1.434 . S
C481 C482 1.369 . S
C481 C483 1.419 . S
C481 H485 0.930 . S
C482 C481 1.369 . S
C482 C491 1.429 . S
C483 C481 1.419 . S
C483 C484 1.363 . S
C483 H486 0.929 . S
C484 C483 1.363 . S
C484 C490 1.428 . S
H485 C481 0.930 . S
H486 C483 0.929 . S
S487 N488 1.613 . S
S487 N489 1.610 . S
N488 S487 1.613 . S
N488 C491 1.350 . S
N489 S487 1.610 . S
N489 C490 1.351 . S
C490 C484 1.428 . S
C490 N489 1.351 . S
C490 C491 1.434 . S
C491 C482 1.429 . S
C491 N488 1.350 . S
C491 C490 1.434 . S
C492 C493 1.369 . S
C492 C494 1.419 . S
C492 H496 0.930 . S
C493 C492 1.369 . S
C493 C502 1.429 . S
C494 C492 1.419 . S
C494 C495 1.363 . S
C494 H497 0.929 . S
C495 C494 1.363 . S
C495 C501 1.428 . S
H496 C492 0.930 . S
H497 C494 0.929 . S
S498 N499 1.613 . S
S498 N500 1.610 . S
N499 S498 1.613 . S
N499 C502 1.350 . S
N500 S498 1.610 . S
N500 C501 1.351 . S
C501 C495 1.428 . S
C501 N500 1.351 . S
C501 C502 1.434 . S
C502 C493 1.429 . S
C502 N499 1.350 . S
C502 C501 1.434 . S
C503 C504 1.369 . S
C503 C505 1.419 . S
C503 H507 0.930 . S
C504 C503 1.369 . S
C504 C513 1.429 . S
C505 C503 1.419 . S
C505 C506 1.363 . S
C505 H508 0.929 . S
C506 C505 1.363 . S
C506 C512 1.428 . S
H507 C503 0.930 . S
H508 C505 0.929 . S
S509 N510 1.613 . S
S509 N511 1.610 . S
N510 S509 1.613 . S
N510 C513 1.350 . S
N511 S509 1.610 . S
N511 C512 1.351 . S
C512 C506 1.428 . S
C512 N511 1.351 . S
C512 C513 1.434 . S
C513 C504 1.429 . S
C513 N510 1.350 . S
C513 C512 1.434 . S
C514 C515 1.369 . S
C514 C516 1.419 . S
C514 H518 0.930 . S
C515 C514 1.369 . S
C515 C524 1.429 . S
C516 C514 1.419 . S
C516 C517 1.363 . S
C516 H519 0.929 . S
C517 C516 1.363 . S
C517 C523 1.428 . S
H518 C514 0.930 . S
H519 C516 0.929 . S
S520 N521 1.613 1_455 S
S520 N522 1.605 1_455 S
N521 S520 1.613 1_655 S
N521 C524 1.350 . S
N522 S520 1.605 1_655 S
N522 C523 1.364 . S
C523 C517 1.428 . S
C523 N522 1.364 . S
C523 C524 1.434 . S
C524 C515 1.429 . S
C524 N521 1.350 . S
C524 C523 1.434 . S
C525 C526 1.369 . S
C525 C527 1.419 . S
C525 H529 0.930 . S
C526 C525 1.369 . S
C526 C535 1.429 . S
C527 C525 1.419 . S
C527 C528 1.363 . S
C527 H530 0.929 . S
C528 C527 1.363 . S
C528 C534 1.428 . S
H529 C525 0.930 . S
H530 C527 0.929 . S
S531 N532 1.613 1_455 S
S531 N533 1.610 . S
N532 S531 1.613 1_655 S
N532 C535 1.350 . S
N533 S531 1.610 . S
N533 C534 1.351 1_455 S
C534 C528 1.428 . S
C534 N533 1.351 1_655 S
C534 C535 1.434 . S
C535 C526 1.429 . S
C535 N532 1.350 . S
C535 C534 1.434 . S
C536 C537 1.369 . S
C536 C538 1.419 . S
C536 H540 0.930 . S
C537 C536 1.369 . S
C537 C546 1.429 . S
C538 C536 1.419 . S
C538 C539 1.363 . S
C538 H541 0.929 . S
C539 C538 1.363 . S
C539 C545 1.428 . S
H540 C536 0.930 . S
H541 C538 0.929 . S
S542 N543 1.613 . S
S542 N544 1.610 . S
N543 S542 1.613 . S
N543 C546 1.350 . S
N544 S542 1.610 . S
N544 C545 1.351 . S
C545 C539 1.428 . S
C545 N544 1.351 . S
C545 C546 1.434 . S
C546 C537 1.429 . S
C546 N543 1.350 . S
C546 C545 1.434 . S
C547 C548 1.369 . S
C547 C549 1.419 . S
C547 H551 0.930 . S
C548 C547 1.369 . S
C548 C557 1.429 . S
C549 C547 1.419 . S
C549 C550 1.363 . S
C549 H552 0.929 . S
C550 C549 1.363 . S
C550 C556 1.428 . S
H551 C547 0.930 . S
H552 C549 0.929 . S
S553 N554 1.613 . S
S553 N555 1.610 . S
N554 S553 1.613 . S
N554 C557 1.350 . S
N555 S553 1.610 . S
N555 C556 1.351 . S
C556 C550 1.428 . S
C556 N555 1.351 . S
C556 C557 1.434 . S
C557 C548 1.429 . S
C557 N554 1.350 . S
C557 C556 1.434 . S
C558 C559 1.369 . S
C558 C560 1.419 . S
C558 H562 0.930 . S
C559 C558 1.369 . S
C559 C568 1.429 . S
C560 C558 1.419 . S
C560 C561 1.363 . S
C560 H563 0.929 . S
C561 C560 1.363 . S
C561 C567 1.428 . S
H562 C558 0.930 . S
H563 C560 0.929 . S
S564 N565 1.613 . S
S564 N566 1.610 . S
N565 S564 1.613 . S
N565 C568 1.350 . S
N566 S564 1.610 . S
N566 C567 1.351 . S
C567 C561 1.428 . S
C567 N566 1.351 . S
C567 C568 1.434 . S
C568 C559 1.429 . S
C568 N565 1.350 . S
C568 C567 1.434 . S
C569 C570 1.369 . S
C569 C571 1.419 . S
C569 H573 0.930 . S
C570 C569 1.369 . S
C570 C579 1.429 . S
C571 C569 1.419 . S
C571 C572 1.363 . S
C571 H574 0.929 . S
C572 C571 1.363 . S
C572 C578 1.428 . S
H573 C569 0.930 . S
H574 C571 0.929 . S
S575 N576 1.613 . S
S575 N577 1.610 . S
N576 S575 1.613 . S
N576 C579 1.350 . S
N577 S575 1.610 . S
N577 C578 1.351 . S
C578 C572 1.428 . S
C578 N577 1.351 . S
C578 C579 1.434 . S
C579 C570 1.429 . S
C579 N576 1.350 . S
C579 C578 1.434 . S
C580 C581 1.369 . S
C580 C582 1.419 . S
C580 H584 0.930 . S
C581 C580 1.369 . S
C581 C590 1.429 . S
C582 C580 1.419 . S
C582 C583 1.363 . S
C582 H585 0.929 . S
C583 C582 1.363 . S
C583 C589 1.428 . S
H584 C580 0.930 . S
H585 C582 0.929 . S
S586 N587 1.613 . S
S586 N588 1.610 . S
N587 S586 1.613 . S
N587 C590 1.350 . S
N588 S586 1.610 . S
N588 C589 1.351 . S
C589 C583 1.428 . S
C589 N588 1.351 . S
C589 C590 1.434 . S
C590 C581 1.429 . S
C590 N587 1.350 . S
C590 C589 1.434 . S
C591 C592 1.369 . S
C591 C593 1.419 . S
C591 H595 0.930 . S
C592 C591 1.369 . S
C592 C601 1.429 . S
C593 C591 1.419 . S
C593 C594 1.363 . S
C593 H596 0.929 . S
C594 C593 1.363 . S
C594 C600 1.428 . S
H595 C591 0.930 . S
H596 C593 0.929 . S
S597 N598 1.613 . S
S597 N599 1.610 . S
N598 S597 1.613 . S
N598 C601 1.350 . S
N599 S597 1.610 . S
N599 C600 1.351 . S
C600 C594 1.428 . S
C600 N599 1.351 . S
C600 C601 1.434 . S
C601 C592 1.429 . S
C601 N598 1.350 . S
C601 C600 1.434 . S
C602 C603 1.369 . S
C602 C604 1.419 . S
C602 H606 0.930 . S
C603 C602 1.369 . S
C603 C612 1.429 . S
C604 C602 1.419 . S
C604 C605 1.363 . S
C604 H607 0.929 . S
C605 C604 1.363 . S
C605 C611 1.428 . S
H606 C602 0.930 . S
H607 C604 0.929 . S
S608 N609 1.613 . S
S608 N610 1.610 . S
N609 S608 1.613 . S
N609 C612 1.350 . S
N610 S608 1.610 . S
N610 C611 1.351 . S
C611 C605 1.428 . S
C611 N610 1.351 . S
C611 C612 1.434 . S
C612 C603 1.429 . S
C612 N609 1.350 . S
C612 C611 1.434 . S
C613 C614 1.369 . S
C613 C615 1.419 . S
C613 H617 0.930 . S
C614 C613 1.369 . S
C614 C623 1.429 . S
C615 C613 1.419 . S
C615 C616 1.363 . S
C615 H618 0.929 . S
C616 C615 1.363 . S
C616 C622 1.428 . S
H617 C613 0.930 . S
H618 C615 0.929 . S
S619 N620 1.613 . S
S619 N621 1.610 . S
N620 S619 1.613 . S
N620 C623 1.350 . S
N621 S619 1.610 . S
N621 C622 1.351 . S
C622 C616 1.428 . S
C622 N621 1.351 . S
C622 C623 1.434 . S
C623 C614 1.429 . S
C623 N620 1.350 . S
C623 C622 1.434 . S
C624 C625 1.369 . S
C624 C626 1.419 1_565 S
C624 H628 0.930 . S
C625 C624 1.369 . S
C625 C634 1.429 . S
C626 C624 1.419 1_545 S
C626 C627 1.363 . S
C626 H629 0.929 . S
C627 C626 1.363 . S
C627 C633 1.428 . S
H628 C624 0.930 . S
H629 C626 0.929 . S
S630 N631 1.613 . S
S630 N632 1.610 1_565 S
N631 S630 1.613 . S
N631 C634 1.350 . S
N632 S630 1.610 1_545 S
N632 C633 1.351 . S
C633 C627 1.428 . S
C633 N632 1.351 . S
C633 C634 1.434 1_545 S
C634 C625 1.429 . S
C634 N631 1.350 . S
C634 C633 1.434 1_565 S
C635 C636 1.369 . S
C635 C637 1.419 . S
C635 H639 0.930 . S
C636 C635 1.369 . S
C636 C645 1.429 1_655 S
C637 C635 1.419 . S
C637 C638 1.363 1_655 S
C637 H640 0.929 . S
C638 C637 1.363 1_455 S
C638 C644 1.428 . S
H639 C635 0.930 . S
H640 C637 0.929 . S
S641 N642 1.613 . S
S641 N643 1.610 . S
N642 S641 1.613 . S
N642 C645 1.350 . S
N643 S641 1.610 . S
N643 C644 1.351 . S
C644 C638 1.428 . S
C644 N643 1.351 . S
C644 C645 1.434 . S
C645 C636 1.429 1_455 S
C645 N642 1.350 . S
C645 C644 1.434 . S
C646 C647 1.369 1_554 S
C646 C648 1.419 . S
C646 H650 0.930 . S
C647 C646 1.369 1_556 S
C647 C656 1.429 . S
C648 C646 1.419 . S
C648 C649 1.363 . S
C648 H651 0.929 . S
C649 C648 1.363 . S
C649 C655 1.428 1_554 S
H650 C646 0.930 . S
H651 C648 0.929 . S
S652 N653 1.613 . S
S652 N654 1.610 . S
N653 S652 1.613 . S
N653 C656 1.350 . S
N654 S652 1.610 . S
N654 C655 1.351 . S
C655 C649 1.428 1_556 S
C655 N654 1.351 . S
C655 C656 1.434 . S
C656 C647 1.429 . S
C656 N653 1.350 . S
C656 C655 1.434 . S
C657 C658 1.369 . S
C657 C659 1.419 1_545 S
C657 H661 0.930 . S
C658 C657 1.369 . S
C658 C667 1.429 1_456 S
C659 C657 1.419 1_565 S
C659 C660 1.363 1_456 S
C659 H662 0.929 . S
C660 C659 1.363 1_654 S
C660 C666 1.428 . S
H661 C657 0.930 . S
H662 C659 0.929 . S
S663 N664 1.613 . S
S663 N665 1.610 1_545 S
N664 S663 1.613 . S
N664 C667 1.350 . S
N665 S663 1.610 1_565 S
N665 C666 1.351 . S
C666 C660 1.428 . S
C666 N665 1.351 . S
C666 C667 1.434 1_565 S
C667 C658 1.429 1_654 S
C667 N664 1.350 . S
C667 C666 1.434 1_545 S
C668 C669 1.369 . S
C668 C670 1.419 1_545 S
C668 H672 0.930 . S
C669 C668 1.369 . S
C669 C678 1.429 . S
C670 C668 1.419 1_565 S
C670 C671 1.363 . S
C670 H673 0.929 . S
C671 C670 1.363 . S
C671 C677 1.428 . S
H672 C668 0.930 . S
H673 C670 0.929 . S
S674 N675 1.613 . S
S674 N676 1.610 1_545 S
N675 S674 1.613 . S
N675 C678 1.350 . S
N676 S674 1.610 1_565 S
N676 C677 1.351 . S
C677 C671 1.428 . S
C677 N676 1.351 . S
C677 C678 1.434 1_565 S
C678 C669 1.429 . S
C678 N675 1.350 . S
C678 C677 1.434 1_545 S
C679 C680 1.369 . S
C679 C681 1.419 . S
C679 H683 0.930 . S
C680 C679 1.369 . S
C680 C689 1.429 1_455 S
C681 C679 1.419 . S
C681 C682 1.363 1_455 S
C681 H684 0.929 . S
C682 C681 1.363 1_655 S
C682 C688 1.428 . S
H683 C679 0.930 . S
H684 C681 0.929 . S
S685 N686 1.613 . S
S685 N687 1.610 . S
N686 S685 1.613 . S
N686 C689 1.350 . S
N687 S685 1.610 . S
N687 C688 1.351 . S
C688 C682 1.428 . S
C688 N687 1.351 . S
C688 C689 1.434 . S
C689 C680 1.429 1_655 S
C689 N686 1.350 . S
C689 C688 1.434 . S
C690 C691 1.369 . S
C690 C692 1.419 . S
C690 H694 0.930 . S
C691 C690 1.369 . S
C691 C700 1.429 1_556 S
C692 C690 1.419 . S
C692 C693 1.363 1_556 S
C692 H695 0.929 . S
C693 C692 1.363 1_554 S
C693 C699 1.428 . S
H694 C690 0.930 . S
H695 C692 0.929 . S
S696 N697 1.613 . S
S696 N698 1.610 . S
N697 S696 1.613 . S
N697 C700 1.350 . S
N698 S696 1.610 . S
N698 C699 1.351 . S
C699 C693 1.428 . S
C699 N698 1.351 . S
C699 C700 1.434 . S
C700 C691 1.429 1_554 S
C700 N697 1.350 . S
C700 C699 1.434 . S
C701 C702 1.369 . S
C701 C703 1.419 . S
C701 H705 0.930 . S
C702 C701 1.369 . S
C702 C711 1.429 . S
C703 C701 1.419 . S
C703 C704 1.363 . S
C703 H706 0.929 . S
C704 C703 1.363 . S
C704 C710 1.428 . S
H705 C701 0.930 . S
H706 C703 0.929 . S
S707 N708 1.613 . S
S707 N709 1.610 . S
N708 S707 1.613 . S
N708 C711 1.350 . S
N709 S707 1.610 . S
N709 C710 1.351 . S
C710 C704 1.428 . S
C710 N709 1.351 . S
C710 C711 1.434 . S
C711 C702 1.429 . S
C711 N708 1.350 . S
C711 C710 1.434 . S
C712 C713 1.369 . S
C712 C714 1.419 . S
C712 H716 0.930 . S
C713 C712 1.369 . S
C713 C722 1.429 . S
C714 C712 1.419 . S
C714 C715 1.363 . S
C714 H717 0.929 . S
C715 C714 1.363 . S
C715 C721 1.428 . S
H716 C712 0.930 . S
H717 C714 0.929 . S
S718 N719 1.613 . S
S718 N720 1.610 . S
N719 S718 1.613 . S
N719 C722 1.350 . S
N720 S718 1.610 . S
N720 C721 1.351 . S
C721 C715 1.428 . S
C721 N720 1.351 . S
C721 C722 1.434 . S
C722 C713 1.429 . S
C722 N719 1.350 . S
C722 C721 1.434 . S
C723 C724 1.369 . S
C723 C725 1.419 . S
C723 H727 0.930 . S
C724 C723 1.369 . S
C724 C733 1.429 1_655 S
C725 C723 1.419 . S
C725 C726 1.363 1_655 S
C725 H728 0.929 . S
C726 C725 1.363 1_455 S
C726 C732 1.428 . S
H727 C723 0.930 . S
H728 C725 0.929 . S
S729 N730 1.613 . S
S729 N731 1.610 . S
N730 S729 1.613 . S
N730 C733 1.350 . S
N731 S729 1.610 . S
N731 C732 1.351 . S
C732 C726 1.428 . S
C732 N731 1.351 . S
C732 C733 1.434 . S
C733 C724 1.429 1_455 S
C733 N730 1.350 . S
C733 C732 1.434 . S
C734 C735 1.369 . S
C734 C736 1.419 . S
C734 H738 0.930 . S
C735 C734 1.369 . S
C735 C744 1.429 . S
C736 C734 1.419 . S
C736 C737 1.363 . S
C736 H739 0.929 . S
C737 C736 1.363 . S
C737 C743 1.428 . S
H738 C734 0.930 . S
H739 C736 0.929 . S
S740 N741 1.613 . S
S740 N742 1.610 . S
N741 S740 1.613 . S
N741 C744 1.350 . S
N742 S740 1.610 . S
N742 C743 1.351 . S
C743 C737 1.428 . S
C743 N742 1.351 . S
C743 C744 1.434 . S
C744 C735 1.429 . S
C744 N741 1.350 . S
C744 C743 1.434 . S
C745 C746 1.369 . S
C745 C747 1.419 . S
C745 H749 0.930 . S
C746 C745 1.369 . S
C746 C755 1.429 . S
C747 C745 1.419 . S
C747 C748 1.363 . S
C747 H750 0.929 . S
C748 C747 1.363 . S
C748 C754 1.428 . S
H749 C745 0.930 . S
H750 C747 0.929 . S
S751 N752 1.613 . S
S751 N753 1.610 . S
N752 S751 1.613 . S
N752 C755 1.350 . S
N753 S751 1.610 . S
N753 C754 1.351 . S
C754 C748 1.428 . S
C754 N753 1.351 . S
C754 C755 1.434 . S
C755 C746 1.429 . S
C755 N752 1.350 . S
C755 C754 1.434 . S
C756 C757 1.369 . S
C756 C758 1.419 . S
C756 H760 0.930 . S
C757 C756 1.369 . S
C757 C766 1.429 . S
C758 C756 1.419 . S
C758 C759 1.363 . S
C758 H761 0.929 . S
C759 C758 1.363 . S
C759 C765 1.428 . S
H760 C756 0.930 . S
H761 C758 0.929 . S
S762 N763 1.613 . S
S762 N764 1.610 . S
N763 S762 1.613 . S
N763 C766 1.350 . S
N764 S762 1.610 . S
N764 C765 1.351 . S
C765 C759 1.428 . S
C765 N764 1.351 . S
C765 C766 1.434 . S
C766 C757 1.429 . S
C766 N763 1.350 . S
C766 C765 1.434 . S
C767 C768 1.369 . S
C767 C769 1.419 1_545 S
C767 H771 0.930 . S
C768 C767 1.369 . S
C768 C777 1.429 . S
C769 C767 1.419 1_565 S
C769 C770 1.363 . S
C769 H772 0.929 . S
C770 C769 1.363 . S
C770 C776 1.428 . S
H771 C767 0.930 . S
H772 C769 0.929 . S
S773 N774 1.613 1_565 S
S773 N775 1.610 . S
N774 S773 1.613 1_545 S
N774 C777 1.350 . S
N775 S773 1.610 . S
N775 C776 1.351 . S
C776 C770 1.428 . S
C776 N775 1.351 . S
C776 C777 1.434 1_565 S
C777 C768 1.429 . S
C777 N774 1.350 . S
C777 C776 1.434 1_545 S
C778 C779 1.369 . S
C778 C780 1.419 . S
C778 H782 0.930 . S
C779 C778 1.369 . S
C779 C788 1.429 . S
C780 C778 1.419 . S
C780 C781 1.363 . S
C780 H783 0.929 . S
C781 C780 1.363 . S
C781 C787 1.428 . S
H782 C778 0.930 . S
H783 C780 0.929 . S
S784 N785 1.613 . S
S784 N786 1.610 . S
N785 S784 1.613 . S
N785 C788 1.350 . S
N786 S784 1.610 . S
N786 C787 1.351 . S
C787 C781 1.428 . S
C787 N786 1.351 . S
C787 C788 1.434 . S
C788 C779 1.429 . S
C788 N785 1.350 . S
C788 C787 1.434 . S
C789 C790 1.369 1_556 S
C789 C791 1.419 . S
C789 H793 0.930 . S
C790 C789 1.369 1_554 S
C790 C799 1.429 . S
C791 C789 1.419 . S
C791 C792 1.363 . S
C791 H794 0.929 . S
C792 C791 1.363 . S
C792 C798 1.428 1_556 S
H793 C789 0.930 . S
H794 C791 0.929 . S
S795 N796 1.613 . S
S795 N797 1.610 . S
N796 S795 1.613 . S
N796 C799 1.350 . S
N797 S795 1.610 . S
N797 C798 1.351 . S
C798 C792 1.428 1_554 S
C798 N797 1.351 . S
C798 C799 1.434 . S
C799 C790 1.429 . S
C799 N796 1.350 . S
C799 C798 1.434 . S
C800 C801 1.369 . S
C800 C802 1.419 . S
C800 H804 0.930 . S
C801 C800 1.369 . S
C801 C810 1.429 . S
C802 C800 1.419 . S
C802 C803 1.363 . S
C802 H805 0.929 . S
C803 C802 1.363 . S
C803 C809 1.428 . S
H804 C800 0.930 . S
H805 C802 0.929 . S
S806 N807 1.613 . S
S806 N808 1.610 . S
N807 S806 1.613 . S
N807 C810 1.350 . S
N808 S806 1.610 . S
N808 C809 1.351 . S
C809 C803 1.428 . S
C809 N808 1.351 . S
C809 C810 1.434 . S
C810 C801 1.429 . S
C810 N807 1.350 . S
C810 C809 1.434 . S
C811 C812 1.369 1_554 S
C811 C813 1.419 . S
C811 H815 0.930 . S
C812 C811 1.369 1_556 S
C812 C821 1.429 . S
C813 C811 1.419 . S
C813 C814 1.363 1_554 S
C813 H816 0.929 . S
C814 C813 1.363 1_556 S
C814 C820 1.428 . S
H815 C811 0.930 . S
H816 C813 0.929 . S
S817 N818 1.613 . S
S817 N819 1.610 . S
N818 S817 1.613 . S
N818 C821 1.350 . S
N819 S817 1.610 . S
N819 C820 1.351 . S
C820 C814 1.428 . S
C820 N819 1.351 . S
C820 C821 1.434 . S
C821 C812 1.429 . S
C821 N818 1.350 . S
C821 C820 1.434 . S
C822 C823 1.369 . S
C822 C824 1.419 . S
C822 H826 0.930 . S
C823 C822 1.369 . S
C823 C832 1.429 . S
C824 C822 1.419 . S
C824 C825 1.363 . S
C824 H827 0.929 . S
C825 C824 1.363 . S
C825 C831 1.428 . S
H826 C822 0.930 . S
H827 C824 0.929 . S
S828 N829 1.613 . S
S828 N830 1.610 . S
N829 S828 1.613 . S
N829 C832 1.350 . S
N830 S828 1.610 . S
N830 C831 1.351 . S
C831 C825 1.428 . S
C831 N830 1.351 . S
C831 C832 1.434 . S
C832 C823 1.429 . S
C832 N829 1.350 . S
C832 C831 1.434 . S
C833 C834 1.369 . S
C833 C835 1.419 . S
C833 H837 0.930 . S
C834 C833 1.369 . S
C834 C843 1.429 1_554 S
C835 C833 1.419 . S
C835 C836 1.363 . S
C835 H838 0.929 . S
C836 C835 1.363 . S
C836 C842 1.428 1_554 S
H837 C833 0.930 . S
H838 C835 0.929 . S
S839 N840 1.613 1_455 S
S839 N841 1.610 1_455 S
N840 S839 1.613 1_655 S
N840 C843 1.350 . S
N841 S839 1.610 1_655 S
N841 C842 1.351 . S
C842 C836 1.428 1_556 S
C842 N841 1.351 . S
C842 C843 1.434 . S
C843 C834 1.429 1_556 S
C843 N840 1.350 . S
C843 C842 1.434 . S
C844 C845 1.369 . S
C844 C846 1.419 . S
C844 H848 0.930 . S
C845 C844 1.369 . S
C845 C854 1.429 . S
C846 C844 1.419 . S
C846 C847 1.363 . S
C846 H849 0.929 . S
C847 C846 1.363 . S
C847 C853 1.428 . S
H848 C844 0.930 . S
H849 C846 0.929 . S
S850 N851 1.613 . S
S850 N852 1.610 . S
N851 S850 1.613 . S
N851 C854 1.350 . S
N852 S850 1.610 . S
N852 C853 1.351 . S
C853 C847 1.428 . S
C853 N852 1.351 . S
C853 C854 1.434 . S
C854 C845 1.429 . S
C854 N851 1.350 . S
C854 C853 1.434 . S
C855 C856 1.369 . S
C855 C857 1.419 . S
C855 H859 0.930 . S
C856 C855 1.369 . S
C856 C865 1.429 . S
C857 C855 1.419 . S
C857 C858 1.363 . S
C857 H860 0.929 . S
C858 C857 1.363 . S
C858 C864 1.428 . S
H859 C855 0.930 . S
H860 C857 0.929 . S
S861 N862 1.613 . S
S861 N863 1.610 . S
N862 S861 1.613 . S
N862 C865 1.350 . S
N863 S861 1.610 . S
N863 C864 1.351 . S
C864 C858 1.428 . S
C864 N863 1.351 . S
C864 C865 1.434 . S
C865 C856 1.429 . S
C865 N862 1.350 . S
C865 C864 1.434 . S
C866 C867 1.369 . S
C866 C868 1.419 . S
C866 H870 0.930 . S
C867 C866 1.369 . S
C867 C876 1.429 . S
C868 C866 1.419 . S
C868 C869 1.363 . S
C868 H871 0.929 . S
C869 C868 1.363 . S
C869 C875 1.428 . S
H870 C866 0.930 . S
H871 C868 0.929 . S
S872 N873 1.613 . S
S872 N874 1.610 . S
N873 S872 1.613 . S
N873 C876 1.350 . S
N874 S872 1.610 . S
N874 C875 1.351 . S
C875 C869 1.428 . S
C875 N874 1.351 . S
C875 C876 1.434 . S
C876 C867 1.429 . S
C876 N873 1.350 . S
C876 C875 1.434 . S
C877 C878 1.369 . S
C877 C879 1.419 . S
C877 H881 0.930 . S
C878 C877 1.369 . S
C878 C887 1.429 . S
C879 C877 1.419 . S
C879 C880 1.363 . S
C879 H882 0.929 . S
C880 C879 1.363 . S
C880 C886 1.428 . S
H881 C877 0.930 . S
H882 C879 0.929 . S
S883 N884 1.613 . S
S883 N885 1.610 . S
N884 S883 1.613 . S
N884 C887 1.350 . S
N885 S883 1.610 . S
N885 C886 1.351 . S
C886 C880 1.428 . S
C886 N885 1.351 . S
C886 C887 1.434 . S
C887 C878 1.429 . S
C887 N884 1.350 . S
C887 C886 1.434 . S
C888 C889 1.369 . S
C888 C890 1.419 . S
C888 H892 0.930 . S
C889 C888 1.369 . S
C889 C898 1.429 . S
C890 C888 1.419 . S
C890 C891 1.363 . S
C890 H893 0.929 . S
C891 C890 1.363 . S
C891 C897 1.428 . S
H892 C888 0.930 . S
H893 C890 0.929 . S
S894 N895 1.613 . S
S894 N896 1.610 . S
N895 S894 1.613 . S
N895 C898 1.350 . S
N896 S894 1.610 . S
N896 C897 1.351 . S
C897 C891 1.428 . S
C897 N896 1.351 . S
C897 C898 1.434 . S
C898 C889 1.429 . S
C898 N895 1.350 . S
C898 C897 1.434 . S
C899 C900 1.369 . S
C899 C901 1.419 . S
C899 H903 0.930 . S
C900 C899 1.369 . S
C900 C909 1.429 . S
C901 C899 1.419 . S
C901 C902 1.363 . S
C901 H904 0.929 . S
C902 C901 1.363 . S
C902 C908 1.428 . S
H903 C899 0.930 . S
H904 C901 0.929 . S
S905 N906 1.613 . S
S905 N907 1.610 . S
N906 S905 1.613 . S
N906 C909 1.350 . S
N907 S905 1.610 . S
N907 C908 1.351 . S
C908 C902 1.428 . S
C908 N907 1.351 . S
C908 C909 1.434 . S
C909 C900 1.429 . S
C909 N906 1.350 . S
C909 C908 1.434 . S
C910 C911 1.369 . S
C910 C912 1.419 . S
C910 H914 0.930 . S
C911 C910 1.369 . S
C911 C920 1.429 . S
C912 C910 1.419 . S
C912 C913 1.363 . S
C912 H915 0.929 . S
C913 C912 1.363 . S
C913 C919 1.428 . S
H914 C910 0.930 . S
H915 C912 0.929 . S
S916 N917 1.613 . S
S916 N918 1.610 . S
N917 S916 1.613 . S
N917 C920 1.350 . S
N918 S916 1.610 . S
N918 C919 1.351 . S
C919 C913 1.428 . S
C919 N918 1.351 . S
C919 C920 1.434 . S
C920 C911 1.429 . S
C920 N917 1.350 . S
C920 C919 1.434 . S
C921 C922 1.369 . S
C921 C923 1.419 . S
C921 H925 0.930 . S
C922 C921 1.369 . S
C922 C931 1.429 . S
C923 C921 1.419 . S
C923 C924 1.363 . S
C923 H926 0.929 . S
C924 C923 1.363 . S
C924 C930 1.428 . S
H925 C921 0.930 . S
H926 C923 0.929 . S
S927 N928 1.613 . S
S927 N929 1.610 . S
N928 S927 1.613 . S
N928 C931 1.350 . S
N929 S927 1.610 . S
N929 C930 1.351 . S
C930 C924 1.428 . S
C930 N929 1.351 . S
C930 C931 1.434 . S
C931 C922 1.429 . S
C931 N928 1.350 . S
C931 C930 1.434 . S
C932 C933 1.369 . S
C932 C934 1.419 . S
C932 H936 0.930 . S
C933 C932 1.369 . S
C933 C942 1.429 . S
C934 C932 1.419 . S
C934 C935 1.363 . S
C934 H937 0.929 . S
C935 C934 1.363 . S
C935 C941 1.428 . S
H936 C932 0.930 . S
H937 C934 0.929 . S
S938 N939 1.613 . S
S938 N940 1.610 . S
N939 S938 1.613 . S
N939 C942 1.350 . S
N940 S938 1.610 . S
N940 C941 1.351 . S
C941 C935 1.428 . S
C941 N940 1.351 . S
C941 C942 1.434 . S
C942 C933 1.429 . S
C942 N939 1.350 . S
C942 C941 1.434 . S
C943 C944 1.369 . S
C943 C945 1.419 . S
C943 H947 0.930 . S
C944 C943 1.369 . S
C944 C953 1.429 1_556 S
C945 C943 1.419 . S
C945 C946 1.363 . S
C945 H948 0.929 . S
C946 C945 1.363 . S
C946 C952 1.428 1_556 S
H947 C943 0.930 . S
H948 C945 0.929 . S
S949 N950 1.613 . S
S949 N951 1.610 . S
N950 S949 1.613 . S
N950 C953 1.350 . S
N951 S949 1.610 . S
N951 C952 1.351 . S
C952 C946 1.428 1_554 S
C952 N951 1.351 . S
C952 C953 1.434 . S
C953 C944 1.429 1_554 S
C953 N950 1.350 . S
C953 C952 1.434 . S
C954 C955 1.369 . S
C954 C956 1.419 . S
C954 H958 0.930 . S
C955 C954 1.369 . S
C955 C964 1.429 . S
C956 C954 1.419 . S
C956 C957 1.363 . S
C956 H959 0.929 . S
C957 C956 1.363 . S
C957 C963 1.428 . S
H958 C954 0.930 . S
H959 C956 0.929 . S
S960 N961 1.613 . S
S960 N962 1.610 . S
N961 S960 1.613 . S
N961 C964 1.350 . S
N962 S960 1.610 . S
N962 C963 1.351 . S
C963 C957 1.428 . S
C963 N962 1.351 . S
C963 C964 1.434 . S
C964 C955 1.429 . S
C964 N961 1.350 . S
C964 C963 1.434 . S
C965 C966 1.369 . S
C965 C967 1.419 . S
C965 H969 0.930 . S
C966 C965 1.369 . S
C966 C975 1.429 . S
C967 C965 1.419 . S
C967 C968 1.363 . S
C967 H970 0.929 . S
C968 C967 1.363 . S
C968 C974 1.428 . S
H969 C965 0.930 . S
H970 C967 0.929 . S
S971 N972 1.613 . S
S971 N973 1.610 . S
N972 S971 1.613 . S
N972 C975 1.350 . S
N973 S971 1.610 . S
N973 C974 1.351 . S
C974 C968 1.428 . S
C974 N973 1.351 . S
C974 C975 1.434 . S
C975 C966 1.429 . S
C975 N972 1.350 . S
C975 C974 1.434 . S
C976 C977 1.369 . S
C976 C978 1.419 . S
C976 H980 0.930 . S
C977 C976 1.369 . S
C977 C986 1.429 . S
C978 C976 1.419 . S
C978 C979 1.363 . S
C978 H981 0.929 . S
C979 C978 1.363 . S
C979 C985 1.428 . S
H980 C976 0.930 . S
H981 C978 0.929 . S
S982 N983 1.613 . S
S982 N984 1.610 . S
N983 S982 1.613 . S
N983 C986 1.350 . S
N984 S982 1.610 . S
N984 C985 1.351 . S
C985 C979 1.428 . S
C985 N984 1.351 . S
C985 C986 1.434 . S
C986 C977 1.429 . S
C986 N983 1.350 . S
C986 C985 1.434 . S
C987 C988 1.369 . S
C987 C989 1.419 . S
C987 H991 0.930 . S
C988 C987 1.369 . S
C988 C997 1.429 . S
C989 C987 1.419 . S
C989 C990 1.363 . S
C989 H992 0.929 . S
C990 C989 1.363 . S
C990 C996 1.428 . S
H991 C987 0.930 . S
H992 C989 0.929 . S
S993 N994 1.613 . S
S993 N995 1.610 . S
N994 S993 1.613 . S
N994 C997 1.350 . S
N995 S993 1.610 . S
N995 C996 1.351 . S
C996 C990 1.428 . S
C996 N995 1.351 . S
C996 C997 1.434 . S
C997 C988 1.429 . S
C997 N994 1.350 . S
C997 C996 1.434 . S
C998 C999 1.369 . S
C998 C1000 1.419 . S
C998 H1002 0.930 . S
C999 C998 1.369 . S
C999 C1008 1.429 . S
C1000 C998 1.419 . S
C1000 C1001 1.363 . S
C1000 H1003 0.929 . S
C1001 C1000 1.363 . S
C1001 C1007 1.428 . S
H1002 C998 0.930 . S
H1003 C1000 0.929 . S
S1004 N1005 1.613 . S
S1004 N1006 1.610 . S
N1005 S1004 1.613 . S
N1005 C1008 1.350 . S
N1006 S1004 1.610 . S
N1006 C1007 1.351 . S
C1007 C1001 1.428 . S
C1007 N1006 1.351 . S
C1007 C1008 1.434 . S
C1008 C999 1.429 . S
C1008 N1005 1.350 . S
C1008 C1007 1.434 . S
C1009 C1010 1.369 . S
C1009 C1011 1.419 . S
C1009 H1013 0.930 . S
C1010 C1009 1.369 . S
C1010 C1019 1.429 . S
C1011 C1009 1.419 . S
C1011 C1012 1.363 . S
C1011 H1014 0.929 . S
C1012 C1011 1.363 . S
C1012 C1018 1.428 . S
H1013 C1009 0.930 . S
H1014 C1011 0.929 . S
S1015 N1016 1.613 . S
S1015 N1017 1.610 . S
N1016 S1015 1.613 . S
N1016 C1019 1.350 . S
N1017 S1015 1.610 . S
N1017 C1018 1.351 . S
C1018 C1012 1.428 . S
C1018 N1017 1.351 . S
C1018 C1019 1.434 . S
C1019 C1010 1.429 . S
C1019 N1016 1.350 . S
C1019 C1018 1.434 . S
C1020 C1021 1.369 . S
C1020 C1022 1.419 . S
C1020 H1024 0.930 . S
C1021 C1020 1.369 . S
C1021 C1030 1.429 . S
C1022 C1020 1.419 . S
C1022 C1023 1.363 . S
C1022 H1025 0.929 . S
C1023 C1022 1.363 . S
C1023 C1029 1.428 . S
H1024 C1020 0.930 . S
H1025 C1022 0.929 . S
S1026 N1027 1.613 . S
S1026 N1028 1.610 . S
N1027 S1026 1.613 . S
N1027 C1030 1.350 . S
N1028 S1026 1.610 . S
N1028 C1029 1.351 . S
C1029 C1023 1.428 . S
C1029 N1028 1.351 . S
C1029 C1030 1.434 . S
C1030 C1021 1.429 . S
C1030 N1027 1.350 . S
C1030 C1029 1.434 . S
C1031 C1032 1.369 . S
C1031 C1033 1.419 . S
C1031 H1035 0.930 . S
C1032 C1031 1.369 . S
C1032 C1041 1.429 . S
C1033 C1031 1.419 . S
C1033 C1034 1.363 . S
C1033 H1036 0.929 . S
C1034 C1033 1.363 . S
C1034 C1040 1.428 . S
H1035 C1031 0.930 . S
H1036 C1033 0.929 . S
S1037 N1038 1.613 . S
S1037 N1039 1.610 . S
N1038 S1037 1.613 . S
N1038 C1041 1.350 . S
N1039 S1037 1.610 . S
N1039 C1040 1.351 . S
C1040 C1034 1.428 . S
C1040 N1039 1.351 . S
C1040 C1041 1.434 . S
C1041 C1032 1.429 . S
C1041 N1038 1.350 . S
C1041 C1040 1.434 . S
C1042 C1043 1.369 . S
C1042 C1044 1.419 . S
C1042 H1046 0.930 . S
C1043 C1042 1.369 . S
C1043 C1052 1.429 . S
C1044 C1042 1.419 . S
C1044 C1045 1.363 . S
C1044 H1047 0.929 . S
C1045 C1044 1.363 . S
C1045 C1051 1.428 . S
H1046 C1042 0.930 . S
H1047 C1044 0.929 . S
S1048 N1049 1.613 . S
S1048 N1050 1.610 . S
N1049 S1048 1.613 . S
N1049 C1052 1.350 . S
N1050 S1048 1.610 . S
N1050 C1051 1.351 . S
C1051 C1045 1.428 . S
C1051 N1050 1.351 . S
C1051 C1052 1.434 . S
C1052 C1043 1.429 . S
C1052 N1049 1.350 . S
C1052 C1051 1.434 . S
C1053 C1054 1.369 . S
C1053 C1055 1.419 . S
C1053 H1057 0.930 . S
C1054 C1053 1.369 . S
C1054 C1063 1.429 . S
C1055 C1053 1.419 . S
C1055 C1056 1.363 . S
C1055 H1058 0.929 . S
C1056 C1055 1.363 . S
C1056 C1062 1.428 . S
H1057 C1053 0.930 . S
H1058 C1055 0.929 . S
S1059 N1060 1.613 . S
S1059 N1061 1.610 . S
N1060 S1059 1.613 . S
N1060 C1063 1.350 . S
N1061 S1059 1.610 . S
N1061 C1062 1.351 . S
C1062 C1056 1.428 . S
C1062 N1061 1.351 . S
C1062 C1063 1.434 . S
C1063 C1054 1.429 . S
C1063 N1060 1.350 . S
C1063 C1062 1.434 . S
C1064 C1065 1.369 . S
C1064 C1066 1.419 . S
C1064 H1068 0.930 . S
C1065 C1064 1.369 . S
C1065 C1074 1.429 . S
C1066 C1064 1.419 . S
C1066 C1067 1.363 . S
C1066 H1069 0.929 . S
C1067 C1066 1.363 . S
C1067 C1073 1.428 . S
H1068 C1064 0.930 . S
H1069 C1066 0.929 . S
S1070 N1071 1.613 . S
S1070 N1072 1.610 . S
N1071 S1070 1.613 . S
N1071 C1074 1.350 . S
N1072 S1070 1.610 . S
N1072 C1073 1.351 . S
C1073 C1067 1.428 . S
C1073 N1072 1.351 . S
C1073 C1074 1.434 . S
C1074 C1065 1.429 . S
C1074 N1071 1.350 . S
C1074 C1073 1.434 . S
C1075 C1076 1.369 . S
C1075 C1077 1.419 . S
C1075 H1079 0.930 . S
C1076 C1075 1.369 . S
C1076 C1085 1.429 . S
C1077 C1075 1.419 . S
C1077 C1078 1.363 . S
C1077 H1080 0.929 . S
C1078 C1077 1.363 . S
C1078 C1084 1.428 . S
H1079 C1075 0.930 . S
H1080 C1077 0.929 . S
S1081 N1082 1.613 . S
S1081 N1083 1.610 . S
N1082 S1081 1.613 . S
N1082 C1085 1.350 . S
N1083 S1081 1.610 . S
N1083 C1084 1.351 . S
C1084 C1078 1.428 . S
C1084 N1083 1.351 . S
C1084 C1085 1.434 . S
C1085 C1076 1.429 . S
C1085 N1082 1.350 . S
C1085 C1084 1.434 . S
C1086 C1087 1.369 . S
C1086 C1088 1.419 . S
C1086 H1090 0.930 . S
C1087 C1086 1.369 . S
C1087 C1096 1.429 . S
C1088 C1086 1.419 . S
C1088 C1089 1.363 . S
C1088 H1091 0.929 . S
C1089 C1088 1.363 . S
C1089 C1095 1.428 . S
H1090 C1086 0.930 . S
H1091 C1088 0.929 . S
S1092 N1093 1.613 . S
S1092 N1094 1.610 1_455 S
N1093 S1092 1.613 . S
N1093 C1096 1.350 1_455 S
N1094 S1092 1.610 1_655 S
N1094 C1095 1.351 . S
C1095 C1089 1.428 . S
C1095 N1094 1.351 . S
C1095 C1096 1.434 . S
C1096 C1087 1.429 . S
C1096 N1093 1.350 1_655 S
C1096 C1095 1.434 . S
C1097 C1098 1.369 . S
C1097 C1099 1.419 . S
C1097 H1101 0.930 . S
C1098 C1097 1.369 . S
C1098 C1107 1.429 . S
C1099 C1097 1.419 . S
C1099 C1100 1.363 . S
C1099 H1102 0.929 . S
C1100 C1099 1.363 . S
C1100 C1106 1.428 . S
H1101 C1097 0.930 . S
H1102 C1099 0.929 . S
S1103 N1104 1.613 . S
S1103 N1105 1.610 . S
N1104 S1103 1.613 . S
N1104 C1107 1.350 . S
N1105 S1103 1.610 . S
N1105 C1106 1.351 . S
C1106 C1100 1.428 . S
C1106 N1105 1.351 . S
C1106 C1107 1.434 . S
C1107 C1098 1.429 . S
C1107 N1104 1.350 . S
C1107 C1106 1.434 . S
C1108 C1109 1.369 . S
C1108 C1110 1.419 . S
C1108 H1112 0.930 . S
C1109 C1108 1.369 . S
C1109 C1118 1.429 . S
C1110 C1108 1.419 . S
C1110 C1111 1.363 . S
C1110 H1113 0.929 . S
C1111 C1110 1.363 . S
C1111 C1117 1.428 . S
H1112 C1108 0.930 . S
H1113 C1110 0.929 . S
S1114 N1115 1.613 . S
S1114 N1116 1.610 1_655 S
N1115 S1114 1.613 . S
N1115 C1118 1.350 1_655 S
N1116 S1114 1.610 1_455 S
N1116 C1117 1.351 . S
C1117 C1111 1.428 . S
C1117 N1116 1.351 . S
C1117 C1118 1.434 . S
C1118 C1109 1.429 . S
C1118 N1115 1.350 1_455 S
C1118 C1117 1.434 . S
C1119 C1120 1.369 . S
C1119 C1121 1.419 . S
C1119 H1123 0.930 . S
C1120 C1119 1.369 . S
C1120 C1129 1.429 . S
C1121 C1119 1.419 . S
C1121 C1122 1.363 . S
C1121 H1124 0.929 . S
C1122 C1121 1.363 . S
C1122 C1128 1.428 . S
H1123 C1119 0.930 . S
H1124 C1121 0.929 . S
S1125 N1126 1.613 . S
S1125 N1127 1.610 . S
N1126 S1125 1.613 . S
N1126 C1129 1.350 . S
N1127 S1125 1.610 . S
N1127 C1128 1.351 . S
C1128 C1122 1.428 . S
C1128 N1127 1.351 . S
C1128 C1129 1.434 . S
C1129 C1120 1.429 . S
C1129 N1126 1.350 . S
C1129 C1128 1.434 . S
C1130 C1131 1.369 . S
C1130 C1132 1.419 . S
C1130 H1134 0.930 . S
C1131 C1130 1.369 . S
C1131 C1140 1.429 . S
C1132 C1130 1.419 . S
C1132 C1133 1.363 . S
C1132 H1135 0.929 . S
C1133 C1132 1.363 . S
C1133 C1139 1.428 . S
H1134 C1130 0.930 . S
H1135 C1132 0.929 . S
S1136 N1137 1.613 . S
S1136 N1138 1.610 . S
N1137 S1136 1.613 . S
N1137 C1140 1.350 . S
N1138 S1136 1.610 . S
N1138 C1139 1.351 . S
C1139 C1133 1.428 . S
C1139 N1138 1.351 . S
C1139 C1140 1.434 . S
C1140 C1131 1.429 . S
C1140 N1137 1.350 . S
C1140 C1139 1.434 . S
C1141 C1142 1.369 . S
C1141 C1143 1.419 . S
C1141 H1145 0.930 . S
C1142 C1141 1.369 . S
C1142 C1151 1.429 . S
C1143 C1141 1.419 . S
C1143 C1144 1.363 . S
C1143 H1146 0.929 . S
C1144 C1143 1.363 . S
C1144 C1150 1.428 . S
H1145 C1141 0.930 . S
H1146 C1143 0.929 . S
S1147 N1148 1.613 . S
S1147 N1149 1.610 . S
N1148 S1147 1.613 . S
N1148 C1151 1.350 . S
N1149 S1147 1.610 . S
N1149 C1150 1.351 . S
C1150 C1144 1.428 . S
C1150 N1149 1.351 . S
C1150 C1151 1.434 . S
C1151 C1142 1.429 . S
C1151 N1148 1.350 . S
C1151 C1150 1.434 . S
C449 C51 1.287 . S
C451 C9 1.289 . S
C460 C37 1.288 . S
C462 C23 1.289 . S
C471 C107 1.285 . S
C473 C65 1.290 . S
C482 C93 1.285 . S
C484 C79 1.286 . S
C493 C121 1.284 . S
C495 C163 1.291 . S
C504 C135 1.285 . S
C506 C149 1.286 . S
C515 C219 1.282 . S
C517 C177 1.289 . S
C526 C191 1.282 . S
C528 C205 1.290 . S
C537 C233 1.289 . S
C539 C275 1.284 . S
C548 C247 1.285 . S
C550 C261 1.286 . S
C559 C331 1.291 . S
C561 C289 1.283 . S
C570 C317 1.285 . S
C572 C303 1.287 . S
C581 C387 1.290 . S
C583 C345 1.283 . S
C592 C359 1.286 . S
C594 C373 1.290 . S
C603 C401 1.292 . S
C605 C443 1.285 . S
C614 C415 1.284 . S
C616 C429 1.287 . S
C625 C287 1.464 . S
C627 C7 1.468 . S
C636 C189 1.464 . S
C638 C21 1.468 . S
C647 C35 1.465 . S
C649 C427 1.466 . S
C658 C49 1.463 . S
C660 C105 1.468 . S
C669 C231 1.464 . S
C671 C63 1.468 . S
C680 C133 1.464 . S
C682 C77 1.467 . S
C691 C371 1.467 . S
C693 C91 1.465 . S
C702 C119 1.463 . S
C704 C399 1.468 . S
C713 C315 1.467 . S
C715 C147 1.466 . S
C724 C217 1.467 . S
C726 C161 1.466 . S
C735 C343 1.464 . S
C737 C175 1.467 . S
C746 C203 1.464 . S
C748 C259 1.468 . S
C757 C413 1.469 . S
C759 C245 1.464 . S
C768 C273 1.468 . S
C770 C329 1.464 . S
C779 C357 1.467 . S
C781 C301 1.465 . S
C790 C441 1.467 . S
C792 C385 1.465 . S
C801 C22 1.365 . S
C803 C8 1.366 . S
C812 C36 1.364 . S
C814 C50 1.368 . S
C823 C64 1.366 . S
C825 C78 1.365 . S
C834 C106 1.369 . S
C836 C92 1.363 . S
C845 C120 1.369 . S
C847 C134 1.364 . S
C856 C148 1.363 . S
C858 C162 1.368 . S
C867 C190 1.365 . S
C869 C176 1.367 . S
C878 C204 1.369 . S
C880 C218 1.365 . S
C889 C232 1.368 . S
C891 C246 1.365 . S
C900 C260 1.366 . S
C902 C274 1.367 . S
C911 C288 1.371 . S
C913 C302 1.363 . S
C922 C330 1.368 . S
C924 C316 1.365 . S
C933 C358 1.361 . S
C935 C344 1.370 . S
C944 C372 1.366 . S
C946 C386 1.367 . S
C955 C400 1.361 . S
C957 C414 1.370 . S
C966 C442 1.371 . S
C968 C428 1.363 . S
C977 C6 1.538 . S
C979 C272 1.536 . S
C988 C20 1.540 . S
C990 C258 1.537 . S
C999 C244 1.539 . S
C1001 C34 1.536 . S
C1010 C48 1.537 . S
C1012 C230 1.537 . S
C1021 C328 1.539 . S
C1023 C62 1.536 . S
C1032 C76 1.540 . S
C1034 C314 1.536 . S
C1043 C300 1.538 . S
C1045 C90 1.536 . S
C1054 C104 1.536 . S
C1056 C286 1.537 . S
C1065 C118 1.539 . S
C1067 C384 1.536 . S
C1076 C132 1.537 . S
C1078 C370 1.537 . S
C1087 C146 1.540 . S
C1089 C356 1.536 . S
C1098 C342 1.540 . S
C1100 C160 1.537 . S
C1109 C174 1.539 . S
C1111 C440 1.536 . S
C1120 C188 1.538 . S
C1122 C426 1.536 . S
C1131 C202 1.537 . S
C1133 C412 1.540 . S
C1142 C398 1.537 . S
C1144 C216 1.536 . S
