# Generated by pormake.
# Topology unj, (4)-cn, num edge types: 1
# Building blocks:
#     Node 0, Type 0, BuildingBlock: UXUYUI_clean_sbu_0, # of connection points: 4
#     Node 1, Type 0, BuildingBlock: UXUYUI_clean_sbu_0, # of connection points: 4
#     Node 2, Type 0, BuildingBlock: UXUYUI_clean_sbu_0, # of connection points: 4
#     Node 3, Type 0, BuildingBlock: UXUYUI_clean_sbu_0, # of connection points: 4
#     Node 4, Type 0, BuildingBlock: UXUYUI_clean_sbu_0, # of connection points: 4
#     Node 5, Type 0, BuildingBlock: UXUYUI_clean_sbu_0, # of connection points: 4
#     Edge 6, Type (0, 0), BuildingBlock: KIFKEQ_clean_linker_1, # of connection points: 2
#     Edge 7, Type (0, 0), BuildingBlock: KIFKEQ_clean_linker_1, # of connection points: 2
#     Edge 8, Type (0, 0), BuildingBlock: KIFKEQ_clean_linker_1, # of connection points: 2
#     Edge 9, Type (0, 0), BuildingBlock: KIFKEQ_clean_linker_1, # of connection points: 2
#     Edge 10, Type (0, 0), BuildingBlock: KIFKEQ_clean_linker_1, # of connection points: 2
#     Edge 11, Type (0, 0), BuildingBlock: KIFKEQ_clean_linker_1, # of connection points: 2
#     Edge 12, Type (0, 0), BuildingBlock: KIFKEQ_clean_linker_1, # of connection points: 2
#     Edge 13, Type (0, 0), BuildingBlock: KIFKEQ_clean_linker_1, # of connection points: 2
#     Edge 14, Type (0, 0), BuildingBlock: KIFKEQ_clean_linker_1, # of connection points: 2
#     Edge 15, Type (0, 0), BuildingBlock: KIFKEQ_clean_linker_1, # of connection points: 2
#     Edge 16, Type (0, 0), BuildingBlock: KIFKEQ_clean_linker_1, # of connection points: 2
#     Edge 17, Type (0, 0), BuildingBlock: KIFKEQ_clean_linker_1, # of connection points: 2
# Relax obj value: 0.030
# Max RMSD: 0.052
# Mean RMSD: 0.052
data_MOF--net-unj--node1-UXUYUI_clean_sbu_0--edge1-KIFKEQ_clean_linker_1
_symmetry_space_group_name_H-M    P1
_symmetry_Int_Tables_number       1
_symmetry_cell_setting            triclinic
loop_
_symmetry_equiv_pos_as_xyz
'x, y, z'
_cell_length_a     51.371436
_cell_length_b     51.339189
_cell_length_c     49.751285
_cell_angle_alpha  89.962932
_cell_angle_beta   90.070565
_cell_angle_gamma 120.00242
loop_
_atom_site_label
_atom_site_type_symbol
_atom_site_fract_x
_atom_site_fract_y
_atom_site_fract_z
_atom_type_partial_charge
Li0 Li 0.4608 0.20882 0.5805 0.0
Li1 Li 0.49933 0.24118 0.61094 0.0
Li2 Li 0.46147 0.25324 0.60101 0.0
Li3 Li 0.50231 0.26218 0.56738 0.0
C4 C 0.42608 0.1981 0.62575 0.0
N5 N 0.36604 0.16177 0.63854 0.0
C6 C 0.41778 0.18017 0.64883 0.0
C7 C 0.40379 0.1975 0.6092 0.0
C8 C 0.38733 0.16196 0.65494 0.0
C9 C 0.37359 0.17903 0.616 0.0
C10 C 0.52321 0.2147 0.5812 0.0
C11 C 0.57137 0.21764 0.5774 0.0
N12 N 0.56107 0.19257 0.59292 0.0
C13 C 0.51298 0.18883 0.5969 0.0
C14 C 0.55254 0.22916 0.5712 0.0
C15 C 0.53252 0.17805 0.60269 0.0
C16 C 0.43204 0.16501 0.53985 0.0
N17 N 0.43694 0.16906 0.56676 0.0
C18 C 0.4101 0.11592 0.57406 0.0
C19 C 0.42642 0.14528 0.58387 0.0
C20 C 0.40476 0.11091 0.54631 0.0
C21 C 0.41584 0.13599 0.52914 0.0
H22 H 0.44113 0.18433 0.52665 0.0
H23 H 0.43108 0.14906 0.60514 0.0
C24 C 0.51181 0.22699 0.66264 0.0
N25 N 0.52481 0.24105 0.63919 0.0
C26 C 0.52943 0.22642 0.68379 0.0
C27 C 0.57359 0.25506 0.65637 0.0
C28 C 0.55511 0.25497 0.63574 0.0
C29 C 0.56078 0.24062 0.68081 0.0
H30 H 0.48774 0.21638 0.66498 0.0
H31 H 0.56497 0.26615 0.61698 0.0
C32 C 0.44198 0.24746 0.54328 0.0
N33 N 0.4109 0.25944 0.5044 0.0
C34 C 0.45489 0.2759 0.53136 0.0
C35 C 0.41338 0.22501 0.53517 0.0
C36 C 0.43878 0.28155 0.51183 0.0
C37 C 0.398 0.23154 0.51556 0.0
C38 C 0.52439 0.29848 0.62245 0.0
C39 C 0.51334 0.29712 0.64837 0.0
C40 C 0.55518 0.31642 0.61748 0.0
C41 C 0.53333 0.3136 0.66898 0.0
C42 C 0.57444 0.3326 0.63863 0.0
N43 N 0.56321 0.33085 0.66373 0.0
C44 C 0.4278 0.26443 0.64 0.0
C45 C 0.43205 0.28777 0.59792 0.0
C46 C 0.41176 0.27746 0.65052 0.0
N47 N 0.43761 0.26977 0.61411 0.0
C48 C 0.41589 0.30105 0.60752 0.0
C49 C 0.40571 0.29623 0.63426 0.0
H50 H 0.43294 0.25049 0.6527 0.0
H51 H 0.44054 0.29228 0.57767 0.0
C52 C 0.52818 0.27406 0.51542 0.0
N53 N 0.5265 0.28686 0.53876 0.0
C54 C 0.54584 0.29207 0.4942 0.0
C55 C 0.55978 0.33601 0.52157 0.0
C56 C 0.54162 0.31718 0.54211 0.0
C57 C 0.56209 0.32357 0.49711 0.0
H58 H 0.51566 0.24984 0.51328 0.0
H59 H 0.53948 0.32677 0.56073 0.0
O60 O 0.45589 0.2158 0.61945 0.0
O61 O 0.50458 0.22583 0.57559 0.0
O62 O 0.45767 0.24133 0.56209 0.0
O63 O 0.50519 0.282 0.60215 0.0
H64 H 0.43467 0.18015 0.66182 0.0
H65 H 0.40968 0.21133 0.59146 0.0
H66 H 0.38062 0.14794 0.67271 0.0
H67 H 0.35615 0.17846 0.60337 0.0
H68 H 0.5942 0.22867 0.56994 0.0
H69 H 0.49034 0.17747 0.60483 0.0
H70 H 0.56071 0.24919 0.55896 0.0
H71 H 0.52501 0.15819 0.615 0.0
H72 H 0.40177 0.09734 0.58811 0.0
H73 H 0.41272 0.13325 0.50759 0.0
H74 H 0.51866 0.21538 0.70241 0.0
H75 H 0.59762 0.26605 0.65311 0.0
H76 H 0.47693 0.29358 0.53741 0.0
H77 H 0.40315 0.20272 0.54385 0.0
H78 H 0.44844 0.30352 0.50259 0.0
H79 H 0.37582 0.2144 0.50916 0.0
H80 H 0.48965 0.28314 0.65261 0.0
H81 H 0.56423 0.3174 0.59765 0.0
H82 H 0.5251 0.31259 0.68918 0.0
H83 H 0.59833 0.34641 0.63511 0.0
H84 H 0.40489 0.27348 0.67139 0.0
H85 H 0.41153 0.31503 0.59408 0.0
H86 H 0.54642 0.28141 0.47562 0.0
H87 H 0.57211 0.36004 0.52502 0.0
Li88 Li 0.26862 0.49669 0.77972 0.0
Li89 Li 0.25975 0.45827 0.74667 0.0
Li90 Li 0.24796 0.49825 0.73591 0.0
Li91 Li 0.21632 0.45798 0.76755 0.0
C92 C 0.31478 0.52789 0.743 0.0
N93 N 0.36995 0.58018 0.74199 0.0
C94 C 0.34113 0.52655 0.73992 0.0
C95 C 0.31648 0.55581 0.74533 0.0
C96 C 0.36882 0.55324 0.73953 0.0
C97 C 0.34458 0.58199 0.74483 0.0
C98 C 0.26564 0.44494 0.80069 0.0
C99 C 0.2724 0.42027 0.83911 0.0
N100 N 0.3015 0.43088 0.83179 0.0
C101 C 0.29558 0.45555 0.79353 0.0
C102 C 0.2539 0.42712 0.82363 0.0
C103 C 0.31335 0.44822 0.80952 0.0
C104 C 0.2809 0.52955 0.82802 0.0
N105 N 0.29357 0.5206 0.80882 0.0
C106 C 0.34107 0.54614 0.83132 0.0
C107 C 0.323 0.52829 0.81026 0.0
C108 C 0.32874 0.55608 0.85128 0.0
C109 C 0.29815 0.54745 0.84947 0.0
H110 H 0.25733 0.52277 0.82665 0.0
H111 H 0.3326 0.52064 0.79509 0.0
C112 C 0.29492 0.44671 0.71115 0.0
N113 N 0.27503 0.43441 0.73171 0.0
C114 C 0.30843 0.4314 0.70014 0.0
C115 C 0.28003 0.39053 0.73111 0.0
C116 C 0.26723 0.40678 0.74169 0.0
C117 C 0.3012 0.40301 0.71025 0.0
H118 H 0.30053 0.46864 0.70352 0.0
H119 H 0.25146 0.39757 0.75817 0.0
C120 C 0.22414 0.52209 0.77369 0.0
N121 N 0.20441 0.56315 0.77718 0.0
C122 C 0.19362 0.51262 0.77067 0.0
C123 C 0.24453 0.55236 0.77901 0.0
C124 C 0.18411 0.53374 0.77234 0.0
C125 C 0.23414 0.57279 0.78056 0.0
C126 C 0.20579 0.42542 0.71951 0.0
C127 C 0.19596 0.42001 0.69284 0.0
C128 C 0.19807 0.40119 0.73684 0.0
C129 C 0.17849 0.39037 0.68392 0.0
C130 C 0.18058 0.37188 0.72716 0.0
N131 N 0.17124 0.36712 0.70113 0.0
C132 C 0.27123 0.53687 0.6908 0.0
C133 C 0.22259 0.52607 0.70408 0.0
C134 C 0.27145 0.55523 0.66997 0.0
N135 N 0.24727 0.52319 0.70766 0.0
C136 C 0.22185 0.54426 0.68355 0.0
C137 C 0.24659 0.5593 0.66621 0.0
H138 H 0.29013 0.53333 0.69333 0.0
H139 H 0.20332 0.51403 0.71699 0.0
C140 C 0.17201 0.42841 0.80744 0.0
N141 N 0.17633 0.43451 0.78071 0.0
C142 C 0.14289 0.41239 0.81788 0.0
C143 C 0.12331 0.40902 0.77303 0.0
C144 C 0.15277 0.42519 0.76349 0.0
C145 C 0.118 0.40258 0.80062 0.0
H146 H 0.19121 0.43643 0.82069 0.0
H147 H 0.15685 0.43065 0.74236 0.0
O148 O 0.2875 0.50195 0.7437 0.0
O149 O 0.24775 0.45182 0.78538 0.0
O150 O 0.23379 0.50164 0.77238 0.0
O151 O 0.22302 0.45434 0.72844 0.0
H152 H 0.34024 0.50511 0.73812 0.0
H153 H 0.2963 0.55723 0.74726 0.0
H154 H 0.3894 0.55254 0.73731 0.0
H155 H 0.3462 0.60375 0.74663 0.0
H156 H 0.26363 0.40651 0.85693 0.0
H157 H 0.30501 0.4693 0.77582 0.0
H158 H 0.23073 0.41868 0.82941 0.0
H159 H 0.33658 0.45632 0.80421 0.0
H160 H 0.36457 0.55243 0.83171 0.0
H161 H 0.28755 0.55417 0.86462 0.0
H162 H 0.32433 0.44164 0.68384 0.0
H163 H 0.27402 0.36882 0.73962 0.0
H164 H 0.17747 0.48926 0.7668 0.0
H165 H 0.26808 0.55999 0.78221 0.0
H166 H 0.1606 0.52675 0.76981 0.0
H167 H 0.2497 0.5963 0.78457 0.0
H168 H 0.20179 0.43855 0.67918 0.0
H169 H 0.20547 0.40492 0.75756 0.0
H170 H 0.17071 0.38584 0.66333 0.0
H171 H 0.17445 0.35292 0.74035 0.0
H172 H 0.2907 0.56572 0.65669 0.0
H173 H 0.20219 0.54669 0.68144 0.0
H174 H 0.13995 0.40838 0.83932 0.0
H175 H 0.1049 0.40163 0.7589 0.0
Li176 Li 0.80918 0.25527 0.91097 0.0
Li177 Li 0.77908 0.26379 0.94349 0.0
Li178 Li 0.76558 0.21137 0.93203 0.0
Li179 Li 0.75706 0.24294 0.90034 0.0
C180 C 0.82668 0.25983 0.96653 0.0
N181 N 0.87408 0.29328 1.00105 0.0
C182 C 0.84838 0.28927 0.95989 0.0
C183 C 0.82915 0.24735 0.9907 0.0
C184 C 0.87215 0.30584 0.9776 0.0
C185 C 0.85327 0.26463 0.0079 0.0
C186 C 0.79826 0.31151 0.90957 0.0
C187 C 0.78057 0.3466 0.91614 0.0
N188 N 0.80933 0.36981 0.91441 0.0
C189 C 0.82764 0.33572 0.90764 0.0
C190 C 0.77452 0.31699 0.91365 0.0
C191 C 0.83277 0.36502 0.91022 0.0
C192 C 0.85532 0.28868 0.87429 0.0
N193 N 0.84829 0.27029 0.89599 0.0
C194 C 0.89768 0.27662 0.8965 0.0
C195 C 0.8686 0.26375 0.90699 0.0
C196 C 0.90588 0.29643 0.87454 0.0
C197 C 0.88413 0.30214 0.86325 0.0
H198 H 0.83861 0.29327 0.86584 0.0
H199 H 0.86242 0.24902 0.92424 0.0
C200 C 0.75587 0.27733 0.98939 0.0
N201 N 0.77988 0.28882 0.97252 0.0
C202 C 0.75489 0.29457 0.01068 0.0
C203 C 0.80356 0.33505 0.99711 0.0
C204 C 0.8036 0.31704 0.97614 0.0
C205 C 0.77895 0.32392 0.01473 0.0
H206 H 0.73745 0.2547 0.98635 0.0
H207 H 0.82258 0.32579 0.96272 0.0
C208 C 0.78802 0.20087 0.88435 0.0
N209 N 0.81195 0.1663 0.86657 0.0
C210 C 0.78312 0.19024 0.85793 0.0
C211 C 0.80509 0.19394 0.90174 0.0
C212 C 0.7954 0.17278 0.84932 0.0
C213 C 0.817 0.17643 0.89237 0.0
C214 C 0.70898 0.21828 0.93428 0.0
C215 C 0.68898 0.18764 0.93029 0.0
C216 C 0.69792 0.23815 0.9363 0.0
C217 C 0.65827 0.17747 0.9278 0.0
C218 C 0.66706 0.22711 0.93369 0.0
N219 N 0.64805 0.19726 0.9295 0.0
C220 C 0.75036 0.1679 0.97264 0.0
C221 C 0.73646 0.14743 0.92882 0.0
C222 C 0.73778 0.1391 0.98374 0.0
N223 N 0.7495 0.1715 0.94566 0.0
C224 C 0.72361 0.11823 0.93905 0.0
C225 C 0.72402 0.11373 0.96689 0.0
H226 H 0.76049 0.18743 0.98557 0.0
H227 H 0.7355 0.15088 0.90749 0.0
C228 C 0.73846 0.26768 0.85865 0.0
N229 N 0.73122 0.24192 0.87217 0.0
C230 C 0.71993 0.26765 0.83809 0.0
C231 C 0.68716 0.21437 0.84516 0.0
C232 C 0.70645 0.21542 0.8655 0.0
C233 C 0.6937 0.24079 0.8312 0.0
H234 H 0.75883 0.28825 0.86356 0.0
H235 H 0.70171 0.19504 0.8759 0.0
O236 O 0.80319 0.24318 0.9495 0.0
O237 O 0.79279 0.28262 0.9073 0.0
O238 O 0.77623 0.21812 0.89296 0.0
O239 O 0.73913 0.22865 0.93678 0.0
H240 H 0.8468 0.2993 0.94131 0.0
H241 H 0.81266 0.22454 0.99613 0.0
H242 H 0.88903 0.32869 0.9727 0.0
H243 H 0.85544 0.25526 0.02668 0.0
H244 H 0.7624 0.35114 0.91941 0.0
H245 H 0.84632 0.33196 0.90441 0.0
H246 H 0.75167 0.29857 0.91483 0.0
H247 H 0.8554 0.38395 0.90893 0.0
H248 H 0.91379 0.27176 0.90594 0.0
H249 H 0.88933 0.31687 0.84606 0.0
H250 H 0.73566 0.28487 0.024 0.0
H251 H 0.82246 0.35764 0.99923 0.0
H252 H 0.76996 0.19545 0.84423 0.0
H253 H 0.8091 0.20193 0.92227 0.0
H254 H 0.79179 0.16439 0.82892 0.0
H255 H 0.83025 0.1709 0.9056 0.0
H256 H 0.69707 0.17189 0.92886 0.0
H257 H 0.71293 0.2618 0.94004 0.0
H258 H 0.64258 0.15384 0.92449 0.0
H259 H 0.65822 0.24227 0.93511 0.0
H260 H 0.73887 0.13676 1.00528 0.0
H261 H 0.71279 0.09938 0.92534 0.0
H262 H 0.72637 0.2884 0.82743 0.0
H263 H 0.6672 0.19314 0.84063 0.0
Li264 Li 0.56227 0.80539 0.08062 0.0
Li265 Li 0.52446 0.77603 0.11271 0.0
Li266 Li 0.56498 0.7634 0.1009 0.0
Li267 Li 0.52315 0.75521 0.06907 0.0
C268 C 0.59291 0.82623 0.12697 0.0
N269 N 0.64196 0.88013 0.14263 0.0
C270 C 0.59021 0.85185 0.13 0.0
C271 C 0.62054 0.82801 0.13198 0.0
C272 C 0.61529 0.8789 0.13788 0.0
C273 C 0.64507 0.85547 0.13988 0.0
C274 C 0.49801 0.79818 0.0848 0.0
C275 C 0.44697 0.78447 0.09575 0.0
N276 N 0.4563 0.81369 0.10174 0.0
C277 C 0.50708 0.82807 0.09111 0.0
C278 C 0.46769 0.7762 0.08712 0.0
C279 C 0.48565 0.83546 0.09959 0.0
C280 C 0.57159 0.85459 0.04876 0.0
N281 N 0.58638 0.84482 0.06484 0.0
C282 C 0.6327 0.8907 0.05758 0.0
C283 C 0.61659 0.8619 0.06872 0.0
C284 C 0.61767 0.9019 0.04193 0.0
C285 C 0.58676 0.88318 0.03722 0.0
H286 H 0.54786 0.84016 0.04491 0.0
H287 H 0.62826 0.85331 0.08058 0.0
C288 C 0.47786 0.74901 0.15149 0.0
N289 N 0.5001 0.77584 0.14206 0.0
C290 C 0.45887 0.7481 0.17201 0.0
C291 C 0.48626 0.80241 0.17305 0.0
C292 C 0.50487 0.80226 0.15271 0.0
C293 C 0.46279 0.77507 0.18288 0.0
H294 H 0.47469 0.72829 0.14298 0.0
H295 H 0.52284 0.82328 0.14517 0.0
C296 C 0.58656 0.78893 0.04253 0.0
N297 N 0.62661 0.82323 1.00281 0.0
C298 C 0.57603 0.79428 0.01844 0.0
C299 C 0.61741 0.80082 0.04641 0.0
C300 C 0.59666 0.81175 0.99861 0.0
C301 C 0.63731 0.81813 0.02607 0.0
C302 C 0.50188 0.70631 0.09929 0.0
C303 C 0.51373 0.6871 0.09719 0.0
C304 C 0.47115 0.69493 0.09506 0.0
C305 C 0.49467 0.65689 0.09062 0.0
C306 C 0.45284 0.66461 0.08848 0.0
N307 N 0.46489 0.64637 0.0864 0.0
C308 C 0.59079 0.74483 0.14099 0.0
C309 C 0.60229 0.73736 0.09654 0.0
C310 C 0.60678 0.73173 0.15152 0.0
N311 N 0.58886 0.74734 0.11397 0.0
C312 C 0.61843 0.724 0.1062 0.0
C313 C 0.62071 0.72087 0.13407 0.0
H314 H 0.57973 0.75286 0.15435 0.0
H315 H 0.59994 0.7392 0.07513 0.0
C316 C 0.47729 0.73475 0.02949 0.0
N317 N 0.49865 0.72986 0.0406 0.0
C318 C 0.45868 0.716 0.0091 0.0
C319 C 0.485 0.68804 0.01132 0.0
C320 C 0.50315 0.7074 0.03165 0.0
C321 C 0.46223 0.6921 0.99986 0.0
H322 H 0.47479 0.75333 0.03635 0.0
H323 H 0.52069 0.70436 0.04049 0.0
O324 O 0.5686 0.79945 0.11946 0.0
O325 O 0.51874 0.79037 0.07691 0.0
O326 O 0.56679 0.77261 0.06244 0.0
O327 O 0.52029 0.7361 0.10525 0.0
H328 H 0.56922 0.85108 0.12575 0.0
H329 H 0.62312 0.8085 0.12962 0.0
H330 H 0.61357 0.89895 0.1401 0.0
H331 H 0.6666 0.85719 0.14375 0.0
H332 H 0.42348 0.76765 0.09776 0.0
H333 H 0.53047 0.84536 0.08998 0.0
H334 H 0.46025 0.75293 0.08262 0.0
H335 H 0.4924 0.85847 0.10466 0.0
H336 H 0.65654 0.90424 0.06167 0.0
H337 H 0.5744 0.89048 0.02463 0.0
H338 H 0.44097 0.72652 0.17895 0.0
H339 H 0.49034 0.82371 0.18115 0.0
H340 H 0.55219 0.78531 0.01525 0.0
H341 H 0.62589 0.79707 0.06507 0.0
H342 H 0.58887 0.81626 0.97992 0.0
H343 H 0.66126 0.82766 0.02883 0.0
H344 H 0.5374 0.69542 0.10043 0.0
H345 H 0.46157 0.70943 0.09654 0.0
H346 H 0.50358 0.64182 0.08882 0.0
H347 H 0.42908 0.65559 0.08495 0.0
H348 H 0.60824 0.73021 0.17313 0.0
H349 H 0.62837 0.71556 0.09196 0.0
H350 H 0.44193 0.72043 1.00043 0.0
H351 H 0.48848 0.66985 1.00495 0.0
Li352 Li 0.76681 0.55777 0.2445 0.0
Li353 Li 0.75735 0.51957 0.27757 0.0
Li354 Li 0.80863 0.55736 0.26605 0.0
Li355 Li 0.77833 0.51834 0.2343 0.0
C356 C 0.75843 0.57022 0.29739 0.0
N357 N 0.72 0.58317 0.32565 0.0
C358 C 0.72825 0.5572 0.28982 0.0
C359 C 0.76906 0.58984 0.31931 0.0
C360 C 0.70918 0.56402 0.30437 0.0
C361 C 0.74928 0.5961 0.33334 0.0
C362 C 0.71654 0.48475 0.23705 0.0
C363 C 0.69653 0.43153 0.24357 0.0
N364 N 0.67264 0.42578 0.22774 0.0
C365 C 0.69179 0.47832 0.22087 0.0
C366 C 0.71895 0.46118 0.24853 0.0
C367 C 0.66983 0.44837 0.2164 0.0
C368 C 0.73404 0.57129 0.20733 0.0
N369 N 0.75198 0.5821 0.22937 0.0
C370 C 0.74596 0.62538 0.23017 0.0
C371 C 0.75839 0.60877 0.24071 0.0
C372 C 0.72687 0.61453 0.20767 0.0
C373 C 0.7212 0.58721 0.19608 0.0
H374 H 0.72938 0.55006 0.19871 0.0
H375 H 0.77286 0.617 0.25814 0.0
C376 C 0.74478 0.4919 0.32849 0.0
N377 N 0.73172 0.49586 0.30629 0.0
C378 C 0.72706 0.47409 0.34977 0.0
C379 C 0.68279 0.46486 0.32495 0.0
C380 C 0.70137 0.48311 0.30432 0.0
C381 C 0.69553 0.46 0.34811 0.0
H382 H 0.769 0.50258 0.32963 0.0
H383 H 0.69146 0.4868 0.2866 0.0
C384 C 0.82147 0.5913 0.21915 0.0
N385 N 0.85753 0.65035 0.20322 0.0
C386 C 0.8335 0.59786 0.19323 0.0
C387 C 0.82781 0.61477 0.237 0.0
C388 C 0.85167 0.62787 0.18555 0.0
C389 C 0.84607 0.64447 0.22856 0.0
C390 C 0.81441 0.50671 0.26958 0.0
C391 C 0.83452 0.51652 0.24801 0.0
C392 C 0.81768 0.49025 0.29035 0.0
C393 C 0.85765 0.50969 0.24761 0.0
C394 C 0.8411 0.48387 0.28922 0.0
N395 N 0.86044 0.49365 0.26806 0.0
C396 C 0.85198 0.58875 0.30649 0.0
C397 C 0.87258 0.58893 0.26388 0.0
C398 C 0.88075 0.60495 0.31768 0.0
N399 N 0.84846 0.581 0.28008 0.0
C400 C 0.90171 0.60483 0.27427 0.0
C401 C 0.90619 0.61301 0.30158 0.0
H402 H 0.83238 0.58215 0.31891 0.0
H403 H 0.86922 0.58253 0.24292 0.0
C404 C 0.77996 0.50185 0.18062 0.0
N405 N 0.77813 0.49264 0.2065 0.0
C406 C 0.77981 0.4838 0.15954 0.0
C407 C 0.77575 0.44706 0.19219 0.0
C408 C 0.77599 0.46581 0.21261 0.0
C409 C 0.77773 0.45598 0.1652 0.0
H410 H 0.7816 0.52329 0.17638 0.0
H411 H 0.77442 0.4589 0.23335 0.0
O412 O 0.77764 0.56393 0.28356 0.0
O413 O 0.73826 0.51402 0.24143 0.0
O414 O 0.80364 0.56198 0.22683 0.0
O415 O 0.79164 0.51321 0.27056 0.0
H416 H 0.7196 0.54208 0.27285 0.0
H417 H 0.79238 0.60014 0.3254 0.0
H418 H 0.68578 0.55411 0.29872 0.0
H419 H 0.75721 0.61125 0.35036 0.0
H420 H 0.69813 0.41308 0.25233 0.0
H421 H 0.68956 0.49631 0.21186 0.0
H422 H 0.73785 0.46567 0.26121 0.0
H423 H 0.65056 0.44307 0.2039 0.0
H424 H 0.75129 0.64652 0.23952 0.0
H425 H 0.70641 0.57783 0.17891 0.0
H426 H 0.73802 0.47159 0.36738 0.0
H427 H 0.65868 0.45425 0.32246 0.0
H428 H 0.82883 0.57993 0.17919 0.0
H429 H 0.81884 0.6102 0.25717 0.0
H430 H 0.86113 0.63327 0.16553 0.0
H431 H 0.85115 0.66285 0.24216 0.0
H432 H 0.83236 0.5293 0.23176 0.0
H433 H 0.80228 0.48248 0.30718 0.0
H434 H 0.87338 0.51717 0.23106 0.0
H435 H 0.84391 0.47115 0.30517 0.0
H436 H 0.88297 0.61112 0.33871 0.0
H437 H 0.92045 0.61004 0.26109 0.0
H438 H 0.78172 0.49174 0.13907 0.0
H439 H 0.77367 0.42564 0.1975 0.0
Li440 Li 0.21544 0.75993 0.41279 0.0
Li441 Li 0.24625 0.75181 0.4444 0.0
Li442 Li 0.25725 0.8025 0.434 0.0
Li443 Li 0.2667 0.77392 0.40092 0.0
C444 C 0.20273 0.78111 0.45963 0.0
N445 N 0.16632 0.80364 0.47559 0.0
C446 C 0.19065 0.77546 0.48554 0.0
C447 C 0.19625 0.79818 0.44182 0.0
C448 C 0.1723 0.78705 0.49324 0.0
C449 C 0.17781 0.80938 0.45027 0.0
C450 C 0.21051 0.70364 0.40949 0.0
C451 C 0.18516 0.6537 0.39057 0.0
N452 N 0.1657 0.64402 0.41164 0.0
C453 C 0.19031 0.69319 0.43097 0.0
C454 C 0.20798 0.68377 0.38913 0.0
C455 C 0.16779 0.66298 0.43169 0.0
C456 C 0.17149 0.74731 0.37272 0.0
N457 N 0.17543 0.74331 0.39911 0.0
C458 C 0.12229 0.7136 0.40556 0.0
C459 C 0.15157 0.72709 0.41561 0.0
C460 C 0.11748 0.7171 0.37833 0.0
C461 C 0.14253 0.73448 0.36188 0.0
H462 H 0.19088 0.76021 0.36004 0.0
H463 H 0.15525 0.72439 0.43657 0.0
C464 C 0.24429 0.73421 0.49815 0.0
N465 N 0.24663 0.72666 0.47247 0.0
C466 C 0.24421 0.71657 0.51958 0.0
C467 C 0.24915 0.6838 0.48769 0.0
C468 C 0.24911 0.70206 0.4669 0.0
C469 C 0.24661 0.69091 0.51449 0.0
H470 H 0.24238 0.75393 0.50196 0.0
H471 H 0.25101 0.69655 0.4463 0.0
C472 C 0.26487 0.8232 0.38111 0.0
N473 N 0.30259 0.87479 0.35271 0.0
C474 C 0.29507 0.84072 0.38851 0.0
C475 C 0.25386 0.83194 0.3593 0.0
C476 C 0.31378 0.86671 0.3739 0.0
C477 C 0.27328 0.8581 0.34519 0.0
C478 C 0.30803 0.78031 0.44089 0.0
C479 C 0.33319 0.79898 0.4565 0.0
C480 C 0.30546 0.75422 0.42951 0.0
C481 C 0.35537 0.7912 0.46053 0.0
C482 C 0.32811 0.74722 0.43401 0.0
N483 N 0.35238 0.76569 0.4493 0.0
C484 C 0.29078 0.84859 0.47068 0.0
C485 C 0.26569 0.86207 0.43833 0.0
C486 C 0.30425 0.87734 0.48192 0.0
N487 N 0.27222 0.84164 0.44912 0.0
C488 C 0.27865 0.89112 0.44897 0.0
C489 C 0.29852 0.8992 0.47089 0.0
H490 H 0.29536 0.83181 0.47896 0.0
H491 H 0.25089 0.85603 0.42114 0.0
C492 C 0.27912 0.75818 0.35027 0.0
N493 N 0.29218 0.77594 0.37208 0.0
C494 C 0.29682 0.75804 0.32901 0.0
C495 C 0.34102 0.79467 0.35298 0.0
C496 C 0.32248 0.7943 0.37364 0.0
C497 C 0.32824 0.77624 0.33035 0.0
H498 H 0.25495 0.74392 0.34952 0.0
H499 H 0.33235 0.80851 0.39103 0.0
O500 O 0.22071 0.76983 0.45193 0.0
O501 O 0.23282 0.7331 0.40828 0.0
O502 O 0.24599 0.79762 0.39505 0.0
O503 O 0.28614 0.7877 0.43688 0.0
H504 H 0.1954 0.76222 0.49955 0.0
H505 H 0.20523 0.80271 0.42165 0.0
H506 H 0.1628 0.78285 0.51324 0.0
H507 H 0.17262 0.82263 0.43669 0.0
H508 H 0.18293 0.63807 0.37495 0.0
H509 H 0.192 0.70822 0.44697 0.0
H510 H 0.22352 0.69149 0.3724 0.0
H511 H 0.15199 0.6546 0.4482 0.0
H512 H 0.10359 0.70068 0.41899 0.0
H513 H 0.13979 0.73753 0.34073 0.0
H514 H 0.24184 0.72272 0.53987 0.0
H515 H 0.25149 0.66452 0.48282 0.0
H516 H 0.30401 0.83446 0.40542 0.0
H517 H 0.23052 0.81866 0.35335 0.0
H518 H 0.33718 0.88047 0.37942 0.0
H519 H 0.26505 0.86514 0.32825 0.0
H520 H 0.33558 0.8193 0.46539 0.0
H521 H 0.28627 0.73957 0.41724 0.0
H522 H 0.37496 0.80544 0.47258 0.0
H523 H 0.32639 0.72711 0.42532 0.0
H524 H 0.319 0.88239 0.49908 0.0
H525 H 0.27378 0.9073 0.43968 0.0
H526 H 0.28608 0.74337 0.31198 0.0
H527 H 0.36511 0.80937 0.35463 0.0
H528 H 0.40955 0.06242 0.56226 0.0
H529 H 0.3633 0.08877 0.5054 0.0
H530 H 0.38312 0.01146 0.54451 0.0
H531 H 0.33778 0.03797 0.48682 0.0
H532 H 0.27451 0.93571 0.47953 0.0
H533 H 0.29967 0.98672 0.4977 0.0
H534 H 0.38223 0.98422 0.5048 0.0
H535 H 0.35709 0.93332 0.4868 0.0
C536 C 0.39365 0.05734 0.54603 0.0
C537 C 0.38852 0.07974 0.53533 0.0
C538 C 0.37877 0.02816 0.5356 0.0
C539 C 0.35839 0.02059 0.51414 0.0
C540 C 0.35311 0.04293 0.50351 0.0
C541 C 0.36802 0.07216 0.51396 0.0
C542 C 0.29809 0.94614 0.48481 0.0
C543 C 0.31373 0.93035 0.48184 0.0
C544 C 0.31252 0.9754 0.4952 0.0
C545 C 0.34297 0.98957 0.50282 0.0
C546 C 0.35863 0.97382 0.49964 0.0
C547 C 0.3442 0.9446 0.48931 0.0
H548 H 0.41654 0.35321 0.6236 0.0
H549 H 0.3587 0.27381 0.67007 0.0
H550 H 0.39048 0.378 0.64128 0.0
H551 H 0.33381 0.29937 0.68908 0.0
H552 H 0.27549 0.34342 0.69696 0.0
H553 H 0.30016 0.31728 0.67843 0.0
H554 H 0.38559 0.40006 0.68136 0.0
H555 H 0.36076 0.42615 0.69925 0.0
C556 C 0.3982 0.34095 0.63753 0.0
C557 C 0.38971 0.31139 0.64528 0.0
C558 C 0.38352 0.35539 0.64803 0.0
C559 C 0.3601 0.3408 0.66676 0.0
C560 C 0.35153 0.31122 0.6745 0.0
C561 C 0.3661 0.29668 0.66385 0.0
C562 C 0.29956 0.35593 0.69373 0.0
C563 C 0.31615 0.38687 0.69941 0.0
C564 C 0.31374 0.34096 0.68318 0.0
C565 C 0.3449 0.35654 0.67826 0.0
C566 C 0.36148 0.38743 0.68431 0.0
C567 C 0.34727 0.40241 0.69464 0.0
H568 H 0.94035 0.35521 0.8595 0.0
H569 H 0.94203 0.27215 0.86557 0.0
H570 H 0.99139 0.38041 0.84193 0.0
H571 H 0.9931 0.29728 0.84765 0.0
H572 H 0.09501 0.35981 0.84043 0.0
H573 H 0.04419 0.33444 0.85871 0.0
H574 H 0.01907 0.38233 0.80256 0.0
H575 H 0.07015 0.40876 0.78525 0.0
C576 C 0.95152 0.34225 0.8568 0.0
C577 C 0.93706 0.31164 0.86382 0.0
C578 C 0.98081 0.35669 0.84669 0.0
C579 C 0.99638 0.34088 0.84323 0.0
C580 C 0.98196 0.31027 0.85038 0.0
C581 C 0.95266 0.29583 0.86061 0.0
C582 C 0.07873 0.36516 0.83216 0.0
C583 C 0.08676 0.38639 0.81136 0.0
C584 C 0.04946 0.35031 0.84243 0.0
C585 C 0.02747 0.35631 0.83213 0.0
C586 C 0.03548 0.37741 0.81123 0.0
C587 C 0.06473 0.39229 0.80103 0.0
H588 H 0.6742 0.93204 0.01983 0.0
H589 H 0.59787 0.94234 0.03921 0.0
H590 H 0.70077 0.9834 1.00247 0.0
H591 H 0.62389 0.9931 0.02093 0.0
H592 H 0.69011 0.09305 0.01263 0.0
H593 H 0.66572 0.04237 0.03115 0.0
H594 H 0.69934 0.01321 0.96499 0.0
H595 H 0.72479 0.06427 0.94702 0.0
C596 C 0.66309 0.94525 0.02041 0.0
C597 C 0.63388 0.93303 0.03091 0.0
C598 C 0.6782 0.97458 0.01019 0.0
C599 C 0.66448 0.99241 0.01031 0.0
C600 C 0.63528 0.98016 0.02081 0.0
C601 C 0.6202 0.95088 0.03099 0.0
C602 C 0.69267 0.07596 1.00221 0.0
C603 C 0.70946 0.08279 0.97833 0.0
C604 C 0.67835 0.04678 0.01266 0.0
C605 C 0.68044 0.02365 0.9995 0.0
C606 C 0.69748 0.03053 0.97577 0.0
C607 C 0.71179 0.05974 0.9653 0.0
H608 H 0.71873 0.62411 0.15486 0.0
H609 H 0.70204 0.64252 0.23578 0.0
H610 H 0.69333 0.64989 0.1371 0.0
H611 H 0.67751 0.66909 0.21802 0.0
H612 H 0.60482 0.68202 0.17668 0.0
H613 H 0.63114 0.65728 0.19435 0.0
H614 H 0.69948 0.70038 0.13345 0.0
H615 H 0.67328 0.72541 0.11585 0.0
C616 C 0.70968 0.63369 0.16886 0.0
C617 C 0.71239 0.6312 0.19675 0.0
C618 C 0.69539 0.64874 0.15867 0.0
C619 C 0.68335 0.66154 0.17613 0.0
C620 C 0.68625 0.65922 0.20402 0.0
C621 C 0.70063 0.64428 0.21419 0.0
C622 C 0.62565 0.68656 0.16723 0.0
C623 C 0.63694 0.70583 0.14487 0.0
C624 C 0.64073 0.67232 0.17736 0.0
C625 C 0.66746 0.67689 0.16536 0.0
C626 C 0.67874 0.69607 0.14296 0.0
C627 C 0.66369 0.71041 0.13286 0.0
H628 H 0.09271 0.74145 0.34517 0.0
H629 H 0.0724 0.65931 0.38617 0.0
H630 H 0.04165 0.71723 0.32727 0.0
H631 H 0.02169 0.6347 0.3677 0.0
H632 H 0.92453 0.60642 0.35178 0.0
H633 H 0.97491 0.63256 0.37061 0.0
H634 H 1.00895 0.68106 0.29602 0.0
H635 H 0.95824 0.6565 0.27785 0.0
C636 C 0.07737 0.71811 0.35013 0.0
C637 C 0.08652 0.70231 0.36714 0.0
C638 C 0.0481 0.70415 0.33981 0.0
C639 C 0.02737 0.67393 0.34601 0.0
C640 C 0.03672 0.65814 0.3629 0.0
C641 C 0.06586 0.6722 0.37343 0.0
C642 C 0.94262 0.62305 0.33951 0.0
C643 C 0.93712 0.62927 0.31323 0.0
C644 C 0.97171 0.63774 0.3502 0.0
C645 C 0.99621 0.65887 0.33484 0.0
C646 C 0.99069 0.66522 0.30861 0.0
C647 C 0.96156 0.65074 0.29801 0.0
H648 H 0.5963 0.3129 0.46116 0.0
H649 H 0.57161 0.37929 0.48255 0.0
H650 H 0.62741 0.34513 0.4249 0.0
H651 H 0.60447 0.41242 0.44767 0.0
H652 H 0.64206 0.45331 0.36637 0.0
H653 H 0.60936 0.4196 0.40105 0.0
H654 H 0.67301 0.3895 0.41612 0.0
H655 H 0.70461 0.42152 0.38001 0.0
C656 C 0.59745 0.33434 0.45818 0.0
C657 C 0.58132 0.34337 0.47491 0.0
C658 C 0.61574 0.3531 0.43758 0.0
C659 C 0.61868 0.38155 0.43331 0.0
C660 C 0.60255 0.39056 0.45005 0.0
C661 C 0.584 0.37167 0.47042 0.0
C662 C 0.64893 0.43919 0.37675 0.0
C663 C 0.67604 0.44018 0.37018 0.0
C664 C 0.63032 0.42012 0.39702 0.0
C665 C 0.63846 0.40175 0.41156 0.0
C666 C 0.66571 0.40294 0.40516 0.0
C667 C 0.68415 0.42176 0.38467 0.0
H668 H 0.21864 0.62941 0.51625 0.0
H669 H 0.2741 0.7088 0.56364 0.0
H670 H 0.21901 0.5979 0.55271 0.0
H671 H 0.27334 0.67721 0.60056 0.0
H672 H 0.29308 0.61336 0.64911 0.0
H673 H 0.29309 0.64479 0.6124 0.0
H674 H 0.19929 0.58152 0.59741 0.0
H675 H 0.19964 0.54942 0.63333 0.0
C676 C 0.23095 0.64016 0.53443 0.0
C677 C 0.24641 0.67166 0.53696 0.0
C678 C 0.23084 0.62206 0.55548 0.0
C679 C 0.24616 0.635 0.57961 0.0
C680 C 0.26157 0.6665 0.58216 0.0
C681 C 0.2617 0.68461 0.5611 0.0
C682 C 0.27253 0.60599 0.63782 0.0
C683 C 0.24638 0.5788 0.64416 0.0
C684 C 0.27244 0.62421 0.61697 0.0
C685 C 0.24618 0.61572 0.60195 0.0
C686 C 0.22 0.58859 0.60836 0.0
C687 C 0.2201 0.57035 0.6292 0.0
H688 H 0.66378 0.19725 0.79298 0.0
H689 H 0.67798 0.28339 0.82002 0.0
H690 H 0.63135 0.197 0.75704 0.0
H691 H 0.64588 0.28326 0.78386 0.0
H692 H 0.61448 0.28723 0.69823 0.0
H693 H 0.64637 0.2869 0.73447 0.0
H694 H 0.58211 0.19362 0.75046 0.0
H695 H 0.55059 0.19372 0.71373 0.0
C696 C 0.65979 0.216 0.79145 0.0
C697 C 0.67358 0.24037 0.80942 0.0
C698 C 0.64123 0.21587 0.7708 0.0
C699 C 0.6361 0.24014 0.76756 0.0
C700 C 0.64976 0.26443 0.78556 0.0
C701 C 0.6682 0.26451 0.80628 0.0
C702 C 0.60728 0.26659 0.70934 0.0
C703 C 0.58003 0.24049 0.70307 0.0
C704 C 0.6254 0.26649 0.73028 0.0
C705 C 0.61675 0.24024 0.74537 0.0
C706 C 0.58952 0.21412 0.73907 0.0
C707 C 0.57133 0.21426 0.71821 0.0
H708 H 0.32848 0.60463 0.87384 0.0
H709 H 0.37212 0.55147 0.87945 0.0
H710 H 0.36039 0.637 0.90993 0.0
H711 H 0.40411 0.58394 0.91544 0.0
H712 H 0.47783 0.6687 0.95741 0.0
H713 H 0.44529 0.63548 0.92204 0.0
H714 H 0.36917 0.63606 0.95818 0.0
H715 H 0.40166 0.66916 0.99362 0.0
C716 C 0.34465 0.59964 0.88295 0.0
C717 C 0.34775 0.57546 0.8737 0.0
C718 C 0.36297 0.61823 0.90363 0.0
C719 C 0.38485 0.6131 0.91554 0.0
C720 C 0.38781 0.5888 0.90641 0.0
C721 C 0.36947 0.5702 0.88577 0.0
C722 C 0.4541 0.6615 0.95798 0.0
C723 C 0.44238 0.67165 0.97836 0.0
C724 C 0.43545 0.64246 0.93769 0.0
C725 C 0.40463 0.63313 0.93727 0.0
C726 C 0.39289 0.64319 0.95768 0.0
C727 C 0.41153 0.66219 0.97799 0.0
H728 H 0.7313 0.32909 0.03267 0.0
H729 H 0.82553 0.36167 0.04751 0.0
H730 H 0.73065 0.36027 0.06933 0.0
H731 H 0.82518 0.39377 0.08335 0.0
H732 H 0.80638 0.42313 0.164 0.0
H733 H 0.80583 0.3905 0.12822 0.0
H734 H 0.74953 0.41279 0.08023 0.0
H735 H 0.74904 0.44447 0.1165 0.0
C736 C 0.75186 0.34284 0.04379 0.0
C737 C 0.77847 0.34285 0.03713 0.0
C738 C 0.75158 0.361 0.06459 0.0
C739 C 0.77788 0.37959 0.07926 0.0
C740 C 0.80444 0.3795 0.07267 0.0
C741 C 0.80473 0.36136 0.05188 0.0
C742 C 0.79361 0.42083 0.14594 0.0
C743 C 0.77771 0.4364 0.14316 0.0
C744 C 0.79358 0.40238 0.12529 0.0
C745 C 0.77768 0.39905 0.10132 0.0
C746 C 0.76175 0.4146 0.09853 0.0
C747 C 0.76178 0.43306 0.1192 0.0
H748 H 0.37994 0.77385 0.33532 0.0
H749 H 0.32032 0.77744 0.27605 0.0
H750 H 0.41215 0.77339 0.29949 0.0
H751 H 0.35232 0.7765 0.24016 0.0
H752 H 0.43666 0.81003 0.18646 0.0
H753 H 0.40392 0.81011 0.22202 0.0
H754 H 0.40999 0.73912 0.26294 0.0
H755 H 0.44313 0.73938 0.2276 0.0
C756 C 0.37378 0.77463 0.31463 0.0
C757 C 0.34764 0.77576 0.30849 0.0
C758 C 0.39206 0.77407 0.29412 0.0
C759 C 0.38475 0.77488 0.26702 0.0
C760 C 0.35865 0.77609 0.26087 0.0
C761 C 0.34021 0.77637 0.28139 0.0
C762 C 0.43112 0.79457 0.20313 0.0
C763 C 0.44252 0.77476 0.20429 0.0
C764 C 0.41216 0.79441 0.22335 0.0
C765 C 0.4044 0.77463 0.24527 0.0
C766 C 0.41578 0.7548 0.24641 0.0
C767 C 0.43453 0.75476 0.22607 0.0
loop_
_geom_bond_atom_site_label_1
_geom_bond_atom_site_label_2
_geom_bond_distance
_geom_bond_site_symmetry_2
_ccdc_geom_bond_type
Li0 N17 1.990 . S
Li0 O60 1.956 . S
Li0 O61 1.970 . S
Li0 O62 1.961 . S
Li1 N25 1.990 . S
Li1 O60 1.970 . S
Li1 O61 1.956 . S
Li1 O63 1.961 . S
Li2 N47 1.990 . S
Li2 O60 1.961 . S
Li2 O62 1.956 . S
Li2 O63 1.970 . S
Li3 N53 1.990 . S
Li3 O61 1.961 . S
Li3 O62 1.970 . S
Li3 O63 1.956 . S
C4 C6 1.348 . S
C4 C7 1.356 . S
C4 O60 1.325 . S
N5 C8 1.314 . S
N5 C9 1.279 . S
C6 C4 1.348 . S
C6 C8 1.353 . S
C6 H64 0.929 . S
C7 C4 1.356 . S
C7 C9 1.358 . S
C7 H65 0.930 . S
C8 N5 1.314 . S
C8 C6 1.353 . S
C8 H66 0.930 . S
C9 N5 1.279 . S
C9 C7 1.358 . S
C9 H67 0.930 . S
C10 C13 1.348 . S
C10 C14 1.356 . S
C10 O61 1.325 . S
C11 N12 1.279 . S
C11 C14 1.358 . S
C11 H68 0.930 . S
N12 C11 1.279 . S
N12 C15 1.314 . S
C13 C10 1.348 . S
C13 C15 1.353 . S
C13 H69 0.929 . S
C14 C10 1.356 . S
C14 C11 1.358 . S
C14 H70 0.930 . S
C15 N12 1.314 . S
C15 C13 1.353 . S
C15 H71 0.930 . S
C16 N17 1.314 . S
C16 C21 1.353 . S
C16 H22 0.930 . S
N17 Li0 1.990 . S
N17 C16 1.314 . S
N17 C19 1.279 . S
C18 C19 1.358 . S
C18 C20 1.356 . S
C18 H72 0.930 . S
C19 N17 1.279 . S
C19 C18 1.358 . S
C19 H23 0.930 . S
C20 C18 1.356 . S
C20 C21 1.348 . S
C21 C16 1.353 . S
C21 C20 1.348 . S
C21 H73 0.929 . S
H22 C16 0.930 . S
H23 C19 0.930 . S
C24 N25 1.314 . S
C24 C26 1.353 . S
C24 H30 0.930 . S
N25 Li1 1.990 . S
N25 C24 1.314 . S
N25 C28 1.279 . S
C26 C24 1.353 . S
C26 C29 1.348 . S
C26 H74 0.929 . S
C27 C28 1.358 . S
C27 C29 1.356 . S
C27 H75 0.930 . S
C28 N25 1.279 . S
C28 C27 1.358 . S
C28 H31 0.930 . S
C29 C26 1.348 . S
C29 C27 1.356 . S
H30 C24 0.930 . S
H31 C28 0.930 . S
C32 C34 1.348 . S
C32 C35 1.356 . S
C32 O62 1.325 . S
N33 C36 1.314 . S
N33 C37 1.279 . S
C34 C32 1.348 . S
C34 C36 1.353 . S
C34 H76 0.929 . S
C35 C32 1.356 . S
C35 C37 1.358 . S
C35 H77 0.930 . S
C36 N33 1.314 . S
C36 C34 1.353 . S
C36 H78 0.930 . S
C37 N33 1.279 . S
C37 C35 1.358 . S
C37 H79 0.930 . S
C38 C39 1.348 . S
C38 C40 1.356 . S
C38 O63 1.325 . S
C39 C38 1.348 . S
C39 C41 1.353 . S
C39 H80 0.929 . S
C40 C38 1.356 . S
C40 C42 1.358 . S
C40 H81 0.930 . S
C41 C39 1.353 . S
C41 N43 1.314 . S
C41 H82 0.930 . S
C42 C40 1.358 . S
C42 N43 1.279 . S
C42 H83 0.930 . S
N43 C41 1.314 . S
N43 C42 1.279 . S
C44 C46 1.353 . S
C44 N47 1.314 . S
C44 H50 0.930 . S
C45 N47 1.279 . S
C45 C48 1.358 . S
C45 H51 0.930 . S
C46 C44 1.353 . S
C46 C49 1.348 . S
C46 H84 0.929 . S
N47 Li2 1.990 . S
N47 C44 1.314 . S
N47 C45 1.279 . S
C48 C45 1.358 . S
C48 C49 1.356 . S
C48 H85 0.930 . S
C49 C46 1.348 . S
C49 C48 1.356 . S
H50 C44 0.930 . S
H51 C45 0.930 . S
C52 N53 1.314 . S
C52 C54 1.353 . S
C52 H58 0.930 . S
N53 Li3 1.990 . S
N53 C52 1.314 . S
N53 C56 1.279 . S
C54 C52 1.353 . S
C54 C57 1.348 . S
C54 H86 0.929 . S
C55 C56 1.358 . S
C55 C57 1.356 . S
C55 H87 0.930 . S
C56 N53 1.279 . S
C56 C55 1.358 . S
C56 H59 0.930 . S
C57 C54 1.348 . S
C57 C55 1.356 . S
H58 C52 0.930 . S
H59 C56 0.930 . S
O60 Li0 1.956 . S
O60 Li1 1.970 . S
O60 Li2 1.961 . S
O60 C4 1.325 . S
O61 Li0 1.970 . S
O61 Li1 1.956 . S
O61 Li3 1.961 . S
O61 C10 1.325 . S
O62 Li0 1.961 . S
O62 Li2 1.956 . S
O62 Li3 1.970 . S
O62 C32 1.325 . S
O63 Li1 1.961 . S
O63 Li2 1.970 . S
O63 Li3 1.956 . S
O63 C38 1.325 . S
H64 C6 0.929 . S
H65 C7 0.930 . S
H66 C8 0.930 . S
H67 C9 0.930 . S
H68 C11 0.930 . S
H69 C13 0.929 . S
H70 C14 0.930 . S
H71 C15 0.930 . S
H72 C18 0.930 . S
H73 C21 0.929 . S
H74 C26 0.929 . S
H75 C27 0.930 . S
H76 C34 0.929 . S
H77 C35 0.930 . S
H78 C36 0.930 . S
H79 C37 0.930 . S
H80 C39 0.929 . S
H81 C40 0.930 . S
H82 C41 0.930 . S
H83 C42 0.930 . S
H84 C46 0.929 . S
H85 C48 0.930 . S
H86 C54 0.929 . S
H87 C55 0.930 . S
Li88 N105 1.990 . S
Li88 O148 1.956 . S
Li88 O149 1.970 . S
Li88 O150 1.961 . S
Li89 N113 1.990 . S
Li89 O148 1.970 . S
Li89 O149 1.956 . S
Li89 O151 1.961 . S
Li90 N135 1.990 . S
Li90 O148 1.961 . S
Li90 O150 1.956 . S
Li90 O151 1.970 . S
Li91 N141 1.990 . S
Li91 O149 1.961 . S
Li91 O150 1.970 . S
Li91 O151 1.956 . S
C92 C94 1.348 . S
C92 C95 1.356 . S
C92 O148 1.325 . S
N93 C96 1.314 . S
N93 C97 1.279 . S
C94 C92 1.348 . S
C94 C96 1.353 . S
C94 H152 0.929 . S
C95 C92 1.356 . S
C95 C97 1.358 . S
C95 H153 0.930 . S
C96 N93 1.314 . S
C96 C94 1.353 . S
C96 H154 0.930 . S
C97 N93 1.279 . S
C97 C95 1.358 . S
C97 H155 0.930 . S
C98 C101 1.348 . S
C98 C102 1.356 . S
C98 O149 1.325 . S
C99 N100 1.279 . S
C99 C102 1.358 . S
C99 H156 0.930 . S
N100 C99 1.279 . S
N100 C103 1.314 . S
C101 C98 1.348 . S
C101 C103 1.353 . S
C101 H157 0.929 . S
C102 C98 1.356 . S
C102 C99 1.358 . S
C102 H158 0.930 . S
C103 N100 1.314 . S
C103 C101 1.353 . S
C103 H159 0.930 . S
C104 N105 1.314 . S
C104 C109 1.353 . S
C104 H110 0.930 . S
N105 Li88 1.990 . S
N105 C104 1.314 . S
N105 C107 1.279 . S
C106 C107 1.358 . S
C106 C108 1.356 . S
C106 H160 0.930 . S
C107 N105 1.279 . S
C107 C106 1.358 . S
C107 H111 0.930 . S
C108 C106 1.356 . S
C108 C109 1.348 . S
C109 C104 1.353 . S
C109 C108 1.348 . S
C109 H161 0.929 . S
H110 C104 0.930 . S
H111 C107 0.930 . S
C112 N113 1.314 . S
C112 C114 1.353 . S
C112 H118 0.930 . S
N113 Li89 1.990 . S
N113 C112 1.314 . S
N113 C116 1.279 . S
C114 C112 1.353 . S
C114 C117 1.348 . S
C114 H162 0.929 . S
C115 C116 1.358 . S
C115 C117 1.356 . S
C115 H163 0.930 . S
C116 N113 1.279 . S
C116 C115 1.358 . S
C116 H119 0.930 . S
C117 C114 1.348 . S
C117 C115 1.356 . S
H118 C112 0.930 . S
H119 C116 0.930 . S
C120 C122 1.348 . S
C120 C123 1.356 . S
C120 O150 1.325 . S
N121 C124 1.314 . S
N121 C125 1.279 . S
C122 C120 1.348 . S
C122 C124 1.353 . S
C122 H164 0.929 . S
C123 C120 1.356 . S
C123 C125 1.358 . S
C123 H165 0.930 . S
C124 N121 1.314 . S
C124 C122 1.353 . S
C124 H166 0.930 . S
C125 N121 1.279 . S
C125 C123 1.358 . S
C125 H167 0.930 . S
C126 C127 1.348 . S
C126 C128 1.356 . S
C126 O151 1.325 . S
C127 C126 1.348 . S
C127 C129 1.353 . S
C127 H168 0.929 . S
C128 C126 1.356 . S
C128 C130 1.358 . S
C128 H169 0.930 . S
C129 C127 1.353 . S
C129 N131 1.314 . S
C129 H170 0.930 . S
C130 C128 1.358 . S
C130 N131 1.279 . S
C130 H171 0.930 . S
N131 C129 1.314 . S
N131 C130 1.279 . S
C132 C134 1.353 . S
C132 N135 1.314 . S
C132 H138 0.930 . S
C133 N135 1.279 . S
C133 C136 1.358 . S
C133 H139 0.930 . S
C134 C132 1.353 . S
C134 C137 1.348 . S
C134 H172 0.929 . S
N135 Li90 1.990 . S
N135 C132 1.314 . S
N135 C133 1.279 . S
C136 C133 1.358 . S
C136 C137 1.356 . S
C136 H173 0.930 . S
C137 C134 1.348 . S
C137 C136 1.356 . S
H138 C132 0.930 . S
H139 C133 0.930 . S
C140 N141 1.314 . S
C140 C142 1.353 . S
C140 H146 0.930 . S
N141 Li91 1.990 . S
N141 C140 1.314 . S
N141 C144 1.279 . S
C142 C140 1.353 . S
C142 C145 1.348 . S
C142 H174 0.929 . S
C143 C144 1.358 . S
C143 C145 1.356 . S
C143 H175 0.930 . S
C144 N141 1.279 . S
C144 C143 1.358 . S
C144 H147 0.930 . S
C145 C142 1.348 . S
C145 C143 1.356 . S
H146 C140 0.930 . S
H147 C144 0.930 . S
O148 Li88 1.956 . S
O148 Li89 1.970 . S
O148 Li90 1.961 . S
O148 C92 1.325 . S
O149 Li88 1.970 . S
O149 Li89 1.956 . S
O149 Li91 1.961 . S
O149 C98 1.325 . S
O150 Li88 1.961 . S
O150 Li90 1.956 . S
O150 Li91 1.970 . S
O150 C120 1.325 . S
O151 Li89 1.961 . S
O151 Li90 1.970 . S
O151 Li91 1.956 . S
O151 C126 1.325 . S
H152 C94 0.929 . S
H153 C95 0.930 . S
H154 C96 0.930 . S
H155 C97 0.930 . S
H156 C99 0.930 . S
H157 C101 0.929 . S
H158 C102 0.930 . S
H159 C103 0.930 . S
H160 C106 0.930 . S
H161 C109 0.929 . S
H162 C114 0.929 . S
H163 C115 0.930 . S
H164 C122 0.929 . S
H165 C123 0.930 . S
H166 C124 0.930 . S
H167 C125 0.930 . S
H168 C127 0.929 . S
H169 C128 0.930 . S
H170 C129 0.930 . S
H171 C130 0.930 . S
H172 C134 0.929 . S
H173 C136 0.930 . S
H174 C142 0.929 . S
H175 C143 0.930 . S
Li176 N193 1.990 . S
Li176 O236 1.956 . S
Li176 O237 1.970 . S
Li176 O238 1.961 . S
Li177 N201 1.990 . S
Li177 O236 1.970 . S
Li177 O237 1.956 . S
Li177 O239 1.961 . S
Li178 N223 1.990 . S
Li178 O236 1.961 . S
Li178 O238 1.956 . S
Li178 O239 1.970 . S
Li179 N229 1.990 . S
Li179 O237 1.961 . S
Li179 O238 1.970 . S
Li179 O239 1.956 . S
C180 C182 1.348 . S
C180 C183 1.356 . S
C180 O236 1.325 . S
N181 C184 1.312 1_554 S
N181 C185 1.279 1_554 S
C182 C180 1.348 . S
C182 C184 1.382 . S
C182 H240 0.929 . S
C183 C180 1.356 . S
C183 C185 1.358 . S
C183 H241 0.930 . S
C184 N181 1.312 1_556 S
C184 C182 1.382 . S
C184 H242 0.901 1_556 S
C185 N181 1.279 1_556 S
C185 C183 1.358 . S
C185 H243 0.930 . S
C186 C189 1.348 . S
C186 C190 1.356 . S
C186 O237 1.325 . S
C187 N188 1.279 . S
C187 C190 1.358 . S
C187 H244 0.930 . S
N188 C187 1.279 . S
N188 C191 1.314 . S
C189 C186 1.348 . S
C189 C191 1.353 . S
C189 H245 0.929 . S
C190 C186 1.356 . S
C190 C187 1.358 . S
C190 H246 0.930 . S
C191 N188 1.314 . S
C191 C189 1.353 . S
C191 H247 0.930 . S
C192 N193 1.314 . S
C192 C197 1.353 . S
C192 H198 0.930 . S
N193 Li176 1.990 . S
N193 C192 1.314 . S
N193 C195 1.279 . S
C194 C195 1.358 . S
C194 C196 1.356 . S
C194 H248 0.930 . S
C195 N193 1.279 . S
C195 C194 1.358 . S
C195 H199 0.930 . S
C196 C194 1.356 . S
C196 C197 1.348 . S
C197 C192 1.353 . S
C197 C196 1.348 . S
C197 H249 0.929 . S
H198 C192 0.930 . S
H199 C195 0.930 . S
C200 N201 1.314 . S
C200 C202 1.353 1_556 S
C200 H206 0.930 . S
N201 Li177 1.990 . S
N201 C200 1.314 . S
N201 C204 1.279 . S
C202 C200 1.353 1_554 S
C202 C205 1.348 . S
C202 H250 0.929 . S
C203 C204 1.358 . S
C203 C205 1.356 1_556 S
C203 H251 0.930 . S
C204 N201 1.279 . S
C204 C203 1.358 . S
C204 H207 0.930 . S
C205 C202 1.348 . S
C205 C203 1.356 1_554 S
H206 C200 0.930 . S
H207 C204 0.930 . S
C208 C210 1.348 . S
C208 C211 1.356 . S
C208 O238 1.325 . S
N209 C212 1.314 . S
N209 C213 1.279 . S
C210 C208 1.348 . S
C210 C212 1.353 . S
C210 H252 0.929 . S
C211 C208 1.356 . S
C211 C213 1.358 . S
C211 H253 0.930 . S
C212 N209 1.314 . S
C212 C210 1.353 . S
C212 H254 0.930 . S
C213 N209 1.279 . S
C213 C211 1.358 . S
C213 H255 0.930 . S
C214 C215 1.348 . S
C214 C216 1.356 . S
C214 O239 1.325 . S
C215 C214 1.348 . S
C215 C217 1.353 . S
C215 H256 0.929 . S
C216 C214 1.356 . S
C216 C218 1.358 . S
C216 H257 0.930 . S
C217 C215 1.353 . S
C217 N219 1.314 . S
C217 H258 0.930 . S
C218 C216 1.358 . S
C218 N219 1.279 . S
C218 H259 0.930 . S
N219 C217 1.314 . S
N219 C218 1.279 . S
C220 C222 1.353 . S
C220 N223 1.314 . S
C220 H226 0.930 . S
C221 N223 1.279 . S
C221 C224 1.358 . S
C221 H227 0.930 . S
C222 C220 1.353 . S
C222 C225 1.348 . S
C222 H260 0.929 . S
N223 Li178 1.990 . S
N223 C220 1.314 . S
N223 C221 1.279 . S
C224 C221 1.358 . S
C224 C225 1.356 . S
C224 H261 0.930 . S
C225 C222 1.348 . S
C225 C224 1.356 . S
H226 C220 0.930 . S
H227 C221 0.930 . S
C228 N229 1.314 . S
C228 C230 1.353 . S
C228 H234 0.930 . S
N229 Li179 1.990 . S
N229 C228 1.314 . S
N229 C232 1.279 . S
C230 C228 1.353 . S
C230 C233 1.348 . S
C230 H262 0.929 . S
C231 C232 1.358 . S
C231 C233 1.356 . S
C231 H263 0.930 . S
C232 N229 1.279 . S
C232 C231 1.358 . S
C232 H235 0.930 . S
C233 C230 1.348 . S
C233 C231 1.356 . S
H234 C228 0.930 . S
H235 C232 0.930 . S
O236 Li176 1.956 . S
O236 Li177 1.970 . S
O236 Li178 1.961 . S
O236 C180 1.325 . S
O237 Li176 1.970 . S
O237 Li177 1.956 . S
O237 Li179 1.961 . S
O237 C186 1.325 . S
O238 Li176 1.961 . S
O238 Li178 1.956 . S
O238 Li179 1.970 . S
O238 C208 1.325 . S
O239 Li177 1.961 . S
O239 Li178 1.970 . S
O239 Li179 1.956 . S
O239 C214 1.325 . S
H240 C182 0.929 . S
H241 C183 0.930 . S
H242 C184 0.901 1_554 S
H243 C185 0.930 . S
H244 C187 0.930 . S
H245 C189 0.929 . S
H246 C190 0.930 . S
H247 C191 0.930 . S
H248 C194 0.930 . S
H249 C197 0.929 . S
H250 C202 0.929 . S
H251 C203 0.930 . S
H252 C210 0.929 . S
H253 C211 0.930 . S
H254 C212 0.930 . S
H255 C213 0.930 . S
H256 C215 0.929 . S
H257 C216 0.930 . S
H258 C217 0.930 . S
H259 C218 0.930 . S
H260 C222 0.929 . S
H261 C224 0.930 . S
H262 C230 0.929 . S
H263 C231 0.930 . S
Li264 N281 1.990 . S
Li264 O324 1.956 . S
Li264 O325 1.970 . S
Li264 O326 1.961 . S
Li265 N289 1.990 . S
Li265 O324 1.970 . S
Li265 O325 1.956 . S
Li265 O327 1.961 . S
Li266 N311 1.990 . S
Li266 O324 1.961 . S
Li266 O326 1.956 . S
Li266 O327 1.970 . S
Li267 N317 1.990 . S
Li267 O325 1.961 . S
Li267 O326 1.970 . S
Li267 O327 1.956 . S
C268 C270 1.348 . S
C268 C271 1.356 . S
C268 O324 1.325 . S
N269 C272 1.314 . S
N269 C273 1.279 . S
C270 C268 1.348 . S
C270 C272 1.353 . S
C270 H328 0.929 . S
C271 C268 1.356 . S
C271 C273 1.358 . S
C271 H329 0.930 . S
C272 N269 1.314 . S
C272 C270 1.353 . S
C272 H330 0.930 . S
C273 N269 1.279 . S
C273 C271 1.358 . S
C273 H331 0.930 . S
C274 C277 1.348 . S
C274 C278 1.356 . S
C274 O325 1.325 . S
C275 N276 1.279 . S
C275 C278 1.358 . S
C275 H332 0.930 . S
N276 C275 1.279 . S
N276 C279 1.314 . S
C277 C274 1.348 . S
C277 C279 1.353 . S
C277 H333 0.929 . S
C278 C274 1.356 . S
C278 C275 1.358 . S
C278 H334 0.930 . S
C279 N276 1.314 . S
C279 C277 1.353 . S
C279 H335 0.930 . S
C280 N281 1.314 . S
C280 C285 1.353 . S
C280 H286 0.930 . S
N281 Li264 1.990 . S
N281 C280 1.314 . S
N281 C283 1.279 . S
C282 C283 1.358 . S
C282 C284 1.356 . S
C282 H336 0.930 . S
C283 N281 1.279 . S
C283 C282 1.358 . S
C283 H287 0.930 . S
C284 C282 1.356 . S
C284 C285 1.348 . S
C285 C280 1.353 . S
C285 C284 1.348 . S
C285 H337 0.929 . S
H286 C280 0.930 . S
H287 C283 0.930 . S
C288 N289 1.314 . S
C288 C290 1.353 . S
C288 H294 0.930 . S
N289 Li265 1.990 . S
N289 C288 1.314 . S
N289 C292 1.279 . S
C290 C288 1.353 . S
C290 C293 1.348 . S
C290 H338 0.929 . S
C291 C292 1.358 . S
C291 C293 1.356 . S
C291 H339 0.930 . S
C292 N289 1.279 . S
C292 C291 1.358 . S
C292 H295 0.930 . S
C293 C290 1.348 . S
C293 C291 1.356 . S
H294 C288 0.930 . S
H295 C292 0.930 . S
C296 C298 1.348 . S
C296 C299 1.356 . S
C296 O326 1.325 . S
N297 C300 1.312 1_556 S
N297 C301 1.279 1_556 S
C298 C296 1.348 . S
C298 C300 1.381 . S
C298 H340 0.929 . S
C299 C296 1.356 . S
C299 C301 1.358 . S
C299 H341 0.930 . S
C300 N297 1.312 1_554 S
C300 C298 1.381 . S
C300 H342 0.902 1_554 S
C301 N297 1.279 1_554 S
C301 C299 1.358 . S
C301 H343 0.930 . S
C302 C303 1.348 . S
C302 C304 1.356 . S
C302 O327 1.325 . S
C303 C302 1.348 . S
C303 C305 1.353 . S
C303 H344 0.929 . S
C304 C302 1.356 . S
C304 C306 1.358 . S
C304 H345 0.930 . S
C305 C303 1.353 . S
C305 N307 1.314 . S
C305 H346 0.930 . S
C306 C304 1.358 . S
C306 N307 1.279 . S
C306 H347 0.930 . S
N307 C305 1.314 . S
N307 C306 1.279 . S
C308 C310 1.353 . S
C308 N311 1.314 . S
C308 H314 0.930 . S
C309 N311 1.279 . S
C309 C312 1.358 . S
C309 H315 0.930 . S
C310 C308 1.353 . S
C310 C313 1.348 . S
C310 H348 0.929 . S
N311 Li266 1.990 . S
N311 C308 1.314 . S
N311 C309 1.279 . S
C312 C309 1.358 . S
C312 C313 1.356 . S
C312 H349 0.930 . S
C313 C310 1.348 . S
C313 C312 1.356 . S
H314 C308 0.930 . S
H315 C309 0.930 . S
C316 N317 1.314 . S
C316 C318 1.353 1_554 S
C316 H322 0.930 . S
N317 Li267 1.990 . S
N317 C316 1.314 . S
N317 C320 1.279 . S
C318 C316 1.353 1_556 S
C318 C321 1.348 . S
C318 H350 0.929 . S
C319 C320 1.358 . S
C319 C321 1.356 1_554 S
C319 H351 0.930 . S
C320 N317 1.279 . S
C320 C319 1.358 . S
C320 H323 0.930 . S
C321 C318 1.348 . S
C321 C319 1.356 1_556 S
H322 C316 0.930 . S
H323 C320 0.930 . S
O324 Li264 1.956 . S
O324 Li265 1.970 . S
O324 Li266 1.961 . S
O324 C268 1.325 . S
O325 Li264 1.970 . S
O325 Li265 1.956 . S
O325 Li267 1.961 . S
O325 C274 1.325 . S
O326 Li264 1.961 . S
O326 Li266 1.956 . S
O326 Li267 1.970 . S
O326 C296 1.325 . S
O327 Li265 1.961 . S
O327 Li266 1.970 . S
O327 Li267 1.956 . S
O327 C302 1.325 . S
H328 C270 0.929 . S
H329 C271 0.930 . S
H330 C272 0.930 . S
H331 C273 0.930 . S
H332 C275 0.930 . S
H333 C277 0.929 . S
H334 C278 0.930 . S
H335 C279 0.930 . S
H336 C282 0.930 . S
H337 C285 0.929 . S
H338 C290 0.929 . S
H339 C291 0.930 . S
H340 C298 0.929 . S
H341 C299 0.930 . S
H342 C300 0.902 1_556 S
H343 C301 0.930 . S
H344 C303 0.929 . S
H345 C304 0.930 . S
H346 C305 0.930 . S
H347 C306 0.930 . S
H348 C310 0.929 . S
H349 C312 0.930 . S
H350 C318 0.929 . S
H351 C319 0.930 . S
Li352 N369 1.990 . S
Li352 O412 1.956 . S
Li352 O413 1.970 . S
Li352 O414 1.961 . S
Li353 N377 1.990 . S
Li353 O412 1.970 . S
Li353 O413 1.956 . S
Li353 O415 1.961 . S
Li354 N399 1.990 . S
Li354 O412 1.961 . S
Li354 O414 1.956 . S
Li354 O415 1.970 . S
Li355 N405 1.990 . S
Li355 O413 1.961 . S
Li355 O414 1.970 . S
Li355 O415 1.956 . S
C356 C358 1.348 . S
C356 C359 1.356 . S
C356 O412 1.325 . S
N357 C360 1.314 . S
N357 C361 1.279 . S
C358 C356 1.348 . S
C358 C360 1.353 . S
C358 H416 0.929 . S
C359 C356 1.356 . S
C359 C361 1.358 . S
C359 H417 0.930 . S
C360 N357 1.314 . S
C360 C358 1.353 . S
C360 H418 0.930 . S
C361 N357 1.279 . S
C361 C359 1.358 . S
C361 H419 0.930 . S
C362 C365 1.348 . S
C362 C366 1.356 . S
C362 O413 1.325 . S
C363 N364 1.279 . S
C363 C366 1.358 . S
C363 H420 0.930 . S
N364 C363 1.279 . S
N364 C367 1.314 . S
C365 C362 1.348 . S
C365 C367 1.353 . S
C365 H421 0.929 . S
C366 C362 1.356 . S
C366 C363 1.358 . S
C366 H422 0.930 . S
C367 N364 1.314 . S
C367 C365 1.353 . S
C367 H423 0.930 . S
C368 N369 1.314 . S
C368 C373 1.353 . S
C368 H374 0.930 . S
N369 Li352 1.990 . S
N369 C368 1.314 . S
N369 C371 1.279 . S
C370 C371 1.358 . S
C370 C372 1.356 . S
C370 H424 0.930 . S
C371 N369 1.279 . S
C371 C370 1.358 . S
C371 H375 0.930 . S
C372 C370 1.356 . S
C372 C373 1.348 . S
C373 C368 1.353 . S
C373 C372 1.348 . S
C373 H425 0.929 . S
H374 C368 0.930 . S
H375 C371 0.930 . S
C376 N377 1.314 . S
C376 C378 1.353 . S
C376 H382 0.930 . S
N377 Li353 1.990 . S
N377 C376 1.314 . S
N377 C380 1.279 . S
C378 C376 1.353 . S
C378 C381 1.348 . S
C378 H426 0.929 . S
C379 C380 1.358 . S
C379 C381 1.356 . S
C379 H427 0.930 . S
C380 N377 1.279 . S
C380 C379 1.358 . S
C380 H383 0.930 . S
C381 C378 1.348 . S
C381 C379 1.356 . S
H382 C376 0.930 . S
H383 C380 0.930 . S
C384 C386 1.348 . S
C384 C387 1.356 . S
C384 O414 1.325 . S
N385 C388 1.314 . S
N385 C389 1.279 . S
C386 C384 1.348 . S
C386 C388 1.353 . S
C386 H428 0.929 . S
C387 C384 1.356 . S
C387 C389 1.358 . S
C387 H429 0.930 . S
C388 N385 1.314 . S
C388 C386 1.353 . S
C388 H430 0.930 . S
C389 N385 1.279 . S
C389 C387 1.358 . S
C389 H431 0.930 . S
C390 C391 1.348 . S
C390 C392 1.356 . S
C390 O415 1.325 . S
C391 C390 1.348 . S
C391 C393 1.353 . S
C391 H432 0.929 . S
C392 C390 1.356 . S
C392 C394 1.358 . S
C392 H433 0.930 . S
C393 C391 1.353 . S
C393 N395 1.314 . S
C393 H434 0.930 . S
C394 C392 1.358 . S
C394 N395 1.279 . S
C394 H435 0.930 . S
N395 C393 1.314 . S
N395 C394 1.279 . S
C396 C398 1.353 . S
C396 N399 1.314 . S
C396 H402 0.930 . S
C397 N399 1.279 . S
C397 C400 1.358 . S
C397 H403 0.930 . S
C398 C396 1.353 . S
C398 C401 1.348 . S
C398 H436 0.929 . S
N399 Li354 1.990 . S
N399 C396 1.314 . S
N399 C397 1.279 . S
C400 C397 1.358 . S
C400 C401 1.356 . S
C400 H437 0.930 . S
C401 C398 1.348 . S
C401 C400 1.356 . S
H402 C396 0.930 . S
H403 C397 0.930 . S
C404 N405 1.314 . S
C404 C406 1.353 . S
C404 H410 0.930 . S
N405 Li355 1.990 . S
N405 C404 1.314 . S
N405 C408 1.279 . S
C406 C404 1.353 . S
C406 C409 1.348 . S
C406 H438 0.929 . S
C407 C408 1.358 . S
C407 C409 1.356 . S
C407 H439 0.930 . S
C408 N405 1.279 . S
C408 C407 1.358 . S
C408 H411 0.930 . S
C409 C406 1.348 . S
C409 C407 1.356 . S
H410 C404 0.930 . S
H411 C408 0.930 . S
O412 Li352 1.956 . S
O412 Li353 1.970 . S
O412 Li354 1.961 . S
O412 C356 1.325 . S
O413 Li352 1.970 . S
O413 Li353 1.956 . S
O413 Li355 1.961 . S
O413 C362 1.325 . S
O414 Li352 1.961 . S
O414 Li354 1.956 . S
O414 Li355 1.970 . S
O414 C384 1.325 . S
O415 Li353 1.961 . S
O415 Li354 1.970 . S
O415 Li355 1.956 . S
O415 C390 1.325 . S
H416 C358 0.929 . S
H417 C359 0.930 . S
H418 C360 0.930 . S
H419 C361 0.930 . S
H420 C363 0.930 . S
H421 C365 0.929 . S
H422 C366 0.930 . S
H423 C367 0.930 . S
H424 C370 0.930 . S
H425 C373 0.929 . S
H426 C378 0.929 . S
H427 C379 0.930 . S
H428 C386 0.929 . S
H429 C387 0.930 . S
H430 C388 0.930 . S
H431 C389 0.930 . S
H432 C391 0.929 . S
H433 C392 0.930 . S
H434 C393 0.930 . S
H435 C394 0.930 . S
H436 C398 0.929 . S
H437 C400 0.930 . S
H438 C406 0.929 . S
H439 C407 0.930 . S
Li440 N457 1.990 . S
Li440 O500 1.956 . S
Li440 O501 1.970 . S
Li440 O502 1.961 . S
Li441 N465 1.990 . S
Li441 O500 1.970 . S
Li441 O501 1.956 . S
Li441 O503 1.961 . S
Li442 N487 1.990 . S
Li442 O500 1.961 . S
Li442 O502 1.956 . S
Li442 O503 1.970 . S
Li443 N493 1.990 . S
Li443 O501 1.961 . S
Li443 O502 1.970 . S
Li443 O503 1.956 . S
C444 C446 1.348 . S
C444 C447 1.356 . S
C444 O500 1.325 . S
N445 C448 1.314 . S
N445 C449 1.279 . S
C446 C444 1.348 . S
C446 C448 1.353 . S
C446 H504 0.929 . S
C447 C444 1.356 . S
C447 C449 1.358 . S
C447 H505 0.930 . S
C448 N445 1.314 . S
C448 C446 1.353 . S
C448 H506 0.930 . S
C449 N445 1.279 . S
C449 C447 1.358 . S
C449 H507 0.930 . S
C450 C453 1.348 . S
C450 C454 1.356 . S
C450 O501 1.325 . S
C451 N452 1.279 . S
C451 C454 1.358 . S
C451 H508 0.930 . S
N452 C451 1.279 . S
N452 C455 1.314 . S
C453 C450 1.348 . S
C453 C455 1.353 . S
C453 H509 0.929 . S
C454 C450 1.356 . S
C454 C451 1.358 . S
C454 H510 0.930 . S
C455 N452 1.314 . S
C455 C453 1.353 . S
C455 H511 0.930 . S
C456 N457 1.314 . S
C456 C461 1.353 . S
C456 H462 0.930 . S
N457 Li440 1.990 . S
N457 C456 1.314 . S
N457 C459 1.279 . S
C458 C459 1.358 . S
C458 C460 1.356 . S
C458 H512 0.930 . S
C459 N457 1.279 . S
C459 C458 1.358 . S
C459 H463 0.930 . S
C460 C458 1.356 . S
C460 C461 1.348 . S
C461 C456 1.353 . S
C461 C460 1.348 . S
C461 H513 0.929 . S
H462 C456 0.930 . S
H463 C459 0.930 . S
C464 N465 1.314 . S
C464 C466 1.353 . S
C464 H470 0.930 . S
N465 Li441 1.990 . S
N465 C464 1.314 . S
N465 C468 1.279 . S
C466 C464 1.353 . S
C466 C469 1.348 . S
C466 H514 0.929 . S
C467 C468 1.358 . S
C467 C469 1.356 . S
C467 H515 0.930 . S
C468 N465 1.279 . S
C468 C467 1.358 . S
C468 H471 0.930 . S
C469 C466 1.348 . S
C469 C467 1.356 . S
H470 C464 0.930 . S
H471 C468 0.930 . S
C472 C474 1.348 . S
C472 C475 1.356 . S
C472 O502 1.325 . S
N473 C476 1.314 . S
N473 C477 1.279 . S
C474 C472 1.348 . S
C474 C476 1.353 . S
C474 H516 0.929 . S
C475 C472 1.356 . S
C475 C477 1.358 . S
C475 H517 0.930 . S
C476 N473 1.314 . S
C476 C474 1.353 . S
C476 H518 0.930 . S
C477 N473 1.279 . S
C477 C475 1.358 . S
C477 H519 0.930 . S
C478 C479 1.348 . S
C478 C480 1.356 . S
C478 O503 1.325 . S
C479 C478 1.348 . S
C479 C481 1.353 . S
C479 H520 0.929 . S
C480 C478 1.356 . S
C480 C482 1.358 . S
C480 H521 0.930 . S
C481 C479 1.353 . S
C481 N483 1.314 . S
C481 H522 0.930 . S
C482 C480 1.358 . S
C482 N483 1.279 . S
C482 H523 0.930 . S
N483 C481 1.314 . S
N483 C482 1.279 . S
C484 C486 1.353 . S
C484 N487 1.314 . S
C484 H490 0.930 . S
C485 N487 1.279 . S
C485 C488 1.358 . S
C485 H491 0.930 . S
C486 C484 1.353 . S
C486 C489 1.348 . S
C486 H524 0.929 . S
N487 Li442 1.990 . S
N487 C484 1.314 . S
N487 C485 1.279 . S
C488 C485 1.358 . S
C488 C489 1.356 . S
C488 H525 0.930 . S
C489 C486 1.348 . S
C489 C488 1.356 . S
H490 C484 0.930 . S
H491 C485 0.930 . S
C492 N493 1.314 . S
C492 C494 1.353 . S
C492 H498 0.930 . S
N493 Li443 1.990 . S
N493 C492 1.314 . S
N493 C496 1.279 . S
C494 C492 1.353 . S
C494 C497 1.348 . S
C494 H526 0.929 . S
C495 C496 1.358 . S
C495 C497 1.356 . S
C495 H527 0.930 . S
C496 N493 1.279 . S
C496 C495 1.358 . S
C496 H499 0.930 . S
C497 C494 1.348 . S
C497 C495 1.356 . S
H498 C492 0.930 . S
H499 C496 0.930 . S
O500 Li440 1.956 . S
O500 Li441 1.970 . S
O500 Li442 1.961 . S
O500 C444 1.325 . S
O501 Li440 1.970 . S
O501 Li441 1.956 . S
O501 Li443 1.961 . S
O501 C450 1.325 . S
O502 Li440 1.961 . S
O502 Li442 1.956 . S
O502 Li443 1.970 . S
O502 C472 1.325 . S
O503 Li441 1.961 . S
O503 Li442 1.970 . S
O503 Li443 1.956 . S
O503 C478 1.325 . S
H504 C446 0.929 . S
H505 C447 0.930 . S
H506 C448 0.930 . S
H507 C449 0.930 . S
H508 C451 0.930 . S
H509 C453 0.929 . S
H510 C454 0.930 . S
H511 C455 0.930 . S
H512 C458 0.930 . S
H513 C461 0.929 . S
H514 C466 0.929 . S
H515 C467 0.930 . S
H516 C474 0.929 . S
H517 C475 0.930 . S
H518 C476 0.930 . S
H519 C477 0.930 . S
H520 C479 0.929 . S
H521 C480 0.930 . S
H522 C481 0.930 . S
H523 C482 0.930 . S
H524 C486 0.929 . S
H525 C488 0.930 . S
H526 C494 0.929 . S
H527 C495 0.930 . S
H528 C536 0.950 . S
H529 C541 0.950 . S
H530 C538 0.950 . S
H531 C540 0.950 . S
H532 C542 0.950 . S
H533 C544 0.950 . S
H534 C546 0.950 . S
H535 C547 0.950 . S
C536 H528 0.950 . S
C536 C537 1.386 . S
C536 C538 1.391 . S
C537 C536 1.386 . S
C537 C541 1.393 . S
C538 H530 0.950 . S
C538 C536 1.391 . S
C538 C539 1.400 . S
C539 C538 1.400 . S
C539 C540 1.398 . S
C539 C545 1.491 1_545 S
C540 H531 0.950 . S
C540 C539 1.398 . S
C540 C541 1.391 . S
C541 H529 0.950 . S
C541 C537 1.393 . S
C541 C540 1.391 . S
C542 H532 0.950 . S
C542 C543 1.386 . S
C542 C544 1.391 . S
C543 C542 1.386 . S
C543 C547 1.393 . S
C544 H533 0.950 . S
C544 C542 1.391 . S
C544 C545 1.400 . S
C545 C539 1.491 1_565 S
C545 C544 1.400 . S
C545 C546 1.398 . S
C546 H534 0.950 . S
C546 C545 1.398 . S
C546 C547 1.391 . S
C547 H535 0.950 . S
C547 C543 1.393 . S
C547 C546 1.391 . S
H548 C556 0.950 . S
H549 C561 0.950 . S
H550 C558 0.950 . S
H551 C560 0.950 . S
H552 C562 0.950 . S
H553 C564 0.950 . S
H554 C566 0.950 . S
H555 C567 0.950 . S
C556 H548 0.950 . S
C556 C557 1.386 . S
C556 C558 1.391 . S
C557 C556 1.386 . S
C557 C561 1.393 . S
C558 H550 0.950 . S
C558 C556 1.391 . S
C558 C559 1.400 . S
C559 C558 1.400 . S
C559 C560 1.398 . S
C559 C565 1.491 . S
C560 H551 0.950 . S
C560 C559 1.398 . S
C560 C561 1.391 . S
C561 H549 0.950 . S
C561 C557 1.393 . S
C561 C560 1.391 . S
C562 H552 0.950 . S
C562 C563 1.386 . S
C562 C564 1.391 . S
C563 C562 1.386 . S
C563 C567 1.393 . S
C564 H553 0.950 . S
C564 C562 1.391 . S
C564 C565 1.400 . S
C565 C559 1.491 . S
C565 C564 1.400 . S
C565 C566 1.398 . S
C566 H554 0.950 . S
C566 C565 1.398 . S
C566 C567 1.391 . S
C567 H555 0.950 . S
C567 C563 1.393 . S
C567 C566 1.391 . S
H568 C576 0.950 . S
H569 C581 0.950 . S
H570 C578 0.950 . S
H571 C580 0.950 . S
H572 C582 0.950 . S
H573 C584 0.950 . S
H574 C586 0.950 . S
H575 C587 0.950 . S
C576 H568 0.950 . S
C576 C577 1.386 . S
C576 C578 1.391 . S
C577 C576 1.386 . S
C577 C581 1.393 . S
C578 H570 0.950 . S
C578 C576 1.391 . S
C578 C579 1.400 . S
C579 C578 1.400 . S
C579 C580 1.398 . S
C579 C585 1.491 1_655 S
C580 H571 0.950 . S
C580 C579 1.398 . S
C580 C581 1.391 . S
C581 H569 0.950 . S
C581 C577 1.393 . S
C581 C580 1.391 . S
C582 H572 0.950 . S
C582 C583 1.386 . S
C582 C584 1.391 . S
C583 C582 1.386 . S
C583 C587 1.393 . S
C584 H573 0.950 . S
C584 C582 1.391 . S
C584 C585 1.400 . S
C585 C579 1.491 1_455 S
C585 C584 1.400 . S
C585 C586 1.398 . S
C586 H574 0.950 . S
C586 C585 1.398 . S
C586 C587 1.391 . S
C587 H575 0.950 . S
C587 C583 1.393 . S
C587 C586 1.391 . S
H588 C596 0.950 . S
H589 C601 0.950 . S
H590 C598 0.950 . S
H591 C600 0.950 . S
H592 C602 0.950 . S
H593 C604 0.950 . S
H594 C606 0.950 . S
H595 C607 0.950 . S
C596 H588 0.950 . S
C596 C597 1.386 . S
C596 C598 1.391 . S
C597 C596 1.386 . S
C597 C601 1.393 . S
C598 H590 0.950 . S
C598 C596 1.391 . S
C598 C599 1.400 . S
C599 C598 1.400 . S
C599 C600 1.398 . S
C599 C605 1.491 1_564 S
C600 H591 0.950 . S
C600 C599 1.398 . S
C600 C601 1.391 . S
C601 H589 0.950 . S
C601 C597 1.393 . S
C601 C600 1.391 . S
C602 H592 0.950 . S
C602 C603 1.386 . S
C602 C604 1.391 . S
C603 C602 1.386 . S
C603 C607 1.393 . S
C604 H593 0.950 . S
C604 C602 1.391 . S
C604 C605 1.400 . S
C605 C599 1.491 1_546 S
C605 C604 1.400 . S
C605 C606 1.398 . S
C606 H594 0.950 . S
C606 C605 1.398 . S
C606 C607 1.391 . S
C607 H595 0.950 . S
C607 C603 1.393 . S
C607 C606 1.391 . S
H608 C616 0.950 . S
H609 C621 0.950 . S
H610 C618 0.950 . S
H611 C620 0.950 . S
H612 C622 0.950 . S
H613 C624 0.950 . S
H614 C626 0.950 . S
H615 C627 0.950 . S
C616 H608 0.950 . S
C616 C617 1.386 . S
C616 C618 1.391 . S
C617 C616 1.386 . S
C617 C621 1.393 . S
C618 H610 0.950 . S
C618 C616 1.391 . S
C618 C619 1.400 . S
C619 C618 1.400 . S
C619 C620 1.398 . S
C619 C625 1.491 . S
C620 H611 0.950 . S
C620 C619 1.398 . S
C620 C621 1.391 . S
C621 H609 0.950 . S
C621 C617 1.393 . S
C621 C620 1.391 . S
C622 H612 0.950 . S
C622 C623 1.386 . S
C622 C624 1.391 . S
C623 C622 1.386 . S
C623 C627 1.393 . S
C624 H613 0.950 . S
C624 C622 1.391 . S
C624 C625 1.400 . S
C625 C619 1.491 . S
C625 C624 1.400 . S
C625 C626 1.398 . S
C626 H614 0.950 . S
C626 C625 1.398 . S
C626 C627 1.391 . S
C627 H615 0.950 . S
C627 C623 1.393 . S
C627 C626 1.391 . S
H628 C636 0.950 . S
H629 C641 0.950 . S
H630 C638 0.950 . S
H631 C640 0.950 . S
H632 C642 0.950 . S
H633 C644 0.950 . S
H634 C646 0.950 . S
H635 C647 0.950 . S
C636 H628 0.950 . S
C636 C637 1.386 . S
C636 C638 1.391 . S
C637 C636 1.386 . S
C637 C641 1.393 . S
C638 H630 0.950 . S
C638 C636 1.391 . S
C638 C639 1.400 . S
C639 C638 1.400 . S
C639 C640 1.398 . S
C639 C645 1.491 1_455 S
C640 H631 0.950 . S
C640 C639 1.398 . S
C640 C641 1.391 . S
C641 H629 0.950 . S
C641 C637 1.393 . S
C641 C640 1.391 . S
C642 H632 0.950 . S
C642 C643 1.386 . S
C642 C644 1.391 . S
C643 C642 1.386 . S
C643 C647 1.393 . S
C644 H633 0.950 . S
C644 C642 1.391 . S
C644 C645 1.400 . S
C645 C639 1.491 1_655 S
C645 C644 1.400 . S
C645 C646 1.398 . S
C646 H634 0.950 . S
C646 C645 1.398 . S
C646 C647 1.391 . S
C647 H635 0.950 . S
C647 C643 1.393 . S
C647 C646 1.391 . S
H648 C656 0.950 . S
H649 C661 0.950 . S
H650 C658 0.950 . S
H651 C660 0.950 . S
H652 C662 0.950 . S
H653 C664 0.950 . S
H654 C666 0.950 . S
H655 C667 0.950 . S
C656 H648 0.950 . S
C656 C657 1.386 . S
C656 C658 1.391 . S
C657 C656 1.386 . S
C657 C661 1.393 . S
C658 H650 0.950 . S
C658 C656 1.391 . S
C658 C659 1.400 . S
C659 C658 1.400 . S
C659 C660 1.398 . S
C659 C665 1.491 . S
C660 H651 0.950 . S
C660 C659 1.398 . S
C660 C661 1.391 . S
C661 H649 0.950 . S
C661 C657 1.393 . S
C661 C660 1.391 . S
C662 H652 0.950 . S
C662 C663 1.386 . S
C662 C664 1.391 . S
C663 C662 1.386 . S
C663 C667 1.393 . S
C664 H653 0.950 . S
C664 C662 1.391 . S
C664 C665 1.400 . S
C665 C659 1.491 . S
C665 C664 1.400 . S
C665 C666 1.398 . S
C666 H654 0.950 . S
C666 C665 1.398 . S
C666 C667 1.391 . S
C667 H655 0.950 . S
C667 C663 1.393 . S
C667 C666 1.391 . S
H668 C676 0.950 . S
H669 C681 0.950 . S
H670 C678 0.950 . S
H671 C680 0.950 . S
H672 C682 0.950 . S
H673 C684 0.950 . S
H674 C686 0.950 . S
H675 C687 0.950 . S
C676 H668 0.950 . S
C676 C677 1.386 . S
C676 C678 1.391 . S
C677 C676 1.386 . S
C677 C681 1.393 . S
C678 H670 0.950 . S
C678 C676 1.391 . S
C678 C679 1.400 . S
C679 C678 1.400 . S
C679 C680 1.398 . S
C679 C685 1.491 . S
C680 H671 0.950 . S
C680 C679 1.398 . S
C680 C681 1.391 . S
C681 H669 0.950 . S
C681 C677 1.393 . S
C681 C680 1.391 . S
C682 H672 0.950 . S
C682 C683 1.386 . S
C682 C684 1.391 . S
C683 C682 1.386 . S
C683 C687 1.393 . S
C684 H673 0.950 . S
C684 C682 1.391 . S
C684 C685 1.400 . S
C685 C679 1.491 . S
C685 C684 1.400 . S
C685 C686 1.398 . S
C686 H674 0.950 . S
C686 C685 1.398 . S
C686 C687 1.391 . S
C687 H675 0.950 . S
C687 C683 1.393 . S
C687 C686 1.391 . S
H688 C696 0.950 . S
H689 C701 0.950 . S
H690 C698 0.950 . S
H691 C700 0.950 . S
H692 C702 0.950 . S
H693 C704 0.950 . S
H694 C706 0.950 . S
H695 C707 0.950 . S
C696 H688 0.950 . S
C696 C697 1.386 . S
C696 C698 1.391 . S
C697 C696 1.386 . S
C697 C701 1.393 . S
C698 H690 0.950 . S
C698 C696 1.391 . S
C698 C699 1.400 . S
C699 C698 1.400 . S
C699 C700 1.398 . S
C699 C705 1.491 . S
C700 H691 0.950 . S
C700 C699 1.398 . S
C700 C701 1.391 . S
C701 H689 0.950 . S
C701 C697 1.393 . S
C701 C700 1.391 . S
C702 H692 0.950 . S
C702 C703 1.386 . S
C702 C704 1.391 . S
C703 C702 1.386 . S
C703 C707 1.393 . S
C704 H693 0.950 . S
C704 C702 1.391 . S
C704 C705 1.400 . S
C705 C699 1.491 . S
C705 C704 1.400 . S
C705 C706 1.398 . S
C706 H694 0.950 . S
C706 C705 1.398 . S
C706 C707 1.391 . S
C707 H695 0.950 . S
C707 C703 1.393 . S
C707 C706 1.391 . S
H708 C716 0.950 . S
H709 C721 0.950 . S
H710 C718 0.950 . S
H711 C720 0.950 . S
H712 C722 0.950 . S
H713 C724 0.950 . S
H714 C726 0.950 . S
H715 C727 0.950 . S
C716 H708 0.950 . S
C716 C717 1.386 . S
C716 C718 1.391 . S
C717 C716 1.386 . S
C717 C721 1.393 . S
C718 H710 0.950 . S
C718 C716 1.391 . S
C718 C719 1.400 . S
C719 C718 1.400 . S
C719 C720 1.398 . S
C719 C725 1.491 . S
C720 H711 0.950 . S
C720 C719 1.398 . S
C720 C721 1.391 . S
C721 H709 0.950 . S
C721 C717 1.393 . S
C721 C720 1.391 . S
C722 H712 0.950 . S
C722 C723 1.386 . S
C722 C724 1.391 . S
C723 C722 1.386 . S
C723 C727 1.393 . S
C724 H713 0.950 . S
C724 C722 1.391 . S
C724 C725 1.400 . S
C725 C719 1.491 . S
C725 C724 1.400 . S
C725 C726 1.398 . S
C726 H714 0.950 . S
C726 C725 1.398 . S
C726 C727 1.391 . S
C727 H715 0.950 . S
C727 C723 1.393 . S
C727 C726 1.391 . S
H728 C736 0.950 . S
H729 C741 0.950 . S
H730 C738 0.950 . S
H731 C740 0.950 . S
H732 C742 0.950 . S
H733 C744 0.950 . S
H734 C746 0.950 . S
H735 C747 0.950 . S
C736 H728 0.950 . S
C736 C737 1.386 . S
C736 C738 1.391 . S
C737 C736 1.386 . S
C737 C741 1.393 . S
C738 H730 0.950 . S
C738 C736 1.391 . S
C738 C739 1.400 . S
C739 C738 1.400 . S
C739 C740 1.398 . S
C739 C745 1.491 . S
C740 H731 0.950 . S
C740 C739 1.398 . S
C740 C741 1.391 . S
C741 H729 0.950 . S
C741 C737 1.393 . S
C741 C740 1.391 . S
C742 H732 0.950 . S
C742 C743 1.386 . S
C742 C744 1.391 . S
C743 C742 1.386 . S
C743 C747 1.393 . S
C744 H733 0.950 . S
C744 C742 1.391 . S
C744 C745 1.400 . S
C745 C739 1.491 . S
C745 C744 1.400 . S
C745 C746 1.398 . S
C746 H734 0.950 . S
C746 C745 1.398 . S
C746 C747 1.391 . S
C747 H735 0.950 . S
C747 C743 1.393 . S
C747 C746 1.391 . S
H748 C756 0.950 . S
H749 C761 0.950 . S
H750 C758 0.950 . S
H751 C760 0.950 . S
H752 C762 0.950 . S
H753 C764 0.950 . S
H754 C766 0.950 . S
H755 C767 0.950 . S
C756 H748 0.950 . S
C756 C757 1.386 . S
C756 C758 1.391 . S
C757 C756 1.386 . S
C757 C761 1.393 . S
C758 H750 0.950 . S
C758 C756 1.391 . S
C758 C759 1.400 . S
C759 C758 1.400 . S
C759 C760 1.398 . S
C759 C765 1.491 . S
C760 H751 0.950 . S
C760 C759 1.398 . S
C760 C761 1.391 . S
C761 H749 0.950 . S
C761 C757 1.393 . S
C761 C760 1.391 . S
C762 H752 0.950 . S
C762 C763 1.386 . S
C762 C764 1.391 . S
C763 C762 1.386 . S
C763 C767 1.393 . S
C764 H753 0.950 . S
C764 C762 1.391 . S
C764 C765 1.400 . S
C765 C759 1.491 . S
C765 C764 1.400 . S
C765 C766 1.398 . S
C766 H754 0.950 . S
C766 C765 1.398 . S
C766 C767 1.391 . S
C767 H755 0.950 . S
C767 C763 1.393 . S
C767 C766 1.391 . S
C537 C20 1.352 . S
C543 C489 1.350 . S
C557 C49 1.353 . S
C563 C117 1.349 . S
C577 C196 1.350 . S
C583 C145 1.352 . S
C597 C284 1.349 . S
C603 C225 1.349 . S
C617 C372 1.347 . S
C623 C313 1.352 . S
C637 C460 1.348 . S
C643 C401 1.350 . S
C657 C57 1.592 . S
C663 C381 1.592 . S
C677 C469 1.588 . S
C683 C137 1.588 . S
C697 C233 1.588 . S
C703 C29 1.589 . S
C717 C108 1.592 . S
C723 C321 1.591 . S
C737 C205 1.592 . S
C743 C409 1.592 . S
C757 C497 1.590 . S
C763 C293 1.591 . S
