# Generated by pormake.
# Topology kag, (6)-cn, num edge types: 1
# Building blocks:
#     Node 0, Type 0, BuildingBlock: BETDIP_clean_sbu_0, # of connection points: 6
#     Node 1, Type 0, BuildingBlock: BETDIP_clean_sbu_0, # of connection points: 6
#     Node 2, Type 0, BuildingBlock: BETDIP_clean_sbu_0, # of connection points: 6
#     Edge 3, Type (0, 0), BuildingBlock: UVAHIK_clean_linker_0, # of connection points: 2
#     Edge 4, Type (0, 0), BuildingBlock: UVAHIK_clean_linker_0, # of connection points: 2
#     Edge 5, Type (0, 0), BuildingBlock: UVAHIK_clean_linker_0, # of connection points: 2
#     Edge 6, Type (0, 0), BuildingBlock: UVAHIK_clean_linker_0, # of connection points: 2
#     Edge 7, Type (0, 0), BuildingBlock: UVAHIK_clean_linker_0, # of connection points: 2
#     Edge 8, Type (0, 0), BuildingBlock: UVAHIK_clean_linker_0, # of connection points: 2
#     Edge 9, Type (0, 0), BuildingBlock: UVAHIK_clean_linker_0, # of connection points: 2
#     Edge 10, Type (0, 0), BuildingBlock: UVAHIK_clean_linker_0, # of connection points: 2
#     Edge 11, Type (0, 0), BuildingBlock: UVAHIK_clean_linker_0, # of connection points: 2
# Relax obj value: 0.013
# Max RMSD: 0.069
# Mean RMSD: 0.060
data_MOF--net-kag--node1-BETDIP_clean_sbu_0--edge1-UVAHIK_clean_linker_0
_symmetry_space_group_name_H-M    P1
_symmetry_Int_Tables_number       1
_symmetry_cell_setting            triclinic
loop_
_symmetry_equiv_pos_as_xyz
'x, y, z'
_cell_length_a     49.788597
_cell_length_b     49.815977
_cell_length_c     18.80292
_cell_angle_alpha  92.75345
_cell_angle_beta   91.760679
_cell_angle_gamma 119.95913
loop_
_atom_site_label
_atom_site_type_symbol
_atom_site_fract_x
_atom_site_fract_y
_atom_site_fract_z
_atom_type_partial_charge
Tb0 Tb 1.01069 0.4847 0.02107 0.0
Tb1 Tb 0.04487 0.55246 0.99568 0.0
C2 C 0.97729 0.4328 0.0707 0.0
C3 C 0.94454 0.40789 0.06888 0.0
C4 C 0.9343 0.38903 0.12631 0.0
C5 C 0.90413 0.3636 0.12398 0.0
C6 C 0.88351 0.35638 0.06386 0.0
C7 C 0.89357 0.376 1.00717 0.0
C8 C 0.92383 0.40156 0.00968 0.0
C9 C 1.02097 0.49699 0.88622 0.0
C10 C 0.97276 0.52015 0.99581 0.0
C11 C 0.07881 0.60498 0.94942 0.0
C12 C 0.11154 0.63063 0.95627 0.0
C13 C 0.13586 0.62709 0.93013 0.0
C14 C 0.16627 0.65242 0.93369 0.0
C15 C 0.17299 0.68172 0.96368 0.0
C16 C 0.14866 0.68502 0.99045 0.0
C17 C 0.11832 0.65983 0.9865 0.0
C18 C 0.03464 0.53986 0.13057 0.0
C19 C 0.08278 0.51682 0.01895 0.0
O20 O 0.98443 0.45935 0.1044 0.0
O21 O 0.99128 0.4364 0.0112 0.0
O22 O 1.01387 0.51129 0.9319 0.0
O23 O 1.01966 0.4731 0.91386 0.0
O24 O 0.97332 0.49625 0.02244 0.0
O25 O 0.99787 0.54308 0.97073 0.0
O26 O 0.07261 0.57874 0.91544 0.0
O27 O 0.06291 0.60064 1.00607 0.0
O28 O 0.04188 0.52585 0.08452 0.0
O29 O 0.03566 0.56365 0.10319 0.0
O30 O 0.08223 0.54093 0.99349 0.0
O31 O 0.05771 0.4937 0.04366 0.0
H32 H 0.94988 0.39365 0.17263 0.0
H33 H 0.89703 0.34945 0.16922 0.0
H34 H 0.87843 0.37107 0.95987 0.0
H35 H 0.93126 0.41591 0.96479 0.0
H36 H 0.13142 0.60491 0.90633 0.0
H37 H 0.18453 0.64904 0.91316 0.0
H38 H 0.1529 0.70733 0.01292 0.0
H39 H 0.09999 0.66331 1.00629 0.0
Tb40 Tb 0.54508 1.00198 0.0225 0.0
Tb41 Tb 0.51088 0.03535 0.98807 0.0
C42 C 0.56293 0.96739 0.07438 0.0
C43 C 0.55541 0.93466 0.06396 0.0
C44 C 0.54936 0.91682 0.1232 0.0
C45 C 0.54416 0.88646 0.11548 0.0
C46 C 0.54515 0.87338 0.04831 0.0
C47 C 0.55063 0.89108 0.98876 0.0
C48 C 0.55559 0.92135 0.99641 0.0
C49 C 0.54268 1.01209 0.88635 0.0
C50 C 0.47151 0.96344 0.98596 0.0
C51 C 0.49293 0.06994 0.93658 0.0
C52 C 0.50031 0.10262 0.94736 0.0
C53 C 0.506 0.12047 0.88824 0.0
C54 C 0.51103 0.15075 0.89632 0.0
C55 C 0.51021 0.16376 0.96376 0.0
C56 C 0.5051 0.14604 0.02318 0.0
C57 C 0.50032 0.11585 0.01516 0.0
C58 C 0.51334 0.02514 0.12423 0.0
C59 C 0.58452 0.07383 0.0245 0.0
O60 O 0.54184 0.97234 0.10209 0.0
O61 O 0.57616 0.98524 0.02257 0.0
O62 O 0.52129 1.00477 0.92824 0.0
O63 O 0.56536 1.01095 0.91854 0.0
O64 O 0.4962 0.96458 0.01785 0.0
O65 O 0.47336 0.98821 0.95837 0.0
O66 O 0.51411 0.06514 0.90884 0.0
O67 O 0.4797 0.05196 0.9882 0.0
O68 O 0.53468 0.03259 0.08217 0.0
O69 O 0.49061 0.02623 0.09214 0.0
O70 O 0.55985 0.0728 0.99273 0.0
O71 O 0.58259 0.04903 0.05207 0.0
H72 H 0.5492 0.92659 0.17583 0.0
H73 H 0.54027 0.87356 0.16251 0.0
H74 H 0.55112 0.88154 0.93615 0.0
H75 H 0.55998 0.93442 0.94955 0.0
H76 H 0.50601 0.11075 0.83542 0.0
H77 H 0.51463 0.16365 0.84938 0.0
H78 H 0.50476 0.15552 0.07598 0.0
H79 H 0.49621 0.10276 0.06193 0.0
Tb80 Tb 0.49362 0.50147 0.02277 0.0
Tb81 Tb 0.56136 0.53563 0.99647 0.0
C82 C 0.44128 0.48296 0.07271 0.0
C83 C 0.41613 0.49043 0.07001 0.0
C84 C 0.39489 0.48068 0.12342 0.0
C85 C 0.36946 0.48537 0.11963 0.0
C86 C 0.36462 0.49984 0.06204 0.0
C87 C 0.38656 0.51045 0.00955 0.0
C88 C 0.41211 0.5058 0.01353 0.0
C89 C 0.50615 0.50342 0.88687 0.0
C90 C 0.52863 0.57485 1.00731 0.0
C91 C 0.61425 0.55483 0.94902 0.0
C92 C 0.64061 0.54904 0.95464 0.0
C93 C 0.63669 0.51914 0.94347 0.0
C94 C 0.66249 0.51487 0.94686 0.0
C95 C 0.69271 0.54041 0.96138 0.0
C96 C 0.69633 0.57017 0.97357 0.0
C97 C 0.67063 0.5744 0.97003 0.0
C98 C 0.54856 0.53339 0.1324 0.0
C99 C 0.52614 0.46209 0.01034 0.0
O100 O 0.46753 0.50357 0.10657 0.0
O101 O 0.44552 0.47124 0.01326 0.0
O102 O 0.52026 0.52496 0.93503 0.0
O103 O 0.48231 0.48074 0.91283 0.0
O104 O 0.50507 0.55037 0.03292 0.0
O105 O 0.55144 0.57274 0.97824 0.0
O106 O 0.58835 0.53337 0.91524 0.0
O107 O 0.60933 0.56715 1.0065 0.0
O108 O 0.53473 0.512 0.0839 0.0
O109 O 0.57234 0.55619 0.10671 0.0
O110 O 0.54985 0.4867 0.98543 0.0
O111 O 0.50323 0.46405 0.03932 0.0
H112 H 0.39771 0.46894 0.16763 0.0
H113 H 0.35347 0.47748 0.16178 0.0
H114 H 0.38351 0.52149 0.96422 0.0
H115 H 0.42833 0.5136 0.9718 0.0
H116 H 0.6138 0.49914 0.93143 0.0
H117 H 0.65882 0.49167 0.93664 0.0
H118 H 0.7191 0.59031 0.98626 0.0
H119 H 0.67424 0.59766 0.97903 0.0
C120 C 0.02913 0.48316 0.76231 0.0
C121 C 1.02359 0.50238 0.80936 0.0
C122 C 0.03058 0.48735 0.68917 0.0
C123 C 1.00624 0.52152 0.54781 0.0
H124 H 0.06672 0.51257 0.43964 0.0
C125 C 1.02633 0.5533 0.25462 0.0
C126 C 0.03212 0.53434 0.20738 0.0
C127 C 1.0249 0.549 0.32769 0.0
C128 C 0.0494 0.51476 0.46879 0.0
H129 H 1.01566 0.54136 0.81701 0.0
H130 H 1.01848 0.54895 0.68928 0.0
H131 H 0.06577 0.50669 0.56767 0.0
H132 H 0.0406 0.49572 0.19935 0.0
H133 H 0.03774 0.48785 0.32697 0.0
H134 H 0.98984 0.52954 0.44896 0.0
C135 C 1.02129 0.53033 0.70868 0.0
C136 C 0.04889 0.51143 0.54236 0.0
C137 C 1.01989 0.52615 0.78194 0.0
C138 C 0.03614 0.51072 0.23456 0.0
C139 C 0.03472 0.50639 0.30777 0.0
C140 C 1.00673 0.52482 0.47424 0.0
C141 C 1.02651 0.51088 0.66124 0.0
C142 C 1.02731 0.51479 0.58291 0.0
C143 C 0.02922 0.52558 0.3554 0.0
C144 C 0.02835 0.52152 0.43368 0.0
H145 H 0.03204 0.46462 0.78193 0.0
H146 H 0.03427 0.4717 0.6543 0.0
H147 H 0.98894 0.52373 0.57698 0.0
H148 H 1.02319 0.57174 0.2352 0.0
H149 H 1.02103 0.56448 0.36268 0.0
C150 C 0.54377 0.02614 0.23424 0.0
C151 C 0.51629 0.02259 0.20176 0.0
C152 C 0.54665 0.02476 0.30816 0.0
C153 C 0.50023 0.99754 0.46727 0.0
H154 H 0.57774 0.0565 0.5716 0.0
C155 C 0.51239 1.01118 0.7762 0.0
C156 C 0.53982 1.01465 0.80879 0.0
C157 C 0.50956 1.01254 0.70227 0.0
C158 C 0.55602 0.03965 0.54325 0.0
H159 H 0.47019 1.01443 0.22072 0.0
H160 H 0.47525 1.01231 0.34943 0.0
H161 H 0.57281 0.0572 0.44239 0.0
H162 H 0.58589 0.02269 0.79003 0.0
H163 H 0.58092 0.02481 0.66127 0.0
H164 H 0.48344 0.97999 0.56813 0.0
C165 C 0.4945 1.01583 0.31809 0.0
C166 C 0.55321 0.04002 0.46905 0.0
C167 C 0.49165 1.01722 0.24433 0.0
C168 C 0.56447 0.01995 0.76633 0.0
C169 C 0.56168 0.02135 0.69255 0.0
C170 C 0.50304 0.99717 0.54146 0.0
C171 C 0.52209 0.01974 0.35111 0.0
C172 C 0.52527 0.01898 0.43005 0.0
C173 C 0.53412 1.01749 0.65942 0.0
C174 C 0.53097 1.01821 0.58046 0.0
H175 H 0.5631 0.0302 0.20262 0.0
H176 H 0.56808 0.02745 0.33161 0.0
H177 H 0.47851 0.98069 0.43892 0.0
H178 H 0.49305 1.00718 0.80774 0.0
H179 H 0.48817 1.0099 0.67874 0.0
C180 C 0.49216 0.48144 0.76019 0.0
C181 C 0.5115 0.5062 0.80995 0.0
C182 C 0.49625 0.48424 0.68709 0.0
C183 C 0.5534 0.53029 0.55722 0.0
H184 H 0.4805 0.49652 0.42603 0.0
C185 C 0.5623 0.55511 0.25924 0.0
C186 C 0.54312 0.53038 0.20926 0.0
C187 C 0.55816 0.55215 0.33228 0.0
C188 C 0.50111 0.50578 0.46179 0.0
H189 H 0.55059 0.55319 0.82248 0.0
H190 H 0.55768 0.55826 0.69471 0.0
H191 H 0.4743 0.4914 0.55365 0.0
H192 H 0.5043 0.48326 0.19626 0.0
H193 H 0.49709 0.47792 0.32398 0.0
H194 H 0.58021 0.5447 0.46536 0.0
C195 C 0.53948 0.53652 0.71208 0.0
C196 C 0.49756 0.50283 0.53508 0.0
C197 C 0.53535 0.5337 0.78529 0.0
C198 C 0.51939 0.50273 0.23364 0.0
C199 C 0.5152 0.49975 0.3068 0.0
C200 C 0.55695 0.53325 0.48394 0.0
C201 C 0.51983 0.51189 0.66195 0.0
C202 C 0.52366 0.51505 0.58381 0.0
C203 C 0.53471 0.52436 0.35714 0.0
C204 C 0.53085 0.52106 0.43522 0.0
H205 H 0.47368 0.45989 0.77771 0.0
H206 H 0.48103 0.46461 0.65026 0.0
H207 H 0.57402 0.53955 0.59295 0.0
H208 H 0.58068 0.57678 0.24194 0.0
H209 H 0.57327 0.57176 0.36929 0.0
C210 C 0.11334 0.49069 0.04798 0.0
C211 C 0.1124 0.51633 0.02266 0.0
C212 C 0.141 0.48982 0.05036 0.0
C213 C 0.22648 0.5396 0.05238 0.0
H214 H 0.22312 0.462 0.9964 0.0
C215 C 0.3375 0.5296 0.03106 0.0
C216 C 0.33624 0.5028 0.05582 0.0
C217 C 0.31066 0.53202 0.0251 0.0
C218 C 0.22448 0.48379 0.013 0.0
H219 H 0.14008 0.56133 0.98035 0.0
H220 H 0.18832 0.55972 0.98435 0.0
H221 H 0.17572 0.46487 0.99016 0.0
H222 H 0.30539 0.45731 0.09254 0.0
H223 H 0.25904 0.46184 0.08392 0.0
H224 H 0.27528 0.55844 0.07576 0.0
C225 C 0.16766 0.54037 1.00288 0.0
C226 C 0.19725 0.48543 0.00937 0.0
C227 C 0.13992 0.54121 1.00026 0.0
C228 C 0.30742 0.4785 0.07425 0.0
C229 C 0.28067 0.48091 0.06833 0.0
C230 C 0.25377 0.53794 0.05618 0.0
C231 C 0.16851 0.51458 0.02762 0.0
C232 C 0.19782 0.51327 0.02954 0.0
C233 C 0.28185 0.50766 0.04352 0.0
C234 C 0.25309 0.50992 0.03709 0.0
H235 H 0.09267 0.47113 0.06584 0.0
H236 H 0.14089 0.46979 0.07075 0.0
H237 H 0.22773 0.56133 0.06902 0.0
H238 H 0.3593 0.54888 0.01691 0.0
H239 H 0.31243 0.55285 1.00522 0.0
C240 C 0.61708 0.13052 1.00391 0.0
C241 C 0.6146 0.10356 0.0309 0.0
C242 C 0.64569 0.15824 1.00771 0.0
C243 C 0.73027 0.18788 0.026 0.0
H244 H 0.73603 0.2672 0.07462 0.0
C245 C 0.84835 0.30013 0.08501 0.0
C246 C 0.85216 0.32786 0.05956 0.0
C247 C 0.81916 0.27322 0.08086 0.0
C248 C 0.73479 0.24529 0.06008 0.0
H249 H 0.64033 0.08486 0.08396 0.0
H250 H 0.69005 0.13316 0.09101 0.0
H251 H 0.68555 0.21957 0.06954 0.0
H252 H 0.82793 0.34886 0.01001 0.0
H253 H 0.777 0.30164 1.00148 0.0
H254 H 0.77939 0.21346 0.01628 0.0
C255 C 0.66995 0.13279 0.06607 0.0
C256 C 0.70583 0.21796 0.05725 0.0
C257 C 0.64135 0.10511 0.06245 0.0
C258 C 0.82592 0.32789 0.02965 0.0
C259 C 0.79664 0.30088 0.02548 0.0
C260 C 0.75917 0.21516 0.02869 0.0
C261 C 0.67255 0.15967 0.03835 0.0
C262 C 0.70324 0.18889 0.04058 0.0
C263 C 0.7929 0.27316 0.05089 0.0
C264 C 0.76187 0.24423 0.0462 0.0
H265 H 0.59698 0.1302 0.97913 0.0
H266 H 0.64688 0.17839 0.98522 0.0
H267 H 0.72907 0.16598 0.0116 0.0
H268 H 0.86805 0.29905 0.10745 0.0
H269 H 0.81715 0.25246 0.1018 0.0
C270 C 0.56132 0.83614 0.99897 0.0
C271 C 0.54148 0.84178 0.0408 0.0
C272 C 0.55863 0.80677 0.99355 0.0
C273 C 0.5265 0.73323 0.08455 0.0
H274 H 0.54104 0.70142 0.90644 0.0
C275 C 0.50571 0.60811 0.04265 0.0
C276 C 0.52867 0.6047 0.00835 0.0
C277 C 0.5062 0.63649 0.04514 0.0
C278 C 0.53715 0.71008 0.95673 0.0
H279 H 0.50275 0.82069 0.10842 0.0
H280 H 0.49765 0.76931 0.09812 0.0
H281 H 0.54341 0.75156 0.91302 0.0
H282 H 0.56998 0.62853 0.94913 0.0
H283 H 0.57076 0.67792 0.95347 0.0
H284 H 0.52006 0.69158 0.12799 0.0
C285 C 0.5158 0.78776 0.0707 0.0
C286 C 0.53857 0.73889 0.9606 0.0
C287 C 0.51865 0.81722 0.07649 0.0
C288 C 0.55191 0.63027 0.97596 0.0
C289 C 0.55227 0.65858 0.97808 0.0
C290 C 0.52491 0.70433 0.08052 0.0
C291 C 0.53588 0.78216 0.02946 0.0
C292 C 0.53345 0.75099 0.0247 0.0
C293 C 0.52952 0.66209 0.01302 0.0
C294 C 0.53039 0.69248 0.01669 0.0
H295 H 0.57948 0.85468 0.97169 0.0
H296 H 0.57488 0.80359 0.96237 0.0
H297 H 0.52294 0.74194 0.13515 0.0
H298 H 0.48742 0.58892 0.06807 0.0
H299 H 0.48813 0.6383 0.07178 0.0
C300 C 0.94191 0.54535 0.9612 0.0
C301 C 0.94314 0.52062 0.99106 0.0
C302 C 0.9143 0.54631 0.95806 0.0
C303 C 0.82883 0.49742 0.96607 0.0
H304 H 0.83383 0.57698 1.00517 0.0
C305 C 0.71987 0.51088 0.99393 0.0
C306 C 0.72048 0.53637 0.96311 0.0
C307 C 0.74643 0.50789 0.99738 0.0
C308 C 0.83201 0.55461 0.99336 0.0
H309 H 0.916 0.47728 0.04054 0.0
H310 H 0.86791 0.47914 0.03569 0.0
H311 H 0.88102 0.57376 0.01142 0.0
H312 H 0.74934 0.57797 0.90909 0.0
H313 H 0.79543 0.57285 0.91548 0.0
H314 H 0.77967 0.47833 0.94825 0.0
C315 C 0.88827 0.49766 0.01397 0.0
C316 C 0.85913 0.55276 0.99689 0.0
C317 C 0.91593 0.49668 0.0171 0.0
C318 C 0.74815 0.55842 0.93471 0.0
C319 C 0.77464 0.55548 0.93831 0.0
C320 C 0.80164 0.49927 0.96267 0.0
C321 C 0.88714 0.5226 0.9848 0.0
C322 C 0.85797 0.52421 0.98274 0.0
C323 C 0.77424 0.53034 0.97023 0.0
C324 C 0.80293 0.52796 0.97571 0.0
H325 H 0.96232 0.56413 0.9403 0.0
H326 H 0.91422 0.56561 0.93407 0.0
H327 H 0.82706 0.4751 0.9541 0.0
H328 H 0.69909 0.49361 0.01695 0.0
H329 H 0.74537 0.48838 0.02287 0.0
C330 C 0.22315 0.71489 0.90632 0.0
C331 C 0.20503 0.70904 0.96576 0.0
C332 C 0.25259 0.74149 0.90704 0.0
C333 C 0.3163 0.80206 0.02873 0.0
H334 H 0.33943 0.84961 0.86149 0.0
C335 C 0.43944 0.90697 0.00805 0.0
C336 C 0.44162 0.93352 0.9794 0.0
C337 C 0.41111 0.87901 1.00432 0.0
C338 C 0.33327 0.83668 0.90875 0.0
H339 H 0.20412 0.72618 0.07334 0.0
H340 H 0.25527 0.77261 0.07443 0.0
H341 H 0.28915 0.80191 0.85998 0.0
H342 H 0.41561 0.95125 0.92358 0.0
H343 H 0.36616 0.90251 0.91747 0.0
H344 H 0.3601 0.8371 0.07806 0.0
C345 C 0.24679 0.7566 0.02727 0.0
C346 C 0.30459 0.80914 0.90761 0.0
C347 C 0.21733 0.73012 0.0264 0.0
C348 C 0.41483 0.93127 0.94607 0.0
C349 C 0.38647 0.90326 0.94223 0.0
C350 C 0.34501 0.82951 0.02978 0.0
C351 C 0.26471 0.76277 0.9674 0.0
C352 C 0.29567 0.79156 0.96773 0.0
C353 C 0.3842 0.87683 0.97179 0.0
C354 C 0.35383 0.84726 0.96993 0.0
H355 H 0.21428 0.69927 0.85853 0.0
H356 H 0.2659 0.74536 0.8603 0.0
H357 H 0.31032 0.78896 0.07573 0.0
H358 H 0.45959 0.90776 0.0339 0.0
H359 H 0.41033 0.85902 0.0267 0.0
C360 C 0.50305 0.40666 0.04163 0.0
C361 C 0.52597 0.43215 0.00839 0.0
C362 C 0.50261 0.3783 0.03879 0.0
C363 C 0.52914 0.33238 0.93368 0.0
H364 H 0.51195 0.28527 0.10119 0.0
C365 C 0.53623 0.2199 0.9356 0.0
C366 C 0.5137 0.19527 0.9717 0.0
C367 C 0.53889 0.24928 0.94177 0.0
C368 C 0.51642 0.29791 0.05362 0.0
H369 H 0.56644 0.44766 0.94607 0.0
H370 H 0.56569 0.39829 0.94135 0.0
H371 H 0.51418 0.33535 0.10864 0.0
H372 H 0.47606 0.18219 0.04198 0.0
H373 H 0.48036 0.23314 0.05203 0.0
H374 H 0.53092 0.29482 0.87825 0.0
C375 C 0.54793 0.40018 0.96925 0.0
C376 C 0.51775 0.32669 0.05798 0.0
C377 C 0.54848 0.42859 0.9724 0.0
C378 C 0.49399 0.20077 0.01435 0.0
C379 C 0.49651 0.23006 0.02018 0.0
C380 C 0.52765 0.30353 0.92919 0.0
C381 C 0.52496 0.37466 1.0023 0.0
C382 C 0.52406 0.34425 0.99802 0.0
C383 C 0.51895 0.25474 0.98385 0.0
C384 C 0.52119 0.28583 0.98905 0.0
H385 H 0.48531 0.40851 0.06974 0.0
H386 H 0.48437 0.35903 0.06414 0.0
H387 H 0.53362 0.34509 0.8862 0.0
H388 H 0.55203 0.21655 0.90303 0.0
H389 H 0.55681 0.26779 0.91399 0.0
loop_
_geom_bond_atom_site_label_1
_geom_bond_atom_site_label_2
_geom_bond_distance
_geom_bond_site_symmetry_2
_ccdc_geom_bond_type
Tb0 C2 2.809 . S
Tb0 O20 2.484 1_556 S
Tb0 O21 2.440 . S
Tb0 O22 2.658 1_655 S
Tb0 O23 2.409 . S
Tb0 O24 2.378 . S
Tb0 O28 2.325 1_556 S
Tb0 O31 2.341 1_655 S
Tb1 C11 2.809 . S
Tb1 O22 2.325 1_554 S
Tb1 O25 2.341 1_455 S
Tb1 O26 2.484 1_554 S
Tb1 O27 2.440 . S
Tb1 O28 2.658 1_455 S
Tb1 O29 2.409 . S
Tb1 O30 2.378 . S
C2 Tb0 2.809 . S
C2 C3 1.514 1_556 S
C2 O20 1.248 1_556 S
C2 O21 1.266 . S
C3 C2 1.514 1_554 S
C3 C4 1.359 . S
C3 C8 1.348 1_554 S
C4 C3 1.359 . S
C4 C5 1.380 . S
C4 H32 0.929 . S
C5 C4 1.380 . S
C5 C6 1.347 . S
C5 H33 0.931 . S
C6 C5 1.347 . S
C6 C7 1.369 1_554 S
C7 C6 1.369 1_556 S
C7 C8 1.408 . S
C7 H34 0.930 . S
C8 C3 1.348 1_556 S
C8 C7 1.408 . S
C8 H35 0.930 . S
C9 O22 1.281 1_655 S
C9 O23 1.254 . S
C10 O24 1.236 . S
C10 O25 1.266 1_556 S
C11 Tb1 2.809 . S
C11 C12 1.512 1_554 S
C11 O26 1.248 1_554 S
C11 O27 1.266 . S
C12 C11 1.512 1_556 S
C12 C13 1.373 . S
C12 C17 1.336 1_556 S
C13 C12 1.373 . S
C13 C14 1.380 . S
C13 H36 0.929 . S
C14 C13 1.380 . S
C14 C15 1.347 . S
C14 H37 0.931 . S
C15 C14 1.347 . S
C15 C16 1.369 1_556 S
C16 C15 1.369 1_554 S
C16 C17 1.408 . S
C16 H38 0.930 . S
C17 C12 1.336 1_554 S
C17 C16 1.408 . S
C17 H39 0.930 . S
C18 O28 1.281 1_455 S
C18 O29 1.254 . S
C19 O30 1.236 . S
C19 O31 1.266 1_554 S
O20 Tb0 2.484 1_554 S
O20 C2 1.248 1_554 S
O21 Tb0 2.440 . S
O21 C2 1.266 . S
O22 Tb0 2.658 1_455 S
O22 Tb1 2.325 1_556 S
O22 C9 1.281 1_455 S
O23 Tb0 2.409 . S
O23 C9 1.254 . S
O24 Tb0 2.378 . S
O24 C10 1.236 . S
O25 Tb1 2.341 1_655 S
O25 C10 1.266 1_554 S
O26 Tb1 2.484 1_556 S
O26 C11 1.248 1_556 S
O27 Tb1 2.440 . S
O27 C11 1.266 . S
O28 Tb0 2.325 1_554 S
O28 Tb1 2.658 1_655 S
O28 C18 1.281 1_655 S
O29 Tb1 2.409 . S
O29 C18 1.254 . S
O30 Tb1 2.378 . S
O30 C19 1.236 . S
O31 Tb0 2.341 1_455 S
O31 C19 1.266 1_556 S
H32 C4 0.929 . S
H33 C5 0.931 . S
H34 C7 0.930 . S
H35 C8 0.930 . S
H36 C13 0.929 . S
H37 C14 0.931 . S
H38 C16 0.930 . S
H39 C17 0.930 . S
Tb40 C42 2.809 1_556 S
Tb40 O60 2.484 1_556 S
Tb40 O61 2.440 . S
Tb40 O62 2.658 1_565 S
Tb40 O63 2.409 . S
Tb40 O64 2.378 . S
Tb40 O68 2.325 1_556 S
Tb40 O71 2.341 1_566 S
Tb41 C51 2.809 1_554 S
Tb41 O62 2.325 1_554 S
Tb41 O65 2.341 1_544 S
Tb41 O66 2.484 1_554 S
Tb41 O67 2.440 . S
Tb41 O68 2.658 1_545 S
Tb41 O69 2.409 . S
Tb41 O70 2.378 . S
C42 Tb40 2.809 1_554 S
C42 C43 1.514 . S
C42 O60 1.248 . S
C42 O61 1.266 1_554 S
C43 C42 1.514 . S
C43 C44 1.359 . S
C43 C48 1.348 1_554 S
C44 C43 1.359 . S
C44 C45 1.380 . S
C44 H72 0.929 . S
C45 C44 1.380 . S
C45 C46 1.347 . S
C45 H73 0.931 . S
C46 C45 1.347 . S
C46 C47 1.369 1_554 S
C47 C46 1.369 1_556 S
C47 C48 1.408 . S
C47 H74 0.930 . S
C48 C43 1.348 1_556 S
C48 C47 1.408 . S
C48 H75 0.930 . S
C49 O62 1.281 1_565 S
C49 O63 1.254 . S
C50 O64 1.236 . S
C50 O65 1.266 . S
C51 Tb41 2.809 1_556 S
C51 C52 1.514 . S
C51 O66 1.248 . S
C51 O67 1.266 1_556 S
C52 C51 1.514 . S
C52 C53 1.359 . S
C52 C57 1.348 1_556 S
C53 C52 1.359 . S
C53 C54 1.380 . S
C53 H76 0.929 . S
C54 C53 1.380 . S
C54 C55 1.347 . S
C54 H77 0.931 . S
C55 C54 1.347 . S
C55 C56 1.369 1_556 S
C56 C55 1.369 1_554 S
C56 C57 1.408 . S
C56 H78 0.930 . S
C57 C52 1.348 1_554 S
C57 C56 1.408 . S
C57 H79 0.930 . S
C58 O68 1.281 1_545 S
C58 O69 1.254 . S
C59 O70 1.236 . S
C59 O71 1.266 . S
O60 Tb40 2.484 1_554 S
O60 C42 1.248 . S
O61 Tb40 2.440 . S
O61 C42 1.266 1_556 S
O62 Tb40 2.658 1_545 S
O62 Tb41 2.325 1_556 S
O62 C49 1.281 1_545 S
O63 Tb40 2.409 . S
O63 C49 1.254 . S
O64 Tb40 2.378 . S
O64 C50 1.236 . S
O65 Tb41 2.341 1_566 S
O65 C50 1.266 . S
O66 Tb41 2.484 1_556 S
O66 C51 1.248 . S
O67 Tb41 2.440 . S
O67 C51 1.266 1_554 S
O68 Tb40 2.325 1_554 S
O68 Tb41 2.658 1_565 S
O68 C58 1.281 1_565 S
O69 Tb41 2.409 . S
O69 C58 1.254 . S
O70 Tb41 2.378 . S
O70 C59 1.236 . S
O71 Tb40 2.341 1_544 S
O71 C59 1.266 . S
H72 C44 0.929 . S
H73 C45 0.931 . S
H74 C47 0.930 . S
H75 C48 0.930 . S
H76 C53 0.929 . S
H77 C54 0.931 . S
H78 C56 0.930 . S
H79 C57 0.930 . S
Tb80 C82 2.809 . S
Tb80 O100 2.484 1_556 S
Tb80 O101 2.440 . S
Tb80 O102 2.658 . S
Tb80 O103 2.409 . S
Tb80 O104 2.378 . S
Tb80 O108 2.325 1_556 S
Tb80 O111 2.341 . S
Tb81 C91 2.809 . S
Tb81 O102 2.325 1_554 S
Tb81 O105 2.341 . S
Tb81 O106 2.484 1_554 S
Tb81 O107 2.440 . S
Tb81 O108 2.658 . S
Tb81 O109 2.409 . S
Tb81 O110 2.378 . S
C82 Tb80 2.809 . S
C82 C83 1.514 1_556 S
C82 O100 1.248 1_556 S
C82 O101 1.266 . S
C83 C82 1.514 1_554 S
C83 C84 1.359 . S
C83 C88 1.348 1_554 S
C84 C83 1.359 . S
C84 C85 1.380 . S
C84 H112 0.929 . S
C85 C84 1.380 . S
C85 C86 1.347 . S
C85 H113 0.931 . S
C86 C85 1.347 . S
C86 C87 1.369 1_554 S
C87 C86 1.369 1_556 S
C87 C88 1.408 . S
C87 H114 0.930 . S
C88 C83 1.348 1_556 S
C88 C87 1.408 . S
C88 H115 0.930 . S
C89 O102 1.281 . S
C89 O103 1.254 . S
C90 O104 1.236 . S
C90 O105 1.266 1_556 S
C91 Tb81 2.809 . S
C91 C92 1.514 1_554 S
C91 O106 1.248 1_554 S
C91 O107 1.266 . S
C92 C91 1.514 1_556 S
C92 C93 1.359 . S
C92 C97 1.348 1_556 S
C93 C92 1.359 . S
C93 C94 1.380 . S
C93 H116 0.929 . S
C94 C93 1.380 . S
C94 C95 1.347 . S
C94 H117 0.931 . S
C95 C94 1.347 . S
C95 C96 1.369 1_556 S
C96 C95 1.369 1_554 S
C96 C97 1.408 . S
C96 H118 0.930 . S
C97 C92 1.348 1_554 S
C97 C96 1.408 . S
C97 H119 0.930 . S
C98 O108 1.281 . S
C98 O109 1.254 . S
C99 O110 1.236 . S
C99 O111 1.266 1_554 S
O100 Tb80 2.484 1_554 S
O100 C82 1.248 1_554 S
O101 Tb80 2.440 . S
O101 C82 1.266 . S
O102 Tb80 2.658 . S
O102 Tb81 2.325 1_556 S
O102 C89 1.281 . S
O103 Tb80 2.409 . S
O103 C89 1.254 . S
O104 Tb80 2.378 . S
O104 C90 1.236 . S
O105 Tb81 2.341 . S
O105 C90 1.266 1_554 S
O106 Tb81 2.484 1_556 S
O106 C91 1.248 1_556 S
O107 Tb81 2.440 . S
O107 C91 1.266 . S
O108 Tb80 2.325 1_554 S
O108 Tb81 2.658 . S
O108 C98 1.281 . S
O109 Tb81 2.409 . S
O109 C98 1.254 . S
O110 Tb81 2.378 . S
O110 C99 1.236 . S
O111 Tb80 2.341 . S
O111 C99 1.266 1_556 S
H112 C84 0.929 . S
H113 C85 0.931 . S
H114 C87 0.930 . S
H115 C88 0.930 . S
H116 C93 0.929 . S
H117 C94 0.931 . S
H118 C96 0.930 . S
H119 C97 0.930 . S
C120 C121 1.350 1_655 S
C120 C122 1.327 . S
C120 H145 0.950 . S
C121 C120 1.350 1_455 S
C121 C137 1.348 . S
C122 C120 1.327 . S
C122 C141 1.429 1_655 S
C122 H146 0.950 . S
C123 C140 1.574 . S
C123 C142 1.368 . S
C123 H147 0.949 . S
H124 C128 0.949 . S
C125 C126 1.350 . S
C125 C127 1.327 . S
C125 H148 0.950 . S
C126 C125 1.350 . S
C126 C138 1.348 1_455 S
C127 C125 1.327 . S
C127 C143 1.429 . S
C127 H149 0.950 . S
C128 H124 0.949 . S
C128 C136 1.574 . S
C128 C144 1.368 1_655 S
H129 C137 0.950 . S
H130 C135 0.950 . S
H131 C136 0.949 . S
H132 C138 0.950 . S
H133 C139 0.950 . S
H134 C140 0.949 . S
C135 H130 0.950 . S
C135 C137 1.327 . S
C135 C141 1.428 . S
C136 C128 1.574 . S
C136 H131 0.949 . S
C136 C142 1.369 1_655 S
C137 C121 1.348 . S
C137 H129 0.950 . S
C137 C135 1.327 . S
C138 C126 1.348 1_655 S
C138 H132 0.950 . S
C138 C139 1.327 . S
C139 H133 0.950 . S
C139 C138 1.327 . S
C139 C143 1.428 1_655 S
C140 C123 1.574 . S
C140 H134 0.949 . S
C140 C144 1.369 . S
C141 C122 1.429 1_455 S
C141 C135 1.428 . S
C141 C142 1.523 . S
C142 C123 1.368 . S
C142 C136 1.369 1_455 S
C142 C141 1.523 . S
C143 C127 1.429 . S
C143 C139 1.428 1_455 S
C143 C144 1.523 . S
C144 C128 1.368 1_455 S
C144 C140 1.369 . S
C144 C143 1.523 . S
H145 C120 0.950 . S
H146 C122 0.950 . S
H147 C123 0.949 . S
H148 C125 0.950 . S
H149 C127 0.950 . S
C150 C151 1.352 . S
C150 C152 1.327 . S
C150 H175 0.950 . S
C151 C150 1.352 . S
C151 C167 1.345 1_545 S
C152 C150 1.327 . S
C152 C171 1.432 . S
C152 H176 0.950 . S
C153 C170 1.574 . S
C153 C172 1.365 1_565 S
C153 H177 0.949 . S
H154 C158 0.949 . S
C155 C156 1.347 1_565 S
C155 C157 1.327 . S
C155 H178 0.950 . S
C156 C155 1.347 1_545 S
C156 C168 1.351 . S
C157 C155 1.327 . S
C157 C173 1.426 1_565 S
C157 H179 0.950 . S
C158 H154 0.949 . S
C158 C166 1.574 . S
C158 C174 1.371 . S
H159 C167 0.950 . S
H160 C165 0.950 . S
H161 C166 0.949 . S
H162 C168 0.950 . S
H163 C169 0.950 . S
H164 C170 0.949 . S
C165 H160 0.950 . S
C165 C167 1.327 . S
C165 C171 1.426 1_565 S
C166 C158 1.574 . S
C166 H161 0.949 . S
C166 C172 1.371 . S
C167 C151 1.345 1_565 S
C167 H159 0.950 . S
C167 C165 1.327 . S
C168 C156 1.351 . S
C168 H162 0.950 . S
C168 C169 1.327 . S
C169 H163 0.950 . S
C169 C168 1.327 . S
C169 C173 1.431 . S
C170 C153 1.574 . S
C170 H164 0.949 . S
C170 C174 1.366 1_565 S
C171 C152 1.432 . S
C171 C165 1.426 1_545 S
C171 C172 1.523 . S
C172 C153 1.365 1_545 S
C172 C166 1.371 . S
C172 C171 1.523 . S
C173 C157 1.426 1_545 S
C173 C169 1.431 . S
C173 C174 1.523 . S
C174 C158 1.371 . S
C174 C170 1.366 1_545 S
C174 C173 1.523 . S
H175 C150 0.950 . S
H176 C152 0.950 . S
H177 C153 0.949 . S
H178 C155 0.950 . S
H179 C157 0.950 . S
C180 C181 1.349 . S
C180 C182 1.327 . S
C180 H205 0.950 . S
C181 C180 1.349 . S
C181 C197 1.349 . S
C182 C180 1.327 . S
C182 C201 1.429 . S
C182 H206 0.950 . S
C183 C200 1.574 . S
C183 C202 1.368 . S
C183 H207 0.949 . S
H184 C188 0.949 . S
C185 C186 1.349 . S
C185 C187 1.327 . S
C185 H208 0.950 . S
C186 C185 1.349 . S
C186 C198 1.349 . S
C187 C185 1.327 . S
C187 C203 1.429 . S
C187 H209 0.950 . S
C188 H184 0.949 . S
C188 C196 1.574 . S
C188 C204 1.368 . S
H189 C197 0.950 . S
H190 C195 0.950 . S
H191 C196 0.949 . S
H192 C198 0.950 . S
H193 C199 0.950 . S
H194 C200 0.949 . S
C195 H190 0.950 . S
C195 C197 1.327 . S
C195 C201 1.429 . S
C196 C188 1.574 . S
C196 H191 0.949 . S
C196 C202 1.368 . S
C197 C181 1.349 . S
C197 H189 0.950 . S
C197 C195 1.327 . S
C198 C186 1.349 . S
C198 H192 0.950 . S
C198 C199 1.327 . S
C199 H193 0.950 . S
C199 C198 1.327 . S
C199 C203 1.429 . S
C200 C183 1.574 . S
C200 H194 0.949 . S
C200 C204 1.368 . S
C201 C182 1.429 . S
C201 C195 1.429 . S
C201 C202 1.523 . S
C202 C183 1.368 . S
C202 C196 1.368 . S
C202 C201 1.523 . S
C203 C187 1.429 . S
C203 C199 1.429 . S
C203 C204 1.523 . S
C204 C188 1.368 . S
C204 C200 1.368 . S
C204 C203 1.523 . S
H205 C180 0.950 . S
H206 C182 0.950 . S
H207 C183 0.949 . S
H208 C185 0.950 . S
H209 C187 0.950 . S
C210 C211 1.349 . S
C210 C212 1.327 . S
C210 H235 0.950 . S
C211 C210 1.349 . S
C211 C227 1.349 1_554 S
C212 C210 1.327 . S
C212 C231 1.429 . S
C212 H236 0.950 . S
C213 C230 1.574 . S
C213 C232 1.368 1_556 S
C213 H237 0.949 . S
H214 C218 0.949 . S
C215 C216 1.349 1_556 S
C215 C217 1.327 . S
C215 H238 0.950 . S
C216 C215 1.349 1_554 S
C216 C228 1.349 . S
C217 C215 1.327 . S
C217 C233 1.429 1_556 S
C217 H239 0.950 . S
C218 H214 0.949 . S
C218 C226 1.574 . S
C218 C234 1.368 . S
H219 C227 0.950 . S
H220 C225 0.950 . S
H221 C226 0.949 . S
H222 C228 0.950 . S
H223 C229 0.950 . S
H224 C230 0.949 . S
C225 H220 0.950 . S
C225 C227 1.327 . S
C225 C231 1.429 1_556 S
C226 C218 1.574 . S
C226 H221 0.949 . S
C226 C232 1.368 . S
C227 C211 1.349 1_556 S
C227 H219 0.950 . S
C227 C225 1.327 . S
C228 C216 1.349 . S
C228 H222 0.950 . S
C228 C229 1.327 . S
C229 H223 0.950 . S
C229 C228 1.327 . S
C229 C233 1.429 . S
C230 C213 1.574 . S
C230 H224 0.949 . S
C230 C234 1.368 1_556 S
C231 C212 1.429 . S
C231 C225 1.429 1_554 S
C231 C232 1.523 . S
C232 C213 1.368 1_554 S
C232 C226 1.368 . S
C232 C231 1.523 . S
C233 C217 1.429 1_554 S
C233 C229 1.429 . S
C233 C234 1.523 . S
C234 C218 1.368 . S
C234 C230 1.368 1_554 S
C234 C233 1.523 . S
H235 C210 0.950 . S
H236 C212 0.950 . S
H237 C213 0.949 . S
H238 C215 0.950 . S
H239 C217 0.950 . S
C240 C241 1.349 1_556 S
C240 C242 1.327 . S
C240 H265 0.950 . S
C241 C240 1.349 1_554 S
C241 C257 1.349 . S
C242 C240 1.327 . S
C242 C261 1.429 1_556 S
C242 H266 0.950 . S
C243 C260 1.574 . S
C243 C262 1.368 . S
C243 H267 0.949 . S
H244 C248 0.949 . S
C245 C246 1.349 . S
C245 C247 1.327 . S
C245 H268 0.950 . S
C246 C245 1.349 . S
C246 C258 1.349 1_554 S
C247 C245 1.327 . S
C247 C263 1.429 . S
C247 H269 0.950 . S
C248 H244 0.949 . S
C248 C256 1.574 . S
C248 C264 1.368 1_556 S
H249 C257 0.950 . S
H250 C255 0.950 . S
H251 C256 0.949 . S
H252 C258 0.950 . S
H253 C259 0.950 . S
H254 C260 0.949 . S
C255 H250 0.950 . S
C255 C257 1.327 . S
C255 C261 1.429 . S
C256 C248 1.574 . S
C256 H251 0.949 . S
C256 C262 1.368 1_556 S
C257 C241 1.349 . S
C257 H249 0.950 . S
C257 C255 1.327 . S
C258 C246 1.349 1_556 S
C258 H252 0.950 . S
C258 C259 1.327 . S
C259 H253 0.950 . S
C259 C258 1.327 . S
C259 C263 1.429 1_556 S
C260 C243 1.574 . S
C260 H254 0.949 . S
C260 C264 1.368 . S
C261 C242 1.429 1_554 S
C261 C255 1.429 . S
C261 C262 1.523 . S
C262 C243 1.368 . S
C262 C256 1.368 1_554 S
C262 C261 1.523 . S
C263 C247 1.429 . S
C263 C259 1.429 1_554 S
C263 C264 1.523 . S
C264 C248 1.368 1_554 S
C264 C260 1.368 . S
C264 C263 1.523 . S
H265 C240 0.950 . S
H266 C242 0.950 . S
H267 C243 0.949 . S
H268 C245 0.950 . S
H269 C247 0.950 . S
C270 C271 1.349 1_556 S
C270 C272 1.327 . S
C270 H295 0.950 . S
C271 C270 1.349 1_554 S
C271 C287 1.349 . S
C272 C270 1.327 . S
C272 C291 1.429 1_556 S
C272 H296 0.950 . S
C273 C290 1.574 . S
C273 C292 1.368 . S
C273 H297 0.949 . S
H274 C278 0.949 . S
C275 C276 1.349 . S
C275 C277 1.327 . S
C275 H298 0.950 . S
C276 C275 1.349 . S
C276 C288 1.349 1_554 S
C277 C275 1.327 . S
C277 C293 1.429 . S
C277 H299 0.950 . S
C278 H274 0.949 . S
C278 C286 1.574 . S
C278 C294 1.368 1_556 S
H279 C287 0.950 . S
H280 C285 0.950 . S
H281 C286 0.949 . S
H282 C288 0.950 . S
H283 C289 0.950 . S
H284 C290 0.949 . S
C285 H280 0.950 . S
C285 C287 1.327 . S
C285 C291 1.429 . S
C286 C278 1.574 . S
C286 H281 0.949 . S
C286 C292 1.368 1_556 S
C287 C271 1.349 . S
C287 H279 0.950 . S
C287 C285 1.327 . S
C288 C276 1.349 1_556 S
C288 H282 0.950 . S
C288 C289 1.327 . S
C289 H283 0.950 . S
C289 C288 1.327 . S
C289 C293 1.429 1_556 S
C290 C273 1.574 . S
C290 H284 0.949 . S
C290 C294 1.368 . S
C291 C272 1.429 1_554 S
C291 C285 1.429 . S
C291 C292 1.523 . S
C292 C273 1.368 . S
C292 C286 1.368 1_554 S
C292 C291 1.523 . S
C293 C277 1.429 . S
C293 C289 1.429 1_554 S
C293 C294 1.523 . S
C294 C278 1.368 1_554 S
C294 C290 1.368 . S
C294 C293 1.523 . S
H295 C270 0.950 . S
H296 C272 0.950 . S
H297 C273 0.949 . S
H298 C275 0.950 . S
H299 C277 0.950 . S
C300 C301 1.349 1_554 S
C300 C302 1.327 . S
C300 H325 0.950 . S
C301 C300 1.349 1_556 S
C301 C317 1.349 . S
C302 C300 1.327 . S
C302 C321 1.429 1_554 S
C302 H326 0.950 . S
C303 C320 1.574 . S
C303 C322 1.368 . S
C303 H327 0.949 . S
H304 C308 0.949 . S
C305 C306 1.349 . S
C305 C307 1.327 . S
C305 H328 0.950 . S
C306 C305 1.349 . S
C306 C318 1.349 1_556 S
C307 C305 1.327 . S
C307 C323 1.429 . S
C307 H329 0.950 . S
C308 H304 0.949 . S
C308 C316 1.574 . S
C308 C324 1.368 1_554 S
H309 C317 0.950 . S
H310 C315 0.950 . S
H311 C316 0.949 . S
H312 C318 0.950 . S
H313 C319 0.950 . S
H314 C320 0.949 . S
C315 H310 0.950 . S
C315 C317 1.327 . S
C315 C321 1.429 . S
C316 C308 1.574 . S
C316 H311 0.949 . S
C316 C322 1.368 1_554 S
C317 C301 1.349 . S
C317 H309 0.950 . S
C317 C315 1.327 . S
C318 C306 1.349 1_554 S
C318 H312 0.950 . S
C318 C319 1.327 . S
C319 H313 0.950 . S
C319 C318 1.327 . S
C319 C323 1.429 1_554 S
C320 C303 1.574 . S
C320 H314 0.949 . S
C320 C324 1.368 . S
C321 C302 1.429 1_556 S
C321 C315 1.429 . S
C321 C322 1.523 . S
C322 C303 1.368 . S
C322 C316 1.368 1_556 S
C322 C321 1.523 . S
C323 C307 1.429 . S
C323 C319 1.429 1_556 S
C323 C324 1.523 . S
C324 C308 1.368 1_556 S
C324 C320 1.368 . S
C324 C323 1.523 . S
H325 C300 0.950 . S
H326 C302 0.950 . S
H327 C303 0.949 . S
H328 C305 0.950 . S
H329 C307 0.950 . S
C330 C331 1.349 . S
C330 C332 1.327 . S
C330 H355 0.950 . S
C331 C330 1.349 . S
C331 C347 1.349 1_556 S
C332 C330 1.327 . S
C332 C351 1.429 . S
C332 H356 0.950 . S
C333 C350 1.574 . S
C333 C352 1.368 1_554 S
C333 H357 0.949 . S
H334 C338 0.949 . S
C335 C336 1.349 1_554 S
C335 C337 1.327 . S
C335 H358 0.950 . S
C336 C335 1.349 1_556 S
C336 C348 1.349 . S
C337 C335 1.327 . S
C337 C353 1.429 1_554 S
C337 H359 0.950 . S
C338 H334 0.949 . S
C338 C346 1.574 . S
C338 C354 1.368 . S
H339 C347 0.950 . S
H340 C345 0.950 . S
H341 C346 0.949 . S
H342 C348 0.950 . S
H343 C349 0.950 . S
H344 C350 0.949 . S
C345 H340 0.950 . S
C345 C347 1.327 . S
C345 C351 1.429 1_554 S
C346 C338 1.574 . S
C346 H341 0.949 . S
C346 C352 1.368 . S
C347 C331 1.349 1_554 S
C347 H339 0.950 . S
C347 C345 1.327 . S
C348 C336 1.349 . S
C348 H342 0.950 . S
C348 C349 1.327 . S
C349 H343 0.950 . S
C349 C348 1.327 . S
C349 C353 1.429 . S
C350 C333 1.574 . S
C350 H344 0.949 . S
C350 C354 1.368 1_554 S
C351 C332 1.429 . S
C351 C345 1.429 1_556 S
C351 C352 1.523 . S
C352 C333 1.368 1_556 S
C352 C346 1.368 . S
C352 C351 1.523 . S
C353 C337 1.429 1_556 S
C353 C349 1.429 . S
C353 C354 1.523 . S
C354 C338 1.368 . S
C354 C350 1.368 1_556 S
C354 C353 1.523 . S
H355 C330 0.950 . S
H356 C332 0.950 . S
H357 C333 0.949 . S
H358 C335 0.950 . S
H359 C337 0.950 . S
C360 C361 1.349 1_554 S
C360 C362 1.327 . S
C360 H385 0.950 . S
C361 C360 1.349 1_556 S
C361 C377 1.349 . S
C362 C360 1.327 . S
C362 C381 1.429 1_554 S
C362 H386 0.950 . S
C363 C380 1.574 . S
C363 C382 1.368 . S
C363 H387 0.949 . S
H364 C368 0.949 . S
C365 C366 1.349 . S
C365 C367 1.327 . S
C365 H388 0.950 . S
C366 C365 1.349 . S
C366 C378 1.349 1_556 S
C367 C365 1.327 . S
C367 C383 1.429 . S
C367 H389 0.950 . S
C368 H364 0.949 . S
C368 C376 1.574 . S
C368 C384 1.368 1_554 S
H369 C377 0.950 . S
H370 C375 0.950 . S
H371 C376 0.949 . S
H372 C378 0.950 . S
H373 C379 0.950 . S
H374 C380 0.949 . S
C375 H370 0.950 . S
C375 C377 1.327 . S
C375 C381 1.429 . S
C376 C368 1.574 . S
C376 H371 0.949 . S
C376 C382 1.368 1_554 S
C377 C361 1.349 . S
C377 H369 0.950 . S
C377 C375 1.327 . S
C378 C366 1.349 1_554 S
C378 H372 0.950 . S
C378 C379 1.327 . S
C379 H373 0.950 . S
C379 C378 1.327 . S
C379 C383 1.429 1_554 S
C380 C363 1.574 . S
C380 H374 0.949 . S
C380 C384 1.368 . S
C381 C362 1.429 1_556 S
C381 C375 1.429 . S
C381 C382 1.523 . S
C382 C363 1.368 . S
C382 C376 1.368 1_556 S
C382 C381 1.523 . S
C383 C367 1.429 . S
C383 C379 1.429 1_556 S
C383 C384 1.523 . S
C384 C368 1.368 1_556 S
C384 C380 1.368 . S
C384 C383 1.523 . S
H385 C360 0.950 . S
H386 C362 0.950 . S
H387 C363 0.949 . S
H388 C365 0.950 . S
H389 C367 0.950 . S
C121 C9 1.446 1_455 S
C126 C18 1.446 . S
C151 C58 1.446 . S
C156 C49 1.442 1_545 S
C181 C89 1.447 . S
C186 C98 1.447 . S
C211 C19 1.678 . S
C216 C86 1.681 . S
C241 C59 1.681 . S
C246 C6 1.686 . S
C271 C46 1.689 . S
C276 C90 1.685 1_554 S
C301 C10 1.678 . S
C306 C95 1.687 . S
C331 C15 1.684 . S
C336 C50 1.679 . S
C361 C99 1.685 1_556 S
C366 C55 1.689 . S
