# Generated by pormake.
# Topology umw, (4)-cn, num edge types: 1
# Building blocks:
#     Node 0, Type 0, BuildingBlock: QUQFOY_clean_sbu_3, # of connection points: 4
#     Node 1, Type 0, BuildingBlock: QUQFOY_clean_sbu_3, # of connection points: 4
#     Node 2, Type 0, BuildingBlock: QUQFOY_clean_sbu_3, # of connection points: 4
#     Node 3, Type 0, BuildingBlock: QUQFOY_clean_sbu_3, # of connection points: 4
#     Node 4, Type 0, BuildingBlock: QUQFOY_clean_sbu_3, # of connection points: 4
#     Node 5, Type 0, BuildingBlock: QUQFOY_clean_sbu_3, # of connection points: 4
#     Node 6, Type 0, BuildingBlock: QUQFOY_clean_sbu_3, # of connection points: 4
#     Node 7, Type 0, BuildingBlock: QUQFOY_clean_sbu_3, # of connection points: 4
#     Edge 8, Type (0, 0), BuildingBlock: OJICUG_clean_linker_0, # of connection points: 2
#     Edge 9, Type (0, 0), BuildingBlock: OJICUG_clean_linker_0, # of connection points: 2
#     Edge 10, Type (0, 0), BuildingBlock: OJICUG_clean_linker_0, # of connection points: 2
#     Edge 11, Type (0, 0), BuildingBlock: OJICUG_clean_linker_0, # of connection points: 2
#     Edge 12, Type (0, 0), BuildingBlock: OJICUG_clean_linker_0, # of connection points: 2
#     Edge 13, Type (0, 0), BuildingBlock: OJICUG_clean_linker_0, # of connection points: 2
#     Edge 14, Type (0, 0), BuildingBlock: OJICUG_clean_linker_0, # of connection points: 2
#     Edge 15, Type (0, 0), BuildingBlock: OJICUG_clean_linker_0, # of connection points: 2
#     Edge 16, Type (0, 0), BuildingBlock: OJICUG_clean_linker_0, # of connection points: 2
#     Edge 17, Type (0, 0), BuildingBlock: OJICUG_clean_linker_0, # of connection points: 2
#     Edge 18, Type (0, 0), BuildingBlock: OJICUG_clean_linker_0, # of connection points: 2
#     Edge 19, Type (0, 0), BuildingBlock: OJICUG_clean_linker_0, # of connection points: 2
#     Edge 20, Type (0, 0), BuildingBlock: OJICUG_clean_linker_0, # of connection points: 2
#     Edge 21, Type (0, 0), BuildingBlock: OJICUG_clean_linker_0, # of connection points: 2
#     Edge 22, Type (0, 0), BuildingBlock: OJICUG_clean_linker_0, # of connection points: 2
#     Edge 23, Type (0, 0), BuildingBlock: OJICUG_clean_linker_0, # of connection points: 2
# Relax obj value: 0.122
# Max RMSD: 0.102
# Mean RMSD: 0.102
data_MOF--net-umw--node1-QUQFOY_clean_sbu_3--edge1-OJICUG_clean_linker_0
_symmetry_space_group_name_H-M    P1
_symmetry_Int_Tables_number       1
_symmetry_cell_setting            triclinic
loop_
_symmetry_equiv_pos_as_xyz
'x, y, z'
_cell_length_a     31.31287
_cell_length_b     31.369513
_cell_length_c     19.944408
_cell_angle_alpha  89.983806
_cell_angle_beta   89.931716
_cell_angle_gamma 90.135855
loop_
_atom_site_label
_atom_site_type_symbol
_atom_site_fract_x
_atom_site_fract_y
_atom_site_fract_z
_atom_type_partial_charge
C0 C 0.44626 0.20555 0.15637 0.0
O1 O 0.47727 0.20337 0.19703 0.0
Cd2 Cd 0.47545 0.17887 0.30808 0.0
O3 O 0.40834 0.19541 0.17471 0.0
Cd4 Cd 0.37474 0.17119 0.28332 0.0
C5 C 0.42865 0.0798 0.28013 0.0
O6 O 0.41748 0.21518 0.35658 0.0
O7 O 0.39297 0.15741 0.39923 0.0
O8 O 0.3115 0.21671 0.27984 0.0
C9 C 0.4121 0.19249 0.4081 0.0
O10 O 0.46017 0.10263 0.29896 0.0
C11 C 0.28773 0.18991 0.30987 0.0
O12 O 0.39298 0.09672 0.265 0.0
O13 O 0.30266 0.15275 0.31813 0.0
C14 C 0.78771 0.50389 0.42071 0.0
O15 O 0.79644 0.53358 0.46168 0.0
Cd16 Cd 0.81466 0.52727 0.57578 0.0
O17 O 0.78654 0.46493 0.43987 0.0
Cd18 Cd 0.79669 0.42719 0.55023 0.0
C19 C 0.89918 0.45719 0.5578 0.0
O20 O 0.76276 0.4803 0.61954 0.0
O21 O 0.8065 0.43863 0.66927 0.0
O22 O 0.73739 0.37812 0.53948 0.0
C23 C 0.77899 0.46792 0.67396 0.0
O24 O 0.88512 0.49374 0.57477 0.0
C25 C 0.7564 0.34713 0.56759 0.0
O26 O 0.8738 0.4273 0.54091 0.0
O27 O 0.79601 0.35162 0.57886 0.0
C28 C 0.55341 0.78618 0.65069 0.0
O29 O 0.52149 0.78807 0.68972 0.0
Cd30 Cd 0.52075 0.81704 0.79784 0.0
O31 O 0.59039 0.79852 0.67013 0.0
Cd32 Cd 0.6187 0.82622 0.78003 0.0
C33 C 0.56608 0.91597 0.7618 0.0
O34 O 0.57691 0.7815 0.85381 0.0
O35 O 0.58555 0.84685 0.88405 0.0
O36 O 0.68401 0.78353 0.78483 0.0
C37 C 0.57253 0.80976 0.89839 0.0
O38 O 0.53463 0.89314 0.78105 0.0
C39 C 0.70394 0.8098 0.82191 0.0
O40 O 0.60256 0.89943 0.75094 0.0
O41 O 0.68639 0.84558 0.83192 0.0
C42 C 0.2189 0.48401 0.91385 0.0
O43 O 0.20552 0.45448 0.9519 0.0
Cd44 Cd 0.17216 0.46336 0.0559 0.0
O45 O 0.21755 0.52303 0.93248 0.0
Cd46 Cd 0.19709 0.56146 0.03836 0.0
C47 C 0.09451 0.53876 0.01496 0.0
O48 O 0.2189 0.50771 0.1155 0.0
O49 O 0.16809 0.5483 0.1497 0.0
O50 O 0.26443 0.59624 0.05555 0.0
C51 C 0.19574 0.52021 0.16329 0.0
O52 O 0.10596 0.50139 0.0324 0.0
C53 C 0.24926 0.63177 0.07421 0.0
O54 O 0.12181 0.56874 0.0086 0.0
O55 O 0.20939 0.6373 0.06611 0.0
C56 C 0.51059 0.78017 0.37298 0.0
O57 O 0.53906 0.79132 0.3312 0.0
Cd58 Cd 0.52652 0.8179 0.22268 0.0
O59 O 0.47104 0.7801 0.3568 0.0
Cd60 Cd 0.42772 0.79456 0.25344 0.0
C61 C 0.45312 0.89775 0.2622 0.0
O62 O 0.47877 0.76936 0.17332 0.0
O63 O 0.43331 0.81492 0.13661 0.0
O64 O 0.39089 0.72734 0.25559 0.0
C65 C 0.46297 0.7888 0.12385 0.0
O66 O 0.48964 0.8852 0.24201 0.0
C67 C 0.35522 0.74172 0.23571 0.0
O68 O 0.42328 0.87118 0.27495 0.0
O69 O 0.35107 0.78202 0.2346 0.0
C70 C 0.21525 0.44322 0.63745 0.0
O71 O 0.2124 0.47466 0.59779 0.0
Cd72 Cd 0.17851 0.4742 0.49333 0.0
O73 O 0.20148 0.40631 0.62045 0.0
Cd74 Cd 0.16904 0.37393 0.51708 0.0
C75 C 0.08076 0.42979 0.54069 0.0
O76 O 0.20813 0.41548 0.43694 0.0
O77 O 0.14565 0.3949 0.40632 0.0
O78 O 0.21503 0.31131 0.51475 0.0
C79 C 0.18104 0.41165 0.39055 0.0
O80 O 0.10319 0.46081 0.5188 0.0
C81 C 0.18779 0.28773 0.48553 0.0
O82 O 0.09722 0.39319 0.55055 0.0
O83 O 0.15024 0.30231 0.47991 0.0
C84 C 0.49006 0.2136 0.87778 0.0
O85 O 0.46081 0.20338 0.83684 0.0
Cd86 Cd 0.46816 0.18087 0.72487 0.0
O87 O 0.52929 0.21424 0.85961 0.0
Cd88 Cd 0.56809 0.20044 0.75151 0.0
C89 C 0.53938 0.09767 0.74932 0.0
O90 O 0.51601 0.22957 0.67606 0.0
O91 O 0.5574 0.18175 0.63498 0.0
O92 O 0.61064 0.26351 0.7402 0.0
C93 C 0.52891 0.2096 0.62503 0.0
O94 O 0.5027 0.11131 0.73194 0.0
C95 C 0.6452 0.24435 0.72644 0.0
O96 O 0.56941 0.1234 0.76452 0.0
O97 O 0.64591 0.20423 0.73496 0.0
C98 C 0.7928 0.54742 0.14062 0.0
O99 O 0.79351 0.51689 0.09893 0.0
Cd100 Cd 0.81218 0.51953 -0.01551 0.0
O101 O 0.80157 0.5856 0.12226 0.0
Cd102 Cd 0.82125 0.62096 0.013 0.0
C103 C 0.91249 0.56559 0.00222 0.0
O104 O 0.77508 0.57872 0.94188 0.0
O105 O 0.82874 0.60835 0.89409 0.0
O106 O 0.77613 0.68406 0.02299 0.0
C107 C 0.79474 0.5869 0.88812 0.0
O108 O 0.88877 0.53446 -0.01539 0.0
C109 C 0.80283 0.70854 -0.00591 0.0
O110 O 0.89632 0.60088 0.02108 0.0
O111 O 0.83998 0.6938 -0.01586 0.0
C112 C 0.46143 0.16136 0.49073 0.0
C113 C 0.44094 0.19743 0.46478 0.0
H114 H 0.50682 0.1374 0.56079 0.0
C115 C 0.45094 0.23805 0.48957 0.0
H116 H 0.45471 0.12979 0.4713 0.0
C117 C 0.48042 0.24234 0.5415 0.0
C118 C 0.50108 0.2062 0.56692 0.0
H119 H 0.43566 0.2662 0.46933 0.0
H120 H 0.48714 0.27371 0.56171 0.0
C121 C 0.49171 0.16577 0.54094 0.0
C122 C 0.82233 0.5121 0.74917 0.0
C123 C 0.78188 0.49774 0.7295 0.0
H124 H 0.85784 0.55291 0.81373 0.0
C125 C 0.74509 0.51445 0.75954 0.0
H126 H 0.85102 0.5001 0.72535 0.0
C127 C 0.74897 0.54436 0.81105 0.0
C128 C 0.78957 0.55874 0.83054 0.0
H129 H 0.71367 0.50394 0.74389 0.0
H130 H 0.72049 0.55623 0.83557 0.0
C131 C 0.82614 0.54275 0.79879 0.0
C132 C 0.48862 0.83126 0.02761 0.0
C133 C 0.48739 0.79228 0.06188 0.0
H134 H 0.51781 0.86753 0.94947 0.0
C135 C 0.51322 0.75836 0.04071 0.0
H136 H 0.46922 0.85797 0.04352 0.0
C137 C 0.54064 0.76367 -0.0137 0.0
C138 C 0.54321 0.8033 0.95419 0.0
H139 H 0.51265 0.72808 0.06689 0.0
H140 H 0.56066 0.73736 0.97058 0.0
C141 C 0.51677 0.8369 -0.02543 0.0
C142 C 0.22479 0.44619 0.3029 0.0
C143 C 0.18459 0.43821 0.3311 0.0
H144 H 0.25964 0.47896 0.22621 0.0
C145 C 0.14821 0.45841 0.3054 0.0
H146 H 0.25317 0.43102 0.32268 0.0
C147 C 0.15208 0.48669 0.25215 0.0
C148 C 0.1922 0.49414 0.22324 0.0
H149 H 0.11697 0.45309 0.32733 0.0
H150 H 0.12363 0.50184 0.23256 0.0
C151 C 0.22849 0.47364 0.24848 0.0
C152 C 0.25325 0.19652 0.42095 0.0
C153 C 0.2521 0.20502 0.35164 0.0
H154 H 0.23397 0.21716 0.51912 0.0
C155 C 0.22338 0.23539 0.32713 0.0
H156 H 0.27587 0.17381 0.44115 0.0
C157 C 0.19807 0.25875 0.37168 0.0
C158 C 0.20262 0.25334 0.44135 0.0
H159 H 0.22252 0.24296 0.27414 0.0
H160 H 0.1782 0.28404 0.35192 0.0
C161 C 0.22942 0.22125 0.46567 0.0
C162 C 0.68851 0.30738 0.58205 0.0
C163 C 0.73154 0.31258 0.59938 0.0
H164 H 0.62775 0.28193 0.61001 0.0
C165 C 0.74758 0.29097 0.65608 0.0
H166 H 0.67533 0.32329 0.53854 0.0
C167 C 0.72009 0.26719 0.69737 0.0
C168 C 0.67642 0.2654 0.68257 0.0
H169 H 0.78063 0.29472 0.671 0.0
H170 H 0.73243 0.25224 0.74229 0.0
C171 C 0.66123 0.28422 0.62342 0.0
C172 C 0.79661 0.74572 0.88524 0.0
C173 C 0.78734 0.74488 0.95434 0.0
H174 H 0.77637 0.76664 0.78779 0.0
C175 C 0.75575 0.77198 -0.02024 0.0
H176 H 0.8203 0.72441 0.86422 0.0
C177 C 0.73193 0.79748 0.93615 0.0
C178 C 0.73813 0.7947 0.86638 0.0
H179 H 0.7476 0.77132 0.03256 0.0
H180 H 0.70579 0.81603 0.95647 0.0
C181 C 0.77148 0.76969 0.84136 0.0
C182 C 0.26234 0.703 0.12943 0.0
C183 C 0.27559 0.66123 0.11475 0.0
H184 H 0.27708 0.76163 0.18023 0.0
C185 C 0.31272 0.64548 0.14533 0.0
H186 H 0.23339 0.71568 0.10754 0.0
C187 C 0.33654 0.67088 0.18858 0.0
C188 C 0.32452 0.71319 0.20146 0.0
H189 H 0.3233 0.61309 0.13659 0.0
H190 H 0.3654 0.65765 0.20997 0.0
C191 C 0.28692 0.72899 0.17187 0.0
C192 C 0.48117 0.97169 0.27396 0.0
C193 C 0.44593 0.94404 0.26953 0.0
H194 H 0.50331 0.03588 0.28088 0.0
C195 C 0.40455 0.9613 0.26933 0.0
H196 H 0.51348 0.95941 0.27452 0.0
C197 C 0.39869 0.00553 0.27215 0.0
C198 C 0.4341 0.03308 0.27623 0.0
H199 H 0.37681 0.94075 0.26565 0.0
H200 H 0.3665 0.01808 0.27145 0.0
C201 C 0.47533 0.0156 0.27766 0.0
C202 C 0.97415 0.48439 0.55937 0.0
C203 C 0.9457 0.44974 0.55703 0.0
H204 H 0.03914 0.50517 0.5562 0.0
C205 C 0.96216 0.40815 0.5533 0.0
H206 H 0.9625 0.51682 0.56244 0.0
C207 C 0.00623 0.40143 0.55064 0.0
C208 C 0.03455 0.43623 0.55068 0.0
H209 H 0.94101 0.38078 0.55201 0.0
H210 H 0.01802 0.3691 0.54647 0.0
C211 C 0.01808 0.47772 0.55578 0.0
C212 C 0.59494 0.99051 0.75589 0.0
C213 C 0.55995 0.96239 0.75503 0.0
H214 H 0.61591 0.05559 0.75575 0.0
C215 C 0.51846 0.9791 0.7512 0.0
H216 H 0.62729 0.97851 0.75917 0.0
C217 C 0.51197 0.02298 0.74893 0.0
C218 C 0.54681 0.05123 0.75123 0.0
H219 H 0.49083 0.95826 0.75026 0.0
H220 H 0.47951 0.03473 0.74628 0.0
C221 C 0.58841 0.0346 0.75446 0.0
C222 C 0.98729 0.59456 0.01118 0.0
C223 C 0.95937 0.55988 0.00164 0.0
H224 H 0.05232 0.61526 0.02171 0.0
C225 C 0.97663 0.51903 -0.00796 0.0
H226 H 0.97497 0.62649 0.01815 0.0
C227 C 0.02059 0.51266 -0.00566 0.0
C228 C 0.0485 0.54702 0.00559 0.0
H229 H 0.95615 0.49161 -0.01584 0.0
H230 H 0.03268 0.48057 -0.01178 0.0
C231 C 0.03154 0.58821 0.01271 0.0
C232 C 0.43506 0.21559 0.96866 0.0
C233 C 0.47808 0.21984 0.94877 0.0
H234 H 0.39107 0.20788 0.04999 0.0
C235 C 0.50948 0.22539 -0.00197 0.0
H236 H 0.4099 0.21178 0.93191 0.0
C237 C 0.49852 0.22344 0.06576 0.0
C238 C 0.45597 0.21566 0.0856 0.0
H239 H 0.54278 0.22913 -0.01556 0.0
H240 H 0.52387 0.22593 0.10245 0.0
C241 C 0.42413 0.2134 0.03641 0.0
C242 C 0.787 0.56903 0.26115 0.0
C243 C 0.78528 0.53714 0.21204 0.0
H244 H 0.78845 0.58356 0.36556 0.0
C245 C 0.77963 0.4944 0.2322 0.0
H246 H 0.79097 0.60221 0.24738 0.0
C247 C 0.7784 0.48356 0.30007 0.0
C248 C 0.78263 0.51523 0.34919 0.0
H249 H 0.77781 0.46896 0.19561 0.0
H250 H 0.7758 0.45025 0.31388 0.0
C251 C 0.78558 0.55821 0.32898 0.0
C252 C 0.57685 0.78146 0.53091 0.0
C253 C 0.54537 0.77498 0.5799 0.0
H254 H 0.5906 0.78757 0.42654 0.0
C255 C 0.50389 0.76318 0.55965 0.0
H256 H 0.60913 0.79019 0.54483 0.0
C257 C 0.49306 0.76209 0.49191 0.0
C258 C 0.52358 0.7724 0.44307 0.0
H259 H 0.47895 0.75724 0.59619 0.0
H260 H 0.46026 0.75542 0.47816 0.0
C261 C 0.56608 0.78006 0.46305 0.0
C262 C 0.23664 0.50447 0.79595 0.0
C263 C 0.23 0.47266 0.8442 0.0
H264 H 0.23824 0.51982 0.69187 0.0
C265 C 0.22767 0.42977 0.82351 0.0
H266 H 0.23926 0.53767 0.8103 0.0
C267 C 0.22659 0.41946 0.75557 0.0
C268 C 0.22824 0.45183 0.70724 0.0
H269 H 0.2235 0.40428 0.85961 0.0
H270 H 0.22144 0.38654 0.74122 0.0
C271 C 0.23597 0.49411 0.72797 0.0
loop_
_geom_bond_atom_site_label_1
_geom_bond_atom_site_label_2
_geom_bond_distance
_geom_bond_site_symmetry_2
_ccdc_geom_bond_type
C0 O1 1.306 . S
C0 O3 1.160 . S
O1 C0 1.306 . S
O1 Cd2 2.228 . S
Cd2 O1 2.228 . S
Cd2 O6 2.273 . S
Cd2 O10 2.277 . S
O3 C0 1.160 . S
O3 Cd4 2.203 . S
Cd4 O3 2.203 . S
Cd4 O6 2.411 . S
Cd4 O7 2.333 . S
Cd4 O8 2.352 . S
Cd4 O12 2.277 . S
Cd4 O13 2.356 . S
C5 O10 1.209 . S
C5 O12 1.226 . S
O6 Cd2 2.273 . S
O6 Cd4 2.411 . S
O6 C9 1.320 . S
O7 Cd4 2.333 . S
O7 C9 1.214 . S
O8 Cd4 2.352 . S
O8 C11 1.258 . S
C9 O6 1.320 . S
C9 O7 1.214 . S
O10 Cd2 2.277 . S
O10 C5 1.209 . S
C11 O8 1.258 . S
C11 O13 1.282 . S
O12 Cd4 2.277 . S
O12 C5 1.226 . S
O13 Cd4 2.356 . S
O13 C11 1.282 . S
C14 O15 1.306 . S
C14 O17 1.160 . S
O15 C14 1.306 . S
O15 Cd16 2.228 . S
Cd16 O15 2.228 . S
Cd16 O20 2.273 . S
Cd16 O24 2.277 . S
O17 C14 1.160 . S
O17 Cd18 2.203 . S
Cd18 O17 2.203 . S
Cd18 O20 2.411 . S
Cd18 O21 2.333 . S
Cd18 O22 2.352 . S
Cd18 O26 2.277 . S
Cd18 O27 2.356 . S
C19 O24 1.209 . S
C19 O26 1.226 . S
O20 Cd16 2.273 . S
O20 Cd18 2.411 . S
O20 C23 1.320 . S
O21 Cd18 2.333 . S
O21 C23 1.214 . S
O22 Cd18 2.352 . S
O22 C25 1.258 . S
C23 O20 1.320 . S
C23 O21 1.214 . S
O24 Cd16 2.277 . S
O24 C19 1.209 . S
C25 O22 1.258 . S
C25 O27 1.282 . S
O26 Cd18 2.277 . S
O26 C19 1.226 . S
O27 Cd18 2.356 . S
O27 C25 1.282 . S
C28 O29 1.306 . S
C28 O31 1.160 . S
O29 C28 1.306 . S
O29 Cd30 2.228 . S
Cd30 O29 2.228 . S
Cd30 O34 2.273 . S
Cd30 O38 2.277 . S
O31 C28 1.160 . S
O31 Cd32 2.203 . S
Cd32 O31 2.203 . S
Cd32 O34 2.411 . S
Cd32 O35 2.333 . S
Cd32 O36 2.352 . S
Cd32 O40 2.277 . S
Cd32 O41 2.356 . S
C33 O38 1.209 . S
C33 O40 1.226 . S
O34 Cd30 2.273 . S
O34 Cd32 2.411 . S
O34 C37 1.320 . S
O35 Cd32 2.333 . S
O35 C37 1.214 . S
O36 Cd32 2.352 . S
O36 C39 1.258 . S
C37 O34 1.320 . S
C37 O35 1.214 . S
O38 Cd30 2.277 . S
O38 C33 1.209 . S
C39 O36 1.258 . S
C39 O41 1.282 . S
O40 Cd32 2.277 . S
O40 C33 1.226 . S
O41 Cd32 2.356 . S
O41 C39 1.282 . S
C42 O43 1.306 . S
C42 O45 1.160 . S
O43 C42 1.306 . S
O43 Cd44 2.228 1_556 S
Cd44 O43 2.228 1_554 S
Cd44 O48 2.273 . S
Cd44 O52 2.277 . S
O45 C42 1.160 . S
O45 Cd46 2.203 1_556 S
Cd46 O45 2.203 1_554 S
Cd46 O48 2.411 . S
Cd46 O49 2.333 . S
Cd46 O50 2.352 . S
Cd46 O54 2.277 . S
Cd46 O55 2.356 . S
C47 O52 1.209 . S
C47 O54 1.226 . S
O48 Cd44 2.273 . S
O48 Cd46 2.411 . S
O48 C51 1.320 . S
O49 Cd46 2.333 . S
O49 C51 1.214 . S
O50 Cd46 2.352 . S
O50 C53 1.258 . S
C51 O48 1.320 . S
C51 O49 1.214 . S
O52 Cd44 2.277 . S
O52 C47 1.209 . S
C53 O50 1.258 . S
C53 O55 1.282 . S
O54 Cd46 2.277 . S
O54 C47 1.226 . S
O55 Cd46 2.356 . S
O55 C53 1.282 . S
C56 O57 1.306 . S
C56 O59 1.160 . S
O57 C56 1.306 . S
O57 Cd58 2.228 . S
Cd58 O57 2.228 . S
Cd58 O62 2.273 . S
Cd58 O66 2.277 . S
O59 C56 1.160 . S
O59 Cd60 2.203 . S
Cd60 O59 2.203 . S
Cd60 O62 2.411 . S
Cd60 O63 2.333 . S
Cd60 O64 2.352 . S
Cd60 O68 2.277 . S
Cd60 O69 2.356 . S
C61 O66 1.209 . S
C61 O68 1.226 . S
O62 Cd58 2.273 . S
O62 Cd60 2.411 . S
O62 C65 1.320 . S
O63 Cd60 2.333 . S
O63 C65 1.214 . S
O64 Cd60 2.352 . S
O64 C67 1.258 . S
C65 O62 1.320 . S
C65 O63 1.214 . S
O66 Cd58 2.277 . S
O66 C61 1.209 . S
C67 O64 1.258 . S
C67 O69 1.282 . S
O68 Cd60 2.277 . S
O68 C61 1.226 . S
O69 Cd60 2.356 . S
O69 C67 1.282 . S
C70 O71 1.306 . S
C70 O73 1.160 . S
O71 C70 1.306 . S
O71 Cd72 2.228 . S
Cd72 O71 2.228 . S
Cd72 O76 2.273 . S
Cd72 O80 2.277 . S
O73 C70 1.160 . S
O73 Cd74 2.203 . S
Cd74 O73 2.203 . S
Cd74 O76 2.411 . S
Cd74 O77 2.333 . S
Cd74 O78 2.352 . S
Cd74 O82 2.277 . S
Cd74 O83 2.356 . S
C75 O80 1.209 . S
C75 O82 1.226 . S
O76 Cd72 2.273 . S
O76 Cd74 2.411 . S
O76 C79 1.320 . S
O77 Cd74 2.333 . S
O77 C79 1.214 . S
O78 Cd74 2.352 . S
O78 C81 1.258 . S
C79 O76 1.320 . S
C79 O77 1.214 . S
O80 Cd72 2.277 . S
O80 C75 1.209 . S
C81 O78 1.258 . S
C81 O83 1.282 . S
O82 Cd74 2.277 . S
O82 C75 1.226 . S
O83 Cd74 2.356 . S
O83 C81 1.282 . S
C84 O85 1.306 . S
C84 O87 1.160 . S
O85 C84 1.306 . S
O85 Cd86 2.228 . S
Cd86 O85 2.228 . S
Cd86 O90 2.273 . S
Cd86 O94 2.277 . S
O87 C84 1.160 . S
O87 Cd88 2.203 . S
Cd88 O87 2.203 . S
Cd88 O90 2.411 . S
Cd88 O91 2.333 . S
Cd88 O92 2.352 . S
Cd88 O96 2.277 . S
Cd88 O97 2.356 . S
C89 O94 1.209 . S
C89 O96 1.226 . S
O90 Cd86 2.273 . S
O90 Cd88 2.411 . S
O90 C93 1.320 . S
O91 Cd88 2.333 . S
O91 C93 1.214 . S
O92 Cd88 2.352 . S
O92 C95 1.258 . S
C93 O90 1.320 . S
C93 O91 1.214 . S
O94 Cd86 2.277 . S
O94 C89 1.209 . S
C95 O92 1.258 . S
C95 O97 1.282 . S
O96 Cd88 2.277 . S
O96 C89 1.226 . S
O97 Cd88 2.356 . S
O97 C95 1.282 . S
C98 O99 1.306 . S
C98 O101 1.160 . S
O99 C98 1.306 . S
O99 Cd100 2.228 . S
Cd100 O99 2.228 . S
Cd100 O104 2.273 1_554 S
Cd100 O108 2.277 . S
O101 C98 1.160 . S
O101 Cd102 2.203 . S
Cd102 O101 2.203 . S
Cd102 O104 2.411 1_554 S
Cd102 O105 2.333 1_554 S
Cd102 O106 2.352 . S
Cd102 O110 2.277 . S
Cd102 O111 2.356 1_554 S
C103 O108 1.209 . S
C103 O110 1.226 . S
O104 Cd100 2.273 1_556 S
O104 Cd102 2.411 1_556 S
O104 C107 1.320 . S
O105 Cd102 2.333 1_556 S
O105 C107 1.214 . S
O106 Cd102 2.352 . S
O106 C109 1.258 . S
C107 O104 1.320 . S
C107 O105 1.214 . S
O108 Cd100 2.277 . S
O108 C103 1.209 . S
C109 O106 1.258 . S
C109 O111 1.282 1_554 S
O110 Cd102 2.277 . S
O110 C103 1.226 . S
O111 Cd102 2.356 1_556 S
O111 C109 1.282 1_556 S
C112 C113 1.387 . S
C112 H116 0.950 . S
C112 C121 1.390 . S
C113 C112 1.387 . S
C113 C115 1.387 . S
H114 C121 0.950 . S
C115 C113 1.387 . S
C115 C117 1.390 . S
C115 H119 0.950 . S
H116 C112 0.950 . S
C117 C115 1.390 . S
C117 C118 1.387 . S
C117 H120 0.950 . S
C118 C117 1.387 . S
C118 C121 1.387 . S
H119 C115 0.950 . S
H120 C117 0.950 . S
C121 C112 1.390 . S
C121 H114 0.950 . S
C121 C118 1.387 . S
C122 C123 1.387 . S
C122 H126 0.950 . S
C122 C131 1.390 . S
C123 C122 1.387 . S
C123 C125 1.387 . S
H124 C131 0.950 . S
C125 C123 1.387 . S
C125 C127 1.390 . S
C125 H129 0.950 . S
H126 C122 0.950 . S
C127 C125 1.390 . S
C127 C128 1.387 . S
C127 H130 0.950 . S
C128 C127 1.387 . S
C128 C131 1.387 . S
H129 C125 0.950 . S
H130 C127 0.950 . S
C131 C122 1.390 . S
C131 H124 0.950 . S
C131 C128 1.387 . S
C132 C133 1.387 . S
C132 H136 0.950 . S
C132 C141 1.390 . S
C133 C132 1.387 . S
C133 C135 1.387 . S
H134 C141 0.950 1_556 S
C135 C133 1.387 . S
C135 C137 1.390 . S
C135 H139 0.950 . S
H136 C132 0.950 . S
C137 C135 1.390 . S
C137 C138 1.387 1_554 S
C137 H140 0.950 1_554 S
C138 C137 1.387 1_556 S
C138 C141 1.387 1_556 S
H139 C135 0.950 . S
H140 C137 0.950 1_556 S
C141 C132 1.390 . S
C141 H134 0.950 1_554 S
C141 C138 1.387 1_554 S
C142 C143 1.387 . S
C142 H146 0.950 . S
C142 C151 1.390 . S
C143 C142 1.387 . S
C143 C145 1.387 . S
H144 C151 0.950 . S
C145 C143 1.387 . S
C145 C147 1.390 . S
C145 H149 0.950 . S
H146 C142 0.950 . S
C147 C145 1.390 . S
C147 C148 1.387 . S
C147 H150 0.950 . S
C148 C147 1.387 . S
C148 C151 1.387 . S
H149 C145 0.950 . S
H150 C147 0.950 . S
C151 C142 1.390 . S
C151 H144 0.950 . S
C151 C148 1.387 . S
C152 C153 1.387 . S
C152 H156 0.950 . S
C152 C161 1.390 . S
C153 C152 1.387 . S
C153 C155 1.387 . S
H154 C161 0.950 . S
C155 C153 1.387 . S
C155 C157 1.390 . S
C155 H159 0.950 . S
H156 C152 0.950 . S
C157 C155 1.390 . S
C157 C158 1.387 . S
C157 H160 0.950 . S
C158 C157 1.387 . S
C158 C161 1.387 . S
H159 C155 0.950 . S
H160 C157 0.950 . S
C161 C152 1.390 . S
C161 H154 0.950 . S
C161 C158 1.387 . S
C162 C163 1.387 . S
C162 H166 0.950 . S
C162 C171 1.390 . S
C163 C162 1.387 . S
C163 C165 1.387 . S
H164 C171 0.950 . S
C165 C163 1.387 . S
C165 C167 1.390 . S
C165 H169 0.950 . S
H166 C162 0.950 . S
C167 C165 1.390 . S
C167 C168 1.387 . S
C167 H170 0.950 . S
C168 C167 1.387 . S
C168 C171 1.387 . S
H169 C165 0.950 . S
H170 C167 0.950 . S
C171 C162 1.390 . S
C171 H164 0.950 . S
C171 C168 1.387 . S
C172 C173 1.387 . S
C172 H176 0.950 . S
C172 C181 1.390 . S
C173 C172 1.387 . S
C173 C175 1.387 . S
H174 C181 0.950 . S
C175 C173 1.387 . S
C175 C177 1.390 . S
C175 H179 0.950 1_556 S
H176 C172 0.950 . S
C177 C175 1.390 . S
C177 C178 1.387 . S
C177 H180 0.950 . S
C178 C177 1.387 . S
C178 C181 1.387 . S
H179 C175 0.950 1_554 S
H180 C177 0.950 . S
C181 C172 1.390 . S
C181 H174 0.950 . S
C181 C178 1.387 . S
C182 C183 1.387 . S
C182 H186 0.950 . S
C182 C191 1.390 . S
C183 C182 1.387 . S
C183 C185 1.387 . S
H184 C191 0.950 . S
C185 C183 1.387 . S
C185 C187 1.390 . S
C185 H189 0.950 . S
H186 C182 0.950 . S
C187 C185 1.390 . S
C187 C188 1.387 . S
C187 H190 0.950 . S
C188 C187 1.387 . S
C188 C191 1.387 . S
H189 C185 0.950 . S
H190 C187 0.950 . S
C191 C182 1.390 . S
C191 H184 0.950 . S
C191 C188 1.387 . S
C192 C193 1.387 . S
C192 H196 0.950 . S
C192 C201 1.390 1_565 S
C193 C192 1.387 . S
C193 C195 1.387 . S
H194 C201 0.950 . S
C195 C193 1.387 . S
C195 C197 1.390 1_565 S
C195 H199 0.950 . S
H196 C192 0.950 . S
C197 C195 1.390 1_545 S
C197 C198 1.387 . S
C197 H200 0.950 . S
C198 C197 1.387 . S
C198 C201 1.387 . S
H199 C195 0.950 . S
H200 C197 0.950 . S
C201 C192 1.390 1_545 S
C201 H194 0.950 . S
C201 C198 1.387 . S
C202 C203 1.387 . S
C202 H206 0.950 . S
C202 C211 1.390 1_655 S
C203 C202 1.387 . S
C203 C205 1.387 . S
H204 C211 0.950 . S
C205 C203 1.387 . S
C205 C207 1.390 1_655 S
C205 H209 0.950 . S
H206 C202 0.950 . S
C207 C205 1.390 1_455 S
C207 C208 1.387 . S
C207 H210 0.950 . S
C208 C207 1.387 . S
C208 C211 1.387 . S
H209 C205 0.950 . S
H210 C207 0.950 . S
C211 C202 1.390 1_455 S
C211 H204 0.950 . S
C211 C208 1.387 . S
C212 C213 1.387 . S
C212 H216 0.950 . S
C212 C221 1.390 1_565 S
C213 C212 1.387 . S
C213 C215 1.387 . S
H214 C221 0.950 . S
C215 C213 1.387 . S
C215 C217 1.390 1_565 S
C215 H219 0.950 . S
H216 C212 0.950 . S
C217 C215 1.390 1_545 S
C217 C218 1.387 . S
C217 H220 0.950 . S
C218 C217 1.387 . S
C218 C221 1.387 . S
H219 C215 0.950 . S
H220 C217 0.950 . S
C221 C212 1.390 1_545 S
C221 H214 0.950 . S
C221 C218 1.387 . S
C222 C223 1.387 . S
C222 H226 0.950 . S
C222 C231 1.390 1_655 S
C223 C222 1.387 . S
C223 C225 1.387 . S
H224 C231 0.950 . S
C225 C223 1.387 . S
C225 C227 1.390 1_655 S
C225 H229 0.950 . S
H226 C222 0.950 . S
C227 C225 1.390 1_455 S
C227 C228 1.387 . S
C227 H230 0.950 . S
C228 C227 1.387 . S
C228 C231 1.387 . S
H229 C225 0.950 . S
H230 C227 0.950 . S
C231 C222 1.390 1_455 S
C231 H224 0.950 . S
C231 C228 1.387 . S
C232 C233 1.387 1_554 S
C232 H236 0.950 1_554 S
C232 C241 1.390 . S
C233 C232 1.387 1_556 S
C233 C235 1.387 1_556 S
H234 C241 0.950 . S
C235 C233 1.387 1_554 S
C235 C237 1.390 . S
C235 H239 0.950 1_554 S
H236 C232 0.950 1_556 S
C237 C235 1.390 . S
C237 C238 1.387 . S
C237 H240 0.950 . S
C238 C237 1.387 . S
C238 C241 1.387 . S
H239 C235 0.950 1_556 S
H240 C237 0.950 . S
C241 C232 1.390 . S
C241 H234 0.950 . S
C241 C238 1.387 . S
C242 C243 1.387 . S
C242 H246 0.950 . S
C242 C251 1.390 . S
C243 C242 1.387 . S
C243 C245 1.387 . S
H244 C251 0.950 . S
C245 C243 1.387 . S
C245 C247 1.390 . S
C245 H249 0.950 . S
H246 C242 0.950 . S
C247 C245 1.390 . S
C247 C248 1.387 . S
C247 H250 0.950 . S
C248 C247 1.387 . S
C248 C251 1.387 . S
H249 C245 0.950 . S
H250 C247 0.950 . S
C251 C242 1.390 . S
C251 H244 0.950 . S
C251 C248 1.387 . S
C252 C253 1.387 . S
C252 H256 0.950 . S
C252 C261 1.390 . S
C253 C252 1.387 . S
C253 C255 1.387 . S
H254 C261 0.950 . S
C255 C253 1.387 . S
C255 C257 1.390 . S
C255 H259 0.950 . S
H256 C252 0.950 . S
C257 C255 1.390 . S
C257 C258 1.387 . S
C257 H260 0.950 . S
C258 C257 1.387 . S
C258 C261 1.387 . S
H259 C255 0.950 . S
H260 C257 0.950 . S
C261 C252 1.390 . S
C261 H254 0.950 . S
C261 C258 1.387 . S
C262 C263 1.387 . S
C262 H266 0.950 . S
C262 C271 1.390 . S
C263 C262 1.387 . S
C263 C265 1.387 . S
H264 C271 0.950 . S
C265 C263 1.387 . S
C265 C267 1.390 . S
C265 H269 0.950 . S
H266 C262 0.950 . S
C267 C265 1.390 . S
C267 C268 1.387 . S
C267 H270 0.950 . S
C268 C267 1.387 . S
C268 C271 1.387 . S
H269 C265 0.950 . S
H270 C267 0.950 . S
C271 C262 1.390 . S
C271 H264 0.950 . S
C271 C268 1.387 . S
C113 C9 0.935 . S
C118 C93 0.935 . S
C123 C23 0.935 . S
C128 C107 0.935 . S
C133 C65 0.935 . S
C138 C37 0.935 . S
C143 C79 0.938 . S
C148 C51 0.938 . S
C153 C11 1.562 . S
C158 C81 1.562 . S
C163 C25 1.562 . S
C168 C95 1.561 . S
C173 C109 1.560 1_556 S
C178 C39 1.561 . S
C183 C53 1.562 . S
C188 C67 1.562 . S
C193 C61 1.502 . S
C198 C5 1.502 . S
C203 C19 1.502 . S
C208 C75 1.502 . S
C213 C33 1.501 . S
C218 C89 1.501 . S
C223 C103 1.501 . S
C228 C47 1.501 . S
C233 C84 1.508 . S
C238 C0 1.508 . S
C243 C98 1.506 . S
C248 C14 1.506 . S
C253 C28 1.506 . S
C258 C56 1.506 . S
C263 C42 1.506 . S
C268 C70 1.506 . S
