# Generated by pormake.
# Topology ull, (4)-cn, num edge types: 1
# Building blocks:
#     Node 0, Type 0, BuildingBlock: CEKHIL_clean_sbu_0, # of connection points: 4
#     Node 1, Type 0, BuildingBlock: CEKHIL_clean_sbu_0, # of connection points: 4
#     Node 2, Type 0, BuildingBlock: CEKHIL_clean_sbu_0, # of connection points: 4
#     Node 3, Type 0, BuildingBlock: CEKHIL_clean_sbu_0, # of connection points: 4
#     Node 4, Type 0, BuildingBlock: CEKHIL_clean_sbu_0, # of connection points: 4
#     Node 5, Type 0, BuildingBlock: CEKHIL_clean_sbu_0, # of connection points: 4
#     Node 6, Type 0, BuildingBlock: CEKHIL_clean_sbu_0, # of connection points: 4
#     Node 7, Type 0, BuildingBlock: CEKHIL_clean_sbu_0, # of connection points: 4
#     Node 8, Type 0, BuildingBlock: CEKHIL_clean_sbu_0, # of connection points: 4
#     Node 9, Type 0, BuildingBlock: CEKHIL_clean_sbu_0, # of connection points: 4
#     Node 10, Type 0, BuildingBlock: CEKHIL_clean_sbu_0, # of connection points: 4
#     Node 11, Type 0, BuildingBlock: CEKHIL_clean_sbu_0, # of connection points: 4
#     Node 12, Type 0, BuildingBlock: CEKHIL_clean_sbu_0, # of connection points: 4
#     Node 13, Type 0, BuildingBlock: CEKHIL_clean_sbu_0, # of connection points: 4
#     Node 14, Type 0, BuildingBlock: CEKHIL_clean_sbu_0, # of connection points: 4
#     Node 15, Type 0, BuildingBlock: CEKHIL_clean_sbu_0, # of connection points: 4
#     Node 16, Type 0, BuildingBlock: CEKHIL_clean_sbu_0, # of connection points: 4
#     Node 17, Type 0, BuildingBlock: CEKHIL_clean_sbu_0, # of connection points: 4
#     Node 18, Type 0, BuildingBlock: CEKHIL_clean_sbu_0, # of connection points: 4
#     Node 19, Type 0, BuildingBlock: CEKHIL_clean_sbu_0, # of connection points: 4
#     Node 20, Type 0, BuildingBlock: CEKHIL_clean_sbu_0, # of connection points: 4
#     Node 21, Type 0, BuildingBlock: CEKHIL_clean_sbu_0, # of connection points: 4
#     Node 22, Type 0, BuildingBlock: CEKHIL_clean_sbu_0, # of connection points: 4
#     Node 23, Type 0, BuildingBlock: CEKHIL_clean_sbu_0, # of connection points: 4
#     Node 24, Type 0, BuildingBlock: CEKHIL_clean_sbu_0, # of connection points: 4
#     Node 25, Type 0, BuildingBlock: CEKHIL_clean_sbu_0, # of connection points: 4
#     Node 26, Type 0, BuildingBlock: CEKHIL_clean_sbu_0, # of connection points: 4
#     Node 27, Type 0, BuildingBlock: CEKHIL_clean_sbu_0, # of connection points: 4
#     Node 28, Type 0, BuildingBlock: CEKHIL_clean_sbu_0, # of connection points: 4
#     Node 29, Type 0, BuildingBlock: CEKHIL_clean_sbu_0, # of connection points: 4
#     Node 30, Type 0, BuildingBlock: CEKHIL_clean_sbu_0, # of connection points: 4
#     Node 31, Type 0, BuildingBlock: CEKHIL_clean_sbu_0, # of connection points: 4
#     Node 32, Type 0, BuildingBlock: CEKHIL_clean_sbu_0, # of connection points: 4
#     Node 33, Type 0, BuildingBlock: CEKHIL_clean_sbu_0, # of connection points: 4
#     Node 34, Type 0, BuildingBlock: CEKHIL_clean_sbu_0, # of connection points: 4
#     Node 35, Type 0, BuildingBlock: CEKHIL_clean_sbu_0, # of connection points: 4
#     Node 36, Type 0, BuildingBlock: CEKHIL_clean_sbu_0, # of connection points: 4
#     Node 37, Type 0, BuildingBlock: CEKHIL_clean_sbu_0, # of connection points: 4
#     Node 38, Type 0, BuildingBlock: CEKHIL_clean_sbu_0, # of connection points: 4
#     Node 39, Type 0, BuildingBlock: CEKHIL_clean_sbu_0, # of connection points: 4
#     Node 40, Type 0, BuildingBlock: CEKHIL_clean_sbu_0, # of connection points: 4
#     Node 41, Type 0, BuildingBlock: CEKHIL_clean_sbu_0, # of connection points: 4
#     Node 42, Type 0, BuildingBlock: CEKHIL_clean_sbu_0, # of connection points: 4
#     Node 43, Type 0, BuildingBlock: CEKHIL_clean_sbu_0, # of connection points: 4
#     Node 44, Type 0, BuildingBlock: CEKHIL_clean_sbu_0, # of connection points: 4
#     Node 45, Type 0, BuildingBlock: CEKHIL_clean_sbu_0, # of connection points: 4
#     Node 46, Type 0, BuildingBlock: CEKHIL_clean_sbu_0, # of connection points: 4
#     Node 47, Type 0, BuildingBlock: CEKHIL_clean_sbu_0, # of connection points: 4
#     Edge 48, Type (0, 0), BuildingBlock: UVAHIK_clean_linker_0, # of connection points: 2
#     Edge 49, Type (0, 0), BuildingBlock: UVAHIK_clean_linker_0, # of connection points: 2
#     Edge 50, Type (0, 0), BuildingBlock: UVAHIK_clean_linker_0, # of connection points: 2
#     Edge 51, Type (0, 0), BuildingBlock: UVAHIK_clean_linker_0, # of connection points: 2
#     Edge 52, Type (0, 0), BuildingBlock: UVAHIK_clean_linker_0, # of connection points: 2
#     Edge 53, Type (0, 0), BuildingBlock: UVAHIK_clean_linker_0, # of connection points: 2
#     Edge 54, Type (0, 0), BuildingBlock: UVAHIK_clean_linker_0, # of connection points: 2
#     Edge 55, Type (0, 0), BuildingBlock: UVAHIK_clean_linker_0, # of connection points: 2
#     Edge 56, Type (0, 0), BuildingBlock: UVAHIK_clean_linker_0, # of connection points: 2
#     Edge 57, Type (0, 0), BuildingBlock: UVAHIK_clean_linker_0, # of connection points: 2
#     Edge 58, Type (0, 0), BuildingBlock: UVAHIK_clean_linker_0, # of connection points: 2
#     Edge 59, Type (0, 0), BuildingBlock: UVAHIK_clean_linker_0, # of connection points: 2
#     Edge 60, Type (0, 0), BuildingBlock: UVAHIK_clean_linker_0, # of connection points: 2
#     Edge 61, Type (0, 0), BuildingBlock: UVAHIK_clean_linker_0, # of connection points: 2
#     Edge 62, Type (0, 0), BuildingBlock: UVAHIK_clean_linker_0, # of connection points: 2
#     Edge 63, Type (0, 0), BuildingBlock: UVAHIK_clean_linker_0, # of connection points: 2
#     Edge 64, Type (0, 0), BuildingBlock: UVAHIK_clean_linker_0, # of connection points: 2
#     Edge 65, Type (0, 0), BuildingBlock: UVAHIK_clean_linker_0, # of connection points: 2
#     Edge 66, Type (0, 0), BuildingBlock: UVAHIK_clean_linker_0, # of connection points: 2
#     Edge 67, Type (0, 0), BuildingBlock: UVAHIK_clean_linker_0, # of connection points: 2
#     Edge 68, Type (0, 0), BuildingBlock: UVAHIK_clean_linker_0, # of connection points: 2
#     Edge 69, Type (0, 0), BuildingBlock: UVAHIK_clean_linker_0, # of connection points: 2
#     Edge 70, Type (0, 0), BuildingBlock: UVAHIK_clean_linker_0, # of connection points: 2
#     Edge 71, Type (0, 0), BuildingBlock: UVAHIK_clean_linker_0, # of connection points: 2
#     Edge 72, Type (0, 0), BuildingBlock: UVAHIK_clean_linker_0, # of connection points: 2
#     Edge 73, Type (0, 0), BuildingBlock: UVAHIK_clean_linker_0, # of connection points: 2
#     Edge 74, Type (0, 0), BuildingBlock: UVAHIK_clean_linker_0, # of connection points: 2
#     Edge 75, Type (0, 0), BuildingBlock: UVAHIK_clean_linker_0, # of connection points: 2
#     Edge 76, Type (0, 0), BuildingBlock: UVAHIK_clean_linker_0, # of connection points: 2
#     Edge 77, Type (0, 0), BuildingBlock: UVAHIK_clean_linker_0, # of connection points: 2
#     Edge 78, Type (0, 0), BuildingBlock: UVAHIK_clean_linker_0, # of connection points: 2
#     Edge 79, Type (0, 0), BuildingBlock: UVAHIK_clean_linker_0, # of connection points: 2
#     Edge 80, Type (0, 0), BuildingBlock: UVAHIK_clean_linker_0, # of connection points: 2
#     Edge 81, Type (0, 0), BuildingBlock: UVAHIK_clean_linker_0, # of connection points: 2
#     Edge 82, Type (0, 0), BuildingBlock: UVAHIK_clean_linker_0, # of connection points: 2
#     Edge 83, Type (0, 0), BuildingBlock: UVAHIK_clean_linker_0, # of connection points: 2
#     Edge 84, Type (0, 0), BuildingBlock: UVAHIK_clean_linker_0, # of connection points: 2
#     Edge 85, Type (0, 0), BuildingBlock: UVAHIK_clean_linker_0, # of connection points: 2
#     Edge 86, Type (0, 0), BuildingBlock: UVAHIK_clean_linker_0, # of connection points: 2
#     Edge 87, Type (0, 0), BuildingBlock: UVAHIK_clean_linker_0, # of connection points: 2
#     Edge 88, Type (0, 0), BuildingBlock: UVAHIK_clean_linker_0, # of connection points: 2
#     Edge 89, Type (0, 0), BuildingBlock: UVAHIK_clean_linker_0, # of connection points: 2
#     Edge 90, Type (0, 0), BuildingBlock: UVAHIK_clean_linker_0, # of connection points: 2
#     Edge 91, Type (0, 0), BuildingBlock: UVAHIK_clean_linker_0, # of connection points: 2
#     Edge 92, Type (0, 0), BuildingBlock: UVAHIK_clean_linker_0, # of connection points: 2
#     Edge 93, Type (0, 0), BuildingBlock: UVAHIK_clean_linker_0, # of connection points: 2
#     Edge 94, Type (0, 0), BuildingBlock: UVAHIK_clean_linker_0, # of connection points: 2
#     Edge 95, Type (0, 0), BuildingBlock: UVAHIK_clean_linker_0, # of connection points: 2
#     Edge 96, Type (0, 0), BuildingBlock: UVAHIK_clean_linker_0, # of connection points: 2
#     Edge 97, Type (0, 0), BuildingBlock: UVAHIK_clean_linker_0, # of connection points: 2
#     Edge 98, Type (0, 0), BuildingBlock: UVAHIK_clean_linker_0, # of connection points: 2
#     Edge 99, Type (0, 0), BuildingBlock: UVAHIK_clean_linker_0, # of connection points: 2
#     Edge 100, Type (0, 0), BuildingBlock: UVAHIK_clean_linker_0, # of connection points: 2
#     Edge 101, Type (0, 0), BuildingBlock: UVAHIK_clean_linker_0, # of connection points: 2
#     Edge 102, Type (0, 0), BuildingBlock: UVAHIK_clean_linker_0, # of connection points: 2
#     Edge 103, Type (0, 0), BuildingBlock: UVAHIK_clean_linker_0, # of connection points: 2
#     Edge 104, Type (0, 0), BuildingBlock: UVAHIK_clean_linker_0, # of connection points: 2
#     Edge 105, Type (0, 0), BuildingBlock: UVAHIK_clean_linker_0, # of connection points: 2
#     Edge 106, Type (0, 0), BuildingBlock: UVAHIK_clean_linker_0, # of connection points: 2
#     Edge 107, Type (0, 0), BuildingBlock: UVAHIK_clean_linker_0, # of connection points: 2
#     Edge 108, Type (0, 0), BuildingBlock: UVAHIK_clean_linker_0, # of connection points: 2
#     Edge 109, Type (0, 0), BuildingBlock: UVAHIK_clean_linker_0, # of connection points: 2
#     Edge 110, Type (0, 0), BuildingBlock: UVAHIK_clean_linker_0, # of connection points: 2
#     Edge 111, Type (0, 0), BuildingBlock: UVAHIK_clean_linker_0, # of connection points: 2
#     Edge 112, Type (0, 0), BuildingBlock: UVAHIK_clean_linker_0, # of connection points: 2
#     Edge 113, Type (0, 0), BuildingBlock: UVAHIK_clean_linker_0, # of connection points: 2
#     Edge 114, Type (0, 0), BuildingBlock: UVAHIK_clean_linker_0, # of connection points: 2
#     Edge 115, Type (0, 0), BuildingBlock: UVAHIK_clean_linker_0, # of connection points: 2
#     Edge 116, Type (0, 0), BuildingBlock: UVAHIK_clean_linker_0, # of connection points: 2
#     Edge 117, Type (0, 0), BuildingBlock: UVAHIK_clean_linker_0, # of connection points: 2
#     Edge 118, Type (0, 0), BuildingBlock: UVAHIK_clean_linker_0, # of connection points: 2
#     Edge 119, Type (0, 0), BuildingBlock: UVAHIK_clean_linker_0, # of connection points: 2
#     Edge 120, Type (0, 0), BuildingBlock: UVAHIK_clean_linker_0, # of connection points: 2
#     Edge 121, Type (0, 0), BuildingBlock: UVAHIK_clean_linker_0, # of connection points: 2
#     Edge 122, Type (0, 0), BuildingBlock: UVAHIK_clean_linker_0, # of connection points: 2
#     Edge 123, Type (0, 0), BuildingBlock: UVAHIK_clean_linker_0, # of connection points: 2
#     Edge 124, Type (0, 0), BuildingBlock: UVAHIK_clean_linker_0, # of connection points: 2
#     Edge 125, Type (0, 0), BuildingBlock: UVAHIK_clean_linker_0, # of connection points: 2
#     Edge 126, Type (0, 0), BuildingBlock: UVAHIK_clean_linker_0, # of connection points: 2
#     Edge 127, Type (0, 0), BuildingBlock: UVAHIK_clean_linker_0, # of connection points: 2
#     Edge 128, Type (0, 0), BuildingBlock: UVAHIK_clean_linker_0, # of connection points: 2
#     Edge 129, Type (0, 0), BuildingBlock: UVAHIK_clean_linker_0, # of connection points: 2
#     Edge 130, Type (0, 0), BuildingBlock: UVAHIK_clean_linker_0, # of connection points: 2
#     Edge 131, Type (0, 0), BuildingBlock: UVAHIK_clean_linker_0, # of connection points: 2
#     Edge 132, Type (0, 0), BuildingBlock: UVAHIK_clean_linker_0, # of connection points: 2
#     Edge 133, Type (0, 0), BuildingBlock: UVAHIK_clean_linker_0, # of connection points: 2
#     Edge 134, Type (0, 0), BuildingBlock: UVAHIK_clean_linker_0, # of connection points: 2
#     Edge 135, Type (0, 0), BuildingBlock: UVAHIK_clean_linker_0, # of connection points: 2
#     Edge 136, Type (0, 0), BuildingBlock: UVAHIK_clean_linker_0, # of connection points: 2
#     Edge 137, Type (0, 0), BuildingBlock: UVAHIK_clean_linker_0, # of connection points: 2
#     Edge 138, Type (0, 0), BuildingBlock: UVAHIK_clean_linker_0, # of connection points: 2
#     Edge 139, Type (0, 0), BuildingBlock: UVAHIK_clean_linker_0, # of connection points: 2
#     Edge 140, Type (0, 0), BuildingBlock: UVAHIK_clean_linker_0, # of connection points: 2
#     Edge 141, Type (0, 0), BuildingBlock: UVAHIK_clean_linker_0, # of connection points: 2
#     Edge 142, Type (0, 0), BuildingBlock: UVAHIK_clean_linker_0, # of connection points: 2
#     Edge 143, Type (0, 0), BuildingBlock: UVAHIK_clean_linker_0, # of connection points: 2
# Relax obj value: 0.022
# Max RMSD: 0.082
# Mean RMSD: 0.082
data_MOF--net-ull--node1-CEKHIL_clean_sbu_0--edge1-UVAHIK_clean_linker_0
_symmetry_space_group_name_H-M    P1
_symmetry_Int_Tables_number       1
_symmetry_cell_setting            triclinic
loop_
_symmetry_equiv_pos_as_xyz
'x, y, z'
_cell_length_a     78.519297
_cell_length_b     78.511934
_cell_length_c     78.515372
_cell_angle_alpha  90.009009
_cell_angle_beta   90.0037
_cell_angle_gamma 90.000939
loop_
_atom_site_label
_atom_site_type_symbol
_atom_site_fract_x
_atom_site_fract_y
_atom_site_fract_z
_atom_type_partial_charge
Co0 Co 0.04049 0.33816 0.16942 0.0
O1 O 0.05884 0.34375 0.18446 0.0
O2 O 0.03318 0.35538 0.18557 0.0
C3 C 0.05598 0.33966 0.14528 0.0
O4 O 0.0187 0.33596 0.1554 0.0
Co5 Co 0.04243 0.30509 0.14758 0.0
O6 O 0.02194 0.31463 0.13647 0.0
C7 C 0.03359 0.30283 0.18412 0.0
C8 C 0.04869 0.35476 0.19141 0.0
C9 C 0.01346 0.32701 0.14267 0.0
O10 O 0.03297 0.3192 0.1852 0.0
O11 O 0.03837 0.29497 0.17065 0.0
O12 O 0.04985 0.3534 0.15213 0.0
O13 O 0.05391 0.32586 0.15398 0.0
Co14 Co 0.6614 0.04059 0.1702 0.0
O15 O 0.65485 0.05779 0.18622 0.0
O16 O 0.64436 0.03157 0.18562 0.0
C17 C 0.65971 0.05709 0.14677 0.0
O18 O 0.66473 0.01972 0.15514 0.0
Co19 Co 0.69482 0.04486 0.14946 0.0
O20 O 0.68657 0.0244 0.13716 0.0
C21 C 0.69661 0.03522 0.1857 0.0
C22 C 0.64448 0.04661 0.19259 0.0
C23 C 0.67422 0.0153 0.14251 0.0
O24 O 0.68035 0.03305 0.18593 0.0
O25 O 0.70456 0.04134 0.17284 0.0
O26 O 0.64611 0.05013 0.15309 0.0
O27 O 0.6734 0.05528 0.15572 0.0
Co28 Co 0.95822 0.65995 0.16936 0.0
O29 O 0.9407 0.65432 0.18538 0.0
O30 O 0.96646 0.64277 0.18503 0.0
C31 C 0.94173 0.65864 0.14589 0.0
O32 O 0.9793 0.66224 0.15435 0.0
Co33 Co 0.95537 0.69323 0.14798 0.0
O34 O 0.97549 0.68393 0.13597 0.0
C35 C 0.96585 0.69519 0.18404 0.0
C36 C 0.95139 0.64354 0.1919 0.0
C37 C 0.98413 0.6714 0.14162 0.0
O38 O 0.96651 0.67881 0.18486 0.0
O39 O 0.96047 0.70323 0.17092 0.0
O40 O 0.94803 0.64483 0.15243 0.0
O41 O 0.94415 0.67237 0.15462 0.0
Co42 Co 0.33899 0.95899 0.16936 0.0
O43 O 0.34477 0.94054 0.18417 0.0
O44 O 0.35639 0.96622 0.18536 0.0
C45 C 0.34017 0.94372 0.14507 0.0
O46 O 0.33654 0.98083 0.15552 0.0
Co47 Co 0.3054 0.95703 0.14845 0.0
O48 O 0.31417 0.97812 0.13772 0.0
C49 C 0.30399 0.96429 0.18522 0.0
C50 C 0.35579 0.95068 0.19113 0.0
C51 C 0.32696 0.98636 0.14339 0.0
O52 O 0.32027 0.96631 0.18548 0.0
O53 O 0.29591 0.95895 0.1721 0.0
O54 O 0.354 0.94981 0.15178 0.0
O55 O 0.3265 0.94565 0.15401 0.0
Co56 Co 0.04127 0.65982 0.83012 0.0
O57 O 0.05944 0.65323 0.81527 0.0
O58 O 0.03351 0.64218 0.81462 0.0
C59 C 0.05682 0.65893 0.85429 0.0
O60 O 0.0196 0.66304 0.84411 0.0
Co61 Co 0.0441 0.69372 0.85048 0.0
O62 O 0.02325 0.68529 0.86187 0.0
C63 C 0.03548 0.69467 0.81389 0.0
C64 C 0.04901 0.64223 0.80873 0.0
C65 C 0.01453 0.67276 0.85633 0.0
O66 O 0.0341 0.67832 0.81364 0.0
O67 O 0.04074 0.70294 0.82693 0.0
O68 O 0.05036 0.64507 0.848 0.0
O69 O 0.05503 0.6724 0.84503 0.0
Co70 Co 0.34081 0.04077 0.82934 0.0
O71 O 0.34792 0.05746 0.81303 0.0
O72 O 0.35832 0.03125 0.81478 0.0
C73 C 0.34172 0.05798 0.85232 0.0
O74 O 0.33687 0.02037 0.84488 0.0
Co75 Co 0.30666 0.04577 0.84878 0.0
O76 O 0.31432 0.02554 0.86182 0.0
C77 C 0.3062 0.03565 0.81266 0.0
C78 C 0.35843 0.04606 0.80733 0.0
C79 C 0.32684 0.01628 0.8572 0.0
O80 O 0.32235 0.03283 0.81322 0.0
O81 O 0.29794 0.04241 0.82499 0.0
O82 O 0.35555 0.05089 0.84667 0.0
O83 O 0.32835 0.05585 0.84298 0.0
Co84 Co 0.95956 0.33952 0.83024 0.0
O85 O 0.94223 0.34489 0.81393 0.0
O86 O 0.96793 0.35657 0.81449 0.0
C87 C 0.94266 0.34103 0.85344 0.0
O88 O 0.98049 0.33747 0.84554 0.0
Co89 Co 0.9566 0.3066 0.85214 0.0
O90 O 0.97648 0.31617 0.86432 0.0
C91 C 0.96733 0.30413 0.81614 0.0
C92 C 0.95297 0.35564 0.80743 0.0
C93 C 0.98519 0.32858 0.85851 0.0
O94 O 0.96807 0.32049 0.81506 0.0
O95 O 0.96183 0.29633 0.82937 0.0
O96 O 0.94907 0.35479 0.84688 0.0
O97 O 0.94532 0.32722 0.84491 0.0
Co98 Co 0.65898 0.95921 0.83018 0.0
O99 O 0.6528 0.94193 0.81411 0.0
O100 O 0.64151 0.96781 0.81499 0.0
C101 C 0.65807 0.94249 0.85352 0.0
O102 O 0.66194 0.98004 0.84541 0.0
Co103 Co 0.69293 0.95552 0.85028 0.0
O104 O 0.68438 0.97574 0.86276 0.0
C105 C 0.69376 0.96488 0.814 0.0
C106 C 0.64204 0.95283 0.8079 0.0
C107 C 0.67167 0.98456 0.85784 0.0
O108 O 0.67755 0.96737 0.81427 0.0
O109 O 0.70198 0.95852 0.82657 0.0
O110 O 0.64416 0.949 0.84739 0.0
O111 O 0.67157 0.94481 0.84441 0.0
Co112 Co 0.16883 0.0398 0.33931 0.0
O113 O 0.1849 0.05705 0.34556 0.0
O114 O 0.18411 0.0311 0.35666 0.0
C115 C 0.14549 0.05649 0.34044 0.0
O116 O 0.15362 0.01895 0.33627 0.0
Co117 Co 0.14848 0.0437 0.3055 0.0
O118 O 0.13616 0.02335 0.31392 0.0
C119 C 0.18473 0.03417 0.30437 0.0
C120 C 0.19116 0.04611 0.35623 0.0
C121 C 0.14118 0.01444 0.32654 0.0
O122 O 0.18463 0.03177 0.32059 0.0
O123 O 0.17207 0.0405 0.29625 0.0
O124 O 0.15167 0.04987 0.35428 0.0
O125 O 0.15453 0.05426 0.32689 0.0
Co126 Co 0.95864 0.16898 0.3394 0.0
O127 O 0.94175 0.18545 0.3457 0.0
O128 O 0.96777 0.18411 0.35661 0.0
C129 C 0.94153 0.14597 0.34069 0.0
O130 O 0.97922 0.15342 0.33638 0.0
Co131 Co 0.95448 0.14817 0.30591 0.0
O132 O 0.97446 0.13543 0.31456 0.0
C133 C 0.96545 0.1841 0.30424 0.0
C134 C 0.95293 0.19147 0.35627 0.0
C135 C 0.98352 0.14067 0.32698 0.0
O136 O 0.96689 0.18454 0.32058 0.0
O137 O 0.95938 0.17126 0.2962 0.0
O138 O 0.94831 0.1521 0.35448 0.0
O139 O 0.94389 0.15487 0.32707 0.0
Co140 Co 0.82982 0.95903 0.34136 0.0
O141 O 0.8134 0.94234 0.34826 0.0
O142 O 0.81503 0.96858 0.35862 0.0
C143 C 0.85283 0.94191 0.34264 0.0
O144 O 0.8454 0.97944 0.3377 0.0
Co145 Co 0.84989 0.95413 0.30755 0.0
O146 O 0.86272 0.97443 0.3154 0.0
C147 C 0.81374 0.96408 0.30646 0.0
C148 C 0.80761 0.95377 0.35871 0.0
C149 C 0.85787 0.98361 0.32789 0.0
O150 O 0.814 0.96694 0.32261 0.0
O151 O 0.82623 0.95734 0.29842 0.0
O152 O 0.8469 0.94895 0.35638 0.0
O153 O 0.84371 0.944 0.32911 0.0
Co154 Co 0.0396 0.82966 0.33905 0.0
O155 O 0.05651 0.81318 0.34523 0.0
O156 O 0.03045 0.81431 0.35606 0.0
C157 C 0.05666 0.85272 0.34072 0.0
O158 O 0.01899 0.84524 0.33615 0.0
Co159 Co 0.04387 0.85088 0.30583 0.0
O160 O 0.02392 0.86354 0.31462 0.0
C161 C 0.03315 0.8149 0.30368 0.0
C162 C 0.04532 0.807 0.35571 0.0
C163 C 0.0148 0.85815 0.32692 0.0
O164 O 0.03152 0.81428 0.31999 0.0
O165 O 0.03921 0.82786 0.29585 0.0
O166 O 0.04982 0.84641 0.35439 0.0
O167 O 0.05439 0.84397 0.32698 0.0
Co168 Co 0.16998 0.95824 0.66084 0.0
O169 O 0.18487 0.94019 0.6541 0.0
O170 O 0.18534 0.96616 0.64313 0.0
C171 C 0.14586 0.94264 0.65998 0.0
O172 O 0.15582 0.97977 0.66432 0.0
Co173 Co 0.15019 0.95494 0.695 0.0
O174 O 0.13839 0.97566 0.68675 0.0
C175 C 0.18678 0.96325 0.69552 0.0
C176 C 0.19133 0.95069 0.64312 0.0
C177 C 0.1436 0.98455 0.67419 0.0
O178 O 0.18657 0.96538 0.67925 0.0
O179 O 0.17399 0.95757 0.7039 0.0
O180 O 0.15208 0.94919 0.64614 0.0
O181 O 0.15523 0.94431 0.67341 0.0
Co182 Co 0.04136 0.16923 0.66113 0.0
O183 O 0.0592 0.18483 0.65529 0.0
O184 O 0.03335 0.18507 0.64396 0.0
C185 C 0.05737 0.14539 0.65975 0.0
O186 O 0.01996 0.15468 0.66373 0.0
Co187 Co 0.04422 0.14799 0.6945 0.0
O188 O 0.02354 0.13656 0.68569 0.0
C189 C 0.03486 0.18436 0.69637 0.0
C190 C 0.04857 0.19161 0.64462 0.0
C191 C 0.0149 0.14224 0.67317 0.0
O192 O 0.03363 0.18499 0.68002 0.0
O193 O 0.04027 0.17121 0.70437 0.0
O194 O 0.05103 0.15199 0.64597 0.0
O195 O 0.05527 0.15425 0.67344 0.0
Co196 Co 0.82949 0.04153 0.66112 0.0
O197 O 0.81442 0.05942 0.65433 0.0
O198 O 0.81416 0.03338 0.64351 0.0
C199 C 0.85345 0.05739 0.66012 0.0
O200 O 0.84376 0.0201 0.6646 0.0
Co201 Co 0.84958 0.04491 0.69507 0.0
O202 O 0.86147 0.02425 0.68678 0.0
C203 C 0.81301 0.03637 0.6959 0.0
C204 C 0.80804 0.0488 0.64342 0.0
C205 C 0.8561 0.01533 0.67431 0.0
O206 O 0.81305 0.03433 0.67962 0.0
O207 O 0.82587 0.04205 0.70417 0.0
O208 O 0.84727 0.05068 0.64633 0.0
O209 O 0.84419 0.05563 0.6736 0.0
Co210 Co 0.95813 0.8305 0.66217 0.0
O211 O 0.94006 0.81531 0.65614 0.0
O212 O 0.96575 0.81486 0.64456 0.0
C213 C 0.9422 0.85442 0.66119 0.0
O214 O 0.97966 0.84488 0.66491 0.0
Co215 Co 0.95537 0.85124 0.69589 0.0
O216 O 0.97584 0.86287 0.68696 0.0
C217 C 0.96508 0.8149 0.69712 0.0
C218 C 0.95034 0.80873 0.64503 0.0
C219 C 0.98457 0.85732 0.67445 0.0
O220 O 0.96584 0.81434 0.68074 0.0
O221 O 0.9599 0.82799 0.70536 0.0
O222 O 0.94855 0.84804 0.64733 0.0
O223 O 0.94432 0.84536 0.67475 0.0
Co224 Co 0.3392 0.16967 0.04001 0.0
O225 O 0.34553 0.18544 0.05752 0.0
O226 O 0.35616 0.18539 0.03137 0.0
C227 C 0.341 0.14605 0.05628 0.0
O228 O 0.33606 0.15494 0.01883 0.0
Co229 Co 0.30604 0.14835 0.0438 0.0
O230 O 0.31424 0.13678 0.02293 0.0
C231 C 0.30381 0.18479 0.03482 0.0
C232 C 0.35592 0.19208 0.04653 0.0
C233 C 0.32658 0.14243 0.01402 0.0
O234 O 0.32008 0.18536 0.03273 0.0
O235 O 0.29609 0.17166 0.04063 0.0
O236 O 0.3546 0.15251 0.04941 0.0
O237 O 0.32726 0.15487 0.05441 0.0
Co238 Co 0.3373 0.83059 0.95817 0.0
O239 O 0.34274 0.81488 0.94034 0.0
O240 O 0.3549 0.81498 0.96577 0.0
C241 C 0.33815 0.85413 0.94169 0.0
O242 O 0.33531 0.8455 0.9794 0.0
Co243 Co 0.30394 0.85198 0.956 0.0
O244 O 0.31425 0.86452 0.97526 0.0
C245 C 0.30235 0.81597 0.967 0.0
C246 C 0.35405 0.8085 0.95053 0.0
C247 C 0.32662 0.85866 0.98399 0.0
O248 O 0.31872 0.81489 0.96677 0.0
O249 O 0.29419 0.8292 0.96207 0.0
O250 O 0.3521 0.84769 0.94779 0.0
O251 O 0.32452 0.84532 0.94437 0.0
Co252 Co 0.1697 0.34024 0.95951 0.0
O253 O 0.18686 0.34604 0.94315 0.0
O254 O 0.18485 0.35724 0.969 0.0
C255 C 0.14737 0.34193 0.94151 0.0
O256 O 0.15337 0.33775 0.97956 0.0
Co257 Co 0.14811 0.3073 0.95492 0.0
O258 O 0.13463 0.31679 0.97397 0.0
C259 C 0.18336 0.30481 0.96794 0.0
C260 C 0.19268 0.35664 0.95441 0.0
C261 C 0.14003 0.32894 0.98328 0.0
O262 O 0.18455 0.32116 0.96848 0.0
O263 O 0.17038 0.29698 0.96191 0.0
O264 O 0.15354 0.35561 0.94846 0.0
O265 O 0.15584 0.32811 0.94431 0.0
Co266 Co 0.65916 0.16924 0.95938 0.0
O267 O 0.65367 0.18585 0.94235 0.0
O268 O 0.6423 0.18496 0.96818 0.0
C269 C 0.65736 0.14628 0.94221 0.0
O270 O 0.66132 0.1536 0.98004 0.0
Co271 Co 0.69181 0.14708 0.95599 0.0
O272 O 0.68086 0.13348 0.97421 0.0
C273 C 0.69471 0.18302 0.96689 0.0
C274 C 0.64308 0.19224 0.95331 0.0
C275 C 0.66908 0.13957 0.98357 0.0
O276 O 0.67837 0.18418 0.96786 0.0
O277 O 0.70236 0.16974 0.96128 0.0
O278 O 0.64369 0.15285 0.94881 0.0
O279 O 0.67124 0.15469 0.94485 0.0
Co280 Co 0.83034 0.65999 0.95862 0.0
O281 O 0.8134 0.65411 0.94205 0.0
O282 O 0.81509 0.643 0.96796 0.0
C283 C 0.85291 0.65834 0.94092 0.0
O284 O 0.84638 0.66253 0.9789 0.0
Co285 Co 0.85193 0.69294 0.95433 0.0
O286 O 0.86508 0.68363 0.97372 0.0
C287 C 0.81626 0.69542 0.96613 0.0
C288 C 0.80744 0.64355 0.95328 0.0
C289 C 0.8596 0.6714 0.98289 0.0
O290 O 0.81532 0.67908 0.96728 0.0
O291 O 0.82926 0.70318 0.96004 0.0
O292 O 0.8467 0.64464 0.94781 0.0
O293 O 0.84437 0.67213 0.94363 0.0
Co294 Co 0.66161 0.83043 0.04095 0.0
O295 O 0.65587 0.81414 0.0582 0.0
O296 O 0.64435 0.81496 0.03244 0.0
C297 C 0.66041 0.8536 0.05789 0.0
O298 O 0.66404 0.84578 0.0201 0.0
Co299 Co 0.69494 0.85165 0.04423 0.0
O300 O 0.68561 0.86418 0.02443 0.0
C301 C 0.6968 0.81563 0.03353 0.0
C302 C 0.64509 0.80783 0.04739 0.0
C303 C 0.67316 0.85868 0.01559 0.0
O304 O 0.68043 0.81496 0.0325 0.0
O305 O 0.70482 0.82864 0.03924 0.0
O306 O 0.64656 0.84728 0.05141 0.0
O307 O 0.67408 0.84483 0.0553 0.0
Co308 Co 0.16948 0.65953 0.04146 0.0
O309 O 0.18459 0.65271 0.05931 0.0
O310 O 0.18508 0.64225 0.03313 0.0
C311 C 0.14552 0.65798 0.05724 0.0
O312 O 0.15522 0.66305 0.02002 0.0
Co313 Co 0.14865 0.69303 0.04516 0.0
O314 O 0.13697 0.68475 0.0244 0.0
C315 C 0.18524 0.69469 0.03653 0.0
C316 C 0.19113 0.64201 0.04857 0.0
C317 C 0.14266 0.67253 0.01534 0.0
O318 O 0.18566 0.6784 0.0346 0.0
O319 O 0.17211 0.70262 0.0421 0.0
O320 O 0.15189 0.64435 0.05038 0.0
O321 O 0.15458 0.67161 0.05566 0.0
Co322 Co 0.82959 0.33828 0.04039 0.0
O323 O 0.81402 0.34427 0.05813 0.0
O324 O 0.81381 0.35552 0.03228 0.0
C325 C 0.85321 0.33991 0.05669 0.0
O326 O 0.84433 0.33559 0.01913 0.0
Co327 Co 0.85091 0.30505 0.04374 0.0
O328 O 0.86278 0.31403 0.02341 0.0
C329 C 0.81475 0.30297 0.03358 0.0
C330 C 0.80745 0.35514 0.04759 0.0
C331 C 0.85708 0.32633 0.01448 0.0
O332 O 0.81391 0.31933 0.03267 0.0
O333 O 0.82793 0.29502 0.03898 0.0
O334 O 0.84669 0.35356 0.05004 0.0
O335 O 0.84445 0.32614 0.0546 0.0
Co336 Co 0.54127 0.83723 0.66919 0.0
O337 O 0.55968 0.8436 0.68387 0.0
O338 O 0.53376 0.85464 0.68503 0.0
C339 C 0.55643 0.83843 0.64481 0.0
O340 O 0.51934 0.83427 0.65555 0.0
Co341 Co 0.54346 0.8037 0.64819 0.0
O342 O 0.52242 0.81235 0.6373 0.0
C343 C 0.53562 0.80216 0.68496 0.0
C344 C 0.54934 0.8545 0.69071 0.0
C345 C 0.51392 0.82484 0.64326 0.0
O346 O 0.53435 0.81851 0.68552 0.0
O347 O 0.54052 0.79409 0.67166 0.0
O348 O 0.55011 0.85221 0.6514 0.0
O349 O 0.55474 0.82481 0.65387 0.0
Co350 Co 0.16025 0.54154 0.66925 0.0
O351 O 0.15362 0.55801 0.686 0.0
O352 O 0.14272 0.53205 0.68381 0.0
C353 C 0.15937 0.55931 0.64669 0.0
O354 O 0.16361 0.52137 0.65322 0.0
Co355 Co 0.19416 0.54627 0.64938 0.0
O356 O 0.18576 0.52669 0.63583 0.0
C357 C 0.19503 0.53492 0.68519 0.0
C358 C 0.14293 0.5467 0.69155 0.0
C359 C 0.17325 0.51747 0.64052 0.0
O360 O 0.17875 0.53293 0.685 0.0
O361 O 0.20329 0.54151 0.67277 0.0
O362 O 0.1455 0.55228 0.65233 0.0
O363 O 0.17282 0.55671 0.65579 0.0
Co364 Co 0.4586 0.16035 0.66957 0.0
O365 O 0.44063 0.15336 0.68448 0.0
O366 O 0.46669 0.14258 0.68472 0.0
C367 C 0.44288 0.15967 0.64551 0.0
O368 O 0.4801 0.16394 0.65549 0.0
Co369 Co 0.4555 0.19451 0.64981 0.0
O370 O 0.47635 0.18642 0.63808 0.0
C371 C 0.4637 0.19492 0.68646 0.0
C372 C 0.45126 0.14239 0.69077 0.0
C373 C 0.4851 0.17381 0.64337 0.0
O374 O 0.46575 0.17865 0.68625 0.0
O375 O 0.45808 0.20333 0.67366 0.0
O376 O 0.4495 0.14578 0.65157 0.0
O377 O 0.44462 0.17304 0.65494 0.0
Co378 Co 0.83797 0.45808 0.66909 0.0
O379 O 0.84267 0.44033 0.68517 0.0
O380 O 0.85557 0.4654 0.6848 0.0
C381 C 0.83863 0.44109 0.6459 0.0
O382 O 0.83697 0.47916 0.65389 0.0
Co383 Co 0.80526 0.45713 0.64682 0.0
O384 O 0.81773 0.47432 0.63323 0.0
C385 C 0.80316 0.46868 0.68271 0.0
C386 C 0.85425 0.45029 0.69148 0.0
C387 C 0.82979 0.48308 0.63966 0.0
O388 O 0.81944 0.46748 0.68435 0.0
O389 O 0.79518 0.4643 0.66917 0.0
O390 O 0.85266 0.44692 0.6524 0.0
O391 O 0.82494 0.44448 0.65437 0.0
Co392 Co 0.54162 0.16042 0.33044 0.0
O393 O 0.55971 0.1541 0.31542 0.0
O394 O 0.53389 0.1428 0.31489 0.0
C395 C 0.55725 0.15947 0.35452 0.0
O396 O 0.52008 0.16349 0.34469 0.0
Co397 Co 0.54464 0.19437 0.35077 0.0
O398 O 0.52409 0.18567 0.36249 0.0
C399 C 0.53553 0.1953 0.31432 0.0
C400 C 0.54933 0.14307 0.30885 0.0
C401 C 0.51527 0.17315 0.35708 0.0
O402 O 0.53421 0.17895 0.31411 0.0
O403 O 0.54093 0.20361 0.32728 0.0
O404 O 0.5509 0.1456 0.34815 0.0
O405 O 0.55542 0.17297 0.34532 0.0
Co406 Co 0.83785 0.54059 0.33054 0.0
O407 O 0.84342 0.55812 0.3146 0.0
O408 O 0.85519 0.53249 0.31483 0.0
C409 C 0.83924 0.55729 0.35386 0.0
O410 O 0.83549 0.51964 0.34577 0.0
Co411 Co 0.80451 0.54387 0.35168 0.0
O412 O 0.81484 0.52503 0.36492 0.0
C413 C 0.80268 0.53373 0.31554 0.0
C414 C 0.85444 0.54766 0.30815 0.0
C415 C 0.82698 0.51582 0.3593 0.0
O416 O 0.81901 0.53226 0.31507 0.0
O417 O 0.79465 0.53957 0.32849 0.0
O418 O 0.85301 0.55083 0.34739 0.0
O419 O 0.82551 0.55484 0.34514 0.0
Co420 Co 0.4591 0.83903 0.33089 0.0
O421 O 0.44158 0.84476 0.31491 0.0
O422 O 0.46751 0.85594 0.31504 0.0
C423 C 0.44278 0.84078 0.35444 0.0
O424 O 0.48021 0.83658 0.34583 0.0
Co425 Co 0.45593 0.80594 0.35246 0.0
O426 O 0.47617 0.8151 0.3644 0.0
C427 C 0.4658 0.8036 0.31627 0.0
C428 C 0.45242 0.85529 0.30823 0.0
C429 C 0.48493 0.82749 0.35865 0.0
O430 O 0.467 0.81994 0.31547 0.0
O431 O 0.46029 0.79574 0.32946 0.0
O432 O 0.44923 0.85444 0.34772 0.0
O433 O 0.44493 0.82693 0.34581 0.0
Co434 Co 0.16024 0.45975 0.32892 0.0
O435 O 0.15492 0.44297 0.31204 0.0
O436 O 0.14344 0.46874 0.3132 0.0
C437 C 0.15822 0.44213 0.3515 0.0
O438 O 0.16234 0.48009 0.34496 0.0
Co439 Co 0.19288 0.45571 0.35094 0.0
O440 O 0.18205 0.47383 0.36481 0.0
C441 C 0.19583 0.46682 0.31513 0.0
C442 C 0.14433 0.45396 0.30574 0.0
C443 C 0.17022 0.48332 0.35901 0.0
O444 O 0.17953 0.46846 0.31426 0.0
O445 O 0.20344 0.46062 0.32816 0.0
O446 O 0.14463 0.44894 0.345 0.0
O447 O 0.17217 0.44488 0.34323 0.0
Co448 Co 0.66943 0.54215 0.83908 0.0
O449 O 0.6841 0.5604 0.84577 0.0
O450 O 0.68531 0.53428 0.85632 0.0
C451 C 0.64504 0.55726 0.84071 0.0
O452 O 0.65568 0.52036 0.83561 0.0
Co453 Co 0.64853 0.5454 0.80554 0.0
O454 O 0.63746 0.5243 0.8138 0.0
C455 C 0.68529 0.53765 0.80389 0.0
C456 C 0.69097 0.54987 0.85647 0.0
C457 C 0.6433 0.51538 0.82604 0.0
O458 O 0.68571 0.53562 0.82017 0.0
O459 O 0.67208 0.54302 0.79596 0.0
O460 O 0.65169 0.55065 0.85433 0.0
O461 O 0.6541 0.55592 0.82705 0.0
Co462 Co 0.45793 0.66917 0.83978 0.0
O463 O 0.44111 0.68602 0.84512 0.0
O464 O 0.46666 0.68454 0.85704 0.0
C465 C 0.44026 0.64655 0.84096 0.0
O466 O 0.47833 0.65317 0.83776 0.0
Co467 Co 0.45443 0.6476 0.80667 0.0
O468 O 0.47339 0.63437 0.81668 0.0
C469 C 0.4666 0.68318 0.80456 0.0
C470 C 0.45193 0.69209 0.85602 0.0
C471 C 0.48238 0.63986 0.82903 0.0
O472 O 0.46711 0.68419 0.82093 0.0
O473 O 0.46075 0.67018 0.79661 0.0
O474 O 0.44675 0.65278 0.85483 0.0
O475 O 0.44331 0.6551 0.82726 0.0
Co476 Co 0.32944 0.45844 0.83933 0.0
O477 O 0.3148 0.44022 0.8462 0.0
O478 O 0.31444 0.46609 0.85744 0.0
C479 C 0.35365 0.44295 0.83945 0.0
O480 O 0.3433 0.48011 0.83587 0.0
Co481 Co 0.34859 0.45595 0.80479 0.0
O482 O 0.36034 0.47673 0.81305 0.0
C483 C 0.31181 0.46327 0.80518 0.0
C484 C 0.30853 0.45059 0.85742 0.0
C485 C 0.35525 0.48528 0.82589 0.0
O486 O 0.31242 0.46569 0.82139 0.0
O487 O 0.32444 0.45766 0.79653 0.0
O488 O 0.34771 0.44931 0.85351 0.0
O489 O 0.34401 0.44478 0.82624 0.0
Co490 Co 0.54125 0.33064 0.83855 0.0
O491 O 0.55946 0.31593 0.84526 0.0
O492 O 0.53357 0.31529 0.8564 0.0
C493 C 0.55674 0.35484 0.83922 0.0
O494 O 0.51957 0.34456 0.83504 0.0
Co495 Co 0.54425 0.35029 0.80429 0.0
O496 O 0.52334 0.36184 0.81244 0.0
C497 C 0.53635 0.3136 0.80402 0.0
C498 C 0.54909 0.30941 0.85631 0.0
C499 C 0.51456 0.3566 0.82506 0.0
O500 O 0.53418 0.3139 0.82028 0.0
O501 O 0.54195 0.32637 0.79556 0.0
O502 O 0.55023 0.34869 0.85311 0.0
O503 O 0.55504 0.34541 0.82584 0.0
Co504 Co 0.66945 0.45869 0.15949 0.0
O505 O 0.68532 0.44139 0.1529 0.0
O506 O 0.68486 0.46759 0.14237 0.0
C507 C 0.64593 0.44228 0.15795 0.0
O508 O 0.6545 0.47964 0.16294 0.0
Co509 Co 0.64895 0.45436 0.19313 0.0
O510 O 0.63694 0.47511 0.18518 0.0
C511 C 0.68535 0.46321 0.19456 0.0
C512 C 0.69172 0.4525 0.14249 0.0
C513 C 0.64212 0.48416 0.17273 0.0
O514 O 0.6853 0.46611 0.17841 0.0
O515 O 0.67261 0.45682 0.20247 0.0
O516 O 0.65221 0.44915 0.14427 0.0
O517 O 0.65496 0.44413 0.17157 0.0
Co518 Co 0.5406 0.66948 0.16105 0.0
O519 O 0.55909 0.68435 0.15547 0.0
O520 O 0.53359 0.68544 0.14351 0.0
C521 C 0.55603 0.64523 0.16011 0.0
O522 O 0.51869 0.65563 0.16316 0.0
Co523 Co 0.54198 0.64813 0.19442 0.0
O524 O 0.52133 0.63718 0.18497 0.0
C525 C 0.53333 0.68473 0.19608 0.0
C526 C 0.54911 0.69123 0.14426 0.0
C527 C 0.51312 0.6432 0.17233 0.0
O528 O 0.53289 0.68556 0.17969 0.0
O529 O 0.53801 0.67137 0.20418 0.0
O530 O 0.55008 0.65189 0.1462 0.0
O531 O 0.55381 0.65415 0.17374 0.0
Co532 Co 0.32979 0.54053 0.15866 0.0
O533 O 0.31316 0.55701 0.1518 0.0
O534 O 0.31488 0.53071 0.14162 0.0
C535 C 0.35253 0.558 0.15697 0.0
O536 O 0.3456 0.5203 0.16239 0.0
Co537 Co 0.35014 0.54605 0.19219 0.0
O538 O 0.36309 0.52578 0.18446 0.0
C539 C 0.31407 0.53585 0.19375 0.0
C540 C 0.30733 0.54546 0.14152 0.0
C541 C 0.35821 0.51638 0.17214 0.0
O542 O 0.31422 0.53269 0.17765 0.0
O543 O 0.32657 0.54284 0.20156 0.0
O544 O 0.34664 0.55065 0.14338 0.0
O545 O 0.34358 0.55588 0.1706 0.0
Co546 Co 0.45834 0.33017 0.16163 0.0
O547 O 0.44018 0.31504 0.15567 0.0
O548 O 0.46587 0.31444 0.14408 0.0
C549 C 0.4426 0.35421 0.16062 0.0
O550 O 0.47994 0.34444 0.16421 0.0
Co551 Co 0.45589 0.35114 0.19525 0.0
O552 O 0.47634 0.36265 0.18612 0.0
C553 C 0.46528 0.31472 0.19665 0.0
C554 C 0.45044 0.30839 0.14457 0.0
C555 C 0.48496 0.35695 0.17359 0.0
O556 O 0.46601 0.31406 0.18026 0.0
O557 O 0.46021 0.3279 0.20481 0.0
O558 O 0.44881 0.34771 0.14675 0.0
O559 O 0.4447 0.34519 0.1742 0.0
Co560 Co 0.83935 0.66944 0.54109 0.0
O561 O 0.84511 0.68582 0.55824 0.0
O562 O 0.85639 0.68504 0.53236 0.0
C563 C 0.84102 0.64633 0.55808 0.0
O564 O 0.83683 0.65402 0.52032 0.0
Co565 Co 0.80633 0.64784 0.54483 0.0
O566 O 0.81554 0.63536 0.52495 0.0
C567 C 0.80397 0.68356 0.53318 0.0
C568 C 0.85573 0.69219 0.54731 0.0
C569 C 0.8278 0.64102 0.51594 0.0
O570 O 0.82033 0.68469 0.53274 0.0
O571 O 0.79607 0.6704 0.53871 0.0
O572 O 0.85468 0.65277 0.55134 0.0
O573 O 0.82722 0.65495 0.55571 0.0
Co574 Co 0.83833 0.32902 0.45816 0.0
O575 O 0.8453 0.31466 0.43977 0.0
O576 O 0.85609 0.3136 0.4658 0.0
C577 C 0.83907 0.35352 0.44326 0.0
O578 O 0.83457 0.34257 0.48003 0.0
Co579 Co 0.80389 0.34848 0.45511 0.0
O580 O 0.81162 0.35945 0.47648 0.0
C581 C 0.80386 0.31163 0.46195 0.0
C582 C 0.85627 0.30803 0.45018 0.0
C583 C 0.82432 0.3543 0.48521 0.0
O584 O 0.82002 0.31211 0.46472 0.0
O585 O 0.79543 0.32439 0.45629 0.0
O586 O 0.85297 0.34723 0.4496 0.0
O587 O 0.82569 0.34406 0.44462 0.0
Co588 Co 0.67039 0.83924 0.45859 0.0
O589 O 0.68547 0.84636 0.44085 0.0
O590 O 0.68587 0.85654 0.46715 0.0
C591 C 0.64644 0.84084 0.44281 0.0
O592 O 0.65606 0.83533 0.47993 0.0
Co593 Co 0.64992 0.80557 0.45422 0.0
O594 O 0.63811 0.81348 0.47505 0.0
C595 C 0.68644 0.80413 0.46304 0.0
C596 C 0.69192 0.85699 0.45171 0.0
C597 C 0.64358 0.82562 0.48434 0.0
O598 O 0.68669 0.82039 0.46526 0.0
O599 O 0.67345 0.79616 0.45723 0.0
O600 O 0.65271 0.85443 0.44984 0.0
O601 O 0.65561 0.82727 0.4442 0.0
Co602 Co 0.16064 0.67012 0.45828 0.0
O603 O 0.15355 0.68407 0.4396 0.0
O604 O 0.14307 0.68587 0.46571 0.0
C605 C 0.15952 0.64527 0.44385 0.0
O606 O 0.16441 0.65717 0.4805 0.0
Co607 Co 0.19448 0.64976 0.45574 0.0
O608 O 0.18665 0.63933 0.47734 0.0
C609 C 0.19549 0.6868 0.46222 0.0
C610 C 0.14275 0.69105 0.44996 0.0
C611 C 0.17423 0.64523 0.48599 0.0
O612 O 0.1792 0.68702 0.46423 0.0
O613 O 0.20364 0.67354 0.45731 0.0
O614 O 0.14581 0.65175 0.45044 0.0
O615 O 0.17298 0.65467 0.44488 0.0
Co616 Co 0.32996 0.16053 0.45809 0.0
O617 O 0.31514 0.15402 0.43988 0.0
O618 O 0.31418 0.1431 0.46585 0.0
C619 C 0.35423 0.15919 0.44275 0.0
O620 O 0.34391 0.16385 0.47981 0.0
Co621 Co 0.35053 0.19429 0.45484 0.0
O622 O 0.3617 0.18605 0.47588 0.0
C623 C 0.31398 0.1956 0.46352 0.0
C624 C 0.30835 0.14319 0.45032 0.0
C625 C 0.35613 0.17365 0.48477 0.0
O626 O 0.31363 0.17926 0.46502 0.0
O627 O 0.32707 0.20374 0.45817 0.0
O628 O 0.34771 0.14548 0.44926 0.0
O629 O 0.34509 0.17278 0.44429 0.0
Co630 Co 0.16149 0.33146 0.53992 0.0
O631 O 0.15627 0.3166 0.55854 0.0
O632 O 0.14397 0.31536 0.5332 0.0
C633 C 0.16064 0.35579 0.55522 0.0
O634 O 0.16323 0.34526 0.51795 0.0
Co635 Co 0.1948 0.35299 0.54078 0.0
O636 O 0.18483 0.36399 0.52043 0.0
C637 C 0.1965 0.31636 0.53221 0.0
C638 C 0.14501 0.30958 0.54871 0.0
C639 C 0.17218 0.35783 0.51233 0.0
O640 O 0.18011 0.31544 0.53203 0.0
O641 O 0.2046 0.32979 0.53667 0.0
O642 O 0.14667 0.349 0.54955 0.0
O643 O 0.17428 0.34692 0.55287 0.0
Co644 Co 0.66934 0.15928 0.54122 0.0
O645 O 0.68604 0.15287 0.5578 0.0
O646 O 0.684 0.14173 0.53192 0.0
C647 C 0.64669 0.15847 0.55885 0.0
O648 O 0.65338 0.16243 0.52099 0.0
Co649 Co 0.64938 0.19323 0.54568 0.0
O650 O 0.63601 0.18469 0.52604 0.0
C651 C 0.68519 0.19405 0.5344 0.0
C652 C 0.69168 0.14211 0.5466 0.0
C653 C 0.64074 0.17208 0.51695 0.0
O654 O 0.68501 0.17776 0.53247 0.0
O655 O 0.67279 0.20235 0.54099 0.0
O656 O 0.65244 0.14455 0.55202 0.0
O657 O 0.65577 0.17193 0.5562 0.0
Co658 Co 0.33025 0.83979 0.54076 0.0
O659 O 0.31315 0.84558 0.55719 0.0
O660 O 0.31546 0.8573 0.53161 0.0
C661 C 0.35254 0.84066 0.5589 0.0
O662 O 0.34663 0.83738 0.5207 0.0
Co663 Co 0.35107 0.80629 0.54481 0.0
O664 O 0.36471 0.81573 0.52586 0.0
C665 C 0.31589 0.80484 0.53146 0.0
C666 C 0.30756 0.85654 0.54616 0.0
C667 C 0.35969 0.82823 0.5168 0.0
O668 O 0.31504 0.82122 0.53132 0.0
O669 O 0.32866 0.7966 0.53738 0.0
O670 O 0.34668 0.85458 0.55218 0.0
O671 O 0.3438 0.82707 0.55577 0.0
C672 C 0.11731 0.45672 0.2888 0.0
C673 C 0.13336 0.44917 0.29127 0.0
C674 C 0.10615 0.45025 0.27643 0.0
C675 C 0.10489 0.42302 0.238 0.0
H676 H 0.06041 0.40841 0.25383 0.0
C677 C 0.07228 0.3655 0.20955 0.0
C678 C 0.05532 0.36702 0.20408 0.0
C679 C 0.07972 0.37815 0.21948 0.0
C680 C 0.07266 0.4127 0.24913 0.0
H681 H 0.15067 0.42962 0.28231 0.0
H682 H 0.13149 0.41861 0.26072 0.0
H683 H 0.07781 0.42729 0.27168 0.0
H684 H 0.03255 0.38258 0.20553 0.0
H685 H 0.04566 0.40477 0.22336 0.0
H686 H 0.10019 0.40783 0.2159 0.0
C687 C 0.1274 0.42943 0.26825 0.0
C688 C 0.08258 0.42353 0.25929 0.0
C689 C 0.13837 0.43567 0.2807 0.0
C690 C 0.04565 0.38108 0.20955 0.0
C691 C 0.05313 0.39377 0.21969 0.0
C692 C 0.09505 0.41222 0.22793 0.0
C693 C 0.11106 0.43641 0.26617 0.0
C694 C 0.09907 0.42823 0.25408 0.0
C695 C 0.07039 0.3926 0.2243 0.0
C696 C 0.07915 0.40642 0.23369 0.0
H697 H 0.11312 0.46708 0.29688 0.0
H698 H 0.09363 0.45587 0.27505 0.0
H699 H 0.11742 0.42669 0.23353 0.0
H700 H 0.08006 0.35477 0.20571 0.0
H701 H 0.09294 0.37674 0.2232 0.0
C702 C 0.61748 0.04304 0.2094 0.0
C703 C 0.63316 0.05128 0.20682 0.0
C704 C 0.60615 0.04897 0.22188 0.0
C705 C 0.60442 0.07488 0.26092 0.0
H706 H 0.55978 0.08986 0.24592 0.0
C707 C 0.57253 0.13196 0.29048 0.0
C708 C 0.55565 0.1306 0.29624 0.0
C709 C 0.57968 0.11928 0.28039 0.0
C710 C 0.57205 0.08542 0.25039 0.0
H711 H 0.64963 0.07162 0.2156 0.0
H712 H 0.63019 0.08167 0.23747 0.0
H713 H 0.57717 0.07172 0.22727 0.0
H714 H 0.53272 0.11524 0.29518 0.0
H715 H 0.54533 0.09295 0.27705 0.0
H716 H 0.5998 0.08922 0.2836 0.0
C717 C 0.62652 0.07073 0.22989 0.0
C718 C 0.58197 0.07504 0.23977 0.0
C719 C 0.63762 0.06504 0.2173 0.0
C720 C 0.54577 0.11661 0.29094 0.0
C721 C 0.55296 0.10387 0.28064 0.0
C722 C 0.59458 0.0852 0.27147 0.0
C723 C 0.61058 0.06294 0.23217 0.0
C724 C 0.59854 0.07031 0.24468 0.0
C725 C 0.57014 0.10493 0.27571 0.0
C726 C 0.57863 0.09118 0.266 0.0
H727 H 0.61372 0.03245 0.20139 0.0
H728 H 0.59392 0.04277 0.22341 0.0
H729 H 0.61704 0.07119 0.26512 0.0
H730 H 0.58047 0.14263 0.29415 0.0
H731 H 0.59283 0.12061 0.27643 0.0
C732 C 0.95451 0.61688 0.20937 0.0
C733 C 0.94612 0.63235 0.20604 0.0
C734 C 0.94816 0.60567 0.22175 0.0
C735 C 0.91995 0.60425 0.25929 0.0
H736 H 0.90866 0.55816 0.24542 0.0
C737 C 0.86383 0.56985 0.28773 0.0
C738 C 0.86645 0.55371 0.29498 0.0
C739 C 0.87619 0.57722 0.27742 0.0
C740 C 0.91204 0.57088 0.24957 0.0
H741 H 0.92497 0.64851 0.21339 0.0
H742 H 0.91412 0.62924 0.23498 0.0
H743 H 0.92677 0.57592 0.22707 0.0
H744 H 0.88366 0.53215 0.29622 0.0
H745 H 0.90543 0.54514 0.27773 0.0
H746 H 0.90461 0.59961 0.28129 0.0
C747 C 0.92554 0.62567 0.22811 0.0
C748 C 0.9224 0.58101 0.23913 0.0
C749 C 0.9317 0.63668 0.21566 0.0
C750 C 0.88132 0.54461 0.29081 0.0
C751 C 0.89376 0.55203 0.28031 0.0
C752 C 0.90963 0.5942 0.26963 0.0
C753 C 0.93355 0.60997 0.23117 0.0
C754 C 0.92586 0.59803 0.24361 0.0
C755 C 0.89148 0.56863 0.27402 0.0
C756 C 0.90502 0.57768 0.26455 0.0
H757 H 0.96561 0.61321 0.20205 0.0
H758 H 0.95457 0.59364 0.22389 0.0
H759 H 0.92268 0.6172 0.2632 0.0
H760 H 0.85243 0.57712 0.29049 0.0
H761 H 0.87397 0.58988 0.27241 0.0
C762 C 0.45549 0.88191 0.29075 0.0
C763 C 0.4473 0.86631 0.29392 0.0
C764 C 0.44921 0.89298 0.27821 0.0
C765 C 0.42202 0.89396 0.24 0.0
H766 H 0.40877 0.93945 0.25408 0.0
C767 C 0.36596 0.92724 0.20974 0.0
C768 C 0.36788 0.94404 0.20393 0.0
C769 C 0.37831 0.91977 0.21999 0.0
C770 C 0.4127 0.92692 0.24986 0.0
H771 H 0.42665 0.84972 0.28612 0.0
H772 H 0.41596 0.86874 0.26419 0.0
H773 H 0.4269 0.92208 0.27274 0.0
H774 H 0.38388 0.96653 0.20505 0.0
H775 H 0.40562 0.95336 0.2234 0.0
H776 H 0.40729 0.89838 0.21755 0.0
C777 C 0.42714 0.87253 0.27134 0.0
C778 C 0.42308 0.91701 0.26049 0.0
C779 C 0.4332 0.86167 0.28397 0.0
C780 C 0.38208 0.95355 0.20934 0.0
C781 C 0.39451 0.94603 0.21977 0.0
C782 C 0.41171 0.9038 0.22945 0.0
C783 C 0.43491 0.88838 0.26847 0.0
C784 C 0.42724 0.90019 0.25592 0.0
C785 C 0.39291 0.92891 0.22476 0.0
C786 C 0.40638 0.92009 0.23458 0.0
H787 H 0.46634 0.88581 0.29833 0.0
H788 H 0.45541 0.90514 0.27621 0.0
H789 H 0.42529 0.88115 0.23604 0.0
H790 H 0.35509 0.91961 0.20598 0.0
H791 H 0.37656 0.90669 0.22401 0.0
C792 C 0.13618 0.56347 0.71743 0.0
C793 C 0.1314 0.55082 0.70577 0.0
C794 C 0.12492 0.5688 0.73004 0.0
C795 C 0.0804 0.5752 0.73834 0.0
H796 H 0.09697 0.5851 0.78381 0.0
C797 C 0.04469 0.61657 0.78984 0.0
C798 C 0.05526 0.62952 0.79631 0.0
C799 C 0.0515 0.60372 0.77942 0.0
C800 C 0.09208 0.58227 0.77122 0.0
H801 H 0.11121 0.53357 0.69823 0.0
H802 H 0.09114 0.54332 0.72027 0.0
H803 H 0.11383 0.56715 0.76489 0.0
H804 H 0.08107 0.63947 0.79643 0.0
H805 H 0.09278 0.61722 0.77855 0.0
H806 H 0.05904 0.59117 0.74449 0.0
C807 C 0.10374 0.54889 0.71967 0.0
C808 C 0.10171 0.572 0.76042 0.0
C809 C 0.11522 0.54328 0.70717 0.0
C810 C 0.07256 0.62965 0.79178 0.0
C811 C 0.07933 0.61682 0.78162 0.0
C812 C 0.07071 0.58554 0.74921 0.0
C813 C 0.1085 0.56179 0.73115 0.0
C814 C 0.09634 0.56898 0.74364 0.0
C815 C 0.06899 0.60356 0.7756 0.0
C816 C 0.0769 0.58977 0.76545 0.0
H817 H 0.14858 0.56948 0.71665 0.0
H818 H 0.12886 0.57891 0.73857 0.0
H819 H 0.07602 0.5731 0.72543 0.0
H820 H 0.0313 0.61616 0.79311 0.0
H821 H 0.04326 0.59367 0.7748 0.0
C822 C 0.36543 0.063 0.78165 0.0
C823 C 0.37005 0.05018 0.79319 0.0
C824 C 0.37673 0.06824 0.76905 0.0
C825 C 0.42111 0.07435 0.76063 0.0
H826 H 0.40444 0.08427 0.7152 0.0
C827 C 0.45608 0.1165 0.70919 0.0
C828 C 0.4453 0.12946 0.7031 0.0
C829 C 0.44954 0.10343 0.7195 0.0
C830 C 0.40937 0.08141 0.72778 0.0
H831 H 0.38998 0.03255 0.80053 0.0
H832 H 0.41015 0.04218 0.77851 0.0
H833 H 0.38772 0.06614 0.73408 0.0
H834 H 0.41941 0.1392 0.70354 0.0
H835 H 0.40817 0.11656 0.72124 0.0
H836 H 0.44233 0.09054 0.75454 0.0
C837 C 0.39764 0.04793 0.7792 0.0
C838 C 0.39983 0.07103 0.73854 0.0
C839 C 0.38611 0.0424 0.79168 0.0
C840 C 0.42807 0.12938 0.7079 0.0
C841 C 0.42157 0.11634 0.71795 0.0
C842 C 0.43071 0.0848 0.7498 0.0
C843 C 0.39302 0.06097 0.76783 0.0
C844 C 0.40521 0.06806 0.75532 0.0
C845 C 0.43212 0.10306 0.72358 0.0
C846 C 0.42447 0.08904 0.73358 0.0
H847 H 0.35313 0.06918 0.78252 0.0
H848 H 0.37291 0.07847 0.7606 0.0
H849 H 0.42549 0.07227 0.77355 0.0
H850 H 0.46942 0.11626 0.7057 0.0
H851 H 0.45793 0.09337 0.72382 0.0
C852 C 0.88054 0.4534 0.70963 0.0
C853 C 0.86641 0.44375 0.70428 0.0
C854 C 0.89313 0.446 0.71995 0.0
C855 C 0.91124 0.40412 0.72909 0.0
H856 H 0.92608 0.42206 0.77264 0.0
C857 C 0.93413 0.3616 0.78277 0.0
C858 C 0.94783 0.36661 0.79308 0.0
C859 C 0.92787 0.37244 0.77022 0.0
C860 C 0.92237 0.41709 0.76032 0.0
H861 H 0.85399 0.41912 0.70626 0.0
H862 H 0.8758 0.40638 0.72405 0.0
H863 H 0.90746 0.43926 0.75433 0.0
H864 H 0.96601 0.38675 0.79817 0.0
H865 H 0.95474 0.40604 0.7762 0.0
H866 H 0.9255 0.38176 0.73522 0.0
C867 C 0.87731 0.41952 0.72013 0.0
C868 C 0.91169 0.4269 0.74989 0.0
C869 C 0.86476 0.42689 0.71002 0.0
C870 C 0.95548 0.38256 0.79031 0.0
C871 C 0.94899 0.3936 0.77785 0.0
C872 C 0.92188 0.39439 0.73942 0.0
C873 C 0.89181 0.42884 0.72486 0.0
C874 C 0.9055 0.42017 0.73451 0.0
C875 C 0.93503 0.38866 0.76779 0.0
C876 C 0.92699 0.40047 0.75544 0.0
H877 H 0.88215 0.46642 0.7054 0.0
H878 H 0.90416 0.45347 0.72355 0.0
H879 H 0.90692 0.3988 0.71711 0.0
H880 H 0.928 0.34937 0.78461 0.0
H881 H 0.91696 0.36835 0.76283 0.0
C882 C 0.63589 0.93461 0.78286 0.0
C883 C 0.63085 0.94792 0.79365 0.0
C884 C 0.62499 0.92864 0.77023 0.0
C885 C 0.58065 0.92228 0.76062 0.0
H886 H 0.59867 0.91005 0.71628 0.0
C887 C 0.54536 0.88027 0.70948 0.0
C888 C 0.55572 0.86704 0.70324 0.0
C889 C 0.55232 0.89304 0.71989 0.0
C890 C 0.5934 0.91347 0.72857 0.0
H891 H 0.61055 0.96566 0.7996 0.0
H892 H 0.5911 0.9548 0.77751 0.0
H893 H 0.61521 0.92844 0.73504 0.0
H894 H 0.58126 0.85645 0.7036 0.0
H895 H 0.59324 0.87853 0.72155 0.0
H896 H 0.55915 0.90654 0.75434 0.0
C897 C 0.60364 0.94919 0.77882 0.0
C898 C 0.60284 0.92402 0.73927 0.0
C899 C 0.61476 0.95543 0.79135 0.0
C900 C 0.57293 0.8665 0.70806 0.0
C901 C 0.57986 0.87924 0.71825 0.0
C902 C 0.57114 0.91166 0.74985 0.0
C903 C 0.60867 0.93567 0.76822 0.0
C904 C 0.5969 0.92794 0.75566 0.0
C905 C 0.56975 0.89282 0.72399 0.0
C906 C 0.57782 0.9066 0.73404 0.0
H907 H 0.64823 0.92861 0.78434 0.0
H908 H 0.62913 0.91805 0.7624 0.0
H909 H 0.57581 0.92508 0.77323 0.0
H910 H 0.53204 0.88099 0.70598 0.0
H911 H 0.54425 0.90334 0.72426 0.0
C912 C 0.20795 0.04305 0.38334 0.0
C913 C 0.20536 0.051 0.3675 0.0
C914 C 0.22044 0.04918 0.39455 0.0
C915 C 0.25957 0.07499 0.39572 0.0
H916 H 0.24494 0.09054 0.44029 0.0
C917 C 0.29014 0.13194 0.42705 0.0
C918 C 0.29568 0.13076 0.44402 0.0
C919 C 0.27991 0.11933 0.41999 0.0
C920 C 0.24931 0.08595 0.42804 0.0
H921 H 0.21415 0.07105 0.35068 0.0
H922 H 0.23602 0.08144 0.36994 0.0
H923 H 0.22606 0.07235 0.4232 0.0
H924 H 0.29412 0.11578 0.46717 0.0
H925 H 0.27576 0.0936 0.45469 0.0
H926 H 0.28239 0.08918 0.40007 0.0
C927 C 0.22843 0.07058 0.37381 0.0
C928 C 0.23855 0.07554 0.41829 0.0
C929 C 0.21584 0.06469 0.36281 0.0
C930 C 0.29005 0.11701 0.45405 0.0
C931 C 0.27961 0.10434 0.44693 0.0
C932 C 0.27025 0.08534 0.4054 0.0
C933 C 0.23074 0.06306 0.38987 0.0
C934 C 0.24334 0.07058 0.40175 0.0
C935 C 0.27486 0.10521 0.42969 0.0
C936 C 0.26493 0.09152 0.42132 0.0
H937 H 0.19995 0.03252 0.38728 0.0
H938 H 0.22199 0.04319 0.40688 0.0
H939 H 0.26368 0.07112 0.38312 0.0
H940 H 0.29407 0.14243 0.41899 0.0
H941 H 0.2761 0.12053 0.40678 0.0
C942 C 0.86887 0.29129 0.4265 0.0
C943 C 0.86911 0.29583 0.4438 0.0
C944 C 0.88176 0.28132 0.41959 0.0
C945 C 0.91378 0.24948 0.42814 0.0
H946 H 0.93087 0.26471 0.38433 0.0
C947 C 0.95633 0.20776 0.3836 0.0
C948 C 0.94849 0.20575 0.36762 0.0
C949 C 0.95055 0.22031 0.39493 0.0
C950 C 0.92639 0.26038 0.39664 0.0
H951 H 0.88278 0.29287 0.46762 0.0
H952 H 0.90543 0.27492 0.45542 0.0
H953 H 0.91291 0.28358 0.40124 0.0
H954 H 0.92908 0.2156 0.35065 0.0
H955 H 0.91935 0.23763 0.37012 0.0
H956 H 0.92665 0.22589 0.42302 0.0
C957 C 0.89522 0.27937 0.44728 0.0
C958 C 0.9161 0.27114 0.40629 0.0
C959 C 0.88227 0.28957 0.45423 0.0
C960 C 0.93533 0.21686 0.36289 0.0
C961 C 0.92983 0.22953 0.374 0.0
C962 C 0.92416 0.23866 0.41844 0.0
C963 C 0.89524 0.27551 0.42979 0.0
C964 C 0.90906 0.26551 0.42175 0.0
C965 C 0.93718 0.23124 0.39022 0.0
C966 C 0.9299 0.24379 0.40226 0.0
H967 H 0.85888 0.29576 0.41809 0.0
H968 H 0.88124 0.2782 0.40616 0.0
H969 H 0.90851 0.24486 0.44003 0.0
H970 H 0.96644 0.19926 0.38756 0.0
H971 H 0.95639 0.22138 0.40738 0.0
C972 C 0.70919 0.87012 0.42873 0.0
C973 C 0.70434 0.86992 0.44594 0.0
C974 C 0.71916 0.88326 0.42232 0.0
C975 C 0.75084 0.91482 0.43137 0.0
H976 H 0.73454 0.93377 0.38871 0.0
C977 C 0.79213 0.95742 0.38645 0.0
C978 C 0.79351 0.94965 0.37037 0.0
C979 C 0.77976 0.95187 0.39808 0.0
C980 C 0.73916 0.9288 0.40073 0.0
H981 H 0.70682 0.883 0.47015 0.0
H982 H 0.72486 0.90606 0.45881 0.0
H983 H 0.71587 0.91557 0.40561 0.0
H984 H 0.78273 0.93063 0.35353 0.0
H985 H 0.76097 0.92133 0.37351 0.0
H986 H 0.77454 0.92733 0.42588 0.0
C987 C 0.7206 0.89602 0.45037 0.0
C988 C 0.72851 0.91839 0.41037 0.0
C989 C 0.71036 0.88284 0.45682 0.0
C990 C 0.78195 0.93682 0.36584 0.0
C991 C 0.76944 0.93156 0.37725 0.0
C992 C 0.76155 0.92531 0.42168 0.0
C993 C 0.72468 0.89651 0.43294 0.0
C994 C 0.73452 0.91066 0.42534 0.0
C995 C 0.76837 0.93882 0.39356 0.0
C996 C 0.75602 0.9317 0.40588 0.0
H997 H 0.7049 0.86033 0.41999 0.0
H998 H 0.72245 0.88314 0.40891 0.0
H999 H 0.75574 0.90898 0.44287 0.0
H1000 H 0.80101 0.96727 0.39025 0.0
H1001 H 0.77919 0.95761 0.41061 0.0
C1002 C 0.06296 0.7816 0.36214 0.0
C1003 C 0.04982 0.79268 0.36697 0.0
C1004 C 0.06861 0.76896 0.37322 0.0
C1005 C 0.07462 0.76003 0.41771 0.0
H1006 H 0.08625 0.71517 0.4006 0.0
C1007 C 0.1168 0.70964 0.45381 0.0
C1008 C 0.12993 0.70321 0.44343 0.0
C1009 C 0.10386 0.71977 0.44674 0.0
C1010 C 0.08298 0.7276 0.40562 0.0
H1011 H 0.032 0.79912 0.38705 0.0
H1012 H 0.04229 0.77706 0.40681 0.0
H1013 H 0.06811 0.73383 0.38366 0.0
H1014 H 0.1401 0.70289 0.41772 0.0
H1015 H 0.11776 0.72036 0.40559 0.0
H1016 H 0.09033 0.75402 0.4393 0.0
C1017 C 0.04802 0.77813 0.3943 0.0
C1018 C 0.07258 0.73824 0.39595 0.0
C1019 C 0.0421 0.79064 0.383 0.0
C1020 C 0.13014 0.70751 0.42607 0.0
C1021 C 0.11725 0.71742 0.41906 0.0
C1022 C 0.08511 0.74933 0.42742 0.0
C1023 C 0.06141 0.76726 0.38951 0.0
C1024 C 0.0689 0.75481 0.40155 0.0
C1025 C 0.10381 0.72339 0.4292 0.0
C1026 C 0.08997 0.73332 0.42107 0.0
H1027 H 0.06912 0.78288 0.34986 0.0
H1028 H 0.07909 0.76091 0.36927 0.0
H1029 H 0.072 0.77278 0.42227 0.0
H1030 H 0.11632 0.70653 0.46724 0.0
H1031 H 0.09368 0.72434 0.45485 0.0
C1032 C 0.20951 0.9548 0.61692 0.0
C1033 C 0.20379 0.9445 0.63042 0.0
C1034 C 0.21982 0.94788 0.60403 0.0
C1035 C 0.22841 0.9069 0.58372 0.0
H1036 H 0.27351 0.92352 0.57244 0.0
C1037 C 0.28199 0.86309 0.56353 0.0
C1038 C 0.29329 0.86792 0.55056 0.0
C1039 C 0.26943 0.87427 0.56915 0.0
C1040 C 0.26077 0.91896 0.57513 0.0
H1041 H 0.20502 0.91913 0.64139 0.0
H1042 H 0.22271 0.90723 0.61909 0.0
H1043 H 0.25478 0.94068 0.5907 0.0
H1044 H 0.30016 0.88811 0.53303 0.0
H1045 H 0.27817 0.90799 0.54323 0.0
H1046 H 0.23456 0.88485 0.56897 0.0
C1047 C 0.21911 0.92053 0.61828 0.0
C1048 C 0.2501 0.92875 0.58558 0.0
C1049 C 0.20905 0.92741 0.63112 0.0
C1050 C 0.29151 0.88405 0.54299 0.0
C1051 C 0.27905 0.89543 0.54886 0.0
C1052 C 0.239 0.89717 0.57333 0.0
C1053 C 0.2243 0.93054 0.60443 0.0
C1054 C 0.23413 0.92241 0.59055 0.0
C1055 C 0.26797 0.89064 0.56209 0.0
C1056 C 0.25555 0.90275 0.56955 0.0
H1057 H 0.20567 0.96802 0.61606 0.0
H1058 H 0.22379 0.95587 0.59351 0.0
H1059 H 0.21602 0.90187 0.58715 0.0
H1060 H 0.28306 0.85074 0.56958 0.0
H1061 H 0.26124 0.8703 0.57952 0.0
C1062 C 0.0684 0.21536 0.63819 0.0
C1063 C 0.05404 0.20579 0.63357 0.0
C1064 C 0.07471 0.22793 0.6274 0.0
C1065 C 0.07859 0.23953 0.58301 0.0
H1066 H 0.095 0.28198 0.60221 0.0
C1067 C 0.11887 0.29107 0.54635 0.0
C1068 C 0.13314 0.2967 0.55562 0.0
C1069 C 0.10672 0.28045 0.55406 0.0
C1070 C 0.09045 0.2702 0.59664 0.0
H1071 H 0.03482 0.20198 0.61413 0.0
H1072 H 0.04616 0.22401 0.59492 0.0
H1073 H 0.07717 0.26327 0.61937 0.0
H1074 H 0.1463 0.29489 0.57987 0.0
H1075 H 0.12532 0.27652 0.59312 0.0
H1076 H 0.09253 0.2463 0.56044 0.0
C1077 C 0.05239 0.22175 0.60702 0.0
C1078 C 0.08021 0.25953 0.60644 0.0
C1079 C 0.04587 0.20926 0.61802 0.0
C1080 C 0.13538 0.29095 0.57241 0.0
C1081 C 0.12329 0.2805 0.58006 0.0
C1082 C 0.08889 0.25028 0.57314 0.0
C1083 C 0.06693 0.23115 0.61163 0.0
C1084 C 0.07471 0.24379 0.59997 0.0
C1085 C 0.10864 0.27547 0.57115 0.0
C1086 C 0.09544 0.26539 0.58014 0.0
H1087 H 0.07496 0.21298 0.6501 0.0
H1088 H 0.08606 0.2348 0.63121 0.0
H1089 H 0.07455 0.22743 0.57774 0.0
H1090 H 0.11682 0.29529 0.53338 0.0
H1091 H 0.09556 0.27665 0.54688 0.0
C1092 C 0.78989 0.04428 0.61727 0.0
C1093 C 0.79554 0.05478 0.63067 0.0
C1094 C 0.77958 0.051 0.60429 0.0
C1095 C 0.77097 0.09161 0.5834 0.0
H1096 H 0.7257 0.07507 0.57265 0.0
C1097 C 0.71726 0.13536 0.56384 0.0
C1098 C 0.70591 0.13064 0.55088 0.0
C1099 C 0.72986 0.12416 0.56929 0.0
C1100 C 0.73849 0.07959 0.57518 0.0
H1101 H 0.79418 0.08027 0.64133 0.0
H1102 H 0.77648 0.09182 0.61884 0.0
H1103 H 0.74449 0.05805 0.59099 0.0
H1104 H 0.69894 0.11061 0.53322 0.0
H1105 H 0.72097 0.09062 0.54316 0.0
H1106 H 0.76479 0.11351 0.56845 0.0
C1107 C 0.78014 0.07852 0.61821 0.0
C1108 C 0.74919 0.06988 0.58567 0.0
C1109 C 0.7902 0.07184 0.63115 0.0
C1110 C 0.70763 0.11457 0.54317 0.0
C1111 C 0.72013 0.10314 0.54889 0.0
C1112 C 0.76035 0.10125 0.57296 0.0
C1113 C 0.77503 0.06831 0.60447 0.0
C1114 C 0.76521 0.07623 0.59047 0.0
C1115 C 0.73128 0.10784 0.56209 0.0
C1116 C 0.74374 0.09571 0.56939 0.0
H1117 H 0.7938 0.03107 0.61658 0.0
H1118 H 0.77566 0.04286 0.59386 0.0
H1119 H 0.7834 0.09663 0.5867 0.0
H1120 H 0.71624 0.14768 0.56999 0.0
H1121 H 0.73812 0.12805 0.57964 0.0
C1122 C 0.86198 0.717 0.56585 0.0
C1123 C 0.86684 0.70651 0.55222 0.0
C1124 C 0.87294 0.72955 0.57191 0.0
C1125 C 0.91758 0.73936 0.57721 0.0
H1126 H 0.89951 0.78298 0.59171 0.0
C1127 C 0.95376 0.79056 0.61872 0.0
C1128 C 0.94395 0.79601 0.63269 0.0
C1129 C 0.94651 0.78015 0.6061 0.0
C1130 C 0.90478 0.77089 0.58763 0.0
H1131 H 0.88685 0.70108 0.534 0.0
H1132 H 0.90635 0.72306 0.54494 0.0
H1133 H 0.88242 0.7646 0.57344 0.0
H1134 H 0.91916 0.79409 0.64482 0.0
H1135 H 0.90668 0.77619 0.62299 0.0
H1136 H 0.93971 0.7455 0.59213 0.0
C1137 C 0.89394 0.72155 0.55077 0.0
C1138 C 0.89502 0.7604 0.57717 0.0
C1139 C 0.88277 0.70909 0.54447 0.0
C1140 C 0.92706 0.79029 0.63416 0.0
C1141 C 0.91984 0.78011 0.6216 0.0
C1142 C 0.92742 0.74994 0.58772 0.0
C1143 C 0.88912 0.73181 0.56464 0.0
C1144 C 0.90101 0.74424 0.57243 0.0
C1145 C 0.92932 0.77526 0.60725 0.0
C1146 C 0.92076 0.76548 0.59357 0.0
H1147 H 0.84978 0.7153 0.57206 0.0
H1148 H 0.86895 0.73709 0.58276 0.0
H1149 H 0.92248 0.72692 0.57377 0.0
H1150 H 0.96682 0.79476 0.61727 0.0
H1151 H 0.95409 0.77646 0.59519 0.0
C1152 C 0.45397 0.29 0.11844 0.0
C1153 C 0.44401 0.29571 0.13221 0.0
C1154 C 0.44677 0.2796 0.10579 0.0
C1155 C 0.40517 0.27062 0.0868 0.0
H1156 H 0.42277 0.22645 0.07344 0.0
C1157 C 0.36241 0.2166 0.06534 0.0
C1158 C 0.36714 0.20626 0.05156 0.0
C1159 C 0.37341 0.22911 0.07141 0.0
C1160 C 0.41791 0.23894 0.07674 0.0
H1161 H 0.41899 0.2943 0.14391 0.0
H1162 H 0.40661 0.2764 0.12203 0.0
H1163 H 0.4399 0.24506 0.09187 0.0
H1164 H 0.38699 0.20098 0.03313 0.0
H1165 H 0.40661 0.22284 0.04413 0.0
H1166 H 0.38291 0.26431 0.07242 0.0
C1167 C 0.41985 0.28011 0.12082 0.0
C1168 C 0.42768 0.24953 0.08729 0.0
C1169 C 0.42701 0.29029 0.13343 0.0
C1170 C 0.38302 0.20889 0.04371 0.0
C1171 C 0.39424 0.22128 0.05003 0.0
C1172 C 0.39547 0.26009 0.07631 0.0
C1173 C 0.42949 0.27498 0.10668 0.0
C1174 C 0.42105 0.26515 0.09297 0.0
C1175 C 0.38953 0.23143 0.06401 0.0
C1176 C 0.40142 0.24387 0.07176 0.0
H1177 H 0.46712 0.29397 0.11718 0.0
H1178 H 0.45449 0.27569 0.09504 0.0
H1179 H 0.39991 0.28276 0.09072 0.0
H1180 H 0.35025 0.21487 0.07163 0.0
H1181 H 0.36952 0.23658 0.08234 0.0
C1182 C 0.38042 0.79044 0.95392 0.0
C1183 C 0.36634 0.79572 0.94415 0.0
C1184 C 0.39305 0.78006 0.94666 0.0
C1185 C 0.41146 0.7708 0.90499 0.0
H1186 H 0.42555 0.7269 0.92267 0.0
C1187 C 0.43368 0.71715 0.8621 0.0
C1188 C 0.44711 0.70648 0.86709 0.0
C1189 C 0.42762 0.72973 0.87303 0.0
C1190 C 0.42206 0.73932 0.91778 0.0
H1191 H 0.35405 0.79352 0.91947 0.0
H1192 H 0.37593 0.77567 0.90697 0.0
H1193 H 0.40709 0.74536 0.9399 0.0
H1194 H 0.46502 0.70078 0.8873 0.0
H1195 H 0.45412 0.72282 0.90673 0.0
H1196 H 0.42576 0.76463 0.88266 0.0
C1197 C 0.37738 0.77969 0.9201 0.0
C1198 C 0.41148 0.74982 0.92761 0.0
C1199 C 0.36478 0.78985 0.92733 0.0
C1200 C 0.45471 0.70893 0.88312 0.0
C1201 C 0.44842 0.72143 0.89425 0.0
C1202 C 0.42201 0.76038 0.89524 0.0
C1203 C 0.39182 0.77503 0.92952 0.0
C1204 C 0.40554 0.76533 0.92096 0.0
C1205 C 0.43471 0.73185 0.88932 0.0
C1206 C 0.42684 0.74424 0.90122 0.0
H1207 H 0.38195 0.79477 0.96692 0.0
H1208 H 0.40405 0.77652 0.9542 0.0
H1209 H 0.40731 0.78286 0.89972 0.0
H1210 H 0.42759 0.71557 0.84982 0.0
H1211 H 0.41689 0.73739 0.86894 0.0
C1212 C 0.29142 0.4271 0.86986 0.0
C1213 C 0.29635 0.44428 0.87032 0.0
C1214 C 0.28151 0.42021 0.88282 0.0
C1215 C 0.25037 0.42857 0.91537 0.0
H1216 H 0.26604 0.38485 0.93231 0.0
C1217 C 0.2089 0.38399 0.95788 0.0
C1218 C 0.2071 0.3679 0.95022 0.0
C1219 C 0.22144 0.39533 0.95213 0.0
C1220 C 0.26158 0.39713 0.92786 0.0
H1221 H 0.29413 0.46795 0.8844 0.0
H1222 H 0.27629 0.45578 0.90715 0.0
H1223 H 0.28458 0.40183 0.91408 0.0
H1224 H 0.21737 0.35072 0.93122 0.0
H1225 H 0.23936 0.37021 0.92151 0.0
H1226 H 0.22695 0.42332 0.92846 0.0
C1227 C 0.28038 0.44772 0.89673 0.0
C1228 C 0.27216 0.40682 0.91744 0.0
C1229 C 0.29053 0.45465 0.88373 0.0
C1230 C 0.21847 0.36305 0.93733 0.0
C1231 C 0.23112 0.37418 0.93185 0.0
C1232 C 0.23972 0.4188 0.92585 0.0
C1233 C 0.27618 0.43032 0.89655 0.0
C1234 C 0.26638 0.42225 0.91048 0.0
C1235 C 0.23257 0.39054 0.93895 0.0
C1236 C 0.24499 0.40265 0.93154 0.0
H1237 H 0.29555 0.41876 0.85968 0.0
H1238 H 0.27812 0.40685 0.88217 0.0
H1239 H 0.24565 0.44043 0.91015 0.0
H1240 H 0.20019 0.38805 0.96778 0.0
H1241 H 0.22231 0.40788 0.95779 0.0
C1242 C 0.61635 0.20953 0.95662 0.0
C1243 C 0.63208 0.2067 0.94854 0.0
C1244 C 0.60527 0.22219 0.95057 0.0
C1245 C 0.60428 0.26116 0.92442 0.0
H1246 H 0.55926 0.24685 0.90986 0.0
C1247 C 0.57233 0.29117 0.86755 0.0
C1248 C 0.55545 0.29692 0.8689 0.0
C1249 C 0.57949 0.2811 0.88023 0.0
C1250 C 0.57165 0.25114 0.91418 0.0
H1251 H 0.64889 0.21525 0.92838 0.0
H1252 H 0.62986 0.23739 0.91812 0.0
H1253 H 0.57645 0.22801 0.92797 0.0
H1254 H 0.53254 0.29592 0.88429 0.0
H1255 H 0.54517 0.27783 0.9066 0.0
H1256 H 0.59993 0.28384 0.91003 0.0
C1257 C 0.62597 0.22988 0.92903 0.0
C1258 C 0.58146 0.2404 0.92454 0.0
C1259 C 0.63684 0.21713 0.93484 0.0
C1260 C 0.54559 0.29168 0.88292 0.0
C1261 C 0.5528 0.2814 0.89567 0.0
C1262 C 0.59453 0.27182 0.91412 0.0
C1263 C 0.60998 0.2324 0.93664 0.0
C1264 C 0.59815 0.24504 0.92913 0.0
C1265 C 0.56997 0.27642 0.8946 0.0
C1266 C 0.57844 0.26661 0.9083 0.0
H1267 H 0.61235 0.20159 0.96716 0.0
H1268 H 0.59301 0.22389 0.95666 0.0
H1269 H 0.61698 0.26517 0.92803 0.0
H1270 H 0.58026 0.2948 0.85686 0.0
H1271 H 0.59263 0.27711 0.87888 0.0
C1272 C 0.70838 0.5733 0.86863 0.0
C1273 C 0.70343 0.55612 0.86913 0.0
C1274 C 0.71837 0.5802 0.88152 0.0
C1275 C 0.74954 0.57182 0.91413 0.0
H1276 H 0.73404 0.61569 0.93086 0.0
C1277 C 0.79104 0.61632 0.95673 0.0
C1278 C 0.793 0.63235 0.949 0.0
C1279 C 0.77845 0.60503 0.95096 0.0
C1280 C 0.73846 0.60337 0.92647 0.0
H1281 H 0.70577 0.53246 0.88319 0.0
H1282 H 0.72376 0.54464 0.90582 0.0
H1283 H 0.71548 0.59873 0.91262 0.0
H1284 H 0.78299 0.64949 0.92983 0.0
H1285 H 0.76092 0.63009 0.92007 0.0
H1286 H 0.77293 0.57697 0.92732 0.0
C1287 C 0.71961 0.55269 0.89542 0.0
C1288 C 0.72787 0.59369 0.91603 0.0
C1289 C 0.70938 0.54575 0.88249 0.0
C1290 C 0.78177 0.6372 0.936 0.0
C1291 C 0.76907 0.62613 0.93048 0.0
C1292 C 0.7602 0.58156 0.92463 0.0
C1293 C 0.72378 0.5701 0.89523 0.0
C1294 C 0.73359 0.5782 0.90914 0.0
C1295 C 0.76745 0.60983 0.93767 0.0
C1296 C 0.755 0.59776 0.93025 0.0
H1297 H 0.70415 0.58164 0.85848 0.0
H1298 H 0.72175 0.59356 0.88084 0.0
H1299 H 0.75422 0.5599 0.90898 0.0
H1300 H 0.79963 0.61226 0.96673 0.0
H1301 H 0.77745 0.59252 0.95669 0.0
C1302 C 0.54627 0.70966 0.11809 0.0
C1303 C 0.5559 0.70389 0.13207 0.0
C1304 C 0.5538 0.72004 0.10562 0.0
C1305 C 0.59593 0.72917 0.08772 0.0
H1306 H 0.57813 0.77298 0.07351 0.0
C1307 C 0.63867 0.78325 0.06619 0.0
C1308 C 0.63392 0.79358 0.05241 0.0
C1309 C 0.6277 0.7707 0.07224 0.0
C1310 C 0.58307 0.7606 0.07705 0.0
H1311 H 0.58064 0.70516 0.14435 0.0
H1312 H 0.59359 0.72308 0.1228 0.0
H1313 H 0.56077 0.75435 0.09167 0.0
H1314 H 0.61409 0.79875 0.03392 0.0
H1315 H 0.59457 0.77678 0.04483 0.0
H1316 H 0.61843 0.73558 0.0738 0.0
C1317 C 0.58037 0.71941 0.12127 0.0
C1318 C 0.57316 0.74998 0.08745 0.0
C1319 C 0.57289 0.70923 0.13368 0.0
C1320 C 0.61808 0.79087 0.04451 0.0
C1321 C 0.6069 0.77841 0.05079 0.0
C1322 C 0.60576 0.73971 0.07737 0.0
C1323 C 0.57107 0.72461 0.10692 0.0
C1324 C 0.57983 0.73449 0.09343 0.0
C1325 C 0.61162 0.76829 0.06479 0.0
C1326 C 0.59972 0.75581 0.0725 0.0
H1327 H 0.53314 0.70575 0.11652 0.0
H1328 H 0.54634 0.72399 0.09472 0.0
H1329 H 0.60122 0.71711 0.09185 0.0
H1330 H 0.6508 0.78504 0.07251 0.0
H1331 H 0.6316 0.76326 0.08318 0.0
C1332 C 0.20873 0.62936 0.07159 0.0
C1333 C 0.20364 0.62922 0.05444 0.0
C1334 C 0.21875 0.61632 0.07813 0.0
C1335 C 0.25002 0.5842 0.06925 0.0
H1336 H 0.23397 0.56603 0.11234 0.0
C1337 C 0.2915 0.54168 0.11397 0.0
C1338 C 0.29303 0.54943 0.13004 0.0
C1339 C 0.279 0.54724 0.10247 0.0
C1340 C 0.23853 0.57079 0.10021 0.0
H1341 H 0.20578 0.61566 0.03047 0.0
H1342 H 0.22386 0.59276 0.04203 0.0
H1343 H 0.21541 0.58437 0.0955 0.0
H1344 H 0.28237 0.56839 0.14702 0.0
H1345 H 0.26044 0.57773 0.12727 0.0
H1346 H 0.27357 0.57135 0.07457 0.0
C1347 C 0.21977 0.603 0.05033 0.0
C1348 C 0.22794 0.58129 0.0906 0.0
C1349 C 0.2095 0.61608 0.04374 0.0
C1350 C 0.28148 0.56222 0.13471 0.0
C1351 C 0.26886 0.56749 0.12343 0.0
C1352 C 0.26068 0.57364 0.07893 0.0
C1353 C 0.22407 0.60283 0.0677 0.0
C1354 C 0.23386 0.58872 0.07546 0.0
C1355 C 0.26766 0.56029 0.1071 0.0
C1356 C 0.25527 0.56752 0.09487 0.0
H1357 H 0.20457 0.63933 0.08017 0.0
H1358 H 0.22221 0.61668 0.09149 0.0
H1359 H 0.25484 0.58979 0.0576 0.0
H1360 H 0.30036 0.53186 0.11006 0.0
H1361 H 0.27833 0.54152 0.08993 0.0
C1362 C 0.70848 0.45586 0.11541 0.0
C1363 C 0.70587 0.44768 0.13112 0.0
C1364 C 0.72086 0.44975 0.10405 0.0
C1365 C 0.75956 0.4233 0.10229 0.0
H1366 H 0.74436 0.40863 0.0576 0.0
C1367 C 0.7883 0.36588 0.07033 0.0
C1368 C 0.79456 0.36746 0.05365 0.0
C1369 C 0.77816 0.37856 0.0774 0.0
C1370 C 0.74888 0.41298 0.06989 0.0
H1371 H 0.71449 0.42728 0.1476 0.0
H1372 H 0.73615 0.41694 0.1281 0.0
H1373 H 0.72597 0.42703 0.07502 0.0
H1374 H 0.79426 0.38315 0.03092 0.0
H1375 H 0.77602 0.40544 0.04338 0.0
H1376 H 0.78199 0.40858 0.09766 0.0
C1377 C 0.72869 0.42795 0.12443 0.0
C1378 C 0.73842 0.42351 0.07982 0.0
C1379 C 0.71621 0.43382 0.13557 0.0
C1380 C 0.78963 0.38161 0.04382 0.0
C1381 C 0.77927 0.39435 0.05093 0.0
C1382 C 0.76994 0.41282 0.09244 0.0
C1383 C 0.73101 0.43568 0.10847 0.0
C1384 C 0.74339 0.42814 0.0964 0.0
C1385 C 0.77391 0.39312 0.06796 0.0
C1386 C 0.76439 0.40697 0.07648 0.0
H1387 H 0.70057 0.46652 0.11166 0.0
H1388 H 0.72241 0.45591 0.0918 0.0
H1389 H 0.76382 0.42691 0.11492 0.0
H1390 H 0.79169 0.35508 0.07821 0.0
H1391 H 0.77388 0.37713 0.09044 0.0
C1392 C 0.97751 0.21382 0.30168 0.0
C1393 C 0.97201 0.19857 0.29398 0.0
C1394 C 0.98475 0.22685 0.29182 0.0
C1395 C 0.00914 0.23245 0.25306 0.0
H1396 H 0.99215 0.27875 0.25053 0.0
C1397 C 0.02511 0.27478 0.19648 0.0
C1398 C 0.02785 0.29232 0.19876 0.0
C1399 C 0.01936 0.26467 0.20986 0.0
C1400 C 0.99727 0.26597 0.25133 0.0
H1401 H 0.96943 0.18536 0.26977 0.0
H1402 H 0.98222 0.20785 0.25286 0.0
H1403 H 0.97977 0.25878 0.27115 0.0
H1404 H 0.02662 0.313 0.21706 0.0
H1405 H 0.0168 0.29513 0.2407 0.0
H1406 H 0.02659 0.23935 0.23342 0.0
C1407 C 0.98095 0.2097 0.26648 0.0
C1408 C 0.99015 0.25456 0.26309 0.0
C1409 C 0.97355 0.19685 0.27621 0.0
C1410 C 0.02466 0.29952 0.21487 0.0
C1411 C 0.01896 0.2893 0.22839 0.0
C1412 C 0.01637 0.24383 0.24152 0.0
C1413 C 0.98684 0.2247 0.27419 0.0
C1414 C 0.9957 0.23757 0.26365 0.0
C1415 C 0.01632 0.27172 0.22603 0.0
C1416 C 0.01016 0.26057 0.24008 0.0
H1417 H 0.97644 0.2156 0.31532 0.0
H1418 H 0.9892 0.23834 0.29802 0.0
H1419 H 0.01383 0.21947 0.25346 0.0
H1420 H 0.02716 0.26877 0.18423 0.0
H1421 H 0.01702 0.2513 0.2074 0.0
C1422 C 0.78797 0.98264 0.30217 0.0
C1423 C 0.79884 0.96968 0.29631 0.0
C1424 C 0.77527 0.9893 0.29153 0.0
C1425 C 0.76602 0.99366 0.24566 0.0
H1426 H 0.72176 0.00956 0.26073 0.0
C1427 C 0.6998 0.01902 0.21322 0.0
C1428 C 0.70687 0.02951 0.20052 0.0
C1429 C 0.71008 0.01226 0.22616 0.0
C1430 C 0.73404 0.00509 0.25632 0.0
H1431 H 0.80406 0.95265 0.27518 0.0
H1432 H 0.78176 0.96387 0.25691 0.0
H1433 H 0.74082 0.99541 0.28098 0.0
H1434 H 0.7301 0.04198 0.19217 0.0
H1435 H 0.7478 0.03051 0.21477 0.0
H1436 H 0.75926 0.00291 0.22102 0.0
C1437 C 0.78336 0.96935 0.26947 0.0
C1438 C 0.74502 0.99712 0.26795 0.0
C1439 C 0.79611 0.96285 0.27999 0.0
C1440 C 0.72424 0.03374 0.20156 0.0
C1441 C 0.73444 0.02709 0.21449 0.0
C1442 C 0.7551 0.00156 0.2341 0.0
C1443 C 0.77313 0.98301 0.27488 0.0
C1444 C 0.76114 0.99129 0.26272 0.0
C1445 C 0.72761 0.01592 0.2267 0.0
C1446 C 0.73901 0.00746 0.23927 0.0
H1447 H 0.78975 0.98818 0.31468 0.0
H1448 H 0.76766 -0.00014 0.29609 0.0
H1449 H 0.77843 0.98961 0.24121 0.0
H1450 H 0.68647 0.01551 0.21283 0.0
H1451 H 0.70442 0.00365 0.23533 0.0
C1452 C 0.97629 0.72277 0.19601 0.0
C1453 C 0.97255 0.70542 0.19846 0.0
C1454 C 0.98364 0.73237 0.209 0.0
C1455 C 0.9886 0.73723 0.2544 0.0
H1456 H 0.02882 0.76302 0.24185 0.0
C1457 C 0.0222 0.78478 0.30065 0.0
C1458 C 0.02734 0.80026 0.29319 0.0
C1459 C 0.01656 0.77122 0.29046 0.0
C1460 C 0.01754 0.756 0.24556 0.0
H1461 H 0.97315 0.68473 0.21677 0.0
H1462 H 0.98577 0.70183 0.23975 0.0
H1463 H 0.01644 0.74306 0.22161 0.0
H1464 H 0.03031 0.81359 0.26913 0.0
H1465 H 0.02028 0.79035 0.25163 0.0
H1466 H 0.98922 0.75082 0.2781 0.0
C1467 C 0.98309 0.7078 0.22761 0.0
C1468 C 0.01052 0.74451 0.23399 0.0
C1469 C 0.97593 0.69804 0.21445 0.0
C1470 C 0.02666 0.80184 0.27537 0.0
C1471 C 0.02099 0.78841 0.26527 0.0
C1472 C 0.99552 0.74894 0.26598 0.0
C1473 C 0.98727 0.72497 0.22485 0.0
C1474 C 0.99576 0.73534 0.23812 0.0
C1475 C 0.01595 0.77289 0.27262 0.0
C1476 C 0.00981 0.75881 0.26148 0.0
H1477 H 0.97391 0.72892 0.1839 0.0
H1478 H 0.98656 0.74565 0.20662 0.0
H1479 H 0.97718 0.7303 0.25784 0.0
H1480 H 0.02258 0.78311 0.31434 0.0
H1481 H 0.01285 0.75941 0.29652 0.0
C1482 C 0.20164 0.03413 0.27739 0.0
C1483 C 0.19964 0.0285 0.29426 0.0
C1484 C 0.2145 0.02751 0.26709 0.0
C1485 C 0.23286 0.00244 0.24487 0.0
H1486 H 0.27855 0.99123 0.2599 0.0
C1487 C 0.27693 0.96367 0.20198 0.0
C1488 C 0.29381 0.96937 0.20029 0.0
C1489 C 0.26652 0.96991 0.21495 0.0
C1490 C 0.26586 0.99437 0.2555 0.0
H1491 H 0.21016 0.01202 0.31378 0.0
H1492 H 0.23251 0.00016 0.29561 0.0
H1493 H 0.25883 0.00533 0.27955 0.0
H1494 H 0.31325 0.98552 0.21146 0.0
H1495 H 0.29489 0.99674 0.23396 0.0
H1496 H 0.23983 0.99199 0.22079 0.0
C1497 C 0.22419 0.00986 0.29043 0.0
C1498 C 0.25452 0.00231 0.2668 0.0
C1499 C 0.21134 0.01662 0.30083 0.0
C1500 C 0.30029 0.98087 0.21241 0.0
C1501 C 0.28978 0.98726 0.22534 0.0
C1502 C 0.24414 0.99458 0.23364 0.0
C1503 C 0.22563 0.01493 0.2733 0.0
C1504 C 0.2379 0.0065 0.26156 0.0
C1505 C 0.27263 0.98218 0.22647 0.0
C1506 C 0.26076 0.99039 0.23878 0.0
H1507 H 0.19305 0.04347 0.27198 0.0
H1508 H 0.21553 0.03204 0.2541 0.0
H1509 H 0.22009 0.00521 0.24046 0.0
H1510 H 0.2716 0.95461 0.19304 0.0
H1511 H 0.25352 0.96536 0.21572 0.0
C1512 C 0.02321 0.6968 0.78419 0.0
C1513 C 0.0295 0.70473 0.79901 0.0
C1514 C 0.01596 0.70655 0.77107 0.0
C1515 C 0.99187 0.74503 0.76569 0.0
H1516 H 0.00789 0.74857 0.71911 0.0
C1517 C 0.97414 0.80206 0.72476 0.0
C1518 C 0.97119 0.80012 0.70721 0.0
C1519 C 0.98029 0.78857 0.73448 0.0
C1520 C 0.00304 0.74748 0.73197 0.0
H1521 H 0.03375 0.72926 0.81118 0.0
H1522 H 0.02091 0.74596 0.78859 0.0
H1523 H 0.021 0.72784 0.73853 0.0
H1524 H 0.97245 0.78231 0.68613 0.0
H1525 H 0.98292 0.75844 0.70333 0.0
H1526 H 0.97395 0.76447 0.75946 0.0
C1527 C 0.02157 0.73225 0.78715 0.0
C1528 C 0.01058 0.73566 0.74305 0.0
C1529 C 0.02896 0.72262 0.80008 0.0
C1530 C 0.97457 0.78423 0.69962 0.0
C1531 C 0.98064 0.77059 0.70946 0.0
C1532 C 0.98421 0.75661 0.75464 0.0
C1533 C 0.0147 0.72431 0.77271 0.0
C1534 C 0.00537 0.73476 0.76013 0.0
C1535 C 0.9835 0.77261 0.72704 0.0
C1536 C 0.99008 0.75844 0.73781 0.0
H1537 H 0.02348 0.68307 0.7829 0.0
H1538 H 0.01073 0.70019 0.76 0.0
H1539 H 0.9875 0.74438 0.77877 0.0
H1540 H 0.97198 0.81415 0.73106 0.0
H1541 H 0.9828 0.7908 0.74786 0.0
C1542 C 0.21424 0.97966 0.69826 0.0
C1543 C 0.20198 0.96868 0.70537 0.0
C1544 C 0.22728 0.98645 0.7084 0.0
C1545 C 0.2576 0.99413 0.73221 0.0
H1546 H 0.24216 0.0085 0.77686 0.0
C1547 C 0.30263 0.01723 0.78664 0.0
C1548 C 0.29634 0.02995 0.79759 0.0
C1549 C 0.29229 0.01044 0.77377 0.0
C1550 C 0.24669 0.00475 0.76439 0.0
H1551 H 0.19462 0.95525 0.72839 0.0
H1552 H 0.21737 0.9668 0.74584 0.0
H1553 H 0.22237 0.9947 0.75762 0.0
H1554 H 0.27476 0.04643 0.80272 0.0
H1555 H 0.25699 0.03493 0.78017 0.0
H1556 H 0.28195 0.00456 0.73905 0.0
C1557 C 0.21667 0.97058 0.73259 0.0
C1558 C 0.23538 0.99658 0.75342 0.0
C1559 C 0.20365 0.96389 0.72254 0.0
C1560 C 0.2799 0.03642 0.79474 0.0
C1561 C 0.26967 0.02977 0.78183 0.0
C1562 C 0.269 0.00234 0.74325 0.0
C1563 C 0.22833 0.98234 0.72581 0.0
C1564 C 0.24068 0.99107 0.73724 0.0
C1565 C 0.27551 0.01633 0.77154 0.0
C1566 C 0.26363 0.00779 0.75947 0.0
H1567 H 0.21335 0.98359 0.68507 0.0
H1568 H 0.23604 0.9955 0.70279 0.0
H1569 H 0.26209 0.98998 0.71984 0.0
H1570 H 0.31526 0.01199 0.7885 0.0
H1571 H 0.29716 7e-05 0.7661 0.0
C1572 C 0.02732 0.19732 0.72448 0.0
C1573 C 0.02873 0.19899 0.70669 0.0
C1574 C 0.02021 0.21029 0.73427 0.0
C1575 C 0.01143 0.25531 0.73765 0.0
H1576 H 0.97514 0.24041 0.76767 0.0
C1577 C 0.97691 0.30066 0.78561 0.0
C1578 C 0.9736 0.29358 0.80175 0.0
C1579 C 0.98278 0.29036 0.77222 0.0
C1580 C 0.98533 0.2448 0.75948 0.0
H1581 H 0.0244 0.21609 0.6854 0.0
H1582 H 0.01213 0.23903 0.70279 0.0
H1583 H 0.98765 0.22038 0.74763 0.0
H1584 H 0.97438 0.27021 0.81652 0.0
H1585 H 0.98485 0.25258 0.79358 0.0
H1586 H 0.0096 0.27959 0.75009 0.0
C1587 C 0.01647 0.22748 0.70896 0.0
C1588 C 0.99242 0.23333 0.74794 0.0
C1589 C 0.02344 0.21434 0.69904 0.0
C1590 C 0.97651 0.2761 0.80423 0.0
C1591 C 0.98245 0.26591 0.79098 0.0
C1592 C 0.00444 0.26682 0.74941 0.0
C1593 C 0.01446 0.22537 0.72661 0.0
C1594 C 0.00579 0.23834 0.73721 0.0
C1595 C 0.9855 0.27282 0.77475 0.0
C1596 C 0.99161 0.26152 0.76079 0.0
H1597 H 0.0313 0.18577 0.73089 0.0
H1598 H 0.01901 0.20845 0.7479 0.0
H1599 H 0.02174 0.25945 0.72948 0.0
H1600 H 0.97481 0.31409 0.78327 0.0
H1601 H 0.98495 0.29608 0.75986 0.0
C1602 C 0.79636 0.03574 0.72305 0.0
C1603 C 0.79792 0.03088 0.70589 0.0
C1604 C 0.78343 0.02904 0.73322 0.0
C1605 C 0.76476 0.00328 0.75438 0.0
H1606 H 0.71823 0.99496 0.7401 0.0
C1607 C 0.72025 0.96407 0.79636 0.0
C1608 C 0.70372 0.97043 0.79894 0.0
C1609 C 0.73053 0.97056 0.7834 0.0
C1610 C 0.73116 0.99728 0.74429 0.0
H1611 H 0.7865 0.01581 0.68574 0.0
H1612 H 0.76397 0.00388 0.70367 0.0
H1613 H 0.73803 0.00932 0.72071 0.0
H1614 H 0.68473 0.98805 0.78936 0.0
H1615 H 0.70289 0.9997 0.76689 0.0
H1616 H 0.75801 0.99172 0.778 0.0
C1617 C 0.77273 0.013 0.70918 0.0
C1618 C 0.74254 0.00537 0.73313 0.0
C1619 C 0.78567 0.0198 0.69892 0.0
C1620 C 0.69741 0.98288 0.78771 0.0
C1621 C 0.70781 0.98952 0.7748 0.0
C1622 C 0.75347 0.99525 0.76546 0.0
C1623 C 0.77176 0.0172 0.72657 0.0
C1624 C 0.75945 0.00855 0.73812 0.0
C1625 C 0.72465 0.98373 0.77279 0.0
C1626 C 0.73653 0.9921 0.76059 0.0
H1627 H 0.80538 0.04445 0.7288 0.0
H1628 H 0.78278 0.03291 0.74645 0.0
H1629 H 0.77776 0.00525 0.75855 0.0
H1630 H 0.72541 0.95426 0.80457 0.0
H1631 H 0.74326 0.96546 0.78193 0.0
C1632 C 0.21401 0.30056 0.97666 0.0
C1633 C 0.1973 0.29428 0.97509 0.0
C1634 C 0.22706 0.29008 0.98295 0.0
C1635 C 0.2368 0.2442 0.9897 0.0
H1636 H 0.27195 0.26052 0.02034 0.0
C1637 C 0.27536 0.19848 0.03053 0.0
C1638 C 0.29321 0.1995 0.02938 0.0
C1639 C 0.2651 0.21139 0.02399 0.0
C1640 C 0.26229 0.25588 0.01166 0.0
H1641 H 0.18105 0.27242 0.97972 0.0
H1642 H 0.20342 0.25453 0.99107 0.0
H1643 H 0.25113 0.28064 0.00854 0.0
H1644 H 0.31424 0.21549 0.02117 0.0
H1645 H 0.29607 0.23827 0.00983 0.0
H1646 H 0.24751 0.21943 0.99326 0.0
C1647 C 0.20673 0.26724 0.98685 0.0
C1648 C 0.2504 0.26737 0.00486 0.0
C1649 C 0.19383 0.27756 0.9804 0.0
C1650 C 0.30054 0.21423 0.02219 0.0
C1651 C 0.29018 0.22729 0.01575 0.0
C1652 C 0.24848 0.23278 0.99662 0.0
C1653 C 0.22358 0.2732 0.98793 0.0
C1654 C 0.23727 0.26157 0.99408 0.0
C1655 C 0.27236 0.22575 0.01624 0.0
C1656 C 0.26112 0.23842 0.00791 0.0
H1657 H 0.21706 0.31341 0.97268 0.0
H1658 H 0.2399 0.29507 0.98356 0.0
H1659 H 0.22724 0.23933 0.98104 0.0
H1660 H 0.26919 0.18747 0.03611 0.0
H1661 H 0.25138 0.21002 0.02477 0.0
C1662 C 0.19922 0.72299 0.0322 0.0
C1663 C 0.20003 0.70512 0.03099 0.0
C1664 C 0.21201 0.73313 0.02527 0.0
C1665 C 0.25591 0.73611 0.01162 0.0
H1666 H 0.23816 0.77009 0.98047 0.0
C1667 C 0.2989 0.78507 0.97535 0.0
C1668 C 0.29219 0.80163 0.97395 0.0
C1669 C 0.28885 0.77174 0.98175 0.0
C1670 C 0.24337 0.76081 0.98924 0.0
H1671 H 0.2156 0.68395 0.02236 0.0
H1672 H 0.23821 0.70193 0.01036 0.0
H1673 H 0.21888 0.74971 0.9935 0.0
H1674 H 0.26994 0.81728 0.97893 0.0
H1675 H 0.2528 0.79443 0.99037 0.0
H1676 H 0.28038 0.74773 0.00786 0.0
C1677 C 0.22747 0.70791 0.01662 0.0
C1678 C 0.23231 0.74908 0.99662 0.0
C1679 C 0.21451 0.69766 0.02345 0.0
C1680 C 0.27544 0.80463 0.97946 0.0
C1681 C 0.26554 0.79145 0.98598 0.0
C1682 C 0.26704 0.74807 0.00436 0.0
C1683 C 0.22604 0.72573 0.01707 0.0
C1684 C 0.23838 0.73686 0.00815 0.0
C1685 C 0.27196 0.77477 0.98697 0.0
C1686 C 0.26079 0.76083 0.9934 0.0
H1687 H 0.18841 0.72926 0.03805 0.0
H1688 H 0.21075 0.74686 0.026 0.0
H1689 H 0.26087 0.72677 0.02047 0.0
H1690 H 0.3118 0.78237 0.97126 0.0
H1691 H 0.29418 0.75903 0.98232 0.0
C1692 C 0.80281 0.27519 0.02367 0.0
C1693 C 0.80033 0.2926 0.02709 0.0
C1694 C 0.78986 0.26544 0.01644 0.0
C1695 C 0.74444 0.26056 0.01127 0.0
H1696 H 0.75727 0.23392 0.97169 0.0
C1697 C 0.69809 0.21314 0.97768 0.0
C1698 C 0.70537 0.19748 0.97282 0.0
C1699 C 0.70841 0.22658 0.98335 0.0
C1700 C 0.75348 0.24117 0.9828 0.0
H1701 H 0.78198 0.31325 0.02611 0.0
H1702 H 0.75906 0.29589 0.01372 0.0
H1703 H 0.77749 0.254 0.9839 0.0
H1704 H 0.72925 0.18372 0.97039 0.0
H1705 H 0.74698 0.20679 0.98046 0.0
H1706 H 0.72065 0.24714 0.01063 0.0
C1707 C 0.77121 0.28999 0.01654 0.0
C1708 C 0.76504 0.25273 0.98972 0.0
C1709 C 0.78433 0.29989 0.02357 0.0
C1710 C 0.72315 0.1956 0.97384 0.0
C1711 C 0.73338 0.20893 0.97953 0.0
C1712 C 0.73286 0.2488 0.00443 0.0
C1713 C 0.77402 0.27275 0.01264 0.0
C1714 C 0.7608 0.26223 0.00424 0.0
C1715 C 0.7262 0.22463 0.98427 0.0
C1716 C 0.73745 0.23864 0.99038 0.0
H1717 H 0.81493 0.26909 0.02617 0.0
H1718 H 0.79227 0.25212 0.01375 0.0
H1719 H 0.74091 0.26774 0.02251 0.0
H1720 H 0.68444 0.21505 0.97705 0.0
H1721 H 0.70248 0.23854 0.98682 0.0
C1722 C 0.78595 0.69891 0.97636 0.0
C1723 C 0.80194 0.70602 0.97247 0.0
C1724 C 0.77259 0.70928 0.98217 0.0
C1725 C 0.75941 0.75475 0.9834 0.0
H1726 H 0.73037 0.74109 0.02095 0.0
C1727 C 0.72473 0.80323 0.02463 0.0
C1728 C 0.70709 0.80118 0.02697 0.0
C1729 C 0.73448 0.79027 0.01744 0.0
C1730 C 0.73826 0.74494 0.01031 0.0
H1731 H 0.81651 0.72954 0.97218 0.0
H1732 H 0.7936 0.74731 0.98254 0.0
H1733 H 0.75095 0.72076 0.00909 0.0
H1734 H 0.686 0.78353 0.0241 0.0
H1735 H 0.70333 0.76061 0.01169 0.0
H1736 H 0.7473 0.77909 0.98507 0.0
C1737 C 0.7911 0.73387 0.98064 0.0
C1738 C 0.75 0.73333 0.00349 0.0
C1739 C 0.80432 0.72362 0.97477 0.0
C1740 C 0.69954 0.78556 0.0224 0.0
C1741 C 0.70942 0.77243 0.01537 0.0
C1742 C 0.74787 0.76633 0.9903 0.0
C1743 C 0.775 0.72692 0.98425 0.0
C1744 C 0.76105 0.73828 0.99025 0.0
C1745 C 0.72692 0.77483 0.01254 0.0
C1746 C 0.73748 0.76169 0.00407 0.0
H1747 H 0.78369 0.6854 0.97473 0.0
H1748 H 0.76034 0.70352 0.98479 0.0
H1749 H 0.76734 0.75886 0.97289 0.0
H1750 H 0.73105 0.81502 0.028 0.0
H1751 H 0.748 0.79235 0.0156 0.0
C1752 C 0.4768 0.71352 0.80121 0.0
C1753 C 0.4735 0.69737 0.79415 0.0
C1754 C 0.48312 0.72676 0.79098 0.0
C1755 C 0.48679 0.73908 0.74541 0.0
H1756 H 0.5228 0.76929 0.76062 0.0
C1757 C 0.52929 0.77403 0.69849 0.0
C1758 C 0.53002 0.79189 0.69984 0.0
C1759 C 0.52235 0.76423 0.71155 0.0
C1760 C 0.51261 0.76105 0.75633 0.0
H1761 H 0.47487 0.68237 0.77095 0.0
H1762 H 0.48611 0.70505 0.75345 0.0
H1763 H 0.51029 0.74876 0.78065 0.0
H1764 H 0.52481 0.81332 0.71653 0.0
H1765 H 0.51285 0.79592 0.73963 0.0
H1766 H 0.48958 0.75078 0.72098 0.0
C1767 C 0.48334 0.70778 0.76669 0.0
C1768 C 0.50541 0.74934 0.76776 0.0
C1769 C 0.47695 0.69469 0.77679 0.0
C1770 C 0.52437 0.79962 0.71503 0.0
C1771 C 0.51757 0.7897 0.72825 0.0
C1772 C 0.49408 0.75056 0.73403 0.0
C1773 C 0.48631 0.72405 0.77354 0.0
C1774 C 0.49271 0.73791 0.76228 0.0
C1775 C 0.51612 0.77197 0.72639 0.0
C1776 C 0.50731 0.76137 0.73925 0.0
H1777 H 0.4743 0.716 0.81454 0.0
H1778 H 0.48523 0.73915 0.79665 0.0
H1779 H 0.4767 0.73084 0.74086 0.0
H1780 H 0.53359 0.76755 0.6871 0.0
H1781 H 0.52158 0.75055 0.70992 0.0
C1782 C 0.28606 0.48185 0.80118 0.0
C1783 C 0.29629 0.46821 0.7957 0.0
C1784 C 0.27298 0.48809 0.79075 0.0
C1785 C 0.26193 0.48946 0.74511 0.0
H1786 H 0.21967 0.50973 0.76069 0.0
C1787 C 0.19727 0.51885 0.71296 0.0
C1788 C 0.20497 0.52855 0.69999 0.0
C1789 C 0.20715 0.51162 0.72597 0.0
C1790 C 0.23137 0.50399 0.75616 0.0
H1791 H 0.29992 0.44949 0.77574 0.0
H1792 H 0.27681 0.45988 0.75792 0.0
H1793 H 0.23848 0.49547 0.78116 0.0
H1794 H 0.22902 0.53903 0.69119 0.0
H1795 H 0.24603 0.52664 0.71377 0.0
H1796 H 0.25488 0.49771 0.72019 0.0
C1797 C 0.27925 0.46625 0.76991 0.0
C1798 C 0.24221 0.49596 0.76789 0.0
C1799 C 0.29245 0.46022 0.78017 0.0
C1800 C 0.22263 0.53145 0.70078 0.0
C1801 C 0.23244 0.52427 0.71372 0.0
C1802 C 0.25116 0.49744 0.73347 0.0
C1803 C 0.26976 0.48066 0.77475 0.0
C1804 C 0.25766 0.48864 0.76248 0.0
C1805 C 0.22492 0.51393 0.72623 0.0
C1806 C 0.23585 0.50497 0.73884 0.0
H1807 H 0.28877 0.48829 0.81308 0.0
H1808 H 0.26599 0.49924 0.79486 0.0
H1809 H 0.27382 0.48425 0.74047 0.0
H1810 H 0.18369 0.51642 0.71281 0.0
H1811 H 0.20098 0.50371 0.73544 0.0
C1812 C 0.51929 0.28662 0.80107 0.0
C1813 C 0.53104 0.29831 0.79428 0.0
C1814 C 0.51255 0.27359 0.79088 0.0
C1815 C 0.50462 0.26477 0.7455 0.0
H1816 H 0.49284 0.21933 0.76086 0.0
C1817 C 0.48092 0.19796 0.71335 0.0
C1818 C 0.46917 0.20475 0.70164 0.0
C1819 C 0.48783 0.20823 0.72622 0.0
C1820 C 0.49613 0.23195 0.75638 0.0
H1821 H 0.54594 0.30465 0.77189 0.0
H1822 H 0.53457 0.28183 0.75436 0.0
H1823 H 0.50766 0.23885 0.7802 0.0
H1824 H 0.45449 0.22724 0.69512 0.0
H1825 H 0.46619 0.24491 0.71766 0.0
H1826 H 0.49352 0.25795 0.72167 0.0
C1827 C 0.53009 0.283 0.76735 0.0
C1828 C 0.50449 0.24317 0.76749 0.0
C1829 C 0.53669 0.29605 0.77745 0.0
C1830 C 0.46373 0.22167 0.70373 0.0
C1831 C 0.47051 0.23185 0.71661 0.0
C1832 C 0.49631 0.25362 0.73447 0.0
C1833 C 0.51753 0.27196 0.77374 0.0
C1834 C 0.50888 0.25971 0.76214 0.0
C1835 C 0.48306 0.22545 0.72767 0.0
C1836 C 0.49187 0.23711 0.73975 0.0
H1837 H 0.51467 0.288 0.814 0.0
H1838 H 0.50287 0.26534 0.7962 0.0
H1839 H 0.50752 0.27748 0.74101 0.0
H1840 H 0.48538 0.18497 0.71209 0.0
H1841 H 0.4975 0.20291 0.73449 0.0
C1842 C 0.79874 0.47582 0.71376 0.0
C1843 C 0.79295 0.47601 0.6968 0.0
C1844 C 0.7885 0.48234 0.72689 0.0
C1845 C 0.74323 0.49317 0.73567 0.0
H1846 H 0.76118 0.51958 0.77337 0.0
C1847 C 0.69994 0.53505 0.77573 0.0
C1848 C 0.7002 0.53244 0.79345 0.0
C1849 C 0.71272 0.52835 0.7654 0.0
C1850 C 0.75606 0.51209 0.76297 0.0
H1851 H 0.77231 0.484 0.68025 0.0
H1852 H 0.75489 0.49572 0.70281 0.0
H1853 H 0.78079 0.50718 0.75239 0.0
H1854 H 0.71479 0.52157 0.81428 0.0
H1855 H 0.73733 0.50992 0.79601 0.0
H1856 H 0.71856 0.49849 0.74585 0.0
C1857 C 0.76696 0.48997 0.7062 0.0
C1858 C 0.76726 0.50495 0.751 0.0
C1859 C 0.77702 0.4833 0.69321 0.0
C1860 C 0.71415 0.52376 0.80067 0.0
C1861 C 0.72706 0.51711 0.79025 0.0
C1862 C 0.73213 0.50043 0.74745 0.0
C1863 C 0.77237 0.4893 0.72326 0.0
C1864 C 0.76091 0.49571 0.73698 0.0
C1865 C 0.72616 0.51895 0.77248 0.0
C1866 C 0.73837 0.51024 0.76101 0.0
H1867 H 0.81098 0.47031 0.71691 0.0
H1868 H 0.79304 0.48157 0.73989 0.0
H1869 H 0.73788 0.48569 0.72539 0.0
H1870 H 0.68958 0.54185 0.76968 0.0
H1871 H 0.71188 0.5302 0.75175 0.0
C1872 C 0.52333 0.19728 0.28459 0.0
C1873 C 0.52937 0.20529 0.29947 0.0
C1874 C 0.516 0.20692 0.27144 0.0
C1875 C 0.49156 0.24526 0.26579 0.0
H1876 H 0.5078 0.24843 0.21926 0.0
C1877 C 0.47419 0.30201 0.22439 0.0
C1878 C 0.47128 0.29997 0.20684 0.0
C1879 C 0.48024 0.28856 0.23422 0.0
C1880 C 0.50288 0.24743 0.2321 0.0
H1881 H 0.53305 0.22985 0.31175 0.0
H1882 H 0.5201 0.24638 0.28908 0.0
H1883 H 0.52086 0.22789 0.23891 0.0
H1884 H 0.47252 0.28201 0.18588 0.0
H1885 H 0.48284 0.25821 0.20328 0.0
H1886 H 0.47364 0.26461 0.2593 0.0
C1887 C 0.521 0.23268 0.28762 0.0
C1888 C 0.5104 0.23573 0.24332 0.0
C1889 C 0.52847 0.22316 0.30059 0.0
C1890 C 0.47461 0.28401 0.19936 0.0
C1891 C 0.48058 0.2704 0.20931 0.0
C1892 C 0.48394 0.25673 0.2546 0.0
C1893 C 0.51442 0.22465 0.2731 0.0
C1894 C 0.50512 0.23497 0.26039 0.0
C1895 C 0.4834 0.27253 0.22689 0.0
C1896 C 0.48989 0.25843 0.23779 0.0
H1897 H 0.52388 0.18356 0.28327 0.0
H1898 H 0.51101 0.20049 0.2603 0.0
H1899 H 0.48711 0.24471 0.27884 0.0
H1900 H 0.47207 0.31415 0.2306 0.0
H1901 H 0.48271 0.29086 0.24759 0.0
C1902 C 0.77502 0.53166 0.29982 0.0
C1903 C 0.79244 0.52764 0.30086 0.0
C1904 C 0.76487 0.52478 0.28698 0.0
C1905 C 0.74432 0.49916 0.26741 0.0
H1906 H 0.75873 0.49296 0.22059 0.0
C1907 C 0.70277 0.46144 0.22114 0.0
C1908 C 0.70032 0.46839 0.20483 0.0
C1909 C 0.71561 0.46759 0.23176 0.0
C1910 C 0.7545 0.49468 0.2336 0.0
H1911 H 0.81296 0.51369 0.28869 0.0
H1912 H 0.79509 0.50139 0.26635 0.0
H1913 H 0.77781 0.50696 0.24091 0.0
H1914 H 0.70999 0.48672 0.18658 0.0
H1915 H 0.73221 0.49781 0.20536 0.0
H1916 H 0.72091 0.48745 0.26019 0.0
C1917 C 0.78936 0.51004 0.27544 0.0
C1918 C 0.76549 0.50255 0.24528 0.0
C1919 C 0.79959 0.51705 0.28829 0.0
C1920 C 0.71155 0.4811 0.19908 0.0
C1921 C 0.72433 0.48741 0.20983 0.0
C1922 C 0.73338 0.49138 0.2558 0.0
C1923 C 0.77179 0.51355 0.27487 0.0
C1924 C 0.76045 0.50499 0.26231 0.0
C1925 C 0.72621 0.48102 0.22648 0.0
C1926 C 0.73829 0.48901 0.23874 0.0
H1927 H 0.76911 0.53997 0.30912 0.0
H1928 H 0.75149 0.52811 0.28667 0.0
H1929 H 0.74011 0.50055 0.28047 0.0
H1930 H 0.69453 0.45143 0.22586 0.0
H1931 H 0.71699 0.46203 0.24431 0.0
C1932 C 0.52306 0.71515 0.19875 0.0
C1933 C 0.52701 0.69935 0.20629 0.0
C1934 C 0.51592 0.72832 0.20851 0.0
C1935 C 0.48907 0.7344 0.24555 0.0
H1936 H 0.50939 0.779 0.25166 0.0
C1937 C 0.47259 0.77539 0.30312 0.0
C1938 C 0.47153 0.79319 0.30154 0.0
C1939 C 0.47832 0.7654 0.28961 0.0
C1940 C 0.50335 0.76673 0.24984 0.0
H1941 H 0.52688 0.6853 0.23016 0.0
H1942 H 0.51428 0.70802 0.24685 0.0
H1943 H 0.52168 0.75904 0.23098 0.0
H1944 H 0.47564 0.81442 0.28433 0.0
H1945 H 0.48545 0.79683 0.26052 0.0
H1946 H 0.47081 0.74179 0.26428 0.0
C1947 C 0.5167 0.71021 0.23344 0.0
C1948 C 0.51042 0.75533 0.23804 0.0
C1949 C 0.52401 0.69721 0.22383 0.0
C1950 C 0.47631 0.80075 0.286 0.0
C1951 C 0.482 0.79068 0.27238 0.0
C1952 C 0.48192 0.74579 0.25714 0.0
C1953 C 0.51236 0.72578 0.22586 0.0
C1954 C 0.50363 0.73889 0.23622 0.0
C1955 C 0.48303 0.77286 0.27403 0.0
C1956 C 0.4893 0.76188 0.25988 0.0
H1957 H 0.52526 0.71725 0.18529 0.0
H1958 H 0.51269 0.74027 0.20241 0.0
H1959 H 0.48346 0.72187 0.24417 0.0
H1960 H 0.46922 0.76908 0.31491 0.0
H1961 H 0.47934 0.75178 0.29154 0.0
C1962 C 0.29642 0.53782 0.22015 0.0
C1963 C 0.29924 0.53043 0.2041 0.0
C1964 C 0.28366 0.53164 0.23085 0.0
C1965 C 0.2454 0.50371 0.23306 0.0
H1966 H 0.25896 0.50022 0.28042 0.0
C1967 C 0.22401 0.46932 0.30039 0.0
C1968 C 0.20647 0.47293 0.30073 0.0
C1969 C 0.23439 0.47593 0.28758 0.0
C1970 C 0.25499 0.50093 0.26722 0.0
H1971 H 0.29033 0.51122 0.18637 0.0
H1972 H 0.26824 0.50009 0.20529 0.0
H1973 H 0.27832 0.51276 0.25994 0.0
H1974 H 0.18603 0.48592 0.28742 0.0
H1975 H 0.20428 0.49774 0.26516 0.0
H1976 H 0.22219 0.49132 0.24045 0.0
C1977 C 0.27577 0.51085 0.2095 0.0
C1978 C 0.26601 0.5084 0.25549 0.0
C1979 C 0.28847 0.51719 0.19867 0.0
C1980 C 0.19949 0.4829 0.28758 0.0
C1981 C 0.20994 0.48962 0.27476 0.0
C1982 C 0.23433 0.49616 0.24486 0.0
C1983 C 0.27349 0.51775 0.22589 0.0
C1984 C 0.26139 0.50993 0.23825 0.0
C1985 C 0.22758 0.48645 0.2748 0.0
C1986 C 0.23905 0.4946 0.26208 0.0
H1987 H 0.30429 0.54824 0.22461 0.0
H1988 H 0.28196 0.5376 0.24318 0.0
H1989 H 0.24139 0.50478 0.21991 0.0
H1990 H 0.22983 0.4615 0.31015 0.0
H1991 H 0.24784 0.47288 0.28778 0.0
C1992 C 0.77661 0.69474 0.52151 0.0
C1993 C 0.79357 0.69776 0.52633 0.0
C1994 C 0.76659 0.70781 0.51492 0.0
C1995 C 0.76818 0.7507 0.49521 0.0
H1996 H 0.72013 0.74978 0.50666 0.0
C1997 C 0.71571 0.80126 0.47616 0.0
C1998 C 0.70127 0.79375 0.46858 0.0
C1999 C 0.72867 0.79105 0.48303 0.0
C2000 C 0.73353 0.7502 0.50338 0.0
H2001 H 0.81336 0.71696 0.52786 0.0
H2002 H 0.79559 0.74009 0.51674 0.0
H2003 H 0.73938 0.72949 0.51992 0.0
H2004 H 0.68974 0.76958 0.46149 0.0
H2005 H 0.71208 0.75204 0.47363 0.0
H2006 H 0.76202 0.77174 0.47875 0.0
C2007 C 0.79016 0.72745 0.51783 0.0
C2008 C 0.74457 0.73852 0.51088 0.0
C2009 C 0.80032 0.71423 0.52427 0.0
C2010 C 0.70051 0.77588 0.46736 0.0
C2011 C 0.7133 0.76577 0.47434 0.0
C2012 C 0.75708 0.76262 0.48785 0.0
C2013 C 0.77311 0.7244 0.51318 0.0
C2014 C 0.76195 0.73824 0.50653 0.0
C2015 C 0.72729 0.77322 0.48257 0.0
C2016 C 0.7396 0.76214 0.49156 0.0
H2017 H 0.77106 0.68215 0.52259 0.0
H2018 H 0.75371 0.7048 0.511 0.0
H2019 H 0.78146 0.75084 0.49152 0.0
H2020 H 0.71676 0.81497 0.47725 0.0
H2021 H 0.73939 0.79705 0.48931 0.0
C2022 C 0.71195 0.1966 0.51682 0.0
C2023 C 0.69991 0.20397 0.52788 0.0
C2024 C 0.72472 0.20661 0.50936 0.0
C2025 C 0.75496 0.23027 0.50091 0.0
H2026 H 0.73957 0.27469 0.48577 0.0
C2027 C 0.80022 0.28485 0.47912 0.0
C2028 C 0.79415 0.29614 0.46661 0.0
C2029 C 0.7898 0.27172 0.48527 0.0
C2030 C 0.74409 0.26226 0.48969 0.0
H2031 H 0.69259 0.22742 0.54058 0.0
H2032 H 0.71485 0.24465 0.52785 0.0
H2033 H 0.71967 0.25557 0.49954 0.0
H2034 H 0.773 0.30161 0.44971 0.0
H2035 H 0.75511 0.27854 0.46003 0.0
H2036 H 0.77942 0.23705 0.49075 0.0
C2037 C 0.71419 0.23127 0.52455 0.0
C2038 C 0.7327 0.25137 0.49785 0.0
C2039 C 0.70145 0.22134 0.53192 0.0
C2040 C 0.77794 0.29333 0.45958 0.0
C2041 C 0.76765 0.28014 0.46556 0.0
C2042 C 0.76642 0.24123 0.49269 0.0
C2043 C 0.7257 0.22415 0.51284 0.0
C2044 C 0.738 0.23532 0.50373 0.0
C2045 C 0.77318 0.26956 0.47891 0.0
C2046 C 0.76111 0.25739 0.48703 0.0
H2047 H 0.71116 0.18324 0.51345 0.0
H2048 H 0.73338 0.20074 0.50036 0.0
H2049 H 0.75944 0.218 0.50533 0.0
H2050 H 0.81266 0.28668 0.48479 0.0
H2051 H 0.79446 0.26385 0.49559 0.0
C2052 C 0.30526 0.77842 0.51751 0.0
C2053 C 0.30185 0.79478 0.52388 0.0
C2054 C 0.29228 0.76848 0.51065 0.0
C2055 C 0.24819 0.76946 0.49361 0.0
H2056 H 0.25172 0.72091 0.50208 0.0
C2057 C 0.19828 0.71605 0.47538 0.0
C2058 C 0.20569 0.702 0.46702 0.0
C2059 C 0.20853 0.72919 0.48186 0.0
C2060 C 0.25057 0.73445 0.49961 0.0
H2061 H 0.28213 0.8137 0.52775 0.0
H2062 H 0.25912 0.79597 0.5162 0.0
H2063 H 0.27209 0.74019 0.5151 0.0
H2064 H 0.22963 0.69147 0.45792 0.0
H2065 H 0.24728 0.71413 0.46935 0.0
H2066 H 0.2263 0.76337 0.47825 0.0
C2067 C 0.27198 0.79099 0.51627 0.0
C2068 C 0.2623 0.74552 0.50697 0.0
C2069 C 0.28512 0.80111 0.52295 0.0
C2070 C 0.22343 0.7019 0.46448 0.0
C2071 C 0.2336 0.71488 0.47104 0.0
C2072 C 0.23622 0.7583 0.48638 0.0
C2073 C 0.27539 0.77444 0.51023 0.0
C2074 C 0.26162 0.76312 0.50369 0.0
C2075 C 0.22633 0.72839 0.48018 0.0
C2076 C 0.23763 0.74066 0.48899 0.0
H2077 H 0.31807 0.77329 0.51768 0.0
H2078 H 0.29555 0.75606 0.50561 0.0
H2079 H 0.24727 0.78293 0.49079 0.0
H2080 H 0.18466 0.71658 0.47751 0.0
H2081 H 0.20265 0.73952 0.48887 0.0
C2082 C 0.22425 0.3036 0.52331 0.0
C2083 C 0.20672 0.30157 0.52631 0.0
C2084 C 0.23408 0.29009 0.51737 0.0
C2085 C 0.23195 0.24869 0.49521 0.0
H2086 H 0.27868 0.24605 0.51101 0.0
C2087 C 0.28417 0.19799 0.47546 0.0
C2088 C 0.29917 0.20579 0.46944 0.0
C2089 C 0.27106 0.20783 0.4826 0.0
C2090 C 0.26563 0.24658 0.50655 0.0
H2091 H 0.18579 0.28355 0.52535 0.0
H2092 H 0.20319 0.25967 0.51521 0.0
H2093 H 0.25919 0.26621 0.5242 0.0
H2094 H 0.3117 0.2302 0.4656 0.0
H2095 H 0.2891 0.24707 0.47823 0.0
H2096 H 0.23869 0.22886 0.47751 0.0
C2097 C 0.20921 0.2719 0.51731 0.0
C2098 C 0.25448 0.25819 0.51401 0.0
C2099 C 0.19926 0.28555 0.52319 0.0
C2100 C 0.30045 0.22366 0.47017 0.0
C2101 C 0.28752 0.23338 0.47745 0.0
C2102 C 0.24313 0.23684 0.48786 0.0
C2103 C 0.22677 0.27402 0.51441 0.0
C2104 C 0.23766 0.25984 0.50805 0.0
C2105 C 0.27288 0.22557 0.48402 0.0
C2106 C 0.2602 0.23611 0.49315 0.0
H2107 H 0.23045 0.31577 0.52529 0.0
H2108 H 0.24744 0.29238 0.51484 0.0
H2109 H 0.2191 0.24964 0.49028 0.0
H2110 H 0.28272 0.18427 0.47504 0.0
H2111 H 0.25983 0.20156 0.48758 0.0
C2112 C 0.06753 0.32448 0.11987 0.0
C2113 C 0.06462 0.33978 0.12861 0.0
C2114 C 0.07599 0.32451 0.10424 0.0
C2115 C 0.08936 0.35287 0.06868 0.0
H2116 H 0.11858 0.3145 0.05802 0.0
C2117 C 0.13377 0.34717 0.00892 0.0
C2118 C 0.13115 0.33208 0.99961 0.0
C2119 C 0.12591 0.34946 0.02478 0.0
C2120 C 0.11046 0.32529 0.06087 0.0
H2121 H 0.0683 0.36713 0.12797 0.0
H2122 H 0.08364 0.36717 0.10095 0.0
H2123 H 0.10472 0.31593 0.08571 0.0
H2124 H 0.11811 0.30766 0.99962 0.0
H2125 H 0.1048 0.31159 0.02729 0.0
H2126 H 0.09556 0.36229 0.04375 0.0
C2127 C 0.07901 0.35517 0.1059 0.0
C2128 C 0.1024 0.32607 0.07667 0.0
C2129 C 0.0703 0.35515 0.12143 0.0
C2130 C 0.12039 0.31947 0.00639 0.0
C2131 C 0.11283 0.32164 0.02228 0.0
C2132 C 0.09768 0.35221 0.05293 0.0
C2133 C 0.08203 0.33983 0.09713 0.0
C2134 C 0.09145 0.33968 0.08067 0.0
C2135 C 0.11562 0.33656 0.03168 0.0
C2136 C 0.10803 0.33824 0.04881 0.0
H2137 H 0.06316 0.31246 0.12503 0.0
H2138 H 0.07768 0.3125 0.09769 0.0
H2139 H 0.08091 0.36347 0.07122 0.0
H2140 H 0.14195 0.35714 0.00402 0.0
H2141 H 0.12823 0.36108 0.03186 0.0
C2142 C 0.67454 0.07368 0.12401 0.0
C2143 C 0.65968 0.06584 0.13013 0.0
C2144 C 0.67457 0.08182 0.10819 0.0
C2145 C 0.67416 0.08856 0.07031 0.0
H2146 H 0.63545 0.11526 0.05518 0.0
C2147 C 0.67057 0.11365 0.00195 0.0
C2148 C 0.66515 0.13055 0.99965 0.0
C2149 C 0.66855 0.10554 0.01762 0.0
C2150 C 0.6464 0.10794 0.05927 0.0
H2151 H 0.63318 0.06042 0.12456 0.0
H2152 H 0.6333 0.0744 0.0968 0.0
H2153 H 0.63504 0.10214 0.08338 0.0
H2154 H 0.65273 0.15199 0.01187 0.0
H2155 H 0.64945 0.1379 0.03941 0.0
H2156 H 0.68576 0.0947 0.0465 0.0
C2157 C 0.64486 0.07449 0.10432 0.0
C2158 C 0.64609 0.10026 0.07535 0.0
C2159 C 0.64482 0.06639 0.12018 0.0
C2160 C 0.65702 0.13895 0.01322 0.0
C2161 C 0.6551 0.13085 0.02899 0.0
C2162 C 0.67449 0.09625 0.0543 0.0
C2163 C 0.65976 0.08225 0.09811 0.0
C2164 C 0.65999 0.09049 0.08106 0.0
C2165 C 0.66118 0.11417 0.03146 0.0
C2166 C 0.66061 0.10599 0.04854 0.0
H2167 H 0.68616 0.07354 0.13144 0.0
H2168 H 0.68619 0.0879 0.10392 0.0
H2169 H 0.685 0.08096 0.0742 0.0
H2170 H 0.67666 0.10671 0.99169 0.0
H2171 H 0.67298 0.09254 0.01894 0.0
C2172 C 0.92743 0.64353 0.12175 0.0
C2173 C 0.93303 0.65878 0.12924 0.0
C2174 C 0.91891 0.64374 0.10611 0.0
C2175 C 0.89609 0.67331 0.07683 0.0
H2176 H 0.90337 0.63748 0.04359 0.0
C2177 C 0.87891 0.68075 0.00637 0.0
C2178 C 0.86828 0.66816 0.99932 0.0
C2179 C 0.88632 0.67843 0.02232 0.0
C2180 C 0.90113 0.64746 0.05285 0.0
H2181 H 0.93452 0.68615 0.12607 0.0
H2182 H 0.92036 0.68653 0.09857 0.0
H2183 H 0.91753 0.6359 0.07129 0.0
H2184 H 0.85758 0.643 0.0033 0.0
H2185 H 0.87101 0.6388 0.03124 0.0
H2186 H 0.88027 0.68517 0.05806 0.0
C2187 C 0.92194 0.67441 0.10496 0.0
C2188 C 0.90917 0.64656 0.06874 0.0
C2189 C 0.9302 0.67421 0.12069 0.0
C2190 C 0.86565 0.65295 0.00842 0.0
C2191 C 0.87335 0.65051 0.02434 0.0
C2192 C 0.88831 0.67432 0.0609 0.0
C2193 C 0.91602 0.6592 0.09751 0.0
C2194 C 0.9069 0.6596 0.08087 0.0
C2195 C 0.88351 0.66337 0.03151 0.0
C2196 C 0.8909 0.66151 0.04872 0.0
H2197 H 0.92939 0.63144 0.12811 0.0
H2198 H 0.91436 0.6318 0.10091 0.0
H2199 H 0.89363 0.68334 0.08597 0.0
H2200 H 0.8812 0.69264 0.99976 0.0
H2201 H 0.89424 0.68846 0.02754 0.0
C2202 C 0.34545 0.86389 0.00949 0.0
C2203 C 0.3302 0.8669 0.00057 0.0
C2204 C 0.34822 0.87146 0.02544 0.0
C2205 C 0.32515 0.88708 0.06225 0.0
H2206 H 0.36336 0.917 0.07135 0.0
C2207 C 0.32481 0.93163 0.12001 0.0
C2208 C 0.34017 0.9348 0.12855 0.0
C2209 C 0.32474 0.92273 0.10462 0.0
C2210 C 0.35277 0.90845 0.06916 0.0
H2211 H 0.30598 0.88029 0.00142 0.0
H2212 H 0.31073 0.89307 0.02917 0.0
H2213 H 0.36175 0.90182 0.04417 0.0
H2214 H 0.36753 0.93119 0.12775 0.0
H2215 H 0.36739 0.91513 0.10116 0.0
H2216 H 0.31616 0.89334 0.08711 0.0
C2217 C 0.32054 0.88496 0.02382 0.0
C2218 C 0.35187 0.8998 0.05359 0.0
C2219 C 0.31789 0.87768 0.00787 0.0
C2220 C 0.35549 0.92899 0.12137 0.0
C2221 C 0.35541 0.91986 0.10608 0.0
C2222 C 0.32616 0.89548 0.07786 0.0
C2223 C 0.33564 0.88184 0.03279 0.0
C2224 C 0.33785 0.88936 0.04989 0.0
C2225 C 0.34001 0.91653 0.09755 0.0
C2226 C 0.33975 0.90661 0.08138 0.0
H2227 H 0.3552 0.85569 0.00419 0.0
H2228 H 0.35998 0.86891 0.03219 0.0
H2229 H 0.31431 0.87892 0.05973 0.0
H2230 H 0.31282 0.9361 0.12517 0.0
H2231 H 0.31268 0.92082 0.09822 0.0
C2232 C 0.07088 0.64404 0.87869 0.0
C2233 C 0.06572 0.65926 0.87083 0.0
C2234 C 0.07996 0.64443 0.89402 0.0
C2235 C 0.10547 0.67384 0.92108 0.0
H2236 H 0.0978 0.63978 0.95604 0.0
C2237 C 0.12554 0.68298 0.99069 0.0
C2238 C 0.13473 0.66973 0.99847 0.0
C2239 C 0.1181 0.68068 0.97474 0.0
C2240 C 0.10019 0.64924 0.94629 0.0
H2241 H 0.06551 0.68676 0.87304 0.0
H2242 H 0.08071 0.68747 0.90002 0.0
H2243 H 0.08236 0.63791 0.92907 0.0
H2244 H 0.14315 0.64357 0.99565 0.0
H2245 H 0.12969 0.63944 0.96772 0.0
H2246 H 0.12279 0.68551 0.93863 0.0
C2247 C 0.07832 0.67522 0.89415 0.0
C2248 C 0.09139 0.64818 0.93082 0.0
C2249 C 0.06947 0.67484 0.87873 0.0
C2250 C 0.13619 0.65403 0.98996 0.0
C2251 C 0.12846 0.65164 0.97405 0.0
C2252 C 0.11406 0.67501 0.93659 0.0
C2253 C 0.08388 0.66004 0.90191 0.0
C2254 C 0.09376 0.6606 0.9181 0.0
C2255 C 0.11945 0.66501 0.96628 0.0
C2256 C 0.11136 0.66285 0.9494 0.0
H2257 H 0.06822 0.63184 0.87283 0.0
H2258 H 0.08418 0.63249 0.89948 0.0
H2259 H 0.10801 0.68337 0.91145 0.0
H2260 H 0.12421 0.69526 0.99685 0.0
H2261 H 0.11109 0.69114 0.96909 0.0
C2262 C 0.35629 0.07207 0.87692 0.0
C2263 C 0.34117 0.06736 0.86861 0.0
C2264 C 0.35573 0.08115 0.89224 0.0
C2265 C 0.32633 0.10715 0.91897 0.0
H2266 H 0.35912 0.0976 0.95466 0.0
C2267 C 0.31613 0.12596 0.98891 0.0
C2268 C 0.32949 0.13461 0.99712 0.0
C2269 C 0.31851 0.11879 0.97285 0.0
C2270 C 0.35002 0.10051 0.94471 0.0
H2271 H 0.31362 0.06818 0.86991 0.0
H2272 H 0.31257 0.0834 0.89684 0.0
H2273 H 0.36128 0.08273 0.92741 0.0
H2274 H 0.35592 0.14233 0.99496 0.0
H2275 H 0.36021 0.12929 0.96686 0.0
H2276 H 0.31469 0.12439 0.93662 0.0
C2277 C 0.32491 0.08062 0.89136 0.0
C2278 C 0.35125 0.09205 0.92907 0.0
C2279 C 0.32549 0.07175 0.87596 0.0
C2280 C 0.34538 0.13578 0.98894 0.0
C2281 C 0.34786 0.12829 0.97293 0.0
C2282 C 0.32496 0.11539 0.93466 0.0
C2283 C 0.34002 0.08555 0.89967 0.0
C2284 C 0.3393 0.09512 0.91605 0.0
C2285 C 0.33438 0.11985 0.96471 0.0
C2286 C 0.33668 0.11202 0.94772 0.0
H2287 H 0.36858 0.06892 0.87149 0.0
H2288 H 0.36763 0.08492 0.89811 0.0
H2289 H 0.31715 0.1102 0.90914 0.0
H2290 H 0.3037 0.12491 0.99481 0.0
H2291 H 0.30797 0.11222 0.96684 0.0
C2292 C 0.86441 0.34543 0.98975 0.0
C2293 C 0.86533 0.32948 0.99783 0.0
C2294 C 0.87288 0.34819 0.97426 0.0
C2295 C 0.90737 0.32954 0.94752 0.0
H2296 H 0.88748 0.35669 0.91138 0.0
C2297 C 0.93014 0.32553 0.8782 0.0
C2298 C 0.9337 0.341 0.86996 0.0
C2299 C 0.92195 0.32542 0.89398 0.0
C2300 C 0.89322 0.3492 0.92145 0.0
H2301 H 0.87515 0.30373 0.99563 0.0
H2302 H 0.88925 0.30831 0.96863 0.0
H2303 H 0.87264 0.35413 0.93869 0.0
H2304 H 0.93119 0.36846 0.87157 0.0
H2305 H 0.91653 0.3682 0.89914 0.0
H2306 H 0.9276 0.32413 0.93008 0.0
C2307 C 0.88265 0.31894 0.97443 0.0
C2308 C 0.88478 0.34778 0.9371 0.0
C2309 C 0.87445 0.31628 0.98992 0.0
C2310 C 0.92866 0.35635 0.87768 0.0
C2311 C 0.92021 0.35622 0.89338 0.0
C2312 C 0.91564 0.33078 0.93186 0.0
C2313 C 0.88224 0.33499 0.9665 0.0
C2314 C 0.89163 0.33768 0.95024 0.0
C2315 C 0.91694 0.34074 0.90173 0.0
C2316 C 0.90855 0.34042 0.91861 0.0
H2317 H 0.85749 0.35585 0.99556 0.0
H2318 H 0.87236 0.36073 0.96856 0.0
H2319 H 0.9133 0.32206 0.95747 0.0
H2320 H 0.93381 0.3135 0.87256 0.0
H2321 H 0.91941 0.31331 0.90008 0.0
C2322 C 0.68257 0.8772 0.99151 0.0
C2323 C 0.66986 0.86701 0.99898 0.0
C2324 C 0.68008 0.88452 0.97554 0.0
C2325 C 0.64849 0.90003 0.94592 0.0
H2326 H 0.68372 0.89297 0.91202 0.0
C2327 C 0.64339 0.92777 0.87767 0.0
C2328 C 0.65851 0.93344 0.86999 0.0
C2329 C 0.64387 0.9189 0.89311 0.0
C2330 C 0.67386 0.8953 0.92137 0.0
H2331 H 0.64437 0.85689 0.99563 0.0
H2332 H 0.63988 0.87016 0.96766 0.0
H2333 H 0.68598 0.87909 0.93964 0.0
H2334 H 0.68595 0.93467 0.8726 0.0
H2335 H 0.68681 0.91989 0.89978 0.0
H2336 H 0.63669 0.91683 0.928 0.0
C2337 C 0.65182 0.87224 0.97426 0.0
C2338 C 0.67512 0.88722 0.93715 0.0
C2339 C 0.65442 0.86462 0.9902 0.0
C2340 C 0.6741 0.93031 0.87814 0.0
C2341 C 0.67457 0.92169 0.89368 0.0
C2342 C 0.64734 0.90836 0.93019 0.0
C2343 C 0.66474 0.88206 0.96673 0.0
C2344 C 0.66256 0.88965 0.94962 0.0
C2345 C 0.65948 0.91572 0.90133 0.0
C2346 C 0.66014 0.90626 0.91778 0.0
H2347 H 0.69464 0.87928 0.99785 0.0
H2348 H 0.69017 0.89219 0.97007 0.0
H2349 H 0.6387 0.90219 0.9554 0.0
H2350 H 0.63119 0.92995 0.87161 0.0
H2351 H 0.63201 0.91433 0.89845 0.0
C2352 C 0.12117 0.07071 0.35533 0.0
C2353 C 0.129 0.0655 0.34012 0.0
C2354 C 0.1057 0.07954 0.35496 0.0
C2355 C 0.07771 0.104 0.32546 0.0
H2356 H 0.0433 0.09578 0.35994 0.0
C2357 C 0.00763 0.12259 0.31685 0.0
C2358 C 9e-05 0.1322 0.32995 0.0
C2359 C 0.02358 0.11515 0.31912 0.0
C2360 C 0.05289 0.0983 0.35035 0.0
H2361 H 0.12666 0.06508 0.31262 0.0
H2362 H 0.09946 0.07983 0.31194 0.0
H2363 H 0.07071 0.08112 0.36175 0.0
H2364 H 0.00327 0.14121 0.35588 0.0
H2365 H 0.03119 0.12772 0.35997 0.0
H2366 H 0.05956 0.12064 0.31374 0.0
C2367 C 0.10544 0.07766 0.32418 0.0
C2368 C 0.06861 0.08997 0.35138 0.0
C2369 C 0.12099 0.06906 0.32455 0.0
C2370 C 0.00877 0.13392 0.34554 0.0
C2371 C 0.02467 0.12618 0.34791 0.0
C2372 C 0.06194 0.1121 0.32431 0.0
C2373 C 0.09764 0.08316 0.33936 0.0
C2374 C 0.08117 0.09257 0.33882 0.0
C2375 C 0.03228 0.11692 0.33462 0.0
C2376 C 0.04933 0.10919 0.33664 0.0
H2377 H 0.12711 0.06819 0.36752 0.0
H2378 H 0.10022 0.08375 0.36689 0.0
H2379 H 0.08718 0.10671 0.31581 0.0
H2380 H 0.00135 0.12105 0.30466 0.0
H2381 H 0.02912 0.10793 0.30874 0.0
C2382 C 0.92892 0.12149 0.32482 0.0
C2383 C 0.93256 0.12946 0.3404 0.0
C2384 C 0.92052 0.10584 0.32444 0.0
C2385 C 0.90902 0.0687 0.35152 0.0
H2386 H 0.87803 0.05948 0.31417 0.0
C2387 C 0.86524 0.00879 0.34627 0.0
C2388 C 0.86653 0.00012 0.33063 0.0
C2389 C 0.8731 0.02464 0.34848 0.0
C2390 C 0.88668 0.06189 0.32465 0.0
H2391 H 0.93015 0.12741 0.36781 0.0
H2392 H 0.9149 0.10033 0.36718 0.0
H2393 H 0.89166 0.08725 0.31624 0.0
H2394 H 0.87713 0.00131 0.30511 0.0
H2395 H 0.8905 0.02904 0.30893 0.0
H2396 H 0.90359 0.04328 0.36003 0.0
C2397 C 0.91892 0.10593 0.35524 0.0
C2398 C 0.89459 0.07776 0.3258 0.0
C2399 C 0.92757 0.1215 0.35562 0.0
C2400 C 0.87591 0.0076 0.31733 0.0
C2401 C 0.88349 0.02352 0.31946 0.0
C2402 C 0.90087 0.05288 0.35049 0.0
C2403 C 0.91527 0.09789 0.33963 0.0
C2404 C 0.9061 0.08129 0.33908 0.0
C2405 C 0.8821 0.03221 0.33501 0.0
C2406 C 0.88985 0.04927 0.33689 0.0
H2407 H 0.93273 0.12725 0.31288 0.0
H2408 H 0.91832 0.09989 0.3122 0.0
H2409 H 0.91794 0.07086 0.36181 0.0
H2410 H 0.85816 0.00333 0.35677 0.0
H2411 H 0.87185 0.03115 0.36058 0.0
C2412 C 0.87753 0.92982 0.32667 0.0
C2413 C 0.86943 0.93312 0.34227 0.0
C2414 C 0.89348 0.92196 0.3263 0.0
C2415 C 0.92151 0.89335 0.34924 0.0
H2416 H 0.9575 0.91504 0.32333 0.0
C2417 C 0.98991 0.86539 0.34579 0.0
C2418 C 0.99839 0.86686 0.33009 0.0
C2419 C 0.97443 0.87384 0.34853 0.0
C2420 C 0.94756 0.90866 0.33043 0.0
H2421 H 0.87145 0.93049 0.36969 0.0
H2422 H 0.89925 0.9163 0.36897 0.0
H2423 H 0.92975 0.92869 0.32541 0.0
H2424 H 0.99701 0.87796 0.30481 0.0
H2425 H 0.96997 0.89204 0.30931 0.0
H2426 H 0.93903 0.87296 0.35372 0.0
C2427 C 0.89328 0.91998 0.35709 0.0
C2428 C 0.9317 0.91655 0.33169 0.0
C2429 C 0.87744 0.92814 0.35748 0.0
C2430 C 0.99096 0.87674 0.31716 0.0
C2431 C 0.97545 0.88495 0.31979 0.0
C2432 C 0.93733 0.88527 0.34776 0.0
C2433 C 0.90149 0.91699 0.34149 0.0
C2434 C 0.91849 0.9089 0.34095 0.0
C2435 C 0.96702 0.88376 0.33554 0.0
C2436 C 0.9505 0.89273 0.33815 0.0
H2437 H 0.87167 0.9335 0.31474 0.0
H2438 H 0.89951 0.91966 0.31411 0.0
H2439 H 0.91146 0.88718 0.3564 0.0
H2440 H 0.99535 0.85791 0.35603 0.0
H2441 H 0.96841 0.87276 0.36088 0.0
C2442 C 0.13321 0.98987 0.34555 0.0
C2443 C 0.13254 0.99797 0.3296 0.0
C2444 C 0.12467 0.97442 0.3482 0.0
C2445 C 0.0907 0.94727 0.32904 0.0
H2446 H 0.1107 0.91155 0.35666 0.0
C2447 C 0.06919 0.87746 0.32518 0.0
C2448 C 0.06545 0.86934 0.34066 0.0
C2449 C 0.07709 0.89338 0.32504 0.0
C2450 C 0.10493 0.9215 0.34904 0.0
H2451 H 0.12287 0.99591 0.30378 0.0
H2452 H 0.10863 0.96893 0.30818 0.0
H2453 H 0.12517 0.93904 0.3542 0.0
H2454 H 0.06733 0.87131 0.36815 0.0
H2455 H 0.08154 0.89912 0.36786 0.0
H2456 H 0.07082 0.92948 0.3234 0.0
C2457 C 0.11514 0.97469 0.31888 0.0
C2458 C 0.11315 0.93726 0.34767 0.0
C2459 C 0.12343 0.99017 0.31632 0.0
C2460 C 0.07003 0.87732 0.35602 0.0
C2461 C 0.0782 0.89316 0.35588 0.0
C2462 C 0.08265 0.93148 0.33022 0.0
C2463 C 0.11546 0.96668 0.33489 0.0
C2464 C 0.10626 0.95028 0.33744 0.0
C2465 C 0.08164 0.90139 0.34038 0.0
C2466 C 0.08978 0.91839 0.34005 0.0
H2467 H 0.14009 0.9956 0.35604 0.0
H2468 H 0.12508 0.9687 0.36074 0.0
H2469 H 0.08473 0.95711 0.32144 0.0
H2470 H 0.06586 0.87162 0.31314 0.0
H2471 H 0.07977 0.8994 0.31292 0.0
C2472 C 0.00899 0.86551 0.65529 0.0
C2473 C 0.00134 0.86536 0.67147 0.0
C2474 C 0.0245 0.87401 0.65275 0.0
C2475 C 0.05196 0.90691 0.67316 0.0
H2476 H 0.08714 0.88908 0.64346 0.0
C2477 C 0.12145 0.92987 0.67591 0.0
C2478 C 0.12916 0.93404 0.66033 0.0
C2479 C 0.10563 0.92176 0.67623 0.0
C2480 C 0.07734 0.89425 0.65168 0.0
H2481 H 0.00436 0.87316 0.69781 0.0
H2482 H 0.03142 0.88727 0.69357 0.0
H2483 H 0.05991 0.87409 0.6458 0.0
H2484 H 0.1265 0.93282 0.63286 0.0
H2485 H 0.09889 0.91836 0.63345 0.0
H2486 H 0.06958 0.92674 0.67943 0.0
C2487 C 0.02525 0.88155 0.68264 0.0
C2488 C 0.06173 0.88572 0.65298 0.0
C2489 C 0.00974 0.87333 0.68511 0.0
C2490 C 0.12082 0.9298 0.64507 0.0
C2491 C 0.10509 0.92145 0.64538 0.0
C2492 C 0.06759 0.91527 0.67202 0.0
C2493 C 0.03272 0.8823 0.66639 0.0
C2494 C 0.04893 0.89183 0.66395 0.0
C2495 C 0.09731 0.91745 0.66097 0.0
C2496 C 0.08049 0.90893 0.66144 0.0
H2497 H 0.00279 0.85948 0.64455 0.0
H2498 H 0.02985 0.8744 0.64004 0.0
H2499 H 0.04226 0.91229 0.68135 0.0
H2500 H 0.12758 0.93296 0.68788 0.0
H2501 H 0.09996 0.91867 0.68842 0.0
C2502 C 0.13563 0.0092 0.65527 0.0
C2503 C 0.13521 0.00118 0.67127 0.0
C2504 C 0.12692 0.02457 0.65264 0.0
C2505 C 0.0926 0.0511 0.6719 0.0
H2506 H 0.11153 0.08712 0.64393 0.0
C2507 C 0.06937 0.12044 0.67538 0.0
C2508 C 0.06589 0.12864 0.65988 0.0
C2509 C 0.07738 0.10457 0.67558 0.0
C2510 C 0.10604 0.07709 0.65164 0.0
H2511 H 0.12596 0.00337 0.69722 0.0
H2512 H 0.11142 0.03021 0.69285 0.0
H2513 H 0.1267 0.06003 0.64649 0.0
H2514 H 0.06821 0.12678 0.63242 0.0
H2515 H 0.08256 0.09906 0.63281 0.0
H2516 H 0.07227 0.06839 0.67751 0.0
C2517 C 0.11785 0.02443 0.68211 0.0
C2518 C 0.11468 0.06155 0.65307 0.0
C2519 C 0.12632 0.00905 0.68465 0.0
C2520 C 0.07071 0.12072 0.64456 0.0
C2521 C 0.07897 0.10493 0.64477 0.0
C2522 C 0.08412 0.06666 0.67064 0.0
C2523 C 0.11779 0.03229 0.66602 0.0
C2524 C 0.10818 0.04845 0.66344 0.0
C2525 C 0.08229 0.09668 0.66029 0.0
C2526 C 0.09085 0.07987 0.66068 0.0
H2527 H 0.14234 0.00341 0.6447 0.0
H2528 H 0.12707 0.0302 0.64006 0.0
H2529 H 0.08694 0.04117 0.67962 0.0
H2530 H 0.06583 0.12622 0.68739 0.0
H2531 H 0.07994 0.09854 0.68773 0.0
C2532 C 0.98951 0.12623 0.68355 0.0
C2533 C 0.99794 0.13459 0.67014 0.0
C2534 C 0.97341 0.11918 0.68113 0.0
C2535 C 0.94546 0.10043 0.64987 0.0
H2536 H 0.90993 0.11054 0.68267 0.0
C2537 C 0.87791 0.07106 0.64496 0.0
C2538 C 0.86984 0.06659 0.66029 0.0
C2539 C 0.89314 0.08028 0.64512 0.0
C2540 C 0.91975 0.10739 0.67351 0.0
H2541 H 0.9961 0.14196 0.64358 0.0
H2542 H 0.96788 0.12909 0.63923 0.0
H2543 H 0.93725 0.12512 0.68462 0.0
H2544 H 0.87154 0.06791 0.6878 0.0
H2545 H 0.89836 0.08344 0.68815 0.0
H2546 H 0.9283 0.08216 0.63917 0.0
C2547 C 0.97383 0.12824 0.65165 0.0
C2548 C 0.93534 0.11586 0.67456 0.0
C2549 C 0.9899 0.13562 0.65416 0.0
C2550 C 0.87741 0.07129 0.67578 0.0
C2551 C 0.89272 0.08033 0.67595 0.0
C2552 C 0.92991 0.09176 0.64894 0.0
C2553 C 0.96542 0.12008 0.66518 0.0
C2554 C 0.94841 0.11229 0.66291 0.0
C2555 C 0.90073 0.08509 0.66063 0.0
C2556 C 0.91694 0.09495 0.66092 0.0
H2557 H 0.99527 0.1253 0.69605 0.0
H2558 H 0.96726 0.11282 0.69172 0.0
H2559 H 0.95542 0.09737 0.64082 0.0
H2560 H 0.8723 0.06768 0.63282 0.0
H2561 H 0.8988 0.08388 0.63307 0.0
C2562 C 0.92778 0.87853 0.64618 0.0
C2563 C 0.93312 0.87087 0.66143 0.0
C2564 C 0.91863 0.89381 0.64647 0.0
C2565 C 0.89325 0.92111 0.67576 0.0
H2566 H 0.90084 0.95584 0.64144 0.0
C2567 C 0.87338 0.99075 0.6847 0.0
C2568 C 0.86414 0.99851 0.67147 0.0
C2569 C 0.88081 0.9748 0.6824 0.0
C2570 C 0.89848 0.94615 0.65098 0.0
H2571 H 0.9335 0.87335 0.68891 0.0
H2572 H 0.91815 0.90025 0.68945 0.0
H2573 H 0.9162 0.92881 0.63966 0.0
H2574 H 0.85568 0.99567 0.64532 0.0
H2575 H 0.86911 0.96772 0.6412 0.0
H2576 H 0.87605 0.93877 0.6874 0.0
C2577 C 0.92048 0.89426 0.67725 0.0
C2578 C 0.90723 0.93065 0.64997 0.0
C2579 C 0.92942 0.87889 0.67696 0.0
C2580 C 0.86267 0.98999 0.65577 0.0
C2581 C 0.87038 0.97407 0.65338 0.0
C2582 C 0.88471 0.93665 0.67687 0.0
C2583 C 0.91479 0.90184 0.66203 0.0
C2584 C 0.9049 0.91802 0.66249 0.0
C2585 C 0.87939 0.96631 0.66676 0.0
C2586 C 0.8874 0.94938 0.66463 0.0
H2587 H 0.9304 0.87256 0.63401 0.0
H2588 H 0.9143 0.89914 0.63451 0.0
H2589 H 0.89075 0.91155 0.68537 0.0
H2590 H 0.87473 0.99691 0.69698 0.0
H2591 H 0.88783 0.96916 0.69286 0.0
C2592 C 0.31683 0.01284 0.12921 0.0
C2593 C 0.33038 0.00329 0.13593 0.0
C2594 C 0.31973 0.02877 0.12194 0.0
C2595 C 0.35075 0.05397 0.0994 0.0
H2596 H 0.32228 0.09205 0.11281 0.0
C2597 C 0.35653 0.12106 0.06868 0.0
C2598 C 0.34118 0.12974 0.06563 0.0
C2599 C 0.35664 0.10592 0.07808 0.0
C2600 C 0.33022 0.08152 0.10878 0.0
H2601 H 0.35765 0.00286 0.14023 0.0
H2602 H 0.36281 0.03076 0.12695 0.0
H2603 H 0.32008 0.0651 0.12805 0.0
H2604 H 0.31387 0.12919 0.06967 0.0
H2605 H 0.31397 0.10269 0.08567 0.0
H2606 H 0.3604 0.07013 0.07966 0.0
C2607 C 0.34993 0.02587 0.12757 0.0
C2608 C 0.32904 0.06614 0.1176 0.0
C2609 C 0.34697 0.01 0.1352 0.0
C2610 C 0.32592 0.12286 0.07191 0.0
C2611 C 0.32601 0.10772 0.08121 0.0
C2612 C 0.35182 0.06934 0.09042 0.0
C2613 C 0.33629 0.0354 0.12097 0.0
C2614 C 0.33907 0.05215 0.11281 0.0
C2615 C 0.34138 0.09914 0.08458 0.0
C2616 C 0.34132 0.08319 0.09482 0.0
H2617 H 0.30389 0.00806 0.12967 0.0
H2618 H 0.30902 0.03581 0.11682 0.0
H2619 H 0.35852 0.04329 0.0954 0.0
H2620 H 0.3685 0.12608 0.06399 0.0
H2621 H 0.36871 0.09971 0.08052 0.0
C2622 C 0.34469 0.99068 0.86448 0.0
C2623 C 0.32932 0.99976 0.86596 0.0
C2624 C 0.34663 0.97485 0.87245 0.0
C2625 C 0.32197 0.93844 0.88724 0.0
H2626 H 0.36006 0.92868 0.91709 0.0
C2627 C 0.32229 0.87905 0.92991 0.0
C2628 C 0.33781 0.8707 0.93284 0.0
C2629 C 0.32193 0.8947 0.92149 0.0
C2630 C 0.34949 0.93106 0.90857 0.0
H2631 H 0.30396 0.99931 0.87702 0.0
H2632 H 0.30731 0.97166 0.89061 0.0
H2633 H 0.35857 0.95611 0.90248 0.0
H2634 H 0.36513 0.87206 0.92917 0.0
H2635 H 0.3645 0.89911 0.91392 0.0
H2636 H 0.31296 0.91343 0.8929 0.0
C2637 C 0.31785 0.97682 0.88335 0.0
C2638 C 0.34863 0.9468 0.90026 0.0
C2639 C 0.31599 0.99271 0.87563 0.0
C2640 C 0.35298 0.87827 0.92716 0.0
C2641 C 0.35261 0.89384 0.91851 0.0
C2642 C 0.32293 0.92265 0.89532 0.0
C2643 C 0.33313 0.96771 0.88177 0.0
C2644 C 0.33474 0.9507 0.88973 0.0
C2645 C 0.33707 0.90226 0.91555 0.0
C2646 C 0.33656 0.91882 0.90631 0.0
H2647 H 0.35521 0.99579 0.85716 0.0
H2648 H 0.35854 0.96801 0.87104 0.0
H2649 H 0.31124 0.94107 0.87897 0.0
H2650 H 0.3104 0.87358 0.93426 0.0
H2651 H 0.30975 0.90096 0.91982 0.0
C2652 C 0.01027 0.34771 0.86439 0.0
C2653 C 0.00192 0.332 0.8665 0.0
C2654 C 0.02637 0.35042 0.87163 0.0
C2655 C 0.06446 0.32759 0.8844 0.0
H2656 H 0.0732 0.36414 0.91642 0.0
C2657 C 0.12324 0.32656 0.92766 0.0
C2658 C 0.13121 0.34198 0.93191 0.0
C2659 C 0.10786 0.32652 0.91875 0.0
C2660 C 0.07111 0.35405 0.90726 0.0
H2661 H 0.00396 0.30683 0.87781 0.0
H2662 H 0.03203 0.31148 0.89003 0.0
H2663 H 0.04558 0.36242 0.90211 0.0
H2664 H 0.12947 0.36946 0.93003 0.0
H2665 H 0.10284 0.36942 0.91398 0.0
H2666 H 0.08987 0.31922 0.88921 0.0
C2667 C 0.02609 0.32171 0.88292 0.0
C2668 C 0.05528 0.35307 0.89913 0.0
C2669 C 0.00996 0.31912 0.876 0.0
C2670 C 0.12355 0.35738 0.92698 0.0
C2671 C 0.10824 0.35734 0.91786 0.0
C2672 C 0.08033 0.32869 0.8923 0.0
C2673 C 0.03447 0.33733 0.88075 0.0
C2674 C 0.05172 0.33961 0.88793 0.0
C2675 C 0.10018 0.3419 0.91364 0.0
C2676 C 0.08375 0.34169 0.90415 0.0
H2677 H 0.00438 0.35789 0.85718 0.0
H2678 H 0.03264 0.36257 0.86982 0.0
H2679 H 0.06205 0.3172 0.87563 0.0
H2680 H 0.12876 0.31449 0.93138 0.0
H2681 H 0.10187 0.31438 0.91611 0.0
C2682 C 0.64189 0.12188 0.92865 0.0
C2683 C 0.65729 0.12961 0.93351 0.0
C2684 C 0.64192 0.10597 0.92059 0.0
C2685 C 0.667 0.06716 0.91689 0.0
H2686 H 0.64411 0.05995 0.87372 0.0
C2687 C 0.68154 0.00859 0.87615 0.0
C2688 C 0.66846 0.00095 0.86662 0.0
C2689 C 0.67883 0.024 0.88453 0.0
C2690 C 0.65032 0.06163 0.88592 0.0
H2691 H 0.68477 0.1268 0.93374 0.0
H2692 H 0.68478 0.09892 0.92004 0.0
H2693 H 0.64161 0.08746 0.88814 0.0
H2694 H 0.64222 0.00352 0.85844 0.0
H2695 H 0.63728 0.03031 0.87357 0.0
H2696 H 0.67552 0.04143 0.91501 0.0
C2697 C 0.67271 0.10518 0.9224 0.0
C2698 C 0.64893 0.0774 0.89412 0.0
C2699 C 0.6727 0.12117 0.93018 0.0
C2700 C 0.65256 0.00912 0.86565 0.0
C2701 C 0.64977 0.02451 0.87426 0.0
C2702 C 0.6682 0.05136 0.90886 0.0
C2703 C 0.65734 0.09743 0.91756 0.0
C2704 C 0.65755 0.08039 0.9095 0.0
C2705 C 0.66288 0.03211 0.88386 0.0
C2706 C 0.66021 0.04849 0.89307 0.0
H2707 H 0.62982 0.12813 0.93103 0.0
H2708 H 0.62991 0.10021 0.91701 0.0
H2709 H 0.67354 0.06907 0.92889 0.0
H2710 H 0.69403 0.00279 0.87698 0.0
H2711 H 0.68939 0.02965 0.89137 0.0
C2712 C 0.98934 0.68327 0.87251 0.0
C2713 C 0.99765 0.66979 0.86419 0.0
C2714 C 0.97369 0.68073 0.88044 0.0
C2715 C 0.93678 0.65136 0.88319 0.0
H2716 H 0.92878 0.6765 0.92498 0.0
C2717 C 0.87729 0.64307 0.92709 0.0
C2718 C 0.86927 0.65841 0.93166 0.0
C2719 C 0.89295 0.64326 0.91857 0.0
C2720 C 0.93082 0.66944 0.91329 0.0
H2721 H 0.99592 0.64308 0.85744 0.0
H2722 H 0.96864 0.63845 0.87184 0.0
H2723 H 0.95627 0.67861 0.9109 0.0
H2724 H 0.87122 0.68595 0.93075 0.0
H2725 H 0.89865 0.68626 0.91621 0.0
H2726 H 0.91123 0.64198 0.88597 0.0
C2727 C 0.97414 0.6511 0.87194 0.0
C2728 C 0.94654 0.6707 0.90515 0.0
C2729 C 0.98979 0.65371 0.86375 0.0
C2730 C 0.87711 0.67392 0.92746 0.0
C2731 C 0.89283 0.67411 0.91919 0.0
C2732 C 0.92107 0.64992 0.89151 0.0
C2733 C 0.96599 0.66457 0.88055 0.0
C2734 C 0.94963 0.66199 0.88979 0.0
C2735 C 0.90094 0.6588 0.91474 0.0
C2736 C 0.91787 0.65922 0.90646 0.0
H2737 H 0.99488 0.6959 0.87281 0.0
H2738 H 0.96758 0.69155 0.88645 0.0
H2739 H 0.93866 0.64456 0.87134 0.0
H2740 H 0.8715 0.63092 0.93012 0.0
H2741 H 0.899 0.63129 0.91532 0.0
C2742 C 0.68438 0.99101 0.12466 0.0
C2743 C 0.67129 0.99863 0.1342 0.0
C2744 C 0.68205 0.97504 0.11724 0.0
C2745 C 0.65057 0.94591 0.10039 0.0
H2746 H 0.68503 0.91147 0.10853 0.0
C2747 C 0.64546 0.87773 0.07241 0.0
C2748 C 0.66067 0.87002 0.06704 0.0
C2749 C 0.64583 0.89313 0.08138 0.0
C2750 C 0.6754 0.92098 0.10591 0.0
H2751 H 0.64532 0.9956 0.14313 0.0
H2752 H 0.64113 0.96767 0.12973 0.0
H2753 H 0.68727 0.93904 0.12254 0.0
H2754 H 0.68816 0.8725 0.06646 0.0
H2755 H 0.68881 0.89956 0.08144 0.0
H2756 H 0.63903 0.92817 0.08322 0.0
C2757 C 0.65323 0.97412 0.12821 0.0
C2758 C 0.67664 0.93673 0.11405 0.0
C2759 C 0.65566 0.99003 0.13591 0.0
C2760 C 0.67623 0.87807 0.07057 0.0
C2761 C 0.67659 0.89354 0.0793 0.0
C2762 C 0.64945 0.93021 0.09202 0.0
C2763 C 0.66649 0.96643 0.11898 0.0
C2764 C 0.66436 0.94939 0.11122 0.0
C2765 C 0.66142 0.90123 0.08497 0.0
C2766 C 0.66198 0.91762 0.09451 0.0
H2767 H 0.69659 0.99724 0.12313 0.0
H2768 H 0.69241 0.96944 0.11005 0.0
H2769 H 0.641 0.95554 0.09795 0.0
H2770 H 0.63328 0.87175 0.06992 0.0
H2771 H 0.6339 0.89854 0.0857 0.0
C2772 C 0.00923 0.68122 0.12486 0.0
C2773 C 0.00087 0.66805 0.13366 0.0
C2774 C 0.02526 0.67856 0.11774 0.0
C2775 C 0.05322 0.64721 0.09952 0.0
H2776 H 0.08888 0.67968 0.11023 0.0
C2777 C 0.12104 0.6425 0.07056 0.0
C2778 C 0.12905 0.65792 0.06628 0.0
C2779 C 0.10574 0.6425 0.07967 0.0
C2780 C 0.07903 0.67061 0.10692 0.0
H2781 H 0.00266 0.64167 0.14163 0.0
H2782 H 0.03075 0.6369 0.12863 0.0
H2783 H 0.06144 0.68172 0.12455 0.0
H2784 H 0.12717 0.68541 0.06779 0.0
H2785 H 0.10027 0.68549 0.08311 0.0
H2786 H 0.07048 0.63653 0.08132 0.0
C2787 C 0.02481 0.6493 0.12751 0.0
C2788 C 0.06338 0.67171 0.11524 0.0
C2789 C 0.00882 0.65205 0.13496 0.0
C2790 C 0.12136 0.67333 0.07102 0.0
C2791 C 0.10599 0.67334 0.07995 0.0
C2792 C 0.06884 0.64623 0.09098 0.0
C2793 C 0.03321 0.66263 0.11901 0.0
C2794 C 0.05026 0.6602 0.11143 0.0
C2795 C 0.09806 0.65794 0.08456 0.0
C2796 C 0.08184 0.65812 0.09438 0.0
H2797 H 0.00353 0.69373 0.1237 0.0
H2798 H 0.03143 0.68898 0.11112 0.0
H2799 H 0.04322 0.63826 0.09631 0.0
H2800 H 0.12675 0.63042 0.06711 0.0
H2801 H 0.10011 0.6304 0.08314 0.0
C2802 C 0.98778 0.31724 0.12684 0.0
C2803 C 0.99648 0.33042 0.13528 0.0
C2804 C 0.9717 0.32001 0.11991 0.0
C2805 C 0.94436 0.35149 0.10116 0.0
H2806 H 0.90835 0.31934 0.11167 0.0
C2807 C 0.87719 0.35566 0.07056 0.0
C2808 C 0.86942 0.34015 0.06619 0.0
C2809 C 0.89223 0.35587 0.0801 0.0
C2810 C 0.9183 0.32833 0.10844 0.0
H2811 H 0.9952 0.35693 0.1429 0.0
H2812 H 0.96698 0.36192 0.13021 0.0
H2813 H 0.93549 0.31745 0.12659 0.0
H2814 H 0.87147 0.31268 0.068 0.0
H2815 H 0.8979 0.31296 0.08413 0.0
H2816 H 0.9275 0.36191 0.08243 0.0
C2817 C 0.9727 0.34941 0.12924 0.0
C2818 C 0.93377 0.32732 0.1171 0.0
C2819 C 0.98876 0.34654 0.13652 0.0
C2820 C 0.87709 0.32484 0.07129 0.0
C2821 C 0.89219 0.32503 0.08067 0.0
C2822 C 0.92891 0.35239 0.09231 0.0
C2823 C 0.96402 0.33609 0.12101 0.0
C2824 C 0.94703 0.33868 0.11333 0.0
C2825 C 0.89987 0.34054 0.08536 0.0
C2826 C 0.91581 0.34058 0.09561 0.0
H2827 H 0.99331 0.30464 0.12575 0.0
H2828 H 0.96533 0.30959 0.11348 0.0
H2829 H 0.95448 0.36031 0.09795 0.0
H2830 H 0.87151 0.36768 0.06684 0.0
H2831 H 0.8977 0.36804 0.0836 0.0
C2832 C 0.62613 0.81475 0.50853 0.0
C2833 C 0.63521 0.82822 0.50103 0.0
C2834 C 0.61765 0.81702 0.52394 0.0
C2835 C 0.6146 0.84524 0.56171 0.0
H2836 H 0.57179 0.82128 0.56765 0.0
C2837 C 0.56994 0.85365 0.62029 0.0
C2838 C 0.56492 0.83831 0.62805 0.0
C2839 C 0.57838 0.85347 0.6046 0.0
C2840 C 0.58375 0.828 0.56617 0.0
H2841 H 0.64271 0.85462 0.50397 0.0
H2842 H 0.62741 0.85879 0.53081 0.0
H2843 H 0.58671 0.81947 0.54055 0.0
H2844 H 0.56463 0.81082 0.62546 0.0
H2845 H 0.57904 0.81056 0.5979 0.0
H2846 H 0.61129 0.85399 0.5874 0.0
C2847 C 0.62712 0.84635 0.52486 0.0
C2848 C 0.59237 0.82691 0.55068 0.0
C2849 C 0.63584 0.84399 0.50946 0.0
C2850 C 0.56833 0.82283 0.61978 0.0
C2851 C 0.57652 0.82268 0.60399 0.0
C2852 C 0.60581 0.84652 0.57717 0.0
C2853 C 0.61777 0.8329 0.5322 0.0
C2854 C 0.60808 0.83523 0.54834 0.0
C2855 C 0.58167 0.83798 0.59629 0.0
C2856 C 0.59046 0.83766 0.57962 0.0
H2857 H 0.62562 0.80234 0.50252 0.0
H2858 H 0.61106 0.80621 0.52942 0.0
H2859 H 0.62672 0.85169 0.56044 0.0
H2860 H 0.56751 0.86577 0.62642 0.0
H2861 H 0.58215 0.86544 0.59887 0.0
C2862 C 0.17549 0.57393 0.62349 0.0
C2863 C 0.15984 0.56917 0.63069 0.0
C2864 C 0.17599 0.58328 0.60837 0.0
C2865 C 0.14969 0.59526 0.57088 0.0
H2866 H 0.18575 0.62838 0.56431 0.0
C2867 C 0.1554 0.63894 0.51113 0.0
C2868 C 0.17145 0.63815 0.50323 0.0
C2869 C 0.15291 0.63167 0.52724 0.0
C2870 C 0.1756 0.61918 0.56599 0.0
H2871 H 0.13242 0.57057 0.62782 0.0
H2872 H 0.13325 0.58733 0.60167 0.0
H2873 H 0.18329 0.61359 0.59148 0.0
H2874 H 0.19755 0.62952 0.5062 0.0
H2875 H 0.19325 0.6172 0.53432 0.0
H2876 H 0.14199 0.6011 0.54532 0.0
C2877 C 0.14517 0.58352 0.60746 0.0
C2878 C 0.17425 0.6106 0.58151 0.0
C2879 C 0.14468 0.57399 0.6225 0.0
C2880 C 0.185 0.63026 0.51188 0.0
C2881 C 0.18259 0.6233 0.52804 0.0
C2882 C 0.15093 0.60403 0.55541 0.0
C2883 C 0.16084 0.58829 0.60019 0.0
C2884 C 0.16149 0.59828 0.58406 0.0
C2885 C 0.16652 0.62383 0.53583 0.0
C2886 C 0.16409 0.61583 0.55274 0.0
H2887 H 0.18739 0.57031 0.62944 0.0
H2888 H 0.1883 0.58637 0.60299 0.0
H2889 H 0.13982 0.58574 0.57227 0.0
H2890 H 0.14471 0.6449 0.50475 0.0
H2891 H 0.1404 0.63226 0.53303 0.0
C2892 C 0.36416 0.15492 0.50956 0.0
C2893 C 0.364 0.17099 0.50168 0.0
C2894 C 0.37261 0.15261 0.52514 0.0
C2895 C 0.40554 0.17337 0.55227 0.0
H2896 H 0.3882 0.1436 0.58764 0.0
C2897 C 0.42977 0.17576 0.62139 0.0
C2898 C 0.434 0.16012 0.62895 0.0
C2899 C 0.42134 0.17619 0.60573 0.0
C2900 C 0.39323 0.15185 0.57779 0.0
H2901 H 0.37171 0.19739 0.50438 0.0
H2902 H 0.38574 0.19355 0.53155 0.0
H2903 H 0.37287 0.14596 0.5606 0.0
H2904 H 0.43258 0.13267 0.62619 0.0
H2905 H 0.41758 0.13346 0.59887 0.0
H2906 H 0.4256 0.17962 0.56965 0.0
C2907 C 0.38005 0.18253 0.52552 0.0
C2908 C 0.38451 0.15316 0.56229 0.0
C2909 C 0.37188 0.18476 0.50994 0.0
C2910 C 0.42952 0.14491 0.62063 0.0
C2911 C 0.42086 0.14535 0.60506 0.0
C2912 C 0.4141 0.17222 0.5678 0.0
C2913 C 0.38085 0.16638 0.5332 0.0
C2914 C 0.39045 0.16411 0.5494 0.0
C2915 C 0.41678 0.161 0.59743 0.0
C2916 C 0.40795 0.16159 0.58076 0.0
H2917 H 0.3582 0.14407 0.50348 0.0
H2918 H 0.37303 0.13997 0.53064 0.0
H2919 H 0.4108 0.18156 0.54251 0.0
H2920 H 0.43304 0.18768 0.62752 0.0
H2921 H 0.41821 0.18843 0.60018 0.0
C2922 C 0.81336 0.37058 0.51018 0.0
C2923 C 0.82698 0.36224 0.50211 0.0
C2924 C 0.81568 0.37878 0.52574 0.0
C2925 C 0.84458 0.38223 0.5629 0.0
H2926 H 0.81982 0.42445 0.56971 0.0
C2927 C 0.85343 0.42659 0.62166 0.0
C2928 C 0.83824 0.43199 0.62945 0.0
C2929 C 0.853 0.41796 0.60607 0.0
C2930 C 0.82674 0.41264 0.56802 0.0
H2931 H 0.85372 0.35571 0.50424 0.0
H2932 H 0.85794 0.3705 0.53137 0.0
H2933 H 0.81772 0.40969 0.54255 0.0
H2934 H 0.81073 0.43258 0.6271 0.0
H2935 H 0.81002 0.41776 0.59979 0.0
H2936 H 0.85377 0.3855 0.58843 0.0
C2937 C 0.84536 0.37044 0.52572 0.0
C2938 C 0.82551 0.40411 0.55248 0.0
C2939 C 0.84297 0.36201 0.51016 0.0
C2940 C 0.82264 0.42862 0.62139 0.0
C2941 C 0.82224 0.42019 0.60573 0.0
C2942 C 0.84596 0.3909 0.57842 0.0
C2943 C 0.83176 0.3791 0.53359 0.0
C2944 C 0.83415 0.38864 0.54981 0.0
C2945 C 0.8374 0.41479 0.59791 0.0
C2946 C 0.83683 0.40604 0.5812 0.0
H2947 H 0.80079 0.37076 0.50449 0.0
H2948 H 0.80479 0.38486 0.53162 0.0
H2949 H 0.8513 0.37029 0.56134 0.0
H2950 H 0.86564 0.42899 0.62761 0.0
H2951 H 0.86488 0.41402 0.60026 0.0
C2952 C 0.56885 0.17535 0.3795 0.0
C2953 C 0.56572 0.15981 0.37128 0.0
C2954 C 0.57704 0.1757 0.39528 0.0
C2955 C 0.58915 0.14831 0.43206 0.0
H2956 H 0.6194 0.18613 0.44176 0.0
C2957 C 0.63343 0.15369 0.49172 0.0
C2958 C 0.63179 0.16917 0.5006 0.0
C2959 C 0.62543 0.15145 0.47594 0.0
C2960 C 0.61096 0.17551 0.43921 0.0
H2961 H 0.56871 0.13242 0.37302 0.0
H2962 H 0.58358 0.13302 0.40028 0.0
H2963 H 0.60564 0.18428 0.41405 0.0
H2964 H 0.62036 0.19436 0.49989 0.0
H2965 H 0.60675 0.1905 0.47233 0.0
H2966 H 0.59495 0.13945 0.45728 0.0
C2967 C 0.57934 0.14495 0.39481 0.0
C2968 C 0.60297 0.17449 0.42338 0.0
C2969 C 0.5709 0.14459 0.37913 0.0
C2970 C 0.62188 0.18226 0.49345 0.0
C2971 C 0.61415 0.18012 0.47761 0.0
C2972 C 0.59739 0.14921 0.44784 0.0
C2973 C 0.58257 0.16052 0.40307 0.0
C2974 C 0.59172 0.16104 0.41968 0.0
C2975 C 0.61594 0.16476 0.46867 0.0
C2976 C 0.60814 0.16298 0.45162 0.0
H2977 H 0.56485 0.18727 0.37382 0.0
H2978 H 0.57891 0.18791 0.40141 0.0
H2979 H 0.58045 0.13786 0.42977 0.0
H2980 H 0.64094 0.14335 0.49693 0.0
H2981 H 0.62698 0.1395 0.46922 0.0
C2982 C 0.85467 0.57144 0.37785 0.0
C2983 C 0.83926 0.56648 0.37025 0.0
C2984 C 0.85468 0.58041 0.39323 0.0
C2985 C 0.82616 0.60584 0.42128 0.0
H2986 H 0.8604 0.59651 0.45567 0.0
C2987 C 0.81774 0.62339 0.49152 0.0
C2988 C 0.83086 0.63284 0.49924 0.0
C2989 C 0.82002 0.61623 0.47545 0.0
C2990 C 0.8509 0.59936 0.44607 0.0
H2991 H 0.81179 0.56668 0.37289 0.0
H2992 H 0.81176 0.58176 0.39994 0.0
H2993 H 0.86174 0.58186 0.42821 0.0
H2994 H 0.8568 0.64185 0.49628 0.0
H2995 H 0.86092 0.62879 0.46813 0.0
H2996 H 0.81494 0.62277 0.43948 0.0
C2997 C 0.82387 0.57924 0.39385 0.0
C2998 C 0.85166 0.59102 0.43033 0.0
C2999 C 0.82387 0.57046 0.37838 0.0
C3000 C 0.84646 0.63468 0.49063 0.0
C3001 C 0.84884 0.62719 0.4746 0.0
C3002 C 0.82528 0.61395 0.43706 0.0
C3003 C 0.83927 0.58445 0.40142 0.0
C3004 C 0.83914 0.59398 0.41782 0.0
C3005 C 0.83553 0.61811 0.46681 0.0
C3006 C 0.83751 0.61062 0.44966 0.0
H3007 H 0.86674 0.56859 0.37181 0.0
H3008 H 0.86676 0.58439 0.39855 0.0
H3009 H 0.81657 0.60881 0.41183 0.0
H3010 H 0.80553 0.62179 0.49773 0.0
H3011 H 0.80963 0.60914 0.46976 0.0
C3012 C 0.37903 0.81866 0.49351 0.0
C3013 C 0.36887 0.83153 0.50067 0.0
C3014 C 0.38741 0.82124 0.47809 0.0
C3015 C 0.38747 0.84849 0.43955 0.0
H3016 H 0.431 0.82625 0.43232 0.0
C3017 C 0.42936 0.8564 0.37876 0.0
C3018 C 0.43441 0.84094 0.37126 0.0
C3019 C 0.42151 0.85653 0.39475 0.0
C3020 C 0.41884 0.83251 0.43417 0.0
H3021 H 0.35966 0.85734 0.49727 0.0
H3022 H 0.37483 0.86211 0.47047 0.0
H3023 H 0.41756 0.82488 0.46022 0.0
H3024 H 0.43525 0.81354 0.37459 0.0
H3025 H 0.42192 0.81383 0.40269 0.0
H3026 H 0.38912 0.85635 0.41341 0.0
C3027 C 0.376 0.84984 0.47665 0.0
C3028 C 0.41107 0.83167 0.45012 0.0
C3029 C 0.36737 0.84715 0.49205 0.0
C3030 C 0.43151 0.82564 0.38005 0.0
C3031 C 0.42395 0.8258 0.39614 0.0
C3032 C 0.39543 0.84956 0.42363 0.0
C3033 C 0.38612 0.83688 0.46948 0.0
C3034 C 0.39508 0.8393 0.45293 0.0
C3035 C 0.41889 0.84124 0.40363 0.0
C3036 C 0.41101 0.84127 0.42074 0.0
H3037 H 0.38027 0.80636 0.49964 0.0
H3038 H 0.39465 0.81077 0.47279 0.0
H3039 H 0.37511 0.85439 0.44116 0.0
H3040 H 0.43141 0.86838 0.37223 0.0
H3041 H 0.41777 0.86859 0.40031 0.0
C3042 C 0.14232 0.42796 0.37524 0.0
C3043 C 0.15787 0.43233 0.36753 0.0
C3044 C 0.14206 0.41843 0.3903 0.0
C3045 C 0.16951 0.39023 0.41663 0.0
H3046 H 0.13795 0.40154 0.45292 0.0
C3047 C 0.18148 0.37333 0.48629 0.0
C3048 C 0.16846 0.36502 0.49533 0.0
C3049 C 0.17845 0.37996 0.47013 0.0
C3050 C 0.14664 0.3981 0.44277 0.0
H3051 H 0.18532 0.43043 0.36965 0.0
H3052 H 0.18494 0.41429 0.39606 0.0
H3053 H 0.13612 0.41654 0.42566 0.0
H3054 H 0.14194 0.35733 0.49457 0.0
H3055 H 0.13651 0.3695 0.4662 0.0
H3056 H 0.18052 0.37239 0.43406 0.0
C3057 C 0.17289 0.41776 0.39031 0.0
C3058 C 0.14561 0.40665 0.42716 0.0
C3059 C 0.17314 0.42715 0.37522 0.0
C3060 C 0.15222 0.36363 0.48787 0.0
C3061 C 0.1491 0.37061 0.47172 0.0
C3062 C 0.17065 0.38187 0.43225 0.0
C3063 C 0.15736 0.41316 0.39798 0.0
C3064 C 0.1573 0.40307 0.41403 0.0
C3065 C 0.16227 0.37868 0.46269 0.0
C3066 C 0.15946 0.38596 0.44556 0.0
H3067 H 0.13033 0.43176 0.36956 0.0
H3068 H 0.12988 0.415 0.39577 0.0
H3069 H 0.17841 0.3868 0.40666 0.0
H3070 H 0.19416 0.37454 0.4916 0.0
H3071 H 0.18877 0.38628 0.46348 0.0
C3072 C 0.62085 0.57096 0.85623 0.0
C3073 C 0.62826 0.56568 0.84083 0.0
C3074 C 0.60523 0.57952 0.85626 0.0
C3075 C 0.57607 0.60316 0.82725 0.0
H3076 H 0.54291 0.59568 0.86312 0.0
C3077 C 0.50566 0.62015 0.82011 0.0
C3078 C 0.49874 0.63112 0.83248 0.0
C3079 C 0.52158 0.61271 0.82251 0.0
C3080 C 0.55216 0.59798 0.85314 0.0
H3081 H 0.62497 0.5647 0.81346 0.0
H3082 H 0.59747 0.5789 0.8135 0.0
H3083 H 0.57049 0.58121 0.86436 0.0
H3084 H 0.50293 0.64237 0.85737 0.0
H3085 H 0.53083 0.62885 0.86172 0.0
H3086 H 0.55738 0.6193 0.8157 0.0
C3087 C 0.60391 0.57707 0.82555 0.0
C3088 C 0.56797 0.58976 0.85384 0.0
C3089 C 0.61964 0.56878 0.82551 0.0
C3090 C 0.50794 0.63403 0.84759 0.0
C3091 C 0.52383 0.62629 0.85011 0.0
C3092 C 0.56022 0.61111 0.82644 0.0
C3093 C 0.59658 0.58276 0.8409 0.0
C3094 C 0.58005 0.59208 0.84076 0.0
C3095 C 0.53087 0.61582 0.83743 0.0
C3096 C 0.54807 0.60844 0.83925 0.0
H3097 H 0.62729 0.56879 0.86824 0.0
H3098 H 0.60013 0.58387 0.86831 0.0
H3099 H 0.58517 0.60567 0.8172 0.0
H3100 H 0.49899 0.61761 0.8083 0.0
H3101 H 0.5267 0.60454 0.81263 0.0
C3102 C 0.42691 0.62248 0.82509 0.0
C3103 C 0.43077 0.63032 0.84067 0.0
C3104 C 0.41795 0.60714 0.82468 0.0
C3105 C 0.40538 0.57027 0.85148 0.0
H3106 H 0.37406 0.56229 0.81412 0.0
C3107 C 0.36189 0.51025 0.84488 0.0
C3108 C 0.36318 0.50212 0.82896 0.0
C3109 C 0.36944 0.5262 0.84751 0.0
C3110 C 0.38277 0.56436 0.82462 0.0
H3111 H 0.4282 0.62837 0.86808 0.0
H3112 H 0.41205 0.60178 0.8674 0.0
H3113 H 0.38824 0.58975 0.81661 0.0
H3114 H 0.37332 0.50443 0.80333 0.0
H3115 H 0.38615 0.53226 0.80788 0.0
H3116 H 0.39959 0.54478 0.85952 0.0
C3117 C 0.41628 0.60727 0.85548 0.0
C3118 C 0.391 0.58004 0.82601 0.0
C3119 C 0.42545 0.62255 0.85588 0.0
C3120 C 0.37211 0.51029 0.81576 0.0
C3121 C 0.37938 0.52628 0.81831 0.0
C3122 C 0.39695 0.55461 0.85021 0.0
C3123 C 0.41239 0.59938 0.83986 0.0
C3124 C 0.40269 0.5831 0.83924 0.0
C3125 C 0.3781 0.53441 0.83417 0.0
C3126 C 0.38583 0.55143 0.83657 0.0
H3127 H 0.43095 0.62809 0.81316 0.0
H3128 H 0.41556 0.60128 0.81243 0.0
H3129 H 0.4144 0.57208 0.86175 0.0
H3130 H 0.35516 0.50425 0.85532 0.0
H3131 H 0.36827 0.53226 0.85985 0.0
C3132 C 0.37817 0.42862 0.85381 0.0
C3133 C 0.3701 0.43388 0.83874 0.0
C3134 C 0.39343 0.41948 0.85317 0.0
C3135 C 0.42024 0.39406 0.82342 0.0
H3136 H 0.45532 0.40162 0.85738 0.0
C3137 C 0.48973 0.3733 0.81431 0.0
C3138 C 0.49763 0.36448 0.82776 0.0
C3139 C 0.47377 0.38076 0.81651 0.0
C3140 C 0.44554 0.39926 0.84794 0.0
H3141 H 0.37182 0.43408 0.81121 0.0
H3142 H 0.39875 0.41874 0.81005 0.0
H3143 H 0.42844 0.41715 0.85932 0.0
H3144 H 0.49499 0.35672 0.85413 0.0
H3145 H 0.46703 0.37019 0.85807 0.0
H3146 H 0.43767 0.37665 0.81173 0.0
C3147 C 0.39308 0.42115 0.82239 0.0
C3148 C 0.43011 0.40811 0.84904 0.0
C3149 C 0.3777 0.43008 0.82303 0.0
C3150 C 0.48921 0.36339 0.84352 0.0
C3151 C 0.47328 0.37113 0.8458 0.0
C3152 C 0.43572 0.3854 0.82222 0.0
C3153 C 0.40109 0.41558 0.83744 0.0
C3154 C 0.41731 0.40575 0.83669 0.0
C3155 C 0.4654 0.37979 0.83226 0.0
C3156 C 0.44857 0.38803 0.83437 0.0
H3157 H 0.37253 0.43129 0.86612 0.0
H3158 H 0.39905 0.41522 0.86502 0.0
H3159 H 0.41056 0.39155 0.81392 0.0
H3160 H 0.4958 0.37434 0.80197 0.0
H3161 H 0.46806 0.3875 0.80591 0.0
C3162 C 0.57087 0.37916 0.85411 0.0
C3163 C 0.56589 0.37124 0.83886 0.0
C3164 C 0.5802 0.39433 0.85378 0.0
C3165 C 0.60672 0.42081 0.82478 0.0
H3166 H 0.59848 0.45619 0.85828 0.0
C3167 C 0.62702 0.49029 0.81537 0.0
C3168 C 0.63571 0.49836 0.82879 0.0
C3169 C 0.61973 0.47428 0.81765 0.0
C3170 C 0.60104 0.44631 0.84899 0.0
H3171 H 0.56632 0.37315 0.81134 0.0
H3172 H 0.58199 0.39989 0.81071 0.0
H3173 H 0.58276 0.42938 0.86002 0.0
H3174 H 0.64347 0.49597 0.85519 0.0
H3175 H 0.63025 0.4679 0.85928 0.0
H3176 H 0.62447 0.43809 0.81339 0.0
C3177 C 0.57923 0.39418 0.82296 0.0
C3178 C 0.59207 0.43094 0.84997 0.0
C3179 C 0.57011 0.37891 0.82329 0.0
C3180 C 0.6369 0.49004 0.84461 0.0
C3181 C 0.6293 0.47406 0.84697 0.0
C3182 C 0.61548 0.43623 0.82368 0.0
C3183 C 0.58456 0.402 0.83819 0.0
C3184 C 0.59464 0.41807 0.83773 0.0
C3185 C 0.62073 0.46603 0.83346 0.0
C3186 C 0.61257 0.44919 0.83565 0.0
H3187 H 0.56787 0.37347 0.86631 0.0
H3188 H 0.58424 0.39984 0.86576 0.0
H3189 H 0.60938 0.41106 0.8154 0.0
H3190 H 0.62594 0.49629 0.803 0.0
H3191 H 0.61305 0.46843 0.80707 0.0
C3192 C 0.50909 0.36499 0.15404 0.0
C3193 C 0.50168 0.36496 0.17033 0.0
C3194 C 0.52453 0.37351 0.15118 0.0
C3195 C 0.55208 0.40674 0.17085 0.0
H3196 H 0.58708 0.38864 0.14109 0.0
C3197 C 0.62154 0.42923 0.1736 0.0
C3198 C 0.6293 0.43354 0.15808 0.0
C3199 C 0.60571 0.42115 0.17381 0.0
C3200 C 0.57733 0.39389 0.14931 0.0
H3201 H 0.50505 0.37301 0.19655 0.0
H3202 H 0.532 0.38717 0.19177 0.0
H3203 H 0.55988 0.37364 0.14378 0.0
H3204 H 0.62673 0.43257 0.13059 0.0
H3205 H 0.59906 0.41812 0.13099 0.0
H3206 H 0.56974 0.42662 0.17682 0.0
C3207 C 0.52569 0.38132 0.18099 0.0
C3208 C 0.56174 0.38535 0.15082 0.0
C3209 C 0.51025 0.37308 0.18377 0.0
C3210 C 0.62101 0.42943 0.14275 0.0
C3211 C 0.60525 0.42111 0.14296 0.0
C3212 C 0.56769 0.41509 0.16951 0.0
C3213 C 0.5329 0.38196 0.16462 0.0
C3214 C 0.54903 0.39153 0.16185 0.0
C3215 C 0.59742 0.41702 0.1585 0.0
C3216 C 0.58054 0.40864 0.15893 0.0
H3217 H 0.50274 0.35885 0.14344 0.0
H3218 H 0.52969 0.3738 0.1384 0.0
H3219 H 0.54244 0.41217 0.17908 0.0
H3220 H 0.62763 0.4322 0.18562 0.0
H3221 H 0.60001 0.41798 0.18596 0.0
C3222 C 0.62496 0.50869 0.18345 0.0
C3223 C 0.63386 0.50089 0.17001 0.0
C3224 C 0.61739 0.52459 0.18126 0.0
C3225 C 0.59878 0.55298 0.15005 0.0
H3226 H 0.60731 0.58791 0.18392 0.0
C3227 C 0.5699 0.62078 0.14507 0.0
C3228 C 0.56486 0.62863 0.16033 0.0
C3229 C 0.57889 0.6054 0.14536 0.0
C3230 C 0.60459 0.57825 0.17446 0.0
H3231 H 0.64155 0.50358 0.14361 0.0
H3232 H 0.62785 0.53142 0.13969 0.0
H3233 H 0.62203 0.56069 0.1859 0.0
H3234 H 0.56483 0.62637 0.18784 0.0
H3235 H 0.57995 0.59934 0.18839 0.0
H3236 H 0.58086 0.57025 0.13894 0.0
C3237 C 0.62695 0.52515 0.15194 0.0
C3238 C 0.61312 0.56271 0.17555 0.0
C3239 C 0.63483 0.5093 0.15422 0.0
C3240 C 0.56867 0.62068 0.17587 0.0
C3241 C 0.57748 0.60524 0.17617 0.0
C3242 C 0.59004 0.56848 0.14907 0.0
C3243 C 0.6183 0.53298 0.16552 0.0
C3244 C 0.61016 0.54986 0.16348 0.0
C3245 C 0.58288 0.59748 0.16094 0.0
C3246 C 0.59268 0.58124 0.1614 0.0
H3247 H 0.62403 0.50261 0.1958 0.0
H3248 H 0.61065 0.53029 0.19188 0.0
H3249 H 0.5962 0.5432 0.14066 0.0
H3250 H 0.56718 0.62667 0.1329 0.0
H3251 H 0.58299 0.59992 0.13339 0.0
C3252 C 0.48707 0.62784 0.18195 0.0
C3253 C 0.49608 0.63598 0.16879 0.0
C3254 C 0.47093 0.62107 0.17902 0.0
C3255 C 0.44386 0.6024 0.14709 0.0
H3256 H 0.40744 0.61322 0.17866 0.0
C3257 C 0.37665 0.57214 0.14161 0.0
C3258 C 0.36857 0.56782 0.15698 0.0
C3259 C 0.39167 0.58173 0.1417 0.0
C3260 C 0.4175 0.6099 0.16982 0.0
H3261 H 0.49526 0.64327 0.14217 0.0
H3262 H 0.46697 0.63089 0.13692 0.0
H3263 H 0.43473 0.62778 0.1811 0.0
H3264 H 0.36999 0.56984 0.18447 0.0
H3265 H 0.39637 0.586 0.1847 0.0
H3266 H 0.42697 0.58393 0.13628 0.0
C3267 C 0.47249 0.63 0.14954 0.0
C3268 C 0.43307 0.61835 0.17116 0.0
C3269 C 0.4886 0.63711 0.15255 0.0
C3270 C 0.37586 0.57309 0.17241 0.0
C3271 C 0.39093 0.5825 0.17252 0.0
C3272 C 0.42832 0.59374 0.14587 0.0
C3273 C 0.4635 0.62204 0.16281 0.0
C3274 C 0.44648 0.61448 0.16 0.0
C3275 C 0.39899 0.58707 0.15717 0.0
C3276 C 0.41505 0.59716 0.15745 0.0
H3277 H 0.4924 0.62684 0.19463 0.0
H3278 H 0.46432 0.61486 0.18942 0.0
H3279 H 0.45408 0.59911 0.13842 0.0
H3280 H 0.37126 0.5683 0.12951 0.0
H3281 H 0.3974 0.58516 0.12963 0.0
C3282 C 0.43097 0.37922 0.17642 0.0
C3283 C 0.43401 0.37091 0.1609 0.0
C3284 C 0.42263 0.39492 0.17675 0.0
C3285 C 0.40991 0.4314 0.14923 0.0
H3286 H 0.37999 0.44116 0.1873 0.0
C3287 C 0.36546 0.49084 0.15419 0.0
C3288 C 0.36701 0.4999 0.16958 0.0
C3289 C 0.37349 0.47504 0.15217 0.0
C3290 C 0.38834 0.4386 0.17662 0.0
H3291 H 0.43069 0.37242 0.13355 0.0
H3292 H 0.41557 0.39955 0.13412 0.0
H3293 H 0.39398 0.41356 0.18554 0.0
H3294 H 0.37823 0.49945 0.19486 0.0
H3295 H 0.39189 0.47185 0.19138 0.0
H3296 H 0.4038 0.45649 0.14023 0.0
C3297 C 0.42 0.39421 0.14604 0.0
C3298 C 0.39647 0.42283 0.17564 0.0
C3299 C 0.42858 0.3786 0.1457 0.0
C3300 C 0.3768 0.49286 0.18283 0.0
C3301 C 0.38455 0.47701 0.1809 0.0
C3302 C 0.40154 0.44712 0.1501 0.0
C3303 C 0.41687 0.40256 0.16159 0.0
C3304 C 0.40759 0.4191 0.16209 0.0
C3305 C 0.38292 0.46792 0.1656 0.0
C3306 C 0.3909 0.45093 0.16394 0.0
H3307 H 0.43514 0.37367 0.18834 0.0
H3308 H 0.42084 0.40112 0.18894 0.0
H3309 H 0.41851 0.4291 0.13871 0.0
H3310 H 0.35806 0.49595 0.14373 0.0
H3311 H 0.37204 0.46822 0.14026 0.0
C3312 C 0.84211 0.51262 0.63978 0.0
C3313 C 0.83456 0.49905 0.63087 0.0
C3314 C 0.84442 0.52843 0.63186 0.0
C3315 C 0.82654 0.55361 0.59642 0.0
H3316 H 0.86498 0.58349 0.6046 0.0
C3317 C 0.85614 0.62018 0.56828 0.0
C3318 C 0.84109 0.62978 0.56701 0.0
C3319 C 0.85609 0.60435 0.57644 0.0
C3320 C 0.85422 0.57523 0.60209 0.0
H3321 H 0.82468 0.49104 0.60633 0.0
H3322 H 0.8291 0.51834 0.59246 0.0
H3323 H 0.86448 0.55517 0.61751 0.0
H3324 H 0.81428 0.63052 0.57355 0.0
H3325 H 0.81423 0.60305 0.58798 0.0
H3326 H 0.81642 0.5734 0.58075 0.0
C3327 C 0.83272 0.51701 0.60571 0.0
C3328 C 0.85386 0.55908 0.60963 0.0
C3329 C 0.83028 0.50132 0.61364 0.0
C3330 C 0.82605 0.62336 0.57424 0.0
C3331 C 0.82601 0.60758 0.58243 0.0
C3332 C 0.82692 0.56968 0.58889 0.0
C3333 C 0.83935 0.53091 0.61484 0.0
C3334 C 0.84002 0.54806 0.60683 0.0
C3335 C 0.841 0.59782 0.58352 0.0
C3336 C 0.84073 0.58072 0.59164 0.0
H3337 H 0.84551 0.51127 0.65308 0.0
H3338 H 0.8495 0.53889 0.63928 0.0
H3339 H 0.81554 0.54558 0.59421 0.0
H3340 H 0.86793 0.6248 0.5628 0.0
H3341 H 0.86781 0.59708 0.57689 0.0
C3342 C 0.84251 0.48781 0.36213 0.0
C3343 C 0.83059 0.49965 0.3684 0.0
C3344 C 0.84473 0.47206 0.37024 0.0
C3345 C 0.8211 0.44149 0.39561 0.0
H3346 H 0.86475 0.42351 0.40997 0.0
C3347 C 0.82464 0.381 0.43662 0.0
C3348 C 0.83873 0.37022 0.4348 0.0
C3349 C 0.82441 0.39688 0.4286 0.0
C3350 C 0.85246 0.42814 0.40579 0.0
H3351 H 0.81226 0.50442 0.38862 0.0
H3352 H 0.81604 0.47704 0.40246 0.0
H3353 H 0.86345 0.45089 0.39531 0.0
H3354 H 0.86347 0.3672 0.42306 0.0
H3355 H 0.86266 0.39437 0.40807 0.0
H3356 H 0.81 0.41874 0.40536 0.0
C3357 C 0.82351 0.47988 0.3912 0.0
C3358 C 0.85176 0.44389 0.39747 0.0
C3359 C 0.8214 0.49559 0.38325 0.0
C3360 C 0.85253 0.37544 0.42475 0.0
C3361 C 0.85208 0.39109 0.41627 0.0
C3362 C 0.8218 0.42564 0.40359 0.0
C3363 C 0.83496 0.46786 0.38464 0.0
C3364 C 0.83604 0.45079 0.39254 0.0
C3365 C 0.83803 0.40209 0.4181 0.0
C3366 C 0.83745 0.4188 0.40904 0.0
H3367 H 0.84982 0.49053 0.35076 0.0
H3368 H 0.85363 0.46295 0.36495 0.0
H3369 H 0.80883 0.44646 0.39173 0.0
H3370 H 0.81395 0.37729 0.4445 0.0
H3371 H 0.81357 0.4051 0.4308 0.0
C3372 C 0.50993 0.81765 0.37554 0.0
C3373 C 0.50166 0.8308 0.36664 0.0
C3374 C 0.52593 0.82028 0.38272 0.0
C3375 C 0.5539 0.85153 0.401 0.0
H3376 H 0.58961 0.81918 0.39008 0.0
C3377 C 0.62182 0.85629 0.42975 0.0
C3378 C 0.62992 0.84088 0.43387 0.0
C3379 C 0.60646 0.85628 0.42073 0.0
C3380 C 0.57975 0.82821 0.39346 0.0
H3381 H 0.50355 0.85715 0.35858 0.0
H3382 H 0.53159 0.86189 0.37169 0.0
H3383 H 0.56215 0.81715 0.37581 0.0
H3384 H 0.62813 0.81339 0.43223 0.0
H3385 H 0.60113 0.81329 0.4171 0.0
H3386 H 0.57117 0.86215 0.41923 0.0
C3387 C 0.52561 0.84951 0.37284 0.0
C3388 C 0.56409 0.82711 0.38516 0.0
C3389 C 0.50966 0.84677 0.36531 0.0
C3390 C 0.62225 0.82547 0.4291 0.0
C3391 C 0.60682 0.82544 0.42028 0.0
C3392 C 0.56953 0.8525 0.40952 0.0
C3393 C 0.53393 0.8362 0.38142 0.0
C3394 C 0.55096 0.83859 0.38903 0.0
C3395 C 0.59881 0.84084 0.4158 0.0
C3396 C 0.58255 0.84065 0.40605 0.0
H3397 H 0.50418 0.80516 0.37672 0.0
H3398 H 0.53205 0.80988 0.38941 0.0
H3399 H 0.54389 0.86045 0.40426 0.0
H3400 H 0.62749 0.86838 0.43323 0.0
H3401 H 0.60076 0.86838 0.41736 0.0
C3402 C 0.14498 0.61821 0.43533 0.0
C3403 C 0.15972 0.62834 0.43567 0.0
C3404 C 0.14513 0.60231 0.4273 0.0
C3405 C 0.14641 0.57368 0.4011 0.0
H3406 H 0.18642 0.54514 0.40572 0.0
C3407 C 0.1579 0.51285 0.36055 0.0
C3408 C 0.16624 0.49914 0.36849 0.0
C3409 C 0.15584 0.52835 0.36914 0.0
C3410 C 0.17505 0.55284 0.40444 0.0
H3411 H 0.18615 0.62984 0.42784 0.0
H3412 H 0.18637 0.60226 0.41364 0.0
H3413 H 0.18541 0.57246 0.4202 0.0
H3414 H 0.17798 0.49062 0.39202 0.0
H3415 H 0.17404 0.51737 0.40703 0.0
H3416 H 0.13593 0.55381 0.38559 0.0
C3417 C 0.17475 0.60643 0.41979 0.0
C3418 C 0.17458 0.56864 0.41256 0.0
C3419 C 0.17461 0.62228 0.42786 0.0
C3420 C 0.17174 0.501 0.38542 0.0
C3421 C 0.16956 0.51639 0.39401 0.0
C3422 C 0.14686 0.55781 0.39299 0.0
C3423 C 0.16002 0.59623 0.41942 0.0
C3424 C 0.16029 0.57929 0.41095 0.0
C3425 C 0.16196 0.53039 0.38586 0.0
C3426 C 0.1612 0.5472 0.39457 0.0
H3427 H 0.13331 0.62255 0.44128 0.0
H3428 H 0.13363 0.5947 0.42744 0.0
H3429 H 0.13527 0.58165 0.39946 0.0
H3430 H 0.15354 0.51183 0.3475 0.0
H3431 H 0.15001 0.53891 0.36244 0.0
C3432 C 0.49077 0.15406 0.36516 0.0
C3433 C 0.4986 0.17015 0.36535 0.0
C3434 C 0.47538 0.15142 0.37384 0.0
C3435 C 0.44863 0.17106 0.40776 0.0
H3436 H 0.41278 0.14258 0.38926 0.0
C3437 C 0.37918 0.17476 0.43061 0.0
C3438 C 0.37106 0.15928 0.43439 0.0
C3439 C 0.39508 0.17486 0.42266 0.0
C3440 C 0.42277 0.15044 0.39463 0.0
H3441 H 0.49605 0.19626 0.37407 0.0
H3442 H 0.46921 0.19186 0.38854 0.0
H3443 H 0.43991 0.14495 0.37412 0.0
H3444 H 0.3731 0.13178 0.4327 0.0
H3445 H 0.40087 0.13202 0.41848 0.0
H3446 H 0.43126 0.177 0.42792 0.0
C3447 C 0.47514 0.18105 0.38235 0.0
C3448 C 0.43833 0.15176 0.38601 0.0
C3449 C 0.49052 0.18361 0.37392 0.0
C3450 C 0.3791 0.14391 0.42997 0.0
C3451 C 0.39491 0.14402 0.42177 0.0
C3452 C 0.43305 0.16991 0.41621 0.0
C3453 C 0.46748 0.16488 0.3827 0.0
C3454 C 0.45135 0.16232 0.39234 0.0
C3455 C 0.40307 0.15951 0.41812 0.0
C3456 C 0.4199 0.15978 0.40962 0.0
H3457 H 0.49672 0.14343 0.35867 0.0
H3458 H 0.46988 0.13877 0.3739 0.0
H3459 H 0.45851 0.17893 0.4133 0.0
H3460 H 0.37329 0.1868 0.43385 0.0
H3461 H 0.40105 0.18698 0.41985 0.0
C3462 C 0.15515 0.49198 0.63333 0.0
C3463 C 0.17041 0.50118 0.63143 0.0
C3464 C 0.15297 0.47629 0.62511 0.0
C3465 C 0.17735 0.44033 0.60894 0.0
H3466 H 0.13842 0.43047 0.58022 0.0
C3467 C 0.17642 0.38118 0.56604 0.0
C3468 C 0.16095 0.37259 0.56365 0.0
C3469 C 0.17682 0.3969 0.57435 0.0
C3470 C 0.14925 0.43288 0.58841 0.0
H3471 H 0.19528 0.50111 0.61928 0.0
H3472 H 0.19152 0.47374 0.60528 0.0
H3473 H 0.14009 0.45777 0.59512 0.0
H3474 H 0.13372 0.37364 0.56804 0.0
H3475 H 0.13443 0.40081 0.5831 0.0
H3476 H 0.18644 0.41549 0.60271 0.0
C3477 C 0.18126 0.47868 0.61307 0.0
C3478 C 0.1502 0.44854 0.59689 0.0
C3479 C 0.18334 0.49441 0.62103 0.0
C3480 C 0.14584 0.38004 0.56964 0.0
C3481 C 0.14625 0.39567 0.57819 0.0
C3482 C 0.17631 0.42463 0.60071 0.0
C3483 C 0.16612 0.46942 0.61511 0.0
C3484 C 0.16439 0.45248 0.60701 0.0
C3485 C 0.16177 0.40427 0.58073 0.0
C3486 C 0.16238 0.42077 0.5901 0.0
H3487 H 0.14492 0.49686 0.6412 0.0
H3488 H 0.14118 0.46934 0.62689 0.0
H3489 H 0.18832 0.44299 0.61689 0.0
H3490 H 0.18826 0.37581 0.56142 0.0
H3491 H 0.18896 0.4033 0.57566 0.0
C3492 C 0.62287 0.17473 0.57224 0.0
C3493 C 0.63048 0.15904 0.56834 0.0
C3494 C 0.6075 0.17533 0.58115 0.0
C3495 C 0.57026 0.14878 0.59346 0.0
H3496 H 0.56221 0.18621 0.62467 0.0
C3497 C 0.51029 0.15508 0.63688 0.0
C3498 C 0.502 0.17091 0.63552 0.0
C3499 C 0.52629 0.1526 0.6294 0.0
C3500 C 0.56431 0.17569 0.61598 0.0
H3501 H 0.6281 0.13166 0.57082 0.0
H3502 H 0.60152 0.13267 0.58688 0.0
H3503 H 0.58971 0.1837 0.61056 0.0
H3504 H 0.5041 0.19656 0.62538 0.0
H3505 H 0.53204 0.19227 0.61267 0.0
H3506 H 0.54479 0.14073 0.59923 0.0
C3507 C 0.60717 0.14453 0.58271 0.0
C3508 C 0.58001 0.1743 0.60779 0.0
C3509 C 0.62246 0.14394 0.57359 0.0
C3510 C 0.51008 0.18419 0.62663 0.0
C3511 C 0.52613 0.18179 0.61943 0.0
C3512 C 0.5546 0.15006 0.60186 0.0
C3513 C 0.59948 0.16025 0.5866 0.0
C3514 C 0.58311 0.16101 0.59616 0.0
C3515 C 0.53439 0.166 0.62074 0.0
C3516 C 0.5514 0.1637 0.61296 0.0
H3517 H 0.62869 0.18658 0.56825 0.0
H3518 H 0.6018 0.18766 0.58354 0.0
H3519 H 0.57208 0.13849 0.58446 0.0
H3520 H 0.50437 0.1446 0.64361 0.0
H3521 H 0.53245 0.14032 0.6306 0.0
C3522 C 0.48889 0.84401 0.63738 0.0
C3523 C 0.49679 0.82799 0.63603 0.0
C3524 C 0.47274 0.84672 0.63027 0.0
C3525 C 0.43393 0.82428 0.61779 0.0
H3526 H 0.42684 0.8607 0.58521 0.0
C3527 C 0.37599 0.8246 0.5732 0.0
C3528 C 0.36855 0.84023 0.56877 0.0
C3529 C 0.39118 0.82414 0.58244 0.0
C3530 C 0.42846 0.85065 0.59451 0.0
H3531 H 0.49382 0.80221 0.62644 0.0
H3532 H 0.46566 0.8069 0.61441 0.0
H3533 H 0.45407 0.85841 0.6001 0.0
H3534 H 0.37103 0.86766 0.57068 0.0
H3535 H 0.39732 0.86688 0.58725 0.0
H3536 H 0.40841 0.81651 0.61246 0.0
C3537 C 0.47197 0.81736 0.62084 0.0
C3538 C 0.44408 0.84934 0.60299 0.0
C3539 C 0.48815 0.81473 0.62763 0.0
C3540 C 0.37654 0.85541 0.57385 0.0
C3541 C 0.39166 0.85496 0.58327 0.0
C3542 C 0.41826 0.8257 0.6095 0.0
C3543 C 0.46412 0.83337 0.62204 0.0
C3544 C 0.44706 0.83594 0.61444 0.0
C3545 C 0.39919 0.8393 0.58767 0.0
C3546 C 0.41543 0.83867 0.59747 0.0
H3547 H 0.49526 0.85447 0.64374 0.0
H3548 H 0.46691 0.85918 0.63136 0.0
H3549 H 0.43584 0.81395 0.62673 0.0
H3550 H 0.37019 0.81268 0.56938 0.0
H3551 H 0.39676 0.81184 0.58524 0.0
loop_
_geom_bond_atom_site_label_1
_geom_bond_atom_site_label_2
_geom_bond_distance
_geom_bond_site_symmetry_2
_ccdc_geom_bond_type
Co0 O1 2.216 . S
Co0 O2 2.091 . S
Co0 O4 2.004 . S
Co0 O10 2.021 . S
Co0 O12 2.137 . S
Co0 O13 2.244 . S
O1 Co0 2.216 . S
O1 C8 1.247 . S
O2 Co0 2.091 . S
O2 C8 1.261 . S
C3 O12 1.247 . S
C3 O13 1.272 . S
O4 Co0 2.004 . S
O4 C9 1.259 . S
Co5 O6 2.061 . S
Co5 O11 2.052 . S
Co5 O13 2.135 . S
O6 Co5 2.061 . S
O6 C9 1.235 . S
C7 O10 1.238 . S
C7 O11 1.241 . S
C8 O1 1.247 . S
C8 O2 1.261 . S
C9 O4 1.259 . S
C9 O6 1.235 . S
O10 Co0 2.021 . S
O10 C7 1.238 . S
O11 Co5 2.052 . S
O11 C7 1.241 . S
O12 Co0 2.137 . S
O12 C3 1.247 . S
O13 Co0 2.244 . S
O13 C3 1.272 . S
O13 Co5 2.135 . S
Co14 O15 2.216 . S
Co14 O16 2.091 . S
Co14 O18 2.004 . S
Co14 O24 2.021 . S
Co14 O26 2.137 . S
Co14 O27 2.244 . S
O15 Co14 2.216 . S
O15 C22 1.247 . S
O16 Co14 2.091 . S
O16 C22 1.261 . S
C17 O26 1.247 . S
C17 O27 1.272 . S
O18 Co14 2.004 . S
O18 C23 1.259 . S
Co19 O20 2.061 . S
Co19 O25 2.052 . S
Co19 O27 2.135 . S
O20 Co19 2.061 . S
O20 C23 1.235 . S
C21 O24 1.238 . S
C21 O25 1.241 . S
C22 O15 1.247 . S
C22 O16 1.261 . S
C23 O18 1.259 . S
C23 O20 1.235 . S
O24 Co14 2.021 . S
O24 C21 1.238 . S
O25 Co19 2.052 . S
O25 C21 1.241 . S
O26 Co14 2.137 . S
O26 C17 1.247 . S
O27 Co14 2.244 . S
O27 C17 1.272 . S
O27 Co19 2.135 . S
Co28 O29 2.216 . S
Co28 O30 2.091 . S
Co28 O32 2.004 . S
Co28 O38 2.021 . S
Co28 O40 2.137 . S
Co28 O41 2.244 . S
O29 Co28 2.216 . S
O29 C36 1.247 . S
O30 Co28 2.091 . S
O30 C36 1.261 . S
C31 O40 1.247 . S
C31 O41 1.272 . S
O32 Co28 2.004 . S
O32 C37 1.259 . S
Co33 O34 2.061 . S
Co33 O39 2.052 . S
Co33 O41 2.135 . S
O34 Co33 2.061 . S
O34 C37 1.235 . S
C35 O38 1.238 . S
C35 O39 1.241 . S
C36 O29 1.247 . S
C36 O30 1.261 . S
C37 O32 1.259 . S
C37 O34 1.235 . S
O38 Co28 2.021 . S
O38 C35 1.238 . S
O39 Co33 2.052 . S
O39 C35 1.241 . S
O40 Co28 2.137 . S
O40 C31 1.247 . S
O41 Co28 2.244 . S
O41 C31 1.272 . S
O41 Co33 2.135 . S
Co42 O43 2.216 . S
Co42 O44 2.091 . S
Co42 O46 2.004 . S
Co42 O52 2.021 . S
Co42 O54 2.137 . S
Co42 O55 2.244 . S
O43 Co42 2.216 . S
O43 C50 1.247 . S
O44 Co42 2.091 . S
O44 C50 1.261 . S
C45 O54 1.247 . S
C45 O55 1.272 . S
O46 Co42 2.004 . S
O46 C51 1.259 . S
Co47 O48 2.061 . S
Co47 O53 2.052 . S
Co47 O55 2.135 . S
O48 Co47 2.061 . S
O48 C51 1.235 . S
C49 O52 1.238 . S
C49 O53 1.241 . S
C50 O43 1.247 . S
C50 O44 1.261 . S
C51 O46 1.259 . S
C51 O48 1.235 . S
O52 Co42 2.021 . S
O52 C49 1.238 . S
O53 Co47 2.052 . S
O53 C49 1.241 . S
O54 Co42 2.137 . S
O54 C45 1.247 . S
O55 Co42 2.244 . S
O55 C45 1.272 . S
O55 Co47 2.135 . S
Co56 O57 2.216 . S
Co56 O58 2.091 . S
Co56 O60 2.004 . S
Co56 O66 2.021 . S
Co56 O68 2.137 . S
Co56 O69 2.244 . S
O57 Co56 2.216 . S
O57 C64 1.247 . S
O58 Co56 2.091 . S
O58 C64 1.261 . S
C59 O68 1.247 . S
C59 O69 1.272 . S
O60 Co56 2.004 . S
O60 C65 1.259 . S
Co61 O62 2.061 . S
Co61 O67 2.052 . S
Co61 O69 2.135 . S
O62 Co61 2.061 . S
O62 C65 1.235 . S
C63 O66 1.238 . S
C63 O67 1.241 . S
C64 O57 1.247 . S
C64 O58 1.261 . S
C65 O60 1.259 . S
C65 O62 1.235 . S
O66 Co56 2.021 . S
O66 C63 1.238 . S
O67 Co61 2.052 . S
O67 C63 1.241 . S
O68 Co56 2.137 . S
O68 C59 1.247 . S
O69 Co56 2.244 . S
O69 C59 1.272 . S
O69 Co61 2.135 . S
Co70 O71 2.216 . S
Co70 O72 2.091 . S
Co70 O74 2.004 . S
Co70 O80 2.021 . S
Co70 O82 2.137 . S
Co70 O83 2.244 . S
O71 Co70 2.216 . S
O71 C78 1.247 . S
O72 Co70 2.091 . S
O72 C78 1.261 . S
C73 O82 1.247 . S
C73 O83 1.272 . S
O74 Co70 2.004 . S
O74 C79 1.259 . S
Co75 O76 2.061 . S
Co75 O81 2.052 . S
Co75 O83 2.135 . S
O76 Co75 2.061 . S
O76 C79 1.235 . S
C77 O80 1.238 . S
C77 O81 1.241 . S
C78 O71 1.247 . S
C78 O72 1.261 . S
C79 O74 1.259 . S
C79 O76 1.235 . S
O80 Co70 2.021 . S
O80 C77 1.238 . S
O81 Co75 2.052 . S
O81 C77 1.241 . S
O82 Co70 2.137 . S
O82 C73 1.247 . S
O83 Co70 2.244 . S
O83 C73 1.272 . S
O83 Co75 2.135 . S
Co84 O85 2.216 . S
Co84 O86 2.091 . S
Co84 O88 2.004 . S
Co84 O94 2.021 . S
Co84 O96 2.137 . S
Co84 O97 2.244 . S
O85 Co84 2.216 . S
O85 C92 1.247 . S
O86 Co84 2.091 . S
O86 C92 1.261 . S
C87 O96 1.247 . S
C87 O97 1.272 . S
O88 Co84 2.004 . S
O88 C93 1.259 . S
Co89 O90 2.061 . S
Co89 O95 2.052 . S
Co89 O97 2.135 . S
O90 Co89 2.061 . S
O90 C93 1.235 . S
C91 O94 1.238 . S
C91 O95 1.241 . S
C92 O85 1.247 . S
C92 O86 1.261 . S
C93 O88 1.259 . S
C93 O90 1.235 . S
O94 Co84 2.021 . S
O94 C91 1.238 . S
O95 Co89 2.052 . S
O95 C91 1.241 . S
O96 Co84 2.137 . S
O96 C87 1.247 . S
O97 Co84 2.244 . S
O97 C87 1.272 . S
O97 Co89 2.135 . S
Co98 O99 2.216 . S
Co98 O100 2.091 . S
Co98 O102 2.004 . S
Co98 O108 2.021 . S
Co98 O110 2.137 . S
Co98 O111 2.244 . S
O99 Co98 2.216 . S
O99 C106 1.247 . S
O100 Co98 2.091 . S
O100 C106 1.261 . S
C101 O110 1.247 . S
C101 O111 1.272 . S
O102 Co98 2.004 . S
O102 C107 1.259 . S
Co103 O104 2.061 . S
Co103 O109 2.052 . S
Co103 O111 2.135 . S
O104 Co103 2.061 . S
O104 C107 1.235 . S
C105 O108 1.238 . S
C105 O109 1.241 . S
C106 O99 1.247 . S
C106 O100 1.261 . S
C107 O102 1.259 . S
C107 O104 1.235 . S
O108 Co98 2.021 . S
O108 C105 1.238 . S
O109 Co103 2.052 . S
O109 C105 1.241 . S
O110 Co98 2.137 . S
O110 C101 1.247 . S
O111 Co98 2.244 . S
O111 C101 1.272 . S
O111 Co103 2.135 . S
Co112 O113 2.216 . S
Co112 O114 2.091 . S
Co112 O116 2.004 . S
Co112 O122 2.021 . S
Co112 O124 2.137 . S
Co112 O125 2.244 . S
O113 Co112 2.216 . S
O113 C120 1.247 . S
O114 Co112 2.091 . S
O114 C120 1.261 . S
C115 O124 1.247 . S
C115 O125 1.272 . S
O116 Co112 2.004 . S
O116 C121 1.259 . S
Co117 O118 2.061 . S
Co117 O123 2.052 . S
Co117 O125 2.135 . S
O118 Co117 2.061 . S
O118 C121 1.235 . S
C119 O122 1.238 . S
C119 O123 1.241 . S
C120 O113 1.247 . S
C120 O114 1.261 . S
C121 O116 1.259 . S
C121 O118 1.235 . S
O122 Co112 2.021 . S
O122 C119 1.238 . S
O123 Co117 2.052 . S
O123 C119 1.241 . S
O124 Co112 2.137 . S
O124 C115 1.247 . S
O125 Co112 2.244 . S
O125 C115 1.272 . S
O125 Co117 2.135 . S
Co126 O127 2.216 . S
Co126 O128 2.091 . S
Co126 O130 2.004 . S
Co126 O136 2.021 . S
Co126 O138 2.137 . S
Co126 O139 2.244 . S
O127 Co126 2.216 . S
O127 C134 1.247 . S
O128 Co126 2.091 . S
O128 C134 1.261 . S
C129 O138 1.247 . S
C129 O139 1.272 . S
O130 Co126 2.004 . S
O130 C135 1.259 . S
Co131 O132 2.061 . S
Co131 O137 2.052 . S
Co131 O139 2.135 . S
O132 Co131 2.061 . S
O132 C135 1.235 . S
C133 O136 1.238 . S
C133 O137 1.241 . S
C134 O127 1.247 . S
C134 O128 1.261 . S
C135 O130 1.259 . S
C135 O132 1.235 . S
O136 Co126 2.021 . S
O136 C133 1.238 . S
O137 Co131 2.052 . S
O137 C133 1.241 . S
O138 Co126 2.137 . S
O138 C129 1.247 . S
O139 Co126 2.244 . S
O139 C129 1.272 . S
O139 Co131 2.135 . S
Co140 O141 2.216 . S
Co140 O142 2.091 . S
Co140 O144 2.004 . S
Co140 O150 2.021 . S
Co140 O152 2.137 . S
Co140 O153 2.244 . S
O141 Co140 2.216 . S
O141 C148 1.247 . S
O142 Co140 2.091 . S
O142 C148 1.261 . S
C143 O152 1.247 . S
C143 O153 1.272 . S
O144 Co140 2.004 . S
O144 C149 1.259 . S
Co145 O146 2.061 . S
Co145 O151 2.052 . S
Co145 O153 2.135 . S
O146 Co145 2.061 . S
O146 C149 1.235 . S
C147 O150 1.238 . S
C147 O151 1.241 . S
C148 O141 1.247 . S
C148 O142 1.261 . S
C149 O144 1.259 . S
C149 O146 1.235 . S
O150 Co140 2.021 . S
O150 C147 1.238 . S
O151 Co145 2.052 . S
O151 C147 1.241 . S
O152 Co140 2.137 . S
O152 C143 1.247 . S
O153 Co140 2.244 . S
O153 C143 1.272 . S
O153 Co145 2.135 . S
Co154 O155 2.216 . S
Co154 O156 2.091 . S
Co154 O158 2.004 . S
Co154 O164 2.021 . S
Co154 O166 2.137 . S
Co154 O167 2.244 . S
O155 Co154 2.216 . S
O155 C162 1.247 . S
O156 Co154 2.091 . S
O156 C162 1.261 . S
C157 O166 1.247 . S
C157 O167 1.272 . S
O158 Co154 2.004 . S
O158 C163 1.259 . S
Co159 O160 2.061 . S
Co159 O165 2.052 . S
Co159 O167 2.135 . S
O160 Co159 2.061 . S
O160 C163 1.235 . S
C161 O164 1.238 . S
C161 O165 1.241 . S
C162 O155 1.247 . S
C162 O156 1.261 . S
C163 O158 1.259 . S
C163 O160 1.235 . S
O164 Co154 2.021 . S
O164 C161 1.238 . S
O165 Co159 2.052 . S
O165 C161 1.241 . S
O166 Co154 2.137 . S
O166 C157 1.247 . S
O167 Co154 2.244 . S
O167 C157 1.272 . S
O167 Co159 2.135 . S
Co168 O169 2.216 . S
Co168 O170 2.091 . S
Co168 O172 2.004 . S
Co168 O178 2.021 . S
Co168 O180 2.137 . S
Co168 O181 2.244 . S
O169 Co168 2.216 . S
O169 C176 1.247 . S
O170 Co168 2.091 . S
O170 C176 1.261 . S
C171 O180 1.247 . S
C171 O181 1.272 . S
O172 Co168 2.004 . S
O172 C177 1.259 . S
Co173 O174 2.061 . S
Co173 O179 2.052 . S
Co173 O181 2.135 . S
O174 Co173 2.061 . S
O174 C177 1.235 . S
C175 O178 1.238 . S
C175 O179 1.241 . S
C176 O169 1.247 . S
C176 O170 1.261 . S
C177 O172 1.259 . S
C177 O174 1.235 . S
O178 Co168 2.021 . S
O178 C175 1.238 . S
O179 Co173 2.052 . S
O179 C175 1.241 . S
O180 Co168 2.137 . S
O180 C171 1.247 . S
O181 Co168 2.244 . S
O181 C171 1.272 . S
O181 Co173 2.135 . S
Co182 O183 2.216 . S
Co182 O184 2.091 . S
Co182 O186 2.004 . S
Co182 O192 2.021 . S
Co182 O194 2.137 . S
Co182 O195 2.244 . S
O183 Co182 2.216 . S
O183 C190 1.247 . S
O184 Co182 2.091 . S
O184 C190 1.261 . S
C185 O194 1.247 . S
C185 O195 1.272 . S
O186 Co182 2.004 . S
O186 C191 1.259 . S
Co187 O188 2.061 . S
Co187 O193 2.052 . S
Co187 O195 2.135 . S
O188 Co187 2.061 . S
O188 C191 1.235 . S
C189 O192 1.238 . S
C189 O193 1.241 . S
C190 O183 1.247 . S
C190 O184 1.261 . S
C191 O186 1.259 . S
C191 O188 1.235 . S
O192 Co182 2.021 . S
O192 C189 1.238 . S
O193 Co187 2.052 . S
O193 C189 1.241 . S
O194 Co182 2.137 . S
O194 C185 1.247 . S
O195 Co182 2.244 . S
O195 C185 1.272 . S
O195 Co187 2.135 . S
Co196 O197 2.216 . S
Co196 O198 2.091 . S
Co196 O200 2.004 . S
Co196 O206 2.021 . S
Co196 O208 2.137 . S
Co196 O209 2.244 . S
O197 Co196 2.216 . S
O197 C204 1.247 . S
O198 Co196 2.091 . S
O198 C204 1.261 . S
C199 O208 1.247 . S
C199 O209 1.272 . S
O200 Co196 2.004 . S
O200 C205 1.259 . S
Co201 O202 2.061 . S
Co201 O207 2.052 . S
Co201 O209 2.135 . S
O202 Co201 2.061 . S
O202 C205 1.235 . S
C203 O206 1.238 . S
C203 O207 1.241 . S
C204 O197 1.247 . S
C204 O198 1.261 . S
C205 O200 1.259 . S
C205 O202 1.235 . S
O206 Co196 2.021 . S
O206 C203 1.238 . S
O207 Co201 2.052 . S
O207 C203 1.241 . S
O208 Co196 2.137 . S
O208 C199 1.247 . S
O209 Co196 2.244 . S
O209 C199 1.272 . S
O209 Co201 2.135 . S
Co210 O211 2.216 . S
Co210 O212 2.091 . S
Co210 O214 2.004 . S
Co210 O220 2.021 . S
Co210 O222 2.137 . S
Co210 O223 2.244 . S
O211 Co210 2.216 . S
O211 C218 1.247 . S
O212 Co210 2.091 . S
O212 C218 1.261 . S
C213 O222 1.247 . S
C213 O223 1.272 . S
O214 Co210 2.004 . S
O214 C219 1.259 . S
Co215 O216 2.061 . S
Co215 O221 2.052 . S
Co215 O223 2.135 . S
O216 Co215 2.061 . S
O216 C219 1.235 . S
C217 O220 1.238 . S
C217 O221 1.241 . S
C218 O211 1.247 . S
C218 O212 1.261 . S
C219 O214 1.259 . S
C219 O216 1.235 . S
O220 Co210 2.021 . S
O220 C217 1.238 . S
O221 Co215 2.052 . S
O221 C217 1.241 . S
O222 Co210 2.137 . S
O222 C213 1.247 . S
O223 Co210 2.244 . S
O223 C213 1.272 . S
O223 Co215 2.135 . S
Co224 O225 2.216 . S
Co224 O226 2.091 . S
Co224 O228 2.004 . S
Co224 O234 2.021 . S
Co224 O236 2.137 . S
Co224 O237 2.244 . S
O225 Co224 2.216 . S
O225 C232 1.247 . S
O226 Co224 2.091 . S
O226 C232 1.261 . S
C227 O236 1.247 . S
C227 O237 1.272 . S
O228 Co224 2.004 . S
O228 C233 1.259 . S
Co229 O230 2.061 . S
Co229 O235 2.052 . S
Co229 O237 2.135 . S
O230 Co229 2.061 . S
O230 C233 1.235 . S
C231 O234 1.238 . S
C231 O235 1.241 . S
C232 O225 1.247 . S
C232 O226 1.261 . S
C233 O228 1.259 . S
C233 O230 1.235 . S
O234 Co224 2.021 . S
O234 C231 1.238 . S
O235 Co229 2.052 . S
O235 C231 1.241 . S
O236 Co224 2.137 . S
O236 C227 1.247 . S
O237 Co224 2.244 . S
O237 C227 1.272 . S
O237 Co229 2.135 . S
Co238 O239 2.216 . S
Co238 O240 2.091 . S
Co238 O242 2.004 . S
Co238 O248 2.021 . S
Co238 O250 2.137 . S
Co238 O251 2.244 . S
O239 Co238 2.216 . S
O239 C246 1.247 . S
O240 Co238 2.091 . S
O240 C246 1.261 . S
C241 O250 1.247 . S
C241 O251 1.272 . S
O242 Co238 2.004 . S
O242 C247 1.259 . S
Co243 O244 2.061 . S
Co243 O249 2.052 . S
Co243 O251 2.135 . S
O244 Co243 2.061 . S
O244 C247 1.235 . S
C245 O248 1.238 . S
C245 O249 1.241 . S
C246 O239 1.247 . S
C246 O240 1.261 . S
C247 O242 1.259 . S
C247 O244 1.235 . S
O248 Co238 2.021 . S
O248 C245 1.238 . S
O249 Co243 2.052 . S
O249 C245 1.241 . S
O250 Co238 2.137 . S
O250 C241 1.247 . S
O251 Co238 2.244 . S
O251 C241 1.272 . S
O251 Co243 2.135 . S
Co252 O253 2.216 . S
Co252 O254 2.091 . S
Co252 O256 2.004 . S
Co252 O262 2.021 . S
Co252 O264 2.137 . S
Co252 O265 2.244 . S
O253 Co252 2.216 . S
O253 C260 1.247 . S
O254 Co252 2.091 . S
O254 C260 1.261 . S
C255 O264 1.247 . S
C255 O265 1.272 . S
O256 Co252 2.004 . S
O256 C261 1.259 . S
Co257 O258 2.061 . S
Co257 O263 2.052 . S
Co257 O265 2.135 . S
O258 Co257 2.061 . S
O258 C261 1.235 . S
C259 O262 1.238 . S
C259 O263 1.241 . S
C260 O253 1.247 . S
C260 O254 1.261 . S
C261 O256 1.259 . S
C261 O258 1.235 . S
O262 Co252 2.021 . S
O262 C259 1.238 . S
O263 Co257 2.052 . S
O263 C259 1.241 . S
O264 Co252 2.137 . S
O264 C255 1.247 . S
O265 Co252 2.244 . S
O265 C255 1.272 . S
O265 Co257 2.135 . S
Co266 O267 2.216 . S
Co266 O268 2.091 . S
Co266 O270 2.004 . S
Co266 O276 2.021 . S
Co266 O278 2.137 . S
Co266 O279 2.244 . S
O267 Co266 2.216 . S
O267 C274 1.247 . S
O268 Co266 2.091 . S
O268 C274 1.261 . S
C269 O278 1.247 . S
C269 O279 1.272 . S
O270 Co266 2.004 . S
O270 C275 1.259 . S
Co271 O272 2.061 . S
Co271 O277 2.052 . S
Co271 O279 2.135 . S
O272 Co271 2.061 . S
O272 C275 1.235 . S
C273 O276 1.238 . S
C273 O277 1.241 . S
C274 O267 1.247 . S
C274 O268 1.261 . S
C275 O270 1.259 . S
C275 O272 1.235 . S
O276 Co266 2.021 . S
O276 C273 1.238 . S
O277 Co271 2.052 . S
O277 C273 1.241 . S
O278 Co266 2.137 . S
O278 C269 1.247 . S
O279 Co266 2.244 . S
O279 C269 1.272 . S
O279 Co271 2.135 . S
Co280 O281 2.216 . S
Co280 O282 2.091 . S
Co280 O284 2.004 . S
Co280 O290 2.021 . S
Co280 O292 2.137 . S
Co280 O293 2.244 . S
O281 Co280 2.216 . S
O281 C288 1.247 . S
O282 Co280 2.091 . S
O282 C288 1.261 . S
C283 O292 1.247 . S
C283 O293 1.272 . S
O284 Co280 2.004 . S
O284 C289 1.259 . S
Co285 O286 2.061 . S
Co285 O291 2.052 . S
Co285 O293 2.135 . S
O286 Co285 2.061 . S
O286 C289 1.235 . S
C287 O290 1.238 . S
C287 O291 1.241 . S
C288 O281 1.247 . S
C288 O282 1.261 . S
C289 O284 1.259 . S
C289 O286 1.235 . S
O290 Co280 2.021 . S
O290 C287 1.238 . S
O291 Co285 2.052 . S
O291 C287 1.241 . S
O292 Co280 2.137 . S
O292 C283 1.247 . S
O293 Co280 2.244 . S
O293 C283 1.272 . S
O293 Co285 2.135 . S
Co294 O295 2.216 . S
Co294 O296 2.091 . S
Co294 O298 2.004 . S
Co294 O304 2.021 . S
Co294 O306 2.137 . S
Co294 O307 2.244 . S
O295 Co294 2.216 . S
O295 C302 1.247 . S
O296 Co294 2.091 . S
O296 C302 1.261 . S
C297 O306 1.247 . S
C297 O307 1.272 . S
O298 Co294 2.004 . S
O298 C303 1.259 . S
Co299 O300 2.061 . S
Co299 O305 2.052 . S
Co299 O307 2.135 . S
O300 Co299 2.061 . S
O300 C303 1.235 . S
C301 O304 1.238 . S
C301 O305 1.241 . S
C302 O295 1.247 . S
C302 O296 1.261 . S
C303 O298 1.259 . S
C303 O300 1.235 . S
O304 Co294 2.021 . S
O304 C301 1.238 . S
O305 Co299 2.052 . S
O305 C301 1.241 . S
O306 Co294 2.137 . S
O306 C297 1.247 . S
O307 Co294 2.244 . S
O307 C297 1.272 . S
O307 Co299 2.135 . S
Co308 O309 2.216 . S
Co308 O310 2.091 . S
Co308 O312 2.004 . S
Co308 O318 2.021 . S
Co308 O320 2.137 . S
Co308 O321 2.244 . S
O309 Co308 2.216 . S
O309 C316 1.247 . S
O310 Co308 2.091 . S
O310 C316 1.261 . S
C311 O320 1.247 . S
C311 O321 1.272 . S
O312 Co308 2.004 . S
O312 C317 1.259 . S
Co313 O314 2.061 . S
Co313 O319 2.052 . S
Co313 O321 2.135 . S
O314 Co313 2.061 . S
O314 C317 1.235 . S
C315 O318 1.238 . S
C315 O319 1.241 . S
C316 O309 1.247 . S
C316 O310 1.261 . S
C317 O312 1.259 . S
C317 O314 1.235 . S
O318 Co308 2.021 . S
O318 C315 1.238 . S
O319 Co313 2.052 . S
O319 C315 1.241 . S
O320 Co308 2.137 . S
O320 C311 1.247 . S
O321 Co308 2.244 . S
O321 C311 1.272 . S
O321 Co313 2.135 . S
Co322 O323 2.216 . S
Co322 O324 2.091 . S
Co322 O326 2.004 . S
Co322 O332 2.021 . S
Co322 O334 2.137 . S
Co322 O335 2.244 . S
O323 Co322 2.216 . S
O323 C330 1.247 . S
O324 Co322 2.091 . S
O324 C330 1.261 . S
C325 O334 1.247 . S
C325 O335 1.272 . S
O326 Co322 2.004 . S
O326 C331 1.259 . S
Co327 O328 2.061 . S
Co327 O333 2.052 . S
Co327 O335 2.135 . S
O328 Co327 2.061 . S
O328 C331 1.235 . S
C329 O332 1.238 . S
C329 O333 1.241 . S
C330 O323 1.247 . S
C330 O324 1.261 . S
C331 O326 1.259 . S
C331 O328 1.235 . S
O332 Co322 2.021 . S
O332 C329 1.238 . S
O333 Co327 2.052 . S
O333 C329 1.241 . S
O334 Co322 2.137 . S
O334 C325 1.247 . S
O335 Co322 2.244 . S
O335 C325 1.272 . S
O335 Co327 2.135 . S
Co336 O337 2.216 . S
Co336 O338 2.091 . S
Co336 O340 2.004 . S
Co336 O346 2.021 . S
Co336 O348 2.137 . S
Co336 O349 2.244 . S
O337 Co336 2.216 . S
O337 C344 1.247 . S
O338 Co336 2.091 . S
O338 C344 1.261 . S
C339 O348 1.247 . S
C339 O349 1.272 . S
O340 Co336 2.004 . S
O340 C345 1.259 . S
Co341 O342 2.061 . S
Co341 O347 2.052 . S
Co341 O349 2.135 . S
O342 Co341 2.061 . S
O342 C345 1.235 . S
C343 O346 1.238 . S
C343 O347 1.241 . S
C344 O337 1.247 . S
C344 O338 1.261 . S
C345 O340 1.259 . S
C345 O342 1.235 . S
O346 Co336 2.021 . S
O346 C343 1.238 . S
O347 Co341 2.052 . S
O347 C343 1.241 . S
O348 Co336 2.137 . S
O348 C339 1.247 . S
O349 Co336 2.244 . S
O349 C339 1.272 . S
O349 Co341 2.135 . S
Co350 O351 2.216 . S
Co350 O352 2.091 . S
Co350 O354 2.004 . S
Co350 O360 2.021 . S
Co350 O362 2.137 . S
Co350 O363 2.244 . S
O351 Co350 2.216 . S
O351 C358 1.247 . S
O352 Co350 2.091 . S
O352 C358 1.261 . S
C353 O362 1.247 . S
C353 O363 1.272 . S
O354 Co350 2.004 . S
O354 C359 1.259 . S
Co355 O356 2.061 . S
Co355 O361 2.052 . S
Co355 O363 2.135 . S
O356 Co355 2.061 . S
O356 C359 1.235 . S
C357 O360 1.238 . S
C357 O361 1.241 . S
C358 O351 1.247 . S
C358 O352 1.261 . S
C359 O354 1.259 . S
C359 O356 1.235 . S
O360 Co350 2.021 . S
O360 C357 1.238 . S
O361 Co355 2.052 . S
O361 C357 1.241 . S
O362 Co350 2.137 . S
O362 C353 1.247 . S
O363 Co350 2.244 . S
O363 C353 1.272 . S
O363 Co355 2.135 . S
Co364 O365 2.216 . S
Co364 O366 2.091 . S
Co364 O368 2.004 . S
Co364 O374 2.021 . S
Co364 O376 2.137 . S
Co364 O377 2.244 . S
O365 Co364 2.216 . S
O365 C372 1.247 . S
O366 Co364 2.091 . S
O366 C372 1.261 . S
C367 O376 1.247 . S
C367 O377 1.272 . S
O368 Co364 2.004 . S
O368 C373 1.259 . S
Co369 O370 2.061 . S
Co369 O375 2.052 . S
Co369 O377 2.135 . S
O370 Co369 2.061 . S
O370 C373 1.235 . S
C371 O374 1.238 . S
C371 O375 1.241 . S
C372 O365 1.247 . S
C372 O366 1.261 . S
C373 O368 1.259 . S
C373 O370 1.235 . S
O374 Co364 2.021 . S
O374 C371 1.238 . S
O375 Co369 2.052 . S
O375 C371 1.241 . S
O376 Co364 2.137 . S
O376 C367 1.247 . S
O377 Co364 2.244 . S
O377 C367 1.272 . S
O377 Co369 2.135 . S
Co378 O379 2.216 . S
Co378 O380 2.091 . S
Co378 O382 2.004 . S
Co378 O388 2.021 . S
Co378 O390 2.137 . S
Co378 O391 2.244 . S
O379 Co378 2.216 . S
O379 C386 1.247 . S
O380 Co378 2.091 . S
O380 C386 1.261 . S
C381 O390 1.247 . S
C381 O391 1.272 . S
O382 Co378 2.004 . S
O382 C387 1.259 . S
Co383 O384 2.061 . S
Co383 O389 2.052 . S
Co383 O391 2.135 . S
O384 Co383 2.061 . S
O384 C387 1.235 . S
C385 O388 1.238 . S
C385 O389 1.241 . S
C386 O379 1.247 . S
C386 O380 1.261 . S
C387 O382 1.259 . S
C387 O384 1.235 . S
O388 Co378 2.021 . S
O388 C385 1.238 . S
O389 Co383 2.052 . S
O389 C385 1.241 . S
O390 Co378 2.137 . S
O390 C381 1.247 . S
O391 Co378 2.244 . S
O391 C381 1.272 . S
O391 Co383 2.135 . S
Co392 O393 2.216 . S
Co392 O394 2.091 . S
Co392 O396 2.004 . S
Co392 O402 2.021 . S
Co392 O404 2.137 . S
Co392 O405 2.244 . S
O393 Co392 2.216 . S
O393 C400 1.247 . S
O394 Co392 2.091 . S
O394 C400 1.261 . S
C395 O404 1.247 . S
C395 O405 1.272 . S
O396 Co392 2.004 . S
O396 C401 1.259 . S
Co397 O398 2.061 . S
Co397 O403 2.052 . S
Co397 O405 2.135 . S
O398 Co397 2.061 . S
O398 C401 1.235 . S
C399 O402 1.238 . S
C399 O403 1.241 . S
C400 O393 1.247 . S
C400 O394 1.261 . S
C401 O396 1.259 . S
C401 O398 1.235 . S
O402 Co392 2.021 . S
O402 C399 1.238 . S
O403 Co397 2.052 . S
O403 C399 1.241 . S
O404 Co392 2.137 . S
O404 C395 1.247 . S
O405 Co392 2.244 . S
O405 C395 1.272 . S
O405 Co397 2.135 . S
Co406 O407 2.216 . S
Co406 O408 2.091 . S
Co406 O410 2.004 . S
Co406 O416 2.021 . S
Co406 O418 2.137 . S
Co406 O419 2.244 . S
O407 Co406 2.216 . S
O407 C414 1.247 . S
O408 Co406 2.091 . S
O408 C414 1.261 . S
C409 O418 1.247 . S
C409 O419 1.272 . S
O410 Co406 2.004 . S
O410 C415 1.259 . S
Co411 O412 2.061 . S
Co411 O417 2.052 . S
Co411 O419 2.135 . S
O412 Co411 2.061 . S
O412 C415 1.235 . S
C413 O416 1.238 . S
C413 O417 1.241 . S
C414 O407 1.247 . S
C414 O408 1.261 . S
C415 O410 1.259 . S
C415 O412 1.235 . S
O416 Co406 2.021 . S
O416 C413 1.238 . S
O417 Co411 2.052 . S
O417 C413 1.241 . S
O418 Co406 2.137 . S
O418 C409 1.247 . S
O419 Co406 2.244 . S
O419 C409 1.272 . S
O419 Co411 2.135 . S
Co420 O421 2.216 . S
Co420 O422 2.091 . S
Co420 O424 2.004 . S
Co420 O430 2.021 . S
Co420 O432 2.137 . S
Co420 O433 2.244 . S
O421 Co420 2.216 . S
O421 C428 1.247 . S
O422 Co420 2.091 . S
O422 C428 1.261 . S
C423 O432 1.247 . S
C423 O433 1.272 . S
O424 Co420 2.004 . S
O424 C429 1.259 . S
Co425 O426 2.061 . S
Co425 O431 2.052 . S
Co425 O433 2.135 . S
O426 Co425 2.061 . S
O426 C429 1.235 . S
C427 O430 1.238 . S
C427 O431 1.241 . S
C428 O421 1.247 . S
C428 O422 1.261 . S
C429 O424 1.259 . S
C429 O426 1.235 . S
O430 Co420 2.021 . S
O430 C427 1.238 . S
O431 Co425 2.052 . S
O431 C427 1.241 . S
O432 Co420 2.137 . S
O432 C423 1.247 . S
O433 Co420 2.244 . S
O433 C423 1.272 . S
O433 Co425 2.135 . S
Co434 O435 2.216 . S
Co434 O436 2.091 . S
Co434 O438 2.004 . S
Co434 O444 2.021 . S
Co434 O446 2.137 . S
Co434 O447 2.244 . S
O435 Co434 2.216 . S
O435 C442 1.247 . S
O436 Co434 2.091 . S
O436 C442 1.261 . S
C437 O446 1.247 . S
C437 O447 1.272 . S
O438 Co434 2.004 . S
O438 C443 1.259 . S
Co439 O440 2.061 . S
Co439 O445 2.052 . S
Co439 O447 2.135 . S
O440 Co439 2.061 . S
O440 C443 1.235 . S
C441 O444 1.238 . S
C441 O445 1.241 . S
C442 O435 1.247 . S
C442 O436 1.261 . S
C443 O438 1.259 . S
C443 O440 1.235 . S
O444 Co434 2.021 . S
O444 C441 1.238 . S
O445 Co439 2.052 . S
O445 C441 1.241 . S
O446 Co434 2.137 . S
O446 C437 1.247 . S
O447 Co434 2.244 . S
O447 C437 1.272 . S
O447 Co439 2.135 . S
Co448 O449 2.216 . S
Co448 O450 2.091 . S
Co448 O452 2.004 . S
Co448 O458 2.021 . S
Co448 O460 2.137 . S
Co448 O461 2.244 . S
O449 Co448 2.216 . S
O449 C456 1.247 . S
O450 Co448 2.091 . S
O450 C456 1.261 . S
C451 O460 1.247 . S
C451 O461 1.272 . S
O452 Co448 2.004 . S
O452 C457 1.259 . S
Co453 O454 2.061 . S
Co453 O459 2.052 . S
Co453 O461 2.135 . S
O454 Co453 2.061 . S
O454 C457 1.235 . S
C455 O458 1.238 . S
C455 O459 1.241 . S
C456 O449 1.247 . S
C456 O450 1.261 . S
C457 O452 1.259 . S
C457 O454 1.235 . S
O458 Co448 2.021 . S
O458 C455 1.238 . S
O459 Co453 2.052 . S
O459 C455 1.241 . S
O460 Co448 2.137 . S
O460 C451 1.247 . S
O461 Co448 2.244 . S
O461 C451 1.272 . S
O461 Co453 2.135 . S
Co462 O463 2.216 . S
Co462 O464 2.091 . S
Co462 O466 2.004 . S
Co462 O472 2.021 . S
Co462 O474 2.137 . S
Co462 O475 2.244 . S
O463 Co462 2.216 . S
O463 C470 1.247 . S
O464 Co462 2.091 . S
O464 C470 1.261 . S
C465 O474 1.247 . S
C465 O475 1.272 . S
O466 Co462 2.004 . S
O466 C471 1.259 . S
Co467 O468 2.061 . S
Co467 O473 2.052 . S
Co467 O475 2.135 . S
O468 Co467 2.061 . S
O468 C471 1.235 . S
C469 O472 1.238 . S
C469 O473 1.241 . S
C470 O463 1.247 . S
C470 O464 1.261 . S
C471 O466 1.259 . S
C471 O468 1.235 . S
O472 Co462 2.021 . S
O472 C469 1.238 . S
O473 Co467 2.052 . S
O473 C469 1.241 . S
O474 Co462 2.137 . S
O474 C465 1.247 . S
O475 Co462 2.244 . S
O475 C465 1.272 . S
O475 Co467 2.135 . S
Co476 O477 2.216 . S
Co476 O478 2.091 . S
Co476 O480 2.004 . S
Co476 O486 2.021 . S
Co476 O488 2.137 . S
Co476 O489 2.244 . S
O477 Co476 2.216 . S
O477 C484 1.247 . S
O478 Co476 2.091 . S
O478 C484 1.261 . S
C479 O488 1.247 . S
C479 O489 1.272 . S
O480 Co476 2.004 . S
O480 C485 1.259 . S
Co481 O482 2.061 . S
Co481 O487 2.052 . S
Co481 O489 2.135 . S
O482 Co481 2.061 . S
O482 C485 1.235 . S
C483 O486 1.238 . S
C483 O487 1.241 . S
C484 O477 1.247 . S
C484 O478 1.261 . S
C485 O480 1.259 . S
C485 O482 1.235 . S
O486 Co476 2.021 . S
O486 C483 1.238 . S
O487 Co481 2.052 . S
O487 C483 1.241 . S
O488 Co476 2.137 . S
O488 C479 1.247 . S
O489 Co476 2.244 . S
O489 C479 1.272 . S
O489 Co481 2.135 . S
Co490 O491 2.216 . S
Co490 O492 2.091 . S
Co490 O494 2.004 . S
Co490 O500 2.021 . S
Co490 O502 2.137 . S
Co490 O503 2.244 . S
O491 Co490 2.216 . S
O491 C498 1.247 . S
O492 Co490 2.091 . S
O492 C498 1.261 . S
C493 O502 1.247 . S
C493 O503 1.272 . S
O494 Co490 2.004 . S
O494 C499 1.259 . S
Co495 O496 2.061 . S
Co495 O501 2.052 . S
Co495 O503 2.135 . S
O496 Co495 2.061 . S
O496 C499 1.235 . S
C497 O500 1.238 . S
C497 O501 1.241 . S
C498 O491 1.247 . S
C498 O492 1.261 . S
C499 O494 1.259 . S
C499 O496 1.235 . S
O500 Co490 2.021 . S
O500 C497 1.238 . S
O501 Co495 2.052 . S
O501 C497 1.241 . S
O502 Co490 2.137 . S
O502 C493 1.247 . S
O503 Co490 2.244 . S
O503 C493 1.272 . S
O503 Co495 2.135 . S
Co504 O505 2.216 . S
Co504 O506 2.091 . S
Co504 O508 2.004 . S
Co504 O514 2.021 . S
Co504 O516 2.137 . S
Co504 O517 2.244 . S
O505 Co504 2.216 . S
O505 C512 1.247 . S
O506 Co504 2.091 . S
O506 C512 1.261 . S
C507 O516 1.247 . S
C507 O517 1.272 . S
O508 Co504 2.004 . S
O508 C513 1.259 . S
Co509 O510 2.061 . S
Co509 O515 2.052 . S
Co509 O517 2.135 . S
O510 Co509 2.061 . S
O510 C513 1.235 . S
C511 O514 1.238 . S
C511 O515 1.241 . S
C512 O505 1.247 . S
C512 O506 1.261 . S
C513 O508 1.259 . S
C513 O510 1.235 . S
O514 Co504 2.021 . S
O514 C511 1.238 . S
O515 Co509 2.052 . S
O515 C511 1.241 . S
O516 Co504 2.137 . S
O516 C507 1.247 . S
O517 Co504 2.244 . S
O517 C507 1.272 . S
O517 Co509 2.135 . S
Co518 O519 2.216 . S
Co518 O520 2.091 . S
Co518 O522 2.004 . S
Co518 O528 2.021 . S
Co518 O530 2.137 . S
Co518 O531 2.244 . S
O519 Co518 2.216 . S
O519 C526 1.247 . S
O520 Co518 2.091 . S
O520 C526 1.261 . S
C521 O530 1.247 . S
C521 O531 1.272 . S
O522 Co518 2.004 . S
O522 C527 1.259 . S
Co523 O524 2.061 . S
Co523 O529 2.052 . S
Co523 O531 2.135 . S
O524 Co523 2.061 . S
O524 C527 1.235 . S
C525 O528 1.238 . S
C525 O529 1.241 . S
C526 O519 1.247 . S
C526 O520 1.261 . S
C527 O522 1.259 . S
C527 O524 1.235 . S
O528 Co518 2.021 . S
O528 C525 1.238 . S
O529 Co523 2.052 . S
O529 C525 1.241 . S
O530 Co518 2.137 . S
O530 C521 1.247 . S
O531 Co518 2.244 . S
O531 C521 1.272 . S
O531 Co523 2.135 . S
Co532 O533 2.216 . S
Co532 O534 2.091 . S
Co532 O536 2.004 . S
Co532 O542 2.021 . S
Co532 O544 2.137 . S
Co532 O545 2.244 . S
O533 Co532 2.216 . S
O533 C540 1.247 . S
O534 Co532 2.091 . S
O534 C540 1.261 . S
C535 O544 1.247 . S
C535 O545 1.272 . S
O536 Co532 2.004 . S
O536 C541 1.259 . S
Co537 O538 2.061 . S
Co537 O543 2.052 . S
Co537 O545 2.135 . S
O538 Co537 2.061 . S
O538 C541 1.235 . S
C539 O542 1.238 . S
C539 O543 1.241 . S
C540 O533 1.247 . S
C540 O534 1.261 . S
C541 O536 1.259 . S
C541 O538 1.235 . S
O542 Co532 2.021 . S
O542 C539 1.238 . S
O543 Co537 2.052 . S
O543 C539 1.241 . S
O544 Co532 2.137 . S
O544 C535 1.247 . S
O545 Co532 2.244 . S
O545 C535 1.272 . S
O545 Co537 2.135 . S
Co546 O547 2.216 . S
Co546 O548 2.091 . S
Co546 O550 2.004 . S
Co546 O556 2.021 . S
Co546 O558 2.137 . S
Co546 O559 2.244 . S
O547 Co546 2.216 . S
O547 C554 1.247 . S
O548 Co546 2.091 . S
O548 C554 1.261 . S
C549 O558 1.247 . S
C549 O559 1.272 . S
O550 Co546 2.004 . S
O550 C555 1.259 . S
Co551 O552 2.061 . S
Co551 O557 2.052 . S
Co551 O559 2.135 . S
O552 Co551 2.061 . S
O552 C555 1.235 . S
C553 O556 1.238 . S
C553 O557 1.241 . S
C554 O547 1.247 . S
C554 O548 1.261 . S
C555 O550 1.259 . S
C555 O552 1.235 . S
O556 Co546 2.021 . S
O556 C553 1.238 . S
O557 Co551 2.052 . S
O557 C553 1.241 . S
O558 Co546 2.137 . S
O558 C549 1.247 . S
O559 Co546 2.244 . S
O559 C549 1.272 . S
O559 Co551 2.135 . S
Co560 O561 2.216 . S
Co560 O562 2.091 . S
Co560 O564 2.004 . S
Co560 O570 2.021 . S
Co560 O572 2.137 . S
Co560 O573 2.244 . S
O561 Co560 2.216 . S
O561 C568 1.247 . S
O562 Co560 2.091 . S
O562 C568 1.261 . S
C563 O572 1.247 . S
C563 O573 1.272 . S
O564 Co560 2.004 . S
O564 C569 1.259 . S
Co565 O566 2.061 . S
Co565 O571 2.052 . S
Co565 O573 2.135 . S
O566 Co565 2.061 . S
O566 C569 1.235 . S
C567 O570 1.238 . S
C567 O571 1.241 . S
C568 O561 1.247 . S
C568 O562 1.261 . S
C569 O564 1.259 . S
C569 O566 1.235 . S
O570 Co560 2.021 . S
O570 C567 1.238 . S
O571 Co565 2.052 . S
O571 C567 1.241 . S
O572 Co560 2.137 . S
O572 C563 1.247 . S
O573 Co560 2.244 . S
O573 C563 1.272 . S
O573 Co565 2.135 . S
Co574 O575 2.216 . S
Co574 O576 2.091 . S
Co574 O578 2.004 . S
Co574 O584 2.021 . S
Co574 O586 2.137 . S
Co574 O587 2.244 . S
O575 Co574 2.216 . S
O575 C582 1.247 . S
O576 Co574 2.091 . S
O576 C582 1.261 . S
C577 O586 1.247 . S
C577 O587 1.272 . S
O578 Co574 2.004 . S
O578 C583 1.259 . S
Co579 O580 2.061 . S
Co579 O585 2.052 . S
Co579 O587 2.135 . S
O580 Co579 2.061 . S
O580 C583 1.235 . S
C581 O584 1.238 . S
C581 O585 1.241 . S
C582 O575 1.247 . S
C582 O576 1.261 . S
C583 O578 1.259 . S
C583 O580 1.235 . S
O584 Co574 2.021 . S
O584 C581 1.238 . S
O585 Co579 2.052 . S
O585 C581 1.241 . S
O586 Co574 2.137 . S
O586 C577 1.247 . S
O587 Co574 2.244 . S
O587 C577 1.272 . S
O587 Co579 2.135 . S
Co588 O589 2.216 . S
Co588 O590 2.091 . S
Co588 O592 2.004 . S
Co588 O598 2.021 . S
Co588 O600 2.137 . S
Co588 O601 2.244 . S
O589 Co588 2.216 . S
O589 C596 1.247 . S
O590 Co588 2.091 . S
O590 C596 1.261 . S
C591 O600 1.247 . S
C591 O601 1.272 . S
O592 Co588 2.004 . S
O592 C597 1.259 . S
Co593 O594 2.061 . S
Co593 O599 2.052 . S
Co593 O601 2.135 . S
O594 Co593 2.061 . S
O594 C597 1.235 . S
C595 O598 1.238 . S
C595 O599 1.241 . S
C596 O589 1.247 . S
C596 O590 1.261 . S
C597 O592 1.259 . S
C597 O594 1.235 . S
O598 Co588 2.021 . S
O598 C595 1.238 . S
O599 Co593 2.052 . S
O599 C595 1.241 . S
O600 Co588 2.137 . S
O600 C591 1.247 . S
O601 Co588 2.244 . S
O601 C591 1.272 . S
O601 Co593 2.135 . S
Co602 O603 2.216 . S
Co602 O604 2.091 . S
Co602 O606 2.004 . S
Co602 O612 2.021 . S
Co602 O614 2.137 . S
Co602 O615 2.244 . S
O603 Co602 2.216 . S
O603 C610 1.247 . S
O604 Co602 2.091 . S
O604 C610 1.261 . S
C605 O614 1.247 . S
C605 O615 1.272 . S
O606 Co602 2.004 . S
O606 C611 1.259 . S
Co607 O608 2.061 . S
Co607 O613 2.052 . S
Co607 O615 2.135 . S
O608 Co607 2.061 . S
O608 C611 1.235 . S
C609 O612 1.238 . S
C609 O613 1.241 . S
C610 O603 1.247 . S
C610 O604 1.261 . S
C611 O606 1.259 . S
C611 O608 1.235 . S
O612 Co602 2.021 . S
O612 C609 1.238 . S
O613 Co607 2.052 . S
O613 C609 1.241 . S
O614 Co602 2.137 . S
O614 C605 1.247 . S
O615 Co602 2.244 . S
O615 C605 1.272 . S
O615 Co607 2.135 . S
Co616 O617 2.216 . S
Co616 O618 2.091 . S
Co616 O620 2.004 . S
Co616 O626 2.021 . S
Co616 O628 2.137 . S
Co616 O629 2.244 . S
O617 Co616 2.216 . S
O617 C624 1.247 . S
O618 Co616 2.091 . S
O618 C624 1.261 . S
C619 O628 1.247 . S
C619 O629 1.272 . S
O620 Co616 2.004 . S
O620 C625 1.259 . S
Co621 O622 2.061 . S
Co621 O627 2.052 . S
Co621 O629 2.135 . S
O622 Co621 2.061 . S
O622 C625 1.235 . S
C623 O626 1.238 . S
C623 O627 1.241 . S
C624 O617 1.247 . S
C624 O618 1.261 . S
C625 O620 1.259 . S
C625 O622 1.235 . S
O626 Co616 2.021 . S
O626 C623 1.238 . S
O627 Co621 2.052 . S
O627 C623 1.241 . S
O628 Co616 2.137 . S
O628 C619 1.247 . S
O629 Co616 2.244 . S
O629 C619 1.272 . S
O629 Co621 2.135 . S
Co630 O631 2.216 . S
Co630 O632 2.091 . S
Co630 O634 2.004 . S
Co630 O640 2.021 . S
Co630 O642 2.137 . S
Co630 O643 2.244 . S
O631 Co630 2.216 . S
O631 C638 1.247 . S
O632 Co630 2.091 . S
O632 C638 1.261 . S
C633 O642 1.247 . S
C633 O643 1.272 . S
O634 Co630 2.004 . S
O634 C639 1.259 . S
Co635 O636 2.061 . S
Co635 O641 2.052 . S
Co635 O643 2.135 . S
O636 Co635 2.061 . S
O636 C639 1.235 . S
C637 O640 1.238 . S
C637 O641 1.241 . S
C638 O631 1.247 . S
C638 O632 1.261 . S
C639 O634 1.259 . S
C639 O636 1.235 . S
O640 Co630 2.021 . S
O640 C637 1.238 . S
O641 Co635 2.052 . S
O641 C637 1.241 . S
O642 Co630 2.137 . S
O642 C633 1.247 . S
O643 Co630 2.244 . S
O643 C633 1.272 . S
O643 Co635 2.135 . S
Co644 O645 2.216 . S
Co644 O646 2.091 . S
Co644 O648 2.004 . S
Co644 O654 2.021 . S
Co644 O656 2.137 . S
Co644 O657 2.244 . S
O645 Co644 2.216 . S
O645 C652 1.247 . S
O646 Co644 2.091 . S
O646 C652 1.261 . S
C647 O656 1.247 . S
C647 O657 1.272 . S
O648 Co644 2.004 . S
O648 C653 1.259 . S
Co649 O650 2.061 . S
Co649 O655 2.052 . S
Co649 O657 2.135 . S
O650 Co649 2.061 . S
O650 C653 1.235 . S
C651 O654 1.238 . S
C651 O655 1.241 . S
C652 O645 1.247 . S
C652 O646 1.261 . S
C653 O648 1.259 . S
C653 O650 1.235 . S
O654 Co644 2.021 . S
O654 C651 1.238 . S
O655 Co649 2.052 . S
O655 C651 1.241 . S
O656 Co644 2.137 . S
O656 C647 1.247 . S
O657 Co644 2.244 . S
O657 C647 1.272 . S
O657 Co649 2.135 . S
Co658 O659 2.216 . S
Co658 O660 2.091 . S
Co658 O662 2.004 . S
Co658 O668 2.021 . S
Co658 O670 2.137 . S
Co658 O671 2.244 . S
O659 Co658 2.216 . S
O659 C666 1.247 . S
O660 Co658 2.091 . S
O660 C666 1.261 . S
C661 O670 1.247 . S
C661 O671 1.272 . S
O662 Co658 2.004 . S
O662 C667 1.259 . S
Co663 O664 2.061 . S
Co663 O669 2.052 . S
Co663 O671 2.135 . S
O664 Co663 2.061 . S
O664 C667 1.235 . S
C665 O668 1.238 . S
C665 O669 1.241 . S
C666 O659 1.247 . S
C666 O660 1.261 . S
C667 O662 1.259 . S
C667 O664 1.235 . S
O668 Co658 2.021 . S
O668 C665 1.238 . S
O669 Co663 2.052 . S
O669 C665 1.241 . S
O670 Co658 2.137 . S
O670 C661 1.247 . S
O671 Co658 2.244 . S
O671 C661 1.272 . S
O671 Co663 2.135 . S
C672 C673 1.349 . S
C672 C674 1.327 . S
C672 H697 0.950 . S
C673 C672 1.349 . S
C673 C689 1.349 . S
C674 C672 1.327 . S
C674 C693 1.429 . S
C674 H698 0.950 . S
C675 C692 1.574 . S
C675 C694 1.368 . S
C675 H699 0.949 . S
H676 C680 0.949 . S
C677 C678 1.349 . S
C677 C679 1.327 . S
C677 H700 0.950 . S
C678 C677 1.349 . S
C678 C690 1.349 . S
C679 C677 1.327 . S
C679 C695 1.429 . S
C679 H701 0.950 . S
C680 H676 0.949 . S
C680 C688 1.574 . S
C680 C696 1.368 . S
H681 C689 0.950 . S
H682 C687 0.950 . S
H683 C688 0.949 . S
H684 C690 0.950 . S
H685 C691 0.950 . S
H686 C692 0.949 . S
C687 H682 0.950 . S
C687 C689 1.327 . S
C687 C693 1.429 . S
C688 C680 1.574 . S
C688 H683 0.949 . S
C688 C694 1.368 . S
C689 C673 1.349 . S
C689 H681 0.950 . S
C689 C687 1.327 . S
C690 C678 1.349 . S
C690 H684 0.950 . S
C690 C691 1.327 . S
C691 H685 0.950 . S
C691 C690 1.327 . S
C691 C695 1.429 . S
C692 C675 1.574 . S
C692 H686 0.949 . S
C692 C696 1.368 . S
C693 C674 1.429 . S
C693 C687 1.429 . S
C693 C694 1.523 . S
C694 C675 1.368 . S
C694 C688 1.368 . S
C694 C693 1.523 . S
C695 C679 1.429 . S
C695 C691 1.429 . S
C695 C696 1.523 . S
C696 C680 1.368 . S
C696 C692 1.368 . S
C696 C695 1.523 . S
H697 C672 0.950 . S
H698 C674 0.950 . S
H699 C675 0.949 . S
H700 C677 0.950 . S
H701 C679 0.950 . S
C702 C703 1.349 . S
C702 C704 1.327 . S
C702 H727 0.950 . S
C703 C702 1.349 . S
C703 C719 1.349 . S
C704 C702 1.327 . S
C704 C723 1.429 . S
C704 H728 0.950 . S
C705 C722 1.574 . S
C705 C724 1.368 . S
C705 H729 0.949 . S
H706 C710 0.949 . S
C707 C708 1.349 . S
C707 C709 1.327 . S
C707 H730 0.950 . S
C708 C707 1.349 . S
C708 C720 1.349 . S
C709 C707 1.327 . S
C709 C725 1.429 . S
C709 H731 0.950 . S
C710 H706 0.949 . S
C710 C718 1.574 . S
C710 C726 1.368 . S
H711 C719 0.950 . S
H712 C717 0.950 . S
H713 C718 0.949 . S
H714 C720 0.950 . S
H715 C721 0.950 . S
H716 C722 0.949 . S
C717 H712 0.950 . S
C717 C719 1.327 . S
C717 C723 1.429 . S
C718 C710 1.574 . S
C718 H713 0.949 . S
C718 C724 1.368 . S
C719 C703 1.349 . S
C719 H711 0.950 . S
C719 C717 1.327 . S
C720 C708 1.349 . S
C720 H714 0.950 . S
C720 C721 1.327 . S
C721 H715 0.950 . S
C721 C720 1.327 . S
C721 C725 1.429 . S
C722 C705 1.574 . S
C722 H716 0.949 . S
C722 C726 1.368 . S
C723 C704 1.429 . S
C723 C717 1.429 . S
C723 C724 1.523 . S
C724 C705 1.368 . S
C724 C718 1.368 . S
C724 C723 1.523 . S
C725 C709 1.429 . S
C725 C721 1.429 . S
C725 C726 1.523 . S
C726 C710 1.368 . S
C726 C722 1.368 . S
C726 C725 1.523 . S
H727 C702 0.950 . S
H728 C704 0.950 . S
H729 C705 0.949 . S
H730 C707 0.950 . S
H731 C709 0.950 . S
C732 C733 1.349 . S
C732 C734 1.327 . S
C732 H757 0.950 . S
C733 C732 1.349 . S
C733 C749 1.349 . S
C734 C732 1.327 . S
C734 C753 1.429 . S
C734 H758 0.950 . S
C735 C752 1.574 . S
C735 C754 1.368 . S
C735 H759 0.949 . S
H736 C740 0.949 . S
C737 C738 1.349 . S
C737 C739 1.327 . S
C737 H760 0.950 . S
C738 C737 1.349 . S
C738 C750 1.349 . S
C739 C737 1.327 . S
C739 C755 1.429 . S
C739 H761 0.950 . S
C740 H736 0.949 . S
C740 C748 1.574 . S
C740 C756 1.368 . S
H741 C749 0.950 . S
H742 C747 0.950 . S
H743 C748 0.949 . S
H744 C750 0.950 . S
H745 C751 0.950 . S
H746 C752 0.949 . S
C747 H742 0.950 . S
C747 C749 1.327 . S
C747 C753 1.429 . S
C748 C740 1.574 . S
C748 H743 0.949 . S
C748 C754 1.368 . S
C749 C733 1.349 . S
C749 H741 0.950 . S
C749 C747 1.327 . S
C750 C738 1.349 . S
C750 H744 0.950 . S
C750 C751 1.327 . S
C751 H745 0.950 . S
C751 C750 1.327 . S
C751 C755 1.429 . S
C752 C735 1.574 . S
C752 H746 0.949 . S
C752 C756 1.368 . S
C753 C734 1.429 . S
C753 C747 1.429 . S
C753 C754 1.523 . S
C754 C735 1.368 . S
C754 C748 1.368 . S
C754 C753 1.523 . S
C755 C739 1.429 . S
C755 C751 1.429 . S
C755 C756 1.523 . S
C756 C740 1.368 . S
C756 C752 1.368 . S
C756 C755 1.523 . S
H757 C732 0.950 . S
H758 C734 0.950 . S
H759 C735 0.949 . S
H760 C737 0.950 . S
H761 C739 0.950 . S
C762 C763 1.349 . S
C762 C764 1.327 . S
C762 H787 0.950 . S
C763 C762 1.349 . S
C763 C779 1.349 . S
C764 C762 1.327 . S
C764 C783 1.429 . S
C764 H788 0.950 . S
C765 C782 1.574 . S
C765 C784 1.368 . S
C765 H789 0.949 . S
H766 C770 0.949 . S
C767 C768 1.349 . S
C767 C769 1.327 . S
C767 H790 0.950 . S
C768 C767 1.349 . S
C768 C780 1.349 . S
C769 C767 1.327 . S
C769 C785 1.429 . S
C769 H791 0.950 . S
C770 H766 0.949 . S
C770 C778 1.574 . S
C770 C786 1.368 . S
H771 C779 0.950 . S
H772 C777 0.950 . S
H773 C778 0.949 . S
H774 C780 0.950 . S
H775 C781 0.950 . S
H776 C782 0.949 . S
C777 H772 0.950 . S
C777 C779 1.327 . S
C777 C783 1.429 . S
C778 C770 1.574 . S
C778 H773 0.949 . S
C778 C784 1.368 . S
C779 C763 1.349 . S
C779 H771 0.950 . S
C779 C777 1.327 . S
C780 C768 1.349 . S
C780 H774 0.950 . S
C780 C781 1.327 . S
C781 H775 0.950 . S
C781 C780 1.327 . S
C781 C785 1.429 . S
C782 C765 1.574 . S
C782 H776 0.949 . S
C782 C786 1.368 . S
C783 C764 1.429 . S
C783 C777 1.429 . S
C783 C784 1.523 . S
C784 C765 1.368 . S
C784 C778 1.368 . S
C784 C783 1.523 . S
C785 C769 1.429 . S
C785 C781 1.429 . S
C785 C786 1.523 . S
C786 C770 1.368 . S
C786 C782 1.368 . S
C786 C785 1.523 . S
H787 C762 0.950 . S
H788 C764 0.950 . S
H789 C765 0.949 . S
H790 C767 0.950 . S
H791 C769 0.950 . S
C792 C793 1.349 . S
C792 C794 1.327 . S
C792 H817 0.950 . S
C793 C792 1.349 . S
C793 C809 1.349 . S
C794 C792 1.327 . S
C794 C813 1.429 . S
C794 H818 0.950 . S
C795 C812 1.574 . S
C795 C814 1.368 . S
C795 H819 0.949 . S
H796 C800 0.949 . S
C797 C798 1.349 . S
C797 C799 1.327 . S
C797 H820 0.950 . S
C798 C797 1.349 . S
C798 C810 1.349 . S
C799 C797 1.327 . S
C799 C815 1.429 . S
C799 H821 0.950 . S
C800 H796 0.949 . S
C800 C808 1.574 . S
C800 C816 1.368 . S
H801 C809 0.950 . S
H802 C807 0.950 . S
H803 C808 0.949 . S
H804 C810 0.950 . S
H805 C811 0.950 . S
H806 C812 0.949 . S
C807 H802 0.950 . S
C807 C809 1.327 . S
C807 C813 1.429 . S
C808 C800 1.574 . S
C808 H803 0.949 . S
C808 C814 1.368 . S
C809 C793 1.349 . S
C809 H801 0.950 . S
C809 C807 1.327 . S
C810 C798 1.349 . S
C810 H804 0.950 . S
C810 C811 1.327 . S
C811 H805 0.950 . S
C811 C810 1.327 . S
C811 C815 1.429 . S
C812 C795 1.574 . S
C812 H806 0.949 . S
C812 C816 1.368 . S
C813 C794 1.429 . S
C813 C807 1.429 . S
C813 C814 1.523 . S
C814 C795 1.368 . S
C814 C808 1.368 . S
C814 C813 1.523 . S
C815 C799 1.429 . S
C815 C811 1.429 . S
C815 C816 1.523 . S
C816 C800 1.368 . S
C816 C812 1.368 . S
C816 C815 1.523 . S
H817 C792 0.950 . S
H818 C794 0.950 . S
H819 C795 0.949 . S
H820 C797 0.950 . S
H821 C799 0.950 . S
C822 C823 1.349 . S
C822 C824 1.327 . S
C822 H847 0.950 . S
C823 C822 1.349 . S
C823 C839 1.349 . S
C824 C822 1.327 . S
C824 C843 1.429 . S
C824 H848 0.950 . S
C825 C842 1.574 . S
C825 C844 1.368 . S
C825 H849 0.949 . S
H826 C830 0.949 . S
C827 C828 1.349 . S
C827 C829 1.327 . S
C827 H850 0.950 . S
C828 C827 1.349 . S
C828 C840 1.349 . S
C829 C827 1.327 . S
C829 C845 1.429 . S
C829 H851 0.950 . S
C830 H826 0.949 . S
C830 C838 1.574 . S
C830 C846 1.368 . S
H831 C839 0.950 . S
H832 C837 0.950 . S
H833 C838 0.949 . S
H834 C840 0.950 . S
H835 C841 0.950 . S
H836 C842 0.949 . S
C837 H832 0.950 . S
C837 C839 1.327 . S
C837 C843 1.429 . S
C838 C830 1.574 . S
C838 H833 0.949 . S
C838 C844 1.368 . S
C839 C823 1.349 . S
C839 H831 0.950 . S
C839 C837 1.327 . S
C840 C828 1.349 . S
C840 H834 0.950 . S
C840 C841 1.327 . S
C841 H835 0.950 . S
C841 C840 1.327 . S
C841 C845 1.429 . S
C842 C825 1.574 . S
C842 H836 0.949 . S
C842 C846 1.368 . S
C843 C824 1.429 . S
C843 C837 1.429 . S
C843 C844 1.523 . S
C844 C825 1.368 . S
C844 C838 1.368 . S
C844 C843 1.523 . S
C845 C829 1.429 . S
C845 C841 1.429 . S
C845 C846 1.523 . S
C846 C830 1.368 . S
C846 C842 1.368 . S
C846 C845 1.523 . S
H847 C822 0.950 . S
H848 C824 0.950 . S
H849 C825 0.949 . S
H850 C827 0.950 . S
H851 C829 0.950 . S
C852 C853 1.349 . S
C852 C854 1.327 . S
C852 H877 0.950 . S
C853 C852 1.349 . S
C853 C869 1.349 . S
C854 C852 1.327 . S
C854 C873 1.429 . S
C854 H878 0.950 . S
C855 C872 1.574 . S
C855 C874 1.368 . S
C855 H879 0.949 . S
H856 C860 0.949 . S
C857 C858 1.349 . S
C857 C859 1.327 . S
C857 H880 0.950 . S
C858 C857 1.349 . S
C858 C870 1.349 . S
C859 C857 1.327 . S
C859 C875 1.429 . S
C859 H881 0.950 . S
C860 H856 0.949 . S
C860 C868 1.574 . S
C860 C876 1.368 . S
H861 C869 0.950 . S
H862 C867 0.950 . S
H863 C868 0.949 . S
H864 C870 0.950 . S
H865 C871 0.950 . S
H866 C872 0.949 . S
C867 H862 0.950 . S
C867 C869 1.327 . S
C867 C873 1.429 . S
C868 C860 1.574 . S
C868 H863 0.949 . S
C868 C874 1.368 . S
C869 C853 1.349 . S
C869 H861 0.950 . S
C869 C867 1.327 . S
C870 C858 1.349 . S
C870 H864 0.950 . S
C870 C871 1.327 . S
C871 H865 0.950 . S
C871 C870 1.327 . S
C871 C875 1.429 . S
C872 C855 1.574 . S
C872 H866 0.949 . S
C872 C876 1.368 . S
C873 C854 1.429 . S
C873 C867 1.429 . S
C873 C874 1.523 . S
C874 C855 1.368 . S
C874 C868 1.368 . S
C874 C873 1.523 . S
C875 C859 1.429 . S
C875 C871 1.429 . S
C875 C876 1.523 . S
C876 C860 1.368 . S
C876 C872 1.368 . S
C876 C875 1.523 . S
H877 C852 0.950 . S
H878 C854 0.950 . S
H879 C855 0.949 . S
H880 C857 0.950 . S
H881 C859 0.950 . S
C882 C883 1.349 . S
C882 C884 1.327 . S
C882 H907 0.950 . S
C883 C882 1.349 . S
C883 C899 1.349 . S
C884 C882 1.327 . S
C884 C903 1.429 . S
C884 H908 0.950 . S
C885 C902 1.574 . S
C885 C904 1.368 . S
C885 H909 0.949 . S
H886 C890 0.949 . S
C887 C888 1.349 . S
C887 C889 1.327 . S
C887 H910 0.950 . S
C888 C887 1.349 . S
C888 C900 1.349 . S
C889 C887 1.327 . S
C889 C905 1.429 . S
C889 H911 0.950 . S
C890 H886 0.949 . S
C890 C898 1.574 . S
C890 C906 1.368 . S
H891 C899 0.950 . S
H892 C897 0.950 . S
H893 C898 0.949 . S
H894 C900 0.950 . S
H895 C901 0.950 . S
H896 C902 0.949 . S
C897 H892 0.950 . S
C897 C899 1.327 . S
C897 C903 1.429 . S
C898 C890 1.574 . S
C898 H893 0.949 . S
C898 C904 1.368 . S
C899 C883 1.349 . S
C899 H891 0.950 . S
C899 C897 1.327 . S
C900 C888 1.349 . S
C900 H894 0.950 . S
C900 C901 1.327 . S
C901 H895 0.950 . S
C901 C900 1.327 . S
C901 C905 1.429 . S
C902 C885 1.574 . S
C902 H896 0.949 . S
C902 C906 1.368 . S
C903 C884 1.429 . S
C903 C897 1.429 . S
C903 C904 1.523 . S
C904 C885 1.368 . S
C904 C898 1.368 . S
C904 C903 1.523 . S
C905 C889 1.429 . S
C905 C901 1.429 . S
C905 C906 1.523 . S
C906 C890 1.368 . S
C906 C902 1.368 . S
C906 C905 1.523 . S
H907 C882 0.950 . S
H908 C884 0.950 . S
H909 C885 0.949 . S
H910 C887 0.950 . S
H911 C889 0.950 . S
C912 C913 1.349 . S
C912 C914 1.327 . S
C912 H937 0.950 . S
C913 C912 1.349 . S
C913 C929 1.349 . S
C914 C912 1.327 . S
C914 C933 1.429 . S
C914 H938 0.950 . S
C915 C932 1.574 . S
C915 C934 1.368 . S
C915 H939 0.949 . S
H916 C920 0.949 . S
C917 C918 1.349 . S
C917 C919 1.327 . S
C917 H940 0.950 . S
C918 C917 1.349 . S
C918 C930 1.349 . S
C919 C917 1.327 . S
C919 C935 1.429 . S
C919 H941 0.950 . S
C920 H916 0.949 . S
C920 C928 1.574 . S
C920 C936 1.368 . S
H921 C929 0.950 . S
H922 C927 0.950 . S
H923 C928 0.949 . S
H924 C930 0.950 . S
H925 C931 0.950 . S
H926 C932 0.949 . S
C927 H922 0.950 . S
C927 C929 1.327 . S
C927 C933 1.429 . S
C928 C920 1.574 . S
C928 H923 0.949 . S
C928 C934 1.368 . S
C929 C913 1.349 . S
C929 H921 0.950 . S
C929 C927 1.327 . S
C930 C918 1.349 . S
C930 H924 0.950 . S
C930 C931 1.327 . S
C931 H925 0.950 . S
C931 C930 1.327 . S
C931 C935 1.429 . S
C932 C915 1.574 . S
C932 H926 0.949 . S
C932 C936 1.368 . S
C933 C914 1.429 . S
C933 C927 1.429 . S
C933 C934 1.523 . S
C934 C915 1.368 . S
C934 C928 1.368 . S
C934 C933 1.523 . S
C935 C919 1.429 . S
C935 C931 1.429 . S
C935 C936 1.523 . S
C936 C920 1.368 . S
C936 C932 1.368 . S
C936 C935 1.523 . S
H937 C912 0.950 . S
H938 C914 0.950 . S
H939 C915 0.949 . S
H940 C917 0.950 . S
H941 C919 0.950 . S
C942 C943 1.349 . S
C942 C944 1.327 . S
C942 H967 0.950 . S
C943 C942 1.349 . S
C943 C959 1.349 . S
C944 C942 1.327 . S
C944 C963 1.429 . S
C944 H968 0.950 . S
C945 C962 1.574 . S
C945 C964 1.368 . S
C945 H969 0.949 . S
H946 C950 0.949 . S
C947 C948 1.349 . S
C947 C949 1.327 . S
C947 H970 0.950 . S
C948 C947 1.349 . S
C948 C960 1.349 . S
C949 C947 1.327 . S
C949 C965 1.429 . S
C949 H971 0.950 . S
C950 H946 0.949 . S
C950 C958 1.574 . S
C950 C966 1.368 . S
H951 C959 0.950 . S
H952 C957 0.950 . S
H953 C958 0.949 . S
H954 C960 0.950 . S
H955 C961 0.950 . S
H956 C962 0.949 . S
C957 H952 0.950 . S
C957 C959 1.327 . S
C957 C963 1.429 . S
C958 C950 1.574 . S
C958 H953 0.949 . S
C958 C964 1.368 . S
C959 C943 1.349 . S
C959 H951 0.950 . S
C959 C957 1.327 . S
C960 C948 1.349 . S
C960 H954 0.950 . S
C960 C961 1.327 . S
C961 H955 0.950 . S
C961 C960 1.327 . S
C961 C965 1.429 . S
C962 C945 1.574 . S
C962 H956 0.949 . S
C962 C966 1.368 . S
C963 C944 1.429 . S
C963 C957 1.429 . S
C963 C964 1.523 . S
C964 C945 1.368 . S
C964 C958 1.368 . S
C964 C963 1.523 . S
C965 C949 1.429 . S
C965 C961 1.429 . S
C965 C966 1.523 . S
C966 C950 1.368 . S
C966 C962 1.368 . S
C966 C965 1.523 . S
H967 C942 0.950 . S
H968 C944 0.950 . S
H969 C945 0.949 . S
H970 C947 0.950 . S
H971 C949 0.950 . S
C972 C973 1.349 . S
C972 C974 1.327 . S
C972 H997 0.950 . S
C973 C972 1.349 . S
C973 C989 1.349 . S
C974 C972 1.327 . S
C974 C993 1.429 . S
C974 H998 0.950 . S
C975 C992 1.574 . S
C975 C994 1.368 . S
C975 H999 0.949 . S
H976 C980 0.949 . S
C977 C978 1.349 . S
C977 C979 1.327 . S
C977 H1000 0.950 . S
C978 C977 1.349 . S
C978 C990 1.349 . S
C979 C977 1.327 . S
C979 C995 1.429 . S
C979 H1001 0.950 . S
C980 H976 0.949 . S
C980 C988 1.574 . S
C980 C996 1.368 . S
H981 C989 0.950 . S
H982 C987 0.950 . S
H983 C988 0.949 . S
H984 C990 0.950 . S
H985 C991 0.950 . S
H986 C992 0.949 . S
C987 H982 0.950 . S
C987 C989 1.327 . S
C987 C993 1.429 . S
C988 C980 1.574 . S
C988 H983 0.949 . S
C988 C994 1.368 . S
C989 C973 1.349 . S
C989 H981 0.950 . S
C989 C987 1.327 . S
C990 C978 1.349 . S
C990 H984 0.950 . S
C990 C991 1.327 . S
C991 H985 0.950 . S
C991 C990 1.327 . S
C991 C995 1.429 . S
C992 C975 1.574 . S
C992 H986 0.949 . S
C992 C996 1.368 . S
C993 C974 1.429 . S
C993 C987 1.429 . S
C993 C994 1.523 . S
C994 C975 1.368 . S
C994 C988 1.368 . S
C994 C993 1.523 . S
C995 C979 1.429 . S
C995 C991 1.429 . S
C995 C996 1.523 . S
C996 C980 1.368 . S
C996 C992 1.368 . S
C996 C995 1.523 . S
H997 C972 0.950 . S
H998 C974 0.950 . S
H999 C975 0.949 . S
H1000 C977 0.950 . S
H1001 C979 0.950 . S
C1002 C1003 1.349 . S
C1002 C1004 1.327 . S
C1002 H1027 0.950 . S
C1003 C1002 1.349 . S
C1003 C1019 1.349 . S
C1004 C1002 1.327 . S
C1004 C1023 1.429 . S
C1004 H1028 0.950 . S
C1005 C1022 1.574 . S
C1005 C1024 1.368 . S
C1005 H1029 0.949 . S
H1006 C1010 0.949 . S
C1007 C1008 1.349 . S
C1007 C1009 1.327 . S
C1007 H1030 0.950 . S
C1008 C1007 1.349 . S
C1008 C1020 1.349 . S
C1009 C1007 1.327 . S
C1009 C1025 1.429 . S
C1009 H1031 0.950 . S
C1010 H1006 0.949 . S
C1010 C1018 1.574 . S
C1010 C1026 1.368 . S
H1011 C1019 0.950 . S
H1012 C1017 0.950 . S
H1013 C1018 0.949 . S
H1014 C1020 0.950 . S
H1015 C1021 0.950 . S
H1016 C1022 0.949 . S
C1017 H1012 0.950 . S
C1017 C1019 1.327 . S
C1017 C1023 1.429 . S
C1018 C1010 1.574 . S
C1018 H1013 0.949 . S
C1018 C1024 1.368 . S
C1019 C1003 1.349 . S
C1019 H1011 0.950 . S
C1019 C1017 1.327 . S
C1020 C1008 1.349 . S
C1020 H1014 0.950 . S
C1020 C1021 1.327 . S
C1021 H1015 0.950 . S
C1021 C1020 1.327 . S
C1021 C1025 1.429 . S
C1022 C1005 1.574 . S
C1022 H1016 0.949 . S
C1022 C1026 1.368 . S
C1023 C1004 1.429 . S
C1023 C1017 1.429 . S
C1023 C1024 1.523 . S
C1024 C1005 1.368 . S
C1024 C1018 1.368 . S
C1024 C1023 1.523 . S
C1025 C1009 1.429 . S
C1025 C1021 1.429 . S
C1025 C1026 1.523 . S
C1026 C1010 1.368 . S
C1026 C1022 1.368 . S
C1026 C1025 1.523 . S
H1027 C1002 0.950 . S
H1028 C1004 0.950 . S
H1029 C1005 0.949 . S
H1030 C1007 0.950 . S
H1031 C1009 0.950 . S
C1032 C1033 1.349 . S
C1032 C1034 1.327 . S
C1032 H1057 0.950 . S
C1033 C1032 1.349 . S
C1033 C1049 1.349 . S
C1034 C1032 1.327 . S
C1034 C1053 1.429 . S
C1034 H1058 0.950 . S
C1035 C1052 1.574 . S
C1035 C1054 1.368 . S
C1035 H1059 0.949 . S
H1036 C1040 0.949 . S
C1037 C1038 1.349 . S
C1037 C1039 1.327 . S
C1037 H1060 0.950 . S
C1038 C1037 1.349 . S
C1038 C1050 1.349 . S
C1039 C1037 1.327 . S
C1039 C1055 1.429 . S
C1039 H1061 0.950 . S
C1040 H1036 0.949 . S
C1040 C1048 1.574 . S
C1040 C1056 1.368 . S
H1041 C1049 0.950 . S
H1042 C1047 0.950 . S
H1043 C1048 0.949 . S
H1044 C1050 0.950 . S
H1045 C1051 0.950 . S
H1046 C1052 0.949 . S
C1047 H1042 0.950 . S
C1047 C1049 1.327 . S
C1047 C1053 1.429 . S
C1048 C1040 1.574 . S
C1048 H1043 0.949 . S
C1048 C1054 1.368 . S
C1049 C1033 1.349 . S
C1049 H1041 0.950 . S
C1049 C1047 1.327 . S
C1050 C1038 1.349 . S
C1050 H1044 0.950 . S
C1050 C1051 1.327 . S
C1051 H1045 0.950 . S
C1051 C1050 1.327 . S
C1051 C1055 1.429 . S
C1052 C1035 1.574 . S
C1052 H1046 0.949 . S
C1052 C1056 1.368 . S
C1053 C1034 1.429 . S
C1053 C1047 1.429 . S
C1053 C1054 1.523 . S
C1054 C1035 1.368 . S
C1054 C1048 1.368 . S
C1054 C1053 1.523 . S
C1055 C1039 1.429 . S
C1055 C1051 1.429 . S
C1055 C1056 1.523 . S
C1056 C1040 1.368 . S
C1056 C1052 1.368 . S
C1056 C1055 1.523 . S
H1057 C1032 0.950 . S
H1058 C1034 0.950 . S
H1059 C1035 0.949 . S
H1060 C1037 0.950 . S
H1061 C1039 0.950 . S
C1062 C1063 1.349 . S
C1062 C1064 1.327 . S
C1062 H1087 0.950 . S
C1063 C1062 1.349 . S
C1063 C1079 1.349 . S
C1064 C1062 1.327 . S
C1064 C1083 1.429 . S
C1064 H1088 0.950 . S
C1065 C1082 1.574 . S
C1065 C1084 1.368 . S
C1065 H1089 0.949 . S
H1066 C1070 0.949 . S
C1067 C1068 1.349 . S
C1067 C1069 1.327 . S
C1067 H1090 0.950 . S
C1068 C1067 1.349 . S
C1068 C1080 1.349 . S
C1069 C1067 1.327 . S
C1069 C1085 1.429 . S
C1069 H1091 0.950 . S
C1070 H1066 0.949 . S
C1070 C1078 1.574 . S
C1070 C1086 1.368 . S
H1071 C1079 0.950 . S
H1072 C1077 0.950 . S
H1073 C1078 0.949 . S
H1074 C1080 0.950 . S
H1075 C1081 0.950 . S
H1076 C1082 0.949 . S
C1077 H1072 0.950 . S
C1077 C1079 1.327 . S
C1077 C1083 1.429 . S
C1078 C1070 1.574 . S
C1078 H1073 0.949 . S
C1078 C1084 1.368 . S
C1079 C1063 1.349 . S
C1079 H1071 0.950 . S
C1079 C1077 1.327 . S
C1080 C1068 1.349 . S
C1080 H1074 0.950 . S
C1080 C1081 1.327 . S
C1081 H1075 0.950 . S
C1081 C1080 1.327 . S
C1081 C1085 1.429 . S
C1082 C1065 1.574 . S
C1082 H1076 0.949 . S
C1082 C1086 1.368 . S
C1083 C1064 1.429 . S
C1083 C1077 1.429 . S
C1083 C1084 1.523 . S
C1084 C1065 1.368 . S
C1084 C1078 1.368 . S
C1084 C1083 1.523 . S
C1085 C1069 1.429 . S
C1085 C1081 1.429 . S
C1085 C1086 1.523 . S
C1086 C1070 1.368 . S
C1086 C1082 1.368 . S
C1086 C1085 1.523 . S
H1087 C1062 0.950 . S
H1088 C1064 0.950 . S
H1089 C1065 0.949 . S
H1090 C1067 0.950 . S
H1091 C1069 0.950 . S
C1092 C1093 1.349 . S
C1092 C1094 1.327 . S
C1092 H1117 0.950 . S
C1093 C1092 1.349 . S
C1093 C1109 1.349 . S
C1094 C1092 1.327 . S
C1094 C1113 1.429 . S
C1094 H1118 0.950 . S
C1095 C1112 1.574 . S
C1095 C1114 1.368 . S
C1095 H1119 0.949 . S
H1096 C1100 0.949 . S
C1097 C1098 1.349 . S
C1097 C1099 1.327 . S
C1097 H1120 0.950 . S
C1098 C1097 1.349 . S
C1098 C1110 1.349 . S
C1099 C1097 1.327 . S
C1099 C1115 1.429 . S
C1099 H1121 0.950 . S
C1100 H1096 0.949 . S
C1100 C1108 1.574 . S
C1100 C1116 1.368 . S
H1101 C1109 0.950 . S
H1102 C1107 0.950 . S
H1103 C1108 0.949 . S
H1104 C1110 0.950 . S
H1105 C1111 0.950 . S
H1106 C1112 0.949 . S
C1107 H1102 0.950 . S
C1107 C1109 1.327 . S
C1107 C1113 1.429 . S
C1108 C1100 1.574 . S
C1108 H1103 0.949 . S
C1108 C1114 1.368 . S
C1109 C1093 1.349 . S
C1109 H1101 0.950 . S
C1109 C1107 1.327 . S
C1110 C1098 1.349 . S
C1110 H1104 0.950 . S
C1110 C1111 1.327 . S
C1111 H1105 0.950 . S
C1111 C1110 1.327 . S
C1111 C1115 1.429 . S
C1112 C1095 1.574 . S
C1112 H1106 0.949 . S
C1112 C1116 1.368 . S
C1113 C1094 1.429 . S
C1113 C1107 1.429 . S
C1113 C1114 1.523 . S
C1114 C1095 1.368 . S
C1114 C1108 1.368 . S
C1114 C1113 1.523 . S
C1115 C1099 1.429 . S
C1115 C1111 1.429 . S
C1115 C1116 1.523 . S
C1116 C1100 1.368 . S
C1116 C1112 1.368 . S
C1116 C1115 1.523 . S
H1117 C1092 0.950 . S
H1118 C1094 0.950 . S
H1119 C1095 0.949 . S
H1120 C1097 0.950 . S
H1121 C1099 0.950 . S
C1122 C1123 1.349 . S
C1122 C1124 1.327 . S
C1122 H1147 0.950 . S
C1123 C1122 1.349 . S
C1123 C1139 1.349 . S
C1124 C1122 1.327 . S
C1124 C1143 1.429 . S
C1124 H1148 0.950 . S
C1125 C1142 1.574 . S
C1125 C1144 1.368 . S
C1125 H1149 0.949 . S
H1126 C1130 0.949 . S
C1127 C1128 1.349 . S
C1127 C1129 1.327 . S
C1127 H1150 0.950 . S
C1128 C1127 1.349 . S
C1128 C1140 1.349 . S
C1129 C1127 1.327 . S
C1129 C1145 1.429 . S
C1129 H1151 0.950 . S
C1130 H1126 0.949 . S
C1130 C1138 1.574 . S
C1130 C1146 1.368 . S
H1131 C1139 0.950 . S
H1132 C1137 0.950 . S
H1133 C1138 0.949 . S
H1134 C1140 0.950 . S
H1135 C1141 0.950 . S
H1136 C1142 0.949 . S
C1137 H1132 0.950 . S
C1137 C1139 1.327 . S
C1137 C1143 1.429 . S
C1138 C1130 1.574 . S
C1138 H1133 0.949 . S
C1138 C1144 1.368 . S
C1139 C1123 1.349 . S
C1139 H1131 0.950 . S
C1139 C1137 1.327 . S
C1140 C1128 1.349 . S
C1140 H1134 0.950 . S
C1140 C1141 1.327 . S
C1141 H1135 0.950 . S
C1141 C1140 1.327 . S
C1141 C1145 1.429 . S
C1142 C1125 1.574 . S
C1142 H1136 0.949 . S
C1142 C1146 1.368 . S
C1143 C1124 1.429 . S
C1143 C1137 1.429 . S
C1143 C1144 1.523 . S
C1144 C1125 1.368 . S
C1144 C1138 1.368 . S
C1144 C1143 1.523 . S
C1145 C1129 1.429 . S
C1145 C1141 1.429 . S
C1145 C1146 1.523 . S
C1146 C1130 1.368 . S
C1146 C1142 1.368 . S
C1146 C1145 1.523 . S
H1147 C1122 0.950 . S
H1148 C1124 0.950 . S
H1149 C1125 0.949 . S
H1150 C1127 0.950 . S
H1151 C1129 0.950 . S
C1152 C1153 1.349 . S
C1152 C1154 1.327 . S
C1152 H1177 0.950 . S
C1153 C1152 1.349 . S
C1153 C1169 1.349 . S
C1154 C1152 1.327 . S
C1154 C1173 1.429 . S
C1154 H1178 0.950 . S
C1155 C1172 1.574 . S
C1155 C1174 1.368 . S
C1155 H1179 0.949 . S
H1156 C1160 0.949 . S
C1157 C1158 1.349 . S
C1157 C1159 1.327 . S
C1157 H1180 0.950 . S
C1158 C1157 1.349 . S
C1158 C1170 1.349 . S
C1159 C1157 1.327 . S
C1159 C1175 1.429 . S
C1159 H1181 0.950 . S
C1160 H1156 0.949 . S
C1160 C1168 1.574 . S
C1160 C1176 1.368 . S
H1161 C1169 0.950 . S
H1162 C1167 0.950 . S
H1163 C1168 0.949 . S
H1164 C1170 0.950 . S
H1165 C1171 0.950 . S
H1166 C1172 0.949 . S
C1167 H1162 0.950 . S
C1167 C1169 1.327 . S
C1167 C1173 1.429 . S
C1168 C1160 1.574 . S
C1168 H1163 0.949 . S
C1168 C1174 1.368 . S
C1169 C1153 1.349 . S
C1169 H1161 0.950 . S
C1169 C1167 1.327 . S
C1170 C1158 1.349 . S
C1170 H1164 0.950 . S
C1170 C1171 1.327 . S
C1171 H1165 0.950 . S
C1171 C1170 1.327 . S
C1171 C1175 1.429 . S
C1172 C1155 1.574 . S
C1172 H1166 0.949 . S
C1172 C1176 1.368 . S
C1173 C1154 1.429 . S
C1173 C1167 1.429 . S
C1173 C1174 1.523 . S
C1174 C1155 1.368 . S
C1174 C1168 1.368 . S
C1174 C1173 1.523 . S
C1175 C1159 1.429 . S
C1175 C1171 1.429 . S
C1175 C1176 1.523 . S
C1176 C1160 1.368 . S
C1176 C1172 1.368 . S
C1176 C1175 1.523 . S
H1177 C1152 0.950 . S
H1178 C1154 0.950 . S
H1179 C1155 0.949 . S
H1180 C1157 0.950 . S
H1181 C1159 0.950 . S
C1182 C1183 1.349 . S
C1182 C1184 1.327 . S
C1182 H1207 0.950 . S
C1183 C1182 1.349 . S
C1183 C1199 1.349 . S
C1184 C1182 1.327 . S
C1184 C1203 1.429 . S
C1184 H1208 0.950 . S
C1185 C1202 1.574 . S
C1185 C1204 1.368 . S
C1185 H1209 0.949 . S
H1186 C1190 0.949 . S
C1187 C1188 1.349 . S
C1187 C1189 1.327 . S
C1187 H1210 0.950 . S
C1188 C1187 1.349 . S
C1188 C1200 1.349 . S
C1189 C1187 1.327 . S
C1189 C1205 1.429 . S
C1189 H1211 0.950 . S
C1190 H1186 0.949 . S
C1190 C1198 1.574 . S
C1190 C1206 1.368 . S
H1191 C1199 0.950 . S
H1192 C1197 0.950 . S
H1193 C1198 0.949 . S
H1194 C1200 0.950 . S
H1195 C1201 0.950 . S
H1196 C1202 0.949 . S
C1197 H1192 0.950 . S
C1197 C1199 1.327 . S
C1197 C1203 1.429 . S
C1198 C1190 1.574 . S
C1198 H1193 0.949 . S
C1198 C1204 1.368 . S
C1199 C1183 1.349 . S
C1199 H1191 0.950 . S
C1199 C1197 1.327 . S
C1200 C1188 1.349 . S
C1200 H1194 0.950 . S
C1200 C1201 1.327 . S
C1201 H1195 0.950 . S
C1201 C1200 1.327 . S
C1201 C1205 1.429 . S
C1202 C1185 1.574 . S
C1202 H1196 0.949 . S
C1202 C1206 1.368 . S
C1203 C1184 1.429 . S
C1203 C1197 1.429 . S
C1203 C1204 1.523 . S
C1204 C1185 1.368 . S
C1204 C1198 1.368 . S
C1204 C1203 1.523 . S
C1205 C1189 1.429 . S
C1205 C1201 1.429 . S
C1205 C1206 1.523 . S
C1206 C1190 1.368 . S
C1206 C1202 1.368 . S
C1206 C1205 1.523 . S
H1207 C1182 0.950 . S
H1208 C1184 0.950 . S
H1209 C1185 0.949 . S
H1210 C1187 0.950 . S
H1211 C1189 0.950 . S
C1212 C1213 1.349 . S
C1212 C1214 1.327 . S
C1212 H1237 0.950 . S
C1213 C1212 1.349 . S
C1213 C1229 1.349 . S
C1214 C1212 1.327 . S
C1214 C1233 1.429 . S
C1214 H1238 0.950 . S
C1215 C1232 1.574 . S
C1215 C1234 1.368 . S
C1215 H1239 0.949 . S
H1216 C1220 0.949 . S
C1217 C1218 1.349 . S
C1217 C1219 1.327 . S
C1217 H1240 0.950 . S
C1218 C1217 1.349 . S
C1218 C1230 1.349 . S
C1219 C1217 1.327 . S
C1219 C1235 1.429 . S
C1219 H1241 0.950 . S
C1220 H1216 0.949 . S
C1220 C1228 1.574 . S
C1220 C1236 1.368 . S
H1221 C1229 0.950 . S
H1222 C1227 0.950 . S
H1223 C1228 0.949 . S
H1224 C1230 0.950 . S
H1225 C1231 0.950 . S
H1226 C1232 0.949 . S
C1227 H1222 0.950 . S
C1227 C1229 1.327 . S
C1227 C1233 1.429 . S
C1228 C1220 1.574 . S
C1228 H1223 0.949 . S
C1228 C1234 1.368 . S
C1229 C1213 1.349 . S
C1229 H1221 0.950 . S
C1229 C1227 1.327 . S
C1230 C1218 1.349 . S
C1230 H1224 0.950 . S
C1230 C1231 1.327 . S
C1231 H1225 0.950 . S
C1231 C1230 1.327 . S
C1231 C1235 1.429 . S
C1232 C1215 1.574 . S
C1232 H1226 0.949 . S
C1232 C1236 1.368 . S
C1233 C1214 1.429 . S
C1233 C1227 1.429 . S
C1233 C1234 1.523 . S
C1234 C1215 1.368 . S
C1234 C1228 1.368 . S
C1234 C1233 1.523 . S
C1235 C1219 1.429 . S
C1235 C1231 1.429 . S
C1235 C1236 1.523 . S
C1236 C1220 1.368 . S
C1236 C1232 1.368 . S
C1236 C1235 1.523 . S
H1237 C1212 0.950 . S
H1238 C1214 0.950 . S
H1239 C1215 0.949 . S
H1240 C1217 0.950 . S
H1241 C1219 0.950 . S
C1242 C1243 1.349 . S
C1242 C1244 1.327 . S
C1242 H1267 0.950 . S
C1243 C1242 1.349 . S
C1243 C1259 1.349 . S
C1244 C1242 1.327 . S
C1244 C1263 1.429 . S
C1244 H1268 0.950 . S
C1245 C1262 1.574 . S
C1245 C1264 1.368 . S
C1245 H1269 0.949 . S
H1246 C1250 0.949 . S
C1247 C1248 1.349 . S
C1247 C1249 1.327 . S
C1247 H1270 0.950 . S
C1248 C1247 1.349 . S
C1248 C1260 1.349 . S
C1249 C1247 1.327 . S
C1249 C1265 1.429 . S
C1249 H1271 0.950 . S
C1250 H1246 0.949 . S
C1250 C1258 1.574 . S
C1250 C1266 1.368 . S
H1251 C1259 0.950 . S
H1252 C1257 0.950 . S
H1253 C1258 0.949 . S
H1254 C1260 0.950 . S
H1255 C1261 0.950 . S
H1256 C1262 0.949 . S
C1257 H1252 0.950 . S
C1257 C1259 1.327 . S
C1257 C1263 1.429 . S
C1258 C1250 1.574 . S
C1258 H1253 0.949 . S
C1258 C1264 1.368 . S
C1259 C1243 1.349 . S
C1259 H1251 0.950 . S
C1259 C1257 1.327 . S
C1260 C1248 1.349 . S
C1260 H1254 0.950 . S
C1260 C1261 1.327 . S
C1261 H1255 0.950 . S
C1261 C1260 1.327 . S
C1261 C1265 1.429 . S
C1262 C1245 1.574 . S
C1262 H1256 0.949 . S
C1262 C1266 1.368 . S
C1263 C1244 1.429 . S
C1263 C1257 1.429 . S
C1263 C1264 1.523 . S
C1264 C1245 1.368 . S
C1264 C1258 1.368 . S
C1264 C1263 1.523 . S
C1265 C1249 1.429 . S
C1265 C1261 1.429 . S
C1265 C1266 1.523 . S
C1266 C1250 1.368 . S
C1266 C1262 1.368 . S
C1266 C1265 1.523 . S
H1267 C1242 0.950 . S
H1268 C1244 0.950 . S
H1269 C1245 0.949 . S
H1270 C1247 0.950 . S
H1271 C1249 0.950 . S
C1272 C1273 1.349 . S
C1272 C1274 1.327 . S
C1272 H1297 0.950 . S
C1273 C1272 1.349 . S
C1273 C1289 1.349 . S
C1274 C1272 1.327 . S
C1274 C1293 1.429 . S
C1274 H1298 0.950 . S
C1275 C1292 1.574 . S
C1275 C1294 1.368 . S
C1275 H1299 0.949 . S
H1276 C1280 0.949 . S
C1277 C1278 1.349 . S
C1277 C1279 1.327 . S
C1277 H1300 0.950 . S
C1278 C1277 1.349 . S
C1278 C1290 1.349 . S
C1279 C1277 1.327 . S
C1279 C1295 1.429 . S
C1279 H1301 0.950 . S
C1280 H1276 0.949 . S
C1280 C1288 1.574 . S
C1280 C1296 1.368 . S
H1281 C1289 0.950 . S
H1282 C1287 0.950 . S
H1283 C1288 0.949 . S
H1284 C1290 0.950 . S
H1285 C1291 0.950 . S
H1286 C1292 0.949 . S
C1287 H1282 0.950 . S
C1287 C1289 1.327 . S
C1287 C1293 1.429 . S
C1288 C1280 1.574 . S
C1288 H1283 0.949 . S
C1288 C1294 1.368 . S
C1289 C1273 1.349 . S
C1289 H1281 0.950 . S
C1289 C1287 1.327 . S
C1290 C1278 1.349 . S
C1290 H1284 0.950 . S
C1290 C1291 1.327 . S
C1291 H1285 0.950 . S
C1291 C1290 1.327 . S
C1291 C1295 1.429 . S
C1292 C1275 1.574 . S
C1292 H1286 0.949 . S
C1292 C1296 1.368 . S
C1293 C1274 1.429 . S
C1293 C1287 1.429 . S
C1293 C1294 1.523 . S
C1294 C1275 1.368 . S
C1294 C1288 1.368 . S
C1294 C1293 1.523 . S
C1295 C1279 1.429 . S
C1295 C1291 1.429 . S
C1295 C1296 1.523 . S
C1296 C1280 1.368 . S
C1296 C1292 1.368 . S
C1296 C1295 1.523 . S
H1297 C1272 0.950 . S
H1298 C1274 0.950 . S
H1299 C1275 0.949 . S
H1300 C1277 0.950 . S
H1301 C1279 0.950 . S
C1302 C1303 1.349 . S
C1302 C1304 1.327 . S
C1302 H1327 0.950 . S
C1303 C1302 1.349 . S
C1303 C1319 1.349 . S
C1304 C1302 1.327 . S
C1304 C1323 1.429 . S
C1304 H1328 0.950 . S
C1305 C1322 1.574 . S
C1305 C1324 1.368 . S
C1305 H1329 0.949 . S
H1306 C1310 0.949 . S
C1307 C1308 1.349 . S
C1307 C1309 1.327 . S
C1307 H1330 0.950 . S
C1308 C1307 1.349 . S
C1308 C1320 1.349 . S
C1309 C1307 1.327 . S
C1309 C1325 1.429 . S
C1309 H1331 0.950 . S
C1310 H1306 0.949 . S
C1310 C1318 1.574 . S
C1310 C1326 1.368 . S
H1311 C1319 0.950 . S
H1312 C1317 0.950 . S
H1313 C1318 0.949 . S
H1314 C1320 0.950 . S
H1315 C1321 0.950 . S
H1316 C1322 0.949 . S
C1317 H1312 0.950 . S
C1317 C1319 1.327 . S
C1317 C1323 1.429 . S
C1318 C1310 1.574 . S
C1318 H1313 0.949 . S
C1318 C1324 1.368 . S
C1319 C1303 1.349 . S
C1319 H1311 0.950 . S
C1319 C1317 1.327 . S
C1320 C1308 1.349 . S
C1320 H1314 0.950 . S
C1320 C1321 1.327 . S
C1321 H1315 0.950 . S
C1321 C1320 1.327 . S
C1321 C1325 1.429 . S
C1322 C1305 1.574 . S
C1322 H1316 0.949 . S
C1322 C1326 1.368 . S
C1323 C1304 1.429 . S
C1323 C1317 1.429 . S
C1323 C1324 1.523 . S
C1324 C1305 1.368 . S
C1324 C1318 1.368 . S
C1324 C1323 1.523 . S
C1325 C1309 1.429 . S
C1325 C1321 1.429 . S
C1325 C1326 1.523 . S
C1326 C1310 1.368 . S
C1326 C1322 1.368 . S
C1326 C1325 1.523 . S
H1327 C1302 0.950 . S
H1328 C1304 0.950 . S
H1329 C1305 0.949 . S
H1330 C1307 0.950 . S
H1331 C1309 0.950 . S
C1332 C1333 1.349 . S
C1332 C1334 1.327 . S
C1332 H1357 0.950 . S
C1333 C1332 1.349 . S
C1333 C1349 1.349 . S
C1334 C1332 1.327 . S
C1334 C1353 1.429 . S
C1334 H1358 0.950 . S
C1335 C1352 1.574 . S
C1335 C1354 1.368 . S
C1335 H1359 0.949 . S
H1336 C1340 0.949 . S
C1337 C1338 1.349 . S
C1337 C1339 1.327 . S
C1337 H1360 0.950 . S
C1338 C1337 1.349 . S
C1338 C1350 1.349 . S
C1339 C1337 1.327 . S
C1339 C1355 1.429 . S
C1339 H1361 0.950 . S
C1340 H1336 0.949 . S
C1340 C1348 1.574 . S
C1340 C1356 1.368 . S
H1341 C1349 0.950 . S
H1342 C1347 0.950 . S
H1343 C1348 0.949 . S
H1344 C1350 0.950 . S
H1345 C1351 0.950 . S
H1346 C1352 0.949 . S
C1347 H1342 0.950 . S
C1347 C1349 1.327 . S
C1347 C1353 1.429 . S
C1348 C1340 1.574 . S
C1348 H1343 0.949 . S
C1348 C1354 1.368 . S
C1349 C1333 1.349 . S
C1349 H1341 0.950 . S
C1349 C1347 1.327 . S
C1350 C1338 1.349 . S
C1350 H1344 0.950 . S
C1350 C1351 1.327 . S
C1351 H1345 0.950 . S
C1351 C1350 1.327 . S
C1351 C1355 1.429 . S
C1352 C1335 1.574 . S
C1352 H1346 0.949 . S
C1352 C1356 1.368 . S
C1353 C1334 1.429 . S
C1353 C1347 1.429 . S
C1353 C1354 1.523 . S
C1354 C1335 1.368 . S
C1354 C1348 1.368 . S
C1354 C1353 1.523 . S
C1355 C1339 1.429 . S
C1355 C1351 1.429 . S
C1355 C1356 1.523 . S
C1356 C1340 1.368 . S
C1356 C1352 1.368 . S
C1356 C1355 1.523 . S
H1357 C1332 0.950 . S
H1358 C1334 0.950 . S
H1359 C1335 0.949 . S
H1360 C1337 0.950 . S
H1361 C1339 0.950 . S
C1362 C1363 1.349 . S
C1362 C1364 1.327 . S
C1362 H1387 0.950 . S
C1363 C1362 1.349 . S
C1363 C1379 1.349 . S
C1364 C1362 1.327 . S
C1364 C1383 1.429 . S
C1364 H1388 0.950 . S
C1365 C1382 1.574 . S
C1365 C1384 1.368 . S
C1365 H1389 0.949 . S
H1366 C1370 0.949 . S
C1367 C1368 1.349 . S
C1367 C1369 1.327 . S
C1367 H1390 0.950 . S
C1368 C1367 1.349 . S
C1368 C1380 1.349 . S
C1369 C1367 1.327 . S
C1369 C1385 1.429 . S
C1369 H1391 0.950 . S
C1370 H1366 0.949 . S
C1370 C1378 1.574 . S
C1370 C1386 1.368 . S
H1371 C1379 0.950 . S
H1372 C1377 0.950 . S
H1373 C1378 0.949 . S
H1374 C1380 0.950 . S
H1375 C1381 0.950 . S
H1376 C1382 0.949 . S
C1377 H1372 0.950 . S
C1377 C1379 1.327 . S
C1377 C1383 1.429 . S
C1378 C1370 1.574 . S
C1378 H1373 0.949 . S
C1378 C1384 1.368 . S
C1379 C1363 1.349 . S
C1379 H1371 0.950 . S
C1379 C1377 1.327 . S
C1380 C1368 1.349 . S
C1380 H1374 0.950 . S
C1380 C1381 1.327 . S
C1381 H1375 0.950 . S
C1381 C1380 1.327 . S
C1381 C1385 1.429 . S
C1382 C1365 1.574 . S
C1382 H1376 0.949 . S
C1382 C1386 1.368 . S
C1383 C1364 1.429 . S
C1383 C1377 1.429 . S
C1383 C1384 1.523 . S
C1384 C1365 1.368 . S
C1384 C1378 1.368 . S
C1384 C1383 1.523 . S
C1385 C1369 1.429 . S
C1385 C1381 1.429 . S
C1385 C1386 1.523 . S
C1386 C1370 1.368 . S
C1386 C1382 1.368 . S
C1386 C1385 1.523 . S
H1387 C1362 0.950 . S
H1388 C1364 0.950 . S
H1389 C1365 0.949 . S
H1390 C1367 0.950 . S
H1391 C1369 0.950 . S
C1392 C1393 1.349 . S
C1392 C1394 1.327 . S
C1392 H1417 0.950 . S
C1393 C1392 1.349 . S
C1393 C1409 1.349 . S
C1394 C1392 1.327 . S
C1394 C1413 1.429 . S
C1394 H1418 0.950 1_655 S
C1395 C1412 1.574 . S
C1395 C1414 1.368 . S
C1395 H1419 0.949 . S
H1396 C1400 0.949 . S
C1397 C1398 1.349 . S
C1397 C1399 1.327 . S
C1397 H1420 0.950 . S
C1398 C1397 1.349 . S
C1398 C1410 1.349 . S
C1399 C1397 1.327 . S
C1399 C1415 1.429 . S
C1399 H1421 0.950 1_455 S
C1400 H1396 0.949 . S
C1400 C1408 1.574 . S
C1400 C1416 1.368 . S
H1401 C1409 0.950 . S
H1402 C1407 0.950 . S
H1403 C1408 0.949 . S
H1404 C1410 0.950 . S
H1405 C1411 0.950 . S
H1406 C1412 0.949 . S
C1407 H1402 0.950 . S
C1407 C1409 1.327 . S
C1407 C1413 1.429 . S
C1408 C1400 1.574 . S
C1408 H1403 0.949 . S
C1408 C1414 1.368 1_455 S
C1409 C1393 1.349 . S
C1409 H1401 0.950 . S
C1409 C1407 1.327 . S
C1410 C1398 1.349 . S
C1410 H1404 0.950 . S
C1410 C1411 1.327 . S
C1411 H1405 0.950 . S
C1411 C1410 1.327 . S
C1411 C1415 1.429 . S
C1412 C1395 1.574 . S
C1412 H1406 0.949 . S
C1412 C1416 1.368 1_655 S
C1413 C1394 1.429 . S
C1413 C1407 1.429 . S
C1413 C1414 1.523 . S
C1414 C1395 1.368 . S
C1414 C1408 1.368 1_655 S
C1414 C1413 1.523 . S
C1415 C1399 1.429 . S
C1415 C1411 1.429 . S
C1415 C1416 1.523 . S
C1416 C1400 1.368 . S
C1416 C1412 1.368 1_455 S
C1416 C1415 1.523 . S
H1417 C1392 0.950 . S
H1418 C1394 0.950 1_455 S
H1419 C1395 0.949 . S
H1420 C1397 0.950 . S
H1421 C1399 0.950 1_655 S
C1422 C1423 1.349 . S
C1422 C1424 1.327 1_565 S
C1422 H1447 0.950 1_565 S
C1423 C1422 1.349 . S
C1423 C1439 1.349 . S
C1424 C1422 1.327 1_545 S
C1424 C1443 1.429 1_545 S
C1424 H1448 0.950 . S
C1425 C1442 1.574 . S
C1425 C1444 1.368 . S
C1425 H1449 0.949 . S
H1426 C1430 0.949 . S
C1427 C1428 1.349 . S
C1427 C1429 1.327 1_545 S
C1427 H1450 0.950 1_545 S
C1428 C1427 1.349 . S
C1428 C1440 1.349 . S
C1429 C1427 1.327 1_565 S
C1429 C1445 1.429 1_565 S
C1429 H1451 0.950 . S
C1430 H1426 0.949 . S
C1430 C1438 1.574 . S
C1430 C1446 1.368 . S
H1431 C1439 0.950 . S
H1432 C1437 0.950 . S
H1433 C1438 0.949 . S
H1434 C1440 0.950 . S
H1435 C1441 0.950 . S
H1436 C1442 0.949 . S
C1437 H1432 0.950 . S
C1437 C1439 1.327 . S
C1437 C1443 1.429 . S
C1438 C1430 1.574 . S
C1438 H1433 0.949 . S
C1438 C1444 1.368 1_545 S
C1439 C1423 1.349 . S
C1439 H1431 0.950 . S
C1439 C1437 1.327 . S
C1440 C1428 1.349 . S
C1440 H1434 0.950 . S
C1440 C1441 1.327 . S
C1441 H1435 0.950 . S
C1441 C1440 1.327 . S
C1441 C1445 1.429 . S
C1442 C1425 1.574 . S
C1442 H1436 0.949 . S
C1442 C1446 1.368 1_565 S
C1443 C1424 1.429 1_565 S
C1443 C1437 1.429 . S
C1443 C1444 1.523 . S
C1444 C1425 1.368 . S
C1444 C1438 1.368 1_565 S
C1444 C1443 1.523 . S
C1445 C1429 1.429 1_545 S
C1445 C1441 1.429 . S
C1445 C1446 1.523 . S
C1446 C1430 1.368 . S
C1446 C1442 1.368 1_545 S
C1446 C1445 1.523 . S
H1447 C1422 0.950 1_545 S
H1448 C1424 0.950 . S
H1449 C1425 0.949 . S
H1450 C1427 0.950 1_565 S
H1451 C1429 0.950 . S
C1452 C1453 1.349 . S
C1452 C1454 1.327 . S
C1452 H1477 0.950 . S
C1453 C1452 1.349 . S
C1453 C1469 1.349 . S
C1454 C1452 1.327 . S
C1454 C1473 1.429 . S
C1454 H1478 0.950 . S
C1455 C1472 1.592 . S
C1455 C1474 1.350 1_455 S
C1455 H1479 0.954 . S
H1456 C1460 0.954 . S
C1457 C1458 1.349 . S
C1457 C1459 1.327 . S
C1457 H1480 0.950 . S
C1458 C1457 1.349 . S
C1458 C1470 1.349 . S
C1459 C1457 1.327 . S
C1459 C1475 1.429 . S
C1459 H1481 0.950 . S
C1460 H1456 0.954 . S
C1460 C1468 1.592 . S
C1460 C1476 1.350 1_655 S
H1461 C1469 0.950 . S
H1462 C1467 0.950 . S
H1463 C1468 0.949 . S
H1464 C1470 0.950 . S
H1465 C1471 0.950 . S
H1466 C1472 0.949 . S
C1467 H1462 0.950 . S
C1467 C1469 1.327 . S
C1467 C1473 1.429 . S
C1468 C1460 1.592 . S
C1468 H1463 0.949 . S
C1468 C1474 1.368 . S
C1469 C1453 1.349 . S
C1469 H1461 0.950 . S
C1469 C1467 1.327 . S
C1470 C1458 1.349 . S
C1470 H1464 0.950 . S
C1470 C1471 1.327 . S
C1471 H1465 0.950 . S
C1471 C1470 1.327 . S
C1471 C1475 1.429 . S
C1472 C1455 1.592 . S
C1472 H1466 0.949 . S
C1472 C1476 1.368 . S
C1473 C1454 1.429 . S
C1473 C1467 1.429 . S
C1473 C1474 1.523 . S
C1474 C1455 1.350 1_655 S
C1474 C1468 1.368 . S
C1474 C1473 1.523 . S
C1475 C1459 1.429 . S
C1475 C1471 1.429 . S
C1475 C1476 1.523 . S
C1476 C1460 1.350 1_455 S
C1476 C1472 1.368 . S
C1476 C1475 1.523 . S
H1477 C1452 0.950 . S
H1478 C1454 0.950 . S
H1479 C1455 0.954 . S
H1480 C1457 0.950 . S
H1481 C1459 0.950 . S
C1482 C1483 1.349 . S
C1482 C1484 1.327 . S
C1482 H1507 0.950 . S
C1483 C1482 1.349 . S
C1483 C1499 1.349 . S
C1484 C1482 1.327 . S
C1484 C1503 1.429 . S
C1484 H1508 0.950 . S
C1485 C1502 1.574 . S
C1485 C1504 1.368 1_565 S
C1485 H1509 0.949 . S
H1486 C1490 0.949 . S
C1487 C1488 1.349 . S
C1487 C1489 1.327 . S
C1487 H1510 0.950 . S
C1488 C1487 1.349 . S
C1488 C1500 1.349 . S
C1489 C1487 1.327 . S
C1489 C1505 1.429 . S
C1489 H1511 0.950 . S
C1490 H1486 0.949 . S
C1490 C1498 1.574 . S
C1490 C1506 1.368 1_545 S
H1491 C1499 0.950 1_565 S
H1492 C1497 0.950 . S
H1493 C1498 0.949 . S
H1494 C1500 0.950 1_545 S
H1495 C1501 0.950 . S
H1496 C1502 0.949 . S
C1497 H1492 0.950 . S
C1497 C1499 1.327 1_565 S
C1497 C1503 1.429 1_565 S
C1498 C1490 1.574 . S
C1498 H1493 0.949 . S
C1498 C1504 1.368 . S
C1499 C1483 1.349 . S
C1499 H1491 0.950 1_545 S
C1499 C1497 1.327 1_545 S
C1500 C1488 1.349 . S
C1500 H1494 0.950 1_565 S
C1500 C1501 1.327 1_565 S
C1501 H1495 0.950 . S
C1501 C1500 1.327 1_545 S
C1501 C1505 1.429 1_545 S
C1502 C1485 1.574 . S
C1502 H1496 0.949 . S
C1502 C1506 1.368 . S
C1503 C1484 1.429 . S
C1503 C1497 1.429 1_545 S
C1503 C1504 1.523 . S
C1504 C1485 1.368 1_545 S
C1504 C1498 1.368 . S
C1504 C1503 1.523 . S
C1505 C1489 1.429 . S
C1505 C1501 1.429 1_565 S
C1505 C1506 1.523 . S
C1506 C1490 1.368 1_565 S
C1506 C1502 1.368 . S
C1506 C1505 1.523 . S
H1507 C1482 0.950 . S
H1508 C1484 0.950 . S
H1509 C1485 0.949 . S
H1510 C1487 0.950 . S
H1511 C1489 0.950 . S
C1512 C1513 1.349 . S
C1512 C1514 1.327 . S
C1512 H1537 0.950 . S
C1513 C1512 1.349 . S
C1513 C1529 1.349 . S
C1514 C1512 1.327 . S
C1514 C1533 1.429 . S
C1514 H1538 0.950 1_455 S
C1515 C1532 1.574 . S
C1515 C1534 1.368 . S
C1515 H1539 0.949 . S
H1516 C1520 0.949 . S
C1517 C1518 1.349 . S
C1517 C1519 1.327 . S
C1517 H1540 0.950 . S
C1518 C1517 1.349 . S
C1518 C1530 1.349 . S
C1519 C1517 1.327 . S
C1519 C1535 1.429 . S
C1519 H1541 0.950 1_655 S
C1520 H1516 0.949 . S
C1520 C1528 1.574 . S
C1520 C1536 1.368 . S
H1521 C1529 0.950 . S
H1522 C1527 0.950 . S
H1523 C1528 0.949 . S
H1524 C1530 0.950 . S
H1525 C1531 0.950 . S
H1526 C1532 0.949 . S
C1527 H1522 0.950 . S
C1527 C1529 1.327 . S
C1527 C1533 1.429 . S
C1528 C1520 1.574 . S
C1528 H1523 0.949 . S
C1528 C1534 1.368 1_655 S
C1529 C1513 1.349 . S
C1529 H1521 0.950 . S
C1529 C1527 1.327 . S
C1530 C1518 1.349 . S
C1530 H1524 0.950 . S
C1530 C1531 1.327 . S
C1531 H1525 0.950 . S
C1531 C1530 1.327 . S
C1531 C1535 1.429 . S
C1532 C1515 1.574 . S
C1532 H1526 0.949 . S
C1532 C1536 1.368 1_455 S
C1533 C1514 1.429 . S
C1533 C1527 1.429 . S
C1533 C1534 1.523 . S
C1534 C1515 1.368 . S
C1534 C1528 1.368 1_455 S
C1534 C1533 1.523 . S
C1535 C1519 1.429 . S
C1535 C1531 1.429 . S
C1535 C1536 1.523 . S
C1536 C1520 1.368 . S
C1536 C1532 1.368 1_655 S
C1536 C1535 1.523 . S
H1537 C1512 0.950 . S
H1538 C1514 0.950 1_655 S
H1539 C1515 0.949 . S
H1540 C1517 0.950 . S
H1541 C1519 0.950 1_455 S
C1542 C1543 1.349 . S
C1542 C1544 1.327 1_565 S
C1542 H1567 0.950 1_565 S
C1543 C1542 1.349 . S
C1543 C1559 1.349 . S
C1544 C1542 1.327 1_545 S
C1544 C1563 1.429 1_545 S
C1544 H1568 0.950 . S
C1545 C1562 1.574 . S
C1545 C1564 1.368 . S
C1545 H1569 0.949 . S
H1546 C1550 0.949 . S
C1547 C1548 1.349 . S
C1547 C1549 1.327 1_545 S
C1547 H1570 0.950 1_545 S
C1548 C1547 1.349 . S
C1548 C1560 1.349 . S
C1549 C1547 1.327 1_565 S
C1549 C1565 1.429 1_565 S
C1549 H1571 0.950 . S
C1550 H1546 0.949 . S
C1550 C1558 1.574 . S
C1550 C1566 1.368 . S
H1551 C1559 0.950 . S
H1552 C1557 0.950 . S
H1553 C1558 0.949 . S
H1554 C1560 0.950 . S
H1555 C1561 0.950 . S
H1556 C1562 0.949 . S
C1557 H1552 0.950 . S
C1557 C1559 1.327 . S
C1557 C1563 1.429 . S
C1558 C1550 1.574 . S
C1558 H1553 0.949 . S
C1558 C1564 1.368 1_545 S
C1559 C1543 1.349 . S
C1559 H1551 0.950 . S
C1559 C1557 1.327 . S
C1560 C1548 1.349 . S
C1560 H1554 0.950 . S
C1560 C1561 1.327 . S
C1561 H1555 0.950 . S
C1561 C1560 1.327 . S
C1561 C1565 1.429 . S
C1562 C1545 1.574 . S
C1562 H1556 0.949 . S
C1562 C1566 1.368 1_565 S
C1563 C1544 1.429 1_565 S
C1563 C1557 1.429 . S
C1563 C1564 1.523 . S
C1564 C1545 1.368 . S
C1564 C1558 1.368 1_565 S
C1564 C1563 1.523 . S
C1565 C1549 1.429 1_545 S
C1565 C1561 1.429 . S
C1565 C1566 1.523 . S
C1566 C1550 1.368 . S
C1566 C1562 1.368 1_545 S
C1566 C1565 1.523 . S
H1567 C1542 0.950 1_545 S
H1568 C1544 0.950 . S
H1569 C1545 0.949 . S
H1570 C1547 0.950 1_565 S
H1571 C1549 0.950 . S
C1572 C1573 1.349 . S
C1572 C1574 1.327 . S
C1572 H1597 0.950 . S
C1573 C1572 1.349 . S
C1573 C1589 1.349 . S
C1574 C1572 1.327 . S
C1574 C1593 1.429 . S
C1574 H1598 0.950 . S
C1575 C1592 1.574 . S
C1575 C1594 1.368 1_655 S
C1575 H1599 0.949 . S
H1576 C1580 0.949 . S
C1577 C1578 1.349 . S
C1577 C1579 1.327 . S
C1577 H1600 0.950 . S
C1578 C1577 1.349 . S
C1578 C1590 1.349 . S
C1579 C1577 1.327 . S
C1579 C1595 1.429 . S
C1579 H1601 0.950 . S
C1580 H1576 0.949 . S
C1580 C1588 1.574 . S
C1580 C1596 1.368 1_455 S
H1581 C1589 0.950 . S
H1582 C1587 0.950 1_655 S
H1583 C1588 0.949 . S
H1584 C1590 0.950 . S
H1585 C1591 0.950 1_455 S
H1586 C1592 0.949 . S
C1587 H1582 0.950 1_455 S
C1587 C1589 1.327 . S
C1587 C1593 1.429 . S
C1588 C1580 1.574 . S
C1588 H1583 0.949 . S
C1588 C1594 1.368 . S
C1589 C1573 1.349 . S
C1589 H1581 0.950 . S
C1589 C1587 1.327 . S
C1590 C1578 1.349 . S
C1590 H1584 0.950 . S
C1590 C1591 1.327 . S
C1591 H1585 0.950 1_655 S
C1591 C1590 1.327 . S
C1591 C1595 1.429 . S
C1592 C1575 1.574 . S
C1592 H1586 0.949 . S
C1592 C1596 1.368 . S
C1593 C1574 1.429 . S
C1593 C1587 1.429 . S
C1593 C1594 1.523 . S
C1594 C1575 1.368 1_455 S
C1594 C1588 1.368 . S
C1594 C1593 1.523 . S
C1595 C1579 1.429 . S
C1595 C1591 1.429 . S
C1595 C1596 1.523 . S
C1596 C1580 1.368 1_655 S
C1596 C1592 1.368 . S
C1596 C1595 1.523 . S
H1597 C1572 0.950 . S
H1598 C1574 0.950 . S
H1599 C1575 0.949 . S
H1600 C1577 0.950 . S
H1601 C1579 0.950 . S
C1602 C1603 1.349 . S
C1602 C1604 1.327 . S
C1602 H1627 0.950 . S
C1603 C1602 1.349 . S
C1603 C1619 1.349 . S
C1604 C1602 1.327 . S
C1604 C1623 1.429 . S
C1604 H1628 0.950 . S
C1605 C1622 1.574 . S
C1605 C1624 1.368 1_565 S
C1605 H1629 0.949 . S
H1606 C1610 0.949 . S
C1607 C1608 1.349 . S
C1607 C1609 1.327 . S
C1607 H1630 0.950 . S
C1608 C1607 1.349 . S
C1608 C1620 1.349 . S
C1609 C1607 1.327 . S
C1609 C1625 1.429 . S
C1609 H1631 0.950 . S
C1610 H1606 0.949 . S
C1610 C1618 1.574 . S
C1610 C1626 1.368 1_545 S
H1611 C1619 0.950 1_565 S
H1612 C1617 0.950 . S
H1613 C1618 0.949 . S
H1614 C1620 0.950 1_545 S
H1615 C1621 0.950 . S
H1616 C1622 0.949 . S
C1617 H1612 0.950 . S
C1617 C1619 1.327 1_565 S
C1617 C1623 1.429 1_565 S
C1618 C1610 1.574 . S
C1618 H1613 0.949 . S
C1618 C1624 1.368 . S
C1619 C1603 1.349 . S
C1619 H1611 0.950 1_545 S
C1619 C1617 1.327 1_545 S
C1620 C1608 1.349 . S
C1620 H1614 0.950 1_565 S
C1620 C1621 1.327 1_565 S
C1621 H1615 0.950 . S
C1621 C1620 1.327 1_545 S
C1621 C1625 1.429 1_545 S
C1622 C1605 1.574 . S
C1622 H1616 0.949 . S
C1622 C1626 1.368 . S
C1623 C1604 1.429 . S
C1623 C1617 1.429 1_545 S
C1623 C1624 1.523 . S
C1624 C1605 1.368 1_545 S
C1624 C1618 1.368 . S
C1624 C1623 1.523 . S
C1625 C1609 1.429 . S
C1625 C1621 1.429 1_565 S
C1625 C1626 1.523 . S
C1626 C1610 1.368 1_565 S
C1626 C1622 1.368 . S
C1626 C1625 1.523 . S
H1627 C1602 0.950 . S
H1628 C1604 0.950 . S
H1629 C1605 0.949 . S
H1630 C1607 0.950 . S
H1631 C1609 0.950 . S
C1632 C1633 1.349 . S
C1632 C1634 1.327 . S
C1632 H1657 0.950 . S
C1633 C1632 1.349 . S
C1633 C1649 1.349 . S
C1634 C1632 1.327 . S
C1634 C1653 1.429 . S
C1634 H1658 0.950 . S
C1635 C1652 1.574 . S
C1635 C1654 1.368 1_554 S
C1635 H1659 0.949 . S
H1636 C1640 0.949 . S
C1637 C1638 1.349 . S
C1637 C1639 1.327 . S
C1637 H1660 0.950 . S
C1638 C1637 1.349 . S
C1638 C1650 1.349 . S
C1639 C1637 1.327 . S
C1639 C1655 1.429 . S
C1639 H1661 0.950 . S
C1640 H1636 0.949 . S
C1640 C1648 1.574 . S
C1640 C1656 1.368 1_556 S
H1641 C1649 0.950 1_554 S
H1642 C1647 0.936 1_554 S
H1643 C1648 0.949 . S
H1644 C1650 0.950 1_556 S
H1645 C1651 0.936 1_556 S
H1646 C1652 0.949 . S
C1647 H1642 0.936 1_556 S
C1647 C1649 1.332 . S
C1647 C1653 1.437 . S
C1648 C1640 1.574 . S
C1648 H1643 0.949 . S
C1648 C1654 1.368 . S
C1649 C1633 1.349 . S
C1649 H1641 0.950 1_556 S
C1649 C1647 1.332 . S
C1650 C1638 1.349 . S
C1650 H1644 0.950 1_554 S
C1650 C1651 1.332 . S
C1651 H1645 0.936 1_554 S
C1651 C1650 1.332 . S
C1651 C1655 1.437 . S
C1652 C1635 1.574 . S
C1652 H1646 0.949 . S
C1652 C1656 1.368 . S
C1653 C1634 1.429 . S
C1653 C1647 1.437 . S
C1653 C1654 1.523 . S
C1654 C1635 1.368 1_556 S
C1654 C1648 1.368 . S
C1654 C1653 1.523 . S
C1655 C1639 1.429 . S
C1655 C1651 1.437 . S
C1655 C1656 1.523 . S
C1656 C1640 1.368 1_554 S
C1656 C1652 1.368 . S
C1656 C1655 1.523 . S
H1657 C1632 0.950 . S
H1658 C1634 0.950 . S
H1659 C1635 0.949 . S
H1660 C1637 0.950 . S
H1661 C1639 0.950 . S
C1662 C1663 1.349 . S
C1662 C1664 1.327 . S
C1662 H1687 0.950 . S
C1663 C1662 1.349 . S
C1663 C1679 1.349 . S
C1664 C1662 1.327 . S
C1664 C1683 1.429 . S
C1664 H1688 0.950 . S
C1665 C1682 1.574 . S
C1665 C1684 1.368 1_556 S
C1665 H1689 0.949 . S
H1666 C1670 0.949 . S
C1667 C1668 1.349 . S
C1667 C1669 1.327 . S
C1667 H1690 0.950 . S
C1668 C1667 1.349 . S
C1668 C1680 1.349 . S
C1669 C1667 1.327 . S
C1669 C1685 1.429 . S
C1669 H1691 0.950 . S
C1670 H1666 0.949 . S
C1670 C1678 1.574 . S
C1670 C1686 1.368 1_554 S
H1671 C1679 0.950 1_556 S
H1672 C1677 0.934 1_556 S
H1673 C1678 0.949 . S
H1674 C1680 0.950 1_554 S
H1675 C1681 0.934 1_554 S
H1676 C1682 0.949 . S
C1677 H1672 0.934 1_554 S
C1677 C1679 1.333 . S
C1677 C1683 1.439 . S
C1678 C1670 1.574 . S
C1678 H1673 0.949 . S
C1678 C1684 1.368 . S
C1679 C1663 1.349 . S
C1679 H1671 0.950 1_554 S
C1679 C1677 1.333 . S
C1680 C1668 1.349 . S
C1680 H1674 0.950 1_556 S
C1680 C1681 1.333 . S
C1681 H1675 0.934 1_556 S
C1681 C1680 1.333 . S
C1681 C1685 1.439 . S
C1682 C1665 1.574 . S
C1682 H1676 0.949 . S
C1682 C1686 1.368 . S
C1683 C1664 1.429 . S
C1683 C1677 1.439 . S
C1683 C1684 1.523 . S
C1684 C1665 1.368 1_554 S
C1684 C1678 1.368 . S
C1684 C1683 1.523 . S
C1685 C1669 1.429 . S
C1685 C1681 1.439 . S
C1685 C1686 1.523 . S
C1686 C1670 1.368 1_556 S
C1686 C1682 1.368 . S
C1686 C1685 1.523 . S
H1687 C1662 0.950 . S
H1688 C1664 0.950 . S
H1689 C1665 0.949 . S
H1690 C1667 0.950 . S
H1691 C1669 0.950 . S
C1692 C1693 1.349 . S
C1692 C1694 1.327 . S
C1692 H1717 0.950 . S
C1693 C1692 1.349 . S
C1693 C1709 1.349 . S
C1694 C1692 1.327 . S
C1694 C1713 1.429 . S
C1694 H1718 0.950 . S
C1695 C1712 1.566 1_554 S
C1695 C1714 1.368 . S
C1695 H1719 0.949 . S
H1696 C1700 0.949 . S
C1697 C1698 1.349 . S
C1697 C1699 1.327 . S
C1697 H1720 0.950 . S
C1698 C1697 1.349 . S
C1698 C1710 1.349 . S
C1699 C1697 1.327 . S
C1699 C1715 1.429 . S
C1699 H1721 0.950 . S
C1700 H1696 0.949 . S
C1700 C1708 1.566 1_556 S
C1700 C1716 1.368 . S
H1701 C1709 0.950 . S
H1702 C1707 0.950 . S
H1703 C1708 0.949 . S
H1704 C1710 0.950 . S
H1705 C1711 0.950 . S
H1706 C1712 0.949 . S
C1707 H1702 0.950 . S
C1707 C1709 1.327 . S
C1707 C1713 1.429 . S
C1708 C1700 1.566 1_554 S
C1708 H1703 0.949 . S
C1708 C1714 1.376 . S
C1709 C1693 1.349 . S
C1709 H1701 0.950 . S
C1709 C1707 1.327 . S
C1710 C1698 1.349 . S
C1710 H1704 0.950 . S
C1710 C1711 1.327 . S
C1711 H1705 0.950 . S
C1711 C1710 1.327 . S
C1711 C1715 1.429 . S
C1712 C1695 1.566 1_556 S
C1712 H1706 0.949 . S
C1712 C1716 1.376 . S
C1713 C1694 1.429 . S
C1713 C1707 1.429 . S
C1713 C1714 1.523 . S
C1714 C1695 1.368 . S
C1714 C1708 1.376 . S
C1714 C1713 1.523 . S
C1715 C1699 1.429 . S
C1715 C1711 1.429 . S
C1715 C1716 1.523 . S
C1716 C1700 1.368 . S
C1716 C1712 1.376 . S
C1716 C1715 1.523 . S
H1717 C1692 0.950 . S
H1718 C1694 0.950 . S
H1719 C1695 0.949 . S
H1720 C1697 0.950 . S
H1721 C1699 0.950 . S
C1722 C1723 1.349 . S
C1722 C1724 1.327 . S
C1722 H1747 0.950 . S
C1723 C1722 1.349 . S
C1723 C1739 1.349 . S
C1724 C1722 1.327 . S
C1724 C1743 1.429 . S
C1724 H1748 0.950 . S
C1725 C1742 1.574 . S
C1725 C1744 1.368 1_554 S
C1725 H1749 0.949 . S
H1726 C1730 0.949 . S
C1727 C1728 1.349 . S
C1727 C1729 1.327 . S
C1727 H1750 0.950 . S
C1728 C1727 1.349 . S
C1728 C1740 1.349 . S
C1729 C1727 1.327 . S
C1729 C1745 1.429 . S
C1729 H1751 0.950 . S
C1730 H1726 0.949 . S
C1730 C1738 1.574 . S
C1730 C1746 1.368 1_556 S
H1731 C1739 0.950 . S
H1732 C1737 0.950 1_554 S
H1733 C1738 0.949 . S
H1734 C1740 0.950 . S
H1735 C1741 0.950 1_556 S
H1736 C1742 0.949 . S
C1737 H1732 0.950 1_556 S
C1737 C1739 1.327 . S
C1737 C1743 1.429 . S
C1738 C1730 1.574 . S
C1738 H1733 0.949 . S
C1738 C1744 1.368 . S
C1739 C1723 1.349 . S
C1739 H1731 0.950 . S
C1739 C1737 1.327 . S
C1740 C1728 1.349 . S
C1740 H1734 0.950 . S
C1740 C1741 1.327 . S
C1741 H1735 0.950 1_554 S
C1741 C1740 1.327 . S
C1741 C1745 1.429 . S
C1742 C1725 1.574 . S
C1742 H1736 0.949 . S
C1742 C1746 1.368 . S
C1743 C1724 1.429 . S
C1743 C1737 1.429 . S
C1743 C1744 1.523 . S
C1744 C1725 1.368 1_556 S
C1744 C1738 1.368 . S
C1744 C1743 1.523 . S
C1745 C1729 1.429 . S
C1745 C1741 1.429 . S
C1745 C1746 1.523 . S
C1746 C1730 1.368 1_554 S
C1746 C1742 1.368 . S
C1746 C1745 1.523 . S
H1747 C1722 0.950 . S
H1748 C1724 0.950 . S
H1749 C1725 0.949 . S
H1750 C1727 0.950 . S
H1751 C1729 0.950 . S
C1752 C1753 1.349 . S
C1752 C1754 1.327 . S
C1752 H1777 0.950 . S
C1753 C1752 1.349 . S
C1753 C1769 1.349 . S
C1754 C1752 1.327 . S
C1754 C1773 1.429 . S
C1754 H1778 0.950 . S
C1755 C1772 1.574 . S
C1755 C1774 1.368 . S
C1755 H1779 0.949 . S
H1756 C1760 0.949 . S
C1757 C1758 1.349 . S
C1757 C1759 1.327 . S
C1757 H1780 0.950 . S
C1758 C1757 1.349 . S
C1758 C1770 1.349 . S
C1759 C1757 1.327 . S
C1759 C1775 1.429 . S
C1759 H1781 0.950 . S
C1760 H1756 0.949 . S
C1760 C1768 1.574 . S
C1760 C1776 1.368 . S
H1761 C1769 0.950 . S
H1762 C1767 0.950 . S
H1763 C1768 0.949 . S
H1764 C1770 0.950 . S
H1765 C1771 0.950 . S
H1766 C1772 0.949 . S
C1767 H1762 0.950 . S
C1767 C1769 1.327 . S
C1767 C1773 1.429 . S
C1768 C1760 1.574 . S
C1768 H1763 0.949 . S
C1768 C1774 1.368 . S
C1769 C1753 1.349 . S
C1769 H1761 0.950 . S
C1769 C1767 1.327 . S
C1770 C1758 1.349 . S
C1770 H1764 0.950 . S
C1770 C1771 1.327 . S
C1771 H1765 0.950 . S
C1771 C1770 1.327 . S
C1771 C1775 1.429 . S
C1772 C1755 1.574 . S
C1772 H1766 0.949 . S
C1772 C1776 1.368 . S
C1773 C1754 1.429 . S
C1773 C1767 1.429 . S
C1773 C1774 1.523 . S
C1774 C1755 1.368 . S
C1774 C1768 1.368 . S
C1774 C1773 1.523 . S
C1775 C1759 1.429 . S
C1775 C1771 1.429 . S
C1775 C1776 1.523 . S
C1776 C1760 1.368 . S
C1776 C1772 1.368 . S
C1776 C1775 1.523 . S
H1777 C1752 0.950 . S
H1778 C1754 0.950 . S
H1779 C1755 0.949 . S
H1780 C1757 0.950 . S
H1781 C1759 0.950 . S
C1782 C1783 1.349 . S
C1782 C1784 1.327 . S
C1782 H1807 0.950 . S
C1783 C1782 1.349 . S
C1783 C1799 1.349 . S
C1784 C1782 1.327 . S
C1784 C1803 1.429 . S
C1784 H1808 0.950 . S
C1785 C1802 1.574 . S
C1785 C1804 1.368 . S
C1785 H1809 0.949 . S
H1786 C1790 0.949 . S
C1787 C1788 1.349 . S
C1787 C1789 1.327 . S
C1787 H1810 0.950 . S
C1788 C1787 1.349 . S
C1788 C1800 1.349 . S
C1789 C1787 1.327 . S
C1789 C1805 1.429 . S
C1789 H1811 0.950 . S
C1790 H1786 0.949 . S
C1790 C1798 1.574 . S
C1790 C1806 1.368 . S
H1791 C1799 0.950 . S
H1792 C1797 0.950 . S
H1793 C1798 0.949 . S
H1794 C1800 0.950 . S
H1795 C1801 0.950 . S
H1796 C1802 0.949 . S
C1797 H1792 0.950 . S
C1797 C1799 1.327 . S
C1797 C1803 1.429 . S
C1798 C1790 1.574 . S
C1798 H1793 0.949 . S
C1798 C1804 1.368 . S
C1799 C1783 1.349 . S
C1799 H1791 0.950 . S
C1799 C1797 1.327 . S
C1800 C1788 1.349 . S
C1800 H1794 0.950 . S
C1800 C1801 1.327 . S
C1801 H1795 0.950 . S
C1801 C1800 1.327 . S
C1801 C1805 1.429 . S
C1802 C1785 1.574 . S
C1802 H1796 0.949 . S
C1802 C1806 1.368 . S
C1803 C1784 1.429 . S
C1803 C1797 1.429 . S
C1803 C1804 1.523 . S
C1804 C1785 1.368 . S
C1804 C1798 1.368 . S
C1804 C1803 1.523 . S
C1805 C1789 1.429 . S
C1805 C1801 1.429 . S
C1805 C1806 1.523 . S
C1806 C1790 1.368 . S
C1806 C1802 1.368 . S
C1806 C1805 1.523 . S
H1807 C1782 0.950 . S
H1808 C1784 0.950 . S
H1809 C1785 0.949 . S
H1810 C1787 0.950 . S
H1811 C1789 0.950 . S
C1812 C1813 1.349 . S
C1812 C1814 1.327 . S
C1812 H1837 0.950 . S
C1813 C1812 1.349 . S
C1813 C1829 1.349 . S
C1814 C1812 1.327 . S
C1814 C1833 1.429 . S
C1814 H1838 0.950 . S
C1815 C1832 1.574 . S
C1815 C1834 1.368 . S
C1815 H1839 0.949 . S
H1816 C1820 0.949 . S
C1817 C1818 1.349 . S
C1817 C1819 1.327 . S
C1817 H1840 0.950 . S
C1818 C1817 1.349 . S
C1818 C1830 1.349 . S
C1819 C1817 1.327 . S
C1819 C1835 1.429 . S
C1819 H1841 0.950 . S
C1820 H1816 0.949 . S
C1820 C1828 1.574 . S
C1820 C1836 1.368 . S
H1821 C1829 0.950 . S
H1822 C1827 0.950 . S
H1823 C1828 0.949 . S
H1824 C1830 0.950 . S
H1825 C1831 0.950 . S
H1826 C1832 0.949 . S
C1827 H1822 0.950 . S
C1827 C1829 1.327 . S
C1827 C1833 1.429 . S
C1828 C1820 1.574 . S
C1828 H1823 0.949 . S
C1828 C1834 1.368 . S
C1829 C1813 1.349 . S
C1829 H1821 0.950 . S
C1829 C1827 1.327 . S
C1830 C1818 1.349 . S
C1830 H1824 0.950 . S
C1830 C1831 1.327 . S
C1831 H1825 0.950 . S
C1831 C1830 1.327 . S
C1831 C1835 1.429 . S
C1832 C1815 1.574 . S
C1832 H1826 0.949 . S
C1832 C1836 1.368 . S
C1833 C1814 1.429 . S
C1833 C1827 1.429 . S
C1833 C1834 1.523 . S
C1834 C1815 1.368 . S
C1834 C1828 1.368 . S
C1834 C1833 1.523 . S
C1835 C1819 1.429 . S
C1835 C1831 1.429 . S
C1835 C1836 1.523 . S
C1836 C1820 1.368 . S
C1836 C1832 1.368 . S
C1836 C1835 1.523 . S
H1837 C1812 0.950 . S
H1838 C1814 0.950 . S
H1839 C1815 0.949 . S
H1840 C1817 0.950 . S
H1841 C1819 0.950 . S
C1842 C1843 1.349 . S
C1842 C1844 1.327 . S
C1842 H1867 0.950 . S
C1843 C1842 1.349 . S
C1843 C1859 1.349 . S
C1844 C1842 1.327 . S
C1844 C1863 1.429 . S
C1844 H1868 0.950 . S
C1845 C1862 1.574 . S
C1845 C1864 1.368 . S
C1845 H1869 0.949 . S
H1846 C1850 0.949 . S
C1847 C1848 1.349 . S
C1847 C1849 1.327 . S
C1847 H1870 0.950 . S
C1848 C1847 1.349 . S
C1848 C1860 1.349 . S
C1849 C1847 1.327 . S
C1849 C1865 1.429 . S
C1849 H1871 0.950 . S
C1850 H1846 0.949 . S
C1850 C1858 1.574 . S
C1850 C1866 1.368 . S
H1851 C1859 0.950 . S
H1852 C1857 0.950 . S
H1853 C1858 0.949 . S
H1854 C1860 0.950 . S
H1855 C1861 0.950 . S
H1856 C1862 0.949 . S
C1857 H1852 0.950 . S
C1857 C1859 1.327 . S
C1857 C1863 1.429 . S
C1858 C1850 1.574 . S
C1858 H1853 0.949 . S
C1858 C1864 1.368 . S
C1859 C1843 1.349 . S
C1859 H1851 0.950 . S
C1859 C1857 1.327 . S
C1860 C1848 1.349 . S
C1860 H1854 0.950 . S
C1860 C1861 1.327 . S
C1861 H1855 0.950 . S
C1861 C1860 1.327 . S
C1861 C1865 1.429 . S
C1862 C1845 1.574 . S
C1862 H1856 0.949 . S
C1862 C1866 1.368 . S
C1863 C1844 1.429 . S
C1863 C1857 1.429 . S
C1863 C1864 1.523 . S
C1864 C1845 1.368 . S
C1864 C1858 1.368 . S
C1864 C1863 1.523 . S
C1865 C1849 1.429 . S
C1865 C1861 1.429 . S
C1865 C1866 1.523 . S
C1866 C1850 1.368 . S
C1866 C1862 1.368 . S
C1866 C1865 1.523 . S
H1867 C1842 0.950 . S
H1868 C1844 0.950 . S
H1869 C1845 0.949 . S
H1870 C1847 0.950 . S
H1871 C1849 0.950 . S
C1872 C1873 1.349 . S
C1872 C1874 1.327 . S
C1872 H1897 0.950 . S
C1873 C1872 1.349 . S
C1873 C1889 1.349 . S
C1874 C1872 1.327 . S
C1874 C1893 1.429 . S
C1874 H1898 0.950 . S
C1875 C1892 1.574 . S
C1875 C1894 1.368 . S
C1875 H1899 0.949 . S
H1876 C1880 0.949 . S
C1877 C1878 1.349 . S
C1877 C1879 1.327 . S
C1877 H1900 0.950 . S
C1878 C1877 1.349 . S
C1878 C1890 1.349 . S
C1879 C1877 1.327 . S
C1879 C1895 1.429 . S
C1879 H1901 0.950 . S
C1880 H1876 0.949 . S
C1880 C1888 1.574 . S
C1880 C1896 1.368 . S
H1881 C1889 0.950 . S
H1882 C1887 0.950 . S
H1883 C1888 0.949 . S
H1884 C1890 0.950 . S
H1885 C1891 0.950 . S
H1886 C1892 0.949 . S
C1887 H1882 0.950 . S
C1887 C1889 1.327 . S
C1887 C1893 1.429 . S
C1888 C1880 1.574 . S
C1888 H1883 0.949 . S
C1888 C1894 1.368 . S
C1889 C1873 1.349 . S
C1889 H1881 0.950 . S
C1889 C1887 1.327 . S
C1890 C1878 1.349 . S
C1890 H1884 0.950 . S
C1890 C1891 1.327 . S
C1891 H1885 0.950 . S
C1891 C1890 1.327 . S
C1891 C1895 1.429 . S
C1892 C1875 1.574 . S
C1892 H1886 0.949 . S
C1892 C1896 1.368 . S
C1893 C1874 1.429 . S
C1893 C1887 1.429 . S
C1893 C1894 1.523 . S
C1894 C1875 1.368 . S
C1894 C1888 1.368 . S
C1894 C1893 1.523 . S
C1895 C1879 1.429 . S
C1895 C1891 1.429 . S
C1895 C1896 1.523 . S
C1896 C1880 1.368 . S
C1896 C1892 1.368 . S
C1896 C1895 1.523 . S
H1897 C1872 0.950 . S
H1898 C1874 0.950 . S
H1899 C1875 0.949 . S
H1900 C1877 0.950 . S
H1901 C1879 0.950 . S
C1902 C1903 1.349 . S
C1902 C1904 1.327 . S
C1902 H1927 0.950 . S
C1903 C1902 1.349 . S
C1903 C1919 1.349 . S
C1904 C1902 1.327 . S
C1904 C1923 1.429 . S
C1904 H1928 0.950 . S
C1905 C1922 1.574 . S
C1905 C1924 1.368 . S
C1905 H1929 0.949 . S
H1906 C1910 0.949 . S
C1907 C1908 1.349 . S
C1907 C1909 1.327 . S
C1907 H1930 0.950 . S
C1908 C1907 1.349 . S
C1908 C1920 1.349 . S
C1909 C1907 1.327 . S
C1909 C1925 1.429 . S
C1909 H1931 0.950 . S
C1910 H1906 0.949 . S
C1910 C1918 1.574 . S
C1910 C1926 1.368 . S
H1911 C1919 0.950 . S
H1912 C1917 0.950 . S
H1913 C1918 0.949 . S
H1914 C1920 0.950 . S
H1915 C1921 0.950 . S
H1916 C1922 0.949 . S
C1917 H1912 0.950 . S
C1917 C1919 1.327 . S
C1917 C1923 1.429 . S
C1918 C1910 1.574 . S
C1918 H1913 0.949 . S
C1918 C1924 1.368 . S
C1919 C1903 1.349 . S
C1919 H1911 0.950 . S
C1919 C1917 1.327 . S
C1920 C1908 1.349 . S
C1920 H1914 0.950 . S
C1920 C1921 1.327 . S
C1921 H1915 0.950 . S
C1921 C1920 1.327 . S
C1921 C1925 1.429 . S
C1922 C1905 1.574 . S
C1922 H1916 0.949 . S
C1922 C1926 1.368 . S
C1923 C1904 1.429 . S
C1923 C1917 1.429 . S
C1923 C1924 1.523 . S
C1924 C1905 1.368 . S
C1924 C1918 1.368 . S
C1924 C1923 1.523 . S
C1925 C1909 1.429 . S
C1925 C1921 1.429 . S
C1925 C1926 1.523 . S
C1926 C1910 1.368 . S
C1926 C1922 1.368 . S
C1926 C1925 1.523 . S
H1927 C1902 0.950 . S
H1928 C1904 0.950 . S
H1929 C1905 0.949 . S
H1930 C1907 0.950 . S
H1931 C1909 0.950 . S
C1932 C1933 1.349 . S
C1932 C1934 1.327 . S
C1932 H1957 0.950 . S
C1933 C1932 1.349 . S
C1933 C1949 1.349 . S
C1934 C1932 1.327 . S
C1934 C1953 1.429 . S
C1934 H1958 0.950 . S
C1935 C1952 1.574 . S
C1935 C1954 1.368 . S
C1935 H1959 0.949 . S
H1936 C1940 0.949 . S
C1937 C1938 1.349 . S
C1937 C1939 1.327 . S
C1937 H1960 0.950 . S
C1938 C1937 1.349 . S
C1938 C1950 1.349 . S
C1939 C1937 1.327 . S
C1939 C1955 1.429 . S
C1939 H1961 0.950 . S
C1940 H1936 0.949 . S
C1940 C1948 1.574 . S
C1940 C1956 1.368 . S
H1941 C1949 0.950 . S
H1942 C1947 0.950 . S
H1943 C1948 0.949 . S
H1944 C1950 0.950 . S
H1945 C1951 0.950 . S
H1946 C1952 0.949 . S
C1947 H1942 0.950 . S
C1947 C1949 1.327 . S
C1947 C1953 1.429 . S
C1948 C1940 1.574 . S
C1948 H1943 0.949 . S
C1948 C1954 1.368 . S
C1949 C1933 1.349 . S
C1949 H1941 0.950 . S
C1949 C1947 1.327 . S
C1950 C1938 1.349 . S
C1950 H1944 0.950 . S
C1950 C1951 1.327 . S
C1951 H1945 0.950 . S
C1951 C1950 1.327 . S
C1951 C1955 1.429 . S
C1952 C1935 1.574 . S
C1952 H1946 0.949 . S
C1952 C1956 1.368 . S
C1953 C1934 1.429 . S
C1953 C1947 1.429 . S
C1953 C1954 1.523 . S
C1954 C1935 1.368 . S
C1954 C1948 1.368 . S
C1954 C1953 1.523 . S
C1955 C1939 1.429 . S
C1955 C1951 1.429 . S
C1955 C1956 1.523 . S
C1956 C1940 1.368 . S
C1956 C1952 1.368 . S
C1956 C1955 1.523 . S
H1957 C1932 0.950 . S
H1958 C1934 0.950 . S
H1959 C1935 0.949 . S
H1960 C1937 0.950 . S
H1961 C1939 0.950 . S
C1962 C1963 1.349 . S
C1962 C1964 1.327 . S
C1962 H1987 0.950 . S
C1963 C1962 1.349 . S
C1963 C1979 1.349 . S
C1964 C1962 1.327 . S
C1964 C1983 1.429 . S
C1964 H1988 0.950 . S
C1965 C1982 1.574 . S
C1965 C1984 1.368 . S
C1965 H1989 0.949 . S
H1966 C1970 0.949 . S
C1967 C1968 1.349 . S
C1967 C1969 1.327 . S
C1967 H1990 0.950 . S
C1968 C1967 1.349 . S
C1968 C1980 1.349 . S
C1969 C1967 1.327 . S
C1969 C1985 1.429 . S
C1969 H1991 0.950 . S
C1970 H1966 0.949 . S
C1970 C1978 1.574 . S
C1970 C1986 1.368 . S
H1971 C1979 0.950 . S
H1972 C1977 0.950 . S
H1973 C1978 0.949 . S
H1974 C1980 0.950 . S
H1975 C1981 0.950 . S
H1976 C1982 0.949 . S
C1977 H1972 0.950 . S
C1977 C1979 1.327 . S
C1977 C1983 1.429 . S
C1978 C1970 1.574 . S
C1978 H1973 0.949 . S
C1978 C1984 1.368 . S
C1979 C1963 1.349 . S
C1979 H1971 0.950 . S
C1979 C1977 1.327 . S
C1980 C1968 1.349 . S
C1980 H1974 0.950 . S
C1980 C1981 1.327 . S
C1981 H1975 0.950 . S
C1981 C1980 1.327 . S
C1981 C1985 1.429 . S
C1982 C1965 1.574 . S
C1982 H1976 0.949 . S
C1982 C1986 1.368 . S
C1983 C1964 1.429 . S
C1983 C1977 1.429 . S
C1983 C1984 1.523 . S
C1984 C1965 1.368 . S
C1984 C1978 1.368 . S
C1984 C1983 1.523 . S
C1985 C1969 1.429 . S
C1985 C1981 1.429 . S
C1985 C1986 1.523 . S
C1986 C1970 1.368 . S
C1986 C1982 1.368 . S
C1986 C1985 1.523 . S
H1987 C1962 0.950 . S
H1988 C1964 0.950 . S
H1989 C1965 0.949 . S
H1990 C1967 0.950 . S
H1991 C1969 0.950 . S
C1992 C1993 1.349 . S
C1992 C1994 1.327 . S
C1992 H2017 0.950 . S
C1993 C1992 1.349 . S
C1993 C2009 1.349 . S
C1994 C1992 1.327 . S
C1994 C2013 1.429 . S
C1994 H2018 0.950 . S
C1995 C2012 1.574 . S
C1995 C2014 1.368 . S
C1995 H2019 0.949 . S
H1996 C2000 0.949 . S
C1997 C1998 1.349 . S
C1997 C1999 1.327 . S
C1997 H2020 0.950 . S
C1998 C1997 1.349 . S
C1998 C2010 1.349 . S
C1999 C1997 1.327 . S
C1999 C2015 1.429 . S
C1999 H2021 0.950 . S
C2000 H1996 0.949 . S
C2000 C2008 1.574 . S
C2000 C2016 1.368 . S
H2001 C2009 0.950 . S
H2002 C2007 0.950 . S
H2003 C2008 0.949 . S
H2004 C2010 0.950 . S
H2005 C2011 0.950 . S
H2006 C2012 0.949 . S
C2007 H2002 0.950 . S
C2007 C2009 1.327 . S
C2007 C2013 1.429 . S
C2008 C2000 1.574 . S
C2008 H2003 0.949 . S
C2008 C2014 1.368 . S
C2009 C1993 1.349 . S
C2009 H2001 0.950 . S
C2009 C2007 1.327 . S
C2010 C1998 1.349 . S
C2010 H2004 0.950 . S
C2010 C2011 1.327 . S
C2011 H2005 0.950 . S
C2011 C2010 1.327 . S
C2011 C2015 1.429 . S
C2012 C1995 1.574 . S
C2012 H2006 0.949 . S
C2012 C2016 1.368 . S
C2013 C1994 1.429 . S
C2013 C2007 1.429 . S
C2013 C2014 1.523 . S
C2014 C1995 1.368 . S
C2014 C2008 1.368 . S
C2014 C2013 1.523 . S
C2015 C1999 1.429 . S
C2015 C2011 1.429 . S
C2015 C2016 1.523 . S
C2016 C2000 1.368 . S
C2016 C2012 1.368 . S
C2016 C2015 1.523 . S
H2017 C1992 0.950 . S
H2018 C1994 0.950 . S
H2019 C1995 0.949 . S
H2020 C1997 0.950 . S
H2021 C1999 0.950 . S
C2022 C2023 1.349 . S
C2022 C2024 1.327 . S
C2022 H2047 0.950 . S
C2023 C2022 1.349 . S
C2023 C2039 1.349 . S
C2024 C2022 1.327 . S
C2024 C2043 1.429 . S
C2024 H2048 0.950 . S
C2025 C2042 1.574 . S
C2025 C2044 1.368 . S
C2025 H2049 0.949 . S
H2026 C2030 0.949 . S
C2027 C2028 1.349 . S
C2027 C2029 1.327 . S
C2027 H2050 0.950 . S
C2028 C2027 1.349 . S
C2028 C2040 1.349 . S
C2029 C2027 1.327 . S
C2029 C2045 1.429 . S
C2029 H2051 0.950 . S
C2030 H2026 0.949 . S
C2030 C2038 1.574 . S
C2030 C2046 1.368 . S
H2031 C2039 0.950 . S
H2032 C2037 0.950 . S
H2033 C2038 0.949 . S
H2034 C2040 0.950 . S
H2035 C2041 0.950 . S
H2036 C2042 0.949 . S
C2037 H2032 0.950 . S
C2037 C2039 1.327 . S
C2037 C2043 1.429 . S
C2038 C2030 1.574 . S
C2038 H2033 0.949 . S
C2038 C2044 1.368 . S
C2039 C2023 1.349 . S
C2039 H2031 0.950 . S
C2039 C2037 1.327 . S
C2040 C2028 1.349 . S
C2040 H2034 0.950 . S
C2040 C2041 1.327 . S
C2041 H2035 0.950 . S
C2041 C2040 1.327 . S
C2041 C2045 1.429 . S
C2042 C2025 1.574 . S
C2042 H2036 0.949 . S
C2042 C2046 1.368 . S
C2043 C2024 1.429 . S
C2043 C2037 1.429 . S
C2043 C2044 1.523 . S
C2044 C2025 1.368 . S
C2044 C2038 1.368 . S
C2044 C2043 1.523 . S
C2045 C2029 1.429 . S
C2045 C2041 1.429 . S
C2045 C2046 1.523 . S
C2046 C2030 1.368 . S
C2046 C2042 1.368 . S
C2046 C2045 1.523 . S
H2047 C2022 0.950 . S
H2048 C2024 0.950 . S
H2049 C2025 0.949 . S
H2050 C2027 0.950 . S
H2051 C2029 0.950 . S
C2052 C2053 1.349 . S
C2052 C2054 1.327 . S
C2052 H2077 0.950 . S
C2053 C2052 1.349 . S
C2053 C2069 1.349 . S
C2054 C2052 1.327 . S
C2054 C2073 1.429 . S
C2054 H2078 0.950 . S
C2055 C2072 1.574 . S
C2055 C2074 1.368 . S
C2055 H2079 0.949 . S
H2056 C2060 0.949 . S
C2057 C2058 1.349 . S
C2057 C2059 1.327 . S
C2057 H2080 0.950 . S
C2058 C2057 1.349 . S
C2058 C2070 1.349 . S
C2059 C2057 1.327 . S
C2059 C2075 1.429 . S
C2059 H2081 0.950 . S
C2060 H2056 0.949 . S
C2060 C2068 1.574 . S
C2060 C2076 1.368 . S
H2061 C2069 0.950 . S
H2062 C2067 0.950 . S
H2063 C2068 0.949 . S
H2064 C2070 0.950 . S
H2065 C2071 0.950 . S
H2066 C2072 0.949 . S
C2067 H2062 0.950 . S
C2067 C2069 1.327 . S
C2067 C2073 1.429 . S
C2068 C2060 1.574 . S
C2068 H2063 0.949 . S
C2068 C2074 1.368 . S
C2069 C2053 1.349 . S
C2069 H2061 0.950 . S
C2069 C2067 1.327 . S
C2070 C2058 1.349 . S
C2070 H2064 0.950 . S
C2070 C2071 1.327 . S
C2071 H2065 0.950 . S
C2071 C2070 1.327 . S
C2071 C2075 1.429 . S
C2072 C2055 1.574 . S
C2072 H2066 0.949 . S
C2072 C2076 1.368 . S
C2073 C2054 1.429 . S
C2073 C2067 1.429 . S
C2073 C2074 1.523 . S
C2074 C2055 1.368 . S
C2074 C2068 1.368 . S
C2074 C2073 1.523 . S
C2075 C2059 1.429 . S
C2075 C2071 1.429 . S
C2075 C2076 1.523 . S
C2076 C2060 1.368 . S
C2076 C2072 1.368 . S
C2076 C2075 1.523 . S
H2077 C2052 0.950 . S
H2078 C2054 0.950 . S
H2079 C2055 0.949 . S
H2080 C2057 0.950 . S
H2081 C2059 0.950 . S
C2082 C2083 1.349 . S
C2082 C2084 1.327 . S
C2082 H2107 0.950 . S
C2083 C2082 1.349 . S
C2083 C2099 1.349 . S
C2084 C2082 1.327 . S
C2084 C2103 1.429 . S
C2084 H2108 0.950 . S
C2085 C2102 1.574 . S
C2085 C2104 1.368 . S
C2085 H2109 0.949 . S
H2086 C2090 0.949 . S
C2087 C2088 1.349 . S
C2087 C2089 1.327 . S
C2087 H2110 0.950 . S
C2088 C2087 1.349 . S
C2088 C2100 1.349 . S
C2089 C2087 1.327 . S
C2089 C2105 1.429 . S
C2089 H2111 0.950 . S
C2090 H2086 0.949 . S
C2090 C2098 1.574 . S
C2090 C2106 1.368 . S
H2091 C2099 0.950 . S
H2092 C2097 0.950 . S
H2093 C2098 0.949 . S
H2094 C2100 0.950 . S
H2095 C2101 0.950 . S
H2096 C2102 0.949 . S
C2097 H2092 0.950 . S
C2097 C2099 1.327 . S
C2097 C2103 1.429 . S
C2098 C2090 1.574 . S
C2098 H2093 0.949 . S
C2098 C2104 1.368 . S
C2099 C2083 1.349 . S
C2099 H2091 0.950 . S
C2099 C2097 1.327 . S
C2100 C2088 1.349 . S
C2100 H2094 0.950 . S
C2100 C2101 1.327 . S
C2101 H2095 0.950 . S
C2101 C2100 1.327 . S
C2101 C2105 1.429 . S
C2102 C2085 1.574 . S
C2102 H2096 0.949 . S
C2102 C2106 1.368 . S
C2103 C2084 1.429 . S
C2103 C2097 1.429 . S
C2103 C2104 1.523 . S
C2104 C2085 1.368 . S
C2104 C2098 1.368 . S
C2104 C2103 1.523 . S
C2105 C2089 1.429 . S
C2105 C2101 1.429 . S
C2105 C2106 1.523 . S
C2106 C2090 1.368 . S
C2106 C2102 1.368 . S
C2106 C2105 1.523 . S
H2107 C2082 0.950 . S
H2108 C2084 0.950 . S
H2109 C2085 0.949 . S
H2110 C2087 0.950 . S
H2111 C2089 0.950 . S
C2112 C2113 1.349 . S
C2112 C2114 1.327 . S
C2112 H2137 0.950 . S
C2113 C2112 1.349 . S
C2113 C2129 1.349 . S
C2114 C2112 1.327 . S
C2114 C2133 1.429 . S
C2114 H2138 0.950 . S
C2115 C2132 1.574 . S
C2115 C2134 1.368 . S
C2115 H2139 0.949 . S
H2116 C2120 0.949 . S
C2117 C2118 1.349 . S
C2117 C2119 1.327 . S
C2117 H2140 0.950 . S
C2118 C2117 1.349 . S
C2118 C2130 1.349 . S
C2119 C2117 1.327 . S
C2119 C2135 1.429 . S
C2119 H2141 0.950 . S
C2120 H2116 0.949 . S
C2120 C2128 1.574 . S
C2120 C2136 1.368 . S
H2121 C2129 0.950 . S
H2122 C2127 0.950 . S
H2123 C2128 0.949 . S
H2124 C2130 0.950 . S
H2125 C2131 0.950 . S
H2126 C2132 0.949 . S
C2127 H2122 0.950 . S
C2127 C2129 1.327 . S
C2127 C2133 1.429 . S
C2128 C2120 1.574 . S
C2128 H2123 0.949 . S
C2128 C2134 1.368 . S
C2129 C2113 1.349 . S
C2129 H2121 0.950 . S
C2129 C2127 1.327 . S
C2130 C2118 1.349 . S
C2130 H2124 0.950 . S
C2130 C2131 1.327 . S
C2131 H2125 0.950 . S
C2131 C2130 1.327 . S
C2131 C2135 1.429 . S
C2132 C2115 1.574 . S
C2132 H2126 0.949 . S
C2132 C2136 1.368 . S
C2133 C2114 1.429 . S
C2133 C2127 1.429 . S
C2133 C2134 1.523 . S
C2134 C2115 1.368 . S
C2134 C2128 1.368 . S
C2134 C2133 1.523 . S
C2135 C2119 1.429 . S
C2135 C2131 1.429 . S
C2135 C2136 1.523 . S
C2136 C2120 1.368 . S
C2136 C2132 1.368 . S
C2136 C2135 1.523 . S
H2137 C2112 0.950 . S
H2138 C2114 0.950 . S
H2139 C2115 0.949 . S
H2140 C2117 0.950 . S
H2141 C2119 0.950 . S
C2142 C2143 1.349 . S
C2142 C2144 1.327 . S
C2142 H2167 0.950 . S
C2143 C2142 1.349 . S
C2143 C2159 1.349 . S
C2144 C2142 1.327 . S
C2144 C2163 1.429 . S
C2144 H2168 0.950 . S
C2145 C2162 1.574 . S
C2145 C2164 1.368 . S
C2145 H2169 0.949 . S
H2146 C2150 0.949 . S
C2147 C2148 1.349 . S
C2147 C2149 1.327 . S
C2147 H2170 0.950 . S
C2148 C2147 1.349 . S
C2148 C2160 1.349 . S
C2149 C2147 1.327 . S
C2149 C2165 1.429 . S
C2149 H2171 0.950 . S
C2150 H2146 0.949 . S
C2150 C2158 1.574 . S
C2150 C2166 1.368 . S
H2151 C2159 0.950 . S
H2152 C2157 0.950 . S
H2153 C2158 0.949 . S
H2154 C2160 0.950 . S
H2155 C2161 0.950 . S
H2156 C2162 0.949 . S
C2157 H2152 0.950 . S
C2157 C2159 1.327 . S
C2157 C2163 1.429 . S
C2158 C2150 1.574 . S
C2158 H2153 0.949 . S
C2158 C2164 1.368 . S
C2159 C2143 1.349 . S
C2159 H2151 0.950 . S
C2159 C2157 1.327 . S
C2160 C2148 1.349 . S
C2160 H2154 0.950 . S
C2160 C2161 1.327 . S
C2161 H2155 0.950 . S
C2161 C2160 1.327 . S
C2161 C2165 1.429 . S
C2162 C2145 1.574 . S
C2162 H2156 0.949 . S
C2162 C2166 1.368 . S
C2163 C2144 1.429 . S
C2163 C2157 1.429 . S
C2163 C2164 1.523 . S
C2164 C2145 1.368 . S
C2164 C2158 1.368 . S
C2164 C2163 1.523 . S
C2165 C2149 1.429 . S
C2165 C2161 1.429 . S
C2165 C2166 1.523 . S
C2166 C2150 1.368 . S
C2166 C2162 1.368 . S
C2166 C2165 1.523 . S
H2167 C2142 0.950 . S
H2168 C2144 0.950 . S
H2169 C2145 0.949 . S
H2170 C2147 0.950 . S
H2171 C2149 0.950 . S
C2172 C2173 1.349 . S
C2172 C2174 1.327 . S
C2172 H2197 0.950 . S
C2173 C2172 1.349 . S
C2173 C2189 1.349 . S
C2174 C2172 1.327 . S
C2174 C2193 1.429 . S
C2174 H2198 0.950 . S
C2175 C2192 1.574 . S
C2175 C2194 1.368 . S
C2175 H2199 0.949 . S
H2176 C2180 0.949 . S
C2177 C2178 1.349 . S
C2177 C2179 1.327 . S
C2177 H2200 0.950 . S
C2178 C2177 1.349 . S
C2178 C2190 1.349 . S
C2179 C2177 1.327 . S
C2179 C2195 1.429 . S
C2179 H2201 0.950 . S
C2180 H2176 0.949 . S
C2180 C2188 1.574 . S
C2180 C2196 1.368 . S
H2181 C2189 0.950 . S
H2182 C2187 0.950 . S
H2183 C2188 0.949 . S
H2184 C2190 0.950 . S
H2185 C2191 0.950 . S
H2186 C2192 0.949 . S
C2187 H2182 0.950 . S
C2187 C2189 1.327 . S
C2187 C2193 1.429 . S
C2188 C2180 1.574 . S
C2188 H2183 0.949 . S
C2188 C2194 1.368 . S
C2189 C2173 1.349 . S
C2189 H2181 0.950 . S
C2189 C2187 1.327 . S
C2190 C2178 1.349 . S
C2190 H2184 0.950 . S
C2190 C2191 1.327 . S
C2191 H2185 0.950 . S
C2191 C2190 1.327 . S
C2191 C2195 1.429 . S
C2192 C2175 1.574 . S
C2192 H2186 0.949 . S
C2192 C2196 1.368 . S
C2193 C2174 1.429 . S
C2193 C2187 1.429 . S
C2193 C2194 1.523 . S
C2194 C2175 1.368 . S
C2194 C2188 1.368 . S
C2194 C2193 1.523 . S
C2195 C2179 1.429 . S
C2195 C2191 1.429 . S
C2195 C2196 1.523 . S
C2196 C2180 1.368 . S
C2196 C2192 1.368 . S
C2196 C2195 1.523 . S
H2197 C2172 0.950 . S
H2198 C2174 0.950 . S
H2199 C2175 0.949 . S
H2200 C2177 0.950 . S
H2201 C2179 0.950 . S
C2202 C2203 1.349 . S
C2202 C2204 1.327 . S
C2202 H2227 0.950 . S
C2203 C2202 1.349 . S
C2203 C2219 1.349 . S
C2204 C2202 1.327 . S
C2204 C2223 1.429 . S
C2204 H2228 0.950 . S
C2205 C2222 1.574 . S
C2205 C2224 1.368 . S
C2205 H2229 0.949 . S
H2206 C2210 0.949 . S
C2207 C2208 1.349 . S
C2207 C2209 1.327 . S
C2207 H2230 0.950 . S
C2208 C2207 1.349 . S
C2208 C2220 1.349 . S
C2209 C2207 1.327 . S
C2209 C2225 1.429 . S
C2209 H2231 0.950 . S
C2210 H2206 0.949 . S
C2210 C2218 1.574 . S
C2210 C2226 1.368 . S
H2211 C2219 0.950 . S
H2212 C2217 0.950 . S
H2213 C2218 0.949 . S
H2214 C2220 0.950 . S
H2215 C2221 0.950 . S
H2216 C2222 0.949 . S
C2217 H2212 0.950 . S
C2217 C2219 1.327 . S
C2217 C2223 1.429 . S
C2218 C2210 1.574 . S
C2218 H2213 0.949 . S
C2218 C2224 1.368 . S
C2219 C2203 1.349 . S
C2219 H2211 0.950 . S
C2219 C2217 1.327 . S
C2220 C2208 1.349 . S
C2220 H2214 0.950 . S
C2220 C2221 1.327 . S
C2221 H2215 0.950 . S
C2221 C2220 1.327 . S
C2221 C2225 1.429 . S
C2222 C2205 1.574 . S
C2222 H2216 0.949 . S
C2222 C2226 1.368 . S
C2223 C2204 1.429 . S
C2223 C2217 1.429 . S
C2223 C2224 1.523 . S
C2224 C2205 1.368 . S
C2224 C2218 1.368 . S
C2224 C2223 1.523 . S
C2225 C2209 1.429 . S
C2225 C2221 1.429 . S
C2225 C2226 1.523 . S
C2226 C2210 1.368 . S
C2226 C2222 1.368 . S
C2226 C2225 1.523 . S
H2227 C2202 0.950 . S
H2228 C2204 0.950 . S
H2229 C2205 0.949 . S
H2230 C2207 0.950 . S
H2231 C2209 0.950 . S
C2232 C2233 1.349 . S
C2232 C2234 1.327 . S
C2232 H2257 0.950 . S
C2233 C2232 1.349 . S
C2233 C2249 1.349 . S
C2234 C2232 1.327 . S
C2234 C2253 1.429 . S
C2234 H2258 0.950 . S
C2235 C2252 1.574 . S
C2235 C2254 1.368 . S
C2235 H2259 0.949 . S
H2236 C2240 0.949 . S
C2237 C2238 1.349 . S
C2237 C2239 1.327 . S
C2237 H2260 0.950 . S
C2238 C2237 1.349 . S
C2238 C2250 1.349 . S
C2239 C2237 1.327 . S
C2239 C2255 1.429 . S
C2239 H2261 0.950 . S
C2240 H2236 0.949 . S
C2240 C2248 1.574 . S
C2240 C2256 1.368 . S
H2241 C2249 0.950 . S
H2242 C2247 0.950 . S
H2243 C2248 0.949 . S
H2244 C2250 0.950 . S
H2245 C2251 0.950 . S
H2246 C2252 0.949 . S
C2247 H2242 0.950 . S
C2247 C2249 1.327 . S
C2247 C2253 1.429 . S
C2248 C2240 1.574 . S
C2248 H2243 0.949 . S
C2248 C2254 1.368 . S
C2249 C2233 1.349 . S
C2249 H2241 0.950 . S
C2249 C2247 1.327 . S
C2250 C2238 1.349 . S
C2250 H2244 0.950 . S
C2250 C2251 1.327 . S
C2251 H2245 0.950 . S
C2251 C2250 1.327 . S
C2251 C2255 1.429 . S
C2252 C2235 1.574 . S
C2252 H2246 0.949 . S
C2252 C2256 1.368 . S
C2253 C2234 1.429 . S
C2253 C2247 1.429 . S
C2253 C2254 1.523 . S
C2254 C2235 1.368 . S
C2254 C2248 1.368 . S
C2254 C2253 1.523 . S
C2255 C2239 1.429 . S
C2255 C2251 1.429 . S
C2255 C2256 1.523 . S
C2256 C2240 1.368 . S
C2256 C2252 1.368 . S
C2256 C2255 1.523 . S
H2257 C2232 0.950 . S
H2258 C2234 0.950 . S
H2259 C2235 0.949 . S
H2260 C2237 0.950 . S
H2261 C2239 0.950 . S
C2262 C2263 1.349 . S
C2262 C2264 1.327 . S
C2262 H2287 0.950 . S
C2263 C2262 1.349 . S
C2263 C2279 1.349 . S
C2264 C2262 1.327 . S
C2264 C2283 1.429 . S
C2264 H2288 0.950 . S
C2265 C2282 1.574 . S
C2265 C2284 1.368 . S
C2265 H2289 0.949 . S
H2266 C2270 0.949 . S
C2267 C2268 1.349 . S
C2267 C2269 1.327 . S
C2267 H2290 0.950 . S
C2268 C2267 1.349 . S
C2268 C2280 1.349 . S
C2269 C2267 1.327 . S
C2269 C2285 1.429 . S
C2269 H2291 0.950 . S
C2270 H2266 0.949 . S
C2270 C2278 1.574 . S
C2270 C2286 1.368 . S
H2271 C2279 0.950 . S
H2272 C2277 0.950 . S
H2273 C2278 0.949 . S
H2274 C2280 0.950 . S
H2275 C2281 0.950 . S
H2276 C2282 0.949 . S
C2277 H2272 0.950 . S
C2277 C2279 1.327 . S
C2277 C2283 1.429 . S
C2278 C2270 1.574 . S
C2278 H2273 0.949 . S
C2278 C2284 1.368 . S
C2279 C2263 1.349 . S
C2279 H2271 0.950 . S
C2279 C2277 1.327 . S
C2280 C2268 1.349 . S
C2280 H2274 0.950 . S
C2280 C2281 1.327 . S
C2281 H2275 0.950 . S
C2281 C2280 1.327 . S
C2281 C2285 1.429 . S
C2282 C2265 1.574 . S
C2282 H2276 0.949 . S
C2282 C2286 1.368 . S
C2283 C2264 1.429 . S
C2283 C2277 1.429 . S
C2283 C2284 1.523 . S
C2284 C2265 1.368 . S
C2284 C2278 1.368 . S
C2284 C2283 1.523 . S
C2285 C2269 1.429 . S
C2285 C2281 1.429 . S
C2285 C2286 1.523 . S
C2286 C2270 1.368 . S
C2286 C2282 1.368 . S
C2286 C2285 1.523 . S
H2287 C2262 0.950 . S
H2288 C2264 0.950 . S
H2289 C2265 0.949 . S
H2290 C2267 0.950 . S
H2291 C2269 0.950 . S
C2292 C2293 1.349 . S
C2292 C2294 1.327 . S
C2292 H2317 0.950 . S
C2293 C2292 1.349 . S
C2293 C2309 1.349 . S
C2294 C2292 1.327 . S
C2294 C2313 1.429 . S
C2294 H2318 0.950 . S
C2295 C2312 1.574 . S
C2295 C2314 1.368 . S
C2295 H2319 0.949 . S
H2296 C2300 0.949 . S
C2297 C2298 1.349 . S
C2297 C2299 1.327 . S
C2297 H2320 0.950 . S
C2298 C2297 1.349 . S
C2298 C2310 1.349 . S
C2299 C2297 1.327 . S
C2299 C2315 1.429 . S
C2299 H2321 0.950 . S
C2300 H2296 0.949 . S
C2300 C2308 1.574 . S
C2300 C2316 1.368 . S
H2301 C2309 0.950 . S
H2302 C2307 0.950 . S
H2303 C2308 0.949 . S
H2304 C2310 0.950 . S
H2305 C2311 0.950 . S
H2306 C2312 0.949 . S
C2307 H2302 0.950 . S
C2307 C2309 1.327 . S
C2307 C2313 1.429 . S
C2308 C2300 1.574 . S
C2308 H2303 0.949 . S
C2308 C2314 1.368 . S
C2309 C2293 1.349 . S
C2309 H2301 0.950 . S
C2309 C2307 1.327 . S
C2310 C2298 1.349 . S
C2310 H2304 0.950 . S
C2310 C2311 1.327 . S
C2311 H2305 0.950 . S
C2311 C2310 1.327 . S
C2311 C2315 1.429 . S
C2312 C2295 1.574 . S
C2312 H2306 0.949 . S
C2312 C2316 1.368 . S
C2313 C2294 1.429 . S
C2313 C2307 1.429 . S
C2313 C2314 1.523 . S
C2314 C2295 1.368 . S
C2314 C2308 1.368 . S
C2314 C2313 1.523 . S
C2315 C2299 1.429 . S
C2315 C2311 1.429 . S
C2315 C2316 1.523 . S
C2316 C2300 1.368 . S
C2316 C2312 1.368 . S
C2316 C2315 1.523 . S
H2317 C2292 0.950 . S
H2318 C2294 0.950 . S
H2319 C2295 0.949 . S
H2320 C2297 0.950 . S
H2321 C2299 0.950 . S
C2322 C2323 1.349 . S
C2322 C2324 1.327 . S
C2322 H2347 0.950 . S
C2323 C2322 1.349 . S
C2323 C2339 1.349 . S
C2324 C2322 1.327 . S
C2324 C2343 1.429 . S
C2324 H2348 0.950 . S
C2325 C2342 1.574 . S
C2325 C2344 1.368 . S
C2325 H2349 0.949 . S
H2326 C2330 0.949 . S
C2327 C2328 1.349 . S
C2327 C2329 1.327 . S
C2327 H2350 0.950 . S
C2328 C2327 1.349 . S
C2328 C2340 1.349 . S
C2329 C2327 1.327 . S
C2329 C2345 1.429 . S
C2329 H2351 0.950 . S
C2330 H2326 0.949 . S
C2330 C2338 1.574 . S
C2330 C2346 1.368 . S
H2331 C2339 0.950 . S
H2332 C2337 0.950 . S
H2333 C2338 0.949 . S
H2334 C2340 0.950 . S
H2335 C2341 0.950 . S
H2336 C2342 0.949 . S
C2337 H2332 0.950 . S
C2337 C2339 1.327 . S
C2337 C2343 1.429 . S
C2338 C2330 1.574 . S
C2338 H2333 0.949 . S
C2338 C2344 1.368 . S
C2339 C2323 1.349 . S
C2339 H2331 0.950 . S
C2339 C2337 1.327 . S
C2340 C2328 1.349 . S
C2340 H2334 0.950 . S
C2340 C2341 1.327 . S
C2341 H2335 0.950 . S
C2341 C2340 1.327 . S
C2341 C2345 1.429 . S
C2342 C2325 1.574 . S
C2342 H2336 0.949 . S
C2342 C2346 1.368 . S
C2343 C2324 1.429 . S
C2343 C2337 1.429 . S
C2343 C2344 1.523 . S
C2344 C2325 1.368 . S
C2344 C2338 1.368 . S
C2344 C2343 1.523 . S
C2345 C2329 1.429 . S
C2345 C2341 1.429 . S
C2345 C2346 1.523 . S
C2346 C2330 1.368 . S
C2346 C2342 1.368 . S
C2346 C2345 1.523 . S
H2347 C2322 0.950 . S
H2348 C2324 0.950 . S
H2349 C2325 0.949 . S
H2350 C2327 0.950 . S
H2351 C2329 0.950 . S
C2352 C2353 1.349 . S
C2352 C2354 1.327 . S
C2352 H2377 0.950 . S
C2353 C2352 1.349 . S
C2353 C2369 1.349 . S
C2354 C2352 1.327 . S
C2354 C2373 1.429 . S
C2354 H2378 0.950 . S
C2355 C2372 1.574 . S
C2355 C2374 1.368 . S
C2355 H2379 0.949 . S
H2356 C2360 0.949 . S
C2357 C2358 1.349 . S
C2357 C2359 1.327 . S
C2357 H2380 0.950 . S
C2358 C2357 1.349 . S
C2358 C2370 1.349 . S
C2359 C2357 1.327 . S
C2359 C2375 1.429 . S
C2359 H2381 0.950 . S
C2360 H2356 0.949 . S
C2360 C2368 1.574 . S
C2360 C2376 1.368 . S
H2361 C2369 0.950 . S
H2362 C2367 0.950 . S
H2363 C2368 0.949 . S
H2364 C2370 0.950 . S
H2365 C2371 0.950 . S
H2366 C2372 0.949 . S
C2367 H2362 0.950 . S
C2367 C2369 1.327 . S
C2367 C2373 1.429 . S
C2368 C2360 1.574 . S
C2368 H2363 0.949 . S
C2368 C2374 1.368 . S
C2369 C2353 1.349 . S
C2369 H2361 0.950 . S
C2369 C2367 1.327 . S
C2370 C2358 1.349 . S
C2370 H2364 0.950 . S
C2370 C2371 1.327 . S
C2371 H2365 0.950 . S
C2371 C2370 1.327 . S
C2371 C2375 1.429 . S
C2372 C2355 1.574 . S
C2372 H2366 0.949 . S
C2372 C2376 1.368 . S
C2373 C2354 1.429 . S
C2373 C2367 1.429 . S
C2373 C2374 1.523 . S
C2374 C2355 1.368 . S
C2374 C2368 1.368 . S
C2374 C2373 1.523 . S
C2375 C2359 1.429 . S
C2375 C2371 1.429 . S
C2375 C2376 1.523 . S
C2376 C2360 1.368 . S
C2376 C2372 1.368 . S
C2376 C2375 1.523 . S
H2377 C2352 0.950 . S
H2378 C2354 0.950 . S
H2379 C2355 0.949 . S
H2380 C2357 0.950 . S
H2381 C2359 0.950 . S
C2382 C2383 1.349 . S
C2382 C2384 1.327 . S
C2382 H2407 0.950 . S
C2383 C2382 1.349 . S
C2383 C2399 1.349 . S
C2384 C2382 1.327 . S
C2384 C2403 1.429 . S
C2384 H2408 0.950 . S
C2385 C2402 1.574 . S
C2385 C2404 1.368 . S
C2385 H2409 0.949 . S
H2386 C2390 0.949 . S
C2387 C2388 1.349 . S
C2387 C2389 1.327 . S
C2387 H2410 0.950 . S
C2388 C2387 1.349 . S
C2388 C2400 1.349 . S
C2389 C2387 1.327 . S
C2389 C2405 1.429 . S
C2389 H2411 0.950 . S
C2390 H2386 0.949 . S
C2390 C2398 1.574 . S
C2390 C2406 1.368 . S
H2391 C2399 0.950 . S
H2392 C2397 0.950 . S
H2393 C2398 0.949 . S
H2394 C2400 0.950 . S
H2395 C2401 0.950 . S
H2396 C2402 0.949 . S
C2397 H2392 0.950 . S
C2397 C2399 1.327 . S
C2397 C2403 1.429 . S
C2398 C2390 1.574 . S
C2398 H2393 0.949 . S
C2398 C2404 1.368 . S
C2399 C2383 1.349 . S
C2399 H2391 0.950 . S
C2399 C2397 1.327 . S
C2400 C2388 1.349 . S
C2400 H2394 0.950 . S
C2400 C2401 1.327 . S
C2401 H2395 0.950 . S
C2401 C2400 1.327 . S
C2401 C2405 1.429 . S
C2402 C2385 1.574 . S
C2402 H2396 0.949 . S
C2402 C2406 1.368 . S
C2403 C2384 1.429 . S
C2403 C2397 1.429 . S
C2403 C2404 1.523 . S
C2404 C2385 1.368 . S
C2404 C2398 1.368 . S
C2404 C2403 1.523 . S
C2405 C2389 1.429 . S
C2405 C2401 1.429 . S
C2405 C2406 1.523 . S
C2406 C2390 1.368 . S
C2406 C2402 1.368 . S
C2406 C2405 1.523 . S
H2407 C2382 0.950 . S
H2408 C2384 0.950 . S
H2409 C2385 0.949 . S
H2410 C2387 0.950 . S
H2411 C2389 0.950 . S
C2412 C2413 1.349 . S
C2412 C2414 1.327 . S
C2412 H2437 0.950 . S
C2413 C2412 1.349 . S
C2413 C2429 1.349 . S
C2414 C2412 1.327 . S
C2414 C2433 1.429 . S
C2414 H2438 0.950 . S
C2415 C2432 1.574 . S
C2415 C2434 1.368 . S
C2415 H2439 0.949 . S
H2416 C2420 0.949 . S
C2417 C2418 1.349 . S
C2417 C2419 1.327 . S
C2417 H2440 0.950 . S
C2418 C2417 1.349 . S
C2418 C2430 1.349 . S
C2419 C2417 1.327 . S
C2419 C2435 1.429 . S
C2419 H2441 0.950 . S
C2420 H2416 0.949 . S
C2420 C2428 1.574 . S
C2420 C2436 1.368 . S
H2421 C2429 0.950 . S
H2422 C2427 0.950 . S
H2423 C2428 0.949 . S
H2424 C2430 0.950 . S
H2425 C2431 0.950 . S
H2426 C2432 0.949 . S
C2427 H2422 0.950 . S
C2427 C2429 1.327 . S
C2427 C2433 1.429 . S
C2428 C2420 1.574 . S
C2428 H2423 0.949 . S
C2428 C2434 1.368 . S
C2429 C2413 1.349 . S
C2429 H2421 0.950 . S
C2429 C2427 1.327 . S
C2430 C2418 1.349 . S
C2430 H2424 0.950 . S
C2430 C2431 1.327 . S
C2431 H2425 0.950 . S
C2431 C2430 1.327 . S
C2431 C2435 1.429 . S
C2432 C2415 1.574 . S
C2432 H2426 0.949 . S
C2432 C2436 1.368 . S
C2433 C2414 1.429 . S
C2433 C2427 1.429 . S
C2433 C2434 1.523 . S
C2434 C2415 1.368 . S
C2434 C2428 1.368 . S
C2434 C2433 1.523 . S
C2435 C2419 1.429 . S
C2435 C2431 1.429 . S
C2435 C2436 1.523 . S
C2436 C2420 1.368 . S
C2436 C2432 1.368 . S
C2436 C2435 1.523 . S
H2437 C2412 0.950 . S
H2438 C2414 0.950 . S
H2439 C2415 0.949 . S
H2440 C2417 0.950 . S
H2441 C2419 0.950 . S
C2442 C2443 1.349 . S
C2442 C2444 1.327 . S
C2442 H2467 0.950 . S
C2443 C2442 1.349 . S
C2443 C2459 1.349 . S
C2444 C2442 1.327 . S
C2444 C2463 1.429 . S
C2444 H2468 0.950 . S
C2445 C2462 1.574 . S
C2445 C2464 1.368 . S
C2445 H2469 0.949 . S
H2446 C2450 0.949 . S
C2447 C2448 1.349 . S
C2447 C2449 1.327 . S
C2447 H2470 0.950 . S
C2448 C2447 1.349 . S
C2448 C2460 1.349 . S
C2449 C2447 1.327 . S
C2449 C2465 1.429 . S
C2449 H2471 0.950 . S
C2450 H2446 0.949 . S
C2450 C2458 1.574 . S
C2450 C2466 1.368 . S
H2451 C2459 0.950 . S
H2452 C2457 0.950 . S
H2453 C2458 0.949 . S
H2454 C2460 0.950 . S
H2455 C2461 0.950 . S
H2456 C2462 0.949 . S
C2457 H2452 0.950 . S
C2457 C2459 1.327 . S
C2457 C2463 1.429 . S
C2458 C2450 1.574 . S
C2458 H2453 0.949 . S
C2458 C2464 1.368 . S
C2459 C2443 1.349 . S
C2459 H2451 0.950 . S
C2459 C2457 1.327 . S
C2460 C2448 1.349 . S
C2460 H2454 0.950 . S
C2460 C2461 1.327 . S
C2461 H2455 0.950 . S
C2461 C2460 1.327 . S
C2461 C2465 1.429 . S
C2462 C2445 1.574 . S
C2462 H2456 0.949 . S
C2462 C2466 1.368 . S
C2463 C2444 1.429 . S
C2463 C2457 1.429 . S
C2463 C2464 1.523 . S
C2464 C2445 1.368 . S
C2464 C2458 1.368 . S
C2464 C2463 1.523 . S
C2465 C2449 1.429 . S
C2465 C2461 1.429 . S
C2465 C2466 1.523 . S
C2466 C2450 1.368 . S
C2466 C2462 1.368 . S
C2466 C2465 1.523 . S
H2467 C2442 0.950 . S
H2468 C2444 0.950 . S
H2469 C2445 0.949 . S
H2470 C2447 0.950 . S
H2471 C2449 0.950 . S
C2472 C2473 1.349 . S
C2472 C2474 1.327 . S
C2472 H2497 0.950 . S
C2473 C2472 1.349 . S
C2473 C2489 1.349 . S
C2474 C2472 1.327 . S
C2474 C2493 1.429 . S
C2474 H2498 0.950 . S
C2475 C2492 1.574 . S
C2475 C2494 1.368 . S
C2475 H2499 0.949 . S
H2476 C2480 0.949 . S
C2477 C2478 1.349 . S
C2477 C2479 1.327 . S
C2477 H2500 0.950 . S
C2478 C2477 1.349 . S
C2478 C2490 1.349 . S
C2479 C2477 1.327 . S
C2479 C2495 1.429 . S
C2479 H2501 0.950 . S
C2480 H2476 0.949 . S
C2480 C2488 1.574 . S
C2480 C2496 1.368 . S
H2481 C2489 0.950 . S
H2482 C2487 0.950 . S
H2483 C2488 0.949 . S
H2484 C2490 0.950 . S
H2485 C2491 0.950 . S
H2486 C2492 0.949 . S
C2487 H2482 0.950 . S
C2487 C2489 1.327 . S
C2487 C2493 1.429 . S
C2488 C2480 1.574 . S
C2488 H2483 0.949 . S
C2488 C2494 1.368 . S
C2489 C2473 1.349 . S
C2489 H2481 0.950 . S
C2489 C2487 1.327 . S
C2490 C2478 1.349 . S
C2490 H2484 0.950 . S
C2490 C2491 1.327 . S
C2491 H2485 0.950 . S
C2491 C2490 1.327 . S
C2491 C2495 1.429 . S
C2492 C2475 1.574 . S
C2492 H2486 0.949 . S
C2492 C2496 1.368 . S
C2493 C2474 1.429 . S
C2493 C2487 1.429 . S
C2493 C2494 1.523 . S
C2494 C2475 1.368 . S
C2494 C2488 1.368 . S
C2494 C2493 1.523 . S
C2495 C2479 1.429 . S
C2495 C2491 1.429 . S
C2495 C2496 1.523 . S
C2496 C2480 1.368 . S
C2496 C2492 1.368 . S
C2496 C2495 1.523 . S
H2497 C2472 0.950 . S
H2498 C2474 0.950 . S
H2499 C2475 0.949 . S
H2500 C2477 0.950 . S
H2501 C2479 0.950 . S
C2502 C2503 1.349 . S
C2502 C2504 1.327 . S
C2502 H2527 0.950 . S
C2503 C2502 1.349 . S
C2503 C2519 1.349 . S
C2504 C2502 1.327 . S
C2504 C2523 1.429 . S
C2504 H2528 0.950 . S
C2505 C2522 1.574 . S
C2505 C2524 1.368 . S
C2505 H2529 0.949 . S
H2506 C2510 0.949 . S
C2507 C2508 1.349 . S
C2507 C2509 1.327 . S
C2507 H2530 0.950 . S
C2508 C2507 1.349 . S
C2508 C2520 1.349 . S
C2509 C2507 1.327 . S
C2509 C2525 1.429 . S
C2509 H2531 0.950 . S
C2510 H2506 0.949 . S
C2510 C2518 1.574 . S
C2510 C2526 1.368 . S
H2511 C2519 0.950 . S
H2512 C2517 0.950 . S
H2513 C2518 0.949 . S
H2514 C2520 0.950 . S
H2515 C2521 0.950 . S
H2516 C2522 0.949 . S
C2517 H2512 0.950 . S
C2517 C2519 1.327 . S
C2517 C2523 1.429 . S
C2518 C2510 1.574 . S
C2518 H2513 0.949 . S
C2518 C2524 1.368 . S
C2519 C2503 1.349 . S
C2519 H2511 0.950 . S
C2519 C2517 1.327 . S
C2520 C2508 1.349 . S
C2520 H2514 0.950 . S
C2520 C2521 1.327 . S
C2521 H2515 0.950 . S
C2521 C2520 1.327 . S
C2521 C2525 1.429 . S
C2522 C2505 1.574 . S
C2522 H2516 0.949 . S
C2522 C2526 1.368 . S
C2523 C2504 1.429 . S
C2523 C2517 1.429 . S
C2523 C2524 1.523 . S
C2524 C2505 1.368 . S
C2524 C2518 1.368 . S
C2524 C2523 1.523 . S
C2525 C2509 1.429 . S
C2525 C2521 1.429 . S
C2525 C2526 1.523 . S
C2526 C2510 1.368 . S
C2526 C2522 1.368 . S
C2526 C2525 1.523 . S
H2527 C2502 0.950 . S
H2528 C2504 0.950 . S
H2529 C2505 0.949 . S
H2530 C2507 0.950 . S
H2531 C2509 0.950 . S
C2532 C2533 1.349 . S
C2532 C2534 1.327 . S
C2532 H2557 0.950 . S
C2533 C2532 1.349 . S
C2533 C2549 1.349 . S
C2534 C2532 1.327 . S
C2534 C2553 1.429 . S
C2534 H2558 0.950 . S
C2535 C2552 1.574 . S
C2535 C2554 1.368 . S
C2535 H2559 0.949 . S
H2536 C2540 0.949 . S
C2537 C2538 1.349 . S
C2537 C2539 1.327 . S
C2537 H2560 0.950 . S
C2538 C2537 1.349 . S
C2538 C2550 1.349 . S
C2539 C2537 1.327 . S
C2539 C2555 1.429 . S
C2539 H2561 0.950 . S
C2540 H2536 0.949 . S
C2540 C2548 1.574 . S
C2540 C2556 1.368 . S
H2541 C2549 0.950 . S
H2542 C2547 0.950 . S
H2543 C2548 0.949 . S
H2544 C2550 0.950 . S
H2545 C2551 0.950 . S
H2546 C2552 0.949 . S
C2547 H2542 0.950 . S
C2547 C2549 1.327 . S
C2547 C2553 1.429 . S
C2548 C2540 1.574 . S
C2548 H2543 0.949 . S
C2548 C2554 1.368 . S
C2549 C2533 1.349 . S
C2549 H2541 0.950 . S
C2549 C2547 1.327 . S
C2550 C2538 1.349 . S
C2550 H2544 0.950 . S
C2550 C2551 1.327 . S
C2551 H2545 0.950 . S
C2551 C2550 1.327 . S
C2551 C2555 1.429 . S
C2552 C2535 1.574 . S
C2552 H2546 0.949 . S
C2552 C2556 1.368 . S
C2553 C2534 1.429 . S
C2553 C2547 1.429 . S
C2553 C2554 1.523 . S
C2554 C2535 1.368 . S
C2554 C2548 1.368 . S
C2554 C2553 1.523 . S
C2555 C2539 1.429 . S
C2555 C2551 1.429 . S
C2555 C2556 1.523 . S
C2556 C2540 1.368 . S
C2556 C2552 1.368 . S
C2556 C2555 1.523 . S
H2557 C2532 0.950 . S
H2558 C2534 0.950 . S
H2559 C2535 0.949 . S
H2560 C2537 0.950 . S
H2561 C2539 0.950 . S
C2562 C2563 1.349 . S
C2562 C2564 1.327 . S
C2562 H2587 0.950 . S
C2563 C2562 1.349 . S
C2563 C2579 1.349 . S
C2564 C2562 1.327 . S
C2564 C2583 1.429 . S
C2564 H2588 0.950 . S
C2565 C2582 1.574 . S
C2565 C2584 1.368 . S
C2565 H2589 0.949 . S
H2566 C2570 0.949 . S
C2567 C2568 1.349 . S
C2567 C2569 1.327 . S
C2567 H2590 0.950 . S
C2568 C2567 1.349 . S
C2568 C2580 1.349 . S
C2569 C2567 1.327 . S
C2569 C2585 1.429 . S
C2569 H2591 0.950 . S
C2570 H2566 0.949 . S
C2570 C2578 1.574 . S
C2570 C2586 1.368 . S
H2571 C2579 0.950 . S
H2572 C2577 0.950 . S
H2573 C2578 0.949 . S
H2574 C2580 0.950 . S
H2575 C2581 0.950 . S
H2576 C2582 0.949 . S
C2577 H2572 0.950 . S
C2577 C2579 1.327 . S
C2577 C2583 1.429 . S
C2578 C2570 1.574 . S
C2578 H2573 0.949 . S
C2578 C2584 1.368 . S
C2579 C2563 1.349 . S
C2579 H2571 0.950 . S
C2579 C2577 1.327 . S
C2580 C2568 1.349 . S
C2580 H2574 0.950 . S
C2580 C2581 1.327 . S
C2581 H2575 0.950 . S
C2581 C2580 1.327 . S
C2581 C2585 1.429 . S
C2582 C2565 1.574 . S
C2582 H2576 0.949 . S
C2582 C2586 1.368 . S
C2583 C2564 1.429 . S
C2583 C2577 1.429 . S
C2583 C2584 1.523 . S
C2584 C2565 1.368 . S
C2584 C2578 1.368 . S
C2584 C2583 1.523 . S
C2585 C2569 1.429 . S
C2585 C2581 1.429 . S
C2585 C2586 1.523 . S
C2586 C2570 1.368 . S
C2586 C2582 1.368 . S
C2586 C2585 1.523 . S
H2587 C2562 0.950 . S
H2588 C2564 0.950 . S
H2589 C2565 0.949 . S
H2590 C2567 0.950 . S
H2591 C2569 0.950 . S
C2592 C2593 1.349 . S
C2592 C2594 1.327 . S
C2592 H2617 0.950 . S
C2593 C2592 1.349 . S
C2593 C2609 1.349 . S
C2594 C2592 1.327 . S
C2594 C2613 1.429 . S
C2594 H2618 0.950 . S
C2595 C2612 1.574 . S
C2595 C2614 1.368 . S
C2595 H2619 0.949 . S
H2596 C2600 0.949 . S
C2597 C2598 1.349 . S
C2597 C2599 1.327 . S
C2597 H2620 0.950 . S
C2598 C2597 1.349 . S
C2598 C2610 1.349 . S
C2599 C2597 1.327 . S
C2599 C2615 1.429 . S
C2599 H2621 0.950 . S
C2600 H2596 0.949 . S
C2600 C2608 1.574 . S
C2600 C2616 1.368 . S
H2601 C2609 0.950 . S
H2602 C2607 0.950 . S
H2603 C2608 0.949 . S
H2604 C2610 0.950 . S
H2605 C2611 0.950 . S
H2606 C2612 0.949 . S
C2607 H2602 0.950 . S
C2607 C2609 1.327 . S
C2607 C2613 1.429 . S
C2608 C2600 1.574 . S
C2608 H2603 0.949 . S
C2608 C2614 1.368 . S
C2609 C2593 1.349 . S
C2609 H2601 0.950 . S
C2609 C2607 1.327 . S
C2610 C2598 1.349 . S
C2610 H2604 0.950 . S
C2610 C2611 1.327 . S
C2611 H2605 0.950 . S
C2611 C2610 1.327 . S
C2611 C2615 1.429 . S
C2612 C2595 1.574 . S
C2612 H2606 0.949 . S
C2612 C2616 1.368 . S
C2613 C2594 1.429 . S
C2613 C2607 1.429 . S
C2613 C2614 1.523 . S
C2614 C2595 1.368 . S
C2614 C2608 1.368 . S
C2614 C2613 1.523 . S
C2615 C2599 1.429 . S
C2615 C2611 1.429 . S
C2615 C2616 1.523 . S
C2616 C2600 1.368 . S
C2616 C2612 1.368 . S
C2616 C2615 1.523 . S
H2617 C2592 0.950 . S
H2618 C2594 0.950 . S
H2619 C2595 0.949 . S
H2620 C2597 0.950 . S
H2621 C2599 0.950 . S
C2622 C2623 1.349 . S
C2622 C2624 1.327 . S
C2622 H2647 0.950 . S
C2623 C2622 1.349 . S
C2623 C2639 1.349 . S
C2624 C2622 1.327 . S
C2624 C2643 1.429 . S
C2624 H2648 0.950 . S
C2625 C2642 1.574 . S
C2625 C2644 1.368 . S
C2625 H2649 0.949 . S
H2626 C2630 0.949 . S
C2627 C2628 1.349 . S
C2627 C2629 1.327 . S
C2627 H2650 0.950 . S
C2628 C2627 1.349 . S
C2628 C2640 1.349 . S
C2629 C2627 1.327 . S
C2629 C2645 1.429 . S
C2629 H2651 0.950 . S
C2630 H2626 0.949 . S
C2630 C2638 1.574 . S
C2630 C2646 1.368 . S
H2631 C2639 0.950 . S
H2632 C2637 0.950 . S
H2633 C2638 0.949 . S
H2634 C2640 0.950 . S
H2635 C2641 0.950 . S
H2636 C2642 0.949 . S
C2637 H2632 0.950 . S
C2637 C2639 1.327 . S
C2637 C2643 1.429 . S
C2638 C2630 1.574 . S
C2638 H2633 0.949 . S
C2638 C2644 1.368 . S
C2639 C2623 1.349 . S
C2639 H2631 0.950 . S
C2639 C2637 1.327 . S
C2640 C2628 1.349 . S
C2640 H2634 0.950 . S
C2640 C2641 1.327 . S
C2641 H2635 0.950 . S
C2641 C2640 1.327 . S
C2641 C2645 1.429 . S
C2642 C2625 1.574 . S
C2642 H2636 0.949 . S
C2642 C2646 1.368 . S
C2643 C2624 1.429 . S
C2643 C2637 1.429 . S
C2643 C2644 1.523 . S
C2644 C2625 1.368 . S
C2644 C2638 1.368 . S
C2644 C2643 1.523 . S
C2645 C2629 1.429 . S
C2645 C2641 1.429 . S
C2645 C2646 1.523 . S
C2646 C2630 1.368 . S
C2646 C2642 1.368 . S
C2646 C2645 1.523 . S
H2647 C2622 0.950 . S
H2648 C2624 0.950 . S
H2649 C2625 0.949 . S
H2650 C2627 0.950 . S
H2651 C2629 0.950 . S
C2652 C2653 1.349 . S
C2652 C2654 1.327 . S
C2652 H2677 0.950 . S
C2653 C2652 1.349 . S
C2653 C2669 1.349 . S
C2654 C2652 1.327 . S
C2654 C2673 1.429 . S
C2654 H2678 0.950 . S
C2655 C2672 1.574 . S
C2655 C2674 1.368 . S
C2655 H2679 0.949 . S
H2656 C2660 0.949 . S
C2657 C2658 1.349 . S
C2657 C2659 1.327 . S
C2657 H2680 0.950 . S
C2658 C2657 1.349 . S
C2658 C2670 1.349 . S
C2659 C2657 1.327 . S
C2659 C2675 1.429 . S
C2659 H2681 0.950 . S
C2660 H2656 0.949 . S
C2660 C2668 1.574 . S
C2660 C2676 1.368 . S
H2661 C2669 0.950 . S
H2662 C2667 0.950 . S
H2663 C2668 0.949 . S
H2664 C2670 0.950 . S
H2665 C2671 0.950 . S
H2666 C2672 0.949 . S
C2667 H2662 0.950 . S
C2667 C2669 1.327 . S
C2667 C2673 1.429 . S
C2668 C2660 1.574 . S
C2668 H2663 0.949 . S
C2668 C2674 1.368 . S
C2669 C2653 1.349 . S
C2669 H2661 0.950 . S
C2669 C2667 1.327 . S
C2670 C2658 1.349 . S
C2670 H2664 0.950 . S
C2670 C2671 1.327 . S
C2671 H2665 0.950 . S
C2671 C2670 1.327 . S
C2671 C2675 1.429 . S
C2672 C2655 1.574 . S
C2672 H2666 0.949 . S
C2672 C2676 1.368 . S
C2673 C2654 1.429 . S
C2673 C2667 1.429 . S
C2673 C2674 1.523 . S
C2674 C2655 1.368 . S
C2674 C2668 1.368 . S
C2674 C2673 1.523 . S
C2675 C2659 1.429 . S
C2675 C2671 1.429 . S
C2675 C2676 1.523 . S
C2676 C2660 1.368 . S
C2676 C2672 1.368 . S
C2676 C2675 1.523 . S
H2677 C2652 0.950 . S
H2678 C2654 0.950 . S
H2679 C2655 0.949 . S
H2680 C2657 0.950 . S
H2681 C2659 0.950 . S
C2682 C2683 1.349 . S
C2682 C2684 1.327 . S
C2682 H2707 0.950 . S
C2683 C2682 1.349 . S
C2683 C2699 1.349 . S
C2684 C2682 1.327 . S
C2684 C2703 1.429 . S
C2684 H2708 0.950 . S
C2685 C2702 1.574 . S
C2685 C2704 1.368 . S
C2685 H2709 0.949 . S
H2686 C2690 0.949 . S
C2687 C2688 1.349 . S
C2687 C2689 1.327 . S
C2687 H2710 0.950 . S
C2688 C2687 1.349 . S
C2688 C2700 1.349 . S
C2689 C2687 1.327 . S
C2689 C2705 1.429 . S
C2689 H2711 0.950 . S
C2690 H2686 0.949 . S
C2690 C2698 1.574 . S
C2690 C2706 1.368 . S
H2691 C2699 0.950 . S
H2692 C2697 0.950 . S
H2693 C2698 0.949 . S
H2694 C2700 0.950 . S
H2695 C2701 0.950 . S
H2696 C2702 0.949 . S
C2697 H2692 0.950 . S
C2697 C2699 1.327 . S
C2697 C2703 1.429 . S
C2698 C2690 1.574 . S
C2698 H2693 0.949 . S
C2698 C2704 1.368 . S
C2699 C2683 1.349 . S
C2699 H2691 0.950 . S
C2699 C2697 1.327 . S
C2700 C2688 1.349 . S
C2700 H2694 0.950 . S
C2700 C2701 1.327 . S
C2701 H2695 0.950 . S
C2701 C2700 1.327 . S
C2701 C2705 1.429 . S
C2702 C2685 1.574 . S
C2702 H2696 0.949 . S
C2702 C2706 1.368 . S
C2703 C2684 1.429 . S
C2703 C2697 1.429 . S
C2703 C2704 1.523 . S
C2704 C2685 1.368 . S
C2704 C2698 1.368 . S
C2704 C2703 1.523 . S
C2705 C2689 1.429 . S
C2705 C2701 1.429 . S
C2705 C2706 1.523 . S
C2706 C2690 1.368 . S
C2706 C2702 1.368 . S
C2706 C2705 1.523 . S
H2707 C2682 0.950 . S
H2708 C2684 0.950 . S
H2709 C2685 0.949 . S
H2710 C2687 0.950 . S
H2711 C2689 0.950 . S
C2712 C2713 1.349 . S
C2712 C2714 1.327 . S
C2712 H2737 0.950 . S
C2713 C2712 1.349 . S
C2713 C2729 1.349 . S
C2714 C2712 1.327 . S
C2714 C2733 1.429 . S
C2714 H2738 0.950 . S
C2715 C2732 1.574 . S
C2715 C2734 1.368 . S
C2715 H2739 0.949 . S
H2716 C2720 0.949 . S
C2717 C2718 1.349 . S
C2717 C2719 1.327 . S
C2717 H2740 0.950 . S
C2718 C2717 1.349 . S
C2718 C2730 1.349 . S
C2719 C2717 1.327 . S
C2719 C2735 1.429 . S
C2719 H2741 0.950 . S
C2720 H2716 0.949 . S
C2720 C2728 1.574 . S
C2720 C2736 1.368 . S
H2721 C2729 0.950 . S
H2722 C2727 0.950 . S
H2723 C2728 0.949 . S
H2724 C2730 0.950 . S
H2725 C2731 0.950 . S
H2726 C2732 0.949 . S
C2727 H2722 0.950 . S
C2727 C2729 1.327 . S
C2727 C2733 1.429 . S
C2728 C2720 1.574 . S
C2728 H2723 0.949 . S
C2728 C2734 1.368 . S
C2729 C2713 1.349 . S
C2729 H2721 0.950 . S
C2729 C2727 1.327 . S
C2730 C2718 1.349 . S
C2730 H2724 0.950 . S
C2730 C2731 1.327 . S
C2731 H2725 0.950 . S
C2731 C2730 1.327 . S
C2731 C2735 1.429 . S
C2732 C2715 1.574 . S
C2732 H2726 0.949 . S
C2732 C2736 1.368 . S
C2733 C2714 1.429 . S
C2733 C2727 1.429 . S
C2733 C2734 1.523 . S
C2734 C2715 1.368 . S
C2734 C2728 1.368 . S
C2734 C2733 1.523 . S
C2735 C2719 1.429 . S
C2735 C2731 1.429 . S
C2735 C2736 1.523 . S
C2736 C2720 1.368 . S
C2736 C2732 1.368 . S
C2736 C2735 1.523 . S
H2737 C2712 0.950 . S
H2738 C2714 0.950 . S
H2739 C2715 0.949 . S
H2740 C2717 0.950 . S
H2741 C2719 0.950 . S
C2742 C2743 1.349 . S
C2742 C2744 1.327 . S
C2742 H2767 0.950 . S
C2743 C2742 1.349 . S
C2743 C2759 1.349 . S
C2744 C2742 1.327 . S
C2744 C2763 1.429 . S
C2744 H2768 0.950 . S
C2745 C2762 1.574 . S
C2745 C2764 1.368 . S
C2745 H2769 0.949 . S
H2746 C2750 0.949 . S
C2747 C2748 1.349 . S
C2747 C2749 1.327 . S
C2747 H2770 0.950 . S
C2748 C2747 1.349 . S
C2748 C2760 1.349 . S
C2749 C2747 1.327 . S
C2749 C2765 1.429 . S
C2749 H2771 0.950 . S
C2750 H2746 0.949 . S
C2750 C2758 1.574 . S
C2750 C2766 1.368 . S
H2751 C2759 0.950 . S
H2752 C2757 0.950 . S
H2753 C2758 0.949 . S
H2754 C2760 0.950 . S
H2755 C2761 0.950 . S
H2756 C2762 0.949 . S
C2757 H2752 0.950 . S
C2757 C2759 1.327 . S
C2757 C2763 1.429 . S
C2758 C2750 1.574 . S
C2758 H2753 0.949 . S
C2758 C2764 1.368 . S
C2759 C2743 1.349 . S
C2759 H2751 0.950 . S
C2759 C2757 1.327 . S
C2760 C2748 1.349 . S
C2760 H2754 0.950 . S
C2760 C2761 1.327 . S
C2761 H2755 0.950 . S
C2761 C2760 1.327 . S
C2761 C2765 1.429 . S
C2762 C2745 1.574 . S
C2762 H2756 0.949 . S
C2762 C2766 1.368 . S
C2763 C2744 1.429 . S
C2763 C2757 1.429 . S
C2763 C2764 1.523 . S
C2764 C2745 1.368 . S
C2764 C2758 1.368 . S
C2764 C2763 1.523 . S
C2765 C2749 1.429 . S
C2765 C2761 1.429 . S
C2765 C2766 1.523 . S
C2766 C2750 1.368 . S
C2766 C2762 1.368 . S
C2766 C2765 1.523 . S
H2767 C2742 0.950 . S
H2768 C2744 0.950 . S
H2769 C2745 0.949 . S
H2770 C2747 0.950 . S
H2771 C2749 0.950 . S
C2772 C2773 1.349 . S
C2772 C2774 1.327 . S
C2772 H2797 0.950 . S
C2773 C2772 1.349 . S
C2773 C2789 1.349 . S
C2774 C2772 1.327 . S
C2774 C2793 1.429 . S
C2774 H2798 0.950 . S
C2775 C2792 1.574 . S
C2775 C2794 1.368 . S
C2775 H2799 0.949 . S
H2776 C2780 0.949 . S
C2777 C2778 1.349 . S
C2777 C2779 1.327 . S
C2777 H2800 0.950 . S
C2778 C2777 1.349 . S
C2778 C2790 1.349 . S
C2779 C2777 1.327 . S
C2779 C2795 1.429 . S
C2779 H2801 0.950 . S
C2780 H2776 0.949 . S
C2780 C2788 1.574 . S
C2780 C2796 1.368 . S
H2781 C2789 0.950 . S
H2782 C2787 0.950 . S
H2783 C2788 0.949 . S
H2784 C2790 0.950 . S
H2785 C2791 0.950 . S
H2786 C2792 0.949 . S
C2787 H2782 0.950 . S
C2787 C2789 1.327 . S
C2787 C2793 1.429 . S
C2788 C2780 1.574 . S
C2788 H2783 0.949 . S
C2788 C2794 1.368 . S
C2789 C2773 1.349 . S
C2789 H2781 0.950 . S
C2789 C2787 1.327 . S
C2790 C2778 1.349 . S
C2790 H2784 0.950 . S
C2790 C2791 1.327 . S
C2791 H2785 0.950 . S
C2791 C2790 1.327 . S
C2791 C2795 1.429 . S
C2792 C2775 1.574 . S
C2792 H2786 0.949 . S
C2792 C2796 1.368 . S
C2793 C2774 1.429 . S
C2793 C2787 1.429 . S
C2793 C2794 1.523 . S
C2794 C2775 1.368 . S
C2794 C2788 1.368 . S
C2794 C2793 1.523 . S
C2795 C2779 1.429 . S
C2795 C2791 1.429 . S
C2795 C2796 1.523 . S
C2796 C2780 1.368 . S
C2796 C2792 1.368 . S
C2796 C2795 1.523 . S
H2797 C2772 0.950 . S
H2798 C2774 0.950 . S
H2799 C2775 0.949 . S
H2800 C2777 0.950 . S
H2801 C2779 0.950 . S
C2802 C2803 1.349 . S
C2802 C2804 1.327 . S
C2802 H2827 0.950 . S
C2803 C2802 1.349 . S
C2803 C2819 1.349 . S
C2804 C2802 1.327 . S
C2804 C2823 1.429 . S
C2804 H2828 0.950 . S
C2805 C2822 1.574 . S
C2805 C2824 1.368 . S
C2805 H2829 0.949 . S
H2806 C2810 0.949 . S
C2807 C2808 1.349 . S
C2807 C2809 1.327 . S
C2807 H2830 0.950 . S
C2808 C2807 1.349 . S
C2808 C2820 1.349 . S
C2809 C2807 1.327 . S
C2809 C2825 1.429 . S
C2809 H2831 0.950 . S
C2810 H2806 0.949 . S
C2810 C2818 1.574 . S
C2810 C2826 1.368 . S
H2811 C2819 0.950 . S
H2812 C2817 0.950 . S
H2813 C2818 0.949 . S
H2814 C2820 0.950 . S
H2815 C2821 0.950 . S
H2816 C2822 0.949 . S
C2817 H2812 0.950 . S
C2817 C2819 1.327 . S
C2817 C2823 1.429 . S
C2818 C2810 1.574 . S
C2818 H2813 0.949 . S
C2818 C2824 1.368 . S
C2819 C2803 1.349 . S
C2819 H2811 0.950 . S
C2819 C2817 1.327 . S
C2820 C2808 1.349 . S
C2820 H2814 0.950 . S
C2820 C2821 1.327 . S
C2821 H2815 0.950 . S
C2821 C2820 1.327 . S
C2821 C2825 1.429 . S
C2822 C2805 1.574 . S
C2822 H2816 0.949 . S
C2822 C2826 1.368 . S
C2823 C2804 1.429 . S
C2823 C2817 1.429 . S
C2823 C2824 1.523 . S
C2824 C2805 1.368 . S
C2824 C2818 1.368 . S
C2824 C2823 1.523 . S
C2825 C2809 1.429 . S
C2825 C2821 1.429 . S
C2825 C2826 1.523 . S
C2826 C2810 1.368 . S
C2826 C2822 1.368 . S
C2826 C2825 1.523 . S
H2827 C2802 0.950 . S
H2828 C2804 0.950 . S
H2829 C2805 0.949 . S
H2830 C2807 0.950 . S
H2831 C2809 0.950 . S
C2832 C2833 1.349 . S
C2832 C2834 1.327 . S
C2832 H2857 0.950 . S
C2833 C2832 1.349 . S
C2833 C2849 1.349 . S
C2834 C2832 1.327 . S
C2834 C2853 1.429 . S
C2834 H2858 0.950 . S
C2835 C2852 1.574 . S
C2835 C2854 1.368 . S
C2835 H2859 0.949 . S
H2836 C2840 0.949 . S
C2837 C2838 1.349 . S
C2837 C2839 1.327 . S
C2837 H2860 0.950 . S
C2838 C2837 1.349 . S
C2838 C2850 1.349 . S
C2839 C2837 1.327 . S
C2839 C2855 1.429 . S
C2839 H2861 0.950 . S
C2840 H2836 0.949 . S
C2840 C2848 1.574 . S
C2840 C2856 1.368 . S
H2841 C2849 0.950 . S
H2842 C2847 0.950 . S
H2843 C2848 0.949 . S
H2844 C2850 0.950 . S
H2845 C2851 0.950 . S
H2846 C2852 0.949 . S
C2847 H2842 0.950 . S
C2847 C2849 1.327 . S
C2847 C2853 1.429 . S
C2848 C2840 1.574 . S
C2848 H2843 0.949 . S
C2848 C2854 1.368 . S
C2849 C2833 1.349 . S
C2849 H2841 0.950 . S
C2849 C2847 1.327 . S
C2850 C2838 1.349 . S
C2850 H2844 0.950 . S
C2850 C2851 1.327 . S
C2851 H2845 0.950 . S
C2851 C2850 1.327 . S
C2851 C2855 1.429 . S
C2852 C2835 1.574 . S
C2852 H2846 0.949 . S
C2852 C2856 1.368 . S
C2853 C2834 1.429 . S
C2853 C2847 1.429 . S
C2853 C2854 1.523 . S
C2854 C2835 1.368 . S
C2854 C2848 1.368 . S
C2854 C2853 1.523 . S
C2855 C2839 1.429 . S
C2855 C2851 1.429 . S
C2855 C2856 1.523 . S
C2856 C2840 1.368 . S
C2856 C2852 1.368 . S
C2856 C2855 1.523 . S
H2857 C2832 0.950 . S
H2858 C2834 0.950 . S
H2859 C2835 0.949 . S
H2860 C2837 0.950 . S
H2861 C2839 0.950 . S
C2862 C2863 1.349 . S
C2862 C2864 1.327 . S
C2862 H2887 0.950 . S
C2863 C2862 1.349 . S
C2863 C2879 1.349 . S
C2864 C2862 1.327 . S
C2864 C2883 1.429 . S
C2864 H2888 0.950 . S
C2865 C2882 1.574 . S
C2865 C2884 1.368 . S
C2865 H2889 0.949 . S
H2866 C2870 0.949 . S
C2867 C2868 1.349 . S
C2867 C2869 1.327 . S
C2867 H2890 0.950 . S
C2868 C2867 1.349 . S
C2868 C2880 1.349 . S
C2869 C2867 1.327 . S
C2869 C2885 1.429 . S
C2869 H2891 0.950 . S
C2870 H2866 0.949 . S
C2870 C2878 1.574 . S
C2870 C2886 1.368 . S
H2871 C2879 0.950 . S
H2872 C2877 0.950 . S
H2873 C2878 0.949 . S
H2874 C2880 0.950 . S
H2875 C2881 0.950 . S
H2876 C2882 0.949 . S
C2877 H2872 0.950 . S
C2877 C2879 1.327 . S
C2877 C2883 1.429 . S
C2878 C2870 1.574 . S
C2878 H2873 0.949 . S
C2878 C2884 1.368 . S
C2879 C2863 1.349 . S
C2879 H2871 0.950 . S
C2879 C2877 1.327 . S
C2880 C2868 1.349 . S
C2880 H2874 0.950 . S
C2880 C2881 1.327 . S
C2881 H2875 0.950 . S
C2881 C2880 1.327 . S
C2881 C2885 1.429 . S
C2882 C2865 1.574 . S
C2882 H2876 0.949 . S
C2882 C2886 1.368 . S
C2883 C2864 1.429 . S
C2883 C2877 1.429 . S
C2883 C2884 1.523 . S
C2884 C2865 1.368 . S
C2884 C2878 1.368 . S
C2884 C2883 1.523 . S
C2885 C2869 1.429 . S
C2885 C2881 1.429 . S
C2885 C2886 1.523 . S
C2886 C2870 1.368 . S
C2886 C2882 1.368 . S
C2886 C2885 1.523 . S
H2887 C2862 0.950 . S
H2888 C2864 0.950 . S
H2889 C2865 0.949 . S
H2890 C2867 0.950 . S
H2891 C2869 0.950 . S
C2892 C2893 1.349 . S
C2892 C2894 1.327 . S
C2892 H2917 0.950 . S
C2893 C2892 1.349 . S
C2893 C2909 1.349 . S
C2894 C2892 1.327 . S
C2894 C2913 1.429 . S
C2894 H2918 0.950 . S
C2895 C2912 1.574 . S
C2895 C2914 1.368 . S
C2895 H2919 0.949 . S
H2896 C2900 0.949 . S
C2897 C2898 1.349 . S
C2897 C2899 1.327 . S
C2897 H2920 0.950 . S
C2898 C2897 1.349 . S
C2898 C2910 1.349 . S
C2899 C2897 1.327 . S
C2899 C2915 1.429 . S
C2899 H2921 0.950 . S
C2900 H2896 0.949 . S
C2900 C2908 1.574 . S
C2900 C2916 1.368 . S
H2901 C2909 0.950 . S
H2902 C2907 0.950 . S
H2903 C2908 0.949 . S
H2904 C2910 0.950 . S
H2905 C2911 0.950 . S
H2906 C2912 0.949 . S
C2907 H2902 0.950 . S
C2907 C2909 1.327 . S
C2907 C2913 1.429 . S
C2908 C2900 1.574 . S
C2908 H2903 0.949 . S
C2908 C2914 1.368 . S
C2909 C2893 1.349 . S
C2909 H2901 0.950 . S
C2909 C2907 1.327 . S
C2910 C2898 1.349 . S
C2910 H2904 0.950 . S
C2910 C2911 1.327 . S
C2911 H2905 0.950 . S
C2911 C2910 1.327 . S
C2911 C2915 1.429 . S
C2912 C2895 1.574 . S
C2912 H2906 0.949 . S
C2912 C2916 1.368 . S
C2913 C2894 1.429 . S
C2913 C2907 1.429 . S
C2913 C2914 1.523 . S
C2914 C2895 1.368 . S
C2914 C2908 1.368 . S
C2914 C2913 1.523 . S
C2915 C2899 1.429 . S
C2915 C2911 1.429 . S
C2915 C2916 1.523 . S
C2916 C2900 1.368 . S
C2916 C2912 1.368 . S
C2916 C2915 1.523 . S
H2917 C2892 0.950 . S
H2918 C2894 0.950 . S
H2919 C2895 0.949 . S
H2920 C2897 0.950 . S
H2921 C2899 0.950 . S
C2922 C2923 1.349 . S
C2922 C2924 1.327 . S
C2922 H2947 0.950 . S
C2923 C2922 1.349 . S
C2923 C2939 1.349 . S
C2924 C2922 1.327 . S
C2924 C2943 1.429 . S
C2924 H2948 0.950 . S
C2925 C2942 1.574 . S
C2925 C2944 1.368 . S
C2925 H2949 0.949 . S
H2926 C2930 0.949 . S
C2927 C2928 1.349 . S
C2927 C2929 1.327 . S
C2927 H2950 0.950 . S
C2928 C2927 1.349 . S
C2928 C2940 1.349 . S
C2929 C2927 1.327 . S
C2929 C2945 1.429 . S
C2929 H2951 0.950 . S
C2930 H2926 0.949 . S
C2930 C2938 1.574 . S
C2930 C2946 1.368 . S
H2931 C2939 0.950 . S
H2932 C2937 0.950 . S
H2933 C2938 0.949 . S
H2934 C2940 0.950 . S
H2935 C2941 0.950 . S
H2936 C2942 0.949 . S
C2937 H2932 0.950 . S
C2937 C2939 1.327 . S
C2937 C2943 1.429 . S
C2938 C2930 1.574 . S
C2938 H2933 0.949 . S
C2938 C2944 1.368 . S
C2939 C2923 1.349 . S
C2939 H2931 0.950 . S
C2939 C2937 1.327 . S
C2940 C2928 1.349 . S
C2940 H2934 0.950 . S
C2940 C2941 1.327 . S
C2941 H2935 0.950 . S
C2941 C2940 1.327 . S
C2941 C2945 1.429 . S
C2942 C2925 1.574 . S
C2942 H2936 0.949 . S
C2942 C2946 1.368 . S
C2943 C2924 1.429 . S
C2943 C2937 1.429 . S
C2943 C2944 1.523 . S
C2944 C2925 1.368 . S
C2944 C2938 1.368 . S
C2944 C2943 1.523 . S
C2945 C2929 1.429 . S
C2945 C2941 1.429 . S
C2945 C2946 1.523 . S
C2946 C2930 1.368 . S
C2946 C2942 1.368 . S
C2946 C2945 1.523 . S
H2947 C2922 0.950 . S
H2948 C2924 0.950 . S
H2949 C2925 0.949 . S
H2950 C2927 0.950 . S
H2951 C2929 0.950 . S
C2952 C2953 1.349 . S
C2952 C2954 1.327 . S
C2952 H2977 0.950 . S
C2953 C2952 1.349 . S
C2953 C2969 1.349 . S
C2954 C2952 1.327 . S
C2954 C2973 1.429 . S
C2954 H2978 0.950 . S
C2955 C2972 1.574 . S
C2955 C2974 1.368 . S
C2955 H2979 0.949 . S
H2956 C2960 0.949 . S
C2957 C2958 1.349 . S
C2957 C2959 1.327 . S
C2957 H2980 0.950 . S
C2958 C2957 1.349 . S
C2958 C2970 1.349 . S
C2959 C2957 1.327 . S
C2959 C2975 1.429 . S
C2959 H2981 0.950 . S
C2960 H2956 0.949 . S
C2960 C2968 1.574 . S
C2960 C2976 1.368 . S
H2961 C2969 0.950 . S
H2962 C2967 0.950 . S
H2963 C2968 0.949 . S
H2964 C2970 0.950 . S
H2965 C2971 0.950 . S
H2966 C2972 0.949 . S
C2967 H2962 0.950 . S
C2967 C2969 1.327 . S
C2967 C2973 1.429 . S
C2968 C2960 1.574 . S
C2968 H2963 0.949 . S
C2968 C2974 1.368 . S
C2969 C2953 1.349 . S
C2969 H2961 0.950 . S
C2969 C2967 1.327 . S
C2970 C2958 1.349 . S
C2970 H2964 0.950 . S
C2970 C2971 1.327 . S
C2971 H2965 0.950 . S
C2971 C2970 1.327 . S
C2971 C2975 1.429 . S
C2972 C2955 1.574 . S
C2972 H2966 0.949 . S
C2972 C2976 1.368 . S
C2973 C2954 1.429 . S
C2973 C2967 1.429 . S
C2973 C2974 1.523 . S
C2974 C2955 1.368 . S
C2974 C2968 1.368 . S
C2974 C2973 1.523 . S
C2975 C2959 1.429 . S
C2975 C2971 1.429 . S
C2975 C2976 1.523 . S
C2976 C2960 1.368 . S
C2976 C2972 1.368 . S
C2976 C2975 1.523 . S
H2977 C2952 0.950 . S
H2978 C2954 0.950 . S
H2979 C2955 0.949 . S
H2980 C2957 0.950 . S
H2981 C2959 0.950 . S
C2982 C2983 1.349 . S
C2982 C2984 1.327 . S
C2982 H3007 0.950 . S
C2983 C2982 1.349 . S
C2983 C2999 1.349 . S
C2984 C2982 1.327 . S
C2984 C3003 1.429 . S
C2984 H3008 0.950 . S
C2985 C3002 1.574 . S
C2985 C3004 1.368 . S
C2985 H3009 0.949 . S
H2986 C2990 0.949 . S
C2987 C2988 1.349 . S
C2987 C2989 1.327 . S
C2987 H3010 0.950 . S
C2988 C2987 1.349 . S
C2988 C3000 1.349 . S
C2989 C2987 1.327 . S
C2989 C3005 1.429 . S
C2989 H3011 0.950 . S
C2990 H2986 0.949 . S
C2990 C2998 1.574 . S
C2990 C3006 1.368 . S
H2991 C2999 0.950 . S
H2992 C2997 0.950 . S
H2993 C2998 0.949 . S
H2994 C3000 0.950 . S
H2995 C3001 0.950 . S
H2996 C3002 0.949 . S
C2997 H2992 0.950 . S
C2997 C2999 1.327 . S
C2997 C3003 1.429 . S
C2998 C2990 1.574 . S
C2998 H2993 0.949 . S
C2998 C3004 1.368 . S
C2999 C2983 1.349 . S
C2999 H2991 0.950 . S
C2999 C2997 1.327 . S
C3000 C2988 1.349 . S
C3000 H2994 0.950 . S
C3000 C3001 1.327 . S
C3001 H2995 0.950 . S
C3001 C3000 1.327 . S
C3001 C3005 1.429 . S
C3002 C2985 1.574 . S
C3002 H2996 0.949 . S
C3002 C3006 1.368 . S
C3003 C2984 1.429 . S
C3003 C2997 1.429 . S
C3003 C3004 1.523 . S
C3004 C2985 1.368 . S
C3004 C2998 1.368 . S
C3004 C3003 1.523 . S
C3005 C2989 1.429 . S
C3005 C3001 1.429 . S
C3005 C3006 1.523 . S
C3006 C2990 1.368 . S
C3006 C3002 1.368 . S
C3006 C3005 1.523 . S
H3007 C2982 0.950 . S
H3008 C2984 0.950 . S
H3009 C2985 0.949 . S
H3010 C2987 0.950 . S
H3011 C2989 0.950 . S
C3012 C3013 1.349 . S
C3012 C3014 1.327 . S
C3012 H3037 0.950 . S
C3013 C3012 1.349 . S
C3013 C3029 1.349 . S
C3014 C3012 1.327 . S
C3014 C3033 1.429 . S
C3014 H3038 0.950 . S
C3015 C3032 1.574 . S
C3015 C3034 1.368 . S
C3015 H3039 0.949 . S
H3016 C3020 0.949 . S
C3017 C3018 1.349 . S
C3017 C3019 1.327 . S
C3017 H3040 0.950 . S
C3018 C3017 1.349 . S
C3018 C3030 1.349 . S
C3019 C3017 1.327 . S
C3019 C3035 1.429 . S
C3019 H3041 0.950 . S
C3020 H3016 0.949 . S
C3020 C3028 1.574 . S
C3020 C3036 1.368 . S
H3021 C3029 0.950 . S
H3022 C3027 0.950 . S
H3023 C3028 0.949 . S
H3024 C3030 0.950 . S
H3025 C3031 0.950 . S
H3026 C3032 0.949 . S
C3027 H3022 0.950 . S
C3027 C3029 1.327 . S
C3027 C3033 1.429 . S
C3028 C3020 1.574 . S
C3028 H3023 0.949 . S
C3028 C3034 1.368 . S
C3029 C3013 1.349 . S
C3029 H3021 0.950 . S
C3029 C3027 1.327 . S
C3030 C3018 1.349 . S
C3030 H3024 0.950 . S
C3030 C3031 1.327 . S
C3031 H3025 0.950 . S
C3031 C3030 1.327 . S
C3031 C3035 1.429 . S
C3032 C3015 1.574 . S
C3032 H3026 0.949 . S
C3032 C3036 1.368 . S
C3033 C3014 1.429 . S
C3033 C3027 1.429 . S
C3033 C3034 1.523 . S
C3034 C3015 1.368 . S
C3034 C3028 1.368 . S
C3034 C3033 1.523 . S
C3035 C3019 1.429 . S
C3035 C3031 1.429 . S
C3035 C3036 1.523 . S
C3036 C3020 1.368 . S
C3036 C3032 1.368 . S
C3036 C3035 1.523 . S
H3037 C3012 0.950 . S
H3038 C3014 0.950 . S
H3039 C3015 0.949 . S
H3040 C3017 0.950 . S
H3041 C3019 0.950 . S
C3042 C3043 1.349 . S
C3042 C3044 1.327 . S
C3042 H3067 0.950 . S
C3043 C3042 1.349 . S
C3043 C3059 1.349 . S
C3044 C3042 1.327 . S
C3044 C3063 1.429 . S
C3044 H3068 0.950 . S
C3045 C3062 1.574 . S
C3045 C3064 1.368 . S
C3045 H3069 0.949 . S
H3046 C3050 0.949 . S
C3047 C3048 1.349 . S
C3047 C3049 1.327 . S
C3047 H3070 0.950 . S
C3048 C3047 1.349 . S
C3048 C3060 1.349 . S
C3049 C3047 1.327 . S
C3049 C3065 1.429 . S
C3049 H3071 0.950 . S
C3050 H3046 0.949 . S
C3050 C3058 1.574 . S
C3050 C3066 1.368 . S
H3051 C3059 0.950 . S
H3052 C3057 0.950 . S
H3053 C3058 0.949 . S
H3054 C3060 0.950 . S
H3055 C3061 0.950 . S
H3056 C3062 0.949 . S
C3057 H3052 0.950 . S
C3057 C3059 1.327 . S
C3057 C3063 1.429 . S
C3058 C3050 1.574 . S
C3058 H3053 0.949 . S
C3058 C3064 1.368 . S
C3059 C3043 1.349 . S
C3059 H3051 0.950 . S
C3059 C3057 1.327 . S
C3060 C3048 1.349 . S
C3060 H3054 0.950 . S
C3060 C3061 1.327 . S
C3061 H3055 0.950 . S
C3061 C3060 1.327 . S
C3061 C3065 1.429 . S
C3062 C3045 1.574 . S
C3062 H3056 0.949 . S
C3062 C3066 1.368 . S
C3063 C3044 1.429 . S
C3063 C3057 1.429 . S
C3063 C3064 1.523 . S
C3064 C3045 1.368 . S
C3064 C3058 1.368 . S
C3064 C3063 1.523 . S
C3065 C3049 1.429 . S
C3065 C3061 1.429 . S
C3065 C3066 1.523 . S
C3066 C3050 1.368 . S
C3066 C3062 1.368 . S
C3066 C3065 1.523 . S
H3067 C3042 0.950 . S
H3068 C3044 0.950 . S
H3069 C3045 0.949 . S
H3070 C3047 0.950 . S
H3071 C3049 0.950 . S
C3072 C3073 1.349 . S
C3072 C3074 1.327 . S
C3072 H3097 0.950 . S
C3073 C3072 1.349 . S
C3073 C3089 1.349 . S
C3074 C3072 1.327 . S
C3074 C3093 1.429 . S
C3074 H3098 0.950 . S
C3075 C3092 1.574 . S
C3075 C3094 1.368 . S
C3075 H3099 0.949 . S
H3076 C3080 0.949 . S
C3077 C3078 1.349 . S
C3077 C3079 1.327 . S
C3077 H3100 0.950 . S
C3078 C3077 1.349 . S
C3078 C3090 1.349 . S
C3079 C3077 1.327 . S
C3079 C3095 1.429 . S
C3079 H3101 0.950 . S
C3080 H3076 0.949 . S
C3080 C3088 1.574 . S
C3080 C3096 1.368 . S
H3081 C3089 0.950 . S
H3082 C3087 0.950 . S
H3083 C3088 0.949 . S
H3084 C3090 0.950 . S
H3085 C3091 0.950 . S
H3086 C3092 0.949 . S
C3087 H3082 0.950 . S
C3087 C3089 1.327 . S
C3087 C3093 1.429 . S
C3088 C3080 1.574 . S
C3088 H3083 0.949 . S
C3088 C3094 1.368 . S
C3089 C3073 1.349 . S
C3089 H3081 0.950 . S
C3089 C3087 1.327 . S
C3090 C3078 1.349 . S
C3090 H3084 0.950 . S
C3090 C3091 1.327 . S
C3091 H3085 0.950 . S
C3091 C3090 1.327 . S
C3091 C3095 1.429 . S
C3092 C3075 1.574 . S
C3092 H3086 0.949 . S
C3092 C3096 1.368 . S
C3093 C3074 1.429 . S
C3093 C3087 1.429 . S
C3093 C3094 1.523 . S
C3094 C3075 1.368 . S
C3094 C3088 1.368 . S
C3094 C3093 1.523 . S
C3095 C3079 1.429 . S
C3095 C3091 1.429 . S
C3095 C3096 1.523 . S
C3096 C3080 1.368 . S
C3096 C3092 1.368 . S
C3096 C3095 1.523 . S
H3097 C3072 0.950 . S
H3098 C3074 0.950 . S
H3099 C3075 0.949 . S
H3100 C3077 0.950 . S
H3101 C3079 0.950 . S
C3102 C3103 1.349 . S
C3102 C3104 1.327 . S
C3102 H3127 0.950 . S
C3103 C3102 1.349 . S
C3103 C3119 1.349 . S
C3104 C3102 1.327 . S
C3104 C3123 1.429 . S
C3104 H3128 0.950 . S
C3105 C3122 1.574 . S
C3105 C3124 1.368 . S
C3105 H3129 0.949 . S
H3106 C3110 0.949 . S
C3107 C3108 1.349 . S
C3107 C3109 1.327 . S
C3107 H3130 0.950 . S
C3108 C3107 1.349 . S
C3108 C3120 1.349 . S
C3109 C3107 1.327 . S
C3109 C3125 1.429 . S
C3109 H3131 0.950 . S
C3110 H3106 0.949 . S
C3110 C3118 1.574 . S
C3110 C3126 1.368 . S
H3111 C3119 0.950 . S
H3112 C3117 0.950 . S
H3113 C3118 0.949 . S
H3114 C3120 0.950 . S
H3115 C3121 0.950 . S
H3116 C3122 0.949 . S
C3117 H3112 0.950 . S
C3117 C3119 1.327 . S
C3117 C3123 1.429 . S
C3118 C3110 1.574 . S
C3118 H3113 0.949 . S
C3118 C3124 1.368 . S
C3119 C3103 1.349 . S
C3119 H3111 0.950 . S
C3119 C3117 1.327 . S
C3120 C3108 1.349 . S
C3120 H3114 0.950 . S
C3120 C3121 1.327 . S
C3121 H3115 0.950 . S
C3121 C3120 1.327 . S
C3121 C3125 1.429 . S
C3122 C3105 1.574 . S
C3122 H3116 0.949 . S
C3122 C3126 1.368 . S
C3123 C3104 1.429 . S
C3123 C3117 1.429 . S
C3123 C3124 1.523 . S
C3124 C3105 1.368 . S
C3124 C3118 1.368 . S
C3124 C3123 1.523 . S
C3125 C3109 1.429 . S
C3125 C3121 1.429 . S
C3125 C3126 1.523 . S
C3126 C3110 1.368 . S
C3126 C3122 1.368 . S
C3126 C3125 1.523 . S
H3127 C3102 0.950 . S
H3128 C3104 0.950 . S
H3129 C3105 0.949 . S
H3130 C3107 0.950 . S
H3131 C3109 0.950 . S
C3132 C3133 1.349 . S
C3132 C3134 1.327 . S
C3132 H3157 0.950 . S
C3133 C3132 1.349 . S
C3133 C3149 1.349 . S
C3134 C3132 1.327 . S
C3134 C3153 1.429 . S
C3134 H3158 0.950 . S
C3135 C3152 1.574 . S
C3135 C3154 1.368 . S
C3135 H3159 0.949 . S
H3136 C3140 0.949 . S
C3137 C3138 1.349 . S
C3137 C3139 1.327 . S
C3137 H3160 0.950 . S
C3138 C3137 1.349 . S
C3138 C3150 1.349 . S
C3139 C3137 1.327 . S
C3139 C3155 1.429 . S
C3139 H3161 0.950 . S
C3140 H3136 0.949 . S
C3140 C3148 1.574 . S
C3140 C3156 1.368 . S
H3141 C3149 0.950 . S
H3142 C3147 0.950 . S
H3143 C3148 0.949 . S
H3144 C3150 0.950 . S
H3145 C3151 0.950 . S
H3146 C3152 0.949 . S
C3147 H3142 0.950 . S
C3147 C3149 1.327 . S
C3147 C3153 1.429 . S
C3148 C3140 1.574 . S
C3148 H3143 0.949 . S
C3148 C3154 1.368 . S
C3149 C3133 1.349 . S
C3149 H3141 0.950 . S
C3149 C3147 1.327 . S
C3150 C3138 1.349 . S
C3150 H3144 0.950 . S
C3150 C3151 1.327 . S
C3151 H3145 0.950 . S
C3151 C3150 1.327 . S
C3151 C3155 1.429 . S
C3152 C3135 1.574 . S
C3152 H3146 0.949 . S
C3152 C3156 1.368 . S
C3153 C3134 1.429 . S
C3153 C3147 1.429 . S
C3153 C3154 1.523 . S
C3154 C3135 1.368 . S
C3154 C3148 1.368 . S
C3154 C3153 1.523 . S
C3155 C3139 1.429 . S
C3155 C3151 1.429 . S
C3155 C3156 1.523 . S
C3156 C3140 1.368 . S
C3156 C3152 1.368 . S
C3156 C3155 1.523 . S
H3157 C3132 0.950 . S
H3158 C3134 0.950 . S
H3159 C3135 0.949 . S
H3160 C3137 0.950 . S
H3161 C3139 0.950 . S
C3162 C3163 1.349 . S
C3162 C3164 1.327 . S
C3162 H3187 0.950 . S
C3163 C3162 1.349 . S
C3163 C3179 1.349 . S
C3164 C3162 1.327 . S
C3164 C3183 1.429 . S
C3164 H3188 0.950 . S
C3165 C3182 1.574 . S
C3165 C3184 1.368 . S
C3165 H3189 0.949 . S
H3166 C3170 0.949 . S
C3167 C3168 1.349 . S
C3167 C3169 1.327 . S
C3167 H3190 0.950 . S
C3168 C3167 1.349 . S
C3168 C3180 1.349 . S
C3169 C3167 1.327 . S
C3169 C3185 1.429 . S
C3169 H3191 0.950 . S
C3170 H3166 0.949 . S
C3170 C3178 1.574 . S
C3170 C3186 1.368 . S
H3171 C3179 0.950 . S
H3172 C3177 0.950 . S
H3173 C3178 0.949 . S
H3174 C3180 0.950 . S
H3175 C3181 0.950 . S
H3176 C3182 0.949 . S
C3177 H3172 0.950 . S
C3177 C3179 1.327 . S
C3177 C3183 1.429 . S
C3178 C3170 1.574 . S
C3178 H3173 0.949 . S
C3178 C3184 1.368 . S
C3179 C3163 1.349 . S
C3179 H3171 0.950 . S
C3179 C3177 1.327 . S
C3180 C3168 1.349 . S
C3180 H3174 0.950 . S
C3180 C3181 1.327 . S
C3181 H3175 0.950 . S
C3181 C3180 1.327 . S
C3181 C3185 1.429 . S
C3182 C3165 1.574 . S
C3182 H3176 0.949 . S
C3182 C3186 1.368 . S
C3183 C3164 1.429 . S
C3183 C3177 1.429 . S
C3183 C3184 1.523 . S
C3184 C3165 1.368 . S
C3184 C3178 1.368 . S
C3184 C3183 1.523 . S
C3185 C3169 1.429 . S
C3185 C3181 1.429 . S
C3185 C3186 1.523 . S
C3186 C3170 1.368 . S
C3186 C3182 1.368 . S
C3186 C3185 1.523 . S
H3187 C3162 0.950 . S
H3188 C3164 0.950 . S
H3189 C3165 0.949 . S
H3190 C3167 0.950 . S
H3191 C3169 0.950 . S
C3192 C3193 1.349 . S
C3192 C3194 1.327 . S
C3192 H3217 0.950 . S
C3193 C3192 1.349 . S
C3193 C3209 1.349 . S
C3194 C3192 1.327 . S
C3194 C3213 1.429 . S
C3194 H3218 0.950 . S
C3195 C3212 1.574 . S
C3195 C3214 1.368 . S
C3195 H3219 0.949 . S
H3196 C3200 0.949 . S
C3197 C3198 1.349 . S
C3197 C3199 1.327 . S
C3197 H3220 0.950 . S
C3198 C3197 1.349 . S
C3198 C3210 1.349 . S
C3199 C3197 1.327 . S
C3199 C3215 1.429 . S
C3199 H3221 0.950 . S
C3200 H3196 0.949 . S
C3200 C3208 1.574 . S
C3200 C3216 1.368 . S
H3201 C3209 0.950 . S
H3202 C3207 0.950 . S
H3203 C3208 0.949 . S
H3204 C3210 0.950 . S
H3205 C3211 0.950 . S
H3206 C3212 0.949 . S
C3207 H3202 0.950 . S
C3207 C3209 1.327 . S
C3207 C3213 1.429 . S
C3208 C3200 1.574 . S
C3208 H3203 0.949 . S
C3208 C3214 1.368 . S
C3209 C3193 1.349 . S
C3209 H3201 0.950 . S
C3209 C3207 1.327 . S
C3210 C3198 1.349 . S
C3210 H3204 0.950 . S
C3210 C3211 1.327 . S
C3211 H3205 0.950 . S
C3211 C3210 1.327 . S
C3211 C3215 1.429 . S
C3212 C3195 1.574 . S
C3212 H3206 0.949 . S
C3212 C3216 1.368 . S
C3213 C3194 1.429 . S
C3213 C3207 1.429 . S
C3213 C3214 1.523 . S
C3214 C3195 1.368 . S
C3214 C3208 1.368 . S
C3214 C3213 1.523 . S
C3215 C3199 1.429 . S
C3215 C3211 1.429 . S
C3215 C3216 1.523 . S
C3216 C3200 1.368 . S
C3216 C3212 1.368 . S
C3216 C3215 1.523 . S
H3217 C3192 0.950 . S
H3218 C3194 0.950 . S
H3219 C3195 0.949 . S
H3220 C3197 0.950 . S
H3221 C3199 0.950 . S
C3222 C3223 1.349 . S
C3222 C3224 1.327 . S
C3222 H3247 0.950 . S
C3223 C3222 1.349 . S
C3223 C3239 1.349 . S
C3224 C3222 1.327 . S
C3224 C3243 1.429 . S
C3224 H3248 0.950 . S
C3225 C3242 1.574 . S
C3225 C3244 1.368 . S
C3225 H3249 0.949 . S
H3226 C3230 0.949 . S
C3227 C3228 1.349 . S
C3227 C3229 1.327 . S
C3227 H3250 0.950 . S
C3228 C3227 1.349 . S
C3228 C3240 1.349 . S
C3229 C3227 1.327 . S
C3229 C3245 1.429 . S
C3229 H3251 0.950 . S
C3230 H3226 0.949 . S
C3230 C3238 1.574 . S
C3230 C3246 1.368 . S
H3231 C3239 0.950 . S
H3232 C3237 0.950 . S
H3233 C3238 0.949 . S
H3234 C3240 0.950 . S
H3235 C3241 0.950 . S
H3236 C3242 0.949 . S
C3237 H3232 0.950 . S
C3237 C3239 1.327 . S
C3237 C3243 1.429 . S
C3238 C3230 1.574 . S
C3238 H3233 0.949 . S
C3238 C3244 1.368 . S
C3239 C3223 1.349 . S
C3239 H3231 0.950 . S
C3239 C3237 1.327 . S
C3240 C3228 1.349 . S
C3240 H3234 0.950 . S
C3240 C3241 1.327 . S
C3241 H3235 0.950 . S
C3241 C3240 1.327 . S
C3241 C3245 1.429 . S
C3242 C3225 1.574 . S
C3242 H3236 0.949 . S
C3242 C3246 1.368 . S
C3243 C3224 1.429 . S
C3243 C3237 1.429 . S
C3243 C3244 1.523 . S
C3244 C3225 1.368 . S
C3244 C3238 1.368 . S
C3244 C3243 1.523 . S
C3245 C3229 1.429 . S
C3245 C3241 1.429 . S
C3245 C3246 1.523 . S
C3246 C3230 1.368 . S
C3246 C3242 1.368 . S
C3246 C3245 1.523 . S
H3247 C3222 0.950 . S
H3248 C3224 0.950 . S
H3249 C3225 0.949 . S
H3250 C3227 0.950 . S
H3251 C3229 0.950 . S
C3252 C3253 1.349 . S
C3252 C3254 1.327 . S
C3252 H3277 0.950 . S
C3253 C3252 1.349 . S
C3253 C3269 1.349 . S
C3254 C3252 1.327 . S
C3254 C3273 1.429 . S
C3254 H3278 0.950 . S
C3255 C3272 1.574 . S
C3255 C3274 1.368 . S
C3255 H3279 0.949 . S
H3256 C3260 0.949 . S
C3257 C3258 1.349 . S
C3257 C3259 1.327 . S
C3257 H3280 0.950 . S
C3258 C3257 1.349 . S
C3258 C3270 1.349 . S
C3259 C3257 1.327 . S
C3259 C3275 1.429 . S
C3259 H3281 0.950 . S
C3260 H3256 0.949 . S
C3260 C3268 1.574 . S
C3260 C3276 1.368 . S
H3261 C3269 0.950 . S
H3262 C3267 0.950 . S
H3263 C3268 0.949 . S
H3264 C3270 0.950 . S
H3265 C3271 0.950 . S
H3266 C3272 0.949 . S
C3267 H3262 0.950 . S
C3267 C3269 1.327 . S
C3267 C3273 1.429 . S
C3268 C3260 1.574 . S
C3268 H3263 0.949 . S
C3268 C3274 1.368 . S
C3269 C3253 1.349 . S
C3269 H3261 0.950 . S
C3269 C3267 1.327 . S
C3270 C3258 1.349 . S
C3270 H3264 0.950 . S
C3270 C3271 1.327 . S
C3271 H3265 0.950 . S
C3271 C3270 1.327 . S
C3271 C3275 1.429 . S
C3272 C3255 1.574 . S
C3272 H3266 0.949 . S
C3272 C3276 1.368 . S
C3273 C3254 1.429 . S
C3273 C3267 1.429 . S
C3273 C3274 1.523 . S
C3274 C3255 1.368 . S
C3274 C3268 1.368 . S
C3274 C3273 1.523 . S
C3275 C3259 1.429 . S
C3275 C3271 1.429 . S
C3275 C3276 1.523 . S
C3276 C3260 1.368 . S
C3276 C3272 1.368 . S
C3276 C3275 1.523 . S
H3277 C3252 0.950 . S
H3278 C3254 0.950 . S
H3279 C3255 0.949 . S
H3280 C3257 0.950 . S
H3281 C3259 0.950 . S
C3282 C3283 1.349 . S
C3282 C3284 1.327 . S
C3282 H3307 0.950 . S
C3283 C3282 1.349 . S
C3283 C3299 1.349 . S
C3284 C3282 1.327 . S
C3284 C3303 1.429 . S
C3284 H3308 0.950 . S
C3285 C3302 1.574 . S
C3285 C3304 1.368 . S
C3285 H3309 0.949 . S
H3286 C3290 0.949 . S
C3287 C3288 1.349 . S
C3287 C3289 1.327 . S
C3287 H3310 0.950 . S
C3288 C3287 1.349 . S
C3288 C3300 1.349 . S
C3289 C3287 1.327 . S
C3289 C3305 1.429 . S
C3289 H3311 0.950 . S
C3290 H3286 0.949 . S
C3290 C3298 1.574 . S
C3290 C3306 1.368 . S
H3291 C3299 0.950 . S
H3292 C3297 0.950 . S
H3293 C3298 0.949 . S
H3294 C3300 0.950 . S
H3295 C3301 0.950 . S
H3296 C3302 0.949 . S
C3297 H3292 0.950 . S
C3297 C3299 1.327 . S
C3297 C3303 1.429 . S
C3298 C3290 1.574 . S
C3298 H3293 0.949 . S
C3298 C3304 1.368 . S
C3299 C3283 1.349 . S
C3299 H3291 0.950 . S
C3299 C3297 1.327 . S
C3300 C3288 1.349 . S
C3300 H3294 0.950 . S
C3300 C3301 1.327 . S
C3301 H3295 0.950 . S
C3301 C3300 1.327 . S
C3301 C3305 1.429 . S
C3302 C3285 1.574 . S
C3302 H3296 0.949 . S
C3302 C3306 1.368 . S
C3303 C3284 1.429 . S
C3303 C3297 1.429 . S
C3303 C3304 1.523 . S
C3304 C3285 1.368 . S
C3304 C3298 1.368 . S
C3304 C3303 1.523 . S
C3305 C3289 1.429 . S
C3305 C3301 1.429 . S
C3305 C3306 1.523 . S
C3306 C3290 1.368 . S
C3306 C3302 1.368 . S
C3306 C3305 1.523 . S
H3307 C3282 0.950 . S
H3308 C3284 0.950 . S
H3309 C3285 0.949 . S
H3310 C3287 0.950 . S
H3311 C3289 0.950 . S
C3312 C3313 1.349 . S
C3312 C3314 1.327 . S
C3312 H3337 0.950 . S
C3313 C3312 1.349 . S
C3313 C3329 1.349 . S
C3314 C3312 1.327 . S
C3314 C3333 1.429 . S
C3314 H3338 0.950 . S
C3315 C3332 1.574 . S
C3315 C3334 1.368 . S
C3315 H3339 0.949 . S
H3316 C3320 0.949 . S
C3317 C3318 1.349 . S
C3317 C3319 1.327 . S
C3317 H3340 0.950 . S
C3318 C3317 1.349 . S
C3318 C3330 1.349 . S
C3319 C3317 1.327 . S
C3319 C3335 1.429 . S
C3319 H3341 0.950 . S
C3320 H3316 0.949 . S
C3320 C3328 1.574 . S
C3320 C3336 1.368 . S
H3321 C3329 0.950 . S
H3322 C3327 0.950 . S
H3323 C3328 0.949 . S
H3324 C3330 0.950 . S
H3325 C3331 0.950 . S
H3326 C3332 0.949 . S
C3327 H3322 0.950 . S
C3327 C3329 1.327 . S
C3327 C3333 1.429 . S
C3328 C3320 1.574 . S
C3328 H3323 0.949 . S
C3328 C3334 1.368 . S
C3329 C3313 1.349 . S
C3329 H3321 0.950 . S
C3329 C3327 1.327 . S
C3330 C3318 1.349 . S
C3330 H3324 0.950 . S
C3330 C3331 1.327 . S
C3331 H3325 0.950 . S
C3331 C3330 1.327 . S
C3331 C3335 1.429 . S
C3332 C3315 1.574 . S
C3332 H3326 0.949 . S
C3332 C3336 1.368 . S
C3333 C3314 1.429 . S
C3333 C3327 1.429 . S
C3333 C3334 1.523 . S
C3334 C3315 1.368 . S
C3334 C3328 1.368 . S
C3334 C3333 1.523 . S
C3335 C3319 1.429 . S
C3335 C3331 1.429 . S
C3335 C3336 1.523 . S
C3336 C3320 1.368 . S
C3336 C3332 1.368 . S
C3336 C3335 1.523 . S
H3337 C3312 0.950 . S
H3338 C3314 0.950 . S
H3339 C3315 0.949 . S
H3340 C3317 0.950 . S
H3341 C3319 0.950 . S
C3342 C3343 1.349 . S
C3342 C3344 1.327 . S
C3342 H3367 0.950 . S
C3343 C3342 1.349 . S
C3343 C3359 1.349 . S
C3344 C3342 1.327 . S
C3344 C3363 1.429 . S
C3344 H3368 0.950 . S
C3345 C3362 1.574 . S
C3345 C3364 1.368 . S
C3345 H3369 0.949 . S
H3346 C3350 0.949 . S
C3347 C3348 1.349 . S
C3347 C3349 1.327 . S
C3347 H3370 0.950 . S
C3348 C3347 1.349 . S
C3348 C3360 1.349 . S
C3349 C3347 1.327 . S
C3349 C3365 1.429 . S
C3349 H3371 0.950 . S
C3350 H3346 0.949 . S
C3350 C3358 1.574 . S
C3350 C3366 1.368 . S
H3351 C3359 0.950 . S
H3352 C3357 0.950 . S
H3353 C3358 0.949 . S
H3354 C3360 0.950 . S
H3355 C3361 0.950 . S
H3356 C3362 0.949 . S
C3357 H3352 0.950 . S
C3357 C3359 1.327 . S
C3357 C3363 1.429 . S
C3358 C3350 1.574 . S
C3358 H3353 0.949 . S
C3358 C3364 1.368 . S
C3359 C3343 1.349 . S
C3359 H3351 0.950 . S
C3359 C3357 1.327 . S
C3360 C3348 1.349 . S
C3360 H3354 0.950 . S
C3360 C3361 1.327 . S
C3361 H3355 0.950 . S
C3361 C3360 1.327 . S
C3361 C3365 1.429 . S
C3362 C3345 1.574 . S
C3362 H3356 0.949 . S
C3362 C3366 1.368 . S
C3363 C3344 1.429 . S
C3363 C3357 1.429 . S
C3363 C3364 1.523 . S
C3364 C3345 1.368 . S
C3364 C3358 1.368 . S
C3364 C3363 1.523 . S
C3365 C3349 1.429 . S
C3365 C3361 1.429 . S
C3365 C3366 1.523 . S
C3366 C3350 1.368 . S
C3366 C3362 1.368 . S
C3366 C3365 1.523 . S
H3367 C3342 0.950 . S
H3368 C3344 0.950 . S
H3369 C3345 0.949 . S
H3370 C3347 0.950 . S
H3371 C3349 0.950 . S
C3372 C3373 1.349 . S
C3372 C3374 1.327 . S
C3372 H3397 0.950 . S
C3373 C3372 1.349 . S
C3373 C3389 1.349 . S
C3374 C3372 1.327 . S
C3374 C3393 1.429 . S
C3374 H3398 0.950 . S
C3375 C3392 1.574 . S
C3375 C3394 1.368 . S
C3375 H3399 0.949 . S
H3376 C3380 0.949 . S
C3377 C3378 1.349 . S
C3377 C3379 1.327 . S
C3377 H3400 0.950 . S
C3378 C3377 1.349 . S
C3378 C3390 1.349 . S
C3379 C3377 1.327 . S
C3379 C3395 1.429 . S
C3379 H3401 0.950 . S
C3380 H3376 0.949 . S
C3380 C3388 1.574 . S
C3380 C3396 1.368 . S
H3381 C3389 0.950 . S
H3382 C3387 0.950 . S
H3383 C3388 0.949 . S
H3384 C3390 0.950 . S
H3385 C3391 0.950 . S
H3386 C3392 0.949 . S
C3387 H3382 0.950 . S
C3387 C3389 1.327 . S
C3387 C3393 1.429 . S
C3388 C3380 1.574 . S
C3388 H3383 0.949 . S
C3388 C3394 1.368 . S
C3389 C3373 1.349 . S
C3389 H3381 0.950 . S
C3389 C3387 1.327 . S
C3390 C3378 1.349 . S
C3390 H3384 0.950 . S
C3390 C3391 1.327 . S
C3391 H3385 0.950 . S
C3391 C3390 1.327 . S
C3391 C3395 1.429 . S
C3392 C3375 1.574 . S
C3392 H3386 0.949 . S
C3392 C3396 1.368 . S
C3393 C3374 1.429 . S
C3393 C3387 1.429 . S
C3393 C3394 1.523 . S
C3394 C3375 1.368 . S
C3394 C3388 1.368 . S
C3394 C3393 1.523 . S
C3395 C3379 1.429 . S
C3395 C3391 1.429 . S
C3395 C3396 1.523 . S
C3396 C3380 1.368 . S
C3396 C3392 1.368 . S
C3396 C3395 1.523 . S
H3397 C3372 0.950 . S
H3398 C3374 0.950 . S
H3399 C3375 0.949 . S
H3400 C3377 0.950 . S
H3401 C3379 0.950 . S
C3402 C3403 1.349 . S
C3402 C3404 1.327 . S
C3402 H3427 0.950 . S
C3403 C3402 1.349 . S
C3403 C3419 1.349 . S
C3404 C3402 1.327 . S
C3404 C3423 1.429 . S
C3404 H3428 0.950 . S
C3405 C3422 1.574 . S
C3405 C3424 1.368 . S
C3405 H3429 0.949 . S
H3406 C3410 0.949 . S
C3407 C3408 1.349 . S
C3407 C3409 1.327 . S
C3407 H3430 0.950 . S
C3408 C3407 1.349 . S
C3408 C3420 1.349 . S
C3409 C3407 1.327 . S
C3409 C3425 1.429 . S
C3409 H3431 0.950 . S
C3410 H3406 0.949 . S
C3410 C3418 1.574 . S
C3410 C3426 1.368 . S
H3411 C3419 0.950 . S
H3412 C3417 0.950 . S
H3413 C3418 0.949 . S
H3414 C3420 0.950 . S
H3415 C3421 0.950 . S
H3416 C3422 0.949 . S
C3417 H3412 0.950 . S
C3417 C3419 1.327 . S
C3417 C3423 1.429 . S
C3418 C3410 1.574 . S
C3418 H3413 0.949 . S
C3418 C3424 1.368 . S
C3419 C3403 1.349 . S
C3419 H3411 0.950 . S
C3419 C3417 1.327 . S
C3420 C3408 1.349 . S
C3420 H3414 0.950 . S
C3420 C3421 1.327 . S
C3421 H3415 0.950 . S
C3421 C3420 1.327 . S
C3421 C3425 1.429 . S
C3422 C3405 1.574 . S
C3422 H3416 0.949 . S
C3422 C3426 1.368 . S
C3423 C3404 1.429 . S
C3423 C3417 1.429 . S
C3423 C3424 1.523 . S
C3424 C3405 1.368 . S
C3424 C3418 1.368 . S
C3424 C3423 1.523 . S
C3425 C3409 1.429 . S
C3425 C3421 1.429 . S
C3425 C3426 1.523 . S
C3426 C3410 1.368 . S
C3426 C3422 1.368 . S
C3426 C3425 1.523 . S
H3427 C3402 0.950 . S
H3428 C3404 0.950 . S
H3429 C3405 0.949 . S
H3430 C3407 0.950 . S
H3431 C3409 0.950 . S
C3432 C3433 1.349 . S
C3432 C3434 1.327 . S
C3432 H3457 0.950 . S
C3433 C3432 1.349 . S
C3433 C3449 1.349 . S
C3434 C3432 1.327 . S
C3434 C3453 1.429 . S
C3434 H3458 0.950 . S
C3435 C3452 1.574 . S
C3435 C3454 1.368 . S
C3435 H3459 0.949 . S
H3436 C3440 0.949 . S
C3437 C3438 1.349 . S
C3437 C3439 1.327 . S
C3437 H3460 0.950 . S
C3438 C3437 1.349 . S
C3438 C3450 1.349 . S
C3439 C3437 1.327 . S
C3439 C3455 1.429 . S
C3439 H3461 0.950 . S
C3440 H3436 0.949 . S
C3440 C3448 1.574 . S
C3440 C3456 1.368 . S
H3441 C3449 0.950 . S
H3442 C3447 0.950 . S
H3443 C3448 0.949 . S
H3444 C3450 0.950 . S
H3445 C3451 0.950 . S
H3446 C3452 0.949 . S
C3447 H3442 0.950 . S
C3447 C3449 1.327 . S
C3447 C3453 1.429 . S
C3448 C3440 1.574 . S
C3448 H3443 0.949 . S
C3448 C3454 1.368 . S
C3449 C3433 1.349 . S
C3449 H3441 0.950 . S
C3449 C3447 1.327 . S
C3450 C3438 1.349 . S
C3450 H3444 0.950 . S
C3450 C3451 1.327 . S
C3451 H3445 0.950 . S
C3451 C3450 1.327 . S
C3451 C3455 1.429 . S
C3452 C3435 1.574 . S
C3452 H3446 0.949 . S
C3452 C3456 1.368 . S
C3453 C3434 1.429 . S
C3453 C3447 1.429 . S
C3453 C3454 1.523 . S
C3454 C3435 1.368 . S
C3454 C3448 1.368 . S
C3454 C3453 1.523 . S
C3455 C3439 1.429 . S
C3455 C3451 1.429 . S
C3455 C3456 1.523 . S
C3456 C3440 1.368 . S
C3456 C3452 1.368 . S
C3456 C3455 1.523 . S
H3457 C3432 0.950 . S
H3458 C3434 0.950 . S
H3459 C3435 0.949 . S
H3460 C3437 0.950 . S
H3461 C3439 0.950 . S
C3462 C3463 1.349 . S
C3462 C3464 1.327 . S
C3462 H3487 0.950 . S
C3463 C3462 1.349 . S
C3463 C3479 1.349 . S
C3464 C3462 1.327 . S
C3464 C3483 1.429 . S
C3464 H3488 0.950 . S
C3465 C3482 1.574 . S
C3465 C3484 1.368 . S
C3465 H3489 0.949 . S
H3466 C3470 0.949 . S
C3467 C3468 1.349 . S
C3467 C3469 1.327 . S
C3467 H3490 0.950 . S
C3468 C3467 1.349 . S
C3468 C3480 1.349 . S
C3469 C3467 1.327 . S
C3469 C3485 1.429 . S
C3469 H3491 0.950 . S
C3470 H3466 0.949 . S
C3470 C3478 1.574 . S
C3470 C3486 1.368 . S
H3471 C3479 0.950 . S
H3472 C3477 0.950 . S
H3473 C3478 0.949 . S
H3474 C3480 0.950 . S
H3475 C3481 0.950 . S
H3476 C3482 0.949 . S
C3477 H3472 0.950 . S
C3477 C3479 1.327 . S
C3477 C3483 1.429 . S
C3478 C3470 1.574 . S
C3478 H3473 0.949 . S
C3478 C3484 1.368 . S
C3479 C3463 1.349 . S
C3479 H3471 0.950 . S
C3479 C3477 1.327 . S
C3480 C3468 1.349 . S
C3480 H3474 0.950 . S
C3480 C3481 1.327 . S
C3481 H3475 0.950 . S
C3481 C3480 1.327 . S
C3481 C3485 1.429 . S
C3482 C3465 1.574 . S
C3482 H3476 0.949 . S
C3482 C3486 1.368 . S
C3483 C3464 1.429 . S
C3483 C3477 1.429 . S
C3483 C3484 1.523 . S
C3484 C3465 1.368 . S
C3484 C3478 1.368 . S
C3484 C3483 1.523 . S
C3485 C3469 1.429 . S
C3485 C3481 1.429 . S
C3485 C3486 1.523 . S
C3486 C3470 1.368 . S
C3486 C3482 1.368 . S
C3486 C3485 1.523 . S
H3487 C3462 0.950 . S
H3488 C3464 0.950 . S
H3489 C3465 0.949 . S
H3490 C3467 0.950 . S
H3491 C3469 0.950 . S
C3492 C3493 1.349 . S
C3492 C3494 1.327 . S
C3492 H3517 0.950 . S
C3493 C3492 1.349 . S
C3493 C3509 1.349 . S
C3494 C3492 1.327 . S
C3494 C3513 1.429 . S
C3494 H3518 0.950 . S
C3495 C3512 1.574 . S
C3495 C3514 1.368 . S
C3495 H3519 0.949 . S
H3496 C3500 0.949 . S
C3497 C3498 1.349 . S
C3497 C3499 1.327 . S
C3497 H3520 0.950 . S
C3498 C3497 1.349 . S
C3498 C3510 1.349 . S
C3499 C3497 1.327 . S
C3499 C3515 1.429 . S
C3499 H3521 0.950 . S
C3500 H3496 0.949 . S
C3500 C3508 1.574 . S
C3500 C3516 1.368 . S
H3501 C3509 0.950 . S
H3502 C3507 0.950 . S
H3503 C3508 0.949 . S
H3504 C3510 0.950 . S
H3505 C3511 0.950 . S
H3506 C3512 0.949 . S
C3507 H3502 0.950 . S
C3507 C3509 1.327 . S
C3507 C3513 1.429 . S
C3508 C3500 1.574 . S
C3508 H3503 0.949 . S
C3508 C3514 1.368 . S
C3509 C3493 1.349 . S
C3509 H3501 0.950 . S
C3509 C3507 1.327 . S
C3510 C3498 1.349 . S
C3510 H3504 0.950 . S
C3510 C3511 1.327 . S
C3511 H3505 0.950 . S
C3511 C3510 1.327 . S
C3511 C3515 1.429 . S
C3512 C3495 1.574 . S
C3512 H3506 0.949 . S
C3512 C3516 1.368 . S
C3513 C3494 1.429 . S
C3513 C3507 1.429 . S
C3513 C3514 1.523 . S
C3514 C3495 1.368 . S
C3514 C3508 1.368 . S
C3514 C3513 1.523 . S
C3515 C3499 1.429 . S
C3515 C3511 1.429 . S
C3515 C3516 1.523 . S
C3516 C3500 1.368 . S
C3516 C3512 1.368 . S
C3516 C3515 1.523 . S
H3517 C3492 0.950 . S
H3518 C3494 0.950 . S
H3519 C3495 0.949 . S
H3520 C3497 0.950 . S
H3521 C3499 0.950 . S
C3522 C3523 1.349 . S
C3522 C3524 1.327 . S
C3522 H3547 0.950 . S
C3523 C3522 1.349 . S
C3523 C3539 1.349 . S
C3524 C3522 1.327 . S
C3524 C3543 1.429 . S
C3524 H3548 0.950 . S
C3525 C3542 1.574 . S
C3525 C3544 1.368 . S
C3525 H3549 0.949 . S
H3526 C3530 0.949 . S
C3527 C3528 1.349 . S
C3527 C3529 1.327 . S
C3527 H3550 0.950 . S
C3528 C3527 1.349 . S
C3528 C3540 1.349 . S
C3529 C3527 1.327 . S
C3529 C3545 1.429 . S
C3529 H3551 0.950 . S
C3530 H3526 0.949 . S
C3530 C3538 1.574 . S
C3530 C3546 1.368 . S
H3531 C3539 0.950 . S
H3532 C3537 0.950 . S
H3533 C3538 0.949 . S
H3534 C3540 0.950 . S
H3535 C3541 0.950 . S
H3536 C3542 0.949 . S
C3537 H3532 0.950 . S
C3537 C3539 1.327 . S
C3537 C3543 1.429 . S
C3538 C3530 1.574 . S
C3538 H3533 0.949 . S
C3538 C3544 1.368 . S
C3539 C3523 1.349 . S
C3539 H3531 0.950 . S
C3539 C3537 1.327 . S
C3540 C3528 1.349 . S
C3540 H3534 0.950 . S
C3540 C3541 1.327 . S
C3541 H3535 0.950 . S
C3541 C3540 1.327 . S
C3541 C3545 1.429 . S
C3542 C3525 1.574 . S
C3542 H3536 0.949 . S
C3542 C3546 1.368 . S
C3543 C3524 1.429 . S
C3543 C3537 1.429 . S
C3543 C3544 1.523 . S
C3544 C3525 1.368 . S
C3544 C3538 1.368 . S
C3544 C3543 1.523 . S
C3545 C3529 1.429 . S
C3545 C3541 1.429 . S
C3545 C3546 1.523 . S
C3546 C3530 1.368 . S
C3546 C3542 1.368 . S
C3546 C3545 1.523 . S
H3547 C3522 0.950 . S
H3548 C3524 0.950 . S
H3549 C3525 0.949 . S
H3550 C3527 0.950 . S
H3551 C3529 0.950 . S
C673 C442 1.344 . S
C678 C8 1.344 . S
C703 C22 1.344 . S
C708 C400 1.344 . S
C733 C36 1.344 . S
C738 C414 1.344 . S
C763 C428 1.344 . S
C768 C50 1.344 . S
C793 C358 1.344 . S
C798 C64 1.344 . S
C823 C78 1.344 . S
C828 C372 1.344 . S
C853 C386 1.344 . S
C858 C92 1.344 . S
C883 C106 1.344 . S
C888 C344 1.344 . S
C913 C120 1.344 . S
C918 C624 1.344 . S
C943 C582 1.344 . S
C948 C134 1.344 . S
C973 C596 1.344 . S
C978 C148 1.344 . S
C1003 C162 1.344 . S
C1008 C610 1.344 . S
C1033 C176 1.344 . S
C1038 C666 1.344 . S
C1063 C190 1.344 . S
C1068 C638 1.344 . S
C1093 C204 1.344 . S
C1098 C652 1.344 . S
C1123 C568 1.344 . S
C1128 C218 1.344 . S
C1153 C554 1.344 . S
C1158 C232 1.344 . S
C1183 C246 1.344 . S
C1188 C470 1.344 . S
C1213 C484 1.344 . S
C1218 C260 1.344 . S
C1243 C274 1.344 . S
C1248 C498 1.344 . S
C1273 C456 1.344 . S
C1278 C288 1.344 . S
C1303 C526 1.344 . S
C1308 C302 1.344 . S
C1333 C316 1.344 . S
C1338 C540 1.344 . S
C1363 C512 1.344 . S
C1368 C330 1.344 . S
C1393 C133 1.261 . S
C1398 C7 1.261 . S
C1423 C147 1.261 . S
C1428 C21 1.261 . S
C1453 C35 1.261 . S
C1458 C161 1.261 . S
C1483 C119 1.261 . S
C1488 C49 1.261 . S
C1513 C63 1.261 . S
C1518 C217 1.261 . S
C1543 C175 1.261 . S
C1548 C77 1.261 . S
C1573 C189 1.261 . S
C1578 C91 1.261 . S
C1603 C203 1.261 . S
C1608 C105 1.261 . S
C1633 C259 1.261 . S
C1638 C231 1.261 . S
C1663 C315 1.261 . S
C1668 C245 1.261 . S
C1693 C329 1.261 . S
C1698 C273 1.261 . S
C1723 C287 1.261 . S
C1728 C301 1.261 . S
C1753 C469 1.261 . S
C1758 C343 1.261 . S
C1783 C483 1.261 . S
C1788 C357 1.261 . S
C1813 C497 1.261 . S
C1818 C371 1.261 . S
C1843 C385 1.261 . S
C1848 C455 1.261 . S
C1873 C399 1.261 . S
C1878 C553 1.261 . S
C1903 C413 1.261 . S
C1908 C511 1.261 . S
C1933 C525 1.261 . S
C1938 C427 1.261 . S
C1963 C539 1.261 . S
C1968 C441 1.261 . S
C1993 C567 1.261 . S
C1998 C595 1.261 . S
C2023 C651 1.261 . S
C2028 C581 1.261 . S
C2053 C665 1.261 . S
C2058 C609 1.261 . S
C2083 C637 1.261 . S
C2088 C623 1.261 . S
C2113 C3 1.417 . S
C2118 C261 1.392 1_554 S
C2143 C17 1.417 . S
C2148 C275 1.392 1_554 S
C2173 C31 1.417 . S
C2178 C289 1.392 1_554 S
C2203 C247 1.392 1_554 S
C2208 C45 1.417 . S
C2233 C59 1.417 . S
C2238 C317 1.392 1_556 S
C2263 C73 1.417 . S
C2268 C233 1.392 1_556 S
C2293 C331 1.392 1_556 S
C2298 C87 1.417 . S
C2323 C303 1.392 1_556 S
C2328 C101 1.417 . S
C2353 C115 1.417 . S
C2358 C135 1.392 1_455 S
C2383 C129 1.417 . S
C2388 C149 1.392 1_545 S
C2413 C143 1.417 . S
C2418 C163 1.392 1_655 S
C2443 C121 1.392 1_565 S
C2448 C157 1.417 . S
C2473 C219 1.392 1_455 S
C2478 C171 1.417 . S
C2503 C177 1.392 1_545 S
C2508 C185 1.417 . S
C2533 C191 1.392 1_655 S
C2538 C199 1.417 . S
C2563 C213 1.417 . S
C2568 C205 1.392 1_565 S
C2593 C51 1.392 1_545 S
C2598 C227 1.417 . S
C2623 C79 1.392 1_565 S
C2628 C241 1.417 . S
C2653 C93 1.392 1_455 S
C2658 C255 1.417 . S
C2683 C269 1.417 . S
C2688 C107 1.392 1_545 S
C2713 C65 1.392 1_655 S
C2718 C283 1.417 . S
C2743 C23 1.392 1_565 S
C2748 C297 1.417 . S
C2773 C37 1.392 1_455 S
C2778 C311 1.417 . S
C2803 C9 1.392 1_655 S
C2808 C325 1.417 . S
C2833 C597 1.392 . S
C2838 C339 1.417 . S
C2863 C353 1.417 . S
C2868 C611 1.392 . S
C2893 C625 1.392 . S
C2898 C367 1.417 . S
C2923 C583 1.392 . S
C2928 C381 1.417 . S
C2953 C395 1.417 . S
C2958 C653 1.392 . S
C2983 C409 1.417 . S
C2988 C569 1.392 . S
C3013 C667 1.392 . S
C3018 C423 1.417 . S
C3043 C437 1.417 . S
C3048 C639 1.392 . S
C3073 C451 1.417 . S
C3078 C471 1.392 . S
C3103 C465 1.417 . S
C3108 C485 1.392 . S
C3133 C479 1.417 . S
C3138 C499 1.392 . S
C3163 C493 1.417 . S
C3168 C457 1.392 . S
C3193 C555 1.392 . S
C3198 C507 1.417 . S
C3223 C513 1.392 . S
C3228 C521 1.417 . S
C3253 C527 1.392 . S
C3258 C535 1.417 . S
C3283 C549 1.417 . S
C3288 C541 1.392 . S
C3313 C387 1.392 . S
C3318 C563 1.417 . S
C3343 C415 1.392 . S
C3348 C577 1.417 . S
C3373 C429 1.392 . S
C3378 C591 1.417 . S
C3403 C605 1.417 . S
C3408 C443 1.392 . S
C3433 C401 1.392 . S
C3438 C619 1.417 . S
C3463 C359 1.392 . S
C3468 C633 1.417 . S
C3493 C647 1.417 . S
C3498 C373 1.392 . S
C3523 C345 1.392 . S
C3528 C661 1.417 . S
