# Generated by pormake.
# Topology sxc, (6)-cn, num edge types: 1
# Building blocks:
#     Node 0, Type 0, BuildingBlock: KUMBOL_clean_sbu_1, # of connection points: 6
#     Node 1, Type 0, BuildingBlock: KUMBOL_clean_sbu_1, # of connection points: 6
#     Node 2, Type 0, BuildingBlock: KUMBOL_clean_sbu_1, # of connection points: 6
#     Edge 3, Type (0, 0), BuildingBlock: AJUNOK_clean_linker_0, # of connection points: 2
#     Edge 4, Type (0, 0), BuildingBlock: AJUNOK_clean_linker_0, # of connection points: 2
#     Edge 5, Type (0, 0), BuildingBlock: AJUNOK_clean_linker_0, # of connection points: 2
#     Edge 6, Type (0, 0), BuildingBlock: AJUNOK_clean_linker_0, # of connection points: 2
#     Edge 7, Type (0, 0), BuildingBlock: AJUNOK_clean_linker_0, # of connection points: 2
#     Edge 8, Type (0, 0), BuildingBlock: AJUNOK_clean_linker_0, # of connection points: 2
#     Edge 9, Type (0, 0), BuildingBlock: AJUNOK_clean_linker_0, # of connection points: 2
#     Edge 10, Type (0, 0), BuildingBlock: AJUNOK_clean_linker_0, # of connection points: 2
#     Edge 11, Type (0, 0), BuildingBlock: AJUNOK_clean_linker_0, # of connection points: 2
# Relax obj value: 0.401
# Max RMSD: 0.176
# Mean RMSD: 0.133
data_MOF--net-sxc--node1-KUMBOL_clean_sbu_1--edge1-AJUNOK_clean_linker_0
_symmetry_space_group_name_H-M    P1
_symmetry_Int_Tables_number       1
_symmetry_cell_setting            triclinic
loop_
_symmetry_equiv_pos_as_xyz
'x, y, z'
_cell_length_a     11.61997
_cell_length_b     12.662857
_cell_length_c     32.409772
_cell_angle_alpha  104.96113
_cell_angle_beta   98.652917
_cell_angle_gamma 94.197088
loop_
_atom_site_label
_atom_site_type_symbol
_atom_site_fract_x
_atom_site_fract_y
_atom_site_fract_z
_atom_type_partial_charge
C0 C 0.43815 1.04635 0.05359 0.0
C1 C 0.56257 0.99344 -5e-05 0.0
C2 C 0.4726 1.05242 0.01444 0.0
C3 C 0.62768 0.94094 0.02698 0.0
C4 C 0.49971 0.98864 0.07973 0.0
C5 C 0.5972 0.93948 0.06685 0.0
N6 N 0.3426 1.09427 0.06539 0.0
C7 C 0.30584 1.09016 0.10302 0.0
C8 C 0.46262 0.98378 0.11838 0.0
C9 C 0.36494 1.03434 0.13 0.0
Gd10 Gd 0.98778 1.12914 0.96659 0.0
Gd11 Gd 0.28037 0.21058 0.02418 0.0
N12 N 0.42042 1.11681 -0.00903 0.0
C13 C 0.58644 0.99183 0.95902 0.0
C14 C 0.46179 1.13161 0.95524 0.0
C15 C 0.54009 1.06408 0.93717 0.0
H16 H 0.43755 0.19556 0.94056 0.0
H17 H 0.56685 1.06955 0.90712 0.0
H18 H 0.81892 1.12027 0.04445 0.0
H19 H 0.23332 1.13211 0.11279 0.0
H20 H 0.70744 0.25483 0.08638 0.0
H21 H 0.64154 0.93658 0.94424 0.0
H22 H 0.70471 0.90511 0.01814 0.0
H23 H 1.00062 0.19197 0.87354 0.0
H24 H 0.50839 0.94109 0.13945 0.0
H25 H 0.33547 1.0307 0.15979 0.0
H26 H 0.58515 0.46384 -0.01184 0.0
H27 H 0.64916 0.8991 0.08712 0.0
H28 H 0.76593 0.43309 0.86383 0.0
H29 H 0.92038 0.32157 0.83545 0.0
N30 N 0.90735 0.23953 0.92532 0.0
C31 C 0.81976 0.29469 0.9403 0.0
C32 C 0.93797 0.24297 0.88674 0.0
C33 C 0.80293 0.37628 0.88048 0.0
C34 C 0.8896 0.31441 0.86453 0.0
C35 C 0.76572 0.36519 0.91837 0.0
H36 H 0.62932 0.47183 0.91781 0.0
N37 N 0.83694 0.21085 -0.00173 0.0
C38 C 0.78925 0.2849 0.97908 0.0
C39 C 0.69367 0.34946 0.03964 0.0
C40 C 0.71079 0.35205 -0.00172 0.0
C41 C 0.79651 0.19029 0.03319 0.0
C42 C 0.73003 0.26384 0.05616 0.0
O43 O 0.22056 1.00918 0.01033 0.0
O44 O 1.0244 0.96651 0.98636 0.0
O45 O 0.81637 1.04318 0.93902 0.0
O46 O 0.95988 1.0005 0.90509 0.0
O47 O 0.25983 0.24247 0.95811 0.0
O48 O 0.1372 1.08965 0.93071 0.0
O49 O 1.04424 0.32827 0.97417 0.0
O50 O 0.22853 0.38132 0.01392 0.0
O51 O 0.45447 0.29432 0.0408 0.0
O52 O 0.34866 0.30499 0.0907 0.0
O53 O 1.01701 1.12845 0.03871 0.0
O54 O 0.13517 0.28188 0.05521 0.0
C55 C 0.12576 0.93043 -0.00191 0.0
C56 C 0.20613 0.16656 0.92404 0.0
C57 C 0.80872 0.85754 0.89915 0.0
C58 C 0.71296 0.71903 0.92681 0.0
C59 C 0.69571 0.69393 0.8492 0.0
C60 C 0.76376 0.79472 0.85673 0.0
C61 C 0.6654 0.65895 0.88395 0.0
C62 C 0.7925 0.8137 0.93383 0.0
C63 C 0.85058 0.97514 0.90695 0.0
C64 C 0.65247 0.41849 0.97563 0.0
C65 C 0.67779 0.42304 0.93533 0.0
H66 H 0.65121 0.41186 0.05857 0.0
C67 C 0.13246 0.41162 -0.00622 0.0
C68 C 1.06375 0.21989 0.06796 0.0
C69 C 0.46872 0.46412 0.0928 0.0
C70 C 0.52142 0.62819 0.07113 0.0
C71 C 0.54407 0.63409 0.14746 0.0
C72 C 0.50789 0.52151 0.13633 0.0
C73 C 0.55251 0.68683 0.11489 0.0
C74 C 0.46877 0.52001 0.06059 0.0
C75 C 0.44303 0.34406 0.08023 0.0
H76 H 0.66097 0.64567 0.81641 0.0
H77 H 0.77858 0.82495 0.82954 0.0
H78 H 0.60213 0.58704 0.87707 0.0
H79 H 0.82507 0.86304 0.96666 0.0
H80 H 0.57142 0.67852 0.18123 0.0
H81 H 0.51214 0.47911 0.16148 0.0
H82 H 0.58663 0.77177 0.12334 0.0
H83 H 0.44123 0.47545 0.0268 0.0
C84 C 0.37637 0.59719 0.39725 0.0
C85 C 0.38624 0.71711 0.3501 0.0
C86 C 0.33382 0.62365 0.35916 0.0
C87 C 0.47006 0.79094 0.38194 0.0
C88 C 0.46148 0.67061 0.42932 0.0
C89 C 0.50488 0.76933 0.42183 0.0
N90 N 0.33101 0.50206 0.4037 0.0
C91 C 0.36899 0.47387 0.44092 0.0
C92 C 0.49738 0.64367 0.46826 0.0
C93 C 0.45341 0.54366 0.47357 0.0
Gd94 Gd 0.11062 1.10488 0.31057 0.0
Gd95 Gd 0.1525 0.42614 0.35897 0.0
N96 N 0.23939 0.56034 0.33166 0.0
C97 C 0.35175 0.73413 0.30946 0.0
C98 C 0.19709 0.58414 0.29394 0.0
C99 C 0.25904 0.66484 0.28072 0.0
H100 H 0.11657 0.54128 0.27355 0.0
H101 H 0.23193 0.67722 0.24913 0.0
H102 H 0.97354 1.1038 0.39677 0.0
H103 H 0.3302 0.40025 0.44632 0.0
H104 H 0.77043 1.0764 0.40912 0.0
H105 H 0.39427 0.80158 0.30031 0.0
H106 H 0.50824 0.86525 0.37618 0.0
H107 H 0.09627 1.02384 0.20283 0.0
H108 H 0.55816 0.69896 0.49481 0.0
H109 H 0.4812 0.52223 0.50347 0.0
H110 H 0.54956 0.90852 0.26667 0.0
H111 H 0.56825 0.82893 0.44586 0.0
H112 H 0.75155 0.87042 0.14564 0.0
H113 H 0.95164 0.92542 0.13804 0.0
N114 N 0.9769 1.02241 0.24665 0.0
C115 C 0.86794 0.98593 0.25173 0.0
C116 C 1.00814 0.99938 0.20656 0.0
C117 C 0.81296 0.91242 0.17425 0.0
C118 C 0.92682 0.94341 0.16979 0.0
C119 C 0.78158 0.93376 0.21539 0.0
H120 H 0.59848 0.86886 0.19396 0.0
N121 N 0.92699 1.05475 0.32807 0.0
C122 C 0.84163 1.00236 0.29337 0.0
C123 C 0.69936 1.0094 0.34111 0.0
C124 C 0.72572 0.97824 0.29918 0.0
C125 C 0.9041 1.07386 0.36943 0.0
C126 C 0.78913 1.05651 0.37645 0.0
O127 O 0.33141 0.35586 0.35343 0.0
O128 O 0.29995 0.17503 0.31048 0.0
O129 O 0.17474 0.96494 0.26934 0.0
O130 O 0.13921 0.95794 0.33181 0.0
O131 O 1.07854 0.36826 0.28581 0.0
O132 O 0.15084 0.20145 0.26398 0.0
O133 O 0.94283 0.19724 0.31703 0.0
O134 O 0.95639 0.3856 0.33219 0.0
O135 O 0.0953 0.58631 0.38224 0.0
O136 O 0.1156 0.4768 0.42419 0.0
O137 O 0.19529 0.15993 0.38198 0.0
O138 O 1.08818 0.29762 0.38839 0.0
C139 C 0.37129 0.26612 0.3314 0.0
C140 C 0.09727 0.28277 0.25502 0.0
C141 C 1.06177 0.80488 0.27144 0.0
C142 C 0.87701 0.71421 0.27852 0.0
C143 C 0.92482 0.69986 0.20703 0.0
C144 C 1.0315 0.76556 0.226 0.0
C145 C 0.845 0.67872 0.23309 0.0
C146 C 0.9915 0.76538 0.29654 0.0
C147 C 0.15089 0.90112 0.29311 0.0
C148 C 0.63911 0.92803 0.26294 0.0
C149 C 0.66729 0.90504 0.2213 0.0
H150 H 0.6106 0.99527 0.3466 0.0
C151 C 0.89223 0.28961 0.32362 0.0
C152 C 0.1578 0.24272 0.40749 0.0
C153 C 0.97135 0.59474 0.43417 0.0
C154 C 0.77334 0.63832 0.41602 0.0
C155 C 0.87408 0.69011 0.49115 0.0
C156 C 0.97222 0.64352 0.47814 0.0
C157 C 0.77752 0.69149 0.46017 0.0
C158 C 0.86912 0.58436 0.40397 0.0
C159 C 1.08127 0.56908 0.41944 0.0
H160 H 0.90024 0.67258 0.17205 0.0
H161 H 1.08721 0.78985 0.20529 0.0
H162 H 0.75843 0.63878 0.21751 0.0
H163 H 1.0222 0.78553 0.33122 0.0
H164 H 0.87707 0.73541 0.52454 0.0
H165 H 1.05122 0.65204 0.50175 0.0
H166 H 0.71484 0.74624 0.4703 0.0
H167 H 0.87168 0.55108 0.36989 0.0
C168 C 0.36649 0.97858 0.5762 0.0
C169 C 0.5464 0.96491 0.62262 0.0
C170 C 0.42906 0.98754 0.61761 0.0
C171 C 0.59768 0.92608 0.58594 0.0
C172 C 0.41882 0.94184 0.53936 0.0
C173 C 0.53445 0.91558 0.54458 0.0
N174 N 0.25902 1.01516 0.57231 0.0
C175 C 0.19474 1.00648 0.53237 0.0
C176 C 0.35509 0.93727 0.49854 0.0
C177 C 0.24175 0.96725 0.49493 0.0
Gd178 Gd 0.2211 0.38332 0.69449 0.0
Gd179 Gd 0.19238 1.08216 0.63787 0.0
N180 N 0.38182 1.03556 0.65301 0.0
C181 C 0.6136 0.99621 0.66424 0.0
C182 C 0.44428 1.05729 0.6939 0.0
C183 C 0.56229 1.04132 0.70002 0.0
H184 H 0.40659 1.09655 0.72144 0.0
H185 H 0.61501 1.07006 0.73204 0.0
H186 H 0.98397 0.38829 0.62203 0.0
H187 H 0.10678 1.02952 0.52934 0.0
H188 H 0.78491 0.44225 0.62397 0.0
H189 H 0.70721 0.99391 0.66853 0.0
H190 H 0.68842 0.90974 0.58933 0.0
H191 H 0.37294 0.48203 0.79528 0.0
H192 H 0.39254 0.91223 0.46958 0.0
H193 H 0.19147 0.96233 0.46339 0.0
H194 H 0.80682 0.66269 0.77025 0.0
H195 H 0.57819 0.89184 0.51713 0.0
H196 H 0.15522 0.67538 0.87263 0.0
H197 H 0.3432 0.59818 0.86602 0.0
N198 N 0.20004 0.48564 0.7635 0.0
C199 C 0.09863 0.53214 0.76569 0.0
C200 C 0.28901 0.51204 0.79838 0.0
C201 C 0.1669 0.62256 0.8418 0.0
C202 C 0.27309 0.57905 0.83826 0.0
C203 C 1.07866 0.60057 0.80514 0.0
H204 H 0.9572 0.70014 0.83664 0.0
N205 N 1.04 0.45268 0.68992 0.0
C206 C 1.01613 0.51475 0.72801 0.0
C207 C 0.82436 0.5324 0.6917 0.0
C208 C 0.90897 0.5596 0.72952 0.0
C209 C 0.9628 0.4357 0.65209 0.0
C210 C 0.85075 0.46781 0.65307 0.0
O211 O 0.36324 0.18736 0.63251 0.0
O212 O 0.40032 0.31556 0.6971 0.0
O213 O 0.22062 0.54066 0.67868 0.0
O214 O 0.37441 0.50048 0.71624 0.0
O215 O 0.17886 1.11802 0.71069 0.0
O216 O 0.27416 0.29202 0.74396 0.0
O217 O 1.04206 0.2904 0.69723 0.0
O218 O 1.00534 1.13995 0.63771 0.0
O219 O 0.175 0.93405 0.65867 0.0
O220 O 0.10296 0.93099 0.59298 0.0
O221 O 0.22416 0.33522 0.62186 0.0
O222 O 0.09753 0.17831 0.59703 0.0
C223 C 0.4408 0.2579 0.66338 0.0
C224 C 0.22713 0.19655 0.7462 0.0
C225 C 0.34032 0.68645 0.73435 0.0
C226 C 0.50825 0.81965 0.76424 0.0
C227 C 0.32536 0.87933 0.74129 0.0
C228 C 0.27534 0.76958 0.72536 0.0
C229 C 0.44009 0.90539 0.76377 0.0
C230 C 0.45011 0.71727 0.76174 0.0
C231 C 0.32254 0.57666 0.70329 0.0
C232 C 0.88817 0.62656 0.76886 0.0
C233 C 0.97304 0.64729 0.80654 0.0
H234 H 0.73815 0.55943 0.69209 0.0
C235 C 0.96555 0.21483 0.66762 0.0
C236 C 0.15244 0.26416 0.59008 0.0
C237 C 1.02093 0.79966 0.62109 0.0
C238 C 0.83735 0.76414 0.64446 0.0
C239 C 0.90813 0.6226 0.59034 0.0
C240 C 1.01026 0.69156 0.59515 0.0
C241 C 0.82128 0.65925 0.61397 0.0
C242 C 0.93471 0.83671 0.64515 0.0
C243 C 0.12011 0.87448 0.62095 0.0
H244 H 0.28266 0.94305 0.73142 0.0
H245 H 0.19241 0.74976 0.70311 0.0
H246 H 0.48152 0.98892 0.7711 0.0
H247 H 0.5047 0.65348 0.76549 0.0
H248 H 0.89649 0.54035 0.56861 0.0
H249 H 1.07842 0.6624 0.57719 0.0
H250 H 0.74426 0.60187 0.60939 0.0
H251 H 0.94412 0.92226 0.66323 0.0
C252 C 1.07414 0.58633 0.95961 0.0
C253 C 0.12772 0.54376 -0.00562 0.0
C254 C 1.0751 0.70473 0.9609 0.0
C255 C 0.13009 0.79766 -0.00307 0.0
H256 H 1.03041 0.52683 0.93001 0.0
H257 H 1.03062 0.72339 0.93227 0.0
S258 S 0.26506 0.74278 0.10076 0.0
N259 N 0.22674 0.6166 0.06887 0.0
N260 N 0.22789 0.82692 0.07098 0.0
C261 C 0.18054 0.75587 0.03217 0.0
C262 C 0.17954 0.63564 0.03094 0.0
C263 C 0.59265 0.31972 0.3659 0.0
C264 C 0.50435 0.26826 0.32931 0.0
C265 C 0.71545 0.32655 0.36378 0.0
C266 C 0.75905 0.28396 0.32487 0.0
H267 H 0.56675 0.35573 0.39673 0.0
H268 H 0.77714 0.36525 0.39329 0.0
S269 S 0.5688 0.15101 0.21876 0.0
N270 N 0.47391 0.17702 0.25222 0.0
N271 N 0.70037 0.19333 0.24844 0.0
C272 C 0.67224 0.23245 0.28825 0.0
C273 C 0.54729 0.22352 0.29044 0.0
C274 C 0.63956 0.73987 0.66303 0.0
C275 C 0.75447 0.79278 0.67562 0.0
C276 C 0.56328 0.74873 0.69212 0.0
C277 C 0.59612 0.8126 0.73553 0.0
H278 H 0.60554 0.69223 0.63004 0.0
H279 H 0.47605 0.70711 0.67939 0.0
S280 S 0.85465 1.01873 0.77784 0.0
N281 N 0.87977 0.94444 0.73071 0.0
N282 N 0.72985 0.9615 0.7847 0.0
C283 C 0.70279 0.87895 0.74728 0.0
C284 C 0.78354 0.86902 0.71764 0.0
C285 C 0.74605 0.18959 0.62761 0.0
C286 C 0.8308 0.22338 0.66653 0.0
C287 C 0.62382 0.20559 0.62618 0.0
C288 C 0.57585 0.25433 0.66367 0.0
H289 H 0.77445 0.15128 0.59751 0.0
H290 H 0.56554 0.17658 0.59517 0.0
S291 S 0.75752 0.37066 0.77272 0.0
N292 N 0.85359 0.31696 0.74318 0.0
N293 N 0.62992 0.34629 0.74011 0.0
C294 C 0.66037 0.29261 0.70213 0.0
C295 C 0.78437 0.27652 0.70371 0.0
C296 C 0.54329 0.68436 0.96305 0.0
C297 C 0.66545 0.6954 0.96403 0.0
C298 C 0.49609 0.66931 -0.00116 0.0
C299 C 0.56954 0.66657 0.03711 0.0
H300 H 0.48378 0.68844 0.93455 0.0
H301 H 0.40179 0.65752 -0.0037 0.0
S302 S 0.89412 0.6879 0.05599 0.0
N303 N 0.85789 0.69983 0.00628 0.0
N304 N 0.76953 0.67316 0.07361 0.0
C305 C 0.69152 0.67862 0.03869 0.0
C306 C 0.73938 0.6923 0.00213 0.0
C307 C 0.76029 0.78408 0.38313 0.0
C308 C 0.70782 0.68068 0.38227 0.0
C309 C 0.81097 0.79479 0.34816 0.0
C310 C 0.7936 0.7108 0.30894 0.0
H311 H 0.78935 0.8464 0.41374 0.0
H312 H 0.87401 0.86513 0.35376 0.0
S313 S 0.56526 0.47272 0.28114 0.0
N314 N 0.57915 0.52287 0.33432 0.0
N315 N 0.6612 0.54947 0.26532 0.0
C316 C 0.70625 0.62367 0.30376 0.0
C317 C 0.66235 0.60895 0.341 0.0
C318 C 0.98223 0.20985 0.17839 0.0
C319 C 1.07258 0.28323 0.20828 0.0
C320 C 0.97762 0.18796 0.13297 0.0
C321 C 1.05412 0.24949 0.11562 0.0
H322 H 0.91654 0.16668 0.19025 0.0
H323 H 0.91453 1.12218 0.11174 0.0
S324 S 0.27593 0.48233 0.18117 0.0
N325 N 0.23113 0.42555 0.21716 0.0
N326 N 0.1972 0.41297 0.134 0.0
C327 C 0.12994 0.33756 0.1459 0.0
C328 C 0.14508 0.34828 0.19154 0.0
C329 C 0.25535 0.23215 0.48147 0.0
C330 C 0.15602 0.24913 0.45429 0.0
C331 C 0.2559 0.24384 0.52604 0.0
C332 C 0.15484 0.26617 0.54452 0.0
H333 H 0.3339 0.21178 0.46841 0.0
H334 H 0.3344 0.23036 0.54578 0.0
S335 S 0.87349 0.32213 0.48856 0.0
N336 N 0.95644 0.29873 0.45079 0.0
N337 N 0.95461 0.30803 0.5328 0.0
C338 C 1.05541 0.28343 0.51794 0.0
C339 C 1.05663 0.27778 0.47331 0.0
C340 C 0.28312 0.26501 0.82828 0.0
C341 C 0.22808 0.18035 0.79119 0.0
C342 C 0.2786 0.25948 0.87089 0.0
C343 C 0.22429 0.1659 0.87901 0.0
H344 H 0.33015 0.33757 0.82478 0.0
H345 H 0.31706 0.32998 0.89765 0.0
S346 S 0.09667 0.90702 0.79571 0.0
N347 N 0.12557 0.99419 0.76737 0.0
N348 N 0.13777 0.97672 0.84697 0.0
C349 C 0.17998 1.07576 0.84287 0.0
C350 C 0.17667 1.08448 0.7993 0.0
loop_
_geom_bond_atom_site_label_1
_geom_bond_atom_site_label_2
_geom_bond_distance
_geom_bond_site_symmetry_2
_ccdc_geom_bond_type
C0 C2 1.422 . S
C0 C4 1.415 . S
C0 N6 1.369 . S
C1 C2 1.421 . S
C1 C3 1.417 1_545 S
C1 C13 1.422 1_544 S
C2 C0 1.422 . S
C2 C1 1.421 . S
C2 N12 1.359 . S
C3 C1 1.417 1_565 S
C3 C5 1.329 1_565 S
C3 H22 0.930 . S
C4 C0 1.415 . S
C4 C5 1.437 . S
C4 C8 1.413 . S
C5 C3 1.329 1_545 S
C5 C4 1.437 . S
C5 H27 0.929 1_545 S
N6 C0 1.369 . S
N6 C7 1.338 . S
N6 Gd11 2.622 . S
C7 N6 1.338 . S
C7 C9 1.378 . S
C7 H19 0.929 . S
C8 C4 1.413 . S
C8 C9 1.348 . S
C8 H24 0.931 . S
C9 C7 1.378 . S
C9 C8 1.348 . S
C9 H25 0.930 . S
Gd10 N30 2.622 . S
Gd10 N37 2.570 1_556 S
Gd10 O44 2.353 1_545 S
Gd10 O45 2.468 1_546 S
Gd10 O46 2.427 1_545 S
Gd10 O48 2.388 . S
Gd10 O49 2.394 1_556 S
Gd10 O53 2.307 1_556 S
Gd10 C63 2.805 1_545 S
Gd11 N6 2.622 . S
Gd11 N12 2.570 . S
Gd11 O43 2.386 . S
Gd11 O47 2.307 1_554 S
Gd11 O50 2.353 . S
Gd11 O51 2.468 . S
Gd11 O52 2.427 . S
Gd11 O54 2.388 . S
Gd11 C75 2.805 . S
N12 C2 1.359 . S
N12 Gd11 2.570 . S
N12 C14 1.343 1_554 S
C13 C1 1.422 1_566 S
C13 C15 1.321 . S
C13 H21 0.931 . S
C14 N12 1.343 1_556 S
C14 C15 1.390 1_545 S
C14 H16 0.931 . S
C15 C13 1.321 . S
C15 C14 1.390 1_565 S
C15 H17 0.930 . S
H16 C14 0.931 . S
H17 C15 0.930 . S
H18 C41 0.931 . S
H19 C7 0.929 . S
H20 C42 0.930 . S
H21 C13 0.931 . S
H22 C3 0.930 . S
H23 C32 0.929 1_565 S
H24 C8 0.931 . S
H25 C9 0.930 . S
H26 C64 0.930 . S
H27 C5 0.929 1_565 S
H28 C33 0.931 . S
H29 C34 0.930 . S
N30 Gd10 2.622 . S
N30 C31 1.369 . S
N30 C32 1.338 . S
C31 N30 1.369 . S
C31 C35 1.415 . S
C31 C38 1.422 . S
C32 H23 0.929 1_545 S
C32 N30 1.338 . S
C32 C34 1.378 . S
C33 H28 0.931 . S
C33 C34 1.348 . S
C33 C35 1.413 . S
C34 H29 0.930 . S
C34 C32 1.378 . S
C34 C33 1.348 . S
C35 C31 1.415 . S
C35 C33 1.413 . S
C35 C65 1.437 . S
H36 C65 0.929 . S
N37 Gd10 2.570 1_554 S
N37 C38 1.359 1_554 S
N37 C41 1.343 . S
C38 C31 1.422 . S
C38 N37 1.359 1_556 S
C38 C40 1.421 1_556 S
C39 C40 1.422 . S
C39 C42 1.321 . S
C39 H66 0.931 . S
C40 C38 1.421 1_554 S
C40 C39 1.422 . S
C40 C64 1.417 1_554 S
C41 H18 0.931 . S
C41 N37 1.343 . S
C41 C42 1.390 . S
C42 H20 0.930 . S
C42 C39 1.321 . S
C42 C41 1.390 . S
O43 Gd11 2.386 . S
O43 C55 1.265 1_545 S
O44 Gd10 2.353 1_565 S
O44 C55 1.242 1_656 S
O45 Gd10 2.468 1_564 S
O45 C63 1.263 1_554 S
O46 Gd10 2.427 1_565 S
O46 C63 1.252 . S
O47 Gd11 2.307 1_556 S
O47 C56 1.261 . S
O48 Gd10 2.388 . S
O48 C56 1.252 1_655 S
O49 Gd10 2.394 1_554 S
O49 C67 1.271 . S
O50 Gd11 2.353 . S
O50 C67 1.242 1_455 S
O51 Gd11 2.468 . S
O51 C75 1.263 . S
O52 Gd11 2.427 . S
O52 C75 1.252 . S
O53 Gd10 2.307 1_554 S
O53 C68 1.261 . S
O54 Gd11 2.388 . S
O54 C68 1.252 1_455 S
C55 O43 1.265 1_565 S
C55 O44 1.242 1_454 S
C56 O47 1.261 . S
C56 O48 1.252 1_455 S
C57 C60 1.394 . S
C57 C62 1.370 1_556 S
C57 C63 1.500 . S
C58 C61 1.383 1_554 S
C58 C62 1.395 . S
C59 C60 1.396 . S
C59 C61 1.365 . S
C59 H76 0.929 . S
C60 C57 1.394 . S
C60 C59 1.396 . S
C60 H77 0.930 . S
C61 C58 1.383 1_556 S
C61 C59 1.365 . S
C61 H78 0.931 . S
C62 C57 1.370 1_554 S
C62 C58 1.395 . S
C62 H79 0.930 . S
C63 Gd10 2.805 1_565 S
C63 O45 1.263 1_556 S
C63 O46 1.252 . S
C63 C57 1.500 . S
C64 H26 0.930 . S
C64 C40 1.417 1_556 S
C64 C65 1.329 . S
C65 C35 1.437 . S
C65 H36 0.929 . S
C65 C64 1.329 . S
H66 C39 0.931 . S
C67 O49 1.271 . S
C67 O50 1.242 1_655 S
C68 O53 1.261 . S
C68 O54 1.252 1_655 S
C69 C72 1.394 . S
C69 C74 1.370 . S
C69 C75 1.500 . S
C70 C73 1.383 . S
C70 C74 1.395 . S
C71 C72 1.396 . S
C71 C73 1.365 . S
C71 H80 0.929 . S
C72 C69 1.394 . S
C72 C71 1.396 . S
C72 H81 0.930 . S
C73 C70 1.383 . S
C73 C71 1.365 . S
C73 H82 0.931 . S
C74 C69 1.370 . S
C74 C70 1.395 . S
C74 H83 0.930 1_554 S
C75 Gd11 2.805 . S
C75 O51 1.263 . S
C75 O52 1.252 . S
C75 C69 1.500 . S
H76 C59 0.929 . S
H77 C60 0.930 . S
H78 C61 0.931 . S
H79 C62 0.930 . S
H80 C71 0.929 . S
H81 C72 0.930 . S
H82 C73 0.931 . S
H83 C74 0.930 1_556 S
C84 C86 1.422 . S
C84 C88 1.415 . S
C84 N90 1.369 . S
C85 C86 1.421 . S
C85 C87 1.417 . S
C85 C97 1.422 . S
C86 C84 1.422 . S
C86 C85 1.421 . S
C86 N96 1.359 . S
C87 C85 1.417 . S
C87 C89 1.329 . S
C87 H106 0.930 . S
C88 C84 1.415 . S
C88 C89 1.437 . S
C88 C92 1.413 . S
C89 C87 1.329 . S
C89 C88 1.437 . S
C89 H111 0.929 . S
N90 C84 1.369 . S
N90 C91 1.338 . S
N90 Gd95 2.622 . S
C91 N90 1.338 . S
C91 C93 1.378 . S
C91 H103 0.929 . S
C92 C88 1.413 . S
C92 C93 1.348 . S
C92 H108 0.931 . S
C93 C91 1.378 . S
C93 C92 1.348 . S
C93 H109 0.930 . S
Gd94 N114 2.622 . S
Gd94 N121 2.570 . S
Gd94 O128 2.353 1_665 S
Gd94 O129 2.468 1_655 S
Gd94 O130 2.427 1_655 S
Gd94 O132 2.388 1_565 S
Gd94 O133 2.386 1_565 S
Gd94 O137 2.307 1_565 S
Gd94 C147 2.805 1_655 S
Gd95 N90 2.622 . S
Gd95 N96 2.570 . S
Gd95 O127 2.386 . S
Gd95 O131 2.307 . S
Gd95 O134 2.353 1_455 S
Gd95 O135 2.468 . S
Gd95 O136 2.427 . S
Gd95 O138 2.388 . S
Gd95 C159 2.805 . S
N96 C86 1.359 . S
N96 Gd95 2.570 . S
N96 C98 1.343 . S
C97 C85 1.422 . S
C97 C99 1.321 . S
C97 H105 0.931 . S
C98 N96 1.343 . S
C98 C99 1.390 . S
C98 H100 0.931 . S
C99 C97 1.321 . S
C99 C98 1.390 . S
C99 H101 0.930 . S
H100 C98 0.931 . S
H101 C99 0.930 . S
H102 C125 0.931 . S
H103 C91 0.929 . S
H104 C126 0.930 . S
H105 C97 0.931 . S
H106 C87 0.930 . S
H107 C116 0.929 . S
H108 C92 0.931 . S
H109 C93 0.930 . S
H110 C148 0.930 . S
H111 C89 0.929 . S
H112 C117 0.931 . S
H113 C118 0.930 . S
N114 Gd94 2.622 . S
N114 C115 1.369 . S
N114 C116 1.338 . S
C115 N114 1.369 . S
C115 C119 1.415 . S
C115 C122 1.422 . S
C116 H107 0.929 . S
C116 N114 1.338 . S
C116 C118 1.378 . S
C117 H112 0.931 . S
C117 C118 1.348 . S
C117 C119 1.413 . S
C118 H113 0.930 . S
C118 C116 1.378 . S
C118 C117 1.348 . S
C119 C115 1.415 . S
C119 C117 1.413 . S
C119 C149 1.437 . S
H120 C149 0.929 . S
N121 Gd94 2.570 . S
N121 C122 1.359 . S
N121 C125 1.343 . S
C122 C115 1.422 . S
C122 N121 1.359 . S
C122 C124 1.421 . S
C123 C124 1.422 . S
C123 C126 1.321 . S
C123 H150 0.931 . S
C124 C122 1.421 . S
C124 C123 1.422 . S
C124 C148 1.417 . S
C125 H102 0.931 . S
C125 N121 1.343 . S
C125 C126 1.390 . S
C126 H104 0.930 . S
C126 C123 1.321 . S
C126 C125 1.390 . S
O127 Gd95 2.386 . S
O127 C139 1.265 . S
O128 Gd94 2.353 1_445 S
O128 C139 1.242 . S
O129 Gd94 2.468 1_455 S
O129 C147 1.263 . S
O130 Gd94 2.427 1_455 S
O130 C147 1.252 . S
O131 Gd95 2.307 . S
O131 C140 1.261 . S
O132 Gd94 2.388 1_545 S
O132 C140 1.252 1_655 S
O133 Gd94 2.386 1_545 S
O133 C151 1.265 . S
O134 Gd95 2.353 1_655 S
O134 C151 1.242 . S
O135 Gd95 2.468 . S
O135 C159 1.263 . S
O136 Gd95 2.427 . S
O136 C159 1.252 . S
O137 Gd94 2.307 1_545 S
O137 C152 1.261 1_655 S
O138 Gd95 2.388 . S
O138 C152 1.252 . S
C139 O127 1.265 . S
C139 O128 1.242 . S
C140 O131 1.261 . S
C140 O132 1.252 1_455 S
C141 C144 1.394 . S
C141 C146 1.370 . S
C141 C147 1.500 . S
C142 C145 1.383 . S
C142 C146 1.395 . S
C143 C144 1.396 . S
C143 C145 1.365 . S
C143 H160 0.929 . S
C144 C141 1.394 . S
C144 C143 1.396 . S
C144 H161 0.930 . S
C145 C142 1.383 . S
C145 C143 1.365 . S
C145 H162 0.931 . S
C146 C141 1.370 . S
C146 C142 1.395 . S
C146 H163 0.930 . S
C147 Gd94 2.805 1_455 S
C147 O129 1.263 . S
C147 O130 1.252 . S
C147 C141 1.500 . S
C148 H110 0.930 . S
C148 C124 1.417 . S
C148 C149 1.329 . S
C149 C119 1.437 . S
C149 H120 0.929 . S
C149 C148 1.329 . S
H150 C123 0.931 . S
C151 O133 1.265 . S
C151 O134 1.242 . S
C152 O137 1.261 1_455 S
C152 O138 1.252 . S
C153 C156 1.394 . S
C153 C158 1.370 . S
C153 C159 1.500 1_655 S
C154 C157 1.383 . S
C154 C158 1.395 . S
C155 C156 1.396 . S
C155 C157 1.365 . S
C155 H164 0.929 . S
C156 C153 1.394 . S
C156 C155 1.396 . S
C156 H165 0.930 1_655 S
C157 C154 1.383 . S
C157 C155 1.365 . S
C157 H166 0.931 . S
C158 C153 1.370 . S
C158 C154 1.395 . S
C158 H167 0.930 . S
C159 Gd95 2.805 . S
C159 O135 1.263 . S
C159 O136 1.252 . S
C159 C153 1.500 1_455 S
H160 C143 0.929 . S
H161 C144 0.930 . S
H162 C145 0.931 . S
H163 C146 0.930 . S
H164 C155 0.929 . S
H165 C156 0.930 1_455 S
H166 C157 0.931 . S
H167 C158 0.930 . S
C168 C170 1.422 . S
C168 C172 1.415 . S
C168 N174 1.369 . S
C169 C170 1.421 . S
C169 C171 1.417 . S
C169 C181 1.422 . S
C170 C168 1.422 . S
C170 C169 1.421 . S
C170 N180 1.359 . S
C171 C169 1.417 . S
C171 C173 1.329 . S
C171 H190 0.930 . S
C172 C168 1.415 . S
C172 C173 1.437 . S
C172 C176 1.413 . S
C173 C171 1.329 . S
C173 C172 1.437 . S
C173 H195 0.929 . S
N174 C168 1.369 . S
N174 C175 1.338 . S
N174 Gd179 2.622 . S
C175 N174 1.338 . S
C175 C177 1.378 . S
C175 H187 0.929 . S
C176 C172 1.413 . S
C176 C177 1.348 . S
C176 H192 0.931 . S
C177 C175 1.378 . S
C177 C176 1.348 . S
C177 H193 0.930 . S
Gd178 N198 2.622 . S
Gd178 N205 2.570 . S
Gd178 O212 2.353 . S
Gd178 O213 2.468 . S
Gd178 O214 2.427 . S
Gd178 O216 2.388 . S
Gd178 O217 2.386 1_455 S
Gd178 O221 2.307 . S
Gd178 C231 2.805 . S
Gd179 N174 2.622 . S
Gd179 N180 2.570 . S
Gd179 O211 2.386 . S
Gd179 O215 2.307 . S
Gd179 O218 2.353 1_455 S
Gd179 O219 2.468 1_455 S
Gd179 O220 2.427 1_455 S
Gd179 O222 2.388 . S
Gd179 C243 2.805 1_455 S
N180 C170 1.359 . S
N180 Gd179 2.570 . S
N180 C182 1.343 . S
C181 C169 1.422 . S
C181 C183 1.321 . S
C181 H189 0.931 . S
C182 N180 1.343 . S
C182 C183 1.390 . S
C182 H184 0.931 . S
C183 C181 1.321 . S
C183 C182 1.390 . S
C183 H185 0.930 . S
H184 C182 0.931 . S
H185 C183 0.930 . S
H186 C209 0.931 . S
H187 C175 0.929 . S
H188 C210 0.930 . S
H189 C181 0.931 . S
H190 C171 0.930 . S
H191 C200 0.929 . S
H192 C176 0.931 . S
H193 C177 0.930 . S
H194 C232 0.930 . S
H195 C173 0.929 . S
H196 C201 0.931 . S
H197 C202 0.930 . S
N198 Gd178 2.622 . S
N198 C199 1.369 . S
N198 C200 1.338 . S
C199 N198 1.369 . S
C199 C203 1.415 1_455 S
C199 C206 1.422 1_455 S
C200 H191 0.929 . S
C200 N198 1.338 . S
C200 C202 1.378 . S
C201 H196 0.931 . S
C201 C202 1.348 1_655 S
C201 C203 1.413 . S
C202 H197 0.930 . S
C202 C200 1.378 . S
C202 C201 1.348 1_455 S
C203 C199 1.415 1_655 S
C203 C201 1.413 . S
C203 C233 1.437 . S
H204 C233 0.929 . S
N205 Gd178 2.570 . S
N205 C206 1.359 1_455 S
N205 C209 1.343 . S
C206 C199 1.422 1_655 S
C206 N205 1.359 1_655 S
C206 C208 1.421 . S
C207 C208 1.422 . S
C207 C210 1.321 . S
C207 H234 0.931 . S
C208 C206 1.421 . S
C208 C207 1.422 . S
C208 C232 1.417 . S
C209 H186 0.931 . S
C209 N205 1.343 . S
C209 C210 1.390 1_455 S
C210 H188 0.930 . S
C210 C207 1.321 . S
C210 C209 1.390 1_655 S
O211 Gd179 2.386 . S
O211 C223 1.265 1_565 S
O212 Gd178 2.353 . S
O212 C223 1.242 . S
O213 Gd178 2.468 . S
O213 C231 1.263 . S
O214 Gd178 2.427 . S
O214 C231 1.252 . S
O215 Gd179 2.307 . S
O215 C224 1.261 1_565 S
O216 Gd178 2.388 . S
O216 C224 1.252 . S
O217 Gd178 2.386 1_655 S
O217 C235 1.265 . S
O218 Gd179 2.353 1_655 S
O218 C235 1.242 1_565 S
O219 Gd179 2.468 1_655 S
O219 C243 1.263 . S
O220 Gd179 2.427 1_655 S
O220 C243 1.252 . S
O221 Gd178 2.307 . S
O221 C236 1.261 . S
O222 Gd179 2.388 . S
O222 C236 1.252 1_565 S
C223 O211 1.265 1_545 S
C223 O212 1.242 . S
C224 O215 1.261 1_545 S
C224 O216 1.252 . S
C225 C228 1.394 . S
C225 C230 1.370 . S
C225 C231 1.500 . S
C226 C229 1.383 . S
C226 C230 1.395 . S
C227 C228 1.396 . S
C227 C229 1.365 . S
C227 H244 0.929 . S
C228 C225 1.394 . S
C228 C227 1.396 . S
C228 H245 0.930 . S
C229 C226 1.383 . S
C229 C227 1.365 . S
C229 H246 0.931 . S
C230 C225 1.370 . S
C230 C226 1.395 . S
C230 H247 0.930 . S
C231 Gd178 2.805 . S
C231 O213 1.263 . S
C231 O214 1.252 . S
C231 C225 1.500 . S
C232 H194 0.930 . S
C232 C208 1.417 . S
C232 C233 1.329 . S
C233 C203 1.437 . S
C233 H204 0.929 . S
C233 C232 1.329 . S
H234 C207 0.931 . S
C235 O217 1.265 . S
C235 O218 1.242 1_545 S
C236 O221 1.261 . S
C236 O222 1.252 1_545 S
C237 C240 1.394 . S
C237 C242 1.370 . S
C237 C243 1.500 . S
C238 C241 1.383 . S
C238 C242 1.395 . S
C239 C240 1.396 . S
C239 C241 1.365 . S
C239 H248 0.929 . S
C240 C237 1.394 . S
C240 C239 1.396 . S
C240 H249 0.930 . S
C241 C238 1.383 . S
C241 C239 1.365 . S
C241 H250 0.931 . S
C242 C237 1.370 . S
C242 C238 1.395 . S
C242 H251 0.930 . S
C243 Gd179 2.805 1_655 S
C243 O219 1.263 . S
C243 O220 1.252 . S
C243 C237 1.500 . S
H244 C227 0.929 . S
H245 C228 0.930 . S
H246 C229 0.931 . S
H247 C230 0.930 . S
H248 C239 0.929 . S
H249 C240 0.930 . S
H250 C241 0.931 . S
H251 C242 0.930 . S
C252 C253 1.369 1_456 S
C252 C254 1.419 . S
C252 H256 0.930 . S
C253 C252 1.369 1_654 S
C253 C262 1.429 . S
C254 C252 1.419 . S
C254 C255 1.363 1_556 S
C254 H257 0.929 . S
C255 C254 1.363 1_554 S
C255 C261 1.428 1_455 S
H256 C252 0.930 . S
H257 C254 0.929 . S
S258 N259 1.613 . S
S258 N260 1.610 . S
N259 S258 1.613 . S
N259 C262 1.350 . S
N260 S258 1.610 . S
N260 C261 1.351 . S
C261 C255 1.428 1_655 S
C261 N260 1.351 . S
C261 C262 1.434 . S
C262 C253 1.429 . S
C262 N259 1.350 . S
C262 C261 1.434 . S
C263 C264 1.369 . S
C263 C265 1.419 . S
C263 H267 0.930 . S
C264 C263 1.369 . S
C264 C273 1.429 . S
C265 C263 1.419 . S
C265 C266 1.363 . S
C265 H268 0.929 . S
C266 C265 1.363 . S
C266 C272 1.428 . S
H267 C263 0.930 . S
H268 C265 0.929 . S
S269 N270 1.613 . S
S269 N271 1.610 1_565 S
N270 S269 1.613 . S
N270 C273 1.350 1_565 S
N271 S269 1.610 1_545 S
N271 C272 1.351 . S
C272 C266 1.428 . S
C272 N271 1.351 . S
C272 C273 1.434 . S
C273 C264 1.429 . S
C273 N270 1.350 1_545 S
C273 C272 1.434 . S
C274 C275 1.369 . S
C274 C276 1.419 . S
C274 H278 0.930 . S
C275 C274 1.369 . S
C275 C284 1.429 . S
C276 C274 1.419 . S
C276 C277 1.363 . S
C276 H279 0.929 . S
C277 C276 1.363 . S
C277 C283 1.428 . S
H278 C274 0.930 . S
H279 C276 0.929 . S
S280 N281 1.613 . S
S280 N282 1.610 . S
N281 S280 1.613 . S
N281 C284 1.350 . S
N282 S280 1.610 . S
N282 C283 1.351 . S
C283 C277 1.428 . S
C283 N282 1.351 . S
C283 C284 1.434 . S
C284 C275 1.429 . S
C284 N281 1.350 . S
C284 C283 1.434 . S
C285 C286 1.369 1_565 S
C285 C287 1.419 . S
C285 H289 0.930 . S
C286 C285 1.369 1_545 S
C286 C295 1.429 . S
C287 C285 1.419 . S
C287 C288 1.363 1_565 S
C287 H290 0.929 . S
C288 C287 1.363 1_545 S
C288 C294 1.428 . S
H289 C285 0.930 . S
H290 C287 0.929 . S
S291 N292 1.613 . S
S291 N293 1.610 . S
N292 S291 1.613 . S
N292 C295 1.350 . S
N293 S291 1.610 . S
N293 C294 1.351 . S
C294 C288 1.428 . S
C294 N293 1.351 . S
C294 C295 1.434 . S
C295 C286 1.429 . S
C295 N292 1.350 . S
C295 C294 1.434 . S
C296 C297 1.369 . S
C296 C298 1.419 . S
C296 H300 0.930 . S
C297 C296 1.369 . S
C297 C306 1.429 . S
C298 C296 1.419 . S
C298 C299 1.363 . S
C298 H301 0.929 . S
C299 C298 1.363 . S
C299 C305 1.428 1_554 S
H300 C296 0.930 . S
H301 C298 0.929 . S
S302 N303 1.613 . S
S302 N304 1.610 . S
N303 S302 1.613 . S
N303 C306 1.350 1_556 S
N304 S302 1.610 . S
N304 C305 1.351 . S
C305 C299 1.428 1_556 S
C305 N304 1.351 . S
C305 C306 1.434 1_556 S
C306 C297 1.429 . S
C306 N303 1.350 1_554 S
C306 C305 1.434 1_554 S
C307 C308 1.369 . S
C307 C309 1.419 1_655 S
C307 H311 0.930 . S
C308 C307 1.369 . S
C308 C317 1.429 . S
C309 C307 1.419 1_455 S
C309 C310 1.363 . S
C309 H312 0.929 . S
C310 C309 1.363 . S
C310 C316 1.428 . S
H311 C307 0.930 . S
H312 C309 0.929 . S
S313 N314 1.613 . S
S313 N315 1.610 1_655 S
N314 S313 1.613 . S
N314 C317 1.350 . S
N315 S313 1.610 1_455 S
N315 C316 1.351 . S
C316 C310 1.428 . S
C316 N315 1.351 . S
C316 C317 1.434 1_455 S
C317 C308 1.429 . S
C317 N314 1.350 . S
C317 C316 1.434 1_655 S
C318 C319 1.370 1_655 S
C318 C320 1.419 . S
C318 H322 0.930 . S
C319 C318 1.370 1_455 S
C319 C328 1.428 . S
C320 C318 1.419 . S
C320 C321 1.363 . S
C320 H323 0.929 . S
C321 C320 1.363 . S
C321 C327 1.428 1_655 S
H322 C318 0.930 . S
H323 C320 0.929 . S
S324 N325 1.613 . S
S324 N326 1.610 . S
N325 S324 1.613 . S
N325 C328 1.350 . S
N326 S324 1.610 . S
N326 C327 1.351 . S
C327 C321 1.428 1_455 S
C327 N326 1.351 . S
C327 C328 1.434 . S
C328 C319 1.428 . S
C328 N325 1.350 . S
C328 C327 1.434 . S
C329 C330 1.369 . S
C329 C331 1.419 . S
C329 H333 0.930 . S
C330 C329 1.369 . S
C330 C339 1.429 . S
C331 C329 1.419 . S
C331 C332 1.363 . S
C331 H334 0.929 1_545 S
C332 C331 1.363 . S
C332 C338 1.428 . S
H333 C329 0.930 . S
H334 C331 0.929 1_565 S
S335 N336 1.613 . S
S335 N337 1.610 . S
N336 S335 1.613 . S
N336 C339 1.350 1_655 S
N337 S335 1.610 . S
N337 C338 1.351 1_655 S
C338 C332 1.428 . S
C338 N337 1.351 1_455 S
C338 C339 1.434 . S
C339 C330 1.429 . S
C339 N336 1.350 1_455 S
C339 C338 1.434 . S
C340 C341 1.369 . S
C340 C342 1.419 . S
C340 H344 0.930 . S
C341 C340 1.369 . S
C341 C350 1.429 1_545 S
C342 C340 1.419 . S
C342 C343 1.363 . S
C342 H345 0.929 1_455 S
C343 C342 1.363 . S
C343 C349 1.428 1_545 S
H344 C340 0.930 . S
H345 C342 0.929 1_655 S
S346 N347 1.613 . S
S346 N348 1.610 . S
N347 S346 1.613 . S
N347 C350 1.350 . S
N348 S346 1.610 . S
N348 C349 1.351 . S
C349 C343 1.428 1_565 S
C349 N348 1.351 . S
C349 C350 1.434 . S
C350 C341 1.429 1_565 S
C350 N347 1.350 . S
C350 C349 1.434 . S
C253 C67 4.389 . S
C255 C55 4.387 . S
C264 C139 2.704 . S
C266 C151 2.702 . S
C275 C238 0.688 . S
C277 C226 0.669 . S
C286 C235 2.642 . S
C288 C223 2.640 . S
C297 C58 0.993 . S
C299 C70 1.015 . S
C308 C154 0.814 . S
C310 C142 0.817 . S
C319 C140 1.523 . S
C321 C68 1.526 . S
C330 C152 1.622 . S
C332 C236 1.584 . S
C341 C224 1.577 . S
C343 C56 1.584 . S
