# Generated by pormake.
# Topology xfy, (5)-cn, num edge types: 1
# Building blocks:
#     Node 0, Type 0, BuildingBlock: BEQFEK_clean_sbu_0, # of connection points: 5
#     Node 1, Type 0, BuildingBlock: BEQFEK_clean_sbu_0, # of connection points: 5
#     Node 2, Type 0, BuildingBlock: BEQFEK_clean_sbu_0, # of connection points: 5
#     Node 3, Type 0, BuildingBlock: BEQFEK_clean_sbu_0, # of connection points: 5
#     Node 4, Type 0, BuildingBlock: BEQFEK_clean_sbu_0, # of connection points: 5
#     Node 5, Type 0, BuildingBlock: BEQFEK_clean_sbu_0, # of connection points: 5
#     Node 6, Type 0, BuildingBlock: BEQFEK_clean_sbu_0, # of connection points: 5
#     Node 7, Type 0, BuildingBlock: BEQFEK_clean_sbu_0, # of connection points: 5
#     Edge 8, Type (0, 0), BuildingBlock: TEMPAE_clean_linker_10, # of connection points: 2
#     Edge 9, Type (0, 0), BuildingBlock: TEMPAE_clean_linker_10, # of connection points: 2
#     Edge 10, Type (0, 0), BuildingBlock: TEMPAE_clean_linker_10, # of connection points: 2
#     Edge 11, Type (0, 0), BuildingBlock: TEMPAE_clean_linker_10, # of connection points: 2
#     Edge 12, Type (0, 0), BuildingBlock: TEMPAE_clean_linker_10, # of connection points: 2
#     Edge 13, Type (0, 0), BuildingBlock: TEMPAE_clean_linker_10, # of connection points: 2
#     Edge 14, Type (0, 0), BuildingBlock: TEMPAE_clean_linker_10, # of connection points: 2
#     Edge 15, Type (0, 0), BuildingBlock: TEMPAE_clean_linker_10, # of connection points: 2
#     Edge 16, Type (0, 0), BuildingBlock: TEMPAE_clean_linker_10, # of connection points: 2
#     Edge 17, Type (0, 0), BuildingBlock: TEMPAE_clean_linker_10, # of connection points: 2
#     Edge 18, Type (0, 0), BuildingBlock: TEMPAE_clean_linker_10, # of connection points: 2
#     Edge 19, Type (0, 0), BuildingBlock: TEMPAE_clean_linker_10, # of connection points: 2
#     Edge 20, Type (0, 0), BuildingBlock: TEMPAE_clean_linker_10, # of connection points: 2
#     Edge 21, Type (0, 0), BuildingBlock: TEMPAE_clean_linker_10, # of connection points: 2
#     Edge 22, Type (0, 0), BuildingBlock: TEMPAE_clean_linker_10, # of connection points: 2
#     Edge 23, Type (0, 0), BuildingBlock: TEMPAE_clean_linker_10, # of connection points: 2
#     Edge 24, Type (0, 0), BuildingBlock: TEMPAE_clean_linker_10, # of connection points: 2
#     Edge 25, Type (0, 0), BuildingBlock: TEMPAE_clean_linker_10, # of connection points: 2
#     Edge 26, Type (0, 0), BuildingBlock: TEMPAE_clean_linker_10, # of connection points: 2
#     Edge 27, Type (0, 0), BuildingBlock: TEMPAE_clean_linker_10, # of connection points: 2
# Relax obj value: 0.383
# Max RMSD: 0.221
# Mean RMSD: 0.221
data_MOF--net-xfy--node1-BEQFEK_clean_sbu_0--edge1-TEMPAE_clean_linker_10
_symmetry_space_group_name_H-M    P1
_symmetry_Int_Tables_number       1
_symmetry_cell_setting            triclinic
loop_
_symmetry_equiv_pos_as_xyz
'x, y, z'
_cell_length_a     29.11724
_cell_length_b     29.129066
_cell_length_c     59.705982
_cell_angle_alpha  90.0679
_cell_angle_beta   89.955428
_cell_angle_gamma 89.949976
loop_
_atom_site_label
_atom_site_type_symbol
_atom_site_fract_x
_atom_site_fract_y
_atom_site_fract_z
_atom_type_partial_charge
Co0 Co 0.22422 0.03857 0.41031 0.0
Co1 Co 0.20663 0.12207 0.37832 0.0
C2 C 0.14606 0.03827 0.37825 0.0
O3 O 0.17056 0.0188 0.39311 0.0
O4 O 0.15537 0.0786 0.37125 0.0
C5 C 0.24017 0.94575 0.42684 0.0
O6 O 0.22889 0.93136 0.40672 0.0
C7 C 0.19148 0.17413 0.33672 0.0
C8 C 0.23136 0.23703 0.34366 0.0
C9 C 0.20697 0.21464 0.32698 0.0
N10 N 0.20746 0.17215 0.35781 0.0
N11 N 0.23028 0.21036 0.36202 0.0
C12 C 0.16076 0.13846 0.32667 0.0
H13 H 0.13372 0.12922 0.33889 0.0
H14 H 0.18107 0.10712 0.32291 0.0
H15 H 0.14369 0.15103 0.31126 0.0
C16 C 0.31163 0.03623 0.38598 0.0
N17 N 0.27113 0.05609 0.39064 0.0
N18 N 0.26399 0.09027 0.37663 0.0
C19 C 0.30004 0.09285 0.36241 0.0
C20 C 0.33091 0.0584 0.36781 0.0
C21 C 0.33147 0.99666 0.39869 0.0
H22 H 0.32479 0.00102 0.41685 0.0
H23 H 0.31487 0.96445 0.39299 0.0
H24 H 0.36905 0.99373 0.39594 0.0
O25 O 0.2059 0.08874 0.43023 0.0
O26 O 0.19608 0.14953 0.4085 0.0
H27 H 0.30528 0.16089 0.34941 0.0
H28 H 0.33431 0.11811 0.33269 0.0
C29 C 0.30344 0.12518 0.34305 0.0
H30 H 0.27239 0.1219 0.33245 0.0
H31 H 0.24696 0.21724 0.37712 0.0
O32 O 0.24215 0.98858 0.43074 0.0
C33 C 0.19603 0.13088 0.42776 0.0
Co34 Co 0.03907 0.76592 0.57942 0.0
Co35 Co 0.12836 0.77427 0.60832 0.0
C36 C 0.05418 0.84647 0.60905 0.0
O37 O 0.02996 0.82336 0.59542 0.0
O38 O 0.09346 0.83213 0.61544 0.0
C39 C 0.97566 0.78481 0.54746 0.0
O40 O 0.00468 0.81923 0.54609 0.0
C41 C 0.17984 0.77562 0.65025 0.0
C42 C 0.2476 0.74883 0.63978 0.0
C43 C 0.22241 0.76207 0.65839 0.0
N44 N 0.17952 0.76937 0.62798 0.0
N45 N 0.22035 0.75412 0.62175 0.0
C46 C 0.14013 0.79498 0.66318 0.0
H47 H 0.12532 0.82456 0.65408 0.0
H48 H 0.11292 0.76855 0.66475 0.0
H49 H 0.15071 0.80677 0.68007 0.0
C50 C 0.03021 0.67981 0.60362 0.0
N51 N 0.05244 0.71916 0.59954 0.0
N52 N 0.09018 0.72104 0.61161 0.0
C53 C 0.09335 0.68191 0.62369 0.0
C54 C 0.05534 0.65484 0.619 0.0
C55 C 0.98599 0.66639 0.59264 0.0
H56 H 0.96135 0.69539 0.59366 0.0
H57 H 0.97051 0.6357 0.60063 0.0
H58 H 0.99246 0.6591 0.57467 0.0
O59 O 0.08881 0.77349 0.5576 0.0
O60 O 0.1531 0.779 0.57725 0.0
H61 H 0.13263 0.63185 0.64237 0.0
H62 H 0.13287 0.68923 0.65359 0.0
C63 C 0.13353 0.66882 0.63793 0.0
H64 H 0.16593 0.67641 0.62892 0.0
H65 H 0.22906 0.74572 0.60529 0.0
O66 O 0.98277 0.75396 0.56204 0.0
C67 C 0.1321 0.77854 0.55854 0.0
Co68 Co 0.74804 0.93968 0.41505 0.0
Co69 Co 0.75176 0.85529 0.3823 0.0
C70 C 0.82915 0.92088 0.3848 0.0
O71 O 0.80794 0.94284 0.40004 0.0
O72 O 0.81142 0.88576 0.3755 0.0
C73 C 0.76793 0.0292 0.43177 0.0
O74 O 0.80039 0.02761 0.41653 0.0
C75 C 0.75699 0.80435 0.34048 0.0
C76 C 0.71588 0.74237 0.34779 0.0
C77 C 0.7406 0.76417 0.3311 0.0
N78 N 0.74305 0.80618 0.36187 0.0
N79 N 0.71905 0.76875 0.36628 0.0
C80 C 0.78129 0.84268 0.32874 0.0
H81 H 0.7712 0.87618 0.33613 0.0
H82 H 0.77353 0.84266 0.31054 0.0
H83 H 0.81886 0.83825 0.33094 0.0
C84 C 0.66446 0.95912 0.38987 0.0
N85 N 0.70166 0.93323 0.39379 0.0
N86 N 0.70216 0.89801 0.37996 0.0
C87 C 0.66468 0.90049 0.3667 0.0
C88 C 0.63973 0.93929 0.37262 0.0
C89 C 0.65311 0.00205 0.40254 0.0
H90 H 0.68298 0.02563 0.40202 0.0
H91 H 0.62275 0.01992 0.39546 0.0
H92 H 0.64648 0.99333 0.42034 0.0
O93 O 0.74893 0.88732 0.43561 0.0
O94 O 0.75616 0.82772 0.41272 0.0
H95 H 0.64961 0.83093 0.35797 0.0
H96 H 0.61785 0.87283 0.34193 0.0
C97 C 0.65149 0.86499 0.34977 0.0
H98 H 0.67816 0.86332 0.33654 0.0
H99 H 0.70351 0.76201 0.38169 0.0
O100 O 0.73996 0.99593 0.43357 0.0
C101 C 0.75381 0.84442 0.43242 0.0
Co102 Co 0.93509 0.24413 0.57591 0.0
Co103 Co 0.85821 0.22833 0.61169 0.0
C104 C 0.93747 0.16477 0.60849 0.0
O105 O 0.95304 0.18761 0.59195 0.0
O106 O 0.90055 0.17662 0.61845 0.0
C107 C 0.02711 0.25262 0.55806 0.0
O108 O 0.04069 0.23927 0.57801 0.0
C109 C 0.80918 0.21797 0.65438 0.0
C110 C 0.74328 0.2523 0.64667 0.0
C111 C 0.76745 0.23083 0.66364 0.0
N112 N 0.80959 0.23108 0.63284 0.0
N113 N 0.76983 0.25086 0.62822 0.0
C114 C 0.84975 0.19806 0.66632 0.0
H115 H 0.88214 0.20901 0.65814 0.0
H116 H 0.85013 0.20864 0.68418 0.0
H117 H 0.8477 0.16005 0.66556 0.0
C118 C 0.9462 0.33016 0.60089 0.0
N119 N 0.92368 0.29091 0.59668 0.0
N120 N 0.89145 0.28492 0.61189 0.0
C121 C 0.8926 0.32063 0.62635 0.0
C122 C 0.92773 0.34988 0.61995 0.0
C123 C 0.98514 0.34814 0.58708 0.0
H124 H 0.97811 0.34232 0.56905 0.0
H125 H 0.01702 0.32949 0.59162 0.0
H126 H 0.99057 0.38537 0.59001 0.0
O127 O 0.88103 0.23207 0.55728 0.0
O128 O 0.82799 0.21505 0.58255 0.0
H129 H 0.82646 0.32337 0.64189 0.0
H130 H 0.86966 0.35773 0.65575 0.0
C131 C 0.86315 0.32501 0.64677 0.0
H132 H 0.87038 0.29602 0.65824 0.0
H133 H 0.76154 0.26499 0.61269 0.0
O134 O 0.98457 0.25899 0.55451 0.0
C135 C 0.84068 0.21928 0.56229 0.0
Co136 Co 0.26547 0.56552 0.91939 0.0
Co137 Co 0.28138 0.62754 0.87757 0.0
C138 C 0.34568 0.55263 0.8869 0.0
O139 O 0.32228 0.54288 0.90433 0.0
O140 O 0.33392 0.58536 0.87398 0.0
C141 C 0.24842 0.47805 0.93964 0.0
O142 O 0.2511 0.46257 0.919 0.0
C143 C 0.29704 0.67024 0.83328 0.0
C144 C 0.24308 0.72366 0.83377 0.0
C145 C 0.27701 0.7046 0.8204 0.0
N146 N 0.27522 0.66875 0.85312 0.0
N147 N 0.24349 0.70117 0.85339 0.0
C148 C 0.3373 0.64059 0.82745 0.0
H149 H 0.36055 0.638 0.84208 0.0
H150 H 0.32503 0.60554 0.82329 0.0
H151 H 0.3569 0.65476 0.8131 0.0
C152 C 0.17645 0.55119 0.8978 0.0
N153 N 0.21772 0.57141 0.89876 0.0
N154 N 0.22612 0.5926 0.87983 0.0
C155 C 0.19169 0.5835 0.86537 0.0
C156 C 0.1587 0.55683 0.87628 0.0
C157 C 0.15332 0.53071 0.91787 0.0
H158 H 0.16624 0.54712 0.93341 0.0
H159 H 0.16102 0.49349 0.91876 0.0
H160 H 0.11553 0.53537 0.91694 0.0
O161 O 0.27793 0.62384 0.93377 0.0
O162 O 0.29365 0.66753 0.90441 0.0
H163 H 0.17724 0.62969 0.8385 0.0
H164 H 0.17487 0.56978 0.83077 0.0
C165 C 0.19341 0.59558 0.84102 0.0
H166 H 0.22954 0.59732 0.83522 0.0
H167 H 0.22127 0.70709 0.86682 0.0
O168 O 0.25146 0.52094 0.94322 0.0
C169 C 0.29019 0.66205 0.92553 0.0
Co170 Co 0.56683 0.75331 0.07488 0.0
Co171 Co 0.64448 0.74133 0.11062 0.0
C172 C 0.5657 0.67586 0.10796 0.0
O173 O 0.54859 0.69802 0.0916 0.0
O174 O 0.60296 0.68868 0.11727 0.0
C175 C 0.51186 0.73545 0.03914 0.0
O176 O 0.53827 0.69894 0.04053 0.0
C177 C 0.68831 0.73132 0.1543 0.0
C178 C 0.75509 0.76566 0.14892 0.0
C179 C 0.72862 0.74374 0.16491 0.0
N180 N 0.69085 0.74488 0.13287 0.0
N181 N 0.73111 0.76478 0.12964 0.0
C182 C 0.64623 0.71121 0.16484 0.0
H183 H 0.61492 0.72499 0.15667 0.0
H184 H 0.64493 0.71868 0.18306 0.0
H185 H 0.64681 0.67344 0.16249 0.0
C186 C 0.55389 0.84014 0.09856 0.0
N187 N 0.5776 0.80135 0.09489 0.0
N188 N 0.61025 0.79729 0.10999 0.0
C189 C 0.60843 0.83407 0.12378 0.0
C190 C 0.57242 0.86195 0.11703 0.0
C191 C 0.51321 0.85487 0.08503 0.0
H192 H 0.52252 0.85497 0.06701 0.0
H193 H 0.48504 0.82969 0.08735 0.0
H194 H 0.50097 0.88956 0.08993 0.0
O195 O 0.62138 0.73883 0.0569 0.0
O196 O 0.67629 0.72756 0.0819 0.0
H197 H 0.6748 0.83919 0.13886 0.0
H198 H 0.63133 0.87431 0.15214 0.0
C199 C 0.6382 0.84082 0.14391 0.0
H200 H 0.63166 0.81287 0.15607 0.0
H201 H 0.74151 0.7792 0.11447 0.0
O202 O 0.51713 0.76732 0.05343 0.0
C203 C 0.66246 0.72795 0.06169 0.0
Co204 Co 0.74631 0.42466 0.91995 0.0
Co205 Co 0.73516 0.35078 0.88248 0.0
C206 C 0.66208 0.41846 0.88965 0.0
O207 O 0.68574 0.43532 0.90562 0.0
O208 O 0.67682 0.3846 0.87816 0.0
C209 C 0.72999 0.48025 0.95671 0.0
O210 O 0.69876 0.44819 0.95948 0.0
C211 C 0.72569 0.30059 0.83985 0.0
C212 C 0.77802 0.24632 0.84442 0.0
C213 C 0.74685 0.26392 0.8292 0.0
N214 N 0.74359 0.30441 0.8605 0.0
N215 N 0.77421 0.27138 0.86326 0.0
C216 C 0.69314 0.33462 0.82978 0.0
H217 H 0.69926 0.36929 0.83685 0.0
H218 H 0.6967 0.33591 0.81129 0.0
H219 H 0.65745 0.32437 0.83395 0.0
C220 C 0.83025 0.44472 0.89543 0.0
N221 N 0.79199 0.41996 0.89831 0.0
N222 N 0.78606 0.39232 0.88119 0.0
C223 C 0.81942 0.40066 0.86599 0.0
C224 C 0.84872 0.4344 0.87449 0.0
C225 C 0.84999 0.47468 0.91345 0.0
H226 H 0.8411 0.46068 0.93016 0.0
H227 H 0.83506 0.50964 0.91212 0.0
H228 H 0.88793 0.47686 0.91212 0.0
O229 O 0.74386 0.36931 0.93794 0.0
O230 O 0.73016 0.31719 0.91174 0.0
H231 H 0.83707 0.34548 0.84398 0.0
H232 H 0.83969 0.40163 0.83111 0.0
C233 C 0.82052 0.37976 0.84309 0.0
H234 H 0.7851 0.3753 0.83678 0.0
H235 H 0.79398 0.26724 0.87769 0.0
O236 O 0.75688 0.47746 0.94003 0.0
C237 C 0.73525 0.32823 0.93225 0.0
Co238 Co 0.45557 0.27564 0.08331 0.0
Co239 Co 0.37102 0.2888 0.1152 0.0
C240 C 0.4486 0.35702 0.1133 0.0
O241 O 0.46993 0.33289 0.09889 0.0
O242 O 0.40978 0.34438 0.12104 0.0
C243 C 0.51708 0.28884 0.04923 0.0
O244 O 0.4914 0.32591 0.04817 0.0
C245 C 0.32141 0.29661 0.15796 0.0
C246 C 0.25434 0.26611 0.14913 0.0
C247 C 0.27936 0.28344 0.16697 0.0
N248 N 0.32148 0.28623 0.13602 0.0
N249 N 0.28101 0.2688 0.13078 0.0
C250 C 0.36063 0.31965 0.16966 0.0
H251 H 0.37549 0.34654 0.15881 0.0
H252 H 0.38786 0.29397 0.17316 0.0
H253 H 0.34942 0.33603 0.18553 0.0
C254 C 0.46238 0.18875 0.10707 0.0
N255 N 0.4421 0.22949 0.10381 0.0
N256 N 0.40659 0.23366 0.11731 0.0
C257 C 0.40315 0.19492 0.12965 0.0
C258 C 0.43841 0.16541 0.12346 0.0
C259 C 0.50367 0.17242 0.09437 0.0
H260 H 0.53079 0.19911 0.09499 0.0
H261 H 0.51756 0.13993 0.10131 0.0
H262 H 0.49419 0.16712 0.07655 0.0
O263 O 0.40383 0.28629 0.06301 0.0
O264 O 0.34309 0.29551 0.08492 0.0
H265 H 0.36824 0.14985 0.15288 0.0
H266 H 0.36733 0.21013 0.15999 0.0
C267 C 0.36551 0.18513 0.146 0.0
H268 H 0.3318 0.18927 0.13763 0.0
H269 H 0.27219 0.25722 0.1148 0.0
O270 O 0.50854 0.25941 0.06431 0.0
C271 C 0.36118 0.29403 0.06551 0.0
C272 C 0.55837 0.95392 0.38133 0.0
C273 C 0.59344 0.95265 0.3654 0.0
C274 C 0.51532 0.97193 0.37602 0.0
C275 C 0.50725 0.98888 0.35413 0.0
C276 C 0.54204 0.98564 0.33761 0.0
C277 C 0.58512 0.96754 0.34351 0.0
C278 C 0.47898 0.97404 0.3941 0.0
C279 C 0.53449 0.00288 0.31408 0.0
C280 C 0.38006 0.00175 0.34834 0.0
C281 C 0.37439 0.04613 0.35688 0.0
C282 C 0.42403 0.98412 0.34433 0.0
C283 C 0.46273 0.01151 0.34941 0.0
C284 C 0.45674 0.05825 0.35538 0.0
C285 C 0.41227 0.07513 0.35905 0.0
C286 C 0.42895 0.93454 0.33738 0.0
C287 C 0.49719 0.08868 0.36073 0.0
H288 H 0.56518 0.94194 0.39821 0.0
H289 H 0.61268 0.96647 0.3313 0.0
H290 H 0.46841 0.01017 0.397 0.0
H291 H 0.44809 0.95471 0.38872 0.0
H292 H 0.4911 0.95947 0.41023 0.0
H293 H 0.56121 0.98997 0.30236 0.0
H294 H 0.5002 0.99249 0.30777 0.0
H295 H 0.53568 0.04094 0.31405 0.0
H296 H 0.35032 0.97964 0.34654 0.0
H297 H 0.40747 0.10952 0.36564 0.0
H298 H 0.43569 0.91325 0.35243 0.0
H299 H 0.45829 0.92997 0.32573 0.0
H300 H 0.39722 0.92156 0.32923 0.0
H301 H 0.511 0.07934 0.37745 0.0
H302 H 0.48738 0.12554 0.36106 0.0
H303 H 0.52512 0.08375 0.34832 0.0
C304 C 0.99001 0.39331 0.63849 0.0
C305 C 0.9445 0.3916 0.63104 0.0
C306 C 0.01112 0.43549 0.643 0.0
C307 C 0.98611 0.47648 0.63946 0.0
C308 C 0.93859 0.47439 0.63439 0.0
C309 C 0.91821 0.43165 0.63024 0.0
C310 C 0.06143 0.43623 0.64901 0.0
C311 C 0.91065 0.51736 0.63064 0.0
C312 C 0.03396 0.59653 0.64768 0.0
C313 C 0.04623 0.60722 0.62564 0.0
C314 C 0.01649 0.55289 0.65294 0.0
C315 C 0.01116 0.52002 0.63565 0.0
C316 C 0.02653 0.53009 0.61367 0.0
C317 C 0.04397 0.57366 0.60898 0.0
C318 C 0.00129 0.54309 0.67661 0.0
C319 C 0.02205 0.49586 0.59474 0.0
H320 H 0.01003 0.36193 0.63919 0.0
H321 H 0.88297 0.42991 0.62444 0.0
H322 H 0.08199 0.44291 0.6337 0.0
H323 H 0.06894 0.46401 0.6612 0.0
H324 H 0.07275 0.40291 0.65618 0.0
H325 H 0.8732 0.51011 0.63034 0.0
H326 H 0.9177 0.54309 0.6439 0.0
H327 H 0.92044 0.53287 0.61434 0.0
H328 H 0.03579 0.62292 0.66047 0.0
H329 H 0.05382 0.58235 0.59198 0.0
H330 H 0.01017 0.50748 0.68157 0.0
H331 H 0.96342 0.54667 0.67774 0.0
H332 H 0.01704 0.56737 0.68874 0.0
H333 H 0.03927 0.46317 0.59922 0.0
H334 H 0.03725 0.50869 0.57886 0.0
H335 H 0.98524 0.48813 0.59174 0.0
C336 C 0.90088 0.50114 0.86897 0.0
C337 C 0.89031 0.45525 0.86429 0.0
C338 C 0.94517 0.51823 0.86554 0.0
C339 C 0.9782 0.49038 0.85452 0.0
C340 C 0.96465 0.44705 0.84588 0.0
C341 C 0.92162 0.42904 0.85183 0.0
C342 C 0.95675 0.56477 0.87527 0.0
C343 C 0.99591 0.41815 0.83144 0.0
C344 C 0.0885 0.55941 0.85147 0.0
C345 C 0.11569 0.53641 0.86727 0.0
C346 C 0.0456 0.54178 0.84496 0.0
C347 C 0.02769 0.50269 0.85612 0.0
C348 C 0.05598 0.47851 0.87144 0.0
C349 C 0.1005 0.49415 0.87556 0.0
C350 C 0.01964 0.5664 0.82671 0.0
C351 C 0.03916 0.43748 0.88462 0.0
H352 H 0.8755 0.52285 0.87698 0.0
H353 H 0.91377 0.39377 0.84758 0.0
H354 H 0.99125 0.56496 0.88315 0.0
H355 H 0.9563 0.59073 0.86173 0.0
H356 H 0.93134 0.5757 0.88812 0.0
H357 H 0.97733 0.40798 0.81597 0.0
H358 H 0.02791 0.43618 0.82653 0.0
H359 H 0.00472 0.38589 0.84033 0.0
H360 H 0.0998 0.59183 0.84456 0.0
H361 H 0.12259 0.47404 0.8863 0.0
H362 H 0.01118 0.60176 0.8323 0.0
H363 H 0.98769 0.54851 0.82161 0.0
H364 H 0.04207 0.56988 0.81175 0.0
H365 H 0.0028 0.44154 0.88985 0.0
H366 H 0.06006 0.43176 0.89994 0.0
H367 H 0.0421 0.4062 0.87414 0.0
C368 C 0.4658 0.10629 0.15036 0.0
C369 C 0.4459 0.11731 0.12975 0.0
C370 C 0.48415 0.06231 0.15404 0.0
C371 C 0.48277 0.0295 0.13652 0.0
C372 C 0.45923 0.03971 0.11637 0.0
C373 C 0.44095 0.08361 0.11329 0.0
C374 C 0.50795 0.05225 0.17591 0.0
C375 C 0.45679 0.00571 0.09726 0.0
C376 C 0.57756 0.94548 0.12385 0.0
C377 C 0.55492 0.90399 0.12756 0.0
C378 C 0.55579 0.98723 0.1287 0.0
C379 C 0.51062 0.98694 0.13761 0.0
C380 C 0.48967 0.94482 0.14345 0.0
C381 C 0.51196 0.90359 0.13806 0.0
C382 C 0.57927 0.03144 0.12216 0.0
C383 C 0.44213 0.94313 0.15348 0.0
H384 H 0.46966 0.1328 0.16299 0.0
H385 H 0.42554 0.09266 0.09735 0.0
H386 H 0.50062 0.01674 0.18159 0.0
H387 H 0.54563 0.05525 0.17358 0.0
H388 H 0.49736 0.0767 0.18925 0.0
H389 H 0.43426 0.01787 0.08347 0.0
H390 H 0.49174 -0.0001 0.09038 0.0
H391 H 0.44371 0.97216 0.10325 0.0
H392 H 0.61077 0.9453 0.11561 0.0
H393 H 0.49473 0.8711 0.14086 0.0
H394 H 0.57684 0.05697 0.1359 0.0
H395 H 0.56183 0.04628 0.10731 0.0
H396 H 0.61607 0.0261 0.11796 0.0
H397 H 0.43742 0.97078 0.16607 0.0
H398 H 0.43518 0.90947 0.16153 0.0
H399 H 0.41629 0.94845 0.14008 0.0
C400 C 0.07026 0.03834 0.35827 0.0
C401 C 0.10343 0.01497 0.37092 0.0
C402 C 0.02617 0.01982 0.35531 0.0
C403 C 0.01512 0.9773 0.36543 0.0
C404 C 0.04983 0.95155 0.37623 0.0
C405 C 0.09362 0.97062 0.37875 0.0
C406 C 0.99033 0.04782 0.34322 0.0
C407 C 0.03958 0.90605 0.38726 0.0
C408 C 0.89885 0.96709 0.39288 0.0
C409 C 0.87598 0.93614 0.37876 0.0
C410 C 0.94365 0.98135 0.38833 0.0
C411 C 0.96634 0.96456 0.36902 0.0
C412 C 0.94327 0.93416 0.35431 0.0
C413 C 0.8983 0.91995 0.35946 0.0
C414 C 0.96709 0.01351 0.40461 0.0
C415 C 0.96629 0.91613 0.33343 0.0
H416 H 0.07763 0.07231 0.35186 0.0
H417 H 0.1193 0.95178 0.38814 0.0
H418 H 0.9681 0.02552 0.33277 0.0
H419 H 0.96803 0.06525 0.35569 0.0
H420 H 0.00616 0.07448 0.3324 0.0
H421 H 0.07144 0.88709 0.39166 0.0
H422 H 0.01976 0.91214 0.40287 0.0
H423 H 0.01832 0.88409 0.3762 0.0
H424 H 0.88212 0.97956 0.40792 0.0
H425 H 0.88071 0.89623 0.34842 0.0
H426 H 0.97888 0.04485 0.39579 0.0
H427 H 0.99785 0.99658 0.41182 0.0
H428 H 0.94417 0.02407 0.41859 0.0
H429 H 0.9814 0.94481 0.32369 0.0
H430 H 0.94205 0.89697 0.32252 0.0
H431 H 0.99484 0.89282 0.33812 0.0
C432 C 0.9465 0.0959 0.63341 0.0
C433 C 0.96121 0.12177 0.61493 0.0
C434 C 0.96495 0.05215 0.63761 0.0
C435 C 0.99811 0.03373 0.62274 0.0
C436 C 0.01535 0.06104 0.60506 0.0
C437 C 0.99696 0.10482 0.60148 0.0
C438 C 0.94675 0.02455 0.65705 0.0
C439 C 0.05051 0.04267 0.5887 0.0
C440 C 0.0632 0.92154 0.62959 0.0
C441 C 0.03717 0.89239 0.61584 0.0
C442 C 0.04928 0.96715 0.63345 0.0
C443 C 0.00897 0.98391 0.623 0.0
C444 C 0.9813 0.95382 0.61021 0.0
C445 C 0.99552 0.90848 0.60698 0.0
C446 C 0.07892 0.99792 0.64773 0.0
C447 C 0.93815 0.97024 0.59862 0.0
H448 H 0.91947 0.10905 0.64414 0.0
H449 H 0.00904 0.12471 0.58733 0.0
H450 H 0.92199 -0.00138 0.6508 0.0
H451 H 0.97498 0.00586 0.66557 0.0
H452 H 0.92882 0.04661 0.66949 0.0
H453 H 0.06363 0.06973 0.57726 0.0
H454 H 0.08 0.02738 0.59775 0.0
H455 H 0.03474 0.01512 0.57841 0.0
H456 H 0.09515 0.90928 0.63674 0.0
H457 H 0.97473 0.8862 0.59655 0.0
H458 H 0.05747 0.01992 0.65875 0.0
H459 H 0.09931 0.02092 0.63678 0.0
H460 H 0.10311 0.97785 0.65827 0.0
H461 H 0.91485 0.98719 0.61078 0.0
H462 H 0.91916 0.94181 0.59037 0.0
H463 H 0.94723 0.99603 0.58568 0.0
C464 C 0.60104 0.4767 0.89713 0.0
C465 C 0.61584 0.43777 0.88526 0.0
C466 C 0.55636 0.49374 0.89467 0.0
C467 C 0.5255 0.47135 0.87999 0.0
C468 C 0.54049 0.43295 0.86739 0.0
C469 C 0.58558 0.41659 0.87015 0.0
C470 C 0.54179 0.53493 0.90837 0.0
C471 C 0.5085 0.4083 0.85155 0.0
C472 C 0.40143 0.49034 0.89644 0.0
C473 C 0.38914 0.52747 0.88273 0.0
C474 C 0.4449 0.4699 0.89478 0.0
C475 C 0.47693 0.487 0.87903 0.0
C476 C 0.46385 0.52259 0.86421 0.0
C477 C 0.42005 0.54239 0.86622 0.0
C478 C 0.45741 0.4318 0.9108 0.0
C479 C 0.49701 0.5416 0.84714 0.0
H480 H 0.62416 0.49357 0.90873 0.0
H481 H 0.59672 0.38655 0.86088 0.0
H482 H 0.52771 0.56203 0.89728 0.0
H483 H 0.5141 0.52492 0.92017 0.0
H484 H 0.57061 0.54972 0.91819 0.0
H485 H 0.52647 0.38148 0.84161 0.0
H486 H 0.48048 0.39177 0.86122 0.0
H487 H 0.49227 0.43308 0.83989 0.0
H488 H 0.37765 0.47815 0.90908 0.0
H489 H 0.41082 0.57083 0.85544 0.0
H490 H 0.48345 0.44443 0.92289 0.0
H491 H 0.47288 0.4025 0.90161 0.0
H492 H 0.42722 0.41921 0.92038 0.0
H493 H 0.52441 0.56114 0.85584 0.0
H494 H 0.47982 0.56487 0.83502 0.0
H495 H 0.51388 0.51336 0.83774 0.0
C496 C 0.50866 0.41731 0.10912 0.0
C497 C 0.46778 0.40252 0.11928 0.0
C498 C 0.524 0.46254 0.11147 0.0
C499 C 0.49824 0.49378 0.1246 0.0
C500 C 0.45892 0.4783 0.13633 0.0
C501 C 0.4439 0.43282 0.13342 0.0
C502 C 0.56604 0.47763 0.09857 0.0
C503 C 0.43123 0.51039 0.1509 0.0
C504 C 0.56058 0.60669 0.13295 0.0
C505 C 0.54365 0.63226 0.11483 0.0
C506 C 0.5436 0.56254 0.13753 0.0
C507 C 0.50951 0.54344 0.12344 0.0
C508 C 0.49038 0.57019 0.10601 0.0
C509 C 0.50745 0.61433 0.10203 0.0
C510 C 0.56402 0.53542 0.15661 0.0
C511 C 0.45416 0.55105 0.09048 0.0
H512 H 0.52775 0.39413 0.09836 0.0
H513 H 0.41254 0.42163 0.14152 0.0
H514 H 0.55579 0.50228 0.08532 0.0
H515 H 0.59051 0.49553 0.10979 0.0
H516 H 0.58412 0.44835 0.0905 0.0
H517 H 0.40716 0.49146 0.16199 0.0
H518 H 0.45414 0.53193 0.1614 0.0
H519 H 0.41087 0.53383 0.14015 0.0
H520 H 0.58814 0.62046 0.14312 0.0
H521 H 0.4938 0.63387 0.0881 0.0
H522 H 0.58772 0.509 0.14982 0.0
H523 H 0.53675 0.51727 0.1661 0.0
H524 H 0.5836 0.55766 0.16832 0.0
H525 H 0.46921 0.52299 0.08024 0.0
H526 H 0.44015 0.57754 0.07898 0.0
H527 H 0.42536 0.53622 0.10023 0.0
C528 C 0.2971 0.27107 0.20752 0.0
C529 C 0.26502 0.28101 0.19072 0.0
C530 C 0.2834 0.26525 0.2298 0.0
C531 C 0.23615 0.26718 0.23528 0.0
C532 C 0.20346 0.27714 0.21846 0.0
C533 C 0.21835 0.28423 0.19636 0.0
C534 C 0.31946 0.2551 0.24731 0.0
C535 C 0.15269 0.27819 0.22358 0.0
C536 C 0.21028 0.19501 0.28618 0.0
C537 C 0.20706 0.22827 0.30311 0.0
C538 C 0.21612 0.20758 0.26375 0.0
C539 C 0.22122 0.2545 0.2582 0.0
C540 C 0.21727 0.2884 0.27508 0.0
C541 C 0.2099 0.27485 0.29735 0.0
C542 C 0.21955 0.17036 0.24618 0.0
C543 C 0.22368 0.33868 0.26987 0.0
H544 H 0.33282 0.26579 0.20325 0.0
H545 H 0.19333 0.29121 0.18336 0.0
H546 H 0.31448 0.27744 0.26218 0.0
H547 H 0.31618 0.219 0.25297 0.0
H548 H 0.35486 0.26026 0.24084 0.0
H549 H 0.13205 0.29008 0.20906 0.0
H550 H 0.14105 0.24323 0.22828 0.0
H551 H 0.14567 0.30102 0.23807 0.0
H552 H 0.21083 0.15893 0.29043 0.0
H553 H 0.20809 0.30069 0.31041 0.0
H554 H 0.25567 0.1671 0.24048 0.0
H555 H 0.19842 0.17922 0.23134 0.0
H556 H 0.20816 0.13649 0.25266 0.0
H557 H 0.26008 0.34501 0.2653 0.0
H558 H 0.21474 0.36098 0.28435 0.0
H559 H 0.20236 0.34886 0.25532 0.0
C560 C 0.27456 0.76026 0.78891 0.0
C561 C 0.28339 0.71556 0.79643 0.0
C562 C 0.2714 0.77002 0.76599 0.0
C563 C 0.27752 0.73419 0.75026 0.0
C564 C 0.28968 0.6897 0.75769 0.0
C565 C 0.29173 0.68071 0.78073 0.0
C566 C 0.25786 0.8178 0.75875 0.0
C567 C 0.29699 0.65068 0.74139 0.0
C568 C 0.2054 0.739 0.6977 0.0
C569 C 0.23671 0.75583 0.68191 0.0
C570 C 0.21828 0.73245 0.72002 0.0
C571 C 0.26411 0.74144 0.72657 0.0
C572 C 0.2964 0.75699 0.71057 0.0
C573 C 0.28225 0.76408 0.68835 0.0
C574 C 0.18273 0.71577 0.73658 0.0
C575 C 0.34577 0.76589 0.7169 0.0
H576 H 0.26794 0.78726 0.80102 0.0
H577 H 0.29687 0.64573 0.78628 0.0
H578 H 0.28 0.82971 0.7448 0.0
H579 H 0.22196 0.81734 0.75251 0.0
H580 H 0.26012 0.84295 0.7727 0.0
H581 H 0.31411 0.62085 0.74944 0.0
H582 H 0.26332 0.63916 0.73478 0.0
H583 H 0.31807 0.66201 0.72694 0.0
H584 H 0.17087 0.73015 0.69257 0.0
H585 H 0.30671 0.77623 0.67601 0.0
H586 H 0.18006 0.74015 0.75082 0.0
H587 H 0.19325 0.68206 0.74352 0.0
H588 H 0.14821 0.712 0.72889 0.0
H589 H 0.34744 0.79256 0.73015 0.0
H590 H 0.36672 0.77735 0.7024 0.0
H591 H 0.3613 0.73421 0.72391 0.0
C592 C 0.70102 0.74797 0.29531 0.0
C593 C 0.74201 0.75146 0.30734 0.0
C594 C 0.70165 0.74275 0.27198 0.0
C595 C 0.74436 0.73972 0.26069 0.0
C596 C 0.78583 0.74044 0.27305 0.0
C597 C 0.78416 0.7471 0.29629 0.0
C598 C 0.65674 0.74322 0.25934 0.0
C599 C 0.8319 0.73594 0.26164 0.0
C600 C 0.7363 0.69986 0.2004 0.0
C601 C 0.73798 0.74178 0.18903 0.0
C602 C 0.74074 0.69831 0.22377 0.0
C603 C 0.74545 0.73985 0.23588 0.0
C604 C 0.74819 0.78218 0.2243 0.0
C605 C 0.74507 0.78252 0.2009 0.0
C606 C 0.73909 0.65249 0.23553 0.0
C607 C 0.75213 0.82729 0.23666 0.0
H608 H 0.66854 0.75185 0.30401 0.0
H609 H 0.81576 0.74977 0.30581 0.0
H610 H 0.65529 0.77397 0.24839 0.0
H611 H 0.65414 0.71263 0.24835 0.0
H612 H 0.62654 0.74383 0.27072 0.0
H613 H 0.86028 0.73117 0.27385 0.0
H614 H 0.83174 0.70645 0.24985 0.0
H615 H 0.83901 0.76729 0.2517 0.0
H616 H 0.73093 0.66844 0.191 0.0
H617 H 0.74591 0.81488 0.19194 0.0
H618 H 0.70688 0.64976 0.24535 0.0
H619 H 0.76811 0.64942 0.24747 0.0
H620 H 0.74057 0.62329 0.22356 0.0
H621 H 0.72151 0.83229 0.24749 0.0
H622 H 0.75489 0.85701 0.2251 0.0
H623 H 0.78266 0.82702 0.24775 0.0
C624 C 0.78604 0.25149 0.79295 0.0
C625 C 0.74518 0.25239 0.80525 0.0
C626 C 0.78544 0.24467 0.76976 0.0
C627 C 0.74296 0.23735 0.7588 0.0
C628 C 0.7017 0.23615 0.77136 0.0
C629 C 0.70325 0.24435 0.79452 0.0
C630 C 0.83008 0.2472 0.75689 0.0
C631 C 0.65601 0.22718 0.76028 0.0
C632 C 0.74315 0.27221 0.69788 0.0
C633 C 0.75498 0.23083 0.68747 0.0
C634 C 0.73718 0.27446 0.72112 0.0
C635 C 0.742 0.234 0.73404 0.0
C636 C 0.75091 0.19151 0.72334 0.0
C637 C 0.75801 0.19054 0.70011 0.0
C638 C 0.72876 0.3206 0.73195 0.0
C639 C 0.75496 0.14751 0.73652 0.0
H640 H 0.81838 0.25803 0.80136 0.0
H641 H 0.67177 0.24471 0.80423 0.0
H642 H 0.83552 0.21516 0.74719 0.0
H643 H 0.8286 0.27592 0.7447 0.0
H644 H 0.86015 0.25254 0.76802 0.0
H645 H 0.62792 0.22272 0.77269 0.0
H646 H 0.64705 0.25629 0.74914 0.0
H647 H 0.65805 0.19594 0.74967 0.0
H648 H 0.74108 0.30333 0.68797 0.0
H649 H 0.76674 0.15851 0.69186 0.0
H650 H 0.75889 0.33013 0.74234 0.0
H651 H 0.69857 0.31899 0.74325 0.0
H652 H 0.72291 0.34814 0.71942 0.0
H653 H 0.78727 0.14783 0.74635 0.0
H654 H 0.75522 0.11679 0.72547 0.0
H655 H 0.72611 0.1444 0.74858 0.0
C656 C 0.20503 0.78975 0.53659 0.0
C657 C 0.15689 0.78989 0.53762 0.0
C658 C 0.22808 0.80687 0.51764 0.0
C659 C 0.20227 0.82591 0.49982 0.0
C660 C 0.15372 0.8237 0.50031 0.0
C661 C 0.13174 0.8051 0.51902 0.0
C662 C 0.27988 0.80674 0.5173 0.0
C663 C 0.12467 0.84426 0.48187 0.0
C664 C 0.23927 0.93071 0.46785 0.0
C665 C 0.24162 0.91344 0.44593 0.0
C666 C 0.2302 0.90174 0.48599 0.0
C667 C 0.22463 0.8541 0.4822 0.0
C668 C 0.23227 0.83579 0.46054 0.0
C669 C 0.24001 0.86583 0.44252 0.0
C670 C 0.22198 0.92288 0.50877 0.0
C671 C 0.22892 0.78492 0.45609 0.0
H672 H 0.2247 0.77744 0.55077 0.0
H673 H 0.09452 0.8052 0.51959 0.0
H674 H 0.2932 0.80073 0.50012 0.0
H675 H 0.29275 0.84058 0.52304 0.0
H676 H 0.29405 0.78005 0.52864 0.0
H677 H 0.08739 0.83804 0.48443 0.0
H678 H 0.13043 0.88189 0.48113 0.0
H679 H 0.13466 0.82975 0.4654 0.0
H680 H 0.24112 0.96741 0.47073 0.0
H681 H 0.24275 0.85213 0.42568 0.0
H682 H 0.24198 0.90454 0.52177 0.0
H683 H 0.18509 0.91969 0.51321 0.0
H684 H 0.23143 0.95982 0.50929 0.0
H685 H 0.24437 0.76501 0.47003 0.0
H686 H 0.24627 0.77529 0.44019 0.0
H687 H 0.19227 0.77491 0.45481 0.0
C688 C 0.79544 0.77763 0.44874 0.0
C689 C 0.76673 0.81581 0.45184 0.0
C690 C 0.82239 0.76104 0.46644 0.0
C691 C 0.81996 0.78301 0.48757 0.0
C692 C 0.78546 0.81626 0.49159 0.0
C693 C 0.75927 0.83247 0.47359 0.0
C694 C 0.85799 0.72471 0.46159 0.0
C695 C 0.78066 0.83951 0.51407 0.0
C696 C 0.90073 0.75032 0.53513 0.0
C697 C 0.93603 0.78252 0.53208 0.0
C698 C 0.86251 0.7495 0.52072 0.0
C699 C 0.86019 0.78117 0.5028 0.0
C700 C 0.89625 0.8131 0.49949 0.0
C701 C 0.93351 0.81345 0.5142 0.0
C702 C 0.82481 0.71494 0.5247 0.0
C703 C 0.89536 0.8475 0.48053 0.0
H704 H 0.80082 0.76398 0.43204 0.0
H705 H 0.73615 0.86119 0.47619 0.0
H706 H 0.89148 0.74155 0.45823 0.0
H707 H 0.86259 0.70151 0.47612 0.0
H708 H 0.84864 0.7039 0.44667 0.0
H709 H 0.74657 0.85627 0.51594 0.0
H710 H 0.78544 0.81466 0.52794 0.0
H711 H 0.80753 0.86632 0.5157 0.0
H712 H 0.90265 0.7262 0.54891 0.0
H713 H 0.96081 0.83817 0.51164 0.0
H714 H 0.82523 0.68892 0.51112 0.0
H715 H 0.79066 0.73184 0.52432 0.0
H716 H 0.82884 0.69695 0.54098 0.0
H717 H 0.8921 0.82945 0.46423 0.0
H718 H 0.92678 0.86909 0.48 0.0
H719 H 0.86516 0.87047 0.48234 0.0
C720 C 0.72975 0.08337 0.45846 0.0
C721 C 0.76988 0.06442 0.44938 0.0
C722 C 0.73208 0.11482 0.47631 0.0
C723 C 0.77533 0.12539 0.48585 0.0
C724 C 0.81588 0.10637 0.47652 0.0
C725 C 0.81265 0.0769 0.45809 0.0
C726 C 0.68837 0.13606 0.48514 0.0
C727 C 0.86266 0.11559 0.48654 0.0
C728 C 0.80991 0.22322 0.52348 0.0
C729 C 0.8117 0.201 0.54424 0.0
C730 C 0.79252 0.20061 0.50455 0.0
C731 C 0.77898 0.15409 0.50634 0.0
C732 C 0.77749 0.13279 0.52765 0.0
C733 C 0.79311 0.15695 0.54647 0.0
C734 C 0.79242 0.22523 0.48233 0.0
C735 C 0.76463 0.08286 0.53026 0.0
H736 H 0.6967 0.07373 0.45156 0.0
H737 H 0.84361 0.06178 0.45115 0.0
H738 H 0.67945 0.12049 0.5015 0.0
H739 H 0.69301 0.17346 0.4879 0.0
H740 H 0.65907 0.13074 0.47351 0.0
H741 H 0.89049 0.09671 0.47772 0.0
H742 H 0.87049 0.1528 0.48582 0.0
H743 H 0.86297 0.10534 0.50444 0.0
H744 H 0.82412 0.25746 0.52184 0.0
H745 H 0.79498 0.13969 0.56253 0.0
H746 H 0.76146 0.21609 0.47245 0.0
H747 H 0.823 0.21476 0.47247 0.0
H748 H 0.79352 0.26309 0.48454 0.0
H749 H 0.73256 0.07503 0.52105 0.0
H750 H 0.75995 0.07313 0.5481 0.0
H751 H 0.79224 0.06111 0.52302 0.0
C752 C 0.15727 0.13284 0.46472 0.0
C753 C 0.17951 0.15671 0.44748 0.0
C754 C 0.13735 0.1561 0.48276 0.0
C755 C 0.14094 0.2045 0.48402 0.0
C756 C 0.16534 0.22875 0.46726 0.0
C757 C 0.18367 0.20458 0.44888 0.0
C758 C 0.11072 0.12887 0.49997 0.0
C759 C 0.17123 0.28014 0.4685 0.0
C760 C 0.04169 0.25293 0.51692 0.0
C761 C 0.05914 0.25135 0.53881 0.0
C762 C 0.06925 0.24144 0.49852 0.0
C763 C 0.11569 0.22907 0.50205 0.0
C764 C 0.13479 0.23235 0.52379 0.0
C765 C 0.10612 0.24299 0.54201 0.0
C766 C 0.04726 0.2379 0.47567 0.0
C767 C 0.18457 0.22096 0.5281 0.0
H768 H 0.15365 0.09585 0.46362 0.0
H769 H 0.2012 0.22305 0.43564 0.0
H770 H 0.12503 0.13486 0.51693 0.0
H771 H 0.07438 0.1404 0.50021 0.0
H772 H 0.1114 0.09138 0.49653 0.0
H773 H 0.19658 0.29285 0.45605 0.0
H774 H 0.13785 0.29725 0.46528 0.0
H775 H 0.18258 0.29052 0.48551 0.0
H776 H 0.00554 0.25991 0.51422 0.0
H777 H 0.12007 0.24249 0.55884 0.0
H778 H 0.04332 0.20115 0.47112 0.0
H779 H 0.06921 0.25408 0.46273 0.0
H780 H 0.01282 0.25432 0.47521 0.0
H781 H 0.18908 0.18314 0.52822 0.0
H782 H 0.19636 0.2346 0.5445 0.0
H783 H 0.20681 0.23501 0.51466 0.0
C784 C 0.35705 0.31718 0.02546 0.0
C785 C 0.33412 0.30774 0.04561 0.0
C786 C 0.33463 0.3392 0.00777 0.0
C787 C 0.28771 0.35105 0.01003 0.0
C788 C 0.26314 0.33752 0.02939 0.0
C789 C 0.28681 0.31649 0.04715 0.0
C790 C 0.36234 0.35329 0.98749 0.0
C791 C 0.21264 0.34787 0.03199 0.0
C792 C 0.26252 0.46187 0.97996 0.0
C793 C 0.24932 0.4459 0.95877 0.0
C794 C 0.27209 0.43122 -0.00263 0.0
C795 C 0.26722 0.38345 0.99366 0.0
C796 C 0.24963 0.36739 0.973 0.0
C797 C 0.24148 0.39883 0.95562 0.0
C798 C 0.29121 0.44988 0.01907 0.0
C799 C 0.24222 0.31687 0.96874 0.0
H800 H 0.39349 0.31016 0.02395 0.0
H801 H 0.26864 0.30865 0.06253 0.0
H802 H 0.3451 0.34198 0.97189 0.0
H803 H 0.36496 0.39129 0.9869 0.0
H804 H 0.39765 0.33879 0.9877 0.0
H805 H 0.19659 0.32613 0.04511 0.0
H806 H 0.20813 0.38434 0.03688 0.0
H807 H 0.19414 0.34252 0.01595 0.0
H808 H 0.26833 0.49823 0.98259 0.0
H809 H 0.2305 0.38636 0.93937 0.0
H810 H 0.32761 0.43912 0.02086 0.0
H811 H 0.27206 0.43578 0.03356 0.0
H812 H 0.28967 0.48796 0.01986 0.0
H813 H 0.27561 0.3003 0.96488 0.0
H814 H 0.21879 0.31099 0.95434 0.0
H815 H 0.22779 0.29976 0.98377 0.0
C816 C 0.3444 0.72596 0.93428 0.0
C817 C 0.30878 0.69679 0.94112 0.0
C818 C 0.37364 0.74619 0.95018 0.0
C819 C 0.36687 0.73667 0.97319 0.0
C820 C 0.32673 0.71335 0.98014 0.0
C821 C 0.29806 0.69367 0.96397 0.0
C822 C 0.41502 0.77263 0.94218 0.0
C823 C 0.31746 0.70349 0.00454 0.0
C824 C 0.47094 0.70129 0.00669 0.0
C825 C 0.4763 0.73816 0.02152 0.0
C826 C 0.43631 0.70137 0.9905 0.0
C827 C 0.40627 0.73953 0.98892 0.0
C828 C 0.41247 0.77776 0.00326 0.0
C829 C 0.44732 0.77649 0.01957 0.0
C830 C 0.4311 0.65975 0.97553 0.0
C831 C 0.38159 0.81929 0.00198 0.0
H832 H 0.35244 0.72921 0.91662 0.0
H833 H 0.26974 0.67215 0.96932 0.0
H834 H 0.42286 0.80155 0.95367 0.0
H835 H 0.44532 0.7495 0.94189 0.0
H836 H 0.40981 0.78629 0.925 0.0
H837 H 0.28137 0.69262 0.0074 0.0
H838 H 0.34049 0.67545 0.01025 0.0
H839 H 0.32466 0.73412 0.015 0.0
H840 H 0.49335 0.67167 0.00795 0.0
H841 H 0.45145 0.80526 0.03092 0.0
H842 H 0.43284 0.6701 0.95768 0.0
H843 H 0.39707 0.64364 0.97836 0.0
H844 H 0.45806 0.63349 0.9786 0.0
H845 H 0.3718 0.82704 0.98443 0.0
H846 H 0.39825 0.85007 0.00938 0.0
H847 H 0.34961 0.81246 0.01151 0.0
C848 C 0.72753 0.6775 0.04967 0.0
C849 C 0.6907 0.70628 0.04394 0.0
C850 C 0.74447 0.64508 0.03432 0.0
C851 C 0.72404 0.64165 0.01288 0.0
C852 C 0.69121 0.67466 0.00611 0.0
C853 C 0.67503 0.70674 0.02172 0.0
C854 C 0.78046 0.61127 0.04196 0.0
C855 C 0.669 0.67271 0.98328 0.0
C856 C 0.76299 0.55607 0.96859 0.0
C857 C 0.73159 0.52018 0.97201 0.0
C858 C 0.76232 0.59539 0.98226 0.0
C859 C 0.72928 0.59884 -0.00043 0.0
C860 C 0.69854 0.56204 0.00351 0.0
C861 C 0.70018 0.52319 0.98973 0.0
C862 C 0.79587 0.63372 0.97769 0.0
C863 C 0.66278 0.56423 0.02186 0.0
H864 H 0.74037 0.6773 0.06671 0.0
H865 H 0.64724 0.72956 0.017 0.0
H866 H 0.76352 0.57861 0.04676 0.0
H867 H 0.80511 0.60352 0.02829 0.0
H868 H 0.79975 0.62429 0.0567 0.0
H869 H 0.6504 0.70498 0.97926 0.0
H870 H 0.69497 0.6662 0.97006 0.0
H871 H 0.64401 0.64397 0.98286 0.0
H872 H 0.78753 0.55387 0.95497 0.0
H873 H 0.67601 0.49552 0.99259 0.0
H874 H 0.81113 0.64654 0.99352 0.0
H875 H 0.77752 0.66288 0.96978 0.0
H876 H 0.82398 0.62268 0.96629 0.0
H877 H 0.67944 0.57094 0.03824 0.0
H878 H 0.64259 0.532 0.0232 0.0
H879 H 0.63867 0.59298 0.01858 0.0
C880 C 0.68468 0.26562 0.94606 0.0
C881 C 0.72063 0.29649 0.95013 0.0
C882 C 0.65664 0.25058 0.96371 0.0
C883 C 0.66533 0.26672 0.98568 0.0
C884 C 0.7064 0.2909 0.99021 0.0
C885 C 0.73365 0.30567 0.97229 0.0
C886 C 0.614 0.22342 0.95831 0.0
C887 C 0.71788 0.30738 0.01352 0.0
C888 C 0.56263 0.31496 0.01646 0.0
C889 C 0.55479 0.28187 0.033 0.0
C890 C 0.59812 0.30979 0.00089 0.0
C891 C 0.62674 0.27044 0.00185 0.0
C892 C 0.61902 0.23665 0.01844 0.0
C893 C 0.58288 0.24268 0.03382 0.0
C894 C 0.60518 0.34694 0.98353 0.0
C895 C 0.6485 0.19413 0.01988 0.0
H896 H 0.67488 0.25774 0.92897 0.0
H897 H 0.76222 0.3286 0.97552 0.0
H898 H 0.6062 0.1984 0.97176 0.0
H899 H 0.58435 0.24724 0.95693 0.0
H900 H 0.61754 0.20474 0.94216 0.0
H901 H 0.75489 0.31606 0.01511 0.0
H902 H 0.69755 0.33873 0.01726 0.0
H903 H 0.70901 0.2811 0.02623 0.0
H904 H 0.54104 0.34525 0.01567 0.0
H905 H 0.57677 0.21681 0.04651 0.0
H906 H 0.60312 0.33208 0.96645 0.0
H907 H 0.63982 0.36229 0.98546 0.0
H908 H 0.57931 0.37487 0.98489 0.0
H909 H 0.63952 0.17056 0.00596 0.0
H910 H 0.64341 0.17557 0.03593 0.0
H911 H 0.68542 0.2028 0.01811 0.0
loop_
_geom_bond_atom_site_label_1
_geom_bond_atom_site_label_2
_geom_bond_distance
_geom_bond_site_symmetry_2
_ccdc_geom_bond_type
Co0 O3 1.970 . S
Co0 N17 1.989 . S
Co0 O25 1.967 . S
Co0 O32 1.920 . S
Co1 O4 1.966 . S
Co1 N10 2.022 . S
Co1 N18 1.993 . S
Co1 O26 1.941 . S
C2 O3 1.258 . S
C2 O4 1.263 . S
O3 Co0 1.970 . S
O3 C2 1.258 . S
O4 Co1 1.966 . S
O4 C2 1.263 . S
C5 O6 1.235 . S
C5 O32 1.289 1_565 S
O6 C5 1.235 . S
C7 C9 1.400 . S
C7 N10 1.351 . S
C7 C12 1.501 . S
C8 C9 1.387 . S
C8 N11 1.341 . S
C9 C7 1.400 . S
C9 C8 1.387 . S
N10 Co1 2.022 . S
N10 C7 1.351 . S
N10 N11 1.365 . S
N11 C8 1.341 . S
N11 N10 1.365 . S
N11 H31 0.862 . S
C12 C7 1.501 . S
C12 H13 0.961 . S
C12 H14 0.961 . S
C12 H15 0.960 . S
H13 C12 0.961 . S
H14 C12 0.961 . S
H15 C12 0.960 . S
C16 N17 1.342 . S
C16 C20 1.401 . S
C16 C21 1.499 . S
N17 Co0 1.989 . S
N17 C16 1.342 . S
N17 N18 1.388 . S
N18 Co1 1.993 . S
N18 N17 1.388 . S
N18 C19 1.346 . S
C19 N18 1.346 . S
C19 C20 1.396 . S
C19 C29 1.510 . S
C20 C16 1.401 . S
C20 C19 1.396 . S
C21 C16 1.499 . S
C21 H22 0.959 . S
C21 H23 0.960 1_545 S
C21 H24 0.961 . S
H22 C21 0.959 . S
H23 C21 0.960 1_565 S
H24 C21 0.961 . S
O25 Co0 1.967 . S
O25 C33 1.258 . S
O26 Co1 1.941 . S
O26 C33 1.266 . S
H27 C29 0.959 . S
H28 C29 0.961 . S
C29 C19 1.510 . S
C29 H27 0.959 . S
C29 H28 0.961 . S
C29 H30 0.960 . S
H30 C29 0.960 . S
H31 N11 0.862 . S
O32 Co0 1.920 . S
O32 C5 1.289 1_545 S
C33 O25 1.258 . S
C33 O26 1.266 . S
Co34 O37 1.970 . S
Co34 N51 1.989 . S
Co34 O59 1.967 . S
Co34 O66 1.920 . S
Co35 O38 1.966 . S
Co35 N44 2.022 . S
Co35 N52 1.993 . S
Co35 O60 1.941 . S
C36 O37 1.258 . S
C36 O38 1.263 . S
O37 Co34 1.970 . S
O37 C36 1.258 . S
O38 Co35 1.966 . S
O38 C36 1.263 . S
C39 O40 1.235 . S
C39 O66 1.289 1_655 S
O40 C39 1.235 . S
C41 C43 1.400 . S
C41 N44 1.351 . S
C41 C46 1.501 . S
C42 C43 1.387 . S
C42 N45 1.341 . S
C43 C41 1.400 . S
C43 C42 1.387 . S
N44 Co35 2.022 . S
N44 C41 1.351 . S
N44 N45 1.365 . S
N45 C42 1.341 . S
N45 N44 1.365 . S
N45 H65 0.862 . S
C46 C41 1.501 . S
C46 H47 0.961 . S
C46 H48 0.961 . S
C46 H49 0.960 . S
H47 C46 0.961 . S
H48 C46 0.961 . S
H49 C46 0.960 . S
C50 N51 1.342 . S
C50 C54 1.401 . S
C50 C55 1.499 . S
N51 Co34 1.989 . S
N51 C50 1.342 . S
N51 N52 1.388 . S
N52 Co35 1.993 . S
N52 N51 1.388 . S
N52 C53 1.346 . S
C53 N52 1.346 . S
C53 C54 1.396 . S
C53 C63 1.510 . S
C54 C50 1.401 . S
C54 C53 1.396 . S
C55 C50 1.499 . S
C55 H56 0.959 . S
C55 H57 0.960 1_455 S
C55 H58 0.961 . S
H56 C55 0.959 . S
H57 C55 0.960 1_655 S
H58 C55 0.961 . S
O59 Co34 1.967 . S
O59 C67 1.258 . S
O60 Co35 1.941 . S
O60 C67 1.266 . S
H61 C63 0.959 . S
H62 C63 0.961 . S
C63 C53 1.510 . S
C63 H61 0.959 . S
C63 H62 0.961 . S
C63 H64 0.960 . S
H64 C63 0.960 . S
H65 N45 0.862 . S
O66 Co34 1.920 . S
O66 C39 1.289 1_455 S
C67 O59 1.258 . S
C67 O60 1.266 . S
Co68 O71 1.970 . S
Co68 N85 1.989 . S
Co68 O93 1.967 . S
Co68 O100 1.920 . S
Co69 O72 1.966 . S
Co69 N78 2.022 . S
Co69 N86 1.993 . S
Co69 O94 1.941 . S
C70 O71 1.258 . S
C70 O72 1.263 . S
O71 Co68 1.970 . S
O71 C70 1.258 . S
O72 Co69 1.966 . S
O72 C70 1.263 . S
C73 O74 1.235 . S
C73 O100 1.289 1_545 S
O74 C73 1.235 . S
C75 C77 1.400 . S
C75 N78 1.351 . S
C75 C80 1.501 . S
C76 C77 1.387 . S
C76 N79 1.341 . S
C77 C75 1.400 . S
C77 C76 1.387 . S
N78 Co69 2.022 . S
N78 C75 1.351 . S
N78 N79 1.365 . S
N79 C76 1.341 . S
N79 N78 1.365 . S
N79 H99 0.862 . S
C80 C75 1.501 . S
C80 H81 0.961 . S
C80 H82 0.961 . S
C80 H83 0.960 . S
H81 C80 0.961 . S
H82 C80 0.961 . S
H83 C80 0.960 . S
C84 N85 1.342 . S
C84 C88 1.401 . S
C84 C89 1.499 . S
N85 Co68 1.989 . S
N85 C84 1.342 . S
N85 N86 1.388 . S
N86 Co69 1.993 . S
N86 N85 1.388 . S
N86 C87 1.346 . S
C87 N86 1.346 . S
C87 C88 1.396 . S
C87 C97 1.510 . S
C88 C84 1.401 . S
C88 C87 1.396 . S
C89 C84 1.499 . S
C89 H90 0.959 . S
C89 H91 0.960 1_565 S
C89 H92 0.961 . S
H90 C89 0.959 . S
H91 C89 0.960 1_545 S
H92 C89 0.961 . S
O93 Co68 1.967 . S
O93 C101 1.258 . S
O94 Co69 1.941 . S
O94 C101 1.266 . S
H95 C97 0.959 . S
H96 C97 0.961 . S
C97 C87 1.510 . S
C97 H95 0.959 . S
C97 H96 0.961 . S
C97 H98 0.960 . S
H98 C97 0.960 . S
H99 N79 0.862 . S
O100 Co68 1.920 . S
O100 C73 1.289 1_565 S
C101 O93 1.258 . S
C101 O94 1.266 . S
Co102 O105 1.970 . S
Co102 N119 1.989 . S
Co102 O127 1.967 . S
Co102 O134 1.920 . S
Co103 O106 1.966 . S
Co103 N112 2.022 . S
Co103 N120 1.993 . S
Co103 O128 1.941 . S
C104 O105 1.258 . S
C104 O106 1.263 . S
O105 Co102 1.970 . S
O105 C104 1.258 . S
O106 Co103 1.966 . S
O106 C104 1.263 . S
C107 O108 1.235 . S
C107 O134 1.289 1_455 S
O108 C107 1.235 . S
C109 C111 1.400 . S
C109 N112 1.351 . S
C109 C114 1.501 . S
C110 C111 1.387 . S
C110 N113 1.341 . S
C111 C109 1.400 . S
C111 C110 1.387 . S
N112 Co103 2.022 . S
N112 C109 1.351 . S
N112 N113 1.365 . S
N113 C110 1.341 . S
N113 N112 1.365 . S
N113 H133 0.862 . S
C114 C109 1.501 . S
C114 H115 0.961 . S
C114 H116 0.961 . S
C114 H117 0.960 . S
H115 C114 0.961 . S
H116 C114 0.961 . S
H117 C114 0.960 . S
C118 N119 1.342 . S
C118 C122 1.401 . S
C118 C123 1.499 . S
N119 Co102 1.989 . S
N119 C118 1.342 . S
N119 N120 1.388 . S
N120 Co103 1.993 . S
N120 N119 1.388 . S
N120 C121 1.346 . S
C121 N120 1.346 . S
C121 C122 1.396 . S
C121 C131 1.510 . S
C122 C118 1.401 . S
C122 C121 1.396 . S
C123 C118 1.499 . S
C123 H124 0.959 . S
C123 H125 0.960 1_655 S
C123 H126 0.961 . S
H124 C123 0.959 . S
H125 C123 0.960 1_455 S
H126 C123 0.961 . S
O127 Co102 1.967 . S
O127 C135 1.258 . S
O128 Co103 1.941 . S
O128 C135 1.266 . S
H129 C131 0.959 . S
H130 C131 0.961 . S
C131 C121 1.510 . S
C131 H129 0.959 . S
C131 H130 0.961 . S
C131 H132 0.960 . S
H132 C131 0.960 . S
H133 N113 0.862 . S
O134 Co102 1.920 . S
O134 C107 1.289 1_655 S
C135 O127 1.258 . S
C135 O128 1.266 . S
Co136 O139 1.970 . S
Co136 N153 1.989 . S
Co136 O161 1.967 . S
Co136 O168 1.920 . S
Co137 O140 1.966 . S
Co137 N146 2.022 . S
Co137 N154 1.993 . S
Co137 O162 1.941 . S
C138 O139 1.258 . S
C138 O140 1.263 . S
O139 Co136 1.970 . S
O139 C138 1.258 . S
O140 Co137 1.966 . S
O140 C138 1.263 . S
C141 O142 1.235 . S
C141 O168 1.289 . S
O142 C141 1.235 . S
C143 C145 1.400 . S
C143 N146 1.351 . S
C143 C148 1.501 . S
C144 C145 1.387 . S
C144 N147 1.341 . S
C145 C143 1.400 . S
C145 C144 1.387 . S
N146 Co137 2.022 . S
N146 C143 1.351 . S
N146 N147 1.365 . S
N147 C144 1.341 . S
N147 N146 1.365 . S
N147 H167 0.862 . S
C148 C143 1.501 . S
C148 H149 0.961 . S
C148 H150 0.961 . S
C148 H151 0.960 . S
H149 C148 0.961 . S
H150 C148 0.961 . S
H151 C148 0.960 . S
C152 N153 1.342 . S
C152 C156 1.401 . S
C152 C157 1.499 . S
N153 Co136 1.989 . S
N153 C152 1.342 . S
N153 N154 1.388 . S
N154 Co137 1.993 . S
N154 N153 1.388 . S
N154 C155 1.346 . S
C155 N154 1.346 . S
C155 C156 1.396 . S
C155 C165 1.510 . S
C156 C152 1.401 . S
C156 C155 1.396 . S
C157 C152 1.499 . S
C157 H158 0.959 . S
C157 H159 0.960 . S
C157 H160 0.961 . S
H158 C157 0.959 . S
H159 C157 0.960 . S
H160 C157 0.961 . S
O161 Co136 1.967 . S
O161 C169 1.258 . S
O162 Co137 1.941 . S
O162 C169 1.266 . S
H163 C165 0.959 . S
H164 C165 0.961 . S
C165 C155 1.510 . S
C165 H163 0.959 . S
C165 H164 0.961 . S
C165 H166 0.960 . S
H166 C165 0.960 . S
H167 N147 0.862 . S
O168 Co136 1.920 . S
O168 C141 1.289 . S
C169 O161 1.258 . S
C169 O162 1.266 . S
Co170 O173 1.970 . S
Co170 N187 1.989 . S
Co170 O195 1.967 . S
Co170 O202 1.920 . S
Co171 O174 1.966 . S
Co171 N180 2.022 . S
Co171 N188 1.993 . S
Co171 O196 1.941 . S
C172 O173 1.258 . S
C172 O174 1.263 . S
O173 Co170 1.970 . S
O173 C172 1.258 . S
O174 Co171 1.966 . S
O174 C172 1.263 . S
C175 O176 1.235 . S
C175 O202 1.289 . S
O176 C175 1.235 . S
C177 C179 1.400 . S
C177 N180 1.351 . S
C177 C182 1.501 . S
C178 C179 1.387 . S
C178 N181 1.341 . S
C179 C177 1.400 . S
C179 C178 1.387 . S
N180 Co171 2.022 . S
N180 C177 1.351 . S
N180 N181 1.365 . S
N181 C178 1.341 . S
N181 N180 1.365 . S
N181 H201 0.862 . S
C182 C177 1.501 . S
C182 H183 0.961 . S
C182 H184 0.961 . S
C182 H185 0.960 . S
H183 C182 0.961 . S
H184 C182 0.961 . S
H185 C182 0.960 . S
C186 N187 1.342 . S
C186 C190 1.401 . S
C186 C191 1.499 . S
N187 Co170 1.989 . S
N187 C186 1.342 . S
N187 N188 1.388 . S
N188 Co171 1.993 . S
N188 N187 1.388 . S
N188 C189 1.346 . S
C189 N188 1.346 . S
C189 C190 1.396 . S
C189 C199 1.510 . S
C190 C186 1.401 . S
C190 C189 1.396 . S
C191 C186 1.499 . S
C191 H192 0.959 . S
C191 H193 0.960 . S
C191 H194 0.961 . S
H192 C191 0.959 . S
H193 C191 0.960 . S
H194 C191 0.961 . S
O195 Co170 1.967 . S
O195 C203 1.258 . S
O196 Co171 1.941 . S
O196 C203 1.266 . S
H197 C199 0.959 . S
H198 C199 0.961 . S
C199 C189 1.510 . S
C199 H197 0.959 . S
C199 H198 0.961 . S
C199 H200 0.960 . S
H200 C199 0.960 . S
H201 N181 0.862 . S
O202 Co170 1.920 . S
O202 C175 1.289 . S
C203 O195 1.258 . S
C203 O196 1.266 . S
Co204 O207 1.970 . S
Co204 N221 1.989 . S
Co204 O229 1.967 . S
Co204 O236 1.920 . S
Co205 O208 1.966 . S
Co205 N214 2.022 . S
Co205 N222 1.993 . S
Co205 O230 1.941 . S
C206 O207 1.258 . S
C206 O208 1.263 . S
O207 Co204 1.970 . S
O207 C206 1.258 . S
O208 Co205 1.966 . S
O208 C206 1.263 . S
C209 O210 1.235 . S
C209 O236 1.289 . S
O210 C209 1.235 . S
C211 C213 1.400 . S
C211 N214 1.351 . S
C211 C216 1.501 . S
C212 C213 1.387 . S
C212 N215 1.341 . S
C213 C211 1.400 . S
C213 C212 1.387 . S
N214 Co205 2.022 . S
N214 C211 1.351 . S
N214 N215 1.365 . S
N215 C212 1.341 . S
N215 N214 1.365 . S
N215 H235 0.862 . S
C216 C211 1.501 . S
C216 H217 0.961 . S
C216 H218 0.961 . S
C216 H219 0.960 . S
H217 C216 0.961 . S
H218 C216 0.961 . S
H219 C216 0.960 . S
C220 N221 1.342 . S
C220 C224 1.401 . S
C220 C225 1.499 . S
N221 Co204 1.989 . S
N221 C220 1.342 . S
N221 N222 1.388 . S
N222 Co205 1.993 . S
N222 N221 1.388 . S
N222 C223 1.346 . S
C223 N222 1.346 . S
C223 C224 1.396 . S
C223 C233 1.510 . S
C224 C220 1.401 . S
C224 C223 1.396 . S
C225 C220 1.499 . S
C225 H226 0.959 . S
C225 H227 0.960 . S
C225 H228 0.961 . S
H226 C225 0.959 . S
H227 C225 0.960 . S
H228 C225 0.961 . S
O229 Co204 1.967 . S
O229 C237 1.258 . S
O230 Co205 1.941 . S
O230 C237 1.266 . S
H231 C233 0.959 . S
H232 C233 0.961 . S
C233 C223 1.510 . S
C233 H231 0.959 . S
C233 H232 0.961 . S
C233 H234 0.960 . S
H234 C233 0.960 . S
H235 N215 0.862 . S
O236 Co204 1.920 . S
O236 C209 1.289 . S
C237 O229 1.258 . S
C237 O230 1.266 . S
Co238 O241 1.970 . S
Co238 N255 1.989 . S
Co238 O263 1.967 . S
Co238 O270 1.920 . S
Co239 O242 1.966 . S
Co239 N248 2.022 . S
Co239 N256 1.993 . S
Co239 O264 1.941 . S
C240 O241 1.258 . S
C240 O242 1.263 . S
O241 Co238 1.970 . S
O241 C240 1.258 . S
O242 Co239 1.966 . S
O242 C240 1.263 . S
C243 O244 1.235 . S
C243 O270 1.289 . S
O244 C243 1.235 . S
C245 C247 1.400 . S
C245 N248 1.351 . S
C245 C250 1.501 . S
C246 C247 1.387 . S
C246 N249 1.341 . S
C247 C245 1.400 . S
C247 C246 1.387 . S
N248 Co239 2.022 . S
N248 C245 1.351 . S
N248 N249 1.365 . S
N249 C246 1.341 . S
N249 N248 1.365 . S
N249 H269 0.862 . S
C250 C245 1.501 . S
C250 H251 0.961 . S
C250 H252 0.961 . S
C250 H253 0.960 . S
H251 C250 0.961 . S
H252 C250 0.961 . S
H253 C250 0.960 . S
C254 N255 1.342 . S
C254 C258 1.401 . S
C254 C259 1.499 . S
N255 Co238 1.989 . S
N255 C254 1.342 . S
N255 N256 1.388 . S
N256 Co239 1.993 . S
N256 N255 1.388 . S
N256 C257 1.346 . S
C257 N256 1.346 . S
C257 C258 1.396 . S
C257 C267 1.510 . S
C258 C254 1.401 . S
C258 C257 1.396 . S
C259 C254 1.499 . S
C259 H260 0.959 . S
C259 H261 0.960 . S
C259 H262 0.961 . S
H260 C259 0.959 . S
H261 C259 0.960 . S
H262 C259 0.961 . S
O263 Co238 1.967 . S
O263 C271 1.258 . S
O264 Co239 1.941 . S
O264 C271 1.266 . S
H265 C267 0.959 . S
H266 C267 0.961 . S
C267 C257 1.510 . S
C267 H265 0.959 . S
C267 H266 0.961 . S
C267 H268 0.960 . S
H268 C267 0.960 . S
H269 N249 0.862 . S
O270 Co238 1.920 . S
O270 C243 1.289 . S
C271 O263 1.258 . S
C271 O264 1.266 . S
C272 C273 1.391 . S
C272 C274 1.394 . S
C272 H288 0.931 . S
C273 C272 1.391 . S
C273 C277 1.376 . S
C274 C272 1.394 . S
C274 C275 1.369 . S
C274 C278 1.531 . S
C275 C274 1.369 . S
C275 C276 1.410 1_565 S
C275 C283 1.503 1_565 S
C276 C275 1.410 1_545 S
C276 C277 1.392 1_545 S
C276 C279 1.511 . S
C277 C273 1.376 . S
C277 C276 1.392 1_565 S
C277 H289 0.929 . S
C278 C274 1.531 . S
C278 H290 0.960 . S
C278 H291 0.962 . S
C278 H292 0.960 . S
C279 C276 1.511 . S
C279 H293 0.961 . S
C279 H294 0.961 . S
C279 H295 0.961 . S
C280 C281 1.370 . S
C280 C282 1.363 1_545 S
C280 H296 0.931 1_545 S
C281 C280 1.370 . S
C281 C285 1.408 . S
C282 C280 1.363 1_565 S
C282 C283 1.370 1_565 S
C282 C286 1.524 . S
C283 C275 1.503 1_545 S
C283 C282 1.370 1_545 S
C283 C284 1.403 . S
C284 C283 1.403 . S
C284 C285 1.404 . S
C284 C287 1.539 . S
C285 C281 1.408 . S
C285 C284 1.404 . S
C285 H297 0.930 . S
C286 C282 1.524 . S
C286 H298 0.956 . S
C286 H299 0.961 . S
C286 H300 0.961 . S
C287 C284 1.539 . S
C287 H301 0.958 . S
C287 H302 0.961 . S
C287 H303 0.960 . S
H288 C272 0.931 . S
H289 C277 0.929 . S
H290 C278 0.960 . S
H291 C278 0.962 . S
H292 C278 0.960 . S
H293 C279 0.961 . S
H294 C279 0.961 . S
H295 C279 0.961 . S
H296 C280 0.931 1_565 S
H297 C285 0.930 . S
H298 C286 0.956 . S
H299 C286 0.961 . S
H300 C286 0.961 . S
H301 C287 0.958 . S
H302 C287 0.961 . S
H303 C287 0.960 . S
C304 C305 1.391 . S
C304 C306 1.394 1_655 S
C304 H320 0.938 . S
C305 C304 1.391 . S
C305 C309 1.376 . S
C306 C304 1.394 1_455 S
C306 C307 1.369 1_455 S
C306 C310 1.531 . S
C307 C306 1.369 1_655 S
C307 C308 1.410 . S
C307 C315 1.503 1_655 S
C308 C307 1.410 . S
C308 C309 1.392 . S
C308 C311 1.511 . S
C309 C305 1.376 . S
C309 C308 1.392 . S
C309 H321 0.929 . S
C310 C306 1.531 . S
C310 H322 0.960 . S
C310 H323 0.962 . S
C310 H324 0.960 . S
C311 C308 1.511 . S
C311 H325 0.961 . S
C311 H326 0.961 . S
C311 H327 0.961 . S
C312 C313 1.370 . S
C312 C314 1.363 . S
C312 H328 0.931 . S
C313 C312 1.370 . S
C313 C317 1.408 . S
C314 C312 1.363 . S
C314 C315 1.370 . S
C314 C318 1.524 . S
C315 C307 1.503 1_455 S
C315 C314 1.370 . S
C315 C316 1.403 . S
C316 C315 1.403 . S
C316 C317 1.404 . S
C316 C319 1.539 1_455 S
C317 C313 1.408 . S
C317 C316 1.404 . S
C317 H329 0.930 . S
C318 C314 1.524 . S
C318 H330 0.956 . S
C318 H331 0.961 . S
C318 H332 0.961 . S
C319 C316 1.539 1_655 S
C319 H333 0.958 . S
C319 H334 0.961 . S
C319 H335 0.960 . S
H320 C304 0.938 . S
H321 C309 0.929 . S
H322 C310 0.960 . S
H323 C310 0.962 . S
H324 C310 0.960 . S
H325 C311 0.961 . S
H326 C311 0.961 . S
H327 C311 0.961 . S
H328 C312 0.931 . S
H329 C317 0.930 . S
H330 C318 0.956 . S
H331 C318 0.961 . S
H332 C318 0.961 . S
H333 C319 0.958 . S
H334 C319 0.961 . S
H335 C319 0.960 . S
C336 C337 1.391 . S
C336 C338 1.394 . S
C336 H352 0.931 . S
C337 C336 1.391 . S
C337 C341 1.376 . S
C338 C336 1.394 . S
C338 C339 1.369 . S
C338 C342 1.531 . S
C339 C338 1.369 . S
C339 C340 1.410 . S
C339 C347 1.503 1_655 S
C340 C339 1.410 . S
C340 C341 1.392 . S
C340 C343 1.511 1_655 S
C341 C337 1.376 . S
C341 C340 1.392 . S
C341 H353 0.929 . S
C342 C338 1.531 . S
C342 H354 0.960 . S
C342 H355 0.962 . S
C342 H356 0.960 . S
C343 C340 1.511 1_455 S
C343 H357 0.968 . S
C343 H358 0.961 . S
C343 H359 0.961 . S
C344 C345 1.370 . S
C344 C346 1.363 . S
C344 H360 0.931 . S
C345 C344 1.370 . S
C345 C349 1.408 . S
C346 C344 1.363 . S
C346 C347 1.370 . S
C346 C350 1.524 1_455 S
C347 C339 1.503 1_455 S
C347 C346 1.370 . S
C347 C348 1.403 . S
C348 C347 1.403 . S
C348 C349 1.404 . S
C348 C351 1.539 . S
C349 C345 1.408 . S
C349 C348 1.404 . S
C349 H361 0.930 . S
C350 C346 1.524 1_655 S
C350 H362 0.956 . S
C350 H363 0.961 . S
C350 H364 0.961 1_655 S
C351 C348 1.539 . S
C351 H365 0.958 . S
C351 H366 0.961 . S
C351 H367 0.960 . S
H352 C336 0.931 . S
H353 C341 0.929 . S
H354 C342 0.960 . S
H355 C342 0.962 . S
H356 C342 0.960 . S
H357 C343 0.968 . S
H358 C343 0.961 . S
H359 C343 0.961 . S
H360 C344 0.931 . S
H361 C349 0.930 . S
H362 C350 0.956 . S
H363 C350 0.961 . S
H364 C350 0.961 1_455 S
H365 C351 0.958 . S
H366 C351 0.961 . S
H367 C351 0.960 . S
C368 C369 1.391 . S
C368 C370 1.394 . S
C368 H384 0.931 . S
C369 C368 1.391 . S
C369 C373 1.376 . S
C370 C368 1.394 . S
C370 C371 1.369 . S
C370 C374 1.531 . S
C371 C370 1.369 . S
C371 C372 1.410 . S
C371 C379 1.503 1_545 S
C372 C371 1.410 . S
C372 C373 1.392 . S
C372 C375 1.511 . S
C373 C369 1.376 . S
C373 C372 1.392 . S
C373 H385 0.929 . S
C374 C370 1.531 . S
C374 H386 0.960 1_545 S
C374 H387 0.962 . S
C374 H388 0.960 . S
C375 C372 1.511 . S
C375 H389 0.961 . S
C375 H390 0.961 . S
C375 H391 0.961 . S
C376 C377 1.370 . S
C376 C378 1.363 . S
C376 H392 0.931 . S
C377 C376 1.370 . S
C377 C381 1.408 . S
C378 C376 1.363 . S
C378 C379 1.370 . S
C378 C382 1.524 1_565 S
C379 C371 1.503 1_565 S
C379 C378 1.370 . S
C379 C380 1.403 . S
C380 C379 1.403 . S
C380 C381 1.404 . S
C380 C383 1.539 . S
C381 C377 1.408 . S
C381 C380 1.404 . S
C381 H393 0.930 . S
C382 C378 1.524 1_545 S
C382 H394 0.956 . S
C382 H395 0.961 . S
C382 H396 0.961 . S
C383 C380 1.539 . S
C383 H397 0.958 . S
C383 H398 0.961 . S
C383 H399 0.960 . S
H384 C368 0.931 . S
H385 C373 0.929 . S
H386 C374 0.960 1_565 S
H387 C374 0.962 . S
H388 C374 0.960 . S
H389 C375 0.961 . S
H390 C375 0.961 . S
H391 C375 0.961 . S
H392 C376 0.931 . S
H393 C381 0.930 . S
H394 C382 0.956 . S
H395 C382 0.961 . S
H396 C382 0.961 . S
H397 C383 0.958 . S
H398 C383 0.961 . S
H399 C383 0.960 . S
C400 C401 1.391 . S
C400 C402 1.394 . S
C400 H416 0.931 . S
C401 C400 1.391 . S
C401 C405 1.375 . S
C402 C400 1.394 . S
C402 C403 1.369 . S
C402 C406 1.531 1_455 S
C403 C402 1.369 . S
C403 C404 1.410 1_545 S
C403 C411 1.503 1_445 S
C404 C403 1.410 1_565 S
C404 C405 1.393 1_565 S
C404 C407 1.511 . S
C405 C401 1.375 . S
C405 C404 1.393 1_545 S
C405 H417 0.929 1_545 S
C406 C402 1.531 1_655 S
C406 H418 0.960 . S
C406 H419 0.962 . S
C406 H420 0.960 1_655 S
C407 C404 1.511 . S
C407 H421 0.961 . S
C407 H422 0.961 . S
C407 H423 0.961 . S
C408 C409 1.370 . S
C408 C410 1.363 . S
C408 H424 0.931 . S
C409 C408 1.370 . S
C409 C413 1.408 . S
C410 C408 1.363 . S
C410 C411 1.370 . S
C410 C414 1.524 1_565 S
C411 C403 1.503 1_665 S
C411 C410 1.370 . S
C411 C412 1.403 . S
C412 C411 1.403 . S
C412 C413 1.404 . S
C412 C415 1.539 . S
C413 C409 1.408 . S
C413 C412 1.404 . S
C413 H425 0.930 . S
C414 C410 1.524 1_545 S
C414 H426 0.956 . S
C414 H427 0.970 1_655 S
C414 H428 0.961 . S
C415 C412 1.539 . S
C415 H429 0.958 . S
C415 H430 0.961 . S
C415 H431 0.960 1_655 S
H416 C400 0.931 . S
H417 C405 0.929 1_565 S
H418 C406 0.960 . S
H419 C406 0.962 . S
H420 C406 0.960 1_455 S
H421 C407 0.961 . S
H422 C407 0.961 . S
H423 C407 0.961 . S
H424 C408 0.931 . S
H425 C413 0.930 . S
H426 C414 0.956 . S
H427 C414 0.970 1_455 S
H428 C414 0.961 . S
H429 C415 0.958 . S
H430 C415 0.961 . S
H431 C415 0.960 1_455 S
C432 C433 1.391 . S
C432 C434 1.394 . S
C432 H448 0.931 . S
C433 C432 1.391 . S
C433 C437 1.367 1_655 S
C434 C432 1.394 . S
C434 C435 1.369 . S
C434 C438 1.531 1_545 S
C435 C434 1.369 . S
C435 C436 1.410 1_655 S
C435 C443 1.503 1_645 S
C436 C435 1.410 1_455 S
C436 C437 1.396 . S
C436 C439 1.511 . S
C437 C433 1.367 1_455 S
C437 C436 1.396 . S
C437 H449 0.934 . S
C438 C434 1.531 1_565 S
C438 H450 0.960 . S
C438 H451 0.962 . S
C438 H452 0.965 . S
C439 C436 1.511 . S
C439 H453 0.961 . S
C439 H454 0.961 . S
C439 H455 0.961 . S
C440 C441 1.370 . S
C440 C442 1.363 . S
C440 H456 0.931 . S
C441 C440 1.370 . S
C441 C445 1.408 . S
C442 C440 1.363 . S
C442 C443 1.370 . S
C442 C446 1.524 1_455 S
C443 C435 1.503 1_465 S
C443 C442 1.370 . S
C443 C444 1.403 . S
C444 C443 1.403 . S
C444 C445 1.404 . S
C444 C447 1.539 . S
C445 C441 1.408 . S
C445 C444 1.404 . S
C445 H457 0.930 . S
C446 C442 1.524 1_655 S
C446 H458 0.956 . S
C446 H459 0.961 1_665 S
C446 H460 0.961 1_655 S
C447 C444 1.539 . S
C447 H461 0.958 . S
C447 H462 0.961 . S
C447 H463 0.960 1_565 S
H448 C432 0.931 . S
H449 C437 0.934 . S
H450 C438 0.960 . S
H451 C438 0.962 . S
H452 C438 0.965 . S
H453 C439 0.961 . S
H454 C439 0.961 . S
H455 C439 0.961 . S
H456 C440 0.931 . S
H457 C445 0.930 . S
H458 C446 0.956 . S
H459 C446 0.961 1_445 S
H460 C446 0.961 1_455 S
H461 C447 0.958 . S
H462 C447 0.961 . S
H463 C447 0.960 1_545 S
C464 C465 1.391 . S
C464 C466 1.394 . S
C464 H480 0.931 . S
C465 C464 1.391 . S
C465 C469 1.376 . S
C466 C464 1.394 . S
C466 C467 1.369 . S
C466 C470 1.531 . S
C467 C466 1.369 . S
C467 C468 1.410 . S
C467 C475 1.503 . S
C468 C467 1.410 . S
C468 C469 1.392 . S
C468 C471 1.511 . S
C469 C465 1.376 . S
C469 C468 1.392 . S
C469 H481 0.929 . S
C470 C466 1.531 . S
C470 H482 0.960 . S
C470 H483 0.962 . S
C470 H484 0.960 . S
C471 C468 1.511 . S
C471 H485 0.961 . S
C471 H486 0.961 . S
C471 H487 0.961 . S
C472 C473 1.370 . S
C472 C474 1.363 . S
C472 H488 0.931 . S
C473 C472 1.370 . S
C473 C477 1.408 . S
C474 C472 1.363 . S
C474 C475 1.370 . S
C474 C478 1.524 . S
C475 C467 1.503 . S
C475 C474 1.370 . S
C475 C476 1.403 . S
C476 C475 1.403 . S
C476 C477 1.404 . S
C476 C479 1.539 . S
C477 C473 1.408 . S
C477 C476 1.404 . S
C477 H489 0.930 . S
C478 C474 1.524 . S
C478 H490 0.956 . S
C478 H491 0.961 . S
C478 H492 0.961 . S
C479 C476 1.539 . S
C479 H493 0.958 . S
C479 H494 0.961 . S
C479 H495 0.960 . S
H480 C464 0.931 . S
H481 C469 0.929 . S
H482 C470 0.960 . S
H483 C470 0.962 . S
H484 C470 0.960 . S
H485 C471 0.961 . S
H486 C471 0.961 . S
H487 C471 0.961 . S
H488 C472 0.931 . S
H489 C477 0.930 . S
H490 C478 0.956 . S
H491 C478 0.961 . S
H492 C478 0.961 . S
H493 C479 0.958 . S
H494 C479 0.961 . S
H495 C479 0.960 . S
C496 C497 1.391 . S
C496 C498 1.394 . S
C496 H512 0.931 . S
C497 C496 1.391 . S
C497 C501 1.376 . S
C498 C496 1.394 . S
C498 C499 1.369 . S
C498 C502 1.531 . S
C499 C498 1.369 . S
C499 C500 1.410 . S
C499 C507 1.503 . S
C500 C499 1.410 . S
C500 C501 1.392 . S
C500 C503 1.511 . S
C501 C497 1.376 . S
C501 C500 1.392 . S
C501 H513 0.929 . S
C502 C498 1.531 . S
C502 H514 0.960 . S
C502 H515 0.962 . S
C502 H516 0.960 . S
C503 C500 1.511 . S
C503 H517 0.961 . S
C503 H518 0.961 . S
C503 H519 0.961 . S
C504 C505 1.370 . S
C504 C506 1.363 . S
C504 H520 0.931 . S
C505 C504 1.370 . S
C505 C509 1.408 . S
C506 C504 1.363 . S
C506 C507 1.370 . S
C506 C510 1.524 . S
C507 C499 1.503 . S
C507 C506 1.370 . S
C507 C508 1.403 . S
C508 C507 1.403 . S
C508 C509 1.404 . S
C508 C511 1.539 . S
C509 C505 1.408 . S
C509 C508 1.404 . S
C509 H521 0.930 . S
C510 C506 1.524 . S
C510 H522 0.956 . S
C510 H523 0.961 . S
C510 H524 0.961 . S
C511 C508 1.539 . S
C511 H525 0.958 . S
C511 H526 0.961 . S
C511 H527 0.960 . S
H512 C496 0.931 . S
H513 C501 0.929 . S
H514 C502 0.960 . S
H515 C502 0.962 . S
H516 C502 0.960 . S
H517 C503 0.961 . S
H518 C503 0.961 . S
H519 C503 0.961 . S
H520 C504 0.931 . S
H521 C509 0.930 . S
H522 C510 0.956 . S
H523 C510 0.961 . S
H524 C510 0.961 . S
H525 C511 0.958 . S
H526 C511 0.961 . S
H527 C511 0.960 . S
C528 C529 1.391 . S
C528 C530 1.394 . S
C528 H544 0.931 . S
C529 C528 1.391 . S
C529 C533 1.376 . S
C530 C528 1.394 . S
C530 C531 1.369 . S
C530 C534 1.531 . S
C531 C530 1.369 . S
C531 C532 1.410 . S
C531 C539 1.503 . S
C532 C531 1.410 . S
C532 C533 1.392 . S
C532 C535 1.511 . S
C533 C529 1.376 . S
C533 C532 1.392 . S
C533 H545 0.929 . S
C534 C530 1.531 . S
C534 H546 0.960 . S
C534 H547 0.962 . S
C534 H548 0.960 . S
C535 C532 1.511 . S
C535 H549 0.961 . S
C535 H550 0.961 . S
C535 H551 0.961 . S
C536 C537 1.370 . S
C536 C538 1.363 . S
C536 H552 0.931 . S
C537 C536 1.370 . S
C537 C541 1.408 . S
C538 C536 1.363 . S
C538 C539 1.370 . S
C538 C542 1.524 . S
C539 C531 1.503 . S
C539 C538 1.370 . S
C539 C540 1.403 . S
C540 C539 1.403 . S
C540 C541 1.404 . S
C540 C543 1.539 . S
C541 C537 1.408 . S
C541 C540 1.404 . S
C541 H553 0.930 . S
C542 C538 1.524 . S
C542 H554 0.956 . S
C542 H555 0.961 . S
C542 H556 0.961 . S
C543 C540 1.539 . S
C543 H557 0.958 . S
C543 H558 0.961 . S
C543 H559 0.960 . S
H544 C528 0.931 . S
H545 C533 0.929 . S
H546 C534 0.960 . S
H547 C534 0.962 . S
H548 C534 0.960 . S
H549 C535 0.961 . S
H550 C535 0.961 . S
H551 C535 0.961 . S
H552 C536 0.931 . S
H553 C541 0.930 . S
H554 C542 0.956 . S
H555 C542 0.961 . S
H556 C542 0.961 . S
H557 C543 0.958 . S
H558 C543 0.961 . S
H559 C543 0.960 . S
C560 C561 1.391 . S
C560 C562 1.394 . S
C560 H576 0.931 . S
C561 C560 1.391 . S
C561 C565 1.376 . S
C562 C560 1.394 . S
C562 C563 1.369 . S
C562 C566 1.531 . S
C563 C562 1.369 . S
C563 C564 1.410 . S
C563 C571 1.503 . S
C564 C563 1.410 . S
C564 C565 1.392 . S
C564 C567 1.511 . S
C565 C561 1.376 . S
C565 C564 1.392 . S
C565 H577 0.929 . S
C566 C562 1.531 . S
C566 H578 0.960 . S
C566 H579 0.962 . S
C566 H580 0.960 . S
C567 C564 1.511 . S
C567 H581 0.961 . S
C567 H582 0.961 . S
C567 H583 0.961 . S
C568 C569 1.370 . S
C568 C570 1.363 . S
C568 H584 0.931 . S
C569 C568 1.370 . S
C569 C573 1.408 . S
C570 C568 1.363 . S
C570 C571 1.370 . S
C570 C574 1.524 . S
C571 C563 1.503 . S
C571 C570 1.370 . S
C571 C572 1.403 . S
C572 C571 1.403 . S
C572 C573 1.404 . S
C572 C575 1.539 . S
C573 C569 1.408 . S
C573 C572 1.404 . S
C573 H585 0.930 . S
C574 C570 1.524 . S
C574 H586 0.956 . S
C574 H587 0.961 . S
C574 H588 0.961 . S
C575 C572 1.539 . S
C575 H589 0.958 . S
C575 H590 0.961 . S
C575 H591 0.960 . S
H576 C560 0.931 . S
H577 C565 0.929 . S
H578 C566 0.960 . S
H579 C566 0.962 . S
H580 C566 0.960 . S
H581 C567 0.961 . S
H582 C567 0.961 . S
H583 C567 0.961 . S
H584 C568 0.931 . S
H585 C573 0.930 . S
H586 C574 0.956 . S
H587 C574 0.961 . S
H588 C574 0.961 . S
H589 C575 0.958 . S
H590 C575 0.961 . S
H591 C575 0.960 . S
C592 C593 1.391 . S
C592 C594 1.394 . S
C592 H608 0.931 . S
C593 C592 1.391 . S
C593 C597 1.376 . S
C594 C592 1.394 . S
C594 C595 1.369 . S
C594 C598 1.531 . S
C595 C594 1.369 . S
C595 C596 1.410 . S
C595 C603 1.503 . S
C596 C595 1.410 . S
C596 C597 1.392 . S
C596 C599 1.511 . S
C597 C593 1.376 . S
C597 C596 1.392 . S
C597 H609 0.929 . S
C598 C594 1.531 . S
C598 H610 0.960 . S
C598 H611 0.962 . S
C598 H612 0.960 . S
C599 C596 1.511 . S
C599 H613 0.961 . S
C599 H614 0.961 . S
C599 H615 0.961 . S
C600 C601 1.370 . S
C600 C602 1.363 . S
C600 H616 0.931 . S
C601 C600 1.370 . S
C601 C605 1.408 . S
C602 C600 1.363 . S
C602 C603 1.370 . S
C602 C606 1.524 . S
C603 C595 1.503 . S
C603 C602 1.370 . S
C603 C604 1.403 . S
C604 C603 1.403 . S
C604 C605 1.404 . S
C604 C607 1.539 . S
C605 C601 1.408 . S
C605 C604 1.404 . S
C605 H617 0.930 . S
C606 C602 1.524 . S
C606 H618 0.956 . S
C606 H619 0.961 . S
C606 H620 0.961 . S
C607 C604 1.539 . S
C607 H621 0.958 . S
C607 H622 0.961 . S
C607 H623 0.960 . S
H608 C592 0.931 . S
H609 C597 0.929 . S
H610 C598 0.960 . S
H611 C598 0.962 . S
H612 C598 0.960 . S
H613 C599 0.961 . S
H614 C599 0.961 . S
H615 C599 0.961 . S
H616 C600 0.931 . S
H617 C605 0.930 . S
H618 C606 0.956 . S
H619 C606 0.961 . S
H620 C606 0.961 . S
H621 C607 0.958 . S
H622 C607 0.961 . S
H623 C607 0.960 . S
C624 C625 1.391 . S
C624 C626 1.394 . S
C624 H640 0.931 . S
C625 C624 1.391 . S
C625 C629 1.376 . S
C626 C624 1.394 . S
C626 C627 1.369 . S
C626 C630 1.531 . S
C627 C626 1.369 . S
C627 C628 1.410 . S
C627 C635 1.503 . S
C628 C627 1.410 . S
C628 C629 1.392 . S
C628 C631 1.511 . S
C629 C625 1.376 . S
C629 C628 1.392 . S
C629 H641 0.929 . S
C630 C626 1.531 . S
C630 H642 0.960 . S
C630 H643 0.962 . S
C630 H644 0.960 . S
C631 C628 1.511 . S
C631 H645 0.961 . S
C631 H646 0.961 . S
C631 H647 0.961 . S
C632 C633 1.370 . S
C632 C634 1.363 . S
C632 H648 0.931 . S
C633 C632 1.370 . S
C633 C637 1.408 . S
C634 C632 1.363 . S
C634 C635 1.370 . S
C634 C638 1.524 . S
C635 C627 1.503 . S
C635 C634 1.370 . S
C635 C636 1.403 . S
C636 C635 1.403 . S
C636 C637 1.404 . S
C636 C639 1.539 . S
C637 C633 1.408 . S
C637 C636 1.404 . S
C637 H649 0.930 . S
C638 C634 1.524 . S
C638 H650 0.956 . S
C638 H651 0.961 . S
C638 H652 0.961 . S
C639 C636 1.539 . S
C639 H653 0.958 . S
C639 H654 0.961 . S
C639 H655 0.960 . S
H640 C624 0.931 . S
H641 C629 0.929 . S
H642 C630 0.960 . S
H643 C630 0.962 . S
H644 C630 0.960 . S
H645 C631 0.961 . S
H646 C631 0.961 . S
H647 C631 0.961 . S
H648 C632 0.931 . S
H649 C637 0.930 . S
H650 C638 0.956 . S
H651 C638 0.961 . S
H652 C638 0.961 . S
H653 C639 0.958 . S
H654 C639 0.961 . S
H655 C639 0.960 . S
C656 C657 1.391 . S
C656 C658 1.394 . S
C656 H672 0.931 . S
C657 C656 1.391 . S
C657 C661 1.376 . S
C658 C656 1.394 . S
C658 C659 1.369 . S
C658 C662 1.531 . S
C659 C658 1.369 . S
C659 C660 1.410 . S
C659 C667 1.503 . S
C660 C659 1.410 . S
C660 C661 1.392 . S
C660 C663 1.511 . S
C661 C657 1.376 . S
C661 C660 1.392 . S
C661 H673 0.929 . S
C662 C658 1.531 . S
C662 H674 0.960 . S
C662 H675 0.962 . S
C662 H676 0.960 . S
C663 C660 1.511 . S
C663 H677 0.961 . S
C663 H678 0.961 . S
C663 H679 0.961 . S
C664 C665 1.370 . S
C664 C666 1.363 . S
C664 H680 0.931 . S
C665 C664 1.370 . S
C665 C669 1.408 . S
C666 C664 1.363 . S
C666 C667 1.370 . S
C666 C670 1.524 . S
C667 C659 1.503 . S
C667 C666 1.370 . S
C667 C668 1.403 . S
C668 C667 1.403 . S
C668 C669 1.404 . S
C668 C671 1.539 . S
C669 C665 1.408 . S
C669 C668 1.404 . S
C669 H681 0.930 . S
C670 C666 1.524 . S
C670 H682 0.956 . S
C670 H683 0.961 . S
C670 H684 0.961 . S
C671 C668 1.539 . S
C671 H685 0.958 . S
C671 H686 0.961 . S
C671 H687 0.960 . S
H672 C656 0.931 . S
H673 C661 0.929 . S
H674 C662 0.960 . S
H675 C662 0.962 . S
H676 C662 0.960 . S
H677 C663 0.961 . S
H678 C663 0.961 . S
H679 C663 0.961 . S
H680 C664 0.931 . S
H681 C669 0.930 . S
H682 C670 0.956 . S
H683 C670 0.961 . S
H684 C670 0.961 . S
H685 C671 0.958 . S
H686 C671 0.961 . S
H687 C671 0.960 . S
C688 C689 1.391 . S
C688 C690 1.394 . S
C688 H704 0.931 . S
C689 C688 1.391 . S
C689 C693 1.376 . S
C690 C688 1.394 . S
C690 C691 1.369 . S
C690 C694 1.531 . S
C691 C690 1.369 . S
C691 C692 1.410 . S
C691 C699 1.503 . S
C692 C691 1.410 . S
C692 C693 1.392 . S
C692 C695 1.511 . S
C693 C689 1.376 . S
C693 C692 1.392 . S
C693 H705 0.929 . S
C694 C690 1.531 . S
C694 H706 0.960 . S
C694 H707 0.962 . S
C694 H708 0.960 . S
C695 C692 1.511 . S
C695 H709 0.961 . S
C695 H710 0.961 . S
C695 H711 0.961 . S
C696 C697 1.370 . S
C696 C698 1.363 . S
C696 H712 0.931 1_655 S
C697 C696 1.370 . S
C697 C701 1.408 . S
C698 C696 1.363 . S
C698 C699 1.370 . S
C698 C702 1.524 . S
C699 C691 1.503 . S
C699 C698 1.370 . S
C699 C700 1.403 . S
C700 C699 1.403 . S
C700 C701 1.404 . S
C700 C703 1.539 . S
C701 C697 1.408 . S
C701 C700 1.404 . S
C701 H713 0.930 . S
C702 C698 1.524 . S
C702 H714 0.956 . S
C702 H715 0.961 . S
C702 H716 0.961 . S
C703 C700 1.539 . S
C703 H717 0.958 . S
C703 H718 0.961 . S
C703 H719 0.960 . S
H704 C688 0.931 . S
H705 C693 0.929 . S
H706 C694 0.960 . S
H707 C694 0.962 . S
H708 C694 0.960 . S
H709 C695 0.961 . S
H710 C695 0.961 . S
H711 C695 0.961 . S
H712 C696 0.931 1_455 S
H713 C701 0.930 . S
H714 C702 0.956 . S
H715 C702 0.961 . S
H716 C702 0.961 . S
H717 C703 0.958 . S
H718 C703 0.961 . S
H719 C703 0.960 . S
C720 C721 1.391 . S
C720 C722 1.394 . S
C720 H736 0.934 . S
C721 C720 1.391 . S
C721 C725 1.376 . S
C722 C720 1.394 . S
C722 C723 1.369 . S
C722 C726 1.531 . S
C723 C722 1.369 . S
C723 C724 1.410 . S
C723 C731 1.503 . S
C724 C723 1.410 . S
C724 C725 1.392 . S
C724 C727 1.511 . S
C725 C721 1.376 . S
C725 C724 1.392 . S
C725 H737 0.929 . S
C726 C722 1.531 . S
C726 H738 0.960 . S
C726 H739 0.962 . S
C726 H740 0.960 . S
C727 C724 1.511 . S
C727 H741 0.961 . S
C727 H742 0.961 . S
C727 H743 0.961 . S
C728 C729 1.370 . S
C728 C730 1.363 . S
C728 H744 0.931 . S
C729 C728 1.370 . S
C729 C733 1.408 . S
C730 C728 1.363 . S
C730 C731 1.370 . S
C730 C734 1.524 . S
C731 C723 1.503 . S
C731 C730 1.370 . S
C731 C732 1.403 . S
C732 C731 1.403 . S
C732 C733 1.404 . S
C732 C735 1.539 . S
C733 C729 1.408 . S
C733 C732 1.404 . S
C733 H745 0.930 . S
C734 C730 1.524 . S
C734 H746 0.956 . S
C734 H747 0.961 . S
C734 H748 0.961 . S
C735 C732 1.539 . S
C735 H749 0.958 . S
C735 H750 0.961 . S
C735 H751 0.960 . S
H736 C720 0.934 . S
H737 C725 0.929 . S
H738 C726 0.960 . S
H739 C726 0.962 . S
H740 C726 0.960 . S
H741 C727 0.961 . S
H742 C727 0.961 . S
H743 C727 0.961 . S
H744 C728 0.931 . S
H745 C733 0.930 . S
H746 C734 0.956 . S
H747 C734 0.961 . S
H748 C734 0.961 . S
H749 C735 0.958 . S
H750 C735 0.961 . S
H751 C735 0.960 . S
C752 C753 1.391 . S
C752 C754 1.394 . S
C752 H768 0.931 . S
C753 C752 1.391 . S
C753 C757 1.376 . S
C754 C752 1.394 . S
C754 C755 1.369 . S
C754 C758 1.531 . S
C755 C754 1.369 . S
C755 C756 1.410 . S
C755 C763 1.503 . S
C756 C755 1.410 . S
C756 C757 1.392 . S
C756 C759 1.511 . S
C757 C753 1.376 . S
C757 C756 1.392 . S
C757 H769 0.929 . S
C758 C754 1.531 . S
C758 H770 0.960 . S
C758 H771 0.962 . S
C758 H772 0.960 . S
C759 C756 1.511 . S
C759 H773 0.961 . S
C759 H774 0.961 . S
C759 H775 0.961 . S
C760 C761 1.370 . S
C760 C762 1.363 . S
C760 H776 0.931 . S
C761 C760 1.370 . S
C761 C765 1.408 . S
C762 C760 1.363 . S
C762 C763 1.370 . S
C762 C766 1.524 . S
C763 C755 1.503 . S
C763 C762 1.370 . S
C763 C764 1.403 . S
C764 C763 1.403 . S
C764 C765 1.404 . S
C764 C767 1.539 . S
C765 C761 1.408 . S
C765 C764 1.404 . S
C765 H777 0.930 . S
C766 C762 1.524 . S
C766 H778 0.956 . S
C766 H779 0.961 . S
C766 H780 0.961 . S
C767 C764 1.539 . S
C767 H781 0.958 . S
C767 H782 0.961 . S
C767 H783 0.960 . S
H768 C752 0.931 . S
H769 C757 0.929 . S
H770 C758 0.960 . S
H771 C758 0.962 . S
H772 C758 0.960 . S
H773 C759 0.961 . S
H774 C759 0.961 . S
H775 C759 0.961 . S
H776 C760 0.931 . S
H777 C765 0.930 . S
H778 C766 0.956 . S
H779 C766 0.961 . S
H780 C766 0.961 . S
H781 C767 0.958 . S
H782 C767 0.961 . S
H783 C767 0.960 . S
C784 C785 1.391 . S
C784 C786 1.394 . S
C784 H800 0.931 . S
C785 C784 1.391 . S
C785 C789 1.376 . S
C786 C784 1.394 . S
C786 C787 1.369 . S
C786 C790 1.531 . S
C787 C786 1.369 . S
C787 C788 1.410 . S
C787 C795 1.503 . S
C788 C787 1.410 . S
C788 C789 1.392 . S
C788 C791 1.511 . S
C789 C785 1.376 . S
C789 C788 1.392 . S
C789 H801 0.929 . S
C790 C786 1.531 . S
C790 H802 0.960 1_554 S
C790 H803 0.962 . S
C790 H804 0.960 1_554 S
C791 C788 1.511 . S
C791 H805 0.961 . S
C791 H806 0.961 . S
C791 H807 0.961 . S
C792 C793 1.370 . S
C792 C794 1.363 1_556 S
C792 H808 0.931 . S
C793 C792 1.370 . S
C793 C797 1.408 . S
C794 C792 1.363 1_554 S
C794 C795 1.370 . S
C794 C798 1.524 . S
C795 C787 1.503 . S
C795 C794 1.370 . S
C795 C796 1.403 1_554 S
C796 C795 1.403 1_556 S
C796 C797 1.404 . S
C796 C799 1.539 . S
C797 C793 1.408 . S
C797 C796 1.404 . S
C797 H809 0.930 . S
C798 C794 1.524 . S
C798 H810 0.956 . S
C798 H811 0.961 . S
C798 H812 0.961 . S
C799 C796 1.539 . S
C799 H813 0.958 . S
C799 H814 0.961 . S
C799 H815 0.960 . S
H800 C784 0.931 . S
H801 C789 0.929 . S
H802 C790 0.960 1_556 S
H803 C790 0.962 . S
H804 C790 0.960 1_556 S
H805 C791 0.961 . S
H806 C791 0.961 . S
H807 C791 0.961 . S
H808 C792 0.931 . S
H809 C797 0.930 . S
H810 C798 0.956 . S
H811 C798 0.961 . S
H812 C798 0.961 . S
H813 C799 0.958 . S
H814 C799 0.961 . S
H815 C799 0.960 . S
C816 C817 1.391 . S
C816 C818 1.394 . S
C816 H832 0.931 . S
C817 C816 1.391 . S
C817 C821 1.376 . S
C818 C816 1.394 . S
C818 C819 1.369 . S
C818 C822 1.531 . S
C819 C818 1.369 . S
C819 C820 1.410 . S
C819 C827 1.503 . S
C820 C819 1.410 . S
C820 C821 1.392 . S
C820 C823 1.511 1_556 S
C821 C817 1.376 . S
C821 C820 1.392 . S
C821 H833 0.929 . S
C822 C818 1.531 . S
C822 H834 0.960 . S
C822 H835 0.962 . S
C822 H836 0.960 . S
C823 C820 1.511 1_554 S
C823 H837 0.961 . S
C823 H838 0.961 . S
C823 H839 0.964 . S
C824 C825 1.370 . S
C824 C826 1.363 . S
C824 H840 0.931 . S
C825 C824 1.370 . S
C825 C829 1.408 . S
C826 C824 1.363 . S
C826 C827 1.370 1_554 S
C826 C830 1.524 . S
C827 C819 1.503 . S
C827 C826 1.370 1_556 S
C827 C828 1.403 . S
C828 C827 1.403 . S
C828 C829 1.404 1_556 S
C828 C831 1.539 . S
C829 C825 1.408 . S
C829 C828 1.404 1_554 S
C829 H841 0.930 . S
C830 C826 1.524 . S
C830 H842 0.956 1_554 S
C830 H843 0.961 . S
C830 H844 0.961 . S
C831 C828 1.539 . S
C831 H845 0.958 . S
C831 H846 0.961 . S
C831 H847 0.960 . S
H832 C816 0.931 . S
H833 C821 0.929 . S
H834 C822 0.960 . S
H835 C822 0.962 . S
H836 C822 0.960 . S
H837 C823 0.961 . S
H838 C823 0.961 . S
H839 C823 0.964 . S
H840 C824 0.931 . S
H841 C829 0.930 . S
H842 C830 0.956 1_556 S
H843 C830 0.961 . S
H844 C830 0.961 . S
H845 C831 0.958 . S
H846 C831 0.961 . S
H847 C831 0.960 . S
C848 C849 1.391 . S
C848 C850 1.394 . S
C848 H864 0.931 . S
C849 C848 1.391 . S
C849 C853 1.376 . S
C850 C848 1.394 . S
C850 C851 1.369 . S
C850 C854 1.531 . S
C851 C850 1.369 . S
C851 C852 1.410 . S
C851 C859 1.503 . S
C852 C851 1.410 . S
C852 C853 1.392 . S
C852 C855 1.511 1_554 S
C853 C849 1.376 . S
C853 C852 1.392 . S
C853 H865 0.929 . S
C854 C850 1.531 . S
C854 H866 0.960 . S
C854 H867 0.962 . S
C854 H868 0.960 . S
C855 C852 1.511 1_556 S
C855 H869 0.961 . S
C855 H870 0.961 . S
C855 H871 0.961 . S
C856 C857 1.370 . S
C856 C858 1.363 1_556 S
C856 H872 0.931 . S
C857 C856 1.370 . S
C857 C861 1.408 . S
C858 C856 1.363 1_554 S
C858 C859 1.370 . S
C858 C862 1.524 . S
C859 C851 1.503 . S
C859 C858 1.370 . S
C859 C860 1.403 1_554 S
C860 C859 1.403 1_556 S
C860 C861 1.404 . S
C860 C863 1.539 . S
C861 C857 1.408 . S
C861 C860 1.404 . S
C861 H873 0.930 . S
C862 C858 1.524 . S
C862 H874 0.956 . S
C862 H875 0.961 . S
C862 H876 0.961 . S
C863 C860 1.539 . S
C863 H877 0.958 1_556 S
C863 H878 0.961 . S
C863 H879 0.960 . S
H864 C848 0.931 . S
H865 C853 0.929 . S
H866 C854 0.960 . S
H867 C854 0.962 . S
H868 C854 0.960 . S
H869 C855 0.961 . S
H870 C855 0.961 . S
H871 C855 0.961 . S
H872 C856 0.931 . S
H873 C861 0.930 . S
H874 C862 0.956 . S
H875 C862 0.961 . S
H876 C862 0.961 . S
H877 C863 0.958 1_554 S
H878 C863 0.961 . S
H879 C863 0.960 . S
C880 C881 1.391 . S
C880 C882 1.394 . S
C880 H896 0.931 . S
C881 C880 1.391 . S
C881 C885 1.376 . S
C882 C880 1.394 . S
C882 C883 1.369 . S
C882 C886 1.531 . S
C883 C882 1.369 . S
C883 C884 1.410 . S
C883 C891 1.503 . S
C884 C883 1.410 . S
C884 C885 1.392 . S
C884 C887 1.511 . S
C885 C881 1.376 . S
C885 C884 1.392 . S
C885 H897 0.929 . S
C886 C882 1.531 . S
C886 H898 0.960 . S
C886 H899 0.962 . S
C886 H900 0.960 . S
C887 C884 1.511 . S
C887 H901 0.959 1_556 S
C887 H902 0.961 1_556 S
C887 H903 0.961 . S
C888 C889 1.370 . S
C888 C890 1.363 . S
C888 H904 0.931 . S
C889 C888 1.370 . S
C889 C893 1.408 . S
C890 C888 1.363 . S
C890 C891 1.370 1_554 S
C890 C894 1.524 . S
C891 C883 1.503 . S
C891 C890 1.370 1_556 S
C891 C892 1.403 . S
C892 C891 1.403 . S
C892 C893 1.404 1_556 S
C892 C895 1.539 . S
C893 C889 1.408 . S
C893 C892 1.404 1_554 S
C893 H905 0.930 . S
C894 C890 1.524 . S
C894 H906 0.956 1_554 S
C894 H907 0.961 . S
C894 H908 0.961 . S
C895 C892 1.539 . S
C895 H909 0.958 . S
C895 H910 0.961 . S
C895 H911 0.960 . S
H896 C880 0.931 . S
H897 C885 0.929 . S
H898 C886 0.960 . S
H899 C886 0.962 . S
H900 C886 0.960 . S
H901 C887 0.959 1_554 S
H902 C887 0.961 1_554 S
H903 C887 0.961 . S
H904 C888 0.931 . S
H905 C893 0.930 . S
H906 C894 0.956 1_556 S
H907 C894 0.961 . S
H908 C894 0.961 . S
H909 C895 0.958 . S
H910 C895 0.961 . S
H911 C895 0.960 . S
C273 C88 1.147 . S
C281 C20 1.184 . S
C305 C122 1.184 . S
C313 C54 1.167 . S
C337 C224 1.189 . S
C345 C156 1.165 . S
C369 C258 1.198 . S
C377 C190 1.163 . S
C401 C2 1.360 . S
C409 C70 1.351 . S
C433 C104 1.310 . S
C441 C36 1.331 . S
C465 C206 1.363 . S
C473 C138 1.351 . S
C497 C240 1.311 . S
C505 C172 1.331 . S
C529 C247 1.454 . S
C537 C9 1.448 . S
C561 C145 1.460 . S
C569 C43 1.445 . S
C593 C77 1.467 . S
C601 C179 1.446 . S
C625 C213 1.437 . S
C633 C111 1.453 . S
C657 C67 0.598 . S
C665 C5 0.569 . S
C689 C101 0.625 . S
C697 C39 0.564 . S
C721 C73 0.621 . S
C729 C135 0.588 . S
C753 C33 0.593 . S
C761 C107 0.566 . S
C785 C271 0.692 . S
C793 C141 0.571 . S
C817 C169 0.694 . S
C825 C175 0.592 . S
C849 C203 0.545 . S
C857 C209 0.576 . S
C881 C237 0.680 . S
C889 C243 0.597 . S
