# Generated by pormake.
# Topology uki, (4)-cn, num edge types: 1
# Building blocks:
#     Node 0, Type 0, BuildingBlock: ESEHIV_clean_sbu_0, # of connection points: 4
#     Node 1, Type 0, BuildingBlock: ESEHIV_clean_sbu_0, # of connection points: 4
#     Node 2, Type 0, BuildingBlock: ESEHIV_clean_sbu_0, # of connection points: 4
#     Node 3, Type 0, BuildingBlock: ESEHIV_clean_sbu_0, # of connection points: 4
#     Node 4, Type 0, BuildingBlock: ESEHIV_clean_sbu_0, # of connection points: 4
#     Node 5, Type 0, BuildingBlock: ESEHIV_clean_sbu_0, # of connection points: 4
#     Node 6, Type 0, BuildingBlock: ESEHIV_clean_sbu_0, # of connection points: 4
#     Node 7, Type 0, BuildingBlock: ESEHIV_clean_sbu_0, # of connection points: 4
#     Node 8, Type 0, BuildingBlock: ESEHIV_clean_sbu_0, # of connection points: 4
#     Node 9, Type 0, BuildingBlock: ESEHIV_clean_sbu_0, # of connection points: 4
#     Node 10, Type 0, BuildingBlock: ESEHIV_clean_sbu_0, # of connection points: 4
#     Node 11, Type 0, BuildingBlock: ESEHIV_clean_sbu_0, # of connection points: 4
#     Node 12, Type 0, BuildingBlock: ESEHIV_clean_sbu_0, # of connection points: 4
#     Node 13, Type 0, BuildingBlock: ESEHIV_clean_sbu_0, # of connection points: 4
#     Node 14, Type 0, BuildingBlock: ESEHIV_clean_sbu_0, # of connection points: 4
#     Node 15, Type 0, BuildingBlock: ESEHIV_clean_sbu_0, # of connection points: 4
#     Edge 16, Type (0, 0), BuildingBlock: MIFKUJ_clean_linker_0, # of connection points: 2
#     Edge 17, Type (0, 0), BuildingBlock: MIFKUJ_clean_linker_0, # of connection points: 2
#     Edge 18, Type (0, 0), BuildingBlock: MIFKUJ_clean_linker_0, # of connection points: 2
#     Edge 19, Type (0, 0), BuildingBlock: MIFKUJ_clean_linker_0, # of connection points: 2
#     Edge 20, Type (0, 0), BuildingBlock: MIFKUJ_clean_linker_0, # of connection points: 2
#     Edge 21, Type (0, 0), BuildingBlock: MIFKUJ_clean_linker_0, # of connection points: 2
#     Edge 22, Type (0, 0), BuildingBlock: MIFKUJ_clean_linker_0, # of connection points: 2
#     Edge 23, Type (0, 0), BuildingBlock: MIFKUJ_clean_linker_0, # of connection points: 2
#     Edge 24, Type (0, 0), BuildingBlock: MIFKUJ_clean_linker_0, # of connection points: 2
#     Edge 25, Type (0, 0), BuildingBlock: MIFKUJ_clean_linker_0, # of connection points: 2
#     Edge 26, Type (0, 0), BuildingBlock: MIFKUJ_clean_linker_0, # of connection points: 2
#     Edge 27, Type (0, 0), BuildingBlock: MIFKUJ_clean_linker_0, # of connection points: 2
#     Edge 28, Type (0, 0), BuildingBlock: MIFKUJ_clean_linker_0, # of connection points: 2
#     Edge 29, Type (0, 0), BuildingBlock: MIFKUJ_clean_linker_0, # of connection points: 2
#     Edge 30, Type (0, 0), BuildingBlock: MIFKUJ_clean_linker_0, # of connection points: 2
#     Edge 31, Type (0, 0), BuildingBlock: MIFKUJ_clean_linker_0, # of connection points: 2
#     Edge 32, Type (0, 0), BuildingBlock: MIFKUJ_clean_linker_0, # of connection points: 2
#     Edge 33, Type (0, 0), BuildingBlock: MIFKUJ_clean_linker_0, # of connection points: 2
#     Edge 34, Type (0, 0), BuildingBlock: MIFKUJ_clean_linker_0, # of connection points: 2
#     Edge 35, Type (0, 0), BuildingBlock: MIFKUJ_clean_linker_0, # of connection points: 2
#     Edge 36, Type (0, 0), BuildingBlock: MIFKUJ_clean_linker_0, # of connection points: 2
#     Edge 37, Type (0, 0), BuildingBlock: MIFKUJ_clean_linker_0, # of connection points: 2
#     Edge 38, Type (0, 0), BuildingBlock: MIFKUJ_clean_linker_0, # of connection points: 2
#     Edge 39, Type (0, 0), BuildingBlock: MIFKUJ_clean_linker_0, # of connection points: 2
#     Edge 40, Type (0, 0), BuildingBlock: MIFKUJ_clean_linker_0, # of connection points: 2
#     Edge 41, Type (0, 0), BuildingBlock: MIFKUJ_clean_linker_0, # of connection points: 2
#     Edge 42, Type (0, 0), BuildingBlock: MIFKUJ_clean_linker_0, # of connection points: 2
#     Edge 43, Type (0, 0), BuildingBlock: MIFKUJ_clean_linker_0, # of connection points: 2
#     Edge 44, Type (0, 0), BuildingBlock: MIFKUJ_clean_linker_0, # of connection points: 2
#     Edge 45, Type (0, 0), BuildingBlock: MIFKUJ_clean_linker_0, # of connection points: 2
#     Edge 46, Type (0, 0), BuildingBlock: MIFKUJ_clean_linker_0, # of connection points: 2
#     Edge 47, Type (0, 0), BuildingBlock: MIFKUJ_clean_linker_0, # of connection points: 2
# Relax obj value: 0.100
# Max RMSD: 0.185
# Mean RMSD: 0.170
data_MOF--net-uki--node1-ESEHIV_clean_sbu_0--edge1-MIFKUJ_clean_linker_0
_symmetry_space_group_name_H-M    P1
_symmetry_Int_Tables_number       1
_symmetry_cell_setting            triclinic
loop_
_symmetry_equiv_pos_as_xyz
'x, y, z'
_cell_length_a     45.387922
_cell_length_b     38.651574
_cell_length_c     109.21067
_cell_angle_alpha  90.057552
_cell_angle_beta   89.899007
_cell_angle_gamma 90.005448
loop_
_atom_site_label
_atom_site_type_symbol
_atom_site_fract_x
_atom_site_fract_y
_atom_site_fract_z
_atom_type_partial_charge
Cu0 Cu 0.1087 0.25166 0.30949 0.0
N1 N 0.0715 0.27207 0.30971 0.0
N2 N 0.02971 0.29614 0.30311 0.0
C3 C 0.05633 0.28333 0.29992 0.0
C4 C 0.02815 0.29279 0.3154 0.0
C5 C 0.05394 0.2778 0.31944 0.0
O6 O 0.12805 0.27041 0.29479 0.0
C7 C 0.08827 0.18756 0.30029 0.0
O8 O 0.08349 0.20605 0.2904 0.0
H9 H 0.06477 0.2822 0.29066 0.0
H10 H 0.05942 0.27122 0.32879 0.0
N11 N 0.12849 0.26592 0.32376 0.0
N12 N 0.15743 0.27015 0.34036 0.0
C13 C 0.14813 0.24954 0.33106 0.0
C14 C 0.12524 0.2976 0.32864 0.0
C15 C 0.1428 0.30027 0.33882 0.0
C16 C 0.15327 0.28501 0.29484 0.0
O17 O 0.16941 0.28356 0.30479 0.0
H18 H 0.15575 0.22339 0.32945 0.0
H19 H 0.111 0.31751 0.325 0.0
O20 O 0.1013 0.20173 0.30934 0.0
H21 H 0.00946 0.29987 0.32104 0.0
H22 H 0.14429 0.32272 0.34471 0.0
Cu23 Cu 0.21591 0.92674 0.71095 0.0
N24 N 0.17544 0.92935 0.7146 0.0
N25 N 0.1273 0.94196 0.71405 0.0
C26 C 0.15355 0.94462 0.70821 0.0
C27 C 0.13298 0.92424 0.72442 0.0
C28 C 0.16252 0.91651 0.72472 0.0
O29 O 0.22171 0.90759 0.69441 0.0
C30 C 0.22733 0.98678 0.72424 0.0
O31 O 0.20775 0.97181 0.73134 0.0
H32 H 0.15691 0.95792 0.6996 0.0
H33 H 0.1739 0.90285 0.73193 0.0
N34 N 0.23362 0.89535 0.72164 0.0
N35 N 0.26656 0.87056 0.73404 0.0
C36 C 0.25925 0.89932 0.7277 0.0
C37 C 0.2244 0.86311 0.72424 0.0
C38 C 0.2446 0.8478 0.73189 0.0
C39 C 0.2053 0.88232 0.69117 0.0
O40 O 0.18413 0.87245 0.6986 0.0
H41 H 0.27265 0.92243 0.72716 0.0
H42 H 0.2045 0.85144 0.72072 0.0
O43 O 0.23435 0.97193 0.71419 0.0
H44 H 0.11687 0.91713 0.73129 0.0
H45 H 0.24315 0.8219 0.7356 0.0
Cu46 Cu 0.90516 0.80294 0.30508 0.0
N47 N 0.94221 0.78332 0.30734 0.0
N48 N 0.98635 0.76092 0.30311 0.0
C49 C 0.95978 0.76991 0.29861 0.0
C50 C 0.98544 0.76885 0.31514 0.0
C51 C 0.95808 0.7825 0.31774 0.0
O52 O 0.88915 0.78104 0.29023 0.0
C53 C 0.92232 0.87006 0.31247 0.0
O54 O 0.92391 0.85494 0.32321 0.0
H55 H 0.95366 0.76816 0.28905 0.0
H56 H 0.95052 0.79195 0.32652 0.0
N57 N 0.88185 0.79058 0.31863 0.0
N58 N 0.8506 0.78833 0.33452 0.0
C59 C 0.86476 0.80911 0.32642 0.0
C60 C 0.87851 0.7574 0.32205 0.0
C61 C 0.8593 0.7559 0.33175 0.0
C62 C 0.86241 0.77128 0.2892 0.0
O63 O 0.84353 0.77958 0.29785 0.0
H64 H 0.86214 0.83692 0.32598 0.0
H65 H 0.88912 0.73568 0.31761 0.0
O66 O 0.91231 0.85281 0.30341 0.0
H67 H 1.00339 0.76537 0.32154 0.0
H68 H 0.85229 0.73267 0.33646 0.0
Cu69 Cu 0.75663 0.089 0.70455 0.0
N70 N 0.78466 0.06295 0.69595 0.0
N71 N 0.8288 0.04048 0.69138 0.0
C72 C 0.81341 0.06151 0.69892 0.0
C73 C 0.80892 0.02858 0.6832 0.0
C74 C 0.78165 0.04246 0.68606 0.0
O75 O 0.76091 0.13736 0.69913 0.0
C76 C 0.76492 0.04737 0.7252 0.0
O77 O 0.7745 0.02576 0.71682 0.0
H78 H 0.82277 0.0756 0.70655 0.0
H79 H 0.76109 0.03771 0.68136 0.0
N80 N 0.7176 0.0765 0.70173 0.0
N81 N 0.67151 0.0814 0.70893 0.0
C82 C 0.69628 0.09818 0.70551 0.0
C83 C 0.7057 0.04467 0.70241 0.0
C84 C 0.67713 0.04765 0.70673 0.0
C85 C 0.75118 0.14296 0.68832 0.0
O86 O 0.73983 0.1169 0.6822 0.0
H87 H 0.70044 0.12529 0.70726 0.0
H88 H 0.71809 0.02087 0.70157 0.0
O89 O 0.75917 0.07858 0.72213 0.0
H90 H 0.81358 1.01052 0.67587 0.0
H91 H 0.66309 0.02639 0.7095 0.0
Cu92 Cu 0.11199 0.28428 0.97153 0.0
N93 N 0.07549 0.26291 0.97393 0.0
N94 N 0.03918 0.23368 0.98309 0.0
C95 C 0.06843 0.23991 0.98274 0.0
C96 C 0.02742 0.2533 0.97414 0.0
C97 C 0.04987 0.27122 0.96848 0.0
O98 O 0.13737 0.26511 0.98444 0.0
C99 C 0.09319 0.35067 0.96408 0.0
O100 O 0.0901 0.33432 0.95361 0.0
H101 H 0.08413 0.22955 0.98922 0.0
H102 H 0.04751 0.29008 0.96125 0.0
N103 N 0.12583 0.2734 0.95567 0.0
N104 N 0.15073 0.27225 0.93788 0.0
C105 C 0.14955 0.28529 0.94942 0.0
C106 C 0.11186 0.25208 0.94786 0.0
C107 C 0.12702 0.25136 0.93695 0.0
C108 C 0.15569 0.24066 0.98248 0.0
O109 O 0.1607 0.23058 0.97118 0.0
H110 H 0.16519 0.30362 0.95314 0.0
H111 H 0.09178 0.23819 0.94993 0.0
O112 O 0.1042 0.33428 0.97314 0.0
H113 H 1.00416 0.25524 0.97207 0.0
H114 H 0.12114 0.23632 0.92895 0.0
Cu115 Cu 0.30676 0.92685 0.06826 0.0
N116 N 0.34727 0.92649 0.06465 0.0
N117 N 0.39599 0.93488 0.06579 0.0
C118 C 0.36932 0.94302 0.07054 0.0
C119 C 0.39046 0.91271 0.05653 0.0
C120 C 0.36048 0.90776 0.05581 0.0
O121 O 0.30009 0.90844 0.08486 0.0
C122 C 0.26576 0.98387 0.06618 0.0
O123 O 0.24676 0.96382 0.07185 0.0
H124 H 0.36597 0.95985 0.07835 0.0
H125 H 0.34916 0.8913 0.04934 0.0
N126 N 0.28734 0.89684 0.05751 0.0
N127 N 0.25459 0.87559 0.04422 0.0
C128 C 0.26369 0.90377 0.05047 0.0
C129 C 0.29328 0.86312 0.05566 0.0
C130 C 0.27324 0.85 0.04742 0.0
C131 C 0.3159 0.88275 0.0882 0.0
O132 O 0.33685 0.87195 0.08082 0.0
H133 H 0.25337 0.92892 0.04991 0.0
H134 H 0.31079 0.84895 0.0601 0.0
O135 O 0.29223 0.97353 0.06482 0.0
H136 H 0.40695 0.90103 0.05066 0.0
H137 H 0.27201 0.82345 0.0443 0.0
Cu138 Cu 0.93135 0.74903 0.96202 0.0
N139 N 0.96999 0.76554 0.96128 0.0
N140 N 0.01347 0.7869 0.96721 0.0
C141 C 0.98507 0.78113 0.97036 0.0
C142 C 0.01624 0.77451 0.95571 0.0
C143 C 0.98945 0.76127 0.9521 0.0
O144 O 0.91138 0.77778 0.97428 0.0
C145 C 0.94526 0.67968 0.95756 0.0
O146 O 0.94808 0.6923 0.94646 0.0
H147 H 0.9757 0.78675 0.97926 0.0
H148 H 0.98467 0.74873 0.94348 0.0
N149 N 0.91361 0.75608 0.94665 0.0
N150 N 0.88437 0.75348 0.93016 0.0
C151 C 0.88937 0.74149 0.94163 0.0
C152 C 0.92379 0.77823 0.93813 0.0
C153 C 0.90602 0.77653 0.92798 0.0
C154 C 0.88359 0.78087 0.97551 0.0
O155 O 0.86607 0.76079 0.9691 0.0
H156 H 0.87591 0.72231 0.9462 0.0
H157 H 0.9428 0.79478 0.93926 0.0
O158 O 0.9356 0.69962 0.966 0.0
H159 H 0.03625 0.77463 0.95031 0.0
H160 H 0.90847 0.79166 0.9197 0.0
Cu161 Cu 0.76517 0.0823 0.07165 0.0
N162 N 0.73884 0.05513 0.08075 0.0
N163 N 0.69571 0.03167 0.0863 0.0
C164 C 0.70924 0.05784 0.08032 0.0
C165 C 0.71778 1.01207 0.09085 0.0
C166 C 0.74434 0.02664 0.08743 0.0
O167 O 0.75977 0.13083 0.07675 0.0
C168 C 0.75073 0.04255 0.05056 0.0
O169 O 0.73504 0.02428 0.05831 0.0
H170 H 0.69792 0.07721 0.07494 0.0
H171 H 0.76605 1.01624 0.08916 0.0
N172 N 0.80475 0.071 0.07429 0.0
N173 N 0.85235 0.06886 0.06909 0.0
C174 C 0.82462 0.07415 0.06522 0.0
C175 C 0.82054 0.0631 0.08435 0.0
C176 C 0.85013 0.0622 0.08118 0.0
C177 C 0.76577 0.13664 0.088 0.0
O178 O 0.77367 0.11048 0.0949 0.0
H179 H 0.81904 0.0825 0.05606 0.0
H180 H 0.81146 0.05957 0.09342 0.0
O181 O 0.76138 0.07152 0.05408 0.0
H182 H 0.71497 0.98829 0.09594 0.0
H183 H 0.86853 0.05793 0.08728 0.0
Cu184 Cu 0.59547 0.74963 0.81494 0.0
N185 N 0.55684 0.7658 0.81583 0.0
N186 N 0.51322 0.7865 0.8098 0.0
C187 C 0.54188 0.78182 0.80684 0.0
C188 C 0.51017 0.77285 0.82112 0.0
C189 C 0.53705 0.75991 0.82477 0.0
O190 O 0.61512 0.77943 0.80286 0.0
C191 C 0.587 0.6772 0.81811 0.0
O192 O 0.59066 0.68473 0.82974 0.0
H193 H 0.55173 0.78898 0.79818 0.0
H194 H 0.54159 0.74594 0.83313 0.0
N195 N 0.61311 0.75532 0.83042 0.0
N196 N 0.64288 0.75232 0.84675 0.0
C197 C 0.6378 0.7411 0.83518 0.0
C198 C 0.60265 0.77643 0.83921 0.0
C199 C 0.62076 0.77453 0.84926 0.0
C200 C 0.64256 0.78647 0.80263 0.0
O201 O 0.66039 0.77018 0.81012 0.0
H202 H 0.6516 0.72284 0.83031 0.0
H203 H 0.58333 0.79257 0.83832 0.0
O204 O 0.59071 0.7009 0.81012 0.0
H205 H 0.4897 0.77074 0.82616 0.0
H206 H 0.61827 0.78914 0.85766 0.0
Cu207 Cu 0.75007 0.4411 0.19645 0.0
N208 N 0.71006 0.4363 0.20041 0.0
N209 N 0.66212 0.44679 0.20337 0.0
C210 C 0.68776 0.45891 0.19873 0.0
C211 C 0.66857 0.41547 0.2081 0.0
C212 C 0.69805 0.40909 0.20625 0.0
O213 O 0.75713 0.42663 0.17942 0.0
C214 C 0.75577 0.4993 0.21143 0.0
O215 O 0.73729 0.48088 0.21801 0.0
H216 H 0.69043 0.48396 0.19444 0.0
H217 H 0.70999 0.38628 0.20909 0.0
N218 N 0.77118 0.40925 0.20576 0.0
N219 N 0.80372 0.38559 0.21857 0.0
C220 C 0.79064 0.41515 0.21484 0.0
C221 C 0.77194 0.37495 0.20372 0.0
C222 C 0.79194 0.36026 0.21161 0.0
C223 C 0.73697 0.42136 0.17149 0.0
O224 O 0.70992 0.43133 0.17391 0.0
H225 H 0.79601 0.44066 0.21827 0.0
H226 H 0.75928 0.36171 0.19676 0.0
O227 O 0.76423 0.48737 0.20109 0.0
H228 H 0.65303 0.39827 0.21252 0.0
H229 H 0.7976 0.3331 0.2121 0.0
Cu230 Cu 0.40933 0.28908 0.8092 0.0
N231 N 0.44501 0.26587 0.80665 0.0
N232 N 0.48103 0.23689 0.79708 0.0
C233 C 0.45212 0.2453 0.7971 0.0
C234 C 0.49246 0.25281 0.80701 0.0
C235 C 0.47028 0.2708 0.81282 0.0
O236 O 0.38141 0.26813 0.79766 0.0
C237 C 0.41575 0.36297 0.81332 0.0
O238 O 0.40106 0.35788 0.82353 0.0
H239 H 0.4368 0.23841 0.78992 0.0
H240 H 0.47266 0.28754 0.8207 0.0
N241 N 0.39678 0.28217 0.82556 0.0
N242 N 0.37078 0.28131 0.84312 0.0
C243 C 0.37096 0.29039 0.83111 0.0
C244 C 0.41302 0.26691 0.83432 0.0
C245 C 0.39724 0.26642 0.84507 0.0
C246 C 0.37501 0.23633 0.79939 0.0
O247 O 0.38548 0.22099 0.8092 0.0
H248 H 0.35295 0.30323 0.82649 0.0
H249 H 0.43485 0.25644 0.833 0.0
O250 O 0.41924 0.33783 0.80587 0.0
H251 H 0.51538 0.2523 0.80971 0.0
H252 H 0.40458 0.25529 0.85362 0.0
Cu253 Cu 0.28744 0.60804 0.20865 0.0
N254 N 0.32663 0.6062 0.21377 0.0
N255 N 0.37432 0.59247 0.21519 0.0
C256 C 0.35015 0.59243 0.20797 0.0
C257 C 0.36568 0.60694 0.22585 0.0
C258 C 0.33633 0.61538 0.22494 0.0
O259 O 0.28638 0.62587 0.19183 0.0
C260 C 0.24429 0.55264 0.21113 0.0
O261 O 0.22466 0.57416 0.20668 0.0
H262 H 0.34923 0.5812 0.1989 0.0
H263 H 0.32271 0.62646 0.23207 0.0
N264 N 0.26841 0.63994 0.21877 0.0
N265 N 0.23741 0.66469 0.23206 0.0
C266 C 0.24537 0.63505 0.22637 0.0
C267 C 0.27534 0.67365 0.21972 0.0
C268 C 0.25629 0.689 0.22789 0.0
C269 C 0.26516 0.64469 0.18804 0.0
O270 O 0.24154 0.64782 0.19492 0.0
H271 H 0.23478 0.6103 0.22776 0.0
H272 H 0.29284 0.68621 0.21466 0.0
O273 O 0.27121 0.56189 0.21166 0.0
H274 H 0.37952 0.61065 0.23381 0.0
H275 H 0.25588 0.71616 0.2303 0.0
Cu276 Cu 0.61385 0.79821 0.46954 0.0
N277 N 0.57709 0.77653 0.46884 0.0
N278 N 0.5337 0.7542 0.4744 0.0
C279 C 0.55979 0.7669 0.47828 0.0
C280 C 0.53467 0.75581 0.46207 0.0
C281 C 0.56146 0.76952 0.45868 0.0
O282 O 0.63609 0.77577 0.48267 0.0
C283 C 0.59028 0.8627 0.46369 0.0
O284 O 0.5841 0.84557 0.45362 0.0
H285 H 0.56572 0.77026 0.48779 0.0
H286 H 0.56882 0.7747 0.44943 0.0
N287 N 0.63332 0.78822 0.45475 0.0
N288 N 0.65856 0.78876 0.43708 0.0
C289 C 0.6491 0.80772 0.44679 0.0
C290 C 0.63331 0.75616 0.44998 0.0
C291 C 0.64865 0.75639 0.43915 0.0
C292 C 0.6313 0.77877 0.49412 0.0
O293 O 0.61177 0.8014 0.49798 0.0
H294 H 0.65323 0.8351 0.448 0.0
H295 H 0.62274 0.73402 0.45415 0.0
O296 O 0.60561 0.84761 0.47189 0.0
H297 H 0.51721 0.74786 0.45595 0.0
H298 H 0.65265 0.73418 0.43333 0.0
Cu299 Cu 0.76673 0.44827 0.57944 0.0
N300 N 0.80429 0.45399 0.57273 0.0
N301 N 0.85226 0.46487 0.56986 0.0
C302 C 0.83015 0.46182 0.57815 0.0
C303 C 0.83958 0.45881 0.55888 0.0
C304 C 0.81016 0.45214 0.56069 0.0
O305 O 0.76908 0.43461 0.59671 0.0
C306 C 0.7546 0.51964 0.57476 0.0
O307 O 0.782 0.52434 0.57826 0.0
H308 H 0.83262 0.46524 0.58793 0.0
H309 H 0.79394 0.44684 0.55369 0.0
N310 N 0.74928 0.41132 0.57122 0.0
N311 N 0.71962 0.38057 0.55908 0.0
C312 C 0.72814 0.41257 0.5626 0.0
C313 C 0.75446 0.37752 0.57318 0.0
C314 C 0.73615 0.35847 0.56573 0.0
C315 C 0.74663 0.42086 0.60179 0.0
O316 O 0.72149 0.42111 0.59585 0.0
H317 H 0.71869 0.43643 0.55923 0.0
H318 H 0.77018 0.36751 0.57972 0.0
O319 O 0.74333 0.48952 0.57564 0.0
H320 H 0.85053 0.45999 0.55009 0.0
H321 H 0.73516 0.33052 0.56522 0.0
Cu322 Cu 0.4086 0.24529 0.47067 0.0
N323 N 0.44632 0.26435 0.46996 0.0
N324 N 0.48983 0.2848 0.47613 0.0
C325 C 0.46354 0.27184 0.47962 0.0
C326 C 0.48911 0.28567 0.46378 0.0
C327 C 0.46226 0.27282 0.46 0.0
O328 O 0.3908 0.26531 0.48549 0.0
C329 C 0.42886 0.18193 0.48008 0.0
O330 O 0.4352 0.20176 0.48949 0.0
H331 H 0.45681 0.26806 0.48904 0.0
H332 H 0.45494 0.26961 0.45064 0.0
N333 N 0.38809 0.25998 0.45663 0.0
N334 N 0.35782 0.26536 0.4405 0.0
C335 C 0.36788 0.24407 0.44946 0.0
C336 C 0.39088 0.29203 0.45202 0.0
C337 C 0.3725 0.2954 0.44213 0.0
C338 C 0.36534 0.27925 0.48583 0.0
O339 O 0.348 0.27644 0.47627 0.0
H340 H 0.36022 0.2179 0.45095 0.0
H341 H 0.40521 0.3118 0.45572 0.0
O342 O 0.41469 0.19508 0.47114 0.0
H343 H 0.50693 0.29424 0.45793 0.0
H344 H 0.37029 0.31833 0.43653 0.0
Cu345 Cu 0.2325 0.60782 0.57016 0.0
N346 N 0.19312 0.60482 0.56532 0.0
N347 N 0.14568 0.58954 0.5643 0.0
C348 C 0.16999 0.5912 0.57143 0.0
C349 C 0.15383 0.60276 0.55338 0.0
C350 C 0.18302 0.6121 0.55404 0.0
O351 O 0.23393 0.62554 0.58701 0.0
C352 C 0.27586 0.55213 0.56787 0.0
O353 O 0.29523 0.5727 0.57305 0.0
H354 H 0.17133 0.58116 0.58066 0.0
H355 H 0.1963 0.62234 0.54665 0.0
N356 N 0.25071 0.64009 0.55991 0.0
N357 N 0.2825 0.66596 0.54726 0.0
C358 C 0.2764 0.63719 0.55379 0.0
C359 C 0.2403 0.67174 0.55717 0.0
C360 C 0.2598 0.68772 0.54932 0.0
C361 C 0.25474 0.64523 0.59065 0.0
O362 O 0.27782 0.64956 0.58354 0.0
H363 H 0.29019 0.6144 0.55397 0.0
H364 H 0.21993 0.68241 0.56068 0.0
O365 O 0.24918 0.562 0.56689 0.0
H366 H 0.1398 0.60491 0.54541 0.0
H367 H 0.25772 0.71356 0.54561 0.0
H368 H 0.12106 0.30597 0.27482 0.0
H369 H 0.13531 0.34824 0.2592 0.0
H370 H 0.22116 0.3575 0.27575 0.0
H371 H 0.20688 0.31593 0.29149 0.0
H372 H 0.20048 0.41928 0.27132 0.0
H373 H 0.2087 0.3145 0.24771 0.0
H374 H 0.19145 0.25941 0.23885 0.0
H375 H 0.12264 0.31306 0.21974 0.0
H376 H 0.13926 0.36844 0.22862 0.0
H377 H 0.27748 0.50945 0.22541 0.0
H378 H 0.26055 0.46099 0.23791 0.0
H379 H 0.17257 0.47366 0.22384 0.0
H380 H 0.18926 0.52268 0.21135 0.0
H381 H 0.19149 0.40191 0.22646 0.0
H382 H 0.18536 0.50718 0.2493 0.0
H383 H 0.20476 0.56229 0.25724 0.0
H384 H 0.26999 0.50738 0.27799 0.0
H385 H 0.25179 0.45192 0.26974 0.0
C386 C 0.14313 0.31661 0.27503 0.0
C387 C 0.16281 0.30742 0.28444 0.0
C388 C 0.15129 0.34083 0.26606 0.0
C389 C 0.17943 0.35615 0.2662 0.0
C390 C 0.19929 0.3463 0.27542 0.0
C391 C 0.19111 0.3223 0.28441 0.0
C392 C 0.18793 0.38344 0.25712 0.0
C393 C 0.19883 0.41518 0.26152 0.0
C394 C 0.18504 0.3788 0.24429 0.0
C395 C 0.17503 0.34555 0.23893 0.0
C396 C 0.18974 0.31451 0.2417 0.0
C397 C 0.18011 0.28324 0.23665 0.0
C398 C 0.15591 0.28272 0.22876 0.0
C399 C 0.14135 0.31349 0.22587 0.0
C400 C 0.15088 0.34483 0.2309 0.0
C401 C 0.2546 0.50171 0.22479 0.0
C402 C 0.23471 0.52023 0.21739 0.0
C403 C 0.24495 0.47396 0.23198 0.0
C404 C 0.21523 0.46383 0.2319 0.0
C405 C 0.1956 0.48099 0.22405 0.0
C406 C 0.20518 0.50909 0.21694 0.0
C407 C 0.20449 0.43717 0.24071 0.0
C408 C 0.19307 0.40582 0.23628 0.0
C409 C 0.2069 0.44209 0.25353 0.0
C410 C 0.21741 0.47535 0.25878 0.0
C411 C 0.20406 0.50682 0.25545 0.0
C412 C 0.21486 0.53815 0.26 0.0
C413 C 0.23857 0.53834 0.26813 0.0
C414 C 0.25161 0.50719 0.27168 0.0
C415 C 0.24113 0.47579 0.26704 0.0
H416 H 0.24681 0.56262 0.27169 0.0
H417 H 0.14848 0.25849 0.22487 0.0
H418 H 0.46162 0.81543 0.81708 0.0
H419 H 0.42081 0.83369 0.80403 0.0
H420 H 0.47115 0.80616 0.77194 0.0
H421 H 0.51193 0.78765 0.78491 0.0
H422 H 0.44152 0.86589 0.76839 0.0
H423 H 0.41993 0.75147 0.78287 0.0
H424 H 0.41283 0.7061 0.79846 0.0
H425 H 0.3423 0.76462 0.81459 0.0
H426 H 0.34926 0.81058 0.79918 0.0
H427 H 0.29342 0.80923 0.73827 0.0
H428 H 0.33683 0.7988 0.75084 0.0
H429 H 0.34277 0.90785 0.75886 0.0
H430 H 0.29923 0.91854 0.74614 0.0
H431 H 0.34495 0.80817 0.77438 0.0
H432 H 0.41973 0.92679 0.76355 0.0
H433 H 0.42993 0.96742 0.74669 0.0
H434 H 0.39645 0.89389 0.72072 0.0
H435 H 0.38704 0.85231 0.73736 0.0
C436 C 0.46403 0.81323 0.80726 0.0
C437 C 0.49003 0.79975 0.80208 0.0
C438 C 0.44071 0.8238 0.7998 0.0
C439 C 0.4428 0.82091 0.78701 0.0
C440 C 0.46908 0.8087 0.78179 0.0
C441 C 0.49244 0.79816 0.78924 0.0
C442 C 0.41712 0.82899 0.77911 0.0
C443 C 0.42031 0.85349 0.76972 0.0
C444 C 0.38966 0.81227 0.78071 0.0
C445 C 0.38533 0.78461 0.78995 0.0
C446 C 0.40306 0.75478 0.7898 0.0
C447 C 0.39904 0.72894 0.79859 0.0
C448 C 0.37718 0.73252 0.80753 0.0
C449 C 0.35925 0.76191 0.80767 0.0
C450 C 0.36321 0.78785 0.79891 0.0
C451 C 0.30382 0.83103 0.74274 0.0
C452 C 0.29272 0.86471 0.74125 0.0
C453 C 0.32873 0.82503 0.7499 0.0
C454 C 0.34318 0.85254 0.75576 0.0
C455 C 0.33228 0.8863 0.75427 0.0
C456 C 0.30738 0.89236 0.74701 0.0
C457 C 0.36913 0.8454 0.76365 0.0
C458 C 0.366 0.82099 0.77308 0.0
C459 C 0.39676 0.86179 0.7619 0.0
C460 C 0.40217 0.88663 0.75177 0.0
C461 C 0.41463 0.91921 0.75424 0.0
C462 C 0.4204 0.94237 0.74471 0.0
C463 C 0.41365 0.93335 0.73265 0.0
C464 C 0.40146 0.90096 0.73008 0.0
C465 C 0.39594 0.87755 0.73956 0.0
H466 H 0.41796 0.95141 0.7253 0.0
H467 H 0.37409 0.71249 0.81433 0.0
H468 H 0.80805 0.53264 0.20606 0.0
H469 H 0.82919 0.58291 0.21679 0.0
H470 H 0.75157 0.58933 0.23949 0.0
H471 H 0.73061 0.5394 0.22897 0.0
H472 H 0.77024 0.65368 0.23165 0.0
H473 H 0.81186 0.55056 0.24997 0.0
H474 H 0.83942 0.49557 0.24939 0.0
H475 H 0.91602 0.54893 0.2361 0.0
H476 H 0.88874 0.60419 0.23641 0.0
H477 H 0.80778 0.74371 0.28527 0.0
H478 H 0.79294 0.70182 0.2698 0.0
H479 H 0.8807 0.70288 0.2546 0.0
H480 H 0.89601 0.74451 0.27035 0.0
H481 H 0.86147 0.63813 0.25598 0.0
H482 H 0.82188 0.74232 0.23967 0.0
H483 H 0.79436 0.79732 0.23976 0.0
H484 H 0.71459 0.74291 0.24852 0.0
H485 H 0.7417 0.68761 0.24865 0.0
C486 C 0.79536 0.54514 0.21322 0.0
C487 C 0.76767 0.53196 0.21668 0.0
C488 C 0.80753 0.57372 0.21939 0.0
C489 C 0.79206 0.58981 0.22903 0.0
C490 C 0.76395 0.57746 0.23211 0.0
C491 C 0.75202 0.54878 0.22609 0.0
C492 C 0.80523 0.6186 0.23633 0.0
C493 C 0.79013 0.65026 0.237 0.0
C494 C 0.83164 0.61454 0.24308 0.0
C495 C 0.84816 0.58143 0.24307 0.0
C496 C 0.83451 0.55053 0.24683 0.0
C497 C 0.85008 0.51932 0.24657 0.0
C498 C 0.87942 0.51875 0.24267 0.0
C499 C 0.89327 0.54941 0.23909 0.0
C500 C 0.87777 0.58068 0.23931 0.0
C501 C 0.82397 0.73539 0.27858 0.0
C502 C 0.8531 0.74778 0.27906 0.0
C503 C 0.81537 0.7114 0.26967 0.0
C504 C 0.83552 0.69936 0.26085 0.0
C505 C 0.86465 0.71176 0.26125 0.0
C506 C 0.87334 0.73576 0.27023 0.0
C507 C 0.82612 0.67316 0.25152 0.0
C508 C 0.84186 0.64191 0.25048 0.0
C509 C 0.80034 0.67763 0.24437 0.0
C510 C 0.78389 0.71083 0.24425 0.0
C511 C 0.79851 0.7421 0.2417 0.0
C512 C 0.78297 0.77333 0.2417 0.0
C513 C 0.75276 0.77362 0.24416 0.0
C514 C 0.738 0.74265 0.24661 0.0
C515 C 0.75343 0.71135 0.24664 0.0
H516 H 0.74077 0.79782 0.24416 0.0
H517 H 0.89144 0.49459 0.24247 0.0
H518 H 0.53824 0.24543 0.79059 0.0
H519 H 0.56488 0.21549 0.77434 0.0
H520 H 0.48698 0.15658 0.76567 0.0
H521 H 0.46009 0.18627 0.78215 0.0
H522 H 0.5391 0.11631 0.76593 0.0
H523 H 0.50386 0.22038 0.74751 0.0
H524 H 0.49491 0.28315 0.74604 0.0
H525 H 0.58812 0.30214 0.74624 0.0
H526 H 0.59764 0.23949 0.7479 0.0
H527 H 0.61514 0.05822 0.71118 0.0
H528 H 0.57677 0.08125 0.72489 0.0
H529 H 0.63778 0.15824 0.73808 0.0
H530 H 0.67569 0.13558 0.7247 0.0
H531 H 0.58601 0.18699 0.73339 0.0
H532 H 0.62114 0.08434 0.75434 0.0
H533 H 0.63072 0.02184 0.75665 0.0
H534 H 0.53858 1.00039 0.75204 0.0
H535 H 0.5285 0.06273 0.74954 0.0
C536 C 0.52678 0.22583 0.78537 0.0
C537 C 0.49697 0.21829 0.78769 0.0
C538 C 0.54201 0.2089 0.776 0.0
C539 C 0.52784 0.18405 0.76871 0.0
C540 C 0.4983 0.17577 0.77115 0.0
C541 C 0.48293 0.19292 0.78051 0.0
C542 C 0.54404 0.16747 0.75842 0.0
C543 C 0.5489 0.1316 0.75866 0.0
C544 C 0.55705 0.1875 0.74902 0.0
C545 C 0.55144 0.22522 0.74791 0.0
C546 C 0.52245 0.23795 0.74733 0.0
C547 C 0.51727 0.27351 0.74645 0.0
C548 C 0.54093 0.29662 0.74607 0.0
C549 C 0.56982 0.2842 0.74654 0.0
C550 C 0.57511 0.24866 0.74743 0.0
C551 C 0.62024 0.08009 0.71699 0.0
C552 C 0.6484 0.09532 0.71663 0.0
C553 C 0.59835 0.09319 0.72484 0.0
C554 C 0.60438 0.12154 0.73253 0.0
C555 C 0.63244 0.13665 0.73215 0.0
C556 C 0.65414 0.12371 0.72436 0.0
C557 C 0.58195 0.13591 0.74109 0.0
C558 C 0.57584 0.17149 0.74052 0.0
C559 C 0.56796 0.1156 0.7502 0.0
C560 C 0.57412 0.07814 0.7516 0.0
C561 C 0.60297 0.06626 0.7537 0.0
C562 C 0.60848 0.03088 0.75507 0.0
C563 C 0.58528 1.00718 0.75446 0.0
C564 C 0.55653 0.01879 0.75249 0.0
C565 C 0.5509 0.05413 0.7511 0.0
H566 H 0.58952 0.97983 0.75556 0.0
H567 H 0.53688 0.32415 0.74539 0.0
H568 H 0.21247 1.01706 0.06829 0.0
H569 H 0.19383 0.06495 0.05588 0.0
H570 H 0.27618 0.06841 0.03613 0.0
H571 H 0.29528 0.02156 0.0488 0.0
H572 H 0.25874 0.13062 0.03889 0.0
H573 H 0.21141 0.02789 0.02457 0.0
H574 H 0.1823 0.97415 0.02606 0.0
H575 H 0.10776 0.03208 0.03904 0.0
H576 H 0.13663 0.08613 0.03778 0.0
H577 H 0.20653 0.20306 0.98246 0.0
H578 H 0.22497 0.16446 0.99848 0.0
H579 H 0.15129 0.19171 0.0215 0.0
H580 H 0.13306 0.23118 1.00558 0.0
H581 H 0.16237 0.11688 0.01807 0.0
H582 H 0.21291 0.22147 0.02988 0.0
H583 H 0.24419 0.27261 0.02623 0.0
H584 H 0.31571 0.20679 1.01521 0.0
H585 H 0.2847 0.15525 0.01863 0.0
C586 C 0.22675 0.0283 0.0614 0.0
C587 C 0.25537 1.01529 0.05955 0.0
C588 C 0.21596 0.05556 0.05422 0.0
C589 C 0.23328 0.07002 0.04482 0.0
C590 C 0.26224 0.05783 0.04326 0.0
C591 C 0.27317 0.03092 0.05054 0.0
C592 C 0.22118 0.0972 0.03643 0.0
C593 C 0.23776 0.12735 0.03428 0.0
C594 C 0.19364 0.09343 0.03043 0.0
C595 C 0.17625 0.061 0.03121 0.0
C596 C 0.18888 0.02913 0.02783 0.0
C597 C 0.17243 0.99862 0.02862 0.0
C598 C 0.14323 0.99969 0.03268 0.0
C599 C 0.1304 0.03129 0.03592 0.0
C600 C 0.14678 0.06187 0.03516 0.0
C601 C 0.19448 0.20129 0.99101 0.0
C602 C 0.16844 0.22041 0.99277 0.0
C603 C 0.20504 0.17917 1.00015 0.0
C604 C 0.18954 0.17517 1.0112 0.0
C605 C 0.16365 0.19444 1.01306 0.0
C606 C 0.15339 0.21718 1.00399 0.0
C607 C 0.20001 0.14994 0.02056 0.0
C608 C 0.18317 0.12015 0.02282 0.0
C609 C 0.22766 0.15356 0.02639 0.0
C610 C 0.24639 0.18451 0.02442 0.0
C611 C 0.23522 0.21791 0.02658 0.0
C612 C 0.25292 0.24697 0.02458 0.0
C613 C 0.28189 0.24296 0.02047 0.0
C614 C 0.29325 0.20986 0.01839 0.0
C615 C 0.27564 0.18072 0.02037 0.0
H616 H 0.29556 0.26548 0.01892 0.0
H617 H 0.13053 0.97605 0.03328 0.0
H618 H 0.24924 0.83363 0.02456 0.0
H619 H 0.20604 0.82675 1.01144 0.0
H620 H 0.15981 0.90415 0.03247 0.0
H621 H 0.20311 0.91111 0.04569 0.0
H622 H 0.12723 0.84177 0.02832 0.0
H623 H 0.18003 0.9269 1.00571 0.0
H624 H 0.2235 0.95316 0.99586 0.0
H625 H 0.2305 0.86614 0.97155 0.0
H626 H 0.1873 0.83908 0.98138 0.0
H627 H 1.00755 0.83299 0.98583 0.0
H628 H 0.04672 0.85557 0.99901 0.0
H629 H 0.1107 0.79491 0.97913 0.0
H630 H 0.07182 0.77254 0.96594 0.0
H631 H 0.13168 0.85772 0.98328 0.0
H632 H 0.083 0.76972 1.00744 0.0
H633 H 0.04052 0.74207 0.01759 0.0
H634 H 0.02647 0.83352 0.03918 0.0
H635 H 0.06868 0.86188 0.02904 0.0
C636 C 0.22989 0.84917 0.02639 0.0
C637 C 0.22955 0.87281 0.03617 0.0
C638 C 0.2053 0.84539 0.01885 0.0
C639 C 0.17979 0.86501 0.02097 0.0
C640 C 0.17932 0.88878 0.03069 0.0
C641 C 0.20411 0.89289 0.03817 0.0
C642 C 0.15348 0.85968 1.01317 0.0
C643 C 0.12791 0.84592 0.0185 0.0
C644 C 0.15465 0.86458 1.00035 0.0
C645 C 0.18053 0.88084 0.99434 0.0
C646 C 0.19096 0.91322 0.99832 0.0
C647 C 0.21554 0.92828 0.99274 0.0
C648 C 0.22979 0.9113 0.9831 0.0
C649 C 0.21944 0.87926 0.97902 0.0
C650 C 0.19489 0.86406 0.98459 0.0
C651 C 0.02995 0.8244 0.98431 0.0
C652 C 0.03652 0.80091 0.97484 0.0
C653 C 0.05233 0.83734 0.99184 0.0
C654 C 0.08166 0.8267 0.99014 0.0
C655 C 0.08828 0.80364 0.98059 0.0
C656 C 0.066 0.7909 0.97302 0.0
C657 C 0.10557 0.83895 0.99837 0.0
C658 C 0.13075 0.85402 0.99312 0.0
C659 C 0.10405 0.83512 1.01126 0.0
C660 C 0.07876 0.81806 0.01738 0.0
C661 C 0.07071 0.78402 1.01429 0.0
C662 C 0.04671 0.76821 0.02005 0.0
C663 C 0.03074 0.78606 0.029 0.0
C664 C 0.03881 0.81974 0.03223 0.0
C665 C 0.06278 0.8357 0.02648 0.0
H666 H 0.01217 0.77377 0.03345 0.0
H667 H 0.24882 0.923 0.97879 0.0
H668 H 0.82695 0.78807 0.98387 0.0
H669 H 0.80566 0.83677 0.9951 0.0
H670 H 0.89008 0.88811 0.99493 0.0
H671 H 0.91176 0.83867 0.98421 0.0
H672 H 0.8663 0.8998 1.01565 0.0
H673 H 0.83033 0.91043 0.97479 0.0
H674 H 0.80642 0.89158 0.95565 0.0
H675 H 0.72563 0.87337 0.97512 0.0
H676 H 0.74917 0.89167 0.99442 0.0
H677 H 0.80121 0.05635 0.03723 0.0
H678 H 0.82515 1.01741 0.02252 0.0
H679 H 0.75048 0.94859 0.02436 0.0
H680 H 0.72656 0.98719 0.03897 0.0
H681 H 0.77234 0.9512 1.00135 0.0
H682 H 0.81131 0.93713 0.04249 0.0
H683 H 0.83601 0.95752 0.06126 0.0
H684 H 0.91263 0.98506 0.04031 0.0
H685 H 0.88816 0.9654 0.02137 0.0
C686 C 0.84105 0.80962 0.9863 0.0
C687 C 0.87106 0.80943 0.98308 0.0
C688 C 0.82877 0.83771 0.99264 0.0
C689 C 0.84597 0.86682 0.99563 0.0
C690 C 0.87617 0.86623 0.99271 0.0
C691 C 0.88858 0.83785 0.98656 0.0
C692 C 0.83251 0.89771 1.00182 0.0
C693 C 0.84603 0.91135 1.01235 0.0
C694 C 0.80589 0.91299 0.99767 0.0
C695 C 0.7916 0.90217 0.98607 0.0
C696 C 0.80752 0.90221 0.97501 0.0
C697 C 0.79402 0.89164 0.96413 0.0
C698 C 0.76455 0.88121 0.96418 0.0
C699 C 0.74847 0.88142 0.9751 0.0
C700 C 0.76187 0.89193 0.98601 0.0
C701 C 0.78955 0.0334 0.03427 0.0
C702 C 0.76206 0.02472 0.03942 0.0
C703 C 0.8034 1.01097 0.02591 0.0
C704 C 0.78992 0.97958 0.02251 0.0
C705 C 0.76147 0.97244 0.02687 0.0
C706 C 0.74777 0.99463 0.03525 0.0
C707 C 0.80591 0.95275 1.01521 0.0
C708 C 0.79283 0.93986 1.00449 0.0
C709 C 0.83308 0.93845 0.01911 0.0
C710 C 0.84781 0.95008 0.0305 0.0
C711 C 0.83336 0.94774 0.04187 0.0
C712 C 0.84733 0.95911 0.05255 0.0
C713 C 0.8759 0.97247 0.05198 0.0
C714 C 0.89054 0.97457 0.04074 0.0
C715 C 0.87662 0.96338 0.03003 0.0
H716 H 0.88666 0.98134 0.06025 0.0
H717 H 0.75414 0.87303 0.95575 0.0
H718 H 0.89951 0.10789 0.07518 0.0
H719 H 0.93701 0.12967 0.06089 0.0
H720 H 0.90132 0.06457 0.0324 0.0
H721 H 0.86269 0.04507 0.04642 0.0
H722 H 0.98022 0.11025 0.04604 0.0
H723 H 0.89723 0.10604 1.00634 0.0
H724 H 0.84337 0.10265 1.00344 0.0
H725 H 0.82973 0.15558 0.03757 0.0
H726 H 0.88348 0.15967 0.04058 0.0
H727 H 0.05428 0.17113 0.99221 0.0
H728 H 0.02655 0.13674 1.0072 0.0
H729 H 0.96161 0.21813 1.00972 0.0
H730 H 0.98843 0.25127 0.99428 0.0
H731 H 0.93419 0.16224 1.00922 0.0
H732 H 0.01917 0.20003 0.03226 0.0
H733 H 0.07241 0.20598 0.0363 0.0
H734 H 0.08122 0.09543 0.03757 0.0
H735 H 0.02818 0.08883 0.03335 0.0
C736 C 0.90028 0.09768 0.06595 0.0
C737 C 0.87828 0.07495 0.06184 0.0
C738 C 0.92167 0.11008 0.05779 0.0
C739 C 0.92156 0.09947 0.04546 0.0
C740 C 0.90143 0.0739 0.04176 0.0
C741 C 0.87955 0.06246 0.04978 0.0
C742 C 0.93972 0.11814 0.0362 0.0
C743 C 0.97023 0.12155 0.03797 0.0
C744 C 0.92666 0.13352 0.02576 0.0
C745 C 0.89435 0.13292 0.02371 0.0
C746 C 0.88272 0.11722 1.01316 0.0
C747 C 0.85222 0.11511 1.01152 0.0
C748 C 0.83315 0.1288 0.02034 0.0
C749 C 0.84453 0.14492 0.03076 0.0
C750 C 0.875 0.14718 0.03243 0.0
C751 C 0.03407 0.18148 0.99601 0.0
C752 C 0.02336 0.2137 0.99207 0.0
C753 C 0.01831 0.16198 1.00463 0.0
C754 C 0.99206 0.17491 1.00979 0.0
C755 C 0.98163 0.20733 1.00588 0.0
C756 C 0.99695 0.22633 0.99706 0.0
C757 C 0.97491 0.15473 0.01903 0.0
C758 C 0.94442 0.15094 0.01725 0.0
C759 C 0.98795 0.13991 0.0296 0.0
C760 C 0.01976 0.14394 0.03237 0.0
C761 C 0.03251 0.177 0.03334 0.0
C762 C 0.06266 0.18048 0.03566 0.0
C763 C 0.08023 0.1511 0.03714 0.0
C764 C 0.06765 0.11818 0.03638 0.0
C765 C 0.03753 0.11455 0.03404 0.0
H766 H 0.10358 0.15384 0.03891 0.0
H767 H 0.80955 0.12696 0.01908 0.0
H768 H 0.611 0.83656 0.79057 0.0
H769 H 0.63001 0.88625 0.77919 0.0
H770 H 0.71893 0.85121 0.78554 0.0
H771 H 0.70004 0.80225 0.79733 0.0
H772 H 0.71785 0.91687 0.78887 0.0
H773 H 0.68058 0.84326 0.75699 0.0
H774 H 0.64355 0.80844 0.74599 0.0
H775 H 0.589 0.89837 0.74171 0.0
H776 H 0.62561 0.93362 0.75281 0.0
H777 H 0.7925 1.00029 0.73948 0.0
H778 H 0.76967 0.96254 0.75475 0.0
H779 H 0.68812 0.01887 0.75126 0.0
H780 H 0.71122 0.05723 0.73606 0.0
H781 H 0.68213 0.94757 0.7474 0.0
H782 H 0.72334 0.02176 0.77782 0.0
H783 H 0.76231 0.05547 0.78805 0.0
H784 H 0.81204 0.96256 0.79408 0.0
H785 H 0.77356 0.92832 0.78373 0.0
C786 C 0.6346 0.83923 0.78945 0.0
C787 C 0.65396 0.8152 0.79483 0.0
C788 C 0.6455 0.86772 0.7829 0.0
C789 C 0.67602 0.87255 0.78132 0.0
C790 C 0.69532 0.84834 0.7866 0.0
C791 C 0.68446 0.82014 0.7933 0.0
C792 C 0.68795 0.90294 0.77436 0.0
C793 C 0.71019 0.92325 0.77975 0.0
C794 C 0.67758 0.91221 0.76256 0.0
C795 C 0.6556 0.89098 0.75589 0.0
C796 C 0.66056 0.85554 0.7538 0.0
C797 C 0.63969 0.83573 0.74752 0.0
C798 C 0.61388 0.85114 0.7432 0.0
C799 C 0.60895 0.88643 0.74509 0.0
C800 C 0.62975 0.90633 0.75137 0.0
C801 C 0.77007 1.00552 0.74235 0.0
C802 C 0.75383 0.0321 0.73676 0.0
C803 C 0.75696 0.98379 0.75104 0.0
C804 C 0.72713 0.98776 0.75418 0.0
C805 C 0.71119 1.01536 0.74903 0.0
C806 C 0.72451 0.03758 0.74047 0.0
C807 C 0.71222 0.96096 0.76185 0.0
C808 C 0.6895 0.94131 0.75658 0.0
C809 C 0.72244 0.952 0.77366 0.0
C810 C 0.74564 0.9725 0.77991 0.0
C811 C 0.7427 1.00854 0.78124 0.0
C812 C 0.76468 0.02774 0.78708 0.0
C813 C 0.78966 1.01118 0.79169 0.0
C814 C 0.79268 0.97536 0.7905 0.0
C815 C 0.77077 0.95603 0.78466 0.0
H816 H 0.80666 0.0261 0.79621 0.0
H817 H 0.59775 0.83577 0.73834 0.0
H818 H 0.98788 0.34399 0.30846 0.0
H819 H 0.94948 0.36582 0.29479 0.0
H820 H 0.9822 0.30023 0.26582 0.0
H821 H 0.02063 0.27853 0.27939 0.0
H822 H 0.96988 0.36265 0.25717 0.0
H823 H 0.92034 0.27921 0.28281 0.0
H824 H 0.90418 0.25386 0.30241 0.0
H825 H 0.85821 0.34766 0.31136 0.0
H826 H 0.87445 0.37375 0.29186 0.0
H827 H 0.84835 0.33946 0.21801 0.0
H828 H 0.88706 0.33188 0.23328 0.0
H829 H 0.85062 0.4155 0.25464 0.0
H830 H 0.81161 0.4233 0.23928 0.0
H831 H 0.86411 0.35236 0.26816 0.0
H832 H 0.90975 0.43303 0.2412 0.0
H833 H 0.92514 0.45684 0.22126 0.0
H834 H 0.97787 0.36653 0.21451 0.0
H835 H 0.96244 0.34198 0.23436 0.0
C836 C 0.98679 0.3341 0.2992 0.0
C837 C 1.0073 0.30946 0.29503 0.0
C838 C 0.96485 0.34663 0.29139 0.0
C839 C 0.96276 0.33443 0.2793 0.0
C840 C 0.98343 0.31015 0.27509 0.0
C841 C 1.00545 0.29779 0.28286 0.0
C842 C 0.93895 0.34653 0.27102 0.0
C843 C 0.94677 0.36016 0.25955 0.0
C844 C 0.90875 0.34426 0.27425 0.0
C845 C 0.89889 0.32857 0.28595 0.0
C846 C 0.90698 0.29453 0.289 0.0
C847 C 0.89778 0.28001 0.30008 0.0
C848 C 0.88025 0.29917 0.30815 0.0
C849 C 0.87183 0.33287 0.30512 0.0
C850 C 0.88101 0.34753 0.29405 0.0
C851 C 0.84846 0.35614 0.22598 0.0
C852 C 0.82684 0.38183 0.22749 0.0
C853 C 0.8707 0.35195 0.23465 0.0
C854 C 0.8717 0.37317 0.24506 0.0
C855 C 0.85017 0.39887 0.24665 0.0
C856 C 0.82806 0.40341 0.23786 0.0
C857 C 0.89514 0.36772 0.25428 0.0
C858 C 0.88725 0.3553 0.26589 0.0
C859 C 0.92527 0.3709 0.25116 0.0
C860 C 0.93475 0.38557 0.23923 0.0
C861 C 0.92444 0.41814 0.23542 0.0
C862 C 0.93321 0.43179 0.22414 0.0
C863 C 0.95243 0.41317 0.21661 0.0
C864 C 0.96297 0.38091 0.22035 0.0
C865 C 0.95425 0.36714 0.23163 0.0
H866 H 0.95919 0.42377 0.20788 0.0
H867 H 0.87314 0.28789 0.31672 0.0
H868 H 0.28108 1.01433 0.71734 0.0
H869 H 0.30727 0.06269 0.72717 0.0
H870 H 0.23316 0.07906 0.75125 0.0
H871 H 0.20708 0.03136 0.74152 0.0
H872 H 0.25676 0.14037 0.74466 0.0
H873 H 0.29105 0.03119 0.76117 0.0
H874 H 0.3115 0.97238 0.75896 0.0
H875 H 0.38888 1.01403 0.74174 0.0
H876 H 0.36881 0.07313 0.74386 0.0
H877 H 0.35494 0.17037 0.80192 0.0
H878 H 0.33128 0.13373 0.78671 0.0
H879 H 0.33514 0.21688 0.76045 0.0
H880 H 0.35865 0.25419 0.77583 0.0
H881 H 0.34961 0.10885 0.76578 0.0
H882 H 0.27683 0.20704 0.74025 0.0
H883 H 0.25159 0.26267 0.74393 0.0
H884 H 0.24498 0.23908 0.78226 0.0
H885 H 0.26985 0.18318 0.77877 0.0
C886 C 0.2702 0.02873 0.72456 0.0
C887 C 0.24208 0.01879 0.7287 0.0
C888 C 0.28522 0.05626 0.73022 0.0
C889 C 0.27232 0.07442 0.74006 0.0
C890 C 0.24363 0.06563 0.7437 0.0
C891 C 0.22879 0.03812 0.73814 0.0
C892 C 0.28921 0.10047 0.74735 0.0
C893 C 0.2773 0.13367 0.74914 0.0
C894 C 0.31569 0.09168 0.75342 0.0
C895 C 0.32835 0.05644 0.75257 0.0
C896 C 0.31242 0.02775 0.75691 0.0
C897 C 0.32393 0.9944 0.75567 0.0
C898 C 0.3514 0.98945 0.75016 0.0
C899 C 0.36759 0.01789 0.746 0.0
C900 C 0.35619 0.05134 0.74724 0.0
C901 C 0.35065 0.18111 0.79295 0.0
C902 C 0.35869 0.21539 0.79015 0.0
C903 C 0.33722 0.15994 0.7842 0.0
C904 C 0.33137 0.17231 0.77237 0.0
C905 C 0.33912 0.20669 0.76953 0.0
C906 C 0.35254 0.22806 0.77834 0.0
C907 C 0.31711 0.14889 0.7632 0.0
C908 C 0.32949 0.11603 0.76108 0.0
C909 C 0.29068 0.15779 0.75706 0.0
C910 C 0.27553 0.19118 0.75926 0.0
C911 C 0.26994 0.21373 0.74945 0.0
C912 C 0.2557 0.24529 0.75151 0.0
C913 C 0.2468 0.25446 0.76333 0.0
C914 C 0.252 0.23203 0.77311 0.0
C915 C 0.2662 0.20043 0.7711 0.0
H916 H 0.23579 0.27891 0.7649 0.0
H917 H 0.3601 0.96358 0.74911 0.0
H918 H 0.04326 0.77902 0.30612 0.0
H919 H 0.0855 0.75906 0.29399 0.0
H920 H 0.02798 0.69388 0.27266 0.0
H921 H 0.98549 0.71442 0.28465 0.0
H922 H 0.08439 0.66221 0.28192 0.0
H923 H 0.04598 0.75748 0.25888 0.0
H924 H 0.02799 0.81682 0.2554 0.0
H925 H 0.11118 0.85782 0.26718 0.0
H926 H 0.12953 0.79866 0.27093 0.0
H927 H 0.1864 0.628 0.2331 0.0
H928 H 0.14346 0.6404 0.24591 0.0
H929 H 0.18975 0.72599 0.26243 0.0
H930 H 0.23268 0.71374 0.24966 0.0
H931 H 0.13693 0.74562 0.25515 0.0
H932 H 0.17544 0.65049 0.27849 0.0
H933 H 0.19346 0.5912 0.28213 0.0
H934 H 0.11086 0.54981 0.26982 0.0
H935 H 0.09238 0.60889 0.26605 0.0
C936 C 0.03972 0.76023 0.29891 0.0
C937 C 0.01121 0.74819 0.2963 0.0
C938 C 0.06376 0.74897 0.29198 0.0
C939 C 0.05976 0.72504 0.28246 0.0
C940 C 0.03143 0.71232 0.28 0.0
C941 C 1.00726 0.72416 0.28678 0.0
C942 C 0.08519 0.71419 0.27489 0.0
C943 C 0.09571 0.68021 0.27592 0.0
C944 C 0.10014 0.73799 0.26729 0.0
C945 C 0.08901 0.77364 0.26532 0.0
C946 C 0.06032 0.77915 0.26088 0.0
C947 C 0.05009 0.81275 0.25882 0.0
C948 C 0.06844 0.84106 0.26105 0.0
C949 C 0.09702 0.83584 0.26543 0.0
C950 C 0.10733 0.80229 0.26753 0.0
C951 C 0.18764 0.64908 0.2396 0.0
C952 C 0.21293 0.67006 0.24028 0.0
C953 C 0.16304 0.65614 0.24693 0.0
C954 C 0.16338 0.6841 0.25516 0.0
C955 C 0.1889 0.70442 0.25609 0.0
C956 C 0.2134 0.69747 0.24875 0.0
C957 C 0.13665 0.69361 0.26227 0.0
C958 C 0.12574 0.72746 0.26113 0.0
C959 C 0.12144 0.66965 0.26978 0.0
C960 C 0.13263 0.6341 0.27189 0.0
C961 C 0.1612 0.62874 0.27647 0.0
C962 C 0.17146 0.59518 0.2786 0.0
C963 C 0.15332 0.56676 0.2762 0.0
C964 C 0.12488 0.57185 0.27168 0.0
C965 C 0.11447 0.60537 0.26957 0.0
H966 H 0.16131 0.54079 0.27785 0.0
H967 H 0.06052 0.86703 0.25939 0.0
H968 H 0.70347 0.51537 0.56136 0.0
H969 H 0.68178 0.56002 0.54827 0.0
H970 H 0.7482 0.63245 0.56011 0.0
H971 H 0.77036 0.5878 0.57294 0.0
H972 H 0.65752 0.62135 0.55071 0.0
H973 H 0.76877 0.68431 0.53681 0.0
H974 H 0.82096 0.6677 0.53442 0.0
H975 H 0.79552 0.56208 0.52834 0.0
H976 H 0.74319 0.57814 0.53051 0.0
H977 H 0.6269 0.77791 0.51922 0.0
H978 H 0.64709 0.73513 0.53341 0.0
H979 H 0.68667 0.68045 0.50311 0.0
H980 H 0.66719 0.72355 0.48893 0.0
H981 H 0.72352 0.68049 0.52113 0.0
H982 H 0.62161 0.65288 0.51714 0.0
H983 H 0.56811 0.66399 0.51744 0.0
H984 H 0.5724 0.6888 0.55573 0.0
H985 H 0.62604 0.67837 0.55562 0.0
C986 C 0.71325 0.54093 0.5613 0.0
C987 C 0.73884 0.54784 0.56816 0.0
C988 C 0.7008 0.5665 0.5538 0.0
C989 C 0.71361 0.59956 0.55298 0.0
C990 C 0.73822 0.607 0.56033 0.0
C991 C 0.7508 0.58142 0.56774 0.0
C992 C 0.70209 0.62575 0.5441 0.0
C993 C 0.672 0.63436 0.54429 0.0
C994 C 0.72068 0.64224 0.53543 0.0
C995 C 0.75209 0.6324 0.53396 0.0
C996 C 0.77432 0.65757 0.53492 0.0
C997 C 0.80392 0.64825 0.53361 0.0
C998 C 0.81156 0.61384 0.53127 0.0
C999 C 0.78959 0.5887 0.53019 0.0
C1000 C 0.75996 0.59789 0.53147 0.0
C1001 C 0.6401 0.75695 0.51557 0.0
C1002 C 0.64531 0.75424 0.50289 0.0
C1003 C 0.6515 0.7323 0.52371 0.0
C1004 C 0.66807 0.70407 0.51936 0.0
C1005 C 0.67395 0.70185 0.50674 0.0
C1006 C 0.66273 0.72659 0.49862 0.0
C1007 C 0.67905 0.67667 0.5279 0.0
C1008 C 0.70905 0.66773 0.52762 0.0
C1009 C 0.66018 0.65915 0.53621 0.0
C1010 C 0.6279 0.66517 0.53634 0.0
C1011 C 0.61118 0.66094 0.52561 0.0
C1012 C 0.58083 0.66709 0.52574 0.0
C1013 C 0.56688 0.67718 0.53659 0.0
C1014 C 0.58325 0.68104 0.54733 0.0
C1015 C 0.61362 0.675 0.54724 0.0
H1016 H 0.54338 0.68193 0.53667 0.0
H1017 H 0.83449 0.60667 0.53028 0.0
H1018 H 0.68479 0.32375 0.55926 0.0
H1019 H 0.64678 0.30846 0.54443 0.0
H1020 H 0.66512 0.40186 0.5242 0.0
H1021 H 0.70299 0.41751 0.53916 0.0
H1022 H 0.60783 0.39259 0.52575 0.0
H1023 H 0.68921 0.32141 0.51417 0.0
H1024 H 0.72955 0.27951 0.51708 0.0
H1025 H 0.66722 0.20218 0.52832 0.0
H1026 H 0.62652 0.24378 0.52564 0.0
H1027 H 0.52875 0.33682 0.47247 0.0
H1028 H 0.56913 0.35412 0.48608 0.0
H1029 H 0.54568 0.27226 0.51108 0.0
H1030 H 0.50534 0.25497 0.49752 0.0
H1031 H 0.60682 0.27684 0.50605 0.0
H1032 H 0.52568 0.35003 0.51793 0.0
H1033 H 0.48592 0.39206 0.51416 0.0
H1034 H 0.54926 0.46632 0.50138 0.0
H1035 H 0.5894 0.4244 0.50485 0.0
C1036 C 0.68092 0.34089 0.5516 0.0
C1037 C 0.69706 0.37172 0.55034 0.0
C1038 C 0.65917 0.33212 0.54312 0.0
C1039 C 0.65339 0.3537 0.53306 0.0
C1040 C 0.6692 0.38475 0.53186 0.0
C1041 C 0.69081 0.39371 0.54042 0.0
C1042 C 0.63063 0.34392 0.5239 0.0
C1043 C 0.60792 0.36748 0.5213 0.0
C1044 C 0.63042 0.31096 0.51821 0.0
C1045 C 0.65484 0.28583 0.51981 0.0
C1046 C 0.68412 0.29556 0.51736 0.0
C1047 C 0.70705 0.27184 0.51895 0.0
C1048 C 0.70096 0.23823 0.52291 0.0
C1049 C 0.67191 0.22824 0.52526 0.0
C1050 C 0.6489 0.25187 0.5237 0.0
C1051 C 0.53236 0.32246 0.48083 0.0
C1052 C 0.51384 0.29469 0.48398 0.0
C1053 C 0.55529 0.33243 0.48862 0.0
C1054 C 0.56024 0.31456 0.49961 0.0
C1055 C 0.54216 0.28641 0.50265 0.0
C1056 C 0.51902 0.27674 0.49496 0.0
C1057 C 0.58409 0.32536 0.50803 0.0
C1058 C 0.60695 0.30199 0.51047 0.0
C1059 C 0.58458 0.35856 0.51349 0.0
C1060 C 0.56051 0.38393 0.51152 0.0
C1061 C 0.53111 0.3752 0.51421 0.0
C1062 C 0.5085 0.39903 0.51214 0.0
C1063 C 0.51504 0.43183 0.50751 0.0
C1064 C 0.54422 0.44088 0.50495 0.0
C1065 C 0.56691 0.41709 0.50697 0.0
H1066 H 0.49752 0.45027 0.50591 0.0
H1067 H 0.71874 0.21991 0.52414 0.0
H1068 H 0.2433 0.50971 0.55303 0.0
H1069 H 0.2601 0.46024 0.54109 0.0
H1070 H 0.34718 0.47109 0.55639 0.0
H1071 H 0.33065 0.52161 0.56811 0.0
H1072 H 0.35226 0.4606 0.53315 0.0
H1073 H 0.29827 0.40276 0.56445 0.0
H1074 H 0.25596 0.39029 0.57794 0.0
H1075 H 0.20269 0.36627 0.54661 0.0
H1076 H 0.24458 0.37904 0.53292 0.0
H1077 H 0.39944 0.30222 0.50503 0.0
H1078 H 0.38605 0.34469 0.52079 0.0
H1079 H 0.29849 0.35147 0.50573 0.0
H1080 H 0.31159 0.30903 0.49006 0.0
H1081 H 0.29676 0.35034 0.53046 0.0
H1082 H 0.35221 0.41106 0.49931 0.0
H1083 H 0.39559 0.42339 0.48641 0.0
H1084 H 0.44774 0.4415 0.51855 0.0
H1085 H 0.40488 0.42841 0.53165 0.0
C1086 C 0.26596 0.5014 0.55401 0.0
C1087 C 0.28556 0.51971 0.56161 0.0
C1088 C 0.27555 0.47285 0.54718 0.0
C1089 C 0.30489 0.46134 0.54791 0.0
C1090 C 0.32443 0.47927 0.55564 0.0
C1091 C 0.31489 0.50811 0.5624 0.0
C1092 C 0.31534 0.43171 0.54018 0.0
C1093 C 0.34041 0.43625 0.53277 0.0
C1094 C 0.29976 0.39995 0.53945 0.0
C1095 C 0.27452 0.39213 0.54765 0.0
C1096 C 0.27748 0.39505 0.56043 0.0
C1097 C 0.25358 0.38789 0.56811 0.0
C1098 C 0.22664 0.37757 0.56313 0.0
C1099 C 0.22357 0.3743 0.55045 0.0
C1100 C 0.24739 0.38145 0.54273 0.0
C1101 C 0.37722 0.31241 0.50516 0.0
C1102 C 0.35663 0.30218 0.49622 0.0
C1103 C 0.36964 0.33692 0.51414 0.0
C1104 C 0.34134 0.35174 0.51438 0.0
C1105 C 0.32048 0.34057 0.50575 0.0
C1106 C 0.32805 0.31625 0.49676 0.0
C1107 C 0.33341 0.37945 0.52337 0.0
C1108 C 0.30878 0.37455 0.53098 0.0
C1109 C 0.34959 0.41071 0.52438 0.0
C1110 C 0.37542 0.41824 0.51647 0.0
C1111 C 0.37302 0.41723 0.50363 0.0
C1112 C 0.39753 0.42439 0.49628 0.0
C1113 C 0.42447 0.43301 0.50166 0.0
C1114 C 0.42693 0.4346 0.51439 0.0
C1115 C 0.40255 0.42727 0.52178 0.0
H1116 H 0.4434 0.4386 0.49595 0.0
H1117 H 0.20816 0.37204 0.56909 0.0
H1118 H 0.47582 0.7607 0.4691 0.0
H1119 H 0.43412 0.7435 0.48193 0.0
H1120 H 0.49411 0.70617 0.5095 0.0
H1121 H 0.53606 0.72324 0.49663 0.0
H1122 H 0.44582 0.6605 0.50422 0.0
H1123 H 0.46355 0.78006 0.51436 0.0
H1124 H 0.47111 0.84186 0.50973 0.0
H1125 H 0.38577 0.84675 0.49292 0.0
H1126 H 0.37786 0.78481 0.49729 0.0
H1127 H 0.33808 0.64362 0.55139 0.0
H1128 H 0.38198 0.65675 0.5392 0.0
H1129 H 0.32866 0.71568 0.51403 0.0
H1130 H 0.28498 0.70342 0.52643 0.0
H1131 H 0.37555 0.7501 0.51863 0.0
H1132 H 0.35705 0.63215 0.50748 0.0
H1133 H 0.34847 0.56989 0.51088 0.0
H1134 H 0.4332 0.56074 0.528 0.0
H1135 H 0.44212 0.62308 0.52485 0.0
C1136 C 0.48014 0.74852 0.47783 0.0
C1137 C 0.5092 0.74334 0.48187 0.0
C1138 C 0.45632 0.7389 0.48518 0.0
C1139 C 0.46107 0.72377 0.49668 0.0
C1140 C 0.49002 0.71787 0.50065 0.0
C1141 C 0.51391 0.72784 0.49334 0.0
C1142 C 0.43569 0.71487 0.50461 0.0
C1143 C 0.43063 0.68005 0.50755 0.0
C1144 C 0.41556 0.74039 0.50863 0.0
C1145 C 0.42021 0.77771 0.50607 0.0
C1146 C 0.44649 0.79423 0.50959 0.0
C1147 C 0.45082 0.82931 0.50703 0.0
C1148 C 0.42894 0.84821 0.50104 0.0
C1149 C 0.40269 0.83208 0.49758 0.0
C1150 C 0.39826 0.797 0.5001 0.0
C1151 C 0.33576 0.65909 0.54319 0.0
C1152 C 0.30815 0.6725 0.53984 0.0
C1153 C 0.36083 0.66653 0.53621 0.0
C1154 C 0.35865 0.68688 0.52558 0.0
C1155 C 0.33098 0.70002 0.52219 0.0
C1156 C 0.30603 0.69303 0.52928 0.0
C1157 C 0.38524 0.69548 0.51819 0.0
C1158 C 0.39064 0.73037 0.51536 0.0
C1159 C 0.40543 0.66991 0.51413 0.0
C1160 C 0.40011 0.63239 0.51604 0.0
C1161 C 0.37375 0.61693 0.51206 0.0
C1162 C 0.36884 0.58161 0.51393 0.0
C1163 C 0.39024 0.56139 0.51969 0.0
C1164 C 0.41662 0.57644 0.52356 0.0
C1165 C 0.42162 0.61177 0.52173 0.0
H1166 H 0.38641 0.53404 0.52112 0.0
H1167 H 0.43229 0.87538 0.49909 0.0
H1168 H 0.34199 0.20334 0.43041 0.0
H1169 H 0.30596 0.1939 0.41394 0.0
H1170 H 0.28801 0.30346 0.41301 0.0
H1171 H 0.32267 0.31272 0.42958 0.0
H1172 H 0.23862 0.27008 0.41133 0.0
H1173 H 0.33447 0.2605 0.39177 0.0
H1174 H 0.3837 0.23498 0.38856 0.0
H1175 H 0.3443 0.13622 0.38104 0.0
H1176 H 0.29483 0.1611 0.38436 0.0
H1177 H 0.1895 0.31652 0.35342 0.0
H1178 H 0.22118 0.30517 0.37085 0.0
H1179 H 0.20653 0.19563 0.36678 0.0
H1180 H 0.17369 0.20685 0.34932 0.0
H1181 H 0.26797 0.2164 0.37187 0.0
H1182 H 0.17119 0.23039 0.38848 0.0
H1183 H 0.12277 0.25848 0.39094 0.0
H1184 H 0.1649 0.35126 0.40364 0.0
H1185 H 0.21362 0.3239 0.40108 0.0
C1186 C 0.33009 0.2253 0.42677 0.0
C1187 C 0.33561 0.25886 0.43126 0.0
C1188 C 0.30967 0.21993 0.41727 0.0
C1189 C 0.29443 0.24803 0.41206 0.0
C1190 C 0.29943 0.28129 0.41679 0.0
C1191 C 0.31962 0.28662 0.42623 0.0
C1192 C 0.27337 0.24366 0.40164 0.0
C1193 C 0.24516 0.25834 0.40272 0.0
C1194 C 0.28133 0.22745 0.39045 0.0
C1195 C 0.31101 0.21254 0.38846 0.0
C1196 C 0.33634 0.23328 0.38953 0.0
C1197 C 0.36427 0.21895 0.38767 0.0
C1198 C 0.36713 0.18397 0.38464 0.0
C1199 C 0.34205 0.16328 0.38342 0.0
C1200 C 0.31407 0.17749 0.38528 0.0
C1201 C 0.19262 0.28994 0.35621 0.0
C1202 C 0.17837 0.26267 0.35003 0.0
C1203 C 0.21102 0.2835 0.36618 0.0
C1204 C 0.21595 0.24961 0.37025 0.0
C1205 C 0.20296 0.22203 0.36382 0.0
C1206 C 0.18423 0.2285 0.35382 0.0
C1207 C 0.23384 0.2439 0.3815 0.0
C1208 C 0.26132 0.22741 0.38058 0.0
C1209 C 0.22537 0.25867 0.39284 0.0
C1210 C 0.19608 0.27513 0.39452 0.0
C1211 C 0.17015 0.25686 0.39172 0.0
C1212 C 0.14264 0.27264 0.39314 0.0
C1213 C 0.14076 0.30665 0.39742 0.0
C1214 C 0.16639 0.32492 0.40032 0.0
C1215 C 0.19396 0.30926 0.3989 0.0
H1216 H 0.11944 0.31883 0.39851 0.0
H1217 H 0.38878 0.17293 0.3832 0.0
H1218 H 0.2945 0.69097 0.60026 0.0
H1219 H 0.28729 0.73167 0.61708 0.0
H1220 H 0.20017 0.69063 0.62324 0.0
H1221 H 0.20704 0.65008 0.6062 0.0
H1222 H 0.19851 0.75924 0.62313 0.0
H1223 H 0.25871 0.67461 0.64314 0.0
H1224 H 0.30186 0.63664 0.64584 0.0
H1225 H 0.35887 0.7253 0.64638 0.0
H1226 H 0.31607 0.76379 0.64352 0.0
H1227 H 0.16932 0.83408 0.6809 0.0
H1228 H 0.17932 0.79592 0.66366 0.0
H1229 H 0.26386 0.84463 0.65839 0.0
H1230 H 0.25405 0.88307 0.67591 0.0
H1231 H 0.26833 0.77428 0.65762 0.0
H1232 H 0.20754 0.859 0.63832 0.0
H1233 H 0.16411 0.89666 0.63587 0.0
H1234 H 0.10792 0.80741 0.63418 0.0
H1235 H 0.15099 0.7692 0.63678 0.0
C1236 C 0.27389 0.6902 0.60527 0.0
C1237 C 0.25137 0.66706 0.60184 0.0
C1238 C 0.26984 0.71354 0.61495 0.0
C1239 C 0.24325 0.71423 0.62155 0.0
C1240 C 0.2209 0.69071 0.61831 0.0
C1241 C 0.22493 0.66733 0.6086 0.0
C1242 C 0.23834 0.7404 0.63147 0.0
C1243 C 0.21359 0.76214 0.63076 0.0
C1244 C 0.25844 0.74515 0.64126 0.0
C1245 C 0.28421 0.72206 0.64299 0.0
C1246 C 0.28047 0.686 0.64373 0.0
C1247 C 0.30486 0.66438 0.64531 0.0
C1248 C 0.3331 0.67854 0.64625 0.0
C1249 C 0.33699 0.71436 0.64564 0.0
C1250 C 0.31267 0.73609 0.64405 0.0
C1251 C 0.18999 0.83706 0.67604 0.0
C1252 C 0.21086 0.86181 0.67982 0.0
C1253 C 0.19563 0.81518 0.66611 0.0
C1254 C 0.22225 0.81744 0.6596 0.0
C1255 C 0.24311 0.84238 0.66324 0.0
C1256 C 0.2374 0.86452 0.67321 0.0
C1257 C 0.22838 0.79286 0.64932 0.0
C1258 C 0.25334 0.77145 0.64996 0.0
C1259 C 0.20844 0.78835 0.63947 0.0
C1260 C 0.18249 0.81124 0.63785 0.0
C1261 C 0.1859 0.8474 0.63751 0.0
C1262 C 0.16135 0.86885 0.63608 0.0
C1263 C 0.13327 0.85444 0.6349 0.0
C1264 C 0.12969 0.81853 0.63511 0.0
C1265 C 0.15417 0.79697 0.63655 0.0
H1266 H 0.11428 0.87108 0.6338 0.0
H1267 H 0.35195 0.66176 0.64747 0.0
H1268 H 0.65449 0.76388 0.41409 0.0
H1269 H 0.68852 0.77381 0.39718 0.0
H1270 H 0.73658 0.84735 0.41911 0.0
H1271 H 0.70232 0.83714 0.4363 0.0
H1272 H 0.72991 0.8654 0.39264 0.0
H1273 H 0.76476 0.77348 0.41833 0.0
H1274 H 0.75974 0.71992 0.43041 0.0
H1275 H 0.73426 0.66427 0.39806 0.0
H1276 H 0.73867 0.71765 0.38583 0.0
H1277 H 0.85326 0.84299 0.3502 0.0
H1278 H 0.8215 0.85268 0.36821 0.0
H1279 H 0.76947 0.76361 0.35818 0.0
H1280 H 0.80137 0.75366 0.34054 0.0
H1281 H 0.78405 0.75879 0.381 0.0
H1282 H 0.74494 0.85048 0.35559 0.0
H1283 H 0.74788 0.90387 0.3433 0.0
H1284 H 0.78034 0.95959 0.37452 0.0
H1285 H 0.77794 0.90639 0.38696 0.0
C1286 C 0.67213 0.78239 0.41533 0.0
C1287 C 0.67601 0.79923 0.42663 0.0
C1288 C 0.6915 0.78818 0.40561 0.0
C1289 C 0.71536 0.81093 0.40692 0.0
C1290 C 0.71832 0.82964 0.41791 0.0
C1291 C 0.69875 0.82382 0.42771 0.0
C1292 C 0.73831 0.81213 0.39716 0.0
C1293 C 0.74221 0.84233 0.3902 0.0
C1294 C 0.7541 0.78193 0.39389 0.0
C1295 C 0.75187 0.74963 0.40118 0.0
C1296 C 0.7579 0.74988 0.41381 0.0
C1297 C 0.75519 0.71954 0.42068 0.0
C1298 C 0.74664 0.68872 0.41501 0.0
C1299 C 0.74087 0.68816 0.40245 0.0
C1300 C 0.74351 0.71844 0.39554 0.0
C1301 C 0.8347 0.82597 0.35178 0.0
C1302 C 0.82992 0.7974 0.34405 0.0
C1303 C 0.81655 0.83147 0.36206 0.0
C1304 C 0.79304 0.80878 0.36464 0.0
C1305 C 0.78758 0.78128 0.35654 0.0
C1306 C 0.80581 0.77561 0.34643 0.0
C1307 C 0.77502 0.81172 0.37608 0.0
C1308 C 0.77212 0.78213 0.38345 0.0
C1309 C 0.76018 0.84245 0.37963 0.0
C1310 C 0.76159 0.87438 0.37216 0.0
C1311 C 0.75294 0.87405 0.35981 0.0
C1312 C 0.75446 0.90429 0.35282 0.0
C1313 C 0.76439 0.93507 0.35811 0.0
C1314 C 0.77272 0.93571 0.37042 0.0
C1315 C 0.77126 0.90553 0.37745 0.0
H1316 H 0.76555 0.95845 0.35269 0.0
H1317 H 0.74454 0.66527 0.42034 0.0
H1318 H 0.7931 0.19484 0.69016 0.0
H1319 H 0.79671 0.24701 0.67729 0.0
H1320 H 0.71405 0.22064 0.66017 0.0
H1321 H 0.7111 0.16849 0.67255 0.0
H1322 H 0.75069 0.23448 0.64328 0.0
H1323 H 0.72477 0.29115 0.68127 0.0
H1324 H 0.73093 0.30688 0.70301 0.0
H1325 H 0.81552 0.35128 0.69501 0.0
H1326 H 0.81001 0.33542 0.67324 0.0
H1327 H 0.70365 0.38349 0.61322 0.0
H1328 H 0.7091 0.34185 0.6298 0.0
H1329 H 0.80122 0.36729 0.6328 0.0
H1330 H 0.7961 0.40911 0.61596 0.0
H1331 H 0.76769 0.3555 0.65667 0.0
H1332 H 0.79046 0.30148 0.61805 0.0
H1333 H 0.78125 0.28809 0.59631 0.0
H1334 H 0.69943 0.23928 0.6059 0.0
H1335 H 0.70789 0.25298 0.62768 0.0
C1336 C 0.77552 0.20066 0.6838 0.0
C1337 C 0.75188 0.17748 0.68233 0.0
C1338 C 0.77756 0.23049 0.67642 0.0
C1339 C 0.75569 0.23796 0.66764 0.0
C1340 C 0.73146 0.21551 0.6667 0.0
C1341 C 0.7297 0.18567 0.67385 0.0
C1342 C 0.75827 0.26766 0.65886 0.0
C1343 C 0.7542 0.2609 0.64631 0.0
C1344 C 0.76379 0.30225 0.66259 0.0
C1345 C 0.76713 0.31172 0.67567 0.0
C1346 C 0.74479 0.304 0.68417 0.0
C1347 C 0.74814 0.31299 0.69649 0.0
C1348 C 0.77364 0.32996 0.7004 0.0
C1349 C 0.79581 0.33806 0.69198 0.0
C1350 C 0.79257 0.3291 0.67965 0.0
C1351 C 0.72505 0.38081 0.61749 0.0
C1352 C 0.74949 0.39961 0.61314 0.0
C1353 C 0.72809 0.3569 0.627 0.0
C1354 C 0.75559 0.35125 0.63251 0.0
C1355 C 0.77977 0.37129 0.62871 0.0
C1356 C 0.7768 0.39513 0.61906 0.0
C1357 C 0.75915 0.32208 0.64132 0.0
C1358 C 0.76449 0.32893 0.65376 0.0
C1359 C 0.75454 0.28748 0.63755 0.0
C1360 C 0.74971 0.27851 0.62449 0.0
C1361 C 0.7704 0.28811 0.61551 0.0
C1362 C 0.76533 0.28045 0.60318 0.0
C1363 C 0.73975 0.2629 0.59972 0.0
C1364 C 0.71923 0.25289 0.60859 0.0
C1365 C 0.72416 0.26058 0.62093 0.0
H1366 H 0.73584 0.25702 0.59017 0.0
H1367 H 0.77619 0.33691 0.70994 0.0
H1368 H 0.20931 0.28503 0.94059 0.0
H1369 H 0.24604 0.29113 0.92421 0.0
H1370 H 0.17739 0.28076 0.89717 0.0
H1371 H 0.141 0.27394 0.91346 0.0
H1372 H 0.2207 0.2424 0.89059 0.0
H1373 H 0.2137 0.36027 0.90395 0.0
H1374 H 0.21459 0.4084 0.91878 0.0
H1375 H 0.30463 0.38517 0.92755 0.0
H1376 H 0.30416 0.33659 0.91287 0.0
H1377 H 0.31147 0.28488 0.83929 0.0
H1378 H 0.27275 0.28852 0.85497 0.0
H1379 H 0.33901 0.29099 0.8832 0.0
H1380 H 0.37753 0.28837 0.86766 0.0
H1381 H 0.29592 0.33527 0.88866 0.0
H1382 H 0.30158 0.21585 0.87584 0.0
H1383 H 0.30042 0.16805 0.86087 0.0
H1384 H 0.21196 0.19535 0.85089 0.0
H1385 H 0.21274 0.24361 0.8657 0.0
C1386 C 0.20207 0.28452 0.93115 0.0
C1387 C 0.17223 0.2788 0.92835 0.0
C1388 C 0.22308 0.28805 0.92176 0.0
C1389 C 0.21462 0.28664 0.90936 0.0
C1390 C 0.18469 0.28173 0.90661 0.0
C1391 C 0.16383 0.27781 0.91596 0.0
C1392 C 0.23687 0.28884 0.89922 0.0
C1393 C 0.23679 0.2631 0.8901 0.0
C1394 C 0.25843 0.31534 0.89859 0.0
C1395 C 0.2588 0.34459 0.90739 0.0
C1396 C 0.23362 0.36527 0.9091 0.0
C1397 C 0.23406 0.39265 0.91747 0.0
C1398 C 0.25962 0.39978 0.92412 0.0
C1399 C 0.28483 0.37959 0.9224 0.0
C1400 C 0.2845 0.35215 0.91405 0.0
C1401 C 0.31777 0.28666 0.84882 0.0
C1402 C 0.34769 0.28586 0.85217 0.0
C1403 C 0.2956 0.28846 0.8578 0.0
C1404 C 0.30286 0.2895 0.87034 0.0
C1405 C 0.33272 0.29004 0.87364 0.0
C1406 C 0.35479 0.28818 0.86471 0.0
C1407 C 0.27962 0.2889 0.88008 0.0
C1408 C 0.27961 0.3148 0.88913 0.0
C1409 C 0.25788 0.26265 0.88063 0.0
C1410 C 0.25733 0.23354 0.87178 0.0
C1411 C 0.28196 0.2118 0.87039 0.0
C1412 C 0.28136 0.18461 0.86195 0.0
C1413 C 0.25616 0.17873 0.85491 0.0
C1414 C 0.23148 0.19997 0.85633 0.0
C1415 C 0.23198 0.22723 0.86476 0.0
H1416 H 0.25574 0.15766 0.84837 0.0
H1417 H 0.25992 0.42099 0.9306 0.0
H1418 H 0.22499 0.68986 0.1784 0.0
H1419 H 0.23213 0.73132 0.16184 0.0
H1420 H 0.32011 0.69244 0.15602 0.0
H1421 H 0.31331 0.65119 0.17281 0.0
H1422 H 0.32077 0.76091 0.15641 0.0
H1423 H 0.26217 0.67574 0.13574 0.0
H1424 H 0.21952 0.63718 0.13267 0.0
H1425 H 0.16158 0.72498 0.13218 0.0
H1426 H 0.20386 0.76404 0.13541 0.0
H1427 H 0.35162 0.8352 0.09889 0.0
H1428 H 0.34106 0.79745 0.11614 0.0
H1429 H 0.2562 0.84594 0.12073 0.0
H1430 H 0.2666 0.884 0.10317 0.0
H1431 H 0.25201 0.77541 0.12154 0.0
H1432 H 0.31142 0.86076 0.14126 0.0
H1433 H 0.35448 0.8989 0.14393 0.0
H1434 H 0.41129 0.81028 0.14596 0.0
H1435 H 0.36861 0.77159 0.14313 0.0
C1436 C 0.24578 0.68973 0.17352 0.0
C1437 C 0.26856 0.667 0.17698 0.0
C1438 C 0.2498 0.71351 0.16399 0.0
C1439 C 0.27661 0.71502 0.15755 0.0
C1440 C 0.29921 0.6919 0.16082 0.0
C1441 C 0.29523 0.66812 0.17039 0.0
C1442 C 0.28144 0.74159 0.14778 0.0
C1443 C 0.30592 0.76371 0.14871 0.0
C1444 C 0.26161 0.74622 0.13789 0.0
C1445 C 0.23615 0.72278 0.13595 0.0
C1446 C 0.24031 0.6868 0.13508 0.0
C1447 C 0.2162 0.66486 0.13329 0.0
C1448 C 0.18785 0.67861 0.13227 0.0
C1449 C 0.18355 0.71436 0.133 0.0
C1450 C 0.20758 0.73641 0.13479 0.0
C1451 C 0.33076 0.83824 0.1036 0.0
C1452 C 0.30997 0.86279 0.09961 0.0
C1453 C 0.3248 0.8166 0.11354 0.0
C1454 C 0.29792 0.8189 0.11986 0.0
C1455 C 0.27715 0.84369 0.11603 0.0
C1456 C 0.28318 0.86561 0.10605 0.0
C1457 C 0.29149 0.79441 0.13012 0.0
C1458 C 0.26674 0.77271 0.12929 0.0
C1459 C 0.3111 0.79009 0.14009 0.0
C1460 C 0.33682 0.81328 0.14189 0.0
C1461 C 0.33312 0.8494 0.14219 0.0
C1462 C 0.35746 0.87112 0.14374 0.0
C1463 C 0.38561 0.85702 0.14508 0.0
C1464 C 0.38947 0.82116 0.14491 0.0
C1465 C 0.3652 0.79932 0.14335 0.0
H1466 H 0.40443 0.87388 0.14628 0.0
H1467 H 0.16922 0.66159 0.13088 0.0
H1468 H 0.82704 0.74156 0.93584 0.0
H1469 H 0.7862 0.73429 0.92136 0.0
H1470 H 0.84774 0.73845 0.89122 0.0
H1471 H 0.88817 0.74688 0.90565 0.0
H1472 H 0.80495 0.77823 0.88618 0.0
H1473 H 0.80998 0.66162 0.90069 0.0
H1474 H 0.81088 0.61483 0.91602 0.0
H1475 H 0.72483 0.64449 0.9286 0.0
H1476 H 0.72357 0.69176 0.91345 0.0
H1477 H 0.69936 0.73753 0.84028 0.0
H1478 H 0.74141 0.73002 0.85415 0.0
H1479 H 0.68357 0.74187 0.88524 0.0
H1480 H 0.64164 0.74893 0.87147 0.0
H1481 H 0.7251 0.69105 0.88914 0.0
H1482 H 0.72241 0.80969 0.87515 0.0
H1483 H 0.72182 0.85563 0.85949 0.0
H1484 H 0.80491 0.81994 0.84549 0.0
H1485 H 0.80578 0.77347 0.86097 0.0
C1486 C 0.83178 0.74031 0.92614 0.0
C1487 C 0.86073 0.74493 0.92187 0.0
C1488 C 0.80846 0.73609 0.91784 0.0
C1489 C 0.81374 0.7356 0.90512 0.0
C1490 C 0.84289 0.73897 0.90093 0.0
C1491 C 0.86604 0.74373 0.90919 0.0
C1492 C 0.78898 0.73381 0.89612 0.0
C1493 C 0.78786 0.75868 0.88673 0.0
C1494 C 0.76613 0.70887 0.89689 0.0
C1495 C 0.7668 0.68044 0.90601 0.0
C1496 C 0.79134 0.65833 0.90679 0.0
C1497 C 0.7919 0.63169 0.91543 0.0
C1498 C 0.76796 0.62674 0.9233 0.0
C1499 C 0.74337 0.64838 0.92251 0.0
C1500 C 0.74271 0.67508 0.91389 0.0
C1501 C 0.69558 0.73791 0.85006 0.0
C1502 C 0.66721 0.7442 0.85477 0.0
C1503 C 0.71963 0.73384 0.85799 0.0
C1504 C 0.71572 0.7358 0.87076 0.0
C1505 C 0.68719 0.74036 0.87545 0.0
C1506 C 0.66326 0.74468 0.86755 0.0
C1507 C 0.74139 0.73526 0.87926 0.0
C1508 C 0.74251 0.7102 0.88855 0.0
C1509 C 0.76441 0.75983 0.87837 0.0
C1510 C 0.764 0.7879 0.86912 0.0
C1511 C 0.74044 0.81149 0.86867 0.0
C1512 C 0.74007 0.83764 0.85984 0.0
C1513 C 0.76327 0.84064 0.85148 0.0
C1514 C 0.78693 0.81755 0.85196 0.0
C1515 C 0.78738 0.79132 0.86076 0.0
H1516 H 0.76294 0.86091 0.84465 0.0
H1517 H 0.76843 0.6061 0.92998 0.0
H1518 H 0.8027 0.16148 0.10518 0.0
H1519 H 0.79841 0.21457 0.11705 0.0
H1520 H 0.72177 0.24372 0.09617 0.0
H1521 H 0.72679 0.19053 0.08381 0.0
H1522 H 0.75338 0.3006 0.10211 0.0
H1523 H 0.71455 0.20529 0.12441 0.0
H1524 H 0.7137 0.14669 0.13331 0.0
H1525 H 0.78876 0.1716 0.15551 0.0
H1526 H 0.79033 0.23022 0.14662 0.0
H1527 H 0.70151 0.41096 0.15151 0.0
H1528 H 0.70747 0.36782 0.13525 0.0
H1529 H 0.79049 0.33653 0.15081 0.0
H1530 H 0.78482 0.37975 0.16705 0.0
H1531 H 0.75195 0.2817 0.14705 0.0
H1532 H 0.78914 0.37884 0.12409 0.0
H1533 H 0.78695 0.43746 0.11525 0.0
H1534 H 0.71013 0.40922 0.09464 0.0
H1535 H 0.71162 0.35053 0.10349 0.0
C1536 C 0.78515 0.17941 0.10296 0.0
C1537 C 0.76491 0.17165 0.09363 0.0
C1538 C 0.78262 0.20975 0.10982 0.0
C1539 C 0.75924 0.23283 0.10781 0.0
C1540 C 0.73987 0.22623 0.098 0.0
C1541 C 0.74276 0.19588 0.09092 0.0
C1542 C 0.7545 0.26243 0.11646 0.0
C1543 C 0.75263 0.2964 0.11193 0.0
C1544 C 0.75366 0.25723 0.12932 0.0
C1545 C 0.75269 0.22207 0.13477 0.0
C1546 C 0.73099 0.1982 0.13113 0.0
C1547 C 0.73037 0.16499 0.13618 0.0
C1548 C 0.7512 0.15541 0.14495 0.0
C1549 C 0.77265 0.17905 0.14871 0.0
C1550 C 0.7734 0.21229 0.14368 0.0
C1551 C 0.72132 0.39536 0.15136 0.0
C1552 C 0.74268 0.39891 0.16062 0.0
C1553 C 0.72472 0.3707 0.14202 0.0
C1554 C 0.74944 0.34884 0.14177 0.0
C1555 C 0.77122 0.35306 0.15079 0.0
C1556 C 0.76802 0.37797 0.16004 0.0
C1557 C 0.75157 0.31988 0.13274 0.0
C1558 C 0.75271 0.28592 0.13723 0.0
C1559 C 0.75119 0.32516 0.11989 0.0
C1560 C 0.75032 0.36039 0.11455 0.0
C1561 C 0.77163 0.38521 0.11776 0.0
C1562 C 0.77054 0.41844 0.11273 0.0
C1563 C 0.74837 0.42709 0.10442 0.0
C1564 C 0.72727 0.40249 0.10109 0.0
C1565 C 0.72824 0.36924 0.1061 0.0
H1566 H 0.74757 0.45282 0.10054 0.0
H1567 H 0.75068 0.12968 0.14885 0.0
H1568 H 0.93803 0.90243 0.29096 0.0
H1569 H 0.96613 0.95626 0.28865 0.0
H1570 H 0.9664 0.96972 0.32784 0.0
H1571 H 0.93839 0.91615 0.33022 0.0
H1572 H 0.95749 0.03089 0.31656 0.0
H1573 H 0.02576 0.9379 0.31378 0.0
H1574 H 0.04629 0.88294 0.30613 0.0
H1575 H 0.05546 0.92675 0.27021 0.0
H1576 H 0.03443 0.98185 0.2776 0.0
H1577 H 0.07661 0.15057 0.32122 0.0
H1578 H 0.04856 0.09656 0.32301 0.0
H1579 H 0.04078 0.09147 0.28372 0.0
H1580 H 0.06843 0.14565 0.28187 0.0
H1581 H 0.05367 0.02627 0.29493 0.0
H1582 H 0.98491 0.12084 0.29888 0.0
H1583 H 0.96628 0.17527 0.30779 0.0
H1584 H 0.96055 0.12716 0.34314 0.0
H1585 H 0.97959 0.07256 0.33447 0.0
C1586 C 0.94367 0.91711 0.29907 0.0
C1587 C 0.93598 0.90482 0.31078 0.0
C1588 C 0.95995 0.9478 0.29775 0.0
C1589 C 0.96878 0.96694 0.30808 0.0
C1590 C 0.95997 0.95549 0.31972 0.0
C1591 C 0.94395 0.92474 0.32106 0.0
C1592 C 0.98803 0.99818 0.30684 0.0
C1593 C 0.97862 0.02973 0.31192 0.0
C1594 C 0.01561 0.99695 0.30074 0.0
C1595 C 0.02818 0.96387 0.29621 0.0
C1596 C 0.03186 0.93572 0.30422 0.0
C1597 C 0.04363 0.90455 0.29994 0.0
C1598 C 0.05208 0.90131 0.28769 0.0
C1599 C 0.04882 0.92926 0.27969 0.0
C1600 C 0.03697 0.96048 0.28392 0.0
C1601 C 0.06934 0.13771 0.31295 0.0
C1602 C 0.07476 0.15255 0.3014 0.0
C1603 C 0.05315 0.1069 0.31399 0.0
C1604 C 0.0423 0.09005 0.3035 0.0
C1605 C 0.04886 0.10396 0.29194 0.0
C1606 C 0.06465 0.135 0.2909 0.0
C1607 C 0.02302 0.05889 0.30459 0.0
C1608 C 0.03246 0.02738 0.29951 0.0
C1609 C 0.99565 0.06003 0.31084 0.0
C1610 C 0.98396 0.09273 0.31605 0.0
C1611 C 0.97991 0.12195 0.30858 0.0
C1612 C 0.96923 0.15282 0.31358 0.0
C1613 C 0.96231 0.1547 0.32603 0.0
C1614 C 0.96596 0.12568 0.3335 0.0
C1615 C 0.97668 0.09476 0.32854 0.0
H1616 H 0.95405 0.17861 0.32989 0.0
H1617 H 0.06126 0.87718 0.28443 0.0
H1618 H 0.86162 0.03803 0.71203 0.0
H1619 H 0.91382 0.02425 0.71373 0.0
H1620 H 0.91872 1.00887 0.67466 0.0
H1621 H 0.86605 0.02236 0.67292 0.0
H1622 H 0.94888 0.95984 0.68599 0.0
H1623 H 0.94702 0.08275 0.68833 0.0
H1624 H 0.93077 0.14008 0.6956 0.0
H1625 H 0.9597 0.11538 0.73196 0.0
H1626 H 0.97576 0.05769 0.72495 0.0
H1627 H 0.10704 0.95074 0.69083 0.0
H1628 H 0.05776 0.9707 0.68478 0.0
H1629 H 0.03424 0.98307 0.72281 0.0
H1630 H 0.08326 0.96379 0.72885 0.0
H1631 H 0.01567 0.03756 0.70914 0.0
H1632 H 0.01261 0.91223 0.70671 0.0
H1633 H 0.02911 0.8553 0.69913 0.0
H1634 H 0.0102 0.88622 0.66222 0.0
H1635 H 0.99393 0.94353 0.66958 0.0
C1636 C 0.8738 0.03209 0.70377 0.0
C1637 C 0.85967 0.03172 0.69232 0.0
C1638 C 0.90374 0.02419 0.70475 0.0
C1639 C 0.92049 1.0162 0.6943 0.0
C1640 C 0.90635 1.01512 0.68286 0.0
C1641 C 0.87623 0.02278 0.68188 0.0
C1642 C 0.95259 1.00861 0.69545 0.0
C1643 C 0.96359 0.97719 0.69085 0.0
C1644 C 0.97189 0.03102 0.70187 0.0
C1645 C 0.96241 0.06578 0.70612 0.0
C1646 C 0.94974 0.08945 0.69789 0.0
C1647 C 0.94059 0.12203 0.70196 0.0
C1648 C 0.94415 0.13134 0.71424 0.0
C1649 C 0.95694 0.10812 0.72246 0.0
C1650 C 0.96611 0.0755 0.71844 0.0
C1651 C 0.09144 0.95809 0.69787 0.0
C1652 C 0.099 0.95539 0.71032 0.0
C1653 C 0.06323 0.96925 0.69441 0.0
C1654 C 0.04216 0.97807 0.70335 0.0
C1655 C 0.05003 0.97632 0.71575 0.0
C1656 C 0.07803 0.96501 0.7192 0.0
C1657 C 0.01167 0.9885 0.69997 0.0
C1658 C 1.00101 0.0205 0.70414 0.0
C1659 C 0.99279 0.96676 0.69309 0.0
C1660 C 1.00239 0.93227 0.68868 0.0
C1661 C 0.01219 0.90697 0.69697 0.0
C1662 C 0.02146 0.87462 0.69272 0.0
C1663 C 0.02079 0.86718 0.6802 0.0
C1664 C 0.01076 0.89204 0.67191 0.0
C1665 C 1.0015 0.92445 0.67612 0.0
H1666 H 0.02798 0.84213 0.67692 0.0
H1667 H 0.93704 0.15658 0.71737 0.0
H1668 H 0.07572 0.39358 0.94573 0.0
H1669 H 0.05216 0.44994 0.9473 0.0
H1670 H 0.05898 0.44591 0.98665 0.0
H1671 H 0.08261 0.38871 0.98514 0.0
H1672 H 1.00405 0.46816 0.97936 0.0
H1673 H 0.10308 0.50004 0.97076 0.0
H1674 H 0.15097 0.49842 0.96009 0.0
H1675 H 0.10917 0.5292 0.92658 0.0
H1676 H 0.06093 0.53053 0.93701 0.0
H1677 H 0.95631 0.64874 0.97997 0.0
H1678 H 0.98214 0.59374 0.98361 0.0
H1679 H 0.98747 0.57648 0.94466 0.0
H1680 H 0.96207 0.6309 0.94099 0.0
H1681 H 0.04016 0.56777 0.95499 0.0
H1682 H 0.94049 0.52993 0.96338 0.0
H1683 H 0.89268 0.53117 0.97414 0.0
H1684 H 0.93626 0.51235 1.00836 0.0
H1685 H 0.9844 0.51145 0.99781 0.0
C1686 C 0.07252 0.40465 0.95475 0.0
C1687 C 0.08126 0.3865 0.96531 0.0
C1688 C 0.05904 0.43709 0.95563 0.0
C1689 C 0.05393 0.45254 0.96709 0.0
C1690 C 0.06271 0.43464 0.97769 0.0
C1691 C 0.07643 0.40204 0.97682 0.0
C1692 C 0.03895 0.48701 0.96776 0.0
C1693 C 0.01226 0.49018 0.97423 0.0
C1694 C 0.04935 0.51578 0.96098 0.0
C1695 C 0.07834 0.51515 0.95466 0.0
C1696 C 0.10406 0.50623 0.9611 0.0
C1697 C 0.13128 0.5054 0.95509 0.0
C1698 C 0.1331 0.51364 0.94266 0.0
C1699 C 0.10772 0.52281 0.93621 0.0
C1700 C 0.08043 0.52365 0.94217 0.0
C1701 C 0.96255 0.63291 0.9722 0.0
C1702 C 0.95714 0.64444 0.96018 0.0
C1703 C 0.97738 0.60145 0.9743 0.0
C1704 C 0.98697 0.58086 0.96441 0.0
C1705 C 0.98062 0.59189 0.95246 0.0
C1706 C 0.96591 0.6231 0.95038 0.0
C1707 C 1.00475 0.54863 0.96625 0.0
C1708 C 0.03209 0.54594 0.96026 0.0
C1709 C 0.99496 0.52047 0.9735 0.0
C1710 C 0.96606 0.52106 0.97983 0.0
C1711 C 0.9399 0.52638 0.97322 0.0
C1712 C 0.91274 0.52695 0.97927 0.0
C1713 C 0.91144 0.52196 0.99193 0.0
C1714 C 0.93731 0.51629 0.99856 0.0
C1715 C 0.96453 0.51573 0.99255 0.0
H1716 H 0.8904 0.52239 0.9966 0.0
H1717 H 0.1542 0.51299 0.93803 0.0
H1718 H 0.4458 0.89696 0.06678 0.0
H1719 H 0.49515 0.91699 0.07243 0.0
H1720 H 0.46075 0.01925 0.07915 0.0
H1721 H 0.41103 0.999 0.07366 0.0
H1722 H 0.51327 1.01505 0.06336 0.0
H1723 H 0.47847 0.97795 0.10268 0.0
H1724 H 0.45573 0.93726 0.11728 0.0
H1725 H 0.52456 0.86359 0.11032 0.0
H1726 H 0.54749 0.90364 0.09553 0.0
H1727 H 0.65046 0.07738 0.08534 0.0
H1728 H 0.59788 0.06404 0.08379 0.0
H1729 H 0.61767 0.95495 0.08524 0.0
H1730 H 0.67011 0.96822 0.087 0.0
H1731 H 0.57027 0.96665 0.09808 0.0
H1732 H 0.60269 0.99847 0.05782 0.0
H1733 H 0.6256 0.03572 0.04215 0.0
H1734 H 0.56189 0.11522 0.04952 0.0
H1735 H 0.53884 0.07861 0.06537 0.0
C1736 C 0.44876 0.92367 0.06951 0.0
C1737 C 0.42463 0.94646 0.06976 0.0
C1738 C 0.4769 0.93504 0.07278 0.0
C1739 C 0.4816 0.96958 0.07622 0.0
C1740 C 0.45756 0.99247 0.07653 0.0
C1741 C 0.42921 0.98088 0.07348 0.0
C1742 C 0.51189 0.98171 0.07911 0.0
C1743 C 0.52559 1.00507 0.07109 0.0
C1744 C 0.52819 0.96779 0.08897 0.0
C1745 C 0.51456 0.9437 0.09791 0.0
C1746 C 0.48863 0.95296 0.10418 0.0
C1747 C 0.47572 0.93003 0.11251 0.0
C1748 C 0.48865 0.89783 0.1147 0.0
C1749 C 0.51456 0.88853 0.1086 0.0
C1750 C 0.52753 0.91135 0.10025 0.0
C1751 C 0.64358 0.05057 0.08536 0.0
C1752 C 0.66455 0.02389 0.08624 0.0
C1753 C 0.61349 0.04294 0.08445 0.0
C1754 C 0.6037 1.00843 0.08418 0.0
C1755 C 0.62455 0.98179 0.08543 0.0
C1756 C 0.6546 0.98942 0.08646 0.0
C1757 C 0.57194 0.99993 0.08227 0.0
C1758 C 0.55794 0.97708 0.09043 0.0
C1759 C 0.55548 1.01391 0.07241 0.0
C1760 C 0.56926 0.03597 0.06288 0.0
C1761 C 0.59371 0.02401 0.05617 0.0
C1762 C 0.6067 0.04499 0.04725 0.0
C1763 C 0.59526 0.07786 0.04487 0.0
C1764 C 0.57076 0.08978 0.05139 0.0
C1765 C 0.55772 0.06893 0.06035 0.0
H1766 H 0.60534 0.09406 0.03795 0.0
H1767 H 0.47863 0.88011 0.12115 0.0
H1768 H 0.40317 0.4257 0.82367 0.0
H1769 H 0.43141 0.47934 0.82222 0.0
H1770 H 0.49334 0.42918 0.79798 0.0
H1771 H 0.46423 0.37598 0.79895 0.0
H1772 H 0.48106 0.49535 0.82969 0.0
H1773 H 0.53166 0.48637 0.7808 0.0
H1774 H 0.51792 0.46517 0.76027 0.0
H1775 H 0.42628 0.47647 0.76925 0.0
H1776 H 0.43946 0.49813 0.78976 0.0
H1777 H 0.59617 0.61491 0.82911 0.0
H1778 H 0.5686 0.56125 0.8261 0.0
H1779 H 0.51781 0.61004 0.79756 0.0
H1780 H 0.54679 0.66312 0.80006 0.0
H1781 H 0.52229 0.5467 0.79176 0.0
H1782 H 0.49332 0.60235 0.82889 0.0
H1783 H 0.50018 0.62948 0.84914 0.0
H1784 H 0.53583 0.53456 0.86314 0.0
H1785 H 0.52953 0.507 0.84293 0.0
C1786 C 0.42251 0.42627 0.81784 0.0
C1787 C 0.43129 0.39652 0.81137 0.0
C1788 C 0.43883 0.457 0.81707 0.0
C1789 C 0.46466 0.45878 0.80995 0.0
C1790 C 0.47325 0.42911 0.80334 0.0
C1791 C 0.45657 0.39852 0.80392 0.0
C1792 C 0.48328 0.49097 0.81004 0.0
C1793 C 0.48996 0.50646 0.82135 0.0
C1794 C 0.49471 0.50631 0.79922 0.0
C1795 C 0.48657 0.49351 0.78687 0.0
C1796 C 0.50858 0.48443 0.77838 0.0
C1797 C 0.50089 0.47231 0.76675 0.0
C1798 C 0.47124 0.46936 0.76347 0.0
C1799 C 0.44923 0.47863 0.77181 0.0
C1800 C 0.4568 0.49078 0.78345 0.0
C1801 C 0.57957 0.61392 0.82201 0.0
C1802 C 0.57366 0.64328 0.81484 0.0
C1803 C 0.56352 0.5833 0.82037 0.0
C1804 C 0.54027 0.58163 0.81187 0.0
C1805 C 0.53541 0.61044 0.80424 0.0
C1806 C 0.55206 0.64085 0.80565 0.0
C1807 C 0.52021 0.55071 0.81142 0.0
C1808 C 0.51333 0.53548 0.80007 0.0
C1809 C 0.50757 0.53633 0.82217 0.0
C1810 C 0.51119 0.55272 0.83437 0.0
C1811 C 0.50277 0.58733 0.83627 0.0
C1812 C 0.50655 0.60278 0.84774 0.0
C1813 C 0.5185 0.58378 0.85741 0.0
C1814 C 0.52661 0.54926 0.85564 0.0
C1815 C 0.52292 0.5337 0.84418 0.0
H1816 H 0.52142 0.59579 0.86628 0.0
H1817 H 0.46534 0.45997 0.75447 0.0
H1818 H 0.6206 0.44182 0.221 0.0
H1819 H 0.57153 0.46744 0.22096 0.0
H1820 H 0.58967 0.51509 0.18604 0.0
H1821 H 0.63936 0.48988 0.1862 0.0
H1822 H 0.56043 0.55879 0.19999 0.0
H1823 H 0.54585 0.44173 0.18832 0.0
H1824 H 0.55056 0.37827 0.18946 0.0
H1825 H 0.50664 0.37829 0.22432 0.0
H1826 H 0.50203 0.44183 0.22347 0.0
H1827 H 0.4037 0.59328 0.19356 0.0
H1828 H 0.45302 0.56927 0.18949 0.0
H1829 H 0.45811 0.5339 0.22686 0.0
H1830 H 0.40928 0.55809 0.23097 0.0
H1831 H 0.47432 0.48342 0.20857 0.0
H1832 H 0.49357 0.60267 0.22021 0.0
H1833 H 0.48831 0.66588 0.2181 0.0
H1834 H 0.52232 0.66043 0.18143 0.0
H1835 H 0.52737 0.59706 0.18327 0.0
C1836 C 0.61412 0.45764 0.21329 0.0
C1837 C 0.63371 0.4635 0.20353 0.0
C1838 C 0.58601 0.47224 0.21326 0.0
C1839 C 0.57653 0.49253 0.20335 0.0
C1840 C 0.59637 0.49934 0.19375 0.0
C1841 C 0.62475 0.48501 0.19385 0.0
C1842 C 0.54592 0.50643 0.20315 0.0
C1843 C 0.54158 0.54216 0.20163 0.0
C1844 C 0.52118 0.48487 0.20533 0.0
C1845 C 0.52379 0.4466 0.20587 0.0
C1846 C 0.53737 0.42823 0.19627 0.0
C1847 C 0.54 0.39224 0.19686 0.0
C1848 C 0.52895 0.37427 0.20697 0.0
C1849 C 0.5152 0.39225 0.2165 0.0
C1850 C 0.51254 0.42825 0.21596 0.0
C1851 C 0.41538 0.58024 0.20086 0.0
C1852 C 0.40279 0.57769 0.21259 0.0
C1853 C 0.44351 0.5667 0.19855 0.0
C1854 C 0.4592 0.54994 0.2079 0.0
C1855 C 0.44638 0.54678 0.21953 0.0
C1856 C 0.41859 0.56079 0.22189 0.0
C1857 C 0.48909 0.53566 0.20571 0.0
C1858 C 0.49321 0.49985 0.20676 0.0
C1859 C 0.51347 0.55705 0.20292 0.0
C1860 C 0.51049 0.5951 0.20182 0.0
C1861 C 0.49964 0.61491 0.21165 0.0
C1862 C 0.49676 0.65077 0.21051 0.0
C1863 C 0.50488 0.66715 0.19962 0.0
C1864 C 0.51598 0.6477 0.18985 0.0
C1865 C 0.51887 0.61182 0.19094 0.0
H1866 H 0.50265 0.69492 0.19875 0.0
H1867 H 0.53101 0.3464 0.20741 0.0
H1868 H 0.46144 0.14838 0.49742 0.0
H1869 H 0.48799 0.09378 0.49544 0.0
H1870 H 0.45364 0.0807 0.45896 0.0
H1871 H 0.42672 0.13552 0.46088 0.0
H1872 H 0.45418 0.01916 0.47186 0.0
H1873 H 0.52252 0.11143 0.46323 0.0
H1874 H 0.5486 0.16599 0.46765 0.0
H1875 H 0.58598 0.12105 0.50003 0.0
H1876 H 0.55974 0.06635 0.4959 0.0
H1877 H 0.55512 0.89872 0.44802 0.0
H1878 H 0.52772 0.95178 0.45189 0.0
H1879 H 0.56516 0.95806 0.48807 0.0
H1880 H 0.59289 0.90443 0.48426 0.0
H1881 H 0.56293 0.0222 0.47652 0.0
H1882 H 0.49738 0.9294 0.48497 0.0
H1883 H 0.47141 0.87453 0.48105 0.0
H1884 H 0.42815 0.91978 0.45002 0.0
H1885 H 0.45452 0.97471 0.45354 0.0
C1886 C 0.45919 0.13381 0.48899 0.0
C1887 C 0.44199 0.1466 0.47927 0.0
C1888 C 0.47457 0.10257 0.48787 0.0
C1889 C 0.4733 0.0833 0.47697 0.0
C1890 C 0.45511 0.09514 0.46744 0.0
C1891 C 0.4397 0.12652 0.46855 0.0
C1892 C 0.49177 0.05156 0.47541 0.0
C1893 C 0.47797 0.01993 0.47272 0.0
C1894 C 0.52281 0.0522 0.47692 0.0
C1895 C 0.53893 0.08491 0.47932 0.0
C1896 C 0.53614 0.11325 0.47134 0.0
C1897 C 0.55097 0.1442 0.47378 0.0
C1898 C 0.56887 0.14701 0.48413 0.0
C1899 C 0.57207 0.11884 0.49203 0.0
C1900 C 0.55724 0.08786 0.48964 0.0
C1901 C 0.55782 0.91138 0.45679 0.0
C1902 C 0.57619 0.89704 0.46585 0.0
C1903 C 0.54196 0.94176 0.45901 0.0
C1904 C 0.54394 0.95873 0.47034 0.0
C1905 C 0.56314 0.94536 0.47927 0.0
C1906 C 0.579 0.9147 0.47707 0.0
C1907 C 0.52536 0.98988 0.47283 0.0
C1908 C 0.53912 0.02139 0.4757 0.0
C1909 C 0.49426 0.98907 0.47157 0.0
C1910 C 0.47817 0.95613 0.46945 0.0
C1911 C 0.48255 0.92759 0.47724 0.0
C1912 C 0.46772 0.89648 0.4751 0.0
C1913 C 0.44812 0.89368 0.4653 0.0
C1914 C 0.44335 0.92199 0.45761 0.0
C1915 C 0.45826 0.95312 0.45966 0.0
H1916 H 0.43661 0.86958 0.46368 0.0
H1917 H 0.58032 0.171 0.48602 0.0
H1918 H 0.89889 0.45033 0.55518 0.0
H1919 H 0.94953 0.46908 0.55775 0.0
H1920 H 0.92679 0.51741 0.59211 0.0
H1921 H 0.87532 0.50003 0.58928 0.0
H1922 H 0.9601 0.55944 0.57929 0.0
H1923 H 0.96879 0.44198 0.59094 0.0
H1924 H 0.96215 0.37878 0.58964 0.0
H1925 H 0.01126 0.37648 0.55601 0.0
H1926 H 0.01785 0.43975 0.557 0.0
H1927 H 0.1166 0.5922 0.586 0.0
H1928 H 0.06743 0.56827 0.59045 0.0
H1929 H 0.06252 0.52825 0.55363 0.0
H1930 H 0.11119 0.55222 0.54917 0.0
H1931 H 0.04454 0.48046 0.57206 0.0
H1932 H 0.02846 0.59998 0.55965 0.0
H1933 H 0.03521 0.66307 0.56154 0.0
H1934 H 1.00043 0.66012 0.59812 0.0
H1935 H 0.99386 0.59687 0.5965 0.0
C1936 C 0.90445 0.46507 0.56328 0.0
C1937 C 0.88278 0.47383 0.57198 0.0
C1938 C 0.93366 0.47539 0.56482 0.0
C1939 C 0.94222 0.49425 0.57522 0.0
C1940 C 0.9208 0.50271 0.58403 0.0
C1941 C 0.89138 0.49251 0.58245 0.0
C1942 C 0.97324 0.50644 0.57641 0.0
C1943 C 0.97856 0.54197 0.57801 0.0
C1944 C 0.99748 0.48382 0.57466 0.0
C1945 C 0.99367 0.44569 0.57402 0.0
C1946 C 0.97801 0.42805 0.58322 0.0
C1947 C 0.97428 0.39219 0.58254 0.0
C1948 C 0.98624 0.37363 0.57274 0.0
C1949 C 1.00201 0.39089 0.5636 0.0
C1950 C 1.00579 0.42675 0.56423 0.0
C1951 C 0.10503 0.57805 0.57892 0.0
C1952 C 0.11756 0.57428 0.56721 0.0
C1953 C 0.07699 0.56453 0.58145 0.0
C1954 C 0.06132 0.54659 0.57235 0.0
C1955 C 0.07422 0.54199 0.56078 0.0
C1956 C 0.10192 0.55592 0.55821 0.0
C1957 C 0.03109 0.53334 0.57459 0.0
C1958 C 0.02601 0.49765 0.57362 0.0
C1959 C 1.00714 0.55571 0.57706 0.0
C1960 C 0.01104 0.59368 0.57801 0.0
C1961 C 0.02252 0.61274 0.56814 0.0
C1962 C 0.02626 0.64853 0.56915 0.0
C1963 C 0.01835 0.66558 0.57996 0.0
C1964 C 1.00661 0.64687 0.58976 0.0
C1965 C 1.00287 0.61106 0.5888 0.0
H1966 H 0.02124 0.69329 0.58072 0.0
H1967 H 0.98333 0.34588 0.57224 0.0
loop_
_geom_bond_atom_site_label_1
_geom_bond_atom_site_label_2
_geom_bond_distance
_geom_bond_site_symmetry_2
_ccdc_geom_bond_type
Cu0 N1 1.999 . S
Cu0 O6 1.974 . S
Cu0 N11 1.985 . S
Cu0 O20 1.959 . S
N1 Cu0 1.999 . S
N1 C3 1.263 . S
N1 C5 1.389 . S
N2 C3 1.358 . S
N2 C4 1.400 1_455 S
C3 N1 1.263 . S
C3 N2 1.358 . S
C3 H9 0.930 . S
C4 N2 1.400 1_655 S
C4 C5 1.351 1_655 S
C4 H21 0.930 . S
C5 N1 1.389 . S
C5 C4 1.351 1_455 S
C5 H10 0.930 . S
O6 Cu0 1.974 . S
O6 C16 1.282 . S
C7 O8 1.261 . S
C7 O20 1.251 . S
O8 C7 1.261 . S
H9 C3 0.930 . S
H10 C5 0.930 . S
N11 Cu0 1.985 . S
N11 C13 1.335 . S
N11 C14 1.390 . S
N12 C13 1.345 . S
N12 C15 1.336 . S
C13 N11 1.335 . S
C13 N12 1.345 . S
C13 H18 0.930 . S
C14 N11 1.390 . S
C14 C15 1.346 . S
C14 H19 0.930 . S
C15 N12 1.336 . S
C15 C14 1.346 . S
C15 H22 0.929 . S
C16 O6 1.282 . S
C16 O17 1.216 . S
O17 C16 1.216 . S
H18 C13 0.930 . S
H19 C14 0.930 . S
O20 Cu0 1.959 . S
O20 C7 1.251 . S
H21 C4 0.930 . S
H22 C15 0.929 . S
Cu23 N24 1.999 . S
Cu23 O29 1.974 . S
Cu23 N34 1.985 . S
Cu23 O43 1.959 . S
N24 Cu23 1.999 . S
N24 C26 1.263 . S
N24 C28 1.389 . S
N25 C26 1.358 . S
N25 C27 1.400 . S
C26 N24 1.263 . S
C26 N25 1.358 . S
C26 H32 0.930 . S
C27 N25 1.400 . S
C27 C28 1.351 . S
C27 H44 0.930 . S
C28 N24 1.389 . S
C28 C27 1.351 . S
C28 H33 0.930 . S
O29 Cu23 1.974 . S
O29 C39 1.282 . S
C30 O31 1.261 . S
C30 O43 1.251 . S
O31 C30 1.261 . S
H32 C26 0.930 . S
H33 C28 0.930 . S
N34 Cu23 1.985 . S
N34 C36 1.335 . S
N34 C37 1.390 . S
N35 C36 1.345 . S
N35 C38 1.336 . S
C36 N34 1.335 . S
C36 N35 1.345 . S
C36 H41 0.930 . S
C37 N34 1.390 . S
C37 C38 1.346 . S
C37 H42 0.930 . S
C38 N35 1.336 . S
C38 C37 1.346 . S
C38 H45 0.929 . S
C39 O29 1.282 . S
C39 O40 1.216 . S
O40 C39 1.216 . S
H41 C36 0.930 . S
H42 C37 0.930 . S
O43 Cu23 1.959 . S
O43 C30 1.251 . S
H44 C27 0.930 . S
H45 C38 0.929 . S
Cu46 N47 1.999 . S
Cu46 O52 1.974 . S
Cu46 N57 1.985 . S
Cu46 O66 1.959 . S
N47 Cu46 1.999 . S
N47 C49 1.263 . S
N47 C51 1.389 . S
N48 C49 1.358 . S
N48 C50 1.400 1_655 S
C49 N47 1.263 . S
C49 N48 1.358 . S
C49 H55 0.930 . S
C50 N48 1.400 1_455 S
C50 C51 1.351 1_455 S
C50 H67 0.930 . S
C51 N47 1.389 . S
C51 C50 1.351 1_655 S
C51 H56 0.930 . S
O52 Cu46 1.974 . S
O52 C62 1.282 . S
C53 O54 1.261 . S
C53 O66 1.251 . S
O54 C53 1.261 . S
H55 C49 0.930 . S
H56 C51 0.930 . S
N57 Cu46 1.985 . S
N57 C59 1.335 . S
N57 C60 1.390 . S
N58 C59 1.345 . S
N58 C61 1.336 . S
C59 N57 1.335 . S
C59 N58 1.345 . S
C59 H64 0.930 . S
C60 N57 1.390 . S
C60 C61 1.346 . S
C60 H65 0.930 . S
C61 N58 1.336 . S
C61 C60 1.346 . S
C61 H68 0.929 . S
C62 O52 1.282 . S
C62 O63 1.216 . S
O63 C62 1.216 . S
H64 C59 0.930 . S
H65 C60 0.930 . S
O66 Cu46 1.959 . S
O66 C53 1.251 . S
H67 C50 0.930 . S
H68 C61 0.929 . S
Cu69 N70 1.999 . S
Cu69 O75 1.974 . S
Cu69 N80 1.985 . S
Cu69 O89 1.959 . S
N70 Cu69 1.999 . S
N70 C72 1.263 . S
N70 C74 1.389 . S
N71 C72 1.358 . S
N71 C73 1.400 . S
C72 N70 1.263 . S
C72 N71 1.358 . S
C72 H78 0.930 . S
C73 N71 1.400 . S
C73 C74 1.351 . S
C73 H90 0.930 . S
C74 N70 1.389 . S
C74 C73 1.351 . S
C74 H79 0.930 . S
O75 Cu69 1.974 . S
O75 C85 1.282 . S
C76 O77 1.261 . S
C76 O89 1.251 . S
O77 C76 1.261 . S
H78 C72 0.930 . S
H79 C74 0.930 . S
N80 Cu69 1.985 . S
N80 C82 1.335 . S
N80 C83 1.390 . S
N81 C82 1.345 . S
N81 C84 1.336 . S
C82 N80 1.335 . S
C82 N81 1.345 . S
C82 H87 0.930 . S
C83 N80 1.390 . S
C83 C84 1.346 . S
C83 H88 0.930 . S
C84 N81 1.336 . S
C84 C83 1.346 . S
C84 H91 0.929 . S
C85 O75 1.282 . S
C85 O86 1.216 . S
O86 C85 1.216 . S
H87 C82 0.930 . S
H88 C83 0.930 . S
O89 Cu69 1.959 . S
O89 C76 1.251 . S
H90 C73 0.930 . S
H91 C84 0.929 . S
Cu92 N93 1.999 . S
Cu92 O98 1.974 . S
Cu92 N103 1.985 . S
Cu92 O112 1.959 . S
N93 Cu92 1.999 . S
N93 C95 1.263 . S
N93 C97 1.389 . S
N94 C95 1.358 . S
N94 C96 1.400 1_455 S
C95 N93 1.263 . S
C95 N94 1.358 . S
C95 H101 0.930 . S
C96 N94 1.400 1_655 S
C96 C97 1.351 1_655 S
C96 H113 0.930 . S
C97 N93 1.389 . S
C97 C96 1.351 1_455 S
C97 H102 0.930 . S
O98 Cu92 1.974 . S
O98 C108 1.282 . S
C99 O100 1.261 . S
C99 O112 1.251 . S
O100 C99 1.261 . S
H101 C95 0.930 . S
H102 C97 0.930 . S
N103 Cu92 1.985 . S
N103 C105 1.335 . S
N103 C106 1.390 . S
N104 C105 1.345 . S
N104 C107 1.336 . S
C105 N103 1.335 . S
C105 N104 1.345 . S
C105 H110 0.930 . S
C106 N103 1.390 . S
C106 C107 1.346 . S
C106 H111 0.930 . S
C107 N104 1.336 . S
C107 C106 1.346 . S
C107 H114 0.929 . S
C108 O98 1.282 . S
C108 O109 1.216 . S
O109 C108 1.216 . S
H110 C105 0.930 . S
H111 C106 0.930 . S
O112 Cu92 1.959 . S
O112 C99 1.251 . S
H113 C96 0.930 . S
H114 C107 0.929 . S
Cu115 N116 1.999 . S
Cu115 O121 1.974 . S
Cu115 N126 1.985 . S
Cu115 O135 1.959 . S
N116 Cu115 1.999 . S
N116 C118 1.263 . S
N116 C120 1.389 . S
N117 C118 1.358 . S
N117 C119 1.400 . S
C118 N116 1.263 . S
C118 N117 1.358 . S
C118 H124 0.930 . S
C119 N117 1.400 . S
C119 C120 1.351 . S
C119 H136 0.930 . S
C120 N116 1.389 . S
C120 C119 1.351 . S
C120 H125 0.930 . S
O121 Cu115 1.974 . S
O121 C131 1.282 . S
C122 O123 1.261 . S
C122 O135 1.251 . S
O123 C122 1.261 . S
H124 C118 0.930 . S
H125 C120 0.930 . S
N126 Cu115 1.985 . S
N126 C128 1.335 . S
N126 C129 1.390 . S
N127 C128 1.345 . S
N127 C130 1.336 . S
C128 N126 1.335 . S
C128 N127 1.345 . S
C128 H133 0.930 . S
C129 N126 1.390 . S
C129 C130 1.346 . S
C129 H134 0.930 . S
C130 N127 1.336 . S
C130 C129 1.346 . S
C130 H137 0.929 . S
C131 O121 1.282 . S
C131 O132 1.216 . S
O132 C131 1.216 . S
H133 C128 0.930 . S
H134 C129 0.930 . S
O135 Cu115 1.959 . S
O135 C122 1.251 . S
H136 C119 0.930 . S
H137 C130 0.929 . S
Cu138 N139 1.999 . S
Cu138 O144 1.974 . S
Cu138 N149 1.985 . S
Cu138 O158 1.959 . S
N139 Cu138 1.999 . S
N139 C141 1.263 . S
N139 C143 1.389 . S
N140 C141 1.358 . S
N140 C142 1.400 1_655 S
C141 N139 1.263 . S
C141 N140 1.358 . S
C141 H147 0.930 . S
C142 N140 1.400 1_455 S
C142 C143 1.351 1_455 S
C142 H159 0.930 . S
C143 N139 1.389 . S
C143 C142 1.351 1_655 S
C143 H148 0.930 . S
O144 Cu138 1.974 . S
O144 C154 1.282 . S
C145 O146 1.261 . S
C145 O158 1.251 . S
O146 C145 1.261 . S
H147 C141 0.930 . S
H148 C143 0.930 . S
N149 Cu138 1.985 . S
N149 C151 1.335 . S
N149 C152 1.390 . S
N150 C151 1.345 . S
N150 C153 1.336 . S
C151 N149 1.335 . S
C151 N150 1.345 . S
C151 H156 0.930 . S
C152 N149 1.390 . S
C152 C153 1.346 . S
C152 H157 0.930 . S
C153 N150 1.336 . S
C153 C152 1.346 . S
C153 H160 0.929 . S
C154 O144 1.282 . S
C154 O155 1.216 . S
O155 C154 1.216 . S
H156 C151 0.930 . S
H157 C152 0.930 . S
O158 Cu138 1.959 . S
O158 C145 1.251 . S
H159 C142 0.930 . S
H160 C153 0.929 . S
Cu161 N162 1.999 . S
Cu161 O167 1.974 . S
Cu161 N172 1.985 . S
Cu161 O181 1.959 . S
N162 Cu161 1.999 . S
N162 C164 1.263 . S
N162 C166 1.389 . S
N163 C164 1.358 . S
N163 C165 1.400 . S
C164 N162 1.263 . S
C164 N163 1.358 . S
C164 H170 0.930 . S
C165 N163 1.400 . S
C165 C166 1.351 . S
C165 H182 0.930 . S
C166 N162 1.389 . S
C166 C165 1.351 . S
C166 H171 0.930 . S
O167 Cu161 1.974 . S
O167 C177 1.282 . S
C168 O169 1.261 . S
C168 O181 1.251 . S
O169 C168 1.261 . S
H170 C164 0.930 . S
H171 C166 0.930 . S
N172 Cu161 1.985 . S
N172 C174 1.335 . S
N172 C175 1.390 . S
N173 C174 1.345 . S
N173 C176 1.336 . S
C174 N172 1.335 . S
C174 N173 1.345 . S
C174 H179 0.930 . S
C175 N172 1.390 . S
C175 C176 1.346 . S
C175 H180 0.930 . S
C176 N173 1.336 . S
C176 C175 1.346 . S
C176 H183 0.929 . S
C177 O167 1.282 . S
C177 O178 1.216 . S
O178 C177 1.216 . S
H179 C174 0.930 . S
H180 C175 0.930 . S
O181 Cu161 1.959 . S
O181 C168 1.251 . S
H182 C165 0.930 . S
H183 C176 0.929 . S
Cu184 N185 1.999 . S
Cu184 O190 1.974 . S
Cu184 N195 1.985 . S
Cu184 O204 1.959 . S
N185 Cu184 1.999 . S
N185 C187 1.263 . S
N185 C189 1.389 . S
N186 C187 1.358 . S
N186 C188 1.400 . S
C187 N185 1.263 . S
C187 N186 1.358 . S
C187 H193 0.930 . S
C188 N186 1.400 . S
C188 C189 1.351 . S
C188 H205 0.930 . S
C189 N185 1.389 . S
C189 C188 1.351 . S
C189 H194 0.930 . S
O190 Cu184 1.974 . S
O190 C200 1.282 . S
C191 O192 1.261 . S
C191 O204 1.251 . S
O192 C191 1.261 . S
H193 C187 0.930 . S
H194 C189 0.930 . S
N195 Cu184 1.985 . S
N195 C197 1.335 . S
N195 C198 1.390 . S
N196 C197 1.345 . S
N196 C199 1.336 . S
C197 N195 1.335 . S
C197 N196 1.345 . S
C197 H202 0.930 . S
C198 N195 1.390 . S
C198 C199 1.346 . S
C198 H203 0.930 . S
C199 N196 1.336 . S
C199 C198 1.346 . S
C199 H206 0.929 . S
C200 O190 1.282 . S
C200 O201 1.216 . S
O201 C200 1.216 . S
H202 C197 0.930 . S
H203 C198 0.930 . S
O204 Cu184 1.959 . S
O204 C191 1.251 . S
H205 C188 0.930 . S
H206 C199 0.929 . S
Cu207 N208 1.999 . S
Cu207 O213 1.974 . S
Cu207 N218 1.985 . S
Cu207 O227 1.959 . S
N208 Cu207 1.999 . S
N208 C210 1.263 . S
N208 C212 1.389 . S
N209 C210 1.358 . S
N209 C211 1.400 . S
C210 N208 1.263 . S
C210 N209 1.358 . S
C210 H216 0.930 . S
C211 N209 1.400 . S
C211 C212 1.351 . S
C211 H228 0.930 . S
C212 N208 1.389 . S
C212 C211 1.351 . S
C212 H217 0.930 . S
O213 Cu207 1.974 . S
O213 C223 1.282 . S
C214 O215 1.261 . S
C214 O227 1.251 . S
O215 C214 1.261 . S
H216 C210 0.930 . S
H217 C212 0.930 . S
N218 Cu207 1.985 . S
N218 C220 1.335 . S
N218 C221 1.390 . S
N219 C220 1.345 . S
N219 C222 1.336 . S
C220 N218 1.335 . S
C220 N219 1.345 . S
C220 H225 0.930 . S
C221 N218 1.390 . S
C221 C222 1.346 . S
C221 H226 0.930 . S
C222 N219 1.336 . S
C222 C221 1.346 . S
C222 H229 0.929 . S
C223 O213 1.282 . S
C223 O224 1.216 . S
O224 C223 1.216 . S
H225 C220 0.930 . S
H226 C221 0.930 . S
O227 Cu207 1.959 . S
O227 C214 1.251 . S
H228 C211 0.930 . S
H229 C222 0.929 . S
Cu230 N231 1.999 . S
Cu230 O236 1.974 . S
Cu230 N241 1.985 . S
Cu230 O250 1.959 . S
N231 Cu230 1.999 . S
N231 C233 1.263 . S
N231 C235 1.389 . S
N232 C233 1.358 . S
N232 C234 1.400 . S
C233 N231 1.263 . S
C233 N232 1.358 . S
C233 H239 0.930 . S
C234 N232 1.400 . S
C234 C235 1.351 . S
C234 H251 0.930 . S
C235 N231 1.389 . S
C235 C234 1.351 . S
C235 H240 0.930 . S
O236 Cu230 1.974 . S
O236 C246 1.282 . S
C237 O238 1.261 . S
C237 O250 1.251 . S
O238 C237 1.261 . S
H239 C233 0.930 . S
H240 C235 0.930 . S
N241 Cu230 1.985 . S
N241 C243 1.335 . S
N241 C244 1.390 . S
N242 C243 1.345 . S
N242 C245 1.336 . S
C243 N241 1.335 . S
C243 N242 1.345 . S
C243 H248 0.930 . S
C244 N241 1.390 . S
C244 C245 1.346 . S
C244 H249 0.930 . S
C245 N242 1.336 . S
C245 C244 1.346 . S
C245 H252 0.929 . S
C246 O236 1.282 . S
C246 O247 1.216 . S
O247 C246 1.216 . S
H248 C243 0.930 . S
H249 C244 0.930 . S
O250 Cu230 1.959 . S
O250 C237 1.251 . S
H251 C234 0.930 . S
H252 C245 0.929 . S
Cu253 N254 1.999 . S
Cu253 O259 1.974 . S
Cu253 N264 1.985 . S
Cu253 O273 1.959 . S
N254 Cu253 1.999 . S
N254 C256 1.263 . S
N254 C258 1.389 . S
N255 C256 1.358 . S
N255 C257 1.400 . S
C256 N254 1.263 . S
C256 N255 1.358 . S
C256 H262 0.930 . S
C257 N255 1.400 . S
C257 C258 1.351 . S
C257 H274 0.930 . S
C258 N254 1.389 . S
C258 C257 1.351 . S
C258 H263 0.930 . S
O259 Cu253 1.974 . S
O259 C269 1.282 . S
C260 O261 1.261 . S
C260 O273 1.251 . S
O261 C260 1.261 . S
H262 C256 0.930 . S
H263 C258 0.930 . S
N264 Cu253 1.985 . S
N264 C266 1.335 . S
N264 C267 1.390 . S
N265 C266 1.345 . S
N265 C268 1.336 . S
C266 N264 1.335 . S
C266 N265 1.345 . S
C266 H271 0.930 . S
C267 N264 1.390 . S
C267 C268 1.346 . S
C267 H272 0.930 . S
C268 N265 1.336 . S
C268 C267 1.346 . S
C268 H275 0.929 . S
C269 O259 1.282 . S
C269 O270 1.216 . S
O270 C269 1.216 . S
H271 C266 0.930 . S
H272 C267 0.930 . S
O273 Cu253 1.959 . S
O273 C260 1.251 . S
H274 C257 0.930 . S
H275 C268 0.929 . S
Cu276 N277 1.999 . S
Cu276 O282 1.974 . S
Cu276 N287 1.985 . S
Cu276 O296 1.959 . S
N277 Cu276 1.999 . S
N277 C279 1.263 . S
N277 C281 1.389 . S
N278 C279 1.358 . S
N278 C280 1.400 . S
C279 N277 1.263 . S
C279 N278 1.358 . S
C279 H285 0.930 . S
C280 N278 1.400 . S
C280 C281 1.351 . S
C280 H297 0.930 . S
C281 N277 1.389 . S
C281 C280 1.351 . S
C281 H286 0.930 . S
O282 Cu276 1.974 . S
O282 C292 1.282 . S
C283 O284 1.261 . S
C283 O296 1.251 . S
O284 C283 1.261 . S
H285 C279 0.930 . S
H286 C281 0.930 . S
N287 Cu276 1.985 . S
N287 C289 1.335 . S
N287 C290 1.390 . S
N288 C289 1.345 . S
N288 C291 1.336 . S
C289 N287 1.335 . S
C289 N288 1.345 . S
C289 H294 0.930 . S
C290 N287 1.390 . S
C290 C291 1.346 . S
C290 H295 0.930 . S
C291 N288 1.336 . S
C291 C290 1.346 . S
C291 H298 0.929 . S
C292 O282 1.282 . S
C292 O293 1.216 . S
O293 C292 1.216 . S
H294 C289 0.930 . S
H295 C290 0.930 . S
O296 Cu276 1.959 . S
O296 C283 1.251 . S
H297 C280 0.930 . S
H298 C291 0.929 . S
Cu299 N300 1.999 . S
Cu299 O305 1.974 . S
Cu299 N310 1.985 . S
Cu299 O319 1.959 . S
N300 Cu299 1.999 . S
N300 C302 1.263 . S
N300 C304 1.389 . S
N301 C302 1.358 . S
N301 C303 1.400 . S
C302 N300 1.263 . S
C302 N301 1.358 . S
C302 H308 0.930 . S
C303 N301 1.400 . S
C303 C304 1.351 . S
C303 H320 0.930 . S
C304 N300 1.389 . S
C304 C303 1.351 . S
C304 H309 0.930 . S
O305 Cu299 1.974 . S
O305 C315 1.282 . S
C306 O307 1.261 . S
C306 O319 1.251 . S
O307 C306 1.261 . S
H308 C302 0.930 . S
H309 C304 0.930 . S
N310 Cu299 1.985 . S
N310 C312 1.335 . S
N310 C313 1.390 . S
N311 C312 1.345 . S
N311 C314 1.336 . S
C312 N310 1.335 . S
C312 N311 1.345 . S
C312 H317 0.930 . S
C313 N310 1.390 . S
C313 C314 1.346 . S
C313 H318 0.930 . S
C314 N311 1.336 . S
C314 C313 1.346 . S
C314 H321 0.929 . S
C315 O305 1.282 . S
C315 O316 1.216 . S
O316 C315 1.216 . S
H317 C312 0.930 . S
H318 C313 0.930 . S
O319 Cu299 1.959 . S
O319 C306 1.251 . S
H320 C303 0.930 . S
H321 C314 0.929 . S
Cu322 N323 1.999 . S
Cu322 O328 1.974 . S
Cu322 N333 1.985 . S
Cu322 O342 1.959 . S
N323 Cu322 1.999 . S
N323 C325 1.263 . S
N323 C327 1.389 . S
N324 C325 1.358 . S
N324 C326 1.400 . S
C325 N323 1.263 . S
C325 N324 1.358 . S
C325 H331 0.930 . S
C326 N324 1.400 . S
C326 C327 1.351 . S
C326 H343 0.930 . S
C327 N323 1.389 . S
C327 C326 1.351 . S
C327 H332 0.930 . S
O328 Cu322 1.974 . S
O328 C338 1.282 . S
C329 O330 1.261 . S
C329 O342 1.251 . S
O330 C329 1.261 . S
H331 C325 0.930 . S
H332 C327 0.930 . S
N333 Cu322 1.985 . S
N333 C335 1.335 . S
N333 C336 1.390 . S
N334 C335 1.345 . S
N334 C337 1.336 . S
C335 N333 1.335 . S
C335 N334 1.345 . S
C335 H340 0.930 . S
C336 N333 1.390 . S
C336 C337 1.346 . S
C336 H341 0.930 . S
C337 N334 1.336 . S
C337 C336 1.346 . S
C337 H344 0.929 . S
C338 O328 1.282 . S
C338 O339 1.216 . S
O339 C338 1.216 . S
H340 C335 0.930 . S
H341 C336 0.930 . S
O342 Cu322 1.959 . S
O342 C329 1.251 . S
H343 C326 0.930 . S
H344 C337 0.929 . S
Cu345 N346 1.999 . S
Cu345 O351 1.974 . S
Cu345 N356 1.985 . S
Cu345 O365 1.959 . S
N346 Cu345 1.999 . S
N346 C348 1.263 . S
N346 C350 1.389 . S
N347 C348 1.358 . S
N347 C349 1.400 . S
C348 N346 1.263 . S
C348 N347 1.358 . S
C348 H354 0.930 . S
C349 N347 1.400 . S
C349 C350 1.351 . S
C349 H366 0.930 . S
C350 N346 1.389 . S
C350 C349 1.351 . S
C350 H355 0.930 . S
O351 Cu345 1.974 . S
O351 C361 1.282 . S
C352 O353 1.261 . S
C352 O365 1.251 . S
O353 C352 1.261 . S
H354 C348 0.930 . S
H355 C350 0.930 . S
N356 Cu345 1.985 . S
N356 C358 1.335 . S
N356 C359 1.390 . S
N357 C358 1.345 . S
N357 C360 1.336 . S
C358 N356 1.335 . S
C358 N357 1.345 . S
C358 H363 0.930 . S
C359 N356 1.390 . S
C359 C360 1.346 . S
C359 H364 0.930 . S
C360 N357 1.336 . S
C360 C359 1.346 . S
C360 H367 0.929 . S
C361 O351 1.282 . S
C361 O362 1.216 . S
O362 C361 1.216 . S
H363 C358 0.930 . S
H364 C359 0.930 . S
O365 Cu345 1.959 . S
O365 C352 1.251 . S
H366 C349 0.930 . S
H367 C360 0.929 . S
H368 C386 0.951 . S
H369 C388 0.951 . S
H370 C390 0.950 . S
H371 C391 0.950 . S
H372 C393 0.950 . S
H373 C396 0.950 . S
H374 C397 0.950 . S
H375 C399 0.950 . S
H376 C400 0.950 . S
H377 C401 0.951 . S
H378 C403 0.951 . S
H379 C405 0.950 . S
H380 C406 0.950 . S
H381 C408 0.950 . S
H382 C411 0.950 . S
H383 C412 0.950 . S
H384 C414 0.950 . S
H385 C415 0.950 . S
C386 H368 0.951 . S
C386 C387 1.366 . S
C386 C388 1.388 . S
C387 C386 1.366 . S
C387 C391 1.385 . S
C388 H369 0.951 . S
C388 C386 1.388 . S
C388 C389 1.366 . S
C389 C388 1.366 . S
C389 C390 1.414 . S
C389 C392 1.499 . S
C390 H370 0.950 . S
C390 C389 1.414 . S
C390 C391 1.374 . S
C391 H371 0.950 . S
C391 C387 1.385 . S
C391 C390 1.374 . S
C392 C389 1.499 . S
C392 C393 1.373 . S
C392 C394 1.389 . S
C393 H372 0.950 . S
C393 C392 1.373 . S
C393 C409 1.377 . S
C394 C392 1.389 . S
C394 C395 1.524 . S
C394 C408 1.377 . S
C395 C394 1.524 . S
C395 C396 1.397 . S
C395 C400 1.363 . S
C396 H373 0.950 . S
C396 C395 1.397 . S
C396 C397 1.334 . S
C397 H374 0.950 . S
C397 C396 1.334 . S
C397 C398 1.287 . S
C398 C397 1.287 . S
C398 C399 1.524 . S
C398 H417 0.913 . S
C399 H375 0.950 . S
C399 C398 1.524 . S
C399 C400 1.415 . S
C400 H376 0.950 . S
C400 C395 1.363 . S
C400 C399 1.415 . S
C401 H377 0.951 . S
C401 C402 1.366 . S
C401 C403 1.388 . S
C402 C401 1.366 . S
C402 C406 1.385 . S
C403 H378 0.951 . S
C403 C401 1.388 . S
C403 C404 1.366 . S
C404 C403 1.366 . S
C404 C405 1.414 . S
C404 C407 1.499 . S
C405 H379 0.950 . S
C405 C404 1.414 . S
C405 C406 1.374 . S
C406 H380 0.950 . S
C406 C402 1.385 . S
C406 C405 1.374 . S
C407 C404 1.499 . S
C407 C408 1.373 . S
C407 C409 1.389 . S
C408 H381 0.950 . S
C408 C394 1.377 . S
C408 C407 1.373 . S
C409 C393 1.377 . S
C409 C407 1.389 . S
C409 C410 1.524 . S
C410 C409 1.524 . S
C410 C411 1.397 . S
C410 C415 1.363 . S
C411 H382 0.950 . S
C411 C410 1.397 . S
C411 C412 1.334 . S
C412 H383 0.950 . S
C412 C411 1.334 . S
C412 C413 1.287 . S
C413 C412 1.287 . S
C413 C414 1.524 . S
C413 H416 0.999 . S
C414 H384 0.950 . S
C414 C413 1.524 . S
C414 C415 1.415 . S
C415 H385 0.950 . S
C415 C410 1.363 . S
C415 C414 1.415 . S
H416 C413 0.999 . S
H417 C398 0.913 . S
H418 C436 0.951 . S
H419 C438 0.951 . S
H420 C440 0.950 . S
H421 C441 0.950 . S
H422 C443 0.950 . S
H423 C446 0.950 . S
H424 C447 0.950 . S
H425 C449 0.950 . S
H426 C450 0.950 . S
H427 C451 0.951 . S
H428 C453 0.951 . S
H429 C455 0.950 . S
H430 C456 0.950 . S
H431 C458 0.950 . S
H432 C461 0.950 . S
H433 C462 0.950 . S
H434 C464 0.950 . S
H435 C465 0.950 . S
C436 H418 0.951 . S
C436 C437 1.366 . S
C436 C438 1.388 . S
C437 C436 1.366 . S
C437 C441 1.385 . S
C438 H419 0.951 . S
C438 C436 1.388 . S
C438 C439 1.366 . S
C439 C438 1.366 . S
C439 C440 1.414 . S
C439 C442 1.499 . S
C440 H420 0.950 . S
C440 C439 1.414 . S
C440 C441 1.374 . S
C441 H421 0.950 . S
C441 C437 1.385 . S
C441 C440 1.374 . S
C442 C439 1.499 . S
C442 C443 1.373 . S
C442 C444 1.389 . S
C443 H422 0.950 . S
C443 C442 1.373 . S
C443 C459 1.377 . S
C444 C442 1.389 . S
C444 C445 1.524 . S
C444 C458 1.377 . S
C445 C444 1.524 . S
C445 C446 1.397 . S
C445 C450 1.363 . S
C446 H423 0.950 . S
C446 C445 1.397 . S
C446 C447 1.334 . S
C447 H424 0.950 . S
C447 C446 1.334 . S
C447 C448 1.287 . S
C448 C447 1.287 . S
C448 C449 1.524 . S
C448 H467 0.913 . S
C449 H425 0.950 . S
C449 C448 1.524 . S
C449 C450 1.415 . S
C450 H426 0.950 . S
C450 C445 1.363 . S
C450 C449 1.415 . S
C451 H427 0.951 . S
C451 C452 1.366 . S
C451 C453 1.388 . S
C452 C451 1.366 . S
C452 C456 1.385 . S
C453 H428 0.951 . S
C453 C451 1.388 . S
C453 C454 1.366 . S
C454 C453 1.366 . S
C454 C455 1.414 . S
C454 C457 1.499 . S
C455 H429 0.950 . S
C455 C454 1.414 . S
C455 C456 1.374 . S
C456 H430 0.950 . S
C456 C452 1.385 . S
C456 C455 1.374 . S
C457 C454 1.499 . S
C457 C458 1.373 . S
C457 C459 1.389 . S
C458 H431 0.950 . S
C458 C444 1.377 . S
C458 C457 1.373 . S
C459 C443 1.377 . S
C459 C457 1.389 . S
C459 C460 1.524 . S
C460 C459 1.524 . S
C460 C461 1.397 . S
C460 C465 1.363 . S
C461 H432 0.950 . S
C461 C460 1.397 . S
C461 C462 1.334 . S
C462 H433 0.950 . S
C462 C461 1.334 . S
C462 C463 1.287 . S
C463 C462 1.287 . S
C463 C464 1.524 . S
C463 H466 0.999 . S
C464 H434 0.950 . S
C464 C463 1.524 . S
C464 C465 1.415 . S
C465 H435 0.950 . S
C465 C460 1.363 . S
C465 C464 1.415 . S
H466 C463 0.999 . S
H467 C448 0.913 . S
H468 C486 0.951 . S
H469 C488 0.951 . S
H470 C490 0.950 . S
H471 C491 0.950 . S
H472 C493 0.950 . S
H473 C496 0.950 . S
H474 C497 0.950 . S
H475 C499 0.950 . S
H476 C500 0.950 . S
H477 C501 0.951 . S
H478 C503 0.951 . S
H479 C505 0.950 . S
H480 C506 0.950 . S
H481 C508 0.950 . S
H482 C511 0.950 . S
H483 C512 0.950 . S
H484 C514 0.950 . S
H485 C515 0.950 . S
C486 H468 0.951 . S
C486 C487 1.366 . S
C486 C488 1.388 . S
C487 C486 1.366 . S
C487 C491 1.385 . S
C488 H469 0.951 . S
C488 C486 1.388 . S
C488 C489 1.366 . S
C489 C488 1.366 . S
C489 C490 1.414 . S
C489 C492 1.499 . S
C490 H470 0.950 . S
C490 C489 1.414 . S
C490 C491 1.374 . S
C491 H471 0.950 . S
C491 C487 1.385 . S
C491 C490 1.374 . S
C492 C489 1.499 . S
C492 C493 1.373 . S
C492 C494 1.389 . S
C493 H472 0.950 . S
C493 C492 1.373 . S
C493 C509 1.377 . S
C494 C492 1.389 . S
C494 C495 1.524 . S
C494 C508 1.377 . S
C495 C494 1.524 . S
C495 C496 1.397 . S
C495 C500 1.363 . S
C496 H473 0.950 . S
C496 C495 1.397 . S
C496 C497 1.334 . S
C497 H474 0.950 . S
C497 C496 1.334 . S
C497 C498 1.287 . S
C498 C497 1.287 . S
C498 C499 1.524 . S
C498 H517 0.913 . S
C499 H475 0.950 . S
C499 C498 1.524 . S
C499 C500 1.415 . S
C500 H476 0.950 . S
C500 C495 1.363 . S
C500 C499 1.415 . S
C501 H477 0.951 . S
C501 C502 1.366 . S
C501 C503 1.388 . S
C502 C501 1.366 . S
C502 C506 1.385 . S
C503 H478 0.951 . S
C503 C501 1.388 . S
C503 C504 1.366 . S
C504 C503 1.366 . S
C504 C505 1.414 . S
C504 C507 1.499 . S
C505 H479 0.950 . S
C505 C504 1.414 . S
C505 C506 1.374 . S
C506 H480 0.950 . S
C506 C502 1.385 . S
C506 C505 1.374 . S
C507 C504 1.499 . S
C507 C508 1.373 . S
C507 C509 1.389 . S
C508 H481 0.950 . S
C508 C494 1.377 . S
C508 C507 1.373 . S
C509 C493 1.377 . S
C509 C507 1.389 . S
C509 C510 1.524 . S
C510 C509 1.524 . S
C510 C511 1.397 . S
C510 C515 1.363 . S
C511 H482 0.950 . S
C511 C510 1.397 . S
C511 C512 1.334 . S
C512 H483 0.950 . S
C512 C511 1.334 . S
C512 C513 1.287 . S
C513 C512 1.287 . S
C513 C514 1.524 . S
C513 H516 0.999 . S
C514 H484 0.950 . S
C514 C513 1.524 . S
C514 C515 1.415 . S
C515 H485 0.950 . S
C515 C510 1.363 . S
C515 C514 1.415 . S
H516 C513 0.999 . S
H517 C498 0.913 . S
H518 C536 0.951 . S
H519 C538 0.951 . S
H520 C540 0.950 . S
H521 C541 0.950 . S
H522 C543 0.950 . S
H523 C546 0.950 . S
H524 C547 0.950 . S
H525 C549 0.950 . S
H526 C550 0.950 . S
H527 C551 0.951 . S
H528 C553 0.951 . S
H529 C555 0.950 . S
H530 C556 0.950 . S
H531 C558 0.950 . S
H532 C561 0.950 . S
H533 C562 0.950 . S
H534 C564 0.950 . S
H535 C565 0.950 . S
C536 H518 0.951 . S
C536 C537 1.366 . S
C536 C538 1.388 . S
C537 C536 1.366 . S
C537 C541 1.385 . S
C538 H519 0.951 . S
C538 C536 1.388 . S
C538 C539 1.366 . S
C539 C538 1.366 . S
C539 C540 1.414 . S
C539 C542 1.499 . S
C540 H520 0.950 . S
C540 C539 1.414 . S
C540 C541 1.374 . S
C541 H521 0.950 . S
C541 C537 1.385 . S
C541 C540 1.374 . S
C542 C539 1.499 . S
C542 C543 1.373 . S
C542 C544 1.389 . S
C543 H522 0.950 . S
C543 C542 1.373 . S
C543 C559 1.377 . S
C544 C542 1.389 . S
C544 C545 1.524 . S
C544 C558 1.377 . S
C545 C544 1.524 . S
C545 C546 1.397 . S
C545 C550 1.363 . S
C546 H523 0.950 . S
C546 C545 1.397 . S
C546 C547 1.334 . S
C547 H524 0.950 . S
C547 C546 1.334 . S
C547 C548 1.287 . S
C548 C547 1.287 . S
C548 C549 1.524 . S
C548 H567 0.913 . S
C549 H525 0.950 . S
C549 C548 1.524 . S
C549 C550 1.415 . S
C550 H526 0.950 . S
C550 C545 1.363 . S
C550 C549 1.415 . S
C551 H527 0.951 . S
C551 C552 1.366 . S
C551 C553 1.388 . S
C552 C551 1.366 . S
C552 C556 1.385 . S
C553 H528 0.951 . S
C553 C551 1.388 . S
C553 C554 1.366 . S
C554 C553 1.366 . S
C554 C555 1.414 . S
C554 C557 1.499 . S
C555 H529 0.950 . S
C555 C554 1.414 . S
C555 C556 1.374 . S
C556 H530 0.950 . S
C556 C552 1.385 . S
C556 C555 1.374 . S
C557 C554 1.499 . S
C557 C558 1.373 . S
C557 C559 1.389 . S
C558 H531 0.950 . S
C558 C544 1.377 . S
C558 C557 1.373 . S
C559 C543 1.377 . S
C559 C557 1.389 . S
C559 C560 1.524 . S
C560 C559 1.524 . S
C560 C561 1.397 . S
C560 C565 1.363 . S
C561 H532 0.950 . S
C561 C560 1.397 . S
C561 C562 1.334 . S
C562 H533 0.950 . S
C562 C561 1.334 . S
C562 C563 1.287 . S
C563 C562 1.287 . S
C563 C564 1.524 . S
C563 H566 0.999 . S
C564 H534 0.950 . S
C564 C563 1.524 . S
C564 C565 1.415 . S
C565 H535 0.950 . S
C565 C560 1.363 . S
C565 C564 1.415 . S
H566 C563 0.999 . S
H567 C548 0.913 . S
H568 C586 0.951 . S
H569 C588 0.951 . S
H570 C590 0.950 . S
H571 C591 0.950 . S
H572 C593 0.950 . S
H573 C596 0.950 . S
H574 C597 0.950 . S
H575 C599 0.950 . S
H576 C600 0.950 . S
H577 C601 0.951 . S
H578 C603 0.951 . S
H579 C605 0.950 . S
H580 C606 0.950 . S
H581 C608 0.973 . S
H582 C611 0.950 . S
H583 C612 0.950 . S
H584 C614 0.950 . S
H585 C615 0.950 . S
C586 H568 0.951 . S
C586 C587 1.366 . S
C586 C588 1.388 . S
C587 C586 1.366 . S
C587 C591 1.385 . S
C588 H569 0.951 . S
C588 C586 1.388 . S
C588 C589 1.366 . S
C589 C588 1.366 . S
C589 C590 1.414 . S
C589 C592 1.499 . S
C590 H570 0.950 . S
C590 C589 1.414 . S
C590 C591 1.374 . S
C591 H571 0.950 . S
C591 C587 1.385 . S
C591 C590 1.374 . S
C592 C589 1.499 . S
C592 C593 1.373 . S
C592 C594 1.389 . S
C593 H572 0.950 . S
C593 C592 1.373 . S
C593 C609 1.377 . S
C594 C592 1.389 . S
C594 C595 1.524 . S
C594 C608 1.343 1_554 S
C595 C594 1.524 . S
C595 C596 1.397 . S
C595 C600 1.363 . S
C596 H573 0.950 . S
C596 C595 1.397 . S
C596 C597 1.334 1_545 S
C597 H574 0.950 . S
C597 C596 1.334 1_565 S
C597 C598 1.287 . S
C598 C597 1.287 . S
C598 C599 1.524 1_565 S
C598 H617 0.913 . S
C599 H575 0.950 . S
C599 C598 1.524 1_545 S
C599 C600 1.415 . S
C600 H576 0.950 . S
C600 C595 1.363 . S
C600 C599 1.415 . S
C601 H577 0.951 . S
C601 C602 1.366 . S
C601 C603 1.388 . S
C602 C601 1.366 . S
C602 C606 1.385 . S
C603 H578 0.951 . S
C603 C601 1.388 . S
C603 C604 1.366 . S
C604 C603 1.366 . S
C604 C605 1.414 . S
C604 C607 1.499 . S
C605 H579 0.950 . S
C605 C604 1.414 . S
C605 C606 1.374 . S
C606 H580 0.950 . S
C606 C602 1.385 . S
C606 C605 1.374 . S
C607 C604 1.499 . S
C607 C608 1.388 . S
C607 C609 1.389 1_556 S
C608 H581 0.973 . S
C608 C594 1.343 1_556 S
C608 C607 1.388 . S
C609 C593 1.377 . S
C609 C607 1.389 1_554 S
C609 C610 1.522 1_554 S
C610 C609 1.522 1_556 S
C610 C611 1.392 1_556 S
C610 C615 1.368 . S
C611 H582 0.950 . S
C611 C610 1.392 1_554 S
C611 C612 1.334 . S
C612 H583 0.950 . S
C612 C611 1.334 . S
C612 C613 1.287 1_554 S
C613 C612 1.287 1_556 S
C613 C614 1.524 . S
C613 H616 0.999 . S
C614 H584 0.950 . S
C614 C613 1.524 . S
C614 C615 1.415 . S
C615 H585 0.950 . S
C615 C610 1.368 . S
C615 C614 1.415 . S
H616 C613 0.999 . S
H617 C598 0.913 . S
H618 C636 0.951 . S
H619 C638 0.951 . S
H620 C640 0.950 . S
H621 C641 0.950 . S
H622 C643 0.950 . S
H623 C646 0.950 . S
H624 C647 0.961 . S
H625 C649 0.950 . S
H626 C650 0.950 . S
H627 C651 0.951 . S
H628 C653 0.951 . S
H629 C655 0.950 . S
H630 C656 0.950 . S
H631 C658 0.950 1_556 S
H632 C661 0.950 . S
H633 C662 0.950 . S
H634 C664 0.950 . S
H635 C665 0.950 . S
C636 H618 0.951 . S
C636 C637 1.366 . S
C636 C638 1.388 . S
C637 C636 1.366 . S
C637 C641 1.385 . S
C638 H619 0.951 . S
C638 C636 1.388 . S
C638 C639 1.366 . S
C639 C638 1.366 . S
C639 C640 1.414 . S
C639 C642 1.499 . S
C640 H620 0.950 . S
C640 C639 1.414 . S
C640 C641 1.374 . S
C641 H621 0.950 . S
C641 C637 1.385 . S
C641 C640 1.374 . S
C642 C639 1.499 . S
C642 C643 1.373 . S
C642 C644 1.389 . S
C643 H622 0.950 . S
C643 C642 1.373 . S
C643 C659 1.377 . S
C644 C642 1.389 . S
C644 C645 1.524 . S
C644 C658 1.377 . S
C645 C644 1.524 . S
C645 C646 1.397 . S
C645 C650 1.363 . S
C646 H623 0.950 . S
C646 C645 1.397 . S
C646 C647 1.323 1_554 S
C647 H624 0.961 . S
C647 C646 1.323 1_556 S
C647 C648 1.290 . S
C648 C647 1.290 . S
C648 C649 1.524 1_556 S
C648 H667 0.913 . S
C649 H625 0.950 . S
C649 C648 1.524 1_554 S
C649 C650 1.415 . S
C650 H626 0.950 . S
C650 C645 1.363 . S
C650 C649 1.415 . S
C651 H627 0.951 . S
C651 C652 1.366 . S
C651 C653 1.388 1_655 S
C652 C651 1.366 . S
C652 C656 1.385 1_655 S
C653 H628 0.951 . S
C653 C651 1.388 1_455 S
C653 C654 1.366 . S
C654 C653 1.366 . S
C654 C655 1.414 . S
C654 C657 1.499 1_556 S
C655 H629 0.950 . S
C655 C654 1.414 . S
C655 C656 1.374 . S
C656 H630 0.950 . S
C656 C652 1.385 1_455 S
C656 C655 1.374 . S
C657 C654 1.499 1_554 S
C657 C658 1.373 . S
C657 C659 1.389 . S
C658 H631 0.950 1_554 S
C658 C644 1.377 . S
C658 C657 1.373 . S
C659 C643 1.377 . S
C659 C657 1.389 . S
C659 C660 1.524 . S
C660 C659 1.524 . S
C660 C661 1.397 . S
C660 C665 1.363 . S
C661 H632 0.950 . S
C661 C660 1.397 . S
C661 C662 1.334 1_455 S
C662 H633 0.950 . S
C662 C661 1.334 1_655 S
C662 C663 1.287 . S
C663 C662 1.287 . S
C663 C664 1.524 . S
C663 H666 0.999 . S
C664 H634 0.950 . S
C664 C663 1.524 . S
C664 C665 1.415 1_655 S
C665 H635 0.950 . S
C665 C660 1.363 . S
C665 C664 1.415 1_455 S
H666 C663 0.999 . S
H667 C648 0.913 . S
H668 C686 0.951 . S
H669 C688 0.951 . S
H670 C690 0.950 . S
H671 C691 0.950 . S
H672 C693 0.950 . S
H673 C696 0.950 . S
H674 C697 0.950 . S
H675 C699 0.950 . S
H676 C700 0.950 . S
H677 C701 0.951 1_545 S
H678 C703 0.951 . S
H679 C705 0.950 . S
H680 C706 0.950 . S
H681 C708 0.950 . S
H682 C711 0.950 . S
H683 C712 0.950 . S
H684 C714 0.938 1_556 S
H685 C715 0.950 1_556 S
C686 H668 0.951 . S
C686 C687 1.366 . S
C686 C688 1.388 . S
C687 C686 1.366 . S
C687 C691 1.385 . S
C688 H669 0.951 . S
C688 C686 1.388 . S
C688 C689 1.366 . S
C689 C688 1.366 . S
C689 C690 1.414 . S
C689 C692 1.499 . S
C690 H670 0.950 . S
C690 C689 1.414 . S
C690 C691 1.374 . S
C691 H671 0.950 . S
C691 C687 1.385 . S
C691 C690 1.374 . S
C692 C689 1.499 . S
C692 C693 1.373 . S
C692 C694 1.389 1_556 S
C693 H672 0.950 . S
C693 C692 1.373 . S
C693 C709 1.377 1_556 S
C694 C692 1.389 1_554 S
C694 C695 1.524 1_554 S
C694 C708 1.377 . S
C695 C694 1.524 1_556 S
C695 C696 1.397 . S
C695 C700 1.363 1_556 S
C696 H673 0.950 . S
C696 C695 1.397 . S
C696 C697 1.334 . S
C697 H674 0.950 . S
C697 C696 1.334 . S
C697 C698 1.287 . S
C698 C697 1.287 . S
C698 C699 1.524 1_556 S
C698 H717 0.913 . S
C699 H675 0.950 . S
C699 C698 1.524 1_554 S
C699 C700 1.415 . S
C700 H676 0.950 . S
C700 C695 1.363 1_554 S
C700 C699 1.415 . S
C701 H677 0.951 1_565 S
C701 C702 1.366 . S
C701 C703 1.388 . S
C702 C701 1.366 . S
C702 C706 1.385 . S
C703 H678 0.951 . S
C703 C701 1.388 . S
C703 C704 1.366 . S
C704 C703 1.366 . S
C704 C705 1.414 . S
C704 C707 1.499 . S
C705 H679 0.950 . S
C705 C704 1.414 . S
C705 C706 1.374 . S
C706 H680 0.950 . S
C706 C702 1.385 . S
C706 C705 1.374 . S
C707 C704 1.499 . S
C707 C708 1.373 . S
C707 C709 1.389 . S
C708 H681 0.950 . S
C708 C694 1.377 . S
C708 C707 1.373 . S
C709 C693 1.377 1_554 S
C709 C707 1.389 . S
C709 C710 1.524 . S
C710 C709 1.524 . S
C710 C711 1.397 . S
C710 C715 1.363 . S
C711 H682 0.950 . S
C711 C710 1.397 . S
C711 C712 1.334 . S
C712 H683 0.950 . S
C712 C711 1.334 . S
C712 C713 1.287 1_565 S
C713 C712 1.287 1_545 S
C713 C714 1.524 . S
C713 H716 0.999 . S
C714 H684 0.938 1_554 S
C714 C713 1.524 . S
C714 C715 1.415 1_545 S
C715 H685 0.950 1_554 S
C715 C710 1.363 . S
C715 C714 1.415 1_565 S
H716 C713 0.999 . S
H717 C698 0.913 . S
H718 C736 0.951 . S
H719 C738 0.951 . S
H720 C740 0.950 . S
H721 C741 0.950 . S
H722 C743 0.950 . S
H723 C746 0.950 . S
H724 C747 0.931 1_556 S
H725 C749 0.950 . S
H726 C750 0.950 . S
H727 C751 0.965 . S
H728 C753 0.951 . S
H729 C755 0.950 . S
H730 C756 0.950 . S
H731 C758 0.950 1_556 S
H732 C761 0.950 . S
H733 C762 0.950 . S
H734 C764 0.950 . S
H735 C765 0.950 . S
C736 H718 0.951 . S
C736 C737 1.366 . S
C736 C738 1.388 . S
C737 C736 1.366 . S
C737 C741 1.385 . S
C738 H719 0.951 . S
C738 C736 1.388 . S
C738 C739 1.366 . S
C739 C738 1.366 . S
C739 C740 1.414 . S
C739 C742 1.499 . S
C740 H720 0.950 . S
C740 C739 1.414 . S
C740 C741 1.374 . S
C741 H721 0.950 . S
C741 C737 1.385 . S
C741 C740 1.374 . S
C742 C739 1.499 . S
C742 C743 1.373 . S
C742 C744 1.389 . S
C743 H722 0.950 . S
C743 C742 1.373 . S
C743 C759 1.377 . S
C744 C742 1.389 . S
C744 C745 1.524 . S
C744 C758 1.377 . S
C745 C744 1.524 . S
C745 C746 1.397 . S
C745 C750 1.363 . S
C746 H723 0.950 . S
C746 C745 1.397 . S
C746 C747 1.351 . S
C747 H724 0.931 1_554 S
C747 C746 1.351 . S
C747 C748 1.287 . S
C748 C747 1.287 . S
C748 C749 1.542 . S
C748 H767 0.900 1_554 S
C749 H725 0.950 . S
C749 C748 1.542 . S
C749 C750 1.415 . S
C750 H726 0.950 . S
C750 C745 1.363 . S
C750 C749 1.415 . S
C751 H727 0.965 . S
C751 C752 1.367 . S
C751 C753 1.373 1_455 S
C752 C751 1.367 . S
C752 C756 1.385 1_455 S
C753 H728 0.951 . S
C753 C751 1.373 1_655 S
C753 C754 1.366 . S
C754 C753 1.366 . S
C754 C755 1.414 . S
C754 C757 1.499 1_556 S
C755 H729 0.950 . S
C755 C754 1.414 . S
C755 C756 1.374 . S
C756 H730 0.950 . S
C756 C752 1.385 1_655 S
C756 C755 1.374 . S
C757 C754 1.499 1_554 S
C757 C758 1.373 . S
C757 C759 1.389 . S
C758 H731 0.950 1_554 S
C758 C744 1.377 . S
C758 C757 1.373 . S
C759 C743 1.377 . S
C759 C757 1.389 . S
C759 C760 1.524 . S
C760 C759 1.524 . S
C760 C761 1.397 . S
C760 C765 1.363 . S
C761 H732 0.950 . S
C761 C760 1.397 . S
C761 C762 1.334 1_655 S
C762 H733 0.950 . S
C762 C761 1.334 1_455 S
C762 C763 1.287 . S
C763 C762 1.287 . S
C763 C764 1.524 . S
C763 H766 0.999 . S
C764 H734 0.950 . S
C764 C763 1.524 . S
C764 C765 1.415 1_455 S
C765 H735 0.950 . S
C765 C760 1.363 . S
C765 C764 1.415 1_655 S
H766 C763 0.999 . S
H767 C748 0.900 1_556 S
H768 C786 0.951 . S
H769 C788 0.951 . S
H770 C790 0.950 . S
H771 C791 0.950 . S
H772 C793 0.950 . S
H773 C796 0.950 . S
H774 C797 0.950 . S
H775 C799 0.950 . S
H776 C800 0.950 . S
H777 C801 0.951 . S
H778 C803 0.951 . S
H779 C805 0.950 . S
H780 C806 0.950 . S
H781 C808 0.950 . S
H782 C811 0.950 . S
H783 C812 0.950 1_545 S
H784 C814 0.950 . S
H785 C815 0.950 . S
C786 H768 0.951 . S
C786 C787 1.366 . S
C786 C788 1.388 . S
C787 C786 1.366 . S
C787 C791 1.385 . S
C788 H769 0.951 . S
C788 C786 1.388 . S
C788 C789 1.366 . S
C789 C788 1.366 . S
C789 C790 1.414 . S
C789 C792 1.499 . S
C790 H770 0.950 . S
C790 C789 1.414 . S
C790 C791 1.374 . S
C791 H771 0.950 . S
C791 C787 1.385 . S
C791 C790 1.374 . S
C792 C789 1.499 . S
C792 C793 1.373 . S
C792 C794 1.389 . S
C793 H772 0.950 . S
C793 C792 1.373 . S
C793 C809 1.377 . S
C794 C792 1.389 . S
C794 C795 1.524 . S
C794 C808 1.377 . S
C795 C794 1.524 . S
C795 C796 1.397 . S
C795 C800 1.363 . S
C796 H773 0.950 . S
C796 C795 1.397 . S
C796 C797 1.334 . S
C797 H774 0.950 . S
C797 C796 1.334 . S
C797 C798 1.287 . S
C798 C797 1.287 . S
C798 C799 1.524 . S
C798 H817 0.913 . S
C799 H775 0.950 . S
C799 C798 1.524 . S
C799 C800 1.415 . S
C800 H776 0.950 . S
C800 C795 1.363 . S
C800 C799 1.415 . S
C801 H777 0.951 . S
C801 C802 1.366 . S
C801 C803 1.388 . S
C802 C801 1.366 . S
C802 C806 1.385 . S
C803 H778 0.951 . S
C803 C801 1.388 . S
C803 C804 1.366 . S
C804 C803 1.366 . S
C804 C805 1.414 . S
C804 C807 1.499 . S
C805 H779 0.950 . S
C805 C804 1.414 . S
C805 C806 1.374 . S
C806 H780 0.950 . S
C806 C802 1.385 . S
C806 C805 1.374 . S
C807 C804 1.499 . S
C807 C808 1.373 . S
C807 C809 1.389 . S
C808 H781 0.950 . S
C808 C794 1.377 . S
C808 C807 1.373 . S
C809 C793 1.377 . S
C809 C807 1.389 . S
C809 C810 1.524 . S
C810 C809 1.524 . S
C810 C811 1.397 . S
C810 C815 1.363 . S
C811 H782 0.950 . S
C811 C810 1.397 . S
C811 C812 1.334 . S
C812 H783 0.950 1_565 S
C812 C811 1.334 . S
C812 C813 1.287 . S
C813 C812 1.287 . S
C813 C814 1.524 . S
C813 H816 0.999 1_565 S
C814 H784 0.950 . S
C814 C813 1.524 . S
C814 C815 1.415 . S
C815 H785 0.950 . S
C815 C810 1.363 . S
C815 C814 1.415 . S
H816 C813 0.999 1_545 S
H817 C798 0.913 . S
H818 C836 0.951 . S
H819 C838 0.951 . S
H820 C840 0.950 . S
H821 C841 0.950 1_455 S
H822 C843 0.950 . S
H823 C846 0.950 . S
H824 C847 0.950 . S
H825 C849 0.950 . S
H826 C850 0.950 . S
H827 C851 0.951 . S
H828 C853 0.951 . S
H829 C855 0.950 . S
H830 C856 0.950 . S
H831 C858 0.950 . S
H832 C861 0.950 . S
H833 C862 0.950 . S
H834 C864 0.950 . S
H835 C865 0.950 . S
C836 H818 0.951 . S
C836 C837 1.366 1_655 S
C836 C838 1.388 . S
C837 C836 1.366 1_455 S
C837 C841 1.385 1_455 S
C838 H819 0.951 . S
C838 C836 1.388 . S
C838 C839 1.366 . S
C839 C838 1.366 . S
C839 C840 1.414 . S
C839 C842 1.499 . S
C840 H820 0.950 . S
C840 C839 1.414 . S
C840 C841 1.374 . S
C841 H821 0.950 1_655 S
C841 C837 1.385 1_655 S
C841 C840 1.374 . S
C842 C839 1.499 . S
C842 C843 1.373 . S
C842 C844 1.389 . S
C843 H822 0.950 . S
C843 C842 1.373 . S
C843 C859 1.377 . S
C844 C842 1.389 . S
C844 C845 1.524 . S
C844 C858 1.377 . S
C845 C844 1.524 . S
C845 C846 1.397 . S
C845 C850 1.363 . S
C846 H823 0.950 . S
C846 C845 1.397 . S
C846 C847 1.334 . S
C847 H824 0.950 . S
C847 C846 1.334 . S
C847 C848 1.287 . S
C848 C847 1.287 . S
C848 C849 1.524 . S
C848 H867 0.913 . S
C849 H825 0.950 . S
C849 C848 1.524 . S
C849 C850 1.415 . S
C850 H826 0.950 . S
C850 C845 1.363 . S
C850 C849 1.415 . S
C851 H827 0.951 . S
C851 C852 1.366 . S
C851 C853 1.388 . S
C852 C851 1.366 . S
C852 C856 1.385 . S
C853 H828 0.951 . S
C853 C851 1.388 . S
C853 C854 1.366 . S
C854 C853 1.366 . S
C854 C855 1.414 . S
C854 C857 1.499 . S
C855 H829 0.950 . S
C855 C854 1.414 . S
C855 C856 1.374 . S
C856 H830 0.950 . S
C856 C852 1.385 . S
C856 C855 1.374 . S
C857 C854 1.499 . S
C857 C858 1.373 . S
C857 C859 1.389 . S
C858 H831 0.950 . S
C858 C844 1.377 . S
C858 C857 1.373 . S
C859 C843 1.377 . S
C859 C857 1.389 . S
C859 C860 1.524 . S
C860 C859 1.524 . S
C860 C861 1.397 . S
C860 C865 1.363 . S
C861 H832 0.950 . S
C861 C860 1.397 . S
C861 C862 1.334 . S
C862 H833 0.950 . S
C862 C861 1.334 . S
C862 C863 1.287 . S
C863 C862 1.287 . S
C863 C864 1.524 . S
C863 H866 0.999 . S
C864 H834 0.950 . S
C864 C863 1.524 . S
C864 C865 1.415 . S
C865 H835 0.950 . S
C865 C860 1.363 . S
C865 C864 1.415 . S
H866 C863 0.999 . S
H867 C848 0.913 . S
H868 C886 0.951 1_565 S
H869 C888 0.951 . S
H870 C890 0.950 . S
H871 C891 0.950 . S
H872 C893 0.950 . S
H873 C896 0.950 . S
H874 C897 0.950 . S
H875 C899 0.950 . S
H876 C900 0.950 . S
H877 C901 0.951 . S
H878 C903 0.951 . S
H879 C905 0.950 . S
H880 C906 0.950 . S
H881 C908 0.950 . S
H882 C911 0.950 . S
H883 C912 0.950 . S
H884 C914 0.950 . S
H885 C915 0.950 . S
C886 H868 0.951 1_545 S
C886 C887 1.366 . S
C886 C888 1.388 . S
C887 C886 1.366 . S
C887 C891 1.385 . S
C888 H869 0.951 . S
C888 C886 1.388 . S
C888 C889 1.366 . S
C889 C888 1.366 . S
C889 C890 1.414 . S
C889 C892 1.499 . S
C890 H870 0.950 . S
C890 C889 1.414 . S
C890 C891 1.374 . S
C891 H871 0.950 . S
C891 C887 1.385 . S
C891 C890 1.374 . S
C892 C889 1.499 . S
C892 C893 1.373 . S
C892 C894 1.389 . S
C893 H872 0.950 . S
C893 C892 1.373 . S
C893 C909 1.377 . S
C894 C892 1.389 . S
C894 C895 1.524 . S
C894 C908 1.377 . S
C895 C894 1.524 . S
C895 C896 1.397 . S
C895 C900 1.363 . S
C896 H873 0.950 . S
C896 C895 1.397 . S
C896 C897 1.334 1_545 S
C897 H874 0.950 . S
C897 C896 1.334 1_565 S
C897 C898 1.287 . S
C898 C897 1.287 . S
C898 C899 1.524 . S
C898 H917 0.913 . S
C899 H875 0.950 . S
C899 C898 1.524 . S
C899 C900 1.415 1_565 S
C900 H876 0.950 . S
C900 C895 1.363 . S
C900 C899 1.415 1_545 S
C901 H877 0.951 . S
C901 C902 1.366 . S
C901 C903 1.388 . S
C902 C901 1.366 . S
C902 C906 1.385 . S
C903 H878 0.951 . S
C903 C901 1.388 . S
C903 C904 1.366 . S
C904 C903 1.366 . S
C904 C905 1.414 . S
C904 C907 1.499 . S
C905 H879 0.950 . S
C905 C904 1.414 . S
C905 C906 1.374 . S
C906 H880 0.950 . S
C906 C902 1.385 . S
C906 C905 1.374 . S
C907 C904 1.499 . S
C907 C908 1.373 . S
C907 C909 1.389 . S
C908 H881 0.950 . S
C908 C894 1.377 . S
C908 C907 1.373 . S
C909 C893 1.377 . S
C909 C907 1.389 . S
C909 C910 1.524 . S
C910 C909 1.524 . S
C910 C911 1.397 . S
C910 C915 1.363 . S
C911 H882 0.950 . S
C911 C910 1.397 . S
C911 C912 1.334 . S
C912 H883 0.950 . S
C912 C911 1.334 . S
C912 C913 1.287 . S
C913 C912 1.287 . S
C913 C914 1.524 . S
C913 H916 0.999 . S
C914 H884 0.950 . S
C914 C913 1.524 . S
C914 C915 1.415 . S
C915 H885 0.950 . S
C915 C910 1.363 . S
C915 C914 1.415 . S
H916 C913 0.999 . S
H917 C898 0.913 . S
H918 C936 0.951 . S
H919 C938 0.951 . S
H920 C940 0.950 . S
H921 C941 0.950 . S
H922 C943 0.950 . S
H923 C946 0.950 . S
H924 C947 0.950 . S
H925 C949 0.950 . S
H926 C950 0.950 . S
H927 C951 0.951 . S
H928 C953 0.951 . S
H929 C955 0.950 . S
H930 C956 0.950 . S
H931 C958 0.950 . S
H932 C961 0.950 . S
H933 C962 0.950 . S
H934 C964 0.950 . S
H935 C965 0.950 . S
C936 H918 0.951 . S
C936 C937 1.366 1_455 S
C936 C938 1.388 . S
C937 C936 1.366 1_655 S
C937 C941 1.385 . S
C938 H919 0.951 . S
C938 C936 1.388 . S
C938 C939 1.366 . S
C939 C938 1.366 . S
C939 C940 1.414 . S
C939 C942 1.499 . S
C940 H920 0.950 . S
C940 C939 1.414 . S
C940 C941 1.374 1_455 S
C941 H921 0.950 . S
C941 C937 1.385 . S
C941 C940 1.374 1_655 S
C942 C939 1.499 . S
C942 C943 1.373 . S
C942 C944 1.389 . S
C943 H922 0.950 . S
C943 C942 1.373 . S
C943 C959 1.377 . S
C944 C942 1.389 . S
C944 C945 1.524 . S
C944 C958 1.377 . S
C945 C944 1.524 . S
C945 C946 1.397 . S
C945 C950 1.363 . S
C946 H923 0.950 . S
C946 C945 1.397 . S
C946 C947 1.334 1_455 S
C947 H924 0.950 . S
C947 C946 1.334 1_655 S
C947 C948 1.287 1_655 S
C948 C947 1.287 1_455 S
C948 C949 1.524 . S
C948 H967 0.913 1_455 S
C949 H925 0.950 . S
C949 C948 1.524 . S
C949 C950 1.415 . S
C950 H926 0.950 . S
C950 C945 1.363 . S
C950 C949 1.415 . S
C951 H927 0.951 . S
C951 C952 1.366 . S
C951 C953 1.388 . S
C952 C951 1.366 . S
C952 C956 1.385 . S
C953 H928 0.951 . S
C953 C951 1.388 . S
C953 C954 1.366 . S
C954 C953 1.366 . S
C954 C955 1.414 . S
C954 C957 1.499 . S
C955 H929 0.950 . S
C955 C954 1.414 . S
C955 C956 1.374 . S
C956 H930 0.950 . S
C956 C952 1.385 . S
C956 C955 1.374 . S
C957 C954 1.499 . S
C957 C958 1.373 . S
C957 C959 1.389 . S
C958 H931 0.950 . S
C958 C944 1.377 . S
C958 C957 1.373 . S
C959 C943 1.377 . S
C959 C957 1.389 . S
C959 C960 1.524 . S
C960 C959 1.524 . S
C960 C961 1.397 . S
C960 C965 1.363 . S
C961 H932 0.950 . S
C961 C960 1.397 . S
C961 C962 1.334 . S
C962 H933 0.950 . S
C962 C961 1.334 . S
C962 C963 1.287 . S
C963 C962 1.287 . S
C963 C964 1.524 . S
C963 H966 0.999 . S
C964 H934 0.950 . S
C964 C963 1.524 . S
C964 C965 1.415 . S
C965 H935 0.950 . S
C965 C960 1.363 . S
C965 C964 1.415 . S
H966 C963 0.999 . S
H967 C948 0.913 1_655 S
H968 C986 0.951 . S
H969 C988 0.951 . S
H970 C990 0.950 . S
H971 C991 0.950 . S
H972 C993 0.950 . S
H973 C996 0.950 . S
H974 C997 0.950 . S
H975 C999 0.950 . S
H976 C1000 0.950 . S
H977 C1001 0.951 . S
H978 C1003 0.951 . S
H979 C1005 0.950 . S
H980 C1006 0.950 . S
H981 C1008 0.950 . S
H982 C1011 0.950 . S
H983 C1012 0.950 . S
H984 C1014 0.950 . S
H985 C1015 0.950 . S
C986 H968 0.951 . S
C986 C987 1.366 . S
C986 C988 1.388 . S
C987 C986 1.366 . S
C987 C991 1.385 . S
C988 H969 0.951 . S
C988 C986 1.388 . S
C988 C989 1.366 . S
C989 C988 1.366 . S
C989 C990 1.414 . S
C989 C992 1.499 . S
C990 H970 0.950 . S
C990 C989 1.414 . S
C990 C991 1.374 . S
C991 H971 0.950 . S
C991 C987 1.385 . S
C991 C990 1.374 . S
C992 C989 1.499 . S
C992 C993 1.373 . S
C992 C994 1.389 . S
C993 H972 0.950 . S
C993 C992 1.373 . S
C993 C1009 1.377 . S
C994 C992 1.389 . S
C994 C995 1.524 . S
C994 C1008 1.377 . S
C995 C994 1.524 . S
C995 C996 1.397 . S
C995 C1000 1.363 . S
C996 H973 0.950 . S
C996 C995 1.397 . S
C996 C997 1.334 . S
C997 H974 0.950 . S
C997 C996 1.334 . S
C997 C998 1.287 . S
C998 C997 1.287 . S
C998 C999 1.524 . S
C998 H1017 0.913 . S
C999 H975 0.950 . S
C999 C998 1.524 . S
C999 C1000 1.415 . S
C1000 H976 0.950 . S
C1000 C995 1.363 . S
C1000 C999 1.415 . S
C1001 H977 0.951 . S
C1001 C1002 1.366 . S
C1001 C1003 1.388 . S
C1002 C1001 1.366 . S
C1002 C1006 1.385 . S
C1003 H978 0.951 . S
C1003 C1001 1.388 . S
C1003 C1004 1.366 . S
C1004 C1003 1.366 . S
C1004 C1005 1.414 . S
C1004 C1007 1.499 . S
C1005 H979 0.950 . S
C1005 C1004 1.414 . S
C1005 C1006 1.374 . S
C1006 H980 0.950 . S
C1006 C1002 1.385 . S
C1006 C1005 1.374 . S
C1007 C1004 1.499 . S
C1007 C1008 1.373 . S
C1007 C1009 1.389 . S
C1008 H981 0.950 . S
C1008 C994 1.377 . S
C1008 C1007 1.373 . S
C1009 C993 1.377 . S
C1009 C1007 1.389 . S
C1009 C1010 1.524 . S
C1010 C1009 1.524 . S
C1010 C1011 1.397 . S
C1010 C1015 1.363 . S
C1011 H982 0.950 . S
C1011 C1010 1.397 . S
C1011 C1012 1.334 . S
C1012 H983 0.950 . S
C1012 C1011 1.334 . S
C1012 C1013 1.287 . S
C1013 C1012 1.287 . S
C1013 C1014 1.524 . S
C1013 H1016 0.999 . S
C1014 H984 0.950 . S
C1014 C1013 1.524 . S
C1014 C1015 1.415 . S
C1015 H985 0.950 . S
C1015 C1010 1.363 . S
C1015 C1014 1.415 . S
H1016 C1013 0.999 . S
H1017 C998 0.913 . S
H1018 C1036 0.951 . S
H1019 C1038 0.951 . S
H1020 C1040 0.950 . S
H1021 C1041 0.950 . S
H1022 C1043 0.950 . S
H1023 C1046 0.950 . S
H1024 C1047 0.950 . S
H1025 C1049 0.950 . S
H1026 C1050 0.950 . S
H1027 C1051 0.951 . S
H1028 C1053 0.951 . S
H1029 C1055 0.950 . S
H1030 C1056 0.950 . S
H1031 C1058 0.950 . S
H1032 C1061 0.950 . S
H1033 C1062 0.950 . S
H1034 C1064 0.950 . S
H1035 C1065 0.950 . S
C1036 H1018 0.951 . S
C1036 C1037 1.366 . S
C1036 C1038 1.388 . S
C1037 C1036 1.366 . S
C1037 C1041 1.385 . S
C1038 H1019 0.951 . S
C1038 C1036 1.388 . S
C1038 C1039 1.366 . S
C1039 C1038 1.366 . S
C1039 C1040 1.414 . S
C1039 C1042 1.499 . S
C1040 H1020 0.950 . S
C1040 C1039 1.414 . S
C1040 C1041 1.374 . S
C1041 H1021 0.950 . S
C1041 C1037 1.385 . S
C1041 C1040 1.374 . S
C1042 C1039 1.499 . S
C1042 C1043 1.373 . S
C1042 C1044 1.389 . S
C1043 H1022 0.950 . S
C1043 C1042 1.373 . S
C1043 C1059 1.377 . S
C1044 C1042 1.389 . S
C1044 C1045 1.524 . S
C1044 C1058 1.377 . S
C1045 C1044 1.524 . S
C1045 C1046 1.397 . S
C1045 C1050 1.363 . S
C1046 H1023 0.950 . S
C1046 C1045 1.397 . S
C1046 C1047 1.334 . S
C1047 H1024 0.950 . S
C1047 C1046 1.334 . S
C1047 C1048 1.287 . S
C1048 C1047 1.287 . S
C1048 C1049 1.524 . S
C1048 H1067 0.913 . S
C1049 H1025 0.950 . S
C1049 C1048 1.524 . S
C1049 C1050 1.415 . S
C1050 H1026 0.950 . S
C1050 C1045 1.363 . S
C1050 C1049 1.415 . S
C1051 H1027 0.951 . S
C1051 C1052 1.366 . S
C1051 C1053 1.388 . S
C1052 C1051 1.366 . S
C1052 C1056 1.385 . S
C1053 H1028 0.951 . S
C1053 C1051 1.388 . S
C1053 C1054 1.366 . S
C1054 C1053 1.366 . S
C1054 C1055 1.414 . S
C1054 C1057 1.499 . S
C1055 H1029 0.950 . S
C1055 C1054 1.414 . S
C1055 C1056 1.374 . S
C1056 H1030 0.950 . S
C1056 C1052 1.385 . S
C1056 C1055 1.374 . S
C1057 C1054 1.499 . S
C1057 C1058 1.373 . S
C1057 C1059 1.389 . S
C1058 H1031 0.950 . S
C1058 C1044 1.377 . S
C1058 C1057 1.373 . S
C1059 C1043 1.377 . S
C1059 C1057 1.389 . S
C1059 C1060 1.524 . S
C1060 C1059 1.524 . S
C1060 C1061 1.397 . S
C1060 C1065 1.363 . S
C1061 H1032 0.950 . S
C1061 C1060 1.397 . S
C1061 C1062 1.334 . S
C1062 H1033 0.950 . S
C1062 C1061 1.334 . S
C1062 C1063 1.287 . S
C1063 C1062 1.287 . S
C1063 C1064 1.524 . S
C1063 H1066 0.999 . S
C1064 H1034 0.950 . S
C1064 C1063 1.524 . S
C1064 C1065 1.415 . S
C1065 H1035 0.950 . S
C1065 C1060 1.363 . S
C1065 C1064 1.415 . S
H1066 C1063 0.999 . S
H1067 C1048 0.913 . S
H1068 C1086 0.951 . S
H1069 C1088 0.951 . S
H1070 C1090 0.950 . S
H1071 C1091 0.950 . S
H1072 C1093 0.950 . S
H1073 C1096 0.950 . S
H1074 C1097 0.950 . S
H1075 C1099 0.950 . S
H1076 C1100 0.950 . S
H1077 C1101 0.951 . S
H1078 C1103 0.951 . S
H1079 C1105 0.950 . S
H1080 C1106 0.950 . S
H1081 C1108 0.950 . S
H1082 C1111 0.950 . S
H1083 C1112 0.950 . S
H1084 C1114 0.950 . S
H1085 C1115 0.950 . S
C1086 H1068 0.951 . S
C1086 C1087 1.366 . S
C1086 C1088 1.388 . S
C1087 C1086 1.366 . S
C1087 C1091 1.385 . S
C1088 H1069 0.951 . S
C1088 C1086 1.388 . S
C1088 C1089 1.366 . S
C1089 C1088 1.366 . S
C1089 C1090 1.414 . S
C1089 C1092 1.499 . S
C1090 H1070 0.950 . S
C1090 C1089 1.414 . S
C1090 C1091 1.374 . S
C1091 H1071 0.950 . S
C1091 C1087 1.385 . S
C1091 C1090 1.374 . S
C1092 C1089 1.499 . S
C1092 C1093 1.373 . S
C1092 C1094 1.389 . S
C1093 H1072 0.950 . S
C1093 C1092 1.373 . S
C1093 C1109 1.377 . S
C1094 C1092 1.389 . S
C1094 C1095 1.524 . S
C1094 C1108 1.377 . S
C1095 C1094 1.524 . S
C1095 C1096 1.397 . S
C1095 C1100 1.363 . S
C1096 H1073 0.950 . S
C1096 C1095 1.397 . S
C1096 C1097 1.334 . S
C1097 H1074 0.950 . S
C1097 C1096 1.334 . S
C1097 C1098 1.287 . S
C1098 C1097 1.287 . S
C1098 C1099 1.524 . S
C1098 H1117 0.913 . S
C1099 H1075 0.950 . S
C1099 C1098 1.524 . S
C1099 C1100 1.415 . S
C1100 H1076 0.950 . S
C1100 C1095 1.363 . S
C1100 C1099 1.415 . S
C1101 H1077 0.951 . S
C1101 C1102 1.366 . S
C1101 C1103 1.388 . S
C1102 C1101 1.366 . S
C1102 C1106 1.385 . S
C1103 H1078 0.951 . S
C1103 C1101 1.388 . S
C1103 C1104 1.366 . S
C1104 C1103 1.366 . S
C1104 C1105 1.414 . S
C1104 C1107 1.499 . S
C1105 H1079 0.950 . S
C1105 C1104 1.414 . S
C1105 C1106 1.374 . S
C1106 H1080 0.950 . S
C1106 C1102 1.385 . S
C1106 C1105 1.374 . S
C1107 C1104 1.499 . S
C1107 C1108 1.373 . S
C1107 C1109 1.389 . S
C1108 H1081 0.950 . S
C1108 C1094 1.377 . S
C1108 C1107 1.373 . S
C1109 C1093 1.377 . S
C1109 C1107 1.389 . S
C1109 C1110 1.524 . S
C1110 C1109 1.524 . S
C1110 C1111 1.397 . S
C1110 C1115 1.363 . S
C1111 H1082 0.950 . S
C1111 C1110 1.397 . S
C1111 C1112 1.334 . S
C1112 H1083 0.950 . S
C1112 C1111 1.334 . S
C1112 C1113 1.287 . S
C1113 C1112 1.287 . S
C1113 C1114 1.524 . S
C1113 H1116 0.999 . S
C1114 H1084 0.950 . S
C1114 C1113 1.524 . S
C1114 C1115 1.415 . S
C1115 H1085 0.950 . S
C1115 C1110 1.363 . S
C1115 C1114 1.415 . S
H1116 C1113 0.999 . S
H1117 C1098 0.913 . S
H1118 C1136 0.951 . S
H1119 C1138 0.951 . S
H1120 C1140 0.950 . S
H1121 C1141 0.950 . S
H1122 C1143 0.950 . S
H1123 C1146 0.950 . S
H1124 C1147 0.950 . S
H1125 C1149 0.950 . S
H1126 C1150 0.950 . S
H1127 C1151 0.951 . S
H1128 C1153 0.951 . S
H1129 C1155 0.950 . S
H1130 C1156 0.950 . S
H1131 C1158 0.950 . S
H1132 C1161 0.950 . S
H1133 C1162 0.950 . S
H1134 C1164 0.950 . S
H1135 C1165 0.950 . S
C1136 H1118 0.951 . S
C1136 C1137 1.366 . S
C1136 C1138 1.388 . S
C1137 C1136 1.366 . S
C1137 C1141 1.385 . S
C1138 H1119 0.951 . S
C1138 C1136 1.388 . S
C1138 C1139 1.366 . S
C1139 C1138 1.366 . S
C1139 C1140 1.414 . S
C1139 C1142 1.499 . S
C1140 H1120 0.950 . S
C1140 C1139 1.414 . S
C1140 C1141 1.374 . S
C1141 H1121 0.950 . S
C1141 C1137 1.385 . S
C1141 C1140 1.374 . S
C1142 C1139 1.499 . S
C1142 C1143 1.373 . S
C1142 C1144 1.389 . S
C1143 H1122 0.950 . S
C1143 C1142 1.373 . S
C1143 C1159 1.377 . S
C1144 C1142 1.389 . S
C1144 C1145 1.524 . S
C1144 C1158 1.377 . S
C1145 C1144 1.524 . S
C1145 C1146 1.397 . S
C1145 C1150 1.363 . S
C1146 H1123 0.950 . S
C1146 C1145 1.397 . S
C1146 C1147 1.334 . S
C1147 H1124 0.950 . S
C1147 C1146 1.334 . S
C1147 C1148 1.287 . S
C1148 C1147 1.287 . S
C1148 C1149 1.524 . S
C1148 H1167 0.913 . S
C1149 H1125 0.950 . S
C1149 C1148 1.524 . S
C1149 C1150 1.415 . S
C1150 H1126 0.950 . S
C1150 C1145 1.363 . S
C1150 C1149 1.415 . S
C1151 H1127 0.951 . S
C1151 C1152 1.366 . S
C1151 C1153 1.388 . S
C1152 C1151 1.366 . S
C1152 C1156 1.385 . S
C1153 H1128 0.951 . S
C1153 C1151 1.388 . S
C1153 C1154 1.366 . S
C1154 C1153 1.366 . S
C1154 C1155 1.414 . S
C1154 C1157 1.499 . S
C1155 H1129 0.950 . S
C1155 C1154 1.414 . S
C1155 C1156 1.374 . S
C1156 H1130 0.950 . S
C1156 C1152 1.385 . S
C1156 C1155 1.374 . S
C1157 C1154 1.499 . S
C1157 C1158 1.373 . S
C1157 C1159 1.389 . S
C1158 H1131 0.950 . S
C1158 C1144 1.377 . S
C1158 C1157 1.373 . S
C1159 C1143 1.377 . S
C1159 C1157 1.389 . S
C1159 C1160 1.524 . S
C1160 C1159 1.524 . S
C1160 C1161 1.397 . S
C1160 C1165 1.363 . S
C1161 H1132 0.950 . S
C1161 C1160 1.397 . S
C1161 C1162 1.334 . S
C1162 H1133 0.950 . S
C1162 C1161 1.334 . S
C1162 C1163 1.287 . S
C1163 C1162 1.287 . S
C1163 C1164 1.524 . S
C1163 H1166 0.999 . S
C1164 H1134 0.950 . S
C1164 C1163 1.524 . S
C1164 C1165 1.415 . S
C1165 H1135 0.950 . S
C1165 C1160 1.363 . S
C1165 C1164 1.415 . S
H1166 C1163 0.999 . S
H1167 C1148 0.913 . S
H1168 C1186 0.951 . S
H1169 C1188 0.951 . S
H1170 C1190 0.950 . S
H1171 C1191 0.950 . S
H1172 C1193 0.950 . S
H1173 C1196 0.950 . S
H1174 C1197 0.950 . S
H1175 C1199 0.950 . S
H1176 C1200 0.950 . S
H1177 C1201 0.951 . S
H1178 C1203 0.951 . S
H1179 C1205 0.950 . S
H1180 C1206 0.950 . S
H1181 C1208 0.950 . S
H1182 C1211 0.950 . S
H1183 C1212 0.950 . S
H1184 C1214 0.950 . S
H1185 C1215 0.950 . S
C1186 H1168 0.951 . S
C1186 C1187 1.366 . S
C1186 C1188 1.388 . S
C1187 C1186 1.366 . S
C1187 C1191 1.385 . S
C1188 H1169 0.951 . S
C1188 C1186 1.388 . S
C1188 C1189 1.366 . S
C1189 C1188 1.366 . S
C1189 C1190 1.414 . S
C1189 C1192 1.499 . S
C1190 H1170 0.950 . S
C1190 C1189 1.414 . S
C1190 C1191 1.374 . S
C1191 H1171 0.950 . S
C1191 C1187 1.385 . S
C1191 C1190 1.374 . S
C1192 C1189 1.499 . S
C1192 C1193 1.373 . S
C1192 C1194 1.389 . S
C1193 H1172 0.950 . S
C1193 C1192 1.373 . S
C1193 C1209 1.377 . S
C1194 C1192 1.389 . S
C1194 C1195 1.524 . S
C1194 C1208 1.377 . S
C1195 C1194 1.524 . S
C1195 C1196 1.397 . S
C1195 C1200 1.363 . S
C1196 H1173 0.950 . S
C1196 C1195 1.397 . S
C1196 C1197 1.334 . S
C1197 H1174 0.950 . S
C1197 C1196 1.334 . S
C1197 C1198 1.287 . S
C1198 C1197 1.287 . S
C1198 C1199 1.524 . S
C1198 H1217 0.913 . S
C1199 H1175 0.950 . S
C1199 C1198 1.524 . S
C1199 C1200 1.415 . S
C1200 H1176 0.950 . S
C1200 C1195 1.363 . S
C1200 C1199 1.415 . S
C1201 H1177 0.951 . S
C1201 C1202 1.366 . S
C1201 C1203 1.388 . S
C1202 C1201 1.366 . S
C1202 C1206 1.385 . S
C1203 H1178 0.951 . S
C1203 C1201 1.388 . S
C1203 C1204 1.366 . S
C1204 C1203 1.366 . S
C1204 C1205 1.414 . S
C1204 C1207 1.499 . S
C1205 H1179 0.950 . S
C1205 C1204 1.414 . S
C1205 C1206 1.374 . S
C1206 H1180 0.950 . S
C1206 C1202 1.385 . S
C1206 C1205 1.374 . S
C1207 C1204 1.499 . S
C1207 C1208 1.373 . S
C1207 C1209 1.389 . S
C1208 H1181 0.950 . S
C1208 C1194 1.377 . S
C1208 C1207 1.373 . S
C1209 C1193 1.377 . S
C1209 C1207 1.389 . S
C1209 C1210 1.524 . S
C1210 C1209 1.524 . S
C1210 C1211 1.397 . S
C1210 C1215 1.363 . S
C1211 H1182 0.950 . S
C1211 C1210 1.397 . S
C1211 C1212 1.334 . S
C1212 H1183 0.950 . S
C1212 C1211 1.334 . S
C1212 C1213 1.287 . S
C1213 C1212 1.287 . S
C1213 C1214 1.524 . S
C1213 H1216 0.999 . S
C1214 H1184 0.950 . S
C1214 C1213 1.524 . S
C1214 C1215 1.415 . S
C1215 H1185 0.950 . S
C1215 C1210 1.363 . S
C1215 C1214 1.415 . S
H1216 C1213 0.999 . S
H1217 C1198 0.913 . S
H1218 C1236 0.951 . S
H1219 C1238 0.951 . S
H1220 C1240 0.950 . S
H1221 C1241 0.950 . S
H1222 C1243 0.950 . S
H1223 C1246 0.950 . S
H1224 C1247 0.950 . S
H1225 C1249 0.950 . S
H1226 C1250 0.950 . S
H1227 C1251 0.951 . S
H1228 C1253 0.951 . S
H1229 C1255 0.950 . S
H1230 C1256 0.950 . S
H1231 C1258 0.950 . S
H1232 C1261 0.950 . S
H1233 C1262 0.950 . S
H1234 C1264 0.950 . S
H1235 C1265 0.950 . S
C1236 H1218 0.951 . S
C1236 C1237 1.366 . S
C1236 C1238 1.388 . S
C1237 C1236 1.366 . S
C1237 C1241 1.385 . S
C1238 H1219 0.951 . S
C1238 C1236 1.388 . S
C1238 C1239 1.366 . S
C1239 C1238 1.366 . S
C1239 C1240 1.414 . S
C1239 C1242 1.499 . S
C1240 H1220 0.950 . S
C1240 C1239 1.414 . S
C1240 C1241 1.374 . S
C1241 H1221 0.950 . S
C1241 C1237 1.385 . S
C1241 C1240 1.374 . S
C1242 C1239 1.499 . S
C1242 C1243 1.373 . S
C1242 C1244 1.389 . S
C1243 H1222 0.950 . S
C1243 C1242 1.373 . S
C1243 C1259 1.377 . S
C1244 C1242 1.389 . S
C1244 C1245 1.524 . S
C1244 C1258 1.377 . S
C1245 C1244 1.524 . S
C1245 C1246 1.397 . S
C1245 C1250 1.363 . S
C1246 H1223 0.950 . S
C1246 C1245 1.397 . S
C1246 C1247 1.334 . S
C1247 H1224 0.950 . S
C1247 C1246 1.334 . S
C1247 C1248 1.287 . S
C1248 C1247 1.287 . S
C1248 C1249 1.524 . S
C1248 H1267 0.913 . S
C1249 H1225 0.950 . S
C1249 C1248 1.524 . S
C1249 C1250 1.415 . S
C1250 H1226 0.950 . S
C1250 C1245 1.363 . S
C1250 C1249 1.415 . S
C1251 H1227 0.951 . S
C1251 C1252 1.366 . S
C1251 C1253 1.388 . S
C1252 C1251 1.366 . S
C1252 C1256 1.385 . S
C1253 H1228 0.951 . S
C1253 C1251 1.388 . S
C1253 C1254 1.366 . S
C1254 C1253 1.366 . S
C1254 C1255 1.414 . S
C1254 C1257 1.499 . S
C1255 H1229 0.950 . S
C1255 C1254 1.414 . S
C1255 C1256 1.374 . S
C1256 H1230 0.950 . S
C1256 C1252 1.385 . S
C1256 C1255 1.374 . S
C1257 C1254 1.499 . S
C1257 C1258 1.373 . S
C1257 C1259 1.389 . S
C1258 H1231 0.950 . S
C1258 C1244 1.377 . S
C1258 C1257 1.373 . S
C1259 C1243 1.377 . S
C1259 C1257 1.389 . S
C1259 C1260 1.524 . S
C1260 C1259 1.524 . S
C1260 C1261 1.397 . S
C1260 C1265 1.363 . S
C1261 H1232 0.950 . S
C1261 C1260 1.397 . S
C1261 C1262 1.334 . S
C1262 H1233 0.950 . S
C1262 C1261 1.334 . S
C1262 C1263 1.287 . S
C1263 C1262 1.287 . S
C1263 C1264 1.524 . S
C1263 H1266 0.999 . S
C1264 H1234 0.950 . S
C1264 C1263 1.524 . S
C1264 C1265 1.415 . S
C1265 H1235 0.950 . S
C1265 C1260 1.363 . S
C1265 C1264 1.415 . S
H1266 C1263 0.999 . S
H1267 C1248 0.913 . S
H1268 C1286 0.951 . S
H1269 C1288 0.951 . S
H1270 C1290 0.950 . S
H1271 C1291 0.950 . S
H1272 C1293 0.950 . S
H1273 C1296 0.950 . S
H1274 C1297 0.950 . S
H1275 C1299 0.950 . S
H1276 C1300 0.950 . S
H1277 C1301 0.951 . S
H1278 C1303 0.951 . S
H1279 C1305 0.950 . S
H1280 C1306 0.950 . S
H1281 C1308 0.950 . S
H1282 C1311 0.950 . S
H1283 C1312 0.950 . S
H1284 C1314 0.950 . S
H1285 C1315 0.950 . S
C1286 H1268 0.951 . S
C1286 C1287 1.366 . S
C1286 C1288 1.388 . S
C1287 C1286 1.366 . S
C1287 C1291 1.385 . S
C1288 H1269 0.951 . S
C1288 C1286 1.388 . S
C1288 C1289 1.366 . S
C1289 C1288 1.366 . S
C1289 C1290 1.414 . S
C1289 C1292 1.499 . S
C1290 H1270 0.950 . S
C1290 C1289 1.414 . S
C1290 C1291 1.374 . S
C1291 H1271 0.950 . S
C1291 C1287 1.385 . S
C1291 C1290 1.374 . S
C1292 C1289 1.499 . S
C1292 C1293 1.373 . S
C1292 C1294 1.389 . S
C1293 H1272 0.950 . S
C1293 C1292 1.373 . S
C1293 C1309 1.377 . S
C1294 C1292 1.389 . S
C1294 C1295 1.524 . S
C1294 C1308 1.377 . S
C1295 C1294 1.524 . S
C1295 C1296 1.397 . S
C1295 C1300 1.363 . S
C1296 H1273 0.950 . S
C1296 C1295 1.397 . S
C1296 C1297 1.334 . S
C1297 H1274 0.950 . S
C1297 C1296 1.334 . S
C1297 C1298 1.287 . S
C1298 C1297 1.287 . S
C1298 C1299 1.524 . S
C1298 H1317 0.913 . S
C1299 H1275 0.950 . S
C1299 C1298 1.524 . S
C1299 C1300 1.415 . S
C1300 H1276 0.950 . S
C1300 C1295 1.363 . S
C1300 C1299 1.415 . S
C1301 H1277 0.951 . S
C1301 C1302 1.366 . S
C1301 C1303 1.388 . S
C1302 C1301 1.366 . S
C1302 C1306 1.385 . S
C1303 H1278 0.951 . S
C1303 C1301 1.388 . S
C1303 C1304 1.366 . S
C1304 C1303 1.366 . S
C1304 C1305 1.414 . S
C1304 C1307 1.499 . S
C1305 H1279 0.950 . S
C1305 C1304 1.414 . S
C1305 C1306 1.374 . S
C1306 H1280 0.950 . S
C1306 C1302 1.385 . S
C1306 C1305 1.374 . S
C1307 C1304 1.499 . S
C1307 C1308 1.373 . S
C1307 C1309 1.389 . S
C1308 H1281 0.950 . S
C1308 C1294 1.377 . S
C1308 C1307 1.373 . S
C1309 C1293 1.377 . S
C1309 C1307 1.389 . S
C1309 C1310 1.524 . S
C1310 C1309 1.524 . S
C1310 C1311 1.397 . S
C1310 C1315 1.363 . S
C1311 H1282 0.950 . S
C1311 C1310 1.397 . S
C1311 C1312 1.334 . S
C1312 H1283 0.950 . S
C1312 C1311 1.334 . S
C1312 C1313 1.287 . S
C1313 C1312 1.287 . S
C1313 C1314 1.524 . S
C1313 H1316 0.999 . S
C1314 H1284 0.950 . S
C1314 C1313 1.524 . S
C1314 C1315 1.415 . S
C1315 H1285 0.950 . S
C1315 C1310 1.363 . S
C1315 C1314 1.415 . S
H1316 C1313 0.999 . S
H1317 C1298 0.913 . S
H1318 C1336 0.951 . S
H1319 C1338 0.951 . S
H1320 C1340 0.950 . S
H1321 C1341 0.950 . S
H1322 C1343 0.950 . S
H1323 C1346 0.950 . S
H1324 C1347 0.950 . S
H1325 C1349 0.950 . S
H1326 C1350 0.950 . S
H1327 C1351 0.951 . S
H1328 C1353 0.951 . S
H1329 C1355 0.950 . S
H1330 C1356 0.950 . S
H1331 C1358 0.950 . S
H1332 C1361 0.950 . S
H1333 C1362 0.950 . S
H1334 C1364 0.950 . S
H1335 C1365 0.950 . S
C1336 H1318 0.951 . S
C1336 C1337 1.366 . S
C1336 C1338 1.388 . S
C1337 C1336 1.366 . S
C1337 C1341 1.385 . S
C1338 H1319 0.951 . S
C1338 C1336 1.388 . S
C1338 C1339 1.366 . S
C1339 C1338 1.366 . S
C1339 C1340 1.414 . S
C1339 C1342 1.499 . S
C1340 H1320 0.950 . S
C1340 C1339 1.414 . S
C1340 C1341 1.374 . S
C1341 H1321 0.950 . S
C1341 C1337 1.385 . S
C1341 C1340 1.374 . S
C1342 C1339 1.499 . S
C1342 C1343 1.373 . S
C1342 C1344 1.389 . S
C1343 H1322 0.950 . S
C1343 C1342 1.373 . S
C1343 C1359 1.377 . S
C1344 C1342 1.389 . S
C1344 C1345 1.524 . S
C1344 C1358 1.377 . S
C1345 C1344 1.524 . S
C1345 C1346 1.397 . S
C1345 C1350 1.363 . S
C1346 H1323 0.950 . S
C1346 C1345 1.397 . S
C1346 C1347 1.334 . S
C1347 H1324 0.950 . S
C1347 C1346 1.334 . S
C1347 C1348 1.287 . S
C1348 C1347 1.287 . S
C1348 C1349 1.524 . S
C1348 H1367 0.913 . S
C1349 H1325 0.950 . S
C1349 C1348 1.524 . S
C1349 C1350 1.415 . S
C1350 H1326 0.950 . S
C1350 C1345 1.363 . S
C1350 C1349 1.415 . S
C1351 H1327 0.951 . S
C1351 C1352 1.366 . S
C1351 C1353 1.388 . S
C1352 C1351 1.366 . S
C1352 C1356 1.385 . S
C1353 H1328 0.951 . S
C1353 C1351 1.388 . S
C1353 C1354 1.366 . S
C1354 C1353 1.366 . S
C1354 C1355 1.414 . S
C1354 C1357 1.499 . S
C1355 H1329 0.950 . S
C1355 C1354 1.414 . S
C1355 C1356 1.374 . S
C1356 H1330 0.950 . S
C1356 C1352 1.385 . S
C1356 C1355 1.374 . S
C1357 C1354 1.499 . S
C1357 C1358 1.373 . S
C1357 C1359 1.389 . S
C1358 H1331 0.950 . S
C1358 C1344 1.377 . S
C1358 C1357 1.373 . S
C1359 C1343 1.377 . S
C1359 C1357 1.389 . S
C1359 C1360 1.524 . S
C1360 C1359 1.524 . S
C1360 C1361 1.397 . S
C1360 C1365 1.363 . S
C1361 H1332 0.950 . S
C1361 C1360 1.397 . S
C1361 C1362 1.334 . S
C1362 H1333 0.950 . S
C1362 C1361 1.334 . S
C1362 C1363 1.287 . S
C1363 C1362 1.287 . S
C1363 C1364 1.524 . S
C1363 H1366 0.999 . S
C1364 H1334 0.950 . S
C1364 C1363 1.524 . S
C1364 C1365 1.415 . S
C1365 H1335 0.950 . S
C1365 C1360 1.363 . S
C1365 C1364 1.415 . S
H1366 C1363 0.999 . S
H1367 C1348 0.913 . S
H1368 C1386 0.951 . S
H1369 C1388 0.951 . S
H1370 C1390 0.950 . S
H1371 C1391 0.950 . S
H1372 C1393 0.950 . S
H1373 C1396 0.950 . S
H1374 C1397 0.950 . S
H1375 C1399 0.950 . S
H1376 C1400 0.950 . S
H1377 C1401 0.951 . S
H1378 C1403 0.951 . S
H1379 C1405 0.950 . S
H1380 C1406 0.950 . S
H1381 C1408 0.950 . S
H1382 C1411 0.950 . S
H1383 C1412 0.950 . S
H1384 C1414 0.950 . S
H1385 C1415 0.950 . S
C1386 H1368 0.951 . S
C1386 C1387 1.366 . S
C1386 C1388 1.388 . S
C1387 C1386 1.366 . S
C1387 C1391 1.385 . S
C1388 H1369 0.951 . S
C1388 C1386 1.388 . S
C1388 C1389 1.366 . S
C1389 C1388 1.366 . S
C1389 C1390 1.414 . S
C1389 C1392 1.499 . S
C1390 H1370 0.950 . S
C1390 C1389 1.414 . S
C1390 C1391 1.374 . S
C1391 H1371 0.950 . S
C1391 C1387 1.385 . S
C1391 C1390 1.374 . S
C1392 C1389 1.499 . S
C1392 C1393 1.373 . S
C1392 C1394 1.389 . S
C1393 H1372 0.950 . S
C1393 C1392 1.373 . S
C1393 C1409 1.377 . S
C1394 C1392 1.389 . S
C1394 C1395 1.524 . S
C1394 C1408 1.377 . S
C1395 C1394 1.524 . S
C1395 C1396 1.397 . S
C1395 C1400 1.363 . S
C1396 H1373 0.950 . S
C1396 C1395 1.397 . S
C1396 C1397 1.334 . S
C1397 H1374 0.950 . S
C1397 C1396 1.334 . S
C1397 C1398 1.287 . S
C1398 C1397 1.287 . S
C1398 C1399 1.524 . S
C1398 H1417 0.913 . S
C1399 H1375 0.950 . S
C1399 C1398 1.524 . S
C1399 C1400 1.415 . S
C1400 H1376 0.950 . S
C1400 C1395 1.363 . S
C1400 C1399 1.415 . S
C1401 H1377 0.951 . S
C1401 C1402 1.366 . S
C1401 C1403 1.388 . S
C1402 C1401 1.366 . S
C1402 C1406 1.385 . S
C1403 H1378 0.951 . S
C1403 C1401 1.388 . S
C1403 C1404 1.366 . S
C1404 C1403 1.366 . S
C1404 C1405 1.414 . S
C1404 C1407 1.499 . S
C1405 H1379 0.950 . S
C1405 C1404 1.414 . S
C1405 C1406 1.374 . S
C1406 H1380 0.950 . S
C1406 C1402 1.385 . S
C1406 C1405 1.374 . S
C1407 C1404 1.499 . S
C1407 C1408 1.373 . S
C1407 C1409 1.389 . S
C1408 H1381 0.950 . S
C1408 C1394 1.377 . S
C1408 C1407 1.373 . S
C1409 C1393 1.377 . S
C1409 C1407 1.389 . S
C1409 C1410 1.524 . S
C1410 C1409 1.524 . S
C1410 C1411 1.397 . S
C1410 C1415 1.363 . S
C1411 H1382 0.950 . S
C1411 C1410 1.397 . S
C1411 C1412 1.334 . S
C1412 H1383 0.950 . S
C1412 C1411 1.334 . S
C1412 C1413 1.287 . S
C1413 C1412 1.287 . S
C1413 C1414 1.524 . S
C1413 H1416 0.999 . S
C1414 H1384 0.950 . S
C1414 C1413 1.524 . S
C1414 C1415 1.415 . S
C1415 H1385 0.950 . S
C1415 C1410 1.363 . S
C1415 C1414 1.415 . S
H1416 C1413 0.999 . S
H1417 C1398 0.913 . S
H1418 C1436 0.951 . S
H1419 C1438 0.951 . S
H1420 C1440 0.950 . S
H1421 C1441 0.950 . S
H1422 C1443 0.950 . S
H1423 C1446 0.950 . S
H1424 C1447 0.950 . S
H1425 C1449 0.950 . S
H1426 C1450 0.950 . S
H1427 C1451 0.951 . S
H1428 C1453 0.951 . S
H1429 C1455 0.950 . S
H1430 C1456 0.950 . S
H1431 C1458 0.950 . S
H1432 C1461 0.950 . S
H1433 C1462 0.950 . S
H1434 C1464 0.950 . S
H1435 C1465 0.950 . S
C1436 H1418 0.951 . S
C1436 C1437 1.366 . S
C1436 C1438 1.388 . S
C1437 C1436 1.366 . S
C1437 C1441 1.385 . S
C1438 H1419 0.951 . S
C1438 C1436 1.388 . S
C1438 C1439 1.366 . S
C1439 C1438 1.366 . S
C1439 C1440 1.414 . S
C1439 C1442 1.499 . S
C1440 H1420 0.950 . S
C1440 C1439 1.414 . S
C1440 C1441 1.374 . S
C1441 H1421 0.950 . S
C1441 C1437 1.385 . S
C1441 C1440 1.374 . S
C1442 C1439 1.499 . S
C1442 C1443 1.373 . S
C1442 C1444 1.389 . S
C1443 H1422 0.950 . S
C1443 C1442 1.373 . S
C1443 C1459 1.377 . S
C1444 C1442 1.389 . S
C1444 C1445 1.524 . S
C1444 C1458 1.377 . S
C1445 C1444 1.524 . S
C1445 C1446 1.397 . S
C1445 C1450 1.363 . S
C1446 H1423 0.950 . S
C1446 C1445 1.397 . S
C1446 C1447 1.334 . S
C1447 H1424 0.950 . S
C1447 C1446 1.334 . S
C1447 C1448 1.287 . S
C1448 C1447 1.287 . S
C1448 C1449 1.524 . S
C1448 H1467 0.913 . S
C1449 H1425 0.950 . S
C1449 C1448 1.524 . S
C1449 C1450 1.415 . S
C1450 H1426 0.950 . S
C1450 C1445 1.363 . S
C1450 C1449 1.415 . S
C1451 H1427 0.951 . S
C1451 C1452 1.366 . S
C1451 C1453 1.388 . S
C1452 C1451 1.366 . S
C1452 C1456 1.385 . S
C1453 H1428 0.951 . S
C1453 C1451 1.388 . S
C1453 C1454 1.366 . S
C1454 C1453 1.366 . S
C1454 C1455 1.414 . S
C1454 C1457 1.499 . S
C1455 H1429 0.950 . S
C1455 C1454 1.414 . S
C1455 C1456 1.374 . S
C1456 H1430 0.950 . S
C1456 C1452 1.385 . S
C1456 C1455 1.374 . S
C1457 C1454 1.499 . S
C1457 C1458 1.373 . S
C1457 C1459 1.389 . S
C1458 H1431 0.950 . S
C1458 C1444 1.377 . S
C1458 C1457 1.373 . S
C1459 C1443 1.377 . S
C1459 C1457 1.389 . S
C1459 C1460 1.524 . S
C1460 C1459 1.524 . S
C1460 C1461 1.397 . S
C1460 C1465 1.363 . S
C1461 H1432 0.950 . S
C1461 C1460 1.397 . S
C1461 C1462 1.334 . S
C1462 H1433 0.950 . S
C1462 C1461 1.334 . S
C1462 C1463 1.287 . S
C1463 C1462 1.287 . S
C1463 C1464 1.524 . S
C1463 H1466 0.999 . S
C1464 H1434 0.950 . S
C1464 C1463 1.524 . S
C1464 C1465 1.415 . S
C1465 H1435 0.950 . S
C1465 C1460 1.363 . S
C1465 C1464 1.415 . S
H1466 C1463 0.999 . S
H1467 C1448 0.913 . S
H1468 C1486 0.951 . S
H1469 C1488 0.951 . S
H1470 C1490 0.950 . S
H1471 C1491 0.950 . S
H1472 C1493 0.950 . S
H1473 C1496 0.950 . S
H1474 C1497 0.950 . S
H1475 C1499 0.950 . S
H1476 C1500 0.950 . S
H1477 C1501 0.951 . S
H1478 C1503 0.951 . S
H1479 C1505 0.950 . S
H1480 C1506 0.950 . S
H1481 C1508 0.950 . S
H1482 C1511 0.950 . S
H1483 C1512 0.950 . S
H1484 C1514 0.950 . S
H1485 C1515 0.950 . S
C1486 H1468 0.951 . S
C1486 C1487 1.366 . S
C1486 C1488 1.388 . S
C1487 C1486 1.366 . S
C1487 C1491 1.385 . S
C1488 H1469 0.951 . S
C1488 C1486 1.388 . S
C1488 C1489 1.366 . S
C1489 C1488 1.366 . S
C1489 C1490 1.414 . S
C1489 C1492 1.499 . S
C1490 H1470 0.950 . S
C1490 C1489 1.414 . S
C1490 C1491 1.374 . S
C1491 H1471 0.950 . S
C1491 C1487 1.385 . S
C1491 C1490 1.374 . S
C1492 C1489 1.499 . S
C1492 C1493 1.373 . S
C1492 C1494 1.389 . S
C1493 H1472 0.950 . S
C1493 C1492 1.373 . S
C1493 C1509 1.377 . S
C1494 C1492 1.389 . S
C1494 C1495 1.524 . S
C1494 C1508 1.377 . S
C1495 C1494 1.524 . S
C1495 C1496 1.397 . S
C1495 C1500 1.363 . S
C1496 H1473 0.950 . S
C1496 C1495 1.397 . S
C1496 C1497 1.334 . S
C1497 H1474 0.950 . S
C1497 C1496 1.334 . S
C1497 C1498 1.287 . S
C1498 C1497 1.287 . S
C1498 C1499 1.524 . S
C1498 H1517 0.913 . S
C1499 H1475 0.950 . S
C1499 C1498 1.524 . S
C1499 C1500 1.415 . S
C1500 H1476 0.950 . S
C1500 C1495 1.363 . S
C1500 C1499 1.415 . S
C1501 H1477 0.951 . S
C1501 C1502 1.366 . S
C1501 C1503 1.388 . S
C1502 C1501 1.366 . S
C1502 C1506 1.385 . S
C1503 H1478 0.951 . S
C1503 C1501 1.388 . S
C1503 C1504 1.366 . S
C1504 C1503 1.366 . S
C1504 C1505 1.414 . S
C1504 C1507 1.499 . S
C1505 H1479 0.950 . S
C1505 C1504 1.414 . S
C1505 C1506 1.374 . S
C1506 H1480 0.950 . S
C1506 C1502 1.385 . S
C1506 C1505 1.374 . S
C1507 C1504 1.499 . S
C1507 C1508 1.373 . S
C1507 C1509 1.389 . S
C1508 H1481 0.950 . S
C1508 C1494 1.377 . S
C1508 C1507 1.373 . S
C1509 C1493 1.377 . S
C1509 C1507 1.389 . S
C1509 C1510 1.524 . S
C1510 C1509 1.524 . S
C1510 C1511 1.397 . S
C1510 C1515 1.363 . S
C1511 H1482 0.950 . S
C1511 C1510 1.397 . S
C1511 C1512 1.334 . S
C1512 H1483 0.950 . S
C1512 C1511 1.334 . S
C1512 C1513 1.287 . S
C1513 C1512 1.287 . S
C1513 C1514 1.524 . S
C1513 H1516 0.999 . S
C1514 H1484 0.950 . S
C1514 C1513 1.524 . S
C1514 C1515 1.415 . S
C1515 H1485 0.950 . S
C1515 C1510 1.363 . S
C1515 C1514 1.415 . S
H1516 C1513 0.999 . S
H1517 C1498 0.913 . S
H1518 C1536 0.951 . S
H1519 C1538 0.951 . S
H1520 C1540 0.950 . S
H1521 C1541 0.950 . S
H1522 C1543 0.950 . S
H1523 C1546 0.950 . S
H1524 C1547 0.950 . S
H1525 C1549 0.950 . S
H1526 C1550 0.950 . S
H1527 C1551 0.951 . S
H1528 C1553 0.951 . S
H1529 C1555 0.950 . S
H1530 C1556 0.950 . S
H1531 C1558 0.950 . S
H1532 C1561 0.950 . S
H1533 C1562 0.950 . S
H1534 C1564 0.950 . S
H1535 C1565 0.950 . S
C1536 H1518 0.951 . S
C1536 C1537 1.366 . S
C1536 C1538 1.388 . S
C1537 C1536 1.366 . S
C1537 C1541 1.385 . S
C1538 H1519 0.951 . S
C1538 C1536 1.388 . S
C1538 C1539 1.366 . S
C1539 C1538 1.366 . S
C1539 C1540 1.414 . S
C1539 C1542 1.499 . S
C1540 H1520 0.950 . S
C1540 C1539 1.414 . S
C1540 C1541 1.374 . S
C1541 H1521 0.950 . S
C1541 C1537 1.385 . S
C1541 C1540 1.374 . S
C1542 C1539 1.499 . S
C1542 C1543 1.373 . S
C1542 C1544 1.389 . S
C1543 H1522 0.950 . S
C1543 C1542 1.373 . S
C1543 C1559 1.377 . S
C1544 C1542 1.389 . S
C1544 C1545 1.524 . S
C1544 C1558 1.377 . S
C1545 C1544 1.524 . S
C1545 C1546 1.397 . S
C1545 C1550 1.363 . S
C1546 H1523 0.950 . S
C1546 C1545 1.397 . S
C1546 C1547 1.334 . S
C1547 H1524 0.950 . S
C1547 C1546 1.334 . S
C1547 C1548 1.287 . S
C1548 C1547 1.287 . S
C1548 C1549 1.524 . S
C1548 H1567 0.913 . S
C1549 H1525 0.950 . S
C1549 C1548 1.524 . S
C1549 C1550 1.415 . S
C1550 H1526 0.950 . S
C1550 C1545 1.363 . S
C1550 C1549 1.415 . S
C1551 H1527 0.951 . S
C1551 C1552 1.366 . S
C1551 C1553 1.388 . S
C1552 C1551 1.366 . S
C1552 C1556 1.385 . S
C1553 H1528 0.951 . S
C1553 C1551 1.388 . S
C1553 C1554 1.366 . S
C1554 C1553 1.366 . S
C1554 C1555 1.414 . S
C1554 C1557 1.499 . S
C1555 H1529 0.950 . S
C1555 C1554 1.414 . S
C1555 C1556 1.374 . S
C1556 H1530 0.950 . S
C1556 C1552 1.385 . S
C1556 C1555 1.374 . S
C1557 C1554 1.499 . S
C1557 C1558 1.373 . S
C1557 C1559 1.389 . S
C1558 H1531 0.950 . S
C1558 C1544 1.377 . S
C1558 C1557 1.373 . S
C1559 C1543 1.377 . S
C1559 C1557 1.389 . S
C1559 C1560 1.524 . S
C1560 C1559 1.524 . S
C1560 C1561 1.397 . S
C1560 C1565 1.363 . S
C1561 H1532 0.950 . S
C1561 C1560 1.397 . S
C1561 C1562 1.334 . S
C1562 H1533 0.950 . S
C1562 C1561 1.334 . S
C1562 C1563 1.287 . S
C1563 C1562 1.287 . S
C1563 C1564 1.524 . S
C1563 H1566 0.999 . S
C1564 H1534 0.950 . S
C1564 C1563 1.524 . S
C1564 C1565 1.415 . S
C1565 H1535 0.950 . S
C1565 C1560 1.363 . S
C1565 C1564 1.415 . S
H1566 C1563 0.999 . S
H1567 C1548 0.913 . S
H1568 C1586 0.951 . S
H1569 C1588 0.951 1_455 S
H1570 C1590 0.950 . S
H1571 C1591 0.950 . S
H1572 C1593 0.950 . S
H1573 C1596 0.950 1_655 S
H1574 C1597 0.950 . S
H1575 C1599 0.950 . S
H1576 C1600 0.950 . S
H1577 C1601 0.951 . S
H1578 C1603 0.951 1_655 S
H1579 C1605 0.950 . S
H1580 C1606 0.950 . S
H1581 C1608 0.950 . S
H1582 C1611 0.950 1_455 S
H1583 C1612 0.950 . S
H1584 C1614 0.950 . S
H1585 C1615 0.950 . S
C1586 H1568 0.951 . S
C1586 C1587 1.366 . S
C1586 C1588 1.388 . S
C1587 C1586 1.366 . S
C1587 C1591 1.385 . S
C1588 H1569 0.951 1_655 S
C1588 C1586 1.388 . S
C1588 C1589 1.366 . S
C1589 C1588 1.366 . S
C1589 C1590 1.414 . S
C1589 C1592 1.499 . S
C1590 H1570 0.950 . S
C1590 C1589 1.414 . S
C1590 C1591 1.374 . S
C1591 H1571 0.950 . S
C1591 C1587 1.385 . S
C1591 C1590 1.374 . S
C1592 C1589 1.499 . S
C1592 C1593 1.373 . S
C1592 C1594 1.389 1_655 S
C1593 H1572 0.950 . S
C1593 C1592 1.373 . S
C1593 C1609 1.377 1_565 S
C1594 C1592 1.389 1_455 S
C1594 C1595 1.524 . S
C1594 C1608 1.377 1_565 S
C1595 C1594 1.524 . S
C1595 C1596 1.397 . S
C1595 C1600 1.363 . S
C1596 H1573 0.950 1_455 S
C1596 C1595 1.397 . S
C1596 C1597 1.334 . S
C1597 H1574 0.950 . S
C1597 C1596 1.334 . S
C1597 C1598 1.287 . S
C1598 C1597 1.287 . S
C1598 C1599 1.524 . S
C1598 H1617 0.913 . S
C1599 H1575 0.950 . S
C1599 C1598 1.524 . S
C1599 C1600 1.415 . S
C1600 H1576 0.950 . S
C1600 C1595 1.363 . S
C1600 C1599 1.415 . S
C1601 H1577 0.951 . S
C1601 C1602 1.366 . S
C1601 C1603 1.388 . S
C1602 C1601 1.366 . S
C1602 C1606 1.385 . S
C1603 H1578 0.951 1_455 S
C1603 C1601 1.388 . S
C1603 C1604 1.366 . S
C1604 C1603 1.366 . S
C1604 C1605 1.414 . S
C1604 C1607 1.499 . S
C1605 H1579 0.950 . S
C1605 C1604 1.414 . S
C1605 C1606 1.374 . S
C1606 H1580 0.950 . S
C1606 C1602 1.385 . S
C1606 C1605 1.374 . S
C1607 C1604 1.499 . S
C1607 C1608 1.373 . S
C1607 C1609 1.389 1_455 S
C1608 H1581 0.950 . S
C1608 C1594 1.377 1_545 S
C1608 C1607 1.373 . S
C1609 C1593 1.377 1_545 S
C1609 C1607 1.389 1_655 S
C1609 C1610 1.524 . S
C1610 C1609 1.524 . S
C1610 C1611 1.397 . S
C1610 C1615 1.363 . S
C1611 H1582 0.950 1_655 S
C1611 C1610 1.397 . S
C1611 C1612 1.334 . S
C1612 H1583 0.950 . S
C1612 C1611 1.334 . S
C1612 C1613 1.287 . S
C1613 C1612 1.287 . S
C1613 C1614 1.524 . S
C1613 H1616 0.999 . S
C1614 H1584 0.950 . S
C1614 C1613 1.524 . S
C1614 C1615 1.415 . S
C1615 H1585 0.950 . S
C1615 C1610 1.363 . S
C1615 C1614 1.415 . S
H1616 C1613 0.999 . S
H1617 C1598 0.913 . S
H1618 C1636 0.951 . S
H1619 C1638 0.951 . S
H1620 C1640 0.950 . S
H1621 C1641 0.950 . S
H1622 C1643 0.950 . S
H1623 C1646 0.950 . S
H1624 C1647 0.950 . S
H1625 C1649 0.950 . S
H1626 C1650 0.942 1_455 S
H1627 C1651 0.951 . S
H1628 C1653 0.951 . S
H1629 C1655 0.950 . S
H1630 C1656 0.950 . S
H1631 C1658 0.950 . S
H1632 C1661 0.950 . S
H1633 C1662 0.950 . S
H1634 C1664 0.950 . S
H1635 C1665 0.942 1_655 S
C1636 H1618 0.951 . S
C1636 C1637 1.366 . S
C1636 C1638 1.388 . S
C1637 C1636 1.366 . S
C1637 C1641 1.385 . S
C1638 H1619 0.951 . S
C1638 C1636 1.388 . S
C1638 C1639 1.366 . S
C1639 C1638 1.366 . S
C1639 C1640 1.414 . S
C1639 C1642 1.499 . S
C1640 H1620 0.950 . S
C1640 C1639 1.414 . S
C1640 C1641 1.374 . S
C1641 H1621 0.950 . S
C1641 C1637 1.385 . S
C1641 C1640 1.374 . S
C1642 C1639 1.499 . S
C1642 C1643 1.373 1_545 S
C1642 C1644 1.389 . S
C1643 H1622 0.950 . S
C1643 C1642 1.373 1_565 S
C1643 C1659 1.377 1_655 S
C1644 C1642 1.389 . S
C1644 C1645 1.524 . S
C1644 C1658 1.377 1_655 S
C1645 C1644 1.524 . S
C1645 C1646 1.397 . S
C1645 C1650 1.363 . S
C1646 H1623 0.950 . S
C1646 C1645 1.397 . S
C1646 C1647 1.334 . S
C1647 H1624 0.950 . S
C1647 C1646 1.334 . S
C1647 C1648 1.287 . S
C1648 C1647 1.287 . S
C1648 C1649 1.524 . S
C1648 H1667 0.913 . S
C1649 H1625 0.950 . S
C1649 C1648 1.524 . S
C1649 C1650 1.415 . S
C1650 H1626 0.942 1_655 S
C1650 C1645 1.363 . S
C1650 C1649 1.415 . S
C1651 H1627 0.951 . S
C1651 C1652 1.366 . S
C1651 C1653 1.388 . S
C1652 C1651 1.366 . S
C1652 C1656 1.385 . S
C1653 H1628 0.951 . S
C1653 C1651 1.388 . S
C1653 C1654 1.366 . S
C1654 C1653 1.366 . S
C1654 C1655 1.414 . S
C1654 C1657 1.499 . S
C1655 H1629 0.950 . S
C1655 C1654 1.414 . S
C1655 C1656 1.374 . S
C1656 H1630 0.950 . S
C1656 C1652 1.385 . S
C1656 C1655 1.374 . S
C1657 C1654 1.499 . S
C1657 C1658 1.373 1_565 S
C1657 C1659 1.389 . S
C1658 H1631 0.950 . S
C1658 C1644 1.377 1_455 S
C1658 C1657 1.373 1_545 S
C1659 C1643 1.377 1_455 S
C1659 C1657 1.389 . S
C1659 C1660 1.524 . S
C1660 C1659 1.524 . S
C1660 C1661 1.397 . S
C1660 C1665 1.363 . S
C1661 H1632 0.950 . S
C1661 C1660 1.397 . S
C1661 C1662 1.334 . S
C1662 H1633 0.950 . S
C1662 C1661 1.334 . S
C1662 C1663 1.287 . S
C1663 C1662 1.287 . S
C1663 C1664 1.524 . S
C1663 H1666 0.999 . S
C1664 H1634 0.950 . S
C1664 C1663 1.524 . S
C1664 C1665 1.415 . S
C1665 H1635 0.942 1_455 S
C1665 C1660 1.363 . S
C1665 C1664 1.415 . S
H1666 C1663 0.999 . S
H1667 C1648 0.913 . S
H1668 C1686 0.951 . S
H1669 C1688 0.951 . S
H1670 C1690 0.950 1_655 S
H1671 C1691 0.950 . S
H1672 C1693 0.950 . S
H1673 C1696 0.950 . S
H1674 C1697 0.950 . S
H1675 C1699 0.950 . S
H1676 C1700 0.950 . S
H1677 C1701 0.951 . S
H1678 C1703 0.951 . S
H1679 C1705 0.950 1_455 S
H1680 C1706 0.950 . S
H1681 C1708 0.950 . S
H1682 C1711 0.950 . S
H1683 C1712 0.950 . S
H1684 C1714 0.950 . S
H1685 C1715 0.950 . S
C1686 H1668 0.951 . S
C1686 C1687 1.366 . S
C1686 C1688 1.388 . S
C1687 C1686 1.366 . S
C1687 C1691 1.385 . S
C1688 H1669 0.951 . S
C1688 C1686 1.388 . S
C1688 C1689 1.366 . S
C1689 C1688 1.366 . S
C1689 C1690 1.414 . S
C1689 C1692 1.499 . S
C1690 H1670 0.950 1_455 S
C1690 C1689 1.414 . S
C1690 C1691 1.374 . S
C1691 H1671 0.950 . S
C1691 C1687 1.385 . S
C1691 C1690 1.374 . S
C1692 C1689 1.499 . S
C1692 C1693 1.373 1_455 S
C1692 C1694 1.389 . S
C1693 H1672 0.950 . S
C1693 C1692 1.373 1_655 S
C1693 C1709 1.377 . S
C1694 C1692 1.389 . S
C1694 C1695 1.524 . S
C1694 C1708 1.377 . S
C1695 C1694 1.524 . S
C1695 C1696 1.397 . S
C1695 C1700 1.363 . S
C1696 H1673 0.950 . S
C1696 C1695 1.397 . S
C1696 C1697 1.334 . S
C1697 H1674 0.950 . S
C1697 C1696 1.334 . S
C1697 C1698 1.287 . S
C1698 C1697 1.287 . S
C1698 C1699 1.524 . S
C1698 H1717 0.913 . S
C1699 H1675 0.950 . S
C1699 C1698 1.524 . S
C1699 C1700 1.415 . S
C1700 H1676 0.950 . S
C1700 C1695 1.363 . S
C1700 C1699 1.415 . S
C1701 H1677 0.951 . S
C1701 C1702 1.366 . S
C1701 C1703 1.388 . S
C1702 C1701 1.366 . S
C1702 C1706 1.385 . S
C1703 H1678 0.951 . S
C1703 C1701 1.388 . S
C1703 C1704 1.366 . S
C1704 C1703 1.366 . S
C1704 C1705 1.414 . S
C1704 C1707 1.499 . S
C1705 H1679 0.950 1_655 S
C1705 C1704 1.414 . S
C1705 C1706 1.374 . S
C1706 H1680 0.950 . S
C1706 C1702 1.385 . S
C1706 C1705 1.374 . S
C1707 C1704 1.499 . S
C1707 C1708 1.373 1_655 S
C1707 C1709 1.389 . S
C1708 H1681 0.950 . S
C1708 C1694 1.377 . S
C1708 C1707 1.373 1_455 S
C1709 C1693 1.377 . S
C1709 C1707 1.389 . S
C1709 C1710 1.524 . S
C1710 C1709 1.524 . S
C1710 C1711 1.397 . S
C1710 C1715 1.363 . S
C1711 H1682 0.950 . S
C1711 C1710 1.397 . S
C1711 C1712 1.334 . S
C1712 H1683 0.950 . S
C1712 C1711 1.334 . S
C1712 C1713 1.287 . S
C1713 C1712 1.287 . S
C1713 C1714 1.524 . S
C1713 H1716 0.999 . S
C1714 H1684 0.950 . S
C1714 C1713 1.524 . S
C1714 C1715 1.415 . S
C1715 H1685 0.950 . S
C1715 C1710 1.363 . S
C1715 C1714 1.415 . S
H1716 C1713 0.999 . S
H1717 C1698 0.913 . S
H1718 C1736 0.951 . S
H1719 C1738 0.951 . S
H1720 C1740 0.950 . S
H1721 C1741 0.950 . S
H1722 C1743 0.950 . S
H1723 C1746 0.950 1_545 S
H1724 C1747 0.950 . S
H1725 C1749 0.950 . S
H1726 C1750 0.950 . S
H1727 C1751 0.951 . S
H1728 C1753 0.951 . S
H1729 C1755 0.950 . S
H1730 C1756 0.950 . S
H1731 C1758 0.950 . S
H1732 C1761 0.950 1_565 S
H1733 C1762 0.950 . S
H1734 C1764 0.950 . S
H1735 C1765 0.950 . S
C1736 H1718 0.951 . S
C1736 C1737 1.366 . S
C1736 C1738 1.388 . S
C1737 C1736 1.366 . S
C1737 C1741 1.385 1_565 S
C1738 H1719 0.951 . S
C1738 C1736 1.388 . S
C1738 C1739 1.366 . S
C1739 C1738 1.366 . S
C1739 C1740 1.414 1_565 S
C1739 C1742 1.499 . S
C1740 H1720 0.950 . S
C1740 C1739 1.414 1_545 S
C1740 C1741 1.374 . S
C1741 H1721 0.950 . S
C1741 C1737 1.385 1_545 S
C1741 C1740 1.374 . S
C1742 C1739 1.499 . S
C1742 C1743 1.373 1_565 S
C1742 C1744 1.389 . S
C1743 H1722 0.950 . S
C1743 C1742 1.373 1_545 S
C1743 C1759 1.377 . S
C1744 C1742 1.389 . S
C1744 C1745 1.524 . S
C1744 C1758 1.377 . S
C1745 C1744 1.524 . S
C1745 C1746 1.397 . S
C1745 C1750 1.363 . S
C1746 H1723 0.950 1_565 S
C1746 C1745 1.397 . S
C1746 C1747 1.334 . S
C1747 H1724 0.950 . S
C1747 C1746 1.334 . S
C1747 C1748 1.287 . S
C1748 C1747 1.287 . S
C1748 C1749 1.524 . S
C1748 H1767 0.913 . S
C1749 H1725 0.950 . S
C1749 C1748 1.524 . S
C1749 C1750 1.415 . S
C1750 H1726 0.950 . S
C1750 C1745 1.363 . S
C1750 C1749 1.415 . S
C1751 H1727 0.951 . S
C1751 C1752 1.366 . S
C1751 C1753 1.388 . S
C1752 C1751 1.366 . S
C1752 C1756 1.385 1_545 S
C1753 H1728 0.951 . S
C1753 C1751 1.388 . S
C1753 C1754 1.366 . S
C1754 C1753 1.366 . S
C1754 C1755 1.414 1_545 S
C1754 C1757 1.499 . S
C1755 H1729 0.950 . S
C1755 C1754 1.414 1_565 S
C1755 C1756 1.374 . S
C1756 H1730 0.950 . S
C1756 C1752 1.385 1_565 S
C1756 C1755 1.374 . S
C1757 C1754 1.499 . S
C1757 C1758 1.373 1_545 S
C1757 C1759 1.389 . S
C1758 H1731 0.950 . S
C1758 C1744 1.377 . S
C1758 C1757 1.373 1_565 S
C1759 C1743 1.377 . S
C1759 C1757 1.389 . S
C1759 C1760 1.524 . S
C1760 C1759 1.524 . S
C1760 C1761 1.397 . S
C1760 C1765 1.363 . S
C1761 H1732 0.950 1_545 S
C1761 C1760 1.397 . S
C1761 C1762 1.334 . S
C1762 H1733 0.950 . S
C1762 C1761 1.334 . S
C1762 C1763 1.287 . S
C1763 C1762 1.287 . S
C1763 C1764 1.524 . S
C1763 H1766 0.999 . S
C1764 H1734 0.950 . S
C1764 C1763 1.524 . S
C1764 C1765 1.415 . S
C1765 H1735 0.950 . S
C1765 C1760 1.363 . S
C1765 C1764 1.415 . S
H1766 C1763 0.999 . S
H1767 C1748 0.913 . S
H1768 C1786 0.951 . S
H1769 C1788 0.951 . S
H1770 C1790 0.950 . S
H1771 C1791 0.950 . S
H1772 C1793 0.950 . S
H1773 C1796 0.950 . S
H1774 C1797 0.950 . S
H1775 C1799 0.950 . S
H1776 C1800 0.950 . S
H1777 C1801 0.951 . S
H1778 C1803 0.951 . S
H1779 C1805 0.950 . S
H1780 C1806 0.950 . S
H1781 C1808 0.950 . S
H1782 C1811 0.950 . S
H1783 C1812 0.950 . S
H1784 C1814 0.950 . S
H1785 C1815 0.950 . S
C1786 H1768 0.951 . S
C1786 C1787 1.366 . S
C1786 C1788 1.388 . S
C1787 C1786 1.366 . S
C1787 C1791 1.385 . S
C1788 H1769 0.951 . S
C1788 C1786 1.388 . S
C1788 C1789 1.366 . S
C1789 C1788 1.366 . S
C1789 C1790 1.414 . S
C1789 C1792 1.499 . S
C1790 H1770 0.950 . S
C1790 C1789 1.414 . S
C1790 C1791 1.374 . S
C1791 H1771 0.950 . S
C1791 C1787 1.385 . S
C1791 C1790 1.374 . S
C1792 C1789 1.499 . S
C1792 C1793 1.373 . S
C1792 C1794 1.389 . S
C1793 H1772 0.950 . S
C1793 C1792 1.373 . S
C1793 C1809 1.377 . S
C1794 C1792 1.389 . S
C1794 C1795 1.524 . S
C1794 C1808 1.377 . S
C1795 C1794 1.524 . S
C1795 C1796 1.397 . S
C1795 C1800 1.363 . S
C1796 H1773 0.950 . S
C1796 C1795 1.397 . S
C1796 C1797 1.334 . S
C1797 H1774 0.950 . S
C1797 C1796 1.334 . S
C1797 C1798 1.287 . S
C1798 C1797 1.287 . S
C1798 C1799 1.524 . S
C1798 H1817 0.913 . S
C1799 H1775 0.950 . S
C1799 C1798 1.524 . S
C1799 C1800 1.415 . S
C1800 H1776 0.950 . S
C1800 C1795 1.363 . S
C1800 C1799 1.415 . S
C1801 H1777 0.951 . S
C1801 C1802 1.366 . S
C1801 C1803 1.388 . S
C1802 C1801 1.366 . S
C1802 C1806 1.385 . S
C1803 H1778 0.951 . S
C1803 C1801 1.388 . S
C1803 C1804 1.366 . S
C1804 C1803 1.366 . S
C1804 C1805 1.414 . S
C1804 C1807 1.499 . S
C1805 H1779 0.950 . S
C1805 C1804 1.414 . S
C1805 C1806 1.374 . S
C1806 H1780 0.950 . S
C1806 C1802 1.385 . S
C1806 C1805 1.374 . S
C1807 C1804 1.499 . S
C1807 C1808 1.373 . S
C1807 C1809 1.389 . S
C1808 H1781 0.950 . S
C1808 C1794 1.377 . S
C1808 C1807 1.373 . S
C1809 C1793 1.377 . S
C1809 C1807 1.389 . S
C1809 C1810 1.524 . S
C1810 C1809 1.524 . S
C1810 C1811 1.397 . S
C1810 C1815 1.363 . S
C1811 H1782 0.950 . S
C1811 C1810 1.397 . S
C1811 C1812 1.334 . S
C1812 H1783 0.950 . S
C1812 C1811 1.334 . S
C1812 C1813 1.287 . S
C1813 C1812 1.287 . S
C1813 C1814 1.524 . S
C1813 H1816 0.999 . S
C1814 H1784 0.950 . S
C1814 C1813 1.524 . S
C1814 C1815 1.415 . S
C1815 H1785 0.950 . S
C1815 C1810 1.363 . S
C1815 C1814 1.415 . S
H1816 C1813 0.999 . S
H1817 C1798 0.913 . S
H1818 C1836 0.951 . S
H1819 C1838 0.951 . S
H1820 C1840 0.950 . S
H1821 C1841 0.950 . S
H1822 C1843 0.950 . S
H1823 C1846 0.950 . S
H1824 C1847 0.950 . S
H1825 C1849 0.950 . S
H1826 C1850 0.950 . S
H1827 C1851 0.951 . S
H1828 C1853 0.951 . S
H1829 C1855 0.950 . S
H1830 C1856 0.950 . S
H1831 C1858 0.950 . S
H1832 C1861 0.950 . S
H1833 C1862 0.950 . S
H1834 C1864 0.950 . S
H1835 C1865 0.950 . S
C1836 H1818 0.951 . S
C1836 C1837 1.366 . S
C1836 C1838 1.388 . S
C1837 C1836 1.366 . S
C1837 C1841 1.385 . S
C1838 H1819 0.951 . S
C1838 C1836 1.388 . S
C1838 C1839 1.366 . S
C1839 C1838 1.366 . S
C1839 C1840 1.414 . S
C1839 C1842 1.499 . S
C1840 H1820 0.950 . S
C1840 C1839 1.414 . S
C1840 C1841 1.374 . S
C1841 H1821 0.950 . S
C1841 C1837 1.385 . S
C1841 C1840 1.374 . S
C1842 C1839 1.499 . S
C1842 C1843 1.373 . S
C1842 C1844 1.389 . S
C1843 H1822 0.950 . S
C1843 C1842 1.373 . S
C1843 C1859 1.377 . S
C1844 C1842 1.389 . S
C1844 C1845 1.524 . S
C1844 C1858 1.377 . S
C1845 C1844 1.524 . S
C1845 C1846 1.397 . S
C1845 C1850 1.363 . S
C1846 H1823 0.950 . S
C1846 C1845 1.397 . S
C1846 C1847 1.334 . S
C1847 H1824 0.950 . S
C1847 C1846 1.334 . S
C1847 C1848 1.287 . S
C1848 C1847 1.287 . S
C1848 C1849 1.524 . S
C1848 H1867 0.913 . S
C1849 H1825 0.950 . S
C1849 C1848 1.524 . S
C1849 C1850 1.415 . S
C1850 H1826 0.950 . S
C1850 C1845 1.363 . S
C1850 C1849 1.415 . S
C1851 H1827 0.951 . S
C1851 C1852 1.366 . S
C1851 C1853 1.388 . S
C1852 C1851 1.366 . S
C1852 C1856 1.385 . S
C1853 H1828 0.951 . S
C1853 C1851 1.388 . S
C1853 C1854 1.366 . S
C1854 C1853 1.366 . S
C1854 C1855 1.414 . S
C1854 C1857 1.499 . S
C1855 H1829 0.950 . S
C1855 C1854 1.414 . S
C1855 C1856 1.374 . S
C1856 H1830 0.950 . S
C1856 C1852 1.385 . S
C1856 C1855 1.374 . S
C1857 C1854 1.499 . S
C1857 C1858 1.373 . S
C1857 C1859 1.389 . S
C1858 H1831 0.950 . S
C1858 C1844 1.377 . S
C1858 C1857 1.373 . S
C1859 C1843 1.377 . S
C1859 C1857 1.389 . S
C1859 C1860 1.524 . S
C1860 C1859 1.524 . S
C1860 C1861 1.397 . S
C1860 C1865 1.363 . S
C1861 H1832 0.950 . S
C1861 C1860 1.397 . S
C1861 C1862 1.334 . S
C1862 H1833 0.950 . S
C1862 C1861 1.334 . S
C1862 C1863 1.287 . S
C1863 C1862 1.287 . S
C1863 C1864 1.524 . S
C1863 H1866 0.999 . S
C1864 H1834 0.950 . S
C1864 C1863 1.524 . S
C1864 C1865 1.415 . S
C1865 H1835 0.950 . S
C1865 C1860 1.363 . S
C1865 C1864 1.415 . S
H1866 C1863 0.999 . S
H1867 C1848 0.913 . S
H1868 C1886 0.951 . S
H1869 C1888 0.951 . S
H1870 C1890 0.950 . S
H1871 C1891 0.950 . S
H1872 C1893 0.950 . S
H1873 C1896 0.950 . S
H1874 C1897 0.950 . S
H1875 C1899 0.950 1_565 S
H1876 C1900 0.950 1_565 S
H1877 C1901 0.951 . S
H1878 C1903 0.951 . S
H1879 C1905 0.950 . S
H1880 C1906 0.950 . S
H1881 C1908 0.950 . S
H1882 C1911 0.950 . S
H1883 C1912 0.950 . S
H1884 C1914 0.950 1_545 S
H1885 C1915 0.950 1_545 S
C1886 H1868 0.951 . S
C1886 C1887 1.366 . S
C1886 C1888 1.388 . S
C1887 C1886 1.366 . S
C1887 C1891 1.385 . S
C1888 H1869 0.951 . S
C1888 C1886 1.388 . S
C1888 C1889 1.366 . S
C1889 C1888 1.366 . S
C1889 C1890 1.414 . S
C1889 C1892 1.499 . S
C1890 H1870 0.950 . S
C1890 C1889 1.414 . S
C1890 C1891 1.374 . S
C1891 H1871 0.950 . S
C1891 C1887 1.385 . S
C1891 C1890 1.374 . S
C1892 C1889 1.499 . S
C1892 C1893 1.373 . S
C1892 C1894 1.389 . S
C1893 H1872 0.950 . S
C1893 C1892 1.373 . S
C1893 C1909 1.377 1_545 S
C1894 C1892 1.389 . S
C1894 C1895 1.524 . S
C1894 C1908 1.377 1_545 S
C1895 C1894 1.524 . S
C1895 C1896 1.397 . S
C1895 C1900 1.363 . S
C1896 H1873 0.950 . S
C1896 C1895 1.397 . S
C1896 C1897 1.334 . S
C1897 H1874 0.950 . S
C1897 C1896 1.334 . S
C1897 C1898 1.287 . S
C1898 C1897 1.287 . S
C1898 C1899 1.524 . S
C1898 H1917 0.913 . S
C1899 H1875 0.950 1_545 S
C1899 C1898 1.524 . S
C1899 C1900 1.415 . S
C1900 H1876 0.950 1_545 S
C1900 C1895 1.363 . S
C1900 C1899 1.415 . S
C1901 H1877 0.951 . S
C1901 C1902 1.366 . S
C1901 C1903 1.388 . S
C1902 C1901 1.366 . S
C1902 C1906 1.385 . S
C1903 H1878 0.951 . S
C1903 C1901 1.388 . S
C1903 C1904 1.366 . S
C1904 C1903 1.366 . S
C1904 C1905 1.414 . S
C1904 C1907 1.499 . S
C1905 H1879 0.950 . S
C1905 C1904 1.414 . S
C1905 C1906 1.374 . S
C1906 H1880 0.950 . S
C1906 C1902 1.385 . S
C1906 C1905 1.374 . S
C1907 C1904 1.499 . S
C1907 C1908 1.373 . S
C1907 C1909 1.389 . S
C1908 H1881 0.950 . S
C1908 C1894 1.377 1_565 S
C1908 C1907 1.373 . S
C1909 C1893 1.377 1_565 S
C1909 C1907 1.389 . S
C1909 C1910 1.524 . S
C1910 C1909 1.524 . S
C1910 C1911 1.397 . S
C1910 C1915 1.363 . S
C1911 H1882 0.950 . S
C1911 C1910 1.397 . S
C1911 C1912 1.334 . S
C1912 H1883 0.950 . S
C1912 C1911 1.334 . S
C1912 C1913 1.287 . S
C1913 C1912 1.287 . S
C1913 C1914 1.524 . S
C1913 H1916 0.999 . S
C1914 H1884 0.950 1_565 S
C1914 C1913 1.524 . S
C1914 C1915 1.415 . S
C1915 H1885 0.950 1_565 S
C1915 C1910 1.363 . S
C1915 C1914 1.415 . S
H1916 C1913 0.999 . S
H1917 C1898 0.913 . S
H1918 C1936 0.951 . S
H1919 C1938 0.951 . S
H1920 C1940 0.950 . S
H1921 C1941 0.950 . S
H1922 C1943 0.950 . S
H1923 C1946 0.950 . S
H1924 C1947 0.950 . S
H1925 C1949 0.950 . S
H1926 C1950 0.950 1_455 S
H1927 C1951 0.951 . S
H1928 C1953 0.951 . S
H1929 C1955 0.950 . S
H1930 C1956 0.950 . S
H1931 C1958 0.950 . S
H1932 C1961 0.950 . S
H1933 C1962 0.950 . S
H1934 C1964 0.950 . S
H1935 C1965 0.950 1_655 S
C1936 H1918 0.951 . S
C1936 C1937 1.366 . S
C1936 C1938 1.388 . S
C1937 C1936 1.366 . S
C1937 C1941 1.385 . S
C1938 H1919 0.951 . S
C1938 C1936 1.388 . S
C1938 C1939 1.366 . S
C1939 C1938 1.366 . S
C1939 C1940 1.414 . S
C1939 C1942 1.499 . S
C1940 H1920 0.950 . S
C1940 C1939 1.414 . S
C1940 C1941 1.374 . S
C1941 H1921 0.950 . S
C1941 C1937 1.385 . S
C1941 C1940 1.374 . S
C1942 C1939 1.499 . S
C1942 C1943 1.373 . S
C1942 C1944 1.389 . S
C1943 H1922 0.950 . S
C1943 C1942 1.373 . S
C1943 C1959 1.377 1_655 S
C1944 C1942 1.389 . S
C1944 C1945 1.524 . S
C1944 C1958 1.377 1_655 S
C1945 C1944 1.524 . S
C1945 C1946 1.397 . S
C1945 C1950 1.363 . S
C1946 H1923 0.950 . S
C1946 C1945 1.397 . S
C1946 C1947 1.334 . S
C1947 H1924 0.950 . S
C1947 C1946 1.334 . S
C1947 C1948 1.287 . S
C1948 C1947 1.287 . S
C1948 C1949 1.524 . S
C1948 H1967 0.913 . S
C1949 H1925 0.950 . S
C1949 C1948 1.524 . S
C1949 C1950 1.415 . S
C1950 H1926 0.950 1_655 S
C1950 C1945 1.363 . S
C1950 C1949 1.415 . S
C1951 H1927 0.951 . S
C1951 C1952 1.366 . S
C1951 C1953 1.388 . S
C1952 C1951 1.366 . S
C1952 C1956 1.385 . S
C1953 H1928 0.951 . S
C1953 C1951 1.388 . S
C1953 C1954 1.366 . S
C1954 C1953 1.366 . S
C1954 C1955 1.414 . S
C1954 C1957 1.499 . S
C1955 H1929 0.950 . S
C1955 C1954 1.414 . S
C1955 C1956 1.374 . S
C1956 H1930 0.950 . S
C1956 C1952 1.385 . S
C1956 C1955 1.374 . S
C1957 C1954 1.499 . S
C1957 C1958 1.373 . S
C1957 C1959 1.389 . S
C1958 H1931 0.950 . S
C1958 C1944 1.377 1_455 S
C1958 C1957 1.373 . S
C1959 C1943 1.377 1_455 S
C1959 C1957 1.389 . S
C1959 C1960 1.524 . S
C1960 C1959 1.524 . S
C1960 C1961 1.397 . S
C1960 C1965 1.363 . S
C1961 H1932 0.950 . S
C1961 C1960 1.397 . S
C1961 C1962 1.334 . S
C1962 H1933 0.950 . S
C1962 C1961 1.334 . S
C1962 C1963 1.287 . S
C1963 C1962 1.287 . S
C1963 C1964 1.524 . S
C1963 H1966 0.999 . S
C1964 H1934 0.950 . S
C1964 C1963 1.524 . S
C1964 C1965 1.415 . S
C1965 H1935 0.950 1_455 S
C1965 C1960 1.363 . S
C1965 C1964 1.415 . S
H1966 C1963 0.999 . S
H1967 C1948 0.913 . S
C387 C16 1.716 . S
C402 C260 1.770 . S
C437 N186 1.315 . S
C452 N35 1.325 . S
C487 C214 1.770 . S
C502 C62 1.716 . S
C537 N232 1.315 . S
C552 N81 1.325 . S
C587 C122 1.770 1_545 S
C602 C108 1.716 . S
C637 N127 1.326 . S
C652 N140 1.314 . S
C687 C154 1.716 . S
C702 C168 1.770 1_565 S
C737 N173 1.326 . S
C752 N94 1.314 . S
C787 C200 1.716 . S
C802 C76 1.770 1_565 S
C837 N2 1.316 . S
C852 N219 1.326 . S
C887 C30 1.770 1_545 S
C902 C246 1.716 . S
C937 N48 1.314 . S
C952 N265 1.326 . S
C987 C306 1.770 . S
C1002 C292 1.716 . S
C1037 N311 1.326 . S
C1052 N324 1.315 . S
C1087 C352 1.770 . S
C1102 C338 1.715 . S
C1137 N278 1.314 . S
C1152 N357 1.325 . S
C1187 N334 1.833 . S
C1202 N12 1.834 . S
C1237 C361 1.983 . S
C1252 C39 1.983 . S
C1287 N288 1.834 . S
C1302 N58 1.833 . S
C1337 C85 1.983 . S
C1352 C315 1.983 . S
C1387 N104 1.833 . S
C1402 N242 1.834 . S
C1437 C269 1.983 . S
C1452 C131 1.983 . S
C1487 N150 1.833 . S
C1502 N196 1.834 . S
C1537 C177 1.983 . S
C1552 C223 1.983 . S
C1587 C53 1.745 . S
C1602 C7 1.745 . S
C1637 N71 1.696 . S
C1652 N25 1.695 . S
C1687 C99 1.745 . S
C1702 C145 1.745 . S
C1737 N117 1.695 . S
C1752 N163 1.696 . S
C1787 C237 1.746 . S
C1802 C191 1.745 . S
C1837 N209 1.695 . S
C1852 N255 1.696 . S
C1887 C329 1.745 . S
C1902 C283 1.744 . S
C1937 N301 1.695 . S
C1952 N347 1.696 . S
