# Generated by pormake.
# Topology snp, (6)-cn, num edge types: 1
# Building blocks:
#     Node 0, Type 0, BuildingBlock: BETDIP_clean_sbu_0, # of connection points: 6
#     Node 1, Type 0, BuildingBlock: BETDIP_clean_sbu_0, # of connection points: 6
#     Node 2, Type 0, BuildingBlock: BETDIP_clean_sbu_0, # of connection points: 6
#     Node 3, Type 0, BuildingBlock: BETDIP_clean_sbu_0, # of connection points: 6
#     Edge 4, Type (0, 0), BuildingBlock: ZUJKAS_clean_linker_0, # of connection points: 2
#     Edge 5, Type (0, 0), BuildingBlock: ZUJKAS_clean_linker_0, # of connection points: 2
#     Edge 6, Type (0, 0), BuildingBlock: ZUJKAS_clean_linker_0, # of connection points: 2
#     Edge 7, Type (0, 0), BuildingBlock: ZUJKAS_clean_linker_0, # of connection points: 2
#     Edge 8, Type (0, 0), BuildingBlock: ZUJKAS_clean_linker_0, # of connection points: 2
#     Edge 9, Type (0, 0), BuildingBlock: ZUJKAS_clean_linker_0, # of connection points: 2
#     Edge 10, Type (0, 0), BuildingBlock: ZUJKAS_clean_linker_0, # of connection points: 2
#     Edge 11, Type (0, 0), BuildingBlock: ZUJKAS_clean_linker_0, # of connection points: 2
#     Edge 12, Type (0, 0), BuildingBlock: ZUJKAS_clean_linker_0, # of connection points: 2
#     Edge 13, Type (0, 0), BuildingBlock: ZUJKAS_clean_linker_0, # of connection points: 2
#     Edge 14, Type (0, 0), BuildingBlock: ZUJKAS_clean_linker_0, # of connection points: 2
#     Edge 15, Type (0, 0), BuildingBlock: ZUJKAS_clean_linker_0, # of connection points: 2
# Relax obj value: 0.542
# Max RMSD: 0.180
# Mean RMSD: 0.171
data_MOF--net-snp--node1-BETDIP_clean_sbu_0--edge1-ZUJKAS_clean_linker_0
_symmetry_space_group_name_H-M    P1
_symmetry_Int_Tables_number       1
_symmetry_cell_setting            triclinic
loop_
_symmetry_equiv_pos_as_xyz
'x, y, z'
_cell_length_a     32.128064
_cell_length_b     32.027813
_cell_length_c     36.449751
_cell_angle_alpha  92.169913
_cell_angle_beta   89.688767
_cell_angle_gamma 103.24766
loop_
_atom_site_label
_atom_site_type_symbol
_atom_site_fract_x
_atom_site_fract_y
_atom_site_fract_z
_atom_type_partial_charge
Tb0 Tb 0.24579 0.02293 0.15393 0.0
Tb1 Tb 0.24282 0.11005 1.1301 0.0
C2 C 0.27525 0.96233 0.17664 0.0
C3 C 0.30414 0.95466 0.20523 0.0
C4 C 0.3231 0.98733 0.23062 0.0
C5 C 0.3509 0.9793 0.25745 0.0
C6 C 0.36023 0.93852 0.25916 0.0
C7 C 0.34199 0.90636 0.23287 0.0
C8 C 0.31417 0.91442 0.20615 0.0
C9 C 0.16912 0.02767 1.13338 0.0
C10 C 0.22449 0.09326 0.21334 0.0
C11 C 0.23057 0.1783 1.10477 0.0
C12 C 0.255 0.21595 1.08608 0.0
C13 C 0.28547 0.21234 1.05913 0.0
C14 C 0.30643 0.24851 1.04047 0.0
C15 C 0.29738 0.28884 1.0486 0.0
C16 C 0.26815 0.29245 1.07673 0.0
C17 C 0.2471 0.25629 1.09521 0.0
C18 C 0.32104 0.09973 0.147 0.0
C19 C 0.23175 0.03392 1.06801 0.0
O20 O 0.29346 0.98828 0.15137 0.0
O21 O 0.23855 0.96981 0.18742 0.0
O22 O 0.19685 0.05687 0.14962 0.0
O23 O 0.18234 0.99222 1.13324 0.0
O24 O 0.24301 0.05994 0.20802 0.0
O25 O 0.21402 0.11237 0.18437 0.0
O26 O 0.22286 0.14149 1.08633 0.0
O27 O 0.24159 0.17484 0.13872 0.0
O28 O 0.29147 0.07372 1.13029 0.0
O29 O 0.30828 0.13479 0.15216 0.0
O30 O 0.23137 0.0745 1.07665 0.0
O31 O 0.23975 0.00796 1.09359 0.0
H32 H 0.31601 0.01878 0.22991 0.0
H33 H 0.36385 0.00457 0.27762 0.0
H34 H 0.34883 0.8748 0.23323 0.0
H35 H 0.30025 0.8891 0.18628 0.0
H36 H 0.29234 0.18149 1.05192 0.0
H37 H 0.32836 0.24452 1.01865 0.0
H38 H 0.2609 0.32311 1.08398 0.0
H39 H 0.22402 0.25971 1.11624 0.0
Tb40 Tb 0.00934 0.27743 0.62159 0.0
Tb41 Tb 0.09862 0.31603 0.64268 0.0
C42 C 0.93158 0.26778 0.60669 0.0
C43 C 0.89842 0.28042 0.58496 0.0
C44 C 0.86629 0.29529 0.60408 0.0
C45 C 0.83177 0.30411 0.58541 0.0
C46 C 0.82866 0.29816 0.54715 0.0
C47 C 0.86151 0.28435 0.52781 0.0
C48 C 0.89615 0.27541 0.5466 0.0
C49 C 0.05107 0.22272 0.64776 0.0
C50 C 0.07747 0.27499 0.55902 0.0
C51 C 0.17787 0.34466 0.6505 0.0
C52 C 0.20639 0.37573 0.67493 0.0
C53 C 0.24824 0.37127 0.68016 0.0
C54 C 0.27381 0.39537 0.70782 0.0
C55 C 0.25786 0.4244 0.73078 0.0
C56 C 0.21683 0.43094 0.72362 0.0
C57 C 0.19116 0.40657 0.69603 0.0
C58 C 0.04823 0.37171 0.64105 0.0
C59 C 0.03314 0.28772 0.70718 0.0
O60 O 0.95265 0.29727 0.62982 0.0
O61 O 0.95545 0.24358 0.59158 0.0
O62 O 0.06493 0.25379 0.62803 0.0
O63 O 0.01025 0.21886 0.65154 0.0
O64 O 0.03595 0.26965 0.5663 0.0
O65 O 0.10643 0.29126 0.5851 0.0
O66 O 0.1561 0.31064 0.66653 0.0
O67 O 0.15447 0.3601 0.62759 0.0
O68 O 0.04888 0.34157 0.61767 0.0
O69 O 0.07545 0.36996 0.66648 0.0
O70 O 0.0742 0.29445 0.69778 0.0
O71 O 0.00388 0.28774 0.68162 0.0
H72 H 0.86738 0.29918 0.63376 0.0
H73 H 0.80724 0.31509 0.60097 0.0
H74 H 0.85967 0.27899 0.49828 0.0
H75 H 0.92047 0.26378 0.5313 0.0
H76 H 0.26035 0.34741 0.66417 0.0
H77 H 0.30488 0.3889 0.71281 0.0
H78 H 0.20378 0.45338 0.74052 0.0
H79 H 0.15884 0.41041 0.69234 0.0
Tb80 Tb 0.84921 0.16215 0.15902 0.0
Tb81 Tb 0.85061 0.07381 1.13284 0.0
C82 C 0.82122 0.22554 0.18159 0.0
C83 C 0.78884 0.23577 0.20647 0.0
C84 C 0.78043 0.27673 0.20597 0.0
C85 C 0.74896 0.28725 0.22862 0.0
C86 C 0.72546 0.25692 0.25224 0.0
C87 C 0.73299 0.21526 0.25164 0.0
C88 C 0.76444 0.20471 0.22879 0.0
C89 C 0.92589 0.15503 0.13889 0.0
C90 C 0.86827 0.09407 0.2167 0.0
C91 C 0.86041 0.0034 1.10544 0.0
C92 C 0.83452 0.96579 1.08488 0.0
C93 C 0.82894 0.96643 1.04675 0.0
C94 C 0.80688 0.92975 1.02727 0.0
C95 C 0.79005 0.89155 1.04543 0.0
C96 C 0.79495 0.89117 1.08367 0.0
C97 C 0.81706 0.92789 1.10317 0.0
C98 C 0.77277 0.08631 0.15004 0.0
C99 C 0.86313 0.14681 1.0727 0.0
O100 O 0.80579 0.20079 0.15323 0.0
O101 O 0.85437 0.21491 0.19623 0.0
O102 O 0.89749 0.12707 0.15404 0.0
O103 O 0.91348 0.19091 0.14009 0.0
O104 O 0.84955 0.12701 0.21212 0.0
O105 O 0.87939 0.07399 0.18712 0.0
O106 O 0.87078 0.03965 1.08855 0.0
O107 O 0.84937 0.00891 0.1395 0.0
O108 O 0.80259 0.11103 1.13391 0.0
O109 O 0.78509 0.05131 0.15452 0.0
O110 O 0.86226 0.1063 1.08004 0.0
O111 O 0.85632 0.1743 1.09923 0.0
H112 H 0.79844 0.30071 0.18819 0.0
H113 H 0.74363 0.31942 0.22824 0.0
H114 H 0.71586 0.19136 0.26989 0.0
H115 H 0.77009 0.17263 0.22885 0.0
H116 H 0.84246 0.9949 1.03173 0.0
H117 H 0.80458 0.93089 0.99771 0.0
H118 H 0.78229 0.8623 1.09843 0.0
H119 H 0.82119 0.92633 1.13253 0.0
Tb120 Tb 0.98338 0.87404 0.63786 0.0
Tb121 Tb 0.07301 0.9029 0.61257 0.0
C122 C 0.90955 0.82691 0.64307 0.0
C123 C 0.88457 0.79906 0.67015 0.0
C124 C 0.83986 0.78987 0.66816 0.0
C125 C 0.8153 0.7672 0.69579 0.0
C126 C 0.83519 0.75336 0.72579 0.0
C127 C 0.88008 0.76076 0.72667 0.0
C128 C 0.90464 0.78364 0.69909 0.0
C129 C 0.01769 0.95362 0.65789 0.0
C130 C 0.05559 0.8875 0.69902 0.0
C131 C 0.15148 0.9346 0.60333 0.0
C132 C 0.18925 0.91821 0.59238 0.0
C133 C 0.19095 0.89768 0.55791 0.0
C134 C 0.22824 0.88603 0.54636 0.0
C135 C 0.26476 0.89407 0.56912 0.0
C136 C 0.26224 0.91273 0.60442 0.0
C137 C 0.22488 0.92488 0.61583 0.0
C138 C 0.03952 0.81847 0.60186 0.0
C139 C 0.0014 0.91914 0.55871 0.0
O140 O 0.94189 0.81389 0.62835 0.0
O141 O 0.91908 0.86795 0.65208 0.0
O142 O 0.02412 0.93459 0.62798 0.0
O143 O 0.98603 0.92924 0.67494 0.0
O144 O 0.01495 0.86809 0.69118 0.0
O145 O 0.08178 0.90526 0.6727 0.0
O146 O 0.12224 0.93312 0.57822 0.0
O147 O 0.13481 0.92329 0.63517 0.0
O148 O 0.03453 0.84247 0.62877 0.0
O149 O 0.06647 0.84187 0.58028 0.0
O150 O 0.04223 0.93121 0.56865 0.0
O151 O 0.97388 0.89349 0.58031 0.0
H152 H 0.82396 0.8015 0.64587 0.0
H153 H 0.78079 0.76184 0.69441 0.0
H154 H 0.89629 0.7511 0.74976 0.0
H155 H 0.9392 0.79062 0.70105 0.0
H156 H 0.16399 0.89185 0.53919 0.0
H157 H 0.22887 0.87274 0.51867 0.0
H158 H 0.28943 0.91899 0.62288 0.0
H159 H 0.22418 0.94046 0.64267 0.0
H160 H 0.95046 0.08044 1.12639 0.0
H161 H 0.98373 0.05866 1.07149 0.0
H162 H 0.99222 0.18366 1.02693 0.0
H163 H 0.96183 0.20643 1.0837 0.0
H164 H 0.05643 0.16541 1.00497 0.0
H165 H 0.95535 0.01286 0.97253 0.0
H166 H 0.93384 0.05223 0.99866 0.0
H167 H 0.95245 0.01042 1.02135 0.0
C168 C 0.95992 0.10333 1.10503 0.0
C169 C 0.95309 0.14473 1.109 0.0
C170 C 0.97769 0.09054 1.07288 0.0
C171 C 0.98807 0.11854 1.04346 0.0
C172 C 0.98335 0.16087 1.0484 0.0
H173 H 0.13238 0.97261 1.07763 0.0
H174 H 0.09895 0.99098 1.02246 0.0
C175 C 0.96658 0.17404 1.08114 0.0
C176 C 0.0103 0.10495 1.01083 0.0
H177 H 0.03256 0.00728 1.00378 0.0
C178 C 0.05063 0.13073 1.00259 0.0
C179 C 0.00298 0.06073 1.00118 0.0
C180 C 0.95842 0.03281 0.99838 0.0
C181 C 0.08566 0.11164 0.9996 0.0
C182 C 0.07899 0.06815 1.00872 0.0
C183 C 0.03816 0.04181 1.00188 0.0
C184 C 0.10311 0.05718 1.04021 0.0
C185 C 0.12996 0.13929 0.9953 0.0
C186 C 0.11451 0.08728 1.06988 0.0
C187 C 0.1337 0.07689 1.10126 0.0
C188 C 0.14114 0.03591 1.10415 0.0
C189 C 0.12711 0.0047 1.07594 0.0
C190 C 0.10865 0.01537 1.04405 0.0
H191 H 0.13122 0.15781 0.97002 0.0
H192 H 0.13765 0.16296 1.01874 0.0
H193 H 0.15442 0.11976 0.99353 0.0
H194 H 0.10804 0.11895 1.06934 0.0
H195 H 0.14364 0.10125 1.1229 0.0
H196 H 0.02295 0.96844 0.73176 0.0
H197 H 0.08376 0.00732 0.76699 0.0
H198 H 0.1488 0.04833 0.66526 0.0
H199 H 0.08999 0.00467 0.63094 0.0
H200 H 0.12327 0.06572 0.79358 0.0
H201 H 0.25409 0.08315 0.71268 0.0
H202 H 0.22328 0.08025 0.67171 0.0
H203 H 0.21418 0.03476 0.70159 0.0
C204 C 0.05053 0.98587 0.71709 0.0
C205 C 0.0517 0.98389 0.67856 0.0
C206 C 0.08589 0.00813 0.73741 0.0
C207 C 0.12259 0.03154 0.71982 0.0
C208 C 0.12279 0.02999 0.68086 0.0
H209 H 0.13709 0.23378 0.64399 0.0
H210 H 0.18396 0.21006 0.68672 0.0
C211 C 0.08819 0.00597 0.66065 0.0
C212 C 0.15599 0.06371 0.74131 0.0
H213 H 0.20843 0.15082 0.69767 0.0
C214 C 0.14182 0.08411 0.77234 0.0
C215 C 0.18999 0.08944 0.72198 0.0
C216 C 0.22181 0.07035 0.70065 0.0
C217 C 0.14384 0.12829 0.77174 0.0
C218 C 0.1595 0.14975 0.73953 0.0
C219 C 0.18966 0.13288 0.71905 0.0
C220 C 0.13251 0.17388 0.71962 0.0
C221 C 0.12454 0.14998 0.80264 0.0
C222 C 0.08752 0.16285 0.72366 0.0
C223 C 0.06095 0.17858 0.70036 0.0
C224 C 0.07847 0.20439 0.67156 0.0
C225 C 0.12297 0.21491 0.66681 0.0
C226 C 0.1498 0.20095 0.69117 0.0
H227 H 0.14142 0.14716 0.82861 0.0
H228 H 0.12697 0.1845 0.79782 0.0
H229 H 0.09052 0.13341 0.80642 0.0
H230 H 0.07216 0.1403 0.74363 0.0
H231 H 0.02667 0.16987 0.70449 0.0
H232 H 0.70921 0.04304 0.19368 0.0
H233 H 0.63385 0.04629 0.19545 0.0
H234 H 0.65693 0.13909 1.11058 0.0
H235 H 0.73303 0.13801 1.11081 0.0
H236 H 0.60358 0.1608 0.1529 0.0
H237 H 0.5416 0.98637 1.13068 0.0
H238 H 0.57226 0.99742 0.1722 0.0
H239 H 0.59787 0.01077 1.12861 0.0
C240 C 0.6982 0.06427 0.1755 0.0
C241 C 0.72717 0.08996 0.15188 0.0
C242 C 0.65476 0.06572 0.17614 0.0
C243 C 0.63851 0.09173 0.15217 0.0
C244 C 0.6679 0.11831 1.12921 0.0
H245 H 0.36209 0.04719 1.10628 0.0
H246 H 0.43828 0.04658 1.10706 0.0
C247 C 0.71162 0.11768 1.12928 0.0
C248 C 0.59137 0.09179 0.15134 0.0
H249 H 0.49049 0.02636 0.14931 0.0
C250 C 0.579 0.13126 0.15181 0.0
C251 C 0.55849 0.05353 0.14916 0.0
C252 C 0.56824 0.00971 0.1447 0.0
C253 C 0.5356 0.13361 0.15054 0.0
C254 C 0.50268 0.09537 0.15065 0.0
C255 C 0.51506 0.05591 0.14979 0.0
C256 C 0.45551 0.09539 0.15069 0.0
C257 C 0.52595 0.17732 0.14764 0.0
C258 C 0.43855 0.12213 0.17535 0.0
C259 C 0.39505 0.12331 0.17414 0.0
C260 C 0.36672 0.09659 0.14923 0.0
C261 C 0.38298 0.06826 1.12579 0.0
C262 C 0.42677 0.06792 1.1263 0.0
H263 H 0.55293 0.20025 1.13493 0.0
H264 H 0.49674 0.17578 1.13103 0.0
H265 H 0.52123 0.19044 0.17556 0.0
H266 H 0.4589 0.14231 0.19568 0.0
H267 H 0.38348 0.14506 0.19295 0.0
H268 H 0.03583 0.43164 0.69172 0.0
H269 H 0.02709 0.50423 0.68219 0.0
H270 H 0.02899 0.48053 0.56499 0.0
H271 H 0.03597 0.40687 0.57467 0.0
H272 H 0.07987 0.56764 0.65445 0.0
H273 H 0.93366 0.54022 0.5689 0.0
H274 H 0.9496 0.49719 0.59147 0.0
H275 H 0.97385 0.51605 0.54869 0.0
C276 C 0.0333 0.4415 0.66386 0.0
C277 C 0.03621 0.41317 0.634 0.0
C278 C 0.02858 0.48332 0.65839 0.0
C279 C 0.027 0.49853 0.62282 0.0
C280 C 0.02895 0.46982 0.59279 0.0
H281 H 0.05773 0.76239 0.54863 0.0
H282 H 0.05276 0.68494 0.55277 0.0
C283 C 0.03307 0.42752 0.59831 0.0
C284 C 0.02638 0.54504 0.61779 0.0
H285 H 0.97485 0.61238 0.57447 0.0
C286 C 0.05658 0.57711 0.63711 0.0
C287 C -0.00376 0.55824 0.59514 0.0
C288 C 0.96124 0.52613 0.57516 0.0
C289 C 0.05766 0.6212 0.63431 0.0
C290 C 0.02784 0.63428 0.61153 0.0
C291 C -0.00217 0.60252 0.59191 0.0
C292 C 0.02766 0.68086 0.608 0.0
C293 C 0.09115 0.65375 0.6555 0.0
C294 C 0.01444 0.70456 0.63734 0.0
C295 C 0.01687 0.74883 0.6349 0.0
C296 C 0.03298 0.77069 0.60315 0.0
C297 C 0.04522 0.74669 0.57349 0.0
C298 C 0.04236 0.70232 0.57581 0.0
H299 H 0.11597 0.63912 0.66741 0.0
H300 H 0.10694 0.6799 0.63748 0.0
H301 H 0.07559 0.6684 0.67827 0.0
H302 H 0.00275 0.68888 0.66241 0.0
H303 H 0.00713 0.76616 0.65828 0.0
H304 H 0.15922 0.28743 0.52946 0.0
H305 H 0.18298 0.2558 0.47305 0.0
H306 H 0.0534 0.18673 0.4509 0.0
H307 H 0.0294 0.21993 0.5062 0.0
H308 H 0.18862 0.18203 0.44838 0.0
H309 H 0.07611 0.22678 0.3517 0.0
H310 H 0.0808 0.24686 0.39865 0.0
H311 H 0.04817 0.19427 0.38697 0.0
C312 C 0.13549 0.26609 0.51233 0.0
C313 C 0.09197 0.25727 0.52276 0.0
C314 C 0.14929 0.24754 0.47979 0.0
C315 C 0.12034 0.21899 0.45615 0.0
C316 C 0.0769 0.2096 0.467 0.0
H317 H 0.21743 0.05483 0.28237 0.0
H318 H 0.19251 0.0819 0.34078 0.0
C319 C 0.063 0.22865 0.49923 0.0
C320 C 0.13575 0.1987 0.42109 0.0
H321 H 0.11484 0.17667 0.32882 0.0
C322 C 0.17233 0.18117 0.4223 0.0
C323 C 0.1156 0.19724 0.38614 0.0
C324 C 0.0783 0.21767 0.38062 0.0
C325 C 0.18877 0.16274 0.39069 0.0
C326 C 0.16784 0.16018 0.35601 0.0
C327 C 0.1313 0.17773 0.35484 0.0
C328 C 0.18423 0.14224 0.32029 0.0
C329 C 0.22955 0.14761 0.39481 0.0
C330 C 0.18754 0.16562 0.28797 0.0
C331 C 0.20116 0.14975 0.2544 0.0
C332 C 0.21246 0.10956 0.25107 0.0
C333 C 0.20969 0.08602 0.28337 0.0
C334 C 0.19551 0.10187 0.3172 0.0
H335 H 0.24816 0.16303 0.41928 0.0
H336 H 0.22156 0.11243 0.39842 0.0
H337 H 0.25013 0.15455 0.3702 0.0
H338 H 0.17957 0.19671 0.28855 0.0
H339 H 0.2027 0.16942 0.23069 0.0
H340 H 0.95041 0.26546 0.73251 0.0
H341 H 0.9238 0.24322 0.793 0.0
H342 H 0.05305 0.26067 0.8323 0.0
H343 H 0.0801 0.28157 0.77067 0.0
H344 H 0.00833 0.19264 0.86233 0.0
H345 H 0.90985 0.31153 0.88184 0.0
H346 H 0.89352 0.27887 0.84119 0.0
H347 H 0.94644 0.31343 0.844 0.0
C348 C 0.97358 0.26516 0.75391 0.0
C349 C 0.01783 0.27632 0.74607 0.0
C350 C 0.95804 0.25257 0.7891 0.0
C351 C 0.98589 0.25117 0.8186 0.0
C352 C 0.03025 0.26169 0.81078 0.0
H353 H 0.88681 0.23031 1.04829 0.0
H354 H 0.91755 0.25494 0.98897 0.0
C355 C 0.04591 0.27402 0.77525 0.0
C356 C 0.96854 0.2377 0.85679 0.0
H357 H 0.895 0.25285 0.92223 0.0
C358 C 0.9837 0.20616 0.87531 0.0
C359 C 0.93683 0.25535 0.87518 0.0
C360 C 0.92108 0.29198 0.85971 0.0
C361 C 0.96775 0.19138 0.9102 0.0
C362 C 0.93423 0.20723 0.92758 0.0
C363 C 0.91992 0.23958 0.90947 0.0
C364 C 0.91423 0.19158 0.96445 0.0
C365 C 0.98842 0.15984 0.92855 0.0
C366 C 0.90046 0.14745 0.97152 0.0
C367 C 0.88296 0.13324 1.00585 0.0
C368 C 0.87751 0.16241 1.0346 0.0
C369 C 0.88983 0.20652 1.02717 0.0
C370 C 0.90779 0.22075 0.9929 0.0
H371 H 0.02175 0.16245 0.91889 0.0
H372 H 0.98905 0.16508 0.95879 0.0
H373 H 0.97013 0.12668 0.9217 0.0
H374 H 0.9031 0.12356 0.9504 0.0
H375 H 0.87409 0.09903 1.00994 0.0
H376 H 0.91876 0.90766 0.53038 0.0
H377 H 0.89454 0.93867 0.47614 0.0
H378 H 0.02439 0.0038 0.45358 0.0
H379 H 0.04858 0.97361 0.50822 0.0
H380 H 0.97554 0.05715 0.43939 0.0
H381 H 0.89612 0.90292 0.37093 0.0
H382 H 0.87438 0.90992 0.41553 0.0
H383 H 0.9291 0.90548 0.41115 0.0
C384 C 0.9424 0.92834 0.51388 0.0
C385 C 0.986 0.93738 0.52428 0.0
C386 C 0.9284 0.9461 0.48229 0.0
C387 C 0.95732 0.97347 0.4593 0.0
C388 C 0.00081 0.98292 0.47001 0.0
H389 H 0.90512 0.02694 0.2307 0.0
H390 H 0.92527 1.0014 0.28842 0.0
C391 C 0.01481 0.96525 0.50159 0.0
C392 C 0.9426 0.99234 0.42465 0.0
H393 H 0.88446 0.9657 0.34448 0.0
C394 C 0.95555 0.03688 0.41878 0.0
C395 C 0.91689 0.9668 0.3966 0.0
C396 C 0.90365 0.91861 0.39857 0.0
C397 C 0.94359 0.05605 0.38688 0.0
C398 C 0.9169 0.03059 0.35934 0.0
C399 C 0.90428 0.98606 0.36513 0.0
C400 C 0.90406 0.04839 0.32341 0.0
C401 C 0.96113 0.10345 0.3825 0.0
C402 C 0.88455 0.0839 0.32219 0.0
C403 C 0.87268 0.09908 0.2883 0.0
C404 C 0.87971 0.07929 0.25419 0.0
C405 C 0.89888 0.04369 0.25576 0.0
C406 C 0.91056 0.02866 0.2893 0.0
H407 H 0.98972 0.116 0.40011 0.0
H408 H 0.96998 0.11052 0.35353 0.0
H409 H 0.93633 0.121 0.39075 0.0
H410 H 0.87781 0.09972 0.34754 0.0
H411 H 0.85793 0.12628 0.2889 0.0
H412 H 0.01156 0.87704 0.76595 0.0
H413 H 0.04026 0.898 0.82829 0.0
H414 H 0.1666 0.93991 0.78354 0.0
H415 H 0.13861 0.91856 0.72204 0.0
H416 H 0.0799 0.97477 0.86047 0.0
H417 H 0.19442 0.87023 0.86496 0.0
H418 H 0.20303 0.90374 0.82605 0.0
H419 H 0.15389 0.86361 0.8298 0.0
C420 C 0.04561 0.88976 0.76941 0.0
C421 C 0.0725 0.89515 0.73832 0.0
C422 C 0.06212 0.90224 0.8053 0.0
C423 C 0.10618 0.92011 0.81155 0.0
C424 C 0.13287 0.92525 0.78047 0.0
H425 H 0.21136 0.94937 1.03984 0.0
H426 H 0.18023 0.92213 0.9797 0.0
C427 C 0.1165 0.91295 0.74482 0.0
C428 C 0.12422 0.93467 0.84992 0.0
H429 H 0.20328 0.92663 0.91097 0.0
C430 C 0.10674 0.96392 0.87143 0.0
C431 C 0.15912 0.92067 0.86531 0.0
C432 C 0.17846 0.88751 0.84552 0.0
C433 C 0.12331 0.97991 0.90666 0.0
C434 C 0.15938 0.96727 0.92147 0.0
C435 C 0.17617 0.93721 0.90026 0.0
C436 C 0.17981 0.98437 0.95866 0.0
C437 C 0.10086 0.00943 0.92801 0.0
C438 C 0.19167 0.02877 0.96774 0.0
C439 C 0.2096 0.04446 1.00235 0.0
C440 C 0.21718 0.01658 1.02946 0.0
C441 C 0.20666 0.97221 1.02001 0.0
C442 C 0.18846 0.95648 0.98534 0.0
H443 H 0.06701 0.00479 0.91917 0.0
H444 H 0.10145 0.004 0.9578 0.0
H445 H 0.11713 0.04326 0.92326 0.0
H446 H 0.18714 0.05172 0.94798 0.0
H447 H 0.21699 0.0788 1.008 0.0
H448 H 0.73591 0.88181 0.98651 0.0
H449 H 0.72122 0.82177 0.94196 0.0
H450 H 0.78606 0.75007 1.01093 0.0
H451 H 0.80264 0.81098 1.05491 0.0
H452 H 0.8237 0.76308 0.94779 0.0
H453 H 0.65281 0.70315 0.918 0.0
H454 H 0.66464 0.7606 0.91961 0.0
H455 H 0.67164 0.73252 0.96033 0.0
C456 C 0.74613 0.85286 0.99264 0.0
C457 C 0.77129 0.85154 1.02379 0.0
C458 C 0.73696 0.8181 0.96744 0.0
C459 C 0.75227 0.78114 0.97314 0.0
C460 C 0.77365 0.77812 1.00609 0.0
H461 H 0.84029 0.68445 0.76682 0.0
H462 H 0.81037 0.66955 0.82836 0.0
C463 C 0.7831 0.81303 1.03123 0.0
C464 C 0.75542 0.75186 0.94129 0.0
H465 H 0.70097 0.70897 0.86363 0.0
C466 C 0.79668 0.74963 0.92993 0.0
C467 C 0.72019 0.73403 0.91815 0.0
C468 C 0.67483 0.73235 0.92997 0.0
C469 C 0.80438 0.73559 0.89424 0.0
C470 C 0.76952 0.72226 0.86957 0.0
C471 C 0.7277 0.71956 0.88242 0.0
C472 C 0.77682 0.72099 0.82943 0.0
C473 C 0.85023 0.7399 0.88223 0.0
C474 C 0.76491 0.75235 0.80861 0.0
C475 C 0.78126 0.76037 0.77346 0.0
C476 C 0.81005 0.73732 0.75858 0.0
C477 C 0.8187 0.70313 0.77799 0.0
C478 C 0.80169 0.69463 0.81307 0.0
H479 H 0.8735 0.75563 0.9038 0.0
H480 H 0.85604 0.70761 0.87573 0.0
H481 H 0.85678 0.75902 0.85719 0.0
H482 H 0.74577 0.7731 0.82063 0.0
H483 H 0.77415 0.78704 0.75928 0.0
H484 H 0.43308 0.98837 0.29108 0.0
H485 H 0.46288 0.97822 0.35091 0.0
H486 H 0.37228 0.85641 0.35795 0.0
H487 H 0.34282 0.86621 0.29876 0.0
H488 H 0.41185 0.97891 0.40582 0.0
H489 H 0.468 0.83087 0.41584 0.0
H490 H 0.46545 0.85571 0.37241 0.0
H491 H 0.41934 0.8184 0.38985 0.0
C492 C 0.42045 0.95886 0.30499 0.0
C493 C 0.38511 0.92844 0.2905 0.0
C494 C 0.43786 0.95286 0.33895 0.0
C495 C 0.42014 0.91639 0.35895 0.0
C496 C 0.38749 0.88425 0.34282 0.0
H497 H 0.2783 0.83063 0.52072 0.0
H498 H 0.3381 0.8377 0.47872 0.0
C499 C 0.37025 0.89013 0.30891 0.0
C500 C 0.42646 0.91682 0.39926 0.0
H501 H 0.42145 0.84641 0.46785 0.0
C502 C 0.41569 0.9507 0.41977 0.0
C503 C 0.43214 0.88037 0.41753 0.0
C504 C 0.44736 0.84458 0.39762 0.0
C505 C 0.40343 0.94629 0.45659 0.0
C506 C 0.40359 0.90724 0.47376 0.0
C507 C 0.42061 0.87601 0.45466 0.0
C508 C 0.37659 0.89441 0.50649 0.0
C509 C 0.38525 0.9814 0.47483 0.0
C510 C 0.37987 0.92119 0.53824 0.0
C511 C 0.3445 0.91864 0.56133 0.0
C512 C 0.30615 0.88801 0.55372 0.0
C513 C 0.30642 0.8561 0.52618 0.0
C514 C 0.34108 0.85965 0.50243 0.0
H515 H 0.38339 0.00728 0.45587 0.0
H516 H 0.35253 0.96805 0.48521 0.0
H517 H 0.40587 0.99632 0.4983 0.0
H518 H 0.40789 0.94695 0.54298 0.0
H519 H 0.34608 0.9433 0.58275 0.0
H520 H 0.34455 0.45488 0.74174 0.0
H521 H 0.38185 0.4629 0.80101 0.0
H522 H 0.26059 0.43978 0.85695 0.0
H523 H 0.22334 0.43137 0.79853 0.0
H524 H 0.32947 0.49756 0.89661 0.0
H525 H 0.37022 0.34482 0.84645 0.0
H526 H 0.38856 0.39243 0.82088 0.0
H527 H 0.33253 0.36742 0.822 0.0
C528 C 0.32593 0.4526 0.76674 0.0
C529 C 0.28091 0.44159 0.76533 0.0
C530 C 0.34731 0.45736 0.80054 0.0
C531 C 0.32389 0.45104 0.83325 0.0
C532 C 0.27927 0.44481 0.83199 0.0
H533 H 0.25491 0.34585 1.02235 0.0
H534 H 0.27881 0.39846 0.97618 0.0
C535 C 0.25795 0.44008 0.79839 0.0
C536 C 0.34362 0.44246 0.8679 0.0
H537 H 0.36885 0.3579 0.90933 0.0
C538 C 0.33952 0.46773 0.89942 0.0
C539 C 0.35734 0.40383 0.87147 0.0
C540 C 0.36242 0.37532 0.83855 0.0
C541 C 0.34456 0.45319 0.93461 0.0
C542 C 0.35284 0.41201 0.93815 0.0
C543 C 0.36206 0.38929 0.90664 0.0
C544 C 0.34297 0.38791 0.97227 0.0
C545 C 0.33846 0.48099 0.96758 0.0
C546 C 0.371 0.36423 0.98577 0.0
C547 C 0.3571 0.33347 1.01213 0.0
C548 C 0.3149 0.32585 1.02535 0.0
C549 C 0.28783 0.35137 1.01331 0.0
C550 C 0.30163 0.38187 0.98698 0.0
H551 H 0.35138 0.51544 0.96215 0.0
H552 H 0.30376 0.47668 0.97314 0.0
H553 H 0.35435 0.47276 0.9924 0.0
H554 H 0.40289 0.36803 0.97456 0.0
H555 H 0.37884 0.31461 1.02119 0.0
H556 H 0.64649 0.21316 0.27596 0.0
H557 H 0.61188 0.22758 0.33362 0.0
H558 H 0.70977 0.34397 0.35134 0.0
H559 H 0.74294 0.33045 0.29425 0.0
H560 H 0.64931 0.22012 0.39081 0.0
H561 H 0.6226 0.38009 0.41088 0.0
H562 H 0.62367 0.35663 0.36507 0.0
H563 H 0.67178 0.38926 0.38615 0.0
C564 C 0.65947 0.24262 0.29167 0.0
C565 C 0.69784 0.27029 0.28096 0.0
C566 C 0.63946 0.25107 0.32443 0.0
C567 C 0.65793 0.28694 0.34717 0.0
C568 C 0.69371 0.31672 0.33427 0.0
H569 H 0.82537 0.33792 0.48277 0.0
H570 H 0.76198 0.33744 0.44606 0.0
C571 C 0.71325 0.30862 0.30148 0.0
C572 C 0.64932 0.28726 0.38728 0.0
H573 H 0.67734 0.36153 0.45739 0.0
C574 C 0.65304 0.25062 0.40584 0.0
C575 C 0.65228 0.32624 0.40779 0.0
C576 C 0.64179 0.36499 0.39121 0.0
C577 C 0.66924 0.25422 0.44169 0.0
C578 C 0.68147 0.29541 0.45908 0.0
C579 C 0.6694 0.3302 0.4434 0.0
C580 C 0.71706 0.30441 0.48578 0.0
C581 C 0.67921 0.21516 0.45835 0.0
C582 C 0.71263 0.28719 0.52073 0.0
C583 C 0.74899 0.28693 0.54157 0.0
C584 C 0.79015 0.30393 0.52766 0.0
C585 C 0.79415 0.32389 0.49383 0.0
C586 C 0.75791 0.32418 0.47312 0.0
H587 H 0.6667 0.18535 0.44145 0.0
H588 H 0.71436 0.21954 0.46127 0.0
H589 H 0.66489 0.21087 0.4861 0.0
H590 H 0.68135 0.27183 0.53093 0.0
H591 H 0.74493 0.27125 0.56758 0.0
loop_
_geom_bond_atom_site_label_1
_geom_bond_atom_site_label_2
_geom_bond_distance
_geom_bond_site_symmetry_2
_ccdc_geom_bond_type
Tb0 C2 2.809 . S
Tb0 O20 2.484 . S
Tb0 O21 2.440 . S
Tb0 O22 2.658 1_554 S
Tb0 O23 2.409 . S
Tb0 O24 2.378 . S
Tb0 O28 2.325 . S
Tb0 O31 2.341 1_554 S
Tb1 C11 2.809 . S
Tb1 O22 2.325 . S
Tb1 O25 2.341 1_556 S
Tb1 O26 2.484 . S
Tb1 O27 2.440 . S
Tb1 O28 2.658 1_556 S
Tb1 O29 2.409 . S
Tb1 O30 2.378 . S
C2 Tb0 2.809 . S
C2 C3 1.514 . S
C2 O20 1.248 . S
C2 O21 1.266 . S
C3 C2 1.514 . S
C3 C4 1.359 . S
C3 C8 1.348 . S
C4 C3 1.359 . S
C4 C5 1.380 . S
C4 H32 0.929 . S
C5 C4 1.380 . S
C5 C6 1.347 . S
C5 H33 0.931 . S
C6 C5 1.347 . S
C6 C7 1.369 . S
C7 C6 1.369 . S
C7 C8 1.408 . S
C7 H34 0.930 . S
C8 C3 1.348 . S
C8 C7 1.408 . S
C8 H35 0.930 . S
C9 O22 1.281 1_554 S
C9 O23 1.254 . S
C10 O24 1.236 . S
C10 O25 1.266 . S
C11 Tb1 2.809 . S
C11 C12 1.514 . S
C11 O26 1.248 . S
C11 O27 1.266 . S
C12 C11 1.514 . S
C12 C13 1.359 . S
C12 C17 1.348 . S
C13 C12 1.359 . S
C13 C14 1.380 . S
C13 H36 0.929 . S
C14 C13 1.380 . S
C14 C15 1.347 . S
C14 H37 0.931 . S
C15 C14 1.347 . S
C15 C16 1.369 . S
C16 C15 1.369 . S
C16 C17 1.408 . S
C16 H38 0.930 . S
C17 C12 1.348 . S
C17 C16 1.408 . S
C17 H39 0.930 . S
C18 O28 1.281 . S
C18 O29 1.254 1_554 S
C19 O30 1.236 . S
C19 O31 1.266 . S
O20 Tb0 2.484 . S
O20 C2 1.248 . S
O21 Tb0 2.440 . S
O21 C2 1.266 . S
O22 Tb0 2.658 1_556 S
O22 Tb1 2.325 . S
O22 C9 1.281 1_556 S
O23 Tb0 2.409 . S
O23 C9 1.254 . S
O24 Tb0 2.378 . S
O24 C10 1.236 . S
O25 Tb1 2.341 1_554 S
O25 C10 1.266 . S
O26 Tb1 2.484 . S
O26 C11 1.248 . S
O27 Tb1 2.440 . S
O27 C11 1.266 . S
O28 Tb0 2.325 . S
O28 Tb1 2.658 1_554 S
O28 C18 1.281 . S
O29 Tb1 2.409 . S
O29 C18 1.254 1_556 S
O30 Tb1 2.378 . S
O30 C19 1.236 . S
O31 Tb0 2.341 1_556 S
O31 C19 1.266 . S
H32 C4 0.929 . S
H33 C5 0.931 . S
H34 C7 0.930 . S
H35 C8 0.930 . S
H36 C13 0.929 . S
H37 C14 0.931 . S
H38 C16 0.930 . S
H39 C17 0.930 . S
Tb40 C42 2.809 . S
Tb40 O60 2.484 . S
Tb40 O61 2.440 . S
Tb40 O62 2.658 1_655 S
Tb40 O63 2.409 1_655 S
Tb40 O64 2.378 1_655 S
Tb40 O68 2.325 1_655 S
Tb40 O71 2.341 . S
Tb41 C51 2.809 . S
Tb41 O62 2.325 . S
Tb41 O65 2.341 . S
Tb41 O66 2.484 . S
Tb41 O67 2.440 . S
Tb41 O68 2.658 . S
Tb41 O69 2.409 . S
Tb41 O70 2.378 . S
C42 Tb40 2.809 . S
C42 C43 1.514 . S
C42 O60 1.248 . S
C42 O61 1.266 . S
C43 C42 1.514 . S
C43 C44 1.359 . S
C43 C48 1.348 . S
C44 C43 1.359 . S
C44 C45 1.380 . S
C44 H72 0.929 . S
C45 C44 1.380 . S
C45 C46 1.347 . S
C45 H73 0.931 . S
C46 C45 1.347 . S
C46 C47 1.369 . S
C47 C46 1.369 . S
C47 C48 1.408 . S
C47 H74 0.930 . S
C48 C43 1.348 . S
C48 C47 1.408 . S
C48 H75 0.930 . S
C49 O62 1.281 . S
C49 O63 1.254 . S
C50 O64 1.236 . S
C50 O65 1.266 . S
C51 Tb41 2.809 . S
C51 C52 1.514 . S
C51 O66 1.248 . S
C51 O67 1.266 . S
C52 C51 1.514 . S
C52 C53 1.359 . S
C52 C57 1.348 . S
C53 C52 1.359 . S
C53 C54 1.380 . S
C53 H76 0.929 . S
C54 C53 1.380 . S
C54 C55 1.347 . S
C54 H77 0.931 . S
C55 C54 1.347 . S
C55 C56 1.369 . S
C56 C55 1.369 . S
C56 C57 1.408 . S
C56 H78 0.930 . S
C57 C52 1.348 . S
C57 C56 1.408 . S
C57 H79 0.930 . S
C58 O68 1.281 . S
C58 O69 1.254 . S
C59 O70 1.236 . S
C59 O71 1.266 1_455 S
O60 Tb40 2.484 . S
O60 C42 1.248 . S
O61 Tb40 2.440 . S
O61 C42 1.266 . S
O62 Tb40 2.658 1_455 S
O62 Tb41 2.325 . S
O62 C49 1.281 . S
O63 Tb40 2.409 1_455 S
O63 C49 1.254 . S
O64 Tb40 2.378 1_455 S
O64 C50 1.236 . S
O65 Tb41 2.341 . S
O65 C50 1.266 . S
O66 Tb41 2.484 . S
O66 C51 1.248 . S
O67 Tb41 2.440 . S
O67 C51 1.266 . S
O68 Tb40 2.325 1_455 S
O68 Tb41 2.658 . S
O68 C58 1.281 . S
O69 Tb41 2.409 . S
O69 C58 1.254 . S
O70 Tb41 2.378 . S
O70 C59 1.236 . S
O71 Tb40 2.341 . S
O71 C59 1.266 1_655 S
H72 C44 0.929 . S
H73 C45 0.931 . S
H74 C47 0.930 . S
H75 C48 0.930 . S
H76 C53 0.929 . S
H77 C54 0.931 . S
H78 C56 0.930 . S
H79 C57 0.930 . S
Tb80 C82 2.809 . S
Tb80 O100 2.484 . S
Tb80 O101 2.440 . S
Tb80 O102 2.658 1_554 S
Tb80 O103 2.409 . S
Tb80 O104 2.378 . S
Tb80 O108 2.325 . S
Tb80 O111 2.341 1_554 S
Tb81 C91 2.809 . S
Tb81 O102 2.325 1_565 S
Tb81 O105 2.341 1_556 S
Tb81 O106 2.484 . S
Tb81 O107 2.440 . S
Tb81 O108 2.658 1_566 S
Tb81 O109 2.409 . S
Tb81 O110 2.378 1_565 S
C82 Tb80 2.809 . S
C82 C83 1.514 . S
C82 O100 1.248 . S
C82 O101 1.266 . S
C83 C82 1.514 . S
C83 C84 1.359 . S
C83 C88 1.348 . S
C84 C83 1.359 . S
C84 C85 1.380 . S
C84 H112 0.929 . S
C85 C84 1.380 . S
C85 C86 1.347 . S
C85 H113 0.931 . S
C86 C85 1.347 . S
C86 C87 1.369 . S
C87 C86 1.369 . S
C87 C88 1.408 . S
C87 H114 0.930 . S
C88 C83 1.348 . S
C88 C87 1.408 . S
C88 H115 0.930 . S
C89 O102 1.281 1_554 S
C89 O103 1.254 . S
C90 O104 1.236 1_565 S
C90 O105 1.266 . S
C91 Tb81 2.809 . S
C91 C92 1.514 . S
C91 O106 1.248 . S
C91 O107 1.266 . S
C92 C91 1.514 . S
C92 C93 1.359 . S
C92 C97 1.348 . S
C93 C92 1.359 . S
C93 C94 1.380 . S
C93 H116 0.929 . S
C94 C93 1.380 . S
C94 C95 1.347 . S
C94 H117 0.931 . S
C95 C94 1.347 . S
C95 C96 1.369 . S
C96 C95 1.369 . S
C96 C97 1.408 . S
C96 H118 0.930 . S
C97 C92 1.348 . S
C97 C96 1.408 . S
C97 H119 0.930 . S
C98 O108 1.281 . S
C98 O109 1.254 1_544 S
C99 O110 1.236 . S
C99 O111 1.266 . S
O100 Tb80 2.484 . S
O100 C82 1.248 . S
O101 Tb80 2.440 . S
O101 C82 1.266 . S
O102 Tb80 2.658 1_556 S
O102 Tb81 2.325 1_545 S
O102 C89 1.281 1_556 S
O103 Tb80 2.409 . S
O103 C89 1.254 . S
O104 Tb80 2.378 . S
O104 C90 1.236 1_545 S
O105 Tb81 2.341 1_554 S
O105 C90 1.266 . S
O106 Tb81 2.484 . S
O106 C91 1.248 . S
O107 Tb81 2.440 . S
O107 C91 1.266 . S
O108 Tb80 2.325 . S
O108 Tb81 2.658 1_544 S
O108 C98 1.281 . S
O109 Tb81 2.409 . S
O109 C98 1.254 1_566 S
O110 Tb81 2.378 1_545 S
O110 C99 1.236 . S
O111 Tb80 2.341 1_556 S
O111 C99 1.266 . S
H112 C84 0.929 . S
H113 C85 0.931 . S
H114 C87 0.930 . S
H115 C88 0.930 . S
H116 C93 0.929 . S
H117 C94 0.931 . S
H118 C96 0.930 . S
H119 C97 0.930 . S
Tb120 C122 2.809 . S
Tb120 O140 2.484 . S
Tb120 O141 2.440 . S
Tb120 O142 2.658 1_655 S
Tb120 O143 2.409 1_655 S
Tb120 O144 2.378 1_655 S
Tb120 O148 2.325 1_655 S
Tb120 O151 2.341 . S
Tb121 C131 2.809 . S
Tb121 O142 2.325 . S
Tb121 O145 2.341 . S
Tb121 O146 2.484 . S
Tb121 O147 2.440 . S
Tb121 O148 2.658 . S
Tb121 O149 2.409 . S
Tb121 O150 2.378 . S
C122 Tb120 2.809 . S
C122 C123 1.514 . S
C122 O140 1.248 . S
C122 O141 1.266 . S
C123 C122 1.514 . S
C123 C124 1.359 . S
C123 C128 1.348 . S
C124 C123 1.359 . S
C124 C125 1.380 . S
C124 H152 0.929 . S
C125 C124 1.380 . S
C125 C126 1.347 . S
C125 H153 0.931 . S
C126 C125 1.347 . S
C126 C127 1.369 . S
C127 C126 1.369 . S
C127 C128 1.408 . S
C127 H154 0.930 . S
C128 C123 1.348 . S
C128 C127 1.408 . S
C128 H155 0.930 . S
C129 O142 1.281 . S
C129 O143 1.254 . S
C130 O144 1.236 . S
C130 O145 1.266 . S
C131 Tb121 2.809 . S
C131 C132 1.514 . S
C131 O146 1.248 . S
C131 O147 1.266 . S
C132 C131 1.514 . S
C132 C133 1.359 . S
C132 C137 1.348 . S
C133 C132 1.359 . S
C133 C134 1.380 . S
C133 H156 0.929 . S
C134 C133 1.380 . S
C134 C135 1.347 . S
C134 H157 0.931 . S
C135 C134 1.347 . S
C135 C136 1.369 . S
C136 C135 1.369 . S
C136 C137 1.408 . S
C136 H158 0.930 . S
C137 C132 1.348 . S
C137 C136 1.408 . S
C137 H159 0.930 . S
C138 O148 1.281 . S
C138 O149 1.254 . S
C139 O150 1.236 . S
C139 O151 1.266 1_455 S
O140 Tb120 2.484 . S
O140 C122 1.248 . S
O141 Tb120 2.440 . S
O141 C122 1.266 . S
O142 Tb120 2.658 1_455 S
O142 Tb121 2.325 . S
O142 C129 1.281 . S
O143 Tb120 2.409 1_455 S
O143 C129 1.254 . S
O144 Tb120 2.378 1_455 S
O144 C130 1.236 . S
O145 Tb121 2.341 . S
O145 C130 1.266 . S
O146 Tb121 2.484 . S
O146 C131 1.248 . S
O147 Tb121 2.440 . S
O147 C131 1.266 . S
O148 Tb120 2.325 1_455 S
O148 Tb121 2.658 . S
O148 C138 1.281 . S
O149 Tb121 2.409 . S
O149 C138 1.254 . S
O150 Tb121 2.378 . S
O150 C139 1.236 . S
O151 Tb120 2.341 . S
O151 C139 1.266 1_655 S
H152 C124 0.929 . S
H153 C125 0.931 . S
H154 C127 0.930 . S
H155 C128 0.930 . S
H156 C133 0.929 . S
H157 C134 0.931 . S
H158 C136 0.930 . S
H159 C137 0.930 . S
H160 C168 0.929 . S
H161 C170 0.930 1_565 S
H162 C172 0.930 . S
H163 C175 0.929 . S
H164 C178 0.930 . S
H165 C180 0.960 . S
H166 C180 0.960 1_655 S
H167 C180 0.960 1_655 S
C168 H160 0.929 . S
C168 C169 1.382 1_565 S
C168 C170 1.384 1_565 S
C169 C168 1.382 1_545 S
C169 C175 1.385 1_554 S
C170 H161 0.930 1_545 S
C170 C168 1.384 1_545 S
C170 C171 1.372 . S
C171 C170 1.372 . S
C171 C172 1.400 1_554 S
C171 C176 1.490 1_655 S
C172 H162 0.930 . S
C172 C171 1.400 1_556 S
C172 C175 1.386 . S
H173 C189 0.930 . S
H174 C190 0.931 . S
C175 H163 0.929 . S
C175 C169 1.385 1_556 S
C175 C172 1.386 . S
C176 C171 1.490 1_455 S
C176 C178 1.395 1_554 S
C176 C179 1.403 . S
H177 C183 0.930 . S
C178 H164 0.930 . S
C178 C176 1.395 1_556 S
C178 C181 1.403 . S
C179 C176 1.403 . S
C179 C180 1.524 . S
C179 C183 1.400 . S
C180 H165 0.960 . S
C180 H166 0.960 1_455 S
C180 H167 0.960 1_455 S
C180 C179 1.524 . S
C181 C178 1.403 . S
C181 C182 1.391 1_556 S
C181 C185 1.495 . S
C182 C181 1.391 1_554 S
C182 C183 1.386 . S
C182 C184 1.478 . S
C183 H177 0.930 . S
C183 C179 1.400 . S
C183 C182 1.386 . S
C184 C182 1.478 . S
C184 C186 1.384 . S
C184 C190 1.380 1_554 S
C185 C181 1.495 . S
C185 H191 0.959 . S
C185 H192 0.961 . S
C185 H193 0.960 . S
C186 C184 1.384 . S
C186 C187 1.394 . S
C186 H194 0.930 . S
C187 C186 1.394 . S
C187 C188 1.383 . S
C187 H195 0.929 . S
C188 C187 1.383 . S
C188 C189 1.377 1_554 S
C189 H173 0.930 . S
C189 C188 1.377 1_556 S
C189 C190 1.379 . S
C190 H174 0.931 . S
C190 C184 1.380 1_556 S
C190 C189 1.379 . S
H191 C185 0.959 . S
H192 C185 0.961 . S
H193 C185 0.960 . S
H194 C186 0.930 . S
H195 C187 0.929 . S
H196 C204 0.929 . S
H197 C206 0.930 . S
H198 C208 0.930 1_545 S
H199 C211 0.929 . S
H200 C214 0.930 . S
H201 C216 0.960 . S
H202 C216 0.960 1_655 S
H203 C216 0.960 . S
C204 H196 0.929 . S
C204 C205 1.377 . S
C204 C206 1.384 . S
C205 C204 1.377 . S
C205 C211 1.390 . S
C206 H197 0.930 . S
C206 C204 1.384 . S
C206 C207 1.367 1_565 S
C207 C206 1.367 1_545 S
C207 C208 1.396 1_545 S
C207 C212 1.499 . S
C208 H198 0.930 1_565 S
C208 C207 1.396 1_565 S
C208 C211 1.386 . S
H209 C225 0.930 . S
H210 C226 0.931 . S
C211 H199 0.929 . S
C211 C205 1.390 . S
C211 C208 1.386 . S
C212 C207 1.499 . S
C212 C214 1.395 . S
C212 C215 1.403 . S
H213 C219 0.930 . S
C214 H200 0.930 . S
C214 C212 1.395 . S
C214 C217 1.403 . S
C215 C212 1.403 . S
C215 C216 1.524 . S
C215 C219 1.400 . S
C216 H201 0.960 . S
C216 H202 0.960 1_455 S
C216 H203 0.960 . S
C216 C215 1.524 . S
C217 C214 1.403 . S
C217 C218 1.392 . S
C217 C221 1.495 . S
C218 C217 1.392 . S
C218 C219 1.385 . S
C218 C220 1.478 . S
C219 H213 0.930 . S
C219 C215 1.400 . S
C219 C218 1.385 . S
C220 C218 1.478 . S
C220 C222 1.381 . S
C220 C226 1.383 . S
C221 C217 1.495 . S
C221 H227 0.959 . S
C221 H228 0.961 . S
C221 H229 0.960 . S
C222 C220 1.381 . S
C222 C223 1.394 . S
C222 H230 0.930 . S
C223 C222 1.394 . S
C223 C224 1.383 . S
C223 H231 0.929 . S
C224 C223 1.383 . S
C224 C225 1.377 . S
C225 H209 0.930 . S
C225 C224 1.377 . S
C225 C226 1.379 . S
C226 H210 0.931 . S
C226 C220 1.383 . S
C226 C225 1.379 . S
H227 C221 0.959 . S
H228 C221 0.961 . S
H229 C221 0.960 . S
H230 C222 0.930 . S
H231 C223 0.929 . S
H232 C240 0.929 . S
H233 C242 0.930 . S
H234 C244 0.930 . S
H235 C247 0.929 1_565 S
H236 C250 0.930 . S
H237 C252 0.961 . S
H238 C252 0.964 . S
H239 C252 0.964 1_556 S
C240 H232 0.929 . S
C240 C241 1.377 . S
C240 C242 1.384 . S
C241 C240 1.377 . S
C241 C247 1.390 1_554 S
C242 H233 0.930 . S
C242 C240 1.384 . S
C242 C243 1.372 . S
C243 C242 1.372 . S
C243 C244 1.400 1_554 S
C243 C248 1.490 . S
C244 H234 0.930 . S
C244 C243 1.400 1_556 S
C244 C247 1.386 . S
H245 C261 0.930 . S
H246 C262 0.931 . S
C247 H235 0.929 1_545 S
C247 C241 1.390 1_556 S
C247 C244 1.386 . S
C248 C243 1.490 . S
C248 C250 1.395 . S
C248 C251 1.403 . S
H249 C255 0.930 . S
C250 H236 0.930 . S
C250 C248 1.395 . S
C250 C253 1.403 . S
C251 C248 1.403 . S
C251 C252 1.515 1_545 S
C251 C255 1.400 . S
C252 H237 0.961 . S
C252 H238 0.964 . S
C252 H239 0.964 1_554 S
C252 C251 1.515 1_565 S
C253 C250 1.403 . S
C253 C254 1.392 . S
C253 C257 1.495 . S
C254 C253 1.392 . S
C254 C255 1.385 . S
C254 C256 1.478 . S
C255 H249 0.930 . S
C255 C251 1.400 . S
C255 C254 1.385 . S
C256 C254 1.478 . S
C256 C258 1.381 . S
C256 C262 1.383 1_554 S
C257 C253 1.495 . S
C257 H263 0.959 . S
C257 H264 0.961 1_554 S
C257 H265 0.960 . S
C258 C256 1.381 . S
C258 C259 1.394 . S
C258 H266 0.930 . S
C259 C258 1.394 . S
C259 C260 1.383 . S
C259 H267 0.929 . S
C260 C259 1.383 . S
C260 C261 1.377 1_554 S
C261 H245 0.930 . S
C261 C260 1.377 1_556 S
C261 C262 1.379 . S
C262 H246 0.931 . S
C262 C256 1.383 1_556 S
C262 C261 1.379 . S
H263 C257 0.959 . S
H264 C257 0.961 1_556 S
H265 C257 0.960 . S
H266 C258 0.930 . S
H267 C259 0.929 . S
H268 C276 0.929 1_655 S
H269 C278 0.930 1_655 S
H270 C280 0.930 . S
H271 C283 0.929 . S
H272 C286 0.930 . S
H273 C288 0.960 . S
H274 C288 0.960 . S
H275 C288 0.960 . S
C276 H268 0.929 1_455 S
C276 C277 1.377 . S
C276 C278 1.384 . S
C277 C276 1.377 . S
C277 C283 1.390 . S
C278 H269 0.930 1_455 S
C278 C276 1.384 . S
C278 C279 1.372 . S
C279 C278 1.372 . S
C279 C280 1.400 . S
C279 C284 1.490 . S
C280 H270 0.930 . S
C280 C279 1.400 . S
C280 C283 1.386 . S
H281 C297 0.930 . S
H282 C298 0.931 . S
C283 H271 0.929 . S
C283 C277 1.390 . S
C283 C280 1.386 . S
C284 C279 1.490 . S
C284 C286 1.395 . S
C284 C287 1.403 . S
H285 C291 0.930 . S
C286 H272 0.930 . S
C286 C284 1.395 . S
C286 C289 1.403 . S
C287 C284 1.403 . S
C287 C288 1.524 . S
C287 C291 1.400 . S
C288 H273 0.960 . S
C288 H274 0.960 . S
C288 H275 0.960 . S
C288 C287 1.524 . S
C289 C286 1.403 . S
C289 C290 1.392 . S
C289 C293 1.495 . S
C290 C289 1.392 . S
C290 C291 1.385 . S
C290 C292 1.478 . S
C291 H285 0.930 . S
C291 C287 1.400 . S
C291 C290 1.385 . S
C292 C290 1.478 . S
C292 C294 1.381 . S
C292 C298 1.383 . S
C293 C289 1.495 . S
C293 H299 0.959 . S
C293 H300 0.961 . S
C293 H301 0.960 . S
C294 C292 1.381 . S
C294 C295 1.394 . S
C294 H302 0.930 1_455 S
C295 C294 1.394 . S
C295 C296 1.383 . S
C295 H303 0.929 1_455 S
C296 C295 1.383 . S
C296 C297 1.377 . S
C297 H281 0.930 . S
C297 C296 1.377 . S
C297 C298 1.379 . S
C298 H282 0.931 . S
C298 C292 1.383 . S
C298 C297 1.379 . S
H299 C293 0.959 . S
H300 C293 0.961 . S
H301 C293 0.960 . S
H302 C294 0.930 1_655 S
H303 C295 0.929 1_655 S
H304 C312 0.929 . S
H305 C314 0.930 . S
H306 C316 0.930 . S
H307 C319 0.929 . S
H308 C322 0.930 . S
H309 C324 0.960 . S
H310 C324 0.960 . S
H311 C324 0.960 . S
C312 H304 0.929 . S
C312 C313 1.377 . S
C312 C314 1.384 . S
C313 C312 1.377 . S
C313 C319 1.390 . S
C314 H305 0.930 . S
C314 C312 1.384 . S
C314 C315 1.372 . S
C315 C314 1.372 . S
C315 C316 1.400 . S
C315 C320 1.490 . S
C316 H306 0.930 . S
C316 C315 1.400 . S
C316 C319 1.386 . S
H317 C333 0.930 . S
H318 C334 0.931 . S
C319 H307 0.929 . S
C319 C313 1.390 . S
C319 C316 1.386 . S
C320 C315 1.490 . S
C320 C322 1.395 . S
C320 C323 1.403 . S
H321 C327 0.930 . S
C322 H308 0.930 . S
C322 C320 1.395 . S
C322 C325 1.403 . S
C323 C320 1.403 . S
C323 C324 1.524 . S
C323 C327 1.400 . S
C324 H309 0.960 . S
C324 H310 0.960 . S
C324 H311 0.960 . S
C324 C323 1.524 . S
C325 C322 1.403 . S
C325 C326 1.392 . S
C325 C329 1.495 . S
C326 C325 1.392 . S
C326 C327 1.385 . S
C326 C328 1.478 . S
C327 H321 0.930 . S
C327 C323 1.400 . S
C327 C326 1.385 . S
C328 C326 1.478 . S
C328 C330 1.381 . S
C328 C334 1.383 . S
C329 C325 1.495 . S
C329 H335 0.959 . S
C329 H336 0.961 . S
C329 H337 0.960 . S
C330 C328 1.381 . S
C330 C331 1.394 . S
C330 H338 0.930 . S
C331 C330 1.394 . S
C331 C332 1.383 . S
C331 H339 0.929 . S
C332 C331 1.383 . S
C332 C333 1.377 . S
C333 H317 0.930 . S
C333 C332 1.377 . S
C333 C334 1.379 . S
C334 H318 0.931 . S
C334 C328 1.383 . S
C334 C333 1.379 . S
H335 C329 0.959 . S
H336 C329 0.961 . S
H337 C329 0.960 . S
H338 C330 0.930 . S
H339 C331 0.929 . S
H340 C348 0.929 . S
H341 C350 0.930 . S
H342 C352 0.930 . S
H343 C355 0.929 1_455 S
H344 C358 0.930 . S
H345 C360 0.960 . S
H346 C360 0.960 . S
H347 C360 0.960 . S
C348 H340 0.929 . S
C348 C349 1.377 . S
C348 C350 1.384 . S
C349 C348 1.377 . S
C349 C355 1.390 . S
C350 H341 0.930 . S
C350 C348 1.384 . S
C350 C351 1.372 . S
C351 C350 1.372 . S
C351 C352 1.400 . S
C351 C356 1.490 . S
C352 H342 0.930 . S
C352 C351 1.400 . S
C352 C355 1.386 . S
H353 C369 0.930 . S
H354 C370 0.931 . S
C355 H343 0.929 1_655 S
C355 C349 1.390 . S
C355 C352 1.386 . S
C356 C351 1.490 . S
C356 C358 1.395 . S
C356 C359 1.403 . S
H357 C363 0.930 . S
C358 H344 0.930 . S
C358 C356 1.395 . S
C358 C361 1.403 . S
C359 C356 1.403 . S
C359 C360 1.524 . S
C359 C363 1.400 . S
C360 H345 0.960 . S
C360 H346 0.960 . S
C360 H347 0.960 . S
C360 C359 1.524 . S
C361 C358 1.403 . S
C361 C362 1.392 . S
C361 C365 1.495 . S
C362 C361 1.392 . S
C362 C363 1.385 . S
C362 C364 1.478 . S
C363 H357 0.930 . S
C363 C359 1.400 . S
C363 C362 1.385 . S
C364 C362 1.478 . S
C364 C366 1.381 . S
C364 C370 1.383 . S
C365 C361 1.495 . S
C365 H371 0.959 . S
C365 H372 0.961 . S
C365 H373 0.960 . S
C366 C364 1.381 . S
C366 C367 1.394 . S
C366 H374 0.930 . S
C367 C366 1.394 . S
C367 C368 1.383 . S
C367 H375 0.929 . S
C368 C367 1.383 . S
C368 C369 1.377 . S
C369 H353 0.930 . S
C369 C368 1.377 . S
C369 C370 1.379 . S
C370 H354 0.931 . S
C370 C364 1.383 . S
C370 C369 1.379 . S
H371 C365 0.959 . S
H372 C365 0.961 . S
H373 C365 0.960 . S
H374 C366 0.930 . S
H375 C367 0.929 . S
H376 C384 0.929 . S
H377 C386 0.930 . S
H378 C388 0.930 . S
H379 C391 0.929 1_455 S
H380 C394 0.930 . S
H381 C396 0.960 . S
H382 C396 0.960 . S
H383 C396 0.960 . S
C384 H376 0.929 . S
C384 C385 1.377 . S
C384 C386 1.384 . S
C385 C384 1.377 . S
C385 C391 1.390 . S
C386 H377 0.930 . S
C386 C384 1.384 . S
C386 C387 1.372 . S
C387 C386 1.372 . S
C387 C388 1.400 . S
C387 C392 1.490 . S
C388 H378 0.930 . S
C388 C387 1.400 . S
C388 C391 1.386 . S
H389 C405 0.930 . S
H390 C406 0.931 . S
C391 H379 0.929 1_655 S
C391 C385 1.390 . S
C391 C388 1.386 . S
C392 C387 1.490 . S
C392 C394 1.395 . S
C392 C395 1.403 . S
H393 C399 0.930 . S
C394 H380 0.930 . S
C394 C392 1.395 . S
C394 C397 1.403 . S
C395 C392 1.403 . S
C395 C396 1.524 . S
C395 C399 1.400 . S
C396 H381 0.960 . S
C396 H382 0.960 . S
C396 H383 0.960 . S
C396 C395 1.524 . S
C397 C394 1.403 . S
C397 C398 1.392 . S
C397 C401 1.481 1_565 S
C398 C397 1.392 . S
C398 C399 1.385 . S
C398 C400 1.478 . S
C399 H393 0.930 . S
C399 C395 1.400 . S
C399 C398 1.385 . S
C400 C398 1.478 . S
C400 C402 1.381 . S
C400 C406 1.383 . S
C401 C397 1.481 1_545 S
C401 H407 0.965 . S
C401 H408 0.968 . S
C401 H409 0.962 1_545 S
C402 C400 1.381 . S
C402 C403 1.394 . S
C402 H410 0.930 . S
C403 C402 1.394 . S
C403 C404 1.383 . S
C403 H411 0.929 . S
C404 C403 1.383 . S
C404 C405 1.377 . S
C405 H389 0.930 . S
C405 C404 1.377 . S
C405 C406 1.379 . S
C406 H390 0.931 . S
C406 C400 1.383 . S
C406 C405 1.379 . S
H407 C401 0.965 . S
H408 C401 0.968 . S
H409 C401 0.962 1_565 S
H410 C402 0.930 . S
H411 C403 0.929 . S
H412 C420 0.929 . S
H413 C422 0.930 1_545 S
H414 C424 0.930 . S
H415 C427 0.929 . S
H416 C430 0.930 . S
H417 C432 0.960 . S
H418 C432 0.960 . S
H419 C432 0.960 . S
C420 H412 0.929 . S
C420 C421 1.377 . S
C420 C422 1.384 . S
C421 C420 1.377 . S
C421 C427 1.390 . S
C422 H413 0.930 1_565 S
C422 C420 1.384 . S
C422 C423 1.372 . S
C423 C422 1.372 . S
C423 C424 1.400 . S
C423 C428 1.490 . S
C424 H414 0.930 . S
C424 C423 1.400 . S
C424 C427 1.386 . S
H425 C441 0.930 1_565 S
H426 C442 0.931 1_565 S
C427 H415 0.929 . S
C427 C421 1.390 . S
C427 C424 1.386 . S
C428 C423 1.490 . S
C428 C430 1.395 1_565 S
C428 C431 1.403 . S
H429 C435 0.930 . S
C430 H416 0.930 . S
C430 C428 1.395 1_545 S
C430 C433 1.403 . S
C431 C428 1.403 . S
C431 C432 1.524 . S
C431 C435 1.400 . S
C432 H417 0.960 . S
C432 H418 0.960 . S
C432 H419 0.960 . S
C432 C431 1.524 . S
C433 C430 1.403 . S
C433 C434 1.392 . S
C433 C437 1.495 . S
C434 C433 1.392 . S
C434 C435 1.385 1_545 S
C434 C436 1.478 . S
C435 H429 0.930 . S
C435 C431 1.400 . S
C435 C434 1.385 1_565 S
C436 C434 1.478 . S
C436 C438 1.381 . S
C436 C442 1.383 . S
C437 C433 1.495 . S
C437 H443 0.959 . S
C437 H444 0.961 . S
C437 H445 0.960 . S
C438 C436 1.381 . S
C438 C439 1.394 . S
C438 H446 0.930 . S
C439 C438 1.394 . S
C439 C440 1.383 . S
C439 H447 0.929 . S
C440 C439 1.383 . S
C440 C441 1.377 . S
C441 H425 0.930 1_545 S
C441 C440 1.377 . S
C441 C442 1.379 . S
C442 H426 0.931 1_545 S
C442 C436 1.383 . S
C442 C441 1.379 . S
H443 C437 0.959 . S
H444 C437 0.961 . S
H445 C437 0.960 . S
H446 C438 0.930 . S
H447 C439 0.929 . S
H448 C456 0.929 . S
H449 C458 0.930 . S
H450 C460 0.930 . S
H451 C463 0.929 . S
H452 C466 0.930 . S
H453 C468 0.960 . S
H454 C468 0.960 . S
H455 C468 0.960 . S
C456 H448 0.929 . S
C456 C457 1.377 . S
C456 C458 1.384 . S
C457 C456 1.377 . S
C457 C463 1.390 . S
C458 H449 0.930 . S
C458 C456 1.384 . S
C458 C459 1.372 . S
C459 C458 1.372 . S
C459 C460 1.400 . S
C459 C464 1.490 . S
C460 H450 0.930 . S
C460 C459 1.400 . S
C460 C463 1.386 . S
H461 C477 0.930 . S
H462 C478 0.931 . S
C463 H451 0.929 . S
C463 C457 1.390 . S
C463 C460 1.386 . S
C464 C459 1.490 . S
C464 C466 1.395 . S
C464 C467 1.403 . S
H465 C471 0.930 . S
C466 H452 0.930 . S
C466 C464 1.395 . S
C466 C469 1.403 . S
C467 C464 1.403 . S
C467 C468 1.524 . S
C467 C471 1.400 . S
C468 H453 0.960 . S
C468 H454 0.960 . S
C468 H455 0.960 . S
C468 C467 1.524 . S
C469 C466 1.403 . S
C469 C470 1.392 . S
C469 C473 1.495 . S
C470 C469 1.392 . S
C470 C471 1.385 . S
C470 C472 1.478 . S
C471 H465 0.930 . S
C471 C467 1.400 . S
C471 C470 1.385 . S
C472 C470 1.478 . S
C472 C474 1.381 . S
C472 C478 1.383 . S
C473 C469 1.495 . S
C473 H479 0.959 . S
C473 H480 0.961 . S
C473 H481 0.960 . S
C474 C472 1.381 . S
C474 C475 1.394 . S
C474 H482 0.930 . S
C475 C474 1.394 . S
C475 C476 1.383 . S
C475 H483 0.929 . S
C476 C475 1.383 . S
C476 C477 1.377 . S
C477 H461 0.930 . S
C477 C476 1.377 . S
C477 C478 1.379 . S
C478 H462 0.931 . S
C478 C472 1.383 . S
C478 C477 1.379 . S
H479 C473 0.959 . S
H480 C473 0.961 . S
H481 C473 0.960 . S
H482 C474 0.930 . S
H483 C475 0.929 . S
H484 C492 0.929 . S
H485 C494 0.930 . S
H486 C496 0.930 . S
H487 C499 0.929 . S
H488 C502 0.930 . S
H489 C504 0.960 . S
H490 C504 0.960 . S
H491 C504 0.960 . S
C492 H484 0.929 . S
C492 C493 1.377 . S
C492 C494 1.384 . S
C493 C492 1.377 . S
C493 C499 1.390 . S
C494 H485 0.930 . S
C494 C492 1.384 . S
C494 C495 1.372 . S
C495 C494 1.372 . S
C495 C496 1.400 . S
C495 C500 1.490 1_545 S
C496 H486 0.930 . S
C496 C495 1.400 . S
C496 C499 1.386 . S
H497 C513 0.930 . S
H498 C514 0.931 . S
C499 H487 0.929 . S
C499 C493 1.390 . S
C499 C496 1.386 . S
C500 C495 1.490 1_565 S
C500 C502 1.395 1_565 S
C500 C503 1.403 . S
H501 C507 0.930 . S
C502 H488 0.930 . S
C502 C500 1.395 1_545 S
C502 C505 1.403 1_545 S
C503 C500 1.403 . S
C503 C504 1.524 . S
C503 C507 1.400 . S
C504 H489 0.960 . S
C504 H490 0.960 . S
C504 H491 0.960 . S
C504 C503 1.524 . S
C505 C502 1.403 1_565 S
C505 C506 1.392 . S
C505 C509 1.495 1_565 S
C506 C505 1.392 . S
C506 C507 1.385 . S
C506 C508 1.478 . S
C507 H501 0.930 . S
C507 C503 1.400 . S
C507 C506 1.385 . S
C508 C506 1.478 . S
C508 C510 1.381 . S
C508 C514 1.383 . S
C509 C505 1.495 1_545 S
C509 H515 0.959 . S
C509 H516 0.961 . S
C509 H517 0.966 . S
C510 C508 1.381 . S
C510 C511 1.394 . S
C510 H518 0.930 . S
C511 C510 1.394 . S
C511 C512 1.383 . S
C511 H519 0.929 . S
C512 C511 1.383 . S
C512 C513 1.377 . S
C513 H497 0.930 . S
C513 C512 1.377 . S
C513 C514 1.379 . S
C514 H498 0.931 . S
C514 C508 1.383 . S
C514 C513 1.379 . S
H515 C509 0.959 . S
H516 C509 0.961 . S
H517 C509 0.966 . S
H518 C510 0.930 . S
H519 C511 0.929 . S
H520 C528 0.929 . S
H521 C530 0.930 . S
H522 C532 0.930 . S
H523 C535 0.929 . S
H524 C538 0.930 . S
H525 C540 0.960 . S
H526 C540 0.960 . S
H527 C540 0.960 . S
C528 H520 0.929 . S
C528 C529 1.377 . S
C528 C530 1.384 . S
C529 C528 1.377 . S
C529 C535 1.390 . S
C530 H521 0.930 . S
C530 C528 1.384 . S
C530 C531 1.372 . S
C531 C530 1.372 . S
C531 C532 1.400 . S
C531 C536 1.490 . S
C532 H522 0.930 . S
C532 C531 1.400 . S
C532 C535 1.386 . S
H533 C549 0.930 . S
H534 C550 0.931 . S
C535 H523 0.929 . S
C535 C529 1.390 . S
C535 C532 1.386 . S
C536 C531 1.490 . S
C536 C538 1.395 . S
C536 C539 1.403 . S
H537 C543 0.930 . S
C538 H524 0.930 . S
C538 C536 1.395 . S
C538 C541 1.403 . S
C539 C536 1.403 . S
C539 C540 1.524 . S
C539 C543 1.400 . S
C540 H525 0.960 . S
C540 H526 0.960 . S
C540 H527 0.960 . S
C540 C539 1.524 . S
C541 C538 1.403 . S
C541 C542 1.392 . S
C541 C545 1.495 . S
C542 C541 1.392 . S
C542 C543 1.385 . S
C542 C544 1.478 . S
C543 H537 0.930 . S
C543 C539 1.400 . S
C543 C542 1.385 . S
C544 C542 1.478 . S
C544 C546 1.381 . S
C544 C550 1.383 . S
C545 C541 1.495 . S
C545 H551 0.959 . S
C545 H552 0.961 . S
C545 H553 0.960 . S
C546 C544 1.381 . S
C546 C547 1.394 . S
C546 H554 0.930 . S
C547 C546 1.394 . S
C547 C548 1.383 . S
C547 H555 0.929 . S
C548 C547 1.383 . S
C548 C549 1.377 . S
C549 H533 0.930 . S
C549 C548 1.377 . S
C549 C550 1.379 . S
C550 H534 0.931 . S
C550 C544 1.383 . S
C550 C549 1.379 . S
H551 C545 0.959 . S
H552 C545 0.961 . S
H553 C545 0.960 . S
H554 C546 0.930 . S
H555 C547 0.929 . S
H556 C564 0.929 . S
H557 C566 0.930 . S
H558 C568 0.930 . S
H559 C571 0.929 . S
H560 C574 0.930 . S
H561 C576 0.960 . S
H562 C576 0.960 . S
H563 C576 0.960 . S
C564 H556 0.929 . S
C564 C565 1.377 . S
C564 C566 1.384 . S
C565 C564 1.377 . S
C565 C571 1.390 . S
C566 H557 0.930 . S
C566 C564 1.384 . S
C566 C567 1.372 . S
C567 C566 1.372 . S
C567 C568 1.400 . S
C567 C572 1.490 . S
C568 H558 0.930 . S
C568 C567 1.400 . S
C568 C571 1.386 . S
H569 C585 0.930 . S
H570 C586 0.931 . S
C571 H559 0.929 . S
C571 C565 1.390 . S
C571 C568 1.386 . S
C572 C567 1.490 . S
C572 C574 1.395 . S
C572 C575 1.403 . S
H573 C579 0.930 . S
C574 H560 0.930 . S
C574 C572 1.395 . S
C574 C577 1.403 . S
C575 C572 1.403 . S
C575 C576 1.524 . S
C575 C579 1.400 . S
C576 H561 0.960 . S
C576 H562 0.960 . S
C576 H563 0.960 . S
C576 C575 1.524 . S
C577 C574 1.403 . S
C577 C578 1.392 . S
C577 C581 1.495 . S
C578 C577 1.392 . S
C578 C579 1.385 . S
C578 C580 1.478 . S
C579 H573 0.930 . S
C579 C575 1.400 . S
C579 C578 1.385 . S
C580 C578 1.478 . S
C580 C582 1.381 . S
C580 C586 1.383 . S
C581 C577 1.495 . S
C581 H587 0.959 . S
C581 H588 0.961 . S
C581 H589 0.960 . S
C582 C580 1.381 . S
C582 C583 1.394 . S
C582 H590 0.930 . S
C583 C582 1.394 . S
C583 C584 1.383 . S
C583 H591 0.929 . S
C584 C583 1.383 . S
C584 C585 1.377 . S
C585 H569 0.930 . S
C585 C584 1.377 . S
C585 C586 1.379 . S
C586 H570 0.931 . S
C586 C580 1.383 . S
C586 C585 1.379 . S
H587 C581 0.959 . S
H588 C581 0.961 . S
H589 C581 0.960 . S
H590 C582 0.930 . S
H591 C583 0.929 . S
C169 C89 0.936 . S
C188 C9 0.915 . S
C205 C129 1.054 . S
C224 C49 1.089 . S
C241 C98 1.023 . S
C260 C18 1.013 . S
C277 C58 0.733 . S
C296 C138 0.734 . S
C313 C50 4.448 . S
C332 C10 4.411 . S
C349 C59 4.625 1_655 S
C368 C99 4.625 . S
C385 C139 4.705 1_655 S
C404 C90 4.595 . S
C421 C130 4.366 . S
C440 C19 4.432 . S
C457 C95 1.004 . S
C476 C126 1.008 . S
C493 C6 1.088 . S
C512 C135 1.027 . S
C529 C55 0.932 . S
C548 C15 1.038 . S
C565 C86 1.071 . S
C584 C46 1.093 . S
