# Generated by pormake.
# Topology sxb, (6)-cn, num edge types: 1
# Building blocks:
#     Node 0, Type 0, BuildingBlock: KUMBUR_clean_sbu_1, # of connection points: 6
#     Node 1, Type 0, BuildingBlock: KUMBUR_clean_sbu_1, # of connection points: 6
#     Node 2, Type 0, BuildingBlock: KUMBUR_clean_sbu_1, # of connection points: 6
#     Node 3, Type 0, BuildingBlock: KUMBUR_clean_sbu_1, # of connection points: 6
#     Edge 4, Type (0, 0), BuildingBlock: EZIPEK_clean_linker_0, # of connection points: 2
#     Edge 5, Type (0, 0), BuildingBlock: EZIPEK_clean_linker_0, # of connection points: 2
#     Edge 6, Type (0, 0), BuildingBlock: EZIPEK_clean_linker_0, # of connection points: 2
#     Edge 7, Type (0, 0), BuildingBlock: EZIPEK_clean_linker_0, # of connection points: 2
#     Edge 8, Type (0, 0), BuildingBlock: EZIPEK_clean_linker_0, # of connection points: 2
#     Edge 9, Type (0, 0), BuildingBlock: EZIPEK_clean_linker_0, # of connection points: 2
#     Edge 10, Type (0, 0), BuildingBlock: EZIPEK_clean_linker_0, # of connection points: 2
#     Edge 11, Type (0, 0), BuildingBlock: EZIPEK_clean_linker_0, # of connection points: 2
#     Edge 12, Type (0, 0), BuildingBlock: EZIPEK_clean_linker_0, # of connection points: 2
#     Edge 13, Type (0, 0), BuildingBlock: EZIPEK_clean_linker_0, # of connection points: 2
#     Edge 14, Type (0, 0), BuildingBlock: EZIPEK_clean_linker_0, # of connection points: 2
#     Edge 15, Type (0, 0), BuildingBlock: EZIPEK_clean_linker_0, # of connection points: 2
# Relax obj value: 0.022
# Max RMSD: 0.073
# Mean RMSD: 0.073
data_MOF--net-sxb--node1-KUMBUR_clean_sbu_1--edge1-EZIPEK_clean_linker_0
_symmetry_space_group_name_H-M    P1
_symmetry_Int_Tables_number       1
_symmetry_cell_setting            triclinic
loop_
_symmetry_equiv_pos_as_xyz
'x, y, z'
_cell_length_a     11.218913
_cell_length_b     40.523303
_cell_length_c     21.43849
_cell_angle_alpha  113.96057
_cell_angle_beta   90.447004
_cell_angle_gamma 89.632441
loop_
_atom_site_label
_atom_site_type_symbol
_atom_site_fract_x
_atom_site_fract_y
_atom_site_fract_z
_atom_type_partial_charge
Tb0 Tb 1.03504 0.95622 0.95403 0.0
C1 C 0.22553 0.10263 0.17399 0.0
N2 N 0.11235 0.08953 0.16554 0.0
C3 C 0.09862 0.10542 0.28613 0.0
C4 C 0.28169 0.11594 0.23856 0.0
C5 C 0.04637 0.09267 0.22116 0.0
C6 C 0.2174 0.11655 0.29472 0.0
C7 C 0.40149 0.11702 0.12449 0.0
C8 C 0.28471 0.10352 0.11788 0.0
C9 C 0.45931 0.12891 0.1882 0.0
C10 C 0.39947 0.12853 0.24509 0.0
Tb11 Tb 0.04246 0.06824 0.05549 0.0
N12 N 0.2285 0.09016 0.05613 0.0
C13 C 0.45645 0.11783 0.06662 0.0
C14 C 0.27649 0.09437 1.00141 0.0
C15 C 0.39272 0.10731 0.0053 0.0
H16 H 0.95306 0.08547 0.21574 0.0
H17 H 0.43324 0.10903 0.96107 0.0
H18 H 0.12507 0.93892 0.7938 0.0
H19 H 0.64356 0.91578 0.04841 0.0
H20 H 0.22619 0.08645 0.9544 0.0
H21 H 0.54713 0.127 0.06878 0.0
H22 H 0.85054 0.93842 0.05524 0.0
H23 H 0.04695 0.10689 0.32962 0.0
H24 H 0.55032 0.13837 0.19416 0.0
H25 H 0.4449 0.13823 0.294 0.0
H26 H 1.03221 0.91679 0.67961 0.0
H27 H 0.25751 0.12649 0.34515 0.0
H28 H 0.53056 0.8973 0.94034 0.0
N29 N 0.96563 0.93478 0.84384 0.0
C30 C 0.85263 0.92152 0.83527 0.0
C31 C 0.98025 0.91841 0.72311 0.0
C32 C 0.79709 0.90781 0.77052 0.0
C33 C 1.03189 0.93157 0.78825 0.0
C34 C 0.86178 0.90701 0.71434 0.0
N35 N 0.84883 0.9344 0.95331 0.0
C36 C 0.80051 0.93035 0.00812 0.0
C37 C 0.67651 0.90714 0.88467 0.0
C38 C 0.79309 0.9208 0.89142 0.0
C39 C 0.62114 0.90654 0.9426 0.0
C40 C 0.68436 0.91736 0.00413 0.0
H41 H 0.82224 0.89671 0.66375 0.0
H42 H 0.63482 0.88481 0.71465 0.0
H43 H 0.52864 0.88503 0.81461 0.0
O44 O 0.07909 0.91807 0.9954 0.0
O45 O 0.86209 0.98613 0.98017 0.0
O46 O 0.85691 0.04893 0.03843 0.0
O47 O 0.09137 0.90434 0.88803 0.0
O48 O 0.06559 0.97921 0.06437 0.0
O49 O 0.97113 0.03481 0.10598 0.0
O50 O 0.99586 0.10615 0.01397 0.0
O51 O 0.21542 0.03832 0.02877 0.0
O52 O 0.22062 0.97546 0.97133 0.0
O53 O 0.98737 0.12023 0.12158 0.0
O54 O 1.01263 0.04534 0.94522 0.0
O55 O 0.10619 0.98955 0.90319 0.0
C56 C 0.8037 0.01726 0.00789 0.0
C57 C 0.20628 0.86814 0.93024 0.0
C58 C 0.28682 0.81614 0.94801 0.0
C59 C 0.38167 0.81422 0.90452 0.0
C60 C 0.30258 0.86562 0.88694 0.0
C61 C 0.38894 0.83865 0.87398 0.0
C62 C 0.19912 0.84323 0.96093 0.0
C63 C 1.02449 1.00798 0.11519 0.0
C64 C 0.10476 0.89287 0.93605 0.0
C65 C 0.6796 0.89496 0.76379 0.0
C66 C 0.61933 0.89479 0.82074 0.0
C67 C 0.27379 1.00717 1.00132 0.0
C68 C 0.86807 0.15574 0.07985 0.0
C69 C 0.78201 0.20681 0.06103 0.0
C70 C 0.69053 0.20916 0.10677 0.0
C71 C 0.77493 0.15866 0.12535 0.0
C72 C 0.87083 0.17998 0.04751 0.0
C73 C 0.68761 0.18541 0.13893 0.0
C74 C 0.05351 0.01659 0.89433 0.0
C75 C 0.97117 0.13144 0.07339 0.0
H76 H 0.44934 0.79345 0.89357 0.0
H77 H 0.30975 0.88394 0.86181 0.0
H78 H 0.46165 0.83641 0.83967 0.0
H79 H 0.12392 0.8442 0.99309 0.0
H80 H 0.62226 0.2298 0.11831 0.0
H81 H 0.77114 0.14089 0.15178 0.0
H82 H 0.94366 0.17876 0.0137 0.0
H83 H 0.61763 0.18807 0.17506 0.0
Tb84 Tb 1.03426 0.06912 0.55571 0.0
C85 C 0.23048 0.91837 0.34477 0.0
N86 N 0.12048 0.93344 0.3486 0.0
C87 C 0.12144 0.9168 0.22753 0.0
C88 C 0.292 0.90301 0.28234 0.0
C89 C 0.06329 0.93131 0.29049 0.0
C90 C 0.23685 0.903 0.22355 0.0
C91 C 0.39298 0.90148 0.40172 0.0
C92 C 0.28076 0.91758 0.40359 0.0
C93 C 0.4559 0.88701 0.33999 0.0
C94 C 0.40564 0.88783 0.28051 0.0
Tb95 Tb 1.03866 0.95689 0.45545 0.0
N96 N 0.21867 0.93259 0.46285 0.0
C97 C 0.43764 0.90008 0.46182 0.0
C98 C 0.25772 0.92921 0.52046 0.0
C99 C 0.36895 0.91356 0.52119 0.0
H100 H 0.9721 0.94035 0.29215 0.0
H101 H 0.40136 0.91173 0.56737 0.0
H102 H 0.12674 0.08585 0.71618 0.0
H103 H 0.64269 0.11229 0.46186 0.0
H104 H 0.20342 0.93905 0.56583 0.0
H105 H 0.52373 0.88796 0.46254 0.0
H106 H 0.84903 0.08849 0.45476 0.0
H107 H 0.07666 0.91592 0.18197 0.0
H108 H 0.5429 0.87479 0.33753 0.0
H109 H 0.45485 0.87627 0.23321 0.0
H110 H 1.0348 0.10747 0.82992 0.0
H111 H 0.2813 0.89162 0.17463 0.0
H112 H 0.5309 0.13052 0.56953 0.0
N113 N 0.96668 0.09058 0.66584 0.0
C114 C 0.85395 0.10431 0.67433 0.0
C115 C 0.98245 0.10628 0.78643 0.0
C116 C 0.7988 0.11762 0.73881 0.0
C117 C 1.03355 0.09339 0.72152 0.0
C118 C 0.86388 0.11784 0.79495 0.0
N119 N 0.84885 0.09216 0.55649 0.0
C120 C 0.79988 0.09669 0.50187 0.0
C121 C 0.67726 0.11957 0.62495 0.0
C122 C 0.79394 0.10569 0.61831 0.0
C123 C 0.62139 0.12088 0.56726 0.0
C124 C 0.68396 0.11025 0.50596 0.0
H125 H 0.82454 0.1278 0.84531 0.0
H126 H 0.63611 0.13996 0.794 0.0
H127 H 0.52899 0.14056 0.69432 0.0
O128 O 0.0795 0.10767 0.51589 0.0
O129 O 0.85972 0.04051 0.52946 0.0
O130 O 0.85552 0.97791 0.47081 0.0
O131 O 0.09329 0.1203 0.62288 0.0
O132 O 0.06227 0.04625 0.44535 0.0
O133 O 0.97121 0.99023 0.40316 0.0
O134 O 0.98045 0.92036 0.49617 0.0
O135 O 0.21397 0.98507 0.4821 0.0
O136 O 0.21814 0.04827 0.53509 0.0
O137 O 0.96433 0.90724 0.38899 0.0
O138 O 1.00931 0.9806 0.56548 0.0
O139 O 0.10635 0.03549 0.60639 0.0
C140 C 0.80192 1.00947 0.50102 0.0
C141 C 0.20943 0.15649 0.5828 0.0
C142 C 0.29264 0.2078 0.56505 0.0
C143 C 0.38296 0.21076 0.61245 0.0
C144 C 0.30134 0.16005 0.6301 0.0
C145 C 0.38653 0.18726 0.64509 0.0
C146 C 0.20586 0.18055 0.5501 0.0
C147 C 1.02423 0.01699 0.39434 0.0
C148 C 0.10698 0.13223 0.57571 0.0
C149 C 0.68101 0.13046 0.74526 0.0
C150 C 0.62024 0.13119 0.68846 0.0
C151 C 0.27143 0.01635 0.50735 0.0
C152 C 0.98713 0.8583 0.42249 0.0
C153 C 0.952 0.80147 0.43399 0.0
C154 C 0.05772 0.78742 0.39826 0.0
C155 C 0.09074 0.84328 0.3852 0.0
C156 C 0.91718 0.83706 0.44624 0.0
C157 C 0.12611 0.80818 0.37365 0.0
C158 C 0.05234 1.0091 0.61601 0.0
C159 C 0.95 0.89578 0.43697 0.0
H160 H 0.44935 0.23184 0.62523 0.0
H161 H 0.30541 0.14254 0.65712 0.0
H162 H 0.45495 0.19064 0.68293 0.0
H163 H 0.13354 0.17902 0.5152 0.0
H164 H 0.08614 0.76018 0.38859 0.0
H165 H 0.14398 0.85844 0.36452 0.0
H166 H 0.83608 0.84814 0.47433 0.0
H167 H 0.20656 0.79695 0.34519 0.0
Tb168 Tb 0.51789 0.45457 0.9546 0.0
C169 C 0.70109 0.60336 0.17666 0.0
N170 N 0.58976 0.58887 0.16736 0.0
C171 C 0.57413 0.60494 0.28795 0.0
C172 C 0.75529 0.6177 0.24178 0.0
C173 C 0.52355 0.59136 0.22252 0.0
C174 C 0.69116 0.61762 0.29747 0.0
C175 C 0.87542 0.61939 0.12833 0.0
C176 C 0.76055 0.60447 0.12078 0.0
C177 C 0.93113 0.63256 0.19273 0.0
C178 C 0.87104 0.63191 0.24933 0.0
Tb179 Tb 0.52248 0.56683 0.05673 0.0
N180 N 0.70639 0.59017 0.05848 0.0
C181 C 0.93043 0.62051 0.07073 0.0
C182 C 0.75369 0.59488 0.00411 0.0
C183 C 0.86822 0.60906 0.00881 0.0
H184 H 0.43122 0.5831 0.21641 0.0
H185 H 0.90841 0.61116 0.96484 0.0
H186 H 0.60279 0.43867 0.79397 0.0
H187 H 0.1303 0.41382 0.05189 0.0
H188 H 0.70396 0.58659 0.95688 0.0
H189 H 1.01973 0.63074 0.07358 0.0
H190 H 0.33564 0.43749 0.05796 0.0
H191 H 0.52235 0.60597 0.33111 0.0
H192 H 1.02044 0.64342 0.19951 0.0
H193 H 0.91457 0.64271 0.29885 0.0
H194 H 0.50694 0.41664 0.68069 0.0
H195 H 0.72991 0.62824 0.34827 0.0
H196 H 1.01609 0.39438 0.94403 0.0
N197 N 0.44587 0.43357 0.84512 0.0
C198 C 0.33374 0.41972 0.83724 0.0
C199 C 0.45673 0.41782 0.72447 0.0
C200 C 0.27648 0.40621 0.77298 0.0
C201 C 0.50998 0.43096 0.78918 0.0
C202 C 0.3388 0.40598 0.7165 0.0
N203 N 0.33263 0.43256 0.95541 0.0
C204 C 0.28544 0.4288 0.01078 0.0
C205 C 0.15995 0.40478 0.88771 0.0
C206 C 0.2761 0.41868 0.89376 0.0
C207 C 0.10614 0.40402 0.94592 0.0
C208 C 0.17007 0.41533 0.00729 0.0
H209 H 0.29782 0.39589 0.66631 0.0
H210 H 0.11274 0.38365 0.7186 0.0
H211 H 1.01042 0.38311 0.81879 0.0
O212 O 0.56065 0.41535 0.99362 0.0
O213 O 0.34446 0.48443 0.98179 0.0
O214 O 0.33789 0.54727 0.03967 0.0
O215 O 0.57872 0.4035 0.88724 0.0
O216 O 0.54964 0.47698 0.06389 0.0
O217 O 0.45637 0.53279 0.10729 0.0
O218 O 0.47833 0.60469 0.01462 0.0
O219 O 0.69726 0.53806 0.03038 0.0
O220 O 0.70215 0.47493 0.97661 0.0
O221 O 0.46148 0.61829 0.12188 0.0
O222 O 0.48887 0.54249 0.94673 0.0
O223 O 0.59064 0.48793 0.90471 0.0
C224 C 0.28542 0.51549 0.00973 0.0
C225 C 0.69282 0.3667 0.92871 0.0
C226 C 0.77651 0.31567 0.94872 0.0
C227 C 0.86862 0.31287 0.90311 0.0
C228 C 0.7867 0.36329 0.88336 0.0
C229 C 0.8731 0.33634 0.87044 0.0
C230 C 0.68852 0.34271 0.9616 0.0
C231 C 0.51205 0.50593 0.11529 0.0
C232 C 0.59029 0.39108 0.93406 0.0
C233 C 0.15933 0.39325 0.76711 0.0
C234 C 0.10121 0.39266 0.82427 0.0
C235 C 0.75525 0.50677 0.00505 0.0
C236 C 0.35022 0.65481 0.07858 0.0
C237 C 0.27351 0.70664 0.05873 0.0
C238 C 0.17938 0.7099 0.10345 0.0
C239 C 0.25465 0.65872 0.12312 0.0
C240 C 0.35898 0.67897 0.04626 0.0
C241 C 0.17071 0.6863 0.13572 0.0
C242 C 0.53953 0.51535 0.89671 0.0
C243 C 0.45036 0.62977 0.07371 0.0
H244 H 0.9362 0.29206 0.89202 0.0
H245 H 0.79166 0.38079 0.85641 0.0
H246 H 0.94343 0.33322 0.83429 0.0
H247 H 0.61511 0.34424 0.99526 0.0
H248 H 0.11362 0.73118 0.11422 0.0
H249 H 0.2464 0.64109 0.14964 0.0
H250 H 0.43396 0.67706 0.01336 0.0
H251 H 0.09883 0.68966 0.17111 0.0
Tb252 Tb 0.56077 0.56578 0.54517 0.0
C253 C 0.74243 0.41559 0.34091 0.0
N254 N 0.62616 0.42636 0.34899 0.0
C255 C 0.60056 0.40246 0.22726 0.0
C256 C 0.79392 0.39964 0.27562 0.0
C257 C 0.55372 0.41879 0.29318 0.0
C258 C 0.72151 0.39337 0.21843 0.0
C259 C 0.93084 0.41033 0.39287 0.0
C260 C 0.80992 0.42031 0.39857 0.0
C261 C 0.98441 0.39655 0.3282 0.0
C262 C 0.91585 0.3908 0.26969 0.0
Tb263 Tb 0.5674 0.45559 0.46032 0.0
N264 N 0.7576 0.43631 0.46091 0.0
C265 C 0.9938 0.4149 0.45256 0.0
C266 C 0.81433 0.43748 0.51824 0.0
C267 C 0.93432 0.42732 0.5151 0.0
H268 H 0.45974 0.42532 0.29937 0.0
H269 H 0.98154 0.42984 0.56103 0.0
H270 H 0.61417 0.59682 0.71435 0.0
H271 H 0.22372 0.60685 0.41146 0.0
H272 H 0.76826 0.44772 0.56655 0.0
H273 H 0.08763 0.40857 0.45104 0.0
H274 H 0.41883 0.58168 0.42628 0.0
H275 H 0.54352 0.39712 0.18329 0.0
H276 H 0.07854 0.39015 0.32269 0.0
H277 H 0.95804 0.37953 0.22013 0.0
H278 H 0.4994 0.62518 0.82021 0.0
H279 H 0.75765 0.38117 0.16733 0.0
H280 H 0.08478 0.63199 0.50905 0.0
N281 N 0.46941 0.59631 0.64907 0.0
C282 C 0.35828 0.60933 0.64659 0.0
C283 C 0.45783 0.6204 0.77157 0.0
C284 C 0.29061 0.62712 0.70617 0.0
C285 C 0.522 0.6035 0.71103 0.0
C286 C 0.34082 0.63172 0.76907 0.0
N287 N 0.38511 0.5899 0.52862 0.0
C288 C 0.35693 0.59175 0.46824 0.0
C289 C 0.20415 0.62161 0.57898 0.0
C290 C 0.31522 0.60659 0.58423 0.0
C291 C 0.16943 0.62066 0.51539 0.0
C292 C 0.24747 0.6064 0.46013 0.0
H293 H 0.29184 0.64515 0.81607 0.0
H294 H 0.12292 0.65402 0.74621 0.0
H295 H 0.04727 0.6493 0.63464 0.0
O296 O 0.63492 0.59439 0.49129 0.0
O297 O 0.38304 0.53855 0.52832 0.0
O298 O 0.38046 0.47554 0.47141 0.0
O299 O 0.63793 0.61655 0.60056 0.0
O300 O 0.59311 0.53333 0.43569 0.0
O301 O 0.48027 0.48192 0.40052 0.0
O302 O 0.5103 0.42424 0.51369 0.0
O303 O 0.73561 0.48687 0.46571 0.0
O304 O 0.73511 0.54255 0.55708 0.0
O305 O 0.53 0.40073 0.40529 0.0
O306 O 0.55704 0.48146 0.57223 0.0
O307 O 0.61847 0.5412 0.61385 0.0
C308 C 0.32579 0.50721 0.50249 0.0
C309 C 0.62326 0.6583 0.54953 0.0
C310 C 0.66514 0.71186 0.52781 0.0
C311 C 0.55894 0.7277 0.56079 0.0
C312 C 0.51833 0.67505 0.58332 0.0
C313 C 0.48592 0.70931 0.58821 0.0
C314 C 0.69666 0.6769 0.52155 0.0
C315 C 0.52138 0.5098 0.39082 0.0
C316 C 0.66004 0.62257 0.54676 0.0
C317 C 0.17681 0.64061 0.70111 0.0
C318 C 0.13371 0.63792 0.63759 0.0
C319 C 0.79304 0.51472 0.51181 0.0
C320 C 0.3943 0.37157 0.44899 0.0
C321 C 0.30302 0.3198 0.46139 0.0
C322 C 0.21285 0.31945 0.41557 0.0
C323 C 0.30252 0.37072 0.40335 0.0
C324 C 0.39375 0.34602 0.47827 0.0
C325 C 0.21306 0.34462 0.38661 0.0
C326 C 0.58205 0.51268 0.62282 0.0
C327 C 0.49954 0.39498 0.45806 0.0
H328 H 0.53351 0.75454 0.56601 0.0
H329 H 0.46244 0.6621 0.60728 0.0
H330 H 0.40482 0.72189 0.61438 0.0
H331 H 0.77903 0.66465 0.49642 0.0
H332 H 0.14313 0.2993 0.40153 0.0
H333 H 0.30173 0.38958 0.37919 0.0
H334 H 0.46556 0.3457 0.51216 0.0
H335 H 0.1442 0.34345 0.35029 0.0
C336 C 0.33831 0.76761 0.06639 0.0
C337 C 0.28358 0.73373 0.0281 0.0
C338 C 0.22507 0.75463 0.93911 0.0
C339 C 0.27919 0.78858 0.97766 0.0
N340 N 0.40061 0.82626 0.07268 0.0
N341 N 0.16511 0.69557 0.93208 0.0
C342 C 0.33896 0.7948 0.04007 0.0
C343 C 0.22497 0.72733 0.96525 0.0
N344 N 0.38574 0.77419 0.12933 0.0
N345 N 0.17745 0.74818 0.87627 0.0
H346 H 0.16714 0.67452 0.94826 0.0
H347 H 0.10897 0.69034 0.89034 0.0
H348 H 0.17125 0.76794 0.85689 0.0
H349 H 0.14919 0.72298 0.8415 0.0
H350 H 0.41325 0.7995 0.16406 0.0
H351 H 0.39229 0.75446 0.1488 0.0
H352 H 0.45922 0.83086 0.11314 0.0
H353 H 0.39879 0.84739 0.05673 0.0
C354 C 0.84114 0.29441 0.03905 0.0
C355 C 0.77159 0.28875 0.97993 0.0
C356 C 0.71642 0.22817 0.97094 0.0
C357 C 0.78557 0.23394 0.03026 0.0
N358 N 0.90137 0.27365 0.12623 0.0
N359 N 0.65414 0.24931 0.8845 0.0
C360 C 0.84514 0.26733 0.06558 0.0
C361 C 0.71152 0.25542 0.94474 0.0
N362 N 0.90737 0.32522 0.06815 0.0
N363 N 0.65193 0.19704 0.9412 0.0
H364 H 0.64465 0.26903 0.86519 0.0
H365 H 0.62094 0.22435 0.85151 0.0
H366 H 0.65832 0.17576 0.95663 0.0
H367 H 0.58739 0.19278 0.90367 0.0
H368 H 0.97276 0.3291 0.1051 0.0
H369 H 0.90188 0.34646 0.05257 0.0
H370 H 0.93342 0.29877 0.15929 0.0
H371 H 0.91037 0.25406 0.14589 0.0
C372 C 0.35539 0.2298 0.47613 0.0
C373 C 0.28697 0.23515 0.53498 0.0
C374 C 0.23189 0.29625 0.5465 0.0
C375 C 0.30309 0.29138 0.48892 0.0
N376 N 0.42022 0.25267 0.3931 0.0
N377 N 0.1699 0.27406 0.6307 0.0
C378 C 0.36195 0.25791 0.45226 0.0
C379 C 0.22708 0.26847 0.57106 0.0
N380 N 0.4175 0.19822 0.44474 0.0
N381 N 0.16505 0.32701 0.57605 0.0
H382 H 0.15964 0.2539 0.64872 0.0
H383 H 0.13806 0.29908 0.66448 0.0
H384 H 0.17081 0.34876 0.56198 0.0
H385 H 0.09817 0.33021 0.61139 0.0
H386 H 0.48036 0.19371 0.40675 0.0
H387 H 0.40995 0.17651 0.4588 0.0
H388 H 0.45398 0.22796 0.35935 0.0
H389 H 0.43027 0.27298 0.37543 0.0
C390 C 0.80558 0.75078 0.4105 0.0
C391 C 0.87797 0.77846 0.45795 0.0
C392 C 0.82305 0.75888 0.54841 0.0
C393 C 0.74418 0.73301 0.50224 0.0
N394 N 0.6487 0.70665 0.392 0.0
N395 N 0.9476 0.81158 0.57336 0.0
C396 C 0.7327 0.72946 0.43384 0.0
C397 C 0.88427 0.7833 0.52736 0.0
N398 N 0.80722 0.74471 0.34291 0.0
N399 N 0.84154 0.75939 0.61196 0.0
H400 H 0.99848 0.82894 0.55947 0.0
H401 H 0.94403 0.81942 0.62594 0.0
H402 H 0.79747 0.74214 0.62926 0.0
H403 H 0.90682 0.77483 0.64578 0.0
H404 H 0.76925 0.72218 0.30442 0.0
H405 H 0.85268 0.76122 0.32443 0.0
H406 H 0.62583 0.70561 0.3441 0.0
H407 H 0.59584 0.69003 0.40685 0.0
C408 C 0.47832 0.99303 0.94157 0.0
C409 C 0.41007 1.00873 1.00262 0.0
C410 C 0.59911 0.03131 0.06763 0.0
C411 C 0.66739 0.01568 0.00655 0.0
N412 N 0.66642 0.98859 0.88371 0.0
N413 N 0.41102 0.03561 0.12542 0.0
C414 C 0.60513 0.99817 0.9433 0.0
C415 C 0.47232 0.02615 0.06587 0.0
N416 N 0.42325 0.97206 0.88146 0.0
N417 N 0.65411 0.05222 0.1278 0.0
H418 H 0.31892 0.03381 0.12694 0.0
H419 H 0.45112 0.04283 0.17307 0.0
H420 H 0.74572 0.05567 0.1337 0.0
H421 H 0.6087 0.06822 0.17198 0.0
H422 H 0.46866 0.95591 0.83737 0.0
H423 H 0.33159 0.96868 0.87562 0.0
H424 H 0.62629 0.98125 0.83605 0.0
H425 H 0.75851 0.99038 0.88213 0.0
C426 C 0.47665 0.03229 0.56663 0.0
C427 C 0.40755 0.01501 0.50593 0.0
C428 C 0.5964 0.99317 0.44131 0.0
C429 C 0.66556 0.01061 0.50208 0.0
N430 N 0.66624 0.03841 0.62494 0.0
N431 N 0.40543 0.98502 0.38329 0.0
C432 C 0.60391 0.02816 0.56513 0.0
C433 C 0.46878 0.99669 0.44296 0.0
N434 N 0.42174 0.0536 0.62629 0.0
N435 N 0.65158 0.97214 0.38156 0.0
H436 H 0.31307 0.98639 0.38169 0.0
H437 H 0.4437 0.97659 0.3352 0.0
H438 H 0.7433 0.97091 0.37485 0.0
H439 H 0.60667 0.95394 0.33892 0.0
H440 H 0.46729 0.07087 0.66961 0.0
H441 H 0.32993 0.05604 0.63234 0.0
H442 H 0.6268 0.04589 0.67255 0.0
H443 H 0.75844 0.03671 0.62681 0.0
C444 C 0.95433 0.52693 0.0688 0.0
C445 C 0.89147 0.50821 0.00614 0.0
C446 C 0.08598 0.4958 0.94628 0.0
C447 C 0.14914 0.51395 0.00899 0.0
N448 N 0.13722 0.55291 0.12928 0.0
N449 N 0.90368 0.46929 0.88586 0.0
C450 C 0.08143 0.53122 0.06991 0.0
C451 C 0.9592 0.49106 0.94526 0.0
N452 N 0.89338 0.53847 0.12879 0.0
N453 N 0.14614 0.48545 0.88624 0.0
H454 H 0.81193 0.46639 0.87986 0.0
H455 H 0.9489 0.4522 0.84246 0.0
H456 H 0.23811 0.48693 0.88413 0.0
H457 H 0.1051 0.47786 0.83874 0.0
H458 H 0.93368 0.54671 0.1766 0.0
H459 H 0.80121 0.53747 0.13089 0.0
H460 H 0.09236 0.57076 0.17211 0.0
H461 H 0.22906 0.5551 0.13562 0.0
C462 C 0.12726 0.52131 0.56862 0.0
C463 C 0.1891 0.50829 0.50511 0.0
C464 C 0.99385 0.50731 0.44991 0.0
C465 C 0.93038 0.51422 0.51102 0.0
N466 N 0.94657 0.51483 0.62329 0.0
N467 N 0.16481 0.47757 0.38231 0.0
C468 C 0.9999 0.51799 0.56933 0.0
C469 C 0.11751 0.49752 0.44477 0.0
N470 N 0.18862 0.53625 0.62868 0.0
N471 N 0.93925 0.51286 0.39816 0.0
H472 H 0.25272 0.46856 0.37559 0.0
H473 H 0.11252 0.46731 0.33813 0.0
H474 H 0.85656 0.52572 0.40535 0.0
H475 H 0.98371 0.51018 0.35378 0.0
H476 H 0.14599 0.54856 0.67566 0.0
H477 H 0.28083 0.53918 0.63103 0.0
H478 H 0.99405 0.51454 0.66509 0.0
H479 H 0.85802 0.50687 0.62043 0.0
C480 C 0.13006 0.01705 0.29074 0.0
C481 C 1.02171 0.01731 0.32449 0.0
C482 C 0.91182 1.00989 0.21924 0.0
C483 C 1.02183 1.00741 0.18493 0.0
N484 N 0.23258 0.99425 0.18335 0.0
N485 N 0.80795 0.02186 0.32571 0.0
C486 C 0.12999 1.00674 0.21915 0.0
C487 C 0.91177 0.01555 0.28976 0.0
N488 N 0.23327 0.02848 0.32705 0.0
N489 N 0.80787 1.00419 0.18284 0.0
H490 H 0.80616 0.02773 0.37772 0.0
H491 H 0.72476 0.02436 0.30634 0.0
H492 H 0.80605 0.99828 0.13083 0.0
H493 H 0.7245 1.0022 0.20185 0.0
H494 H 0.31184 0.03223 0.3051 0.0
H495 H 0.23748 0.0383 0.38001 0.0
H496 H 0.31058 0.98992 0.20579 0.0
H497 H 0.2366 0.98398 0.13041 0.0
C498 C 0.94781 0.01819 0.79089 0.0
C499 C 0.05609 0.0174 0.82482 0.0
C500 C 0.16571 0.01051 0.72051 0.0
C501 C 0.05549 1.00858 0.68579 0.0
N502 N 0.84421 0.99638 0.68333 0.0
N503 N 0.26995 0.02083 0.82699 0.0
C504 C 0.94744 1.00817 0.71943 0.0
C505 C 0.16596 0.01542 0.79068 0.0
N506 N 0.84519 0.03045 0.82681 0.0
N507 N 0.2696 1.00511 0.68481 0.0
H508 H 0.2718 0.02624 0.87881 0.0
H509 H 0.35341 0.02292 0.80824 0.0
H510 H 0.27136 0.99962 0.63297 0.0
H511 H 0.35327 1.00305 0.7041 0.0
H512 H 0.76714 0.03489 0.80455 0.0
H513 H 0.84109 0.04043 0.87972 0.0
H514 H 0.76637 0.99226 0.70546 0.0
H515 H 0.83914 0.98649 0.63044 0.0
C516 C 0.6219 0.49777 0.2784 0.0
C517 C 0.51768 0.50761 0.3192 0.0
C518 C 0.40511 0.5085 0.22071 0.0
C519 C 0.51272 0.50414 0.18377 0.0
N520 N 0.72435 0.49138 0.17553 0.0
N521 N 0.30951 0.52363 0.32969 0.0
C522 C 0.62114 0.49771 0.21199 0.0
C523 C 0.40906 0.51321 0.29031 0.0
N524 N 0.71999 0.48599 0.3014 0.0
N525 N 0.29839 0.50537 0.18773 0.0
H526 H 0.30822 0.52592 0.37977 0.0
H527 H 0.23148 0.53251 0.31471 0.0
H528 H 0.29244 0.49924 0.13569 0.0
H529 H 0.21639 0.50464 0.20953 0.0
H530 H 0.79436 0.47416 0.27196 0.0
H531 H 0.7223 0.48461 0.34858 0.0
H532 H 0.80879 0.49295 0.19699 0.0
H533 H 0.72747 0.48579 0.12383 0.0
C534 C 0.46312 0.5061 0.71734 0.0
C535 C 0.57237 0.51531 0.69479 0.0
C536 C 0.66223 0.52367 0.80547 0.0
C537 C 0.55036 0.51795 0.82938 0.0
N538 N 0.33751 0.52002 0.81549 0.0
N539 N 0.76063 0.54734 0.73362 0.0
C540 C 0.44851 0.51404 0.78769 0.0
C541 C 0.66788 0.52836 0.74329 0.0
N542 N 0.3715 0.49043 0.67306 0.0
N543 N 0.76323 0.5259 0.84275 0.0
H544 H 0.76674 0.55483 0.69298 0.0
H545 H 0.82496 0.55989 0.77103 0.0
H546 H 0.76182 0.5257 0.89108 0.0
H547 H 0.84847 0.52582 0.8236 0.0
H548 H 0.29662 0.48009 0.68737 0.0
H549 H 0.37207 0.4855 0.62159 0.0
H550 H 0.26081 0.51988 0.78758 0.0
H551 H 0.32459 0.53054 0.86799 0.0
loop_
_geom_bond_atom_site_label_1
_geom_bond_atom_site_label_2
_geom_bond_distance
_geom_bond_site_symmetry_2
_ccdc_geom_bond_type
Tb0 N29 2.617 . S
Tb0 N35 2.572 . S
Tb0 O44 2.465 1_655 S
Tb0 O45 2.387 . S
Tb0 O47 2.428 1_655 S
Tb0 O48 2.308 1_556 S
Tb0 O52 2.349 1_655 S
Tb0 O55 2.393 1_655 S
Tb0 C64 2.802 1_655 S
C1 N2 1.379 . S
C1 C4 1.416 . S
C1 C8 1.424 . S
N2 C1 1.379 . S
N2 C5 1.334 . S
N2 Tb11 2.617 . S
C3 C5 1.390 . S
C3 C6 1.339 . S
C3 H23 0.930 . S
C4 C1 1.416 . S
C4 C6 1.416 . S
C4 C10 1.448 . S
C5 N2 1.334 . S
C5 C3 1.390 . S
C5 H16 0.930 . S
C6 C3 1.339 . S
C6 C4 1.416 . S
C6 H27 0.930 . S
C7 C8 1.413 . S
C7 C9 1.427 . S
C7 C13 1.415 . S
C8 C1 1.424 . S
C8 C7 1.413 . S
C8 N12 1.361 . S
C9 C7 1.427 . S
C9 C10 1.328 . S
C9 H24 0.929 . S
C10 C4 1.448 . S
C10 C9 1.328 . S
C10 H25 0.930 . S
Tb11 N2 2.617 . S
Tb11 N12 2.572 . S
Tb11 O46 2.349 1_455 S
Tb11 O49 2.393 1_455 S
Tb11 O50 2.465 1_455 S
Tb11 O51 2.387 . S
Tb11 O53 2.428 1_455 S
Tb11 O54 2.308 1_554 S
Tb11 C75 2.802 1_455 S
N12 C8 1.361 . S
N12 Tb11 2.572 . S
N12 C14 1.340 1_554 S
C13 C7 1.415 . S
C13 C15 1.333 1_554 S
C13 H21 0.931 1_554 S
C14 N12 1.340 1_556 S
C14 C15 1.407 . S
C14 H20 0.930 . S
C15 C13 1.333 1_556 S
C15 C14 1.407 . S
C15 H17 0.929 . S
H16 C5 0.930 . S
H17 C15 0.929 . S
H18 C33 0.930 . S
H19 C40 0.929 . S
H20 C14 0.930 . S
H21 C13 0.931 1_556 S
H22 C36 0.930 . S
H23 C3 0.930 . S
H24 C9 0.929 . S
H25 C10 0.930 . S
H26 C31 0.930 . S
H27 C6 0.930 . S
H28 C39 0.939 . S
N29 Tb0 2.617 . S
N29 C30 1.379 . S
N29 C33 1.334 . S
C30 N29 1.379 . S
C30 C32 1.416 . S
C30 C38 1.424 . S
C31 H26 0.930 . S
C31 C33 1.390 . S
C31 C34 1.339 . S
C32 C30 1.416 . S
C32 C34 1.416 . S
C32 C65 1.448 . S
C33 H18 0.930 . S
C33 N29 1.334 . S
C33 C31 1.390 . S
C34 C31 1.339 . S
C34 C32 1.416 . S
C34 H41 0.930 . S
N35 Tb0 2.572 . S
N35 C36 1.340 1_556 S
N35 C38 1.361 . S
C36 H22 0.930 . S
C36 N35 1.340 1_554 S
C36 C40 1.407 . S
C37 C38 1.413 . S
C37 C39 1.398 1_556 S
C37 C66 1.427 . S
C38 C30 1.424 . S
C38 N35 1.361 . S
C38 C37 1.413 . S
C39 H28 0.939 . S
C39 C37 1.398 1_554 S
C39 C40 1.343 . S
C40 H19 0.929 . S
C40 C36 1.407 . S
C40 C39 1.343 . S
H41 C34 0.930 . S
H42 C65 0.930 . S
H43 C66 0.929 . S
O44 Tb0 2.465 1_455 S
O44 C64 1.264 . S
O45 Tb0 2.387 . S
O45 C56 1.264 1_565 S
O46 Tb11 2.349 1_655 S
O46 C56 1.243 1_554 S
O47 Tb0 2.428 1_455 S
O47 C64 1.256 . S
O48 Tb0 2.308 1_554 S
O48 C63 1.266 1_565 S
O49 Tb11 2.393 1_655 S
O49 C63 1.248 . S
O50 Tb11 2.465 1_655 S
O50 C75 1.264 . S
O51 Tb11 2.387 . S
O51 C67 1.264 1_545 S
O52 Tb0 2.349 1_455 S
O52 C67 1.243 1_556 S
O53 Tb11 2.428 1_655 S
O53 C75 1.256 . S
O54 Tb11 2.308 1_556 S
O54 C74 1.266 1_545 S
O55 Tb0 2.393 1_455 S
O55 C74 1.248 . S
C56 O45 1.264 1_545 S
C56 O46 1.243 1_556 S
C57 C60 1.399 . S
C57 C62 1.383 . S
C57 C64 1.496 . S
C58 C59 1.399 . S
C58 C62 1.389 . S
C59 C58 1.399 . S
C59 C61 1.380 . S
C59 H76 0.929 . S
C60 C57 1.399 . S
C60 C61 1.392 . S
C60 H77 0.929 . S
C61 C59 1.380 . S
C61 C60 1.392 . S
C61 H78 0.929 . S
C62 C57 1.383 . S
C62 C58 1.389 . S
C62 H79 0.931 1_556 S
C63 O48 1.266 1_545 S
C63 O49 1.248 . S
C64 Tb0 2.802 1_455 S
C64 O44 1.264 . S
C64 O47 1.256 . S
C64 C57 1.496 . S
C65 C32 1.448 . S
C65 H42 0.930 . S
C65 C66 1.328 . S
C66 C37 1.427 . S
C66 H43 0.929 . S
C66 C65 1.328 . S
C67 O51 1.264 1_565 S
C67 O52 1.243 1_554 S
C68 C71 1.399 . S
C68 C72 1.383 . S
C68 C75 1.496 . S
C69 C70 1.399 . S
C69 C72 1.389 . S
C70 C69 1.399 . S
C70 C73 1.380 . S
C70 H80 0.929 . S
C71 C68 1.399 . S
C71 C73 1.392 . S
C71 H81 0.929 . S
C72 C68 1.383 . S
C72 C69 1.389 . S
C72 H82 0.931 1_554 S
C73 C70 1.380 . S
C73 C71 1.392 . S
C73 H83 0.929 . S
C74 O54 1.266 1_565 S
C74 O55 1.248 . S
C75 Tb11 2.802 1_655 S
C75 O50 1.264 . S
C75 O53 1.256 . S
C75 C68 1.496 . S
H76 C59 0.929 . S
H77 C60 0.929 . S
H78 C61 0.929 . S
H79 C62 0.931 1_554 S
H80 C70 0.929 . S
H81 C71 0.929 . S
H82 C72 0.931 1_556 S
H83 C73 0.929 . S
Tb84 N113 2.617 . S
Tb84 N119 2.572 . S
Tb84 O128 2.465 1_655 S
Tb84 O129 2.387 . S
Tb84 O131 2.428 1_655 S
Tb84 O132 2.308 . S
Tb84 O136 2.349 1_655 S
Tb84 O139 2.393 1_655 S
Tb84 C148 2.802 1_655 S
C85 N86 1.379 . S
C85 C88 1.416 . S
C85 C92 1.424 . S
N86 C85 1.379 . S
N86 C89 1.334 . S
N86 Tb95 2.617 . S
C87 C89 1.390 . S
C87 C90 1.339 . S
C87 H107 0.930 . S
C88 C85 1.416 . S
C88 C90 1.416 . S
C88 C94 1.448 . S
C89 N86 1.334 . S
C89 C87 1.390 . S
C89 H100 0.930 . S
C90 C87 1.339 . S
C90 C88 1.416 . S
C90 H111 0.930 . S
C91 C92 1.413 . S
C91 C93 1.427 . S
C91 C97 1.416 . S
C92 C85 1.424 . S
C92 C91 1.413 . S
C92 N96 1.361 . S
C93 C91 1.427 . S
C93 C94 1.328 . S
C93 H108 0.929 . S
C94 C88 1.448 . S
C94 C93 1.328 . S
C94 H109 0.930 . S
Tb95 N86 2.617 . S
Tb95 N96 2.572 . S
Tb95 O130 2.349 1_455 S
Tb95 O133 2.393 1_455 S
Tb95 O134 2.465 1_455 S
Tb95 O135 2.387 . S
Tb95 O137 2.428 1_455 S
Tb95 O138 2.308 . S
Tb95 C159 2.802 1_455 S
N96 C92 1.361 . S
N96 Tb95 2.572 . S
N96 C98 1.340 . S
C97 C91 1.416 . S
C97 C99 1.332 . S
C97 H105 0.931 . S
C98 N96 1.340 . S
C98 C99 1.407 . S
C98 H104 0.930 . S
C99 C97 1.332 . S
C99 C98 1.407 . S
C99 H101 0.929 . S
H100 C89 0.930 . S
H101 C99 0.929 . S
H102 C117 0.930 . S
H103 C124 0.929 . S
H104 C98 0.930 . S
H105 C97 0.931 . S
H106 C120 0.930 . S
H107 C87 0.930 . S
H108 C93 0.929 . S
H109 C94 0.930 . S
H110 C115 0.930 . S
H111 C90 0.930 . S
H112 C123 0.931 . S
N113 Tb84 2.617 . S
N113 C114 1.379 . S
N113 C117 1.334 . S
C114 N113 1.379 . S
C114 C116 1.416 . S
C114 C122 1.424 . S
C115 H110 0.930 . S
C115 C117 1.390 . S
C115 C118 1.339 . S
C116 C114 1.416 . S
C116 C118 1.416 . S
C116 C149 1.448 . S
C117 H102 0.930 . S
C117 N113 1.334 . S
C117 C115 1.390 . S
C118 C115 1.339 . S
C118 C116 1.416 . S
C118 H125 0.930 . S
N119 Tb84 2.572 . S
N119 C120 1.340 . S
N119 C122 1.361 . S
C120 H106 0.930 . S
C120 N119 1.340 . S
C120 C124 1.407 . S
C121 C122 1.413 . S
C121 C123 1.416 . S
C121 C150 1.427 . S
C122 C114 1.424 . S
C122 N119 1.361 . S
C122 C121 1.413 . S
C123 H112 0.931 . S
C123 C121 1.416 . S
C123 C124 1.332 . S
C124 H103 0.929 . S
C124 C120 1.407 . S
C124 C123 1.332 . S
H125 C118 0.930 . S
H126 C149 0.930 . S
H127 C150 0.929 . S
O128 Tb84 2.465 1_455 S
O128 C148 1.264 . S
O129 Tb84 2.387 . S
O129 C140 1.264 1_545 S
O130 Tb95 2.349 1_655 S
O130 C140 1.243 . S
O131 Tb84 2.428 1_455 S
O131 C148 1.256 . S
O132 Tb84 2.308 . S
O132 C147 1.266 1_545 S
O133 Tb95 2.393 1_655 S
O133 C147 1.248 . S
O134 Tb95 2.465 1_655 S
O134 C159 1.264 . S
O135 Tb95 2.387 . S
O135 C151 1.264 1_565 S
O136 Tb84 2.349 1_455 S
O136 C151 1.243 . S
O137 Tb95 2.428 1_655 S
O137 C159 1.256 . S
O138 Tb95 2.308 . S
O138 C158 1.266 1_565 S
O139 Tb84 2.393 1_455 S
O139 C158 1.248 . S
C140 O129 1.264 1_565 S
C140 O130 1.243 . S
C141 C144 1.399 . S
C141 C146 1.383 . S
C141 C148 1.496 . S
C142 C143 1.399 . S
C142 C146 1.389 . S
C143 C142 1.399 . S
C143 C145 1.380 . S
C143 H160 0.929 . S
C144 C141 1.399 . S
C144 C145 1.392 . S
C144 H161 0.929 . S
C145 C143 1.380 . S
C145 C144 1.392 . S
C145 H162 0.929 . S
C146 C141 1.383 . S
C146 C142 1.389 . S
C146 H163 0.931 . S
C147 O132 1.266 1_565 S
C147 O133 1.248 . S
C148 Tb84 2.802 1_455 S
C148 O128 1.264 . S
C148 O131 1.256 . S
C148 C141 1.496 . S
C149 C116 1.448 . S
C149 H126 0.930 . S
C149 C150 1.328 . S
C150 C121 1.427 . S
C150 H127 0.929 . S
C150 C149 1.328 . S
C151 O135 1.264 1_545 S
C151 O136 1.243 . S
C152 C155 1.399 . S
C152 C156 1.383 . S
C152 C159 1.496 . S
C153 C154 1.399 . S
C153 C156 1.389 . S
C154 C153 1.399 . S
C154 C157 1.380 . S
C154 H164 0.929 . S
C155 C152 1.399 . S
C155 C157 1.392 . S
C155 H165 0.929 . S
C156 C152 1.383 . S
C156 C153 1.389 . S
C156 H166 0.931 . S
C157 C154 1.380 . S
C157 C155 1.392 . S
C157 H167 0.929 . S
C158 O138 1.266 1_545 S
C158 O139 1.248 . S
C159 Tb95 2.802 1_655 S
C159 O134 1.264 . S
C159 O137 1.256 . S
C159 C152 1.496 . S
H160 C143 0.929 . S
H161 C144 0.929 . S
H162 C145 0.929 . S
H163 C146 0.931 . S
H164 C154 0.929 . S
H165 C155 0.929 . S
H166 C156 0.931 . S
H167 C157 0.929 . S
Tb168 N197 2.617 . S
Tb168 N203 2.572 . S
Tb168 O212 2.465 . S
Tb168 O213 2.387 . S
Tb168 O215 2.428 . S
Tb168 O216 2.308 1_556 S
Tb168 O220 2.349 . S
Tb168 O223 2.393 . S
Tb168 C232 2.802 . S
C169 N170 1.379 . S
C169 C172 1.416 . S
C169 C176 1.424 . S
N170 C169 1.379 . S
N170 C173 1.334 . S
N170 Tb179 2.617 . S
C171 C173 1.390 . S
C171 C174 1.339 . S
C171 H191 0.930 . S
C172 C169 1.416 . S
C172 C174 1.416 . S
C172 C178 1.448 . S
C173 N170 1.334 . S
C173 C171 1.390 . S
C173 H184 0.930 . S
C174 C171 1.339 . S
C174 C172 1.416 . S
C174 H195 0.930 . S
C175 C176 1.413 . S
C175 C177 1.427 . S
C175 C181 1.415 . S
C176 C169 1.424 . S
C176 C175 1.413 . S
C176 N180 1.361 . S
C177 C175 1.427 . S
C177 C178 1.328 . S
C177 H192 0.929 . S
C178 C172 1.448 . S
C178 C177 1.328 . S
C178 H193 0.930 . S
Tb179 N170 2.617 . S
Tb179 N180 2.572 . S
Tb179 O214 2.349 . S
Tb179 O217 2.393 . S
Tb179 O218 2.465 . S
Tb179 O219 2.387 . S
Tb179 O221 2.428 . S
Tb179 O222 2.308 1_554 S
Tb179 C243 2.802 . S
N180 C176 1.361 . S
N180 Tb179 2.572 . S
N180 C182 1.340 1_554 S
C181 C175 1.415 . S
C181 C183 1.333 1_554 S
C181 H189 0.931 1_554 S
C182 N180 1.340 1_556 S
C182 C183 1.407 . S
C182 H188 0.930 . S
C183 C181 1.333 1_556 S
C183 C182 1.407 . S
C183 H185 0.929 . S
H184 C173 0.930 . S
H185 C183 0.929 . S
H186 C201 0.930 . S
H187 C208 0.929 . S
H188 C182 0.930 . S
H189 C181 0.931 1_556 S
H190 C204 0.930 . S
H191 C171 0.930 . S
H192 C177 0.929 . S
H193 C178 0.930 . S
H194 C199 0.930 . S
H195 C174 0.930 . S
H196 C207 0.939 . S
N197 Tb168 2.617 . S
N197 C198 1.379 . S
N197 C201 1.334 . S
C198 N197 1.379 . S
C198 C200 1.416 . S
C198 C206 1.424 . S
C199 H194 0.930 . S
C199 C201 1.390 . S
C199 C202 1.339 . S
C200 C198 1.416 . S
C200 C202 1.416 . S
C200 C233 1.448 . S
C201 H186 0.930 . S
C201 N197 1.334 . S
C201 C199 1.390 . S
C202 C199 1.339 . S
C202 C200 1.416 . S
C202 H209 0.930 . S
N203 Tb168 2.572 . S
N203 C204 1.340 1_556 S
N203 C206 1.361 . S
C204 H190 0.930 . S
C204 N203 1.340 1_554 S
C204 C208 1.407 . S
C205 C206 1.413 . S
C205 C207 1.398 1_556 S
C205 C234 1.427 . S
C206 C198 1.424 . S
C206 N203 1.361 . S
C206 C205 1.413 . S
C207 H196 0.939 . S
C207 C205 1.398 1_554 S
C207 C208 1.343 . S
C208 H187 0.929 . S
C208 C204 1.407 . S
C208 C207 1.343 . S
H209 C202 0.930 . S
H210 C233 0.930 . S
H211 C234 0.929 . S
O212 Tb168 2.465 . S
O212 C232 1.264 . S
O213 Tb168 2.387 . S
O213 C224 1.264 . S
O214 Tb179 2.349 . S
O214 C224 1.243 1_554 S
O215 Tb168 2.428 . S
O215 C232 1.256 . S
O216 Tb168 2.308 1_554 S
O216 C231 1.266 . S
O217 Tb179 2.393 . S
O217 C231 1.248 . S
O218 Tb179 2.465 . S
O218 C243 1.264 . S
O219 Tb179 2.387 . S
O219 C235 1.264 . S
O220 Tb168 2.349 . S
O220 C235 1.243 1_556 S
O221 Tb179 2.428 . S
O221 C243 1.256 . S
O222 Tb179 2.308 1_556 S
O222 C242 1.266 . S
O223 Tb168 2.393 . S
O223 C242 1.248 . S
C224 O213 1.264 . S
C224 O214 1.243 1_556 S
C225 C228 1.399 . S
C225 C230 1.383 . S
C225 C232 1.496 . S
C226 C227 1.399 . S
C226 C230 1.389 . S
C227 C226 1.399 . S
C227 C229 1.380 . S
C227 H244 0.929 . S
C228 C225 1.399 . S
C228 C229 1.392 . S
C228 H245 0.929 . S
C229 C227 1.380 . S
C229 C228 1.392 . S
C229 H246 0.929 . S
C230 C225 1.383 . S
C230 C226 1.389 . S
C230 H247 0.931 1_556 S
C231 O216 1.266 . S
C231 O217 1.248 . S
C232 Tb168 2.802 . S
C232 O212 1.264 . S
C232 O215 1.256 . S
C232 C225 1.496 . S
C233 C200 1.448 . S
C233 H210 0.930 . S
C233 C234 1.328 . S
C234 C205 1.427 . S
C234 H211 0.929 . S
C234 C233 1.328 . S
C235 O219 1.264 . S
C235 O220 1.243 1_554 S
C236 C239 1.399 . S
C236 C240 1.383 . S
C236 C243 1.496 . S
C237 C238 1.399 . S
C237 C240 1.389 . S
C238 C237 1.399 . S
C238 C241 1.380 . S
C238 H248 0.929 . S
C239 C236 1.399 . S
C239 C241 1.392 . S
C239 H249 0.929 . S
C240 C236 1.383 . S
C240 C237 1.389 . S
C240 H250 0.931 1_554 S
C241 C238 1.380 . S
C241 C239 1.392 . S
C241 H251 0.929 . S
C242 O222 1.266 . S
C242 O223 1.248 . S
C243 Tb179 2.802 . S
C243 O218 1.264 . S
C243 O221 1.256 . S
C243 C236 1.496 . S
H244 C227 0.929 . S
H245 C228 0.929 . S
H246 C229 0.929 . S
H247 C230 0.931 1_554 S
H248 C238 0.929 . S
H249 C239 0.929 . S
H250 C240 0.931 1_556 S
H251 C241 0.929 . S
Tb252 N281 2.617 . S
Tb252 N287 2.572 . S
Tb252 O296 2.465 . S
Tb252 O297 2.387 . S
Tb252 O299 2.428 . S
Tb252 O300 2.308 . S
Tb252 O304 2.349 . S
Tb252 O307 2.393 . S
Tb252 C316 2.802 . S
C253 N254 1.379 . S
C253 C256 1.416 . S
C253 C260 1.424 . S
N254 C253 1.379 . S
N254 C257 1.334 . S
N254 Tb263 2.617 . S
C255 C257 1.390 . S
C255 C258 1.339 . S
C255 H275 0.930 . S
C256 C253 1.416 . S
C256 C258 1.416 . S
C256 C262 1.448 . S
C257 N254 1.334 . S
C257 C255 1.390 . S
C257 H268 0.930 . S
C258 C255 1.339 . S
C258 C256 1.416 . S
C258 H279 0.930 . S
C259 C260 1.413 . S
C259 C261 1.427 . S
C259 C265 1.416 . S
C260 C253 1.424 . S
C260 C259 1.413 . S
C260 N264 1.361 . S
C261 C259 1.427 . S
C261 C262 1.328 . S
C261 H276 0.929 . S
C262 C256 1.448 . S
C262 C261 1.328 . S
C262 H277 0.930 . S
Tb263 N254 2.617 . S
Tb263 N264 2.572 . S
Tb263 O298 2.349 . S
Tb263 O301 2.393 . S
Tb263 O302 2.465 . S
Tb263 O303 2.387 . S
Tb263 O305 2.428 . S
Tb263 O306 2.308 . S
Tb263 C327 2.802 . S
N264 C260 1.361 . S
N264 Tb263 2.572 . S
N264 C266 1.340 . S
C265 C259 1.416 . S
C265 C267 1.332 . S
C265 H273 0.931 . S
C266 N264 1.340 . S
C266 C267 1.407 . S
C266 H272 0.930 . S
C267 C265 1.332 . S
C267 C266 1.407 . S
C267 H269 0.929 . S
H268 C257 0.930 . S
H269 C267 0.929 . S
H270 C285 0.930 . S
H271 C292 0.929 . S
H272 C266 0.930 . S
H273 C265 0.931 . S
H274 C288 0.930 . S
H275 C255 0.930 . S
H276 C261 0.929 . S
H277 C262 0.930 . S
H278 C283 0.930 . S
H279 C258 0.930 . S
H280 C291 0.931 . S
N281 Tb252 2.617 . S
N281 C282 1.379 . S
N281 C285 1.334 . S
C282 N281 1.379 . S
C282 C284 1.416 . S
C282 C290 1.424 . S
C283 H278 0.930 . S
C283 C285 1.390 . S
C283 C286 1.339 . S
C284 C282 1.416 . S
C284 C286 1.416 . S
C284 C317 1.448 . S
C285 H270 0.930 . S
C285 N281 1.334 . S
C285 C283 1.390 . S
C286 C283 1.339 . S
C286 C284 1.416 . S
C286 H293 0.930 . S
N287 Tb252 2.572 . S
N287 C288 1.340 . S
N287 C290 1.361 . S
C288 H274 0.930 . S
C288 N287 1.340 . S
C288 C292 1.407 . S
C289 C290 1.413 . S
C289 C291 1.416 . S
C289 C318 1.427 . S
C290 C282 1.424 . S
C290 N287 1.361 . S
C290 C289 1.413 . S
C291 H280 0.931 . S
C291 C289 1.416 . S
C291 C292 1.332 . S
C292 H271 0.929 . S
C292 C288 1.407 . S
C292 C291 1.332 . S
H293 C286 0.930 . S
H294 C317 0.930 . S
H295 C318 0.929 . S
O296 Tb252 2.465 . S
O296 C316 1.264 . S
O297 Tb252 2.387 . S
O297 C308 1.264 . S
O298 Tb263 2.349 . S
O298 C308 1.243 . S
O299 Tb252 2.428 . S
O299 C316 1.256 . S
O300 Tb252 2.308 . S
O300 C315 1.266 . S
O301 Tb263 2.393 . S
O301 C315 1.248 . S
O302 Tb263 2.465 . S
O302 C327 1.264 . S
O303 Tb263 2.387 . S
O303 C319 1.264 . S
O304 Tb252 2.349 . S
O304 C319 1.243 . S
O305 Tb263 2.428 . S
O305 C327 1.256 . S
O306 Tb263 2.308 . S
O306 C326 1.266 . S
O307 Tb252 2.393 . S
O307 C326 1.248 . S
C308 O297 1.264 . S
C308 O298 1.243 . S
C309 C312 1.399 . S
C309 C314 1.383 . S
C309 C316 1.496 . S
C310 C311 1.399 . S
C310 C314 1.389 . S
C311 C310 1.399 . S
C311 C313 1.380 . S
C311 H328 0.929 . S
C312 C309 1.399 . S
C312 C313 1.392 . S
C312 H329 0.929 . S
C313 C311 1.380 . S
C313 C312 1.392 . S
C313 H330 0.929 . S
C314 C309 1.383 . S
C314 C310 1.389 . S
C314 H331 0.931 . S
C315 O300 1.266 . S
C315 O301 1.248 . S
C316 Tb252 2.802 . S
C316 O296 1.264 . S
C316 O299 1.256 . S
C316 C309 1.496 . S
C317 C284 1.448 . S
C317 H294 0.930 . S
C317 C318 1.328 . S
C318 C289 1.427 . S
C318 H295 0.929 . S
C318 C317 1.328 . S
C319 O303 1.264 . S
C319 O304 1.243 . S
C320 C323 1.399 . S
C320 C324 1.383 . S
C320 C327 1.496 . S
C321 C322 1.399 . S
C321 C324 1.389 . S
C322 C321 1.399 . S
C322 C325 1.380 . S
C322 H332 0.929 . S
C323 C320 1.399 . S
C323 C325 1.392 . S
C323 H333 0.929 . S
C324 C320 1.383 . S
C324 C321 1.389 . S
C324 H334 0.931 . S
C325 C322 1.380 . S
C325 C323 1.392 . S
C325 H335 0.929 . S
C326 O306 1.266 . S
C326 O307 1.248 . S
C327 Tb263 2.802 . S
C327 O302 1.264 . S
C327 O305 1.256 . S
C327 C320 1.496 . S
H328 C311 0.929 . S
H329 C312 0.929 . S
H330 C313 0.929 . S
H331 C314 0.931 . S
H332 C322 0.929 . S
H333 C323 0.929 . S
H334 C324 0.931 . S
H335 C325 0.929 . S
C336 C337 1.363 1_554 S
C336 C342 1.379 . S
C336 N344 1.356 . S
C337 C336 1.363 1_556 S
C337 C343 1.363 . S
C338 C339 1.363 1_556 S
C338 C343 1.379 . S
C338 N345 1.356 . S
C339 C338 1.363 1_554 S
C339 C342 1.363 . S
N340 C342 1.356 . S
N340 H352 0.984 . S
N340 H353 0.985 . S
N341 C343 1.356 . S
N341 H346 0.984 . S
N341 H347 0.985 . S
C342 C336 1.379 . S
C342 C339 1.363 . S
C342 N340 1.356 . S
C343 C337 1.363 . S
C343 C338 1.379 . S
C343 N341 1.356 . S
N344 C336 1.356 . S
N344 H350 0.984 . S
N344 H351 0.984 . S
N345 C338 1.356 . S
N345 H348 0.984 . S
N345 H349 0.985 . S
H346 N341 0.984 . S
H347 N341 0.985 . S
H348 N345 0.984 . S
H349 N345 0.985 . S
H350 N344 0.984 . S
H351 N344 0.984 . S
H352 N340 0.984 . S
H353 N340 0.985 . S
C354 C355 1.363 . S
C354 C360 1.379 . S
C354 N362 1.356 . S
C355 C354 1.363 . S
C355 C361 1.363 1_554 S
C356 C357 1.363 . S
C356 C361 1.379 . S
C356 N363 1.356 . S
C357 C356 1.363 . S
C357 C360 1.363 1_556 S
N358 C360 1.356 . S
N358 H370 0.984 . S
N358 H371 0.985 . S
N359 C361 1.356 . S
N359 H364 0.984 . S
N359 H365 0.985 . S
C360 C354 1.379 . S
C360 C357 1.363 1_554 S
C360 N358 1.356 . S
C361 C355 1.363 1_556 S
C361 C356 1.379 . S
C361 N359 1.356 . S
N362 C354 1.356 . S
N362 H368 0.984 . S
N362 H369 0.984 . S
N363 C356 1.356 . S
N363 H366 0.984 . S
N363 H367 0.985 . S
H364 N359 0.984 . S
H365 N359 0.985 . S
H366 N363 0.984 . S
H367 N363 0.985 . S
H368 N362 0.984 . S
H369 N362 0.984 . S
H370 N358 0.984 . S
H371 N358 0.985 . S
C372 C373 1.363 . S
C372 C378 1.379 . S
C372 N380 1.356 . S
C373 C372 1.363 . S
C373 C379 1.363 . S
C374 C375 1.363 . S
C374 C379 1.379 . S
C374 N381 1.356 . S
C375 C374 1.363 . S
C375 C378 1.363 . S
N376 C378 1.356 . S
N376 H388 0.984 . S
N376 H389 0.985 . S
N377 C379 1.356 . S
N377 H382 0.984 . S
N377 H383 0.985 . S
C378 C372 1.379 . S
C378 C375 1.363 . S
C378 N376 1.356 . S
C379 C373 1.363 . S
C379 C374 1.379 . S
C379 N377 1.356 . S
N380 C372 1.356 . S
N380 H386 0.984 . S
N380 H387 0.984 . S
N381 C374 1.356 . S
N381 H384 0.984 . S
N381 H385 0.985 . S
H382 N377 0.984 . S
H383 N377 0.985 . S
H384 N381 0.984 . S
H385 N381 0.985 . S
H386 N380 0.984 . S
H387 N380 0.984 . S
H388 N376 0.984 . S
H389 N376 0.985 . S
C390 C391 1.363 . S
C390 C396 1.379 . S
C390 N398 1.356 . S
C391 C390 1.363 . S
C391 C397 1.363 . S
C392 C393 1.363 . S
C392 C397 1.379 . S
C392 N399 1.356 . S
C393 C392 1.363 . S
C393 C396 1.363 . S
N394 C396 1.356 . S
N394 H406 0.984 . S
N394 H407 0.985 . S
N395 C397 1.356 . S
N395 H400 0.984 . S
N395 H401 0.985 . S
C396 C390 1.379 . S
C396 C393 1.363 . S
C396 N394 1.356 . S
C397 C391 1.363 . S
C397 C392 1.379 . S
C397 N395 1.356 . S
N398 C390 1.356 . S
N398 H404 0.984 . S
N398 H405 0.984 . S
N399 C392 1.356 . S
N399 H402 0.984 . S
N399 H403 0.985 . S
H400 N395 0.984 . S
H401 N395 0.985 . S
H402 N399 0.984 . S
H403 N399 0.985 . S
H404 N398 0.984 . S
H405 N398 0.984 . S
H406 N394 0.984 . S
H407 N394 0.985 . S
C408 C409 1.367 . S
C408 C414 1.379 . S
C408 N416 1.356 . S
C409 C408 1.367 . S
C409 C415 1.359 1_566 S
C410 C411 1.363 . S
C410 C415 1.379 . S
C410 N417 1.356 . S
C411 C410 1.363 . S
C411 C414 1.363 1_544 S
N412 C414 1.356 . S
N412 H424 0.984 . S
N412 H425 0.985 . S
N413 C415 1.356 . S
N413 H418 0.984 . S
N413 H419 0.985 . S
C414 C408 1.379 . S
C414 C411 1.363 1_566 S
C414 N412 1.356 . S
C415 C409 1.359 1_544 S
C415 C410 1.379 . S
C415 N413 1.356 . S
N416 C408 1.356 . S
N416 H422 0.984 . S
N416 H423 0.984 . S
N417 C410 1.356 . S
N417 H420 0.984 . S
N417 H421 0.985 . S
H418 N413 0.984 . S
H419 N413 0.985 . S
H420 N417 0.984 . S
H421 N417 0.985 . S
H422 N416 0.984 . S
H423 N416 0.984 . S
H424 N412 0.984 . S
H425 N412 0.985 . S
C426 C427 1.363 . S
C426 C432 1.379 . S
C426 N434 1.356 . S
C427 C426 1.363 . S
C427 C433 1.363 1_545 S
C428 C429 1.363 . S
C428 C433 1.379 . S
C428 N435 1.356 . S
C429 C428 1.363 . S
C429 C432 1.363 1_565 S
N430 C432 1.356 . S
N430 H442 0.984 . S
N430 H443 0.985 . S
N431 C433 1.356 . S
N431 H436 0.984 . S
N431 H437 0.985 . S
C432 C426 1.379 . S
C432 C429 1.363 1_545 S
C432 N430 1.356 . S
C433 C427 1.363 1_565 S
C433 C428 1.379 . S
C433 N431 1.356 . S
N434 C426 1.356 . S
N434 H440 0.984 . S
N434 H441 0.984 . S
N435 C428 1.356 . S
N435 H438 0.984 . S
N435 H439 0.985 . S
H436 N431 0.984 . S
H437 N431 0.985 . S
H438 N435 0.984 . S
H439 N435 0.985 . S
H440 N434 0.984 . S
H441 N434 0.984 . S
H442 N430 0.984 . S
H443 N430 0.985 . S
C444 C445 1.360 1_554 S
C444 C450 1.379 1_655 S
C444 N452 1.356 . S
C445 C444 1.360 1_556 S
C445 C451 1.367 . S
C446 C447 1.363 1_556 S
C446 C451 1.379 1_455 S
C446 N453 1.356 . S
C447 C446 1.363 1_554 S
C447 C450 1.363 . S
N448 C450 1.356 . S
N448 H460 0.984 . S
N448 H461 0.985 . S
N449 C451 1.356 . S
N449 H454 0.984 . S
N449 H455 0.985 . S
C450 C444 1.379 1_455 S
C450 C447 1.363 . S
C450 N448 1.356 . S
C451 C445 1.367 . S
C451 C446 1.379 1_655 S
C451 N449 1.356 . S
N452 C444 1.356 . S
N452 H458 0.984 . S
N452 H459 0.984 . S
N453 C446 1.356 . S
N453 H456 0.984 . S
N453 H457 0.985 . S
H454 N449 0.984 . S
H455 N449 0.985 . S
H456 N453 0.984 . S
H457 N453 0.985 . S
H458 N452 0.984 . S
H459 N452 0.984 . S
H460 N448 0.984 . S
H461 N448 0.985 . S
C462 C463 1.363 . S
C462 C468 1.379 1_455 S
C462 N470 1.356 . S
C463 C462 1.363 . S
C463 C469 1.363 . S
C464 C465 1.363 . S
C464 C469 1.379 1_655 S
C464 N471 1.356 . S
C465 C464 1.363 . S
C465 C468 1.363 . S
N466 C468 1.356 . S
N466 H478 0.984 . S
N466 H479 0.985 . S
N467 C469 1.356 . S
N467 H472 0.984 . S
N467 H473 0.985 . S
C468 C462 1.379 1_655 S
C468 C465 1.363 . S
C468 N466 1.356 . S
C469 C463 1.363 . S
C469 C464 1.379 1_455 S
C469 N467 1.356 . S
N470 C462 1.356 . S
N470 H476 0.984 . S
N470 H477 0.984 . S
N471 C464 1.356 . S
N471 H474 0.984 . S
N471 H475 0.985 . S
H472 N467 0.984 . S
H473 N467 0.985 . S
H474 N471 0.984 . S
H475 N471 0.985 . S
H476 N470 0.984 . S
H477 N470 0.984 . S
H478 N466 0.984 . S
H479 N466 0.985 . S
C480 C481 1.363 1_465 S
C480 C486 1.379 . S
C480 N488 1.356 . S
C481 C480 1.363 1_645 S
C481 C487 1.363 . S
C482 C483 1.363 . S
C482 C487 1.379 . S
C482 N489 1.356 . S
C483 C482 1.363 . S
C483 C486 1.363 1_645 S
N484 C486 1.356 . S
N484 H496 0.984 . S
N484 H497 0.985 . S
N485 C487 1.356 . S
N485 H490 0.984 . S
N485 H491 0.985 . S
C486 C480 1.379 . S
C486 C483 1.363 1_465 S
C486 N484 1.356 . S
C487 C481 1.363 . S
C487 C482 1.379 . S
C487 N485 1.356 . S
N488 C480 1.356 . S
N488 H494 0.984 . S
N488 H495 0.984 . S
N489 C482 1.356 . S
N489 H492 0.984 . S
N489 H493 0.985 . S
H490 N485 0.984 . S
H491 N485 0.985 . S
H492 N489 0.984 . S
H493 N489 0.985 . S
H494 N488 0.984 . S
H495 N488 0.984 . S
H496 N484 0.984 . S
H497 N484 0.985 . S
C498 C499 1.363 1_655 S
C498 C504 1.379 . S
C498 N506 1.356 . S
C499 C498 1.363 1_455 S
C499 C505 1.363 1_545 S
C500 C501 1.363 1_565 S
C500 C505 1.379 . S
C500 N507 1.356 . S
C501 C500 1.363 1_545 S
C501 C504 1.363 1_455 S
N502 C504 1.356 . S
N502 H514 0.984 . S
N502 H515 0.985 . S
N503 C505 1.356 . S
N503 H508 0.984 . S
N503 H509 0.985 . S
C504 C498 1.379 . S
C504 C501 1.363 1_655 S
C504 N502 1.356 . S
C505 C499 1.363 1_565 S
C505 C500 1.379 . S
C505 N503 1.356 . S
N506 C498 1.356 . S
N506 H512 0.984 . S
N506 H513 0.984 . S
N507 C500 1.356 . S
N507 H510 0.984 . S
N507 H511 0.985 . S
H508 N503 0.984 . S
H509 N503 0.985 . S
H510 N507 0.984 . S
H511 N507 0.985 . S
H512 N506 0.984 . S
H513 N506 0.984 . S
H514 N502 0.984 . S
H515 N502 0.985 . S
C516 C517 1.363 . S
C516 C522 1.379 . S
C516 N524 1.356 . S
C517 C516 1.363 . S
C517 C523 1.363 . S
C518 C519 1.363 . S
C518 C523 1.379 . S
C518 N525 1.356 . S
C519 C518 1.363 . S
C519 C522 1.363 . S
N520 C522 1.356 . S
N520 H532 0.984 . S
N520 H533 0.985 . S
N521 C523 1.356 . S
N521 H526 0.984 . S
N521 H527 0.985 . S
C522 C516 1.379 . S
C522 C519 1.363 . S
C522 N520 1.356 . S
C523 C517 1.363 . S
C523 C518 1.379 . S
C523 N521 1.356 . S
N524 C516 1.356 . S
N524 H530 0.984 . S
N524 H531 0.984 . S
N525 C518 1.356 . S
N525 H528 0.984 . S
N525 H529 0.985 . S
H526 N521 0.984 . S
H527 N521 0.985 . S
H528 N525 0.984 . S
H529 N525 0.985 . S
H530 N524 0.984 . S
H531 N524 0.984 . S
H532 N520 0.984 . S
H533 N520 0.985 . S
C534 C535 1.363 . S
C534 C540 1.379 . S
C534 N542 1.356 . S
C535 C534 1.363 . S
C535 C541 1.363 . S
C536 C537 1.363 . S
C536 C541 1.379 . S
C536 N543 1.356 . S
C537 C536 1.363 . S
C537 C540 1.363 . S
N538 C540 1.356 . S
N538 H550 0.984 . S
N538 H551 0.985 . S
N539 C541 1.356 . S
N539 H544 0.984 . S
N539 H545 0.985 . S
C540 C534 1.379 . S
C540 C537 1.363 . S
C540 N538 1.356 . S
C541 C535 1.363 . S
C541 C536 1.379 . S
C541 N539 1.356 . S
N542 C534 1.356 . S
N542 H548 0.984 . S
N542 H549 0.984 . S
N543 C536 1.356 . S
N543 H546 0.984 . S
N543 H547 0.985 . S
H544 N539 0.984 . S
H545 N539 0.985 . S
H546 N543 0.984 . S
H547 N543 0.985 . S
H548 N542 0.984 . S
H549 N542 0.984 . S
H550 N538 0.984 . S
H551 N538 0.985 . S
C337 C237 1.475 1_556 S
C339 C58 1.475 1_554 S
C355 C226 1.475 1_554 S
C357 C69 1.475 1_556 S
C373 C142 1.475 . S
C375 C321 1.475 . S
C391 C153 1.475 . S
C393 C310 1.475 . S
C409 C67 2.001 1_556 S
C411 C56 2.002 1_554 S
C427 C151 2.002 . S
C429 C140 2.002 . S
C445 C235 2.001 1_556 S
C447 C224 2.002 1_554 S
C463 C308 2.002 . S
C465 C319 2.002 . S
C481 C147 1.479 1_545 S
C483 C63 1.479 . S
C499 C74 1.478 1_545 S
C501 C158 1.478 . S
C517 C315 1.479 . S
C519 C231 1.479 . S
C535 C326 1.478 . S
C537 C242 1.478 . S
