# Generated by pormake.
# Topology xfw, (5)-cn, num edge types: 1
# Building blocks:
#     Node 0, Type 0, BuildingBlock: XOMCOT_clean_sbu_1, # of connection points: 5
#     Node 1, Type 0, BuildingBlock: XOMCOT_clean_sbu_1, # of connection points: 5
#     Node 2, Type 0, BuildingBlock: XOMCOT_clean_sbu_1, # of connection points: 5
#     Node 3, Type 0, BuildingBlock: XOMCOT_clean_sbu_1, # of connection points: 5
#     Node 4, Type 0, BuildingBlock: XOMCOT_clean_sbu_1, # of connection points: 5
#     Node 5, Type 0, BuildingBlock: XOMCOT_clean_sbu_1, # of connection points: 5
#     Node 6, Type 0, BuildingBlock: XOMCOT_clean_sbu_1, # of connection points: 5
#     Node 7, Type 0, BuildingBlock: XOMCOT_clean_sbu_1, # of connection points: 5
#     Edge 8, Type (0, 0), BuildingBlock: XIVTED_clean_linker_0, # of connection points: 2
#     Edge 9, Type (0, 0), BuildingBlock: XIVTED_clean_linker_0, # of connection points: 2
#     Edge 10, Type (0, 0), BuildingBlock: XIVTED_clean_linker_0, # of connection points: 2
#     Edge 11, Type (0, 0), BuildingBlock: XIVTED_clean_linker_0, # of connection points: 2
#     Edge 12, Type (0, 0), BuildingBlock: XIVTED_clean_linker_0, # of connection points: 2
#     Edge 13, Type (0, 0), BuildingBlock: XIVTED_clean_linker_0, # of connection points: 2
#     Edge 14, Type (0, 0), BuildingBlock: XIVTED_clean_linker_0, # of connection points: 2
#     Edge 15, Type (0, 0), BuildingBlock: XIVTED_clean_linker_0, # of connection points: 2
#     Edge 16, Type (0, 0), BuildingBlock: XIVTED_clean_linker_0, # of connection points: 2
#     Edge 17, Type (0, 0), BuildingBlock: XIVTED_clean_linker_0, # of connection points: 2
#     Edge 18, Type (0, 0), BuildingBlock: XIVTED_clean_linker_0, # of connection points: 2
#     Edge 19, Type (0, 0), BuildingBlock: XIVTED_clean_linker_0, # of connection points: 2
#     Edge 20, Type (0, 0), BuildingBlock: XIVTED_clean_linker_0, # of connection points: 2
#     Edge 21, Type (0, 0), BuildingBlock: XIVTED_clean_linker_0, # of connection points: 2
#     Edge 22, Type (0, 0), BuildingBlock: XIVTED_clean_linker_0, # of connection points: 2
#     Edge 23, Type (0, 0), BuildingBlock: XIVTED_clean_linker_0, # of connection points: 2
#     Edge 24, Type (0, 0), BuildingBlock: XIVTED_clean_linker_0, # of connection points: 2
#     Edge 25, Type (0, 0), BuildingBlock: XIVTED_clean_linker_0, # of connection points: 2
#     Edge 26, Type (0, 0), BuildingBlock: XIVTED_clean_linker_0, # of connection points: 2
#     Edge 27, Type (0, 0), BuildingBlock: XIVTED_clean_linker_0, # of connection points: 2
# Relax obj value: 0.597
# Max RMSD: 0.301
# Mean RMSD: 0.301
data_MOF--net-xfw--node1-XOMCOT_clean_sbu_1--edge1-XIVTED_clean_linker_0
_symmetry_space_group_name_H-M    P1
_symmetry_Int_Tables_number       1
_symmetry_cell_setting            triclinic
loop_
_symmetry_equiv_pos_as_xyz
'x, y, z'
_cell_length_a     26.471257
_cell_length_b     26.511017
_cell_length_c     60.321102
_cell_angle_alpha  89.890055
_cell_angle_beta   89.974717
_cell_angle_gamma 90.083438
loop_
_atom_site_label
_atom_site_type_symbol
_atom_site_fract_x
_atom_site_fract_y
_atom_site_fract_z
_atom_type_partial_charge
C0 C 0.36712 0.08145 0.5728 0.0
C1 C 0.3694 0.04028 0.55907 0.0
N2 N 0.3268 0.013 0.5618 0.0
N3 N 0.32331 0.08035 0.58409 0.0
C4 C 0.29978 0.03792 0.57734 0.0
H5 H 0.39473 0.11145 0.57392 0.0
Co6 Co 0.3047 0.13189 0.60283 0.0
C7 C 0.19822 0.11733 0.61489 0.0
O8 O 0.19386 0.16613 0.61155 0.0
N9 N 0.28858 0.18475 0.62256 0.0
C10 C 0.27406 0.25555 0.6415 0.0
C11 C 0.28527 0.23561 0.62094 0.0
C12 C 0.27979 0.17521 0.6442 0.0
N13 N 0.27122 0.2172 0.65604 0.0
O14 O 0.34327 0.09973 0.62572 0.0
H15 H 0.29085 0.25751 0.60608 0.0
H16 H 0.27886 0.13757 0.65118 0.0
O17 O 0.24141 0.09593 0.6122 0.0
C18 C 0.38623 0.12012 0.62907 0.0
O19 O 0.39688 0.16244 0.61867 0.0
N20 N 0.27125 0.16284 0.57865 0.0
C21 C 0.23525 0.202 0.53865 0.0
C22 C 0.21388 0.15853 0.54787 0.0
C23 C 0.23297 0.13907 0.56754 0.0
C24 C 0.29431 0.20372 0.56928 0.0
C25 C 0.27597 0.22492 0.54957 0.0
H26 H 0.21782 0.10359 0.57319 0.0
H27 H 0.32818 0.219 0.57671 0.0
H28 H 0.26287 0.02647 0.58316 0.0
H29 H 0.39885 0.0328 0.54707 0.0
H30 H 0.26947 0.29506 0.64551 0.0
H31 H 0.18284 0.1392 0.53981 0.0
H32 H 0.29453 0.25769 0.54255 0.0
C33 C 0.07551 0.68283 0.40335 0.0
C34 C 0.03675 0.682 0.41845 0.0
N35 N 0.01348 0.72721 0.41799 0.0
N36 N 0.07684 0.72825 0.39338 0.0
C37 C 0.03834 0.75441 0.40242 0.0
H38 H 0.10237 0.6529 0.40037 0.0
Co39 Co 0.127 0.74507 0.37354 0.0
C40 C 0.10994 0.85042 0.35894 0.0
O41 O 0.15926 0.85587 0.35946 0.0
N42 N 0.17864 0.75921 0.35294 0.0
C43 C 0.25034 0.76918 0.33405 0.0
C44 C 0.22955 0.76131 0.35472 0.0
C45 C 0.16976 0.76546 0.33106 0.0
N46 N 0.21247 0.77137 0.31922 0.0
O47 O 0.09244 0.70531 0.35173 0.0
H48 H 0.25091 0.75656 0.36977 0.0
H49 H 0.13225 0.76599 0.32395 0.0
O50 O 0.0904 0.80747 0.36409 0.0
C51 C 0.11222 0.66208 0.34858 0.0
O52 O 0.15611 0.65239 0.35783 0.0
N53 N 0.16056 0.77937 0.39663 0.0
C54 C 0.20155 0.81211 0.43675 0.0
C55 C 0.16211 0.83862 0.42665 0.0
C56 C 0.14153 0.82119 0.40691 0.0
C57 C 0.19828 0.75246 0.40651 0.0
C58 C 0.22025 0.7688 0.42634 0.0
H59 H 0.10815 0.83991 0.40097 0.0
H60 H 0.20996 0.71688 0.39943 0.0
H61 H 0.02972 0.79307 0.39815 0.0
H62 H 0.02837 0.65141 0.42978 0.0
H63 H 0.2902 0.77156 0.33017 0.0
H64 H 0.1461 0.87189 0.43432 0.0
H65 H 0.2498 0.74651 0.43396 0.0
C66 C 0.6892 0.95882 0.59191 0.0
C67 C 0.67954 0.99658 0.57688 0.0
N68 N 0.72293 0.02177 0.573 0.0
N69 N 0.73833 0.96034 0.59771 0.0
C70 C 0.75789 0.99904 0.58593 0.0
H71 H 0.6623 0.93107 0.59768 0.0
Co72 Co 0.77017 0.9143 0.61622 0.0
C73 C 0.85264 0.97068 0.63829 0.0
O74 O 0.83937 0.95249 0.65771 0.0
N75 N 0.80204 0.86678 0.63476 0.0
C76 C 0.86079 0.81877 0.65072 0.0
C77 C 0.84933 0.84813 0.63259 0.0
C78 C 0.78545 0.84738 0.65418 0.0
N79 N 0.82044 0.8185 0.66427 0.0
O80 O 0.73331 0.94276 0.64055 0.0
H81 H 0.87508 0.85729 0.61927 0.0
H82 H 0.74979 0.85671 0.66173 0.0
O83 O 0.82602 0.9608 0.62119 0.0
C84 C 0.68996 0.92287 0.64364 0.0
O85 O 0.6799 0.87984 0.63375 0.0
N86 N 0.80217 0.88657 0.5914 0.0
C87 C 0.83333 0.84846 0.55064 0.0
C88 C 0.85944 0.88836 0.56066 0.0
C89 C 0.8432 0.90707 0.58096 0.0
C90 C 0.77726 0.84664 0.58233 0.0
C91 C 0.79236 0.82673 0.56192 0.0
H92 H 0.8632 0.9389 0.58771 0.0
H93 H 0.74436 0.83142 0.59064 0.0
H94 H 0.79756 0.00867 0.586 0.0
H95 H 0.6435 1.00393 0.56909 0.0
H96 H 0.89658 0.80056 0.65403 0.0
H97 H 0.89193 0.90554 0.55273 0.0
H98 H 0.77108 0.79595 0.55471 0.0
C99 C 0.94362 0.34658 0.40229 0.0
C100 C 0.98404 0.35219 0.41623 0.0
N101 N 0.00862 0.30773 0.41756 0.0
N102 N 0.94251 0.299 0.39463 0.0
C103 C 0.9827 0.27614 0.40405 0.0
H104 H 0.91634 0.37534 0.39804 0.0
Co105 Co 0.89217 0.27882 0.37546 0.0
C106 C 0.91015 0.17279 0.36297 0.0
O107 O 0.86102 0.16699 0.36476 0.0
N108 N 0.84024 0.2616 0.35538 0.0
C109 C 0.76842 0.25003 0.33676 0.0
C110 C 0.78937 0.25872 0.35732 0.0
C111 C 0.8489 0.25456 0.33354 0.0
N112 N 0.80611 0.24799 0.32184 0.0
O113 O 0.9253 0.31729 0.3527 0.0
H114 H 0.76803 0.26399 0.37234 0.0
H115 H 0.88626 0.25476 0.32626 0.0
O116 O 0.92983 0.21632 0.36691 0.0
C117 C 0.9048 0.35977 0.34852 0.0
O118 O 0.86034 0.36943 0.35724 0.0
N119 N 0.8601 0.24589 0.3994 0.0
C120 C 0.81953 0.21428 0.4398 0.0
C121 C 0.86092 0.18935 0.43053 0.0
C122 C 0.88114 0.20616 0.41056 0.0
C123 C 0.82091 0.27175 0.40867 0.0
C124 C 0.79898 0.25572 0.42859 0.0
H125 H 0.91548 0.18862 0.40498 0.0
H126 H 0.80772 0.30616 0.40096 0.0
H127 H 0.99189 0.2369 0.40143 0.0
H128 H 0.994 0.38659 0.42478 0.0
H129 H 0.72852 0.24766 0.33297 0.0
H130 H 0.87845 0.15778 0.43896 0.0
H131 H 0.76791 0.27684 0.43565 0.0
C132 C 0.68057 0.12331 0.06852 0.0
C133 C 0.66618 0.0907 0.05203 0.0
N134 N 0.6978 0.05087 0.05226 0.0
N135 N 0.72101 0.10423 0.07912 0.0
C136 C 0.7305 0.0599 0.069 0.0
H137 H 0.66326 0.15918 0.07235 0.0
Co138 Co 0.75356 0.1376 0.10191 0.0
C139 C 0.83266 0.06814 0.11785 0.0
O140 O 0.81214 0.06946 0.13768 0.0
N141 N 0.78582 0.17223 0.12499 0.0
C142 C 0.84541 0.2082 0.14559 0.0
C143 C 0.83419 0.18856 0.12512 0.0
C144 C 0.76839 0.18282 0.1455 0.0
N145 N 0.80398 0.20426 0.15844 0.0
O146 O 0.71533 0.09712 0.12243 0.0
H147 H 0.86039 0.1845 0.11147 0.0
H148 H 0.73069 0.17405 0.1511 0.0
O149 O 0.81034 0.09007 0.10172 0.0
C150 C 0.67188 0.11652 0.1258 0.0
O151 O 0.66351 0.16239 0.11836 0.0
N152 N 0.7863 0.17799 0.0809 0.0
C153 C 0.81794 0.23706 0.04544 0.0
C154 C 0.83067 0.18595 0.04651 0.0
C155 C 0.81451 0.157 0.06437 0.0
C156 C 0.77438 0.22804 0.0804 0.0
C157 C 0.79055 0.2587 0.06284 0.0
H158 H 0.82226 0.11709 0.06413 0.0
H159 H 0.75073 0.24377 0.09327 0.0
H160 H 0.76195 0.03575 0.07325 0.0
H161 H 0.63511 0.09626 0.04064 0.0
H162 H 0.88197 0.22195 0.15088 0.0
H163 H 0.8518 0.16819 0.03326 0.0
H164 H 0.77999 0.29814 0.06236 0.0
C165 C 0.10468 0.27236 0.91162 0.0
C166 C 0.07636 0.29678 0.9273 0.0
N167 N 0.02755 0.29494 0.92106 0.0
N168 N 0.07398 0.25368 0.89577 0.0
C169 C 0.02745 0.2699 0.90155 0.0
H170 H 0.1453 0.26823 0.91189 0.0
Co171 Co 0.09701 0.22117 0.87019 0.0
C172 C 0.00974 0.14694 0.88256 0.0
O173 O 0.99188 0.17094 0.89986 0.0
N174 N 0.12144 0.19093 0.84463 0.0
C175 C 0.15132 0.13466 0.82081 0.0
C176 C 0.13067 0.14141 0.84148 0.0
C177 C 0.13694 0.21354 0.82576 0.0
N178 N 0.15521 0.18015 0.81097 0.0
O179 O 0.05189 0.26227 0.85315 0.0
H180 H 0.12404 0.11221 0.85368 0.0
H181 H 0.13639 0.25385 0.82313 0.0
O182 O 0.04714 0.16533 0.87177 0.0
C183 C 0.07031 0.30634 0.85038 0.0
O184 O 0.11706 0.31457 0.8568 0.0
N185 N 0.14302 0.18398 0.88731 0.0
C186 C 0.21347 0.1489 0.91768 0.0
C187 C 0.16226 0.13766 0.92031 0.0
C188 C 0.12755 0.15557 0.90496 0.0
C189 C 0.19316 0.19346 0.88395 0.0
C190 C 0.22938 0.17579 0.89896 0.0
H191 H 0.08813 0.15008 0.90846 0.0
H192 H 0.2048 0.21722 0.87026 0.0
H193 H 0.99409 0.26356 0.89158 0.0
H194 H 0.09058 0.31269 0.94258 0.0
H195 H 0.16264 0.09905 0.81362 0.0
H196 H 0.14891 0.11726 0.93477 0.0
H197 H 0.26883 0.18535 0.89664 0.0
C198 C 0.34943 0.90862 0.06886 0.0
C199 C 0.3663 0.93588 0.05096 0.0
N200 N 0.33644 0.97665 0.04859 0.0
N201 N 0.30923 0.93204 0.07783 0.0
C202 C 0.30248 0.97369 0.0653 0.0
H203 H 0.36432 0.87288 0.0745 0.0
Co204 Co 0.27262 0.90453 0.10104 0.0
C205 C 0.20345 0.98361 0.11702 0.0
O206 O 0.22389 0.97988 0.1368 0.0
N207 N 0.23658 0.87531 0.12449 0.0
C208 C 0.1738 0.84695 0.14562 0.0
C209 C 0.18632 0.86646 0.12524 0.0
C210 C 0.25375 0.86043 0.14452 0.0
N211 N 0.21632 0.84339 0.15776 0.0
O212 O 0.31637 0.94019 0.12114 0.0
H213 H 0.16011 0.87511 0.11202 0.0
H214 H 0.29285 0.86244 0.14948 0.0
O215 O 0.22328 0.95972 0.10084 0.0
C216 C 0.35806 0.91783 0.12515 0.0
O217 O 0.3633 0.8709 0.11855 0.0
N218 N 0.23314 0.86888 0.0805 0.0
C219 C 0.18051 0.81442 0.04847 0.0
C220 C 0.17895 0.86717 0.04872 0.0
C221 C 0.20567 0.89364 0.06472 0.0
C222 C 0.2355 0.81748 0.08054 0.0
C223 C 0.20883 0.78932 0.06476 0.0
H224 H 0.20497 0.93421 0.06395 0.0
H225 H 0.25839 0.79835 0.09279 0.0
H226 H 0.27135 0.99957 0.06754 0.0
H227 H 0.39709 0.92541 0.04011 0.0
H228 H 0.13606 0.83799 0.15131 0.0
H229 H 0.15718 0.88805 0.03659 0.0
H230 H 0.21124 0.74854 0.065 0.0
C231 C 0.88968 0.63546 0.91555 0.0
C232 C 0.92367 0.63423 0.93276 0.0
N233 N 0.94356 0.68072 0.93504 0.0
N234 N 0.88807 0.68251 0.90707 0.0
C235 C 0.92116 0.70931 0.91932 0.0
H236 H 0.86759 0.60402 0.9095 0.0
Co237 Co 0.84826 0.7017 0.88327 0.0
C238 C 0.92876 0.7765 0.86704 0.0
O239 O 0.95236 0.74635 0.85325 0.0
N240 N 0.80844 0.71947 0.85922 0.0
C241 C 0.74384 0.73077 0.83633 0.0
C242 C 0.75763 0.71957 0.8578 0.0
C243 C 0.82469 0.73014 0.83858 0.0
N244 N 0.78626 0.73727 0.82425 0.0
O245 O 0.88837 0.65904 0.86465 0.0
H246 H 0.73233 0.711 0.87139 0.0
H247 H 0.86409 0.7301 0.83395 0.0
O248 O 0.89106 0.76037 0.87815 0.0
C249 C 0.86723 0.61698 0.86024 0.0
O250 O 0.82031 0.60994 0.86669 0.0
N251 N 0.80793 0.74094 0.90211 0.0
C252 C 0.75853 0.79822 0.93407 0.0
C253 C 0.77601 0.82064 0.91443 0.0
C254 C 0.80032 0.79123 0.89856 0.0
C255 C 0.78744 0.71773 0.92019 0.0
C256 C 0.76309 0.74581 0.93656 0.0
H257 H 0.81418 0.80924 0.88366 0.0
H258 H 0.79169 0.67748 0.92236 0.0
H259 H 0.92827 0.74915 0.91696 0.0
H260 H 0.93366 0.60146 0.94254 0.0
H261 H 0.70559 0.73336 0.83013 0.0
H262 H 0.77309 0.86093 0.91174 0.0
H263 H 0.74895 0.72685 0.95123 0.0
H264 H 0.3853 0.9484 0.53801 0.0
H265 H 0.14662 0.83966 0.47293 0.0
H266 H 0.23006 0.98322 0.55374 0.0
H267 H 0.3001 0.82234 0.45016 0.0
H268 H 0.17795 0.87782 0.50701 0.0
H269 H 0.3559 0.88828 0.5102 0.0
C270 C 0.34508 0.9432 0.53579 0.0
C271 C 0.31019 0.9718 0.54802 0.0
C272 C 0.2049 0.86533 0.49468 0.0
C273 C 0.27635 0.9026 0.51636 0.0
C274 C 0.18703 0.84372 0.4752 0.0
C275 C 0.22085 0.82889 0.45854 0.0
C276 C 0.25703 0.87245 0.49753 0.0
C277 C 0.27281 0.83365 0.46256 0.0
C278 C 0.32836 0.90868 0.51996 0.0
C279 C 0.25851 0.9623 0.54481 0.0
N280 N 0.28937 0.85573 0.48156 0.0
N281 N 0.24323 0.92897 0.52913 0.0
H282 H 0.86 0.90585 0.51486 0.0
H283 H 0.94731 0.6705 0.44194 0.0
H284 H 0.84132 0.75102 0.53558 0.0
H285 H 0.99392 0.82431 0.42986 0.0
H286 H 0.89362 0.69993 0.47218 0.0
H287 H 0.89421 0.87672 0.47961 0.0
C288 C 0.86304 0.86565 0.51196 0.0
C289 C 0.8488 0.83077 0.52836 0.0
C290 C 0.91525 0.72721 0.46273 0.0
C291 C 0.88745 0.79719 0.48792 0.0
C292 C 0.94609 0.71046 0.4455 0.0
C293 C 0.97606 0.7448 0.43352 0.0
C294 C 0.91413 0.77871 0.46796 0.0
C295 C 0.9717 0.79632 0.43853 0.0
C296 C 0.88233 0.84908 0.49179 0.0
C297 C 0.85206 0.77917 0.52343 0.0
N298 N 0.94175 0.8116 0.45551 0.0
N299 N 0.8716 0.76389 0.50371 0.0
H300 H 0.80165 0.08785 0.57084 0.0
H301 H 0.72194 0.19224 0.45135 0.0
H302 H 0.66444 0.0443 0.5371 0.0
H303 H 0.87323 0.19916 0.47764 0.0
H304 H 0.69313 0.15463 0.48643 0.0
H305 H 0.82112 0.14505 0.54031 0.0
C306 C 0.77548 0.09028 0.55712 0.0
C307 C 0.7318 0.06018 0.55645 0.0
C308 C 0.73251 0.16495 0.48457 0.0
C309 C 0.7536 0.12639 0.52156 0.0
C310 C 0.74881 0.18655 0.46466 0.0
C311 C 0.80004 0.19797 0.46161 0.0
C312 C 0.76772 0.15533 0.5015 0.0
C313 C 0.83353 0.18998 0.47928 0.0
C314 C 0.78653 0.12322 0.53973 0.0
C315 C 0.6986 0.06642 0.53845 0.0
N316 N 0.81685 0.16884 0.49842 0.0
N317 N 0.71044 0.09845 0.52163 0.0
H318 H 0.21065 0.29972 0.52886 0.0
H319 H 0.069 0.22406 0.4166 0.0
H320 H 0.21265 0.15015 0.50086 0.0
H321 H 0.04552 0.36398 0.45185 0.0
H322 H 0.13427 0.20175 0.44336 0.0
H323 H 0.16408 0.32955 0.49628 0.0
C324 C 0.20208 0.27343 0.51565 0.0
C325 C 0.21468 0.22232 0.51766 0.0
C326 C 0.11499 0.23753 0.44505 0.0
C327 C 0.16116 0.25581 0.48058 0.0
C328 C 0.07736 0.25026 0.42981 0.0
C329 C 0.05062 0.29577 0.43197 0.0
C330 C 0.12621 0.27056 0.46254 0.0
C331 C 0.06456 0.32851 0.44928 0.0
C332 C 0.17523 0.29032 0.49716 0.0
C333 C 0.20264 0.1897 0.50012 0.0
N334 N 0.10101 0.31508 0.46393 0.0
N335 N 0.17611 0.20688 0.48241 0.0
H336 H 0.69528 0.87995 0.93157 0.0
H337 H 0.7384 0.9576 0.05822 0.0
H338 H 0.77908 0.78948 0.97835 0.0
H339 H 0.66084 0.05041 0.01023 0.0
H340 H 0.74587 0.89125 0.03035 0.0
H341 H 0.6737 0.93814 0.96145 0.0
C342 C 0.70882 0.87214 0.94817 0.0
C343 C 0.73938 0.83004 0.95243 0.0
C344 C 0.72687 0.92602 0.026 0.0
C345 C 0.71494 0.8965 0.98672 0.0
C346 C 0.72286 0.96406 0.04187 0.0
C347 C 0.69933 0.00995 0.03657 0.0
C348 C 0.70733 0.93394 0.00463 0.0
C349 C 0.67897 0.01569 0.0152 0.0
C350 C 0.69641 0.9053 0.96524 0.0
C351 C 0.75516 0.82128 0.97433 0.0
N352 N 0.68378 0.97833 0.0 0.0
N353 N 0.74318 0.85452 -0.00939 0.0
H354 H 0.7855 0.22113 0.00353 0.0
H355 H 0.02385 0.36298 0.95476 0.0
H356 H 0.88336 0.31655 0.04217 0.0
H357 H 0.93285 0.25518 0.91901 0.0
H358 H 0.95892 0.36661 0.98347 0.0
H359 H 0.82402 0.25392 0.96963 0.0
C360 C 0.81434 0.25005 0.00475 0.0
C361 C 0.83192 0.2659 0.02549 0.0
C362 C 0.95275 0.34293 0.96911 0.0
C363 C 0.87714 0.30251 0.98698 0.0
C364 C 0.98993 0.34065 0.95274 0.0
C365 C 0.98474 0.30732 0.93479 0.0
C366 C 0.91014 0.31161 0.96752 0.0
C367 C 0.93908 0.2808 0.93265 0.0
C368 C 0.83644 0.26865 0.98545 0.0
C369 C 0.86911 0.30341 0.02638 0.0
N370 N 0.90405 0.28274 0.94906 0.0
N371 N 0.89136 0.31976 0.00734 0.0
H372 H 0.21528 0.18951 0.95863 0.0
H373 H 0.37179 0.95967 0.00686 0.0
H374 H 0.2887 0.07842 0.91783 0.0
H375 H 0.29706 0.07118 0.04729 0.0
H376 H 0.35702 0.01193 0.97434 0.0
H377 H 0.25998 0.15673 -0.00898 0.0
C378 C 0.24185 0.15883 0.95653 0.0
C379 C 0.24838 0.13622 0.93577 0.0
C380 C 0.34448 0.02534 0.99037 0.0
C381 C 0.29853 0.09764 0.97264 0.0
C382 C 0.35314 0.99557 0.00905 0.0
C383 C 0.33477 0.01054 0.02989 0.0
C384 C 0.31702 0.07029 -0.00753 0.0
C385 C 0.31067 0.05747 0.03151 0.0
C386 C 0.2672 0.14 0.97496 0.0
C387 C 0.28291 0.09664 0.93368 0.0
N388 N 0.30189 0.08534 0.01301 0.0
N389 N 0.30619 0.07794 0.95202 0.0
H390 H 0.01261 0.75528 0.92974 0.0
H391 H 0.11984 0.73094 0.05315 0.0
H392 H 0.96164 0.64158 0.97591 0.0
H393 H 0.17712 0.83538 0.00426 0.0
H394 H 0.0654 0.69342 0.02468 0.0
H395 H 0.07558 0.78253 0.95663 0.0
C396 C 0.01454 0.73618 0.94558 0.0
C397 C 0.98155 0.69637 0.95065 0.0
C398 C 0.09023 0.72427 0.02016 0.0
C399 C 0.054 0.72701 0.98153 0.0
C400 C 0.12149 0.74542 0.03636 0.0
C401 C 0.15242 0.78674 0.03109 0.0
C402 C 0.09006 0.74469 -0.00137 0.0
C403 C 0.15301 0.80425 0.00912 0.0
C404 C 0.05081 0.75145 0.96089 0.0
C405 C 0.98651 0.67225 0.97128 0.0
N406 N 0.12199 0.78344 -0.00622 0.0
N407 N 0.02185 0.68817 0.98605 0.0
H408 H 0.68661 0.02462 0.65216 0.0
H409 H 0.38727 0.02189 0.64385 0.0
H410 H 0.59585 0.8894 0.65475 0.0
H411 H 0.47849 0.1568 0.64112 0.0
H412 H 0.46138 0.97462 0.65633 0.0
H413 H 0.61005 0.07493 0.65695 0.0
C414 C 0.6508 1.00542 0.65437 0.0
C415 C 0.6475 0.95276 0.65263 0.0
C416 C 0.46498 0.01476 0.65338 0.0
C417 C 0.55958 0.01009 0.65765 0.0
C418 C 0.42257 0.0418 0.64632 0.0
C419 C 0.42693 0.09315 0.641 0.0
C420 C 0.51203 0.03926 0.65502 0.0
C421 C 0.4736 0.11703 0.64463 0.0
C422 C 0.60696 0.03419 0.65694 0.0
C423 C 0.60003 0.92998 0.6556 0.0
N424 N 0.51446 0.08977 0.65106 0.0
N425 N 0.55786 0.95877 0.65755 0.0
H426 H 0.14697 0.56946 0.33634 0.0
H427 H 0.87021 0.45212 0.33554 0.0
H428 H 0.01045 0.6579 0.33947 0.0
H429 H 1.00677 0.36398 0.33992 0.0
H430 H 0.92095 0.52704 0.32781 0.0
H431 H 0.09644 0.49459 0.3285 0.0
C432 C 0.10636 0.57335 0.33496 0.0
C433 C 0.08284 0.61992 0.33894 0.0
C434 C 0.93983 0.49119 0.33007 0.0
C435 C 0.02463 0.53398 0.3302 0.0
C436 C 0.91087 0.44828 0.33443 0.0
C437 C 0.93432 0.4018 0.33876 0.0
C438 C 0.99272 0.48777 0.33015 0.0
C439 C 0.98708 0.39906 0.33686 0.0
C440 C 0.07751 0.53047 0.33053 0.0
C441 C 0.03017 0.62273 0.33668 0.0
N442 N 0.01455 0.44164 0.33305 0.0
N443 N 1.00275 0.58016 0.33282 0.0
H444 H 0.58051 0.15151 0.13953 0.0
H445 H 0.45114 0.87961 0.13501 0.0
H446 H 0.66354 0.01326 0.13017 0.0
H447 H 0.36841 0.01971 0.13298 0.0
H448 H 0.52896 0.92679 0.1414 0.0
H449 H 0.50362 0.10257 0.14549 0.0
C450 C 0.58279 0.11073 0.13912 0.0
C451 C 0.62851 0.08647 0.13407 0.0
C452 C 0.49373 0.94721 0.13986 0.0
C453 C 0.54011 0.0301 0.14067 0.0
C454 C 0.44912 0.92031 0.13627 0.0
C455 C 0.40309 0.94576 0.13316 0.0
C456 C 0.49254 1.00009 0.14038 0.0
C457 C 0.40297 0.99849 0.13515 0.0
C458 C 0.53872 0.08282 0.14246 0.0
C459 C 0.62915 0.03354 0.13396 0.0
N460 N 0.44709 0.02392 0.13838 0.0
N461 N 0.58543 1.00713 0.13689 0.0
H462 H 0.96661 0.31127 0.84729 0.0
H463 H 0.96885 0.61186 0.85079 0.0
H464 H 0.10151 0.40141 0.84004 0.0
H465 H 0.83231 0.52265 0.85055 0.0
H466 H 0.01736 0.53569 0.84241 0.0
H467 H 0.91578 0.3881 0.84396 0.0
C468 C 0.98549 0.34702 0.84454 0.0
C469 C 0.03839 0.34997 0.8442 0.0
C470 C 0.97668 0.5329 0.8439 0.0
C471 C 0.98064 0.43811 0.84074 0.0
C472 C 0.94898 0.57647 0.84863 0.0
C473 C 0.89652 0.57359 0.85166 0.0
C474 C 0.95179 0.48607 0.84235 0.0
C475 C 0.87278 0.52663 0.84861 0.0
C476 C 0.95649 0.39096 0.84275 0.0
C477 C 0.06083 0.39739 0.84068 0.0
N478 N 0.90061 0.4847 0.84443 0.0
N479 N 0.03193 0.43957 0.83938 0.0
H480 H 0.17556 0.03843 0.6434 0.0
H481 H 0.88644 0.02711 0.60328 0.0
H482 H 0.11262 0.13178 0.59179 0.0
H483 H 0.93491 0.96521 0.66596 0.0
H484 H 0.97222 0.05757 0.59673 0.0
H485 H 0.09091 1.00128 0.64949 0.0
C486 C 0.14418 0.05036 0.63314 0.0
C487 C 0.15083 0.08823 0.61714 0.0
C488 C 0.96414 0.03753 0.61198 0.0
C489 C 0.05465 0.04661 0.624 0.0
C490 C 0.91505 0.02022 0.61575 0.0
C491 C 0.90328 0.99381 0.63525 0.0
C492 C 1.00219 0.02803 0.6277 0.0
C493 C 0.94212 0.98592 0.6508 0.0
C494 C 0.09592 0.02965 0.63674 0.0
C495 C 0.10897 0.10291 0.60442 0.0
N496 N 0.98991 1.00271 0.64665 0.0
N497 N 0.06287 0.08217 0.60812 0.0
H498 H 1.00613 0.86058 0.36189 0.0
H499 H 0.01442 0.16309 0.36236 0.0
H500 H 0.14265 0.94642 0.35097 0.0
H501 H 0.87667 0.07674 0.35644 0.0
H502 H 0.06272 0.08419 0.35944 0.0
H503 H 0.95787 0.9396 0.36111 0.0
C504 C 0.0259 0.89583 0.35912 0.0
C505 C 0.07857 0.89664 0.35653 0.0
C506 C 0.02189 0.08272 0.35865 0.0
C507 C 0.02377 0.98736 0.35595 0.0
C508 C 0.99436 0.12778 0.36029 0.0
C509 C 0.94137 0.12676 0.3597 0.0
C510 C 0.99622 0.03633 0.35663 0.0
C511 C 0.91743 0.07966 0.35707 0.0
C512 C 0.9984 0.94099 0.35873 0.0
C513 C 0.10215 0.9437 0.35312 0.0
N514 N 0.9449 0.03654 0.3558 0.0
N515 N 0.07473 0.98701 0.3531 0.0
H516 H 0.14596 0.99386 0.07919 0.0
H517 H 0.89125 0.06682 0.08007 0.0
H518 H 0.13943 0.01508 0.15002 0.0
H519 H 0.89749 0.03443 0.15013 0.0
H520 H 0.98163 0.05092 0.07745 0.0
H521 H 0.05595 0.01179 0.07691 0.0
C522 C 0.12585 1.0032 0.09425 0.0
C523 C 0.15074 1.00287 0.11483 0.0
C524 C 0.96338 0.04616 0.09335 0.0
C525 C 0.04662 0.0242 0.11238 0.0
C526 C 0.9114 0.05548 0.09486 0.0
C527 C 0.88627 0.05183 0.11534 0.0
C528 C 0.99081 0.03292 0.11249 0.0
C529 C 0.91488 0.03747 0.13394 0.0
C530 C 0.07408 0.01372 0.09293 0.0
C531 C 0.12224 0.0151 0.13374 0.0
N532 N 0.96542 0.02891 0.13208 0.0
N533 N 0.07187 0.02477 0.13207 0.0
H534 H 0.99093 0.83285 0.83974 0.0
H535 H 0.94514 0.08933 0.90754 0.0
H536 H 0.89867 0.84433 0.8985 0.0
H537 H 0.03798 0.08235 0.84881 0.0
H538 H 0.92611 0.99991 0.90344 0.0
H539 H 0.00892 0.92361 0.84231 0.0
C540 C 0.97462 0.85429 0.85322 0.0
C541 C 0.9429 0.83077 0.86883 0.0
C542 C 0.95062 0.01783 0.89139 0.0
C543 C 0.96306 0.93483 0.87178 0.0
C544 C 0.96137 0.06919 0.89366 0.0
C545 C 0.99382 0.09368 0.87866 0.0
C546 C 0.97236 0.99022 0.87396 0.0
C547 C 0.01348 0.06512 0.86101 0.0
C548 C 0.98471 0.90619 0.85462 0.0
C549 C 0.92277 0.86068 0.88589 0.0
N550 N 1.00267 0.01495 0.85921 0.0
N551 N 0.9331 0.91089 0.88687 0.0
H552 H 0.31177 0.15714 0.68733 0.0
H553 H 0.13056 0.2577 0.78354 0.0
H554 H 0.20849 0.28092 0.67801 0.0
H555 H 0.22714 0.12737 0.78918 0.0
H556 H 0.16443 0.27334 0.74635 0.0
H557 H 0.28766 0.15269 0.72622 0.0
C558 C 0.28402 0.18352 0.69357 0.0
C559 C 0.26143 0.21891 0.67944 0.0
C560 C 0.17833 0.24148 0.7558 0.0
C561 C 0.23345 0.21412 0.72399 0.0
C562 C 0.15918 0.23264 0.77704 0.0
C563 C 0.17579 0.1909 0.78939 0.0
C564 C 0.21447 0.20844 0.74696 0.0
C565 C 0.21257 0.1594 0.7801 0.0
C566 C 0.27033 0.18108 0.71578 0.0
C567 C 0.22665 0.25307 0.68843 0.0
N568 N 0.23055 0.16876 0.75945 0.0
N569 N 0.21321 0.24948 0.71016 0.0
H570 H 0.28745 0.8726 0.18765 0.0
H571 H 0.1484 0.73414 0.28835 0.0
H572 H 0.15374 0.78071 0.18041 0.0
H573 H 0.28497 0.82132 0.29606 0.0
H574 H 0.15221 0.74795 0.24847 0.0
H575 H 0.29023 0.85071 0.22693 0.0
C576 C 0.259 0.84733 0.19422 0.0
C577 C 0.22013 0.82861 0.18068 0.0
C578 C 0.18149 0.76399 0.25883 0.0
C579 C 0.22272 0.80402 0.22576 0.0
C580 C 0.17913 0.75639 0.28164 0.0
C581 C 0.2161 0.77718 0.29557 0.0
C582 C 0.22104 0.79276 0.2498 0.0
C583 C 0.2558 0.80457 0.28589 0.0
C584 C 0.26045 0.83511 0.21671 0.0
C585 C 0.18388 0.79666 0.19027 0.0
N586 N 0.25704 0.8119 0.26359 0.0
N587 N 0.18596 0.78555 0.21222 0.0
H588 H 0.7156 0.7192 0.79237 0.0
H589 H 0.89697 0.80945 0.69386 0.0
H590 H 0.86668 0.77677 0.80216 0.0
H591 H 0.73701 0.78465 0.68561 0.0
H592 H 0.88917 0.78587 0.73289 0.0
H593 H 0.72472 0.73395 0.7526 0.0
C594 C 0.75057 0.73514 0.78626 0.0
C595 C 0.79044 0.74664 0.80076 0.0
C596 C 0.85581 0.7853 0.72251 0.0
C597 C 0.8014 0.76274 0.75516 0.0
C598 C 0.86036 0.79826 0.70019 0.0
C599 C 0.8175 0.79926 0.68654 0.0
C600 C 0.80811 0.773 0.73121 0.0
C601 C 0.77083 0.78503 0.69568 0.0
C602 C 0.75586 0.74323 0.76351 0.0
C603 C 0.83518 0.76651 0.7917 0.0
N604 N 0.76731 0.77265 0.71748 0.0
N605 N 0.83942 0.77386 0.76951 0.0
H606 H 0.73439 0.19819 0.29831 0.0
H607 H 0.85988 0.27159 0.18177 0.0
H608 H 0.86815 0.28997 0.29129 0.0
H609 H 0.74014 0.1619 0.18863 0.0
H610 H 0.8576 0.28526 0.22172 0.0
H611 H 0.72981 0.19102 0.25782 0.0
C612 C 0.76259 0.21697 0.28824 0.0
C613 C 0.80201 0.24418 0.29814 0.0
C614 C 0.83166 0.25835 0.21446 0.0
C615 C 0.79712 0.23629 0.25201 0.0
C616 C 0.83308 0.25041 0.19164 0.0
C617 C 0.80041 0.21532 0.18177 0.0
C618 C 0.7973 0.23103 0.22758 0.0
C619 C 0.76574 0.18967 0.1954 0.0
C620 C 0.76012 0.21274 0.26518 0.0
C621 C 0.83776 0.26769 0.28437 0.0
N622 N 0.76528 0.19786 0.21762 0.0
N623 N 0.83448 0.26316 0.26203 0.0
loop_
_geom_bond_atom_site_label_1
_geom_bond_atom_site_label_2
_geom_bond_distance
_geom_bond_site_symmetry_2
_ccdc_geom_bond_type
C0 C1 1.351 . S
C0 N3 1.368 . S
C0 H5 0.931 . S
C1 C0 1.351 . S
C1 N2 1.373 . S
C1 H29 0.930 . S
N2 C1 1.373 . S
N2 C4 1.340 . S
N3 C0 1.368 . S
N3 C4 1.321 . S
N3 Co6 2.135 . S
C4 N2 1.340 . S
C4 N3 1.321 . S
C4 H28 0.930 . S
H5 C0 0.931 . S
Co6 N3 2.135 . S
Co6 N9 2.121 . S
Co6 O14 2.055 . S
Co6 O17 2.039 . S
Co6 N20 2.140 . S
C7 O8 1.227 . S
C7 O17 1.265 . S
O8 C7 1.227 . S
N9 Co6 2.121 . S
N9 C11 1.375 . S
N9 C12 1.313 . S
C10 C11 1.338 . S
C10 N13 1.377 . S
C10 H30 0.930 . S
C11 N9 1.375 . S
C11 C10 1.338 . S
C11 H15 0.931 . S
C12 N9 1.313 . S
C12 N13 1.344 . S
C12 H16 0.930 . S
N13 C10 1.377 . S
N13 C12 1.344 . S
O14 Co6 2.055 . S
O14 C18 1.253 . S
H15 C11 0.931 . S
H16 C12 0.930 . S
O17 Co6 2.039 . S
O17 C7 1.265 . S
C18 O14 1.253 . S
C18 O19 1.227 . S
O19 C18 1.227 . S
N20 Co6 2.140 . S
N20 C23 1.346 . S
N20 C24 1.345 . S
C21 C22 1.387 . S
C21 C25 1.391 . S
C22 C21 1.387 . S
C22 C23 1.369 . S
C22 H31 0.929 . S
C23 N20 1.346 . S
C23 C22 1.369 . S
C23 H26 0.928 . S
C24 N20 1.345 . S
C24 C25 1.371 . S
C24 H27 0.931 . S
C25 C21 1.391 . S
C25 C24 1.371 . S
C25 H32 0.930 . S
H26 C23 0.928 . S
H27 C24 0.931 . S
H28 C4 0.930 . S
H29 C1 0.930 . S
H30 C10 0.930 . S
H31 C22 0.929 . S
H32 C25 0.930 . S
C33 C34 1.351 . S
C33 N36 1.368 . S
C33 H38 0.931 . S
C34 C33 1.351 . S
C34 N35 1.373 . S
C34 H62 0.930 . S
N35 C34 1.373 . S
N35 C37 1.340 . S
N36 C33 1.368 . S
N36 C37 1.321 . S
N36 Co39 2.135 . S
C37 N35 1.340 . S
C37 N36 1.321 . S
C37 H61 0.930 . S
H38 C33 0.931 . S
Co39 N36 2.135 . S
Co39 N42 2.121 . S
Co39 O47 2.055 . S
Co39 O50 2.039 . S
Co39 N53 2.140 . S
C40 O41 1.227 . S
C40 O50 1.265 . S
O41 C40 1.227 . S
N42 Co39 2.121 . S
N42 C44 1.375 . S
N42 C45 1.313 . S
C43 C44 1.338 . S
C43 N46 1.377 . S
C43 H63 0.930 . S
C44 N42 1.375 . S
C44 C43 1.338 . S
C44 H48 0.931 . S
C45 N42 1.313 . S
C45 N46 1.344 . S
C45 H49 0.930 . S
N46 C43 1.377 . S
N46 C45 1.344 . S
O47 Co39 2.055 . S
O47 C51 1.253 . S
H48 C44 0.931 . S
H49 C45 0.930 . S
O50 Co39 2.039 . S
O50 C40 1.265 . S
C51 O47 1.253 . S
C51 O52 1.227 . S
O52 C51 1.227 . S
N53 Co39 2.140 . S
N53 C56 1.346 . S
N53 C57 1.345 . S
C54 C55 1.387 . S
C54 C58 1.391 . S
C55 C54 1.387 . S
C55 C56 1.369 . S
C55 H64 0.929 . S
C56 N53 1.346 . S
C56 C55 1.369 . S
C56 H59 0.928 . S
C57 N53 1.345 . S
C57 C58 1.371 . S
C57 H60 0.931 . S
C58 C54 1.391 . S
C58 C57 1.371 . S
C58 H65 0.930 . S
H59 C56 0.928 . S
H60 C57 0.931 . S
H61 C37 0.930 . S
H62 C34 0.930 . S
H63 C43 0.930 . S
H64 C55 0.929 . S
H65 C58 0.930 . S
C66 C67 1.351 . S
C66 N69 1.368 . S
C66 H71 0.931 . S
C67 C66 1.351 . S
C67 N68 1.373 . S
C67 H95 0.930 . S
N68 C67 1.373 . S
N68 C70 1.340 . S
N69 C66 1.368 . S
N69 C70 1.321 . S
N69 Co72 2.135 . S
C70 N68 1.340 . S
C70 N69 1.321 . S
C70 H94 0.930 . S
H71 C66 0.931 . S
Co72 N69 2.135 . S
Co72 N75 2.121 . S
Co72 O80 2.055 . S
Co72 O83 2.039 . S
Co72 N86 2.140 . S
C73 O74 1.227 . S
C73 O83 1.265 . S
O74 C73 1.227 . S
N75 Co72 2.121 . S
N75 C77 1.375 . S
N75 C78 1.313 . S
C76 C77 1.338 . S
C76 N79 1.377 . S
C76 H96 0.930 . S
C77 N75 1.375 . S
C77 C76 1.338 . S
C77 H81 0.931 . S
C78 N75 1.313 . S
C78 N79 1.344 . S
C78 H82 0.930 . S
N79 C76 1.377 . S
N79 C78 1.344 . S
O80 Co72 2.055 . S
O80 C84 1.253 . S
H81 C77 0.931 . S
H82 C78 0.930 . S
O83 Co72 2.039 . S
O83 C73 1.265 . S
C84 O80 1.253 . S
C84 O85 1.227 . S
O85 C84 1.227 . S
N86 Co72 2.140 . S
N86 C89 1.346 . S
N86 C90 1.345 . S
C87 C88 1.387 . S
C87 C91 1.391 . S
C88 C87 1.387 . S
C88 C89 1.369 . S
C88 H97 0.929 . S
C89 N86 1.346 . S
C89 C88 1.369 . S
C89 H92 0.928 . S
C90 N86 1.345 . S
C90 C91 1.371 . S
C90 H93 0.931 . S
C91 C87 1.391 . S
C91 C90 1.371 . S
C91 H98 0.930 . S
H92 C89 0.928 . S
H93 C90 0.931 . S
H94 C70 0.930 . S
H95 C67 0.930 . S
H96 C76 0.930 . S
H97 C88 0.929 . S
H98 C91 0.930 . S
C99 C100 1.351 . S
C99 N102 1.368 . S
C99 H104 0.931 . S
C100 C99 1.351 . S
C100 N101 1.373 . S
C100 H128 0.930 . S
N101 C100 1.373 . S
N101 C103 1.340 . S
N102 C99 1.368 . S
N102 C103 1.321 . S
N102 Co105 2.135 . S
C103 N101 1.340 . S
C103 N102 1.321 . S
C103 H127 0.930 . S
H104 C99 0.931 . S
Co105 N102 2.135 . S
Co105 N108 2.121 . S
Co105 O113 2.055 . S
Co105 O116 2.039 . S
Co105 N119 2.140 . S
C106 O107 1.227 . S
C106 O116 1.265 . S
O107 C106 1.227 . S
N108 Co105 2.121 . S
N108 C110 1.375 . S
N108 C111 1.313 . S
C109 C110 1.338 . S
C109 N112 1.377 . S
C109 H129 0.930 . S
C110 N108 1.375 . S
C110 C109 1.338 . S
C110 H114 0.931 . S
C111 N108 1.313 . S
C111 N112 1.344 . S
C111 H115 0.930 . S
N112 C109 1.377 . S
N112 C111 1.344 . S
O113 Co105 2.055 . S
O113 C117 1.253 . S
H114 C110 0.931 . S
H115 C111 0.930 . S
O116 Co105 2.039 . S
O116 C106 1.265 . S
C117 O113 1.253 . S
C117 O118 1.227 . S
O118 C117 1.227 . S
N119 Co105 2.140 . S
N119 C122 1.346 . S
N119 C123 1.345 . S
C120 C121 1.387 . S
C120 C124 1.391 . S
C121 C120 1.387 . S
C121 C122 1.369 . S
C121 H130 0.929 . S
C122 N119 1.346 . S
C122 C121 1.369 . S
C122 H125 0.928 . S
C123 N119 1.345 . S
C123 C124 1.371 . S
C123 H126 0.931 . S
C124 C120 1.391 . S
C124 C123 1.371 . S
C124 H131 0.930 . S
H125 C122 0.928 . S
H126 C123 0.931 . S
H127 C103 0.930 . S
H128 C100 0.930 . S
H129 C109 0.930 . S
H130 C121 0.929 . S
H131 C124 0.930 . S
C132 C133 1.351 . S
C132 N135 1.368 . S
C132 H137 0.931 . S
C133 C132 1.351 . S
C133 N134 1.373 . S
C133 H161 0.930 . S
N134 C133 1.373 . S
N134 C136 1.340 . S
N135 C132 1.368 . S
N135 C136 1.321 . S
N135 Co138 2.135 . S
C136 N134 1.340 . S
C136 N135 1.321 . S
C136 H160 0.930 . S
H137 C132 0.931 . S
Co138 N135 2.135 . S
Co138 N141 2.121 . S
Co138 O146 2.055 . S
Co138 O149 2.039 . S
Co138 N152 2.140 . S
C139 O140 1.227 . S
C139 O149 1.265 . S
O140 C139 1.227 . S
N141 Co138 2.121 . S
N141 C143 1.375 . S
N141 C144 1.313 . S
C142 C143 1.338 . S
C142 N145 1.377 . S
C142 H162 0.930 . S
C143 N141 1.375 . S
C143 C142 1.338 . S
C143 H147 0.931 . S
C144 N141 1.313 . S
C144 N145 1.344 . S
C144 H148 0.930 . S
N145 C142 1.377 . S
N145 C144 1.344 . S
O146 Co138 2.055 . S
O146 C150 1.253 . S
H147 C143 0.931 . S
H148 C144 0.930 . S
O149 Co138 2.039 . S
O149 C139 1.265 . S
C150 O146 1.253 . S
C150 O151 1.227 . S
O151 C150 1.227 . S
N152 Co138 2.140 . S
N152 C155 1.346 . S
N152 C156 1.345 . S
C153 C154 1.387 . S
C153 C157 1.391 . S
C154 C153 1.387 . S
C154 C155 1.369 . S
C154 H163 0.929 . S
C155 N152 1.346 . S
C155 C154 1.369 . S
C155 H158 0.928 . S
C156 N152 1.345 . S
C156 C157 1.371 . S
C156 H159 0.931 . S
C157 C153 1.391 . S
C157 C156 1.371 . S
C157 H164 0.930 . S
H158 C155 0.928 . S
H159 C156 0.931 . S
H160 C136 0.930 . S
H161 C133 0.930 . S
H162 C142 0.930 . S
H163 C154 0.929 . S
H164 C157 0.930 . S
C165 C166 1.351 . S
C165 N168 1.368 . S
C165 H170 0.931 . S
C166 C165 1.351 . S
C166 N167 1.373 . S
C166 H194 0.930 . S
N167 C166 1.373 . S
N167 C169 1.340 . S
N168 C165 1.368 . S
N168 C169 1.321 . S
N168 Co171 2.135 . S
C169 N167 1.340 . S
C169 N168 1.321 . S
C169 H193 0.930 . S
H170 C165 0.931 . S
Co171 N168 2.135 . S
Co171 N174 2.121 . S
Co171 O179 2.055 . S
Co171 O182 2.039 . S
Co171 N185 2.140 . S
C172 O173 1.227 . S
C172 O182 1.265 . S
O173 C172 1.227 . S
N174 Co171 2.121 . S
N174 C176 1.375 . S
N174 C177 1.313 . S
C175 C176 1.338 . S
C175 N178 1.377 . S
C175 H195 0.930 . S
C176 N174 1.375 . S
C176 C175 1.338 . S
C176 H180 0.931 . S
C177 N174 1.313 . S
C177 N178 1.344 . S
C177 H181 0.930 . S
N178 C175 1.377 . S
N178 C177 1.344 . S
O179 Co171 2.055 . S
O179 C183 1.253 . S
H180 C176 0.931 . S
H181 C177 0.930 . S
O182 Co171 2.039 . S
O182 C172 1.265 . S
C183 O179 1.253 . S
C183 O184 1.227 . S
O184 C183 1.227 . S
N185 Co171 2.140 . S
N185 C188 1.346 . S
N185 C189 1.345 . S
C186 C187 1.387 . S
C186 C190 1.391 . S
C187 C186 1.387 . S
C187 C188 1.369 . S
C187 H196 0.929 . S
C188 N185 1.346 . S
C188 C187 1.369 . S
C188 H191 0.928 . S
C189 N185 1.345 . S
C189 C190 1.371 . S
C189 H192 0.931 . S
C190 C186 1.391 . S
C190 C189 1.371 . S
C190 H197 0.930 . S
H191 C188 0.928 . S
H192 C189 0.931 . S
H193 C169 0.930 . S
H194 C166 0.930 . S
H195 C175 0.930 . S
H196 C187 0.929 . S
H197 C190 0.930 . S
C198 C199 1.351 . S
C198 N201 1.368 . S
C198 H203 0.931 . S
C199 C198 1.351 . S
C199 N200 1.373 . S
C199 H227 0.930 . S
N200 C199 1.373 . S
N200 C202 1.340 . S
N201 C198 1.368 . S
N201 C202 1.321 . S
N201 Co204 2.135 . S
C202 N200 1.340 . S
C202 N201 1.321 . S
C202 H226 0.930 . S
H203 C198 0.931 . S
Co204 N201 2.135 . S
Co204 N207 2.121 . S
Co204 O212 2.055 . S
Co204 O215 2.039 . S
Co204 N218 2.140 . S
C205 O206 1.227 . S
C205 O215 1.265 . S
O206 C205 1.227 . S
N207 Co204 2.121 . S
N207 C209 1.375 . S
N207 C210 1.313 . S
C208 C209 1.338 . S
C208 N211 1.377 . S
C208 H228 0.930 . S
C209 N207 1.375 . S
C209 C208 1.338 . S
C209 H213 0.931 . S
C210 N207 1.313 . S
C210 N211 1.344 . S
C210 H214 0.930 . S
N211 C208 1.377 . S
N211 C210 1.344 . S
O212 Co204 2.055 . S
O212 C216 1.253 . S
H213 C209 0.931 . S
H214 C210 0.930 . S
O215 Co204 2.039 . S
O215 C205 1.265 . S
C216 O212 1.253 . S
C216 O217 1.227 . S
O217 C216 1.227 . S
N218 Co204 2.140 . S
N218 C221 1.346 . S
N218 C222 1.345 . S
C219 C220 1.387 . S
C219 C223 1.391 . S
C220 C219 1.387 . S
C220 C221 1.369 . S
C220 H229 0.929 . S
C221 N218 1.346 . S
C221 C220 1.369 . S
C221 H224 0.928 . S
C222 N218 1.345 . S
C222 C223 1.371 . S
C222 H225 0.931 . S
C223 C219 1.391 . S
C223 C222 1.371 . S
C223 H230 0.930 . S
H224 C221 0.928 . S
H225 C222 0.931 . S
H226 C202 0.930 . S
H227 C199 0.930 . S
H228 C208 0.930 . S
H229 C220 0.929 . S
H230 C223 0.930 . S
C231 C232 1.351 . S
C231 N234 1.368 . S
C231 H236 0.931 . S
C232 C231 1.351 . S
C232 N233 1.373 . S
C232 H260 0.930 . S
N233 C232 1.373 . S
N233 C235 1.340 . S
N234 C231 1.368 . S
N234 C235 1.321 . S
N234 Co237 2.135 . S
C235 N233 1.340 . S
C235 N234 1.321 . S
C235 H259 0.930 . S
H236 C231 0.931 . S
Co237 N234 2.135 . S
Co237 N240 2.121 . S
Co237 O245 2.055 . S
Co237 O248 2.039 . S
Co237 N251 2.140 . S
C238 O239 1.227 . S
C238 O248 1.265 . S
O239 C238 1.227 . S
N240 Co237 2.121 . S
N240 C242 1.375 . S
N240 C243 1.313 . S
C241 C242 1.338 . S
C241 N244 1.377 . S
C241 H261 0.930 . S
C242 N240 1.375 . S
C242 C241 1.338 . S
C242 H246 0.931 . S
C243 N240 1.313 . S
C243 N244 1.344 . S
C243 H247 0.930 . S
N244 C241 1.377 . S
N244 C243 1.344 . S
O245 Co237 2.055 . S
O245 C249 1.253 . S
H246 C242 0.931 . S
H247 C243 0.930 . S
O248 Co237 2.039 . S
O248 C238 1.265 . S
C249 O245 1.253 . S
C249 O250 1.227 . S
O250 C249 1.227 . S
N251 Co237 2.140 . S
N251 C254 1.346 . S
N251 C255 1.345 . S
C252 C253 1.387 . S
C252 C256 1.391 . S
C253 C252 1.387 . S
C253 C254 1.369 . S
C253 H262 0.929 . S
C254 N251 1.346 . S
C254 C253 1.369 . S
C254 H257 0.928 . S
C255 N251 1.345 . S
C255 C256 1.371 . S
C255 H258 0.931 . S
C256 C252 1.391 . S
C256 C255 1.371 . S
C256 H263 0.930 . S
H257 C254 0.928 . S
H258 C255 0.931 . S
H259 C235 0.930 . S
H260 C232 0.930 . S
H261 C241 0.930 . S
H262 C253 0.929 . S
H263 C256 0.930 . S
H264 C270 0.930 . S
H265 C274 0.930 . S
H266 C279 0.929 . S
H267 C277 0.929 . S
H268 C272 0.929 . S
H269 C278 0.929 . S
C270 H264 0.930 . S
C270 C271 1.367 1_545 S
C270 C278 1.378 1_545 S
C271 C270 1.367 1_565 S
C271 C279 1.433 . S
C272 H268 0.929 . S
C272 C274 1.378 . S
C272 C276 1.350 . S
C273 C276 1.463 . S
C273 C278 1.350 . S
C273 N281 1.427 . S
C274 H265 0.930 . S
C274 C272 1.378 . S
C274 C275 1.367 . S
C275 C274 1.367 . S
C275 C277 1.433 . S
C276 C272 1.350 . S
C276 C273 1.463 . S
C276 N280 1.427 . S
C277 H267 0.929 . S
C277 C275 1.433 . S
C277 N280 1.384 . S
C278 H269 0.929 . S
C278 C270 1.378 1_565 S
C278 C273 1.350 . S
C279 H266 0.929 . S
C279 C271 1.433 . S
C279 N281 1.384 . S
N280 C276 1.427 . S
N280 C277 1.384 . S
N281 C273 1.427 . S
N281 C279 1.384 . S
H282 C288 0.930 . S
H283 C292 0.930 . S
H284 C297 0.929 . S
H285 C295 0.929 . S
H286 C290 0.929 . S
H287 C296 0.929 . S
C288 H282 0.930 . S
C288 C289 1.367 . S
C288 C296 1.378 . S
C289 C288 1.367 . S
C289 C297 1.433 . S
C290 H286 0.929 . S
C290 C292 1.378 . S
C290 C294 1.350 . S
C291 C294 1.463 . S
C291 C296 1.350 . S
C291 N299 1.427 . S
C292 H283 0.930 . S
C292 C290 1.378 . S
C292 C293 1.367 . S
C293 C292 1.367 . S
C293 C295 1.433 . S
C294 C290 1.350 . S
C294 C291 1.463 . S
C294 N298 1.427 . S
C295 H285 0.929 . S
C295 C293 1.433 . S
C295 N298 1.384 . S
C296 H287 0.929 . S
C296 C288 1.378 . S
C296 C291 1.350 . S
C297 H284 0.929 . S
C297 C289 1.433 . S
C297 N299 1.384 . S
N298 C294 1.427 . S
N298 C295 1.384 . S
N299 C291 1.427 . S
N299 C297 1.384 . S
H300 C306 0.930 . S
H301 C310 0.930 . S
H302 C315 0.929 1_565 S
H303 C313 0.929 . S
H304 C308 0.929 . S
H305 C314 0.929 . S
C306 H300 0.930 . S
C306 C307 1.367 . S
C306 C314 1.378 . S
C307 C306 1.367 . S
C307 C315 1.433 . S
C308 H304 0.929 . S
C308 C310 1.378 . S
C308 C312 1.350 . S
C309 C312 1.463 . S
C309 C314 1.350 . S
C309 N317 1.427 . S
C310 H301 0.930 . S
C310 C308 1.378 . S
C310 C311 1.367 . S
C311 C310 1.367 . S
C311 C313 1.433 . S
C312 C308 1.350 . S
C312 C309 1.463 . S
C312 N316 1.427 . S
C313 H303 0.929 . S
C313 C311 1.433 . S
C313 N316 1.384 . S
C314 H305 0.929 . S
C314 C306 1.378 . S
C314 C309 1.350 . S
C315 H302 0.929 1_545 S
C315 C307 1.433 . S
C315 N317 1.384 . S
N316 C312 1.427 . S
N316 C313 1.384 . S
N317 C309 1.427 . S
N317 C315 1.384 . S
H318 C324 0.930 . S
H319 C328 0.930 . S
H320 C333 0.929 . S
H321 C331 0.929 1_655 S
H322 C326 0.929 . S
H323 C332 0.929 . S
C324 H318 0.930 . S
C324 C325 1.367 . S
C324 C332 1.378 . S
C325 C324 1.367 . S
C325 C333 1.433 . S
C326 H322 0.929 . S
C326 C328 1.378 . S
C326 C330 1.350 . S
C327 C330 1.463 . S
C327 C332 1.350 . S
C327 N335 1.427 . S
C328 H319 0.930 . S
C328 C326 1.378 . S
C328 C329 1.367 . S
C329 C328 1.367 . S
C329 C331 1.433 . S
C330 C326 1.350 . S
C330 C327 1.463 . S
C330 N334 1.427 . S
C331 H321 0.929 1_455 S
C331 C329 1.433 . S
C331 N334 1.384 . S
C332 H323 0.929 . S
C332 C324 1.378 . S
C332 C327 1.350 . S
C333 H320 0.929 . S
C333 C325 1.433 . S
C333 N335 1.384 . S
N334 C330 1.427 . S
N334 C331 1.384 . S
N335 C327 1.427 . S
N335 C333 1.384 . S
H336 C342 0.930 . S
H337 C346 0.930 . S
H338 C351 0.929 . S
H339 C349 0.929 . S
H340 C344 0.929 . S
H341 C350 0.929 . S
C342 H336 0.930 . S
C342 C343 1.367 . S
C342 C350 1.378 . S
C343 C342 1.367 . S
C343 C351 1.433 . S
C344 H340 0.929 . S
C344 C346 1.378 . S
C344 C348 1.365 . S
C345 C348 1.450 1_556 S
C345 C350 1.350 . S
C345 N353 1.427 . S
C346 H337 0.930 . S
C346 C344 1.378 . S
C346 C347 1.367 . S
C347 C346 1.367 . S
C347 C349 1.433 1_565 S
C348 C344 1.365 . S
C348 C345 1.450 1_554 S
C348 N352 1.424 1_554 S
C349 H339 0.929 . S
C349 C347 1.433 1_545 S
C349 N352 1.384 1_544 S
C350 H341 0.929 . S
C350 C342 1.378 . S
C350 C345 1.350 . S
C351 H338 0.929 . S
C351 C343 1.433 . S
C351 N353 1.384 . S
N352 C348 1.424 1_556 S
N352 C349 1.384 1_566 S
N353 C345 1.427 . S
N353 C351 1.384 . S
H354 C360 0.930 . S
H355 C364 0.930 . S
H356 C369 0.929 . S
H357 C367 0.929 . S
H358 C362 0.929 . S
H359 C368 0.929 . S
C360 H354 0.930 . S
C360 C361 1.367 . S
C360 C368 1.378 . S
C361 C360 1.367 . S
C361 C369 1.433 . S
C362 H358 0.929 . S
C362 C364 1.378 . S
C362 C366 1.351 1_556 S
C363 C366 1.460 . S
C363 C368 1.350 . S
C363 N371 1.427 . S
C364 H355 0.930 . S
C364 C362 1.378 . S
C364 C365 1.367 . S
C365 C364 1.367 . S
C365 C367 1.433 . S
C366 C362 1.351 1_554 S
C366 C363 1.460 . S
C366 N370 1.429 1_554 S
C367 H357 0.929 . S
C367 C365 1.433 . S
C367 N370 1.384 . S
C368 H359 0.929 . S
C368 C360 1.378 . S
C368 C363 1.350 . S
C369 H356 0.929 . S
C369 C361 1.433 . S
C369 N371 1.384 . S
N370 C366 1.429 1_556 S
N370 C367 1.384 . S
N371 C363 1.427 . S
N371 C369 1.384 . S
H372 C378 0.930 . S
H373 C382 0.930 1_565 S
H374 C387 0.929 . S
H375 C385 0.929 . S
H376 C380 0.929 . S
H377 C386 0.929 . S
C378 H372 0.930 . S
C378 C379 1.367 . S
C378 C386 1.378 . S
C379 C378 1.367 . S
C379 C387 1.433 . S
C380 H376 0.929 . S
C380 C382 1.378 1_556 S
C380 C384 1.352 . S
C381 C384 1.475 . S
C381 C386 1.350 . S
C381 N389 1.427 . S
C382 H373 0.930 1_545 S
C382 C380 1.378 1_554 S
C382 C383 1.367 . S
C383 C382 1.367 . S
C383 C385 1.433 . S
C384 C380 1.352 . S
C384 C381 1.475 . S
C384 N388 1.413 1_556 S
C385 H375 0.929 . S
C385 C383 1.433 . S
C385 N388 1.384 . S
C386 H377 0.929 . S
C386 C378 1.378 . S
C386 C381 1.350 . S
C387 H374 0.929 . S
C387 C379 1.433 . S
C387 N389 1.384 . S
N388 C384 1.413 1_554 S
N388 C385 1.384 . S
N389 C381 1.427 . S
N389 C387 1.384 . S
H390 C396 0.930 . S
H391 C400 0.930 . S
H392 C405 0.929 1_655 S
H393 C403 0.929 . S
H394 C398 0.929 . S
H395 C404 0.929 . S
C396 H390 0.930 . S
C396 C397 1.367 . S
C396 C404 1.378 . S
C397 C396 1.367 . S
C397 C405 1.433 . S
C398 H394 0.929 . S
C398 C400 1.378 . S
C398 C402 1.350 . S
C399 C402 1.457 1_556 S
C399 C404 1.355 . S
C399 N407 1.427 . S
C400 H391 0.930 . S
C400 C398 1.378 . S
C400 C401 1.367 . S
C401 C400 1.367 . S
C401 C403 1.433 . S
C402 C398 1.350 . S
C402 C399 1.457 1_554 S
C402 N406 1.427 . S
C403 H393 0.929 . S
C403 C401 1.433 . S
C403 N406 1.384 . S
C404 H395 0.929 . S
C404 C396 1.378 . S
C404 C399 1.355 . S
C405 H392 0.929 1_455 S
C405 C397 1.433 . S
C405 N407 1.400 . S
N406 C402 1.427 . S
N406 C403 1.384 . S
N407 C399 1.427 . S
N407 C405 1.400 . S
H408 C414 0.930 . S
H409 C418 0.930 . S
H410 C423 0.929 . S
H411 C421 0.929 . S
H412 C416 0.929 . S
H413 C422 0.929 . S
C414 H408 0.930 . S
C414 C415 1.367 . S
C414 C422 1.378 1_565 S
C415 C414 1.367 . S
C415 C423 1.433 . S
C416 H412 0.929 . S
C416 C418 1.378 1_565 S
C416 C420 1.350 1_565 S
C417 C420 1.463 1_565 S
C417 C422 1.350 1_565 S
C417 N425 1.427 . S
C418 H409 0.930 . S
C418 C416 1.378 1_545 S
C418 C419 1.367 . S
C419 C418 1.367 . S
C419 C421 1.433 . S
C420 C416 1.350 1_545 S
C420 C417 1.463 1_545 S
C420 N424 1.427 . S
C421 H411 0.929 . S
C421 C419 1.433 . S
C421 N424 1.384 . S
C422 H413 0.929 . S
C422 C414 1.378 1_545 S
C422 C417 1.350 1_545 S
C423 H410 0.929 . S
C423 C415 1.433 . S
C423 N425 1.384 . S
N424 C420 1.427 . S
N424 C421 1.384 . S
N425 C417 1.427 . S
N425 C423 1.384 . S
H426 C432 0.930 . S
H427 C436 0.930 . S
H428 C441 0.929 . S
H429 C439 0.929 . S
H430 C434 0.929 . S
H431 C440 0.929 . S
C432 H426 0.930 . S
C432 C433 1.367 . S
C432 C440 1.378 . S
C433 C432 1.367 . S
C433 C441 1.433 . S
C434 H430 0.929 . S
C434 C436 1.378 . S
C434 C438 1.350 . S
C435 C438 1.463 1_455 S
C435 C440 1.350 . S
C435 N443 1.427 1_455 S
C436 H427 0.930 . S
C436 C434 1.378 . S
C436 C437 1.367 . S
C437 C436 1.367 . S
C437 C439 1.433 . S
C438 C434 1.350 . S
C438 C435 1.463 1_655 S
C438 N442 1.427 1_655 S
C439 H429 0.929 . S
C439 C437 1.433 . S
C439 N442 1.384 1_655 S
C440 H431 0.929 . S
C440 C432 1.378 . S
C440 C435 1.350 . S
C441 H428 0.929 . S
C441 C433 1.433 . S
C441 N443 1.384 1_455 S
N442 C438 1.427 1_455 S
N442 C439 1.384 1_455 S
N443 C435 1.427 1_655 S
N443 C441 1.384 1_655 S
H444 C450 0.930 . S
H445 C454 0.930 . S
H446 C459 0.929 . S
H447 C457 0.929 . S
H448 C452 0.929 . S
H449 C458 0.929 . S
C450 H444 0.930 . S
C450 C451 1.367 . S
C450 C458 1.378 . S
C451 C450 1.367 . S
C451 C459 1.433 . S
C452 H448 0.929 . S
C452 C454 1.378 . S
C452 C456 1.350 . S
C453 C456 1.463 1_545 S
C453 C458 1.350 . S
C453 N461 1.427 . S
C454 H445 0.930 . S
C454 C452 1.378 . S
C454 C455 1.367 . S
C455 C454 1.367 . S
C455 C457 1.433 . S
C456 C452 1.350 . S
C456 C453 1.463 1_565 S
C456 N460 1.427 . S
C457 H447 0.929 . S
C457 C455 1.433 . S
C457 N460 1.384 . S
C458 H449 0.929 . S
C458 C450 1.378 . S
C458 C453 1.350 . S
C459 H446 0.929 . S
C459 C451 1.433 . S
C459 N461 1.384 . S
N460 C456 1.427 . S
N460 C457 1.384 . S
N461 C453 1.427 . S
N461 C459 1.384 . S
H462 C468 0.930 . S
H463 C472 0.930 . S
H464 C477 0.929 . S
H465 C475 0.929 . S
H466 C470 0.929 . S
H467 C476 0.929 . S
C468 H462 0.930 . S
C468 C469 1.367 . S
C468 C476 1.378 . S
C469 C468 1.367 . S
C469 C477 1.433 . S
C470 H466 0.929 . S
C470 C472 1.378 . S
C470 C474 1.350 . S
C471 C474 1.463 1_455 S
C471 C476 1.350 . S
C471 N479 1.427 . S
C472 H463 0.930 . S
C472 C470 1.378 . S
C472 C473 1.367 . S
C473 C472 1.367 . S
C473 C475 1.433 . S
C474 C470 1.350 . S
C474 C471 1.463 1_655 S
C474 N478 1.427 . S
C475 H465 0.929 . S
C475 C473 1.433 . S
C475 N478 1.384 . S
C476 H467 0.929 . S
C476 C468 1.378 . S
C476 C471 1.350 . S
C477 H464 0.929 . S
C477 C469 1.433 . S
C477 N479 1.384 . S
N478 C474 1.427 . S
N478 C475 1.384 . S
N479 C471 1.427 . S
N479 C477 1.384 . S
H480 C486 0.930 . S
H481 C490 0.930 . S
H482 C495 0.929 . S
H483 C493 0.929 . S
H484 C488 0.929 1_545 S
H485 C494 0.929 1_565 S
C486 H480 0.930 . S
C486 C487 1.367 . S
C486 C494 1.378 . S
C487 C486 1.367 . S
C487 C495 1.433 . S
C488 H484 0.929 1_565 S
C488 C490 1.378 . S
C488 C492 1.350 . S
C489 C492 1.463 1_445 S
C489 C494 1.350 . S
C489 N497 1.427 . S
C490 H481 0.930 . S
C490 C488 1.378 . S
C490 C491 1.367 . S
C491 C490 1.367 . S
C491 C493 1.433 . S
C492 C488 1.350 . S
C492 C489 1.463 1_665 S
C492 N496 1.427 . S
C493 H483 0.929 . S
C493 C491 1.433 . S
C493 N496 1.384 . S
C494 H485 0.929 1_545 S
C494 C486 1.378 . S
C494 C489 1.350 . S
C495 H482 0.929 . S
C495 C487 1.433 . S
C495 N497 1.384 . S
N496 C492 1.427 . S
N496 C493 1.384 . S
N497 C489 1.427 . S
N497 C495 1.384 . S
H498 C504 0.930 . S
H499 C508 0.930 . S
H500 C513 0.929 . S
H501 C511 0.929 . S
H502 C506 0.929 . S
H503 C512 0.929 . S
C504 H498 0.930 . S
C504 C505 1.367 . S
C504 C512 1.378 . S
C505 C504 1.367 . S
C505 C513 1.433 . S
C506 H502 0.929 . S
C506 C508 1.378 . S
C506 C510 1.350 . S
C507 C510 1.463 1_465 S
C507 C512 1.350 . S
C507 N515 1.427 1_455 S
C508 H499 0.930 . S
C508 C506 1.378 . S
C508 C509 1.367 . S
C509 C508 1.367 . S
C509 C511 1.433 . S
C510 C506 1.350 . S
C510 C507 1.463 1_645 S
C510 N514 1.427 1_655 S
C511 H501 0.929 . S
C511 C509 1.433 . S
C511 N514 1.384 1_655 S
C512 H503 0.929 . S
C512 C504 1.378 . S
C512 C507 1.350 . S
C513 H500 0.929 . S
C513 C505 1.433 . S
C513 N515 1.384 1_455 S
N514 C510 1.427 1_455 S
N514 C511 1.384 1_455 S
N515 C507 1.427 1_655 S
N515 C513 1.384 1_655 S
H516 C522 0.930 . S
H517 C526 0.930 . S
H518 C531 0.929 . S
H519 C529 0.929 . S
H520 C524 0.929 . S
H521 C530 0.929 . S
C522 H516 0.930 . S
C522 C523 1.367 . S
C522 C530 1.378 . S
C523 C522 1.367 . S
C523 C531 1.433 1_565 S
C524 H520 0.929 . S
C524 C526 1.378 . S
C524 C528 1.350 . S
C525 C528 1.463 1_465 S
C525 C530 1.350 . S
C525 N533 1.427 1_565 S
C526 H517 0.930 . S
C526 C524 1.378 . S
C526 C527 1.367 . S
C527 C526 1.367 . S
C527 C529 1.433 1_545 S
C528 C524 1.350 . S
C528 C525 1.463 1_645 S
C528 N532 1.427 1_545 S
C529 H519 0.929 . S
C529 C527 1.433 1_565 S
C529 N532 1.384 . S
C530 H521 0.929 . S
C530 C522 1.378 . S
C530 C525 1.350 . S
C531 H518 0.929 . S
C531 C523 1.433 1_545 S
C531 N533 1.384 . S
N532 C528 1.427 1_565 S
N532 C529 1.384 . S
N533 C525 1.427 1_545 S
N533 C531 1.384 . S
H534 C540 0.930 . S
H535 C544 0.930 . S
H536 C549 0.929 . S
H537 C547 0.929 . S
H538 C542 0.929 . S
H539 C548 0.929 . S
C540 H534 0.930 . S
C540 C541 1.367 . S
C540 C548 1.378 . S
C541 C540 1.367 . S
C541 C549 1.433 1_655 S
C542 H538 0.929 . S
C542 C544 1.378 . S
C542 C546 1.350 . S
C543 C546 1.463 1_665 S
C543 C548 1.350 . S
C543 N551 1.427 1_655 S
C544 H535 0.930 . S
C544 C542 1.378 . S
C544 C545 1.367 . S
C545 C544 1.367 . S
C545 C547 1.433 1_455 S
C546 C542 1.350 . S
C546 C543 1.463 1_445 S
C546 N550 1.427 1_455 S
C547 H537 0.929 . S
C547 C545 1.433 1_655 S
C547 N550 1.384 . S
C548 H539 0.929 . S
C548 C540 1.378 . S
C548 C543 1.350 . S
C549 H536 0.929 . S
C549 C541 1.433 1_455 S
C549 N551 1.384 . S
N550 C546 1.427 1_655 S
N550 C547 1.384 . S
N551 C543 1.427 1_455 S
N551 C549 1.384 . S
H552 C558 0.930 . S
H553 C562 0.930 . S
H554 C567 0.929 . S
H555 C565 0.929 . S
H556 C560 0.929 . S
H557 C566 0.929 . S
C558 H552 0.930 . S
C558 C559 1.367 . S
C558 C566 1.378 . S
C559 C558 1.367 . S
C559 C567 1.433 . S
C560 H556 0.929 . S
C560 C562 1.378 . S
C560 C564 1.350 . S
C561 C564 1.463 . S
C561 C566 1.350 . S
C561 N569 1.427 . S
C562 H553 0.930 . S
C562 C560 1.378 . S
C562 C563 1.367 . S
C563 C562 1.367 . S
C563 C565 1.433 . S
C564 C560 1.350 . S
C564 C561 1.463 . S
C564 N568 1.427 . S
C565 H555 0.929 . S
C565 C563 1.433 . S
C565 N568 1.384 . S
C566 H557 0.929 . S
C566 C558 1.378 . S
C566 C561 1.350 . S
C567 H554 0.929 . S
C567 C559 1.433 . S
C567 N569 1.384 . S
N568 C564 1.427 . S
N568 C565 1.384 . S
N569 C561 1.427 . S
N569 C567 1.384 . S
H570 C576 0.930 . S
H571 C580 0.930 . S
H572 C585 0.929 . S
H573 C583 0.929 . S
H574 C578 0.929 . S
H575 C584 0.929 . S
C576 H570 0.930 . S
C576 C577 1.367 . S
C576 C584 1.378 . S
C577 C576 1.367 . S
C577 C585 1.433 . S
C578 H574 0.929 . S
C578 C580 1.378 . S
C578 C582 1.350 . S
C579 C582 1.463 . S
C579 C584 1.350 . S
C579 N587 1.427 . S
C580 H571 0.930 . S
C580 C578 1.378 . S
C580 C581 1.367 . S
C581 C580 1.367 . S
C581 C583 1.433 . S
C582 C578 1.350 . S
C582 C579 1.463 . S
C582 N586 1.427 . S
C583 H573 0.929 . S
C583 C581 1.433 . S
C583 N586 1.384 . S
C584 H575 0.929 . S
C584 C576 1.378 . S
C584 C579 1.350 . S
C585 H572 0.929 . S
C585 C577 1.433 . S
C585 N587 1.384 . S
N586 C582 1.427 . S
N586 C583 1.384 . S
N587 C579 1.427 . S
N587 C585 1.384 . S
H588 C594 0.930 . S
H589 C598 0.930 . S
H590 C603 0.929 . S
H591 C601 0.929 . S
H592 C596 0.929 . S
H593 C602 0.929 . S
C594 H588 0.930 . S
C594 C595 1.367 . S
C594 C602 1.378 . S
C595 C594 1.367 . S
C595 C603 1.433 . S
C596 H592 0.929 . S
C596 C598 1.378 . S
C596 C600 1.350 . S
C597 C600 1.463 . S
C597 C602 1.350 . S
C597 N605 1.427 . S
C598 H589 0.930 . S
C598 C596 1.378 . S
C598 C599 1.367 . S
C599 C598 1.367 . S
C599 C601 1.433 . S
C600 C596 1.350 . S
C600 C597 1.463 . S
C600 N604 1.427 . S
C601 H591 0.929 . S
C601 C599 1.433 . S
C601 N604 1.384 . S
C602 H593 0.929 . S
C602 C594 1.378 . S
C602 C597 1.350 . S
C603 H590 0.929 . S
C603 C595 1.433 . S
C603 N605 1.384 . S
N604 C600 1.427 . S
N604 C601 1.384 . S
N605 C597 1.427 . S
N605 C603 1.384 . S
H606 C612 0.930 . S
H607 C616 0.930 . S
H608 C621 0.929 . S
H609 C619 0.929 . S
H610 C614 0.929 . S
H611 C620 0.929 . S
C612 H606 0.930 . S
C612 C613 1.367 . S
C612 C620 1.378 . S
C613 C612 1.367 . S
C613 C621 1.433 . S
C614 H610 0.929 . S
C614 C616 1.378 . S
C614 C618 1.350 . S
C615 C618 1.463 . S
C615 C620 1.350 . S
C615 N623 1.427 . S
C616 H607 0.930 . S
C616 C614 1.378 . S
C616 C617 1.367 . S
C617 C616 1.367 . S
C617 C619 1.433 . S
C618 C614 1.350 . S
C618 C615 1.463 . S
C618 N622 1.427 . S
C619 H609 0.929 . S
C619 C617 1.433 . S
C619 N622 1.384 . S
C620 H611 0.929 . S
C620 C612 1.378 . S
C620 C615 1.350 . S
C621 H608 0.929 . S
C621 C613 1.433 . S
C621 N623 1.384 . S
N622 C618 1.427 . S
N622 C619 1.384 . S
N623 C615 1.427 . S
N623 C621 1.384 . S
C271 N2 0.987 1_565 S
C275 C54 0.917 . S
C289 C87 0.886 . S
C293 N35 0.968 1_655 S
C307 N68 0.992 1_545 S
C311 C120 0.925 . S
C325 C21 0.887 . S
C329 N101 0.969 1_455 S
C343 C252 0.911 . S
C347 N134 0.983 1_565 S
C361 C153 0.888 . S
C365 N167 0.969 1_655 S
C379 C186 0.924 . S
C383 N200 0.991 1_545 S
C397 N233 0.969 1_455 S
C401 C219 0.887 . S
C415 C84 1.550 . S
C419 C18 1.548 . S
C433 C51 1.559 . S
C437 C117 1.558 . S
C451 C150 1.559 . S
C455 C216 1.554 . S
C469 C183 1.556 . S
C473 C249 1.550 . S
C487 C7 0.922 . S
C491 C73 0.903 . S
C505 C40 0.898 . S
C509 C106 0.917 . S
C523 C205 0.901 . S
C527 C139 0.906 . S
C541 C238 0.911 . S
C545 C172 0.898 . S
C559 N13 1.665 . S
C563 N178 1.670 . S
C577 N211 1.659 . S
C581 N46 1.675 . S
C595 N244 1.674 . S
C599 N79 1.657 . S
C613 N112 1.665 . S
C617 N145 1.664 . S
