# Generated by pormake.
# Topology vmg, (6)-cn, num edge types: 1
# Building blocks:
#     Node 0, Type 0, BuildingBlock: MIDCAF_clean_sbu_0, # of connection points: 6
#     Node 1, Type 0, BuildingBlock: MIDCAF_clean_sbu_0, # of connection points: 6
#     Node 2, Type 0, BuildingBlock: MIDCAF_clean_sbu_0, # of connection points: 6
#     Node 3, Type 0, BuildingBlock: MIDCAF_clean_sbu_0, # of connection points: 6
#     Node 4, Type 0, BuildingBlock: MIDCAF_clean_sbu_0, # of connection points: 6
#     Node 5, Type 0, BuildingBlock: MIDCAF_clean_sbu_0, # of connection points: 6
#     Node 6, Type 0, BuildingBlock: MIDCAF_clean_sbu_0, # of connection points: 6
#     Node 7, Type 0, BuildingBlock: MIDCAF_clean_sbu_0, # of connection points: 6
#     Edge 8, Type (0, 0), BuildingBlock: ZUJKAS_clean_linker_0, # of connection points: 2
#     Edge 9, Type (0, 0), BuildingBlock: ZUJKAS_clean_linker_0, # of connection points: 2
#     Edge 10, Type (0, 0), BuildingBlock: ZUJKAS_clean_linker_0, # of connection points: 2
#     Edge 11, Type (0, 0), BuildingBlock: ZUJKAS_clean_linker_0, # of connection points: 2
#     Edge 12, Type (0, 0), BuildingBlock: ZUJKAS_clean_linker_0, # of connection points: 2
#     Edge 13, Type (0, 0), BuildingBlock: ZUJKAS_clean_linker_0, # of connection points: 2
#     Edge 14, Type (0, 0), BuildingBlock: ZUJKAS_clean_linker_0, # of connection points: 2
#     Edge 15, Type (0, 0), BuildingBlock: ZUJKAS_clean_linker_0, # of connection points: 2
#     Edge 16, Type (0, 0), BuildingBlock: ZUJKAS_clean_linker_0, # of connection points: 2
#     Edge 17, Type (0, 0), BuildingBlock: ZUJKAS_clean_linker_0, # of connection points: 2
#     Edge 18, Type (0, 0), BuildingBlock: ZUJKAS_clean_linker_0, # of connection points: 2
#     Edge 19, Type (0, 0), BuildingBlock: ZUJKAS_clean_linker_0, # of connection points: 2
#     Edge 20, Type (0, 0), BuildingBlock: ZUJKAS_clean_linker_0, # of connection points: 2
#     Edge 21, Type (0, 0), BuildingBlock: ZUJKAS_clean_linker_0, # of connection points: 2
#     Edge 22, Type (0, 0), BuildingBlock: ZUJKAS_clean_linker_0, # of connection points: 2
#     Edge 23, Type (0, 0), BuildingBlock: ZUJKAS_clean_linker_0, # of connection points: 2
#     Edge 24, Type (0, 0), BuildingBlock: ZUJKAS_clean_linker_0, # of connection points: 2
#     Edge 25, Type (0, 0), BuildingBlock: ZUJKAS_clean_linker_0, # of connection points: 2
#     Edge 26, Type (0, 0), BuildingBlock: ZUJKAS_clean_linker_0, # of connection points: 2
#     Edge 27, Type (0, 0), BuildingBlock: ZUJKAS_clean_linker_0, # of connection points: 2
#     Edge 28, Type (0, 0), BuildingBlock: ZUJKAS_clean_linker_0, # of connection points: 2
#     Edge 29, Type (0, 0), BuildingBlock: ZUJKAS_clean_linker_0, # of connection points: 2
#     Edge 30, Type (0, 0), BuildingBlock: ZUJKAS_clean_linker_0, # of connection points: 2
#     Edge 31, Type (0, 0), BuildingBlock: ZUJKAS_clean_linker_0, # of connection points: 2
# Relax obj value: 0.371
# Max RMSD: 0.252
# Mean RMSD: 0.252
data_MOF--net-vmg--node1-MIDCAF_clean_sbu_0--edge1-ZUJKAS_clean_linker_0
_symmetry_space_group_name_H-M    P1
_symmetry_Int_Tables_number       1
_symmetry_cell_setting            triclinic
loop_
_symmetry_equiv_pos_as_xyz
'x, y, z'
_cell_length_a     31.752248
_cell_length_b     57.241293
_cell_length_c     33.395202
_cell_angle_alpha  90.106405
_cell_angle_beta   93.94738
_cell_angle_gamma 89.96165
loop_
_atom_site_label
_atom_site_type_symbol
_atom_site_fract_x
_atom_site_fract_y
_atom_site_fract_z
_atom_type_partial_charge
Zn0 Zn 0.14692 0.42133 0.13925 0.0
Zn1 Zn 0.29117 0.43038 0.12873 0.0
Zn2 Zn 0.22091 0.42225 0.12956 0.0
C3 C 0.28411 0.40225 0.19097 0.0
C4 C 0.28041 0.38541 0.09523 0.0
O5 O 0.19094 0.43729 0.07397 0.0
O6 O 0.12418 0.4347 0.08755 0.0
C7 C 0.18933 0.45086 0.19831 0.0
O8 O 0.25624 0.39481 0.16406 0.0
O9 O 0.29727 0.42306 0.18818 0.0
O10 O 0.30343 0.40308 0.0901 0.0
O11 O 0.24976 0.38766 0.11857 0.0
O12 O 0.1531 0.44298 0.18726 0.0
O13 O 0.22113 0.44482 0.17951 0.0
O14 O 0.21227 0.38452 0.14294 0.0
O15 O 0.14332 0.38719 0.14774 0.0
C16 C 0.17651 0.37495 0.14915 0.0
O17 O 0.23755 0.44156 0.0755 0.0
O18 O 0.29048 0.462 0.10374 0.0
C19 C 0.15167 0.44122 0.06441 0.0
C20 C 0.265 0.45808 0.07366 0.0
Zn21 Zn 0.82662 0.40383 0.29535 0.0
Zn22 Zn 0.74975 0.36794 0.40559 0.0
Zn23 Zn 0.7879 0.38714 0.35317 0.0
C24 C 0.69288 0.36748 0.34075 0.0
C25 C 0.81656 0.33979 0.39949 0.0
O26 O 0.8185 0.41897 0.3784 0.0
O27 O 0.85172 0.43064 0.3259 0.0
C28 C 0.74494 0.40438 0.26625 0.0
O29 O 0.72113 0.38173 0.32924 0.0
O30 O 0.69957 0.35638 0.37315 0.0
O31 O 0.79104 0.34454 0.42558 0.0
O32 O 0.8179 0.35274 0.36804 0.0
O33 O 0.78072 0.41008 0.25551 0.0
O34 O 0.74106 0.39538 0.30125 0.0
O35 O 0.84004 0.36252 0.33744 0.0
O36 O 0.86425 0.37804 0.28307 0.0
C37 C 0.86517 0.36186 0.30863 0.0
O38 O 0.78971 0.41167 0.40626 0.0
O39 O 0.74229 0.39452 0.44142 0.0
C40 C 0.84348 0.4333 0.36208 0.0
C41 C 0.76687 0.41145 0.43681 0.0
Zn42 Zn 0.80229 0.54367 0.86422 0.0
Zn43 Zn 0.68678 0.58737 0.89639 0.0
Zn44 Zn 0.75102 0.56884 0.87603 0.0
C45 C 0.6746 0.57676 0.81387 0.0
C46 C 0.75377 0.61967 0.91171 0.0
O47 O 0.80824 0.58021 0.91234 0.0
O48 O 0.81927 0.54291 0.92376 0.0
C49 C 0.7565 0.53151 0.80452 0.0
O50 O 0.71231 0.56894 0.82008 0.0
O51 O 0.6563 0.58627 0.84212 0.0
O52 O 0.71457 0.61711 0.9145 0.0
O53 O 0.77591 0.60314 0.89737 0.0
O54 O 0.77439 0.51832 0.83097 0.0
O55 O 0.74707 0.55263 0.81435 0.0
O56 O 0.80539 0.5927 0.87081 0.0
O57 O 0.83319 0.56786 0.83018 0.0
C58 C 0.83061 0.58866 0.84279 0.0
O59 O 0.733 0.54484 0.92093 0.0
O60 O 0.67496 0.56243 0.93684 0.0
C61 C 0.82725 0.56398 0.93328 0.0
C62 C 0.70076 0.54564 0.94169 0.0
Zn63 Zn 0.27687 0.6252 0.60574 0.0
Zn64 Zn 0.13641 0.59443 0.65618 0.0
Zn65 Zn 0.20361 0.6116 0.62951 0.0
C66 C 0.12936 0.64356 0.65731 0.0
C67 C 0.19845 0.57977 0.71033 0.0
O68 O 0.20671 0.59862 0.56833 0.0
O69 O 0.27049 0.60934 0.55247 0.0
C70 C 0.23109 0.6655 0.61766 0.0
O71 O 0.16734 0.64278 0.64619 0.0
O72 O 0.10904 0.62494 0.66204 0.0
O73 O 0.15888 0.57826 0.70487 0.0
O74 O 0.21971 0.59119 0.68525 0.0
O75 O 0.26714 0.65885 0.60873 0.0
O76 O 0.20298 0.65045 0.62644 0.0
O77 O 0.25714 0.59579 0.66694 0.0
O78 O 0.31586 0.61125 0.64649 0.0
C79 C 0.29771 0.59772 0.66946 0.0
O80 O 0.16833 0.59031 0.58169 0.0
O81 O 0.11503 0.5748 0.6118 0.0
C82 C 0.2358 0.59923 0.54333 0.0
C83 C 0.13544 0.57705 0.58107 0.0
Zn84 Zn 0.57882 0.90559 0.14289 0.0
Zn85 Zn 0.76284 0.89207 0.06558 0.0
Zn86 Zn 0.69279 0.89498 0.09303 0.0
C87 C 0.77237 0.91466 0.14087 0.0
C88 C 0.73458 0.84609 0.07385 0.0
O89 O 0.65904 0.92094 0.05417 0.0
O90 O 0.61488 0.91076 0.09618 0.0
C91 C 0.66579 0.91477 0.18626 0.0
O92 O 0.73388 0.90819 0.14287 0.0
O93 O 0.79102 0.91125 0.10917 0.0
O94 O 0.76774 0.85763 0.06905 0.0
O95 O 0.70029 0.85687 0.08124 0.0
O96 O 0.6254 0.91349 0.18584 0.0
O97 O 0.68778 0.9092 0.15608 0.0
O98 O 0.66094 0.86106 0.09881 0.0
O99 O 0.61148 0.88625 0.10392 0.0
C100 C 0.62375 0.8654 0.10896 0.0
O101 O 0.69495 0.91625 0.03629 0.0
O102 O 0.75503 0.9062 0.01128 0.0
C103 C 0.62483 0.92546 0.07026 0.0
C104 C 0.72092 0.91755 0.00822 0.0
Zn105 Zn 0.30201 0.94066 0.34356 0.0
Zn106 Zn 0.2003 0.91654 0.43345 0.0
Zn107 Zn 0.25239 0.92703 0.3858 0.0
C108 C 0.15231 0.93715 0.3731 0.0
C109 C 0.23513 0.87489 0.40969 0.0
O110 O 0.29212 0.95525 0.41451 0.0
O111 O 0.31243 0.97333 0.36101 0.0
C112 C 0.23266 0.93863 0.29384 0.0
O113 O 0.18793 0.93467 0.3571 0.0
O114 O 0.14992 0.93276 0.40984 0.0
O115 O 0.20236 0.88251 0.42456 0.0
O116 O 0.26167 0.88921 0.39577 0.0
O117 O 0.27158 0.93553 0.29074 0.0
O118 O 0.21811 0.93883 0.32894 0.0
O119 O 0.29491 0.8969 0.37196 0.0
O120 O 0.34877 0.91871 0.35755 0.0
C121 C 0.33401 0.89875 0.36403 0.0
O122 O 0.26375 0.94772 0.44284 0.0
O123 O 0.22525 0.92901 0.48493 0.0
C124 C 0.31128 0.97243 0.39864 0.0
C125 C 0.25146 0.94488 0.47856 0.0
Zn126 Zn 0.33661 0.06497 0.92362 0.0
Zn127 Zn 0.24402 0.12581 0.94288 0.0
Zn128 Zn 0.30304 0.1067 0.90992 0.0
C129 C 0.22673 0.1287 0.85862 0.0
C130 C 0.3104 0.15424 0.96175 0.0
O131 O 0.36238 0.11664 0.93828 0.0
O132 O 0.34516 0.08681 0.9749 0.0
C133 C 0.28781 0.07361 0.84485 0.0
O134 O 0.26063 0.11654 0.85829 0.0
O135 O 0.21484 0.13642 0.89148 0.0
O136 O 0.27584 0.14919 0.97608 0.0
O137 O 0.32452 0.14128 0.93428 0.0
O138 O 0.29205 0.05984 0.87486 0.0
O139 O 0.2937 0.09559 0.85009 0.0
O140 O 0.36823 0.10223 0.88876 0.0
O141 O 0.39129 0.06616 0.89759 0.0
C142 C 0.39677 0.08659 0.88447 0.0
O143 O 0.27156 0.0808 0.94681 0.0
O144 O 0.21792 0.09937 0.97 0.0
C145 C 0.3679 0.10484 0.97089 0.0
C146 C 0.23889 0.0808 0.96709 0.0
Zn147 Zn 0.84547 0.07113 0.58007 0.0
Zn148 Zn 0.71284 0.09754 0.60362 0.0
Zn149 Zn 0.77689 0.08156 0.59738 0.0
C150 C 0.75298 0.11618 0.66514 0.0
C151 C 0.72419 0.06156 0.66149 0.0
O152 O 0.76622 0.04975 0.56047 0.0
O153 O 0.83225 0.04248 0.54844 0.0
C154 C 0.8257 0.1168 0.55017 0.0
O155 O 0.77126 0.09639 0.65932 0.0
O156 O 0.73479 0.12607 0.63473 0.0
O157 O 0.69387 0.06914 0.63837 0.0
O158 O 0.7614 0.06994 0.65696 0.0
O159 O 0.85388 0.10115 0.55035 0.0
O160 O 0.79222 0.11317 0.56826 0.0
O161 O 0.80711 0.07727 0.65832 0.0
O162 O 0.86915 0.06799 0.63641 0.0
C163 C 0.84636 0.07185 0.66528 0.0
O164 O 0.7256 0.06387 0.56183 0.0
O165 O 0.69336 0.09684 0.54525 0.0
C166 C 0.79366 0.03712 0.54379 0.0
C167 C 0.69648 0.07495 0.54087 0.0
H168 H 0.64619 0.40034 0.29803 0.0
H169 H 0.57275 0.39656 0.27077 0.0
H170 H 0.57258 0.32424 0.30683 0.0
H171 H 0.64565 0.32804 0.33433 0.0
H172 H 0.52955 0.36756 0.21467 0.0
H173 H 0.47786 0.35191 0.36803 0.0
H174 H 0.53033 0.36177 0.3592 0.0
H175 H 0.51627 0.33158 0.35178 0.0
C176 C 0.63086 0.38351 0.29899 0.0
C177 C 0.65157 0.36451 0.31817 0.0
C178 C 0.58881 0.38138 0.28379 0.0
C179 C 0.56691 0.36023 0.2876 0.0
C180 C 0.5885 0.34086 0.30445 0.0
H181 H 0.30919 0.35801 0.17237 0.0
H182 H 0.37596 0.34044 0.19859 0.0
C183 C 0.6303 0.34303 0.31991 0.0
C184 C 0.52095 0.35893 0.27618 0.0
H185 H 0.42496 0.35224 0.31523 0.0
C186 C 0.50663 0.36393 0.23647 0.0
C187 C 0.49115 0.3543 0.30486 0.0
C188 C 0.5045 0.34977 0.34843 0.0
C189 C 0.46331 0.36521 0.22488 0.0
C190 C 0.43348 0.36091 0.2537 0.0
C191 C 0.44785 0.35512 0.29309 0.0
C192 C 0.38804 0.3664 0.24521 0.0
C193 C 0.44994 0.37253 0.18246 0.0
C194 C 0.37082 0.38533 0.26523 0.0
C195 C 0.33264 0.39517 0.25066 0.0
C196 C 0.31108 0.38622 0.21584 0.0
C197 C 0.32522 0.36529 0.19922 0.0
C198 C 0.36369 0.35544 0.21382 0.0
H199 H 0.47699 0.37878 0.16598 0.0
H200 H 0.43554 0.35741 0.16582 0.0
H201 H 0.42601 0.38669 0.18245 0.0
H202 H 0.38878 0.39391 0.28981 0.0
H203 H 0.32229 0.41125 0.26409 0.0
H204 H 0.62201 0.60418 0.76744 0.0
H205 H 0.55743 0.59023 0.73128 0.0
H206 H 0.59936 0.51905 0.74807 0.0
H207 H 0.66417 0.53299 0.78415 0.0
H208 H 0.52855 0.55399 0.66712 0.0
H209 H 0.50095 0.53284 0.82634 0.0
H210 H 0.5435 0.55196 0.81459 0.0
H211 H 0.54654 0.52133 0.80375 0.0
C212 C 0.61857 0.58566 0.76126 0.0
C213 C 0.64801 0.56967 0.7783 0.0
C214 C 0.58164 0.57767 0.74078 0.0
C215 C 0.57352 0.55362 0.73769 0.0
C216 C 0.6052 0.53766 0.75024 0.0
H217 H 0.30348 0.55064 0.66457 0.0
H218 H 0.36765 0.52842 0.68506 0.0
C219 C 0.64246 0.54569 0.77041 0.0
C220 C 0.52928 0.54609 0.73002 0.0
H221 H 0.44149 0.53958 0.78246 0.0
C222 C 0.50944 0.54979 0.69183 0.0
C223 C 0.50466 0.5407 0.76257 0.0
C224 C 0.52471 0.53646 0.80424 0.0
C225 C 0.46529 0.55053 0.68613 0.0
C226 C 0.44077 0.54766 0.71964 0.0
C227 C 0.46052 0.54162 0.75693 0.0
C228 C 0.39745 0.55705 0.71847 0.0
C229 C 0.44525 0.55689 0.64531 0.0
C230 C 0.39209 0.57981 0.73294 0.0
C231 C 0.356 0.59248 0.72097 0.0
C232 C 0.32453 0.58235 0.69513 0.0
C233 C 0.3273 0.5586 0.68501 0.0
C234 C 0.36394 0.54598 0.69642 0.0
H235 H 0.46882 0.55827 0.62233 0.0
H236 H 0.42156 0.54348 0.63534 0.0
H237 H 0.42854 0.57388 0.64702 0.0
H238 H 0.41771 0.58861 0.74997 0.0
H239 H 0.35451 0.61085 0.7287 0.0
H240 H 0.08222 0.9574 0.39965 0.0
H241 H 0.01187 0.95863 0.36548 0.0
H242 H 0.0617 0.93068 0.25839 0.0
H243 H 0.13211 0.92838 0.29322 0.0
H244 H 0.9739 0.97842 0.29886 0.0
H245 H 0.975 0.88191 0.28437 0.0
H246 H 0.0153 0.89766 0.31399 0.0
H247 H 0.01724 0.89573 0.26035 0.0
C248 C 0.07837 0.95186 0.36857 0.0
C249 C 0.11272 0.94274 0.3491 0.0
C250 C 0.03811 0.95262 0.34908 0.0
C251 C 0.03132 0.94423 0.30974 0.0
C252 C 0.0661 0.93676 0.28911 0.0
H253 H 0.82361 0.95194 0.13926 0.0
H254 H 0.88096 0.96175 0.18852 0.0
C255 C 0.1065 0.93585 0.30876 0.0
C256 C 0.98751 0.94183 0.29163 0.0
H257 H 0.91735 0.90187 0.25068 0.0
C258 C 0.96144 0.96167 0.28847 0.0
C259 C 0.97072 0.91983 0.27945 0.0
C260 C 0.99582 0.89752 0.28507 0.0
C261 C 0.91968 0.96026 0.27172 0.0
C262 C 0.90392 0.93853 0.25706 0.0
C263 C 0.92941 0.91855 0.26183 0.0
C264 C 0.86339 0.9364 0.23242 0.0
C265 C 0.89289 0.98205 0.26985 0.0
C266 C 0.83356 0.91926 0.241 0.0
C267 C 0.80065 0.91352 0.21255 0.0
C268 C 0.79742 0.92484 0.17524 0.0
C269 C 0.82529 0.94314 0.16804 0.0
C270 C 0.85797 0.94886 0.19632 0.0
H271 H 0.9028 0.9943 0.29458 0.0
H272 H 0.89688 0.99117 0.24107 0.0
H273 H 0.85891 0.97789 0.27165 0.0
H274 H 0.83729 0.90934 0.26862 0.0
H275 H 0.77984 0.89913 0.21847 0.0
H276 H 0.17041 0.16295 0.83717 0.0
H277 H 0.10032 0.15596 0.80425 0.0
H278 H 0.13783 0.08612 0.77378 0.0
H279 H 0.20771 0.09302 0.80662 0.0
H280 H 0.07895 0.10802 0.71577 0.0
H281 H 0.0281 0.11245 0.87181 0.0
H282 H 0.05452 0.13792 0.85461 0.0
H283 H 0.08291 0.11088 0.86088 0.0
C284 C 0.16436 0.14651 0.8217 0.0
C285 C 0.19459 0.1285 0.82455 0.0
C286 C 0.12412 0.14243 0.80343 0.0
C287 C 0.11358 0.12028 0.78785 0.0
C288 C 0.14528 0.10328 0.78605 0.0
H289 H 0.89879 0.04105 0.70432 0.0
H290 H 0.96265 0.05348 0.74352 0.0
C291 C 0.1856 0.10738 0.80425 0.0
C292 C 0.06887 0.11384 0.77801 0.0
H293 H 0.97532 0.10418 0.8205 0.0
C294 C 0.05625 0.10731 0.73858 0.0
C295 C 0.03941 0.11276 0.80803 0.0
C296 C 0.0518 0.11868 0.85131 0.0
C297 C 0.01488 0.09978 0.72827 0.0
C298 C 0.98565 0.09837 0.75837 0.0
C299 C 0.99795 0.10524 0.79767 0.0
C300 C 0.94248 0.08936 0.7488 0.0
C301 C 1.00266 0.09328 0.6852 0.0
C302 C 0.90851 0.10492 0.74251 0.0
C303 C 0.87146 0.09766 0.72083 0.0
C304 C 0.86873 0.07496 0.70483 0.0
C305 C 0.90013 0.05859 0.71658 0.0
C306 C 0.93686 0.06576 0.7385 0.0
H307 H 0.02609 0.09955 0.66447 0.0
H308 H 1.00059 0.07397 0.68254 0.0
H309 H 0.97123 0.10062 0.67546 0.0
H310 H 0.91228 0.12318 0.75051 0.0
H311 H 0.84788 0.11066 0.71177 0.0
H312 H 0.23691 0.34435 0.09948 0.0
H313 H 0.25612 0.30607 0.07365 0.0
H314 H 0.36904 0.33543 0.02964 0.0
H315 H 0.35015 0.37385 0.05541 0.0
H316 H 0.27165 0.29517 0.99064 0.0
H317 H 0.40987 0.27716 0.0979 0.0
H318 H 0.37 0.29847 0.10812 0.0
H319 H 0.40842 0.30499 0.07284 0.0
C320 C 0.26589 0.34271 0.08442 0.0
C321 C 0.29198 0.36219 0.07954 0.0
C322 C 0.2768 0.32081 0.06965 0.0
C323 C 0.31418 0.31789 0.05006 0.0
C324 C 0.34033 0.33726 0.04511 0.0
H325 H 0.34653 0.18715 0.91552 0.0
H326 H 0.35778 0.22841 0.93418 0.0
C327 C 0.32933 0.35922 0.05969 0.0
C328 C 0.32495 0.29463 0.03397 0.0
H329 H 0.39211 0.24831 0.04917 0.0
C330 C 0.29829 0.28501 0.00302 0.0
C331 C 0.35966 0.28146 0.05039 0.0
C332 C 0.38863 0.29086 0.08433 0.0
C333 C 0.30469 0.2623 0.98871 0.0
C334 C 0.33902 0.24892 0.00552 0.0
C335 C 0.36629 0.25875 0.03589 0.0
C336 C 0.34297 0.22371 0.99596 0.0
C337 C 0.27338 0.25234 0.95713 0.0
C338 C 0.33371 0.20725 0.02511 0.0
C339 C 0.32738 0.18387 0.01456 0.0
C340 C 0.33063 0.17644 0.97476 0.0
C341 C 0.34421 0.1924 0.94647 0.0
C342 C 0.35018 0.21598 0.957 0.0
H343 H 0.24532 0.26377 0.95149 0.0
H344 H 0.28883 0.25029 0.92852 0.0
H345 H 0.26253 0.23482 0.96628 0.0
H346 H 0.32815 0.2128 0.05534 0.0
H347 H 0.31694 0.17189 0.03693 0.0
H348 H 0.85191 0.32244 0.46877 0.0
H349 H 0.87156 0.28197 0.48148 0.0
H350 H 0.85427 0.267 0.35469 0.0
H351 H 0.83391 0.30788 0.3419 0.0
H352 H 0.80326 0.24118 0.39812 0.0
H353 H 0.96433 0.23537 0.46976 0.0
H354 H 0.93583 0.2581 0.49306 0.0
H355 H 0.94627 0.26053 0.44082 0.0
C356 C 0.85398 0.31074 0.44343 0.0
C357 C 0.84115 0.31812 0.40445 0.0
C358 C 0.86554 0.28761 0.45067 0.0
C359 C 0.86457 0.27144 0.41904 0.0
C360 C 0.85544 0.27926 0.37949 0.0
H361 H 0.88973 0.12702 0.50286 0.0
H362 H 0.90038 0.16273 0.4653 0.0
C363 C 0.84405 0.30259 0.37218 0.0
C364 C 0.86463 0.24621 0.42876 0.0
H365 H 0.91386 0.20649 0.49193 0.0
C366 C 0.82798 0.23335 0.41777 0.0
C367 C 0.89691 0.2359 0.45412 0.0
C368 C 0.9382 0.24818 0.46472 0.0
C369 C 0.82142 0.21114 0.43383 0.0
C370 C 0.85193 0.20182 0.46225 0.0
C371 C 0.88998 0.2139 0.47087 0.0
C372 C 0.84448 0.17996 0.4843 0.0
C373 C 0.78148 0.19813 0.4208 0.0
C374 C 0.80968 0.17788 0.5079 0.0
C375 C 0.80328 0.15737 0.52938 0.0
C376 C 0.83194 0.13874 0.52799 0.0
C377 C 0.86701 0.14104 0.50467 0.0
C378 C 0.8732 0.16144 0.4831 0.0
H379 H 0.76873 0.20381 0.39054 0.0
H380 H 0.78692 0.17897 0.42019 0.0
H381 H 0.75714 0.20186 0.44224 0.0
H382 H 0.78769 0.19223 0.51007 0.0
H383 H 0.77615 0.15619 0.54723 0.0
H384 H 0.6713 0.81608 0.04594 0.0
H385 H 0.68075 0.77565 0.02298 0.0
H386 H 0.81218 0.77838 0.06493 0.0
H387 H 0.80314 0.81847 0.0873 0.0
H388 H 0.80002 0.76599 0.98495 0.0
H389 H 0.70045 0.71223 0.07947 0.0
H390 H 0.67414 0.73688 0.05568 0.0
H391 H 0.71672 0.74159 0.09306 0.0
C392 C 0.70181 0.80776 0.05128 0.0
C393 C 0.73651 0.82047 0.06814 0.0
C394 C 0.70724 0.7847 0.03811 0.0
C395 C 0.74727 0.77402 0.04215 0.0
C396 C 0.78113 0.78627 0.06129 0.0
H397 H 0.79619 0.62823 0.98337 0.0
H398 H 0.80207 0.66669 0.01617 0.0
C399 C 0.77583 0.80919 0.07414 0.0
C400 C 0.7553 0.75105 0.02332 0.0
H401 H 0.72849 0.69332 0.02371 0.0
C402 C 0.78453 0.75007 0.99359 0.0
C403 C 0.73551 0.73027 0.03493 0.0
C404 C 0.70521 0.73013 0.06777 0.0
C405 C 0.79384 0.72896 0.97458 0.0
C406 C 0.77306 0.70831 0.98526 0.0
C407 C 0.74449 0.70918 0.01559 0.0
C408 C 0.7782 0.68591 0.96365 0.0
C409 C 0.82593 0.72893 0.94329 0.0
C410 C 0.76457 0.6841 0.92287 0.0
C411 C 0.76151 0.66224 0.9042 0.0
C412 C 0.7723 0.64189 0.9259 0.0
C413 C 0.78887 0.64379 0.9658 0.0
C414 C 0.79166 0.66568 0.98464 0.0
H415 H 0.84748 0.7442 0.94681 0.0
H416 H 0.84508 0.71268 0.94487 0.0
H417 H 0.80926 0.7299 0.91303 0.0
H418 H 0.75331 0.69936 0.90627 0.0
H419 H 0.7475 0.66106 0.87374 0.0
H420 H 0.16116 0.68324 0.57692 0.0
H421 H 0.16044 0.72018 0.53961 0.0
H422 H 0.27864 0.73971 0.60195 0.0
H423 H 0.27982 0.7028 0.63864 0.0
H424 H 0.17326 0.77076 0.55722 0.0
H425 H 0.30455 0.72878 0.48177 0.0
H426 H 0.2703 0.71268 0.51272 0.0
H427 H 0.31184 0.73055 0.53553 0.0
C428 C 0.18581 0.69597 0.5841 0.0
C429 C 0.22074 0.6902 0.61029 0.0
C430 C 0.18565 0.71691 0.56245 0.0
C431 C 0.2202 0.73221 0.56724 0.0
C432 C 0.25218 0.72783 0.5973 0.0
H433 H 0.30445 0.85484 0.44745 0.0
H434 H 0.30319 0.81703 0.48196 0.0
C435 C 0.25254 0.70691 0.61859 0.0
C436 C 0.2257 0.75101 0.53777 0.0
H437 H 0.28819 0.76789 0.46359 0.0
C438 C 0.19818 0.77013 0.5366 0.0
C439 C 0.2583 0.74999 0.51088 0.0
C440 C 0.28779 0.72933 0.50988 0.0
C441 C 0.20306 0.78865 0.50986 0.0
C442 C 0.23574 0.78768 0.48302 0.0
C443 C 0.26314 0.76849 0.48407 0.0
C444 C 0.24218 0.80688 0.45449 0.0
C445 C 0.17383 0.80941 0.51128 0.0
C446 C 0.21007 0.81263 0.42528 0.0
C447 C 0.21078 0.83411 0.40572 0.0
C448 C 0.24394 0.84989 0.41466 0.0
C449 C 0.27885 0.84279 0.43975 0.0
C450 C 0.27788 0.82134 0.45978 0.0
H451 H 0.15722 0.80989 0.53949 0.0
H452 H 0.19147 0.82602 0.50863 0.0
H453 H 0.14961 0.80837 0.48575 0.0
H454 H 0.18273 0.80143 0.42016 0.0
H455 H 0.18343 0.83933 0.38661 0.0
H456 H 0.89087 0.59395 0.91738 0.0
H457 H 0.96541 0.58629 0.93706 0.0
H458 H 0.92853 0.53407 0.02075 0.0
H459 H 0.85449 0.54174 0.00134 0.0
H460 H 0.0049 0.55578 0.04503 0.0
H461 H 1.00139 0.52451 0.88654 0.0
H462 H 0.99121 0.55494 0.89512 0.0
H463 H 0.954 0.53336 0.90922 0.0
C464 C 0.89868 0.58178 0.94154 0.0
C465 C 0.86704 0.56816 0.95749 0.0
C466 C 0.94133 0.57716 0.95232 0.0
C467 C 0.95248 0.55903 0.97933 0.0
C468 C 0.92071 0.54796 0.99951 0.0
H469 H 0.08401 0.43856 0.01046 0.0
H470 H 0.04555 0.4722 0.98161 0.0
C471 C 0.87831 0.55247 0.98864 0.0
C472 C 0.99531 0.54846 0.98195 0.0
H473 H 0.05566 0.51069 0.9308 0.0
C474 C 0.01687 0.54647 0.01986 0.0
C475 C 0.01051 0.53613 0.94901 0.0
C476 C 0.98815 0.53713 0.90765 0.0
C477 C 0.05118 0.53112 0.02647 0.0
C478 C 0.06478 0.51773 0.994 0.0
C479 C 0.04527 0.52106 0.95549 0.0
C480 C 0.09351 0.49743 0.00098 0.0
C481 C 0.07012 0.52791 0.06885 0.0
C482 C 0.13451 0.50022 0.01885 0.0
C483 C 0.15645 0.48094 0.03546 0.0
C484 C 0.13811 0.45857 0.0336 0.0
C485 C 0.09918 0.45552 0.01168 0.0
C486 C 0.07711 0.47479 0.99539 0.0
H487 H 0.05189 0.5372 0.09124 0.0
H488 H 0.07153 0.50909 0.0768 0.0
H489 H 0.1028 0.53486 0.07119 0.0
H490 H 0.14799 0.5175 0.02303 0.0
H491 H 0.18542 0.48406 0.05363 0.0
H492 H 0.08248 0.59452 0.52216 0.0
H493 H 0.03416 0.5712 0.47779 0.0
H494 H 0.09909 0.5084 0.51792 0.0
H495 H 0.14766 0.53179 0.56202 0.0
H496 H 0.06561 0.50946 0.43221 0.0
H497 H 0.94974 0.53219 0.54374 0.0
H498 H 0.97563 0.55646 0.52172 0.0
H499 H 0.00586 0.53641 0.55344 0.0
C500 C 0.08764 0.57587 0.51987 0.0
C501 C 0.11893 0.56486 0.54482 0.0
C502 C 0.05981 0.56256 0.49497 0.0
C503 C 0.06269 0.53811 0.49529 0.0
C504 C 0.09638 0.52727 0.51743 0.0
H505 H 0.86933 0.43295 0.4421 0.0
H506 H 0.9212 0.45944 0.47607 0.0
C507 C 0.12428 0.5406 0.54227 0.0
C508 C 0.02764 0.52381 0.47715 0.0
H509 H 0.92458 0.50949 0.48801 0.0
C510 C 0.03476 0.5095 0.44424 0.0
C511 C 0.98773 0.52356 0.49364 0.0
C512 C 0.97914 0.5378 0.53029 0.0
C513 C 1.00257 0.49524 0.42675 0.0
C514 C 0.96224 0.49556 0.44245 0.0
C515 C 0.95541 0.50951 0.47589 0.0
C516 C 0.92681 0.48156 0.4242 0.0
C517 C 0.01214 0.4797 0.39197 0.0
C518 C 0.91127 0.48608 0.38471 0.0
C519 C 0.88161 0.47119 0.36551 0.0
C520 C 0.86671 0.4516 0.38556 0.0
C521 C 0.88 0.44803 0.42609 0.0
C522 C 0.90982 0.46301 0.44536 0.0
H523 H 0.04665 0.47725 0.38995 0.0
H524 H 0.99718 0.46229 0.39463 0.0
H525 H 0.99921 0.48781 0.36357 0.0
H526 H 0.92331 0.50063 0.36824 0.0
H527 H 0.87171 0.47442 0.33431 0.0
H528 H 0.58837 0.95065 0.1274 0.0
H529 H 0.55497 0.98917 0.12016 0.0
H530 H 0.57947 0.99 0.99476 0.0
H531 H 0.61168 0.95102 0.00166 0.0
H532 H 0.60009 0.03468 0.0472 0.0
H533 H 0.4381 0.99763 0.05027 0.0
H534 H 0.47705 0.98794 0.08834 0.0
H535 H 0.48253 0.98028 0.03686 0.0
C536 C 0.58643 0.95902 0.09826 0.0
C537 C 0.60319 0.94813 0.06514 0.0
C538 C 0.56776 0.98106 0.09428 0.0
C539 C 0.56534 0.99249 0.05708 0.0
C540 C 0.5818 0.9816 0.02387 0.0
H541 H 0.44734 0.10997 0.94591 0.0
H542 H 0.50531 0.08644 0.97525 0.0
C543 C 0.60035 0.95947 0.02784 0.0
C544 C 0.54289 0.01504 0.05229 0.0
H545 H 0.44399 0.03818 0.04569 0.0
C546 C 0.56596 0.03561 0.04712 0.0
C547 C 0.49853 0.01607 0.05238 0.0
C548 C 0.47235 0.99435 0.05701 0.0
C549 C 0.54554 0.05735 0.04198 0.0
C550 C 0.50095 0.05833 0.04127 0.0
C551 C 0.4782 0.03764 0.04692 0.0
C552 C 0.47604 0.07975 0.03088 0.0
C553 C 0.57192 0.07896 0.03761 0.0
C554 C 0.44171 0.08554 0.05341 0.0
C555 C 0.40771 0.09817 0.03577 0.0
C556 C 0.40805 0.10547 0.9957 0.0
C557 C 0.44588 0.10394 0.97643 0.0
C558 C 0.47937 0.09056 0.99345 0.0
H559 H 0.60352 0.077 0.05374 0.0
H560 H 0.57685 0.08168 0.00538 0.0
H561 H 0.55633 0.09472 0.04919 0.0
H562 H 0.43871 0.07776 0.08263 0.0
H563 H 0.37901 0.09936 0.05145 0.0
H564 H 0.35048 0.9633 0.47204 0.0
H565 H 0.41268 0.98348 0.50221 0.0
H566 H 0.40049 0.03572 0.40924 0.0
H567 H 0.33795 0.01585 0.37928 0.0
H568 H 0.48192 0.98686 0.45335 0.0
H569 H 0.43714 0.07394 0.51042 0.0
H570 H 0.39993 0.05015 0.50346 0.0
H571 H 0.41439 0.06693 0.46111 0.0
C572 C 0.35984 0.97968 0.45912 0.0
C573 C 0.33944 0.98802 0.42329 0.0
C574 C 0.39559 0.99108 0.47621 0.0
C575 C 0.41114 0.01104 0.45789 0.0
C576 C 0.38866 0.02052 0.42414 0.0
H577 H 0.6469 0.08812 0.4749 0.0
H578 H 0.57818 0.0714 0.45202 0.0
C579 C 0.35301 0.00911 0.40699 0.0
C580 C 0.45412 0.01958 0.46964 0.0
H581 H 0.51013 0.06775 0.50138 0.0
C582 C 0.48814 0.00447 0.46428 0.0
C583 C 0.46197 0.04265 0.48317 0.0
C584 C 0.42645 0.05934 0.49024 0.0
C585 C 0.52998 0.01193 0.47156 0.0
C586 C 0.53788 0.03499 0.4852 0.0
C587 C 0.50387 0.05011 0.49064 0.0
C588 C 0.58118 0.04347 0.49572 0.0
C589 C 0.56537 0.99527 0.46373 0.0
C590 C 0.60567 0.03306 0.52735 0.0
C591 C 0.64477 0.04247 0.54021 0.0
C592 C 0.66018 0.06237 0.52149 0.0
C593 C 0.6361 0.07245 0.48916 0.0
C594 C 0.59685 0.06304 0.47631 0.0
H595 H 0.55447 0.98092 0.44309 0.0
H596 H 0.5919 0.00451 0.45063 0.0
H597 H 0.5775 0.98729 0.49251 0.0
H598 H 0.59367 0.01831 0.54336 0.0
H599 H 0.66186 0.03494 0.56628 0.0
H600 H 0.21764 0.35759 0.21669 0.0
H601 H 0.18122 0.33281 0.26286 0.0
H602 H 0.0865 0.31683 0.16786 0.0
H603 H 0.12337 0.34086 0.1221 0.0
H604 H 0.11126 0.35105 0.27928 0.0
H605 H 0.06978 0.26161 0.23487 0.0
H606 H 0.11413 0.2764 0.21511 0.0
H607 H 0.0617 0.27923 0.19085 0.0
C608 C 0.19093 0.34728 0.20496 0.0
C609 C 0.17291 0.35135 0.16602 0.0
C610 C 0.16969 0.33331 0.23158 0.0
C611 C 0.13046 0.32316 0.21932 0.0
C612 C 0.11674 0.32407 0.17841 0.0
H613 H 0.88888 0.34109 0.24129 0.0
H614 H 0.95689 0.32287 0.23249 0.0
C615 C 0.13802 0.33789 0.15194 0.0
C616 C 0.0987 0.3182 0.24918 0.0
H617 H 0.00993 0.28561 0.25916 0.0
C618 C 0.0901 0.3362 0.27615 0.0
C619 C 0.07093 0.29885 0.24559 0.0
C620 C 0.08005 0.27787 0.22027 0.0
C621 C 0.0521 0.33694 0.29527 0.0
C622 C 0.02199 0.31892 0.28782 0.0
C623 C 0.03272 0.29956 0.2646 0.0
C624 C 0.97693 0.32273 0.29575 0.0
C625 C 0.04267 0.35834 0.31967 0.0
C626 C 0.96408 0.32718 0.33458 0.0
C627 C 0.92483 0.33774 0.33967 0.0
C628 C 0.89811 0.34379 0.30597 0.0
C629 C 0.90901 0.33672 0.26775 0.0
C630 C 0.94792 0.32623 0.2627 0.0
H631 H 0.06797 0.37171 0.31932 0.0
H632 H 0.01252 0.36645 0.308 0.0
H633 H 0.03938 0.35323 0.35133 0.0
H634 H 0.98566 0.32423 0.36061 0.0
H635 H 0.91725 0.34311 0.36945 0.0
H636 H 0.15761 0.67337 0.7171 0.0
H637 H 0.10777 0.68748 0.76446 0.0
H638 H 0.00463 0.67331 0.67694 0.0
H639 H 0.05427 0.66092 0.62928 0.0
H640 H 0.97684 0.69971 0.73448 0.0
H641 H 0.07066 0.62605 0.8051 0.0
H642 H 0.09682 0.65359 0.80147 0.0
H643 H 0.0818 0.63711 0.75669 0.0
C644 C 0.1246 0.67509 0.70696 0.0
C645 C 0.10939 0.66518 0.67028 0.0
C646 C 0.09594 0.68268 0.7344 0.0
C647 C 0.05231 0.67975 0.72529 0.0
C648 C 0.03805 0.67507 0.68533 0.0
H649 H 0.88168 0.58564 0.78112 0.0
H650 H 0.93402 0.61374 0.76173 0.0
C651 C 0.06662 0.66811 0.65776 0.0
C652 C 0.02298 0.67454 0.75709 0.0
H653 H 1.00178 0.63006 0.82087 0.0
C654 C 0.9827 0.68497 0.75444 0.0
C655 C 0.03043 0.6551 0.78313 0.0
C656 C 0.07208 0.64219 0.78681 0.0
C657 C 0.94887 0.67506 0.77364 0.0
C658 C 0.95582 0.65456 0.79657 0.0
C659 C 0.99683 0.64575 0.80297 0.0
C660 C 0.92078 0.63921 0.80715 0.0
C661 C 0.90519 0.68518 0.76637 0.0
C662 C 0.89555 0.64437 0.8389 0.0
C663 C 0.86526 0.62823 0.85009 0.0
C664 C 0.86021 0.60667 0.82986 0.0
C665 C 0.88494 0.60196 0.79753 0.0
C666 C 0.91482 0.61804 0.78633 0.0
H667 H 0.90509 0.70146 0.7483 0.0
H668 H 0.8842 0.67218 0.75039 0.0
H669 H 0.89185 0.68907 0.79551 0.0
H670 H 0.89999 0.66053 0.85557 0.0
H671 H 0.84672 0.63234 0.87519 0.0
H672 H 0.41741 0.89344 0.38375 0.0
H673 H 0.46588 0.8713 0.34469 0.0
H674 H 0.36031 0.8374 0.28063 0.0
H675 H 0.3114 0.85989 0.31968 0.0
H676 H 0.48516 0.82522 0.31821 0.0
H677 H 0.40897 0.88073 0.19687 0.0
H678 H 0.39936 0.88504 0.24892 0.0
H679 H 0.37504 0.86105 0.22137 0.0
C680 C 0.40454 0.88042 0.36272 0.0
C681 C 0.36063 0.87856 0.35447 0.0
C682 C 0.43234 0.86782 0.34023 0.0
C683 C 0.41677 0.85317 0.30893 0.0
C684 C 0.37302 0.84893 0.30419 0.0
H685 H 0.55453 0.83854 0.0939 0.0
H686 H 0.50439 0.82764 0.14318 0.0
C687 C 0.34505 0.86155 0.3269 0.0
C688 C 0.44558 0.84622 0.27756 0.0
H689 H 0.46945 0.86043 0.18248 0.0
C690 C 0.48137 0.83252 0.28823 0.0
C691 C 0.44093 0.85592 0.23851 0.0
C692 C 0.40425 0.87164 0.22559 0.0
C693 C 0.51294 0.82869 0.26122 0.0
C694 C 0.50911 0.83927 0.22281 0.0
C695 C 0.47246 0.85215 0.21172 0.0
C696 C 0.54386 0.83938 0.19478 0.0
C697 C 0.5502 0.81354 0.27434 0.0
C698 C 0.58383 0.84844 0.20728 0.0
C699 C 0.61296 0.85403 0.17909 0.0
C700 C 0.60243 0.85098 0.13789 0.0
C701 C 0.56383 0.84044 0.12557 0.0
C702 C 0.53498 0.83447 0.15375 0.0
H703 H 0.5413 0.80016 0.2963 0.0
H704 H 0.56334 0.80458 0.24845 0.0
H705 H 0.57527 0.8246 0.2894 0.0
H706 H 0.59127 0.85308 0.2384 0.0
H707 H 0.64198 0.86283 0.1892 0.0
H708 H 0.70778 0.15436 0.68661 0.0
H709 H 0.65465 0.15404 0.73585 0.0
H710 H 0.702 0.08771 0.78048 0.0
H711 H 0.75722 0.08885 0.73329 0.0
H712 H 0.59549 0.12198 0.72673 0.0
H713 H 0.666 0.1152 0.8824 0.0
H714 H 0.69642 0.124 0.84126 0.0
H715 H 0.68638 0.09354 0.85006 0.0
C716 C 0.70833 0.14025 0.7082 0.0
C717 C 0.73569 0.12109 0.7047 0.0
C718 C 0.67751 0.13996 0.73619 0.0
C719 C 0.67343 0.1206 0.76143 0.0
C720 C 0.70426 0.10294 0.76159 0.0
H721 H 0.46601 0.05859 0.87882 0.0
H722 H 0.53291 0.06819 0.8508 0.0
C723 C 0.73578 0.1035 0.73414 0.0
C724 C 0.63358 0.11725 0.78209 0.0
H725 H 0.59326 0.10361 0.87156 0.0
C726 C 0.59511 0.11834 0.75857 0.0
C727 C 0.63282 0.11207 0.82349 0.0
C728 C 0.67262 0.11134 0.85082 0.0
C729 C 0.55627 0.11408 0.77494 0.0
C730 C 0.55548 0.10884 0.81624 0.0
C731 C 0.59383 0.10775 0.83992 0.0
C732 C 0.51521 0.10362 0.83486 0.0
C733 C 0.51645 0.11443 0.7475 0.0
C734 C 0.48296 0.12043 0.83567 0.0
C735 C 0.4444 0.11497 0.85158 0.0
C736 C 0.43734 0.09257 0.86707 0.0
C737 C 0.47005 0.07594 0.86679 0.0
C738 C 0.50853 0.08143 0.851 0.0
H739 H 0.52331 0.11338 0.71536 0.0
H740 H 0.49537 0.0997 0.75431 0.0
H741 H 0.49919 0.13098 0.75206 0.0
H742 H 0.48759 0.13779 0.82393 0.0
H743 H 0.42016 0.12828 0.85169 0.0
H744 H 0.22824 0.44841 0.99922 0.0
H745 H 0.23285 0.47111 0.93788 0.0
H746 H 0.31336 0.52119 0.00226 0.0
H747 H 0.30809 0.49883 0.06418 0.0
H748 H 0.24901 0.54166 0.95502 0.0
H749 H 0.33196 0.47628 0.86708 0.0
H750 H 0.28583 0.46435 0.88752 0.0
H751 H 0.32928 0.47416 0.92081 0.0
C752 C 0.2469 0.46426 0.00039 0.0
C753 C 0.26764 0.47189 0.03658 0.0
C754 C 0.24989 0.47707 0.96521 0.0
C755 C 0.27421 0.49754 0.96539 0.0
C756 C 0.29481 0.50529 0.00146 0.0
H757 H 0.26798 0.59397 0.75742 0.0
H758 H 0.29748 0.57522 0.81951 0.0
C759 C 0.29174 0.49251 0.03675 0.0
C760 C 0.276 0.5114 0.9282 0.0
H761 H 0.29368 0.50632 0.82892 0.0
C762 C 0.25973 0.5342 0.92762 0.0
C763 C 0.2904 0.50166 0.89266 0.0
C764 C 0.31077 0.47785 0.89208 0.0
C765 C 0.25448 0.54685 0.89168 0.0
C766 C 0.26612 0.53642 0.85568 0.0
C767 C 0.2848 0.51422 0.85668 0.0
C768 C 0.2528 0.54663 0.81629 0.0
C769 C 0.23389 0.57061 0.89186 0.0
C770 C 0.21887 0.53636 0.79374 0.0
C771 C 0.20224 0.54691 0.75862 0.0
C772 C 0.21953 0.5678 0.74516 0.0
C773 C 0.25463 0.57765 0.76688 0.0
C774 C 0.2712 0.5671 0.80238 0.0
H775 H 0.22433 0.57562 0.92209 0.0
H776 H 0.25621 0.58396 0.88186 0.0
H777 H 0.20552 0.57087 0.87047 0.0
H778 H 0.20427 0.52058 0.8041 0.0
H779 H 0.17526 0.53892 0.74233 0.0
H780 H 0.79069 0.4581 0.43219 0.0
H781 H 0.79052 0.48746 0.48659 0.0
H782 H 0.74688 0.43504 0.56644 0.0
H783 H 0.74799 0.40597 0.51364 0.0
H784 H 0.6985 0.48227 0.55639 0.0
H785 H 0.87122 0.48567 0.59931 0.0
H786 H 0.85154 0.48616 0.54726 0.0
H787 H 0.84831 0.45981 0.57571 0.0
C788 C 0.7819 0.45284 0.46158 0.0
C789 C 0.76963 0.42967 0.46858 0.0
C790 C 0.78142 0.46963 0.49245 0.0
C791 C 0.76841 0.46336 0.53041 0.0
C792 C 0.75672 0.44026 0.53733 0.0
H793 H 0.77129 0.4879 0.7754 0.0
H794 H 0.77311 0.47596 0.70534 0.0
C795 C 0.75739 0.42365 0.50695 0.0
C796 C 0.76626 0.4803 0.56383 0.0
H797 H 0.82532 0.50011 0.6462 0.0
C798 C 0.72627 0.48689 0.5755 0.0
C799 C 0.80252 0.48596 0.5888 0.0
C800 C 0.846 0.47914 0.57742 0.0
C801 C 0.72143 0.49778 0.61269 0.0
C802 C 0.75752 0.5021 0.63879 0.0
C803 C 0.7977 0.49674 0.62609 0.0
C804 C 0.75396 0.5096 0.68099 0.0
C805 C 0.67767 0.50314 0.62512 0.0
C806 C 0.74173 0.53239 0.69054 0.0
C807 C 0.74061 0.53933 0.73077 0.0
C808 C 0.75161 0.52354 0.76208 0.0
C809 C 0.76253 0.50052 0.75217 0.0
C810 C 0.76383 0.49368 0.7121 0.0
H811 H 0.65267 0.49706 0.60259 0.0
H812 H 0.67272 0.49474 0.65438 0.0
H813 H 0.6742 0.52228 0.62911 0.0
H814 H 0.73411 0.54497 0.66695 0.0
H815 H 0.73248 0.55725 0.73728 0.0
H816 H 0.68816 0.43893 0.27469 0.0
H817 H 0.65621 0.46106 0.21774 0.0
H818 H 0.69391 0.40725 0.13697 0.0
H819 H 0.7252 0.38515 0.1938 0.0
H820 H 0.71565 0.4755 0.16899 0.0
H821 H 0.58794 0.43177 0.07621 0.0
H822 H 0.60065 0.42428 0.12821 0.0
H823 H 0.63105 0.41237 0.08945 0.0
C824 C 0.68687 0.43111 0.24505 0.0
C825 C 0.70874 0.4103 0.2385 0.0
C826 C 0.66904 0.44387 0.21243 0.0
C827 C 0.67286 0.4359 0.17299 0.0
C828 C 0.68986 0.41363 0.16701 0.0
H829 H 0.75602 0.5122 0.97216 0.0
H830 H 0.7455 0.48509 0.0274 0.0
C831 C 0.70767 0.40092 0.19959 0.0
C832 C 0.66954 0.45266 0.13902 0.0
H833 H 0.63041 0.45954 0.04184 0.0
C834 C 0.69632 0.47221 0.1415 0.0
C835 C 0.64465 0.44832 0.10301 0.0
C836 C 0.61415 0.42815 0.09915 0.0
C837 C 0.70014 0.48699 0.10856 0.0
C838 C 0.67696 0.48197 0.07196 0.0
C839 C 0.64873 0.46306 0.06981 0.0
C840 C 0.68173 0.49648 0.03591 0.0
C841 C 0.72941 0.50775 0.113 0.0
C842 C 0.649 0.51138 0.02191 0.0
C843 C 0.65495 0.52692 0.9906 0.0
C844 C 0.6937 0.52772 0.97247 0.0
C845 C 0.72587 0.51205 0.98549 0.0
C846 C 0.71994 0.4966 0.01705 0.0
H847 H 0.73814 0.51193 0.145 0.0
H848 H 0.75881 0.50383 0.09812 0.0
H849 H 0.71463 0.52341 0.09833 0.0
H850 H 0.61932 0.51153 0.0361 0.0
H851 H 0.62939 0.53863 0.98112 0.0
H852 H 0.12677 0.47364 0.23428 0.0
H853 H 0.13409 0.5011 0.29024 0.0
H854 H 0.26931 0.4921 0.29639 0.0
H855 H 0.26238 0.46502 0.23951 0.0
H856 H 0.16591 0.49394 0.36591 0.0
H857 H 0.25852 0.56244 0.29428 0.0
H858 H 0.23271 0.53896 0.26606 0.0
H859 H 0.2827 0.53412 0.29353 0.0
C860 C 0.15813 0.47756 0.2474 0.0
C861 C 0.19406 0.46727 0.23239 0.0
C862 C 0.16222 0.49327 0.27935 0.0
C863 C 0.20225 0.49893 0.29697 0.0
C864 C 0.23819 0.48843 0.28249 0.0
H865 H 0.29565 0.57617 0.50472 0.0
H866 H 0.28551 0.5528 0.44337 0.0
C867 C 0.23417 0.47286 0.2502 0.0
C868 C 0.20605 0.51521 0.33142 0.0
H869 H 0.25263 0.56598 0.36481 0.0
C870 C 0.1846 0.50979 0.36558 0.0
C871 C 0.23026 0.53593 0.33072 0.0
C872 C 0.25202 0.54336 0.29403 0.0
C873 C 0.18762 0.52423 0.39957 0.0
C874 C 0.21253 0.54465 0.39913 0.0
C875 C 0.23363 0.55024 0.36489 0.0
C876 C 0.21856 0.5599 0.43466 0.0
C877 C 0.16502 0.51727 0.43603 0.0
C878 C 0.18443 0.57208 0.44924 0.0
C879 C 0.19023 0.58547 0.48416 0.0
C880 C 0.23008 0.58673 0.5049 0.0
C881 C 0.26453 0.57534 0.4893 0.0
C882 C 0.25878 0.56198 0.45441 0.0
H883 H 0.15342 0.49897 0.43409 0.0
H884 H 0.18609 0.51925 0.46378 0.0
H885 H 0.13744 0.52892 0.43869 0.0
H886 H 0.15336 0.57113 0.43375 0.0
H887 H 0.16374 0.59496 0.49484 0.0
H888 H 0.68542 0.96084 0.00678 0.0
H889 H 0.67235 0.98662 0.94861 0.0
H890 H 0.72861 0.93544 0.87363 0.0
H891 H 0.73948 0.90926 0.93125 0.0
H892 H 0.72935 0.00609 0.90425 0.0
H893 H 0.62327 0.95154 0.80503 0.0
H894 H 0.63414 0.9451 0.85763 0.0
H895 H 0.67028 0.93593 0.82139 0.0
C896 C 0.69333 0.9548 0.9775 0.0
C897 C 0.71191 0.93278 0.97309 0.0
C898 C 0.68647 0.96963 0.94444 0.0
C899 C 0.69848 0.96273 0.90647 0.0
C900 C 0.71774 0.94084 0.90226 0.0
H901 H 0.78298 0.04102 0.71298 0.0
H902 H 0.77145 0.01897 0.7736 0.0
C903 C 0.72435 0.926 0.93525 0.0
C904 C 0.69416 0.97902 0.87188 0.0
H905 H 0.66088 0.98209 0.77256 0.0
C906 C 0.71378 0.00097 0.87565 0.0
C907 C 0.67311 0.97261 0.83473 0.0
C908 C 0.64861 0.95011 0.82956 0.0
C909 C 0.71508 0.01604 0.84267 0.0
C910 C 0.69713 0.00875 0.80477 0.0
C911 C 0.67527 0.98747 0.80152 0.0
C912 C 0.70339 0.02219 0.76778 0.0
C913 C 0.7362 0.03953 0.84858 0.0
C914 C 0.66883 0.03071 0.74364 0.0
C915 C 0.67532 0.04325 0.70861 0.0
C916 C 0.71649 0.04733 0.69717 0.0
C917 C 0.75089 0.03834 0.72107 0.0
C918 C 0.74438 0.02586 0.75592 0.0
H919 H 0.73602 0.04548 0.88026 0.0
H920 H 0.7696 0.03811 0.84102 0.0
H921 H 0.72043 0.05297 0.82886 0.0
H922 H 0.63692 0.02789 0.75215 0.0
H923 H 0.64819 0.04999 0.69086 0.0
H924 H 0.27091 0.02818 0.82429 0.0
H925 H 0.26878 0.01076 0.75743 0.0
H926 H 0.28556 0.07868 0.70541 0.0
H927 H 0.28785 0.09643 0.7725 0.0
H928 H 0.22242 0.04763 0.66289 0.0
H929 H 0.37873 0.00583 0.69518 0.0
H930 H 0.34169 0.00071 0.73255 0.0
H931 H 0.36036 0.02985 0.72454 0.0
C932 C 0.27363 0.03954 0.79869 0.0
C933 C 0.27987 0.06372 0.80387 0.0
C934 C 0.27263 0.0295 0.76047 0.0
C935 C 0.27787 0.04337 0.72661 0.0
C936 C 0.28183 0.06766 0.73126 0.0
H937 H 0.26865 0.99184 0.47573 0.0
H938 H 0.28056 0.01853 0.53318 0.0
C939 C 0.28301 0.07776 0.76961 0.0
C940 C 0.28057 0.03218 0.68674 0.0
H941 H 0.33789 0.99226 0.63721 0.0
C942 C 0.24794 0.0358 0.6569 0.0
C943 C 0.31409 0.01689 0.67904 0.0
C944 C 0.35096 0.01319 0.70934 0.0
C945 C 0.24669 0.02343 0.62037 0.0
C946 C 0.27937 0.00737 0.61336 0.0
C947 C 0.31289 0.00456 0.64259 0.0
C948 C 0.27699 0.99148 0.57805 0.0
C949 C 0.20931 0.02669 0.59049 0.0
C950 C 0.27297 0.96737 0.58419 0.0
C951 C 0.2668 0.95218 0.5516 0.0
C952 C 0.26493 0.96071 0.51209 0.0
C953 C 0.27079 0.98473 0.50582 0.0
C954 C 0.27694 2e-05 0.5386 0.0
H955 H 0.18346 0.03671 0.60336 0.0
H956 H 0.21945 0.03638 0.56406 0.0
H957 H 0.19671 0.00951 0.57985 0.0
H958 H 0.27306 0.96038 0.61432 0.0
H959 H 0.26226 0.93376 0.55734 0.0
H960 H 0.17503 0.97389 0.28559 0.0
H961 H 0.1549 0.99402 0.22235 0.0
H962 H 0.21593 0.94009 0.15695 0.0
H963 H 0.23584 0.92005 0.21975 0.0
H964 H 0.22423 0.00895 0.18305 0.0
H965 H 0.11695 0.95821 0.07797 0.0
H966 H 0.12005 0.9536 0.13165 0.0
H967 H 0.15899 0.941 0.10144 0.0
C968 C 0.18209 0.96575 0.25751 0.0
C969 C 0.2071 0.94554 0.25737 0.0
C970 C 0.1708 0.9773 0.22143 0.0
C971 C 0.18397 0.96856 0.18493 0.0
C972 C 0.20482 0.94698 0.18456 0.0
H973 H 0.28881 0.04387 0.9925 0.0
H974 H 0.27197 0.01424 0.04207 0.0
C975 C 0.21634 0.93557 0.22052 0.0
C976 C 0.18503 0.98403 0.1495 0.0
H977 H 0.16056 0.98707 0.04834 0.0
C978 C 0.20969 0.00434 0.15375 0.0
C979 C 0.16651 0.97784 0.11122 0.0
C980 C 0.13881 0.95657 0.10526 0.0
C981 C 0.21737 0.01826 0.12062 0.0
C982 C 0.20016 0.01164 0.08216 0.0
C983 C 0.17431 0.99179 0.07788 0.0
C984 C 0.20772 0.02602 0.04669 0.0
C985 C 0.24425 0.03988 0.12683 0.0
C986 C 0.17667 0.04177 0.03209 0.0
C987 C 0.18626 0.05875 0.00422 0.0
C988 C 0.22702 0.06014 0.99027 0.0
C989 C 0.25717 0.0432 0.00267 0.0
C990 C 0.24761 0.02631 0.03094 0.0
H991 H 0.25036 0.04429 0.15912 0.0
H992 H 0.27505 0.03702 0.11375 0.0
H993 H 0.22873 0.05505 0.11122 0.0
H994 H 0.14578 0.04181 0.04401 0.0
H995 H 0.16225 0.07145 0.99492 0.0
H996 H 0.71434 0.01996 0.52275 0.0
H997 H 0.69376 0.99428 0.46597 0.0
H998 H 0.82478 0.98621 0.44219 0.0
H999 H 0.84519 0.01169 0.49839 0.0
H1000 H 0.70969 0.00475 0.38813 0.0
H1001 H 0.7823 0.91964 0.4309 0.0
H1002 H 0.77491 0.94258 0.46696 0.0
H1003 H 0.81917 0.94337 0.43609 0.0
C1004 C 0.73859 0.01252 0.50571 0.0
C1005 C 0.78111 0.01833 0.51472 0.0
C1006 C 0.72693 0.99775 0.47339 0.0
C1007 C 0.75781 0.98823 0.44996 0.0
C1008 C 0.80045 0.99298 0.46024 0.0
H1009 H 0.72215 0.95053 0.19732 0.0
H1010 H 0.74881 0.9674 0.26196 0.0
C1011 C 0.81201 0.00773 0.49238 0.0
C1012 C 0.74563 0.97548 0.41231 0.0
H1013 H 0.76233 0.92504 0.36092 0.0
C1014 C 0.72087 0.98724 0.38231 0.0
C1015 C 0.76024 0.95263 0.40482 0.0
C1016 C 0.78529 0.93872 0.43655 0.0
C1017 C 0.71095 0.97696 0.34471 0.0
C1018 C 0.72689 0.95447 0.33669 0.0
C1019 C 0.75089 0.94247 0.36694 0.0
C1020 C 0.71644 0.94259 0.2979 0.0
C1021 C 0.68298 0.99011 0.31408 0.0
C1022 C 0.69123 0.92248 0.29692 0.0
C1023 C 0.67663 0.91273 0.26028 0.0
C1024 C 0.68743 0.92277 0.22406 0.0
C1025 C 0.71419 0.94227 0.22496 0.0
C1026 C 0.72891 0.95203 0.26174 0.0
H1027 H 0.666 0.00471 0.32792 0.0
H1028 H 0.70267 0.99759 0.29109 0.0
H1029 H 0.65937 0.97827 0.29867 0.0
H1030 H 0.6813 0.91495 0.32448 0.0
H1031 H 0.65568 0.89778 0.26015 0.0
loop_
_geom_bond_atom_site_label_1
_geom_bond_atom_site_label_2
_geom_bond_distance
_geom_bond_site_symmetry_2
_ccdc_geom_bond_type
Zn0 O6 1.920 . S
Zn0 O12 1.898 . S
Zn0 O15 1.905 . S
Zn1 O9 1.905 . S
Zn1 O10 1.898 . S
Zn1 O18 1.920 . S
Zn2 O5 2.080 . S
Zn2 O8 2.114 . S
Zn2 O11 2.120 . S
Zn2 O13 2.120 . S
Zn2 O14 2.114 . S
Zn2 O17 2.080 . S
C3 O8 1.166 . S
C3 O9 1.182 . S
C4 O10 1.167 . S
C4 O11 1.299 . S
O5 Zn2 2.080 . S
O5 C19 1.305 . S
O6 Zn0 1.920 . S
O6 C19 1.234 . S
C7 O12 1.167 . S
C7 O13 1.299 . S
O8 Zn2 2.114 . S
O8 C3 1.166 . S
O9 Zn1 1.905 . S
O9 C3 1.182 . S
O10 Zn1 1.898 . S
O10 C4 1.167 . S
O11 Zn2 2.120 . S
O11 C4 1.299 . S
O12 Zn0 1.898 . S
O12 C7 1.167 . S
O13 Zn2 2.120 . S
O13 C7 1.299 . S
O14 Zn2 2.114 . S
O14 C16 1.166 . S
O15 Zn0 1.905 . S
O15 C16 1.182 . S
C16 O14 1.166 . S
C16 O15 1.182 . S
O17 Zn2 2.080 . S
O17 C20 1.305 . S
O18 Zn1 1.920 . S
O18 C20 1.234 . S
C19 O5 1.305 . S
C19 O6 1.234 . S
C20 O17 1.305 . S
C20 O18 1.234 . S
Zn21 O27 1.920 . S
Zn21 O33 1.898 . S
Zn21 O36 1.905 . S
Zn22 O30 1.905 . S
Zn22 O31 1.898 . S
Zn22 O39 1.920 . S
Zn23 O26 2.080 . S
Zn23 O29 2.114 . S
Zn23 O32 2.120 . S
Zn23 O34 2.120 . S
Zn23 O35 2.114 . S
Zn23 O38 2.080 . S
C24 O29 1.166 . S
C24 O30 1.182 . S
C25 O31 1.167 . S
C25 O32 1.299 . S
O26 Zn23 2.080 . S
O26 C40 1.305 . S
O27 Zn21 1.920 . S
O27 C40 1.234 . S
C28 O33 1.167 . S
C28 O34 1.299 . S
O29 Zn23 2.114 . S
O29 C24 1.166 . S
O30 Zn22 1.905 . S
O30 C24 1.182 . S
O31 Zn22 1.898 . S
O31 C25 1.167 . S
O32 Zn23 2.120 . S
O32 C25 1.299 . S
O33 Zn21 1.898 . S
O33 C28 1.167 . S
O34 Zn23 2.120 . S
O34 C28 1.299 . S
O35 Zn23 2.114 . S
O35 C37 1.166 . S
O36 Zn21 1.905 . S
O36 C37 1.182 . S
C37 O35 1.166 . S
C37 O36 1.182 . S
O38 Zn23 2.080 . S
O38 C41 1.305 . S
O39 Zn22 1.920 . S
O39 C41 1.234 . S
C40 O26 1.305 . S
C40 O27 1.234 . S
C41 O38 1.305 . S
C41 O39 1.234 . S
Zn42 O48 1.920 . S
Zn42 O54 1.898 . S
Zn42 O57 1.905 . S
Zn43 O51 1.905 . S
Zn43 O52 1.898 . S
Zn43 O60 1.920 . S
Zn44 O47 2.080 . S
Zn44 O50 2.114 . S
Zn44 O53 2.120 . S
Zn44 O55 2.120 . S
Zn44 O56 2.114 . S
Zn44 O59 2.080 . S
C45 O50 1.166 . S
C45 O51 1.182 . S
C46 O52 1.167 . S
C46 O53 1.299 . S
O47 Zn44 2.080 . S
O47 C61 1.305 . S
O48 Zn42 1.920 . S
O48 C61 1.234 . S
C49 O54 1.167 . S
C49 O55 1.299 . S
O50 Zn44 2.114 . S
O50 C45 1.166 . S
O51 Zn43 1.905 . S
O51 C45 1.182 . S
O52 Zn43 1.898 . S
O52 C46 1.167 . S
O53 Zn44 2.120 . S
O53 C46 1.299 . S
O54 Zn42 1.898 . S
O54 C49 1.167 . S
O55 Zn44 2.120 . S
O55 C49 1.299 . S
O56 Zn44 2.114 . S
O56 C58 1.166 . S
O57 Zn42 1.905 . S
O57 C58 1.182 . S
C58 O56 1.166 . S
C58 O57 1.182 . S
O59 Zn44 2.080 . S
O59 C62 1.305 . S
O60 Zn43 1.920 . S
O60 C62 1.234 . S
C61 O47 1.305 . S
C61 O48 1.234 . S
C62 O59 1.305 . S
C62 O60 1.234 . S
Zn63 O69 1.920 . S
Zn63 O75 1.898 . S
Zn63 O78 1.905 . S
Zn64 O72 1.905 . S
Zn64 O73 1.898 . S
Zn64 O81 1.920 . S
Zn65 O68 2.080 . S
Zn65 O71 2.114 . S
Zn65 O74 2.120 . S
Zn65 O76 2.120 . S
Zn65 O77 2.114 . S
Zn65 O80 2.080 . S
C66 O71 1.166 . S
C66 O72 1.182 . S
C67 O73 1.167 . S
C67 O74 1.299 . S
O68 Zn65 2.080 . S
O68 C82 1.305 . S
O69 Zn63 1.920 . S
O69 C82 1.234 . S
C70 O75 1.167 . S
C70 O76 1.299 . S
O71 Zn65 2.114 . S
O71 C66 1.166 . S
O72 Zn64 1.905 . S
O72 C66 1.182 . S
O73 Zn64 1.898 . S
O73 C67 1.167 . S
O74 Zn65 2.120 . S
O74 C67 1.299 . S
O75 Zn63 1.898 . S
O75 C70 1.167 . S
O76 Zn65 2.120 . S
O76 C70 1.299 . S
O77 Zn65 2.114 . S
O77 C79 1.166 . S
O78 Zn63 1.905 . S
O78 C79 1.182 . S
C79 O77 1.166 . S
C79 O78 1.182 . S
O80 Zn65 2.080 . S
O80 C83 1.305 . S
O81 Zn64 1.920 . S
O81 C83 1.234 . S
C82 O68 1.305 . S
C82 O69 1.234 . S
C83 O80 1.305 . S
C83 O81 1.234 . S
Zn84 O90 1.920 . S
Zn84 O96 1.898 . S
Zn84 O99 1.905 . S
Zn85 O93 1.905 . S
Zn85 O94 1.898 . S
Zn85 O102 1.920 . S
Zn86 O89 2.080 . S
Zn86 O92 2.114 . S
Zn86 O95 2.120 . S
Zn86 O97 2.120 . S
Zn86 O98 2.114 . S
Zn86 O101 2.080 . S
C87 O92 1.166 . S
C87 O93 1.182 . S
C88 O94 1.167 . S
C88 O95 1.299 . S
O89 Zn86 2.080 . S
O89 C103 1.305 . S
O90 Zn84 1.920 . S
O90 C103 1.234 . S
C91 O96 1.167 . S
C91 O97 1.299 . S
O92 Zn86 2.114 . S
O92 C87 1.166 . S
O93 Zn85 1.905 . S
O93 C87 1.182 . S
O94 Zn85 1.898 . S
O94 C88 1.167 . S
O95 Zn86 2.120 . S
O95 C88 1.299 . S
O96 Zn84 1.898 . S
O96 C91 1.167 . S
O97 Zn86 2.120 . S
O97 C91 1.299 . S
O98 Zn86 2.114 . S
O98 C100 1.166 . S
O99 Zn84 1.905 . S
O99 C100 1.182 . S
C100 O98 1.166 . S
C100 O99 1.182 . S
O101 Zn86 2.080 . S
O101 C104 1.305 . S
O102 Zn85 1.920 . S
O102 C104 1.234 . S
C103 O89 1.305 . S
C103 O90 1.234 . S
C104 O101 1.305 . S
C104 O102 1.234 . S
Zn105 O111 1.920 . S
Zn105 O117 1.898 . S
Zn105 O120 1.905 . S
Zn106 O114 1.905 . S
Zn106 O115 1.898 . S
Zn106 O123 1.920 . S
Zn107 O110 2.080 . S
Zn107 O113 2.114 . S
Zn107 O116 2.120 . S
Zn107 O118 2.120 . S
Zn107 O119 2.114 . S
Zn107 O122 2.080 . S
C108 O113 1.166 . S
C108 O114 1.182 . S
C109 O115 1.167 . S
C109 O116 1.299 . S
O110 Zn107 2.080 . S
O110 C124 1.305 . S
O111 Zn105 1.920 . S
O111 C124 1.234 . S
C112 O117 1.167 . S
C112 O118 1.299 . S
O113 Zn107 2.114 . S
O113 C108 1.166 . S
O114 Zn106 1.905 . S
O114 C108 1.182 . S
O115 Zn106 1.898 . S
O115 C109 1.167 . S
O116 Zn107 2.120 . S
O116 C109 1.299 . S
O117 Zn105 1.898 . S
O117 C112 1.167 . S
O118 Zn107 2.120 . S
O118 C112 1.299 . S
O119 Zn107 2.114 . S
O119 C121 1.166 . S
O120 Zn105 1.905 . S
O120 C121 1.182 . S
C121 O119 1.166 . S
C121 O120 1.182 . S
O122 Zn107 2.080 . S
O122 C125 1.305 . S
O123 Zn106 1.920 . S
O123 C125 1.234 . S
C124 O110 1.305 . S
C124 O111 1.234 . S
C125 O122 1.305 . S
C125 O123 1.234 . S
Zn126 O132 1.920 . S
Zn126 O138 1.898 . S
Zn126 O141 1.905 . S
Zn127 O135 1.905 . S
Zn127 O136 1.898 . S
Zn127 O144 1.920 . S
Zn128 O131 2.080 . S
Zn128 O134 2.114 . S
Zn128 O137 2.120 . S
Zn128 O139 2.120 . S
Zn128 O140 2.114 . S
Zn128 O143 2.080 . S
C129 O134 1.166 . S
C129 O135 1.182 . S
C130 O136 1.167 . S
C130 O137 1.299 . S
O131 Zn128 2.080 . S
O131 C145 1.305 . S
O132 Zn126 1.920 . S
O132 C145 1.234 . S
C133 O138 1.167 . S
C133 O139 1.299 . S
O134 Zn128 2.114 . S
O134 C129 1.166 . S
O135 Zn127 1.905 . S
O135 C129 1.182 . S
O136 Zn127 1.898 . S
O136 C130 1.167 . S
O137 Zn128 2.120 . S
O137 C130 1.299 . S
O138 Zn126 1.898 . S
O138 C133 1.167 . S
O139 Zn128 2.120 . S
O139 C133 1.299 . S
O140 Zn128 2.114 . S
O140 C142 1.166 . S
O141 Zn126 1.905 . S
O141 C142 1.182 . S
C142 O140 1.166 . S
C142 O141 1.182 . S
O143 Zn128 2.080 . S
O143 C146 1.305 . S
O144 Zn127 1.920 . S
O144 C146 1.234 . S
C145 O131 1.305 . S
C145 O132 1.234 . S
C146 O143 1.305 . S
C146 O144 1.234 . S
Zn147 O153 1.920 . S
Zn147 O159 1.898 . S
Zn147 O162 1.905 . S
Zn148 O156 1.905 . S
Zn148 O157 1.898 . S
Zn148 O165 1.920 . S
Zn149 O152 2.080 . S
Zn149 O155 2.114 . S
Zn149 O158 2.120 . S
Zn149 O160 2.120 . S
Zn149 O161 2.114 . S
Zn149 O164 2.080 . S
C150 O155 1.166 . S
C150 O156 1.182 . S
C151 O157 1.167 . S
C151 O158 1.299 . S
O152 Zn149 2.080 . S
O152 C166 1.305 . S
O153 Zn147 1.920 . S
O153 C166 1.234 . S
C154 O159 1.167 . S
C154 O160 1.299 . S
O155 Zn149 2.114 . S
O155 C150 1.166 . S
O156 Zn148 1.905 . S
O156 C150 1.182 . S
O157 Zn148 1.898 . S
O157 C151 1.167 . S
O158 Zn149 2.120 . S
O158 C151 1.299 . S
O159 Zn147 1.898 . S
O159 C154 1.167 . S
O160 Zn149 2.120 . S
O160 C154 1.299 . S
O161 Zn149 2.114 . S
O161 C163 1.166 . S
O162 Zn147 1.905 . S
O162 C163 1.182 . S
C163 O161 1.166 . S
C163 O162 1.182 . S
O164 Zn149 2.080 . S
O164 C167 1.305 . S
O165 Zn148 1.920 . S
O165 C167 1.234 . S
C166 O152 1.305 . S
C166 O153 1.234 . S
C167 O164 1.305 . S
C167 O165 1.234 . S
H168 C176 0.929 . S
H169 C178 0.930 . S
H170 C180 0.930 . S
H171 C183 0.929 . S
H172 C186 0.930 . S
H173 C188 0.960 . S
H174 C188 0.960 . S
H175 C188 0.960 . S
C176 H168 0.929 . S
C176 C177 1.377 . S
C176 C178 1.384 . S
C177 C176 1.377 . S
C177 C183 1.390 . S
C178 H169 0.930 . S
C178 C176 1.384 . S
C178 C179 1.372 . S
C179 C178 1.372 . S
C179 C180 1.400 . S
C179 C184 1.490 . S
C180 H170 0.930 . S
C180 C179 1.400 . S
C180 C183 1.386 . S
H181 C197 0.930 . S
H182 C198 0.931 . S
C183 H171 0.929 . S
C183 C177 1.390 . S
C183 C180 1.386 . S
C184 C179 1.490 . S
C184 C186 1.395 . S
C184 C187 1.403 . S
H185 C191 0.930 . S
C186 H172 0.930 . S
C186 C184 1.395 . S
C186 C189 1.403 . S
C187 C184 1.403 . S
C187 C188 1.524 . S
C187 C191 1.400 . S
C188 H173 0.960 . S
C188 H174 0.960 . S
C188 H175 0.960 . S
C188 C187 1.524 . S
C189 C186 1.403 . S
C189 C190 1.392 . S
C189 C193 1.495 . S
C190 C189 1.392 . S
C190 C191 1.385 . S
C190 C192 1.478 . S
C191 H185 0.930 . S
C191 C187 1.400 . S
C191 C190 1.385 . S
C192 C190 1.478 . S
C192 C194 1.381 . S
C192 C198 1.383 . S
C193 C189 1.495 . S
C193 H199 0.959 . S
C193 H200 0.961 . S
C193 H201 0.960 . S
C194 C192 1.381 . S
C194 C195 1.394 . S
C194 H202 0.930 . S
C195 C194 1.394 . S
C195 C196 1.383 . S
C195 H203 0.929 . S
C196 C195 1.383 . S
C196 C197 1.377 . S
C197 H181 0.930 . S
C197 C196 1.377 . S
C197 C198 1.379 . S
C198 H182 0.931 . S
C198 C192 1.383 . S
C198 C197 1.379 . S
H199 C193 0.959 . S
H200 C193 0.961 . S
H201 C193 0.960 . S
H202 C194 0.930 . S
H203 C195 0.929 . S
H204 C212 0.929 . S
H205 C214 0.930 . S
H206 C216 0.930 . S
H207 C219 0.929 . S
H208 C222 0.930 . S
H209 C224 0.960 . S
H210 C224 0.960 . S
H211 C224 0.960 . S
C212 H204 0.929 . S
C212 C213 1.377 . S
C212 C214 1.384 . S
C213 C212 1.377 . S
C213 C219 1.390 . S
C214 H205 0.930 . S
C214 C212 1.384 . S
C214 C215 1.372 . S
C215 C214 1.372 . S
C215 C216 1.400 . S
C215 C220 1.490 . S
C216 H206 0.930 . S
C216 C215 1.400 . S
C216 C219 1.386 . S
H217 C233 0.930 . S
H218 C234 0.931 . S
C219 H207 0.929 . S
C219 C213 1.390 . S
C219 C216 1.386 . S
C220 C215 1.490 . S
C220 C222 1.395 . S
C220 C223 1.403 . S
H221 C227 0.930 . S
C222 H208 0.930 . S
C222 C220 1.395 . S
C222 C225 1.403 . S
C223 C220 1.403 . S
C223 C224 1.524 . S
C223 C227 1.400 . S
C224 H209 0.960 . S
C224 H210 0.960 . S
C224 H211 0.960 . S
C224 C223 1.524 . S
C225 C222 1.403 . S
C225 C226 1.392 . S
C225 C229 1.495 . S
C226 C225 1.392 . S
C226 C227 1.385 . S
C226 C228 1.478 . S
C227 H221 0.930 . S
C227 C223 1.400 . S
C227 C226 1.385 . S
C228 C226 1.478 . S
C228 C230 1.381 . S
C228 C234 1.383 . S
C229 C225 1.495 . S
C229 H235 0.959 . S
C229 H236 0.961 . S
C229 H237 0.960 . S
C230 C228 1.381 . S
C230 C231 1.394 . S
C230 H238 0.930 . S
C231 C230 1.394 . S
C231 C232 1.383 . S
C231 H239 0.929 . S
C232 C231 1.383 . S
C232 C233 1.377 . S
C233 H217 0.930 . S
C233 C232 1.377 . S
C233 C234 1.379 . S
C234 H218 0.931 . S
C234 C228 1.383 . S
C234 C233 1.379 . S
H235 C229 0.959 . S
H236 C229 0.961 . S
H237 C229 0.960 . S
H238 C230 0.930 . S
H239 C231 0.929 . S
H240 C248 0.929 . S
H241 C250 0.930 . S
H242 C252 0.930 . S
H243 C255 0.929 . S
H244 C258 0.930 . S
H245 C260 0.960 . S
H246 C260 0.960 . S
H247 C260 0.960 . S
C248 H240 0.929 . S
C248 C249 1.377 . S
C248 C250 1.384 . S
C249 C248 1.377 . S
C249 C255 1.390 . S
C250 H241 0.930 . S
C250 C248 1.384 . S
C250 C251 1.372 . S
C251 C250 1.372 . S
C251 C252 1.400 . S
C251 C256 1.490 . S
C252 H242 0.930 . S
C252 C251 1.400 . S
C252 C255 1.386 . S
H253 C269 0.930 . S
H254 C270 0.931 . S
C255 H243 0.929 . S
C255 C249 1.390 . S
C255 C252 1.386 . S
C256 C251 1.490 . S
C256 C258 1.395 . S
C256 C259 1.403 . S
H257 C263 0.930 . S
C258 H244 0.930 . S
C258 C256 1.395 . S
C258 C261 1.403 1_455 S
C259 C256 1.403 . S
C259 C260 1.524 . S
C259 C263 1.400 1_455 S
C260 H245 0.960 . S
C260 H246 0.960 . S
C260 H247 0.960 . S
C260 C259 1.524 . S
C261 C258 1.403 1_655 S
C261 C262 1.392 . S
C261 C265 1.495 . S
C262 C261 1.392 . S
C262 C263 1.385 . S
C262 C264 1.478 . S
C263 H257 0.930 . S
C263 C259 1.400 1_655 S
C263 C262 1.385 . S
C264 C262 1.478 . S
C264 C266 1.381 . S
C264 C270 1.383 . S
C265 C261 1.495 . S
C265 H271 0.959 . S
C265 H272 0.961 . S
C265 H273 0.960 . S
C266 C264 1.381 . S
C266 C267 1.394 . S
C266 H274 0.930 . S
C267 C266 1.394 . S
C267 C268 1.383 . S
C267 H275 0.929 . S
C268 C267 1.383 . S
C268 C269 1.377 . S
C269 H253 0.930 . S
C269 C268 1.377 . S
C269 C270 1.379 . S
C270 H254 0.931 . S
C270 C264 1.383 . S
C270 C269 1.379 . S
H271 C265 0.959 . S
H272 C265 0.961 . S
H273 C265 0.960 . S
H274 C266 0.930 . S
H275 C267 0.929 . S
H276 C284 0.929 . S
H277 C286 0.930 . S
H278 C288 0.930 . S
H279 C291 0.929 . S
H280 C294 0.930 . S
H281 C296 0.960 1_655 S
H282 C296 0.960 . S
H283 C296 0.960 . S
C284 H276 0.929 . S
C284 C285 1.377 . S
C284 C286 1.384 . S
C285 C284 1.377 . S
C285 C291 1.390 . S
C286 H277 0.930 . S
C286 C284 1.384 . S
C286 C287 1.372 . S
C287 C286 1.372 . S
C287 C288 1.400 . S
C287 C292 1.490 . S
C288 H278 0.930 . S
C288 C287 1.400 . S
C288 C291 1.386 . S
H289 C305 0.930 . S
H290 C306 0.931 . S
C291 H279 0.929 . S
C291 C285 1.390 . S
C291 C288 1.386 . S
C292 C287 1.490 . S
C292 C294 1.395 . S
C292 C295 1.403 . S
H293 C299 0.930 . S
C294 H280 0.930 . S
C294 C292 1.395 . S
C294 C297 1.403 1_455 S
C295 C292 1.403 . S
C295 C296 1.524 . S
C295 C299 1.400 1_455 S
C296 H281 0.960 1_455 S
C296 H282 0.960 . S
C296 H283 0.960 . S
C296 C295 1.524 . S
C297 C294 1.403 1_655 S
C297 C298 1.392 . S
C297 C301 1.495 . S
C298 C297 1.392 . S
C298 C299 1.385 . S
C298 C300 1.478 . S
C299 H293 0.930 . S
C299 C295 1.400 1_655 S
C299 C298 1.385 . S
C300 C298 1.478 . S
C300 C302 1.381 . S
C300 C306 1.383 . S
C301 C297 1.495 . S
C301 H307 0.959 1_655 S
C301 H308 0.961 . S
C301 H309 0.960 . S
C302 C300 1.381 . S
C302 C303 1.394 . S
C302 H310 0.930 . S
C303 C302 1.394 . S
C303 C304 1.383 . S
C303 H311 0.929 . S
C304 C303 1.383 . S
C304 C305 1.377 . S
C305 H289 0.930 . S
C305 C304 1.377 . S
C305 C306 1.379 . S
C306 H290 0.931 . S
C306 C300 1.383 . S
C306 C305 1.379 . S
H307 C301 0.959 1_455 S
H308 C301 0.961 . S
H309 C301 0.960 . S
H310 C302 0.930 . S
H311 C303 0.929 . S
H312 C320 0.929 . S
H313 C322 0.930 . S
H314 C324 0.930 1_556 S
H315 C327 0.929 . S
H316 C330 0.930 . S
H317 C332 0.960 . S
H318 C332 0.960 . S
H319 C332 0.960 . S
C320 H312 0.929 . S
C320 C321 1.377 . S
C320 C322 1.384 . S
C321 C320 1.377 . S
C321 C327 1.390 . S
C322 H313 0.930 . S
C322 C320 1.384 . S
C322 C323 1.372 . S
C323 C322 1.372 . S
C323 C324 1.400 . S
C323 C328 1.490 . S
C324 H314 0.930 1_554 S
C324 C323 1.400 . S
C324 C327 1.386 . S
H325 C341 0.930 . S
H326 C342 0.931 . S
C327 H315 0.929 . S
C327 C321 1.390 . S
C327 C324 1.386 . S
C328 C323 1.490 . S
C328 C330 1.395 . S
C328 C331 1.403 . S
H329 C335 0.930 . S
C330 H316 0.930 . S
C330 C328 1.395 . S
C330 C333 1.403 1_554 S
C331 C328 1.403 . S
C331 C332 1.524 . S
C331 C335 1.400 1_554 S
C332 H317 0.960 . S
C332 H318 0.960 . S
C332 H319 0.960 . S
C332 C331 1.524 . S
C333 C330 1.403 1_556 S
C333 C334 1.392 . S
C333 C337 1.495 . S
C334 C333 1.392 . S
C334 C335 1.385 . S
C334 C336 1.478 . S
C335 H329 0.930 . S
C335 C331 1.400 1_556 S
C335 C334 1.385 . S
C336 C334 1.478 . S
C336 C338 1.381 . S
C336 C342 1.383 . S
C337 C333 1.495 . S
C337 H343 0.959 . S
C337 H344 0.961 . S
C337 H345 0.960 . S
C338 C336 1.381 . S
C338 C339 1.394 . S
C338 H346 0.930 1_556 S
C339 C338 1.394 . S
C339 C340 1.383 . S
C339 H347 0.929 . S
C340 C339 1.383 . S
C340 C341 1.377 . S
C341 H325 0.930 . S
C341 C340 1.377 . S
C341 C342 1.379 . S
C342 H326 0.931 . S
C342 C336 1.383 . S
C342 C341 1.379 . S
H343 C337 0.959 . S
H344 C337 0.961 . S
H345 C337 0.960 . S
H346 C338 0.930 1_554 S
H347 C339 0.929 . S
H348 C356 0.929 . S
H349 C358 0.930 . S
H350 C360 0.930 . S
H351 C363 0.929 . S
H352 C366 0.930 . S
H353 C368 0.960 . S
H354 C368 0.960 . S
H355 C368 0.960 . S
C356 H348 0.929 . S
C356 C357 1.377 . S
C356 C358 1.384 . S
C357 C356 1.377 . S
C357 C363 1.390 . S
C358 H349 0.930 . S
C358 C356 1.384 . S
C358 C359 1.372 . S
C359 C358 1.372 . S
C359 C360 1.400 . S
C359 C364 1.490 . S
C360 H350 0.930 . S
C360 C359 1.400 . S
C360 C363 1.386 . S
H361 C377 0.930 . S
H362 C378 0.931 . S
C363 H351 0.929 . S
C363 C357 1.390 . S
C363 C360 1.386 . S
C364 C359 1.490 . S
C364 C366 1.395 . S
C364 C367 1.403 . S
H365 C371 0.930 . S
C366 H352 0.930 . S
C366 C364 1.395 . S
C366 C369 1.403 . S
C367 C364 1.403 . S
C367 C368 1.524 . S
C367 C371 1.400 . S
C368 H353 0.960 . S
C368 H354 0.960 . S
C368 H355 0.960 . S
C368 C367 1.524 . S
C369 C366 1.403 . S
C369 C370 1.392 . S
C369 C373 1.495 . S
C370 C369 1.392 . S
C370 C371 1.385 . S
C370 C372 1.478 . S
C371 H365 0.930 . S
C371 C367 1.400 . S
C371 C370 1.385 . S
C372 C370 1.478 . S
C372 C374 1.381 . S
C372 C378 1.383 . S
C373 C369 1.495 . S
C373 H379 0.959 . S
C373 H380 0.961 . S
C373 H381 0.960 . S
C374 C372 1.381 . S
C374 C375 1.394 . S
C374 H382 0.930 . S
C375 C374 1.394 . S
C375 C376 1.383 . S
C375 H383 0.929 . S
C376 C375 1.383 . S
C376 C377 1.377 . S
C377 H361 0.930 . S
C377 C376 1.377 . S
C377 C378 1.379 . S
C378 H362 0.931 . S
C378 C372 1.383 . S
C378 C377 1.379 . S
H379 C373 0.959 . S
H380 C373 0.961 . S
H381 C373 0.960 . S
H382 C374 0.930 . S
H383 C375 0.929 . S
H384 C392 0.929 . S
H385 C394 0.930 1_556 S
H386 C396 0.930 . S
H387 C399 0.929 . S
H388 C402 0.930 . S
H389 C404 0.960 . S
H390 C404 0.960 1_556 S
H391 C404 0.960 . S
C392 H384 0.929 . S
C392 C393 1.377 . S
C392 C394 1.384 . S
C393 C392 1.377 . S
C393 C399 1.390 . S
C394 H385 0.930 1_554 S
C394 C392 1.384 . S
C394 C395 1.372 . S
C395 C394 1.372 . S
C395 C396 1.400 . S
C395 C400 1.490 . S
C396 H386 0.930 . S
C396 C395 1.400 . S
C396 C399 1.386 . S
H397 C413 0.930 . S
H398 C414 0.931 1_554 S
C399 H387 0.929 . S
C399 C393 1.390 . S
C399 C396 1.386 . S
C400 C395 1.490 . S
C400 C402 1.395 . S
C400 C403 1.403 . S
H401 C407 0.930 . S
C402 H388 0.930 . S
C402 C400 1.395 . S
C402 C405 1.403 1_554 S
C403 C400 1.403 . S
C403 C404 1.524 . S
C403 C407 1.400 1_554 S
C404 H389 0.960 . S
C404 H390 0.960 1_554 S
C404 H391 0.960 . S
C404 C403 1.524 . S
C405 C402 1.403 1_556 S
C405 C406 1.392 . S
C405 C409 1.495 . S
C406 C405 1.392 . S
C406 C407 1.385 . S
C406 C408 1.478 . S
C407 H401 0.930 . S
C407 C403 1.400 1_556 S
C407 C406 1.385 . S
C408 C406 1.478 . S
C408 C410 1.381 . S
C408 C414 1.383 . S
C409 C405 1.495 . S
C409 H415 0.959 . S
C409 H416 0.961 . S
C409 H417 0.960 . S
C410 C408 1.381 . S
C410 C411 1.394 . S
C410 H418 0.930 . S
C411 C410 1.394 . S
C411 C412 1.383 . S
C411 H419 0.929 . S
C412 C411 1.383 . S
C412 C413 1.377 . S
C413 H397 0.930 . S
C413 C412 1.377 . S
C413 C414 1.379 . S
C414 H398 0.931 1_556 S
C414 C408 1.383 . S
C414 C413 1.379 . S
H415 C409 0.959 . S
H416 C409 0.961 . S
H417 C409 0.960 . S
H418 C410 0.930 . S
H419 C411 0.929 . S
H420 C428 0.929 . S
H421 C430 0.930 . S
H422 C432 0.930 . S
H423 C435 0.929 . S
H424 C438 0.930 . S
H425 C440 0.960 . S
H426 C440 0.960 . S
H427 C440 0.960 . S
C428 H420 0.929 . S
C428 C429 1.377 . S
C428 C430 1.384 . S
C429 C428 1.377 . S
C429 C435 1.390 . S
C430 H421 0.930 . S
C430 C428 1.384 . S
C430 C431 1.372 . S
C431 C430 1.372 . S
C431 C432 1.400 . S
C431 C436 1.490 . S
C432 H422 0.930 . S
C432 C431 1.400 . S
C432 C435 1.386 . S
H433 C449 0.930 . S
H434 C450 0.931 . S
C435 H423 0.929 . S
C435 C429 1.390 . S
C435 C432 1.386 . S
C436 C431 1.490 . S
C436 C438 1.395 . S
C436 C439 1.403 . S
H437 C443 0.930 . S
C438 H424 0.930 . S
C438 C436 1.395 . S
C438 C441 1.403 . S
C439 C436 1.403 . S
C439 C440 1.524 . S
C439 C443 1.400 . S
C440 H425 0.960 . S
C440 H426 0.960 . S
C440 H427 0.960 . S
C440 C439 1.524 . S
C441 C438 1.403 . S
C441 C442 1.392 . S
C441 C445 1.495 . S
C442 C441 1.392 . S
C442 C443 1.385 . S
C442 C444 1.478 . S
C443 H437 0.930 . S
C443 C439 1.400 . S
C443 C442 1.385 . S
C444 C442 1.478 . S
C444 C446 1.381 . S
C444 C450 1.383 . S
C445 C441 1.495 . S
C445 H451 0.959 . S
C445 H452 0.961 . S
C445 H453 0.960 . S
C446 C444 1.381 . S
C446 C447 1.394 . S
C446 H454 0.930 . S
C447 C446 1.394 . S
C447 C448 1.383 . S
C447 H455 0.929 . S
C448 C447 1.383 . S
C448 C449 1.377 . S
C449 H433 0.930 . S
C449 C448 1.377 . S
C449 C450 1.379 . S
C450 H434 0.931 . S
C450 C444 1.383 . S
C450 C449 1.379 . S
H451 C445 0.959 . S
H452 C445 0.961 . S
H453 C445 0.960 . S
H454 C446 0.930 . S
H455 C447 0.929 . S
H456 C464 0.929 . S
H457 C466 0.930 . S
H458 C468 0.910 1_554 S
H459 C471 0.929 . S
H460 C474 0.930 . S
H461 C476 0.960 . S
H462 C476 0.960 . S
H463 C476 0.960 . S
C464 H456 0.929 . S
C464 C465 1.377 . S
C464 C466 1.384 . S
C465 C464 1.377 . S
C465 C471 1.390 . S
C466 H457 0.930 . S
C466 C464 1.384 . S
C466 C467 1.372 . S
C467 C466 1.372 . S
C467 C468 1.400 . S
C467 C472 1.490 . S
C468 H458 0.910 1_556 S
C468 C467 1.400 . S
C468 C471 1.386 . S
H469 C485 0.930 . S
H470 C486 0.931 . S
C471 H459 0.929 . S
C471 C465 1.390 . S
C471 C468 1.386 . S
C472 C467 1.490 . S
C472 C474 1.395 1_656 S
C472 C475 1.403 . S
H473 C479 0.930 . S
C474 H460 0.930 . S
C474 C472 1.395 1_454 S
C474 C477 1.403 . S
C475 C472 1.403 . S
C475 C476 1.524 . S
C475 C479 1.400 1_655 S
C476 H461 0.960 . S
C476 H462 0.960 . S
C476 H463 0.960 . S
C476 C475 1.524 . S
C477 C474 1.403 . S
C477 C478 1.392 . S
C477 C481 1.495 . S
C478 C477 1.392 . S
C478 C479 1.385 1_554 S
C478 C480 1.478 . S
C479 H473 0.930 . S
C479 C475 1.400 1_455 S
C479 C478 1.385 1_556 S
C480 C478 1.478 . S
C480 C482 1.381 . S
C480 C486 1.383 . S
C481 C477 1.495 . S
C481 H487 0.959 . S
C481 H488 0.961 . S
C481 H489 0.960 . S
C482 C480 1.381 . S
C482 C483 1.394 . S
C482 H490 0.930 1_554 S
C483 C482 1.394 . S
C483 C484 1.383 . S
C483 H491 0.929 . S
C484 C483 1.383 . S
C484 C485 1.377 . S
C485 H469 0.930 . S
C485 C484 1.377 . S
C485 C486 1.379 . S
C486 H470 0.931 . S
C486 C480 1.383 . S
C486 C485 1.379 . S
H487 C481 0.959 . S
H488 C481 0.961 . S
H489 C481 0.960 . S
H490 C482 0.930 1_556 S
H491 C483 0.929 . S
H492 C500 0.929 . S
H493 C502 0.930 . S
H494 C504 0.930 . S
H495 C507 0.929 . S
H496 C510 0.930 . S
H497 C512 0.960 . S
H498 C512 0.960 . S
H499 C512 0.960 . S
C500 H492 0.929 . S
C500 C501 1.377 . S
C500 C502 1.384 . S
C501 C500 1.377 . S
C501 C507 1.390 . S
C502 H493 0.930 . S
C502 C500 1.384 . S
C502 C503 1.372 . S
C503 C502 1.372 . S
C503 C504 1.400 . S
C503 C508 1.490 . S
C504 H494 0.930 . S
C504 C503 1.400 . S
C504 C507 1.386 . S
H505 C521 0.930 . S
H506 C522 0.931 . S
C507 H495 0.929 . S
C507 C501 1.390 . S
C507 C504 1.386 . S
C508 C503 1.490 . S
C508 C510 1.395 . S
C508 C511 1.403 . S
H509 C515 0.930 . S
C510 H496 0.930 . S
C510 C508 1.395 . S
C510 C513 1.403 1_455 S
C511 C508 1.403 . S
C511 C512 1.524 . S
C511 C515 1.400 1_455 S
C512 H497 0.960 . S
C512 H498 0.960 . S
C512 H499 0.960 . S
C512 C511 1.524 . S
C513 C510 1.403 1_655 S
C513 C514 1.392 . S
C513 C517 1.495 . S
C514 C513 1.392 . S
C514 C515 1.385 . S
C514 C516 1.478 . S
C515 H509 0.930 . S
C515 C511 1.400 1_655 S
C515 C514 1.385 . S
C516 C514 1.478 . S
C516 C518 1.381 . S
C516 C522 1.383 . S
C517 C513 1.495 . S
C517 H523 0.959 . S
C517 H524 0.961 . S
C517 H525 0.960 . S
C518 C516 1.381 . S
C518 C519 1.394 . S
C518 H526 0.930 . S
C519 C518 1.394 . S
C519 C520 1.383 . S
C519 H527 0.929 . S
C520 C519 1.383 . S
C520 C521 1.377 . S
C521 H505 0.930 . S
C521 C520 1.377 . S
C521 C522 1.379 . S
C522 H506 0.931 . S
C522 C516 1.383 . S
C522 C521 1.379 . S
H523 C517 0.959 . S
H524 C517 0.961 . S
H525 C517 0.960 . S
H526 C518 0.930 . S
H527 C519 0.929 . S
H528 C536 0.929 . S
H529 C538 0.930 . S
H530 C540 0.930 1_556 S
H531 C543 0.929 . S
H532 C546 0.930 . S
H533 C548 0.960 . S
H534 C548 0.960 1_554 S
H535 C548 0.960 . S
C536 H528 0.929 . S
C536 C537 1.377 . S
C536 C538 1.384 . S
C537 C536 1.377 . S
C537 C543 1.390 . S
C538 H529 0.930 . S
C538 C536 1.384 . S
C538 C539 1.372 . S
C539 C538 1.372 . S
C539 C540 1.400 . S
C539 C544 1.490 . S
C540 H530 0.930 1_554 S
C540 C539 1.400 . S
C540 C543 1.386 . S
H541 C557 0.930 . S
H542 C558 0.931 . S
C543 H531 0.929 . S
C543 C537 1.390 . S
C543 C540 1.386 . S
C544 C539 1.490 . S
C544 C546 1.395 1_565 S
C544 C547 1.398 1_554 S
H545 C551 0.930 . S
C546 H532 0.930 . S
C546 C544 1.395 1_545 S
C546 C549 1.403 . S
C547 C544 1.398 1_556 S
C547 C548 1.525 . S
C547 C551 1.404 . S
C548 H533 0.960 . S
C548 H534 0.960 1_556 S
C548 H535 0.960 . S
C548 C547 1.525 . S
C549 C546 1.403 . S
C549 C550 1.392 1_554 S
C549 C553 1.495 . S
C550 C549 1.392 1_556 S
C550 C551 1.385 1_545 S
C550 C552 1.478 . S
C551 H545 0.930 . S
C551 C547 1.404 . S
C551 C550 1.385 1_565 S
C552 C550 1.478 . S
C552 C554 1.381 . S
C552 C558 1.383 . S
C553 C549 1.495 . S
C553 H559 0.959 . S
C553 H560 0.961 1_554 S
C553 H561 0.960 . S
C554 C552 1.381 . S
C554 C555 1.394 . S
C554 H562 0.930 1_556 S
C555 C554 1.394 . S
C555 C556 1.383 . S
C555 H563 0.929 . S
C556 C555 1.383 . S
C556 C557 1.377 . S
C557 H541 0.930 . S
C557 C556 1.377 . S
C557 C558 1.379 . S
C558 H542 0.931 . S
C558 C552 1.383 . S
C558 C557 1.379 . S
H559 C553 0.959 . S
H560 C553 0.961 1_556 S
H561 C553 0.960 . S
H562 C554 0.930 1_554 S
H563 C555 0.929 . S
H564 C572 0.929 . S
H565 C574 0.930 . S
H566 C576 0.930 . S
H567 C579 0.929 . S
H568 C582 0.930 . S
H569 C584 0.960 . S
H570 C584 0.960 . S
H571 C584 0.960 . S
C572 H564 0.929 . S
C572 C573 1.377 . S
C572 C574 1.384 . S
C573 C572 1.377 . S
C573 C579 1.390 . S
C574 H565 0.930 . S
C574 C572 1.384 . S
C574 C575 1.372 . S
C575 C574 1.372 . S
C575 C576 1.400 . S
C575 C580 1.490 . S
C576 H566 0.930 . S
C576 C575 1.400 . S
C576 C579 1.386 . S
H577 C593 0.930 . S
H578 C594 0.931 . S
C579 H567 0.929 . S
C579 C573 1.390 . S
C579 C576 1.386 . S
C580 C575 1.490 . S
C580 C582 1.395 . S
C580 C583 1.403 1_565 S
H581 C587 0.930 . S
C582 H568 0.930 . S
C582 C580 1.395 . S
C582 C585 1.403 . S
C583 C580 1.403 1_545 S
C583 C584 1.524 . S
C583 C587 1.400 . S
C584 H569 0.960 . S
C584 H570 0.960 . S
C584 H571 0.960 . S
C584 C583 1.524 . S
C585 C582 1.403 . S
C585 C586 1.392 1_565 S
C585 C589 1.495 . S
C586 C585 1.392 1_545 S
C586 C587 1.385 . S
C586 C588 1.478 . S
C587 H581 0.930 . S
C587 C583 1.400 . S
C587 C586 1.385 . S
C588 C586 1.478 . S
C588 C590 1.381 . S
C588 C594 1.383 . S
C589 C585 1.495 . S
C589 H595 0.959 . S
C589 H596 0.961 . S
C589 H597 0.960 . S
C590 C588 1.381 . S
C590 C591 1.394 . S
C590 H598 0.930 . S
C591 C590 1.394 . S
C591 C592 1.383 . S
C591 H599 0.929 . S
C592 C591 1.383 . S
C592 C593 1.377 . S
C593 H577 0.930 . S
C593 C592 1.377 . S
C593 C594 1.379 . S
C594 H578 0.931 . S
C594 C588 1.383 . S
C594 C593 1.379 . S
H595 C589 0.959 . S
H596 C589 0.961 . S
H597 C589 0.960 . S
H598 C590 0.930 . S
H599 C591 0.929 . S
H600 C608 0.929 . S
H601 C610 0.930 . S
H602 C612 0.930 . S
H603 C615 0.929 . S
H604 C618 0.930 . S
H605 C620 0.960 . S
H606 C620 0.960 . S
H607 C620 0.960 . S
C608 H600 0.929 . S
C608 C609 1.377 . S
C608 C610 1.384 . S
C609 C608 1.377 . S
C609 C615 1.390 . S
C610 H601 0.930 . S
C610 C608 1.384 . S
C610 C611 1.372 . S
C611 C610 1.372 . S
C611 C612 1.400 . S
C611 C616 1.490 . S
C612 H602 0.930 . S
C612 C611 1.400 . S
C612 C615 1.386 . S
H613 C629 0.930 . S
H614 C630 0.931 . S
C615 H603 0.929 . S
C615 C609 1.390 . S
C615 C612 1.386 . S
C616 C611 1.490 . S
C616 C618 1.395 . S
C616 C619 1.403 . S
H617 C623 0.930 . S
C618 H604 0.930 . S
C618 C616 1.395 . S
C618 C621 1.403 1_455 S
C619 C616 1.403 . S
C619 C620 1.524 . S
C619 C623 1.400 1_455 S
C620 H605 0.960 . S
C620 H606 0.960 . S
C620 H607 0.960 . S
C620 C619 1.524 . S
C621 C618 1.403 1_655 S
C621 C622 1.392 . S
C621 C625 1.495 . S
C622 C621 1.392 . S
C622 C623 1.385 . S
C622 C624 1.478 . S
C623 H617 0.930 . S
C623 C619 1.400 1_655 S
C623 C622 1.385 . S
C624 C622 1.478 . S
C624 C626 1.381 . S
C624 C630 1.383 . S
C625 C621 1.495 . S
C625 H631 0.959 . S
C625 H632 0.961 . S
C625 H633 0.960 . S
C626 C624 1.381 . S
C626 C627 1.394 . S
C626 H634 0.930 . S
C627 C626 1.394 . S
C627 C628 1.383 . S
C627 H635 0.929 . S
C628 C627 1.383 . S
C628 C629 1.377 . S
C629 H613 0.930 . S
C629 C628 1.377 . S
C629 C630 1.379 . S
C630 H614 0.931 . S
C630 C624 1.383 . S
C630 C629 1.379 . S
H631 C625 0.959 . S
H632 C625 0.961 . S
H633 C625 0.960 . S
H634 C626 0.930 . S
H635 C627 0.929 . S
H636 C644 0.929 . S
H637 C646 0.930 . S
H638 C648 0.930 . S
H639 C651 0.929 . S
H640 C654 0.930 . S
H641 C656 0.960 1_655 S
H642 C656 0.960 . S
H643 C656 0.960 . S
C644 H636 0.929 . S
C644 C645 1.377 . S
C644 C646 1.384 . S
C645 C644 1.377 . S
C645 C651 1.390 . S
C646 H637 0.930 . S
C646 C644 1.384 . S
C646 C647 1.372 . S
C647 C646 1.372 . S
C647 C648 1.400 . S
C647 C652 1.490 . S
C648 H638 0.930 . S
C648 C647 1.400 . S
C648 C651 1.386 . S
H649 C665 0.930 . S
H650 C666 0.931 . S
C651 H639 0.929 . S
C651 C645 1.390 . S
C651 C648 1.386 . S
C652 C647 1.490 . S
C652 C654 1.395 . S
C652 C655 1.403 . S
H653 C659 0.930 . S
C654 H640 0.930 . S
C654 C652 1.395 . S
C654 C657 1.403 . S
C655 C652 1.403 . S
C655 C656 1.524 . S
C655 C659 1.400 1_455 S
C656 H641 0.960 1_455 S
C656 H642 0.960 . S
C656 H643 0.960 . S
C656 C655 1.524 . S
C657 C654 1.403 . S
C657 C658 1.392 1_455 S
C657 C661 1.495 . S
C658 C657 1.392 1_655 S
C658 C659 1.385 . S
C658 C660 1.478 . S
C659 H653 0.930 . S
C659 C655 1.400 1_655 S
C659 C658 1.385 . S
C660 C658 1.478 . S
C660 C662 1.381 . S
C660 C666 1.383 . S
C661 C657 1.495 . S
C661 H667 0.959 . S
C661 H668 0.961 1_455 S
C661 H669 0.960 1_455 S
C662 C660 1.381 . S
C662 C663 1.394 . S
C662 H670 0.930 . S
C663 C662 1.394 . S
C663 C664 1.383 . S
C663 H671 0.929 . S
C664 C663 1.383 . S
C664 C665 1.377 . S
C665 H649 0.930 . S
C665 C664 1.377 . S
C665 C666 1.379 . S
C666 H650 0.931 . S
C666 C660 1.383 . S
C666 C665 1.379 . S
H667 C661 0.959 . S
H668 C661 0.961 1_655 S
H669 C661 0.960 1_655 S
H670 C662 0.930 . S
H671 C663 0.929 . S
H672 C680 0.929 . S
H673 C682 0.930 . S
H674 C684 0.930 . S
H675 C687 0.929 . S
H676 C690 0.930 . S
H677 C692 0.960 . S
H678 C692 0.960 . S
H679 C692 0.960 . S
C680 H672 0.929 . S
C680 C681 1.377 . S
C680 C682 1.384 . S
C681 C680 1.377 . S
C681 C687 1.390 . S
C682 H673 0.930 . S
C682 C680 1.384 . S
C682 C683 1.372 . S
C683 C682 1.372 . S
C683 C684 1.400 . S
C683 C688 1.490 . S
C684 H674 0.930 . S
C684 C683 1.400 . S
C684 C687 1.386 . S
H685 C701 0.930 . S
H686 C702 0.931 . S
C687 H675 0.929 . S
C687 C681 1.390 . S
C687 C684 1.386 . S
C688 C683 1.490 . S
C688 C690 1.395 . S
C688 C691 1.403 . S
H689 C695 0.930 . S
C690 H676 0.930 . S
C690 C688 1.395 . S
C690 C693 1.403 . S
C691 C688 1.403 . S
C691 C692 1.524 . S
C691 C695 1.400 . S
C692 H677 0.960 . S
C692 H678 0.960 . S
C692 H679 0.960 . S
C692 C691 1.524 . S
C693 C690 1.403 . S
C693 C694 1.392 . S
C693 C697 1.495 . S
C694 C693 1.392 . S
C694 C695 1.385 . S
C694 C696 1.478 . S
C695 H689 0.930 . S
C695 C691 1.400 . S
C695 C694 1.385 . S
C696 C694 1.478 . S
C696 C698 1.381 . S
C696 C702 1.383 . S
C697 C693 1.495 . S
C697 H703 0.959 . S
C697 H704 0.961 . S
C697 H705 0.960 . S
C698 C696 1.381 . S
C698 C699 1.394 . S
C698 H706 0.930 . S
C699 C698 1.394 . S
C699 C700 1.383 . S
C699 H707 0.929 . S
C700 C699 1.383 . S
C700 C701 1.377 . S
C701 H685 0.930 . S
C701 C700 1.377 . S
C701 C702 1.379 . S
C702 H686 0.931 . S
C702 C696 1.383 . S
C702 C701 1.379 . S
H703 C697 0.959 . S
H704 C697 0.961 . S
H705 C697 0.960 . S
H706 C698 0.930 . S
H707 C699 0.929 . S
H708 C716 0.929 . S
H709 C718 0.930 . S
H710 C720 0.930 . S
H711 C723 0.929 . S
H712 C726 0.930 . S
H713 C728 0.960 . S
H714 C728 0.960 . S
H715 C728 0.960 . S
C716 H708 0.929 . S
C716 C717 1.377 . S
C716 C718 1.384 . S
C717 C716 1.377 . S
C717 C723 1.390 . S
C718 H709 0.930 . S
C718 C716 1.384 . S
C718 C719 1.372 . S
C719 C718 1.372 . S
C719 C720 1.400 . S
C719 C724 1.490 . S
C720 H710 0.930 . S
C720 C719 1.400 . S
C720 C723 1.386 . S
H721 C737 0.930 . S
H722 C738 0.931 . S
C723 H711 0.929 . S
C723 C717 1.390 . S
C723 C720 1.386 . S
C724 C719 1.490 . S
C724 C726 1.395 . S
C724 C727 1.403 . S
H725 C731 0.930 . S
C726 H712 0.930 . S
C726 C724 1.395 . S
C726 C729 1.403 . S
C727 C724 1.403 . S
C727 C728 1.524 . S
C727 C731 1.400 . S
C728 H713 0.960 . S
C728 H714 0.960 . S
C728 H715 0.960 . S
C728 C727 1.524 . S
C729 C726 1.403 . S
C729 C730 1.392 . S
C729 C733 1.495 . S
C730 C729 1.392 . S
C730 C731 1.385 . S
C730 C732 1.478 . S
C731 H725 0.930 . S
C731 C727 1.400 . S
C731 C730 1.385 . S
C732 C730 1.478 . S
C732 C734 1.381 . S
C732 C738 1.383 . S
C733 C729 1.495 . S
C733 H739 0.959 . S
C733 H740 0.961 . S
C733 H741 0.960 . S
C734 C732 1.381 . S
C734 C735 1.394 . S
C734 H742 0.930 . S
C735 C734 1.394 . S
C735 C736 1.383 . S
C735 H743 0.929 . S
C736 C735 1.383 . S
C736 C737 1.377 . S
C737 H721 0.930 . S
C737 C736 1.377 . S
C737 C738 1.379 . S
C738 H722 0.931 . S
C738 C732 1.383 . S
C738 C737 1.379 . S
H739 C733 0.959 . S
H740 C733 0.961 . S
H741 C733 0.960 . S
H742 C734 0.930 . S
H743 C735 0.929 . S
H744 C752 0.929 1_554 S
H745 C754 0.930 . S
H746 C756 0.930 . S
H747 C759 0.929 . S
H748 C762 0.930 . S
H749 C764 0.960 . S
H750 C764 0.960 . S
H751 C764 0.960 . S
C752 H744 0.929 1_556 S
C752 C753 1.377 1_556 S
C752 C754 1.384 . S
C753 C752 1.377 1_554 S
C753 C759 1.390 1_554 S
C754 H745 0.930 . S
C754 C752 1.384 . S
C754 C755 1.372 . S
C755 C754 1.372 . S
C755 C756 1.400 . S
C755 C760 1.490 . S
C756 H746 0.930 . S
C756 C755 1.400 . S
C756 C759 1.386 . S
H757 C773 0.930 . S
H758 C774 0.931 . S
C759 H747 0.929 . S
C759 C753 1.390 1_556 S
C759 C756 1.386 . S
C760 C755 1.490 . S
C760 C762 1.395 . S
C760 C763 1.403 . S
H761 C767 0.930 . S
C762 H748 0.930 . S
C762 C760 1.395 . S
C762 C765 1.403 . S
C763 C760 1.403 . S
C763 C764 1.524 . S
C763 C767 1.400 . S
C764 H749 0.960 . S
C764 H750 0.960 . S
C764 H751 0.960 . S
C764 C763 1.524 . S
C765 C762 1.403 . S
C765 C766 1.392 . S
C765 C769 1.495 . S
C766 C765 1.392 . S
C766 C767 1.385 . S
C766 C768 1.478 . S
C767 H761 0.930 . S
C767 C763 1.400 . S
C767 C766 1.385 . S
C768 C766 1.478 . S
C768 C770 1.381 . S
C768 C774 1.383 . S
C769 C765 1.495 . S
C769 H775 0.959 . S
C769 H776 0.961 . S
C769 H777 0.960 . S
C770 C768 1.381 . S
C770 C771 1.394 . S
C770 H778 0.930 . S
C771 C770 1.394 . S
C771 C772 1.383 . S
C771 H779 0.929 . S
C772 C771 1.383 . S
C772 C773 1.377 . S
C773 H757 0.930 . S
C773 C772 1.377 . S
C773 C774 1.379 . S
C774 H758 0.931 . S
C774 C768 1.383 . S
C774 C773 1.379 . S
H775 C769 0.959 . S
H776 C769 0.961 . S
H777 C769 0.960 . S
H778 C770 0.930 . S
H779 C771 0.929 . S
H780 C788 0.929 . S
H781 C790 0.930 . S
H782 C792 0.930 . S
H783 C795 0.929 . S
H784 C798 0.930 . S
H785 C800 0.960 . S
H786 C800 0.960 . S
H787 C800 0.960 . S
C788 H780 0.929 . S
C788 C789 1.377 . S
C788 C790 1.384 . S
C789 C788 1.377 . S
C789 C795 1.390 . S
C790 H781 0.930 . S
C790 C788 1.384 . S
C790 C791 1.372 . S
C791 C790 1.372 . S
C791 C792 1.400 . S
C791 C796 1.490 . S
C792 H782 0.930 . S
C792 C791 1.400 . S
C792 C795 1.386 . S
H793 C809 0.930 . S
H794 C810 0.931 . S
C795 H783 0.929 . S
C795 C789 1.390 . S
C795 C792 1.386 . S
C796 C791 1.490 . S
C796 C798 1.395 . S
C796 C799 1.403 . S
H797 C803 0.930 . S
C798 H784 0.930 . S
C798 C796 1.395 . S
C798 C801 1.403 . S
C799 C796 1.403 . S
C799 C800 1.524 . S
C799 C803 1.400 . S
C800 H785 0.960 . S
C800 H786 0.960 . S
C800 H787 0.960 . S
C800 C799 1.524 . S
C801 C798 1.403 . S
C801 C802 1.392 . S
C801 C805 1.495 . S
C802 C801 1.392 . S
C802 C803 1.385 . S
C802 C804 1.478 . S
C803 H797 0.930 . S
C803 C799 1.400 . S
C803 C802 1.385 . S
C804 C802 1.478 . S
C804 C806 1.381 . S
C804 C810 1.383 . S
C805 C801 1.495 . S
C805 H811 0.959 . S
C805 H812 0.961 . S
C805 H813 0.960 . S
C806 C804 1.381 . S
C806 C807 1.394 . S
C806 H814 0.930 . S
C807 C806 1.394 . S
C807 C808 1.383 . S
C807 H815 0.929 . S
C808 C807 1.383 . S
C808 C809 1.377 . S
C809 H793 0.930 . S
C809 C808 1.377 . S
C809 C810 1.379 . S
C810 H794 0.931 . S
C810 C804 1.383 . S
C810 C809 1.379 . S
H811 C805 0.959 . S
H812 C805 0.961 . S
H813 C805 0.960 . S
H814 C806 0.930 . S
H815 C807 0.929 . S
H816 C824 0.929 . S
H817 C826 0.930 . S
H818 C828 0.930 . S
H819 C831 0.929 . S
H820 C834 0.930 . S
H821 C836 0.960 . S
H822 C836 0.960 . S
H823 C836 0.960 . S
C824 H816 0.929 . S
C824 C825 1.377 . S
C824 C826 1.384 . S
C825 C824 1.377 . S
C825 C831 1.390 . S
C826 H817 0.930 . S
C826 C824 1.384 . S
C826 C827 1.372 . S
C827 C826 1.372 . S
C827 C828 1.400 . S
C827 C832 1.490 . S
C828 H818 0.930 . S
C828 C827 1.400 . S
C828 C831 1.386 . S
H829 C845 0.930 . S
H830 C846 0.931 . S
C831 H819 0.929 . S
C831 C825 1.390 . S
C831 C828 1.386 . S
C832 C827 1.490 . S
C832 C834 1.395 . S
C832 C835 1.403 . S
H833 C839 0.930 . S
C834 H820 0.930 . S
C834 C832 1.395 . S
C834 C837 1.403 . S
C835 C832 1.403 . S
C835 C836 1.524 . S
C835 C839 1.400 . S
C836 H821 0.960 . S
C836 H822 0.960 . S
C836 H823 0.960 . S
C836 C835 1.524 . S
C837 C834 1.403 . S
C837 C838 1.392 . S
C837 C841 1.495 . S
C838 C837 1.392 . S
C838 C839 1.385 . S
C838 C840 1.478 . S
C839 H833 0.930 . S
C839 C835 1.400 . S
C839 C838 1.385 . S
C840 C838 1.478 . S
C840 C842 1.381 . S
C840 C846 1.383 . S
C841 C837 1.495 . S
C841 H847 0.959 . S
C841 H848 0.961 . S
C841 H849 0.960 . S
C842 C840 1.381 . S
C842 C843 1.394 . S
C842 H850 0.930 . S
C843 C842 1.394 . S
C843 C844 1.383 1_554 S
C843 H851 0.929 . S
C844 C843 1.383 1_556 S
C844 C845 1.377 . S
C845 H829 0.930 . S
C845 C844 1.377 . S
C845 C846 1.379 1_556 S
C846 H830 0.931 . S
C846 C840 1.383 . S
C846 C845 1.379 1_554 S
H847 C841 0.959 . S
H848 C841 0.961 . S
H849 C841 0.960 . S
H850 C842 0.930 . S
H851 C843 0.929 . S
H852 C860 0.929 . S
H853 C862 0.930 . S
H854 C864 0.930 . S
H855 C867 0.929 . S
H856 C870 0.930 . S
H857 C872 0.960 . S
H858 C872 0.960 . S
H859 C872 0.960 . S
C860 H852 0.929 . S
C860 C861 1.377 . S
C860 C862 1.384 . S
C861 C860 1.377 . S
C861 C867 1.390 . S
C862 H853 0.930 . S
C862 C860 1.384 . S
C862 C863 1.372 . S
C863 C862 1.372 . S
C863 C864 1.400 . S
C863 C868 1.490 . S
C864 H854 0.930 . S
C864 C863 1.400 . S
C864 C867 1.386 . S
H865 C881 0.930 . S
H866 C882 0.931 . S
C867 H855 0.929 . S
C867 C861 1.390 . S
C867 C864 1.386 . S
C868 C863 1.490 . S
C868 C870 1.395 . S
C868 C871 1.403 . S
H869 C875 0.930 . S
C870 H856 0.930 . S
C870 C868 1.395 . S
C870 C873 1.403 . S
C871 C868 1.403 . S
C871 C872 1.524 . S
C871 C875 1.400 . S
C872 H857 0.960 . S
C872 H858 0.960 . S
C872 H859 0.960 . S
C872 C871 1.524 . S
C873 C870 1.403 . S
C873 C874 1.392 . S
C873 C877 1.495 . S
C874 C873 1.392 . S
C874 C875 1.385 . S
C874 C876 1.478 . S
C875 H869 0.930 . S
C875 C871 1.400 . S
C875 C874 1.385 . S
C876 C874 1.478 . S
C876 C878 1.381 . S
C876 C882 1.383 . S
C877 C873 1.495 . S
C877 H883 0.959 . S
C877 H884 0.961 . S
C877 H885 0.960 . S
C878 C876 1.381 . S
C878 C879 1.394 . S
C878 H886 0.930 . S
C879 C878 1.394 . S
C879 C880 1.383 . S
C879 H887 0.929 . S
C880 C879 1.383 . S
C880 C881 1.377 . S
C881 H865 0.930 . S
C881 C880 1.377 . S
C881 C882 1.379 . S
C882 H866 0.931 . S
C882 C876 1.383 . S
C882 C881 1.379 . S
H883 C877 0.959 . S
H884 C877 0.961 . S
H885 C877 0.960 . S
H886 C878 0.930 . S
H887 C879 0.929 . S
H888 C896 0.929 1_554 S
H889 C898 0.930 . S
H890 C900 0.930 . S
H891 C903 0.929 . S
H892 C906 0.930 . S
H893 C908 0.960 . S
H894 C908 0.960 . S
H895 C908 0.960 . S
C896 H888 0.929 1_556 S
C896 C897 1.377 1_556 S
C896 C898 1.384 . S
C897 C896 1.377 1_554 S
C897 C903 1.390 1_554 S
C898 H889 0.930 . S
C898 C896 1.384 . S
C898 C899 1.372 . S
C899 C898 1.372 . S
C899 C900 1.400 . S
C899 C904 1.490 . S
C900 H890 0.930 . S
C900 C899 1.400 . S
C900 C903 1.386 . S
H901 C917 0.930 . S
H902 C918 0.931 . S
C903 H891 0.929 . S
C903 C897 1.390 1_556 S
C903 C900 1.386 . S
C904 C899 1.490 . S
C904 C906 1.395 1_565 S
C904 C907 1.403 . S
H905 C911 0.930 . S
C906 H892 0.930 . S
C906 C904 1.395 1_545 S
C906 C909 1.403 . S
C907 C904 1.403 . S
C907 C908 1.524 . S
C907 C911 1.400 . S
C908 H893 0.960 . S
C908 H894 0.960 . S
C908 H895 0.960 . S
C908 C907 1.524 . S
C909 C906 1.403 . S
C909 C910 1.392 . S
C909 C913 1.495 . S
C910 C909 1.392 . S
C910 C911 1.385 1_545 S
C910 C912 1.478 . S
C911 H905 0.930 . S
C911 C907 1.400 . S
C911 C910 1.385 1_565 S
C912 C910 1.478 . S
C912 C914 1.381 . S
C912 C918 1.383 . S
C913 C909 1.495 . S
C913 H919 0.959 . S
C913 H920 0.961 . S
C913 H921 0.960 . S
C914 C912 1.381 . S
C914 C915 1.394 . S
C914 H922 0.930 . S
C915 C914 1.394 . S
C915 C916 1.383 . S
C915 H923 0.929 . S
C916 C915 1.383 . S
C916 C917 1.377 . S
C917 H901 0.930 . S
C917 C916 1.377 . S
C917 C918 1.379 . S
C918 H902 0.931 . S
C918 C912 1.383 . S
C918 C917 1.379 . S
H919 C913 0.959 . S
H920 C913 0.961 . S
H921 C913 0.960 . S
H922 C914 0.930 . S
H923 C915 0.929 . S
H924 C932 0.929 . S
H925 C934 0.930 1_565 S
H926 C936 0.930 . S
H927 C939 0.929 . S
H928 C942 0.930 . S
H929 C944 0.960 . S
H930 C944 0.960 . S
H931 C944 0.960 1_545 S
C932 H924 0.929 . S
C932 C933 1.377 . S
C932 C934 1.384 . S
C933 C932 1.377 . S
C933 C939 1.390 . S
C934 H925 0.930 1_545 S
C934 C932 1.384 . S
C934 C935 1.372 . S
C935 C934 1.372 . S
C935 C936 1.400 . S
C935 C940 1.490 . S
C936 H926 0.930 . S
C936 C935 1.400 . S
C936 C939 1.386 . S
H937 C953 0.930 . S
H938 C954 0.931 . S
C939 H927 0.929 . S
C939 C933 1.390 . S
C939 C936 1.386 . S
C940 C935 1.490 . S
C940 C942 1.395 . S
C940 C943 1.403 1_545 S
H941 C947 0.930 . S
C942 H928 0.930 . S
C942 C940 1.395 . S
C942 C945 1.403 1_545 S
C943 C940 1.403 1_565 S
C943 C944 1.524 . S
C943 C947 1.400 . S
C944 H929 0.960 . S
C944 H930 0.960 . S
C944 H931 0.960 1_565 S
C944 C943 1.524 . S
C945 C942 1.403 1_565 S
C945 C946 1.392 . S
C945 C949 1.495 . S
C946 C945 1.392 . S
C946 C947 1.385 . S
C946 C948 1.478 . S
C947 H941 0.930 . S
C947 C943 1.400 . S
C947 C946 1.385 . S
C948 C946 1.478 . S
C948 C950 1.381 . S
C948 C954 1.383 . S
C949 C945 1.495 . S
C949 H955 0.959 1_565 S
C949 H956 0.953 1_565 S
C949 H957 0.960 . S
C950 C948 1.381 . S
C950 C951 1.394 . S
C950 H958 0.930 . S
C951 C950 1.394 . S
C951 C952 1.383 . S
C951 H959 0.929 . S
C952 C951 1.383 . S
C952 C953 1.377 . S
C953 H937 0.930 . S
C953 C952 1.377 . S
C953 C954 1.379 . S
C954 H938 0.931 . S
C954 C948 1.383 . S
C954 C953 1.379 . S
H955 C949 0.959 1_545 S
H956 C949 0.953 1_545 S
H957 C949 0.960 . S
H958 C950 0.930 . S
H959 C951 0.929 . S
H960 C968 0.929 . S
H961 C970 0.930 1_545 S
H962 C972 0.930 . S
H963 C975 0.929 . S
H964 C978 0.930 . S
H965 C980 0.960 1_545 S
H966 C980 0.960 1_545 S
H967 C980 0.960 . S
C968 H960 0.929 . S
C968 C969 1.377 . S
C968 C970 1.384 . S
C969 C968 1.377 . S
C969 C975 1.390 . S
C970 H961 0.930 1_565 S
C970 C968 1.384 . S
C970 C971 1.372 . S
C971 C970 1.372 . S
C971 C972 1.400 . S
C971 C976 1.490 . S
C972 H962 0.930 . S
C972 C971 1.400 . S
C972 C975 1.386 . S
H973 C989 0.930 . S
H974 C990 0.931 . S
C975 H963 0.929 . S
C975 C969 1.390 . S
C975 C972 1.386 . S
C976 C971 1.490 . S
C976 C978 1.395 1_565 S
C976 C979 1.403 1_565 S
H977 C983 0.930 . S
C978 H964 0.930 . S
C978 C976 1.395 1_545 S
C978 C981 1.403 . S
C979 C976 1.403 1_545 S
C979 C980 1.524 1_545 S
C979 C983 1.400 . S
C980 H965 0.960 1_565 S
C980 H966 0.960 1_565 S
C980 H967 0.960 . S
C980 C979 1.524 1_565 S
C981 C978 1.403 . S
C981 C982 1.392 . S
C981 C985 1.495 . S
C982 C981 1.392 . S
C982 C983 1.385 . S
C982 C984 1.478 . S
C983 H977 0.930 . S
C983 C979 1.400 . S
C983 C982 1.385 . S
C984 C982 1.478 . S
C984 C986 1.381 . S
C984 C990 1.383 . S
C985 C981 1.495 . S
C985 H991 0.959 . S
C985 H992 0.961 . S
C985 H993 0.960 . S
C986 C984 1.381 . S
C986 C987 1.394 . S
C986 H994 0.930 . S
C987 C986 1.394 . S
C987 C988 1.383 1_554 S
C987 H995 0.929 . S
C988 C987 1.383 1_556 S
C988 C989 1.377 . S
C989 H973 0.930 . S
C989 C988 1.377 . S
C989 C990 1.379 1_556 S
C990 H974 0.931 . S
C990 C984 1.383 . S
C990 C989 1.379 1_554 S
H991 C985 0.959 . S
H992 C985 0.961 . S
H993 C985 0.960 . S
H994 C986 0.930 . S
H995 C987 0.929 . S
H996 C1004 0.929 . S
H997 C1006 0.930 . S
H998 C1008 0.930 . S
H999 C1011 0.929 . S
H1000 C1014 0.930 . S
H1001 C1016 0.960 . S
H1002 C1016 0.960 . S
H1003 C1016 0.960 . S
C1004 H996 0.929 . S
C1004 C1005 1.377 . S
C1004 C1006 1.384 . S
C1005 C1004 1.377 . S
C1005 C1011 1.390 . S
C1006 H997 0.930 . S
C1006 C1004 1.384 . S
C1006 C1007 1.372 . S
C1007 C1006 1.372 . S
C1007 C1008 1.400 . S
C1007 C1012 1.490 . S
C1008 H998 0.930 . S
C1008 C1007 1.400 . S
C1008 C1011 1.386 . S
H1009 C1025 0.930 . S
H1010 C1026 0.931 . S
C1011 H999 0.929 . S
C1011 C1005 1.390 . S
C1011 C1008 1.386 . S
C1012 C1007 1.490 . S
C1012 C1014 1.395 . S
C1012 C1015 1.403 1_545 S
H1013 C1019 0.930 . S
C1014 H1000 0.930 . S
C1014 C1012 1.395 . S
C1014 C1017 1.403 . S
C1015 C1012 1.403 1_565 S
C1015 C1016 1.524 . S
C1015 C1019 1.400 . S
C1016 H1001 0.960 . S
C1016 H1002 0.960 . S
C1016 H1003 0.960 . S
C1016 C1015 1.524 . S
C1017 C1014 1.403 . S
C1017 C1018 1.397 . S
C1017 C1021 1.495 . S
C1018 C1017 1.397 . S
C1018 C1019 1.383 1_545 S
C1018 C1020 1.475 1_545 S
C1019 H1013 0.930 . S
C1019 C1015 1.400 . S
C1019 C1018 1.383 1_565 S
C1020 C1018 1.475 1_565 S
C1020 C1022 1.381 . S
C1020 C1026 1.383 . S
C1021 C1017 1.495 . S
C1021 H1027 0.959 . S
C1021 H1028 0.961 . S
C1021 H1029 0.960 . S
C1022 C1020 1.381 . S
C1022 C1023 1.394 . S
C1022 H1030 0.930 . S
C1023 C1022 1.394 . S
C1023 C1024 1.383 . S
C1023 H1031 0.929 . S
C1024 C1023 1.383 . S
C1024 C1025 1.377 . S
C1025 H1009 0.930 . S
C1025 C1024 1.377 . S
C1025 C1026 1.379 . S
C1026 H1010 0.931 . S
C1026 C1020 1.383 . S
C1026 C1025 1.379 . S
H1027 C1021 0.959 . S
H1028 C1021 0.961 . S
H1029 C1021 0.960 . S
H1030 C1022 0.930 . S
H1031 C1023 0.929 . S
C177 C24 0.913 . S
C196 C3 0.897 . S
C213 C45 0.920 . S
C232 C79 0.896 . S
C249 C108 0.918 . S
C268 C87 0.972 . S
C285 C129 0.918 . S
C304 C163 0.889 . S
C321 C4 1.259 . S
C340 C130 1.212 . S
C357 C25 1.257 . S
C376 C154 1.298 . S
C393 C88 1.260 . S
C412 C46 1.304 . S
C429 C70 1.248 . S
C448 C109 1.241 . S
C465 C61 0.864 . S
C484 C19 0.860 . S
C501 C83 0.864 . S
C520 C40 0.824 . S
C537 C103 0.865 . S
C556 C145 0.882 . S
C573 C124 0.893 . S
C592 C167 0.907 . S
C609 C16 0.889 . S
C628 C37 0.794 . S
C645 C66 0.862 . S
C664 C58 0.927 . S
C681 C121 0.863 . S
C700 C100 0.911 . S
C717 C150 0.895 . S
C736 C142 0.899 . S
C753 C20 1.410 . S
C772 C67 1.275 . S
C789 C41 1.416 . S
C808 C49 1.334 . S
C825 C28 1.298 . S
C844 C62 1.411 . S
C861 C7 1.288 . S
C880 C82 1.433 . S
C897 C104 1.410 . S
C916 C151 1.278 . S
C933 C133 1.290 . S
C952 C125 1.404 . S
C969 C112 1.295 . S
C988 C146 1.421 . S
C1005 C166 1.415 . S
C1024 C91 1.284 . S
