# Generated by pormake.
# Topology sra, (4)-cn, num edge types: 1
# Building blocks:
#     Node 0, Type 0, BuildingBlock: AZAVOO_clean_sbu_0, # of connection points: 4
#     Node 1, Type 0, BuildingBlock: AZAVOO_clean_sbu_0, # of connection points: 4
#     Node 2, Type 0, BuildingBlock: AZAVOO_clean_sbu_0, # of connection points: 4
#     Node 3, Type 0, BuildingBlock: AZAVOO_clean_sbu_0, # of connection points: 4
#     Node 4, Type 0, BuildingBlock: AZAVOO_clean_sbu_0, # of connection points: 4
#     Node 5, Type 0, BuildingBlock: AZAVOO_clean_sbu_0, # of connection points: 4
#     Node 6, Type 0, BuildingBlock: AZAVOO_clean_sbu_0, # of connection points: 4
#     Node 7, Type 0, BuildingBlock: AZAVOO_clean_sbu_0, # of connection points: 4
#     Edge 8, Type (0, 0), BuildingBlock: ZUJKAS_clean_linker_0, # of connection points: 2
#     Edge 9, Type (0, 0), BuildingBlock: ZUJKAS_clean_linker_0, # of connection points: 2
#     Edge 10, Type (0, 0), BuildingBlock: ZUJKAS_clean_linker_0, # of connection points: 2
#     Edge 11, Type (0, 0), BuildingBlock: ZUJKAS_clean_linker_0, # of connection points: 2
#     Edge 12, Type (0, 0), BuildingBlock: ZUJKAS_clean_linker_0, # of connection points: 2
#     Edge 13, Type (0, 0), BuildingBlock: ZUJKAS_clean_linker_0, # of connection points: 2
#     Edge 14, Type (0, 0), BuildingBlock: ZUJKAS_clean_linker_0, # of connection points: 2
#     Edge 15, Type (0, 0), BuildingBlock: ZUJKAS_clean_linker_0, # of connection points: 2
#     Edge 16, Type (0, 0), BuildingBlock: ZUJKAS_clean_linker_0, # of connection points: 2
#     Edge 17, Type (0, 0), BuildingBlock: ZUJKAS_clean_linker_0, # of connection points: 2
#     Edge 18, Type (0, 0), BuildingBlock: ZUJKAS_clean_linker_0, # of connection points: 2
#     Edge 19, Type (0, 0), BuildingBlock: ZUJKAS_clean_linker_0, # of connection points: 2
#     Edge 20, Type (0, 0), BuildingBlock: ZUJKAS_clean_linker_0, # of connection points: 2
#     Edge 21, Type (0, 0), BuildingBlock: ZUJKAS_clean_linker_0, # of connection points: 2
#     Edge 22, Type (0, 0), BuildingBlock: ZUJKAS_clean_linker_0, # of connection points: 2
#     Edge 23, Type (0, 0), BuildingBlock: ZUJKAS_clean_linker_0, # of connection points: 2
# Relax obj value: 0.077
# Max RMSD: 0.073
# Mean RMSD: 0.073
data_MOF--net-sra--node1-AZAVOO_clean_sbu_0--edge1-ZUJKAS_clean_linker_0
_symmetry_space_group_name_H-M    P1
_symmetry_Int_Tables_number       1
_symmetry_cell_setting            triclinic
loop_
_symmetry_equiv_pos_as_xyz
'x, y, z'
_cell_length_a     34.793596
_cell_length_b     50.990293
_cell_length_c     57.017575
_cell_angle_alpha  90.009053
_cell_angle_beta   90.029985
_cell_angle_gamma 90.027238
loop_
_atom_site_label
_atom_site_type_symbol
_atom_site_fract_x
_atom_site_fract_y
_atom_site_fract_z
_atom_type_partial_charge
Mg0 Mg 0.01478 0.04942 0.16524 0.0
O1 O 0.02286 0.0934 0.15832 0.0
O2 O 0.07766 0.09909 0.13849 0.0
Mg3 Mg 0.10483 0.05874 0.13317 0.0
C4 C 0.04744 0.10819 0.14823 0.0
C5 C 0.94616 0.07279 0.19258 0.0
O6 O 0.97486 0.086 0.20179 0.0
O7 O -0.00233 0.04299 0.12713 0.0
O8 O 0.05426 0.04777 0.10907 0.0
O9 O 0.04755 0.05324 0.19844 0.0
O10 O 0.07398 0.044 0.16415 0.0
C11 C 0.01818 0.04301 0.10857 0.0
C12 C 0.07823 0.04932 0.18609 0.0
O13 O 0.95297 0.0565 0.17623 0.0
Mg14 Mg 0.00337 0.44664 0.16217 0.0
O15 O 0.00066 0.40226 0.15548 0.0
O16 O 0.94656 0.39404 0.13557 0.0
Mg17 Mg 0.91446 0.43265 0.13034 0.0
C18 C 0.97767 0.38638 0.14527 0.0
C19 C 0.07556 0.46049 0.18855 0.0
O20 O 0.05033 0.4782 0.1951 0.0
O21 O 0.0196 0.45384 0.12404 0.0
O22 O 0.96337 0.44655 0.10624 0.0
O23 O 0.97162 0.44105 0.19546 0.0
O24 O 0.94372 0.44874 0.16128 0.0
C25 C -0.00115 0.45305 0.10558 0.0
C26 C 0.94042 0.44319 0.18323 0.0
O27 O 0.06561 0.44349 0.17343 0.0
Mg28 Mg 0.01581 0.94974 0.82913 0.0
O29 O 0.02145 0.90488 0.83211 0.0
O30 O 0.07624 0.89646 0.85115 0.0
Mg31 Mg 0.10467 0.93527 0.86081 0.0
C32 C 0.04579 0.88875 0.84071 0.0
C33 C 0.94046 0.96626 0.80723 0.0
O34 O 0.96172 0.98755 0.8065 0.0
O35 O -0.00197 0.9522 0.86741 0.0
O36 O 0.05395 0.9445 0.88542 0.0
O37 O 0.04878 0.94904 0.79594 0.0
O38 O 0.0753 0.95366 0.83094 0.0
C39 C 0.01805 0.94983 0.88605 0.0
C40 C 0.07953 0.95073 0.80864 0.0
O41 O 0.95413 0.94583 0.81687 0.0
Mg42 Mg -0.00314 0.55058 0.82579 0.0
O43 O -0.00739 0.59541 0.82952 0.0
O44 O 0.93834 0.60422 0.84893 0.0
Mg45 Mg 0.90854 0.56563 0.85777 0.0
C46 C 0.96894 0.6117 0.83854 0.0
C47 C 0.06773 0.53679 0.79819 0.0
O48 O 0.04216 0.51906 0.79213 0.0
O49 O 0.01479 0.54716 0.86401 0.0
O50 O 0.95899 0.55494 0.88209 0.0
O51 O 0.96371 0.55229 0.79265 0.0
O52 O 0.93726 0.54743 0.82762 0.0
C53 C -0.00524 0.5492 0.88267 0.0
C54 C 0.93298 0.55069 0.80535 0.0
O55 O 0.05853 0.55386 0.81341 0.0
Mg56 Mg 0.51027 0.55029 0.66293 0.0
O57 O 0.51542 0.5951 0.65934 0.0
O58 O 0.57284 0.6037 0.64356 0.0
Mg59 Mg 0.60376 0.56498 0.63686 0.0
C60 C 0.54066 0.6113 0.65189 0.0
C61 C 0.43265 0.5341 0.68155 0.0
O62 O 0.45481 0.51371 0.68548 0.0
O63 O 0.49948 0.54647 0.62378 0.0
O64 O 0.55807 0.5541 0.60926 0.0
O65 O 0.53717 0.55226 0.6981 0.0
O66 O 0.56975 0.54709 0.66513 0.0
C67 C 0.5226 0.54831 0.60649 0.0
C68 C 0.56999 0.55058 0.68753 0.0
O69 O 0.44674 0.55378 0.67094 0.0
Mg70 Mg 0.50414 0.94925 0.66835 0.0
O71 O 0.49638 0.90472 0.66405 0.0
O72 O 0.4387 0.89773 0.64796 0.0
Mg73 Mg 0.41005 0.9374 0.64185 0.0
C74 C 0.47044 0.88925 0.65625 0.0
C75 C 0.5883 0.96411 0.67706 0.0
O76 O 0.57302 0.98683 0.67148 0.0
O77 O 0.51538 0.95338 0.62928 0.0
O78 O 0.45656 0.94727 0.61448 0.0
O79 O 0.47687 0.9474 0.70341 0.0
O80 O 0.44488 0.95403 0.67042 0.0
C81 C 0.49234 0.95221 0.61188 0.0
C82 C 0.44425 0.95018 0.69276 0.0
O83 O 0.5674 0.94371 0.67632 0.0
Mg84 Mg 0.51795 0.44152 0.32436 0.0
O85 O 0.52016 0.39711 0.33087 0.0
O86 O 0.5762 0.38795 0.34817 0.0
Mg87 Mg 0.60922 0.42632 0.35299 0.0
C88 C 0.54385 0.38075 0.33977 0.0
C89 C 0.44178 0.45856 0.30407 0.0
O90 O 0.4649 0.47841 0.29991 0.0
O91 O 0.50562 0.44869 0.36295 0.0
O92 O 0.56295 0.44038 0.37903 0.0
O93 O 0.54657 0.43592 0.28999 0.0
O94 O 0.57753 0.44316 0.32326 0.0
C95 C 0.52778 0.44739 0.38076 0.0
C96 C 0.57884 0.43791 0.30117 0.0
O97 O 0.45467 0.439 0.31537 0.0
Mg98 Mg 0.5033 0.04465 0.32593 0.0
O99 O 0.49376 0.08868 0.33167 0.0
O100 O 0.43583 0.09457 0.34768 0.0
Mg101 Mg 0.40901 0.05407 0.35296 0.0
C102 C 0.46742 0.10364 0.33968 0.0
C103 C 0.57839 0.04069 0.29956 0.0
O104 O 0.5553 0.02446 0.2885 0.0
O105 O 0.51525 0.03917 0.36484 0.0
O106 O 0.45636 0.04428 0.37983 0.0
O107 O 0.47514 0.04778 0.29117 0.0
O108 O 0.44417 0.03866 0.32404 0.0
C109 C 0.49226 0.03966 0.38228 0.0
C110 C 0.44293 0.04377 0.30192 0.0
O111 O 0.56599 0.0525 0.31765 0.0
H112 H 0.02397 0.35922 0.17547 0.0
H113 H 0.03676 0.31207 0.17567 0.0
H114 H 0.96625 0.30271 0.11394 0.0
H115 H 0.95197 0.34959 0.1143 0.0
H116 H 0.94957 0.2664 0.14413 0.0
H117 H 0.10793 0.27023 0.13594 0.0
H118 H 0.09129 0.28789 0.16115 0.0
H119 H 0.07816 0.29886 0.1322 0.0
C120 C 0.01145 0.34712 0.16184 0.0
C121 C 0.98702 0.3581 0.14484 0.0
C122 C 0.019 0.32018 0.16187 0.0
C123 C 0.0031 0.30386 0.14454 0.0
C124 C 0.97894 0.31488 0.12746 0.0
H125 H 0.0777 0.14403 0.11782 0.0
H126 H 0.0657 0.19122 0.11661 0.0
C127 C 0.9708 0.34169 0.12767 0.0
C128 C 0.01016 0.27513 0.14472 0.0
H129 H 0.08091 0.2288 0.1463 0.0
C130 C 0.97832 0.25819 0.14444 0.0
C131 C 0.04766 0.26436 0.14477 0.0
C132 C 0.08318 0.28129 0.14327 0.0
C133 C 0.98286 0.23085 0.14441 0.0
C134 C 0.02031 0.2201 0.14564 0.0
C135 C 0.05218 0.23702 0.14567 0.0
C136 C 0.02718 0.19137 0.14643 0.0
C137 C 0.94743 0.21389 0.14244 0.0
C138 C 0.00985 0.17573 0.16374 0.0
C139 C 0.0161 0.14866 0.16419 0.0
C140 C 0.04063 0.13681 0.14772 0.0
C141 C 0.0587 0.15258 0.13078 0.0
C142 C 0.05188 0.17957 0.13007 0.0
H143 H 0.9232 0.2247 0.13421 0.0
H144 H 0.95314 0.19598 0.13193 0.0
H145 H 0.93812 0.20785 0.16024 0.0
H146 H -0.00834 0.18445 0.17701 0.0
H147 H 0.00217 0.13707 0.17766 0.0
H148 H 0.09216 0.84874 0.85548 0.0
H149 H 0.0801 0.80171 0.85291 0.0
H150 H 0.97121 0.81664 0.81936 0.0
H151 H 0.98315 0.86388 0.82154 0.0
H152 H 0.01985 0.77438 0.87287 0.0
H153 H 0.02107 0.76207 0.77611 0.0
H154 H 0.03963 0.79102 0.79044 0.0
H155 H 0.98872 0.78691 0.78656 0.0
C156 C 0.0657 0.84212 0.8474 0.0
C157 C 0.03863 0.86017 0.83869 0.0
C158 C 0.05889 0.81519 0.84596 0.0
C159 C 0.02502 0.8057 0.83569 0.0
C160 C -0.0021 0.82357 0.82693 0.0
H161 H 0.92541 0.65204 0.85567 0.0
H162 H 0.93961 0.69886 0.85443 0.0
C163 C 0.00468 0.85057 0.82834 0.0
C164 C 0.01745 0.77712 0.83521 0.0
H165 H 0.00074 0.72532 0.79861 0.0
C166 C 0.01577 0.76363 0.85663 0.0
C167 C 0.01263 0.76313 0.81398 0.0
C168 C 0.01593 0.77642 0.79043 0.0
C169 C 0.00878 0.73656 0.85744 0.0
C170 C 0.00273 0.72272 0.83627 0.0
C171 C 0.00508 0.73608 0.8148 0.0
C172 C -0.00634 0.69436 0.83616 0.0
C173 C 0.00839 0.72295 0.88095 0.0
C174 C 0.01891 0.67638 0.82572 0.0
C175 C 0.01086 0.64951 0.82631 0.0
C176 C 0.97726 0.64019 0.83725 0.0
C177 C 0.95168 0.65843 0.84724 0.0
C178 C 0.95978 0.68523 0.84664 0.0
H179 H 0.02298 0.7348 0.89467 0.0
H180 H 0.97818 0.71984 0.88652 0.0
H181 H 0.02262 0.7035 0.87987 0.0
H182 H 0.04514 0.68312 0.81744 0.0
H183 H 0.03111 0.63606 0.81836 0.0
H184 H 0.5872 0.65145 0.63754 0.0
H185 H 0.57457 0.69844 0.63959 0.0
H186 H 0.46372 0.68317 0.67048 0.0
H187 H 0.47615 0.63596 0.66875 0.0
H188 H 0.51417 0.72622 0.61863 0.0
H189 H 0.51306 0.73669 0.71565 0.0
H190 H 0.53241 0.70817 0.70106 0.0
H191 H 0.48135 0.71197 0.7042 0.0
C192 C 0.56013 0.65798 0.64486 0.0
C193 C 0.53273 0.63985 0.65305 0.0
C194 C 0.55299 0.68488 0.646 0.0
C195 C 0.51845 0.69426 0.65545 0.0
C196 C 0.49087 0.67632 0.66351 0.0
H197 H 0.42423 0.85049 0.63865 0.0
H198 H 0.43594 0.80329 0.63873 0.0
C199 C 0.49795 0.64934 0.66237 0.0
C200 C 0.51108 0.72284 0.65622 0.0
H201 H 0.49547 0.77418 0.69349 0.0
C202 C 0.51008 0.73673 0.63498 0.0
C203 C 0.50622 0.73648 0.67762 0.0
C204 C 0.50861 0.72267 0.70097 0.0
C205 C 0.50391 0.7639 0.63454 0.0
C206 C 0.49817 0.77744 0.65589 0.0
C207 C 0.49962 0.76364 0.67716 0.0
C208 C 0.49077 0.806 0.65643 0.0
C209 C 0.50415 0.778 0.61127 0.0
C210 C 0.51741 0.82308 0.66682 0.0
C211 C 0.51086 0.85014 0.66684 0.0
C212 C 0.47734 0.86055 0.65662 0.0
C213 C 0.45043 0.84323 0.64659 0.0
C214 C 0.45709 0.81623 0.64653 0.0
H215 H 0.5175 0.76596 0.59723 0.0
H216 H 0.47413 0.78239 0.606 0.0
H217 H 0.51994 0.79687 0.61261 0.0
H218 H 0.54352 0.81549 0.67464 0.0
H219 H 0.53212 0.86287 0.6748 0.0
H220 H 0.47926 0.35704 0.32202 0.0
H221 H 0.46327 0.3103 0.32257 0.0
H222 H 0.56948 0.29373 0.35861 0.0
H223 H 0.58566 0.34031 0.35837 0.0
H224 H 0.50589 0.26848 0.3031 0.0
H225 H 0.48761 0.25718 0.39927 0.0
H226 H 0.48788 0.28879 0.38498 0.0
H227 H 0.53232 0.27203 0.39077 0.0
C228 C 0.49916 0.3435 0.33019 0.0
C229 C 0.53371 0.3525 0.34023 0.0
C230 C 0.48997 0.31681 0.33045 0.0
C231 C 0.51495 0.29866 0.34091 0.0
C232 C 0.54948 0.3075 0.35084 0.0
H233 H 0.52952 0.13072 0.3227 0.0
H234 H 0.53949 0.17816 0.3226 0.0
C235 C 0.55875 0.33415 0.35056 0.0
C236 C 0.50555 0.27034 0.34083 0.0
H237 H 0.49032 0.21786 0.37682 0.0
C238 C 0.50225 0.25741 0.3192 0.0
C239 C 0.50041 0.25607 0.36186 0.0
C240 C 0.50186 0.26922 0.38555 0.0
C241 C 0.49491 0.23038 0.31805 0.0
C242 C 0.49124 0.21592 0.3391 0.0
C243 C 0.49354 0.22898 0.36072 0.0
C244 C 0.48508 0.1872 0.33907 0.0
C245 C 0.49084 0.21753 0.29433 0.0
C246 C 0.45154 0.17656 0.34883 0.0
C247 C 0.44576 0.14944 0.34901 0.0
C248 C 0.4736 0.13242 0.33958 0.0
C249 C 0.50739 0.14321 0.33002 0.0
C250 C 0.51308 0.17034 0.32982 0.0
H251 H 0.48475 0.23212 0.28034 0.0
H252 H 0.51809 0.20741 0.28985 0.0
H253 H 0.46747 0.20269 0.29447 0.0
H254 H 0.42971 0.18928 0.35617 0.0
H255 H 0.41946 0.14185 0.35657 0.0
H256 H 0.37168 0.03044 0.318 0.0
H257 H 0.31058 0.03344 0.29691 0.0
H258 H 0.36923 0.06543 0.23677 0.0
H259 H 0.43058 0.06254 0.25771 0.0
H260 H 0.29722 0.09257 0.25302 0.0
H261 H 0.28336 0.98501 0.23866 0.0
H262 H 0.29448 0.99534 0.26808 0.0
H263 H 0.32882 0.00059 0.24508 0.0
C264 C 0.37159 0.03826 0.30034 0.0
C265 C 0.40592 0.04622 0.28948 0.0
C266 C 0.33672 0.03984 0.28831 0.0
C267 C 0.33566 0.04946 0.2653 0.0
C268 C 0.36967 0.0579 0.25454 0.0
H269 H 0.14703 0.03603 0.16643 0.0
H270 H 0.2106 0.03796 0.18471 0.0
C271 C 0.40462 0.05616 0.26649 0.0
C272 C 0.29899 0.05038 0.25237 0.0
H273 H 0.23011 0.01131 0.22803 0.0
C274 C 0.28252 0.07487 0.24745 0.0
C275 C 0.28033 0.02719 0.245 0.0
C276 C 0.29765 0.00049 0.24926 0.0
C277 C 0.24716 0.07673 0.23574 0.0
C278 C 0.22799 0.0535 0.22894 0.0
C279 C 0.24492 0.02905 0.2334 0.0
C280 C 0.18999 0.05403 0.21748 0.0
C281 C 0.23058 0.10345 0.2306 0.0
C282 C 0.15752 0.06241 0.22994 0.0
C283 C 0.12117 0.06125 0.21961 0.0
C284 C 0.1168 0.0517 0.19663 0.0
C285 C 0.14951 0.04365 0.18409 0.0
C286 C 0.1858 0.04468 0.1945 0.0
H287 H 0.25248 0.11919 0.2324 0.0
H288 H 0.21842 0.10413 0.2126 0.0
H289 H 0.20696 0.10756 0.24314 0.0
H290 H 0.16021 0.06931 0.24784 0.0
H291 H 0.09649 0.06755 0.22971 0.0
H292 H 0.59063 0.42022 0.25651 0.0
H293 H 0.652 0.41689 0.23568 0.0
H294 H 0.71174 0.44388 0.2974 0.0
H295 H 0.65068 0.44729 0.31838 0.0
H296 H 0.7255 0.47233 0.25275 0.0
H297 H 0.74467 0.36408 0.2468 0.0
H298 H 0.69816 0.37716 0.23934 0.0
H299 H 0.71504 0.37929 0.269 0.0
C300 C 0.61687 0.42516 0.26573 0.0
C301 C 0.61587 0.43401 0.28908 0.0
C302 C 0.65185 0.42313 0.25384 0.0
C303 C 0.68621 0.42997 0.26512 0.0
C304 C 0.6854 0.43838 0.28851 0.0
H305 H 0.92518 0.42391 0.22688 0.0
H306 H 0.86228 0.41928 0.24565 0.0
C307 C 0.65052 0.44026 0.30046 0.0
C308 C 0.72278 0.43017 0.25208 0.0
H309 H 0.79053 0.39052 0.22729 0.0
C310 C 0.73974 0.45448 0.24713 0.0
C311 C 0.74108 0.40678 0.24492 0.0
C312 C 0.72409 0.38026 0.25034 0.0
C313 C 0.77472 0.45605 0.23508 0.0
C314 C 0.79297 0.4327 0.2278 0.0
C315 C 0.77613 0.40834 0.23282 0.0
C316 C 0.83033 0.43339 0.21567 0.0
C317 C 0.79234 0.48262 0.23051 0.0
C318 C 0.83283 0.44242 0.19251 0.0
C319 C 0.86864 0.44504 0.18172 0.0
C320 C 0.90244 0.43874 0.194 0.0
C321 C 0.89966 0.42903 0.21702 0.0
C322 C 0.86382 0.42628 0.22773 0.0
H323 H 0.77739 0.49849 0.24024 0.0
H324 H 0.82317 0.48264 0.23556 0.0
H325 H 0.79064 0.48706 0.21148 0.0
H326 H 0.80712 0.44792 0.18297 0.0
H327 H 0.86986 0.45262 0.16399 0.0
H328 H 0.0966 0.94275 0.76251 0.0
H329 H 0.16015 0.93981 0.7446 0.0
H330 H 0.21298 0.9496 0.8125 0.0
H331 H 0.14952 0.95345 0.83048 0.0
H332 H 0.24476 0.98116 0.77968 0.0
H333 H 0.23582 0.8797 0.74536 0.0
H334 H 0.19661 0.89983 0.73572 0.0
H335 H 0.20198 0.89251 0.76643 0.0
C336 C 0.12172 0.9441 0.77368 0.0
C337 C 0.118 0.94809 0.79797 0.0
C338 C 0.15802 0.94219 0.76343 0.0
C339 C 0.19124 0.94391 0.7773 0.0
C340 C 0.18765 0.94794 0.80153 0.0
H341 H 0.43432 0.94081 0.73953 0.0
H342 H 0.37358 0.93845 0.76111 0.0
C343 C 0.15134 0.95004 0.81179 0.0
C344 C 0.2297 0.943 0.76629 0.0
H345 H 0.28674 0.90643 0.73018 0.0
C346 C 0.25414 0.96469 0.7691 0.0
C347 C 0.24186 0.92143 0.75254 0.0
C348 C 0.21785 0.89694 0.75001 0.0
C349 C 0.28995 0.96575 0.75789 0.0
C350 C 0.30148 0.94456 0.74361 0.0
C351 C 0.27749 0.92267 0.7411 0.0
C352 C 0.33802 0.94521 0.7306 0.0
C353 C 0.31486 0.98975 0.76081 0.0
C354 C 0.3378 0.94955 0.70634 0.0
C355 C 0.37235 0.95107 0.69399 0.0
C356 C 0.40763 0.94798 0.70569 0.0
C357 C 0.40763 0.94326 0.73 0.0
C358 C 0.37304 0.94192 0.74236 0.0
H359 H 0.29981 0.00575 0.77032 0.0
H360 H 0.34111 0.98446 0.77081 0.0
H361 H 0.32414 0.99718 0.7434 0.0
H362 H 0.3109 0.95217 0.69706 0.0
H363 H 0.37131 0.95497 0.67535 0.0
H364 H 0.579 0.55843 0.73458 0.0
H365 H 0.63939 0.56184 0.75645 0.0
H366 H 0.70327 0.55275 0.6922 0.0
H367 H 0.64327 0.5489 0.67023 0.0
H368 H 0.70126 0.52081 0.75452 0.0
H369 H 0.74776 0.62035 0.72641 0.0
H370 H 0.69813 0.60989 0.72557 0.0
H371 H 0.73121 0.59863 0.70365 0.0
C372 C 0.60589 0.55733 0.72506 0.0
C373 C 0.60634 0.55359 0.70062 0.0
C374 C 0.64027 0.5593 0.73759 0.0
C375 C 0.67555 0.55786 0.72583 0.0
C376 C 0.67618 0.55432 0.70147 0.0
H377 H 0.91582 0.55766 0.75912 0.0
H378 H 0.85218 0.56006 0.74115 0.0
C379 C 0.64186 0.55212 0.68895 0.0
C380 C 0.71187 0.55862 0.73911 0.0
H381 H 0.7932 0.5948 0.74731 0.0
C382 C 0.7213 0.53704 0.75319 0.0
C383 C 0.73776 0.57981 0.73709 0.0
C384 C 0.72828 0.60363 0.72251 0.0
C385 C 0.75678 0.53568 0.76479 0.0
C386 C 0.78291 0.55684 0.76268 0.0
C387 C 0.77307 0.57864 0.7489 0.0
C388 C 0.82123 0.55626 0.77389 0.0
C389 C 0.76649 0.51117 0.7784 0.0
C390 C 0.82487 0.55376 0.79829 0.0
C391 C 0.8612 0.55208 0.80859 0.0
C392 C 0.89451 0.55335 0.79469 0.0
C393 C 0.89073 0.55659 0.77032 0.0
C394 C 0.8544 0.55802 0.76002 0.0
H395 H 0.74799 0.49437 0.77321 0.0
H396 H 0.79701 0.50553 0.77579 0.0
H397 H 0.7619 0.51485 0.79738 0.0
H398 H 0.79961 0.55293 0.80936 0.0
H399 H 0.86306 0.54954 0.82739 0.0
H400 H 0.63911 0.00443 0.68291 0.0
H401 H 0.70048 0.00334 0.70376 0.0
H402 H 0.68687 0.9203 0.71551 0.0
H403 H 0.62571 0.92109 0.69444 0.0
H404 H 0.7079 0.98837 0.75066 0.0
H405 H 0.7983 0.92609 0.69288 0.0
H406 H 0.75436 0.94128 0.6829 0.0
H407 H 0.75262 0.91205 0.70046 0.0
C408 C 0.64945 0.98584 0.68956 0.0
C409 C 0.62747 0.96286 0.68708 0.0
C410 C 0.68449 0.98527 0.70151 0.0
C411 C 0.69828 0.96172 0.71102 0.0
C412 C 0.67704 0.93859 0.70794 0.0
H413 H 0.8927 0.92408 0.80103 0.0
H414 H 0.83254 0.92277 0.77871 0.0
C415 C 0.642 0.93912 0.69598 0.0
C416 C 0.73331 0.96181 0.72573 0.0
H417 H 0.82361 0.93625 0.73049 0.0
C418 C 0.73328 0.97708 0.74621 0.0
C419 C 0.76618 0.94687 0.71994 0.0
C420 C 0.76817 0.9308 0.69775 0.0
C421 C 0.76523 0.97769 0.76119 0.0
C422 C 0.79821 0.96293 0.75531 0.0
C423 C 0.79816 0.94748 0.73494 0.0
C424 C 0.83355 0.96396 0.76968 0.0
C425 C 0.76323 0.99383 0.78335 0.0
C426 C 0.85389 0.98757 0.77195 0.0
C427 C 0.88814 0.98841 0.78466 0.0
C428 C 0.90279 0.9656 0.79524 0.0
C429 C 0.88209 0.94201 0.79316 0.0
C430 C 0.84782 0.94119 0.78038 0.0
H431 H 0.73306 0.99824 0.78837 0.0
H432 H 0.77749 0.98356 0.79816 0.0
H433 H 0.7783 0.01274 0.78049 0.0
H434 H 0.84364 0.00526 0.76349 0.0
H435 H 0.90344 0.00686 0.78585 0.0
H436 H 0.38113 0.5747 0.67983 0.0
H437 H 0.31848 0.57717 0.69931 0.0
H438 H 0.33284 0.4982 0.72486 0.0
H439 H 0.39545 0.49556 0.7057 0.0
H440 H 0.25215 0.54475 0.69481 0.0
H441 H 0.31353 0.54209 0.78466 0.0
H442 H 0.34226 0.54889 0.759 0.0
H443 H 0.32914 0.51572 0.76607 0.0
C444 C 0.37085 0.5578 0.68948 0.0
C445 C 0.3934 0.53502 0.69141 0.0
C446 C 0.3351 0.55927 0.70059 0.0
C447 C 0.32151 0.53805 0.71386 0.0
C448 C 0.34327 0.51497 0.71509 0.0
H449 H 0.09528 0.50276 0.76539 0.0
H450 H 0.15673 0.50472 0.74485 0.0
C451 C 0.37894 0.51347 0.70401 0.0
C452 C 0.2847 0.54002 0.72665 0.0
H453 H 0.24574 0.53694 0.78149 0.0
C454 C 0.25069 0.54322 0.71376 0.0
C455 C 0.28307 0.53842 0.75139 0.0
C456 C 0.31895 0.53634 0.76616 0.0
C457 C 0.21482 0.54401 0.72497 0.0
C458 C 0.21308 0.54119 0.74964 0.0
C459 C 0.2472 0.53884 0.76257 0.0
C460 C 0.17607 0.54001 0.76231 0.0
C461 C 0.17914 0.54796 0.71034 0.0
C462 C 0.16717 0.55876 0.77949 0.0
C463 C 0.13213 0.5576 0.79143 0.0
C464 C 0.10556 0.53757 0.78644 0.0
C465 C 0.11499 0.51854 0.76955 0.0
C466 C 0.14998 0.51972 0.75766 0.0
H467 H 0.18596 0.55691 0.69307 0.0
H468 H 0.16541 0.52865 0.70707 0.0
H469 H 0.15807 0.56064 0.71956 0.0
H470 H 0.18716 0.57445 0.78345 0.0
H471 H 0.12573 0.57252 0.80438 0.0
H472 H 0.63243 0.07493 0.31665 0.0
H473 H 0.69477 0.08585 0.29911 0.0
H474 H 0.67364 0.0304 0.24346 0.0
H475 H 0.61148 0.0195 0.26065 0.0
H476 H 0.7574 0.05185 0.2888 0.0
H477 H 0.69964 0.09895 0.20856 0.0
H478 H 0.67066 0.09315 0.23432 0.0
H479 H 0.6801 0.06693 0.21403 0.0
C480 C 0.64111 0.06504 0.3007 0.0
C481 C 0.61693 0.04646 0.28996 0.0
C482 C 0.67664 0.07134 0.2907 0.0
C483 C 0.68833 0.0593 0.26977 0.0
C484 C 0.66468 0.04033 0.25934 0.0
H485 H 0.88158 0.04602 0.17942 0.0
H486 H 0.81902 0.04606 0.19885 0.0
C487 C 0.62928 0.034 0.2693 0.0
C488 C 0.72569 0.06593 0.25895 0.0
H489 H 0.76622 0.08733 0.20793 0.0
C490 C 0.75946 0.05997 0.27126 0.0
C491 C 0.72808 0.07657 0.2361 0.0
C492 C 0.6927 0.08452 0.22254 0.0
C493 C 0.79568 0.06314 0.26084 0.0
C494 C 0.798 0.07296 0.23767 0.0
C495 C 0.76426 0.07974 0.22566 0.0
C496 C 0.83504 0.07472 0.22508 0.0
C497 C 0.83103 0.05486 0.27428 0.0
C498 C 0.86434 0.09139 0.23303 0.0
C499 C 0.90019 0.0914 0.22199 0.0
C500 C 0.90721 0.07478 0.20276 0.0
C501 C 0.8772 0.05895 0.19425 0.0
C502 C 0.84142 0.05895 0.20531 0.0
H503 H 0.82373 0.0429 0.28995 0.0
H504 H 0.85069 0.04335 0.26291 0.0
H505 H 0.84671 0.07258 0.28031 0.0
H506 H 0.85967 0.10408 0.248 0.0
H507 H 0.92261 0.10398 0.22886 0.0
H508 H 0.13268 0.42431 0.18171 0.0
H509 H 0.19457 0.42175 0.20209 0.0
H510 H 0.16686 0.49188 0.24083 0.0
H511 H 0.10494 0.49446 0.22084 0.0
H512 H 0.25441 0.4583 0.2038 0.0
H513 H 0.19505 0.43927 0.29245 0.0
H514 H 0.1667 0.43599 0.26607 0.0
H515 H 0.17529 0.46785 0.27856 0.0
C516 C 0.13979 0.4392 0.19455 0.0
C517 C 0.11381 0.45949 0.19978 0.0
C518 C 0.1751 0.43768 0.20618 0.0
C519 C 0.18487 0.45633 0.22327 0.0
C520 C 0.15943 0.47695 0.22809 0.0
H521 H 0.4066 0.49724 0.27898 0.0
H522 H 0.34403 0.49547 0.25964 0.0
C523 C 0.12416 0.47847 0.21652 0.0
C524 C 0.222 0.45462 0.23578 0.0
H525 H 0.26157 0.45047 0.29046 0.0
C526 C 0.25603 0.4564 0.22272 0.0
C527 C 0.22394 0.45177 0.26044 0.0
C528 C 0.18831 0.44834 0.27521 0.0
C529 C 0.29205 0.45623 0.23375 0.0
C530 C 0.29391 0.45465 0.2585 0.0
C531 C 0.25995 0.45201 0.27151 0.0
C532 C 0.33091 0.45605 0.27117 0.0
C533 C 0.32781 0.45765 0.21883 0.0
C534 C 0.34352 0.43482 0.2848 0.0
C535 C 0.37921 0.43582 0.29603 0.0
C536 C 0.40273 0.45814 0.29387 0.0
C537 C 0.38934 0.47969 0.28085 0.0
C538 C 0.3537 0.47867 0.26966 0.0
H539 H 0.32196 0.45175 0.20041 0.0
H540 H 0.33859 0.47813 0.21866 0.0
H541 H 0.35082 0.44488 0.22601 0.0
H542 H 0.32611 0.41728 0.28631 0.0
H543 H 0.38867 0.41893 0.30599 0.0
H544 H 0.04831 0.05081 0.0651 0.0
H545 H 0.02326 0.03542 0.02777 0.0
H546 H 0.92315 0.00417 0.06253 0.0
H547 H 0.94832 0.01947 0.10037 0.0
H548 H 0.95951 0.96795 0.03441 0.0
H549 H 0.93738 0.05915 0.98445 0.0
H550 H 0.98366 0.05954 -0.00173 0.0
H551 H 0.94088 0.05875 0.01609 0.0
C552 C 0.02067 0.04103 0.06487 0.0
C553 C 0.00043 0.03624 0.08576 0.0
C554 C 0.00616 0.03248 0.04342 0.0
C555 C 0.97103 0.01904 0.04231 0.0
C556 C 0.95012 0.01478 0.06301 0.0
H557 H 0.94737 0.97162 0.89521 0.0
H558 H 0.92214 0.98502 0.93353 0.0
C559 C 0.96454 0.02354 0.08458 0.0
C560 C 0.95924 0.00696 0.01982 0.0
H561 H 0.95684 0.02075 0.96137 0.0
C562 C 0.95769 0.9795 0.01847 0.0
C563 C 0.95588 0.02196 -0.00093 0.0
C564 C 0.95409 0.0515 -0.00041 0.0
C565 C 0.95726 0.96667 -0.0033 0.0
C566 C 0.95911 0.98174 0.97591 0.0
C567 C 0.95618 0.00915 0.97731 0.0
C568 C 0.97057 0.97002 0.95319 0.0
C569 C 0.95683 0.9371 -0.00378 0.0
C570 C 0.00595 0.95697 0.95158 0.0
C571 C 0.02048 0.94942 0.92984 0.0
C572 C 6e-05 0.95493 0.90914 0.0
C573 C 0.96381 0.96705 0.91082 0.0
C574 C 0.94932 0.97472 0.93268 0.0
H575 H 0.94056 0.92915 0.0114 0.0
H576 H 0.94385 0.92951 0.97976 0.0
H577 H 0.98675 0.92972 -0.00246 0.0
H578 H 0.02336 0.95374 0.96707 0.0
H579 H 0.04841 0.94007 0.92924 0.0
H580 H 0.06743 0.53034 0.89177 0.0
H581 H 0.09292 0.51593 0.92977 0.0
H582 H 0.98745 0.53975 0.96328 0.0
H583 H 0.96218 0.55457 0.92584 0.0
H584 H 0.05333 0.55165 0.98957 0.0
H585 H 0.05221 0.44774 0.9589 0.0
H586 H 0.08059 0.4711 0.94283 0.0
H587 H 0.02913 0.47346 0.94237 0.0
C588 C 0.04991 0.53286 0.9073 0.0
C589 C 0.0125 0.54326 0.90569 0.0
C590 C 0.06449 0.52452 0.92896 0.0
C591 C 0.04183 0.52642 0.94925 0.0
C592 C 0.00542 0.53808 0.94783 0.0
H593 H 0.96524 0.44923 0.06259 0.0
H594 H 0.98904 0.46588 0.02543 0.0
C595 C 0.99091 0.54641 0.92633 0.0
C596 C 0.05368 0.51446 0.97177 0.0
H597 H 0.05606 0.45503 -0.00079 0.0
C598 C 0.05509 0.53055 0.99173 0.0
C599 C 0.05601 0.48691 0.9744 0.0
C600 C 0.05427 0.46866 0.95358 0.0
C601 C 0.05513 0.51977 0.01438 0.0
C602 C 0.05433 0.4922 0.01699 0.0
C603 C 0.05664 0.47616 -0.00295 0.0
C604 C 0.04307 0.47989 0.03947 0.0
C605 C 0.0525 0.53791 0.03524 0.0
C606 C 0.06598 0.48175 0.05967 0.0
C607 C 0.05227 0.4723 0.08118 0.0
C608 C 0.01548 0.46088 0.08272 0.0
C609 C -0.00648 0.45811 0.06216 0.0
C610 C 0.00718 0.4675 0.04082 0.0
H611 H 0.04982 0.55881 0.02997 0.0
H612 H 0.02735 0.53264 0.04626 0.0
H613 H 0.07871 0.53582 0.04617 0.0
H614 H 0.094 0.49096 0.05889 0.0
H615 H 0.07002 0.47459 0.09665 0.0
H616 H 0.56252 0.44056 0.4232 0.0
H617 H 0.54204 0.45756 0.46107 0.0
H618 H 0.43988 0.48975 0.42937 0.0
H619 H 0.46032 0.47288 0.39108 0.0
H620 H 0.48119 0.52591 0.45581 0.0
H621 H 0.45801 0.43525 0.50687 0.0
H622 H 0.50329 0.43463 0.49185 0.0
H623 H 0.45932 0.43552 0.47518 0.0
C624 C 0.53541 0.45093 0.42424 0.0
C625 C 0.51314 0.45543 0.40406 0.0
C626 C 0.52357 0.46044 0.44599 0.0
C627 C 0.48917 0.47456 0.44808 0.0
C628 C 0.46635 0.47866 0.42812 0.0
H629 H 0.45392 0.52592 0.59364 0.0
H630 H 0.43516 0.51088 0.55445 0.0
C631 C 0.47808 0.46899 0.40629 0.0
C632 C 0.47958 0.48709 0.47074 0.0
H633 H 0.47536 0.47402 0.52931 0.0
C634 C 0.47892 0.51458 0.47185 0.0
C635 C 0.47589 0.47233 0.4916 0.0
C636 C 0.47373 0.44279 0.49131 0.0
C637 C 0.47806 0.52767 0.49349 0.0
C638 C 0.47842 0.51283 0.51443 0.0
C639 C 0.47562 0.4854 0.51324 0.0
C640 C 0.48678 0.52495 0.53746 0.0
C641 C 0.47824 0.55725 0.49373 0.0
C642 C 0.52186 0.53798 0.54083 0.0
C643 C 0.53272 0.54648 0.56311 0.0
C644 C 0.5088 0.54199 0.58257 0.0
C645 C 0.47299 0.52974 0.57903 0.0
C646 C 0.4622 0.52112 0.55667 0.0
H647 H 0.46436 0.56528 0.47771 0.0
H648 H 0.46319 0.56508 0.5094 0.0
H649 H 0.50841 0.56432 0.49403 0.0
H650 H 0.54168 0.54061 0.52637 0.0
H651 H 0.56045 0.55587 0.56515 0.0
H652 H 0.45565 0.94354 0.57034 0.0
H653 H 0.47601 0.95705 0.53134 0.0
H654 H 0.58167 0.98766 0.55993 0.0
H655 H 0.56138 0.97426 0.59935 0.0
H656 H 0.54163 0.02347 0.53237 0.0
H657 H 0.55641 0.9293 0.48541 0.0
H658 H 0.51191 0.93093 0.50122 0.0
H659 H 0.55672 0.9315 0.51705 0.0
C660 C 0.48349 0.95279 0.56839 0.0
C661 C 0.5068 0.95792 0.58801 0.0
C662 C 0.49526 0.96028 0.546 0.0
C663 C 0.53059 0.97299 0.54271 0.0
C664 C 0.55446 0.97762 0.56212 0.0
H665 H 0.56093 0.01677 0.3944 0.0
H666 H 0.58129 0.00279 0.43367 0.0
C667 C 0.54281 0.96994 0.58459 0.0
C668 C 0.54005 0.98381 0.51933 0.0
H669 H 0.54013 0.96717 0.46141 0.0
C670 C 0.54236 0.01115 0.51687 0.0
C671 C 0.54169 0.96773 0.49916 0.0
C672 C 0.54197 0.93821 0.50085 0.0
C673 C 0.54269 0.02288 0.49463 0.0
C674 C 0.5402 0.00684 0.47446 0.0
C675 C 0.54151 0.97947 0.47691 0.0
C676 C 0.53074 0.01784 0.45116 0.0
C677 C 0.54401 0.05238 0.49292 0.0
C678 C 0.49568 0.03094 0.44806 0.0
C679 C 0.48388 0.03874 0.42578 0.0
C680 C 0.50688 0.03357 0.40605 0.0
C681 C 0.54262 0.02114 0.40925 0.0
C682 C 0.5543 0.01312 0.43164 0.0
H683 H 0.55884 0.06108 0.50834 0.0
H684 H 0.5589 0.05885 0.4767 0.0
H685 H 0.51422 0.06014 0.49258 0.0
H686 H 0.47668 0.03427 0.46281 0.0
H687 H 0.45625 0.04831 0.42397 0.0
loop_
_geom_bond_atom_site_label_1
_geom_bond_atom_site_label_2
_geom_bond_distance
_geom_bond_site_symmetry_2
_ccdc_geom_bond_type
Mg0 O1 2.028 . S
Mg0 O7 1.986 . S
Mg0 O9 2.114 . S
Mg0 O10 2.251 . S
Mg0 O13 2.010 1_455 S
O1 Mg0 2.028 . S
O1 C4 1.250 . S
O2 Mg3 2.028 . S
O2 C4 1.248 . S
Mg3 O2 2.028 . S
Mg3 O8 2.032 . S
Mg3 O10 2.079 . S
C4 O1 1.250 . S
C4 O2 1.248 . S
C5 O6 1.264 . S
C5 O13 1.249 . S
O6 C5 1.264 . S
O7 Mg0 1.986 . S
O7 C11 1.246 . S
O8 Mg3 2.032 . S
O8 C11 1.259 . S
O9 Mg0 2.114 . S
O9 C12 1.252 . S
O10 Mg0 2.251 . S
O10 Mg3 2.079 . S
O10 C12 1.273 . S
C11 O7 1.246 . S
C11 O8 1.259 . S
C12 O9 1.252 . S
C12 O10 1.273 . S
O13 Mg0 2.010 1_655 S
O13 C5 1.249 . S
Mg14 O15 2.028 . S
Mg14 O21 1.986 . S
Mg14 O23 2.114 1_455 S
Mg14 O24 2.251 1_455 S
Mg14 O27 2.010 . S
O15 Mg14 2.028 . S
O15 C18 1.250 . S
O16 Mg17 2.028 . S
O16 C18 1.248 1_655 S
Mg17 O16 2.028 . S
Mg17 O22 2.032 . S
Mg17 O24 2.079 . S
C18 O15 1.250 . S
C18 O16 1.248 1_455 S
C19 O20 1.264 . S
C19 O27 1.249 . S
O20 C19 1.264 . S
O21 Mg14 1.986 . S
O21 C25 1.246 . S
O22 Mg17 2.032 . S
O22 C25 1.259 1_655 S
O23 Mg14 2.114 1_655 S
O23 C26 1.252 . S
O24 Mg14 2.251 1_655 S
O24 Mg17 2.079 . S
O24 C26 1.273 . S
C25 O21 1.246 . S
C25 O22 1.259 1_455 S
C26 O23 1.252 . S
C26 O24 1.273 . S
O27 Mg14 2.010 . S
O27 C19 1.249 . S
Mg28 O29 2.028 . S
Mg28 O35 1.986 . S
Mg28 O37 2.114 . S
Mg28 O38 2.251 . S
Mg28 O41 2.010 1_455 S
O29 Mg28 2.028 . S
O29 C32 1.250 . S
O30 Mg31 2.028 . S
O30 C32 1.248 . S
Mg31 O30 2.028 . S
Mg31 O36 2.032 . S
Mg31 O38 2.079 . S
C32 O29 1.250 . S
C32 O30 1.248 . S
C33 O34 1.264 . S
C33 O41 1.249 . S
O34 C33 1.264 . S
O35 Mg28 1.986 . S
O35 C39 1.246 . S
O36 Mg31 2.032 . S
O36 C39 1.259 . S
O37 Mg28 2.114 . S
O37 C40 1.252 . S
O38 Mg28 2.251 . S
O38 Mg31 2.079 . S
O38 C40 1.273 . S
C39 O35 1.246 . S
C39 O36 1.259 . S
C40 O37 1.252 . S
C40 O38 1.273 . S
O41 Mg28 2.010 1_655 S
O41 C33 1.249 . S
Mg42 O43 2.028 . S
Mg42 O49 1.986 . S
Mg42 O51 2.114 1_455 S
Mg42 O52 2.251 1_455 S
Mg42 O55 2.010 . S
O43 Mg42 2.028 . S
O43 C46 1.250 . S
O44 Mg45 2.028 . S
O44 C46 1.248 1_655 S
Mg45 O44 2.028 . S
Mg45 O50 2.032 . S
Mg45 O52 2.079 . S
C46 O43 1.250 . S
C46 O44 1.248 1_455 S
C47 O48 1.264 . S
C47 O55 1.249 . S
O48 C47 1.264 . S
O49 Mg42 1.986 . S
O49 C53 1.246 . S
O50 Mg45 2.032 . S
O50 C53 1.259 1_655 S
O51 Mg42 2.114 1_655 S
O51 C54 1.252 . S
O52 Mg42 2.251 1_655 S
O52 Mg45 2.079 . S
O52 C54 1.273 . S
C53 O49 1.246 . S
C53 O50 1.259 1_455 S
C54 O51 1.252 . S
C54 O52 1.273 . S
O55 Mg42 2.010 . S
O55 C47 1.249 . S
Mg56 O57 2.028 . S
Mg56 O63 1.986 . S
Mg56 O65 2.114 . S
Mg56 O66 2.251 . S
Mg56 O69 2.010 . S
O57 Mg56 2.028 . S
O57 C60 1.250 . S
O58 Mg59 2.028 . S
O58 C60 1.248 . S
Mg59 O58 2.028 . S
Mg59 O64 2.032 . S
Mg59 O66 2.079 . S
C60 O57 1.250 . S
C60 O58 1.248 . S
C61 O62 1.264 . S
C61 O69 1.249 . S
O62 C61 1.264 . S
O63 Mg56 1.986 . S
O63 C67 1.246 . S
O64 Mg59 2.032 . S
O64 C67 1.259 . S
O65 Mg56 2.114 . S
O65 C68 1.252 . S
O66 Mg56 2.251 . S
O66 Mg59 2.079 . S
O66 C68 1.273 . S
C67 O63 1.246 . S
C67 O64 1.259 . S
C68 O65 1.252 . S
C68 O66 1.273 . S
O69 Mg56 2.010 . S
O69 C61 1.249 . S
Mg70 O71 2.028 . S
Mg70 O77 1.986 . S
Mg70 O79 2.114 . S
Mg70 O80 2.251 . S
Mg70 O83 2.010 . S
O71 Mg70 2.028 . S
O71 C74 1.250 . S
O72 Mg73 2.028 . S
O72 C74 1.248 . S
Mg73 O72 2.028 . S
Mg73 O78 2.032 . S
Mg73 O80 2.079 . S
C74 O71 1.250 . S
C74 O72 1.248 . S
C75 O76 1.264 . S
C75 O83 1.249 . S
O76 C75 1.264 . S
O77 Mg70 1.986 . S
O77 C81 1.246 . S
O78 Mg73 2.032 . S
O78 C81 1.259 . S
O79 Mg70 2.114 . S
O79 C82 1.252 . S
O80 Mg70 2.251 . S
O80 Mg73 2.079 . S
O80 C82 1.273 . S
C81 O77 1.246 . S
C81 O78 1.259 . S
C82 O79 1.252 . S
C82 O80 1.273 . S
O83 Mg70 2.010 . S
O83 C75 1.249 . S
Mg84 O85 2.028 . S
Mg84 O91 1.986 . S
Mg84 O93 2.114 . S
Mg84 O94 2.251 . S
Mg84 O97 2.010 . S
O85 Mg84 2.028 . S
O85 C88 1.250 . S
O86 Mg87 2.028 . S
O86 C88 1.248 . S
Mg87 O86 2.028 . S
Mg87 O92 2.032 . S
Mg87 O94 2.079 . S
C88 O85 1.250 . S
C88 O86 1.248 . S
C89 O90 1.264 . S
C89 O97 1.249 . S
O90 C89 1.264 . S
O91 Mg84 1.986 . S
O91 C95 1.246 . S
O92 Mg87 2.032 . S
O92 C95 1.259 . S
O93 Mg84 2.114 . S
O93 C96 1.252 . S
O94 Mg84 2.251 . S
O94 Mg87 2.079 . S
O94 C96 1.273 . S
C95 O91 1.246 . S
C95 O92 1.259 . S
C96 O93 1.252 . S
C96 O94 1.273 . S
O97 Mg84 2.010 . S
O97 C89 1.249 . S
Mg98 O99 2.028 . S
Mg98 O105 1.986 . S
Mg98 O107 2.114 . S
Mg98 O108 2.251 . S
Mg98 O111 2.010 . S
O99 Mg98 2.028 . S
O99 C102 1.250 . S
O100 Mg101 2.028 . S
O100 C102 1.248 . S
Mg101 O100 2.028 . S
Mg101 O106 2.032 . S
Mg101 O108 2.079 . S
C102 O99 1.250 . S
C102 O100 1.248 . S
C103 O104 1.264 . S
C103 O111 1.249 . S
O104 C103 1.264 . S
O105 Mg98 1.986 . S
O105 C109 1.246 . S
O106 Mg101 2.032 . S
O106 C109 1.259 . S
O107 Mg98 2.114 . S
O107 C110 1.252 . S
O108 Mg98 2.251 . S
O108 Mg101 2.079 . S
O108 C110 1.273 . S
C109 O105 1.246 . S
C109 O106 1.259 . S
C110 O107 1.252 . S
C110 O108 1.273 . S
O111 Mg98 2.010 . S
O111 C103 1.249 . S
H112 C120 0.929 . S
H113 C122 0.930 . S
H114 C124 0.930 . S
H115 C127 0.929 . S
H116 C130 0.930 . S
H117 C132 0.960 . S
H118 C132 0.960 . S
H119 C132 0.960 . S
C120 H112 0.929 . S
C120 C121 1.377 . S
C120 C122 1.384 . S
C121 C120 1.377 . S
C121 C127 1.390 . S
C122 H113 0.930 . S
C122 C120 1.384 . S
C122 C123 1.372 . S
C123 C122 1.372 . S
C123 C124 1.400 . S
C123 C128 1.490 . S
C124 H114 0.930 . S
C124 C123 1.400 . S
C124 C127 1.386 . S
H125 C141 0.930 . S
H126 C142 0.931 . S
C127 H115 0.929 . S
C127 C121 1.390 . S
C127 C124 1.386 . S
C128 C123 1.490 . S
C128 C130 1.395 1_455 S
C128 C131 1.403 . S
H129 C135 0.930 . S
C130 H116 0.930 . S
C130 C128 1.395 1_655 S
C130 C133 1.403 . S
C131 C128 1.403 . S
C131 C132 1.524 . S
C131 C135 1.400 . S
C132 H117 0.960 . S
C132 H118 0.960 . S
C132 H119 0.960 . S
C132 C131 1.524 . S
C133 C130 1.403 . S
C133 C134 1.392 1_655 S
C133 C137 1.495 . S
C134 C133 1.392 1_455 S
C134 C135 1.385 . S
C134 C136 1.478 . S
C135 H129 0.930 . S
C135 C131 1.400 . S
C135 C134 1.385 . S
C136 C134 1.478 . S
C136 C138 1.381 . S
C136 C142 1.383 . S
C137 C133 1.495 . S
C137 H143 0.959 . S
C137 H144 0.961 . S
C137 H145 0.960 . S
C138 C136 1.381 . S
C138 C139 1.394 . S
C138 H146 0.930 . S
C139 C138 1.394 . S
C139 C140 1.383 . S
C139 H147 0.929 . S
C140 C139 1.383 . S
C140 C141 1.377 . S
C141 H125 0.930 . S
C141 C140 1.377 . S
C141 C142 1.379 . S
C142 H126 0.931 . S
C142 C136 1.383 . S
C142 C141 1.379 . S
H143 C137 0.959 . S
H144 C137 0.961 . S
H145 C137 0.960 . S
H146 C138 0.930 . S
H147 C139 0.929 . S
H148 C156 0.929 . S
H149 C158 0.930 . S
H150 C160 0.930 . S
H151 C163 0.929 . S
H152 C166 0.930 . S
H153 C168 0.960 . S
H154 C168 0.960 1_455 S
H155 C168 0.960 . S
C156 H148 0.929 . S
C156 C157 1.377 . S
C156 C158 1.384 . S
C157 C156 1.377 . S
C157 C163 1.390 1_455 S
C158 H149 0.930 . S
C158 C156 1.384 . S
C158 C159 1.372 . S
C159 C158 1.372 . S
C159 C160 1.400 1_455 S
C159 C164 1.490 . S
C160 H150 0.930 . S
C160 C159 1.400 1_655 S
C160 C163 1.386 . S
H161 C177 0.930 . S
H162 C178 0.931 . S
C163 H151 0.929 . S
C163 C157 1.390 1_655 S
C163 C160 1.386 . S
C164 C159 1.490 . S
C164 C166 1.395 . S
C164 C167 1.403 . S
H165 C171 0.926 1_655 S
C166 H152 0.930 . S
C166 C164 1.395 . S
C166 C169 1.403 . S
C167 C164 1.403 . S
C167 C168 1.524 1_455 S
C167 C171 1.400 . S
C168 H153 0.960 . S
C168 H154 0.960 1_655 S
C168 H155 0.960 . S
C168 C167 1.524 1_655 S
C169 C166 1.403 . S
C169 C170 1.392 . S
C169 C173 1.495 . S
C170 C169 1.392 . S
C170 C171 1.385 . S
C170 C172 1.478 . S
C171 H165 0.926 1_455 S
C171 C167 1.400 . S
C171 C170 1.385 . S
C172 C170 1.478 . S
C172 C174 1.381 . S
C172 C178 1.383 1_455 S
C173 C169 1.495 . S
C173 H179 0.959 . S
C173 H180 0.961 . S
C173 H181 0.960 . S
C174 C172 1.381 . S
C174 C175 1.394 . S
C174 H182 0.930 . S
C175 C174 1.394 . S
C175 C176 1.383 . S
C175 H183 0.929 . S
C176 C175 1.383 . S
C176 C177 1.377 1_455 S
C177 H161 0.930 . S
C177 C176 1.377 1_655 S
C177 C178 1.379 . S
C178 H162 0.931 . S
C178 C172 1.383 1_655 S
C178 C177 1.379 . S
H179 C173 0.959 . S
H180 C173 0.961 . S
H181 C173 0.960 . S
H182 C174 0.930 . S
H183 C175 0.929 . S
H184 C192 0.929 . S
H185 C194 0.930 . S
H186 C196 0.930 . S
H187 C199 0.929 . S
H188 C202 0.930 . S
H189 C204 0.960 . S
H190 C204 0.960 . S
H191 C204 0.960 . S
C192 H184 0.929 . S
C192 C193 1.377 . S
C192 C194 1.384 . S
C193 C192 1.377 . S
C193 C199 1.390 . S
C194 H185 0.930 . S
C194 C192 1.384 . S
C194 C195 1.372 . S
C195 C194 1.372 . S
C195 C196 1.400 . S
C195 C200 1.490 . S
C196 H186 0.930 . S
C196 C195 1.400 . S
C196 C199 1.386 . S
H197 C213 0.930 . S
H198 C214 0.931 . S
C199 H187 0.929 . S
C199 C193 1.390 . S
C199 C196 1.386 . S
C200 C195 1.490 . S
C200 C202 1.395 . S
C200 C203 1.403 . S
H201 C207 0.930 . S
C202 H188 0.930 . S
C202 C200 1.395 . S
C202 C205 1.403 . S
C203 C200 1.403 . S
C203 C204 1.524 . S
C203 C207 1.400 . S
C204 H189 0.960 . S
C204 H190 0.960 . S
C204 H191 0.960 . S
C204 C203 1.524 . S
C205 C202 1.403 . S
C205 C206 1.392 . S
C205 C209 1.495 . S
C206 C205 1.392 . S
C206 C207 1.385 . S
C206 C208 1.478 . S
C207 H201 0.930 . S
C207 C203 1.400 . S
C207 C206 1.385 . S
C208 C206 1.478 . S
C208 C210 1.381 . S
C208 C214 1.383 . S
C209 C205 1.495 . S
C209 H215 0.959 . S
C209 H216 0.961 . S
C209 H217 0.960 . S
C210 C208 1.381 . S
C210 C211 1.394 . S
C210 H218 0.930 . S
C211 C210 1.394 . S
C211 C212 1.383 . S
C211 H219 0.929 . S
C212 C211 1.383 . S
C212 C213 1.377 . S
C213 H197 0.930 . S
C213 C212 1.377 . S
C213 C214 1.379 . S
C214 H198 0.931 . S
C214 C208 1.383 . S
C214 C213 1.379 . S
H215 C209 0.959 . S
H216 C209 0.961 . S
H217 C209 0.960 . S
H218 C210 0.930 . S
H219 C211 0.929 . S
H220 C228 0.929 . S
H221 C230 0.930 . S
H222 C232 0.930 . S
H223 C235 0.929 . S
H224 C238 0.930 . S
H225 C240 0.960 . S
H226 C240 0.960 . S
H227 C240 0.960 . S
C228 H220 0.929 . S
C228 C229 1.377 . S
C228 C230 1.384 . S
C229 C228 1.377 . S
C229 C235 1.390 . S
C230 H221 0.930 . S
C230 C228 1.384 . S
C230 C231 1.372 . S
C231 C230 1.372 . S
C231 C232 1.400 . S
C231 C236 1.490 . S
C232 H222 0.930 . S
C232 C231 1.400 . S
C232 C235 1.386 . S
H233 C249 0.930 . S
H234 C250 0.931 . S
C235 H223 0.929 . S
C235 C229 1.390 . S
C235 C232 1.386 . S
C236 C231 1.490 . S
C236 C238 1.395 . S
C236 C239 1.403 . S
H237 C243 0.930 . S
C238 H224 0.930 . S
C238 C236 1.395 . S
C238 C241 1.403 . S
C239 C236 1.403 . S
C239 C240 1.524 . S
C239 C243 1.400 . S
C240 H225 0.960 . S
C240 H226 0.960 . S
C240 H227 0.960 . S
C240 C239 1.524 . S
C241 C238 1.403 . S
C241 C242 1.392 . S
C241 C245 1.495 . S
C242 C241 1.392 . S
C242 C243 1.385 . S
C242 C244 1.478 . S
C243 H237 0.930 . S
C243 C239 1.400 . S
C243 C242 1.385 . S
C244 C242 1.478 . S
C244 C246 1.381 . S
C244 C250 1.383 . S
C245 C241 1.495 . S
C245 H251 0.959 . S
C245 H252 0.961 . S
C245 H253 0.960 . S
C246 C244 1.381 . S
C246 C247 1.394 . S
C246 H254 0.930 . S
C247 C246 1.394 . S
C247 C248 1.383 . S
C247 H255 0.929 . S
C248 C247 1.383 . S
C248 C249 1.377 . S
C249 H233 0.930 . S
C249 C248 1.377 . S
C249 C250 1.379 . S
C250 H234 0.931 . S
C250 C244 1.383 . S
C250 C249 1.379 . S
H251 C245 0.959 . S
H252 C245 0.961 . S
H253 C245 0.960 . S
H254 C246 0.930 . S
H255 C247 0.929 . S
H256 C264 0.929 . S
H257 C266 0.930 . S
H258 C268 0.930 . S
H259 C271 0.929 . S
H260 C274 0.930 . S
H261 C276 0.960 1_565 S
H262 C276 0.960 . S
H263 C276 0.959 1_565 S
C264 H256 0.929 . S
C264 C265 1.377 . S
C264 C266 1.384 . S
C265 C264 1.377 . S
C265 C271 1.390 . S
C266 H257 0.930 . S
C266 C264 1.384 . S
C266 C267 1.372 . S
C267 C266 1.372 . S
C267 C268 1.400 . S
C267 C272 1.490 . S
C268 H258 0.930 . S
C268 C267 1.400 . S
C268 C271 1.386 . S
H269 C285 0.930 . S
H270 C286 0.931 . S
C271 H259 0.929 . S
C271 C265 1.390 . S
C271 C268 1.386 . S
C272 C267 1.490 . S
C272 C274 1.395 . S
C272 C275 1.403 . S
H273 C279 0.930 . S
C274 H260 0.930 . S
C274 C272 1.395 . S
C274 C277 1.403 . S
C275 C272 1.403 . S
C275 C276 1.524 . S
C275 C279 1.400 . S
C276 H261 0.960 1_545 S
C276 H262 0.960 . S
C276 H263 0.959 1_545 S
C276 C275 1.524 . S
C277 C274 1.403 . S
C277 C278 1.392 . S
C277 C281 1.495 . S
C278 C277 1.392 . S
C278 C279 1.385 . S
C278 C280 1.478 . S
C279 H273 0.930 . S
C279 C275 1.400 . S
C279 C278 1.385 . S
C280 C278 1.478 . S
C280 C282 1.381 . S
C280 C286 1.383 . S
C281 C277 1.495 . S
C281 H287 0.959 . S
C281 H288 0.961 . S
C281 H289 0.960 . S
C282 C280 1.381 . S
C282 C283 1.394 . S
C282 H290 0.930 . S
C283 C282 1.394 . S
C283 C284 1.383 . S
C283 H291 0.929 . S
C284 C283 1.383 . S
C284 C285 1.377 . S
C285 H269 0.930 . S
C285 C284 1.377 . S
C285 C286 1.379 . S
C286 H270 0.931 . S
C286 C280 1.383 . S
C286 C285 1.379 . S
H287 C281 0.959 . S
H288 C281 0.961 . S
H289 C281 0.960 . S
H290 C282 0.930 . S
H291 C283 0.929 . S
H292 C300 0.929 . S
H293 C302 0.930 . S
H294 C304 0.930 . S
H295 C307 0.929 . S
H296 C310 0.930 . S
H297 C312 0.960 . S
H298 C312 0.960 . S
H299 C312 0.960 . S
C300 H292 0.929 . S
C300 C301 1.377 . S
C300 C302 1.384 . S
C301 C300 1.377 . S
C301 C307 1.390 . S
C302 H293 0.930 . S
C302 C300 1.384 . S
C302 C303 1.372 . S
C303 C302 1.372 . S
C303 C304 1.400 . S
C303 C308 1.490 . S
C304 H294 0.930 . S
C304 C303 1.400 . S
C304 C307 1.386 . S
H305 C321 0.930 . S
H306 C322 0.931 . S
C307 H295 0.929 . S
C307 C301 1.390 . S
C307 C304 1.386 . S
C308 C303 1.490 . S
C308 C310 1.395 . S
C308 C311 1.403 . S
H309 C315 0.930 . S
C310 H296 0.930 . S
C310 C308 1.395 . S
C310 C313 1.403 . S
C311 C308 1.403 . S
C311 C312 1.524 . S
C311 C315 1.400 . S
C312 H297 0.960 . S
C312 H298 0.960 . S
C312 H299 0.960 . S
C312 C311 1.524 . S
C313 C310 1.403 . S
C313 C314 1.392 . S
C313 C317 1.495 . S
C314 C313 1.392 . S
C314 C315 1.385 . S
C314 C316 1.478 . S
C315 H309 0.930 . S
C315 C311 1.400 . S
C315 C314 1.385 . S
C316 C314 1.478 . S
C316 C318 1.381 . S
C316 C322 1.383 . S
C317 C313 1.495 . S
C317 H323 0.959 . S
C317 H324 0.961 . S
C317 H325 0.960 . S
C318 C316 1.381 . S
C318 C319 1.394 . S
C318 H326 0.930 . S
C319 C318 1.394 . S
C319 C320 1.383 . S
C319 H327 0.929 . S
C320 C319 1.383 . S
C320 C321 1.377 . S
C321 H305 0.930 . S
C321 C320 1.377 . S
C321 C322 1.379 . S
C322 H306 0.931 . S
C322 C316 1.383 . S
C322 C321 1.379 . S
H323 C317 0.959 . S
H324 C317 0.961 . S
H325 C317 0.960 . S
H326 C318 0.930 . S
H327 C319 0.929 . S
H328 C336 0.929 . S
H329 C338 0.930 . S
H330 C340 0.930 . S
H331 C343 0.929 . S
H332 C346 0.930 . S
H333 C348 0.960 . S
H334 C348 0.960 . S
H335 C348 0.960 . S
C336 H328 0.929 . S
C336 C337 1.377 . S
C336 C338 1.384 . S
C337 C336 1.377 . S
C337 C343 1.390 . S
C338 H329 0.930 . S
C338 C336 1.384 . S
C338 C339 1.372 . S
C339 C338 1.372 . S
C339 C340 1.400 . S
C339 C344 1.490 . S
C340 H330 0.930 . S
C340 C339 1.400 . S
C340 C343 1.386 . S
H341 C357 0.930 . S
H342 C358 0.931 . S
C343 H331 0.929 . S
C343 C337 1.390 . S
C343 C340 1.386 . S
C344 C339 1.490 . S
C344 C346 1.395 . S
C344 C347 1.403 . S
H345 C351 0.930 . S
C346 H332 0.930 . S
C346 C344 1.395 . S
C346 C349 1.403 . S
C347 C344 1.403 . S
C347 C348 1.524 . S
C347 C351 1.400 . S
C348 H333 0.960 . S
C348 H334 0.960 . S
C348 H335 0.960 . S
C348 C347 1.524 . S
C349 C346 1.403 . S
C349 C350 1.392 . S
C349 C353 1.495 . S
C350 C349 1.392 . S
C350 C351 1.385 . S
C350 C352 1.478 . S
C351 H345 0.930 . S
C351 C347 1.400 . S
C351 C350 1.385 . S
C352 C350 1.478 . S
C352 C354 1.381 . S
C352 C358 1.383 . S
C353 C349 1.495 . S
C353 H359 0.959 . S
C353 H360 0.961 . S
C353 H361 0.960 . S
C354 C352 1.381 . S
C354 C355 1.394 . S
C354 H362 0.930 . S
C355 C354 1.394 . S
C355 C356 1.383 . S
C355 H363 0.929 . S
C356 C355 1.383 . S
C356 C357 1.377 . S
C357 H341 0.930 . S
C357 C356 1.377 . S
C357 C358 1.379 . S
C358 H342 0.931 . S
C358 C352 1.383 . S
C358 C357 1.379 . S
H359 C353 0.959 . S
H360 C353 0.961 . S
H361 C353 0.960 . S
H362 C354 0.930 . S
H363 C355 0.929 . S
H364 C372 0.929 . S
H365 C374 0.930 . S
H366 C376 0.930 . S
H367 C379 0.929 . S
H368 C382 0.930 . S
H369 C384 0.960 . S
H370 C384 0.960 . S
H371 C384 0.960 . S
C372 H364 0.929 . S
C372 C373 1.377 . S
C372 C374 1.384 . S
C373 C372 1.377 . S
C373 C379 1.390 . S
C374 H365 0.930 . S
C374 C372 1.384 . S
C374 C375 1.372 . S
C375 C374 1.372 . S
C375 C376 1.400 . S
C375 C380 1.490 . S
C376 H366 0.930 . S
C376 C375 1.400 . S
C376 C379 1.386 . S
H377 C393 0.930 . S
H378 C394 0.931 . S
C379 H367 0.929 . S
C379 C373 1.390 . S
C379 C376 1.386 . S
C380 C375 1.490 . S
C380 C382 1.395 . S
C380 C383 1.403 . S
H381 C387 0.930 . S
C382 H368 0.930 . S
C382 C380 1.395 . S
C382 C385 1.403 . S
C383 C380 1.403 . S
C383 C384 1.524 . S
C383 C387 1.400 . S
C384 H369 0.960 . S
C384 H370 0.960 . S
C384 H371 0.960 . S
C384 C383 1.524 . S
C385 C382 1.403 . S
C385 C386 1.392 . S
C385 C389 1.495 . S
C386 C385 1.392 . S
C386 C387 1.385 . S
C386 C388 1.478 . S
C387 H381 0.930 . S
C387 C383 1.400 . S
C387 C386 1.385 . S
C388 C386 1.478 . S
C388 C390 1.381 . S
C388 C394 1.383 . S
C389 C385 1.495 . S
C389 H395 0.959 . S
C389 H396 0.961 . S
C389 H397 0.960 . S
C390 C388 1.381 . S
C390 C391 1.394 . S
C390 H398 0.930 . S
C391 C390 1.394 . S
C391 C392 1.383 . S
C391 H399 0.929 . S
C392 C391 1.383 . S
C392 C393 1.377 . S
C393 H377 0.930 . S
C393 C392 1.377 . S
C393 C394 1.379 . S
C394 H378 0.931 . S
C394 C388 1.383 . S
C394 C393 1.379 . S
H395 C389 0.959 . S
H396 C389 0.961 . S
H397 C389 0.960 . S
H398 C390 0.930 . S
H399 C391 0.929 . S
H400 C408 0.929 . S
H401 C410 0.930 . S
H402 C412 0.930 . S
H403 C415 0.929 . S
H404 C418 0.930 . S
H405 C420 0.960 . S
H406 C420 0.960 . S
H407 C420 0.960 . S
C408 H400 0.929 . S
C408 C409 1.377 . S
C408 C410 1.384 . S
C409 C408 1.377 . S
C409 C415 1.390 . S
C410 H401 0.930 . S
C410 C408 1.384 . S
C410 C411 1.372 . S
C411 C410 1.372 . S
C411 C412 1.400 . S
C411 C416 1.490 . S
C412 H402 0.930 . S
C412 C411 1.400 . S
C412 C415 1.386 . S
H413 C429 0.930 . S
H414 C430 0.931 . S
C415 H403 0.929 . S
C415 C409 1.390 . S
C415 C412 1.386 . S
C416 C411 1.490 . S
C416 C418 1.395 . S
C416 C419 1.403 . S
H417 C423 0.930 . S
C418 H404 0.930 . S
C418 C416 1.395 . S
C418 C421 1.403 . S
C419 C416 1.403 . S
C419 C420 1.524 . S
C419 C423 1.400 . S
C420 H405 0.960 . S
C420 H406 0.960 . S
C420 H407 0.960 . S
C420 C419 1.524 . S
C421 C418 1.403 . S
C421 C422 1.392 . S
C421 C425 1.495 . S
C422 C421 1.392 . S
C422 C423 1.385 . S
C422 C424 1.478 . S
C423 H417 0.930 . S
C423 C419 1.400 . S
C423 C422 1.385 . S
C424 C422 1.478 . S
C424 C426 1.381 . S
C424 C430 1.383 . S
C425 C421 1.495 . S
C425 H431 0.948 1_565 S
C425 H432 0.961 . S
C425 H433 0.960 1_565 S
C426 C424 1.381 . S
C426 C427 1.394 . S
C426 H434 0.930 . S
C427 C426 1.394 . S
C427 C428 1.383 . S
C427 H435 0.929 . S
C428 C427 1.383 . S
C428 C429 1.377 . S
C429 H413 0.930 . S
C429 C428 1.377 . S
C429 C430 1.379 . S
C430 H414 0.931 . S
C430 C424 1.383 . S
C430 C429 1.379 . S
H431 C425 0.948 1_545 S
H432 C425 0.961 . S
H433 C425 0.960 1_545 S
H434 C426 0.930 . S
H435 C427 0.929 . S
H436 C444 0.929 . S
H437 C446 0.930 . S
H438 C448 0.930 . S
H439 C451 0.929 . S
H440 C454 0.930 . S
H441 C456 0.960 . S
H442 C456 0.960 . S
H443 C456 0.960 . S
C444 H436 0.929 . S
C444 C445 1.377 . S
C444 C446 1.384 . S
C445 C444 1.377 . S
C445 C451 1.390 . S
C446 H437 0.930 . S
C446 C444 1.384 . S
C446 C447 1.372 . S
C447 C446 1.372 . S
C447 C448 1.400 . S
C447 C452 1.490 . S
C448 H438 0.930 . S
C448 C447 1.400 . S
C448 C451 1.386 . S
H449 C465 0.930 . S
H450 C466 0.931 . S
C451 H439 0.929 . S
C451 C445 1.390 . S
C451 C448 1.386 . S
C452 C447 1.490 . S
C452 C454 1.395 . S
C452 C455 1.403 . S
H453 C459 0.930 . S
C454 H440 0.930 . S
C454 C452 1.395 . S
C454 C457 1.403 . S
C455 C452 1.403 . S
C455 C456 1.524 . S
C455 C459 1.400 . S
C456 H441 0.960 . S
C456 H442 0.960 . S
C456 H443 0.960 . S
C456 C455 1.524 . S
C457 C454 1.403 . S
C457 C458 1.392 . S
C457 C461 1.495 . S
C458 C457 1.392 . S
C458 C459 1.385 . S
C458 C460 1.478 . S
C459 H453 0.930 . S
C459 C455 1.400 . S
C459 C458 1.385 . S
C460 C458 1.478 . S
C460 C462 1.381 . S
C460 C466 1.383 . S
C461 C457 1.495 . S
C461 H467 0.959 . S
C461 H468 0.961 . S
C461 H469 0.960 . S
C462 C460 1.381 . S
C462 C463 1.394 . S
C462 H470 0.930 . S
C463 C462 1.394 . S
C463 C464 1.383 . S
C463 H471 0.929 . S
C464 C463 1.383 . S
C464 C465 1.377 . S
C465 H449 0.930 . S
C465 C464 1.377 . S
C465 C466 1.379 . S
C466 H450 0.931 . S
C466 C460 1.383 . S
C466 C465 1.379 . S
H467 C461 0.959 . S
H468 C461 0.961 . S
H469 C461 0.960 . S
H470 C462 0.930 . S
H471 C463 0.929 . S
H472 C480 0.929 . S
H473 C482 0.930 . S
H474 C484 0.930 . S
H475 C487 0.929 . S
H476 C490 0.930 . S
H477 C492 0.960 . S
H478 C492 0.960 . S
H479 C492 0.960 . S
C480 H472 0.929 . S
C480 C481 1.377 . S
C480 C482 1.384 . S
C481 C480 1.377 . S
C481 C487 1.390 . S
C482 H473 0.930 . S
C482 C480 1.384 . S
C482 C483 1.372 . S
C483 C482 1.372 . S
C483 C484 1.400 . S
C483 C488 1.490 . S
C484 H474 0.930 . S
C484 C483 1.400 . S
C484 C487 1.386 . S
H485 C501 0.930 . S
H486 C502 0.931 . S
C487 H475 0.929 . S
C487 C481 1.390 . S
C487 C484 1.386 . S
C488 C483 1.490 . S
C488 C490 1.395 . S
C488 C491 1.403 . S
H489 C495 0.930 . S
C490 H476 0.930 . S
C490 C488 1.395 . S
C490 C493 1.403 . S
C491 C488 1.403 . S
C491 C492 1.524 . S
C491 C495 1.400 . S
C492 H477 0.960 . S
C492 H478 0.960 . S
C492 H479 0.960 . S
C492 C491 1.524 . S
C493 C490 1.403 . S
C493 C494 1.392 . S
C493 C497 1.495 . S
C494 C493 1.392 . S
C494 C495 1.385 . S
C494 C496 1.478 . S
C495 H489 0.930 . S
C495 C491 1.400 . S
C495 C494 1.385 . S
C496 C494 1.478 . S
C496 C498 1.381 . S
C496 C502 1.383 . S
C497 C493 1.495 . S
C497 H503 0.959 . S
C497 H504 0.961 . S
C497 H505 0.960 . S
C498 C496 1.381 . S
C498 C499 1.394 . S
C498 H506 0.930 . S
C499 C498 1.394 . S
C499 C500 1.383 . S
C499 H507 0.929 . S
C500 C499 1.383 . S
C500 C501 1.377 . S
C501 H485 0.930 . S
C501 C500 1.377 . S
C501 C502 1.379 . S
C502 H486 0.931 . S
C502 C496 1.383 . S
C502 C501 1.379 . S
H503 C497 0.959 . S
H504 C497 0.961 . S
H505 C497 0.960 . S
H506 C498 0.930 . S
H507 C499 0.929 . S
H508 C516 0.929 . S
H509 C518 0.930 . S
H510 C520 0.930 . S
H511 C523 0.929 . S
H512 C526 0.930 . S
H513 C528 0.960 . S
H514 C528 0.960 . S
H515 C528 0.960 . S
C516 H508 0.929 . S
C516 C517 1.377 . S
C516 C518 1.384 . S
C517 C516 1.377 . S
C517 C523 1.390 . S
C518 H509 0.930 . S
C518 C516 1.384 . S
C518 C519 1.372 . S
C519 C518 1.372 . S
C519 C520 1.400 . S
C519 C524 1.490 . S
C520 H510 0.930 . S
C520 C519 1.400 . S
C520 C523 1.386 . S
H521 C537 0.930 . S
H522 C538 0.931 . S
C523 H511 0.929 . S
C523 C517 1.390 . S
C523 C520 1.386 . S
C524 C519 1.490 . S
C524 C526 1.395 . S
C524 C527 1.403 . S
H525 C531 0.930 . S
C526 H512 0.930 . S
C526 C524 1.395 . S
C526 C529 1.403 . S
C527 C524 1.403 . S
C527 C528 1.524 . S
C527 C531 1.400 . S
C528 H513 0.960 . S
C528 H514 0.960 . S
C528 H515 0.960 . S
C528 C527 1.524 . S
C529 C526 1.403 . S
C529 C530 1.392 . S
C529 C533 1.495 . S
C530 C529 1.392 . S
C530 C531 1.385 . S
C530 C532 1.478 . S
C531 H525 0.930 . S
C531 C527 1.400 . S
C531 C530 1.385 . S
C532 C530 1.478 . S
C532 C534 1.381 . S
C532 C538 1.383 . S
C533 C529 1.495 . S
C533 H539 0.959 . S
C533 H540 0.961 . S
C533 H541 0.960 . S
C534 C532 1.381 . S
C534 C535 1.394 . S
C534 H542 0.930 . S
C535 C534 1.394 . S
C535 C536 1.383 . S
C535 H543 0.929 . S
C536 C535 1.383 . S
C536 C537 1.377 . S
C537 H521 0.930 . S
C537 C536 1.377 . S
C537 C538 1.379 . S
C538 H522 0.931 . S
C538 C532 1.383 . S
C538 C537 1.379 . S
H539 C533 0.959 . S
H540 C533 0.961 . S
H541 C533 0.960 . S
H542 C534 0.930 . S
H543 C535 0.929 . S
H544 C552 0.929 . S
H545 C554 0.930 . S
H546 C556 0.930 . S
H547 C559 0.929 . S
H548 C562 0.930 . S
H549 C564 0.960 1_656 S
H550 C564 0.960 . S
H551 C564 0.960 1_655 S
C552 H544 0.929 . S
C552 C553 1.377 . S
C552 C554 1.384 . S
C553 C552 1.377 . S
C553 C559 1.390 1_455 S
C554 H545 0.930 . S
C554 C552 1.384 . S
C554 C555 1.372 . S
C555 C554 1.372 . S
C555 C556 1.400 1_455 S
C555 C560 1.490 . S
C556 H546 0.930 . S
C556 C555 1.400 1_655 S
C556 C559 1.386 . S
H557 C573 0.930 . S
H558 C574 0.931 . S
C559 H547 0.929 . S
C559 C553 1.390 1_655 S
C559 C556 1.386 . S
C560 C555 1.490 . S
C560 C562 1.395 1_545 S
C560 C563 1.403 . S
H561 C567 0.930 . S
C562 H548 0.930 . S
C562 C560 1.395 1_565 S
C562 C565 1.403 1_554 S
C563 C560 1.403 . S
C563 C564 1.524 . S
C563 C567 1.400 1_554 S
C564 H549 0.960 1_454 S
C564 H550 0.960 . S
C564 H551 0.960 1_455 S
C564 C563 1.524 . S
C565 C562 1.403 1_556 S
C565 C566 1.392 . S
C565 C569 1.495 . S
C566 C565 1.392 . S
C566 C567 1.385 1_565 S
C566 C568 1.478 . S
C567 H561 0.930 . S
C567 C563 1.400 1_556 S
C567 C566 1.385 1_545 S
C568 C566 1.478 . S
C568 C570 1.381 . S
C568 C574 1.383 1_455 S
C569 C565 1.495 . S
C569 H575 0.959 1_556 S
C569 H576 0.961 . S
C569 H577 0.960 . S
C570 C568 1.381 . S
C570 C571 1.394 . S
C570 H578 0.930 . S
C571 C570 1.394 . S
C571 C572 1.383 . S
C571 H579 0.929 . S
C572 C571 1.383 . S
C572 C573 1.377 1_455 S
C573 H557 0.930 . S
C573 C572 1.377 1_655 S
C573 C574 1.379 . S
C574 H558 0.931 . S
C574 C568 1.383 1_655 S
C574 C573 1.379 . S
H575 C569 0.959 1_554 S
H576 C569 0.961 . S
H577 C569 0.960 . S
H578 C570 0.930 . S
H579 C571 0.929 . S
H580 C588 0.929 . S
H581 C590 0.930 . S
H582 C592 0.930 . S
H583 C595 0.929 . S
H584 C598 0.930 . S
H585 C600 0.960 . S
H586 C600 0.960 . S
H587 C600 0.960 . S
C588 H580 0.929 . S
C588 C589 1.377 . S
C588 C590 1.384 . S
C589 C588 1.377 . S
C589 C595 1.390 1_455 S
C590 H581 0.930 . S
C590 C588 1.384 . S
C590 C591 1.372 . S
C591 C590 1.372 . S
C591 C592 1.400 1_455 S
C591 C596 1.490 . S
C592 H582 0.930 . S
C592 C591 1.400 1_655 S
C592 C595 1.386 . S
H593 C609 0.930 . S
H594 C610 0.931 . S
C595 H583 0.929 . S
C595 C589 1.390 1_655 S
C595 C592 1.386 . S
C596 C591 1.490 . S
C596 C598 1.395 . S
C596 C599 1.403 1_455 S
H597 C603 0.930 . S
C598 H584 0.930 . S
C598 C596 1.395 . S
C598 C601 1.403 1_556 S
C599 C596 1.403 1_655 S
C599 C600 1.524 . S
C599 C603 1.400 1_556 S
C600 H585 0.960 . S
C600 H586 0.960 . S
C600 H587 0.960 . S
C600 C599 1.524 . S
C601 C598 1.403 1_554 S
C601 C602 1.392 . S
C601 C605 1.495 . S
C602 C601 1.392 . S
C602 C603 1.385 1_455 S
C602 C604 1.478 . S
C603 H597 0.930 . S
C603 C599 1.400 1_554 S
C603 C602 1.385 1_655 S
C604 C602 1.478 . S
C604 C606 1.381 . S
C604 C610 1.383 1_455 S
C605 C601 1.495 . S
C605 H611 0.959 . S
C605 H612 0.961 . S
C605 H613 0.960 . S
C606 C604 1.381 . S
C606 C607 1.394 . S
C606 H614 0.930 . S
C607 C606 1.394 . S
C607 C608 1.383 . S
C607 H615 0.929 . S
C608 C607 1.383 . S
C608 C609 1.377 1_455 S
C609 H593 0.930 . S
C609 C608 1.377 1_655 S
C609 C610 1.379 . S
C610 H594 0.931 . S
C610 C604 1.383 1_655 S
C610 C609 1.379 . S
H611 C605 0.959 . S
H612 C605 0.961 . S
H613 C605 0.960 . S
H614 C606 0.930 . S
H615 C607 0.929 . S
H616 C624 0.929 . S
H617 C626 0.930 . S
H618 C628 0.930 . S
H619 C631 0.929 . S
H620 C634 0.930 . S
H621 C636 0.960 . S
H622 C636 0.960 . S
H623 C636 0.960 . S
C624 H616 0.929 . S
C624 C625 1.377 . S
C624 C626 1.384 . S
C625 C624 1.377 . S
C625 C631 1.390 . S
C626 H617 0.930 . S
C626 C624 1.384 . S
C626 C627 1.372 . S
C627 C626 1.372 . S
C627 C628 1.400 . S
C627 C632 1.490 . S
C628 H618 0.930 . S
C628 C627 1.400 . S
C628 C631 1.386 . S
H629 C645 0.930 . S
H630 C646 0.931 . S
C631 H619 0.929 . S
C631 C625 1.390 . S
C631 C628 1.386 . S
C632 C627 1.490 . S
C632 C634 1.395 . S
C632 C635 1.403 . S
H633 C639 0.930 . S
C634 H620 0.930 . S
C634 C632 1.395 . S
C634 C637 1.403 . S
C635 C632 1.403 . S
C635 C636 1.524 . S
C635 C639 1.400 . S
C636 H621 0.960 . S
C636 H622 0.960 . S
C636 H623 0.960 . S
C636 C635 1.524 . S
C637 C634 1.403 . S
C637 C638 1.392 . S
C637 C641 1.495 . S
C638 C637 1.392 . S
C638 C639 1.385 . S
C638 C640 1.478 . S
C639 H633 0.930 . S
C639 C635 1.400 . S
C639 C638 1.385 . S
C640 C638 1.478 . S
C640 C642 1.381 . S
C640 C646 1.383 . S
C641 C637 1.495 . S
C641 H647 0.959 . S
C641 H648 0.961 . S
C641 H649 0.960 . S
C642 C640 1.381 . S
C642 C643 1.394 . S
C642 H650 0.930 . S
C643 C642 1.394 . S
C643 C644 1.383 . S
C643 H651 0.929 . S
C644 C643 1.383 . S
C644 C645 1.377 . S
C645 H629 0.930 . S
C645 C644 1.377 . S
C645 C646 1.379 . S
C646 H630 0.931 . S
C646 C640 1.383 . S
C646 C645 1.379 . S
H647 C641 0.959 . S
H648 C641 0.961 . S
H649 C641 0.960 . S
H650 C642 0.930 . S
H651 C643 0.929 . S
H652 C660 0.929 . S
H653 C662 0.930 1_545 S
H654 C664 0.930 . S
H655 C667 0.929 . S
H656 C670 0.930 . S
H657 C672 0.960 . S
H658 C672 0.960 . S
H659 C672 0.960 . S
C660 H652 0.929 . S
C660 C661 1.377 . S
C660 C662 1.384 . S
C661 C660 1.377 . S
C661 C667 1.390 . S
C662 H653 0.930 1_565 S
C662 C660 1.384 . S
C662 C663 1.372 . S
C663 C662 1.372 . S
C663 C664 1.400 . S
C663 C668 1.490 . S
C664 H654 0.930 . S
C664 C663 1.400 . S
C664 C667 1.386 . S
H665 C681 0.930 . S
H666 C682 0.931 1_565 S
C667 H655 0.929 . S
C667 C661 1.390 . S
C667 C664 1.386 . S
C668 C663 1.490 . S
C668 C670 1.395 1_565 S
C668 C671 1.403 . S
H669 C675 0.930 . S
C670 H656 0.930 . S
C670 C668 1.395 1_545 S
C670 C673 1.403 . S
C671 C668 1.403 . S
C671 C672 1.524 . S
C671 C675 1.400 . S
C672 H657 0.960 . S
C672 H658 0.960 . S
C672 H659 0.960 . S
C672 C671 1.524 . S
C673 C670 1.403 . S
C673 C674 1.392 . S
C673 C677 1.495 . S
C674 C673 1.392 . S
C674 C675 1.385 1_545 S
C674 C676 1.478 . S
C675 H669 0.930 . S
C675 C671 1.400 . S
C675 C674 1.385 1_565 S
C676 C674 1.478 . S
C676 C678 1.381 . S
C676 C682 1.383 . S
C677 C673 1.495 . S
C677 H683 0.959 . S
C677 H684 0.961 . S
C677 H685 0.960 . S
C678 C676 1.381 . S
C678 C679 1.394 . S
C678 H686 0.930 . S
C679 C678 1.394 . S
C679 C680 1.383 . S
C679 H687 0.929 . S
C680 C679 1.383 . S
C680 C681 1.377 . S
C681 H665 0.930 . S
C681 C680 1.377 . S
C681 C682 1.379 . S
C682 H666 0.931 1_545 S
C682 C676 1.383 . S
C682 C681 1.379 . S
H683 C677 0.959 . S
H684 C677 0.961 . S
H685 C677 0.960 . S
H686 C678 0.930 . S
H687 C679 0.929 . S
C121 C18 1.468 . S
C140 C4 1.481 . S
C157 C32 1.463 . S
C176 C46 1.461 . S
C193 C60 1.468 . S
C212 C74 1.480 . S
C229 C88 1.463 . S
C248 C102 1.446 . S
C265 C110 1.451 . S
C284 C12 1.437 . S
C301 C96 1.449 . S
C320 C26 1.456 . S
C337 C40 1.450 . S
C356 C82 1.452 . S
C373 C68 1.448 . S
C392 C54 1.455 . S
C409 C75 1.194 . S
C428 C33 1.164 . S
C445 C61 1.206 . S
C464 C47 1.170 . S
C481 C103 1.207 . S
C500 C5 1.163 . S
C517 C19 1.203 . S
C536 C89 1.200 . S
C553 C11 1.286 . S
C572 C39 1.268 . S
C589 C53 1.295 . S
C608 C25 1.311 . S
C625 C95 1.286 . S
C644 C67 1.265 . S
C661 C81 1.287 . S
C680 C109 1.280 . S
