# Generated by pormake.
# Topology uov, (4)-cn, num edge types: 1
# Building blocks:
#     Node 0, Type 0, BuildingBlock: TATPOV_clean_sbu_0, # of connection points: 4
#     Node 1, Type 0, BuildingBlock: TATPOV_clean_sbu_0, # of connection points: 4
#     Node 2, Type 0, BuildingBlock: TATPOV_clean_sbu_0, # of connection points: 4
#     Node 3, Type 0, BuildingBlock: TATPOV_clean_sbu_0, # of connection points: 4
#     Node 4, Type 0, BuildingBlock: TATPOV_clean_sbu_0, # of connection points: 4
#     Node 5, Type 0, BuildingBlock: TATPOV_clean_sbu_0, # of connection points: 4
#     Node 6, Type 0, BuildingBlock: TATPOV_clean_sbu_0, # of connection points: 4
#     Node 7, Type 0, BuildingBlock: TATPOV_clean_sbu_0, # of connection points: 4
#     Edge 8, Type (0, 0), BuildingBlock: UVAHIK_clean_linker_0, # of connection points: 2
#     Edge 9, Type (0, 0), BuildingBlock: UVAHIK_clean_linker_0, # of connection points: 2
#     Edge 10, Type (0, 0), BuildingBlock: UVAHIK_clean_linker_0, # of connection points: 2
#     Edge 11, Type (0, 0), BuildingBlock: UVAHIK_clean_linker_0, # of connection points: 2
#     Edge 12, Type (0, 0), BuildingBlock: UVAHIK_clean_linker_0, # of connection points: 2
#     Edge 13, Type (0, 0), BuildingBlock: UVAHIK_clean_linker_0, # of connection points: 2
#     Edge 14, Type (0, 0), BuildingBlock: UVAHIK_clean_linker_0, # of connection points: 2
#     Edge 15, Type (0, 0), BuildingBlock: UVAHIK_clean_linker_0, # of connection points: 2
#     Edge 16, Type (0, 0), BuildingBlock: UVAHIK_clean_linker_0, # of connection points: 2
#     Edge 17, Type (0, 0), BuildingBlock: UVAHIK_clean_linker_0, # of connection points: 2
#     Edge 18, Type (0, 0), BuildingBlock: UVAHIK_clean_linker_0, # of connection points: 2
#     Edge 19, Type (0, 0), BuildingBlock: UVAHIK_clean_linker_0, # of connection points: 2
#     Edge 20, Type (0, 0), BuildingBlock: UVAHIK_clean_linker_0, # of connection points: 2
#     Edge 21, Type (0, 0), BuildingBlock: UVAHIK_clean_linker_0, # of connection points: 2
#     Edge 22, Type (0, 0), BuildingBlock: UVAHIK_clean_linker_0, # of connection points: 2
#     Edge 23, Type (0, 0), BuildingBlock: UVAHIK_clean_linker_0, # of connection points: 2
# Relax obj value: 0.183
# Max RMSD: 0.193
# Mean RMSD: 0.193
data_MOF--net-uov--node1-TATPOV_clean_sbu_0--edge1-UVAHIK_clean_linker_0
_symmetry_space_group_name_H-M    P1
_symmetry_Int_Tables_number       1
_symmetry_cell_setting            triclinic
loop_
_symmetry_equiv_pos_as_xyz
'x, y, z'
_cell_length_a     39.375565
_cell_length_b     39.618919
_cell_length_c     57.358723
_cell_angle_alpha  89.973741
_cell_angle_beta   89.843373
_cell_angle_gamma 90.043939
loop_
_atom_site_label
_atom_site_type_symbol
_atom_site_fract_x
_atom_site_fract_y
_atom_site_fract_z
_atom_type_partial_charge
Zn0 Zn 0.01982 0.13753 0.57966 0.0
Zn1 Zn 0.01339 0.23645 0.58838 0.0
O2 O 0.96427 0.22421 0.57936 0.0
O3 O 0.98182 0.1724 0.57583 0.0
O4 O 0.01294 0.28616 0.59695 0.0
O5 O 0.04229 0.14841 0.61021 0.0
O6 O 0.03637 0.20514 0.61449 0.0
C7 C 0.95831 0.1939 0.57345 0.0
C8 C 0.04387 0.202 0.55504 0.0
O9 O 0.0425 0.2334 0.55842 0.0
O10 O 0.02621 0.1843 0.56868 0.0
C11 C 0.00722 0.30501 0.5794 0.0
O12 O 0.00214 0.29078 0.55902 0.0
C13 C 0.04638 0.17584 0.62167 0.0
Zn14 Zn 0.16428 0.94858 0.36019 0.0
Zn15 Zn 0.23135 0.94582 0.36196 0.0
O16 O 0.21884 -0.00719 0.37528 0.0
O17 O 0.16312 -0.00452 0.37307 0.0
O18 O 0.2828 0.94776 0.36123 0.0
O19 O 0.16269 0.94151 0.32598 0.0
O20 O 0.21781 0.93218 0.32793 0.0
C21 C 0.19114 0.0087 0.37873 0.0
C22 C 0.1908 0.89721 0.39157 0.0
O23 O 0.21961 0.90962 0.38616 0.0
O24 O 0.1639 0.90832 0.3822 0.0
C25 C 0.29872 0.95552 0.37975 0.0
O26 O 0.2813 0.96088 0.39897 0.0
C27 C 0.19019 0.93294 0.31631 0.0
Zn28 Zn 0.95566 0.79766 0.59773 0.0
Zn29 Zn 0.94965 0.73275 0.59279 0.0
O30 O -0.00202 0.74465 0.58046 0.0
O31 O 0.00298 0.79946 0.58547 0.0
O32 O 0.95021 0.68182 0.59295 0.0
O33 O 0.94766 0.79747 0.63184 0.0
O34 O 0.93434 0.74405 0.62683 0.0
C35 C 0.01529 0.77177 0.57856 0.0
C36 C 0.9029 0.77645 0.56498 0.0
O37 O 0.91385 0.74673 0.56884 0.0
O38 O 0.91563 0.80147 0.57564 0.0
C39 C 0.95923 0.665 0.57511 0.0
O40 O 0.96693 0.6812 0.55581 0.0
C41 C 0.93611 0.77008 0.63988 0.0
Zn42 Zn 0.79204 -0.00648 0.35448 0.0
Zn43 Zn 0.72989 0.00994 0.36278 0.0
O44 O 0.73914 0.96147 0.37524 0.0
O45 O 0.78954 0.94497 0.36348 0.0
O46 O 0.67856 0.01219 0.3634 0.0
O47 O 0.79279 0.00736 0.32111 0.0
O48 O 0.74249 0.02798 0.32971 0.0
C49 C 0.7623 0.93898 0.3744 0.0
C50 C 0.78005 0.04592 0.39111 0.0
O51 O 0.74852 0.04268 0.38673 0.0
O52 O 0.80177 0.0285 0.37995 0.0
C53 C 0.66146 0.00965 0.38216 0.0
O54 O 0.6776 0.00759 0.40213 0.0
C55 C 0.76721 0.02469 0.31546 0.0
Zn56 Zn 0.9571 0.15757 0.0965 0.0
Zn57 Zn 0.95296 0.22339 0.09194 0.0
O58 O 0.00108 0.21145 0.08014 0.0
O59 O 0.00422 0.15623 0.08316 0.0
O60 O 0.95431 0.27409 0.09207 0.0
O61 O 0.94988 0.15858 0.13099 0.0
O62 O 0.93697 0.212 0.12558 0.0
C63 C 0.01747 0.18404 0.07723 0.0
C64 C 0.90471 0.18121 0.0642 0.0
O65 O 0.91734 0.21031 0.06782 0.0
O66 O 0.91598 0.15559 0.07494 0.0
C67 C 0.95524 0.29095 0.07324 0.0
O68 O 0.95405 0.27491 0.05321 0.0
C69 C 0.93838 0.18613 0.13878 0.0
Zn70 Zn 0.16859 0.00373 0.86872 0.0
Zn71 Zn 0.23293 0.00942 0.86452 0.0
O72 O 0.22122 0.96235 0.87909 0.0
O73 O 0.16678 0.95392 0.87336 0.0
O74 O 0.2843 0.00696 0.8611 0.0
O75 O 0.15936 0.02464 0.83818 0.0
O76 O 0.21454 0.02513 0.83192 0.0
C77 C 0.19509 0.94336 0.88063 0.0
C78 C 0.19797 0.0512 0.90083 0.0
O79 O 0.22488 0.04636 0.88896 0.0
O80 O 0.17127 0.03444 0.89672 0.0
C81 C 0.30124 0.00098 0.87952 0.0
O82 O 0.28478 -0.00241 0.89935 0.0
C83 C 0.18431 0.03157 0.82516 0.0
Zn84 Zn 0.01817 0.83117 0.08736 0.0
Zn85 Zn 0.01334 0.71695 0.09444 0.0
O86 O 0.96655 0.73498 0.08489 0.0
O87 O -0.0073 0.78309 0.0876 0.0
O88 O 0.01083 0.66652 0.09634 0.0
O89 O 0.02212 0.78418 0.10602 0.0
O90 O 0.02925 0.73761 0.12543 0.0
C91 C 0.9659 0.76672 0.08177 0.0
C92 C 0.04987 0.7621 0.06582 0.0
O93 O 0.04726 0.73033 0.06846 0.0
O94 O 0.03191 0.78052 0.07939 0.0
C95 C 0.00379 0.65111 0.07755 0.0
O96 O -0.00094 0.6688 0.05844 0.0
C97 C 0.03176 0.76962 0.12487 0.0
Zn98 Zn 0.79429 0.96654 0.85864 0.0
Zn99 Zn 0.73341 0.94821 0.86566 0.0
O100 O 0.74035 -0.00248 0.87778 0.0
O101 O 0.79069 0.01505 0.86662 0.0
O102 O 0.68204 0.94445 0.86564 0.0
O103 O 0.79784 0.95227 0.82578 0.0
O104 O 0.74686 0.93164 0.8321 0.0
C105 C 0.76294 0.02066 0.87697 0.0
C106 C 0.78423 0.91513 0.89565 0.0
O107 O 0.75277 0.9161 0.89044 0.0
O108 O 0.80524 0.93355 0.88464 0.0
C109 C 0.66433 0.94908 0.88394 0.0
O110 O 0.67984 0.95393 0.90391 0.0
C111 C 0.77262 0.93546 0.81876 0.0
C112 C 0.9735 0.60924 0.55693 0.0
C113 C 0.96321 0.62785 0.57656 0.0
C114 C 0.97904 0.57447 0.55857 0.0
C115 C 0.96056 0.49935 0.59513 0.0
H116 H 0.03723 0.46152 0.56159 0.0
C117 C 0.00054 0.35842 0.60284 0.0
C118 C 0.00581 0.34224 0.58132 0.0
C119 C -0.00301 0.39362 0.60385 0.0
C120 C 0.01566 0.4717 0.57101 0.0
H121 H 0.9501 0.62433 0.61325 0.0
H122 H 0.96013 0.56378 0.61616 0.0
H123 H 0.0267 0.52207 0.55992 0.0
H124 H 0.01267 0.35034 0.54418 0.0
H125 H 0.0069 0.41132 0.54602 0.0
H126 H 0.94964 0.44875 0.60616 0.0
C127 C 0.96358 0.57598 0.59942 0.0
C128 C 0.0095 0.50639 0.56996 0.0
C129 C 0.95797 0.61076 0.59777 0.0
C130 C 0.00845 0.36198 0.56103 0.0
C131 C 0.00537 0.397 0.56208 0.0
C132 C 0.96685 0.46461 0.59627 0.0
C133 C 0.97451 0.55744 0.57989 0.0
C134 C 0.98162 0.52062 0.58175 0.0
C135 C -0.00076 0.41323 0.58343 0.0
C136 C -0.00578 0.45038 0.58397 0.0
H137 H 0.97759 0.62154 0.54029 0.0
H138 H -0.01321 0.5609 0.54306 0.0
H139 H 0.93866 0.50938 0.60424 0.0
H140 H -0.00165 0.34385 0.61875 0.0
H141 H -0.00752 0.40551 0.62057 0.0
C142 C 0.60722 0.001 0.36003 0.0
C143 C 0.62394 0.00637 0.38135 0.0
C144 C 0.57206 -0.0041 0.3594 0.0
C145 C 0.4933 0.01025 0.39288 0.0
H146 H 0.45717 0.93737 0.35522 0.0
C147 C 0.35337 0.96851 0.40019 0.0
C148 C 0.33616 0.96 0.37957 0.0
C149 C 0.38845 0.974 0.40004 0.0
C150 C 0.46675 0.95811 0.3656 0.0
H151 H 0.61666 0.01121 0.41869 0.0
H152 H 0.55529 0.00264 0.41756 0.0
H153 H 0.51821 0.94816 0.35546 0.0
H154 H 0.34251 0.95029 0.3426 0.0
H155 H 0.40369 0.96025 0.34228 0.0
H156 H 0.44197 0.02045 0.40291 0.0
C157 C 0.56939 0.00239 0.40132 0.0
C158 C 0.50177 0.96427 0.36574 0.0
C159 C 0.6046 0.00716 0.40197 0.0
C160 C 0.35497 0.95673 0.35882 0.0
C161 C 0.39011 0.96229 0.35866 0.0
C162 C 0.4583 0.00422 0.39264 0.0
C163 C 0.55275 -0.0036 0.38005 0.0
C164 C 0.51546 -0.00969 0.37948 0.0
C165 C 0.40727 0.97123 0.37925 0.0
C166 C 0.44456 0.97794 0.37911 0.0
H167 H 0.62134 0.00015 0.34381 0.0
H168 H 0.55995 -0.0083 0.34272 0.0
H169 H 0.50299 0.03082 0.40337 0.0
H170 H 0.33975 0.9711 0.41652 0.0
H171 H 0.40084 0.98022 0.41631 0.0
C172 C 0.96622 0.34462 0.09504 0.0
C173 C 0.95921 0.32808 0.0739 0.0
C174 C 0.97117 0.37953 0.09557 0.0
C175 C 0.95308 0.45744 0.06302 0.0
H176 H 0.02803 0.49433 0.09863 0.0
C177 C -0.00824 0.59727 0.05637 0.0
C178 C 4e-05 0.61398 0.0772 0.0
C179 C -0.01272 0.56232 0.05606 0.0
C180 C 0.00676 0.48446 0.08882 0.0
H181 H 0.95153 0.33528 0.0368 0.0
H182 H 0.96003 0.39628 0.03776 0.0
H183 H 0.01863 0.43344 0.09804 0.0
H184 H 0.0105 0.60703 0.11401 0.0
H185 H 0.00236 0.546 0.1135 0.0
H186 H 0.94105 0.50838 0.0539 0.0
C187 C 0.96158 0.38221 0.05392 0.0
C188 C 0.0014 0.44959 0.08848 0.0
C189 C 0.95687 0.34726 0.05336 0.0
C190 C 0.00415 0.59491 0.09767 0.0
C191 C -0.00034 0.55992 0.09735 0.0
C192 C 0.95838 0.49229 0.06342 0.0
C193 C 0.96897 0.39869 0.07501 0.0
C194 C 0.97453 0.43572 0.07553 0.0
C195 C -0.00904 0.54326 0.07657 0.0
C196 C -0.01467 0.5062 0.07628 0.0
H197 H 0.96823 0.33058 0.11118 0.0
H198 H 0.97645 0.39157 0.11212 0.0
H199 H 0.93187 0.44752 0.05317 0.0
H200 H -0.01143 0.61119 0.04027 0.0
H201 H 0.98112 0.5502 0.03968 0.0
C202 C 0.35693 -0.00169 0.85773 0.0
C203 C 0.33871 -0.00339 0.87883 0.0
C204 C 0.39214 -0.0071 0.85732 0.0
C205 C 0.461 0.95359 0.8922 0.0
H206 H 0.52084 0.00698 0.85305 0.0
C207 C 0.60688 0.95259 0.90281 0.0
C208 C 0.62679 0.95189 0.88245 0.0
C209 C 0.57168 0.95705 0.90154 0.0
C210 C 0.50441 -0.00839 0.86389 0.0
H211 H 0.34349 -0.01137 0.91611 0.0
H212 H 0.40449 0.97973 0.91544 0.0
H213 H 0.45967 0.0174 0.85232 0.0
H214 H 0.62521 0.95526 0.84471 0.0
H215 H 0.56376 0.96321 0.84252 0.0
H216 H 0.50572 0.92812 0.90399 0.0
C217 C 0.39165 -0.01544 0.8991 0.0
C218 C 0.46933 -0.00245 0.86345 0.0
C219 C 0.35659 -0.01007 0.8995 0.0
C220 C 0.61062 0.95553 0.86074 0.0
C221 C 0.57544 0.96036 0.85948 0.0
C222 C 0.49601 0.94777 0.89271 0.0
C223 C 0.4099 -0.01437 0.87801 0.0
C224 C 0.44718 0.97878 0.87775 0.0
C225 C 0.55555 0.96126 0.87987 0.0
C226 C 0.51818 0.96683 0.87868 0.0
H227 H 0.34396 0.00341 0.84148 0.0
H228 H 0.40531 -0.0063 0.84073 0.0
H229 H 0.44472 0.93812 0.90307 0.0
H230 H 0.6185 0.94992 0.91981 0.0
H231 H 0.55717 0.95793 0.91759 0.0
C232 C 0.16421 0.06302 0.39018 0.0
C233 C 0.19044 0.03942 0.39318 0.0
C234 C 0.15711 0.08661 0.40759 0.0
C235 C 0.14127 0.08608 0.46431 0.0
H236 H 0.15447 0.1823 0.47257 0.0
C237 C 0.08 0.15414 0.54183 0.0
C238 C 0.06709 0.18664 0.53795 0.0
C239 C 0.10101 0.13886 0.52531 0.0
C240 C 0.15027 0.15548 0.47043 0.0
H241 H 0.23127 0.02334 0.41589 0.0
H242 H 0.218 0.06413 0.44674 0.0
H243 H 0.1824 0.15316 0.44005 0.0
H244 H 0.06614 0.22893 0.51409 0.0
H245 H 0.10133 0.20165 0.48455 0.0
H246 H 0.1075 0.08805 0.49331 0.0
C247 C 0.20363 0.06476 0.43067 0.0
C248 C 0.1666 0.13887 0.45199 0.0
C249 C 0.21122 0.04158 0.41301 0.0
C250 C 0.07594 0.20386 0.51747 0.0
C251 C 0.09635 0.18826 0.50064 0.0
C252 C 0.12453 0.10264 0.48242 0.0
C253 C 0.17581 0.08657 0.42833 0.0
C254 C 0.16199 0.10413 0.44883 0.0
C255 C 0.1089 0.15537 0.50424 0.0
C256 C 0.12855 0.13764 0.48567 0.0
H257 H 0.14777 0.06173 0.37509 0.0
H258 H 0.13532 0.10307 0.40565 0.0
H259 H 0.13707 0.05928 0.46186 0.0
H260 H 0.07407 0.14056 0.55771 0.0
H261 H 0.11088 0.11396 0.52909 0.0
C262 C 0.16266 0.84762 0.41006 0.0
C263 C 0.18763 0.87291 0.41086 0.0
C264 C 0.15455 0.82912 0.43006 0.0
C265 C 0.14337 0.84534 0.48979 0.0
H266 H 0.13268 0.74889 0.49873 0.0
C267 C 0.07107 0.79814 0.56926 0.0
C268 C 0.04723 0.77253 0.56507 0.0
C269 C 0.09688 0.8047 0.55316 0.0
C270 C 0.13531 0.77589 0.49648 0.0
H271 H 0.2248 0.8978 0.43269 0.0
H272 H 0.20955 0.86632 0.46802 0.0
H273 H 0.16234 0.77018 0.46409 0.0
H274 H 0.03303 0.73206 0.54168 0.0
H275 H 0.07714 0.74427 0.51305 0.0
H276 H 0.11426 0.85176 0.52076 0.0
C277 C 0.19695 0.86029 0.45178 0.0
C278 C 0.15252 0.78797 0.47675 0.0
C279 C 0.20572 0.87815 0.4316 0.0
C280 C 0.05123 0.75185 0.54539 0.0
C281 C 0.07663 0.75891 0.52897 0.0
C282 C 0.12564 0.83339 0.50917 0.0
C283 C 0.17068 0.8363 0.45127 0.0
C284 C 0.15641 0.82281 0.47322 0.0
C285 C 0.09886 0.78641 0.53217 0.0
C286 C 0.12102 0.79849 0.51273 0.0
H287 H 0.14835 0.84324 0.39423 0.0
H288 H 0.13401 0.81095 0.42934 0.0
H289 H 0.14542 0.87235 0.48714 0.0
H290 H 0.06874 0.81424 0.58445 0.0
H291 H 0.11422 0.82529 0.55668 0.0
C292 C 0.78321 0.88238 0.38731 0.0
C293 C 0.76143 0.91009 0.39069 0.0
C294 C 0.79034 0.86036 0.40574 0.0
C295 C 0.8065 0.86944 0.46557 0.0
H296 H 0.80373 0.77215 0.47294 0.0
C297 C 0.85594 0.81123 0.54911 0.0
C298 C 0.8771 0.78294 0.54696 0.0
C299 C 0.83582 0.82157 0.53051 0.0
C300 C 0.8049 0.79932 0.47103 0.0
H301 H 0.72798 0.93487 0.41545 0.0
H302 H 0.74119 0.89696 0.44768 0.0
H303 H 0.77839 0.79844 0.43823 0.0
H304 H 0.89224 0.74187 0.5243 0.0
H305 H 0.85781 0.76066 0.49126 0.0
H306 H 0.83435 0.87087 0.49731 0.0
C307 C 0.75229 0.89206 0.43071 0.0
C308 C 0.79027 0.81426 0.45128 0.0
C309 C 0.74461 0.91361 0.4122 0.0
C310 C 0.87609 0.7638 0.52637 0.0
C311 C 0.85632 0.77456 0.50748 0.0
C312 C 0.82148 0.85462 0.48498 0.0
C313 C 0.77623 0.86615 0.42786 0.0
C314 C 0.79069 0.84948 0.44861 0.0
C315 C 0.83697 0.80435 0.50908 0.0
C316 C 0.82056 0.81942 0.48817 0.0
H317 H 0.79655 0.87912 0.37092 0.0
H318 H 0.80901 0.84061 0.40323 0.0
H319 H 0.80791 0.89661 0.46354 0.0
H320 H 0.85584 0.82611 0.56495 0.0
H321 H 0.82033 0.84394 0.53265 0.0
C322 C 0.82658 0.06956 0.41555 0.0
C323 C 0.79192 0.0688 0.40978 0.0
C324 C 0.83818 0.08963 0.43377 0.0
C325 C 0.81156 0.12837 0.48844 0.0
H326 H 0.89948 0.17203 0.48313 0.0
C327 C 0.90422 0.20834 0.55246 0.0
C328 C 0.9275 0.18411 0.56051 0.0
C329 C 0.87978 0.19941 0.53584 0.0
C330 C 0.87458 0.16054 0.48468 0.0
H331 H 0.7423 0.08906 0.41847 0.0
H332 H 0.76286 0.12454 0.4505 0.0
H333 H 0.8729 0.14804 0.44848 0.0
H334 H 0.94154 0.13107 0.55901 0.0
H335 H 0.89923 0.11596 0.53012 0.0
H336 H 0.81453 0.13959 0.52507 0.0
C337 C 0.78086 0.10926 0.44087 0.0
C338 C 0.85952 0.14655 0.46498 0.0
C339 C 0.76915 0.08905 0.42251 0.0
C340 C 0.92408 0.1504 0.55316 0.0
C341 C 0.89982 0.14161 0.53668 0.0
C342 C 0.82681 0.1423 0.50825 0.0
C343 C 0.81552 0.10963 0.44669 0.0
C344 C 0.82836 0.12939 0.46676 0.0
C345 C 0.8783 0.16622 0.5274 0.0
C346 C 0.8587 0.1578 0.50648 0.0
H347 H 0.84485 0.05414 0.40627 0.0
H348 H 0.86492 0.08877 0.43813 0.0
H349 H 0.78767 0.11507 0.49037 0.0
H350 H 0.90623 0.23445 0.55785 0.0
H351 H 0.86334 0.21868 0.52867 0.0
C352 C 0.73983 0.04925 0.91238 0.0
C353 C 0.76063 0.05042 0.89244 0.0
C354 C 0.7454 0.07157 0.93084 0.0
C355 C 0.79149 0.14765 0.95079 0.0
H356 H 0.81221 0.09245 0.00468 0.0
C357 C 0.88134 0.19145 0.02444 0.0
C358 C 0.87826 0.17636 0.04646 0.0
C359 C 0.85966 0.18186 0.0063 0.0
C360 C 0.80573 0.10868 -0.00982 0.0
H361 H 0.80075 0.07839 0.87505 0.0
H362 H 0.81002 0.11765 0.90713 0.0
H363 H 0.78501 0.06711 0.97126 0.0
H364 H 0.84858 0.14206 0.06765 0.0
H365 H 0.80927 0.12705 0.03665 0.0
H366 H 0.81251 0.18927 0.9697 0.0
C367 C 0.78969 0.09932 0.9086 0.0
C368 C 0.79017 0.09398 0.97091 0.0
C369 C 0.78441 0.07676 0.89024 0.0
C370 C 0.85166 0.15364 0.05065 0.0
C371 C 0.82939 0.14483 0.03278 0.0
C372 C 0.8066 0.1626 0.97032 0.0
C373 C 0.77147 0.09575 0.92953 0.0
C374 C 0.7834 0.11312 0.95087 0.0
C375 C 0.83402 0.15759 0.01007 0.0
C376 C 0.81451 0.14314 -0.00985 0.0
H377 H 0.72132 0.02925 0.91465 0.0
H378 H 0.73078 0.06855 0.94673 0.0
H379 H 0.78658 0.16293 0.9355 0.0
H380 H 0.90186 0.20895 0.02083 0.0
H381 H 0.86434 0.19212 -0.0109 0.0
C382 C 0.1963 0.06394 0.94287 0.0
C383 C 0.19718 0.07568 0.91987 0.0
C384 C 0.18801 0.08582 0.96104 0.0
C385 C 0.13517 0.15951 0.97087 0.0
H386 H 0.16733 0.14872 0.03428 0.0
C387 C 0.05758 0.20977 0.04826 0.0
C388 C 0.04981 0.18376 0.06409 0.0
C389 C 0.08414 0.20589 0.03221 0.0
C390 C 0.15828 0.15229 0.01664 0.0
H391 H 0.19115 0.11915 0.89746 0.0
H392 H 0.17656 0.15786 0.92937 0.0
H393 H 0.19998 0.12477 0.00203 0.0
H394 H 0.06544 0.13469 0.07688 0.0
H395 H 0.11176 0.12808 0.04917 0.0
H396 H 0.09259 0.18549 -0.01446 0.0
C397 C 0.18254 0.13184 0.93343 0.0
C398 C 0.17692 0.13856 -0.00181 0.0
C399 C 0.19114 0.10989 0.91524 0.0
C400 C 0.07074 0.1551 0.06483 0.0
C401 C 0.09745 0.15142 0.04902 0.0
C402 C 0.11659 0.17334 -0.01068 0.0
C403 C 0.17996 0.11978 0.95645 0.0
C404 C 0.16481 0.1408 0.97521 0.0
C405 C 0.10365 0.17619 0.03198 0.0
C406 C 0.12724 0.16866 0.01246 0.0
H407 H 0.20029 0.03743 0.94663 0.0
H408 H 0.18567 0.07552 -0.02154 0.0
H409 H 0.12491 0.1614 0.95341 0.0
H410 H 0.04183 0.23213 0.04724 0.0
H411 H 0.08852 0.22547 0.01936 0.0
C412 C 0.08301 0.81046 0.0495 0.0
C413 C 0.07154 0.77706 0.04749 0.0
C414 C 0.10285 0.82497 0.0319 0.0
C415 C 0.15217 0.80413 0.97758 0.0
H416 H 0.13832 0.89927 0.96496 0.0
C417 C 0.17057 0.88819 0.89317 0.0
C418 C 0.1951 0.91361 0.89614 0.0
C419 C 0.16261 0.86627 0.9115 0.0
C420 C 0.14262 0.87274 0.9685 0.0
H421 H 0.07173 0.73257 0.02559 0.0
H422 H 0.10475 0.75826 -0.00569 0.0
H423 H 0.1086 0.87291 -0.00256 0.0
H424 H 0.23229 0.93441 0.91998 0.0
H425 H 0.2176 0.89657 0.95222 0.0
H426 H 0.18472 0.80418 0.94736 0.0
C427 C 0.09965 0.77307 0.00977 0.0
C428 C 0.1258 0.85758 -0.01278 0.0
C429 C 0.08044 0.75834 0.02763 0.0
C430 C 0.21363 0.91477 0.91705 0.0
C431 C 0.20513 0.89331 0.93555 0.0
C432 C 0.16852 0.81928 0.95853 0.0
C433 C 0.11104 0.80669 0.01158 0.0
C434 C 0.1302 0.82299 -0.00795 0.0
C435 C 0.17872 0.86981 0.93313 0.0
C436 C 0.16378 0.85366 0.95391 0.0
H437 H 0.07686 0.82535 0.06478 0.0
H438 H 0.11175 0.85058 0.03433 0.0
H439 H 0.15676 0.77764 -0.0191 0.0
H440 H 0.15578 0.88691 0.87729 0.0
H441 H 0.14198 0.84842 0.9094 0.0
C442 C 0.77669 0.87071 0.92711 0.0
C443 C 0.79709 0.89441 0.91527 0.0
C444 C 0.78993 0.85231 0.946 0.0
C445 C 0.87286 0.82824 0.97184 0.0
H446 H 0.8246 0.82096 0.03067 0.0
C447 C 0.94384 0.81353 0.05693 0.0
C448 C 0.93841 0.78238 0.06801 0.0
C449 C 0.92125 0.82494 0.03995 0.0
C450 C 0.83813 0.82266 0.01425 0.0
H451 H 0.84707 0.91772 0.9144 0.0
H452 H 0.86939 0.8867 0.94698 0.0
H453 H 0.79497 0.8427 -0.00398 0.0
H454 H 0.90357 0.74019 0.07149 0.0
H455 H 0.86362 0.76074 0.04199 0.0
H456 H 0.91634 0.80997 -0.00984 0.0
C457 C 0.84364 0.88136 0.94149 0.0
C458 C 0.8212 0.83481 -0.00557 0.0
C459 C 0.83066 0.89938 0.92277 0.0
C460 C 0.90847 0.76425 0.06315 0.0
C461 C 0.88558 0.77596 0.04636 0.0
C462 C 0.88974 0.8167 -0.00843 0.0
C463 C 0.8237 0.85739 0.95325 0.0
C464 C 0.83883 0.83881 0.97321 0.0
C465 C 0.89256 0.80572 0.03402 0.0
C466 C 0.87286 0.81475 0.01306 0.0
H467 H 0.75068 0.86639 0.92179 0.0
H468 H 0.77394 0.83399 0.95476 0.0
H469 H 0.88691 0.83008 0.95562 0.0
H470 H 0.96663 0.82805 0.06023 0.0
H471 H 0.92698 0.84808 0.03066 0.0
C472 C 0.05574 0.18093 0.66469 0.0
C473 C 0.06791 0.17303 0.64238 0.0
C474 C 0.07411 0.17082 0.68441 0.0
C475 C 0.13491 0.1045 0.70104 0.0
H476 H 0.14018 0.15372 0.75926 0.0
C477 C 0.1986 0.04898 0.78388 0.0
C478 C 0.17756 0.0509 0.80365 0.0
C479 C 0.19036 0.06727 0.76369 0.0
C480 C 0.13899 0.13974 0.74305 0.0
H481 H 0.10917 0.15058 0.62279 0.0
H482 H 0.14166 0.13405 0.65693 0.0
H483 H 0.11538 0.18087 0.72502 0.0
H484 H 0.13247 0.07453 0.81818 0.0
H485 H 0.11856 0.10625 0.78343 0.0
H486 H 0.15773 0.06312 0.7192 0.0
C487 C 0.11779 0.14715 0.65946 0.0
C488 C 0.12465 0.15523 0.72352 0.0
C489 C 0.09941 0.15691 0.63993 0.0
C490 C 0.14897 0.07212 0.80312 0.0
C491 C 0.14117 0.09069 0.78329 0.0
C492 C 0.14932 0.08908 0.72053 0.0
C493 C 0.10483 0.15284 0.68192 0.0
C494 C 0.12202 0.1376 0.70238 0.0
C495 C 0.16151 0.0883 0.76328 0.0
C496 C 0.15092 0.10631 0.74185 0.0
H497 H 0.03121 0.1929 0.66687 0.0
H498 H 0.06335 0.17539 0.70151 0.0
H499 H 0.13273 0.08995 0.68513 0.0
H500 H 0.22082 0.03288 0.78388 0.0
H501 H 0.20647 0.065 0.74843 0.0
C502 C 0.05421 0.82331 0.14221 0.0
C503 C 0.0483 0.78841 0.14403 0.0
C504 C 0.0724 0.84036 0.15951 0.0
C505 C 0.13588 0.82579 0.20526 0.0
H506 H 0.10492 0.91139 0.23001 0.0
C507 C 0.19028 0.88415 0.28948 0.0
C508 C 0.18811 0.91915 0.29264 0.0
C509 C 0.17766 0.86926 0.26917 0.0
C510 C 0.1145 0.8879 0.22297 0.0
H511 H 0.05588 0.74427 0.16581 0.0
H512 H 0.08747 0.77407 0.19597 0.0
H513 H 0.0724 0.88362 0.19957 0.0
H514 H 0.17332 0.96639 0.27681 0.0
H515 H 0.15363 0.94086 0.24053 0.0
H516 H 0.17815 0.83005 0.22839 0.0
C517 C 0.07848 0.78812 0.18101 0.0
C518 C 0.09561 0.87187 0.2056 0.0
C519 C 0.06017 0.77113 0.1638 0.0
C520 C 0.17559 0.93933 0.27454 0.0
C521 C 0.16373 0.92457 0.25399 0.0
C522 C 0.15504 0.84201 0.22242 0.0
C523 C 0.08519 0.82282 0.17891 0.0
C524 C 0.10586 0.84046 0.19677 0.0
C525 C 0.16306 0.8892 0.25148 0.0
C526 C 0.14444 0.87315 0.23173 0.0
H527 H 0.04545 0.83734 0.12719 0.0
H528 H 0.07728 0.8671 0.15739 0.0
H529 H 0.14468 0.8018 0.19851 0.0
H530 H 0.19902 0.86808 0.30353 0.0
H531 H 0.17729 0.84198 0.26814 0.0
C532 C 0.88867 0.75466 0.66686 0.0
C533 C 0.91995 0.77087 0.66306 0.0
C534 C 0.86837 0.76372 0.68596 0.0
C535 C 0.86796 0.81351 0.74106 0.0
H536 H 0.77795 0.84159 0.72153 0.0
C537 C 0.80196 0.92548 0.78099 0.0
C538 C 0.77632 0.91615 0.79685 0.0
C539 C 0.81303 0.90289 0.76401 0.0
C540 C 0.80277 0.83332 0.72728 0.0
H541 H 0.95612 0.8065 0.67725 0.0
H542 H 0.92133 0.82182 0.71058 0.0
H543 H 0.81262 0.80621 0.69566 0.0
H544 H 0.7397 0.87726 0.80573 0.0
H545 H 0.75911 0.83764 0.77552 0.0
H546 H 0.85891 0.84251 0.77195 0.0
C547 C 0.91209 0.80236 0.69895 0.0
C548 C 0.82256 0.81295 0.71262 0.0
C549 C 0.93208 0.79365 0.6798 0.0
C550 C 0.75947 0.88514 0.79374 0.0
C551 C 0.7706 0.86244 0.77658 0.0
C552 C 0.84834 0.83399 0.75554 0.0
C553 C 0.87936 0.78868 0.70168 0.0
C554 C 0.85582 0.80377 0.71906 0.0
C555 C 0.79849 0.8707 0.7624 0.0
C556 C 0.81606 0.84479 0.74847 0.0
H557 H 0.87865 0.73717 0.6541 0.0
H558 H 0.84343 0.75246 0.6878 0.0
H559 H 0.89326 0.80653 0.74665 0.0
H560 H 0.81518 0.94933 0.78277 0.0
H561 H 0.83444 0.90975 0.75307 0.0
C562 C 0.76233 0.0809 0.29653 0.0
C563 C 0.76988 0.04634 0.29468 0.0
C564 C 0.77419 0.10359 0.27968 0.0
C565 C 0.8046 0.116 0.221 0.0
H566 H 0.87979 0.16775 0.2463 0.0
C567 C 0.88858 0.20096 0.16348 0.0
C568 C 0.92063 0.18567 0.16141 0.0
C569 C 0.86691 0.19218 0.18187 0.0
C570 C 0.85845 0.15396 0.23914 0.0
H571 H 0.79312 0.00796 0.27304 0.0
H572 H 0.8122 0.04751 0.24287 0.0
H573 H 0.84297 0.13506 0.27258 0.0
H574 H 0.95654 0.15195 0.17793 0.0
H575 H 0.91922 0.1379 0.21072 0.0
H576 H 0.82052 0.13424 0.18752 0.0
C577 C 0.79771 0.05702 0.25755 0.0
C578 C 0.83743 0.13541 0.25409 0.0
C579 C 0.78674 0.03445 0.27471 0.0
C580 C 0.93199 0.16416 0.17922 0.0
C581 C 0.91068 0.15612 0.19792 0.0
C582 C 0.82508 0.13522 0.20613 0.0
C583 C 0.79277 0.09184 0.26043 0.0
C584 C 0.81091 0.11566 0.24504 0.0
C585 C 0.87744 0.16881 0.19876 0.0
C586 C 0.85265 0.15366 0.21503 0.0
H587 H 0.74989 0.09074 0.31197 0.0
H588 H 0.77027 0.13041 0.28221 0.0
H589 H 0.78449 0.10065 0.21371 0.0
H590 H 0.87909 0.2173 0.14983 0.0
H591 H 0.84132 0.20219 0.18223 0.0
loop_
_geom_bond_atom_site_label_1
_geom_bond_atom_site_label_2
_geom_bond_distance
_geom_bond_site_symmetry_2
_ccdc_geom_bond_type
Zn0 O3 2.031 . S
Zn0 O5 2.049 . S
Zn0 O10 2.067 . S
Zn1 O2 1.962 1_455 S
Zn1 O4 1.986 . S
Zn1 O6 1.996 . S
Zn1 O9 1.943 . S
O2 Zn1 1.962 1_655 S
O2 C7 1.254 . S
O3 Zn0 2.031 . S
O3 C7 1.270 1_455 S
O4 Zn1 1.986 . S
O4 C11 1.262 . S
O5 Zn0 2.049 . S
O5 C13 1.260 . S
O6 Zn1 1.996 . S
O6 C13 1.257 . S
C7 O2 1.254 . S
C7 O3 1.270 1_655 S
C8 O9 1.249 . S
C8 O10 1.270 . S
O9 Zn1 1.943 . S
O9 C8 1.249 . S
O10 Zn0 2.067 . S
O10 C8 1.270 . S
C11 O4 1.262 . S
C11 O12 1.232 . S
O12 C11 1.232 . S
C13 O5 1.260 . S
C13 O6 1.257 . S
Zn14 O17 2.031 . S
Zn14 O19 2.049 . S
Zn14 O24 2.067 . S
Zn15 O16 1.962 1_565 S
Zn15 O18 1.986 . S
Zn15 O20 1.996 . S
Zn15 O23 1.943 . S
O16 Zn15 1.962 1_545 S
O16 C21 1.254 . S
O17 Zn14 2.031 . S
O17 C21 1.270 1_565 S
O18 Zn15 1.986 . S
O18 C25 1.262 . S
O19 Zn14 2.049 . S
O19 C27 1.260 . S
O20 Zn15 1.996 . S
O20 C27 1.257 . S
C21 O16 1.254 . S
C21 O17 1.270 1_545 S
C22 O23 1.249 . S
C22 O24 1.270 . S
O23 Zn15 1.943 . S
O23 C22 1.249 . S
O24 Zn14 2.067 . S
O24 C22 1.270 . S
C25 O18 1.262 . S
C25 O26 1.232 . S
O26 C25 1.232 . S
C27 O19 1.260 . S
C27 O20 1.257 . S
Zn28 O31 2.031 . S
Zn28 O33 2.049 . S
Zn28 O38 2.067 . S
Zn29 O30 1.962 1_655 S
Zn29 O32 1.986 . S
Zn29 O34 1.996 . S
Zn29 O37 1.943 . S
O30 Zn29 1.962 1_455 S
O30 C35 1.254 . S
O31 Zn28 2.031 . S
O31 C35 1.270 1_655 S
O32 Zn29 1.986 . S
O32 C39 1.262 . S
O33 Zn28 2.049 . S
O33 C41 1.260 . S
O34 Zn29 1.996 . S
O34 C41 1.257 . S
C35 O30 1.254 . S
C35 O31 1.270 1_455 S
C36 O37 1.249 . S
C36 O38 1.270 . S
O37 Zn29 1.943 . S
O37 C36 1.249 . S
O38 Zn28 2.067 . S
O38 C36 1.270 . S
C39 O32 1.262 . S
C39 O40 1.232 . S
O40 C39 1.232 . S
C41 O33 1.260 . S
C41 O34 1.257 . S
Zn42 O45 2.031 . S
Zn42 O47 2.049 . S
Zn42 O52 2.067 . S
Zn43 O44 1.962 1_545 S
Zn43 O46 1.986 . S
Zn43 O48 1.996 . S
Zn43 O51 1.943 . S
O44 Zn43 1.962 1_565 S
O44 C49 1.254 . S
O45 Zn42 2.031 . S
O45 C49 1.270 1_545 S
O46 Zn43 1.986 . S
O46 C53 1.262 . S
O47 Zn42 2.049 . S
O47 C55 1.260 . S
O48 Zn43 1.996 . S
O48 C55 1.257 . S
C49 O44 1.254 . S
C49 O45 1.270 1_565 S
C50 O51 1.249 . S
C50 O52 1.270 . S
O51 Zn43 1.943 . S
O51 C50 1.249 . S
O52 Zn42 2.067 . S
O52 C50 1.270 . S
C53 O46 1.262 . S
C53 O54 1.232 . S
O54 C53 1.232 . S
C55 O47 1.260 . S
C55 O48 1.257 . S
Zn56 O59 2.031 . S
Zn56 O61 2.049 . S
Zn56 O66 2.067 . S
Zn57 O58 1.962 1_655 S
Zn57 O60 1.986 . S
Zn57 O62 1.996 . S
Zn57 O65 1.943 . S
O58 Zn57 1.962 1_455 S
O58 C63 1.254 . S
O59 Zn56 2.031 . S
O59 C63 1.270 1_655 S
O60 Zn57 1.986 . S
O60 C67 1.262 . S
O61 Zn56 2.049 . S
O61 C69 1.260 . S
O62 Zn57 1.996 . S
O62 C69 1.257 . S
C63 O58 1.254 . S
C63 O59 1.270 1_455 S
C64 O65 1.249 . S
C64 O66 1.270 . S
O65 Zn57 1.943 . S
O65 C64 1.249 . S
O66 Zn56 2.067 . S
O66 C64 1.270 . S
C67 O60 1.262 . S
C67 O68 1.232 . S
O68 C67 1.232 . S
C69 O61 1.260 . S
C69 O62 1.257 . S
Zn70 O73 2.031 . S
Zn70 O75 2.049 . S
Zn70 O80 2.067 . S
Zn71 O72 1.962 1_545 S
Zn71 O74 1.986 . S
Zn71 O76 1.996 . S
Zn71 O79 1.943 . S
O72 Zn71 1.962 1_565 S
O72 C77 1.254 . S
O73 Zn70 2.031 . S
O73 C77 1.270 1_545 S
O74 Zn71 1.986 . S
O74 C81 1.262 . S
O75 Zn70 2.049 . S
O75 C83 1.260 . S
O76 Zn71 1.996 . S
O76 C83 1.257 . S
C77 O72 1.254 . S
C77 O73 1.270 1_565 S
C78 O79 1.249 . S
C78 O80 1.270 . S
O79 Zn71 1.943 . S
O79 C78 1.249 . S
O80 Zn70 2.067 . S
O80 C78 1.270 . S
C81 O74 1.262 . S
C81 O82 1.232 . S
O82 C81 1.232 . S
C83 O75 1.260 . S
C83 O76 1.257 . S
Zn84 O87 2.031 . S
Zn84 O89 2.049 . S
Zn84 O94 2.067 . S
Zn85 O86 1.962 1_455 S
Zn85 O88 1.986 . S
Zn85 O90 1.996 . S
Zn85 O93 1.943 . S
O86 Zn85 1.962 1_655 S
O86 C91 1.254 . S
O87 Zn84 2.031 . S
O87 C91 1.270 1_455 S
O88 Zn85 1.986 . S
O88 C95 1.262 . S
O89 Zn84 2.049 . S
O89 C97 1.260 . S
O90 Zn85 1.996 . S
O90 C97 1.257 . S
C91 O86 1.254 . S
C91 O87 1.270 1_655 S
C92 O93 1.249 . S
C92 O94 1.270 . S
O93 Zn85 1.943 . S
O93 C92 1.249 . S
O94 Zn84 2.067 . S
O94 C92 1.270 . S
C95 O88 1.262 . S
C95 O96 1.232 . S
O96 C95 1.232 . S
C97 O89 1.260 . S
C97 O90 1.257 . S
Zn98 O101 2.031 . S
Zn98 O103 2.049 . S
Zn98 O108 2.067 . S
Zn99 O100 1.962 1_565 S
Zn99 O102 1.986 . S
Zn99 O104 1.996 . S
Zn99 O107 1.943 . S
O100 Zn99 1.962 1_545 S
O100 C105 1.254 . S
O101 Zn98 2.031 . S
O101 C105 1.270 1_565 S
O102 Zn99 1.986 . S
O102 C109 1.262 . S
O103 Zn98 2.049 . S
O103 C111 1.260 . S
O104 Zn99 1.996 . S
O104 C111 1.257 . S
C105 O100 1.254 . S
C105 O101 1.270 1_545 S
C106 O107 1.249 . S
C106 O108 1.270 . S
O107 Zn99 1.943 . S
O107 C106 1.249 . S
O108 Zn98 2.067 . S
O108 C106 1.270 . S
C109 O102 1.262 . S
C109 O110 1.232 . S
O110 C109 1.232 . S
C111 O103 1.260 . S
C111 O104 1.257 . S
C112 C113 1.349 . S
C112 C114 1.323 1_655 S
C112 H137 0.950 1_655 S
C113 C112 1.349 . S
C113 C129 1.349 . S
C114 C112 1.323 1_455 S
C114 C133 1.420 1_455 S
C114 H138 0.963 . S
C115 C132 1.574 . S
C115 C134 1.368 . S
C115 H139 0.949 . S
H116 C120 0.949 . S
C117 C118 1.349 . S
C117 C119 1.323 1_455 S
C117 H140 0.950 1_455 S
C118 C117 1.349 . S
C118 C130 1.349 . S
C119 C117 1.323 1_655 S
C119 C135 1.420 1_655 S
C119 H141 0.963 . S
C120 H116 0.949 . S
C120 C128 1.574 . S
C120 C136 1.368 . S
H121 C129 0.950 . S
H122 C127 0.950 . S
H123 C128 0.949 . S
H124 C130 0.950 . S
H125 C131 0.950 . S
H126 C132 0.949 . S
C127 H122 0.950 . S
C127 C129 1.327 . S
C127 C133 1.429 . S
C128 C120 1.574 . S
C128 H123 0.949 . S
C128 C134 1.368 1_455 S
C129 C113 1.349 . S
C129 H121 0.950 . S
C129 C127 1.327 . S
C130 C118 1.349 . S
C130 H124 0.950 . S
C130 C131 1.327 . S
C131 H125 0.950 . S
C131 C130 1.327 . S
C131 C135 1.429 . S
C132 C115 1.574 . S
C132 H126 0.949 . S
C132 C136 1.368 1_655 S
C133 C114 1.420 1_655 S
C133 C127 1.429 . S
C133 C134 1.523 . S
C134 C115 1.368 . S
C134 C128 1.368 1_655 S
C134 C133 1.523 . S
C135 C119 1.420 1_455 S
C135 C131 1.429 . S
C135 C136 1.523 . S
C136 C120 1.368 . S
C136 C132 1.368 1_455 S
C136 C135 1.523 . S
H137 C112 0.950 1_455 S
H138 C114 0.963 . S
H139 C115 0.949 . S
H140 C117 0.950 1_655 S
H141 C119 0.963 . S
C142 C143 1.349 . S
C142 C144 1.323 1_545 S
C142 H167 0.950 1_545 S
C143 C142 1.349 . S
C143 C159 1.349 . S
C144 C142 1.323 1_565 S
C144 C163 1.420 1_565 S
C144 H168 0.963 . S
C145 C162 1.574 . S
C145 C164 1.368 . S
C145 H169 0.949 . S
H146 C150 0.949 . S
C147 C148 1.349 . S
C147 C149 1.323 1_565 S
C147 H170 0.950 1_565 S
C148 C147 1.349 . S
C148 C160 1.349 . S
C149 C147 1.323 1_545 S
C149 C165 1.420 1_545 S
C149 H171 0.963 . S
C150 H146 0.949 . S
C150 C158 1.574 . S
C150 C166 1.368 . S
H151 C159 0.950 . S
H152 C157 0.950 . S
H153 C158 0.949 . S
H154 C160 0.950 . S
H155 C161 0.950 . S
H156 C162 0.949 . S
C157 H152 0.950 . S
C157 C159 1.327 . S
C157 C163 1.429 . S
C158 C150 1.574 . S
C158 H153 0.949 . S
C158 C164 1.368 1_565 S
C159 C143 1.349 . S
C159 H151 0.950 . S
C159 C157 1.327 . S
C160 C148 1.349 . S
C160 H154 0.950 . S
C160 C161 1.327 . S
C161 H155 0.950 . S
C161 C160 1.327 . S
C161 C165 1.429 . S
C162 C145 1.574 . S
C162 H156 0.949 . S
C162 C166 1.368 1_545 S
C163 C144 1.420 1_545 S
C163 C157 1.429 . S
C163 C164 1.523 . S
C164 C145 1.368 . S
C164 C158 1.368 1_545 S
C164 C163 1.523 . S
C165 C149 1.420 1_565 S
C165 C161 1.429 . S
C165 C166 1.523 . S
C166 C150 1.368 . S
C166 C162 1.368 1_565 S
C166 C165 1.523 . S
H167 C142 0.950 1_565 S
H168 C144 0.963 . S
H169 C145 0.949 . S
H170 C147 0.950 1_545 S
H171 C149 0.963 . S
C172 C173 1.349 . S
C172 C174 1.323 1_655 S
C172 H197 0.950 1_655 S
C173 C172 1.349 . S
C173 C189 1.349 . S
C174 C172 1.323 1_455 S
C174 C193 1.420 1_455 S
C174 H198 0.963 . S
C175 C192 1.574 . S
C175 C194 1.368 . S
C175 H199 0.949 . S
H176 C180 0.949 . S
C177 C178 1.349 . S
C177 C179 1.323 1_455 S
C177 H200 0.950 1_455 S
C178 C177 1.349 . S
C178 C190 1.349 . S
C179 C177 1.323 1_655 S
C179 C195 1.420 1_655 S
C179 H201 0.963 . S
C180 H176 0.949 . S
C180 C188 1.574 . S
C180 C196 1.368 . S
H181 C189 0.950 . S
H182 C187 0.950 . S
H183 C188 0.949 . S
H184 C190 0.950 . S
H185 C191 0.950 . S
H186 C192 0.949 . S
C187 H182 0.950 . S
C187 C189 1.327 . S
C187 C193 1.429 . S
C188 C180 1.574 . S
C188 H183 0.949 . S
C188 C194 1.368 1_455 S
C189 C173 1.349 . S
C189 H181 0.950 . S
C189 C187 1.327 . S
C190 C178 1.349 . S
C190 H184 0.950 . S
C190 C191 1.327 . S
C191 H185 0.950 . S
C191 C190 1.327 . S
C191 C195 1.429 . S
C192 C175 1.574 . S
C192 H186 0.949 . S
C192 C196 1.368 1_655 S
C193 C174 1.420 1_655 S
C193 C187 1.429 . S
C193 C194 1.523 . S
C194 C175 1.368 . S
C194 C188 1.368 1_655 S
C194 C193 1.523 . S
C195 C179 1.420 1_455 S
C195 C191 1.429 . S
C195 C196 1.523 . S
C196 C180 1.368 . S
C196 C192 1.368 1_455 S
C196 C195 1.523 . S
H197 C172 0.950 1_455 S
H198 C174 0.963 . S
H199 C175 0.949 . S
H200 C177 0.950 1_655 S
H201 C179 0.963 . S
C202 C203 1.349 . S
C202 C204 1.327 . S
C202 H227 0.950 . S
C203 C202 1.349 . S
C203 C219 1.349 . S
C204 C202 1.327 . S
C204 C223 1.429 . S
C204 H228 0.950 . S
C205 C222 1.574 . S
C205 C224 1.368 1_565 S
C205 H229 0.949 . S
H206 C210 0.949 . S
C207 C208 1.349 . S
C207 C209 1.327 . S
C207 H230 0.950 . S
C208 C207 1.349 . S
C208 C220 1.349 . S
C209 C207 1.327 . S
C209 C225 1.429 . S
C209 H231 0.950 . S
C210 H206 0.949 . S
C210 C218 1.574 . S
C210 C226 1.368 1_545 S
H211 C219 0.950 1_565 S
H212 C217 0.963 . S
H213 C218 0.949 . S
H214 C220 0.950 1_545 S
H215 C221 0.963 . S
H216 C222 0.949 . S
C217 H212 0.963 . S
C217 C219 1.323 1_565 S
C217 C223 1.420 1_565 S
C218 C210 1.574 . S
C218 H213 0.949 . S
C218 C224 1.368 . S
C219 C203 1.349 . S
C219 H211 0.950 1_545 S
C219 C217 1.323 1_545 S
C220 C208 1.349 . S
C220 H214 0.950 1_565 S
C220 C221 1.323 1_565 S
C221 H215 0.963 . S
C221 C220 1.323 1_545 S
C221 C225 1.420 1_545 S
C222 C205 1.574 . S
C222 H216 0.949 . S
C222 C226 1.368 . S
C223 C204 1.429 . S
C223 C217 1.420 1_545 S
C223 C224 1.523 . S
C224 C205 1.368 1_545 S
C224 C218 1.368 . S
C224 C223 1.523 . S
C225 C209 1.429 . S
C225 C221 1.420 1_565 S
C225 C226 1.523 . S
C226 C210 1.368 1_565 S
C226 C222 1.368 . S
C226 C225 1.523 . S
H227 C202 0.950 . S
H228 C204 0.950 . S
H229 C205 0.949 . S
H230 C207 0.950 . S
H231 C209 0.950 . S
C232 C233 1.349 . S
C232 C234 1.327 . S
C232 H257 0.950 . S
C233 C232 1.349 . S
C233 C249 1.349 . S
C234 C232 1.327 . S
C234 C253 1.429 . S
C234 H258 0.950 . S
C235 C252 1.574 . S
C235 C254 1.368 . S
C235 H259 0.949 . S
H236 C240 0.949 . S
C237 C238 1.349 . S
C237 C239 1.327 . S
C237 H260 0.950 . S
C238 C237 1.349 . S
C238 C250 1.349 . S
C239 C237 1.327 . S
C239 C255 1.429 . S
C239 H261 0.950 . S
C240 H236 0.949 . S
C240 C248 1.574 . S
C240 C256 1.368 . S
H241 C249 0.950 . S
H242 C247 0.950 . S
H243 C248 0.949 . S
H244 C250 0.950 . S
H245 C251 0.950 . S
H246 C252 0.949 . S
C247 H242 0.950 . S
C247 C249 1.327 . S
C247 C253 1.429 . S
C248 C240 1.574 . S
C248 H243 0.949 . S
C248 C254 1.368 . S
C249 C233 1.349 . S
C249 H241 0.950 . S
C249 C247 1.327 . S
C250 C238 1.349 . S
C250 H244 0.950 . S
C250 C251 1.327 . S
C251 H245 0.950 . S
C251 C250 1.327 . S
C251 C255 1.429 . S
C252 C235 1.574 . S
C252 H246 0.949 . S
C252 C256 1.368 . S
C253 C234 1.429 . S
C253 C247 1.429 . S
C253 C254 1.523 . S
C254 C235 1.368 . S
C254 C248 1.368 . S
C254 C253 1.523 . S
C255 C239 1.429 . S
C255 C251 1.429 . S
C255 C256 1.523 . S
C256 C240 1.368 . S
C256 C252 1.368 . S
C256 C255 1.523 . S
H257 C232 0.950 . S
H258 C234 0.950 . S
H259 C235 0.949 . S
H260 C237 0.950 . S
H261 C239 0.950 . S
C262 C263 1.349 . S
C262 C264 1.327 . S
C262 H287 0.950 . S
C263 C262 1.349 . S
C263 C279 1.349 . S
C264 C262 1.327 . S
C264 C283 1.429 . S
C264 H288 0.950 . S
C265 C282 1.574 . S
C265 C284 1.368 . S
C265 H289 0.949 . S
H266 C270 0.949 . S
C267 C268 1.349 . S
C267 C269 1.327 . S
C267 H290 0.950 . S
C268 C267 1.349 . S
C268 C280 1.349 . S
C269 C267 1.327 . S
C269 C285 1.429 . S
C269 H291 0.950 . S
C270 H266 0.949 . S
C270 C278 1.574 . S
C270 C286 1.368 . S
H271 C279 0.950 . S
H272 C277 0.950 . S
H273 C278 0.949 . S
H274 C280 0.950 . S
H275 C281 0.950 . S
H276 C282 0.949 . S
C277 H272 0.950 . S
C277 C279 1.327 . S
C277 C283 1.429 . S
C278 C270 1.574 . S
C278 H273 0.949 . S
C278 C284 1.368 . S
C279 C263 1.349 . S
C279 H271 0.950 . S
C279 C277 1.327 . S
C280 C268 1.349 . S
C280 H274 0.950 . S
C280 C281 1.327 . S
C281 H275 0.950 . S
C281 C280 1.327 . S
C281 C285 1.429 . S
C282 C265 1.574 . S
C282 H276 0.949 . S
C282 C286 1.368 . S
C283 C264 1.429 . S
C283 C277 1.429 . S
C283 C284 1.523 . S
C284 C265 1.368 . S
C284 C278 1.368 . S
C284 C283 1.523 . S
C285 C269 1.429 . S
C285 C281 1.429 . S
C285 C286 1.523 . S
C286 C270 1.368 . S
C286 C282 1.368 . S
C286 C285 1.523 . S
H287 C262 0.950 . S
H288 C264 0.950 . S
H289 C265 0.949 . S
H290 C267 0.950 . S
H291 C269 0.950 . S
C292 C293 1.349 . S
C292 C294 1.327 . S
C292 H317 0.950 . S
C293 C292 1.349 . S
C293 C309 1.349 . S
C294 C292 1.327 . S
C294 C313 1.429 . S
C294 H318 0.950 . S
C295 C312 1.574 . S
C295 C314 1.368 . S
C295 H319 0.949 . S
H296 C300 0.949 . S
C297 C298 1.349 . S
C297 C299 1.327 . S
C297 H320 0.950 . S
C298 C297 1.349 . S
C298 C310 1.349 . S
C299 C297 1.327 . S
C299 C315 1.429 . S
C299 H321 0.950 . S
C300 H296 0.949 . S
C300 C308 1.574 . S
C300 C316 1.368 . S
H301 C309 0.950 . S
H302 C307 0.950 . S
H303 C308 0.949 . S
H304 C310 0.950 . S
H305 C311 0.950 . S
H306 C312 0.949 . S
C307 H302 0.950 . S
C307 C309 1.327 . S
C307 C313 1.429 . S
C308 C300 1.574 . S
C308 H303 0.949 . S
C308 C314 1.368 . S
C309 C293 1.349 . S
C309 H301 0.950 . S
C309 C307 1.327 . S
C310 C298 1.349 . S
C310 H304 0.950 . S
C310 C311 1.327 . S
C311 H305 0.950 . S
C311 C310 1.327 . S
C311 C315 1.429 . S
C312 C295 1.574 . S
C312 H306 0.949 . S
C312 C316 1.368 . S
C313 C294 1.429 . S
C313 C307 1.429 . S
C313 C314 1.523 . S
C314 C295 1.368 . S
C314 C308 1.368 . S
C314 C313 1.523 . S
C315 C299 1.429 . S
C315 C311 1.429 . S
C315 C316 1.523 . S
C316 C300 1.368 . S
C316 C312 1.368 . S
C316 C315 1.523 . S
H317 C292 0.950 . S
H318 C294 0.950 . S
H319 C295 0.949 . S
H320 C297 0.950 . S
H321 C299 0.950 . S
C322 C323 1.349 . S
C322 C324 1.327 . S
C322 H347 0.950 . S
C323 C322 1.349 . S
C323 C339 1.349 . S
C324 C322 1.327 . S
C324 C343 1.429 . S
C324 H348 0.950 . S
C325 C342 1.574 . S
C325 C344 1.368 . S
C325 H349 0.949 . S
H326 C330 0.949 . S
C327 C328 1.349 . S
C327 C329 1.327 . S
C327 H350 0.950 . S
C328 C327 1.349 . S
C328 C340 1.349 . S
C329 C327 1.327 . S
C329 C345 1.429 . S
C329 H351 0.950 . S
C330 H326 0.949 . S
C330 C338 1.574 . S
C330 C346 1.368 . S
H331 C339 0.950 . S
H332 C337 0.950 . S
H333 C338 0.949 . S
H334 C340 0.950 . S
H335 C341 0.950 . S
H336 C342 0.949 . S
C337 H332 0.950 . S
C337 C339 1.327 . S
C337 C343 1.429 . S
C338 C330 1.574 . S
C338 H333 0.949 . S
C338 C344 1.368 . S
C339 C323 1.349 . S
C339 H331 0.950 . S
C339 C337 1.327 . S
C340 C328 1.349 . S
C340 H334 0.950 . S
C340 C341 1.327 . S
C341 H335 0.950 . S
C341 C340 1.327 . S
C341 C345 1.429 . S
C342 C325 1.574 . S
C342 H336 0.949 . S
C342 C346 1.368 . S
C343 C324 1.429 . S
C343 C337 1.429 . S
C343 C344 1.523 . S
C344 C325 1.368 . S
C344 C338 1.368 . S
C344 C343 1.523 . S
C345 C329 1.429 . S
C345 C341 1.429 . S
C345 C346 1.523 . S
C346 C330 1.368 . S
C346 C342 1.368 . S
C346 C345 1.523 . S
H347 C322 0.950 . S
H348 C324 0.950 . S
H349 C325 0.949 . S
H350 C327 0.950 . S
H351 C329 0.950 . S
C352 C353 1.349 . S
C352 C354 1.327 . S
C352 H377 0.950 . S
C353 C352 1.349 . S
C353 C369 1.349 . S
C354 C352 1.327 . S
C354 C373 1.429 . S
C354 H378 0.950 . S
C355 C372 1.574 . S
C355 C374 1.368 . S
C355 H379 0.949 . S
H356 C360 0.949 . S
C357 C358 1.349 . S
C357 C359 1.327 . S
C357 H380 0.950 . S
C358 C357 1.349 . S
C358 C370 1.349 . S
C359 C357 1.327 . S
C359 C375 1.429 . S
C359 H381 0.950 . S
C360 H356 0.949 . S
C360 C368 1.591 . S
C360 C376 1.368 . S
H361 C369 0.950 . S
H362 C367 0.950 . S
H363 C368 0.954 . S
H364 C370 0.950 . S
H365 C371 0.950 . S
H366 C372 0.949 . S
C367 H362 0.950 . S
C367 C369 1.327 . S
C367 C373 1.429 . S
C368 C360 1.591 . S
C368 H363 0.954 . S
C368 C374 1.345 1_554 S
C369 C353 1.349 . S
C369 H361 0.950 . S
C369 C367 1.327 . S
C370 C358 1.349 . S
C370 H364 0.950 . S
C370 C371 1.327 . S
C371 H365 0.950 . S
C371 C370 1.327 . S
C371 C375 1.429 . S
C372 C355 1.574 . S
C372 H366 0.949 . S
C372 C376 1.368 1_556 S
C373 C354 1.429 . S
C373 C367 1.429 . S
C373 C374 1.523 . S
C374 C355 1.368 . S
C374 C368 1.345 1_556 S
C374 C373 1.523 . S
C375 C359 1.429 . S
C375 C371 1.429 . S
C375 C376 1.523 . S
C376 C360 1.368 . S
C376 C372 1.368 1_554 S
C376 C375 1.523 . S
H377 C352 0.950 . S
H378 C354 0.950 . S
H379 C355 0.949 . S
H380 C357 0.950 . S
H381 C359 0.950 . S
C382 C383 1.349 . S
C382 C384 1.327 . S
C382 H407 0.950 . S
C383 C382 1.349 . S
C383 C399 1.349 . S
C384 C382 1.327 . S
C384 C403 1.429 . S
C384 H408 0.950 . S
C385 C402 1.574 1_556 S
C385 C404 1.368 . S
C385 H409 0.949 . S
H386 C390 0.949 . S
C387 C388 1.349 . S
C387 C389 1.327 . S
C387 H410 0.950 . S
C388 C387 1.349 . S
C388 C400 1.349 . S
C389 C387 1.327 . S
C389 C405 1.429 . S
C389 H411 0.950 . S
C390 H386 0.949 . S
C390 C398 1.574 . S
C390 C406 1.368 . S
H391 C399 0.950 . S
H392 C397 0.950 . S
H393 C398 0.949 . S
H394 C400 0.950 . S
H395 C401 0.950 . S
H396 C402 0.953 . S
C397 H392 0.950 . S
C397 C399 1.327 . S
C397 C403 1.429 . S
C398 C390 1.574 . S
C398 H393 0.949 . S
C398 C404 1.368 1_554 S
C399 C383 1.349 . S
C399 H391 0.950 . S
C399 C397 1.327 . S
C400 C388 1.349 . S
C400 H394 0.950 . S
C400 C401 1.327 . S
C401 H395 0.950 . S
C401 C400 1.327 . S
C401 C405 1.429 . S
C402 C385 1.574 1_554 S
C402 H396 0.953 . S
C402 C406 1.368 . S
C403 C384 1.429 . S
C403 C397 1.429 . S
C403 C404 1.523 . S
C404 C385 1.368 . S
C404 C398 1.368 1_556 S
C404 C403 1.523 . S
C405 C389 1.429 . S
C405 C401 1.429 . S
C405 C406 1.523 . S
C406 C390 1.368 . S
C406 C402 1.368 . S
C406 C405 1.523 . S
H407 C382 0.950 . S
H408 C384 0.950 . S
H409 C385 0.949 . S
H410 C387 0.950 . S
H411 C389 0.950 . S
C412 C413 1.349 . S
C412 C414 1.327 . S
C412 H437 0.950 . S
C413 C412 1.349 . S
C413 C429 1.349 . S
C414 C412 1.327 . S
C414 C433 1.429 . S
C414 H438 0.950 . S
C415 C432 1.574 . S
C415 C434 1.368 1_556 S
C415 H439 0.949 . S
H416 C420 0.952 . S
C417 C418 1.349 . S
C417 C419 1.327 . S
C417 H440 0.950 . S
C418 C417 1.349 . S
C418 C430 1.349 . S
C419 C417 1.327 . S
C419 C435 1.429 . S
C419 H441 0.950 . S
C420 H416 0.952 . S
C420 C428 1.574 1_556 S
C420 C436 1.368 . S
H421 C429 0.950 . S
H422 C427 0.950 . S
H423 C428 0.949 . S
H424 C430 0.950 . S
H425 C431 0.950 . S
H426 C432 0.949 . S
C427 H422 0.950 . S
C427 C429 1.327 . S
C427 C433 1.429 . S
C428 C420 1.574 1_554 S
C428 H423 0.949 . S
C428 C434 1.368 . S
C429 C413 1.349 . S
C429 H421 0.950 . S
C429 C427 1.327 . S
C430 C418 1.349 . S
C430 H424 0.950 . S
C430 C431 1.327 . S
C431 H425 0.950 . S
C431 C430 1.327 . S
C431 C435 1.429 . S
C432 C415 1.574 . S
C432 H426 0.949 . S
C432 C436 1.368 . S
C433 C414 1.429 . S
C433 C427 1.429 . S
C433 C434 1.523 . S
C434 C415 1.368 1_554 S
C434 C428 1.368 . S
C434 C433 1.523 . S
C435 C419 1.429 . S
C435 C431 1.429 . S
C435 C436 1.523 . S
C436 C420 1.368 . S
C436 C432 1.368 . S
C436 C435 1.523 . S
H437 C412 0.950 . S
H438 C414 0.950 . S
H439 C415 0.949 . S
H440 C417 0.950 . S
H441 C419 0.950 . S
C442 C443 1.349 . S
C442 C444 1.327 . S
C442 H467 0.950 . S
C443 C442 1.349 . S
C443 C459 1.349 . S
C444 C442 1.327 . S
C444 C463 1.429 . S
C444 H468 0.950 . S
C445 C462 1.574 1_556 S
C445 C464 1.368 . S
C445 H469 0.949 . S
H446 C450 0.949 . S
C447 C448 1.349 . S
C447 C449 1.327 . S
C447 H470 0.950 . S
C448 C447 1.349 . S
C448 C460 1.349 . S
C449 C447 1.327 . S
C449 C465 1.429 . S
C449 H471 0.950 . S
C450 H446 0.949 . S
C450 C458 1.574 . S
C450 C466 1.368 . S
H451 C459 0.950 . S
H452 C457 0.950 . S
H453 C458 0.949 . S
H454 C460 0.950 . S
H455 C461 0.950 . S
H456 C462 0.949 . S
C457 H452 0.950 . S
C457 C459 1.327 . S
C457 C463 1.429 . S
C458 C450 1.574 . S
C458 H453 0.949 . S
C458 C464 1.368 1_554 S
C459 C443 1.349 . S
C459 H451 0.950 . S
C459 C457 1.327 . S
C460 C448 1.349 . S
C460 H454 0.950 . S
C460 C461 1.327 . S
C461 H455 0.950 . S
C461 C460 1.327 . S
C461 C465 1.429 . S
C462 C445 1.574 1_554 S
C462 H456 0.949 . S
C462 C466 1.368 . S
C463 C444 1.429 . S
C463 C457 1.429 . S
C463 C464 1.523 . S
C464 C445 1.368 . S
C464 C458 1.368 1_556 S
C464 C463 1.523 . S
C465 C449 1.429 . S
C465 C461 1.429 . S
C465 C466 1.523 . S
C466 C450 1.368 . S
C466 C462 1.368 . S
C466 C465 1.523 . S
H467 C442 0.950 . S
H468 C444 0.950 . S
H469 C445 0.949 . S
H470 C447 0.950 . S
H471 C449 0.950 . S
C472 C473 1.349 . S
C472 C474 1.327 . S
C472 H497 0.950 . S
C473 C472 1.349 . S
C473 C489 1.349 . S
C474 C472 1.327 . S
C474 C493 1.429 . S
C474 H498 0.950 . S
C475 C492 1.574 . S
C475 C494 1.368 . S
C475 H499 0.949 . S
H476 C480 0.949 . S
C477 C478 1.349 . S
C477 C479 1.327 . S
C477 H500 0.950 . S
C478 C477 1.349 . S
C478 C490 1.349 . S
C479 C477 1.327 . S
C479 C495 1.429 . S
C479 H501 0.950 . S
C480 H476 0.949 . S
C480 C488 1.574 . S
C480 C496 1.368 . S
H481 C489 0.950 . S
H482 C487 0.950 . S
H483 C488 0.949 . S
H484 C490 0.950 . S
H485 C491 0.950 . S
H486 C492 0.949 . S
C487 H482 0.950 . S
C487 C489 1.327 . S
C487 C493 1.429 . S
C488 C480 1.574 . S
C488 H483 0.949 . S
C488 C494 1.368 . S
C489 C473 1.349 . S
C489 H481 0.950 . S
C489 C487 1.327 . S
C490 C478 1.349 . S
C490 H484 0.950 . S
C490 C491 1.327 . S
C491 H485 0.950 . S
C491 C490 1.327 . S
C491 C495 1.429 . S
C492 C475 1.574 . S
C492 H486 0.949 . S
C492 C496 1.368 . S
C493 C474 1.429 . S
C493 C487 1.429 . S
C493 C494 1.523 . S
C494 C475 1.368 . S
C494 C488 1.368 . S
C494 C493 1.523 . S
C495 C479 1.429 . S
C495 C491 1.429 . S
C495 C496 1.523 . S
C496 C480 1.368 . S
C496 C492 1.368 . S
C496 C495 1.523 . S
H497 C472 0.950 . S
H498 C474 0.950 . S
H499 C475 0.949 . S
H500 C477 0.950 . S
H501 C479 0.950 . S
C502 C503 1.349 . S
C502 C504 1.327 . S
C502 H527 0.950 . S
C503 C502 1.349 . S
C503 C519 1.349 . S
C504 C502 1.327 . S
C504 C523 1.429 . S
C504 H528 0.950 . S
C505 C522 1.574 . S
C505 C524 1.368 . S
C505 H529 0.949 . S
H506 C510 0.949 . S
C507 C508 1.349 . S
C507 C509 1.327 . S
C507 H530 0.950 . S
C508 C507 1.349 . S
C508 C520 1.349 . S
C509 C507 1.327 . S
C509 C525 1.429 . S
C509 H531 0.950 . S
C510 H506 0.949 . S
C510 C518 1.574 . S
C510 C526 1.368 . S
H511 C519 0.950 . S
H512 C517 0.950 . S
H513 C518 0.949 . S
H514 C520 0.950 . S
H515 C521 0.950 . S
H516 C522 0.949 . S
C517 H512 0.950 . S
C517 C519 1.327 . S
C517 C523 1.429 . S
C518 C510 1.574 . S
C518 H513 0.949 . S
C518 C524 1.368 . S
C519 C503 1.349 . S
C519 H511 0.950 . S
C519 C517 1.327 . S
C520 C508 1.349 . S
C520 H514 0.950 . S
C520 C521 1.327 . S
C521 H515 0.950 . S
C521 C520 1.327 . S
C521 C525 1.429 . S
C522 C505 1.574 . S
C522 H516 0.949 . S
C522 C526 1.368 . S
C523 C504 1.429 . S
C523 C517 1.429 . S
C523 C524 1.523 . S
C524 C505 1.368 . S
C524 C518 1.368 . S
C524 C523 1.523 . S
C525 C509 1.429 . S
C525 C521 1.429 . S
C525 C526 1.523 . S
C526 C510 1.368 . S
C526 C522 1.368 . S
C526 C525 1.523 . S
H527 C502 0.950 . S
H528 C504 0.950 . S
H529 C505 0.949 . S
H530 C507 0.950 . S
H531 C509 0.950 . S
C532 C533 1.349 . S
C532 C534 1.327 . S
C532 H557 0.950 . S
C533 C532 1.349 . S
C533 C549 1.349 . S
C534 C532 1.327 . S
C534 C553 1.429 . S
C534 H558 0.950 . S
C535 C552 1.574 . S
C535 C554 1.368 . S
C535 H559 0.949 . S
H536 C540 0.949 . S
C537 C538 1.349 . S
C537 C539 1.327 . S
C537 H560 0.950 . S
C538 C537 1.349 . S
C538 C550 1.349 . S
C539 C537 1.327 . S
C539 C555 1.429 . S
C539 H561 0.950 . S
C540 H536 0.949 . S
C540 C548 1.574 . S
C540 C556 1.368 . S
H541 C549 0.950 . S
H542 C547 0.950 . S
H543 C548 0.949 . S
H544 C550 0.950 . S
H545 C551 0.950 . S
H546 C552 0.949 . S
C547 H542 0.950 . S
C547 C549 1.327 . S
C547 C553 1.429 . S
C548 C540 1.574 . S
C548 H543 0.949 . S
C548 C554 1.368 . S
C549 C533 1.349 . S
C549 H541 0.950 . S
C549 C547 1.327 . S
C550 C538 1.349 . S
C550 H544 0.950 . S
C550 C551 1.327 . S
C551 H545 0.950 . S
C551 C550 1.327 . S
C551 C555 1.429 . S
C552 C535 1.574 . S
C552 H546 0.949 . S
C552 C556 1.368 . S
C553 C534 1.429 . S
C553 C547 1.429 . S
C553 C554 1.523 . S
C554 C535 1.368 . S
C554 C548 1.368 . S
C554 C553 1.523 . S
C555 C539 1.429 . S
C555 C551 1.429 . S
C555 C556 1.523 . S
C556 C540 1.368 . S
C556 C552 1.368 . S
C556 C555 1.523 . S
H557 C532 0.950 . S
H558 C534 0.950 . S
H559 C535 0.949 . S
H560 C537 0.950 . S
H561 C539 0.950 . S
C562 C563 1.349 . S
C562 C564 1.327 . S
C562 H587 0.950 . S
C563 C562 1.349 . S
C563 C579 1.349 . S
C564 C562 1.327 . S
C564 C583 1.429 . S
C564 H588 0.950 . S
C565 C582 1.574 . S
C565 C584 1.368 . S
C565 H589 0.949 . S
H566 C570 0.949 . S
C567 C568 1.349 . S
C567 C569 1.327 . S
C567 H590 0.950 . S
C568 C567 1.349 . S
C568 C580 1.349 . S
C569 C567 1.327 . S
C569 C585 1.429 . S
C569 H591 0.950 . S
C570 H566 0.949 . S
C570 C578 1.574 . S
C570 C586 1.368 . S
H571 C579 0.950 . S
H572 C577 0.950 . S
H573 C578 0.949 . S
H574 C580 0.950 . S
H575 C581 0.950 . S
H576 C582 0.949 . S
C577 H572 0.950 . S
C577 C579 1.327 . S
C577 C583 1.429 . S
C578 C570 1.574 . S
C578 H573 0.949 . S
C578 C584 1.368 . S
C579 C563 1.349 . S
C579 H571 0.950 . S
C579 C577 1.327 . S
C580 C568 1.349 . S
C580 H574 0.950 . S
C580 C581 1.327 . S
C581 H575 0.950 . S
C581 C580 1.327 . S
C581 C585 1.429 . S
C582 C565 1.574 . S
C582 H576 0.949 . S
C582 C586 1.368 . S
C583 C564 1.429 . S
C583 C577 1.429 . S
C583 C584 1.523 . S
C584 C565 1.368 . S
C584 C578 1.368 . S
C584 C583 1.523 . S
C585 C569 1.429 . S
C585 C581 1.429 . S
C585 C586 1.523 . S
C586 C570 1.368 . S
C586 C582 1.368 . S
C586 C585 1.523 . S
H587 C562 0.950 . S
H588 C564 0.950 . S
H589 C565 0.949 . S
H590 C567 0.950 . S
H591 C569 0.950 . S
C113 C39 1.222 . S
C118 C11 1.222 . S
C143 C53 1.222 . S
C148 C25 1.222 . S
C173 C67 1.222 . S
C178 C95 1.222 . S
C203 C81 1.222 . S
C208 C109 1.222 . S
C233 C21 0.709 . S
C238 C8 0.712 . S
C263 C22 0.712 . S
C268 C35 0.709 . S
C293 C49 0.708 . S
C298 C36 0.712 . S
C323 C50 0.712 . S
C328 C7 0.708 . S
C353 C105 0.708 . S
C358 C64 0.712 . S
C383 C78 0.712 . S
C388 C63 0.708 . S
C413 C92 0.712 . S
C418 C77 0.709 . S
C443 C106 0.712 . S
C448 C91 0.709 . S
C473 C13 1.601 . S
C478 C83 1.601 . S
C503 C97 1.601 . S
C508 C27 1.601 . S
C533 C41 1.601 . S
C538 C111 1.601 . S
C563 C55 1.601 . S
C568 C69 1.601 . S
