# Generated by pormake.
# Topology wkj, (6)-cn, num edge types: 1
# Building blocks:
#     Node 0, Type 0, BuildingBlock: BETDAH_clean_sbu_0, # of connection points: 6
#     Node 1, Type 0, BuildingBlock: BETDAH_clean_sbu_0, # of connection points: 6
#     Node 2, Type 0, BuildingBlock: BETDAH_clean_sbu_0, # of connection points: 6
#     Node 3, Type 0, BuildingBlock: BETDAH_clean_sbu_0, # of connection points: 6
#     Node 4, Type 0, BuildingBlock: BETDAH_clean_sbu_0, # of connection points: 6
#     Node 5, Type 0, BuildingBlock: BETDAH_clean_sbu_0, # of connection points: 6
#     Node 6, Type 0, BuildingBlock: BETDAH_clean_sbu_0, # of connection points: 6
#     Node 7, Type 0, BuildingBlock: BETDAH_clean_sbu_0, # of connection points: 6
#     Node 8, Type 0, BuildingBlock: BETDAH_clean_sbu_0, # of connection points: 6
#     Node 9, Type 0, BuildingBlock: BETDAH_clean_sbu_0, # of connection points: 6
#     Node 10, Type 0, BuildingBlock: BETDAH_clean_sbu_0, # of connection points: 6
#     Node 11, Type 0, BuildingBlock: BETDAH_clean_sbu_0, # of connection points: 6
#     Edge 12, Type (0, 0), BuildingBlock: XUDNAN_clean_linker_2, # of connection points: 2
#     Edge 13, Type (0, 0), BuildingBlock: XUDNAN_clean_linker_2, # of connection points: 2
#     Edge 14, Type (0, 0), BuildingBlock: XUDNAN_clean_linker_2, # of connection points: 2
#     Edge 15, Type (0, 0), BuildingBlock: XUDNAN_clean_linker_2, # of connection points: 2
#     Edge 16, Type (0, 0), BuildingBlock: XUDNAN_clean_linker_2, # of connection points: 2
#     Edge 17, Type (0, 0), BuildingBlock: XUDNAN_clean_linker_2, # of connection points: 2
#     Edge 18, Type (0, 0), BuildingBlock: XUDNAN_clean_linker_2, # of connection points: 2
#     Edge 19, Type (0, 0), BuildingBlock: XUDNAN_clean_linker_2, # of connection points: 2
#     Edge 20, Type (0, 0), BuildingBlock: XUDNAN_clean_linker_2, # of connection points: 2
#     Edge 21, Type (0, 0), BuildingBlock: XUDNAN_clean_linker_2, # of connection points: 2
#     Edge 22, Type (0, 0), BuildingBlock: XUDNAN_clean_linker_2, # of connection points: 2
#     Edge 23, Type (0, 0), BuildingBlock: XUDNAN_clean_linker_2, # of connection points: 2
#     Edge 24, Type (0, 0), BuildingBlock: XUDNAN_clean_linker_2, # of connection points: 2
#     Edge 25, Type (0, 0), BuildingBlock: XUDNAN_clean_linker_2, # of connection points: 2
#     Edge 26, Type (0, 0), BuildingBlock: XUDNAN_clean_linker_2, # of connection points: 2
#     Edge 27, Type (0, 0), BuildingBlock: XUDNAN_clean_linker_2, # of connection points: 2
#     Edge 28, Type (0, 0), BuildingBlock: XUDNAN_clean_linker_2, # of connection points: 2
#     Edge 29, Type (0, 0), BuildingBlock: XUDNAN_clean_linker_2, # of connection points: 2
#     Edge 30, Type (0, 0), BuildingBlock: XUDNAN_clean_linker_2, # of connection points: 2
#     Edge 31, Type (0, 0), BuildingBlock: XUDNAN_clean_linker_2, # of connection points: 2
#     Edge 32, Type (0, 0), BuildingBlock: XUDNAN_clean_linker_2, # of connection points: 2
#     Edge 33, Type (0, 0), BuildingBlock: XUDNAN_clean_linker_2, # of connection points: 2
#     Edge 34, Type (0, 0), BuildingBlock: XUDNAN_clean_linker_2, # of connection points: 2
#     Edge 35, Type (0, 0), BuildingBlock: XUDNAN_clean_linker_2, # of connection points: 2
#     Edge 36, Type (0, 0), BuildingBlock: XUDNAN_clean_linker_2, # of connection points: 2
#     Edge 37, Type (0, 0), BuildingBlock: XUDNAN_clean_linker_2, # of connection points: 2
#     Edge 38, Type (0, 0), BuildingBlock: XUDNAN_clean_linker_2, # of connection points: 2
#     Edge 39, Type (0, 0), BuildingBlock: XUDNAN_clean_linker_2, # of connection points: 2
#     Edge 40, Type (0, 0), BuildingBlock: XUDNAN_clean_linker_2, # of connection points: 2
#     Edge 41, Type (0, 0), BuildingBlock: XUDNAN_clean_linker_2, # of connection points: 2
#     Edge 42, Type (0, 0), BuildingBlock: XUDNAN_clean_linker_2, # of connection points: 2
#     Edge 43, Type (0, 0), BuildingBlock: XUDNAN_clean_linker_2, # of connection points: 2
#     Edge 44, Type (0, 0), BuildingBlock: XUDNAN_clean_linker_2, # of connection points: 2
#     Edge 45, Type (0, 0), BuildingBlock: XUDNAN_clean_linker_2, # of connection points: 2
#     Edge 46, Type (0, 0), BuildingBlock: XUDNAN_clean_linker_2, # of connection points: 2
#     Edge 47, Type (0, 0), BuildingBlock: XUDNAN_clean_linker_2, # of connection points: 2
# Relax obj value: 0.754
# Max RMSD: 0.172
# Mean RMSD: 0.172
data_MOF--net-wkj--node1-BETDAH_clean_sbu_0--edge1-XUDNAN_clean_linker_2
_symmetry_space_group_name_H-M    P1
_symmetry_Int_Tables_number       1
_symmetry_cell_setting            triclinic
loop_
_symmetry_equiv_pos_as_xyz
'x, y, z'
_cell_length_a     48.693161
_cell_length_b     48.595329
_cell_length_c     30.256414
_cell_angle_alpha  90.07246
_cell_angle_beta   90.007501
_cell_angle_gamma 120.03438
loop_
_atom_site_label
_atom_site_type_symbol
_atom_site_fract_x
_atom_site_fract_y
_atom_site_fract_z
_atom_type_partial_charge
Ho0 Ho 0.47462 0.10047 0.36483 0.0
Ho1 Ho 0.53111 0.10496 0.34253 0.0
C2 C 0.5207 0.10916 0.45298 0.0
C3 C 0.4157 0.08515 0.37495 0.0
C4 C 0.3922 0.07109 0.41 0.0
C5 C 0.36094 0.06412 0.40262 0.0
C6 C 0.33873 0.05188 0.43683 0.0
C7 C 0.3479 0.04697 0.47868 0.0
C8 C 0.37909 0.05329 0.48548 0.0
C9 C 0.40108 0.06519 0.45132 0.0
C10 C 0.51475 0.16165 0.33948 0.0
C11 C 0.48161 0.07091 0.26256 0.0
C12 C 0.5916 0.13106 0.33009 0.0
C13 C 0.61116 0.15338 0.29492 0.0
C14 C 0.6246 0.18627 0.3024 0.0
C15 C 0.62802 0.2064 0.26737 0.0
C16 C 0.61884 0.19377 0.22479 0.0
C17 C 0.61266 0.16273 0.21626 0.0
C18 C 0.60861 0.14246 0.2513 0.0
C19 C 0.48636 0.04688 0.3726 0.0
O20 O 0.49131 0.10216 0.44004 0.0
O21 O 0.5402 0.11196 0.41966 0.0
O22 O 0.43961 0.11326 0.38348 0.0
O23 O 0.42463 0.06651 0.35723 0.0
O24 O 0.49837 0.15281 0.37536 0.0
O25 O 0.51181 0.13682 0.31987 0.0
O26 O 0.51221 0.08447 0.27287 0.0
O27 O 0.46312 0.07391 0.29362 0.0
O28 O 0.57145 0.1018 0.31821 0.0
O29 O 0.57858 0.14247 0.35664 0.0
O30 O 0.50373 0.05059 0.33814 0.0
O31 O 0.49491 0.0734 0.38818 0.0
H32 H 0.35386 0.06846 0.37062 0.0
H33 H 0.31472 0.04688 0.43096 0.0
H34 H 0.38643 0.04896 0.51729 0.0
H35 H 0.42507 0.07012 0.45723 0.0
H36 H 0.62788 0.19557 0.33575 0.0
H37 H 0.63337 0.23042 0.27462 0.0
H38 H 0.60634 0.15283 0.18324 0.0
H39 H 0.59941 0.11749 0.2443 0.0
Ho40 Ho 0.37386 0.47417 0.71518 0.0
Ho41 Ho 0.41904 0.53801 0.69625 0.0
C42 C 0.40585 0.52505 0.80353 0.0
C43 C 0.33524 0.41699 0.74298 0.0
C44 C 0.33256 0.39116 0.77139 0.0
C45 C 0.31386 0.38332 0.80958 0.0
C46 C 0.30849 0.35727 0.83514 0.0
C47 C 0.32138 0.33817 0.8228 0.0
C48 C 0.34019 0.34604 0.78452 0.0
C49 C 0.34569 0.37228 0.75898 0.0
C50 C 0.34489 0.50468 0.67621 0.0
C51 C 0.4115 0.48304 0.61913 0.0
C52 C 0.44497 0.59483 0.66322 0.0
C53 C 0.43392 0.61756 0.65599 0.0
C54 C 0.40897 0.61615 0.68103 0.0
C55 C 0.39308 0.6318 0.66644 0.0
C56 C 0.40177 0.64874 0.62634 0.0
C57 C 0.42922 0.65292 0.60443 0.0
C58 C 0.44502 0.6374 0.6191 0.0
C59 C 0.44547 0.50804 0.73665 0.0
O60 O 0.38882 0.4948 0.78857 0.0
O61 O 0.41765 0.54764 0.77234 0.0
O62 O 0.3388 0.44256 0.76237 0.0
O63 O 0.35208 0.42334 0.70707 0.0
O64 O 0.34039 0.47696 0.66629 0.0
O65 O 0.36641 0.51628 0.70585 0.0
O66 O 0.4225 0.51394 0.62908 0.0
O67 O 0.39321 0.46219 0.65023 0.0
O68 O 0.43042 0.56895 0.63963 0.0
O69 O 0.44875 0.58901 0.70404 0.0
O70 O 0.45769 0.53859 0.73717 0.0
O71 O 0.42441 0.49663 0.70751 0.0
H72 H 0.30314 0.39724 0.81958 0.0
H73 H 0.29464 0.3525 0.86507 0.0
H74 H 0.35047 0.33181 0.77416 0.0
H75 H 0.3599 0.37749 0.72932 0.0
H76 H 0.40032 0.60115 0.71004 0.0
H77 H 0.37245 0.62846 0.68456 0.0
H78 H 0.43676 0.66539 0.57325 0.0
H79 H 0.4643 0.63881 0.59947 0.0
Ho80 Ho 0.88779 0.38007 1.03512 0.0
Ho81 Ho 0.86475 0.42268 1.01509 0.0
C82 C 0.86732 0.409 1.12352 0.0
C83 C 0.90816 0.34203 1.05743 0.0
C84 C 0.92343 0.33414 1.09262 0.0
C85 C 0.92526 0.34547 0.13569 0.0
C86 C 0.93822 0.33583 0.16919 0.0
C87 C 0.94946 0.31478 0.15991 0.0
C88 C 0.94803 0.30398 1.11652 0.0
C89 C 0.93497 0.31356 1.08309 0.0
C90 C 0.82965 0.34995 0.99148 0.0
C91 C 0.91314 0.41735 0.93853 0.0
C92 C 0.82855 0.4441 0.98753 0.0
C93 C 0.80073 0.43186 0.95862 0.0
C94 C 0.77769 0.44061 0.96627 0.0
C95 C 0.7491 0.42598 0.94273 0.0
C96 C 0.74307 0.40209 0.91169 0.0
C97 C 0.76657 0.39384 0.90374 0.0
C98 C 0.79509 0.40856 0.92702 0.0
C99 C 0.91945 0.45335 1.05914 0.0
O100 O 0.88059 0.39201 1.1093 0.0
O101 O 0.85688 0.42109 1.09205 0.0
O102 O 0.87956 0.33657 1.06561 0.0
O103 O 0.92554 0.36877 1.03666 0.0
O104 O 0.85392 0.34696 0.98259 0.0
O105 O 0.83795 0.37018 1.02249 0.0
O106 O 0.89016 0.42454 0.94691 0.0
O107 O 0.91849 0.40155 0.97056 0.0
O108 O 0.85574 0.45158 0.96918 0.0
O109 O 0.82358 0.42773 1.02363 0.0
O110 O 0.89915 0.46312 1.05693 0.0
O111 O 0.91231 0.43167 1.03086 0.0
H112 H 0.91645 0.36145 0.14339 0.0
H113 H 0.93974 0.34507 0.20226 0.0
H114 H 0.95659 0.28783 1.10862 0.0
H115 H 0.93352 0.3046 1.04984 0.0
H116 H 0.78157 0.45829 0.99109 0.0
H117 H 0.73157 0.43298 0.94917 0.0
H118 H 0.76307 0.37616 0.87913 0.0
H119 H 0.81241 0.40117 0.92111 0.0
Ho120 Ho 0.49681 0.91021 0.37154 0.0
Ho121 Ho 0.4462 0.86266 0.34615 0.0
C122 C 0.45095 0.87516 0.45654 0.0
C123 C 0.55072 0.95357 0.40298 0.0
C124 C 0.57514 0.95176 0.42917 0.0
C125 C 0.56653 0.92892 0.46258 0.0
C126 C 0.58962 0.92907 0.48992 0.0
C127 C 0.62187 0.95182 0.48403 0.0
C128 C 0.63054 0.97287 0.448 0.0
C129 C 0.6073 0.97298 0.42099 0.0
C130 C 0.50352 0.8581 0.34507 0.0
C131 C 0.48817 0.92424 0.27278 0.0
C132 C 0.4052 0.80828 0.31182 0.0
C133 C 0.40129 0.78541 0.27727 0.0
C134 C 0.38054 0.75295 0.28497 0.0
C135 C 0.37611 0.7304 0.25287 0.0
C136 C 0.3927 0.74002 0.21276 0.0
C137 C 0.41389 0.77262 0.20548 0.0
C138 C 0.41809 0.79515 0.23745 0.0
C139 C 0.42579 0.89902 0.37922 0.0
O140 O 0.47792 0.90025 0.44401 0.0
O141 O 0.43433 0.85495 0.42355 0.0
O142 O 0.54713 0.94283 0.36278 0.0
O143 O 0.52365 0.94431 0.42264 0.0
O144 O 0.51528 0.88504 0.32502 0.0
O145 O 0.48548 0.85922 0.37344 0.0
O146 O 0.46947 0.89215 0.27707 0.0
O147 O 0.49791 0.93874 0.31117 0.0
O148 O 0.40801 0.83536 0.29977 0.0
O149 O 0.42465 0.81158 0.34353 0.0
O150 O 0.41156 0.86866 0.38335 0.0
O151 O 0.45121 0.91019 0.35595 0.0
H152 H 0.54182 0.91175 0.46882 0.0
H153 H 0.5818 0.91272 0.51751 0.0
H154 H 0.65517 0.99033 0.44204 0.0
H155 H 0.61438 0.99027 0.3946 0.0
H156 H 0.36753 0.74505 0.31577 0.0
H157 H 0.35965 0.7055 0.25926 0.0
H158 H 0.42656 0.78081 0.17449 0.0
H159 H 0.43424 0.82011 0.23098 0.0
Ho160 Ho 0.62574 0.53442 0.71518 0.0
Ho161 Ho 0.58354 0.47278 0.69703 0.0
C162 C 0.5964 0.48593 0.80615 0.0
C163 C 0.66723 0.59155 0.73843 0.0
C164 C 0.67936 0.61606 0.7726 0.0
C165 C 0.65895 0.62004 0.80102 0.0
C166 C 0.67135 0.64498 0.83135 0.0
C167 C 0.70429 0.66621 0.83366 0.0
C168 C 0.72464 0.66186 0.80549 0.0
C169 C 0.71219 0.63699 0.77498 0.0
C170 C 0.65392 0.50628 0.66726 0.0
C171 C 0.5894 0.52579 0.6199 0.0
C172 C 0.56218 0.41303 0.68107 0.0
C173 C 0.57847 0.3974 0.66134 0.0
C174 C 0.59877 0.41148 0.62526 0.0
C175 C 0.6163 0.39843 0.60854 0.0
C176 C 0.61418 0.37099 0.62752 0.0
C177 C 0.59387 0.35682 0.66376 0.0
C178 C 0.57627 0.3701 0.68076 0.0
C179 C 0.54934 0.49635 0.73101 0.0
O180 O 0.61667 0.51537 0.79019 0.0
O181 O 0.57961 0.46417 0.77495 0.0
O182 O 0.67114 0.56713 0.74453 0.0
O183 O 0.63992 0.58401 0.72035 0.0
O184 O 0.65531 0.53271 0.65758 0.0
O185 O 0.63565 0.49505 0.69999 0.0
O186 O 0.58284 0.49562 0.62678 0.0
O187 O 0.60318 0.54524 0.65416 0.0
O188 O 0.5571 0.43146 0.65516 0.0
O189 O 0.57324 0.42619 0.71924 0.0
O190 O 0.54164 0.47931 0.69539 0.0
O191 O 0.57759 0.50525 0.74108 0.0
H192 H 0.63354 0.60401 0.7997 0.0
H193 H 0.65519 0.64729 0.85362 0.0
H194 H 0.75007 0.67774 0.80696 0.0
H195 H 0.72819 0.6342 0.75295 0.0
H196 H 0.60146 0.43289 0.61012 0.0
H197 H 0.63094 0.40951 0.57977 0.0
H198 H 0.59147 0.33545 0.67861 0.0
H199 H 0.56106 0.35918 0.7091 0.0
Ho200 Ho 0.08171 0.599 1.04562 0.0
Ho201 Ho 0.11157 0.56497 1.0182 0.0
C202 C 0.11003 0.57454 0.12826 0.0
C203 C 0.05428 0.62878 1.07718 0.0
C204 C 0.02418 0.62374 1.09534 0.0
C205 C -0.00506 0.60486 1.07396 0.0
C206 C 0.96689 0.60075 1.0929 0.0
C207 C 0.96781 0.6156 0.13324 0.0
C208 C -0.00269 0.63479 0.15392 0.0
C209 C 0.02513 0.63893 0.13502 0.0
C210 C 0.14111 0.63794 1.008 0.0
C211 C 0.05556 0.56279 0.94872 0.0
C212 C 0.15291 0.55421 0.97986 0.0
C213 C 0.18687 0.57367 0.96982 0.0
C214 C 0.20698 0.60042 0.99544 0.0
C215 C 0.23703 0.62282 0.9796 0.0
C216 C 0.24718 0.61886 0.93771 0.0
C217 C 0.22798 0.59022 0.91458 0.0
C218 C 0.19816 0.56796 0.9305 0.0
C219 C 0.05948 0.52504 1.06094 0.0
O220 O 0.0921 0.58717 1.11709 0.0
O221 O 0.12333 0.56714 1.09456 0.0
O222 O 0.07024 0.6194 1.10139 0.0
O223 O 0.05501 0.62297 1.0353 0.0
O224 O 0.11562 0.63858 0.99916 0.0
O225 O 0.13362 0.61589 1.0357 0.0
O226 O 0.08112 0.55914 0.95302 0.0
O227 O 0.04838 0.57423 0.98454 0.0
O228 O 0.13471 0.56232 0.95868 0.0
O229 O 0.14512 0.54807 1.02134 0.0
O230 O 0.08179 0.51896 1.05128 0.0
O231 O 0.06202 0.54773 1.03703 0.0
H232 H -0.00631 0.59292 1.04314 0.0
H233 H 0.94451 0.58566 1.07642 0.0
H234 H -0.00108 0.64579 0.1857 0.0
H235 H 0.04746 0.65364 0.15192 0.0
H236 H 0.19872 0.60491 1.02635 0.0
H237 H 0.25132 0.64423 0.99866 0.0
H238 H 0.23436 0.58611 0.882 0.0
H239 H 0.18297 0.54741 0.91035 0.0
Ho240 Ho 0.90628 0.50997 0.55092 0.0
Ho241 Ho 0.86795 0.4436 0.57467 0.0
C242 C 0.87463 0.46012 0.46493 0.0
C243 C 0.93673 0.56624 0.51712 0.0
C244 C 0.9246 0.57922 0.4837 0.0
C245 C 0.94535 0.60164 0.45331 0.0
C246 C 0.93337 0.60799 0.41514 0.0
C247 C 0.90046 0.59174 0.40675 0.0
C248 C 0.87969 0.57107 0.43897 0.0
C249 C 0.89167 0.56482 0.47714 0.0
C250 C 0.84725 0.49415 0.58484 0.0
C251 C 0.92235 0.49505 0.65033 0.0
C252 C 0.82122 0.39052 0.60424 0.0
C253 C 0.78941 0.37714 0.62437 0.0
C254 C 0.76302 0.37329 0.60002 0.0
C255 C 0.7334 0.3615 0.62036 0.0
C256 C 0.72949 0.35252 0.66498 0.0
C257 C 0.75555 0.35486 0.68848 0.0
C258 C 0.7851 0.36698 0.66839 0.0
C259 C 0.91967 0.45028 0.53748 0.0
O260 O 0.89093 0.49015 0.4793 0.0
O261 O 0.86192 0.43727 0.49614 0.0
O262 O 0.92291 0.56044 0.55557 0.0
O263 O 0.9398 0.54261 0.50315 0.0
O264 O 0.87356 0.51953 0.59408 0.0
O265 O 0.85336 0.47827 0.55747 0.0
O266 O 0.89441 0.46788 0.64285 0.0
O267 O 0.93461 0.5146 0.61574 0.0
O268 O 0.84569 0.40985 0.62828 0.0
O269 O 0.82413 0.39983 0.56331 0.0
O270 O 0.89547 0.42307 0.54727 0.0
O271 O 0.9186 0.47219 0.55958 0.0
H272 H 0.97078 0.61253 0.45754 0.0
H273 H 0.95003 0.62362 0.39056 0.0
H274 H 0.85431 0.55825 0.43334 0.0
H275 H 0.87525 0.54706 0.50003 0.0
H276 H 0.76547 0.38022 0.56563 0.0
H277 H 0.71379 0.36009 0.60165 0.0
H278 H 0.75357 0.34882 0.72323 0.0
H279 H 0.80481 0.36905 0.68766 0.0
Ho280 Ho 0.36764 0.89913 0.88356 0.0
Ho281 Ho 0.4071 0.87498 0.89888 0.0
C282 C 0.39195 0.87634 0.79162 0.0
C283 C 0.32866 0.91799 0.86022 0.0
C284 C 0.31976 0.93108 0.82308 0.0
C285 C 0.34247 0.95211 0.79313 0.0
C286 C 0.3333 0.96474 0.75865 0.0
C287 C 0.3013 0.95634 0.75352 0.0
C288 C 0.27858 0.93493 0.78323 0.0
C289 C 0.28783 0.92251 0.81797 0.0
C290 C 0.33798 0.8421 0.92998 0.0
C291 C 0.40723 0.92573 0.97588 0.0
C292 C 0.42813 0.83627 0.91364 0.0
C293 C 0.41472 0.80165 0.9112 0.0
C294 C 0.43479 0.78906 0.90534 0.0
C295 C 0.4239 0.75708 0.91492 0.0
C296 C 0.39331 0.73777 0.93273 0.0
C297 C 0.37196 0.74944 0.93157 0.0
C298 C 0.38259 0.78106 0.92055 0.0
C299 C 0.44346 0.93328 0.8682 0.0
O300 O 0.37523 0.88933 0.8083 0.0
O301 O 0.40626 0.86743 0.8216 0.0
O302 O 0.32258 0.88875 0.85574 0.0
O303 O 0.35614 0.93652 0.87887 0.0
O304 O 0.33842 0.86787 0.94135 0.0
O305 O 0.3549 0.84842 0.89585 0.0
O306 O 0.411 0.90045 0.96798 0.0
O307 O 0.39389 0.93315 0.94307 0.0
O308 O 0.41604 0.84613 0.94408 0.0
O309 O 0.4324 0.85126 0.87642 0.0
O310 O 0.45026 0.92263 0.90334 0.0
O311 O 0.41507 0.91495 0.85733 0.0
H312 H 0.36719 0.95872 0.79636 0.0
H313 H 0.35116 0.98068 0.73549 0.0
H314 H 0.25381 0.92804 0.77975 0.0
H315 H 0.27005 0.90621 0.84094 0.0
H316 H 0.45946 0.80442 0.89658 0.0
H317 H 0.44058 0.74855 0.91278 0.0
H318 H 0.34797 0.73564 0.94393 0.0
H319 H 0.3664 0.79013 0.92327 0.0
Ho320 Ho 0.47902 0.39058 0.21827 0.0
Ho321 Ho 0.54125 0.42304 0.25641 0.0
C322 C 0.53363 0.41931 0.14156 0.0
C323 C 0.42002 0.35961 0.19571 0.0
C324 C 0.40389 0.33805 0.15837 0.0
C325 C 0.41642 0.34653 1.11562 0.0
C326 C 0.40076 0.32686 1.07994 0.0
C327 C 0.37246 0.29773 1.08603 0.0
C328 C 0.36062 0.28863 0.12924 0.0
C329 C 0.37619 0.30873 0.16512 0.0
C330 C 0.5052 0.35245 0.23393 0.0
C331 C 0.48501 0.41912 0.32405 0.0
C332 C 0.59325 0.42855 0.28697 0.0
C333 C 0.60431 0.41163 0.31601 0.0
C334 C 0.60023 0.38173 0.30416 0.0
C335 C 0.61273 0.36702 0.33052 0.0
C336 C 0.62949 0.38179 0.36938 0.0
C337 C 0.63343 0.41167 0.38106 0.0
C338 C 0.62121 0.42648 0.35451 0.0
C339 C 0.53222 0.46505 0.21262 0.0
O340 O 0.5026 0.40601 0.14903 0.0
O341 O 0.55221 0.4248 0.17791 0.0
O342 O 0.43209 0.34924 0.22542 0.0
O343 O 0.43915 0.38936 0.18539 0.0
O344 O 0.49346 0.35457 0.19663 0.0
O345 O 0.50454 0.37243 0.26007 0.0
O346 O 0.51576 0.42713 0.32103 0.0
O347 O 0.46728 0.40612 0.28739 0.0
O348 O 0.57921 0.44283 0.3052 0.0
O349 O 0.57992 0.41418 0.2499 0.0
O350 O 0.55987 0.47007 0.22465 0.0
O351 O 0.5107 0.44102 0.23287 0.0
H352 H 0.43801 0.36882 1.1094 0.0
H353 H 0.41033 0.33543 1.04731 0.0
H354 H 0.33903 0.26634 0.13524 0.0
H355 H 0.36642 0.30157 0.19803 0.0
H356 H 0.58753 0.36966 0.27439 0.0
H357 H 0.60916 0.34406 0.32048 0.0
H358 H 0.64523 0.42341 0.41146 0.0
H359 H 0.62492 0.44957 0.3642 0.0
Ho360 Ho 0.0887 0.47666 0.55904 0.0
Ho361 Ho 0.10675 0.54177 0.57475 0.0
C362 C 0.10972 0.52447 0.46828 0.0
C363 C 0.07295 0.41895 0.53797 0.0
C364 C 0.06344 0.39712 0.50043 0.0
C365 C 0.07681 0.40764 0.45847 0.0
C366 C 0.06827 0.38602 0.42373 0.0
C367 C 0.04605 0.35373 0.43042 0.0
C368 C 0.03276 0.34329 0.47246 0.0
C369 C 0.04159 0.36487 0.50734 0.0
C370 C 0.14476 0.50842 0.60642 0.0
C371 C 0.0579 0.48754 0.65131 0.0
C372 C 0.13892 0.60025 0.60177 0.0
C373 C 0.16435 0.618 0.63387 0.0
C374 C 0.18323 0.65112 0.63011 0.0
C375 C 0.2098 0.66796 0.65732 0.0
C376 C 0.21807 0.65175 0.68817 0.0
C377 C 0.19877 0.61853 0.69206 0.0
C378 C 0.17212 0.60183 0.66521 0.0
C379 C 0.05449 0.51395 0.52543 0.0
O380 O 0.09902 0.49512 0.48499 0.0
O381 O 0.11662 0.54788 0.49761 0.0
O382 O 0.102 0.44275 0.53753 0.0
O383 O 0.05258 0.427 0.55189 0.0
O384 O 0.1208 0.48101 0.61589 0.0
O385 O 0.13673 0.5189 0.57327 0.0
O386 O 0.07774 0.51851 0.64146 0.0
O387 O 0.05646 0.4664 0.62158 0.0
O388 O 0.11097 0.57973 0.61733 0.0
O389 O 0.14725 0.58882 0.56873 0.0
O390 O 0.07322 0.54445 0.52743 0.0
O391 O 0.06116 0.50068 0.55629 0.0
H392 H 0.09367 0.4325 0.45248 0.0
H393 H 0.07817 0.39473 0.39125 0.0
H394 H 0.01531 0.31856 0.47812 0.0
H395 H 0.03124 0.35643 0.53969 0.0
H396 H 0.17772 0.66389 0.60561 0.0
H397 H 0.22411 0.69352 0.65386 0.0
H398 H 0.20406 0.60544 0.71629 0.0
H399 H 0.15792 0.57622 0.66829 0.0
Ho400 Ho 0.60206 0.08921 0.88431 0.0
Ho401 Ho 0.553 0.10446 0.89333 0.0
C402 C 0.57516 0.1073 0.78996 0.0
C403 C 0.64353 0.07247 0.86486 0.0
C404 C 0.64904 0.05491 0.82998 0.0
C405 C 0.63875 0.05465 0.78668 0.0
C406 C 0.64602 0.03963 0.75328 0.0
C407 C 0.66358 0.02455 0.7627 0.0
C408 C 0.67266 0.0236 0.80639 0.0
C409 C 0.66555 0.03889 0.83986 0.0
C410 C 0.62556 0.14737 0.92609 0.0
C411 C 0.5596 0.06092 0.97654 0.0
C412 C 0.51816 0.12998 0.90933 0.0
C413 C 0.52038 0.15712 0.93336 0.0
C414 C 0.5501 0.18276 0.9445 0.0
C415 C 0.55232 0.20778 0.96956 0.0
C416 C 0.52472 0.20716 0.98495 0.0
C417 C 0.49498 0.18289 0.97002 0.0
C418 C 0.49285 0.15791 0.94443 0.0
C419 C 0.53378 0.04949 0.84912 0.0
O420 O 0.59328 0.09652 0.80848 0.0
O421 O 0.55851 0.11461 0.81763 0.0
O422 O 0.64619 0.09959 0.85348 0.0
O423 O 0.61912 0.05584 0.8902 0.0
O424 O 0.62971 0.12425 0.93807 0.0
O425 O 0.60621 0.13746 0.89353 0.0
O426 O 0.54932 0.08096 0.96397 0.0
O427 O 0.57935 0.0582 0.94831 0.0
O428 O 0.51662 0.10662 0.93264 0.0
O429 O 0.53781 0.13764 0.87641 0.0
O430 O 0.52114 0.06711 0.84407 0.0
O431 O 0.55139 0.05929 0.88238 0.0
H432 H 0.62554 0.06646 0.77854 0.0
H433 H 0.63807 0.03996 0.71993 0.0
H434 H 0.68597 0.01186 0.81433 0.0
H435 H 0.6734 0.03869 0.87332 0.0
H436 H 0.57154 0.18264 0.93562 0.0
H437 H 0.57563 0.22569 0.9809 0.0
H438 H 0.47337 0.18168 0.98168 0.0
H439 H 0.4697 0.13851 0.9351 0.0
Ho440 Ho 0.52514 0.62401 0.22256 0.0
Ho441 Ho 0.46162 0.58105 0.24913 0.0
C442 C 0.4708 0.59197 0.13916 0.0
C443 C 0.5825 0.66268 0.19724 0.0
C444 C 0.60653 0.67453 0.16277 0.0
C445 C 0.63794 0.69594 0.17489 0.0
C446 C 0.66145 0.70976 0.14276 0.0
C447 C 0.65369 0.70241 1.09807 0.0
C448 C 0.62214 0.68044 1.08611 0.0
C449 C 0.59863 0.66656 1.11835 0.0
C450 C 0.4978 0.65411 0.26762 0.0
C451 C 0.51943 0.59089 0.32194 0.0
C452 C 0.40598 0.5608 0.28346 0.0
C453 C 0.3926 0.57448 0.31398 0.0
C454 C 0.41239 0.59924 0.34256 0.0
C455 C 0.3998 0.6135 0.36952 0.0
C456 C 0.3672 0.60363 0.36794 0.0
C457 C 0.34759 0.57915 0.33853 0.0
C458 C 0.36023 0.56472 0.31177 0.0
C459 C 0.48419 0.55042 0.20202 0.0
O460 O 0.50182 0.60987 0.15014 0.0
O461 O 0.45034 0.57998 0.17318 0.0
O462 O 0.55916 0.6684 0.19273 0.0
O463 O 0.57363 0.63464 0.21367 0.0
O464 O 0.52485 0.65664 0.2765 0.0
O465 O 0.48547 0.63329 0.23746 0.0
O466 O 0.48807 0.57903 0.31489 0.0
O467 O 0.53867 0.60867 0.28915 0.0
O468 O 0.42674 0.55391 0.29953 0.0
O469 O 0.41486 0.57544 0.24571 0.0
O470 O 0.45418 0.54008 0.2076 0.0
O471 O 0.49999 0.57261 0.22922 0.0
H472 H 0.64421 0.70233 0.20926 0.0
H473 H 0.68556 0.72646 0.15275 0.0
H474 H 0.61572 0.67376 1.05187 0.0
H475 H 0.5744 0.64994 1.1087 0.0
H476 H 0.43758 0.60751 0.34409 0.0
H477 H 0.41559 0.6317 0.39245 0.0
H478 H 0.32249 0.5711 0.33627 0.0
H479 H 0.34477 0.54607 0.28909 0.0
H480 H 0.49816 0.20517 0.37029 0.0
H481 H 0.54424 0.18855 0.25957 0.0
H482 H 0.55005 0.23728 0.22316 0.0
H483 H 0.45279 0.23077 0.30889 0.0
H484 H 0.45709 0.26062 0.34813 0.0
H485 H 0.45885 0.22632 0.36663 0.0
H486 H 0.51414 0.26288 0.40173 0.0
H487 H 0.51189 0.2971 0.38389 0.0
H488 H 0.54521 0.29287 0.36803 0.0
H489 H 0.54364 0.28416 0.19388 0.0
H490 H 0.53306 0.32828 0.18014 0.0
H491 H 0.49376 0.31661 0.31166 0.0
C492 C 0.50963 0.21164 0.33832 0.0
C493 C 0.52054 0.19235 0.31763 0.0
C494 C 0.53543 0.20235 0.27594 0.0
C495 C 0.53868 0.23 0.25501 0.0
C496 C 0.52654 0.24757 0.27554 0.0
C497 C 0.51276 0.23898 0.31677 0.0
C498 C 0.50151 0.26178 0.33199 0.0
C499 C 0.46542 0.2438 0.33934 0.0
C500 C 0.51923 0.2797 0.37394 0.0
C501 C 0.51062 0.28439 0.29268 0.0
C502 C 0.52481 0.27559 0.26024 0.0
C503 C 0.53317 0.29145 0.21962 0.0
C504 C 0.52701 0.31662 0.21202 0.0
C505 C 0.51313 0.3267 0.2449 0.0
C506 C 0.50514 0.31028 0.28605 0.0
H507 H 0.28395 0.46568 0.64467 0.0
H508 H 0.34541 0.5617 0.69135 0.0
H509 H 0.30241 0.57411 0.67721 0.0
H510 H 0.24316 0.48202 0.55856 0.0
H511 H 0.20514 0.44759 0.57007 0.0
H512 H 0.24105 0.44704 0.58243 0.0
H513 H 0.22314 0.4325 0.6637 0.0
H514 H 0.1871 0.43285 0.65154 0.0
H515 H 0.21275 0.4574 0.69541 0.0
H516 H 0.25171 0.57673 0.64959 0.0
H517 H 0.19815 0.56628 0.62722 0.0
H518 H 0.16827 0.46696 0.60791 0.0
C519 C 0.28871 0.48954 0.65154 0.0
C520 C 0.31889 0.51294 0.66838 0.0
C521 C 0.32316 0.54347 0.67774 0.0
C522 C 0.2987 0.55074 0.66951 0.0
C523 C 0.26953 0.52725 0.65212 0.0
C524 C 0.26435 0.49697 0.64432 0.0
C525 C 0.23034 0.47509 0.62876 0.0
C526 C 0.22991 0.46217 0.58219 0.0
C527 C 0.21226 0.44785 0.66182 0.0
C528 C 0.21707 0.49765 0.62825 0.0
C529 C 0.24013 0.52787 0.641 0.0
C530 C 0.23356 0.55291 0.64049 0.0
C531 C 0.2029 0.5468 0.62763 0.0
C532 C 0.17839 0.51571 0.61649 0.0
C533 C 0.18605 0.49098 0.6168 0.0
H534 H 0.80629 0.2851 0.98098 0.0
H535 H 0.77542 0.35451 0.98069 0.0
H536 H 0.72096 0.3121 0.9603 0.0
H537 H 0.75689 0.23427 0.89298 0.0
H538 H 0.74842 0.19791 0.92025 0.0
H539 H 0.78501 0.23409 0.93156 0.0
H540 H 0.77197 0.22772 1.01511 0.0
H541 H 0.73543 0.19144 1.00406 0.0
H542 H 0.73481 0.22332 1.03372 0.0
H543 H 0.66841 0.25942 0.93439 0.0
H544 H 0.62476 0.20443 0.91904 0.0
H545 H 0.68849 0.16885 0.94755 0.0
C546 C 0.78814 0.2915 0.9765 0.0
C547 C 0.79579 0.32376 0.98152 0.0
C548 C 0.77073 0.33045 0.97632 0.0
C549 C 0.73952 0.30627 0.96472 0.0
C550 C 0.73288 0.27478 0.95972 0.0
C551 C 0.75656 0.2674 0.9666 0.0
C552 C 0.74313 0.23158 0.96252 0.0
C553 C 0.75933 0.22403 0.92458 0.0
C554 C 0.74654 0.2177 1.00647 0.0
C555 C 0.70832 0.21976 0.95188 0.0
C556 C 0.70282 0.245 0.94941 0.0
C557 C 0.67264 0.23966 0.93739 0.0
C558 C 0.64771 0.20811 0.9287 0.0
C559 C 0.65232 0.1816 0.93306 0.0
C560 C 0.68344 0.18809 0.94467 0.0
H561 H 0.50953 0.69344 0.34093 0.0
H562 H 0.47612 0.68028 0.20563 0.0
H563 H 0.47452 0.73037 0.21018 0.0
H564 H 0.45874 0.72542 0.37965 0.0
H565 H 0.48781 0.75226 0.41874 0.0
H566 H 0.48632 0.71549 0.40453 0.0
H567 H 0.5455 0.747 0.38177 0.0
H568 H 0.54701 0.78384 0.39538 0.0
H569 H 0.5581 0.77794 0.34085 0.0
H570 H 0.48204 0.78613 0.22773 0.0
H571 H 0.48948 0.83645 0.25971 0.0
H572 H 0.51116 0.81097 0.38671 0.0
C573 C 0.50148 0.70089 0.31241 0.0
C574 C 0.49295 0.6825 0.27277 0.0
C575 C 0.48255 0.69341 0.23645 0.0
C576 C 0.48176 0.72214 0.23869 0.0
C577 C 0.49075 0.73988 0.27791 0.0
C578 C 0.49965 0.7292 0.31453 0.0
C579 C 0.5069 0.75209 0.35329 0.0
C580 C 0.48358 0.73532 0.39135 0.0
C581 C 0.54143 0.76604 0.36873 0.0
C582 C 0.50149 0.77772 0.33269 0.0
C583 C 0.49264 0.77044 0.28889 0.0
C584 C 0.48833 0.79152 0.26223 0.0
C585 C 0.49269 0.82025 0.28069 0.0
C586 C 0.50043 0.82779 0.32595 0.0
C587 C 0.50477 0.80591 0.35217 0.0
H588 H 0.71425 0.54518 0.63149 0.0
H589 H 0.65228 0.44935 0.67819 0.0
H590 H 0.69286 0.435 0.65837 0.0
H591 H 0.75303 0.52805 0.54137 0.0
H592 H 0.7918 0.56136 0.55308 0.0
H593 H 0.75683 0.56333 0.56696 0.0
H594 H 0.77574 0.57624 0.64816 0.0
H595 H 0.8108 0.5744 0.63449 0.0
H596 H 0.78499 0.54985 0.67813 0.0
H597 H 0.74045 0.43027 0.62717 0.0
H598 H 0.79313 0.43858 0.60488 0.0
H599 H 0.82759 0.53902 0.58908 0.0
C600 C 0.70896 0.52098 0.63682 0.0
C601 C 0.67913 0.498 0.65486 0.0
C602 C 0.67413 0.46708 0.66293 0.0
C603 C 0.69724 0.45871 0.65174 0.0
C604 C 0.72609 0.48169 0.63337 0.0
C605 C 0.73234 0.5125 0.62718 0.0
C606 C 0.76646 0.53356 0.61134 0.0
C607 C 0.76705 0.5474 0.56546 0.0
C608 C 0.78563 0.56009 0.64504 0.0
C609 C 0.77838 0.50988 0.60908 0.0
C610 C 0.75445 0.47987 0.62087 0.0
C611 C 0.75935 0.45384 0.61894 0.0
C612 C 0.78936 0.45865 0.60584 0.0
C613 C 0.81477 0.48931 0.59559 0.0
C614 C 0.80891 0.51524 0.59725 0.0
H615 H 0.27456 0.80709 0.90379 0.0
H616 H 0.34337 0.80288 0.98984 0.0
H617 H 0.30194 0.74995 1.01665 0.0
H618 H 0.20875 0.7711 0.9782 0.0
H619 H 0.17946 0.74893 0.93643 0.0
H620 H 0.21481 0.78544 0.9221 0.0
H621 H 0.22798 0.75604 0.86149 0.0
H622 H 0.19231 0.71965 0.87546 0.0
H623 H 0.23002 0.72115 0.87609 0.0
H624 H 0.25113 0.69744 1.03726 0.0
H625 H 0.19724 0.6514 1.04865 0.0
H626 H 0.16048 0.68854 0.94921 0.0
C627 C 0.28094 0.79485 0.92799 0.0
C628 C 0.31261 0.80924 0.94428 0.0
C629 C 0.31962 0.79242 0.97636 0.0
C630 C 0.29607 0.76224 0.9919 0.0
C631 C 0.2651 0.74875 0.97541 0.0
C632 C 0.25754 0.76451 0.94391 0.0
C633 C 0.22229 0.74503 0.93225 0.0
C634 C 0.20533 0.76374 0.94288 0.0
C635 C 0.21791 0.73488 0.88342 0.0
C636 C 0.211 0.71625 0.96267 0.0
C637 C 0.23615 0.71876 0.98709 0.0
C638 C 0.23146 0.69533 1.01793 0.0
C639 C 0.20062 0.66895 1.02402 0.0
C640 C 0.17427 0.66565 0.99957 0.0
C641 C 0.1799 0.68992 0.96839 0.0
H642 H 0.49258 0.17976 1.05835 0.0
H643 H 0.56497 0.27019 1.00707 0.0
H644 H 0.5924 0.28285 1.07886 0.0
H645 H 0.50211 0.19681 0.1825 0.0
H646 H 0.50101 0.15975 0.19364 0.0
H647 H 0.47705 0.16222 0.15014 0.0
H648 H 0.49995 0.14148 1.09253 0.0
H649 H 0.52402 0.13714 0.1333 0.0
H650 H 0.5423 0.16074 1.08472 0.0
H651 H 0.62226 0.27664 0.14128 0.0
H652 H 0.64735 0.25488 0.19117 0.0
H653 H 0.55961 0.16454 0.19299 0.0
C654 C 0.51281 0.20328 1.06334 0.0
C655 C 0.52723 0.22361 1.02713 0.0
C656 C 0.55373 0.25417 1.03458 0.0
C657 C 0.5697 0.26131 1.07523 0.0
C658 C 0.5585 0.2377 1.10761 0.0
C659 C 0.53007 0.20934 1.10232 0.0
C660 C 0.52745 0.1841 0.134 0.0
C661 C 0.50039 0.17525 0.16714 0.0
C662 C 0.52323 0.1542 1.10964 0.0
C663 C 0.55956 0.20189 0.15571 0.0
C664 C 0.57686 0.23299 0.14137 0.0
C665 C 0.60862 0.25257 0.15355 0.0
C666 C 0.62285 0.24 0.18121 0.0
C667 C 0.60553 0.20793 0.19474 0.0
C668 C 0.57353 0.18902 0.18223 0.0
H669 H 0.39345 0.66485 0.39729 0.0
H670 H 0.31099 0.57144 0.413 0.0
H671 H 0.2977 0.58852 0.48174 0.0
H672 H 0.4227 0.66939 0.4884 0.0
H673 H 0.43815 0.71076 0.50221 0.0
H674 H 0.4309 0.69846 0.44601 0.0
H675 H 0.39488 0.72328 0.43863 0.0
H676 H 0.40149 0.73479 0.49608 0.0
H677 H 0.36163 0.71096 0.47539 0.0
H678 H 0.30617 0.60382 0.55742 0.0
H679 H 0.3371 0.61146 0.6239 0.0
H680 H 0.41442 0.6979 0.57021 0.0
C681 C 0.37191 0.64856 0.41459 0.0
C682 C 0.35366 0.61675 0.40024 0.0
C683 C 0.32535 0.59606 0.42295 0.0
C684 C 0.31755 0.60571 0.4623 0.0
C685 C 0.33822 0.63612 0.47872 0.0
C686 C 0.36459 0.65768 0.45486 0.0
C687 C 0.38751 0.6851 0.48388 0.0
C688 C 0.42177 0.69117 0.47999 0.0
C689 C 0.38627 0.71531 0.47284 0.0
C690 C 0.37314 0.67245 0.52898 0.0
C691 C 0.34339 0.64547 0.52499 0.0
C692 C 0.32894 0.6253 0.56091 0.0
C693 C 0.3468 0.62997 0.59924 0.0
C694 C 0.37881 0.65465 0.60137 0.0
C695 C 0.39023 0.67841 0.56853 0.0
H696 H 0.70638 0.33982 0.8912 0.0
H697 H 0.71532 0.43172 0.86955 0.0
H698 H 0.6817 0.4113 0.8038 0.0
H699 H 0.72754 0.32963 0.80659 0.0
H700 H 0.70099 0.28852 0.7922 0.0
H701 H 0.70465 0.30056 0.84839 0.0
H702 H 0.6445 0.27848 0.85301 0.0
H703 H 0.64047 0.26605 0.79602 0.0
H704 H 0.62501 0.29101 0.81397 0.0
H705 H 0.67368 0.39367 0.72915 0.0
H706 H 0.69906 0.38663 0.66401 0.0
H707 H 0.69667 0.30497 0.72354 0.0
C708 C 0.69959 0.35484 0.87351 0.0
C709 C 0.71378 0.38729 0.88455 0.0
C710 C 0.70463 0.40668 0.86167 0.0
C711 C 0.68531 0.39508 0.82413 0.0
C712 C 0.67543 0.36409 0.80981 0.0
C713 C 0.68137 0.34368 0.83492 0.0
C714 C 0.67693 0.31558 0.80756 0.0
C715 C 0.70422 0.30831 0.814 0.0
C716 C 0.64481 0.28606 0.81826 0.0
C717 C 0.6762 0.32776 0.76168 0.0
C718 C 0.67157 0.35375 0.76392 0.0
C719 C 0.67664 0.37307 0.72709 0.0
C720 C 0.69113 0.36892 0.68978 0.0
C721 C 0.70055 0.34581 0.68982 0.0
C722 C 0.68963 0.32285 0.72364 0.0
H723 H 0.43644 0.7311 0.9825 0.0
H724 H 0.33572 0.68461 0.95512 0.0
H725 H 0.32467 0.66212 1.02978 0.0
H726 H 0.42812 0.66766 1.07727 0.0
H727 H 0.46041 0.70048 1.1058 0.0
H728 H 0.46087 0.69802 1.04631 0.0
H729 H 0.46875 0.75455 1.0414 0.0
H730 H 0.4675 0.757 1.09996 0.0
H731 H 0.43998 0.76271 1.06676 0.0
H732 H 0.32429 0.66733 1.10994 0.0
H733 H 0.33489 0.694 0.18221 0.0
H734 H 0.43571 0.73553 0.16095 0.0
C735 C 0.41209 0.71444 0.99077 0.0
C736 C 0.38698 0.71114 0.96355 0.0
C737 C 0.35549 0.68879 0.97597 0.0
C738 C 0.34898 0.67554 1.01845 0.0
C739 C 0.37429 0.68369 1.04736 0.0
C740 C 0.40548 0.70135 1.03323 0.0
C741 C 0.42828 0.71283 1.0721 0.0
C742 C 0.44542 0.69359 1.07557 0.0
C743 C 0.45242 0.74887 1.06988 0.0
C744 C 0.40503 0.70458 1.1097 0.0
C745 C 0.37399 0.68596 1.09528 0.0
C746 C 0.34842 0.68064 1.12204 0.0
C747 C 0.35464 0.69602 0.16313 0.0
C748 C 0.3862 0.71685 0.17677 0.0
C749 C 0.41146 0.71948 0.15101 0.0
H750 H 0.68291 0.40746 0.4204 0.0
H751 H 0.5988 0.3182 0.38951 0.0
H752 H 0.60479 0.29536 0.45797 0.0
H753 H 0.71881 0.36828 0.50899 0.0
H754 H 0.73276 0.40435 0.54064 0.0
H755 H 0.73472 0.40597 0.48117 0.0
H756 H 0.70415 0.43674 0.48298 0.0
H757 H 0.7016 0.43395 0.54154 0.0
H758 H 0.66572 0.4189 0.50918 0.0
H759 H 0.6014 0.29135 0.53609 0.0
H760 H 0.58779 0.30851 0.60448 0.0
H761 H 0.67425 0.39899 0.59608 0.0
C762 C 0.66667 0.38269 0.42756 0.0
C763 C 0.63984 0.36502 0.40049 0.0
C764 C 0.61943 0.33247 0.40975 0.0
C765 C 0.62286 0.31917 0.44886 0.0
C766 C 0.64684 0.33862 0.47848 0.0
C767 C 0.66933 0.36962 0.46749 0.0
C768 C 0.68713 0.38828 0.50818 0.0
C769 C 0.7203 0.39187 0.50984 0.0
C770 C 0.68964 0.4213 0.5106 0.0
C771 C 0.66609 0.36568 0.54395 0.0
C772 C 0.64491 0.33603 0.52641 0.0
C773 C 0.61837 0.31402 0.55037 0.0
C774 C 0.61073 0.3239 0.58965 0.0
C775 C 0.62971 0.35548 0.60444 0.0
C776 C 0.65951 0.37486 0.58461 0.0
H777 H 0.28889 0.61879 0.87721 0.0
H778 H 0.26218 0.68137 0.94141 0.0
H779 H 0.27883 0.71562 0.87686 0.0
H780 H 0.34528 0.68448 0.78183 0.0
H781 H 0.33003 0.65187 0.74316 0.0
H782 H 0.33972 0.64651 0.79886 0.0
H783 H 0.28315 0.59846 0.80778 0.0
H784 H 0.2736 0.60396 0.75296 0.0
H785 H 0.24941 0.60373 0.79831 0.0
H786 H 0.26594 0.72261 0.80314 0.0
H787 H 0.23296 0.70502 0.73632 0.0
H788 H 0.2628 0.63644 0.71044 0.0
C789 C 0.2882 0.64069 0.87799 0.0
C790 C 0.27272 0.64643 0.9132 0.0
C791 C 0.27331 0.67581 0.91463 0.0
C792 C 0.28268 0.69555 0.87749 0.0
C793 C 0.29113 0.68547 0.8392 0.0
C794 C 0.2955 0.65929 0.83969 0.0
C795 C 0.2956 0.6478 0.79298 0.0
C796 C 0.32968 0.65832 0.77835 0.0
C797 C 0.27409 0.61139 0.78781 0.0
C798 C 0.28299 0.66616 0.76797 0.0
C799 C 0.28321 0.68967 0.79428 0.0
C800 C 0.26682 0.70522 0.78172 0.0
C801 C 0.24791 0.69497 0.74364 0.0
C802 C 0.24523 0.66914 0.71877 0.0
C803 C 0.26472 0.65628 0.7293 0.0
H804 H 0.42157 0.9905 1.0038 0.0
H805 H 0.41419 0.90471 1.05842 0.0
H806 H 0.42944 0.93061 0.13163 0.0
H807 H 0.48832 0.04811 1.0668 0.0
H808 H 0.47487 0.07554 1.08005 0.0
H809 H 0.46075 0.05128 1.03087 0.0
H810 H 0.40309 0.02747 1.05411 0.0
H811 H 0.41588 0.0526 1.1025 0.0
H812 H 0.39076 0.01021 1.10826 0.0
H813 H 0.44734 0.96696 0.2031 0.0
H814 H 0.46854 0.00849 0.26019 0.0
H815 H 0.46399 0.07423 0.16809 0.0
C816 C 0.42313 0.97689 1.03096 0.0
C817 C 0.41663 0.94443 1.02253 0.0
C818 C 0.41894 0.92892 1.06123 0.0
C819 C 0.4277 0.9438 1.10403 0.0
C820 C 0.43461 0.97539 1.11064 0.0
C821 C 0.43214 0.99183 1.07504 0.0
C822 C 0.44023 0.02552 1.09248 0.0
C823 C 0.46768 0.05173 1.06598 0.0
C824 C 0.41075 0.02919 1.08911 0.0
C825 C 0.44961 0.02622 0.14227 0.0
C826 C 0.44511 -0.00361 0.15177 0.0
C827 C 0.45085 0.99021 0.19516 0.0
C828 C 0.46253 0.01444 0.22862 0.0
C829 C 0.46757 0.04576 0.22206 0.0
C830 C 0.46063 0.05114 0.17672 0.0
H831 H 0.4783 0.40382 0.42153 0.0
H832 H 0.45624 0.45607 0.32574 0.0
H833 H 0.43375 0.47349 0.38541 0.0
H834 H 0.40084 0.38039 0.48591 0.0
H835 H 0.41703 0.37967 0.53913 0.0
H836 H 0.43166 0.37026 0.48991 0.0
H837 H 0.48988 0.41537 0.50665 0.0
H838 H 0.47331 0.41965 0.55775 0.0
H839 H 0.49577 0.45352 0.52355 0.0
H840 H 0.41665 0.49104 0.46031 0.0
H841 H 0.40686 0.50394 0.53551 0.0
H842 H 0.4324 0.43731 0.58947 0.0
C843 C 0.4689 0.41906 0.41267 0.0
C844 C 0.47048 0.42856 0.36611 0.0
C845 C 0.45642 0.44794 0.35898 0.0
C846 C 0.44314 0.45812 0.39363 0.0
C847 C 0.44212 0.44863 0.43806 0.0
C848 C 0.45437 0.42901 0.44774 0.0
C849 C 0.44822 0.42097 0.49848 0.0
C850 C 0.42296 0.38573 0.50368 0.0
C851 C 0.47863 0.42778 0.52288 0.0
C852 C 0.43489 0.44232 0.51665 0.0
C853 C 0.43032 0.45693 0.48038 0.0
C854 C 0.41964 0.47878 0.4881 0.0
C855 C 0.41431 0.48646 0.53213 0.0
C856 C 0.41815 0.4723 0.57129 0.0
C857 C 0.42846 0.44914 0.562 0.0
H858 H 0.06187 0.47516 0.74736 0.0
H859 H -0.00534 0.47173 0.65073 0.0
H860 H 0.95327 0.45243 0.70851 0.0
H861 H 0.00176 0.40327 0.81192 0.0
H862 H 0.01922 0.41923 0.86509 0.0
H863 H 0.04368 0.43113 0.81618 0.0
H864 H 0.06287 0.48945 0.83438 0.0
H865 H 0.03798 0.47813 0.8829 0.0
H866 H 0.03436 0.50232 0.84098 0.0
H867 H 0.91566 0.43159 0.78074 0.0
H868 H 0.89082 0.41958 0.85458 0.0
H869 H 0.97898 0.43487 0.91145 0.0
C870 C 0.03853 0.4706 0.73796 0.0
C871 C 0.03301 0.47611 0.69197 0.0
C872 C 0.00111 0.46876 0.68389 0.0
C873 C 0.97687 0.45752 0.7174 0.0
C874 C 0.98315 0.45303 0.7616 0.0
C875 C 0.01345 0.45935 0.77203 0.0
C876 C 0.01356 0.45253 0.8227 0.0
C877 C 0.01996 0.42491 0.82938 0.0
C878 C 0.03873 0.48237 0.84672 0.0
C879 C 0.97942 0.44286 0.83946 0.0
C880 C 0.96217 0.44256 0.80295 0.0
C881 C 0.92987 0.4331 0.80911 0.0
C882 C 0.91547 0.42589 0.85225 0.0
C883 C 0.93168 0.42601 0.89169 0.0
C884 C 0.96471 0.43439 0.88374 0.0
H885 H 0.49816 0.915 0.17489 0.0
H886 H 0.50751 0.98756 0.26704 0.0
H887 H 0.52614 0.02651 0.20695 0.0
H888 H 0.57366 0.97729 1.11547 0.0
H889 H 0.56189 0.95926 1.06163 0.0
H890 H 0.54787 0.93493 1.11061 0.0
H891 H 0.48883 0.91288 1.08707 0.0
H892 H 0.50502 0.93531 1.03685 0.0
H893 H 0.47761 0.94119 1.06902 0.0
H894 H 0.53787 0.05944 0.13219 0.0
H895 H 0.55264 0.08353 1.05791 0.0
H896 H 0.5443 -0.00378 1.00747 0.0
C897 C 0.50307 0.93878 0.18265 0.0
C898 C 0.4989 0.94623 0.22848 0.0
C899 C 0.50864 0.97915 0.23432 0.0
C900 C 0.51956 0.0022 0.19939 0.0
C901 C 0.52168 0.9939 0.15551 0.0
C902 C 0.51495 0.96312 0.14706 0.0
C903 C 0.5247 0.96281 1.09749 0.0
C904 C 0.55374 0.95827 1.09621 0.0
C905 C 0.49738 0.93637 1.07112 0.0
C906 C 0.53384 -0.00351 1.07857 0.0
C907 C 0.53227 0.01402 1.11348 0.0
C908 C 0.53934 0.04553 1.1053 0.0
C909 C 0.54783 0.05938 1.06186 0.0
C910 C 0.55016 0.04307 1.02399 0.0
C911 C 0.54315 0.01058 1.03395 0.0
H912 H 0.54149 0.49827 0.54717 0.0
H913 H 0.62331 0.58733 0.585 0.0
H914 H 0.617 0.61248 0.51765 0.0
H915 H 0.55108 0.50608 0.42462 0.0
H916 H 0.50976 0.49064 0.41348 0.0
H917 H 0.52211 0.47841 0.46228 0.0
H918 H 0.49023 0.49809 0.51068 0.0
H919 H 0.47952 0.51276 0.46168 0.0
H920 H 0.49983 0.5387 0.50693 0.0
H921 H 0.6004 0.62914 0.43605 0.0
H922 H 0.57509 0.63365 0.36742 0.0
H923 H 0.49988 0.53632 0.3833 0.0
C924 C 0.55861 0.52295 0.54134 0.0
C925 C 0.58372 0.53972 0.57397 0.0
C926 C 0.60403 0.57261 0.56277 0.0
C927 C 0.60056 0.58752 0.52336 0.0
C928 C 0.57589 0.57043 0.49249 0.0
C929 C 0.55511 0.53873 0.50172 0.0
C930 C 0.52887 0.5265 0.46561 0.0
C931 C 0.52771 0.49863 0.44017 0.0
C932 C 0.49755 0.51818 0.48758 0.0
C933 C 0.53793 0.5547 0.43363 0.0
C934 C 0.56554 0.58019 0.44963 0.0
C935 C 0.57857 0.60873 0.4249 0.0
C936 C 0.56359 0.61119 0.38482 0.0
C937 C 0.53431 0.58594 0.36735 0.0
C938 C 0.52169 0.55703 0.39379 0.0
H939 H 0.06483 0.57715 0.85191 0.0
H940 H 0.99069 0.52012 0.94553 0.0
H941 H 0.95178 0.49936 0.88439 0.0
H942 H 0.01056 0.59468 0.78026 0.0
H943 H 0.02965 0.59466 0.72924 0.0
H944 H 0.05192 0.60608 0.78019 0.0
H945 H 0.06815 0.56493 0.7652 0.0
H946 H 0.04418 0.55033 0.71586 0.0
H947 H 0.0385 0.52381 0.76087 0.0
H948 H 0.9174 0.48461 0.80907 0.0
H949 H 0.89537 0.47292 0.73346 0.0
H950 H 0.98844 0.53902 0.68172 0.0
C951 C 0.04043 0.56023 0.86 0.0
C952 C 0.03217 0.55055 0.90624 0.0
C953 C -0.00088 0.52854 0.91242 0.0
C954 C 0.97629 0.51638 0.87696 0.0
C955 C 0.9851 0.52619 0.83275 0.0
C956 C 0.0166 0.54802 0.82415 0.0
C957 C 0.0193 0.55488 0.7732 0.0
C958 C 0.02842 0.58965 0.76524 0.0
C959 C 0.04402 0.54812 0.75242 0.0
C960 C 0.98529 0.53212 0.75413 0.0
C961 C 0.96582 0.51669 0.78977 0.0
C962 C 0.93319 0.49611 0.7815 0.0
C963 C 0.92048 0.48951 0.73729 0.0
C964 C 0.93901 0.50393 0.69863 0.0
C965 C 0.97246 0.52642 0.70868 0.0
H966 H 0.45639 0.02568 0.44916 0.0
H967 H 0.44093 0.0177 0.30897 0.0
H968 H 0.38518 0.98136 0.3194 0.0
H969 H 0.44579 0.97448 0.47907 0.0
H970 H 0.41573 0.95201 0.51967 0.0
H971 H 0.43274 0.9944 0.51638 0.0
H972 H 0.37918 0.98955 0.50887 0.0
H973 H 0.36071 0.94696 0.51376 0.0
H974 H 0.35107 0.96424 0.46807 0.0
H975 H 0.3528 0.92573 0.33137 0.0
H976 H 0.38488 0.90024 0.32069 0.0
H977 H 0.41729 0.92152 0.45488 0.0
C978 C 0.44058 0.01566 0.42112 0.0
C979 C 0.45311 0.02267 0.37817 0.0
C980 C 0.43248 0.01118 0.34198 0.0
C981 C 0.40017 0.99125 0.34823 0.0
C982 C 0.38941 0.97838 0.39027 0.0
C983 C 0.40878 0.99218 0.42738 0.0
C984 C 0.39827 0.96786 0.46371 0.0
C985 C 0.42476 0.97244 0.49649 0.0
C986 C 0.37066 0.96708 0.48999 0.0
C987 C 0.38604 0.93897 0.43406 0.0
C988 C 0.37235 0.94384 0.39617 0.0
C989 C 0.36624 0.92439 0.35895 0.0
C990 C 0.38553 0.91122 0.35217 0.0
C991 C 0.40641 0.91346 0.38564 0.0
C992 C 0.4033 0.92306 0.42821 0.0
H993 H 0.47212 0.53324 0.81479 0.0
H994 H 0.41128 0.44374 0.7513 0.0
H995 H 0.41988 0.41597 0.81227 0.0
H996 H 0.52477 0.55031 0.82501 0.0
H997 H 0.54552 0.55265 0.87526 0.0
H998 H 0.51051 0.55626 0.87661 0.0
H999 H 0.48934 0.51415 0.9357 0.0
H1000 H 0.5227 0.50777 0.93139 0.0
H1001 H 0.48277 0.47506 0.92558 0.0
H1002 H 0.46694 0.41168 0.80383 0.0
H1003 H 0.50332 0.43437 0.742 0.0
H1004 H 0.55231 0.52454 0.80872 0.0
C1005 C 0.4608 0.5076 0.81477 0.0
C1006 C 0.44429 0.49066 0.77687 0.0
C1007 C 0.4265 0.45738 0.77851 0.0
C1008 C 0.4307 0.44158 0.81399 0.0
C1009 C 0.45655 0.45939 0.8423 0.0
C1010 C 0.46784 0.49203 0.84812 0.0
C1011 C 0.50072 0.50734 0.86781 0.0
C1012 C 0.52162 0.54373 0.86055 0.0
C1013 C 0.49878 0.5006 0.91797 0.0
C1014 C 0.51135 0.48735 0.84308 0.0
C1015 C 0.48516 0.45659 0.83799 0.0
C1016 C 0.48588 0.43618 0.80592 0.0
C1017 C 0.50571 0.4496 0.76964 0.0
C1018 C 0.52775 0.48246 0.76883 0.0
C1019 C 0.53325 0.50006 0.80796 0.0
H1020 H 0.93097 0.49582 1.12284 0.0
H1021 H 0.94311 0.41633 1.09019 0.0
H1022 H 0.97418 0.4251 0.1571 0.0
H1023 H 0.98052 0.54378 1.11588 0.0
H1024 H 0.00215 0.57145 0.15963 0.0
H1025 H 0.95966 0.54738 0.16238 0.0
H1026 H 0.96155 0.52646 0.23688 0.0
H1027 H 0.00412 0.55159 0.23715 0.0
H1028 H 0.98639 0.50983 0.24833 0.0
H1029 H 0.02869 0.45899 0.18158 0.0
H1030 H 0.06012 0.48134 1.11513 0.0
H1031 H 0.03015 0.55097 1.10852 0.0
C1032 C 0.94034 0.48037 0.13078 0.0
C1033 C 0.93652 0.45674 1.10059 0.0
C1034 C 0.94726 0.43575 1.11183 0.0
C1035 C 0.96419 0.44025 0.15086 0.0
C1036 C 0.97508 0.46892 0.17406 0.0
C1037 C 0.96135 0.48791 0.16629 0.0
C1038 C 0.98515 0.52188 0.17772 0.0
C1039 C 0.98167 0.54757 0.15218 0.0
C1040 C 0.98428 0.5277 0.22791 0.0
C1041 C 0.01434 0.52001 0.16624 0.0
C1042 C 0.00932 0.49034 0.18003 0.0
C1043 C 0.03054 0.48035 0.16759 0.0
C1044 C 0.0473 0.49234 0.12853 0.0
C1045 C 0.04497 0.51615 1.10513 0.0
C1046 C 0.03067 0.53177 1.12576 0.0
H1047 H 0.0441 0.54264 0.45753 0.0
H1048 H 0.03492 0.45329 0.4957 0.0
H1049 H 0.00293 0.42822 0.43025 0.0
H1050 H -0.00296 0.54341 0.46597 0.0
H1051 H 0.97221 0.54584 0.42392 0.0
H1052 H 0.01422 0.56349 0.41502 0.0
H1053 H 0.00284 0.53499 0.34357 0.0
H1054 H 0.96066 0.51386 0.35153 0.0
H1055 H 0.98103 0.49245 0.33957 0.0
H1056 H 0.94625 0.40561 0.42303 0.0
H1057 H 0.91851 0.40219 0.49145 0.0
H1058 H 0.94931 0.50157 0.48339 0.0
C1059 C 0.03481 0.51758 0.45132 0.0
C1060 C 0.0391 0.49908 0.48329 0.0
C1061 C 0.02975 0.46741 0.4734 0.0
C1062 C 0.01223 0.45343 0.43521 0.0
C1063 C -0.00117 0.46926 0.41296 0.0
C1064 C 0.01265 0.50246 0.41728 0.0
C1065 C 0.98761 0.51144 0.40815 0.0
C1066 C -0.00692 0.54279 0.42975 0.0
C1067 C 0.9828 0.51316 0.35783 0.0
C1068 C 0.96022 0.48158 0.42667 0.0
C1069 C 0.9643 0.45595 0.41523 0.0
C1070 C 0.94496 0.42613 0.4341 0.0
C1071 C 0.9304 0.42472 0.47419 0.0
C1072 C 0.93358 0.45263 0.49348 0.0
C1073 C 0.94701 0.48057 0.46855 0.0
H1074 H 0.49824 0.93104 0.8632 0.0
H1075 H 0.43467 0.94936 0.78604 0.0
H1076 H 0.46993 0.96325 0.72279 0.0
H1077 H 0.54955 0.97227 0.87502 0.0
H1078 H 0.58673 0.97986 0.8519 0.0
H1079 H 0.55478 0.93968 0.85925 0.0
H1080 H 0.55694 0.92582 0.78058 0.0
H1081 H 0.59016 0.9652 0.77176 0.0
H1082 H 0.55632 0.94958 0.73573 0.0
H1083 H 0.51717 0.01347 0.70497 0.0
H1084 H 0.51557 0.04757 0.76286 0.0
H1085 H 0.56925 0.02144 0.84802 0.0
C1086 C 0.49229 0.93828 0.83256 0.0
C1087 C 0.46548 0.94215 0.83058 0.0
C1088 C 0.45648 0.94871 0.78951 0.0
C1089 C 0.47598 0.95537 0.75281 0.0
C1090 C 0.50649 0.95981 0.75893 0.0
C1091 C 0.5133 0.94743 0.79647 0.0
C1092 C 0.54878 0.96432 0.80228 0.0
C1093 C 0.56056 0.96412 0.84994 0.0
C1094 C 0.56385 0.95046 0.77064 0.0
C1095 C 0.5549 -0.00378 0.78561 0.0
C1096 C 0.5346 0.99097 0.74938 0.0
C1097 C 0.52923 0.01544 0.73589 0.0
C1098 C 0.5276 0.03433 0.76925 0.0
C1099 C 0.53976 0.03418 0.81131 0.0
C1100 C 0.55802 0.01941 0.81656 0.0
H1101 H 0.54477 0.58088 0.17092 0.0
H1102 H 0.44837 0.5157 0.13265 0.0
H1103 H 0.4668 0.50459 1.06408 0.0
H1104 H 0.57097 0.55228 1.03641 0.0
H1105 H 0.607 0.56105 1.06425 0.0
H1106 H 0.59547 0.59094 1.06039 0.0
H1107 H 0.60024 0.59855 0.14456 0.0
H1108 H 0.61349 0.57002 0.146 0.0
H1109 H 0.58129 0.56465 0.18071 0.0
H1110 H 0.47636 0.46297 1.08754 0.0
H1111 H 0.47968 0.44266 0.15936 0.0
H1112 H 0.57825 0.51433 0.16896 0.0
C1113 C 0.52809 0.56438 0.14719 0.0
C1114 C 0.49576 0.54719 0.15848 0.0
C1115 C 0.47364 0.52763 1.12637 0.0
C1116 C 0.48411 0.52206 1.08649 0.0
C1117 C 0.51581 0.52976 1.08445 0.0
C1118 C 0.53873 0.55568 1.10897 0.0
C1119 C 0.56881 0.55388 1.10964 0.0
C1120 C 0.58648 0.56512 1.06503 0.0
C1121 C 0.59221 0.57281 0.14759 0.0
C1122 C 0.55292 0.51814 1.11318 0.0
C1123 C 0.5234 0.5044 1.0918 0.0
C1124 C 0.49903 0.47409 1.10439 0.0
C1125 C 0.50059 0.46278 0.146 0.0
C1126 C 0.529 0.47752 0.16992 0.0
C1127 C 0.55603 0.50329 0.151 0.0
H1128 H 0.3292 0.01763 0.7269 0.0
H1129 H 0.25352 0.92296 0.69442 0.0
H1130 H 0.24683 0.94221 0.62204 0.0
H1131 H 0.29922 0.06399 0.655 0.0
H1132 H 0.33967 0.09223 0.64055 0.0
H1133 H 0.33052 0.07433 0.69469 0.0
H1134 H 0.37111 0.05529 0.68271 0.0
H1135 H 0.38016 0.07282 0.62892 0.0
H1136 H 0.36701 0.03113 0.6351 0.0
H1137 H 0.25928 0.96646 0.54809 0.0
H1138 H 0.28957 0.99331 0.48076 0.0
H1139 H 0.357 0.0727 0.56004 0.0
C1140 C 0.31034 0.0014 0.70513 0.0
C1141 C 0.29189 0.96898 0.71583 0.0
C1142 C 0.2676 0.94805 0.68682 0.0
C1143 C 0.2636 0.95883 0.64572 0.0
C1144 C 0.28373 0.99065 0.63469 0.0
C1145 C 0.30629 0.01183 0.66404 0.0
C1146 C 0.32904 0.04285 0.64183 0.0
C1147 C 0.32431 0.06995 0.65904 0.0
C1148 C 0.36383 0.05092 0.64744 0.0
C1149 C 0.31791 0.03464 0.59457 0.0
C1150 C 0.29099 0.00494 0.5912 0.0
C1151 C 0.2796 0.99019 0.55031 0.0
C1152 C 0.2969 0.00552 0.51224 0.0
C1153 C 0.32537 0.03495 0.51573 0.0
C1154 C 0.33499 0.05032 0.55692 0.0
H1155 H 0.39516 0.29042 1.00685 0.0
H1156 H 0.3077 0.26585 1.07533 0.0
H1157 H 0.27976 0.254 1.00454 0.0
H1158 H 0.39134 0.33966 0.94373 0.0
H1159 H 0.40794 0.33378 0.89373 0.0
H1160 H 0.41747 0.32339 0.94576 0.0
H1161 H 0.39705 0.26587 0.91826 0.0
H1162 H 0.38762 0.27628 0.86543 0.0
H1163 H 0.35751 0.24303 0.89602 0.0
H1164 H 0.2657 0.26366 0.93167 0.0
H1165 H 0.26774 0.29565 0.86756 0.0
H1166 H 0.36597 0.32254 0.84582 0.0
C1167 C 0.36984 0.28138 1.0069 0.0
C1168 C 0.35385 0.27967 1.04662 0.0
C1169 C 0.32063 0.26716 1.04558 0.0
C1170 C 0.30447 0.26037 1.00517 0.0
C1171 C 0.32182 0.26639 0.96613 0.0
C1172 C 0.35391 0.27631 0.96668 0.0
C1173 C 0.36916 0.28976 0.92229 0.0
C1174 C 0.3981 0.32363 0.9267 0.0
C1175 C 0.37836 0.26738 0.89913 0.0
C1176 C 0.34173 0.28972 0.89874 0.0
C1177 C 0.31414 0.27423 0.92341 0.0
C1178 C 0.28692 0.27514 0.91161 0.0
C1179 C 0.28842 0.29373 0.87543 0.0
C1180 C 0.31721 0.31192 0.85215 0.0
C1181 C 0.34353 0.30839 0.86248 0.0
H1182 H 0.92626 0.29529 0.24252 0.0
H1183 H 0.00532 0.31442 0.15737 0.0
H1184 H 0.03424 0.30985 0.22115 0.0
H1185 H 0.9672 0.34401 0.32026 0.0
H1186 H 0.94477 0.32118 0.36743 0.0
H1187 H 0.92599 0.31399 0.31455 0.0
H1188 H 0.91001 0.25455 0.31935 0.0
H1189 H 0.92888 0.26164 0.37274 0.0
H1190 H 0.93996 0.2438 0.32911 0.0
H1191 H 0.06015 0.32035 0.29316 0.0
H1192 H 0.08016 0.34416 0.3666 0.0
H1193 H 0.98479 0.31763 0.40684 0.0
C1194 C 0.94917 0.29725 0.23727 0.0
C1195 C 0.96369 0.30524 0.19541 0.0
C1196 C -0.0063 0.3079 0.18926 0.0
C1197 C 0.01021 0.30521 0.2253 0.0
C1198 C -0.00388 0.29934 0.26695 0.0
C1199 C 0.96592 0.29477 0.27297 0.0
C1200 C 0.95842 0.295 0.3214 0.0
C1201 C 0.94858 0.32005 0.33144 0.0
C1202 C 0.9328 0.26176 0.33654 0.0
C1203 C 0.99026 0.3039 0.34137 0.0
C1204 C 0.01135 0.30509 0.30966 0.0
C1205 C 0.04364 0.31832 0.31864 0.0
C1206 C 0.05487 0.33196 0.36026 0.0
C1207 C 0.0338 0.33221 0.39213 0.0
C1208 C 0.00104 0.31662 0.38334 0.0
H1209 H 0.6919 0.05295 0.68633 0.0
H1210 H 0.65325 0.96388 0.75679 0.0
H1211 H 0.65631 0.93738 0.68871 0.0
H1212 H 0.64614 0.02635 0.6028 0.0
H1213 H 0.67355 0.05015 0.56 0.0
H1214 H 0.68076 0.06401 0.61576 0.0
H1215 H 0.73624 0.06887 0.61284 0.0
H1216 H 0.72892 0.05462 0.55657 0.0
H1217 H 0.73977 0.0349 0.59761 0.0
H1218 H 0.64825 0.91812 0.61191 0.0
H1219 H 0.62601 0.9076 0.53668 0.0
H1220 H 0.66777 0.00888 0.51511 0.0
C1221 C 0.68546 0.02816 0.68758 0.0
C1222 C 0.67241 0.01033 0.72629 0.0
C1223 C 0.66373 0.97793 0.72733 0.0
C1224 C 0.66555 0.96279 0.68883 0.0
C1225 C 0.67654 0.98059 0.65 0.0
C1226 C 0.68683 0.01283 0.64937 0.0
C1227 C 0.69078 0.02528 0.60268 0.0
C1228 C 0.67163 0.04236 0.5949 0.0
C1229 C 0.72603 0.04721 0.59179 0.0
C1230 C 0.67739 0.99442 0.57722 0.0
C1231 C 0.67098 0.96915 0.60475 0.0
C1232 C 0.65388 0.93779 0.5899 0.0
C1233 C 0.64109 0.932 0.54714 0.0
C1234 C 0.64474 0.95745 0.52022 0.0
C1235 C 0.66506 0.98896 0.53442 0.0
H1236 H 0.65054 0.72752 1.01974 0.0
H1237 H 0.71175 0.70673 1.09919 0.0
H1238 H 0.74635 0.71639 1.03501 0.0
H1239 H 0.64241 0.6836 0.94013 0.0
H1240 H 0.64286 0.70742 0.89415 0.0
H1241 H 0.63231 0.71432 0.94777 0.0
H1242 H 0.67673 0.77333 0.94394 0.0
H1243 H 0.68746 0.76652 0.88963 0.0
H1244 H 0.717 0.78326 0.93262 0.0
H1245 H 0.76082 0.70735 0.9625 0.0
H1246 H 0.75242 0.67974 0.89141 0.0
H1247 H 0.68324 0.7066 0.85458 0.0
C1248 C 0.6721 0.72649 1.02372 0.0
C1249 C 0.67851 0.71624 1.06387 0.0
C1250 C 0.70665 0.71488 1.06862 0.0
C1251 C 0.72655 0.72052 1.03229 0.0
C1252 C 0.71814 0.7279 0.99175 0.0
C1253 C 0.69185 0.73167 0.9875 0.0
C1254 C 0.68347 0.73216 0.93949 0.0
C1255 C 0.64824 0.7079 0.9299 0.0
C1256 C 0.69167 0.76583 0.92561 0.0
C1257 C 0.70571 0.72293 0.91792 0.0
C1258 C 0.72688 0.72253 0.9482 0.0
C1259 C 0.74531 0.70874 0.9381 0.0
C1260 C 0.74038 0.69302 0.89759 0.0
C1261 C 0.717 0.69104 0.86806 0.0
C1262 C 0.7013 0.70811 0.87694 0.0
H1263 H 0.95707 0.65729 0.17941 0.0
H1264 H 0.91347 0.55805 0.14283 0.0
H1265 H 0.87455 0.54412 0.20239 0.0
H1266 H 0.96527 0.64697 0.27931 0.0
H1267 H 0.95797 0.67629 0.30478 0.0
H1268 H 0.9707 0.68116 0.24861 0.0
H1269 H 0.92137 0.68422 0.22409 0.0
H1270 H 0.90849 0.67961 0.28086 0.0
H1271 H 0.88224 0.65294 0.23907 0.0
H1272 H 0.85517 0.53814 0.27729 0.0
H1273 H 0.85949 0.54028 0.35805 0.0
H1274 H 0.91754 0.64277 0.35289 0.0
C1275 C 0.93828 0.63284 0.18284 0.0
C1276 C 0.93843 0.60876 0.15695 0.0
C1277 C 0.91366 0.577 0.16195 0.0
C1278 C 0.89135 0.56889 0.19588 0.0
C1279 C 0.89409 0.59279 0.22436 0.0
C1280 C 0.91674 0.6244 0.21768 0.0
C1281 C 0.92072 0.6443 0.25837 0.0
C1282 C 0.95569 0.6632 0.27364 0.0
C1283 C 0.90739 0.66658 0.2501 0.0
C1284 C 0.90014 0.6184 0.29074 0.0
C1285 C 0.88342 0.58916 0.26982 0.0
C1286 C 0.86717 0.56098 0.29378 0.0
C1287 C 0.86973 0.56241 0.33987 0.0
C1288 C 0.88891 0.59179 0.36152 0.0
C1289 C 0.90252 0.62016 0.33685 0.0
H1290 H 0.49445 0.11069 0.54209 0.0
H1291 H 0.57336 0.10707 0.48184 0.0
H1292 H 0.59393 0.10595 0.55556 0.0
H1293 H 0.54119 0.16268 0.6361 0.0
H1294 H 0.51017 0.14341 0.67662 0.0
H1295 H 0.5002 0.14301 0.61911 0.0
H1296 H 0.46716 0.08184 0.62071 0.0
H1297 H 0.47704 0.0821 0.67823 0.0
H1298 H 0.48541 0.05941 0.63886 0.0
H1299 H 0.60713 0.10342 0.64055 0.0
H1300 H 0.61199 0.10336 0.72193 0.0
H1301 H 0.52802 0.11199 0.73462 0.0
C1302 C 0.51611 0.10966 0.54398 0.0
C1303 C 0.53166 0.10893 0.50306 0.0
C1304 C 0.56012 0.10773 0.51016 0.0
C1305 C 0.57231 0.107 0.553 0.0
C1306 C 0.55676 0.1078 0.59176 0.0
C1307 C 0.52924 0.10938 0.58773 0.0
C1308 C 0.51787 0.11077 0.63556 0.0
C1309 C 0.5173 0.14181 0.64224 0.0
C1310 C 0.48489 0.08182 0.64382 0.0
C1311 C 0.54302 0.10979 0.66667 0.0
C1312 C 0.56505 0.10769 0.64026 0.0
C1313 C 0.58991 0.10544 0.66081 0.0
C1314 C 0.59262 0.10548 0.70812 0.0
C1315 C 0.57118 0.10827 0.73746 0.0
C1316 C 0.54575 0.11041 0.71499 0.0
H1317 H 0.45742 0.57817 0.85575 0.0
H1318 H 0.36985 0.48932 0.87535 0.0
H1319 H 0.3764 0.49745 0.9561 0.0
H1320 H 0.49995 0.56928 0.95256 0.0
H1321 H 0.5203 0.61048 0.96867 0.0
H1322 H 0.50932 0.59984 0.91171 0.0
H1323 H 0.4788 0.63011 0.9113 0.0
H1324 H 0.4901 0.64147 0.96811 0.0
H1325 H 0.44882 0.6213 0.95257 0.0
H1326 H 0.39091 0.51698 1.04042 0.0
H1327 H 0.41355 0.54056 1.11273 0.0
H1328 H 0.49662 0.61533 1.04747 0.0
C1329 C 0.43928 0.56031 0.87672 0.0
C1330 C 0.41218 0.53275 0.85593 0.0
C1331 C 0.39047 0.51064 0.88741 0.0
C1332 C 0.39413 0.51521 0.93456 0.0
C1333 C 0.42044 0.54214 0.95339 0.0
C1334 C 0.44311 0.56423 0.92521 0.0
C1335 C 0.46972 0.5906 0.9551 0.0
C1336 C 0.50173 0.59265 0.94643 0.0
C1337 C 0.47202 0.6228 0.94622 0.0
C1338 C 0.45884 0.57989 1.00392 0.0
C1339 C 0.42981 0.55208 1.0016 0.0
C1340 C 0.41387 0.53843 1.04151 0.0
C1341 C 0.42728 0.55248 1.08363 0.0
C1342 C 0.4578 0.58033 1.08925 0.0
C1343 C 0.47357 0.59401 1.04705 0.0
H1344 H 0.87663 0.3848 0.21016 0.0
H1345 H 0.85862 0.4571 0.15719 0.0
H1346 H 0.859 0.47627 0.23263 0.0
H1347 H 0.82634 0.36777 0.31021 0.0
H1348 H 0.85238 0.36241 0.34706 0.0
H1349 H 0.85222 0.35437 0.2888 0.0
H1350 H 0.9125 0.39363 0.28503 0.0
H1351 H 0.91264 0.40133 0.34338 0.0
H1352 H 0.92799 0.43379 0.30462 0.0
H1353 H 0.86307 0.4906 0.31843 0.0
H1354 H 0.86631 0.49505 0.39974 0.0
H1355 H 0.87722 0.412 0.4061 0.0
C1356 C 0.87256 0.4046 0.21403 0.0
C1357 C 0.86727 0.41873 0.17454 0.0
C1358 C 0.86239 0.44481 0.18425 0.0
C1359 C 0.8627 0.45626 0.22813 0.0
C1360 C 0.86755 0.44187 0.26545 0.0
C1361 C 0.87218 0.41628 0.25894 0.0
C1362 C 0.87617 0.40495 0.30576 0.0
C1363 C 0.85024 0.3703 0.31341 0.0
C1364 C 0.90929 0.40862 0.30994 0.0
C1365 C 0.87254 0.42753 0.33928 0.0
C1366 C 0.86824 0.44906 0.31467 0.0
C1367 C 0.86592 0.47325 0.3372 0.0
C1368 C 0.86774 0.47561 0.38456 0.0
C1369 C 0.87112 0.45375 0.41245 0.0
C1370 C 0.87364 0.42911 0.38796 0.0
H1371 H 0.48075 0.88848 0.54492 0.0
H1372 H 0.3892 0.85571 0.48358 0.0
H1373 H 0.36607 0.85378 0.55714 0.0
H1374 H 0.4477 0.83616 0.64431 0.0
H1375 H 0.47647 0.86454 0.68232 0.0
H1376 H 0.48669 0.865 0.62493 0.0
H1377 H 0.50181 0.92403 0.61889 0.0
H1378 H 0.49233 0.92332 0.67656 0.0
H1379 H 0.47358 0.93565 0.63598 0.0
H1380 H 0.35221 0.85901 0.64242 0.0
H1381 H 0.34845 0.86326 0.72349 0.0
H1382 H 0.44587 0.8852 0.73672 0.0
C1383 C 0.4557 0.88067 0.5466 0.0
C1384 C 0.43732 0.87223 0.50568 0.0
C1385 C 0.40456 0.86216 0.5122 0.0
C1386 C 0.391 0.86116 0.55484 0.0
C1387 C 0.40951 0.86947 0.59376 0.0
C1388 C 0.44123 0.87839 0.59004 0.0
C1389 C 0.45536 0.88434 0.63777 0.0
C1390 C 0.46728 0.86114 0.64793 0.0
C1391 C 0.48238 0.9189 0.64257 0.0
C1392 C 0.4271 0.87786 0.66877 0.0
C1393 C 0.401 0.86991 0.64225 0.0
C1394 C 0.3727 0.86469 0.66268 0.0
C1395 C 0.37068 0.86721 0.70983 0.0
C1396 C 0.39623 0.87406 0.73936 0.0
C1397 C 0.42507 0.87934 0.71707 0.0
H1398 H 0.54288 0.43707 0.86004 0.0
H1399 H 0.63698 0.51839 0.87676 0.0
H1400 H 0.63211 0.51007 0.95763 0.0
H1401 H 0.50879 0.45249 0.96396 0.0
H1402 H 0.48338 0.41079 0.97457 0.0
H1403 H 0.49515 0.42448 0.91864 0.0
H1404 H 0.5162 0.38475 0.91319 0.0
H1405 H 0.50589 0.37337 0.97016 0.0
H1406 H 0.54609 0.38834 0.95171 0.0
H1407 H 0.61734 0.49104 1.04347 0.0
H1408 H 0.5941 0.46795 1.11624 0.0
H1409 H 0.5067 0.40057 1.05125 0.0
C1410 C 0.56277 0.45324 0.88035 0.0
C1411 C 0.59105 0.4787 0.85872 0.0
C1412 C 0.61522 0.49872 0.88948 0.0
C1413 C 0.61256 0.49401 0.93671 0.0
C1414 C 0.58497 0.46906 0.9564 0.0
C1415 C 0.56014 0.44918 0.92884 0.0
C1416 C 0.53258 0.42477 0.95916 0.0
C1417 C 0.50318 0.4283 0.95364 0.0
C1418 C 0.5247 0.39077 0.94787 0.0
C1419 C 0.54558 0.43362 1.00754 0.0
C1420 C 0.57616 0.45921 1.00487 0.0
C1421 C 0.59334 0.47115 1.04475 0.0
C1422 C 0.57968 0.45747 1.08708 0.0
C1423 C 0.54799 0.43161 1.09261 0.0
C1424 C 0.53094 0.42002 1.05064 0.0
H1425 H 0.10081 0.56833 0.40967 0.0
H1426 H 0.12251 0.49225 0.40261 0.0
H1427 H 0.126 0.49743 0.32124 0.0
H1428 H 0.0506 0.54268 0.30723 0.0
H1429 H 0.0621 0.58252 0.29017 0.0
H1430 H 0.06249 0.57375 0.34804 0.0
H1431 H 0.12134 0.61784 0.35245 0.0
H1432 H 0.12102 0.62615 0.29442 0.0
H1433 H 0.14971 0.6164 0.31562 0.0
H1434 H 0.12936 0.51259 0.23469 0.0
H1435 H 0.12706 0.53121 0.15958 0.0
H1436 H 0.09795 0.59474 0.21527 0.0
C1437 C 0.10667 0.55283 0.39136 0.0
C1438 C 0.1121 0.52997 0.41562 0.0
C1439 C 0.1186 0.51021 0.38758 0.0
C1440 C 0.12065 0.51306 0.3402 0.0
C1441 C 0.11542 0.53555 0.31787 0.0
C1442 C 0.10797 0.55482 0.3428 0.0
C1443 C 0.10161 0.57578 0.30981 0.0
C1444 C 0.06715 0.56828 0.31411 0.0
C1445 C 0.12479 0.61116 0.31862 0.0
C1446 C 0.10733 0.56607 0.26292 0.0
C1447 C 0.11555 0.54286 0.26871 0.0
C1448 C 0.12271 0.53063 0.23083 0.0
C1449 C 0.12146 0.54171 0.1872 0.0
C1450 C 0.11252 0.56509 0.17851 0.0
C1451 C 0.10512 0.57705 0.21846 0.0
loop_
_geom_bond_atom_site_label_1
_geom_bond_atom_site_label_2
_geom_bond_distance
_geom_bond_site_symmetry_2
_ccdc_geom_bond_type
Ho0 C3 2.811 . S
Ho0 O20 2.322 . S
Ho0 O22 2.378 . S
Ho0 O23 2.524 . S
Ho0 O24 2.381 . S
Ho0 O25 2.669 . S
Ho0 O27 2.346 . S
Ho0 O31 2.305 . S
Ho1 C12 2.811 . S
Ho1 O21 2.346 . S
Ho1 O25 2.305 . S
Ho1 O26 2.322 . S
Ho1 O28 2.378 . S
Ho1 O29 2.524 . S
Ho1 O30 2.381 . S
Ho1 O31 2.669 . S
C2 O20 1.259 . S
C2 O21 1.268 . S
C3 Ho0 2.811 . S
C3 C4 1.488 . S
C3 O22 1.215 . S
C3 O23 1.289 . S
C4 C3 1.488 . S
C4 C5 1.348 . S
C4 C9 1.413 . S
C5 C4 1.348 . S
C5 C6 1.442 . S
C5 H32 0.930 . S
C6 C5 1.442 . S
C6 C7 1.381 . S
C6 H33 0.931 . S
C7 C6 1.381 . S
C7 C8 1.321 . S
C8 C7 1.321 . S
C8 C9 1.403 . S
C8 H34 0.934 . S
C9 C4 1.413 . S
C9 C8 1.403 . S
C9 H35 0.930 . S
C10 O24 1.275 . S
C10 O25 1.256 . S
C11 O26 1.259 . S
C11 O27 1.268 . S
C12 Ho1 2.811 . S
C12 C13 1.488 . S
C12 O28 1.215 . S
C12 O29 1.289 . S
C13 C12 1.488 . S
C13 C14 1.348 . S
C13 C18 1.413 . S
C14 C13 1.348 . S
C14 C15 1.442 . S
C14 H36 0.930 . S
C15 C14 1.442 . S
C15 C16 1.381 . S
C15 H37 0.931 . S
C16 C15 1.381 . S
C16 C17 1.321 . S
C17 C16 1.321 . S
C17 C18 1.403 . S
C17 H38 0.934 . S
C18 C13 1.413 . S
C18 C17 1.403 . S
C18 H39 0.930 . S
C19 O30 1.275 . S
C19 O31 1.256 . S
O20 Ho0 2.322 . S
O20 C2 1.259 . S
O21 Ho1 2.346 . S
O21 C2 1.268 . S
O22 Ho0 2.378 . S
O22 C3 1.215 . S
O23 Ho0 2.524 . S
O23 C3 1.289 . S
O24 Ho0 2.381 . S
O24 C10 1.275 . S
O25 Ho0 2.669 . S
O25 Ho1 2.305 . S
O25 C10 1.256 . S
O26 Ho1 2.322 . S
O26 C11 1.259 . S
O27 Ho0 2.346 . S
O27 C11 1.268 . S
O28 Ho1 2.378 . S
O28 C12 1.215 . S
O29 Ho1 2.524 . S
O29 C12 1.289 . S
O30 Ho1 2.381 . S
O30 C19 1.275 . S
O31 Ho0 2.305 . S
O31 Ho1 2.669 . S
O31 C19 1.256 . S
H32 C5 0.930 . S
H33 C6 0.931 . S
H34 C8 0.934 . S
H35 C9 0.930 . S
H36 C14 0.930 . S
H37 C15 0.931 . S
H38 C17 0.934 . S
H39 C18 0.930 . S
Ho40 C43 2.811 . S
Ho40 O60 2.322 . S
Ho40 O62 2.378 . S
Ho40 O63 2.524 . S
Ho40 O64 2.381 . S
Ho40 O65 2.669 . S
Ho40 O67 2.346 . S
Ho40 O71 2.305 . S
Ho41 C52 2.811 . S
Ho41 O61 2.346 . S
Ho41 O65 2.305 . S
Ho41 O66 2.322 . S
Ho41 O68 2.378 . S
Ho41 O69 2.524 . S
Ho41 O70 2.381 . S
Ho41 O71 2.669 . S
C42 O60 1.259 . S
C42 O61 1.268 . S
C43 Ho40 2.811 . S
C43 C44 1.488 . S
C43 O62 1.215 . S
C43 O63 1.289 . S
C44 C43 1.488 . S
C44 C45 1.348 . S
C44 C49 1.413 . S
C45 C44 1.348 . S
C45 C46 1.442 . S
C45 H72 0.930 . S
C46 C45 1.442 . S
C46 C47 1.381 . S
C46 H73 0.931 . S
C47 C46 1.381 . S
C47 C48 1.321 . S
C48 C47 1.321 . S
C48 C49 1.403 . S
C48 H74 0.934 . S
C49 C44 1.413 . S
C49 C48 1.403 . S
C49 H75 0.930 . S
C50 O64 1.275 . S
C50 O65 1.256 . S
C51 O66 1.259 . S
C51 O67 1.268 . S
C52 Ho41 2.811 . S
C52 C53 1.488 . S
C52 O68 1.215 . S
C52 O69 1.289 . S
C53 C52 1.488 . S
C53 C54 1.348 . S
C53 C58 1.413 . S
C54 C53 1.348 . S
C54 C55 1.442 . S
C54 H76 0.930 . S
C55 C54 1.442 . S
C55 C56 1.381 . S
C55 H77 0.931 . S
C56 C55 1.381 . S
C56 C57 1.321 . S
C57 C56 1.321 . S
C57 C58 1.403 . S
C57 H78 0.934 . S
C58 C53 1.413 . S
C58 C57 1.403 . S
C58 H79 0.930 . S
C59 O70 1.275 . S
C59 O71 1.256 . S
O60 Ho40 2.322 . S
O60 C42 1.259 . S
O61 Ho41 2.346 . S
O61 C42 1.268 . S
O62 Ho40 2.378 . S
O62 C43 1.215 . S
O63 Ho40 2.524 . S
O63 C43 1.289 . S
O64 Ho40 2.381 . S
O64 C50 1.275 . S
O65 Ho40 2.669 . S
O65 Ho41 2.305 . S
O65 C50 1.256 . S
O66 Ho41 2.322 . S
O66 C51 1.259 . S
O67 Ho40 2.346 . S
O67 C51 1.268 . S
O68 Ho41 2.378 . S
O68 C52 1.215 . S
O69 Ho41 2.524 . S
O69 C52 1.289 . S
O70 Ho41 2.381 . S
O70 C59 1.275 . S
O71 Ho40 2.305 . S
O71 Ho41 2.669 . S
O71 C59 1.256 . S
H72 C45 0.930 . S
H73 C46 0.931 . S
H74 C48 0.934 . S
H75 C49 0.930 . S
H76 C54 0.930 . S
H77 C55 0.931 . S
H78 C57 0.934 . S
H79 C58 0.930 . S
Ho80 C83 2.811 1_556 S
Ho80 O100 2.322 . S
Ho80 O102 2.378 . S
Ho80 O103 2.524 . S
Ho80 O104 2.381 . S
Ho80 O105 2.669 . S
Ho80 O107 2.346 . S
Ho80 O111 2.305 . S
Ho81 C92 2.811 . S
Ho81 O101 2.346 . S
Ho81 O105 2.305 . S
Ho81 O106 2.322 . S
Ho81 O108 2.378 . S
Ho81 O109 2.524 . S
Ho81 O110 2.381 . S
Ho81 O111 2.669 . S
C82 O100 1.259 . S
C82 O101 1.268 . S
C83 Ho80 2.811 1_554 S
C83 C84 1.488 . S
C83 O102 1.215 1_554 S
C83 O103 1.289 1_554 S
C84 C83 1.488 . S
C84 C85 1.348 . S
C84 C89 1.413 . S
C85 C84 1.348 . S
C85 C86 1.442 . S
C85 H112 0.930 . S
C86 C85 1.442 . S
C86 C87 1.381 . S
C86 H113 0.931 . S
C87 C86 1.381 . S
C87 C88 1.321 . S
C88 C87 1.321 . S
C88 C89 1.403 . S
C88 H114 0.934 . S
C89 C84 1.413 . S
C89 C88 1.403 . S
C89 H115 0.930 . S
C90 O104 1.275 . S
C90 O105 1.256 . S
C91 O106 1.259 . S
C91 O107 1.268 . S
C92 Ho81 2.811 . S
C92 C93 1.488 . S
C92 O108 1.215 . S
C92 O109 1.289 . S
C93 C92 1.488 . S
C93 C94 1.348 . S
C93 C98 1.413 . S
C94 C93 1.348 . S
C94 C95 1.442 . S
C94 H116 0.930 . S
C95 C94 1.442 . S
C95 C96 1.381 . S
C95 H117 0.931 . S
C96 C95 1.381 . S
C96 C97 1.321 . S
C97 C96 1.321 . S
C97 C98 1.403 . S
C97 H118 0.934 . S
C98 C93 1.413 . S
C98 C97 1.403 . S
C98 H119 0.930 . S
C99 O110 1.275 . S
C99 O111 1.256 . S
O100 Ho80 2.322 . S
O100 C82 1.259 . S
O101 Ho81 2.346 . S
O101 C82 1.268 . S
O102 Ho80 2.378 . S
O102 C83 1.215 1_556 S
O103 Ho80 2.524 . S
O103 C83 1.289 1_556 S
O104 Ho80 2.381 . S
O104 C90 1.275 . S
O105 Ho80 2.669 . S
O105 Ho81 2.305 . S
O105 C90 1.256 . S
O106 Ho81 2.322 . S
O106 C91 1.259 . S
O107 Ho80 2.346 . S
O107 C91 1.268 . S
O108 Ho81 2.378 . S
O108 C92 1.215 . S
O109 Ho81 2.524 . S
O109 C92 1.289 . S
O110 Ho81 2.381 . S
O110 C99 1.275 . S
O111 Ho80 2.305 . S
O111 Ho81 2.669 . S
O111 C99 1.256 . S
H112 C85 0.930 . S
H113 C86 0.931 . S
H114 C88 0.934 . S
H115 C89 0.930 . S
H116 C94 0.930 . S
H117 C95 0.931 . S
H118 C97 0.934 . S
H119 C98 0.930 . S
Ho120 C123 2.811 . S
Ho120 O140 2.322 . S
Ho120 O142 2.378 . S
Ho120 O143 2.524 . S
Ho120 O144 2.381 . S
Ho120 O145 2.669 . S
Ho120 O147 2.346 . S
Ho120 O151 2.305 . S
Ho121 C132 2.811 . S
Ho121 O141 2.346 . S
Ho121 O145 2.305 . S
Ho121 O146 2.322 . S
Ho121 O148 2.378 . S
Ho121 O149 2.524 . S
Ho121 O150 2.381 . S
Ho121 O151 2.669 . S
C122 O140 1.259 . S
C122 O141 1.268 . S
C123 Ho120 2.811 . S
C123 C124 1.488 . S
C123 O142 1.215 . S
C123 O143 1.289 . S
C124 C123 1.488 . S
C124 C125 1.348 . S
C124 C129 1.413 . S
C125 C124 1.348 . S
C125 C126 1.442 . S
C125 H152 0.930 . S
C126 C125 1.442 . S
C126 C127 1.381 . S
C126 H153 0.931 . S
C127 C126 1.381 . S
C127 C128 1.321 . S
C128 C127 1.321 . S
C128 C129 1.403 . S
C128 H154 0.934 . S
C129 C124 1.413 . S
C129 C128 1.403 . S
C129 H155 0.930 . S
C130 O144 1.275 . S
C130 O145 1.256 . S
C131 O146 1.259 . S
C131 O147 1.268 . S
C132 Ho121 2.811 . S
C132 C133 1.488 . S
C132 O148 1.215 . S
C132 O149 1.289 . S
C133 C132 1.488 . S
C133 C134 1.348 . S
C133 C138 1.413 . S
C134 C133 1.348 . S
C134 C135 1.442 . S
C134 H156 0.930 . S
C135 C134 1.442 . S
C135 C136 1.381 . S
C135 H157 0.931 . S
C136 C135 1.381 . S
C136 C137 1.321 . S
C137 C136 1.321 . S
C137 C138 1.403 . S
C137 H158 0.934 . S
C138 C133 1.413 . S
C138 C137 1.403 . S
C138 H159 0.930 . S
C139 O150 1.275 . S
C139 O151 1.256 . S
O140 Ho120 2.322 . S
O140 C122 1.259 . S
O141 Ho121 2.346 . S
O141 C122 1.268 . S
O142 Ho120 2.378 . S
O142 C123 1.215 . S
O143 Ho120 2.524 . S
O143 C123 1.289 . S
O144 Ho120 2.381 . S
O144 C130 1.275 . S
O145 Ho120 2.669 . S
O145 Ho121 2.305 . S
O145 C130 1.256 . S
O146 Ho121 2.322 . S
O146 C131 1.259 . S
O147 Ho120 2.346 . S
O147 C131 1.268 . S
O148 Ho121 2.378 . S
O148 C132 1.215 . S
O149 Ho121 2.524 . S
O149 C132 1.289 . S
O150 Ho121 2.381 . S
O150 C139 1.275 . S
O151 Ho120 2.305 . S
O151 Ho121 2.669 . S
O151 C139 1.256 . S
H152 C125 0.930 . S
H153 C126 0.931 . S
H154 C128 0.934 . S
H155 C129 0.930 . S
H156 C134 0.930 . S
H157 C135 0.931 . S
H158 C137 0.934 . S
H159 C138 0.930 . S
Ho160 C163 2.811 . S
Ho160 O180 2.322 . S
Ho160 O182 2.378 . S
Ho160 O183 2.524 . S
Ho160 O184 2.381 . S
Ho160 O185 2.669 . S
Ho160 O187 2.346 . S
Ho160 O191 2.305 . S
Ho161 C172 2.811 . S
Ho161 O181 2.346 . S
Ho161 O185 2.305 . S
Ho161 O186 2.322 . S
Ho161 O188 2.378 . S
Ho161 O189 2.524 . S
Ho161 O190 2.381 . S
Ho161 O191 2.669 . S
C162 O180 1.259 . S
C162 O181 1.268 . S
C163 Ho160 2.811 . S
C163 C164 1.488 . S
C163 O182 1.215 . S
C163 O183 1.289 . S
C164 C163 1.488 . S
C164 C165 1.348 . S
C164 C169 1.413 . S
C165 C164 1.348 . S
C165 C166 1.442 . S
C165 H192 0.930 . S
C166 C165 1.442 . S
C166 C167 1.381 . S
C166 H193 0.931 . S
C167 C166 1.381 . S
C167 C168 1.321 . S
C168 C167 1.321 . S
C168 C169 1.403 . S
C168 H194 0.934 . S
C169 C164 1.413 . S
C169 C168 1.403 . S
C169 H195 0.930 . S
C170 O184 1.275 . S
C170 O185 1.256 . S
C171 O186 1.259 . S
C171 O187 1.268 . S
C172 Ho161 2.811 . S
C172 C173 1.488 . S
C172 O188 1.215 . S
C172 O189 1.289 . S
C173 C172 1.488 . S
C173 C174 1.348 . S
C173 C178 1.413 . S
C174 C173 1.348 . S
C174 C175 1.442 . S
C174 H196 0.930 . S
C175 C174 1.442 . S
C175 C176 1.381 . S
C175 H197 0.931 . S
C176 C175 1.381 . S
C176 C177 1.321 . S
C177 C176 1.321 . S
C177 C178 1.403 . S
C177 H198 0.934 . S
C178 C173 1.413 . S
C178 C177 1.403 . S
C178 H199 0.930 . S
C179 O190 1.275 . S
C179 O191 1.256 . S
O180 Ho160 2.322 . S
O180 C162 1.259 . S
O181 Ho161 2.346 . S
O181 C162 1.268 . S
O182 Ho160 2.378 . S
O182 C163 1.215 . S
O183 Ho160 2.524 . S
O183 C163 1.289 . S
O184 Ho160 2.381 . S
O184 C170 1.275 . S
O185 Ho160 2.669 . S
O185 Ho161 2.305 . S
O185 C170 1.256 . S
O186 Ho161 2.322 . S
O186 C171 1.259 . S
O187 Ho160 2.346 . S
O187 C171 1.268 . S
O188 Ho161 2.378 . S
O188 C172 1.215 . S
O189 Ho161 2.524 . S
O189 C172 1.289 . S
O190 Ho161 2.381 . S
O190 C179 1.275 . S
O191 Ho160 2.305 . S
O191 Ho161 2.669 . S
O191 C179 1.256 . S
H192 C165 0.930 . S
H193 C166 0.931 . S
H194 C168 0.934 . S
H195 C169 0.930 . S
H196 C174 0.930 . S
H197 C175 0.931 . S
H198 C177 0.934 . S
H199 C178 0.930 . S
Ho200 C203 2.811 1_556 S
Ho200 O220 2.322 . S
Ho200 O222 2.378 . S
Ho200 O223 2.524 . S
Ho200 O224 2.381 . S
Ho200 O225 2.669 . S
Ho200 O227 2.346 . S
Ho200 O231 2.305 . S
Ho201 C212 2.811 . S
Ho201 O221 2.346 . S
Ho201 O225 2.305 . S
Ho201 O226 2.322 . S
Ho201 O228 2.378 . S
Ho201 O229 2.524 . S
Ho201 O230 2.381 . S
Ho201 O231 2.669 . S
C202 O220 1.259 . S
C202 O221 1.268 . S
C203 Ho200 2.811 1_554 S
C203 C204 1.488 . S
C203 O222 1.215 1_554 S
C203 O223 1.289 1_554 S
C204 C203 1.488 . S
C204 C205 1.348 . S
C204 C209 1.413 . S
C205 C204 1.348 . S
C205 C206 1.442 . S
C205 H232 0.930 . S
C206 C205 1.442 . S
C206 C207 1.381 . S
C206 H233 0.931 . S
C207 C206 1.381 . S
C207 C208 1.321 . S
C208 C207 1.321 . S
C208 C209 1.403 . S
C208 H234 0.934 . S
C209 C204 1.413 . S
C209 C208 1.403 . S
C209 H235 0.930 . S
C210 O224 1.275 . S
C210 O225 1.256 . S
C211 O226 1.259 . S
C211 O227 1.268 . S
C212 Ho201 2.811 . S
C212 C213 1.488 . S
C212 O228 1.215 . S
C212 O229 1.289 . S
C213 C212 1.488 . S
C213 C214 1.348 . S
C213 C218 1.413 . S
C214 C213 1.348 . S
C214 C215 1.442 . S
C214 H236 0.930 . S
C215 C214 1.442 . S
C215 C216 1.381 . S
C215 H237 0.931 . S
C216 C215 1.381 . S
C216 C217 1.321 . S
C217 C216 1.321 . S
C217 C218 1.403 . S
C217 H238 0.934 . S
C218 C213 1.413 . S
C218 C217 1.403 . S
C218 H239 0.930 . S
C219 O230 1.275 . S
C219 O231 1.256 . S
O220 Ho200 2.322 . S
O220 C202 1.259 . S
O221 Ho201 2.346 . S
O221 C202 1.268 . S
O222 Ho200 2.378 . S
O222 C203 1.215 1_556 S
O223 Ho200 2.524 . S
O223 C203 1.289 1_556 S
O224 Ho200 2.381 . S
O224 C210 1.275 . S
O225 Ho200 2.669 . S
O225 Ho201 2.305 . S
O225 C210 1.256 . S
O226 Ho201 2.322 . S
O226 C211 1.259 . S
O227 Ho200 2.346 . S
O227 C211 1.268 . S
O228 Ho201 2.378 . S
O228 C212 1.215 . S
O229 Ho201 2.524 . S
O229 C212 1.289 . S
O230 Ho201 2.381 . S
O230 C219 1.275 . S
O231 Ho200 2.305 . S
O231 Ho201 2.669 . S
O231 C219 1.256 . S
H232 C205 0.930 . S
H233 C206 0.931 . S
H234 C208 0.934 . S
H235 C209 0.930 . S
H236 C214 0.930 . S
H237 C215 0.931 . S
H238 C217 0.934 . S
H239 C218 0.930 . S
Ho240 C243 2.811 . S
Ho240 O260 2.322 . S
Ho240 O262 2.378 . S
Ho240 O263 2.524 . S
Ho240 O264 2.381 . S
Ho240 O265 2.669 . S
Ho240 O267 2.346 . S
Ho240 O271 2.305 . S
Ho241 C252 2.811 . S
Ho241 O261 2.346 . S
Ho241 O265 2.305 . S
Ho241 O266 2.322 . S
Ho241 O268 2.378 . S
Ho241 O269 2.524 . S
Ho241 O270 2.381 . S
Ho241 O271 2.669 . S
C242 O260 1.259 . S
C242 O261 1.268 . S
C243 Ho240 2.811 . S
C243 C244 1.488 . S
C243 O262 1.215 . S
C243 O263 1.289 . S
C244 C243 1.488 . S
C244 C245 1.348 . S
C244 C249 1.413 . S
C245 C244 1.348 . S
C245 C246 1.442 . S
C245 H272 0.930 . S
C246 C245 1.442 . S
C246 C247 1.381 . S
C246 H273 0.931 . S
C247 C246 1.381 . S
C247 C248 1.321 . S
C248 C247 1.321 . S
C248 C249 1.403 . S
C248 H274 0.934 . S
C249 C244 1.413 . S
C249 C248 1.403 . S
C249 H275 0.930 . S
C250 O264 1.275 . S
C250 O265 1.256 . S
C251 O266 1.259 . S
C251 O267 1.268 . S
C252 Ho241 2.811 . S
C252 C253 1.488 . S
C252 O268 1.215 . S
C252 O269 1.289 . S
C253 C252 1.488 . S
C253 C254 1.348 . S
C253 C258 1.413 . S
C254 C253 1.348 . S
C254 C255 1.442 . S
C254 H276 0.930 . S
C255 C254 1.442 . S
C255 C256 1.381 . S
C255 H277 0.931 . S
C256 C255 1.381 . S
C256 C257 1.321 . S
C257 C256 1.321 . S
C257 C258 1.403 . S
C257 H278 0.934 . S
C258 C253 1.413 . S
C258 C257 1.403 . S
C258 H279 0.930 . S
C259 O270 1.275 . S
C259 O271 1.256 . S
O260 Ho240 2.322 . S
O260 C242 1.259 . S
O261 Ho241 2.346 . S
O261 C242 1.268 . S
O262 Ho240 2.378 . S
O262 C243 1.215 . S
O263 Ho240 2.524 . S
O263 C243 1.289 . S
O264 Ho240 2.381 . S
O264 C250 1.275 . S
O265 Ho240 2.669 . S
O265 Ho241 2.305 . S
O265 C250 1.256 . S
O266 Ho241 2.322 . S
O266 C251 1.259 . S
O267 Ho240 2.346 . S
O267 C251 1.268 . S
O268 Ho241 2.378 . S
O268 C252 1.215 . S
O269 Ho241 2.524 . S
O269 C252 1.289 . S
O270 Ho241 2.381 . S
O270 C259 1.275 . S
O271 Ho240 2.305 . S
O271 Ho241 2.669 . S
O271 C259 1.256 . S
H272 C245 0.930 . S
H273 C246 0.931 . S
H274 C248 0.934 . S
H275 C249 0.930 . S
H276 C254 0.930 . S
H277 C255 0.931 . S
H278 C257 0.934 . S
H279 C258 0.930 . S
Ho280 C283 2.811 . S
Ho280 O300 2.322 . S
Ho280 O302 2.378 . S
Ho280 O303 2.524 . S
Ho280 O304 2.381 . S
Ho280 O305 2.669 . S
Ho280 O307 2.346 . S
Ho280 O311 2.305 . S
Ho281 C292 2.811 . S
Ho281 O301 2.346 . S
Ho281 O305 2.305 . S
Ho281 O306 2.322 . S
Ho281 O308 2.378 . S
Ho281 O309 2.524 . S
Ho281 O310 2.381 . S
Ho281 O311 2.669 . S
C282 O300 1.259 . S
C282 O301 1.268 . S
C283 Ho280 2.811 . S
C283 C284 1.488 . S
C283 O302 1.215 . S
C283 O303 1.289 . S
C284 C283 1.488 . S
C284 C285 1.348 . S
C284 C289 1.413 . S
C285 C284 1.348 . S
C285 C286 1.442 . S
C285 H312 0.930 . S
C286 C285 1.442 . S
C286 C287 1.381 . S
C286 H313 0.931 . S
C287 C286 1.381 . S
C287 C288 1.321 . S
C288 C287 1.321 . S
C288 C289 1.403 . S
C288 H314 0.934 . S
C289 C284 1.413 . S
C289 C288 1.403 . S
C289 H315 0.930 . S
C290 O304 1.275 . S
C290 O305 1.256 . S
C291 O306 1.259 . S
C291 O307 1.268 . S
C292 Ho281 2.811 . S
C292 C293 1.488 . S
C292 O308 1.215 . S
C292 O309 1.289 . S
C293 C292 1.488 . S
C293 C294 1.348 . S
C293 C298 1.413 . S
C294 C293 1.348 . S
C294 C295 1.442 . S
C294 H316 0.930 . S
C295 C294 1.442 . S
C295 C296 1.381 . S
C295 H317 0.931 . S
C296 C295 1.381 . S
C296 C297 1.321 . S
C297 C296 1.321 . S
C297 C298 1.403 . S
C297 H318 0.934 . S
C298 C293 1.413 . S
C298 C297 1.403 . S
C298 H319 0.930 . S
C299 O310 1.275 . S
C299 O311 1.256 . S
O300 Ho280 2.322 . S
O300 C282 1.259 . S
O301 Ho281 2.346 . S
O301 C282 1.268 . S
O302 Ho280 2.378 . S
O302 C283 1.215 . S
O303 Ho280 2.524 . S
O303 C283 1.289 . S
O304 Ho280 2.381 . S
O304 C290 1.275 . S
O305 Ho280 2.669 . S
O305 Ho281 2.305 . S
O305 C290 1.256 . S
O306 Ho281 2.322 . S
O306 C291 1.259 . S
O307 Ho280 2.346 . S
O307 C291 1.268 . S
O308 Ho281 2.378 . S
O308 C292 1.215 . S
O309 Ho281 2.524 . S
O309 C292 1.289 . S
O310 Ho281 2.381 . S
O310 C299 1.275 . S
O311 Ho280 2.305 . S
O311 Ho281 2.669 . S
O311 C299 1.256 . S
H312 C285 0.930 . S
H313 C286 0.931 . S
H314 C288 0.934 . S
H315 C289 0.930 . S
H316 C294 0.930 . S
H317 C295 0.931 . S
H318 C297 0.934 . S
H319 C298 0.930 . S
Ho320 C323 2.811 1_554 S
Ho320 O340 2.322 . S
Ho320 O342 2.378 . S
Ho320 O343 2.524 . S
Ho320 O344 2.381 . S
Ho320 O345 2.669 . S
Ho320 O347 2.346 . S
Ho320 O351 2.305 . S
Ho321 C332 2.811 . S
Ho321 O341 2.346 . S
Ho321 O345 2.305 . S
Ho321 O346 2.322 . S
Ho321 O348 2.378 . S
Ho321 O349 2.524 . S
Ho321 O350 2.381 . S
Ho321 O351 2.669 . S
C322 O340 1.259 . S
C322 O341 1.268 . S
C323 Ho320 2.811 1_556 S
C323 C324 1.488 . S
C323 O342 1.215 1_556 S
C323 O343 1.289 1_556 S
C324 C323 1.488 . S
C324 C325 1.348 . S
C324 C329 1.413 . S
C325 C324 1.348 . S
C325 C326 1.442 . S
C325 H352 0.930 . S
C326 C325 1.442 . S
C326 C327 1.381 . S
C326 H353 0.931 . S
C327 C326 1.381 . S
C327 C328 1.321 . S
C328 C327 1.321 . S
C328 C329 1.403 . S
C328 H354 0.934 . S
C329 C324 1.413 . S
C329 C328 1.403 . S
C329 H355 0.930 . S
C330 O344 1.275 . S
C330 O345 1.256 . S
C331 O346 1.259 . S
C331 O347 1.268 . S
C332 Ho321 2.811 . S
C332 C333 1.488 . S
C332 O348 1.215 . S
C332 O349 1.289 . S
C333 C332 1.488 . S
C333 C334 1.348 . S
C333 C338 1.413 . S
C334 C333 1.348 . S
C334 C335 1.442 . S
C334 H356 0.930 . S
C335 C334 1.442 . S
C335 C336 1.381 . S
C335 H357 0.931 . S
C336 C335 1.381 . S
C336 C337 1.321 . S
C337 C336 1.321 . S
C337 C338 1.403 . S
C337 H358 0.934 . S
C338 C333 1.413 . S
C338 C337 1.403 . S
C338 H359 0.930 . S
C339 O350 1.275 . S
C339 O351 1.256 . S
O340 Ho320 2.322 . S
O340 C322 1.259 . S
O341 Ho321 2.346 . S
O341 C322 1.268 . S
O342 Ho320 2.378 . S
O342 C323 1.215 1_554 S
O343 Ho320 2.524 . S
O343 C323 1.289 1_554 S
O344 Ho320 2.381 . S
O344 C330 1.275 . S
O345 Ho320 2.669 . S
O345 Ho321 2.305 . S
O345 C330 1.256 . S
O346 Ho321 2.322 . S
O346 C331 1.259 . S
O347 Ho320 2.346 . S
O347 C331 1.268 . S
O348 Ho321 2.378 . S
O348 C332 1.215 . S
O349 Ho321 2.524 . S
O349 C332 1.289 . S
O350 Ho321 2.381 . S
O350 C339 1.275 . S
O351 Ho320 2.305 . S
O351 Ho321 2.669 . S
O351 C339 1.256 . S
H352 C325 0.930 . S
H353 C326 0.931 . S
H354 C328 0.934 . S
H355 C329 0.930 . S
H356 C334 0.930 . S
H357 C335 0.931 . S
H358 C337 0.934 . S
H359 C338 0.930 . S
Ho360 C363 2.811 . S
Ho360 O380 2.322 . S
Ho360 O382 2.378 . S
Ho360 O383 2.524 . S
Ho360 O384 2.381 . S
Ho360 O385 2.669 . S
Ho360 O387 2.346 . S
Ho360 O391 2.305 . S
Ho361 C372 2.811 . S
Ho361 O381 2.346 . S
Ho361 O385 2.305 . S
Ho361 O386 2.322 . S
Ho361 O388 2.378 . S
Ho361 O389 2.524 . S
Ho361 O390 2.381 . S
Ho361 O391 2.669 . S
C362 O380 1.259 . S
C362 O381 1.268 . S
C363 Ho360 2.811 . S
C363 C364 1.488 . S
C363 O382 1.215 . S
C363 O383 1.289 . S
C364 C363 1.488 . S
C364 C365 1.348 . S
C364 C369 1.413 . S
C365 C364 1.348 . S
C365 C366 1.442 . S
C365 H392 0.930 . S
C366 C365 1.442 . S
C366 C367 1.381 . S
C366 H393 0.931 . S
C367 C366 1.381 . S
C367 C368 1.321 . S
C368 C367 1.321 . S
C368 C369 1.403 . S
C368 H394 0.934 . S
C369 C364 1.413 . S
C369 C368 1.403 . S
C369 H395 0.930 . S
C370 O384 1.275 . S
C370 O385 1.256 . S
C371 O386 1.259 . S
C371 O387 1.268 . S
C372 Ho361 2.811 . S
C372 C373 1.488 . S
C372 O388 1.215 . S
C372 O389 1.289 . S
C373 C372 1.488 . S
C373 C374 1.348 . S
C373 C378 1.413 . S
C374 C373 1.348 . S
C374 C375 1.442 . S
C374 H396 0.930 . S
C375 C374 1.442 . S
C375 C376 1.381 . S
C375 H397 0.931 . S
C376 C375 1.381 . S
C376 C377 1.321 . S
C377 C376 1.321 . S
C377 C378 1.403 . S
C377 H398 0.934 . S
C378 C373 1.413 . S
C378 C377 1.403 . S
C378 H399 0.930 . S
C379 O390 1.275 . S
C379 O391 1.256 . S
O380 Ho360 2.322 . S
O380 C362 1.259 . S
O381 Ho361 2.346 . S
O381 C362 1.268 . S
O382 Ho360 2.378 . S
O382 C363 1.215 . S
O383 Ho360 2.524 . S
O383 C363 1.289 . S
O384 Ho360 2.381 . S
O384 C370 1.275 . S
O385 Ho360 2.669 . S
O385 Ho361 2.305 . S
O385 C370 1.256 . S
O386 Ho361 2.322 . S
O386 C371 1.259 . S
O387 Ho360 2.346 . S
O387 C371 1.268 . S
O388 Ho361 2.378 . S
O388 C372 1.215 . S
O389 Ho361 2.524 . S
O389 C372 1.289 . S
O390 Ho361 2.381 . S
O390 C379 1.275 . S
O391 Ho360 2.305 . S
O391 Ho361 2.669 . S
O391 C379 1.256 . S
H392 C365 0.930 . S
H393 C366 0.931 . S
H394 C368 0.934 . S
H395 C369 0.930 . S
H396 C374 0.930 . S
H397 C375 0.931 . S
H398 C377 0.934 . S
H399 C378 0.930 . S
Ho400 C403 2.811 . S
Ho400 O420 2.322 . S
Ho400 O422 2.378 . S
Ho400 O423 2.524 . S
Ho400 O424 2.381 . S
Ho400 O425 2.669 . S
Ho400 O427 2.346 . S
Ho400 O431 2.305 . S
Ho401 C412 2.811 . S
Ho401 O421 2.346 . S
Ho401 O425 2.305 . S
Ho401 O426 2.322 . S
Ho401 O428 2.378 . S
Ho401 O429 2.524 . S
Ho401 O430 2.381 . S
Ho401 O431 2.669 . S
C402 O420 1.259 . S
C402 O421 1.268 . S
C403 Ho400 2.811 . S
C403 C404 1.488 . S
C403 O422 1.215 . S
C403 O423 1.289 . S
C404 C403 1.488 . S
C404 C405 1.348 . S
C404 C409 1.413 . S
C405 C404 1.348 . S
C405 C406 1.442 . S
C405 H432 0.930 . S
C406 C405 1.442 . S
C406 C407 1.381 . S
C406 H433 0.931 . S
C407 C406 1.381 . S
C407 C408 1.321 . S
C408 C407 1.321 . S
C408 C409 1.403 . S
C408 H434 0.934 . S
C409 C404 1.413 . S
C409 C408 1.403 . S
C409 H435 0.930 . S
C410 O424 1.275 . S
C410 O425 1.256 . S
C411 O426 1.259 . S
C411 O427 1.268 . S
C412 Ho401 2.811 . S
C412 C413 1.488 . S
C412 O428 1.215 . S
C412 O429 1.289 . S
C413 C412 1.488 . S
C413 C414 1.348 . S
C413 C418 1.413 . S
C414 C413 1.348 . S
C414 C415 1.442 . S
C414 H436 0.930 . S
C415 C414 1.442 . S
C415 C416 1.381 . S
C415 H437 0.931 . S
C416 C415 1.381 . S
C416 C417 1.321 . S
C417 C416 1.321 . S
C417 C418 1.403 . S
C417 H438 0.934 . S
C418 C413 1.413 . S
C418 C417 1.403 . S
C418 H439 0.930 . S
C419 O430 1.275 . S
C419 O431 1.256 . S
O420 Ho400 2.322 . S
O420 C402 1.259 . S
O421 Ho401 2.346 . S
O421 C402 1.268 . S
O422 Ho400 2.378 . S
O422 C403 1.215 . S
O423 Ho400 2.524 . S
O423 C403 1.289 . S
O424 Ho400 2.381 . S
O424 C410 1.275 . S
O425 Ho400 2.669 . S
O425 Ho401 2.305 . S
O425 C410 1.256 . S
O426 Ho401 2.322 . S
O426 C411 1.259 . S
O427 Ho400 2.346 . S
O427 C411 1.268 . S
O428 Ho401 2.378 . S
O428 C412 1.215 . S
O429 Ho401 2.524 . S
O429 C412 1.289 . S
O430 Ho401 2.381 . S
O430 C419 1.275 . S
O431 Ho400 2.305 . S
O431 Ho401 2.669 . S
O431 C419 1.256 . S
H432 C405 0.930 . S
H433 C406 0.931 . S
H434 C408 0.934 . S
H435 C409 0.930 . S
H436 C414 0.930 . S
H437 C415 0.931 . S
H438 C417 0.934 . S
H439 C418 0.930 . S
Ho440 C443 2.811 1_554 S
Ho440 O460 2.322 . S
Ho440 O462 2.378 . S
Ho440 O463 2.524 . S
Ho440 O464 2.381 . S
Ho440 O465 2.669 . S
Ho440 O467 2.346 . S
Ho440 O471 2.305 . S
Ho441 C452 2.811 . S
Ho441 O461 2.346 . S
Ho441 O465 2.305 . S
Ho441 O466 2.322 . S
Ho441 O468 2.378 . S
Ho441 O469 2.524 . S
Ho441 O470 2.381 . S
Ho441 O471 2.669 . S
C442 O460 1.259 . S
C442 O461 1.268 . S
C443 Ho440 2.811 1_556 S
C443 C444 1.488 . S
C443 O462 1.215 1_556 S
C443 O463 1.289 1_556 S
C444 C443 1.488 . S
C444 C445 1.348 . S
C444 C449 1.413 . S
C445 C444 1.348 . S
C445 C446 1.442 . S
C445 H472 0.930 . S
C446 C445 1.442 . S
C446 C447 1.381 . S
C446 H473 0.931 . S
C447 C446 1.381 . S
C447 C448 1.321 . S
C448 C447 1.321 . S
C448 C449 1.403 . S
C448 H474 0.934 . S
C449 C444 1.413 . S
C449 C448 1.403 . S
C449 H475 0.930 . S
C450 O464 1.275 . S
C450 O465 1.256 . S
C451 O466 1.259 . S
C451 O467 1.268 . S
C452 Ho441 2.811 . S
C452 C453 1.488 . S
C452 O468 1.215 . S
C452 O469 1.289 . S
C453 C452 1.488 . S
C453 C454 1.348 . S
C453 C458 1.413 . S
C454 C453 1.348 . S
C454 C455 1.442 . S
C454 H476 0.930 . S
C455 C454 1.442 . S
C455 C456 1.381 . S
C455 H477 0.931 . S
C456 C455 1.381 . S
C456 C457 1.321 . S
C457 C456 1.321 . S
C457 C458 1.403 . S
C457 H478 0.934 . S
C458 C453 1.413 . S
C458 C457 1.403 . S
C458 H479 0.930 . S
C459 O470 1.275 . S
C459 O471 1.256 . S
O460 Ho440 2.322 . S
O460 C442 1.259 . S
O461 Ho441 2.346 . S
O461 C442 1.268 . S
O462 Ho440 2.378 . S
O462 C443 1.215 1_554 S
O463 Ho440 2.524 . S
O463 C443 1.289 1_554 S
O464 Ho440 2.381 . S
O464 C450 1.275 . S
O465 Ho440 2.669 . S
O465 Ho441 2.305 . S
O465 C450 1.256 . S
O466 Ho441 2.322 . S
O466 C451 1.259 . S
O467 Ho440 2.346 . S
O467 C451 1.268 . S
O468 Ho441 2.378 . S
O468 C452 1.215 . S
O469 Ho441 2.524 . S
O469 C452 1.289 . S
O470 Ho441 2.381 . S
O470 C459 1.275 . S
O471 Ho440 2.305 . S
O471 Ho441 2.669 . S
O471 C459 1.256 . S
H472 C445 0.930 . S
H473 C446 0.931 . S
H474 C448 0.934 . S
H475 C449 0.930 . S
H476 C454 0.930 . S
H477 C455 0.931 . S
H478 C457 0.934 . S
H479 C458 0.930 . S
H480 C492 0.930 . S
H481 C494 0.930 . S
H482 C495 0.930 . S
H483 C499 0.959 . S
H484 C499 0.959 . S
H485 C499 0.961 . S
H486 C500 0.960 . S
H487 C500 0.961 . S
H488 C500 0.959 . S
H489 C503 0.929 . S
H490 C504 0.931 . S
H491 C506 0.930 . S
C492 H480 0.930 . S
C492 C493 1.399 . S
C492 C497 1.399 . S
C493 C492 1.399 . S
C493 C494 1.376 . S
C494 H481 0.930 . S
C494 C493 1.376 . S
C494 C495 1.388 . S
C495 H482 0.930 . S
C495 C494 1.388 . S
C495 C496 1.390 . S
C496 C495 1.390 . S
C496 C497 1.394 . S
C496 C502 1.465 . S
C497 C492 1.399 . S
C497 C496 1.394 . S
C497 C498 1.516 . S
C498 C497 1.516 . S
C498 C499 1.502 . S
C498 C500 1.561 . S
C498 C501 1.526 . S
C499 H483 0.959 . S
C499 H484 0.959 . S
C499 H485 0.961 . S
C499 C498 1.502 . S
C500 H486 0.960 . S
C500 H487 0.961 . S
C500 H488 0.959 . S
C500 C498 1.561 . S
C501 C498 1.526 . S
C501 C502 1.396 . S
C501 C506 1.390 . S
C502 C496 1.465 . S
C502 C501 1.396 . S
C502 C503 1.399 . S
C503 H489 0.929 . S
C503 C502 1.399 . S
C503 C504 1.385 . S
C504 H490 0.931 . S
C504 C503 1.385 . S
C504 C505 1.389 . S
C505 C504 1.389 . S
C505 C506 1.387 . S
C506 H491 0.930 . S
C506 C501 1.390 . S
C506 C505 1.387 . S
H507 C519 0.930 . S
H508 C521 0.930 . S
H509 C522 0.930 . S
H510 C526 0.959 . S
H511 C526 0.959 . S
H512 C526 0.961 . S
H513 C527 0.960 . S
H514 C527 0.961 . S
H515 C527 0.959 . S
H516 C530 0.929 . S
H517 C531 0.931 . S
H518 C533 0.930 . S
C519 H507 0.930 . S
C519 C520 1.399 . S
C519 C524 1.399 . S
C520 C519 1.399 . S
C520 C521 1.376 . S
C521 H508 0.930 . S
C521 C520 1.376 . S
C521 C522 1.388 . S
C522 H509 0.930 . S
C522 C521 1.388 . S
C522 C523 1.390 . S
C523 C522 1.390 . S
C523 C524 1.394 . S
C523 C529 1.465 . S
C524 C519 1.399 . S
C524 C523 1.394 . S
C524 C525 1.516 . S
C525 C524 1.516 . S
C525 C526 1.502 . S
C525 C527 1.561 . S
C525 C528 1.526 . S
C526 H510 0.959 . S
C526 H511 0.959 . S
C526 H512 0.961 . S
C526 C525 1.502 . S
C527 H513 0.960 . S
C527 H514 0.961 . S
C527 H515 0.959 . S
C527 C525 1.561 . S
C528 C525 1.526 . S
C528 C529 1.396 . S
C528 C533 1.390 . S
C529 C523 1.465 . S
C529 C528 1.396 . S
C529 C530 1.399 . S
C530 H516 0.929 . S
C530 C529 1.399 . S
C530 C531 1.385 . S
C531 H517 0.931 . S
C531 C530 1.385 . S
C531 C532 1.389 . S
C532 C531 1.389 . S
C532 C533 1.387 . S
C533 H518 0.930 . S
C533 C528 1.390 . S
C533 C532 1.387 . S
H534 C546 0.930 . S
H535 C548 0.930 . S
H536 C549 0.930 . S
H537 C553 0.959 . S
H538 C553 0.959 . S
H539 C553 0.961 . S
H540 C554 0.960 . S
H541 C554 0.961 . S
H542 C554 0.959 . S
H543 C557 0.929 . S
H544 C558 0.931 . S
H545 C560 0.930 . S
C546 H534 0.930 . S
C546 C547 1.399 . S
C546 C551 1.399 . S
C547 C546 1.399 . S
C547 C548 1.376 . S
C548 H535 0.930 . S
C548 C547 1.376 . S
C548 C549 1.388 . S
C549 H536 0.930 . S
C549 C548 1.388 . S
C549 C550 1.390 . S
C550 C549 1.390 . S
C550 C551 1.394 . S
C550 C556 1.465 . S
C551 C546 1.399 . S
C551 C550 1.394 . S
C551 C552 1.516 . S
C552 C551 1.516 . S
C552 C553 1.502 . S
C552 C554 1.561 . S
C552 C555 1.526 . S
C553 H537 0.959 . S
C553 H538 0.959 . S
C553 H539 0.961 . S
C553 C552 1.502 . S
C554 H540 0.960 . S
C554 H541 0.961 . S
C554 H542 0.959 . S
C554 C552 1.561 . S
C555 C552 1.526 . S
C555 C556 1.396 . S
C555 C560 1.390 . S
C556 C550 1.465 . S
C556 C555 1.396 . S
C556 C557 1.399 . S
C557 H543 0.929 . S
C557 C556 1.399 . S
C557 C558 1.385 . S
C558 H544 0.931 . S
C558 C557 1.385 . S
C558 C559 1.389 . S
C559 C558 1.389 . S
C559 C560 1.387 . S
C560 H545 0.930 . S
C560 C555 1.390 . S
C560 C559 1.387 . S
H561 C573 0.930 . S
H562 C575 0.930 . S
H563 C576 0.930 . S
H564 C580 0.959 . S
H565 C580 0.959 . S
H566 C580 0.961 . S
H567 C581 0.960 . S
H568 C581 0.961 . S
H569 C581 0.959 . S
H570 C584 0.929 . S
H571 C585 0.931 . S
H572 C587 0.930 . S
C573 H561 0.930 . S
C573 C574 1.399 . S
C573 C578 1.399 . S
C574 C573 1.399 . S
C574 C575 1.376 . S
C575 H562 0.930 . S
C575 C574 1.376 . S
C575 C576 1.388 . S
C576 H563 0.930 . S
C576 C575 1.388 . S
C576 C577 1.390 . S
C577 C576 1.390 . S
C577 C578 1.394 . S
C577 C583 1.465 . S
C578 C573 1.399 . S
C578 C577 1.394 . S
C578 C579 1.516 . S
C579 C578 1.516 . S
C579 C580 1.502 . S
C579 C581 1.561 . S
C579 C582 1.526 . S
C580 H564 0.959 . S
C580 H565 0.959 . S
C580 H566 0.961 . S
C580 C579 1.502 . S
C581 H567 0.960 . S
C581 H568 0.961 . S
C581 H569 0.959 . S
C581 C579 1.561 . S
C582 C579 1.526 . S
C582 C583 1.396 . S
C582 C587 1.390 . S
C583 C577 1.465 . S
C583 C582 1.396 . S
C583 C584 1.399 . S
C584 H570 0.929 . S
C584 C583 1.399 . S
C584 C585 1.385 . S
C585 H571 0.931 . S
C585 C584 1.385 . S
C585 C586 1.389 . S
C586 C585 1.389 . S
C586 C587 1.387 . S
C587 H572 0.930 . S
C587 C582 1.390 . S
C587 C586 1.387 . S
H588 C600 0.930 . S
H589 C602 0.930 . S
H590 C603 0.930 . S
H591 C607 0.959 . S
H592 C607 0.959 . S
H593 C607 0.961 . S
H594 C608 0.960 . S
H595 C608 0.961 . S
H596 C608 0.959 . S
H597 C611 0.929 . S
H598 C612 0.931 . S
H599 C614 0.930 . S
C600 H588 0.930 . S
C600 C601 1.399 . S
C600 C605 1.399 . S
C601 C600 1.399 . S
C601 C602 1.376 . S
C602 H589 0.930 . S
C602 C601 1.376 . S
C602 C603 1.388 . S
C603 H590 0.930 . S
C603 C602 1.388 . S
C603 C604 1.390 . S
C604 C603 1.390 . S
C604 C605 1.394 . S
C604 C610 1.465 . S
C605 C600 1.399 . S
C605 C604 1.394 . S
C605 C606 1.516 . S
C606 C605 1.516 . S
C606 C607 1.502 . S
C606 C608 1.561 . S
C606 C609 1.526 . S
C607 H591 0.959 . S
C607 H592 0.959 . S
C607 H593 0.961 . S
C607 C606 1.502 . S
C608 H594 0.960 . S
C608 H595 0.961 . S
C608 H596 0.959 . S
C608 C606 1.561 . S
C609 C606 1.526 . S
C609 C610 1.396 . S
C609 C614 1.390 . S
C610 C604 1.465 . S
C610 C609 1.396 . S
C610 C611 1.399 . S
C611 H597 0.929 . S
C611 C610 1.399 . S
C611 C612 1.385 . S
C612 H598 0.931 . S
C612 C611 1.385 . S
C612 C613 1.389 . S
C613 C612 1.389 . S
C613 C614 1.387 . S
C614 H599 0.930 . S
C614 C609 1.390 . S
C614 C613 1.387 . S
H615 C627 0.930 . S
H616 C629 0.930 . S
H617 C630 0.930 . S
H618 C634 0.959 . S
H619 C634 0.959 . S
H620 C634 0.961 . S
H621 C635 0.960 . S
H622 C635 0.961 . S
H623 C635 0.959 . S
H624 C638 0.929 . S
H625 C639 0.931 . S
H626 C641 0.930 . S
C627 H615 0.930 . S
C627 C628 1.399 . S
C627 C632 1.399 . S
C628 C627 1.399 . S
C628 C629 1.376 . S
C629 H616 0.930 . S
C629 C628 1.376 . S
C629 C630 1.388 . S
C630 H617 0.930 . S
C630 C629 1.388 . S
C630 C631 1.390 . S
C631 C630 1.390 . S
C631 C632 1.394 . S
C631 C637 1.465 . S
C632 C627 1.399 . S
C632 C631 1.394 . S
C632 C633 1.516 . S
C633 C632 1.516 . S
C633 C634 1.502 . S
C633 C635 1.561 . S
C633 C636 1.526 . S
C634 H618 0.959 . S
C634 H619 0.959 . S
C634 H620 0.961 . S
C634 C633 1.502 . S
C635 H621 0.960 . S
C635 H622 0.961 . S
C635 H623 0.959 . S
C635 C633 1.561 . S
C636 C633 1.526 . S
C636 C637 1.396 . S
C636 C641 1.390 . S
C637 C631 1.465 . S
C637 C636 1.396 . S
C637 C638 1.399 . S
C638 H624 0.929 . S
C638 C637 1.399 . S
C638 C639 1.385 . S
C639 H625 0.931 . S
C639 C638 1.385 . S
C639 C640 1.389 . S
C640 C639 1.389 . S
C640 C641 1.387 . S
C641 H626 0.930 . S
C641 C636 1.390 . S
C641 C640 1.387 . S
H642 C654 0.930 . S
H643 C656 0.930 . S
H644 C657 0.939 . S
H645 C661 0.959 . S
H646 C661 0.959 . S
H647 C661 0.961 . S
H648 C662 0.960 1_556 S
H649 C662 0.961 . S
H650 C662 0.959 . S
H651 C665 0.929 . S
H652 C666 0.931 . S
H653 C668 0.930 . S
C654 H642 0.930 . S
C654 C655 1.399 . S
C654 C659 1.399 . S
C655 C654 1.399 . S
C655 C656 1.376 . S
C656 H643 0.930 . S
C656 C655 1.376 . S
C656 C657 1.388 . S
C657 H644 0.939 . S
C657 C656 1.388 . S
C657 C658 1.390 . S
C658 C657 1.390 . S
C658 C659 1.394 . S
C658 C664 1.465 1_556 S
C659 C654 1.399 . S
C659 C658 1.394 . S
C659 C660 1.516 . S
C660 C659 1.516 . S
C660 C661 1.502 . S
C660 C662 1.561 1_556 S
C660 C663 1.526 1_556 S
C661 H645 0.959 . S
C661 H646 0.959 . S
C661 H647 0.961 . S
C661 C660 1.502 . S
C662 H648 0.960 1_554 S
C662 H649 0.961 . S
C662 H650 0.959 . S
C662 C660 1.561 1_554 S
C663 C660 1.526 1_554 S
C663 C664 1.396 . S
C663 C668 1.390 . S
C664 C658 1.465 1_554 S
C664 C663 1.396 . S
C664 C665 1.399 . S
C665 H651 0.929 . S
C665 C664 1.399 . S
C665 C666 1.385 . S
C666 H652 0.931 . S
C666 C665 1.385 . S
C666 C667 1.389 . S
C667 C666 1.389 . S
C667 C668 1.387 . S
C668 H653 0.930 . S
C668 C663 1.390 . S
C668 C667 1.387 . S
H669 C681 0.930 . S
H670 C683 0.930 . S
H671 C684 0.930 . S
H672 C688 0.959 . S
H673 C688 0.959 . S
H674 C688 0.961 . S
H675 C689 0.960 . S
H676 C689 0.961 . S
H677 C689 0.959 . S
H678 C692 0.929 . S
H679 C693 0.931 . S
H680 C695 0.930 . S
C681 H669 0.930 . S
C681 C682 1.399 . S
C681 C686 1.399 . S
C682 C681 1.399 . S
C682 C683 1.376 . S
C683 H670 0.930 . S
C683 C682 1.376 . S
C683 C684 1.388 . S
C684 H671 0.930 . S
C684 C683 1.388 . S
C684 C685 1.390 . S
C685 C684 1.390 . S
C685 C686 1.394 . S
C685 C691 1.465 . S
C686 C681 1.399 . S
C686 C685 1.394 . S
C686 C687 1.516 . S
C687 C686 1.516 . S
C687 C688 1.502 . S
C687 C689 1.561 . S
C687 C690 1.526 . S
C688 H672 0.959 . S
C688 H673 0.959 . S
C688 H674 0.961 . S
C688 C687 1.502 . S
C689 H675 0.960 . S
C689 H676 0.961 . S
C689 H677 0.959 . S
C689 C687 1.561 . S
C690 C687 1.526 . S
C690 C691 1.396 . S
C690 C695 1.390 . S
C691 C685 1.465 . S
C691 C690 1.396 . S
C691 C692 1.399 . S
C692 H678 0.929 . S
C692 C691 1.399 . S
C692 C693 1.385 . S
C693 H679 0.931 . S
C693 C692 1.385 . S
C693 C694 1.389 . S
C694 C693 1.389 . S
C694 C695 1.387 . S
C695 H680 0.930 . S
C695 C690 1.390 . S
C695 C694 1.387 . S
H696 C708 0.930 . S
H697 C710 0.930 . S
H698 C711 0.930 . S
H699 C715 0.959 . S
H700 C715 0.959 . S
H701 C715 0.961 . S
H702 C716 0.960 . S
H703 C716 0.961 . S
H704 C716 0.959 . S
H705 C719 0.929 . S
H706 C720 0.931 . S
H707 C722 0.930 . S
C708 H696 0.930 . S
C708 C709 1.399 . S
C708 C713 1.399 . S
C709 C708 1.399 . S
C709 C710 1.376 . S
C710 H697 0.930 . S
C710 C709 1.376 . S
C710 C711 1.388 . S
C711 H698 0.930 . S
C711 C710 1.388 . S
C711 C712 1.390 . S
C712 C711 1.390 . S
C712 C713 1.394 . S
C712 C718 1.465 . S
C713 C708 1.399 . S
C713 C712 1.394 . S
C713 C714 1.516 . S
C714 C713 1.516 . S
C714 C715 1.502 . S
C714 C716 1.561 . S
C714 C717 1.526 . S
C715 H699 0.959 . S
C715 H700 0.959 . S
C715 H701 0.961 . S
C715 C714 1.502 . S
C716 H702 0.960 . S
C716 H703 0.961 . S
C716 H704 0.959 . S
C716 C714 1.561 . S
C717 C714 1.526 . S
C717 C718 1.396 . S
C717 C722 1.390 . S
C718 C712 1.465 . S
C718 C717 1.396 . S
C718 C719 1.399 . S
C719 H705 0.929 . S
C719 C718 1.399 . S
C719 C720 1.385 . S
C720 H706 0.931 . S
C720 C719 1.385 . S
C720 C721 1.389 . S
C721 C720 1.389 . S
C721 C722 1.387 . S
C722 H707 0.930 . S
C722 C717 1.390 . S
C722 C721 1.387 . S
H723 C735 0.930 . S
H724 C737 0.930 . S
H725 C738 0.946 . S
H726 C742 0.959 . S
H727 C742 0.959 . S
H728 C742 0.961 . S
H729 C743 0.960 . S
H730 C743 0.961 . S
H731 C743 0.959 . S
H732 C746 0.929 . S
H733 C747 0.931 . S
H734 C749 0.930 . S
C735 H723 0.930 . S
C735 C736 1.399 . S
C735 C740 1.399 . S
C736 C735 1.399 . S
C736 C737 1.376 . S
C737 H724 0.930 . S
C737 C736 1.376 . S
C737 C738 1.373 1_556 S
C738 H725 0.946 . S
C738 C737 1.373 1_554 S
C738 C739 1.389 1_554 S
C739 C738 1.389 1_556 S
C739 C740 1.394 . S
C739 C745 1.465 1_556 S
C740 C735 1.399 . S
C740 C739 1.394 . S
C740 C741 1.516 . S
C741 C740 1.516 . S
C741 C742 1.502 . S
C741 C743 1.561 . S
C741 C744 1.526 1_556 S
C742 H726 0.959 . S
C742 H727 0.959 . S
C742 H728 0.961 . S
C742 C741 1.502 . S
C743 H729 0.960 . S
C743 H730 0.961 . S
C743 H731 0.959 . S
C743 C741 1.561 . S
C744 C741 1.526 1_554 S
C744 C745 1.396 . S
C744 C749 1.390 . S
C745 C739 1.465 1_554 S
C745 C744 1.396 . S
C745 C746 1.399 . S
C746 H732 0.929 . S
C746 C745 1.399 . S
C746 C747 1.385 . S
C747 H733 0.931 . S
C747 C746 1.385 . S
C747 C748 1.389 . S
C748 C747 1.389 . S
C748 C749 1.387 . S
C749 H734 0.930 . S
C749 C744 1.390 . S
C749 C748 1.387 . S
H750 C762 0.930 . S
H751 C764 0.930 . S
H752 C765 0.930 . S
H753 C769 0.959 . S
H754 C769 0.959 . S
H755 C769 0.961 . S
H756 C770 0.960 . S
H757 C770 0.961 . S
H758 C770 0.959 . S
H759 C773 0.929 . S
H760 C774 0.931 . S
H761 C776 0.930 . S
C762 H750 0.930 . S
C762 C763 1.399 . S
C762 C767 1.399 . S
C763 C762 1.399 . S
C763 C764 1.376 . S
C764 H751 0.930 . S
C764 C763 1.376 . S
C764 C765 1.388 . S
C765 H752 0.930 . S
C765 C764 1.388 . S
C765 C766 1.390 . S
C766 C765 1.390 . S
C766 C767 1.394 . S
C766 C772 1.465 . S
C767 C762 1.399 . S
C767 C766 1.394 . S
C767 C768 1.516 . S
C768 C767 1.516 . S
C768 C769 1.502 . S
C768 C770 1.561 . S
C768 C771 1.526 . S
C769 H753 0.959 . S
C769 H754 0.959 . S
C769 H755 0.961 . S
C769 C768 1.502 . S
C770 H756 0.960 . S
C770 H757 0.961 . S
C770 H758 0.959 . S
C770 C768 1.561 . S
C771 C768 1.526 . S
C771 C772 1.396 . S
C771 C776 1.390 . S
C772 C766 1.465 . S
C772 C771 1.396 . S
C772 C773 1.399 . S
C773 H759 0.929 . S
C773 C772 1.399 . S
C773 C774 1.385 . S
C774 H760 0.931 . S
C774 C773 1.385 . S
C774 C775 1.389 . S
C775 C774 1.389 . S
C775 C776 1.387 . S
C776 H761 0.930 . S
C776 C771 1.390 . S
C776 C775 1.387 . S
H777 C789 0.930 . S
H778 C791 0.930 . S
H779 C792 0.930 . S
H780 C796 0.959 . S
H781 C796 0.959 . S
H782 C796 0.961 . S
H783 C797 0.960 . S
H784 C797 0.961 . S
H785 C797 0.959 . S
H786 C800 0.929 . S
H787 C801 0.931 . S
H788 C803 0.930 . S
C789 H777 0.930 . S
C789 C790 1.399 . S
C789 C794 1.399 . S
C790 C789 1.399 . S
C790 C791 1.376 . S
C791 H778 0.930 . S
C791 C790 1.376 . S
C791 C792 1.388 . S
C792 H779 0.930 . S
C792 C791 1.388 . S
C792 C793 1.390 . S
C793 C792 1.390 . S
C793 C794 1.394 . S
C793 C799 1.465 . S
C794 C789 1.399 . S
C794 C793 1.394 . S
C794 C795 1.516 . S
C795 C794 1.516 . S
C795 C796 1.502 . S
C795 C797 1.561 . S
C795 C798 1.526 . S
C796 H780 0.959 . S
C796 H781 0.959 . S
C796 H782 0.961 . S
C796 C795 1.502 . S
C797 H783 0.960 . S
C797 H784 0.961 . S
C797 H785 0.959 . S
C797 C795 1.561 . S
C798 C795 1.526 . S
C798 C799 1.396 . S
C798 C803 1.390 . S
C799 C793 1.465 . S
C799 C798 1.396 . S
C799 C800 1.399 . S
C800 H786 0.929 . S
C800 C799 1.399 . S
C800 C801 1.385 . S
C801 H787 0.931 . S
C801 C800 1.385 . S
C801 C802 1.389 . S
C802 C801 1.389 . S
C802 C803 1.387 . S
C803 H788 0.930 . S
C803 C798 1.390 . S
C803 C802 1.387 . S
H804 C816 0.930 1_545 S
H805 C818 0.930 . S
H806 C819 0.944 . S
H807 C823 0.959 . S
H808 C823 0.959 . S
H809 C823 0.961 . S
H810 C824 0.960 . S
H811 C824 0.961 . S
H812 C824 0.959 . S
H813 C827 0.929 . S
H814 C828 0.931 1_565 S
H815 C830 0.930 . S
C816 H804 0.930 1_565 S
C816 C817 1.399 . S
C816 C821 1.392 1_565 S
C817 C816 1.399 . S
C817 C818 1.376 . S
C818 H805 0.930 . S
C818 C817 1.376 . S
C818 C819 1.388 . S
C819 H806 0.944 . S
C819 C818 1.388 . S
C819 C820 1.390 . S
C820 C819 1.390 . S
C820 C821 1.384 1_565 S
C820 C826 1.465 1_556 S
C821 C816 1.392 1_545 S
C821 C820 1.384 1_545 S
C821 C822 1.533 . S
C822 C821 1.533 . S
C822 C823 1.502 . S
C822 C824 1.561 . S
C822 C825 1.526 1_556 S
C823 H807 0.959 . S
C823 H808 0.959 . S
C823 H809 0.961 . S
C823 C822 1.502 . S
C824 H810 0.960 . S
C824 H811 0.961 . S
C824 H812 0.959 . S
C824 C822 1.561 . S
C825 C822 1.526 1_554 S
C825 C826 1.396 1_545 S
C825 C830 1.390 . S
C826 C820 1.465 1_554 S
C826 C825 1.396 1_565 S
C826 C827 1.399 . S
C827 H813 0.929 . S
C827 C826 1.399 . S
C827 C828 1.385 1_565 S
C828 H814 0.931 1_545 S
C828 C827 1.385 1_545 S
C828 C829 1.389 . S
C829 C828 1.389 . S
C829 C830 1.387 . S
C830 H815 0.930 . S
C830 C825 1.390 . S
C830 C829 1.387 . S
H831 C843 0.930 . S
H832 C845 0.930 . S
H833 C846 0.930 . S
H834 C850 0.959 . S
H835 C850 0.959 . S
H836 C850 0.961 . S
H837 C851 0.960 . S
H838 C851 0.961 . S
H839 C851 0.959 . S
H840 C854 0.929 . S
H841 C855 0.931 . S
H842 C857 0.930 . S
C843 H831 0.930 . S
C843 C844 1.399 . S
C843 C848 1.399 . S
C844 C843 1.399 . S
C844 C845 1.376 . S
C845 H832 0.930 . S
C845 C844 1.376 . S
C845 C846 1.388 . S
C846 H833 0.930 . S
C846 C845 1.388 . S
C846 C847 1.390 . S
C847 C846 1.390 . S
C847 C848 1.394 . S
C847 C853 1.465 . S
C848 C843 1.399 . S
C848 C847 1.394 . S
C848 C849 1.516 . S
C849 C848 1.516 . S
C849 C850 1.502 . S
C849 C851 1.561 . S
C849 C852 1.526 . S
C850 H834 0.959 . S
C850 H835 0.959 . S
C850 H836 0.961 . S
C850 C849 1.502 . S
C851 H837 0.960 . S
C851 H838 0.961 . S
C851 H839 0.959 . S
C851 C849 1.561 . S
C852 C849 1.526 . S
C852 C853 1.396 . S
C852 C857 1.390 . S
C853 C847 1.465 . S
C853 C852 1.396 . S
C853 C854 1.399 . S
C854 H840 0.929 . S
C854 C853 1.399 . S
C854 C855 1.385 . S
C855 H841 0.931 . S
C855 C854 1.385 . S
C855 C856 1.389 . S
C856 C855 1.389 . S
C856 C857 1.387 . S
C857 H842 0.930 . S
C857 C852 1.390 . S
C857 C856 1.387 . S
H858 C870 0.930 . S
H859 C872 0.930 1_655 S
H860 C873 0.930 . S
H861 C877 0.959 . S
H862 C877 0.959 . S
H863 C877 0.961 . S
H864 C878 0.960 . S
H865 C878 0.961 . S
H866 C878 0.959 . S
H867 C881 0.929 . S
H868 C882 0.931 . S
H869 C884 0.930 1_455 S
C870 H858 0.930 . S
C870 C871 1.399 . S
C870 C875 1.399 . S
C871 C870 1.399 . S
C871 C872 1.376 . S
C872 H859 0.930 1_455 S
C872 C871 1.376 . S
C872 C873 1.388 1_455 S
C873 H860 0.930 . S
C873 C872 1.388 1_655 S
C873 C874 1.390 . S
C874 C873 1.390 . S
C874 C875 1.394 1_655 S
C874 C880 1.465 . S
C875 C870 1.399 . S
C875 C874 1.394 1_455 S
C875 C876 1.516 . S
C876 C875 1.516 . S
C876 C877 1.502 . S
C876 C878 1.561 . S
C876 C879 1.499 1_455 S
C877 H861 0.959 . S
C877 H862 0.959 . S
C877 H863 0.961 . S
C877 C876 1.502 . S
C878 H864 0.960 . S
C878 H865 0.961 . S
C878 H866 0.959 . S
C878 C876 1.561 . S
C879 C876 1.499 1_655 S
C879 C880 1.415 . S
C879 C884 1.400 . S
C880 C874 1.465 . S
C880 C879 1.415 . S
C880 C881 1.399 . S
C881 H867 0.929 . S
C881 C880 1.399 . S
C881 C882 1.385 . S
C882 H868 0.931 . S
C882 C881 1.385 . S
C882 C883 1.389 . S
C883 C882 1.389 . S
C883 C884 1.387 . S
C884 H869 0.930 1_655 S
C884 C879 1.400 . S
C884 C883 1.387 . S
H885 C897 0.930 . S
H886 C899 0.931 1_545 S
H887 C900 0.930 . S
H888 C904 0.959 . S
H889 C904 0.959 . S
H890 C904 0.961 . S
H891 C905 0.960 . S
H892 C905 0.961 . S
H893 C905 0.959 . S
H894 C908 0.929 . S
H895 C909 0.931 . S
H896 C911 0.930 1_565 S
C897 H885 0.930 . S
C897 C898 1.399 . S
C897 C902 1.399 . S
C898 C897 1.399 . S
C898 C899 1.376 . S
C899 H886 0.931 1_565 S
C899 C898 1.376 . S
C899 C900 1.388 1_565 S
C900 H887 0.930 . S
C900 C899 1.388 1_545 S
C900 C901 1.390 . S
C901 C900 1.390 . S
C901 C902 1.394 1_545 S
C901 C907 1.465 1_554 S
C902 C897 1.399 . S
C902 C901 1.394 1_565 S
C902 C903 1.516 1_554 S
C903 C902 1.516 1_556 S
C903 C904 1.502 . S
C903 C905 1.561 . S
C903 C906 1.530 1_565 S
C904 H888 0.959 . S
C904 H889 0.959 . S
C904 H890 0.961 . S
C904 C903 1.502 . S
C905 H891 0.960 . S
C905 H892 0.961 . S
C905 H893 0.959 . S
C905 C903 1.561 . S
C906 C903 1.530 1_545 S
C906 C907 1.393 . S
C906 C911 1.388 . S
C907 C901 1.465 1_556 S
C907 C906 1.393 . S
C907 C908 1.399 . S
C908 H894 0.929 . S
C908 C907 1.399 . S
C908 C909 1.385 . S
C909 H895 0.931 . S
C909 C908 1.385 . S
C909 C910 1.389 . S
C910 C909 1.389 . S
C910 C911 1.387 . S
C911 H896 0.930 1_545 S
C911 C906 1.388 . S
C911 C910 1.387 . S
H912 C924 0.930 . S
H913 C926 0.930 . S
H914 C927 0.930 . S
H915 C931 0.959 . S
H916 C931 0.959 . S
H917 C931 0.961 . S
H918 C932 0.960 . S
H919 C932 0.961 . S
H920 C932 0.959 . S
H921 C935 0.929 . S
H922 C936 0.931 . S
H923 C938 0.930 . S
C924 H912 0.930 . S
C924 C925 1.399 . S
C924 C929 1.399 . S
C925 C924 1.399 . S
C925 C926 1.376 . S
C926 H913 0.930 . S
C926 C925 1.376 . S
C926 C927 1.388 . S
C927 H914 0.930 . S
C927 C926 1.388 . S
C927 C928 1.390 . S
C928 C927 1.390 . S
C928 C929 1.394 . S
C928 C934 1.465 . S
C929 C924 1.399 . S
C929 C928 1.394 . S
C929 C930 1.516 . S
C930 C929 1.516 . S
C930 C931 1.502 . S
C930 C932 1.561 . S
C930 C933 1.526 . S
C931 H915 0.959 . S
C931 H916 0.959 . S
C931 H917 0.961 . S
C931 C930 1.502 . S
C932 H918 0.960 . S
C932 H919 0.961 . S
C932 H920 0.959 . S
C932 C930 1.561 . S
C933 C930 1.526 . S
C933 C934 1.396 . S
C933 C938 1.390 . S
C934 C928 1.465 . S
C934 C933 1.396 . S
C934 C935 1.399 . S
C935 H921 0.929 . S
C935 C934 1.399 . S
C935 C936 1.385 . S
C936 H922 0.931 . S
C936 C935 1.385 . S
C936 C937 1.389 . S
C937 C936 1.389 . S
C937 C938 1.387 . S
C938 H923 0.930 . S
C938 C933 1.390 . S
C938 C937 1.387 . S
H939 C951 0.930 . S
H940 C953 0.930 . S
H941 C954 0.930 . S
H942 C958 0.959 . S
H943 C958 0.959 . S
H944 C958 0.961 . S
H945 C959 0.960 . S
H946 C959 0.961 . S
H947 C959 0.959 . S
H948 C962 0.929 . S
H949 C963 0.931 . S
H950 C965 0.930 . S
C951 H939 0.930 . S
C951 C952 1.399 . S
C951 C956 1.399 . S
C952 C951 1.399 . S
C952 C953 1.376 . S
C953 H940 0.930 . S
C953 C952 1.376 . S
C953 C954 1.388 . S
C954 H941 0.930 . S
C954 C953 1.388 . S
C954 C955 1.390 . S
C955 C954 1.390 . S
C955 C956 1.394 . S
C955 C961 1.465 1_455 S
C956 C951 1.399 . S
C956 C955 1.394 . S
C956 C957 1.516 . S
C957 C956 1.516 . S
C957 C958 1.502 1_455 S
C957 C959 1.561 . S
C957 C960 1.526 1_455 S
C958 H942 0.959 . S
C958 H943 0.959 . S
C958 H944 0.961 . S
C958 C957 1.502 1_655 S
C959 H945 0.960 . S
C959 H946 0.961 . S
C959 H947 0.959 . S
C959 C957 1.561 . S
C960 C957 1.526 1_655 S
C960 C961 1.396 . S
C960 C965 1.390 . S
C961 C955 1.465 1_655 S
C961 C960 1.396 . S
C961 C962 1.399 . S
C962 H948 0.929 . S
C962 C961 1.399 . S
C962 C963 1.385 . S
C963 H949 0.931 . S
C963 C962 1.385 . S
C963 C964 1.389 . S
C964 C963 1.389 . S
C964 C965 1.387 . S
C965 H950 0.930 . S
C965 C960 1.390 . S
C965 C964 1.387 . S
H966 C978 0.930 . S
H967 C980 0.930 . S
H968 C981 0.912 1_565 S
H969 C985 0.959 . S
H970 C985 0.959 . S
H971 C985 0.961 . S
H972 C986 0.960 . S
H973 C986 0.961 . S
H974 C986 0.959 1_565 S
H975 C989 0.929 . S
H976 C990 0.931 . S
H977 C992 0.930 . S
C978 H966 0.930 . S
C978 C979 1.399 . S
C978 C983 1.399 . S
C979 C978 1.399 . S
C979 C980 1.376 . S
C980 H967 0.930 . S
C980 C979 1.376 . S
C980 C981 1.422 . S
C981 H968 0.912 1_545 S
C981 C980 1.422 . S
C981 C982 1.384 . S
C982 C981 1.384 . S
C982 C983 1.405 . S
C982 C988 1.445 1_545 S
C983 C978 1.399 . S
C983 C982 1.405 . S
C983 C984 1.516 . S
C984 C983 1.516 . S
C984 C985 1.502 . S
C984 C986 1.561 . S
C984 C987 1.526 1_545 S
C985 H969 0.959 . S
C985 H970 0.959 . S
C985 H971 0.961 . S
C985 C984 1.502 . S
C986 H972 0.960 . S
C986 H973 0.961 . S
C986 H974 0.959 1_545 S
C986 C984 1.561 . S
C987 C984 1.526 1_565 S
C987 C988 1.396 . S
C987 C992 1.390 . S
C988 C982 1.445 1_565 S
C988 C987 1.396 . S
C988 C989 1.399 . S
C989 H975 0.929 . S
C989 C988 1.399 . S
C989 C990 1.385 . S
C990 H976 0.931 . S
C990 C989 1.385 . S
C990 C991 1.389 . S
C991 C990 1.389 . S
C991 C992 1.387 . S
C992 H977 0.930 . S
C992 C987 1.390 . S
C992 C991 1.387 . S
H993 C1005 0.930 . S
H994 C1007 0.930 . S
H995 C1008 0.930 . S
H996 C1012 0.959 . S
H997 C1012 0.959 . S
H998 C1012 0.961 . S
H999 C1013 0.960 . S
H1000 C1013 0.961 . S
H1001 C1013 0.959 . S
H1002 C1016 0.929 . S
H1003 C1017 0.931 . S
H1004 C1019 0.930 . S
C1005 H993 0.930 . S
C1005 C1006 1.399 . S
C1005 C1010 1.399 . S
C1006 C1005 1.399 . S
C1006 C1007 1.376 . S
C1007 H994 0.930 . S
C1007 C1006 1.376 . S
C1007 C1008 1.388 . S
C1008 H995 0.930 . S
C1008 C1007 1.388 . S
C1008 C1009 1.390 . S
C1009 C1008 1.390 . S
C1009 C1010 1.394 . S
C1009 C1015 1.465 . S
C1010 C1005 1.399 . S
C1010 C1009 1.394 . S
C1010 C1011 1.516 . S
C1011 C1010 1.516 . S
C1011 C1012 1.502 . S
C1011 C1013 1.561 . S
C1011 C1014 1.526 . S
C1012 H996 0.959 . S
C1012 H997 0.959 . S
C1012 H998 0.961 . S
C1012 C1011 1.502 . S
C1013 H999 0.960 . S
C1013 H1000 0.961 . S
C1013 H1001 0.959 . S
C1013 C1011 1.561 . S
C1014 C1011 1.526 . S
C1014 C1015 1.396 . S
C1014 C1019 1.390 . S
C1015 C1009 1.465 . S
C1015 C1014 1.396 . S
C1015 C1016 1.399 . S
C1016 H1002 0.929 . S
C1016 C1015 1.399 . S
C1016 C1017 1.385 . S
C1017 H1003 0.931 . S
C1017 C1016 1.385 . S
C1017 C1018 1.389 . S
C1018 C1017 1.389 . S
C1018 C1019 1.387 . S
C1019 H1004 0.930 . S
C1019 C1014 1.390 . S
C1019 C1018 1.387 . S
H1020 C1032 0.930 . S
H1021 C1034 0.930 . S
H1022 C1035 0.947 . S
H1023 C1039 0.959 . S
H1024 C1039 0.959 . S
H1025 C1039 0.961 . S
H1026 C1040 0.960 1_654 S
H1027 C1040 0.961 1_554 S
H1028 C1040 0.959 . S
H1029 C1043 0.929 . S
H1030 C1044 0.931 . S
H1031 C1046 0.930 . S
C1032 H1020 0.930 . S
C1032 C1033 1.399 . S
C1032 C1037 1.399 . S
C1033 C1032 1.399 . S
C1033 C1034 1.376 . S
C1034 H1021 0.930 . S
C1034 C1033 1.376 . S
C1034 C1035 1.388 . S
C1035 H1022 0.947 . S
C1035 C1034 1.388 . S
C1035 C1036 1.390 . S
C1036 C1035 1.390 . S
C1036 C1037 1.394 . S
C1036 C1042 1.465 1_655 S
C1037 C1032 1.399 . S
C1037 C1036 1.394 . S
C1037 C1038 1.516 . S
C1038 C1037 1.516 . S
C1038 C1039 1.502 . S
C1038 C1040 1.561 1_655 S
C1038 C1041 1.526 1_655 S
C1039 H1023 0.959 . S
C1039 H1024 0.959 . S
C1039 H1025 0.961 . S
C1039 C1038 1.502 . S
C1040 H1026 0.960 1_456 S
C1040 H1027 0.961 1_556 S
C1040 H1028 0.959 . S
C1040 C1038 1.561 1_455 S
C1041 C1038 1.526 1_455 S
C1041 C1042 1.396 . S
C1041 C1046 1.390 . S
C1042 C1036 1.465 1_455 S
C1042 C1041 1.396 . S
C1042 C1043 1.399 . S
C1043 H1029 0.929 . S
C1043 C1042 1.399 . S
C1043 C1044 1.385 . S
C1044 H1030 0.931 . S
C1044 C1043 1.385 . S
C1044 C1045 1.389 . S
C1045 C1044 1.389 . S
C1045 C1046 1.387 . S
C1046 H1031 0.930 . S
C1046 C1041 1.390 . S
C1046 C1045 1.387 . S
H1047 C1059 0.930 . S
H1048 C1061 0.930 . S
H1049 C1062 0.930 1_655 S
H1050 C1066 0.959 . S
H1051 C1066 0.959 . S
H1052 C1066 0.961 . S
H1053 C1067 0.960 1_455 S
H1054 C1067 0.961 . S
H1055 C1067 0.959 . S
H1056 C1070 0.929 . S
H1057 C1071 0.931 . S
H1058 C1073 0.930 . S
C1059 H1047 0.930 . S
C1059 C1060 1.399 . S
C1059 C1064 1.399 . S
C1060 C1059 1.399 . S
C1060 C1061 1.376 . S
C1061 H1048 0.930 . S
C1061 C1060 1.376 . S
C1061 C1062 1.388 . S
C1062 H1049 0.930 1_455 S
C1062 C1061 1.388 . S
C1062 C1063 1.390 . S
C1063 C1062 1.390 . S
C1063 C1064 1.394 . S
C1063 C1069 1.465 1_455 S
C1064 C1059 1.399 . S
C1064 C1063 1.394 . S
C1064 C1065 1.516 . S
C1065 C1064 1.516 . S
C1065 C1066 1.502 . S
C1065 C1067 1.561 1_455 S
C1065 C1068 1.526 1_455 S
C1066 H1050 0.959 . S
C1066 H1051 0.959 . S
C1066 H1052 0.961 . S
C1066 C1065 1.502 . S
C1067 H1053 0.960 1_655 S
C1067 H1054 0.961 . S
C1067 H1055 0.959 . S
C1067 C1065 1.561 1_655 S
C1068 C1065 1.526 1_655 S
C1068 C1069 1.396 . S
C1068 C1073 1.390 . S
C1069 C1063 1.465 1_655 S
C1069 C1068 1.396 . S
C1069 C1070 1.399 . S
C1070 H1056 0.929 . S
C1070 C1069 1.399 . S
C1070 C1071 1.385 . S
C1071 H1057 0.931 . S
C1071 C1070 1.385 . S
C1071 C1072 1.389 . S
C1072 C1071 1.389 . S
C1072 C1073 1.387 . S
C1073 H1058 0.930 . S
C1073 C1068 1.390 . S
C1073 C1072 1.387 . S
H1074 C1086 0.930 . S
H1075 C1088 0.930 . S
H1076 C1089 0.919 1_545 S
H1077 C1093 0.959 . S
H1078 C1093 0.959 . S
H1079 C1093 0.961 . S
H1080 C1094 0.960 . S
H1081 C1094 0.961 . S
H1082 C1094 0.959 . S
H1083 C1097 0.929 . S
H1084 C1098 0.931 . S
H1085 C1100 0.930 . S
C1086 H1074 0.930 . S
C1086 C1087 1.399 . S
C1086 C1091 1.399 . S
C1087 C1086 1.399 . S
C1087 C1088 1.376 . S
C1088 H1075 0.930 . S
C1088 C1087 1.376 . S
C1088 C1089 1.393 . S
C1089 H1076 0.919 1_565 S
C1089 C1088 1.393 . S
C1089 C1090 1.396 . S
C1090 C1089 1.396 . S
C1090 C1091 1.394 . S
C1090 C1096 1.465 1_565 S
C1091 C1086 1.399 . S
C1091 C1090 1.394 . S
C1091 C1092 1.516 . S
C1092 C1091 1.516 . S
C1092 C1093 1.502 . S
C1092 C1094 1.561 . S
C1092 C1095 1.526 1_565 S
C1093 H1077 0.959 . S
C1093 H1078 0.959 . S
C1093 H1079 0.961 . S
C1093 C1092 1.502 . S
C1094 H1080 0.960 . S
C1094 H1081 0.961 . S
C1094 H1082 0.959 . S
C1094 C1092 1.561 . S
C1095 C1092 1.526 1_545 S
C1095 C1096 1.396 . S
C1095 C1100 1.390 . S
C1096 C1090 1.465 1_545 S
C1096 C1095 1.396 . S
C1096 C1097 1.399 . S
C1097 H1083 0.929 . S
C1097 C1096 1.399 . S
C1097 C1098 1.385 . S
C1098 H1084 0.931 . S
C1098 C1097 1.385 . S
C1098 C1099 1.389 . S
C1099 C1098 1.389 . S
C1099 C1100 1.387 . S
C1100 H1085 0.930 . S
C1100 C1095 1.390 . S
C1100 C1099 1.387 . S
H1101 C1113 0.930 . S
H1102 C1115 0.930 . S
H1103 C1116 0.930 . S
H1104 C1120 0.959 . S
H1105 C1120 0.959 . S
H1106 C1120 0.961 . S
H1107 C1121 0.960 . S
H1108 C1121 0.961 . S
H1109 C1121 0.959 . S
H1110 C1124 0.929 . S
H1111 C1125 0.931 . S
H1112 C1127 0.930 . S
C1113 H1101 0.930 . S
C1113 C1114 1.399 . S
C1113 C1118 1.399 . S
C1114 C1113 1.399 . S
C1114 C1115 1.376 . S
C1115 H1102 0.930 . S
C1115 C1114 1.376 . S
C1115 C1116 1.388 . S
C1116 H1103 0.930 . S
C1116 C1115 1.388 . S
C1116 C1117 1.390 . S
C1117 C1116 1.390 . S
C1117 C1118 1.394 . S
C1117 C1123 1.465 . S
C1118 C1113 1.399 . S
C1118 C1117 1.394 . S
C1118 C1119 1.516 . S
C1119 C1118 1.516 . S
C1119 C1120 1.502 . S
C1119 C1121 1.561 . S
C1119 C1122 1.526 . S
C1120 H1104 0.959 . S
C1120 H1105 0.959 . S
C1120 H1106 0.961 . S
C1120 C1119 1.502 . S
C1121 H1107 0.960 . S
C1121 H1108 0.961 . S
C1121 H1109 0.959 . S
C1121 C1119 1.561 . S
C1122 C1119 1.526 . S
C1122 C1123 1.396 . S
C1122 C1127 1.390 . S
C1123 C1117 1.465 . S
C1123 C1122 1.396 . S
C1123 C1124 1.399 . S
C1124 H1110 0.929 . S
C1124 C1123 1.399 . S
C1124 C1125 1.385 . S
C1125 H1111 0.931 . S
C1125 C1124 1.385 . S
C1125 C1126 1.389 . S
C1126 C1125 1.389 . S
C1126 C1127 1.387 . S
C1127 H1112 0.930 . S
C1127 C1122 1.390 . S
C1127 C1126 1.387 . S
H1128 C1140 0.930 . S
H1129 C1142 0.930 . S
H1130 C1143 0.930 . S
H1131 C1147 0.959 . S
H1132 C1147 0.959 1_545 S
H1133 C1147 0.961 . S
H1134 C1148 0.960 . S
H1135 C1148 0.961 . S
H1136 C1148 0.959 . S
H1137 C1151 0.929 . S
H1138 C1152 0.931 . S
H1139 C1154 0.930 . S
C1140 H1128 0.930 . S
C1140 C1141 1.399 . S
C1140 C1145 1.399 . S
C1141 C1140 1.399 . S
C1141 C1142 1.376 . S
C1142 H1129 0.930 . S
C1142 C1141 1.376 . S
C1142 C1143 1.388 . S
C1143 H1130 0.930 . S
C1143 C1142 1.388 . S
C1143 C1144 1.390 . S
C1144 C1143 1.390 . S
C1144 C1145 1.394 . S
C1144 C1150 1.465 1_565 S
C1145 C1140 1.399 . S
C1145 C1144 1.394 . S
C1145 C1146 1.516 1_565 S
C1146 C1145 1.516 1_545 S
C1146 C1147 1.502 1_545 S
C1146 C1148 1.561 . S
C1146 C1149 1.526 . S
C1147 H1131 0.959 . S
C1147 H1132 0.959 1_565 S
C1147 H1133 0.961 . S
C1147 C1146 1.502 1_565 S
C1148 H1134 0.960 . S
C1148 H1135 0.961 . S
C1148 H1136 0.959 . S
C1148 C1146 1.561 . S
C1149 C1146 1.526 . S
C1149 C1150 1.396 . S
C1149 C1154 1.390 . S
C1150 C1144 1.465 1_545 S
C1150 C1149 1.396 . S
C1150 C1151 1.399 . S
C1151 H1137 0.929 . S
C1151 C1150 1.399 . S
C1151 C1152 1.385 . S
C1152 H1138 0.931 . S
C1152 C1151 1.385 . S
C1152 C1153 1.389 . S
C1153 C1152 1.389 . S
C1153 C1154 1.387 . S
C1154 H1139 0.930 . S
C1154 C1149 1.390 . S
C1154 C1153 1.387 . S
H1155 C1167 0.930 . S
H1156 C1169 0.930 . S
H1157 C1170 0.930 . S
H1158 C1174 0.959 . S
H1159 C1174 0.959 . S
H1160 C1174 0.961 . S
H1161 C1175 0.960 . S
H1162 C1175 0.961 . S
H1163 C1175 0.959 . S
H1164 C1178 0.929 . S
H1165 C1179 0.931 . S
H1166 C1181 0.930 . S
C1167 H1155 0.930 . S
C1167 C1168 1.399 . S
C1167 C1172 1.399 . S
C1168 C1167 1.399 . S
C1168 C1169 1.376 . S
C1169 H1156 0.930 . S
C1169 C1168 1.376 . S
C1169 C1170 1.388 . S
C1170 H1157 0.930 . S
C1170 C1169 1.388 . S
C1170 C1171 1.390 . S
C1171 C1170 1.390 . S
C1171 C1172 1.394 . S
C1171 C1177 1.465 . S
C1172 C1167 1.399 . S
C1172 C1171 1.394 . S
C1172 C1173 1.516 . S
C1173 C1172 1.516 . S
C1173 C1174 1.502 . S
C1173 C1175 1.561 . S
C1173 C1176 1.526 . S
C1174 H1158 0.959 . S
C1174 H1159 0.959 . S
C1174 H1160 0.961 . S
C1174 C1173 1.502 . S
C1175 H1161 0.960 . S
C1175 H1162 0.961 . S
C1175 H1163 0.959 . S
C1175 C1173 1.561 . S
C1176 C1173 1.526 . S
C1176 C1177 1.396 . S
C1176 C1181 1.390 . S
C1177 C1171 1.465 . S
C1177 C1176 1.396 . S
C1177 C1178 1.399 . S
C1178 H1164 0.929 . S
C1178 C1177 1.399 . S
C1178 C1179 1.385 . S
C1179 H1165 0.931 . S
C1179 C1178 1.385 . S
C1179 C1180 1.389 . S
C1180 C1179 1.389 . S
C1180 C1181 1.387 . S
C1181 H1166 0.930 . S
C1181 C1176 1.390 . S
C1181 C1180 1.387 . S
H1182 C1194 0.930 . S
H1183 C1196 0.930 . S
H1184 C1197 0.930 1_455 S
H1185 C1201 0.959 . S
H1186 C1201 0.959 . S
H1187 C1201 0.961 . S
H1188 C1202 0.960 . S
H1189 C1202 0.961 . S
H1190 C1202 0.959 . S
H1191 C1205 0.929 . S
H1192 C1206 0.931 . S
H1193 C1208 0.930 . S
C1194 H1182 0.930 . S
C1194 C1195 1.399 . S
C1194 C1199 1.399 . S
C1195 C1194 1.399 . S
C1195 C1196 1.376 . S
C1196 H1183 0.930 . S
C1196 C1195 1.376 . S
C1196 C1197 1.388 . S
C1197 H1184 0.930 1_655 S
C1197 C1196 1.388 . S
C1197 C1198 1.390 . S
C1198 C1197 1.390 . S
C1198 C1199 1.394 . S
C1198 C1204 1.465 1_655 S
C1199 C1194 1.399 . S
C1199 C1198 1.394 . S
C1199 C1200 1.516 . S
C1200 C1199 1.516 . S
C1200 C1201 1.502 . S
C1200 C1202 1.561 . S
C1200 C1203 1.526 1_655 S
C1201 H1185 0.959 . S
C1201 H1186 0.959 . S
C1201 H1187 0.961 . S
C1201 C1200 1.502 . S
C1202 H1188 0.960 . S
C1202 H1189 0.961 . S
C1202 H1190 0.959 . S
C1202 C1200 1.561 . S
C1203 C1200 1.526 1_455 S
C1203 C1204 1.396 . S
C1203 C1208 1.390 . S
C1204 C1198 1.465 1_455 S
C1204 C1203 1.396 . S
C1204 C1205 1.399 . S
C1205 H1191 0.929 . S
C1205 C1204 1.399 . S
C1205 C1206 1.385 . S
C1206 H1192 0.931 . S
C1206 C1205 1.385 . S
C1206 C1207 1.389 . S
C1207 C1206 1.389 . S
C1207 C1208 1.387 . S
C1208 H1193 0.930 . S
C1208 C1203 1.390 . S
C1208 C1207 1.387 . S
H1209 C1221 0.930 . S
H1210 C1223 0.930 . S
H1211 C1224 0.930 1_565 S
H1212 C1228 0.959 . S
H1213 C1228 0.959 . S
H1214 C1228 0.961 . S
H1215 C1229 0.960 . S
H1216 C1229 0.961 . S
H1217 C1229 0.959 . S
H1218 C1232 0.929 . S
H1219 C1233 0.931 . S
H1220 C1235 0.930 . S
C1221 H1209 0.930 . S
C1221 C1222 1.399 . S
C1221 C1226 1.399 . S
C1222 C1221 1.399 . S
C1222 C1223 1.376 . S
C1223 H1210 0.930 . S
C1223 C1222 1.376 . S
C1223 C1224 1.388 . S
C1224 H1211 0.930 1_545 S
C1224 C1223 1.388 . S
C1224 C1225 1.390 . S
C1225 C1224 1.390 . S
C1225 C1226 1.394 . S
C1225 C1231 1.465 1_545 S
C1226 C1221 1.399 . S
C1226 C1225 1.394 . S
C1226 C1227 1.516 . S
C1227 C1226 1.516 . S
C1227 C1228 1.502 . S
C1227 C1229 1.561 . S
C1227 C1230 1.526 1_545 S
C1228 H1212 0.959 . S
C1228 H1213 0.959 . S
C1228 H1214 0.961 . S
C1228 C1227 1.502 . S
C1229 H1215 0.960 . S
C1229 H1216 0.961 . S
C1229 H1217 0.959 . S
C1229 C1227 1.561 . S
C1230 C1227 1.526 1_565 S
C1230 C1231 1.396 . S
C1230 C1235 1.390 . S
C1231 C1225 1.465 1_565 S
C1231 C1230 1.396 . S
C1231 C1232 1.399 . S
C1232 H1218 0.929 . S
C1232 C1231 1.399 . S
C1232 C1233 1.385 . S
C1233 H1219 0.931 . S
C1233 C1232 1.385 . S
C1233 C1234 1.389 . S
C1234 C1233 1.389 . S
C1234 C1235 1.387 . S
C1235 H1220 0.930 . S
C1235 C1230 1.390 . S
C1235 C1234 1.387 . S
H1236 C1248 0.930 . S
H1237 C1250 0.930 . S
H1238 C1251 0.930 . S
H1239 C1255 0.959 . S
H1240 C1255 0.959 . S
H1241 C1255 0.961 . S
H1242 C1256 0.960 . S
H1243 C1256 0.961 . S
H1244 C1256 0.959 . S
H1245 C1259 0.929 . S
H1246 C1260 0.931 . S
H1247 C1262 0.930 . S
C1248 H1236 0.930 . S
C1248 C1249 1.399 . S
C1248 C1253 1.399 . S
C1249 C1248 1.399 . S
C1249 C1250 1.376 . S
C1250 H1237 0.930 . S
C1250 C1249 1.376 . S
C1250 C1251 1.388 . S
C1251 H1238 0.930 . S
C1251 C1250 1.388 . S
C1251 C1252 1.390 . S
C1252 C1251 1.390 . S
C1252 C1253 1.394 . S
C1252 C1258 1.465 . S
C1253 C1248 1.399 . S
C1253 C1252 1.394 . S
C1253 C1254 1.516 . S
C1254 C1253 1.516 . S
C1254 C1255 1.502 . S
C1254 C1256 1.561 . S
C1254 C1257 1.526 . S
C1255 H1239 0.959 . S
C1255 H1240 0.959 . S
C1255 H1241 0.961 . S
C1255 C1254 1.502 . S
C1256 H1242 0.960 . S
C1256 H1243 0.961 . S
C1256 H1244 0.959 . S
C1256 C1254 1.561 . S
C1257 C1254 1.526 . S
C1257 C1258 1.396 . S
C1257 C1262 1.390 . S
C1258 C1252 1.465 . S
C1258 C1257 1.396 . S
C1258 C1259 1.399 . S
C1259 H1245 0.929 . S
C1259 C1258 1.399 . S
C1259 C1260 1.385 . S
C1260 H1246 0.931 . S
C1260 C1259 1.385 . S
C1260 C1261 1.389 . S
C1261 C1260 1.389 . S
C1261 C1262 1.387 . S
C1262 H1247 0.930 . S
C1262 C1257 1.390 . S
C1262 C1261 1.387 . S
H1263 C1275 0.930 . S
H1264 C1277 0.930 . S
H1265 C1278 0.930 . S
H1266 C1282 0.959 . S
H1267 C1282 0.959 . S
H1268 C1282 0.961 . S
H1269 C1283 0.960 1_455 S
H1270 C1283 0.961 . S
H1271 C1283 0.959 . S
H1272 C1286 0.929 . S
H1273 C1287 0.931 . S
H1274 C1289 0.930 . S
C1275 H1263 0.930 . S
C1275 C1276 1.399 . S
C1275 C1280 1.399 . S
C1276 C1275 1.399 . S
C1276 C1277 1.376 . S
C1277 H1264 0.930 . S
C1277 C1276 1.376 . S
C1277 C1278 1.388 . S
C1278 H1265 0.930 . S
C1278 C1277 1.388 . S
C1278 C1279 1.390 . S
C1279 C1278 1.390 . S
C1279 C1280 1.394 . S
C1279 C1285 1.465 1_455 S
C1280 C1275 1.399 . S
C1280 C1279 1.394 . S
C1280 C1281 1.516 . S
C1281 C1280 1.516 . S
C1281 C1282 1.502 . S
C1281 C1283 1.561 1_455 S
C1281 C1284 1.526 1_455 S
C1282 H1266 0.959 . S
C1282 H1267 0.959 . S
C1282 H1268 0.961 . S
C1282 C1281 1.502 . S
C1283 H1269 0.960 1_655 S
C1283 H1270 0.961 . S
C1283 H1271 0.959 . S
C1283 C1281 1.561 1_655 S
C1284 C1281 1.526 1_655 S
C1284 C1285 1.396 . S
C1284 C1289 1.390 . S
C1285 C1279 1.465 1_655 S
C1285 C1284 1.396 . S
C1285 C1286 1.399 . S
C1286 H1272 0.929 . S
C1286 C1285 1.399 . S
C1286 C1287 1.385 . S
C1287 H1273 0.931 . S
C1287 C1286 1.385 . S
C1287 C1288 1.389 . S
C1288 C1287 1.389 . S
C1288 C1289 1.387 . S
C1289 H1274 0.930 . S
C1289 C1284 1.390 . S
C1289 C1288 1.387 . S
H1290 C1302 0.930 . S
H1291 C1304 0.930 . S
H1292 C1305 0.930 . S
H1293 C1309 0.959 . S
H1294 C1309 0.959 . S
H1295 C1309 0.961 . S
H1296 C1310 0.960 . S
H1297 C1310 0.961 . S
H1298 C1310 0.959 . S
H1299 C1313 0.929 . S
H1300 C1314 0.931 . S
H1301 C1316 0.930 . S
C1302 H1290 0.930 . S
C1302 C1303 1.399 . S
C1302 C1307 1.399 . S
C1303 C1302 1.399 . S
C1303 C1304 1.376 . S
C1304 H1291 0.930 . S
C1304 C1303 1.376 . S
C1304 C1305 1.388 . S
C1305 H1292 0.930 . S
C1305 C1304 1.388 . S
C1305 C1306 1.390 . S
C1306 C1305 1.390 . S
C1306 C1307 1.394 . S
C1306 C1312 1.465 . S
C1307 C1302 1.399 . S
C1307 C1306 1.394 . S
C1307 C1308 1.516 . S
C1308 C1307 1.516 . S
C1308 C1309 1.502 . S
C1308 C1310 1.561 . S
C1308 C1311 1.526 . S
C1309 H1293 0.959 . S
C1309 H1294 0.959 . S
C1309 H1295 0.961 . S
C1309 C1308 1.502 . S
C1310 H1296 0.960 . S
C1310 H1297 0.961 . S
C1310 H1298 0.959 . S
C1310 C1308 1.561 . S
C1311 C1308 1.526 . S
C1311 C1312 1.396 . S
C1311 C1316 1.390 . S
C1312 C1306 1.465 . S
C1312 C1311 1.396 . S
C1312 C1313 1.399 . S
C1313 H1299 0.929 . S
C1313 C1312 1.399 . S
C1313 C1314 1.385 . S
C1314 H1300 0.931 . S
C1314 C1313 1.385 . S
C1314 C1315 1.389 . S
C1315 C1314 1.389 . S
C1315 C1316 1.387 . S
C1316 H1301 0.930 . S
C1316 C1311 1.390 . S
C1316 C1315 1.387 . S
H1317 C1329 0.930 . S
H1318 C1331 0.930 . S
H1319 C1332 0.930 . S
H1320 C1336 0.959 . S
H1321 C1336 0.959 . S
H1322 C1336 0.961 . S
H1323 C1337 0.960 . S
H1324 C1337 0.961 . S
H1325 C1337 0.959 . S
H1326 C1340 0.929 . S
H1327 C1341 0.931 . S
H1328 C1343 0.930 . S
C1329 H1317 0.930 . S
C1329 C1330 1.399 . S
C1329 C1334 1.399 . S
C1330 C1329 1.399 . S
C1330 C1331 1.376 . S
C1331 H1318 0.930 . S
C1331 C1330 1.376 . S
C1331 C1332 1.388 . S
C1332 H1319 0.930 . S
C1332 C1331 1.388 . S
C1332 C1333 1.390 . S
C1333 C1332 1.390 . S
C1333 C1334 1.394 . S
C1333 C1339 1.465 . S
C1334 C1329 1.399 . S
C1334 C1333 1.394 . S
C1334 C1335 1.516 . S
C1335 C1334 1.516 . S
C1335 C1336 1.502 . S
C1335 C1337 1.561 . S
C1335 C1338 1.526 . S
C1336 H1320 0.959 . S
C1336 H1321 0.959 . S
C1336 H1322 0.961 . S
C1336 C1335 1.502 . S
C1337 H1323 0.960 . S
C1337 H1324 0.961 . S
C1337 H1325 0.959 . S
C1337 C1335 1.561 . S
C1338 C1335 1.526 . S
C1338 C1339 1.396 . S
C1338 C1343 1.390 . S
C1339 C1333 1.465 . S
C1339 C1338 1.396 . S
C1339 C1340 1.399 . S
C1340 H1326 0.929 . S
C1340 C1339 1.399 . S
C1340 C1341 1.385 . S
C1341 H1327 0.931 . S
C1341 C1340 1.385 . S
C1341 C1342 1.389 . S
C1342 C1341 1.389 . S
C1342 C1343 1.387 . S
C1343 H1328 0.930 . S
C1343 C1338 1.390 . S
C1343 C1342 1.387 . S
H1344 C1356 0.930 . S
H1345 C1358 0.930 . S
H1346 C1359 0.930 . S
H1347 C1363 0.959 . S
H1348 C1363 0.959 . S
H1349 C1363 0.961 . S
H1350 C1364 0.960 . S
H1351 C1364 0.961 . S
H1352 C1364 0.959 . S
H1353 C1367 0.929 . S
H1354 C1368 0.931 . S
H1355 C1370 0.930 . S
C1356 H1344 0.930 . S
C1356 C1357 1.399 . S
C1356 C1361 1.399 . S
C1357 C1356 1.399 . S
C1357 C1358 1.376 . S
C1358 H1345 0.930 . S
C1358 C1357 1.376 . S
C1358 C1359 1.388 . S
C1359 H1346 0.930 . S
C1359 C1358 1.388 . S
C1359 C1360 1.390 . S
C1360 C1359 1.390 . S
C1360 C1361 1.394 . S
C1360 C1366 1.465 . S
C1361 C1356 1.399 . S
C1361 C1360 1.394 . S
C1361 C1362 1.516 . S
C1362 C1361 1.516 . S
C1362 C1363 1.502 . S
C1362 C1364 1.561 . S
C1362 C1365 1.526 . S
C1363 H1347 0.959 . S
C1363 H1348 0.959 . S
C1363 H1349 0.961 . S
C1363 C1362 1.502 . S
C1364 H1350 0.960 . S
C1364 H1351 0.961 . S
C1364 H1352 0.959 . S
C1364 C1362 1.561 . S
C1365 C1362 1.526 . S
C1365 C1366 1.396 . S
C1365 C1370 1.390 . S
C1366 C1360 1.465 . S
C1366 C1365 1.396 . S
C1366 C1367 1.399 . S
C1367 H1353 0.929 . S
C1367 C1366 1.399 . S
C1367 C1368 1.385 . S
C1368 H1354 0.931 . S
C1368 C1367 1.385 . S
C1368 C1369 1.389 . S
C1369 C1368 1.389 . S
C1369 C1370 1.387 . S
C1370 H1355 0.930 . S
C1370 C1365 1.390 . S
C1370 C1369 1.387 . S
H1371 C1383 0.930 . S
H1372 C1385 0.930 . S
H1373 C1386 0.930 . S
H1374 C1390 0.959 . S
H1375 C1390 0.959 . S
H1376 C1390 0.961 . S
H1377 C1391 0.960 . S
H1378 C1391 0.961 . S
H1379 C1391 0.959 . S
H1380 C1394 0.929 . S
H1381 C1395 0.931 . S
H1382 C1397 0.930 . S
C1383 H1371 0.930 . S
C1383 C1384 1.399 . S
C1383 C1388 1.399 . S
C1384 C1383 1.399 . S
C1384 C1385 1.376 . S
C1385 H1372 0.930 . S
C1385 C1384 1.376 . S
C1385 C1386 1.388 . S
C1386 H1373 0.930 . S
C1386 C1385 1.388 . S
C1386 C1387 1.390 . S
C1387 C1386 1.390 . S
C1387 C1388 1.394 . S
C1387 C1393 1.465 . S
C1388 C1383 1.399 . S
C1388 C1387 1.394 . S
C1388 C1389 1.516 . S
C1389 C1388 1.516 . S
C1389 C1390 1.502 . S
C1389 C1391 1.561 . S
C1389 C1392 1.526 . S
C1390 H1374 0.959 . S
C1390 H1375 0.959 . S
C1390 H1376 0.961 . S
C1390 C1389 1.502 . S
C1391 H1377 0.960 . S
C1391 H1378 0.961 . S
C1391 H1379 0.959 . S
C1391 C1389 1.561 . S
C1392 C1389 1.526 . S
C1392 C1393 1.396 . S
C1392 C1397 1.390 . S
C1393 C1387 1.465 . S
C1393 C1392 1.396 . S
C1393 C1394 1.399 . S
C1394 H1380 0.929 . S
C1394 C1393 1.399 . S
C1394 C1395 1.385 . S
C1395 H1381 0.931 . S
C1395 C1394 1.385 . S
C1395 C1396 1.389 . S
C1396 C1395 1.389 . S
C1396 C1397 1.387 . S
C1397 H1382 0.930 . S
C1397 C1392 1.390 . S
C1397 C1396 1.387 . S
H1398 C1410 0.930 . S
H1399 C1412 0.930 . S
H1400 C1413 0.930 . S
H1401 C1417 0.959 . S
H1402 C1417 0.959 . S
H1403 C1417 0.961 . S
H1404 C1418 0.960 . S
H1405 C1418 0.961 . S
H1406 C1418 0.959 . S
H1407 C1421 0.929 . S
H1408 C1422 0.931 . S
H1409 C1424 0.930 . S
C1410 H1398 0.930 . S
C1410 C1411 1.399 . S
C1410 C1415 1.399 . S
C1411 C1410 1.399 . S
C1411 C1412 1.376 . S
C1412 H1399 0.930 . S
C1412 C1411 1.376 . S
C1412 C1413 1.388 . S
C1413 H1400 0.930 . S
C1413 C1412 1.388 . S
C1413 C1414 1.390 . S
C1414 C1413 1.390 . S
C1414 C1415 1.394 . S
C1414 C1420 1.465 . S
C1415 C1410 1.399 . S
C1415 C1414 1.394 . S
C1415 C1416 1.516 . S
C1416 C1415 1.516 . S
C1416 C1417 1.502 . S
C1416 C1418 1.561 . S
C1416 C1419 1.526 . S
C1417 H1401 0.959 . S
C1417 H1402 0.959 . S
C1417 H1403 0.961 . S
C1417 C1416 1.502 . S
C1418 H1404 0.960 . S
C1418 H1405 0.961 . S
C1418 H1406 0.959 . S
C1418 C1416 1.561 . S
C1419 C1416 1.526 . S
C1419 C1420 1.396 . S
C1419 C1424 1.390 . S
C1420 C1414 1.465 . S
C1420 C1419 1.396 . S
C1420 C1421 1.399 . S
C1421 H1407 0.929 . S
C1421 C1420 1.399 . S
C1421 C1422 1.385 . S
C1422 H1408 0.931 . S
C1422 C1421 1.385 . S
C1422 C1423 1.389 . S
C1423 C1422 1.389 . S
C1423 C1424 1.387 . S
C1424 H1409 0.930 . S
C1424 C1419 1.390 . S
C1424 C1423 1.387 . S
H1425 C1437 0.930 . S
H1426 C1439 0.930 . S
H1427 C1440 0.930 . S
H1428 C1444 0.959 . S
H1429 C1444 0.959 . S
H1430 C1444 0.961 . S
H1431 C1445 0.960 . S
H1432 C1445 0.961 . S
H1433 C1445 0.959 . S
H1434 C1448 0.929 . S
H1435 C1449 0.931 . S
H1436 C1451 0.930 . S
C1437 H1425 0.930 . S
C1437 C1438 1.399 . S
C1437 C1442 1.399 . S
C1438 C1437 1.399 . S
C1438 C1439 1.376 . S
C1439 H1426 0.930 . S
C1439 C1438 1.376 . S
C1439 C1440 1.388 . S
C1440 H1427 0.930 . S
C1440 C1439 1.388 . S
C1440 C1441 1.390 . S
C1441 C1440 1.390 . S
C1441 C1442 1.394 . S
C1441 C1447 1.465 . S
C1442 C1437 1.399 . S
C1442 C1441 1.394 . S
C1442 C1443 1.516 . S
C1443 C1442 1.516 . S
C1443 C1444 1.502 . S
C1443 C1445 1.561 . S
C1443 C1446 1.526 . S
C1444 H1428 0.959 . S
C1444 H1429 0.959 . S
C1444 H1430 0.961 . S
C1444 C1443 1.502 . S
C1445 H1431 0.960 . S
C1445 H1432 0.961 . S
C1445 H1433 0.959 . S
C1445 C1443 1.561 . S
C1446 C1443 1.526 . S
C1446 C1447 1.396 . S
C1446 C1451 1.390 . S
C1447 C1441 1.465 . S
C1447 C1446 1.396 . S
C1447 C1448 1.399 . S
C1448 H1434 0.929 . S
C1448 C1447 1.399 . S
C1448 C1449 1.385 . S
C1449 H1435 0.931 . S
C1449 C1448 1.385 . S
C1449 C1450 1.389 . S
C1450 C1449 1.389 . S
C1450 C1451 1.387 . S
C1451 H1436 0.930 . S
C1451 C1446 1.390 . S
C1451 C1450 1.387 . S
C493 C10 1.061 . S
C505 C330 1.059 . S
C520 C50 1.128 . S
C532 C370 1.080 . S
C547 C90 1.106 . S
C559 C410 1.051 . S
C574 C450 1.114 . S
C586 C130 1.056 . S
C601 C170 1.122 . S
C613 C250 1.111 . S
C628 C290 1.050 . S
C640 C210 1.107 . S
C655 C416 1.561 . S
C667 C16 1.523 . S
C682 C456 1.491 . S
C694 C56 1.517 . S
C709 C96 1.506 . S
C721 C256 1.558 . S
C736 C296 1.538 . S
C748 C136 1.488 . S
C763 C336 1.511 . S
C775 C176 1.494 . S
C790 C216 1.547 . S
C802 C376 1.491 . S
C817 C291 4.285 . S
C829 C11 4.268 . S
C844 C331 4.267 . S
C856 C51 4.262 . S
C871 C371 4.262 . S
C883 C91 4.282 . S
C898 C131 4.259 . S
C910 C411 4.276 . S
C925 C171 4.270 . S
C937 C451 4.285 . S
C952 C211 4.267 . S
C964 C251 4.262 . S
C979 C19 0.605 . S
C991 C139 0.380 . S
C1006 C59 0.539 . S
C1018 C179 0.414 . S
C1033 C99 0.557 . S
C1045 C219 0.400 . S
C1060 C379 0.565 . S
C1072 C259 0.396 . S
C1087 C299 0.638 . S
C1099 C419 0.488 . S
C1114 C459 0.479 . S
C1126 C339 0.638 . S
C1141 C287 0.657 . S
C1153 C7 0.711 . S
C1168 C327 0.638 . S
C1180 C47 0.780 . S
C1195 C87 0.681 . S
C1207 C367 0.828 . S
C1222 C407 0.688 . S
C1234 C127 0.830 . S
C1249 C447 0.648 . S
C1261 C167 0.727 . S
C1276 C207 0.644 . S
C1288 C247 0.737 . S
C1303 C2 4.732 . S
C1315 C402 4.736 . S
C1330 C42 4.734 . S
C1342 C442 4.731 1_556 S
C1357 C82 4.729 1_554 S
C1369 C242 4.732 . S
C1384 C122 4.732 . S
C1396 C282 4.730 . S
C1411 C162 4.735 . S
C1423 C322 4.732 1_556 S
C1438 C362 4.735 . S
C1450 C202 4.731 1_554 S
