# Generated by pormake.
# Topology wjg, (4)-cn, num edge types: 1
# Building blocks:
#     Node 0, Type 0, BuildingBlock: NAHDIM_clean_sbu_0, # of connection points: 4
#     Node 1, Type 0, BuildingBlock: NAHDIM_clean_sbu_0, # of connection points: 4
#     Node 2, Type 0, BuildingBlock: NAHDIM_clean_sbu_0, # of connection points: 4
#     Node 3, Type 0, BuildingBlock: NAHDIM_clean_sbu_0, # of connection points: 4
#     Node 4, Type 0, BuildingBlock: NAHDIM_clean_sbu_0, # of connection points: 4
#     Node 5, Type 0, BuildingBlock: NAHDIM_clean_sbu_0, # of connection points: 4
#     Node 6, Type 0, BuildingBlock: NAHDIM_clean_sbu_0, # of connection points: 4
#     Node 7, Type 0, BuildingBlock: NAHDIM_clean_sbu_0, # of connection points: 4
#     Node 8, Type 0, BuildingBlock: NAHDIM_clean_sbu_0, # of connection points: 4
#     Node 9, Type 0, BuildingBlock: NAHDIM_clean_sbu_0, # of connection points: 4
#     Node 10, Type 0, BuildingBlock: NAHDIM_clean_sbu_0, # of connection points: 4
#     Node 11, Type 0, BuildingBlock: NAHDIM_clean_sbu_0, # of connection points: 4
#     Edge 12, Type (0, 0), BuildingBlock: CIFDUS_clean_linker_0, # of connection points: 2
#     Edge 13, Type (0, 0), BuildingBlock: CIFDUS_clean_linker_0, # of connection points: 2
#     Edge 14, Type (0, 0), BuildingBlock: CIFDUS_clean_linker_0, # of connection points: 2
#     Edge 15, Type (0, 0), BuildingBlock: CIFDUS_clean_linker_0, # of connection points: 2
#     Edge 16, Type (0, 0), BuildingBlock: CIFDUS_clean_linker_0, # of connection points: 2
#     Edge 17, Type (0, 0), BuildingBlock: CIFDUS_clean_linker_0, # of connection points: 2
#     Edge 18, Type (0, 0), BuildingBlock: CIFDUS_clean_linker_0, # of connection points: 2
#     Edge 19, Type (0, 0), BuildingBlock: CIFDUS_clean_linker_0, # of connection points: 2
#     Edge 20, Type (0, 0), BuildingBlock: CIFDUS_clean_linker_0, # of connection points: 2
#     Edge 21, Type (0, 0), BuildingBlock: CIFDUS_clean_linker_0, # of connection points: 2
#     Edge 22, Type (0, 0), BuildingBlock: CIFDUS_clean_linker_0, # of connection points: 2
#     Edge 23, Type (0, 0), BuildingBlock: CIFDUS_clean_linker_0, # of connection points: 2
#     Edge 24, Type (0, 0), BuildingBlock: CIFDUS_clean_linker_0, # of connection points: 2
#     Edge 25, Type (0, 0), BuildingBlock: CIFDUS_clean_linker_0, # of connection points: 2
#     Edge 26, Type (0, 0), BuildingBlock: CIFDUS_clean_linker_0, # of connection points: 2
#     Edge 27, Type (0, 0), BuildingBlock: CIFDUS_clean_linker_0, # of connection points: 2
#     Edge 28, Type (0, 0), BuildingBlock: CIFDUS_clean_linker_0, # of connection points: 2
#     Edge 29, Type (0, 0), BuildingBlock: CIFDUS_clean_linker_0, # of connection points: 2
#     Edge 30, Type (0, 0), BuildingBlock: CIFDUS_clean_linker_0, # of connection points: 2
#     Edge 31, Type (0, 0), BuildingBlock: CIFDUS_clean_linker_0, # of connection points: 2
#     Edge 32, Type (0, 0), BuildingBlock: CIFDUS_clean_linker_0, # of connection points: 2
#     Edge 33, Type (0, 0), BuildingBlock: CIFDUS_clean_linker_0, # of connection points: 2
#     Edge 34, Type (0, 0), BuildingBlock: CIFDUS_clean_linker_0, # of connection points: 2
#     Edge 35, Type (0, 0), BuildingBlock: CIFDUS_clean_linker_0, # of connection points: 2
# Relax obj value: 0.290
# Max RMSD: 0.131
# Mean RMSD: 0.129
data_MOF--net-wjg--node1-NAHDIM_clean_sbu_0--edge1-CIFDUS_clean_linker_0
_symmetry_space_group_name_H-M    P1
_symmetry_Int_Tables_number       1
_symmetry_cell_setting            triclinic
loop_
_symmetry_equiv_pos_as_xyz
'x, y, z'
_cell_length_a     30.039845
_cell_length_b     30.005452
_cell_length_c     33.859075
_cell_angle_alpha  89.957599
_cell_angle_beta   90.046062
_cell_angle_gamma 120.14317
loop_
_atom_site_label
_atom_site_type_symbol
_atom_site_fract_x
_atom_site_fract_y
_atom_site_fract_z
_atom_type_partial_charge
C0 C 0.10025 0.37716 0.239 0.0
O1 O 0.14555 0.397 0.22196 0.0
O2 O 0.21834 0.4674 0.29079 0.0
Zn3 Zn 0.16367 0.39563 0.30558 0.0
O4 O 0.1891 0.34642 0.29597 0.0
C5 C 0.20093 0.41103 0.38105 0.0
O6 O 0.24165 0.42567 0.35863 0.0
O7 O 0.09758 0.37333 0.27642 0.0
C8 C 0.16625 0.30285 0.27893 0.0
O9 O 0.12125 0.28668 0.26219 0.0
C10 C 0.25651 0.47641 0.26917 0.0
O11 O 0.25764 0.43772 0.25203 0.0
O12 O 0.15744 0.39551 0.36462 0.0
C13 C 0.69863 0.11862 0.56582 0.0
O14 O 0.7302 0.16814 0.56028 0.0
O15 O 0.71179 0.20414 0.64931 0.0
Zn16 Zn 0.73076 0.14927 0.6446 0.0
O17 O 0.80713 0.18608 0.63563 0.0
C18 C 0.68158 0.10696 0.71979 0.0
O19 O 0.64346 0.1116 0.70545 0.0
O20 O 0.69211 0.10045 0.60061 0.0
C21 C 0.83455 0.1697 0.65155 0.0
O22 O 0.81179 0.12513 0.66996 0.0
C23 C 0.73427 0.23543 0.67754 0.0
O24 O 0.76597 0.2287 0.70019 0.0
O25 O 0.7191 0.11573 0.69758 0.0
C26 C 0.57997 0.65908 0.94042 0.0
O27 O 0.56121 0.68884 0.93084 0.0
O28 O 0.49153 0.67377 0.0069 0.0
Zn29 Zn 0.56343 0.68708 0.0164 0.0
O30 O 0.61274 0.76356 0.01469 0.0
C31 C 0.52564 0.64957 0.09319 0.0
O32 O 0.48215 0.619 0.07494 0.0
O33 O 0.5841 0.651 0.97677 0.0
C34 C 0.60341 0.78993 0.03924 0.0
O35 O 0.56178 0.76645 0.0611 0.0
C36 C 0.48304 0.70713 0.99101 0.0
O37 O 0.52152 0.7487 0.97535 0.0
O38 O 0.56707 0.66974 0.07324 0.0
C39 C 0.89096 0.61088 0.23736 0.0
O40 O 0.84211 0.58601 0.22739 0.0
O41 O 0.78214 0.54558 0.3013 0.0
Zn42 Zn 0.84587 0.61426 0.31026 0.0
O43 O 0.82813 0.66982 0.3029 0.0
C44 C 0.8532 0.57571 0.38633 0.0
O45 O 0.84117 0.53364 0.36634 0.0
O46 O 0.90308 0.62611 0.27286 0.0
C47 C 0.79787 0.67085 0.3286 0.0
O48 O 0.78001 0.63573 0.35656 0.0
C49 C 0.74385 0.54027 0.28149 0.0
O50 O 0.74676 0.58042 0.26344 0.0
O51 O 0.86281 0.61641 0.36782 0.0
C52 C 0.3075 0.92057 0.57914 0.0
O53 O 0.28334 0.87254 0.56695 0.0
O54 O 0.2563 0.80595 0.63672 0.0
Zn55 Zn 0.25446 0.87051 0.64976 0.0
O56 O 0.18143 0.85453 0.64256 0.0
C57 C 0.27811 0.85435 0.72869 0.0
O58 O 0.2925 0.82518 0.71027 0.0
O59 O 0.30225 0.93009 0.6149 0.0
C60 C 0.15012 0.822 0.66729 0.0
O61 O 0.16749 0.80194 0.69332 0.0
C62 C 0.22314 0.76971 0.61527 0.0
O63 O 0.18797 0.77571 0.59689 0.0
O64 O 0.26773 0.88375 0.70847 0.0
C65 C 0.42421 0.33883 0.90248 0.0
O66 O 0.44878 0.31482 0.89191 0.0
O67 O 0.5 0.30601 0.96694 0.0
Zn68 Zn 0.4281 0.29385 0.97389 0.0
O69 O 0.3813 0.21993 0.95875 0.0
C70 C 0.45491 0.31749 0.05573 0.0
O71 O 0.5012 0.34801 0.04151 0.0
O72 O 0.41243 0.33804 0.93863 0.0
C73 C 0.34158 0.19072 0.97905 0.0
O74 O 0.32819 0.21046 0.00816 0.0
C75 C 0.50727 0.27371 0.98609 0.0
O76 O 0.46874 0.23719 0.00614 0.0
O77 O 0.41676 0.29816 0.03223 0.0
C78 C 0.56251 0.8917 0.40948 0.0
O79 O 0.53782 0.8421 0.41734 0.0
O80 O 0.50142 0.78749 0.34023 0.0
Zn81 Zn 0.57222 0.8503 0.33851 0.0
O82 O 0.62052 0.82652 0.35651 0.0
C83 C 0.54997 0.84996 0.25729 0.0
O84 O 0.50442 0.83878 0.27057 0.0
O85 O 0.5799 0.90645 0.3748 0.0
C86 C 0.66206 0.83935 0.33806 0.0
O87 O 0.67586 0.87242 0.30878 0.0
C88 C 0.49812 0.74954 0.32096 0.0
O89 O 0.53991 0.75397 0.30479 0.0
O90 O 0.5878 0.86937 0.28107 0.0
C91 C 0.69835 0.59467 0.75336 0.0
O92 O 0.72804 0.57704 0.76572 0.0
O93 O 0.73058 0.51585 0.69775 0.0
Zn94 Zn 0.74574 0.58796 0.68557 0.0
O95 O 0.81845 0.63766 0.70159 0.0
C96 C 0.77242 0.57715 0.61012 0.0
O97 O 0.79478 0.55869 0.6329 0.0
O98 O 0.69774 0.60351 0.71665 0.0
C99 C 0.84557 0.67909 0.6824 0.0
O100 O 0.82431 0.69133 0.65362 0.0
C101 C 0.75968 0.5073 0.71989 0.0
O102 O 0.79875 0.54611 0.73773 0.0
O103 O 0.74463 0.5932 0.62605 0.0
C104 C 0.13251 0.74495 0.09315 0.0
O105 O 0.18005 0.78004 0.10197 0.0
O106 O 0.23935 0.78313 0.02539 0.0
Zn107 Zn 0.17343 0.78374 0.01826 0.0
O108 O 0.18965 0.85655 0.02586 0.0
C109 C 0.16581 0.73907 0.94139 0.0
O110 O 0.17558 0.70704 0.96079 0.0
O111 O 0.11908 0.73737 0.05703 0.0
C112 C 0.21988 0.8878 2e-05 0.0
O113 O 0.23844 0.87059 0.97266 0.0
C114 C 0.24276 0.74378 0.03404 0.0
O115 O 0.20081 0.70023 0.04266 0.0
O116 O 0.15526 0.76891 0.96065 0.0
C117 C 0.41637 0.11243 0.39612 0.0
O118 O 0.43118 0.15979 0.40734 0.0
O119 O 0.49082 0.22483 0.33429 0.0
Zn120 Zn 0.42264 0.16101 0.32438 0.0
O121 O 0.36888 0.18012 0.33554 0.0
C122 C 0.46174 0.16606 0.24661 0.0
O123 O 0.50387 0.17627 0.26578 0.0
O124 O 0.41109 0.10209 0.35941 0.0
C125 C 0.32918 0.16388 0.31384 0.0
O126 O 0.32066 0.1298 0.28619 0.0
C127 C 0.49636 0.26339 0.31456 0.0
O128 O 0.45781 0.2582 0.29277 0.0
O129 O 0.41997 0.14889 0.26582 0.0
C130 C 0.26638 0.42211 0.76126 0.0
O131 O 0.23331 0.43696 0.77041 0.0
O132 O 0.24156 0.49582 0.68503 0.0
Zn133 Zn 0.22828 0.4234 0.68484 0.0
O134 O 0.15316 0.37526 0.69354 0.0
C135 C 0.27755 0.44091 0.60856 0.0
O136 O 0.31459 0.48296 0.62488 0.0
O137 O 0.27153 0.4136 0.72527 0.0
C138 C 0.1351 0.32729 0.69869 0.0
O139 O 0.16687 0.30952 0.70293 0.0
C140 C 0.21801 0.50623 0.65865 0.0
O141 O 0.18632 0.46939 0.63473 0.0
O142 O 0.24045 0.40861 0.6297 0.0
C143 C 0.87317 0.2426 0.08185 0.0
O144 O 0.82809 0.21919 0.09944 0.0
O145 O 0.75509 0.20794 0.03323 0.0
Zn146 Zn 0.80764 0.18798 0.01938 0.0
O147 O 0.78202 0.11556 0.03734 0.0
C148 C 0.76598 0.15518 0.94535 0.0
O149 O 0.72629 0.1311 0.96913 0.0
O150 O 0.87535 0.23583 0.04502 0.0
C151 C 0.80117 0.0906 0.02146 0.0
O152 O 0.84019 0.1147 -0.00292 0.0
C153 C 0.75325 0.24303 0.01353 0.0
O154 O 0.78835 0.26816 0.9864 0.0
O155 O 0.81001 0.18554 0.96015 0.0
H156 H 0.27297 0.55898 0.31322 0.0
H157 H 0.34498 0.50985 0.22669 0.0
H158 H 0.42588 0.59099 0.23454 0.0
H159 H 0.47744 0.67276 0.2693 0.0
H160 H 0.40594 0.72173 0.35632 0.0
H161 H 0.32334 0.64323 0.34509 0.0
C162 C 0.30612 0.56621 0.29566 0.0
C163 C 0.303 0.52819 0.2696 0.0
C164 C 0.35272 0.61247 0.30084 0.0
C165 C 0.34637 0.53832 0.24708 0.0
C166 C 0.39272 0.58459 0.25169 0.0
C167 C 0.44382 0.66631 0.28587 0.0
C168 C 0.44791 0.70268 0.31398 0.0
C169 C 0.39658 0.62136 0.27914 0.0
C170 C 0.40384 0.69412 0.33472 0.0
C171 C 0.35662 0.64933 0.32826 0.0
H172 H 0.78015 0.30964 0.73317 0.0
H173 H 0.67362 0.26244 0.63539 0.0
H174 H 0.66836 0.34071 0.64245 0.0
H175 H 0.69907 0.42524 0.67317 0.0
H176 H 0.8082 0.4735 0.76925 0.0
H177 H 0.80694 0.39162 0.76627 0.0
C178 C 0.75546 0.3162 0.71354 0.0
C179 C 0.7277 0.28051 0.68356 0.0
C180 C 0.75316 0.36147 0.71742 0.0
C181 C 0.69565 0.2895 0.65856 0.0
C182 C 0.69264 0.33423 0.66257 0.0
C183 C 0.72203 0.41758 0.69384 0.0
C184 C 0.75393 0.45551 0.72124 0.0
C185 C 0.72194 0.37089 0.69144 0.0
C186 C 0.78356 0.44505 0.74772 0.0
C187 C 0.78294 0.3983 0.746 0.0
H188 H 0.4636 0.78574 0.98863 0.0
H189 H 0.39107 0.62212 0.00975 0.0
H190 H 0.31046 0.61917 0.02672 0.0
H191 H 0.26104 0.66352 0.03604 0.0
H192 H 0.33549 0.82782 0.0166 0.0
H193 H 0.41518 0.83008 -0.00086 0.0
C194 C 0.42998 0.74928 0.99642 0.0
C195 C 0.43305 0.70412 -0.00253 0.0
C196 C 0.38435 0.74812 0.00705 0.0
C197 C 0.38947 0.65736 0.00844 0.0
C198 C 0.34351 0.65571 0.01836 0.0
C199 C 0.29482 0.69988 0.02834 0.0
C200 C 0.29219 0.74537 0.02761 0.0
C201 C 0.34063 0.70095 0.01805 0.0
C202 C 0.33634 0.79216 0.01743 0.0
C203 C 0.38194 0.79352 0.00723 0.0
H204 H 0.521 0.347 0.26932 0.0
H205 H 0.58391 0.28867 0.35646 0.0
H206 H 0.66682 0.3687 0.35268 0.0
H207 H 0.72084 0.45534 0.32514 0.0
H208 H 0.65718 0.51348 0.23842 0.0
H209 H 0.57501 0.43289 0.24136 0.0
C210 C 0.55274 0.35176 0.28764 0.0
C211 C 0.54622 0.31203 0.3133 0.0
C212 C 0.60016 0.39764 0.28522 0.0
C213 C 0.58788 0.31875 0.33658 0.0
C214 C 0.6353 0.36443 0.33437 0.0
C215 C 0.68912 0.4503 0.30666 0.0
C216 C 0.69516 0.49038 0.28157 0.0
C217 C 0.64183 0.4041 0.30879 0.0
C218 C 0.65357 0.48328 0.258 0.0
C219 C 0.60653 0.43726 0.25972 0.0
H220 H 0.27573 0.73911 0.66263 0.0
H221 H 0.16312 0.68618 0.56884 0.0
H222 H 0.15257 0.60012 0.57348 0.0
H223 H 0.17259 0.53927 0.60607 0.0
H224 H 0.28327 0.59185 0.70126 0.0
H225 H 0.29706 0.67888 0.69424 0.0
C226 C 0.24922 0.70895 0.64289 0.0
C227 C 0.22023 0.71907 0.61542 0.0
C228 C 0.24263 0.65943 0.64623 0.0
C229 C 0.18587 0.67941 0.59026 0.0
C230 C 0.1797 0.63016 0.59297 0.0
C231 C 0.19981 0.56974 0.62527 0.0
C232 C 0.22668 0.559 0.65427 0.0
C233 C 0.20738 0.6196 0.62121 0.0
C234 C 0.2619 0.599 0.67881 0.0
C235 C 0.2699 0.6488 0.67477 0.0
H236 H 0.72855 0.30155 0.9671 0.0
H237 H 0.67598 0.19935 0.06783 0.0
H238 H 0.5962 0.20199 0.06904 0.0
H239 H 0.5391 0.22823 0.03889 0.0
H240 H 0.59024 0.32961 0.93781 0.0
H241 H 0.67315 0.33246 0.93941 0.0
C242 C 0.69992 0.28033 0.98961 0.0
C243 C 0.70806 0.24994 0.01712 0.0
C244 C 0.65374 0.28141 0.98981 0.0
C245 C 0.67059 0.22278 0.04614 0.0
C246 C 0.62487 0.22413 0.0468 0.0
C247 C 0.56835 0.25097 0.01715 0.0
C248 C 0.55836 0.27804 0.98788 0.0
C249 C 0.61562 0.25237 0.01827 0.0
C250 C 0.59698 0.30817 0.96047 0.0
C251 C 0.64431 0.30978 0.96137 0.0
H252 H 0.2372 0.31001 0.33121 0.0
H253 H 0.14555 0.21996 0.23231 0.0
H254 H 0.18556 0.16619 0.23609 0.0
H255 H 0.24954 0.14776 0.26585 0.0
H256 H 0.33965 0.23816 0.36541 0.0
H257 H 0.2965 0.28843 0.36329 0.0
C258 C 0.22599 0.27869 0.31036 0.0
C259 C 0.18904 0.26935 0.28116 0.0
C260 C 0.2486 0.24787 0.313 0.0
C261 C 0.17416 0.22802 0.25492 0.0
C262 C 0.19698 0.19732 0.25709 0.0
C263 C 0.2593 0.17804 0.28739 0.0
C264 C 0.29806 0.18939 0.31556 0.0
C265 C 0.23459 0.20721 0.28584 0.0
C266 C 0.31014 0.22869 0.34331 0.0
C267 C 0.28564 0.25765 0.34204 0.0
H268 H 0.9037 0.14865 0.6863 0.0
H269 H 0.89205 0.26811 0.62405 0.0
H270 H 0.9835 0.32766 0.63466 0.0
H271 H 0.06614 0.34658 0.66275 0.0
H272 H 0.07937 0.22714 0.72327 0.0
H273 H 0.98758 0.16688 0.71258 0.0
C274 C 0.92122 0.18757 0.67477 0.0
C275 C 0.89095 0.20385 0.65449 0.0
C276 C 0.97389 0.22179 0.68109 0.0
C277 C 0.91436 0.25445 0.63971 0.0
C278 C 0.96664 0.28868 0.64593 0.0
C279 C 0.04889 0.30748 0.67393 0.0
C280 C 0.0793 0.29144 0.69418 0.0
C281 C -0.00342 0.27293 0.66695 0.0
C282 C 0.05662 0.24042 0.70778 0.0
C283 C 0.00424 0.20596 0.70157 0.0
H284 H 0.71848 0.02958 0.06732 0.0
H285 H 0.82342 0.0241 0.98303 0.0
H286 H 0.7723 0.93017 0.98201 0.0
H287 H 0.69449 0.85 0.00151 0.0
H288 H 0.58982 0.85605 0.0858 0.0
H289 H 0.64419 0.94934 0.09022 0.0
C290 C 0.73055 0.00787 0.04904 0.0
C291 C 0.77445 0.03388 0.02504 0.0
C292 C 0.7007 0.95396 0.04821 0.0
C293 C 0.78969 0.00509 0.00173 0.0
C294 C 0.76034 0.95135 0.00096 0.0
C295 C 0.68366 0.87173 0.02091 0.0
C296 C 0.6378 0.84618 0.04281 0.0
C297 C 0.71518 0.92546 0.02344 0.0
C298 C 0.62463 0.87479 0.06823 0.0
C299 C 0.65575 0.92818 0.07088 0.0
H300 H 0.73523 0.83793 0.29195 0.0
H301 H 0.64971 0.77604 0.40001 0.0
H302 H 0.68654 0.72023 0.40749 0.0
H303 H 0.73785 0.6847 0.38097 0.0
H304 H 0.82143 0.74439 0.27188 0.0
H305 H 0.79046 0.80554 0.26723 0.0
C306 C 0.72522 0.8128 0.31745 0.0
C307 C 0.6896 0.81095 0.34527 0.0
C308 C 0.7457 0.78005 0.32116 0.0
C309 C 0.67687 0.77801 0.37806 0.0
C310 C 0.69778 0.74598 0.38232 0.0
C311 C 0.74951 0.7112 0.35623 0.0
C312 C 0.78149 0.70967 0.32663 0.0
C313 C 0.73131 0.7459 0.3536 0.0
C314 C 0.79659 0.74459 0.29496 0.0
C315 C 0.77892 0.77957 0.29229 0.0
H316 H 0.07851 0.76279 0.72124 0.0
H317 H 0.09749 0.8434 0.61131 0.0
H318 H 0.00461 0.80988 0.60822 0.0
H319 H 0.9177 0.75268 0.6345 0.0
H320 H 0.89968 0.67057 0.74358 0.0
H321 H 0.99286 0.71032 0.74944 0.0
C322 C 0.06245 0.77327 0.69664 0.0
C323 C 0.09474 0.80506 0.66633 0.0
C324 C 0.00925 0.75364 0.69494 0.0
C325 C 0.07338 0.81877 0.63494 0.0
C326 C 0.0203 0.79959 0.63314 0.0
C327 C 0.93418 0.74408 0.65986 0.0
C328 C 0.90181 0.70848 0.68843 0.0
C329 C 0.98781 0.76633 0.66268 0.0
C330 C 0.92375 0.69761 0.72105 0.0
C331 C 0.97701 0.72021 0.72439 0.0
H332 H 0.27336 0.11694 0.02877 0.0
H333 H 0.35416 0.13792 0.91871 0.0
H334 H 0.32163 0.04543 0.9149 0.0
H335 H 0.27535 0.9599 0.94491 0.0
H336 H 0.19618 0.93863 0.05578 0.0
H337 H 0.22311 0.03021 0.05716 0.0
C338 C 0.28327 0.10122 0.00365 0.0
C339 C 0.31632 0.1343 0.97416 0.0
C340 C 0.26526 0.04813 0.00202 0.0
C341 C 0.32894 0.11332 0.94189 0.0
C342 C 0.31052 0.06047 0.93974 0.0
C343 C 0.26384 0.97519 0.96937 0.0
C344 C 0.23425 0.94262 0.00039 0.0
C345 C 0.27958 0.02774 0.97005 0.0
C346 C 0.2192 0.96297 0.03163 0.0
C347 C 0.23455 0.0153 0.03243 0.0
H348 H 0.88033 0.26061 0.16075 0.0
H349 H 0.97259 0.29475 0.05527 0.0
H350 H 0.05096 0.34211 0.09452 0.0
H351 H 0.09321 0.36999 0.15903 0.0
H352 H 0.00082 0.33406 0.26461 0.0
H353 H 0.92246 0.29147 0.22489 0.0
C354 C 0.91754 0.27863 0.14625 0.0
C355 C 0.92057 0.27385 0.10515 0.0
C356 C 0.9624 0.30538 0.16901 0.0
C357 C 0.96913 0.29763 0.08688 0.0
C358 C 0.01398 0.3247 0.1093 0.0
C359 C 0.05596 0.35322 0.17338 0.0
C360 C 0.05291 0.355 0.21476 0.0
C361 C 0.01107 0.32826 0.15043 0.0
C362 C 0.0043 0.33309 0.23282 0.0
C363 C 0.95945 0.30865 0.21014 0.0
H364 H 0.62374 0.01789 0.56789 0.0
H365 H 0.71597 0.14215 0.48735 0.0
H366 H 0.67837 0.08373 0.43133 0.0
H367 H 0.62413 0.99603 0.40562 0.0
H368 H 0.53263 0.87184 0.4865 0.0
H369 H 0.56465 0.9318 0.54185 0.0
C370 C 0.63544 0.03229 0.53808 0.0
C371 C 0.67306 0.08413 0.53186 0.0
C372 C 0.61381 -0.00149 0.50602 0.0
C373 C 0.6873 0.10232 0.49301 0.0
C374 C 0.66585 0.06894 0.46092 0.0
C375 C 0.61066 0.98218 0.43528 0.0
C376 C 0.57646 0.92941 0.44191 0.0
C377 C 0.62974 0.01676 0.46713 0.0
C378 C 0.55923 0.91218 0.48054 0.0
C379 C 0.57763 0.94642 0.51229 0.0
H380 H 0.57949 0.67233 0.86089 0.0
H381 H 0.6245 0.59979 0.95026 0.0
H382 H 0.66248 0.57133 0.89969 0.0
H383 H 0.68693 0.57098 0.83106 0.0
H384 H 0.64344 0.6441 0.74122 0.0
H385 H 0.60036 0.66811 0.79119 0.0
C386 C 0.5973 0.65 0.86932 0.0
C387 C 0.59947 0.63857 0.90939 0.0
C388 C 0.61944 0.63404 0.84009 0.0
C389 C 0.62247 0.60936 0.91971 0.0
C390 C 0.64427 0.5931 0.89081 0.0
C391 C 0.66787 0.592 0.82225 0.0
C392 C 0.6688 0.60614 0.78249 0.0
C393 C 0.64363 0.60589 0.85105 0.0
C394 C 0.64343 0.63288 0.77163 0.0
C395 C 0.61891 0.64671 0.8002 0.0
H396 H 0.0307 0.67373 0.08547 0.0
H397 H 0.14894 0.75667 0.17267 0.0
H398 H 0.08522 0.71954 0.22532 0.0
H399 H -0.00495 0.66853 0.24634 0.0
H400 H 0.87668 0.58649 0.15904 0.0
H401 H 0.94137 0.61791 0.10693 0.0
C402 C 0.04263 0.68335 0.116 0.0
C403 C 0.09445 0.71836 0.12501 0.0
C404 C 0.00571 0.66219 0.14621 0.0
C405 C 0.10926 0.7301 0.16479 0.0
C406 C 0.07282 0.70893 0.19499 0.0
C407 C 0.98343 0.65708 0.21598 0.0
C408 C 0.93102 0.62561 0.20664 0.0
C409 C 0.02079 0.6757 0.186 0.0
C410 C 0.91672 0.61096 0.16711 0.0
C411 C 0.95369 0.62898 0.13721 0.0
H412 H 0.41795 0.12228 0.47589 0.0
H413 H 0.37956 0.00968 0.38341 0.0
H414 H 0.34588 0.94068 0.43249 0.0
H415 H 0.32165 0.91195 0.50092 0.0
H416 H 0.35801 0.02442 0.59318 0.0
H417 H 0.39854 0.09393 0.5448 0.0
C418 C 0.40266 0.08271 0.46643 0.0
C419 C 0.40089 0.07116 0.42597 0.0
C420 C 0.38274 0.04318 0.49473 0.0
C421 C 0.38118 0.01966 0.41432 0.0
C422 C 0.3618 0.98015 0.44237 0.0
C423 C 0.3388 0.95167 0.51057 0.0
C424 C 0.33634 0.96289 0.5506 0.0
C425 C 0.36148 0.9914 0.48255 0.0
C426 C 0.35908 0.01463 0.56255 0.0
C427 C 0.3822 0.05442 0.53488 0.0
H428 H 0.36034 0.37781 0.91279 0.0
H429 H 0.44383 0.34699 0.82342 0.0
H430 H 0.40407 0.37227 0.77195 0.0
H431 H 0.34138 0.39749 0.75196 0.0
H432 H 0.25702 0.42739 0.84111 0.0
H433 H 0.30145 0.4082 0.89291 0.0
C434 C 0.37032 0.3772 0.88209 0.0
C435 C 0.40472 0.36013 0.87201 0.0
C436 C 0.34681 0.39117 0.85252 0.0
C437 C 0.41725 0.35967 0.83206 0.0
C438 C 0.39443 0.374 0.80254 0.0
C439 C 0.33286 0.40006 0.78271 0.0
C440 C 0.29557 0.4134 0.79258 0.0
C441 C 0.3584 0.38882 0.81238 0.0
C442 C 0.28536 0.41698 0.83262 0.0
C443 C 0.31074 0.40599 0.86231 0.0
H444 H 0.28945 0.45752 0.42313 0.0
H445 H 0.12454 0.36453 0.43619 0.0
H446 H 0.13448 0.36248 0.50776 0.0
H447 H 0.1898 0.38828 0.56632 0.0
H448 H 0.35428 0.48538 0.55372 0.0
H449 H 0.34477 0.48404 0.48181 0.0
C450 C 0.25563 0.43672 0.4416 0.0
C451 C 0.2063 0.41112 0.4244 0.0
C452 C 0.26163 0.43613 0.48262 0.0
C453 C 0.16288 0.38471 0.44874 0.0
C454 C 0.16857 0.38334 0.48961 0.0
C455 C 0.22369 0.40856 0.54783 0.0
C456 C 0.2728 0.43643 0.56519 0.0
C457 C 0.21775 0.40889 0.5068 0.0
C458 C 0.31617 0.46344 0.54094 0.0
C459 C 0.31071 0.46283 0.49992 0.0
H460 H 0.67565 0.10881 0.90542 0.0
H461 H 0.84009 0.18262 0.88876 0.0
H462 H 0.8276 0.169 0.81749 0.0
H463 H 0.77044 0.13987 0.7601 0.0
H464 H 0.60639 0.07134 0.77616 0.0
H465 H 0.61822 0.07836 0.8479 0.0
C466 C 0.70879 0.12171 0.88624 0.0
C467 C 0.75876 0.14679 0.90231 0.0
C468 C 0.70134 0.11442 0.84535 0.0
C469 C 0.80128 0.16351 0.87707 0.0
C470 C 0.79414 0.15557 0.83637 0.0
C471 C 0.73711 0.12561 0.77927 0.0
C472 C 0.68749 0.10473 0.7629 0.0
C473 C 0.74439 0.13143 0.82022 0.0
C474 C 0.64489 0.08735 0.78812 0.0
C475 C 0.65168 0.0916 0.82906 0.0
H476 H 0.47333 0.76052 0.22718 0.0
H477 H 0.63455 0.87234 0.21302 0.0
H478 H 0.64277 0.8168 0.16414 0.0
H479 H 0.60429 0.73638 0.12628 0.0
H480 H 0.44288 0.62466 0.14074 0.0
H481 H 0.43537 0.67934 0.19048 0.0
C482 C 0.51011 0.77326 0.21291 0.0
C483 C 0.55314 0.82092 0.22322 0.0
C484 C 0.51492 0.74041 0.186 0.0
C485 C 0.60075 0.83614 0.20516 0.0
C486 C 0.60559 0.80413 0.17763 0.0
C487 C 0.56756 0.72347 0.14068 0.0
C488 C 0.52407 0.67657 0.12939 0.0
C489 C 0.56305 0.75591 0.16822 0.0
C490 C 0.47695 0.6606 0.14863 0.0
C491 C 0.47246 0.69214 0.17677 0.0
H492 H 0.82286 0.63157 0.42973 0.0
H493 H 0.86118 0.5113 0.43887 0.0
H494 H 0.83881 0.5009 0.50909 0.0
H495 H 0.8069 0.52488 0.5672 0.0
H496 H 0.763 0.64106 0.55722 0.0
H497 H 0.78812 0.65358 0.48748 0.0
C498 C 0.82695 0.60354 0.44722 0.0
C499 C 0.8444 0.57272 0.42937 0.0
C500 C 0.81226 0.59655 0.4871 0.0
C501 C 0.84832 0.53574 0.45212 0.0
C502 C 0.83528 0.52963 0.49214 0.0
C503 C 0.80272 0.5529 0.54975 0.0
C504 C 0.78327 0.58214 0.56731 0.0
C505 C 0.81685 0.55955 0.50981 0.0
C506 C 0.77756 0.61788 0.54428 0.0
C507 C 0.79227 0.62529 0.50453 0.0
H508 H 0.18191 0.82305 0.89896 0.0
H509 H 0.1865 0.68183 0.89005 0.0
H510 H 0.22491 0.70697 0.82446 0.0
H511 H 0.25929 0.76979 0.77068 0.0
H512 H 0.25446 0.91086 0.77899 0.0
H513 H 0.21518 0.8855 0.84448 0.0
C514 C 0.19057 0.79734 0.88249 0.0
C515 C 0.18115 0.75047 0.89941 0.0
C516 C 0.21368 0.81253 0.84514 0.0
C517 C 0.19314 0.71798 0.8777 0.0
C518 C 0.2155 0.73252 0.84032 0.0
C519 C 0.25032 0.79542 0.78696 0.0
C520 C 0.26035 0.84248 0.77012 0.0
C521 C 0.22667 0.78004 0.82406 0.0
C522 C 0.24756 0.87466 0.79142 0.0
C523 C 0.22473 0.85998 0.82871 0.0
H524 H 0.38997 0.1813 0.20958 0.0
H525 H 0.54416 0.207 0.19662 0.0
H526 H 0.55682 0.25953 0.13798 0.0
H527 H 0.52518 0.30025 0.09176 0.0
H528 H 0.37057 0.27322 0.10363 0.0
H529 H 0.35747 0.22008 0.16224 0.0
C530 C 0.42612 0.19767 0.19364 0.0
C531 C 0.46605 0.19004 0.2075 0.0
C532 C 0.43353 0.22871 0.16046 0.0
C533 C 0.51273 0.21204 0.18657 0.0
C534 C 0.52019 0.2425 0.15324 0.0
C535 C 0.48895 0.28358 0.10762 0.0
C536 C 0.44922 0.29153 0.09397 0.0
C537 C 0.48121 0.25185 0.14039 0.0
C538 C 0.40193 0.26826 0.11404 0.0
C539 C 0.39431 0.23754 0.14725 0.0
loop_
_geom_bond_atom_site_label_1
_geom_bond_atom_site_label_2
_geom_bond_distance
_geom_bond_site_symmetry_2
_ccdc_geom_bond_type
C0 O1 1.160 . S
C0 O7 1.185 . S
O1 C0 1.160 . S
O2 Zn3 1.899 . S
O2 C10 1.284 . S
Zn3 O2 1.899 . S
Zn3 O4 2.032 . S
Zn3 O7 2.086 . S
Zn3 O12 1.977 . S
O4 Zn3 2.032 . S
O4 C8 1.278 . S
C5 O6 1.203 . S
C5 O12 1.267 . S
O6 C5 1.203 . S
O7 C0 1.185 . S
O7 Zn3 2.086 . S
C8 O4 1.278 . S
C8 O9 1.211 . S
O9 C8 1.211 . S
C10 O2 1.284 . S
C10 O11 1.273 . S
O11 C10 1.273 . S
O12 Zn3 1.977 . S
O12 C5 1.267 . S
C13 O14 1.160 . S
C13 O20 1.185 . S
O14 C13 1.160 . S
O15 Zn16 1.899 . S
O15 C23 1.284 . S
Zn16 O15 1.899 . S
Zn16 O17 2.032 . S
Zn16 O20 2.086 . S
Zn16 O25 1.977 . S
O17 Zn16 2.032 . S
O17 C21 1.278 . S
C18 O19 1.203 . S
C18 O25 1.267 . S
O19 C18 1.203 . S
O20 C13 1.185 . S
O20 Zn16 2.086 . S
C21 O17 1.278 . S
C21 O22 1.211 . S
O22 C21 1.211 . S
C23 O15 1.284 . S
C23 O24 1.273 . S
O24 C23 1.273 . S
O25 Zn16 1.977 . S
O25 C18 1.267 . S
C26 O27 1.160 . S
C26 O33 1.185 . S
O27 C26 1.160 . S
O28 Zn29 1.899 . S
O28 C36 1.284 . S
Zn29 O28 1.899 . S
Zn29 O30 2.032 . S
Zn29 O33 2.086 . S
Zn29 O38 1.977 1_556 S
O30 Zn29 2.032 . S
O30 C34 1.278 . S
C31 O32 1.203 . S
C31 O38 1.267 . S
O32 C31 1.203 . S
O33 C26 1.185 . S
O33 Zn29 2.086 . S
C34 O30 1.278 . S
C34 O35 1.211 1_556 S
O35 C34 1.211 1_554 S
C36 O28 1.284 . S
C36 O37 1.273 . S
O37 C36 1.273 . S
O38 Zn29 1.977 1_554 S
O38 C31 1.267 . S
C39 O40 1.160 . S
C39 O46 1.185 . S
O40 C39 1.160 . S
O41 Zn42 1.899 . S
O41 C49 1.284 . S
Zn42 O41 1.899 . S
Zn42 O43 2.032 . S
Zn42 O46 2.086 . S
Zn42 O51 1.977 . S
O43 Zn42 2.032 . S
O43 C47 1.278 . S
C44 O45 1.203 . S
C44 O51 1.267 . S
O45 C44 1.203 . S
O46 C39 1.185 . S
O46 Zn42 2.086 . S
C47 O43 1.278 . S
C47 O48 1.211 . S
O48 C47 1.211 . S
C49 O41 1.284 . S
C49 O50 1.273 . S
O50 C49 1.273 . S
O51 Zn42 1.977 . S
O51 C44 1.267 . S
C52 O53 1.160 . S
C52 O59 1.185 . S
O53 C52 1.160 . S
O54 Zn55 1.899 . S
O54 C62 1.284 . S
Zn55 O54 1.899 . S
Zn55 O56 2.032 . S
Zn55 O59 2.086 . S
Zn55 O64 1.977 . S
O56 Zn55 2.032 . S
O56 C60 1.278 . S
C57 O58 1.203 . S
C57 O64 1.267 . S
O58 C57 1.203 . S
O59 C52 1.185 . S
O59 Zn55 2.086 . S
C60 O56 1.278 . S
C60 O61 1.211 . S
O61 C60 1.211 . S
C62 O54 1.284 . S
C62 O63 1.273 . S
O63 C62 1.273 . S
O64 Zn55 1.977 . S
O64 C57 1.267 . S
C65 O66 1.160 . S
C65 O72 1.185 . S
O66 C65 1.160 . S
O67 Zn68 1.899 . S
O67 C75 1.284 . S
Zn68 O67 1.899 . S
Zn68 O69 2.032 . S
Zn68 O72 2.086 . S
Zn68 O77 1.977 1_556 S
O69 Zn68 2.032 . S
O69 C73 1.278 . S
C70 O71 1.203 . S
C70 O77 1.267 . S
O71 C70 1.203 . S
O72 C65 1.185 . S
O72 Zn68 2.086 . S
C73 O69 1.278 . S
C73 O74 1.211 1_556 S
O74 C73 1.211 1_554 S
C75 O67 1.284 . S
C75 O76 1.273 . S
O76 C75 1.273 . S
O77 Zn68 1.977 1_554 S
O77 C70 1.267 . S
C78 O79 1.160 . S
C78 O85 1.185 . S
O79 C78 1.160 . S
O80 Zn81 1.899 . S
O80 C88 1.284 . S
Zn81 O80 1.899 . S
Zn81 O82 2.032 . S
Zn81 O85 2.086 . S
Zn81 O90 1.977 . S
O82 Zn81 2.032 . S
O82 C86 1.278 . S
C83 O84 1.203 . S
C83 O90 1.267 . S
O84 C83 1.203 . S
O85 C78 1.185 . S
O85 Zn81 2.086 . S
C86 O82 1.278 . S
C86 O87 1.211 . S
O87 C86 1.211 . S
C88 O80 1.284 . S
C88 O89 1.273 . S
O89 C88 1.273 . S
O90 Zn81 1.977 . S
O90 C83 1.267 . S
C91 O92 1.160 . S
C91 O98 1.185 . S
O92 C91 1.160 . S
O93 Zn94 1.899 . S
O93 C101 1.284 . S
Zn94 O93 1.899 . S
Zn94 O95 2.032 . S
Zn94 O98 2.086 . S
Zn94 O103 1.977 . S
O95 Zn94 2.032 . S
O95 C99 1.278 . S
C96 O97 1.203 . S
C96 O103 1.267 . S
O97 C96 1.203 . S
O98 C91 1.185 . S
O98 Zn94 2.086 . S
C99 O95 1.278 . S
C99 O100 1.211 . S
O100 C99 1.211 . S
C101 O93 1.284 . S
C101 O102 1.273 . S
O102 C101 1.273 . S
O103 Zn94 1.977 . S
O103 C96 1.267 . S
C104 O105 1.160 . S
C104 O111 1.185 . S
O105 C104 1.160 . S
O106 Zn107 1.899 . S
O106 C114 1.284 . S
Zn107 O106 1.899 . S
Zn107 O108 2.032 . S
Zn107 O111 2.086 . S
Zn107 O116 1.977 1_554 S
O108 Zn107 2.032 . S
O108 C112 1.278 . S
C109 O110 1.203 . S
C109 O116 1.267 . S
O110 C109 1.203 . S
O111 C104 1.185 . S
O111 Zn107 2.086 . S
C112 O108 1.278 . S
C112 O113 1.211 1_554 S
O113 C112 1.211 1_556 S
C114 O106 1.284 . S
C114 O115 1.273 . S
O115 C114 1.273 . S
O116 Zn107 1.977 1_556 S
O116 C109 1.267 . S
C117 O118 1.160 . S
C117 O124 1.185 . S
O118 C117 1.160 . S
O119 Zn120 1.899 . S
O119 C127 1.284 . S
Zn120 O119 1.899 . S
Zn120 O121 2.032 . S
Zn120 O124 2.086 . S
Zn120 O129 1.977 . S
O121 Zn120 2.032 . S
O121 C125 1.278 . S
C122 O123 1.203 . S
C122 O129 1.267 . S
O123 C122 1.203 . S
O124 C117 1.185 . S
O124 Zn120 2.086 . S
C125 O121 1.278 . S
C125 O126 1.211 . S
O126 C125 1.211 . S
C127 O119 1.284 . S
C127 O128 1.273 . S
O128 C127 1.273 . S
O129 Zn120 1.977 . S
O129 C122 1.267 . S
C130 O131 1.160 . S
C130 O137 1.185 . S
O131 C130 1.160 . S
O132 Zn133 1.899 . S
O132 C140 1.284 . S
Zn133 O132 1.899 . S
Zn133 O134 2.032 . S
Zn133 O137 2.086 . S
Zn133 O142 1.977 . S
O134 Zn133 2.032 . S
O134 C138 1.278 . S
C135 O136 1.203 . S
C135 O142 1.267 . S
O136 C135 1.203 . S
O137 C130 1.185 . S
O137 Zn133 2.086 . S
C138 O134 1.278 . S
C138 O139 1.211 . S
O139 C138 1.211 . S
C140 O132 1.284 . S
C140 O141 1.273 . S
O141 C140 1.273 . S
O142 Zn133 1.977 . S
O142 C135 1.267 . S
C143 O144 1.160 . S
C143 O150 1.185 . S
O144 C143 1.160 . S
O145 Zn146 1.899 . S
O145 C153 1.284 . S
Zn146 O145 1.899 . S
Zn146 O147 2.032 . S
Zn146 O150 2.086 . S
Zn146 O155 1.977 1_554 S
O147 Zn146 2.032 . S
O147 C151 1.278 . S
C148 O149 1.203 . S
C148 O155 1.267 . S
O149 C148 1.203 . S
O150 C143 1.185 . S
O150 Zn146 2.086 . S
C151 O147 1.278 . S
C151 O152 1.211 1_554 S
O152 C151 1.211 1_556 S
C153 O145 1.284 . S
C153 O154 1.273 . S
O154 C153 1.273 . S
O155 Zn146 1.977 1_556 S
O155 C148 1.267 . S
H156 C162 0.930 . S
H157 C165 0.930 . S
H158 C166 0.930 . S
H159 C167 0.930 . S
H160 C170 0.930 . S
H161 C171 0.930 . S
C162 H156 0.930 . S
C162 C163 1.355 . S
C162 C164 1.415 . S
C163 C162 1.355 . S
C163 C165 1.419 . S
C164 C162 1.415 . S
C164 C169 1.425 . S
C164 C171 1.409 . S
C165 H157 0.930 . S
C165 C163 1.419 . S
C165 C166 1.362 . S
C166 H158 0.930 . S
C166 C165 1.362 . S
C166 C169 1.409 . S
C167 H159 0.930 . S
C167 C168 1.355 . S
C167 C169 1.415 . S
C168 C167 1.355 . S
C168 C170 1.419 . S
C169 C164 1.425 . S
C169 C166 1.409 . S
C169 C167 1.415 . S
C170 H160 0.930 . S
C170 C168 1.419 . S
C170 C171 1.362 . S
C171 H161 0.930 . S
C171 C164 1.409 . S
C171 C170 1.362 . S
H172 C178 0.930 . S
H173 C181 0.930 . S
H174 C182 0.930 . S
H175 C183 0.930 . S
H176 C186 0.930 . S
H177 C187 0.930 . S
C178 H172 0.930 . S
C178 C179 1.355 . S
C178 C180 1.415 . S
C179 C178 1.355 . S
C179 C181 1.419 . S
C180 C178 1.415 . S
C180 C185 1.425 . S
C180 C187 1.409 . S
C181 H173 0.930 . S
C181 C179 1.419 . S
C181 C182 1.362 . S
C182 H174 0.930 . S
C182 C181 1.362 . S
C182 C185 1.409 . S
C183 H175 0.930 . S
C183 C184 1.355 . S
C183 C185 1.415 . S
C184 C183 1.355 . S
C184 C186 1.419 . S
C185 C180 1.425 . S
C185 C182 1.409 . S
C185 C183 1.415 . S
C186 H176 0.930 . S
C186 C184 1.419 . S
C186 C187 1.362 . S
C187 H177 0.930 . S
C187 C180 1.409 . S
C187 C186 1.362 . S
H188 C194 0.930 . S
H189 C197 0.930 . S
H190 C198 0.930 . S
H191 C199 0.930 . S
H192 C202 0.930 . S
H193 C203 0.930 . S
C194 H188 0.930 . S
C194 C195 1.355 . S
C194 C196 1.415 . S
C195 C194 1.355 . S
C195 C197 1.419 1_556 S
C196 C194 1.415 . S
C196 C201 1.425 1_556 S
C196 C203 1.409 . S
C197 H189 0.930 . S
C197 C195 1.419 1_554 S
C197 C198 1.362 . S
C198 H190 0.930 . S
C198 C197 1.362 . S
C198 C201 1.409 . S
C199 H191 0.930 . S
C199 C200 1.355 . S
C199 C201 1.415 . S
C200 C199 1.355 . S
C200 C202 1.419 1_554 S
C201 C196 1.425 1_554 S
C201 C198 1.409 . S
C201 C199 1.415 . S
C202 H192 0.930 . S
C202 C200 1.419 1_556 S
C202 C203 1.362 . S
C203 H193 0.930 . S
C203 C196 1.409 . S
C203 C202 1.362 . S
H204 C210 0.930 . S
H205 C213 0.930 . S
H206 C214 0.930 . S
H207 C215 0.930 . S
H208 C218 0.930 . S
H209 C219 0.930 . S
C210 H204 0.930 . S
C210 C211 1.355 . S
C210 C212 1.415 . S
C211 C210 1.355 . S
C211 C213 1.419 . S
C212 C210 1.415 . S
C212 C217 1.425 . S
C212 C219 1.409 . S
C213 H205 0.930 . S
C213 C211 1.419 . S
C213 C214 1.362 . S
C214 H206 0.930 . S
C214 C213 1.362 . S
C214 C217 1.409 . S
C215 H207 0.930 . S
C215 C216 1.355 . S
C215 C217 1.415 . S
C216 C215 1.355 . S
C216 C218 1.419 . S
C217 C212 1.425 . S
C217 C214 1.409 . S
C217 C215 1.415 . S
C218 H208 0.930 . S
C218 C216 1.419 . S
C218 C219 1.362 . S
C219 H209 0.930 . S
C219 C212 1.409 . S
C219 C218 1.362 . S
H220 C226 0.930 . S
H221 C229 0.930 . S
H222 C230 0.930 . S
H223 C231 0.930 . S
H224 C234 0.930 . S
H225 C235 0.930 . S
C226 H220 0.930 . S
C226 C227 1.355 . S
C226 C228 1.415 . S
C227 C226 1.355 . S
C227 C229 1.419 . S
C228 C226 1.415 . S
C228 C233 1.425 . S
C228 C235 1.409 . S
C229 H221 0.930 . S
C229 C227 1.419 . S
C229 C230 1.362 . S
C230 H222 0.930 . S
C230 C229 1.362 . S
C230 C233 1.409 . S
C231 H223 0.930 . S
C231 C232 1.355 . S
C231 C233 1.415 . S
C232 C231 1.355 . S
C232 C234 1.419 . S
C233 C228 1.425 . S
C233 C230 1.409 . S
C233 C231 1.415 . S
C234 H224 0.930 . S
C234 C232 1.419 . S
C234 C235 1.362 . S
C235 H225 0.930 . S
C235 C228 1.409 . S
C235 C234 1.362 . S
H236 C242 0.930 . S
H237 C245 0.930 . S
H238 C246 0.930 . S
H239 C247 0.930 . S
H240 C250 0.930 . S
H241 C251 0.930 . S
C242 H236 0.930 . S
C242 C243 1.355 . S
C242 C244 1.415 . S
C243 C242 1.355 . S
C243 C245 1.419 1_554 S
C244 C242 1.415 . S
C244 C249 1.425 1_554 S
C244 C251 1.409 . S
C245 H237 0.930 . S
C245 C243 1.419 1_556 S
C245 C246 1.362 . S
C246 H238 0.930 . S
C246 C245 1.362 . S
C246 C249 1.409 . S
C247 H239 0.930 . S
C247 C248 1.355 . S
C247 C249 1.415 . S
C248 C247 1.355 . S
C248 C250 1.419 1_556 S
C249 C244 1.425 1_556 S
C249 C246 1.409 . S
C249 C247 1.415 . S
C250 H240 0.930 . S
C250 C248 1.419 1_554 S
C250 C251 1.362 . S
C251 H241 0.930 . S
C251 C244 1.409 . S
C251 C250 1.362 . S
H252 C258 0.930 . S
H253 C261 0.930 . S
H254 C262 0.930 . S
H255 C263 0.930 . S
H256 C266 0.930 . S
H257 C267 0.930 . S
C258 H252 0.930 . S
C258 C259 1.355 . S
C258 C260 1.415 . S
C259 C258 1.355 . S
C259 C261 1.419 . S
C260 C258 1.415 . S
C260 C265 1.425 . S
C260 C267 1.409 . S
C261 H253 0.930 . S
C261 C259 1.419 . S
C261 C262 1.362 . S
C262 H254 0.930 . S
C262 C261 1.362 . S
C262 C265 1.409 . S
C263 H255 0.930 . S
C263 C264 1.355 . S
C263 C265 1.415 . S
C264 C263 1.355 . S
C264 C266 1.419 . S
C265 C260 1.425 . S
C265 C262 1.409 . S
C265 C263 1.415 . S
C266 H256 0.930 . S
C266 C264 1.419 . S
C266 C267 1.362 . S
C267 H257 0.930 . S
C267 C260 1.409 . S
C267 C266 1.362 . S
H268 C274 0.930 . S
H269 C277 0.930 . S
H270 C278 0.930 . S
H271 C279 0.930 . S
H272 C282 0.930 . S
H273 C283 0.930 . S
C274 H268 0.930 . S
C274 C275 1.355 . S
C274 C276 1.415 . S
C275 C274 1.355 . S
C275 C277 1.419 . S
C276 C274 1.415 . S
C276 C281 1.425 1_655 S
C276 C283 1.409 1_655 S
C277 H269 0.930 . S
C277 C275 1.419 . S
C277 C278 1.362 . S
C278 H270 0.930 . S
C278 C277 1.362 . S
C278 C281 1.409 1_655 S
C279 H271 0.930 . S
C279 C280 1.355 . S
C279 C281 1.415 . S
C280 C279 1.355 . S
C280 C282 1.419 . S
C281 C276 1.425 1_455 S
C281 C278 1.409 1_455 S
C281 C279 1.415 . S
C282 H272 0.930 . S
C282 C280 1.419 . S
C282 C283 1.362 . S
C283 H273 0.930 . S
C283 C276 1.409 1_455 S
C283 C282 1.362 . S
H284 C290 0.930 . S
H285 C293 0.930 . S
H286 C294 0.930 . S
H287 C295 0.930 . S
H288 C298 0.930 . S
H289 C299 0.930 . S
C290 H284 0.930 . S
C290 C291 1.355 . S
C290 C292 1.415 . S
C291 C290 1.355 . S
C291 C293 1.419 1_554 S
C292 C290 1.415 . S
C292 C297 1.425 1_544 S
C292 C299 1.409 1_545 S
C293 H285 0.930 . S
C293 C291 1.419 1_556 S
C293 C294 1.362 . S
C294 H286 0.930 . S
C294 C293 1.362 . S
C294 C297 1.409 1_545 S
C295 H287 0.930 . S
C295 C296 1.355 . S
C295 C297 1.415 . S
C296 C295 1.355 . S
C296 C298 1.419 1_556 S
C297 C292 1.425 1_566 S
C297 C294 1.409 1_565 S
C297 C295 1.415 . S
C298 H288 0.930 . S
C298 C296 1.419 1_554 S
C298 C299 1.362 . S
C299 H289 0.930 . S
C299 C292 1.409 1_565 S
C299 C298 1.362 . S
H300 C306 0.930 . S
H301 C309 0.930 . S
H302 C310 0.930 . S
H303 C311 0.930 . S
H304 C314 0.930 . S
H305 C315 0.930 . S
C306 H300 0.930 . S
C306 C307 1.355 . S
C306 C308 1.415 . S
C307 C306 1.355 . S
C307 C309 1.419 . S
C308 C306 1.415 . S
C308 C313 1.425 . S
C308 C315 1.409 . S
C309 H301 0.930 . S
C309 C307 1.419 . S
C309 C310 1.362 . S
C310 H302 0.930 . S
C310 C309 1.362 . S
C310 C313 1.409 . S
C311 H303 0.930 . S
C311 C312 1.355 . S
C311 C313 1.415 . S
C312 C311 1.355 . S
C312 C314 1.419 . S
C313 C308 1.425 . S
C313 C310 1.409 . S
C313 C311 1.415 . S
C314 H304 0.930 . S
C314 C312 1.419 . S
C314 C315 1.362 . S
C315 H305 0.930 . S
C315 C308 1.409 . S
C315 C314 1.362 . S
H316 C322 0.930 . S
H317 C325 0.930 . S
H318 C326 0.930 . S
H319 C327 0.930 . S
H320 C330 0.930 . S
H321 C331 0.930 . S
C322 H316 0.930 . S
C322 C323 1.355 . S
C322 C324 1.415 . S
C323 C322 1.355 . S
C323 C325 1.419 . S
C324 C322 1.415 . S
C324 C329 1.425 1_455 S
C324 C331 1.409 1_455 S
C325 H317 0.930 . S
C325 C323 1.419 . S
C325 C326 1.362 . S
C326 H318 0.930 . S
C326 C325 1.362 . S
C326 C329 1.409 1_455 S
C327 H319 0.930 . S
C327 C328 1.355 . S
C327 C329 1.415 . S
C328 C327 1.355 . S
C328 C330 1.419 . S
C329 C324 1.425 1_655 S
C329 C326 1.409 1_655 S
C329 C327 1.415 . S
C330 H320 0.930 . S
C330 C328 1.419 . S
C330 C331 1.362 . S
C331 H321 0.930 . S
C331 C324 1.409 1_655 S
C331 C330 1.362 . S
H332 C338 0.930 . S
H333 C341 0.930 . S
H334 C342 0.930 . S
H335 C343 0.930 . S
H336 C346 0.930 . S
H337 C347 0.930 . S
C338 H332 0.930 . S
C338 C339 1.355 1_554 S
C338 C340 1.415 . S
C339 C338 1.355 1_556 S
C339 C341 1.419 . S
C340 C338 1.415 . S
C340 C345 1.425 1_544 S
C340 C347 1.409 1_545 S
C341 H333 0.930 . S
C341 C339 1.419 . S
C341 C342 1.362 . S
C342 H334 0.930 . S
C342 C341 1.362 . S
C342 C345 1.409 1_545 S
C343 H335 0.930 . S
C343 C344 1.355 1_556 S
C343 C345 1.415 . S
C344 C343 1.355 1_554 S
C344 C346 1.419 . S
C345 C340 1.425 1_566 S
C345 C342 1.409 1_565 S
C345 C343 1.415 . S
C346 H336 0.930 . S
C346 C344 1.419 . S
C346 C347 1.362 . S
C347 H337 0.930 . S
C347 C340 1.409 1_565 S
C347 C346 1.362 . S
H348 C354 0.930 . S
H349 C357 0.930 . S
H350 C358 0.930 . S
H351 C359 0.930 . S
H352 C362 0.930 . S
H353 C363 0.930 . S
C354 H348 0.930 . S
C354 C355 1.355 . S
C354 C356 1.415 . S
C355 C354 1.355 . S
C355 C357 1.419 . S
C356 C354 1.415 . S
C356 C361 1.425 1_655 S
C356 C363 1.409 . S
C357 H349 0.930 . S
C357 C355 1.419 . S
C357 C358 1.362 1_655 S
C358 H350 0.930 . S
C358 C357 1.362 1_455 S
C358 C361 1.409 . S
C359 H351 0.930 . S
C359 C360 1.355 . S
C359 C361 1.415 . S
C360 C359 1.355 . S
C360 C362 1.419 . S
C361 C356 1.425 1_455 S
C361 C358 1.409 . S
C361 C359 1.415 . S
C362 H352 0.930 . S
C362 C360 1.419 . S
C362 C363 1.362 1_455 S
C363 H353 0.930 . S
C363 C356 1.409 . S
C363 C362 1.362 1_655 S
H364 C370 0.930 1_565 S
H365 C373 0.930 . S
H366 C374 0.930 . S
H367 C375 0.930 1_545 S
H368 C378 0.930 . S
H369 C379 0.930 . S
C370 H364 0.930 1_545 S
C370 C371 1.355 . S
C370 C372 1.415 1_545 S
C371 C370 1.355 . S
C371 C373 1.419 . S
C372 C370 1.415 1_565 S
C372 C377 1.425 1_565 S
C372 C379 1.409 . S
C373 H365 0.930 . S
C373 C371 1.419 . S
C373 C374 1.362 . S
C374 H366 0.930 . S
C374 C373 1.362 . S
C374 C377 1.409 . S
C375 H367 0.930 1_565 S
C375 C376 1.355 . S
C375 C377 1.415 1_565 S
C376 C375 1.355 . S
C376 C378 1.419 . S
C377 C372 1.425 1_545 S
C377 C374 1.409 . S
C377 C375 1.415 1_545 S
C378 H368 0.930 . S
C378 C376 1.419 . S
C378 C379 1.362 . S
C379 H369 0.930 . S
C379 C372 1.409 . S
C379 C378 1.362 . S
H380 C386 0.930 . S
H381 C389 0.930 . S
H382 C390 0.930 . S
H383 C391 0.930 . S
H384 C394 0.930 . S
H385 C395 0.930 . S
C386 H380 0.930 . S
C386 C387 1.355 . S
C386 C388 1.415 . S
C387 C386 1.355 . S
C387 C389 1.419 . S
C388 C386 1.415 . S
C388 C393 1.425 . S
C388 C395 1.409 . S
C389 H381 0.930 . S
C389 C387 1.419 . S
C389 C390 1.362 . S
C390 H382 0.930 . S
C390 C389 1.362 . S
C390 C393 1.409 . S
C391 H383 0.930 . S
C391 C392 1.355 . S
C391 C393 1.415 . S
C392 C391 1.355 . S
C392 C394 1.419 . S
C393 C388 1.425 . S
C393 C390 1.409 . S
C393 C391 1.415 . S
C394 H384 0.930 . S
C394 C392 1.419 . S
C394 C395 1.362 . S
C395 H385 0.930 . S
C395 C388 1.409 . S
C395 C394 1.362 . S
H396 C402 0.930 1_655 S
H397 C405 0.930 . S
H398 C406 0.930 . S
H399 C407 0.930 1_455 S
H400 C410 0.930 . S
H401 C411 0.930 . S
C402 H396 0.930 1_455 S
C402 C403 1.355 . S
C402 C404 1.415 1_455 S
C403 C402 1.355 . S
C403 C405 1.419 . S
C404 C402 1.415 1_655 S
C404 C409 1.425 1_655 S
C404 C411 1.409 . S
C405 H397 0.930 . S
C405 C403 1.419 . S
C405 C406 1.362 . S
C406 H398 0.930 . S
C406 C405 1.362 . S
C406 C409 1.409 . S
C407 H399 0.930 1_655 S
C407 C408 1.355 . S
C407 C409 1.415 1_655 S
C408 C407 1.355 . S
C408 C410 1.419 . S
C409 C404 1.425 1_455 S
C409 C406 1.409 . S
C409 C407 1.415 1_455 S
C410 H400 0.930 . S
C410 C408 1.419 . S
C410 C411 1.362 . S
C411 H401 0.930 . S
C411 C404 1.409 . S
C411 C410 1.362 . S
H412 C418 0.930 . S
H413 C421 0.930 . S
H414 C422 0.930 . S
H415 C423 0.930 . S
H416 C426 0.930 . S
H417 C427 0.930 . S
C418 H412 0.930 . S
C418 C419 1.355 . S
C418 C420 1.415 . S
C419 C418 1.355 . S
C419 C421 1.419 1_545 S
C420 C418 1.415 . S
C420 C425 1.425 1_545 S
C420 C427 1.409 . S
C421 H413 0.930 . S
C421 C419 1.419 1_565 S
C421 C422 1.362 . S
C422 H414 0.930 . S
C422 C421 1.362 . S
C422 C425 1.409 . S
C423 H415 0.930 . S
C423 C424 1.355 . S
C423 C425 1.415 . S
C424 C423 1.355 . S
C424 C426 1.419 1_565 S
C425 C420 1.425 1_565 S
C425 C422 1.409 . S
C425 C423 1.415 . S
C426 H416 0.930 . S
C426 C424 1.419 1_545 S
C426 C427 1.362 . S
C427 H417 0.930 . S
C427 C420 1.409 . S
C427 C426 1.362 . S
H428 C434 0.930 . S
H429 C437 0.930 . S
H430 C438 0.930 . S
H431 C439 0.930 . S
H432 C442 0.930 . S
H433 C443 0.930 . S
C434 H428 0.930 . S
C434 C435 1.355 . S
C434 C436 1.415 . S
C435 C434 1.355 . S
C435 C437 1.419 . S
C436 C434 1.415 . S
C436 C441 1.425 . S
C436 C443 1.409 . S
C437 H429 0.930 . S
C437 C435 1.419 . S
C437 C438 1.362 . S
C438 H430 0.930 . S
C438 C437 1.362 . S
C438 C441 1.409 . S
C439 H431 0.930 . S
C439 C440 1.355 . S
C439 C441 1.415 . S
C440 C439 1.355 . S
C440 C442 1.419 . S
C441 C436 1.425 . S
C441 C438 1.409 . S
C441 C439 1.415 . S
C442 H432 0.930 . S
C442 C440 1.419 . S
C442 C443 1.362 . S
C443 H433 0.930 . S
C443 C436 1.409 . S
C443 C442 1.362 . S
H444 C450 0.930 . S
H445 C453 0.930 . S
H446 C454 0.930 . S
H447 C455 0.930 . S
H448 C458 0.930 . S
H449 C459 0.930 . S
C450 H444 0.930 . S
C450 C451 1.355 . S
C450 C452 1.415 . S
C451 C450 1.355 . S
C451 C453 1.419 . S
C452 C450 1.415 . S
C452 C457 1.425 . S
C452 C459 1.409 . S
C453 H445 0.930 . S
C453 C451 1.419 . S
C453 C454 1.362 . S
C454 H446 0.930 . S
C454 C453 1.362 . S
C454 C457 1.409 . S
C455 H447 0.930 . S
C455 C456 1.355 . S
C455 C457 1.415 . S
C456 C455 1.355 . S
C456 C458 1.419 . S
C457 C452 1.425 . S
C457 C454 1.409 . S
C457 C455 1.415 . S
C458 H448 0.930 . S
C458 C456 1.419 . S
C458 C459 1.362 . S
C459 H449 0.930 . S
C459 C452 1.409 . S
C459 C458 1.362 . S
H460 C466 0.930 . S
H461 C469 0.930 . S
H462 C470 0.930 . S
H463 C471 0.930 . S
H464 C474 0.930 . S
H465 C475 0.930 . S
C466 H460 0.930 . S
C466 C467 1.355 . S
C466 C468 1.415 . S
C467 C466 1.355 . S
C467 C469 1.419 . S
C468 C466 1.415 . S
C468 C473 1.425 . S
C468 C475 1.409 . S
C469 H461 0.930 . S
C469 C467 1.419 . S
C469 C470 1.362 . S
C470 H462 0.930 . S
C470 C469 1.362 . S
C470 C473 1.409 . S
C471 H463 0.930 . S
C471 C472 1.355 . S
C471 C473 1.415 . S
C472 C471 1.355 . S
C472 C474 1.419 . S
C473 C468 1.425 . S
C473 C470 1.409 . S
C473 C471 1.415 . S
C474 H464 0.930 . S
C474 C472 1.419 . S
C474 C475 1.362 . S
C475 H465 0.930 . S
C475 C468 1.409 . S
C475 C474 1.362 . S
H476 C482 0.930 . S
H477 C485 0.930 . S
H478 C486 0.930 . S
H479 C487 0.930 . S
H480 C490 0.930 . S
H481 C491 0.930 . S
C482 H476 0.930 . S
C482 C483 1.355 . S
C482 C484 1.415 . S
C483 C482 1.355 . S
C483 C485 1.419 . S
C484 C482 1.415 . S
C484 C489 1.425 . S
C484 C491 1.409 . S
C485 H477 0.930 . S
C485 C483 1.419 . S
C485 C486 1.362 . S
C486 H478 0.930 . S
C486 C485 1.362 . S
C486 C489 1.409 . S
C487 H479 0.930 . S
C487 C488 1.355 . S
C487 C489 1.415 . S
C488 C487 1.355 . S
C488 C490 1.419 . S
C489 C484 1.425 . S
C489 C486 1.409 . S
C489 C487 1.415 . S
C490 H480 0.930 . S
C490 C488 1.419 . S
C490 C491 1.362 . S
C491 H481 0.930 . S
C491 C484 1.409 . S
C491 C490 1.362 . S
H492 C498 0.930 . S
H493 C501 0.930 . S
H494 C502 0.930 . S
H495 C503 0.930 . S
H496 C506 0.930 . S
H497 C507 0.930 . S
C498 H492 0.930 . S
C498 C499 1.355 . S
C498 C500 1.415 . S
C499 C498 1.355 . S
C499 C501 1.419 . S
C500 C498 1.415 . S
C500 C505 1.425 . S
C500 C507 1.409 . S
C501 H493 0.930 . S
C501 C499 1.419 . S
C501 C502 1.362 . S
C502 H494 0.930 . S
C502 C501 1.362 . S
C502 C505 1.409 . S
C503 H495 0.930 . S
C503 C504 1.355 . S
C503 C505 1.415 . S
C504 C503 1.355 . S
C504 C506 1.419 . S
C505 C500 1.425 . S
C505 C502 1.409 . S
C505 C503 1.415 . S
C506 H496 0.930 . S
C506 C504 1.419 . S
C506 C507 1.362 . S
C507 H497 0.930 . S
C507 C500 1.409 . S
C507 C506 1.362 . S
H508 C514 0.930 . S
H509 C517 0.930 . S
H510 C518 0.930 . S
H511 C519 0.930 . S
H512 C522 0.930 . S
H513 C523 0.930 . S
C514 H508 0.930 . S
C514 C515 1.355 . S
C514 C516 1.415 . S
C515 C514 1.355 . S
C515 C517 1.419 . S
C516 C514 1.415 . S
C516 C521 1.425 . S
C516 C523 1.409 . S
C517 H509 0.930 . S
C517 C515 1.419 . S
C517 C518 1.362 . S
C518 H510 0.930 . S
C518 C517 1.362 . S
C518 C521 1.409 . S
C519 H511 0.930 . S
C519 C520 1.355 . S
C519 C521 1.415 . S
C520 C519 1.355 . S
C520 C522 1.419 . S
C521 C516 1.425 . S
C521 C518 1.409 . S
C521 C519 1.415 . S
C522 H512 0.930 . S
C522 C520 1.419 . S
C522 C523 1.362 . S
C523 H513 0.930 . S
C523 C516 1.409 . S
C523 C522 1.362 . S
H524 C530 0.930 . S
H525 C533 0.930 . S
H526 C534 0.930 . S
H527 C535 0.930 . S
H528 C538 0.930 . S
H529 C539 0.930 . S
C530 H524 0.930 . S
C530 C531 1.355 . S
C530 C532 1.415 . S
C531 C530 1.355 . S
C531 C533 1.419 . S
C532 C530 1.415 . S
C532 C537 1.425 . S
C532 C539 1.409 . S
C533 H525 0.930 . S
C533 C531 1.419 . S
C533 C534 1.362 . S
C534 H526 0.930 . S
C534 C533 1.362 . S
C534 C537 1.409 . S
C535 H527 0.930 . S
C535 C536 1.355 . S
C535 C537 1.415 . S
C536 C535 1.355 . S
C536 C538 1.419 . S
C537 C532 1.425 . S
C537 C534 1.409 . S
C537 C535 1.415 . S
C538 H528 0.930 . S
C538 C536 1.419 . S
C538 C539 1.362 . S
C539 H529 0.930 . S
C539 C532 1.409 . S
C539 C538 1.362 . S
C163 C10 1.348 . S
C168 C88 1.401 . S
C179 C23 1.399 . S
C184 C101 1.351 . S
C195 C36 1.326 . S
C200 C114 1.349 . S
C211 C127 1.387 . S
C216 C49 1.328 . S
C227 C62 1.335 . S
C232 C140 1.402 . S
C243 C153 1.323 . S
C248 C75 1.353 . S
C259 C8 0.944 . S
C264 C125 0.924 . S
C275 C21 0.871 . S
C280 C138 0.900 . S
C291 C151 0.810 . S
C296 C34 0.825 . S
C307 C86 0.948 . S
C312 C47 0.930 . S
C323 C60 0.948 . S
C328 C99 0.955 . S
C339 C73 0.921 . S
C344 C112 0.937 . S
C355 C143 1.749 . S
C360 C0 1.767 . S
C371 C13 1.768 . S
C376 C78 1.752 . S
C387 C26 1.774 . S
C392 C91 1.752 . S
C403 C104 1.723 . S
C408 C39 1.718 . S
C419 C117 1.802 . S
C424 C52 1.809 . S
C435 C65 1.722 . S
C440 C130 1.734 . S
C451 C5 0.713 . S
C456 C135 0.725 . S
C467 C148 0.849 . S
C472 C18 0.784 . S
C483 C83 0.902 . S
C488 C31 0.837 . S
C499 C44 0.943 . S
C504 C96 0.923 . S
C515 C109 0.928 . S
C520 C57 0.960 . S
C531 C122 0.736 . S
C536 C70 0.778 . S
