# Generated by pormake.
# Topology cbo, (4)-cn, num edge types: 1
# Building blocks:
#     Node 0, Type 0, BuildingBlock: GALJAG_clean_sbu_0, # of connection points: 4
#     Node 1, Type 0, BuildingBlock: GALJAG_clean_sbu_0, # of connection points: 4
#     Node 2, Type 0, BuildingBlock: GALJAG_clean_sbu_0, # of connection points: 4
#     Node 3, Type 0, BuildingBlock: GALJAG_clean_sbu_0, # of connection points: 4
#     Node 4, Type 0, BuildingBlock: GALJAG_clean_sbu_0, # of connection points: 4
#     Node 5, Type 0, BuildingBlock: GALJAG_clean_sbu_0, # of connection points: 4
#     Node 6, Type 0, BuildingBlock: GALJAG_clean_sbu_0, # of connection points: 4
#     Node 7, Type 0, BuildingBlock: GALJAG_clean_sbu_0, # of connection points: 4
#     Node 8, Type 0, BuildingBlock: GALJAG_clean_sbu_0, # of connection points: 4
#     Node 9, Type 0, BuildingBlock: GALJAG_clean_sbu_0, # of connection points: 4
#     Node 10, Type 0, BuildingBlock: GALJAG_clean_sbu_0, # of connection points: 4
#     Node 11, Type 0, BuildingBlock: GALJAG_clean_sbu_0, # of connection points: 4
#     Node 12, Type 0, BuildingBlock: GALJAG_clean_sbu_0, # of connection points: 4
#     Node 13, Type 0, BuildingBlock: GALJAG_clean_sbu_0, # of connection points: 4
#     Node 14, Type 0, BuildingBlock: GALJAG_clean_sbu_0, # of connection points: 4
#     Node 15, Type 0, BuildingBlock: GALJAG_clean_sbu_0, # of connection points: 4
#     Node 16, Type 0, BuildingBlock: GALJAG_clean_sbu_0, # of connection points: 4
#     Node 17, Type 0, BuildingBlock: GALJAG_clean_sbu_0, # of connection points: 4
#     Node 18, Type 0, BuildingBlock: GALJAG_clean_sbu_0, # of connection points: 4
#     Node 19, Type 0, BuildingBlock: GALJAG_clean_sbu_0, # of connection points: 4
#     Node 20, Type 0, BuildingBlock: GALJAG_clean_sbu_0, # of connection points: 4
#     Node 21, Type 0, BuildingBlock: GALJAG_clean_sbu_0, # of connection points: 4
#     Node 22, Type 0, BuildingBlock: GALJAG_clean_sbu_0, # of connection points: 4
#     Node 23, Type 0, BuildingBlock: GALJAG_clean_sbu_0, # of connection points: 4
#     Edge 24, Type (0, 0), BuildingBlock: OJICUG_clean_linker_0, # of connection points: 2
#     Edge 25, Type (0, 0), BuildingBlock: OJICUG_clean_linker_0, # of connection points: 2
#     Edge 26, Type (0, 0), BuildingBlock: OJICUG_clean_linker_0, # of connection points: 2
#     Edge 27, Type (0, 0), BuildingBlock: OJICUG_clean_linker_0, # of connection points: 2
#     Edge 28, Type (0, 0), BuildingBlock: OJICUG_clean_linker_0, # of connection points: 2
#     Edge 29, Type (0, 0), BuildingBlock: OJICUG_clean_linker_0, # of connection points: 2
#     Edge 30, Type (0, 0), BuildingBlock: OJICUG_clean_linker_0, # of connection points: 2
#     Edge 31, Type (0, 0), BuildingBlock: OJICUG_clean_linker_0, # of connection points: 2
#     Edge 32, Type (0, 0), BuildingBlock: OJICUG_clean_linker_0, # of connection points: 2
#     Edge 33, Type (0, 0), BuildingBlock: OJICUG_clean_linker_0, # of connection points: 2
#     Edge 34, Type (0, 0), BuildingBlock: OJICUG_clean_linker_0, # of connection points: 2
#     Edge 35, Type (0, 0), BuildingBlock: OJICUG_clean_linker_0, # of connection points: 2
#     Edge 36, Type (0, 0), BuildingBlock: OJICUG_clean_linker_0, # of connection points: 2
#     Edge 37, Type (0, 0), BuildingBlock: OJICUG_clean_linker_0, # of connection points: 2
#     Edge 38, Type (0, 0), BuildingBlock: OJICUG_clean_linker_0, # of connection points: 2
#     Edge 39, Type (0, 0), BuildingBlock: OJICUG_clean_linker_0, # of connection points: 2
#     Edge 40, Type (0, 0), BuildingBlock: OJICUG_clean_linker_0, # of connection points: 2
#     Edge 41, Type (0, 0), BuildingBlock: OJICUG_clean_linker_0, # of connection points: 2
#     Edge 42, Type (0, 0), BuildingBlock: OJICUG_clean_linker_0, # of connection points: 2
#     Edge 43, Type (0, 0), BuildingBlock: OJICUG_clean_linker_0, # of connection points: 2
#     Edge 44, Type (0, 0), BuildingBlock: OJICUG_clean_linker_0, # of connection points: 2
#     Edge 45, Type (0, 0), BuildingBlock: OJICUG_clean_linker_0, # of connection points: 2
#     Edge 46, Type (0, 0), BuildingBlock: OJICUG_clean_linker_0, # of connection points: 2
#     Edge 47, Type (0, 0), BuildingBlock: OJICUG_clean_linker_0, # of connection points: 2
#     Edge 48, Type (0, 0), BuildingBlock: OJICUG_clean_linker_0, # of connection points: 2
#     Edge 49, Type (0, 0), BuildingBlock: OJICUG_clean_linker_0, # of connection points: 2
#     Edge 50, Type (0, 0), BuildingBlock: OJICUG_clean_linker_0, # of connection points: 2
#     Edge 51, Type (0, 0), BuildingBlock: OJICUG_clean_linker_0, # of connection points: 2
#     Edge 52, Type (0, 0), BuildingBlock: OJICUG_clean_linker_0, # of connection points: 2
#     Edge 53, Type (0, 0), BuildingBlock: OJICUG_clean_linker_0, # of connection points: 2
#     Edge 54, Type (0, 0), BuildingBlock: OJICUG_clean_linker_0, # of connection points: 2
#     Edge 55, Type (0, 0), BuildingBlock: OJICUG_clean_linker_0, # of connection points: 2
#     Edge 56, Type (0, 0), BuildingBlock: OJICUG_clean_linker_0, # of connection points: 2
#     Edge 57, Type (0, 0), BuildingBlock: OJICUG_clean_linker_0, # of connection points: 2
#     Edge 58, Type (0, 0), BuildingBlock: OJICUG_clean_linker_0, # of connection points: 2
#     Edge 59, Type (0, 0), BuildingBlock: OJICUG_clean_linker_0, # of connection points: 2
#     Edge 60, Type (0, 0), BuildingBlock: OJICUG_clean_linker_0, # of connection points: 2
#     Edge 61, Type (0, 0), BuildingBlock: OJICUG_clean_linker_0, # of connection points: 2
#     Edge 62, Type (0, 0), BuildingBlock: OJICUG_clean_linker_0, # of connection points: 2
#     Edge 63, Type (0, 0), BuildingBlock: OJICUG_clean_linker_0, # of connection points: 2
#     Edge 64, Type (0, 0), BuildingBlock: OJICUG_clean_linker_0, # of connection points: 2
#     Edge 65, Type (0, 0), BuildingBlock: OJICUG_clean_linker_0, # of connection points: 2
#     Edge 66, Type (0, 0), BuildingBlock: OJICUG_clean_linker_0, # of connection points: 2
#     Edge 67, Type (0, 0), BuildingBlock: OJICUG_clean_linker_0, # of connection points: 2
#     Edge 68, Type (0, 0), BuildingBlock: OJICUG_clean_linker_0, # of connection points: 2
#     Edge 69, Type (0, 0), BuildingBlock: OJICUG_clean_linker_0, # of connection points: 2
#     Edge 70, Type (0, 0), BuildingBlock: OJICUG_clean_linker_0, # of connection points: 2
#     Edge 71, Type (0, 0), BuildingBlock: OJICUG_clean_linker_0, # of connection points: 2
# Relax obj value: 0.104
# Max RMSD: 0.141
# Mean RMSD: 0.141
data_MOF--net-cbo--node1-GALJAG_clean_sbu_0--edge1-OJICUG_clean_linker_0
_symmetry_space_group_name_H-M    P1
_symmetry_Int_Tables_number       1
_symmetry_cell_setting            triclinic
loop_
_symmetry_equiv_pos_as_xyz
'x, y, z'
_cell_length_a     38.281024
_cell_length_b     38.191427
_cell_length_c     38.242763
_cell_angle_alpha  90.012201
_cell_angle_beta   89.948468
_cell_angle_gamma 90.052001
loop_
_atom_site_label
_atom_site_type_symbol
_atom_site_fract_x
_atom_site_fract_y
_atom_site_fract_z
_atom_type_partial_charge
In0 In 0.06295 0.13745 0.29431 0.0
O1 O 0.01929 0.09648 0.29533 0.0
O2 O 0.00637 0.14924 0.30775 0.0
C3 C 0.11743 0.09568 0.27644 0.0
C4 C 0.07809 0.15682 0.36006 0.0
C5 C 0.06318 0.18343 0.24045 0.0
O6 O 0.08666 0.08978 0.26624 0.0
O7 O 0.12029 0.12155 0.29659 0.0
O8 O 0.0716 0.19187 0.27115 0.0
O9 O 0.05347 0.1521 0.23711 0.0
C10 C 0.99601 0.11807 0.30441 0.0
O11 O 0.08324 0.17658 0.33407 0.0
O12 O 0.06555 0.12703 0.35289 0.0
In13 In 0.43303 0.84249 0.78459 0.0
O14 O 0.4109 0.80487 0.82512 0.0
O15 O 0.43133 0.85358 0.84308 0.0
C16 C 0.43568 0.79794 0.72958 0.0
C17 C 0.49893 0.86488 0.79309 0.0
C18 C 0.37832 0.88328 0.76631 0.0
O19 O 0.42958 0.78762 0.7603 0.0
O20 O 0.44158 0.83024 0.727 0.0
O21 O 0.40947 0.89145 0.75944 0.0
O22 O 0.37492 0.85531 0.78338 0.0
C23 C 0.41711 0.82474 0.85078 0.0
O24 O 0.47449 0.88508 0.78404 0.0
O25 O 0.4902 0.83332 0.79768 0.0
In26 In 0.56015 0.35232 0.70451 0.0
O27 O 0.51792 0.39509 0.70776 0.0
O28 O 0.50436 0.3456 0.68626 0.0
C29 C 0.61655 0.38949 0.72462 0.0
C30 C 0.57674 0.33737 0.63791 0.0
C31 C 0.56037 0.30517 0.75733 0.0
O32 O 0.58581 0.40059 0.72956 0.0
O33 O 0.61846 0.36038 0.70922 0.0
O34 O 0.57193 0.29838 0.72724 0.0
O35 O 0.54736 0.33528 0.76044 0.0
C36 C 0.49461 0.37609 0.69409 0.0
O37 O 0.56277 0.31514 0.658 0.0
O38 O 0.58177 0.36723 0.65121 0.0
In39 In 0.92865 0.65487 0.2001 0.0
O40 O 0.96976 0.61149 0.20404 0.0
O41 O 0.98394 0.65935 0.17934 0.0
C42 C 0.87231 0.6187 0.22204 0.0
C43 C 0.91157 0.66916 0.1335 0.0
C44 C 0.93157 0.70103 0.25373 0.0
O45 O 0.90285 0.60625 0.22393 0.0
O46 O 0.87041 0.64876 0.20854 0.0
O47 O 0.91812 0.70846 0.22458 0.0
O48 O 0.94502 0.671 0.25522 0.0
C49 C 0.99306 0.62903 0.18852 0.0
O50 O 0.92629 0.69146 0.15299 0.0
O51 O 0.9057 0.63983 0.14756 0.0
In52 In 0.29118 0.05467 0.15418 0.0
O53 O 0.33909 0.05862 0.18963 0.0
O54 O 0.34343 0.07683 0.13711 0.0
C55 C 0.23875 0.05107 0.20168 0.0
C56 C 0.3016 0.99022 0.12735 0.0
C57 C 0.26973 0.11245 0.12005 0.0
O58 O 0.2687 0.06266 0.20909 0.0
O59 O 0.23579 0.03986 0.17085 0.0
O60 O 0.26753 0.08232 0.1065 0.0
O61 O 0.28285 0.11313 0.15026 0.0
C62 C 0.35805 0.07254 0.16638 0.0
O63 O 0.28561 0.01372 0.11056 0.0
O64 O 0.31166 -0.00085 0.15743 0.0
In65 In 0.20733 0.93419 0.6432 0.0
O66 O 0.16691 0.91852 0.68411 0.0
O67 O 0.14852 0.93685 0.63494 0.0
C68 C 0.26023 0.93228 0.68959 0.0
C69 C 0.20284 0.00031 0.61933 0.0
C70 C 0.22416 0.87802 0.60318 0.0
O71 O 0.22908 0.92542 0.69795 0.0
O72 O 0.26448 0.94118 0.6581 0.0
O73 O 0.23567 0.90832 0.59703 0.0
O74 O 0.20334 0.87638 0.62858 0.0
C75 C 0.14099 0.92537 0.66494 0.0
O76 O 0.19809 0.97396 0.59996 0.0
O77 O 0.21034 0.99331 0.6507 0.0
In78 In 0.79125 0.43518 0.84418 0.0
O79 O 0.78705 0.47888 0.88507 0.0
O80 O 0.81157 0.49036 0.83644 0.0
C81 C 0.76905 0.37942 0.88129 0.0
C82 C 0.85809 0.41709 0.83303 0.0
C83 C 0.73892 0.43597 0.79669 0.0
O84 O 0.76537 0.41038 0.89246 0.0
O85 O 0.7842 0.37697 0.85213 0.0
O86 O 0.76863 0.42328 0.79019 0.0
O87 O 0.73617 0.44971 0.82651 0.0
C88 C 0.80245 0.50123 0.86619 0.0
O89 O 0.83876 0.42852 0.80879 0.0
O90 O 0.84377 0.41523 0.86275 0.0
In91 In 0.70428 0.56471 0.34924 0.0
O92 O 0.68836 0.52678 0.39281 0.0
O93 O 0.70865 0.50544 0.34569 0.0
C94 C 0.72959 0.61814 0.38792 0.0
C95 C 0.63758 0.57867 0.33197 0.0
C96 C 0.7542 0.56928 0.29968 0.0
O97 O 0.73684 0.58659 0.39482 0.0
O98 O 0.70917 0.62226 0.36247 0.0
O99 O 0.72347 0.58031 0.29484 0.0
O100 O 0.75921 0.55484 0.32889 0.0
C101 C 0.69619 0.49968 0.37564 0.0
O102 O 0.65719 0.56088 0.31217 0.0
O103 O 0.65157 0.5888 0.36002 0.0
In104 In 0.14926 0.28576 0.06865 0.0
O105 O 0.1068 0.28287 0.02665 0.0
O106 O 0.15691 0.30231 0.0123 0.0
C107 C 0.10959 0.26203 0.12186 0.0
C108 C 0.16132 0.35336 0.08393 0.0
C109 C 0.19837 0.23497 0.07179 0.0
O110 O 0.10302 0.2544 0.09038 0.0
O111 O 0.13528 0.28224 0.1261 0.0
O112 O 0.20168 0.26404 0.08705 0.0
O113 O 0.17116 0.23221 0.05354 0.0
C114 C 0.12614 0.29529 0.00293 0.0
O115 O 0.18473 0.33372 0.07136 0.0
O116 O 0.13198 0.33893 0.08857 0.0
In117 In 0.64653 0.20682 0.93153 0.0
O118 O 0.6046 0.2095 0.97421 0.0
O119 O 0.65434 0.18855 0.98737 0.0
C120 C 0.60785 0.22922 0.87707 0.0
C121 C 0.65895 0.13972 0.91457 0.0
C122 C 0.69478 0.25868 0.93 0.0
O123 O 0.59923 0.2355 0.90837 0.0
O124 O 0.63521 0.21122 0.87363 0.0
O125 O 0.69997 0.22893 0.91674 0.0
O126 O 0.66591 0.26177 0.9455 0.0
C127 C 0.62383 0.19591 -0.00268 0.0
O128 O 0.68259 0.15964 0.92632 0.0
O129 O 0.62914 0.1536 0.91178 0.0
In130 In 0.85345 0.79147 0.43629 0.0
O131 O 0.81464 0.83743 0.43765 0.0
O132 O 0.86488 0.84556 0.4152 0.0
C133 C 0.80796 0.73754 0.43396 0.0
C134 C 0.88011 0.7984 0.50126 0.0
C135 C 0.88908 0.77096 0.37904 0.0
O136 O 0.79925 0.76853 0.42635 0.0
O137 O 0.83921 0.73409 0.44379 0.0
O138 O 0.89968 0.76392 0.40957 0.0
O139 O 0.86123 0.78848 0.37781 0.0
C140 C 0.83537 0.85825 0.42245 0.0
O141 O 0.89848 0.80258 0.47416 0.0
O142 O 0.84871 0.79037 0.49552 0.0
In143 In 0.34396 0.70275 0.55822 0.0
O144 O 0.38607 0.70071 0.51616 0.0
O145 O 0.33393 0.68764 0.50156 0.0
C146 C 0.38894 0.72333 0.60914 0.0
C147 C 0.32405 0.63764 0.57605 0.0
C148 C 0.29604 0.75507 0.55755 0.0
O149 O 0.36841 0.69788 0.61261 0.0
O150 O 0.38787 0.73759 0.57951 0.0
O151 O 0.2899 0.72546 0.57069 0.0
O152 O 0.32563 0.75772 0.54349 0.0
C153 C 0.36542 0.69109 0.49229 0.0
O154 O 0.35082 0.64359 0.55763 0.0
O155 O 0.30726 0.66453 0.58543 0.0
In156 In 0.934 0.86323 0.70458 0.0
O157 O 0.97298 0.90557 0.68903 0.0
O158 O 0.99279 0.85866 0.71162 0.0
C159 C 0.8791 0.90594 0.71801 0.0
C160 C 0.92288 0.83568 0.64055 0.0
C161 C 0.9333 0.8196 0.76017 0.0
O162 O 0.90909 0.91136 0.73048 0.0
O163 O 0.87731 0.88004 0.69778 0.0
O164 O 0.93333 0.80853 0.72905 0.0
O165 O 0.93448 0.85246 0.7631 0.0
C166 C -0.0006 0.88831 0.69863 0.0
O167 O 0.90947 0.82294 0.66791 0.0
O168 O 0.94227 0.86191 0.64555 0.0
In169 In 0.56113 0.15131 0.20429 0.0
O170 O 0.563 0.18709 0.15662 0.0
O171 O 0.5842 0.1357 0.15184 0.0
C172 C 0.55886 0.20002 0.25575 0.0
C173 C 0.49678 0.12445 0.19373 0.0
C174 C 0.61745 0.11538 0.22676 0.0
O175 O 0.57217 0.20588 0.22619 0.0
O176 O 0.54529 0.17014 0.25886 0.0
O177 O 0.58682 0.10333 0.22968 0.0
O178 O 0.61941 0.14488 0.21212 0.0
C179 C 0.57809 0.16481 0.13743 0.0
O180 O 0.5202 0.10769 0.2098 0.0
O181 O 0.50574 0.15452 0.18355 0.0
In182 In 0.43082 0.64193 0.28743 0.0
O183 O 0.47345 0.59952 0.28633 0.0
O184 O 0.48644 0.65027 0.30517 0.0
C185 C 0.37399 0.60546 0.2678 0.0
C186 C 0.41291 0.65734 0.35356 0.0
C187 C 0.43188 0.68696 0.23291 0.0
O188 O 0.4045 0.59329 0.26393 0.0
O189 O 0.37257 0.63532 0.28177 0.0
O190 O 0.42132 0.69554 0.26296 0.0
O191 O 0.44316 0.65606 0.2307 0.0
C192 C 0.49654 0.61953 0.29893 0.0
O193 O 0.42624 0.6798 0.33327 0.0
O194 O 0.4092 0.6271 0.34071 0.0
In195 In 0.06081 0.33745 0.79654 0.0
O196 O 0.01966 0.38037 0.78908 0.0
O197 O 0.00663 0.33638 0.82057 0.0
C198 C 0.11802 0.37204 0.77408 0.0
C199 C 0.07928 0.32378 0.86284 0.0
C200 C 0.05476 0.28996 0.74434 0.0
O201 O 0.08825 0.38632 0.77502 0.0
O202 O 0.11872 0.34078 0.78466 0.0
O203 O 0.06807 0.2826 0.77357 0.0
O204 O 0.04326 0.32075 0.74203 0.0
C205 C -0.00291 0.36525 0.80786 0.0
O206 O 0.06355 0.30153 0.8441 0.0
O207 O 0.08527 0.35283 0.84824 0.0
In208 In 0.70236 0.93788 0.83527 0.0
O209 O 0.65533 0.93324 0.79908 0.0
O210 O 0.65189 0.91073 0.85007 0.0
C211 C 0.75491 0.94643 0.78872 0.0
C212 C 0.68843 0.00096 0.86361 0.0
C213 C 0.72538 0.87999 0.86804 0.0
O214 O 0.72569 0.93368 0.78036 0.0
O215 O 0.757 0.95624 0.82009 0.0
O216 O 0.72296 0.90906 0.88373 0.0
O217 O 0.71632 0.88051 0.83636 0.0
C218 C 0.63732 0.9162 0.82098 0.0
O219 O 0.70833 0.97917 0.87841 0.0
O220 O 0.67596 0.99095 0.83483 0.0
In221 In 0.78765 0.06237 0.35153 0.0
O222 O 0.83456 0.06333 0.31473 0.0
O223 O 0.84084 0.08446 0.36598 0.0
C224 C 0.73705 0.06609 0.30218 0.0
C225 C 0.79863 0.99694 0.37585 0.0
C226 C 0.76445 0.11601 0.39116 0.0
O227 O 0.76638 0.08071 0.29889 0.0
O228 O 0.73376 0.0482 0.32965 0.0
O229 O 0.75485 0.08479 0.39654 0.0
O230 O 0.78635 0.11969 0.36681 0.0
C231 C 0.85452 0.07798 0.33662 0.0
O232 O 0.78735 0.02108 0.39539 0.0
O233 O 0.80353 0.00571 0.34449 0.0
In234 In 0.19909 0.56158 0.14854 0.0
O235 O 0.20316 0.51836 0.10711 0.0
O236 O 0.17872 0.50635 0.15564 0.0
C237 C 0.22251 0.61672 0.11121 0.0
C238 C 0.13237 0.5796 0.1606 0.0
C239 C 0.25105 0.56025 0.19637 0.0
O240 O 0.22564 0.5856 0.10034 0.0
O241 O 0.20707 0.61974 0.14018 0.0
O242 O 0.22176 0.57412 0.20231 0.0
O243 O 0.25355 0.5457 0.16693 0.0
C244 C 0.1879 0.49577 0.12582 0.0
O245 O 0.15165 0.56686 0.18419 0.0
O246 O 0.14666 0.58291 0.13099 0.0
In247 In 0.28597 0.43283 0.6498 0.0
O248 O 0.29622 0.47108 0.60506 0.0
O249 O 0.28572 0.49217 0.65542 0.0
C250 C 0.25973 0.38088 0.60982 0.0
C251 C 0.35339 0.41924 0.66462 0.0
C252 C 0.23713 0.42547 0.70025 0.0
O253 O 0.24973 0.41224 0.60665 0.0
O254 O 0.28343 0.37624 0.63215 0.0
O255 O 0.26716 0.41203 0.7026 0.0
O256 O 0.23246 0.44396 0.67337 0.0
C257 C 0.29292 0.49808 0.62379 0.0
O258 O 0.33383 0.43513 0.68604 0.0
O259 O 0.339 0.4109 0.63618 0.0
In260 In 0.84682 0.70938 0.92616 0.0
O261 O 0.88897 0.71006 0.96875 0.0
O262 O 0.83785 0.69315 0.98248 0.0
C263 C 0.88966 0.73674 0.87713 0.0
C264 C 0.83282 0.64253 0.9094 0.0
C265 C 0.79608 0.75805 0.919 0.0
O266 O 0.87035 0.71059 0.87155 0.0
O267 O 0.8887 0.74819 0.9081 0.0
O268 O 0.79712 0.73041 0.90106 0.0
O269 O 0.81956 0.76031 0.94192 0.0
C270 C 0.86878 0.69864 0.99225 0.0
O271 O 0.80998 0.66263 0.9223 0.0
O272 O 0.86263 0.65613 0.90514 0.0
In273 In 0.34905 0.78603 0.05735 0.0
O274 O 0.3926 0.79915 0.01846 0.0
O275 O 0.34301 0.78468 -0.00185 0.0
C276 C 0.38717 0.76181 0.1114 0.0
C277 C 0.33339 0.85273 0.07388 0.0
C278 C 0.3008 0.7347 0.06157 0.0
O279 O 0.39465 0.75418 0.0801 0.0
O280 O 0.36125 0.78178 0.11493 0.0
O281 O 0.29457 0.76578 0.07102 0.0
O282 O 0.33082 0.72995 0.04881 0.0
C283 C 0.37391 0.79412 0.99177 0.0
O284 O 0.31159 0.83306 0.05865 0.0
O285 O 0.36272 0.83896 0.07969 0.0
In286 In 0.13933 0.20417 0.5662 0.0
O287 O 0.09762 0.18743 0.52721 0.0
O288 O 0.14515 0.20848 0.50716 0.0
C289 C 0.09654 0.21801 0.62095 0.0
C290 C 0.16696 0.14044 0.57825 0.0
C291 C 0.1817 0.26069 0.56602 0.0
O292 O 0.09094 0.22991 0.59073 0.0
O293 O 0.1226 0.1981 0.62302 0.0
O294 O 0.19326 0.22982 0.5683 0.0
O295 O 0.14901 0.26288 0.56278 0.0
C296 C 0.11559 0.19535 0.50064 0.0
O297 O 0.17977 0.16798 0.59129 0.0
O298 O 0.14069 0.14518 0.55899 0.0
In299 In 0.64392 0.29262 0.43248 0.0
O300 O 0.68297 0.33324 0.41337 0.0
O301 O 0.63238 0.35097 0.42865 0.0
C302 C 0.68834 0.23745 0.43453 0.0
C303 C 0.62261 0.30314 0.49869 0.0
C304 C 0.60407 0.27508 0.37667 0.0
O305 O 0.6981 0.26798 0.42668 0.0
O306 O 0.65654 0.23502 0.4426 0.0
O307 O 0.59543 0.26738 0.40757 0.0
O308 O 0.6319 0.29246 0.37424 0.0
C309 C 0.66239 0.3588 0.41725 0.0
O310 O 0.60208 0.29266 0.47507 0.0
O311 O 0.65383 0.30759 0.48908 0.0
C312 C 0.09805 0.25776 0.18583 0.0
C313 C 0.09176 0.24546 0.1518 0.0
H314 H 0.09329 0.248 0.24069 0.0
C315 C 0.0718 0.21494 0.14719 0.0
H316 H 0.11317 0.28136 0.19014 0.0
C317 C 0.06063 0.19563 0.1762 0.0
C318 C 0.06897 0.20676 0.21023 0.0
H319 H 0.06657 0.20489 0.12122 0.0
H320 H 0.04692 0.17118 0.17194 0.0
C321 C 0.08662 0.23868 0.21478 0.0
C322 C 0.41701 0.74165 0.70186 0.0
C323 C 0.43098 0.77549 0.6985 0.0
H324 H 0.39297 0.69824 0.67583 0.0
C325 C 0.43609 0.78949 0.66489 0.0
H326 H 0.41294 0.73014 0.72743 0.0
C327 C 0.42475 0.77122 0.63537 0.0
C328 C 0.40802 0.73869 0.63897 0.0
H329 H 0.44703 0.81543 0.66148 0.0
H330 H 0.42717 0.78357 0.60998 0.0
C331 C 0.40556 0.72341 0.67232 0.0
C332 C 0.55578 0.29188 0.8213 0.0
C333 C 0.5665 0.28193 0.78756 0.0
H334 H 0.56018 0.28254 0.87642 0.0
C335 C 0.58696 0.25171 0.7835 0.0
H336 H 0.5399 0.31502 0.82518 0.0
C337 C 0.59873 0.23336 0.81275 0.0
C338 C 0.59001 0.24469 0.84659 0.0
H339 H 0.59551 0.2433 0.75783 0.0
H340 H 0.61594 0.21119 0.80886 0.0
C341 C 0.56734 0.27329 0.85062 0.0
C342 C 0.90522 0.75276 0.28351 0.0
C343 C 0.92674 0.72308 0.2851 0.0
H344 H 0.87657 0.79129 0.31218 0.0
C345 C 0.93964 0.71215 0.31776 0.0
H346 H 0.89495 0.76188 0.25875 0.0
C347 C 0.92921 0.72914 0.34847 0.0
C348 C 0.90551 0.75713 0.34696 0.0
H349 H 0.95637 0.68937 0.31976 0.0
H350 H 0.9381 0.71912 0.37341 0.0
C351 C 0.8946 0.76953 0.31414 0.0
C352 C 0.21158 0.07494 0.25611 0.0
C353 C 0.20828 0.05568 0.225 0.0
H354 H 0.18519 0.10246 0.29708 0.0
C355 C 0.17483 0.04507 0.21408 0.0
H356 H 0.23701 0.08337 0.26526 0.0
C357 C 0.1451 0.0559 0.23242 0.0
C358 C 0.14833 0.07767 0.26185 0.0
H359 H 0.17148 0.03006 0.19028 0.0
H360 H 0.11959 0.04905 0.22226 0.0
C361 C 0.18188 0.08591 0.27431 0.0
C362 C 0.31409 0.89331 0.76216 0.0
C363 C 0.3481 0.90173 0.75119 0.0
H364 H 0.25936 0.89711 0.75151 0.0
C365 C 0.35268 0.9244 0.72264 0.0
H366 H 0.30984 0.876 0.7842 0.0
C367 C 0.32381 0.93611 0.70365 0.0
C368 C 0.28991 0.92575 0.71323 0.0
H369 H 0.37862 0.93131 0.71363 0.0
H370 H 0.32814 0.95194 0.68053 0.0
C371 C 0.28521 0.90544 0.74348 0.0
C372 C 0.67534 0.44313 0.78314 0.0
C373 C 0.7084 0.43003 0.77384 0.0
H374 H 0.62004 0.44087 0.77436 0.0
C375 C 0.71118 0.40731 0.74512 0.0
H376 H 0.67245 0.46078 0.80513 0.0
C377 C 0.68124 0.39571 0.72782 0.0
C378 C 0.64799 0.40689 0.73865 0.0
H379 H 0.73628 0.39684 0.73727 0.0
H380 H 0.68406 0.37675 0.70692 0.0
C381 C 0.64535 0.43178 0.76554 0.0
C382 C 0.80782 0.61425 0.2302 0.0
C383 C 0.84144 0.60145 0.23747 0.0
H384 H 0.75357 0.61346 0.24378 0.0
C385 C 0.84539 0.57464 0.26225 0.0
H386 H 0.804 0.63478 0.21104 0.0
C387 C 0.81653 0.56267 0.28125 0.0
C388 C 0.78322 0.577 0.27543 0.0
H389 H 0.87101 0.56429 0.26833 0.0
H390 H 0.82056 0.54328 0.30152 0.0
C391 C 0.77892 0.60196 0.24885 0.0
C392 C 0.23248 0.14221 0.07521 0.0
C393 C 0.25579 0.14438 0.10344 0.0
H394 H 0.19595 0.16957 0.04276 0.0
C395 C 0.26344 0.17732 0.11789 0.0
H396 H 0.2262 0.11714 0.06354 0.0
C397 C 0.24648 0.20729 0.10582 0.0
C398 C 0.22128 0.20483 0.07929 0.0
H399 H 0.28159 0.1798 0.13948 0.0
H400 H 0.25177 0.23206 0.11859 0.0
C401 C 0.21521 0.17221 0.06333 0.0
C402 C 0.76383 0.31474 0.88758 0.0
C403 C 0.75419 0.34839 0.89885 0.0
H404 H 0.75303 0.25984 0.88924 0.0
C405 C 0.72787 0.35185 0.92421 0.0
H406 H 0.78426 0.31127 0.86826 0.0
C407 C 0.70976 0.32228 0.93611 0.0
C408 C 0.71796 0.28884 0.92307 0.0
H409 H 0.71996 0.37748 0.93337 0.0
H410 H 0.68828 0.32582 0.95422 0.0
C411 C 0.74602 0.28525 0.89969 0.0
C412 C 0.75316 0.71149 0.40994 0.0
C413 C 0.78492 0.70712 0.42772 0.0
H414 H 0.71063 0.68655 0.38357 0.0
C415 C 0.7961 0.67308 0.43614 0.0
H416 H 0.74382 0.73738 0.40316 0.0
C417 C 0.77691 0.64389 0.42512 0.0
C418 C 0.74643 0.6483 0.40524 0.0
H419 H 0.82044 0.66893 0.44996 0.0
H420 H 0.78695 0.61794 0.43055 0.0
C421 C 0.73419 0.68236 0.39867 0.0
C422 C 0.2655 0.84889 0.56173 0.0
C423 C 0.2378 0.84635 0.5857 0.0
H424 H 0.30552 0.82169 0.5336 0.0
C425 C 0.22617 0.81302 0.59609 0.0
H426 H 0.27492 0.87422 0.55312 0.0
C427 C 0.24364 0.78292 0.58487 0.0
C428 C 0.2731 0.78565 0.56313 0.0
H429 H 0.20473 0.81023 0.6144 0.0
H430 H 0.23529 0.75773 0.59487 0.0
C431 C 0.28302 0.81879 0.55056 0.0
C432 C 0.91952 0.78986 0.85338 0.0
C433 C 0.90738 0.75552 0.84839 0.0
H434 H 0.93731 0.83718 0.82916 0.0
C435 C 0.90811 0.74104 0.8146 0.0
H436 H 0.91923 0.80173 0.87911 0.0
C437 C 0.91866 0.76127 0.78602 0.0
C438 C 0.92833 0.79643 0.79069 0.0
H439 H 0.89901 0.71457 0.81 0.0
H440 H 0.91744 0.74992 0.76008 0.0
C441 C 0.92975 0.8102 0.82475 0.0
C442 C 0.55148 0.2145 0.31915 0.0
C443 C 0.56398 0.22374 0.28583 0.0
H444 H 0.55404 0.22402 0.37433 0.0
C445 C 0.58546 0.25338 0.2824 0.0
H446 H 0.53477 0.19185 0.32256 0.0
C447 C 0.59663 0.27161 0.312 0.0
C448 C 0.58632 0.26072 0.34555 0.0
H449 H 0.59538 0.26124 0.25705 0.0
H450 H 0.6148 0.29312 0.3087 0.0
C451 C 0.56247 0.23294 0.34879 0.0
C452 C 0.43577 0.69742 0.16837 0.0
C453 C 0.4266 0.70938 0.20193 0.0
H454 H 0.43076 0.70503 0.11301 0.0
C455 C 0.40849 0.74114 0.20525 0.0
H456 H 0.44983 0.67304 0.16505 0.0
C457 C 0.39745 0.75922 0.17558 0.0
C458 C 0.40452 0.74606 0.142 0.0
H459 H 0.40119 0.75111 0.23075 0.0
H460 H 0.38203 0.78276 0.17898 0.0
C461 C 0.42491 0.71571 0.13859 0.0
C462 C 0.05641 0.26044 0.65029 0.0
C463 C 0.07848 0.23117 0.65244 0.0
H464 H 0.03117 0.302 0.67809 0.0
C465 C 0.08745 0.218 0.68555 0.0
H466 H 0.04896 0.27109 0.62513 0.0
C467 C 0.07723 0.23564 0.71587 0.0
C468 C 0.05797 0.26681 0.71357 0.0
H469 H 0.10423 0.1953 0.68801 0.0
H470 H 0.08641 0.22612 0.74091 0.0
C471 C 0.04627 0.27816 0.68063 0.0
C472 C 0.81867 0.95541 0.77798 0.0
C473 C 0.78593 0.94398 0.76587 0.0
H474 H 0.87421 0.95272 0.77179 0.0
C475 C 0.78409 0.92538 0.73425 0.0
H476 H 0.82086 0.97001 0.80217 0.0
C477 C 0.81464 0.91539 0.71693 0.0
C478 C 0.8475 0.92397 0.73087 0.0
H479 H 0.75921 0.91641 0.72415 0.0
H480 H 0.81251 0.89902 0.69389 0.0
C481 C 0.84924 0.94555 0.76056 0.0
C482 C 0.64504 0.07123 0.26657 0.0
C483 C 0.64852 0.09824 0.24189 0.0
H484 H 0.67064 0.0396 0.30511 0.0
C485 C 0.68199 0.11122 0.23413 0.0
H486 H 0.61954 0.06072 0.273 0.0
C487 C 0.71118 0.09898 0.25221 0.0
C488 C 0.70745 0.07373 0.27864 0.0
H489 H 0.6855 0.13185 0.215 0.0
H490 H 0.7364 0.11063 0.24669 0.0
C491 C 0.67428 0.05917 0.28492 0.0
C492 C 0.30929 0.60038 0.2647 0.0
C493 C 0.34231 0.58827 0.25419 0.0
H494 H 0.25429 0.6003 0.25509 0.0
C495 C 0.34451 0.56274 0.22788 0.0
H496 H 0.30683 0.61984 0.28518 0.0
C497 C 0.31433 0.5517 0.21041 0.0
C498 C 0.28156 0.56578 0.21929 0.0
H499 H 0.36965 0.55295 0.21933 0.0
H500 H 0.31691 0.53356 0.18878 0.0
C501 C 0.27917 0.5891 0.24755 0.0
C502 C 0.21157 0.38739 0.74672 0.0
C503 C 0.20812 0.41596 0.72389 0.0
H504 H 0.18557 0.35102 0.78043 0.0
C505 C 0.17543 0.43241 0.72073 0.0
H506 H 0.23641 0.37414 0.74966 0.0
C507 C 0.14631 0.41932 0.7386 0.0
C508 C 0.14935 0.38928 0.75954 0.0
H509 H 0.17203 0.45454 0.70335 0.0
H510 H 0.12114 0.43164 0.73464 0.0
C511 C 0.18241 0.37404 0.76419 0.0
C512 C 0.775 0.81942 0.92845 0.0
C513 C 0.77307 0.78767 0.90991 0.0
H514 H 0.76104 0.87383 0.92981 0.0
C515 C 0.75226 0.78583 0.87977 0.0
H516 H 0.79087 0.82157 0.95179 0.0
C517 C 0.73563 0.81568 0.86707 0.0
C518 C 0.73919 0.84791 0.88441 0.0
H519 H 0.75021 0.76174 0.86496 0.0
H520 H 0.72092 0.81374 0.84296 0.0
C521 C 0.75803 0.84932 0.91586 0.0
C522 C 0.22968 0.68125 0.10424 0.0
C523 C 0.23857 0.64716 0.09365 0.0
H524 H 0.24202 0.73586 0.10175 0.0
C525 C 0.26533 0.64256 0.06896 0.0
H526 H 0.209 0.68557 0.1231 0.0
C527 C 0.2845 0.67138 0.05698 0.0
C528 C 0.27689 0.70528 0.06916 0.0
H529 H 0.27272 0.61658 0.06036 0.0
H530 H 0.30618 0.66694 0.03932 0.0
C531 C 0.24852 0.71007 0.09194 0.0
C532 C 0.20902 0.35509 0.57766 0.0
C533 C 0.24234 0.35112 0.59242 0.0
H534 H 0.16353 0.32929 0.55763 0.0
C535 C 0.2572 0.31754 0.59422 0.0
H536 H 0.19694 0.38067 0.57599 0.0
C537 C 0.23825 0.2882 0.58346 0.0
C538 C 0.20394 0.29189 0.57109 0.0
H539 H 0.28295 0.31375 0.60533 0.0
H540 H 0.2498 0.26251 0.58662 0.0
C541 C 0.18989 0.32567 0.56725 0.0
C542 C 0.69809 0.1727 0.43736 0.0
C543 C 0.71084 0.2064 0.42976 0.0
H544 H 0.70547 0.11736 0.43151 0.0
C545 C 0.74366 0.20983 0.41371 0.0
H546 H 0.67291 0.16927 0.44985 0.0
C547 C 0.76213 0.18017 0.40304 0.0
C548 C 0.74828 0.14652 0.40849 0.0
H549 H 0.75423 0.23544 0.40762 0.0
H550 H 0.78653 0.18368 0.38908 0.0
C551 C 0.71674 0.14298 0.42693 0.0
C552 C 0.07939 0.16078 0.45879 0.0
C553 C 0.10427 0.18715 0.46477 0.0
H554 H 0.05207 0.13 0.42072 0.0
C555 C 0.11975 0.20412 0.43612 0.0
H556 H 0.06726 0.14713 0.48047 0.0
C557 C 0.11064 0.19474 0.40202 0.0
C558 C 0.08654 0.16765 0.39604 0.0
H559 H 0.13903 0.22453 0.44007 0.0
H560 H 0.12309 0.20811 0.38034 0.0
C561 C 0.07089 0.15083 0.42468 0.0
C562 C 0.4142 0.82358 0.94961 0.0
C563 C 0.3865 0.80029 0.95588 0.0
H564 H 0.44523 0.85009 0.91111 0.0
C565 C 0.36982 0.78413 0.92744 0.0
H566 H 0.42737 0.83647 0.97112 0.0
C567 C 0.38049 0.79133 0.89324 0.0
C568 C 0.40741 0.8155 0.88691 0.0
H569 H 0.34842 0.76602 0.93163 0.0
H570 H 0.36703 0.77873 0.87174 0.0
C571 C 0.42428 0.83147 0.91535 0.0
C572 C 0.6282 0.33727 0.5538 0.0
C573 C 0.61078 0.31145 0.53435 0.0
H574 H 0.63034 0.36632 0.60166 0.0
C575 C 0.58177 0.29434 0.54899 0.0
H576 H 0.65049 0.35099 0.54294 0.0
C577 C 0.57077 0.30252 0.58291 0.0
C578 C 0.58794 0.32871 0.60213 0.0
H579 H 0.56795 0.27434 0.53441 0.0
H580 H 0.54861 0.28873 0.59393 0.0
C581 C 0.61656 0.34619 0.58722 0.0
C582 C 0.87317 0.65852 0.08218 0.0
C583 C 0.90112 0.67685 0.09728 0.0
H584 H 0.84068 0.65167 0.0372 0.0
C585 C 0.91869 0.70243 0.07756 0.0
H586 H 0.85914 0.63876 0.09691 0.0
C587 C 0.90866 0.70922 0.04303 0.0
C588 C 0.88028 0.69125 0.02821 0.0
H589 H 0.94041 0.71681 0.08868 0.0
H590 H 0.92266 0.72888 0.02815 0.0
C591 C 0.86255 0.66599 0.04812 0.0
C592 C 0.41358 0.07114 0.20108 0.0
C593 C 0.39399 0.08466 0.17313 0.0
H594 H 0.46212 0.07273 0.22918 0.0
C595 C 0.40868 0.11073 0.15183 0.0
H596 H 0.4028 0.05097 0.21783 0.0
C597 C 0.44205 0.12364 0.15876 0.0
C598 C 0.46173 0.11016 0.18662 0.0
H599 H 0.39409 0.12172 0.13019 0.0
H600 H 0.45255 0.14408 0.14214 0.0
C601 C 0.44744 0.08349 0.20751 0.0
C602 C 0.04236 0.92545 0.6665 0.0
C603 C 0.0354 0.90045 0.69251 0.0
H604 H 0.08154 0.95264 0.63705 0.0
C605 C 0.06332 0.88545 0.71095 0.0
H606 H 0.02126 0.93731 0.65182 0.0
C607 C 0.09772 0.89468 0.70295 0.0
C608 C 0.10473 0.91846 0.67584 0.0
H609 H 0.05858 0.86618 0.7312 0.0
H610 H 0.11883 0.88223 0.71709 0.0
C611 C 0.07678 0.9341 0.65797 0.0
C612 C 0.94327 0.36886 0.84417 0.0
C613 C 0.96213 0.37983 0.81464 0.0
H614 H 0.89576 0.37267 0.8734 0.0
C615 C 0.94697 0.404 0.79153 0.0
H616 H 0.95446 0.35036 0.86247 0.0
C617 C 0.91302 0.41625 0.79742 0.0
C618 C 0.89418 0.40517 0.82697 0.0
H619 H 0.961 0.41276 0.76853 0.0
H620 H 0.90155 0.4344 0.77895 0.0
C621 C 0.90977 0.38172 0.85049 0.0
C622 C 0.54751 0.57894 0.29061 0.0
C623 C 0.53242 0.60819 0.307 0.0
H624 H 0.59335 0.54688 0.28517 0.0
C625 C 0.55206 0.62727 0.33142 0.0
H626 H 0.53287 0.56389 0.2716 0.0
C627 C 0.58603 0.61725 0.33959 0.0
C628 C 0.60143 0.58836 0.32297 0.0
H629 H 0.54103 0.64985 0.34456 0.0
H630 H 0.60043 0.63247 0.35867 0.0
C631 C 0.58202 0.56933 0.29824 0.0
C632 C 0.14673 0.40631 0.11889 0.0
C633 C 0.16789 0.39009 0.09368 0.0
H634 H 0.13697 0.4524 0.14915 0.0
C635 C 0.19543 0.40907 0.07845 0.0
H636 H 0.1254 0.39221 0.13111 0.0
C637 C 0.20158 0.44385 0.08823 0.0
C638 C 0.18085 0.45974 0.11404 0.0
H639 H 0.21203 0.3971 0.05886 0.0
H640 H 0.22295 0.45805 0.07619 0.0
C641 C 0.15342 0.44067 0.12928 0.0
C642 C 0.65023 0.05348 0.86732 0.0
C643 C 0.68034 0.03567 0.8783 0.0
H644 H 0.61958 0.10015 0.87079 0.0
C645 C 0.7029 0.05177 0.90238 0.0
H646 H 0.63233 0.04155 0.84889 0.0
C647 C 0.69593 0.08566 0.91443 0.0
C648 C 0.66589 0.10353 0.9032 0.0
H649 H 0.72633 0.03856 0.91116 0.0
H650 H 0.71403 0.0979 0.93244 0.0
C651 C 0.64287 0.08693 0.87995 0.0
C652 C 0.83329 0.94231 0.37103 0.0
C653 C 0.8075 0.96162 0.38856 0.0
H654 H 0.86266 0.89484 0.3686 0.0
C655 C 0.79082 0.94689 0.41783 0.0
H656 H 0.84669 0.95313 0.34853 0.0
C657 C 0.79944 0.91296 0.4289 0.0
C658 C 0.82558 0.89391 0.41147 0.0
H659 H 0.77081 0.96133 0.43172 0.0
H660 H 0.78603 0.90181 0.45124 0.0
C661 C 0.84255 0.90902 0.38264 0.0
C662 C 0.28727 0.56299 0.6294 0.0
C663 C 0.29876 0.53377 0.61029 0.0
H664 H 0.28578 0.61897 0.63308 0.0
C665 C 0.31727 0.53898 0.579 0.0
H666 H 0.2729 0.55968 0.6536 0.0
C667 C 0.32523 0.57285 0.56766 0.0
C668 C 0.31411 0.60203 0.58701 0.0
H669 H 0.32646 0.51689 0.5638 0.0
H670 H 0.3402 0.57621 0.54384 0.0
C671 C 0.29454 0.59686 0.61764 0.0
C672 C 0.87422 0.79296 0.56603 0.0
C673 C 0.89335 0.80467 0.53693 0.0
H674 H 0.86901 0.79306 0.62178 0.0
C675 C 0.92385 0.8244 0.54229 0.0
H676 H 0.85067 0.77758 0.56261 0.0
C677 C 0.93405 0.8337 0.57615 0.0
C678 C 0.91428 0.82289 0.60518 0.0
H679 H 0.93905 0.8338 0.5203 0.0
H680 H 0.95701 0.84996 0.57955 0.0
C681 C 0.88476 0.80172 0.59987 0.0
C682 C 0.62808 0.1617 0.05248 0.0
C683 C 0.61157 0.18804 0.03297 0.0
H684 H 0.62982 0.13324 0.10065 0.0
C685 C 0.58351 0.20647 0.04779 0.0
H686 H 0.64966 0.14696 0.04154 0.0
C687 C 0.57262 0.1991 0.08196 0.0
C688 C 0.58904 0.17255 0.10133 0.0
H689 H 0.57041 0.22692 0.03322 0.0
H690 H 0.55122 0.21393 0.0931 0.0
C691 C 0.61663 0.15373 0.08619 0.0
C692 C 0.41793 0.69221 0.40857 0.0
C693 C 0.40107 0.66604 0.3891 0.0
H694 H 0.42019 0.72015 0.45722 0.0
C695 C 0.37229 0.64846 0.4036 0.0
H696 H 0.4402 0.70608 0.39786 0.0
C697 C 0.36023 0.65723 0.43693 0.0
C698 C 0.37744 0.68295 0.45668 0.0
H699 H 0.35876 0.62833 0.38893 0.0
H700 H 0.33786 0.64343 0.44752 0.0
C701 C 0.40655 0.7002 0.4424 0.0
C702 C 0.13059 0.32774 0.94679 0.0
C703 C 0.11375 0.30227 0.9672 0.0
H704 H 0.13231 0.35492 0.89791 0.0
C705 C 0.08523 0.28388 0.95319 0.0
H706 H 0.15254 0.34239 0.95708 0.0
C707 C 0.07412 0.29052 0.91898 0.0
C708 C 0.09078 0.31631 0.89877 0.0
H709 H 0.07189 0.26407 0.96847 0.0
H710 H 0.05228 0.27584 0.9085 0.0
C711 C 0.11893 0.33501 0.91304 0.0
C712 C 0.58077 0.92 0.78878 0.0
C713 C 0.60216 0.90291 0.81315 0.0
H714 H 0.53066 0.92157 0.76379 0.0
C715 C 0.58971 0.87286 0.83026 0.0
H716 H 0.58987 0.94325 0.77533 0.0
C717 C 0.55639 0.85998 0.82301 0.0
C718 C 0.53466 0.87752 0.79927 0.0
H719 H 0.60588 0.85914 0.84902 0.0
H720 H 0.54734 0.83676 0.83655 0.0
C721 C 0.54701 0.90768 0.78227 0.0
C722 C 0.90616 0.11671 0.34496 0.0
C723 C 0.89076 0.08786 0.32826 0.0
H724 H 0.95142 0.14933 0.34973 0.0
C725 C 0.91013 0.06892 0.30344 0.0
H726 H 0.89167 0.13181 0.36407 0.0
C727 C 0.94464 0.07841 0.29589 0.0
C728 C 0.9598 0.10763 0.31222 0.0
H729 H 0.89876 0.04651 0.2903 0.0
H730 H 0.95929 0.06324 0.27696 0.0
C731 C 0.94021 0.12682 0.33663 0.0
C732 C 0.08117 0.61692 0.14606 0.0
C733 C 0.09631 0.59116 0.16735 0.0
H734 H 0.03671 0.64948 0.1366 0.0
C735 C 0.07702 0.57729 0.19538 0.0
H736 H 0.09556 0.62813 0.12437 0.0
C737 C 0.04299 0.58897 0.20192 0.0
C738 C 0.02823 0.61535 0.18109 0.0
H739 H 0.08816 0.55732 0.2121 0.0
H740 H 0.02854 0.57795 0.22366 0.0
C741 C 0.0476 0.62922 0.15315 0.0
C742 C 0.40911 0.42609 0.69875 0.0
C743 C 0.3898 0.40931 0.67236 0.0
H744 H 0.45817 0.42915 0.72597 0.0
C745 C 0.40541 0.38222 0.65312 0.0
H746 H 0.39764 0.44712 0.71388 0.0
C747 C 0.43941 0.37158 0.66044 0.0
C748 C 0.45887 0.3883 0.68666 0.0
H749 H 0.39113 0.36875 0.63269 0.0
H750 H 0.45058 0.35033 0.64535 0.0
C751 C 0.44365 0.41593 0.70556 0.0
C752 C 0.84564 0.58974 0.87345 0.0
C753 C 0.82513 0.60619 0.89904 0.0
H754 H 0.854 0.54376 0.8426 0.0
C755 C 0.79714 0.58778 0.91418 0.0
H756 H 0.86728 0.60343 0.86129 0.0
C757 C 0.79001 0.55329 0.90403 0.0
C758 C 0.81016 0.53715 0.87792 0.0
H759 H 0.78102 0.59992 0.93406 0.0
H760 H 0.7684 0.5395 0.9161 0.0
C761 C 0.83795 0.5557 0.86267 0.0
C762 C 0.34518 0.90294 0.11338 0.0
C763 C 0.32503 0.88826 0.08644 0.0
H764 H 0.35308 0.94639 0.14767 0.0
C765 C 0.29697 0.90747 0.07262 0.0
H766 H 0.36685 0.88866 0.12467 0.0
C767 C 0.28945 0.94103 0.08545 0.0
C768 C 0.30935 0.95532 0.11284 0.0
H769 H 0.28106 0.89667 0.05183 0.0
H770 H 0.26781 0.95553 0.07439 0.0
C771 C 0.33719 0.93592 0.12669 0.0
C772 C 0.20793 0.06512 0.62731 0.0
C773 C 0.19719 0.03642 0.60699 0.0
H774 H 0.20732 0.1209 0.63368 0.0
C775 C 0.17891 0.04245 0.57576 0.0
H776 H 0.22218 0.06116 0.65145 0.0
C777 C 0.16999 0.07647 0.56591 0.0
C778 C 0.17975 0.1051 0.58678 0.0
H779 H 0.1703 0.02081 0.5596 0.0
H780 H 0.15483 0.08031 0.54232 0.0
C781 C 0.19955 0.09925 0.61711 0.0
C782 C 0.69942 0.40124 0.38427 0.0
C783 C 0.67234 0.39497 0.40823 0.0
H784 H 0.72792 0.43953 0.35484 0.0
C785 C 0.65434 0.42349 0.42282 0.0
H786 H 0.71367 0.37969 0.37262 0.0
C787 C 0.66306 0.45775 0.41329 0.0
C788 C 0.68932 0.46393 0.38838 0.0
H789 H 0.63346 0.41931 0.4415 0.0
H790 H 0.6485 0.47931 0.42453 0.0
C791 C 0.70754 0.43542 0.37409 0.0
loop_
_geom_bond_atom_site_label_1
_geom_bond_atom_site_label_2
_geom_bond_distance
_geom_bond_site_symmetry_2
_ccdc_geom_bond_type
In0 O1 2.294 . S
In0 O2 2.326 . S
In0 O6 2.266 . S
In0 O7 2.326 . S
In0 O8 2.266 . S
In0 O9 2.326 . S
In0 O11 2.294 . S
In0 O12 2.326 . S
O1 In0 2.294 . S
O1 C10 1.240 . S
O2 In0 2.326 . S
O2 C10 1.252 . S
C3 O6 1.252 . S
C3 O7 1.260 . S
C4 O11 1.240 . S
C4 O12 1.252 . S
C5 O8 1.252 . S
C5 O9 1.260 . S
O6 In0 2.266 . S
O6 C3 1.252 . S
O7 In0 2.326 . S
O7 C3 1.260 . S
O8 In0 2.266 . S
O8 C5 1.252 . S
O9 In0 2.326 . S
O9 C5 1.260 . S
C10 O1 1.240 . S
C10 O2 1.252 . S
O11 In0 2.294 . S
O11 C4 1.240 . S
O12 In0 2.326 . S
O12 C4 1.252 . S
In13 O14 2.294 . S
In13 O15 2.326 . S
In13 O19 2.266 . S
In13 O20 2.326 . S
In13 O21 2.266 . S
In13 O22 2.326 . S
In13 O24 2.294 . S
In13 O25 2.326 . S
O14 In13 2.294 . S
O14 C23 1.240 . S
O15 In13 2.326 . S
O15 C23 1.252 . S
C16 O19 1.252 . S
C16 O20 1.260 . S
C17 O24 1.240 . S
C17 O25 1.252 . S
C18 O21 1.252 . S
C18 O22 1.260 . S
O19 In13 2.266 . S
O19 C16 1.252 . S
O20 In13 2.326 . S
O20 C16 1.260 . S
O21 In13 2.266 . S
O21 C18 1.252 . S
O22 In13 2.326 . S
O22 C18 1.260 . S
C23 O14 1.240 . S
C23 O15 1.252 . S
O24 In13 2.294 . S
O24 C17 1.240 . S
O25 In13 2.326 . S
O25 C17 1.252 . S
In26 O27 2.294 . S
In26 O28 2.326 . S
In26 O32 2.266 . S
In26 O33 2.326 . S
In26 O34 2.266 . S
In26 O35 2.326 . S
In26 O37 2.294 . S
In26 O38 2.326 . S
O27 In26 2.294 . S
O27 C36 1.240 . S
O28 In26 2.326 . S
O28 C36 1.252 . S
C29 O32 1.252 . S
C29 O33 1.260 . S
C30 O37 1.240 . S
C30 O38 1.252 . S
C31 O34 1.252 . S
C31 O35 1.260 . S
O32 In26 2.266 . S
O32 C29 1.252 . S
O33 In26 2.326 . S
O33 C29 1.260 . S
O34 In26 2.266 . S
O34 C31 1.252 . S
O35 In26 2.326 . S
O35 C31 1.260 . S
C36 O27 1.240 . S
C36 O28 1.252 . S
O37 In26 2.294 . S
O37 C30 1.240 . S
O38 In26 2.326 . S
O38 C30 1.252 . S
In39 O40 2.294 . S
In39 O41 2.326 . S
In39 O45 2.266 . S
In39 O46 2.326 . S
In39 O47 2.266 . S
In39 O48 2.326 . S
In39 O50 2.294 . S
In39 O51 2.326 . S
O40 In39 2.294 . S
O40 C49 1.240 . S
O41 In39 2.326 . S
O41 C49 1.252 . S
C42 O45 1.252 . S
C42 O46 1.260 . S
C43 O50 1.240 . S
C43 O51 1.252 . S
C44 O47 1.252 . S
C44 O48 1.260 . S
O45 In39 2.266 . S
O45 C42 1.252 . S
O46 In39 2.326 . S
O46 C42 1.260 . S
O47 In39 2.266 . S
O47 C44 1.252 . S
O48 In39 2.326 . S
O48 C44 1.260 . S
C49 O40 1.240 . S
C49 O41 1.252 . S
O50 In39 2.294 . S
O50 C43 1.240 . S
O51 In39 2.326 . S
O51 C43 1.252 . S
In52 O53 2.294 . S
In52 O54 2.326 . S
In52 O58 2.266 . S
In52 O59 2.326 . S
In52 O60 2.266 . S
In52 O61 2.326 . S
In52 O63 2.294 . S
In52 O64 2.326 . S
O53 In52 2.294 . S
O53 C62 1.240 . S
O54 In52 2.326 . S
O54 C62 1.252 . S
C55 O58 1.252 . S
C55 O59 1.260 . S
C56 O63 1.240 . S
C56 O64 1.252 . S
C57 O60 1.252 . S
C57 O61 1.260 . S
O58 In52 2.266 . S
O58 C55 1.252 . S
O59 In52 2.326 . S
O59 C55 1.260 . S
O60 In52 2.266 . S
O60 C57 1.252 . S
O61 In52 2.326 . S
O61 C57 1.260 . S
C62 O53 1.240 . S
C62 O54 1.252 . S
O63 In52 2.294 . S
O63 C56 1.240 . S
O64 In52 2.326 . S
O64 C56 1.252 . S
In65 O66 2.294 . S
In65 O67 2.326 . S
In65 O71 2.266 . S
In65 O72 2.326 . S
In65 O73 2.266 . S
In65 O74 2.326 . S
In65 O76 2.294 . S
In65 O77 2.326 . S
O66 In65 2.294 . S
O66 C75 1.240 . S
O67 In65 2.326 . S
O67 C75 1.252 . S
C68 O71 1.252 . S
C68 O72 1.260 . S
C69 O76 1.240 . S
C69 O77 1.252 . S
C70 O73 1.252 . S
C70 O74 1.260 . S
O71 In65 2.266 . S
O71 C68 1.252 . S
O72 In65 2.326 . S
O72 C68 1.260 . S
O73 In65 2.266 . S
O73 C70 1.252 . S
O74 In65 2.326 . S
O74 C70 1.260 . S
C75 O66 1.240 . S
C75 O67 1.252 . S
O76 In65 2.294 . S
O76 C69 1.240 . S
O77 In65 2.326 . S
O77 C69 1.252 . S
In78 O79 2.294 . S
In78 O80 2.326 . S
In78 O84 2.266 . S
In78 O85 2.326 . S
In78 O86 2.266 . S
In78 O87 2.326 . S
In78 O89 2.294 . S
In78 O90 2.326 . S
O79 In78 2.294 . S
O79 C88 1.240 . S
O80 In78 2.326 . S
O80 C88 1.252 . S
C81 O84 1.252 . S
C81 O85 1.260 . S
C82 O89 1.240 . S
C82 O90 1.252 . S
C83 O86 1.252 . S
C83 O87 1.260 . S
O84 In78 2.266 . S
O84 C81 1.252 . S
O85 In78 2.326 . S
O85 C81 1.260 . S
O86 In78 2.266 . S
O86 C83 1.252 . S
O87 In78 2.326 . S
O87 C83 1.260 . S
C88 O79 1.240 . S
C88 O80 1.252 . S
O89 In78 2.294 . S
O89 C82 1.240 . S
O90 In78 2.326 . S
O90 C82 1.252 . S
In91 O92 2.294 . S
In91 O93 2.326 . S
In91 O97 2.266 . S
In91 O98 2.326 . S
In91 O99 2.266 . S
In91 O100 2.326 . S
In91 O102 2.294 . S
In91 O103 2.326 . S
O92 In91 2.294 . S
O92 C101 1.240 . S
O93 In91 2.326 . S
O93 C101 1.252 . S
C94 O97 1.252 . S
C94 O98 1.260 . S
C95 O102 1.240 . S
C95 O103 1.252 . S
C96 O99 1.252 . S
C96 O100 1.260 . S
O97 In91 2.266 . S
O97 C94 1.252 . S
O98 In91 2.326 . S
O98 C94 1.260 . S
O99 In91 2.266 . S
O99 C96 1.252 . S
O100 In91 2.326 . S
O100 C96 1.260 . S
C101 O92 1.240 . S
C101 O93 1.252 . S
O102 In91 2.294 . S
O102 C95 1.240 . S
O103 In91 2.326 . S
O103 C95 1.252 . S
In104 O105 2.294 . S
In104 O106 2.326 . S
In104 O110 2.266 . S
In104 O111 2.326 . S
In104 O112 2.266 . S
In104 O113 2.326 . S
In104 O115 2.294 . S
In104 O116 2.326 . S
O105 In104 2.294 . S
O105 C114 1.240 . S
O106 In104 2.326 . S
O106 C114 1.252 . S
C107 O110 1.252 . S
C107 O111 1.260 . S
C108 O115 1.240 . S
C108 O116 1.252 . S
C109 O112 1.252 . S
C109 O113 1.260 . S
O110 In104 2.266 . S
O110 C107 1.252 . S
O111 In104 2.326 . S
O111 C107 1.260 . S
O112 In104 2.266 . S
O112 C109 1.252 . S
O113 In104 2.326 . S
O113 C109 1.260 . S
C114 O105 1.240 . S
C114 O106 1.252 . S
O115 In104 2.294 . S
O115 C108 1.240 . S
O116 In104 2.326 . S
O116 C108 1.252 . S
In117 O118 2.294 . S
In117 O119 2.326 . S
In117 O123 2.266 . S
In117 O124 2.326 . S
In117 O125 2.266 . S
In117 O126 2.326 . S
In117 O128 2.294 . S
In117 O129 2.326 . S
O118 In117 2.294 . S
O118 C127 1.240 . S
O119 In117 2.326 . S
O119 C127 1.252 . S
C120 O123 1.252 . S
C120 O124 1.260 . S
C121 O128 1.240 . S
C121 O129 1.252 . S
C122 O125 1.252 . S
C122 O126 1.260 . S
O123 In117 2.266 . S
O123 C120 1.252 . S
O124 In117 2.326 . S
O124 C120 1.260 . S
O125 In117 2.266 . S
O125 C122 1.252 . S
O126 In117 2.326 . S
O126 C122 1.260 . S
C127 O118 1.240 . S
C127 O119 1.252 . S
O128 In117 2.294 . S
O128 C121 1.240 . S
O129 In117 2.326 . S
O129 C121 1.252 . S
In130 O131 2.294 . S
In130 O132 2.326 . S
In130 O136 2.266 . S
In130 O137 2.326 . S
In130 O138 2.266 . S
In130 O139 2.326 . S
In130 O141 2.294 . S
In130 O142 2.326 . S
O131 In130 2.294 . S
O131 C140 1.240 . S
O132 In130 2.326 . S
O132 C140 1.252 . S
C133 O136 1.252 . S
C133 O137 1.260 . S
C134 O141 1.240 . S
C134 O142 1.252 . S
C135 O138 1.252 . S
C135 O139 1.260 . S
O136 In130 2.266 . S
O136 C133 1.252 . S
O137 In130 2.326 . S
O137 C133 1.260 . S
O138 In130 2.266 . S
O138 C135 1.252 . S
O139 In130 2.326 . S
O139 C135 1.260 . S
C140 O131 1.240 . S
C140 O132 1.252 . S
O141 In130 2.294 . S
O141 C134 1.240 . S
O142 In130 2.326 . S
O142 C134 1.252 . S
In143 O144 2.294 . S
In143 O145 2.326 . S
In143 O149 2.266 . S
In143 O150 2.326 . S
In143 O151 2.266 . S
In143 O152 2.326 . S
In143 O154 2.294 . S
In143 O155 2.326 . S
O144 In143 2.294 . S
O144 C153 1.240 . S
O145 In143 2.326 . S
O145 C153 1.252 . S
C146 O149 1.252 . S
C146 O150 1.260 . S
C147 O154 1.240 . S
C147 O155 1.252 . S
C148 O151 1.252 . S
C148 O152 1.260 . S
O149 In143 2.266 . S
O149 C146 1.252 . S
O150 In143 2.326 . S
O150 C146 1.260 . S
O151 In143 2.266 . S
O151 C148 1.252 . S
O152 In143 2.326 . S
O152 C148 1.260 . S
C153 O144 1.240 . S
C153 O145 1.252 . S
O154 In143 2.294 . S
O154 C147 1.240 . S
O155 In143 2.326 . S
O155 C147 1.252 . S
In156 O157 2.294 . S
In156 O158 2.326 . S
In156 O162 2.266 . S
In156 O163 2.326 . S
In156 O164 2.266 . S
In156 O165 2.326 . S
In156 O167 2.294 . S
In156 O168 2.326 . S
O157 In156 2.294 . S
O157 C166 1.240 . S
O158 In156 2.326 . S
O158 C166 1.252 . S
C159 O162 1.252 . S
C159 O163 1.260 . S
C160 O167 1.240 . S
C160 O168 1.252 . S
C161 O164 1.252 . S
C161 O165 1.260 . S
O162 In156 2.266 . S
O162 C159 1.252 . S
O163 In156 2.326 . S
O163 C159 1.260 . S
O164 In156 2.266 . S
O164 C161 1.252 . S
O165 In156 2.326 . S
O165 C161 1.260 . S
C166 O157 1.240 . S
C166 O158 1.252 . S
O167 In156 2.294 . S
O167 C160 1.240 . S
O168 In156 2.326 . S
O168 C160 1.252 . S
In169 O170 2.294 . S
In169 O171 2.326 . S
In169 O175 2.266 . S
In169 O176 2.326 . S
In169 O177 2.266 . S
In169 O178 2.326 . S
In169 O180 2.294 . S
In169 O181 2.326 . S
O170 In169 2.294 . S
O170 C179 1.240 . S
O171 In169 2.326 . S
O171 C179 1.252 . S
C172 O175 1.252 . S
C172 O176 1.260 . S
C173 O180 1.240 . S
C173 O181 1.252 . S
C174 O177 1.252 . S
C174 O178 1.260 . S
O175 In169 2.266 . S
O175 C172 1.252 . S
O176 In169 2.326 . S
O176 C172 1.260 . S
O177 In169 2.266 . S
O177 C174 1.252 . S
O178 In169 2.326 . S
O178 C174 1.260 . S
C179 O170 1.240 . S
C179 O171 1.252 . S
O180 In169 2.294 . S
O180 C173 1.240 . S
O181 In169 2.326 . S
O181 C173 1.252 . S
In182 O183 2.294 . S
In182 O184 2.326 . S
In182 O188 2.266 . S
In182 O189 2.326 . S
In182 O190 2.266 . S
In182 O191 2.326 . S
In182 O193 2.294 . S
In182 O194 2.326 . S
O183 In182 2.294 . S
O183 C192 1.240 . S
O184 In182 2.326 . S
O184 C192 1.252 . S
C185 O188 1.252 . S
C185 O189 1.260 . S
C186 O193 1.240 . S
C186 O194 1.252 . S
C187 O190 1.252 . S
C187 O191 1.260 . S
O188 In182 2.266 . S
O188 C185 1.252 . S
O189 In182 2.326 . S
O189 C185 1.260 . S
O190 In182 2.266 . S
O190 C187 1.252 . S
O191 In182 2.326 . S
O191 C187 1.260 . S
C192 O183 1.240 . S
C192 O184 1.252 . S
O193 In182 2.294 . S
O193 C186 1.240 . S
O194 In182 2.326 . S
O194 C186 1.252 . S
In195 O196 2.294 . S
In195 O197 2.326 . S
In195 O201 2.266 . S
In195 O202 2.326 . S
In195 O203 2.266 . S
In195 O204 2.326 . S
In195 O206 2.294 . S
In195 O207 2.326 . S
O196 In195 2.294 . S
O196 C205 1.240 . S
O197 In195 2.326 . S
O197 C205 1.252 . S
C198 O201 1.252 . S
C198 O202 1.260 . S
C199 O206 1.240 . S
C199 O207 1.252 . S
C200 O203 1.252 . S
C200 O204 1.260 . S
O201 In195 2.266 . S
O201 C198 1.252 . S
O202 In195 2.326 . S
O202 C198 1.260 . S
O203 In195 2.266 . S
O203 C200 1.252 . S
O204 In195 2.326 . S
O204 C200 1.260 . S
C205 O196 1.240 . S
C205 O197 1.252 . S
O206 In195 2.294 . S
O206 C199 1.240 . S
O207 In195 2.326 . S
O207 C199 1.252 . S
In208 O209 2.294 . S
In208 O210 2.326 . S
In208 O214 2.266 . S
In208 O215 2.326 . S
In208 O216 2.266 . S
In208 O217 2.326 . S
In208 O219 2.294 . S
In208 O220 2.326 . S
O209 In208 2.294 . S
O209 C218 1.240 . S
O210 In208 2.326 . S
O210 C218 1.252 . S
C211 O214 1.252 . S
C211 O215 1.260 . S
C212 O219 1.240 . S
C212 O220 1.252 . S
C213 O216 1.252 . S
C213 O217 1.260 . S
O214 In208 2.266 . S
O214 C211 1.252 . S
O215 In208 2.326 . S
O215 C211 1.260 . S
O216 In208 2.266 . S
O216 C213 1.252 . S
O217 In208 2.326 . S
O217 C213 1.260 . S
C218 O209 1.240 . S
C218 O210 1.252 . S
O219 In208 2.294 . S
O219 C212 1.240 . S
O220 In208 2.326 . S
O220 C212 1.252 . S
In221 O222 2.294 . S
In221 O223 2.326 . S
In221 O227 2.266 . S
In221 O228 2.326 . S
In221 O229 2.266 . S
In221 O230 2.326 . S
In221 O232 2.294 . S
In221 O233 2.326 . S
O222 In221 2.294 . S
O222 C231 1.240 . S
O223 In221 2.326 . S
O223 C231 1.252 . S
C224 O227 1.252 . S
C224 O228 1.260 . S
C225 O232 1.240 . S
C225 O233 1.252 . S
C226 O229 1.252 . S
C226 O230 1.260 . S
O227 In221 2.266 . S
O227 C224 1.252 . S
O228 In221 2.326 . S
O228 C224 1.260 . S
O229 In221 2.266 . S
O229 C226 1.252 . S
O230 In221 2.326 . S
O230 C226 1.260 . S
C231 O222 1.240 . S
C231 O223 1.252 . S
O232 In221 2.294 . S
O232 C225 1.240 . S
O233 In221 2.326 . S
O233 C225 1.252 . S
In234 O235 2.294 . S
In234 O236 2.326 . S
In234 O240 2.266 . S
In234 O241 2.326 . S
In234 O242 2.266 . S
In234 O243 2.326 . S
In234 O245 2.294 . S
In234 O246 2.326 . S
O235 In234 2.294 . S
O235 C244 1.240 . S
O236 In234 2.326 . S
O236 C244 1.252 . S
C237 O240 1.252 . S
C237 O241 1.260 . S
C238 O245 1.240 . S
C238 O246 1.252 . S
C239 O242 1.252 . S
C239 O243 1.260 . S
O240 In234 2.266 . S
O240 C237 1.252 . S
O241 In234 2.326 . S
O241 C237 1.260 . S
O242 In234 2.266 . S
O242 C239 1.252 . S
O243 In234 2.326 . S
O243 C239 1.260 . S
C244 O235 1.240 . S
C244 O236 1.252 . S
O245 In234 2.294 . S
O245 C238 1.240 . S
O246 In234 2.326 . S
O246 C238 1.252 . S
In247 O248 2.294 . S
In247 O249 2.326 . S
In247 O253 2.266 . S
In247 O254 2.326 . S
In247 O255 2.266 . S
In247 O256 2.326 . S
In247 O258 2.294 . S
In247 O259 2.326 . S
O248 In247 2.294 . S
O248 C257 1.240 . S
O249 In247 2.326 . S
O249 C257 1.252 . S
C250 O253 1.252 . S
C250 O254 1.260 . S
C251 O258 1.240 . S
C251 O259 1.252 . S
C252 O255 1.252 . S
C252 O256 1.260 . S
O253 In247 2.266 . S
O253 C250 1.252 . S
O254 In247 2.326 . S
O254 C250 1.260 . S
O255 In247 2.266 . S
O255 C252 1.252 . S
O256 In247 2.326 . S
O256 C252 1.260 . S
C257 O248 1.240 . S
C257 O249 1.252 . S
O258 In247 2.294 . S
O258 C251 1.240 . S
O259 In247 2.326 . S
O259 C251 1.252 . S
In260 O261 2.294 . S
In260 O262 2.326 . S
In260 O266 2.266 . S
In260 O267 2.326 . S
In260 O268 2.266 . S
In260 O269 2.326 . S
In260 O271 2.294 . S
In260 O272 2.326 . S
O261 In260 2.294 . S
O261 C270 1.240 . S
O262 In260 2.326 . S
O262 C270 1.252 . S
C263 O266 1.252 . S
C263 O267 1.260 . S
C264 O271 1.240 . S
C264 O272 1.252 . S
C265 O268 1.252 . S
C265 O269 1.260 . S
O266 In260 2.266 . S
O266 C263 1.252 . S
O267 In260 2.326 . S
O267 C263 1.260 . S
O268 In260 2.266 . S
O268 C265 1.252 . S
O269 In260 2.326 . S
O269 C265 1.260 . S
C270 O261 1.240 . S
C270 O262 1.252 . S
O271 In260 2.294 . S
O271 C264 1.240 . S
O272 In260 2.326 . S
O272 C264 1.252 . S
In273 O274 2.294 . S
In273 O275 2.326 . S
In273 O279 2.266 . S
In273 O280 2.326 . S
In273 O281 2.266 . S
In273 O282 2.326 . S
In273 O284 2.294 . S
In273 O285 2.326 . S
O274 In273 2.294 . S
O274 C283 1.240 . S
O275 In273 2.326 . S
O275 C283 1.252 . S
C276 O279 1.252 . S
C276 O280 1.260 . S
C277 O284 1.240 . S
C277 O285 1.252 . S
C278 O281 1.252 . S
C278 O282 1.260 . S
O279 In273 2.266 . S
O279 C276 1.252 . S
O280 In273 2.326 . S
O280 C276 1.260 . S
O281 In273 2.266 . S
O281 C278 1.252 . S
O282 In273 2.326 . S
O282 C278 1.260 . S
C283 O274 1.240 . S
C283 O275 1.252 . S
O284 In273 2.294 . S
O284 C277 1.240 . S
O285 In273 2.326 . S
O285 C277 1.252 . S
In286 O287 2.294 . S
In286 O288 2.326 . S
In286 O292 2.266 . S
In286 O293 2.326 . S
In286 O294 2.266 . S
In286 O295 2.326 . S
In286 O297 2.294 . S
In286 O298 2.326 . S
O287 In286 2.294 . S
O287 C296 1.240 . S
O288 In286 2.326 . S
O288 C296 1.252 . S
C289 O292 1.252 . S
C289 O293 1.260 . S
C290 O297 1.240 . S
C290 O298 1.252 . S
C291 O294 1.252 . S
C291 O295 1.260 . S
O292 In286 2.266 . S
O292 C289 1.252 . S
O293 In286 2.326 . S
O293 C289 1.260 . S
O294 In286 2.266 . S
O294 C291 1.252 . S
O295 In286 2.326 . S
O295 C291 1.260 . S
C296 O287 1.240 . S
C296 O288 1.252 . S
O297 In286 2.294 . S
O297 C290 1.240 . S
O298 In286 2.326 . S
O298 C290 1.252 . S
In299 O300 2.294 . S
In299 O301 2.326 . S
In299 O305 2.266 . S
In299 O306 2.326 . S
In299 O307 2.266 . S
In299 O308 2.326 . S
In299 O310 2.294 . S
In299 O311 2.326 . S
O300 In299 2.294 . S
O300 C309 1.240 . S
O301 In299 2.326 . S
O301 C309 1.252 . S
C302 O305 1.252 . S
C302 O306 1.260 . S
C303 O310 1.240 . S
C303 O311 1.252 . S
C304 O307 1.252 . S
C304 O308 1.260 . S
O305 In299 2.266 . S
O305 C302 1.252 . S
O306 In299 2.326 . S
O306 C302 1.260 . S
O307 In299 2.266 . S
O307 C304 1.252 . S
O308 In299 2.326 . S
O308 C304 1.260 . S
C309 O300 1.240 . S
C309 O301 1.252 . S
O310 In299 2.294 . S
O310 C303 1.240 . S
O311 In299 2.326 . S
O311 C303 1.252 . S
C312 C313 1.387 . S
C312 H316 0.950 . S
C312 C321 1.390 . S
C313 C312 1.387 . S
C313 C315 1.387 . S
H314 C321 0.950 . S
C315 C313 1.387 . S
C315 C317 1.390 . S
C315 H319 0.950 . S
H316 C312 0.950 . S
C317 C315 1.390 . S
C317 C318 1.387 . S
C317 H320 0.950 . S
C318 C317 1.387 . S
C318 C321 1.387 . S
H319 C315 0.950 . S
H320 C317 0.950 . S
C321 C312 1.390 . S
C321 H314 0.950 . S
C321 C318 1.387 . S
C322 C323 1.387 . S
C322 H326 0.950 . S
C322 C331 1.390 . S
C323 C322 1.387 . S
C323 C325 1.387 . S
H324 C331 0.950 . S
C325 C323 1.387 . S
C325 C327 1.390 . S
C325 H329 0.950 . S
H326 C322 0.950 . S
C327 C325 1.390 . S
C327 C328 1.387 . S
C327 H330 0.950 . S
C328 C327 1.387 . S
C328 C331 1.387 . S
H329 C325 0.950 . S
H330 C327 0.950 . S
C331 C322 1.390 . S
C331 H324 0.950 . S
C331 C328 1.387 . S
C332 C333 1.387 . S
C332 H336 0.950 . S
C332 C341 1.390 . S
C333 C332 1.387 . S
C333 C335 1.387 . S
H334 C341 0.950 . S
C335 C333 1.387 . S
C335 C337 1.390 . S
C335 H339 0.950 . S
H336 C332 0.950 . S
C337 C335 1.390 . S
C337 C338 1.387 . S
C337 H340 0.950 . S
C338 C337 1.387 . S
C338 C341 1.387 . S
H339 C335 0.950 . S
H340 C337 0.950 . S
C341 C332 1.390 . S
C341 H334 0.950 . S
C341 C338 1.387 . S
C342 C343 1.387 . S
C342 H346 0.950 . S
C342 C351 1.390 . S
C343 C342 1.387 . S
C343 C345 1.387 . S
H344 C351 0.950 . S
C345 C343 1.387 . S
C345 C347 1.390 . S
C345 H349 0.950 . S
H346 C342 0.950 . S
C347 C345 1.390 . S
C347 C348 1.387 . S
C347 H350 0.950 . S
C348 C347 1.387 . S
C348 C351 1.387 . S
H349 C345 0.950 . S
H350 C347 0.950 . S
C351 C342 1.390 . S
C351 H344 0.950 . S
C351 C348 1.387 . S
C352 C353 1.387 . S
C352 H356 0.950 . S
C352 C361 1.390 . S
C353 C352 1.387 . S
C353 C355 1.387 . S
H354 C361 0.950 . S
C355 C353 1.387 . S
C355 C357 1.390 . S
C355 H359 0.950 . S
H356 C352 0.950 . S
C357 C355 1.390 . S
C357 C358 1.387 . S
C357 H360 0.950 . S
C358 C357 1.387 . S
C358 C361 1.387 . S
H359 C355 0.950 . S
H360 C357 0.950 . S
C361 C352 1.390 . S
C361 H354 0.950 . S
C361 C358 1.387 . S
C362 C363 1.387 . S
C362 H366 0.950 . S
C362 C371 1.390 . S
C363 C362 1.387 . S
C363 C365 1.387 . S
H364 C371 0.950 . S
C365 C363 1.387 . S
C365 C367 1.390 . S
C365 H369 0.950 . S
H366 C362 0.950 . S
C367 C365 1.390 . S
C367 C368 1.387 . S
C367 H370 0.950 . S
C368 C367 1.387 . S
C368 C371 1.387 . S
H369 C365 0.950 . S
H370 C367 0.950 . S
C371 C362 1.390 . S
C371 H364 0.950 . S
C371 C368 1.387 . S
C372 C373 1.387 . S
C372 H376 0.950 . S
C372 C381 1.390 . S
C373 C372 1.387 . S
C373 C375 1.387 . S
H374 C381 0.950 . S
C375 C373 1.387 . S
C375 C377 1.390 . S
C375 H379 0.950 . S
H376 C372 0.950 . S
C377 C375 1.390 . S
C377 C378 1.387 . S
C377 H380 0.950 . S
C378 C377 1.387 . S
C378 C381 1.387 . S
H379 C375 0.950 . S
H380 C377 0.950 . S
C381 C372 1.390 . S
C381 H374 0.950 . S
C381 C378 1.387 . S
C382 C383 1.387 . S
C382 H386 0.950 . S
C382 C391 1.390 . S
C383 C382 1.387 . S
C383 C385 1.387 . S
H384 C391 0.950 . S
C385 C383 1.387 . S
C385 C387 1.390 . S
C385 H389 0.950 . S
H386 C382 0.950 . S
C387 C385 1.390 . S
C387 C388 1.387 . S
C387 H390 0.950 . S
C388 C387 1.387 . S
C388 C391 1.387 . S
H389 C385 0.950 . S
H390 C387 0.950 . S
C391 C382 1.390 . S
C391 H384 0.950 . S
C391 C388 1.387 . S
C392 C393 1.387 . S
C392 H396 0.950 . S
C392 C401 1.390 . S
C393 C392 1.387 . S
C393 C395 1.387 . S
H394 C401 0.950 . S
C395 C393 1.387 . S
C395 C397 1.390 . S
C395 H399 0.950 . S
H396 C392 0.950 . S
C397 C395 1.390 . S
C397 C398 1.387 . S
C397 H400 0.950 . S
C398 C397 1.387 . S
C398 C401 1.387 . S
H399 C395 0.950 . S
H400 C397 0.950 . S
C401 C392 1.390 . S
C401 H394 0.950 . S
C401 C398 1.387 . S
C402 C403 1.387 . S
C402 H406 0.950 . S
C402 C411 1.390 . S
C403 C402 1.387 . S
C403 C405 1.387 . S
H404 C411 0.950 . S
C405 C403 1.387 . S
C405 C407 1.390 . S
C405 H409 0.950 . S
H406 C402 0.950 . S
C407 C405 1.390 . S
C407 C408 1.387 . S
C407 H410 0.950 . S
C408 C407 1.387 . S
C408 C411 1.387 . S
H409 C405 0.950 . S
H410 C407 0.950 . S
C411 C402 1.390 . S
C411 H404 0.950 . S
C411 C408 1.387 . S
C412 C413 1.387 . S
C412 H416 0.950 . S
C412 C421 1.390 . S
C413 C412 1.387 . S
C413 C415 1.387 . S
H414 C421 0.950 . S
C415 C413 1.387 . S
C415 C417 1.390 . S
C415 H419 0.950 . S
H416 C412 0.950 . S
C417 C415 1.390 . S
C417 C418 1.387 . S
C417 H420 0.950 . S
C418 C417 1.387 . S
C418 C421 1.387 . S
H419 C415 0.950 . S
H420 C417 0.950 . S
C421 C412 1.390 . S
C421 H414 0.950 . S
C421 C418 1.387 . S
C422 C423 1.387 . S
C422 H426 0.950 . S
C422 C431 1.390 . S
C423 C422 1.387 . S
C423 C425 1.387 . S
H424 C431 0.950 . S
C425 C423 1.387 . S
C425 C427 1.390 . S
C425 H429 0.950 . S
H426 C422 0.950 . S
C427 C425 1.390 . S
C427 C428 1.387 . S
C427 H430 0.950 . S
C428 C427 1.387 . S
C428 C431 1.387 . S
H429 C425 0.950 . S
H430 C427 0.950 . S
C431 C422 1.390 . S
C431 H424 0.950 . S
C431 C428 1.387 . S
C432 C433 1.387 . S
C432 H436 0.950 . S
C432 C441 1.390 . S
C433 C432 1.387 . S
C433 C435 1.387 . S
H434 C441 0.950 . S
C435 C433 1.387 . S
C435 C437 1.390 . S
C435 H439 0.950 . S
H436 C432 0.950 . S
C437 C435 1.390 . S
C437 C438 1.387 . S
C437 H440 0.950 . S
C438 C437 1.387 . S
C438 C441 1.387 . S
H439 C435 0.950 . S
H440 C437 0.950 . S
C441 C432 1.390 . S
C441 H434 0.950 . S
C441 C438 1.387 . S
C442 C443 1.387 . S
C442 H446 0.950 . S
C442 C451 1.390 . S
C443 C442 1.387 . S
C443 C445 1.387 . S
H444 C451 0.950 . S
C445 C443 1.387 . S
C445 C447 1.390 . S
C445 H449 0.950 . S
H446 C442 0.950 . S
C447 C445 1.390 . S
C447 C448 1.387 . S
C447 H450 0.950 . S
C448 C447 1.387 . S
C448 C451 1.387 . S
H449 C445 0.950 . S
H450 C447 0.950 . S
C451 C442 1.390 . S
C451 H444 0.950 . S
C451 C448 1.387 . S
C452 C453 1.387 . S
C452 H456 0.950 . S
C452 C461 1.390 . S
C453 C452 1.387 . S
C453 C455 1.387 . S
H454 C461 0.950 . S
C455 C453 1.387 . S
C455 C457 1.390 . S
C455 H459 0.950 . S
H456 C452 0.950 . S
C457 C455 1.390 . S
C457 C458 1.387 . S
C457 H460 0.950 . S
C458 C457 1.387 . S
C458 C461 1.387 . S
H459 C455 0.950 . S
H460 C457 0.950 . S
C461 C452 1.390 . S
C461 H454 0.950 . S
C461 C458 1.387 . S
C462 C463 1.387 . S
C462 H466 0.950 . S
C462 C471 1.390 . S
C463 C462 1.387 . S
C463 C465 1.387 . S
H464 C471 0.950 . S
C465 C463 1.387 . S
C465 C467 1.390 . S
C465 H469 0.950 . S
H466 C462 0.950 . S
C467 C465 1.390 . S
C467 C468 1.387 . S
C467 H470 0.950 . S
C468 C467 1.387 . S
C468 C471 1.387 . S
H469 C465 0.950 . S
H470 C467 0.950 . S
C471 C462 1.390 . S
C471 H464 0.950 . S
C471 C468 1.387 . S
C472 C473 1.387 . S
C472 H476 0.950 . S
C472 C481 1.390 . S
C473 C472 1.387 . S
C473 C475 1.387 . S
H474 C481 0.950 . S
C475 C473 1.387 . S
C475 C477 1.390 . S
C475 H479 0.950 . S
H476 C472 0.950 . S
C477 C475 1.390 . S
C477 C478 1.387 . S
C477 H480 0.950 . S
C478 C477 1.387 . S
C478 C481 1.387 . S
H479 C475 0.950 . S
H480 C477 0.950 . S
C481 C472 1.390 . S
C481 H474 0.950 . S
C481 C478 1.387 . S
C482 C483 1.387 . S
C482 H486 0.950 . S
C482 C491 1.390 . S
C483 C482 1.387 . S
C483 C485 1.387 . S
H484 C491 0.950 . S
C485 C483 1.387 . S
C485 C487 1.390 . S
C485 H489 0.950 . S
H486 C482 0.950 . S
C487 C485 1.390 . S
C487 C488 1.387 . S
C487 H490 0.950 . S
C488 C487 1.387 . S
C488 C491 1.387 . S
H489 C485 0.950 . S
H490 C487 0.950 . S
C491 C482 1.390 . S
C491 H484 0.950 . S
C491 C488 1.387 . S
C492 C493 1.387 . S
C492 H496 0.950 . S
C492 C501 1.390 . S
C493 C492 1.387 . S
C493 C495 1.387 . S
H494 C501 0.950 . S
C495 C493 1.387 . S
C495 C497 1.390 . S
C495 H499 0.950 . S
H496 C492 0.950 . S
C497 C495 1.390 . S
C497 C498 1.387 . S
C497 H500 0.950 . S
C498 C497 1.387 . S
C498 C501 1.387 . S
H499 C495 0.950 . S
H500 C497 0.950 . S
C501 C492 1.390 . S
C501 H494 0.950 . S
C501 C498 1.387 . S
C502 C503 1.387 . S
C502 H506 0.950 . S
C502 C511 1.390 . S
C503 C502 1.387 . S
C503 C505 1.387 . S
H504 C511 0.950 . S
C505 C503 1.387 . S
C505 C507 1.390 . S
C505 H509 0.950 . S
H506 C502 0.950 . S
C507 C505 1.390 . S
C507 C508 1.387 . S
C507 H510 0.950 . S
C508 C507 1.387 . S
C508 C511 1.387 . S
H509 C505 0.950 . S
H510 C507 0.950 . S
C511 C502 1.390 . S
C511 H504 0.950 . S
C511 C508 1.387 . S
C512 C513 1.387 . S
C512 H516 0.950 . S
C512 C521 1.390 . S
C513 C512 1.387 . S
C513 C515 1.387 . S
H514 C521 0.950 . S
C515 C513 1.387 . S
C515 C517 1.390 . S
C515 H519 0.950 . S
H516 C512 0.950 . S
C517 C515 1.390 . S
C517 C518 1.387 . S
C517 H520 0.950 . S
C518 C517 1.387 . S
C518 C521 1.387 . S
H519 C515 0.950 . S
H520 C517 0.950 . S
C521 C512 1.390 . S
C521 H514 0.950 . S
C521 C518 1.387 . S
C522 C523 1.387 . S
C522 H526 0.950 . S
C522 C531 1.390 . S
C523 C522 1.387 . S
C523 C525 1.387 . S
H524 C531 0.950 . S
C525 C523 1.387 . S
C525 C527 1.390 . S
C525 H529 0.950 . S
H526 C522 0.950 . S
C527 C525 1.390 . S
C527 C528 1.387 . S
C527 H530 0.950 . S
C528 C527 1.387 . S
C528 C531 1.387 . S
H529 C525 0.950 . S
H530 C527 0.950 . S
C531 C522 1.390 . S
C531 H524 0.950 . S
C531 C528 1.387 . S
C532 C533 1.387 . S
C532 H536 0.950 . S
C532 C541 1.390 . S
C533 C532 1.387 . S
C533 C535 1.387 . S
H534 C541 0.950 . S
C535 C533 1.387 . S
C535 C537 1.390 . S
C535 H539 0.950 . S
H536 C532 0.950 . S
C537 C535 1.390 . S
C537 C538 1.387 . S
C537 H540 0.950 . S
C538 C537 1.387 . S
C538 C541 1.387 . S
H539 C535 0.950 . S
H540 C537 0.950 . S
C541 C532 1.390 . S
C541 H534 0.950 . S
C541 C538 1.387 . S
C542 C543 1.387 . S
C542 H546 0.950 . S
C542 C551 1.390 . S
C543 C542 1.387 . S
C543 C545 1.387 . S
H544 C551 0.950 . S
C545 C543 1.387 . S
C545 C547 1.390 . S
C545 H549 0.950 . S
H546 C542 0.950 . S
C547 C545 1.390 . S
C547 C548 1.387 . S
C547 H550 0.950 . S
C548 C547 1.387 . S
C548 C551 1.387 . S
H549 C545 0.950 . S
H550 C547 0.950 . S
C551 C542 1.390 . S
C551 H544 0.950 . S
C551 C548 1.387 . S
C552 C553 1.387 . S
C552 H556 0.950 . S
C552 C561 1.390 . S
C553 C552 1.387 . S
C553 C555 1.387 . S
H554 C561 0.950 . S
C555 C553 1.387 . S
C555 C557 1.390 . S
C555 H559 0.950 . S
H556 C552 0.950 . S
C557 C555 1.390 . S
C557 C558 1.387 . S
C557 H560 0.950 . S
C558 C557 1.387 . S
C558 C561 1.387 . S
H559 C555 0.950 . S
H560 C557 0.950 . S
C561 C552 1.390 . S
C561 H554 0.950 . S
C561 C558 1.387 . S
C562 C563 1.387 . S
C562 H566 0.950 1_556 S
C562 C571 1.390 . S
C563 C562 1.387 . S
C563 C565 1.387 . S
H564 C571 0.950 . S
C565 C563 1.387 . S
C565 C567 1.390 . S
C565 H569 0.950 . S
H566 C562 0.950 1_554 S
C567 C565 1.390 . S
C567 C568 1.387 . S
C567 H570 0.950 . S
C568 C567 1.387 . S
C568 C571 1.387 . S
H569 C565 0.950 . S
H570 C567 0.950 . S
C571 C562 1.390 . S
C571 H564 0.950 . S
C571 C568 1.387 . S
C572 C573 1.387 . S
C572 H576 0.950 . S
C572 C581 1.390 . S
C573 C572 1.387 . S
C573 C575 1.387 . S
H574 C581 0.950 . S
C575 C573 1.387 . S
C575 C577 1.390 . S
C575 H579 0.950 . S
H576 C572 0.950 . S
C577 C575 1.390 . S
C577 C578 1.387 . S
C577 H580 0.950 . S
C578 C577 1.387 . S
C578 C581 1.387 . S
H579 C575 0.950 . S
H580 C577 0.950 . S
C581 C572 1.390 . S
C581 H574 0.950 . S
C581 C578 1.387 . S
C582 C583 1.387 . S
C582 H586 0.950 . S
C582 C591 1.390 . S
C583 C582 1.387 . S
C583 C585 1.387 . S
H584 C591 0.967 . S
C585 C583 1.387 . S
C585 C587 1.390 . S
C585 H589 0.950 . S
H586 C582 0.950 . S
C587 C585 1.390 . S
C587 C588 1.387 . S
C587 H590 0.950 . S
C588 C587 1.387 . S
C588 C591 1.387 . S
H589 C585 0.950 . S
H590 C587 0.950 . S
C591 C582 1.390 . S
C591 H584 0.967 . S
C591 C588 1.387 . S
C592 C593 1.387 . S
C592 H596 0.950 . S
C592 C601 1.390 . S
C593 C592 1.387 . S
C593 C595 1.387 . S
H594 C601 0.950 . S
C595 C593 1.387 . S
C595 C597 1.390 . S
C595 H599 0.950 . S
H596 C592 0.950 . S
C597 C595 1.390 . S
C597 C598 1.387 . S
C597 H600 0.950 . S
C598 C597 1.387 . S
C598 C601 1.387 . S
H599 C595 0.950 . S
H600 C597 0.950 . S
C601 C592 1.390 . S
C601 H594 0.950 . S
C601 C598 1.387 . S
C602 C603 1.387 . S
C602 H606 0.942 1_455 S
C602 C611 1.390 . S
C603 C602 1.387 . S
C603 C605 1.387 . S
H604 C611 0.950 . S
C605 C603 1.387 . S
C605 C607 1.390 . S
C605 H609 0.950 . S
H606 C602 0.942 1_655 S
C607 C605 1.390 . S
C607 C608 1.387 . S
C607 H610 0.950 . S
C608 C607 1.387 . S
C608 C611 1.387 . S
H609 C605 0.950 . S
H610 C607 0.950 . S
C611 C602 1.390 . S
C611 H604 0.950 . S
C611 C608 1.387 . S
C612 C613 1.387 . S
C612 H616 0.950 . S
C612 C621 1.390 . S
C613 C612 1.387 . S
C613 C615 1.387 . S
H614 C621 0.950 . S
C615 C613 1.387 . S
C615 C617 1.390 . S
C615 H619 0.950 . S
H616 C612 0.950 . S
C617 C615 1.390 . S
C617 C618 1.387 . S
C617 H620 0.950 . S
C618 C617 1.387 . S
C618 C621 1.387 . S
H619 C615 0.950 . S
H620 C617 0.950 . S
C621 C612 1.390 . S
C621 H614 0.950 . S
C621 C618 1.387 . S
C622 C623 1.387 . S
C622 H626 0.950 . S
C622 C631 1.390 . S
C623 C622 1.387 . S
C623 C625 1.387 . S
H624 C631 0.950 . S
C625 C623 1.387 . S
C625 C627 1.390 . S
C625 H629 0.950 . S
H626 C622 0.950 . S
C627 C625 1.390 . S
C627 C628 1.387 . S
C627 H630 0.950 . S
C628 C627 1.387 . S
C628 C631 1.387 . S
H629 C625 0.950 . S
H630 C627 0.950 . S
C631 C622 1.390 . S
C631 H624 0.950 . S
C631 C628 1.387 . S
C632 C633 1.387 . S
C632 H636 0.950 . S
C632 C641 1.390 . S
C633 C632 1.387 . S
C633 C635 1.387 . S
H634 C641 0.950 . S
C635 C633 1.387 . S
C635 C637 1.390 . S
C635 H639 0.950 . S
H636 C632 0.950 . S
C637 C635 1.390 . S
C637 C638 1.387 . S
C637 H640 0.950 . S
C638 C637 1.387 . S
C638 C641 1.387 . S
H639 C635 0.950 . S
H640 C637 0.950 . S
C641 C632 1.390 . S
C641 H634 0.950 . S
C641 C638 1.387 . S
C642 C643 1.387 . S
C642 H646 0.950 . S
C642 C651 1.390 . S
C643 C642 1.387 . S
C643 C645 1.387 . S
H644 C651 0.950 . S
C645 C643 1.387 . S
C645 C647 1.390 . S
C645 H649 0.950 . S
H646 C642 0.950 . S
C647 C645 1.390 . S
C647 C648 1.387 . S
C647 H650 0.950 . S
C648 C647 1.387 . S
C648 C651 1.387 . S
H649 C645 0.950 . S
H650 C647 0.950 . S
C651 C642 1.390 . S
C651 H644 0.950 . S
C651 C648 1.387 . S
C652 C653 1.387 . S
C652 H656 0.950 . S
C652 C661 1.390 . S
C653 C652 1.387 . S
C653 C655 1.387 . S
H654 C661 0.950 . S
C655 C653 1.387 . S
C655 C657 1.390 . S
C655 H659 0.950 . S
H656 C652 0.950 . S
C657 C655 1.390 . S
C657 C658 1.387 . S
C657 H660 0.950 . S
C658 C657 1.387 . S
C658 C661 1.387 . S
H659 C655 0.950 . S
H660 C657 0.950 . S
C661 C652 1.390 . S
C661 H654 0.950 . S
C661 C658 1.387 . S
C662 C663 1.387 . S
C662 H666 0.950 . S
C662 C671 1.390 . S
C663 C662 1.387 . S
C663 C665 1.387 . S
H664 C671 0.950 . S
C665 C663 1.387 . S
C665 C667 1.390 . S
C665 H669 0.950 . S
H666 C662 0.950 . S
C667 C665 1.390 . S
C667 C668 1.387 . S
C667 H670 0.950 . S
C668 C667 1.387 . S
C668 C671 1.387 . S
H669 C665 0.950 . S
H670 C667 0.950 . S
C671 C662 1.390 . S
C671 H664 0.950 . S
C671 C668 1.387 . S
C672 C673 1.387 . S
C672 H676 0.950 . S
C672 C681 1.390 . S
C673 C672 1.387 . S
C673 C675 1.387 . S
H674 C681 0.950 . S
C675 C673 1.387 . S
C675 C677 1.390 . S
C675 H679 0.950 . S
H676 C672 0.950 . S
C677 C675 1.390 . S
C677 C678 1.387 . S
C677 H680 0.950 . S
C678 C677 1.387 . S
C678 C681 1.387 . S
H679 C675 0.950 . S
H680 C677 0.950 . S
C681 C672 1.390 . S
C681 H674 0.950 . S
C681 C678 1.387 . S
C682 C683 1.387 . S
C682 H686 0.950 . S
C682 C691 1.390 . S
C683 C682 1.387 . S
C683 C685 1.387 . S
H684 C691 0.950 . S
C685 C683 1.387 . S
C685 C687 1.390 . S
C685 H689 0.950 . S
H686 C682 0.950 . S
C687 C685 1.390 . S
C687 C688 1.387 . S
C687 H690 0.950 . S
C688 C687 1.387 . S
C688 C691 1.387 . S
H689 C685 0.950 . S
H690 C687 0.950 . S
C691 C682 1.390 . S
C691 H684 0.950 . S
C691 C688 1.387 . S
C692 C693 1.387 . S
C692 H696 0.950 . S
C692 C701 1.390 . S
C693 C692 1.387 . S
C693 C695 1.387 . S
H694 C701 0.950 . S
C695 C693 1.387 . S
C695 C697 1.390 . S
C695 H699 0.950 . S
H696 C692 0.950 . S
C697 C695 1.390 . S
C697 C698 1.387 . S
C697 H700 0.950 . S
C698 C697 1.387 . S
C698 C701 1.387 . S
H699 C695 0.950 . S
H700 C697 0.950 . S
C701 C692 1.390 . S
C701 H694 0.950 . S
C701 C698 1.387 . S
C702 C703 1.387 . S
C702 H706 0.952 . S
C702 C711 1.390 . S
C703 C702 1.387 . S
C703 C705 1.387 . S
H704 C711 0.950 . S
C705 C703 1.387 . S
C705 C707 1.390 . S
C705 H709 0.950 . S
H706 C702 0.952 . S
C707 C705 1.390 . S
C707 C708 1.387 . S
C707 H710 0.950 . S
C708 C707 1.387 . S
C708 C711 1.387 . S
H709 C705 0.950 . S
H710 C707 0.950 . S
C711 C702 1.390 . S
C711 H704 0.950 . S
C711 C708 1.387 . S
C712 C713 1.387 . S
C712 H716 0.950 . S
C712 C721 1.390 . S
C713 C712 1.387 . S
C713 C715 1.387 . S
H714 C721 0.950 . S
C715 C713 1.387 . S
C715 C717 1.390 . S
C715 H719 0.950 . S
H716 C712 0.950 . S
C717 C715 1.390 . S
C717 C718 1.387 . S
C717 H720 0.950 . S
C718 C717 1.387 . S
C718 C721 1.387 . S
H719 C715 0.950 . S
H720 C717 0.950 . S
C721 C712 1.390 . S
C721 H714 0.950 . S
C721 C718 1.387 . S
C722 C723 1.387 . S
C722 H726 0.950 . S
C722 C731 1.390 . S
C723 C722 1.387 . S
C723 C725 1.387 . S
H724 C731 0.950 . S
C725 C723 1.387 . S
C725 C727 1.390 . S
C725 H729 0.950 . S
H726 C722 0.950 . S
C727 C725 1.390 . S
C727 C728 1.387 . S
C727 H730 0.950 . S
C728 C727 1.387 . S
C728 C731 1.387 . S
H729 C725 0.950 . S
H730 C727 0.950 . S
C731 C722 1.390 . S
C731 H724 0.950 . S
C731 C728 1.387 . S
C732 C733 1.387 . S
C732 H736 0.950 . S
C732 C741 1.390 . S
C733 C732 1.387 . S
C733 C735 1.387 . S
H734 C741 0.950 . S
C735 C733 1.387 . S
C735 C737 1.390 . S
C735 H739 0.950 . S
H736 C732 0.950 . S
C737 C735 1.390 . S
C737 C738 1.387 . S
C737 H740 0.950 . S
C738 C737 1.387 . S
C738 C741 1.387 . S
H739 C735 0.950 . S
H740 C737 0.950 . S
C741 C732 1.390 . S
C741 H734 0.950 . S
C741 C738 1.387 . S
C742 C743 1.387 . S
C742 H746 0.950 . S
C742 C751 1.390 . S
C743 C742 1.387 . S
C743 C745 1.387 . S
H744 C751 0.950 . S
C745 C743 1.387 . S
C745 C747 1.390 . S
C745 H749 0.950 . S
H746 C742 0.950 . S
C747 C745 1.390 . S
C747 C748 1.387 . S
C747 H750 0.950 . S
C748 C747 1.387 . S
C748 C751 1.387 . S
H749 C745 0.950 . S
H750 C747 0.950 . S
C751 C742 1.390 . S
C751 H744 0.950 . S
C751 C748 1.387 . S
C752 C753 1.387 . S
C752 H756 0.950 . S
C752 C761 1.390 . S
C753 C752 1.387 . S
C753 C755 1.387 . S
H754 C761 0.950 . S
C755 C753 1.387 . S
C755 C757 1.390 . S
C755 H759 0.950 . S
H756 C752 0.950 . S
C757 C755 1.390 . S
C757 C758 1.387 . S
C757 H760 0.950 . S
C758 C757 1.387 . S
C758 C761 1.387 . S
H759 C755 0.950 . S
H760 C757 0.950 . S
C761 C752 1.390 . S
C761 H754 0.950 . S
C761 C758 1.387 . S
C762 C763 1.387 . S
C762 H766 0.950 . S
C762 C771 1.390 . S
C763 C762 1.387 . S
C763 C765 1.387 . S
H764 C771 0.950 . S
C765 C763 1.387 . S
C765 C767 1.390 . S
C765 H769 0.950 . S
H766 C762 0.950 . S
C767 C765 1.390 . S
C767 C768 1.387 . S
C767 H770 0.950 . S
C768 C767 1.387 . S
C768 C771 1.387 . S
H769 C765 0.950 . S
H770 C767 0.950 . S
C771 C762 1.390 . S
C771 H764 0.950 . S
C771 C768 1.387 . S
C772 C773 1.387 . S
C772 H776 0.950 . S
C772 C781 1.390 . S
C773 C772 1.387 . S
C773 C775 1.387 . S
H774 C781 0.950 . S
C775 C773 1.387 . S
C775 C777 1.390 . S
C775 H779 0.950 1_545 S
H776 C772 0.950 . S
C777 C775 1.390 . S
C777 C778 1.387 . S
C777 H780 0.950 . S
C778 C777 1.387 . S
C778 C781 1.387 . S
H779 C775 0.950 1_565 S
H780 C777 0.950 . S
C781 C772 1.390 . S
C781 H774 0.950 . S
C781 C778 1.387 . S
C782 C783 1.387 . S
C782 H786 0.950 . S
C782 C791 1.390 . S
C783 C782 1.387 . S
C783 C785 1.387 . S
H784 C791 0.950 . S
C785 C783 1.387 . S
C785 C787 1.390 . S
C785 H789 0.950 . S
H786 C782 0.950 . S
C787 C785 1.390 . S
C787 C788 1.387 . S
C787 H790 0.950 . S
C788 C787 1.387 . S
C788 C791 1.387 . S
H789 C785 0.950 . S
H790 C787 0.950 . S
C791 C782 1.390 . S
C791 H784 0.950 . S
C791 C788 1.387 . S
C313 C107 1.270 . S
C318 C5 1.299 . S
C323 C16 1.299 . S
C328 C146 1.270 . S
C333 C31 1.299 . S
C338 C120 1.271 . S
C343 C44 1.299 . S
C348 C135 1.270 . S
C353 C55 1.299 . S
C358 C3 1.270 . S
C363 C18 1.270 . S
C368 C68 1.299 . S
C373 C83 1.298 . S
C378 C29 1.271 . S
C383 C42 1.270 . S
C388 C96 1.299 . S
C393 C57 1.271 . S
C398 C109 1.298 . S
C403 C81 1.270 . S
C408 C122 1.299 . S
C413 C133 1.299 . S
C418 C94 1.270 . S
C423 C70 1.271 . S
C428 C148 1.298 . S
C433 C263 1.270 . S
C438 C161 1.299 . S
C443 C172 1.299 . S
C448 C304 1.270 . S
C453 C187 1.299 . S
C458 C276 1.270 . S
C463 C289 1.269 . S
C468 C200 1.299 . S
C473 C211 1.299 . S
C478 C159 1.270 . S
C483 C174 1.270 . S
C488 C224 1.299 . S
C493 C185 1.271 . S
C498 C239 1.298 . S
C503 C252 1.299 . S
C508 C198 1.271 . S
C513 C265 1.299 . S
C518 C213 1.270 . S
C523 C237 1.271 . S
C528 C278 1.298 . S
C533 C250 1.270 . S
C538 C291 1.299 . S
C543 C302 1.299 . S
C548 C226 1.270 . S
C553 C296 1.492 . S
C558 C4 1.492 . S
C563 C283 1.492 1_556 S
C568 C23 1.492 . S
C573 C303 1.492 . S
C578 C30 1.493 . S
C583 C43 1.492 . S
C588 C270 1.492 1_554 S
C593 C62 1.493 . S
C598 C173 1.493 . S
C603 C166 1.492 1_455 S
C608 C75 1.492 . S
C613 C205 1.492 1_655 S
C618 C82 1.493 . S
C623 C192 1.493 . S
C628 C95 1.493 . S
C633 C108 1.493 . S
C638 C244 1.492 . S
C643 C212 1.492 1_545 S
C648 C121 1.493 . S
C653 C225 1.492 1_565 S
C658 C140 1.493 . S
C663 C257 1.492 . S
C668 C147 1.493 . S
C673 C134 1.492 . S
C678 C160 1.492 . S
C683 C127 1.493 1_554 S
C688 C179 1.493 . S
C693 C186 1.492 . S
C698 C153 1.492 . S
C703 C114 1.493 1_556 S
C708 C199 1.493 . S
C713 C218 1.493 . S
C718 C17 1.492 . S
C723 C231 1.492 . S
C728 C10 1.493 1_655 S
C733 C238 1.492 . S
C738 C49 1.493 1_455 S
C743 C251 1.493 . S
C748 C36 1.492 . S
C753 C264 1.492 . S
C758 C88 1.492 . S
C763 C277 1.493 . S
C768 C56 1.493 1_565 S
C773 C69 1.492 1_545 S
C778 C290 1.492 . S
C783 C309 1.492 . S
C788 C101 1.492 . S
