# Generated by pormake.
# Topology nfc, (4)-cn, num edge types: 1
# Building blocks:
#     Node 0, Type 0, BuildingBlock: ESEHIV_clean_sbu_0, # of connection points: 4
#     Node 1, Type 0, BuildingBlock: ESEHIV_clean_sbu_0, # of connection points: 4
#     Node 2, Type 0, BuildingBlock: ESEHIV_clean_sbu_0, # of connection points: 4
#     Node 3, Type 0, BuildingBlock: ESEHIV_clean_sbu_0, # of connection points: 4
#     Node 4, Type 0, BuildingBlock: ESEHIV_clean_sbu_0, # of connection points: 4
#     Node 5, Type 0, BuildingBlock: ESEHIV_clean_sbu_0, # of connection points: 4
#     Node 6, Type 0, BuildingBlock: ESEHIV_clean_sbu_0, # of connection points: 4
#     Node 7, Type 0, BuildingBlock: ESEHIV_clean_sbu_0, # of connection points: 4
#     Node 8, Type 0, BuildingBlock: ESEHIV_clean_sbu_0, # of connection points: 4
#     Node 9, Type 0, BuildingBlock: ESEHIV_clean_sbu_0, # of connection points: 4
#     Node 10, Type 0, BuildingBlock: ESEHIV_clean_sbu_0, # of connection points: 4
#     Node 11, Type 0, BuildingBlock: ESEHIV_clean_sbu_0, # of connection points: 4
#     Node 12, Type 0, BuildingBlock: ESEHIV_clean_sbu_0, # of connection points: 4
#     Node 13, Type 0, BuildingBlock: ESEHIV_clean_sbu_0, # of connection points: 4
#     Node 14, Type 0, BuildingBlock: ESEHIV_clean_sbu_0, # of connection points: 4
#     Node 15, Type 0, BuildingBlock: ESEHIV_clean_sbu_0, # of connection points: 4
#     Edge 16, Type (0, 0), BuildingBlock: UVAHIK_clean_linker_0, # of connection points: 2
#     Edge 17, Type (0, 0), BuildingBlock: UVAHIK_clean_linker_0, # of connection points: 2
#     Edge 18, Type (0, 0), BuildingBlock: UVAHIK_clean_linker_0, # of connection points: 2
#     Edge 19, Type (0, 0), BuildingBlock: UVAHIK_clean_linker_0, # of connection points: 2
#     Edge 20, Type (0, 0), BuildingBlock: UVAHIK_clean_linker_0, # of connection points: 2
#     Edge 21, Type (0, 0), BuildingBlock: UVAHIK_clean_linker_0, # of connection points: 2
#     Edge 22, Type (0, 0), BuildingBlock: UVAHIK_clean_linker_0, # of connection points: 2
#     Edge 23, Type (0, 0), BuildingBlock: UVAHIK_clean_linker_0, # of connection points: 2
#     Edge 24, Type (0, 0), BuildingBlock: UVAHIK_clean_linker_0, # of connection points: 2
#     Edge 25, Type (0, 0), BuildingBlock: UVAHIK_clean_linker_0, # of connection points: 2
#     Edge 26, Type (0, 0), BuildingBlock: UVAHIK_clean_linker_0, # of connection points: 2
#     Edge 27, Type (0, 0), BuildingBlock: UVAHIK_clean_linker_0, # of connection points: 2
#     Edge 28, Type (0, 0), BuildingBlock: UVAHIK_clean_linker_0, # of connection points: 2
#     Edge 29, Type (0, 0), BuildingBlock: UVAHIK_clean_linker_0, # of connection points: 2
#     Edge 30, Type (0, 0), BuildingBlock: UVAHIK_clean_linker_0, # of connection points: 2
#     Edge 31, Type (0, 0), BuildingBlock: UVAHIK_clean_linker_0, # of connection points: 2
#     Edge 32, Type (0, 0), BuildingBlock: UVAHIK_clean_linker_0, # of connection points: 2
#     Edge 33, Type (0, 0), BuildingBlock: UVAHIK_clean_linker_0, # of connection points: 2
#     Edge 34, Type (0, 0), BuildingBlock: UVAHIK_clean_linker_0, # of connection points: 2
#     Edge 35, Type (0, 0), BuildingBlock: UVAHIK_clean_linker_0, # of connection points: 2
#     Edge 36, Type (0, 0), BuildingBlock: UVAHIK_clean_linker_0, # of connection points: 2
#     Edge 37, Type (0, 0), BuildingBlock: UVAHIK_clean_linker_0, # of connection points: 2
#     Edge 38, Type (0, 0), BuildingBlock: UVAHIK_clean_linker_0, # of connection points: 2
#     Edge 39, Type (0, 0), BuildingBlock: UVAHIK_clean_linker_0, # of connection points: 2
#     Edge 40, Type (0, 0), BuildingBlock: UVAHIK_clean_linker_0, # of connection points: 2
#     Edge 41, Type (0, 0), BuildingBlock: UVAHIK_clean_linker_0, # of connection points: 2
#     Edge 42, Type (0, 0), BuildingBlock: UVAHIK_clean_linker_0, # of connection points: 2
#     Edge 43, Type (0, 0), BuildingBlock: UVAHIK_clean_linker_0, # of connection points: 2
#     Edge 44, Type (0, 0), BuildingBlock: UVAHIK_clean_linker_0, # of connection points: 2
#     Edge 45, Type (0, 0), BuildingBlock: UVAHIK_clean_linker_0, # of connection points: 2
#     Edge 46, Type (0, 0), BuildingBlock: UVAHIK_clean_linker_0, # of connection points: 2
#     Edge 47, Type (0, 0), BuildingBlock: UVAHIK_clean_linker_0, # of connection points: 2
# Relax obj value: 0.066
# Max RMSD: 0.212
# Mean RMSD: 0.157
data_MOF--net-nfc--node1-ESEHIV_clean_sbu_0--edge1-UVAHIK_clean_linker_0
_symmetry_space_group_name_H-M    P1
_symmetry_Int_Tables_number       1
_symmetry_cell_setting            triclinic
loop_
_symmetry_equiv_pos_as_xyz
'x, y, z'
_cell_length_a     50.088293
_cell_length_b     50.209959
_cell_length_c     39.136685
_cell_angle_alpha  88.956759
_cell_angle_beta   89.155247
_cell_angle_gamma 81.951469
loop_
_atom_site_label
_atom_site_type_symbol
_atom_site_fract_x
_atom_site_fract_y
_atom_site_fract_z
_atom_type_partial_charge
Cu0 Cu 0.97091 0.08201 0.02356 0.0
N1 N 0.93515 0.0768 0.01683 0.0
N2 N 0.89935 0.0606 0.99603 0.0
C3 C 0.92395 0.06772 0.98891 0.0
C4 C 0.89492 0.0657 0.02953 0.0
C5 C 0.91707 0.07543 0.04224 0.0
O6 O 0.99269 0.06763 0.98515 0.0
C7 C 1.00467 0.06507 0.07972 0.0
O8 O 0.02331 0.07538 0.06196 0.0
H9 H 0.93449 0.06429 0.96471 0.0
H10 H 0.92068 0.07939 0.0687 0.0
N11 N 0.97451 0.11848 0.02704 0.0
N12 N 0.98801 0.15603 0.04657 0.0
C13 C 0.98249 0.13104 0.05454 0.0
C14 C 0.97462 0.13624 1.00093 0.0
C15 C 0.98282 0.15941 0.01288 0.0
C16 C 0.99373 0.04352 0.97531 0.0
O17 O 0.98108 0.02666 0.99327 0.0
H18 H 0.98598 0.12141 0.07933 0.0
H19 H 0.97026 0.13212 0.97472 0.0
O20 O 0.98173 0.06454 0.06655 0.0
H21 H 0.8775 0.06146 0.04424 0.0
H22 H 0.98574 0.17699 0.99762 0.0
Cu23 Cu 0.3112 0.79133 0.25745 0.0
N24 N 0.29003 0.78907 0.21899 0.0
N25 N 0.27926 0.78725 0.16389 0.0
C26 C 0.29858 0.79089 0.18638 0.0
C27 C 0.25767 0.78299 0.18327 0.0
C28 C 0.26438 0.78411 0.21721 0.0
O29 O 0.3488 0.78077 0.24293 0.0
C30 C 0.27926 0.83123 0.29177 0.0
O31 O 0.26302 0.81307 0.2885 0.0
H32 H 0.31893 0.79395 0.17941 0.0
H33 H 0.25158 0.78104 0.239 0.0
N34 N 0.303 0.76736 0.29196 0.0
N35 N 0.29797 0.75165 0.34511 0.0
C36 C 0.30778 0.77039 0.32528 0.0
C37 C 0.28972 0.74588 0.29049 0.0
C38 C 0.28675 0.73601 0.32331 0.0
C39 C 0.35521 0.75582 0.23663 0.0
O40 O 0.33686 0.73973 0.24082 0.0
H41 H 0.31796 0.78635 0.33476 0.0
H42 H 0.28227 0.73827 0.26733 0.0
O43 O 0.30262 0.82704 0.27775 0.0
H44 H 0.23841 0.77923 0.17369 0.0
H45 H 0.2764 0.71921 0.33061 0.0
Cu46 Cu 0.60471 0.96525 0.51416 0.0
N47 N 0.63929 0.97238 0.50081 0.0
N48 N 0.67221 0.99308 0.47739 0.0
C49 C 0.64531 0.99372 0.48218 0.0
C50 C 0.68348 0.97036 0.49357 0.0
C51 C 0.66319 0.95763 0.50783 0.0
O52 O 0.58128 0.97426 0.47548 0.0
C53 C 0.60862 0.98474 0.57962 0.0
O54 O 0.63329 0.97221 0.57588 0.0
H55 H 0.63026 1.0096 0.47274 0.0
H56 H 0.66567 0.93897 0.52243 0.0
N57 N 0.60419 0.9288 0.52516 0.0
N58 N 0.59047 0.8918 0.54847 0.0
C59 C 0.58819 0.91897 0.54892 0.0
C60 C 0.61713 0.90715 0.50917 0.0
C61 C 0.60873 0.88433 0.52347 0.0
C62 C 0.57179 0.99816 0.46659 0.0
O63 O 0.57603 0.01825 0.48591 0.0
H64 H 0.5743 0.93161 0.56523 0.0
H65 H 0.63113 0.90797 0.488 0.0
O66 O 0.59241 0.98532 0.55478 0.0
H67 H 0.70486 0.9632 0.49466 0.0
H68 H 0.61537 0.86385 0.51577 0.0
Cu69 Cu 0.26006 0.23845 0.76212 0.0
N70 N 0.28112 0.23907 0.72237 0.0
N71 N 0.29115 0.24059 0.6666 0.0
C72 C 0.27165 0.2389 0.6904 0.0
C73 C 0.31383 0.24186 0.68435 0.0
C74 C 0.3076 0.2408 0.7188 0.0
O75 O 0.22325 0.25326 0.74915 0.0
C76 C 0.28143 0.18307 0.77353 0.0
O77 O 0.29405 0.18524 0.74418 0.0
H78 H 0.25066 0.23827 0.68476 0.0
H79 H 0.32135 0.24135 0.73973 0.0
N80 N 0.27169 0.26021 0.7955 0.0
N81 N 0.27721 0.27615 0.84749 0.0
C82 C 0.26448 0.25959 0.82873 0.0
C83 C 0.28956 0.27786 0.79303 0.0
C84 C 0.29306 0.28769 0.82513 0.0
C85 C 0.21971 0.27831 0.74153 0.0
O86 O 0.24014 0.29189 0.74432 0.0
H87 H 0.25072 0.24659 0.83906 0.0
H88 H 0.29947 0.28312 0.76964 0.0
O89 O 0.26406 0.20253 0.78341 0.0
H90 H 0.33351 0.24332 0.67327 0.0
H91 H 0.30613 0.30226 0.83148 0.0
Cu92 Cu 0.07179 0.04353 0.53109 0.0
N93 N 0.04631 0.04376 0.49684 0.0
N94 N 0.02837 0.04473 0.4448 0.0
C95 C 0.05128 0.04331 0.46298 0.0
C96 C 1.00826 0.046 0.46837 0.0
C97 C 0.0194 0.0454 0.50043 0.0
O98 O 0.10721 0.02997 0.51142 0.0
C99 C 0.0546 0.10006 0.53964 0.0
O100 O 0.04503 0.09976 0.50861 0.0
H101 H 0.07138 0.04195 0.45206 0.0
H102 H 1.00866 0.04654 0.52466 0.0
N103 N 0.06319 0.0211 0.56694 0.0
N104 N 0.05578 1.00806 0.6208 0.0
C105 C 0.06727 0.02525 0.6002 0.0
C106 C 0.04861 1.00057 0.56627 0.0
C107 C 0.04415 0.99236 0.59944 0.0
C108 C 0.11145 1.00502 0.50436 0.0
O109 O 0.0925 0.99013 0.51164 0.0
H110 H 0.0778 0.04118 0.60899 0.0
H111 H 0.0408 0.99289 0.54337 0.0
O112 O 0.0689 0.07905 0.55157 0.0
H113 H 0.98695 0.04789 0.46296 0.0
H114 H 0.03208 0.97697 0.60717 0.0
Cu115 Cu 0.3589 0.69906 0.76517 0.0
N116 N 0.39484 0.70588 0.76201 0.0
N117 N 0.43119 0.72402 0.74447 0.0
C118 C 0.4064 0.71865 0.73624 0.0
C119 C 0.43547 0.71411 0.77649 0.0
C120 C 0.41312 0.7028 0.78715 0.0
O121 O 0.34268 0.70473 0.72056 0.0
C122 C 0.34672 0.7423 0.81261 0.0
O123 O 0.36831 0.75143 0.80038 0.0
H124 H 0.39625 0.7253 0.71273 0.0
H125 H 0.40982 0.69416 0.81211 0.0
N126 N 0.35655 0.66378 0.77994 0.0
N127 N 0.33926 0.62918 0.80457 0.0
C128 C 0.33471 0.65544 0.79501 0.0
C129 C 0.37565 0.64211 0.77982 0.0
C130 C 0.36506 0.62075 0.795 0.0
C131 C 0.33679 0.72809 0.70734 0.0
O132 O 0.34063 0.74917 0.72508 0.0
H133 H 0.31608 0.66866 0.79969 0.0
H134 H 0.39591 0.64194 0.7698 0.0
O135 O 0.33905 0.72171 0.79941 0.0
H136 H 0.45319 0.71562 0.79146 0.0
H137 H 0.37559 0.60058 0.79859 0.0
Cu138 Cu 0.50496 1.00195 0.01917 0.0
N139 N 0.52771 0.01379 0.98562 0.0
N140 N 0.54487 0.02142 0.93389 0.0
C141 C 0.52618 1.00984 0.95181 0.0
C142 C 0.55865 0.03314 0.95742 0.0
C143 C 0.54791 0.02853 0.98928 0.0
O144 O 0.46951 1.00584 0.99788 0.0
C145 C 0.54412 0.96189 0.04273 0.0
O146 O 0.5576 0.9825 0.04062 0.0
H147 H 0.51171 0.99853 0.94067 0.0
H148 H 0.55429 0.03557 0.01339 0.0
N149 N 0.50461 0.02351 0.0576 0.0
N150 N 0.50696 0.03472 0.11246 0.0
C151 C 0.50562 0.01463 0.09026 0.0
C152 C 0.50517 0.05015 0.05893 0.0
C153 C 0.5066 0.05715 0.09272 0.0
C154 C 0.44858 0.02026 0.00975 0.0
O155 O 0.44908 0.02979 0.04073 0.0
H156 H 0.50557 0.99373 0.09738 0.0
H157 H 0.50513 0.06342 0.03684 0.0
O158 O 0.51948 0.96527 0.03375 0.0
H159 H 0.57498 0.04466 0.95198 0.0
H160 H 0.5081 0.0771 0.10179 0.0
Cu161 Cu 0.21633 0.33754 0.26641 0.0
N162 N 0.18033 0.33142 0.26402 0.0
N163 N 0.14375 0.31423 0.24738 0.0
C164 C 0.16988 0.31656 0.24059 0.0
C165 C 0.13754 0.32831 0.27619 0.0
C166 C 0.16011 0.33891 0.28634 0.0
O167 O 0.23273 0.3309 0.22166 0.0
C168 C 0.22679 0.29463 0.31552 0.0
O169 O 0.20597 0.28551 0.30226 0.0
H170 H 0.18153 0.30687 0.21965 0.0
H171 H 0.16186 0.35077 0.30879 0.0
N172 N 0.21869 0.37329 0.277 0.0
N173 N 0.23462 0.40862 0.29922 0.0
C174 C 0.23408 0.3818 0.30144 0.0
C175 C 0.20905 0.39546 0.25882 0.0
C176 C 0.21886 0.41729 0.27244 0.0
C177 C 0.24058 0.30769 0.20975 0.0
O178 O 0.23935 0.28631 0.22927 0.0
H179 H 0.24583 0.36839 0.31929 0.0
H180 H 0.19668 0.39554 0.23639 0.0
O181 O 0.23499 0.31543 0.30238 0.0
H182 H 0.11811 0.33079 0.28908 0.0
H183 H 0.21514 0.43784 0.26294 0.0
Cu184 Cu 0.83081 0.27405 0.78636 0.0
N185 N 0.81334 0.27167 0.74531 0.0
N186 N 0.81069 0.26025 0.69078 0.0
C187 C 0.82379 0.25512 0.72048 0.0
C188 C 0.79103 0.28091 0.69723 0.0
C189 C 0.7927 0.28792 0.73107 0.0
O190 O 0.86844 0.27335 0.77153 0.0
C191 C 0.79186 0.30528 0.82498 0.0
O192 O 0.78027 0.28364 0.82102 0.0
H193 H 0.84206 0.241 0.72353 0.0
H194 H 0.78085 0.30465 0.74372 0.0
N195 N 0.8268 0.2434 0.81265 0.0
N196 N 0.82997 0.2136 0.85596 0.0
C197 C 0.83401 0.2385 0.84537 0.0
C198 C 0.81739 0.22109 0.8023 0.0
C199 C 0.8193 0.20266 0.82898 0.0
C200 C 0.88736 0.25466 0.77962 0.0
O201 O 0.8836 0.23821 0.80511 0.0
H202 H 0.8427 0.25272 0.86073 0.0
H203 H 0.8103 0.21817 0.77687 0.0
O204 O 0.81492 0.30615 0.81107 0.0
H205 H 0.77722 0.29095 0.67854 0.0
H206 H 0.81432 0.1824 0.82808 0.0
Cu207 Cu 0.7631 0.73733 0.25817 0.0
N208 N 0.7857 0.73692 0.21958 0.0
N209 N 0.79725 0.73859 0.16421 0.0
C210 C 0.77737 0.73588 0.18715 0.0
C211 C 0.81906 0.74127 0.1831 0.0
C212 C 0.81187 0.74021 0.21726 0.0
O213 O 0.72724 0.75312 0.2424 0.0
C214 C 0.78341 0.68206 0.27157 0.0
O215 O 0.79755 0.68403 0.24336 0.0
H216 H 0.7567 0.7345 0.18061 0.0
H217 H 0.8246 0.74236 0.23884 0.0
N218 N 0.77415 0.75907 0.29197 0.0
N219 N 0.78052 0.7737 0.34447 0.0
C220 C 0.76967 0.75573 0.32566 0.0
C221 C 0.78843 0.77982 0.28921 0.0
C222 C 0.79228 0.78898 0.32158 0.0
C223 C 0.72675 0.77631 0.2283 0.0
O224 O 0.74891 0.78754 0.22842 0.0
H225 H 0.75849 0.74044 0.33607 0.0
H226 H 0.79575 0.78758 0.26542 0.0
O227 O 0.76553 0.7016 0.27994 0.0
H228 H 0.8387 0.74417 0.17303 0.0
H229 H 0.80333 0.80526 0.32777 0.0
Cu230 Cu 0.89539 0.16396 0.27351 0.0
N231 N 0.90729 0.13891 0.23993 0.0
N232 N 0.91153 0.12395 0.18667 0.0
C233 C 0.90454 0.14532 0.20662 0.0
C234 C 0.91903 0.10297 0.20799 0.0
C235 C 0.91675 0.11238 0.2411 0.0
O236 O 0.90294 0.19858 0.2542 0.0
C237 C 0.85373 0.13686 0.29437 0.0
O238 O 0.87438 0.11765 0.29477 0.0
H239 H 0.89622 0.16512 0.1972 0.0
H240 H 0.9207 0.10048 0.26423 0.0
N241 N 0.9137 0.15809 0.31452 0.0
N242 N 0.91954 0.16332 0.37029 0.0
C243 C 0.90588 0.17269 0.34217 0.0
C244 C 0.9332 0.13866 0.32523 0.0
C245 C 0.9368 0.1418 0.35986 0.0
C246 C 0.92784 0.19874 0.24665 0.0
O247 O 0.94496 0.17733 0.2547 0.0
H248 H 0.88926 0.18899 0.34193 0.0
H249 H 0.94337 0.12285 0.30941 0.0
O250 O 0.85763 0.16055 0.28504 0.0
H251 H 0.92511 0.08241 0.20022 0.0
H252 H 0.95055 0.12894 0.37615 0.0
Cu253 Cu 0.72006 0.83741 0.76122 0.0
N254 N 0.68365 0.83287 0.75748 0.0
N255 N 0.64621 0.81783 0.73962 0.0
C256 C 0.67292 0.81803 0.73425 0.0
C257 C 0.63993 0.83331 0.76726 0.0
C258 C 0.66301 0.84259 0.77813 0.0
O259 O 0.73778 0.82851 0.7177 0.0
C260 C 0.72699 0.79781 0.81549 0.0
O261 O 0.70412 0.79078 0.80539 0.0
H262 H 0.68463 0.80699 0.71435 0.0
H263 H 0.66474 0.85522 0.79986 0.0
N264 N 0.72349 0.87321 0.7703 0.0
N265 N 0.73984 0.90863 0.79168 0.0
C266 C 0.73958 0.88176 0.79388 0.0
C267 C 0.71309 0.89539 0.75265 0.0
C268 C 0.72316 0.91727 0.76575 0.0
C269 C 0.74278 0.80462 0.70673 0.0
O270 O 0.7374 0.78454 0.72646 0.0
H271 H 0.75176 0.86835 0.81133 0.0
H272 H 0.69974 0.8955 0.73116 0.0
O273 O 0.73728 0.81598 0.79888 0.0
H274 H 0.62008 0.83768 0.77884 0.0
H275 H 0.71874 0.93788 0.75667 0.0
Cu276 Cu 0.46449 0.5853 0.52935 0.0
N277 N 0.42873 0.58031 0.52168 0.0
N278 N 0.39339 0.56335 0.5008 0.0
C279 C 0.41925 0.56743 0.49544 0.0
C280 C 0.38631 0.57429 0.53143 0.0
C281 C 0.4081 0.58474 0.5442 0.0
O282 O 0.48616 0.57146 0.49039 0.0
C283 C 0.49908 0.56623 0.58426 0.0
O284 O 0.51745 0.57727 0.56688 0.0
H285 H 0.43149 0.55981 0.47379 0.0
H286 H 0.40927 0.59382 0.56889 0.0
N287 N 0.46774 0.62188 0.53318 0.0
N288 N 0.48229 0.6595 0.5507 0.0
C289 C 0.47817 0.63417 0.55927 0.0
C290 C 0.46484 0.6402 0.50751 0.0
C291 C 0.47386 0.66336 0.51818 0.0
C292 C 0.48966 0.54675 0.48245 0.0
O293 O 0.47992 0.52921 0.50273 0.0
H294 H 0.48433 0.62423 0.58321 0.0
H295 H 0.45808 0.6364 0.48216 0.0
O296 O 0.47573 0.56672 0.57174 0.0
H297 H 0.36697 0.57412 0.54411 0.0
H298 H 0.47511 0.68129 0.50278 0.0
Cu299 Cu 0.08518 0.4578 0.01881 0.0
N300 N 0.12115 0.45834 0.00462 0.0
N301 N 0.15823 0.47217 0.98132 0.0
C302 C 0.13144 0.47835 0.98769 0.0
C303 C 0.16492 0.44721 0.99488 0.0
C304 C 0.14212 0.43881 0.00919 0.0
O305 O 0.06203 0.47248 0.9817 0.0
C306 C 0.0557 0.48349 0.07458 0.0
O307 O 0.03441 0.47821 0.05814 0.0
H308 H 0.11956 0.49721 0.98059 0.0
H309 H 0.14091 0.41973 0.02197 0.0
N310 N 0.07849 0.42232 0.02695 0.0
N311 N 0.06086 0.38653 0.04783 0.0
C312 C 0.06272 0.413 0.05147 0.0
C313 C 0.08682 0.40111 0.00714 0.0
C314 C 0.07612 0.37909 0.01992 0.0
C315 C 0.05855 0.49703 0.97201 0.0
O316 O 0.06906 0.51485 0.98976 0.0
H317 H 0.05268 0.42541 0.0714 0.0
H318 H 0.0993 0.40181 0.98443 0.0
O319 O 0.07894 0.47748 0.06102 0.0
H320 H 0.18479 0.43556 0.99419 0.0
H321 H 0.07874 0.35935 0.0087 0.0
Cu322 Cu 0.56297 0.52392 0.03535 0.0
N323 N 0.53958 0.51999 0.99955 0.0
N324 N 0.52439 0.51914 0.9461 0.0
C325 C 0.54531 0.52289 0.96608 0.0
C326 C 0.50477 0.51361 0.96811 0.0
C327 C 0.5142 0.51413 1.00098 0.0
O328 O 0.59947 0.51062 0.01875 0.0
C329 C 0.53323 0.56766 0.06469 0.0
O330 O 0.51634 0.54987 0.06548 0.0
H331 H 0.56463 0.52743 0.95675 0.0
H332 H 0.50323 0.51064 0.02425 0.0
N333 N 0.55537 0.50326 0.07376 0.0
N334 N 0.54871 0.49369 0.12907 0.0
C335 C 0.55911 0.51008 0.10627 0.0
C336 C 0.54238 0.48156 0.07592 0.0
C337 C 0.53834 0.47554 0.11001 0.0
C338 C 0.60296 0.48571 0.01133 0.0
O339 O 0.58263 0.47204 0.01589 0.0
H340 H 0.56852 0.52738 0.11289 0.0
H341 H 0.53534 0.4715 0.05431 0.0
O342 O 0.55634 0.56135 0.05054 0.0
H343 H 0.48481 0.50993 0.96117 0.0
H344 H 0.52741 0.45987 0.11984 0.0
Cu345 Cu 0.99843 0.50092 0.52546 0.0
N346 N 0.02078 0.51148 0.49065 0.0
N347 N 0.03576 0.51815 0.43748 0.0
C348 C 0.01764 0.50721 0.45719 0.0
C349 C 0.05096 0.52973 0.45955 0.0
C350 C 0.04158 0.5257 0.49233 0.0
O351 O 0.96295 0.50352 0.5043 0.0
C352 C 0.03675 0.46446 0.55665 0.0
O353 O 0.04829 0.48641 0.55557 0.0
H354 H 1.00227 0.49626 0.4476 0.0
H355 H 0.04908 0.53301 0.51565 0.0
N356 N 0.99742 0.5242 0.56242 0.0
N357 N 0.99815 0.53734 0.61671 0.0
C358 C 0.99711 0.51656 0.59555 0.0
C359 C 0.99853 0.55081 0.56241 0.0
C360 C 0.99901 0.55898 0.59589 0.0
C361 C 0.94205 0.51855 0.51525 0.0
O362 O 0.94243 0.52909 0.54567 0.0
H363 H 0.99713 0.49589 0.60382 0.0
H364 H 0.99938 0.56326 0.53969 0.0
O365 O 0.01371 0.46521 0.54288 0.0
H366 H 0.06724 0.5409 0.45251 0.0
H367 H 1.00007 0.57926 0.60414 0.0
C368 C 0.98716 0.05062 0.13638 0.0
C369 C 1.00843 0.05856 0.11656 0.0
C370 C 0.98946 0.0474 0.17179 0.0
C371 C 0.03905 0.03868 0.24184 0.0
H372 H 0.97748 0.06731 0.29782 0.0
C373 C 0.0467 0.05314 0.38704 0.0
C374 C 0.02592 0.04548 0.40803 0.0
C375 C 0.04441 0.05381 0.3515 0.0
C376 C 0.99474 0.05894 0.28254 0.0
H377 H 0.04908 0.06868 0.11841 0.0
H378 H 0.05308 0.06314 0.1802 0.0
H379 H 0.9741 0.0695 0.2357 0.0
H380 H 0.98644 0.03234 0.40762 0.0
H381 H 0.98237 0.03384 0.34563 0.0
H382 H 0.05978 0.02844 0.28874 0.0
C383 C 0.03468 0.05916 0.16832 0.0
C384 C 0.99281 0.06015 0.24693 0.0
C385 C 0.03237 0.0624 0.13287 0.0
C386 C 1.00271 0.03868 0.39243 0.0
C387 C 1.00036 0.0395 0.35685 0.0
C388 C 0.04101 0.03755 0.27743 0.0
C389 C 0.0131 0.052 0.18826 0.0
C390 C 0.01497 0.05009 0.22615 0.0
C391 C 0.02123 0.04699 0.33599 0.0
C392 C 0.01891 0.04775 0.29818 0.0
H393 H 0.9684 0.04749 0.12468 0.0
H394 H 0.97262 0.04146 0.18631 0.0
H395 H 0.05636 0.03038 0.22662 0.0
H396 H 0.06465 0.05904 0.39796 0.0
H397 H 0.06065 0.0601 0.33615 0.0
C398 C 0.29912 0.72471 0.39881 0.0
C399 C 0.29851 0.74971 0.3819 0.0
C400 C 0.30076 0.72282 0.43447 0.0
C401 C 0.32198 0.75932 0.50829 0.0
H402 H 0.28327 0.71086 0.5615 0.0
C403 C 0.3241 0.75685 0.65544 0.0
C404 C 0.32821 0.73127 0.67124 0.0
C405 C 0.31812 0.75964 0.62066 0.0
C406 C 0.29435 0.72435 0.54695 0.0
H407 H 0.29776 0.79251 0.38931 0.0
H408 H 0.30051 0.78928 0.45129 0.0
H409 H 0.27731 0.71456 0.49967 0.0
H410 H 0.32844 0.6886 0.66305 0.0
H411 H 0.31818 0.69348 0.60239 0.0
H412 H 0.33918 0.76897 0.55539 0.0
C413 C 0.30042 0.771 0.43704 0.0
C414 C 0.29097 0.72644 0.51152 0.0
C415 C 0.29887 0.77286 0.40147 0.0
C416 C 0.3254 0.70862 0.6517 0.0
C417 C 0.31938 0.71141 0.61693 0.0
C418 C 0.32533 0.75725 0.54364 0.0
C419 C 0.30172 0.74593 0.45399 0.0
C420 C 0.30481 0.74391 0.49175 0.0
C421 C 0.31606 0.73692 0.60089 0.0
C422 C 0.31163 0.73969 0.56341 0.0
H423 H 0.29905 0.70651 0.38443 0.0
H424 H 0.30201 0.70316 0.44666 0.0
H425 H 0.33335 0.7726 0.4938 0.0
H426 H 0.326 0.77474 0.66976 0.0
H427 H 0.31527 0.77961 0.6092 0.0
C428 C 0.57488 0.02293 0.88335 0.0
C429 C 0.54915 0.02134 0.89735 0.0
C430 C 0.57916 0.02239 0.84797 0.0
C431 C 0.54976 1.00179 0.76793 0.0
H432 H 0.60117 0.04356 0.72558 0.0
C433 C 0.57185 0.99999 0.62224 0.0
C434 C 0.59942 0.9952 0.61356 0.0
C435 C 0.56361 1.0067 0.65573 0.0
C436 C 0.58677 0.03176 0.73706 0.0
H437 H 0.50757 0.01867 0.88503 0.0
H438 H 0.51492 0.01802 0.82331 0.0
H439 H 0.59068 0.04834 0.7864 0.0
H440 H 0.63987 0.99488 0.63274 0.0
H441 H 0.62554 1.0068 0.69082 0.0
H442 H 0.54605 0.9851 0.71852 0.0
C443 C 0.53196 0.01911 0.83969 0.0
C444 C 0.58084 0.03439 0.77195 0.0
C445 C 0.52772 0.01949 0.8751 0.0
C446 C 0.61848 0.99839 0.63861 0.0
C447 C 0.61026 1.00537 0.67189 0.0
C448 C 0.55558 0.99929 0.73297 0.0
C449 C 0.55777 0.02043 0.82565 0.0
C450 C 0.56261 0.01909 0.78799 0.0
C451 C 0.58278 1.00911 0.68102 0.0
C452 C 0.5745 0.01391 0.71727 0.0
H453 H 0.59188 0.02399 0.89977 0.0
H454 H 0.59942 0.02292 0.83819 0.0
H455 H 0.53588 0.98943 0.77943 0.0
H456 H 0.55669 0.9976 0.60352 0.0
H457 H 0.54228 1.00968 0.66197 0.0
C458 C 0.29679 0.28587 0.90284 0.0
C459 C 0.27477 0.28001 0.88387 0.0
C460 C 0.29452 0.28899 0.93828 0.0
C461 C 0.2447 0.30607 0.00699 0.0
H462 H 0.30002 0.27036 0.06699 0.0
C463 C 0.24468 0.3275 0.15102 0.0
C464 C 0.24817 0.30488 0.17308 0.0
C465 C 0.24954 0.32473 0.11594 0.0
C466 C 0.2844 0.2804 0.05053 0.0
H467 H 0.233 0.27332 0.88713 0.0
H468 H 0.22896 0.27893 0.9489 0.0
H469 H 0.30498 0.26503 0.00502 0.0
H470 H 0.26042 0.26172 0.17562 0.0
H471 H 0.26918 0.25696 0.11422 0.0
H472 H 0.22405 0.32136 0.05233 0.0
C473 C 0.248 0.28102 0.93639 0.0
C474 C 0.28734 0.27753 0.01509 0.0
C475 C 0.25038 0.2776 0.90107 0.0
C476 C 0.25751 0.27954 0.15935 0.0
C477 C 0.26262 0.27682 0.12421 0.0
C478 C 0.24192 0.30918 0.04232 0.0
C479 C 0.27006 0.28667 0.95541 0.0
C480 C 0.26742 0.29021 0.99297 0.0
C481 C 0.25824 0.29934 0.10207 0.0
C482 C 0.26167 0.29631 0.0645 0.0
H483 H 0.31591 0.2876 0.89036 0.0
H484 H 0.3118 0.29351 0.95225 0.0
H485 H 0.22912 0.31625 0.99058 0.0
H486 H 0.23755 0.34734 0.16068 0.0
H487 H 0.24632 0.3425 0.09958 0.0
C488 C 0.0567 0.03173 0.6757 0.0
C489 C 0.05387 1.0083 0.65769 0.0
C490 C 0.05378 0.03237 0.71123 0.0
C491 C 0.0215 1.00028 0.78267 0.0
H492 H 0.06754 0.03771 0.83795 0.0
C493 C 1.00498 1.01003 0.92855 0.0
C494 C 1.00606 0.03574 0.94165 0.0
C495 C 0.01413 1.00376 0.89529 0.0
C496 C 0.05441 0.02731 0.82286 0.0
H497 H 0.0464 0.96692 0.66341 0.0
H498 H 0.04101 0.96816 0.72547 0.0
H499 H 0.07716 0.03226 0.77699 0.0
H500 H 0.01848 0.07471 0.93042 0.0
H501 H 0.03402 0.06394 0.87256 0.0
H502 H 0.99828 0.99597 0.82824 0.0
C503 C 0.04529 0.9861 0.71189 0.0
C504 C 0.05994 0.02418 0.78794 0.0
C505 C 0.04834 0.98542 0.6763 0.0
C506 C 0.01737 0.05469 0.9212 0.0
C507 C 0.02645 0.04845 0.888 0.0
C508 C 0.0159 1.0035 0.81758 0.0
C509 C 0.04784 1.00964 0.72974 0.0
C510 C 0.04331 0.01099 0.76734 0.0
C511 C 0.02455 0.02306 0.87441 0.0
C512 C 0.03203 0.01743 0.83802 0.0
H513 H 0.06044 0.04993 0.66239 0.0
H514 H 0.0554 0.05097 0.72412 0.0
H515 H 1.00812 0.99029 0.76744 0.0
H516 H 0.99648 0.99492 0.94366 0.0
H517 H 1.01274 0.98388 0.88581 0.0
C518 C 0.90316 0.1999 0.40967 0.0
C519 C 0.91388 0.17287 0.40449 0.0
C520 C 0.89415 0.20871 0.44196 0.0
C521 C 0.86874 0.18312 0.52308 0.0
H522 H 0.87445 0.25509 0.55379 0.0
C523 C 0.83291 0.22245 0.65669 0.0
C524 C 0.8195 0.24894 0.65829 0.0
C525 C 0.84453 0.21235 0.62608 0.0
C526 C 0.87247 0.23503 0.54538 0.0
H527 H 0.92477 0.13413 0.42957 0.0
H528 H 0.90956 0.14966 0.48643 0.0
H529 H 0.89737 0.23891 0.50122 0.0
H530 H 0.80709 0.28538 0.62877 0.0
H531 H 0.82717 0.26766 0.57506 0.0
H532 H 0.8439 0.17929 0.56744 0.0
C533 C 0.90765 0.16393 0.46522 0.0
C534 C 0.88565 0.22572 0.5153 0.0
C535 C 0.91668 0.15509 0.43276 0.0
C536 C 0.8171 0.26484 0.62829 0.0
C537 C 0.82889 0.2548 0.59767 0.0
C538 C 0.85569 0.19239 0.5533 0.0
C539 C 0.89576 0.19073 0.47002 0.0
C540 C 0.88369 0.19977 0.50354 0.0
C541 C 0.8431 0.2286 0.5964 0.0
C542 C 0.85716 0.21856 0.56455 0.0
H543 H 0.90111 0.21419 0.38851 0.0
H544 H 0.88493 0.22942 0.44456 0.0
H545 H 0.86643 0.16319 0.51452 0.0
H546 H 0.83488 0.20968 0.67936 0.0
H547 H 0.85542 0.19213 0.62594 0.0
C548 C 0.50413 0.05519 0.16998 0.0
C549 C 0.50964 0.0324 0.14922 0.0
C550 C 0.50736 0.05296 0.20543 0.0
C551 C 0.5114 1.00402 0.27735 0.0
H552 H 0.55114 0.054 0.32239 0.0
C553 C 0.55747 0.98192 0.41049 0.0
C554 C 0.55903 1.00333 0.4327 0.0
C555 C 0.54797 0.98679 0.37726 0.0
C556 C 0.53955 0.04015 0.31043 0.0
H557 H 0.52317 0.98932 0.15015 0.0
H558 H 0.52828 0.98551 0.21165 0.0
H559 H 0.54105 0.0602 0.26176 0.0
H560 H 0.55079 0.04666 0.43771 0.0
H561 H 0.53369 0.05515 0.37986 0.0
H562 H 0.50993 0.98388 0.32583 0.0
C563 C 0.5212 1.00507 0.20045 0.0
C564 C 0.53384 0.04369 0.27561 0.0
C565 C 0.51821 1.0073 0.16504 0.0
C566 C 0.54996 0.0297 0.42124 0.0
C567 C 0.54035 0.03458 0.38796 0.0
C568 C 0.51693 1.00059 0.31218 0.0
C569 C 0.51594 0.02786 0.22105 0.0
C570 C 0.52011 0.02539 0.25857 0.0
C571 C 0.53963 0.01321 0.36537 0.0
C572 C 0.53151 0.01832 0.32907 0.0
H573 H 0.49715 0.07479 0.15897 0.0
H574 H 0.50291 0.07086 0.22068 0.0
H575 H 0.50038 0.98985 0.26504 0.0
H576 H 0.56434 0.96134 0.41838 0.0
H577 H 0.5481 0.96983 0.36053 0.0
C578 C 0.81135 0.7554 0.1077 0.0
C579 C 0.79466 0.74068 0.12749 0.0
C580 C 0.80743 0.75904 0.07248 0.0
C581 C 0.77408 0.73308 0.99814 0.0
H582 H 0.77546 0.80495 0.96087 0.0
C583 C 0.72642 0.76899 0.86855 0.0
C584 C 0.73904 0.78711 0.84827 0.0
C585 C 0.73615 0.7611 0.90105 0.0
C586 C 0.77542 0.78464 0.97065 0.0
H587 H 0.76151 0.71726 0.12529 0.0
H588 H 0.75437 0.72397 0.0642 0.0
H589 H 0.78724 0.79524 0.02035 0.0
H590 H 0.77252 0.81027 0.84581 0.0
H591 H 0.78964 0.79624 0.90226 0.0
H592 H 0.7618 0.72263 0.9485 0.0
C593 C 0.77061 0.73261 0.0758 0.0
C594 C 0.78219 0.77907 0.00483 0.0
C595 C 0.7745 0.72903 0.11098 0.0
C596 C 0.76221 0.79637 0.86077 0.0
C597 C 0.77193 0.78848 0.89327 0.0
C598 C 0.76731 0.73865 0.96392 0.0
C599 C 0.78679 0.74796 0.05615 0.0
C600 C 0.78132 0.7533 0.01914 0.0
C601 C 0.75874 0.77112 0.91409 0.0
C602 C 0.76762 0.76459 0.94983 0.0
H603 H 0.82696 0.76481 0.11952 0.0
H604 H 0.82047 0.77071 0.05806 0.0
H605 H 0.7736 0.71291 0.00817 0.0
H606 H 0.70852 0.76147 0.85977 0.0
H607 H 0.72532 0.74791 0.91646 0.0
C608 C 0.48546 0.54273 0.63744 0.0
C609 C 0.50419 0.55649 0.61987 0.0
C610 C 0.48884 0.53585 0.67204 0.0
C611 C 0.53861 0.52988 0.74271 0.0
H612 H 0.47417 0.53975 0.79984 0.0
C613 C 0.54132 0.53479 0.89033 0.0
C614 C 0.52311 0.52115 0.90919 0.0
C615 C 0.53979 0.5371 0.85472 0.0
C616 C 0.49232 0.53658 0.7842 0.0
H617 H 0.54158 0.5732 0.62474 0.0
H618 H 0.5472 0.56173 0.6852 0.0
H619 H 0.47038 0.54701 0.73834 0.0
H620 H 0.48933 0.49867 0.90466 0.0
H621 H 0.48645 0.50313 0.84275 0.0
H622 H 0.56054 0.52011 0.78894 0.0
C623 C 0.5301 0.5558 0.67216 0.0
C624 C 0.49017 0.54067 0.74886 0.0
C625 C 0.52683 0.56248 0.63745 0.0
C626 C 0.50343 0.50973 0.8913 0.0
C627 C 0.50179 0.51222 0.8557 0.0
C628 C 0.54076 0.52599 0.77812 0.0
C629 C 0.51091 0.54277 0.69007 0.0
C630 C 0.51328 0.53745 0.72761 0.0
C631 C 0.5199 0.52601 0.83701 0.0
C632 C 0.51765 0.52938 0.79928 0.0
H633 H 0.4679 0.53762 0.6246 0.0
H634 H 0.47396 0.52531 0.68474 0.0
H635 H 0.5568 0.52681 0.72716 0.0
H636 H 0.55651 0.54422 0.90298 0.0
H637 H 0.55382 0.54817 0.8411 0.0
C638 C 0.85974 0.20795 0.90603 0.0
C639 C 0.83804 0.20042 0.88794 0.0
C640 C 0.86822 0.1947 0.93641 0.0
C641 C 0.84581 0.1544 0.00754 0.0
H642 H 0.92233 0.14032 0.02537 0.0
C643 C 0.88836 0.10985 0.13666 0.0
C644 C 0.90773 0.12401 0.15053 0.0
C645 C 0.88032 0.11463 0.10274 0.0
C646 C 0.90096 0.14411 0.02072 0.0
H647 H 0.80802 0.17322 0.88787 0.0
H648 H 0.82302 0.14987 0.9411 0.0
H649 H 0.90702 0.15719 0.9693 0.0
H650 H 0.93464 0.15331 0.14038 0.0
H651 H 0.92168 0.16096 0.08073 0.0
H652 H 0.83992 0.14173 0.05937 0.0
C653 C 0.83337 0.16613 0.93166 0.0
C654 C 0.89213 0.15383 0.98867 0.0
C655 C 0.82492 0.17936 0.90109 0.0
C656 C 0.91998 0.14193 0.12976 0.0
C657 C 0.91244 0.1463 0.09577 0.0
C658 C 0.85473 0.14453 0.03968 0.0
C659 C 0.85524 0.17357 0.94951 0.0
C660 C 0.86444 0.15988 0.98204 0.0
C661 C 0.89205 0.13321 0.08207 0.0
C662 C 0.88244 0.14003 0.04687 0.0
H663 H 0.87055 0.22379 0.89646 0.0
H664 H 0.88487 0.20121 0.94982 0.0
H665 H 0.82433 0.15895 0.00323 0.0
H666 H 0.87841 0.09631 0.15265 0.0
H667 H 0.86478 0.10404 0.09278 0.0
C668 C 0.07609 0.49777 0.12827 0.0
C669 C 0.05318 0.4928 0.1104 0.0
C670 C 0.07433 0.5037 0.16307 0.0
C671 C 0.02598 0.52466 0.2338 0.0
H672 H 0.08294 0.4882 0.29079 0.0
C673 C 0.01528 0.51549 0.38065 0.0
C674 C 0.03791 0.51792 0.40063 0.0
C675 C 0.01741 0.51468 0.34501 0.0
C676 C 0.06705 0.49885 0.27524 0.0
H677 H 1.01024 0.49109 0.11497 0.0
H678 H 1.00722 0.50118 0.1757 0.0
H679 H 0.08601 0.48336 0.22902 0.0
H680 H 0.08051 0.52159 0.39857 0.0
H681 H 0.08417 0.52049 0.33634 0.0
H682 H 1.00684 0.5398 0.2802 0.0
C683 C 0.02653 0.50076 0.16275 0.0
C684 C 0.06881 0.4961 0.23976 0.0
C685 C 0.02828 0.49487 0.1279 0.0
C686 C 0.06266 0.51986 0.384 0.0
C687 C 0.06481 0.51896 0.34833 0.0
C688 C 0.0242 0.52738 0.26932 0.0
C689 C 0.04963 0.50477 0.18092 0.0
C690 C 0.04822 0.50882 0.21858 0.0
C691 C 0.04223 0.51624 0.3284 0.0
C692 C 0.04462 0.51435 0.2905 0.0
H693 H 0.09557 0.4965 0.11556 0.0
H694 H 0.09243 0.50718 0.17609 0.0
H695 H 1.00995 0.53505 0.21826 0.0
H696 H 0.99581 0.51434 0.39249 0.0
H697 H 0.99966 0.51231 0.33051 0.0
C698 C 0.75628 0.8216 0.64922 0.0
C699 C 0.7515 0.79995 0.67068 0.0
C700 C 0.76214 0.81767 0.61448 0.0
C701 C 0.7523 0.77175 0.54488 0.0
H702 H 0.80398 0.80941 0.49595 0.0
C703 C 0.77714 0.75322 0.40212 0.0
C704 C 0.77973 0.77583 0.38123 0.0
C705 C 0.7756 0.75537 0.43767 0.0
C706 C 0.78929 0.79894 0.50917 0.0
H707 H 0.74999 0.75698 0.67254 0.0
H708 H 0.76042 0.75009 0.61197 0.0
H709 H 0.79849 0.81427 0.55771 0.0
H710 H 0.78284 0.81845 0.38156 0.0
H711 H 0.77996 0.82229 0.44358 0.0
H712 H 0.74279 0.7567 0.49642 0.0
C713 C 0.75928 0.7702 0.62197 0.0
C714 C 0.78618 0.8017 0.54459 0.0
C715 C 0.75349 0.77412 0.65676 0.0
C716 C 0.78114 0.80058 0.39686 0.0
C717 C 0.77953 0.80276 0.43246 0.0
C718 C 0.75537 0.76903 0.5095 0.0
C719 C 0.7633 0.79199 0.6003 0.0
C720 C 0.76755 0.78822 0.56286 0.0
C721 C 0.77654 0.78021 0.45332 0.0
C722 C 0.77382 0.78267 0.49115 0.0
H723 H 0.75489 0.84178 0.65906 0.0
H724 H 0.76486 0.83494 0.5985 0.0
H725 H 0.73742 0.76147 0.55802 0.0
H726 H 0.77655 0.73373 0.39103 0.0
H727 H 0.77384 0.73748 0.45293 0.0
C728 C 0.5472 0.52197 0.18052 0.0
C729 C 0.54656 0.49673 0.16572 0.0
C730 C 0.54421 0.52517 0.21582 0.0
C731 C 0.51621 0.49506 0.2925 0.0
H732 H 0.55802 0.54161 0.34059 0.0
C733 C 0.50282 0.5118 0.43784 0.0
C734 C 0.50137 0.53855 0.44855 0.0
C735 C 0.51133 0.5047 0.40459 0.0
C736 C 0.54605 0.52869 0.32752 0.0
H737 H 0.54277 0.45496 0.17689 0.0
H738 H 0.53742 0.4606 0.23856 0.0
H739 H 0.56705 0.53294 0.2801 0.0
H740 H 0.50862 0.57864 0.43294 0.0
H741 H 0.52315 0.56635 0.37508 0.0
H742 H 0.49483 0.49124 0.33967 0.0
C743 C 0.53998 0.47796 0.22267 0.0
C744 C 0.55123 0.52371 0.29283 0.0
C745 C 0.54304 0.47473 0.1873 0.0
C746 C 0.50951 0.55783 0.42561 0.0
C747 C 0.518 0.55074 0.3924 0.0
C748 C 0.51099 0.50009 0.32718 0.0
C749 C 0.54042 0.50326 0.23734 0.0
C750 C 0.53615 0.50711 0.27478 0.0
C751 C 0.51862 0.52418 0.38127 0.0
C752 C 0.52561 0.51724 0.34504 0.0
H753 H 0.54933 0.53951 0.16483 0.0
H754 H 0.54415 0.54504 0.22616 0.0
H755 H 0.50399 0.48245 0.27929 0.0
H756 H 0.49679 0.49641 0.45488 0.0
H757 H 0.51197 0.48397 0.39705 0.0
C758 C 0.26557 0.77194 0.10774 0.0
C759 C 0.28181 0.78654 0.12709 0.0
C760 C 0.26903 0.77012 0.0723 0.0
C761 C 0.29951 0.80104 0.99695 0.0
H762 H 0.30041 0.73039 0.95827 0.0
C763 C 0.34567 0.77159 0.86404 0.0
C764 C 0.3339 0.75297 0.84488 0.0
C765 C 0.33594 0.77855 0.89685 0.0
C766 C 0.29976 0.75039 0.96845 0.0
H767 H 0.31376 0.81157 0.12388 0.0
H768 H 0.32017 0.80794 0.06227 0.0
H769 H 0.28983 0.73697 0.0186 0.0
H770 H 0.30152 0.72843 0.84434 0.0
H771 H 0.28431 0.74094 0.90119 0.0
H772 H 0.30993 0.8143 0.94675 0.0
C773 C 0.3046 0.79803 0.07448 0.0
C774 C 0.29371 0.75415 0.00313 0.0
C775 C 0.30115 0.79983 0.10993 0.0
C776 C 0.31124 0.74265 0.8585 0.0
C777 C 0.30147 0.74967 0.89122 0.0
C778 C 0.30556 0.79728 0.96218 0.0
C779 C 0.2888 0.78289 0.05527 0.0
C780 C 0.29375 0.77945 0.0179 0.0
C781 C 0.31417 0.76712 0.91119 0.0
C782 C 0.30598 0.77183 0.94757 0.0
H783 H 0.2506 0.76131 0.12002 0.0
H784 H 0.25629 0.75856 0.05823 0.0
H785 H 0.29936 0.82088 0.00742 0.0
H786 H 0.36316 0.77992 0.85435 0.0
H787 H 0.34632 0.79192 0.91156 0.0
C788 C 0.04978 0.52883 0.92185 0.0
C789 C 0.04623 0.50442 0.93831 0.0
C790 C 0.04133 0.53409 0.88814 0.0
C791 C 0.0267 0.49765 0.8107 0.0
H792 H 0.9997 0.56889 0.77558 0.0
C793 C 0.99072 0.51463 0.67206 0.0
C794 C 0.99988 0.53596 0.65358 0.0
C795 C 0.99405 0.51212 0.70741 0.0
C796 C 1.00738 0.54891 0.785 0.0
H797 H 0.02955 0.46714 0.93297 0.0
H798 H 0.01419 0.4766 0.87474 0.0
H799 H 1.00884 0.56224 0.83657 0.0
H800 H 0.01918 0.57178 0.65835 0.0
H801 H 0.02478 0.56747 0.72011 0.0
H802 H 0.02532 0.4843 0.75926 0.0
C803 C 0.02422 0.49137 0.88739 0.0
C804 C 1.01265 0.54508 0.81995 0.0
C805 C 0.03284 0.48603 0.92094 0.0
C806 C 1.01166 0.55523 0.67165 0.0
C807 C 0.01489 0.55276 0.70712 0.0
C808 C 0.02131 0.50144 0.7759 0.0
C809 C 0.02898 0.51515 0.8702 0.0
C810 C 0.02243 0.51938 0.83325 0.0
C811 C 1.0065 0.53093 0.72532 0.0
C812 C 1.01164 0.5271 0.76258 0.0
H813 H 0.06012 0.54339 0.93445 0.0
H814 H 0.04553 0.55252 0.87571 0.0
H815 H 0.03482 0.47769 0.81975 0.0
H816 H 0.981 0.49974 0.65926 0.0
H817 H 0.98689 0.49535 0.72076 0.0
C818 C 0.22619 0.26327 0.36603 0.0
C819 C 0.23807 0.28333 0.34837 0.0
C820 C 0.23439 0.25515 0.39905 0.0
C821 C 0.28818 0.25665 0.46272 0.0
H822 H 0.2297 0.25449 0.52828 0.0
C823 C 0.3039 0.2565 0.60918 0.0
C824 C 0.28787 0.24186 0.63004 0.0
C825 C 0.2995 0.25906 0.57396 0.0
C826 C 0.24635 0.25452 0.51032 0.0
H827 H 0.2689 0.30957 0.35097 0.0
H828 H 0.28321 0.29534 0.40855 0.0
H829 H 0.21962 0.26243 0.4681 0.0
H830 H 0.25559 0.2173 0.63002 0.0
H831 H 0.24817 0.22134 0.56869 0.0
H832 H 0.31493 0.24883 0.50506 0.0
C833 C 0.26757 0.28587 0.39682 0.0
C834 C 0.24053 0.2591 0.47574 0.0
C835 C 0.25928 0.29409 0.36385 0.0
C836 C 0.26792 0.22916 0.61475 0.0
C837 C 0.26365 0.23152 0.57956 0.0
C838 C 0.29403 0.25188 0.49736 0.0
C839 C 0.25476 0.26679 0.41512 0.0
C840 C 0.26134 0.26039 0.45155 0.0
C841 C 0.27908 0.24686 0.55875 0.0
C842 C 0.27316 0.25092 0.52164 0.0
H843 H 0.20989 0.25445 0.35484 0.0
H844 H 0.22442 0.24009 0.41228 0.0
H845 H 0.30467 0.25729 0.44464 0.0
H846 H 0.31926 0.26673 0.62025 0.0
H847 H 0.31155 0.27131 0.55886 0.0
C848 C 0.99678 0.17369 0.10358 0.0
C849 C 1.001 0.17343 0.06799 0.0
C850 C 1.01041 0.18975 0.12433 0.0
C851 C 0.05135 0.24706 0.1192 0.0
H852 H 0.07399 0.222 0.20984 0.0
C853 C 0.13091 0.29467 0.19333 0.0
C854 C 0.12648 0.29911 0.22846 0.0
C855 C 0.11434 0.27995 0.17498 0.0
C856 C 0.06755 0.22944 0.18471 0.0
H857 H 0.02337 0.18947 0.02649 0.0
H858 H 0.0474 0.21674 0.06221 0.0
H859 H 0.04742 0.19534 0.17582 0.0
H860 H 0.10118 0.29111 0.27183 0.0
H861 H 0.07217 0.26552 0.23974 0.0
H862 H 0.07215 0.28075 0.12787 0.0
C863 C 0.03293 0.2054 0.07435 0.0
C864 C 0.05221 0.21416 0.16514 0.0
C865 C 0.01913 0.18961 0.05368 0.0
C866 C 0.10504 0.28834 0.24476 0.0
C867 C 0.08856 0.27342 0.22644 0.0
C868 C 0.06684 0.26215 0.13861 0.0
C869 C 0.0288 0.20583 0.11004 0.0
C870 C 0.04404 0.22263 0.1319 0.0
C871 C 0.09296 0.2691 0.19127 0.0
C872 C 0.07538 0.25344 0.17146 0.0
H873 H 0.98283 0.16154 0.11537 0.0
H874 H 1.00638 0.18955 0.15156 0.0
H875 H 0.0451 0.25468 0.09413 0.0
H876 H 0.14705 0.30282 0.17985 0.0
H877 H 0.11851 0.2768 0.14801 0.0
C878 C 0.15165 1.00739 0.46507 0.0
C879 C 0.13642 0.99249 0.48676 0.0
C880 C 0.17333 0.9943 0.44569 0.0
C881 C 0.2198 0.92983 0.4402 0.0
H882 H 0.2195 0.94274 0.3422 0.0
C883 C 0.25687 0.84767 0.34569 0.0
C884 C 0.2713 0.85331 0.31602 0.0
C885 C 0.24652 0.86812 0.36779 0.0
C886 C 0.2203 0.93927 0.36959 0.0
H887 H 0.13265 0.95243 0.50609 0.0
H888 H 0.17029 0.92991 0.47308 0.0
H889 H 0.18983 0.97294 0.37938 0.0
H890 H 0.28675 0.88479 0.28648 0.0
H891 H 0.2679 0.92119 0.3252 0.0
H892 H 0.24926 0.89556 0.43044 0.0
C893 C 0.16568 0.95159 0.47081 0.0
C894 C 0.20328 0.95657 0.3909 0.0
C895 C 0.14393 0.96452 0.48963 0.0
C896 C 0.2758 0.87992 0.3093 0.0
C897 C 0.2649 0.90069 0.33129 0.0
C898 C 0.23672 0.91263 0.41899 0.0
C899 C 0.18047 0.96618 0.44822 0.0
C900 C 0.20209 0.9514 0.42633 0.0
C901 C 0.24997 0.89496 0.36071 0.0
C902 C 0.23643 0.9165 0.38332 0.0
H903 H 0.14621 0.02895 0.46214 0.0
H904 H 0.18436 1.0061 0.42855 0.0
H905 H 0.2198 0.9256 0.46744 0.0
H906 H 0.25319 0.82732 0.35163 0.0
H907 H 0.23488 0.86297 0.38988 0.0
C908 C 0.45195 0.73642 0.68966 0.0
C909 C 0.44808 0.73994 0.72497 0.0
C910 C 0.46822 0.75211 0.67081 0.0
C911 C 0.51816 0.80125 0.6816 0.0
H912 H 0.50241 0.81681 0.5861 0.0
C913 C 0.5659 0.88198 0.60179 0.0
C914 C 0.57529 0.87458 0.56876 0.0
C915 C 0.55086 0.86546 0.62121 0.0
C916 C 0.50716 0.81257 0.61273 0.0
H917 H 0.45771 0.76294 0.76813 0.0
H918 H 0.4847 0.79127 0.73544 0.0
H919 H 0.4755 0.78844 0.61875 0.0
H920 H 0.57595 0.84394 0.53032 0.0
H921 H 0.54972 0.81523 0.56409 0.0
H922 H 0.54931 0.82631 0.67547 0.0
C923 C 0.47636 0.7757 0.72211 0.0
C924 C 0.49181 0.79602 0.63156 0.0
C925 C 0.46066 0.75956 0.74101 0.0
C926 C 0.56927 0.8502 0.55572 0.0
C927 C 0.55397 0.83386 0.57495 0.0
C928 C 0.53311 0.81827 0.66293 0.0
C929 C 0.48052 0.77227 0.68663 0.0
C930 C 0.49711 0.78991 0.66634 0.0
C931 C 0.54449 0.8413 0.6079 0.0
C932 C 0.52796 0.82396 0.62817 0.0
H933 H 0.44269 0.72122 0.67676 0.0
H934 H 0.47124 0.74818 0.64385 0.0
H935 H 0.5236 0.79667 0.70792 0.0
H936 H 0.57036 0.90047 0.61275 0.0
H937 H 0.5438 0.87184 0.64645 0.0
C938 C 0.28319 0.16143 0.83217 0.0
C939 C 0.2913 0.16068 0.79759 0.0
C940 C 0.29592 0.14277 0.85591 0.0
C941 C 0.34227 0.07792 0.86447 0.0
H942 H 0.36264 0.10896 0.94852 0.0
C943 C 0.42793 0.02626 0.95136 0.0
C944 C 0.42579 0.03032 0.98683 0.0
C945 C 0.4083 0.03924 0.92925 0.0
C946 C 0.35676 0.09973 0.92552 0.0
H947 H 0.31818 0.13867 0.76067 0.0
H948 H 0.34031 0.10634 0.8019 0.0
H949 H 0.33372 0.13654 0.90844 0.0
H950 H 0.4004 0.05003 0.02692 0.0
H951 H 0.36599 0.07212 0.98856 0.0
H952 H 0.36582 0.04121 0.88138 0.0
C953 C 0.32406 0.12123 0.81077 0.0
C954 C 0.34011 0.11563 0.90245 0.0
C955 C 0.3114 0.13991 0.78707 0.0
C956 C 0.40283 0.04656 0.99975 0.0
C957 C 0.38317 0.05944 0.97767 0.0
C958 C 0.35893 0.06198 0.88762 0.0
C959 C 0.317 0.12284 0.84567 0.0
C960 C 0.33287 0.10506 0.87141 0.0
C961 C 0.38596 0.05653 0.94204 0.0
C962 C 0.36667 0.07275 0.91832 0.0
H963 H 0.26779 0.17711 0.84123 0.0
H964 H 0.28963 0.14434 0.88248 0.0
H965 H 0.33685 0.069 0.84103 0.0
H966 H 0.44539 0.01401 0.94045 0.0
H967 H 0.41132 0.03664 0.902 0.0
C968 C 0.86885 0.02651 0.98836 0.0
C969 C 0.88336 0.04622 0.97433 0.0
C970 C 0.85394 0.01192 0.9675 0.0
C971 C 0.8193 0.01382 0.88544 0.0
H972 H 0.82587 0.93645 0.89846 0.0
C973 C 0.76542 0.94716 0.79704 0.0
C974 C 0.75584 0.92441 0.81149 0.0
C975 C 0.78143 0.96211 0.81601 0.0
C976 C 0.82339 0.95807 0.89474 0.0
H977 H 0.8933 0.06625 0.92736 0.0
H978 H 0.86677 0.04092 0.8907 0.0
H979 H 0.85266 0.96245 0.93289 0.0
H980 H 0.75507 0.89994 0.8575 0.0
H981 H 0.78222 0.92631 0.89095 0.0
H982 H 0.78949 1.00968 0.84803 0.0
C983 C 0.8671 0.03677 0.91796 0.0
C984 C 0.83892 0.97296 0.91442 0.0
C985 C 0.88239 0.05114 0.93886 0.0
C986 C 0.76243 0.91713 0.84549 0.0
C987 C 0.77815 0.93226 0.86461 0.0
C988 C 0.80349 0.99896 0.86602 0.0
C989 C 0.85287 0.01683 0.93205 0.0
C990 C 0.837 1.00102 0.91012 0.0
C991 C 0.78805 0.95491 0.85012 0.0
C992 C 0.8052 0.97084 0.87046 0.0
H993 H 0.86943 0.02194 0.01549 0.0
H994 H 0.84304 0.99688 0.97919 0.0
H995 H 0.81716 0.03544 0.88178 0.0
H996 H 0.76105 0.95308 0.77077 0.0
H997 H 0.78899 0.97905 0.80362 0.0
C998 C 0.90976 0.25724 0.72192 0.0
C999 C 0.91052 0.24735 0.75582 0.0
C1000 C 0.9289 0.24628 0.6977 0.0
C1001 C 0.99495 0.20233 0.68712 0.0
H1002 H 0.96443 0.18348 0.60191 0.0
C1003 C 0.04851 0.11994 0.59825 0.0
C1004 C 0.04431 0.12247 0.5628 0.0
C1005 C 0.03517 0.13896 0.62066 0.0
C1006 C 0.97351 0.18899 0.62522 0.0
H1007 H 0.93303 0.21929 0.79119 0.0
H1008 H 0.96635 0.20036 0.74916 0.0
H1009 H 0.93612 0.2105 0.64299 0.0
H1010 H 0.02394 0.14796 0.52309 0.0
H1011 H 1.00119 0.18137 0.56202 0.0
H1012 H 0.03224 0.18035 0.66955 0.0
C1013 C 0.95103 0.21659 0.7412 0.0
C1014 C 0.9572 0.20454 0.64887 0.0
C1015 C 0.93183 0.22741 0.76533 0.0
C1016 C 0.02755 0.14526 0.55023 0.0
C1017 C 0.0143 0.16433 0.57262 0.0
C1018 C 1.01131 0.18683 0.66339 0.0
C1019 C 0.94937 0.22531 0.70683 0.0
C1020 C 0.96757 0.21109 0.68036 0.0
C1021 C 0.01735 0.16109 0.60822 0.0
C1022 C 1.00071 0.17958 0.63232 0.0
H1023 H 0.89357 0.27248 0.71361 0.0
H1024 H 0.92722 0.25374 0.67157 0.0
H1025 H 1.0037 0.20729 0.71092 0.0
H1026 H 0.06114 0.10259 0.60892 0.0
H1027 H 0.03788 0.13557 0.64787 0.0
C1028 C 0.82019 0.10491 0.29818 0.0
C1029 C 0.8273 0.13008 0.30647 0.0
C1030 C 0.79849 0.09511 0.31452 0.0
C1031 C 0.76293 0.09837 0.39666 0.0
H1032 H 0.71646 0.0547 0.35147 0.0
C1033 C 0.71252 0.01596 0.46755 0.0
C1034 C 0.6861 0.01239 0.45886 0.0
C1035 C 0.72634 0.03405 0.44911 0.0
C1036 C 0.72902 0.06706 0.36454 0.0
H1037 H 0.81675 0.16515 0.33779 0.0
H1038 H 0.77864 0.14783 0.36696 0.0
H1039 H 0.74505 0.08086 0.31737 0.0
H1040 H 0.65355 0.02536 0.42384 0.0
H1041 H 0.6777 0.05689 0.39157 0.0
H1042 H 0.74739 0.08403 0.44386 0.0
C1043 C 0.78987 0.13579 0.34747 0.0
C1044 C 0.74556 0.08194 0.34497 0.0
C1045 C 0.81145 0.14586 0.33054 0.0
C1046 C 0.67377 0.02768 0.4314 0.0
C1047 C 0.68772 0.04562 0.41272 0.0
C1048 C 0.74656 0.08329 0.41626 0.0
C1049 C 0.78352 0.11001 0.34013 0.0
C1050 C 0.76312 0.09739 0.36076 0.0
C1051 C 0.71425 0.04897 0.42125 0.0
C1052 C 0.72975 0.06703 0.40047 0.0
H1053 H 0.8322 0.09223 0.27991 0.0
H1054 H 0.79444 0.07512 0.30842 0.0
H1055 H 0.77635 0.10984 0.4097 0.0
H1056 H 0.72255 1.00479 0.48873 0.0
H1057 H 0.74682 0.03585 0.45621 0.0
C1058 C 0.70748 0.81028 0.18503 0.0
C1059 C 0.70335 0.78966 0.2085 0.0
C1060 C 0.68638 0.82317 0.16542 0.0
C1061 C 0.61432 0.84339 0.16234 0.0
H1062 H 0.62981 0.85594 0.06644 0.0
C1063 C 0.54375 0.91754 0.07444 0.0
C1064 C 0.55785 0.93599 0.05681 0.0
C1065 C 0.55787 0.89481 0.09098 0.0
C1066 C 0.62506 0.85256 0.09312 0.0
H1067 H 0.67347 0.7666 0.2299 0.0
H1068 H 0.63592 0.78995 0.19573 0.0
H1069 H 0.66118 0.82485 0.10008 0.0
H1070 H 0.59762 0.94456 0.04167 0.0
H1071 H 0.62192 0.90522 0.06973 0.0
H1072 H 0.57878 0.87229 0.15561 0.0
C1073 C 0.65585 0.79575 0.19257 0.0
C1074 C 0.64301 0.8347 0.11237 0.0
C1075 C 0.67729 0.78238 0.21202 0.0
C1076 C 0.58612 0.93076 0.05501 0.0
C1077 C 0.60009 0.90805 0.07097 0.0
C1078 C 0.59629 0.86144 0.14299 0.0
C1079 C 0.66033 0.81611 0.1688 0.0
C1080 C 0.6384 0.83066 0.14747 0.0
C1081 C 0.58626 0.88992 0.08955 0.0
C1082 C 0.60204 0.867 0.10846 0.0
H1083 H 0.72722 0.81643 0.18142 0.0
H1084 H 0.69043 0.83901 0.14773 0.0
H1085 H 0.61029 0.84072 0.18936 0.0
H1086 H 0.52196 0.92118 0.0765 0.0
H1087 H 0.54663 0.88119 0.10506 0.0
C1088 C 0.51541 0.69144 0.55375 0.0
C1089 C 0.49667 0.67701 0.57006 0.0
C1090 C 0.53031 0.70756 0.57248 0.0
C1091 C 0.55001 0.72051 0.66229 0.0
H1092 H 0.57686 0.78132 0.61804 0.0
C1093 C 0.60554 0.79486 0.73645 0.0
C1094 C 0.62845 0.80327 0.72068 0.0
C1095 C 0.58877 0.78013 0.71839 0.0
C1096 C 0.56972 0.76427 0.63073 0.0
H1097 H 0.4783 0.66864 0.61867 0.0
H1098 H 0.5032 0.69779 0.65142 0.0
H1099 H 0.54744 0.75606 0.58705 0.0
H1100 H 0.65115 0.80322 0.67309 0.0
H1101 H 0.62201 0.77749 0.64166 0.0
H1102 H 0.5715 0.72972 0.70651 0.0
C1103 C 0.50728 0.69603 0.62427 0.0
C1104 C 0.55286 0.74956 0.61284 0.0
C1105 C 0.49278 0.67941 0.60553 0.0
C1106 C 0.6339 0.79685 0.68619 0.0
C1107 C 0.61701 0.78229 0.66806 0.0
C1108 C 0.56633 0.73567 0.68043 0.0
C1109 C 0.5265 0.71023 0.60809 0.0
C1110 C 0.54305 0.72712 0.62809 0.0
C1111 C 0.59432 0.77356 0.68398 0.0
C1112 C 0.57659 0.75762 0.66481 0.0
H1113 H 0.51917 0.68959 0.52653 0.0
H1114 H 0.54531 0.71735 0.55891 0.0
H1115 H 0.54348 0.70319 0.675 0.0
H1116 H 0.60079 0.79923 0.763 0.0
H1117 H 0.5713 0.77405 0.73137 0.0
C1118 C 0.64744 0.48537 0.97934 0.0
C1119 C 0.62866 0.47166 0.99697 0.0
C1120 C 0.67011 0.47092 0.96309 0.0
C1121 C 0.71119 0.40294 0.96157 0.0
H1122 H 0.72591 0.41914 0.86647 0.0
C1123 C 0.75754 0.32213 0.86919 0.0
C1124 C 0.77816 0.32743 0.84637 0.0
C1125 C 0.74384 0.34248 0.88923 0.0
C1126 C 0.72239 0.41464 0.89319 0.0
H1127 H 0.61951 0.43216 0.01232 0.0
H1128 H 0.65852 0.40736 0.98458 0.0
H1129 H 0.69384 0.45041 0.89949 0.0
H1130 H 0.80046 0.3585 0.82666 0.0
H1131 H 0.77583 0.39456 0.8615 0.0
H1132 H 0.73866 0.36666 0.95498 0.0
C1133 C 0.65608 0.42913 0.98319 0.0
C1134 C 0.70405 0.43257 0.91214 0.0
C1135 C 0.6335 0.44342 0.99895 0.0
C1136 C 0.78474 0.35377 0.84409 0.0
C1137 C 0.77059 0.37439 0.86389 0.0
C1138 C 0.7293 0.38506 0.94268 0.0
C1139 C 0.6746 0.44256 0.96473 0.0
C1140 C 0.69753 0.42644 0.94625 0.0
C1141 C 0.75006 0.36887 0.88682 0.0
C1142 C 0.73446 0.39022 0.90797 0.0
H1143 H 0.64417 0.50711 0.97719 0.0
H1144 H 0.68403 0.48188 0.94914 0.0
H1145 H 0.70716 0.39786 0.98799 0.0
H1146 H 0.75194 0.30212 0.87172 0.0
H1147 H 0.72791 0.3376 0.90627 0.0
C1148 C 0.96404 0.2165 0.21219 0.0
C1149 C 0.93788 0.22092 0.22658 0.0
C1150 C 0.9741 0.23641 0.19254 0.0
C1151 C 0.97215 0.30755 0.17744 0.0
H1152 H 1.001 0.28688 0.08782 0.0
C1153 C 0.02285 0.381 0.08808 0.0
C1154 C 0.04518 0.36976 0.06824 0.0
C1155 C 1.00728 0.36446 0.10679 0.0
C1156 C 0.99345 0.29298 0.11295 0.0
H1157 H 0.90197 0.25019 0.23179 0.0
H1158 H 0.92005 0.28553 0.19753 0.0
H1159 H 0.97861 0.25542 0.12209 0.0
H1160 H 0.06888 0.33206 0.05373 0.0
H1161 H 0.04196 0.30365 0.08555 0.0
H1162 H 0.98836 0.34451 0.16924 0.0
C1163 C 0.9325 0.26632 0.20157 0.0
C1164 C 0.9803 0.27499 0.13242 0.0
C1165 C 0.92215 0.24611 0.22105 0.0
C1166 C 0.05162 0.34158 0.06803 0.0
C1167 C 0.03606 0.32515 0.08652 0.0
C1168 C 0.98585 0.32543 0.15819 0.0
C1169 C 0.9585 0.26146 0.1868 0.0
C1170 C 0.96978 0.28192 0.16503 0.0
C1171 C 0.01358 0.33622 0.10615 0.0
C1172 C 0.99714 0.3182 0.12586 0.0
H1173 H 0.97683 0.19743 0.21574 0.0
H1174 H 0.99432 0.2323 0.18196 0.0
H1175 H 0.96443 0.31331 0.20263 0.0
H1176 H 0.01699 0.40255 0.08865 0.0
H1177 H 0.98997 0.37386 0.12117 0.0
C1178 C 0.89678 0.54527 0.50356 0.0
C1179 C 0.91973 0.5285 0.49155 0.0
C1180 C 0.87778 0.5583 0.48074 0.0
C1181 C 0.85537 0.56067 0.38988 0.0
H1182 H 0.83149 0.63576 0.40919 0.0
C1183 C 0.81188 0.63841 0.28687 0.0
C1184 C 0.79208 0.6598 0.29637 0.0
C1185 C 0.82353 0.61977 0.31127 0.0
C1186 C 0.83749 0.61471 0.4036 0.0
H1187 H 0.93995 0.51138 0.44597 0.0
H1188 H 0.90701 0.53424 0.40621 0.0
H1189 H 0.85896 0.6079 0.45048 0.0
H1190 H 0.7681 0.67746 0.33896 0.0
H1191 H 0.78819 0.64472 0.38146 0.0
H1192 H 0.83436 0.56779 0.34252 0.0
C1193 C 0.90349 0.53715 0.43333 0.0
C1194 C 0.85332 0.59865 0.42737 0.0
C1195 C 0.92247 0.52402 0.4562 0.0
C1196 C 0.78326 0.66125 0.33067 0.0
C1197 C 0.795 0.64261 0.35513 0.0
C1198 C 0.83953 0.57676 0.36605 0.0
C1199 C 0.88124 0.55503 0.44523 0.0
C1200 C 0.86275 0.57147 0.42073 0.0
C1201 C 0.81577 0.622 0.3459 0.0
C1202 C 0.83063 0.60411 0.3724 0.0
H1203 H 0.8939 0.54907 0.53061 0.0
H1204 H 0.86063 0.57142 0.49094 0.0
H1205 H 0.86189 0.53975 0.38406 0.0
H1206 H 0.8192 0.63664 0.26072 0.0
H1207 H 0.83958 0.60437 0.30316 0.0
C1208 C 0.26219 0.44557 0.30422 0.0
C1209 C 0.25058 0.42424 0.31926 0.0
C1210 C 0.27814 0.46039 0.32342 0.0
C1211 C 0.31512 0.4587 0.40634 0.0
H1212 H 0.3156 0.53435 0.38492 0.0
C1213 C 0.35999 0.53177 0.49539 0.0
C1214 C 0.37768 0.54799 0.48004 0.0
C1215 C 0.34512 0.51643 0.47541 0.0
C1216 C 0.31581 0.51319 0.39102 0.0
H1217 H 0.24618 0.40203 0.3664 0.0
H1218 H 0.27297 0.42847 0.40041 0.0
H1219 H 0.28788 0.50846 0.35158 0.0
H1220 H 0.39342 0.56104 0.43171 0.0
H1221 H 0.36684 0.53467 0.39659 0.0
H1222 H 0.34235 0.46397 0.4467 0.0
C1223 C 0.27064 0.43332 0.37347 0.0
C1224 C 0.3 0.49822 0.3718 0.0
C1225 C 0.25509 0.4182 0.35405 0.0
C1226 C 0.38001 0.54867 0.4442 0.0
C1227 C 0.36472 0.53371 0.42415 0.0
C1228 C 0.33053 0.47382 0.42593 0.0
C1229 C 0.28255 0.45462 0.35844 0.0
C1230 C 0.29942 0.47068 0.37908 0.0
C1231 C 0.34722 0.51731 0.43957 0.0
C1232 C 0.33109 0.50121 0.41845 0.0
H1233 H 0.25945 0.45042 0.27732 0.0
H1234 H 0.28734 0.47611 0.31053 0.0
H1235 H 0.31583 0.43751 0.41244 0.0
H1236 H 0.35799 0.53058 0.52293 0.0
H1237 H 0.3317 0.5041 0.48799 0.0
C1238 C 0.51337 0.59035 0.11655 0.0
C1239 C 0.52602 0.59245 0.08457 0.0
C1240 C 0.50253 0.61327 0.13424 0.0
C1241 C 0.47117 0.68229 0.11977 0.0
H1242 H 0.47166 0.68331 0.21882 0.0
C1243 C 0.39648 0.7577 0.19928 0.0
C1244 C 0.38224 0.74424 0.22378 0.0
C1245 C 0.41974 0.7442 0.18326 0.0
C1246 C 0.47142 0.68349 0.19114 0.0
H1247 H 0.53787 0.62023 0.04622 0.0
H1248 H 0.51826 0.66091 0.07715 0.0
H1249 H 0.50317 0.65026 0.18838 0.0
H1250 H 0.38177 0.70675 0.2519 0.0
H1251 H 0.42227 0.68364 0.22492 0.0
H1252 H 0.43845 0.71478 0.12276 0.0
C1253 C 0.51704 0.6413 0.08858 0.0
C1254 C 0.48948 0.66453 0.17369 0.0
C1255 C 0.52844 0.61812 0.07102 0.0
C1256 C 0.39238 0.71767 0.23318 0.0
C1257 C 0.4157 0.70445 0.21779 0.0
C1258 C 0.45304 0.70135 0.1373 0.0
C1259 C 0.50364 0.63907 0.12024 0.0
C1260 C 0.48884 0.66295 0.13787 0.0
C1261 C 0.42939 0.71726 0.19209 0.0
C1262 C 0.45224 0.70141 0.17326 0.0
H1263 H 0.51118 0.57079 0.12755 0.0
H1264 H 0.49208 0.61069 0.15824 0.0
H1265 H 0.47004 0.68154 0.09219 0.0
H1266 H 0.3889 0.77809 0.19127 0.0
H1267 H 0.42986 0.75461 0.16357 0.0
C1268 C 0.33036 0.59126 0.84276 0.0
C1269 C 0.32073 0.61372 0.82215 0.0
C1270 C 0.31244 0.57651 0.86011 0.0
C1271 C 0.2419 0.56182 0.85993 0.0
H1272 H 0.25726 0.53722 0.95296 0.0
C1273 C 0.16561 0.51014 0.94204 0.0
C1274 C 0.17597 0.48863 0.96382 0.0
C1275 C 0.18284 0.52588 0.92503 0.0
C1276 C 0.25277 0.5436 0.92685 0.0
H1277 H 0.28445 0.63788 0.8034 0.0
H1278 H 0.25326 0.61231 0.83381 0.0
H1279 H 0.28798 0.56333 0.92279 0.0
H1280 H 0.21299 0.46732 0.98478 0.0
H1281 H 0.24284 0.4941 0.9546 0.0
H1282 H 0.20684 0.54186 0.86382 0.0
C1283 C 0.27473 0.60604 0.83644 0.0
C1284 C 0.27043 0.55865 0.90952 0.0
C1285 C 0.29265 0.6209 0.81925 0.0
C1286 C 0.20411 0.48342 0.96805 0.0
C1287 C 0.22131 0.4991 0.95099 0.0
C1288 C 0.22428 0.54665 0.87721 0.0
C1289 C 0.28437 0.58368 0.85721 0.0
C1290 C 0.2653 0.56791 0.87579 0.0
C1291 C 0.21098 0.52058 0.92921 0.0
C1292 C 0.22949 0.53722 0.91091 0.0
H1293 H 0.35178 0.58524 0.84591 0.0
H1294 H 0.32064 0.55926 0.87556 0.0
H1295 H 0.23745 0.5683 0.83384 0.0
H1296 H 0.14417 0.51474 0.93774 0.0
H1297 H 0.17403 0.5424 0.90881 0.0
C1298 C 0.06946 0.4448 0.60066 0.0
C1299 C 0.04963 0.44091 0.57691 0.0
C1300 C 0.0821 0.42343 0.62036 0.0
C1301 C 0.1032 0.35149 0.62291 0.0
H1302 H 0.11372 0.36446 0.71887 0.0
C1303 C 0.17599 0.27883 0.70974 0.0
C1304 C 0.19394 0.29238 0.72782 0.0
C1305 C 0.15351 0.29337 0.69341 0.0
C1306 C 0.11094 0.36042 0.69215 0.0
H1307 H 0.02763 0.41121 0.55518 0.0
H1308 H 0.05054 0.37322 0.58949 0.0
H1309 H 0.08311 0.39651 0.68549 0.0
H1310 H 0.20182 0.33156 0.74402 0.0
H1311 H 0.16295 0.35658 0.71629 0.0
H1312 H 0.13218 0.31598 0.62934 0.0
C1313 C 0.05593 0.39316 0.5928 0.0
C1314 C 0.09335 0.37876 0.67305 0.0
C1315 C 0.0428 0.41485 0.57329 0.0
C1316 C 0.18842 0.32048 0.73032 0.0
C1317 C 0.16596 0.33486 0.71454 0.0
C1318 C 0.12099 0.33307 0.6421 0.0
C1319 C 0.07558 0.39736 0.61677 0.0
C1320 C 0.09 0.37506 0.63795 0.0
C1321 C 0.14837 0.32162 0.69547 0.0
C1322 C 0.12582 0.3379 0.67666 0.0
H1323 H 0.07521 0.46455 0.60434 0.0
H1324 H 0.0974 0.4273 0.6382 0.0
H1325 H 0.10108 0.34814 0.59588 0.0
H1326 H 0.17986 0.25719 0.70713 0.0
H1327 H 0.14031 0.28258 0.67898 0.0
loop_
_geom_bond_atom_site_label_1
_geom_bond_atom_site_label_2
_geom_bond_distance
_geom_bond_site_symmetry_2
_ccdc_geom_bond_type
Cu0 N1 1.999 1_545 S
Cu0 O6 1.974 1_554 S
Cu0 N11 1.985 1_655 S
Cu0 O20 1.959 . S
N1 Cu0 1.999 1_565 S
N1 C3 1.263 1_554 S
N1 C5 1.389 . S
N2 C3 1.358 . S
N2 C4 1.400 1_556 S
C3 N1 1.263 1_556 S
C3 N2 1.358 . S
C3 H9 0.930 . S
C4 N2 1.400 1_554 S
C4 C5 1.351 . S
C4 H21 0.930 . S
C5 N1 1.389 . S
C5 C4 1.351 . S
C5 H10 0.930 1_565 S
O6 Cu0 1.974 1_556 S
O6 C16 1.282 1_655 S
C7 O8 1.261 . S
C7 O20 1.251 1_465 S
O8 C7 1.261 . S
H9 C3 0.930 . S
H10 C5 0.930 1_545 S
N11 Cu0 1.985 1_455 S
N11 C13 1.335 . S
N11 C14 1.390 . S
N12 C13 1.345 . S
N12 C15 1.336 . S
C13 N11 1.335 . S
C13 N12 1.345 . S
C13 H18 0.930 . S
C14 N11 1.390 . S
C14 C15 1.346 . S
C14 H19 0.930 1_554 S
C15 N12 1.336 . S
C15 C14 1.346 . S
C15 H22 0.929 . S
C16 O6 1.282 1_455 S
C16 O17 1.216 1_545 S
O17 C16 1.216 1_565 S
H18 C13 0.930 . S
H19 C14 0.930 1_556 S
O20 Cu0 1.959 . S
O20 C7 1.251 1_645 S
H21 C4 0.930 . S
H22 C15 0.929 . S
Cu23 N24 1.999 . S
Cu23 O29 1.974 . S
Cu23 N34 1.985 . S
Cu23 O43 1.959 . S
N24 Cu23 1.999 . S
N24 C26 1.263 . S
N24 C28 1.389 . S
N25 C26 1.358 . S
N25 C27 1.400 . S
C26 N24 1.263 . S
C26 N25 1.358 . S
C26 H32 0.930 . S
C27 N25 1.400 . S
C27 C28 1.351 . S
C27 H44 0.930 . S
C28 N24 1.389 . S
C28 C27 1.351 . S
C28 H33 0.930 . S
O29 Cu23 1.974 . S
O29 C39 1.282 . S
C30 O31 1.261 . S
C30 O43 1.251 . S
O31 C30 1.261 . S
H32 C26 0.930 . S
H33 C28 0.930 . S
N34 Cu23 1.985 . S
N34 C36 1.335 . S
N34 C37 1.390 . S
N35 C36 1.345 . S
N35 C38 1.336 . S
C36 N34 1.335 . S
C36 N35 1.345 . S
C36 H41 0.930 . S
C37 N34 1.390 . S
C37 C38 1.346 . S
C37 H42 0.930 . S
C38 N35 1.336 . S
C38 C37 1.346 . S
C38 H45 0.929 . S
C39 O29 1.282 . S
C39 O40 1.216 . S
O40 C39 1.216 . S
H41 C36 0.930 . S
H42 C37 0.930 . S
O43 Cu23 1.959 . S
O43 C30 1.251 . S
H44 C27 0.930 . S
H45 C38 0.929 . S
Cu46 N47 1.999 . S
Cu46 O52 1.974 . S
Cu46 N57 1.985 1_545 S
Cu46 O66 1.959 . S
N47 Cu46 1.999 . S
N47 C49 1.263 . S
N47 C51 1.389 . S
N48 C49 1.358 . S
N48 C50 1.400 . S
C49 N47 1.263 . S
C49 N48 1.358 . S
C49 H55 0.930 . S
C50 N48 1.400 . S
C50 C51 1.351 . S
C50 H67 0.930 . S
C51 N47 1.389 . S
C51 C50 1.351 . S
C51 H56 0.930 . S
O52 Cu46 1.974 . S
O52 C62 1.281 . S
C53 O54 1.261 . S
C53 O66 1.251 . S
O54 C53 1.261 . S
H55 C49 0.930 . S
H56 C51 0.930 . S
N57 Cu46 1.985 1_565 S
N57 C59 1.335 . S
N57 C60 1.390 . S
N58 C59 1.345 . S
N58 C61 1.336 . S
C59 N57 1.335 . S
C59 N58 1.345 . S
C59 H64 0.930 . S
C60 N57 1.390 . S
C60 C61 1.346 . S
C60 H65 0.930 . S
C61 N58 1.336 . S
C61 C60 1.346 . S
C61 H68 0.929 . S
C62 O52 1.281 . S
C62 O63 1.216 . S
O63 C62 1.216 . S
H64 C59 0.930 . S
H65 C60 0.930 . S
O66 Cu46 1.959 . S
O66 C53 1.251 . S
H67 C50 0.930 . S
H68 C61 0.929 . S
Cu69 N70 1.999 . S
Cu69 O75 1.974 . S
Cu69 N80 1.985 . S
Cu69 O89 1.959 . S
N70 Cu69 1.999 . S
N70 C72 1.263 . S
N70 C74 1.389 . S
N71 C72 1.358 . S
N71 C73 1.400 . S
C72 N70 1.263 . S
C72 N71 1.358 . S
C72 H78 0.930 . S
C73 N71 1.400 . S
C73 C74 1.351 . S
C73 H90 0.930 . S
C74 N70 1.389 . S
C74 C73 1.351 . S
C74 H79 0.930 . S
O75 Cu69 1.974 . S
O75 C85 1.282 . S
C76 O77 1.261 . S
C76 O89 1.251 . S
O77 C76 1.261 . S
H78 C72 0.930 . S
H79 C74 0.930 . S
N80 Cu69 1.985 . S
N80 C82 1.335 . S
N80 C83 1.390 . S
N81 C82 1.345 . S
N81 C84 1.336 . S
C82 N80 1.335 . S
C82 N81 1.345 . S
C82 H87 0.930 . S
C83 N80 1.390 . S
C83 C84 1.346 . S
C83 H88 0.930 . S
C84 N81 1.336 . S
C84 C83 1.346 . S
C84 H91 0.929 . S
C85 O75 1.282 . S
C85 O86 1.216 . S
O86 C85 1.216 . S
H87 C82 0.930 . S
H88 C83 0.930 . S
O89 Cu69 1.959 . S
O89 C76 1.251 . S
H90 C73 0.930 . S
H91 C84 0.929 . S
Cu92 N93 1.999 . S
Cu92 O98 1.974 1_545 S
Cu92 N103 1.985 1_545 S
Cu92 O112 1.959 1_455 S
N93 Cu92 1.999 . S
N93 C95 1.263 . S
N93 C97 1.389 1_455 S
N94 C95 1.358 1_655 S
N94 C96 1.400 . S
C95 N93 1.263 . S
C95 N94 1.358 1_455 S
C95 H101 0.930 1_545 S
C96 N94 1.400 . S
C96 C97 1.351 . S
C96 H113 0.930 . S
C97 N93 1.389 1_655 S
C97 C96 1.351 . S
C97 H102 0.930 . S
O98 Cu92 1.974 1_565 S
O98 C108 1.282 . S
C99 O100 1.261 . S
C99 O112 1.251 . S
O100 C99 1.261 . S
H101 C95 0.930 1_565 S
H102 C97 0.930 . S
N103 Cu92 1.985 1_565 S
N103 C105 1.335 1_565 S
N103 C106 1.390 . S
N104 C105 1.345 1_565 S
N104 C107 1.336 . S
C105 N103 1.335 1_545 S
C105 N104 1.345 1_545 S
C105 H110 0.930 . S
C106 N103 1.390 . S
C106 C107 1.346 . S
C106 H111 0.930 . S
C107 N104 1.336 . S
C107 C106 1.346 . S
C107 H114 0.929 . S
C108 O98 1.282 . S
C108 O109 1.216 . S
O109 C108 1.216 . S
H110 C105 0.930 . S
H111 C106 0.930 . S
O112 Cu92 1.959 1_655 S
O112 C99 1.251 . S
H113 C96 0.930 . S
H114 C107 0.929 . S
Cu115 N116 1.999 . S
Cu115 O121 1.974 . S
Cu115 N126 1.985 . S
Cu115 O135 1.959 . S
N116 Cu115 1.999 . S
N116 C118 1.263 . S
N116 C120 1.389 . S
N117 C118 1.358 . S
N117 C119 1.400 . S
C118 N116 1.263 . S
C118 N117 1.358 . S
C118 H124 0.930 . S
C119 N117 1.400 . S
C119 C120 1.351 . S
C119 H136 0.930 . S
C120 N116 1.389 . S
C120 C119 1.351 . S
C120 H125 0.930 . S
O121 Cu115 1.974 . S
O121 C131 1.282 . S
C122 O123 1.261 . S
C122 O135 1.251 . S
O123 C122 1.261 . S
H124 C118 0.930 . S
H125 C120 0.930 . S
N126 Cu115 1.985 . S
N126 C128 1.335 . S
N126 C129 1.390 . S
N127 C128 1.345 . S
N127 C130 1.336 . S
C128 N126 1.335 . S
C128 N127 1.345 . S
C128 H133 0.930 . S
C129 N126 1.390 . S
C129 C130 1.346 . S
C129 H134 0.930 . S
C130 N127 1.336 . S
C130 C129 1.346 . S
C130 H137 0.929 . S
C131 O121 1.282 . S
C131 O132 1.216 . S
O132 C131 1.216 . S
H133 C128 0.930 . S
H134 C129 0.930 . S
O135 Cu115 1.959 . S
O135 C122 1.251 . S
H136 C119 0.930 . S
H137 C130 0.929 . S
Cu138 N139 1.999 1_544 S
Cu138 O144 1.974 1_554 S
Cu138 N149 1.985 . S
Cu138 O158 1.959 1_545 S
N139 Cu138 1.999 1_566 S
N139 C141 1.263 1_565 S
N139 C143 1.389 . S
N140 C141 1.358 1_565 S
N140 C142 1.400 . S
C141 N139 1.263 1_545 S
C141 N140 1.358 1_545 S
C141 H147 0.930 . S
C142 N140 1.400 . S
C142 C143 1.351 . S
C142 H159 0.930 . S
C143 N139 1.389 . S
C143 C142 1.351 . S
C143 H148 0.930 . S
O144 Cu138 1.974 1_556 S
O144 C154 1.282 . S
C145 O146 1.261 1_565 S
C145 O158 1.251 . S
O146 C145 1.261 1_545 S
H147 C141 0.930 . S
H148 C143 0.930 . S
N149 Cu138 1.985 . S
N149 C151 1.335 . S
N149 C152 1.390 . S
N150 C151 1.345 . S
N150 C153 1.336 . S
C151 N149 1.335 . S
C151 N150 1.345 . S
C151 H156 0.930 1_545 S
C152 N149 1.390 . S
C152 C153 1.346 . S
C152 H157 0.930 . S
C153 N150 1.336 . S
C153 C152 1.346 . S
C153 H160 0.929 . S
C154 O144 1.282 . S
C154 O155 1.216 . S
O155 C154 1.216 . S
H156 C151 0.930 1_565 S
H157 C152 0.930 . S
O158 Cu138 1.959 1_565 S
O158 C145 1.251 . S
H159 C142 0.930 . S
H160 C153 0.929 . S
Cu161 N162 1.999 . S
Cu161 O167 1.974 . S
Cu161 N172 1.985 . S
Cu161 O181 1.959 . S
N162 Cu161 1.999 . S
N162 C164 1.263 . S
N162 C166 1.389 . S
N163 C164 1.358 . S
N163 C165 1.400 . S
C164 N162 1.263 . S
C164 N163 1.358 . S
C164 H170 0.930 . S
C165 N163 1.400 . S
C165 C166 1.351 . S
C165 H182 0.930 . S
C166 N162 1.389 . S
C166 C165 1.351 . S
C166 H171 0.930 . S
O167 Cu161 1.974 . S
O167 C177 1.282 . S
C168 O169 1.261 . S
C168 O181 1.251 . S
O169 C168 1.261 . S
H170 C164 0.930 . S
H171 C166 0.930 . S
N172 Cu161 1.985 . S
N172 C174 1.335 . S
N172 C175 1.390 . S
N173 C174 1.345 . S
N173 C176 1.336 . S
C174 N172 1.335 . S
C174 N173 1.345 . S
C174 H179 0.930 . S
C175 N172 1.390 . S
C175 C176 1.346 . S
C175 H180 0.930 . S
C176 N173 1.336 . S
C176 C175 1.346 . S
C176 H183 0.929 . S
C177 O167 1.282 . S
C177 O178 1.216 . S
O178 C177 1.216 . S
H179 C174 0.930 . S
H180 C175 0.930 . S
O181 Cu161 1.959 . S
O181 C168 1.251 . S
H182 C165 0.930 . S
H183 C176 0.929 . S
Cu184 N185 1.999 . S
Cu184 O190 1.974 . S
Cu184 N195 1.985 . S
Cu184 O204 1.959 . S
N185 Cu184 1.999 . S
N185 C187 1.263 . S
N185 C189 1.389 . S
N186 C187 1.358 . S
N186 C188 1.400 . S
C187 N185 1.263 . S
C187 N186 1.358 . S
C187 H193 0.930 . S
C188 N186 1.400 . S
C188 C189 1.351 . S
C188 H205 0.930 . S
C189 N185 1.389 . S
C189 C188 1.351 . S
C189 H194 0.930 . S
O190 Cu184 1.974 . S
O190 C200 1.282 . S
C191 O192 1.261 . S
C191 O204 1.251 . S
O192 C191 1.261 . S
H193 C187 0.930 . S
H194 C189 0.930 . S
N195 Cu184 1.985 . S
N195 C197 1.335 . S
N195 C198 1.390 . S
N196 C197 1.345 . S
N196 C199 1.336 . S
C197 N195 1.335 . S
C197 N196 1.345 . S
C197 H202 0.930 . S
C198 N195 1.390 . S
C198 C199 1.346 . S
C198 H203 0.930 . S
C199 N196 1.336 . S
C199 C198 1.346 . S
C199 H206 0.929 . S
C200 O190 1.282 . S
C200 O201 1.216 . S
O201 C200 1.216 . S
H202 C197 0.930 . S
H203 C198 0.930 . S
O204 Cu184 1.959 . S
O204 C191 1.251 . S
H205 C188 0.930 . S
H206 C199 0.929 . S
Cu207 N208 1.999 . S
Cu207 O213 1.974 . S
Cu207 N218 1.985 . S
Cu207 O227 1.959 . S
N208 Cu207 1.999 . S
N208 C210 1.263 . S
N208 C212 1.389 . S
N209 C210 1.358 . S
N209 C211 1.400 . S
C210 N208 1.263 . S
C210 N209 1.358 . S
C210 H216 0.930 . S
C211 N209 1.400 . S
C211 C212 1.351 . S
C211 H228 0.930 . S
C212 N208 1.389 . S
C212 C211 1.351 . S
C212 H217 0.930 . S
O213 Cu207 1.974 . S
O213 C223 1.282 . S
C214 O215 1.261 . S
C214 O227 1.251 . S
O215 C214 1.261 . S
H216 C210 0.930 . S
H217 C212 0.930 . S
N218 Cu207 1.985 . S
N218 C220 1.335 . S
N218 C221 1.390 . S
N219 C220 1.345 . S
N219 C222 1.336 . S
C220 N218 1.335 . S
C220 N219 1.345 . S
C220 H225 0.930 . S
C221 N218 1.390 . S
C221 C222 1.346 . S
C221 H226 0.930 . S
C222 N219 1.336 . S
C222 C221 1.346 . S
C222 H229 0.929 . S
C223 O213 1.282 . S
C223 O224 1.216 . S
O224 C223 1.216 . S
H225 C220 0.930 . S
H226 C221 0.930 . S
O227 Cu207 1.959 . S
O227 C214 1.251 . S
H228 C211 0.930 . S
H229 C222 0.929 . S
Cu230 N231 1.999 . S
Cu230 O236 1.974 . S
Cu230 N241 1.985 . S
Cu230 O250 1.959 . S
N231 Cu230 1.999 . S
N231 C233 1.263 . S
N231 C235 1.389 . S
N232 C233 1.358 . S
N232 C234 1.400 . S
C233 N231 1.263 . S
C233 N232 1.358 . S
C233 H239 0.930 . S
C234 N232 1.400 . S
C234 C235 1.351 . S
C234 H251 0.930 . S
C235 N231 1.389 . S
C235 C234 1.351 . S
C235 H240 0.930 . S
O236 Cu230 1.974 . S
O236 C246 1.282 . S
C237 O238 1.261 . S
C237 O250 1.251 . S
O238 C237 1.261 . S
H239 C233 0.930 . S
H240 C235 0.930 . S
N241 Cu230 1.985 . S
N241 C243 1.335 . S
N241 C244 1.390 . S
N242 C243 1.345 . S
N242 C245 1.336 . S
C243 N241 1.335 . S
C243 N242 1.345 . S
C243 H248 0.930 . S
C244 N241 1.390 . S
C244 C245 1.346 . S
C244 H249 0.930 . S
C245 N242 1.336 . S
C245 C244 1.346 . S
C245 H252 0.929 . S
C246 O236 1.282 . S
C246 O247 1.216 . S
O247 C246 1.216 . S
H248 C243 0.930 . S
H249 C244 0.930 . S
O250 Cu230 1.959 . S
O250 C237 1.251 . S
H251 C234 0.930 . S
H252 C245 0.929 . S
Cu253 N254 1.999 . S
Cu253 O259 1.974 . S
Cu253 N264 1.985 . S
Cu253 O273 1.959 . S
N254 Cu253 1.999 . S
N254 C256 1.263 . S
N254 C258 1.389 . S
N255 C256 1.358 . S
N255 C257 1.400 . S
C256 N254 1.263 . S
C256 N255 1.358 . S
C256 H262 0.930 . S
C257 N255 1.400 . S
C257 C258 1.351 . S
C257 H274 0.930 . S
C258 N254 1.389 . S
C258 C257 1.351 . S
C258 H263 0.930 . S
O259 Cu253 1.974 . S
O259 C269 1.282 . S
C260 O261 1.261 . S
C260 O273 1.251 . S
O261 C260 1.261 . S
H262 C256 0.930 . S
H263 C258 0.930 . S
N264 Cu253 1.985 . S
N264 C266 1.335 . S
N264 C267 1.390 . S
N265 C266 1.345 . S
N265 C268 1.336 . S
C266 N264 1.335 . S
C266 N265 1.345 . S
C266 H271 0.930 . S
C267 N264 1.390 . S
C267 C268 1.346 . S
C267 H272 0.930 . S
C268 N265 1.336 . S
C268 C267 1.346 . S
C268 H275 0.929 . S
C269 O259 1.282 . S
C269 O270 1.216 . S
O270 C269 1.216 . S
H271 C266 0.930 . S
H272 C267 0.930 . S
O273 Cu253 1.959 . S
O273 C260 1.251 . S
H274 C257 0.930 . S
H275 C268 0.929 . S
Cu276 N277 1.999 . S
Cu276 O282 1.974 . S
Cu276 N287 1.985 . S
Cu276 O296 1.959 . S
N277 Cu276 1.999 . S
N277 C279 1.263 . S
N277 C281 1.389 . S
N278 C279 1.358 . S
N278 C280 1.400 . S
C279 N277 1.263 . S
C279 N278 1.358 . S
C279 H285 0.930 . S
C280 N278 1.400 . S
C280 C281 1.351 . S
C280 H297 0.930 . S
C281 N277 1.389 . S
C281 C280 1.351 . S
C281 H286 0.930 . S
O282 Cu276 1.974 . S
O282 C292 1.282 . S
C283 O284 1.261 . S
C283 O296 1.251 . S
O284 C283 1.261 . S
H285 C279 0.930 . S
H286 C281 0.930 . S
N287 Cu276 1.985 . S
N287 C289 1.335 . S
N287 C290 1.390 . S
N288 C289 1.345 . S
N288 C291 1.336 . S
C289 N287 1.335 . S
C289 N288 1.345 . S
C289 H294 0.930 . S
C290 N287 1.390 . S
C290 C291 1.346 . S
C290 H295 0.930 . S
C291 N288 1.336 . S
C291 C290 1.346 . S
C291 H298 0.929 . S
C292 O282 1.282 . S
C292 O293 1.216 . S
O293 C292 1.216 . S
H294 C289 0.930 . S
H295 C290 0.930 . S
O296 Cu276 1.959 . S
O296 C283 1.251 . S
H297 C280 0.930 . S
H298 C291 0.929 . S
Cu299 N300 1.999 . S
Cu299 O305 1.974 1_554 S
Cu299 N310 1.985 . S
Cu299 O319 1.959 . S
N300 Cu299 1.999 . S
N300 C302 1.263 1_554 S
N300 C304 1.389 . S
N301 C302 1.358 . S
N301 C303 1.400 1_556 S
C302 N300 1.263 1_556 S
C302 N301 1.358 . S
C302 H308 0.930 . S
C303 N301 1.400 1_554 S
C303 C304 1.351 . S
C303 H320 0.930 . S
C304 N300 1.389 . S
C304 C303 1.351 . S
C304 H309 0.930 . S
O305 Cu299 1.974 1_556 S
O305 C315 1.282 . S
C306 O307 1.261 . S
C306 O319 1.251 . S
O307 C306 1.261 . S
H308 C302 0.930 . S
H309 C304 0.930 . S
N310 Cu299 1.985 . S
N310 C312 1.335 . S
N310 C313 1.391 1_455 S
N311 C312 1.345 1_655 S
N311 C314 1.336 . S
C312 N310 1.335 . S
C312 N311 1.345 1_455 S
C312 H317 0.930 . S
C313 N310 1.391 1_655 S
C313 C314 1.345 . S
C313 H318 0.930 1_554 S
C314 N311 1.336 . S
C314 C313 1.345 . S
C314 H321 0.929 . S
C315 O305 1.282 . S
C315 O316 1.216 . S
O316 C315 1.216 . S
H317 C312 0.930 . S
H318 C313 0.930 1_556 S
O319 Cu299 1.959 . S
O319 C306 1.251 . S
H320 C303 0.930 . S
H321 C314 0.929 . S
Cu322 N323 1.999 1_554 S
Cu322 O328 1.974 . S
Cu322 N333 1.985 . S
Cu322 O342 1.959 . S
N323 Cu322 1.999 1_556 S
N323 C325 1.263 . S
N323 C327 1.389 . S
N324 C325 1.358 . S
N324 C326 1.400 . S
C325 N323 1.263 . S
C325 N324 1.358 . S
C325 H331 0.930 . S
C326 N324 1.400 . S
C326 C327 1.351 . S
C326 H343 0.930 . S
C327 N323 1.389 . S
C327 C326 1.351 . S
C327 H332 0.930 . S
O328 Cu322 1.974 . S
O328 C338 1.282 1_554 S
C329 O330 1.261 . S
C329 O342 1.251 . S
O330 C329 1.261 . S
H331 C325 0.930 . S
H332 C327 0.930 . S
N333 Cu322 1.985 . S
N333 C335 1.335 . S
N333 C336 1.390 . S
N334 C335 1.345 . S
N334 C337 1.336 . S
C335 N333 1.335 . S
C335 N334 1.345 . S
C335 H340 0.930 . S
C336 N333 1.390 . S
C336 C337 1.346 . S
C336 H341 0.930 . S
C337 N334 1.336 . S
C337 C336 1.346 . S
C337 H344 0.929 . S
C338 O328 1.282 1_556 S
C338 O339 1.213 1_556 S
O339 C338 1.213 1_554 S
H340 C335 0.930 . S
H341 C336 0.930 . S
O342 Cu322 1.959 . S
O342 C329 1.251 . S
H343 C326 0.930 . S
H344 C337 0.929 . S
Cu345 N346 1.999 . S
Cu345 O351 1.974 . S
Cu345 N356 1.985 . S
Cu345 O365 1.959 . S
N346 Cu345 1.999 . S
N346 C348 1.263 . S
N346 C350 1.389 . S
N347 C348 1.358 . S
N347 C349 1.400 . S
C348 N346 1.263 . S
C348 N347 1.358 . S
C348 H354 0.930 . S
C349 N347 1.400 . S
C349 C350 1.351 . S
C349 H366 0.930 . S
C350 N346 1.389 . S
C350 C349 1.351 . S
C350 H355 0.930 . S
O351 Cu345 1.974 . S
O351 C361 1.282 . S
C352 O353 1.261 . S
C352 O365 1.251 . S
O353 C352 1.261 . S
H354 C348 0.930 . S
H355 C350 0.930 . S
N356 Cu345 1.985 . S
N356 C358 1.335 . S
N356 C359 1.390 . S
N357 C358 1.345 . S
N357 C360 1.336 . S
C358 N356 1.335 . S
C358 N357 1.345 . S
C358 H363 0.930 . S
C359 N356 1.390 . S
C359 C360 1.346 . S
C359 H364 0.930 . S
C360 N357 1.336 . S
C360 C359 1.346 . S
C360 H367 0.929 . S
C361 O351 1.282 . S
C361 O362 1.216 . S
O362 C361 1.216 . S
H363 C358 0.930 . S
H364 C359 0.930 . S
O365 Cu345 1.959 . S
O365 C352 1.251 . S
H366 C349 0.930 . S
H367 C360 0.929 . S
C368 C369 1.349 1_645 S
C368 C370 1.327 . S
C368 H393 0.950 . S
C369 C368 1.349 1_465 S
C369 C385 1.349 . S
C370 C368 1.327 . S
C370 C389 1.450 1_655 S
C370 H394 0.950 . S
C371 C388 1.574 . S
C371 C390 1.376 1_565 S
C371 H395 0.949 . S
H372 C376 0.949 . S
C373 C374 1.349 1_465 S
C373 C375 1.327 . S
C373 H396 0.950 . S
C374 C373 1.349 1_645 S
C374 C386 1.349 . S
C375 C373 1.327 . S
C375 C391 1.429 1_465 S
C375 H397 0.950 . S
C376 H372 0.949 . S
C376 C384 1.574 . S
C376 C392 1.382 . S
H377 C385 0.950 . S
H378 C383 0.950 . S
H379 C384 0.949 . S
H380 C386 0.950 . S
H381 C387 0.950 . S
H382 C388 0.949 . S
C383 H378 0.950 . S
C383 C385 1.327 . S
C383 C389 1.404 1_565 S
C384 C376 1.574 . S
C384 H379 0.949 . S
C384 C390 1.360 1_655 S
C385 C369 1.349 . S
C385 H377 0.950 . S
C385 C383 1.327 . S
C386 C374 1.349 . S
C386 H380 0.950 . S
C386 C387 1.327 . S
C387 H381 0.950 . S
C387 C386 1.327 . S
C387 C391 1.429 . S
C388 C371 1.574 . S
C388 H382 0.949 . S
C388 C392 1.355 1_465 S
C389 C370 1.450 1_455 S
C389 C383 1.404 1_545 S
C389 C390 1.527 . S
C390 C371 1.376 1_545 S
C390 C384 1.360 1_455 S
C390 C389 1.527 . S
C391 C375 1.429 1_645 S
C391 C387 1.429 . S
C391 C392 1.523 . S
C392 C376 1.382 . S
C392 C388 1.355 1_645 S
C392 C391 1.523 . S
H393 C368 0.950 . S
H394 C370 0.950 . S
H395 C371 0.949 . S
H396 C373 0.950 . S
H397 C375 0.950 . S
C398 C399 1.349 . S
C398 C400 1.327 . S
C398 H423 0.950 . S
C399 C398 1.349 . S
C399 C415 1.349 . S
C400 C398 1.327 . S
C400 C419 1.429 . S
C400 H424 0.950 . S
C401 C418 1.574 . S
C401 C420 1.368 . S
C401 H425 0.949 . S
H402 C406 0.949 . S
C403 C404 1.349 . S
C403 C405 1.327 . S
C403 H426 0.950 . S
C404 C403 1.349 . S
C404 C416 1.349 . S
C405 C403 1.327 . S
C405 C421 1.429 . S
C405 H427 0.950 . S
C406 H402 0.949 . S
C406 C414 1.574 . S
C406 C422 1.368 . S
H407 C415 0.950 . S
H408 C413 0.950 . S
H409 C414 0.949 . S
H410 C416 0.950 . S
H411 C417 0.950 . S
H412 C418 0.949 . S
C413 H408 0.950 . S
C413 C415 1.327 . S
C413 C419 1.429 . S
C414 C406 1.574 . S
C414 H409 0.949 . S
C414 C420 1.368 . S
C415 C399 1.349 . S
C415 H407 0.950 . S
C415 C413 1.327 . S
C416 C404 1.349 . S
C416 H410 0.950 . S
C416 C417 1.327 . S
C417 H411 0.950 . S
C417 C416 1.327 . S
C417 C421 1.429 . S
C418 C401 1.574 . S
C418 H412 0.949 . S
C418 C422 1.368 . S
C419 C400 1.429 . S
C419 C413 1.429 . S
C419 C420 1.523 . S
C420 C401 1.368 . S
C420 C414 1.368 . S
C420 C419 1.523 . S
C421 C405 1.429 . S
C421 C417 1.429 . S
C421 C422 1.523 . S
C422 C406 1.368 . S
C422 C418 1.368 . S
C422 C421 1.523 . S
H423 C398 0.950 . S
H424 C400 0.950 . S
H425 C401 0.949 . S
H426 C403 0.950 . S
H427 C405 0.950 . S
C428 C429 1.349 . S
C428 C430 1.327 . S
C428 H453 0.950 . S
C429 C428 1.349 . S
C429 C445 1.349 1_545 S
C430 C428 1.327 . S
C430 C449 1.429 . S
C430 H454 0.950 . S
C431 C448 1.574 . S
C431 C450 1.368 1_565 S
C431 H455 0.949 . S
H432 C436 0.949 . S
C433 C434 1.349 . S
C433 C435 1.324 1_545 S
C433 H456 0.950 1_545 S
C434 C433 1.349 . S
C434 C446 1.349 . S
C435 C433 1.324 1_565 S
C435 C451 1.403 1_565 S
C435 H457 0.980 . S
C436 H432 0.949 . S
C436 C444 1.574 . S
C436 C452 1.368 . S
H437 C445 0.950 . S
H438 C443 0.950 . S
H439 C444 0.949 . S
H440 C446 0.950 . S
H441 C447 0.950 . S
H442 C448 0.949 . S
C443 H438 0.950 . S
C443 C445 1.327 . S
C443 C449 1.429 1_565 S
C444 C436 1.574 . S
C444 H439 0.949 . S
C444 C450 1.368 . S
C445 C429 1.349 1_565 S
C445 H437 0.950 . S
C445 C443 1.327 . S
C446 C434 1.349 . S
C446 H440 0.950 . S
C446 C447 1.327 . S
C447 H441 0.950 . S
C447 C446 1.327 . S
C447 C451 1.429 . S
C448 C431 1.574 . S
C448 H442 0.949 . S
C448 C452 1.368 1_565 S
C449 C430 1.429 . S
C449 C443 1.429 1_545 S
C449 C450 1.523 . S
C450 C431 1.368 1_545 S
C450 C444 1.368 . S
C450 C449 1.523 . S
C451 C435 1.403 1_545 S
C451 C447 1.429 . S
C451 C452 1.523 . S
C452 C436 1.368 . S
C452 C448 1.368 1_545 S
C452 C451 1.523 . S
H453 C428 0.950 . S
H454 C430 0.950 . S
H455 C431 0.949 . S
H456 C433 0.950 1_565 S
H457 C435 0.980 . S
C458 C459 1.349 . S
C458 C460 1.327 . S
C458 H483 0.950 . S
C459 C458 1.349 . S
C459 C475 1.349 . S
C460 C458 1.327 . S
C460 C479 1.429 . S
C460 H484 0.950 . S
C461 C478 1.574 . S
C461 C480 1.368 . S
C461 H485 0.949 . S
H462 C466 0.949 . S
C463 C464 1.349 . S
C463 C465 1.327 . S
C463 H486 0.950 . S
C464 C463 1.349 . S
C464 C476 1.349 . S
C465 C463 1.327 . S
C465 C481 1.429 . S
C465 H487 0.950 . S
C466 H462 0.949 . S
C466 C474 1.574 . S
C466 C482 1.368 . S
H467 C475 0.950 . S
H468 C473 0.950 . S
H469 C474 0.949 1_556 S
H470 C476 0.950 . S
H471 C477 0.950 . S
H472 C478 0.949 . S
C473 H468 0.950 . S
C473 C475 1.327 . S
C473 C479 1.429 . S
C474 C466 1.574 . S
C474 H469 0.949 1_554 S
C474 C480 1.368 . S
C475 C459 1.349 . S
C475 H467 0.950 . S
C475 C473 1.327 . S
C476 C464 1.349 . S
C476 H470 0.950 . S
C476 C477 1.327 . S
C477 H471 0.950 . S
C477 C476 1.327 . S
C477 C481 1.429 . S
C478 C461 1.574 . S
C478 H472 0.949 . S
C478 C482 1.368 . S
C479 C460 1.429 . S
C479 C473 1.429 . S
C479 C480 1.523 1_556 S
C480 C461 1.368 . S
C480 C474 1.368 . S
C480 C479 1.523 1_554 S
C481 C465 1.429 . S
C481 C477 1.429 . S
C481 C482 1.523 . S
C482 C466 1.368 . S
C482 C478 1.368 . S
C482 C481 1.523 . S
H483 C458 0.950 . S
H484 C460 0.950 . S
H485 C461 0.949 . S
H486 C463 0.950 . S
H487 C465 0.950 . S
C488 C489 1.349 1_545 S
C488 C490 1.327 . S
C488 H513 0.950 1_455 S
C489 C488 1.349 1_565 S
C489 C505 1.349 . S
C490 C488 1.327 . S
C490 C509 1.429 1_545 S
C490 H514 0.950 1_455 S
C491 C508 1.574 . S
C491 C510 1.387 . S
C491 H515 0.949 . S
H492 C496 0.963 . S
C493 C494 1.349 1_565 S
C493 C495 1.327 . S
C493 H516 0.950 . S
C494 C493 1.349 1_545 S
C494 C506 1.349 1_455 S
C495 C493 1.327 . S
C495 C511 1.429 1_565 S
C495 H517 0.950 . S
C496 H492 0.963 . S
C496 C504 1.574 1_655 S
C496 C512 1.354 1_655 S
H497 C505 0.950 . S
H498 C503 0.950 . S
H499 C504 0.950 1_655 S
H500 C506 0.950 . S
H501 C507 0.950 . S
H502 C508 0.949 . S
C503 H498 0.950 . S
C503 C505 1.327 . S
C503 C509 1.429 . S
C504 C496 1.574 1_455 S
C504 H499 0.950 1_455 S
C504 C510 1.347 1_545 S
C505 C489 1.349 . S
C505 H497 0.950 . S
C505 C503 1.327 . S
C506 C494 1.349 1_655 S
C506 H500 0.950 . S
C506 C507 1.327 . S
C507 H501 0.950 . S
C507 C506 1.327 . S
C507 C511 1.429 1_655 S
C508 C491 1.574 . S
C508 H502 0.949 . S
C508 C512 1.368 1_565 S
C509 C490 1.429 1_565 S
C509 C503 1.429 . S
C509 C510 1.525 . S
C510 C491 1.387 . S
C510 C504 1.347 1_565 S
C510 C509 1.525 . S
C511 C495 1.429 1_545 S
C511 C507 1.429 1_455 S
C511 C512 1.523 . S
C512 C496 1.354 1_455 S
C512 C508 1.368 1_545 S
C512 C511 1.523 . S
H513 C488 0.950 1_655 S
H514 C490 0.950 1_655 S
H515 C491 0.949 . S
H516 C493 0.950 . S
H517 C495 0.950 . S
C518 C519 1.349 . S
C518 C520 1.327 . S
C518 H543 0.950 . S
C519 C518 1.349 . S
C519 C535 1.349 . S
C520 C518 1.327 . S
C520 C539 1.429 . S
C520 H544 0.950 . S
C521 C538 1.574 . S
C521 C540 1.368 . S
C521 H545 0.949 . S
H522 C526 0.949 . S
C523 C524 1.349 . S
C523 C525 1.327 . S
C523 H546 0.950 . S
C524 C523 1.349 . S
C524 C536 1.349 . S
C525 C523 1.327 . S
C525 C541 1.429 . S
C525 H547 0.950 . S
C526 H522 0.949 . S
C526 C534 1.574 . S
C526 C542 1.368 . S
H527 C535 0.950 . S
H528 C533 0.950 . S
H529 C534 0.949 . S
H530 C536 0.950 . S
H531 C537 0.950 . S
H532 C538 0.949 . S
C533 H528 0.950 . S
C533 C535 1.327 . S
C533 C539 1.429 . S
C534 C526 1.574 . S
C534 H529 0.949 . S
C534 C540 1.368 . S
C535 C519 1.349 . S
C535 H527 0.950 . S
C535 C533 1.327 . S
C536 C524 1.349 . S
C536 H530 0.950 . S
C536 C537 1.327 . S
C537 H531 0.950 . S
C537 C536 1.327 . S
C537 C541 1.429 . S
C538 C521 1.574 . S
C538 H532 0.949 . S
C538 C542 1.368 . S
C539 C520 1.429 . S
C539 C533 1.429 . S
C539 C540 1.523 . S
C540 C521 1.368 . S
C540 C534 1.368 . S
C540 C539 1.523 . S
C541 C525 1.429 . S
C541 C537 1.429 . S
C541 C542 1.523 . S
C542 C526 1.368 . S
C542 C538 1.368 . S
C542 C541 1.523 . S
H543 C518 0.950 . S
H544 C520 0.950 . S
H545 C521 0.949 . S
H546 C523 0.950 . S
H547 C525 0.950 . S
C548 C549 1.349 . S
C548 C550 1.327 . S
C548 H573 0.950 . S
C549 C548 1.349 . S
C549 C565 1.359 . S
C550 C548 1.327 . S
C550 C569 1.429 . S
C550 H574 0.950 . S
C551 C568 1.574 . S
C551 C570 1.368 1_565 S
C551 H575 0.949 . S
H552 C556 0.949 . S
C553 C554 1.349 1_565 S
C553 C555 1.327 . S
C553 H576 0.950 . S
C554 C553 1.349 1_545 S
C554 C566 1.349 . S
C555 C553 1.327 . S
C555 C571 1.429 1_565 S
C555 H577 0.950 . S
C556 H552 0.949 . S
C556 C564 1.574 . S
C556 C572 1.368 . S
H557 C565 0.940 1_565 S
H558 C563 0.979 . S
H559 C564 0.949 . S
H560 C566 0.950 . S
H561 C567 0.950 . S
H562 C568 0.949 . S
C563 H558 0.979 . S
C563 C565 1.327 1_565 S
C563 C569 1.402 1_565 S
C564 C556 1.574 . S
C564 H559 0.949 . S
C564 C570 1.368 . S
C565 C549 1.359 . S
C565 H557 0.940 1_545 S
C565 C563 1.327 1_545 S
C566 C554 1.349 . S
C566 H560 0.950 . S
C566 C567 1.327 . S
C567 H561 0.950 . S
C567 C566 1.327 . S
C567 C571 1.429 . S
C568 C551 1.574 . S
C568 H562 0.949 . S
C568 C572 1.368 1_565 S
C569 C550 1.429 . S
C569 C563 1.402 1_545 S
C569 C570 1.523 . S
C570 C551 1.368 1_545 S
C570 C564 1.368 . S
C570 C569 1.523 . S
C571 C555 1.429 1_545 S
C571 C567 1.429 . S
C571 C572 1.523 . S
C572 C556 1.368 . S
C572 C568 1.368 1_545 S
C572 C571 1.523 . S
H573 C548 0.950 . S
H574 C550 0.950 . S
H575 C551 0.949 . S
H576 C553 0.950 . S
H577 C555 0.950 . S
C578 C579 1.349 . S
C578 C580 1.327 . S
C578 H603 0.950 . S
C579 C578 1.349 . S
C579 C595 1.349 . S
C580 C578 1.327 . S
C580 C599 1.429 . S
C580 H604 0.950 . S
C581 C598 1.574 1_554 S
C581 C600 1.368 . S
C581 H605 0.949 . S
H582 C586 0.949 . S
C583 C584 1.349 . S
C583 C585 1.327 . S
C583 H606 0.950 . S
C584 C583 1.349 . S
C584 C596 1.349 . S
C585 C583 1.327 . S
C585 C601 1.429 . S
C585 H607 0.950 . S
C586 H582 0.949 . S
C586 C594 1.574 1_556 S
C586 C602 1.368 . S
H587 C595 0.950 . S
H588 C593 0.950 . S
H589 C594 0.949 . S
H590 C596 0.950 . S
H591 C597 0.950 . S
H592 C598 0.949 . S
C593 H588 0.950 . S
C593 C595 1.327 . S
C593 C599 1.429 . S
C594 C586 1.574 1_554 S
C594 H589 0.949 . S
C594 C600 1.368 . S
C595 C579 1.349 . S
C595 H587 0.950 . S
C595 C593 1.327 . S
C596 C584 1.349 . S
C596 H590 0.950 . S
C596 C597 1.327 . S
C597 H591 0.950 . S
C597 C596 1.327 . S
C597 C601 1.429 . S
C598 C581 1.574 1_556 S
C598 H592 0.949 . S
C598 C602 1.368 . S
C599 C580 1.429 . S
C599 C593 1.429 . S
C599 C600 1.523 . S
C600 C581 1.368 . S
C600 C594 1.368 . S
C600 C599 1.523 . S
C601 C585 1.429 . S
C601 C597 1.429 . S
C601 C602 1.523 . S
C602 C586 1.368 . S
C602 C598 1.368 . S
C602 C601 1.523 . S
H603 C578 0.950 . S
H604 C580 0.950 . S
H605 C581 0.949 . S
H606 C583 0.950 . S
H607 C585 0.950 . S
C608 C609 1.349 . S
C608 C610 1.327 . S
C608 H633 0.950 . S
C609 C608 1.349 . S
C609 C625 1.349 . S
C610 C608 1.327 . S
C610 C629 1.429 . S
C610 H634 0.950 . S
C611 C628 1.574 . S
C611 C630 1.368 . S
C611 H635 0.949 . S
H612 C616 0.949 . S
C613 C614 1.349 . S
C613 C615 1.327 . S
C613 H636 0.950 . S
C614 C613 1.349 . S
C614 C626 1.349 . S
C615 C613 1.327 . S
C615 C631 1.429 . S
C615 H637 0.950 . S
C616 H612 0.949 . S
C616 C624 1.574 . S
C616 C632 1.368 . S
H617 C625 0.950 . S
H618 C623 0.950 . S
H619 C624 0.949 . S
H620 C626 0.950 . S
H621 C627 0.950 . S
H622 C628 0.949 . S
C623 H618 0.950 . S
C623 C625 1.327 . S
C623 C629 1.429 . S
C624 C616 1.574 . S
C624 H619 0.949 . S
C624 C630 1.368 . S
C625 C609 1.349 . S
C625 H617 0.950 . S
C625 C623 1.327 . S
C626 C614 1.349 . S
C626 H620 0.950 . S
C626 C627 1.327 . S
C627 H621 0.950 . S
C627 C626 1.327 . S
C627 C631 1.429 . S
C628 C611 1.574 . S
C628 H622 0.949 . S
C628 C632 1.368 . S
C629 C610 1.429 . S
C629 C623 1.429 . S
C629 C630 1.523 . S
C630 C611 1.368 . S
C630 C624 1.368 . S
C630 C629 1.523 . S
C631 C615 1.429 . S
C631 C627 1.429 . S
C631 C632 1.523 . S
C632 C616 1.368 . S
C632 C628 1.368 . S
C632 C631 1.523 . S
H633 C608 0.950 . S
H634 C610 0.950 . S
H635 C611 0.949 . S
H636 C613 0.950 . S
H637 C615 0.950 . S
C638 C639 1.349 . S
C638 C640 1.327 . S
C638 H663 0.950 . S
C639 C638 1.349 . S
C639 C655 1.349 . S
C640 C638 1.327 . S
C640 C659 1.429 . S
C640 H664 0.950 . S
C641 C658 1.574 1_556 S
C641 C660 1.368 . S
C641 H665 0.949 . S
H642 C646 0.949 . S
C643 C644 1.349 . S
C643 C645 1.327 . S
C643 H666 0.950 . S
C644 C643 1.349 . S
C644 C656 1.349 . S
C645 C643 1.327 . S
C645 C661 1.429 . S
C645 H667 0.950 . S
C646 H642 0.949 . S
C646 C654 1.574 . S
C646 C662 1.368 . S
H647 C655 0.950 . S
H648 C653 0.950 . S
H649 C654 0.949 1_556 S
H650 C656 0.950 . S
H651 C657 0.950 . S
H652 C658 0.949 . S
C653 H648 0.950 . S
C653 C655 1.327 . S
C653 C659 1.429 . S
C654 C646 1.574 . S
C654 H649 0.949 1_554 S
C654 C660 1.368 1_554 S
C655 C639 1.349 . S
C655 H647 0.950 . S
C655 C653 1.327 . S
C656 C644 1.349 . S
C656 H650 0.950 . S
C656 C657 1.327 . S
C657 H651 0.950 . S
C657 C656 1.327 . S
C657 C661 1.429 . S
C658 C641 1.574 1_554 S
C658 H652 0.949 . S
C658 C662 1.368 . S
C659 C640 1.429 . S
C659 C653 1.429 . S
C659 C660 1.523 . S
C660 C641 1.368 . S
C660 C654 1.368 1_556 S
C660 C659 1.523 . S
C661 C645 1.429 . S
C661 C657 1.429 . S
C661 C662 1.523 . S
C662 C646 1.368 . S
C662 C658 1.368 . S
C662 C661 1.523 . S
H663 C638 0.950 . S
H664 C640 0.950 . S
H665 C641 0.949 . S
H666 C643 0.950 . S
H667 C645 0.950 . S
C668 C669 1.349 . S
C668 C670 1.327 . S
C668 H693 0.950 . S
C669 C668 1.349 . S
C669 C685 1.349 . S
C670 C668 1.327 . S
C670 C689 1.429 . S
C670 H694 0.950 . S
C671 C688 1.574 . S
C671 C690 1.368 . S
C671 H695 0.949 . S
H672 C676 0.949 . S
C673 C674 1.349 . S
C673 C675 1.327 . S
C673 H696 0.950 . S
C674 C673 1.349 . S
C674 C686 1.349 . S
C675 C673 1.327 . S
C675 C691 1.429 . S
C675 H697 0.950 . S
C676 H672 0.949 . S
C676 C684 1.574 . S
C676 C692 1.368 . S
H677 C685 0.950 . S
H678 C683 0.950 . S
H679 C684 0.949 . S
H680 C686 0.950 . S
H681 C687 0.950 . S
H682 C688 0.949 . S
C683 H678 0.950 . S
C683 C685 1.327 . S
C683 C689 1.429 . S
C684 C676 1.574 . S
C684 H679 0.949 . S
C684 C690 1.368 . S
C685 C669 1.349 . S
C685 H677 0.950 . S
C685 C683 1.327 . S
C686 C674 1.349 . S
C686 H680 0.950 . S
C686 C687 1.327 . S
C687 H681 0.950 . S
C687 C686 1.327 . S
C687 C691 1.429 . S
C688 C671 1.574 . S
C688 H682 0.949 . S
C688 C692 1.368 . S
C689 C670 1.429 . S
C689 C683 1.429 . S
C689 C690 1.523 . S
C690 C671 1.368 . S
C690 C684 1.368 . S
C690 C689 1.523 . S
C691 C675 1.429 . S
C691 C687 1.429 . S
C691 C692 1.523 . S
C692 C676 1.368 . S
C692 C688 1.368 . S
C692 C691 1.523 . S
H693 C668 0.950 . S
H694 C670 0.950 . S
H695 C671 0.949 . S
H696 C673 0.950 . S
H697 C675 0.950 . S
C698 C699 1.349 . S
C698 C700 1.327 . S
C698 H723 0.950 . S
C699 C698 1.349 . S
C699 C715 1.349 . S
C700 C698 1.327 . S
C700 C719 1.429 . S
C700 H724 0.950 . S
C701 C718 1.574 . S
C701 C720 1.368 . S
C701 H725 0.949 . S
H702 C706 0.949 . S
C703 C704 1.349 . S
C703 C705 1.327 . S
C703 H726 0.950 . S
C704 C703 1.349 . S
C704 C716 1.349 . S
C705 C703 1.327 . S
C705 C721 1.429 . S
C705 H727 0.950 . S
C706 H702 0.949 . S
C706 C714 1.574 . S
C706 C722 1.368 . S
H707 C715 0.950 . S
H708 C713 0.950 . S
H709 C714 0.949 . S
H710 C716 0.950 . S
H711 C717 0.950 . S
H712 C718 0.949 . S
C713 H708 0.950 . S
C713 C715 1.327 . S
C713 C719 1.429 . S
C714 C706 1.574 . S
C714 H709 0.949 . S
C714 C720 1.368 . S
C715 C699 1.349 . S
C715 H707 0.950 . S
C715 C713 1.327 . S
C716 C704 1.349 . S
C716 H710 0.950 . S
C716 C717 1.327 . S
C717 H711 0.950 . S
C717 C716 1.327 . S
C717 C721 1.429 . S
C718 C701 1.574 . S
C718 H712 0.949 . S
C718 C722 1.368 . S
C719 C700 1.429 . S
C719 C713 1.429 . S
C719 C720 1.523 . S
C720 C701 1.368 . S
C720 C714 1.368 . S
C720 C719 1.523 . S
C721 C705 1.429 . S
C721 C717 1.429 . S
C721 C722 1.523 . S
C722 C706 1.368 . S
C722 C718 1.368 . S
C722 C721 1.523 . S
H723 C698 0.950 . S
H724 C700 0.950 . S
H725 C701 0.949 . S
H726 C703 0.950 . S
H727 C705 0.950 . S
C728 C729 1.349 . S
C728 C730 1.327 . S
C728 H753 0.950 . S
C729 C728 1.349 . S
C729 C745 1.349 . S
C730 C728 1.327 . S
C730 C749 1.429 . S
C730 H754 0.950 . S
C731 C748 1.574 . S
C731 C750 1.368 . S
C731 H755 0.949 . S
H732 C736 0.949 . S
C733 C734 1.349 . S
C733 C735 1.327 . S
C733 H756 0.950 . S
C734 C733 1.349 . S
C734 C746 1.349 . S
C735 C733 1.327 . S
C735 C751 1.429 . S
C735 H757 0.950 . S
C736 H732 0.949 . S
C736 C744 1.574 . S
C736 C752 1.368 . S
H737 C745 0.950 . S
H738 C743 0.950 . S
H739 C744 0.949 . S
H740 C746 0.950 . S
H741 C747 0.950 . S
H742 C748 0.949 . S
C743 H738 0.950 . S
C743 C745 1.327 . S
C743 C749 1.429 . S
C744 C736 1.574 . S
C744 H739 0.949 . S
C744 C750 1.368 . S
C745 C729 1.349 . S
C745 H737 0.950 . S
C745 C743 1.327 . S
C746 C734 1.349 . S
C746 H740 0.950 . S
C746 C747 1.327 . S
C747 H741 0.950 . S
C747 C746 1.327 . S
C747 C751 1.429 . S
C748 C731 1.574 . S
C748 H742 0.949 . S
C748 C752 1.368 . S
C749 C730 1.429 . S
C749 C743 1.429 . S
C749 C750 1.523 . S
C750 C731 1.368 . S
C750 C744 1.368 . S
C750 C749 1.523 . S
C751 C735 1.429 . S
C751 C747 1.429 . S
C751 C752 1.523 . S
C752 C736 1.368 . S
C752 C748 1.368 . S
C752 C751 1.523 . S
H753 C728 0.950 . S
H754 C730 0.950 . S
H755 C731 0.949 . S
H756 C733 0.950 . S
H757 C735 0.950 . S
C758 C759 1.349 . S
C758 C760 1.327 . S
C758 H783 0.950 . S
C759 C758 1.349 . S
C759 C775 1.349 . S
C760 C758 1.327 . S
C760 C779 1.429 . S
C760 H784 0.950 . S
C761 C778 1.574 1_554 S
C761 C780 1.368 . S
C761 H785 0.949 . S
H762 C766 0.949 . S
C763 C764 1.349 . S
C763 C765 1.327 . S
C763 H786 0.950 . S
C764 C763 1.349 . S
C764 C776 1.349 . S
C765 C763 1.327 . S
C765 C781 1.429 . S
C765 H787 0.950 . S
C766 H762 0.949 . S
C766 C774 1.574 1_556 S
C766 C782 1.368 . S
H767 C775 0.950 . S
H768 C773 0.950 . S
H769 C774 0.949 . S
H770 C776 0.950 . S
H771 C777 0.950 . S
H772 C778 0.949 . S
C773 H768 0.950 . S
C773 C775 1.327 . S
C773 C779 1.429 . S
C774 C766 1.574 1_554 S
C774 H769 0.949 . S
C774 C780 1.368 . S
C775 C759 1.349 . S
C775 H767 0.950 . S
C775 C773 1.327 . S
C776 C764 1.349 . S
C776 H770 0.950 . S
C776 C777 1.327 . S
C777 H771 0.950 . S
C777 C776 1.327 . S
C777 C781 1.429 . S
C778 C761 1.574 1_556 S
C778 H772 0.949 . S
C778 C782 1.368 . S
C779 C760 1.429 . S
C779 C773 1.429 . S
C779 C780 1.523 . S
C780 C761 1.368 . S
C780 C774 1.368 . S
C780 C779 1.523 . S
C781 C765 1.429 . S
C781 C777 1.429 . S
C781 C782 1.523 . S
C782 C766 1.368 . S
C782 C778 1.368 . S
C782 C781 1.523 . S
H783 C758 0.950 . S
H784 C760 0.950 . S
H785 C761 0.949 . S
H786 C763 0.950 . S
H787 C765 0.950 . S
C788 C789 1.349 . S
C788 C790 1.327 . S
C788 H813 0.950 . S
C789 C788 1.349 . S
C789 C805 1.349 . S
C790 C788 1.327 . S
C790 C809 1.429 . S
C790 H814 0.950 . S
C791 C808 1.574 . S
C791 C810 1.368 . S
C791 H815 0.949 . S
H792 C796 0.949 . S
C793 C794 1.349 . S
C793 C795 1.327 . S
C793 H816 0.950 . S
C794 C793 1.349 . S
C794 C806 1.349 . S
C795 C793 1.327 . S
C795 C811 1.429 . S
C795 H817 0.950 . S
C796 H792 0.949 . S
C796 C804 1.574 . S
C796 C812 1.368 . S
H797 C805 0.950 . S
H798 C803 0.950 . S
H799 C804 0.949 . S
H800 C806 0.950 . S
H801 C807 0.950 . S
H802 C808 0.949 . S
C803 H798 0.950 . S
C803 C805 1.327 . S
C803 C809 1.429 . S
C804 C796 1.574 . S
C804 H799 0.949 . S
C804 C810 1.368 . S
C805 C789 1.349 . S
C805 H797 0.950 . S
C805 C803 1.327 . S
C806 C794 1.349 . S
C806 H800 0.950 . S
C806 C807 1.327 . S
C807 H801 0.950 . S
C807 C806 1.327 . S
C807 C811 1.429 . S
C808 C791 1.574 . S
C808 H802 0.949 . S
C808 C812 1.368 . S
C809 C790 1.429 . S
C809 C803 1.429 . S
C809 C810 1.523 . S
C810 C791 1.368 . S
C810 C804 1.368 . S
C810 C809 1.523 . S
C811 C795 1.429 . S
C811 C807 1.429 . S
C811 C812 1.523 . S
C812 C796 1.368 . S
C812 C808 1.368 . S
C812 C811 1.523 . S
H813 C788 0.950 . S
H814 C790 0.950 . S
H815 C791 0.949 . S
H816 C793 0.950 . S
H817 C795 0.950 . S
C818 C819 1.349 . S
C818 C820 1.327 . S
C818 H843 0.950 . S
C819 C818 1.349 . S
C819 C835 1.349 . S
C820 C818 1.327 . S
C820 C839 1.429 . S
C820 H844 0.950 . S
C821 C838 1.574 . S
C821 C840 1.368 . S
C821 H845 0.949 . S
H822 C826 0.949 . S
C823 C824 1.349 . S
C823 C825 1.327 . S
C823 H846 0.950 . S
C824 C823 1.349 . S
C824 C836 1.349 . S
C825 C823 1.327 . S
C825 C841 1.429 . S
C825 H847 0.950 . S
C826 H822 0.949 . S
C826 C834 1.574 . S
C826 C842 1.368 . S
H827 C835 0.950 . S
H828 C833 0.950 . S
H829 C834 0.949 . S
H830 C836 0.950 . S
H831 C837 0.950 . S
H832 C838 0.949 . S
C833 H828 0.950 . S
C833 C835 1.327 . S
C833 C839 1.429 . S
C834 C826 1.574 . S
C834 H829 0.949 . S
C834 C840 1.368 . S
C835 C819 1.349 . S
C835 H827 0.950 . S
C835 C833 1.327 . S
C836 C824 1.349 . S
C836 H830 0.950 . S
C836 C837 1.327 . S
C837 H831 0.950 . S
C837 C836 1.327 . S
C837 C841 1.429 . S
C838 C821 1.574 . S
C838 H832 0.949 . S
C838 C842 1.368 . S
C839 C820 1.429 . S
C839 C833 1.429 . S
C839 C840 1.523 . S
C840 C821 1.368 . S
C840 C834 1.368 . S
C840 C839 1.523 . S
C841 C825 1.429 . S
C841 C837 1.429 . S
C841 C842 1.523 . S
C842 C826 1.368 . S
C842 C838 1.368 . S
C842 C841 1.523 . S
H843 C818 0.950 . S
H844 C820 0.950 . S
H845 C821 0.949 . S
H846 C823 0.950 . S
H847 C825 0.950 . S
C848 C849 1.349 . S
C848 C850 1.327 . S
C848 H873 0.950 . S
C849 C848 1.349 . S
C849 C865 1.349 . S
C850 C848 1.327 . S
C850 C869 1.429 . S
C850 H874 0.950 . S
C851 C868 1.574 . S
C851 C870 1.368 . S
C851 H875 0.949 . S
H852 C856 0.949 . S
C853 C854 1.349 . S
C853 C855 1.327 . S
C853 H876 0.950 . S
C854 C853 1.349 . S
C854 C866 1.349 . S
C855 C853 1.327 . S
C855 C871 1.429 . S
C855 H877 0.950 . S
C856 H852 0.949 . S
C856 C864 1.574 . S
C856 C872 1.368 . S
H857 C865 0.950 . S
H858 C863 0.950 . S
H859 C864 0.949 . S
H860 C866 0.950 . S
H861 C867 0.950 . S
H862 C868 0.949 . S
C863 H858 0.950 . S
C863 C865 1.327 . S
C863 C869 1.429 . S
C864 C856 1.574 . S
C864 H859 0.949 . S
C864 C870 1.368 . S
C865 C849 1.349 . S
C865 H857 0.950 . S
C865 C863 1.327 . S
C866 C854 1.349 . S
C866 H860 0.950 . S
C866 C867 1.327 . S
C867 H861 0.950 . S
C867 C866 1.327 . S
C867 C871 1.429 . S
C868 C851 1.574 . S
C868 H862 0.949 . S
C868 C872 1.368 . S
C869 C850 1.429 . S
C869 C863 1.429 . S
C869 C870 1.523 . S
C870 C851 1.368 . S
C870 C864 1.368 . S
C870 C869 1.523 . S
C871 C855 1.429 . S
C871 C867 1.429 . S
C871 C872 1.523 . S
C872 C856 1.368 . S
C872 C868 1.368 . S
C872 C871 1.523 . S
H873 C848 0.950 . S
H874 C850 0.950 . S
H875 C851 0.949 . S
H876 C853 0.950 . S
H877 C855 0.950 . S
C878 C879 1.349 . S
C878 C880 1.327 . S
C878 H903 0.950 . S
C879 C878 1.349 . S
C879 C895 1.349 . S
C880 C878 1.327 . S
C880 C899 1.429 . S
C880 H904 0.950 . S
C881 C898 1.574 . S
C881 C900 1.368 . S
C881 H905 0.949 . S
H882 C886 0.949 . S
C883 C884 1.349 . S
C883 C885 1.327 . S
C883 H906 0.950 . S
C884 C883 1.349 . S
C884 C896 1.349 . S
C885 C883 1.327 . S
C885 C901 1.429 . S
C885 H907 0.950 . S
C886 H882 0.949 . S
C886 C894 1.574 . S
C886 C902 1.368 . S
H887 C895 0.950 . S
H888 C893 0.950 . S
H889 C894 0.949 . S
H890 C896 0.950 . S
H891 C897 0.950 . S
H892 C898 0.949 . S
C893 H888 0.950 . S
C893 C895 1.327 . S
C893 C899 1.429 . S
C894 C886 1.574 . S
C894 H889 0.949 . S
C894 C900 1.368 . S
C895 C879 1.349 . S
C895 H887 0.950 . S
C895 C893 1.327 . S
C896 C884 1.349 . S
C896 H890 0.950 . S
C896 C897 1.327 . S
C897 H891 0.950 . S
C897 C896 1.327 . S
C897 C901 1.429 . S
C898 C881 1.574 . S
C898 H892 0.949 . S
C898 C902 1.368 . S
C899 C880 1.429 . S
C899 C893 1.429 . S
C899 C900 1.523 . S
C900 C881 1.368 . S
C900 C894 1.368 . S
C900 C899 1.523 . S
C901 C885 1.429 . S
C901 C897 1.429 . S
C901 C902 1.523 . S
C902 C886 1.368 . S
C902 C898 1.368 . S
C902 C901 1.523 . S
H903 C878 0.950 . S
H904 C880 0.950 . S
H905 C881 0.949 . S
H906 C883 0.950 . S
H907 C885 0.950 . S
C908 C909 1.349 . S
C908 C910 1.327 . S
C908 H933 0.950 . S
C909 C908 1.349 . S
C909 C925 1.349 . S
C910 C908 1.327 . S
C910 C929 1.429 . S
C910 H934 0.950 . S
C911 C928 1.574 . S
C911 C930 1.368 . S
C911 H935 0.949 . S
H912 C916 0.949 . S
C913 C914 1.349 . S
C913 C915 1.327 . S
C913 H936 0.950 . S
C914 C913 1.349 . S
C914 C926 1.349 . S
C915 C913 1.327 . S
C915 C931 1.429 . S
C915 H937 0.950 . S
C916 H912 0.949 . S
C916 C924 1.574 . S
C916 C932 1.368 . S
H917 C925 0.950 . S
H918 C923 0.950 . S
H919 C924 0.949 . S
H920 C926 0.950 . S
H921 C927 0.950 . S
H922 C928 0.949 . S
C923 H918 0.950 . S
C923 C925 1.327 . S
C923 C929 1.429 . S
C924 C916 1.574 . S
C924 H919 0.949 . S
C924 C930 1.368 . S
C925 C909 1.349 . S
C925 H917 0.950 . S
C925 C923 1.327 . S
C926 C914 1.349 . S
C926 H920 0.950 . S
C926 C927 1.327 . S
C927 H921 0.950 . S
C927 C926 1.327 . S
C927 C931 1.429 . S
C928 C911 1.574 . S
C928 H922 0.949 . S
C928 C932 1.368 . S
C929 C910 1.429 . S
C929 C923 1.429 . S
C929 C930 1.523 . S
C930 C911 1.368 . S
C930 C924 1.368 . S
C930 C929 1.523 . S
C931 C915 1.429 . S
C931 C927 1.429 . S
C931 C932 1.523 . S
C932 C916 1.368 . S
C932 C928 1.368 . S
C932 C931 1.523 . S
H933 C908 0.950 . S
H934 C910 0.950 . S
H935 C911 0.949 . S
H936 C913 0.950 . S
H937 C915 0.950 . S
C938 C939 1.349 . S
C938 C940 1.327 . S
C938 H963 0.950 . S
C939 C938 1.349 . S
C939 C955 1.349 . S
C940 C938 1.327 . S
C940 C959 1.429 . S
C940 H964 0.950 . S
C941 C958 1.574 . S
C941 C960 1.368 . S
C941 H965 0.949 . S
H942 C946 0.949 . S
C943 C944 1.349 . S
C943 C945 1.327 . S
C943 H966 0.950 . S
C944 C943 1.349 . S
C944 C956 1.349 . S
C945 C943 1.327 . S
C945 C961 1.429 . S
C945 H967 0.950 . S
C946 H942 0.949 . S
C946 C954 1.574 . S
C946 C962 1.368 . S
H947 C955 0.950 . S
H948 C953 0.950 . S
H949 C954 0.949 . S
H950 C956 0.950 1_554 S
H951 C957 0.950 . S
H952 C958 0.949 . S
C953 H948 0.950 . S
C953 C955 1.327 . S
C953 C959 1.429 . S
C954 C946 1.574 . S
C954 H949 0.949 . S
C954 C960 1.368 . S
C955 C939 1.349 . S
C955 H947 0.950 . S
C955 C953 1.327 . S
C956 C944 1.349 . S
C956 H950 0.950 1_556 S
C956 C957 1.327 . S
C957 H951 0.950 . S
C957 C956 1.327 . S
C957 C961 1.429 . S
C958 C941 1.574 . S
C958 H952 0.949 . S
C958 C962 1.368 . S
C959 C940 1.429 . S
C959 C953 1.429 . S
C959 C960 1.523 . S
C960 C941 1.368 . S
C960 C954 1.368 . S
C960 C959 1.523 . S
C961 C945 1.429 . S
C961 C957 1.429 . S
C961 C962 1.523 . S
C962 C946 1.368 . S
C962 C958 1.368 . S
C962 C961 1.523 . S
H963 C938 0.950 . S
H964 C940 0.950 . S
H965 C941 0.949 . S
H966 C943 0.950 . S
H967 C945 0.950 . S
C968 C969 1.349 . S
C968 C970 1.327 . S
C968 H993 0.950 . S
C969 C968 1.349 . S
C969 C985 1.349 . S
C970 C968 1.327 . S
C970 C989 1.429 . S
C970 H994 0.950 . S
C971 C988 1.574 . S
C971 C990 1.368 . S
C971 H995 0.949 . S
H972 C976 0.949 . S
C973 C974 1.349 . S
C973 C975 1.327 . S
C973 H996 0.950 . S
C974 C973 1.349 . S
C974 C986 1.349 . S
C975 C973 1.327 . S
C975 C991 1.429 . S
C975 H997 0.950 . S
C976 H972 0.949 . S
C976 C984 1.574 . S
C976 C992 1.368 . S
H977 C985 0.950 . S
H978 C983 0.950 . S
H979 C984 0.949 . S
H980 C986 0.950 . S
H981 C987 0.950 . S
H982 C988 0.949 . S
C983 H978 0.950 . S
C983 C985 1.327 . S
C983 C989 1.429 . S
C984 C976 1.574 . S
C984 H979 0.949 . S
C984 C990 1.368 . S
C985 C969 1.349 . S
C985 H977 0.950 . S
C985 C983 1.327 . S
C986 C974 1.349 . S
C986 H980 0.950 . S
C986 C987 1.327 . S
C987 H981 0.950 . S
C987 C986 1.327 . S
C987 C991 1.429 . S
C988 C971 1.574 . S
C988 H982 0.949 . S
C988 C992 1.368 . S
C989 C970 1.429 . S
C989 C983 1.429 . S
C989 C990 1.523 . S
C990 C971 1.368 . S
C990 C984 1.368 . S
C990 C989 1.523 . S
C991 C975 1.429 . S
C991 C987 1.429 . S
C991 C992 1.523 . S
C992 C976 1.368 . S
C992 C988 1.368 . S
C992 C991 1.523 . S
H993 C968 0.950 . S
H994 C970 0.950 . S
H995 C971 0.949 . S
H996 C973 0.950 . S
H997 C975 0.950 . S
C998 C999 1.349 . S
C998 C1000 1.327 . S
C998 H1023 0.950 . S
C999 C998 1.349 . S
C999 C1015 1.349 . S
C1000 C998 1.327 . S
C1000 C1019 1.429 . S
C1000 H1024 0.950 . S
C1001 C1018 1.574 . S
C1001 C1020 1.368 . S
C1001 H1025 0.949 . S
H1002 C1006 0.949 . S
C1003 C1004 1.349 . S
C1003 C1005 1.327 . S
C1003 H1026 0.950 . S
C1004 C1003 1.349 . S
C1004 C1016 1.349 . S
C1005 C1003 1.327 . S
C1005 C1021 1.429 . S
C1005 H1027 0.950 . S
C1006 H1002 0.949 . S
C1006 C1014 1.574 . S
C1006 C1022 1.368 . S
H1007 C1015 0.950 . S
H1008 C1013 0.950 . S
H1009 C1014 0.949 . S
H1010 C1016 0.950 . S
H1011 C1017 0.950 . S
H1012 C1018 0.949 . S
C1013 H1008 0.950 . S
C1013 C1015 1.327 . S
C1013 C1019 1.429 . S
C1014 C1006 1.574 . S
C1014 H1009 0.949 . S
C1014 C1020 1.368 . S
C1015 C999 1.349 . S
C1015 H1007 0.950 . S
C1015 C1013 1.327 . S
C1016 C1004 1.349 . S
C1016 H1010 0.950 . S
C1016 C1017 1.327 . S
C1017 H1011 0.950 . S
C1017 C1016 1.327 . S
C1017 C1021 1.429 . S
C1018 C1001 1.574 . S
C1018 H1012 0.949 . S
C1018 C1022 1.368 . S
C1019 C1000 1.429 . S
C1019 C1013 1.429 . S
C1019 C1020 1.523 . S
C1020 C1001 1.368 . S
C1020 C1014 1.368 . S
C1020 C1019 1.523 . S
C1021 C1005 1.429 . S
C1021 C1017 1.429 . S
C1021 C1022 1.523 . S
C1022 C1006 1.368 . S
C1022 C1018 1.368 . S
C1022 C1021 1.523 . S
H1023 C998 0.950 . S
H1024 C1000 0.950 . S
H1025 C1001 0.949 . S
H1026 C1003 0.950 . S
H1027 C1005 0.950 . S
C1028 C1029 1.349 . S
C1028 C1030 1.327 . S
C1028 H1053 0.950 . S
C1029 C1028 1.349 . S
C1029 C1045 1.349 . S
C1030 C1028 1.327 . S
C1030 C1049 1.429 . S
C1030 H1054 0.950 . S
C1031 C1048 1.574 . S
C1031 C1050 1.368 . S
C1031 H1055 0.949 . S
H1032 C1036 0.949 . S
C1033 C1034 1.349 . S
C1033 C1035 1.327 . S
C1033 H1056 0.950 . S
C1034 C1033 1.349 . S
C1034 C1046 1.349 . S
C1035 C1033 1.327 . S
C1035 C1051 1.429 . S
C1035 H1057 0.950 . S
C1036 H1032 0.949 . S
C1036 C1044 1.574 . S
C1036 C1052 1.368 . S
H1037 C1045 0.950 . S
H1038 C1043 0.950 . S
H1039 C1044 0.949 . S
H1040 C1046 0.950 . S
H1041 C1047 0.950 . S
H1042 C1048 0.949 . S
C1043 H1038 0.950 . S
C1043 C1045 1.327 . S
C1043 C1049 1.429 . S
C1044 C1036 1.574 . S
C1044 H1039 0.949 . S
C1044 C1050 1.368 . S
C1045 C1029 1.349 . S
C1045 H1037 0.950 . S
C1045 C1043 1.327 . S
C1046 C1034 1.349 . S
C1046 H1040 0.950 . S
C1046 C1047 1.327 . S
C1047 H1041 0.950 . S
C1047 C1046 1.327 . S
C1047 C1051 1.429 . S
C1048 C1031 1.574 . S
C1048 H1042 0.949 . S
C1048 C1052 1.368 . S
C1049 C1030 1.429 . S
C1049 C1043 1.429 . S
C1049 C1050 1.523 . S
C1050 C1031 1.368 . S
C1050 C1044 1.368 . S
C1050 C1049 1.523 . S
C1051 C1035 1.429 . S
C1051 C1047 1.429 . S
C1051 C1052 1.523 . S
C1052 C1036 1.368 . S
C1052 C1048 1.368 . S
C1052 C1051 1.523 . S
H1053 C1028 0.950 . S
H1054 C1030 0.950 . S
H1055 C1031 0.949 . S
H1056 C1033 0.950 . S
H1057 C1035 0.950 . S
C1058 C1059 1.349 . S
C1058 C1060 1.327 . S
C1058 H1083 0.950 . S
C1059 C1058 1.349 . S
C1059 C1075 1.349 . S
C1060 C1058 1.327 . S
C1060 C1079 1.429 . S
C1060 H1084 0.950 . S
C1061 C1078 1.574 . S
C1061 C1080 1.368 . S
C1061 H1085 0.949 . S
H1062 C1066 0.949 . S
C1063 C1064 1.349 . S
C1063 C1065 1.327 . S
C1063 H1086 0.950 . S
C1064 C1063 1.349 . S
C1064 C1076 1.349 . S
C1065 C1063 1.327 . S
C1065 C1081 1.429 . S
C1065 H1087 0.950 . S
C1066 H1062 0.949 . S
C1066 C1074 1.574 . S
C1066 C1082 1.368 . S
H1067 C1075 0.950 . S
H1068 C1073 0.950 . S
H1069 C1074 0.949 . S
H1070 C1076 0.950 . S
H1071 C1077 0.950 . S
H1072 C1078 0.949 . S
C1073 H1068 0.950 . S
C1073 C1075 1.327 . S
C1073 C1079 1.429 . S
C1074 C1066 1.574 . S
C1074 H1069 0.949 . S
C1074 C1080 1.368 . S
C1075 C1059 1.349 . S
C1075 H1067 0.950 . S
C1075 C1073 1.327 . S
C1076 C1064 1.349 . S
C1076 H1070 0.950 . S
C1076 C1077 1.327 . S
C1077 H1071 0.950 . S
C1077 C1076 1.327 . S
C1077 C1081 1.429 . S
C1078 C1061 1.574 . S
C1078 H1072 0.949 . S
C1078 C1082 1.368 . S
C1079 C1060 1.429 . S
C1079 C1073 1.429 . S
C1079 C1080 1.523 . S
C1080 C1061 1.368 . S
C1080 C1074 1.368 . S
C1080 C1079 1.523 . S
C1081 C1065 1.429 . S
C1081 C1077 1.429 . S
C1081 C1082 1.523 . S
C1082 C1066 1.368 . S
C1082 C1078 1.368 . S
C1082 C1081 1.523 . S
H1083 C1058 0.950 . S
H1084 C1060 0.950 . S
H1085 C1061 0.949 . S
H1086 C1063 0.950 . S
H1087 C1065 0.950 . S
C1088 C1089 1.349 . S
C1088 C1090 1.327 . S
C1088 H1113 0.950 . S
C1089 C1088 1.349 . S
C1089 C1105 1.349 . S
C1090 C1088 1.327 . S
C1090 C1109 1.429 . S
C1090 H1114 0.950 . S
C1091 C1108 1.574 . S
C1091 C1110 1.368 . S
C1091 H1115 0.949 . S
H1092 C1096 0.949 . S
C1093 C1094 1.349 . S
C1093 C1095 1.327 . S
C1093 H1116 0.950 . S
C1094 C1093 1.349 . S
C1094 C1106 1.349 . S
C1095 C1093 1.327 . S
C1095 C1111 1.429 . S
C1095 H1117 0.950 . S
C1096 H1092 0.949 . S
C1096 C1104 1.574 . S
C1096 C1112 1.368 . S
H1097 C1105 0.950 . S
H1098 C1103 0.950 . S
H1099 C1104 0.949 . S
H1100 C1106 0.950 . S
H1101 C1107 0.950 . S
H1102 C1108 0.949 . S
C1103 H1098 0.950 . S
C1103 C1105 1.327 . S
C1103 C1109 1.429 . S
C1104 C1096 1.574 . S
C1104 H1099 0.949 . S
C1104 C1110 1.368 . S
C1105 C1089 1.349 . S
C1105 H1097 0.950 . S
C1105 C1103 1.327 . S
C1106 C1094 1.349 . S
C1106 H1100 0.950 . S
C1106 C1107 1.327 . S
C1107 H1101 0.950 . S
C1107 C1106 1.327 . S
C1107 C1111 1.429 . S
C1108 C1091 1.574 . S
C1108 H1102 0.949 . S
C1108 C1112 1.368 . S
C1109 C1090 1.429 . S
C1109 C1103 1.429 . S
C1109 C1110 1.523 . S
C1110 C1091 1.368 . S
C1110 C1104 1.368 . S
C1110 C1109 1.523 . S
C1111 C1095 1.429 . S
C1111 C1107 1.429 . S
C1111 C1112 1.523 . S
C1112 C1096 1.368 . S
C1112 C1108 1.368 . S
C1112 C1111 1.523 . S
H1113 C1088 0.950 . S
H1114 C1090 0.950 . S
H1115 C1091 0.949 . S
H1116 C1093 0.950 . S
H1117 C1095 0.950 . S
C1118 C1119 1.349 . S
C1118 C1120 1.327 . S
C1118 H1143 0.950 . S
C1119 C1118 1.349 . S
C1119 C1135 1.349 . S
C1120 C1118 1.327 . S
C1120 C1139 1.429 . S
C1120 H1144 0.950 . S
C1121 C1138 1.574 . S
C1121 C1140 1.368 . S
C1121 H1145 0.949 . S
H1122 C1126 0.949 . S
C1123 C1124 1.349 . S
C1123 C1125 1.327 . S
C1123 H1146 0.950 . S
C1124 C1123 1.349 . S
C1124 C1136 1.349 . S
C1125 C1123 1.327 . S
C1125 C1141 1.429 . S
C1125 H1147 0.950 . S
C1126 H1122 0.949 . S
C1126 C1134 1.574 . S
C1126 C1142 1.368 . S
H1127 C1135 0.950 . S
H1128 C1133 0.950 . S
H1129 C1134 0.949 . S
H1130 C1136 0.950 . S
H1131 C1137 0.950 . S
H1132 C1138 0.949 . S
C1133 H1128 0.950 . S
C1133 C1135 1.327 . S
C1133 C1139 1.429 . S
C1134 C1126 1.574 . S
C1134 H1129 0.949 . S
C1134 C1140 1.368 . S
C1135 C1119 1.349 . S
C1135 H1127 0.950 . S
C1135 C1133 1.327 . S
C1136 C1124 1.349 . S
C1136 H1130 0.950 . S
C1136 C1137 1.327 . S
C1137 H1131 0.950 . S
C1137 C1136 1.327 . S
C1137 C1141 1.429 . S
C1138 C1121 1.574 . S
C1138 H1132 0.949 . S
C1138 C1142 1.368 . S
C1139 C1120 1.429 . S
C1139 C1133 1.429 . S
C1139 C1140 1.523 . S
C1140 C1121 1.368 . S
C1140 C1134 1.368 . S
C1140 C1139 1.523 . S
C1141 C1125 1.429 . S
C1141 C1137 1.429 . S
C1141 C1142 1.523 . S
C1142 C1126 1.368 . S
C1142 C1138 1.368 . S
C1142 C1141 1.523 . S
H1143 C1118 0.950 . S
H1144 C1120 0.950 . S
H1145 C1121 0.949 . S
H1146 C1123 0.950 . S
H1147 C1125 0.950 . S
C1148 C1149 1.349 . S
C1148 C1150 1.327 . S
C1148 H1173 0.950 . S
C1149 C1148 1.349 . S
C1149 C1165 1.349 . S
C1150 C1148 1.327 . S
C1150 C1169 1.429 . S
C1150 H1174 0.950 . S
C1151 C1168 1.574 . S
C1151 C1170 1.368 . S
C1151 H1175 0.949 . S
H1152 C1156 0.949 . S
C1153 C1154 1.349 . S
C1153 C1155 1.327 . S
C1153 H1176 0.950 . S
C1154 C1153 1.349 . S
C1154 C1166 1.349 . S
C1155 C1153 1.327 . S
C1155 C1171 1.429 . S
C1155 H1177 0.950 . S
C1156 H1152 0.949 . S
C1156 C1164 1.574 . S
C1156 C1172 1.368 . S
H1157 C1165 0.950 . S
H1158 C1163 0.950 . S
H1159 C1164 0.949 . S
H1160 C1166 0.950 . S
H1161 C1167 0.950 . S
H1162 C1168 0.949 . S
C1163 H1158 0.950 . S
C1163 C1165 1.327 . S
C1163 C1169 1.429 . S
C1164 C1156 1.574 . S
C1164 H1159 0.949 . S
C1164 C1170 1.368 . S
C1165 C1149 1.349 . S
C1165 H1157 0.950 . S
C1165 C1163 1.327 . S
C1166 C1154 1.349 . S
C1166 H1160 0.950 . S
C1166 C1167 1.327 . S
C1167 H1161 0.950 . S
C1167 C1166 1.327 . S
C1167 C1171 1.429 . S
C1168 C1151 1.574 . S
C1168 H1162 0.949 . S
C1168 C1172 1.368 . S
C1169 C1150 1.429 . S
C1169 C1163 1.429 . S
C1169 C1170 1.523 . S
C1170 C1151 1.368 . S
C1170 C1164 1.368 . S
C1170 C1169 1.523 . S
C1171 C1155 1.429 . S
C1171 C1167 1.429 . S
C1171 C1172 1.523 . S
C1172 C1156 1.368 . S
C1172 C1168 1.368 . S
C1172 C1171 1.523 . S
H1173 C1148 0.950 . S
H1174 C1150 0.950 . S
H1175 C1151 0.949 . S
H1176 C1153 0.950 . S
H1177 C1155 0.950 . S
C1178 C1179 1.349 . S
C1178 C1180 1.327 . S
C1178 H1203 0.950 . S
C1179 C1178 1.349 . S
C1179 C1195 1.349 . S
C1180 C1178 1.327 . S
C1180 C1199 1.429 . S
C1180 H1204 0.950 . S
C1181 C1198 1.574 . S
C1181 C1200 1.368 . S
C1181 H1205 0.949 . S
H1182 C1186 0.949 . S
C1183 C1184 1.349 . S
C1183 C1185 1.327 . S
C1183 H1206 0.950 . S
C1184 C1183 1.349 . S
C1184 C1196 1.349 . S
C1185 C1183 1.327 . S
C1185 C1201 1.429 . S
C1185 H1207 0.950 . S
C1186 H1182 0.949 . S
C1186 C1194 1.574 . S
C1186 C1202 1.368 . S
H1187 C1195 0.950 1_455 S
H1188 C1193 0.950 . S
H1189 C1194 0.949 . S
H1190 C1196 0.950 . S
H1191 C1197 0.950 . S
H1192 C1198 0.949 . S
C1193 H1188 0.950 . S
C1193 C1195 1.327 . S
C1193 C1199 1.429 . S
C1194 C1186 1.574 . S
C1194 H1189 0.949 . S
C1194 C1200 1.368 . S
C1195 C1179 1.349 . S
C1195 H1187 0.950 1_655 S
C1195 C1193 1.327 . S
C1196 C1184 1.349 . S
C1196 H1190 0.950 . S
C1196 C1197 1.327 . S
C1197 H1191 0.950 . S
C1197 C1196 1.327 . S
C1197 C1201 1.429 . S
C1198 C1181 1.574 . S
C1198 H1192 0.949 . S
C1198 C1202 1.368 . S
C1199 C1180 1.429 . S
C1199 C1193 1.429 . S
C1199 C1200 1.523 . S
C1200 C1181 1.368 . S
C1200 C1194 1.368 . S
C1200 C1199 1.523 . S
C1201 C1185 1.429 . S
C1201 C1197 1.429 . S
C1201 C1202 1.523 . S
C1202 C1186 1.368 . S
C1202 C1198 1.368 . S
C1202 C1201 1.523 . S
H1203 C1178 0.950 . S
H1204 C1180 0.950 . S
H1205 C1181 0.949 . S
H1206 C1183 0.950 . S
H1207 C1185 0.950 . S
C1208 C1209 1.349 . S
C1208 C1210 1.327 . S
C1208 H1233 0.950 . S
C1209 C1208 1.349 . S
C1209 C1225 1.349 . S
C1210 C1208 1.327 . S
C1210 C1229 1.429 . S
C1210 H1234 0.950 . S
C1211 C1228 1.574 . S
C1211 C1230 1.368 . S
C1211 H1235 0.949 . S
H1212 C1216 0.949 . S
C1213 C1214 1.349 . S
C1213 C1215 1.327 . S
C1213 H1236 0.950 . S
C1214 C1213 1.349 . S
C1214 C1226 1.349 . S
C1215 C1213 1.327 . S
C1215 C1231 1.429 . S
C1215 H1237 0.950 . S
C1216 H1212 0.949 . S
C1216 C1224 1.574 . S
C1216 C1232 1.368 . S
H1217 C1225 0.950 . S
H1218 C1223 0.950 . S
H1219 C1224 0.949 . S
H1220 C1226 0.950 . S
H1221 C1227 0.950 . S
H1222 C1228 0.949 . S
C1223 H1218 0.950 . S
C1223 C1225 1.327 . S
C1223 C1229 1.429 . S
C1224 C1216 1.574 . S
C1224 H1219 0.949 . S
C1224 C1230 1.368 . S
C1225 C1209 1.349 . S
C1225 H1217 0.950 . S
C1225 C1223 1.327 . S
C1226 C1214 1.349 . S
C1226 H1220 0.950 . S
C1226 C1227 1.327 . S
C1227 H1221 0.950 . S
C1227 C1226 1.327 . S
C1227 C1231 1.429 . S
C1228 C1211 1.574 . S
C1228 H1222 0.949 . S
C1228 C1232 1.368 . S
C1229 C1210 1.429 . S
C1229 C1223 1.429 . S
C1229 C1230 1.523 . S
C1230 C1211 1.368 . S
C1230 C1224 1.368 . S
C1230 C1229 1.523 . S
C1231 C1215 1.429 . S
C1231 C1227 1.429 . S
C1231 C1232 1.523 . S
C1232 C1216 1.368 . S
C1232 C1228 1.368 . S
C1232 C1231 1.523 . S
H1233 C1208 0.950 . S
H1234 C1210 0.950 . S
H1235 C1211 0.949 . S
H1236 C1213 0.950 . S
H1237 C1215 0.950 . S
C1238 C1239 1.349 . S
C1238 C1240 1.327 . S
C1238 H1263 0.950 . S
C1239 C1238 1.349 . S
C1239 C1255 1.349 . S
C1240 C1238 1.327 . S
C1240 C1259 1.429 . S
C1240 H1264 0.950 . S
C1241 C1258 1.574 . S
C1241 C1260 1.368 . S
C1241 H1265 0.949 . S
H1242 C1246 0.949 . S
C1243 C1244 1.349 . S
C1243 C1245 1.327 . S
C1243 H1266 0.950 . S
C1244 C1243 1.349 . S
C1244 C1256 1.349 . S
C1245 C1243 1.327 . S
C1245 C1261 1.429 . S
C1245 H1267 0.950 . S
C1246 H1242 0.949 . S
C1246 C1254 1.574 . S
C1246 C1262 1.368 . S
H1247 C1255 0.950 . S
H1248 C1253 0.950 . S
H1249 C1254 0.949 . S
H1250 C1256 0.950 . S
H1251 C1257 0.950 . S
H1252 C1258 0.949 . S
C1253 H1248 0.950 . S
C1253 C1255 1.327 . S
C1253 C1259 1.429 . S
C1254 C1246 1.574 . S
C1254 H1249 0.949 . S
C1254 C1260 1.368 . S
C1255 C1239 1.349 . S
C1255 H1247 0.950 . S
C1255 C1253 1.327 . S
C1256 C1244 1.349 . S
C1256 H1250 0.950 . S
C1256 C1257 1.327 . S
C1257 H1251 0.950 . S
C1257 C1256 1.327 . S
C1257 C1261 1.429 . S
C1258 C1241 1.574 . S
C1258 H1252 0.949 . S
C1258 C1262 1.368 . S
C1259 C1240 1.429 . S
C1259 C1253 1.429 . S
C1259 C1260 1.523 . S
C1260 C1241 1.368 . S
C1260 C1254 1.368 . S
C1260 C1259 1.523 . S
C1261 C1245 1.429 . S
C1261 C1257 1.429 . S
C1261 C1262 1.523 . S
C1262 C1246 1.368 . S
C1262 C1258 1.368 . S
C1262 C1261 1.523 . S
H1263 C1238 0.950 . S
H1264 C1240 0.950 . S
H1265 C1241 0.949 . S
H1266 C1243 0.950 . S
H1267 C1245 0.950 . S
C1268 C1269 1.349 . S
C1268 C1270 1.327 . S
C1268 H1293 0.950 . S
C1269 C1268 1.349 . S
C1269 C1285 1.349 . S
C1270 C1268 1.327 . S
C1270 C1289 1.429 . S
C1270 H1294 0.950 . S
C1271 C1288 1.574 . S
C1271 C1290 1.368 . S
C1271 H1295 0.949 . S
H1272 C1276 0.949 . S
C1273 C1274 1.349 . S
C1273 C1275 1.327 . S
C1273 H1296 0.950 . S
C1274 C1273 1.349 . S
C1274 C1286 1.349 . S
C1275 C1273 1.327 . S
C1275 C1291 1.429 . S
C1275 H1297 0.950 . S
C1276 H1272 0.949 . S
C1276 C1284 1.574 . S
C1276 C1292 1.368 . S
H1277 C1285 0.950 . S
H1278 C1283 0.950 . S
H1279 C1284 0.949 . S
H1280 C1286 0.950 . S
H1281 C1287 0.950 . S
H1282 C1288 0.949 . S
C1283 H1278 0.950 . S
C1283 C1285 1.327 . S
C1283 C1289 1.429 . S
C1284 C1276 1.574 . S
C1284 H1279 0.949 . S
C1284 C1290 1.368 . S
C1285 C1269 1.349 . S
C1285 H1277 0.950 . S
C1285 C1283 1.327 . S
C1286 C1274 1.349 . S
C1286 H1280 0.950 . S
C1286 C1287 1.327 . S
C1287 H1281 0.950 . S
C1287 C1286 1.327 . S
C1287 C1291 1.429 . S
C1288 C1271 1.574 . S
C1288 H1282 0.949 . S
C1288 C1292 1.368 . S
C1289 C1270 1.429 . S
C1289 C1283 1.429 . S
C1289 C1290 1.523 . S
C1290 C1271 1.368 . S
C1290 C1284 1.368 . S
C1290 C1289 1.523 . S
C1291 C1275 1.429 . S
C1291 C1287 1.429 . S
C1291 C1292 1.523 . S
C1292 C1276 1.368 . S
C1292 C1288 1.368 . S
C1292 C1291 1.523 . S
H1293 C1268 0.950 . S
H1294 C1270 0.950 . S
H1295 C1271 0.949 . S
H1296 C1273 0.950 . S
H1297 C1275 0.950 . S
C1298 C1299 1.349 . S
C1298 C1300 1.327 . S
C1298 H1323 0.950 . S
C1299 C1298 1.349 . S
C1299 C1315 1.349 . S
C1300 C1298 1.327 . S
C1300 C1319 1.429 . S
C1300 H1324 0.950 . S
C1301 C1318 1.574 . S
C1301 C1320 1.368 . S
C1301 H1325 0.949 . S
H1302 C1306 0.949 . S
C1303 C1304 1.349 . S
C1303 C1305 1.327 . S
C1303 H1326 0.950 . S
C1304 C1303 1.349 . S
C1304 C1316 1.349 . S
C1305 C1303 1.327 . S
C1305 C1321 1.429 . S
C1305 H1327 0.950 . S
C1306 H1302 0.949 . S
C1306 C1314 1.574 . S
C1306 C1322 1.368 . S
H1307 C1315 0.950 . S
H1308 C1313 0.950 . S
H1309 C1314 0.949 . S
H1310 C1316 0.950 . S
H1311 C1317 0.950 . S
H1312 C1318 0.949 . S
C1313 H1308 0.950 . S
C1313 C1315 1.327 . S
C1313 C1319 1.429 . S
C1314 C1306 1.574 . S
C1314 H1309 0.949 . S
C1314 C1320 1.368 . S
C1315 C1299 1.349 . S
C1315 H1307 0.950 . S
C1315 C1313 1.327 . S
C1316 C1304 1.349 . S
C1316 H1310 0.950 . S
C1316 C1317 1.327 . S
C1317 H1311 0.950 . S
C1317 C1316 1.327 . S
C1317 C1321 1.429 . S
C1318 C1301 1.574 . S
C1318 H1312 0.949 . S
C1318 C1322 1.368 . S
C1319 C1300 1.429 . S
C1319 C1313 1.429 . S
C1319 C1320 1.523 . S
C1320 C1301 1.368 . S
C1320 C1314 1.368 . S
C1320 C1319 1.523 . S
C1321 C1305 1.429 . S
C1321 C1317 1.429 . S
C1321 C1322 1.523 . S
C1322 C1306 1.368 . S
C1322 C1318 1.368 . S
C1322 C1321 1.523 . S
H1323 C1298 0.950 . S
H1324 C1300 0.950 . S
H1325 C1301 0.949 . S
H1326 C1303 0.950 . S
H1327 C1305 0.950 . S
C369 C7 0.950 . S
C374 N94 0.945 . S
C399 N35 0.954 . S
C404 C131 0.959 . S
C429 N140 0.954 1_545 S
C434 C53 0.960 . S
C459 N81 0.974 . S
C464 C177 0.979 . S
C489 N104 0.928 . S
C494 C16 0.929 . S
C519 N242 0.273 . S
C524 N186 0.324 . S
C549 N150 0.911 . S
C554 C62 0.913 . S
C579 N209 0.915 . S
C584 C260 0.923 . S
C609 C283 0.965 . S
C614 N324 0.959 . S
C639 N196 0.324 . S
C644 N232 0.328 . S
C669 C306 0.941 . S
C674 N347 0.936 . S
C699 C269 0.980 . S
C704 N219 0.975 . S
C729 N334 0.909 . S
C734 C292 0.910 . S
C759 N25 0.923 . S
C764 C122 0.932 . S
C789 C315 0.931 . S
C794 N357 0.929 . S
C819 C168 0.923 . S
C824 N71 0.914 . S
C849 N12 1.482 . S
C854 N163 1.462 . S
C879 C108 1.595 . S
C884 C30 1.589 . S
C909 N117 1.612 . S
C914 N58 1.630 . S
C939 C76 1.610 . S
C944 C154 1.617 . S
C969 N2 1.492 . S
C974 N265 1.492 . S
C999 C200 1.560 . S
C1004 C99 1.572 . S
C1029 C237 1.670 . S
C1034 N48 1.663 . S
C1059 C223 1.604 . S
C1064 C145 1.618 . S
C1089 N288 1.477 . S
C1094 N255 1.458 . S
C1119 C338 1.583 . S
C1124 C191 1.579 . S
C1149 C246 1.644 . S
C1154 N311 1.639 . S
C1179 C361 1.555 1_655 S
C1184 C214 1.551 . S
C1209 N173 1.497 . S
C1214 N278 1.497 . S
C1239 C329 1.579 . S
C1244 C39 1.563 . S
C1269 N127 1.638 . S
C1274 N301 1.637 . S
C1299 C352 1.558 . S
C1304 C85 1.541 . S
