# Generated by pormake.
# Topology upa, (4)-cn, num edge types: 1
# Building blocks:
#     Node 0, Type 0, BuildingBlock: ICAMEG_clean_sbu_1, # of connection points: 4
#     Node 1, Type 0, BuildingBlock: ICAMEG_clean_sbu_1, # of connection points: 4
#     Node 2, Type 0, BuildingBlock: ICAMEG_clean_sbu_1, # of connection points: 4
#     Node 3, Type 0, BuildingBlock: ICAMEG_clean_sbu_1, # of connection points: 4
#     Node 4, Type 0, BuildingBlock: ICAMEG_clean_sbu_1, # of connection points: 4
#     Node 5, Type 0, BuildingBlock: ICAMEG_clean_sbu_1, # of connection points: 4
#     Node 6, Type 0, BuildingBlock: ICAMEG_clean_sbu_1, # of connection points: 4
#     Node 7, Type 0, BuildingBlock: ICAMEG_clean_sbu_1, # of connection points: 4
#     Edge 8, Type (0, 0), BuildingBlock: XUDNAN_clean_linker_2, # of connection points: 2
#     Edge 9, Type (0, 0), BuildingBlock: XUDNAN_clean_linker_2, # of connection points: 2
#     Edge 10, Type (0, 0), BuildingBlock: XUDNAN_clean_linker_2, # of connection points: 2
#     Edge 11, Type (0, 0), BuildingBlock: XUDNAN_clean_linker_2, # of connection points: 2
#     Edge 12, Type (0, 0), BuildingBlock: XUDNAN_clean_linker_2, # of connection points: 2
#     Edge 13, Type (0, 0), BuildingBlock: XUDNAN_clean_linker_2, # of connection points: 2
#     Edge 14, Type (0, 0), BuildingBlock: XUDNAN_clean_linker_2, # of connection points: 2
#     Edge 15, Type (0, 0), BuildingBlock: XUDNAN_clean_linker_2, # of connection points: 2
#     Edge 16, Type (0, 0), BuildingBlock: XUDNAN_clean_linker_2, # of connection points: 2
#     Edge 17, Type (0, 0), BuildingBlock: XUDNAN_clean_linker_2, # of connection points: 2
#     Edge 18, Type (0, 0), BuildingBlock: XUDNAN_clean_linker_2, # of connection points: 2
#     Edge 19, Type (0, 0), BuildingBlock: XUDNAN_clean_linker_2, # of connection points: 2
#     Edge 20, Type (0, 0), BuildingBlock: XUDNAN_clean_linker_2, # of connection points: 2
#     Edge 21, Type (0, 0), BuildingBlock: XUDNAN_clean_linker_2, # of connection points: 2
#     Edge 22, Type (0, 0), BuildingBlock: XUDNAN_clean_linker_2, # of connection points: 2
#     Edge 23, Type (0, 0), BuildingBlock: XUDNAN_clean_linker_2, # of connection points: 2
# Relax obj value: 0.137
# Max RMSD: 0.082
# Mean RMSD: 0.082
data_MOF--net-upa--node1-ICAMEG_clean_sbu_1--edge1-XUDNAN_clean_linker_2
_symmetry_space_group_name_H-M    P1
_symmetry_Int_Tables_number       1
_symmetry_cell_setting            triclinic
loop_
_symmetry_equiv_pos_as_xyz
'x, y, z'
_cell_length_a     26.201478
_cell_length_b     26.214699
_cell_length_c     50.228556
_cell_angle_alpha  89.951853
_cell_angle_beta   90.147099
_cell_angle_gamma 89.990785
loop_
_atom_site_label
_atom_site_type_symbol
_atom_site_fract_x
_atom_site_fract_y
_atom_site_fract_z
_atom_type_partial_charge
Co0 Co 0.1503 0.24751 0.35968 0.0
Co1 Co 0.21338 0.16983 0.31497 0.0
O2 O 0.21291 0.22174 0.34312 0.0
C3 C 0.21259 0.2124 0.40487 0.0
O4 O 0.2231 0.17239 0.39022 0.0
C5 C 0.28721 0.25077 0.2973 0.0
O6 O 0.25804 0.2858 0.30803 0.0
O7 O 0.1636 0.21018 0.29323 0.0
O8 O 0.11395 0.24635 0.32446 0.0
H9 H 0.13355 0.04988 0.24883 0.0
H10 H 0.24671 0.30327 0.36991 0.0
O11 O 0.18446 0.24791 0.39559 0.0
H12 H 0.13382 0.42701 0.32497 0.0
H13 H 0.04982 0.3587 0.42223 0.0
H14 H 0.04008 0.22382 0.35402 0.0
H15 H 0.10393 0.3397 0.33451 0.0
H16 H 0.12809 0.32583 0.4011 0.0
O17 O 0.27313 0.20424 0.29724 0.0
H18 H 0.1336 0.11529 0.28404 0.0
H19 H 0.29566 0.11406 0.28596 0.0
H20 H 0.96084 0.25615 0.37431 0.0
H21 H 0.27796 0.39044 0.36109 0.0
H22 H 0.96541 0.32402 0.40873 0.0
H23 H 0.2214 0.4529 0.33834 0.0
O24 O 0.1261 0.17712 0.36701 0.0
H25 H 0.36966 0.14362 0.3717 0.0
H26 H 0.21841 0.06096 0.33214 0.0
H27 H 0.27726 0.01027 0.35994 0.0
H28 H 0.3536 0.05157 0.37989 0.0
H29 H 0.30951 0.19305 0.34409 0.0
H30 H 0.2974 0.04917 0.25049 0.0
H31 H 0.21593 0.01642 0.23176 0.0
O32 O 0.15495 0.13295 0.33186 0.0
C33 C 0.12281 0.23327 0.3004 0.0
C34 C 0.16932 0.06383 0.25682 0.0
C35 C 0.26126 0.06349 0.25773 0.0
N36 N 0.21452 0.11857 0.28707 0.0
C37 C 0.16957 0.10081 0.27682 0.0
C38 C 0.26002 0.10044 0.27774 0.0
C39 C 0.21554 0.0451 0.24725 0.0
C40 C 0.22171 0.33043 0.36028 0.0
N41 N 0.17359 0.31644 0.35273 0.0
C42 C 0.23969 0.37965 0.35522 0.0
C43 C 0.20797 0.41465 0.34241 0.0
C44 C 0.15885 0.40012 0.33486 0.0
C45 C 0.14221 0.35055 0.34021 0.0
C46 C 0.04733 0.32918 0.40723 0.0
C47 C 0.04237 0.25363 0.36883 0.0
C48 C 0.09152 0.31033 0.39525 0.0
N49 N 0.08862 0.27323 0.3762 0.0
C50 C 0.99738 0.27166 0.38032 0.0
C51 C 0.99998 0.30971 0.39964 0.0
C52 C 0.12744 0.13719 0.35264 0.0
C53 C 0.33666 0.12513 0.36302 0.0
C54 C 0.25145 0.07929 0.34081 0.0
C55 C 0.28471 0.05034 0.35649 0.0
C56 C 0.32756 0.07352 0.36765 0.0
N57 N 0.26066 0.1299 0.33631 0.0
C58 C 0.30261 0.15288 0.34721 0.0
Co59 Co 0.25085 0.6645 0.86666 0.0
Co60 Co 0.32676 0.72478 0.82068 0.0
O61 O 0.27596 0.72682 0.84949 0.0
C62 C 0.28069 0.72294 0.91505 0.0
O63 O 0.32579 0.73072 0.90444 0.0
C64 C 0.24934 0.8039 0.80399 0.0
O65 O 0.21382 0.77954 0.81722 0.0
O66 O 0.28348 0.67631 0.79958 0.0
O67 O 0.25517 0.62601 0.83245 0.0
H68 H 0.43858 0.63837 0.75319 0.0
H69 H 0.19068 0.75897 0.87458 0.0
O70 O 0.24596 0.70028 0.90179 0.0
H71 H 0.07415 0.63954 0.82913 0.0
H72 H 0.13778 0.5633 0.92811 0.0
H73 H 0.28038 0.55529 0.86437 0.0
H74 H 0.16202 0.6136 0.8404 0.0
H75 H 0.16903 0.6414 0.90614 0.0
O76 O 0.29437 0.78568 0.80262 0.0
H77 H 0.375 0.64212 0.78921 0.0
H78 H 0.38571 0.8038 0.79082 0.0
H79 H 0.24992 0.47622 0.88563 0.0
H80 H 0.10276 0.7862 0.86408 0.0
H81 H 0.17811 0.4799 0.91777 0.0
H82 H 0.04392 0.72636 0.84106 0.0
O83 O 0.32179 0.64336 0.87533 0.0
H84 H 0.36109 0.8788 0.87758 0.0
H85 H 0.43684 0.72627 0.83603 0.0
H86 H 0.49098 0.78296 0.86319 0.0
H87 H 0.45318 0.85997 0.88412 0.0
H88 H 0.30821 0.82084 0.85048 0.0
H89 H 0.44888 0.80181 0.75455 0.0
H90 H 0.47596 0.71865 0.73558 0.0
O91 O 0.36213 0.66529 0.83771 0.0
C92 C 0.26433 0.63436 0.80792 0.0
C93 C 0.42718 0.67485 0.76132 0.0
C94 C 0.43292 0.76657 0.76207 0.0
N95 N 0.37681 0.72308 0.79225 0.0
C96 C 0.39128 0.67721 0.78179 0.0
C97 C 0.39697 0.76746 0.78255 0.0
C98 C 0.44811 0.7199 0.75144 0.0
C99 C 0.16511 0.73254 0.86482 0.0
N100 N 0.18153 0.68484 0.85806 0.0
C101 C 0.11545 0.74825 0.85881 0.0
C102 C 0.0825 0.71469 0.84585 0.0
C103 C 0.09946 0.66601 0.8391 0.0
C104 C 0.14939 0.65164 0.84541 0.0
C105 C 0.16904 0.56119 0.91411 0.0
C106 C 0.24894 0.55723 0.87823 0.0
C107 C 0.18699 0.60532 0.90166 0.0
N108 N 0.22626 0.60291 0.88384 0.0
C109 C 0.23194 0.51231 0.89025 0.0
C110 C 0.19167 0.5144 0.90829 0.0
C111 C 0.36009 0.64136 0.85982 0.0
C112 C 0.37806 0.84551 0.86845 0.0
C113 C 0.42005 0.75968 0.84508 0.0
C114 C 0.45094 0.79167 0.86042 0.0
C115 C 0.42971 0.83487 0.87215 0.0
N116 N 0.36946 0.77052 0.84141 0.0
C117 C 0.34834 0.81266 0.85297 0.0
Co118 Co 0.87061 0.73593 0.36007 0.0
Co119 Co 0.80273 0.82144 0.32141 0.0
O120 O 0.80607 0.76511 0.34733 0.0
C121 C 0.82036 0.76067 0.41131 0.0
O122 O 0.80815 0.80526 0.40121 0.0
C123 C 0.72609 0.74469 0.30213 0.0
O124 O 0.75577 0.70787 0.31071 0.0
O125 O 0.84856 0.78452 0.29602 0.0
O126 O 0.90177 0.74422 0.32412 0.0
H127 H 0.87527 0.9514 0.25825 0.0
H128 H 0.77555 0.67854 0.37082 0.0
O129 O 0.84242 0.72739 0.39689 0.0
H130 H 0.87997 0.56464 0.31497 0.0
H131 H 0.97954 0.61131 0.41125 0.0
H132 H 0.97983 0.76178 0.35227 0.0
H133 H 0.91219 0.64931 0.32819 0.0
H134 H 0.89856 0.64813 0.39507 0.0
O135 O 0.7401 0.79103 0.30425 0.0
H136 H 0.87901 0.88047 0.29039 0.0
H137 H 0.71763 0.88278 0.29798 0.0
H138 H 0.06164 0.72592 0.36779 0.0
H139 H 0.74211 0.59381 0.35841 0.0
H140 H 0.06185 0.65012 0.3975 0.0
H141 H 0.79437 0.53634 0.33015 0.0
O142 O 0.89646 0.80468 0.37015 0.0
H143 H 0.65666 0.83958 0.38541 0.0
H144 H 0.80239 0.92705 0.34343 0.0
H145 H 0.74918 0.97345 0.37579 0.0
H146 H 0.67564 0.9297 0.39699 0.0
H147 H 0.71114 0.79445 0.35313 0.0
H148 H 0.71206 0.95329 0.26561 0.0
H149 H 0.79127 0.98825 0.24556 0.0
O150 O 0.86428 0.85405 0.33757 0.0
C151 C 0.89023 0.76086 0.30102 0.0
C152 C 0.84046 0.93651 0.26682 0.0
C153 C 0.74888 0.93751 0.27093 0.0
N154 N 0.79866 0.87732 0.29605 0.0
C155 C 0.84236 0.89636 0.28509 0.0
C156 C 0.75228 0.89738 0.28916 0.0
C157 C 0.79333 0.95714 0.25971 0.0
C158 C 0.79873 0.65347 0.35878 0.0
N159 N 0.84572 0.66886 0.35022 0.0
C160 C 0.7795 0.60566 0.35171 0.0
C161 C 0.8088 0.57348 0.33581 0.0
C162 C 0.8568 0.58937 0.32725 0.0
C163 C 0.87474 0.63747 0.33468 0.0
C164 C 0.97994 0.64431 0.39829 0.0
C165 C 0.97956 0.72867 0.36511 0.0
C166 C 0.9342 0.66541 0.38912 0.0
N167 N 0.93443 0.70694 0.37265 0.0
C168 C 0.02603 0.70859 0.37388 0.0
C169 C 0.02612 0.66609 0.39056 0.0
C170 C 0.89449 0.8463 0.35709 0.0
C171 C 0.68847 0.85912 0.37622 0.0
C172 C 0.77049 0.90771 0.35259 0.0
C173 C 0.74045 0.93422 0.37087 0.0
C174 C 0.69919 0.90966 0.38275 0.0
N175 N 0.75963 0.85819 0.34622 0.0
C176 C 0.71931 0.83383 0.35783 0.0
Co177 Co 0.74977 0.35916 0.86952 0.0
Co178 Co 0.66993 0.32239 0.81802 0.0
O179 O 0.71673 0.30632 0.84765 0.0
C180 C 0.70061 0.29506 0.91076 0.0
O181 O 0.66024 0.29202 0.89532 0.0
C182 C 0.73105 0.22987 0.79884 0.0
O183 O 0.76353 0.23286 0.81869 0.0
O184 O 0.72121 0.36933 0.80132 0.0
O185 O 0.7595 0.40293 0.83736 0.0
H186 H 0.5772 0.43944 0.75496 0.0
H187 H 0.78725 0.25302 0.87404 0.0
O188 O 0.74056 0.31793 0.90276 0.0
H189 H 0.93475 0.3529 0.84259 0.0
H190 H 0.86601 0.42392 0.94202 0.0
H191 H 0.7441 0.47211 0.87138 0.0
H192 H 0.85225 0.39477 0.85143 0.0
H193 H 0.8254 0.35804 0.9141 0.0
O194 O 0.69563 0.263 0.79619 0.0
H195 H 0.63607 0.41798 0.79161 0.0
H196 H 0.60332 0.26045 0.78202 0.0
H197 H 0.78437 0.53926 0.89862 0.0
H198 H 0.86927 0.20955 0.86584 0.0
H199 H 0.84573 0.51531 0.93428 0.0
H200 H 0.94368 0.25958 0.84988 0.0
O201 O 0.68308 0.39312 0.87656 0.0
H202 H 0.60787 0.16247 0.86327 0.0
H203 H 0.55937 0.33309 0.83051 0.0
H204 H 0.49466 0.27891 0.85203 0.0
H205 H 0.51865 0.19278 0.86847 0.0
H206 H 0.67149 0.21808 0.84206 0.0
H207 H 0.5446 0.28008 0.74498 0.0
H208 H 0.53102 0.37015 0.73129 0.0
O209 O 0.64154 0.38145 0.83797 0.0
C210 C 0.74942 0.403 0.81248 0.0
C211 C 0.58282 0.40002 0.7607 0.0
C212 C 0.5646 0.3106 0.75508 0.0
N213 N 0.62338 0.33804 0.78893 0.0
C214 C 0.6161 0.38765 0.78148 0.0
C215 C 0.59814 0.2997 0.77598 0.0
C216 C 0.55695 0.36114 0.74743 0.0
C217 C 0.81956 0.27504 0.86724 0.0
N218 N 0.81487 0.3263 0.86299 0.0
C219 C 0.86586 0.25022 0.86256 0.0
C220 C 0.90757 0.2783 0.85357 0.0
C221 C 0.90256 0.33064 0.84943 0.0
C222 C 0.85565 0.35412 0.85428 0.0
C223 C 0.83942 0.43485 0.92651 0.0
C224 C 0.77108 0.46139 0.88671 0.0
C225 C 0.8162 0.3977 0.91067 0.0
N226 N 0.78263 0.41122 0.891 0.0
C227 C 0.79364 0.49958 0.90213 0.0
C228 C 0.82802 0.48612 0.92215 0.0
C229 C 0.6465 0.4027 0.8606 0.0
C230 C 0.59682 0.19974 0.85597 0.0
C231 C 0.57022 0.29566 0.83758 0.0
C232 C 0.53334 0.26513 0.84974 0.0
C233 C 0.54682 0.21682 0.85895 0.0
N234 N 0.61915 0.27849 0.83448 0.0
C235 C 0.63268 0.2313 0.84369 0.0
Co236 Co 0.64537 0.24144 0.15751 0.0
Co237 Co 0.71151 0.33625 0.19144 0.0
O238 O 0.7087 0.27563 0.16838 0.0
C239 C 0.69109 0.26666 0.10518 0.0
O240 O 0.70288 0.31164 0.1149 0.0
C241 C 0.78545 0.26165 0.21527 0.0
O242 O 0.75584 0.22429 0.20734 0.0
O243 O 0.66292 0.30547 0.21782 0.0
O244 O 0.61664 0.24977 0.19384 0.0
H245 H 0.63652 0.47907 0.24544 0.0
H246 H 0.74349 0.19044 0.14554 0.0
O247 O 0.67106 0.23295 0.12016 0.0
H248 H 0.65222 0.07281 0.20549 0.0
H249 H 0.54193 0.10674 0.11051 0.0
H250 H 0.53522 0.25978 0.16741 0.0
H251 H 0.61281 0.15409 0.19164 0.0
H252 H 0.6212 0.15001 0.12443 0.0
O253 O 0.77221 0.30785 0.21146 0.0
H254 H 0.63397 0.40226 0.21722 0.0
H255 H 0.79596 0.40003 0.21371 0.0
H256 H 0.45512 0.21753 0.15408 0.0
H257 H 0.7841 0.1092 0.15861 0.0
H258 H 0.45814 0.14039 0.12545 0.0
H259 H 0.73845 0.04988 0.18892 0.0
O260 O 0.61347 0.30737 0.147 0.0
H261 H 0.86219 0.33866 0.12967 0.0
H262 H 0.7169 0.43752 0.1645 0.0
H263 H 0.77357 0.4764 0.13105 0.0
H264 H 0.84692 0.42689 0.11343 0.0
H265 H 0.80427 0.30109 0.16293 0.0
H266 H 0.80024 0.47637 0.24226 0.0
H267 H 0.72012 0.51658 0.25823 0.0
O268 O 0.65237 0.36674 0.17211 0.0
C269 C 0.62532 0.27471 0.21512 0.0
C270 C 0.67171 0.46188 0.23863 0.0
C271 C 0.76358 0.46033 0.23687 0.0
N272 N 0.71475 0.39654 0.21384 0.0
C273 C 0.67052 0.4184 0.2226 0.0
C274 C 0.76091 0.41692 0.22081 0.0
C275 C 0.71862 0.4829 0.2458 0.0
C276 C 0.72319 0.16451 0.15847 0.0
N277 N 0.67586 0.17694 0.16779 0.0
C278 C 0.74646 0.1187 0.16592 0.0
C279 C 0.72087 0.08548 0.18296 0.0
C280 C 0.67251 0.09836 0.1923 0.0
C281 C 0.65047 0.14454 0.18448 0.0
C282 C 0.54012 0.14028 0.12303 0.0
C283 C 0.53692 0.22611 0.15504 0.0
C284 C 0.58488 0.165 0.13093 0.0
N285 N 0.5829 0.20724 0.14683 0.0
C286 C 0.4914 0.20241 0.14751 0.0
C287 C 0.49312 0.15916 0.13142 0.0
C288 C 0.61844 0.35303 0.15535 0.0
C289 C 0.83047 0.36069 0.13726 0.0
C290 C 0.74865 0.41569 0.15691 0.0
C291 C 0.78068 0.43795 0.138 0.0
C292 C 0.82184 0.41016 0.12813 0.0
N293 N 0.75745 0.36719 0.16583 0.0
C294 C 0.79767 0.33969 0.15621 0.0
Co295 Co 0.26304 0.14721 0.64995 0.0
Co296 Co 0.18108 0.22212 0.68661 0.0
O297 O 0.23799 0.2135 0.66186 0.0
C298 C 0.24018 0.1981 0.59867 0.0
O299 O 0.19603 0.21135 0.60886 0.0
C300 C 0.22275 0.29473 0.72678 0.0
O301 O 0.20804 0.26248 0.74528 0.0
O302 O 0.21358 0.17426 0.71302 0.0
O303 O 0.25344 0.11821 0.68631 0.0
H304 H 0.04581 0.16309 0.7504 0.0
H305 H 0.32448 0.23986 0.63956 0.0
O306 O 0.27268 0.17421 0.61292 0.0
H307 H 0.43484 0.12851 0.69408 0.0
H308 H 0.38027 0.02995 0.59947 0.0
H309 H 0.232 0.03992 0.65952 0.0
H310 H 0.34831 0.1008 0.68117 0.0
H311 H 0.34792 0.11337 0.61463 0.0
O312 O 0.21765 0.28292 0.70228 0.0
H313 H 0.11812 0.1527 0.7196 0.0
H314 H 0.12149 0.31247 0.70569 0.0
H315 H 0.26354 0.95574 0.64516 0.0
H316 H 0.411 0.26897 0.65181 0.0
H317 H 0.33817 0.95037 0.61489 0.0
H318 H 0.46676 0.21312 0.6793 0.0
O319 O 0.19282 0.12475 0.64014 0.0
H320 H 0.17752 0.36623 0.62049 0.0
H321 H 0.07706 0.229 0.66239 0.0
H322 H 0.03688 0.28365 0.62832 0.0
H323 H 0.08716 0.35294 0.60716 0.0
H324 H 0.21646 0.31032 0.6544 0.0
H325 H 0.04935 0.32467 0.73648 0.0
H326 H 0.01098 0.24963 0.75908 0.0
O327 O 0.14399 0.16278 0.671 0.0
C328 C 0.23634 0.13165 0.70901 0.0
C329 C 0.06228 0.19612 0.74075 0.0
C330 C 0.06425 0.28679 0.73292 0.0
N331 N 0.12432 0.2319 0.71099 0.0
C332 C 0.1033 0.19047 0.7233 0.0
C333 C 0.10515 0.27964 0.71554 0.0
C334 C 0.04274 0.24467 0.74559 0.0
C335 C 0.34867 0.21527 0.65141 0.0
N336 N 0.33145 0.16866 0.65959 0.0
C337 C 0.39755 0.23199 0.65834 0.0
C338 C 0.42881 0.20066 0.67378 0.0
C339 C 0.41091 0.1532 0.6821 0.0
C340 C 0.36181 0.13778 0.67481 0.0
C341 C 0.34774 0.03179 0.61267 0.0
C342 C 0.26467 0.03792 0.64646 0.0
C343 C 0.32915 0.07892 0.62125 0.0
N344 N 0.28829 0.08151 0.63805 0.0
C345 C 0.28227 0.99013 0.63834 0.0
C346 C 0.32412 0.98715 0.62135 0.0
C347 C 0.15051 0.1308 0.65221 0.0
C348 C 0.15516 0.3363 0.62965 0.0
C349 C 0.0993 0.25896 0.65324 0.0
C350 C 0.07627 0.28988 0.63399 0.0
C351 C 0.10448 0.32877 0.62214 0.0
N352 N 0.149 0.26668 0.66057 0.0
C353 C 0.17692 0.30469 0.64898 0.0
Co354 Co 0.36873 0.75127 0.15618 0.0
Co355 Co 0.29683 0.66815 0.19511 0.0
O356 O 0.30354 0.72544 0.17009 0.0
C357 C 0.30985 0.72251 0.10853 0.0
O358 O 0.29535 0.68218 0.122 0.0
C359 C 0.22621 0.75064 0.21537 0.0
O360 O 0.25137 0.78544 0.20201 0.0
O361 O 0.35147 0.69697 0.21883 0.0
O362 O 0.40007 0.74629 0.1923 0.0
H363 H 0.36349 0.527 0.25339 0.0
H364 H 0.27495 0.80993 0.14345 0.0
O365 O 0.33926 0.75537 0.11922 0.0
H366 H 0.38312 0.92726 0.19554 0.0
H367 H 0.47865 0.86608 0.09997 0.0
H368 H 0.47774 0.72559 0.16531 0.0
H369 H 0.41268 0.84016 0.1853 0.0
H370 H 0.39735 0.8326 0.11744 0.0
O371 O 0.24184 0.7046 0.21581 0.0
H372 H 0.37027 0.59848 0.22165 0.0
H373 H 0.20904 0.61591 0.22158 0.0
H374 H 0.55984 0.75838 0.14866 0.0
H375 H 0.24422 0.897 0.15286 0.0
H376 H 0.56066 0.82911 0.11571 0.0
H377 H 0.29836 0.95624 0.17922 0.0
O378 O 0.39356 0.68127 0.14818 0.0
H379 H 0.14 0.67386 0.13702 0.0
H380 H 0.2774 0.56473 0.17269 0.0
H381 H 0.21312 0.52767 0.14248 0.0
H382 H 0.14367 0.58231 0.12449 0.0
H383 H 0.20537 0.70952 0.16694 0.0
H384 H 0.20062 0.54499 0.25351 0.0
H385 H 0.27819 0.49987 0.26957 0.0
O386 O 0.34951 0.62895 0.17522 0.0
C387 C 0.39101 0.7245 0.21451 0.0
C388 C 0.3294 0.54632 0.24652 0.0
C389 C 0.238 0.55647 0.24661 0.0
N390 N 0.29016 0.61142 0.21975 0.0
C391 C 0.33299 0.58679 0.22851 0.0
C392 C 0.24306 0.59677 0.22861 0.0
C393 C 0.28154 0.53115 0.25561 0.0
C394 C 0.29898 0.83569 0.15465 0.0
N395 N 0.34552 0.81995 0.16384 0.0
C396 C 0.28126 0.88486 0.16005 0.0
C397 C 0.31161 0.91804 0.17488 0.0
C398 C 0.35914 0.90177 0.18408 0.0
C399 C 0.37556 0.85231 0.17834 0.0
C400 C 0.47879 0.8353 0.11434 0.0
C401 C 0.47774 0.75658 0.1511 0.0
C402 C 0.43288 0.81608 0.12424 0.0
N403 N 0.43279 0.77739 0.1425 0.0
C404 C 0.52437 0.77489 0.14168 0.0
C405 C 0.52479 0.81455 0.12319 0.0
C406 C 0.38332 0.6374 0.15762 0.0
C407 C 0.16985 0.64956 0.1449 0.0
C408 C 0.24729 0.58881 0.16499 0.0
C409 C 0.21097 0.56757 0.14789 0.0
C410 C 0.172 0.59823 0.13782 0.0
N411 N 0.24481 0.63915 0.17198 0.0
C412 C 0.20681 0.66948 0.16206 0.0
Co413 Co 0.7554 0.8572 0.64581 0.0
Co414 Co 0.83624 0.82254 0.69721 0.0
O415 O 0.78879 0.80517 0.66808 0.0
C416 C 0.80312 0.79093 0.60526 0.0
O417 O 0.84363 0.78841 0.62062 0.0
C418 C 0.77539 0.73102 0.71757 0.0
O419 O 0.74152 0.73501 0.69842 0.0
O420 O 0.78502 0.86959 0.71377 0.0
O421 O 0.74706 0.90261 0.67748 0.0
H422 H 0.93009 0.94241 0.75823 0.0
H423 H 0.7167 0.75132 0.64281 0.0
O424 O 0.76337 0.81437 0.61307 0.0
H425 H 0.57145 0.85387 0.67472 0.0
H426 H 0.63731 0.91955 0.5735 0.0
H427 H 0.76194 0.96996 0.64235 0.0
H428 H 0.654 0.89455 0.6646 0.0
H429 H 0.67836 0.85464 0.60193 0.0
O430 O 0.8115 0.76354 0.71967 0.0
H431 H 0.87042 0.91935 0.72223 0.0
H432 H 0.90396 0.7623 0.73348 0.0
H433 H 0.72128 0.03618 0.61458 0.0
H434 H 0.63457 0.70904 0.65229 0.0
H435 H 0.65854 0.0111 0.57981 0.0
H436 H 0.5613 0.76042 0.66851 0.0
O437 O 0.82211 0.89003 0.63773 0.0
H438 H 0.89835 0.66135 0.65338 0.0
H439 H 0.94639 0.8336 0.68377 0.0
H440 H 0.01091 0.77906 0.66237 0.0
H441 H 0.98714 0.69213 0.64712 0.0
H442 H 0.83487 0.71734 0.67444 0.0
H443 H 0.96349 0.7836 0.76989 0.0
H444 H 0.97707 0.87425 0.78241 0.0
O445 O 0.86377 0.88117 0.67651 0.0
C446 C 0.75726 0.90334 0.70235 0.0
C447 C 0.92443 0.90276 0.75301 0.0
C448 C 0.94311 0.81364 0.75957 0.0
N449 N 0.88336 0.83952 0.72582 0.0
C450 C 0.89068 0.88946 0.73261 0.0
C451 C 0.90909 0.80179 0.73904 0.0
C452 C 0.95076 0.86451 0.76657 0.0
C453 C 0.68486 0.77394 0.64969 0.0
N454 N 0.69023 0.82527 0.65335 0.0
C455 C 0.63851 0.74978 0.6551 0.0
C456 C 0.59744 0.77862 0.66423 0.0
C457 C 0.60314 0.83103 0.66777 0.0
C458 C 0.65009 0.85384 0.66219 0.0
C459 C 0.6645 0.93097 0.58861 0.0
C460 C 0.73436 0.95877 0.62741 0.0
C461 C 0.68796 0.89437 0.60474 0.0
N462 N 0.72227 0.90852 0.62391 0.0
C463 C 0.71159 0.99643 0.61169 0.0
C464 C 0.67642 0.98233 0.59217 0.0
C465 C 0.85874 0.90064 0.65344 0.0
C466 C 0.90929 0.69899 0.66014 0.0
C467 C 0.93563 0.79583 0.6772 0.0
C468 C 0.97241 0.7651 0.66511 0.0
C469 C 0.95906 0.71633 0.65657 0.0
N470 N 0.88693 0.77844 0.68086 0.0
C471 C 0.87353 0.73078 0.67234 0.0
H472 H 0.08427 0.06906 0.31867 0.0
H473 H 0.09493 0.10827 0.40236 0.0
H474 H 0.03928 0.03473 0.41348 0.0
H475 H 0.95273 0.03616 0.31986 0.0
H476 H 0.95921 0.9855 0.29587 0.0
H477 H 1.00227 0.03897 0.29506 0.0
H478 H 0.07946 0.97739 0.29853 0.0
H479 H 0.03662 0.92368 0.29936 0.0
H480 H 0.08268 0.93246 0.32568 0.0
H481 H 0.98302 0.95473 0.41497 0.0
H482 H 0.92439 0.88199 0.40615 0.0
H483 H 0.94804 0.90124 0.32139 0.0
C484 C 0.0754 0.06192 0.33937 0.0
C485 C 0.0943 0.09383 0.35971 0.0
C486 C 0.08082 0.08402 0.38651 0.0
C487 C 0.04951 0.0423 0.393 0.0
C488 C 0.03156 0.01143 0.37238 0.0
C489 C 0.0436 0.0213 0.34608 0.0
C490 C 0.01726 0.98466 0.32738 0.0
C491 C 0.9807 0.01302 0.30844 0.0
C492 C 0.05634 0.95265 0.31183 0.0
C493 C 0.98843 0.95247 0.34722 0.0
C494 C 0.99757 0.96777 0.37312 0.0
C495 C 0.97537 0.94269 0.39475 0.0
C496 C 0.94239 0.90146 0.38963 0.0
C497 C 0.93143 0.88683 0.36314 0.0
C498 C 0.95516 0.91238 0.34182 0.0
H499 H 0.43109 0.60286 0.82594 0.0
H500 H 0.38659 0.60299 0.9091 0.0
H501 H 0.45928 0.54567 0.91958 0.0
H502 H 0.46297 0.47215 0.82311 0.0
H503 H 0.51512 0.48141 0.80028 0.0
H504 H 0.46208 0.52502 0.80014 0.0
H505 H 0.52416 0.60079 0.80744 0.0
H506 H 0.57741 0.55731 0.80763 0.0
H507 H 0.5675 0.59971 0.83537 0.0
H508 H 0.53792 0.48664 0.92027 0.0
H509 H 0.60907 0.42684 0.91032 0.0
H510 H 0.59671 0.46542 0.82661 0.0
C511 C 0.43681 0.59149 0.84645 0.0
C512 C 0.40349 0.60781 0.86675 0.0
C513 C 0.41182 0.59101 0.89324 0.0
C514 C 0.45308 0.55867 0.89938 0.0
C515 C 0.4852 0.54327 0.87877 0.0
C516 C 0.47705 0.55893 0.8528 0.0
C517 C 0.51458 0.53489 0.83384 0.0
C518 C 0.48703 0.50138 0.81314 0.0
C519 C 0.54789 0.57561 0.82029 0.0
C520 C 0.54525 0.50305 0.85313 0.0
C521 C 0.52843 0.50858 0.87901 0.0
C522 C 0.55131 0.48208 0.90005 0.0
C523 C 0.59172 0.44843 0.89429 0.0
C524 C 0.60792 0.44126 0.8677 0.0
C525 C 0.58474 0.4696 0.84709 0.0
H526 H 0.62292 0.45636 0.16311 0.0
H527 H 0.52753 0.3373 0.12926 0.0
H528 H 0.45946 0.40055 0.1212 0.0
H529 H 0.52869 0.51745 0.19801 0.0
H530 H 0.55185 0.5813 0.19244 0.0
H531 H 0.59561 0.52847 0.19205 0.0
H532 H 0.62546 0.55403 0.14473 0.0
H533 H 0.58189 0.60727 0.14501 0.0
H534 H 0.57904 0.56118 0.11843 0.0
H535 H 0.39723 0.47302 0.12389 0.0
H536 H 0.34797 0.55141 0.13389 0.0
H537 H 0.48531 0.62414 0.1633 0.0
C538 C 0.58829 0.44366 0.15336 0.0
C539 C 0.58069 0.39177 0.14679 0.0
C540 C 0.53447 0.37685 0.13433 0.0
C541 C 0.49553 0.41251 0.12967 0.0
C542 C 0.50377 0.46305 0.13716 0.0
C543 C 0.54934 0.47877 0.14835 0.0
C544 C 0.54741 0.53441 0.15634 0.0
C545 C 0.5564 0.54074 0.18649 0.0
C546 C 0.58573 0.56609 0.14015 0.0
C547 C 0.493 0.54717 0.14871 0.0
C548 C 0.46844 0.5055 0.13764 0.0
C549 C 0.41639 0.50633 0.13178 0.0
C550 C 0.38874 0.55075 0.13754 0.0
C551 C 0.41345 0.59368 0.14864 0.0
C552 C 0.46623 0.59219 0.15391 0.0
H553 H 0.07147 0.10479 0.68425 0.0
H554 H 0.13173 0.08082 0.60489 0.0
H555 H 0.0583 0.02428 0.59456 0.0
H556 H 0.03348 0.97765 0.69458 0.0
H557 H 0.97784 0.9944 0.7137 0.0
H558 H 0.03236 0.03609 0.71348 0.0
H559 H 0.97497 0.11084 0.69763 0.0
H560 H 0.92026 0.06922 0.69772 0.0
H561 H 0.93697 0.10359 0.66789 0.0
H562 H 0.97763 0.96841 0.59384 0.0
H563 H 0.90375 0.91242 0.60441 0.0
H564 H 0.90177 0.97217 0.68481 0.0
C565 C 0.06899 0.0884 0.66452 0.0
C566 C 0.10689 0.0977 0.64524 0.0
C567 C 0.10287 0.07431 0.61991 0.0
C568 C 0.06123 0.04242 0.61385 0.0
C569 C 0.02446 0.03409 0.63346 0.0
C570 C 0.02848 0.05612 0.65838 0.0
C571 C 0.98668 0.03836 0.67681 0.0
C572 C 0.00893 0.00993 0.70106 0.0
C573 C 0.95271 0.08318 0.68551 0.0
C574 C 0.95842 1.00259 0.65847 0.0
C575 C 0.98004 1.00098 0.6334 0.0
C576 C 0.96041 0.96952 0.61339 0.0
C577 C 0.91842 0.93813 0.61947 0.0
C578 C 0.89755 0.93806 0.64541 0.0
C579 C 0.91732 0.97135 0.66486 0.0
H580 H 0.16424 0.25553 0.44759 0.0
H581 H 0.29956 0.17073 0.42514 0.0
H582 H 0.32605 0.16663 0.47237 0.0
H583 H 0.21997 0.3266 0.50442 0.0
H584 H 0.16306 0.32001 0.52422 0.0
H585 H 0.1584 0.32281 0.48843 0.0
H586 H 0.10939 0.23701 0.48825 0.0
H587 H 0.11394 0.2339 0.52396 0.0
H588 H 0.13763 0.18195 0.50401 0.0
H589 H 0.33492 0.16656 0.52189 0.0
H590 H 0.3229 0.16476 0.57048 0.0
H591 H 0.17915 0.24556 0.56135 0.0
C592 C 0.2001 0.2373 0.45261 0.0
C593 C 0.23037 0.2141 0.43277 0.0
C594 C 0.27613 0.18904 0.44009 0.0
C595 C 0.29154 0.18672 0.46682 0.0
C596 C 0.26046 0.20918 0.48601 0.0
C597 C 0.21552 0.23373 0.4793 0.0
C598 C 0.18648 0.24994 0.50398 0.0
C599 C 0.18172 0.30832 0.50534 0.0
C600 C 0.13376 0.22414 0.50511 0.0
C601 C 0.22167 0.22986 0.5256 0.0
C602 C 0.26453 0.20732 0.51476 0.0
C603 C 0.3017 0.18441 0.53062 0.0
C604 C 0.29448 0.18361 0.55825 0.0
C605 C 0.25004 0.20499 0.56982 0.0
C606 C 0.21366 0.22914 0.55319 0.0
H607 H 0.34909 0.75881 0.95258 0.0
H608 H 0.1927 0.70692 0.94288 0.0
H609 H 0.18122 0.7086 0.9914 0.0
H610 H 0.37821 0.6863 1.00804 0.0
H611 H 0.41606 0.73377 0.02493 0.0
H612 H 0.41078 0.73496 0.98922 0.0
H613 H 0.37782 0.82806 0.99096 0.0
H614 H 0.38345 0.82734 0.02674 0.0
H615 H 0.32335 0.84331 0.01131 0.0
H616 H 0.19043 0.70223 0.04058 0.0
H617 H 0.21745 0.69741 0.08772 0.0
H618 H 0.36538 0.75921 0.06657 0.0
C619 C 0.31202 0.74917 0.96061 0.0
C620 C 0.2719 0.73258 0.9438 0.0
C621 C 0.22414 0.71968 0.95521 0.0
C622 C 0.21714 0.72054 0.98283 0.0
C623 C 0.25791 0.73526 0.99887 0.0
C624 C 0.30414 0.75034 0.98824 0.0
C625 C 0.34248 0.7619 0.01012 0.0
C626 C 0.38965 0.72715 1.00794 0.0
C627 C 0.35766 0.81853 0.00976 0.0
C628 C 0.3111 0.74919 0.03458 0.0
C629 C 0.26241 0.73386 0.02759 0.0
C630 C 0.22796 0.71542 0.0464 0.0
C631 C 0.24366 0.71256 0.07306 0.0
C632 C 0.29304 0.72874 0.0807 0.0
C633 C 0.32692 0.7479 0.06126 0.0
H634 H 0.75626 0.83278 0.56193 0.0
H635 H 0.85768 0.71017 0.58579 0.0
H636 H 0.86583 0.68379 0.5386 0.0
H637 H 0.69325 0.76856 0.50581 0.0
H638 H 0.69271 0.82541 0.4856 0.0
H639 H 0.68973 0.83042 0.52135 0.0
H640 H 0.76902 0.88937 0.52109 0.0
H641 H 0.77231 0.88458 0.4854 0.0
H642 H 0.82696 0.86774 0.50543 0.0
H643 H 0.86527 0.67307 0.48884 0.0
H644 H 0.86377 0.6834 0.44013 0.0
H645 H 0.76764 0.81739 0.44842 0.0
C646 C 0.77923 0.79962 0.55726 0.0
C647 C 0.80563 0.77277 0.57747 0.0
C648 C 0.83679 0.7308 0.57056 0.0
C649 C 0.84145 0.71552 0.54387 0.0
C650 C 0.81529 0.74315 0.52437 0.0
C651 C 0.78523 0.78467 0.53072 0.0
C652 C 0.76536 0.81105 0.50588 0.0
C653 C 0.70678 0.8087 0.50459 0.0
C654 C 0.78458 0.86645 0.50437 0.0
C655 C 0.78935 0.77819 0.48449 0.0
C656 C 0.81717 0.73868 0.49561 0.0
C657 C 0.84351 0.70377 0.47993 0.0
C658 C 0.84228 0.70995 0.45221 0.0
C659 C 0.81561 0.75128 0.44035 0.0
C660 C 0.78826 0.78536 0.45681 0.0
H661 H 0.74885 0.33712 0.95358 0.0
H662 H 0.64487 0.21577 0.93116 0.0
H663 H 0.63774 0.19025 0.97855 0.0
H664 H 0.81288 0.27264 0.00905 0.0
H665 H 0.81518 0.32958 0.02911 0.0
H666 H 0.8166 0.33437 0.99332 0.0
H667 H 0.7382 0.39448 0.99441 0.0
H668 H 0.7365 0.38994 0.03014 0.0
H669 H 0.6807 0.37382 0.01085 0.0
H670 H 0.64039 0.17979 0.02845 0.0
H671 H 0.64478 0.19011 0.07715 0.0
H672 H 0.74226 0.32267 0.06723 0.0
C673 C 0.72542 0.30448 0.95859 0.0
C674 C 0.69807 0.27771 0.93872 0.0
C675 C 0.66644 0.23638 0.94611 0.0
C676 C 0.66236 0.22157 0.97292 0.0
C677 C 0.68958 0.24904 0.99207 0.0
C678 C 0.72003 0.29001 0.98526 0.0
C679 C 0.74142 0.3162 0.00977 0.0
C680 C 0.8 0.31298 0.01034 0.0
C681 C 0.72309 0.3719 0.01138 0.0
C682 C 0.71794 0.28383 0.03153 0.0
C683 C 0.68895 0.24474 0.02087 0.0
C684 C 0.66303 0.2102 0.037 0.0
C685 C 0.66594 0.21634 0.0647 0.0
C686 C 0.69387 0.25726 0.07609 0.0
C687 C 0.72069 0.29098 0.05917 0.0
H688 H 0.54891 0.20402 0.22032 0.0
H689 H 0.60631 0.34437 0.25504 0.0
H690 H 0.52626 0.35329 0.28057 0.0
H691 H 0.42542 0.24358 0.21043 0.0
H692 H 0.39508 0.18401 0.21886 0.0
H693 H 0.45913 0.18423 0.20604 0.0
H694 H 0.49205 0.13513 0.24724 0.0
H695 H 0.42787 0.13291 0.26 0.0
H696 H 0.47855 0.15913 0.2801 0.0
H697 H 0.43437 0.35242 0.29765 0.0
H698 H 0.34442 0.33534 0.30976 0.0
H699 H 0.34905 0.19445 0.26456 0.0
C700 C 0.54551 0.23592 0.23388 0.0
C701 C 0.58422 0.27354 0.23556 0.0
C702 C 0.57762 0.31483 0.25344 0.0
C703 C 0.53199 0.32042 0.26791 0.0
C704 C 0.49361 0.28398 0.26464 0.0
C705 C 0.50053 0.24184 0.24855 0.0
C706 C 0.45296 0.20898 0.2476 0.0
C707 C 0.43192 0.20501 0.21904 0.0
C708 C 0.4635 0.15589 0.25945 0.0
C709 C 0.41766 0.23967 0.26525 0.0
C710 C 0.4416 0.28294 0.27483 0.0
C711 C 0.41561 0.31825 0.29056 0.0
C712 C 0.36434 0.30845 0.29715 0.0
C713 C 0.33963 0.26351 0.28819 0.0
C714 C 0.36686 0.22899 0.2719 0.0
H715 H 0.30046 0.85365 0.764 0.0
H716 H 0.17629 0.87207 0.82011 0.0
H717 H 0.1644 0.96115 0.8049 0.0
H718 H 0.35289 0.97973 0.76888 0.0
H719 H 0.36654 0.98498 0.73383 0.0
H720 H 0.36632 0.92327 0.74965 0.0
H721 H 0.29931 0.89069 0.71558 0.0
H722 H 0.30024 0.952 0.69943 0.0
H723 H 0.24073 0.92578 0.71103 0.0
H724 H 0.16798 0.05019 0.78393 0.0
H725 H 0.17788 0.12554 0.75467 0.0
H726 H 0.29654 0.04624 0.71099 0.0
C727 C 0.27069 0.87639 0.77306 0.0
C728 C 0.2394 0.8559 0.79333 0.0
C729 C 0.20055 0.88681 0.80447 0.0
C730 C 0.1938 0.93763 0.79611 0.0
C731 C 0.22579 0.9569 0.77633 0.0
C732 C 0.26281 0.92681 0.76461 0.0
C733 C 0.29028 0.95553 0.74272 0.0
C734 C 0.34739 0.96121 0.74917 0.0
C735 C 0.28212 0.92945 0.71559 0.0
C736 C 0.26309 0.0065 0.74397 0.0
C737 C 0.22651 0.00697 0.76371 0.0
C738 C 0.19638 0.05004 0.76832 0.0
C739 C 0.20246 0.09289 0.75166 0.0
C740 C 0.23773 0.09204 0.73032 0.0
C741 C 0.26923 0.04852 0.72708 0.0
H742 H 0.66933 0.7995 0.26616 0.0
H743 H 0.66473 0.66459 0.31613 0.0
H744 H 0.57519 0.64926 0.30236 0.0
H745 H 0.54042 0.84178 0.27579 0.0
H746 H 0.53112 0.86081 0.24162 0.0
H747 H 0.59408 0.86236 0.25611 0.0
H748 H 0.62801 0.80383 0.2185 0.0
H749 H 0.56536 0.80293 0.20371 0.0
H750 H 0.59668 0.74384 0.21207 0.0
H751 H 0.48468 0.65026 0.28379 0.0
H752 H 0.40623 0.65933 0.25682 0.0
H753 H 0.47227 0.79065 0.21702 0.0
C754 C 0.64943 0.76671 0.27419 0.0
C755 C 0.67384 0.73335 0.29234 0.0
C756 C 0.64681 0.69051 0.30213 0.0
C757 C 0.59582 0.68175 0.29459 0.0
C758 C 0.57262 0.71575 0.27691 0.0
C759 C 0.59895 0.75677 0.2664 0.0
C760 C 0.56646 0.78568 0.24643 0.0
C761 C 0.5575 0.84093 0.25554 0.0
C762 C 0.59056 0.78394 0.21853 0.0
C763 C 0.51758 0.7548 0.24748 0.0
C764 C 0.52156 0.71507 0.26544 0.0
C765 C 0.48129 0.68117 0.2696 0.0
C766 C 0.43661 0.68687 0.25428 0.0
C767 C 0.43277 0.72566 0.23469 0.0
C768 C 0.4736 0.76068 0.23185 0.0
H769 H 0.78821 0.14051 0.8026 0.0
H770 H 0.67074 0.2149 0.75522 0.0
H771 H 0.6609 0.13724 0.72848 0.0
H772 H 0.84549 0.07124 0.74696 0.0
H773 H 0.85925 0.01511 0.76643 0.0
H774 H 0.85754 0.07678 0.7822 0.0
H775 H 0.79038 0.04289 0.81562 0.0
H776 H 0.79143 0.98137 0.79963 0.0
H777 H 0.73197 0.01525 0.80323 0.0
H778 H 0.662 0.05274 0.70702 0.0
H779 H 0.68041 0.96821 0.68862 0.0
H780 H 0.79719 0.94501 0.749 0.0
C781 C 0.76074 0.14058 0.78646 0.0
C782 C 0.72992 0.18405 0.78128 0.0
C783 C 0.6945 0.1823 0.7599 0.0
C784 C 0.68848 0.13819 0.74455 0.0
C785 C 0.71835 0.09581 0.75056 0.0
C786 C 0.75435 0.0966 0.77068 0.0
C787 C 0.78225 0.04569 0.77223 0.0
C788 C 0.83953 0.05264 0.76662 0.0
C789 C 0.77347 0.01978 0.79929 0.0
C790 C 0.75609 0.01643 0.74988 0.0
C791 C 0.7192 0.04628 0.73785 0.0
C792 C 0.69074 0.02893 0.71629 0.0
C793 C 0.70138 0.98048 0.70605 0.0
C794 C 0.74025 0.94942 0.71727 0.0
C795 C 0.76698 0.96733 0.74002 0.0
H796 H 0.03705 0.29371 0.30455 0.0
H797 H 0.11041 0.18387 0.25252 0.0
H798 H 0.03187 0.17875 0.22551 0.0
H799 H 0.91537 0.24028 0.3049 0.0
H800 H 0.88088 0.29974 0.30373 0.0
H801 H 0.94376 0.29747 0.31824 0.0
H802 H 0.97458 0.36808 0.28599 0.0
H803 H 0.91153 0.37132 0.27167 0.0
H804 H 0.96597 0.35993 0.25063 0.0
H805 H 0.94127 0.17676 0.20789 0.0
H806 H 0.85081 0.19066 0.19549 0.0
H807 H 0.83881 0.30844 0.25568 0.0
C808 C 0.03714 0.26942 0.28713 0.0
C809 C 0.08006 0.23869 0.28095 0.0
C810 C 0.07824 0.20754 0.2579 0.0
C811 C 0.03358 0.20422 0.24244 0.0
C812 C 0.99136 0.23333 0.24978 0.0
C813 C 0.99329 0.26657 0.27108 0.0
C814 C 0.94269 0.294 0.2746 0.0
C815 C 0.91931 0.28215 0.30199 0.0
C816 C 0.94909 0.35176 0.27047 0.0
C817 C 0.91164 0.27021 0.25229 0.0
C818 C 0.94023 0.23469 0.23848 0.0
C819 C 0.91887 0.20519 0.21822 0.0
C820 C 0.86737 0.21299 0.21147 0.0
C821 C 0.83804 0.2507 0.22455 0.0
C822 C 0.86058 0.27965 0.24522 0.0
H823 H 0.21087 0.34185 0.77519 0.0
H824 H 0.26321 0.36924 0.69455 0.0
H825 H 0.27778 0.46007 0.70559 0.0
H826 H 0.14255 0.45814 0.78217 0.0
H827 H 0.15896 0.46664 0.81676 0.0
H828 H 0.1554 0.40342 0.8029 0.0
H829 H 0.24821 0.38524 0.81827 0.0
H830 H 0.2517 0.44821 0.83245 0.0
H831 H 0.29858 0.42811 0.80845 0.0
H832 H 0.28598 0.54978 0.72609 0.0
H833 H 0.28857 0.62746 0.75426 0.0
H834 H 0.22629 0.54002 0.82007 0.0
C835 C 0.22615 0.36665 0.75991 0.0
C836 C 0.23631 0.34811 0.73404 0.0
C837 C 0.2554 0.38235 0.71457 0.0
C838 C 0.26367 0.43412 0.72063 0.0
C839 C 0.25234 0.45133 0.74622 0.0
C840 C 0.23409 0.41843 0.76554 0.0
C841 C 0.22363 0.44635 0.79132 0.0
C842 C 0.16675 0.44346 0.79871 0.0
C843 C 0.25756 0.42575 0.81395 0.0
C844 C 0.2388 0.50005 0.78356 0.0
C845 C 0.2555 0.50244 0.75755 0.0
C846 C 0.27272 0.54825 0.74646 0.0
C847 C 0.27379 0.59233 0.76256 0.0
C848 C 0.25747 0.59035 0.78943 0.0
C849 C 0.23896 0.54347 0.79965 0.0
H850 H 0.17387 0.69979 0.25445 0.0
H851 H 0.16035 0.82533 0.19856 0.0
H852 H 0.06987 0.8365 0.21132 0.0
H853 H 0.04981 0.64679 0.24525 0.0
H854 H 0.04041 0.63179 0.27992 0.0
H855 H 0.10397 0.63334 0.26633 0.0
H856 H 0.13157 0.69974 0.3019 0.0
H857 H 0.06848 0.69695 0.31589 0.0
H858 H 0.09483 0.75741 0.30578 0.0
H859 H 0.97866 0.8308 0.22897 0.0
H860 H 0.90011 0.81906 0.25544 0.0
H861 H 0.97564 0.70053 0.30131 0.0
C862 C 0.152 0.72995 0.24507 0.0
C863 C 0.1742 0.7617 0.2255 0.0
C864 C 0.14433 0.80083 0.21377 0.0
C865 C 0.09272 0.80712 0.22069 0.0
C866 C 0.07167 0.77439 0.23963 0.0
C867 C 0.10078 0.73734 0.25208 0.0
C868 C 0.06988 0.7087 0.2727 0.0
C869 C 0.06578 0.65178 0.26561 0.0
C870 C 0.09254 0.71618 0.30072 0.0
C871 C 0.01878 0.73526 0.26987 0.0
C872 C 0.02021 0.77249 0.25043 0.0
C873 C 0.97734 0.80202 0.24441 0.0
C874 C 0.93268 0.79489 0.25949 0.0
C875 C 0.93156 0.7593 0.28074 0.0
C876 C 0.97492 0.72813 0.28526 0.0
H877 H 0.70813 0.44592 0.76648 0.0
H878 H 0.82915 0.46522 0.82485 0.0
H879 H 0.84838 0.54965 0.80646 0.0
H880 H 0.77108 0.5163 0.71146 0.0
H881 H 0.71224 0.54504 0.70037 0.0
H882 H 0.71144 0.48318 0.71605 0.0
H883 H 0.64668 0.51669 0.75071 0.0
H884 H 0.64783 0.57888 0.73545 0.0
H885 H 0.66249 0.572 0.77036 0.0
H886 H 0.84955 0.6348 0.78557 0.0
H887 H 0.83882 0.71362 0.75976 0.0
H888 H 0.71666 0.64275 0.71427 0.0
C889 C 0.73943 0.46732 0.77498 0.0
C890 C 0.76709 0.44842 0.79722 0.0
C891 C 0.80745 0.47829 0.80782 0.0
C892 C 0.81858 0.52665 0.79758 0.0
C893 C 0.78909 0.54511 0.77663 0.0
C894 C 0.7508 0.51633 0.76512 0.0
C895 C 0.7235 0.54682 0.74356 0.0
C896 C 0.72997 0.52132 0.71624 0.0
C897 C 0.66677 0.55402 0.75044 0.0
C898 C 0.75234 0.59717 0.745 0.0
C899 C 0.78986 0.59505 0.76433 0.0
C900 C 0.82078 0.63676 0.7701 0.0
C901 C 0.81424 0.68155 0.7553 0.0
C902 C 0.7772 0.68463 0.73472 0.0
C903 C 0.74537 0.64182 0.7298 0.0
loop_
_geom_bond_atom_site_label_1
_geom_bond_atom_site_label_2
_geom_bond_distance
_geom_bond_site_symmetry_2
_ccdc_geom_bond_type
Co0 O2 2.143 . S
Co0 O8 2.074 . S
Co0 O11 2.093 . S
Co0 O24 2.097 . S
Co0 N41 2.151 . S
Co0 N49 2.214 . S
Co1 O2 2.160 . S
Co1 O7 2.058 . S
Co1 O17 2.057 . S
Co1 O32 2.037 . S
Co1 N36 2.145 . S
Co1 N57 2.257 . S
O2 Co0 2.143 . S
O2 Co1 2.160 . S
C3 O4 1.278 . S
C3 O11 1.224 . S
O4 C3 1.278 . S
C5 O6 1.245 . S
C5 O17 1.232 . S
O6 C5 1.245 . S
O7 Co1 2.058 . S
O7 C33 1.269 . S
O8 Co0 2.074 . S
O8 C33 1.257 . S
H9 C34 0.930 . S
H10 C40 0.930 . S
O11 Co0 2.093 . S
O11 C3 1.224 . S
H12 C44 0.929 . S
H13 C46 0.930 . S
H14 C47 0.930 . S
H15 C45 0.929 . S
H16 C48 0.928 . S
O17 Co1 2.057 . S
O17 C5 1.232 . S
H18 C37 0.929 . S
H19 C38 0.929 . S
H20 C50 0.931 . S
H21 C42 0.929 . S
H22 C51 0.930 . S
H23 C43 0.931 . S
O24 Co0 2.097 . S
O24 C52 1.214 . S
H25 C53 0.929 . S
H26 C54 0.929 . S
H27 C55 0.930 . S
H28 C56 0.929 . S
H29 C58 0.930 . S
H30 C35 0.930 . S
H31 C39 0.930 . S
O32 Co1 2.037 . S
O32 C52 1.234 . S
C33 O7 1.269 . S
C33 O8 1.257 . S
C34 H9 0.930 . S
C34 C37 1.388 . S
C34 C39 1.418 . S
C35 H30 0.930 . S
C35 C38 1.404 . S
C35 C39 1.353 . S
N36 Co1 2.145 . S
N36 C37 1.397 . S
N36 C38 1.334 . S
C37 H18 0.929 . S
C37 C34 1.388 . S
C37 N36 1.397 . S
C38 H19 0.929 . S
C38 C35 1.404 . S
C38 N36 1.334 . S
C39 H31 0.930 . S
C39 C34 1.418 . S
C39 C35 1.353 . S
C40 H10 0.930 . S
C40 N41 1.330 . S
C40 C42 1.446 . S
N41 Co0 2.151 . S
N41 C40 1.330 . S
N41 C45 1.418 . S
C42 H21 0.929 . S
C42 C40 1.446 . S
C42 C43 1.332 . S
C43 H23 0.931 . S
C43 C42 1.332 . S
C43 C44 1.267 . S
C44 H12 0.929 . S
C44 C43 1.267 . S
C44 C45 1.251 . S
C45 H15 0.929 . S
C45 N41 1.418 . S
C45 C44 1.251 . S
C46 H13 0.930 . S
C46 C48 1.406 1_655 S
C46 C51 1.261 . S
C47 H14 0.930 . S
C47 N49 1.325 1_655 S
C47 C50 1.357 . S
C48 H16 0.928 . S
C48 C46 1.406 1_455 S
C48 N49 1.261 . S
N49 Co0 2.214 . S
N49 C47 1.325 1_455 S
N49 C48 1.261 . S
C50 H20 0.931 . S
C50 C47 1.357 . S
C50 C51 1.312 . S
C51 H22 0.930 . S
C51 C46 1.261 . S
C51 C50 1.312 . S
C52 O24 1.214 . S
C52 O32 1.234 . S
C53 H25 0.929 . S
C53 C56 1.391 . S
C53 C58 1.391 . S
C54 H26 0.929 . S
C54 C55 1.390 . S
C54 N57 1.391 . S
C55 H27 0.930 . S
C55 C54 1.390 . S
C55 C56 1.392 . S
C56 H28 0.929 . S
C56 C53 1.391 . S
C56 C55 1.392 . S
N57 Co1 2.257 . S
N57 C54 1.391 . S
N57 C58 1.388 . S
C58 H29 0.930 . S
C58 C53 1.391 . S
C58 N57 1.388 . S
Co59 O61 2.143 . S
Co59 O67 2.074 . S
Co59 O70 2.093 . S
Co59 O83 2.097 . S
Co59 N100 2.151 . S
Co59 N108 2.214 . S
Co60 O61 2.160 . S
Co60 O66 2.058 . S
Co60 O76 2.057 . S
Co60 O91 2.037 . S
Co60 N95 2.145 . S
Co60 N116 2.257 . S
O61 Co59 2.143 . S
O61 Co60 2.160 . S
C62 O63 1.278 . S
C62 O70 1.224 . S
O63 C62 1.278 . S
C64 O65 1.245 . S
C64 O76 1.232 . S
O65 C64 1.245 . S
O66 Co60 2.058 . S
O66 C92 1.269 . S
O67 Co59 2.074 . S
O67 C92 1.257 . S
H68 C93 0.930 . S
H69 C99 0.930 . S
O70 Co59 2.093 . S
O70 C62 1.224 . S
H71 C103 0.929 . S
H72 C105 0.930 . S
H73 C106 0.930 . S
H74 C104 0.929 . S
H75 C107 0.928 . S
O76 Co60 2.057 . S
O76 C64 1.232 . S
H77 C96 0.929 . S
H78 C97 0.929 . S
H79 C109 0.931 . S
H80 C101 0.929 . S
H81 C110 0.930 . S
H82 C102 0.931 . S
O83 Co59 2.097 . S
O83 C111 1.214 . S
H84 C112 0.929 . S
H85 C113 0.929 . S
H86 C114 0.930 . S
H87 C115 0.929 . S
H88 C117 0.930 . S
H89 C94 0.930 . S
H90 C98 0.930 . S
O91 Co60 2.037 . S
O91 C111 1.234 . S
C92 O66 1.269 . S
C92 O67 1.257 . S
C93 H68 0.930 . S
C93 C96 1.388 . S
C93 C98 1.418 . S
C94 H89 0.930 . S
C94 C97 1.404 . S
C94 C98 1.353 . S
N95 Co60 2.145 . S
N95 C96 1.397 . S
N95 C97 1.334 . S
C96 H77 0.929 . S
C96 C93 1.388 . S
C96 N95 1.397 . S
C97 H78 0.929 . S
C97 C94 1.404 . S
C97 N95 1.334 . S
C98 H90 0.930 . S
C98 C93 1.418 . S
C98 C94 1.353 . S
C99 H69 0.930 . S
C99 N100 1.330 . S
C99 C101 1.446 . S
N100 Co59 2.151 . S
N100 C99 1.330 . S
N100 C104 1.418 . S
C101 H80 0.929 . S
C101 C99 1.446 . S
C101 C102 1.332 . S
C102 H82 0.931 . S
C102 C101 1.332 . S
C102 C103 1.267 . S
C103 H71 0.929 . S
C103 C102 1.267 . S
C103 C104 1.251 . S
C104 H74 0.929 . S
C104 N100 1.418 . S
C104 C103 1.251 . S
C105 H72 0.930 . S
C105 C107 1.406 . S
C105 C110 1.261 . S
C106 H73 0.930 . S
C106 N108 1.325 . S
C106 C109 1.357 . S
C107 H75 0.928 . S
C107 C105 1.406 . S
C107 N108 1.261 . S
N108 Co59 2.214 . S
N108 C106 1.325 . S
N108 C107 1.261 . S
C109 H79 0.931 . S
C109 C106 1.357 . S
C109 C110 1.312 . S
C110 H81 0.930 . S
C110 C105 1.261 . S
C110 C109 1.312 . S
C111 O83 1.214 . S
C111 O91 1.234 . S
C112 H84 0.929 . S
C112 C115 1.391 . S
C112 C117 1.391 . S
C113 H85 0.929 . S
C113 C114 1.390 . S
C113 N116 1.391 . S
C114 H86 0.930 . S
C114 C113 1.390 . S
C114 C115 1.392 . S
C115 H87 0.929 . S
C115 C112 1.391 . S
C115 C114 1.392 . S
N116 Co60 2.257 . S
N116 C113 1.391 . S
N116 C117 1.388 . S
C117 H88 0.930 . S
C117 C112 1.391 . S
C117 N116 1.388 . S
Co118 O120 2.143 . S
Co118 O126 2.074 . S
Co118 O129 2.093 . S
Co118 O142 2.097 . S
Co118 N159 2.151 . S
Co118 N167 2.214 . S
Co119 O120 2.160 . S
Co119 O125 2.058 . S
Co119 O135 2.057 . S
Co119 O150 2.037 . S
Co119 N154 2.145 . S
Co119 N175 2.257 . S
O120 Co118 2.143 . S
O120 Co119 2.160 . S
C121 O122 1.278 . S
C121 O129 1.224 . S
O122 C121 1.278 . S
C123 O124 1.245 . S
C123 O135 1.232 . S
O124 C123 1.245 . S
O125 Co119 2.058 . S
O125 C151 1.269 . S
O126 Co118 2.074 . S
O126 C151 1.257 . S
H127 C152 0.930 . S
H128 C158 0.930 . S
O129 Co118 2.093 . S
O129 C121 1.224 . S
H130 C162 0.929 . S
H131 C164 0.930 . S
H132 C165 0.930 . S
H133 C163 0.929 . S
H134 C166 0.928 . S
O135 Co119 2.057 . S
O135 C123 1.232 . S
H136 C155 0.929 . S
H137 C156 0.929 . S
H138 C168 0.931 . S
H139 C160 0.929 . S
H140 C169 0.930 . S
H141 C161 0.931 . S
O142 Co118 2.097 . S
O142 C170 1.214 . S
H143 C171 0.929 . S
H144 C172 0.929 . S
H145 C173 0.930 . S
H146 C174 0.929 . S
H147 C176 0.930 . S
H148 C153 0.930 . S
H149 C157 0.930 . S
O150 Co119 2.037 . S
O150 C170 1.234 . S
C151 O125 1.269 . S
C151 O126 1.257 . S
C152 H127 0.930 . S
C152 C155 1.388 . S
C152 C157 1.418 . S
C153 H148 0.930 . S
C153 C156 1.404 . S
C153 C157 1.353 . S
N154 Co119 2.145 . S
N154 C155 1.397 . S
N154 C156 1.334 . S
C155 H136 0.929 . S
C155 C152 1.388 . S
C155 N154 1.397 . S
C156 H137 0.929 . S
C156 C153 1.404 . S
C156 N154 1.334 . S
C157 H149 0.930 . S
C157 C152 1.418 . S
C157 C153 1.353 . S
C158 H128 0.930 . S
C158 N159 1.330 . S
C158 C160 1.446 . S
N159 Co118 2.151 . S
N159 C158 1.330 . S
N159 C163 1.418 . S
C160 H139 0.929 . S
C160 C158 1.446 . S
C160 C161 1.332 . S
C161 H141 0.931 . S
C161 C160 1.332 . S
C161 C162 1.267 . S
C162 H130 0.929 . S
C162 C161 1.267 . S
C162 C163 1.251 . S
C163 H133 0.929 . S
C163 N159 1.418 . S
C163 C162 1.251 . S
C164 H131 0.930 . S
C164 C166 1.406 1_455 S
C164 C169 1.261 . S
C165 H132 0.930 . S
C165 N167 1.325 1_455 S
C165 C168 1.357 . S
C166 H134 0.928 . S
C166 C164 1.406 1_655 S
C166 N167 1.261 . S
N167 Co118 2.214 . S
N167 C165 1.325 1_655 S
N167 C166 1.261 . S
C168 H138 0.931 . S
C168 C165 1.357 . S
C168 C169 1.312 . S
C169 H140 0.930 . S
C169 C164 1.261 . S
C169 C168 1.312 . S
C170 O142 1.214 . S
C170 O150 1.234 . S
C171 H143 0.929 . S
C171 C174 1.391 . S
C171 C176 1.391 . S
C172 H144 0.929 . S
C172 C173 1.390 . S
C172 N175 1.391 . S
C173 H145 0.930 . S
C173 C172 1.390 . S
C173 C174 1.392 . S
C174 H146 0.929 . S
C174 C171 1.391 . S
C174 C173 1.392 . S
N175 Co119 2.257 . S
N175 C172 1.391 . S
N175 C176 1.388 . S
C176 H147 0.930 . S
C176 C171 1.391 . S
C176 N175 1.388 . S
Co177 O179 2.143 . S
Co177 O185 2.074 . S
Co177 O188 2.093 . S
Co177 O201 2.097 . S
Co177 N218 2.151 . S
Co177 N226 2.214 . S
Co178 O179 2.160 . S
Co178 O184 2.058 . S
Co178 O194 2.057 . S
Co178 O209 2.037 . S
Co178 N213 2.145 . S
Co178 N234 2.257 . S
O179 Co177 2.143 . S
O179 Co178 2.160 . S
C180 O181 1.278 . S
C180 O188 1.224 . S
O181 C180 1.278 . S
C182 O183 1.245 . S
C182 O194 1.232 . S
O183 C182 1.245 . S
O184 Co178 2.058 . S
O184 C210 1.269 . S
O185 Co177 2.074 . S
O185 C210 1.257 . S
H186 C211 0.930 . S
H187 C217 0.930 . S
O188 Co177 2.093 . S
O188 C180 1.224 . S
H189 C221 0.929 . S
H190 C223 0.930 . S
H191 C224 0.930 . S
H192 C222 0.929 . S
H193 C225 0.928 . S
O194 Co178 2.057 . S
O194 C182 1.232 . S
H195 C214 0.929 . S
H196 C215 0.929 . S
H197 C227 0.931 . S
H198 C219 0.929 . S
H199 C228 0.930 . S
H200 C220 0.931 . S
O201 Co177 2.097 . S
O201 C229 1.214 . S
H202 C230 0.929 . S
H203 C231 0.929 . S
H204 C232 0.930 . S
H205 C233 0.929 . S
H206 C235 0.930 . S
H207 C212 0.930 . S
H208 C216 0.930 . S
O209 Co178 2.037 . S
O209 C229 1.234 . S
C210 O184 1.269 . S
C210 O185 1.257 . S
C211 H186 0.930 . S
C211 C214 1.388 . S
C211 C216 1.418 . S
C212 H207 0.930 . S
C212 C215 1.404 . S
C212 C216 1.353 . S
N213 Co178 2.145 . S
N213 C214 1.397 . S
N213 C215 1.334 . S
C214 H195 0.929 . S
C214 C211 1.388 . S
C214 N213 1.397 . S
C215 H196 0.929 . S
C215 C212 1.404 . S
C215 N213 1.334 . S
C216 H208 0.930 . S
C216 C211 1.418 . S
C216 C212 1.353 . S
C217 H187 0.930 . S
C217 N218 1.330 . S
C217 C219 1.446 . S
N218 Co177 2.151 . S
N218 C217 1.330 . S
N218 C222 1.418 . S
C219 H198 0.929 . S
C219 C217 1.446 . S
C219 C220 1.332 . S
C220 H200 0.931 . S
C220 C219 1.332 . S
C220 C221 1.267 . S
C221 H189 0.929 . S
C221 C220 1.267 . S
C221 C222 1.251 . S
C222 H192 0.929 . S
C222 N218 1.418 . S
C222 C221 1.251 . S
C223 H190 0.930 . S
C223 C225 1.406 . S
C223 C228 1.261 . S
C224 H191 0.930 . S
C224 N226 1.325 . S
C224 C227 1.357 . S
C225 H193 0.928 . S
C225 C223 1.406 . S
C225 N226 1.261 . S
N226 Co177 2.214 . S
N226 C224 1.325 . S
N226 C225 1.261 . S
C227 H197 0.931 . S
C227 C224 1.357 . S
C227 C228 1.312 . S
C228 H199 0.930 . S
C228 C223 1.261 . S
C228 C227 1.312 . S
C229 O201 1.214 . S
C229 O209 1.234 . S
C230 H202 0.929 . S
C230 C233 1.391 . S
C230 C235 1.391 . S
C231 H203 0.929 . S
C231 C232 1.390 . S
C231 N234 1.391 . S
C232 H204 0.930 . S
C232 C231 1.390 . S
C232 C233 1.392 . S
C233 H205 0.929 . S
C233 C230 1.391 . S
C233 C232 1.392 . S
N234 Co178 2.257 . S
N234 C231 1.391 . S
N234 C235 1.388 . S
C235 H206 0.930 . S
C235 C230 1.391 . S
C235 N234 1.388 . S
Co236 O238 2.143 . S
Co236 O244 2.074 . S
Co236 O247 2.093 . S
Co236 O260 2.097 . S
Co236 N277 2.151 . S
Co236 N285 2.214 . S
Co237 O238 2.160 . S
Co237 O243 2.058 . S
Co237 O253 2.057 . S
Co237 O268 2.037 . S
Co237 N272 2.145 . S
Co237 N293 2.257 . S
O238 Co236 2.143 . S
O238 Co237 2.160 . S
C239 O240 1.278 . S
C239 O247 1.224 . S
O240 C239 1.278 . S
C241 O242 1.245 . S
C241 O253 1.232 . S
O242 C241 1.245 . S
O243 Co237 2.058 . S
O243 C269 1.269 . S
O244 Co236 2.074 . S
O244 C269 1.257 . S
H245 C270 0.930 . S
H246 C276 0.930 . S
O247 Co236 2.093 . S
O247 C239 1.224 . S
H248 C280 0.929 . S
H249 C282 0.930 . S
H250 C283 0.930 . S
H251 C281 0.929 . S
H252 C284 0.928 . S
O253 Co237 2.057 . S
O253 C241 1.232 . S
H254 C273 0.929 . S
H255 C274 0.929 . S
H256 C286 0.931 . S
H257 C278 0.929 . S
H258 C287 0.930 . S
H259 C279 0.931 . S
O260 Co236 2.097 . S
O260 C288 1.214 . S
H261 C289 0.929 . S
H262 C290 0.929 . S
H263 C291 0.930 . S
H264 C292 0.929 . S
H265 C294 0.930 . S
H266 C271 0.930 . S
H267 C275 0.930 . S
O268 Co237 2.037 . S
O268 C288 1.234 . S
C269 O243 1.269 . S
C269 O244 1.257 . S
C270 H245 0.930 . S
C270 C273 1.388 . S
C270 C275 1.418 . S
C271 H266 0.930 . S
C271 C274 1.404 . S
C271 C275 1.353 . S
N272 Co237 2.145 . S
N272 C273 1.397 . S
N272 C274 1.334 . S
C273 H254 0.929 . S
C273 C270 1.388 . S
C273 N272 1.397 . S
C274 H255 0.929 . S
C274 C271 1.404 . S
C274 N272 1.334 . S
C275 H267 0.930 . S
C275 C270 1.418 . S
C275 C271 1.353 . S
C276 H246 0.930 . S
C276 N277 1.330 . S
C276 C278 1.446 . S
N277 Co236 2.151 . S
N277 C276 1.330 . S
N277 C281 1.418 . S
C278 H257 0.929 . S
C278 C276 1.446 . S
C278 C279 1.332 . S
C279 H259 0.931 . S
C279 C278 1.332 . S
C279 C280 1.267 . S
C280 H248 0.929 . S
C280 C279 1.267 . S
C280 C281 1.251 . S
C281 H251 0.929 . S
C281 N277 1.418 . S
C281 C280 1.251 . S
C282 H249 0.930 . S
C282 C284 1.406 . S
C282 C287 1.261 . S
C283 H250 0.930 . S
C283 N285 1.325 . S
C283 C286 1.357 . S
C284 H252 0.928 . S
C284 C282 1.406 . S
C284 N285 1.261 . S
N285 Co236 2.214 . S
N285 C283 1.325 . S
N285 C284 1.261 . S
C286 H256 0.931 . S
C286 C283 1.357 . S
C286 C287 1.312 . S
C287 H258 0.930 . S
C287 C282 1.261 . S
C287 C286 1.312 . S
C288 O260 1.214 . S
C288 O268 1.234 . S
C289 H261 0.929 . S
C289 C292 1.391 . S
C289 C294 1.391 . S
C290 H262 0.929 . S
C290 C291 1.390 . S
C290 N293 1.391 . S
C291 H263 0.930 . S
C291 C290 1.390 . S
C291 C292 1.392 . S
C292 H264 0.929 . S
C292 C289 1.391 . S
C292 C291 1.392 . S
N293 Co237 2.257 . S
N293 C290 1.391 . S
N293 C294 1.388 . S
C294 H265 0.930 . S
C294 C289 1.391 . S
C294 N293 1.388 . S
Co295 O297 2.143 . S
Co295 O303 2.074 . S
Co295 O306 2.093 . S
Co295 O319 2.097 . S
Co295 N336 2.151 . S
Co295 N344 2.214 . S
Co296 O297 2.160 . S
Co296 O302 2.058 . S
Co296 O312 2.057 . S
Co296 O327 2.037 . S
Co296 N331 2.145 . S
Co296 N352 2.257 . S
O297 Co295 2.143 . S
O297 Co296 2.160 . S
C298 O299 1.278 . S
C298 O306 1.224 . S
O299 C298 1.278 . S
C300 O301 1.245 . S
C300 O312 1.232 . S
O301 C300 1.245 . S
O302 Co296 2.058 . S
O302 C328 1.269 . S
O303 Co295 2.074 . S
O303 C328 1.257 . S
H304 C329 0.930 . S
H305 C335 0.930 . S
O306 Co295 2.093 . S
O306 C298 1.224 . S
H307 C339 0.929 . S
H308 C341 0.930 . S
H309 C342 0.930 . S
H310 C340 0.929 . S
H311 C343 0.928 . S
O312 Co296 2.057 . S
O312 C300 1.232 . S
H313 C332 0.929 . S
H314 C333 0.929 . S
H315 C345 0.931 . S
H316 C337 0.929 . S
H317 C346 0.930 . S
H318 C338 0.931 . S
O319 Co295 2.097 . S
O319 C347 1.214 . S
H320 C348 0.929 . S
H321 C349 0.929 . S
H322 C350 0.930 . S
H323 C351 0.929 . S
H324 C353 0.930 . S
H325 C330 0.930 . S
H326 C334 0.930 . S
O327 Co296 2.037 . S
O327 C347 1.234 . S
C328 O302 1.269 . S
C328 O303 1.257 . S
C329 H304 0.930 . S
C329 C332 1.388 . S
C329 C334 1.418 . S
C330 H325 0.930 . S
C330 C333 1.404 . S
C330 C334 1.353 . S
N331 Co296 2.145 . S
N331 C332 1.397 . S
N331 C333 1.334 . S
C332 H313 0.929 . S
C332 C329 1.388 . S
C332 N331 1.397 . S
C333 H314 0.929 . S
C333 C330 1.404 . S
C333 N331 1.334 . S
C334 H326 0.930 . S
C334 C329 1.418 . S
C334 C330 1.353 . S
C335 H305 0.930 . S
C335 N336 1.330 . S
C335 C337 1.446 . S
N336 Co295 2.151 . S
N336 C335 1.330 . S
N336 C340 1.418 . S
C337 H316 0.929 . S
C337 C335 1.446 . S
C337 C338 1.332 . S
C338 H318 0.931 . S
C338 C337 1.332 . S
C338 C339 1.267 . S
C339 H307 0.929 . S
C339 C338 1.267 . S
C339 C340 1.251 . S
C340 H310 0.929 . S
C340 N336 1.418 . S
C340 C339 1.251 . S
C341 H308 0.930 . S
C341 C343 1.406 1_565 S
C341 C346 1.261 . S
C342 H309 0.930 . S
C342 N344 1.325 1_565 S
C342 C345 1.357 . S
C343 H311 0.928 . S
C343 C341 1.406 1_545 S
C343 N344 1.261 . S
N344 Co295 2.214 . S
N344 C342 1.325 1_545 S
N344 C343 1.261 . S
C345 H315 0.931 . S
C345 C342 1.357 . S
C345 C346 1.312 . S
C346 H317 0.930 . S
C346 C341 1.261 . S
C346 C345 1.312 . S
C347 O319 1.214 . S
C347 O327 1.234 . S
C348 H320 0.929 . S
C348 C351 1.391 . S
C348 C353 1.391 . S
C349 H321 0.929 . S
C349 C350 1.390 . S
C349 N352 1.391 . S
C350 H322 0.930 . S
C350 C349 1.390 . S
C350 C351 1.392 . S
C351 H323 0.929 . S
C351 C348 1.391 . S
C351 C350 1.392 . S
N352 Co296 2.257 . S
N352 C349 1.391 . S
N352 C353 1.388 . S
C353 H324 0.930 . S
C353 C348 1.391 . S
C353 N352 1.388 . S
Co354 O356 2.143 . S
Co354 O362 2.074 . S
Co354 O365 2.093 . S
Co354 O378 2.097 . S
Co354 N395 2.151 . S
Co354 N403 2.214 . S
Co355 O356 2.160 . S
Co355 O361 2.058 . S
Co355 O371 2.057 . S
Co355 O386 2.037 . S
Co355 N390 2.145 . S
Co355 N411 2.257 . S
O356 Co354 2.143 . S
O356 Co355 2.160 . S
C357 O358 1.278 . S
C357 O365 1.224 . S
O358 C357 1.278 . S
C359 O360 1.245 . S
C359 O371 1.232 . S
O360 C359 1.245 . S
O361 Co355 2.058 . S
O361 C387 1.269 . S
O362 Co354 2.074 . S
O362 C387 1.257 . S
H363 C388 0.930 . S
H364 C394 0.930 . S
O365 Co354 2.093 . S
O365 C357 1.224 . S
H366 C398 0.929 . S
H367 C400 0.930 . S
H368 C401 0.930 . S
H369 C399 0.929 . S
H370 C402 0.928 . S
O371 Co355 2.057 . S
O371 C359 1.232 . S
H372 C391 0.929 . S
H373 C392 0.929 . S
H374 C404 0.931 . S
H375 C396 0.929 . S
H376 C405 0.930 . S
H377 C397 0.931 . S
O378 Co354 2.097 . S
O378 C406 1.214 . S
H379 C407 0.929 . S
H380 C408 0.929 . S
H381 C409 0.930 . S
H382 C410 0.929 . S
H383 C412 0.930 . S
H384 C389 0.930 . S
H385 C393 0.930 . S
O386 Co355 2.037 . S
O386 C406 1.234 . S
C387 O361 1.269 . S
C387 O362 1.257 . S
C388 H363 0.930 . S
C388 C391 1.388 . S
C388 C393 1.418 . S
C389 H384 0.930 . S
C389 C392 1.404 . S
C389 C393 1.353 . S
N390 Co355 2.145 . S
N390 C391 1.397 . S
N390 C392 1.334 . S
C391 H372 0.929 . S
C391 C388 1.388 . S
C391 N390 1.397 . S
C392 H373 0.929 . S
C392 C389 1.404 . S
C392 N390 1.334 . S
C393 H385 0.930 . S
C393 C388 1.418 . S
C393 C389 1.353 . S
C394 H364 0.930 . S
C394 N395 1.330 . S
C394 C396 1.446 . S
N395 Co354 2.151 . S
N395 C394 1.330 . S
N395 C399 1.418 . S
C396 H375 0.929 . S
C396 C394 1.446 . S
C396 C397 1.332 . S
C397 H377 0.931 . S
C397 C396 1.332 . S
C397 C398 1.267 . S
C398 H366 0.929 . S
C398 C397 1.267 . S
C398 C399 1.251 . S
C399 H369 0.929 . S
C399 N395 1.418 . S
C399 C398 1.251 . S
C400 H367 0.930 . S
C400 C402 1.406 . S
C400 C405 1.261 . S
C401 H368 0.930 . S
C401 N403 1.325 . S
C401 C404 1.357 . S
C402 H370 0.928 . S
C402 C400 1.406 . S
C402 N403 1.261 . S
N403 Co354 2.214 . S
N403 C401 1.325 . S
N403 C402 1.261 . S
C404 H374 0.931 . S
C404 C401 1.357 . S
C404 C405 1.312 . S
C405 H376 0.930 . S
C405 C400 1.261 . S
C405 C404 1.312 . S
C406 O378 1.214 . S
C406 O386 1.234 . S
C407 H379 0.929 . S
C407 C410 1.391 . S
C407 C412 1.391 . S
C408 H380 0.929 . S
C408 C409 1.390 . S
C408 N411 1.391 . S
C409 H381 0.930 . S
C409 C408 1.390 . S
C409 C410 1.392 . S
C410 H382 0.929 . S
C410 C407 1.391 . S
C410 C409 1.392 . S
N411 Co355 2.257 . S
N411 C408 1.391 . S
N411 C412 1.388 . S
C412 H383 0.930 . S
C412 C407 1.391 . S
C412 N411 1.388 . S
Co413 O415 2.143 . S
Co413 O421 2.074 . S
Co413 O424 2.093 . S
Co413 O437 2.097 . S
Co413 N454 2.151 . S
Co413 N462 2.214 . S
Co414 O415 2.160 . S
Co414 O420 2.058 . S
Co414 O430 2.057 . S
Co414 O445 2.037 . S
Co414 N449 2.145 . S
Co414 N470 2.257 . S
O415 Co413 2.143 . S
O415 Co414 2.160 . S
C416 O417 1.278 . S
C416 O424 1.224 . S
O417 C416 1.278 . S
C418 O419 1.245 . S
C418 O430 1.232 . S
O419 C418 1.245 . S
O420 Co414 2.058 . S
O420 C446 1.269 . S
O421 Co413 2.074 . S
O421 C446 1.257 . S
H422 C447 0.930 . S
H423 C453 0.930 . S
O424 Co413 2.093 . S
O424 C416 1.224 . S
H425 C457 0.929 . S
H426 C459 0.930 . S
H427 C460 0.930 . S
H428 C458 0.929 . S
H429 C461 0.928 . S
O430 Co414 2.057 . S
O430 C418 1.232 . S
H431 C450 0.929 . S
H432 C451 0.929 . S
H433 C463 0.931 . S
H434 C455 0.929 . S
H435 C464 0.930 . S
H436 C456 0.931 . S
O437 Co413 2.097 . S
O437 C465 1.214 . S
H438 C466 0.929 . S
H439 C467 0.929 . S
H440 C468 0.930 . S
H441 C469 0.929 . S
H442 C471 0.930 . S
H443 C448 0.930 . S
H444 C452 0.930 . S
O445 Co414 2.037 . S
O445 C465 1.234 . S
C446 O420 1.269 . S
C446 O421 1.257 . S
C447 H422 0.930 . S
C447 C450 1.388 . S
C447 C452 1.418 . S
C448 H443 0.930 . S
C448 C451 1.404 . S
C448 C452 1.353 . S
N449 Co414 2.145 . S
N449 C450 1.397 . S
N449 C451 1.334 . S
C450 H431 0.929 . S
C450 C447 1.388 . S
C450 N449 1.397 . S
C451 H432 0.929 . S
C451 C448 1.404 . S
C451 N449 1.334 . S
C452 H444 0.930 . S
C452 C447 1.418 . S
C452 C448 1.353 . S
C453 H423 0.930 . S
C453 N454 1.330 . S
C453 C455 1.446 . S
N454 Co413 2.151 . S
N454 C453 1.330 . S
N454 C458 1.418 . S
C455 H434 0.929 . S
C455 C453 1.446 . S
C455 C456 1.332 . S
C456 H436 0.931 . S
C456 C455 1.332 . S
C456 C457 1.267 . S
C457 H425 0.929 . S
C457 C456 1.267 . S
C457 C458 1.251 . S
C458 H428 0.929 . S
C458 N454 1.418 . S
C458 C457 1.251 . S
C459 H426 0.930 . S
C459 C461 1.406 1_545 S
C459 C464 1.261 . S
C460 H427 0.930 . S
C460 N462 1.325 1_545 S
C460 C463 1.357 . S
C461 H429 0.928 . S
C461 C459 1.406 1_565 S
C461 N462 1.261 . S
N462 Co413 2.214 . S
N462 C460 1.325 1_565 S
N462 C461 1.261 . S
C463 H433 0.931 . S
C463 C460 1.357 . S
C463 C464 1.312 . S
C464 H435 0.930 . S
C464 C459 1.261 . S
C464 C463 1.312 . S
C465 O437 1.214 . S
C465 O445 1.234 . S
C466 H438 0.929 . S
C466 C469 1.391 . S
C466 C471 1.391 . S
C467 H439 0.929 . S
C467 C468 1.390 . S
C467 N470 1.391 . S
C468 H440 0.930 . S
C468 C467 1.390 . S
C468 C469 1.392 . S
C469 H441 0.929 . S
C469 C466 1.391 . S
C469 C468 1.392 . S
N470 Co414 2.257 . S
N470 C467 1.391 . S
N470 C471 1.388 . S
C471 H442 0.930 . S
C471 C466 1.391 . S
C471 N470 1.388 . S
H472 C484 0.930 . S
H473 C486 0.930 . S
H474 C487 0.930 . S
H475 C491 0.959 . S
H476 C491 0.959 . S
H477 C491 0.961 . S
H478 C492 0.960 1_545 S
H479 C492 0.961 1_655 S
H480 C492 0.959 . S
H481 C495 0.929 1_455 S
H482 C496 0.931 . S
H483 C498 0.930 . S
C484 H472 0.930 . S
C484 C485 1.399 . S
C484 C489 1.399 . S
C485 C484 1.399 . S
C485 C486 1.376 . S
C486 H473 0.930 . S
C486 C485 1.376 . S
C486 C487 1.388 . S
C487 H474 0.930 . S
C487 C486 1.388 . S
C487 C488 1.390 . S
C488 C487 1.390 . S
C488 C489 1.394 . S
C488 C494 1.465 1_445 S
C489 C484 1.399 . S
C489 C488 1.394 . S
C489 C490 1.516 1_455 S
C490 C489 1.516 1_655 S
C490 C491 1.502 . S
C490 C492 1.561 1_645 S
C490 C493 1.526 1_545 S
C491 H475 0.959 . S
C491 H476 0.959 . S
C491 H477 0.961 . S
C491 C490 1.502 . S
C492 H478 0.960 1_565 S
C492 H479 0.961 1_455 S
C492 H480 0.959 . S
C492 C490 1.561 1_465 S
C493 C490 1.526 1_565 S
C493 C494 1.396 . S
C493 C498 1.390 . S
C494 C488 1.465 1_665 S
C494 C493 1.396 . S
C494 C495 1.399 . S
C495 H481 0.929 1_655 S
C495 C494 1.399 . S
C495 C496 1.385 . S
C496 H482 0.931 . S
C496 C495 1.385 . S
C496 C497 1.389 . S
C497 C496 1.389 . S
C497 C498 1.387 . S
C498 H483 0.930 . S
C498 C493 1.390 . S
C498 C497 1.387 . S
H499 C511 0.930 . S
H500 C513 0.930 . S
H501 C514 0.930 . S
H502 C518 0.959 . S
H503 C518 0.959 . S
H504 C518 0.961 . S
H505 C519 0.960 . S
H506 C519 0.961 . S
H507 C519 0.959 . S
H508 C522 0.929 . S
H509 C523 0.931 . S
H510 C525 0.930 . S
C511 H499 0.930 . S
C511 C512 1.399 . S
C511 C516 1.399 . S
C512 C511 1.399 . S
C512 C513 1.376 . S
C513 H500 0.930 . S
C513 C512 1.376 . S
C513 C514 1.388 . S
C514 H501 0.930 . S
C514 C513 1.388 . S
C514 C515 1.390 . S
C515 C514 1.390 . S
C515 C516 1.394 . S
C515 C521 1.465 . S
C516 C511 1.399 . S
C516 C515 1.394 . S
C516 C517 1.516 . S
C517 C516 1.516 . S
C517 C518 1.502 . S
C517 C519 1.561 . S
C517 C520 1.526 . S
C518 H502 0.959 . S
C518 H503 0.959 . S
C518 H504 0.961 . S
C518 C517 1.502 . S
C519 H505 0.960 . S
C519 H506 0.961 . S
C519 H507 0.959 . S
C519 C517 1.561 . S
C520 C517 1.526 . S
C520 C521 1.396 . S
C520 C525 1.390 . S
C521 C515 1.465 . S
C521 C520 1.396 . S
C521 C522 1.399 . S
C522 H508 0.929 . S
C522 C521 1.399 . S
C522 C523 1.385 . S
C523 H509 0.931 . S
C523 C522 1.385 . S
C523 C524 1.389 . S
C524 C523 1.389 . S
C524 C525 1.387 . S
C525 H510 0.930 . S
C525 C520 1.390 . S
C525 C524 1.387 . S
H526 C538 0.930 . S
H527 C540 0.930 . S
H528 C541 0.930 . S
H529 C545 0.959 . S
H530 C545 0.959 . S
H531 C545 0.961 . S
H532 C546 0.960 . S
H533 C546 0.961 . S
H534 C546 0.959 . S
H535 C549 0.929 . S
H536 C550 0.931 . S
H537 C552 0.930 . S
C538 H526 0.930 . S
C538 C539 1.399 . S
C538 C543 1.399 . S
C539 C538 1.399 . S
C539 C540 1.376 . S
C540 H527 0.930 . S
C540 C539 1.376 . S
C540 C541 1.388 . S
C541 H528 0.930 . S
C541 C540 1.388 . S
C541 C542 1.390 . S
C542 C541 1.390 . S
C542 C543 1.394 . S
C542 C548 1.465 . S
C543 C538 1.399 . S
C543 C542 1.394 . S
C543 C544 1.516 . S
C544 C543 1.516 . S
C544 C545 1.502 . S
C544 C546 1.561 . S
C544 C547 1.526 . S
C545 H529 0.959 . S
C545 H530 0.959 . S
C545 H531 0.961 . S
C545 C544 1.502 . S
C546 H532 0.960 . S
C546 H533 0.961 . S
C546 H534 0.959 . S
C546 C544 1.561 . S
C547 C544 1.526 . S
C547 C548 1.396 . S
C547 C552 1.390 . S
C548 C542 1.465 . S
C548 C547 1.396 . S
C548 C549 1.399 . S
C549 H535 0.929 . S
C549 C548 1.399 . S
C549 C550 1.385 . S
C550 H536 0.931 . S
C550 C549 1.385 . S
C550 C551 1.389 . S
C551 C550 1.389 . S
C551 C552 1.387 . S
C552 H537 0.930 . S
C552 C547 1.390 . S
C552 C551 1.387 . S
H553 C565 0.930 . S
H554 C567 0.930 . S
H555 C568 0.930 1_565 S
H556 C572 0.959 . S
H557 C572 0.959 . S
H558 C572 0.961 . S
H559 C573 0.960 1_545 S
H560 C573 0.961 1_655 S
H561 C573 0.959 . S
H562 C576 0.929 . S
H563 C577 0.931 . S
H564 C579 0.930 . S
C565 H553 0.930 . S
C565 C566 1.399 . S
C565 C570 1.399 . S
C566 C565 1.399 . S
C566 C567 1.376 . S
C567 H554 0.930 . S
C567 C566 1.376 . S
C567 C568 1.388 . S
C568 H555 0.930 1_545 S
C568 C567 1.388 . S
C568 C569 1.390 . S
C569 C568 1.390 . S
C569 C570 1.394 . S
C569 C575 1.465 1_445 S
C570 C565 1.399 . S
C570 C569 1.394 . S
C570 C571 1.516 1_455 S
C571 C570 1.516 1_655 S
C571 C572 1.502 . S
C571 C573 1.561 1_645 S
C571 C574 1.526 1_545 S
C572 H556 0.959 . S
C572 H557 0.959 . S
C572 H558 0.961 . S
C572 C571 1.502 . S
C573 H559 0.960 1_565 S
C573 H560 0.961 1_455 S
C573 H561 0.959 . S
C573 C571 1.561 1_465 S
C574 C571 1.526 1_565 S
C574 C575 1.396 . S
C574 C579 1.390 . S
C575 C569 1.465 1_665 S
C575 C574 1.396 . S
C575 C576 1.399 . S
C576 H562 0.929 . S
C576 C575 1.399 . S
C576 C577 1.385 . S
C577 H563 0.931 . S
C577 C576 1.385 . S
C577 C578 1.389 . S
C578 C577 1.389 . S
C578 C579 1.387 . S
C579 H564 0.930 . S
C579 C574 1.390 . S
C579 C578 1.387 . S
H580 C592 0.930 . S
H581 C594 0.930 . S
H582 C595 0.930 . S
H583 C599 0.959 . S
H584 C599 0.959 . S
H585 C599 0.961 . S
H586 C600 0.960 . S
H587 C600 0.961 . S
H588 C600 0.959 . S
H589 C603 0.929 . S
H590 C604 0.931 . S
H591 C606 0.930 . S
C592 H580 0.930 . S
C592 C593 1.399 . S
C592 C597 1.399 . S
C593 C592 1.399 . S
C593 C594 1.376 . S
C594 H581 0.930 . S
C594 C593 1.376 . S
C594 C595 1.388 . S
C595 H582 0.930 . S
C595 C594 1.388 . S
C595 C596 1.390 . S
C596 C595 1.390 . S
C596 C597 1.394 . S
C596 C602 1.465 . S
C597 C592 1.399 . S
C597 C596 1.394 . S
C597 C598 1.516 . S
C598 C597 1.516 . S
C598 C599 1.502 . S
C598 C600 1.561 . S
C598 C601 1.526 . S
C599 H583 0.959 . S
C599 H584 0.959 . S
C599 H585 0.961 . S
C599 C598 1.502 . S
C600 H586 0.960 . S
C600 H587 0.961 . S
C600 H588 0.959 . S
C600 C598 1.561 . S
C601 C598 1.526 . S
C601 C602 1.396 . S
C601 C606 1.390 . S
C602 C596 1.465 . S
C602 C601 1.396 . S
C602 C603 1.399 . S
C603 H589 0.929 . S
C603 C602 1.399 . S
C603 C604 1.385 . S
C604 H590 0.931 . S
C604 C603 1.385 . S
C604 C605 1.389 . S
C605 C604 1.389 . S
C605 C606 1.387 . S
C606 H591 0.930 . S
C606 C601 1.390 . S
C606 C605 1.387 . S
H607 C619 0.930 . S
H608 C621 0.930 . S
H609 C622 0.930 . S
H610 C626 0.959 . S
H611 C626 0.959 1_554 S
H612 C626 0.961 . S
H613 C627 0.960 . S
H614 C627 0.961 1_554 S
H615 C627 0.949 1_554 S
H616 C630 0.929 . S
H617 C631 0.931 . S
H618 C633 0.930 . S
C619 H607 0.930 . S
C619 C620 1.399 . S
C619 C624 1.399 . S
C620 C619 1.399 . S
C620 C621 1.376 . S
C621 H608 0.930 . S
C621 C620 1.376 . S
C621 C622 1.388 . S
C622 H609 0.930 . S
C622 C621 1.388 . S
C622 C623 1.390 . S
C623 C622 1.390 . S
C623 C624 1.394 . S
C623 C629 1.465 1_556 S
C624 C619 1.399 . S
C624 C623 1.394 . S
C624 C625 1.516 . S
C625 C624 1.516 . S
C625 C626 1.502 . S
C625 C627 1.561 . S
C625 C628 1.526 1_556 S
C626 H610 0.959 . S
C626 H611 0.959 1_556 S
C626 H612 0.961 . S
C626 C625 1.502 . S
C627 H613 0.960 . S
C627 H614 0.961 1_556 S
C627 H615 0.949 1_556 S
C627 C625 1.561 . S
C628 C625 1.526 1_554 S
C628 C629 1.396 . S
C628 C633 1.390 . S
C629 C623 1.465 1_554 S
C629 C628 1.396 . S
C629 C630 1.399 . S
C630 H616 0.929 . S
C630 C629 1.399 . S
C630 C631 1.385 . S
C631 H617 0.931 . S
C631 C630 1.385 . S
C631 C632 1.389 . S
C632 C631 1.389 . S
C632 C633 1.387 . S
C633 H618 0.930 . S
C633 C628 1.390 . S
C633 C632 1.387 . S
H634 C646 0.930 . S
H635 C648 0.930 . S
H636 C649 0.930 . S
H637 C653 0.959 . S
H638 C653 0.959 . S
H639 C653 0.961 . S
H640 C654 0.960 . S
H641 C654 0.961 . S
H642 C654 0.959 . S
H643 C657 0.929 . S
H644 C658 0.931 . S
H645 C660 0.930 . S
C646 H634 0.930 . S
C646 C647 1.399 . S
C646 C651 1.399 . S
C647 C646 1.399 . S
C647 C648 1.376 . S
C648 H635 0.930 . S
C648 C647 1.376 . S
C648 C649 1.388 . S
C649 H636 0.930 . S
C649 C648 1.388 . S
C649 C650 1.390 . S
C650 C649 1.390 . S
C650 C651 1.394 . S
C650 C656 1.465 . S
C651 C646 1.399 . S
C651 C650 1.394 . S
C651 C652 1.516 . S
C652 C651 1.516 . S
C652 C653 1.502 . S
C652 C654 1.561 . S
C652 C655 1.526 . S
C653 H637 0.959 . S
C653 H638 0.959 . S
C653 H639 0.961 . S
C653 C652 1.502 . S
C654 H640 0.960 . S
C654 H641 0.961 . S
C654 H642 0.959 . S
C654 C652 1.561 . S
C655 C652 1.526 . S
C655 C656 1.396 . S
C655 C660 1.390 . S
C656 C650 1.465 . S
C656 C655 1.396 . S
C656 C657 1.399 . S
C657 H643 0.929 . S
C657 C656 1.399 . S
C657 C658 1.385 . S
C658 H644 0.931 . S
C658 C657 1.385 . S
C658 C659 1.389 . S
C659 C658 1.389 . S
C659 C660 1.387 . S
C660 H645 0.930 . S
C660 C655 1.390 . S
C660 C659 1.387 . S
H661 C673 0.930 . S
H662 C675 0.930 . S
H663 C676 0.930 . S
H664 C680 0.959 . S
H665 C680 0.959 . S
H666 C680 0.961 1_556 S
H667 C681 0.960 1_556 S
H668 C681 0.961 . S
H669 C681 0.959 . S
H670 C684 0.929 . S
H671 C685 0.931 . S
H672 C687 0.930 . S
C673 H661 0.930 . S
C673 C674 1.399 . S
C673 C678 1.399 . S
C674 C673 1.399 . S
C674 C675 1.376 . S
C675 H662 0.930 . S
C675 C674 1.376 . S
C675 C676 1.388 . S
C676 H663 0.930 . S
C676 C675 1.388 . S
C676 C677 1.390 . S
C677 C676 1.390 . S
C677 C678 1.394 . S
C677 C683 1.465 1_556 S
C678 C673 1.399 . S
C678 C677 1.394 . S
C678 C679 1.516 1_556 S
C679 C678 1.516 1_554 S
C679 C680 1.502 . S
C679 C681 1.561 . S
C679 C682 1.526 . S
C680 H664 0.959 . S
C680 H665 0.959 . S
C680 H666 0.961 1_554 S
C680 C679 1.502 . S
C681 H667 0.960 1_554 S
C681 H668 0.961 . S
C681 H669 0.959 . S
C681 C679 1.561 . S
C682 C679 1.526 . S
C682 C683 1.396 . S
C682 C687 1.390 . S
C683 C677 1.465 1_554 S
C683 C682 1.396 . S
C683 C684 1.399 . S
C684 H670 0.929 . S
C684 C683 1.399 . S
C684 C685 1.385 . S
C685 H671 0.931 . S
C685 C684 1.385 . S
C685 C686 1.389 . S
C686 C685 1.389 . S
C686 C687 1.387 . S
C687 H672 0.930 . S
C687 C682 1.390 . S
C687 C686 1.387 . S
H688 C700 0.930 . S
H689 C702 0.930 . S
H690 C703 0.930 . S
H691 C707 0.959 . S
H692 C707 0.959 . S
H693 C707 0.961 . S
H694 C708 0.960 . S
H695 C708 0.961 . S
H696 C708 0.959 . S
H697 C711 0.929 . S
H698 C712 0.931 . S
H699 C714 0.930 . S
C700 H688 0.930 . S
C700 C701 1.399 . S
C700 C705 1.399 . S
C701 C700 1.399 . S
C701 C702 1.376 . S
C702 H689 0.930 . S
C702 C701 1.376 . S
C702 C703 1.388 . S
C703 H690 0.930 . S
C703 C702 1.388 . S
C703 C704 1.390 . S
C704 C703 1.390 . S
C704 C705 1.394 . S
C704 C710 1.465 . S
C705 C700 1.399 . S
C705 C704 1.394 . S
C705 C706 1.516 . S
C706 C705 1.516 . S
C706 C707 1.502 . S
C706 C708 1.561 . S
C706 C709 1.526 . S
C707 H691 0.959 . S
C707 H692 0.959 . S
C707 H693 0.961 . S
C707 C706 1.502 . S
C708 H694 0.960 . S
C708 H695 0.961 . S
C708 H696 0.959 . S
C708 C706 1.561 . S
C709 C706 1.526 . S
C709 C710 1.396 . S
C709 C714 1.390 . S
C710 C704 1.465 . S
C710 C709 1.396 . S
C710 C711 1.399 . S
C711 H697 0.929 . S
C711 C710 1.399 . S
C711 C712 1.385 . S
C712 H698 0.931 . S
C712 C711 1.385 . S
C712 C713 1.389 . S
C713 C712 1.389 . S
C713 C714 1.387 . S
C714 H699 0.930 . S
C714 C709 1.390 . S
C714 C713 1.387 . S
H715 C727 0.930 . S
H716 C729 0.930 . S
H717 C730 0.930 . S
H718 C734 0.959 . S
H719 C734 0.959 . S
H720 C734 0.961 . S
H721 C735 0.960 . S
H722 C735 0.961 . S
H723 C735 0.959 . S
H724 C738 0.929 . S
H725 C739 0.931 . S
H726 C741 0.930 . S
C727 H715 0.930 . S
C727 C728 1.399 . S
C727 C732 1.399 . S
C728 C727 1.399 . S
C728 C729 1.376 . S
C729 H716 0.930 . S
C729 C728 1.376 . S
C729 C730 1.388 . S
C730 H717 0.930 . S
C730 C729 1.388 . S
C730 C731 1.390 . S
C731 C730 1.390 . S
C731 C732 1.394 . S
C731 C737 1.465 . S
C732 C727 1.399 . S
C732 C731 1.394 . S
C732 C733 1.516 . S
C733 C732 1.516 . S
C733 C734 1.502 . S
C733 C735 1.561 . S
C733 C736 1.526 . S
C734 H718 0.959 . S
C734 H719 0.959 . S
C734 H720 0.961 . S
C734 C733 1.502 . S
C735 H721 0.960 . S
C735 H722 0.961 . S
C735 H723 0.959 . S
C735 C733 1.561 . S
C736 C733 1.526 . S
C736 C737 1.396 . S
C736 C741 1.390 . S
C737 C731 1.465 . S
C737 C736 1.396 . S
C737 C738 1.399 1_565 S
C738 H724 0.929 . S
C738 C737 1.399 1_545 S
C738 C739 1.385 . S
C739 H725 0.931 . S
C739 C738 1.385 . S
C739 C740 1.389 . S
C740 C739 1.389 . S
C740 C741 1.387 1_545 S
C741 H726 0.930 . S
C741 C736 1.390 . S
C741 C740 1.387 1_565 S
H742 C754 0.930 . S
H743 C756 0.930 . S
H744 C757 0.930 . S
H745 C761 0.959 . S
H746 C761 0.959 . S
H747 C761 0.961 . S
H748 C762 0.960 . S
H749 C762 0.961 . S
H750 C762 0.959 . S
H751 C765 0.929 . S
H752 C766 0.931 . S
H753 C768 0.930 . S
C754 H742 0.930 . S
C754 C755 1.399 . S
C754 C759 1.399 . S
C755 C754 1.399 . S
C755 C756 1.376 . S
C756 H743 0.930 . S
C756 C755 1.376 . S
C756 C757 1.388 . S
C757 H744 0.930 . S
C757 C756 1.388 . S
C757 C758 1.390 . S
C758 C757 1.390 . S
C758 C759 1.394 . S
C758 C764 1.465 . S
C759 C754 1.399 . S
C759 C758 1.394 . S
C759 C760 1.516 . S
C760 C759 1.516 . S
C760 C761 1.502 . S
C760 C762 1.561 . S
C760 C763 1.526 . S
C761 H745 0.959 . S
C761 H746 0.959 . S
C761 H747 0.961 . S
C761 C760 1.502 . S
C762 H748 0.960 . S
C762 H749 0.961 . S
C762 H750 0.959 . S
C762 C760 1.561 . S
C763 C760 1.526 . S
C763 C764 1.396 . S
C763 C768 1.390 . S
C764 C758 1.465 . S
C764 C763 1.396 . S
C764 C765 1.399 . S
C765 H751 0.929 . S
C765 C764 1.399 . S
C765 C766 1.385 . S
C766 H752 0.931 . S
C766 C765 1.385 . S
C766 C767 1.389 . S
C767 C766 1.389 . S
C767 C768 1.387 . S
C768 H753 0.930 . S
C768 C763 1.390 . S
C768 C767 1.387 . S
H769 C781 0.930 . S
H770 C783 0.930 . S
H771 C784 0.930 . S
H772 C788 0.959 . S
H773 C788 0.959 1_565 S
H774 C788 0.961 . S
H775 C789 0.960 . S
H776 C789 0.961 1_565 S
H777 C789 0.959 . S
H778 C792 0.929 . S
H779 C793 0.931 . S
H780 C795 0.930 . S
C781 H769 0.930 . S
C781 C782 1.399 . S
C781 C786 1.399 . S
C782 C781 1.399 . S
C782 C783 1.376 . S
C783 H770 0.930 . S
C783 C782 1.376 . S
C783 C784 1.388 . S
C784 H771 0.930 . S
C784 C783 1.388 . S
C784 C785 1.390 . S
C785 C784 1.390 . S
C785 C786 1.394 . S
C785 C791 1.465 . S
C786 C781 1.399 . S
C786 C785 1.394 . S
C786 C787 1.516 . S
C787 C786 1.516 . S
C787 C788 1.502 . S
C787 C789 1.561 . S
C787 C790 1.526 . S
C788 H772 0.959 . S
C788 H773 0.959 1_545 S
C788 H774 0.961 . S
C788 C787 1.502 . S
C789 H775 0.960 . S
C789 H776 0.961 1_545 S
C789 H777 0.959 . S
C789 C787 1.561 . S
C790 C787 1.526 . S
C790 C791 1.396 . S
C790 C795 1.390 1_545 S
C791 C785 1.465 . S
C791 C790 1.396 . S
C791 C792 1.399 . S
C792 H778 0.929 . S
C792 C791 1.399 . S
C792 C793 1.385 . S
C793 H779 0.931 . S
C793 C792 1.385 . S
C793 C794 1.389 1_545 S
C794 C793 1.389 1_565 S
C794 C795 1.387 . S
C795 H780 0.930 . S
C795 C790 1.390 1_565 S
C795 C794 1.387 . S
H796 C808 0.927 1_455 S
H797 C810 0.930 . S
H798 C811 0.930 . S
H799 C815 0.959 . S
H800 C815 0.959 . S
H801 C815 0.961 . S
H802 C816 0.960 . S
H803 C816 0.961 . S
H804 C816 0.959 . S
H805 C819 0.929 . S
H806 C820 0.931 . S
H807 C822 0.930 . S
C808 H796 0.927 1_655 S
C808 C809 1.386 1_655 S
C808 C813 1.415 . S
C809 C808 1.386 1_455 S
C809 C810 1.376 . S
C810 H797 0.930 . S
C810 C809 1.376 . S
C810 C811 1.388 1_455 S
C811 H798 0.930 . S
C811 C810 1.388 1_655 S
C811 C812 1.390 . S
C812 C811 1.390 . S
C812 C813 1.394 . S
C812 C818 1.465 . S
C813 C808 1.415 . S
C813 C812 1.394 . S
C813 C814 1.516 . S
C814 C813 1.516 . S
C814 C815 1.502 . S
C814 C816 1.561 . S
C814 C817 1.526 . S
C815 H799 0.959 . S
C815 H800 0.959 . S
C815 H801 0.961 . S
C815 C814 1.502 . S
C816 H802 0.960 . S
C816 H803 0.961 . S
C816 H804 0.959 . S
C816 C814 1.561 . S
C817 C814 1.526 . S
C817 C818 1.396 . S
C817 C822 1.390 . S
C818 C812 1.465 . S
C818 C817 1.396 . S
C818 C819 1.399 . S
C819 H805 0.929 . S
C819 C818 1.399 . S
C819 C820 1.385 . S
C820 H806 0.931 . S
C820 C819 1.385 . S
C820 C821 1.389 . S
C821 C820 1.389 . S
C821 C822 1.387 . S
C822 H807 0.930 . S
C822 C817 1.390 . S
C822 C821 1.387 . S
H823 C835 0.930 . S
H824 C837 0.930 . S
H825 C838 0.930 . S
H826 C842 0.959 . S
H827 C842 0.959 . S
H828 C842 0.961 . S
H829 C843 0.960 . S
H830 C843 0.961 . S
H831 C843 0.959 . S
H832 C846 0.929 . S
H833 C847 0.931 . S
H834 C849 0.930 . S
C835 H823 0.930 . S
C835 C836 1.399 . S
C835 C840 1.399 . S
C836 C835 1.399 . S
C836 C837 1.376 . S
C837 H824 0.930 . S
C837 C836 1.376 . S
C837 C838 1.388 . S
C838 H825 0.930 . S
C838 C837 1.388 . S
C838 C839 1.390 . S
C839 C838 1.390 . S
C839 C840 1.394 . S
C839 C845 1.465 . S
C840 C835 1.399 . S
C840 C839 1.394 . S
C840 C841 1.516 . S
C841 C840 1.516 . S
C841 C842 1.502 . S
C841 C843 1.561 . S
C841 C844 1.526 . S
C842 H826 0.959 . S
C842 H827 0.959 . S
C842 H828 0.961 . S
C842 C841 1.502 . S
C843 H829 0.960 . S
C843 H830 0.961 . S
C843 H831 0.959 . S
C843 C841 1.561 . S
C844 C841 1.526 . S
C844 C845 1.396 . S
C844 C849 1.390 . S
C845 C839 1.465 . S
C845 C844 1.396 . S
C845 C846 1.399 . S
C846 H832 0.929 . S
C846 C845 1.399 . S
C846 C847 1.385 . S
C847 H833 0.931 . S
C847 C846 1.385 . S
C847 C848 1.389 . S
C848 C847 1.389 . S
C848 C849 1.387 . S
C849 H834 0.930 . S
C849 C844 1.390 . S
C849 C848 1.387 . S
H850 C862 0.930 . S
H851 C864 0.930 . S
H852 C865 0.930 . S
H853 C869 0.959 . S
H854 C869 0.959 . S
H855 C869 0.961 . S
H856 C870 0.960 . S
H857 C870 0.961 . S
H858 C870 0.959 . S
H859 C873 0.929 . S
H860 C874 0.931 . S
H861 C876 0.930 . S
C862 H850 0.930 . S
C862 C863 1.399 . S
C862 C867 1.399 . S
C863 C862 1.399 . S
C863 C864 1.376 . S
C864 H851 0.930 . S
C864 C863 1.376 . S
C864 C865 1.388 . S
C865 H852 0.930 . S
C865 C864 1.388 . S
C865 C866 1.390 . S
C866 C865 1.390 . S
C866 C867 1.394 . S
C866 C872 1.465 . S
C867 C862 1.399 . S
C867 C866 1.394 . S
C867 C868 1.516 . S
C868 C867 1.516 . S
C868 C869 1.502 . S
C868 C870 1.561 . S
C868 C871 1.526 . S
C869 H853 0.959 . S
C869 H854 0.959 . S
C869 H855 0.961 . S
C869 C868 1.502 . S
C870 H856 0.960 . S
C870 H857 0.961 . S
C870 H858 0.959 . S
C870 C868 1.561 . S
C871 C868 1.526 . S
C871 C872 1.396 . S
C871 C876 1.390 1_455 S
C872 C866 1.465 . S
C872 C871 1.396 . S
C872 C873 1.399 . S
C873 H859 0.929 . S
C873 C872 1.399 . S
C873 C874 1.385 1_455 S
C874 H860 0.931 . S
C874 C873 1.385 1_655 S
C874 C875 1.389 . S
C875 C874 1.389 . S
C875 C876 1.387 . S
C876 H861 0.930 . S
C876 C871 1.390 1_655 S
C876 C875 1.387 . S
H877 C889 0.930 . S
H878 C891 0.930 . S
H879 C892 0.930 . S
H880 C896 0.959 . S
H881 C896 0.959 . S
H882 C896 0.961 . S
H883 C897 0.960 . S
H884 C897 0.961 . S
H885 C897 0.959 . S
H886 C900 0.929 . S
H887 C901 0.931 . S
H888 C903 0.930 . S
C889 H877 0.930 . S
C889 C890 1.399 . S
C889 C894 1.399 . S
C890 C889 1.399 . S
C890 C891 1.376 . S
C891 H878 0.930 . S
C891 C890 1.376 . S
C891 C892 1.388 . S
C892 H879 0.930 . S
C892 C891 1.388 . S
C892 C893 1.390 . S
C893 C892 1.390 . S
C893 C894 1.394 . S
C893 C899 1.465 . S
C894 C889 1.399 . S
C894 C893 1.394 . S
C894 C895 1.516 . S
C895 C894 1.516 . S
C895 C896 1.502 . S
C895 C897 1.561 . S
C895 C898 1.526 . S
C896 H880 0.959 . S
C896 H881 0.959 . S
C896 H882 0.961 . S
C896 C895 1.502 . S
C897 H883 0.960 . S
C897 H884 0.961 . S
C897 H885 0.959 . S
C897 C895 1.561 . S
C898 C895 1.526 . S
C898 C899 1.396 . S
C898 C903 1.390 . S
C899 C893 1.465 . S
C899 C898 1.396 . S
C899 C900 1.399 . S
C900 H886 0.929 . S
C900 C899 1.399 . S
C900 C901 1.385 . S
C901 H887 0.931 . S
C901 C900 1.385 . S
C901 C902 1.389 . S
C902 C901 1.389 . S
C902 C903 1.387 . S
C903 H888 0.930 . S
C903 C898 1.390 . S
C903 C902 1.387 . S
C485 C52 0.907 . S
C497 C170 0.916 . S
C512 C111 0.906 . S
C524 C229 0.916 . S
C539 C288 0.912 . S
C551 C406 0.903 . S
C566 C347 0.911 . S
C578 C465 0.903 . S
C593 C3 1.370 . S
C605 C298 1.373 . S
C620 C62 1.405 . S
C632 C357 1.391 . S
C647 C416 1.433 . S
C659 C121 1.440 . S
C674 C180 1.409 . S
C686 C239 1.423 . S
C701 C269 1.738 . S
C713 C5 1.798 . S
C728 C64 1.782 . S
C740 C328 1.767 . S
C755 C123 1.775 . S
C767 C387 1.725 . S
C782 C182 1.756 . S
C794 C446 1.754 . S
C809 C33 1.725 . S
C821 C241 1.799 . S
C836 C300 1.757 . S
C848 C92 1.777 . S
C863 C359 1.783 . S
C875 C151 1.719 . S
C890 C210 1.717 . S
C902 C418 1.788 . S
