# Generated by pormake.
# Topology ecf, (8)-cn, num edge types: 1
# Building blocks:
#     Node 0, Type 0, BuildingBlock: VETTIZ_charged_sbu_0, # of connection points: 8
#     Node 1, Type 0, BuildingBlock: VETTIZ_charged_sbu_0, # of connection points: 8
#     Node 2, Type 0, BuildingBlock: VETTIZ_charged_sbu_0, # of connection points: 8
#     Node 3, Type 0, BuildingBlock: VETTIZ_charged_sbu_0, # of connection points: 8
#     Node 4, Type 0, BuildingBlock: VETTIZ_charged_sbu_0, # of connection points: 8
#     Node 5, Type 0, BuildingBlock: VETTIZ_charged_sbu_0, # of connection points: 8
#     Edge 6, Type (0, 0), BuildingBlock: UVAHIK_clean_linker_0, # of connection points: 2
#     Edge 7, Type (0, 0), BuildingBlock: UVAHIK_clean_linker_0, # of connection points: 2
#     Edge 8, Type (0, 0), BuildingBlock: UVAHIK_clean_linker_0, # of connection points: 2
#     Edge 9, Type (0, 0), BuildingBlock: UVAHIK_clean_linker_0, # of connection points: 2
#     Edge 10, Type (0, 0), BuildingBlock: UVAHIK_clean_linker_0, # of connection points: 2
#     Edge 11, Type (0, 0), BuildingBlock: UVAHIK_clean_linker_0, # of connection points: 2
#     Edge 12, Type (0, 0), BuildingBlock: UVAHIK_clean_linker_0, # of connection points: 2
#     Edge 13, Type (0, 0), BuildingBlock: UVAHIK_clean_linker_0, # of connection points: 2
#     Edge 14, Type (0, 0), BuildingBlock: UVAHIK_clean_linker_0, # of connection points: 2
#     Edge 15, Type (0, 0), BuildingBlock: UVAHIK_clean_linker_0, # of connection points: 2
#     Edge 16, Type (0, 0), BuildingBlock: UVAHIK_clean_linker_0, # of connection points: 2
#     Edge 17, Type (0, 0), BuildingBlock: UVAHIK_clean_linker_0, # of connection points: 2
#     Edge 18, Type (0, 0), BuildingBlock: UVAHIK_clean_linker_0, # of connection points: 2
#     Edge 19, Type (0, 0), BuildingBlock: UVAHIK_clean_linker_0, # of connection points: 2
#     Edge 20, Type (0, 0), BuildingBlock: UVAHIK_clean_linker_0, # of connection points: 2
#     Edge 21, Type (0, 0), BuildingBlock: UVAHIK_clean_linker_0, # of connection points: 2
#     Edge 22, Type (0, 0), BuildingBlock: UVAHIK_clean_linker_0, # of connection points: 2
#     Edge 23, Type (0, 0), BuildingBlock: UVAHIK_clean_linker_0, # of connection points: 2
#     Edge 24, Type (0, 0), BuildingBlock: UVAHIK_clean_linker_0, # of connection points: 2
#     Edge 25, Type (0, 0), BuildingBlock: UVAHIK_clean_linker_0, # of connection points: 2
#     Edge 26, Type (0, 0), BuildingBlock: UVAHIK_clean_linker_0, # of connection points: 2
#     Edge 27, Type (0, 0), BuildingBlock: UVAHIK_clean_linker_0, # of connection points: 2
#     Edge 28, Type (0, 0), BuildingBlock: UVAHIK_clean_linker_0, # of connection points: 2
#     Edge 29, Type (0, 0), BuildingBlock: UVAHIK_clean_linker_0, # of connection points: 2
# Relax obj value: 0.148
# Max RMSD: 0.140
# Mean RMSD: 0.140
data_MOF--net-ecf--node1-VETTIZ_charged_sbu_0--edge1-UVAHIK_clean_linker_0
_symmetry_space_group_name_H-M    P1
_symmetry_Int_Tables_number       1
_symmetry_cell_setting            triclinic
loop_
_symmetry_equiv_pos_as_xyz
'x, y, z'
_cell_length_a     41.931546
_cell_length_b     41.740617
_cell_length_c     34.829742
_cell_angle_alpha  90.406943
_cell_angle_beta   90.036496
_cell_angle_gamma 119.9542
loop_
_atom_site_label
_atom_site_type_symbol
_atom_site_fract_x
_atom_site_fract_y
_atom_site_fract_z
_atom_type_partial_charge
Fe0 Fe 0.16999 0.29841 0.23754 0.0
O1 O 0.19708 0.30351 0.28621 0.0
Fe2 Fe 0.19083 0.38703 0.21644 0.0
Fe3 Fe 0.18168 0.26282 0.3222 0.0
O4 O 0.17448 0.3464 0.25295 0.0
O5 O 0.17563 0.34858 0.25604 0.0
O6 O 0.19925 0.30612 0.28871 0.0
Fe7 Fe 0.20326 0.35403 0.30514 0.0
C8 C 0.10767 0.24122 0.28249 0.0
O9 O 0.16912 0.24888 0.22636 0.0
O10 O 0.19833 0.2409 0.27827 0.0
O11 O 0.25388 0.38342 0.27844 0.0
O12 O 0.24303 0.41839 0.23813 0.0
O13 O 0.21117 0.36437 0.1759 0.0
O14 O 0.21933 0.32445 0.21002 0.0
O15 O 0.23223 0.29672 0.34734 0.0
O16 O 0.23252 0.3522 0.35447 0.0
C17 C 0.22573 0.34409 0.1804 0.0
O18 O 0.20237 0.40362 0.31479 0.0
O19 O 0.17521 0.41073 0.25969 0.0
O20 O 0.12024 0.27132 0.26429 0.0
O21 O 0.12875 0.23193 0.29956 0.0
C22 C 0.18634 0.23414 0.24306 0.0
C23 C 0.24458 0.32941 0.36253 0.0
C24 C 0.14645 0.3035 0.36163 0.0
O25 O 0.16125 0.28331 0.36328 0.0
O26 O 0.154 0.32697 0.33493 0.0
C27 C 0.26495 0.41165 0.25704 0.0
O28 O 0.1398 0.35261 0.19161 0.0
O29 O 0.14134 0.29839 0.18807 0.0
C30 C 0.18588 0.41807 0.29548 0.0
C31 C 0.12828 0.31955 0.17786 0.0
Fe32 Fe 0.84225 0.11854 0.69377 0.0
O33 O 0.82459 0.14302 0.72922 0.0
Fe34 Fe 0.83002 0.19394 0.71395 0.0
Fe35 Fe 0.84317 0.15603 0.78297 0.0
O36 O 0.82471 0.14486 0.72625 0.0
O37 O 0.84913 0.20713 0.768 0.0
O38 O 0.84919 0.2053 0.77108 0.0
Fe39 Fe 0.83096 0.22925 0.80632 0.0
C40 C 0.81623 0.07298 0.76631 0.0
O41 O 0.88715 0.1283 0.72739 0.0
O42 O 0.89556 0.17479 0.76546 0.0
O43 O 0.85731 0.27364 0.76974 0.0
O44 O 0.83777 0.24768 0.70925 0.0
O45 O 0.88289 0.21436 0.69342 0.0
O46 O 0.87646 0.16442 0.66209 0.0
O47 O 0.8656 0.17705 0.83794 0.0
O48 O 0.87558 0.23665 0.83859 0.0
C49 C 0.8935 0.19915 0.66851 0.0
O50 O 0.78377 0.21632 0.77586 0.0
O51 O 0.77679 0.17437 0.73154 0.0
O52 O 0.81184 0.07475 0.7296 0.0
O53 O 0.83329 0.10165 0.78908 0.0
C54 C 0.90701 0.15485 0.75029 0.0
C55 C 0.88114 0.21072 0.8518 0.0
C56 C 0.78477 0.14851 0.8328 0.0
O57 O 0.79064 0.13689 0.80148 0.0
O58 O 0.80154 0.18297 0.84055 0.0
C59 C 0.85227 0.2757 0.73317 0.0
O60 O 0.80898 0.17285 0.65856 0.0
O61 O 0.80017 0.11346 0.65879 0.0
C62 C 0.76417 0.19115 0.75147 0.0
C63 C 0.79531 0.13941 0.64452 0.0
Fe64 Fe 0.693 0.85989 0.21642 0.0
O65 O 0.68787 0.83916 0.26891 0.0
Fe66 Fe 0.60446 0.83979 0.19457 0.0
Fe67 Fe 0.72972 0.85755 0.30419 0.0
O68 O 0.64723 0.86085 0.22963 0.0
O69 O 0.6446 0.85912 0.23245 0.0
O70 O 0.68558 0.83814 0.27189 0.0
Fe71 Fe 0.64017 0.83963 0.28582 0.0
C72 C 0.74993 0.83459 0.23003 0.0
O73 O 0.72497 0.91332 0.23681 0.0
O74 O 0.76334 0.9029 0.27144 0.0
O75 O 0.59259 0.8438 0.29255 0.0
O76 O 0.58341 0.86236 0.23314 0.0
O77 O 0.63889 0.88669 0.16447 0.0
O78 O 0.69223 0.88329 0.16282 0.0
O79 O 0.71658 0.89091 0.33675 0.0
O80 O 0.67037 0.89295 0.30649 0.0
C81 C 0.67112 0.89594 0.15054 0.0
O82 O 0.60858 0.78545 0.26766 0.0
O83 O 0.57331 0.79038 0.22259 0.0
O84 O 0.73951 0.85349 0.2089 0.0
O85 O 0.74387 0.82871 0.26661 0.0
C86 C 0.75594 0.9246 0.25311 0.0
C87 C 0.69698 0.90589 0.33047 0.0
C88 C 0.66397 0.8084 0.35426 0.0
O89 O 0.69457 0.81436 0.33881 0.0
O90 O 0.64243 0.81985 0.34074 0.0
C91 C 0.57726 0.85696 0.26978 0.0
O92 O 0.62412 0.8139 0.15804 0.0
O93 O 0.66294 0.80717 0.19524 0.0
C94 C 0.58039 0.77122 0.24577 0.0
C95 C 0.64376 0.79918 0.1649 0.0
Fe96 Fe 0.8316 0.70095 0.74199 0.0
O97 O 0.84923 0.6867 0.78855 0.0
Fe98 Fe 0.75922 0.61693 0.71024 0.0
Fe99 Fe 0.8756 0.72169 0.83035 0.0
O100 O 0.78471 0.65396 0.75103 0.0
O101 O 0.78376 0.65119 0.75329 0.0
O102 O 0.84803 0.68407 0.7911 0.0
Fe103 Fe 0.80065 0.63805 0.80144 0.0
C104 C 0.91469 0.75444 0.75549 0.0
O105 O 0.81267 0.729 0.77502 0.0
O106 O 0.86244 0.76047 0.8117 0.0
O107 O 0.74794 0.59121 0.80529 0.0
O108 O 0.71761 0.59237 0.75027 0.0
O109 O 0.74841 0.65688 0.69084 0.0
O110 O 0.80577 0.70965 0.69391 0.0
O111 O 0.83192 0.70235 0.86824 0.0
O112 O 0.78155 0.66693 0.83321 0.0
C113 C 0.77188 0.69063 0.68122 0.0
O114 O 0.81954 0.60818 0.7712 0.0
O115 O 0.77495 0.5799 0.72741 0.0
O116 O 0.88456 0.74783 0.73767 0.0
O117 O 0.91609 0.74256 0.78948 0.0
C118 C 0.83219 0.75556 0.79794 0.0
C119 C 0.79726 0.68697 0.8627 0.0
C120 C 0.85914 0.6487 0.86361 0.0
O121 O 0.88424 0.68056 0.85095 0.0
O122 O 0.82501 0.6309 0.85163 0.0
C123 C 0.71831 0.58056 0.78457 0.0
O124 O 0.80316 0.63951 0.67187 0.0
O125 O 0.85154 0.67434 0.70883 0.0
C126 C 0.80291 0.58341 0.74548 0.0
C127 C 0.83788 0.6576 0.67738 0.0
Fe128 Fe 0.12829 0.82474 0.2467 0.0
O129 O 0.15321 0.8479 0.29626 0.0
Fe130 Fe 0.15208 0.75815 0.22974 0.0
Fe131 Fe 0.13566 0.87324 0.33035 0.0
O132 O 0.13239 0.78162 0.26401 0.0
O133 O 0.13351 0.78071 0.26709 0.0
O134 O 0.15428 0.84702 0.2992 0.0
Fe135 Fe 0.15807 0.80386 0.3174 0.0
C136 C 0.14634 0.90594 0.25045 0.0
O137 O 0.07768 0.80246 0.27142 0.0
O138 O 0.08489 0.85189 0.30348 0.0
O139 O 0.15911 0.75484 0.32879 0.0
O140 O 0.13631 0.71948 0.27323 0.0
O141 O 0.10188 0.73922 0.20265 0.0
O142 O 0.10106 0.79386 0.19698 0.0
O143 O 0.11223 0.8321 0.37079 0.0
O144 O 0.1071 0.7809 0.34389 0.0
C145 C 0.08932 0.75932 0.18787 0.0
O146 O 0.20967 0.82669 0.29372 0.0
O147 O 0.20373 0.78164 0.25429 0.0
O148 O 0.12843 0.87373 0.23364 0.0
O149 O 0.15559 0.91124 0.28656 0.0
C150 C 0.06459 0.82134 0.28601 0.0
C151 C 0.09801 0.79707 0.36924 0.0
C152 C 0.19526 0.86954 0.3764 0.0
O153 O 0.1844 0.89005 0.35938 0.0
O154 O 0.18388 0.83484 0.36806 0.0
C155 C 0.14605 0.72391 0.3093 0.0
O156 O 0.17152 0.79961 0.18809 0.0
O157 O 0.17869 0.84798 0.2212 0.0
C158 C 0.22334 0.81022 0.27493 0.0
C159 C 0.18439 0.83438 0.19122 0.0
Fe160 Fe 0.2656 0.15857 0.72673 0.0
O161 O 0.30159 0.16742 0.76687 0.0
Fe162 Fe 0.35126 0.17092 0.75182 0.0
Fe163 Fe 0.28973 0.135 0.81266 0.0
O164 O 0.30424 0.16931 0.76444 0.0
O165 O 0.34014 0.13938 0.79868 0.0
O166 O 0.33751 0.13761 0.80128 0.0
Fe167 Fe 0.37531 0.15002 0.84101 0.0
C168 C 0.2329 0.16067 0.80349 0.0
O169 O 0.22967 0.10568 0.74432 0.0
O170 O 0.26273 0.08807 0.77901 0.0
O171 O 0.40039 0.13505 0.79892 0.0
O172 O 0.39945 0.1677 0.74578 0.0
O173 O 0.32425 0.12372 0.71805 0.0
O174 O 0.28585 0.13671 0.6864 0.0
O175 O 0.28374 0.10072 0.86003 0.0
O176 O 0.33739 0.09816 0.86045 0.0
C177 C 0.30244 0.11826 0.69003 0.0
O178 O 0.41041 0.20346 0.82432 0.0
O179 O 0.37922 0.21885 0.78373 0.0
O180 O 0.24394 0.17554 0.76995 0.0
O181 O 0.24157 0.13795 0.81957 0.0
C182 C 0.23627 0.08076 0.75604 0.0
C183 C 0.30377 0.08657 0.87141 0.0
C184 C 0.33406 0.18683 0.87595 0.0
O185 O 0.31507 0.18163 0.84588 0.0
O186 O 0.35232 0.17024 0.88107 0.0
C187 C 0.41137 0.14886 0.76482 0.0
O188 O 0.35648 0.20462 0.70385 0.0
O189 O 0.30419 0.20972 0.70709 0.0
C190 C 0.40525 0.22755 0.80769 0.0
C191 C 0.33698 0.22 0.69443 0.0
C192 C 0.1486 0.44901 0.3033 0.0
C193 C 0.17882 0.44555 0.31493 0.0
C194 C 0.14341 0.47718 0.31806 0.0
C195 C 0.19577 0.57142 0.35362 0.0
H196 H 0.09835 0.55834 0.36875 0.0
C197 C 0.17168 0.69609 0.35502 0.0
C198 C 0.14473 0.69157 0.32806 0.0
C199 C 0.17446 0.66553 0.36689 0.0
C200 C 0.12578 0.56248 0.3649 0.0
H201 H 0.2266 0.46812 0.35235 0.0
H202 H 0.21784 0.51822 0.3779 0.0
H203 H 0.10627 0.5043 0.36537 0.0
H204 H 0.09797 0.65138 0.29466 0.0
H205 H 0.10251 0.59839 0.31549 0.0
H206 H 0.215 0.6295 0.35102 0.0
C207 C 0.19812 0.49883 0.35737 0.0
C208 C 0.13032 0.53155 0.36298 0.0
C209 C 0.20303 0.4701 0.34292 0.0
C210 C 0.11913 0.65575 0.31533 0.0
C211 C 0.12159 0.6253 0.32752 0.0
C212 C 0.19123 0.60242 0.35552 0.0
C213 C 0.16849 0.50293 0.34463 0.0
C214 C 0.16511 0.53559 0.35566 0.0
C215 C 0.14996 0.62991 0.35248 0.0
C216 C 0.15593 0.59817 0.35953 0.0
H217 H 0.12927 0.43034 0.28201 0.0
H218 H 0.1206 0.47978 0.30722 0.0
H219 H 0.2229 0.57546 0.34773 0.0
H220 H 0.19193 0.72341 0.36515 0.0
H221 H 0.19648 0.66991 0.38633 0.0
C222 C 0.46322 0.16801 0.71798 0.0
C223 C 0.44186 0.14514 0.74813 0.0
C224 C 0.4955 0.16856 0.70673 0.0
C225 C 0.55048 0.12137 0.7194 0.0
H226 H 0.63336 0.22145 0.71923 0.0
C227 C 0.71228 0.20307 0.76397 0.0
C228 C 0.72589 0.18277 0.74458 0.0
C229 C 0.67694 0.1967 0.75638 0.0
C230 C 0.61048 0.19333 0.71906 0.0
H231 H 0.43597 0.10252 0.78766 0.0
H232 H 0.49218 0.1039 0.7685 0.0
H233 H 0.57104 0.21144 0.71773 0.0
H234 H 0.71265 0.13941 0.70221 0.0
H235 H 0.65056 0.12815 0.6892 0.0
H236 H 0.59021 0.10347 0.72293 0.0
C237 C 0.48412 0.12136 0.75341 0.0
C238 C 0.57475 0.18755 0.71766 0.0
C239 C 0.452 0.12088 0.76471 0.0
C240 C 0.70303 0.15552 0.71772 0.0
C241 C 0.66747 0.14902 0.71025 0.0
C242 C 0.58632 0.12717 0.72077 0.0
C243 C 0.50691 0.1461 0.72524 0.0
C244 C 0.54431 0.15155 0.71907 0.0
C245 C 0.65424 0.16982 0.72927 0.0
C246 C 0.61661 0.16327 0.72194 0.0
H247 H 0.45608 0.18686 0.70437 0.0
H248 H 0.51225 0.18755 0.68452 0.0
H249 H 0.52757 0.09329 0.72006 0.0
H250 H 0.72899 0.22419 0.7849 0.0
H251 H 0.66723 0.21263 0.7721 0.0
C252 C 0.31832 0.46051 0.22184 0.0
C253 C 0.3044 0.44009 0.25564 0.0
C254 C 0.35231 0.493 0.22186 0.0
C255 C 0.43917 0.55254 0.27355 0.0
H256 H 0.42767 0.63055 0.22757 0.0
C257 C 0.55077 0.7101 0.28034 0.0
C258 C 0.55374 0.73096 0.24759 0.0
C259 C 0.52302 0.67284 0.28265 0.0
C260 C 0.43169 0.60912 0.24004 0.0
H261 H 0.31644 0.43606 0.31532 0.0
H262 H 0.37643 0.49355 0.31543 0.0
H263 H 0.37589 0.56803 0.2287 0.0
H264 H 0.53162 0.72831 0.19059 0.0
H265 H 0.48433 0.66376 0.19418 0.0
H266 H 0.49541 0.59412 0.28458 0.0
C267 C 0.36085 0.48413 0.2889 0.0
C268 C 0.40188 0.5732 0.24077 0.0
C269 C 0.32662 0.45123 0.28882 0.0
C270 C 0.52966 0.71332 0.21658 0.0
C271 C 0.50236 0.67624 0.21872 0.0
C272 C 0.46935 0.58875 0.2726 0.0
C273 C 0.3732 0.50612 0.25578 0.0
C274 C 0.40532 0.54434 0.25693 0.0
C275 C 0.49794 0.65572 0.25213 0.0
C276 C 0.46605 0.61736 0.25523 0.0
H277 H 0.302 0.45231 0.1957 0.0
H278 H 0.36149 0.50885 0.19566 0.0
H279 H 0.44256 0.53084 0.28635 0.0
H280 H 0.56898 0.72289 0.3047 0.0
H281 H 0.5204 0.65789 0.30883 0.0
C282 C 0.84053 0.31548 0.68827 0.0
C283 C 0.85997 0.31238 0.71954 0.0
C284 C 0.84132 0.34888 0.68143 0.0
C285 C 0.88563 0.44824 0.71193 0.0
H286 H 0.78635 0.43133 0.7014 0.0
C287 C 0.84166 0.55412 0.75922 0.0
C288 C 0.81542 0.55673 0.73635 0.0
C289 C 0.85168 0.52743 0.75095 0.0
C290 C 0.81437 0.43671 0.70372 0.0
H291 H 0.8986 0.34284 0.76548 0.0
H292 H 0.89957 0.40049 0.75394 0.0
H293 H 0.79736 0.37979 0.69454 0.0
H294 H 0.78067 0.53458 0.68564 0.0
H295 H 0.79824 0.48858 0.67136 0.0
H296 H 0.90222 0.50515 0.72259 0.0
C297 C 0.88369 0.37742 0.73463 0.0
C298 C 0.82073 0.40712 0.69957 0.0
C299 C 0.88287 0.34416 0.74147 0.0
C300 C 0.80048 0.533 0.70434 0.0
C301 C 0.81051 0.50653 0.69609 0.0
C302 C 0.87922 0.47792 0.71622 0.0
C303 C 0.86166 0.37974 0.70564 0.0
C304 C 0.85632 0.41235 0.70427 0.0
C305 C 0.8357 0.50295 0.71964 0.0
C306 C 0.8434 0.47233 0.71271 0.0
H307 H 0.82276 0.29156 0.67073 0.0
H308 H 0.82461 0.35001 0.65835 0.0
H309 H 0.91344 0.45328 0.71535 0.0
H310 H 0.85381 0.57207 0.78398 0.0
H311 H 0.87099 0.52516 0.76981 0.0
C312 C 0.28555 0.85201 0.3047 0.0
C313 C 0.2629 0.82235 0.28001 0.0
C314 C 0.32187 0.86074 0.31215 0.0
C315 C 0.40394 0.88365 0.30259 0.0
H316 H 0.42009 0.80077 0.3172 0.0
C317 C 0.53796 0.88614 0.26531 0.0
C318 C 0.54821 0.86357 0.28542 0.0
C319 C 0.50623 0.88709 0.27524 0.0
C320 C 0.41615 0.82436 0.31403 0.0
H321 H 0.26127 0.7795 0.24287 0.0
H322 H 0.32421 0.79483 0.25576 0.0
H323 H 0.35758 0.78996 0.31281 0.0
H324 H 0.53488 0.8267 0.33383 0.0
H325 H 0.47923 0.82836 0.35124 0.0
H326 H 0.46269 0.91793 0.30269 0.0
C327 C 0.31376 0.81094 0.26982 0.0
C328 C 0.38031 0.81808 0.31098 0.0
C329 C 0.27772 0.80239 0.26218 0.0
C330 C 0.52763 0.84423 0.31765 0.0
C331 C 0.49565 0.845 0.32747 0.0
C332 C 0.43992 0.88995 0.30548 0.0
C333 C 0.33603 0.83977 0.29533 0.0
C334 C 0.37385 0.84748 0.30398 0.0
C335 C 0.48391 0.86539 0.30546 0.0
C336 C 0.44641 0.8602 0.31007 0.0
H337 H 0.27503 0.86796 0.31896 0.0
H338 H 0.33851 0.88319 0.33186 0.0
H339 H 0.39974 0.90683 0.2973 0.0
H340 H 0.55349 0.90178 0.24062 0.0
H341 H 0.49794 0.9029 0.25751 0.0
C342 C 0.45743 0.27696 0.84562 0.0
C343 C 0.43213 0.26701 0.81512 0.0
C344 C 0.48506 0.3136 0.85097 0.0
C345 C 0.51652 0.41035 0.8232 0.0
H346 H 0.6136 0.422 0.83669 0.0
C347 C 0.6499 0.54052 0.77945 0.0
C348 C 0.68279 0.5507 0.7995 0.0
C349 C 0.61714 0.50912 0.78974 0.0
C350 C 0.58669 0.41943 0.83385 0.0
H351 H 0.41491 0.28814 0.76749 0.0
H352 H 0.4637 0.35226 0.77652 0.0
H353 H 0.55974 0.36066 0.83844 0.0
H354 H 0.70628 0.53723 0.84807 0.0
H355 H 0.64881 0.48248 0.86629 0.0
H356 H 0.54378 0.46923 0.81754 0.0
C357 C 0.46186 0.33164 0.79649 0.0
C358 C 0.55575 0.38416 0.83474 0.0
C359 C 0.43404 0.29487 0.79117 0.0
C360 C 0.68157 0.53005 0.83175 0.0
C361 C 0.64868 0.49854 0.84207 0.0
C362 C 0.54755 0.44573 0.82243 0.0
C363 C 0.48817 0.34121 0.82592 0.0
C364 C 0.52038 0.37914 0.82868 0.0
C365 C 0.61636 0.48711 0.82043 0.0
C366 C 0.58305 0.45057 0.82693 0.0
H367 H 0.45638 0.25631 0.86505 0.0
H368 H 0.50447 0.32022 0.87435 0.0
H369 H 0.48957 0.40737 0.819 0.0
H370 H 0.64959 0.55595 0.75471 0.0
H371 H 0.5929 0.50103 0.77222 0.0
C372 C 0.21507 0.19462 0.23426 0.0
C373 C 0.19086 0.20624 0.2211 0.0
C374 C 0.21638 0.16544 0.21613 0.0
C375 C 0.15352 0.08005 0.16932 0.0
H376 H 0.23927 0.0678 0.17092 0.0
C377 C 0.13759 0.93766 0.19372 0.0
C378 C 0.15715 0.93914 0.22712 0.0
C379 C 0.14621 0.97017 0.17415 0.0
C380 C 0.21509 0.07081 0.1696 0.0
H381 H 0.15091 0.19805 0.1768 0.0
H382 H 0.15278 0.14645 0.14559 0.0
H383 H 0.24733 0.12992 0.17015 0.0
H384 H 0.20304 0.97508 0.26419 0.0
H385 H 0.21779 0.03134 0.23055 0.0
H386 H 0.12128 0.02118 0.17215 0.0
C387 C 0.17071 0.16005 0.16995 0.0
C388 C 0.2197 0.10631 0.1692 0.0
C389 C 0.16964 0.18954 0.1879 0.0
C390 C 0.18699 0.97314 0.23898 0.0
C391 C 0.19586 0.00536 0.21925 0.0
C392 C 0.14891 0.04455 0.16981 0.0
C393 C 0.19335 0.14706 0.18456 0.0
C394 C 0.18897 0.11121 0.17163 0.0
C395 C 0.17493 0.00445 0.18733 0.0
C396 C 0.17968 0.03975 0.17261 0.0
H397 H 0.23217 0.20722 0.2594 0.0
H398 H 0.23378 0.15579 0.22843 0.0
H399 H 0.12928 0.08292 0.17121 0.0
H400 H 0.11466 0.91171 0.18372 0.0
H401 H 0.12966 0.96871 0.14959 0.0
C402 C 0.95685 0.17695 0.79934 0.0
C403 C 0.94278 0.16041 0.76328 0.0
C404 C 0.99003 0.1812 0.81278 0.0
C405 C 0.07641 0.19255 0.78016 0.0
H406 H 0.08289 0.15153 0.87767 0.0
C407 C 0.21015 0.20336 0.81968 0.0
C408 C 0.20589 0.16792 0.82223 0.0
C409 C 0.18025 0.20848 0.82598 0.0
C410 C 0.08148 0.16353 0.85069 0.0
H411 H 0.95231 0.13563 0.71293 0.0
H412 H 0.0112 0.14403 0.73612 0.0
H413 H 0.0246 0.14739 0.85811 0.0
H414 H 0.16904 0.11102 0.83801 0.0
H415 H 0.11614 0.11971 0.84815 0.0
H416 H 0.13253 0.20781 0.77184 0.0
C417 C -0.00383 0.15333 0.75394 0.0
C418 C 0.04833 0.16116 0.83954 0.0
C419 C 0.9626 0.14845 0.74075 0.0
C420 C 0.17276 0.13856 0.83584 0.0
C421 C 0.14259 0.1436 0.84173 0.0
C422 C 0.10951 0.19539 0.79147 0.0
C423 C 0.00997 0.1696 0.79009 0.0
C424 C 0.04546 0.17486 0.80374 0.0
C425 C 0.14561 0.17808 0.83428 0.0
C426 C 0.11219 0.18027 0.82645 0.0
H427 H 0.94194 0.18613 0.8175 0.0
H428 H 0.00033 0.19394 0.84064 0.0
H429 H 0.07478 0.20355 0.7526 0.0
H430 H 0.2358 0.22648 0.80982 0.0
H431 H 0.18336 0.23547 0.82084 0.0
C432 C 0.05078 0.18487 0.30588 0.0
C433 C 0.06756 0.2148 0.28051 0.0
C434 C 0.01338 0.15862 0.30202 0.0
C435 C 0.92878 0.11672 0.2963 0.0
H436 H 0.90005 0.07288 0.19456 0.0
C437 C 0.78337 0.99297 0.26092 0.0
C438 C 0.78604 0.96263 0.24749 0.0
C439 C 0.81474 0.02828 0.26213 0.0
C440 C 0.90755 0.08523 0.22297 0.0
H441 H 0.05795 0.24104 0.23167 0.0
H442 H 0.99297 0.19486 0.22467 0.0
H443 H 0.96112 0.12679 0.20476 0.0
H444 H 0.82233 0.94509 0.22303 0.0
H445 H 0.87659 0.00683 0.22346 0.0
H446 H 0.8754 0.0744 0.3146 0.0
C447 C 0.00872 0.19187 0.24762 0.0
C448 C 0.94239 0.11608 0.22881 0.0
C449 C 0.04592 0.21837 0.25179 0.0
C450 C 0.81971 0.96825 0.23325 0.0
C451 C 0.85066 0.0035 0.23348 0.0
C452 C 0.89364 0.08618 0.29031 0.0
C453 C 0.99218 0.16151 0.27239 0.0
C454 C 0.9537 0.13157 0.26571 0.0
C455 C 0.84876 0.03367 0.24887 0.0
C456 C 0.8831 0.06962 0.25378 0.0
H457 H 0.06664 0.18143 0.32837 0.0
H458 H 0.00138 0.1353 0.32133 0.0
H459 H 0.93674 0.12829 0.32497 0.0
H460 H 0.75766 0.98902 0.27241 0.0
H461 H 0.81267 0.05117 0.27416 0.0
C462 C 0.80623 0.03014 0.82154 0.0
C463 C 0.80312 0.0356 0.7822 0.0
C464 C 0.79752 0.99513 0.83502 0.0
C465 C 0.75787 0.89611 0.80286 0.0
H466 H 0.83389 0.89958 0.86883 0.0
C467 C 0.84774 0.81947 0.81633 0.0
C468 C 0.82093 0.78299 0.80721 0.0
C469 C 0.83768 0.84601 0.8241 0.0
C470 C 0.81248 0.89806 0.8502 0.0
H471 H 0.78606 0.00779 0.72673 0.0
H472 H 0.77246 0.94819 0.7496 0.0
H473 H 0.82858 0.95446 0.86166 0.0
H474 H 0.76241 0.74497 0.80117 0.0
H475 H 0.74448 0.79109 0.81614 0.0
H476 H 0.74426 0.84107 0.78815 0.0
C477 C 0.78078 0.97029 0.77051 0.0
C478 C 0.80897 0.92948 0.84667 0.0
C479 C 0.78913 0.00493 0.75719 0.0
C480 C 0.78366 0.77314 0.80743 0.0
C481 C 0.77346 0.79961 0.81601 0.0
C482 C 0.76196 0.86501 0.80565 0.0
C483 C 0.78569 0.965 0.8094 0.0
C484 C 0.78286 0.92947 0.82134 0.0
C485 C 0.80042 0.83661 0.82379 0.0
C486 C 0.79056 0.86621 0.82784 0.0
H487 H 0.81635 0.05304 0.84174 0.0
H488 H 0.80105 0.99195 0.86529 0.0
H489 H 0.73655 0.89468 0.78413 0.0
H490 H 0.87672 0.82786 0.81626 0.0
H491 H 0.85943 0.87422 0.82889 0.0
C492 C 0.7643 0.78455 0.2215 0.0
C493 C 0.77273 0.82074 0.21308 0.0
C494 C 0.7911 0.77433 0.21796 0.0
C495 C 0.8868 0.80379 0.18965 0.0
H496 H 0.89377 0.77443 0.29349 0.0
C497 C 0.00737 0.78574 0.24662 0.0
C498 C 0.02605 0.81049 0.2771 0.0
C499 C 0.97306 0.77962 0.23432 0.0
C500 C 0.89189 0.78212 0.26428 0.0
H501 H 0.81386 0.87346 0.1904 0.0
H502 H 0.86127 0.85577 0.18454 0.0
H503 H 0.83866 0.7755 0.27341 0.0
H504 H 0.0224 0.84631 0.32013 0.0
H505 H 0.96169 0.83439 0.29954 0.0
H506 H 0.94094 0.81152 0.1813 0.0
C507 C 0.83388 0.83516 0.19348 0.0
C508 C 0.8603 0.78246 0.25261 0.0
C509 C 0.80683 0.84531 0.19677 0.0
C510 C 0.00878 0.82727 0.29648 0.0
C511 C 0.97411 0.82045 0.28475 0.0
C512 C 0.91829 0.80283 0.20119 0.0
C513 C 0.82684 0.80035 0.2064 0.0
C514 C 0.85779 0.79415 0.21551 0.0
C515 C 0.95643 0.79727 0.25306 0.0
C516 C 0.92136 0.79297 0.23894 0.0
H517 H 0.73796 0.76514 0.23391 0.0
H518 H 0.78484 0.74714 0.22747 0.0
H519 H 0.88554 0.81301 0.16099 0.0
H520 H 0.01983 0.77216 0.23132 0.0
H521 H 0.95969 0.76143 0.20999 0.0
C522 C 0.21551 0.01285 0.75639 0.0
C523 C 0.21075 0.04215 0.74402 0.0
C524 C 0.18974 0.97636 0.74632 0.0
C525 C 0.11653 0.90547 0.74937 0.0
H526 H 0.0565 0.87925 0.65703 0.0
C527 C 0.95674 0.80903 0.7155 0.0
C528 C 0.95047 0.77826 0.7372 0.0
C529 C 0.99269 0.83543 0.7053 0.0
C530 C 0.0732 0.88609 0.68281 0.0
H531 H 0.17636 0.05624 0.70947 0.0
H532 H 0.13129 0.99324 0.6933 0.0
H533 H 0.11512 0.93738 0.65986 0.0
H534 H 0.97569 0.74831 0.76106 0.0
H535 H 0.03809 0.79398 0.74284 0.0
H536 H 0.07427 0.85507 0.77289 0.0
C537 C 0.15504 0.99809 0.71012 0.0
C538 C 0.10668 0.91935 0.68451 0.0
C539 C 0.18075 0.03437 0.71995 0.0
C540 C 0.97997 0.77234 0.74512 0.0
C541 C 0.01566 0.79841 0.73467 0.0
C542 C 0.08334 0.87219 0.74753 0.0
C543 C 0.15873 0.96855 0.72383 0.0
C544 C 0.12796 0.93009 0.71843 0.0
C545 C 0.02261 0.83111 0.71642 0.0
C546 C 0.06069 0.86277 0.71478 0.0
H547 H 0.23866 0.01798 0.77444 0.0
H548 H 0.19364 0.95422 0.75692 0.0
H549 H 0.13183 0.91296 0.77612 0.0
H550 H 0.93437 0.81405 0.7089 0.0
H551 H -0.00277 0.86046 0.69132 0.0
C552 C 0.26533 0.31928 0.15571 0.0
C553 C 0.24635 0.33858 0.14873 0.0
C554 C 0.28038 0.309 0.12552 0.0
C555 C 0.26701 0.28768 0.02227 0.0
H556 H 0.35782 0.28494 0.03132 0.0
C557 C 0.31799 0.23429 0.89759 0.0
C558 C 0.332 0.2108 0.9065 0.0
C559 C 0.31199 0.25413 0.92634 0.0
C560 C 0.33224 0.28521 0.02844 0.0
H561 H 0.22985 0.3636 0.1044 0.0
H562 H 0.25646 0.34585 0.05151 0.0
H563 H 0.34011 0.31334 0.08238 0.0
H564 H 0.35195 0.19093 0.95276 0.0
H565 H 0.34092 0.22527 1.00332 0.0
H566 H 0.25853 0.25885 0.96894 0.0
C567 C 0.25926 0.33833 0.0805 0.0
C568 C 0.32213 0.30161 0.05768 0.0
C569 C 0.2443 0.34882 0.11084 0.0
C570 C 0.34123 0.20882 0.94488 0.0
C571 C 0.33496 0.22861 0.97385 0.0
C572 C 0.27703 0.27122 0.99315 0.0
C573 C 0.27683 0.31762 0.08741 0.0
C574 C 0.28924 0.30283 0.05509 0.0
C575 C 0.31953 0.25095 0.96501 0.0
C576 C 0.3097 0.26956 0.99585 0.0
H577 H 0.26754 0.31093 0.18452 0.0
H578 H 0.29335 0.29281 0.13198 0.0
H579 H 0.24114 0.2874 0.0196 0.0
H580 H 0.31098 0.23692 0.86828 0.0
H581 H 0.30099 0.27172 0.91821 0.0
C582 C 0.93145 0.2549 0.62755 0.0
C583 C 0.92589 0.22195 0.64428 0.0
C584 C 0.95869 0.27262 0.59948 0.0
C585 C 0.04326 0.27795 0.56019 0.0
H586 H 0.01168 0.29499 0.46147 0.0
C587 C 0.11319 0.2737 0.42214 0.0
C588 C 0.12137 0.3003 0.39349 0.0
C589 C 0.09162 0.27122 0.4536 0.0
C590 C 0.02117 0.29108 0.48903 0.0
H591 H 0.94539 0.18275 0.6464 0.0
H592 H 0.99323 0.21392 0.59856 0.0
H593 H 0.971 0.27947 0.51723 0.0
H594 H 0.11206 0.34458 0.37529 0.0
H595 H 0.07367 0.33989 0.43073 0.0
H596 H 0.09278 0.28829 0.53207 0.0
C597 C 0.97662 0.22609 0.60666 0.0
C598 C -0.00209 0.28224 0.52097 0.0
C599 C 0.94914 0.20814 0.63398 0.0
C600 C 0.1064 0.32382 0.39681 0.0
C601 C 0.08442 0.32114 0.42852 0.0
C602 C 0.06642 0.28682 0.52846 0.0
C603 C 0.98128 0.25809 0.58844 0.0
C604 C 0.00824 0.27431 0.55656 0.0
C605 C 0.07736 0.29516 0.45759 0.0
C606 C 0.05514 0.29215 0.49217 0.0
H607 H 0.91359 0.26587 0.63472 0.0
H608 H 0.96174 0.29729 0.58599 0.0
H609 H 0.05227 0.27264 0.58736 0.0
H610 H 0.12374 0.25475 0.4206 0.0
H611 H 0.08597 0.25026 0.47489 0.0
C612 C 0.71892 0.9363 0.10187 0.0
C613 C 0.68354 0.92189 0.11765 0.0
C614 C 0.72988 0.96094 0.07098 0.0
C615 C 0.70617 0.02517 0.0222 0.0
H616 H 0.76149 0.01732 0.93715 0.0
C617 C 0.75391 0.08372 0.85801 0.0
C618 C 0.76664 0.12159 0.86422 0.0
C619 C 0.74281 0.05922 0.88881 0.0
C620 C 0.74573 0.01966 0.96052 0.0
H621 H 0.63179 0.92184 0.11249 0.0
H622 H 0.65064 0.96386 0.05904 0.0
H623 H 0.74536 0.97513 0.99121 0.0
H624 H 0.77613 0.16293 0.90772 0.0
H625 H 0.75679 0.12028 0.9613 0.0
H626 H 0.70562 0.06895 0.99127 0.0
C627 C 0.67028 0.95689 0.07087 0.0
C628 C 0.73696 0.99581 0.99176 0.0
C629 C 0.65941 0.93249 0.10156 0.0
C630 C 0.76632 0.13396 0.90179 0.0
C631 C 0.75521 0.10945 0.93258 0.0
C632 C 0.71485 0.04891 0.99101 0.0
C633 C 0.70568 0.97167 0.05531 0.0
C634 C 0.71682 0.99811 0.02286 0.0
C635 C 0.74404 0.07191 0.92658 0.0
C636 C 0.7346 0.04639 0.95968 0.0
H637 H 0.73824 0.9288 0.1135 0.0
H638 H 0.75746 0.97202 0.05978 0.0
H639 H 0.69105 0.02806 0.0459 0.0
H640 H 0.75376 0.07312 0.82948 0.0
H641 H 0.7337 0.03037 0.88304 0.0
C642 C 0.73493 0.68256 0.62262 0.0
C643 C 0.75899 0.70638 0.65108 0.0
C644 C 0.72019 0.69542 0.59498 0.0
C645 C 0.73149 0.78019 0.54883 0.0
H646 H 0.6339 0.71057 0.51007 0.0
C647 C 0.66273 0.81556 0.42477 0.0
C648 C 0.65736 0.79257 0.39291 0.0
C649 C 0.66896 0.80578 0.46124 0.0
C650 C 0.66101 0.73039 0.52088 0.0
H651 H 0.7872 0.76275 0.67244 0.0
H652 H 0.76045 0.78545 0.62431 0.0
H653 H 0.65854 0.69413 0.56513 0.0
H654 H 0.65225 0.74072 0.37409 0.0
H655 H 0.661 0.72253 0.43819 0.0
H656 H 0.73348 0.81644 0.50433 0.0
C657 C 0.75339 0.75673 0.62319 0.0
C658 C 0.6754 0.72092 0.55217 0.0
C659 C 0.76873 0.74382 0.65077 0.0
C660 C 0.65549 0.75843 0.39844 0.0
C661 C 0.66075 0.7482 0.435 0.0
C662 C 0.71674 0.78992 0.51792 0.0
C663 C 0.72847 0.73246 0.59522 0.0
C664 C 0.71139 0.74511 0.56571 0.0
C665 C 0.66906 0.77248 0.4664 0.0
C666 C 0.68182 0.76466 0.50299 0.0
H667 H 0.72748 0.65369 0.62158 0.0
H668 H 0.70236 0.67612 0.5732 0.0
H669 H 0.7593 0.79948 0.55818 0.0
H670 H 0.66523 0.84247 0.42093 0.0
H671 H 0.67532 0.82491 0.48503 0.0
C672 C 0.85197 0.63866 0.93372 0.0
C673 C 0.86919 0.63753 0.89956 0.0
C674 C 0.86972 0.64338 0.96913 0.0
C675 C 0.93728 0.63823 0.02715 0.0
H676 H 0.97853 0.74211 0.05273 0.0
C677 C 0.0563 0.71106 0.13684 0.0
C678 C 0.06042 0.74185 0.15773 0.0
C679 C 0.02948 0.69471 0.10808 0.0
C680 C 0.96671 0.71285 0.04691 0.0
H681 H 0.91672 0.63736 0.87566 0.0
H682 H 0.94675 0.64346 0.93785 0.0
H683 H 0.93489 0.71516 0.9999 0.0
H684 H 0.03916 0.77934 0.16491 0.0
H685 H 0.9909 0.74954 0.11678 0.0
H686 H 0.96809 0.63526 0.07453 0.0
C687 C 0.91983 0.64111 0.93715 0.0
C688 C 0.94181 0.69752 1.01636 0.0
C689 C 0.90256 0.63735 0.90168 0.0
C690 C 0.03674 0.75563 0.14944 0.0
C691 C 0.00921 0.73865 0.12137 0.0
C692 C 0.96155 0.65331 0.0584 0.0
C693 C 0.9044 0.64601 0.97086 0.0
C694 C 0.92731 0.66028 1.00592 0.0
C695 C 0.00534 0.7081 0.09991 0.0
C696 C 0.97723 0.6911 0.06837 0.0
H697 H 0.82678 0.63991 0.93275 0.0
H698 H 0.85755 0.64745 0.9948 0.0
H699 H 0.92643 0.60943 0.01944 0.0
H700 H 0.07438 0.69998 0.14211 0.0
H701 H 0.02834 0.67199 0.09179 0.0
C702 C 0.31366 0.06874 0.6616 0.0
C703 C 0.29618 0.09006 0.66002 0.0
C704 C 0.30757 0.04259 0.63269 0.0
C705 C 0.27746 0.02128 0.53135 0.0
H706 H 0.25949 0.92255 0.55251 0.0
C707 C 0.2061 0.87355 0.44715 0.0
C708 C 0.21909 0.887 0.41023 0.0
C709 C 0.22197 0.89636 0.47954 0.0
C710 C 0.26452 0.95004 0.54613 0.0
H711 H 0.25768 0.09953 0.62708 0.0
H712 H 0.24722 0.0544 0.57732 0.0
H713 H 0.27291 0.9665 0.60561 0.0
H714 H 0.26057 0.93327 0.37825 0.0
H715 H 0.28945 0.97231 0.43453 0.0
H716 H 0.26787 0.00498 0.47242 0.0
C717 C 0.26612 0.05821 0.60044 0.0
C718 C 0.2725 0.97531 0.57653 0.0
C719 C 0.27206 0.08409 0.6292 0.0
C720 C 0.25021 0.92221 0.40647 0.0
C721 C 0.26636 0.94474 0.43872 0.0
C722 C 0.26965 0.99624 0.50115 0.0
C723 C 0.28405 0.03738 0.60149 0.0
C724 C 0.27842 0.01105 0.5695 0.0
C725 C 0.25121 0.93294 0.47547 0.0
C726 C 0.26268 0.96012 0.50802 0.0
H727 H 0.33225 0.0724 0.685 0.0
H728 H 0.32187 0.02705 0.63432 0.0
H729 H 0.28237 0.0487 0.52478 0.0
H730 H 0.18164 0.84676 0.4507 0.0
H731 H 0.20945 0.88631 0.50729 0.0
C732 C 0.7408 0.68906 0.8834 0.0
C733 C 0.7748 0.69188 0.89248 0.0
C734 C 0.72064 0.69524 0.91171 0.0
C735 C 0.7086 0.69522 1.01651 0.0
H736 H 0.6766 0.76627 0.9978 0.0
C737 C 0.67583 0.76631 0.13977 0.0
C738 C 0.64947 0.77739 0.1345 0.0
C739 C 0.68526 0.75043 0.10963 0.0
C740 C 0.68459 0.74576 1.00338 0.0
H741 H 0.8139 0.7026 0.93845 0.0
H742 H 0.77857 0.7127 0.98769 0.0
H743 H 0.70374 0.74854 0.9457 0.0
H744 H 0.61106 0.77861 0.09363 0.0
H745 H 0.62685 0.74995 0.04121 0.0
H746 H 0.68971 0.69234 0.07407 0.0
C747 C 0.76751 0.70587 0.95878 0.0
C748 C 0.70027 0.7357 0.97348 0.0
C749 C 0.78787 0.70034 0.93048 0.0
C750 C 0.63156 0.77055 0.09871 0.0
C751 C 0.64087 0.7544 0.06852 0.0
C752 C 0.69261 0.70493 0.04627 0.0
C753 C 0.73378 0.7036 0.94974 0.0
C754 C 0.71324 0.711 0.98 0.0
C755 C 0.66841 0.74481 0.07335 0.0
C756 C 0.68122 0.73106 0.04042 0.0
H757 H 0.73015 0.68281 0.85431 0.0
H758 H 0.6947 0.69328 0.90396 0.0
H759 H 0.71782 0.67565 0.02222 0.0
H760 H 0.69037 0.77121 0.16683 0.0
H761 H 0.70696 0.744 0.11446 0.0
C762 C 0.07759 0.79083 0.43699 0.0
C763 C 0.07172 0.77552 0.3999 0.0
C764 C 0.05155 0.77343 0.46572 0.0
C765 C 0.96704 0.68625 0.4934 0.0
H766 H 0.95588 0.75388 0.56154 0.0
C767 C 0.85065 0.6465 0.60904 0.0
C768 C 0.86353 0.66343 0.64522 0.0
C769 C 0.87487 0.65582 0.57787 0.0
C770 C 0.95877 0.73462 0.54287 0.0
H771 H 0.03453 0.72919 0.36403 0.0
H772 H 0.98793 0.69896 0.41427 0.0
H773 H -0.00043 0.77823 0.5092 0.0
H774 H 0.91253 0.70227 0.67713 0.0
H775 H 0.9541 0.71861 0.62302 0.0
H776 H 0.92506 0.6426 0.52723 0.0
C777 C 0.01312 0.72425 0.42128 0.0
C778 C 0.98403 0.74855 0.51291 0.0
C779 C 0.03973 0.74151 0.39247 0.0
C780 C 0.90139 0.6887 0.64978 0.0
C781 C 0.92533 0.69825 0.6187 0.0
C782 C 0.94123 0.67222 0.5233 0.0
C783 C 0.01836 0.74054 0.45807 0.0
C784 C 0.98925 0.7247 0.48824 0.0
C785 C 0.91226 0.68257 0.58224 0.0
C786 C 0.93745 0.69639 0.54878 0.0
H787 H 0.10233 0.8167 0.44375 0.0
H788 H 0.05734 0.78621 0.49395 0.0
H789 H 0.97029 0.66703 0.47506 0.0
H790 H 0.82172 0.62687 0.60451 0.0
H791 H 0.8641 0.64335 0.55003 0.0
C792 C 0.25293 0.04208 0.91558 0.0
C793 C 0.2889 0.05697 0.90109 0.0
C794 C 0.24071 0.01628 0.94559 0.0
C795 C 0.277 0.98801 0.02696 0.0
H796 H 0.18198 0.8981 0.02752 0.0
C797 C 0.21759 0.89758 0.16211 0.0
C798 C 0.20032 0.85893 0.15741 0.0
C799 C 0.22858 0.92088 0.13026 0.0
C800 C 0.20869 0.92302 0.02766 0.0
H801 H 0.33966 0.05513 0.90659 0.0
H802 H 0.31847 0.01093 0.95841 0.0
H803 H 0.19936 0.94005 0.97267 0.0
H804 H 0.18149 0.81467 0.11519 0.0
H805 H 0.20083 0.85553 0.05946 0.0
H806 H 0.28642 0.97128 0.08182 0.0
C807 C 0.2998 0.01934 0.94687 0.0
C808 C 0.21846 0.9472 0.99644 0.0
C809 C 0.31184 0.04465 0.91684 0.0
C810 C 0.19502 0.84428 0.11993 0.0
C811 C 0.2057 0.86765 0.08797 0.0
C812 C 0.26708 0.96415 0.05828 0.0
C813 C 0.26432 0.00518 0.96203 0.0
C814 C 0.25288 0.97986 0.99561 0.0
C815 C 0.22234 0.90623 0.09277 0.0
C816 C 0.23288 0.93127 0.059 0.0
H817 H 0.23443 0.05078 0.90425 0.0
H818 H 0.21319 0.0059 0.95671 0.0
H819 H 0.30358 0.01311 0.02741 0.0
H820 H 0.2219 0.9099 0.19049 0.0
H821 H 0.24101 0.95041 0.13502 0.0
C822 C 0.36692 0.24492 0.6306 0.0
C823 C 0.34975 0.24823 0.66378 0.0
C824 C 0.36874 0.26466 0.59736 0.0
C825 C 0.34891 0.33722 0.55849 0.0
H826 H 0.31716 0.27321 0.46878 0.0
C827 C 0.26741 0.35053 0.42983 0.0
C828 C 0.27209 0.33864 0.39353 0.0
C829 C 0.28683 0.34858 0.46182 0.0
C830 C 0.3267 0.29191 0.49323 0.0
H831 H 0.32441 0.2775 0.68936 0.0
H832 H 0.32729 0.31138 0.63205 0.0
H833 H 0.33521 0.25392 0.52631 0.0
H834 H 0.30308 0.31875 0.36149 0.0
H835 H 0.33764 0.31652 0.41663 0.0
H836 H 0.33858 0.37442 0.52548 0.0
C837 C 0.33949 0.29385 0.63115 0.0
C838 C 0.33725 0.28082 0.5264 0.0
C839 C 0.33767 0.2742 0.66415 0.0
C840 C 0.29881 0.32795 0.3892 0.0
C841 C 0.31833 0.32629 0.4209 0.0
C842 C 0.33811 0.34824 0.52525 0.0
C843 C 0.3535 0.28814 0.59672 0.0
C844 C 0.34785 0.30293 0.55982 0.0
C845 C 0.31135 0.33485 0.45794 0.0
C846 C 0.32632 0.32544 0.49235 0.0
H847 H 0.37632 0.22502 0.62934 0.0
H848 H 0.38048 0.26014 0.57163 0.0
H849 H 0.35739 0.3553 0.58342 0.0
H850 H 0.24664 0.35841 0.43408 0.0
H851 H 0.28067 0.35533 0.48991 0.0
C852 C 0.08756 0.32879 0.13138 0.0
C853 C 0.09982 0.30577 0.14692 0.0
C854 C 0.06238 0.31653 0.10085 0.0
C855 C 0.02641 0.24789 0.02129 0.0
H856 H 0.95049 0.27491 1.01628 0.0
C857 C 0.9147 0.19421 0.90105 0.0
C858 C 0.90583 0.21998 0.88584 0.0
C859 C 0.93748 0.20307 0.9335 0.0
C860 C 0.97175 0.2674 1.01704 0.0
H861 H 0.09412 0.25119 0.14285 0.0
H862 H 0.05001 0.22983 0.08997 0.0
H863 H 0.99101 0.29296 0.07213 0.0
H864 H 0.9146 0.27557 0.893 0.0
H865 H 0.95421 0.29087 0.949 0.0
H866 H 0.00718 0.22247 0.96602 0.0
C867 C 0.0604 0.25763 0.101 0.0
C868 C 0.99501 0.27777 0.04911 0.0
C869 C 0.08559 0.26987 0.13154 0.0
C870 C 0.92058 0.25486 0.90381 0.0
C871 C 0.94317 0.26362 0.93623 0.0
C872 C 0.00308 0.23747 0.98919 0.0
C873 C 0.04869 0.2809 0.08502 0.0
C874 C 0.02288 0.26845 0.05154 0.0
C875 C 0.9518 0.23783 0.95165 0.0
C876 C 0.97567 0.24741 0.98648 0.0
H877 H 0.0979 0.35662 0.14229 0.0
H878 H 0.05435 0.3354 0.08902 0.0
H879 H 0.04785 0.24063 0.02191 0.0
H880 H 0.90397 0.1671 0.88802 0.0
H881 H 0.94337 0.18245 0.94475 0.0
C882 C 0.79781 0.14921 0.57423 0.0
C883 C 0.7772 0.13066 0.60668 0.0
C884 C 0.78648 0.13327 0.53768 0.0
C885 C 0.71337 0.06289 0.4774 0.0
H886 H 0.78483 0.0343 0.448 0.0
C887 C 0.67655 0.94087 0.37263 0.0
C888 C 0.70486 0.93884 0.35344 0.0
C889 C 0.68478 0.97001 0.3983 0.0
C890 C 0.76484 0.04267 0.45464 0.0
H891 H 0.72736 0.08287 0.62648 0.0
H892 H 0.70662 0.05588 0.56235 0.0
H893 H 0.7987 0.07779 0.50031 0.0
H894 H 0.76355 0.96651 0.34368 0.0
H895 H 0.77787 0.0189 0.38551 0.0
H896 H 0.6796 0.02837 0.43143 0.0
C897 C 0.73157 0.08247 0.56513 0.0
C898 C 0.77287 0.0676 0.48498 0.0
C899 C 0.74335 0.09792 0.60174 0.0
C900 C 0.74128 0.96738 0.35851 0.0
C901 C 0.74943 0.99719 0.38299 0.0
C902 C 0.70565 0.03865 0.44619 0.0
C903 C 0.75398 0.09904 0.53309 0.0
C904 C 0.74698 0.07736 0.49715 0.0
C905 C 0.7215 0.99838 0.40443 0.0
C906 C 0.73094 0.02742 0.43486 0.0
H907 H 0.82439 0.17407 0.57747 0.0
H908 H 0.80428 0.14639 0.51336 0.0
H909 H 0.69292 0.06997 0.48644 0.0
H910 H 0.64823 0.91893 0.36933 0.0
H911 H 0.66237 0.96924 0.4144 0.0
loop_
_geom_bond_atom_site_label_1
_geom_bond_atom_site_label_2
_geom_bond_distance
_geom_bond_site_symmetry_2
_ccdc_geom_bond_type
Fe0 O1 1.886 . S
Fe0 O4 1.715 . S
Fe0 O9 2.077 . S
Fe0 O14 1.935 . S
Fe0 O20 2.077 . S
Fe0 O29 1.935 . S
O1 Fe0 1.886 . S
O1 Fe3 1.715 . S
Fe2 O4 1.886 . S
Fe2 O5 1.715 . S
Fe2 O12 1.935 . S
Fe2 O13 2.077 . S
Fe2 O19 1.935 . S
Fe2 O28 2.077 . S
Fe3 O1 1.715 . S
Fe3 O6 1.886 . S
Fe3 O10 1.935 . S
Fe3 O15 2.077 . S
Fe3 O21 1.935 . S
Fe3 O25 2.077 . S
O4 Fe0 1.715 . S
O4 Fe2 1.886 . S
O5 Fe2 1.715 . S
O5 Fe7 1.886 . S
O6 Fe3 1.886 . S
O6 Fe7 1.715 . S
Fe7 O5 1.886 . S
Fe7 O6 1.715 . S
Fe7 O11 2.077 . S
Fe7 O16 1.935 . S
Fe7 O18 2.077 . S
Fe7 O26 1.935 . S
C8 O20 1.381 . S
C8 O21 1.421 . S
O9 Fe0 2.077 . S
O9 C22 1.381 . S
O10 Fe3 1.935 . S
O10 C22 1.421 . S
O11 Fe7 2.077 . S
O11 C27 1.381 . S
O12 Fe2 1.935 . S
O12 C27 1.421 . S
O13 Fe2 2.077 . S
O13 C17 1.381 . S
O14 Fe0 1.935 . S
O14 C17 1.421 . S
O15 Fe3 2.077 . S
O15 C23 1.381 . S
O16 Fe7 1.935 . S
O16 C23 1.421 . S
C17 O13 1.381 . S
C17 O14 1.421 . S
O18 Fe7 2.077 . S
O18 C30 1.381 . S
O19 Fe2 1.935 . S
O19 C30 1.421 . S
O20 Fe0 2.077 . S
O20 C8 1.381 . S
O21 Fe3 1.935 . S
O21 C8 1.421 . S
C22 O9 1.381 . S
C22 O10 1.421 . S
C23 O15 1.381 . S
C23 O16 1.421 . S
C24 O25 1.381 . S
C24 O26 1.421 . S
O25 Fe3 2.077 . S
O25 C24 1.381 . S
O26 Fe7 1.935 . S
O26 C24 1.421 . S
C27 O11 1.381 . S
C27 O12 1.421 . S
O28 Fe2 2.077 . S
O28 C31 1.381 . S
O29 Fe0 1.935 . S
O29 C31 1.421 . S
C30 O18 1.381 . S
C30 O19 1.421 . S
C31 O28 1.381 . S
C31 O29 1.421 . S
Fe32 O33 1.886 . S
Fe32 O36 1.715 . S
Fe32 O41 2.077 . S
Fe32 O46 1.935 . S
Fe32 O52 2.077 . S
Fe32 O61 1.935 . S
O33 Fe32 1.886 . S
O33 Fe35 1.715 . S
Fe34 O36 1.886 . S
Fe34 O37 1.715 . S
Fe34 O44 1.935 . S
Fe34 O45 2.077 . S
Fe34 O51 1.935 . S
Fe34 O60 2.077 . S
Fe35 O33 1.715 . S
Fe35 O38 1.886 . S
Fe35 O42 1.935 . S
Fe35 O47 2.077 . S
Fe35 O53 1.935 . S
Fe35 O57 2.077 . S
O36 Fe32 1.715 . S
O36 Fe34 1.886 . S
O37 Fe34 1.715 . S
O37 Fe39 1.886 . S
O38 Fe35 1.886 . S
O38 Fe39 1.715 . S
Fe39 O37 1.886 . S
Fe39 O38 1.715 . S
Fe39 O43 2.077 . S
Fe39 O48 1.935 . S
Fe39 O50 2.077 . S
Fe39 O58 1.935 . S
C40 O52 1.381 . S
C40 O53 1.421 . S
O41 Fe32 2.077 . S
O41 C54 1.381 . S
O42 Fe35 1.935 . S
O42 C54 1.421 . S
O43 Fe39 2.077 . S
O43 C59 1.381 . S
O44 Fe34 1.935 . S
O44 C59 1.421 . S
O45 Fe34 2.077 . S
O45 C49 1.381 . S
O46 Fe32 1.935 . S
O46 C49 1.421 . S
O47 Fe35 2.077 . S
O47 C55 1.381 . S
O48 Fe39 1.935 . S
O48 C55 1.421 . S
C49 O45 1.381 . S
C49 O46 1.421 . S
O50 Fe39 2.077 . S
O50 C62 1.381 . S
O51 Fe34 1.935 . S
O51 C62 1.421 . S
O52 Fe32 2.077 . S
O52 C40 1.381 . S
O53 Fe35 1.935 . S
O53 C40 1.421 . S
C54 O41 1.381 . S
C54 O42 1.421 . S
C55 O47 1.381 . S
C55 O48 1.421 . S
C56 O57 1.381 . S
C56 O58 1.421 . S
O57 Fe35 2.077 . S
O57 C56 1.381 . S
O58 Fe39 1.935 . S
O58 C56 1.421 . S
C59 O43 1.381 . S
C59 O44 1.421 . S
O60 Fe34 2.077 . S
O60 C63 1.381 . S
O61 Fe32 1.935 . S
O61 C63 1.421 . S
C62 O50 1.381 . S
C62 O51 1.421 . S
C63 O60 1.381 . S
C63 O61 1.421 . S
Fe64 O65 1.886 . S
Fe64 O68 1.715 . S
Fe64 O73 2.077 . S
Fe64 O78 1.935 . S
Fe64 O84 2.077 . S
Fe64 O93 1.935 . S
O65 Fe64 1.886 . S
O65 Fe67 1.715 . S
Fe66 O68 1.886 . S
Fe66 O69 1.715 . S
Fe66 O76 1.935 . S
Fe66 O77 2.077 . S
Fe66 O83 1.935 . S
Fe66 O92 2.077 . S
Fe67 O65 1.715 . S
Fe67 O70 1.886 . S
Fe67 O74 1.935 . S
Fe67 O79 2.077 . S
Fe67 O85 1.935 . S
Fe67 O89 2.077 . S
O68 Fe64 1.715 . S
O68 Fe66 1.886 . S
O69 Fe66 1.715 . S
O69 Fe71 1.886 . S
O70 Fe67 1.886 . S
O70 Fe71 1.715 . S
Fe71 O69 1.886 . S
Fe71 O70 1.715 . S
Fe71 O75 2.077 . S
Fe71 O80 1.935 . S
Fe71 O82 2.077 . S
Fe71 O90 1.935 . S
C72 O84 1.381 . S
C72 O85 1.421 . S
O73 Fe64 2.077 . S
O73 C86 1.381 . S
O74 Fe67 1.935 . S
O74 C86 1.421 . S
O75 Fe71 2.077 . S
O75 C91 1.381 . S
O76 Fe66 1.935 . S
O76 C91 1.421 . S
O77 Fe66 2.077 . S
O77 C81 1.381 . S
O78 Fe64 1.935 . S
O78 C81 1.421 . S
O79 Fe67 2.077 . S
O79 C87 1.381 . S
O80 Fe71 1.935 . S
O80 C87 1.421 . S
C81 O77 1.381 . S
C81 O78 1.421 . S
O82 Fe71 2.077 . S
O82 C94 1.381 . S
O83 Fe66 1.935 . S
O83 C94 1.421 . S
O84 Fe64 2.077 . S
O84 C72 1.381 . S
O85 Fe67 1.935 . S
O85 C72 1.421 . S
C86 O73 1.381 . S
C86 O74 1.421 . S
C87 O79 1.381 . S
C87 O80 1.421 . S
C88 O89 1.381 . S
C88 O90 1.421 . S
O89 Fe67 2.077 . S
O89 C88 1.381 . S
O90 Fe71 1.935 . S
O90 C88 1.421 . S
C91 O75 1.381 . S
C91 O76 1.421 . S
O92 Fe66 2.077 . S
O92 C95 1.381 . S
O93 Fe64 1.935 . S
O93 C95 1.421 . S
C94 O82 1.381 . S
C94 O83 1.421 . S
C95 O92 1.381 . S
C95 O93 1.421 . S
Fe96 O97 1.886 . S
Fe96 O100 1.715 . S
Fe96 O105 2.077 . S
Fe96 O110 1.935 . S
Fe96 O116 2.077 . S
Fe96 O125 1.935 . S
O97 Fe96 1.886 . S
O97 Fe99 1.715 . S
Fe98 O100 1.886 . S
Fe98 O101 1.715 . S
Fe98 O108 1.935 . S
Fe98 O109 2.077 . S
Fe98 O115 1.935 . S
Fe98 O124 2.077 . S
Fe99 O97 1.715 . S
Fe99 O102 1.886 . S
Fe99 O106 1.935 . S
Fe99 O111 2.077 . S
Fe99 O117 1.935 . S
Fe99 O121 2.077 . S
O100 Fe96 1.715 . S
O100 Fe98 1.886 . S
O101 Fe98 1.715 . S
O101 Fe103 1.886 . S
O102 Fe99 1.886 . S
O102 Fe103 1.715 . S
Fe103 O101 1.886 . S
Fe103 O102 1.715 . S
Fe103 O107 2.077 . S
Fe103 O112 1.935 . S
Fe103 O114 2.077 . S
Fe103 O122 1.935 . S
C104 O116 1.381 . S
C104 O117 1.421 . S
O105 Fe96 2.077 . S
O105 C118 1.381 . S
O106 Fe99 1.935 . S
O106 C118 1.421 . S
O107 Fe103 2.077 . S
O107 C123 1.381 . S
O108 Fe98 1.935 . S
O108 C123 1.421 . S
O109 Fe98 2.077 . S
O109 C113 1.381 . S
O110 Fe96 1.935 . S
O110 C113 1.421 . S
O111 Fe99 2.077 . S
O111 C119 1.381 . S
O112 Fe103 1.935 . S
O112 C119 1.421 . S
C113 O109 1.381 . S
C113 O110 1.421 . S
O114 Fe103 2.077 . S
O114 C126 1.381 . S
O115 Fe98 1.935 . S
O115 C126 1.421 . S
O116 Fe96 2.077 . S
O116 C104 1.381 . S
O117 Fe99 1.935 . S
O117 C104 1.421 . S
C118 O105 1.381 . S
C118 O106 1.421 . S
C119 O111 1.381 . S
C119 O112 1.421 . S
C120 O121 1.381 . S
C120 O122 1.421 . S
O121 Fe99 2.077 . S
O121 C120 1.381 . S
O122 Fe103 1.935 . S
O122 C120 1.421 . S
C123 O107 1.381 . S
C123 O108 1.421 . S
O124 Fe98 2.077 . S
O124 C127 1.381 . S
O125 Fe96 1.935 . S
O125 C127 1.421 . S
C126 O114 1.381 . S
C126 O115 1.421 . S
C127 O124 1.381 . S
C127 O125 1.421 . S
Fe128 O129 1.886 . S
Fe128 O132 1.715 . S
Fe128 O137 2.077 . S
Fe128 O142 1.935 . S
Fe128 O148 2.077 . S
Fe128 O157 1.935 . S
O129 Fe128 1.886 . S
O129 Fe131 1.715 . S
Fe130 O132 1.886 . S
Fe130 O133 1.715 . S
Fe130 O140 1.935 . S
Fe130 O141 2.077 . S
Fe130 O147 1.935 . S
Fe130 O156 2.077 . S
Fe131 O129 1.715 . S
Fe131 O134 1.886 . S
Fe131 O138 1.935 . S
Fe131 O143 2.077 . S
Fe131 O149 1.935 . S
Fe131 O153 2.077 . S
O132 Fe128 1.715 . S
O132 Fe130 1.886 . S
O133 Fe130 1.715 . S
O133 Fe135 1.886 . S
O134 Fe131 1.886 . S
O134 Fe135 1.715 . S
Fe135 O133 1.886 . S
Fe135 O134 1.715 . S
Fe135 O139 2.077 . S
Fe135 O144 1.935 . S
Fe135 O146 2.077 . S
Fe135 O154 1.935 . S
C136 O148 1.381 . S
C136 O149 1.421 . S
O137 Fe128 2.077 . S
O137 C150 1.381 . S
O138 Fe131 1.935 . S
O138 C150 1.421 . S
O139 Fe135 2.077 . S
O139 C155 1.381 . S
O140 Fe130 1.935 . S
O140 C155 1.421 . S
O141 Fe130 2.077 . S
O141 C145 1.381 . S
O142 Fe128 1.935 . S
O142 C145 1.421 . S
O143 Fe131 2.077 . S
O143 C151 1.381 . S
O144 Fe135 1.935 . S
O144 C151 1.421 . S
C145 O141 1.381 . S
C145 O142 1.421 . S
O146 Fe135 2.077 . S
O146 C158 1.381 . S
O147 Fe130 1.935 . S
O147 C158 1.421 . S
O148 Fe128 2.077 . S
O148 C136 1.381 . S
O149 Fe131 1.935 . S
O149 C136 1.421 . S
C150 O137 1.381 . S
C150 O138 1.421 . S
C151 O143 1.381 . S
C151 O144 1.421 . S
C152 O153 1.381 . S
C152 O154 1.421 . S
O153 Fe131 2.077 . S
O153 C152 1.381 . S
O154 Fe135 1.935 . S
O154 C152 1.421 . S
C155 O139 1.381 . S
C155 O140 1.421 . S
O156 Fe130 2.077 . S
O156 C159 1.381 . S
O157 Fe128 1.935 . S
O157 C159 1.421 . S
C158 O146 1.381 . S
C158 O147 1.421 . S
C159 O156 1.381 . S
C159 O157 1.421 . S
Fe160 O161 1.886 . S
Fe160 O164 1.715 . S
Fe160 O169 2.077 . S
Fe160 O174 1.935 . S
Fe160 O180 2.077 . S
Fe160 O189 1.935 . S
O161 Fe160 1.886 . S
O161 Fe163 1.715 . S
Fe162 O164 1.886 . S
Fe162 O165 1.715 . S
Fe162 O172 1.935 . S
Fe162 O173 2.077 . S
Fe162 O179 1.935 . S
Fe162 O188 2.077 . S
Fe163 O161 1.715 . S
Fe163 O166 1.886 . S
Fe163 O170 1.935 . S
Fe163 O175 2.077 . S
Fe163 O181 1.935 . S
Fe163 O185 2.077 . S
O164 Fe160 1.715 . S
O164 Fe162 1.886 . S
O165 Fe162 1.715 . S
O165 Fe167 1.886 . S
O166 Fe163 1.886 . S
O166 Fe167 1.715 . S
Fe167 O165 1.886 . S
Fe167 O166 1.715 . S
Fe167 O171 2.077 . S
Fe167 O176 1.935 . S
Fe167 O178 2.077 . S
Fe167 O186 1.935 . S
C168 O180 1.381 . S
C168 O181 1.421 . S
O169 Fe160 2.077 . S
O169 C182 1.381 . S
O170 Fe163 1.935 . S
O170 C182 1.421 . S
O171 Fe167 2.077 . S
O171 C187 1.381 . S
O172 Fe162 1.935 . S
O172 C187 1.421 . S
O173 Fe162 2.077 . S
O173 C177 1.381 . S
O174 Fe160 1.935 . S
O174 C177 1.421 . S
O175 Fe163 2.077 . S
O175 C183 1.381 . S
O176 Fe167 1.935 . S
O176 C183 1.421 . S
C177 O173 1.381 . S
C177 O174 1.421 . S
O178 Fe167 2.077 . S
O178 C190 1.381 . S
O179 Fe162 1.935 . S
O179 C190 1.421 . S
O180 Fe160 2.077 . S
O180 C168 1.381 . S
O181 Fe163 1.935 . S
O181 C168 1.421 . S
C182 O169 1.381 . S
C182 O170 1.421 . S
C183 O175 1.381 . S
C183 O176 1.421 . S
C184 O185 1.381 . S
C184 O186 1.421 . S
O185 Fe163 2.077 . S
O185 C184 1.381 . S
O186 Fe167 1.935 . S
O186 C184 1.421 . S
C187 O171 1.381 . S
C187 O172 1.421 . S
O188 Fe162 2.077 . S
O188 C191 1.381 . S
O189 Fe160 1.935 . S
O189 C191 1.421 . S
C190 O178 1.381 . S
C190 O179 1.421 . S
C191 O188 1.381 . S
C191 O189 1.421 . S
C192 C193 1.349 . S
C192 C194 1.327 . S
C192 H217 0.950 . S
C193 C192 1.349 . S
C193 C209 1.349 . S
C194 C192 1.327 . S
C194 C213 1.429 . S
C194 H218 0.950 . S
C195 C212 1.574 . S
C195 C214 1.368 . S
C195 H219 0.949 . S
H196 C200 0.949 . S
C197 C198 1.349 . S
C197 C199 1.327 . S
C197 H220 0.950 . S
C198 C197 1.349 . S
C198 C210 1.349 . S
C199 C197 1.327 . S
C199 C215 1.429 . S
C199 H221 0.950 . S
C200 H196 0.949 . S
C200 C208 1.574 . S
C200 C216 1.368 . S
H201 C209 0.950 . S
H202 C207 0.950 . S
H203 C208 0.949 . S
H204 C210 0.950 . S
H205 C211 0.950 . S
H206 C212 0.949 . S
C207 H202 0.950 . S
C207 C209 1.327 . S
C207 C213 1.429 . S
C208 C200 1.574 . S
C208 H203 0.949 . S
C208 C214 1.368 . S
C209 C193 1.349 . S
C209 H201 0.950 . S
C209 C207 1.327 . S
C210 C198 1.349 . S
C210 H204 0.950 . S
C210 C211 1.327 . S
C211 H205 0.950 . S
C211 C210 1.327 . S
C211 C215 1.429 . S
C212 C195 1.574 . S
C212 H206 0.949 . S
C212 C216 1.368 . S
C213 C194 1.429 . S
C213 C207 1.429 . S
C213 C214 1.523 . S
C214 C195 1.368 . S
C214 C208 1.368 . S
C214 C213 1.523 . S
C215 C199 1.429 . S
C215 C211 1.429 . S
C215 C216 1.523 . S
C216 C200 1.368 . S
C216 C212 1.368 . S
C216 C215 1.523 . S
H217 C192 0.950 . S
H218 C194 0.950 . S
H219 C195 0.949 . S
H220 C197 0.950 . S
H221 C199 0.950 . S
C222 C223 1.349 . S
C222 C224 1.327 . S
C222 H247 0.950 . S
C223 C222 1.349 . S
C223 C239 1.349 . S
C224 C222 1.327 . S
C224 C243 1.429 . S
C224 H248 0.950 . S
C225 C242 1.574 . S
C225 C244 1.368 . S
C225 H249 0.949 . S
H226 C230 0.949 . S
C227 C228 1.349 . S
C227 C229 1.327 . S
C227 H250 0.950 . S
C228 C227 1.349 . S
C228 C240 1.349 . S
C229 C227 1.327 . S
C229 C245 1.429 . S
C229 H251 0.950 . S
C230 H226 0.949 . S
C230 C238 1.574 . S
C230 C246 1.368 . S
H231 C239 0.950 . S
H232 C237 0.950 . S
H233 C238 0.949 . S
H234 C240 0.950 . S
H235 C241 0.950 . S
H236 C242 0.949 . S
C237 H232 0.950 . S
C237 C239 1.327 . S
C237 C243 1.429 . S
C238 C230 1.574 . S
C238 H233 0.949 . S
C238 C244 1.368 . S
C239 C223 1.349 . S
C239 H231 0.950 . S
C239 C237 1.327 . S
C240 C228 1.349 . S
C240 H234 0.950 . S
C240 C241 1.327 . S
C241 H235 0.950 . S
C241 C240 1.327 . S
C241 C245 1.429 . S
C242 C225 1.574 . S
C242 H236 0.949 . S
C242 C246 1.368 . S
C243 C224 1.429 . S
C243 C237 1.429 . S
C243 C244 1.523 . S
C244 C225 1.368 . S
C244 C238 1.368 . S
C244 C243 1.523 . S
C245 C229 1.429 . S
C245 C241 1.429 . S
C245 C246 1.523 . S
C246 C230 1.368 . S
C246 C242 1.368 . S
C246 C245 1.523 . S
H247 C222 0.950 . S
H248 C224 0.950 . S
H249 C225 0.949 . S
H250 C227 0.950 . S
H251 C229 0.950 . S
C252 C253 1.349 . S
C252 C254 1.327 . S
C252 H277 0.950 . S
C253 C252 1.349 . S
C253 C269 1.349 . S
C254 C252 1.327 . S
C254 C273 1.429 . S
C254 H278 0.950 . S
C255 C272 1.574 . S
C255 C274 1.368 . S
C255 H279 0.949 . S
H256 C260 0.949 . S
C257 C258 1.349 . S
C257 C259 1.327 . S
C257 H280 0.950 . S
C258 C257 1.349 . S
C258 C270 1.349 . S
C259 C257 1.327 . S
C259 C275 1.429 . S
C259 H281 0.950 . S
C260 H256 0.949 . S
C260 C268 1.574 . S
C260 C276 1.368 . S
H261 C269 0.950 . S
H262 C267 0.950 . S
H263 C268 0.949 . S
H264 C270 0.950 . S
H265 C271 0.950 . S
H266 C272 0.949 . S
C267 H262 0.950 . S
C267 C269 1.327 . S
C267 C273 1.429 . S
C268 C260 1.574 . S
C268 H263 0.949 . S
C268 C274 1.368 . S
C269 C253 1.349 . S
C269 H261 0.950 . S
C269 C267 1.327 . S
C270 C258 1.349 . S
C270 H264 0.950 . S
C270 C271 1.327 . S
C271 H265 0.950 . S
C271 C270 1.327 . S
C271 C275 1.429 . S
C272 C255 1.574 . S
C272 H266 0.949 . S
C272 C276 1.368 . S
C273 C254 1.429 . S
C273 C267 1.429 . S
C273 C274 1.523 . S
C274 C255 1.368 . S
C274 C268 1.368 . S
C274 C273 1.523 . S
C275 C259 1.429 . S
C275 C271 1.429 . S
C275 C276 1.523 . S
C276 C260 1.368 . S
C276 C272 1.368 . S
C276 C275 1.523 . S
H277 C252 0.950 . S
H278 C254 0.950 . S
H279 C255 0.949 . S
H280 C257 0.950 . S
H281 C259 0.950 . S
C282 C283 1.349 . S
C282 C284 1.327 . S
C282 H307 0.950 . S
C283 C282 1.349 . S
C283 C299 1.349 . S
C284 C282 1.327 . S
C284 C303 1.429 . S
C284 H308 0.950 . S
C285 C302 1.574 . S
C285 C304 1.368 . S
C285 H309 0.949 . S
H286 C290 0.949 . S
C287 C288 1.349 . S
C287 C289 1.327 . S
C287 H310 0.950 . S
C288 C287 1.349 . S
C288 C300 1.349 . S
C289 C287 1.327 . S
C289 C305 1.429 . S
C289 H311 0.950 . S
C290 H286 0.949 . S
C290 C298 1.574 . S
C290 C306 1.368 . S
H291 C299 0.950 . S
H292 C297 0.950 . S
H293 C298 0.949 . S
H294 C300 0.950 . S
H295 C301 0.950 . S
H296 C302 0.949 . S
C297 H292 0.950 . S
C297 C299 1.327 . S
C297 C303 1.429 . S
C298 C290 1.574 . S
C298 H293 0.949 . S
C298 C304 1.368 . S
C299 C283 1.349 . S
C299 H291 0.950 . S
C299 C297 1.327 . S
C300 C288 1.349 . S
C300 H294 0.950 . S
C300 C301 1.327 . S
C301 H295 0.950 . S
C301 C300 1.327 . S
C301 C305 1.429 . S
C302 C285 1.574 . S
C302 H296 0.949 . S
C302 C306 1.368 . S
C303 C284 1.429 . S
C303 C297 1.429 . S
C303 C304 1.523 . S
C304 C285 1.368 . S
C304 C298 1.368 . S
C304 C303 1.523 . S
C305 C289 1.429 . S
C305 C301 1.429 . S
C305 C306 1.523 . S
C306 C290 1.368 . S
C306 C302 1.368 . S
C306 C305 1.523 . S
H307 C282 0.950 . S
H308 C284 0.950 . S
H309 C285 0.949 . S
H310 C287 0.950 . S
H311 C289 0.950 . S
C312 C313 1.349 . S
C312 C314 1.327 . S
C312 H337 0.950 . S
C313 C312 1.349 . S
C313 C329 1.349 . S
C314 C312 1.327 . S
C314 C333 1.429 . S
C314 H338 0.950 . S
C315 C332 1.574 . S
C315 C334 1.368 . S
C315 H339 0.949 . S
H316 C320 0.949 . S
C317 C318 1.349 . S
C317 C319 1.327 . S
C317 H340 0.950 . S
C318 C317 1.349 . S
C318 C330 1.349 . S
C319 C317 1.327 . S
C319 C335 1.429 . S
C319 H341 0.950 . S
C320 H316 0.949 . S
C320 C328 1.574 . S
C320 C336 1.368 . S
H321 C329 0.950 . S
H322 C327 0.950 . S
H323 C328 0.949 . S
H324 C330 0.950 . S
H325 C331 0.950 . S
H326 C332 0.949 . S
C327 H322 0.950 . S
C327 C329 1.327 . S
C327 C333 1.429 . S
C328 C320 1.574 . S
C328 H323 0.949 . S
C328 C334 1.368 . S
C329 C313 1.349 . S
C329 H321 0.950 . S
C329 C327 1.327 . S
C330 C318 1.349 . S
C330 H324 0.950 . S
C330 C331 1.327 . S
C331 H325 0.950 . S
C331 C330 1.327 . S
C331 C335 1.429 . S
C332 C315 1.574 . S
C332 H326 0.949 . S
C332 C336 1.368 . S
C333 C314 1.429 . S
C333 C327 1.429 . S
C333 C334 1.523 . S
C334 C315 1.368 . S
C334 C328 1.368 . S
C334 C333 1.523 . S
C335 C319 1.429 . S
C335 C331 1.429 . S
C335 C336 1.523 . S
C336 C320 1.368 . S
C336 C332 1.368 . S
C336 C335 1.523 . S
H337 C312 0.950 . S
H338 C314 0.950 . S
H339 C315 0.949 . S
H340 C317 0.950 . S
H341 C319 0.950 . S
C342 C343 1.349 . S
C342 C344 1.327 . S
C342 H367 0.950 . S
C343 C342 1.349 . S
C343 C359 1.349 . S
C344 C342 1.327 . S
C344 C363 1.429 . S
C344 H368 0.950 . S
C345 C362 1.574 . S
C345 C364 1.368 . S
C345 H369 0.949 . S
H346 C350 0.949 . S
C347 C348 1.349 . S
C347 C349 1.327 . S
C347 H370 0.950 . S
C348 C347 1.349 . S
C348 C360 1.349 . S
C349 C347 1.327 . S
C349 C365 1.429 . S
C349 H371 0.950 . S
C350 H346 0.949 . S
C350 C358 1.574 . S
C350 C366 1.368 . S
H351 C359 0.950 . S
H352 C357 0.950 . S
H353 C358 0.949 . S
H354 C360 0.950 . S
H355 C361 0.950 . S
H356 C362 0.949 . S
C357 H352 0.950 . S
C357 C359 1.327 . S
C357 C363 1.429 . S
C358 C350 1.574 . S
C358 H353 0.949 . S
C358 C364 1.368 . S
C359 C343 1.349 . S
C359 H351 0.950 . S
C359 C357 1.327 . S
C360 C348 1.349 . S
C360 H354 0.950 . S
C360 C361 1.327 . S
C361 H355 0.950 . S
C361 C360 1.327 . S
C361 C365 1.429 . S
C362 C345 1.574 . S
C362 H356 0.949 . S
C362 C366 1.368 . S
C363 C344 1.429 . S
C363 C357 1.429 . S
C363 C364 1.523 . S
C364 C345 1.368 . S
C364 C358 1.368 . S
C364 C363 1.523 . S
C365 C349 1.429 . S
C365 C361 1.429 . S
C365 C366 1.523 . S
C366 C350 1.368 . S
C366 C362 1.368 . S
C366 C365 1.523 . S
H367 C342 0.950 . S
H368 C344 0.950 . S
H369 C345 0.949 . S
H370 C347 0.950 . S
H371 C349 0.950 . S
C372 C373 1.349 . S
C372 C374 1.327 . S
C372 H397 0.950 . S
C373 C372 1.349 . S
C373 C389 1.349 . S
C374 C372 1.327 . S
C374 C393 1.429 . S
C374 H398 0.950 . S
C375 C392 1.574 . S
C375 C394 1.368 . S
C375 H399 0.949 . S
H376 C380 0.949 . S
C377 C378 1.349 . S
C377 C379 1.327 1_565 S
C377 H400 0.950 . S
C378 C377 1.349 . S
C378 C390 1.349 . S
C379 C377 1.327 1_545 S
C379 C395 1.429 . S
C379 H401 0.950 . S
C380 H376 0.949 . S
C380 C388 1.574 . S
C380 C396 1.368 . S
H381 C389 0.950 . S
H382 C387 0.950 . S
H383 C388 0.949 . S
H384 C390 0.950 . S
H385 C391 0.950 . S
H386 C392 0.949 . S
C387 H382 0.950 . S
C387 C389 1.327 . S
C387 C393 1.429 . S
C388 C380 1.574 . S
C388 H383 0.949 . S
C388 C394 1.368 . S
C389 C373 1.349 . S
C389 H381 0.950 . S
C389 C387 1.327 . S
C390 C378 1.349 . S
C390 H384 0.950 . S
C390 C391 1.327 . S
C391 H385 0.950 . S
C391 C390 1.327 . S
C391 C395 1.429 1_565 S
C392 C375 1.574 . S
C392 H386 0.949 . S
C392 C396 1.368 . S
C393 C374 1.429 . S
C393 C387 1.429 . S
C393 C394 1.523 . S
C394 C375 1.368 . S
C394 C388 1.368 . S
C394 C393 1.523 . S
C395 C379 1.429 . S
C395 C391 1.429 1_545 S
C395 C396 1.523 . S
C396 C380 1.368 . S
C396 C392 1.368 . S
C396 C395 1.523 . S
H397 C372 0.950 . S
H398 C374 0.950 . S
H399 C375 0.949 . S
H400 C377 0.950 . S
H401 C379 0.950 . S
C402 C403 1.349 . S
C402 C404 1.327 . S
C402 H427 0.950 . S
C403 C402 1.349 . S
C403 C419 1.349 . S
C404 C402 1.327 . S
C404 C423 1.429 1_655 S
C404 H428 0.950 . S
C405 C422 1.574 . S
C405 C424 1.368 . S
C405 H429 0.949 . S
H406 C410 0.949 . S
C407 C408 1.349 . S
C407 C409 1.327 . S
C407 H430 0.950 . S
C408 C407 1.349 . S
C408 C420 1.349 . S
C409 C407 1.327 . S
C409 C425 1.429 . S
C409 H431 0.950 . S
C410 H406 0.949 . S
C410 C418 1.574 . S
C410 C426 1.368 . S
H411 C419 0.950 . S
H412 C417 0.950 . S
H413 C418 0.949 . S
H414 C420 0.950 . S
H415 C421 0.950 . S
H416 C422 0.949 . S
C417 H412 0.950 . S
C417 C419 1.327 1_455 S
C417 C423 1.429 . S
C418 C410 1.574 . S
C418 H413 0.949 . S
C418 C424 1.368 . S
C419 C403 1.349 . S
C419 H411 0.950 . S
C419 C417 1.327 1_655 S
C420 C408 1.349 . S
C420 H414 0.950 . S
C420 C421 1.327 . S
C421 H415 0.950 . S
C421 C420 1.327 . S
C421 C425 1.429 . S
C422 C405 1.574 . S
C422 H416 0.949 . S
C422 C426 1.368 . S
C423 C404 1.429 1_455 S
C423 C417 1.429 . S
C423 C424 1.523 . S
C424 C405 1.368 . S
C424 C418 1.368 . S
C424 C423 1.523 . S
C425 C409 1.429 . S
C425 C421 1.429 . S
C425 C426 1.523 . S
C426 C410 1.368 . S
C426 C422 1.368 . S
C426 C425 1.523 . S
H427 C402 0.950 . S
H428 C404 0.950 . S
H429 C405 0.949 . S
H430 C407 0.950 . S
H431 C409 0.950 . S
C432 C433 1.349 . S
C432 C434 1.327 . S
C432 H457 0.950 . S
C433 C432 1.349 . S
C433 C449 1.349 . S
C434 C432 1.327 . S
C434 C453 1.429 1_455 S
C434 H458 0.950 . S
C435 C452 1.574 . S
C435 C454 1.368 . S
C435 H459 0.949 . S
H436 C440 0.949 . S
C437 C438 1.349 . S
C437 C439 1.327 1_565 S
C437 H460 0.950 . S
C438 C437 1.349 . S
C438 C450 1.349 . S
C439 C437 1.327 1_545 S
C439 C455 1.429 . S
C439 H461 0.950 . S
C440 H436 0.949 . S
C440 C448 1.574 . S
C440 C456 1.368 . S
H441 C449 0.950 . S
H442 C447 0.950 . S
H443 C448 0.949 . S
H444 C450 0.950 . S
H445 C451 0.950 . S
H446 C452 0.949 . S
C447 H442 0.950 . S
C447 C449 1.327 1_655 S
C447 C453 1.429 . S
C448 C440 1.574 . S
C448 H443 0.949 . S
C448 C454 1.368 . S
C449 C433 1.349 . S
C449 H441 0.950 . S
C449 C447 1.327 1_455 S
C450 C438 1.349 . S
C450 H444 0.950 . S
C450 C451 1.327 . S
C451 H445 0.950 . S
C451 C450 1.327 . S
C451 C455 1.429 1_565 S
C452 C435 1.574 . S
C452 H446 0.949 . S
C452 C456 1.368 . S
C453 C434 1.429 1_655 S
C453 C447 1.429 . S
C453 C454 1.523 . S
C454 C435 1.368 . S
C454 C448 1.368 . S
C454 C453 1.523 . S
C455 C439 1.429 . S
C455 C451 1.429 1_545 S
C455 C456 1.523 . S
C456 C440 1.368 . S
C456 C452 1.368 . S
C456 C455 1.523 . S
H457 C432 0.950 . S
H458 C434 0.950 . S
H459 C435 0.949 . S
H460 C437 0.950 . S
H461 C439 0.950 . S
C462 C463 1.349 . S
C462 C464 1.327 1_545 S
C462 H487 0.950 . S
C463 C462 1.349 . S
C463 C479 1.349 . S
C464 C462 1.327 1_565 S
C464 C483 1.429 . S
C464 H488 0.950 . S
C465 C482 1.574 . S
C465 C484 1.368 . S
C465 H489 0.949 . S
H466 C470 0.949 . S
C467 C468 1.349 . S
C467 C469 1.327 . S
C467 H490 0.950 . S
C468 C467 1.349 . S
C468 C480 1.349 . S
C469 C467 1.327 . S
C469 C485 1.429 . S
C469 H491 0.950 . S
C470 H466 0.949 . S
C470 C478 1.574 . S
C470 C486 1.368 . S
H471 C479 0.950 . S
H472 C477 0.950 . S
H473 C478 0.949 . S
H474 C480 0.950 . S
H475 C481 0.950 . S
H476 C482 0.949 . S
C477 H472 0.950 . S
C477 C479 1.327 . S
C477 C483 1.429 1_545 S
C478 C470 1.574 . S
C478 H473 0.949 . S
C478 C484 1.368 . S
C479 C463 1.349 . S
C479 H471 0.950 . S
C479 C477 1.327 . S
C480 C468 1.349 . S
C480 H474 0.950 . S
C480 C481 1.327 . S
C481 H475 0.950 . S
C481 C480 1.327 . S
C481 C485 1.429 . S
C482 C465 1.574 . S
C482 H476 0.949 . S
C482 C486 1.368 . S
C483 C464 1.429 . S
C483 C477 1.429 1_565 S
C483 C484 1.523 . S
C484 C465 1.368 . S
C484 C478 1.368 . S
C484 C483 1.523 . S
C485 C469 1.429 . S
C485 C481 1.429 . S
C485 C486 1.523 . S
C486 C470 1.368 . S
C486 C482 1.368 . S
C486 C485 1.523 . S
H487 C462 0.950 . S
H488 C464 0.950 . S
H489 C465 0.949 . S
H490 C467 0.950 . S
H491 C469 0.950 . S
C492 C493 1.349 . S
C492 C494 1.327 . S
C492 H517 0.950 . S
C493 C492 1.349 . S
C493 C509 1.349 . S
C494 C492 1.327 . S
C494 C513 1.429 . S
C494 H518 0.950 . S
C495 C512 1.574 . S
C495 C514 1.368 . S
C495 H519 0.949 . S
H496 C500 0.949 . S
C497 C498 1.349 . S
C497 C499 1.327 . S
C497 H520 0.950 . S
C498 C497 1.349 . S
C498 C510 1.349 . S
C499 C497 1.327 . S
C499 C515 1.429 1_455 S
C499 H521 0.950 . S
C500 H496 0.949 . S
C500 C508 1.574 . S
C500 C516 1.368 . S
H501 C509 0.950 . S
H502 C507 0.950 . S
H503 C508 0.949 . S
H504 C510 0.950 . S
H505 C511 0.950 . S
H506 C512 0.949 . S
C507 H502 0.950 . S
C507 C509 1.327 . S
C507 C513 1.429 . S
C508 C500 1.574 . S
C508 H503 0.949 . S
C508 C514 1.368 . S
C509 C493 1.349 . S
C509 H501 0.950 . S
C509 C507 1.327 . S
C510 C498 1.349 . S
C510 H504 0.950 . S
C510 C511 1.327 1_455 S
C511 H505 0.950 . S
C511 C510 1.327 1_655 S
C511 C515 1.429 . S
C512 C495 1.574 . S
C512 H506 0.949 . S
C512 C516 1.368 . S
C513 C494 1.429 . S
C513 C507 1.429 . S
C513 C514 1.523 . S
C514 C495 1.368 . S
C514 C508 1.368 . S
C514 C513 1.523 . S
C515 C499 1.429 1_655 S
C515 C511 1.429 . S
C515 C516 1.523 . S
C516 C500 1.368 . S
C516 C512 1.368 . S
C516 C515 1.523 . S
H517 C492 0.950 . S
H518 C494 0.950 . S
H519 C495 0.949 . S
H520 C497 0.950 . S
H521 C499 0.950 . S
C522 C523 1.349 . S
C522 C524 1.327 1_545 S
C522 H547 0.950 . S
C523 C522 1.349 . S
C523 C539 1.349 . S
C524 C522 1.327 1_565 S
C524 C543 1.429 . S
C524 H548 0.950 . S
C525 C542 1.574 . S
C525 C544 1.368 . S
C525 H549 0.949 . S
H526 C530 0.949 . S
C527 C528 1.349 . S
C527 C529 1.327 . S
C527 H550 0.950 . S
C528 C527 1.349 . S
C528 C540 1.349 . S
C529 C527 1.327 . S
C529 C545 1.429 1_655 S
C529 H551 0.950 . S
C530 H526 0.949 . S
C530 C538 1.574 . S
C530 C546 1.368 . S
H531 C539 0.950 . S
H532 C537 0.950 . S
H533 C538 0.949 . S
H534 C540 0.950 . S
H535 C541 0.950 . S
H536 C542 0.949 . S
C537 H532 0.950 . S
C537 C539 1.327 . S
C537 C543 1.429 1_545 S
C538 C530 1.574 . S
C538 H533 0.949 . S
C538 C544 1.368 . S
C539 C523 1.349 . S
C539 H531 0.950 . S
C539 C537 1.327 . S
C540 C528 1.349 . S
C540 H534 0.950 . S
C540 C541 1.327 1_655 S
C541 H535 0.950 . S
C541 C540 1.327 1_455 S
C541 C545 1.429 . S
C542 C525 1.574 . S
C542 H536 0.949 . S
C542 C546 1.368 . S
C543 C524 1.429 . S
C543 C537 1.429 1_565 S
C543 C544 1.523 . S
C544 C525 1.368 . S
C544 C538 1.368 . S
C544 C543 1.523 . S
C545 C529 1.429 1_455 S
C545 C541 1.429 . S
C545 C546 1.523 . S
C546 C530 1.368 . S
C546 C542 1.368 . S
C546 C545 1.523 . S
H547 C522 0.950 . S
H548 C524 0.950 . S
H549 C525 0.949 . S
H550 C527 0.950 . S
H551 C529 0.950 . S
C552 C553 1.349 . S
C552 C554 1.327 . S
C552 H577 0.950 . S
C553 C552 1.349 . S
C553 C569 1.349 . S
C554 C552 1.327 . S
C554 C573 1.429 . S
C554 H578 0.950 . S
C555 C572 1.574 1_554 S
C555 C574 1.368 . S
C555 H579 0.949 . S
H556 C560 0.949 . S
C557 C558 1.349 . S
C557 C559 1.327 . S
C557 H580 0.950 . S
C558 C557 1.349 . S
C558 C570 1.349 . S
C559 C557 1.327 . S
C559 C575 1.429 . S
C559 H581 0.950 . S
C560 H556 0.949 . S
C560 C568 1.574 1_556 S
C560 C576 1.368 . S
H561 C569 0.950 . S
H562 C567 0.950 . S
H563 C568 0.949 . S
H564 C570 0.950 . S
H565 C571 0.950 . S
H566 C572 0.949 . S
C567 H562 0.950 . S
C567 C569 1.327 . S
C567 C573 1.429 . S
C568 C560 1.574 1_554 S
C568 H563 0.949 . S
C568 C574 1.368 . S
C569 C553 1.349 . S
C569 H561 0.950 . S
C569 C567 1.327 . S
C570 C558 1.349 . S
C570 H564 0.950 . S
C570 C571 1.327 . S
C571 H565 0.950 . S
C571 C570 1.327 . S
C571 C575 1.429 . S
C572 C555 1.574 1_556 S
C572 H566 0.949 . S
C572 C576 1.368 . S
C573 C554 1.429 . S
C573 C567 1.429 . S
C573 C574 1.523 . S
C574 C555 1.368 . S
C574 C568 1.368 . S
C574 C573 1.523 . S
C575 C559 1.429 . S
C575 C571 1.429 . S
C575 C576 1.523 . S
C576 C560 1.368 . S
C576 C572 1.368 . S
C576 C575 1.523 . S
H577 C552 0.950 . S
H578 C554 0.950 . S
H579 C555 0.949 . S
H580 C557 0.950 . S
H581 C559 0.950 . S
C582 C583 1.349 . S
C582 C584 1.327 . S
C582 H607 0.950 . S
C583 C582 1.349 . S
C583 C599 1.349 . S
C584 C582 1.327 . S
C584 C603 1.429 . S
C584 H608 0.950 . S
C585 C602 1.574 . S
C585 C604 1.368 1_455 S
C585 H609 0.949 . S
H586 C590 0.949 . S
C587 C588 1.349 . S
C587 C589 1.327 . S
C587 H610 0.950 . S
C588 C587 1.349 . S
C588 C600 1.349 . S
C589 C587 1.327 . S
C589 C605 1.429 . S
C589 H611 0.950 . S
C590 H586 0.949 . S
C590 C598 1.574 . S
C590 C606 1.368 1_655 S
H591 C599 0.950 . S
H592 C597 0.950 . S
H593 C598 0.949 . S
H594 C600 0.950 . S
H595 C601 0.950 . S
H596 C602 0.949 . S
C597 H592 0.950 . S
C597 C599 1.327 . S
C597 C603 1.429 . S
C598 C590 1.574 . S
C598 H593 0.949 . S
C598 C604 1.368 . S
C599 C583 1.349 . S
C599 H591 0.950 . S
C599 C597 1.327 . S
C600 C588 1.349 . S
C600 H594 0.950 . S
C600 C601 1.327 . S
C601 H595 0.950 . S
C601 C600 1.327 . S
C601 C605 1.429 . S
C602 C585 1.574 . S
C602 H596 0.949 . S
C602 C606 1.368 . S
C603 C584 1.429 . S
C603 C597 1.429 . S
C603 C604 1.523 . S
C604 C585 1.368 1_655 S
C604 C598 1.368 . S
C604 C603 1.523 . S
C605 C589 1.429 . S
C605 C601 1.429 . S
C605 C606 1.523 . S
C606 C590 1.368 1_455 S
C606 C602 1.368 . S
C606 C605 1.523 . S
H607 C582 0.950 . S
H608 C584 0.950 . S
H609 C585 0.949 . S
H610 C587 0.950 . S
H611 C589 0.950 . S
C612 C613 1.349 . S
C612 C614 1.327 . S
C612 H637 0.950 . S
C613 C612 1.349 . S
C613 C629 1.349 . S
C614 C612 1.327 . S
C614 C633 1.429 . S
C614 H638 0.950 . S
C615 C632 1.574 1_554 S
C615 C634 1.368 . S
C615 H639 0.949 . S
H616 C620 0.949 . S
C617 C618 1.349 . S
C617 C619 1.327 . S
C617 H640 0.950 . S
C618 C617 1.349 . S
C618 C630 1.349 . S
C619 C617 1.327 . S
C619 C635 1.429 . S
C619 H641 0.950 . S
C620 H616 0.949 . S
C620 C628 1.574 1_556 S
C620 C636 1.368 . S
H621 C629 0.950 . S
H622 C627 0.950 . S
H623 C628 0.949 . S
H624 C630 0.950 . S
H625 C631 0.950 . S
H626 C632 0.949 . S
C627 H622 0.950 . S
C627 C629 1.327 . S
C627 C633 1.429 . S
C628 C620 1.574 1_554 S
C628 H623 0.949 . S
C628 C634 1.368 1_545 S
C629 C613 1.349 . S
C629 H621 0.950 . S
C629 C627 1.327 . S
C630 C618 1.349 . S
C630 H624 0.950 . S
C630 C631 1.327 . S
C631 H625 0.950 . S
C631 C630 1.327 . S
C631 C635 1.429 . S
C632 C615 1.574 1_556 S
C632 H626 0.949 . S
C632 C636 1.368 1_565 S
C633 C614 1.429 . S
C633 C627 1.429 . S
C633 C634 1.523 . S
C634 C615 1.368 . S
C634 C628 1.368 1_565 S
C634 C633 1.523 . S
C635 C619 1.429 . S
C635 C631 1.429 . S
C635 C636 1.523 . S
C636 C620 1.368 . S
C636 C632 1.368 1_545 S
C636 C635 1.523 . S
H637 C612 0.950 . S
H638 C614 0.950 . S
H639 C615 0.949 . S
H640 C617 0.950 . S
H641 C619 0.950 . S
C642 C643 1.349 . S
C642 C644 1.327 . S
C642 H667 0.950 . S
C643 C642 1.349 . S
C643 C659 1.349 . S
C644 C642 1.327 . S
C644 C663 1.429 . S
C644 H668 0.950 . S
C645 C662 1.574 . S
C645 C664 1.368 . S
C645 H669 0.949 . S
H646 C650 0.949 . S
C647 C648 1.349 . S
C647 C649 1.327 . S
C647 H670 0.950 . S
C648 C647 1.349 . S
C648 C660 1.349 . S
C649 C647 1.327 . S
C649 C665 1.429 . S
C649 H671 0.950 . S
C650 H646 0.949 . S
C650 C658 1.574 . S
C650 C666 1.368 . S
H651 C659 0.950 . S
H652 C657 0.950 . S
H653 C658 0.949 . S
H654 C660 0.950 . S
H655 C661 0.950 . S
H656 C662 0.949 . S
C657 H652 0.950 . S
C657 C659 1.327 . S
C657 C663 1.429 . S
C658 C650 1.574 . S
C658 H653 0.949 . S
C658 C664 1.368 . S
C659 C643 1.349 . S
C659 H651 0.950 . S
C659 C657 1.327 . S
C660 C648 1.349 . S
C660 H654 0.950 . S
C660 C661 1.327 . S
C661 H655 0.950 . S
C661 C660 1.327 . S
C661 C665 1.429 . S
C662 C645 1.574 . S
C662 H656 0.949 . S
C662 C666 1.368 . S
C663 C644 1.429 . S
C663 C657 1.429 . S
C663 C664 1.523 . S
C664 C645 1.368 . S
C664 C658 1.368 . S
C664 C663 1.523 . S
C665 C649 1.429 . S
C665 C661 1.429 . S
C665 C666 1.523 . S
C666 C650 1.368 . S
C666 C662 1.368 . S
C666 C665 1.523 . S
H667 C642 0.950 . S
H668 C644 0.950 . S
H669 C645 0.949 . S
H670 C647 0.950 . S
H671 C649 0.950 . S
C672 C673 1.349 . S
C672 C674 1.327 . S
C672 H697 0.950 . S
C673 C672 1.349 . S
C673 C689 1.349 . S
C674 C672 1.327 . S
C674 C693 1.429 . S
C674 H698 0.950 . S
C675 C692 1.573 . S
C675 C694 1.368 1_455 S
C675 H699 0.949 . S
H676 C680 0.949 . S
C677 C678 1.349 . S
C677 C679 1.327 . S
C677 H700 0.950 . S
C678 C677 1.349 . S
C678 C690 1.349 . S
C679 C677 1.327 . S
C679 C695 1.429 . S
C679 H701 0.950 . S
C680 H676 0.949 . S
C680 C688 1.573 . S
C680 C696 1.368 1_655 S
H681 C689 0.950 . S
H682 C687 0.950 . S
H683 C688 0.949 1_556 S
H684 C690 0.950 . S
H685 C691 0.950 . S
H686 C692 0.949 1_554 S
C687 H682 0.950 . S
C687 C689 1.327 . S
C687 C693 1.429 . S
C688 C680 1.573 . S
C688 H683 0.949 1_554 S
C688 C694 1.369 1_554 S
C689 C673 1.349 . S
C689 H681 0.950 . S
C689 C687 1.327 . S
C690 C678 1.349 . S
C690 H684 0.950 . S
C690 C691 1.327 . S
C691 H685 0.950 . S
C691 C690 1.327 . S
C691 C695 1.429 . S
C692 C675 1.573 . S
C692 H686 0.949 1_556 S
C692 C696 1.369 1_556 S
C693 C674 1.429 . S
C693 C687 1.429 . S
C693 C694 1.523 . S
C694 C675 1.368 1_655 S
C694 C688 1.369 1_556 S
C694 C693 1.523 . S
C695 C679 1.429 . S
C695 C691 1.429 . S
C695 C696 1.523 . S
C696 C680 1.368 1_455 S
C696 C692 1.369 1_554 S
C696 C695 1.523 . S
H697 C672 0.950 . S
H698 C674 0.950 . S
H699 C675 0.949 . S
H700 C677 0.950 . S
H701 C679 0.950 . S
C702 C703 1.349 . S
C702 C704 1.327 . S
C702 H727 0.950 . S
C703 C702 1.349 . S
C703 C719 1.349 . S
C704 C702 1.327 . S
C704 C723 1.429 . S
C704 H728 0.950 . S
C705 C722 1.574 . S
C705 C724 1.368 1_565 S
C705 H729 0.949 . S
H706 C710 0.949 . S
C707 C708 1.349 . S
C707 C709 1.327 . S
C707 H730 0.950 . S
C708 C707 1.349 . S
C708 C720 1.349 . S
C709 C707 1.327 . S
C709 C725 1.429 . S
C709 H731 0.950 . S
C710 H706 0.949 . S
C710 C718 1.574 . S
C710 C726 1.368 1_545 S
H711 C719 0.950 . S
H712 C717 0.950 . S
H713 C718 0.949 . S
H714 C720 0.950 . S
H715 C721 0.950 . S
H716 C722 0.949 . S
C717 H712 0.950 . S
C717 C719 1.327 . S
C717 C723 1.429 . S
C718 C710 1.574 . S
C718 H713 0.949 . S
C718 C724 1.368 . S
C719 C703 1.349 . S
C719 H711 0.950 . S
C719 C717 1.327 . S
C720 C708 1.349 . S
C720 H714 0.950 . S
C720 C721 1.327 . S
C721 H715 0.950 . S
C721 C720 1.327 . S
C721 C725 1.429 . S
C722 C705 1.574 . S
C722 H716 0.949 . S
C722 C726 1.368 . S
C723 C704 1.429 . S
C723 C717 1.429 . S
C723 C724 1.523 . S
C724 C705 1.368 1_545 S
C724 C718 1.368 . S
C724 C723 1.523 . S
C725 C709 1.429 . S
C725 C721 1.429 . S
C725 C726 1.523 . S
C726 C710 1.368 1_565 S
C726 C722 1.368 . S
C726 C725 1.523 . S
H727 C702 0.950 . S
H728 C704 0.950 . S
H729 C705 0.949 . S
H730 C707 0.950 . S
H731 C709 0.950 . S
C732 C733 1.349 . S
C732 C734 1.327 . S
C732 H757 0.950 . S
C733 C732 1.349 . S
C733 C749 1.349 . S
C734 C732 1.327 . S
C734 C753 1.429 . S
C734 H758 0.950 . S
C735 C752 1.579 . S
C735 C754 1.363 1_554 S
C735 H759 0.949 1_554 S
H736 C740 0.949 1_554 S
C737 C738 1.349 . S
C737 C739 1.327 . S
C737 H760 0.950 . S
C738 C737 1.349 . S
C738 C750 1.349 . S
C739 C737 1.327 . S
C739 C755 1.429 . S
C739 H761 0.950 . S
C740 H736 0.949 1_556 S
C740 C748 1.579 . S
C740 C756 1.363 1_556 S
H741 C749 0.950 . S
H742 C747 0.950 . S
H743 C748 0.949 . S
H744 C750 0.950 . S
H745 C751 0.950 . S
H746 C752 0.949 . S
C747 H742 0.950 . S
C747 C749 1.327 . S
C747 C753 1.429 . S
C748 C740 1.579 . S
C748 H743 0.949 . S
C748 C754 1.368 . S
C749 C733 1.349 . S
C749 H741 0.950 . S
C749 C747 1.327 . S
C750 C738 1.349 . S
C750 H744 0.950 . S
C750 C751 1.327 . S
C751 H745 0.950 . S
C751 C750 1.327 . S
C751 C755 1.429 . S
C752 C735 1.579 . S
C752 H746 0.949 . S
C752 C756 1.368 . S
C753 C734 1.429 . S
C753 C747 1.429 . S
C753 C754 1.523 . S
C754 C735 1.363 1_556 S
C754 C748 1.368 . S
C754 C753 1.523 . S
C755 C739 1.429 . S
C755 C751 1.429 . S
C755 C756 1.523 . S
C756 C740 1.363 1_554 S
C756 C752 1.368 . S
C756 C755 1.523 . S
H757 C732 0.950 . S
H758 C734 0.950 . S
H759 C735 0.949 1_556 S
H760 C737 0.950 . S
H761 C739 0.950 . S
C762 C763 1.349 . S
C762 C764 1.327 . S
C762 H787 0.950 . S
C763 C762 1.349 . S
C763 C779 1.349 . S
C764 C762 1.327 . S
C764 C783 1.429 . S
C764 H788 0.950 . S
C765 C782 1.574 1_455 S
C765 C784 1.368 . S
C765 H789 0.949 . S
H766 C770 0.949 . S
C767 C768 1.349 . S
C767 C769 1.327 . S
C767 H790 0.950 . S
C768 C767 1.349 . S
C768 C780 1.349 . S
C769 C767 1.327 . S
C769 C785 1.429 . S
C769 H791 0.950 . S
C770 H766 0.949 . S
C770 C778 1.574 1_655 S
C770 C786 1.368 . S
H771 C779 0.950 . S
H772 C777 0.950 . S
H773 C778 0.949 . S
H774 C780 0.950 . S
H775 C781 0.950 . S
H776 C782 0.949 . S
C777 H772 0.950 . S
C777 C779 1.327 . S
C777 C783 1.429 . S
C778 C770 1.574 1_455 S
C778 H773 0.949 . S
C778 C784 1.368 . S
C779 C763 1.349 . S
C779 H771 0.950 . S
C779 C777 1.327 . S
C780 C768 1.349 . S
C780 H774 0.950 . S
C780 C781 1.327 . S
C781 H775 0.950 . S
C781 C780 1.327 . S
C781 C785 1.429 . S
C782 C765 1.574 1_655 S
C782 H776 0.949 . S
C782 C786 1.368 . S
C783 C764 1.429 . S
C783 C777 1.429 . S
C783 C784 1.523 . S
C784 C765 1.368 . S
C784 C778 1.368 . S
C784 C783 1.523 . S
C785 C769 1.429 . S
C785 C781 1.429 . S
C785 C786 1.523 . S
C786 C770 1.368 . S
C786 C782 1.368 . S
C786 C785 1.523 . S
H787 C762 0.950 . S
H788 C764 0.950 . S
H789 C765 0.949 . S
H790 C767 0.950 . S
H791 C769 0.950 . S
C792 C793 1.349 . S
C792 C794 1.327 . S
C792 H817 0.950 . S
C793 C792 1.349 . S
C793 C809 1.349 . S
C794 C792 1.327 . S
C794 C813 1.429 . S
C794 H818 0.950 . S
C795 C812 1.574 . S
C795 C814 1.368 1_554 S
C795 H819 0.949 . S
H796 C800 0.949 . S
C797 C798 1.349 . S
C797 C799 1.327 . S
C797 H820 0.950 . S
C798 C797 1.349 . S
C798 C810 1.349 . S
C799 C797 1.327 . S
C799 C815 1.429 . S
C799 H821 0.950 . S
C800 H796 0.949 . S
C800 C808 1.574 . S
C800 C816 1.368 1_556 S
H801 C809 0.950 . S
H802 C807 0.950 . S
H803 C808 0.949 . S
H804 C810 0.950 . S
H805 C811 0.950 . S
H806 C812 0.949 . S
C807 H802 0.950 . S
C807 C809 1.327 . S
C807 C813 1.429 . S
C808 C800 1.574 . S
C808 H803 0.949 . S
C808 C814 1.368 1_565 S
C809 C793 1.349 . S
C809 H801 0.950 . S
C809 C807 1.327 . S
C810 C798 1.349 . S
C810 H804 0.950 . S
C810 C811 1.327 . S
C811 H805 0.950 . S
C811 C810 1.327 . S
C811 C815 1.429 . S
C812 C795 1.574 . S
C812 H806 0.949 . S
C812 C816 1.368 1_545 S
C813 C794 1.429 . S
C813 C807 1.429 . S
C813 C814 1.523 . S
C814 C795 1.368 1_556 S
C814 C808 1.368 1_545 S
C814 C813 1.523 . S
C815 C799 1.429 . S
C815 C811 1.429 . S
C815 C816 1.523 . S
C816 C800 1.368 1_554 S
C816 C812 1.368 1_565 S
C816 C815 1.523 . S
H817 C792 0.950 . S
H818 C794 0.950 . S
H819 C795 0.949 . S
H820 C797 0.950 . S
H821 C799 0.950 . S
C822 C823 1.349 . S
C822 C824 1.327 . S
C822 H847 0.950 . S
C823 C822 1.349 . S
C823 C839 1.349 . S
C824 C822 1.327 . S
C824 C843 1.429 . S
C824 H848 0.950 . S
C825 C842 1.574 . S
C825 C844 1.368 . S
C825 H849 0.949 . S
H826 C830 0.949 . S
C827 C828 1.349 . S
C827 C829 1.327 . S
C827 H850 0.950 . S
C828 C827 1.349 . S
C828 C840 1.349 . S
C829 C827 1.327 . S
C829 C845 1.429 . S
C829 H851 0.950 . S
C830 H826 0.949 . S
C830 C838 1.574 . S
C830 C846 1.368 . S
H831 C839 0.950 . S
H832 C837 0.950 . S
H833 C838 0.949 . S
H834 C840 0.950 . S
H835 C841 0.950 . S
H836 C842 0.949 . S
C837 H832 0.950 . S
C837 C839 1.327 . S
C837 C843 1.429 . S
C838 C830 1.574 . S
C838 H833 0.949 . S
C838 C844 1.368 . S
C839 C823 1.349 . S
C839 H831 0.950 . S
C839 C837 1.327 . S
C840 C828 1.349 . S
C840 H834 0.950 . S
C840 C841 1.327 . S
C841 H835 0.950 . S
C841 C840 1.327 . S
C841 C845 1.429 . S
C842 C825 1.574 . S
C842 H836 0.949 . S
C842 C846 1.368 . S
C843 C824 1.429 . S
C843 C837 1.429 . S
C843 C844 1.523 . S
C844 C825 1.368 . S
C844 C838 1.368 . S
C844 C843 1.523 . S
C845 C829 1.429 . S
C845 C841 1.429 . S
C845 C846 1.523 . S
C846 C830 1.368 . S
C846 C842 1.368 . S
C846 C845 1.523 . S
H847 C822 0.950 . S
H848 C824 0.950 . S
H849 C825 0.949 . S
H850 C827 0.950 . S
H851 C829 0.950 . S
C852 C853 1.349 . S
C852 C854 1.327 . S
C852 H877 0.950 . S
C853 C852 1.349 . S
C853 C869 1.349 . S
C854 C852 1.327 . S
C854 C873 1.429 . S
C854 H878 0.950 . S
C855 C872 1.575 1_554 S
C855 C874 1.368 1_655 S
C855 H879 0.949 . S
H856 C860 0.949 . S
C857 C858 1.349 . S
C857 C859 1.327 . S
C857 H880 0.950 . S
C858 C857 1.349 . S
C858 C870 1.349 . S
C859 C857 1.327 . S
C859 C875 1.429 . S
C859 H881 0.950 . S
C860 H856 0.949 . S
C860 C868 1.575 1_556 S
C860 C876 1.368 1_455 S
H861 C869 0.950 . S
H862 C867 0.950 . S
H863 C868 0.949 . S
H864 C870 0.950 . S
H865 C871 0.950 . S
H866 C872 0.949 . S
C867 H862 0.950 . S
C867 C869 1.327 . S
C867 C873 1.429 . S
C868 C860 1.575 1_554 S
C868 H863 0.949 . S
C868 C874 1.367 . S
C869 C853 1.349 . S
C869 H861 0.950 . S
C869 C867 1.327 . S
C870 C858 1.349 . S
C870 H864 0.950 . S
C870 C871 1.327 . S
C871 H865 0.950 . S
C871 C870 1.327 . S
C871 C875 1.429 . S
C872 C855 1.575 1_556 S
C872 H866 0.949 . S
C872 C876 1.367 . S
C873 C854 1.429 . S
C873 C867 1.429 . S
C873 C874 1.523 . S
C874 C855 1.368 1_455 S
C874 C868 1.367 . S
C874 C873 1.523 . S
C875 C859 1.429 . S
C875 C871 1.429 . S
C875 C876 1.523 . S
C876 C860 1.368 1_655 S
C876 C872 1.367 . S
C876 C875 1.523 . S
H877 C852 0.950 . S
H878 C854 0.950 . S
H879 C855 0.949 . S
H880 C857 0.950 . S
H881 C859 0.950 . S
C882 C883 1.349 . S
C882 C884 1.327 . S
C882 H907 0.950 . S
C883 C882 1.349 . S
C883 C899 1.349 . S
C884 C882 1.327 . S
C884 C903 1.429 . S
C884 H908 0.950 . S
C885 C902 1.574 . S
C885 C904 1.368 1_565 S
C885 H909 0.949 . S
H886 C890 0.949 . S
C887 C888 1.349 . S
C887 C889 1.327 . S
C887 H910 0.950 . S
C888 C887 1.349 . S
C888 C900 1.349 . S
C889 C887 1.327 . S
C889 C905 1.429 . S
C889 H911 0.950 . S
C890 H886 0.949 . S
C890 C898 1.574 . S
C890 C906 1.368 1_545 S
H891 C899 0.950 . S
H892 C897 0.950 . S
H893 C898 0.949 . S
H894 C900 0.950 . S
H895 C901 0.950 . S
H896 C902 0.949 . S
C897 H892 0.950 . S
C897 C899 1.327 . S
C897 C903 1.429 . S
C898 C890 1.574 . S
C898 H893 0.949 . S
C898 C904 1.368 . S
C899 C883 1.349 . S
C899 H891 0.950 . S
C899 C897 1.327 . S
C900 C888 1.349 . S
C900 H894 0.950 . S
C900 C901 1.327 . S
C901 H895 0.950 . S
C901 C900 1.327 . S
C901 C905 1.429 . S
C902 C885 1.574 . S
C902 H896 0.949 . S
C902 C906 1.368 . S
C903 C884 1.429 . S
C903 C897 1.429 . S
C903 C904 1.523 . S
C904 C885 1.368 1_545 S
C904 C898 1.368 . S
C904 C903 1.523 . S
C905 C889 1.429 . S
C905 C901 1.429 . S
C905 C906 1.523 . S
C906 C890 1.368 1_565 S
C906 C902 1.368 . S
C906 C905 1.523 . S
H907 C882 0.950 . S
H908 C884 0.950 . S
H909 C885 0.949 . S
H910 C887 0.950 . S
H911 C889 0.950 . S
C193 C30 1.069 . S
C198 C155 1.069 . S
C223 C187 1.069 . S
C228 C62 1.069 . S
C253 C27 1.069 . S
C258 C94 1.069 . S
C283 C59 1.069 . S
C288 C126 1.069 . S
C313 C158 1.069 . S
C318 C91 1.069 . S
C343 C190 1.069 . S
C348 C123 1.069 . S
C373 C22 0.884 . S
C378 C136 0.884 . S
C403 C54 0.884 . S
C408 C168 0.884 . S
C433 C8 0.884 . S
C438 C86 0.884 . S
C463 C40 0.884 . S
C468 C118 0.884 . S
C493 C72 0.884 . S
C498 C150 0.884 . S
C523 C182 0.884 . S
C528 C104 0.884 . S
C553 C17 1.488 . S
C558 C184 1.510 . S
C583 C49 1.488 . S
C588 C24 1.510 . S
C613 C81 1.488 . S
C618 C56 1.510 . S
C643 C113 1.488 . S
C648 C88 1.510 . S
C673 C120 1.510 . S
C678 C145 1.488 . S
C703 C177 1.488 . S
C708 C152 1.510 . S
C733 C119 1.510 . S
C738 C95 1.488 . S
C763 C151 1.510 . S
C768 C127 1.488 . S
C793 C183 1.510 . S
C798 C159 1.488 . S
C823 C191 1.488 . S
C828 C23 1.510 . S
C853 C31 1.488 . S
C858 C55 1.510 . S
C883 C63 1.488 . S
C888 C87 1.510 . S
