# Generated by pormake.
# Topology wli, (5)-cn, num edge types: 1
# Building blocks:
#     Node 0, Type 0, BuildingBlock: BEQFEK_clean_sbu_0, # of connection points: 5
#     Node 1, Type 0, BuildingBlock: BEQFEK_clean_sbu_0, # of connection points: 5
#     Node 2, Type 0, BuildingBlock: BEQFEK_clean_sbu_0, # of connection points: 5
#     Node 3, Type 0, BuildingBlock: BEQFEK_clean_sbu_0, # of connection points: 5
#     Node 4, Type 0, BuildingBlock: BEQFEK_clean_sbu_0, # of connection points: 5
#     Node 5, Type 0, BuildingBlock: BEQFEK_clean_sbu_0, # of connection points: 5
#     Edge 6, Type (0, 0), BuildingBlock: EZIPEK_clean_linker_0, # of connection points: 2
#     Edge 7, Type (0, 0), BuildingBlock: EZIPEK_clean_linker_0, # of connection points: 2
#     Edge 8, Type (0, 0), BuildingBlock: EZIPEK_clean_linker_0, # of connection points: 2
#     Edge 9, Type (0, 0), BuildingBlock: EZIPEK_clean_linker_0, # of connection points: 2
#     Edge 10, Type (0, 0), BuildingBlock: EZIPEK_clean_linker_0, # of connection points: 2
#     Edge 11, Type (0, 0), BuildingBlock: EZIPEK_clean_linker_0, # of connection points: 2
#     Edge 12, Type (0, 0), BuildingBlock: EZIPEK_clean_linker_0, # of connection points: 2
#     Edge 13, Type (0, 0), BuildingBlock: EZIPEK_clean_linker_0, # of connection points: 2
#     Edge 14, Type (0, 0), BuildingBlock: EZIPEK_clean_linker_0, # of connection points: 2
#     Edge 15, Type (0, 0), BuildingBlock: EZIPEK_clean_linker_0, # of connection points: 2
#     Edge 16, Type (0, 0), BuildingBlock: EZIPEK_clean_linker_0, # of connection points: 2
#     Edge 17, Type (0, 0), BuildingBlock: EZIPEK_clean_linker_0, # of connection points: 2
#     Edge 18, Type (0, 0), BuildingBlock: EZIPEK_clean_linker_0, # of connection points: 2
#     Edge 19, Type (0, 0), BuildingBlock: EZIPEK_clean_linker_0, # of connection points: 2
#     Edge 20, Type (0, 0), BuildingBlock: EZIPEK_clean_linker_0, # of connection points: 2
# Relax obj value: 0.176
# Max RMSD: 0.112
# Mean RMSD: 0.112
data_MOF--net-wli--node1-BEQFEK_clean_sbu_0--edge1-EZIPEK_clean_linker_0
_symmetry_space_group_name_H-M    P1
_symmetry_Int_Tables_number       1
_symmetry_cell_setting            triclinic
loop_
_symmetry_equiv_pos_as_xyz
'x, y, z'
_cell_length_a     27.797744
_cell_length_b     27.832432
_cell_length_c     21.967277
_cell_angle_alpha  90.024636
_cell_angle_beta   90.001788
_cell_angle_gamma 120.11132
loop_
_atom_site_label
_atom_site_type_symbol
_atom_site_fract_x
_atom_site_fract_y
_atom_site_fract_z
_atom_type_partial_charge
Co0 Co 0.22718 0.44958 0.95755 0.0
Co1 Co 0.13586 0.36766 0.05104 0.0
C2 C 0.22928 0.35105 0.01078 0.0
O3 O 0.24836 0.39349 0.97656 0.0
O4 O 0.18641 0.33631 0.0438 0.0
C5 C 0.33959 0.51923 0.9178 0.0
O6 O 0.34936 0.48936 0.95672 0.0
C7 C 0.08979 0.32283 0.17277 0.0
C8 C 0.99938 0.27915 0.15512 0.0
C9 C 0.03841 0.29277 0.20081 0.0
N10 N 0.08171 0.3272 0.11312 0.0
N11 N 0.0275 0.30033 0.10282 0.0
C12 C 0.14558 0.34795 0.20258 0.0
H13 H 0.17863 0.37727 0.17122 0.0
H14 H 0.14576 0.36958 0.24513 0.0
H15 H 0.15408 0.31431 0.2152 0.0
C16 C 0.23128 0.53235 0.04413 0.0
N17 N 0.2136 0.47918 0.0288 0.0
N18 N 0.17429 0.44587 0.06688 0.0
C19 C 0.16491 0.47726 0.1067 0.0
C20 C 0.20107 0.53289 0.09399 0.0
C21 C 0.27241 0.58146 0.00808 0.0
H22 H 0.256 0.57902 0.96143 0.0
H23 H 0.31151 0.58043 0.0042 0.0
H24 H 0.28143 0.6212 0.02958 0.0
O25 O 0.15831 0.41369 0.90705 0.0
O26 O 0.09553 0.35441 0.97318 0.0
H27 H 0.08003 0.41997 0.12973 0.0
H28 H 0.1075 0.48778 0.16385 0.0
C29 C 0.11739 0.45524 0.15049 0.0
H30 H 0.12869 0.44076 0.19216 0.0
H31 H 0.00961 0.29764 0.06028 0.0
O32 O 0.29008 0.5096 0.91023 0.0
C33 C 0.10893 0.3757 0.92021 0.0
Co34 Co 0.59423 0.79017 0.63032 0.0
Co35 Co 0.68326 0.79382 0.72207 0.0
C36 C 0.68994 0.89808 0.67504 0.0
O37 O 0.64685 0.87057 0.64222 0.0
O38 O 0.70807 0.87391 0.70967 0.0
C39 C 0.51443 0.8163 0.58144 0.0
O40 O 0.53277 0.85313 0.6256 0.0
C41 C 0.73036 0.80033 0.84472 0.0
C42 C 0.78162 0.76134 0.82913 0.0
C43 C 0.7637 0.78362 0.87404 0.0
N44 N 0.72806 0.78799 0.78517 0.0
N45 N 0.75961 0.76551 0.77609 0.0
C46 C 0.70012 0.82634 0.87331 0.0
H47 H 0.66904 0.82603 0.84133 0.0
H48 H 0.67959 0.80433 0.91605 0.0
H49 H 0.73064 0.86997 0.88544 0.0
C50 C 0.51714 0.71953 0.7282 0.0
N51 N 0.56866 0.75315 0.70604 0.0
N52 N 0.6053 0.75009 0.74156 0.0
C53 C 0.57755 0.71203 0.7854 0.0
C54 C 0.52112 0.69226 0.77889 0.0
C55 C 0.46455 0.70975 0.69891 0.0
H56 H 0.46987 0.74913 0.68063 0.0
H57 H 0.42956 0.69196 0.73185 0.0
H58 H 0.4543 0.67972 0.66116 0.0
O59 O 0.63062 0.75518 0.5852 0.0
O60 O 0.69895 0.76602 0.64616 0.0
H61 H 0.57268 0.64484 0.83893 0.0
H62 H 0.6154 0.71281 0.87011 0.0
C63 C 0.603 0.68865 0.82721 0.0
H64 H 0.63985 0.69053 0.80548 0.0
H65 H 0.76461 0.75122 0.73398 0.0
O66 O 0.53361 0.78357 0.57616 0.0
C67 C 0.67303 0.75029 0.59576 0.0
Co68 Co 0.24841 0.81513 0.29236 0.0
Co69 Co 0.25363 0.89921 0.39359 0.0
C70 C 0.14527 0.80701 0.34673 0.0
O71 O 0.17023 0.79038 0.31158 0.0
O72 O 0.17192 0.84832 0.3823 0.0
C73 C 0.20653 0.723 0.20909 0.0
O74 O 0.16292 0.72948 0.20645 0.0
C75 C 0.23927 0.93663 0.51553 0.0
C76 C 0.31256 0.02104 0.51971 0.0
C77 C 0.26833 0.98205 0.55392 0.0
N78 N 0.266 0.94795 0.46162 0.0
N79 N 0.30914 0.99893 0.46422 0.0
C80 C 0.18909 0.88216 0.53072 0.0
H81 H 0.15401 0.87605 0.50129 0.0
H82 H 0.19761 0.84805 0.5206 0.0
H83 H 0.17706 0.8804 0.5792 0.0
C84 C 0.32536 0.80642 0.37766 0.0
N85 N 0.29039 0.82501 0.36336 0.0
N86 N 0.29388 0.86062 0.40512 0.0
C87 C 0.33216 0.86629 0.44669 0.0
C88 C 0.35248 0.8316 0.43117 0.0
C89 C 0.33631 0.76918 0.33817 0.0
H90 H 0.34472 0.78536 0.2909 0.0
H91 H 0.29887 0.72728 0.33758 0.0
H92 H 0.37214 0.76581 0.35507 0.0
O93 O 0.28072 0.88671 0.24781 0.0
O94 O 0.28226 0.94502 0.31893 0.0
H95 H 0.37773 0.95042 0.47659 0.0
H96 H 0.38031 0.9015 0.52882 0.0
C97 C 0.35354 0.90825 0.49657 0.0
H98 H 0.31804 0.90565 0.52123 0.0
H99 H 0.33766 0.01779 0.4289 0.0
O100 O 0.24834 0.75605 0.24112 0.0
C101 C 0.29115 0.93486 0.26476 0.0
Co102 Co 0.44802 0.22618 0.04573 0.0
Co103 Co 0.36156 0.13561 0.95523 0.0
C104 C 0.34916 0.23085 0.99752 0.0
O105 O 0.39283 0.24968 0.0299 0.0
O106 O 0.33259 0.18755 0.96489 0.0
C107 C 0.52228 0.33807 0.08355 0.0
O108 O 0.49305 0.34927 0.04514 0.0
C109 C 0.3116 0.08776 0.83541 0.0
C110 C 0.2632 0.99838 0.85748 0.0
C111 C 0.27873 0.03567 0.80961 0.0
N112 N 0.31648 0.08137 0.89542 0.0
N113 N 0.28639 0.02791 0.90842 0.0
C114 C 0.33911 0.14253 0.80329 0.0
H115 H 0.37283 0.1749 0.8317 0.0
H116 H 0.35555 0.13894 0.75852 0.0
H117 H 0.30779 0.15532 0.79474 0.0
C118 C 0.52686 0.22689 0.95572 0.0
N119 N 0.47439 0.21034 0.9732 0.0
N120 N 0.4393 0.17188 0.93537 0.0
C121 C 0.46896 0.16249 0.89295 0.0
C122 C 0.52521 0.1977 0.90404 0.0
C123 C 0.5775 0.26555 0.99148 0.0
H124 H 0.57209 0.25159 0.03956 0.0
H125 H 0.58253 0.30756 0.99065 0.0
H126 H 0.61558 0.26766 0.97269 0.0
O127 O 0.41285 0.15853 0.09722 0.0
O128 O 0.35049 0.09583 0.03328 0.0
H129 H 0.40756 0.08028 0.86519 0.0
H130 H 0.47527 0.1048 0.83199 0.0
C131 C 0.44475 0.11707 0.84647 0.0
H132 H 0.43296 0.13195 0.80552 0.0
H133 H 0.28323 0.01132 0.95181 0.0
O134 O 0.51059 0.28802 0.09124 0.0
C135 C 0.37377 0.10943 0.08533 0.0
Co136 Co 0.81334 0.24302 0.70856 0.0
Co137 Co 0.90112 0.24669 0.61354 0.0
C138 C 0.80535 0.13884 0.65929 0.0
O139 O 0.78744 0.16383 0.69278 0.0
O140 O 0.84814 0.1655 0.62561 0.0
C141 C 0.70559 0.21281 0.75792 0.0
O142 O 0.68793 0.1767 0.71306 0.0
C143 C 0.94217 0.24534 0.48923 0.0
C144 C 0.03271 0.28538 0.50487 0.0
C145 C 0.99259 0.26402 0.45974 0.0
N146 N 0.95196 0.25572 0.54917 0.0
N147 N 0.00616 0.27888 0.5582 0.0
C148 C 0.88586 0.21935 0.46053 0.0
H149 H 0.85449 0.21709 0.49343 0.0
H150 H 0.88698 0.24317 0.41951 0.0
H151 H 0.87381 0.17669 0.44546 0.0
C152 C 0.80638 0.31702 0.61508 0.0
N153 N 0.82463 0.28289 0.63423 0.0
N154 N 0.86457 0.28822 0.59747 0.0
C155 C 0.87491 0.32831 0.55632 0.0
C156 C 0.83792 0.34718 0.56563 0.0
C157 C 0.76312 0.32476 0.64634 0.0
H158 H 0.78281 0.35365 0.68504 0.0
H159 H 0.72938 0.28446 0.66336 0.0
H160 H 0.74534 0.34311 0.615 0.0
O161 O 0.88492 0.27622 0.75462 0.0
O162 O 0.94551 0.27612 0.6882 0.0
H163 H 0.95974 0.35279 0.53637 0.0
H164 H 0.93741 0.39875 0.50622 0.0
C165 C 0.92451 0.35468 0.51538 0.0
H166 H 0.91377 0.33254 0.47119 0.0
H167 H 0.02531 0.29198 0.60059 0.0
O168 O 0.75754 0.24621 0.76381 0.0
C169 C 0.93367 0.28631 0.74078 0.0
Co170 Co 0.79961 0.5887 0.36797 0.0
Co171 Co 0.79891 0.67828 0.28039 0.0
C172 C 0.90515 0.68851 0.32393 0.0
O173 O 0.87888 0.64426 0.35506 0.0
O174 O 0.87977 0.70622 0.29069 0.0
C175 C 0.8365 0.53287 0.44794 0.0
O176 O 0.87824 0.58343 0.45669 0.0
C177 C 0.80243 0.72843 0.16086 0.0
C178 C 0.75889 0.77484 0.17996 0.0
C179 C 0.78319 0.76055 0.13369 0.0
N180 N 0.78966 0.72335 0.22046 0.0
N181 N 0.76442 0.752 0.2317 0.0
C182 C 0.83119 0.70183 0.13017 0.0
H183 H 0.83253 0.67058 0.16042 0.0
H184 H 0.80997 0.68224 0.08674 0.0
H185 H 0.87437 0.7344 0.11898 0.0
C186 C 0.72719 0.51303 0.2723 0.0
N187 N 0.76126 0.5647 0.29344 0.0
N188 N 0.75717 0.601 0.25859 0.0
C189 C 0.71846 0.57289 0.21539 0.0
C190 C 0.69897 0.51653 0.22213 0.0
C191 C 0.71853 0.46121 0.30266 0.0
H192 H 0.70103 0.45831 0.34881 0.0
H193 H 0.75916 0.46331 0.30786 0.0
H194 H 0.69008 0.42356 0.27612 0.0
O195 O 0.76351 0.62122 0.41839 0.0
O196 O 0.77157 0.68956 0.35906 0.0
H197 H 0.69414 0.63328 0.19706 0.0
H198 H 0.65108 0.56688 0.16082 0.0
C199 C 0.69428 0.59793 0.1741 0.0
H200 H 0.71951 0.6126 0.13202 0.0
H201 H 0.74926 0.75444 0.27435 0.0
O202 O 0.79715 0.5251 0.4123 0.0
C203 C 0.75749 0.66319 0.40933 0.0
C204 C 0.2129 0.63628 0.21475 0.0
C205 C 0.20486 0.67434 0.17934 0.0
C206 C 0.18635 0.61511 0.08974 0.0
C207 C 0.20231 0.58171 0.12319 0.0
N208 N 0.23968 0.56592 0.21532 0.0
N209 N 0.19263 0.70477 0.08061 0.0
C210 C 0.21826 0.59391 0.18509 0.0
C211 C 0.19392 0.6651 0.11605 0.0
N212 N 0.21214 0.63845 0.27687 0.0
N213 N 0.16202 0.59813 0.03383 0.0
H214 H 0.19896 0.7424 0.09797 0.0
H215 H 0.19053 0.70259 0.03326 0.0
H216 H 0.1543 0.56098 0.0137 0.0
H217 H 0.14457 0.61811 0.01017 0.0
H218 H 0.21244 0.60836 0.3048 0.0
H219 H 0.20498 0.6668 0.30046 0.0
H220 H 0.25727 0.57721 0.25857 0.0
H221 H 0.24456 0.5347 0.19514 0.0
C222 C 0.46821 0.65664 0.87677 0.0
C223 C 0.47492 0.64749 0.81464 0.0
C224 C 0.3905 0.55581 0.81906 0.0
C225 C 0.38618 0.56333 0.88234 0.0
N226 N 0.42722 0.6161 0.97414 0.0
N227 N 0.45025 0.58391 0.73025 0.0
C228 C 0.42705 0.61224 0.91209 0.0
C229 C 0.43812 0.59586 0.78662 0.0
N230 N 0.49974 0.70837 0.90155 0.0
N231 N 0.34939 0.5102 0.78997 0.0
H232 H 0.48577 0.6114 0.70596 0.0
H233 H 0.42818 0.5449 0.71002 0.0
H234 H 0.31556 0.47811 0.81261 0.0
H235 H 0.34695 0.50588 0.74279 0.0
H236 H 0.49249 0.71914 0.94458 0.0
H237 H 0.53015 0.74212 0.87716 0.0
H238 H 0.45955 0.64806 0.99857 0.0
H239 H 0.39751 0.58501 0.00185 0.0
C240 C 0.45176 0.86855 0.46236 0.0
C241 C 0.39561 0.825 0.46364 0.0
C242 C 0.42125 0.76984 0.52854 0.0
C243 C 0.47537 0.81673 0.53546 0.0
N244 N 0.54374 0.91053 0.50738 0.0
N245 N 0.32495 0.73609 0.5019 0.0
C246 C 0.4911 0.86607 0.50176 0.0
C247 C 0.37986 0.77592 0.49735 0.0
N248 N 0.4676 0.91142 0.42216 0.0
N249 N 0.40935 0.71929 0.55089 0.0
H250 H 0.29329 0.73854 0.47924 0.0
H251 H 0.31015 0.70271 0.53193 0.0
H252 H 0.43856 0.71267 0.57285 0.0
H253 H 0.37238 0.68263 0.54186 0.0
H254 H 0.50875 0.94186 0.41447 0.0
H255 H 0.43978 0.91412 0.39243 0.0
H256 H 0.55571 0.95 0.49084 0.0
H257 H 0.57545 0.90853 0.53055 0.0
C258 C 0.60745 0.25118 0.83574 0.0
C259 C 0.57349 0.20238 0.86971 0.0
C260 C 0.62977 0.16225 0.83528 0.0
C261 C 0.66477 0.2119 0.8026 0.0
N262 N 0.69682 0.30955 0.78883 0.0
N263 N 0.55985 0.11728 0.91404 0.0
C264 C 0.65682 0.2583 0.80819 0.0
C265 C 0.58685 0.15951 0.8731 0.0
N266 N 0.59167 0.29008 0.82803 0.0
N267 N 0.63778 0.11777 0.83048 0.0
H268 H 0.52848 0.11425 0.94263 0.0
H269 H 0.57146 0.08782 0.92332 0.0
H270 H 0.67198 0.11982 0.80838 0.0
H271 H 0.60944 0.07825 0.84644 0.0
H272 H 0.61144 0.32336 0.79799 0.0
H273 H 0.55574 0.28651 0.84735 0.0
H274 H 0.69525 0.34564 0.79674 0.0
H275 H 0.7349 0.31727 0.77195 0.0
C276 C 0.83102 0.43994 0.44263 0.0
C277 C 0.83652 0.48515 0.478 0.0
C278 C 0.8516 0.44366 0.56902 0.0
C279 C 0.83799 0.39498 0.53529 0.0
N280 N 0.80597 0.34316 0.44151 0.0
N281 N 0.84147 0.52477 0.5773 0.0
C282 C 0.82504 0.39199 0.47248 0.0
C283 C 0.84387 0.4856 0.54196 0.0
N284 N 0.83477 0.44396 0.38063 0.0
N285 N 0.87417 0.45107 0.62591 0.0
H286 H 0.83409 0.55523 0.55955 0.0
H287 H 0.84108 0.52346 0.62472 0.0
H288 H 0.88273 0.42238 0.64638 0.0
H289 H 0.88976 0.4882 0.64999 0.0
H290 H 0.83626 0.41426 0.35305 0.0
H291 H 0.8428 0.47981 0.35722 0.0
H292 H 0.79054 0.33729 0.39724 0.0
H293 H 0.80086 0.30701 0.46179 0.0
C294 C 0.5605 0.38788 0.18253 0.0
C295 C 0.56748 0.38357 0.1191 0.0
C296 C 0.66221 0.46338 0.1247 0.0
C297 C 0.65366 0.47031 0.18697 0.0
N298 N 0.59097 0.44671 0.27211 0.0
N299 N 0.62067 0.4233 0.0273 0.0
C300 C 0.60182 0.43452 0.21521 0.0
C301 C 0.617 0.42325 0.08937 0.0
N302 N 0.51419 0.3477 0.21153 0.0
N303 N 0.71407 0.49384 0.09979 0.0
H304 H 0.58895 0.39422 0.99964 0.0
H305 H 0.65322 0.45493 0.00281 0.0
H306 H 0.74835 0.52349 0.12424 0.0
H307 H 0.72433 0.48637 0.05659 0.0
H308 H 0.51001 0.34498 0.25871 0.0
H309 H 0.48116 0.31481 0.18875 0.0
H310 H 0.55196 0.42565 0.29255 0.0
H311 H 0.61961 0.48126 0.29693 0.0
C312 C 0.99604 0.27468 0.81355 0.0
C313 C 0.97794 0.30944 0.78732 0.0
C314 C 0.04479 0.38776 0.84963 0.0
C315 C 0.06562 0.35403 0.87249 0.0
N316 N 0.06808 0.26867 0.86932 0.0
N317 N 0.98943 0.40046 0.77274 0.0
C318 C 0.04314 0.29832 0.85256 0.0
C319 C 1.0035 0.36643 0.80324 0.0
N320 N 0.96711 0.21875 0.80258 0.0
N321 N 0.06292 0.4393 0.87392 0.0
H322 H 0.95871 0.38607 0.73922 0.0
H323 H 0.01089 0.4435 0.77732 0.0
H324 H 0.09342 0.45648 0.90762 0.0
H325 H 0.04493 0.46342 0.86412 0.0
H326 H 0.97436 0.19031 0.82562 0.0
H327 H 0.93253 0.19996 0.77391 0.0
H328 H 0.05744 0.23004 0.85112 0.0
H329 H 0.1029 0.28471 0.89761 0.0
C330 C 0.74528 0.68008 0.52046 0.0
C331 C 0.73336 0.68223 0.45787 0.0
C332 C 0.68901 0.73598 0.48546 0.0
C333 C 0.69289 0.72603 0.54823 0.0
N334 N 0.70957 0.67133 0.62231 0.0
N335 N 0.67584 0.69631 0.38522 0.0
C336 C 0.71641 0.69281 0.565 0.0
C337 C 0.69962 0.70523 0.44156 0.0
N338 N 0.78585 0.66898 0.53802 0.0
N339 N 0.67828 0.77654 0.46699 0.0
H340 H 0.67788 0.66959 0.35337 0.0
H341 H 0.64801 0.70961 0.37358 0.0
H342 H 0.67609 0.80445 0.49687 0.0
H343 H 0.67919 0.78707 0.42126 0.0
H344 H 0.79805 0.67137 0.58334 0.0
H345 H 0.81209 0.66465 0.50749 0.0
H346 H 0.723 0.64373 0.63442 0.0
H347 H 0.68434 0.67491 0.65495 0.0
C348 C 0.38825 0.04543 0.1532 0.0
C349 C 0.35393 0.06666 0.13339 0.0
C350 C 0.27745 0.99905 0.19697 0.0
C351 C 0.31291 0.9803 0.21976 0.0
N352 N 0.4041 0.99058 0.22781 0.0
N353 N 0.26983 0.07105 0.1433 0.0
C354 C 0.36897 0.00489 0.20021 0.0
C355 C 0.29957 0.04552 0.15721 0.0
N356 N 0.43827 0.06241 0.12539 0.0
N357 N 0.22218 0.97123 0.21174 0.0
H358 H 0.28479 0.10535 0.11443 0.0
H359 H 0.23246 0.06143 0.16427 0.0
H360 H 0.20453 0.93734 0.24129 0.0
H361 H 0.19291 0.97882 0.19114 0.0
H362 H 0.46235 0.04397 0.13295 0.0
H363 H 0.45397 0.0923 0.09104 0.0
H364 H 0.44685 0.01133 0.2204 0.0
H365 H 0.3912 0.96058 0.26198 0.0
C366 C 0.299 0.26867 0.05848 0.0
C367 C 0.3155 0.25864 1.00077 0.0
C368 C 0.26487 0.29862 0.9509 0.0
C369 C 0.25611 0.31648 0.00838 0.0
N370 N 0.27293 0.32588 0.11679 0.0
N371 N 0.32182 0.27274 0.89188 0.0
C372 C 0.27518 0.30337 0.0623 0.0
C373 C 0.30039 0.27579 0.94681 0.0
N374 N 0.30402 0.24335 0.10945 0.0
N375 N 0.23768 0.30156 0.90042 0.0
H376 H 0.34932 0.25782 0.88689 0.0
H377 H 0.31667 0.29014 0.85218 0.0
H378 H 0.20946 0.31585 0.90179 0.0
H379 H 0.23842 0.28413 0.85869 0.0
H380 H 0.28762 0.24497 0.15155 0.0
H381 H 0.31908 0.21576 0.10845 0.0
H382 H 0.29176 0.32235 0.15623 0.0
H383 H 0.25695 0.35248 0.12155 0.0
C384 C 0.7684 0.051 0.72047 0.0
C385 C 0.77729 0.07724 0.66274 0.0
C386 C 0.73648 0.98615 0.6132 0.0
C387 C 0.72064 0.95977 0.67104 0.0
N388 N 0.71211 0.96793 0.77951 0.0
N389 N 0.7602 0.06867 0.55439 0.0
C390 C 0.73402 0.9924 0.72471 0.0
C391 C 0.75873 0.04453 0.60906 0.0
N392 N 0.79465 0.08164 0.77106 0.0
N393 N 0.73264 0.95601 0.56242 0.0
H394 H 0.77485 0.11106 0.5495 0.0
H395 H 0.74179 0.04583 0.51506 0.0
H396 H 0.71899 0.91362 0.56359 0.0
H397 H 0.74871 0.97417 0.52028 0.0
H398 H 0.79386 0.06376 0.813 0.0
H399 H 0.82223 0.12435 0.76978 0.0
H400 H 0.71605 0.99056 0.81885 0.0
H401 H 0.68516 0.92535 0.78453 0.0
C402 C 0.04977 0.75826 0.39427 0.0
C403 C 0.08381 0.77978 0.34191 0.0
C404 C 1.00073 0.73858 0.277 0.0
C405 C 0.96663 0.72151 0.32965 0.0
N406 N 0.95957 0.72859 0.43871 0.0
N407 N 0.09085 0.8031 0.23497 0.0
C408 C 0.99138 0.73529 0.38848 0.0
C409 C 0.05905 0.77372 0.28365 0.0
N410 N 0.07263 0.75735 0.44903 0.0
N411 N 0.97802 0.7194 0.2208 0.0
H412 H 0.1334 0.8312 0.23824 0.0
H413 H 0.07397 0.8042 0.19299 0.0
H414 H 0.93571 0.6921 0.21389 0.0
H415 H 1.00195 0.7261 0.18183 0.0
H416 H 0.04882 0.73692 0.48716 0.0
H417 H 0.11499 0.77213 0.45485 0.0
H418 H 0.97645 0.74289 0.48177 0.0
H419 H 0.91704 0.71444 0.43638 0.0
C420 C 1.00388 0.22751 0.35916 0.0
C421 C 1.00357 0.27067 0.39323 0.0
C422 C 0.02121 0.32579 0.30024 0.0
C423 C 0.02643 0.28489 0.26707 0.0
N424 N 0.02935 0.19989 0.26506 0.0
N425 N 0.0212 0.3648 0.3987 0.0
C426 C 0.01963 0.23653 0.29659 0.0
C427 C 0.0149 0.32096 0.36447 0.0
N428 N 0.98825 0.17766 0.38643 0.0
N429 N 0.02072 0.36855 0.27018 0.0
H430 H 0.0165 0.36299 0.4458 0.0
H431 H 0.03577 0.40451 0.38121 0.0
H432 H 0.02549 0.37381 0.2232 0.0
H433 H 0.01071 0.39606 0.29089 0.0
H434 H 0.98186 0.1425 0.36283 0.0
H435 H 0.97776 0.17022 0.43244 0.0
H436 H 0.03097 0.16692 0.28529 0.0
H437 H 0.03974 0.2047 0.21895 0.0
C438 C 0.72958 0.72958 0.97112 0.0
C439 C 0.76922 0.77851 0.94063 0.0
C440 C 0.8206 0.81466 0.03639 0.0
C441 C 0.77811 0.76793 0.0675 0.0
N442 N 0.68615 0.68707 0.06674 0.0
N443 N 0.84877 0.87084 0.94444 0.0
C444 C 0.73078 0.72722 0.03553 0.0
C445 C 0.81372 0.82211 0.97338 0.0
N446 N 0.69177 0.68451 0.9385 0.0
N447 N 0.86788 0.85126 0.06683 0.0
H448 H 0.84557 0.87703 0.89811 0.0
H449 H 0.87846 0.90636 0.96695 0.0
H450 H 0.87349 0.84769 0.11323 0.0
H451 H 0.90294 0.88287 0.0455 0.0
H452 H 0.66585 0.64576 0.95792 0.0
H453 H 0.68996 0.68406 0.89116 0.0
H454 H 0.64824 0.65992 0.04624 0.0
H455 H 0.68489 0.68435 0.11403 0.0
C456 C 0.24267 0.03547 0.70373 0.0
C457 C 0.27293 0.02048 0.744 0.0
C458 C 0.28335 0.96619 0.66289 0.0
C459 C 0.26095 0.98786 0.62022 0.0
N460 N 0.22175 0.04606 0.59885 0.0
N461 N 0.3336 0.98235 0.75712 0.0
C462 C 0.24124 0.02342 0.64035 0.0
C463 C 0.29643 0.98877 0.7223 0.0
N464 N 0.21403 0.05961 0.72622 0.0
N465 N 0.29113 0.92314 0.64742 0.0
H466 H 0.34672 1.00031 0.79996 0.0
H467 H 0.35623 0.96453 0.7406 0.0
H468 H 0.27787 0.90261 0.6061 0.0
H469 H 0.30322 0.90294 0.67853 0.0
H470 H 0.1869 0.06668 0.70015 0.0
H471 H 0.21388 0.06845 0.77235 0.0
H472 H 0.2129 0.07728 0.60952 0.0
H473 H 0.21701 0.03538 0.5528 0.0
loop_
_geom_bond_atom_site_label_1
_geom_bond_atom_site_label_2
_geom_bond_distance
_geom_bond_site_symmetry_2
_ccdc_geom_bond_type
Co0 O3 1.970 . S
Co0 N17 1.989 1_556 S
Co0 O25 1.967 . S
Co0 O32 1.920 . S
Co1 O4 1.966 . S
Co1 N10 2.022 . S
Co1 N18 1.993 . S
Co1 O26 1.941 1_554 S
C2 O3 1.258 1_554 S
C2 O4 1.263 . S
O3 Co0 1.970 . S
O3 C2 1.258 1_556 S
O4 Co1 1.966 . S
O4 C2 1.263 . S
C5 O6 1.235 . S
C5 O32 1.289 . S
O6 C5 1.235 . S
C7 C9 1.400 . S
C7 N10 1.351 . S
C7 C12 1.501 . S
C8 C9 1.387 . S
C8 N11 1.341 . S
C9 C7 1.400 . S
C9 C8 1.387 . S
N10 Co1 2.022 . S
N10 C7 1.351 . S
N10 N11 1.365 . S
N11 C8 1.341 . S
N11 N10 1.365 . S
N11 H31 0.862 . S
C12 C7 1.501 . S
C12 H13 0.961 . S
C12 H14 0.961 . S
C12 H15 0.960 . S
H13 C12 0.961 . S
H14 C12 0.961 . S
H15 C12 0.960 . S
C16 N17 1.342 . S
C16 C20 1.401 . S
C16 C21 1.499 1_554 S
N17 Co0 1.989 1_554 S
N17 C16 1.342 . S
N17 N18 1.388 . S
N18 Co1 1.993 . S
N18 N17 1.388 . S
N18 C19 1.346 . S
C19 N18 1.346 . S
C19 C20 1.396 . S
C19 C29 1.510 . S
C20 C16 1.401 . S
C20 C19 1.396 . S
C21 C16 1.499 1_556 S
C21 H22 0.959 . S
C21 H23 0.960 1_556 S
C21 H24 0.961 . S
H22 C21 0.959 . S
H23 C21 0.960 1_554 S
H24 C21 0.961 . S
O25 Co0 1.967 . S
O25 C33 1.258 . S
O26 Co1 1.941 1_556 S
O26 C33 1.266 . S
H27 C29 0.959 . S
H28 C29 0.961 . S
C29 C19 1.510 . S
C29 H27 0.959 . S
C29 H28 0.961 . S
C29 H30 0.960 . S
H30 C29 0.960 . S
H31 N11 0.862 . S
O32 Co0 1.920 . S
O32 C5 1.289 . S
C33 O25 1.258 . S
C33 O26 1.266 . S
Co34 O37 1.970 . S
Co34 N51 1.989 . S
Co34 O59 1.967 . S
Co34 O66 1.920 . S
Co35 O38 1.966 . S
Co35 N44 2.022 . S
Co35 N52 1.993 . S
Co35 O60 1.941 . S
C36 O37 1.258 . S
C36 O38 1.263 . S
O37 Co34 1.970 . S
O37 C36 1.258 . S
O38 Co35 1.966 . S
O38 C36 1.263 . S
C39 O40 1.235 . S
C39 O66 1.289 . S
O40 C39 1.235 . S
C41 C43 1.400 . S
C41 N44 1.351 . S
C41 C46 1.501 . S
C42 C43 1.387 . S
C42 N45 1.341 . S
C43 C41 1.400 . S
C43 C42 1.387 . S
N44 Co35 2.022 . S
N44 C41 1.351 . S
N44 N45 1.365 . S
N45 C42 1.341 . S
N45 N44 1.365 . S
N45 H65 0.862 . S
C46 C41 1.501 . S
C46 H47 0.961 . S
C46 H48 0.961 . S
C46 H49 0.960 . S
H47 C46 0.961 . S
H48 C46 0.961 . S
H49 C46 0.960 . S
C50 N51 1.342 . S
C50 C54 1.401 . S
C50 C55 1.499 . S
N51 Co34 1.989 . S
N51 C50 1.342 . S
N51 N52 1.388 . S
N52 Co35 1.993 . S
N52 N51 1.388 . S
N52 C53 1.346 . S
C53 N52 1.346 . S
C53 C54 1.396 . S
C53 C63 1.510 . S
C54 C50 1.401 . S
C54 C53 1.396 . S
C55 C50 1.499 . S
C55 H56 0.959 . S
C55 H57 0.960 . S
C55 H58 0.961 . S
H56 C55 0.959 . S
H57 C55 0.960 . S
H58 C55 0.961 . S
O59 Co34 1.967 . S
O59 C67 1.258 . S
O60 Co35 1.941 . S
O60 C67 1.266 . S
H61 C63 0.959 . S
H62 C63 0.961 . S
C63 C53 1.510 . S
C63 H61 0.959 . S
C63 H62 0.961 . S
C63 H64 0.960 . S
H64 C63 0.960 . S
H65 N45 0.862 . S
O66 Co34 1.920 . S
O66 C39 1.289 . S
C67 O59 1.258 . S
C67 O60 1.266 . S
Co68 O71 1.970 . S
Co68 N85 1.989 . S
Co68 O93 1.967 . S
Co68 O100 1.920 . S
Co69 O72 1.966 . S
Co69 N78 2.022 . S
Co69 N86 1.993 . S
Co69 O94 1.941 . S
C70 O71 1.258 . S
C70 O72 1.263 . S
O71 Co68 1.970 . S
O71 C70 1.258 . S
O72 Co69 1.966 . S
O72 C70 1.263 . S
C73 O74 1.235 . S
C73 O100 1.289 . S
O74 C73 1.235 . S
C75 C77 1.400 . S
C75 N78 1.351 . S
C75 C80 1.501 . S
C76 C77 1.387 1_545 S
C76 N79 1.341 . S
C77 C75 1.400 . S
C77 C76 1.387 1_565 S
N78 Co69 2.022 . S
N78 C75 1.351 . S
N78 N79 1.365 1_565 S
N79 C76 1.341 . S
N79 N78 1.365 1_545 S
N79 H99 0.862 . S
C80 C75 1.501 . S
C80 H81 0.961 . S
C80 H82 0.961 . S
C80 H83 0.960 . S
H81 C80 0.961 . S
H82 C80 0.961 . S
H83 C80 0.960 . S
C84 N85 1.342 . S
C84 C88 1.401 . S
C84 C89 1.499 . S
N85 Co68 1.989 . S
N85 C84 1.342 . S
N85 N86 1.388 . S
N86 Co69 1.993 . S
N86 N85 1.388 . S
N86 C87 1.346 . S
C87 N86 1.346 . S
C87 C88 1.396 . S
C87 C97 1.510 . S
C88 C84 1.401 . S
C88 C87 1.396 . S
C89 C84 1.499 . S
C89 H90 0.959 . S
C89 H91 0.960 . S
C89 H92 0.961 . S
H90 C89 0.959 . S
H91 C89 0.960 . S
H92 C89 0.961 . S
O93 Co68 1.967 . S
O93 C101 1.258 . S
O94 Co69 1.941 . S
O94 C101 1.266 . S
H95 C97 0.959 . S
H96 C97 0.961 . S
C97 C87 1.510 . S
C97 H95 0.959 . S
C97 H96 0.961 . S
C97 H98 0.960 . S
H98 C97 0.960 . S
H99 N79 0.862 . S
O100 Co68 1.920 . S
O100 C73 1.289 . S
C101 O93 1.258 . S
C101 O94 1.266 . S
Co102 O105 1.970 . S
Co102 N119 1.989 1_554 S
Co102 O127 1.967 . S
Co102 O134 1.920 . S
Co103 O106 1.966 . S
Co103 N112 2.022 . S
Co103 N120 1.993 . S
Co103 O128 1.941 1_556 S
C104 O105 1.258 1_556 S
C104 O106 1.263 . S
O105 Co102 1.970 . S
O105 C104 1.258 1_554 S
O106 Co103 1.966 . S
O106 C104 1.263 . S
C107 O108 1.235 . S
C107 O134 1.289 . S
O108 C107 1.235 . S
C109 C111 1.400 . S
C109 N112 1.351 . S
C109 C114 1.501 . S
C110 C111 1.387 . S
C110 N113 1.341 . S
C111 C109 1.400 . S
C111 C110 1.387 . S
N112 Co103 2.022 . S
N112 C109 1.351 . S
N112 N113 1.365 . S
N113 C110 1.341 . S
N113 N112 1.365 . S
N113 H133 0.862 . S
C114 C109 1.501 . S
C114 H115 0.961 . S
C114 H116 0.961 . S
C114 H117 0.960 . S
H115 C114 0.961 . S
H116 C114 0.961 . S
H117 C114 0.960 . S
C118 N119 1.342 . S
C118 C122 1.401 . S
C118 C123 1.499 1_556 S
N119 Co102 1.989 1_556 S
N119 C118 1.342 . S
N119 N120 1.388 . S
N120 Co103 1.993 . S
N120 N119 1.388 . S
N120 C121 1.346 . S
C121 N120 1.346 . S
C121 C122 1.396 . S
C121 C131 1.510 . S
C122 C118 1.401 . S
C122 C121 1.396 . S
C123 C118 1.499 1_554 S
C123 H124 0.959 . S
C123 H125 0.960 1_554 S
C123 H126 0.961 . S
H124 C123 0.959 . S
H125 C123 0.960 1_556 S
H126 C123 0.961 . S
O127 Co102 1.967 . S
O127 C135 1.258 . S
O128 Co103 1.941 1_554 S
O128 C135 1.266 . S
H129 C131 0.959 . S
H130 C131 0.961 . S
C131 C121 1.510 . S
C131 H129 0.959 . S
C131 H130 0.961 . S
C131 H132 0.960 . S
H132 C131 0.960 . S
H133 N113 0.862 . S
O134 Co102 1.920 . S
O134 C107 1.289 . S
C135 O127 1.258 . S
C135 O128 1.266 . S
Co136 O139 1.970 . S
Co136 N153 1.989 . S
Co136 O161 1.967 . S
Co136 O168 1.920 . S
Co137 O140 1.966 . S
Co137 N146 2.022 . S
Co137 N154 1.993 . S
Co137 O162 1.941 . S
C138 O139 1.258 . S
C138 O140 1.263 . S
O139 Co136 1.970 . S
O139 C138 1.258 . S
O140 Co137 1.966 . S
O140 C138 1.263 . S
C141 O142 1.235 . S
C141 O168 1.289 . S
O142 C141 1.235 . S
C143 C145 1.400 . S
C143 N146 1.351 . S
C143 C148 1.501 . S
C144 C145 1.387 1_455 S
C144 N147 1.341 . S
C145 C143 1.400 . S
C145 C144 1.387 1_655 S
N146 Co137 2.022 . S
N146 C143 1.351 . S
N146 N147 1.365 1_655 S
N147 C144 1.341 . S
N147 N146 1.365 1_455 S
N147 H167 0.862 . S
C148 C143 1.501 . S
C148 H149 0.961 . S
C148 H150 0.961 . S
C148 H151 0.960 . S
H149 C148 0.961 . S
H150 C148 0.961 . S
H151 C148 0.960 . S
C152 N153 1.342 . S
C152 C156 1.401 . S
C152 C157 1.499 . S
N153 Co136 1.989 . S
N153 C152 1.342 . S
N153 N154 1.388 . S
N154 Co137 1.993 . S
N154 N153 1.388 . S
N154 C155 1.346 . S
C155 N154 1.346 . S
C155 C156 1.396 . S
C155 C165 1.510 . S
C156 C152 1.401 . S
C156 C155 1.396 . S
C157 C152 1.499 . S
C157 H158 0.959 . S
C157 H159 0.960 . S
C157 H160 0.961 . S
H158 C157 0.959 . S
H159 C157 0.960 . S
H160 C157 0.961 . S
O161 Co136 1.967 . S
O161 C169 1.258 . S
O162 Co137 1.941 . S
O162 C169 1.266 . S
H163 C165 0.959 . S
H164 C165 0.961 . S
C165 C155 1.510 . S
C165 H163 0.959 . S
C165 H164 0.961 . S
C165 H166 0.960 . S
H166 C165 0.960 . S
H167 N147 0.862 . S
O168 Co136 1.920 . S
O168 C141 1.289 . S
C169 O161 1.258 . S
C169 O162 1.266 . S
Co170 O173 1.970 . S
Co170 N187 1.989 . S
Co170 O195 1.967 . S
Co170 O202 1.920 . S
Co171 O174 1.966 . S
Co171 N180 2.022 . S
Co171 N188 1.993 . S
Co171 O196 1.941 . S
C172 O173 1.258 . S
C172 O174 1.263 . S
O173 Co170 1.970 . S
O173 C172 1.258 . S
O174 Co171 1.966 . S
O174 C172 1.263 . S
C175 O176 1.235 . S
C175 O202 1.289 . S
O176 C175 1.235 . S
C177 C179 1.400 . S
C177 N180 1.351 . S
C177 C182 1.501 . S
C178 C179 1.387 . S
C178 N181 1.341 . S
C179 C177 1.400 . S
C179 C178 1.387 . S
N180 Co171 2.022 . S
N180 C177 1.351 . S
N180 N181 1.365 . S
N181 C178 1.341 . S
N181 N180 1.365 . S
N181 H201 0.862 . S
C182 C177 1.501 . S
C182 H183 0.961 . S
C182 H184 0.961 . S
C182 H185 0.960 . S
H183 C182 0.961 . S
H184 C182 0.961 . S
H185 C182 0.960 . S
C186 N187 1.342 . S
C186 C190 1.401 . S
C186 C191 1.499 . S
N187 Co170 1.989 . S
N187 C186 1.342 . S
N187 N188 1.388 . S
N188 Co171 1.993 . S
N188 N187 1.388 . S
N188 C189 1.346 . S
C189 N188 1.346 . S
C189 C190 1.396 . S
C189 C199 1.510 . S
C190 C186 1.401 . S
C190 C189 1.396 . S
C191 C186 1.499 . S
C191 H192 0.959 . S
C191 H193 0.960 . S
C191 H194 0.961 . S
H192 C191 0.959 . S
H193 C191 0.960 . S
H194 C191 0.961 . S
O195 Co170 1.967 . S
O195 C203 1.258 . S
O196 Co171 1.941 . S
O196 C203 1.266 . S
H197 C199 0.959 . S
H198 C199 0.961 . S
C199 C189 1.510 . S
C199 H197 0.959 . S
C199 H198 0.961 . S
C199 H200 0.960 . S
H200 C199 0.960 . S
H201 N181 0.862 . S
O202 Co170 1.920 . S
O202 C175 1.289 . S
C203 O195 1.258 . S
C203 O196 1.266 . S
C204 C205 1.363 . S
C204 C210 1.379 . S
C204 N212 1.356 . S
C205 C204 1.363 . S
C205 C211 1.363 . S
C206 C207 1.363 . S
C206 C211 1.379 . S
C206 N213 1.356 . S
C207 C206 1.363 . S
C207 C210 1.363 . S
N208 C210 1.356 . S
N208 H220 0.984 . S
N208 H221 0.985 . S
N209 C211 1.356 . S
N209 H214 0.984 . S
N209 H215 0.985 . S
C210 C204 1.379 . S
C210 C207 1.363 . S
C210 N208 1.356 . S
C211 C205 1.363 . S
C211 C206 1.379 . S
C211 N209 1.356 . S
N212 C204 1.356 . S
N212 H218 0.984 . S
N212 H219 0.984 . S
N213 C206 1.356 . S
N213 H216 0.984 . S
N213 H217 0.985 . S
H214 N209 0.984 . S
H215 N209 0.985 . S
H216 N213 0.984 . S
H217 N213 0.985 . S
H218 N212 0.984 . S
H219 N212 0.984 . S
H220 N208 0.984 . S
H221 N208 0.985 . S
C222 C223 1.363 . S
C222 C228 1.379 . S
C222 N230 1.356 . S
C223 C222 1.363 . S
C223 C229 1.363 . S
C224 C225 1.363 . S
C224 C229 1.379 . S
C224 N231 1.356 . S
C225 C224 1.363 . S
C225 C228 1.363 . S
N226 C228 1.356 . S
N226 H238 0.984 . S
N226 H239 0.985 . S
N227 C229 1.356 . S
N227 H232 0.984 . S
N227 H233 0.985 . S
C228 C222 1.379 . S
C228 C225 1.363 . S
C228 N226 1.356 . S
C229 C223 1.363 . S
C229 C224 1.379 . S
C229 N227 1.356 . S
N230 C222 1.356 . S
N230 H236 0.984 . S
N230 H237 0.984 . S
N231 C224 1.356 . S
N231 H234 0.984 . S
N231 H235 0.985 . S
H232 N227 0.984 . S
H233 N227 0.985 . S
H234 N231 0.984 . S
H235 N231 0.985 . S
H236 N230 0.984 . S
H237 N230 0.984 . S
H238 N226 0.984 . S
H239 N226 0.985 . S
C240 C241 1.363 . S
C240 C246 1.379 . S
C240 N248 1.356 . S
C241 C240 1.363 . S
C241 C247 1.363 . S
C242 C243 1.363 . S
C242 C247 1.379 . S
C242 N249 1.356 . S
C243 C242 1.363 . S
C243 C246 1.363 . S
N244 C246 1.356 . S
N244 H256 0.984 . S
N244 H257 0.985 . S
N245 C247 1.356 . S
N245 H250 0.984 . S
N245 H251 0.985 . S
C246 C240 1.379 . S
C246 C243 1.363 . S
C246 N244 1.356 . S
C247 C241 1.363 . S
C247 C242 1.379 . S
C247 N245 1.356 . S
N248 C240 1.356 . S
N248 H254 0.984 . S
N248 H255 0.984 . S
N249 C242 1.356 . S
N249 H252 0.984 . S
N249 H253 0.985 . S
H250 N245 0.984 . S
H251 N245 0.985 . S
H252 N249 0.984 . S
H253 N249 0.985 . S
H254 N248 0.984 . S
H255 N248 0.984 . S
H256 N244 0.984 . S
H257 N244 0.985 . S
C258 C259 1.363 . S
C258 C264 1.379 . S
C258 N266 1.356 . S
C259 C258 1.363 . S
C259 C265 1.363 . S
C260 C261 1.363 . S
C260 C265 1.379 . S
C260 N267 1.356 . S
C261 C260 1.363 . S
C261 C264 1.363 . S
N262 C264 1.356 . S
N262 H274 0.984 . S
N262 H275 0.985 . S
N263 C265 1.356 . S
N263 H268 0.984 . S
N263 H269 0.985 . S
C264 C258 1.379 . S
C264 C261 1.363 . S
C264 N262 1.356 . S
C265 C259 1.363 . S
C265 C260 1.379 . S
C265 N263 1.356 . S
N266 C258 1.356 . S
N266 H272 0.984 . S
N266 H273 0.984 . S
N267 C260 1.356 . S
N267 H270 0.984 . S
N267 H271 0.985 . S
H268 N263 0.984 . S
H269 N263 0.985 . S
H270 N267 0.984 . S
H271 N267 0.985 . S
H272 N266 0.984 . S
H273 N266 0.984 . S
H274 N262 0.984 . S
H275 N262 0.985 . S
C276 C277 1.363 . S
C276 C282 1.379 . S
C276 N284 1.356 . S
C277 C276 1.363 . S
C277 C283 1.363 . S
C278 C279 1.363 . S
C278 C283 1.379 . S
C278 N285 1.356 . S
C279 C278 1.363 . S
C279 C282 1.363 . S
N280 C282 1.356 . S
N280 H292 0.984 . S
N280 H293 0.985 . S
N281 C283 1.356 . S
N281 H286 0.984 . S
N281 H287 0.985 . S
C282 C276 1.379 . S
C282 C279 1.363 . S
C282 N280 1.356 . S
C283 C277 1.363 . S
C283 C278 1.379 . S
C283 N281 1.356 . S
N284 C276 1.356 . S
N284 H290 0.984 . S
N284 H291 0.984 . S
N285 C278 1.356 . S
N285 H288 0.984 . S
N285 H289 0.985 . S
H286 N281 0.984 . S
H287 N281 0.985 . S
H288 N285 0.984 . S
H289 N285 0.985 . S
H290 N284 0.984 . S
H291 N284 0.984 . S
H292 N280 0.984 . S
H293 N280 0.985 . S
C294 C295 1.363 . S
C294 C300 1.379 . S
C294 N302 1.356 . S
C295 C294 1.363 . S
C295 C301 1.363 . S
C296 C297 1.363 . S
C296 C301 1.379 . S
C296 N303 1.356 . S
C297 C296 1.363 . S
C297 C300 1.363 . S
N298 C300 1.356 . S
N298 H310 0.984 . S
N298 H311 0.985 . S
N299 C301 1.356 . S
N299 H304 0.984 . S
N299 H305 0.985 . S
C300 C294 1.379 . S
C300 C297 1.363 . S
C300 N298 1.356 . S
C301 C295 1.363 . S
C301 C296 1.379 . S
C301 N299 1.356 . S
N302 C294 1.356 . S
N302 H308 0.984 . S
N302 H309 0.984 . S
N303 C296 1.356 . S
N303 H306 0.984 . S
N303 H307 0.985 . S
H304 N299 0.984 . S
H305 N299 0.985 . S
H306 N303 0.984 . S
H307 N303 0.985 . S
H308 N302 0.984 . S
H309 N302 0.984 . S
H310 N298 0.984 . S
H311 N298 0.985 . S
C312 C313 1.363 . S
C312 C318 1.379 1_655 S
C312 N320 1.356 . S
C313 C312 1.363 . S
C313 C319 1.363 1_655 S
C314 C315 1.363 . S
C314 C319 1.379 . S
C314 N321 1.356 . S
C315 C314 1.363 . S
C315 C318 1.363 . S
N316 C318 1.356 . S
N316 H328 0.984 1_455 S
N316 H329 0.985 . S
N317 C319 1.356 . S
N317 H322 0.984 1_455 S
N317 H323 0.985 . S
C318 C312 1.379 1_455 S
C318 C315 1.363 . S
C318 N316 1.356 . S
C319 C313 1.363 1_455 S
C319 C314 1.379 . S
C319 N317 1.356 . S
N320 C312 1.356 . S
N320 H326 0.984 . S
N320 H327 0.984 . S
N321 C314 1.356 . S
N321 H324 0.984 . S
N321 H325 0.985 . S
H322 N317 0.984 1_655 S
H323 N317 0.985 . S
H324 N321 0.984 . S
H325 N321 0.985 . S
H326 N320 0.984 . S
H327 N320 0.984 . S
H328 N316 0.984 1_655 S
H329 N316 0.985 . S
C330 C331 1.363 . S
C330 C336 1.379 . S
C330 N338 1.356 . S
C331 C330 1.363 . S
C331 C337 1.363 . S
C332 C333 1.363 . S
C332 C337 1.379 . S
C332 N339 1.356 . S
C333 C332 1.363 . S
C333 C336 1.363 . S
N334 C336 1.356 . S
N334 H346 0.984 . S
N334 H347 0.985 . S
N335 C337 1.356 . S
N335 H340 0.984 . S
N335 H341 0.985 . S
C336 C330 1.379 . S
C336 C333 1.363 . S
C336 N334 1.356 . S
C337 C331 1.363 . S
C337 C332 1.379 . S
C337 N335 1.356 . S
N338 C330 1.356 . S
N338 H344 0.984 . S
N338 H345 0.984 . S
N339 C332 1.356 . S
N339 H342 0.984 . S
N339 H343 0.985 . S
H340 N335 0.984 . S
H341 N335 0.985 . S
H342 N339 0.984 . S
H343 N339 0.985 . S
H344 N338 0.984 . S
H345 N338 0.984 . S
H346 N334 0.984 . S
H347 N334 0.985 . S
C348 C349 1.363 . S
C348 C354 1.379 . S
C348 N356 1.356 . S
C349 C348 1.363 . S
C349 C355 1.363 . S
C350 C351 1.363 . S
C350 C355 1.379 1_565 S
C350 N357 1.356 . S
C351 C350 1.363 . S
C351 C354 1.363 1_565 S
N352 C354 1.356 . S
N352 H364 0.984 . S
N352 H365 0.985 1_545 S
N353 C355 1.356 . S
N353 H358 0.984 . S
N353 H359 0.985 . S
C354 C348 1.379 . S
C354 C351 1.363 1_545 S
C354 N352 1.356 . S
C355 C349 1.363 . S
C355 C350 1.379 1_545 S
C355 N353 1.356 . S
N356 C348 1.356 . S
N356 H362 0.984 . S
N356 H363 0.984 . S
N357 C350 1.356 . S
N357 H360 0.984 . S
N357 H361 0.985 . S
H358 N353 0.984 . S
H359 N353 0.985 . S
H360 N357 0.984 . S
H361 N357 0.985 . S
H362 N356 0.984 . S
H363 N356 0.984 . S
H364 N352 0.984 . S
H365 N352 0.985 1_565 S
C366 C367 1.363 1_554 S
C366 C372 1.379 . S
C366 N374 1.356 . S
C367 C366 1.363 1_556 S
C367 C373 1.363 . S
C368 C369 1.363 1_556 S
C368 C373 1.379 . S
C368 N375 1.356 . S
C369 C368 1.363 1_554 S
C369 C372 1.363 . S
N370 C372 1.356 . S
N370 H382 0.984 . S
N370 H383 0.985 . S
N371 C373 1.356 . S
N371 H376 0.984 . S
N371 H377 0.985 . S
C372 C366 1.379 . S
C372 C369 1.363 . S
C372 N370 1.356 . S
C373 C367 1.363 . S
C373 C368 1.379 . S
C373 N371 1.356 . S
N374 C366 1.356 . S
N374 H380 0.984 . S
N374 H381 0.984 . S
N375 C368 1.356 . S
N375 H378 0.984 . S
N375 H379 0.985 . S
H376 N371 0.984 . S
H377 N371 0.985 . S
H378 N375 0.984 . S
H379 N375 0.985 . S
H380 N374 0.984 . S
H381 N374 0.984 . S
H382 N370 0.984 . S
H383 N370 0.985 . S
C384 C385 1.363 . S
C384 C390 1.379 1_545 S
C384 N392 1.356 . S
C385 C384 1.363 . S
C385 C391 1.363 . S
C386 C387 1.363 . S
C386 C391 1.379 1_565 S
C386 N393 1.356 . S
C387 C386 1.363 . S
C387 C390 1.363 . S
N388 C390 1.356 . S
N388 H400 0.984 . S
N388 H401 0.985 . S
N389 C391 1.356 . S
N389 H394 0.984 . S
N389 H395 0.985 . S
C390 C384 1.379 1_565 S
C390 C387 1.363 . S
C390 N388 1.356 . S
C391 C385 1.363 . S
C391 C386 1.379 1_545 S
C391 N389 1.356 . S
N392 C384 1.356 . S
N392 H398 0.984 . S
N392 H399 0.984 . S
N393 C386 1.356 . S
N393 H396 0.984 . S
N393 H397 0.985 . S
H394 N389 0.984 . S
H395 N389 0.985 . S
H396 N393 0.984 . S
H397 N393 0.985 . S
H398 N392 0.984 . S
H399 N392 0.984 . S
H400 N388 0.984 . S
H401 N388 0.985 . S
C402 C403 1.363 . S
C402 C408 1.379 1_455 S
C402 N410 1.356 . S
C403 C402 1.363 . S
C403 C409 1.363 . S
C404 C405 1.363 . S
C404 C409 1.379 1_655 S
C404 N411 1.356 . S
C405 C404 1.363 . S
C405 C408 1.363 . S
N406 C408 1.356 . S
N406 H418 0.984 . S
N406 H419 0.985 . S
N407 C409 1.356 . S
N407 H412 0.984 . S
N407 H413 0.985 . S
C408 C402 1.379 1_655 S
C408 C405 1.363 . S
C408 N406 1.356 . S
C409 C403 1.363 . S
C409 C404 1.379 1_455 S
C409 N407 1.356 . S
N410 C402 1.356 . S
N410 H416 0.984 . S
N410 H417 0.984 . S
N411 C404 1.356 . S
N411 H414 0.984 . S
N411 H415 0.985 . S
H412 N407 0.984 . S
H413 N407 0.985 . S
H414 N411 0.984 . S
H415 N411 0.985 . S
H416 N410 0.984 . S
H417 N410 0.984 . S
H418 N406 0.984 . S
H419 N406 0.985 . S
C420 C421 1.366 . S
C420 C426 1.379 . S
C420 N428 1.356 . S
C421 C420 1.366 . S
C421 C427 1.361 . S
C422 C423 1.363 . S
C422 C427 1.379 . S
C422 N429 1.356 . S
C423 C422 1.363 . S
C423 C426 1.363 . S
N424 C426 1.356 . S
N424 H436 0.984 . S
N424 H437 0.985 . S
N425 C427 1.356 1_655 S
N425 H430 0.984 . S
N425 H431 0.985 . S
C426 C420 1.379 . S
C426 C423 1.363 . S
C426 N424 1.356 . S
C427 C421 1.361 . S
C427 C422 1.379 . S
C427 N425 1.356 1_455 S
N428 C420 1.356 . S
N428 H434 0.984 . S
N428 H435 0.984 1_455 S
N429 C422 1.356 . S
N429 H432 0.984 . S
N429 H433 0.985 . S
H430 N425 0.984 . S
H431 N425 0.985 . S
H432 N429 0.984 . S
H433 N429 0.985 . S
H434 N428 0.984 . S
H435 N428 0.984 1_655 S
H436 N424 0.984 . S
H437 N424 0.985 . S
C438 C439 1.363 . S
C438 C444 1.379 1_556 S
C438 N446 1.356 . S
C439 C438 1.363 . S
C439 C445 1.363 . S
C440 C441 1.363 . S
C440 C445 1.379 1_554 S
C440 N447 1.356 . S
C441 C440 1.363 . S
C441 C444 1.363 . S
N442 C444 1.356 . S
N442 H454 0.984 . S
N442 H455 0.985 . S
N443 C445 1.356 . S
N443 H448 0.984 . S
N443 H449 0.985 . S
C444 C438 1.379 1_554 S
C444 C441 1.363 . S
C444 N442 1.356 . S
C445 C439 1.363 . S
C445 C440 1.379 1_556 S
C445 N443 1.356 . S
N446 C438 1.356 . S
N446 H452 0.984 . S
N446 H453 0.984 . S
N447 C440 1.356 . S
N447 H450 0.984 . S
N447 H451 0.985 . S
H448 N443 0.984 . S
H449 N443 0.985 . S
H450 N447 0.984 . S
H451 N447 0.985 . S
H452 N446 0.984 . S
H453 N446 0.984 . S
H454 N442 0.984 . S
H455 N442 0.985 . S
C456 C457 1.363 . S
C456 C462 1.379 . S
C456 N464 1.356 . S
C457 C456 1.363 . S
C457 C463 1.363 1_545 S
C458 C459 1.360 1_565 S
C458 C463 1.379 . S
C458 N465 1.356 . S
C459 C458 1.360 1_545 S
C459 C462 1.367 . S
N460 C462 1.356 . S
N460 H472 0.984 . S
N460 H473 0.985 . S
N461 C463 1.356 . S
N461 H466 0.984 1_565 S
N461 H467 0.985 . S
C462 C456 1.379 . S
C462 C459 1.367 . S
C462 N460 1.356 . S
C463 C457 1.363 1_565 S
C463 C458 1.379 . S
C463 N461 1.356 . S
N464 C456 1.356 . S
N464 H470 0.984 . S
N464 H471 0.984 . S
N465 C458 1.356 . S
N465 H468 0.984 . S
N465 H469 0.985 . S
H466 N461 0.984 1_545 S
H467 N461 0.985 . S
H468 N465 0.984 . S
H469 N465 0.985 . S
H470 N464 0.984 . S
H471 N464 0.984 . S
H472 N460 0.984 . S
H473 N460 0.985 . S
C205 C73 1.571 . S
C207 C20 1.603 . S
C223 C54 1.603 . S
C225 C5 1.571 . S
C241 C88 1.603 . S
C243 C39 1.571 . S
C259 C122 1.603 . S
C261 C141 1.571 . S
C277 C175 1.571 . S
C279 C156 1.603 . S
C295 C107 1.571 . S
C297 C190 1.603 . S
C313 C169 1.300 . S
C315 C33 1.300 . S
C331 C203 1.300 . S
C333 C67 1.300 . S
C349 C135 1.300 . S
C351 C101 1.300 . S
C367 C104 1.621 . S
C369 C2 1.621 . S
C385 C138 1.620 . S
C387 C36 1.620 . S
C403 C70 1.620 . S
C405 C172 1.620 . S
C421 C145 1.479 1_455 S
C423 C9 1.481 . S
C439 C43 1.481 . S
C441 C179 1.481 . S
C457 C111 1.481 . S
C459 C77 1.479 1_545 S
