# Generated by pormake.
# Topology uoz, (4)-cn, num edge types: 1
# Building blocks:
#     Node 0, Type 0, BuildingBlock: QUQFOY_clean_sbu_1, # of connection points: 4
#     Node 1, Type 0, BuildingBlock: QUQFOY_clean_sbu_1, # of connection points: 4
#     Node 2, Type 0, BuildingBlock: QUQFOY_clean_sbu_1, # of connection points: 4
#     Node 3, Type 0, BuildingBlock: QUQFOY_clean_sbu_1, # of connection points: 4
#     Node 4, Type 0, BuildingBlock: QUQFOY_clean_sbu_1, # of connection points: 4
#     Node 5, Type 0, BuildingBlock: QUQFOY_clean_sbu_1, # of connection points: 4
#     Node 6, Type 0, BuildingBlock: QUQFOY_clean_sbu_1, # of connection points: 4
#     Node 7, Type 0, BuildingBlock: QUQFOY_clean_sbu_1, # of connection points: 4
#     Node 8, Type 0, BuildingBlock: QUQFOY_clean_sbu_1, # of connection points: 4
#     Node 9, Type 0, BuildingBlock: QUQFOY_clean_sbu_1, # of connection points: 4
#     Node 10, Type 0, BuildingBlock: QUQFOY_clean_sbu_1, # of connection points: 4
#     Node 11, Type 0, BuildingBlock: QUQFOY_clean_sbu_1, # of connection points: 4
#     Node 12, Type 0, BuildingBlock: QUQFOY_clean_sbu_1, # of connection points: 4
#     Node 13, Type 0, BuildingBlock: QUQFOY_clean_sbu_1, # of connection points: 4
#     Node 14, Type 0, BuildingBlock: QUQFOY_clean_sbu_1, # of connection points: 4
#     Node 15, Type 0, BuildingBlock: QUQFOY_clean_sbu_1, # of connection points: 4
#     Edge 16, Type (0, 0), BuildingBlock: OJICUG_clean_linker_0, # of connection points: 2
#     Edge 17, Type (0, 0), BuildingBlock: OJICUG_clean_linker_0, # of connection points: 2
#     Edge 18, Type (0, 0), BuildingBlock: OJICUG_clean_linker_0, # of connection points: 2
#     Edge 19, Type (0, 0), BuildingBlock: OJICUG_clean_linker_0, # of connection points: 2
#     Edge 20, Type (0, 0), BuildingBlock: OJICUG_clean_linker_0, # of connection points: 2
#     Edge 21, Type (0, 0), BuildingBlock: OJICUG_clean_linker_0, # of connection points: 2
#     Edge 22, Type (0, 0), BuildingBlock: OJICUG_clean_linker_0, # of connection points: 2
#     Edge 23, Type (0, 0), BuildingBlock: OJICUG_clean_linker_0, # of connection points: 2
#     Edge 24, Type (0, 0), BuildingBlock: OJICUG_clean_linker_0, # of connection points: 2
#     Edge 25, Type (0, 0), BuildingBlock: OJICUG_clean_linker_0, # of connection points: 2
#     Edge 26, Type (0, 0), BuildingBlock: OJICUG_clean_linker_0, # of connection points: 2
#     Edge 27, Type (0, 0), BuildingBlock: OJICUG_clean_linker_0, # of connection points: 2
#     Edge 28, Type (0, 0), BuildingBlock: OJICUG_clean_linker_0, # of connection points: 2
#     Edge 29, Type (0, 0), BuildingBlock: OJICUG_clean_linker_0, # of connection points: 2
#     Edge 30, Type (0, 0), BuildingBlock: OJICUG_clean_linker_0, # of connection points: 2
#     Edge 31, Type (0, 0), BuildingBlock: OJICUG_clean_linker_0, # of connection points: 2
#     Edge 32, Type (0, 0), BuildingBlock: OJICUG_clean_linker_0, # of connection points: 2
#     Edge 33, Type (0, 0), BuildingBlock: OJICUG_clean_linker_0, # of connection points: 2
#     Edge 34, Type (0, 0), BuildingBlock: OJICUG_clean_linker_0, # of connection points: 2
#     Edge 35, Type (0, 0), BuildingBlock: OJICUG_clean_linker_0, # of connection points: 2
#     Edge 36, Type (0, 0), BuildingBlock: OJICUG_clean_linker_0, # of connection points: 2
#     Edge 37, Type (0, 0), BuildingBlock: OJICUG_clean_linker_0, # of connection points: 2
#     Edge 38, Type (0, 0), BuildingBlock: OJICUG_clean_linker_0, # of connection points: 2
#     Edge 39, Type (0, 0), BuildingBlock: OJICUG_clean_linker_0, # of connection points: 2
#     Edge 40, Type (0, 0), BuildingBlock: OJICUG_clean_linker_0, # of connection points: 2
#     Edge 41, Type (0, 0), BuildingBlock: OJICUG_clean_linker_0, # of connection points: 2
#     Edge 42, Type (0, 0), BuildingBlock: OJICUG_clean_linker_0, # of connection points: 2
#     Edge 43, Type (0, 0), BuildingBlock: OJICUG_clean_linker_0, # of connection points: 2
#     Edge 44, Type (0, 0), BuildingBlock: OJICUG_clean_linker_0, # of connection points: 2
#     Edge 45, Type (0, 0), BuildingBlock: OJICUG_clean_linker_0, # of connection points: 2
#     Edge 46, Type (0, 0), BuildingBlock: OJICUG_clean_linker_0, # of connection points: 2
#     Edge 47, Type (0, 0), BuildingBlock: OJICUG_clean_linker_0, # of connection points: 2
# Relax obj value: 0.155
# Max RMSD: 0.204
# Mean RMSD: 0.204
data_MOF--net-uoz--node1-QUQFOY_clean_sbu_1--edge1-OJICUG_clean_linker_0
_symmetry_space_group_name_H-M    P1
_symmetry_Int_Tables_number       1
_symmetry_cell_setting            triclinic
loop_
_symmetry_equiv_pos_as_xyz
'x, y, z'
_cell_length_a     48.369378
_cell_length_b     48.374222
_cell_length_c     16.862733
_cell_angle_alpha  89.997223
_cell_angle_beta   90.000896
_cell_angle_gamma 90.0047
loop_
_atom_site_label
_atom_site_type_symbol
_atom_site_fract_x
_atom_site_fract_y
_atom_site_fract_z
_atom_type_partial_charge
O0 O 0.07345 0.53556 0.22977 0.0
Cd1 Cd 0.07484 0.55906 0.33076 0.0
Cd2 Cd 0.033 0.5842 0.24131 0.0
O3 O 0.02966 0.54415 0.20527 0.0
O4 O 0.09739 0.53609 0.40493 0.0
O5 O 0.05302 0.54481 0.42415 0.0
C6 C 0.07518 0.53184 0.44544 0.0
C7 C -0.00674 0.61106 0.22243 0.0
C8 C 0.05124 0.52993 0.1933 0.0
C9 C 0.08995 0.61008 0.25328 0.0
O10 O 0.0686 0.60527 0.21174 0.0
O11 O 0.09421 0.5968 0.31725 0.0
O12 O 0.00736 0.6017 0.16379 0.0
O13 O 0.00136 0.60469 0.29304 0.0
O14 O 0.7434 0.77444 0.48101 0.0
Cd15 Cd 0.71982 0.77587 0.58183 0.0
Cd16 Cd 0.69472 0.73406 0.49231 0.0
O17 O 0.73483 0.73064 0.45675 0.0
O18 O 0.74276 0.79837 0.65619 0.0
O19 O 0.73395 0.754 0.67528 0.0
C20 C 0.74695 0.77614 0.69667 0.0
C21 C 0.66782 0.69436 0.47318 0.0
C22 C 0.74907 0.7522 0.44475 0.0
C23 C 0.6689 0.79102 0.50392 0.0
O24 O 0.67374 0.76967 0.46245 0.0
O25 O 0.6821 0.79528 0.56803 0.0
O26 O 0.67729 0.70843 0.41462 0.0
O27 O 0.67411 0.70245 0.54385 0.0
O28 O 0.50466 0.44446 0.73061 0.0
Cd29 Cd 0.50324 0.42091 0.8315 0.0
Cd30 Cd 0.54503 0.39575 0.74181 0.0
O31 O 0.54844 0.43584 0.7061 0.0
O32 O 0.48072 0.44388 0.90575 0.0
O33 O 0.52509 0.4351 0.92495 0.0
C34 C 0.50294 0.44809 0.94627 0.0
C35 C 0.58471 0.36883 0.72253 0.0
C36 C 0.52689 0.45009 0.69419 0.0
C37 C 0.48804 0.36997 0.75379 0.0
O38 O 0.50939 0.37477 0.71223 0.0
O39 O 0.48381 0.3832 0.81786 0.0
O40 O 0.5706 0.37828 0.66403 0.0
O41 O 0.57667 0.37515 0.79322 0.0
O42 O 0.83456 0.20581 0.97958 0.0
Cd43 Cd 0.85809 0.2044 0.08053 0.0
Cd44 Cd 0.88328 0.24618 0.99088 0.0
O45 O 0.84321 0.24958 0.95495 0.0
O46 O 0.83511 0.18186 0.1547 0.0
O47 O 0.84387 0.22621 0.17398 0.0
C48 C 0.83088 0.20406 0.19524 0.0
C49 C 0.9102 0.28587 0.97177 0.0
C50 C 0.82895 0.22802 0.94307 0.0
C51 C 0.90906 0.1892 0.00293 0.0
O52 O 0.90427 0.21055 0.96137 0.0
O53 O 0.8958 0.18497 0.06696 0.0
O54 O 0.90079 0.27176 0.91321 0.0
O55 O 0.90384 0.27781 0.04243 0.0
O56 O 0.07348 0.44417 0.9064 0.0
Cd57 Cd 0.0749 0.42064 0.80548 0.0
Cd58 Cd 0.03304 0.39548 0.89494 0.0
O59 O 0.0297 0.43555 0.93092 0.0
O60 O 0.09743 0.44361 0.73126 0.0
O61 O 0.05306 0.43484 0.71203 0.0
C62 C 0.07521 0.44783 0.69073 0.0
C63 C -0.00671 0.36865 0.91401 0.0
C64 C 0.05126 0.44979 0.94287 0.0
C65 C 0.09002 0.36965 0.8831 0.0
O66 O 0.06864 0.37443 0.92453 0.0
O67 O 0.09431 0.38293 0.81913 0.0
O68 O 0.00742 0.37801 0.97258 0.0
O69 O 0.00137 0.37499 0.84336 0.0
O70 O 0.83479 0.7742 0.15763 0.0
Cd71 Cd 0.85825 0.77559 0.05655 0.0
Cd72 Cd 0.88352 0.73379 0.14614 0.0
O73 O 0.8435 0.73047 0.18257 0.0
O74 O 0.83523 0.79816 0.98255 0.0
O75 O 0.84395 0.7538 0.96312 0.0
C76 C 0.83096 0.77597 0.94197 0.0
C77 C 0.91038 0.69406 0.16512 0.0
C78 C 0.82924 0.75202 0.19438 0.0
C79 C 0.90931 0.79078 0.13374 0.0
O80 O 0.90459 0.76942 0.17532 0.0
O81 O 0.89597 0.79502 0.06987 0.0
O82 O 0.90109 0.70822 0.22372 0.0
O83 O 0.90395 0.7021 0.0945 0.0
O84 O 0.50476 0.53585 0.40722 0.0
Cd85 Cd 0.50335 0.55934 0.30621 0.0
Cd86 Cd 0.54514 0.58459 0.39588 0.0
O87 O 0.54851 0.54455 0.43203 0.0
O88 O 0.4808 0.53633 0.23213 0.0
O89 O 0.52516 0.5451 0.21276 0.0
C90 C 0.503 0.5321 0.19156 0.0
C91 C 0.58485 0.61149 0.41514 0.0
C92 C 0.52696 0.53028 0.44386 0.0
C93 C 0.48813 0.61034 0.38361 0.0
O94 O 0.5095 0.60561 0.42516 0.0
O95 O 0.48389 0.59703 0.31969 0.0
O96 O 0.57068 0.60213 0.47364 0.0
O97 O 0.57684 0.60511 0.34446 0.0
O98 O 0.74318 0.20579 0.65619 0.0
Cd99 Cd 0.71966 0.20435 0.55525 0.0
Cd100 Cd 0.69442 0.24615 0.64491 0.0
O101 O 0.73449 0.24954 0.68087 0.0
O102 O 0.74265 0.18183 0.4811 0.0
O103 O 0.73386 0.22618 0.46178 0.0
C104 C 0.74686 0.20403 0.44054 0.0
C105 C 0.66753 0.28584 0.66423 0.0
C106 C 0.74876 0.228 0.69273 0.0
C107 C 0.66868 0.18912 0.63284 0.0
O108 O 0.67343 0.2105 0.67434 0.0
O109 O 0.68197 0.18488 0.56886 0.0
O110 O 0.67692 0.27169 0.72271 0.0
O111 O 0.67387 0.27782 0.59353 0.0
O112 O 0.33473 0.27429 0.6572 0.0
Cd113 Cd 0.35823 0.27575 0.55621 0.0
Cd114 Cd 0.38351 0.23395 0.64572 0.0
O115 O 0.34347 0.23054 0.68189 0.0
O116 O 0.3352 0.29826 0.4821 0.0
O117 O 0.34402 0.25391 0.46276 0.0
C118 C 0.331 0.27605 0.44154 0.0
C119 C 0.41041 0.19425 0.66475 0.0
C120 C 0.32918 0.25208 0.69378 0.0
C121 C 0.40923 0.29098 0.63365 0.0
O122 O 0.40452 0.2696 0.67513 0.0
O123 O 0.39592 0.29523 0.56974 0.0
O124 O 0.40106 0.20838 0.72334 0.0
O125 O 0.40402 0.2023 0.59412 0.0
O126 O 0.24322 0.70575 0.15687 0.0
Cd127 Cd 0.21972 0.70435 0.05588 0.0
Cd128 Cd 0.19449 0.74614 0.14544 0.0
O129 O 0.23453 0.7495 0.18159 0.0
O130 O 0.24273 0.68182 0.98176 0.0
O131 O 0.23396 0.72617 0.96245 0.0
C132 C 0.24696 0.70402 0.94121 0.0
C133 C 0.16762 0.78586 0.16449 0.0
C134 C 0.2488 0.72796 0.19347 0.0
C135 C 0.16871 0.68914 0.13328 0.0
O136 O 0.17345 0.71051 0.17481 0.0
O137 O 0.18202 0.6849 0.06936 0.0
O138 O 0.17696 0.77172 0.22307 0.0
O139 O 0.174 0.77781 0.09385 0.0
O140 O 0.24336 0.27421 0.98059 0.0
Cd141 Cd 0.2198 0.27562 0.08146 0.0
Cd142 Cd 0.19468 0.23381 0.99174 0.0
O143 O 0.23477 0.23043 0.95602 0.0
O144 O 0.24275 0.29817 0.15567 0.0
O145 O 0.23401 0.25381 0.17497 0.0
C146 C 0.24698 0.27598 0.19624 0.0
C147 C 0.16776 0.19413 0.97248 0.0
C148 C 0.24901 0.252 0.94414 0.0
C149 C 0.16887 0.29079 0.00364 0.0
O150 O 0.17369 0.26944 0.96211 0.0
O151 O 0.18209 0.29502 0.06774 0.0
O152 O 0.17721 0.20823 0.91397 0.0
O153 O 0.17408 0.20217 0.04317 0.0
O154 O 0.33462 0.70573 0.48025 0.0
Cd155 Cd 0.35816 0.70434 0.58117 0.0
Cd156 Cd 0.38332 0.74613 0.4915 0.0
O157 O 0.34324 0.74951 0.45569 0.0
O158 O 0.3352 0.68181 0.65541 0.0
O159 O 0.34395 0.72617 0.6746 0.0
C160 C 0.33097 0.70402 0.69591 0.0
C161 C 0.41022 0.78582 0.4723 0.0
C162 C 0.32899 0.72795 0.44379 0.0
C163 C 0.40913 0.68916 0.50355 0.0
O164 O 0.40432 0.7105 0.46196 0.0
O165 O 0.39588 0.68494 0.56759 0.0
O166 O 0.4008 0.77171 0.41377 0.0
O167 O 0.40389 0.77777 0.54298 0.0
O168 O 0.57334 0.03562 0.7299 0.0
Cd169 Cd 0.57477 0.05915 0.83083 0.0
Cd170 Cd 0.53295 0.0843 0.74128 0.0
O171 O 0.52956 0.04423 0.70539 0.0
O172 O 0.59731 0.03619 0.90502 0.0
O173 O 0.55295 0.04494 0.92429 0.0
C174 C 0.5751 0.03196 0.94556 0.0
C175 C 0.49325 0.11121 0.7223 0.0
C176 C 0.55112 0.02999 0.69345 0.0
C177 C 0.58992 0.11012 0.75315 0.0
O178 O 0.56857 0.10531 0.71163 0.0
O179 O 0.59418 0.09687 0.81718 0.0
O180 O 0.50733 0.1018 0.66369 0.0
O181 O 0.50133 0.10486 0.79293 0.0
O182 O 0.00461 0.94439 0.22973 0.0
Cd183 Cd 0.00324 0.92089 0.33073 0.0
Cd184 Cd 0.04505 0.89574 0.24115 0.0
O185 O 0.04839 0.9358 0.20514 0.0
O186 O 0.9807 0.94385 0.40491 0.0
O187 O 0.02507 0.93515 0.42411 0.0
C188 C 0.00291 0.94811 0.4454 0.0
C189 C 0.08478 0.86887 0.22212 0.0
C190 C 0.02682 0.95002 0.19322 0.0
C191 C 0.98812 0.86987 0.25331 0.0
O192 O 0.00945 0.87468 0.21169 0.0
O193 O 0.98388 0.88314 0.3173 0.0
O194 O 0.07066 0.87825 0.16353 0.0
O195 O 0.07671 0.87524 0.29276 0.0
O196 O 0.57334 0.94426 0.40652 0.0
Cd197 Cd 0.57479 0.92074 0.30558 0.0
Cd198 Cd 0.53295 0.89554 0.3951 0.0
O199 O 0.52957 0.9356 0.4311 0.0
O200 O 0.59732 0.94373 0.23144 0.0
O201 O 0.55297 0.93494 0.2121 0.0
C202 C 0.57512 0.94795 0.19086 0.0
C203 C 0.49323 0.86866 0.41429 0.0
C204 C 0.55113 0.94985 0.44303 0.0
C205 C 0.58996 0.86977 0.38321 0.0
O206 O 0.56858 0.87452 0.42463 0.0
O207 O 0.59424 0.88305 0.31924 0.0
O208 O 0.50737 0.87804 0.47282 0.0
O209 O 0.50128 0.875 0.34362 0.0
O210 O 0.00454 0.0358 0.90636 0.0
Cd211 Cd 0.00314 0.05932 0.8054 0.0
Cd212 Cd 0.04496 0.08452 0.89497 0.0
O213 O 0.04831 0.04446 0.93094 0.0
O214 O 0.98063 0.03634 0.73119 0.0
O215 O 0.02499 0.04511 0.71199 0.0
C216 C 0.00284 0.03212 0.69069 0.0
C217 C 0.0847 0.11137 0.91425 0.0
C218 C 0.02676 0.0302 0.94286 0.0
C219 C 0.98797 0.11032 0.88287 0.0
O220 O 0.00934 0.10556 0.92439 0.0
O221 O 0.98372 0.09703 0.81893 0.0
O222 O 0.07054 0.10199 0.97275 0.0
O223 O 0.07666 0.10503 0.84356 0.0
C224 C 0.1453 0.66519 0.24569 0.0
C225 C 0.1488 0.66859 0.16336 0.0
H226 H 0.1243 0.64349 0.33895 0.0
C227 C 0.13316 0.65237 0.11119 0.0
H228 H 0.15731 0.67733 0.28725 0.0
C229 C 0.11384 0.63354 0.14088 0.0
C230 C 0.11043 0.63005 0.2232 0.0
H231 H 0.13548 0.65461 0.04761 0.0
H232 H 0.10177 0.62146 0.09932 0.0
C233 C 0.12656 0.64579 0.27537 0.0
C234 C 0.61384 0.8464 0.49582 0.0
C235 C 0.6105 0.84988 0.41346 0.0
H236 H 0.63545 0.82542 0.58928 0.0
C237 C 0.62676 0.83422 0.36144 0.0
H238 H 0.60166 0.85843 0.53727 0.0
C239 C 0.64556 0.81491 0.3913 0.0
C240 C 0.64897 0.81152 0.47365 0.0
H241 H 0.62457 0.83652 0.29784 0.0
H242 H 0.65767 0.80283 0.34984 0.0
C243 C 0.6332 0.82766 0.52568 0.0
C244 C 0.46409 0.34659 0.64134 0.0
C245 C 0.46753 0.35003 0.72368 0.0
H246 H 0.44243 0.32557 0.54804 0.0
C247 C 0.4514 0.33428 0.77582 0.0
H248 H 0.47616 0.35869 0.59981 0.0
C249 C 0.43265 0.3149 0.7461 0.0
C250 C 0.42913 0.31153 0.66377 0.0
H251 H 0.45368 0.33655 0.8394 0.0
H252 H 0.42065 0.30274 0.78764 0.0
C253 C 0.44476 0.32778 0.61163 0.0
C254 C 0.9447 0.15253 0.025 0.0
C255 C 0.92899 0.16868 0.97284 0.0
H256 H 0.97619 0.12172 0.03685 0.0
C257 C 0.93246 0.16526 0.89051 0.0
H258 H 0.94241 0.15479 0.08858 0.0
C259 C 0.95125 0.14591 0.86081 0.0
C260 C 0.96745 0.13025 0.91297 0.0
H261 H 0.92039 0.17735 0.84896 0.0
H262 H 0.95348 0.14359 0.79723 0.0
C263 C 0.96406 0.13375 0.9953 0.0
C264 C 0.11387 0.34623 0.99567 0.0
C265 C 0.11053 0.34973 0.91332 0.0
H266 H 0.13547 0.32522 0.08908 0.0
C267 C 0.12676 0.33405 0.86126 0.0
H268 H 0.10172 0.35827 0.03714 0.0
C269 C 0.14553 0.31471 0.89108 0.0
C270 C 0.14895 0.3113 0.97343 0.0
H271 H 0.12456 0.33636 0.79767 0.0
H272 H 0.15762 0.30261 0.8496 0.0
C273 C 0.13321 0.32747 0.02549 0.0
C274 C 0.96417 0.84639 0.14103 0.0
C275 C 0.96763 0.84988 0.22334 0.0
H276 H 0.94249 0.82531 0.04789 0.0
C277 C 0.95153 0.83414 0.2756 0.0
H278 H 0.97622 0.85847 0.09941 0.0
C279 C 0.93278 0.81474 0.24601 0.0
C280 C 0.92924 0.81133 0.16371 0.0
H281 H 0.95382 0.83646 0.33916 0.0
H282 H 0.92079 0.8026 0.28764 0.0
C283 C 0.94485 0.82755 0.11145 0.0
C284 C 0.43255 0.66522 0.39116 0.0
C285 C 0.42908 0.66866 0.47348 0.0
H286 H 0.45359 0.64355 0.29791 0.0
C287 C 0.44481 0.65253 0.52566 0.0
H288 H 0.42046 0.67729 0.34959 0.0
C289 C 0.46419 0.63378 0.49599 0.0
C290 C 0.46758 0.63026 0.41367 0.0
H291 H 0.44252 0.65481 0.58924 0.0
H292 H 0.47634 0.62177 0.53756 0.0
C293 C 0.45136 0.64589 0.36149 0.0
C294 C 0.63314 0.15234 0.61089 0.0
C295 C 0.64879 0.16857 0.663 0.0
H296 H 0.60174 0.12143 0.59914 0.0
C297 C 0.64531 0.16519 0.74534 0.0
H298 H 0.63544 0.15456 0.5473 0.0
C299 C 0.62657 0.14581 0.7751 0.0
C300 C 0.61042 0.13006 0.72299 0.0
H301 H 0.65733 0.17734 0.78685 0.0
H302 H 0.62432 0.14352 0.83868 0.0
C303 C 0.61382 0.13352 0.64065 0.0
C304 C 0.95601 0.33711 0.86491 0.0
C305 C 0.96974 0.34987 0.92837 0.0
H306 H 0.92623 0.30697 0.82901 0.0
C307 C 0.96201 0.3431 0.00648 0.0
H308 H 0.96142 0.34196 0.80415 0.0
C309 C 0.94187 0.32304 0.02085 0.0
C310 C 0.92906 0.30935 0.9574 0.0
H311 H 0.97211 0.35271 0.05676 0.0
H312 H 0.93699 0.31766 0.08162 0.0
C313 C 0.93587 0.31704 0.87929 0.0
C314 C 0.45611 0.14288 0.7715 0.0
C315 C 0.46976 0.13006 0.708 0.0
H316 H 0.42646 0.17313 0.80747 0.0
C317 C 0.46202 0.13684 0.62992 0.0
H318 H 0.46153 0.13802 0.83224 0.0
C319 C 0.44194 0.15698 0.61559 0.0
C320 C 0.42922 0.17072 0.67908 0.0
H321 H 0.47205 0.12719 0.57961 0.0
H322 H 0.43705 0.16236 0.55484 0.0
C323 C 0.43603 0.16302 0.75717 0.0
C324 C 0.616 0.63712 0.50774 0.0
C325 C 0.60836 0.6303 0.42961 0.0
H326 H 0.64093 0.66263 0.58297 0.0
C327 C 0.62215 0.64302 0.3662 0.0
H328 H 0.60586 0.62754 0.55799 0.0
C329 C 0.64227 0.66311 0.38065 0.0
C330 C 0.64899 0.67086 0.45878 0.0
H331 H 0.61681 0.63813 0.30542 0.0
H332 H 0.65195 0.67315 0.3304 0.0
C333 C 0.63612 0.6572 0.52219 0.0
C334 C 0.13609 0.82313 0.11536 0.0
C335 C 0.14883 0.8094 0.17883 0.0
H336 H 0.10595 0.8529 0.0794 0.0
C337 C 0.14203 0.8171 0.25693 0.0
H338 H 0.14096 0.81774 0.0546 0.0
C339 C 0.12195 0.83724 0.27127 0.0
C340 C 0.10828 0.85004 0.2078 0.0
H341 H 0.15162 0.807 0.30722 0.0
H342 H 0.11654 0.8421 0.33203 0.0
C343 C 0.116 0.84326 0.1297 0.0
C344 C 0.96198 0.63666 0.13014 0.0
C345 C 0.96975 0.62988 0.2082 0.0
H346 H 0.93697 0.66217 0.05513 0.0
C347 C 0.95611 0.64269 0.27173 0.0
H348 H 0.972 0.62702 0.0798 0.0
C349 C 0.93602 0.66283 0.25746 0.0
C350 C 0.92918 0.67052 0.17939 0.0
H351 H 0.96155 0.63784 0.33247 0.0
H352 H 0.92646 0.67293 0.30779 0.0
C353 C 0.94188 0.65678 0.11587 0.0
C354 C 0.12201 0.14291 0.86536 0.0
C355 C 0.10824 0.13014 0.92874 0.0
H356 H 0.15182 0.17304 0.82963 0.0
C357 C 0.11592 0.1369 0.00689 0.0
H358 H 0.11664 0.13806 0.80457 0.0
C359 C 0.13606 0.15696 0.02138 0.0
C360 C 0.14891 0.17065 0.958 0.0
H361 H 0.10579 0.12729 0.05711 0.0
H362 H 0.1409 0.16233 0.08217 0.0
C363 C 0.14215 0.16297 0.87985 0.0
C364 C 0.63595 0.32312 0.61537 0.0
C365 C 0.64872 0.30935 0.67874 0.0
H366 H 0.6058 0.35291 0.57966 0.0
C367 C 0.64196 0.31701 0.7569 0.0
H368 H 0.6408 0.31776 0.55458 0.0
C369 C 0.62189 0.33714 0.77141 0.0
C370 C 0.60819 0.34999 0.70803 0.0
H371 H 0.65157 0.30689 0.80711 0.0
H372 H 0.61651 0.34197 0.8322 0.0
C373 C 0.61588 0.34324 0.62988 0.0
C374 C 0.44188 0.82301 0.52129 0.0
C375 C 0.42906 0.80932 0.45788 0.0
H376 H 0.47212 0.8527 0.5571 0.0
C377 C 0.43583 0.81701 0.37975 0.0
H378 H 0.43703 0.81762 0.58207 0.0
C379 C 0.45596 0.83709 0.36531 0.0
C380 C 0.4697 0.84986 0.42872 0.0
H381 H 0.42618 0.80694 0.3295 0.0
H382 H 0.46134 0.84195 0.30453 0.0
C383 C 0.46201 0.84309 0.50685 0.0
C384 C 0.02608 0.4993 0.09918 0.0
C385 C 0.05116 0.50879 0.13103 0.0
H386 H 0.00646 0.4732 0.01389 0.0
C387 C 0.07623 0.49919 0.09947 0.0
H388 H 0.00645 0.50647 0.1223 0.0
C389 C 0.07624 0.48056 0.03663 0.0
C390 C 0.05117 0.47094 0.00511 0.0
H391 H 0.09588 0.50639 0.12242 0.0
H392 H 0.09589 0.47339 0.01367 0.0
C393 C 0.02608 0.48039 0.03698 0.0
C394 C 0.79848 0.77707 0.28803 0.0
C395 C 0.80812 0.75198 0.25672 0.0
H396 H 0.77263 0.79678 0.3736 0.0
C397 C 0.79869 0.72692 0.28883 0.0
H398 H 0.80564 0.7967 0.26487 0.0
C399 C 0.77977 0.72697 0.35101 0.0
C400 C 0.77026 0.75207 0.3826 0.0
H401 H 0.8059 0.70728 0.26591 0.0
H402 H 0.77261 0.70736 0.3743 0.0
C403 C 0.77984 0.77712 0.35085 0.0
C404 C 0.5521 0.4997 0.53811 0.0
C405 C 0.52703 0.50914 0.50614 0.0
H406 H 0.5717 0.4736 0.62347 0.0
C407 C 0.50195 0.4995 0.53756 0.0
H408 H 0.57174 0.5069 0.5151 0.0
C409 C 0.50193 0.48086 0.60037 0.0
C410 C 0.52699 0.47127 0.632 0.0
H411 H 0.48231 0.50667 0.51452 0.0
H412 H 0.48228 0.47366 0.62323 0.0
C413 C 0.55209 0.48077 0.60028 0.0
C414 C 0.79831 0.25318 0.84901 0.0
C415 C 0.80779 0.22811 0.88084 0.0
H416 H 0.77218 0.2728 0.76375 0.0
C417 C 0.79819 0.20303 0.84929 0.0
H418 H 0.80548 0.27281 0.87213 0.0
C419 C 0.77955 0.20303 0.78648 0.0
C420 C 0.76992 0.2281 0.75497 0.0
H421 H 0.80539 0.18339 0.87222 0.0
H422 H 0.77238 0.18338 0.76351 0.0
C423 C 0.77938 0.25318 0.78684 0.0
C424 C 0.27969 0.22686 0.85014 0.0
C425 C 0.27018 0.25193 0.88194 0.0
H426 H 0.30583 0.20726 0.76489 0.0
C427 C 0.27976 0.277 0.85037 0.0
H428 H 0.27253 0.20723 0.87328 0.0
C429 C 0.29839 0.27702 0.78755 0.0
C430 C 0.30804 0.25196 0.75606 0.0
H431 H 0.27254 0.29664 0.87329 0.0
H432 H 0.30555 0.29668 0.76456 0.0
C433 C 0.29861 0.22688 0.78796 0.0
C434 C 0.29832 0.75312 0.34982 0.0
C435 C 0.30782 0.72804 0.3816 0.0
H436 H 0.27219 0.77275 0.2646 0.0
C437 C 0.29822 0.70297 0.35001 0.0
H438 H 0.30549 0.77274 0.37297 0.0
C439 C 0.27958 0.70297 0.2872 0.0
C440 C 0.26994 0.72804 0.25573 0.0
H441 H 0.30542 0.68332 0.37291 0.0
H442 H 0.27241 0.68333 0.2642 0.0
C443 C 0.27939 0.75312 0.28765 0.0
C444 C 0.52595 0.98044 0.53719 0.0
C445 C 0.55103 0.971 0.50529 0.0
H446 H 0.50632 0.00652 0.62253 0.0
C447 C 0.5761 0.98062 0.5368 0.0
H448 H 0.50632 0.97324 0.51411 0.0
C449 C 0.5761 -0.00075 0.59964 0.0
C450 C 0.55103 0.00884 0.63121 0.0
H451 H 0.59575 0.97345 0.51382 0.0
H452 H 0.59575 0.00644 0.62257 0.0
C453 C 0.52595 -0.00064 0.59939 0.0
C454 C 0.00179 -0.00059 0.03661 0.0
C455 C 0.02686 0.00905 0.0051 0.0
H456 H 0.98216 0.97356 0.12238 0.0
C457 C 0.05195 -0.0004 0.03695 0.0
H458 H 0.98214 0.00658 0.01365 0.0
C459 C 0.05196 0.98067 0.09913 0.0
C460 C 0.02688 0.97118 0.13097 0.0
H461 H 0.07157 0.0068 0.01386 0.0
H462 H 0.07159 0.9735 0.12224 0.0
C463 C 0.00181 0.98077 0.09943 0.0
C464 C 0.09993 0.47941 0.59679 0.0
C465 C 0.07495 0.46857 0.62589 0.0
H466 H 0.11958 0.5079 0.51771 0.0
C467 C 0.04991 0.47924 0.59652 0.0
H468 H 0.1196 0.4718 0.61844 0.0
C469 C 0.0499 0.50039 0.53962 0.0
C470 C 0.07493 0.51108 0.51025 0.0
H471 H 0.0303 0.47155 0.61834 0.0
H472 H 0.03029 0.50806 0.51779 0.0
C473 C 0.09993 0.50026 0.53935 0.0
C474 C 0.79937 0.80077 0.84823 0.0
C475 C 0.81019 0.77576 0.8772 0.0
H476 H 0.7709 0.82048 0.76923 0.0
C477 C 0.7995 0.75074 0.84772 0.0
H478 H 0.80701 0.8204 0.86995 0.0
C479 C 0.77834 0.75079 0.79082 0.0
C480 C 0.76768 0.77584 0.76155 0.0
H481 H 0.80717 0.73112 0.86945 0.0
H482 H 0.77066 0.73119 0.76889 0.0
C483 C 0.77852 0.80081 0.79078 0.0
C484 C 0.52827 0.50067 0.09733 0.0
C485 C 0.50324 0.51134 0.12676 0.0
H486 H 0.54786 0.47184 0.01856 0.0
C487 C 0.47824 0.5005 0.09772 0.0
H488 H 0.54788 0.50835 0.11911 0.0
C489 C 0.47823 0.47966 0.04028 0.0
C490 C 0.50321 0.46883 0.01112 0.0
H491 H 0.45859 0.50813 0.11941 0.0
H492 H 0.45857 0.47202 0.01868 0.0
C493 C 0.52825 0.47951 0.04044 0.0
C494 C 0.79931 0.17932 0.28918 0.0
C495 C 0.81013 0.20431 0.26007 0.0
H496 H 0.77084 0.15965 0.36828 0.0
C497 C 0.79944 0.22934 0.28943 0.0
H498 H 0.80694 0.15967 0.26755 0.0
C499 C 0.77828 0.22933 0.34632 0.0
C500 C 0.76762 0.20429 0.37571 0.0
H501 H 0.80711 0.24895 0.26758 0.0
H502 H 0.7706 0.24894 0.36814 0.0
C503 C 0.77846 0.17931 0.34663 0.0
C504 C 0.29959 0.25073 0.34734 0.0
C505 C 0.31024 0.27578 0.37673 0.0
H506 H 0.27078 0.2311 0.26859 0.0
C507 C 0.29937 0.30075 0.34766 0.0
H508 H 0.30729 0.23113 0.36915 0.0
C509 C 0.27852 0.30073 0.29021 0.0
C510 C 0.26772 0.27574 0.26109 0.0
H511 H 0.30698 0.32042 0.36932 0.0
H512 H 0.27087 0.32038 0.26859 0.0
C513 C 0.27843 0.25071 0.29045 0.0
C514 C 0.29954 0.72931 0.79009 0.0
C515 C 0.31022 0.70428 0.76075 0.0
H516 H 0.27069 0.74892 0.86878 0.0
C517 C 0.2994 0.67929 0.7899 0.0
H518 H 0.30721 0.74892 0.76822 0.0
C519 C 0.27855 0.67929 0.84734 0.0
C520 C 0.26771 0.70428 0.8764 0.0
H521 H 0.30704 0.65963 0.76829 0.0
H522 H 0.27093 0.65964 0.86902 0.0
C523 C 0.27838 0.72931 0.84698 0.0
C524 C 0.59985 0.97954 0.09697 0.0
C525 C 0.57486 0.9687 0.12604 0.0
H526 H 0.6195 0.00803 0.0179 0.0
C527 C 0.54982 0.97936 0.09664 0.0
H528 H 0.6195 0.97193 0.11863 0.0
C529 C 0.54982 0.00052 0.03975 0.0
C530 C 0.57485 0.01121 0.0104 0.0
H531 H 0.53021 0.97167 0.11845 0.0
H532 H 0.53021 0.00818 0.0179 0.0
C533 C 0.59984 0.00039 0.03952 0.0
C534 C 0.02816 0.00072 0.59648 0.0
C535 C 0.00311 0.01137 0.62586 0.0
H536 H 0.04779 0.97191 0.51775 0.0
C537 C 0.97813 0.00052 0.59676 0.0
H538 H 0.04776 0.00841 0.61831 0.0
C539 C 0.97815 0.97967 0.53932 0.0
C540 C 0.00315 0.96887 0.51022 0.0
H541 H 0.95847 0.00813 0.6184 0.0
H542 H 0.9585 0.97203 0.51768 0.0
C543 C 0.02818 0.97957 0.53959 0.0
loop_
_geom_bond_atom_site_label_1
_geom_bond_atom_site_label_2
_geom_bond_distance
_geom_bond_site_symmetry_2
_ccdc_geom_bond_type
O0 Cd1 2.223 . S
O0 C8 1.315 . S
Cd1 O0 2.223 . S
Cd1 O4 2.297 . S
Cd1 O5 2.439 . S
Cd1 O11 2.240 . S
Cd2 O3 2.240 . S
Cd2 O10 2.223 . S
Cd2 O12 2.297 . S
Cd2 O13 2.439 . S
O3 Cd2 2.240 . S
O3 C8 1.279 . S
O4 Cd1 2.297 . S
O4 C6 1.247 . S
O5 Cd1 2.439 . S
O5 C6 1.208 . S
C6 O4 1.247 . S
C6 O5 1.208 . S
C7 O12 1.247 . S
C7 O13 1.208 . S
C8 O0 1.315 . S
C8 O3 1.279 . S
C9 O10 1.315 . S
C9 O11 1.279 . S
O10 Cd2 2.223 . S
O10 C9 1.315 . S
O11 Cd1 2.240 . S
O11 C9 1.279 . S
O12 Cd2 2.297 . S
O12 C7 1.247 . S
O13 Cd2 2.439 . S
O13 C7 1.208 . S
O14 Cd15 2.223 . S
O14 C22 1.315 . S
Cd15 O14 2.223 . S
Cd15 O18 2.297 . S
Cd15 O19 2.439 . S
Cd15 O25 2.240 . S
Cd16 O17 2.240 . S
Cd16 O24 2.223 . S
Cd16 O26 2.297 . S
Cd16 O27 2.439 . S
O17 Cd16 2.240 . S
O17 C22 1.279 . S
O18 Cd15 2.297 . S
O18 C20 1.247 . S
O19 Cd15 2.439 . S
O19 C20 1.208 . S
C20 O18 1.247 . S
C20 O19 1.208 . S
C21 O26 1.247 . S
C21 O27 1.208 . S
C22 O14 1.315 . S
C22 O17 1.279 . S
C23 O24 1.315 . S
C23 O25 1.279 . S
O24 Cd16 2.223 . S
O24 C23 1.315 . S
O25 Cd15 2.240 . S
O25 C23 1.279 . S
O26 Cd16 2.297 . S
O26 C21 1.247 . S
O27 Cd16 2.439 . S
O27 C21 1.208 . S
O28 Cd29 2.223 . S
O28 C36 1.315 . S
Cd29 O28 2.223 . S
Cd29 O32 2.297 . S
Cd29 O33 2.439 . S
Cd29 O39 2.240 . S
Cd30 O31 2.240 . S
Cd30 O38 2.223 . S
Cd30 O40 2.297 . S
Cd30 O41 2.439 . S
O31 Cd30 2.240 . S
O31 C36 1.279 . S
O32 Cd29 2.297 . S
O32 C34 1.247 . S
O33 Cd29 2.439 . S
O33 C34 1.208 . S
C34 O32 1.247 . S
C34 O33 1.208 . S
C35 O40 1.247 . S
C35 O41 1.208 . S
C36 O28 1.315 . S
C36 O31 1.279 . S
C37 O38 1.315 . S
C37 O39 1.279 . S
O38 Cd30 2.223 . S
O38 C37 1.315 . S
O39 Cd29 2.240 . S
O39 C37 1.279 . S
O40 Cd30 2.297 . S
O40 C35 1.247 . S
O41 Cd30 2.439 . S
O41 C35 1.208 . S
O42 Cd43 2.223 1_556 S
O42 C50 1.315 . S
Cd43 O42 2.223 1_554 S
Cd43 O46 2.297 . S
Cd43 O47 2.439 . S
Cd43 O53 2.240 . S
Cd44 O45 2.240 . S
Cd44 O52 2.223 . S
Cd44 O54 2.297 . S
Cd44 O55 2.439 1_556 S
O45 Cd44 2.240 . S
O45 C50 1.279 . S
O46 Cd43 2.297 . S
O46 C48 1.247 . S
O47 Cd43 2.439 . S
O47 C48 1.208 . S
C48 O46 1.247 . S
C48 O47 1.208 . S
C49 O54 1.247 1_554 S
C49 O55 1.208 . S
C50 O42 1.315 . S
C50 O45 1.279 . S
C51 O52 1.315 . S
C51 O53 1.279 1_556 S
O52 Cd44 2.223 . S
O52 C51 1.315 . S
O53 Cd43 2.240 . S
O53 C51 1.279 1_554 S
O54 Cd44 2.297 . S
O54 C49 1.247 1_556 S
O55 Cd44 2.439 1_554 S
O55 C49 1.208 . S
O56 Cd57 2.223 . S
O56 C64 1.315 . S
Cd57 O56 2.223 . S
Cd57 O60 2.297 . S
Cd57 O61 2.439 . S
Cd57 O67 2.240 . S
Cd58 O59 2.240 . S
Cd58 O66 2.223 1_556 S
Cd58 O68 2.297 . S
Cd58 O69 2.439 . S
O59 Cd58 2.240 . S
O59 C64 1.279 . S
O60 Cd57 2.297 . S
O60 C62 1.247 . S
O61 Cd57 2.439 . S
O61 C62 1.208 . S
C62 O60 1.247 . S
C62 O61 1.208 . S
C63 O68 1.247 . S
C63 O69 1.208 . S
C64 O56 1.315 . S
C64 O59 1.279 . S
C65 O66 1.315 1_556 S
C65 O67 1.279 . S
O66 Cd58 2.223 1_554 S
O66 C65 1.315 1_554 S
O67 Cd57 2.240 . S
O67 C65 1.279 . S
O68 Cd58 2.297 . S
O68 C63 1.247 . S
O69 Cd58 2.439 . S
O69 C63 1.208 . S
O70 Cd71 2.223 . S
O70 C78 1.315 . S
Cd71 O70 2.223 . S
Cd71 O74 2.297 1_554 S
Cd71 O75 2.439 1_554 S
Cd71 O81 2.240 . S
Cd72 O73 2.240 . S
Cd72 O80 2.223 . S
Cd72 O82 2.297 . S
Cd72 O83 2.439 . S
O73 Cd72 2.240 . S
O73 C78 1.279 . S
O74 Cd71 2.297 1_556 S
O74 C76 1.247 . S
O75 Cd71 2.439 1_556 S
O75 C76 1.208 . S
C76 O74 1.247 . S
C76 O75 1.208 . S
C77 O82 1.247 . S
C77 O83 1.208 . S
C78 O70 1.315 . S
C78 O73 1.279 . S
C79 O80 1.315 . S
C79 O81 1.279 . S
O80 Cd72 2.223 . S
O80 C79 1.315 . S
O81 Cd71 2.240 . S
O81 C79 1.279 . S
O82 Cd72 2.297 . S
O82 C77 1.247 . S
O83 Cd72 2.439 . S
O83 C77 1.208 . S
O84 Cd85 2.223 . S
O84 C92 1.315 . S
Cd85 O84 2.223 . S
Cd85 O88 2.297 . S
Cd85 O89 2.439 . S
Cd85 O95 2.240 . S
Cd86 O87 2.240 . S
Cd86 O94 2.223 . S
Cd86 O96 2.297 . S
Cd86 O97 2.439 . S
O87 Cd86 2.240 . S
O87 C92 1.279 . S
O88 Cd85 2.297 . S
O88 C90 1.247 . S
O89 Cd85 2.439 . S
O89 C90 1.208 . S
C90 O88 1.247 . S
C90 O89 1.208 . S
C91 O96 1.247 . S
C91 O97 1.208 . S
C92 O84 1.315 . S
C92 O87 1.279 . S
C93 O94 1.315 . S
C93 O95 1.279 . S
O94 Cd86 2.223 . S
O94 C93 1.315 . S
O95 Cd85 2.240 . S
O95 C93 1.279 . S
O96 Cd86 2.297 . S
O96 C91 1.247 . S
O97 Cd86 2.439 . S
O97 C91 1.208 . S
O98 Cd99 2.223 . S
O98 C106 1.315 . S
Cd99 O98 2.223 . S
Cd99 O102 2.297 . S
Cd99 O103 2.439 . S
Cd99 O109 2.240 . S
Cd100 O101 2.240 . S
Cd100 O108 2.223 . S
Cd100 O110 2.297 . S
Cd100 O111 2.439 . S
O101 Cd100 2.240 . S
O101 C106 1.279 . S
O102 Cd99 2.297 . S
O102 C104 1.247 . S
O103 Cd99 2.439 . S
O103 C104 1.208 . S
C104 O102 1.247 . S
C104 O103 1.208 . S
C105 O110 1.247 . S
C105 O111 1.208 . S
C106 O98 1.315 . S
C106 O101 1.279 . S
C107 O108 1.315 . S
C107 O109 1.279 . S
O108 Cd100 2.223 . S
O108 C107 1.315 . S
O109 Cd99 2.240 . S
O109 C107 1.279 . S
O110 Cd100 2.297 . S
O110 C105 1.247 . S
O111 Cd100 2.439 . S
O111 C105 1.208 . S
O112 Cd113 2.223 . S
O112 C120 1.315 . S
Cd113 O112 2.223 . S
Cd113 O116 2.297 . S
Cd113 O117 2.439 . S
Cd113 O123 2.240 . S
Cd114 O115 2.240 . S
Cd114 O122 2.223 . S
Cd114 O124 2.297 . S
Cd114 O125 2.439 . S
O115 Cd114 2.240 . S
O115 C120 1.279 . S
O116 Cd113 2.297 . S
O116 C118 1.247 . S
O117 Cd113 2.439 . S
O117 C118 1.208 . S
C118 O116 1.247 . S
C118 O117 1.208 . S
C119 O124 1.247 . S
C119 O125 1.208 . S
C120 O112 1.315 . S
C120 O115 1.279 . S
C121 O122 1.315 . S
C121 O123 1.279 . S
O122 Cd114 2.223 . S
O122 C121 1.315 . S
O123 Cd113 2.240 . S
O123 C121 1.279 . S
O124 Cd114 2.297 . S
O124 C119 1.247 . S
O125 Cd114 2.439 . S
O125 C119 1.208 . S
O126 Cd127 2.223 . S
O126 C134 1.315 . S
Cd127 O126 2.223 . S
Cd127 O130 2.297 1_554 S
Cd127 O131 2.439 1_554 S
Cd127 O137 2.240 . S
Cd128 O129 2.240 . S
Cd128 O136 2.223 . S
Cd128 O138 2.297 . S
Cd128 O139 2.439 . S
O129 Cd128 2.240 . S
O129 C134 1.279 . S
O130 Cd127 2.297 1_556 S
O130 C132 1.247 . S
O131 Cd127 2.439 1_556 S
O131 C132 1.208 . S
C132 O130 1.247 . S
C132 O131 1.208 . S
C133 O138 1.247 . S
C133 O139 1.208 . S
C134 O126 1.315 . S
C134 O129 1.279 . S
C135 O136 1.315 . S
C135 O137 1.279 . S
O136 Cd128 2.223 . S
O136 C135 1.315 . S
O137 Cd127 2.240 . S
O137 C135 1.279 . S
O138 Cd128 2.297 . S
O138 C133 1.247 . S
O139 Cd128 2.439 . S
O139 C133 1.208 . S
O140 Cd141 2.223 1_556 S
O140 C148 1.315 . S
Cd141 O140 2.223 1_554 S
Cd141 O144 2.297 . S
Cd141 O145 2.439 . S
Cd141 O151 2.240 . S
Cd142 O143 2.240 . S
Cd142 O150 2.223 . S
Cd142 O152 2.297 . S
Cd142 O153 2.439 1_556 S
O143 Cd142 2.240 . S
O143 C148 1.279 . S
O144 Cd141 2.297 . S
O144 C146 1.247 . S
O145 Cd141 2.439 . S
O145 C146 1.208 . S
C146 O144 1.247 . S
C146 O145 1.208 . S
C147 O152 1.247 1_554 S
C147 O153 1.208 . S
C148 O140 1.315 . S
C148 O143 1.279 . S
C149 O150 1.315 . S
C149 O151 1.279 1_556 S
O150 Cd142 2.223 . S
O150 C149 1.315 . S
O151 Cd141 2.240 . S
O151 C149 1.279 1_554 S
O152 Cd142 2.297 . S
O152 C147 1.247 1_556 S
O153 Cd142 2.439 1_554 S
O153 C147 1.208 . S
O154 Cd155 2.223 . S
O154 C162 1.315 . S
Cd155 O154 2.223 . S
Cd155 O158 2.297 . S
Cd155 O159 2.439 . S
Cd155 O165 2.240 . S
Cd156 O157 2.240 . S
Cd156 O164 2.223 . S
Cd156 O166 2.297 . S
Cd156 O167 2.439 . S
O157 Cd156 2.240 . S
O157 C162 1.279 . S
O158 Cd155 2.297 . S
O158 C160 1.247 . S
O159 Cd155 2.439 . S
O159 C160 1.208 . S
C160 O158 1.247 . S
C160 O159 1.208 . S
C161 O166 1.247 . S
C161 O167 1.208 . S
C162 O154 1.315 . S
C162 O157 1.279 . S
C163 O164 1.315 . S
C163 O165 1.279 . S
O164 Cd156 2.223 . S
O164 C163 1.315 . S
O165 Cd155 2.240 . S
O165 C163 1.279 . S
O166 Cd156 2.297 . S
O166 C161 1.247 . S
O167 Cd156 2.439 . S
O167 C161 1.208 . S
O168 Cd169 2.223 . S
O168 C176 1.315 . S
Cd169 O168 2.223 . S
Cd169 O172 2.297 . S
Cd169 O173 2.439 . S
Cd169 O179 2.240 . S
Cd170 O171 2.240 . S
Cd170 O178 2.223 . S
Cd170 O180 2.297 . S
Cd170 O181 2.439 . S
O171 Cd170 2.240 . S
O171 C176 1.279 . S
O172 Cd169 2.297 . S
O172 C174 1.247 . S
O173 Cd169 2.439 . S
O173 C174 1.208 . S
C174 O172 1.247 . S
C174 O173 1.208 . S
C175 O180 1.247 . S
C175 O181 1.208 . S
C176 O168 1.315 . S
C176 O171 1.279 . S
C177 O178 1.315 . S
C177 O179 1.279 . S
O178 Cd170 2.223 . S
O178 C177 1.315 . S
O179 Cd169 2.240 . S
O179 C177 1.279 . S
O180 Cd170 2.297 . S
O180 C175 1.247 . S
O181 Cd170 2.439 . S
O181 C175 1.208 . S
O182 Cd183 2.223 . S
O182 C190 1.315 1_655 S
Cd183 O182 2.223 . S
Cd183 O186 2.297 1_655 S
Cd183 O187 2.439 1_655 S
Cd183 O193 2.240 1_655 S
Cd184 O185 2.240 . S
Cd184 O192 2.223 . S
Cd184 O194 2.297 . S
Cd184 O195 2.439 . S
O185 Cd184 2.240 . S
O185 C190 1.279 . S
O186 Cd183 2.297 1_455 S
O186 C188 1.247 . S
O187 Cd183 2.439 1_455 S
O187 C188 1.208 . S
C188 O186 1.247 . S
C188 O187 1.208 . S
C189 O194 1.247 . S
C189 O195 1.208 . S
C190 O182 1.315 1_455 S
C190 O185 1.279 . S
C191 O192 1.315 1_655 S
C191 O193 1.279 1_655 S
O192 Cd184 2.223 . S
O192 C191 1.315 1_455 S
O193 Cd183 2.240 1_455 S
O193 C191 1.279 1_455 S
O194 Cd184 2.297 . S
O194 C189 1.247 . S
O195 Cd184 2.439 . S
O195 C189 1.208 . S
O196 Cd197 2.223 . S
O196 C204 1.315 . S
Cd197 O196 2.223 . S
Cd197 O200 2.297 . S
Cd197 O201 2.439 . S
Cd197 O207 2.240 . S
Cd198 O199 2.240 . S
Cd198 O206 2.223 . S
Cd198 O208 2.297 . S
Cd198 O209 2.439 . S
O199 Cd198 2.240 . S
O199 C204 1.279 . S
O200 Cd197 2.297 . S
O200 C202 1.247 . S
O201 Cd197 2.439 . S
O201 C202 1.208 . S
C202 O200 1.247 . S
C202 O201 1.208 . S
C203 O208 1.247 . S
C203 O209 1.208 . S
C204 O196 1.315 . S
C204 O199 1.279 . S
C205 O206 1.315 . S
C205 O207 1.279 . S
O206 Cd198 2.223 . S
O206 C205 1.315 . S
O207 Cd197 2.240 . S
O207 C205 1.279 . S
O208 Cd198 2.297 . S
O208 C203 1.247 . S
O209 Cd198 2.439 . S
O209 C203 1.208 . S
O210 Cd211 2.223 . S
O210 C218 1.315 1_655 S
Cd211 O210 2.223 . S
Cd211 O214 2.297 1_655 S
Cd211 O215 2.439 1_655 S
Cd211 O221 2.240 1_655 S
Cd212 O213 2.240 . S
Cd212 O220 2.223 1_556 S
Cd212 O222 2.297 . S
Cd212 O223 2.439 . S
O213 Cd212 2.240 . S
O213 C218 1.279 . S
O214 Cd211 2.297 1_455 S
O214 C216 1.247 . S
O215 Cd211 2.439 1_455 S
O215 C216 1.208 . S
C216 O214 1.247 . S
C216 O215 1.208 . S
C217 O222 1.247 . S
C217 O223 1.208 . S
C218 O210 1.315 1_455 S
C218 O213 1.279 . S
C219 O220 1.315 1_656 S
C219 O221 1.279 1_655 S
O220 Cd212 2.223 1_554 S
O220 C219 1.315 1_454 S
O221 Cd211 2.240 1_455 S
O221 C219 1.279 1_455 S
O222 Cd212 2.297 . S
O222 C217 1.247 . S
O223 Cd212 2.439 . S
O223 C217 1.208 . S
C224 C225 1.387 . S
C224 H228 0.950 . S
C224 C233 1.390 . S
C225 C224 1.387 . S
C225 C227 1.387 . S
H226 C233 0.950 . S
C227 C225 1.387 . S
C227 C229 1.390 . S
C227 H231 0.950 . S
H228 C224 0.950 . S
C229 C227 1.390 . S
C229 C230 1.387 . S
C229 H232 0.950 . S
C230 C229 1.387 . S
C230 C233 1.387 . S
H231 C227 0.950 . S
H232 C229 0.950 . S
C233 C224 1.390 . S
C233 H226 0.950 . S
C233 C230 1.387 . S
C234 C235 1.387 . S
C234 H238 0.950 . S
C234 C243 1.390 . S
C235 C234 1.387 . S
C235 C237 1.387 . S
H236 C243 0.950 . S
C237 C235 1.387 . S
C237 C239 1.390 . S
C237 H241 0.950 . S
H238 C234 0.950 . S
C239 C237 1.390 . S
C239 C240 1.387 . S
C239 H242 0.950 . S
C240 C239 1.387 . S
C240 C243 1.387 . S
H241 C237 0.950 . S
H242 C239 0.950 . S
C243 C234 1.390 . S
C243 H236 0.950 . S
C243 C240 1.387 . S
C244 C245 1.387 . S
C244 H248 0.950 . S
C244 C253 1.390 . S
C245 C244 1.387 . S
C245 C247 1.387 . S
H246 C253 0.950 . S
C247 C245 1.387 . S
C247 C249 1.390 . S
C247 H251 0.950 . S
H248 C244 0.950 . S
C249 C247 1.390 . S
C249 C250 1.387 . S
C249 H252 0.950 . S
C250 C249 1.387 . S
C250 C253 1.387 . S
H251 C247 0.950 . S
H252 C249 0.950 . S
C253 C244 1.390 . S
C253 H246 0.950 . S
C253 C250 1.387 . S
C254 C255 1.387 1_554 S
C254 H258 0.950 . S
C254 C263 1.390 . S
C255 C254 1.387 1_556 S
C255 C257 1.387 . S
H256 C263 0.950 . S
C257 C255 1.387 . S
C257 C259 1.390 . S
C257 H261 0.950 . S
H258 C254 0.950 . S
C259 C257 1.390 . S
C259 C260 1.387 . S
C259 H262 0.950 . S
C260 C259 1.387 . S
C260 C263 1.387 1_556 S
H261 C257 0.950 . S
H262 C259 0.950 . S
C263 C254 1.390 . S
C263 H256 0.950 . S
C263 C260 1.387 1_554 S
C264 C265 1.387 1_554 S
C264 H268 0.950 . S
C264 C273 1.390 . S
C265 C264 1.387 1_556 S
C265 C267 1.387 . S
H266 C273 0.950 . S
C267 C265 1.387 . S
C267 C269 1.390 . S
C267 H271 0.950 . S
H268 C264 0.950 . S
C269 C267 1.390 . S
C269 C270 1.387 . S
C269 H272 0.950 . S
C270 C269 1.387 . S
C270 C273 1.387 1_556 S
H271 C267 0.950 . S
H272 C269 0.950 . S
C273 C264 1.390 . S
C273 H266 0.950 . S
C273 C270 1.387 1_554 S
C274 C275 1.387 . S
C274 H278 0.950 . S
C274 C283 1.390 . S
C275 C274 1.387 . S
C275 C277 1.387 . S
H276 C283 0.950 . S
C277 C275 1.387 . S
C277 C279 1.390 . S
C277 H281 0.950 . S
H278 C274 0.950 . S
C279 C277 1.390 . S
C279 C280 1.387 . S
C279 H282 0.950 . S
C280 C279 1.387 . S
C280 C283 1.387 . S
H281 C277 0.950 . S
H282 C279 0.950 . S
C283 C274 1.390 . S
C283 H276 0.950 . S
C283 C280 1.387 . S
C284 C285 1.387 . S
C284 H288 0.950 . S
C284 C293 1.390 . S
C285 C284 1.387 . S
C285 C287 1.387 . S
H286 C293 0.950 . S
C287 C285 1.387 . S
C287 C289 1.390 . S
C287 H291 0.950 . S
H288 C284 0.950 . S
C289 C287 1.390 . S
C289 C290 1.387 . S
C289 H292 0.950 . S
C290 C289 1.387 . S
C290 C293 1.387 . S
H291 C287 0.950 . S
H292 C289 0.950 . S
C293 C284 1.390 . S
C293 H286 0.950 . S
C293 C290 1.387 . S
C294 C295 1.387 . S
C294 H298 0.950 . S
C294 C303 1.390 . S
C295 C294 1.387 . S
C295 C297 1.387 . S
H296 C303 0.950 . S
C297 C295 1.387 . S
C297 C299 1.390 . S
C297 H301 0.950 . S
H298 C294 0.950 . S
C299 C297 1.390 . S
C299 C300 1.387 . S
C299 H302 0.950 . S
C300 C299 1.387 . S
C300 C303 1.387 . S
H301 C297 0.950 . S
H302 C299 0.950 . S
C303 C294 1.390 . S
C303 H296 0.950 . S
C303 C300 1.387 . S
C304 C305 1.387 . S
C304 H308 0.950 . S
C304 C313 1.390 . S
C305 C304 1.387 . S
C305 C307 1.387 . S
H306 C313 0.950 . S
C307 C305 1.387 . S
C307 C309 1.390 1_556 S
C307 H311 0.950 1_556 S
H308 C304 0.950 . S
C309 C307 1.390 1_554 S
C309 C310 1.387 1_554 S
C309 H312 0.950 . S
C310 C309 1.387 1_556 S
C310 C313 1.387 . S
H311 C307 0.950 1_554 S
H312 C309 0.950 . S
C313 C304 1.390 . S
C313 H306 0.950 . S
C313 C310 1.387 . S
C314 C315 1.387 . S
C314 H318 0.950 . S
C314 C323 1.390 . S
C315 C314 1.387 . S
C315 C317 1.387 . S
H316 C323 0.950 . S
C317 C315 1.387 . S
C317 C319 1.390 . S
C317 H321 0.950 . S
H318 C314 0.950 . S
C319 C317 1.390 . S
C319 C320 1.387 . S
C319 H322 0.950 . S
C320 C319 1.387 . S
C320 C323 1.387 . S
H321 C317 0.950 . S
H322 C319 0.950 . S
C323 C314 1.390 . S
C323 H316 0.950 . S
C323 C320 1.387 . S
C324 C325 1.387 . S
C324 H328 0.950 . S
C324 C333 1.390 . S
C325 C324 1.387 . S
C325 C327 1.387 . S
H326 C333 0.950 . S
C327 C325 1.387 . S
C327 C329 1.390 . S
C327 H331 0.950 . S
H328 C324 0.950 . S
C329 C327 1.390 . S
C329 C330 1.387 . S
C329 H332 0.950 . S
C330 C329 1.387 . S
C330 C333 1.387 . S
H331 C327 0.950 . S
H332 C329 0.950 . S
C333 C324 1.390 . S
C333 H326 0.950 . S
C333 C330 1.387 . S
C334 C335 1.387 . S
C334 H338 0.950 . S
C334 C343 1.390 . S
C335 C334 1.387 . S
C335 C337 1.387 . S
H336 C343 0.950 . S
C337 C335 1.387 . S
C337 C339 1.390 . S
C337 H341 0.950 . S
H338 C334 0.950 . S
C339 C337 1.390 . S
C339 C340 1.387 . S
C339 H342 0.950 . S
C340 C339 1.387 . S
C340 C343 1.387 . S
H341 C337 0.950 . S
H342 C339 0.950 . S
C343 C334 1.390 . S
C343 H336 0.950 . S
C343 C340 1.387 . S
C344 C345 1.387 . S
C344 H348 0.950 . S
C344 C353 1.390 . S
C345 C344 1.387 . S
C345 C347 1.387 . S
H346 C353 0.950 . S
C347 C345 1.387 . S
C347 C349 1.390 . S
C347 H351 0.950 1_655 S
H348 C344 0.950 . S
C349 C347 1.390 . S
C349 C350 1.387 . S
C349 H352 0.950 . S
C350 C349 1.387 . S
C350 C353 1.387 . S
H351 C347 0.950 1_455 S
H352 C349 0.950 . S
C353 C344 1.390 . S
C353 H346 0.950 . S
C353 C350 1.387 . S
C354 C355 1.387 . S
C354 H358 0.950 . S
C354 C363 1.390 . S
C355 C354 1.387 . S
C355 C357 1.387 . S
H356 C363 0.950 . S
C357 C355 1.387 . S
C357 C359 1.390 1_556 S
C357 H361 0.950 1_556 S
H358 C354 0.950 . S
C359 C357 1.390 1_554 S
C359 C360 1.387 1_554 S
C359 H362 0.950 . S
C360 C359 1.387 1_556 S
C360 C363 1.387 . S
H361 C357 0.950 1_554 S
H362 C359 0.950 . S
C363 C354 1.390 . S
C363 H356 0.950 . S
C363 C360 1.387 . S
C364 C365 1.387 . S
C364 H368 0.950 . S
C364 C373 1.390 . S
C365 C364 1.387 . S
C365 C367 1.387 . S
H366 C373 0.950 . S
C367 C365 1.387 . S
C367 C369 1.390 . S
C367 H371 0.950 . S
H368 C364 0.950 . S
C369 C367 1.390 . S
C369 C370 1.387 . S
C369 H372 0.950 . S
C370 C369 1.387 . S
C370 C373 1.387 . S
H371 C367 0.950 . S
H372 C369 0.950 . S
C373 C364 1.390 . S
C373 H366 0.950 . S
C373 C370 1.387 . S
C374 C375 1.387 . S
C374 H378 0.950 . S
C374 C383 1.390 . S
C375 C374 1.387 . S
C375 C377 1.387 . S
H376 C383 0.950 . S
C377 C375 1.387 . S
C377 C379 1.390 . S
C377 H381 0.950 . S
H378 C374 0.950 . S
C379 C377 1.390 . S
C379 C380 1.387 . S
C379 H382 0.950 . S
C380 C379 1.387 . S
C380 C383 1.387 . S
H381 C377 0.950 . S
H382 C379 0.950 . S
C383 C374 1.390 . S
C383 H376 0.950 . S
C383 C380 1.387 . S
C384 C385 1.387 . S
C384 H388 0.950 . S
C384 C393 1.390 . S
C385 C384 1.387 . S
C385 C387 1.387 . S
H386 C393 0.950 . S
C387 C385 1.387 . S
C387 C389 1.390 . S
C387 H391 0.950 . S
H388 C384 0.950 . S
C389 C387 1.390 . S
C389 C390 1.387 . S
C389 H392 0.950 . S
C390 C389 1.387 . S
C390 C393 1.387 . S
H391 C387 0.950 . S
H392 C389 0.950 . S
C393 C384 1.390 . S
C393 H386 0.950 . S
C393 C390 1.387 . S
C394 C395 1.387 . S
C394 H398 0.950 . S
C394 C403 1.390 . S
C395 C394 1.387 . S
C395 C397 1.387 . S
H396 C403 0.950 . S
C397 C395 1.387 . S
C397 C399 1.390 . S
C397 H401 0.950 . S
H398 C394 0.950 . S
C399 C397 1.390 . S
C399 C400 1.387 . S
C399 H402 0.950 . S
C400 C399 1.387 . S
C400 C403 1.387 . S
H401 C397 0.950 . S
H402 C399 0.950 . S
C403 C394 1.390 . S
C403 H396 0.950 . S
C403 C400 1.387 . S
C404 C405 1.387 . S
C404 H408 0.950 . S
C404 C413 1.390 . S
C405 C404 1.387 . S
C405 C407 1.387 . S
H406 C413 0.950 . S
C407 C405 1.387 . S
C407 C409 1.390 . S
C407 H411 0.950 . S
H408 C404 0.950 . S
C409 C407 1.390 . S
C409 C410 1.387 . S
C409 H412 0.950 . S
C410 C409 1.387 . S
C410 C413 1.387 . S
H411 C407 0.950 . S
H412 C409 0.950 . S
C413 C404 1.390 . S
C413 H406 0.950 . S
C413 C410 1.387 . S
C414 C415 1.387 . S
C414 H418 0.950 . S
C414 C423 1.390 . S
C415 C414 1.387 . S
C415 C417 1.387 . S
H416 C423 0.950 . S
C417 C415 1.387 . S
C417 C419 1.390 . S
C417 H421 0.950 . S
H418 C414 0.950 . S
C419 C417 1.390 . S
C419 C420 1.387 . S
C419 H422 0.950 . S
C420 C419 1.387 . S
C420 C423 1.387 . S
H421 C417 0.950 . S
H422 C419 0.950 . S
C423 C414 1.390 . S
C423 H416 0.950 . S
C423 C420 1.387 . S
C424 C425 1.387 . S
C424 H428 0.950 . S
C424 C433 1.390 . S
C425 C424 1.387 . S
C425 C427 1.387 . S
H426 C433 0.950 . S
C427 C425 1.387 . S
C427 C429 1.390 . S
C427 H431 0.950 . S
H428 C424 0.950 . S
C429 C427 1.390 . S
C429 C430 1.387 . S
C429 H432 0.950 . S
C430 C429 1.387 . S
C430 C433 1.387 . S
H431 C427 0.950 . S
H432 C429 0.950 . S
C433 C424 1.390 . S
C433 H426 0.950 . S
C433 C430 1.387 . S
C434 C435 1.387 . S
C434 H438 0.950 . S
C434 C443 1.390 . S
C435 C434 1.387 . S
C435 C437 1.387 . S
H436 C443 0.950 . S
C437 C435 1.387 . S
C437 C439 1.390 . S
C437 H441 0.950 . S
H438 C434 0.950 . S
C439 C437 1.390 . S
C439 C440 1.387 . S
C439 H442 0.950 . S
C440 C439 1.387 . S
C440 C443 1.387 . S
H441 C437 0.950 . S
H442 C439 0.950 . S
C443 C434 1.390 . S
C443 H436 0.950 . S
C443 C440 1.387 . S
C444 C445 1.387 . S
C444 H448 0.950 . S
C444 C453 1.390 1_565 S
C445 C444 1.387 . S
C445 C447 1.387 . S
H446 C453 0.950 . S
C447 C445 1.387 . S
C447 C449 1.390 1_565 S
C447 H451 0.950 . S
H448 C444 0.950 . S
C449 C447 1.390 1_545 S
C449 C450 1.387 . S
C449 H452 0.950 . S
C450 C449 1.387 . S
C450 C453 1.387 . S
H451 C447 0.950 . S
H452 C449 0.950 . S
C453 C444 1.390 1_545 S
C453 H446 0.950 . S
C453 C450 1.387 . S
C454 C455 1.387 1_655 S
C454 H458 0.950 . S
C454 C463 1.390 1_545 S
C455 C454 1.387 1_455 S
C455 C457 1.387 . S
H456 C463 0.950 . S
C457 C455 1.387 . S
C457 C459 1.390 1_545 S
C457 H461 0.950 . S
H458 C454 0.950 . S
C459 C457 1.390 1_565 S
C459 C460 1.387 . S
C459 H462 0.950 . S
C460 C459 1.387 . S
C460 C463 1.387 1_455 S
H461 C457 0.950 . S
H462 C459 0.950 . S
C463 C454 1.390 1_565 S
C463 H456 0.950 . S
C463 C460 1.387 1_655 S
C464 C465 1.387 . S
C464 H468 0.950 . S
C464 C473 1.390 . S
C465 C464 1.387 . S
C465 C467 1.387 . S
H466 C473 0.950 . S
C467 C465 1.387 . S
C467 C469 1.390 . S
C467 H471 0.950 . S
H468 C464 0.950 . S
C469 C467 1.390 . S
C469 C470 1.387 . S
C469 H472 0.950 . S
C470 C469 1.387 . S
C470 C473 1.387 . S
H471 C467 0.950 . S
H472 C469 0.950 . S
C473 C464 1.390 . S
C473 H466 0.950 . S
C473 C470 1.387 . S
C474 C475 1.387 . S
C474 H478 0.950 . S
C474 C483 1.390 . S
C475 C474 1.387 . S
C475 C477 1.387 . S
H476 C483 0.950 . S
C477 C475 1.387 . S
C477 C479 1.390 . S
C477 H481 0.950 . S
H478 C474 0.950 . S
C479 C477 1.390 . S
C479 C480 1.387 . S
C479 H482 0.950 . S
C480 C479 1.387 . S
C480 C483 1.387 . S
H481 C477 0.950 . S
H482 C479 0.950 . S
C483 C474 1.390 . S
C483 H476 0.950 . S
C483 C480 1.387 . S
C484 C485 1.387 . S
C484 H488 0.950 . S
C484 C493 1.390 . S
C485 C484 1.387 . S
C485 C487 1.387 . S
H486 C493 0.950 . S
C487 C485 1.387 . S
C487 C489 1.390 . S
C487 H491 0.950 . S
H488 C484 0.950 . S
C489 C487 1.390 . S
C489 C490 1.387 . S
C489 H492 0.950 . S
C490 C489 1.387 . S
C490 C493 1.387 . S
H491 C487 0.950 . S
H492 C489 0.950 . S
C493 C484 1.390 . S
C493 H486 0.950 . S
C493 C490 1.387 . S
C494 C495 1.387 . S
C494 H498 0.950 . S
C494 C503 1.390 . S
C495 C494 1.387 . S
C495 C497 1.387 . S
H496 C503 0.950 . S
C497 C495 1.387 . S
C497 C499 1.390 . S
C497 H501 0.950 . S
H498 C494 0.950 . S
C499 C497 1.390 . S
C499 C500 1.387 . S
C499 H502 0.950 . S
C500 C499 1.387 . S
C500 C503 1.387 . S
H501 C497 0.950 . S
H502 C499 0.950 . S
C503 C494 1.390 . S
C503 H496 0.950 . S
C503 C500 1.387 . S
C504 C505 1.387 . S
C504 H508 0.950 . S
C504 C513 1.390 . S
C505 C504 1.387 . S
C505 C507 1.387 . S
H506 C513 0.950 . S
C507 C505 1.387 . S
C507 C509 1.390 . S
C507 H511 0.950 . S
H508 C504 0.950 . S
C509 C507 1.390 . S
C509 C510 1.387 . S
C509 H512 0.950 . S
C510 C509 1.387 . S
C510 C513 1.387 . S
H511 C507 0.950 . S
H512 C509 0.950 . S
C513 C504 1.390 . S
C513 H506 0.950 . S
C513 C510 1.387 . S
C514 C515 1.387 . S
C514 H518 0.950 . S
C514 C523 1.390 . S
C515 C514 1.387 . S
C515 C517 1.387 . S
H516 C523 0.950 . S
C517 C515 1.387 . S
C517 C519 1.390 . S
C517 H521 0.950 . S
H518 C514 0.950 . S
C519 C517 1.390 . S
C519 C520 1.387 . S
C519 H522 0.950 . S
C520 C519 1.387 . S
C520 C523 1.387 . S
H521 C517 0.950 . S
H522 C519 0.950 . S
C523 C514 1.390 . S
C523 H516 0.950 . S
C523 C520 1.387 . S
C524 C525 1.387 . S
C524 H528 0.950 . S
C524 C533 1.390 1_565 S
C525 C524 1.387 . S
C525 C527 1.387 . S
H526 C533 0.950 . S
C527 C525 1.387 . S
C527 C529 1.390 1_565 S
C527 H531 0.950 . S
H528 C524 0.950 . S
C529 C527 1.390 1_545 S
C529 C530 1.387 . S
C529 H532 0.950 . S
C530 C529 1.387 . S
C530 C533 1.387 . S
H531 C527 0.950 . S
H532 C529 0.950 . S
C533 C524 1.390 1_545 S
C533 H526 0.950 . S
C533 C530 1.387 . S
C534 C535 1.387 . S
C534 H538 0.950 . S
C534 C543 1.390 1_545 S
C535 C534 1.387 . S
C535 C537 1.387 . S
H536 C543 0.950 . S
C537 C535 1.387 . S
C537 C539 1.390 1_545 S
C537 H541 0.950 1_455 S
H538 C534 0.950 . S
C539 C537 1.390 1_565 S
C539 C540 1.387 . S
C539 H542 0.950 1_455 S
C540 C539 1.387 . S
C540 C543 1.387 . S
H541 C537 0.950 1_655 S
H542 C539 0.950 1_655 S
C543 C534 1.390 1_565 S
C543 H536 0.950 . S
C543 C540 1.387 . S
C225 C135 1.453 . S
C230 C9 1.451 . S
C235 C205 1.453 . S
C240 C23 1.451 . S
C245 C37 1.453 . S
C250 C121 1.451 . S
C255 C51 1.451 . S
C260 C219 1.453 . S
C265 C65 1.453 . S
C270 C149 1.451 . S
C275 C191 1.453 . S
C280 C79 1.451 . S
C285 C163 1.453 . S
C290 C93 1.451 . S
C295 C107 1.451 . S
C300 C177 1.453 . S
C305 C63 1.600 1_655 S
C310 C49 1.600 1_556 S
C315 C175 1.600 . S
C320 C119 1.600 . S
C325 C91 1.600 . S
C330 C21 1.599 . S
C335 C133 1.597 . S
C340 C189 1.598 . S
C345 C7 1.597 1_655 S
C350 C77 1.597 . S
C355 C217 1.600 . S
C360 C147 1.600 1_556 S
C365 C105 1.597 . S
C370 C35 1.598 . S
C375 C161 1.598 . S
C380 C203 1.599 . S
C385 C8 1.397 . S
C390 C64 1.397 1_554 S
C395 C78 1.399 . S
C400 C22 1.399 . S
C405 C92 1.397 . S
C410 C36 1.397 . S
C415 C50 1.397 . S
C420 C106 1.397 . S
C425 C148 1.397 . S
C430 C120 1.397 . S
C435 C162 1.397 . S
C440 C134 1.397 . S
C445 C204 1.397 . S
C450 C176 1.397 . S
C455 C218 1.399 1_554 S
C460 C190 1.399 . S
C465 C62 1.515 . S
C470 C6 1.516 . S
C475 C76 1.515 . S
C480 C20 1.515 . S
C485 C90 1.515 . S
C490 C34 1.515 1_554 S
C495 C48 1.515 . S
C500 C104 1.515 . S
C505 C118 1.516 . S
C510 C146 1.516 . S
C515 C160 1.515 . S
C520 C132 1.515 . S
C525 C202 1.515 . S
C530 C174 1.515 1_554 S
C535 C216 1.515 . S
C540 C188 1.515 . S
