# Generated by pormake.
# Topology une, (4)-cn, num edge types: 1
# Building blocks:
#     Node 0, Type 0, BuildingBlock: UXUYUI_clean_sbu_0, # of connection points: 4
#     Node 1, Type 0, BuildingBlock: UXUYUI_clean_sbu_0, # of connection points: 4
#     Node 2, Type 0, BuildingBlock: UXUYUI_clean_sbu_0, # of connection points: 4
#     Node 3, Type 0, BuildingBlock: UXUYUI_clean_sbu_0, # of connection points: 4
#     Node 4, Type 0, BuildingBlock: UXUYUI_clean_sbu_0, # of connection points: 4
#     Node 5, Type 0, BuildingBlock: UXUYUI_clean_sbu_0, # of connection points: 4
#     Node 6, Type 0, BuildingBlock: UXUYUI_clean_sbu_0, # of connection points: 4
#     Node 7, Type 0, BuildingBlock: UXUYUI_clean_sbu_0, # of connection points: 4
#     Node 8, Type 0, BuildingBlock: UXUYUI_clean_sbu_0, # of connection points: 4
#     Node 9, Type 0, BuildingBlock: UXUYUI_clean_sbu_0, # of connection points: 4
#     Node 10, Type 0, BuildingBlock: UXUYUI_clean_sbu_0, # of connection points: 4
#     Node 11, Type 0, BuildingBlock: UXUYUI_clean_sbu_0, # of connection points: 4
#     Node 12, Type 0, BuildingBlock: UXUYUI_clean_sbu_0, # of connection points: 4
#     Node 13, Type 0, BuildingBlock: UXUYUI_clean_sbu_0, # of connection points: 4
#     Node 14, Type 0, BuildingBlock: UXUYUI_clean_sbu_0, # of connection points: 4
#     Node 15, Type 0, BuildingBlock: UXUYUI_clean_sbu_0, # of connection points: 4
#     Node 16, Type 0, BuildingBlock: UXUYUI_clean_sbu_0, # of connection points: 4
#     Node 17, Type 0, BuildingBlock: UXUYUI_clean_sbu_0, # of connection points: 4
#     Edge 18, Type (0, 0), BuildingBlock: TEMPAE_clean_linker_10, # of connection points: 2
#     Edge 19, Type (0, 0), BuildingBlock: TEMPAE_clean_linker_10, # of connection points: 2
#     Edge 20, Type (0, 0), BuildingBlock: TEMPAE_clean_linker_10, # of connection points: 2
#     Edge 21, Type (0, 0), BuildingBlock: TEMPAE_clean_linker_10, # of connection points: 2
#     Edge 22, Type (0, 0), BuildingBlock: TEMPAE_clean_linker_10, # of connection points: 2
#     Edge 23, Type (0, 0), BuildingBlock: TEMPAE_clean_linker_10, # of connection points: 2
#     Edge 24, Type (0, 0), BuildingBlock: TEMPAE_clean_linker_10, # of connection points: 2
#     Edge 25, Type (0, 0), BuildingBlock: TEMPAE_clean_linker_10, # of connection points: 2
#     Edge 26, Type (0, 0), BuildingBlock: TEMPAE_clean_linker_10, # of connection points: 2
#     Edge 27, Type (0, 0), BuildingBlock: TEMPAE_clean_linker_10, # of connection points: 2
#     Edge 28, Type (0, 0), BuildingBlock: TEMPAE_clean_linker_10, # of connection points: 2
#     Edge 29, Type (0, 0), BuildingBlock: TEMPAE_clean_linker_10, # of connection points: 2
#     Edge 30, Type (0, 0), BuildingBlock: TEMPAE_clean_linker_10, # of connection points: 2
#     Edge 31, Type (0, 0), BuildingBlock: TEMPAE_clean_linker_10, # of connection points: 2
#     Edge 32, Type (0, 0), BuildingBlock: TEMPAE_clean_linker_10, # of connection points: 2
#     Edge 33, Type (0, 0), BuildingBlock: TEMPAE_clean_linker_10, # of connection points: 2
#     Edge 34, Type (0, 0), BuildingBlock: TEMPAE_clean_linker_10, # of connection points: 2
#     Edge 35, Type (0, 0), BuildingBlock: TEMPAE_clean_linker_10, # of connection points: 2
#     Edge 36, Type (0, 0), BuildingBlock: TEMPAE_clean_linker_10, # of connection points: 2
#     Edge 37, Type (0, 0), BuildingBlock: TEMPAE_clean_linker_10, # of connection points: 2
#     Edge 38, Type (0, 0), BuildingBlock: TEMPAE_clean_linker_10, # of connection points: 2
#     Edge 39, Type (0, 0), BuildingBlock: TEMPAE_clean_linker_10, # of connection points: 2
#     Edge 40, Type (0, 0), BuildingBlock: TEMPAE_clean_linker_10, # of connection points: 2
#     Edge 41, Type (0, 0), BuildingBlock: TEMPAE_clean_linker_10, # of connection points: 2
#     Edge 42, Type (0, 0), BuildingBlock: TEMPAE_clean_linker_10, # of connection points: 2
#     Edge 43, Type (0, 0), BuildingBlock: TEMPAE_clean_linker_10, # of connection points: 2
#     Edge 44, Type (0, 0), BuildingBlock: TEMPAE_clean_linker_10, # of connection points: 2
#     Edge 45, Type (0, 0), BuildingBlock: TEMPAE_clean_linker_10, # of connection points: 2
#     Edge 46, Type (0, 0), BuildingBlock: TEMPAE_clean_linker_10, # of connection points: 2
#     Edge 47, Type (0, 0), BuildingBlock: TEMPAE_clean_linker_10, # of connection points: 2
#     Edge 48, Type (0, 0), BuildingBlock: TEMPAE_clean_linker_10, # of connection points: 2
#     Edge 49, Type (0, 0), BuildingBlock: TEMPAE_clean_linker_10, # of connection points: 2
#     Edge 50, Type (0, 0), BuildingBlock: TEMPAE_clean_linker_10, # of connection points: 2
#     Edge 51, Type (0, 0), BuildingBlock: TEMPAE_clean_linker_10, # of connection points: 2
#     Edge 52, Type (0, 0), BuildingBlock: TEMPAE_clean_linker_10, # of connection points: 2
#     Edge 53, Type (0, 0), BuildingBlock: TEMPAE_clean_linker_10, # of connection points: 2
# Relax obj value: 0.347
# Max RMSD: 0.226
# Mean RMSD: 0.222
data_MOF--net-une--node1-UXUYUI_clean_sbu_0--edge1-TEMPAE_clean_linker_10
_symmetry_space_group_name_H-M    P1
_symmetry_Int_Tables_number       1
_symmetry_cell_setting            triclinic
loop_
_symmetry_equiv_pos_as_xyz
'x, y, z'
_cell_length_a     55.559349
_cell_length_b     55.521752
_cell_length_c     79.350744
_cell_angle_alpha  89.930108
_cell_angle_beta   89.955017
_cell_angle_gamma 120.02684
loop_
_atom_site_label
_atom_site_type_symbol
_atom_site_fract_x
_atom_site_fract_y
_atom_site_fract_z
_atom_type_partial_charge
Li0 Li 0.34986 0.05656 0.04909 0.0
Li1 Li 0.35445 0.05837 0.07885 0.0
Li2 Li 0.37723 0.03736 0.06072 0.0
Li3 Li 0.32533 0.01388 0.06536 0.0
C4 C 0.40008 0.1011 0.05316 0.0
N5 N 0.42945 0.15022 0.03525 0.0
C6 C 0.3917 0.12102 0.05347 0.0
C7 C 0.42351 0.10627 0.04377 0.0
C8 C 0.40677 0.14567 0.04432 0.0
C9 C 0.43807 0.13121 0.0348 0.0
C10 C 0.30533 0.05527 0.07477 0.0
C11 C 0.27092 0.04759 0.09589 0.0
N12 N 0.27667 0.07428 0.09392 0.0
C13 C 0.31063 0.08252 0.07281 0.0
C14 C 0.28515 0.03757 0.08631 0.0
C15 C 0.29604 0.09179 0.08267 0.0
C16 C 0.32076 0.07321 0.02764 0.0
N17 N 0.34547 0.07405 0.02945 0.0
C18 C 0.36249 0.10009 0.00392 0.0
C19 C 0.36582 0.08628 0.01762 0.0
C20 C 0.33758 0.1006 0.00206 0.0
C21 C 0.31627 0.08623 0.01394 0.0
H22 H 0.30449 0.06246 0.03687 0.0
H23 H 0.38482 0.08564 0.01888 0.0
C24 C 0.37653 0.10791 0.09808 0.0
N25 N 0.35775 0.08023 0.09833 0.0
C26 C 0.37526 0.12555 0.11012 0.0
C27 C 0.33676 0.08559 0.12329 0.0
C28 C 0.33893 0.06872 0.11105 0.0
C29 C 0.35447 0.11456 0.12258 0.0
H30 H 0.39187 0.11652 0.08817 0.0
H31 H 0.32444 0.04664 0.11114 0.0
C32 C 0.34275 0.01736 0.02747 0.0
N33 N 0.33455 0.01345 0.99303 0.0
C34 C 0.31598 0.0066 0.02091 0.0
C35 C 0.36535 0.02606 0.01653 0.0
C36 C 0.31227 0.00482 0.00345 0.0
C37 C 0.36076 0.02391 0.99915 0.0
C38 C 0.34657 -0.0004 0.09184 0.0
C39 C 0.36055 0.98456 0.09103 0.0
C40 C 0.32325 0.99027 0.10223 0.0
C41 C 0.3508 0.96026 0.10057 0.0
C42 C 0.31413 0.96584 0.11155 0.0
N43 N 0.32797 0.95147 0.11053 0.0
C44 C 0.43361 0.04845 0.05895 0.0
C45 C 0.3984 0.0061 0.04727 0.0
C46 C 0.45426 0.04408 0.05197 0.0
N47 N 0.40636 0.02997 0.05597 0.0
C48 C 0.41824 0.00087 0.04013 0.0
C49 C 0.44661 0.02038 0.04201 0.0
H50 H 0.43933 0.06719 0.06602 0.0
H51 H 0.37654 0.99179 0.04512 0.0
C52 C 0.26873 0.97851 0.06041 0.0
N53 N 0.29224 0.97858 0.06519 0.0
C54 C 0.24445 0.95353 0.05714 0.0
C55 C 0.26863 0.92889 0.06434 0.0
C56 C 0.29263 0.95445 0.0672 0.0
C57 C 0.24425 0.92821 0.05878 0.0
H58 H 0.26928 0.99798 0.05818 0.0
H59 H 0.31181 0.955 0.07031 0.0
O60 O 0.38559 0.0768 0.06207 0.0
O61 O 0.31981 0.04599 0.06545 0.0
O62 O 0.34686 0.01982 0.04452 0.0
O63 O 0.35588 0.02345 0.08261 0.0
H64 H 0.37364 0.11741 0.0606 0.0
H65 H 0.43017 0.09106 0.04314 0.0
H66 H 0.40039 0.16116 0.0444 0.0
H67 H 0.45613 0.13538 0.02742 0.0
H68 H 0.25545 0.03419 0.10498 0.0
H69 H 0.32584 0.09639 0.06378 0.0
H70 H 0.28085 0.01647 0.0881 0.0
H71 H 0.3001 0.1129 0.08136 0.0
H72 H 0.3796 0.11087 0.99518 0.0
H73 H 0.29637 0.08522 0.0128 0.0
H74 H 0.3899 0.14766 0.10939 0.0
H75 H 0.32038 0.07614 0.13263 0.0
H76 H 0.29831 -2e-05 0.0292 0.0
H77 H 0.38626 0.03481 0.02139 0.0
H78 H 0.29168 0.99666 0.99819 0.0
H79 H 0.37807 0.0307 0.99053 0.0
H80 H 0.37875 0.99158 0.08313 0.0
H81 H 0.31201 0.00147 0.10287 0.0
H82 H 0.36138 0.94838 0.10004 0.0
H83 H 0.29598 0.95827 0.11955 0.0
H84 H 0.47591 0.05943 0.05394 0.0
H85 H 0.41134 0.98247 0.03244 0.0
H86 H 0.22655 0.95426 0.05242 0.0
H87 H 0.26949 0.90996 0.06587 0.0
Li88 Li 0.96697 0.34235 0.06642 0.0
Li89 Li 0.99038 0.31599 0.06721 0.0
Li90 Li 0.94668 0.29713 0.05264 0.0
Li91 Li 0.94939 0.29925 0.08415 0.0
C92 C 0.97918 0.34297 0.03276 0.0
N93 N 0.97498 0.36851 0.00389 0.0
C94 C 0.00174 0.35613 0.02172 0.0
C95 C 0.95449 0.34284 0.02913 0.0
C96 C 0.99919 0.36889 0.00717 0.0
C97 C 0.95278 0.35587 0.01448 0.0
C98 C 0.00589 0.34467 0.09749 0.0
C99 C 0.0261 0.33873 0.12293 0.0
N100 N 0.04959 0.36346 0.11995 0.0
C101 C 0.03012 0.37015 0.09475 0.0
C102 C 0.00374 0.32892 0.11176 0.0
C103 C 0.05203 0.37924 0.10622 0.0
C104 C 0.95079 0.38291 0.06065 0.0
N105 N 0.97258 0.3785 0.06266 0.0
C106 C 0.00381 0.42264 0.05041 0.0
C107 C 0.9988 0.39796 0.05808 0.0
C108 C 0.98153 0.4272 0.04727 0.0
C109 C 0.95485 0.40734 0.05296 0.0
H110 H 0.93003 0.36667 0.06391 0.0
H111 H 0.01545 0.39331 0.0591 0.0
C112 C 0.02999 0.31527 0.04743 0.0
N113 N 0.02598 0.31905 0.06388 0.0
C114 C 0.05453 0.31658 0.04224 0.0
C115 C 0.07041 0.32486 0.07112 0.0
C116 C 0.04547 0.32352 0.07576 0.0
C117 C 0.07522 0.32165 0.05412 0.0
H118 H 0.01388 0.31091 0.03831 0.0
H119 H 0.04162 0.32552 0.08885 0.0
C120 C 0.90012 0.29189 0.07033 0.0
N121 N 0.84429 0.25386 0.0747 0.0
C122 C 0.89089 0.26337 0.07087 0.0
C123 C 0.88093 0.30102 0.07204 0.0
C124 C 0.86259 0.2445 0.07309 0.0
C125 C 0.8528 0.28147 0.07422 0.0
C126 C 0.97143 0.26178 0.06896 0.0
C127 C 0.96696 0.24251 0.0563 0.0
C128 C 0.9892 0.26508 0.08233 0.0
C129 C 0.98095 0.22747 0.05697 0.0
C130 C 0.00284 0.24971 0.08255 0.0
N131 N 0.9985 0.2314 0.06995 0.0
C132 C 0.93958 0.26766 0.02263 0.0
C133 C 0.90093 0.27283 0.02954 0.0
C134 C 0.9254 0.25094 0.00885 0.0
N135 N 0.92675 0.27716 0.03306 0.0
C136 C 0.886 0.25626 0.01593 0.0
C137 C 0.89791 0.24436 0.00571 0.0
H138 H 0.96063 0.27253 0.02528 0.0
H139 H 0.89165 0.28189 0.03734 0.0
C140 C 0.91057 0.28546 0.11116 0.0
N141 N 0.92909 0.27946 0.10381 0.0
C142 C 0.89217 0.26775 0.12348 0.0
C143 C 0.9135 0.23917 0.12121 0.0
C144 C 0.93101 0.25702 0.10872 0.0
C145 C 0.89336 0.24409 0.12846 0.0
H146 H 0.90923 0.30326 0.1069 0.0
H147 H 0.94532 0.25223 0.1025 0.0
O148 O 0.98173 0.33113 0.04731 0.0
O149 O 0.98401 0.33565 0.08659 0.0
O150 O 0.92783 0.31089 0.06857 0.0
O151 O 0.95813 0.27695 0.06842 0.0
H152 H 0.02109 0.35667 0.02442 0.0
H153 H 0.93693 0.33311 0.03762 0.0
H154 H 0.0165 0.37918 0.99853 0.0
H155 H 0.93385 0.35603 0.01156 0.0
H156 H 0.02477 0.32669 0.13398 0.0
H157 H 0.03208 0.3827 0.08386 0.0
H158 H 0.98502 0.30932 0.11419 0.0
H159 H 0.07097 0.39884 0.10421 0.0
H160 H 0.02458 0.43707 0.04593 0.0
H161 H 0.93714 0.41013 0.05084 0.0
H162 H 0.0571 0.31326 0.02907 0.0
H163 H 0.08581 0.32858 0.08066 0.0
H164 H 0.90533 0.25581 0.06961 0.0
H165 H 0.8877 0.32298 0.07176 0.0
H166 H 0.85519 0.2224 0.07355 0.0
H167 H 0.83773 0.28826 0.07556 0.0
H168 H 0.95257 0.23886 0.04617 0.0
H169 H 0.99277 0.27972 0.09232 0.0
H170 H 0.97774 0.21258 0.0472 0.0
H171 H 0.01691 0.25237 0.09272 0.0
H172 H 0.9354 0.24229 0.00122 0.0
H173 H 0.86511 0.2523 0.01363 0.0
H174 H 0.87686 0.27219 0.12884 0.0
H175 H 0.91479 0.22093 0.12456 0.0
Li176 Li 0.68 0.66563 0.06906 0.0
Li177 Li 0.69797 0.6398 0.08164 0.0
Li178 Li 0.70437 0.64905 0.05105 0.0
Li179 Li 0.65559 0.6167 0.06331 0.0
C180 C 0.73994 0.70036 0.07532 0.0
N181 N 0.78185 0.75141 0.0865 0.0
C182 C 0.74422 0.70586 0.09258 0.0
C183 C 0.7572 0.7208 0.06375 0.0
C184 C 0.76546 0.73179 0.09798 0.0
C185 C 0.7782 0.74649 0.06965 0.0
C186 C 0.64736 0.64469 0.09563 0.0
C187 C 0.60573 0.64361 0.10544 0.0
N188 N 0.62149 0.66633 0.11515 0.0
C189 C 0.66311 0.66776 0.1059 0.0
C190 C 0.61841 0.63228 0.09555 0.0
C191 C 0.64967 0.6785 0.1156 0.0
C192 C 0.64518 0.68786 0.06642 0.0
N193 N 0.67183 0.69528 0.07034 0.0
C194 C 0.68571 0.74342 0.06835 0.0
C195 C 0.69173 0.72244 0.0721 0.0
C196 C 0.65903 0.73625 0.06267 0.0
C197 C 0.63828 0.70811 0.06247 0.0
H198 H 0.62977 0.66611 0.06503 0.0
H199 H 0.7127 0.72805 0.07531 0.0
C200 C 0.74367 0.64035 0.09559 0.0
N201 N 0.71828 0.63653 0.0998 0.0
C202 C 0.76159 0.64087 0.10802 0.0
C203 C 0.72723 0.63426 0.12903 0.0
C204 C 0.70964 0.6333 0.1161 0.0
C205 C 0.75358 0.63818 0.12498 0.0
H206 H 0.75027 0.64377 0.08256 0.0
H207 H 0.68953 0.63083 0.11907 0.0
C208 C 0.66652 0.66526 0.03573 0.0
N209 N 0.66229 0.7028 0.01482 0.0
C210 C 0.64073 0.659 0.0291 0.0
C211 C 0.69019 0.69044 0.03156 0.0
C212 C 0.63902 0.67829 0.01858 0.0
C213 C 0.68762 0.70919 0.02102 0.0
C214 C 0.6964 0.59407 0.06887 0.0
C215 C 0.72003 0.59398 0.06292 0.0
C216 C 0.68033 0.57561 0.08162 0.0
C217 C 0.72736 0.57548 0.06998 0.0
C218 C 0.68836 0.55744 0.08835 0.0
N219 N 0.71152 0.55777 0.08245 0.0
C220 C 0.75571 0.66786 0.03556 0.0
C221 C 0.71708 0.64355 0.01736 0.0
C222 C 0.77397 0.67068 0.02267 0.0
N223 N 0.72792 0.65442 0.03268 0.0
C224 C 0.7346 0.64559 0.00412 0.0
C225 C 0.76348 0.65899 0.00677 0.0
H226 H 0.76362 0.6759 0.04798 0.0
H227 H 0.69479 0.63269 0.01556 0.0
C228 C 0.59968 0.58996 0.05417 0.0
N229 N 0.62145 0.58571 0.05671 0.0
C230 C 0.57601 0.57012 0.04571 0.0
C231 C 0.59729 0.54149 0.04313 0.0
C232 C 0.62055 0.56189 0.05168 0.0
C233 C 0.57495 0.54585 0.03964 0.0
H234 H 0.60141 0.60954 0.05778 0.0
H235 H 0.63847 0.55939 0.05347 0.0
O236 O 0.71937 0.67504 0.06972 0.0
O237 O 0.66015 0.63404 0.08589 0.0
O238 O 0.66851 0.64721 0.04663 0.0
O239 O 0.68923 0.61243 0.06239 0.0
H240 H 0.73143 0.6903 0.10176 0.0
H241 H 0.7544 0.71694 0.05035 0.0
H242 H 0.76895 0.73631 0.1113 0.0
H243 H 0.7916 0.7625 0.06083 0.0
H244 H 0.58335 0.63431 0.10541 0.0
H245 H 0.68546 0.67745 0.10625 0.0
H246 H 0.60585 0.61406 0.08796 0.0
H247 H 0.66164 0.69652 0.12348 0.0
H248 H 0.70233 0.7649 0.06858 0.0
H249 H 0.6174 0.70179 0.05827 0.0
H250 H 0.78195 0.64443 0.10445 0.0
H251 H 0.72047 0.63224 0.14202 0.0
H252 H 0.62219 0.6396 0.03217 0.0
H253 H 0.71026 0.69559 0.0366 0.0
H254 H 0.61916 0.67383 0.01347 0.0
H255 H 0.70574 0.72888 0.01782 0.0
H256 H 0.73268 0.60821 0.05306 0.0
H257 H 0.66201 0.57553 0.08636 0.0
H258 H 0.74567 0.57524 0.06557 0.0
H259 H 0.67622 0.54312 0.09829 0.0
H260 H 0.79608 0.6816 0.02523 0.0
H261 H 0.72557 0.63597 0.99215 0.0
H262 H 0.55949 0.57455 0.04305 0.0
H263 H 0.59721 0.52297 0.03875 0.0
Li264 Li 0.63758 0.96855 0.94072 0.0
Li265 Li 0.68683 0.99087 0.93704 0.0
Li266 Li 0.65845 0.95261 0.91887 0.0
Li267 Li 0.66234 0.94546 0.94892 0.0
C268 C 0.64249 0.99048 0.90828 0.0
N269 N 0.60748 0.99286 0.88446 0.0
C270 C 0.64972 0.01558 0.9002 0.0
C271 C 0.61743 0.96656 0.90425 0.0
C272 C 0.63175 0.01637 0.88819 0.0
C273 C 0.60003 0.9682 0.89216 0.0
C274 C 0.66864 0.00218 0.96687 0.0
C275 C 0.67288 0.02647 0.99286 0.0
N276 N 0.67313 0.04757 0.98399 0.0
C277 C 0.66893 0.02413 0.958 0.0
C278 C 0.67062 0.00335 0.98443 0.0
C279 C 0.67122 0.04688 0.96689 0.0
C280 C 0.59954 0.96173 0.96442 0.0
N281 N 0.60825 0.97354 0.94898 0.0
C282 C 0.58153 0.99631 0.95144 0.0
C283 C 0.59951 0.99041 0.94226 0.0
C284 C 0.57308 0.98513 0.96771 0.0
C285 C 0.58186 0.96719 0.97401 0.0
H286 H 0.60755 0.94914 0.96964 0.0
H287 H 0.60742 0.0003 0.9302 0.0
C288 C 0.73004 0.04368 0.92541 0.0
N289 N 0.72055 0.02528 0.93845 0.0
C290 C 0.75434 0.06945 0.92725 0.0
C291 C 0.75865 0.05628 0.95567 0.0
C292 C 0.73432 0.03105 0.95335 0.0
C293 C 0.76888 0.07596 0.94258 0.0
H294 H 0.71852 0.03849 0.91373 0.0
H295 H 0.72608 0.0162 0.96358 0.0
C296 C 0.61473 0.90268 0.93962 0.0
N297 N 0.58963 0.84772 0.94975 0.0
C298 C 0.62445 0.88543 0.9336 0.0
C299 C 0.59211 0.89191 0.95069 0.0
C300 C 0.61151 0.85772 0.93889 0.0
C301 C 0.57975 0.86408 0.95569 0.0
C302 C 0.71894 0.96775 0.93503 0.0
C303 C 0.73838 0.97651 0.92193 0.0
C304 C 0.72784 0.96905 0.95165 0.0
C305 C 0.76636 0.98643 0.92568 0.0
C306 C 0.75599 0.97908 0.95489 0.0
N307 N 0.77451 0.9875 0.94194 0.0
C308 C 0.6802 0.95021 0.88781 0.0
C309 C 0.63505 0.91199 0.89276 0.0
C310 C 0.68387 0.93661 0.87414 0.0
N311 N 0.65667 0.9372 0.89725 0.0
C312 C 0.63769 0.89772 0.87903 0.0
C313 C 0.66287 0.90958 0.87005 0.0
H314 H 0.69675 0.97052 0.89152 0.0
H315 H 0.61649 0.90219 0.90045 0.0
C316 C 0.65071 0.91983 0.9806 0.0
N317 N 0.66216 0.92064 0.96534 0.0
C318 C 0.64963 0.90154 0.99304 0.0
C319 C 0.67198 0.88518 0.97369 0.0
C320 C 0.67283 0.90395 0.96169 0.0
C321 C 0.66031 0.88384 0.98965 0.0
H322 H 0.64234 0.93337 0.98307 0.0
H323 H 0.68168 0.90501 0.94938 0.0
O324 O 0.65999 0.98969 0.92012 0.0
O325 O 0.66603 0.97941 0.95853 0.0
O326 O 0.62753 0.93004 0.93486 0.0
O327 O 0.69148 0.95838 0.93162 0.0
H328 H 0.66902 0.0343 0.90321 0.0
H329 H 0.61134 0.94694 0.91034 0.0
H330 H 0.63708 0.03567 0.88185 0.0
H331 H 0.58059 0.94986 0.88892 0.0
H332 H 0.67441 0.02762 0.00645 0.0
H333 H 0.66734 0.02364 0.94442 0.0
H334 H 0.67037 0.98651 0.99148 0.0
H335 H 0.67145 0.06397 0.96019 0.0
H336 H 0.57538 0.01046 0.94623 0.0
H337 H 0.57563 0.95796 0.98643 0.0
H338 H 0.76155 0.08416 0.91689 0.0
H339 H 0.76883 0.06071 0.96784 0.0
H340 H 0.64219 0.89352 0.92522 0.0
H341 H 0.58412 0.90483 0.95534 0.0
H342 H 0.61898 0.84422 0.93445 0.0
H343 H 0.56228 0.8555 0.96429 0.0
H344 H 0.73205 0.97575 0.90899 0.0
H345 H 0.71334 0.96305 0.96203 0.0
H346 H 0.78159 0.99331 0.91565 0.0
H347 H 0.76314 0.98035 0.96771 0.0
H348 H 0.70339 0.94658 0.86731 0.0
H349 H 0.62103 0.87689 0.87624 0.0
H350 H 0.64074 0.90144 0.00521 0.0
H351 H 0.67998 0.87158 0.97039 0.0
Li352 Li 0.04634 0.70223 0.9176 0.0
Li353 Li 0.04474 0.7133 0.947 0.0
Li354 Li 0.03168 0.66497 0.94097 0.0
Li355 Li 0.00238 0.68379 0.93246 0.0
C356 C 0.09353 0.71323 0.94452 0.0
N357 N 0.14392 0.74172 0.96106 0.0
C358 C 0.11081 0.74179 0.94191 0.0
C359 C 0.10212 0.69908 0.95532 0.0
C360 C 0.13612 0.75585 0.95046 0.0
C361 C 0.12761 0.71387 0.96362 0.0
C362 C 0.03674 0.7499 0.92469 0.0
C363 C 0.02602 0.78701 0.92551 0.0
N364 N 0.0518 0.80495 0.91939 0.0
C365 C 0.06315 0.76879 0.91844 0.0
C366 C 0.01801 0.75913 0.92825 0.0
C367 C 0.07035 0.79648 0.91583 0.0
C368 C 0.05265 0.72552 0.88565 0.0
N369 N 0.06571 0.71806 0.89724 0.0
C370 C 0.10939 0.7458 0.88349 0.0
C371 C 0.09335 0.72705 0.89614 0.0
C372 C 0.09679 0.75532 0.87195 0.0
C373 C 0.06783 0.74405 0.87275 0.0
H374 H 0.03083 0.71875 0.88716 0.0
H375 H 0.10328 0.72129 0.90578 0.0
C376 C 0.0721 0.73117 0.97767 0.0
N377 N 0.06266 0.74003 0.96461 0.0
C378 C 0.08811 0.74956 0.99038 0.0
C379 C 0.08208 0.78521 0.9769 0.0
C380 C 0.06669 0.76627 0.96427 0.0
C381 C 0.09379 0.77722 0.98994 0.0
H382 H 0.06802 0.70999 0.97788 0.0
H383 H 0.05837 0.77283 0.95417 0.0
C384 C 0.98975 0.64425 0.91102 0.0
N385 N 0.93804 0.60895 0.89743 0.0
C386 C 0.97169 0.61915 0.91905 0.0
C387 C 0.98159 0.65135 0.89604 0.0
C388 C 0.94562 0.60159 0.91199 0.0
C389 C 0.95534 0.63324 0.88938 0.0
C390 C 0.99762 0.68278 0.96752 0.0
C391 C 0.98463 0.66297 0.98025 0.0
C392 C 0.99457 0.70627 0.9671 0.0
C393 C 0.96871 0.66699 0.99236 0.0
C394 C 0.97848 0.70954 0.97943 0.0
N395 N 0.96598 0.68999 0.99169 0.0
C396 C 0.03484 0.63688 0.96812 0.0
C397 C 0.02448 0.60954 0.94338 0.0
C398 C 0.03062 0.61449 0.97811 0.0
N399 N 0.03126 0.63393 0.95117 0.0
C400 C 0.02002 0.58643 0.95296 0.0
C401 C 0.02239 0.58864 0.97063 0.0
H402 H 0.04006 0.6565 0.97394 0.0
H403 H 0.02137 0.60768 0.92988 0.0
C404 C 0.9574 0.69025 0.92136 0.0
N405 N 0.96456 0.67423 0.93065 0.0
C406 C 0.93077 0.68671 0.92282 0.0
C407 C 0.91878 0.64846 0.94203 0.0
C408 C 0.94568 0.65298 0.94037 0.0
C409 C 0.91142 0.66616 0.9337 0.0
H410 H 0.97278 0.70667 0.9135 0.0
H411 H 0.95196 0.64049 0.94755 0.0
O412 O 0.06837 0.69912 0.93654 0.0
O413 O 0.02904 0.72252 0.92715 0.0
O414 O 0.01508 0.66201 0.91796 0.0
O415 O 0.01278 0.67881 0.95538 0.0
H416 H 0.10462 0.75307 0.93357 0.0
H417 H 0.08925 0.67693 0.95731 0.0
H418 H 0.14954 0.778 0.94869 0.0
H419 H 0.13443 0.7032 0.97209 0.0
H420 H 0.01174 0.79439 0.92825 0.0
H421 H 0.07801 0.76228 0.91562 0.0
H422 H 0.99755 0.74501 0.93321 0.0
H423 H 0.09071 0.81124 0.91096 0.0
H424 H 0.13167 0.75414 0.88347 0.0
H425 H 0.0572 0.75051 0.86399 0.0
H426 H 0.09675 0.74235 5e-05 0.0
H427 H 0.08511 0.80603 0.97629 0.0
H428 H 0.97752 0.61351 0.93077 0.0
H429 H 0.99528 0.67071 0.88968 0.0
H430 H 0.93135 0.58218 0.91813 0.0
H431 H 0.94869 0.63852 0.87784 0.0
H432 H 0.98666 0.64458 0.98069 0.0
H433 H 0.00445 0.72176 0.95735 0.0
H434 H 0.95847 0.65179 0.00226 0.0
H435 H 0.9759 0.7276 0.97922 0.0
H436 H 0.03317 0.61724 0.99164 0.0
H437 H 0.01356 0.56679 0.94673 0.0
H438 H 0.92573 0.70064 0.91614 0.0
H439 H 0.90457 0.6326 0.95069 0.0
Li440 Li 0.28683 0.32861 0.9472 0.0
Li441 Li 0.3085 0.3124 0.92759 0.0
Li442 Li 0.33466 0.36001 0.9366 0.0
Li443 Li 0.29154 0.34202 0.91727 0.0
C444 C 0.32076 0.30496 0.95911 0.0
N445 N 0.32064 0.25976 0.97388 0.0
C446 C 0.29563 0.28112 0.96318 0.0
C447 C 0.34585 0.30588 0.9627 0.0
C448 C 0.296 0.25849 0.97063 0.0
C449 C 0.34534 0.28279 0.97013 0.0
C450 C 0.24745 0.28223 0.92144 0.0
C451 C 0.22001 0.25425 0.89807 0.0
N452 N 0.20127 0.23539 0.90908 0.0
C453 C 0.22785 0.26261 0.93253 0.0
C454 C 0.24346 0.27806 0.90407 0.0
C455 C 0.20469 0.23904 0.92604 0.0
C456 C 0.2364 0.31563 0.96158 0.0
N457 N 0.26232 0.32089 0.96559 0.0
C458 C 0.25243 0.31937 0.99501 0.0
C459 C 0.27061 0.32258 0.98188 0.0
C460 C 0.22557 0.3142 0.9912 0.0
C461 C 0.21756 0.3121 0.97424 0.0
H462 H 0.23067 0.31496 0.9485 0.0
H463 H 0.29156 0.32719 0.98464 0.0
C464 C 0.34023 0.28626 0.9224 0.0
N465 N 0.31371 0.28133 0.92332 0.0
C466 C 0.3457 0.26443 0.92406 0.0
C467 C 0.29639 0.23269 0.92699 0.0
C468 C 0.29186 0.25503 0.92492 0.0
C469 C 0.32371 0.23739 0.92731 0.0
H470 H 0.35738 0.30736 0.92181 0.0
H471 H 0.27107 0.25151 0.92621 0.0
C472 C 0.29329 0.37877 0.94911 0.0
N473 N 0.27306 0.39986 0.97329 0.0
C474 C 0.27093 0.38274 0.9454 0.0
C475 C 0.30551 0.38573 0.96507 0.0
C476 C 0.26097 0.39338 0.95781 0.0
C477 C 0.29494 0.39632 0.97713 0.0
C478 C 0.34196 0.33896 0.90083 0.0
C479 C 0.37098 0.35224 0.90033 0.0
C480 C 0.32633 0.3186 0.88889 0.0
C481 C 0.38386 0.34449 0.88807 0.0
C482 C 0.33997 0.31141 0.87684 0.0
N483 N 0.36822 0.32437 0.87669 0.0
C484 C 0.3902 0.38235 0.94535 0.0
C485 C 0.37385 0.41421 0.94831 0.0
C486 C 0.41473 0.40038 0.95378 0.0
N487 N 0.37007 0.38916 0.94328 0.0
C488 C 0.39811 0.43292 0.95682 0.0
C489 C 0.41851 0.42563 0.96015 0.0
H490 H 0.38663 0.36233 0.94112 0.0
H491 H 0.35743 0.41904 0.94654 0.0
C492 C 0.24539 0.34091 0.90395 0.0
N493 N 0.27196 0.34823 0.89994 0.0
C494 C 0.22766 0.34143 0.89176 0.0
C495 C 0.26508 0.35737 0.87145 0.0
C496 C 0.28217 0.35653 0.88412 0.0
C497 C 0.23731 0.34947 0.87519 0.0
H498 H 0.23771 0.3337 0.91656 0.0
H499 H 0.30329 0.36178 0.88124 0.0
O500 O 0.32072 0.32679 0.95107 0.0
O501 O 0.27016 0.3055 0.92764 0.0
O502 O 0.30273 0.36746 0.93734 0.0
O503 O 0.32904 0.34628 0.91278 0.0
H504 H 0.27602 0.27986 0.9603 0.0
H505 H 0.3655 0.32407 0.95964 0.0
H506 H 0.27669 0.23983 0.97369 0.0
H507 H 0.36459 0.28313 0.97283 0.0
H508 H 0.21666 0.25081 0.88465 0.0
H509 H 0.23058 0.26543 0.94602 0.0
H510 H 0.25813 0.29312 0.89528 0.0
H511 H 0.18942 0.22366 0.93448 0.0
H512 H 0.25935 0.32118 0.00794 0.0
H513 H 0.19726 0.30875 0.97076 0.0
H514 H 0.36708 0.26906 0.92396 0.0
H515 H 0.27874 0.21242 0.92977 0.0
H516 H 0.26129 0.37757 0.93311 0.0
H517 H 0.32258 0.38242 0.96823 0.0
H518 H 0.24359 0.39644 0.95514 0.0
H519 H 0.30403 0.40154 0.98959 0.0
H520 H 0.38341 0.36834 0.90932 0.0
H521 H 0.30392 0.3083 0.88901 0.0
H522 H 0.40629 0.35448 0.88759 0.0
H523 H 0.32811 0.29552 0.8676 0.0
H524 H 0.43017 0.3942 0.95579 0.0
H525 H 0.40013 0.45212 0.96158 0.0
H526 H 0.2063 0.3346 0.89514 0.0
H527 H 0.27338 0.36383 0.85886 0.0
Li528 Li 0.01959 0.39141 0.38749 0.0
Li529 Li 0.02297 0.3909 0.41886 0.0
Li530 Li 0.04576 0.37163 0.40041 0.0
Li531 Li 0.99565 0.348 0.40358 0.0
C532 C 0.06306 0.43903 0.40238 0.0
N533 N 0.08115 0.49525 0.40428 0.0
C534 C 0.04381 0.44824 0.4033 0.0
C535 C 0.09149 0.45843 0.40238 0.0
C536 C 0.05339 0.47674 0.40427 0.0
C537 C 0.10023 0.48676 0.40335 0.0
C538 C 0.96231 0.37156 0.40649 0.0
C539 C 0.91823 0.34193 0.42009 0.0
N540 N 0.90611 0.35269 0.41004 0.0
C541 C 0.94946 0.38256 0.39646 0.0
C542 C 0.94662 0.35132 0.41857 0.0
C543 C 0.92103 0.37267 0.39838 0.0
C544 C 0.99234 0.398 0.35963 0.0
N545 N 0.01713 0.40963 0.3678 0.0
C546 C 0.03729 0.44675 0.34778 0.0
C547 C 0.03965 0.43312 0.3619 0.0
C548 C 0.01154 0.43601 0.33962 0.0
C549 C 0.98896 0.41106 0.34553 0.0
H550 H 0.97507 0.37874 0.36424 0.0
H551 H 0.05944 0.44146 0.3682 0.0
C552 C 0.04943 0.43389 0.4437 0.0
N553 N 0.0249 0.41204 0.4384 0.0
C554 C 0.04961 0.45229 0.45581 0.0
C555 C -0.00039 0.4241 0.45771 0.0
C556 C 0.00035 0.40667 0.44536 0.0
C557 C 0.02437 0.44765 0.46274 0.0
H558 H 0.06873 0.43779 0.43799 0.0
H559 H 0.98115 0.38943 0.44092 0.0
C560 C 0.02763 0.35432 0.36752 0.0
N561 N 0.05002 0.35081 0.33715 0.0
C562 C 0.01462 0.32973 0.35818 0.0
C563 C 0.05199 0.37715 0.36141 0.0
C564 C 0.02626 0.32837 0.34285 0.0
C565 C 0.063 0.37495 0.34604 0.0
C566 C 0.0147 0.3359 0.43374 0.0
C567 C 0.02224 0.31535 0.43347 0.0
C568 C 0.99797 0.33618 0.44681 0.0
C569 C 0.01246 0.29511 0.44613 0.0
C570 C 0.98859 0.31557 0.45923 0.0
N571 N 0.99595 0.29562 0.45862 0.0
C572 C 0.10093 0.38549 0.39131 0.0
C573 C 0.06631 0.33772 0.39115 0.0
C574 C 0.11917 0.37968 0.38239 0.0
N575 N 0.07487 0.36462 0.39509 0.0
C576 C 0.08373 0.33102 0.38221 0.0
C577 C 0.11016 0.35226 0.3772 0.0
H578 H 0.10677 0.4068 0.39406 0.0
H579 H 0.0451 0.32177 0.39373 0.0
C580 C 0.94869 0.31134 0.38732 0.0
N581 N 0.96286 0.31264 0.40155 0.0
C582 C 0.925 0.28672 0.3828 0.0
C583 C 0.93065 0.26489 0.4077 0.0
C584 C 0.95425 0.29016 0.41184 0.0
C585 C 0.91588 0.26298 0.39293 0.0
H586 H 0.95624 0.32947 0.37929 0.0
H587 H 0.96577 0.2915 0.42305 0.0
O588 O 0.05431 0.41121 0.4016 0.0
O589 O 0.99014 0.38088 0.4046 0.0
O590 O 0.017 0.35562 0.38283 0.0
O591 O 0.02432 0.35602 0.42154 0.0
H592 H 0.02173 0.43364 0.4033 0.0
H593 H 0.10666 0.45167 0.40169 0.0
H594 H 0.03873 0.48414 0.40503 0.0
H595 H 0.12217 0.502 0.40339 0.0
H596 H 0.90584 0.32609 0.42928 0.0
H597 H 0.96137 0.39883 0.38741 0.0
H598 H 0.9562 0.34277 0.4266 0.0
H599 H 0.91083 0.38097 0.39065 0.0
H600 H 0.05519 0.46599 0.34365 0.0
H601 H 0.96888 0.40192 0.33941 0.0
H602 H 0.06915 0.47023 0.45946 0.0
H603 H 0.9797 0.41997 0.46264 0.0
H604 H 0.99584 0.31182 0.36281 0.0
H605 H 0.06254 0.39621 0.3686 0.0
H606 H 0.01646 0.30944 0.3355 0.0
H607 H 0.08193 0.3924 0.34121 0.0
H608 H 0.03548 0.31502 0.4236 0.0
H609 H 0.99224 0.35209 0.44737 0.0
H610 H 0.01802 0.27902 0.44602 0.0
H611 H 0.97551 0.31547 0.46936 0.0
H612 H 0.1393 0.39664 0.3786 0.0
H613 H 0.07611 0.30962 0.37853 0.0
H614 H 0.91456 0.286 0.37113 0.0
H615 H 0.92421 0.24699 0.41582 0.0
Li616 Li 0.63715 0.67122 0.39506 0.0
Li617 Li 0.65894 0.64203 0.40242 0.0
Li618 Li 0.61643 0.62298 0.38597 0.0
Li619 Li 0.61462 0.62977 0.41515 0.0
C620 C 0.6586 0.65046 0.36421 0.0
N621 N 0.66795 0.64051 0.33142 0.0
C622 C 0.66475 0.62946 0.36073 0.0
C623 C 0.65716 0.66639 0.35101 0.0
C624 C 0.66941 0.62474 0.34407 0.0
C625 C 0.66198 0.66105 0.33452 0.0
C626 C 0.67352 0.68108 0.42724 0.0
C627 C 0.70656 0.68385 0.44795 0.0
N628 N 0.72077 0.71202 0.44632 0.0
C629 C 0.68839 0.71006 0.42581 0.0
C630 C 0.68259 0.66784 0.43845 0.0
C631 C 0.71224 0.72534 0.43555 0.0
C632 C 0.62907 0.71799 0.38902 0.0
N633 N 0.64661 0.70761 0.38812 0.0
C634 C 0.67841 0.74573 0.37101 0.0
C635 C 0.67137 0.72148 0.37993 0.0
C636 C 0.65988 0.75595 0.37066 0.0
C637 C 0.63539 0.74242 0.38032 0.0
H638 H 0.60952 0.70653 0.39568 0.0
H639 H 0.68499 0.7128 0.37957 0.0
C640 C 0.69533 0.62081 0.40028 0.0
N641 N 0.69428 0.64435 0.40329 0.0
C642 C 0.72078 0.62219 0.39751 0.0
C643 C 0.7438 0.67187 0.40191 0.0
C644 C 0.71785 0.66959 0.40421 0.0
C645 C 0.74549 0.6481 0.39788 0.0
H646 H 0.67626 0.60115 0.39891 0.0
H647 H 0.71652 0.68818 0.40591 0.0
C648 C 0.5741 0.63126 0.38699 0.0
N649 N 0.52784 0.61078 0.3664 0.0
C650 C 0.55305 0.60342 0.38824 0.0
C651 C 0.57153 0.64867 0.37527 0.0
C652 C 0.52988 0.59346 0.3777 0.0
C653 C 0.54799 0.63794 0.365 0.0
C654 C 0.61678 0.58313 0.41509 0.0
C655 C 0.58884 0.56214 0.41513 0.0
C656 C 0.63512 0.58196 0.42668 0.0
C657 C 0.57971 0.54045 0.42681 0.0
C658 C 0.6252 0.55987 0.43812 0.0
N659 N 0.59793 0.53976 0.43796 0.0
C660 C 0.59043 0.57211 0.36835 0.0
C661 C 0.5919 0.60961 0.35317 0.0
C662 C 0.57482 0.55356 0.35563 0.0
N663 N 0.59793 0.59939 0.36714 0.0
C664 C 0.57645 0.59182 0.34008 0.0
C665 C 0.56718 0.5633 0.34143 0.0
H666 H 0.59618 0.56464 0.37933 0.0
H667 H 0.59844 0.63146 0.35238 0.0
C668 C 0.56473 0.60439 0.43436 0.0
N669 N 0.59258 0.61429 0.43507 0.0
C670 C 0.54717 0.58613 0.44675 0.0
C671 C 0.58753 0.59059 0.46111 0.0
C672 C 0.60429 0.60898 0.44856 0.0
C673 C 0.55853 0.57807 0.4599 0.0
H674 H 0.55593 0.6093 0.42369 0.0
H675 H 0.62646 0.61725 0.44894 0.0
O676 O 0.65356 0.6551 0.38043 0.0
O677 O 0.65014 0.66585 0.41777 0.0
O678 O 0.59714 0.64135 0.39707 0.0
O679 O 0.62606 0.60473 0.40384 0.0
H680 H 0.66544 0.61661 0.37074 0.0
H681 H 0.65199 0.68244 0.35341 0.0
H682 H 0.67407 0.60847 0.3412 0.0
H683 H 0.66084 0.67314 0.32417 0.0
H684 H 0.71394 0.67387 0.45657 0.0
H685 H 0.68158 0.72065 0.41727 0.0
H686 H 0.67161 0.64544 0.43954 0.0
H687 H 0.72398 0.74777 0.43455 0.0
H688 H 0.6977 0.75586 0.36395 0.0
H689 H 0.62061 0.74973 0.38035 0.0
H690 H 0.72081 0.60336 0.39403 0.0
H691 H 0.76223 0.69226 0.40249 0.0
H692 H 0.55477 0.58951 0.39703 0.0
H693 H 0.5877 0.67011 0.37389 0.0
H694 H 0.51358 0.57191 0.37847 0.0
H695 H 0.54583 0.65117 0.35583 0.0
H696 H 0.57427 0.56268 0.40635 0.0
H697 H 0.65668 0.59817 0.42708 0.0
H698 H 0.55811 0.52421 0.42706 0.0
H699 H 0.63915 0.55882 0.44721 0.0
H700 H 0.56848 0.53176 0.35697 0.0
H701 H 0.5709 0.6001 0.32934 0.0
H702 H 0.52488 0.57699 0.44544 0.0
H703 H 0.59706 0.58515 0.47121 0.0
Li704 Li 0.34802 0.00482 0.40108 0.0
Li705 Li 0.3655 0.97513 0.41202 0.0
Li706 Li 0.37126 0.9858 0.38248 0.0
Li707 Li 0.32502 0.95539 0.39561 0.0
C708 C 0.40614 0.02928 0.41285 0.0
N709 N 0.44445 0.06062 0.43735 0.0
C710 C 0.39721 0.03168 0.42893 0.0
C711 C 0.43458 0.04318 0.40919 0.0
C712 C 0.41689 0.04751 0.44115 0.0
C713 C 0.45361 0.05884 0.42176 0.0
C714 C 0.30482 0.95768 0.42498 0.0
C715 C 0.27263 0.91603 0.44 0.0
N716 N 0.25267 0.92324 0.43845 0.0
C717 C 0.28413 0.9649 0.42377 0.0
C718 C 0.29916 0.93325 0.43337 0.0
C719 C 0.25784 0.94713 0.43057 0.0
C720 C 0.31848 0.03263 0.39607 0.0
N721 N 0.34275 0.03611 0.4024 0.0
C722 C 0.3623 0.08543 0.40277 0.0
C723 C 0.36424 0.06181 0.40617 0.0
C724 C 0.33828 0.08259 0.39505 0.0
C725 C 0.31577 0.05569 0.39227 0.0
H726 H 0.30206 0.01206 0.39264 0.0
H727 H 0.38363 0.06429 0.4107 0.0
C728 C 0.41273 0.97729 0.42508 0.0
N729 N 0.38698 0.97196 0.42976 0.0
C730 C 0.43243 0.98111 0.43718 0.0
C731 C 0.39853 0.97286 0.45885 0.0
C732 C 0.37935 0.96917 0.44625 0.0
C733 C 0.42571 0.97969 0.45433 0.0
H734 H 0.41851 0.98025 0.41191 0.0
H735 H 0.359 0.96569 0.44964 0.0
C736 C 0.33771 0.00406 0.36678 0.0
N737 N 0.34116 0.04177 0.34279 0.0
C738 C 0.31499 0.99764 0.3564 0.0
C739 C 0.36221 0.02965 0.36496 0.0
C740 C 0.31715 0.01698 0.34433 0.0
C741 C 0.36353 0.04843 0.35277 0.0
C742 C 0.36613 0.93168 0.39815 0.0
C743 C 0.38994 0.93367 0.3908 0.0
C744 C 0.35214 0.91195 0.41078 0.0
C745 C 0.39979 0.9164 0.39655 0.0
C746 C 0.36264 0.89506 0.41619 0.0
N747 N 0.38608 0.89764 0.40904 0.0
C748 C 0.42121 0.00102 0.36662 0.0
C749 C 0.38393 0.98716 0.3474 0.0
C750 C 0.43944 0.00499 0.35348 0.0
N751 N 0.39411 0.99227 0.36339 0.0
C752 C 0.40151 0.99092 0.3338 0.0
C753 C 0.42968 -0.00013 0.33679 0.0
H754 H 0.42841 0.0039 0.37949 0.0
H755 H 0.36212 0.97976 0.34523 0.0
C756 C 0.26939 0.93127 0.38613 0.0
N757 N 0.2896 0.92516 0.38992 0.0
C758 C 0.24477 0.91139 0.37853 0.0
C759 C 0.26197 0.87909 0.37918 0.0
C760 C 0.28621 0.89955 0.3869 0.0
C761 C 0.2412 0.88518 0.3745 0.0
H762 H 0.27308 0.95211 0.38815 0.0
H763 H 0.30291 0.89549 0.38962 0.0
O764 O 0.38714 0.01282 0.40096 0.0
O765 O 0.33056 0.97461 0.41819 0.0
O766 O 0.33553 0.98571 0.37904 0.0
O767 O 0.35634 0.94865 0.3928 0.0
H768 H 0.37528 0.02111 0.43199 0.0
H769 H 0.44195 0.04196 0.3968 0.0
H770 H 0.41024 0.0493 0.45368 0.0
H771 H 0.47567 0.06958 0.41912 0.0
H772 H 0.26794 0.89698 0.44644 0.0
H773 H 0.28825 0.98393 0.41758 0.0
H774 H 0.31513 0.92774 0.43485 0.0
H775 H 0.24157 0.95235 0.42958 0.0
H776 H 0.38006 0.10576 0.40526 0.0
H777 H 0.29705 0.05247 0.38604 0.0
H778 H 0.45303 0.98605 0.43314 0.0
H779 H 0.39262 0.97185 0.47196 0.0
H780 H 0.29582 0.97799 0.35773 0.0
H781 H 0.37994 0.03508 0.37298 0.0
H782 H 0.29971 0.01231 0.33622 0.0
H783 H 0.3823 0.06836 0.35128 0.0
H784 H 0.40078 0.94845 0.38082 0.0
H785 H 0.33337 0.90967 0.41632 0.0
H786 H 0.41832 0.91789 0.39107 0.0
H787 H 0.35211 0.87984 0.42604 0.0
H788 H 0.46075 0.01106 0.35645 0.0
H789 H 0.39315 0.98668 0.32114 0.0
H790 H 0.22948 0.91707 0.37488 0.0
H791 H 0.25994 0.85908 0.37632 0.0
Li792 Li 0.34465 0.32589 0.26552 0.0
Li793 Li 0.29554 0.29824 0.27243 0.0
Li794 Li 0.32785 0.28145 0.27813 0.0
Li795 Li 0.31797 0.28409 0.24865 0.0
C796 C 0.34493 0.32829 0.30049 0.0
N797 N 0.38144 0.35905 0.32585 0.0
C798 C 0.3384 0.34377 0.31154 0.0
C799 C 0.3699 0.32828 0.30242 0.0
C800 C 0.35717 0.35924 0.32426 0.0
C801 C 0.38812 0.344 0.3153 0.0
C802 C 0.32136 0.34348 0.24432 0.0
C803 C 0.34887 0.38023 0.2246 0.0
N804 N 0.34163 0.39719 0.23279 0.0
C805 C 0.31413 0.36123 0.25251 0.0
C806 C 0.33879 0.35297 0.23023 0.0
C807 C 0.32461 0.38833 0.24649 0.0
C808 C 0.3987 0.3698 0.25705 0.0
N809 N 0.37476 0.36313 0.26535 0.0
C810 C 0.3954 0.40827 0.27768 0.0
C811 C 0.37243 0.38202 0.27502 0.0
C812 C 0.42103 0.41522 0.27021 0.0
C813 C 0.42228 0.39592 0.25932 0.0
H814 H 0.39978 0.35447 0.2492 0.0
H815 H 0.353 0.37626 0.28129 0.0
C816 C 0.26291 0.29553 0.2989 0.0
N817 N 0.265 0.29955 0.28196 0.0
C818 C 0.24354 0.29896 0.30814 0.0
C819 C 0.22832 0.31023 0.28227 0.0
C820 C 0.24807 0.30647 0.27347 0.0
C821 C 0.22612 0.30673 0.29989 0.0
H822 H 0.27693 0.2904 0.30531 0.0
H823 H 0.25043 0.30985 0.25999 0.0
C824 C 0.37384 0.28964 0.25775 0.0
N825 N 0.41348 0.27374 0.25419 0.0
C826 C 0.36771 0.26555 0.24877 0.0
C827 C 0.40029 0.30575 0.26476 0.0
C828 C 0.38799 0.25785 0.24714 0.0
C829 C 0.41998 0.29731 0.26289 0.0
C830 C 0.28053 0.23528 0.27392 0.0
C831 C 0.28894 0.21688 0.26809 0.0
C832 C 0.26227 0.22768 0.28759 0.0
C833 C 0.27919 0.19129 0.27619 0.0
C834 C 0.25299 0.20191 0.29535 0.0
N835 N 0.2616 0.18442 0.28956 0.0
C836 C 0.32221 0.25934 0.31046 0.0
C837 C 0.34522 0.24424 0.29175 0.0
C838 C 0.32258 0.24221 0.32321 0.0
N839 N 0.33329 0.25995 0.29505 0.0
C840 C 0.34595 0.22676 0.3041 0.0
C841 C 0.33422 0.22534 0.32 0.0
H842 H 0.31225 0.27152 0.31267 0.0
H843 H 0.35325 0.24436 0.2794 0.0
C844 C 0.33661 0.28033 0.21666 0.0
N845 N 0.31471 0.26718 0.22739 0.0
C846 C 0.33939 0.26601 0.20306 0.0
C847 C 0.29617 0.2254 0.21123 0.0
C848 C 0.29412 0.2406 0.22463 0.0
C849 C 0.31962 0.2378 0.20062 0.0
H850 H 0.35301 0.30124 0.21942 0.0
H851 H 0.27713 0.23057 0.23351 0.0
O852 O 0.32699 0.31345 0.28777 0.0
O853 O 0.31185 0.31711 0.25028 0.0
O854 O 0.35452 0.29801 0.2591 0.0
O855 O 0.29058 0.26083 0.26652 0.0
H856 H 0.31915 0.34406 0.31018 0.0
H857 H 0.37509 0.31618 0.2941 0.0
H858 H 0.35245 0.37144 0.33285 0.0
H859 H 0.40757 0.34422 0.3169 0.0
H860 H 0.36249 0.38791 0.21376 0.0
H861 H 0.30093 0.35432 0.26356 0.0
H862 H 0.34466 0.33953 0.22379 0.0
H863 H 0.31932 0.40236 0.25276 0.0
H864 H 0.39345 0.42227 0.28633 0.0
H865 H 0.44151 0.40059 0.25311 0.0
H866 H 0.24296 0.29653 0.3217 0.0
H867 H 0.21518 0.3161 0.27543 0.0
H868 H 0.3474 0.2526 0.24336 0.0
H869 H 0.40569 0.3247 0.27151 0.0
H870 H 0.38342 0.23918 0.24032 0.0
H871 H 0.44048 0.30958 0.26829 0.0
H872 H 0.30324 0.22249 0.25763 0.0
H873 H 0.25548 0.2416 0.29224 0.0
H874 H 0.28575 0.17698 0.27191 0.0
H875 H 0.23899 0.19584 0.30602 0.0
H876 H 0.313 0.24144 0.33524 0.0
H877 H 0.35529 0.21419 0.30116 0.0
H878 H 0.35756 0.27652 0.19505 0.0
H879 H 0.28053 0.20367 0.20993 0.0
Li880 Li 0.71595 0.03513 0.25142 0.0
Li881 Li 0.7227 0.04319 0.28114 0.0
Li882 Li 0.70581 0.99684 0.27116 0.0
Li883 Li 0.67655 0.01738 0.27044 0.0
C884 C 0.76932 0.04843 0.26919 0.0
N885 N 0.824 0.08643 0.27681 0.0
C886 C 0.78168 0.07555 0.26285 0.0
C887 C 0.78482 0.0406 0.27934 0.0
C888 C 0.80933 0.09446 0.26685 0.0
C889 C 0.81242 0.06013 0.28307 0.0
C890 C 0.69655 0.07382 0.27352 0.0
C891 C 0.68276 0.08845 0.29858 0.0
N892 N 0.68073 0.10805 0.2894 0.0
C893 C 0.69442 0.09419 0.26436 0.0
C894 C 0.69076 0.071 0.2908 0.0
C895 C 0.68635 0.11126 0.2726 0.0
C896 C 0.72026 0.06843 0.22405 0.0
N897 N 0.7304 0.05249 0.23031 0.0
C898 C 0.76734 0.07117 0.21015 0.0
C899 C 0.75297 0.05287 0.22337 0.0
C900 C 0.75847 0.08933 0.20425 0.0
C901 C 0.73411 0.08719 0.21099 0.0
H902 H 0.70226 0.06762 0.22985 0.0
H903 H 0.76087 0.04032 0.2288 0.0
C904 C 0.75018 0.0586 0.31237 0.0
N905 N 0.74617 0.06871 0.29769 0.0
C906 C 0.76767 0.07683 0.32472 0.0
C907 C 0.77652 0.11539 0.3065 0.0
C908 C 0.75886 0.09646 0.29455 0.0
C909 C 0.78117 0.10563 0.3218 0.0
H910 H 0.73996 0.03637 0.31439 0.0
H911 H 0.75535 0.10386 0.2827 0.0
C912 C 0.68361 0.98177 0.23851 0.0
N913 N 0.68634 0.95159 0.21165 0.0
C914 C 0.66037 0.96652 0.22828 0.0
C915 C 0.70825 0.98166 0.23509 0.0
C916 C 0.66216 0.95139 0.21476 0.0
C917 C 0.7092 0.96628 0.22145 0.0
C918 C 0.67217 0.98578 0.29874 0.0
C919 C 0.65118 0.96364 0.28967 0.0
C920 C 0.67305 0.98397 0.31627 0.0
C921 C 0.63142 0.94005 0.29833 0.0
C922 C 0.65289 0.96002 0.32446 0.0
N923 N 0.63268 0.93873 0.3154 0.0
C924 C 0.7204 0.96684 0.29167 0.0
C925 C 0.68928 0.93837 0.27038 0.0
C926 C 0.71761 0.94361 0.30015 0.0
N927 N 0.70606 0.96385 0.27724 0.0
C928 C 0.68598 0.91446 0.27843 0.0
C929 C 0.69975 0.91688 0.29376 0.0
H930 H 0.7325 0.98723 0.29724 0.0
H931 H 0.67722 0.9364 0.25926 0.0
C932 C 0.62221 0.0048 0.26001 0.0
N933 N 0.63967 0.01057 0.27333 0.0
C934 C 0.59522 4e-05 0.26258 0.0
C935 C 0.60503 0.00736 0.29241 0.0
C936 C 0.63159 0.01196 0.28928 0.0
C937 C 0.58635 0.00113 0.27901 0.0
H938 H 0.62925 0.00391 0.24744 0.0
H939 H 0.64582 0.01676 0.29966 0.0
O940 O 0.74206 0.02981 0.26573 0.0
O941 O 0.70443 0.05697 0.26555 0.0
O942 O 0.68199 0.99668 0.25174 0.0
O943 O 0.69224 0.00889 0.29056 0.0
H944 H 0.76988 0.08213 0.25522 0.0
H945 H 0.77567 0.0197 0.28429 0.0
H946 H 0.81908 0.11556 0.26214 0.0
H947 H 0.82463 0.05438 0.29094 0.0
H948 H 0.67818 0.08642 0.31193 0.0
H949 H 0.69897 0.09686 0.25101 0.0
H950 H 0.69243 0.05552 0.29817 0.0
H951 H 0.68459 0.12707 0.26564 0.0
H952 H 0.78618 0.07238 0.20536 0.0
H953 H 0.72647 0.10064 0.20663 0.0
H954 H 0.77095 0.0685 0.33629 0.0
H955 H 0.78629 0.13745 0.30384 0.0
H956 H 0.64114 0.96639 0.23077 0.0
H957 H 0.7264 0.99311 0.2429 0.0
H958 H 0.64433 0.93949 0.20674 0.0
H959 H 0.72812 0.96599 0.21867 0.0
H960 H 0.6502 0.96454 0.2761 0.0
H961 H 0.68921 0.00087 0.32346 0.0
H962 H 0.61512 0.92275 0.29147 0.0
H963 H 0.65334 0.95833 0.33803 0.0
H964 H 0.72808 0.94655 0.31211 0.0
H965 H 0.67208 0.89427 0.27302 0.0
H966 H 0.58142 0.99532 0.25193 0.0
H967 H 0.59931 0.00907 0.30522 0.0
Li968 Li 0.95586 0.66938 0.28195 0.0
Li969 Li 0.98025 0.65051 0.2642 0.0
Li970 Li 0.00252 0.69974 0.27004 0.0
Li971 Li 0.96178 0.67644 0.2519 0.0
C972 C 0.00448 0.67929 0.30121 0.0
N973 N 0.03462 0.70202 0.33032 0.0
C974 C 0.0224 0.67042 0.30725 0.0
C975 C 0.00179 0.69962 0.31001 0.0
C976 C 0.03747 0.68219 0.32199 0.0
C977 C 0.01723 0.71088 0.32469 0.0
C978 C 0.91652 0.62671 0.25523 0.0
C979 C 0.89078 0.59981 0.23106 0.0
N980 N 0.86817 0.60105 0.23643 0.0
C981 C 0.89287 0.62731 0.26063 0.0
C982 C 0.91533 0.61249 0.24044 0.0
C983 C 0.86868 0.61435 0.25092 0.0
C984 C 0.91501 0.67425 0.29886 0.0
N985 N 0.93236 0.6638 0.30047 0.0
C986 C 0.91448 0.64619 0.32793 0.0
C987 C 0.93257 0.65004 0.31462 0.0
C988 C 0.89584 0.65616 0.32636 0.0
C989 C 0.89628 0.67042 0.31166 0.0
H990 H 0.91544 0.68516 0.28746 0.0
H991 H 0.94667 0.64198 0.31551 0.0
C992 C 0.01431 0.62704 0.2663 0.0
N993 N 0.98771 0.62088 0.26351 0.0
C994 C 0.02019 0.6058 0.26941 0.0
C995 C 0.97135 0.57226 0.26592 0.0
C996 C 0.96642 0.59418 0.26285 0.0
C997 C 0.99838 0.57806 0.26986 0.0
H998 H 0.03071 0.64853 0.26706 0.0
H999 H 0.94539 0.58997 0.26101 0.0
C1000 C 0.97507 0.72968 0.26299 0.0
N1001 N 0.9866 0.78003 0.24913 0.0
C1002 C 0.99262 0.74034 0.24898 0.0
C1003 C 0.96335 0.74459 0.26992 0.0
C1004 C 0.9982 0.76584 0.24217 0.0
C1005 C 0.96945 0.77002 0.26274 0.0
C1006 C 0.0143 0.67356 0.23812 0.0
C1007 C 0.04335 0.68868 0.23812 0.0
C1008 C 0.00046 0.6499 0.22802 0.0
C1009 C 0.05806 0.67936 0.22842 0.0
C1010 C 0.01589 0.64121 0.21851 0.0
N1011 N 0.04414 0.65598 0.21892 0.0
C1012 C 0.05768 0.72369 0.27947 0.0
C1013 C 0.04025 0.75467 0.28247 0.0
C1014 C 0.08134 0.7414 0.28871 0.0
N1015 N 0.03745 0.73025 0.27686 0.0
C1016 C 0.06379 0.77319 0.29163 0.0
C1017 C 0.08421 0.76612 0.29531 0.0
H1018 H 0.05442 0.70365 0.2755 0.0
H1019 H 0.02348 0.759 0.28092 0.0
C1020 C 0.92043 0.68362 0.23771 0.0
N1021 N 0.9416 0.67921 0.23341 0.0
C1022 C 0.90085 0.6807 0.22574 0.0
C1023 C 0.92635 0.67084 0.20477 0.0
C1024 C 0.94532 0.67355 0.21726 0.0
C1025 C 0.90336 0.67362 0.20915 0.0
H1026 H 0.91789 0.68783 0.25069 0.0
H1027 H 0.9622 0.66989 0.21425 0.0
O1028 O 0.99055 0.66895 0.28638 0.0
O1029 O 0.94068 0.64008 0.26431 0.0
O1030 O 0.96905 0.70465 0.26984 0.0
O1031 O -0.00045 0.68228 0.24764 0.0
H1032 H 0.02485 0.65484 0.30053 0.0
H1033 H 0.98832 0.707 0.30536 0.0
H1034 H 0.05152 0.67565 0.32677 0.0
H1035 H 0.01552 0.72678 0.33155 0.0
H1036 H 0.88971 0.589 0.21951 0.0
H1037 H 0.89323 0.63793 0.27209 0.0
H1038 H 0.93318 0.61133 0.23619 0.0
H1039 H 0.85035 0.61495 0.25487 0.0
H1040 H 0.91458 0.63507 0.33913 0.0
H1041 H 0.8823 0.67857 0.31014 0.0
H1042 H 0.04133 0.61111 0.2723 0.0
H1043 H 0.95391 0.5512 0.2664 0.0
H1044 H 0.00188 0.72915 0.24341 0.0
H1045 H 0.94971 0.73661 0.28075 0.0
H1046 H 0.01175 0.77435 0.23134 0.0
H1047 H 0.96054 0.7818 0.26798 0.0
H1048 H 0.05444 0.70757 0.24538 0.0
H1049 H 0.97805 0.63825 0.22763 0.0
H1050 H 0.08055 0.69079 0.22838 0.0
H1051 H 0.0054 0.62276 0.21078 0.0
H1052 H 0.09666 0.73525 0.29128 0.0
H1053 H 0.06512 0.7919 0.29673 0.0
H1054 H 0.88347 0.68318 0.22951 0.0
H1055 H 0.92882 0.66527 0.19207 0.0
Li1056 Li 0.67512 0.72576 0.71692 0.0
Li1057 Li 0.67816 0.7215 0.74819 0.0
Li1058 Li 0.69834 0.70157 0.72796 0.0
Li1059 Li 0.64893 0.68156 0.73125 0.0
C1060 C 0.72086 0.76977 0.73332 0.0
N1061 N 0.74353 0.82634 0.73811 0.0
C1062 C 0.70354 0.78106 0.73572 0.0
C1063 C 0.7497 0.78729 0.73333 0.0
C1064 C 0.71541 0.8097 0.73813 0.0
C1065 C 0.76075 0.81583 0.73576 0.0
C1066 C 0.61804 0.70569 0.73578 0.0
C1067 C 0.57398 0.67578 0.74933 0.0
N1068 N 0.56139 0.68499 0.73849 0.0
C1069 C 0.6047 0.71516 0.72496 0.0
C1070 C 0.60259 0.68614 0.74825 0.0
C1071 C 0.57604 0.70435 0.72646 0.0
C1072 C 0.65084 0.73609 0.68894 0.0
N1073 N 0.67452 0.74717 0.69825 0.0
C1074 C 0.69547 0.78778 0.68088 0.0
C1075 C 0.69702 0.77205 0.69408 0.0
C1076 C 0.67071 0.77759 0.67168 0.0
C1077 C 0.6484 0.75108 0.67556 0.0
H1078 H 0.63366 0.71576 0.69211 0.0
H1079 H 0.71621 0.77984 0.70097 0.0
C1080 C 0.70734 0.76139 0.77432 0.0
N1081 N 0.68201 0.74125 0.76874 0.0
C1082 C 0.70919 0.7798 0.78696 0.0
C1083 C 0.65906 0.75468 0.78897 0.0
C1084 C 0.65817 0.73731 0.77605 0.0
C1085 C 0.68474 0.77677 0.79417 0.0
H1086 H 0.72605 0.76415 0.76834 0.0
H1087 H 0.63834 0.72145 0.77138 0.0
C1088 C 0.68138 0.69108 0.69469 0.0
N1089 N 0.70512 0.69333 0.66369 0.0
C1090 C 0.66795 0.66911 0.68331 0.0
C1091 C 0.70688 0.71421 0.6903 0.0
C1092 C 0.68029 0.67065 0.6677 0.0
C1093 C 0.71855 0.71495 0.67457 0.0
C1094 C 0.66467 0.66276 0.7596 0.0
C1095 C 0.66611 0.63886 0.75606 0.0
C1096 C 0.65183 0.66412 0.77444 0.0
C1097 C 0.65426 0.61649 0.76732 0.0
C1098 C 0.64024 0.64132 0.78539 0.0
N1099 N 0.64166 0.61817 0.78162 0.0
C1100 C 0.75315 0.7125 0.71994 0.0
C1101 C 0.71593 0.66653 0.71571 0.0
C1102 C 0.77124 0.70649 0.71101 0.0
N1103 N 0.72596 0.6927 0.72176 0.0
C1104 C 0.73317 0.65968 0.70668 0.0
C1105 C 0.76099 0.68002 0.70377 0.0
H1106 H 0.76032 0.73339 0.72442 0.0
H1107 H 0.69401 0.65154 0.71682 0.0
C1108 C 0.60312 0.64702 0.71314 0.0
N1109 N 0.61433 0.64775 0.72846 0.0
C1110 C 0.57804 0.62409 0.70836 0.0
C1111 C 0.57601 0.60286 0.73533 0.0
C1112 C 0.6012 0.62642 0.73965 0.0
C1113 C 0.56423 0.60152 0.71946 0.0
H1114 H 0.61385 0.66437 0.70456 0.0
H1115 H 0.60995 0.62755 0.75191 0.0
O1116 O 0.70983 0.74172 0.73118 0.0
O1117 O 0.6461 0.7159 0.73435 0.0
O1118 O 0.66986 0.68947 0.7102 0.0
O1119 O 0.67658 0.68506 0.74889 0.0
H1120 H 0.6812 0.76795 0.73574 0.0
H1121 H 0.7634 0.77892 0.73152 0.0
H1122 H 0.70227 0.81869 0.74004 0.0
H1123 H 0.78303 0.82962 0.73582 0.0
H1124 H 0.56177 0.66037 0.75878 0.0
H1125 H 0.61636 0.73096 0.71563 0.0
H1126 H 0.61253 0.67866 0.75682 0.0
H1127 H 0.56548 0.71144 0.71811 0.0
H1128 H 0.7134 0.80783 0.67797 0.0
H1129 H 0.62897 0.74245 0.66871 0.0
H1130 H 0.72938 0.79663 0.79073 0.0
H1131 H 0.63977 0.75187 0.79416 0.0
H1132 H 0.64828 0.65099 0.68657 0.0
H1133 H 0.71772 0.7313 0.699 0.0
H1134 H 0.67015 0.65377 0.65878 0.0
H1135 H 0.73831 0.73267 0.67104 0.0
H1136 H 0.6762 0.63755 0.74473 0.0
H1137 H 0.6508 0.68254 0.77748 0.0
H1138 H 0.6551 0.59781 0.7647 0.0
H1139 H 0.63013 0.64204 0.79688 0.0
H1140 H 0.7925 0.72282 0.70889 0.0
H1141 H 0.72453 0.63899 0.70142 0.0
H1142 H 0.56993 0.62375 0.6959 0.0
H1143 H 0.56585 0.58594 0.74428 0.0
Li1144 Li 0.31787 0.97874 0.7382 0.0
Li1145 Li 0.29734 0.00835 0.73073 0.0
Li1146 Li 0.27461 0.96778 0.7511 0.0
Li1147 Li 0.27534 0.95932 0.72203 0.0
C1148 C 0.33536 0.01796 0.76175 0.0
N1149 N 0.38568 0.04698 0.77828 0.0
C1150 C 0.352 0.04667 0.75945 0.0
C1151 C 0.34417 0.00405 0.7726 0.0
C1152 C 0.3774 0.06096 0.7679 0.0
C1153 C 0.36972 0.01907 0.78079 0.0
C1154 C 0.32122 0.98518 0.70139 0.0
C1155 C 0.33635 0.99621 0.67251 0.0
N1156 N 0.33898 0.97317 0.67169 0.0
C1157 C 0.32388 0.9615 0.70024 0.0
C1158 C 0.32735 0.00262 0.6874 0.0
C1159 C 0.33298 0.95583 0.68513 0.0
C1160 C 0.35493 0.95748 0.73869 0.0
N1161 N 0.35323 0.98106 0.73843 0.0
C1162 C 0.40162 0.00852 0.73202 0.0
C1163 C 0.37594 0.00633 0.73533 0.0
C1164 C 0.40376 0.98438 0.73156 0.0
C1165 C 0.38018 0.9587 0.73542 0.0
H1166 H 0.33636 0.93749 0.74024 0.0
H1167 H 0.37376 0.02457 0.73441 0.0
C1168 C 0.28936 0.05482 0.72411 0.0
N1169 N 0.30712 0.0447 0.7235 0.0
C1170 C 0.29594 0.07951 0.71566 0.0
C1171 C 0.33987 0.08391 0.70744 0.0
C1172 C 0.3323 0.05904 0.71583 0.0
C1173 C 0.32119 0.09399 0.70675 0.0
H1174 H 0.26948 0.04299 0.73037 0.0
H1175 H 0.3461 0.05057 0.71572 0.0
C1176 C 0.2738 0.92015 0.75179 0.0
N1177 N 0.25117 0.87757 0.7753 0.0
C1178 C 0.24537 0.90058 0.75152 0.0
C1179 C 0.29066 0.91799 0.76408 0.0
C1180 C 0.23433 0.87927 0.76352 0.0
C1181 C 0.27886 0.89629 0.77581 0.0
C1182 C 0.23467 0.96955 0.72215 0.0
C1183 C 0.21236 0.94233 0.72358 0.0
C1184 C 0.2342 0.98695 0.70956 0.0
C1185 C 0.19004 0.93301 0.71241 0.0
C1186 C 0.21145 0.9769 0.69867 0.0
N1187 N 0.19004 0.95035 0.7003 0.0
C1188 C 0.22492 0.94385 0.77016 0.0
C1189 C 0.26411 0.94906 0.7851 0.0
C1190 C 0.20707 0.92599 0.78256 0.0
N1191 N 0.25271 0.95368 0.77119 0.0
C1192 C 0.24703 0.93116 0.79777 0.0
C1193 C 0.218 0.9183 0.79615 0.0
H1194 H 0.21642 0.94851 0.75924 0.0
H1195 H 0.28628 0.95728 0.7857 0.0
C1196 C 0.25374 0.94721 0.68872 0.0
N1197 N 0.25685 0.93593 0.70321 0.0
C1198 C 0.238 0.93005 0.67547 0.0
C1199 C 0.2306 0.89019 0.69188 0.0
C1200 C 0.24651 0.90811 0.70477 0.0
C1201 C 0.22561 0.90109 0.67718 0.0
H1202 H 0.26284 0.96951 0.68764 0.0
H1203 H 0.25028 0.89976 0.71609 0.0
O1204 O 0.31053 0.00362 0.75348 0.0
O1205 O 0.31197 0.9909 0.716 0.0
O1206 O 0.28494 0.94144 0.74025 0.0
O1207 O 0.25701 0.97894 0.73281 0.0
H1208 H 0.34538 0.05782 0.75125 0.0
H1209 H 0.33167 0.98184 0.77444 0.0
H1210 H 0.39054 0.08317 0.76619 0.0
H1211 H 0.3769 0.00853 0.78911 0.0
H1212 H 0.34117 0.00953 0.66158 0.0
H1213 H 0.31857 0.94742 0.71081 0.0
H1214 H 0.32501 0.02081 0.688 0.0
H1215 H 0.33512 0.93758 0.68406 0.0
H1216 H 0.4191 0.02863 0.7287 0.0
H1217 H 0.38094 0.93958 0.73509 0.0
H1218 H 0.28081 0.08637 0.71544 0.0
H1219 H 0.35987 0.0947 0.70118 0.0
H1220 H 0.23183 0.90199 0.74232 0.0
H1221 H 0.31252 0.93322 0.76486 0.0
H1222 H 0.21234 0.86417 0.76351 0.0
H1223 H 0.29168 0.89452 0.78543 0.0
H1224 H 0.21243 0.92833 0.73299 0.0
H1225 H 0.25144 0.00779 0.70791 0.0
H1226 H 0.17278 0.91194 0.71332 0.0
H1227 H 0.21094 0.99013 0.68883 0.0
H1228 H 0.18486 0.91724 0.78109 0.0
H1229 H 0.25642 0.92588 0.80801 0.0
H1230 H 0.23469 0.93925 0.6643 0.0
H1231 H 0.222 0.86799 0.69349 0.0
Li1232 Li 0.03577 0.32149 0.74456 0.0
Li1233 Li 0.01633 0.34887 0.73215 0.0
Li1234 Li 0.99411 0.29847 0.72894 0.0
Li1235 Li 0.039 0.3284 0.7145 0.0
C1236 C 0.97463 0.30487 0.75735 0.0
N1237 N 0.92195 0.27301 0.77075 0.0
C1238 C 0.95574 0.31453 0.75689 0.0
C1239 C 0.96686 0.2792 0.76483 0.0
C1240 C 0.92917 0.29807 0.76368 0.0
C1241 C 0.9401 0.26334 0.77147 0.0
C1242 C 0.07276 0.38359 0.72591 0.0
C1243 C 0.08364 0.4187 0.70468 0.0
N1244 N 0.10642 0.4368 0.71366 0.0
C1245 C 0.09631 0.40249 0.73492 0.0
C1246 C 0.0664 0.39169 0.71065 0.0
C1247 C 0.11306 0.42931 0.72851 0.0
C1248 C 0.08588 0.33368 0.75847 0.0
N1249 N 0.05847 0.32159 0.76244 0.0
C1250 C 0.06773 0.31412 0.79079 0.0
C1251 C 0.04902 0.31171 0.77819 0.0
C1252 C 0.0963 0.32691 0.78707 0.0
C1253 C 0.10519 0.33642 0.77058 0.0
H1254 H 0.09274 0.34138 0.74582 0.0
H1255 H 0.02711 0.3024 0.78103 0.0
C1256 C 0.98732 0.37653 0.72551 0.0
N1257 N 0.01017 0.37937 0.73353 0.0
C1258 C 0.98398 0.39955 0.72313 0.0
C1259 C 0.02682 0.4276 0.73837 0.0
C1260 C 0.02921 0.40393 0.74056 0.0
C1261 C 0.00444 0.42571 0.72905 0.0
H1262 H 0.97245 0.35665 0.72016 0.0
H1263 H 0.04698 0.40548 0.74711 0.0
C1264 C 0.03912 0.27944 0.73313 0.0
N1265 N 0.06591 0.25363 0.74711 0.0
C1266 C 0.06558 0.28611 0.72748 0.0
C1267 C 0.02613 0.25939 0.74573 0.0
C1268 C 0.07882 0.27289 0.73475 0.0
C1269 C 0.04006 0.24665 0.75269 0.0
C1270 C 0.99229 0.32424 0.69554 0.0
C1271 C 0.97951 0.29824 0.68766 0.0
C1272 C 0.99353 0.34702 0.68718 0.0
C1273 C 0.96815 0.29545 0.6716 0.0
C1274 C 0.98197 0.34341 0.67111 0.0
N1275 N 0.96961 0.31791 0.66372 0.0
C1276 C 0.93783 0.27268 0.72104 0.0
C1277 C 0.95538 0.24159 0.72225 0.0
C1278 C 0.91333 0.25238 0.71356 0.0
N1279 N 0.95847 0.26719 0.72479 0.0
C1280 C 0.93115 0.22061 0.7148 0.0
C1281 C 0.91015 0.22621 0.7098 0.0
H1282 H 0.94129 0.29352 0.72266 0.0
H1283 H 0.97241 0.23803 0.72496 0.0
C1284 C 0.08984 0.34925 0.69733 0.0
N1285 N 0.06187 0.33315 0.69536 0.0
C1286 C 0.10785 0.35148 0.68441 0.0
C1287 C 0.06807 0.32054 0.66755 0.0
C1288 C 0.0508 0.31886 0.68084 0.0
C1289 C 0.09701 0.33669 0.66936 0.0
H1290 H 0.0983 0.3596 0.70918 0.0
H1291 H 0.0287 0.30528 0.67976 0.0
O1292 O 0.00057 0.32047 0.75052 0.0
O1293 O 0.05595 0.35741 0.73219 0.0
O1294 O 0.02612 0.29268 0.72647 0.0
O1295 O 0.00287 0.32728 0.7115 0.0
H1296 H 0.96147 0.33444 0.75127 0.0
H1297 H 0.9813 0.27154 0.76542 0.0
H1298 H 0.91428 0.30521 0.76332 0.0
H1299 H 0.93375 0.24334 0.77719 0.0
H1300 H 0.07892 0.42526 0.6929 0.0
H1301 H 0.10149 0.39652 0.74677 0.0
H1302 H 0.04839 0.37729 0.70349 0.0
H1303 H 0.13131 0.44419 0.73537 0.0
H1304 H 0.06002 0.30671 0.80338 0.0
H1305 H 0.12689 0.34594 0.76705 0.0
H1306 H 0.96657 0.39721 0.71572 0.0
H1307 H 0.04287 0.44738 0.74326 0.0
H1308 H 0.07592 0.30152 0.71772 0.0
H1309 H 0.00559 0.25384 0.75016 0.0
H1310 H 0.09939 0.278 0.73058 0.0
H1311 H 0.03032 0.23122 0.76253 0.0
H1312 H 0.97878 0.28045 0.69373 0.0
H1313 H 0.00329 0.36733 0.69301 0.0
H1314 H 0.95827 0.27545 0.66537 0.0
H1315 H 0.9828 0.36088 0.66452 0.0
H1316 H 0.89796 0.25781 0.70969 0.0
H1317 H 0.92941 0.20063 0.71228 0.0
H1318 H 0.13007 0.36421 0.68631 0.0
H1319 H 0.05891 0.30837 0.65628 0.0
Li1320 Li 0.95612 0.63472 0.60403 0.0
Li1321 Li 0.00572 0.66436 0.59944 0.0
Li1322 Li 0.98308 0.62253 0.58203 0.0
Li1323 Li 0.98967 0.62017 0.61222 0.0
C1324 C 0.98495 0.68012 0.57556 0.0
N1325 N 0.00667 0.73297 0.56227 0.0
C1326 C 0.97719 0.69852 0.58225 0.0
C1327 C 0.00364 0.68851 0.56208 0.0
C1328 C 0.98842 0.72517 0.57535 0.0
C1329 C 0.01443 0.71535 0.55556 0.0
C1330 C 0.9963 0.66879 0.63387 0.0
C1331 C 0.03082 0.69111 0.65558 0.0
N1332 N 0.01834 0.70576 0.66036 0.0
C1333 C 0.9836 0.68379 0.63913 0.0
C1334 C 0.0199 0.67221 0.64227 0.0
C1335 C 0.99515 0.70248 0.6525 0.0
C1336 C 0.91737 0.62543 0.62812 0.0
N1337 N 0.92342 0.63367 0.6118 0.0
C1338 C 0.88797 0.64606 0.61112 0.0
C1339 C 0.90902 0.64345 0.60309 0.0
C1340 C 0.88187 0.63849 0.62819 0.0
C1341 C 0.89658 0.6276 0.63658 0.0
H1342 H 0.92969 0.61842 0.63482 0.0
H1343 H 0.91451 0.65015 0.59016 0.0
C1344 C 0.05981 0.70824 0.59219 0.0
N1345 N 0.03526 0.7021 0.59951 0.0
C1346 C 0.08329 0.73439 0.59447 0.0
C1347 C 0.05513 0.74811 0.61052 0.0
C1348 C 0.03223 0.72178 0.60784 0.0
C1349 C 0.08135 0.75435 0.60434 0.0
H1350 H 0.06145 0.69245 0.58517 0.0
H1351 H 0.01227 0.71676 0.61297 0.0
C1352 C 0.94598 0.57211 0.60501 0.0
N1353 N 0.93063 0.52016 0.61799 0.0
C1354 C 0.95758 0.55678 0.59851 0.0
C1355 C 0.92646 0.56095 0.61804 0.0
C1356 C 0.94955 0.53056 0.60525 0.0
C1357 C 0.91901 0.53468 0.62445 0.0
C1358 C 0.04067 0.63479 0.59743 0.0
C1359 C 0.04418 0.61499 0.58858 0.0
C1360 C 0.06065 0.65182 0.60921 0.0
C1361 C 0.06746 0.61234 0.59183 0.0
C1362 C 0.08364 0.64853 0.6121 0.0
N1363 N 0.08653 0.62901 0.60344 0.0
C1364 C 0.00881 0.6188 0.55301 0.0
C1365 C 0.96278 0.58116 0.55634 0.0
C1366 C 0.01387 0.60481 0.54015 0.0
N1367 N 0.98398 0.60638 0.5612 0.0
C1368 C 0.96687 0.56649 0.54341 0.0
C1369 C 0.99307 0.57791 0.53563 0.0
H1370 H 0.02539 0.6387 0.55733 0.0
H1371 H 0.94338 0.57164 0.56326 0.0
C1372 C 0.98394 0.59939 0.64509 0.0
N1373 N 0.99491 0.59957 0.62973 0.0
C1374 C 0.98494 0.58306 0.65816 0.0
C1375 C 0.00864 0.5675 0.63938 0.0
C1376 C 0.00707 0.584 0.6267 0.0
C1377 C 0.9972 0.56662 0.65532 0.0
H1378 H 0.97369 0.61136 0.64706 0.0
H1379 H 0.01463 0.58348 0.61429 0.0
O1380 O 0.97472 0.65419 0.58239 0.0
O1381 O 0.98523 0.65036 0.62081 0.0
O1382 O 0.95419 0.59815 0.5989 0.0
O1383 O 0.01814 0.63789 0.59427 0.0
H1384 H 0.96302 0.69245 0.59282 0.0
H1385 H 0.00992 0.67453 0.55682 0.0
H1386 H 0.98275 0.7397 0.58047 0.0
H1387 H 0.02902 0.7222 0.54517 0.0
H1388 H 0.04914 0.69405 0.66215 0.0
H1389 H 0.96526 0.68133 0.6328 0.0
H1390 H 0.02952 0.66022 0.63867 0.0
H1391 H 0.98569 0.71442 0.65661 0.0
H1392 H 0.877 0.65439 0.60417 0.0
H1393 H 0.89303 0.62205 0.64981 0.0
H1394 H 0.10296 0.73854 0.58915 0.0
H1395 H 0.05257 0.76276 0.61822 0.0
H1396 H 0.97308 0.56529 0.58864 0.0
H1397 H 0.91726 0.5725 0.6232 0.0
H1398 H 0.95853 0.51858 0.60044 0.0
H1399 H 0.90403 0.52585 0.63459 0.0
H1400 H 0.02884 0.6014 0.57955 0.0
H1401 H 0.0586 0.66761 0.61594 0.0
H1402 H 0.0703 0.59695 0.58517 0.0
H1403 H 0.09923 0.66157 0.6212 0.0
H1404 H 0.03425 0.61437 0.53434 0.0
H1405 H 0.95038 0.54571 0.54033 0.0
H1406 H 0.97546 0.58264 0.67017 0.0
H1407 H 0.01843 0.55528 0.63666 0.0
Li1408 Li 0.37313 0.38022 0.60831 0.0
Li1409 Li 0.37512 0.36728 0.57922 0.0
Li1410 Li 0.33108 0.35008 0.59429 0.0
Li1411 Li 0.35974 0.33108 0.60355 0.0
C1412 C 0.36299 0.41506 0.58814 0.0
N1413 N 0.37256 0.46894 0.58865 0.0
C1414 C 0.38462 0.43582 0.57859 0.0
C1415 C 0.3461 0.42171 0.59783 0.0
C1416 C 0.38915 0.46293 0.57904 0.0
C1417 C 0.35131 0.44907 0.59795 0.0
C1418 C 0.42172 0.38319 0.60614 0.0
C1419 C 0.45529 0.39428 0.62834 0.0
N1420 N 0.47136 0.41999 0.62151 0.0
C1421 C 0.43863 0.40969 0.59931 0.0
C1422 C 0.43016 0.37536 0.62073 0.0
C1423 C 0.46364 0.42799 0.60726 0.0
C1424 C 0.38949 0.39982 0.64126 0.0
N1425 N 0.39143 0.40847 0.62501 0.0
C1426 C 0.42358 0.45526 0.63293 0.0
C1427 C 0.40793 0.43564 0.62073 0.0
C1428 C 0.42261 0.44684 0.64972 0.0
C1429 C 0.40491 0.41878 0.65391 0.0
H1430 H 0.37677 0.37799 0.6443 0.0
H1431 H 0.41015 0.44202 0.60775 0.0
C1432 C 0.38461 0.39117 0.54693 0.0
N1433 N 0.39517 0.38136 0.55881 0.0
C1434 C 0.40167 0.40852 0.53406 0.0
C1435 C 0.43954 0.4038 0.54531 0.0
C1436 C 0.42167 0.38627 0.55783 0.0
C1437 C 0.42981 0.41596 0.53363 0.0
H1438 H 0.36364 0.38745 0.54825 0.0
H1439 H 0.42951 0.37824 0.56748 0.0
C1440 C 0.32135 0.34076 0.62876 0.0
N1441 N 0.27912 0.32892 0.65147 0.0
C1442 C 0.30548 0.31389 0.63531 0.0
C1443 C 0.31613 0.36172 0.63401 0.0
C1444 C 0.28412 0.30829 0.64672 0.0
C1445 C 0.29457 0.35529 0.64543 0.0
C1446 C 0.31849 0.3106 0.57267 0.0
C1447 C 0.29985 0.28458 0.5795 0.0
C1448 C 0.31139 0.31966 0.55805 0.0
C1449 C 0.27427 0.26806 0.5716 0.0
C1450 C 0.2856 0.30254 0.55054 0.0
N1451 N 0.26773 0.27732 0.55741 0.0
C1452 C 0.28798 0.36004 0.58431 0.0
C1453 C 0.27293 0.31868 0.60007 0.0
C1454 C 0.26189 0.35774 0.58592 0.0
N1455 N 0.29336 0.34143 0.59211 0.0
C1456 C 0.24662 0.3156 0.60207 0.0
C1457 C 0.24122 0.33601 0.59561 0.0
H1458 H 0.30438 0.37752 0.57762 0.0
H1459 H 0.27748 0.30372 0.60573 0.0
C1460 C 0.36549 0.30345 0.63067 0.0
N1461 N 0.36007 0.3005 0.61388 0.0
C1462 C 0.36376 0.28145 0.6401 0.0
C1463 C 0.3508 0.25359 0.61475 0.0
C1464 C 0.35314 0.27636 0.60574 0.0
C1465 C 0.35597 0.256 0.63219 0.0
H1466 H 0.37038 0.32274 0.63684 0.0
H1467 H 0.34876 0.27456 0.59238 0.0
O1468 O 0.35801 0.38829 0.58768 0.0
O1469 O 0.39679 0.36526 0.59878 0.0
O1470 O 0.34215 0.34654 0.61745 0.0
O1471 O 0.34339 0.32731 0.5804 0.0
H1472 H 0.39818 0.43126 0.57119 0.0
H1473 H 0.329 0.4059 0.60507 0.0
H1474 H 0.40594 0.47922 0.57182 0.0
H1475 H 0.33841 0.45448 0.60542 0.0
H1476 H 0.46199 0.38853 0.63968 0.0
H1477 H 0.43221 0.41634 0.58821 0.0
H1478 H 0.4174 0.35495 0.62617 0.0
H1479 H 0.47679 0.44864 0.6022 0.0
H1480 H 0.43684 0.47674 0.62917 0.0
H1481 H 0.40385 0.41137 0.66668 0.0
H1482 H 0.39349 0.4177 0.52537 0.0
H1483 H 0.46108 0.40888 0.54525 0.0
H1484 H 0.30932 0.29744 0.63142 0.0
H1485 H 0.32867 0.38274 0.6294 0.0
H1486 H 0.27148 0.28753 0.65176 0.0
H1487 H 0.29018 0.37128 0.64952 0.0
H1488 H 0.30486 0.27741 0.59094 0.0
H1489 H 0.32554 0.33978 0.55266 0.0
H1490 H 0.25956 0.24795 0.5768 0.0
H1491 H 0.27977 0.30934 0.53926 0.0
H1492 H 0.2584 0.37358 0.58039 0.0
H1493 H 0.23144 0.29852 0.60968 0.0
H1494 H 0.36749 0.284 0.65355 0.0
H1495 H 0.34482 0.23429 0.60822 0.0
Li1496 Li 0.64037 0.99273 0.59907 0.0
Li1497 Li 0.62161 0.01399 0.61692 0.0
Li1498 Li 0.62697 0.02381 0.58663 0.0
Li1499 Li 0.66917 0.04126 0.60641 0.0
C1500 C 0.58011 0.96604 0.59216 0.0
N1501 N 0.53286 0.92026 0.57981 0.0
C1502 C 0.5592 0.94793 0.6032 0.0
C1503 C 0.57686 0.96093 0.57482 0.0
C1504 C 0.53552 0.92487 0.59671 0.0
C1505 C 0.55285 0.93768 0.56883 0.0
C1506 C 0.64868 0.98967 0.63371 0.0
C1507 C 0.66407 0.97358 0.65737 0.0
N1508 N 0.63913 0.94955 0.65757 0.0
C1509 C 0.62319 0.96485 0.63419 0.0
C1510 C 0.66931 0.99411 0.64539 0.0
C1511 C 0.61877 0.9448 0.64633 0.0
C1512 C 0.66755 0.96272 0.60217 0.0
N1513 N 0.64307 0.95992 0.59677 0.0
C1514 C 0.62317 0.91066 0.59462 0.0
C1515 C 0.6213 0.93464 0.59251 0.0
C1516 C 0.64767 0.91285 0.60113 0.0
C1517 C 0.67039 0.93938 0.60436 0.0
H1518 H 0.68433 0.983 0.60578 0.0
H1519 H 0.60199 0.93273 0.58835 0.0
C1520 C 0.57219 0.00534 0.63074 0.0
N1521 N 0.59766 0.00967 0.6351 0.0
C1522 C 0.55358 0.00354 0.64311 0.0
C1523 C 0.58775 0.01058 0.66432 0.0
C1524 C 0.60576 0.01225 0.65148 0.0
C1525 C 0.56136 0.0064 0.66015 0.0
H1526 H 0.56651 0.00368 0.61758 0.0
H1527 H 0.62639 0.01623 0.65456 0.0
C1528 C 0.67502 0.01256 0.57368 0.0
N1529 N 0.6984 0.98744 0.55504 0.0
C1530 C 0.70272 0.01983 0.57627 0.0
C1531 C 0.65935 0.99284 0.56142 0.0
C1532 C 0.71413 0.00681 0.56677 0.0
C1533 C 0.6715 0.98028 0.55218 0.0
C1534 C 0.63227 0.06557 0.61685 0.0
C1535 C 0.61116 0.0714 0.613 0.0
C1536 C 0.64556 0.07344 0.63248 0.0
C1537 C 0.60351 0.0848 0.62496 0.0
C1538 C 0.63731 0.08681 0.64409 0.0
N1539 N 0.61661 0.09214 0.64013 0.0
C1540 C 0.58319 0.02581 0.57207 0.0
C1541 C 0.61778 0.03243 0.55211 0.0
C1542 C 0.56539 0.02444 0.55929 0.0
N1543 N 0.60862 0.02941 0.56829 0.0
C1544 C 0.60053 0.03107 0.53886 0.0
C1545 C 0.57374 0.02652 0.54239 0.0
H1546 H 0.57615 0.02248 0.58502 0.0
H1547 H 0.6379 0.03465 0.54948 0.0
C1548 C 0.72172 0.05902 0.6189 0.0
N1549 N 0.70516 0.06884 0.6133 0.0
C1550 C 0.74605 0.07636 0.62769 0.0
C1551 C 0.73638 0.11398 0.62429 0.0
C1552 C 0.71226 0.09589 0.61541 0.0
C1553 C 0.75318 0.104 0.63102 0.0
H1554 H 0.71526 0.03727 0.61726 0.0
H1555 H 0.69838 0.10298 0.6111 0.0
O1556 O 0.60327 0.98892 0.59832 0.0
O1557 O 0.65378 0.00934 0.62167 0.0
O1558 O 0.66334 0.02469 0.5831 0.0
O1559 O 0.63948 0.05167 0.60554 0.0
H1560 H 0.56119 0.9516 0.61664 0.0
H1561 H 0.59266 0.97468 0.56606 0.0
H1562 H 0.51922 0.91066 0.60512 0.0
H1563 H 0.55011 0.93349 0.55545 0.0
H1564 H 0.67986 0.97673 0.66648 0.0
H1565 H 0.60711 0.96099 0.62519 0.0
H1566 H 0.68918 0.01321 0.64519 0.0
H1567 H 0.59918 0.92545 0.64678 0.0
H1568 H 0.60524 0.89054 0.59193 0.0
H1569 H 0.68949 0.94195 0.60968 0.0
H1570 H 0.53329 -0.00012 0.63936 0.0
H1571 H 0.59462 0.01317 0.6773 0.0
H1572 H 0.71525 0.03527 0.58556 0.0
H1573 H 0.63799 0.98716 0.55914 0.0
H1574 H 0.7355 0.01211 0.56872 0.0
H1575 H 0.65953 0.96483 0.54274 0.0
H1576 H 0.60074 0.06558 0.60095 0.0
H1577 H 0.66166 0.06872 0.63575 0.0
H1578 H 0.58712 0.08933 0.62219 0.0
H1579 H 0.64725 0.09279 0.65628 0.0
H1580 H 0.54475 0.02033 0.56258 0.0
H1581 H 0.60778 0.03286 0.526 0.0
H1582 H 0.7586 0.0679 0.63237 0.0
H1583 H 0.74091 0.13504 0.62668 0.0
C1584 C 0.46499 0.99045 0.03082 0.0
C1585 C 0.46771 0.01686 0.03249 0.0
C1586 C 0.48298 0.98628 0.02039 0.0
C1587 C 0.50434 0.0091 0.01148 0.0
C1588 C 0.50776 0.03596 0.01351 0.0
C1589 C 0.48937 0.03951 0.02396 0.0
C1590 C 0.47876 0.95733 0.01863 0.0
C1591 C 0.53041 0.06082 0.0043 0.0
C1592 C 0.56377 0.00025 0.99541 0.0
C1593 C 0.55624 0.99289 0.97852 0.0
C1594 C 0.54742 0.00621 0.00617 0.0
C1595 C 0.52286 0.00467 -8e-05 0.0
C1596 C 0.51548 0.99792 0.98277 0.0
C1597 C 0.53236 0.99222 0.97223 0.0
C1598 C 0.55618 0.01367 0.02431 0.0
C1599 C 0.48937 0.99599 0.97567 0.0
H1600 H 0.44853 0.97292 0.03754 0.0
H1601 H 0.49138 0.0599 0.02498 0.0
H1602 H 0.4742 0.95054 0.0053 0.0
H1603 H 0.49806 0.95729 0.02216 0.0
H1604 H 0.46144 0.94191 0.02662 0.0
H1605 H 0.53114 0.08051 0.00788 0.0
H1606 H 0.55095 0.06287 0.00698 0.0
H1607 H 0.52699 0.05785 0.99051 0.0
H1608 H 0.58252 0.00128 0.00023 0.0
H1609 H 0.52646 0.98645 0.9592 0.0
H1610 H 0.54029 0.9977 0.03278 0.0
H1611 H 0.55765 0.03382 0.02747 0.0
H1612 H 0.57653 0.01521 0.02699 0.0
H1613 H 0.47091 0.97924 0.98223 0.0
H1614 H 0.48713 0.99153 0.96193 0.0
H1615 H 0.48939 0.01572 0.97787 0.0
C1616 C 0.00959 0.47739 0.03883 0.0
C1617 C 0.98587 0.45115 0.03669 0.0
C1618 C 0.01517 0.49953 0.02794 0.0
C1619 C 0.99656 0.49535 0.01461 0.0
C1620 C 0.97234 0.46905 0.01255 0.0
C1621 C 0.96731 0.44726 0.0236 0.0
C1622 C 0.04113 0.52733 0.0306 0.0
C1623 C 0.95199 0.46381 0.99849 0.0
C1624 C 0.99892 0.55944 0.99598 0.0
C1625 C 0.01503 0.56403 0.98142 0.0
C1626 C 0.99248 0.53699 0.00676 0.0
C1627 C 0.00237 0.51861 0.0029 0.0
C1628 C 0.01822 0.52277 0.98807 0.0
C1629 C 0.0243 0.54542 0.97746 0.0
C1630 C 0.97532 0.53313 0.02237 0.0
C1631 C 0.02913 0.50357 0.98356 0.0
H1632 H 0.02391 0.48056 0.04899 0.0
H1633 H 0.94921 0.4269 0.02167 0.0
H1634 H 0.05447 0.53317 0.01919 0.0
H1635 H 0.03554 0.5437 0.03259 0.0
H1636 H 0.05343 0.52718 0.04159 0.0
H1637 H 0.93383 0.44236 0.99885 0.0
H1638 H 0.94434 0.4788 0.99931 0.0
H1639 H 0.96253 0.46713 0.98613 0.0
H1640 H 0.99122 0.57345 0.99893 0.0
H1641 H 0.03685 0.54895 0.96627 0.0
H1642 H 0.98747 0.53447 0.03377 0.0
H1643 H 0.95649 0.51216 0.02234 0.0
H1644 H 0.96873 0.54895 0.02336 0.0
H1645 H 0.04341 0.50427 0.99356 0.0
H1646 H 0.04046 0.5092 0.97135 0.0
H1647 H 0.01172 0.4818 0.98281 0.0
C1648 C 0.45685 0.47215 0.96992 0.0
C1649 C 0.44239 0.44308 0.97136 0.0
C1650 C 0.47862 0.48873 0.981 0.0
C1651 C 0.48596 0.47589 0.99388 0.0
C1652 C 0.47155 0.44656 0.99533 0.0
C1653 C 0.44996 0.43053 0.98406 0.0
C1654 C 0.49366 0.51996 0.97901 0.0
C1655 C 0.47867 0.43212 0.00893 0.0
C1656 C 0.5576 0.51678 0.01358 0.0
C1657 C 0.55185 0.52657 0.02848 0.0
C1658 C 0.53635 0.50018 0.00225 0.0
C1659 C 0.50865 0.49314 0.0059 0.0
C1660 C 0.50262 0.5026 0.02103 0.0
C1661 C 0.52432 0.51926 0.03212 0.0
C1662 C 0.5436 0.49056 0.98622 0.0
C1663 C 0.47329 0.49533 0.02542 0.0
H1664 H 0.4512 0.48194 0.96007 0.0
H1665 H 0.43853 0.40809 0.98545 0.0
H1666 H 0.49141 0.52967 0.99067 0.0
H1667 H 0.51621 0.52801 0.97709 0.0
H1668 H 0.48568 0.52666 0.96821 0.0
H1669 H 0.4657 0.40911 0.0082 0.0
H1670 H 0.50086 0.43797 0.00793 0.0
H1671 H 0.47571 0.43893 0.02152 0.0
H1672 H 0.5789 0.52276 0.01054 0.0
H1673 H 0.51974 0.52661 0.04367 0.0
H1674 H 0.5378 0.49875 0.97513 0.0
H1675 H 0.53158 0.46752 0.98545 0.0
H1676 H 0.5661 0.49748 0.98538 0.0
H1677 H 0.46505 0.50346 0.01557 0.0
H1678 H 0.47204 0.50398 0.03779 0.0
H1679 H 0.45957 0.4724 0.02577 0.0
C1680 C 0.11437 0.32953 0.35111 0.0
C1681 C 0.12698 0.34604 0.36535 0.0
C1682 C 0.12969 0.32323 0.33971 0.0
C1683 C 0.15833 0.33362 0.34263 0.0
C1684 C 0.17129 0.35061 0.35687 0.0
C1685 C 0.15546 0.35674 0.36804 0.0
C1686 C 0.11519 0.3053 0.32459 0.0
C1687 C 0.20178 0.36194 0.36044 0.0
C1688 C 0.1922 0.2952 0.32356 0.0
C1689 C 0.2069 0.31242 0.30991 0.0
C1690 C 0.17612 0.30174 0.3342 0.0
C1691 C 0.17454 0.32601 0.33106 0.0
C1692 C 0.18864 0.34305 0.31702 0.0
C1693 C 0.2047 0.33607 0.30661 0.0
C1694 C 0.16125 0.28294 0.34898 0.0
C1695 C 0.18729 0.369 0.31322 0.0
H1696 H 0.09246 0.32172 0.3488 0.0
H1697 H 0.16523 0.36949 0.37904 0.0
H1698 H 0.12578 0.31638 0.31283 0.0
H1699 H 0.11633 0.28593 0.32511 0.0
H1700 H 0.09298 0.29958 0.32387 0.0
H1701 H 0.20884 0.37534 0.37183 0.0
H1702 H 0.20587 0.3445 0.36229 0.0
H1703 H 0.21444 0.37426 0.34951 0.0
H1704 H 0.19349 0.27668 0.32603 0.0
H1705 H 0.21626 0.34965 0.29621 0.0
H1706 H 0.13864 0.27544 0.34825 0.0
H1707 H 0.16895 0.29475 0.36092 0.0
H1708 H 0.16426 0.26463 0.34952 0.0
H1709 H 0.16532 0.36387 0.3121 0.0
H1710 H 0.19841 0.37933 0.30139 0.0
H1711 H 0.19665 0.38399 0.32376 0.0
C1712 C 0.67272 0.77866 0.34239 0.0
C1713 C 0.66523 0.77923 0.3592 0.0
C1714 C 0.67789 0.80032 0.33122 0.0
C1715 C 0.67581 0.82327 0.33705 0.0
C1716 C 0.66814 0.82394 0.35402 0.0
C1717 C 0.66271 0.80176 0.36488 0.0
C1718 C 0.68558 0.79861 0.31317 0.0
C1719 C 0.66601 0.84824 0.36073 0.0
C1720 C 0.71528 0.89138 0.31302 0.0
C1721 C 0.69395 0.89192 0.30385 0.0
C1722 C 0.70965 0.8692 0.32388 0.0
C1723 C 0.68208 0.84676 0.32544 0.0
C1724 C 0.66057 0.84675 0.31589 0.0
C1725 C 0.66673 0.86939 0.30529 0.0
C1726 C 0.73315 0.86997 0.33387 0.0
C1727 C 0.63096 0.82304 0.31708 0.0
H1728 H 0.6742 0.76101 0.33789 0.0
H1729 H 0.65699 0.80224 0.37789 0.0
H1730 H 0.67066 0.79997 0.30448 0.0
H1731 H 0.70649 0.81644 0.31028 0.0
H1732 H 0.68569 0.77902 0.31055 0.0
H1733 H 0.6597 0.84552 0.3742 0.0
H1734 H 0.68636 0.86766 0.35941 0.0
H1735 H 0.65067 0.85097 0.35327 0.0
H1736 H 0.73643 0.90849 0.31183 0.0
H1737 H 0.65002 0.86979 0.2985 0.0
H1738 H 0.73509 0.85151 0.33087 0.0
H1739 H 0.72864 0.86913 0.34755 0.0
H1740 H 0.7534 0.889 0.33128 0.0
H1741 H 0.63008 0.80306 0.31419 0.0
H1742 H 0.61685 0.82567 0.30832 0.0
H1743 H 0.62311 0.82147 0.33012 0.0
C1744 C 0.12281 0.81208 0.30537 0.0
C1745 C 0.10709 0.78312 0.30717 0.0
C1746 C 0.14435 0.82824 0.31669 0.0
C1747 C 0.14996 0.81512 0.33023 0.0
C1748 C 0.13388 0.78591 0.33221 0.0
C1749 C 0.11271 0.77025 0.3206 0.0
C1750 C 0.16125 0.85932 0.31408 0.0
C1751 C 0.13898 0.7712 0.34659 0.0
C1752 C 0.22183 0.8532 0.34983 0.0
C1753 C 0.21732 0.86552 0.36399 0.0
C1754 C 0.20004 0.83655 0.33883 0.0
C1755 C 0.17301 0.83192 0.34214 0.0
C1756 C 0.16815 0.84372 0.35665 0.0
C1757 C 0.19042 0.86054 0.36736 0.0
C1758 C 0.20608 0.8245 0.32342 0.0
C1759 C 0.13952 0.83892 0.36072 0.0
H1760 H 0.11849 0.82202 0.29497 0.0
H1761 H 0.10021 0.74789 0.32219 0.0
H1762 H 0.15984 0.87026 0.3254 0.0
H1763 H 0.18348 0.86574 0.31233 0.0
H1764 H 0.15421 0.8663 0.30295 0.0
H1765 H 0.12418 0.74842 0.34656 0.0
H1766 H 0.16045 0.77473 0.34583 0.0
H1767 H 0.13709 0.77985 0.3588 0.0
H1768 H 0.24268 0.85738 0.34702 0.0
H1769 H 0.18685 0.86992 0.37835 0.0
H1770 H 0.20136 0.83264 0.31187 0.0
H1771 H 0.19255 0.80155 0.32331 0.0
H1772 H 0.22812 0.82959 0.32286 0.0
H1773 H 0.13248 0.84765 0.35054 0.0
H1774 H 0.13901 0.84862 0.37285 0.0
H1775 H 0.12441 0.81628 0.36139 0.0
C1776 C 0.84396 0.62417 0.64967 0.0
C1777 C 0.86176 0.64357 0.6377 0.0
C1778 C 0.82706 0.62995 0.66007 0.0
C1779 C 0.82782 0.65571 0.65841 0.0
C1780 C 0.84503 0.67501 0.64599 0.0
C1781 C 0.86184 0.66874 0.6358 0.0
C1782 C 0.80886 0.60875 0.6731 0.0
C1783 C 0.84626 0.70262 0.64378 0.0
C1784 C 0.76743 0.66086 0.67675 0.0
C1785 C 0.7784 0.67416 0.69218 0.0
C1786 C 0.78338 0.65502 0.66555 0.0
C1787 C 0.81096 0.66259 0.66991 0.0
C1788 C 0.82226 0.67627 0.68541 0.0
C1789 C 0.80586 0.68201 0.69634 0.0
C1790 C 0.77068 0.64068 0.64908 0.0
C1791 C 0.85156 0.68453 0.69052 0.0
H1792 H 0.84351 0.60452 0.65105 0.0
H1793 H 0.87578 0.68399 0.62674 0.0
H1794 H 0.8151 0.61777 0.6859 0.0
H1795 H 0.78686 0.60317 0.6713 0.0
H1796 H 0.81017 0.58945 0.6725 0.0
H1797 H 0.85958 0.7147 0.63297 0.0
H1798 H 0.82506 0.69935 0.64179 0.0
H1799 H 0.85459 0.71522 0.65539 0.0
H1800 H 0.74637 0.65526 0.67333 0.0
H1801 H 0.81436 0.69222 0.70827 0.0
H1802 H 0.77033 0.62055 0.64844 0.0
H1803 H 0.78352 0.65359 0.63838 0.0
H1804 H 0.74912 0.63666 0.64745 0.0
H1805 H 0.85376 0.66577 0.69134 0.0
H1806 H 0.85738 0.69538 0.70286 0.0
H1807 H 0.86649 0.69841 0.68083 0.0
C1808 C 0.37197 0.23505 0.65433 0.0
C1809 C 0.35203 0.23188 0.64237 0.0
C1810 C 0.36771 0.21287 0.66481 0.0
C1811 C 0.34274 0.18702 0.66342 0.0
C1812 C 0.32265 0.18362 0.65126 0.0
C1813 C 0.32761 0.20607 0.6408 0.0
C1814 C 0.38983 0.21716 0.67743 0.0
C1815 C 0.29566 0.15645 0.64951 0.0
C1816 C 0.34028 0.12178 0.6802 0.0
C1817 C 0.32734 0.11838 0.69594 0.0
C1818 C 0.34571 0.14418 0.66961 0.0
C1819 C 0.33764 0.16351 0.67472 0.0
C1820 C 0.32452 0.16025 0.69054 0.0
C1821 C 0.31965 0.13781 0.701 0.0
C1822 C 0.3599 0.14703 0.65288 0.0
C1823 C 0.31547 0.18039 0.69637 0.0
H1824 H 0.39095 0.25495 0.65547 0.0
H1825 H 0.31201 0.20368 0.63171 0.0
H1826 H 0.38123 0.21385 0.69039 0.0
H1827 H 0.39657 0.20166 0.67533 0.0
H1828 H 0.40833 0.23834 0.67665 0.0
H1829 H 0.28229 0.15715 0.63935 0.0
H1830 H 0.29993 0.13935 0.64675 0.0
H1831 H 0.28396 0.15125 0.66156 0.0
H1832 H 0.34577 0.10659 0.67597 0.0
H1833 H 0.30992 0.13557 0.71318 0.0
H1834 H 0.37897 0.16774 0.65195 0.0
H1835 H 0.34597 0.1456 0.64244 0.0
H1836 H 0.3657 0.13075 0.65102 0.0
H1837 H 0.33369 0.20173 0.697 0.0
H1838 H 0.30532 0.17482 0.70895 0.0
H1839 H 0.30069 0.18086 0.68716 0.0
C1840 C 0.79435 0.14991 0.63926 0.0
C1841 C 0.7767 0.12149 0.6425 0.0
C1842 C 0.816 0.16662 0.65039 0.0
C1843 C 0.82012 0.15461 0.66508 0.0
C1844 C 0.80247 0.12594 0.66838 0.0
C1845 C 0.78094 0.10978 0.6571 0.0
C1846 C 0.83442 0.19715 0.64646 0.0
C1847 C 0.80621 0.11236 0.68389 0.0
C1848 C 0.89109 0.1923 0.68592 0.0
C1849 C 0.88649 0.20618 0.69921 0.0
C1850 C 0.8696 0.17521 0.67484 0.0
C1851 C 0.84288 0.17202 0.67703 0.0
C1852 C 0.83794 0.18557 0.69058 0.0
C1853 C 0.85979 0.20244 0.70153 0.0
C1854 C 0.87565 0.16102 0.66058 0.0
C1855 C 0.80968 0.18259 0.69335 0.0
H1856 H 0.79135 0.15907 0.62796 0.0
H1857 H 0.76706 0.08798 0.65991 0.0
H1858 H 0.83334 0.20988 0.65689 0.0
H1859 H 0.85638 0.20221 0.64542 0.0
H1860 H 0.82845 0.2033 0.63455 0.0
H1861 H 0.79099 0.08971 0.68447 0.0
H1862 H 0.8275 0.11534 0.68411 0.0
H1863 H 0.80382 0.12233 0.69538 0.0
H1864 H 0.91176 0.19548 0.68382 0.0
H1865 H 0.85602 0.2129 0.71185 0.0
H1866 H 0.87229 0.1685 0.64832 0.0
H1867 H 0.86115 0.13824 0.66112 0.0
H1868 H 0.89731 0.16493 0.66093 0.0
H1869 H 0.80373 0.19042 0.68215 0.0
H1870 H 0.80916 0.19418 0.70462 0.0
H1871 H 0.79377 0.16033 0.6949 0.0
C1872 C 0.35226 0.15793 0.12778 0.0
C1873 C 0.35016 0.13328 0.13403 0.0
C1874 C 0.34728 0.1754 0.13818 0.0
C1875 C 0.3398 0.16797 0.15524 0.0
C1876 C 0.33763 0.14314 0.16166 0.0
C1877 C 0.3429 0.12613 0.15099 0.0
C1878 C 0.34992 0.20175 0.13089 0.0
C1879 C 0.32969 0.13452 0.17979 0.0
C1880 C 0.3516 0.22439 0.1866 0.0
C1881 C 0.32482 0.22078 0.18826 0.0
C1882 C 0.35679 0.20756 0.17577 0.0
C1883 C 0.33464 0.18639 0.16644 0.0
C1884 C 0.30759 0.18271 0.16792 0.0
C1885 C 0.30301 0.19998 0.17879 0.0
C1886 C 0.38594 0.2122 0.17451 0.0
C1887 C 0.28344 0.16031 0.15817 0.0
H1888 H 0.35728 0.16335 0.11461 0.0
H1889 H 0.34148 0.10727 0.15597 0.0
H1890 H 0.32983 0.20136 0.13206 0.0
H1891 H 0.36559 0.22004 0.13808 0.0
H1892 H 0.35614 0.20466 0.1174 0.0
H1893 H 0.32851 0.1144 0.18276 0.0
H1894 H 0.3451 0.15072 0.18831 0.0
H1895 H 0.30921 0.13258 0.18256 0.0
H1896 H 0.36848 0.23996 0.19413 0.0
H1897 H 0.28232 0.19718 0.1799 0.0
H1898 H 0.39304 0.21604 0.1612 0.0
H1899 H 0.38619 0.19327 0.17873 0.0
H1900 H 0.40102 0.23007 0.18225 0.0
H1901 H 0.28792 0.1632 0.14446 0.0
H1902 H 0.26375 0.16032 0.16061 0.0
H1903 H 0.28041 0.1396 0.16161 0.0
C1904 C 0.84418 0.21212 0.13727 0.0
C1905 C 0.87267 0.22345 0.14029 0.0
C1906 C 0.82432 0.19042 0.14733 0.0
C1907 C 0.83323 0.18016 0.16087 0.0
C1908 C 0.862 0.19216 0.16428 0.0
C1909 C 0.88138 0.2135 0.15385 0.0
C1910 C 0.79387 0.17792 0.14318 0.0
C1911 C 0.87232 0.18216 0.17879 0.0
C1912 C 0.78285 0.13954 0.19616 0.0
C1913 C 0.776 0.11216 0.1924 0.0
C1914 C 0.80113 0.16184 0.18588 0.0
C1915 C 0.81258 0.15658 0.17136 0.0
C1916 C 0.80515 0.12888 0.16724 0.0
C1917 C 0.78713 0.107 0.17791 0.0
C1918 C 0.80887 0.19109 0.19085 0.0
C1919 C 0.81661 0.12242 0.15172 0.0
H1920 H 0.83746 0.21956 0.12664 0.0
H1921 H 0.90343 0.22235 0.15621 0.0
H1922 H 0.78494 0.15564 0.13991 0.0
H1923 H 0.78233 0.17892 0.15432 0.0
H1924 H 0.79034 0.1887 0.13247 0.0
H1925 H 0.89527 0.19456 0.1802 0.0
H1926 H 0.86254 0.18331 0.19074 0.0
H1927 H 0.86627 0.16006 0.17685 0.0
H1928 H 0.77462 0.14364 0.20751 0.0
H1929 H 0.78175 0.08583 0.17495 0.0
H1930 H 0.80455 0.20155 0.18033 0.0
H1931 H 0.83149 0.20338 0.19348 0.0
H1932 H 0.79738 0.19155 0.2022 0.0
H1933 H 0.81241 0.13147 0.1404 0.0
H1934 H 0.80751 0.09969 0.14977 0.0
H1935 H 0.8395 0.13203 0.15282 0.0
C1936 C 0.85342 0.64821 0.20091 0.0
C1937 C 0.88108 0.66751 0.19683 0.0
C1938 C 0.83183 0.64219 0.18954 0.0
C1939 C 0.83805 0.65619 0.17385 0.0
C1940 C 0.866 0.67571 0.16967 0.0
C1941 C 0.88726 0.68093 0.18117 0.0
C1942 C 0.8024 0.62083 0.19431 0.0
C1943 C 0.87337 0.69134 0.15315 0.0
C1944 C 0.78718 0.62573 0.13748 0.0
C1945 C 0.77353 0.64115 0.13828 0.0
C1946 C 0.8078 0.62996 0.14921 0.0
C1947 C 0.81529 0.65051 0.16183 0.0
C1948 C 0.8013 0.66591 0.16281 0.0
C1949 C 0.78038 0.66086 0.15109 0.0
C1950 C 0.82182 0.61271 0.14798 0.0
C1951 C 0.80898 0.68826 0.17593 0.0
H1952 H 0.84875 0.63759 0.21298 0.0
H1953 H 0.90867 0.69592 0.17809 0.0
H1954 H 0.78924 0.63063 0.19463 0.0
H1955 H 0.79345 0.60412 0.18469 0.0
H1956 H 0.80121 0.61124 0.20681 0.0
H1957 H 0.89605 0.70605 0.15191 0.0
H1958 H 0.86657 0.67648 0.14248 0.0
H1959 H 0.86225 0.70321 0.15202 0.0
H1960 H 0.78176 0.61041 0.12758 0.0
H1961 H 0.77005 0.67303 0.15156 0.0
H1962 H 0.82018 0.60223 0.16019 0.0
H1963 H 0.84427 0.62638 0.14525 0.0
H1964 H 0.81263 0.59666 0.13796 0.0
H1965 H 0.80674 0.67936 0.18874 0.0
H1966 H 0.7959 0.69816 0.1751 0.0
H1967 H 0.83109 0.7046 0.17437 0.0
C1968 C 0.64897 0.8772 0.84536 0.0
C1969 C 0.66836 0.89267 0.85787 0.0
C1970 C 0.65326 0.85958 0.83463 0.0
C1971 C 0.67719 0.85698 0.83675 0.0
C1972 C 0.69698 0.87284 0.84924 0.0
C1973 C 0.69241 0.89065 0.85957 0.0
C1974 C 0.63195 0.84338 0.82123 0.0
C1975 C 0.72247 0.87028 0.8521 0.0
C1976 C 0.67097 0.78944 0.82123 0.0
C1977 C 0.68546 0.79775 0.80593 0.0
C1978 C 0.66882 0.80871 0.83162 0.0
C1979 C 0.68093 0.8368 0.82636 0.0
C1980 C 0.69602 0.84538 0.81103 0.0
C1981 C 0.69832 0.82575 0.80106 0.0
C1982 C 0.6531 0.79889 0.84805 0.0
C1983 C 0.70883 0.87502 0.80488 0.0
H1984 H 0.63042 0.87883 0.84402 0.0
H1985 H 0.70721 0.90228 0.86943 0.0
H1986 H 0.64219 0.84705 0.80874 0.0
H1987 H 0.622 0.82078 0.82392 0.0
H1988 H 0.61547 0.84911 0.82051 0.0
H1989 H 0.73633 0.8848 0.86194 0.0
H1990 H 0.7161 0.8487 0.85601 0.0
H1991 H 0.73448 0.87447 0.84022 0.0
H1992 H 0.66104 0.76775 0.82495 0.0
H1993 H 0.70915 0.83204 0.78908 0.0
H1994 H 0.63438 0.80117 0.84763 0.0
H1995 H 0.66624 0.8119 0.85861 0.0
H1996 H 0.64642 0.77678 0.85078 0.0
H1997 H 0.69226 0.8803 0.80276 0.0
H1998 H 0.72062 0.87851 0.79295 0.0
H1999 H 0.72306 0.88957 0.81455 0.0
C2000 C 0.10781 0.80014 0.85793 0.0
C2001 C 0.11397 0.77872 0.86026 0.0
C2002 C 0.12436 0.82306 0.84757 0.0
C2003 C 0.14785 0.8248 0.83943 0.0
C2004 C 0.15423 0.80329 0.8417 0.0
C2005 C 0.13718 0.78048 0.85206 0.0
C2006 C 0.11683 0.84552 0.84543 0.0
C2007 C 0.17913 0.80446 0.83322 0.0
C2008 C 0.17662 0.87106 0.80082 0.0
C2009 C 0.19935 0.89505 0.80753 0.0
C2010 C 0.15963 0.84814 0.81107 0.0
C2011 C 0.16562 0.84908 0.82846 0.0
C2012 C 0.18844 0.87322 0.83536 0.0
C2013 C 0.20501 0.89595 0.82482 0.0
C2014 C 0.13544 0.82281 0.80325 0.0
C2015 C 0.19546 0.87495 0.85386 0.0
H2016 H 0.09031 0.79932 0.86451 0.0
H2017 H 0.14198 0.76395 0.85372 0.0
H2018 H 0.13413 0.86571 0.84993 0.0
H2019 H 0.11365 0.84809 0.83189 0.0
H2020 H 0.09766 0.84084 0.85245 0.0
H2021 H 0.18132 0.78614 0.83635 0.0
H2022 H 0.17738 0.80548 0.81935 0.0
H2023 H 0.19838 0.82359 0.83711 0.0
H2024 H 0.17246 0.86988 0.78741 0.0
H2025 H 0.22242 0.91445 0.83011 0.0
H2026 H 0.11581 0.81812 0.80966 0.0
H2027 H 0.13811 0.80445 0.80496 0.0
H2028 H 0.13332 0.8256 0.78957 0.0
H2029 H 0.17755 0.87209 0.86157 0.0
H2030 H 0.21394 0.89518 0.85724 0.0
H2031 H 0.1996 0.85798 0.85728 0.0
C2032 C 0.21776 0.33715 0.84596 0.0
C2033 C 0.21794 0.34825 0.86186 0.0
C2034 C 0.19824 0.33405 0.83367 0.0
C2035 C 0.17837 0.34215 0.8374 0.0
C2036 C 0.17874 0.3538 0.85331 0.0
C2037 C 0.19855 0.35678 0.86533 0.0
C2038 C 0.19857 0.32165 0.8168 0.0
C2039 C 0.15796 0.36279 0.85773 0.0
C2040 C 0.14251 0.35588 0.80102 0.0
C2041 C 0.11697 0.3309 0.80027 0.0
C2042 C 0.16266 0.35981 0.81303 0.0
C2043 C 0.1571 0.33832 0.82467 0.0
C2044 C 0.13125 0.31318 0.82415 0.0
C2045 C 0.11149 0.30976 0.81193 0.0
C2046 C 0.18995 0.38693 0.81321 0.0
C2047 C 0.12455 0.28982 0.8364 0.0
H2048 H 0.2324 0.33015 0.84326 0.0
H2049 H 0.19881 0.36572 0.87751 0.0
H2050 H 0.17861 0.30205 0.81485 0.0
H2051 H 0.20064 0.33612 0.80651 0.0
H2052 H 0.21584 0.31711 0.81573 0.0
H2053 H 0.16125 0.37176 0.8706 0.0
H2054 H 0.15938 0.37852 0.84854 0.0
H2055 H 0.13655 0.34472 0.85697 0.0
H2056 H 0.14672 0.37252 0.79225 0.0
H2057 H 0.09193 0.29031 0.81133 0.0
H2058 H 0.20742 0.3829 0.81134 0.0
H2059 H 0.19303 0.39717 0.82564 0.0
H2060 H 0.19104 0.40154 0.80326 0.0
H2061 H 0.13986 0.28268 0.83501 0.0
H2062 H 0.10336 0.27176 0.83449 0.0
H2063 H 0.12616 0.29735 0.84953 0.0
C2064 C 0.03595 0.49621 0.46951 0.0
C2065 C 0.02326 0.46812 0.47419 0.0
C2066 C 0.0323 0.51529 0.47921 0.0
C2067 C 0.01591 0.50607 0.49403 0.0
C2068 C 0.00387 0.47791 0.49911 0.0
C2069 C 0.00751 0.45922 0.48904 0.0
C2070 C 0.04521 0.54507 0.4733 0.0
C2071 C 0.9867 0.4674 0.515 0.0
C2072 C 0.0235 0.55888 0.52703 0.0
C2073 C -0.00041 0.56081 0.52422 0.0
C2074 C 0.02924 0.54139 0.51718 0.0
C2075 C 0.01078 0.52568 0.50408 0.0
C2076 C 0.98692 0.52801 0.50094 0.0
C2077 C 0.98147 0.54538 0.51116 0.0
C2078 C 0.05464 0.53914 0.5211 0.0
C2079 C 0.96696 0.51187 0.48693 0.0
H2080 H 0.04781 0.50302 0.4579 0.0
H2081 H 0.99779 0.4375 0.49268 0.0
H2082 H 0.02861 0.55008 0.47055 0.0
H2083 H 0.05843 0.55944 0.48337 0.0
H2084 H 0.05808 0.5491 0.46179 0.0
H2085 H 0.98003 0.44527 0.51763 0.0
H2086 H 0.99876 0.48014 0.52594 0.0
H2087 H 0.9679 0.46944 0.51388 0.0
H2088 H 0.03732 0.57044 0.53731 0.0
H2089 H 0.96304 0.54694 0.50895 0.0
H2090 H 0.06788 0.544 0.50971 0.0
H2091 H 0.04821 0.51749 0.52487 0.0
H2092 H 0.06732 0.55337 0.53141 0.0
H2093 H 0.97831 0.5162 0.47478 0.0
H2094 H 0.95017 0.51707 0.48559 0.0
H2095 H 0.9573 0.48923 0.48939 0.0
C2096 C 0.51729 0.55388 0.4791 0.0
C2097 C 0.54025 0.55472 0.47119 0.0
C2098 C 0.49934 0.53115 0.48927 0.0
C2099 C 0.5042 0.50857 0.49124 0.0
C2100 C 0.52726 0.50928 0.48316 0.0
C2101 C 0.54512 0.53245 0.47334 0.0
C2102 C 0.47523 0.53134 0.49793 0.0
C2103 C 0.53289 0.48543 0.48472 0.0
C2104 C 0.47361 0.46107 0.5292 0.0
C2105 C 0.44949 0.4387 0.52241 0.0
C2106 C 0.49153 0.48397 0.51921 0.0
C2107 C 0.48538 0.48432 0.50194 0.0
C2108 C 0.4613 0.46154 0.49492 0.0
C2109 C 0.44347 0.43909 0.5053 0.0
C2110 C 0.51677 0.50801 0.52721 0.0
C2111 C 0.45433 0.46097 0.47649 0.0
H2112 H 0.51355 0.57111 0.47744 0.0
H2113 H 0.56261 0.53287 0.46699 0.0
H2114 H 0.45535 0.51328 0.49372 0.0
H2115 H 0.47664 0.52929 0.51176 0.0
H2116 H 0.47461 0.55069 0.49533 0.0
H2117 H 0.55139 0.489 0.47733 0.0
H2118 H 0.53628 0.48229 0.49813 0.0
H2119 H 0.5146 0.4659 0.48029 0.0
H2120 H 0.47803 0.46105 0.54251 0.0
H2121 H 0.42482 0.42178 0.50006 0.0
H2122 H 0.51577 0.52738 0.52577 0.0
H2123 H 0.53593 0.51143 0.52074 0.0
H2124 H 0.51853 0.50453 0.54083 0.0
H2125 H 0.45114 0.47869 0.47351 0.0
H2126 H 0.43531 0.44134 0.4729 0.0
H2127 H 0.47192 0.46336 0.46862 0.0
C2128 C 0.53621 0.03328 0.52971 0.0
C2129 C 0.55369 0.02186 0.52867 0.0
C2130 C 0.5155 0.02704 0.51762 0.0
C2131 C 0.51217 0.00893 0.50416 0.0
C2132 C 0.53012 0.9978 0.50283 0.0
C2133 C 0.55068 0.00441 0.5151 0.0
C2134 C 0.4969 0.0395 0.51939 0.0
C2135 C 0.52723 0.97844 0.48863 0.0
C2136 C 0.44222 0.97118 0.48196 0.0
C2137 C 0.44759 0.98713 0.46727 0.0
C2138 C 0.46306 0.97806 0.4941 0.0
C2139 C 0.48981 0.0015 0.4915 0.0
C2140 C 0.49523 0.01783 0.47678 0.0
C2141 C 0.47407 0.01047 0.46486 0.0
C2142 C 0.45653 0.96013 0.50965 0.0
C2143 C 0.5234 0.04309 0.4736 0.0
H2144 H 0.53863 0.047 0.54009 0.0
H2145 H 0.56382 0.99517 0.51436 0.0
H2146 H 0.49805 0.05129 0.50783 0.0
H2147 H 0.47497 0.02268 0.52085 0.0
H2148 H 0.50259 0.05367 0.53039 0.0
H2149 H 0.54328 0.9721 0.48918 0.0
H2150 H 0.5064 0.95947 0.48915 0.0
H2151 H 0.52892 0.98863 0.47631 0.0
H2152 H 0.42184 0.95307 0.48383 0.0
H2153 H 0.47817 0.02321 0.45369 0.0
H2154 H 0.46025 0.97294 0.52111 0.0
H2155 H 0.47055 0.95132 0.51032 0.0
H2156 H 0.43466 0.94274 0.50984 0.0
H2157 H 0.5288 0.05821 0.48404 0.0
H2158 H 0.52418 0.05365 0.46155 0.0
H2159 H 0.53957 0.03694 0.47328 0.0
C2160 C 0.19277 0.89744 0.05461 0.0
C2161 C 0.21985 0.90188 0.05282 0.0
C2162 C 0.17022 0.87533 0.04637 0.0
C2163 C 0.17478 0.85688 0.03639 0.0
C2164 C 0.20159 0.85987 0.03565 0.0
C2165 C 0.22384 0.88247 0.04373 0.0
C2166 C 0.14196 0.87291 0.04739 0.0
C2167 C 0.20719 0.8403 0.02539 0.0
C2168 C 0.11407 0.79035 0.01912 0.0
C2169 C 0.11311 0.79798 0.00235 0.0
C2170 C 0.13377 0.80937 0.03049 0.0
C2171 C 0.15258 0.83677 0.02504 0.0
C2172 C 0.15113 0.84486 0.00832 0.0
C2173 C 0.13167 0.82533 0.99716 0.0
C2174 C 0.13496 0.79994 0.04817 0.0
C2175 C 0.17066 0.87402 0.00206 0.0
H2176 H 0.18933 0.91191 0.06194 0.0
H2177 H 0.24461 0.88571 0.04207 0.0
H2178 H 0.13699 0.8789 0.03508 0.0
H2179 H 0.12562 0.85113 0.04999 0.0
H2180 H 0.14107 0.88657 0.05729 0.0
H2181 H 0.22802 0.84299 0.02805 0.0
H2182 H 0.1912 0.81836 0.02795 0.0
H2183 H 0.20611 0.84423 0.01177 0.0
H2184 H 0.09958 0.76943 0.02336 0.0
H2185 H 0.13161 0.83138 0.98418 0.0
H2186 H 0.13365 0.81406 0.05752 0.0
H2187 H 0.15518 0.80086 0.05014 0.0
H2188 H 0.11797 0.77836 0.0507 0.0
H2189 H 0.16991 0.88949 0.01056 0.0
H2190 H 0.16554 0.87749 0.98907 0.0
H2191 H 0.19232 0.87801 0.00212 0.0
C2192 C 0.11456 0.33773 0.03383 0.0
C2193 C 0.10134 0.32305 0.04853 0.0
C2194 C 0.13711 0.33648 0.02698 0.0
C2195 C 0.14681 0.32023 0.0351 0.0
C2196 C 0.13466 0.3067 0.05051 0.0
C2197 C 0.11196 0.30824 0.05706 0.0
C2198 C 0.14959 0.35138 0.01056 0.0
C2199 C 0.14466 0.28946 0.0596 0.0
C2200 C 0.17802 0.29256 0.00371 0.0
C2201 C 0.20628 0.31268 0.00461 0.0
C2202 C 0.15859 0.29367 0.01444 0.0
C2203 C 0.16769 0.31541 0.0264 0.0
C2204 C 0.19645 0.33452 0.02825 0.0
C2205 C 0.21546 0.33297 0.01727 0.0
C2206 C 0.12812 0.27277 0.01213 0.0
C2207 C 0.20696 0.35777 0.04097 0.0
H2208 H 0.10673 0.34966 0.0274 0.0
H2209 H 0.10174 0.29682 0.06843 0.0
H2210 H 0.17247 0.36465 0.01177 0.0
H2211 H 0.14552 0.33591 0.00052 0.0
H2212 H 0.1409 0.36463 0.0065 0.0
H2213 H 0.13597 0.28381 0.07255 0.0
H2214 H 0.13826 0.27001 0.05247 0.0
H2215 H 0.16769 0.30082 0.06036 0.0
H2216 H 0.17095 0.27655 0.99413 0.0
H2217 H 0.2373 0.34863 0.01797 0.0
H2218 H 0.1174 0.28334 0.00673 0.0
H2219 H 0.1182 0.2638 0.02445 0.0
H2220 H 0.12476 0.25554 0.00358 0.0
H2221 H 0.20221 0.3739 0.03654 0.0
H2222 H 0.22978 0.36771 0.04285 0.0
H2223 H 0.19641 0.34998 0.0533 0.0
C2224 C 0.64224 0.75222 0.03845 0.0
C2225 C 0.65426 0.75748 0.05452 0.0
C2226 C 0.64143 0.77326 0.02917 0.0
C2227 C 0.6527 0.80016 0.03622 0.0
C2228 C 0.66347 0.80523 0.05282 0.0
C2229 C 0.66435 0.78383 0.06174 0.0
C2230 C 0.63006 0.76709 0.01144 0.0
C2231 C 0.67522 0.83354 0.06083 0.0
C2232 C 0.68126 0.85876 0.00431 0.0
C2233 C 0.65906 0.86382 0.00254 0.0
C2234 C 0.67971 0.83861 0.01559 0.0
C2235 C 0.65554 0.82341 0.02555 0.0
C2236 C 0.6335 0.82916 0.02436 0.0
C2237 C 0.63544 0.84918 0.01278 0.0
C2238 C 0.70362 0.83297 0.01643 0.0
C2239 C 0.60754 0.81355 0.03492 0.0
H2240 H 0.63483 0.73201 0.0327 0.0
H2241 H 0.67353 0.78786 0.07421 0.0
H2242 H 0.61443 0.77373 0.0097 0.0
H2243 H 0.64715 0.77905 0.00233 0.0
H2244 H 0.62026 0.74463 0.0083 0.0
H2245 H 0.67961 0.83316 0.07445 0.0
H2246 H 0.69488 0.84844 0.0544 0.0
H2247 H 0.66059 0.84151 0.05934 0.0
H2248 H 0.69983 0.87041 0.99673 0.0
H2249 H 0.61807 0.85276 0.0114 0.0
H2250 H 0.69645 0.81127 0.01243 0.0
H2251 H 0.71117 0.8351 0.02958 0.0
H2252 H 0.72132 0.84728 0.00826 0.0
H2253 H 0.59589 0.79147 0.0309 0.0
H2254 H 0.59361 0.82245 0.03378 0.0
H2255 H 0.61305 0.81381 0.04838 0.0
C2256 C 0.81607 0.10604 0.95474 0.0
C2257 C 0.79333 0.10376 0.94574 0.0
C2258 C 0.83617 0.13156 0.96148 0.0
C2259 C 0.83349 0.15536 0.95903 0.0
C2260 C 0.81226 0.15379 0.94843 0.0
C2261 C 0.79229 0.12789 0.94193 0.0
C2262 C 0.85858 0.13234 0.97261 0.0
C2263 C 0.80906 0.17884 0.94526 0.0
C2264 C 0.85403 0.20212 0.99719 0.0
C2265 C 0.88087 0.22325 0.99291 0.0
C2266 C 0.83817 0.18045 0.98601 0.0
C2267 C 0.84934 0.17994 0.97005 0.0
C2268 C 0.87604 0.20172 0.96537 0.0
C2269 C 0.89164 0.22308 0.97694 0.0
C2270 C 0.80985 0.1575 0.99157 0.0
C2271 C 0.8884 0.20204 0.94837 0.0
H2272 H 0.81723 0.08747 0.95737 0.0
H2273 H 0.77476 0.12626 0.93495 0.0
H2274 H 0.87904 0.1508 0.9697 0.0
H2275 H 0.85369 0.13398 0.98598 0.0
H2276 H 0.86029 0.11335 0.97122 0.0
H2277 H 0.79548 0.1757 0.93424 0.0
H2278 H 0.79958 0.18269 0.95651 0.0
H2279 H 0.82957 0.19772 0.94311 0.0
H2280 H 0.8458 0.20192 0.00962 0.0
H2281 H 0.91232 0.23954 0.97356 0.0
H2282 H 0.80973 0.13747 0.99215 0.0
H2283 H 0.79381 0.155 0.98231 0.0
H2284 H 0.80384 0.16158 0.00415 0.0
H2285 H 0.89346 0.1851 0.94779 0.0
H2286 H 0.90769 0.22211 0.94585 0.0
H2287 H 0.87319 0.19819 0.93821 0.0
C2288 C 0.77848 0.66389 0.9764 0.0
C2289 C 0.78255 0.6597 0.99338 0.0
C2290 C 0.79668 0.66471 0.9638 0.0
C2291 C 0.8196 0.66161 0.96836 0.0
C2292 C 0.82365 0.65715 0.98544 0.0
C2293 C 0.80496 0.65599 0.99767 0.0
C2294 C 0.79158 0.66915 0.94568 0.0
C2295 C 0.84792 0.65383 0.99086 0.0
C2296 C 0.86053 0.64039 0.9402 0.0
C2297 C 0.88547 0.6657 0.93853 0.0
C2298 C 0.83763 0.63909 0.94854 0.0
C2299 C 0.84004 0.66362 0.95557 0.0
C2300 C 0.86435 0.68955 0.95264 0.0
C2301 C 0.88677 0.69029 0.94406 0.0
C2302 C 0.81182 0.61113 0.95108 0.0
C2303 C 0.86785 0.71617 0.96002 0.0
H2304 H 0.76132 0.66694 0.97297 0.0
H2305 H 0.80787 0.65199 0.01067 0.0
H2306 H 0.80902 0.68915 0.94101 0.0
H2307 H 0.79079 0.65243 0.93765 0.0
H2308 H 0.7719 0.6695 0.9441 0.0
H2309 H 0.84823 0.65081 0.00468 0.0
H2310 H 0.84705 0.6357 0.98441 0.0
H2311 H 0.86777 0.67252 0.98717 0.0
H2312 H 0.85944 0.6214 0.93576 0.0
H2313 H 0.90611 0.70988 0.94292 0.0
H2314 H 0.79283 0.61264 0.94923 0.0
H2315 H 0.8114 0.60394 0.96419 0.0
H2316 H 0.81117 0.59521 0.94233 0.0
H2317 H 0.84889 0.71767 0.95805 0.0
H2318 H 0.88591 0.73487 0.95446 0.0
H2319 H 0.87117 0.7163 0.97382 0.0
C2320 C 0.31038 0.18713 0.93058 0.0
C2321 C 0.32918 0.21537 0.93372 0.0
C2322 C 0.31201 0.16617 0.93952 0.0
C2323 C 0.33331 0.17364 0.95159 0.0
C2324 C 0.35378 0.20192 0.95371 0.0
C2325 C 0.3513 0.22243 0.94491 0.0
C2326 C 0.28968 0.13624 0.93699 0.0
C2327 C 0.37715 0.21072 0.96625 0.0
C2328 C 0.32013 0.13163 0.99154 0.0
C2329 C 0.33445 0.11724 0.9884 0.0
C2330 C 0.31854 0.14898 0.97931 0.0
C2331 C 0.33217 0.15263 0.96365 0.0
C2332 C 0.34613 0.13777 0.96018 0.0
C2333 C 0.34687 0.12002 0.97254 0.0
C2334 C 0.3031 0.16421 0.98343 0.0
C2335 C 0.3612 0.14146 0.9437 0.0
H2336 H 0.29356 0.18141 0.92171 0.0
H2337 H 0.36577 0.24407 0.9477 0.0
H2338 H 0.29887 0.12257 0.93607 0.0
H2339 H 0.27552 0.12918 0.94805 0.0
H2340 H 0.27716 0.1335 0.9255 0.0
H2341 H 0.39354 0.23282 0.96454 0.0
H2342 H 0.36875 0.20812 0.97923 0.0
H2343 H 0.38679 0.19748 0.96509 0.0
H2344 H 0.31089 0.13016 0.00379 0.0
H2345 H 0.35754 0.10862 0.96982 0.0
H2346 H 0.28809 0.16106 0.97327 0.0
H2347 H 0.318 0.18688 0.98426 0.0
H2348 H 0.2916 0.15722 0.99555 0.0
H2349 H 0.3473 0.13854 0.93292 0.0
H2350 H 0.36908 0.12669 0.94239 0.0
H2351 H 0.37909 0.16298 0.94287 0.0
C2352 C 0.89502 0.21229 0.38673 0.0
C2353 C 0.89239 0.23611 0.38717 0.0
C2354 C 0.87532 0.18822 0.37832 0.0
C2355 C 0.8526 0.18813 0.37019 0.0
C2356 C 0.84875 0.21137 0.37174 0.0
C2357 C 0.86871 0.2351 0.38023 0.0
C2358 C 0.87999 0.16374 0.37705 0.0
C2359 C 0.82466 0.212 0.36337 0.0
C2360 C 0.82553 0.14833 0.32943 0.0
C2361 C 0.80017 0.12556 0.33453 0.0
C2362 C 0.84308 0.1684 0.34105 0.0
C2363 C 0.8351 0.16559 0.35821 0.0
C2364 C 0.80995 0.14218 0.36356 0.0
C2365 C 0.79272 0.12239 0.35162 0.0
C2366 C 0.86985 0.193 0.33485 0.0
C2367 C 0.80086 0.1385 0.38177 0.0
H2368 H 0.91336 0.21304 0.39202 0.0
H2369 H 0.86642 0.25337 0.38082 0.0
H2370 H 0.86033 0.14394 0.37931 0.0
H2371 H 0.88717 0.16282 0.36414 0.0
H2372 H 0.89587 0.16529 0.38617 0.0
H2373 H 0.82281 0.23013 0.36746 0.0
H2374 H 0.8276 0.21315 0.3495 0.0
H2375 H 0.80485 0.19267 0.36618 0.0
H2376 H 0.8316 0.15055 0.31628 0.0
H2377 H 0.77304 0.10488 0.35559 0.0
H2378 H 0.88774 0.19466 0.34204 0.0
H2379 H 0.86934 0.21249 0.33699 0.0
H2380 H 0.87348 0.1915 0.32122 0.0
H2381 H 0.81782 0.14056 0.3901 0.0
H2382 H 0.78202 0.11798 0.38412 0.0
H2383 H 0.79627 0.15509 0.38537 0.0
C2384 C 0.8844 0.66145 0.3561 0.0
C2385 C 0.87554 0.65153 0.33975 0.0
C2386 C 0.86543 0.6603 0.36824 0.0
C2387 C 0.83705 0.64863 0.36386 0.0
C2388 C 0.82786 0.63708 0.34763 0.0
C2389 C 0.84729 0.63889 0.33572 0.0
C2390 C 0.876 0.67302 0.38536 0.0
C2391 C 0.7977 0.62403 0.34253 0.0
C2392 C 0.77812 0.62924 0.39478 0.0
C2393 C 0.77206 0.65061 0.39187 0.0
C2394 C 0.80042 0.62908 0.38655 0.0
C2395 C 0.81725 0.651 0.37536 0.0
C2396 C 0.81265 0.67372 0.37345 0.0
C2397 C 0.78999 0.67312 0.38158 0.0
C2398 C 0.80471 0.60451 0.38892 0.0
C2399 C 0.83039 0.69773 0.36181 0.0
H2400 H 0.90634 0.6713 0.35913 0.0
H2401 H 0.84051 0.63098 0.32309 0.0
H2402 H 0.8756 0.69275 0.38634 0.0
H2403 H 0.86241 0.659 0.39548 0.0
H2404 H 0.89763 0.6776 0.38759 0.0
H2405 H 0.79361 0.61365 0.33006 0.0
H2406 H 0.78416 0.60849 0.35206 0.0
H2407 H 0.79168 0.64029 0.3419 0.0
H2408 H 0.76479 0.61206 0.403 0.0
H2409 H 0.78546 0.68961 0.379 0.0
H2410 H 0.82706 0.6115 0.39067 0.0
H2411 H 0.79767 0.59136 0.37744 0.0
H2412 H 0.79287 0.59149 0.39989 0.0
H2413 H 0.85278 0.70534 0.36401 0.0
H2414 H 0.82652 0.71537 0.36346 0.0
H2415 H 0.82579 0.69062 0.34853 0.0
C2416 C 0.34035 0.21392 0.3497 0.0
C2417 C 0.33328 0.20559 0.3329 0.0
C2418 C 0.3405 0.19553 0.36181 0.0
C2419 C 0.33333 0.16822 0.35694 0.0
C2420 C 0.3254 0.15949 0.3401 0.0
C2421 C 0.32548 0.17829 0.32829 0.0
C2422 C 0.34912 0.20553 0.37964 0.0
C2423 C 0.31744 0.13046 0.33443 0.0
C2424 C 0.36163 0.12729 0.37899 0.0
C2425 C 0.33813 0.10713 0.3877 0.0
C2426 C 0.36079 0.14834 0.36973 0.0
C2427 C 0.33577 0.14914 0.36903 0.0
C2428 C 0.3124 0.12981 0.3785 0.0
C2429 C 0.31387 0.109 0.38775 0.0
C2430 C 0.38619 0.16861 0.35983 0.0
C2431 C 0.2854 0.13013 0.37812 0.0
H2432 H 0.34648 0.23506 0.35328 0.0
H2433 H 0.31945 0.17162 0.31538 0.0
H2434 H 0.33336 0.19084 0.38869 0.0
H2435 H 0.36899 0.20623 0.38255 0.0
H2436 H 0.35195 0.22658 0.3817 0.0
H2437 H 0.31053 0.12659 0.32108 0.0
H2438 H 0.33547 0.1272 0.33584 0.0
H2439 H 0.30044 0.11481 0.34247 0.0
H2440 H 0.38033 0.12578 0.37861 0.0
H2441 H 0.29574 0.09368 0.39461 0.0
H2442 H 0.3909 0.19026 0.36204 0.0
H2443 H 0.38211 0.16436 0.34615 0.0
H2444 H 0.40481 0.16711 0.36316 0.0
H2445 H 0.2892 0.15149 0.38029 0.0
H2446 H 0.27038 0.11598 0.38771 0.0
H2447 H 0.27577 0.12351 0.36548 0.0
C2448 C 0.55361 0.54887 0.31138 0.0
C2449 C 0.54823 0.54349 0.32866 0.0
C2450 C 0.53532 0.53018 0.29931 0.0
C2451 C 0.51105 0.50583 0.30472 0.0
C2452 C 0.50552 0.50045 0.32216 0.0
C2453 C 0.52422 0.5193 0.3339 0.0
C2454 C 0.54198 0.53639 0.28082 0.0
C2455 C 0.47971 0.47484 0.32846 0.0
C2456 C 0.44597 0.46544 0.27871 0.0
C2457 C 0.44663 0.44093 0.2755 0.0
C2458 C 0.4679 0.4878 0.28717 0.0
C2459 C 0.49112 0.48567 0.29236 0.0
C2460 C 0.49305 0.46207 0.28779 0.0
C2461 C 0.4707 0.4399 0.27948 0.0
C2462 C 0.46511 0.51268 0.29176 0.0
C2463 C 0.51764 0.45916 0.29292 0.0
H2464 H 0.57226 0.56754 0.30733 0.0
H2465 H 0.51979 0.51535 0.34725 0.0
H2466 H 0.54366 0.51926 0.2748 0.0
H2467 H 0.52491 0.53762 0.27439 0.0
H2468 H 0.56172 0.55623 0.2787 0.0
H2469 H 0.47841 0.4739 0.34244 0.0
H2470 H 0.46089 0.47449 0.32347 0.0
H2471 H 0.47941 0.45584 0.32384 0.0
H2472 H 0.42767 0.4666 0.27534 0.0
H2473 H 0.47139 0.42102 0.27716 0.0
H2474 H 0.48474 0.53232 0.28917 0.0
H2475 H 0.46079 0.5121 0.30546 0.0
H2476 H 0.44795 0.513 0.28477 0.0
H2477 H 0.53742 0.47878 0.29056 0.0
H2478 H 0.51818 0.442 0.28607 0.0
H2479 H 0.51644 0.45473 0.30663 0.0
C2480 C 0.54695 0.00973 0.27282 0.0
C2481 C 0.55816 0.99659 0.28252 0.0
C2482 C 0.52258 0.00944 0.27797 0.0
C2483 C 0.50957 0.99605 0.29325 0.0
C2484 C 0.51967 0.981 0.30236 0.0
C2485 C 0.54366 0.98124 0.29678 0.0
C2486 C 0.5119 0.02496 0.26764 0.0
C2487 C 0.50641 0.96635 0.31871 0.0
C2488 C 0.47648 0.02366 0.32314 0.0
C2489 C 0.4487 0.00212 0.32296 0.0
C2490 C 0.49625 0.02308 0.31248 0.0
C2491 C 0.48793 0.00063 0.30114 0.0
C2492 C 0.45945 0.98038 0.29964 0.0
C2493 C 0.44012 0.98122 0.3107 0.0
C2494 C 0.52642 0.0452 0.31444 0.0
C2495 C 0.44966 0.95664 0.28732 0.0
H2496 H 0.558 0.02154 0.26173 0.0
H2497 H 0.55186 0.97041 0.30405 0.0
H2498 H 0.48885 0.01346 0.26725 0.0
H2499 H 0.51866 0.0455 0.27349 0.0
H2500 H 0.52003 0.02852 0.25453 0.0
H2501 H 0.51573 0.95412 0.32364 0.0
H2502 H 0.50899 0.98193 0.32836 0.0
H2503 H 0.48379 0.95212 0.31698 0.0
H2504 H 0.48305 0.0403 0.33227 0.0
H2505 H 0.41867 0.96453 0.31042 0.0
H2506 H 0.5359 0.05376 0.30198 0.0
H2507 H 0.53808 0.03584 0.32015 0.0
H2508 H 0.52905 0.06261 0.32259 0.0
H2509 H 0.46083 0.96388 0.27513 0.0
H2510 H 0.42694 0.94662 0.28499 0.0
H2511 H 0.45408 0.94067 0.29248 0.0
C2512 C 0.99008 0.52922 0.26964 0.0
C2513 C 0.00302 0.55589 0.27677 0.0
C2514 C 0.99166 0.50735 0.2775 0.0
C2515 C 0.00616 0.51231 0.29292 0.0
C2516 C 0.02014 0.53944 0.2998 0.0
C2517 C 0.01845 0.56089 0.29162 0.0
C2518 C 0.97689 0.47877 0.26967 0.0
C2519 C 0.03567 0.54557 0.31631 0.0
C2520 C 0.98547 0.4568 0.32635 0.0
C2521 C 0.00793 0.452 0.32588 0.0
C2522 C 0.98378 0.47522 0.31497 0.0
C2523 C 0.00498 0.48898 0.30276 0.0
C2524 C 0.02673 0.4828 0.30151 0.0
C2525 C 0.02806 0.46448 0.31318 0.0
C2526 C 0.96034 0.48139 0.3168 0.0
C2527 C 0.04943 0.4967 0.28848 0.0
H2528 H 0.97828 0.52534 0.25809 0.0
H2529 H 0.0281 0.58133 0.29736 0.0
H2530 H 0.99082 0.46983 0.26924 0.0
H2531 H 0.95864 0.46468 0.2775 0.0
H2532 H 0.96957 0.47912 0.25669 0.0
H2533 H 0.0467 0.56809 0.31944 0.0
H2534 H 0.02087 0.53399 0.32665 0.0
H2535 H 0.0511 0.53848 0.31584 0.0
H2536 H 0.97 0.44737 0.33623 0.0
H2537 H 0.04524 0.46048 0.31266 0.0
H2538 H 0.95037 0.4798 0.30444 0.0
H2539 H 0.96874 0.50303 0.32136 0.0
H2540 H 0.94418 0.46706 0.32583 0.0
H2541 H 0.04045 0.49624 0.27592 0.0
H2542 H 0.06235 0.48664 0.28751 0.0
H2543 H 0.06317 0.51885 0.2919 0.0
C2544 C 0.46893 0.48595 0.65826 0.0
C2545 C 0.44122 0.46706 0.66248 0.0
C2546 C 0.48675 0.50603 0.66977 0.0
C2547 C 0.47672 0.50713 0.68598 0.0
C2548 C 0.44902 0.4876 0.69055 0.0
C2549 C 0.43153 0.46775 0.6787 0.0
C2550 C 0.51621 0.52643 0.66441 0.0
C2551 C 0.43773 0.48808 0.70777 0.0
C2552 C 0.53566 0.54989 0.71604 0.0
C2553 C 0.53857 0.57629 0.71387 0.0
C2554 C 0.51409 0.52649 0.70807 0.0
C2555 C 0.49519 0.52971 0.69767 0.0
C2556 C 0.49674 0.5559 0.69657 0.0
C2557 C 0.51841 0.57887 0.70472 0.0
C2558 C 0.51291 0.49883 0.70971 0.0
C2559 C 0.4769 0.56018 0.68568 0.0
H2560 H 0.47672 0.48505 0.64588 0.0
H2561 H 0.4101 0.45319 0.68199 0.0
H2562 H 0.51971 0.54793 0.66481 0.0
H2563 H 0.53117 0.52551 0.67327 0.0
H2564 H 0.52091 0.5223 0.65148 0.0
H2565 H 0.41651 0.4701 0.70981 0.0
H2566 H 0.45168 0.48792 0.71772 0.0
H2567 H 0.43697 0.50754 0.70931 0.0
H2568 H 0.55122 0.54779 0.72309 0.0
H2569 H 0.52029 0.59918 0.70332 0.0
H2570 H 0.52068 0.49438 0.69791 0.0
H2571 H 0.49119 0.48178 0.71159 0.0
H2572 H 0.52582 0.49866 0.72034 0.0
H2573 H 0.48149 0.55888 0.67221 0.0
H2574 H 0.47862 0.58073 0.6879 0.0
H2575 H 0.45513 0.54363 0.68807 0.0
C2576 C 0.52639 0.01845 0.67078 0.0
C2577 C 0.54186 0.00512 0.67337 0.0
C2578 C 0.50595 0.01541 0.68229 0.0
C2579 C 0.501 0.9988 0.69685 0.0
C2580 C 0.51749 0.98643 0.70001 0.0
C2581 C 0.53773 0.98968 0.68818 0.0
C2582 C 0.48886 0.02902 0.67848 0.0
C2583 C 0.51294 0.9688 0.71548 0.0
C2584 C 0.4557 0.00724 0.72935 0.0
C2585 C 0.42925 0.98563 0.72478 0.0
C2586 C 0.47963 0.01084 0.72106 0.0
C2587 C 0.47691 0.99257 0.70783 0.0
C2588 C 0.45041 0.96987 0.70381 0.0
C2589 C 0.42692 0.96667 0.71234 0.0
C2590 C 0.5076 0.03505 0.72585 0.0
C2591 C 0.44659 0.94999 0.68971 0.0
H2592 H 0.52997 0.03094 0.65954 0.0
H2593 H 0.54959 0.97928 0.69022 0.0
H2594 H 0.46686 0.01278 0.6764 0.0
H2595 H 0.48927 0.04178 0.68934 0.0
H2596 H 0.49641 0.04253 0.66712 0.0
H2597 H 0.52964 0.96354 0.71714 0.0
H2598 H 0.51194 0.97971 0.72693 0.0
H2599 H 0.49275 0.94915 0.71443 0.0
H2600 H 0.45759 0.02177 0.73907 0.0
H2601 H 0.40652 0.95017 0.70857 0.0
H2602 H 0.51501 0.05101 0.71574 0.0
H2603 H 0.52318 0.02823 0.72715 0.0
H2604 H 0.5067 0.04488 0.73784 0.0
H2605 H 0.45133 0.96114 0.67747 0.0
H2606 H 0.42506 0.93201 0.68921 0.0
H2607 H 0.46121 0.94202 0.6912 0.0
C2608 C 0.97935 0.4517 0.72289 0.0
C2609 C 0.00425 0.45105 0.72339 0.0
C2610 C 0.9778 0.47296 0.71427 0.0
C2611 C 0.00166 0.49382 0.70586 0.0
C2612 C 0.02734 0.49446 0.70748 0.0
C2613 C 0.02834 0.47307 0.71626 0.0
C2614 C 0.95015 0.47186 0.71309 0.0
C2615 C 0.05325 0.5163 0.69867 0.0
C2616 C 0.99139 0.52091 0.66432 0.0
C2617 C 0.99717 0.54777 0.6686 0.0
C2618 C 0.99234 0.50308 0.67643 0.0
C2619 C 0.99894 0.51218 0.69333 0.0
C2620 C 0.00397 0.53894 0.69789 0.0
C2621 C 0.00312 0.5565 0.68543 0.0
C2622 C 0.98678 0.47464 0.67105 0.0
C2623 C 0.01082 0.5492 0.71581 0.0
H2624 H 0.96077 0.43488 0.72859 0.0
H2625 H 0.04759 0.47256 0.71646 0.0
H2626 H 0.95275 0.49284 0.71489 0.0
H2627 H 0.94126 0.4646 0.70034 0.0
H2628 H 0.93504 0.45743 0.72254 0.0
H2629 H 0.07218 0.51616 0.70302 0.0
H2630 H 0.0511 0.51238 0.68489 0.0
H2631 H 0.05615 0.53734 0.70076 0.0
H2632 H 0.98611 0.51378 0.65142 0.0
H2633 H 0.00771 0.57729 0.6888 0.0
H2634 H 0.96935 0.45827 0.6785 0.0
H2635 H 0.00538 0.47266 0.67353 0.0
H2636 H 0.98153 0.47062 0.65746 0.0
H2637 H 0.99498 0.53385 0.72457 0.0
H2638 H 0.01193 0.56958 0.71755 0.0
H2639 H 0.03113 0.55144 0.71941 0.0
C2640 C 0.21316 0.88685 0.64698 0.0
C2641 C 0.20642 0.88215 0.66416 0.0
C2642 C 0.19499 0.86857 0.63471 0.0
C2643 C 0.16954 0.84528 0.63982 0.0
C2644 C 0.16248 0.84079 0.65713 0.0
C2645 C 0.18101 0.85926 0.66907 0.0
C2646 C 0.20319 0.87389 0.61636 0.0
C2647 C 0.13542 0.8163 0.6631 0.0
C2648 C 0.1065 0.80494 0.61211 0.0
C2649 C 0.1067 0.77996 0.61001 0.0
C2650 C 0.12805 0.82743 0.62074 0.0
C2651 C 0.15033 0.82485 0.62731 0.0
C2652 C 0.15184 0.80062 0.62395 0.0
C2653 C 0.12995 0.77841 0.61539 0.0
C2654 C 0.12581 0.85303 0.62397 0.0
C2655 C 0.17536 0.79714 0.63063 0.0
H2656 H 0.23285 0.9045 0.64317 0.0
H2657 H 0.17551 0.8559 0.68232 0.0
H2658 H 0.20544 0.85652 0.61127 0.0
H2659 H 0.18668 0.87467 0.60895 0.0
H2660 H 0.22308 0.89365 0.61442 0.0
H2661 H 0.13283 0.81621 0.67698 0.0
H2662 H 0.11762 0.81665 0.65701 0.0
H2663 H 0.13447 0.79658 0.6594 0.0
H2664 H 0.08887 0.80648 0.60769 0.0
H2665 H 0.13024 0.75915 0.61398 0.0
H2666 H 0.14605 0.87219 0.62173 0.0
H2667 H 0.12011 0.85321 0.63736 0.0
H2668 H 0.10979 0.85363 0.6159 0.0
H2669 H 0.19568 0.81619 0.62834 0.0
H2670 H 0.17574 0.77915 0.62479 0.0
H2671 H 0.17295 0.79372 0.64446 0.0
C2672 C 0.11123 0.33927 0.63906 0.0
C2673 C 0.11589 0.33665 0.65617 0.0
C2674 C 0.12917 0.33917 0.62659 0.0
C2675 C 0.15209 0.33624 0.63141 0.0
C2676 C 0.15664 0.33327 0.64865 0.0
C2677 C 0.1385 0.33352 0.6608 0.0
C2678 C 0.12382 0.34254 0.60834 0.0
C2679 C 0.18078 0.32991 0.65432 0.0
C2680 C 0.19058 0.31191 0.60325 0.0
C2681 C 0.216 0.33666 0.60112 0.0
C2682 C 0.16853 0.31171 0.612 0.0
C2683 C 0.172 0.33688 0.61867 0.0
C2684 C 0.19663 0.36225 0.61522 0.0
C2685 C 0.21839 0.36182 0.60654 0.0
C2686 C 0.14247 0.28425 0.61531 0.0
C2687 C 0.20107 0.38958 0.622 0.0
H2688 H 0.09381 0.3418 0.63546 0.0
H2689 H 0.14184 0.33092 0.67398 0.0
H2690 H 0.14159 0.36183 0.60316 0.0
H2691 H 0.1221 0.32492 0.60081 0.0
H2692 H 0.10452 0.3436 0.60664 0.0
H2693 H 0.18108 0.32738 0.66819 0.0
H2694 H 0.17974 0.31149 0.64816 0.0
H2695 H 0.20068 0.34837 0.65047 0.0
H2696 H 0.18841 0.29246 0.59881 0.0
H2697 H 0.23798 0.38106 0.60511 0.0
H2698 H 0.12368 0.28605 0.61329 0.0
H2699 H 0.14227 0.27813 0.62865 0.0
H2700 H 0.14117 0.26743 0.60711 0.0
H2701 H 0.18233 0.39146 0.62001 0.0
H2702 H 0.21917 0.40766 0.61599 0.0
H2703 H 0.20485 0.39051 0.63578 0.0
C2704 C 0.67648 0.82311 0.66256 0.0
C2705 C 0.66772 0.79527 0.65882 0.0
C2706 C 0.67265 0.84001 0.65105 0.0
C2707 C 0.65989 0.82884 0.63534 0.0
C2708 C 0.65151 0.80091 0.6313 0.0
C2709 C 0.65537 0.78434 0.64317 0.0
C2710 C 0.68163 0.86964 0.65591 0.0
C2711 C 0.63813 0.78847 0.61459 0.0
C2712 C 0.62683 0.8681 0.61696 0.0
C2713 C 0.64845 0.88785 0.60686 0.0
C2714 C 0.62948 0.84739 0.62541 0.0
C2715 C 0.6543 0.84636 0.62364 0.0
C2716 C 0.67528 0.86486 0.61242 0.0
C2717 C 0.67217 0.88554 0.60422 0.0
C2718 C 0.60669 0.82815 0.63733 0.0
C2719 C 0.70185 0.86412 0.61001 0.0
H2720 H 0.68566 0.83149 0.67474 0.0
H2721 H 0.64879 0.76287 0.64021 0.0
H2722 H 0.69638 0.88428 0.64642 0.0
H2723 H 0.66332 0.87262 0.65615 0.0
H2724 H 0.69177 0.87525 0.66848 0.0
H2725 H 0.63441 0.76699 0.61298 0.0
H2726 H 0.61795 0.78792 0.61356 0.0
H2727 H 0.65148 0.80159 0.6041 0.0
H2728 H 0.60859 0.86998 0.6192 0.0
H2729 H 0.68879 0.90064 0.59628 0.0
H2730 H 0.61389 0.83394 0.65052 0.0
H2731 H 0.60165 0.80632 0.63549 0.0
H2732 H 0.5874 0.82924 0.63566 0.0
H2733 H 0.71499 0.87254 0.62142 0.0
H2734 H 0.71394 0.8767 0.59897 0.0
H2735 H 0.69735 0.84243 0.60832 0.0
loop_
_geom_bond_atom_site_label_1
_geom_bond_atom_site_label_2
_geom_bond_distance
_geom_bond_site_symmetry_2
_ccdc_geom_bond_type
Li0 N17 1.990 . S
Li0 O60 1.956 . S
Li0 O61 1.970 . S
Li0 O62 1.961 . S
Li1 N25 1.990 . S
Li1 O60 1.970 . S
Li1 O61 1.956 . S
Li1 O63 1.961 . S
Li2 N47 1.990 . S
Li2 O60 1.961 . S
Li2 O62 1.956 . S
Li2 O63 1.970 . S
Li3 N53 1.990 1_545 S
Li3 O61 1.961 . S
Li3 O62 1.970 . S
Li3 O63 1.956 . S
C4 C6 1.348 . S
C4 C7 1.356 . S
C4 O60 1.325 . S
N5 C8 1.314 . S
N5 C9 1.279 . S
C6 C4 1.348 . S
C6 C8 1.353 . S
C6 H64 0.929 . S
C7 C4 1.356 . S
C7 C9 1.358 . S
C7 H65 0.930 . S
C8 N5 1.314 . S
C8 C6 1.353 . S
C8 H66 0.930 . S
C9 N5 1.279 . S
C9 C7 1.358 . S
C9 H67 0.930 . S
C10 C13 1.348 . S
C10 C14 1.356 . S
C10 O61 1.325 . S
C11 N12 1.279 . S
C11 C14 1.358 . S
C11 H68 0.930 . S
N12 C11 1.279 . S
N12 C15 1.314 . S
C13 C10 1.348 . S
C13 C15 1.353 . S
C13 H69 0.929 . S
C14 C10 1.356 . S
C14 C11 1.358 . S
C14 H70 0.930 . S
C15 N12 1.314 . S
C15 C13 1.353 . S
C15 H71 0.930 . S
C16 N17 1.314 . S
C16 C21 1.353 . S
C16 H22 0.930 . S
N17 Li0 1.990 . S
N17 C16 1.314 . S
N17 C19 1.279 . S
C18 C19 1.358 . S
C18 C20 1.356 . S
C18 H72 0.930 . S
C19 N17 1.279 . S
C19 C18 1.358 . S
C19 H23 0.930 . S
C20 C18 1.356 . S
C20 C21 1.348 . S
C21 C16 1.353 . S
C21 C20 1.348 . S
C21 H73 0.929 1_554 S
H22 C16 0.930 . S
H23 C19 0.930 . S
C24 N25 1.314 . S
C24 C26 1.353 . S
C24 H30 0.930 . S
N25 Li1 1.990 . S
N25 C24 1.314 . S
N25 C28 1.279 . S
C26 C24 1.353 . S
C26 C29 1.348 . S
C26 H74 0.929 . S
C27 C28 1.358 . S
C27 C29 1.356 . S
C27 H75 0.930 . S
C28 N25 1.279 . S
C28 C27 1.358 . S
C28 H31 0.930 . S
C29 C26 1.348 . S
C29 C27 1.356 . S
H30 C24 0.930 . S
H31 C28 0.930 . S
C32 C34 1.348 1_545 S
C32 C35 1.356 . S
C32 O62 1.325 . S
N33 C36 1.314 1_545 S
N33 C37 1.279 . S
C34 C32 1.348 1_565 S
C34 C36 1.353 1_554 S
C34 H76 0.929 . S
C35 C32 1.356 . S
C35 C37 1.358 1_554 S
C35 H77 0.930 . S
C36 N33 1.314 1_565 S
C36 C34 1.353 1_556 S
C36 H78 0.930 . S
C37 N33 1.279 . S
C37 C35 1.358 1_556 S
C37 H79 0.930 . S
C38 C39 1.348 . S
C38 C40 1.356 . S
C38 O63 1.325 1_565 S
C39 C38 1.348 . S
C39 C41 1.353 . S
C39 H80 0.929 . S
C40 C38 1.356 . S
C40 C42 1.358 . S
C40 H81 0.930 . S
C41 C39 1.353 . S
C41 N43 1.314 . S
C41 H82 0.930 . S
C42 C40 1.358 . S
C42 N43 1.279 . S
C42 H83 0.930 . S
N43 C41 1.314 . S
N43 C42 1.279 . S
C44 C46 1.353 . S
C44 N47 1.314 . S
C44 H50 0.930 . S
C45 N47 1.279 . S
C45 C48 1.358 . S
C45 H51 0.930 . S
C46 C44 1.353 . S
C46 C49 1.348 . S
C46 H84 0.929 . S
N47 Li2 1.990 . S
N47 C44 1.314 . S
N47 C45 1.279 . S
C48 C45 1.358 . S
C48 C49 1.356 . S
C48 H85 0.930 . S
C49 C46 1.348 . S
C49 C48 1.356 . S
H50 C44 0.930 . S
H51 C45 0.930 . S
C52 N53 1.314 . S
C52 C54 1.353 . S
C52 H58 0.930 . S
N53 Li3 1.990 1_565 S
N53 C52 1.314 . S
N53 C56 1.279 . S
C54 C52 1.353 . S
C54 C57 1.348 . S
C54 H86 0.929 . S
C55 C56 1.358 . S
C55 C57 1.356 . S
C55 H87 0.930 . S
C56 N53 1.279 . S
C56 C55 1.358 . S
C56 H59 0.930 . S
C57 C54 1.348 . S
C57 C55 1.356 . S
H58 C52 0.930 . S
H59 C56 0.930 . S
O60 Li0 1.956 . S
O60 Li1 1.970 . S
O60 Li2 1.961 . S
O60 C4 1.325 . S
O61 Li0 1.970 . S
O61 Li1 1.956 . S
O61 Li3 1.961 . S
O61 C10 1.325 . S
O62 Li0 1.961 . S
O62 Li2 1.956 . S
O62 Li3 1.970 . S
O62 C32 1.325 . S
O63 Li1 1.961 . S
O63 Li2 1.970 . S
O63 Li3 1.956 . S
O63 C38 1.325 1_545 S
H64 C6 0.929 . S
H65 C7 0.930 . S
H66 C8 0.930 . S
H67 C9 0.930 . S
H68 C11 0.930 . S
H69 C13 0.929 . S
H70 C14 0.930 . S
H71 C15 0.930 . S
H72 C18 0.930 . S
H73 C21 0.929 1_556 S
H74 C26 0.929 . S
H75 C27 0.930 . S
H76 C34 0.929 . S
H77 C35 0.930 . S
H78 C36 0.930 . S
H79 C37 0.930 . S
H80 C39 0.929 . S
H81 C40 0.930 . S
H82 C41 0.930 . S
H83 C42 0.930 . S
H84 C46 0.929 . S
H85 C48 0.930 . S
H86 C54 0.929 . S
H87 C55 0.930 . S
Li88 N105 1.990 . S
Li88 O148 1.956 . S
Li88 O149 1.970 . S
Li88 O150 1.961 . S
Li89 N113 1.990 1_655 S
Li89 O148 1.970 . S
Li89 O149 1.956 . S
Li89 O151 1.961 . S
Li90 N135 1.990 . S
Li90 O148 1.961 . S
Li90 O150 1.956 . S
Li90 O151 1.970 . S
Li91 N141 1.990 . S
Li91 O149 1.961 . S
Li91 O150 1.970 . S
Li91 O151 1.956 . S
C92 C94 1.348 1_655 S
C92 C95 1.356 . S
C92 O148 1.325 . S
N93 C96 1.314 1_655 S
N93 C97 1.279 . S
C94 C92 1.348 1_455 S
C94 C96 1.353 1_554 S
C94 H152 0.929 . S
C95 C92 1.356 . S
C95 C97 1.358 1_554 S
C95 H153 0.930 . S
C96 N93 1.314 1_455 S
C96 C94 1.353 1_556 S
C96 H154 0.930 . S
C97 N93 1.279 . S
C97 C95 1.358 1_556 S
C97 H155 0.930 . S
C98 C101 1.348 . S
C98 C102 1.356 . S
C98 O149 1.325 1_455 S
C99 N100 1.279 . S
C99 C102 1.358 . S
C99 H156 0.930 . S
N100 C99 1.279 . S
N100 C103 1.314 . S
C101 C98 1.348 . S
C101 C103 1.353 . S
C101 H157 0.929 . S
C102 C98 1.356 . S
C102 C99 1.358 . S
C102 H158 0.930 . S
C103 N100 1.314 . S
C103 C101 1.353 . S
C103 H159 0.930 . S
C104 N105 1.314 . S
C104 C109 1.353 . S
C104 H110 0.930 . S
N105 Li88 1.990 . S
N105 C104 1.314 . S
N105 C107 1.279 . S
C106 C107 1.358 . S
C106 C108 1.356 . S
C106 H160 0.930 . S
C107 N105 1.279 . S
C107 C106 1.358 . S
C107 H111 0.930 . S
C108 C106 1.356 . S
C108 C109 1.348 . S
C109 C104 1.353 . S
C109 C108 1.348 . S
C109 H161 0.929 . S
H110 C104 0.930 . S
H111 C107 0.930 . S
C112 N113 1.314 . S
C112 C114 1.353 . S
C112 H118 0.930 . S
N113 Li89 1.990 1_455 S
N113 C112 1.314 . S
N113 C116 1.279 . S
C114 C112 1.353 . S
C114 C117 1.348 . S
C114 H162 0.929 . S
C115 C116 1.358 . S
C115 C117 1.356 . S
C115 H163 0.930 . S
C116 N113 1.279 . S
C116 C115 1.358 . S
C116 H119 0.930 . S
C117 C114 1.348 . S
C117 C115 1.356 . S
H118 C112 0.930 . S
H119 C116 0.930 . S
C120 C122 1.348 . S
C120 C123 1.356 . S
C120 O150 1.325 . S
N121 C124 1.314 . S
N121 C125 1.279 . S
C122 C120 1.348 . S
C122 C124 1.353 . S
C122 H164 0.929 . S
C123 C120 1.356 . S
C123 C125 1.358 . S
C123 H165 0.930 . S
C124 N121 1.314 . S
C124 C122 1.353 . S
C124 H166 0.930 . S
C125 N121 1.279 . S
C125 C123 1.358 . S
C125 H167 0.930 . S
C126 C127 1.348 . S
C126 C128 1.356 . S
C126 O151 1.325 . S
C127 C126 1.348 . S
C127 C129 1.353 . S
C127 H168 0.929 . S
C128 C126 1.356 . S
C128 C130 1.358 . S
C128 H169 0.930 . S
C129 C127 1.353 . S
C129 N131 1.314 . S
C129 H170 0.930 . S
C130 C128 1.358 . S
C130 N131 1.279 . S
C130 H171 0.930 . S
N131 C129 1.314 . S
N131 C130 1.279 . S
C132 C134 1.353 . S
C132 N135 1.314 . S
C132 H138 0.930 . S
C133 N135 1.279 . S
C133 C136 1.358 . S
C133 H139 0.930 . S
C134 C132 1.353 . S
C134 C137 1.348 . S
C134 H172 0.929 1_554 S
N135 Li90 1.990 . S
N135 C132 1.314 . S
N135 C133 1.279 . S
C136 C133 1.358 . S
C136 C137 1.356 . S
C136 H173 0.930 . S
C137 C134 1.348 . S
C137 C136 1.356 . S
H138 C132 0.930 . S
H139 C133 0.930 . S
C140 N141 1.314 . S
C140 C142 1.353 . S
C140 H146 0.930 . S
N141 Li91 1.990 . S
N141 C140 1.314 . S
N141 C144 1.279 . S
C142 C140 1.353 . S
C142 C145 1.348 . S
C142 H174 0.929 . S
C143 C144 1.358 . S
C143 C145 1.356 . S
C143 H175 0.930 . S
C144 N141 1.279 . S
C144 C143 1.358 . S
C144 H147 0.930 . S
C145 C142 1.348 . S
C145 C143 1.356 . S
H146 C140 0.930 . S
H147 C144 0.930 . S
O148 Li88 1.956 . S
O148 Li89 1.970 . S
O148 Li90 1.961 . S
O148 C92 1.325 . S
O149 Li88 1.970 . S
O149 Li89 1.956 . S
O149 Li91 1.961 . S
O149 C98 1.325 1_655 S
O150 Li88 1.961 . S
O150 Li90 1.956 . S
O150 Li91 1.970 . S
O150 C120 1.325 . S
O151 Li89 1.961 . S
O151 Li90 1.970 . S
O151 Li91 1.956 . S
O151 C126 1.325 . S
H152 C94 0.929 . S
H153 C95 0.930 . S
H154 C96 0.930 . S
H155 C97 0.930 . S
H156 C99 0.930 . S
H157 C101 0.929 . S
H158 C102 0.930 . S
H159 C103 0.930 . S
H160 C106 0.930 . S
H161 C109 0.929 . S
H162 C114 0.929 . S
H163 C115 0.930 . S
H164 C122 0.929 . S
H165 C123 0.930 . S
H166 C124 0.930 . S
H167 C125 0.930 . S
H168 C127 0.929 . S
H169 C128 0.930 . S
H170 C129 0.930 . S
H171 C130 0.930 . S
H172 C134 0.929 1_556 S
H173 C136 0.930 . S
H174 C142 0.929 . S
H175 C143 0.930 . S
Li176 N193 1.990 . S
Li176 O236 1.956 . S
Li176 O237 1.970 . S
Li176 O238 1.961 . S
Li177 N201 1.990 . S
Li177 O236 1.970 . S
Li177 O237 1.956 . S
Li177 O239 1.961 . S
Li178 N223 1.990 . S
Li178 O236 1.961 . S
Li178 O238 1.956 . S
Li178 O239 1.970 . S
Li179 N229 1.990 . S
Li179 O237 1.961 . S
Li179 O238 1.970 . S
Li179 O239 1.956 . S
C180 C182 1.348 . S
C180 C183 1.356 . S
C180 O236 1.325 . S
N181 C184 1.314 . S
N181 C185 1.279 . S
C182 C180 1.348 . S
C182 C184 1.353 . S
C182 H240 0.929 . S
C183 C180 1.356 . S
C183 C185 1.358 . S
C183 H241 0.930 . S
C184 N181 1.314 . S
C184 C182 1.353 . S
C184 H242 0.930 . S
C185 N181 1.279 . S
C185 C183 1.358 . S
C185 H243 0.930 . S
C186 C189 1.348 . S
C186 C190 1.356 . S
C186 O237 1.325 . S
C187 N188 1.279 . S
C187 C190 1.358 . S
C187 H244 0.930 . S
N188 C187 1.279 . S
N188 C191 1.314 . S
C189 C186 1.348 . S
C189 C191 1.353 . S
C189 H245 0.929 . S
C190 C186 1.356 . S
C190 C187 1.358 . S
C190 H246 0.930 . S
C191 N188 1.314 . S
C191 C189 1.353 . S
C191 H247 0.930 . S
C192 N193 1.314 . S
C192 C197 1.353 . S
C192 H198 0.930 . S
N193 Li176 1.990 . S
N193 C192 1.314 . S
N193 C195 1.279 . S
C194 C195 1.358 . S
C194 C196 1.356 . S
C194 H248 0.930 . S
C195 N193 1.279 . S
C195 C194 1.358 . S
C195 H199 0.930 . S
C196 C194 1.356 . S
C196 C197 1.348 . S
C197 C192 1.353 . S
C197 C196 1.348 . S
C197 H249 0.929 . S
H198 C192 0.930 . S
H199 C195 0.930 . S
C200 N201 1.314 . S
C200 C202 1.353 . S
C200 H206 0.930 . S
N201 Li177 1.990 . S
N201 C200 1.314 . S
N201 C204 1.279 . S
C202 C200 1.353 . S
C202 C205 1.348 . S
C202 H250 0.929 . S
C203 C204 1.358 . S
C203 C205 1.356 . S
C203 H251 0.930 . S
C204 N201 1.279 . S
C204 C203 1.358 . S
C204 H207 0.930 . S
C205 C202 1.348 . S
C205 C203 1.356 . S
H206 C200 0.930 . S
H207 C204 0.930 . S
C208 C210 1.348 . S
C208 C211 1.356 . S
C208 O238 1.325 . S
N209 C212 1.314 . S
N209 C213 1.279 . S
C210 C208 1.348 . S
C210 C212 1.353 1_554 S
C210 H252 0.929 . S
C211 C208 1.356 . S
C211 C213 1.358 1_554 S
C211 H253 0.930 . S
C212 N209 1.314 . S
C212 C210 1.353 1_556 S
C212 H254 0.930 . S
C213 N209 1.279 . S
C213 C211 1.358 1_556 S
C213 H255 0.930 . S
C214 C215 1.348 . S
C214 C216 1.356 . S
C214 O239 1.325 . S
C215 C214 1.348 . S
C215 C217 1.353 . S
C215 H256 0.929 . S
C216 C214 1.356 . S
C216 C218 1.358 . S
C216 H257 0.930 . S
C217 C215 1.353 . S
C217 N219 1.314 . S
C217 H258 0.930 . S
C218 C216 1.358 . S
C218 N219 1.279 . S
C218 H259 0.930 . S
N219 C217 1.314 . S
N219 C218 1.279 . S
C220 C222 1.353 . S
C220 N223 1.314 . S
C220 H226 0.930 . S
C221 N223 1.279 . S
C221 C224 1.358 . S
C221 H227 0.930 . S
C222 C220 1.353 . S
C222 C225 1.348 . S
C222 H260 0.929 . S
N223 Li178 1.990 . S
N223 C220 1.314 . S
N223 C221 1.279 . S
C224 C221 1.358 . S
C224 C225 1.356 . S
C224 H261 0.930 1_554 S
C225 C222 1.348 . S
C225 C224 1.356 . S
H226 C220 0.930 . S
H227 C221 0.930 . S
C228 N229 1.314 . S
C228 C230 1.353 . S
C228 H234 0.930 . S
N229 Li179 1.990 . S
N229 C228 1.314 . S
N229 C232 1.279 . S
C230 C228 1.353 . S
C230 C233 1.348 . S
C230 H262 0.929 . S
C231 C232 1.358 . S
C231 C233 1.356 . S
C231 H263 0.930 . S
C232 N229 1.279 . S
C232 C231 1.358 . S
C232 H235 0.930 . S
C233 C230 1.348 . S
C233 C231 1.356 . S
H234 C228 0.930 . S
H235 C232 0.930 . S
O236 Li176 1.956 . S
O236 Li177 1.970 . S
O236 Li178 1.961 . S
O236 C180 1.325 . S
O237 Li176 1.970 . S
O237 Li177 1.956 . S
O237 Li179 1.961 . S
O237 C186 1.325 . S
O238 Li176 1.961 . S
O238 Li178 1.956 . S
O238 Li179 1.970 . S
O238 C208 1.325 . S
O239 Li177 1.961 . S
O239 Li178 1.970 . S
O239 Li179 1.956 . S
O239 C214 1.325 . S
H240 C182 0.929 . S
H241 C183 0.930 . S
H242 C184 0.930 . S
H243 C185 0.930 . S
H244 C187 0.930 . S
H245 C189 0.929 . S
H246 C190 0.930 . S
H247 C191 0.930 . S
H248 C194 0.930 . S
H249 C197 0.929 . S
H250 C202 0.929 . S
H251 C203 0.930 . S
H252 C210 0.929 . S
H253 C211 0.930 . S
H254 C212 0.930 . S
H255 C213 0.930 . S
H256 C215 0.929 . S
H257 C216 0.930 . S
H258 C217 0.930 . S
H259 C218 0.930 . S
H260 C222 0.929 . S
H261 C224 0.930 1_556 S
H262 C230 0.929 . S
H263 C231 0.930 . S
Li264 N281 1.990 . S
Li264 O324 1.956 . S
Li264 O325 1.970 . S
Li264 O326 1.961 . S
Li265 N289 1.990 1_565 S
Li265 O324 1.970 . S
Li265 O325 1.956 . S
Li265 O327 1.961 . S
Li266 N311 1.990 . S
Li266 O324 1.961 . S
Li266 O326 1.956 . S
Li266 O327 1.970 . S
Li267 N317 1.990 . S
Li267 O325 1.961 . S
Li267 O326 1.970 . S
Li267 O327 1.956 . S
C268 C270 1.348 . S
C268 C271 1.356 . S
C268 O324 1.325 1_545 S
N269 C272 1.314 . S
N269 C273 1.279 . S
C270 C268 1.348 . S
C270 C272 1.353 . S
C270 H328 0.929 . S
C271 C268 1.356 . S
C271 C273 1.358 . S
C271 H329 0.930 1_545 S
C272 N269 1.314 . S
C272 C270 1.353 . S
C272 H330 0.930 . S
C273 N269 1.279 . S
C273 C271 1.358 . S
C273 H331 0.930 . S
C274 C277 1.348 . S
C274 C278 1.356 . S
C274 O325 1.325 . S
C275 N276 1.279 . S
C275 C278 1.358 1_554 S
C275 H332 0.930 . S
N276 C275 1.279 . S
N276 C279 1.327 . S
C277 C274 1.348 . S
C277 C279 1.360 1_556 S
C277 H333 0.929 . S
C278 C274 1.356 . S
C278 C275 1.358 1_556 S
C278 H334 0.930 . S
C279 N276 1.327 . S
C279 C277 1.360 1_554 S
C279 H335 0.908 1_565 S
C280 N281 1.314 . S
C280 C285 1.353 . S
C280 H286 0.930 . S
N281 Li264 1.990 . S
N281 C280 1.314 . S
N281 C283 1.279 . S
C282 C283 1.358 . S
C282 C284 1.356 . S
C282 H336 0.930 1_565 S
C283 N281 1.279 . S
C283 C282 1.358 . S
C283 H287 0.930 1_565 S
C284 C282 1.356 . S
C284 C285 1.348 . S
C285 C280 1.353 . S
C285 C284 1.348 . S
C285 H337 0.929 . S
H286 C280 0.930 . S
H287 C283 0.930 1_545 S
C288 N289 1.314 . S
C288 C290 1.353 . S
C288 H294 0.930 . S
N289 Li265 1.990 1_545 S
N289 C288 1.314 . S
N289 C292 1.279 . S
C290 C288 1.353 . S
C290 C293 1.348 . S
C290 H338 0.929 . S
C291 C292 1.358 . S
C291 C293 1.356 . S
C291 H339 0.930 . S
C292 N289 1.279 . S
C292 C291 1.358 . S
C292 H295 0.930 . S
C293 C290 1.348 . S
C293 C291 1.356 . S
H294 C288 0.930 . S
H295 C292 0.930 . S
C296 C298 1.348 . S
C296 C299 1.356 . S
C296 O326 1.325 . S
N297 C300 1.314 . S
N297 C301 1.279 . S
C298 C296 1.348 . S
C298 C300 1.353 . S
C298 H340 0.929 . S
C299 C296 1.356 . S
C299 C301 1.358 . S
C299 H341 0.930 . S
C300 N297 1.314 . S
C300 C298 1.353 . S
C300 H342 0.930 . S
C301 N297 1.279 . S
C301 C299 1.358 . S
C301 H343 0.930 . S
C302 C303 1.348 . S
C302 C304 1.356 . S
C302 O327 1.325 . S
C303 C302 1.348 . S
C303 C305 1.353 . S
C303 H344 0.929 . S
C304 C302 1.356 . S
C304 C306 1.358 . S
C304 H345 0.930 . S
C305 C303 1.353 . S
C305 N307 1.314 . S
C305 H346 0.930 . S
C306 C304 1.358 . S
C306 N307 1.279 . S
C306 H347 0.930 . S
N307 C305 1.314 . S
N307 C306 1.279 . S
C308 C310 1.353 . S
C308 N311 1.314 . S
C308 H314 0.930 . S
C309 N311 1.279 . S
C309 C312 1.358 . S
C309 H315 0.930 . S
C310 C308 1.353 . S
C310 C313 1.348 . S
C310 H348 0.929 . S
N311 Li266 1.990 . S
N311 C308 1.314 . S
N311 C309 1.279 . S
C312 C309 1.358 . S
C312 C313 1.356 . S
C312 H349 0.930 . S
C313 C310 1.348 . S
C313 C312 1.356 . S
H314 C308 0.930 . S
H315 C309 0.930 . S
C316 N317 1.314 . S
C316 C318 1.353 . S
C316 H322 0.930 . S
N317 Li267 1.990 . S
N317 C316 1.314 . S
N317 C320 1.279 . S
C318 C316 1.353 . S
C318 C321 1.348 . S
C318 H350 0.929 1_556 S
C319 C320 1.358 . S
C319 C321 1.356 . S
C319 H351 0.930 . S
C320 N317 1.279 . S
C320 C319 1.358 . S
C320 H323 0.930 . S
C321 C318 1.348 . S
C321 C319 1.356 . S
H322 C316 0.930 . S
H323 C320 0.930 . S
O324 Li264 1.956 . S
O324 Li265 1.970 . S
O324 Li266 1.961 . S
O324 C268 1.325 1_565 S
O325 Li264 1.970 . S
O325 Li265 1.956 . S
O325 Li267 1.961 . S
O325 C274 1.325 . S
O326 Li264 1.961 . S
O326 Li266 1.956 . S
O326 Li267 1.970 . S
O326 C296 1.325 . S
O327 Li265 1.961 . S
O327 Li266 1.970 . S
O327 Li267 1.956 . S
O327 C302 1.325 . S
H328 C270 0.929 . S
H329 C271 0.930 1_565 S
H330 C272 0.930 . S
H331 C273 0.930 . S
H332 C275 0.930 . S
H333 C277 0.929 . S
H334 C278 0.930 . S
H335 C279 0.908 1_545 S
H336 C282 0.930 1_545 S
H337 C285 0.929 . S
H338 C290 0.929 . S
H339 C291 0.930 . S
H340 C298 0.929 . S
H341 C299 0.930 . S
H342 C300 0.930 . S
H343 C301 0.930 . S
H344 C303 0.929 . S
H345 C304 0.930 . S
H346 C305 0.930 . S
H347 C306 0.930 . S
H348 C310 0.929 . S
H349 C312 0.930 . S
H350 C318 0.929 1_554 S
H351 C319 0.930 . S
Li352 N369 1.990 . S
Li352 O412 1.956 . S
Li352 O413 1.970 . S
Li352 O414 1.961 . S
Li353 N377 1.990 . S
Li353 O412 1.970 . S
Li353 O413 1.956 . S
Li353 O415 1.961 . S
Li354 N399 1.990 . S
Li354 O412 1.961 . S
Li354 O414 1.956 . S
Li354 O415 1.970 . S
Li355 N405 1.990 1_455 S
Li355 O413 1.961 . S
Li355 O414 1.970 . S
Li355 O415 1.956 . S
C356 C358 1.348 . S
C356 C359 1.356 . S
C356 O412 1.325 . S
N357 C360 1.314 . S
N357 C361 1.279 . S
C358 C356 1.348 . S
C358 C360 1.353 . S
C358 H416 0.929 . S
C359 C356 1.356 . S
C359 C361 1.358 . S
C359 H417 0.930 . S
C360 N357 1.314 . S
C360 C358 1.353 . S
C360 H418 0.930 . S
C361 N357 1.279 . S
C361 C359 1.358 . S
C361 H419 0.930 . S
C362 C365 1.348 . S
C362 C366 1.356 . S
C362 O413 1.325 . S
C363 N364 1.279 . S
C363 C366 1.358 . S
C363 H420 0.930 . S
N364 C363 1.279 . S
N364 C367 1.314 . S
C365 C362 1.348 . S
C365 C367 1.353 . S
C365 H421 0.929 . S
C366 C362 1.356 . S
C366 C363 1.358 . S
C366 H422 0.930 . S
C367 N364 1.314 . S
C367 C365 1.353 . S
C367 H423 0.930 . S
C368 N369 1.314 . S
C368 C373 1.353 . S
C368 H374 0.930 . S
N369 Li352 1.990 . S
N369 C368 1.314 . S
N369 C371 1.279 . S
C370 C371 1.358 . S
C370 C372 1.356 . S
C370 H424 0.930 . S
C371 N369 1.279 . S
C371 C370 1.358 . S
C371 H375 0.930 . S
C372 C370 1.356 . S
C372 C373 1.348 . S
C373 C368 1.353 . S
C373 C372 1.348 . S
C373 H425 0.929 . S
H374 C368 0.930 . S
H375 C371 0.930 . S
C376 N377 1.314 . S
C376 C378 1.353 . S
C376 H382 0.930 . S
N377 Li353 1.990 . S
N377 C376 1.314 . S
N377 C380 1.279 . S
C378 C376 1.353 . S
C378 C381 1.348 . S
C378 H426 0.929 1_556 S
C379 C380 1.358 . S
C379 C381 1.356 . S
C379 H427 0.930 . S
C380 N377 1.279 . S
C380 C379 1.358 . S
C380 H383 0.930 . S
C381 C378 1.348 . S
C381 C379 1.356 . S
H382 C376 0.930 . S
H383 C380 0.930 . S
C384 C386 1.348 . S
C384 C387 1.356 . S
C384 O414 1.325 1_655 S
N385 C388 1.314 . S
N385 C389 1.279 . S
C386 C384 1.348 . S
C386 C388 1.353 . S
C386 H428 0.929 . S
C387 C384 1.356 . S
C387 C389 1.358 . S
C387 H429 0.930 1_655 S
C388 N385 1.314 . S
C388 C386 1.353 . S
C388 H430 0.930 . S
C389 N385 1.279 . S
C389 C387 1.358 . S
C389 H431 0.930 . S
C390 C391 1.348 . S
C390 C392 1.356 . S
C390 O415 1.325 . S
C391 C390 1.348 . S
C391 C393 1.345 1_456 S
C391 H432 0.929 . S
C392 C390 1.356 . S
C392 C394 1.358 1_556 S
C392 H433 0.930 . S
C393 C391 1.345 1_654 S
C393 N395 1.340 1_655 S
C393 H434 0.924 . S
C394 C392 1.358 1_554 S
C394 N395 1.276 . S
C394 H435 0.930 . S
N395 C393 1.340 1_455 S
N395 C394 1.276 . S
C396 C398 1.353 . S
C396 N399 1.314 . S
C396 H402 0.930 . S
C397 N399 1.279 . S
C397 C400 1.358 . S
C397 H403 0.930 1_455 S
C398 C396 1.353 . S
C398 C401 1.348 . S
C398 H436 0.929 . S
N399 Li354 1.990 . S
N399 C396 1.314 . S
N399 C397 1.279 . S
C400 C397 1.358 . S
C400 C401 1.356 . S
C400 H437 0.930 1_455 S
C401 C398 1.348 . S
C401 C400 1.356 . S
H402 C396 0.930 . S
H403 C397 0.930 1_655 S
C404 N405 1.314 . S
C404 C406 1.353 . S
C404 H410 0.930 . S
N405 Li355 1.990 1_655 S
N405 C404 1.314 . S
N405 C408 1.279 . S
C406 C404 1.353 . S
C406 C409 1.348 . S
C406 H438 0.929 . S
C407 C408 1.358 . S
C407 C409 1.356 . S
C407 H439 0.930 . S
C408 N405 1.279 . S
C408 C407 1.358 . S
C408 H411 0.930 . S
C409 C406 1.348 . S
C409 C407 1.356 . S
H410 C404 0.930 . S
H411 C408 0.930 . S
O412 Li352 1.956 . S
O412 Li353 1.970 . S
O412 Li354 1.961 . S
O412 C356 1.325 . S
O413 Li352 1.970 . S
O413 Li353 1.956 . S
O413 Li355 1.961 . S
O413 C362 1.325 . S
O414 Li352 1.961 . S
O414 Li354 1.956 . S
O414 Li355 1.970 . S
O414 C384 1.325 1_455 S
O415 Li353 1.961 . S
O415 Li354 1.970 . S
O415 Li355 1.956 . S
O415 C390 1.325 . S
H416 C358 0.929 . S
H417 C359 0.930 . S
H418 C360 0.930 . S
H419 C361 0.930 . S
H420 C363 0.930 . S
H421 C365 0.929 . S
H422 C366 0.930 . S
H423 C367 0.930 . S
H424 C370 0.930 . S
H425 C373 0.929 . S
H426 C378 0.929 1_554 S
H427 C379 0.930 . S
H428 C386 0.929 . S
H429 C387 0.930 1_455 S
H430 C388 0.930 . S
H431 C389 0.930 . S
H432 C391 0.929 . S
H433 C392 0.930 . S
H434 C393 0.924 . S
H435 C394 0.930 . S
H436 C398 0.929 . S
H437 C400 0.930 1_655 S
H438 C406 0.929 . S
H439 C407 0.930 . S
Li440 N457 1.990 . S
Li440 O500 1.956 . S
Li440 O501 1.970 . S
Li440 O502 1.961 . S
Li441 N465 1.990 . S
Li441 O500 1.970 . S
Li441 O501 1.956 . S
Li441 O503 1.961 . S
Li442 N487 1.990 . S
Li442 O500 1.961 . S
Li442 O502 1.956 . S
Li442 O503 1.970 . S
Li443 N493 1.990 . S
Li443 O501 1.961 . S
Li443 O502 1.970 . S
Li443 O503 1.956 . S
C444 C446 1.348 . S
C444 C447 1.356 . S
C444 O500 1.325 . S
N445 C448 1.314 . S
N445 C449 1.279 . S
C446 C444 1.348 . S
C446 C448 1.353 1_556 S
C446 H504 0.929 . S
C447 C444 1.356 . S
C447 C449 1.358 1_556 S
C447 H505 0.930 . S
C448 N445 1.314 . S
C448 C446 1.353 1_554 S
C448 H506 0.930 . S
C449 N445 1.279 . S
C449 C447 1.358 1_554 S
C449 H507 0.930 . S
C450 C453 1.348 . S
C450 C454 1.356 . S
C450 O501 1.325 . S
C451 N452 1.279 . S
C451 C454 1.358 . S
C451 H508 0.930 . S
N452 C451 1.279 . S
N452 C455 1.314 . S
C453 C450 1.348 . S
C453 C455 1.353 . S
C453 H509 0.929 . S
C454 C450 1.356 . S
C454 C451 1.358 . S
C454 H510 0.930 . S
C455 N452 1.314 . S
C455 C453 1.353 . S
C455 H511 0.930 . S
C456 N457 1.314 . S
C456 C461 1.353 . S
C456 H462 0.930 . S
N457 Li440 1.990 . S
N457 C456 1.314 . S
N457 C459 1.279 . S
C458 C459 1.358 . S
C458 C460 1.356 . S
C458 H512 0.930 1_556 S
C459 N457 1.279 . S
C459 C458 1.358 . S
C459 H463 0.930 . S
C460 C458 1.356 . S
C460 C461 1.348 . S
C461 C456 1.353 . S
C461 C460 1.348 . S
C461 H513 0.929 . S
H462 C456 0.930 . S
H463 C459 0.930 . S
C464 N465 1.314 . S
C464 C466 1.353 . S
C464 H470 0.930 . S
N465 Li441 1.990 . S
N465 C464 1.314 . S
N465 C468 1.279 . S
C466 C464 1.353 . S
C466 C469 1.348 . S
C466 H514 0.929 . S
C467 C468 1.358 . S
C467 C469 1.356 . S
C467 H515 0.930 . S
C468 N465 1.279 . S
C468 C467 1.358 . S
C468 H471 0.930 . S
C469 C466 1.348 . S
C469 C467 1.356 . S
H470 C464 0.930 . S
H471 C468 0.930 . S
C472 C474 1.348 . S
C472 C475 1.356 . S
C472 O502 1.325 . S
N473 C476 1.314 . S
N473 C477 1.279 . S
C474 C472 1.348 . S
C474 C476 1.353 . S
C474 H516 0.929 . S
C475 C472 1.356 . S
C475 C477 1.358 . S
C475 H517 0.930 . S
C476 N473 1.314 . S
C476 C474 1.353 . S
C476 H518 0.930 . S
C477 N473 1.279 . S
C477 C475 1.358 . S
C477 H519 0.930 . S
C478 C479 1.348 . S
C478 C480 1.356 . S
C478 O503 1.325 . S
C479 C478 1.348 . S
C479 C481 1.353 . S
C479 H520 0.929 . S
C480 C478 1.356 . S
C480 C482 1.358 . S
C480 H521 0.930 . S
C481 C479 1.353 . S
C481 N483 1.314 . S
C481 H522 0.930 . S
C482 C480 1.358 . S
C482 N483 1.279 . S
C482 H523 0.930 . S
N483 C481 1.314 . S
N483 C482 1.279 . S
C484 C486 1.353 . S
C484 N487 1.314 . S
C484 H490 0.930 . S
C485 N487 1.279 . S
C485 C488 1.358 . S
C485 H491 0.930 . S
C486 C484 1.353 . S
C486 C489 1.348 . S
C486 H524 0.929 . S
N487 Li442 1.990 . S
N487 C484 1.314 . S
N487 C485 1.279 . S
C488 C485 1.358 . S
C488 C489 1.356 . S
C488 H525 0.930 . S
C489 C486 1.348 . S
C489 C488 1.356 . S
H490 C484 0.930 . S
H491 C485 0.930 . S
C492 N493 1.314 . S
C492 C494 1.353 . S
C492 H498 0.930 . S
N493 Li443 1.990 . S
N493 C492 1.314 . S
N493 C496 1.279 . S
C494 C492 1.353 . S
C494 C497 1.348 . S
C494 H526 0.929 . S
C495 C496 1.358 . S
C495 C497 1.356 . S
C495 H527 0.930 . S
C496 N493 1.279 . S
C496 C495 1.358 . S
C496 H499 0.930 . S
C497 C494 1.348 . S
C497 C495 1.356 . S
H498 C492 0.930 . S
H499 C496 0.930 . S
O500 Li440 1.956 . S
O500 Li441 1.970 . S
O500 Li442 1.961 . S
O500 C444 1.325 . S
O501 Li440 1.970 . S
O501 Li441 1.956 . S
O501 Li443 1.961 . S
O501 C450 1.325 . S
O502 Li440 1.961 . S
O502 Li442 1.956 . S
O502 Li443 1.970 . S
O502 C472 1.325 . S
O503 Li441 1.961 . S
O503 Li442 1.970 . S
O503 Li443 1.956 . S
O503 C478 1.325 . S
H504 C446 0.929 . S
H505 C447 0.930 . S
H506 C448 0.930 . S
H507 C449 0.930 . S
H508 C451 0.930 . S
H509 C453 0.929 . S
H510 C454 0.930 . S
H511 C455 0.930 . S
H512 C458 0.930 1_554 S
H513 C461 0.929 . S
H514 C466 0.929 . S
H515 C467 0.930 . S
H516 C474 0.929 . S
H517 C475 0.930 . S
H518 C476 0.930 . S
H519 C477 0.930 . S
H520 C479 0.929 . S
H521 C480 0.930 . S
H522 C481 0.930 . S
H523 C482 0.930 . S
H524 C486 0.929 . S
H525 C488 0.930 . S
H526 C494 0.929 . S
H527 C495 0.930 . S
Li528 N545 1.981 . S
Li528 O588 1.974 . S
Li528 O589 1.957 1_455 S
Li528 O590 1.971 1_455 S
Li529 N553 1.997 . S
Li529 O588 1.949 1_655 S
Li529 O589 1.988 . S
Li529 O591 1.939 1_655 S
Li530 N575 1.990 . S
Li530 O588 1.961 . S
Li530 O590 1.956 1_455 S
Li530 O591 1.970 . S
Li531 N581 1.990 . S
Li531 O589 1.961 . S
Li531 O590 1.970 . S
Li531 O591 1.956 1_655 S
C532 C534 1.348 . S
C532 C535 1.356 . S
C532 O588 1.325 . S
N533 C536 1.314 . S
N533 C537 1.279 . S
C534 C532 1.348 . S
C534 C536 1.353 . S
C534 H592 0.929 . S
C535 C532 1.356 . S
C535 C537 1.358 . S
C535 H593 0.930 . S
C536 N533 1.314 . S
C536 C534 1.353 . S
C536 H594 0.930 . S
C537 N533 1.279 . S
C537 C535 1.358 . S
C537 H595 0.930 . S
C538 C541 1.348 . S
C538 C542 1.356 . S
C538 O589 1.325 . S
C539 N540 1.279 . S
C539 C542 1.358 . S
C539 H596 0.930 . S
N540 C539 1.279 . S
N540 C543 1.314 . S
C541 C538 1.348 . S
C541 C543 1.353 . S
C541 H597 0.929 . S
C542 C538 1.356 . S
C542 C539 1.358 . S
C542 H598 0.930 . S
C543 N540 1.314 . S
C543 C541 1.353 . S
C543 H599 0.930 . S
C544 N545 1.314 1_655 S
C544 C549 1.353 . S
C544 H550 0.930 . S
N545 Li528 1.981 . S
N545 C544 1.314 1_455 S
N545 C547 1.279 . S
C546 C547 1.358 . S
C546 C548 1.356 1_455 S
C546 H600 0.930 . S
C547 N545 1.279 . S
C547 C546 1.358 . S
C547 H551 0.930 . S
C548 C546 1.356 1_655 S
C548 C549 1.348 . S
C549 C544 1.353 . S
C549 C548 1.348 . S
C549 H601 0.929 . S
H550 C544 0.930 . S
H551 C547 0.930 . S
C552 N553 1.314 1_455 S
C552 C554 1.353 . S
C552 H558 0.930 . S
N553 Li529 1.997 . S
N553 C552 1.314 1_655 S
N553 C556 1.279 . S
C554 C552 1.353 . S
C554 C557 1.348 . S
C554 H602 0.929 . S
C555 C556 1.358 . S
C555 C557 1.356 1_655 S
C555 H603 0.930 . S
C556 N553 1.279 . S
C556 C555 1.358 . S
C556 H559 0.930 . S
C557 C554 1.348 . S
C557 C555 1.356 1_455 S
H558 C552 0.930 . S
H559 C556 0.930 . S
C560 C562 1.349 . S
C560 C563 1.350 1_655 S
C560 O590 1.328 . S
N561 C564 1.314 1_455 S
N561 C565 1.279 . S
C562 C560 1.349 . S
C562 C564 1.353 . S
C562 H604 0.929 . S
C563 C560 1.350 1_455 S
C563 C565 1.358 . S
C563 H605 0.930 . S
C564 N561 1.314 1_655 S
C564 C562 1.353 . S
C564 H606 0.930 . S
C565 N561 1.279 . S
C565 C563 1.358 . S
C565 H607 0.930 . S
C566 C567 1.348 . S
C566 C568 1.356 1_455 S
C566 O591 1.325 . S
C567 C566 1.348 . S
C567 C569 1.353 . S
C567 H608 0.929 . S
C568 C566 1.356 1_655 S
C568 C570 1.358 . S
C568 H609 0.930 . S
C569 C567 1.353 . S
C569 N571 1.309 1_455 S
C569 H610 0.930 . S
C570 C568 1.358 . S
C570 N571 1.291 . S
C570 H611 0.930 . S
N571 C569 1.309 1_655 S
N571 C570 1.291 . S
C572 C574 1.353 . S
C572 N575 1.314 . S
C572 H578 0.930 . S
C573 N575 1.279 . S
C573 C576 1.358 . S
C573 H579 0.930 . S
C574 C572 1.353 . S
C574 C577 1.348 . S
C574 H612 0.929 . S
N575 Li530 1.990 . S
N575 C572 1.314 . S
N575 C573 1.279 . S
C576 C573 1.358 . S
C576 C577 1.356 . S
C576 H613 0.930 . S
C577 C574 1.348 . S
C577 C576 1.356 . S
H578 C572 0.930 . S
H579 C573 0.930 . S
C580 N581 1.314 . S
C580 C582 1.353 . S
C580 H586 0.930 . S
N581 Li531 1.990 . S
N581 C580 1.314 . S
N581 C584 1.279 . S
C582 C580 1.353 . S
C582 C585 1.348 . S
C582 H614 0.929 . S
C583 C584 1.358 . S
C583 C585 1.356 . S
C583 H615 0.930 . S
C584 N581 1.279 . S
C584 C583 1.358 . S
C584 H587 0.930 . S
C585 C582 1.348 . S
C585 C583 1.356 . S
H586 C580 0.930 . S
H587 C584 0.930 . S
O588 Li528 1.974 . S
O588 Li529 1.949 1_455 S
O588 Li530 1.961 . S
O588 C532 1.325 . S
O589 Li528 1.957 1_655 S
O589 Li529 1.988 . S
O589 Li531 1.961 . S
O589 C538 1.325 . S
O590 Li528 1.971 1_655 S
O590 Li530 1.956 1_655 S
O590 Li531 1.970 . S
O590 C560 1.328 . S
O591 Li529 1.939 1_455 S
O591 Li530 1.970 . S
O591 Li531 1.956 1_455 S
O591 C566 1.325 . S
H592 C534 0.929 . S
H593 C535 0.930 . S
H594 C536 0.930 . S
H595 C537 0.930 . S
H596 C539 0.930 . S
H597 C541 0.929 . S
H598 C542 0.930 . S
H599 C543 0.930 . S
H600 C546 0.930 . S
H601 C549 0.929 . S
H602 C554 0.929 . S
H603 C555 0.930 . S
H604 C562 0.929 . S
H605 C563 0.930 . S
H606 C564 0.930 . S
H607 C565 0.930 . S
H608 C567 0.929 . S
H609 C568 0.930 . S
H610 C569 0.930 . S
H611 C570 0.930 . S
H612 C574 0.929 . S
H613 C576 0.930 . S
H614 C582 0.929 . S
H615 C583 0.930 . S
Li616 N633 1.990 . S
Li616 O676 1.956 . S
Li616 O677 1.970 . S
Li616 O678 1.961 . S
Li617 N641 1.990 . S
Li617 O676 1.970 . S
Li617 O677 1.956 . S
Li617 O679 1.961 . S
Li618 N663 1.990 . S
Li618 O676 1.961 . S
Li618 O678 1.956 . S
Li618 O679 1.970 . S
Li619 N669 1.990 . S
Li619 O677 1.961 . S
Li619 O678 1.970 . S
Li619 O679 1.956 . S
C620 C622 1.348 . S
C620 C623 1.356 . S
C620 O676 1.325 . S
N621 C624 1.314 . S
N621 C625 1.279 . S
C622 C620 1.348 . S
C622 C624 1.353 . S
C622 H680 0.929 . S
C623 C620 1.356 . S
C623 C625 1.358 . S
C623 H681 0.930 . S
C624 N621 1.314 . S
C624 C622 1.353 . S
C624 H682 0.930 . S
C625 N621 1.279 . S
C625 C623 1.358 . S
C625 H683 0.930 . S
C626 C629 1.348 . S
C626 C630 1.356 . S
C626 O677 1.325 . S
C627 N628 1.279 . S
C627 C630 1.358 . S
C627 H684 0.930 . S
N628 C627 1.279 . S
N628 C631 1.314 . S
C629 C626 1.348 . S
C629 C631 1.353 . S
C629 H685 0.929 . S
C630 C626 1.356 . S
C630 C627 1.358 . S
C630 H686 0.930 . S
C631 N628 1.314 . S
C631 C629 1.353 . S
C631 H687 0.930 . S
C632 N633 1.314 . S
C632 C637 1.353 . S
C632 H638 0.930 . S
N633 Li616 1.990 . S
N633 C632 1.314 . S
N633 C635 1.279 . S
C634 C635 1.358 . S
C634 C636 1.356 . S
C634 H688 0.930 . S
C635 N633 1.279 . S
C635 C634 1.358 . S
C635 H639 0.930 . S
C636 C634 1.356 . S
C636 C637 1.348 . S
C637 C632 1.353 . S
C637 C636 1.348 . S
C637 H689 0.929 . S
H638 C632 0.930 . S
H639 C635 0.930 . S
C640 N641 1.314 . S
C640 C642 1.353 . S
C640 H646 0.930 . S
N641 Li617 1.990 . S
N641 C640 1.314 . S
N641 C644 1.279 . S
C642 C640 1.353 . S
C642 C645 1.348 . S
C642 H690 0.929 . S
C643 C644 1.358 . S
C643 C645 1.356 . S
C643 H691 0.930 . S
C644 N641 1.279 . S
C644 C643 1.358 . S
C644 H647 0.930 . S
C645 C642 1.348 . S
C645 C643 1.356 . S
H646 C640 0.930 . S
H647 C644 0.930 . S
C648 C650 1.348 . S
C648 C651 1.356 . S
C648 O678 1.325 . S
N649 C652 1.314 . S
N649 C653 1.279 . S
C650 C648 1.348 . S
C650 C652 1.353 . S
C650 H692 0.929 . S
C651 C648 1.356 . S
C651 C653 1.358 . S
C651 H693 0.930 . S
C652 N649 1.314 . S
C652 C650 1.353 . S
C652 H694 0.930 . S
C653 N649 1.279 . S
C653 C651 1.358 . S
C653 H695 0.930 . S
C654 C655 1.348 . S
C654 C656 1.356 . S
C654 O679 1.325 . S
C655 C654 1.348 . S
C655 C657 1.353 . S
C655 H696 0.929 . S
C656 C654 1.356 . S
C656 C658 1.358 . S
C656 H697 0.930 . S
C657 C655 1.353 . S
C657 N659 1.314 . S
C657 H698 0.930 . S
C658 C656 1.358 . S
C658 N659 1.279 . S
C658 H699 0.930 . S
N659 C657 1.314 . S
N659 C658 1.279 . S
C660 C662 1.353 . S
C660 N663 1.314 . S
C660 H666 0.930 . S
C661 N663 1.279 . S
C661 C664 1.358 . S
C661 H667 0.930 . S
C662 C660 1.353 . S
C662 C665 1.348 . S
C662 H700 0.929 . S
N663 Li618 1.990 . S
N663 C660 1.314 . S
N663 C661 1.279 . S
C664 C661 1.358 . S
C664 C665 1.356 . S
C664 H701 0.930 . S
C665 C662 1.348 . S
C665 C664 1.356 . S
H666 C660 0.930 . S
H667 C661 0.930 . S
C668 N669 1.314 . S
C668 C670 1.353 . S
C668 H674 0.930 . S
N669 Li619 1.990 . S
N669 C668 1.314 . S
N669 C672 1.279 . S
C670 C668 1.353 . S
C670 C673 1.348 . S
C670 H702 0.929 . S
C671 C672 1.358 . S
C671 C673 1.356 . S
C671 H703 0.930 . S
C672 N669 1.279 . S
C672 C671 1.358 . S
C672 H675 0.930 . S
C673 C670 1.348 . S
C673 C671 1.356 . S
H674 C668 0.930 . S
H675 C672 0.930 . S
O676 Li616 1.956 . S
O676 Li617 1.970 . S
O676 Li618 1.961 . S
O676 C620 1.325 . S
O677 Li616 1.970 . S
O677 Li617 1.956 . S
O677 Li619 1.961 . S
O677 C626 1.325 . S
O678 Li616 1.961 . S
O678 Li618 1.956 . S
O678 Li619 1.970 . S
O678 C648 1.325 . S
O679 Li617 1.961 . S
O679 Li618 1.970 . S
O679 Li619 1.956 . S
O679 C654 1.325 . S
H680 C622 0.929 . S
H681 C623 0.930 . S
H682 C624 0.930 . S
H683 C625 0.930 . S
H684 C627 0.930 . S
H685 C629 0.929 . S
H686 C630 0.930 . S
H687 C631 0.930 . S
H688 C634 0.930 . S
H689 C637 0.929 . S
H690 C642 0.929 . S
H691 C643 0.930 . S
H692 C650 0.929 . S
H693 C651 0.930 . S
H694 C652 0.930 . S
H695 C653 0.930 . S
H696 C655 0.929 . S
H697 C656 0.930 . S
H698 C657 0.930 . S
H699 C658 0.930 . S
H700 C662 0.929 . S
H701 C664 0.930 . S
H702 C670 0.929 . S
H703 C671 0.930 . S
Li704 N721 1.990 . S
Li704 O764 1.956 . S
Li704 O765 1.957 1_545 S
Li704 O766 1.958 . S
Li705 N729 1.990 . S
Li705 O764 1.970 1_565 S
Li705 O765 1.971 . S
Li705 O767 1.961 . S
Li706 N751 1.990 . S
Li706 O764 1.961 . S
Li706 O766 1.958 . S
Li706 O767 1.970 1_545 S
Li707 N757 1.990 . S
Li707 O765 1.984 . S
Li707 O766 1.973 1_565 S
Li707 O767 1.956 . S
C708 C710 1.348 . S
C708 C711 1.356 . S
C708 O764 1.325 . S
N709 C712 1.314 . S
N709 C713 1.279 . S
C710 C708 1.348 . S
C710 C712 1.353 . S
C710 H768 0.929 . S
C711 C708 1.356 . S
C711 C713 1.358 . S
C711 H769 0.930 . S
C712 N709 1.314 . S
C712 C710 1.353 . S
C712 H770 0.930 . S
C713 N709 1.279 . S
C713 C711 1.358 . S
C713 H771 0.930 . S
C714 C717 1.348 1_565 S
C714 C718 1.356 . S
C714 O765 1.314 . S
C715 N716 1.279 . S
C715 C718 1.358 . S
C715 H772 0.930 . S
N716 C715 1.279 . S
N716 C719 1.314 1_565 S
C717 C714 1.348 1_545 S
C717 C719 1.353 . S
C717 H773 0.929 . S
C718 C714 1.356 . S
C718 C715 1.358 . S
C718 H774 0.930 . S
C719 N716 1.314 1_545 S
C719 C717 1.353 . S
C719 H775 0.930 . S
C720 N721 1.314 . S
C720 C725 1.353 . S
C720 H726 0.930 . S
N721 Li704 1.990 . S
N721 C720 1.314 . S
N721 C723 1.279 . S
C722 C723 1.358 . S
C722 C724 1.356 . S
C722 H776 0.930 . S
C723 N721 1.279 . S
C723 C722 1.358 . S
C723 H727 0.930 . S
C724 C722 1.356 . S
C724 C725 1.348 . S
C725 C720 1.353 . S
C725 C724 1.348 . S
C725 H777 0.929 . S
H726 C720 0.930 . S
H727 C723 0.930 . S
C728 N729 1.314 . S
C728 C730 1.353 . S
C728 H734 0.930 . S
N729 Li705 1.990 . S
N729 C728 1.314 . S
N729 C732 1.279 1_565 S
C730 C728 1.353 . S
C730 C733 1.348 . S
C730 H778 0.929 . S
C731 C732 1.358 . S
C731 C733 1.356 1_545 S
C731 H779 0.930 . S
C732 N729 1.279 1_545 S
C732 C731 1.358 . S
C732 H735 0.930 . S
C733 C730 1.348 . S
C733 C731 1.356 1_565 S
H734 C728 0.930 . S
H735 C732 0.930 . S
C736 C738 1.326 1_545 S
C736 C739 1.381 . S
C736 O766 1.320 . S
N737 C740 1.314 1_545 S
N737 C741 1.279 . S
C738 C736 1.326 1_565 S
C738 C740 1.353 . S
C738 H780 0.929 . S
C739 C736 1.381 . S
C739 C741 1.358 . S
C739 H781 0.930 . S
C740 N737 1.314 1_565 S
C740 C738 1.353 . S
C740 H782 0.930 . S
C741 N737 1.279 . S
C741 C739 1.358 . S
C741 H783 0.930 . S
C742 C743 1.348 . S
C742 C744 1.356 . S
C742 O767 1.325 . S
C743 C742 1.348 . S
C743 C745 1.353 . S
C743 H784 0.929 . S
C744 C742 1.356 . S
C744 C746 1.358 . S
C744 H785 0.930 . S
C745 C743 1.353 . S
C745 N747 1.314 . S
C745 H786 0.930 . S
C746 C744 1.358 . S
C746 N747 1.279 . S
C746 H787 0.930 . S
N747 C745 1.314 . S
N747 C746 1.279 . S
C748 C750 1.353 . S
C748 N751 1.314 . S
C748 H754 0.930 . S
C749 N751 1.279 1_565 S
C749 C752 1.358 . S
C749 H755 0.930 . S
C750 C748 1.353 . S
C750 C753 1.348 . S
C750 H788 0.929 . S
N751 Li706 1.990 . S
N751 C748 1.314 . S
N751 C749 1.279 1_545 S
C752 C749 1.358 . S
C752 C753 1.356 1_565 S
C752 H789 0.930 . S
C753 C750 1.348 . S
C753 C752 1.356 1_545 S
H754 C748 0.930 . S
H755 C749 0.930 . S
C756 N757 1.314 . S
C756 C758 1.353 . S
C756 H762 0.930 . S
N757 Li707 1.990 . S
N757 C756 1.314 . S
N757 C760 1.279 . S
C758 C756 1.353 . S
C758 C761 1.348 . S
C758 H790 0.929 . S
C759 C760 1.358 . S
C759 C761 1.356 . S
C759 H791 0.930 . S
C760 N757 1.279 . S
C760 C759 1.358 . S
C760 H763 0.930 . S
C761 C758 1.348 . S
C761 C759 1.356 . S
H762 C756 0.930 . S
H763 C760 0.930 . S
O764 Li704 1.956 . S
O764 Li705 1.970 1_545 S
O764 Li706 1.961 . S
O764 C708 1.325 . S
O765 Li704 1.957 1_565 S
O765 Li705 1.971 . S
O765 Li707 1.984 . S
O765 C714 1.314 . S
O766 Li704 1.958 . S
O766 Li706 1.958 . S
O766 Li707 1.973 1_545 S
O766 C736 1.320 . S
O767 Li705 1.961 . S
O767 Li706 1.970 1_565 S
O767 Li707 1.956 . S
O767 C742 1.325 . S
H768 C710 0.929 . S
H769 C711 0.930 . S
H770 C712 0.930 . S
H771 C713 0.930 . S
H772 C715 0.930 . S
H773 C717 0.929 . S
H774 C718 0.930 . S
H775 C719 0.930 . S
H776 C722 0.930 . S
H777 C725 0.929 . S
H778 C730 0.929 . S
H779 C731 0.930 . S
H780 C738 0.929 . S
H781 C739 0.930 . S
H782 C740 0.930 . S
H783 C741 0.930 . S
H784 C743 0.929 . S
H785 C744 0.930 . S
H786 C745 0.930 . S
H787 C746 0.930 . S
H788 C750 0.929 . S
H789 C752 0.930 . S
H790 C758 0.929 . S
H791 C759 0.930 . S
Li792 N809 1.990 . S
Li792 O852 1.956 . S
Li792 O853 1.970 . S
Li792 O854 1.961 . S
Li793 N817 1.990 . S
Li793 O852 1.970 . S
Li793 O853 1.956 . S
Li793 O855 1.961 . S
Li794 N839 1.990 . S
Li794 O852 1.961 . S
Li794 O854 1.956 . S
Li794 O855 1.970 . S
Li795 N845 1.990 . S
Li795 O853 1.961 . S
Li795 O854 1.970 . S
Li795 O855 1.956 . S
C796 C798 1.348 . S
C796 C799 1.356 . S
C796 O852 1.325 . S
N797 C800 1.314 . S
N797 C801 1.279 . S
C798 C796 1.348 . S
C798 C800 1.353 . S
C798 H856 0.929 . S
C799 C796 1.356 . S
C799 C801 1.358 . S
C799 H857 0.930 . S
C800 N797 1.314 . S
C800 C798 1.353 . S
C800 H858 0.930 . S
C801 N797 1.279 . S
C801 C799 1.358 . S
C801 H859 0.930 . S
C802 C805 1.348 . S
C802 C806 1.356 . S
C802 O853 1.325 . S
C803 N804 1.279 . S
C803 C806 1.358 . S
C803 H860 0.930 . S
N804 C803 1.279 . S
N804 C807 1.314 . S
C805 C802 1.348 . S
C805 C807 1.353 . S
C805 H861 0.929 . S
C806 C802 1.356 . S
C806 C803 1.358 . S
C806 H862 0.930 . S
C807 N804 1.314 . S
C807 C805 1.353 . S
C807 H863 0.930 . S
C808 N809 1.314 . S
C808 C813 1.353 . S
C808 H814 0.930 . S
N809 Li792 1.990 . S
N809 C808 1.314 . S
N809 C811 1.279 . S
C810 C811 1.358 . S
C810 C812 1.356 . S
C810 H864 0.930 . S
C811 N809 1.279 . S
C811 C810 1.358 . S
C811 H815 0.930 . S
C812 C810 1.356 . S
C812 C813 1.348 . S
C813 C808 1.353 . S
C813 C812 1.348 . S
C813 H865 0.929 . S
H814 C808 0.930 . S
H815 C811 0.930 . S
C816 N817 1.314 . S
C816 C818 1.353 . S
C816 H822 0.930 . S
N817 Li793 1.990 . S
N817 C816 1.314 . S
N817 C820 1.279 . S
C818 C816 1.353 . S
C818 C821 1.348 . S
C818 H866 0.929 . S
C819 C820 1.358 . S
C819 C821 1.356 . S
C819 H867 0.930 . S
C820 N817 1.279 . S
C820 C819 1.358 . S
C820 H823 0.930 . S
C821 C818 1.348 . S
C821 C819 1.356 . S
H822 C816 0.930 . S
H823 C820 0.930 . S
C824 C826 1.348 . S
C824 C827 1.356 . S
C824 O854 1.325 . S
N825 C828 1.314 . S
N825 C829 1.279 . S
C826 C824 1.348 . S
C826 C828 1.353 . S
C826 H868 0.929 . S
C827 C824 1.356 . S
C827 C829 1.358 . S
C827 H869 0.930 . S
C828 N825 1.314 . S
C828 C826 1.353 . S
C828 H870 0.930 . S
C829 N825 1.279 . S
C829 C827 1.358 . S
C829 H871 0.930 . S
C830 C831 1.348 . S
C830 C832 1.356 . S
C830 O855 1.325 . S
C831 C830 1.348 . S
C831 C833 1.353 . S
C831 H872 0.929 . S
C832 C830 1.356 . S
C832 C834 1.358 . S
C832 H873 0.930 . S
C833 C831 1.353 . S
C833 N835 1.314 . S
C833 H874 0.930 . S
C834 C832 1.358 . S
C834 N835 1.279 . S
C834 H875 0.930 . S
N835 C833 1.314 . S
N835 C834 1.279 . S
C836 C838 1.353 . S
C836 N839 1.314 . S
C836 H842 0.930 . S
C837 N839 1.279 . S
C837 C840 1.358 . S
C837 H843 0.930 . S
C838 C836 1.353 . S
C838 C841 1.348 . S
C838 H876 0.929 . S
N839 Li794 1.990 . S
N839 C836 1.314 . S
N839 C837 1.279 . S
C840 C837 1.358 . S
C840 C841 1.356 . S
C840 H877 0.930 . S
C841 C838 1.348 . S
C841 C840 1.356 . S
H842 C836 0.930 . S
H843 C837 0.930 . S
C844 N845 1.314 . S
C844 C846 1.353 . S
C844 H850 0.930 . S
N845 Li795 1.990 . S
N845 C844 1.314 . S
N845 C848 1.279 . S
C846 C844 1.353 . S
C846 C849 1.348 . S
C846 H878 0.929 . S
C847 C848 1.358 . S
C847 C849 1.356 . S
C847 H879 0.930 . S
C848 N845 1.279 . S
C848 C847 1.358 . S
C848 H851 0.930 . S
C849 C846 1.348 . S
C849 C847 1.356 . S
H850 C844 0.930 . S
H851 C848 0.930 . S
O852 Li792 1.956 . S
O852 Li793 1.970 . S
O852 Li794 1.961 . S
O852 C796 1.325 . S
O853 Li792 1.970 . S
O853 Li793 1.956 . S
O853 Li795 1.961 . S
O853 C802 1.325 . S
O854 Li792 1.961 . S
O854 Li794 1.956 . S
O854 Li795 1.970 . S
O854 C824 1.325 . S
O855 Li793 1.961 . S
O855 Li794 1.970 . S
O855 Li795 1.956 . S
O855 C830 1.325 . S
H856 C798 0.929 . S
H857 C799 0.930 . S
H858 C800 0.930 . S
H859 C801 0.930 . S
H860 C803 0.930 . S
H861 C805 0.929 . S
H862 C806 0.930 . S
H863 C807 0.930 . S
H864 C810 0.930 . S
H865 C813 0.929 . S
H866 C818 0.929 . S
H867 C819 0.930 . S
H868 C826 0.929 . S
H869 C827 0.930 . S
H870 C828 0.930 . S
H871 C829 0.930 . S
H872 C831 0.929 . S
H873 C832 0.930 . S
H874 C833 0.930 . S
H875 C834 0.930 . S
H876 C838 0.929 . S
H877 C840 0.930 . S
H878 C846 0.929 . S
H879 C847 0.930 . S
Li880 N897 1.990 . S
Li880 O940 1.956 . S
Li880 O941 1.970 . S
Li880 O942 1.961 . S
Li881 N905 1.990 . S
Li881 O940 1.970 . S
Li881 O941 1.956 . S
Li881 O943 1.961 . S
Li882 N927 1.990 1_545 S
Li882 O940 1.961 . S
Li882 O942 1.956 . S
Li882 O943 1.970 . S
Li883 N933 1.990 . S
Li883 O941 1.961 . S
Li883 O942 1.970 . S
Li883 O943 1.956 . S
C884 C886 1.348 . S
C884 C887 1.356 . S
C884 O940 1.325 . S
N885 C888 1.314 . S
N885 C889 1.279 . S
C886 C884 1.348 . S
C886 C888 1.353 . S
C886 H944 0.929 . S
C887 C884 1.356 . S
C887 C889 1.358 . S
C887 H945 0.930 . S
C888 N885 1.314 . S
C888 C886 1.353 . S
C888 H946 0.930 . S
C889 N885 1.279 . S
C889 C887 1.358 . S
C889 H947 0.930 . S
C890 C893 1.348 . S
C890 C894 1.356 . S
C890 O941 1.325 . S
C891 N892 1.279 . S
C891 C894 1.358 . S
C891 H948 0.930 . S
N892 C891 1.279 . S
N892 C895 1.314 . S
C893 C890 1.348 . S
C893 C895 1.353 . S
C893 H949 0.929 . S
C894 C890 1.356 . S
C894 C891 1.358 . S
C894 H950 0.930 . S
C895 N892 1.314 . S
C895 C893 1.353 . S
C895 H951 0.930 . S
C896 N897 1.314 . S
C896 C901 1.353 . S
C896 H902 0.930 . S
N897 Li880 1.990 . S
N897 C896 1.314 . S
N897 C899 1.279 . S
C898 C899 1.358 . S
C898 C900 1.356 . S
C898 H952 0.930 . S
C899 N897 1.279 . S
C899 C898 1.358 . S
C899 H903 0.930 . S
C900 C898 1.356 . S
C900 C901 1.348 . S
C901 C896 1.353 . S
C901 C900 1.348 . S
C901 H953 0.929 . S
H902 C896 0.930 . S
H903 C899 0.930 . S
C904 N905 1.314 . S
C904 C906 1.353 . S
C904 H910 0.930 . S
N905 Li881 1.990 . S
N905 C904 1.314 . S
N905 C908 1.279 . S
C906 C904 1.353 . S
C906 C909 1.348 . S
C906 H954 0.929 . S
C907 C908 1.358 . S
C907 C909 1.356 . S
C907 H955 0.930 . S
C908 N905 1.279 . S
C908 C907 1.358 . S
C908 H911 0.930 . S
C909 C906 1.348 . S
C909 C907 1.356 . S
H910 C904 0.930 . S
H911 C908 0.930 . S
C912 C914 1.348 . S
C912 C915 1.356 . S
C912 O942 1.325 1_565 S
N913 C916 1.314 . S
N913 C917 1.279 . S
C914 C912 1.348 . S
C914 C916 1.353 . S
C914 H956 0.929 . S
C915 C912 1.356 . S
C915 C917 1.358 . S
C915 H957 0.930 . S
C916 N913 1.314 . S
C916 C914 1.353 . S
C916 H958 0.930 . S
C917 N913 1.279 . S
C917 C915 1.358 . S
C917 H959 0.930 . S
C918 C919 1.379 . S
C918 C920 1.356 . S
C918 O943 1.325 . S
C919 C918 1.379 . S
C919 C921 1.352 1_545 S
C919 H960 0.901 1_545 S
C920 C918 1.356 . S
C920 C922 1.358 . S
C920 H961 0.930 . S
C921 C919 1.352 1_565 S
C921 N923 1.314 1_565 S
C921 H962 0.930 . S
C922 C920 1.358 . S
C922 N923 1.279 . S
C922 H963 0.930 . S
N923 C921 1.314 1_545 S
N923 C922 1.279 . S
C924 C926 1.353 . S
C924 N927 1.314 . S
C924 H930 0.930 . S
C925 N927 1.279 . S
C925 C928 1.358 . S
C925 H931 0.930 . S
C926 C924 1.353 . S
C926 C929 1.348 . S
C926 H964 0.929 . S
N927 Li882 1.990 1_565 S
N927 C924 1.314 . S
N927 C925 1.279 . S
C928 C925 1.358 . S
C928 C929 1.356 . S
C928 H965 0.930 . S
C929 C926 1.348 . S
C929 C928 1.356 . S
H930 C924 0.930 . S
H931 C925 0.930 . S
C932 N933 1.314 . S
C932 C934 1.353 . S
C932 H938 0.930 . S
N933 Li883 1.990 . S
N933 C932 1.314 . S
N933 C936 1.279 . S
C934 C932 1.353 . S
C934 C937 1.348 . S
C934 H966 0.929 . S
C935 C936 1.358 . S
C935 C937 1.356 . S
C935 H967 0.930 . S
C936 N933 1.279 . S
C936 C935 1.358 . S
C936 H939 0.930 . S
C937 C934 1.348 . S
C937 C935 1.356 . S
H938 C932 0.930 . S
H939 C936 0.930 . S
O940 Li880 1.956 . S
O940 Li881 1.970 . S
O940 Li882 1.961 . S
O940 C884 1.325 . S
O941 Li880 1.970 . S
O941 Li881 1.956 . S
O941 Li883 1.961 . S
O941 C890 1.325 . S
O942 Li880 1.961 . S
O942 Li882 1.956 . S
O942 Li883 1.970 . S
O942 C912 1.325 1_545 S
O943 Li881 1.961 . S
O943 Li882 1.970 . S
O943 Li883 1.956 . S
O943 C918 1.325 . S
H944 C886 0.929 . S
H945 C887 0.930 . S
H946 C888 0.930 . S
H947 C889 0.930 . S
H948 C891 0.930 . S
H949 C893 0.929 . S
H950 C894 0.930 . S
H951 C895 0.930 . S
H952 C898 0.930 . S
H953 C901 0.929 . S
H954 C906 0.929 . S
H955 C907 0.930 . S
H956 C914 0.929 . S
H957 C915 0.930 . S
H958 C916 0.930 . S
H959 C917 0.930 . S
H960 C919 0.901 1_565 S
H961 C920 0.930 . S
H962 C921 0.930 . S
H963 C922 0.930 . S
H964 C926 0.929 . S
H965 C928 0.930 . S
H966 C934 0.929 . S
H967 C935 0.930 . S
Li968 N985 1.990 . S
Li968 O1028 1.956 . S
Li968 O1029 1.970 . S
Li968 O1030 1.961 . S
Li969 N993 1.990 . S
Li969 O1028 1.970 . S
Li969 O1029 1.956 . S
Li969 O1031 1.961 . S
Li970 N1015 1.990 1_655 S
Li970 O1028 1.961 . S
Li970 O1030 1.956 . S
Li970 O1031 1.970 . S
Li971 N1021 1.990 . S
Li971 O1029 1.961 . S
Li971 O1030 1.970 . S
Li971 O1031 1.956 . S
C972 C974 1.348 . S
C972 C975 1.356 . S
C972 O1028 1.325 . S
N973 C976 1.314 . S
N973 C977 1.279 . S
C974 C972 1.348 . S
C974 C976 1.353 . S
C974 H1032 0.929 . S
C975 C972 1.356 . S
C975 C977 1.358 . S
C975 H1033 0.930 . S
C976 N973 1.314 . S
C976 C974 1.353 . S
C976 H1034 0.930 . S
C977 N973 1.279 . S
C977 C975 1.358 . S
C977 H1035 0.930 . S
C978 C981 1.348 . S
C978 C982 1.356 . S
C978 O1029 1.325 . S
C979 N980 1.279 . S
C979 C982 1.358 . S
C979 H1036 0.930 . S
N980 C979 1.279 . S
N980 C983 1.314 . S
C981 C978 1.348 . S
C981 C983 1.353 . S
C981 H1037 0.929 . S
C982 C978 1.356 . S
C982 C979 1.358 . S
C982 H1038 0.930 . S
C983 N980 1.314 . S
C983 C981 1.353 . S
C983 H1039 0.930 . S
C984 N985 1.314 . S
C984 C989 1.353 . S
C984 H990 0.930 . S
N985 Li968 1.990 . S
N985 C984 1.314 . S
N985 C987 1.279 . S
C986 C987 1.358 . S
C986 C988 1.356 . S
C986 H1040 0.930 . S
C987 N985 1.279 . S
C987 C986 1.358 . S
C987 H991 0.930 . S
C988 C986 1.356 . S
C988 C989 1.348 . S
C989 C984 1.353 . S
C989 C988 1.348 . S
C989 H1041 0.929 . S
H990 C984 0.930 . S
H991 C987 0.930 . S
C992 N993 1.314 . S
C992 C994 1.353 . S
C992 H998 0.930 1_655 S
N993 Li969 1.990 . S
N993 C992 1.314 . S
N993 C996 1.279 . S
C994 C992 1.353 . S
C994 C997 1.348 . S
C994 H1042 0.929 1_655 S
C995 C996 1.358 . S
C995 C997 1.356 . S
C995 H1043 0.930 . S
C996 N993 1.279 . S
C996 C995 1.358 . S
C996 H999 0.930 . S
C997 C994 1.348 . S
C997 C995 1.356 . S
H998 C992 0.930 1_455 S
H999 C996 0.930 . S
C1000 C1002 1.348 . S
C1000 C1003 1.356 . S
C1000 O1030 1.325 . S
N1001 C1004 1.314 . S
N1001 C1005 1.279 . S
C1002 C1000 1.348 . S
C1002 C1004 1.353 . S
C1002 H1044 0.929 . S
C1003 C1000 1.356 . S
C1003 C1005 1.358 . S
C1003 H1045 0.930 . S
C1004 N1001 1.314 . S
C1004 C1002 1.353 . S
C1004 H1046 0.930 . S
C1005 N1001 1.279 . S
C1005 C1003 1.358 . S
C1005 H1047 0.930 . S
C1006 C1007 1.348 . S
C1006 C1008 1.356 . S
C1006 O1031 1.325 1_455 S
C1007 C1006 1.348 . S
C1007 C1009 1.353 . S
C1007 H1048 0.929 . S
C1008 C1006 1.356 . S
C1008 C1010 1.358 . S
C1008 H1049 0.930 1_455 S
C1009 C1007 1.353 . S
C1009 N1011 1.314 . S
C1009 H1050 0.930 . S
C1010 C1008 1.358 . S
C1010 N1011 1.279 . S
C1010 H1051 0.930 . S
N1011 C1009 1.314 . S
N1011 C1010 1.279 . S
C1012 C1014 1.353 . S
C1012 N1015 1.314 . S
C1012 H1018 0.930 . S
C1013 N1015 1.279 . S
C1013 C1016 1.358 . S
C1013 H1019 0.930 . S
C1014 C1012 1.353 . S
C1014 C1017 1.348 . S
C1014 H1052 0.929 . S
N1015 Li970 1.990 1_455 S
N1015 C1012 1.314 . S
N1015 C1013 1.279 . S
C1016 C1013 1.358 . S
C1016 C1017 1.356 . S
C1016 H1053 0.930 . S
C1017 C1014 1.348 . S
C1017 C1016 1.356 . S
H1018 C1012 0.930 . S
H1019 C1013 0.930 . S
C1020 N1021 1.314 . S
C1020 C1022 1.353 . S
C1020 H1026 0.930 . S
N1021 Li971 1.990 . S
N1021 C1020 1.314 . S
N1021 C1024 1.279 . S
C1022 C1020 1.353 . S
C1022 C1025 1.348 . S
C1022 H1054 0.929 . S
C1023 C1024 1.358 . S
C1023 C1025 1.356 . S
C1023 H1055 0.930 . S
C1024 N1021 1.279 . S
C1024 C1023 1.358 . S
C1024 H1027 0.930 . S
C1025 C1022 1.348 . S
C1025 C1023 1.356 . S
H1026 C1020 0.930 . S
H1027 C1024 0.930 . S
O1028 Li968 1.956 . S
O1028 Li969 1.970 . S
O1028 Li970 1.961 . S
O1028 C972 1.325 . S
O1029 Li968 1.970 . S
O1029 Li969 1.956 . S
O1029 Li971 1.961 . S
O1029 C978 1.325 . S
O1030 Li968 1.961 . S
O1030 Li970 1.956 . S
O1030 Li971 1.970 . S
O1030 C1000 1.325 . S
O1031 Li969 1.961 . S
O1031 Li970 1.970 . S
O1031 Li971 1.956 . S
O1031 C1006 1.325 1_655 S
H1032 C974 0.929 . S
H1033 C975 0.930 . S
H1034 C976 0.930 . S
H1035 C977 0.930 . S
H1036 C979 0.930 . S
H1037 C981 0.929 . S
H1038 C982 0.930 . S
H1039 C983 0.930 . S
H1040 C986 0.930 . S
H1041 C989 0.929 . S
H1042 C994 0.929 1_455 S
H1043 C995 0.930 . S
H1044 C1002 0.929 . S
H1045 C1003 0.930 . S
H1046 C1004 0.930 . S
H1047 C1005 0.930 . S
H1048 C1007 0.929 . S
H1049 C1008 0.930 1_655 S
H1050 C1009 0.930 . S
H1051 C1010 0.930 . S
H1052 C1014 0.929 . S
H1053 C1016 0.930 . S
H1054 C1022 0.929 . S
H1055 C1023 0.930 . S
Li1056 N1073 1.990 . S
Li1056 O1116 1.956 . S
Li1056 O1117 1.970 . S
Li1056 O1118 1.961 . S
Li1057 N1081 1.990 . S
Li1057 O1116 1.970 . S
Li1057 O1117 1.956 . S
Li1057 O1119 1.961 . S
Li1058 N1103 1.990 . S
Li1058 O1116 1.961 . S
Li1058 O1118 1.956 . S
Li1058 O1119 1.970 . S
Li1059 N1109 1.990 . S
Li1059 O1117 1.961 . S
Li1059 O1118 1.970 . S
Li1059 O1119 1.956 . S
C1060 C1062 1.348 . S
C1060 C1063 1.356 . S
C1060 O1116 1.325 . S
N1061 C1064 1.314 . S
N1061 C1065 1.279 . S
C1062 C1060 1.348 . S
C1062 C1064 1.353 . S
C1062 H1120 0.929 . S
C1063 C1060 1.356 . S
C1063 C1065 1.358 . S
C1063 H1121 0.930 . S
C1064 N1061 1.314 . S
C1064 C1062 1.353 . S
C1064 H1122 0.930 . S
C1065 N1061 1.279 . S
C1065 C1063 1.358 . S
C1065 H1123 0.930 . S
C1066 C1069 1.348 . S
C1066 C1070 1.356 . S
C1066 O1117 1.325 . S
C1067 N1068 1.279 . S
C1067 C1070 1.358 . S
C1067 H1124 0.930 . S
N1068 C1067 1.279 . S
N1068 C1071 1.314 . S
C1069 C1066 1.348 . S
C1069 C1071 1.353 . S
C1069 H1125 0.929 . S
C1070 C1066 1.356 . S
C1070 C1067 1.358 . S
C1070 H1126 0.930 . S
C1071 N1068 1.314 . S
C1071 C1069 1.353 . S
C1071 H1127 0.930 . S
C1072 N1073 1.314 . S
C1072 C1077 1.353 . S
C1072 H1078 0.930 . S
N1073 Li1056 1.990 . S
N1073 C1072 1.314 . S
N1073 C1075 1.279 . S
C1074 C1075 1.358 . S
C1074 C1076 1.356 . S
C1074 H1128 0.930 . S
C1075 N1073 1.279 . S
C1075 C1074 1.358 . S
C1075 H1079 0.930 . S
C1076 C1074 1.356 . S
C1076 C1077 1.348 . S
C1077 C1072 1.353 . S
C1077 C1076 1.348 . S
C1077 H1129 0.929 . S
H1078 C1072 0.930 . S
H1079 C1075 0.930 . S
C1080 N1081 1.314 . S
C1080 C1082 1.353 . S
C1080 H1086 0.930 . S
N1081 Li1057 1.990 . S
N1081 C1080 1.314 . S
N1081 C1084 1.279 . S
C1082 C1080 1.353 . S
C1082 C1085 1.348 . S
C1082 H1130 0.929 . S
C1083 C1084 1.358 . S
C1083 C1085 1.356 . S
C1083 H1131 0.930 . S
C1084 N1081 1.279 . S
C1084 C1083 1.358 . S
C1084 H1087 0.930 . S
C1085 C1082 1.348 . S
C1085 C1083 1.356 . S
H1086 C1080 0.930 . S
H1087 C1084 0.930 . S
C1088 C1090 1.348 . S
C1088 C1091 1.356 . S
C1088 O1118 1.325 . S
N1089 C1092 1.314 . S
N1089 C1093 1.279 . S
C1090 C1088 1.348 . S
C1090 C1092 1.353 . S
C1090 H1132 0.929 . S
C1091 C1088 1.356 . S
C1091 C1093 1.358 . S
C1091 H1133 0.930 . S
C1092 N1089 1.314 . S
C1092 C1090 1.353 . S
C1092 H1134 0.930 . S
C1093 N1089 1.279 . S
C1093 C1091 1.358 . S
C1093 H1135 0.930 . S
C1094 C1095 1.348 . S
C1094 C1096 1.356 . S
C1094 O1119 1.325 . S
C1095 C1094 1.348 . S
C1095 C1097 1.353 . S
C1095 H1136 0.929 . S
C1096 C1094 1.356 . S
C1096 C1098 1.358 . S
C1096 H1137 0.930 . S
C1097 C1095 1.353 . S
C1097 N1099 1.314 . S
C1097 H1138 0.930 . S
C1098 C1096 1.358 . S
C1098 N1099 1.279 . S
C1098 H1139 0.930 . S
N1099 C1097 1.314 . S
N1099 C1098 1.279 . S
C1100 C1102 1.353 . S
C1100 N1103 1.314 . S
C1100 H1106 0.930 . S
C1101 N1103 1.279 . S
C1101 C1104 1.358 . S
C1101 H1107 0.930 . S
C1102 C1100 1.353 . S
C1102 C1105 1.348 . S
C1102 H1140 0.929 . S
N1103 Li1058 1.990 . S
N1103 C1100 1.314 . S
N1103 C1101 1.279 . S
C1104 C1101 1.358 . S
C1104 C1105 1.356 . S
C1104 H1141 0.930 . S
C1105 C1102 1.348 . S
C1105 C1104 1.356 . S
H1106 C1100 0.930 . S
H1107 C1101 0.930 . S
C1108 N1109 1.314 . S
C1108 C1110 1.353 . S
C1108 H1114 0.930 . S
N1109 Li1059 1.990 . S
N1109 C1108 1.314 . S
N1109 C1112 1.279 . S
C1110 C1108 1.353 . S
C1110 C1113 1.348 . S
C1110 H1142 0.929 . S
C1111 C1112 1.358 . S
C1111 C1113 1.356 . S
C1111 H1143 0.930 . S
C1112 N1109 1.279 . S
C1112 C1111 1.358 . S
C1112 H1115 0.930 . S
C1113 C1110 1.348 . S
C1113 C1111 1.356 . S
H1114 C1108 0.930 . S
H1115 C1112 0.930 . S
O1116 Li1056 1.956 . S
O1116 Li1057 1.970 . S
O1116 Li1058 1.961 . S
O1116 C1060 1.325 . S
O1117 Li1056 1.970 . S
O1117 Li1057 1.956 . S
O1117 Li1059 1.961 . S
O1117 C1066 1.325 . S
O1118 Li1056 1.961 . S
O1118 Li1058 1.956 . S
O1118 Li1059 1.970 . S
O1118 C1088 1.325 . S
O1119 Li1057 1.961 . S
O1119 Li1058 1.970 . S
O1119 Li1059 1.956 . S
O1119 C1094 1.325 . S
H1120 C1062 0.929 . S
H1121 C1063 0.930 . S
H1122 C1064 0.930 . S
H1123 C1065 0.930 . S
H1124 C1067 0.930 . S
H1125 C1069 0.929 . S
H1126 C1070 0.930 . S
H1127 C1071 0.930 . S
H1128 C1074 0.930 . S
H1129 C1077 0.929 . S
H1130 C1082 0.929 . S
H1131 C1083 0.930 . S
H1132 C1090 0.929 . S
H1133 C1091 0.930 . S
H1134 C1092 0.930 . S
H1135 C1093 0.930 . S
H1136 C1095 0.929 . S
H1137 C1096 0.930 . S
H1138 C1097 0.930 . S
H1139 C1098 0.930 . S
H1140 C1102 0.929 . S
H1141 C1104 0.930 . S
H1142 C1110 0.929 . S
H1143 C1111 0.930 . S
Li1144 N1161 1.990 . S
Li1144 O1204 1.956 . S
Li1144 O1205 1.970 . S
Li1144 O1206 1.961 . S
Li1145 N1169 1.990 1_565 S
Li1145 O1204 1.970 . S
Li1145 O1205 1.956 . S
Li1145 O1207 1.961 . S
Li1146 N1191 1.990 . S
Li1146 O1204 1.961 . S
Li1146 O1206 1.956 . S
Li1146 O1207 1.970 . S
Li1147 N1197 1.990 . S
Li1147 O1205 1.961 . S
Li1147 O1206 1.970 . S
Li1147 O1207 1.956 . S
C1148 C1150 1.348 . S
C1148 C1151 1.374 . S
C1148 O1204 1.325 1_545 S
N1149 C1152 1.314 . S
N1149 C1153 1.279 . S
C1150 C1148 1.348 . S
C1150 C1152 1.353 . S
C1150 H1208 0.929 . S
C1151 C1148 1.374 . S
C1151 C1153 1.375 . S
C1151 H1209 0.895 1_545 S
C1152 N1149 1.314 . S
C1152 C1150 1.353 . S
C1152 H1210 0.930 . S
C1153 N1149 1.279 . S
C1153 C1151 1.375 . S
C1153 H1211 0.930 . S
C1154 C1157 1.348 . S
C1154 C1158 1.356 . S
C1154 O1205 1.325 . S
C1155 N1156 1.279 . S
C1155 C1158 1.358 . S
C1155 H1212 0.930 . S
N1156 C1155 1.279 . S
N1156 C1159 1.314 . S
C1157 C1154 1.348 . S
C1157 C1159 1.353 . S
C1157 H1213 0.929 . S
C1158 C1154 1.356 . S
C1158 C1155 1.358 . S
C1158 H1214 0.930 . S
C1159 N1156 1.314 . S
C1159 C1157 1.353 . S
C1159 H1215 0.930 . S
C1160 N1161 1.314 . S
C1160 C1165 1.353 . S
C1160 H1166 0.930 . S
N1161 Li1144 1.990 . S
N1161 C1160 1.314 . S
N1161 C1163 1.279 . S
C1162 C1163 1.358 . S
C1162 C1164 1.356 . S
C1162 H1216 0.930 1_565 S
C1163 N1161 1.279 . S
C1163 C1162 1.358 . S
C1163 H1167 0.930 1_565 S
C1164 C1162 1.356 . S
C1164 C1165 1.348 . S
C1165 C1160 1.353 . S
C1165 C1164 1.348 . S
C1165 H1217 0.929 . S
H1166 C1160 0.930 . S
H1167 C1163 0.930 1_545 S
C1168 N1169 1.314 . S
C1168 C1170 1.353 . S
C1168 H1174 0.930 . S
N1169 Li1145 1.990 1_545 S
N1169 C1168 1.314 . S
N1169 C1172 1.279 . S
C1170 C1168 1.353 . S
C1170 C1173 1.348 . S
C1170 H1218 0.929 . S
C1171 C1172 1.358 . S
C1171 C1173 1.356 . S
C1171 H1219 0.930 . S
C1172 N1169 1.279 . S
C1172 C1171 1.358 . S
C1172 H1175 0.930 . S
C1173 C1170 1.348 . S
C1173 C1171 1.356 . S
H1174 C1168 0.930 . S
H1175 C1172 0.930 . S
C1176 C1178 1.348 . S
C1176 C1179 1.356 . S
C1176 O1206 1.325 . S
N1177 C1180 1.314 . S
N1177 C1181 1.279 . S
C1178 C1176 1.348 . S
C1178 C1180 1.353 . S
C1178 H1220 0.929 . S
C1179 C1176 1.356 . S
C1179 C1181 1.358 . S
C1179 H1221 0.930 . S
C1180 N1177 1.314 . S
C1180 C1178 1.353 . S
C1180 H1222 0.930 . S
C1181 N1177 1.279 . S
C1181 C1179 1.358 . S
C1181 H1223 0.930 . S
C1182 C1183 1.348 . S
C1182 C1184 1.356 . S
C1182 O1207 1.325 . S
C1183 C1182 1.348 . S
C1183 C1185 1.353 . S
C1183 H1224 0.929 . S
C1184 C1182 1.356 . S
C1184 C1186 1.358 . S
C1184 H1225 0.930 . S
C1185 C1183 1.353 . S
C1185 N1187 1.314 . S
C1185 H1226 0.930 . S
C1186 C1184 1.358 . S
C1186 N1187 1.279 . S
C1186 H1227 0.930 . S
N1187 C1185 1.314 . S
N1187 C1186 1.279 . S
C1188 C1190 1.353 . S
C1188 N1191 1.314 . S
C1188 H1194 0.930 . S
C1189 N1191 1.279 . S
C1189 C1192 1.358 . S
C1189 H1195 0.930 . S
C1190 C1188 1.353 . S
C1190 C1193 1.348 . S
C1190 H1228 0.929 . S
N1191 Li1146 1.990 . S
N1191 C1188 1.314 . S
N1191 C1189 1.279 . S
C1192 C1189 1.358 . S
C1192 C1193 1.356 . S
C1192 H1229 0.930 . S
C1193 C1190 1.348 . S
C1193 C1192 1.356 . S
H1194 C1188 0.930 . S
H1195 C1189 0.930 . S
C1196 N1197 1.314 . S
C1196 C1198 1.353 . S
C1196 H1202 0.930 . S
N1197 Li1147 1.990 . S
N1197 C1196 1.314 . S
N1197 C1200 1.279 . S
C1198 C1196 1.353 . S
C1198 C1201 1.348 . S
C1198 H1230 0.929 . S
C1199 C1200 1.358 . S
C1199 C1201 1.356 . S
C1199 H1231 0.930 . S
C1200 N1197 1.279 . S
C1200 C1199 1.358 . S
C1200 H1203 0.930 . S
C1201 C1198 1.348 . S
C1201 C1199 1.356 . S
H1202 C1196 0.930 . S
H1203 C1200 0.930 . S
O1204 Li1144 1.956 . S
O1204 Li1145 1.970 . S
O1204 Li1146 1.961 . S
O1204 C1148 1.325 1_565 S
O1205 Li1144 1.970 . S
O1205 Li1145 1.956 . S
O1205 Li1147 1.961 . S
O1205 C1154 1.325 . S
O1206 Li1144 1.961 . S
O1206 Li1146 1.956 . S
O1206 Li1147 1.970 . S
O1206 C1176 1.325 . S
O1207 Li1145 1.961 . S
O1207 Li1146 1.970 . S
O1207 Li1147 1.956 . S
O1207 C1182 1.325 . S
H1208 C1150 0.929 . S
H1209 C1151 0.895 1_565 S
H1210 C1152 0.930 . S
H1211 C1153 0.930 . S
H1212 C1155 0.930 . S
H1213 C1157 0.929 . S
H1214 C1158 0.930 . S
H1215 C1159 0.930 . S
H1216 C1162 0.930 1_545 S
H1217 C1165 0.929 . S
H1218 C1170 0.929 . S
H1219 C1171 0.930 . S
H1220 C1178 0.929 . S
H1221 C1179 0.930 . S
H1222 C1180 0.930 . S
H1223 C1181 0.930 . S
H1224 C1183 0.929 . S
H1225 C1184 0.930 . S
H1226 C1185 0.930 . S
H1227 C1186 0.930 . S
H1228 C1190 0.929 . S
H1229 C1192 0.930 . S
H1230 C1198 0.929 . S
H1231 C1199 0.930 . S
Li1232 N1249 1.990 . S
Li1232 O1292 1.956 . S
Li1232 O1293 1.970 . S
Li1232 O1294 1.961 . S
Li1233 N1257 1.990 . S
Li1233 O1292 1.970 . S
Li1233 O1293 1.956 . S
Li1233 O1295 1.961 . S
Li1234 N1279 1.990 1_455 S
Li1234 O1292 1.961 . S
Li1234 O1294 1.956 . S
Li1234 O1295 1.970 . S
Li1235 N1285 1.990 . S
Li1235 O1293 1.961 . S
Li1235 O1294 1.970 . S
Li1235 O1295 1.956 . S
C1236 C1238 1.348 . S
C1236 C1239 1.356 . S
C1236 O1292 1.325 1_655 S
N1237 C1240 1.314 . S
N1237 C1241 1.279 . S
C1238 C1236 1.348 . S
C1238 C1240 1.353 . S
C1238 H1296 0.929 1_655 S
C1239 C1236 1.356 . S
C1239 C1241 1.358 . S
C1239 H1297 0.930 . S
C1240 N1237 1.314 . S
C1240 C1238 1.353 . S
C1240 H1298 0.930 . S
C1241 N1237 1.279 . S
C1241 C1239 1.358 . S
C1241 H1299 0.930 . S
C1242 C1245 1.348 . S
C1242 C1246 1.356 . S
C1242 O1293 1.325 . S
C1243 N1244 1.279 . S
C1243 C1246 1.358 . S
C1243 H1300 0.930 . S
N1244 C1243 1.279 . S
N1244 C1247 1.314 . S
C1245 C1242 1.348 . S
C1245 C1247 1.353 . S
C1245 H1301 0.929 . S
C1246 C1242 1.356 . S
C1246 C1243 1.358 . S
C1246 H1302 0.930 . S
C1247 N1244 1.314 . S
C1247 C1245 1.353 . S
C1247 H1303 0.930 . S
C1248 N1249 1.314 . S
C1248 C1253 1.353 . S
C1248 H1254 0.930 . S
N1249 Li1232 1.990 . S
N1249 C1248 1.314 . S
N1249 C1251 1.279 . S
C1250 C1251 1.358 . S
C1250 C1252 1.356 . S
C1250 H1304 0.930 . S
C1251 N1249 1.279 . S
C1251 C1250 1.358 . S
C1251 H1255 0.930 . S
C1252 C1250 1.356 . S
C1252 C1253 1.348 . S
C1253 C1248 1.353 . S
C1253 C1252 1.348 . S
C1253 H1305 0.929 . S
H1254 C1248 0.930 . S
H1255 C1251 0.930 . S
C1256 N1257 1.314 . S
C1256 C1258 1.353 . S
C1256 H1262 0.930 . S
N1257 Li1233 1.990 . S
N1257 C1256 1.314 . S
N1257 C1260 1.279 . S
C1258 C1256 1.353 . S
C1258 C1261 1.348 . S
C1258 H1306 0.929 1_455 S
C1259 C1260 1.358 . S
C1259 C1261 1.356 . S
C1259 H1307 0.930 . S
C1260 N1257 1.279 . S
C1260 C1259 1.358 . S
C1260 H1263 0.930 . S
C1261 C1258 1.348 . S
C1261 C1259 1.356 . S
H1262 C1256 0.930 . S
H1263 C1260 0.930 . S
C1264 C1266 1.348 . S
C1264 C1267 1.356 . S
C1264 O1294 1.325 . S
N1265 C1268 1.314 . S
N1265 C1269 1.279 . S
C1266 C1264 1.348 . S
C1266 C1268 1.353 . S
C1266 H1308 0.929 . S
C1267 C1264 1.356 . S
C1267 C1269 1.358 . S
C1267 H1309 0.930 . S
C1268 N1265 1.314 . S
C1268 C1266 1.353 . S
C1268 H1310 0.930 . S
C1269 N1265 1.279 . S
C1269 C1267 1.358 . S
C1269 H1311 0.930 . S
C1270 C1271 1.348 . S
C1270 C1272 1.356 . S
C1270 O1295 1.325 . S
C1271 C1270 1.348 . S
C1271 C1273 1.353 . S
C1271 H1312 0.929 1_455 S
C1272 C1270 1.356 . S
C1272 C1274 1.358 . S
C1272 H1313 0.930 . S
C1273 C1271 1.353 . S
C1273 N1275 1.314 . S
C1273 H1314 0.930 1_455 S
C1274 C1272 1.358 . S
C1274 N1275 1.279 . S
C1274 H1315 0.930 . S
N1275 C1273 1.314 . S
N1275 C1274 1.279 . S
C1276 C1278 1.353 . S
C1276 N1279 1.314 . S
C1276 H1282 0.930 . S
C1277 N1279 1.279 . S
C1277 C1280 1.358 . S
C1277 H1283 0.930 . S
C1278 C1276 1.353 . S
C1278 C1281 1.348 . S
C1278 H1316 0.929 . S
N1279 Li1234 1.990 1_655 S
N1279 C1276 1.314 . S
N1279 C1277 1.279 . S
C1280 C1277 1.358 . S
C1280 C1281 1.356 . S
C1280 H1317 0.930 . S
C1281 C1278 1.348 . S
C1281 C1280 1.356 . S
H1282 C1276 0.930 . S
H1283 C1277 0.930 . S
C1284 N1285 1.314 . S
C1284 C1286 1.353 . S
C1284 H1290 0.930 . S
N1285 Li1235 1.990 . S
N1285 C1284 1.314 . S
N1285 C1288 1.279 . S
C1286 C1284 1.353 . S
C1286 C1289 1.348 . S
C1286 H1318 0.929 . S
C1287 C1288 1.358 . S
C1287 C1289 1.356 . S
C1287 H1319 0.930 . S
C1288 N1285 1.279 . S
C1288 C1287 1.358 . S
C1288 H1291 0.930 . S
C1289 C1286 1.348 . S
C1289 C1287 1.356 . S
H1290 C1284 0.930 . S
H1291 C1288 0.930 . S
O1292 Li1232 1.956 . S
O1292 Li1233 1.970 . S
O1292 Li1234 1.961 . S
O1292 C1236 1.325 1_455 S
O1293 Li1232 1.970 . S
O1293 Li1233 1.956 . S
O1293 Li1235 1.961 . S
O1293 C1242 1.325 . S
O1294 Li1232 1.961 . S
O1294 Li1234 1.956 . S
O1294 Li1235 1.970 . S
O1294 C1264 1.325 . S
O1295 Li1233 1.961 . S
O1295 Li1234 1.970 . S
O1295 Li1235 1.956 . S
O1295 C1270 1.325 . S
H1296 C1238 0.929 1_455 S
H1297 C1239 0.930 . S
H1298 C1240 0.930 . S
H1299 C1241 0.930 . S
H1300 C1243 0.930 . S
H1301 C1245 0.929 . S
H1302 C1246 0.930 . S
H1303 C1247 0.930 . S
H1304 C1250 0.930 . S
H1305 C1253 0.929 . S
H1306 C1258 0.929 1_655 S
H1307 C1259 0.930 . S
H1308 C1266 0.929 . S
H1309 C1267 0.930 . S
H1310 C1268 0.930 . S
H1311 C1269 0.930 . S
H1312 C1271 0.929 1_655 S
H1313 C1272 0.930 . S
H1314 C1273 0.930 1_655 S
H1315 C1274 0.930 . S
H1316 C1278 0.929 . S
H1317 C1280 0.930 . S
H1318 C1286 0.929 . S
H1319 C1287 0.930 . S
Li1320 N1337 1.990 . S
Li1320 O1380 1.955 1_655 S
Li1320 O1381 2.001 . S
Li1320 O1382 1.961 . S
Li1321 N1345 1.990 . S
Li1321 O1380 1.972 . S
Li1321 O1381 1.934 1_455 S
Li1321 O1383 1.961 . S
Li1322 N1367 1.990 . S
Li1322 O1380 1.962 1_655 S
Li1322 O1382 1.956 . S
Li1322 O1383 1.970 1_655 S
Li1323 N1373 1.990 . S
Li1323 O1381 1.938 1_455 S
Li1323 O1382 1.970 1_455 S
Li1323 O1383 1.956 . S
C1324 C1326 1.348 1_655 S
C1324 C1327 1.356 . S
C1324 O1380 1.324 1_655 S
N1325 C1328 1.314 1_655 S
N1325 C1329 1.279 . S
C1326 C1324 1.348 1_455 S
C1326 C1328 1.353 . S
C1326 H1384 0.929 . S
C1327 C1324 1.356 . S
C1327 C1329 1.358 . S
C1327 H1385 0.930 . S
C1328 N1325 1.314 1_455 S
C1328 C1326 1.353 . S
C1328 H1386 0.930 . S
C1329 N1325 1.279 . S
C1329 C1327 1.358 . S
C1329 H1387 0.930 . S
C1330 C1333 1.333 1_455 S
C1330 C1334 1.369 . S
C1330 O1381 1.332 1_455 S
C1331 N1332 1.279 . S
C1331 C1334 1.358 . S
C1331 H1388 0.930 . S
N1332 C1331 1.279 . S
N1332 C1335 1.314 1_455 S
C1333 C1330 1.333 1_655 S
C1333 C1335 1.353 . S
C1333 H1389 0.929 . S
C1334 C1330 1.369 . S
C1334 C1331 1.358 . S
C1334 H1390 0.930 . S
C1335 N1332 1.314 1_655 S
C1335 C1333 1.353 . S
C1335 H1391 0.930 . S
C1336 N1337 1.314 . S
C1336 C1341 1.353 . S
C1336 H1342 0.930 . S
N1337 Li1320 1.990 . S
N1337 C1336 1.314 . S
N1337 C1339 1.279 . S
C1338 C1339 1.358 . S
C1338 C1340 1.356 . S
C1338 H1392 0.930 . S
C1339 N1337 1.279 . S
C1339 C1338 1.358 . S
C1339 H1343 0.930 . S
C1340 C1338 1.356 . S
C1340 C1341 1.348 . S
C1341 C1336 1.353 . S
C1341 C1340 1.348 . S
C1341 H1393 0.929 . S
H1342 C1336 0.930 . S
H1343 C1339 0.930 . S
C1344 N1345 1.314 . S
C1344 C1346 1.353 . S
C1344 H1350 0.930 . S
N1345 Li1321 1.990 . S
N1345 C1344 1.314 . S
N1345 C1348 1.279 . S
C1346 C1344 1.353 . S
C1346 C1349 1.348 . S
C1346 H1394 0.929 . S
C1347 C1348 1.358 . S
C1347 C1349 1.356 . S
C1347 H1395 0.930 . S
C1348 N1345 1.279 . S
C1348 C1347 1.358 . S
C1348 H1351 0.930 . S
C1349 C1346 1.348 . S
C1349 C1347 1.356 . S
H1350 C1344 0.930 . S
H1351 C1348 0.930 . S
C1352 C1354 1.348 . S
C1352 C1355 1.356 . S
C1352 O1382 1.325 . S
N1353 C1356 1.314 . S
N1353 C1357 1.279 . S
C1354 C1352 1.348 . S
C1354 C1356 1.353 . S
C1354 H1396 0.929 . S
C1355 C1352 1.356 . S
C1355 C1357 1.358 . S
C1355 H1397 0.930 . S
C1356 N1353 1.314 . S
C1356 C1354 1.353 . S
C1356 H1398 0.930 . S
C1357 N1353 1.279 . S
C1357 C1355 1.358 . S
C1357 H1399 0.930 . S
C1358 C1359 1.348 . S
C1358 C1360 1.356 . S
C1358 O1383 1.325 . S
C1359 C1358 1.348 . S
C1359 C1361 1.353 . S
C1359 H1400 0.929 . S
C1360 C1358 1.356 . S
C1360 C1362 1.358 . S
C1360 H1401 0.930 . S
C1361 C1359 1.353 . S
C1361 N1363 1.314 . S
C1361 H1402 0.930 . S
C1362 C1360 1.358 . S
C1362 N1363 1.279 . S
C1362 H1403 0.930 . S
N1363 C1361 1.314 . S
N1363 C1362 1.279 . S
C1364 C1366 1.353 . S
C1364 N1367 1.314 1_455 S
C1364 H1370 0.930 . S
C1365 N1367 1.279 . S
C1365 C1368 1.358 . S
C1365 H1371 0.930 . S
C1366 C1364 1.353 . S
C1366 C1369 1.348 1_455 S
C1366 H1404 0.929 . S
N1367 Li1322 1.990 . S
N1367 C1364 1.314 1_655 S
N1367 C1365 1.279 . S
C1368 C1365 1.358 . S
C1368 C1369 1.356 . S
C1368 H1405 0.930 . S
C1369 C1366 1.348 1_655 S
C1369 C1368 1.356 . S
H1370 C1364 0.930 . S
H1371 C1365 0.930 . S
C1372 N1373 1.314 1_655 S
C1372 C1374 1.353 . S
C1372 H1378 0.930 . S
N1373 Li1323 1.990 . S
N1373 C1372 1.314 1_455 S
N1373 C1376 1.279 . S
C1374 C1372 1.353 . S
C1374 C1377 1.348 1_655 S
C1374 H1406 0.929 . S
C1375 C1376 1.358 . S
C1375 C1377 1.356 . S
C1375 H1407 0.930 . S
C1376 N1373 1.279 . S
C1376 C1375 1.358 . S
C1376 H1379 0.930 . S
C1377 C1374 1.348 1_455 S
C1377 C1375 1.356 . S
H1378 C1372 0.930 . S
H1379 C1376 0.930 . S
O1380 Li1320 1.955 1_455 S
O1380 Li1321 1.972 . S
O1380 Li1322 1.962 1_455 S
O1380 C1324 1.324 1_455 S
O1381 Li1320 2.001 . S
O1381 Li1321 1.934 1_655 S
O1381 Li1323 1.938 1_655 S
O1381 C1330 1.332 1_655 S
O1382 Li1320 1.961 . S
O1382 Li1322 1.956 . S
O1382 Li1323 1.970 1_655 S
O1382 C1352 1.325 . S
O1383 Li1321 1.961 . S
O1383 Li1322 1.970 1_455 S
O1383 Li1323 1.956 . S
O1383 C1358 1.325 . S
H1384 C1326 0.929 . S
H1385 C1327 0.930 . S
H1386 C1328 0.930 . S
H1387 C1329 0.930 . S
H1388 C1331 0.930 . S
H1389 C1333 0.929 . S
H1390 C1334 0.930 . S
H1391 C1335 0.930 . S
H1392 C1338 0.930 . S
H1393 C1341 0.929 . S
H1394 C1346 0.929 . S
H1395 C1347 0.930 . S
H1396 C1354 0.929 . S
H1397 C1355 0.930 . S
H1398 C1356 0.930 . S
H1399 C1357 0.930 . S
H1400 C1359 0.929 . S
H1401 C1360 0.930 . S
H1402 C1361 0.930 . S
H1403 C1362 0.930 . S
H1404 C1366 0.929 . S
H1405 C1368 0.930 . S
H1406 C1374 0.929 . S
H1407 C1375 0.930 . S
Li1408 N1425 1.990 . S
Li1408 O1468 1.956 . S
Li1408 O1469 1.970 . S
Li1408 O1470 1.961 . S
Li1409 N1433 1.990 . S
Li1409 O1468 1.970 . S
Li1409 O1469 1.956 . S
Li1409 O1471 1.961 . S
Li1410 N1455 1.990 . S
Li1410 O1468 1.961 . S
Li1410 O1470 1.956 . S
Li1410 O1471 1.970 . S
Li1411 N1461 1.990 . S
Li1411 O1469 1.961 . S
Li1411 O1470 1.970 . S
Li1411 O1471 1.956 . S
C1412 C1414 1.348 . S
C1412 C1415 1.356 . S
C1412 O1468 1.325 . S
N1413 C1416 1.314 . S
N1413 C1417 1.279 . S
C1414 C1412 1.348 . S
C1414 C1416 1.353 . S
C1414 H1472 0.929 . S
C1415 C1412 1.356 . S
C1415 C1417 1.358 . S
C1415 H1473 0.930 . S
C1416 N1413 1.314 . S
C1416 C1414 1.353 . S
C1416 H1474 0.930 . S
C1417 N1413 1.279 . S
C1417 C1415 1.358 . S
C1417 H1475 0.930 . S
C1418 C1421 1.348 . S
C1418 C1422 1.356 . S
C1418 O1469 1.325 . S
C1419 N1420 1.279 . S
C1419 C1422 1.358 . S
C1419 H1476 0.930 . S
N1420 C1419 1.279 . S
N1420 C1423 1.314 . S
C1421 C1418 1.348 . S
C1421 C1423 1.353 . S
C1421 H1477 0.929 . S
C1422 C1418 1.356 . S
C1422 C1419 1.358 . S
C1422 H1478 0.930 . S
C1423 N1420 1.314 . S
C1423 C1421 1.353 . S
C1423 H1479 0.930 . S
C1424 N1425 1.314 . S
C1424 C1429 1.353 . S
C1424 H1430 0.930 . S
N1425 Li1408 1.990 . S
N1425 C1424 1.314 . S
N1425 C1427 1.279 . S
C1426 C1427 1.358 . S
C1426 C1428 1.356 . S
C1426 H1480 0.930 . S
C1427 N1425 1.279 . S
C1427 C1426 1.358 . S
C1427 H1431 0.930 . S
C1428 C1426 1.356 . S
C1428 C1429 1.348 . S
C1429 C1424 1.353 . S
C1429 C1428 1.348 . S
C1429 H1481 0.929 . S
H1430 C1424 0.930 . S
H1431 C1427 0.930 . S
C1432 N1433 1.314 . S
C1432 C1434 1.353 . S
C1432 H1438 0.930 . S
N1433 Li1409 1.990 . S
N1433 C1432 1.314 . S
N1433 C1436 1.279 . S
C1434 C1432 1.353 . S
C1434 C1437 1.348 . S
C1434 H1482 0.929 . S
C1435 C1436 1.358 . S
C1435 C1437 1.356 . S
C1435 H1483 0.930 . S
C1436 N1433 1.279 . S
C1436 C1435 1.358 . S
C1436 H1439 0.930 . S
C1437 C1434 1.348 . S
C1437 C1435 1.356 . S
H1438 C1432 0.930 . S
H1439 C1436 0.930 . S
C1440 C1442 1.348 . S
C1440 C1443 1.356 . S
C1440 O1470 1.325 . S
N1441 C1444 1.314 . S
N1441 C1445 1.279 . S
C1442 C1440 1.348 . S
C1442 C1444 1.353 . S
C1442 H1484 0.929 . S
C1443 C1440 1.356 . S
C1443 C1445 1.358 . S
C1443 H1485 0.930 . S
C1444 N1441 1.314 . S
C1444 C1442 1.353 . S
C1444 H1486 0.930 . S
C1445 N1441 1.279 . S
C1445 C1443 1.358 . S
C1445 H1487 0.930 . S
C1446 C1447 1.348 . S
C1446 C1448 1.356 . S
C1446 O1471 1.325 . S
C1447 C1446 1.348 . S
C1447 C1449 1.353 . S
C1447 H1488 0.929 . S
C1448 C1446 1.356 . S
C1448 C1450 1.358 . S
C1448 H1489 0.930 . S
C1449 C1447 1.353 . S
C1449 N1451 1.314 . S
C1449 H1490 0.930 . S
C1450 C1448 1.358 . S
C1450 N1451 1.279 . S
C1450 H1491 0.930 . S
N1451 C1449 1.314 . S
N1451 C1450 1.279 . S
C1452 C1454 1.353 . S
C1452 N1455 1.314 . S
C1452 H1458 0.930 . S
C1453 N1455 1.279 . S
C1453 C1456 1.358 . S
C1453 H1459 0.930 . S
C1454 C1452 1.353 . S
C1454 C1457 1.348 . S
C1454 H1492 0.929 . S
N1455 Li1410 1.990 . S
N1455 C1452 1.314 . S
N1455 C1453 1.279 . S
C1456 C1453 1.358 . S
C1456 C1457 1.356 . S
C1456 H1493 0.930 . S
C1457 C1454 1.348 . S
C1457 C1456 1.356 . S
H1458 C1452 0.930 . S
H1459 C1453 0.930 . S
C1460 N1461 1.314 . S
C1460 C1462 1.353 . S
C1460 H1466 0.930 . S
N1461 Li1411 1.990 . S
N1461 C1460 1.314 . S
N1461 C1464 1.279 . S
C1462 C1460 1.353 . S
C1462 C1465 1.348 . S
C1462 H1494 0.929 . S
C1463 C1464 1.358 . S
C1463 C1465 1.356 . S
C1463 H1495 0.930 . S
C1464 N1461 1.279 . S
C1464 C1463 1.358 . S
C1464 H1467 0.930 . S
C1465 C1462 1.348 . S
C1465 C1463 1.356 . S
H1466 C1460 0.930 . S
H1467 C1464 0.930 . S
O1468 Li1408 1.956 . S
O1468 Li1409 1.970 . S
O1468 Li1410 1.961 . S
O1468 C1412 1.325 . S
O1469 Li1408 1.970 . S
O1469 Li1409 1.956 . S
O1469 Li1411 1.961 . S
O1469 C1418 1.325 . S
O1470 Li1408 1.961 . S
O1470 Li1410 1.956 . S
O1470 Li1411 1.970 . S
O1470 C1440 1.325 . S
O1471 Li1409 1.961 . S
O1471 Li1410 1.970 . S
O1471 Li1411 1.956 . S
O1471 C1446 1.325 . S
H1472 C1414 0.929 . S
H1473 C1415 0.930 . S
H1474 C1416 0.930 . S
H1475 C1417 0.930 . S
H1476 C1419 0.930 . S
H1477 C1421 0.929 . S
H1478 C1422 0.930 . S
H1479 C1423 0.930 . S
H1480 C1426 0.930 . S
H1481 C1429 0.929 . S
H1482 C1434 0.929 . S
H1483 C1435 0.930 . S
H1484 C1442 0.929 . S
H1485 C1443 0.930 . S
H1486 C1444 0.930 . S
H1487 C1445 0.930 . S
H1488 C1447 0.929 . S
H1489 C1448 0.930 . S
H1490 C1449 0.930 . S
H1491 C1450 0.930 . S
H1492 C1454 0.929 . S
H1493 C1456 0.930 . S
H1494 C1462 0.929 . S
H1495 C1463 0.930 . S
Li1496 N1513 1.990 . S
Li1496 O1556 1.956 . S
Li1496 O1557 1.988 . S
Li1496 O1558 1.961 1_565 S
Li1497 N1521 1.979 1_565 S
Li1497 O1556 1.975 . S
Li1497 O1557 1.947 . S
Li1497 O1559 1.957 1_565 S
Li1498 N1543 1.990 1_545 S
Li1498 O1556 1.963 1_545 S
Li1498 O1558 1.958 . S
Li1498 O1559 1.966 . S
Li1499 N1549 1.990 . S
Li1499 O1557 1.947 1_545 S
Li1499 O1558 1.970 . S
Li1499 O1559 1.956 . S
C1500 C1502 1.348 . S
C1500 C1503 1.356 . S
C1500 O1556 1.325 . S
N1501 C1504 1.314 . S
N1501 C1505 1.279 . S
C1502 C1500 1.348 . S
C1502 C1504 1.353 . S
C1502 H1560 0.929 . S
C1503 C1500 1.356 . S
C1503 C1505 1.358 . S
C1503 H1561 0.930 . S
C1504 N1501 1.314 . S
C1504 C1502 1.353 . S
C1504 H1562 0.930 . S
C1505 N1501 1.279 . S
C1505 C1503 1.358 . S
C1505 H1563 0.930 . S
C1506 C1509 1.365 . S
C1506 C1510 1.341 1_565 S
C1506 O1557 1.325 . S
C1507 N1508 1.278 . S
C1507 C1510 1.358 . S
C1507 H1564 0.930 . S
N1508 C1507 1.278 . S
N1508 C1511 1.316 1_545 S
C1509 C1506 1.365 . S
C1509 C1511 1.353 . S
C1509 H1565 0.929 . S
C1510 C1506 1.341 1_545 S
C1510 C1507 1.358 . S
C1510 H1566 0.930 . S
C1511 N1508 1.316 1_565 S
C1511 C1509 1.353 . S
C1511 H1567 0.930 . S
C1512 N1513 1.314 . S
C1512 C1517 1.353 . S
C1512 H1518 0.930 . S
N1513 Li1496 1.990 . S
N1513 C1512 1.314 . S
N1513 C1515 1.279 . S
C1514 C1515 1.358 . S
C1514 C1516 1.356 . S
C1514 H1568 0.930 . S
C1515 N1513 1.279 . S
C1515 C1514 1.358 . S
C1515 H1519 0.930 . S
C1516 C1514 1.356 . S
C1516 C1517 1.348 . S
C1517 C1512 1.353 . S
C1517 C1516 1.348 . S
C1517 H1569 0.929 . S
H1518 C1512 0.930 . S
H1519 C1515 0.930 . S
C1520 N1521 1.327 . S
C1520 C1522 1.353 . S
C1520 H1526 0.930 . S
N1521 Li1497 1.979 1_545 S
N1521 C1520 1.327 . S
N1521 C1524 1.275 1_545 S
C1522 C1520 1.353 . S
C1522 C1525 1.348 1_545 S
C1522 H1570 0.929 . S
C1523 C1524 1.358 . S
C1523 C1525 1.356 . S
C1523 H1571 0.930 . S
C1524 N1521 1.275 1_565 S
C1524 C1523 1.358 . S
C1524 H1527 0.930 . S
C1525 C1522 1.348 1_565 S
C1525 C1523 1.356 . S
H1526 C1520 0.930 . S
H1527 C1524 0.930 . S
C1528 C1530 1.348 . S
C1528 C1531 1.356 1_545 S
C1528 O1558 1.325 . S
N1529 C1532 1.314 . S
N1529 C1533 1.279 1_545 S
C1530 C1528 1.348 . S
C1530 C1532 1.353 . S
C1530 H1572 0.929 . S
C1531 C1528 1.356 1_565 S
C1531 C1533 1.358 . S
C1531 H1573 0.930 . S
C1532 N1529 1.314 . S
C1532 C1530 1.353 . S
C1532 H1574 0.930 . S
C1533 N1529 1.279 1_565 S
C1533 C1531 1.358 . S
C1533 H1575 0.930 . S
C1534 C1535 1.348 . S
C1534 C1536 1.356 . S
C1534 O1559 1.325 . S
C1535 C1534 1.348 . S
C1535 C1537 1.353 . S
C1535 H1576 0.929 . S
C1536 C1534 1.356 . S
C1536 C1538 1.358 . S
C1536 H1577 0.930 . S
C1537 C1535 1.353 . S
C1537 N1539 1.314 . S
C1537 H1578 0.930 . S
C1538 C1536 1.358 . S
C1538 N1539 1.279 . S
C1538 H1579 0.930 . S
N1539 C1537 1.314 . S
N1539 C1538 1.279 . S
C1540 C1542 1.353 . S
C1540 N1543 1.314 . S
C1540 H1546 0.930 . S
C1541 N1543 1.279 1_545 S
C1541 C1544 1.358 . S
C1541 H1547 0.930 . S
C1542 C1540 1.353 . S
C1542 C1545 1.348 1_565 S
C1542 H1580 0.929 . S
N1543 Li1498 1.990 1_565 S
N1543 C1540 1.314 . S
N1543 C1541 1.279 1_565 S
C1544 C1541 1.358 . S
C1544 C1545 1.356 . S
C1544 H1581 0.930 . S
C1545 C1542 1.348 1_545 S
C1545 C1544 1.356 . S
H1546 C1540 0.930 . S
H1547 C1541 0.930 . S
C1548 N1549 1.314 . S
C1548 C1550 1.353 . S
C1548 H1554 0.930 . S
N1549 Li1499 1.990 . S
N1549 C1548 1.314 . S
N1549 C1552 1.279 . S
C1550 C1548 1.353 . S
C1550 C1553 1.348 . S
C1550 H1582 0.929 . S
C1551 C1552 1.358 . S
C1551 C1553 1.356 . S
C1551 H1583 0.930 . S
C1552 N1549 1.279 . S
C1552 C1551 1.358 . S
C1552 H1555 0.930 . S
C1553 C1550 1.348 . S
C1553 C1551 1.356 . S
H1554 C1548 0.930 . S
H1555 C1552 0.930 . S
O1556 Li1496 1.956 . S
O1556 Li1497 1.975 . S
O1556 Li1498 1.963 1_565 S
O1556 C1500 1.325 . S
O1557 Li1496 1.988 . S
O1557 Li1497 1.947 . S
O1557 Li1499 1.947 1_565 S
O1557 C1506 1.325 . S
O1558 Li1496 1.961 1_545 S
O1558 Li1498 1.958 . S
O1558 Li1499 1.970 . S
O1558 C1528 1.325 . S
O1559 Li1497 1.957 1_545 S
O1559 Li1498 1.966 . S
O1559 Li1499 1.956 . S
O1559 C1534 1.325 . S
H1560 C1502 0.929 . S
H1561 C1503 0.930 . S
H1562 C1504 0.930 . S
H1563 C1505 0.930 . S
H1564 C1507 0.930 . S
H1565 C1509 0.929 . S
H1566 C1510 0.930 . S
H1567 C1511 0.930 . S
H1568 C1514 0.930 . S
H1569 C1517 0.929 . S
H1570 C1522 0.929 . S
H1571 C1523 0.930 . S
H1572 C1530 0.929 . S
H1573 C1531 0.930 . S
H1574 C1532 0.930 . S
H1575 C1533 0.930 . S
H1576 C1535 0.929 . S
H1577 C1536 0.930 . S
H1578 C1537 0.930 . S
H1579 C1538 0.930 . S
H1580 C1542 0.929 . S
H1581 C1544 0.930 . S
H1582 C1550 0.929 . S
H1583 C1551 0.930 . S
C1584 C1585 1.391 1_565 S
C1584 C1586 1.394 . S
C1584 H1600 0.931 . S
C1585 C1584 1.391 1_545 S
C1585 C1589 1.376 . S
C1586 C1584 1.394 . S
C1586 C1587 1.369 1_565 S
C1586 C1590 1.531 . S
C1587 C1586 1.369 1_545 S
C1587 C1588 1.410 . S
C1587 C1595 1.503 1_544 S
C1588 C1587 1.410 . S
C1588 C1589 1.392 . S
C1588 C1591 1.490 1_554 S
C1589 C1585 1.376 . S
C1589 C1588 1.392 . S
C1589 H1601 0.929 . S
C1590 C1586 1.531 . S
C1590 H1602 0.960 1_554 S
C1590 H1603 0.962 . S
C1590 H1604 0.960 . S
C1591 C1588 1.490 1_556 S
C1591 H1605 0.929 1_556 S
C1591 H1606 0.971 . S
C1591 H1607 1.006 . S
C1592 C1593 1.370 . S
C1592 C1594 1.336 1_556 S
C1592 H1608 0.931 . S
C1593 C1592 1.370 . S
C1593 C1597 1.408 . S
C1594 C1592 1.336 1_554 S
C1594 C1595 1.348 1_554 S
C1594 C1598 1.575 . S
C1595 C1587 1.503 1_566 S
C1595 C1594 1.348 1_556 S
C1595 C1596 1.403 . S
C1596 C1595 1.403 . S
C1596 C1597 1.404 . S
C1596 C1599 1.524 1_565 S
C1597 C1593 1.408 . S
C1597 C1596 1.404 . S
C1597 H1609 0.930 . S
C1598 C1594 1.575 . S
C1598 H1610 0.956 . S
C1598 H1611 0.961 1_565 S
C1598 H1612 0.961 . S
C1599 C1596 1.524 1_545 S
C1599 H1613 0.947 1_545 S
C1599 H1614 0.967 . S
C1599 H1615 0.981 . S
H1600 C1584 0.931 . S
H1601 C1589 0.929 . S
H1602 C1590 0.960 1_556 S
H1603 C1590 0.962 . S
H1604 C1590 0.960 . S
H1605 C1591 0.929 1_554 S
H1606 C1591 0.971 . S
H1607 C1591 1.006 . S
H1608 C1592 0.931 . S
H1609 C1597 0.930 . S
H1610 C1598 0.956 . S
H1611 C1598 0.961 1_545 S
H1612 C1598 0.961 . S
H1613 C1599 0.947 1_565 S
H1614 C1599 0.967 . S
H1615 C1599 0.981 . S
C1616 C1617 1.391 1_455 S
C1616 C1618 1.394 . S
C1616 H1632 0.931 . S
C1617 C1616 1.391 1_655 S
C1617 C1621 1.376 . S
C1618 C1616 1.394 . S
C1618 C1619 1.369 1_455 S
C1618 C1622 1.556 . S
C1619 C1618 1.369 1_655 S
C1619 C1620 1.410 . S
C1619 C1627 1.503 1_654 S
C1620 C1619 1.410 . S
C1620 C1621 1.392 . S
C1620 C1623 1.511 . S
C1621 C1617 1.376 . S
C1621 C1620 1.392 . S
C1621 H1633 0.929 . S
C1622 C1618 1.556 . S
C1622 H1634 0.897 1_554 S
C1622 H1635 1.005 . S
C1622 H1636 0.960 . S
C1623 C1620 1.511 . S
C1623 H1637 0.961 . S
C1623 H1638 0.971 . S
C1623 H1639 0.961 1_554 S
C1624 C1625 1.370 . S
C1624 C1626 1.364 1_556 S
C1624 H1640 0.931 . S
C1625 C1624 1.370 . S
C1625 C1629 1.408 . S
C1626 C1624 1.364 1_554 S
C1626 C1627 1.371 1_554 S
C1626 C1630 1.522 . S
C1627 C1619 1.503 1_456 S
C1627 C1626 1.371 1_556 S
C1627 C1628 1.403 . S
C1628 C1627 1.403 . S
C1628 C1629 1.404 . S
C1628 C1631 1.539 1_455 S
C1629 C1625 1.408 . S
C1629 C1628 1.404 . S
C1629 H1641 0.930 . S
C1630 C1626 1.522 . S
C1630 H1642 0.956 . S
C1630 H1643 0.961 1_455 S
C1630 H1644 0.961 . S
C1631 C1628 1.539 1_655 S
C1631 H1645 0.958 1_655 S
C1631 H1646 0.961 . S
C1631 H1647 0.960 . S
H1632 C1616 0.931 . S
H1633 C1621 0.929 . S
H1634 C1622 0.897 1_556 S
H1635 C1622 1.005 . S
H1636 C1622 0.960 . S
H1637 C1623 0.961 . S
H1638 C1623 0.971 . S
H1639 C1623 0.961 1_556 S
H1640 C1624 0.931 . S
H1641 C1629 0.930 . S
H1642 C1630 0.956 . S
H1643 C1630 0.961 1_655 S
H1644 C1630 0.961 . S
H1645 C1631 0.958 1_455 S
H1646 C1631 0.961 . S
H1647 C1631 0.960 . S
C1648 C1649 1.391 . S
C1648 C1650 1.394 . S
C1648 H1664 0.931 . S
C1649 C1648 1.391 . S
C1649 C1653 1.376 . S
C1650 C1648 1.394 . S
C1650 C1651 1.369 . S
C1650 C1654 1.531 . S
C1651 C1650 1.369 . S
C1651 C1652 1.400 1_556 S
C1651 C1659 1.503 1_556 S
C1652 C1651 1.400 1_554 S
C1652 C1653 1.375 1_554 S
C1652 C1655 1.538 . S
C1653 C1649 1.376 . S
C1653 C1652 1.375 1_556 S
C1653 H1665 0.929 . S
C1654 C1650 1.531 . S
C1654 H1666 0.960 . S
C1654 H1667 0.962 . S
C1654 H1668 0.960 . S
C1655 C1652 1.538 . S
C1655 H1669 0.961 . S
C1655 H1670 0.961 . S
C1655 H1671 0.961 . S
C1656 C1657 1.370 . S
C1656 C1658 1.363 . S
C1656 H1672 0.931 . S
C1657 C1656 1.370 . S
C1657 C1661 1.408 . S
C1658 C1656 1.363 . S
C1658 C1659 1.370 . S
C1658 C1662 1.524 1_554 S
C1659 C1651 1.503 1_554 S
C1659 C1658 1.370 . S
C1659 C1660 1.403 . S
C1660 C1659 1.403 . S
C1660 C1661 1.404 . S
C1660 C1663 1.539 . S
C1661 C1657 1.408 . S
C1661 C1660 1.404 . S
C1661 H1673 0.930 . S
C1662 C1658 1.524 1_556 S
C1662 H1674 0.956 . S
C1662 H1675 0.960 1_556 S
C1662 H1676 0.961 1_556 S
C1663 C1660 1.539 . S
C1663 H1677 0.958 . S
C1663 H1678 0.961 . S
C1663 H1679 0.960 . S
H1664 C1648 0.931 . S
H1665 C1653 0.929 . S
H1666 C1654 0.960 . S
H1667 C1654 0.962 . S
H1668 C1654 0.960 . S
H1669 C1655 0.961 . S
H1670 C1655 0.961 . S
H1671 C1655 0.961 . S
H1672 C1656 0.931 . S
H1673 C1661 0.930 . S
H1674 C1662 0.956 . S
H1675 C1662 0.960 1_554 S
H1676 C1662 0.961 1_554 S
H1677 C1663 0.958 . S
H1678 C1663 0.961 . S
H1679 C1663 0.960 . S
C1680 C1681 1.391 . S
C1680 C1682 1.394 . S
C1680 H1696 0.931 . S
C1681 C1680 1.391 . S
C1681 C1685 1.376 . S
C1682 C1680 1.394 . S
C1682 C1683 1.369 . S
C1682 C1686 1.531 . S
C1683 C1682 1.369 . S
C1683 C1684 1.410 . S
C1683 C1691 1.503 . S
C1684 C1683 1.410 . S
C1684 C1685 1.392 . S
C1684 C1687 1.511 . S
C1685 C1681 1.376 . S
C1685 C1684 1.392 . S
C1685 H1697 0.929 . S
C1686 C1682 1.531 . S
C1686 H1698 0.960 . S
C1686 H1699 0.962 . S
C1686 H1700 0.960 . S
C1687 C1684 1.511 . S
C1687 H1701 0.961 . S
C1687 H1702 0.961 . S
C1687 H1703 0.961 . S
C1688 C1689 1.370 . S
C1688 C1690 1.363 . S
C1688 H1704 0.931 . S
C1689 C1688 1.370 . S
C1689 C1693 1.408 . S
C1690 C1688 1.363 . S
C1690 C1691 1.370 . S
C1690 C1694 1.524 . S
C1691 C1683 1.503 . S
C1691 C1690 1.370 . S
C1691 C1692 1.403 . S
C1692 C1691 1.403 . S
C1692 C1693 1.404 . S
C1692 C1695 1.539 . S
C1693 C1689 1.408 . S
C1693 C1692 1.404 . S
C1693 H1705 0.930 . S
C1694 C1690 1.524 . S
C1694 H1706 0.956 . S
C1694 H1707 0.961 . S
C1694 H1708 0.961 . S
C1695 C1692 1.539 . S
C1695 H1709 0.958 . S
C1695 H1710 0.961 . S
C1695 H1711 0.960 . S
H1696 C1680 0.931 . S
H1697 C1685 0.929 . S
H1698 C1686 0.960 . S
H1699 C1686 0.962 . S
H1700 C1686 0.960 . S
H1701 C1687 0.961 . S
H1702 C1687 0.961 . S
H1703 C1687 0.961 . S
H1704 C1688 0.931 . S
H1705 C1693 0.930 . S
H1706 C1694 0.956 . S
H1707 C1694 0.961 . S
H1708 C1694 0.961 . S
H1709 C1695 0.958 . S
H1710 C1695 0.961 . S
H1711 C1695 0.960 . S
C1712 C1713 1.391 . S
C1712 C1714 1.394 . S
C1712 H1728 0.931 . S
C1713 C1712 1.391 . S
C1713 C1717 1.376 . S
C1714 C1712 1.394 . S
C1714 C1715 1.369 . S
C1714 C1718 1.531 . S
C1715 C1714 1.369 . S
C1715 C1716 1.410 . S
C1715 C1723 1.503 . S
C1716 C1715 1.410 . S
C1716 C1717 1.392 . S
C1716 C1719 1.511 . S
C1717 C1713 1.376 . S
C1717 C1716 1.392 . S
C1717 H1729 0.929 . S
C1718 C1714 1.531 . S
C1718 H1730 0.960 . S
C1718 H1731 0.962 . S
C1718 H1732 0.960 . S
C1719 C1716 1.511 . S
C1719 H1733 0.961 . S
C1719 H1734 0.961 . S
C1719 H1735 0.961 . S
C1720 C1721 1.370 . S
C1720 C1722 1.363 . S
C1720 H1736 0.931 . S
C1721 C1720 1.370 . S
C1721 C1725 1.408 . S
C1722 C1720 1.363 . S
C1722 C1723 1.370 . S
C1722 C1726 1.524 . S
C1723 C1715 1.503 . S
C1723 C1722 1.370 . S
C1723 C1724 1.403 . S
C1724 C1723 1.403 . S
C1724 C1725 1.404 . S
C1724 C1727 1.539 . S
C1725 C1721 1.408 . S
C1725 C1724 1.404 . S
C1725 H1737 0.930 . S
C1726 C1722 1.524 . S
C1726 H1738 0.956 . S
C1726 H1739 0.961 . S
C1726 H1740 0.961 . S
C1727 C1724 1.539 . S
C1727 H1741 0.958 . S
C1727 H1742 0.961 . S
C1727 H1743 0.960 . S
H1728 C1712 0.931 . S
H1729 C1717 0.929 . S
H1730 C1718 0.960 . S
H1731 C1718 0.962 . S
H1732 C1718 0.960 . S
H1733 C1719 0.961 . S
H1734 C1719 0.961 . S
H1735 C1719 0.961 . S
H1736 C1720 0.931 . S
H1737 C1725 0.930 . S
H1738 C1726 0.956 . S
H1739 C1726 0.961 . S
H1740 C1726 0.961 . S
H1741 C1727 0.958 . S
H1742 C1727 0.961 . S
H1743 C1727 0.960 . S
C1744 C1745 1.391 . S
C1744 C1746 1.394 . S
C1744 H1760 0.931 . S
C1745 C1744 1.391 . S
C1745 C1749 1.376 . S
C1746 C1744 1.394 . S
C1746 C1747 1.369 . S
C1746 C1750 1.531 . S
C1747 C1746 1.369 . S
C1747 C1748 1.410 . S
C1747 C1755 1.503 . S
C1748 C1747 1.410 . S
C1748 C1749 1.392 . S
C1748 C1751 1.511 . S
C1749 C1745 1.376 . S
C1749 C1748 1.392 . S
C1749 H1761 0.929 . S
C1750 C1746 1.531 . S
C1750 H1762 0.960 . S
C1750 H1763 0.962 . S
C1750 H1764 0.960 . S
C1751 C1748 1.511 . S
C1751 H1765 0.961 . S
C1751 H1766 0.961 . S
C1751 H1767 0.961 . S
C1752 C1753 1.370 . S
C1752 C1754 1.363 . S
C1752 H1768 0.931 . S
C1753 C1752 1.370 . S
C1753 C1757 1.408 . S
C1754 C1752 1.363 . S
C1754 C1755 1.370 . S
C1754 C1758 1.524 . S
C1755 C1747 1.503 . S
C1755 C1754 1.370 . S
C1755 C1756 1.403 . S
C1756 C1755 1.403 . S
C1756 C1757 1.404 . S
C1756 C1759 1.539 . S
C1757 C1753 1.408 . S
C1757 C1756 1.404 . S
C1757 H1769 0.930 . S
C1758 C1754 1.524 . S
C1758 H1770 0.956 . S
C1758 H1771 0.961 . S
C1758 H1772 0.961 . S
C1759 C1756 1.539 . S
C1759 H1773 0.958 . S
C1759 H1774 0.961 . S
C1759 H1775 0.960 . S
H1760 C1744 0.931 . S
H1761 C1749 0.929 . S
H1762 C1750 0.960 . S
H1763 C1750 0.962 . S
H1764 C1750 0.960 . S
H1765 C1751 0.961 . S
H1766 C1751 0.961 . S
H1767 C1751 0.961 . S
H1768 C1752 0.931 . S
H1769 C1757 0.930 . S
H1770 C1758 0.956 . S
H1771 C1758 0.961 . S
H1772 C1758 0.961 . S
H1773 C1759 0.958 . S
H1774 C1759 0.961 . S
H1775 C1759 0.960 . S
C1776 C1777 1.391 . S
C1776 C1778 1.394 . S
C1776 H1792 0.931 . S
C1777 C1776 1.391 . S
C1777 C1781 1.376 . S
C1778 C1776 1.394 . S
C1778 C1779 1.369 . S
C1778 C1782 1.531 . S
C1779 C1778 1.369 . S
C1779 C1780 1.410 . S
C1779 C1787 1.503 . S
C1780 C1779 1.410 . S
C1780 C1781 1.392 . S
C1780 C1783 1.511 . S
C1781 C1777 1.376 . S
C1781 C1780 1.392 . S
C1781 H1793 0.929 . S
C1782 C1778 1.531 . S
C1782 H1794 0.960 . S
C1782 H1795 0.962 . S
C1782 H1796 0.960 . S
C1783 C1780 1.511 . S
C1783 H1797 0.961 . S
C1783 H1798 0.961 . S
C1783 H1799 0.961 . S
C1784 C1785 1.370 . S
C1784 C1786 1.363 . S
C1784 H1800 0.931 . S
C1785 C1784 1.370 . S
C1785 C1789 1.408 . S
C1786 C1784 1.363 . S
C1786 C1787 1.370 . S
C1786 C1790 1.524 . S
C1787 C1779 1.503 . S
C1787 C1786 1.370 . S
C1787 C1788 1.403 . S
C1788 C1787 1.403 . S
C1788 C1789 1.404 . S
C1788 C1791 1.539 . S
C1789 C1785 1.408 . S
C1789 C1788 1.404 . S
C1789 H1801 0.930 . S
C1790 C1786 1.524 . S
C1790 H1802 0.956 . S
C1790 H1803 0.961 . S
C1790 H1804 0.961 . S
C1791 C1788 1.539 . S
C1791 H1805 0.958 . S
C1791 H1806 0.961 . S
C1791 H1807 0.960 . S
H1792 C1776 0.931 . S
H1793 C1781 0.929 . S
H1794 C1782 0.960 . S
H1795 C1782 0.962 . S
H1796 C1782 0.960 . S
H1797 C1783 0.961 . S
H1798 C1783 0.961 . S
H1799 C1783 0.961 . S
H1800 C1784 0.931 . S
H1801 C1789 0.930 . S
H1802 C1790 0.956 . S
H1803 C1790 0.961 . S
H1804 C1790 0.961 . S
H1805 C1791 0.958 . S
H1806 C1791 0.961 . S
H1807 C1791 0.960 . S
C1808 C1809 1.391 . S
C1808 C1810 1.394 . S
C1808 H1824 0.931 . S
C1809 C1808 1.391 . S
C1809 C1813 1.376 . S
C1810 C1808 1.394 . S
C1810 C1811 1.369 . S
C1810 C1814 1.531 . S
C1811 C1810 1.369 . S
C1811 C1812 1.410 . S
C1811 C1819 1.503 . S
C1812 C1811 1.410 . S
C1812 C1813 1.392 . S
C1812 C1815 1.511 . S
C1813 C1809 1.376 . S
C1813 C1812 1.392 . S
C1813 H1825 0.929 . S
C1814 C1810 1.531 . S
C1814 H1826 0.960 . S
C1814 H1827 0.962 . S
C1814 H1828 0.960 . S
C1815 C1812 1.511 . S
C1815 H1829 0.961 . S
C1815 H1830 0.961 . S
C1815 H1831 0.961 . S
C1816 C1817 1.370 . S
C1816 C1818 1.363 . S
C1816 H1832 0.931 . S
C1817 C1816 1.370 . S
C1817 C1821 1.408 . S
C1818 C1816 1.363 . S
C1818 C1819 1.370 . S
C1818 C1822 1.524 . S
C1819 C1811 1.503 . S
C1819 C1818 1.370 . S
C1819 C1820 1.403 . S
C1820 C1819 1.403 . S
C1820 C1821 1.404 . S
C1820 C1823 1.539 . S
C1821 C1817 1.408 . S
C1821 C1820 1.404 . S
C1821 H1833 0.930 . S
C1822 C1818 1.524 . S
C1822 H1834 0.956 . S
C1822 H1835 0.961 . S
C1822 H1836 0.961 . S
C1823 C1820 1.539 . S
C1823 H1837 0.958 . S
C1823 H1838 0.961 . S
C1823 H1839 0.960 . S
H1824 C1808 0.931 . S
H1825 C1813 0.929 . S
H1826 C1814 0.960 . S
H1827 C1814 0.962 . S
H1828 C1814 0.960 . S
H1829 C1815 0.961 . S
H1830 C1815 0.961 . S
H1831 C1815 0.961 . S
H1832 C1816 0.931 . S
H1833 C1821 0.930 . S
H1834 C1822 0.956 . S
H1835 C1822 0.961 . S
H1836 C1822 0.961 . S
H1837 C1823 0.958 . S
H1838 C1823 0.961 . S
H1839 C1823 0.960 . S
C1840 C1841 1.391 . S
C1840 C1842 1.394 . S
C1840 H1856 0.931 . S
C1841 C1840 1.391 . S
C1841 C1845 1.376 . S
C1842 C1840 1.394 . S
C1842 C1843 1.369 . S
C1842 C1846 1.531 . S
C1843 C1842 1.369 . S
C1843 C1844 1.410 . S
C1843 C1851 1.503 . S
C1844 C1843 1.410 . S
C1844 C1845 1.392 . S
C1844 C1847 1.511 . S
C1845 C1841 1.376 . S
C1845 C1844 1.392 . S
C1845 H1857 0.929 . S
C1846 C1842 1.531 . S
C1846 H1858 0.960 . S
C1846 H1859 0.962 . S
C1846 H1860 0.960 . S
C1847 C1844 1.511 . S
C1847 H1861 0.961 . S
C1847 H1862 0.961 . S
C1847 H1863 0.961 . S
C1848 C1849 1.370 . S
C1848 C1850 1.363 . S
C1848 H1864 0.931 . S
C1849 C1848 1.370 . S
C1849 C1853 1.408 . S
C1850 C1848 1.363 . S
C1850 C1851 1.370 . S
C1850 C1854 1.524 . S
C1851 C1843 1.503 . S
C1851 C1850 1.370 . S
C1851 C1852 1.403 . S
C1852 C1851 1.403 . S
C1852 C1853 1.404 . S
C1852 C1855 1.539 . S
C1853 C1849 1.408 . S
C1853 C1852 1.404 . S
C1853 H1865 0.930 . S
C1854 C1850 1.524 . S
C1854 H1866 0.956 . S
C1854 H1867 0.961 . S
C1854 H1868 0.961 . S
C1855 C1852 1.539 . S
C1855 H1869 0.958 . S
C1855 H1870 0.961 . S
C1855 H1871 0.960 . S
H1856 C1840 0.931 . S
H1857 C1845 0.929 . S
H1858 C1846 0.960 . S
H1859 C1846 0.962 . S
H1860 C1846 0.960 . S
H1861 C1847 0.961 . S
H1862 C1847 0.961 . S
H1863 C1847 0.961 . S
H1864 C1848 0.931 . S
H1865 C1853 0.930 . S
H1866 C1854 0.956 . S
H1867 C1854 0.961 . S
H1868 C1854 0.961 . S
H1869 C1855 0.958 . S
H1870 C1855 0.961 . S
H1871 C1855 0.960 . S
C1872 C1873 1.391 . S
C1872 C1874 1.394 . S
C1872 H1888 0.931 . S
C1873 C1872 1.391 . S
C1873 C1877 1.376 . S
C1874 C1872 1.394 . S
C1874 C1875 1.369 . S
C1874 C1878 1.531 . S
C1875 C1874 1.369 . S
C1875 C1876 1.410 . S
C1875 C1883 1.503 . S
C1876 C1875 1.410 . S
C1876 C1877 1.392 . S
C1876 C1879 1.511 . S
C1877 C1873 1.376 . S
C1877 C1876 1.392 . S
C1877 H1889 0.929 . S
C1878 C1874 1.531 . S
C1878 H1890 0.960 . S
C1878 H1891 0.962 . S
C1878 H1892 0.960 . S
C1879 C1876 1.511 . S
C1879 H1893 0.961 . S
C1879 H1894 0.961 . S
C1879 H1895 0.961 . S
C1880 C1881 1.370 . S
C1880 C1882 1.363 . S
C1880 H1896 0.931 . S
C1881 C1880 1.370 . S
C1881 C1885 1.408 . S
C1882 C1880 1.363 . S
C1882 C1883 1.370 . S
C1882 C1886 1.524 . S
C1883 C1875 1.503 . S
C1883 C1882 1.370 . S
C1883 C1884 1.403 . S
C1884 C1883 1.403 . S
C1884 C1885 1.404 . S
C1884 C1887 1.539 . S
C1885 C1881 1.408 . S
C1885 C1884 1.404 . S
C1885 H1897 0.930 . S
C1886 C1882 1.524 . S
C1886 H1898 0.956 . S
C1886 H1899 0.961 . S
C1886 H1900 0.961 . S
C1887 C1884 1.539 . S
C1887 H1901 0.958 . S
C1887 H1902 0.961 . S
C1887 H1903 0.960 . S
H1888 C1872 0.931 . S
H1889 C1877 0.929 . S
H1890 C1878 0.960 . S
H1891 C1878 0.962 . S
H1892 C1878 0.960 . S
H1893 C1879 0.961 . S
H1894 C1879 0.961 . S
H1895 C1879 0.961 . S
H1896 C1880 0.931 . S
H1897 C1885 0.930 . S
H1898 C1886 0.956 . S
H1899 C1886 0.961 . S
H1900 C1886 0.961 . S
H1901 C1887 0.958 . S
H1902 C1887 0.961 . S
H1903 C1887 0.960 . S
C1904 C1905 1.391 . S
C1904 C1906 1.394 . S
C1904 H1920 0.931 . S
C1905 C1904 1.391 . S
C1905 C1909 1.376 . S
C1906 C1904 1.394 . S
C1906 C1907 1.369 . S
C1906 C1910 1.531 . S
C1907 C1906 1.369 . S
C1907 C1908 1.410 . S
C1907 C1915 1.503 . S
C1908 C1907 1.410 . S
C1908 C1909 1.392 . S
C1908 C1911 1.511 . S
C1909 C1905 1.376 . S
C1909 C1908 1.392 . S
C1909 H1921 0.929 . S
C1910 C1906 1.531 . S
C1910 H1922 0.960 . S
C1910 H1923 0.962 . S
C1910 H1924 0.960 . S
C1911 C1908 1.511 . S
C1911 H1925 0.961 . S
C1911 H1926 0.961 . S
C1911 H1927 0.961 . S
C1912 C1913 1.370 . S
C1912 C1914 1.363 . S
C1912 H1928 0.931 . S
C1913 C1912 1.370 . S
C1913 C1917 1.408 . S
C1914 C1912 1.363 . S
C1914 C1915 1.370 . S
C1914 C1918 1.524 . S
C1915 C1907 1.503 . S
C1915 C1914 1.370 . S
C1915 C1916 1.403 . S
C1916 C1915 1.403 . S
C1916 C1917 1.404 . S
C1916 C1919 1.539 . S
C1917 C1913 1.408 . S
C1917 C1916 1.404 . S
C1917 H1929 0.930 . S
C1918 C1914 1.524 . S
C1918 H1930 0.956 . S
C1918 H1931 0.961 . S
C1918 H1932 0.961 . S
C1919 C1916 1.539 . S
C1919 H1933 0.958 . S
C1919 H1934 0.961 . S
C1919 H1935 0.960 . S
H1920 C1904 0.931 . S
H1921 C1909 0.929 . S
H1922 C1910 0.960 . S
H1923 C1910 0.962 . S
H1924 C1910 0.960 . S
H1925 C1911 0.961 . S
H1926 C1911 0.961 . S
H1927 C1911 0.961 . S
H1928 C1912 0.931 . S
H1929 C1917 0.930 . S
H1930 C1918 0.956 . S
H1931 C1918 0.961 . S
H1932 C1918 0.961 . S
H1933 C1919 0.958 . S
H1934 C1919 0.961 . S
H1935 C1919 0.960 . S
C1936 C1937 1.391 . S
C1936 C1938 1.394 . S
C1936 H1952 0.931 . S
C1937 C1936 1.391 . S
C1937 C1941 1.376 . S
C1938 C1936 1.394 . S
C1938 C1939 1.369 . S
C1938 C1942 1.531 . S
C1939 C1938 1.369 . S
C1939 C1940 1.410 . S
C1939 C1947 1.503 . S
C1940 C1939 1.410 . S
C1940 C1941 1.392 . S
C1940 C1943 1.511 . S
C1941 C1937 1.376 . S
C1941 C1940 1.392 . S
C1941 H1953 0.929 . S
C1942 C1938 1.531 . S
C1942 H1954 0.960 . S
C1942 H1955 0.962 . S
C1942 H1956 0.960 . S
C1943 C1940 1.511 . S
C1943 H1957 0.961 . S
C1943 H1958 0.961 . S
C1943 H1959 0.961 . S
C1944 C1945 1.370 . S
C1944 C1946 1.363 . S
C1944 H1960 0.931 . S
C1945 C1944 1.370 . S
C1945 C1949 1.408 . S
C1946 C1944 1.363 . S
C1946 C1947 1.370 . S
C1946 C1950 1.524 . S
C1947 C1939 1.503 . S
C1947 C1946 1.370 . S
C1947 C1948 1.403 . S
C1948 C1947 1.403 . S
C1948 C1949 1.404 . S
C1948 C1951 1.539 . S
C1949 C1945 1.408 . S
C1949 C1948 1.404 . S
C1949 H1961 0.930 . S
C1950 C1946 1.524 . S
C1950 H1962 0.956 . S
C1950 H1963 0.961 . S
C1950 H1964 0.961 . S
C1951 C1948 1.539 . S
C1951 H1965 0.958 . S
C1951 H1966 0.961 . S
C1951 H1967 0.960 . S
H1952 C1936 0.931 . S
H1953 C1941 0.929 . S
H1954 C1942 0.960 . S
H1955 C1942 0.962 . S
H1956 C1942 0.960 . S
H1957 C1943 0.961 . S
H1958 C1943 0.961 . S
H1959 C1943 0.961 . S
H1960 C1944 0.931 . S
H1961 C1949 0.930 . S
H1962 C1950 0.956 . S
H1963 C1950 0.961 . S
H1964 C1950 0.961 . S
H1965 C1951 0.958 . S
H1966 C1951 0.961 . S
H1967 C1951 0.960 . S
C1968 C1969 1.391 . S
C1968 C1970 1.394 . S
C1968 H1984 0.931 . S
C1969 C1968 1.391 . S
C1969 C1973 1.376 . S
C1970 C1968 1.394 . S
C1970 C1971 1.369 . S
C1970 C1974 1.531 . S
C1971 C1970 1.369 . S
C1971 C1972 1.410 . S
C1971 C1979 1.503 . S
C1972 C1971 1.410 . S
C1972 C1973 1.392 . S
C1972 C1975 1.511 . S
C1973 C1969 1.376 . S
C1973 C1972 1.392 . S
C1973 H1985 0.929 . S
C1974 C1970 1.531 . S
C1974 H1986 0.960 . S
C1974 H1987 0.962 . S
C1974 H1988 0.960 . S
C1975 C1972 1.511 . S
C1975 H1989 0.961 . S
C1975 H1990 0.961 . S
C1975 H1991 0.961 . S
C1976 C1977 1.370 . S
C1976 C1978 1.363 . S
C1976 H1992 0.931 . S
C1977 C1976 1.370 . S
C1977 C1981 1.408 . S
C1978 C1976 1.363 . S
C1978 C1979 1.370 . S
C1978 C1982 1.524 . S
C1979 C1971 1.503 . S
C1979 C1978 1.370 . S
C1979 C1980 1.403 . S
C1980 C1979 1.403 . S
C1980 C1981 1.404 . S
C1980 C1983 1.539 . S
C1981 C1977 1.408 . S
C1981 C1980 1.404 . S
C1981 H1993 0.930 . S
C1982 C1978 1.524 . S
C1982 H1994 0.956 . S
C1982 H1995 0.961 . S
C1982 H1996 0.961 . S
C1983 C1980 1.539 . S
C1983 H1997 0.958 . S
C1983 H1998 0.961 . S
C1983 H1999 0.960 . S
H1984 C1968 0.931 . S
H1985 C1973 0.929 . S
H1986 C1974 0.960 . S
H1987 C1974 0.962 . S
H1988 C1974 0.960 . S
H1989 C1975 0.961 . S
H1990 C1975 0.961 . S
H1991 C1975 0.961 . S
H1992 C1976 0.931 . S
H1993 C1981 0.930 . S
H1994 C1982 0.956 . S
H1995 C1982 0.961 . S
H1996 C1982 0.961 . S
H1997 C1983 0.958 . S
H1998 C1983 0.961 . S
H1999 C1983 0.960 . S
C2000 C2001 1.391 . S
C2000 C2002 1.394 . S
C2000 H2016 0.931 . S
C2001 C2000 1.391 . S
C2001 C2005 1.376 . S
C2002 C2000 1.394 . S
C2002 C2003 1.369 . S
C2002 C2006 1.531 . S
C2003 C2002 1.369 . S
C2003 C2004 1.410 . S
C2003 C2011 1.503 . S
C2004 C2003 1.410 . S
C2004 C2005 1.392 . S
C2004 C2007 1.511 . S
C2005 C2001 1.376 . S
C2005 C2004 1.392 . S
C2005 H2017 0.929 . S
C2006 C2002 1.531 . S
C2006 H2018 0.960 . S
C2006 H2019 0.962 . S
C2006 H2020 0.960 . S
C2007 C2004 1.511 . S
C2007 H2021 0.961 . S
C2007 H2022 0.961 . S
C2007 H2023 0.961 . S
C2008 C2009 1.370 . S
C2008 C2010 1.363 . S
C2008 H2024 0.931 . S
C2009 C2008 1.370 . S
C2009 C2013 1.408 . S
C2010 C2008 1.363 . S
C2010 C2011 1.370 . S
C2010 C2014 1.524 . S
C2011 C2003 1.503 . S
C2011 C2010 1.370 . S
C2011 C2012 1.403 . S
C2012 C2011 1.403 . S
C2012 C2013 1.404 . S
C2012 C2015 1.539 . S
C2013 C2009 1.408 . S
C2013 C2012 1.404 . S
C2013 H2025 0.930 . S
C2014 C2010 1.524 . S
C2014 H2026 0.956 . S
C2014 H2027 0.961 . S
C2014 H2028 0.961 . S
C2015 C2012 1.539 . S
C2015 H2029 0.958 . S
C2015 H2030 0.961 . S
C2015 H2031 0.960 . S
H2016 C2000 0.931 . S
H2017 C2005 0.929 . S
H2018 C2006 0.960 . S
H2019 C2006 0.962 . S
H2020 C2006 0.960 . S
H2021 C2007 0.961 . S
H2022 C2007 0.961 . S
H2023 C2007 0.961 . S
H2024 C2008 0.931 . S
H2025 C2013 0.930 . S
H2026 C2014 0.956 . S
H2027 C2014 0.961 . S
H2028 C2014 0.961 . S
H2029 C2015 0.958 . S
H2030 C2015 0.961 . S
H2031 C2015 0.960 . S
C2032 C2033 1.391 . S
C2032 C2034 1.394 . S
C2032 H2048 0.931 . S
C2033 C2032 1.391 . S
C2033 C2037 1.376 . S
C2034 C2032 1.394 . S
C2034 C2035 1.369 . S
C2034 C2038 1.531 . S
C2035 C2034 1.369 . S
C2035 C2036 1.410 . S
C2035 C2043 1.503 . S
C2036 C2035 1.410 . S
C2036 C2037 1.392 . S
C2036 C2039 1.511 . S
C2037 C2033 1.376 . S
C2037 C2036 1.392 . S
C2037 H2049 0.929 . S
C2038 C2034 1.531 . S
C2038 H2050 0.960 . S
C2038 H2051 0.962 . S
C2038 H2052 0.960 . S
C2039 C2036 1.511 . S
C2039 H2053 0.961 . S
C2039 H2054 0.961 . S
C2039 H2055 0.961 . S
C2040 C2041 1.370 . S
C2040 C2042 1.363 . S
C2040 H2056 0.931 . S
C2041 C2040 1.370 . S
C2041 C2045 1.408 . S
C2042 C2040 1.363 . S
C2042 C2043 1.370 . S
C2042 C2046 1.524 . S
C2043 C2035 1.503 . S
C2043 C2042 1.370 . S
C2043 C2044 1.403 . S
C2044 C2043 1.403 . S
C2044 C2045 1.404 . S
C2044 C2047 1.539 . S
C2045 C2041 1.408 . S
C2045 C2044 1.404 . S
C2045 H2057 0.930 . S
C2046 C2042 1.524 . S
C2046 H2058 0.956 . S
C2046 H2059 0.961 . S
C2046 H2060 0.961 . S
C2047 C2044 1.539 . S
C2047 H2061 0.958 . S
C2047 H2062 0.961 . S
C2047 H2063 0.960 . S
H2048 C2032 0.931 . S
H2049 C2037 0.929 . S
H2050 C2038 0.960 . S
H2051 C2038 0.962 . S
H2052 C2038 0.960 . S
H2053 C2039 0.961 . S
H2054 C2039 0.961 . S
H2055 C2039 0.961 . S
H2056 C2040 0.931 . S
H2057 C2045 0.930 . S
H2058 C2046 0.956 . S
H2059 C2046 0.961 . S
H2060 C2046 0.961 . S
H2061 C2047 0.958 . S
H2062 C2047 0.961 . S
H2063 C2047 0.960 . S
C2064 C2065 1.393 . S
C2064 C2066 1.394 . S
C2064 H2080 0.931 . S
C2065 C2064 1.393 . S
C2065 C2069 1.370 1_455 S
C2066 C2064 1.394 . S
C2066 C2067 1.369 1_455 S
C2066 C2070 1.531 . S
C2067 C2066 1.369 1_655 S
C2067 C2068 1.410 . S
C2067 C2075 1.503 . S
C2068 C2067 1.410 . S
C2068 C2069 1.392 . S
C2068 C2071 1.511 . S
C2069 C2065 1.370 1_655 S
C2069 C2068 1.392 . S
C2069 H2081 0.929 . S
C2070 C2066 1.531 . S
C2070 H2082 0.960 . S
C2070 H2083 0.962 . S
C2070 H2084 0.960 . S
C2071 C2068 1.511 . S
C2071 H2085 0.961 . S
C2071 H2086 0.961 . S
C2071 H2087 0.961 . S
C2072 C2073 1.345 1_455 S
C2072 C2074 1.363 . S
C2072 H2088 0.931 . S
C2073 C2072 1.345 1_655 S
C2073 C2077 1.419 . S
C2074 C2072 1.363 . S
C2074 C2075 1.370 1_455 S
C2074 C2078 1.524 . S
C2075 C2067 1.503 . S
C2075 C2074 1.370 1_655 S
C2075 C2076 1.403 . S
C2076 C2075 1.403 . S
C2076 C2077 1.404 . S
C2076 C2079 1.539 . S
C2077 C2073 1.419 . S
C2077 C2076 1.404 . S
C2077 H2089 0.930 . S
C2078 C2074 1.524 . S
C2078 H2090 0.956 . S
C2078 H2091 0.961 . S
C2078 H2092 0.961 . S
C2079 C2076 1.539 . S
C2079 H2093 0.958 . S
C2079 H2094 0.961 . S
C2079 H2095 0.960 . S
H2080 C2064 0.931 . S
H2081 C2069 0.929 . S
H2082 C2070 0.960 . S
H2083 C2070 0.962 . S
H2084 C2070 0.960 . S
H2085 C2071 0.961 . S
H2086 C2071 0.961 . S
H2087 C2071 0.961 . S
H2088 C2072 0.931 . S
H2089 C2077 0.930 . S
H2090 C2078 0.956 . S
H2091 C2078 0.961 . S
H2092 C2078 0.961 . S
H2093 C2079 0.958 . S
H2094 C2079 0.961 . S
H2095 C2079 0.960 . S
C2096 C2097 1.391 . S
C2096 C2098 1.394 . S
C2096 H2112 0.931 . S
C2097 C2096 1.391 . S
C2097 C2101 1.376 . S
C2098 C2096 1.394 . S
C2098 C2099 1.369 . S
C2098 C2102 1.531 . S
C2099 C2098 1.369 . S
C2099 C2100 1.410 . S
C2099 C2107 1.503 . S
C2100 C2099 1.410 . S
C2100 C2101 1.392 . S
C2100 C2103 1.511 . S
C2101 C2097 1.376 . S
C2101 C2100 1.392 . S
C2101 H2113 0.929 . S
C2102 C2098 1.531 . S
C2102 H2114 0.960 . S
C2102 H2115 0.962 . S
C2102 H2116 0.960 . S
C2103 C2100 1.511 . S
C2103 H2117 0.961 . S
C2103 H2118 0.961 . S
C2103 H2119 0.961 . S
C2104 C2105 1.370 . S
C2104 C2106 1.363 . S
C2104 H2120 0.931 . S
C2105 C2104 1.370 . S
C2105 C2109 1.408 . S
C2106 C2104 1.363 . S
C2106 C2107 1.370 . S
C2106 C2110 1.524 . S
C2107 C2099 1.503 . S
C2107 C2106 1.370 . S
C2107 C2108 1.403 . S
C2108 C2107 1.403 . S
C2108 C2109 1.404 . S
C2108 C2111 1.539 . S
C2109 C2105 1.408 . S
C2109 C2108 1.404 . S
C2109 H2121 0.930 . S
C2110 C2106 1.524 . S
C2110 H2122 0.956 . S
C2110 H2123 0.961 . S
C2110 H2124 0.961 . S
C2111 C2108 1.539 . S
C2111 H2125 0.958 . S
C2111 H2126 0.961 . S
C2111 H2127 0.960 . S
H2112 C2096 0.931 . S
H2113 C2101 0.929 . S
H2114 C2102 0.960 . S
H2115 C2102 0.962 . S
H2116 C2102 0.960 . S
H2117 C2103 0.961 . S
H2118 C2103 0.961 . S
H2119 C2103 0.961 . S
H2120 C2104 0.931 . S
H2121 C2109 0.930 . S
H2122 C2110 0.956 . S
H2123 C2110 0.961 . S
H2124 C2110 0.961 . S
H2125 C2111 0.958 . S
H2126 C2111 0.961 . S
H2127 C2111 0.960 . S
C2128 C2129 1.391 . S
C2128 C2130 1.394 . S
C2128 H2144 0.931 . S
C2129 C2128 1.391 . S
C2129 C2133 1.376 . S
C2130 C2128 1.394 . S
C2130 C2131 1.369 . S
C2130 C2134 1.531 . S
C2131 C2130 1.369 . S
C2131 C2132 1.410 . S
C2131 C2139 1.503 . S
C2132 C2131 1.410 . S
C2132 C2133 1.392 . S
C2132 C2135 1.511 . S
C2133 C2129 1.376 . S
C2133 C2132 1.392 . S
C2133 H2145 0.929 . S
C2134 C2130 1.531 . S
C2134 H2146 0.960 . S
C2134 H2147 0.962 1_545 S
C2134 H2148 0.960 . S
C2135 C2132 1.511 . S
C2135 H2149 0.961 1_545 S
C2135 H2150 0.961 1_545 S
C2135 H2151 0.961 . S
C2136 C2137 1.360 1_565 S
C2136 C2138 1.363 . S
C2136 H2152 0.931 . S
C2137 C2136 1.360 1_545 S
C2137 C2141 1.415 . S
C2138 C2136 1.363 . S
C2138 C2139 1.370 1_565 S
C2138 C2142 1.524 . S
C2139 C2131 1.503 . S
C2139 C2138 1.370 1_545 S
C2139 C2140 1.403 . S
C2140 C2139 1.403 . S
C2140 C2141 1.404 . S
C2140 C2143 1.539 . S
C2141 C2137 1.415 . S
C2141 C2140 1.404 . S
C2141 H2153 0.930 . S
C2142 C2138 1.524 . S
C2142 H2154 0.956 . S
C2142 H2155 0.961 . S
C2142 H2156 0.961 . S
C2143 C2140 1.539 . S
C2143 H2157 0.958 . S
C2143 H2158 0.961 . S
C2143 H2159 0.960 . S
H2144 C2128 0.931 . S
H2145 C2133 0.929 . S
H2146 C2134 0.960 . S
H2147 C2134 0.962 1_565 S
H2148 C2134 0.960 . S
H2149 C2135 0.961 1_565 S
H2150 C2135 0.961 1_565 S
H2151 C2135 0.961 . S
H2152 C2136 0.931 . S
H2153 C2141 0.930 . S
H2154 C2142 0.956 . S
H2155 C2142 0.961 . S
H2156 C2142 0.961 . S
H2157 C2143 0.958 . S
H2158 C2143 0.961 . S
H2159 C2143 0.960 . S
C2160 C2161 1.391 . S
C2160 C2162 1.394 . S
C2160 H2176 0.931 . S
C2161 C2160 1.391 . S
C2161 C2165 1.376 . S
C2162 C2160 1.394 . S
C2162 C2163 1.369 . S
C2162 C2166 1.531 . S
C2163 C2162 1.369 . S
C2163 C2164 1.410 . S
C2163 C2171 1.503 . S
C2164 C2163 1.410 . S
C2164 C2165 1.392 . S
C2164 C2167 1.511 . S
C2165 C2161 1.376 . S
C2165 C2164 1.392 . S
C2165 H2177 0.929 . S
C2166 C2162 1.531 . S
C2166 H2178 0.960 . S
C2166 H2179 0.962 . S
C2166 H2180 0.960 . S
C2167 C2164 1.511 . S
C2167 H2181 0.961 . S
C2167 H2182 0.961 . S
C2167 H2183 0.961 1_554 S
C2168 C2169 1.370 1_554 S
C2168 C2170 1.363 . S
C2168 H2184 0.931 . S
C2169 C2168 1.370 1_556 S
C2169 C2173 1.408 . S
C2170 C2168 1.363 . S
C2170 C2171 1.370 . S
C2170 C2174 1.524 . S
C2171 C2163 1.503 . S
C2171 C2170 1.370 . S
C2171 C2172 1.403 1_554 S
C2172 C2171 1.403 1_556 S
C2172 C2173 1.404 . S
C2172 C2175 1.539 . S
C2173 C2169 1.408 . S
C2173 C2172 1.404 . S
C2173 H2185 0.930 . S
C2174 C2170 1.524 . S
C2174 H2186 0.956 . S
C2174 H2187 0.961 . S
C2174 H2188 0.961 . S
C2175 C2172 1.539 . S
C2175 H2189 0.958 . S
C2175 H2190 0.961 . S
C2175 H2191 0.960 . S
H2176 C2160 0.931 . S
H2177 C2165 0.929 . S
H2178 C2166 0.960 . S
H2179 C2166 0.962 . S
H2180 C2166 0.960 . S
H2181 C2167 0.961 . S
H2182 C2167 0.961 . S
H2183 C2167 0.961 1_556 S
H2184 C2168 0.931 . S
H2185 C2173 0.930 . S
H2186 C2174 0.956 . S
H2187 C2174 0.961 . S
H2188 C2174 0.961 . S
H2189 C2175 0.958 . S
H2190 C2175 0.961 . S
H2191 C2175 0.960 . S
C2192 C2193 1.391 . S
C2192 C2194 1.394 . S
C2192 H2208 0.931 . S
C2193 C2192 1.391 . S
C2193 C2197 1.376 . S
C2194 C2192 1.394 . S
C2194 C2195 1.369 . S
C2194 C2198 1.531 . S
C2195 C2194 1.369 . S
C2195 C2196 1.410 . S
C2195 C2203 1.503 . S
C2196 C2195 1.410 . S
C2196 C2197 1.392 . S
C2196 C2199 1.511 . S
C2197 C2193 1.376 . S
C2197 C2196 1.392 . S
C2197 H2209 0.929 . S
C2198 C2194 1.531 . S
C2198 H2210 0.960 . S
C2198 H2211 0.962 1_554 S
C2198 H2212 0.960 . S
C2199 C2196 1.511 . S
C2199 H2213 0.961 . S
C2199 H2214 0.961 . S
C2199 H2215 0.961 . S
C2200 C2201 1.370 . S
C2200 C2202 1.393 . S
C2200 H2216 0.931 . S
C2201 C2200 1.370 . S
C2201 C2205 1.363 1_556 S
C2202 C2200 1.393 . S
C2202 C2203 1.339 1_556 S
C2202 C2206 1.527 . S
C2203 C2195 1.503 . S
C2203 C2202 1.339 1_554 S
C2203 C2204 1.403 . S
C2204 C2203 1.403 . S
C2204 C2205 1.448 . S
C2204 C2207 1.539 . S
C2205 C2201 1.363 1_554 S
C2205 C2204 1.448 . S
C2205 H2217 0.935 . S
C2206 C2202 1.527 . S
C2206 H2218 0.956 . S
C2206 H2219 0.961 1_556 S
C2206 H2220 0.961 . S
C2207 C2204 1.539 . S
C2207 H2221 0.958 . S
C2207 H2222 0.961 . S
C2207 H2223 0.960 . S
H2208 C2192 0.931 . S
H2209 C2197 0.929 . S
H2210 C2198 0.960 . S
H2211 C2198 0.962 1_556 S
H2212 C2198 0.960 . S
H2213 C2199 0.961 . S
H2214 C2199 0.961 . S
H2215 C2199 0.961 . S
H2216 C2200 0.931 . S
H2217 C2205 0.935 . S
H2218 C2206 0.956 . S
H2219 C2206 0.961 1_554 S
H2220 C2206 0.961 . S
H2221 C2207 0.958 . S
H2222 C2207 0.961 . S
H2223 C2207 0.960 . S
C2224 C2225 1.391 . S
C2224 C2226 1.394 . S
C2224 H2240 0.931 . S
C2225 C2224 1.391 . S
C2225 C2229 1.376 . S
C2226 C2224 1.394 . S
C2226 C2227 1.369 . S
C2226 C2230 1.531 . S
C2227 C2226 1.369 . S
C2227 C2228 1.410 . S
C2227 C2235 1.503 . S
C2228 C2227 1.410 . S
C2228 C2229 1.392 . S
C2228 C2231 1.511 . S
C2229 C2225 1.376 . S
C2229 C2228 1.392 . S
C2229 H2241 0.929 . S
C2230 C2226 1.531 . S
C2230 H2242 0.960 1_554 S
C2230 H2243 0.962 1_554 S
C2230 H2244 0.960 . S
C2231 C2228 1.511 . S
C2231 H2245 0.961 . S
C2231 H2246 0.961 . S
C2231 H2247 0.961 . S
C2232 C2233 1.370 . S
C2232 C2234 1.363 1_556 S
C2232 H2248 0.931 . S
C2233 C2232 1.370 . S
C2233 C2237 1.408 . S
C2234 C2232 1.363 1_554 S
C2234 C2235 1.370 . S
C2234 C2238 1.524 . S
C2235 C2227 1.503 . S
C2235 C2234 1.370 . S
C2235 C2236 1.403 . S
C2236 C2235 1.403 . S
C2236 C2237 1.405 1_554 S
C2236 C2239 1.539 . S
C2237 C2233 1.408 . S
C2237 C2236 1.405 1_556 S
C2237 H2249 0.930 . S
C2238 C2234 1.524 . S
C2238 H2250 0.956 . S
C2238 H2251 0.961 . S
C2238 H2252 0.961 . S
C2239 C2236 1.539 . S
C2239 H2253 0.958 . S
C2239 H2254 0.961 . S
C2239 H2255 0.960 . S
H2240 C2224 0.931 . S
H2241 C2229 0.929 . S
H2242 C2230 0.960 1_556 S
H2243 C2230 0.962 1_556 S
H2244 C2230 0.960 . S
H2245 C2231 0.961 . S
H2246 C2231 0.961 . S
H2247 C2231 0.961 . S
H2248 C2232 0.931 . S
H2249 C2237 0.930 . S
H2250 C2238 0.956 . S
H2251 C2238 0.961 . S
H2252 C2238 0.961 . S
H2253 C2239 0.958 . S
H2254 C2239 0.961 . S
H2255 C2239 0.960 . S
C2256 C2257 1.391 . S
C2256 C2258 1.394 . S
C2256 H2272 0.931 . S
C2257 C2256 1.391 . S
C2257 C2261 1.376 . S
C2258 C2256 1.394 . S
C2258 C2259 1.369 . S
C2258 C2262 1.531 . S
C2259 C2258 1.369 . S
C2259 C2260 1.410 . S
C2259 C2267 1.503 . S
C2260 C2259 1.410 . S
C2260 C2261 1.392 . S
C2260 C2263 1.511 . S
C2261 C2257 1.376 . S
C2261 C2260 1.392 . S
C2261 H2273 0.929 . S
C2262 C2258 1.531 . S
C2262 H2274 0.960 . S
C2262 H2275 0.962 . S
C2262 H2276 0.960 . S
C2263 C2260 1.511 . S
C2263 H2277 0.961 . S
C2263 H2278 0.978 . S
C2263 H2279 0.961 . S
C2264 C2265 1.370 . S
C2264 C2266 1.367 . S
C2264 H2280 0.931 . S
C2265 C2264 1.370 . S
C2265 C2269 1.408 1_554 S
C2266 C2264 1.367 . S
C2266 C2267 1.366 1_554 S
C2266 C2270 1.525 . S
C2267 C2259 1.503 . S
C2267 C2266 1.366 1_556 S
C2267 C2268 1.403 . S
C2268 C2267 1.403 . S
C2268 C2269 1.404 . S
C2268 C2271 1.539 . S
C2269 C2265 1.408 1_556 S
C2269 C2268 1.404 . S
C2269 H2281 0.930 . S
C2270 C2266 1.525 . S
C2270 H2282 0.956 1_554 S
C2270 H2283 0.961 . S
C2270 H2284 0.961 . S
C2271 C2268 1.539 . S
C2271 H2285 0.958 . S
C2271 H2286 0.961 . S
C2271 H2287 0.960 . S
H2272 C2256 0.931 . S
H2273 C2261 0.929 . S
H2274 C2262 0.960 . S
H2275 C2262 0.962 . S
H2276 C2262 0.960 . S
H2277 C2263 0.961 . S
H2278 C2263 0.978 . S
H2279 C2263 0.961 . S
H2280 C2264 0.931 . S
H2281 C2269 0.930 . S
H2282 C2270 0.956 1_556 S
H2283 C2270 0.961 . S
H2284 C2270 0.961 . S
H2285 C2271 0.958 . S
H2286 C2271 0.961 . S
H2287 C2271 0.960 . S
C2288 C2289 1.391 . S
C2288 C2290 1.394 1_554 S
C2288 H2304 0.931 . S
C2289 C2288 1.391 . S
C2289 C2293 1.376 . S
C2290 C2288 1.394 1_556 S
C2290 C2291 1.369 . S
C2290 C2294 1.531 . S
C2291 C2290 1.369 . S
C2291 C2292 1.410 1_556 S
C2291 C2299 1.503 . S
C2292 C2291 1.410 1_554 S
C2292 C2293 1.392 . S
C2292 C2295 1.511 . S
C2293 C2289 1.376 . S
C2293 C2292 1.392 . S
C2293 H2305 0.929 . S
C2294 C2290 1.531 . S
C2294 H2306 0.960 . S
C2294 H2307 0.962 . S
C2294 H2308 0.960 . S
C2295 C2292 1.511 . S
C2295 H2309 0.961 . S
C2295 H2310 0.961 1_554 S
C2295 H2311 0.961 . S
C2296 C2297 1.370 . S
C2296 C2298 1.363 . S
C2296 H2312 0.931 . S
C2297 C2296 1.370 . S
C2297 C2301 1.408 . S
C2298 C2296 1.363 . S
C2298 C2299 1.370 . S
C2298 C2302 1.524 . S
C2299 C2291 1.503 . S
C2299 C2298 1.370 . S
C2299 C2300 1.403 . S
C2300 C2299 1.403 . S
C2300 C2301 1.404 . S
C2300 C2303 1.539 1_556 S
C2301 C2297 1.408 . S
C2301 C2300 1.404 . S
C2301 H2313 0.930 . S
C2302 C2298 1.524 . S
C2302 H2314 0.956 . S
C2302 H2315 0.961 . S
C2302 H2316 0.961 . S
C2303 C2300 1.539 1_554 S
C2303 H2317 0.958 . S
C2303 H2318 0.961 . S
C2303 H2319 0.960 . S
H2304 C2288 0.931 . S
H2305 C2293 0.929 . S
H2306 C2294 0.960 . S
H2307 C2294 0.962 . S
H2308 C2294 0.960 . S
H2309 C2295 0.961 . S
H2310 C2295 0.961 1_556 S
H2311 C2295 0.961 . S
H2312 C2296 0.931 . S
H2313 C2301 0.930 . S
H2314 C2302 0.956 . S
H2315 C2302 0.961 . S
H2316 C2302 0.961 . S
H2317 C2303 0.958 . S
H2318 C2303 0.961 . S
H2319 C2303 0.960 . S
C2320 C2321 1.391 . S
C2320 C2322 1.394 . S
C2320 H2336 0.931 . S
C2321 C2320 1.391 . S
C2321 C2325 1.376 . S
C2322 C2320 1.394 . S
C2322 C2323 1.369 . S
C2322 C2326 1.531 . S
C2323 C2322 1.369 . S
C2323 C2324 1.410 . S
C2323 C2331 1.503 . S
C2324 C2323 1.410 . S
C2324 C2325 1.392 . S
C2324 C2327 1.511 . S
C2325 C2321 1.376 . S
C2325 C2324 1.392 . S
C2325 H2337 0.929 . S
C2326 C2322 1.531 . S
C2326 H2338 0.960 . S
C2326 H2339 0.962 . S
C2326 H2340 0.960 . S
C2327 C2324 1.511 . S
C2327 H2341 0.961 . S
C2327 H2342 0.962 . S
C2327 H2343 0.961 . S
C2328 C2329 1.370 . S
C2328 C2330 1.319 1_554 S
C2328 H2344 0.931 . S
C2329 C2328 1.370 . S
C2329 C2333 1.408 1_554 S
C2330 C2328 1.319 1_556 S
C2330 C2331 1.423 . S
C2330 C2334 1.519 1_556 S
C2331 C2323 1.503 . S
C2331 C2330 1.423 . S
C2331 C2332 1.403 . S
C2332 C2331 1.403 . S
C2332 C2333 1.404 . S
C2332 C2335 1.539 . S
C2333 C2329 1.408 1_556 S
C2333 C2332 1.404 . S
C2333 H2345 0.930 . S
C2334 C2330 1.519 1_554 S
C2334 H2346 0.956 1_554 S
C2334 H2347 0.963 . S
C2334 H2348 0.961 . S
C2335 C2332 1.539 . S
C2335 H2349 0.958 . S
C2335 H2350 0.961 . S
C2335 H2351 0.960 . S
H2336 C2320 0.931 . S
H2337 C2325 0.929 . S
H2338 C2326 0.960 . S
H2339 C2326 0.962 . S
H2340 C2326 0.960 . S
H2341 C2327 0.961 . S
H2342 C2327 0.962 . S
H2343 C2327 0.961 . S
H2344 C2328 0.931 . S
H2345 C2333 0.930 . S
H2346 C2334 0.956 1_556 S
H2347 C2334 0.963 . S
H2348 C2334 0.961 . S
H2349 C2335 0.958 . S
H2350 C2335 0.961 . S
H2351 C2335 0.960 . S
C2352 C2353 1.391 . S
C2352 C2354 1.394 . S
C2352 H2368 0.931 . S
C2353 C2352 1.391 . S
C2353 C2357 1.376 . S
C2354 C2352 1.394 . S
C2354 C2355 1.369 . S
C2354 C2358 1.531 . S
C2355 C2354 1.369 . S
C2355 C2356 1.410 . S
C2355 C2363 1.503 . S
C2356 C2355 1.410 . S
C2356 C2357 1.392 . S
C2356 C2359 1.511 . S
C2357 C2353 1.376 . S
C2357 C2356 1.392 . S
C2357 H2369 0.929 . S
C2358 C2354 1.531 . S
C2358 H2370 0.960 . S
C2358 H2371 0.962 . S
C2358 H2372 0.960 . S
C2359 C2356 1.511 . S
C2359 H2373 0.961 . S
C2359 H2374 0.961 . S
C2359 H2375 0.961 . S
C2360 C2361 1.370 . S
C2360 C2362 1.363 . S
C2360 H2376 0.931 . S
C2361 C2360 1.370 . S
C2361 C2365 1.408 . S
C2362 C2360 1.363 . S
C2362 C2363 1.370 . S
C2362 C2366 1.524 . S
C2363 C2355 1.503 . S
C2363 C2362 1.370 . S
C2363 C2364 1.403 . S
C2364 C2363 1.403 . S
C2364 C2365 1.404 . S
C2364 C2367 1.539 . S
C2365 C2361 1.408 . S
C2365 C2364 1.404 . S
C2365 H2377 0.930 . S
C2366 C2362 1.524 . S
C2366 H2378 0.956 . S
C2366 H2379 0.961 . S
C2366 H2380 0.961 . S
C2367 C2364 1.539 . S
C2367 H2381 0.958 . S
C2367 H2382 0.961 . S
C2367 H2383 0.960 . S
H2368 C2352 0.931 . S
H2369 C2357 0.929 . S
H2370 C2358 0.960 . S
H2371 C2358 0.962 . S
H2372 C2358 0.960 . S
H2373 C2359 0.961 . S
H2374 C2359 0.961 . S
H2375 C2359 0.961 . S
H2376 C2360 0.931 . S
H2377 C2365 0.930 . S
H2378 C2366 0.956 . S
H2379 C2366 0.961 . S
H2380 C2366 0.961 . S
H2381 C2367 0.958 . S
H2382 C2367 0.961 . S
H2383 C2367 0.960 . S
C2384 C2385 1.391 . S
C2384 C2386 1.394 . S
C2384 H2400 0.931 . S
C2385 C2384 1.391 . S
C2385 C2389 1.376 . S
C2386 C2384 1.394 . S
C2386 C2387 1.369 . S
C2386 C2390 1.531 . S
C2387 C2386 1.369 . S
C2387 C2388 1.410 . S
C2387 C2395 1.503 . S
C2388 C2387 1.410 . S
C2388 C2389 1.392 . S
C2388 C2391 1.511 . S
C2389 C2385 1.376 . S
C2389 C2388 1.392 . S
C2389 H2401 0.929 . S
C2390 C2386 1.531 . S
C2390 H2402 0.960 . S
C2390 H2403 0.962 . S
C2390 H2404 0.960 . S
C2391 C2388 1.511 . S
C2391 H2405 0.961 . S
C2391 H2406 0.961 . S
C2391 H2407 0.961 . S
C2392 C2393 1.370 . S
C2392 C2394 1.363 . S
C2392 H2408 0.931 . S
C2393 C2392 1.370 . S
C2393 C2397 1.408 . S
C2394 C2392 1.363 . S
C2394 C2395 1.370 . S
C2394 C2398 1.524 . S
C2395 C2387 1.503 . S
C2395 C2394 1.370 . S
C2395 C2396 1.403 . S
C2396 C2395 1.403 . S
C2396 C2397 1.404 . S
C2396 C2399 1.539 . S
C2397 C2393 1.408 . S
C2397 C2396 1.404 . S
C2397 H2409 0.930 . S
C2398 C2394 1.524 . S
C2398 H2410 0.956 . S
C2398 H2411 0.961 . S
C2398 H2412 0.961 . S
C2399 C2396 1.539 . S
C2399 H2413 0.958 . S
C2399 H2414 0.961 . S
C2399 H2415 0.960 . S
H2400 C2384 0.931 . S
H2401 C2389 0.929 . S
H2402 C2390 0.960 . S
H2403 C2390 0.962 . S
H2404 C2390 0.960 . S
H2405 C2391 0.961 . S
H2406 C2391 0.961 . S
H2407 C2391 0.961 . S
H2408 C2392 0.931 . S
H2409 C2397 0.930 . S
H2410 C2398 0.956 . S
H2411 C2398 0.961 . S
H2412 C2398 0.961 . S
H2413 C2399 0.958 . S
H2414 C2399 0.961 . S
H2415 C2399 0.960 . S
C2416 C2417 1.391 . S
C2416 C2418 1.394 . S
C2416 H2432 0.931 . S
C2417 C2416 1.391 . S
C2417 C2421 1.376 . S
C2418 C2416 1.394 . S
C2418 C2419 1.369 . S
C2418 C2422 1.531 . S
C2419 C2418 1.369 . S
C2419 C2420 1.410 . S
C2419 C2427 1.503 . S
C2420 C2419 1.410 . S
C2420 C2421 1.392 . S
C2420 C2423 1.511 . S
C2421 C2417 1.376 . S
C2421 C2420 1.392 . S
C2421 H2433 0.929 . S
C2422 C2418 1.531 . S
C2422 H2434 0.960 . S
C2422 H2435 0.962 . S
C2422 H2436 0.960 . S
C2423 C2420 1.511 . S
C2423 H2437 0.961 . S
C2423 H2438 0.961 . S
C2423 H2439 0.961 . S
C2424 C2425 1.370 . S
C2424 C2426 1.363 . S
C2424 H2440 0.931 . S
C2425 C2424 1.370 . S
C2425 C2429 1.408 . S
C2426 C2424 1.363 . S
C2426 C2427 1.370 . S
C2426 C2430 1.524 . S
C2427 C2419 1.503 . S
C2427 C2426 1.370 . S
C2427 C2428 1.403 . S
C2428 C2427 1.403 . S
C2428 C2429 1.404 . S
C2428 C2431 1.539 . S
C2429 C2425 1.408 . S
C2429 C2428 1.404 . S
C2429 H2441 0.930 . S
C2430 C2426 1.524 . S
C2430 H2442 0.956 . S
C2430 H2443 0.961 . S
C2430 H2444 0.961 . S
C2431 C2428 1.539 . S
C2431 H2445 0.958 . S
C2431 H2446 0.961 . S
C2431 H2447 0.960 . S
H2432 C2416 0.931 . S
H2433 C2421 0.929 . S
H2434 C2422 0.960 . S
H2435 C2422 0.962 . S
H2436 C2422 0.960 . S
H2437 C2423 0.961 . S
H2438 C2423 0.961 . S
H2439 C2423 0.961 . S
H2440 C2424 0.931 . S
H2441 C2429 0.930 . S
H2442 C2430 0.956 . S
H2443 C2430 0.961 . S
H2444 C2430 0.961 . S
H2445 C2431 0.958 . S
H2446 C2431 0.961 . S
H2447 C2431 0.960 . S
C2448 C2449 1.391 . S
C2448 C2450 1.394 . S
C2448 H2464 0.931 . S
C2449 C2448 1.391 . S
C2449 C2453 1.376 . S
C2450 C2448 1.394 . S
C2450 C2451 1.369 . S
C2450 C2454 1.531 . S
C2451 C2450 1.369 . S
C2451 C2452 1.410 . S
C2451 C2459 1.503 . S
C2452 C2451 1.410 . S
C2452 C2453 1.392 . S
C2452 C2455 1.511 . S
C2453 C2449 1.376 . S
C2453 C2452 1.392 . S
C2453 H2465 0.929 . S
C2454 C2450 1.531 . S
C2454 H2466 0.960 . S
C2454 H2467 0.962 . S
C2454 H2468 0.960 . S
C2455 C2452 1.511 . S
C2455 H2469 0.961 . S
C2455 H2470 0.961 . S
C2455 H2471 0.961 . S
C2456 C2457 1.370 . S
C2456 C2458 1.363 . S
C2456 H2472 0.931 . S
C2457 C2456 1.370 . S
C2457 C2461 1.408 . S
C2458 C2456 1.363 . S
C2458 C2459 1.370 . S
C2458 C2462 1.524 . S
C2459 C2451 1.503 . S
C2459 C2458 1.370 . S
C2459 C2460 1.403 . S
C2460 C2459 1.403 . S
C2460 C2461 1.404 . S
C2460 C2463 1.539 . S
C2461 C2457 1.408 . S
C2461 C2460 1.404 . S
C2461 H2473 0.930 . S
C2462 C2458 1.524 . S
C2462 H2474 0.956 . S
C2462 H2475 0.961 . S
C2462 H2476 0.961 . S
C2463 C2460 1.539 . S
C2463 H2477 0.958 . S
C2463 H2478 0.961 . S
C2463 H2479 0.960 . S
H2464 C2448 0.931 . S
H2465 C2453 0.929 . S
H2466 C2454 0.960 . S
H2467 C2454 0.962 . S
H2468 C2454 0.960 . S
H2469 C2455 0.961 . S
H2470 C2455 0.961 . S
H2471 C2455 0.961 . S
H2472 C2456 0.931 . S
H2473 C2461 0.930 . S
H2474 C2462 0.956 . S
H2475 C2462 0.961 . S
H2476 C2462 0.961 . S
H2477 C2463 0.958 . S
H2478 C2463 0.961 . S
H2479 C2463 0.960 . S
C2480 C2481 1.391 . S
C2480 C2482 1.394 . S
C2480 H2496 0.931 . S
C2481 C2480 1.391 . S
C2481 C2485 1.376 . S
C2482 C2480 1.394 . S
C2482 C2483 1.369 . S
C2482 C2486 1.531 . S
C2483 C2482 1.369 . S
C2483 C2484 1.410 . S
C2483 C2491 1.503 . S
C2484 C2483 1.410 . S
C2484 C2485 1.392 . S
C2484 C2487 1.511 1_545 S
C2485 C2481 1.376 . S
C2485 C2484 1.392 . S
C2485 H2497 0.929 . S
C2486 C2482 1.531 . S
C2486 H2498 0.960 . S
C2486 H2499 0.962 . S
C2486 H2500 0.960 . S
C2487 C2484 1.511 1_565 S
C2487 H2501 0.961 . S
C2487 H2502 0.961 . S
C2487 H2503 0.961 . S
C2488 C2489 1.370 1_545 S
C2488 C2490 1.363 . S
C2488 H2504 0.931 . S
C2489 C2488 1.370 1_565 S
C2489 C2493 1.408 . S
C2490 C2488 1.363 . S
C2490 C2491 1.370 . S
C2490 C2494 1.524 . S
C2491 C2483 1.503 . S
C2491 C2490 1.370 . S
C2491 C2492 1.403 1_545 S
C2492 C2491 1.403 1_565 S
C2492 C2493 1.404 . S
C2492 C2495 1.539 . S
C2493 C2489 1.408 . S
C2493 C2492 1.404 . S
C2493 H2505 0.930 . S
C2494 C2490 1.524 . S
C2494 H2506 0.956 . S
C2494 H2507 0.961 . S
C2494 H2508 0.961 . S
C2495 C2492 1.539 . S
C2495 H2509 0.958 . S
C2495 H2510 0.961 . S
C2495 H2511 0.960 . S
H2496 C2480 0.931 . S
H2497 C2485 0.929 . S
H2498 C2486 0.960 . S
H2499 C2486 0.962 . S
H2500 C2486 0.960 . S
H2501 C2487 0.961 . S
H2502 C2487 0.961 . S
H2503 C2487 0.961 . S
H2504 C2488 0.931 . S
H2505 C2493 0.930 . S
H2506 C2494 0.956 . S
H2507 C2494 0.961 . S
H2508 C2494 0.961 . S
H2509 C2495 0.958 . S
H2510 C2495 0.961 . S
H2511 C2495 0.960 . S
C2512 C2513 1.391 . S
C2512 C2514 1.394 . S
C2512 H2528 0.931 . S
C2513 C2512 1.391 . S
C2513 C2517 1.376 . S
C2514 C2512 1.394 . S
C2514 C2515 1.369 . S
C2514 C2518 1.531 . S
C2515 C2514 1.369 . S
C2515 C2516 1.410 . S
C2515 C2523 1.503 . S
C2516 C2515 1.410 . S
C2516 C2517 1.392 . S
C2516 C2519 1.511 1_655 S
C2517 C2513 1.376 . S
C2517 C2516 1.392 . S
C2517 H2529 0.929 . S
C2518 C2514 1.531 . S
C2518 H2530 0.960 . S
C2518 H2531 0.962 . S
C2518 H2532 0.960 . S
C2519 C2516 1.511 1_455 S
C2519 H2533 0.961 . S
C2519 H2534 0.961 . S
C2519 H2535 0.961 . S
C2520 C2521 1.373 1_655 S
C2520 C2522 1.363 . S
C2520 H2536 0.931 . S
C2521 C2520 1.373 1_455 S
C2521 C2525 1.407 . S
C2522 C2520 1.363 . S
C2522 C2523 1.370 . S
C2522 C2526 1.524 . S
C2523 C2515 1.503 . S
C2523 C2522 1.370 . S
C2523 C2524 1.403 1_655 S
C2524 C2523 1.403 1_455 S
C2524 C2525 1.404 . S
C2524 C2527 1.539 . S
C2525 C2521 1.407 . S
C2525 C2524 1.404 . S
C2525 H2537 0.930 . S
C2526 C2522 1.524 . S
C2526 H2538 0.956 . S
C2526 H2539 0.961 . S
C2526 H2540 0.961 . S
C2527 C2524 1.539 . S
C2527 H2541 0.958 . S
C2527 H2542 0.961 . S
C2527 H2543 0.960 . S
H2528 C2512 0.931 . S
H2529 C2517 0.929 . S
H2530 C2518 0.960 . S
H2531 C2518 0.962 . S
H2532 C2518 0.960 . S
H2533 C2519 0.961 . S
H2534 C2519 0.961 . S
H2535 C2519 0.961 . S
H2536 C2520 0.931 . S
H2537 C2525 0.930 . S
H2538 C2526 0.956 . S
H2539 C2526 0.961 . S
H2540 C2526 0.961 . S
H2541 C2527 0.958 . S
H2542 C2527 0.961 . S
H2543 C2527 0.960 . S
C2544 C2545 1.391 . S
C2544 C2546 1.394 . S
C2544 H2560 0.931 . S
C2545 C2544 1.391 . S
C2545 C2549 1.376 . S
C2546 C2544 1.394 . S
C2546 C2547 1.369 . S
C2546 C2550 1.531 . S
C2547 C2546 1.369 . S
C2547 C2548 1.410 . S
C2547 C2555 1.503 . S
C2548 C2547 1.410 . S
C2548 C2549 1.392 . S
C2548 C2551 1.511 . S
C2549 C2545 1.376 . S
C2549 C2548 1.392 . S
C2549 H2561 0.929 . S
C2550 C2546 1.531 . S
C2550 H2562 0.960 . S
C2550 H2563 0.962 . S
C2550 H2564 0.960 . S
C2551 C2548 1.511 . S
C2551 H2565 0.961 . S
C2551 H2566 0.961 . S
C2551 H2567 0.961 . S
C2552 C2553 1.370 . S
C2552 C2554 1.363 . S
C2552 H2568 0.931 . S
C2553 C2552 1.370 . S
C2553 C2557 1.408 . S
C2554 C2552 1.363 . S
C2554 C2555 1.370 . S
C2554 C2558 1.524 . S
C2555 C2547 1.503 . S
C2555 C2554 1.370 . S
C2555 C2556 1.403 . S
C2556 C2555 1.403 . S
C2556 C2557 1.404 . S
C2556 C2559 1.539 . S
C2557 C2553 1.408 . S
C2557 C2556 1.404 . S
C2557 H2569 0.930 . S
C2558 C2554 1.524 . S
C2558 H2570 0.956 . S
C2558 H2571 0.961 . S
C2558 H2572 0.961 . S
C2559 C2556 1.539 . S
C2559 H2573 0.958 . S
C2559 H2574 0.961 . S
C2559 H2575 0.960 . S
H2560 C2544 0.931 . S
H2561 C2549 0.929 . S
H2562 C2550 0.960 . S
H2563 C2550 0.962 . S
H2564 C2550 0.960 . S
H2565 C2551 0.961 . S
H2566 C2551 0.961 . S
H2567 C2551 0.961 . S
H2568 C2552 0.931 . S
H2569 C2557 0.930 . S
H2570 C2558 0.956 . S
H2571 C2558 0.961 . S
H2572 C2558 0.961 . S
H2573 C2559 0.958 . S
H2574 C2559 0.961 . S
H2575 C2559 0.960 . S
C2576 C2577 1.391 1_545 S
C2576 C2578 1.394 . S
C2576 H2592 0.931 . S
C2577 C2576 1.391 1_565 S
C2577 C2581 1.376 . S
C2578 C2576 1.394 . S
C2578 C2579 1.369 1_545 S
C2578 C2582 1.531 . S
C2579 C2578 1.369 1_565 S
C2579 C2580 1.410 . S
C2579 C2587 1.503 . S
C2580 C2579 1.410 . S
C2580 C2581 1.392 . S
C2580 C2583 1.511 . S
C2581 C2577 1.376 . S
C2581 C2580 1.392 . S
C2581 H2593 0.929 . S
C2582 C2578 1.531 . S
C2582 H2594 0.960 . S
C2582 H2595 0.962 . S
C2582 H2596 0.960 . S
C2583 C2580 1.511 . S
C2583 H2597 0.961 . S
C2583 H2598 0.961 . S
C2583 H2599 0.961 . S
C2584 C2585 1.370 . S
C2584 C2586 1.363 . S
C2584 H2600 0.934 1_565 S
C2585 C2584 1.370 . S
C2585 C2589 1.408 . S
C2586 C2584 1.363 . S
C2586 C2587 1.370 . S
C2586 C2590 1.524 1_565 S
C2587 C2579 1.503 . S
C2587 C2586 1.370 . S
C2587 C2588 1.403 . S
C2588 C2587 1.403 . S
C2588 C2589 1.404 . S
C2588 C2591 1.539 . S
C2589 C2585 1.408 . S
C2589 C2588 1.404 . S
C2589 H2601 0.930 . S
C2590 C2586 1.524 1_545 S
C2590 H2602 0.956 . S
C2590 H2603 0.961 . S
C2590 H2604 0.961 . S
C2591 C2588 1.539 . S
C2591 H2605 0.958 . S
C2591 H2606 0.961 . S
C2591 H2607 0.960 . S
H2592 C2576 0.931 . S
H2593 C2581 0.929 . S
H2594 C2582 0.960 . S
H2595 C2582 0.962 . S
H2596 C2582 0.960 . S
H2597 C2583 0.961 . S
H2598 C2583 0.961 . S
H2599 C2583 0.961 . S
H2600 C2584 0.934 1_545 S
H2601 C2589 0.930 . S
H2602 C2590 0.956 . S
H2603 C2590 0.961 . S
H2604 C2590 0.961 . S
H2605 C2591 0.958 . S
H2606 C2591 0.961 . S
H2607 C2591 0.960 . S
C2608 C2609 1.391 . S
C2608 C2610 1.394 . S
C2608 H2624 0.931 1_455 S
C2609 C2608 1.391 . S
C2609 C2613 1.376 . S
C2610 C2608 1.394 . S
C2610 C2611 1.369 . S
C2610 C2614 1.531 1_455 S
C2611 C2610 1.369 . S
C2611 C2612 1.410 . S
C2611 C2619 1.503 . S
C2612 C2611 1.410 . S
C2612 C2613 1.392 . S
C2612 C2615 1.511 . S
C2613 C2609 1.376 . S
C2613 C2612 1.392 . S
C2613 H2625 0.929 . S
C2614 C2610 1.531 1_655 S
C2614 H2626 0.960 . S
C2614 H2627 0.962 . S
C2614 H2628 0.960 . S
C2615 C2612 1.511 . S
C2615 H2629 0.961 . S
C2615 H2630 0.961 . S
C2615 H2631 0.961 . S
C2616 C2617 1.370 1_655 S
C2616 C2618 1.363 . S
C2616 H2632 0.931 . S
C2617 C2616 1.370 1_455 S
C2617 C2621 1.407 . S
C2618 C2616 1.363 . S
C2618 C2619 1.370 1_655 S
C2618 C2622 1.524 . S
C2619 C2611 1.503 . S
C2619 C2618 1.370 1_455 S
C2619 C2620 1.403 . S
C2620 C2619 1.403 . S
C2620 C2621 1.404 . S
C2620 C2623 1.539 . S
C2621 C2617 1.407 . S
C2621 C2620 1.404 . S
C2621 H2633 0.930 . S
C2622 C2618 1.524 . S
C2622 H2634 0.956 . S
C2622 H2635 0.961 1_655 S
C2622 H2636 0.961 . S
C2623 C2620 1.539 . S
C2623 H2637 0.958 . S
C2623 H2638 0.961 . S
C2623 H2639 0.960 . S
H2624 C2608 0.931 1_655 S
H2625 C2613 0.929 . S
H2626 C2614 0.960 . S
H2627 C2614 0.962 . S
H2628 C2614 0.960 . S
H2629 C2615 0.961 . S
H2630 C2615 0.961 . S
H2631 C2615 0.961 . S
H2632 C2616 0.931 . S
H2633 C2621 0.930 . S
H2634 C2622 0.956 . S
H2635 C2622 0.961 1_455 S
H2636 C2622 0.961 . S
H2637 C2623 0.958 . S
H2638 C2623 0.961 . S
H2639 C2623 0.960 . S
C2640 C2641 1.391 . S
C2640 C2642 1.394 . S
C2640 H2656 0.931 . S
C2641 C2640 1.391 . S
C2641 C2645 1.376 . S
C2642 C2640 1.394 . S
C2642 C2643 1.369 . S
C2642 C2646 1.531 . S
C2643 C2642 1.369 . S
C2643 C2644 1.410 . S
C2643 C2651 1.503 . S
C2644 C2643 1.410 . S
C2644 C2645 1.392 . S
C2644 C2647 1.511 . S
C2645 C2641 1.376 . S
C2645 C2644 1.392 . S
C2645 H2657 0.929 . S
C2646 C2642 1.531 . S
C2646 H2658 0.960 . S
C2646 H2659 0.962 . S
C2646 H2660 0.960 . S
C2647 C2644 1.511 . S
C2647 H2661 0.961 . S
C2647 H2662 0.961 . S
C2647 H2663 0.961 . S
C2648 C2649 1.370 . S
C2648 C2650 1.363 . S
C2648 H2664 0.931 . S
C2649 C2648 1.370 . S
C2649 C2653 1.408 . S
C2650 C2648 1.363 . S
C2650 C2651 1.370 . S
C2650 C2654 1.524 . S
C2651 C2643 1.503 . S
C2651 C2650 1.370 . S
C2651 C2652 1.403 . S
C2652 C2651 1.403 . S
C2652 C2653 1.404 . S
C2652 C2655 1.539 . S
C2653 C2649 1.408 . S
C2653 C2652 1.404 . S
C2653 H2665 0.930 . S
C2654 C2650 1.524 . S
C2654 H2666 0.956 . S
C2654 H2667 0.961 . S
C2654 H2668 0.961 . S
C2655 C2652 1.539 . S
C2655 H2669 0.958 . S
C2655 H2670 0.961 . S
C2655 H2671 0.960 . S
H2656 C2640 0.931 . S
H2657 C2645 0.929 . S
H2658 C2646 0.960 . S
H2659 C2646 0.962 . S
H2660 C2646 0.960 . S
H2661 C2647 0.961 . S
H2662 C2647 0.961 . S
H2663 C2647 0.961 . S
H2664 C2648 0.931 . S
H2665 C2653 0.930 . S
H2666 C2654 0.956 . S
H2667 C2654 0.961 . S
H2668 C2654 0.961 . S
H2669 C2655 0.958 . S
H2670 C2655 0.961 . S
H2671 C2655 0.960 . S
C2672 C2673 1.391 . S
C2672 C2674 1.394 . S
C2672 H2688 0.931 . S
C2673 C2672 1.391 . S
C2673 C2677 1.376 . S
C2674 C2672 1.394 . S
C2674 C2675 1.369 . S
C2674 C2678 1.531 . S
C2675 C2674 1.369 . S
C2675 C2676 1.410 . S
C2675 C2683 1.503 . S
C2676 C2675 1.410 . S
C2676 C2677 1.392 . S
C2676 C2679 1.511 . S
C2677 C2673 1.376 . S
C2677 C2676 1.392 . S
C2677 H2689 0.929 . S
C2678 C2674 1.531 . S
C2678 H2690 0.960 . S
C2678 H2691 0.962 . S
C2678 H2692 0.960 . S
C2679 C2676 1.511 . S
C2679 H2693 0.961 . S
C2679 H2694 0.961 . S
C2679 H2695 0.961 . S
C2680 C2681 1.370 . S
C2680 C2682 1.363 . S
C2680 H2696 0.931 . S
C2681 C2680 1.370 . S
C2681 C2685 1.408 . S
C2682 C2680 1.363 . S
C2682 C2683 1.370 . S
C2682 C2686 1.524 . S
C2683 C2675 1.503 . S
C2683 C2682 1.370 . S
C2683 C2684 1.403 . S
C2684 C2683 1.403 . S
C2684 C2685 1.404 . S
C2684 C2687 1.539 . S
C2685 C2681 1.408 . S
C2685 C2684 1.404 . S
C2685 H2697 0.930 . S
C2686 C2682 1.524 . S
C2686 H2698 0.956 . S
C2686 H2699 0.961 . S
C2686 H2700 0.961 . S
C2687 C2684 1.539 . S
C2687 H2701 0.958 . S
C2687 H2702 0.961 . S
C2687 H2703 0.960 . S
H2688 C2672 0.931 . S
H2689 C2677 0.929 . S
H2690 C2678 0.960 . S
H2691 C2678 0.962 . S
H2692 C2678 0.960 . S
H2693 C2679 0.961 . S
H2694 C2679 0.961 . S
H2695 C2679 0.961 . S
H2696 C2680 0.931 . S
H2697 C2685 0.930 . S
H2698 C2686 0.956 . S
H2699 C2686 0.961 . S
H2700 C2686 0.961 . S
H2701 C2687 0.958 . S
H2702 C2687 0.961 . S
H2703 C2687 0.960 . S
C2704 C2705 1.391 . S
C2704 C2706 1.394 . S
C2704 H2720 0.931 . S
C2705 C2704 1.391 . S
C2705 C2709 1.376 . S
C2706 C2704 1.394 . S
C2706 C2707 1.369 . S
C2706 C2710 1.531 . S
C2707 C2706 1.369 . S
C2707 C2708 1.410 . S
C2707 C2715 1.503 . S
C2708 C2707 1.410 . S
C2708 C2709 1.392 . S
C2708 C2711 1.511 . S
C2709 C2705 1.376 . S
C2709 C2708 1.392 . S
C2709 H2721 0.929 . S
C2710 C2706 1.531 . S
C2710 H2722 0.960 . S
C2710 H2723 0.962 . S
C2710 H2724 0.960 . S
C2711 C2708 1.511 . S
C2711 H2725 0.961 . S
C2711 H2726 0.961 . S
C2711 H2727 0.961 . S
C2712 C2713 1.370 . S
C2712 C2714 1.363 . S
C2712 H2728 0.931 . S
C2713 C2712 1.370 . S
C2713 C2717 1.408 . S
C2714 C2712 1.363 . S
C2714 C2715 1.370 . S
C2714 C2718 1.524 . S
C2715 C2707 1.503 . S
C2715 C2714 1.370 . S
C2715 C2716 1.403 . S
C2716 C2715 1.403 . S
C2716 C2717 1.404 . S
C2716 C2719 1.539 . S
C2717 C2713 1.408 . S
C2717 C2716 1.404 . S
C2717 H2729 0.930 . S
C2718 C2714 1.524 . S
C2718 H2730 0.956 . S
C2718 H2731 0.961 . S
C2718 H2732 0.961 . S
C2719 C2716 1.539 . S
C2719 H2733 0.958 . S
C2719 H2734 0.961 . S
C2719 H2735 0.960 . S
H2720 C2704 0.931 . S
H2721 C2709 0.929 . S
H2722 C2710 0.960 . S
H2723 C2710 0.962 . S
H2724 C2710 0.960 . S
H2725 C2711 0.961 . S
H2726 C2711 0.961 . S
H2727 C2711 0.961 . S
H2728 C2712 0.931 . S
H2729 C2717 0.930 . S
H2730 C2718 0.956 . S
H2731 C2718 0.961 . S
H2732 C2718 0.961 . S
H2733 C2719 0.958 . S
H2734 C2719 0.961 . S
H2735 C2719 0.960 . S
C1585 C49 1.919 . S
C1593 C284 1.964 . S
C1617 C108 1.953 . S
C1625 C401 1.995 . S
C1649 C489 1.975 . S
C1657 C233 1.983 . S
C1681 C577 1.939 . S
C1689 C821 1.933 . S
C1713 C636 1.960 . S
C1721 C929 1.956 . S
C1745 C1017 1.909 . S
C1753 C761 1.929 . S
C1777 C1340 1.927 . S
C1785 C1105 1.932 . S
C1809 C1465 1.942 . S
C1817 C1173 1.959 . S
C1841 C1553 1.906 . S
C1849 C1281 1.931 . S
C1873 C29 2.533 . S
C1881 C849 2.549 . S
C1905 C145 2.521 . S
C1913 C900 2.563 . S
C1937 C1025 2.605 . S
C1945 C205 2.636 . S
C1969 C313 2.568 . S
C1977 C1085 2.541 . S
C2001 C372 2.519 . S
C2009 C1193 2.566 . S
C2033 C497 2.628 . S
C2041 C1252 2.629 . S
C2065 C557 2.569 . S
C2073 C1369 2.623 . S
C2097 C673 2.592 . S
C2105 C1437 2.625 . S
C2129 C1545 2.514 . S
C2137 C733 2.513 1_545 S
C2161 C57 0.291 . S
C2169 C381 0.150 . S
C2193 C117 0.416 . S
C2201 C460 0.128 . S
C2225 C196 0.448 . S
C2233 C321 0.183 . S
C2257 C293 0.492 . S
C2265 C137 0.125 . S
C2289 C225 0.204 . S
C2297 C409 0.373 . S
C2321 C469 0.440 . S
C2329 C20 0.131 . S
C2353 C585 0.434 . S
C2361 C909 0.105 . S
C2385 C988 0.225 . S
C2393 C645 0.344 . S
C2417 C841 0.229 . S
C2425 C724 0.323 . S
C2449 C665 0.048 . S
C2457 C812 0.447 . S
C2481 C937 0.457 . S
C2489 C753 0.214 1_565 S
C2513 C997 0.458 . S
C2521 C548 0.170 1_455 S
C2545 C1428 0.099 . S
C2553 C1113 0.364 . S
C2577 C1525 0.156 . S
C2585 C1164 0.328 . S
C2609 C1261 0.538 . S
C2617 C1377 0.153 . S
C2641 C1201 0.147 . S
C2649 C1349 0.339 . S
C2673 C1289 0.156 . S
C2681 C1457 0.407 . S
C2705 C1076 0.155 . S
C2713 C1516 0.343 . S
