# Generated by pormake.
# Topology zfh, (5)-cn, num edge types: 1
# Building blocks:
#     Node 0, Type 0, BuildingBlock: BEQFEK_clean_sbu_0, # of connection points: 5
#     Node 1, Type 0, BuildingBlock: BEQFEK_clean_sbu_0, # of connection points: 5
#     Node 2, Type 0, BuildingBlock: BEQFEK_clean_sbu_0, # of connection points: 5
#     Node 3, Type 0, BuildingBlock: BEQFEK_clean_sbu_0, # of connection points: 5
#     Node 4, Type 0, BuildingBlock: BEQFEK_clean_sbu_0, # of connection points: 5
#     Node 5, Type 0, BuildingBlock: BEQFEK_clean_sbu_0, # of connection points: 5
#     Node 6, Type 0, BuildingBlock: BEQFEK_clean_sbu_0, # of connection points: 5
#     Node 7, Type 0, BuildingBlock: BEQFEK_clean_sbu_0, # of connection points: 5
#     Node 8, Type 0, BuildingBlock: BEQFEK_clean_sbu_0, # of connection points: 5
#     Node 9, Type 0, BuildingBlock: BEQFEK_clean_sbu_0, # of connection points: 5
#     Node 10, Type 0, BuildingBlock: BEQFEK_clean_sbu_0, # of connection points: 5
#     Node 11, Type 0, BuildingBlock: BEQFEK_clean_sbu_0, # of connection points: 5
#     Node 12, Type 0, BuildingBlock: BEQFEK_clean_sbu_0, # of connection points: 5
#     Node 13, Type 0, BuildingBlock: BEQFEK_clean_sbu_0, # of connection points: 5
#     Node 14, Type 0, BuildingBlock: BEQFEK_clean_sbu_0, # of connection points: 5
#     Node 15, Type 0, BuildingBlock: BEQFEK_clean_sbu_0, # of connection points: 5
#     Edge 16, Type (0, 0), BuildingBlock: TEMPAE_clean_linker_10, # of connection points: 2
#     Edge 17, Type (0, 0), BuildingBlock: TEMPAE_clean_linker_10, # of connection points: 2
#     Edge 18, Type (0, 0), BuildingBlock: TEMPAE_clean_linker_10, # of connection points: 2
#     Edge 19, Type (0, 0), BuildingBlock: TEMPAE_clean_linker_10, # of connection points: 2
#     Edge 20, Type (0, 0), BuildingBlock: TEMPAE_clean_linker_10, # of connection points: 2
#     Edge 21, Type (0, 0), BuildingBlock: TEMPAE_clean_linker_10, # of connection points: 2
#     Edge 22, Type (0, 0), BuildingBlock: TEMPAE_clean_linker_10, # of connection points: 2
#     Edge 23, Type (0, 0), BuildingBlock: TEMPAE_clean_linker_10, # of connection points: 2
#     Edge 24, Type (0, 0), BuildingBlock: TEMPAE_clean_linker_10, # of connection points: 2
#     Edge 25, Type (0, 0), BuildingBlock: TEMPAE_clean_linker_10, # of connection points: 2
#     Edge 26, Type (0, 0), BuildingBlock: TEMPAE_clean_linker_10, # of connection points: 2
#     Edge 27, Type (0, 0), BuildingBlock: TEMPAE_clean_linker_10, # of connection points: 2
#     Edge 28, Type (0, 0), BuildingBlock: TEMPAE_clean_linker_10, # of connection points: 2
#     Edge 29, Type (0, 0), BuildingBlock: TEMPAE_clean_linker_10, # of connection points: 2
#     Edge 30, Type (0, 0), BuildingBlock: TEMPAE_clean_linker_10, # of connection points: 2
#     Edge 31, Type (0, 0), BuildingBlock: TEMPAE_clean_linker_10, # of connection points: 2
#     Edge 32, Type (0, 0), BuildingBlock: TEMPAE_clean_linker_10, # of connection points: 2
#     Edge 33, Type (0, 0), BuildingBlock: TEMPAE_clean_linker_10, # of connection points: 2
#     Edge 34, Type (0, 0), BuildingBlock: TEMPAE_clean_linker_10, # of connection points: 2
#     Edge 35, Type (0, 0), BuildingBlock: TEMPAE_clean_linker_10, # of connection points: 2
#     Edge 36, Type (0, 0), BuildingBlock: TEMPAE_clean_linker_10, # of connection points: 2
#     Edge 37, Type (0, 0), BuildingBlock: TEMPAE_clean_linker_10, # of connection points: 2
#     Edge 38, Type (0, 0), BuildingBlock: TEMPAE_clean_linker_10, # of connection points: 2
#     Edge 39, Type (0, 0), BuildingBlock: TEMPAE_clean_linker_10, # of connection points: 2
#     Edge 40, Type (0, 0), BuildingBlock: TEMPAE_clean_linker_10, # of connection points: 2
#     Edge 41, Type (0, 0), BuildingBlock: TEMPAE_clean_linker_10, # of connection points: 2
#     Edge 42, Type (0, 0), BuildingBlock: TEMPAE_clean_linker_10, # of connection points: 2
#     Edge 43, Type (0, 0), BuildingBlock: TEMPAE_clean_linker_10, # of connection points: 2
#     Edge 44, Type (0, 0), BuildingBlock: TEMPAE_clean_linker_10, # of connection points: 2
#     Edge 45, Type (0, 0), BuildingBlock: TEMPAE_clean_linker_10, # of connection points: 2
#     Edge 46, Type (0, 0), BuildingBlock: TEMPAE_clean_linker_10, # of connection points: 2
#     Edge 47, Type (0, 0), BuildingBlock: TEMPAE_clean_linker_10, # of connection points: 2
#     Edge 48, Type (0, 0), BuildingBlock: TEMPAE_clean_linker_10, # of connection points: 2
#     Edge 49, Type (0, 0), BuildingBlock: TEMPAE_clean_linker_10, # of connection points: 2
#     Edge 50, Type (0, 0), BuildingBlock: TEMPAE_clean_linker_10, # of connection points: 2
#     Edge 51, Type (0, 0), BuildingBlock: TEMPAE_clean_linker_10, # of connection points: 2
#     Edge 52, Type (0, 0), BuildingBlock: TEMPAE_clean_linker_10, # of connection points: 2
#     Edge 53, Type (0, 0), BuildingBlock: TEMPAE_clean_linker_10, # of connection points: 2
#     Edge 54, Type (0, 0), BuildingBlock: TEMPAE_clean_linker_10, # of connection points: 2
#     Edge 55, Type (0, 0), BuildingBlock: TEMPAE_clean_linker_10, # of connection points: 2
# Relax obj value: 0.213
# Max RMSD: 0.165
# Mean RMSD: 0.165
data_MOF--net-zfh--node1-BEQFEK_clean_sbu_0--edge1-TEMPAE_clean_linker_10
_symmetry_space_group_name_H-M    P1
_symmetry_Int_Tables_number       1
_symmetry_cell_setting            triclinic
loop_
_symmetry_equiv_pos_as_xyz
'x, y, z'
_cell_length_a     43.662128
_cell_length_b     43.690022
_cell_length_c     43.580838
_cell_angle_alpha  89.984828
_cell_angle_beta   90.034798
_cell_angle_gamma 89.93054
loop_
_atom_site_label
_atom_site_type_symbol
_atom_site_fract_x
_atom_site_fract_y
_atom_site_fract_z
_atom_type_partial_charge
Co0 Co 0.54827 0.18307 0.38953 0.0
Co1 Co 0.51878 0.23142 0.34494 0.0
C2 C 0.48495 0.17452 0.36737 0.0
O3 O 0.50662 0.165 0.38458 0.0
O4 O 0.48764 0.19911 0.35189 0.0
C5 C 0.56661 0.13834 0.43713 0.0
O6 O 0.53825 0.12835 0.43753 0.0
C7 C 0.47392 0.28001 0.33928 0.0
C8 C 0.48849 0.30492 0.29774 0.0
C9 C 0.46754 0.3059 0.32173 0.0
N10 N 0.49759 0.26501 0.32648 0.0
N11 N 0.5059 0.27969 0.30135 0.0
C12 C 0.46036 0.2711 0.36957 0.0
H13 H 0.47533 0.25452 0.38168 0.0
H14 H 0.45681 0.29156 0.38422 0.0
H15 H 0.43789 0.25993 0.36563 0.0
C16 C 0.55823 0.23865 0.42687 0.0
N17 N 0.54677 0.22444 0.40195 0.0
N18 N 0.53702 0.24508 0.38225 0.0
C19 C 0.54297 0.2732 0.39361 0.0
C20 C 0.55619 0.27 0.42239 0.0
C21 C 0.57343 0.22245 0.45303 0.0
H22 H 0.59519 0.21213 0.44489 0.0
H23 H 0.55845 0.20367 0.46125 0.0
H24 H 0.57858 0.23824 0.47228 0.0
O25 O 0.57066 0.18024 0.34994 0.0
O26 O 0.55044 0.21391 0.31723 0.0
H27 H 0.54062 0.29943 0.35195 0.0
H28 H 0.55221 0.32121 0.38513 0.0
C29 C 0.53709 0.3026 0.37691 0.0
H30 H 0.51314 0.30992 0.38105 0.0
H31 H 0.52427 0.27326 0.28747 0.0
O32 O 0.57391 0.16002 0.41914 0.0
C33 C 0.56979 0.19296 0.32364 0.0
Co34 Co 0.32064 0.55086 0.38774 0.0
Co35 Co 0.27282 0.52049 0.34321 0.0
C36 C 0.33087 0.48807 0.36467 0.0
O37 O 0.33967 0.50961 0.38236 0.0
O38 O 0.3063 0.4904 0.34907 0.0
C39 C 0.36816 0.57148 0.43143 0.0
O40 O 0.38238 0.54525 0.42752 0.0
C41 C 0.22727 0.47306 0.33272 0.0
C42 C 0.19501 0.49545 0.30079 0.0
C43 C 0.19857 0.4698 0.31925 0.0
N44 N 0.23926 0.49996 0.32382 0.0
N45 N 0.22029 0.51283 0.304 0.0
C46 C 0.24303 0.45154 0.35437 0.0
H47 H 0.26728 0.44879 0.34753 0.0
H48 H 0.24258 0.46126 0.37789 0.0
H49 H 0.23223 0.42858 0.35429 0.0
C50 C 0.26521 0.55922 0.42564 0.0
N51 N 0.27941 0.54828 0.40047 0.0
N52 N 0.25895 0.5367 0.38161 0.0
C53 C 0.23088 0.54015 0.39425 0.0
C54 C 0.23395 0.55446 0.42254 0.0
C55 C 0.28116 0.57655 0.4506 0.0
H56 H 0.2913 0.59767 0.4408 0.0
H57 H 0.30012 0.56241 0.45996 0.0
H58 H 0.26538 0.58308 0.4694 0.0
O59 O 0.32303 0.57371 0.34865 0.0
O60 O 0.28929 0.55345 0.3162 0.0
H61 H 0.20009 0.53892 0.35603 0.0
H62 H 0.18116 0.53722 0.39282 0.0
C63 C 0.20159 0.52983 0.37971 0.0
H64 H 0.2013 0.50454 0.37887 0.0
H65 H 0.22362 0.53442 0.29432 0.0
O66 O 0.34322 0.57659 0.41734 0.0
C67 C 0.31001 0.57302 0.32253 0.0
Co68 Co 0.95788 0.32297 0.3948 0.0
Co69 Co 0.98597 0.27612 0.34761 0.0
C70 C 0.0194 0.33353 0.37079 0.0
O71 O 0.99859 0.34191 0.38949 0.0
O72 O 0.01632 0.30966 0.35425 0.0
C73 C 0.93782 0.36834 0.44091 0.0
O74 O 0.9646 0.38177 0.43832 0.0
C75 C 0.03238 0.22887 0.34087 0.0
C76 C 0.01529 0.20081 0.30246 0.0
C77 C 0.03751 0.20154 0.32527 0.0
N78 N 0.00768 0.24279 0.32869 0.0
N79 N 0.99796 0.22624 0.30527 0.0
C80 C 0.04997 0.24141 0.36758 0.0
H81 H 0.03859 0.2346 0.38928 0.0
H82 H 0.07392 0.2329 0.36759 0.0
H83 H 0.05036 0.26666 0.3668 0.0
C84 C 0.94945 0.26631 0.4306 0.0
N85 N 0.96022 0.28133 0.40586 0.0
N86 N 0.96975 0.26138 0.38539 0.0
C87 C 0.96449 0.23288 0.39616 0.0
C88 C 0.95176 0.23512 0.42523 0.0
C89 C 0.93422 0.28163 0.45726 0.0
H90 H 0.91199 0.29135 0.44962 0.0
H91 H 0.94872 0.30078 0.4655 0.0
H92 H 0.92991 0.26544 0.47636 0.0
O93 O 0.93585 0.32722 0.35561 0.0
O94 O 0.95217 0.2932 0.32138 0.0
H95 H 0.96449 0.20729 0.35412 0.0
H96 H 0.95734 0.18436 0.38775 0.0
C97 C 0.97047 0.204 0.3786 0.0
H98 H 0.99504 0.19804 0.38049 0.0
H99 H 0.9785 0.23138 0.29233 0.0
O100 O 0.93209 0.3446 0.42512 0.0
C101 C 0.93448 0.31528 0.329 0.0
Co102 Co 0.1834 0.95723 0.39406 0.0
Co103 Co 0.22958 0.98639 0.34724 0.0
C104 C 0.17361 0.02025 0.37277 0.0
O105 O 0.16502 0.99852 0.39027 0.0
O106 O 0.19737 0.01777 0.35597 0.0
C107 C 0.13581 0.93557 0.43639 0.0
O108 O 0.12024 0.96045 0.42971 0.0
C109 C 0.27743 0.03161 0.34088 0.0
C110 C 0.30135 0.0183 0.29835 0.0
C111 C 0.30274 0.03867 0.32282 0.0
N112 N 0.2623 0.00814 0.3279 0.0
N113 N 0.27638 1.00058 0.30219 0.0
C114 C 0.26933 0.0443 0.37178 0.0
H115 H 0.25309 0.02907 0.38393 0.0
H116 H 0.29022 0.0474 0.38596 0.0
H117 H 0.25803 0.06686 0.36881 0.0
C118 C 0.24098 0.9464 0.42826 0.0
N119 N 0.22545 0.95818 0.40427 0.0
N120 N 0.24505 0.96841 0.38382 0.0
C121 C 0.27376 0.96285 0.3939 0.0
C122 C 0.27214 0.94907 0.42251 0.0
C123 C 0.22613 0.93248 0.45586 0.0
H124 H 0.21805 0.90912 0.45 0.0
H125 H 0.20597 0.94634 0.46271 0.0
H126 H 0.24238 0.93095 0.4754 0.0
O127 O 0.17771 0.93637 0.35438 0.0
O128 O 0.21136 0.95392 0.32033 0.0
H129 H 0.32012 0.95041 0.38185 0.0
H130 H 0.31132 0.99043 0.37894 0.0
C131 C 0.30214 0.9671 0.3751 0.0
H132 H 0.29697 0.96409 0.3504 0.0
H133 H 0.2698 0.98247 0.28805 0.0
O134 O 0.1619 0.93128 0.42429 0.0
C135 C 0.18933 0.93608 0.32758 0.0
Co136 Co 0.04697 0.82411 0.10468 0.0
Co137 Co 0.02171 0.7756 0.15132 0.0
C138 C 0.98588 0.83255 0.12951 0.0
O139 O 0.00525 0.84125 0.10945 0.0
O140 O 0.9909 0.80908 0.14619 0.0
C141 C 0.06786 0.87044 0.05934 0.0
O142 O 0.04107 0.88406 0.06096 0.0
C143 C 0.9767 0.72725 0.15616 0.0
C144 C 0.9925 0.69968 0.19552 0.0
C145 C 0.97122 0.70004 0.17181 0.0
N146 N 1.00061 0.74156 0.16931 0.0
N147 N 0.00965 0.72525 0.19319 0.0
C148 C 0.95995 0.73959 0.12879 0.0
H149 H 0.97165 0.73197 0.10753 0.0
H150 H 0.93586 0.73153 0.12845 0.0
H151 H 0.96006 0.76488 0.12894 0.0
C152 C 0.05733 0.76838 0.06783 0.0
N153 N 0.04641 0.78265 0.09294 0.0
N154 N 0.03761 0.76208 0.11308 0.0
C155 C 0.04325 0.73393 0.1016 0.0
C156 C 0.0556 0.73702 0.07246 0.0
C157 C 0.0698 0.78457 0.04029 0.0
H158 H 0.09327 0.79282 0.04547 0.0
H159 H 0.0553 0.80472 0.03484 0.0
H160 H 0.07076 0.76915 0.02008 0.0
O161 O 0.06842 0.82874 0.14438 0.0
O162 O 0.05536 0.79231 0.17753 0.0
H163 H 0.04526 0.70905 0.14411 0.0
H164 H 0.05728 0.68741 0.111 0.0
C165 C 0.04074 0.70477 0.11948 0.0
H166 H 0.01736 0.69528 0.11675 0.0
H167 H 0.02841 0.73078 0.20696 0.0
O168 O 0.0729 0.84658 0.0752 0.0
C169 C 0.07115 0.81589 0.17049 0.0
Co170 Co 0.68408 0.04867 0.1079 0.0
Co171 Co 0.7314 0.0197 0.15383 0.0
C172 C 0.67505 0.98566 0.13052 0.0
O173 O 0.66587 0.00707 0.11283 0.0
O174 O 0.69926 0.98862 0.14653 0.0
C175 C 0.63562 0.06891 0.06538 0.0
O176 O 0.62029 0.04414 0.07283 0.0
C177 C 0.77882 0.97414 0.16126 0.0
C178 C 0.80408 0.98942 0.20235 0.0
C179 C 0.80452 0.96772 0.17903 0.0
N180 N 0.76437 0.99851 0.17329 0.0
N181 N 0.77921 0.00725 0.19819 0.0
C182 C 0.76983 0.96 0.13125 0.0
H183 H 0.75393 0.97515 0.11847 0.0
H184 H 0.79035 0.95533 0.11698 0.0
H185 H 0.75787 0.93805 0.13568 0.0
C186 C 0.74051 0.05783 0.07156 0.0
N187 N 0.72576 0.04698 0.09643 0.0
N188 N 0.74597 0.03725 0.11658 0.0
C189 C 0.77437 0.0425 0.10552 0.0
C190 C 0.7718 0.05536 0.07651 0.0
C191 C 0.72486 0.07282 0.04493 0.0
H192 H 0.71477 0.09484 0.05261 0.0
H193 H 0.70591 0.05802 0.03673 0.0
H194 H 0.74094 0.07742 0.02581 0.0
O195 O 0.68022 0.07155 0.14714 0.0
O196 O 0.7133 0.05168 0.1807 0.0
H197 H 0.80024 0.04029 0.14742 0.0
H198 H 0.82273 0.05004 0.11412 0.0
C199 C 0.80344 0.03594 0.12258 0.0
H200 H 0.80982 0.01163 0.11918 0.0
H201 H 0.77322 0.02621 0.21146 0.0
O202 O 0.66177 0.07366 0.07723 0.0
C203 C 0.69243 0.07092 0.1737 0.0
Co204 Co 0.45741 0.68288 0.10743 0.0
Co205 Co 0.48786 0.72969 0.15292 0.0
C206 C 0.52082 0.67284 0.12888 0.0
O207 O 0.49901 0.66404 0.11148 0.0
O208 O 0.51837 0.69702 0.14503 0.0
C209 C 0.4358 0.63697 0.06234 0.0
O210 O 0.46189 0.62234 0.06573 0.0
C211 C 0.53319 0.77759 0.15823 0.0
C212 C 0.52012 0.80195 0.2006 0.0
C213 C 0.54027 0.80314 0.17594 0.0
N214 N 0.50989 0.76255 0.17159 0.0
N215 N 0.50249 0.77688 0.1972 0.0
C216 C 0.54568 0.76916 0.12735 0.0
H217 H 0.53051 0.75256 0.1156 0.0
H218 H 0.54843 0.78985 0.11283 0.0
H219 H 0.56841 0.75817 0.13028 0.0
C220 C 0.44742 0.73962 0.07185 0.0
N221 N 0.45923 0.72453 0.0961 0.0
N222 N 0.46975 0.74447 0.11608 0.0
C223 C 0.46432 0.77298 0.10543 0.0
C224 C 0.45033 0.77082 0.07695 0.0
C225 C 0.43311 0.72435 0.04467 0.0
H226 H 0.40976 0.71652 0.05091 0.0
H227 H 0.44683 0.70402 0.03803 0.0
H228 H 0.43147 0.74022 0.02485 0.0
O229 O 0.43528 0.67949 0.14712 0.0
O230 O 0.45595 0.7123 0.1804 0.0
H231 H 0.452 0.81953 0.11668 0.0
H232 H 0.49207 0.81082 0.11932 0.0
C233 C 0.46877 0.80171 0.12361 0.0
H234 H 0.46605 0.79705 0.14844 0.0
H235 H 0.4845 0.7704 0.21155 0.0
O236 O 0.43099 0.6614 0.07737 0.0
C237 C 0.43634 0.69175 0.17362 0.0
Co238 Co 0.82721 0.45579 0.10389 0.0
Co239 Co 0.77869 0.48555 0.14797 0.0
C240 C 0.83483 0.51962 0.12378 0.0
O241 O 0.84419 0.49751 0.10722 0.0
O242 O 0.81055 0.51739 0.13985 0.0
C243 C 0.86258 0.43758 0.04972 0.0
O244 O 0.85645 0.46473 0.03826 0.0
C245 C 0.73017 0.53069 0.15345 0.0
C246 C 0.70487 0.51597 0.19469 0.0
C247 C 0.70409 0.537 0.17075 0.0
N248 N 0.74503 0.50691 0.16627 0.0
N249 N 0.73014 0.49857 0.19127 0.0
C250 C 0.73929 0.5443 0.12324 0.0
H251 H 0.75567 0.52914 0.11109 0.0
H252 H 0.7189 0.54819 0.10855 0.0
H253 H 0.75074 0.56659 0.12731 0.0
C254 C 0.77063 0.44202 0.06811 0.0
N255 N 0.7853 0.45507 0.09202 0.0
N256 N 0.76485 0.46617 0.11124 0.0
C257 C 0.73653 0.45992 0.10046 0.0
C258 C 0.7393 0.44479 0.07263 0.0
C259 C 0.78617 0.42478 0.04285 0.0
H260 H 0.80233 0.40789 0.05281 0.0
H261 H 0.79938 0.44104 0.02852 0.0
H262 H 0.7695 0.41253 0.02809 0.0
O263 O 0.83205 0.43631 0.14432 0.0
O264 O 0.79648 0.45397 0.17634 0.0
H265 H 0.71001 0.46431 0.14172 0.0
H266 H 0.68774 0.45401 0.10853 0.0
C267 C 0.70732 0.46782 0.1167 0.0
H268 H 0.70161 0.49211 0.11224 0.0
H269 H 0.73641 0.48012 0.20514 0.0
O270 O 0.85244 0.43044 0.07606 0.0
C271 C 0.81923 0.4365 0.17053 0.0
Co272 Co 0.46167 0.8252 0.60178 0.0
Co273 Co 0.4861 0.77516 0.64754 0.0
C274 C 0.52334 0.83115 0.62738 0.0
O275 O 0.50395 0.84059 0.60765 0.0
O276 O 0.51805 0.80748 0.64361 0.0
C277 C 0.44586 0.86187 0.54701 0.0
O278 O 0.47296 0.85527 0.53569 0.0
C279 C 0.53103 0.72667 0.65679 0.0
C280 C 0.50914 0.69707 0.69142 0.0
C281 C 0.53384 0.69853 0.67145 0.0
N282 N 0.50525 0.74044 0.66663 0.0
N283 N 0.49267 0.72298 0.68793 0.0
C284 C 0.55195 0.74025 0.63319 0.0
H285 H 0.5413 0.73819 0.61016 0.0
H286 H 0.57466 0.72885 0.6332 0.0
H287 H 0.55543 0.76487 0.63794 0.0
C288 C 0.44864 0.76967 0.56424 0.0
N289 N 0.46058 0.78362 0.58916 0.0
N290 N 0.47022 0.76264 0.60862 0.0
C291 C 0.46446 0.73468 0.59673 0.0
C292 C 0.45081 0.73825 0.56821 0.0
C293 C 0.4326 0.78595 0.53864 0.0
H294 H 0.41574 0.80235 0.54823 0.0
H295 H 0.44965 0.79893 0.52504 0.0
H296 H 0.42047 0.7698 0.52323 0.0
O297 O 0.43962 0.8297 0.64108 0.0
O298 O 0.4524 0.7924 0.67335 0.0
H299 H 0.46304 0.70584 0.63648 0.0
H300 H 0.46099 0.68512 0.60075 0.0
C301 C 0.4714 0.70501 0.61251 0.0
H302 H 0.49646 0.70131 0.6126 0.0
H303 H 0.47194 0.72789 0.69878 0.0
O304 O 0.43825 0.85158 0.57317 0.0
C305 C 0.43668 0.81619 0.6668 0.0
Co306 Co 0.6823 0.45293 0.61042 0.0
Co307 Co 0.72878 0.48636 0.65397 0.0
C308 C 0.67127 0.51713 0.62964 0.0
O309 O 0.66235 0.49372 0.61465 0.0
O310 O 0.69623 0.51684 0.64477 0.0
C311 C 0.63886 0.4338 0.56259 0.0
O312 O 0.62893 0.46219 0.56194 0.0
C313 C 0.77631 0.53222 0.65939 0.0
C314 C 0.80114 0.51857 0.70135 0.0
C315 C 0.80207 0.53904 0.67696 0.0
N316 N 0.76149 0.50865 0.67253 0.0
N317 N 0.77606 0.50096 0.69794 0.0
C318 C 0.76753 0.54509 0.62875 0.0
H319 H 0.75127 0.52971 0.61677 0.0
H320 H 0.78809 0.54859 0.61421 0.0
H321 H 0.75605 0.56751 0.63212 0.0
C322 C 0.73864 0.44379 0.57395 0.0
N323 N 0.72372 0.4557 0.59824 0.0
N324 N 0.74376 0.46713 0.61765 0.0
C325 C 0.77224 0.46188 0.60673 0.0
C326 C 0.76987 0.44733 0.57854 0.0
C327 C 0.72331 0.42677 0.54842 0.0
H328 H 0.71312 0.40542 0.55768 0.0
H329 H 0.70447 0.44093 0.53886 0.0
H330 H 0.7396 0.42069 0.52988 0.0
O331 O 0.68006 0.43123 0.65017 0.0
O332 O 0.71145 0.45515 0.68259 0.0
H333 H 0.79813 0.46701 0.64837 0.0
H334 H 0.82067 0.45527 0.61582 0.0
C335 C 0.80125 0.46976 0.62331 0.0
H336 H 0.80746 0.4938 0.61824 0.0
H337 H 0.76979 0.48273 0.71207 0.0
O338 O 0.66022 0.42646 0.58098 0.0
C339 C 0.69205 0.43414 0.67664 0.0
Co340 Co 0.04804 0.68202 0.60669 0.0
Co341 Co 0.01837 0.72996 0.65196 0.0
C342 C 0.9855 0.67224 0.63045 0.0
O343 O 0.00669 0.66329 0.61239 0.0
O344 O 0.98832 0.69666 0.64612 0.0
C345 C 0.06901 0.63357 0.5641 0.0
O346 O 0.04413 0.61803 0.57069 0.0
C347 C 0.9708 0.77582 0.66172 0.0
C348 C 0.99217 0.80734 0.69496 0.0
C349 C 0.96705 0.80423 0.67567 0.0
N350 N 0.99747 0.76357 0.67121 0.0
N351 N 0.00973 0.78213 0.69175 0.0
C352 C 0.94993 0.76058 0.63912 0.0
H353 H 0.96012 0.76196 0.61583 0.0
H354 H 0.92682 0.77114 0.63908 0.0
H355 H 0.94735 0.7361 0.64506 0.0
C356 C 0.05667 0.73778 0.5694 0.0
N357 N 0.04554 0.7234 0.59438 0.0
N358 N 0.03443 0.7438 0.6136 0.0
C359 C 0.03846 0.77197 0.60146 0.0
C360 C 0.0526 0.76905 0.57308 0.0
C361 C 0.07377 0.72195 0.54421 0.0
H362 H 0.09507 0.71185 0.55375 0.0
H363 H 0.05961 0.70301 0.53494 0.0
H364 H 0.08 0.73781 0.52537 0.0
O365 O 0.07125 0.67935 0.64563 0.0
O366 O 0.05165 0.7131 0.67857 0.0
H367 H 0.03801 0.80163 0.64057 0.0
H368 H 0.03762 0.82168 0.60434 0.0
C369 C 0.0292 0.80124 0.61674 0.0
H370 H 0.00391 0.80267 0.61724 0.0
H371 H 0.031 0.77856 0.70207 0.0
O372 O 0.07336 0.65954 0.57642 0.0
C373 C 0.07101 0.69223 0.67184 0.0
Co374 Co 0.82137 0.04712 0.6035 0.0
Co375 Co 0.7753 0.02 0.65132 0.0
C376 C 0.83102 0.98494 0.6267 0.0
O377 O 0.83969 0.00599 0.60844 0.0
O378 O 0.80737 0.98823 0.64352 0.0
C379 C 0.86744 0.06654 0.5582 0.0
O380 O 0.88118 0.04002 0.56186 0.0
C381 C 0.72853 0.97423 0.6598 0.0
C382 C 0.7036 0.98938 0.70112 0.0
C383 C 0.70322 0.96751 0.67796 0.0
N384 N 0.74276 0.99888 0.6715 0.0
N385 N 0.7281 0.00757 0.69652 0.0
C386 C 0.73726 0.96007 0.62972 0.0
H387 H 0.75268 0.97536 0.6166 0.0
H388 H 0.71657 0.95507 0.61579 0.0
H389 H 0.74964 0.93831 0.63406 0.0
C390 C 0.7641 0.05655 0.56858 0.0
N391 N 0.77942 0.04584 0.59319 0.0
N392 N 0.75971 0.03684 0.6141 0.0
C393 C 0.73106 0.04237 0.60376 0.0
C394 C 0.73293 0.05471 0.57446 0.0
C395 C 0.7792 0.07097 0.54136 0.0
H396 H 0.78953 0.09307 0.54842 0.0
H397 H 0.79793 0.05591 0.53305 0.0
H398 H 0.76271 0.07531 0.52249 0.0
O399 O 0.82693 0.06942 0.64234 0.0
O400 O 0.79372 0.05316 0.67729 0.0
H401 H 0.70641 0.0415 0.64638 0.0
H402 H 0.683 0.05054 0.61341 0.0
C403 C 0.70245 0.03653 0.62177 0.0
H404 H 0.6959 0.01217 0.61926 0.0
H405 H 0.73397 0.02669 0.70961 0.0
O406 O 0.84302 0.07228 0.5729 0.0
C407 C 0.81561 0.0708 0.66921 0.0
Co408 Co 0.95883 0.17873 0.89132 0.0
Co409 Co 0.98825 0.22704 0.84655 0.0
C410 C 0.02145 0.16928 0.86942 0.0
O411 O 0.99991 0.16039 0.88699 0.0
O412 O 0.01902 0.19361 0.85339 0.0
C413 C 0.93876 0.13354 0.93745 0.0
O414 O 0.96656 0.12203 0.9371 0.0
C415 C 0.03306 0.27603 0.84255 0.0
C416 C 0.01822 0.30242 0.80202 0.0
C417 C 0.03871 0.30294 0.82641 0.0
N418 N 0.00978 0.26107 0.82896 0.0
N419 N 1.00134 0.2767 0.80441 0.0
C420 C 0.04911 0.2645 0.87067 0.0
H421 H 0.04874 0.2392 0.87138 0.0
H422 H 0.03706 0.27292 0.89142 0.0
H423 H 0.07323 0.27246 0.87125 0.0
C424 C 0.9485 0.23458 0.92813 0.0
N425 N 0.96024 0.22018 0.90345 0.0
N426 N 0.97065 0.24066 0.88399 0.0
C427 C 0.96511 0.26887 0.89537 0.0
C428 C 0.95131 0.26592 0.92385 0.0
C429 C 0.93434 0.21855 0.95493 0.0
H430 H 0.94838 0.19832 0.96124 0.0
H431 H 0.93234 0.23398 0.97505 0.0
H432 H 0.91117 0.21041 0.9484 0.0
O433 O 0.9385 0.17479 0.85114 0.0
O434 O 0.95541 0.21056 0.81892 0.0
H435 H 0.95193 0.31552 0.88541 0.0
H436 H 0.992 0.3074 0.88162 0.0
C437 C 0.96873 0.29806 0.87771 0.0
H438 H 0.96534 0.29392 0.85288 0.0
H439 H 0.98315 0.27057 0.79014 0.0
O440 O 0.93234 0.15621 0.92036 0.0
C441 C 0.93801 0.18787 0.82504 0.0
Co442 Co 0.32667 0.95528 0.89199 0.0
Co443 Co 0.27797 0.9825 0.84627 0.0
C444 C 0.3347 0.01744 0.86816 0.0
O445 O 0.34383 0.99671 0.88656 0.0
O446 O 0.31066 0.01388 0.85198 0.0
C447 C 0.36242 0.9397 0.94678 0.0
O448 O 0.35653 0.96743 0.95685 0.0
C449 C 0.22979 0.02803 0.83909 0.0
C450 C 0.20174 0.00966 0.80122 0.0
C451 C 0.20239 0.03247 0.82339 0.0
N452 N 0.24388 0.00313 0.82759 0.0
N453 N 0.22734 0.99264 0.80448 0.0
C454 C 0.24229 0.04657 0.86517 0.0
H455 H 0.23599 0.03565 0.88726 0.0
H456 H 0.23327 0.07032 0.86463 0.0
H457 H 0.26751 0.0475 0.86407 0.0
C458 C 0.27032 0.94401 0.92886 0.0
N459 N 0.28493 0.9556 0.90417 0.0
N460 N 0.26445 0.9656 0.88435 0.0
C461 C 0.23617 0.96004 0.89557 0.0
C462 C 0.239 0.94655 0.92421 0.0
C463 C 0.28588 0.92814 0.95501 0.0
H464 H 0.30165 0.91039 0.94599 0.0
H465 H 0.29953 0.94504 0.96813 0.0
H466 H 0.26918 0.91716 0.9707 0.0
O467 O 0.33083 0.9337 0.8525 0.0
O468 O 0.29517 0.94933 0.81957 0.0
H469 H 0.20929 0.96042 0.85434 0.0
H470 H 0.18721 0.954 0.88863 0.0
C471 C 0.20688 0.96661 0.87885 0.0
H472 H 0.20154 0.9913 0.88074 0.0
H473 H 0.23269 0.97297 0.792 0.0
O474 O 0.35198 0.93123 0.92094 0.0
C475 C 0.318 0.93227 0.8263 0.0
Co476 Co 0.549 0.31994 0.89156 0.0
Co477 Co 0.51905 0.2729 0.84594 0.0
C478 C 0.48629 0.33041 0.86812 0.0
O479 O 0.5077 0.33898 0.88612 0.0
O480 O 0.48884 0.30614 0.85213 0.0
C481 C 0.57009 0.36697 0.93578 0.0
O482 O 0.54456 0.38225 0.93117 0.0
C483 C 0.47165 0.22769 0.83363 0.0
C484 C 0.49482 0.19578 0.80196 0.0
C485 C 0.46867 0.19918 0.81973 0.0
N486 N 0.49884 0.23969 0.82563 0.0
N487 N 0.51218 0.22095 0.80595 0.0
C488 C 0.44957 0.24324 0.85484 0.0
H489 H 0.44698 0.26753 0.84809 0.0
H490 H 0.45872 0.24261 0.87859 0.0
H491 H 0.42661 0.23244 0.85407 0.0
C492 C 0.55729 0.26386 0.92847 0.0
N493 N 0.54639 0.27848 0.90351 0.0
N494 N 0.53483 0.25836 0.88428 0.0
C495 C 0.53815 0.23011 0.89651 0.0
C496 C 0.55245 0.23268 0.92487 0.0
C497 C 0.5748 0.27933 0.9536 0.0
H498 H 0.59583 0.2897 0.94383 0.0
H499 H 0.56069 0.29804 0.96344 0.0
H500 H 0.58157 0.26323 0.97206 0.0
O501 O 0.57229 0.32307 0.85282 0.0
O502 O 0.55234 0.28987 0.81966 0.0
H503 H 0.53739 0.1996 0.8581 0.0
H504 H 0.53437 0.1805 0.89474 0.0
C505 C 0.52769 0.20112 0.88153 0.0
H506 H 0.50241 0.20129 0.87997 0.0
H507 H 0.53405 0.22432 0.79692 0.0
O508 O 0.57453 0.34183 0.92186 0.0
C509 C 0.57186 0.31046 0.82651 0.0
Co510 Co 0.18101 0.55152 0.88884 0.0
Co511 Co 0.22939 0.51844 0.84716 0.0
C512 C 0.17246 0.48649 0.87028 0.0
O513 O 0.16267 0.51002 0.88451 0.0
O514 O 0.19778 0.48696 0.85584 0.0
C515 C 0.14541 0.56882 0.9428 0.0
O516 O 0.15197 0.54153 0.95366 0.0
C517 C 0.27782 0.47312 0.84217 0.0
C518 C 0.30316 0.48761 0.80085 0.0
C519 C 0.30385 0.46666 0.82485 0.0
N520 N 0.26306 0.49691 0.82926 0.0
N521 N 0.27797 0.50512 0.80423 0.0
C522 C 0.2686 0.4596 0.87237 0.0
H523 H 0.25245 0.47496 0.88457 0.0
H524 H 0.28897 0.45542 0.88702 0.0
H525 H 0.25686 0.43746 0.8683 0.0
C526 C 0.23694 0.56395 0.92613 0.0
N527 N 0.22249 0.55073 0.90217 0.0
N528 N 0.24306 0.53861 0.8837 0.0
C529 C 0.27128 0.54437 0.89505 0.0
C530 C 0.26827 0.5602 0.92247 0.0
C531 C 0.22135 0.58242 0.95047 0.0
H532 H 0.20548 0.59907 0.93967 0.0
H533 H 0.20786 0.56692 0.96537 0.0
H534 H 0.23805 0.59506 0.96487 0.0
O535 O 0.17904 0.57267 0.84889 0.0
O536 O 0.21172 0.54894 0.81764 0.0
H537 H 0.29862 0.53854 0.85451 0.0
H538 H 0.3203 0.54925 0.88798 0.0
C539 C 0.30068 0.53555 0.87966 0.0
H540 H 0.30586 0.51129 0.88481 0.0
H541 H 0.27174 0.52352 0.79028 0.0
O542 O 0.15544 0.57666 0.91661 0.0
C543 C 0.19169 0.56962 0.82278 0.0
C544 C 0.32437 0.08664 0.34668 0.0
C545 C 0.3287 0.05963 0.32979 0.0
C546 C 0.34923 0.1054 0.35473 0.0
C547 C 0.37906 0.09764 0.34466 0.0
C548 C 0.38348 0.07095 0.32678 0.0
C549 C 0.35831 0.05223 0.3197 0.0
C550 C 0.34353 0.13362 0.37391 0.0
C551 C 0.41481 0.06223 0.31495 0.0
C552 C 0.43787 0.1612 0.33763 0.0
C553 C 0.45693 0.15575 0.36305 0.0
C554 C 0.41247 0.14256 0.33152 0.0
C555 C 0.40545 0.11813 0.35162 0.0
C556 C 0.42403 0.11296 0.3778 0.0
C557 C 0.44976 0.13164 0.38305 0.0
C558 C 0.39363 0.14855 0.30305 0.0
C559 C 0.41687 0.08751 0.4001 0.0
H560 H 0.30156 0.09348 0.3534 0.0
H561 H 0.36194 0.03153 0.30648 0.0
H562 H 0.35858 0.1334 0.39444 0.0
H563 H 0.34926 0.15442 0.36051 0.0
H564 H 0.31934 0.13537 0.3816 0.0
H565 H 0.41437 0.04085 0.30117 0.0
H566 H 0.42409 0.08096 0.30049 0.0
H567 H 0.43085 0.05903 0.33444 0.0
H568 H 0.44329 0.17961 0.32187 0.0
H569 H 0.46427 0.12733 0.40278 0.0
H570 H 0.36934 0.15254 0.30931 0.0
H571 H 0.39427 0.12819 0.28785 0.0
H572 H 0.40198 0.16867 0.2899 0.0
H573 H 0.393 0.08982 0.40853 0.0
H574 H 0.43263 0.08743 0.42013 0.0
H575 H 0.4186 0.06507 0.38833 0.0
C576 C 0.37382 0.4531 0.3809 0.0
C577 C 0.35014 0.46038 0.36038 0.0
C578 C 0.39262 0.42737 0.37601 0.0
C579 C 0.38801 0.40889 0.34968 0.0
C580 C 0.36408 0.41609 0.329 0.0
C581 C 0.34531 0.4415 0.33474 0.0
C582 C 0.41753 0.42003 0.3989 0.0
C583 C 0.35872 0.39736 0.30035 0.0
C584 C 0.45442 0.36157 0.31904 0.0
C585 C 0.44664 0.33194 0.32872 0.0
C586 C 0.43569 0.38681 0.32589 0.0
C587 C 0.4086 0.38244 0.34316 0.0
C588 C 0.4005 0.35262 0.3529 0.0
C589 C 0.4193 0.3277 0.34508 0.0
C590 C 0.44479 0.41812 0.31441 0.0
C591 C 0.37184 0.34701 0.37145 0.0
H592 H 0.37762 0.46747 0.40081 0.0
H593 H 0.32722 0.44699 0.3186 0.0
H594 H 0.41489 0.39619 0.4073 0.0
H595 H 0.44026 0.42155 0.38765 0.0
H596 H 0.41725 0.43578 0.4189 0.0
H597 H 0.33899 0.4059 0.28669 0.0
H598 H 0.37948 0.39785 0.28569 0.0
H599 H 0.35442 0.37311 0.30648 0.0
H600 H 0.4754 0.36515 0.30624 0.0
H601 H 0.41218 0.3049 0.35148 0.0
H602 H 0.4475 0.43407 0.33403 0.0
H603 H 0.42647 0.42753 0.29947 0.0
H604 H 0.46655 0.41765 0.30122 0.0
H605 H 0.37159 0.36205 0.39196 0.0
H606 H 0.36991 0.32284 0.37911 0.0
H607 H 0.35134 0.35279 0.35757 0.0
C608 C 0.07397 0.33991 0.35484 0.0
C609 C 0.04686 0.35282 0.3663 0.0
C610 C 0.09945 0.35822 0.34802 0.0
C611 C 0.09749 0.39032 0.35195 0.0
C612 C 0.07029 0.40347 0.3638 0.0
C613 C 0.04541 0.3845 0.37121 0.0
C614 C 0.12835 0.34324 0.33629 0.0
C615 C 0.06711 0.43767 0.36775 0.0
C616 C 0.17002 0.43781 0.3576 0.0
C617 C 0.17368 0.44812 0.32731 0.0
C618 C 0.14582 0.41837 0.36574 0.0
C619 C 0.12384 0.41014 0.34338 0.0
C620 C 0.12686 0.42112 0.31294 0.0
C621 C 0.15185 0.43985 0.30524 0.0
C622 C 0.14361 0.40692 0.39837 0.0
C623 C 0.10345 0.41345 0.28863 0.0
H624 H 0.07525 0.31543 0.35108 0.0
H625 H 0.02439 0.39462 0.37973 0.0
H626 H 0.13326 0.35127 0.31266 0.0
H627 H 0.14811 0.34991 0.35085 0.0
H628 H 0.12667 0.31787 0.33602 0.0
H629 H 0.04449 0.44425 0.37738 0.0
H630 H 0.08531 0.44642 0.38317 0.0
H631 H 0.07003 0.44919 0.34525 0.0
H632 H 0.18554 0.44553 0.37533 0.0
H633 H 0.15418 0.44828 0.28196 0.0
H634 H 0.14185 0.38159 0.39861 0.0
H635 H 0.12261 0.41607 0.40935 0.0
H636 H 0.1637 0.41377 0.41244 0.0
H637 H 0.10224 0.3883 0.2854 0.0
H638 H 0.10882 0.42425 0.26619 0.0
H639 H 0.08042 0.42123 0.29609 0.0
C640 C 0.12228 0.04557 0.37164 0.0
C641 C 0.15422 0.04787 0.36942 0.0
C642 C 0.10332 0.07065 0.36469 0.0
C643 C 0.11668 0.09897 0.35623 0.0
C644 C 0.14899 0.10171 0.35517 0.0
C645 C 0.16736 0.07599 0.36129 0.0
C646 C 0.06899 0.06653 0.36537 0.0
C647 C 0.16414 0.13174 0.34726 0.0
C648 C 0.0695 0.15631 0.3102 0.0
C649 C 0.0586 0.1759 0.33324 0.0
C650 C 0.08831 0.13112 0.31733 0.0
C651 C 0.09684 0.12562 0.34823 0.0
C652 C 0.08591 0.14527 0.37157 0.0
C653 C 0.06634 0.16961 0.36389 0.0
C654 C 0.09873 0.11016 0.29185 0.0
C655 C 0.09468 0.14048 0.40477 0.0
H656 H 0.11203 0.02375 0.3775 0.0
H657 H 0.19207 0.07785 0.35963 0.0
H658 H 0.05846 0.08313 0.38146 0.0
H659 H 0.05932 0.07121 0.34228 0.0
H660 H 0.06224 0.04305 0.37242 0.0
H661 H 0.18949 0.13051 0.34913 0.0
H662 H 0.15807 0.13849 0.32348 0.0
H663 H 0.15568 0.15005 0.36274 0.0
H664 H 0.06317 0.16059 0.28652 0.0
H665 H 0.05659 0.18312 0.3822 0.0
H666 H 0.09124 0.08638 0.29668 0.0
H667 H 0.1241 0.10994 0.29061 0.0
H668 H 0.08954 0.11717 0.26913 0.0
H669 H 0.08515 0.1185 0.41315 0.0
H670 H 0.0862 0.15917 0.41981 0.0
H671 H 0.11996 0.13907 0.40701 0.0
C672 C 0.86019 0.95444 0.18025 0.0
C673 C 0.83015 0.94633 0.17227 0.0
C674 C 0.88509 0.93551 0.17277 0.0
C675 C 0.87989 0.90785 0.15669 0.0
C676 C 0.8496 0.89926 0.14899 0.0
C677 C 0.82507 0.91835 0.15733 0.0
C678 C 0.91699 0.94517 0.182 0.0
C679 C 0.8431 0.86995 0.13182 0.0
C680 C 0.94829 0.87365 0.11466 0.0
C681 C 0.95775 0.85079 0.13521 0.0
C682 C 0.92249 0.8919 0.12097 0.0
C683 C 0.90614 0.88755 0.1487 0.0
C684 C 0.9154 0.86432 0.16935 0.0
C685 C 0.94088 0.8461 0.16224 0.0
C686 C 0.91293 0.91609 0.09814 0.0
C687 C 0.89891 0.85925 0.19939 0.0
H688 H 0.86436 0.97593 0.19195 0.0
H689 H 0.80194 0.91115 0.15226 0.0
H690 H 0.92771 0.9272 0.19645 0.0
H691 H 0.9315 0.94788 0.16129 0.0
H692 H 0.91709 0.96707 0.19494 0.0
H693 H 0.81839 0.8672 0.12644 0.0
H694 H 0.85624 0.86952 0.11004 0.0
H695 H 0.85071 0.85001 0.14562 0.0
H696 H 0.96109 0.87735 0.09368 0.0
H697 H 0.94805 0.82862 0.17838 0.0
H698 H 0.91498 0.9391 0.10869 0.0
H699 H 0.88854 0.9129 0.09171 0.0
H700 H 0.92707 0.91555 0.07696 0.0
H701 H 0.90032 0.88023 0.21366 0.0
H702 H 0.90864 0.83981 0.21265 0.0
H703 H 0.87429 0.85468 0.19517 0.0
C704 C 0.5534 0.85879 0.17834 0.0
C705 C 0.56096 0.82915 0.16848 0.0
C706 C 0.5719 0.88399 0.17093 0.0
C707 C 0.59853 0.87958 0.15295 0.0
C708 C 0.60641 0.84974 0.14303 0.0
C709 C 0.58786 0.82486 0.15139 0.0
C710 C 0.56308 0.91533 0.1826 0.0
C711 C 0.63458 0.84407 0.12375 0.0
C712 C 0.63233 0.95032 0.11462 0.0
C713 C 0.65636 0.95759 0.13472 0.0
C714 C 0.61376 0.92452 0.11979 0.0
C715 C 0.61898 0.90596 0.14597 0.0
C716 C 0.64335 0.91305 0.16613 0.0
C717 C 0.66186 0.93853 0.16011 0.0
C718 C 0.58836 0.91727 0.09745 0.0
C719 C 0.6494 0.89421 0.19458 0.0
H720 H 0.53276 0.86239 0.19168 0.0
H721 H 0.59481 0.80204 0.14482 0.0
H722 H 0.58174 0.92469 0.19711 0.0
H723 H 0.55992 0.93129 0.16304 0.0
H724 H 0.54163 0.91492 0.19629 0.0
H725 H 0.6363 0.8199 0.11602 0.0
H726 H 0.63433 0.85915 0.10325 0.0
H727 H 0.65543 0.84976 0.13712 0.0
H728 H 0.62799 0.96483 0.09491 0.0
H729 H 0.68023 0.94399 0.17593 0.0
H730 H 0.56588 0.91899 0.10916 0.0
H731 H 0.59072 0.89339 0.08907 0.0
H732 H 0.58829 0.93297 0.07739 0.0
H733 H 0.62903 0.8948 0.20979 0.0
H734 H 0.66951 0.90259 0.20774 0.0
H735 H 0.65343 0.86995 0.1883 0.0
C736 C 0.55624 0.63061 0.11161 0.0
C737 C 0.54885 0.65386 0.13254 0.0
C738 C 0.58221 0.61196 0.1161 0.0
C739 C 0.60079 0.61626 0.14244 0.0
C740 C 0.59351 0.63981 0.16349 0.0
C741 C 0.5679 0.65844 0.15813 0.0
C742 C 0.58963 0.58748 0.09282 0.0
C743 C 0.6123 0.64483 0.19217 0.0
C744 C 0.64825 0.54975 0.17279 0.0
C745 C 0.67796 0.55775 0.16347 0.0
C746 C 0.62295 0.56837 0.16579 0.0
C747 C 0.6273 0.59561 0.14875 0.0
C748 C 0.65718 0.60389 0.13929 0.0
C749 C 0.68218 0.58517 0.14723 0.0
C750 C 0.59158 0.55904 0.17695 0.0
C751 C 0.6628 0.63271 0.12102 0.0
H752 H 0.54176 0.62698 0.09174 0.0
H753 H 0.56233 0.67618 0.1746 0.0
H754 H 0.61351 0.59025 0.08458 0.0
H755 H 0.58803 0.56457 0.10367 0.0
H756 H 0.57393 0.58814 0.07276 0.0
H757 H 0.60377 0.66437 0.20607 0.0
H758 H 0.61184 0.6239 0.2066 0.0
H759 H 0.63656 0.64921 0.18607 0.0
H760 H 0.64467 0.5287 0.18546 0.0
H761 H 0.70502 0.5924 0.14105 0.0
H762 H 0.5757 0.55666 0.15723 0.0
H763 H 0.58209 0.57707 0.19216 0.0
H764 H 0.59202 0.53707 0.18978 0.0
H765 H 0.64772 0.63321 0.10052 0.0
H766 H 0.68699 0.63469 0.11337 0.0
H767 H 0.65707 0.65305 0.13512 0.0
C768 C 0.94301 0.668 0.13294 0.0
C769 C 0.95011 0.67455 0.16368 0.0
C770 C 0.92323 0.64393 0.12514 0.0
C771 C 0.9114 0.62484 0.1485 0.0
C772 C 0.91925 0.63062 0.17952 0.0
C773 C 0.93832 0.65553 0.18673 0.0
C774 C 0.91522 0.63878 0.09181 0.0
C775 C 0.90788 0.61023 0.20504 0.0
C776 C 0.84091 0.57557 0.13449 0.0
C777 C 0.85413 0.54724 0.12719 0.0
C778 C 0.85927 0.60127 0.1406 0.0
C779 C 0.89158 0.59827 0.1404 0.0
C780 C 0.90501 0.56973 0.13281 0.0
C781 C 0.88611 0.54469 0.12584 0.0
C782 C 0.84409 0.63155 0.14756 0.0
C783 C 0.93933 0.56534 0.1331 0.0
H784 H 0.95341 0.68109 0.11469 0.0
H785 H 0.94412 0.66005 0.21049 0.0
H786 H 0.92476 0.61659 0.08397 0.0
H787 H 0.88999 0.63763 0.08895 0.0
H788 H 0.92426 0.65717 0.07672 0.0
H789 H 0.91648 0.6175 0.2279 0.0
H790 H 0.88248 0.61033 0.20554 0.0
H791 H 0.91526 0.58628 0.20084 0.0
H792 H 0.81618 0.57761 0.13549 0.0
H793 H 0.89642 0.52271 0.12064 0.0
H794 H 0.8531 0.64953 0.13202 0.0
H795 H 0.84954 0.63864 0.17138 0.0
H796 H 0.8188 0.6305 0.145 0.0
H797 H 0.95037 0.58155 0.11698 0.0
H798 H 0.94613 0.54168 0.12667 0.0
H799 H 0.94843 0.57036 0.15634 0.0
C800 C 0.56834 0.844 0.66047 0.0
C801 C 0.5516 0.84904 0.6334 0.0
C802 C 0.59367 0.86224 0.66804 0.0
C803 C 0.60292 0.8858 0.6478 0.0
C804 C 0.58678 0.8904 0.61996 0.0
C805 C 0.56114 0.87215 0.6132 0.0
C806 C 0.60993 0.85689 0.69818 0.0
C807 C 0.59635 0.91491 0.59751 0.0
C808 C 0.64783 0.95316 0.67978 0.0
C809 C 0.67798 0.94556 0.67166 0.0
C810 C 0.62326 0.9338 0.67241 0.0
C811 C 0.62889 0.90623 0.65628 0.0
C812 C 0.65932 0.89807 0.64861 0.0
C813 C 0.68352 0.91757 0.65687 0.0
C814 C 0.59121 0.943 0.68162 0.0
C815 C 0.6663 0.86891 0.63138 0.0
H816 H 0.56111 0.82632 0.67634 0.0
H817 H 0.54845 0.87611 0.59218 0.0
H818 H 0.63468 0.85274 0.69419 0.0
H819 H 0.60801 0.87761 0.71277 0.0
H820 H 0.60038 0.8371 0.71099 0.0
H821 H 0.58249 0.91445 0.57613 0.0
H822 H 0.59388 0.93779 0.60827 0.0
H823 H 0.62085 0.91203 0.5914 0.0
H824 H 0.64332 0.97463 0.69141 0.0
H825 H 0.70676 0.91074 0.65174 0.0
H826 H 0.5806 0.92467 0.69566 0.0
H827 H 0.57679 0.94599 0.66087 0.0
H828 H 0.5908 0.96466 0.69497 0.0
H829 H 0.65859 0.84883 0.64488 0.0
H830 H 0.69111 0.86629 0.6264 0.0
H831 H 0.65352 0.86859 0.60936 0.0
C832 C 0.61951 0.54193 0.62847 0.0
C833 C 0.65135 0.54454 0.63182 0.0
C834 C 0.60012 0.56701 0.63418 0.0
C835 C 0.61295 0.59553 0.64279 0.0
C836 C 0.64515 0.59858 0.64498 0.0
C837 C 0.66393 0.57299 0.63979 0.0
C838 C 0.56588 0.5627 0.63203 0.0
C839 C 0.65977 0.62876 0.65333 0.0
C840 C 0.56367 0.66679 0.63377 0.0
C841 C 0.55481 0.67272 0.66416 0.0
C842 C 0.58294 0.64208 0.62656 0.0
C843 C 0.5927 0.62204 0.65013 0.0
C844 C 0.58308 0.62732 0.68073 0.0
C845 C 0.56432 0.65265 0.68738 0.0
C846 C 0.59277 0.63738 0.59367 0.0
C847 C 0.59249 0.60612 0.70643 0.0
H848 H 0.60963 0.51995 0.6226 0.0
H849 H 0.68854 0.5752 0.64224 0.0
H850 H 0.55531 0.56687 0.6548 0.0
H851 H 0.55586 0.57956 0.61585 0.0
H852 H 0.55958 0.53932 0.62429 0.0
H853 H 0.68518 0.62775 0.65242 0.0
H854 H 0.65174 0.64698 0.63749 0.0
H855 H 0.65279 0.63551 0.67685 0.0
H856 H 0.55507 0.68103 0.61536 0.0
H857 H 0.55706 0.65676 0.7108 0.0
H858 H 0.58408 0.61511 0.58512 0.0
H859 H 0.61813 0.63662 0.59222 0.0
H860 H 0.58427 0.6558 0.57827 0.0
H861 H 0.58514 0.5824 0.70116 0.0
H862 H 0.58249 0.61299 0.72884 0.0
H863 H 0.6178 0.60584 0.70863 0.0
C864 C 0.85791 0.55142 0.67884 0.0
C865 C 0.82824 0.55947 0.66936 0.0
C866 C 0.88329 0.56961 0.67129 0.0
C867 C 0.87903 0.59641 0.65354 0.0
C868 C 0.84918 0.60478 0.64399 0.0
C869 C 0.8241 0.58651 0.65247 0.0
C870 C 0.91466 0.56026 0.68256 0.0
C871 C 0.84369 0.63316 0.62497 0.0
C872 C 0.93891 0.65883 0.66075 0.0
C873 C 0.95761 0.6534 0.63509 0.0
C874 C 0.91326 0.64058 0.66685 0.0
C875 C 0.90563 0.61655 0.64651 0.0
C876 C 0.9239 0.61133 0.62014 0.0
C877 C 0.94989 0.62964 0.61488 0.0
C878 C 0.89475 0.64659 0.69551 0.0
C879 C 0.91611 0.58627 0.59764 0.0
H880 H 0.86139 0.53065 0.692 0.0
H881 H 0.80129 0.59376 0.64615 0.0
H882 H 0.93038 0.55711 0.66283 0.0
H883 H 0.92441 0.57862 0.69717 0.0
H884 H 0.91411 0.53868 0.69605 0.0
H885 H 0.81944 0.63527 0.61749 0.0
H886 H 0.84981 0.6538 0.63843 0.0
H887 H 0.85854 0.63286 0.60432 0.0
H888 H 0.94472 0.677 0.67665 0.0
H889 H 0.9641 0.62539 0.59495 0.0
H890 H 0.89513 0.62605 0.7105 0.0
H891 H 0.87049 0.6511 0.68946 0.0
H892 H 0.90358 0.6664 0.70882 0.0
H893 H 0.9175 0.56367 0.60917 0.0
H894 H 0.93171 0.58611 0.57751 0.0
H895 H 0.89222 0.58911 0.58939 0.0
C896 C 0.83672 0.9298 0.64108 0.0
C897 C 0.84999 0.95709 0.63059 0.0
C898 C 0.85481 0.90396 0.6475 0.0
C899 C 0.88703 0.90573 0.64417 0.0
C900 C 0.9005 0.93314 0.63326 0.0
C901 C 0.88177 0.95836 0.62621 0.0
C902 C 0.83949 0.87489 0.65817 0.0
C903 C 0.9348 0.93618 0.62999 0.0
C904 C 0.93626 0.85032 0.69033 0.0
C905 C 0.94516 0.82915 0.66786 0.0
C906 C 0.9173 0.87531 0.68298 0.0
C907 C 0.90669 0.87905 0.65247 0.0
C908 C 0.9155 0.8577 0.62972 0.0
C909 C 0.93517 0.83349 0.63753 0.0
C910 C 0.90906 0.89802 0.70775 0.0
C911 C 0.90452 0.86066 0.59698 0.0
H912 H 0.81214 0.92869 0.64438 0.0
H913 H 0.89217 0.97951 0.61845 0.0
H914 H 0.84639 0.85548 0.64326 0.0
H915 H 0.84702 0.86933 0.68184 0.0
H916 H 0.81411 0.87674 0.65795 0.0
H917 H 0.94165 0.95899 0.62107 0.0
H918 H 0.94593 0.93257 0.65261 0.0
H919 H 0.94374 0.91835 0.61425 0.0
H920 H 0.9444 0.84749 0.71367 0.0
H921 H 0.94334 0.81853 0.61954 0.0
H922 H 0.88382 0.89921 0.71044 0.0
H923 H 0.917 0.92121 0.7011 0.0
H924 H 0.91937 0.892 0.73027 0.0
H925 H 0.87918 0.86263 0.5964 0.0
H926 H 0.91148 0.84083 0.58262 0.0
H927 H 0.91395 0.8818 0.58656 0.0
C928 C 0.17024 0.0618 0.86123 0.0
C929 C 0.17671 0.05363 0.83076 0.0
C930 C 0.14589 0.0815 0.86841 0.0
C931 C 0.12646 0.09215 0.84471 0.0
C932 C 0.13215 0.08319 0.81399 0.0
C933 C 0.15733 0.06421 0.80737 0.0
C934 C 0.14084 0.09072 0.90143 0.0
C935 C 0.11142 0.09333 0.78818 0.0
C936 C 0.04644 0.11788 0.86763 0.0
C937 C 0.04887 0.1498 0.86538 0.0
C938 C 0.07143 0.09884 0.8607 0.0
C939 C 0.09979 0.11208 0.85222 0.0
C940 C 0.10264 0.14435 0.85092 0.0
C941 C 0.077 0.16281 0.85705 0.0
C942 C 0.06723 0.06454 0.86163 0.0
C943 C 0.13273 0.15935 0.84294 0.0
H944 H 0.18365 0.0523 0.87978 0.0
H945 H 0.1618 0.05753 0.78384 0.0
H946 H 0.13954 0.11602 0.90331 0.0
H947 H 0.11872 0.08142 0.90973 0.0
H948 H 0.15937 0.08235 0.91678 0.0
H949 H 0.11864 0.0839 0.76564 0.0
H950 H 0.08757 0.0859 0.79286 0.0
H951 H 0.1112 0.11867 0.78664 0.0
H952 H 0.02461 0.10772 0.87366 0.0
H953 H 0.07897 0.18749 0.85538 0.0
H954 H 0.08353 0.05415 0.87814 0.0
H955 H 0.0723 0.05465 0.83874 0.0
H956 H 0.0436 0.0579 0.86832 0.0
H957 H 0.15094 0.15121 0.85875 0.0
H958 H 0.13149 0.18472 0.84428 0.0
H959 H 0.13969 0.15282 0.81936 0.0
C960 C 0.38501 0.04473 0.86895 0.0
C961 C 0.35334 0.04535 0.86363 0.0
C962 C 0.40343 0.07008 0.86181 0.0
C963 C 0.38972 0.09694 0.84981 0.0
C964 C 0.35762 0.09804 0.84537 0.0
C965 C 0.33988 0.07209 0.85193 0.0
C966 C 0.43765 0.0678 0.86632 0.0
C967 C 0.34206 0.12656 0.83346 0.0
C968 C 0.43578 0.17022 0.85698 0.0
C969 C 0.44681 0.17421 0.827 0.0
C970 C 0.4164 0.14576 0.86446 0.0
C971 C 0.409 0.12385 0.84177 0.0
C972 C 0.4206 0.12728 0.81161 0.0
C973 C 0.43923 0.15252 0.80455 0.0
C974 C 0.40427 0.14312 0.89681 0.0
C975 C 0.41384 0.10396 0.78697 0.0
H976 H 0.39558 0.02401 0.87766 0.0
H977 H 0.31541 0.07275 0.84783 0.0
H978 H 0.44948 0.07138 0.84407 0.0
H979 H 0.44562 0.086 0.88214 0.0
H980 H 0.44473 0.04526 0.87576 0.0
H981 H 0.31674 0.12416 0.83264 0.0
H982 H 0.34787 0.14639 0.84826 0.0
H983 H 0.35042 0.13185 0.81002 0.0
H984 H 0.44295 0.18561 0.87503 0.0
H985 H 0.44822 0.15511 0.78151 0.0
H986 H 0.41385 0.1224 0.90797 0.0
H987 H 0.37899 0.14056 0.89646 0.0
H988 H 0.41018 0.16336 0.91104 0.0
H989 H 0.42218 0.08109 0.79431 0.0
H990 H 0.42474 0.10986 0.76472 0.0
H991 H 0.38875 0.10208 0.78342 0.0
C992 C 0.43972 0.34496 0.83817 0.0
C993 C 0.45848 0.34957 0.86395 0.0
C994 C 0.41418 0.36361 0.83255 0.0
C995 C 0.40673 0.38719 0.8535 0.0
C996 C 0.42507 0.39155 0.87999 0.0
C997 C 0.45094 0.37287 0.88476 0.0
C998 C 0.39561 0.35852 0.80373 0.0
C999 C 0.41748 0.41609 0.90314 0.0
C1000 C 0.3596 0.45374 0.82291 0.0
C1001 C 0.32985 0.44582 0.83215 0.0
C1002 C 0.38481 0.43504 0.82996 0.0
C1003 C 0.3803 0.40782 0.84697 0.0
C1004 C 0.35037 0.39959 0.85631 0.0
C1005 C 0.32547 0.4184 0.84833 0.0
C1006 C 0.41625 0.4443 0.81894 0.0
C1007 C 0.34461 0.37078 0.87455 0.0
H1008 H 0.44541 0.32716 0.8218 0.0
H1009 H 0.46521 0.37649 0.90479 0.0
H1010 H 0.3713 0.35418 0.80965 0.0
H1011 H 0.3962 0.37941 0.78926 0.0
H1012 H 0.40424 0.33894 0.78996 0.0
H1013 H 0.43306 0.41553 0.9233 0.0
H1014 H 0.41909 0.43897 0.89223 0.0
H1015 H 0.39355 0.41331 0.91126 0.0
H1016 H 0.36328 0.47479 0.81028 0.0
H1017 H 0.30258 0.41126 0.85444 0.0
H1018 H 0.42581 0.42621 0.80385 0.0
H1019 H 0.43202 0.44673 0.83875 0.0
H1020 H 0.41591 0.46623 0.80604 0.0
H1021 H 0.35051 0.35043 0.86054 0.0
H1022 H 0.32035 0.36877 0.88197 0.0
H1023 H 0.35949 0.37033 0.8952 0.0
C1024 C 0.1664 0.43007 0.86259 0.0
C1025 C 0.15305 0.45878 0.86803 0.0
C1026 C 0.14824 0.40406 0.85739 0.0
C1027 C 0.11593 0.40697 0.85677 0.0
C1028 C 0.10231 0.43581 0.86274 0.0
C1029 C 0.12103 0.46129 0.8687 0.0
C1030 C 0.16363 0.37357 0.85204 0.0
C1031 C 0.06799 0.44004 0.86167 0.0
C1032 C 0.07118 0.34762 0.81112 0.0
C1033 C 0.05923 0.32897 0.83441 0.0
C1034 C 0.08953 0.37313 0.81807 0.0
C1035 C 0.09643 0.38001 0.84908 0.0
C1036 C 0.08441 0.36134 0.8727 0.0
C1037 C 0.06547 0.33651 0.86512 0.0
C1038 C 0.10129 0.39289 0.79222 0.0
C1039 C 0.09138 0.36771 0.90604 0.0
H1040 H 0.19115 0.42799 0.8622 0.0
H1041 H 0.11059 0.48349 0.87254 0.0
H1042 H 0.15424 0.35616 0.86801 0.0
H1043 H 0.15886 0.36556 0.82837 0.0
H1044 H 0.18885 0.37477 0.85525 0.0
H1045 H 0.06097 0.46379 0.8675 0.0
H1046 H 0.05942 0.43454 0.83834 0.0
H1047 H 0.05668 0.42407 0.87786 0.0
H1048 H 0.06609 0.34231 0.78737 0.0
H1049 H 0.05501 0.3236 0.88346 0.0
H1050 H 0.12669 0.39301 0.7923 0.0
H1051 H 0.09359 0.41688 0.79553 0.0
H1052 H 0.09328 0.38487 0.7694 0.0
H1053 H 0.11652 0.36889 0.90962 0.0
H1054 H 0.08182 0.34992 0.92152 0.0
H1055 H 0.08172 0.39022 0.91274 0.0
C1056 C 0.57868 0.1705 0.272 0.0
C1057 C 0.59056 0.1812 0.29981 0.0
C1058 C 0.59726 0.15421 0.25136 0.0
C1059 C 0.62867 0.1496 0.25831 0.0
C1060 C 0.64111 0.16213 0.28556 0.0
C1061 C 0.62171 0.17718 0.30634 0.0
C1062 C 0.58289 0.14045 0.22304 0.0
C1063 C 0.67468 0.15881 0.29322 0.0
C1064 C 0.6674 0.07954 0.22409 0.0
C1065 C 0.68002 0.09163 0.19722 0.0
C1066 C 0.65084 0.09826 0.24436 0.0
C1067 C 0.64791 0.12998 0.23808 0.0
C1068 C 0.66218 0.14252 0.21175 0.0
C1069 C 0.67747 0.12301 0.19121 0.0
C1070 C 0.63519 0.0838 0.27164 0.0
C1071 C 0.66068 0.17635 0.2049 0.0
H1072 H 0.55444 0.17325 0.26728 0.0
H1073 H 0.63079 0.1855 0.32796 0.0
H1074 H 0.59525 0.14807 0.20218 0.0
H1075 H 0.58474 0.11512 0.22405 0.0
H1076 H 0.55834 0.14672 0.22063 0.0
H1077 H 0.68142 0.17315 0.31315 0.0
H1078 H 0.6799 0.13457 0.29872 0.0
H1079 H 0.68895 0.1653 0.27318 0.0
H1080 H 0.66901 0.05513 0.22834 0.0
H1081 H 0.68722 0.13222 0.17028 0.0
H1082 H 0.61007 0.08738 0.26994 0.0
H1083 H 0.64295 0.09484 0.29318 0.0
H1084 H 0.63976 0.05883 0.27328 0.0
H1085 H 0.63687 0.1829 0.1989 0.0
H1086 H 0.6759 0.18289 0.18557 0.0
H1087 H 0.66729 0.18975 0.2255 0.0
C1088 C 0.3275 0.62452 0.30582 0.0
C1089 C 0.32166 0.59382 0.29867 0.0
C1090 C 0.34329 0.64352 0.28524 0.0
C1091 C 0.35464 0.63106 0.25749 0.0
C1092 C 0.34797 0.60024 0.2498 0.0
C1093 C 0.33105 0.58211 0.27031 0.0
C1094 C 0.34883 0.67655 0.29373 0.0
C1095 C 0.36036 0.58582 0.22086 0.0
C1096 C 0.38363 0.67998 0.19152 0.0
C1097 C 0.4152 0.68016 0.19714 0.0
C1098 C 0.36339 0.66541 0.21184 0.0
C1099 C 0.37527 0.6495 0.23754 0.0
C1100 C 0.40722 0.65004 0.24347 0.0
C1101 C 0.42677 0.66587 0.22342 0.0
C1102 C 0.32943 0.66642 0.2054 0.0
C1103 C 0.42092 0.63265 0.2701 0.0
H1104 H 0.32023 0.6335 0.32785 0.0
H1105 H 0.32693 0.5582 0.26508 0.0
H1106 H 0.3734 0.67995 0.29922 0.0
H1107 H 0.34318 0.69176 0.27413 0.0
H1108 H 0.33505 0.68368 0.31393 0.0
H1109 H 0.35224 0.56194 0.21774 0.0
H1110 H 0.3535 0.59942 0.20051 0.0
H1111 H 0.38577 0.58568 0.22166 0.0
H1112 H 0.37483 0.69099 0.17102 0.0
H1113 H 0.4513 0.66565 0.22734 0.0
H1114 H 0.31673 0.67334 0.22634 0.0
H1115 H 0.32125 0.64331 0.19886 0.0
H1116 H 0.32368 0.68259 0.18657 0.0
H1117 H 0.41066 0.64051 0.29199 0.0
H1118 H 0.44617 0.63544 0.27154 0.0
H1119 H 0.41565 0.60791 0.26775 0.0
C1120 C 0.81488 0.40074 0.21555 0.0
C1121 C 0.83293 0.41707 0.19465 0.0
C1122 C 0.82855 0.38094 0.23713 0.0
C1123 C 0.86093 0.37837 0.23836 0.0
C1124 C 0.87911 0.3952 0.21746 0.0
C1125 C 0.86487 0.41394 0.19564 0.0
C1126 C 0.80843 0.36276 0.25856 0.0
C1127 C 0.91369 0.39406 0.21859 0.0
C1128 C 0.90144 0.35885 0.31257 0.0
C1129 C 0.91328 0.32953 0.30646 0.0
C1130 C 0.88337 0.3744 0.29109 0.0
C1131 C 0.87627 0.36016 0.26286 0.0
C1132 C 0.88681 0.32998 0.25703 0.0
C1133 C 0.90556 0.31512 0.27878 0.0
C1134 C 0.87338 0.40682 0.29798 0.0
C1135 C 0.87908 0.31381 0.22745 0.0
H1136 H 0.79017 0.40287 0.21451 0.0
H1137 H 0.87886 0.4267 0.17956 0.0
H1138 H 0.81439 0.33809 0.25716 0.0
H1139 H 0.81243 0.37009 0.28259 0.0
H1140 H 0.78371 0.36559 0.25321 0.0
H1141 H 0.92444 0.40852 0.20061 0.0
H1142 H 0.92184 0.40201 0.24136 0.0
H1143 H 0.92178 0.37018 0.2156 0.0
H1144 H 0.90728 0.37034 0.33382 0.0
H1145 H 0.91436 0.29242 0.27399 0.0
H1146 H 0.84831 0.40929 0.29479 0.0
H1147 H 0.88466 0.4228 0.28173 0.0
H1148 H 0.87926 0.41393 0.32174 0.0
H1149 H 0.85422 0.31582 0.22251 0.0
H1150 H 0.8854 0.28918 0.22814 0.0
H1151 H 0.89152 0.32474 0.20817 0.0
C1152 C 0.14429 0.90729 0.30806 0.0
C1153 C 0.17513 0.91563 0.30452 0.0
C1154 C 0.12948 0.88876 0.28649 0.0
C1155 C 0.14604 0.87756 0.26096 0.0
C1156 C 0.17748 0.88501 0.2577 0.0
C1157 C 0.19159 0.9044 0.27932 0.0
C1158 C 0.09571 0.88223 0.29042 0.0
C1159 C 0.19603 0.8729 0.23114 0.0
C1160 C 0.10506 0.81403 0.21731 0.0
C1161 C 0.09174 0.83055 0.19316 0.0
C1162 C 0.12427 0.82868 0.23875 0.0
C1163 C 0.12941 0.86066 0.23641 0.0
C1164 C 0.11615 0.87727 0.21191 0.0
C1165 C 0.09786 0.86198 0.19047 0.0
C1166 C 0.13861 0.81011 0.26418 0.0
C1167 C 0.12019 0.91151 0.20901 0.0
H1168 H 0.13132 0.91606 0.32737 0.0
H1169 H 0.21549 0.91054 0.27666 0.0
H1170 H 0.08274 0.89216 0.27089 0.0
H1171 H 0.09154 0.85721 0.29032 0.0
H1172 H 0.08641 0.89189 0.31208 0.0
H1173 H 0.22083 0.87802 0.23365 0.0
H1174 H 0.19303 0.84777 0.22909 0.0
H1175 H 0.18779 0.88328 0.20941 0.0
H1176 H 0.10063 0.78971 0.21933 0.0
H1177 H 0.08746 0.87499 0.172 0.0
H1178 H 0.12844 0.81677 0.28652 0.0
H1179 H 0.16354 0.81486 0.26554 0.0
H1180 H 0.1352 0.78514 0.26087 0.0
H1181 H 0.11009 0.92305 0.22931 0.0
H1182 H 0.10913 0.92086 0.18803 0.0
H1183 H 0.14486 0.91743 0.20844 0.0
C1184 C 0.3153 0.90097 0.77775 0.0
C1185 C 0.33189 0.91171 0.80309 0.0
C1186 C 0.32935 0.88209 0.75562 0.0
C1187 C 0.36084 0.87462 0.75856 0.0
C1188 C 0.37748 0.88513 0.78433 0.0
C1189 C 0.36274 0.90317 0.80636 0.0
C1190 C 0.31071 0.87067 0.72881 0.0
C1191 C 0.41128 0.87852 0.78798 0.0
C1192 C 0.40241 0.81273 0.71317 0.0
C1193 C 0.41572 0.83006 0.68963 0.0
C1194 C 0.38293 0.82658 0.73488 0.0
C1195 C 0.37748 0.85856 0.73345 0.0
C1196 C 0.39063 0.87598 0.7095 0.0
C1197 C 0.40923 0.86148 0.68775 0.0
C1198 C 0.36868 0.80715 0.75968 0.0
C1199 C 0.38624 0.91026 0.70758 0.0
H1200 H 0.29141 0.90726 0.77525 0.0
H1201 H 0.37585 0.91152 0.82576 0.0
H1202 H 0.31856 0.88195 0.70742 0.0
H1203 H 0.31408 0.84567 0.72583 0.0
H1204 H 0.28587 0.87537 0.73174 0.0
H1205 H 0.42061 0.88746 0.80994 0.0
H1206 H 0.41556 0.85352 0.78704 0.0
H1207 H 0.42416 0.88912 0.76878 0.0
H1208 H 0.40711 0.7884 0.71453 0.0
H1209 H 0.41958 0.8751 0.66973 0.0
H1210 H 0.34375 0.81186 0.76126 0.0
H1211 H 0.37894 0.81302 0.78221 0.0
H1212 H 0.37214 0.78231 0.7555 0.0
H1213 H 0.36151 0.91601 0.70727 0.0
H1214 H 0.39711 0.92027 0.68684 0.0
H1215 H 0.39633 0.92129 0.72816 0.0
C1216 C 0.62368 0.32811 0.81083 0.0
C1217 C 0.59308 0.32229 0.8031 0.0
C1218 C 0.64313 0.34368 0.79051 0.0
C1219 C 0.63125 0.35484 0.76242 0.0
C1220 C 0.6005 0.34832 0.75422 0.0
C1221 C 0.58191 0.33161 0.77449 0.0
C1222 C 0.67607 0.34905 0.79956 0.0
C1223 C 0.58669 0.36051 0.72488 0.0
C1224 C 0.66693 0.42591 0.72708 0.0
C1225 C 0.68111 0.41367 0.70107 0.0
C1226 C 0.65102 0.4069 0.7476 0.0
C1227 C 0.65028 0.37486 0.74242 0.0
C1228 C 0.6663 0.3623 0.71713 0.0
C1229 C 0.68095 0.38197 0.69634 0.0
C1230 C 0.63355 0.42131 0.77379 0.0
C1231 C 0.66711 0.32822 0.71148 0.0
H1232 H 0.63224 0.32088 0.83305 0.0
H1233 H 0.55809 0.3275 0.7688 0.0
H1234 H 0.69159 0.34284 0.78038 0.0
H1235 H 0.67965 0.37368 0.80456 0.0
H1236 H 0.68269 0.33564 0.82019 0.0
H1237 H 0.56264 0.35291 0.72161 0.0
H1238 H 0.58715 0.38591 0.72516 0.0
H1239 H 0.60036 0.35293 0.70484 0.0
H1240 H 0.66667 0.45052 0.73032 0.0
H1241 H 0.69188 0.37264 0.67605 0.0
H1242 H 0.64079 0.41112 0.79594 0.0
H1243 H 0.60872 0.41662 0.77105 0.0
H1244 H 0.63694 0.44648 0.77497 0.0
H1245 H 0.67337 0.31589 0.73285 0.0
H1246 H 0.68369 0.32193 0.6932 0.0
H1247 H 0.64407 0.32016 0.70449 0.0
C1248 C 0.08131 0.67127 0.72396 0.0
C1249 C 0.09234 0.68043 0.69526 0.0
C1250 C 0.1 0.65457 0.74423 0.0
C1251 C 0.1307 0.64788 0.73594 0.0
C1252 C 0.14242 0.65882 0.70772 0.0
C1253 C 0.12288 0.6744 0.68742 0.0
C1254 C 0.08636 0.64264 0.77373 0.0
C1255 C 0.1753 0.65327 0.69856 0.0
C1256 C 0.18084 0.62149 0.80215 0.0
C1257 C 0.18097 0.58972 0.79789 0.0
C1258 C 0.16606 0.64091 0.78115 0.0
C1259 C 0.14991 0.62806 0.7561 0.0
C1260 C 0.15067 0.59594 0.75134 0.0
C1261 C 0.16666 0.57717 0.7721 0.0
C1262 C 0.16683 0.67506 0.78638 0.0
C1263 C 0.13311 0.58123 0.7254 0.0
H1264 H 0.05753 0.67551 0.72974 0.0
H1265 H 0.13133 0.68148 0.66513 0.0
H1266 H 0.08692 0.61723 0.77369 0.0
H1267 H 0.10009 0.65043 0.79365 0.0
H1268 H 0.06229 0.65024 0.777 0.0
H1269 H 0.18176 0.66639 0.67771 0.0
H1270 H 0.19094 0.65972 0.71756 0.0
H1271 H 0.17887 0.62858 0.69388 0.0
H1272 H 0.19181 0.63108 0.8223 0.0
H1273 H 0.16635 0.55251 0.76924 0.0
H1274 H 0.14382 0.68319 0.79343 0.0
H1275 H 0.17289 0.68714 0.76483 0.0
H1276 H 0.18353 0.68157 0.80448 0.0
H1277 H 0.10827 0.58583 0.72826 0.0
H1278 H 0.13667 0.55607 0.72443 0.0
H1279 H 0.1401 0.59126 0.70311 0.0
C1280 C 0.90042 0.19189 0.78147 0.0
C1281 C 0.91843 0.17406 0.80118 0.0
C1282 C 0.88051 0.17792 0.76021 0.0
C1283 C 0.87955 0.14552 0.75808 0.0
C1284 C 0.89815 0.1276 0.77771 0.0
C1285 C 0.91695 0.14208 0.79927 0.0
C1286 C 0.86042 0.19771 0.74017 0.0
C1287 C 0.89872 0.09307 0.77557 0.0
C1288 C 0.81657 0.0989 0.71983 0.0
C1289 C 0.82998 0.0923 0.69135 0.0
C1290 C 0.83156 0.11791 0.74118 0.0
C1291 C 0.86086 0.12998 0.7341 0.0
C1292 C 0.87401 0.12411 0.70506 0.0
C1293 C 0.85834 0.10565 0.68403 0.0
C1294 C 0.81654 0.12422 0.7717 0.0
C1295 C 0.90549 0.13584 0.69677 0.0
H1296 H 0.90132 0.21662 0.78324 0.0
H1297 H 0.93105 0.12828 0.81443 0.0
H1298 H 0.86663 0.19447 0.71571 0.0
H1299 H 0.83612 0.19076 0.74272 0.0
H1300 H 0.86251 0.22239 0.74589 0.0
H1301 H 0.91462 0.08255 0.79247 0.0
H1302 H 0.87545 0.08372 0.77951 0.0
H1303 H 0.90589 0.08599 0.75219 0.0
H1304 H 0.79457 0.08895 0.72557 0.0
H1305 H 0.86903 0.10077 0.66213 0.0
H1306 H 0.81762 0.14901 0.77714 0.0
H1307 H 0.82903 0.11188 0.79011 0.0
H1308 H 0.79222 0.11679 0.77209 0.0
H1309 H 0.90693 0.16088 0.70064 0.0
H1310 H 0.91155 0.13103 0.67249 0.0
H1311 H 0.92287 0.12485 0.71177 0.0
C1312 C 0.62031 0.13638 0.457 0.0
C1313 C 0.59027 0.12494 0.45759 0.0
C1314 C 0.64314 0.12427 0.47611 0.0
C1315 C 0.63584 0.10009 0.49642 0.0
C1316 C 0.60562 0.08835 0.49716 0.0
C1317 C 0.58317 0.10092 0.47772 0.0
C1318 C 0.67508 0.13744 0.47462 0.0
C1319 C 0.59702 0.06259 0.51858 0.0
C1320 C 0.70254 0.05252 0.52608 0.0
C1321 C 0.70759 0.06572 0.55488 0.0
C1322 C 0.67885 0.06307 0.507 0.0
C1323 C 0.65991 0.08744 0.51706 0.0
C1324 C 0.66488 0.10067 0.54631 0.0
C1325 C 0.68879 0.08969 0.56484 0.0
C1326 C 0.67437 0.04847 0.47593 0.0
C1327 C 0.64529 0.12675 0.55781 0.0
H1328 H 0.62609 0.15495 0.44156 0.0
H1329 H 0.56005 0.09193 0.47834 0.0
H1330 H 0.68169 0.1467 0.49738 0.0
H1331 H 0.69177 0.11918 0.46879 0.0
H1332 H 0.67707 0.15604 0.45735 0.0
H1333 H 0.5726 0.05588 0.51623 0.0
H1334 H 0.61156 0.04227 0.51394 0.0
H1335 H 0.60127 0.06953 0.54269 0.0
H1336 H 0.71722 0.03396 0.51851 0.0
H1337 H 0.69307 0.10008 0.58703 0.0
H1338 H 0.67796 0.06575 0.45764 0.0
H1339 H 0.65053 0.03999 0.47366 0.0
H1340 H 0.69037 0.02907 0.47201 0.0
H1341 H 0.64804 0.1469 0.54257 0.0
H1342 H 0.65133 0.1336 0.58161 0.0
H1343 H 0.62076 0.12018 0.55722 0.0
C1344 C 0.40762 0.5904 0.46884 0.0
C1345 C 0.38106 0.59563 0.45151 0.0
C1346 C 0.41979 0.61341 0.4878 0.0
C1347 C 0.4051 0.64231 0.48929 0.0
C1348 C 0.3784 0.64774 0.47172 0.0
C1349 C 0.36667 0.62435 0.45316 0.0
C1350 C 0.44821 0.60677 0.50641 0.0
C1351 C 0.36215 0.67828 0.47258 0.0
C1352 C 0.41711 0.69321 0.55877 0.0
C1353 C 0.4389 0.71399 0.54786 0.0
C1354 C 0.4063 0.66943 0.5401 0.0
C1355 C 0.41722 0.66678 0.50963 0.0
C1356 C 0.43889 0.68811 0.49835 0.0
C1357 C 0.44952 0.71151 0.51769 0.0
C1358 C 0.38317 0.6472 0.55296 0.0
C1359 C 0.45076 0.68625 0.46588 0.0
H1360 H 0.41886 0.56829 0.46772 0.0
H1361 H 0.34618 0.6287 0.4398 0.0
H1362 H 0.4665 0.62335 0.50048 0.0
H1363 H 0.4432 0.6096 0.53121 0.0
H1364 H 0.45703 0.58322 0.50253 0.0
H1365 H 0.34197 0.679 0.45705 0.0
H1366 H 0.35433 0.68326 0.49628 0.0
H1367 H 0.37815 0.69681 0.46587 0.0
H1368 H 0.40858 0.69558 0.58202 0.0
H1369 H 0.46632 0.72776 0.50934 0.0
H1370 H 0.39198 0.62345 0.55103 0.0
H1371 H 0.36165 0.6484 0.53947 0.0
H1372 H 0.37774 0.65191 0.57741 0.0
H1373 H 0.4617 0.66366 0.46193 0.0
H1374 H 0.4677 0.70449 0.46074 0.0
H1375 H 0.43144 0.68826 0.44944 0.0
C1376 C 0.91949 0.40635 0.48008 0.0
C1377 C 0.91387 0.38067 0.46162 0.0
C1378 C 0.89663 0.41808 0.49953 0.0
C1379 C 0.86751 0.40384 0.5004 0.0
C1380 C 0.86173 0.37796 0.48181 0.0
C1381 C 0.88496 0.36667 0.46273 0.0
C1382 C 0.90363 0.44565 0.51919 0.0
C1383 C 0.83095 0.36218 0.48201 0.0
C1384 C 0.81558 0.41433 0.56945 0.0
C1385 C 0.79498 0.43642 0.5587 0.0
C1386 C 0.83973 0.40398 0.55093 0.0
C1387 C 0.843 0.41579 0.52084 0.0
C1388 C 0.82205 0.43804 0.50987 0.0
C1389 C 0.79824 0.44812 0.52901 0.0
C1390 C 0.86153 0.38019 0.56343 0.0
C1391 C 0.82462 0.45096 0.47784 0.0
H1392 H 0.94175 0.41729 0.47939 0.0
H1393 H 0.88033 0.34683 0.44855 0.0
H1394 H 0.8875 0.4645 0.51366 0.0
H1395 H 0.90035 0.43988 0.54377 0.0
H1396 H 0.92741 0.45403 0.51592 0.0
H1397 H 0.83011 0.34242 0.466 0.0
H1398 H 0.82564 0.35389 0.50547 0.0
H1399 H 0.8127 0.37864 0.4755 0.0
H1400 H 0.81264 0.40502 0.59233 0.0
H1401 H 0.78214 0.46519 0.52083 0.0
H1402 H 0.88545 0.38859 0.56187 0.0
H1403 H 0.86008 0.35903 0.54945 0.0
H1404 H 0.85655 0.37429 0.58772 0.0
H1405 H 0.84755 0.46133 0.47449 0.0
H1406 H 0.80689 0.46859 0.47308 0.0
H1407 H 0.82224 0.43229 0.46075 0.0
C1408 C 0.138 0.88361 0.46021 0.0
C1409 C 0.12287 0.91179 0.45686 0.0
C1410 C 0.126 0.86044 0.47889 0.0
C1411 C 0.09831 0.86562 0.49492 0.0
C1412 C 0.08297 0.89404 0.49185 0.0
C1413 C 0.09537 0.91678 0.47272 0.0
C1414 C 0.14293 0.83036 0.48139 0.0
C1415 C 0.05356 0.90046 0.50889 0.0
C1416 C 0.05441 0.79578 0.5225 0.0
C1417 C 0.06399 0.79385 0.55308 0.0
C1418 C 0.06516 0.81924 0.50331 0.0
C1419 C 0.08575 0.84131 0.51519 0.0
C1420 C 0.0953 0.83947 0.54619 0.0
C1421 C 0.08449 0.81556 0.56469 0.0
C1422 C 0.05478 0.82023 0.47028 0.0
C1423 C 0.11713 0.86261 0.55974 0.0
H1424 H 0.15922 0.87947 0.44798 0.0
H1425 H 0.08358 0.93849 0.47031 0.0
H1426 H 0.14959 0.82613 0.50559 0.0
H1427 H 0.12776 0.81129 0.47428 0.0
H1428 H 0.16391 0.82982 0.467 0.0
H1429 H 0.0445 0.92375 0.50412 0.0
H1430 H 0.0359 0.88342 0.50237 0.0
H1431 H 0.05739 0.89816 0.53396 0.0
H1432 H 0.0385 0.77891 0.51365 0.0
H1433 H 0.09213 0.81373 0.5883 0.0
H1434 H 0.07487 0.8182 0.45484 0.0
H1435 H 0.04367 0.84253 0.4653 0.0
H1436 H 0.0384 0.80159 0.46474 0.0
H1437 H 0.13943 0.86152 0.54761 0.0
H1438 H 0.1212 0.8587 0.58461 0.0
H1439 H 0.10794 0.88609 0.55659 0.0
C1440 C 0.19386 0.91309 0.93393 0.0
C1441 C 0.21416 0.93556 0.94434 0.0
C1442 C 0.16945 0.90323 0.95233 0.0
C1443 C 0.16562 0.91591 0.98199 0.0
C1444 C 0.18644 0.93834 0.99275 0.0
C1445 C 0.21054 0.9479 0.97372 0.0
C1446 C 0.14784 0.87919 0.94008 0.0
C1447 C 0.18329 0.95213 0.02434 0.0
C1448 C 0.08781 0.90795 0.02047 0.0
C1449 C 0.09265 0.88255 0.03955 0.0
C1450 C 0.11141 0.91922 0.00168 0.0
C1451 C 0.1405 0.90481 0.00213 0.0
C1452 C 0.14554 0.87931 0.02147 0.0
C1453 C 0.12158 0.86846 0.03984 0.0
C1454 C 0.10521 0.9464 0.98118 0.0
C1455 C 0.17625 0.86336 0.02268 0.0
H1456 H 0.1971 0.90327 0.91131 0.0
H1457 H 0.22644 0.96524 0.98166 0.0
H1458 H 0.14866 0.85856 0.9549 0.0
H1459 H 0.12397 0.88791 0.94058 0.0
H1460 H 0.1535 0.87233 0.91621 0.0
H1461 H 0.20118 0.96956 0.02909 0.0
H1462 H 0.16046 0.96302 0.0268 0.0
H1463 H 0.18489 0.93389 0.04199 0.0
H1464 H 0.06555 0.91895 0.02009 0.0
H1465 H 0.12564 0.84884 0.05453 0.0
H1466 H 0.10893 0.93993 0.95685 0.0
H1467 H 0.12146 0.96515 0.98656 0.0
H1468 H 0.08147 0.95521 0.98372 0.0
H1469 H 0.18214 0.8542 -0.00031 0.0
H1470 H 0.17658 0.84417 0.03941 0.0
H1471 H 0.19441 0.87992 0.02908 0.0
C1472 C 0.59439 0.0868 0.02933 0.0
C1473 C 0.62242 0.09199 0.04419 0.0
C1474 C 0.58172 0.1089 0.00957 0.0
C1475 C 0.59737 0.13687 0.00475 0.0
C1476 C 0.62563 0.14222 0.01971 0.0
C1477 C 0.63784 0.11971 0.03911 0.0
C1478 C 0.55166 0.10232 0.99378 0.0
C1479 C 0.64295 0.17181 0.01531 0.0
C1480 C 0.58245 0.18483 0.93363 0.0
C1481 C 0.56307 0.20766 0.94513 0.0
C1482 C 0.59305 0.16112 0.95258 0.0
C1483 C 0.58447 0.1606 0.98391 0.0
C1484 C 0.56481 0.18363 0.9956 0.0
C1485 C 0.55421 0.20684 0.97597 0.0
C1486 C 0.61383 0.13692 0.9392 0.0
C1487 C 0.55543 0.18406 0.02893 0.0
H1488 H 0.58234 0.06545 0.03308 0.0
H1489 H 0.65947 0.12402 0.05052 0.0
H1490 H 0.53447 0.11991 0.00017 0.0
H1491 H 0.55464 0.10354 0.96853 0.0
H1492 H 0.54245 0.0794 -0.00019 0.0
H1493 H 0.66447 0.17254 0.02891 0.0
H1494 H 0.64877 0.17489 0.99072 0.0
H1495 H 0.62837 0.19148 0.02213 0.0
H1496 H 0.58955 0.18574 0.90981 0.0
H1497 H 0.53912 0.22451 0.98474 0.0
H1498 H 0.60442 0.1138 0.94384 0.0
H1499 H 0.63667 0.1381 0.9503 0.0
H1500 H 0.61685 0.1396 0.91403 0.0
H1501 H 0.54436 0.16208 0.03516 0.0
H1502 H 0.53935 0.20307 0.03419 0.0
H1503 H 0.57602 0.18652 0.04366 0.0
C1504 C 0.29443 0.56131 0.97328 0.0
C1505 C 0.29291 0.57139 0.94284 0.0
C1506 C 0.31793 0.57132 0.99285 0.0
C1507 C 0.34033 0.59191 0.98161 0.0
C1508 C 0.33866 0.6023 0.95086 0.0
C1509 C 0.31479 0.59206 0.9319 0.0
C1510 C 0.31874 0.55996 0.02556 0.0
C1511 C 0.362 0.62433 0.93805 0.0
C1512 C 0.38366 0.64093 0.03889 0.0
C1513 C 0.41165 0.62526 0.04146 0.0
C1514 C 0.3603 0.63028 0.01957 0.0
C1515 C 0.36498 0.6033 0.00226 0.0
C1516 C 0.39317 0.58737 0.00461 0.0
C1517 C 0.41618 0.59853 0.02422 0.0
C1518 C 0.33055 0.6479 0.01776 0.0
C1519 C 0.39901 0.55857 0.98638 0.0
H1520 H 0.27731 0.54542 0.98166 0.0
H1521 H 0.31314 0.60028 0.90848 0.0
H1522 H 0.34084 0.54824 0.03014 0.0
H1523 H 0.31717 0.57959 0.04162 0.0
H1524 H 0.29977 0.54381 0.03063 0.0
H1525 H 0.3579 0.62956 0.91344 0.0
H1526 H 0.36142 0.64607 0.95119 0.0
H1527 H 0.38537 0.61464 0.94054 0.0
H1528 H 0.37986 0.66161 0.05209 0.0
H1529 H 0.43771 0.58628 0.02604 0.0
H1530 H 0.31119 0.63292 0.0245 0.0
H1531 H 0.32632 0.65537 0.9938 0.0
H1532 H 0.33052 0.66841 0.03281 0.0
H1533 H 0.38165 0.541 0.99225 0.0
H1534 H 0.42216 0.54892 0.99071 0.0
H1535 H 0.3967 0.56343 0.96149 0.0
C1536 C 0.89123 0.38833 0.04578 0.0
C1537 C 0.87858 0.41409 0.03128 0.0
C1538 C 0.90453 0.36461 0.0287 0.0
C1539 C 0.90476 0.36645 0.99629 0.0
C1540 C 0.89253 0.39265 0.98151 0.0
C1541 C 0.87978 0.41631 -0.00078 0.0
C1542 C 0.91779 0.33729 0.04532 0.0
C1543 C 0.89209 0.39524 0.94696 0.0
C1544 C 0.959 0.3151 0.95163 0.0
C1545 C 0.93965 0.29093 0.94341 0.0
C1546 C 0.94802 0.33982 0.96899 0.0
C1547 C 0.91685 0.34045 0.97791 0.0
C1548 C 0.89722 0.31602 0.96957 0.0
C1549 C 0.90893 0.29143 0.9525 0.0
C1550 C 0.96974 0.36521 0.97779 0.0
C1551 C 0.86377 0.31602 0.97838 0.0
H1552 H 0.89056 0.38659 0.07059 0.0
H1553 H 0.86985 0.43607 0.98791 0.0
H1554 H 0.90463 0.31642 0.03934 0.0
H1555 H 0.94181 0.33341 0.038 0.0
H1556 H 0.91734 0.34018 0.07065 0.0
H1557 H 0.88266 0.41751 0.93905 0.0
H1558 H 0.91558 0.39257 0.93767 0.0
H1559 H 0.87797 0.37655 0.93714 0.0
H1560 H 0.98279 0.31457 0.9445 0.0
H1561 H 0.89392 0.2729 0.94564 0.0
H1562 H 0.97054 0.36754 0.00313 0.0
H1563 H 0.96143 0.38733 0.96842 0.0
H1564 H 0.99335 0.36111 0.96922 0.0
H1565 H 0.86147 0.31683 0.00372 0.0
H1566 H 0.85153 0.29548 0.96975 0.0
H1567 H 0.85237 0.33675 0.96907 0.0
C1568 C 0.32246 0.9572 0.44826 0.0
C1569 C 0.29803 0.93771 0.44118 0.0
C1570 C 0.3477 0.9466 0.46518 0.0
C1571 C 0.34858 0.91567 0.47485 0.0
C1572 C 0.32395 0.89586 0.46754 0.0
C1573 C 0.29886 0.9072 0.45089 0.0
C1574 C 0.37328 0.96852 0.47288 0.0
C1575 C 0.32419 0.86266 0.47717 0.0
C1576 C 0.42459 0.87874 0.49632 0.0
C1577 C 0.42264 0.87818 0.52842 0.0
C1578 C 0.40086 0.89135 0.47852 0.0
C1579 C 0.37488 0.90409 0.49325 0.0
C1580 C 0.37341 0.90465 0.52567 0.0
C1581 C 0.39718 0.89149 0.54284 0.0
C1582 C 0.40307 0.89006 0.44398 0.0
C1583 C 0.34635 0.91848 0.54225 0.0
H1584 H 0.32167 0.98084 0.44071 0.0
H1585 H 0.28012 0.89206 0.44495 0.0
H1586 H 0.37589 0.97022 0.49815 0.0
H1587 H 0.39528 0.95982 0.46361 0.0
H1588 H 0.36914 0.99181 0.46351 0.0
H1589 H 0.30361 0.85013 0.46901 0.0
H1590 H 0.3449 0.85112 0.46801 0.0
H1591 H 0.3252 0.86098 0.50255 0.0
H1592 H 0.44411 0.86829 0.48506 0.0
H1593 H 0.39565 0.89131 0.56767 0.0
H1594 H 0.40007 0.91326 0.43408 0.0
H1595 H 0.38439 0.87552 0.43475 0.0
H1596 H 0.42535 0.88063 0.43608 0.0
H1597 H 0.34235 0.94224 0.53418 0.0
H1598 H 0.34965 0.91886 0.56753 0.0
H1599 H 0.32538 0.90515 0.53704 0.0
C1600 C 0.55441 0.29881 0.47162 0.0
C1601 C 0.5676 0.29444 0.44272 0.0
C1602 C 0.56498 0.32201 0.49121 0.0
C1603 C 0.58937 0.34108 0.48156 0.0
C1604 C 0.60273 0.33664 0.45228 0.0
C1605 C 0.5917 0.31325 0.43322 0.0
C1606 C 0.55023 0.32597 0.52228 0.0
C1607 C 0.62888 0.35637 0.44125 0.0
C1608 C 0.60191 0.41741 0.52162 0.0
C1609 C 0.62582 0.41025 0.5419 0.0
C1610 C 0.58968 0.39509 0.5019 0.0
C1611 C 0.60168 0.36496 0.5025 0.0
C1612 C 0.62575 0.3576 0.52296 0.0
C1613 C 0.63752 0.3803 0.54237 0.0
C1614 C 0.564 0.40373 0.48034 0.0
C1615 C 0.6392 0.32574 0.52426 0.0
H1616 H 0.53576 0.28409 0.4788 0.0
H1617 H 0.60204 0.30947 0.41092 0.0
H1618 H 0.56752 0.32241 0.5406 0.0
H1619 H 0.5414 0.34966 0.52474 0.0
H1620 H 0.53104 0.30972 0.52598 0.0
H1621 H 0.63612 0.35047 0.41754 0.0
H1622 H 0.62212 0.38084 0.44182 0.0
H1623 H 0.64884 0.35366 0.45678 0.0
H1624 H 0.59274 0.44046 0.52109 0.0
H1625 H 0.65602 0.3745 0.55792 0.0
H1626 H 0.54376 0.38903 0.48467 0.0
H1627 H 0.57118 0.39978 0.45625 0.0
H1628 H 0.55705 0.42807 0.48286 0.0
H1629 H 0.62103 0.3089 0.5298 0.0
H1630 H 0.6577 0.3237 0.54166 0.0
H1631 H 0.64868 0.31942 0.50152 0.0
C1632 C 0.18634 0.58453 0.43226 0.0
C1633 C 0.20925 0.56493 0.44325 0.0
C1634 C 0.16265 0.59463 0.45151 0.0
C1635 C 0.16221 0.58525 0.48261 0.0
C1636 C 0.18542 0.56548 0.49382 0.0
C1637 C 0.20864 0.55546 0.47392 0.0
C1638 C 0.13832 0.61561 0.43865 0.0
C1639 C 0.18592 0.55526 0.52691 0.0
C1640 C 0.12029 0.63666 0.53883 0.0
C1641 C 0.09259 0.62093 0.54312 0.0
C1642 C 0.14316 0.62515 0.51943 0.0
C1643 C 0.13823 0.59727 0.5037 0.0
C1644 C 0.11035 0.58124 0.50782 0.0
C1645 C 0.08787 0.59322 0.52757 0.0
C1646 C 0.17263 0.64286 0.51578 0.0
C1647 C 0.10422 0.55154 0.49123 0.0
H1648 H 0.1871 0.5921 0.40858 0.0
H1649 H 0.2264 0.54022 0.48229 0.0
H1650 H 0.11526 0.60577 0.44274 0.0
H1651 H 0.13914 0.63802 0.45057 0.0
H1652 H 0.14116 0.61957 0.41363 0.0
H1653 H 0.20519 0.53937 0.53183 0.0
H1654 H 0.18799 0.57547 0.54218 0.0
H1655 H 0.1641 0.54366 0.53275 0.0
H1656 H 0.12428 0.65803 0.5508 0.0
H1657 H 0.06656 0.58093 0.53072 0.0
H1658 H 0.1758 0.64947 0.4914 0.0
H1659 H 0.19242 0.62828 0.52229 0.0
H1660 H 0.17307 0.66394 0.53003 0.0
H1661 H 0.10541 0.55524 0.46607 0.0
H1662 H 0.08143 0.54183 0.49697 0.0
H1663 H 0.12209 0.53446 0.49719 0.0
C1664 C 0.91689 0.19089 0.43369 0.0
C1665 C 0.94015 0.21001 0.4446 0.0
C1666 C 0.90598 0.16655 0.45154 0.0
C1667 C 0.91829 0.16169 0.48121 0.0
C1668 C 0.94166 0.18121 0.49241 0.0
C1669 C 0.95239 0.20516 0.47386 0.0
C1670 C 0.88109 0.14623 0.43877 0.0
C1671 C 0.95503 0.17699 0.52409 0.0
C1672 C 0.86787 0.12003 0.53819 0.0
C1673 C 0.88064 0.09052 0.53818 0.0
C1674 C 0.88013 0.14341 0.52 0.0
C1675 C 0.90563 0.13712 0.50103 0.0
C1676 C 0.9186 0.10739 0.50073 0.0
C1677 C 0.90602 0.08442 0.51945 0.0
C1678 C 0.86579 0.17489 0.52112 0.0
C1679 C 0.94564 0.09984 0.48052 0.0
H1680 H 0.90721 0.19507 0.41115 0.0
H1681 H 0.97038 0.22012 0.48216 0.0
H1682 H 0.88849 0.12194 0.4395 0.0
H1683 H 0.86019 0.1482 0.45311 0.0
H1684 H 0.87505 0.15221 0.41474 0.0
H1685 H 0.97345 0.19378 0.52911 0.0
H1686 H 0.93676 0.17955 0.54159 0.0
H1687 H 0.96453 0.15355 0.52649 0.0
H1688 H 0.84831 0.12504 0.55267 0.0
H1689 H 0.91597 0.06169 0.51929 0.0
H1690 H 0.85724 0.18136 0.49804 0.0
H1691 H 0.88321 0.1921 0.52783 0.0
H1692 H 0.84641 0.17615 0.53759 0.0
H1693 H 0.9397 0.10416 0.45614 0.0
H1694 H 0.95306 0.07563 0.48294 0.0
H1695 H 0.96523 0.11493 0.48629 0.0
C1696 C 0.81653 0.08909 0.06594 0.0
C1697 C 0.79674 0.06585 0.05627 0.0
C1698 C 0.84044 0.0992 0.04701 0.0
C1699 C 0.84435 0.08589 0.01764 0.0
C1700 C 0.82429 0.06239 0.0078 0.0
C1701 C 0.80066 0.05264 0.02731 0.0
C1702 C 0.86127 0.12437 0.05829 0.0
C1703 C 0.8276 0.04779 0.97658 0.0
C1704 C 0.88519 0.13353 0.95758 0.0
C1705 C 0.91474 0.1208 0.95779 0.0
C1706 C 0.86208 0.12219 0.97674 0.0
C1707 C 0.8686 0.09753 0.99673 0.0
C1708 C 0.8983 0.08443 0.99704 0.0
C1709 C 0.92104 0.09622 0.97753 0.0
C1710 C 0.83069 0.13676 0.97569 0.0
C1711 C 0.90606 0.05814 0.01815 0.0
H1712 H 0.81311 0.0995 0.08826 0.0
H1713 H 0.78521 0.03464 0.01999 0.0
H1714 H 0.88549 0.11669 0.0574 0.0
H1715 H 0.85921 0.14465 0.04309 0.0
H1716 H 0.85585 0.13147 0.08215 0.0
H1717 H 0.81061 0.02927 0.97275 0.0
H1718 H 0.82462 0.06537 0.95844 0.0
H1719 H 0.85095 0.03811 0.97395 0.0
H1720 H 0.88004 0.15253 0.94242 0.0
H1721 H 0.94378 0.08625 0.97785 0.0
H1722 H 0.82482 0.14628 0.99854 0.0
H1723 H 0.81316 0.11926 0.9701 0.0
H1724 H 0.82922 0.15544 0.95846 0.0
H1725 H 0.90256 0.06512 0.04237 0.0
H1726 H 0.9301 0.05026 0.01535 0.0
H1727 H 0.89052 0.03857 0.01365 0.0
C1728 C 0.37947 0.92061 0.99823 0.0
C1729 C 0.37852 0.91713 0.96627 0.0
C1730 C 0.39218 0.89771 0.01698 0.0
C1731 C 0.40464 0.87102 0.00335 0.0
C1732 C 0.40477 0.86798 0.97103 0.0
C1733 C 0.39149 0.89094 0.95291 0.0
C1734 C 0.39133 0.90156 0.0514 0.0
C1735 C 0.41829 0.84012 0.9556 0.0
C1736 C 0.45819 0.82036 0.04976 0.0
C1737 C 0.43871 0.79628 0.05792 0.0
C1738 C 0.44741 0.84499 0.03209 0.0
C1739 C 0.41633 0.8456 0.02281 0.0
C1740 C 0.3965 0.82142 0.03138 0.0
C1741 C 0.40801 0.79693 0.04874 0.0
C1742 C 0.46934 0.87011 0.02304 0.0
C1743 C 0.36314 0.82143 0.02224 0.0
H1744 H 0.36931 0.94072 0.00866 0.0
H1745 H 0.39102 0.88825 0.92818 0.0
H1746 H 0.37682 0.88342 0.06168 0.0
H1747 H 0.41465 0.89893 0.06115 0.0
H1748 H 0.38207 0.92422 0.05834 0.0
H1749 H 0.41834 0.84218 0.93019 0.0
H1750 H 0.44216 0.83643 0.96354 0.0
H1751 H 0.40496 0.81948 0.96199 0.0
H1752 H 0.48196 0.81972 0.05696 0.0
H1753 H 0.3929 0.77846 0.05555 0.0
H1754 H 0.46073 0.89254 0.03129 0.0
H1755 H 0.47088 0.87148 0.99767 0.0
H1756 H 0.49269 0.86638 0.03247 0.0
H1757 H 0.35187 0.84267 0.03049 0.0
H1758 H 0.35058 0.80141 0.03162 0.0
H1759 H 0.36109 0.82115 0.99687 0.0
C1760 C 0.69299 0.41254 0.06384 0.0
C1761 C 0.71446 0.43349 0.05262 0.0
C1762 C 0.66872 0.40241 0.04537 0.0
C1763 C 0.66635 0.41304 0.01476 0.0
C1764 C 0.68839 0.43382 0.00317 0.0
C1765 C 0.71219 0.44386 0.02233 0.0
C1766 C 0.6457 0.38025 0.05855 0.0
C1767 C 0.6869 0.44529 0.97052 0.0
C1768 C 0.62251 0.36351 0.95847 0.0
C1769 C 0.59437 0.37897 0.95628 0.0
C1770 C 0.64611 0.37447 0.97728 0.0
C1771 C 0.64148 0.40148 0.99453 0.0
C1772 C 0.61314 0.41719 0.99258 0.0
C1773 C 0.58991 0.40579 0.97339 0.0
C1774 C 0.67606 0.35714 0.97859 0.0
C1775 C 0.60736 0.44598 0.01085 0.0
H1776 H 0.69524 0.40405 0.08712 0.0
H1777 H 0.729 0.45998 0.01373 0.0
H1778 H 0.62223 0.38975 0.05633 0.0
H1779 H 0.64629 0.35847 0.04549 0.0
H1780 H 0.65015 0.37514 0.08313 0.0
H1781 H 0.7057 0.46154 0.96515 0.0
H1782 H 0.68828 0.42571 0.95438 0.0
H1783 H 0.66467 0.4569 0.96639 0.0
H1784 H 0.62628 0.34282 0.94529 0.0
H1785 H 0.56826 0.41785 0.97185 0.0
H1786 H 0.68071 0.34961 0.00245 0.0
H1787 H 0.69518 0.37233 0.97162 0.0
H1788 H 0.67608 0.33667 0.96346 0.0
H1789 H 0.61012 0.44118 0.03571 0.0
H1790 H 0.58407 0.45543 0.00688 0.0
H1791 H 0.62447 0.46369 0.00467 0.0
C1792 C 0.04828 0.68765 0.04485 0.0
C1793 C 0.06726 0.71227 0.05257 0.0
C1794 C 0.05932 0.66336 0.0269 0.0
C1795 C 0.09018 0.66361 0.01694 0.0
C1796 C 0.10945 0.68847 0.02486 0.0
C1797 C 0.09766 0.71263 0.04247 0.0
C1798 C 0.03796 0.63752 0.01853 0.0
C1799 C 0.14259 0.68938 0.01502 0.0
C1800 C 0.12872 0.58902 0.99386 0.0
C1801 C 0.12913 0.59164 0.96182 0.0
C1802 C 0.11571 0.6121 0.01215 0.0
C1803 C 0.10237 0.63808 0.99796 0.0
C1804 C 0.10175 0.64026 0.96557 0.0
C1805 C 0.11539 0.61715 0.94791 0.0
C1806 C 0.11716 0.6092 0.04664 0.0
C1807 C 0.08725 0.66732 0.94958 0.0
H1808 H 0.02474 0.68751 0.05277 0.0
H1809 H 0.11238 0.73153 0.04892 0.0
H1810 H 0.03644 0.6354 0.9932 0.0
H1811 H 0.04709 0.61554 0.02742 0.0
H1812 H 0.01453 0.64097 0.02785 0.0
H1813 H 0.15461 0.7101 0.02354 0.0
H1814 H 0.15476 0.66881 0.02369 0.0
H1815 H 0.14412 0.68896 0.98962 0.0
H1816 H 0.1395 0.56945 0.00472 0.0
H1817 H 0.11547 0.61917 0.92311 0.0
H1818 H 0.09388 0.6112 0.05661 0.0
H1819 H 0.1311 0.62813 0.05626 0.0
H1820 H 0.12734 0.58709 0.05407 0.0
H1821 H 0.06339 0.67054 0.95771 0.0
H1822 H 0.08695 0.66459 0.92423 0.0
H1823 H 0.10006 0.68848 0.95526 0.0
loop_
_geom_bond_atom_site_label_1
_geom_bond_atom_site_label_2
_geom_bond_distance
_geom_bond_site_symmetry_2
_ccdc_geom_bond_type
Co0 O3 1.970 . S
Co0 N17 1.989 . S
Co0 O25 1.967 . S
Co0 O32 1.920 . S
Co1 O4 1.966 . S
Co1 N10 2.022 . S
Co1 N18 1.993 . S
Co1 O26 1.941 . S
C2 O3 1.258 . S
C2 O4 1.263 . S
O3 Co0 1.970 . S
O3 C2 1.258 . S
O4 Co1 1.966 . S
O4 C2 1.263 . S
C5 O6 1.235 . S
C5 O32 1.289 . S
O6 C5 1.235 . S
C7 C9 1.400 . S
C7 N10 1.351 . S
C7 C12 1.501 . S
C8 C9 1.387 . S
C8 N11 1.341 . S
C9 C7 1.400 . S
C9 C8 1.387 . S
N10 Co1 2.022 . S
N10 C7 1.351 . S
N10 N11 1.365 . S
N11 C8 1.341 . S
N11 N10 1.365 . S
N11 H31 0.862 . S
C12 C7 1.501 . S
C12 H13 0.961 . S
C12 H14 0.961 . S
C12 H15 0.960 . S
H13 C12 0.961 . S
H14 C12 0.961 . S
H15 C12 0.960 . S
C16 N17 1.342 . S
C16 C20 1.401 . S
C16 C21 1.499 . S
N17 Co0 1.989 . S
N17 C16 1.342 . S
N17 N18 1.388 . S
N18 Co1 1.993 . S
N18 N17 1.388 . S
N18 C19 1.346 . S
C19 N18 1.346 . S
C19 C20 1.396 . S
C19 C29 1.510 . S
C20 C16 1.401 . S
C20 C19 1.396 . S
C21 C16 1.499 . S
C21 H22 0.959 . S
C21 H23 0.960 . S
C21 H24 0.961 . S
H22 C21 0.959 . S
H23 C21 0.960 . S
H24 C21 0.961 . S
O25 Co0 1.967 . S
O25 C33 1.258 . S
O26 Co1 1.941 . S
O26 C33 1.266 . S
H27 C29 0.959 . S
H28 C29 0.961 . S
C29 C19 1.510 . S
C29 H27 0.959 . S
C29 H28 0.961 . S
C29 H30 0.960 . S
H30 C29 0.960 . S
H31 N11 0.862 . S
O32 Co0 1.920 . S
O32 C5 1.289 . S
C33 O25 1.258 . S
C33 O26 1.266 . S
Co34 O37 1.970 . S
Co34 N51 1.989 . S
Co34 O59 1.967 . S
Co34 O66 1.920 . S
Co35 O38 1.966 . S
Co35 N44 2.022 . S
Co35 N52 1.993 . S
Co35 O60 1.941 . S
C36 O37 1.258 . S
C36 O38 1.263 . S
O37 Co34 1.970 . S
O37 C36 1.258 . S
O38 Co35 1.966 . S
O38 C36 1.263 . S
C39 O40 1.235 . S
C39 O66 1.289 . S
O40 C39 1.235 . S
C41 C43 1.400 . S
C41 N44 1.351 . S
C41 C46 1.501 . S
C42 C43 1.387 . S
C42 N45 1.341 . S
C43 C41 1.400 . S
C43 C42 1.387 . S
N44 Co35 2.022 . S
N44 C41 1.351 . S
N44 N45 1.365 . S
N45 C42 1.341 . S
N45 N44 1.365 . S
N45 H65 0.862 . S
C46 C41 1.501 . S
C46 H47 0.961 . S
C46 H48 0.961 . S
C46 H49 0.960 . S
H47 C46 0.961 . S
H48 C46 0.961 . S
H49 C46 0.960 . S
C50 N51 1.342 . S
C50 C54 1.401 . S
C50 C55 1.499 . S
N51 Co34 1.989 . S
N51 C50 1.342 . S
N51 N52 1.388 . S
N52 Co35 1.993 . S
N52 N51 1.388 . S
N52 C53 1.346 . S
C53 N52 1.346 . S
C53 C54 1.396 . S
C53 C63 1.510 . S
C54 C50 1.401 . S
C54 C53 1.396 . S
C55 C50 1.499 . S
C55 H56 0.959 . S
C55 H57 0.960 . S
C55 H58 0.961 . S
H56 C55 0.959 . S
H57 C55 0.960 . S
H58 C55 0.961 . S
O59 Co34 1.967 . S
O59 C67 1.258 . S
O60 Co35 1.941 . S
O60 C67 1.266 . S
H61 C63 0.959 . S
H62 C63 0.961 . S
C63 C53 1.510 . S
C63 H61 0.959 . S
C63 H62 0.961 . S
C63 H64 0.960 . S
H64 C63 0.960 . S
H65 N45 0.862 . S
O66 Co34 1.920 . S
O66 C39 1.289 . S
C67 O59 1.258 . S
C67 O60 1.266 . S
Co68 O71 1.970 . S
Co68 N85 1.989 . S
Co68 O93 1.967 . S
Co68 O100 1.920 . S
Co69 O72 1.966 1_655 S
Co69 N78 2.022 1_655 S
Co69 N86 1.993 . S
Co69 O94 1.941 . S
C70 O71 1.258 1_455 S
C70 O72 1.263 . S
O71 Co68 1.970 . S
O71 C70 1.258 1_655 S
O72 Co69 1.966 1_455 S
O72 C70 1.263 . S
C73 O74 1.235 . S
C73 O100 1.289 . S
O74 C73 1.235 . S
C75 C77 1.400 . S
C75 N78 1.351 . S
C75 C80 1.501 . S
C76 C77 1.387 . S
C76 N79 1.341 1_455 S
C77 C75 1.400 . S
C77 C76 1.387 . S
N78 Co69 2.022 1_455 S
N78 C75 1.351 . S
N78 N79 1.365 1_455 S
N79 C76 1.341 1_655 S
N79 N78 1.365 1_655 S
N79 H99 0.862 . S
C80 C75 1.501 . S
C80 H81 0.961 . S
C80 H82 0.961 . S
C80 H83 0.960 . S
H81 C80 0.961 . S
H82 C80 0.961 . S
H83 C80 0.960 . S
C84 N85 1.342 . S
C84 C88 1.401 . S
C84 C89 1.499 . S
N85 Co68 1.989 . S
N85 C84 1.342 . S
N85 N86 1.388 . S
N86 Co69 1.993 . S
N86 N85 1.388 . S
N86 C87 1.346 . S
C87 N86 1.346 . S
C87 C88 1.396 . S
C87 C97 1.510 . S
C88 C84 1.401 . S
C88 C87 1.396 . S
C89 C84 1.499 . S
C89 H90 0.959 . S
C89 H91 0.960 . S
C89 H92 0.961 . S
H90 C89 0.959 . S
H91 C89 0.960 . S
H92 C89 0.961 . S
O93 Co68 1.967 . S
O93 C101 1.258 . S
O94 Co69 1.941 . S
O94 C101 1.266 . S
H95 C97 0.959 . S
H96 C97 0.961 . S
C97 C87 1.510 . S
C97 H95 0.959 . S
C97 H96 0.961 . S
C97 H98 0.960 . S
H98 C97 0.960 . S
H99 N79 0.862 . S
O100 Co68 1.920 . S
O100 C73 1.289 . S
C101 O93 1.258 . S
C101 O94 1.266 . S
Co102 O105 1.970 . S
Co102 N119 1.989 . S
Co102 O127 1.967 . S
Co102 O134 1.920 . S
Co103 O106 1.966 1_565 S
Co103 N112 2.022 1_565 S
Co103 N120 1.993 . S
Co103 O128 1.941 . S
C104 O105 1.258 1_545 S
C104 O106 1.263 . S
O105 Co102 1.970 . S
O105 C104 1.258 1_565 S
O106 Co103 1.966 1_545 S
O106 C104 1.263 . S
C107 O108 1.235 . S
C107 O134 1.289 . S
O108 C107 1.235 . S
C109 C111 1.400 . S
C109 N112 1.351 . S
C109 C114 1.501 . S
C110 C111 1.387 . S
C110 N113 1.341 1_545 S
C111 C109 1.400 . S
C111 C110 1.387 . S
N112 Co103 2.022 1_545 S
N112 C109 1.351 . S
N112 N113 1.365 1_545 S
N113 C110 1.341 1_565 S
N113 N112 1.365 1_565 S
N113 H133 0.862 . S
C114 C109 1.501 . S
C114 H115 0.961 . S
C114 H116 0.961 . S
C114 H117 0.960 . S
H115 C114 0.961 . S
H116 C114 0.961 . S
H117 C114 0.960 . S
C118 N119 1.342 . S
C118 C122 1.401 . S
C118 C123 1.499 . S
N119 Co102 1.989 . S
N119 C118 1.342 . S
N119 N120 1.388 . S
N120 Co103 1.993 . S
N120 N119 1.388 . S
N120 C121 1.346 . S
C121 N120 1.346 . S
C121 C122 1.396 . S
C121 C131 1.510 . S
C122 C118 1.401 . S
C122 C121 1.396 . S
C123 C118 1.499 . S
C123 H124 0.959 . S
C123 H125 0.960 . S
C123 H126 0.961 . S
H124 C123 0.959 . S
H125 C123 0.960 . S
H126 C123 0.961 . S
O127 Co102 1.967 . S
O127 C135 1.258 . S
O128 Co103 1.941 . S
O128 C135 1.266 . S
H129 C131 0.959 . S
H130 C131 0.961 . S
C131 C121 1.510 . S
C131 H129 0.959 . S
C131 H130 0.961 . S
C131 H132 0.960 . S
H132 C131 0.960 . S
H133 N113 0.862 . S
O134 Co102 1.920 . S
O134 C107 1.289 . S
C135 O127 1.258 . S
C135 O128 1.266 . S
Co136 O139 1.970 . S
Co136 N153 1.989 . S
Co136 O161 1.967 . S
Co136 O168 1.920 . S
Co137 O140 1.966 1_455 S
Co137 N146 2.022 1_455 S
Co137 N154 1.993 . S
Co137 O162 1.941 . S
C138 O139 1.258 1_655 S
C138 O140 1.263 . S
O139 Co136 1.970 . S
O139 C138 1.258 1_455 S
O140 Co137 1.966 1_655 S
O140 C138 1.263 . S
C141 O142 1.235 . S
C141 O168 1.289 . S
O142 C141 1.235 . S
C143 C145 1.400 . S
C143 N146 1.351 . S
C143 C148 1.501 . S
C144 C145 1.387 . S
C144 N147 1.341 1_655 S
C145 C143 1.400 . S
C145 C144 1.387 . S
N146 Co137 2.022 1_655 S
N146 C143 1.351 . S
N146 N147 1.365 1_655 S
N147 C144 1.341 1_455 S
N147 N146 1.365 1_455 S
N147 H167 0.862 . S
C148 C143 1.501 . S
C148 H149 0.961 . S
C148 H150 0.961 . S
C148 H151 0.960 . S
H149 C148 0.961 . S
H150 C148 0.961 . S
H151 C148 0.960 . S
C152 N153 1.342 . S
C152 C156 1.401 . S
C152 C157 1.499 . S
N153 Co136 1.989 . S
N153 C152 1.342 . S
N153 N154 1.388 . S
N154 Co137 1.993 . S
N154 N153 1.388 . S
N154 C155 1.346 . S
C155 N154 1.346 . S
C155 C156 1.396 . S
C155 C165 1.510 . S
C156 C152 1.401 . S
C156 C155 1.396 . S
C157 C152 1.499 . S
C157 H158 0.959 . S
C157 H159 0.960 . S
C157 H160 0.961 . S
H158 C157 0.959 . S
H159 C157 0.960 . S
H160 C157 0.961 . S
O161 Co136 1.967 . S
O161 C169 1.258 . S
O162 Co137 1.941 . S
O162 C169 1.266 . S
H163 C165 0.959 . S
H164 C165 0.961 . S
C165 C155 1.510 . S
C165 H163 0.959 . S
C165 H164 0.961 . S
C165 H166 0.960 . S
H166 C165 0.960 . S
H167 N147 0.862 . S
O168 Co136 1.920 . S
O168 C141 1.289 . S
C169 O161 1.258 . S
C169 O162 1.266 . S
Co170 O173 1.970 . S
Co170 N187 1.989 . S
Co170 O195 1.967 . S
Co170 O202 1.920 . S
Co171 O174 1.966 1_545 S
Co171 N180 2.022 1_545 S
Co171 N188 1.993 . S
Co171 O196 1.941 . S
C172 O173 1.258 1_565 S
C172 O174 1.263 . S
O173 Co170 1.970 . S
O173 C172 1.258 1_545 S
O174 Co171 1.966 1_565 S
O174 C172 1.263 . S
C175 O176 1.235 . S
C175 O202 1.289 . S
O176 C175 1.235 . S
C177 C179 1.400 . S
C177 N180 1.351 . S
C177 C182 1.501 . S
C178 C179 1.387 . S
C178 N181 1.341 1_565 S
C179 C177 1.400 . S
C179 C178 1.387 . S
N180 Co171 2.022 1_565 S
N180 C177 1.351 . S
N180 N181 1.365 1_565 S
N181 C178 1.341 1_545 S
N181 N180 1.365 1_545 S
N181 H201 0.862 . S
C182 C177 1.501 . S
C182 H183 0.961 . S
C182 H184 0.961 . S
C182 H185 0.960 . S
H183 C182 0.961 . S
H184 C182 0.961 . S
H185 C182 0.960 . S
C186 N187 1.342 . S
C186 C190 1.401 . S
C186 C191 1.499 . S
N187 Co170 1.989 . S
N187 C186 1.342 . S
N187 N188 1.388 . S
N188 Co171 1.993 . S
N188 N187 1.388 . S
N188 C189 1.346 . S
C189 N188 1.346 . S
C189 C190 1.396 . S
C189 C199 1.510 . S
C190 C186 1.401 . S
C190 C189 1.396 . S
C191 C186 1.499 . S
C191 H192 0.959 . S
C191 H193 0.960 . S
C191 H194 0.961 . S
H192 C191 0.959 . S
H193 C191 0.960 . S
H194 C191 0.961 . S
O195 Co170 1.967 . S
O195 C203 1.258 . S
O196 Co171 1.941 . S
O196 C203 1.266 . S
H197 C199 0.959 . S
H198 C199 0.961 . S
C199 C189 1.510 . S
C199 H197 0.959 . S
C199 H198 0.961 . S
C199 H200 0.960 . S
H200 C199 0.960 . S
H201 N181 0.862 . S
O202 Co170 1.920 . S
O202 C175 1.289 . S
C203 O195 1.258 . S
C203 O196 1.266 . S
Co204 O207 1.970 . S
Co204 N221 1.989 . S
Co204 O229 1.967 . S
Co204 O236 1.920 . S
Co205 O208 1.966 . S
Co205 N214 2.022 . S
Co205 N222 1.993 . S
Co205 O230 1.941 . S
C206 O207 1.258 . S
C206 O208 1.263 . S
O207 Co204 1.970 . S
O207 C206 1.258 . S
O208 Co205 1.966 . S
O208 C206 1.263 . S
C209 O210 1.235 . S
C209 O236 1.289 . S
O210 C209 1.235 . S
C211 C213 1.400 . S
C211 N214 1.351 . S
C211 C216 1.501 . S
C212 C213 1.387 . S
C212 N215 1.341 . S
C213 C211 1.400 . S
C213 C212 1.387 . S
N214 Co205 2.022 . S
N214 C211 1.351 . S
N214 N215 1.365 . S
N215 C212 1.341 . S
N215 N214 1.365 . S
N215 H235 0.862 . S
C216 C211 1.501 . S
C216 H217 0.961 . S
C216 H218 0.961 . S
C216 H219 0.960 . S
H217 C216 0.961 . S
H218 C216 0.961 . S
H219 C216 0.960 . S
C220 N221 1.342 . S
C220 C224 1.401 . S
C220 C225 1.499 . S
N221 Co204 1.989 . S
N221 C220 1.342 . S
N221 N222 1.388 . S
N222 Co205 1.993 . S
N222 N221 1.388 . S
N222 C223 1.346 . S
C223 N222 1.346 . S
C223 C224 1.396 . S
C223 C233 1.510 . S
C224 C220 1.401 . S
C224 C223 1.396 . S
C225 C220 1.499 . S
C225 H226 0.959 . S
C225 H227 0.960 . S
C225 H228 0.961 . S
H226 C225 0.959 . S
H227 C225 0.960 . S
H228 C225 0.961 . S
O229 Co204 1.967 . S
O229 C237 1.258 . S
O230 Co205 1.941 . S
O230 C237 1.266 . S
H231 C233 0.959 . S
H232 C233 0.961 . S
C233 C223 1.510 . S
C233 H231 0.959 . S
C233 H232 0.961 . S
C233 H234 0.960 . S
H234 C233 0.960 . S
H235 N215 0.862 . S
O236 Co204 1.920 . S
O236 C209 1.289 . S
C237 O229 1.258 . S
C237 O230 1.266 . S
Co238 O241 1.970 . S
Co238 N255 1.989 . S
Co238 O263 1.967 . S
Co238 O270 1.920 . S
Co239 O242 1.966 . S
Co239 N248 2.022 . S
Co239 N256 1.993 . S
Co239 O264 1.941 . S
C240 O241 1.258 . S
C240 O242 1.263 . S
O241 Co238 1.970 . S
O241 C240 1.258 . S
O242 Co239 1.966 . S
O242 C240 1.263 . S
C243 O244 1.235 . S
C243 O270 1.289 . S
O244 C243 1.235 . S
C245 C247 1.400 . S
C245 N248 1.351 . S
C245 C250 1.501 . S
C246 C247 1.387 . S
C246 N249 1.341 . S
C247 C245 1.400 . S
C247 C246 1.387 . S
N248 Co239 2.022 . S
N248 C245 1.351 . S
N248 N249 1.365 . S
N249 C246 1.341 . S
N249 N248 1.365 . S
N249 H269 0.862 . S
C250 C245 1.501 . S
C250 H251 0.961 . S
C250 H252 0.961 . S
C250 H253 0.960 . S
H251 C250 0.961 . S
H252 C250 0.961 . S
H253 C250 0.960 . S
C254 N255 1.342 . S
C254 C258 1.401 . S
C254 C259 1.499 . S
N255 Co238 1.989 . S
N255 C254 1.342 . S
N255 N256 1.388 . S
N256 Co239 1.993 . S
N256 N255 1.388 . S
N256 C257 1.346 . S
C257 N256 1.346 . S
C257 C258 1.396 . S
C257 C267 1.510 . S
C258 C254 1.401 . S
C258 C257 1.396 . S
C259 C254 1.499 . S
C259 H260 0.959 . S
C259 H261 0.960 . S
C259 H262 0.961 . S
H260 C259 0.959 . S
H261 C259 0.960 . S
H262 C259 0.961 . S
O263 Co238 1.967 . S
O263 C271 1.258 . S
O264 Co239 1.941 . S
O264 C271 1.266 . S
H265 C267 0.959 . S
H266 C267 0.961 . S
C267 C257 1.510 . S
C267 H265 0.959 . S
C267 H266 0.961 . S
C267 H268 0.960 . S
H268 C267 0.960 . S
H269 N249 0.862 . S
O270 Co238 1.920 . S
O270 C243 1.289 . S
C271 O263 1.258 . S
C271 O264 1.266 . S
Co272 O275 1.970 . S
Co272 N289 1.989 . S
Co272 O297 1.967 . S
Co272 O304 1.920 . S
Co273 O276 1.966 . S
Co273 N282 2.022 . S
Co273 N290 1.993 . S
Co273 O298 1.941 . S
C274 O275 1.258 . S
C274 O276 1.263 . S
O275 Co272 1.970 . S
O275 C274 1.258 . S
O276 Co273 1.966 . S
O276 C274 1.263 . S
C277 O278 1.235 . S
C277 O304 1.289 . S
O278 C277 1.235 . S
C279 C281 1.400 . S
C279 N282 1.351 . S
C279 C284 1.501 . S
C280 C281 1.387 . S
C280 N283 1.341 . S
C281 C279 1.400 . S
C281 C280 1.387 . S
N282 Co273 2.022 . S
N282 C279 1.351 . S
N282 N283 1.365 . S
N283 C280 1.341 . S
N283 N282 1.365 . S
N283 H303 0.862 . S
C284 C279 1.501 . S
C284 H285 0.961 . S
C284 H286 0.961 . S
C284 H287 0.960 . S
H285 C284 0.961 . S
H286 C284 0.961 . S
H287 C284 0.960 . S
C288 N289 1.342 . S
C288 C292 1.401 . S
C288 C293 1.499 . S
N289 Co272 1.989 . S
N289 C288 1.342 . S
N289 N290 1.388 . S
N290 Co273 1.993 . S
N290 N289 1.388 . S
N290 C291 1.346 . S
C291 N290 1.346 . S
C291 C292 1.396 . S
C291 C301 1.510 . S
C292 C288 1.401 . S
C292 C291 1.396 . S
C293 C288 1.499 . S
C293 H294 0.959 . S
C293 H295 0.960 . S
C293 H296 0.961 . S
H294 C293 0.959 . S
H295 C293 0.960 . S
H296 C293 0.961 . S
O297 Co272 1.967 . S
O297 C305 1.258 . S
O298 Co273 1.941 . S
O298 C305 1.266 . S
H299 C301 0.959 . S
H300 C301 0.961 . S
C301 C291 1.510 . S
C301 H299 0.959 . S
C301 H300 0.961 . S
C301 H302 0.960 . S
H302 C301 0.960 . S
H303 N283 0.862 . S
O304 Co272 1.920 . S
O304 C277 1.289 . S
C305 O297 1.258 . S
C305 O298 1.266 . S
Co306 O309 1.970 . S
Co306 N323 1.989 . S
Co306 O331 1.967 . S
Co306 O338 1.920 . S
Co307 O310 1.966 . S
Co307 N316 2.022 . S
Co307 N324 1.993 . S
Co307 O332 1.941 . S
C308 O309 1.258 . S
C308 O310 1.263 . S
O309 Co306 1.970 . S
O309 C308 1.258 . S
O310 Co307 1.966 . S
O310 C308 1.263 . S
C311 O312 1.235 . S
C311 O338 1.289 . S
O312 C311 1.235 . S
C313 C315 1.400 . S
C313 N316 1.351 . S
C313 C318 1.501 . S
C314 C315 1.387 . S
C314 N317 1.341 . S
C315 C313 1.400 . S
C315 C314 1.387 . S
N316 Co307 2.022 . S
N316 C313 1.351 . S
N316 N317 1.365 . S
N317 C314 1.341 . S
N317 N316 1.365 . S
N317 H337 0.862 . S
C318 C313 1.501 . S
C318 H319 0.961 . S
C318 H320 0.961 . S
C318 H321 0.960 . S
H319 C318 0.961 . S
H320 C318 0.961 . S
H321 C318 0.960 . S
C322 N323 1.342 . S
C322 C326 1.401 . S
C322 C327 1.499 . S
N323 Co306 1.989 . S
N323 C322 1.342 . S
N323 N324 1.388 . S
N324 Co307 1.993 . S
N324 N323 1.388 . S
N324 C325 1.346 . S
C325 N324 1.346 . S
C325 C326 1.396 . S
C325 C335 1.510 . S
C326 C322 1.401 . S
C326 C325 1.396 . S
C327 C322 1.499 . S
C327 H328 0.959 . S
C327 H329 0.960 . S
C327 H330 0.961 . S
H328 C327 0.959 . S
H329 C327 0.960 . S
H330 C327 0.961 . S
O331 Co306 1.967 . S
O331 C339 1.258 . S
O332 Co307 1.941 . S
O332 C339 1.266 . S
H333 C335 0.959 . S
H334 C335 0.961 . S
C335 C325 1.510 . S
C335 H333 0.959 . S
C335 H334 0.961 . S
C335 H336 0.960 . S
H336 C335 0.960 . S
H337 N317 0.862 . S
O338 Co306 1.920 . S
O338 C311 1.289 . S
C339 O331 1.258 . S
C339 O332 1.266 . S
Co340 O343 1.970 . S
Co340 N357 1.989 . S
Co340 O365 1.967 . S
Co340 O372 1.920 . S
Co341 O344 1.966 1_455 S
Co341 N350 2.022 1_455 S
Co341 N358 1.993 . S
Co341 O366 1.941 . S
C342 O343 1.258 1_655 S
C342 O344 1.263 . S
O343 Co340 1.970 . S
O343 C342 1.258 1_455 S
O344 Co341 1.966 1_655 S
O344 C342 1.263 . S
C345 O346 1.235 . S
C345 O372 1.289 . S
O346 C345 1.235 . S
C347 C349 1.400 . S
C347 N350 1.351 . S
C347 C352 1.501 . S
C348 C349 1.387 . S
C348 N351 1.341 1_655 S
C349 C347 1.400 . S
C349 C348 1.387 . S
N350 Co341 2.022 1_655 S
N350 C347 1.351 . S
N350 N351 1.365 1_655 S
N351 C348 1.341 1_455 S
N351 N350 1.365 1_455 S
N351 H371 0.862 . S
C352 C347 1.501 . S
C352 H353 0.961 . S
C352 H354 0.961 . S
C352 H355 0.960 . S
H353 C352 0.961 . S
H354 C352 0.961 . S
H355 C352 0.960 . S
C356 N357 1.342 . S
C356 C360 1.401 . S
C356 C361 1.499 . S
N357 Co340 1.989 . S
N357 C356 1.342 . S
N357 N358 1.388 . S
N358 Co341 1.993 . S
N358 N357 1.388 . S
N358 C359 1.346 . S
C359 N358 1.346 . S
C359 C360 1.396 . S
C359 C369 1.510 . S
C360 C356 1.401 . S
C360 C359 1.396 . S
C361 C356 1.499 . S
C361 H362 0.959 . S
C361 H363 0.960 . S
C361 H364 0.961 . S
H362 C361 0.959 . S
H363 C361 0.960 . S
H364 C361 0.961 . S
O365 Co340 1.967 . S
O365 C373 1.258 . S
O366 Co341 1.941 . S
O366 C373 1.266 . S
H367 C369 0.959 . S
H368 C369 0.961 . S
C369 C359 1.510 . S
C369 H367 0.959 . S
C369 H368 0.961 . S
C369 H370 0.960 . S
H370 C369 0.960 . S
H371 N351 0.862 . S
O372 Co340 1.920 . S
O372 C345 1.289 . S
C373 O365 1.258 . S
C373 O366 1.266 . S
Co374 O377 1.970 . S
Co374 N391 1.989 . S
Co374 O399 1.967 . S
Co374 O406 1.920 . S
Co375 O378 1.966 1_545 S
Co375 N384 2.022 1_545 S
Co375 N392 1.993 . S
Co375 O400 1.941 . S
C376 O377 1.258 1_565 S
C376 O378 1.263 . S
O377 Co374 1.970 . S
O377 C376 1.258 1_545 S
O378 Co375 1.966 1_565 S
O378 C376 1.263 . S
C379 O380 1.235 . S
C379 O406 1.289 . S
O380 C379 1.235 . S
C381 C383 1.400 . S
C381 N384 1.351 . S
C381 C386 1.501 . S
C382 C383 1.387 . S
C382 N385 1.341 1_565 S
C383 C381 1.400 . S
C383 C382 1.387 . S
N384 Co375 2.022 1_565 S
N384 C381 1.351 . S
N384 N385 1.365 1_565 S
N385 C382 1.341 1_545 S
N385 N384 1.365 1_545 S
N385 H405 0.862 . S
C386 C381 1.501 . S
C386 H387 0.961 . S
C386 H388 0.961 . S
C386 H389 0.960 . S
H387 C386 0.961 . S
H388 C386 0.961 . S
H389 C386 0.960 . S
C390 N391 1.342 . S
C390 C394 1.401 . S
C390 C395 1.499 . S
N391 Co374 1.989 . S
N391 C390 1.342 . S
N391 N392 1.388 . S
N392 Co375 1.993 . S
N392 N391 1.388 . S
N392 C393 1.346 . S
C393 N392 1.346 . S
C393 C394 1.396 . S
C393 C403 1.510 . S
C394 C390 1.401 . S
C394 C393 1.396 . S
C395 C390 1.499 . S
C395 H396 0.959 . S
C395 H397 0.960 . S
C395 H398 0.961 . S
H396 C395 0.959 . S
H397 C395 0.960 . S
H398 C395 0.961 . S
O399 Co374 1.967 . S
O399 C407 1.258 . S
O400 Co375 1.941 . S
O400 C407 1.266 . S
H401 C403 0.959 . S
H402 C403 0.961 . S
C403 C393 1.510 . S
C403 H401 0.959 . S
C403 H402 0.961 . S
C403 H404 0.960 . S
H404 C403 0.960 . S
H405 N385 0.862 . S
O406 Co374 1.920 . S
O406 C379 1.289 . S
C407 O399 1.258 . S
C407 O400 1.266 . S
Co408 O411 1.970 . S
Co408 N425 1.989 . S
Co408 O433 1.967 . S
Co408 O440 1.920 . S
Co409 O412 1.966 1_655 S
Co409 N418 2.022 1_655 S
Co409 N426 1.993 . S
Co409 O434 1.941 . S
C410 O411 1.258 1_455 S
C410 O412 1.263 . S
O411 Co408 1.970 . S
O411 C410 1.258 1_655 S
O412 Co409 1.966 1_455 S
O412 C410 1.263 . S
C413 O414 1.235 . S
C413 O440 1.289 . S
O414 C413 1.235 . S
C415 C417 1.400 . S
C415 N418 1.351 . S
C415 C420 1.501 . S
C416 C417 1.387 . S
C416 N419 1.341 1_455 S
C417 C415 1.400 . S
C417 C416 1.387 . S
N418 Co409 2.022 1_455 S
N418 C415 1.351 . S
N418 N419 1.365 1_455 S
N419 C416 1.341 1_655 S
N419 N418 1.365 1_655 S
N419 H439 0.862 . S
C420 C415 1.501 . S
C420 H421 0.961 . S
C420 H422 0.961 . S
C420 H423 0.960 . S
H421 C420 0.961 . S
H422 C420 0.961 . S
H423 C420 0.960 . S
C424 N425 1.342 . S
C424 C428 1.401 . S
C424 C429 1.499 . S
N425 Co408 1.989 . S
N425 C424 1.342 . S
N425 N426 1.388 . S
N426 Co409 1.993 . S
N426 N425 1.388 . S
N426 C427 1.346 . S
C427 N426 1.346 . S
C427 C428 1.396 . S
C427 C437 1.510 . S
C428 C424 1.401 . S
C428 C427 1.396 . S
C429 C424 1.499 . S
C429 H430 0.959 . S
C429 H431 0.960 . S
C429 H432 0.961 . S
H430 C429 0.959 . S
H431 C429 0.960 . S
H432 C429 0.961 . S
O433 Co408 1.967 . S
O433 C441 1.258 . S
O434 Co409 1.941 . S
O434 C441 1.266 . S
H435 C437 0.959 . S
H436 C437 0.961 . S
C437 C427 1.510 . S
C437 H435 0.959 . S
C437 H436 0.961 . S
C437 H438 0.960 . S
H438 C437 0.960 . S
H439 N419 0.862 . S
O440 Co408 1.920 . S
O440 C413 1.289 . S
C441 O433 1.258 . S
C441 O434 1.266 . S
Co442 O445 1.970 . S
Co442 N459 1.989 . S
Co442 O467 1.967 . S
Co442 O474 1.920 . S
Co443 O446 1.966 1_565 S
Co443 N452 2.022 1_565 S
Co443 N460 1.993 . S
Co443 O468 1.941 . S
C444 O445 1.258 1_545 S
C444 O446 1.263 . S
O445 Co442 1.970 . S
O445 C444 1.258 1_565 S
O446 Co443 1.966 1_545 S
O446 C444 1.263 . S
C447 O448 1.235 . S
C447 O474 1.289 . S
O448 C447 1.235 . S
C449 C451 1.400 . S
C449 N452 1.351 . S
C449 C454 1.501 . S
C450 C451 1.387 . S
C450 N453 1.341 1_545 S
C451 C449 1.400 . S
C451 C450 1.387 . S
N452 Co443 2.022 1_545 S
N452 C449 1.351 . S
N452 N453 1.365 1_545 S
N453 C450 1.341 1_565 S
N453 N452 1.365 1_565 S
N453 H473 0.862 . S
C454 C449 1.501 . S
C454 H455 0.961 . S
C454 H456 0.961 . S
C454 H457 0.960 . S
H455 C454 0.961 . S
H456 C454 0.961 . S
H457 C454 0.960 . S
C458 N459 1.342 . S
C458 C462 1.401 . S
C458 C463 1.499 . S
N459 Co442 1.989 . S
N459 C458 1.342 . S
N459 N460 1.388 . S
N460 Co443 1.993 . S
N460 N459 1.388 . S
N460 C461 1.346 . S
C461 N460 1.346 . S
C461 C462 1.396 . S
C461 C471 1.510 . S
C462 C458 1.401 . S
C462 C461 1.396 . S
C463 C458 1.499 . S
C463 H464 0.959 . S
C463 H465 0.960 . S
C463 H466 0.961 . S
H464 C463 0.959 . S
H465 C463 0.960 . S
H466 C463 0.961 . S
O467 Co442 1.967 . S
O467 C475 1.258 . S
O468 Co443 1.941 . S
O468 C475 1.266 . S
H469 C471 0.959 . S
H470 C471 0.961 . S
C471 C461 1.510 . S
C471 H469 0.959 . S
C471 H470 0.961 . S
C471 H472 0.960 . S
H472 C471 0.960 . S
H473 N453 0.862 . S
O474 Co442 1.920 . S
O474 C447 1.289 . S
C475 O467 1.258 . S
C475 O468 1.266 . S
Co476 O479 1.970 . S
Co476 N493 1.989 . S
Co476 O501 1.967 . S
Co476 O508 1.920 . S
Co477 O480 1.966 . S
Co477 N486 2.022 . S
Co477 N494 1.993 . S
Co477 O502 1.941 . S
C478 O479 1.258 . S
C478 O480 1.263 . S
O479 Co476 1.970 . S
O479 C478 1.258 . S
O480 Co477 1.966 . S
O480 C478 1.263 . S
C481 O482 1.235 . S
C481 O508 1.289 . S
O482 C481 1.235 . S
C483 C485 1.400 . S
C483 N486 1.351 . S
C483 C488 1.501 . S
C484 C485 1.387 . S
C484 N487 1.341 . S
C485 C483 1.400 . S
C485 C484 1.387 . S
N486 Co477 2.022 . S
N486 C483 1.351 . S
N486 N487 1.365 . S
N487 C484 1.341 . S
N487 N486 1.365 . S
N487 H507 0.862 . S
C488 C483 1.501 . S
C488 H489 0.961 . S
C488 H490 0.961 . S
C488 H491 0.960 . S
H489 C488 0.961 . S
H490 C488 0.961 . S
H491 C488 0.960 . S
C492 N493 1.342 . S
C492 C496 1.401 . S
C492 C497 1.499 . S
N493 Co476 1.989 . S
N493 C492 1.342 . S
N493 N494 1.388 . S
N494 Co477 1.993 . S
N494 N493 1.388 . S
N494 C495 1.346 . S
C495 N494 1.346 . S
C495 C496 1.396 . S
C495 C505 1.510 . S
C496 C492 1.401 . S
C496 C495 1.396 . S
C497 C492 1.499 . S
C497 H498 0.959 . S
C497 H499 0.960 . S
C497 H500 0.961 . S
H498 C497 0.959 . S
H499 C497 0.960 . S
H500 C497 0.961 . S
O501 Co476 1.967 . S
O501 C509 1.258 . S
O502 Co477 1.941 . S
O502 C509 1.266 . S
H503 C505 0.959 . S
H504 C505 0.961 . S
C505 C495 1.510 . S
C505 H503 0.959 . S
C505 H504 0.961 . S
C505 H506 0.960 . S
H506 C505 0.960 . S
H507 N487 0.862 . S
O508 Co476 1.920 . S
O508 C481 1.289 . S
C509 O501 1.258 . S
C509 O502 1.266 . S
Co510 O513 1.970 . S
Co510 N527 1.989 . S
Co510 O535 1.967 . S
Co510 O542 1.920 . S
Co511 O514 1.966 . S
Co511 N520 2.022 . S
Co511 N528 1.993 . S
Co511 O536 1.941 . S
C512 O513 1.258 . S
C512 O514 1.263 . S
O513 Co510 1.970 . S
O513 C512 1.258 . S
O514 Co511 1.966 . S
O514 C512 1.263 . S
C515 O516 1.235 . S
C515 O542 1.289 . S
O516 C515 1.235 . S
C517 C519 1.400 . S
C517 N520 1.351 . S
C517 C522 1.501 . S
C518 C519 1.387 . S
C518 N521 1.341 . S
C519 C517 1.400 . S
C519 C518 1.387 . S
N520 Co511 2.022 . S
N520 C517 1.351 . S
N520 N521 1.365 . S
N521 C518 1.341 . S
N521 N520 1.365 . S
N521 H541 0.862 . S
C522 C517 1.501 . S
C522 H523 0.961 . S
C522 H524 0.961 . S
C522 H525 0.960 . S
H523 C522 0.961 . S
H524 C522 0.961 . S
H525 C522 0.960 . S
C526 N527 1.342 . S
C526 C530 1.401 . S
C526 C531 1.499 . S
N527 Co510 1.989 . S
N527 C526 1.342 . S
N527 N528 1.388 . S
N528 Co511 1.993 . S
N528 N527 1.388 . S
N528 C529 1.346 . S
C529 N528 1.346 . S
C529 C530 1.396 . S
C529 C539 1.510 . S
C530 C526 1.401 . S
C530 C529 1.396 . S
C531 C526 1.499 . S
C531 H532 0.959 . S
C531 H533 0.960 . S
C531 H534 0.961 . S
H532 C531 0.959 . S
H533 C531 0.960 . S
H534 C531 0.961 . S
O535 Co510 1.967 . S
O535 C543 1.258 . S
O536 Co511 1.941 . S
O536 C543 1.266 . S
H537 C539 0.959 . S
H538 C539 0.961 . S
C539 C529 1.510 . S
C539 H537 0.959 . S
C539 H538 0.961 . S
C539 H540 0.960 . S
H540 C539 0.960 . S
H541 N521 0.862 . S
O542 Co510 1.920 . S
O542 C515 1.289 . S
C543 O535 1.258 . S
C543 O536 1.266 . S
C544 C545 1.391 . S
C544 C546 1.394 . S
C544 H560 0.931 . S
C545 C544 1.391 . S
C545 C549 1.376 . S
C546 C544 1.394 . S
C546 C547 1.369 . S
C546 C550 1.531 . S
C547 C546 1.369 . S
C547 C548 1.410 . S
C547 C555 1.503 . S
C548 C547 1.410 . S
C548 C549 1.392 . S
C548 C551 1.511 . S
C549 C545 1.376 . S
C549 C548 1.392 . S
C549 H561 0.929 . S
C550 C546 1.531 . S
C550 H562 0.960 . S
C550 H563 0.962 . S
C550 H564 0.960 . S
C551 C548 1.511 . S
C551 H565 0.961 . S
C551 H566 0.961 . S
C551 H567 0.961 . S
C552 C553 1.370 . S
C552 C554 1.363 . S
C552 H568 0.931 . S
C553 C552 1.370 . S
C553 C557 1.408 . S
C554 C552 1.363 . S
C554 C555 1.370 . S
C554 C558 1.524 . S
C555 C547 1.503 . S
C555 C554 1.370 . S
C555 C556 1.403 . S
C556 C555 1.403 . S
C556 C557 1.404 . S
C556 C559 1.539 . S
C557 C553 1.408 . S
C557 C556 1.404 . S
C557 H569 0.930 . S
C558 C554 1.524 . S
C558 H570 0.956 . S
C558 H571 0.961 . S
C558 H572 0.961 . S
C559 C556 1.539 . S
C559 H573 0.958 . S
C559 H574 0.961 . S
C559 H575 0.960 . S
H560 C544 0.931 . S
H561 C549 0.929 . S
H562 C550 0.960 . S
H563 C550 0.962 . S
H564 C550 0.960 . S
H565 C551 0.961 . S
H566 C551 0.961 . S
H567 C551 0.961 . S
H568 C552 0.931 . S
H569 C557 0.930 . S
H570 C558 0.956 . S
H571 C558 0.961 . S
H572 C558 0.961 . S
H573 C559 0.958 . S
H574 C559 0.961 . S
H575 C559 0.960 . S
C576 C577 1.391 . S
C576 C578 1.394 . S
C576 H592 0.931 . S
C577 C576 1.391 . S
C577 C581 1.376 . S
C578 C576 1.394 . S
C578 C579 1.369 . S
C578 C582 1.531 . S
C579 C578 1.369 . S
C579 C580 1.410 . S
C579 C587 1.503 . S
C580 C579 1.410 . S
C580 C581 1.392 . S
C580 C583 1.511 . S
C581 C577 1.376 . S
C581 C580 1.392 . S
C581 H593 0.929 . S
C582 C578 1.531 . S
C582 H594 0.960 . S
C582 H595 0.962 . S
C582 H596 0.960 . S
C583 C580 1.511 . S
C583 H597 0.961 . S
C583 H598 0.961 . S
C583 H599 0.961 . S
C584 C585 1.370 . S
C584 C586 1.363 . S
C584 H600 0.931 . S
C585 C584 1.370 . S
C585 C589 1.408 . S
C586 C584 1.363 . S
C586 C587 1.370 . S
C586 C590 1.524 . S
C587 C579 1.503 . S
C587 C586 1.370 . S
C587 C588 1.403 . S
C588 C587 1.403 . S
C588 C589 1.404 . S
C588 C591 1.539 . S
C589 C585 1.408 . S
C589 C588 1.404 . S
C589 H601 0.930 . S
C590 C586 1.524 . S
C590 H602 0.956 . S
C590 H603 0.961 . S
C590 H604 0.961 . S
C591 C588 1.539 . S
C591 H605 0.958 . S
C591 H606 0.961 . S
C591 H607 0.960 . S
H592 C576 0.931 . S
H593 C581 0.929 . S
H594 C582 0.960 . S
H595 C582 0.962 . S
H596 C582 0.960 . S
H597 C583 0.961 . S
H598 C583 0.961 . S
H599 C583 0.961 . S
H600 C584 0.931 . S
H601 C589 0.930 . S
H602 C590 0.956 . S
H603 C590 0.961 . S
H604 C590 0.961 . S
H605 C591 0.958 . S
H606 C591 0.961 . S
H607 C591 0.960 . S
C608 C609 1.391 . S
C608 C610 1.394 . S
C608 H624 0.931 . S
C609 C608 1.391 . S
C609 C613 1.376 . S
C610 C608 1.394 . S
C610 C611 1.369 . S
C610 C614 1.531 . S
C611 C610 1.369 . S
C611 C612 1.410 . S
C611 C619 1.503 . S
C612 C611 1.410 . S
C612 C613 1.392 . S
C612 C615 1.511 . S
C613 C609 1.376 . S
C613 C612 1.392 . S
C613 H625 0.929 . S
C614 C610 1.531 . S
C614 H626 0.960 . S
C614 H627 0.962 . S
C614 H628 0.960 . S
C615 C612 1.511 . S
C615 H629 0.961 . S
C615 H630 0.961 . S
C615 H631 0.961 . S
C616 C617 1.370 . S
C616 C618 1.363 . S
C616 H632 0.931 . S
C617 C616 1.370 . S
C617 C621 1.408 . S
C618 C616 1.363 . S
C618 C619 1.370 . S
C618 C622 1.524 . S
C619 C611 1.503 . S
C619 C618 1.370 . S
C619 C620 1.403 . S
C620 C619 1.403 . S
C620 C621 1.404 . S
C620 C623 1.539 . S
C621 C617 1.408 . S
C621 C620 1.404 . S
C621 H633 0.930 . S
C622 C618 1.524 . S
C622 H634 0.956 . S
C622 H635 0.961 . S
C622 H636 0.961 . S
C623 C620 1.539 . S
C623 H637 0.958 . S
C623 H638 0.961 . S
C623 H639 0.960 . S
H624 C608 0.931 . S
H625 C613 0.929 . S
H626 C614 0.960 . S
H627 C614 0.962 . S
H628 C614 0.960 . S
H629 C615 0.961 . S
H630 C615 0.961 . S
H631 C615 0.961 . S
H632 C616 0.931 . S
H633 C621 0.930 . S
H634 C622 0.956 . S
H635 C622 0.961 . S
H636 C622 0.961 . S
H637 C623 0.958 . S
H638 C623 0.961 . S
H639 C623 0.960 . S
C640 C641 1.391 . S
C640 C642 1.394 . S
C640 H656 0.931 . S
C641 C640 1.391 . S
C641 C645 1.376 . S
C642 C640 1.394 . S
C642 C643 1.369 . S
C642 C646 1.531 . S
C643 C642 1.369 . S
C643 C644 1.410 . S
C643 C651 1.503 . S
C644 C643 1.410 . S
C644 C645 1.392 . S
C644 C647 1.511 . S
C645 C641 1.376 . S
C645 C644 1.392 . S
C645 H657 0.929 . S
C646 C642 1.531 . S
C646 H658 0.960 . S
C646 H659 0.962 . S
C646 H660 0.960 . S
C647 C644 1.511 . S
C647 H661 0.961 . S
C647 H662 0.961 . S
C647 H663 0.961 . S
C648 C649 1.370 . S
C648 C650 1.363 . S
C648 H664 0.931 . S
C649 C648 1.370 . S
C649 C653 1.408 . S
C650 C648 1.363 . S
C650 C651 1.370 . S
C650 C654 1.524 . S
C651 C643 1.503 . S
C651 C650 1.370 . S
C651 C652 1.403 . S
C652 C651 1.403 . S
C652 C653 1.404 . S
C652 C655 1.539 . S
C653 C649 1.408 . S
C653 C652 1.404 . S
C653 H665 0.930 . S
C654 C650 1.524 . S
C654 H666 0.956 . S
C654 H667 0.961 . S
C654 H668 0.961 . S
C655 C652 1.539 . S
C655 H669 0.958 . S
C655 H670 0.961 . S
C655 H671 0.960 . S
H656 C640 0.931 . S
H657 C645 0.929 . S
H658 C646 0.960 . S
H659 C646 0.962 . S
H660 C646 0.960 . S
H661 C647 0.961 . S
H662 C647 0.961 . S
H663 C647 0.961 . S
H664 C648 0.931 . S
H665 C653 0.930 . S
H666 C654 0.956 . S
H667 C654 0.961 . S
H668 C654 0.961 . S
H669 C655 0.958 . S
H670 C655 0.961 . S
H671 C655 0.960 . S
C672 C673 1.391 . S
C672 C674 1.394 . S
C672 H688 0.931 . S
C673 C672 1.391 . S
C673 C677 1.376 . S
C674 C672 1.394 . S
C674 C675 1.369 . S
C674 C678 1.531 . S
C675 C674 1.369 . S
C675 C676 1.410 . S
C675 C683 1.503 . S
C676 C675 1.410 . S
C676 C677 1.392 . S
C676 C679 1.511 . S
C677 C673 1.376 . S
C677 C676 1.392 . S
C677 H689 0.929 . S
C678 C674 1.531 . S
C678 H690 0.960 . S
C678 H691 0.962 . S
C678 H692 0.960 . S
C679 C676 1.511 . S
C679 H693 0.961 . S
C679 H694 0.961 . S
C679 H695 0.961 . S
C680 C681 1.370 . S
C680 C682 1.363 . S
C680 H696 0.931 . S
C681 C680 1.370 . S
C681 C685 1.408 . S
C682 C680 1.363 . S
C682 C683 1.370 . S
C682 C686 1.524 . S
C683 C675 1.503 . S
C683 C682 1.370 . S
C683 C684 1.403 . S
C684 C683 1.403 . S
C684 C685 1.404 . S
C684 C687 1.539 . S
C685 C681 1.408 . S
C685 C684 1.404 . S
C685 H697 0.930 . S
C686 C682 1.524 . S
C686 H698 0.956 . S
C686 H699 0.961 . S
C686 H700 0.961 . S
C687 C684 1.539 . S
C687 H701 0.958 . S
C687 H702 0.961 . S
C687 H703 0.960 . S
H688 C672 0.931 . S
H689 C677 0.929 . S
H690 C678 0.960 . S
H691 C678 0.962 . S
H692 C678 0.960 . S
H693 C679 0.961 . S
H694 C679 0.961 . S
H695 C679 0.961 . S
H696 C680 0.931 . S
H697 C685 0.930 . S
H698 C686 0.956 . S
H699 C686 0.961 . S
H700 C686 0.961 . S
H701 C687 0.958 . S
H702 C687 0.961 . S
H703 C687 0.960 . S
C704 C705 1.391 . S
C704 C706 1.394 . S
C704 H720 0.931 . S
C705 C704 1.391 . S
C705 C709 1.376 . S
C706 C704 1.394 . S
C706 C707 1.369 . S
C706 C710 1.531 . S
C707 C706 1.369 . S
C707 C708 1.410 . S
C707 C715 1.503 . S
C708 C707 1.410 . S
C708 C709 1.392 . S
C708 C711 1.511 . S
C709 C705 1.376 . S
C709 C708 1.392 . S
C709 H721 0.929 . S
C710 C706 1.531 . S
C710 H722 0.960 . S
C710 H723 0.962 . S
C710 H724 0.960 . S
C711 C708 1.511 . S
C711 H725 0.961 . S
C711 H726 0.961 . S
C711 H727 0.961 . S
C712 C713 1.370 . S
C712 C714 1.363 . S
C712 H728 0.931 . S
C713 C712 1.370 . S
C713 C717 1.408 . S
C714 C712 1.363 . S
C714 C715 1.370 . S
C714 C718 1.524 . S
C715 C707 1.503 . S
C715 C714 1.370 . S
C715 C716 1.403 . S
C716 C715 1.403 . S
C716 C717 1.404 . S
C716 C719 1.539 . S
C717 C713 1.408 . S
C717 C716 1.404 . S
C717 H729 0.930 . S
C718 C714 1.524 . S
C718 H730 0.956 . S
C718 H731 0.961 . S
C718 H732 0.961 . S
C719 C716 1.539 . S
C719 H733 0.958 . S
C719 H734 0.961 . S
C719 H735 0.960 . S
H720 C704 0.931 . S
H721 C709 0.929 . S
H722 C710 0.960 . S
H723 C710 0.962 . S
H724 C710 0.960 . S
H725 C711 0.961 . S
H726 C711 0.961 . S
H727 C711 0.961 . S
H728 C712 0.931 . S
H729 C717 0.930 . S
H730 C718 0.956 . S
H731 C718 0.961 . S
H732 C718 0.961 . S
H733 C719 0.958 . S
H734 C719 0.961 . S
H735 C719 0.960 . S
C736 C737 1.391 . S
C736 C738 1.394 . S
C736 H752 0.931 . S
C737 C736 1.391 . S
C737 C741 1.376 . S
C738 C736 1.394 . S
C738 C739 1.369 . S
C738 C742 1.531 . S
C739 C738 1.369 . S
C739 C740 1.410 . S
C739 C747 1.503 . S
C740 C739 1.410 . S
C740 C741 1.392 . S
C740 C743 1.511 . S
C741 C737 1.376 . S
C741 C740 1.392 . S
C741 H753 0.929 . S
C742 C738 1.531 . S
C742 H754 0.960 . S
C742 H755 0.962 . S
C742 H756 0.960 . S
C743 C740 1.511 . S
C743 H757 0.961 . S
C743 H758 0.961 . S
C743 H759 0.961 . S
C744 C745 1.370 . S
C744 C746 1.363 . S
C744 H760 0.931 . S
C745 C744 1.370 . S
C745 C749 1.408 . S
C746 C744 1.363 . S
C746 C747 1.370 . S
C746 C750 1.524 . S
C747 C739 1.503 . S
C747 C746 1.370 . S
C747 C748 1.403 . S
C748 C747 1.403 . S
C748 C749 1.404 . S
C748 C751 1.539 . S
C749 C745 1.408 . S
C749 C748 1.404 . S
C749 H761 0.930 . S
C750 C746 1.524 . S
C750 H762 0.956 . S
C750 H763 0.961 . S
C750 H764 0.961 . S
C751 C748 1.539 . S
C751 H765 0.958 . S
C751 H766 0.961 . S
C751 H767 0.960 . S
H752 C736 0.931 . S
H753 C741 0.929 . S
H754 C742 0.960 . S
H755 C742 0.962 . S
H756 C742 0.960 . S
H757 C743 0.961 . S
H758 C743 0.961 . S
H759 C743 0.961 . S
H760 C744 0.931 . S
H761 C749 0.930 . S
H762 C750 0.956 . S
H763 C750 0.961 . S
H764 C750 0.961 . S
H765 C751 0.958 . S
H766 C751 0.961 . S
H767 C751 0.960 . S
C768 C769 1.391 . S
C768 C770 1.394 . S
C768 H784 0.931 . S
C769 C768 1.391 . S
C769 C773 1.376 . S
C770 C768 1.394 . S
C770 C771 1.369 . S
C770 C774 1.531 . S
C771 C770 1.369 . S
C771 C772 1.410 . S
C771 C779 1.503 . S
C772 C771 1.410 . S
C772 C773 1.392 . S
C772 C775 1.511 . S
C773 C769 1.376 . S
C773 C772 1.392 . S
C773 H785 0.929 . S
C774 C770 1.531 . S
C774 H786 0.960 . S
C774 H787 0.962 . S
C774 H788 0.960 . S
C775 C772 1.511 . S
C775 H789 0.961 . S
C775 H790 0.961 . S
C775 H791 0.961 . S
C776 C777 1.370 . S
C776 C778 1.363 . S
C776 H792 0.931 . S
C777 C776 1.370 . S
C777 C781 1.408 . S
C778 C776 1.363 . S
C778 C779 1.370 . S
C778 C782 1.524 . S
C779 C771 1.503 . S
C779 C778 1.370 . S
C779 C780 1.403 . S
C780 C779 1.403 . S
C780 C781 1.404 . S
C780 C783 1.539 . S
C781 C777 1.408 . S
C781 C780 1.404 . S
C781 H793 0.930 . S
C782 C778 1.524 . S
C782 H794 0.956 . S
C782 H795 0.961 . S
C782 H796 0.961 . S
C783 C780 1.539 . S
C783 H797 0.958 . S
C783 H798 0.961 . S
C783 H799 0.960 . S
H784 C768 0.931 . S
H785 C773 0.929 . S
H786 C774 0.960 . S
H787 C774 0.962 . S
H788 C774 0.960 . S
H789 C775 0.961 . S
H790 C775 0.961 . S
H791 C775 0.961 . S
H792 C776 0.931 . S
H793 C781 0.930 . S
H794 C782 0.956 . S
H795 C782 0.961 . S
H796 C782 0.961 . S
H797 C783 0.958 . S
H798 C783 0.961 . S
H799 C783 0.960 . S
C800 C801 1.391 . S
C800 C802 1.394 . S
C800 H816 0.931 . S
C801 C800 1.391 . S
C801 C805 1.376 . S
C802 C800 1.394 . S
C802 C803 1.369 . S
C802 C806 1.531 . S
C803 C802 1.369 . S
C803 C804 1.410 . S
C803 C811 1.503 . S
C804 C803 1.410 . S
C804 C805 1.392 . S
C804 C807 1.511 . S
C805 C801 1.376 . S
C805 C804 1.392 . S
C805 H817 0.929 . S
C806 C802 1.531 . S
C806 H818 0.960 . S
C806 H819 0.962 . S
C806 H820 0.960 . S
C807 C804 1.511 . S
C807 H821 0.961 . S
C807 H822 0.961 . S
C807 H823 0.961 . S
C808 C809 1.370 . S
C808 C810 1.363 . S
C808 H824 0.931 . S
C809 C808 1.370 . S
C809 C813 1.408 . S
C810 C808 1.363 . S
C810 C811 1.370 . S
C810 C814 1.524 . S
C811 C803 1.503 . S
C811 C810 1.370 . S
C811 C812 1.403 . S
C812 C811 1.403 . S
C812 C813 1.404 . S
C812 C815 1.539 . S
C813 C809 1.408 . S
C813 C812 1.404 . S
C813 H825 0.930 . S
C814 C810 1.524 . S
C814 H826 0.956 . S
C814 H827 0.961 . S
C814 H828 0.961 . S
C815 C812 1.539 . S
C815 H829 0.958 . S
C815 H830 0.961 . S
C815 H831 0.960 . S
H816 C800 0.931 . S
H817 C805 0.929 . S
H818 C806 0.960 . S
H819 C806 0.962 . S
H820 C806 0.960 . S
H821 C807 0.961 . S
H822 C807 0.961 . S
H823 C807 0.961 . S
H824 C808 0.931 . S
H825 C813 0.930 . S
H826 C814 0.956 . S
H827 C814 0.961 . S
H828 C814 0.961 . S
H829 C815 0.958 . S
H830 C815 0.961 . S
H831 C815 0.960 . S
C832 C833 1.391 . S
C832 C834 1.394 . S
C832 H848 0.931 . S
C833 C832 1.391 . S
C833 C837 1.376 . S
C834 C832 1.394 . S
C834 C835 1.369 . S
C834 C838 1.531 . S
C835 C834 1.369 . S
C835 C836 1.410 . S
C835 C843 1.503 . S
C836 C835 1.410 . S
C836 C837 1.392 . S
C836 C839 1.511 . S
C837 C833 1.376 . S
C837 C836 1.392 . S
C837 H849 0.929 . S
C838 C834 1.531 . S
C838 H850 0.960 . S
C838 H851 0.962 . S
C838 H852 0.960 . S
C839 C836 1.511 . S
C839 H853 0.961 . S
C839 H854 0.961 . S
C839 H855 0.961 . S
C840 C841 1.370 . S
C840 C842 1.363 . S
C840 H856 0.931 . S
C841 C840 1.370 . S
C841 C845 1.408 . S
C842 C840 1.363 . S
C842 C843 1.370 . S
C842 C846 1.524 . S
C843 C835 1.503 . S
C843 C842 1.370 . S
C843 C844 1.403 . S
C844 C843 1.403 . S
C844 C845 1.404 . S
C844 C847 1.539 . S
C845 C841 1.408 . S
C845 C844 1.404 . S
C845 H857 0.930 . S
C846 C842 1.524 . S
C846 H858 0.956 . S
C846 H859 0.961 . S
C846 H860 0.961 . S
C847 C844 1.539 . S
C847 H861 0.958 . S
C847 H862 0.961 . S
C847 H863 0.960 . S
H848 C832 0.931 . S
H849 C837 0.929 . S
H850 C838 0.960 . S
H851 C838 0.962 . S
H852 C838 0.960 . S
H853 C839 0.961 . S
H854 C839 0.961 . S
H855 C839 0.961 . S
H856 C840 0.931 . S
H857 C845 0.930 . S
H858 C846 0.956 . S
H859 C846 0.961 . S
H860 C846 0.961 . S
H861 C847 0.958 . S
H862 C847 0.961 . S
H863 C847 0.960 . S
C864 C865 1.391 . S
C864 C866 1.394 . S
C864 H880 0.931 . S
C865 C864 1.391 . S
C865 C869 1.376 . S
C866 C864 1.394 . S
C866 C867 1.369 . S
C866 C870 1.531 . S
C867 C866 1.369 . S
C867 C868 1.410 . S
C867 C875 1.503 . S
C868 C867 1.410 . S
C868 C869 1.392 . S
C868 C871 1.511 . S
C869 C865 1.376 . S
C869 C868 1.392 . S
C869 H881 0.929 . S
C870 C866 1.531 . S
C870 H882 0.960 . S
C870 H883 0.962 . S
C870 H884 0.960 . S
C871 C868 1.511 . S
C871 H885 0.961 . S
C871 H886 0.961 . S
C871 H887 0.961 . S
C872 C873 1.370 . S
C872 C874 1.363 . S
C872 H888 0.931 . S
C873 C872 1.370 . S
C873 C877 1.408 . S
C874 C872 1.363 . S
C874 C875 1.370 . S
C874 C878 1.524 . S
C875 C867 1.503 . S
C875 C874 1.370 . S
C875 C876 1.403 . S
C876 C875 1.403 . S
C876 C877 1.404 . S
C876 C879 1.539 . S
C877 C873 1.408 . S
C877 C876 1.404 . S
C877 H889 0.930 . S
C878 C874 1.524 . S
C878 H890 0.956 . S
C878 H891 0.961 . S
C878 H892 0.961 . S
C879 C876 1.539 . S
C879 H893 0.958 . S
C879 H894 0.961 . S
C879 H895 0.960 . S
H880 C864 0.931 . S
H881 C869 0.929 . S
H882 C870 0.960 . S
H883 C870 0.962 . S
H884 C870 0.960 . S
H885 C871 0.961 . S
H886 C871 0.961 . S
H887 C871 0.961 . S
H888 C872 0.931 . S
H889 C877 0.930 . S
H890 C878 0.956 . S
H891 C878 0.961 . S
H892 C878 0.961 . S
H893 C879 0.958 . S
H894 C879 0.961 . S
H895 C879 0.960 . S
C896 C897 1.391 . S
C896 C898 1.394 . S
C896 H912 0.931 . S
C897 C896 1.391 . S
C897 C901 1.376 . S
C898 C896 1.394 . S
C898 C899 1.369 . S
C898 C902 1.531 . S
C899 C898 1.369 . S
C899 C900 1.410 . S
C899 C907 1.503 . S
C900 C899 1.410 . S
C900 C901 1.392 . S
C900 C903 1.511 . S
C901 C897 1.376 . S
C901 C900 1.392 . S
C901 H913 0.929 . S
C902 C898 1.531 . S
C902 H914 0.960 . S
C902 H915 0.962 . S
C902 H916 0.960 . S
C903 C900 1.511 . S
C903 H917 0.961 . S
C903 H918 0.961 . S
C903 H919 0.961 . S
C904 C905 1.370 . S
C904 C906 1.363 . S
C904 H920 0.931 . S
C905 C904 1.370 . S
C905 C909 1.408 . S
C906 C904 1.363 . S
C906 C907 1.370 . S
C906 C910 1.524 . S
C907 C899 1.503 . S
C907 C906 1.370 . S
C907 C908 1.403 . S
C908 C907 1.403 . S
C908 C909 1.404 . S
C908 C911 1.539 . S
C909 C905 1.408 . S
C909 C908 1.404 . S
C909 H921 0.930 . S
C910 C906 1.524 . S
C910 H922 0.956 . S
C910 H923 0.961 . S
C910 H924 0.961 . S
C911 C908 1.539 . S
C911 H925 0.958 . S
C911 H926 0.961 . S
C911 H927 0.960 . S
H912 C896 0.931 . S
H913 C901 0.929 . S
H914 C902 0.960 . S
H915 C902 0.962 . S
H916 C902 0.960 . S
H917 C903 0.961 . S
H918 C903 0.961 . S
H919 C903 0.961 . S
H920 C904 0.931 . S
H921 C909 0.930 . S
H922 C910 0.956 . S
H923 C910 0.961 . S
H924 C910 0.961 . S
H925 C911 0.958 . S
H926 C911 0.961 . S
H927 C911 0.960 . S
C928 C929 1.391 . S
C928 C930 1.394 . S
C928 H944 0.931 . S
C929 C928 1.391 . S
C929 C933 1.376 . S
C930 C928 1.394 . S
C930 C931 1.369 . S
C930 C934 1.531 . S
C931 C930 1.369 . S
C931 C932 1.410 . S
C931 C939 1.503 . S
C932 C931 1.410 . S
C932 C933 1.392 . S
C932 C935 1.511 . S
C933 C929 1.376 . S
C933 C932 1.392 . S
C933 H945 0.929 . S
C934 C930 1.531 . S
C934 H946 0.960 . S
C934 H947 0.962 . S
C934 H948 0.960 . S
C935 C932 1.511 . S
C935 H949 0.961 . S
C935 H950 0.961 . S
C935 H951 0.961 . S
C936 C937 1.370 . S
C936 C938 1.363 . S
C936 H952 0.931 . S
C937 C936 1.370 . S
C937 C941 1.408 . S
C938 C936 1.363 . S
C938 C939 1.370 . S
C938 C942 1.524 . S
C939 C931 1.503 . S
C939 C938 1.370 . S
C939 C940 1.403 . S
C940 C939 1.403 . S
C940 C941 1.404 . S
C940 C943 1.539 . S
C941 C937 1.408 . S
C941 C940 1.404 . S
C941 H953 0.930 . S
C942 C938 1.524 . S
C942 H954 0.956 . S
C942 H955 0.961 . S
C942 H956 0.961 . S
C943 C940 1.539 . S
C943 H957 0.958 . S
C943 H958 0.961 . S
C943 H959 0.960 . S
H944 C928 0.931 . S
H945 C933 0.929 . S
H946 C934 0.960 . S
H947 C934 0.962 . S
H948 C934 0.960 . S
H949 C935 0.961 . S
H950 C935 0.961 . S
H951 C935 0.961 . S
H952 C936 0.931 . S
H953 C941 0.930 . S
H954 C942 0.956 . S
H955 C942 0.961 . S
H956 C942 0.961 . S
H957 C943 0.958 . S
H958 C943 0.961 . S
H959 C943 0.960 . S
C960 C961 1.391 . S
C960 C962 1.394 . S
C960 H976 0.931 . S
C961 C960 1.391 . S
C961 C965 1.376 . S
C962 C960 1.394 . S
C962 C963 1.369 . S
C962 C966 1.531 . S
C963 C962 1.369 . S
C963 C964 1.410 . S
C963 C971 1.503 . S
C964 C963 1.410 . S
C964 C965 1.392 . S
C964 C967 1.511 . S
C965 C961 1.376 . S
C965 C964 1.392 . S
C965 H977 0.929 . S
C966 C962 1.531 . S
C966 H978 0.960 . S
C966 H979 0.962 . S
C966 H980 0.960 . S
C967 C964 1.511 . S
C967 H981 0.961 . S
C967 H982 0.961 . S
C967 H983 0.961 . S
C968 C969 1.370 . S
C968 C970 1.363 . S
C968 H984 0.931 . S
C969 C968 1.370 . S
C969 C973 1.408 . S
C970 C968 1.363 . S
C970 C971 1.370 . S
C970 C974 1.524 . S
C971 C963 1.503 . S
C971 C970 1.370 . S
C971 C972 1.403 . S
C972 C971 1.403 . S
C972 C973 1.404 . S
C972 C975 1.539 . S
C973 C969 1.408 . S
C973 C972 1.404 . S
C973 H985 0.930 . S
C974 C970 1.524 . S
C974 H986 0.956 . S
C974 H987 0.961 . S
C974 H988 0.961 . S
C975 C972 1.539 . S
C975 H989 0.958 . S
C975 H990 0.961 . S
C975 H991 0.960 . S
H976 C960 0.931 . S
H977 C965 0.929 . S
H978 C966 0.960 . S
H979 C966 0.962 . S
H980 C966 0.960 . S
H981 C967 0.961 . S
H982 C967 0.961 . S
H983 C967 0.961 . S
H984 C968 0.931 . S
H985 C973 0.930 . S
H986 C974 0.956 . S
H987 C974 0.961 . S
H988 C974 0.961 . S
H989 C975 0.958 . S
H990 C975 0.961 . S
H991 C975 0.960 . S
C992 C993 1.391 . S
C992 C994 1.394 . S
C992 H1008 0.931 . S
C993 C992 1.391 . S
C993 C997 1.376 . S
C994 C992 1.394 . S
C994 C995 1.369 . S
C994 C998 1.531 . S
C995 C994 1.369 . S
C995 C996 1.410 . S
C995 C1003 1.503 . S
C996 C995 1.410 . S
C996 C997 1.392 . S
C996 C999 1.511 . S
C997 C993 1.376 . S
C997 C996 1.392 . S
C997 H1009 0.929 . S
C998 C994 1.531 . S
C998 H1010 0.960 . S
C998 H1011 0.962 . S
C998 H1012 0.960 . S
C999 C996 1.511 . S
C999 H1013 0.961 . S
C999 H1014 0.961 . S
C999 H1015 0.961 . S
C1000 C1001 1.370 . S
C1000 C1002 1.363 . S
C1000 H1016 0.931 . S
C1001 C1000 1.370 . S
C1001 C1005 1.408 . S
C1002 C1000 1.363 . S
C1002 C1003 1.370 . S
C1002 C1006 1.524 . S
C1003 C995 1.503 . S
C1003 C1002 1.370 . S
C1003 C1004 1.403 . S
C1004 C1003 1.403 . S
C1004 C1005 1.404 . S
C1004 C1007 1.539 . S
C1005 C1001 1.408 . S
C1005 C1004 1.404 . S
C1005 H1017 0.930 . S
C1006 C1002 1.524 . S
C1006 H1018 0.956 . S
C1006 H1019 0.961 . S
C1006 H1020 0.961 . S
C1007 C1004 1.539 . S
C1007 H1021 0.958 . S
C1007 H1022 0.961 . S
C1007 H1023 0.960 . S
H1008 C992 0.931 . S
H1009 C997 0.929 . S
H1010 C998 0.960 . S
H1011 C998 0.962 . S
H1012 C998 0.960 . S
H1013 C999 0.961 . S
H1014 C999 0.961 . S
H1015 C999 0.961 . S
H1016 C1000 0.931 . S
H1017 C1005 0.930 . S
H1018 C1006 0.956 . S
H1019 C1006 0.961 . S
H1020 C1006 0.961 . S
H1021 C1007 0.958 . S
H1022 C1007 0.961 . S
H1023 C1007 0.960 . S
C1024 C1025 1.391 . S
C1024 C1026 1.394 . S
C1024 H1040 0.931 . S
C1025 C1024 1.391 . S
C1025 C1029 1.376 . S
C1026 C1024 1.394 . S
C1026 C1027 1.369 . S
C1026 C1030 1.531 . S
C1027 C1026 1.369 . S
C1027 C1028 1.410 . S
C1027 C1035 1.503 . S
C1028 C1027 1.410 . S
C1028 C1029 1.392 . S
C1028 C1031 1.511 . S
C1029 C1025 1.376 . S
C1029 C1028 1.392 . S
C1029 H1041 0.929 . S
C1030 C1026 1.531 . S
C1030 H1042 0.960 . S
C1030 H1043 0.962 . S
C1030 H1044 0.960 . S
C1031 C1028 1.511 . S
C1031 H1045 0.961 . S
C1031 H1046 0.961 . S
C1031 H1047 0.961 . S
C1032 C1033 1.370 . S
C1032 C1034 1.363 . S
C1032 H1048 0.931 . S
C1033 C1032 1.370 . S
C1033 C1037 1.408 . S
C1034 C1032 1.363 . S
C1034 C1035 1.370 . S
C1034 C1038 1.524 . S
C1035 C1027 1.503 . S
C1035 C1034 1.370 . S
C1035 C1036 1.403 . S
C1036 C1035 1.403 . S
C1036 C1037 1.404 . S
C1036 C1039 1.539 . S
C1037 C1033 1.408 . S
C1037 C1036 1.404 . S
C1037 H1049 0.930 . S
C1038 C1034 1.524 . S
C1038 H1050 0.956 . S
C1038 H1051 0.961 . S
C1038 H1052 0.961 . S
C1039 C1036 1.539 . S
C1039 H1053 0.958 . S
C1039 H1054 0.961 . S
C1039 H1055 0.960 . S
H1040 C1024 0.931 . S
H1041 C1029 0.929 . S
H1042 C1030 0.960 . S
H1043 C1030 0.962 . S
H1044 C1030 0.960 . S
H1045 C1031 0.961 . S
H1046 C1031 0.961 . S
H1047 C1031 0.961 . S
H1048 C1032 0.931 . S
H1049 C1037 0.930 . S
H1050 C1038 0.956 . S
H1051 C1038 0.961 . S
H1052 C1038 0.961 . S
H1053 C1039 0.958 . S
H1054 C1039 0.961 . S
H1055 C1039 0.960 . S
C1056 C1057 1.391 . S
C1056 C1058 1.394 . S
C1056 H1072 0.931 . S
C1057 C1056 1.391 . S
C1057 C1061 1.376 . S
C1058 C1056 1.394 . S
C1058 C1059 1.369 . S
C1058 C1062 1.531 . S
C1059 C1058 1.369 . S
C1059 C1060 1.410 . S
C1059 C1067 1.503 . S
C1060 C1059 1.410 . S
C1060 C1061 1.392 . S
C1060 C1063 1.511 . S
C1061 C1057 1.376 . S
C1061 C1060 1.392 . S
C1061 H1073 0.929 . S
C1062 C1058 1.531 . S
C1062 H1074 0.960 . S
C1062 H1075 0.962 . S
C1062 H1076 0.960 . S
C1063 C1060 1.511 . S
C1063 H1077 0.961 . S
C1063 H1078 0.961 . S
C1063 H1079 0.961 . S
C1064 C1065 1.370 . S
C1064 C1066 1.363 . S
C1064 H1080 0.931 . S
C1065 C1064 1.370 . S
C1065 C1069 1.408 . S
C1066 C1064 1.363 . S
C1066 C1067 1.370 . S
C1066 C1070 1.524 . S
C1067 C1059 1.503 . S
C1067 C1066 1.370 . S
C1067 C1068 1.403 . S
C1068 C1067 1.403 . S
C1068 C1069 1.404 . S
C1068 C1071 1.539 . S
C1069 C1065 1.408 . S
C1069 C1068 1.404 . S
C1069 H1081 0.930 . S
C1070 C1066 1.524 . S
C1070 H1082 0.956 . S
C1070 H1083 0.961 . S
C1070 H1084 0.961 . S
C1071 C1068 1.539 . S
C1071 H1085 0.958 . S
C1071 H1086 0.961 . S
C1071 H1087 0.960 . S
H1072 C1056 0.931 . S
H1073 C1061 0.929 . S
H1074 C1062 0.960 . S
H1075 C1062 0.962 . S
H1076 C1062 0.960 . S
H1077 C1063 0.961 . S
H1078 C1063 0.961 . S
H1079 C1063 0.961 . S
H1080 C1064 0.931 . S
H1081 C1069 0.930 . S
H1082 C1070 0.956 . S
H1083 C1070 0.961 . S
H1084 C1070 0.961 . S
H1085 C1071 0.958 . S
H1086 C1071 0.961 . S
H1087 C1071 0.960 . S
C1088 C1089 1.391 . S
C1088 C1090 1.394 . S
C1088 H1104 0.931 . S
C1089 C1088 1.391 . S
C1089 C1093 1.376 . S
C1090 C1088 1.394 . S
C1090 C1091 1.369 . S
C1090 C1094 1.531 . S
C1091 C1090 1.369 . S
C1091 C1092 1.410 . S
C1091 C1099 1.503 . S
C1092 C1091 1.410 . S
C1092 C1093 1.392 . S
C1092 C1095 1.511 . S
C1093 C1089 1.376 . S
C1093 C1092 1.392 . S
C1093 H1105 0.929 . S
C1094 C1090 1.531 . S
C1094 H1106 0.960 . S
C1094 H1107 0.962 . S
C1094 H1108 0.960 . S
C1095 C1092 1.511 . S
C1095 H1109 0.961 . S
C1095 H1110 0.961 . S
C1095 H1111 0.961 . S
C1096 C1097 1.370 . S
C1096 C1098 1.363 . S
C1096 H1112 0.931 . S
C1097 C1096 1.370 . S
C1097 C1101 1.408 . S
C1098 C1096 1.363 . S
C1098 C1099 1.370 . S
C1098 C1102 1.524 . S
C1099 C1091 1.503 . S
C1099 C1098 1.370 . S
C1099 C1100 1.403 . S
C1100 C1099 1.403 . S
C1100 C1101 1.404 . S
C1100 C1103 1.539 . S
C1101 C1097 1.408 . S
C1101 C1100 1.404 . S
C1101 H1113 0.930 . S
C1102 C1098 1.524 . S
C1102 H1114 0.956 . S
C1102 H1115 0.961 . S
C1102 H1116 0.961 . S
C1103 C1100 1.539 . S
C1103 H1117 0.958 . S
C1103 H1118 0.961 . S
C1103 H1119 0.960 . S
H1104 C1088 0.931 . S
H1105 C1093 0.929 . S
H1106 C1094 0.960 . S
H1107 C1094 0.962 . S
H1108 C1094 0.960 . S
H1109 C1095 0.961 . S
H1110 C1095 0.961 . S
H1111 C1095 0.961 . S
H1112 C1096 0.931 . S
H1113 C1101 0.930 . S
H1114 C1102 0.956 . S
H1115 C1102 0.961 . S
H1116 C1102 0.961 . S
H1117 C1103 0.958 . S
H1118 C1103 0.961 . S
H1119 C1103 0.960 . S
C1120 C1121 1.391 . S
C1120 C1122 1.394 . S
C1120 H1136 0.931 . S
C1121 C1120 1.391 . S
C1121 C1125 1.376 . S
C1122 C1120 1.394 . S
C1122 C1123 1.369 . S
C1122 C1126 1.531 . S
C1123 C1122 1.369 . S
C1123 C1124 1.410 . S
C1123 C1131 1.503 . S
C1124 C1123 1.410 . S
C1124 C1125 1.392 . S
C1124 C1127 1.511 . S
C1125 C1121 1.376 . S
C1125 C1124 1.392 . S
C1125 H1137 0.929 . S
C1126 C1122 1.531 . S
C1126 H1138 0.960 . S
C1126 H1139 0.962 . S
C1126 H1140 0.960 . S
C1127 C1124 1.511 . S
C1127 H1141 0.961 . S
C1127 H1142 0.961 . S
C1127 H1143 0.961 . S
C1128 C1129 1.370 . S
C1128 C1130 1.363 . S
C1128 H1144 0.931 . S
C1129 C1128 1.370 . S
C1129 C1133 1.408 . S
C1130 C1128 1.363 . S
C1130 C1131 1.370 . S
C1130 C1134 1.524 . S
C1131 C1123 1.503 . S
C1131 C1130 1.370 . S
C1131 C1132 1.403 . S
C1132 C1131 1.403 . S
C1132 C1133 1.404 . S
C1132 C1135 1.539 . S
C1133 C1129 1.408 . S
C1133 C1132 1.404 . S
C1133 H1145 0.930 . S
C1134 C1130 1.524 . S
C1134 H1146 0.956 . S
C1134 H1147 0.961 . S
C1134 H1148 0.961 . S
C1135 C1132 1.539 . S
C1135 H1149 0.958 . S
C1135 H1150 0.961 . S
C1135 H1151 0.960 . S
H1136 C1120 0.931 . S
H1137 C1125 0.929 . S
H1138 C1126 0.960 . S
H1139 C1126 0.962 . S
H1140 C1126 0.960 . S
H1141 C1127 0.961 . S
H1142 C1127 0.961 . S
H1143 C1127 0.961 . S
H1144 C1128 0.931 . S
H1145 C1133 0.930 . S
H1146 C1134 0.956 . S
H1147 C1134 0.961 . S
H1148 C1134 0.961 . S
H1149 C1135 0.958 . S
H1150 C1135 0.961 . S
H1151 C1135 0.960 . S
C1152 C1153 1.391 . S
C1152 C1154 1.394 . S
C1152 H1168 0.931 . S
C1153 C1152 1.391 . S
C1153 C1157 1.376 . S
C1154 C1152 1.394 . S
C1154 C1155 1.369 . S
C1154 C1158 1.531 . S
C1155 C1154 1.369 . S
C1155 C1156 1.410 . S
C1155 C1163 1.503 . S
C1156 C1155 1.410 . S
C1156 C1157 1.392 . S
C1156 C1159 1.511 . S
C1157 C1153 1.376 . S
C1157 C1156 1.392 . S
C1157 H1169 0.929 . S
C1158 C1154 1.531 . S
C1158 H1170 0.960 . S
C1158 H1171 0.962 . S
C1158 H1172 0.960 . S
C1159 C1156 1.511 . S
C1159 H1173 0.961 . S
C1159 H1174 0.961 . S
C1159 H1175 0.961 . S
C1160 C1161 1.370 . S
C1160 C1162 1.363 . S
C1160 H1176 0.931 . S
C1161 C1160 1.370 . S
C1161 C1165 1.408 . S
C1162 C1160 1.363 . S
C1162 C1163 1.370 . S
C1162 C1166 1.524 . S
C1163 C1155 1.503 . S
C1163 C1162 1.370 . S
C1163 C1164 1.403 . S
C1164 C1163 1.403 . S
C1164 C1165 1.404 . S
C1164 C1167 1.539 . S
C1165 C1161 1.408 . S
C1165 C1164 1.404 . S
C1165 H1177 0.930 . S
C1166 C1162 1.524 . S
C1166 H1178 0.956 . S
C1166 H1179 0.961 . S
C1166 H1180 0.961 . S
C1167 C1164 1.539 . S
C1167 H1181 0.958 . S
C1167 H1182 0.961 . S
C1167 H1183 0.960 . S
H1168 C1152 0.931 . S
H1169 C1157 0.929 . S
H1170 C1158 0.960 . S
H1171 C1158 0.962 . S
H1172 C1158 0.960 . S
H1173 C1159 0.961 . S
H1174 C1159 0.961 . S
H1175 C1159 0.961 . S
H1176 C1160 0.931 . S
H1177 C1165 0.930 . S
H1178 C1166 0.956 . S
H1179 C1166 0.961 . S
H1180 C1166 0.961 . S
H1181 C1167 0.958 . S
H1182 C1167 0.961 . S
H1183 C1167 0.960 . S
C1184 C1185 1.391 . S
C1184 C1186 1.394 . S
C1184 H1200 0.931 . S
C1185 C1184 1.391 . S
C1185 C1189 1.376 . S
C1186 C1184 1.394 . S
C1186 C1187 1.369 . S
C1186 C1190 1.531 . S
C1187 C1186 1.369 . S
C1187 C1188 1.410 . S
C1187 C1195 1.503 . S
C1188 C1187 1.410 . S
C1188 C1189 1.392 . S
C1188 C1191 1.511 . S
C1189 C1185 1.376 . S
C1189 C1188 1.392 . S
C1189 H1201 0.929 . S
C1190 C1186 1.531 . S
C1190 H1202 0.960 . S
C1190 H1203 0.962 . S
C1190 H1204 0.960 . S
C1191 C1188 1.511 . S
C1191 H1205 0.961 . S
C1191 H1206 0.961 . S
C1191 H1207 0.961 . S
C1192 C1193 1.370 . S
C1192 C1194 1.363 . S
C1192 H1208 0.931 . S
C1193 C1192 1.370 . S
C1193 C1197 1.408 . S
C1194 C1192 1.363 . S
C1194 C1195 1.370 . S
C1194 C1198 1.524 . S
C1195 C1187 1.503 . S
C1195 C1194 1.370 . S
C1195 C1196 1.403 . S
C1196 C1195 1.403 . S
C1196 C1197 1.404 . S
C1196 C1199 1.539 . S
C1197 C1193 1.408 . S
C1197 C1196 1.404 . S
C1197 H1209 0.930 . S
C1198 C1194 1.524 . S
C1198 H1210 0.956 . S
C1198 H1211 0.961 . S
C1198 H1212 0.961 . S
C1199 C1196 1.539 . S
C1199 H1213 0.958 . S
C1199 H1214 0.961 . S
C1199 H1215 0.960 . S
H1200 C1184 0.931 . S
H1201 C1189 0.929 . S
H1202 C1190 0.960 . S
H1203 C1190 0.962 . S
H1204 C1190 0.960 . S
H1205 C1191 0.961 . S
H1206 C1191 0.961 . S
H1207 C1191 0.961 . S
H1208 C1192 0.931 . S
H1209 C1197 0.930 . S
H1210 C1198 0.956 . S
H1211 C1198 0.961 . S
H1212 C1198 0.961 . S
H1213 C1199 0.958 . S
H1214 C1199 0.961 . S
H1215 C1199 0.960 . S
C1216 C1217 1.391 . S
C1216 C1218 1.394 . S
C1216 H1232 0.931 . S
C1217 C1216 1.391 . S
C1217 C1221 1.376 . S
C1218 C1216 1.394 . S
C1218 C1219 1.369 . S
C1218 C1222 1.531 . S
C1219 C1218 1.369 . S
C1219 C1220 1.410 . S
C1219 C1227 1.503 . S
C1220 C1219 1.410 . S
C1220 C1221 1.392 . S
C1220 C1223 1.511 . S
C1221 C1217 1.376 . S
C1221 C1220 1.392 . S
C1221 H1233 0.929 . S
C1222 C1218 1.531 . S
C1222 H1234 0.960 . S
C1222 H1235 0.962 . S
C1222 H1236 0.960 . S
C1223 C1220 1.511 . S
C1223 H1237 0.961 . S
C1223 H1238 0.961 . S
C1223 H1239 0.961 . S
C1224 C1225 1.370 . S
C1224 C1226 1.363 . S
C1224 H1240 0.931 . S
C1225 C1224 1.370 . S
C1225 C1229 1.408 . S
C1226 C1224 1.363 . S
C1226 C1227 1.370 . S
C1226 C1230 1.524 . S
C1227 C1219 1.503 . S
C1227 C1226 1.370 . S
C1227 C1228 1.403 . S
C1228 C1227 1.403 . S
C1228 C1229 1.404 . S
C1228 C1231 1.539 . S
C1229 C1225 1.408 . S
C1229 C1228 1.404 . S
C1229 H1241 0.930 . S
C1230 C1226 1.524 . S
C1230 H1242 0.956 . S
C1230 H1243 0.961 . S
C1230 H1244 0.961 . S
C1231 C1228 1.539 . S
C1231 H1245 0.958 . S
C1231 H1246 0.961 . S
C1231 H1247 0.960 . S
H1232 C1216 0.931 . S
H1233 C1221 0.929 . S
H1234 C1222 0.960 . S
H1235 C1222 0.962 . S
H1236 C1222 0.960 . S
H1237 C1223 0.961 . S
H1238 C1223 0.961 . S
H1239 C1223 0.961 . S
H1240 C1224 0.931 . S
H1241 C1229 0.930 . S
H1242 C1230 0.956 . S
H1243 C1230 0.961 . S
H1244 C1230 0.961 . S
H1245 C1231 0.958 . S
H1246 C1231 0.961 . S
H1247 C1231 0.960 . S
C1248 C1249 1.391 . S
C1248 C1250 1.394 . S
C1248 H1264 0.931 . S
C1249 C1248 1.391 . S
C1249 C1253 1.376 . S
C1250 C1248 1.394 . S
C1250 C1251 1.369 . S
C1250 C1254 1.531 . S
C1251 C1250 1.369 . S
C1251 C1252 1.410 . S
C1251 C1259 1.503 . S
C1252 C1251 1.410 . S
C1252 C1253 1.392 . S
C1252 C1255 1.511 . S
C1253 C1249 1.376 . S
C1253 C1252 1.392 . S
C1253 H1265 0.929 . S
C1254 C1250 1.531 . S
C1254 H1266 0.960 . S
C1254 H1267 0.962 . S
C1254 H1268 0.960 . S
C1255 C1252 1.511 . S
C1255 H1269 0.961 . S
C1255 H1270 0.961 . S
C1255 H1271 0.961 . S
C1256 C1257 1.370 . S
C1256 C1258 1.363 . S
C1256 H1272 0.931 . S
C1257 C1256 1.370 . S
C1257 C1261 1.408 . S
C1258 C1256 1.363 . S
C1258 C1259 1.370 . S
C1258 C1262 1.524 . S
C1259 C1251 1.503 . S
C1259 C1258 1.370 . S
C1259 C1260 1.403 . S
C1260 C1259 1.403 . S
C1260 C1261 1.404 . S
C1260 C1263 1.539 . S
C1261 C1257 1.408 . S
C1261 C1260 1.404 . S
C1261 H1273 0.930 . S
C1262 C1258 1.524 . S
C1262 H1274 0.956 . S
C1262 H1275 0.961 . S
C1262 H1276 0.961 . S
C1263 C1260 1.539 . S
C1263 H1277 0.958 . S
C1263 H1278 0.961 . S
C1263 H1279 0.960 . S
H1264 C1248 0.931 . S
H1265 C1253 0.929 . S
H1266 C1254 0.960 . S
H1267 C1254 0.962 . S
H1268 C1254 0.960 . S
H1269 C1255 0.961 . S
H1270 C1255 0.961 . S
H1271 C1255 0.961 . S
H1272 C1256 0.931 . S
H1273 C1261 0.930 . S
H1274 C1262 0.956 . S
H1275 C1262 0.961 . S
H1276 C1262 0.961 . S
H1277 C1263 0.958 . S
H1278 C1263 0.961 . S
H1279 C1263 0.960 . S
C1280 C1281 1.391 . S
C1280 C1282 1.394 . S
C1280 H1296 0.931 . S
C1281 C1280 1.391 . S
C1281 C1285 1.376 . S
C1282 C1280 1.394 . S
C1282 C1283 1.369 . S
C1282 C1286 1.531 . S
C1283 C1282 1.369 . S
C1283 C1284 1.410 . S
C1283 C1291 1.503 . S
C1284 C1283 1.410 . S
C1284 C1285 1.392 . S
C1284 C1287 1.511 . S
C1285 C1281 1.376 . S
C1285 C1284 1.392 . S
C1285 H1297 0.929 . S
C1286 C1282 1.531 . S
C1286 H1298 0.960 . S
C1286 H1299 0.962 . S
C1286 H1300 0.960 . S
C1287 C1284 1.511 . S
C1287 H1301 0.961 . S
C1287 H1302 0.961 . S
C1287 H1303 0.961 . S
C1288 C1289 1.370 . S
C1288 C1290 1.363 . S
C1288 H1304 0.931 . S
C1289 C1288 1.370 . S
C1289 C1293 1.408 . S
C1290 C1288 1.363 . S
C1290 C1291 1.370 . S
C1290 C1294 1.524 . S
C1291 C1283 1.503 . S
C1291 C1290 1.370 . S
C1291 C1292 1.403 . S
C1292 C1291 1.403 . S
C1292 C1293 1.404 . S
C1292 C1295 1.539 . S
C1293 C1289 1.408 . S
C1293 C1292 1.404 . S
C1293 H1305 0.930 . S
C1294 C1290 1.524 . S
C1294 H1306 0.956 . S
C1294 H1307 0.961 . S
C1294 H1308 0.961 . S
C1295 C1292 1.539 . S
C1295 H1309 0.958 . S
C1295 H1310 0.961 . S
C1295 H1311 0.960 . S
H1296 C1280 0.931 . S
H1297 C1285 0.929 . S
H1298 C1286 0.960 . S
H1299 C1286 0.962 . S
H1300 C1286 0.960 . S
H1301 C1287 0.961 . S
H1302 C1287 0.961 . S
H1303 C1287 0.961 . S
H1304 C1288 0.931 . S
H1305 C1293 0.930 . S
H1306 C1294 0.956 . S
H1307 C1294 0.961 . S
H1308 C1294 0.961 . S
H1309 C1295 0.958 . S
H1310 C1295 0.961 . S
H1311 C1295 0.960 . S
C1312 C1313 1.391 . S
C1312 C1314 1.394 . S
C1312 H1328 0.931 . S
C1313 C1312 1.391 . S
C1313 C1317 1.376 . S
C1314 C1312 1.394 . S
C1314 C1315 1.369 . S
C1314 C1318 1.531 . S
C1315 C1314 1.369 . S
C1315 C1316 1.410 . S
C1315 C1323 1.503 . S
C1316 C1315 1.410 . S
C1316 C1317 1.392 . S
C1316 C1319 1.511 . S
C1317 C1313 1.376 . S
C1317 C1316 1.392 . S
C1317 H1329 0.929 . S
C1318 C1314 1.531 . S
C1318 H1330 0.960 . S
C1318 H1331 0.962 . S
C1318 H1332 0.960 . S
C1319 C1316 1.511 . S
C1319 H1333 0.961 . S
C1319 H1334 0.961 . S
C1319 H1335 0.961 . S
C1320 C1321 1.370 . S
C1320 C1322 1.363 . S
C1320 H1336 0.931 . S
C1321 C1320 1.370 . S
C1321 C1325 1.408 . S
C1322 C1320 1.363 . S
C1322 C1323 1.370 . S
C1322 C1326 1.524 . S
C1323 C1315 1.503 . S
C1323 C1322 1.370 . S
C1323 C1324 1.403 . S
C1324 C1323 1.403 . S
C1324 C1325 1.404 . S
C1324 C1327 1.539 . S
C1325 C1321 1.408 . S
C1325 C1324 1.404 . S
C1325 H1337 0.930 . S
C1326 C1322 1.524 . S
C1326 H1338 0.956 . S
C1326 H1339 0.961 . S
C1326 H1340 0.961 . S
C1327 C1324 1.539 . S
C1327 H1341 0.958 . S
C1327 H1342 0.961 . S
C1327 H1343 0.960 . S
H1328 C1312 0.931 . S
H1329 C1317 0.929 . S
H1330 C1318 0.960 . S
H1331 C1318 0.962 . S
H1332 C1318 0.960 . S
H1333 C1319 0.961 . S
H1334 C1319 0.961 . S
H1335 C1319 0.961 . S
H1336 C1320 0.931 . S
H1337 C1325 0.930 . S
H1338 C1326 0.956 . S
H1339 C1326 0.961 . S
H1340 C1326 0.961 . S
H1341 C1327 0.958 . S
H1342 C1327 0.961 . S
H1343 C1327 0.960 . S
C1344 C1345 1.391 . S
C1344 C1346 1.394 . S
C1344 H1360 0.931 . S
C1345 C1344 1.391 . S
C1345 C1349 1.376 . S
C1346 C1344 1.394 . S
C1346 C1347 1.369 . S
C1346 C1350 1.531 . S
C1347 C1346 1.369 . S
C1347 C1348 1.410 . S
C1347 C1355 1.503 . S
C1348 C1347 1.410 . S
C1348 C1349 1.392 . S
C1348 C1351 1.511 . S
C1349 C1345 1.376 . S
C1349 C1348 1.392 . S
C1349 H1361 0.929 . S
C1350 C1346 1.531 . S
C1350 H1362 0.960 . S
C1350 H1363 0.962 . S
C1350 H1364 0.960 . S
C1351 C1348 1.511 . S
C1351 H1365 0.961 . S
C1351 H1366 0.961 . S
C1351 H1367 0.961 . S
C1352 C1353 1.370 . S
C1352 C1354 1.363 . S
C1352 H1368 0.931 . S
C1353 C1352 1.370 . S
C1353 C1357 1.408 . S
C1354 C1352 1.363 . S
C1354 C1355 1.370 . S
C1354 C1358 1.524 . S
C1355 C1347 1.503 . S
C1355 C1354 1.370 . S
C1355 C1356 1.403 . S
C1356 C1355 1.403 . S
C1356 C1357 1.404 . S
C1356 C1359 1.539 . S
C1357 C1353 1.408 . S
C1357 C1356 1.404 . S
C1357 H1369 0.930 . S
C1358 C1354 1.524 . S
C1358 H1370 0.956 . S
C1358 H1371 0.961 . S
C1358 H1372 0.961 . S
C1359 C1356 1.539 . S
C1359 H1373 0.958 . S
C1359 H1374 0.961 . S
C1359 H1375 0.960 . S
H1360 C1344 0.931 . S
H1361 C1349 0.929 . S
H1362 C1350 0.960 . S
H1363 C1350 0.962 . S
H1364 C1350 0.960 . S
H1365 C1351 0.961 . S
H1366 C1351 0.961 . S
H1367 C1351 0.961 . S
H1368 C1352 0.931 . S
H1369 C1357 0.930 . S
H1370 C1358 0.956 . S
H1371 C1358 0.961 . S
H1372 C1358 0.961 . S
H1373 C1359 0.958 . S
H1374 C1359 0.961 . S
H1375 C1359 0.960 . S
C1376 C1377 1.391 . S
C1376 C1378 1.394 . S
C1376 H1392 0.931 . S
C1377 C1376 1.391 . S
C1377 C1381 1.376 . S
C1378 C1376 1.394 . S
C1378 C1379 1.369 . S
C1378 C1382 1.531 . S
C1379 C1378 1.369 . S
C1379 C1380 1.410 . S
C1379 C1387 1.503 . S
C1380 C1379 1.410 . S
C1380 C1381 1.392 . S
C1380 C1383 1.511 . S
C1381 C1377 1.376 . S
C1381 C1380 1.392 . S
C1381 H1393 0.929 . S
C1382 C1378 1.531 . S
C1382 H1394 0.960 . S
C1382 H1395 0.962 . S
C1382 H1396 0.960 . S
C1383 C1380 1.511 . S
C1383 H1397 0.961 . S
C1383 H1398 0.961 . S
C1383 H1399 0.961 . S
C1384 C1385 1.370 . S
C1384 C1386 1.363 . S
C1384 H1400 0.931 . S
C1385 C1384 1.370 . S
C1385 C1389 1.408 . S
C1386 C1384 1.363 . S
C1386 C1387 1.370 . S
C1386 C1390 1.524 . S
C1387 C1379 1.503 . S
C1387 C1386 1.370 . S
C1387 C1388 1.403 . S
C1388 C1387 1.403 . S
C1388 C1389 1.404 . S
C1388 C1391 1.539 . S
C1389 C1385 1.408 . S
C1389 C1388 1.404 . S
C1389 H1401 0.930 . S
C1390 C1386 1.524 . S
C1390 H1402 0.956 . S
C1390 H1403 0.961 . S
C1390 H1404 0.961 . S
C1391 C1388 1.539 . S
C1391 H1405 0.958 . S
C1391 H1406 0.961 . S
C1391 H1407 0.960 . S
H1392 C1376 0.931 . S
H1393 C1381 0.929 . S
H1394 C1382 0.960 . S
H1395 C1382 0.962 . S
H1396 C1382 0.960 . S
H1397 C1383 0.961 . S
H1398 C1383 0.961 . S
H1399 C1383 0.961 . S
H1400 C1384 0.931 . S
H1401 C1389 0.930 . S
H1402 C1390 0.956 . S
H1403 C1390 0.961 . S
H1404 C1390 0.961 . S
H1405 C1391 0.958 . S
H1406 C1391 0.961 . S
H1407 C1391 0.960 . S
C1408 C1409 1.391 . S
C1408 C1410 1.394 . S
C1408 H1424 0.931 . S
C1409 C1408 1.391 . S
C1409 C1413 1.376 . S
C1410 C1408 1.394 . S
C1410 C1411 1.369 . S
C1410 C1414 1.531 . S
C1411 C1410 1.369 . S
C1411 C1412 1.410 . S
C1411 C1419 1.503 . S
C1412 C1411 1.410 . S
C1412 C1413 1.392 . S
C1412 C1415 1.511 . S
C1413 C1409 1.376 . S
C1413 C1412 1.392 . S
C1413 H1425 0.929 . S
C1414 C1410 1.531 . S
C1414 H1426 0.960 . S
C1414 H1427 0.962 . S
C1414 H1428 0.960 . S
C1415 C1412 1.511 . S
C1415 H1429 0.961 . S
C1415 H1430 0.961 . S
C1415 H1431 0.961 . S
C1416 C1417 1.370 . S
C1416 C1418 1.363 . S
C1416 H1432 0.931 . S
C1417 C1416 1.370 . S
C1417 C1421 1.408 . S
C1418 C1416 1.363 . S
C1418 C1419 1.370 . S
C1418 C1422 1.524 . S
C1419 C1411 1.503 . S
C1419 C1418 1.370 . S
C1419 C1420 1.403 . S
C1420 C1419 1.403 . S
C1420 C1421 1.404 . S
C1420 C1423 1.539 . S
C1421 C1417 1.408 . S
C1421 C1420 1.404 . S
C1421 H1433 0.930 . S
C1422 C1418 1.524 . S
C1422 H1434 0.956 . S
C1422 H1435 0.961 . S
C1422 H1436 0.961 . S
C1423 C1420 1.539 . S
C1423 H1437 0.958 . S
C1423 H1438 0.961 . S
C1423 H1439 0.960 . S
H1424 C1408 0.931 . S
H1425 C1413 0.929 . S
H1426 C1414 0.960 . S
H1427 C1414 0.962 . S
H1428 C1414 0.960 . S
H1429 C1415 0.961 . S
H1430 C1415 0.961 . S
H1431 C1415 0.961 . S
H1432 C1416 0.931 . S
H1433 C1421 0.930 . S
H1434 C1422 0.956 . S
H1435 C1422 0.961 . S
H1436 C1422 0.961 . S
H1437 C1423 0.958 . S
H1438 C1423 0.961 . S
H1439 C1423 0.960 . S
C1440 C1441 1.391 . S
C1440 C1442 1.394 . S
C1440 H1456 0.931 . S
C1441 C1440 1.391 . S
C1441 C1445 1.376 . S
C1442 C1440 1.394 . S
C1442 C1443 1.369 . S
C1442 C1446 1.531 . S
C1443 C1442 1.369 . S
C1443 C1444 1.410 . S
C1443 C1451 1.503 1_556 S
C1444 C1443 1.410 . S
C1444 C1445 1.392 . S
C1444 C1447 1.511 1_556 S
C1445 C1441 1.376 . S
C1445 C1444 1.392 . S
C1445 H1457 0.929 . S
C1446 C1442 1.531 . S
C1446 H1458 0.960 . S
C1446 H1459 0.962 . S
C1446 H1460 0.960 . S
C1447 C1444 1.511 1_554 S
C1447 H1461 0.961 . S
C1447 H1462 0.961 . S
C1447 H1463 0.961 . S
C1448 C1449 1.370 . S
C1448 C1450 1.363 . S
C1448 H1464 0.931 . S
C1449 C1448 1.370 . S
C1449 C1453 1.408 . S
C1450 C1448 1.363 . S
C1450 C1451 1.370 . S
C1450 C1454 1.524 . S
C1451 C1443 1.503 1_554 S
C1451 C1450 1.370 . S
C1451 C1452 1.403 . S
C1452 C1451 1.403 . S
C1452 C1453 1.404 . S
C1452 C1455 1.539 . S
C1453 C1449 1.408 . S
C1453 C1452 1.404 . S
C1453 H1465 0.930 . S
C1454 C1450 1.524 . S
C1454 H1466 0.956 1_554 S
C1454 H1467 0.961 . S
C1454 H1468 0.961 . S
C1455 C1452 1.539 . S
C1455 H1469 0.958 1_554 S
C1455 H1470 0.961 . S
C1455 H1471 0.960 1_554 S
H1456 C1440 0.931 . S
H1457 C1445 0.929 . S
H1458 C1446 0.960 . S
H1459 C1446 0.962 . S
H1460 C1446 0.960 . S
H1461 C1447 0.961 . S
H1462 C1447 0.961 . S
H1463 C1447 0.961 . S
H1464 C1448 0.931 . S
H1465 C1453 0.930 . S
H1466 C1454 0.956 1_556 S
H1467 C1454 0.961 . S
H1468 C1454 0.961 . S
H1469 C1455 0.958 1_556 S
H1470 C1455 0.961 . S
H1471 C1455 0.960 1_556 S
C1472 C1473 1.391 . S
C1472 C1474 1.394 . S
C1472 H1488 0.931 . S
C1473 C1472 1.391 . S
C1473 C1477 1.376 . S
C1474 C1472 1.394 . S
C1474 C1475 1.369 . S
C1474 C1478 1.531 . S
C1475 C1474 1.369 . S
C1475 C1476 1.410 . S
C1475 C1483 1.503 1_554 S
C1476 C1475 1.410 . S
C1476 C1477 1.392 . S
C1476 C1479 1.511 1_554 S
C1477 C1473 1.376 . S
C1477 C1476 1.392 . S
C1477 H1489 0.929 . S
C1478 C1474 1.531 . S
C1478 H1490 0.960 . S
C1478 H1491 0.962 . S
C1478 H1492 0.960 . S
C1479 C1476 1.511 1_556 S
C1479 H1493 0.961 . S
C1479 H1494 0.961 . S
C1479 H1495 0.961 1_556 S
C1480 C1481 1.370 . S
C1480 C1482 1.363 . S
C1480 H1496 0.931 . S
C1481 C1480 1.370 . S
C1481 C1485 1.408 . S
C1482 C1480 1.363 . S
C1482 C1483 1.370 . S
C1482 C1486 1.524 . S
C1483 C1475 1.503 1_556 S
C1483 C1482 1.370 . S
C1483 C1484 1.403 . S
C1484 C1483 1.403 . S
C1484 C1485 1.404 . S
C1484 C1487 1.539 1_556 S
C1485 C1481 1.408 . S
C1485 C1484 1.404 . S
C1485 H1497 0.930 . S
C1486 C1482 1.524 . S
C1486 H1498 0.956 . S
C1486 H1499 0.961 . S
C1486 H1500 0.961 . S
C1487 C1484 1.539 1_554 S
C1487 H1501 0.958 . S
C1487 H1502 0.961 . S
C1487 H1503 0.960 . S
H1488 C1472 0.931 . S
H1489 C1477 0.929 . S
H1490 C1478 0.960 . S
H1491 C1478 0.962 . S
H1492 C1478 0.960 . S
H1493 C1479 0.961 . S
H1494 C1479 0.961 . S
H1495 C1479 0.961 1_554 S
H1496 C1480 0.931 . S
H1497 C1485 0.930 . S
H1498 C1486 0.956 . S
H1499 C1486 0.961 . S
H1500 C1486 0.961 . S
H1501 C1487 0.958 . S
H1502 C1487 0.961 . S
H1503 C1487 0.960 . S
C1504 C1505 1.391 . S
C1504 C1506 1.394 . S
C1504 H1520 0.931 . S
C1505 C1504 1.391 . S
C1505 C1509 1.376 . S
C1506 C1504 1.394 . S
C1506 C1507 1.369 . S
C1506 C1510 1.531 1_556 S
C1507 C1506 1.369 . S
C1507 C1508 1.410 . S
C1507 C1515 1.503 1_556 S
C1508 C1507 1.410 . S
C1508 C1509 1.392 . S
C1508 C1511 1.511 . S
C1509 C1505 1.376 . S
C1509 C1508 1.392 . S
C1509 H1521 0.929 . S
C1510 C1506 1.531 1_554 S
C1510 H1522 0.960 . S
C1510 H1523 0.962 . S
C1510 H1524 0.960 . S
C1511 C1508 1.511 . S
C1511 H1525 0.961 . S
C1511 H1526 0.961 . S
C1511 H1527 0.961 . S
C1512 C1513 1.370 . S
C1512 C1514 1.363 . S
C1512 H1528 0.931 . S
C1513 C1512 1.370 . S
C1513 C1517 1.408 . S
C1514 C1512 1.363 . S
C1514 C1515 1.370 . S
C1514 C1518 1.524 1_554 S
C1515 C1507 1.503 1_554 S
C1515 C1514 1.370 . S
C1515 C1516 1.403 . S
C1516 C1515 1.403 . S
C1516 C1517 1.404 . S
C1516 C1519 1.539 . S
C1517 C1513 1.408 . S
C1517 C1516 1.404 . S
C1517 H1529 0.930 . S
C1518 C1514 1.524 1_556 S
C1518 H1530 0.956 . S
C1518 H1531 0.961 . S
C1518 H1532 0.961 . S
C1519 C1516 1.539 . S
C1519 H1533 0.958 . S
C1519 H1534 0.961 . S
C1519 H1535 0.960 . S
H1520 C1504 0.931 . S
H1521 C1509 0.929 . S
H1522 C1510 0.960 . S
H1523 C1510 0.962 . S
H1524 C1510 0.960 . S
H1525 C1511 0.961 . S
H1526 C1511 0.961 . S
H1527 C1511 0.961 . S
H1528 C1512 0.931 . S
H1529 C1517 0.930 . S
H1530 C1518 0.956 . S
H1531 C1518 0.961 . S
H1532 C1518 0.961 . S
H1533 C1519 0.958 . S
H1534 C1519 0.961 . S
H1535 C1519 0.960 . S
C1536 C1537 1.391 . S
C1536 C1538 1.394 . S
C1536 H1552 0.931 . S
C1537 C1536 1.391 . S
C1537 C1541 1.376 . S
C1538 C1536 1.394 . S
C1538 C1539 1.369 . S
C1538 C1542 1.531 . S
C1539 C1538 1.369 . S
C1539 C1540 1.419 . S
C1539 C1547 1.503 1_554 S
C1540 C1539 1.419 . S
C1540 C1541 1.419 . S
C1540 C1543 1.477 1_554 S
C1541 C1537 1.376 . S
C1541 C1540 1.419 . S
C1541 H1553 0.929 . S
C1542 C1538 1.531 . S
C1542 H1554 0.960 . S
C1542 H1555 0.962 . S
C1542 H1556 0.960 . S
C1543 C1540 1.477 1_556 S
C1543 H1557 0.961 . S
C1543 H1558 0.961 . S
C1543 H1559 0.961 . S
C1544 C1545 1.370 . S
C1544 C1546 1.363 . S
C1544 H1560 0.931 . S
C1545 C1544 1.370 . S
C1545 C1549 1.408 . S
C1546 C1544 1.363 . S
C1546 C1547 1.370 . S
C1546 C1550 1.524 . S
C1547 C1539 1.503 1_556 S
C1547 C1546 1.370 . S
C1547 C1548 1.403 . S
C1548 C1547 1.403 . S
C1548 C1549 1.404 . S
C1548 C1551 1.539 . S
C1549 C1545 1.408 . S
C1549 C1548 1.404 . S
C1549 H1561 0.930 . S
C1550 C1546 1.524 . S
C1550 H1562 0.956 . S
C1550 H1563 0.961 . S
C1550 H1564 0.961 . S
C1551 C1548 1.539 . S
C1551 H1565 0.958 1_556 S
C1551 H1566 0.961 . S
C1551 H1567 0.956 1_556 S
H1552 C1536 0.931 . S
H1553 C1541 0.929 . S
H1554 C1542 0.960 . S
H1555 C1542 0.962 . S
H1556 C1542 0.960 . S
H1557 C1543 0.961 . S
H1558 C1543 0.961 . S
H1559 C1543 0.961 . S
H1560 C1544 0.931 . S
H1561 C1549 0.930 . S
H1562 C1550 0.956 . S
H1563 C1550 0.961 . S
H1564 C1550 0.961 . S
H1565 C1551 0.958 1_554 S
H1566 C1551 0.961 . S
H1567 C1551 0.956 1_554 S
C1568 C1569 1.391 . S
C1568 C1570 1.394 . S
C1568 H1584 0.931 . S
C1569 C1568 1.391 . S
C1569 C1573 1.376 . S
C1570 C1568 1.394 . S
C1570 C1571 1.369 . S
C1570 C1574 1.531 . S
C1571 C1570 1.369 . S
C1571 C1572 1.410 . S
C1571 C1579 1.503 . S
C1572 C1571 1.410 . S
C1572 C1573 1.392 . S
C1572 C1575 1.511 . S
C1573 C1569 1.376 . S
C1573 C1572 1.392 . S
C1573 H1585 0.929 . S
C1574 C1570 1.531 . S
C1574 H1586 0.960 . S
C1574 H1587 0.962 . S
C1574 H1588 0.960 . S
C1575 C1572 1.511 . S
C1575 H1589 0.961 . S
C1575 H1590 0.961 . S
C1575 H1591 0.961 . S
C1576 C1577 1.370 . S
C1576 C1578 1.363 . S
C1576 H1592 0.931 . S
C1577 C1576 1.370 . S
C1577 C1581 1.408 . S
C1578 C1576 1.363 . S
C1578 C1579 1.370 . S
C1578 C1582 1.524 . S
C1579 C1571 1.503 . S
C1579 C1578 1.370 . S
C1579 C1580 1.403 . S
C1580 C1579 1.403 . S
C1580 C1581 1.404 . S
C1580 C1583 1.539 . S
C1581 C1577 1.408 . S
C1581 C1580 1.404 . S
C1581 H1593 0.930 . S
C1582 C1578 1.524 . S
C1582 H1594 0.956 . S
C1582 H1595 0.961 . S
C1582 H1596 0.961 . S
C1583 C1580 1.539 . S
C1583 H1597 0.958 . S
C1583 H1598 0.961 . S
C1583 H1599 0.960 . S
H1584 C1568 0.931 . S
H1585 C1573 0.929 . S
H1586 C1574 0.960 . S
H1587 C1574 0.962 . S
H1588 C1574 0.960 . S
H1589 C1575 0.961 . S
H1590 C1575 0.961 . S
H1591 C1575 0.961 . S
H1592 C1576 0.931 . S
H1593 C1581 0.930 . S
H1594 C1582 0.956 . S
H1595 C1582 0.961 . S
H1596 C1582 0.961 . S
H1597 C1583 0.958 . S
H1598 C1583 0.961 . S
H1599 C1583 0.960 . S
C1600 C1601 1.391 . S
C1600 C1602 1.394 . S
C1600 H1616 0.931 . S
C1601 C1600 1.391 . S
C1601 C1605 1.376 . S
C1602 C1600 1.394 . S
C1602 C1603 1.369 . S
C1602 C1606 1.531 . S
C1603 C1602 1.369 . S
C1603 C1604 1.410 . S
C1603 C1611 1.503 . S
C1604 C1603 1.410 . S
C1604 C1605 1.392 . S
C1604 C1607 1.511 . S
C1605 C1601 1.376 . S
C1605 C1604 1.392 . S
C1605 H1617 0.929 . S
C1606 C1602 1.531 . S
C1606 H1618 0.960 . S
C1606 H1619 0.962 . S
C1606 H1620 0.960 . S
C1607 C1604 1.511 . S
C1607 H1621 0.961 . S
C1607 H1622 0.961 . S
C1607 H1623 0.961 . S
C1608 C1609 1.370 . S
C1608 C1610 1.363 . S
C1608 H1624 0.931 . S
C1609 C1608 1.370 . S
C1609 C1613 1.408 . S
C1610 C1608 1.363 . S
C1610 C1611 1.370 . S
C1610 C1614 1.524 . S
C1611 C1603 1.503 . S
C1611 C1610 1.370 . S
C1611 C1612 1.403 . S
C1612 C1611 1.403 . S
C1612 C1613 1.404 . S
C1612 C1615 1.539 . S
C1613 C1609 1.408 . S
C1613 C1612 1.404 . S
C1613 H1625 0.930 . S
C1614 C1610 1.524 . S
C1614 H1626 0.956 . S
C1614 H1627 0.961 . S
C1614 H1628 0.961 . S
C1615 C1612 1.539 . S
C1615 H1629 0.958 . S
C1615 H1630 0.961 . S
C1615 H1631 0.960 . S
H1616 C1600 0.931 . S
H1617 C1605 0.929 . S
H1618 C1606 0.960 . S
H1619 C1606 0.962 . S
H1620 C1606 0.960 . S
H1621 C1607 0.961 . S
H1622 C1607 0.961 . S
H1623 C1607 0.961 . S
H1624 C1608 0.931 . S
H1625 C1613 0.930 . S
H1626 C1614 0.956 . S
H1627 C1614 0.961 . S
H1628 C1614 0.961 . S
H1629 C1615 0.958 . S
H1630 C1615 0.961 . S
H1631 C1615 0.960 . S
C1632 C1633 1.391 . S
C1632 C1634 1.394 . S
C1632 H1648 0.931 . S
C1633 C1632 1.391 . S
C1633 C1637 1.376 . S
C1634 C1632 1.394 . S
C1634 C1635 1.369 . S
C1634 C1638 1.531 . S
C1635 C1634 1.369 . S
C1635 C1636 1.410 . S
C1635 C1643 1.503 . S
C1636 C1635 1.410 . S
C1636 C1637 1.392 . S
C1636 C1639 1.511 . S
C1637 C1633 1.376 . S
C1637 C1636 1.392 . S
C1637 H1649 0.929 . S
C1638 C1634 1.531 . S
C1638 H1650 0.960 . S
C1638 H1651 0.962 . S
C1638 H1652 0.960 . S
C1639 C1636 1.511 . S
C1639 H1653 0.961 . S
C1639 H1654 0.961 . S
C1639 H1655 0.961 . S
C1640 C1641 1.370 . S
C1640 C1642 1.363 . S
C1640 H1656 0.931 . S
C1641 C1640 1.370 . S
C1641 C1645 1.408 . S
C1642 C1640 1.363 . S
C1642 C1643 1.370 . S
C1642 C1646 1.524 . S
C1643 C1635 1.503 . S
C1643 C1642 1.370 . S
C1643 C1644 1.403 . S
C1644 C1643 1.403 . S
C1644 C1645 1.404 . S
C1644 C1647 1.539 . S
C1645 C1641 1.408 . S
C1645 C1644 1.404 . S
C1645 H1657 0.930 . S
C1646 C1642 1.524 . S
C1646 H1658 0.956 . S
C1646 H1659 0.961 . S
C1646 H1660 0.961 . S
C1647 C1644 1.539 . S
C1647 H1661 0.958 . S
C1647 H1662 0.961 . S
C1647 H1663 0.960 . S
H1648 C1632 0.931 . S
H1649 C1637 0.929 . S
H1650 C1638 0.960 . S
H1651 C1638 0.962 . S
H1652 C1638 0.960 . S
H1653 C1639 0.961 . S
H1654 C1639 0.961 . S
H1655 C1639 0.961 . S
H1656 C1640 0.931 . S
H1657 C1645 0.930 . S
H1658 C1646 0.956 . S
H1659 C1646 0.961 . S
H1660 C1646 0.961 . S
H1661 C1647 0.958 . S
H1662 C1647 0.961 . S
H1663 C1647 0.960 . S
C1664 C1665 1.391 . S
C1664 C1666 1.394 . S
C1664 H1680 0.931 . S
C1665 C1664 1.391 . S
C1665 C1669 1.376 . S
C1666 C1664 1.394 . S
C1666 C1667 1.369 . S
C1666 C1670 1.531 . S
C1667 C1666 1.369 . S
C1667 C1668 1.410 . S
C1667 C1675 1.503 . S
C1668 C1667 1.410 . S
C1668 C1669 1.392 . S
C1668 C1671 1.511 . S
C1669 C1665 1.376 . S
C1669 C1668 1.392 . S
C1669 H1681 0.929 . S
C1670 C1666 1.531 . S
C1670 H1682 0.960 . S
C1670 H1683 0.962 . S
C1670 H1684 0.960 . S
C1671 C1668 1.511 . S
C1671 H1685 0.961 . S
C1671 H1686 0.961 . S
C1671 H1687 0.961 . S
C1672 C1673 1.370 . S
C1672 C1674 1.363 . S
C1672 H1688 0.931 . S
C1673 C1672 1.370 . S
C1673 C1677 1.408 . S
C1674 C1672 1.363 . S
C1674 C1675 1.370 . S
C1674 C1678 1.524 . S
C1675 C1667 1.503 . S
C1675 C1674 1.370 . S
C1675 C1676 1.403 . S
C1676 C1675 1.403 . S
C1676 C1677 1.404 . S
C1676 C1679 1.539 . S
C1677 C1673 1.408 . S
C1677 C1676 1.404 . S
C1677 H1689 0.930 . S
C1678 C1674 1.524 . S
C1678 H1690 0.956 . S
C1678 H1691 0.961 . S
C1678 H1692 0.961 . S
C1679 C1676 1.539 . S
C1679 H1693 0.958 . S
C1679 H1694 0.961 . S
C1679 H1695 0.960 . S
H1680 C1664 0.931 . S
H1681 C1669 0.929 . S
H1682 C1670 0.960 . S
H1683 C1670 0.962 . S
H1684 C1670 0.960 . S
H1685 C1671 0.961 . S
H1686 C1671 0.961 . S
H1687 C1671 0.961 . S
H1688 C1672 0.931 . S
H1689 C1677 0.930 . S
H1690 C1678 0.956 . S
H1691 C1678 0.961 . S
H1692 C1678 0.961 . S
H1693 C1679 0.958 . S
H1694 C1679 0.961 . S
H1695 C1679 0.960 . S
C1696 C1697 1.391 . S
C1696 C1698 1.394 . S
C1696 H1712 0.931 . S
C1697 C1696 1.391 . S
C1697 C1701 1.376 . S
C1698 C1696 1.394 . S
C1698 C1699 1.369 . S
C1698 C1702 1.531 . S
C1699 C1698 1.369 . S
C1699 C1700 1.410 . S
C1699 C1707 1.503 1_554 S
C1700 C1699 1.410 . S
C1700 C1701 1.392 . S
C1700 C1703 1.511 1_554 S
C1701 C1697 1.376 . S
C1701 C1700 1.392 . S
C1701 H1713 0.929 . S
C1702 C1698 1.531 . S
C1702 H1714 0.960 . S
C1702 H1715 0.962 . S
C1702 H1716 0.960 . S
C1703 C1700 1.511 1_556 S
C1703 H1717 0.961 . S
C1703 H1718 0.961 . S
C1703 H1719 0.961 . S
C1704 C1705 1.370 . S
C1704 C1706 1.363 . S
C1704 H1720 0.931 . S
C1705 C1704 1.370 . S
C1705 C1709 1.408 . S
C1706 C1704 1.363 . S
C1706 C1707 1.370 . S
C1706 C1710 1.524 1_556 S
C1707 C1699 1.503 1_556 S
C1707 C1706 1.370 . S
C1707 C1708 1.403 . S
C1708 C1707 1.403 . S
C1708 C1709 1.404 . S
C1708 C1711 1.539 . S
C1709 C1705 1.408 . S
C1709 C1708 1.404 . S
C1709 H1721 0.930 . S
C1710 C1706 1.524 1_554 S
C1710 H1722 0.956 . S
C1710 H1723 0.961 . S
C1710 H1724 0.961 . S
C1711 C1708 1.539 . S
C1711 H1725 0.958 . S
C1711 H1726 0.961 . S
C1711 H1727 0.960 . S
H1712 C1696 0.931 . S
H1713 C1701 0.929 . S
H1714 C1702 0.960 . S
H1715 C1702 0.962 . S
H1716 C1702 0.960 . S
H1717 C1703 0.961 . S
H1718 C1703 0.961 . S
H1719 C1703 0.961 . S
H1720 C1704 0.931 . S
H1721 C1709 0.930 . S
H1722 C1710 0.956 . S
H1723 C1710 0.961 . S
H1724 C1710 0.961 . S
H1725 C1711 0.958 . S
H1726 C1711 0.961 . S
H1727 C1711 0.960 . S
C1728 C1729 1.391 . S
C1728 C1730 1.394 1_556 S
C1728 H1744 0.931 . S
C1729 C1728 1.391 . S
C1729 C1733 1.376 . S
C1730 C1728 1.394 1_554 S
C1730 C1731 1.369 1_554 S
C1730 C1734 1.531 . S
C1731 C1730 1.369 1_556 S
C1731 C1732 1.410 . S
C1731 C1739 1.503 1_556 S
C1732 C1731 1.410 . S
C1732 C1733 1.392 . S
C1732 C1735 1.511 . S
C1733 C1729 1.376 . S
C1733 C1732 1.392 . S
C1733 H1745 0.929 . S
C1734 C1730 1.531 . S
C1734 H1746 0.960 . S
C1734 H1747 0.962 . S
C1734 H1748 0.960 . S
C1735 C1732 1.511 . S
C1735 H1749 0.961 . S
C1735 H1750 0.961 . S
C1735 H1751 0.961 . S
C1736 C1737 1.370 . S
C1736 C1738 1.363 . S
C1736 H1752 0.931 . S
C1737 C1736 1.370 . S
C1737 C1741 1.408 . S
C1738 C1736 1.363 . S
C1738 C1739 1.370 . S
C1738 C1742 1.524 . S
C1739 C1731 1.503 1_554 S
C1739 C1738 1.370 . S
C1739 C1740 1.403 . S
C1740 C1739 1.403 . S
C1740 C1741 1.404 . S
C1740 C1743 1.539 . S
C1741 C1737 1.408 . S
C1741 C1740 1.404 . S
C1741 H1753 0.930 . S
C1742 C1738 1.524 . S
C1742 H1754 0.956 . S
C1742 H1755 0.961 1_554 S
C1742 H1756 0.961 . S
C1743 C1740 1.539 . S
C1743 H1757 0.958 . S
C1743 H1758 0.961 . S
C1743 H1759 0.960 . S
H1744 C1728 0.931 . S
H1745 C1733 0.929 . S
H1746 C1734 0.960 . S
H1747 C1734 0.962 . S
H1748 C1734 0.960 . S
H1749 C1735 0.961 . S
H1750 C1735 0.961 . S
H1751 C1735 0.961 . S
H1752 C1736 0.931 . S
H1753 C1741 0.930 . S
H1754 C1742 0.956 . S
H1755 C1742 0.961 1_556 S
H1756 C1742 0.961 . S
H1757 C1743 0.958 . S
H1758 C1743 0.961 . S
H1759 C1743 0.960 . S
C1760 C1761 1.391 . S
C1760 C1762 1.394 . S
C1760 H1776 0.931 . S
C1761 C1760 1.391 . S
C1761 C1765 1.376 . S
C1762 C1760 1.394 . S
C1762 C1763 1.369 . S
C1762 C1766 1.531 . S
C1763 C1762 1.369 . S
C1763 C1764 1.410 . S
C1763 C1771 1.503 1_554 S
C1764 C1763 1.410 . S
C1764 C1765 1.392 . S
C1764 C1767 1.511 1_554 S
C1765 C1761 1.376 . S
C1765 C1764 1.392 . S
C1765 H1777 0.929 . S
C1766 C1762 1.531 . S
C1766 H1778 0.960 . S
C1766 H1779 0.962 . S
C1766 H1780 0.960 . S
C1767 C1764 1.511 1_556 S
C1767 H1781 0.961 . S
C1767 H1782 0.961 . S
C1767 H1783 0.961 . S
C1768 C1769 1.370 . S
C1768 C1770 1.363 . S
C1768 H1784 0.931 . S
C1769 C1768 1.370 . S
C1769 C1773 1.408 . S
C1770 C1768 1.363 . S
C1770 C1771 1.370 . S
C1770 C1774 1.524 1_556 S
C1771 C1763 1.503 1_556 S
C1771 C1770 1.370 . S
C1771 C1772 1.403 . S
C1772 C1771 1.403 . S
C1772 C1773 1.404 . S
C1772 C1775 1.539 . S
C1773 C1769 1.408 . S
C1773 C1772 1.404 . S
C1773 H1785 0.930 . S
C1774 C1770 1.524 1_554 S
C1774 H1786 0.956 . S
C1774 H1787 0.961 . S
C1774 H1788 0.961 . S
C1775 C1772 1.539 . S
C1775 H1789 0.958 . S
C1775 H1790 0.961 . S
C1775 H1791 0.960 . S
H1776 C1760 0.931 . S
H1777 C1765 0.929 . S
H1778 C1766 0.960 . S
H1779 C1766 0.962 . S
H1780 C1766 0.960 . S
H1781 C1767 0.961 . S
H1782 C1767 0.961 . S
H1783 C1767 0.961 . S
H1784 C1768 0.931 . S
H1785 C1773 0.930 . S
H1786 C1774 0.956 . S
H1787 C1774 0.961 . S
H1788 C1774 0.961 . S
H1789 C1775 0.958 . S
H1790 C1775 0.961 . S
H1791 C1775 0.960 . S
C1792 C1793 1.391 . S
C1792 C1794 1.394 . S
C1792 H1808 0.931 . S
C1793 C1792 1.391 . S
C1793 C1797 1.376 . S
C1794 C1792 1.394 . S
C1794 C1795 1.369 . S
C1794 C1798 1.531 1_554 S
C1795 C1794 1.369 . S
C1795 C1796 1.410 . S
C1795 C1803 1.503 1_554 S
C1796 C1795 1.410 . S
C1796 C1797 1.392 . S
C1796 C1799 1.511 . S
C1797 C1793 1.376 . S
C1797 C1796 1.392 . S
C1797 H1809 0.929 . S
C1798 C1794 1.531 1_556 S
C1798 H1810 0.960 . S
C1798 H1811 0.950 1_556 S
C1798 H1812 0.960 . S
C1799 C1796 1.511 . S
C1799 H1813 0.961 . S
C1799 H1814 0.961 . S
C1799 H1815 0.961 . S
C1800 C1801 1.370 . S
C1800 C1802 1.363 . S
C1800 H1816 0.931 . S
C1801 C1800 1.370 . S
C1801 C1805 1.408 . S
C1802 C1800 1.363 . S
C1802 C1803 1.370 . S
C1802 C1806 1.524 1_556 S
C1803 C1795 1.503 1_556 S
C1803 C1802 1.370 . S
C1803 C1804 1.403 . S
C1804 C1803 1.403 . S
C1804 C1805 1.404 . S
C1804 C1807 1.539 . S
C1805 C1801 1.408 . S
C1805 C1804 1.404 . S
C1805 H1817 0.930 . S
C1806 C1802 1.524 1_554 S
C1806 H1818 0.956 . S
C1806 H1819 0.961 . S
C1806 H1820 0.961 . S
C1807 C1804 1.539 . S
C1807 H1821 0.958 . S
C1807 H1822 0.961 . S
C1807 H1823 0.960 . S
H1808 C1792 0.931 . S
H1809 C1797 0.929 . S
H1810 C1798 0.960 . S
H1811 C1798 0.950 1_554 S
H1812 C1798 0.960 . S
H1813 C1799 0.961 . S
H1814 C1799 0.961 . S
H1815 C1799 0.961 . S
H1816 C1800 0.931 . S
H1817 C1805 0.930 . S
H1818 C1806 0.956 . S
H1819 C1806 0.961 . S
H1820 C1806 0.961 . S
H1821 C1807 0.958 . S
H1822 C1807 0.961 . S
H1823 C1807 0.960 . S
C545 C111 1.631 . S
C553 C2 1.666 . S
C577 C36 1.662 . S
C585 C9 1.649 . S
C609 C70 1.648 . S
C617 C43 1.638 . S
C641 C104 1.667 . S
C649 C77 1.638 . S
C673 C179 1.639 . S
C681 C138 1.659 . S
C705 C213 1.645 . S
C713 C172 1.659 . S
C737 C206 1.655 . S
C745 C247 1.648 . S
C769 C145 1.617 . S
C777 C240 1.661 . S
C801 C274 1.653 . S
C809 C383 1.648 . S
C833 C308 1.652 . S
C841 C281 1.648 . S
C865 C315 1.638 . S
C873 C342 1.667 . S
C897 C376 1.667 . S
C905 C349 1.635 . S
C929 C451 1.655 . S
C937 C410 1.664 . S
C961 C444 1.651 . S
C969 C485 1.635 . S
C993 C478 1.655 . S
C1001 C519 1.649 . S
C1025 C512 1.668 . S
C1033 C417 1.641 . S
C1057 C33 1.970 . S
C1065 C203 1.958 . S
C1089 C67 1.945 . S
C1097 C237 1.959 . S
C1121 C271 1.942 . S
C1129 C101 1.968 . S
C1153 C135 1.963 . S
C1161 C169 1.953 . S
C1185 C475 1.962 . S
C1193 C305 1.955 . S
C1217 C509 1.965 . S
C1225 C339 1.958 . S
C1249 C373 1.937 . S
C1257 C543 1.966 . S
C1281 C441 1.973 . S
C1289 C407 1.952 . S
C1313 C5 1.045 . S
C1321 C394 1.120 . S
C1345 C39 1.116 . S
C1353 C292 1.100 . S
C1377 C73 1.125 . S
C1385 C326 1.098 . S
C1409 C107 1.055 . S
C1417 C360 1.119 . S
C1441 C462 1.111 . S
C1449 C141 1.082 . S
C1473 C175 1.112 . S
C1481 C496 1.100 . S
C1505 C530 1.089 . S
C1513 C209 1.102 . S
C1537 C243 1.082 . S
C1545 C428 1.108 . S
C1569 C122 1.081 . S
C1577 C277 1.105 . S
C1601 C20 1.093 . S
C1609 C311 1.088 . S
C1633 C54 1.084 . S
C1641 C345 1.106 . S
C1665 C88 1.085 . S
C1673 C379 1.105 . S
C1697 C190 1.087 . S
C1705 C413 1.105 . S
C1729 C447 1.063 . S
C1737 C224 1.110 . S
C1761 C258 1.089 . S
C1769 C481 1.105 . S
C1793 C156 1.084 . S
C1801 C515 1.097 . S
