# Generated by pormake.
# Topology uol, (4)-cn, num edge types: 1
# Building blocks:
#     Node 0, Type 0, BuildingBlock: MUDLON_clean_sbu_0, # of connection points: 4
#     Node 1, Type 0, BuildingBlock: MUDLON_clean_sbu_0, # of connection points: 4
#     Node 2, Type 0, BuildingBlock: MUDLON_clean_sbu_0, # of connection points: 4
#     Node 3, Type 0, BuildingBlock: MUDLON_clean_sbu_0, # of connection points: 4
#     Node 4, Type 0, BuildingBlock: MUDLON_clean_sbu_0, # of connection points: 4
#     Node 5, Type 0, BuildingBlock: MUDLON_clean_sbu_0, # of connection points: 4
#     Node 6, Type 0, BuildingBlock: MUDLON_clean_sbu_0, # of connection points: 4
#     Node 7, Type 0, BuildingBlock: MUDLON_clean_sbu_0, # of connection points: 4
#     Node 8, Type 0, BuildingBlock: MUDLON_clean_sbu_0, # of connection points: 4
#     Node 9, Type 0, BuildingBlock: MUDLON_clean_sbu_0, # of connection points: 4
#     Node 10, Type 0, BuildingBlock: MUDLON_clean_sbu_0, # of connection points: 4
#     Node 11, Type 0, BuildingBlock: MUDLON_clean_sbu_0, # of connection points: 4
#     Edge 12, Type (0, 0), BuildingBlock: OJICUG_clean_linker_0, # of connection points: 2
#     Edge 13, Type (0, 0), BuildingBlock: OJICUG_clean_linker_0, # of connection points: 2
#     Edge 14, Type (0, 0), BuildingBlock: OJICUG_clean_linker_0, # of connection points: 2
#     Edge 15, Type (0, 0), BuildingBlock: OJICUG_clean_linker_0, # of connection points: 2
#     Edge 16, Type (0, 0), BuildingBlock: OJICUG_clean_linker_0, # of connection points: 2
#     Edge 17, Type (0, 0), BuildingBlock: OJICUG_clean_linker_0, # of connection points: 2
#     Edge 18, Type (0, 0), BuildingBlock: OJICUG_clean_linker_0, # of connection points: 2
#     Edge 19, Type (0, 0), BuildingBlock: OJICUG_clean_linker_0, # of connection points: 2
#     Edge 20, Type (0, 0), BuildingBlock: OJICUG_clean_linker_0, # of connection points: 2
#     Edge 21, Type (0, 0), BuildingBlock: OJICUG_clean_linker_0, # of connection points: 2
#     Edge 22, Type (0, 0), BuildingBlock: OJICUG_clean_linker_0, # of connection points: 2
#     Edge 23, Type (0, 0), BuildingBlock: OJICUG_clean_linker_0, # of connection points: 2
#     Edge 24, Type (0, 0), BuildingBlock: OJICUG_clean_linker_0, # of connection points: 2
#     Edge 25, Type (0, 0), BuildingBlock: OJICUG_clean_linker_0, # of connection points: 2
#     Edge 26, Type (0, 0), BuildingBlock: OJICUG_clean_linker_0, # of connection points: 2
#     Edge 27, Type (0, 0), BuildingBlock: OJICUG_clean_linker_0, # of connection points: 2
#     Edge 28, Type (0, 0), BuildingBlock: OJICUG_clean_linker_0, # of connection points: 2
#     Edge 29, Type (0, 0), BuildingBlock: OJICUG_clean_linker_0, # of connection points: 2
#     Edge 30, Type (0, 0), BuildingBlock: OJICUG_clean_linker_0, # of connection points: 2
#     Edge 31, Type (0, 0), BuildingBlock: OJICUG_clean_linker_0, # of connection points: 2
#     Edge 32, Type (0, 0), BuildingBlock: OJICUG_clean_linker_0, # of connection points: 2
#     Edge 33, Type (0, 0), BuildingBlock: OJICUG_clean_linker_0, # of connection points: 2
#     Edge 34, Type (0, 0), BuildingBlock: OJICUG_clean_linker_0, # of connection points: 2
#     Edge 35, Type (0, 0), BuildingBlock: OJICUG_clean_linker_0, # of connection points: 2
# Relax obj value: 0.129
# Max RMSD: 0.264
# Mean RMSD: 0.264
data_MOF--net-uol--node1-MUDLON_clean_sbu_0--edge1-OJICUG_clean_linker_0
_symmetry_space_group_name_H-M    P1
_symmetry_Int_Tables_number       1
_symmetry_cell_setting            triclinic
loop_
_symmetry_equiv_pos_as_xyz
'x, y, z'
_cell_length_a     24.706876
_cell_length_b     24.773611
_cell_length_c     52.44357
_cell_angle_alpha  90.035711
_cell_angle_beta   90.369396
_cell_angle_gamma 119.92532
loop_
_atom_site_label
_atom_site_type_symbol
_atom_site_fract_x
_atom_site_fract_y
_atom_site_fract_z
_atom_type_partial_charge
Mg0 Mg 0.16537 0.35845 0.12191 0.0
C1 C 0.06321 0.25311 0.15262 0.0
O2 O 0.10793 0.23959 0.15575 0.0
C3 C 0.23566 0.36963 0.0745 0.0
O4 O 0.26863 0.42463 0.08532 0.0
C5 C 0.15426 0.47097 0.13507 0.0
O6 O 0.12905 0.43631 0.1553 0.0
O7 O 0.17538 0.45079 0.11769 0.0
O8 O 0.07246 0.29745 0.1377 0.0
O9 O 0.22964 0.35945 0.15088 0.0
C10 C 0.26071 0.33184 0.1472 0.0
O11 O 0.25756 0.30672 0.12478 0.0
O12 O 0.18573 0.32941 0.08537 0.0
Mg13 Mg 0.82608 0.13154 0.28335 0.0
C14 C 0.90315 0.22266 0.32637 0.0
O15 O 0.8515 0.19144 0.33946 0.0
C16 C 0.69326 0.09629 0.27097 0.0
O17 O 0.69223 0.04353 0.26661 0.0
C18 C 0.87221 0.16978 0.22969 0.0
O19 O 0.84685 0.20455 0.23402 0.0
O20 O 0.86704 0.13056 0.24658 0.0
O21 O 0.90325 0.20969 0.30292 0.0
O22 O 0.80328 0.05008 0.30721 0.0
C23 C 0.76458 0.03721 0.32529 0.0
O24 O 0.73691 0.07049 0.32769 0.0
O25 O 0.74431 0.14319 0.27832 0.0
Mg26 Mg 0.66915 0.79954 0.4589 0.0
C27 C 0.73616 0.90046 0.49402 0.0
O28 O 0.77784 0.89337 0.48128 0.0
C29 C 0.54446 0.70954 0.43365 0.0
O30 O 0.5703 0.74835 0.41461 0.0
C31 C 0.73038 0.86073 0.40536 0.0
O32 O 0.75982 0.82886 0.40534 0.0
O33 O 0.6951 0.85532 0.42393 0.0
O34 O 0.67871 0.86564 0.4884 0.0
O35 O 0.72977 0.76603 0.47476 0.0
C36 C 0.70313 0.71532 0.48728 0.0
O37 O 0.64193 0.68157 0.4864 0.0
O38 O 0.57415 0.72058 0.4547 0.0
Mg39 Mg 0.87799 0.6641 0.62181 0.0
C40 C 0.98053 0.76442 0.65469 0.0
O41 O 0.93618 0.77808 0.6584 0.0
C42 C 0.81413 0.65372 0.57181 0.0
O43 O 0.78546 0.59605 0.58011 0.0
C44 C 0.88893 0.55137 0.63423 0.0
O45 O 0.91606 0.58661 0.65431 0.0
O46 O 0.86646 0.5712 0.61714 0.0
O47 O 0.97133 0.72244 0.63839 0.0
O48 O 0.8159 0.66342 0.65135 0.0
C49 C 0.78341 0.68983 0.64845 0.0
O50 O 0.78243 0.71318 0.62608 0.0
O51 O 0.85836 0.69529 0.58534 0.0
Mg52 Mg 0.21627 0.87057 0.78848 0.0
C53 C 0.10406 0.81276 0.82002 0.0
O54 O 0.11091 0.86719 0.81381 0.0
C55 C 0.35057 0.90683 0.784 0.0
O56 O 0.35325 0.96083 0.78676 0.0
C57 C 0.16744 0.83325 0.73412 0.0
O58 O 0.19457 0.79955 0.737 0.0
O59 O 0.17169 0.86978 0.75211 0.0
O60 O 0.14266 0.7976 0.81139 0.0
O61 O 0.24801 0.95719 0.81037 0.0
C62 C 0.24868 0.9532 0.83459 0.0
O63 O 0.23126 0.8987 0.84491 0.0
O64 O 0.29716 0.85767 0.78351 0.0
Mg65 Mg 0.36744 0.21526 0.95975 0.0
C66 C 0.30197 0.11689 0.99519 0.0
O67 O 0.26087 0.12656 0.98308 0.0
C68 C 0.4685 0.33106 0.93599 0.0
O69 O 0.41785 0.32565 0.9252 0.0
C70 C 0.346 0.16191 0.90456 0.0
O71 O 0.40153 0.20982 0.90015 0.0
O72 O 0.32147 0.15617 0.9264 0.0
O73 O 0.35913 0.14911 0.98896 0.0
O74 O 0.31567 0.25584 0.9775 0.0
C75 C 0.34607 0.3023 0.9923 0.0
O76 O 0.40713 0.32796 0.99353 0.0
O77 O 0.46276 0.28962 0.95182 0.0
Mg78 Mg 0.67902 0.86923 0.76183 0.0
C79 C 0.70644 0.77505 0.7361 0.0
O80 O 0.73473 0.77976 0.75797 0.0
C81 C 0.58357 0.90449 0.77498 0.0
O82 O 0.63634 0.95717 0.77797 0.0
C83 C 0.69078 0.82695 0.81543 0.0
O84 O 0.62962 0.7962 0.81321 0.0
O85 O 0.7231 0.86198 0.79719 0.0
O86 O 0.67645 0.80406 0.73322 0.0
O87 O 0.73225 0.95965 0.74316 0.0
C88 C 0.77706 0.97082 0.72821 0.0
O89 O 0.79551 0.92962 0.7262 0.0
O90 O 0.58588 0.85611 0.76861 0.0
Mg91 Mg 0.8198 0.67721 0.93351 0.0
C92 C 0.8107 0.7703 0.8984 0.0
O93 O 0.87075 0.7902 0.89667 0.0
C94 C 0.86166 0.66649 0.98581 0.0
O95 O 0.83813 0.60985 0.9765 0.0
C96 C 0.70176 0.55935 0.91858 0.0
O97 O 0.70369 0.59734 0.90068 0.0
O98 O 0.74677 0.57898 0.93452 0.0
O99 O 0.77857 0.72742 0.91436 0.0
O100 O 0.90028 0.69816 0.91017 0.0
C101 C 0.90386 0.67103 0.89019 0.0
O102 O 0.85525 0.61854 0.88264 0.0
O103 O 0.85819 0.70735 0.97223 0.0
Mg104 Mg 0.15015 0.8127 0.10091 0.0
C105 C 0.19936 0.92723 0.07281 0.0
O106 O 0.15101 0.92107 0.08557 0.0
C107 C 0.14589 0.69975 0.1234 0.0
O108 O 0.11786 0.71479 0.14091 0.0
C109 C 0.13704 0.88208 0.14826 0.0
O110 O 0.08991 0.87983 0.13559 0.0
O111 O 0.16598 0.85647 0.13873 0.0
O112 O 0.21516 0.88597 0.07569 0.0
O113 O 0.06004 0.78351 0.08181 0.0
C114 C 0.02859 0.7287 0.07262 0.0
O115 O 0.04657 0.68815 0.07784 0.0
O116 O 0.16631 0.73369 0.10364 0.0
Mg117 Mg 0.37271 0.15404 0.25811 0.0
C118 C 0.35078 0.25138 0.23252 0.0
O119 O 0.32864 0.25167 0.25519 0.0
C120 C 0.4637 0.10536 0.25952 0.0
O121 O 0.41089 0.05304 0.256 0.0
C122 C 0.30317 0.16055 0.30721 0.0
O123 O 0.25419 0.10991 0.29847 0.0
O124 O 0.35401 0.1843 0.29478 0.0
O125 O 0.37594 0.21803 0.22883 0.0
O126 O 0.30207 0.06342 0.24265 0.0
C127 C 0.25437 0.05844 0.23099 0.0
O128 O 0.24365 0.10528 0.23197 0.0
O129 O 0.46245 0.15605 0.26097 0.0
Mg130 Mg 0.21125 0.34207 0.42683 0.0
C131 C 0.27956 0.29955 0.39142 0.0
O132 O 0.31991 0.35951 0.39257 0.0
C133 C 0.16459 0.35249 0.47702 0.0
O134 O 0.18732 0.4081 0.46691 0.0
C135 C 0.3118 0.47861 0.41662 0.0
O136 O 0.27714 0.47156 0.39642 0.0
O137 O 0.29534 0.43308 0.43179 0.0
O138 O 0.23098 0.27773 0.40527 0.0
O139 O 0.13791 0.34495 0.40481 0.0
C140 C 0.13738 0.34265 0.38059 0.0
O141 O 0.18598 0.34654 0.36882 0.0
O142 O 0.16962 0.31107 0.46454 0.0
Mg143 Mg 0.8908 0.21003 0.59689 0.0
C144 C 0.83822 0.09252 0.57124 0.0
O145 O 0.88694 0.0998 0.58437 0.0
C146 C 0.89883 0.32394 0.62071 0.0
O147 O 0.93476 0.31335 0.63604 0.0
C148 C 0.84753 0.15665 0.6494 0.0
O149 O 0.80927 0.17781 0.64446 0.0
O150 O 0.88972 0.16632 0.63327 0.0
O151 O 0.82289 0.13432 0.5731 0.0
O152 O 0.9768 0.24152 0.57513 0.0
C153 C 1.00206 0.29414 0.56408 0.0
O154 O 0.97977 0.33162 0.56832 0.0
O155 O 0.8719 0.28672 0.60214 0.0
C156 C 0.17668 0.62285 0.10731 0.0
C157 C 0.1509 0.64276 0.12647 0.0
H158 H 0.19819 0.5531 0.09493 0.0
C159 C 0.12822 0.60666 0.14866 0.0
H160 H 0.19459 0.64954 0.08998 0.0
C161 C 0.13029 0.55164 0.1515 0.0
C162 C 0.15508 0.53107 0.13222 0.0
H163 H 0.10817 0.62053 0.16386 0.0
H164 H 0.11173 0.52489 0.16877 0.0
C165 C 0.17874 0.56757 0.11015 0.0
C166 C 0.63529 0.15631 0.27105 0.0
C167 C 0.63526 0.09988 0.26779 0.0
H168 H 0.58139 0.20263 0.27089 0.0
C169 C 0.57865 0.04598 0.26154 0.0
H170 H 0.67807 0.19874 0.27584 0.0
C171 C 0.52347 0.04816 0.25879 0.0
C172 C 0.52322 0.10436 0.26211 0.0
H173 H 0.57669 1.00168 0.25889 0.0
H174 H 0.48086 1.00548 0.25408 0.0
C175 C 0.57988 0.15856 0.26817 0.0
C176 C 0.46015 0.60451 0.44849 0.0
C177 C 0.48341 0.65164 0.42995 0.0
H178 H 0.3881 0.51297 0.45881 0.0
C179 C 0.44888 0.6419 0.4073 0.0
H180 H 0.48559 0.61037 0.46613 0.0
C181 C 0.39288 0.58615 0.40313 0.0
C182 C 0.3702 0.53854 0.42144 0.0
H183 H 0.46533 0.6772 0.39261 0.0
H184 H 0.36783 0.58011 0.38537 0.0
C185 C 0.40432 0.54854 0.44424 0.0
C186 C 0.86002 0.45288 0.60966 0.0
C187 C 0.88801 0.49128 0.63111 0.0
H188 H 0.84107 0.36967 0.58954 0.0
C189 C 0.91722 0.47273 0.64942 0.0
H190 H 0.83705 0.46572 0.59521 0.0
C191 C 0.91966 0.41801 0.64614 0.0
C192 C 0.89276 0.38012 0.62452 0.0
H193 H 0.93917 0.50098 0.66621 0.0
H194 H 0.94333 0.40581 0.66053 0.0
C195 C 0.86226 0.39778 0.60642 0.0
C196 C 0.46545 0.84791 0.77493 0.0
C197 C 0.52315 0.90329 0.77783 0.0
H198 H 0.36537 0.80525 0.77464 0.0
C199 C 0.52308 0.95892 0.783 0.0
H200 H 0.46384 0.80424 0.77093 0.0
C201 C 0.4671 0.95954 0.78497 0.0
C202 C 0.40935 0.9045 0.78195 0.0
H203 H 0.56647 1.0025 0.78534 0.0
H204 H 0.46931 1.00354 0.78887 0.0
C205 C 0.40906 0.84849 0.77704 0.0
C206 C 0.536 0.42595 0.91025 0.0
C207 C 0.53023 0.3863 0.93048 0.0
H208 H 0.59439 0.51059 0.89043 0.0
C209 C 0.58297 0.40182 0.94583 0.0
H210 H 0.49653 0.41526 0.89791 0.0
C211 C 0.6395 0.45711 0.94159 0.0
C212 C 0.64451 0.49769 0.92179 0.0
H213 H 0.5801 0.37224 0.96157 0.0
H214 H 0.67877 0.46872 0.95418 0.0
C215 C 0.59237 0.48071 0.9059 0.0
C216 C 0.34749 0.26878 0.18551 0.0
C217 C 0.33673 0.28053 0.21066 0.0
H218 H 0.33228 0.27608 0.14574 0.0
C219 C 0.30665 0.31532 0.21462 0.0
H220 H 0.37063 0.24226 0.18175 0.0
C221 C 0.28475 0.33487 0.19394 0.0
C222 C 0.29219 0.31982 0.16884 0.0
H223 H 0.29787 0.3255 0.23374 0.0
H224 H 0.25964 0.35945 0.19772 0.0
C225 C 0.32535 0.28808 0.16484 0.0
C226 C 0.01992 0.28839 0.32639 0.0
C227 C 0.96318 0.26396 0.33963 0.0
H228 H 0.11954 0.33297 0.32894 0.0
C229 C 0.96495 0.27374 0.3661 0.0
H230 H 0.02038 0.2822 0.30596 0.0
C231 C 0.02202 0.30325 0.37928 0.0
C232 C 0.07849 0.32328 0.36627 0.0
H233 H 0.92217 0.256 0.37685 0.0
H234 H 0.02153 0.30725 0.39983 0.0
C235 C 0.07691 0.31756 0.33958 0.0
C236 C 0.8372 1.0061 0.5468 0.0
C237 C 0.80765 0.04036 0.55279 0.0
H238 H 0.83763 0.93559 0.52361 0.0
C239 C 0.75133 0.02563 0.54026 0.0
H240 H 0.88053 0.01596 0.55606 0.0
C241 C 0.72596 0.97821 0.5217 0.0
C242 C 0.7574 0.94607 0.51512 0.0
H243 H 0.72743 0.05114 0.54455 0.0
H244 H 0.68322 0.96826 0.5119 0.0
C245 C 0.81271 0.96004 0.52809 0.0
C246 C 0.76937 0.69186 0.69575 0.0
C247 C 0.75555 0.70305 0.67092 0.0
H248 H 0.76446 0.70553 0.73581 0.0
C249 C 0.71965 0.7323 0.66788 0.0
H250 H 0.79684 0.66937 0.69882 0.0
C251 C 0.70078 0.75277 0.68914 0.0
C252 C 0.71778 0.74486 0.71392 0.0
H253 H 0.7079 0.74137 0.64904 0.0
H254 H 0.6752 0.77721 0.68604 0.0
C255 C 0.75088 0.71272 0.717 0.0
C256 C 0.99736 0.76962 0.87646 0.0
C257 C 0.95889 0.70487 0.87347 0.0
H258 H 0.07255 0.85398 0.86165 0.0
C259 C 0.97128 0.67476 0.85347 0.0
H260 H 0.98933 0.79449 0.89161 0.0
C261 C 0.02045 0.70918 0.83651 0.0
C262 C 0.05652 0.77425 0.83895 0.0
H263 H 0.9425 0.62494 0.85071 0.0
H264 H 0.0286 0.6854 0.82095 0.0
C265 C 0.04496 0.8039 0.85922 0.0
C266 C 0.28544 0.9915 0.04157 0.0
C267 C 0.22983 0.97823 0.05403 0.0
H268 H 0.35318 0.04718 1.01323 0.0
C269 C 0.20116 0.01328 0.04785 0.0
H270 H 0.3087 0.96539 0.04602 0.0
C271 C 0.22586 0.05883 0.02913 0.0
C272 C 0.2805 0.07145 1.01625 0.0
H273 H 0.15844 1.00463 0.05705 0.0
H274 H 0.20163 0.084 1.0246 0.0
C275 C 0.31099 0.03833 1.02294 0.0
C276 C 0.22593 0.29614 0.03898 0.0
C277 C 0.26019 0.3539 0.05154 0.0
H278 H 0.22573 0.23473 1.00996 0.0
C279 C 0.32039 0.39624 0.04273 0.0
H280 H 0.17937 0.26254 0.04522 0.0
C281 C 0.34692 0.38023 1.02275 0.0
C282 C 0.31375 0.32177 1.01078 0.0
H283 H 0.34815 0.44126 0.0518 0.0
H284 H 0.39423 0.41323 1.0171 0.0
C285 C 0.25233 0.28037 1.01867 0.0
C286 C 0.95298 0.15707 0.20557 0.0
C287 C 0.91422 0.18341 0.20748 0.0
H288 H 0.03001 0.15799 0.18665 0.0
C289 C 0.92036 0.22775 0.18923 0.0
H290 H 0.94948 0.12271 0.21922 0.0
C291 C 0.96646 0.24791 0.17047 0.0
C292 C 1.00778 0.2244 0.16955 0.0
H293 H 0.89106 0.24877 0.19 0.0
H294 H 0.97145 0.28397 0.15743 0.0
C295 C 0.99928 0.17743 0.18687 0.0
C296 C 0.71157 0.97707 0.36458 0.0
C297 C 0.75403 0.98915 0.34471 0.0
H298 H 0.67093 0.92769 0.39899 0.0
C299 C 0.78767 0.95706 0.34447 0.0
H300 H 0.68472 1.0007 0.36544 0.0
C301 C 0.77973 0.91476 0.36393 0.0
C302 C 0.73805 0.90374 0.38406 0.0
H303 H 0.82084 0.96529 0.32948 0.0
H304 H 0.80682 0.89136 0.36336 0.0
C305 C 0.70373 0.93509 0.38394 0.0
C306 C 0.81975 0.73065 0.5386 0.0
C307 C 0.79107 0.66954 0.54822 0.0
H308 H 0.81522 0.79313 0.51131 0.0
C309 C 0.7373 0.62311 0.53574 0.0
H310 H 0.86133 0.76751 0.54767 0.0
C311 C 0.71095 0.63777 0.51512 0.0
C312 C 0.73793 0.69912 0.50611 0.0
H313 H 0.71401 0.57546 0.54242 0.0
H314 H 0.66814 0.60114 0.50667 0.0
C315 C 0.79361 0.74524 0.51764 0.0
C316 C 0.11987 0.78065 0.69229 0.0
C317 C 0.12595 0.82263 0.71171 0.0
H318 H 0.06996 0.72993 0.65887 0.0
C319 C 0.08831 0.85035 0.71047 0.0
H320 H 0.14831 0.75866 0.69252 0.0
C321 C 0.0433 0.83382 0.69114 0.0
C322 C 0.03492 0.78932 0.6725 0.0
H323 H 0.09183 0.88305 0.72501 0.0
H324 H 1.01348 0.85429 0.69139 0.0
C325 C 0.07499 0.76428 0.6729 0.0
C326 C 0.27028 0.05072 0.89338 0.0
C327 C 0.31622 0.11046 0.88561 0.0
H328 H 0.21352 0.95448 0.88338 0.0
C329 C 0.3366 0.11901 0.86015 0.0
H330 H 0.25356 0.04235 0.91283 0.0
C331 C 0.31277 0.06851 0.84308 0.0
C332 C 0.26918 1.00834 0.85133 0.0
H333 H 0.37185 0.1645 0.85355 0.0
H334 H 0.33032 0.07609 0.82377 0.0
C335 C 0.24754 1.00023 0.87653 0.0
C336 C 0.68566 0.77525 0.85739 0.0
C337 C 0.72153 0.81719 0.83808 0.0
H338 H 0.68535 0.72791 0.89168 0.0
C339 C 0.78697 0.84737 0.8401 0.0
H340 H 0.63513 0.7513 0.85654 0.0
C341 C 0.81575 0.83415 0.86034 0.0
C342 C 0.77989 0.79032 0.87909 0.0
H343 H 0.81611 0.88014 0.8257 0.0
H344 H 0.86626 0.85701 0.86081 0.0
C345 C 0.71447 0.76196 0.87764 0.0
C346 C 0.93302 0.74479 1.01887 0.0
C347 C 0.89778 0.6828 1.01021 0.0
H348 H 1.00166 0.80816 0.04565 0.0
C349 C 0.90112 0.63597 1.02412 0.0
H350 H 0.93151 0.78202 1.00868 0.0
C351 C 0.9412 0.65087 0.04514 0.0
C352 C 0.97897 0.71302 0.05303 0.0
H353 H 0.87434 0.58764 1.01823 0.0
H354 H 0.94407 0.61362 0.0547 0.0
C355 C 0.97312 0.75974 0.04012 0.0
C356 C 0.21188 0.92331 0.18554 0.0
C357 C 0.16143 0.9207 0.17182 0.0
H358 H 0.28017 0.96794 0.21523 0.0
C359 C 0.13769 0.95905 0.17973 0.0
H360 H 0.23116 0.89419 0.1801 0.0
C361 C 0.16593 1.00148 0.19985 0.0
C362 C 0.2184 1.00641 0.2127 0.0
H363 H 0.09877 0.95819 0.16973 0.0
H364 H 0.14791 0.03203 0.20471 0.0
C365 C 0.23989 0.9655 0.20579 0.0
C366 C 0.3489 0.25093 0.33782 0.0
C367 C 0.29839 0.19297 0.33031 0.0
H368 H 0.3827 0.32942 0.36295 0.0
C369 C 0.2428 0.16808 0.34442 0.0
H370 H 0.39253 0.27157 0.32752 0.0
C371 C 0.23729 0.20131 0.36499 0.0
C372 C 0.28712 0.26037 0.37181 0.0
H373 H 0.203 0.1235 0.33925 0.0
H374 H 0.19328 0.18163 0.37498 0.0
C375 C 0.34326 0.2842 0.35821 0.0
C376 C 0.12091 0.38448 0.51314 0.0
C377 C 0.12869 0.338 0.50114 0.0
H378 H 0.0756 0.40724 0.54236 0.0
C379 C 0.09878 0.27776 0.5116 0.0
H380 H 0.14348 0.43154 0.50579 0.0
C381 C 0.05988 0.26389 0.53291 0.0
C382 C 0.04984 0.30989 0.54403 0.0
H383 H 0.10389 0.24091 0.5029 0.0
H384 H 0.03574 0.21657 0.53998 0.0
C385 C 0.0819 0.37058 0.5342 0.0
C386 C 0.77359 0.06191 0.70893 0.0
C387 C 0.80151 0.02452 0.71044 0.0
H388 H 0.76644 0.13305 0.68862 0.0
C389 C 0.84928 0.03544 0.69317 0.0
H390 H 0.7368 0.05498 0.72194 0.0
C391 C 0.86649 0.08048 0.67407 0.0
C392 C 0.83606 0.11541 0.6717 0.0
H393 H 0.87202 1.00772 0.69383 0.0
H394 H 0.90184 0.08608 0.66054 0.0
C395 C 0.79054 0.10667 0.68976 0.0
loop_
_geom_bond_atom_site_label_1
_geom_bond_atom_site_label_2
_geom_bond_distance
_geom_bond_site_symmetry_2
_ccdc_geom_bond_type
Mg0 O7 2.141 . S
Mg0 O8 2.048 . S
Mg0 O9 2.048 . S
Mg0 O12 2.141 . S
C1 O2 1.313 . S
C1 O8 1.195 . S
O2 C1 1.313 . S
C3 O4 1.245 . S
C3 O12 1.289 . S
O4 C3 1.245 . S
C5 O6 1.245 . S
C5 O7 1.289 . S
O6 C5 1.245 . S
O7 Mg0 2.141 . S
O7 C5 1.289 . S
O8 Mg0 2.048 . S
O8 C1 1.195 . S
O9 Mg0 2.048 . S
O9 C10 1.195 . S
C10 O9 1.195 . S
C10 O11 1.313 . S
O11 C10 1.313 . S
O12 Mg0 2.141 . S
O12 C3 1.289 . S
Mg13 O20 2.141 . S
Mg13 O21 2.048 . S
Mg13 O22 2.048 . S
Mg13 O25 2.141 . S
C14 O15 1.313 . S
C14 O21 1.195 . S
O15 C14 1.313 . S
C16 O17 1.245 . S
C16 O25 1.289 . S
O17 C16 1.245 . S
C18 O19 1.245 . S
C18 O20 1.289 . S
O19 C18 1.245 . S
O20 Mg13 2.141 . S
O20 C18 1.289 . S
O21 Mg13 2.048 . S
O21 C14 1.195 . S
O22 Mg13 2.048 . S
O22 C23 1.195 . S
C23 O22 1.195 . S
C23 O24 1.313 . S
O24 C23 1.313 . S
O25 Mg13 2.141 . S
O25 C16 1.289 . S
Mg26 O33 2.141 . S
Mg26 O34 2.048 . S
Mg26 O35 2.048 . S
Mg26 O38 2.141 . S
C27 O28 1.313 . S
C27 O34 1.195 . S
O28 C27 1.313 . S
C29 O30 1.245 . S
C29 O38 1.289 . S
O30 C29 1.245 . S
C31 O32 1.245 . S
C31 O33 1.289 . S
O32 C31 1.245 . S
O33 Mg26 2.141 . S
O33 C31 1.289 . S
O34 Mg26 2.048 . S
O34 C27 1.195 . S
O35 Mg26 2.048 . S
O35 C36 1.195 . S
C36 O35 1.195 . S
C36 O37 1.313 . S
O37 C36 1.313 . S
O38 Mg26 2.141 . S
O38 C29 1.289 . S
Mg39 O46 2.141 . S
Mg39 O47 2.048 . S
Mg39 O48 2.048 . S
Mg39 O51 2.141 . S
C40 O41 1.313 . S
C40 O47 1.195 . S
O41 C40 1.313 . S
C42 O43 1.245 . S
C42 O51 1.289 . S
O43 C42 1.245 . S
C44 O45 1.245 . S
C44 O46 1.289 . S
O45 C44 1.245 . S
O46 Mg39 2.141 . S
O46 C44 1.289 . S
O47 Mg39 2.048 . S
O47 C40 1.195 . S
O48 Mg39 2.048 . S
O48 C49 1.195 . S
C49 O48 1.195 . S
C49 O50 1.313 . S
O50 C49 1.313 . S
O51 Mg39 2.141 . S
O51 C42 1.289 . S
Mg52 O59 2.141 . S
Mg52 O60 2.048 . S
Mg52 O61 2.048 . S
Mg52 O64 2.141 . S
C53 O54 1.313 . S
C53 O60 1.195 . S
O54 C53 1.313 . S
C55 O56 1.245 . S
C55 O64 1.289 . S
O56 C55 1.245 . S
C57 O58 1.245 . S
C57 O59 1.289 . S
O58 C57 1.245 . S
O59 Mg52 2.141 . S
O59 C57 1.289 . S
O60 Mg52 2.048 . S
O60 C53 1.195 . S
O61 Mg52 2.048 . S
O61 C62 1.195 . S
C62 O61 1.195 . S
C62 O63 1.313 . S
O63 C62 1.313 . S
O64 Mg52 2.141 . S
O64 C55 1.289 . S
Mg65 O72 2.141 . S
Mg65 O73 2.048 . S
Mg65 O74 2.048 . S
Mg65 O77 2.141 . S
C66 O67 1.313 . S
C66 O73 1.195 . S
O67 C66 1.313 . S
C68 O69 1.245 . S
C68 O77 1.289 . S
O69 C68 1.245 . S
C70 O71 1.245 . S
C70 O72 1.289 . S
O71 C70 1.245 . S
O72 Mg65 2.141 . S
O72 C70 1.289 . S
O73 Mg65 2.048 . S
O73 C66 1.195 . S
O74 Mg65 2.048 . S
O74 C75 1.195 . S
C75 O74 1.195 . S
C75 O76 1.313 . S
O76 C75 1.313 . S
O77 Mg65 2.141 . S
O77 C68 1.289 . S
Mg78 O85 2.141 . S
Mg78 O86 2.048 . S
Mg78 O87 2.048 . S
Mg78 O90 2.141 . S
C79 O80 1.313 . S
C79 O86 1.195 . S
O80 C79 1.313 . S
C81 O82 1.245 . S
C81 O90 1.289 . S
O82 C81 1.245 . S
C83 O84 1.245 . S
C83 O85 1.289 . S
O84 C83 1.245 . S
O85 Mg78 2.141 . S
O85 C83 1.289 . S
O86 Mg78 2.048 . S
O86 C79 1.195 . S
O87 Mg78 2.048 . S
O87 C88 1.195 . S
C88 O87 1.195 . S
C88 O89 1.313 . S
O89 C88 1.313 . S
O90 Mg78 2.141 . S
O90 C81 1.289 . S
Mg91 O98 2.141 . S
Mg91 O99 2.048 . S
Mg91 O100 2.048 . S
Mg91 O103 2.141 . S
C92 O93 1.313 . S
C92 O99 1.195 . S
O93 C92 1.313 . S
C94 O95 1.245 . S
C94 O103 1.289 . S
O95 C94 1.245 . S
C96 O97 1.245 . S
C96 O98 1.289 . S
O97 C96 1.245 . S
O98 Mg91 2.141 . S
O98 C96 1.289 . S
O99 Mg91 2.048 . S
O99 C92 1.195 . S
O100 Mg91 2.048 . S
O100 C101 1.195 . S
C101 O100 1.195 . S
C101 O102 1.313 . S
O102 C101 1.313 . S
O103 Mg91 2.141 . S
O103 C94 1.289 . S
Mg104 O111 2.141 . S
Mg104 O112 2.048 . S
Mg104 O113 2.048 . S
Mg104 O116 2.141 . S
C105 O106 1.313 . S
C105 O112 1.195 . S
O106 C105 1.313 . S
C107 O108 1.245 . S
C107 O116 1.289 . S
O108 C107 1.245 . S
C109 O110 1.245 . S
C109 O111 1.289 . S
O110 C109 1.245 . S
O111 Mg104 2.141 . S
O111 C109 1.289 . S
O112 Mg104 2.048 . S
O112 C105 1.195 . S
O113 Mg104 2.048 . S
O113 C114 1.195 . S
C114 O113 1.195 . S
C114 O115 1.313 . S
O115 C114 1.313 . S
O116 Mg104 2.141 . S
O116 C107 1.289 . S
Mg117 O124 2.141 . S
Mg117 O125 2.048 . S
Mg117 O126 2.048 . S
Mg117 O129 2.141 . S
C118 O119 1.313 . S
C118 O125 1.195 . S
O119 C118 1.313 . S
C120 O121 1.245 . S
C120 O129 1.289 . S
O121 C120 1.245 . S
C122 O123 1.245 . S
C122 O124 1.289 . S
O123 C122 1.245 . S
O124 Mg117 2.141 . S
O124 C122 1.289 . S
O125 Mg117 2.048 . S
O125 C118 1.195 . S
O126 Mg117 2.048 . S
O126 C127 1.195 . S
C127 O126 1.195 . S
C127 O128 1.313 . S
O128 C127 1.313 . S
O129 Mg117 2.141 . S
O129 C120 1.289 . S
Mg130 O137 2.141 . S
Mg130 O138 2.048 . S
Mg130 O139 2.048 . S
Mg130 O142 2.141 . S
C131 O132 1.313 . S
C131 O138 1.195 . S
O132 C131 1.313 . S
C133 O134 1.245 . S
C133 O142 1.289 . S
O134 C133 1.245 . S
C135 O136 1.245 . S
C135 O137 1.289 . S
O136 C135 1.245 . S
O137 Mg130 2.141 . S
O137 C135 1.289 . S
O138 Mg130 2.048 . S
O138 C131 1.195 . S
O139 Mg130 2.048 . S
O139 C140 1.195 . S
C140 O139 1.195 . S
C140 O141 1.313 . S
O141 C140 1.313 . S
O142 Mg130 2.141 . S
O142 C133 1.289 . S
Mg143 O150 2.141 . S
Mg143 O151 2.048 . S
Mg143 O152 2.048 . S
Mg143 O155 2.141 . S
C144 O145 1.313 . S
C144 O151 1.195 . S
O145 C144 1.313 . S
C146 O147 1.245 . S
C146 O155 1.289 . S
O147 C146 1.245 . S
C148 O149 1.245 . S
C148 O150 1.289 . S
O149 C148 1.245 . S
O150 Mg143 2.141 . S
O150 C148 1.289 . S
O151 Mg143 2.048 . S
O151 C144 1.195 . S
O152 Mg143 2.048 . S
O152 C153 1.195 . S
C153 O152 1.195 . S
C153 O154 1.313 . S
O154 C153 1.313 . S
O155 Mg143 2.141 . S
O155 C146 1.289 . S
C156 C157 1.387 . S
C156 H160 0.950 . S
C156 C165 1.390 . S
C157 C156 1.387 . S
C157 C159 1.387 . S
H158 C165 0.950 . S
C159 C157 1.387 . S
C159 C161 1.390 . S
C159 H163 0.950 . S
H160 C156 0.950 . S
C161 C159 1.390 . S
C161 C162 1.387 . S
C161 H164 0.950 . S
C162 C161 1.387 . S
C162 C165 1.387 . S
H163 C159 0.950 . S
H164 C161 0.950 . S
C165 C156 1.390 . S
C165 H158 0.950 . S
C165 C162 1.387 . S
C166 C167 1.387 . S
C166 H170 0.950 . S
C166 C175 1.390 . S
C167 C166 1.387 . S
C167 C169 1.387 . S
H168 C175 0.950 . S
C169 C167 1.387 . S
C169 C171 1.390 . S
C169 H173 0.950 1_545 S
H170 C166 0.950 . S
C171 C169 1.390 . S
C171 C172 1.387 . S
C171 H174 0.950 1_545 S
C172 C171 1.387 . S
C172 C175 1.387 . S
H173 C169 0.950 1_565 S
H174 C171 0.950 1_565 S
C175 C166 1.390 . S
C175 H168 0.950 . S
C175 C172 1.387 . S
C176 C177 1.387 . S
C176 H180 0.950 . S
C176 C185 1.390 . S
C177 C176 1.387 . S
C177 C179 1.387 . S
H178 C185 0.950 . S
C179 C177 1.387 . S
C179 C181 1.390 . S
C179 H183 0.950 . S
H180 C176 0.950 . S
C181 C179 1.390 . S
C181 C182 1.387 . S
C181 H184 0.950 . S
C182 C181 1.387 . S
C182 C185 1.387 . S
H183 C179 0.950 . S
H184 C181 0.950 . S
C185 C176 1.390 . S
C185 H178 0.950 . S
C185 C182 1.387 . S
C186 C187 1.387 . S
C186 H190 0.950 . S
C186 C195 1.390 . S
C187 C186 1.387 . S
C187 C189 1.387 . S
H188 C195 0.950 . S
C189 C187 1.387 . S
C189 C191 1.390 . S
C189 H193 0.950 . S
H190 C186 0.950 . S
C191 C189 1.390 . S
C191 C192 1.387 . S
C191 H194 0.950 . S
C192 C191 1.387 . S
C192 C195 1.387 . S
H193 C189 0.950 . S
H194 C191 0.950 . S
C195 C186 1.390 . S
C195 H188 0.950 . S
C195 C192 1.387 . S
C196 C197 1.387 . S
C196 H200 0.950 . S
C196 C205 1.390 . S
C197 C196 1.387 . S
C197 C199 1.387 . S
H198 C205 0.950 . S
C199 C197 1.387 . S
C199 C201 1.390 . S
C199 H203 0.950 1_565 S
H200 C196 0.950 . S
C201 C199 1.390 . S
C201 C202 1.387 . S
C201 H204 0.950 1_565 S
C202 C201 1.387 . S
C202 C205 1.387 . S
H203 C199 0.950 1_545 S
H204 C201 0.950 1_545 S
C205 C196 1.390 . S
C205 H198 0.950 . S
C205 C202 1.387 . S
C206 C207 1.387 . S
C206 H210 0.950 . S
C206 C215 1.390 . S
C207 C206 1.387 . S
C207 C209 1.387 . S
H208 C215 0.950 . S
C209 C207 1.387 . S
C209 C211 1.390 . S
C209 H213 0.950 . S
H210 C206 0.950 . S
C211 C209 1.390 . S
C211 C212 1.387 . S
C211 H214 0.950 . S
C212 C211 1.387 . S
C212 C215 1.387 . S
H213 C209 0.950 . S
H214 C211 0.950 . S
C215 C206 1.390 . S
C215 H208 0.950 . S
C215 C212 1.387 . S
C216 C217 1.387 . S
C216 H220 0.950 . S
C216 C225 1.390 . S
C217 C216 1.387 . S
C217 C219 1.387 . S
H218 C225 0.950 . S
C219 C217 1.387 . S
C219 C221 1.390 . S
C219 H223 0.950 . S
H220 C216 0.950 . S
C221 C219 1.390 . S
C221 C222 1.387 . S
C221 H224 0.950 . S
C222 C221 1.387 . S
C222 C225 1.387 . S
H223 C219 0.950 . S
H224 C221 0.950 . S
C225 C216 1.390 . S
C225 H218 0.950 . S
C225 C222 1.387 . S
C226 C227 1.393 . S
C226 H230 0.957 . S
C226 C235 1.378 1_655 S
C227 C226 1.393 . S
C227 C229 1.387 . S
H228 C235 0.950 . S
C229 C227 1.387 . S
C229 C231 1.378 1_655 S
C229 H233 0.950 . S
H230 C226 0.957 . S
C231 C229 1.378 1_455 S
C231 C232 1.393 . S
C231 H234 0.957 . S
C232 C231 1.393 . S
C232 C235 1.387 . S
H233 C229 0.950 . S
H234 C231 0.957 . S
C235 C226 1.378 1_455 S
C235 H228 0.950 . S
C235 C232 1.387 . S
C236 C237 1.387 . S
C236 H240 0.950 . S
C236 C245 1.390 1_545 S
C237 C236 1.387 . S
C237 C239 1.387 . S
H238 C245 0.950 . S
C239 C237 1.387 . S
C239 C241 1.390 1_545 S
C239 H243 0.950 . S
H240 C236 0.950 . S
C241 C239 1.390 1_565 S
C241 C242 1.387 . S
C241 H244 0.950 . S
C242 C241 1.387 . S
C242 C245 1.387 . S
H243 C239 0.950 . S
H244 C241 0.950 . S
C245 C236 1.390 1_565 S
C245 H238 0.950 . S
C245 C242 1.387 . S
C246 C247 1.387 . S
C246 H250 0.950 . S
C246 C255 1.390 . S
C247 C246 1.387 . S
C247 C249 1.387 . S
H248 C255 0.950 . S
C249 C247 1.387 . S
C249 C251 1.390 . S
C249 H253 0.950 . S
H250 C246 0.950 . S
C251 C249 1.390 . S
C251 C252 1.387 . S
C251 H254 0.950 . S
C252 C251 1.387 . S
C252 C255 1.387 . S
H253 C249 0.950 . S
H254 C251 0.950 . S
C255 C246 1.390 . S
C255 H248 0.950 . S
C255 C252 1.387 . S
C256 C257 1.387 1_455 S
C256 H260 0.950 . S
C256 C265 1.390 . S
C257 C256 1.387 1_655 S
C257 C259 1.387 . S
H258 C265 0.950 . S
C259 C257 1.387 . S
C259 C261 1.390 . S
C259 H263 0.950 . S
H260 C256 0.950 . S
C261 C259 1.390 . S
C261 C262 1.387 1_655 S
C261 H264 0.950 . S
C262 C261 1.387 1_455 S
C262 C265 1.387 . S
H263 C259 0.950 . S
H264 C261 0.950 . S
C265 C256 1.390 . S
C265 H258 0.950 . S
C265 C262 1.387 . S
C266 C267 1.387 . S
C266 H270 0.950 . S
C266 C275 1.390 1_564 S
C267 C266 1.387 . S
C267 C269 1.387 . S
H268 C275 0.950 . S
C269 C267 1.387 . S
C269 C271 1.390 1_564 S
C269 H273 0.950 . S
H270 C266 0.950 . S
C271 C269 1.390 1_546 S
C271 C272 1.387 . S
C271 H274 0.950 . S
C272 C271 1.387 . S
C272 C275 1.387 . S
H273 C269 0.950 . S
H274 C271 0.950 . S
C275 C266 1.390 1_546 S
C275 H268 0.950 . S
C275 C272 1.387 . S
C276 C277 1.387 . S
C276 H280 0.950 . S
C276 C285 1.390 . S
C277 C276 1.387 . S
C277 C279 1.387 . S
H278 C285 0.950 . S
C279 C277 1.387 . S
C279 C281 1.390 . S
C279 H283 0.950 . S
H280 C276 0.950 . S
C281 C279 1.390 . S
C281 C282 1.387 . S
C281 H284 0.950 1_554 S
C282 C281 1.387 . S
C282 C285 1.387 . S
H283 C279 0.950 . S
H284 C281 0.950 1_556 S
C285 C276 1.390 . S
C285 H278 0.950 . S
C285 C282 1.387 . S
C286 C287 1.387 . S
C286 H290 0.950 . S
C286 C295 1.390 1_655 S
C287 C286 1.387 . S
C287 C289 1.387 . S
H288 C295 0.950 . S
C289 C287 1.387 . S
C289 C291 1.390 . S
C289 H293 0.950 . S
H290 C286 0.950 . S
C291 C289 1.390 . S
C291 C292 1.391 . S
C291 H294 0.950 . S
C292 C291 1.391 . S
C292 C295 1.388 1_655 S
H293 C289 0.950 . S
H294 C291 0.950 . S
C295 C286 1.390 1_455 S
C295 H288 0.950 . S
C295 C292 1.388 1_455 S
C296 C297 1.387 . S
C296 H300 0.950 . S
C296 C305 1.390 . S
C297 C296 1.387 . S
C297 C299 1.393 . S
H298 C305 0.950 . S
C299 C297 1.393 . S
C299 C301 1.390 . S
C299 H303 0.950 . S
H300 C296 0.950 . S
C301 C299 1.390 . S
C301 C302 1.387 . S
C301 H304 0.950 . S
C302 C301 1.387 . S
C302 C305 1.387 . S
H303 C299 0.950 . S
H304 C301 0.950 . S
C305 C296 1.390 . S
C305 H298 0.950 . S
C305 C302 1.387 . S
C306 C307 1.387 . S
C306 H310 0.950 . S
C306 C315 1.390 . S
C307 C306 1.387 . S
C307 C309 1.387 . S
H308 C315 0.950 . S
C309 C307 1.387 . S
C309 C311 1.390 . S
C309 H313 0.950 . S
H310 C306 0.950 . S
C311 C309 1.390 . S
C311 C312 1.387 . S
C311 H314 0.950 . S
C312 C311 1.387 . S
C312 C315 1.387 . S
H313 C309 0.950 . S
H314 C311 0.950 . S
C315 C306 1.390 . S
C315 H308 0.950 . S
C315 C312 1.387 . S
C316 C317 1.387 . S
C316 H320 0.950 . S
C316 C325 1.390 . S
C317 C316 1.387 . S
C317 C319 1.387 . S
H318 C325 0.950 . S
C319 C317 1.387 . S
C319 C321 1.390 . S
C319 H323 0.950 . S
H320 C316 0.950 . S
C321 C319 1.390 . S
C321 C322 1.396 . S
C321 H324 0.950 1_455 S
C322 C321 1.396 . S
C322 C325 1.388 . S
H323 C319 0.950 . S
H324 C321 0.950 1_655 S
C325 C316 1.390 . S
C325 H318 0.950 . S
C325 C322 1.388 . S
C326 C327 1.387 . S
C326 H330 0.950 . S
C326 C335 1.390 . S
C327 C326 1.387 . S
C327 C329 1.387 . S
H328 C335 0.950 . S
C329 C327 1.387 . S
C329 C331 1.390 . S
C329 H333 0.950 . S
H330 C326 0.950 . S
C331 C329 1.390 . S
C331 C332 1.391 . S
C331 H334 0.950 1_545 S
C332 C331 1.391 . S
C332 C335 1.389 . S
H333 C329 0.950 . S
H334 C331 0.950 1_565 S
C335 C326 1.390 . S
C335 H328 0.950 . S
C335 C332 1.389 . S
C336 C337 1.387 . S
C336 H340 0.950 . S
C336 C345 1.390 . S
C337 C336 1.387 . S
C337 C339 1.387 . S
H338 C345 0.950 . S
C339 C337 1.387 . S
C339 C341 1.390 . S
C339 H343 0.950 . S
H340 C336 0.950 . S
C341 C339 1.390 . S
C341 C342 1.387 . S
C341 H344 0.950 . S
C342 C341 1.387 . S
C342 C345 1.387 . S
H343 C339 0.950 . S
H344 C341 0.950 . S
C345 C336 1.390 . S
C345 H338 0.950 . S
C345 C342 1.387 . S
C346 C347 1.387 . S
C346 H350 0.950 . S
C346 C355 1.390 1_655 S
C347 C346 1.387 . S
C347 C349 1.387 . S
H348 C355 0.950 . S
C349 C347 1.387 . S
C349 C351 1.390 . S
C349 H353 0.950 . S
H350 C346 0.950 . S
C351 C349 1.390 . S
C351 C352 1.394 . S
C351 H354 0.950 1_556 S
C352 C351 1.394 . S
C352 C355 1.390 1_655 S
H353 C349 0.950 . S
H354 C351 0.950 1_554 S
C355 C346 1.390 1_455 S
C355 H348 0.950 . S
C355 C352 1.390 1_455 S
C356 C357 1.387 . S
C356 H360 0.950 . S
C356 C365 1.390 1_565 S
C357 C356 1.387 . S
C357 C359 1.387 . S
H358 C365 0.950 . S
C359 C357 1.387 . S
C359 C361 1.390 . S
C359 H363 0.950 . S
H360 C356 0.950 . S
C361 C359 1.390 . S
C361 C362 1.390 . S
C361 H364 0.950 . S
C362 C361 1.390 . S
C362 C365 1.389 1_565 S
H363 C359 0.950 . S
H364 C361 0.950 . S
C365 C356 1.390 1_545 S
C365 H358 0.950 . S
C365 C362 1.389 1_545 S
C366 C367 1.387 . S
C366 H370 0.950 . S
C366 C375 1.390 . S
C367 C366 1.387 . S
C367 C369 1.387 . S
H368 C375 0.950 . S
C369 C367 1.387 . S
C369 C371 1.390 . S
C369 H373 0.950 . S
H370 C366 0.950 . S
C371 C369 1.390 . S
C371 C372 1.387 . S
C371 H374 0.950 . S
C372 C371 1.387 . S
C372 C375 1.387 . S
H373 C369 0.950 . S
H374 C371 0.950 . S
C375 C366 1.390 . S
C375 H368 0.950 . S
C375 C372 1.387 . S
C376 C377 1.387 . S
C376 H380 0.950 . S
C376 C385 1.390 . S
C377 C376 1.387 . S
C377 C379 1.387 . S
H378 C385 0.950 . S
C379 C377 1.387 . S
C379 C381 1.390 . S
C379 H383 0.950 . S
H380 C376 0.950 . S
C381 C379 1.390 . S
C381 C382 1.391 . S
C381 H384 0.950 1_455 S
C382 C381 1.391 . S
C382 C385 1.388 . S
H383 C379 0.950 . S
H384 C381 0.950 1_655 S
C385 C376 1.390 . S
C385 H378 0.950 . S
C385 C382 1.388 . S
C386 C387 1.384 1_565 S
C386 H390 0.950 . S
C386 C395 1.390 1_565 S
C387 C386 1.384 1_545 S
C387 C389 1.397 . S
H388 C395 0.950 . S
C389 C387 1.397 . S
C389 C391 1.390 . S
C389 H393 0.950 . S
H390 C386 0.950 . S
C391 C389 1.390 . S
C391 C392 1.387 . S
C391 H394 0.950 . S
C392 C391 1.387 . S
C392 C395 1.387 . S
H393 C389 0.950 . S
H394 C391 0.950 . S
C395 C386 1.390 1_545 S
C395 H388 0.950 . S
C395 C392 1.387 . S
C157 C107 1.686 . S
C162 C5 1.602 . S
C167 C16 1.685 . S
C172 C120 1.685 . S
C177 C29 1.686 . S
C182 C135 1.602 . S
C187 C44 1.602 . S
C192 C146 1.686 . S
C197 C81 1.685 . S
C202 C55 1.685 . S
C207 C68 1.685 . S
C212 C96 1.605 . S
C217 C118 1.502 . S
C222 C10 1.459 . S
C227 C14 1.502 . S
C232 C140 1.459 . S
C237 C144 1.500 . S
C242 C27 1.500 . S
C247 C49 1.457 . S
C252 C79 1.501 . S
C257 C101 1.459 . S
C262 C53 1.501 . S
C267 C105 1.502 . S
C272 C66 1.502 . S
C277 C3 1.838 . S
C282 C75 1.772 1_554 S
C287 C18 1.810 . S
C292 C1 1.828 1_655 S
C297 C23 1.771 1_565 S
C302 C31 1.810 . S
C307 C42 1.838 . S
C312 C36 1.772 . S
C317 C57 1.808 . S
C322 C40 1.824 1_455 S
C327 C70 1.809 . S
C332 C62 1.772 1_545 S
C337 C83 1.808 . S
C342 C92 1.835 . S
C347 C94 1.838 . S
C352 C114 1.765 1_656 S
C357 C109 1.810 . S
C362 C127 1.769 1_565 S
C367 C122 1.809 . S
C372 C131 1.834 . S
C377 C133 1.840 . S
C382 C153 1.772 1_455 S
C387 C88 1.766 1_545 S
C392 C148 1.810 . S
