# Generated by pormake.
# Topology wip, (6)-cn, num edge types: 1
# Building blocks:
#     Node 0, Type 0, BuildingBlock: BETFEN_clean_sbu_0, # of connection points: 6
#     Node 1, Type 0, BuildingBlock: BETFEN_clean_sbu_0, # of connection points: 6
#     Node 2, Type 0, BuildingBlock: BETFEN_clean_sbu_0, # of connection points: 6
#     Node 3, Type 0, BuildingBlock: BETFEN_clean_sbu_0, # of connection points: 6
#     Node 4, Type 0, BuildingBlock: BETFEN_clean_sbu_0, # of connection points: 6
#     Node 5, Type 0, BuildingBlock: BETFEN_clean_sbu_0, # of connection points: 6
#     Node 6, Type 0, BuildingBlock: BETFEN_clean_sbu_0, # of connection points: 6
#     Node 7, Type 0, BuildingBlock: BETFEN_clean_sbu_0, # of connection points: 6
#     Node 8, Type 0, BuildingBlock: BETFEN_clean_sbu_0, # of connection points: 6
#     Node 9, Type 0, BuildingBlock: BETFEN_clean_sbu_0, # of connection points: 6
#     Node 10, Type 0, BuildingBlock: BETFEN_clean_sbu_0, # of connection points: 6
#     Node 11, Type 0, BuildingBlock: BETFEN_clean_sbu_0, # of connection points: 6
#     Node 12, Type 0, BuildingBlock: BETFEN_clean_sbu_0, # of connection points: 6
#     Node 13, Type 0, BuildingBlock: BETFEN_clean_sbu_0, # of connection points: 6
#     Node 14, Type 0, BuildingBlock: BETFEN_clean_sbu_0, # of connection points: 6
#     Node 15, Type 0, BuildingBlock: BETFEN_clean_sbu_0, # of connection points: 6
#     Node 16, Type 0, BuildingBlock: BETFEN_clean_sbu_0, # of connection points: 6
#     Node 17, Type 0, BuildingBlock: BETFEN_clean_sbu_0, # of connection points: 6
#     Node 18, Type 0, BuildingBlock: BETFEN_clean_sbu_0, # of connection points: 6
#     Node 19, Type 0, BuildingBlock: BETFEN_clean_sbu_0, # of connection points: 6
#     Node 20, Type 0, BuildingBlock: BETFEN_clean_sbu_0, # of connection points: 6
#     Node 21, Type 0, BuildingBlock: BETFEN_clean_sbu_0, # of connection points: 6
#     Node 22, Type 0, BuildingBlock: BETFEN_clean_sbu_0, # of connection points: 6
#     Node 23, Type 0, BuildingBlock: BETFEN_clean_sbu_0, # of connection points: 6
#     Node 24, Type 0, BuildingBlock: BETFEN_clean_sbu_0, # of connection points: 6
#     Node 25, Type 0, BuildingBlock: BETFEN_clean_sbu_0, # of connection points: 6
#     Node 26, Type 0, BuildingBlock: BETFEN_clean_sbu_0, # of connection points: 6
#     Node 27, Type 0, BuildingBlock: BETFEN_clean_sbu_0, # of connection points: 6
#     Node 28, Type 0, BuildingBlock: BETFEN_clean_sbu_0, # of connection points: 6
#     Node 29, Type 0, BuildingBlock: BETFEN_clean_sbu_0, # of connection points: 6
#     Node 30, Type 0, BuildingBlock: BETFEN_clean_sbu_0, # of connection points: 6
#     Node 31, Type 0, BuildingBlock: BETFEN_clean_sbu_0, # of connection points: 6
#     Edge 32, Type (0, 0), BuildingBlock: KIFKEQ_clean_linker_1, # of connection points: 2
#     Edge 33, Type (0, 0), BuildingBlock: KIFKEQ_clean_linker_1, # of connection points: 2
#     Edge 34, Type (0, 0), BuildingBlock: KIFKEQ_clean_linker_1, # of connection points: 2
#     Edge 35, Type (0, 0), BuildingBlock: KIFKEQ_clean_linker_1, # of connection points: 2
#     Edge 36, Type (0, 0), BuildingBlock: KIFKEQ_clean_linker_1, # of connection points: 2
#     Edge 37, Type (0, 0), BuildingBlock: KIFKEQ_clean_linker_1, # of connection points: 2
#     Edge 38, Type (0, 0), BuildingBlock: KIFKEQ_clean_linker_1, # of connection points: 2
#     Edge 39, Type (0, 0), BuildingBlock: KIFKEQ_clean_linker_1, # of connection points: 2
#     Edge 40, Type (0, 0), BuildingBlock: KIFKEQ_clean_linker_1, # of connection points: 2
#     Edge 41, Type (0, 0), BuildingBlock: KIFKEQ_clean_linker_1, # of connection points: 2
#     Edge 42, Type (0, 0), BuildingBlock: KIFKEQ_clean_linker_1, # of connection points: 2
#     Edge 43, Type (0, 0), BuildingBlock: KIFKEQ_clean_linker_1, # of connection points: 2
#     Edge 44, Type (0, 0), BuildingBlock: KIFKEQ_clean_linker_1, # of connection points: 2
#     Edge 45, Type (0, 0), BuildingBlock: KIFKEQ_clean_linker_1, # of connection points: 2
#     Edge 46, Type (0, 0), BuildingBlock: KIFKEQ_clean_linker_1, # of connection points: 2
#     Edge 47, Type (0, 0), BuildingBlock: KIFKEQ_clean_linker_1, # of connection points: 2
#     Edge 48, Type (0, 0), BuildingBlock: KIFKEQ_clean_linker_1, # of connection points: 2
#     Edge 49, Type (0, 0), BuildingBlock: KIFKEQ_clean_linker_1, # of connection points: 2
#     Edge 50, Type (0, 0), BuildingBlock: KIFKEQ_clean_linker_1, # of connection points: 2
#     Edge 51, Type (0, 0), BuildingBlock: KIFKEQ_clean_linker_1, # of connection points: 2
#     Edge 52, Type (0, 0), BuildingBlock: KIFKEQ_clean_linker_1, # of connection points: 2
#     Edge 53, Type (0, 0), BuildingBlock: KIFKEQ_clean_linker_1, # of connection points: 2
#     Edge 54, Type (0, 0), BuildingBlock: KIFKEQ_clean_linker_1, # of connection points: 2
#     Edge 55, Type (0, 0), BuildingBlock: KIFKEQ_clean_linker_1, # of connection points: 2
#     Edge 56, Type (0, 0), BuildingBlock: KIFKEQ_clean_linker_1, # of connection points: 2
#     Edge 57, Type (0, 0), BuildingBlock: KIFKEQ_clean_linker_1, # of connection points: 2
#     Edge 58, Type (0, 0), BuildingBlock: KIFKEQ_clean_linker_1, # of connection points: 2
#     Edge 59, Type (0, 0), BuildingBlock: KIFKEQ_clean_linker_1, # of connection points: 2
#     Edge 60, Type (0, 0), BuildingBlock: KIFKEQ_clean_linker_1, # of connection points: 2
#     Edge 61, Type (0, 0), BuildingBlock: KIFKEQ_clean_linker_1, # of connection points: 2
#     Edge 62, Type (0, 0), BuildingBlock: KIFKEQ_clean_linker_1, # of connection points: 2
#     Edge 63, Type (0, 0), BuildingBlock: KIFKEQ_clean_linker_1, # of connection points: 2
#     Edge 64, Type (0, 0), BuildingBlock: KIFKEQ_clean_linker_1, # of connection points: 2
#     Edge 65, Type (0, 0), BuildingBlock: KIFKEQ_clean_linker_1, # of connection points: 2
#     Edge 66, Type (0, 0), BuildingBlock: KIFKEQ_clean_linker_1, # of connection points: 2
#     Edge 67, Type (0, 0), BuildingBlock: KIFKEQ_clean_linker_1, # of connection points: 2
#     Edge 68, Type (0, 0), BuildingBlock: KIFKEQ_clean_linker_1, # of connection points: 2
#     Edge 69, Type (0, 0), BuildingBlock: KIFKEQ_clean_linker_1, # of connection points: 2
#     Edge 70, Type (0, 0), BuildingBlock: KIFKEQ_clean_linker_1, # of connection points: 2
#     Edge 71, Type (0, 0), BuildingBlock: KIFKEQ_clean_linker_1, # of connection points: 2
#     Edge 72, Type (0, 0), BuildingBlock: KIFKEQ_clean_linker_1, # of connection points: 2
#     Edge 73, Type (0, 0), BuildingBlock: KIFKEQ_clean_linker_1, # of connection points: 2
#     Edge 74, Type (0, 0), BuildingBlock: KIFKEQ_clean_linker_1, # of connection points: 2
#     Edge 75, Type (0, 0), BuildingBlock: KIFKEQ_clean_linker_1, # of connection points: 2
#     Edge 76, Type (0, 0), BuildingBlock: KIFKEQ_clean_linker_1, # of connection points: 2
#     Edge 77, Type (0, 0), BuildingBlock: KIFKEQ_clean_linker_1, # of connection points: 2
#     Edge 78, Type (0, 0), BuildingBlock: KIFKEQ_clean_linker_1, # of connection points: 2
#     Edge 79, Type (0, 0), BuildingBlock: KIFKEQ_clean_linker_1, # of connection points: 2
#     Edge 80, Type (0, 0), BuildingBlock: KIFKEQ_clean_linker_1, # of connection points: 2
#     Edge 81, Type (0, 0), BuildingBlock: KIFKEQ_clean_linker_1, # of connection points: 2
#     Edge 82, Type (0, 0), BuildingBlock: KIFKEQ_clean_linker_1, # of connection points: 2
#     Edge 83, Type (0, 0), BuildingBlock: KIFKEQ_clean_linker_1, # of connection points: 2
#     Edge 84, Type (0, 0), BuildingBlock: KIFKEQ_clean_linker_1, # of connection points: 2
#     Edge 85, Type (0, 0), BuildingBlock: KIFKEQ_clean_linker_1, # of connection points: 2
#     Edge 86, Type (0, 0), BuildingBlock: KIFKEQ_clean_linker_1, # of connection points: 2
#     Edge 87, Type (0, 0), BuildingBlock: KIFKEQ_clean_linker_1, # of connection points: 2
#     Edge 88, Type (0, 0), BuildingBlock: KIFKEQ_clean_linker_1, # of connection points: 2
#     Edge 89, Type (0, 0), BuildingBlock: KIFKEQ_clean_linker_1, # of connection points: 2
#     Edge 90, Type (0, 0), BuildingBlock: KIFKEQ_clean_linker_1, # of connection points: 2
#     Edge 91, Type (0, 0), BuildingBlock: KIFKEQ_clean_linker_1, # of connection points: 2
#     Edge 92, Type (0, 0), BuildingBlock: KIFKEQ_clean_linker_1, # of connection points: 2
#     Edge 93, Type (0, 0), BuildingBlock: KIFKEQ_clean_linker_1, # of connection points: 2
#     Edge 94, Type (0, 0), BuildingBlock: KIFKEQ_clean_linker_1, # of connection points: 2
#     Edge 95, Type (0, 0), BuildingBlock: KIFKEQ_clean_linker_1, # of connection points: 2
#     Edge 96, Type (0, 0), BuildingBlock: KIFKEQ_clean_linker_1, # of connection points: 2
#     Edge 97, Type (0, 0), BuildingBlock: KIFKEQ_clean_linker_1, # of connection points: 2
#     Edge 98, Type (0, 0), BuildingBlock: KIFKEQ_clean_linker_1, # of connection points: 2
#     Edge 99, Type (0, 0), BuildingBlock: KIFKEQ_clean_linker_1, # of connection points: 2
#     Edge 100, Type (0, 0), BuildingBlock: KIFKEQ_clean_linker_1, # of connection points: 2
#     Edge 101, Type (0, 0), BuildingBlock: KIFKEQ_clean_linker_1, # of connection points: 2
#     Edge 102, Type (0, 0), BuildingBlock: KIFKEQ_clean_linker_1, # of connection points: 2
#     Edge 103, Type (0, 0), BuildingBlock: KIFKEQ_clean_linker_1, # of connection points: 2
#     Edge 104, Type (0, 0), BuildingBlock: KIFKEQ_clean_linker_1, # of connection points: 2
#     Edge 105, Type (0, 0), BuildingBlock: KIFKEQ_clean_linker_1, # of connection points: 2
#     Edge 106, Type (0, 0), BuildingBlock: KIFKEQ_clean_linker_1, # of connection points: 2
#     Edge 107, Type (0, 0), BuildingBlock: KIFKEQ_clean_linker_1, # of connection points: 2
#     Edge 108, Type (0, 0), BuildingBlock: KIFKEQ_clean_linker_1, # of connection points: 2
#     Edge 109, Type (0, 0), BuildingBlock: KIFKEQ_clean_linker_1, # of connection points: 2
#     Edge 110, Type (0, 0), BuildingBlock: KIFKEQ_clean_linker_1, # of connection points: 2
#     Edge 111, Type (0, 0), BuildingBlock: KIFKEQ_clean_linker_1, # of connection points: 2
#     Edge 112, Type (0, 0), BuildingBlock: KIFKEQ_clean_linker_1, # of connection points: 2
#     Edge 113, Type (0, 0), BuildingBlock: KIFKEQ_clean_linker_1, # of connection points: 2
#     Edge 114, Type (0, 0), BuildingBlock: KIFKEQ_clean_linker_1, # of connection points: 2
#     Edge 115, Type (0, 0), BuildingBlock: KIFKEQ_clean_linker_1, # of connection points: 2
#     Edge 116, Type (0, 0), BuildingBlock: KIFKEQ_clean_linker_1, # of connection points: 2
#     Edge 117, Type (0, 0), BuildingBlock: KIFKEQ_clean_linker_1, # of connection points: 2
#     Edge 118, Type (0, 0), BuildingBlock: KIFKEQ_clean_linker_1, # of connection points: 2
#     Edge 119, Type (0, 0), BuildingBlock: KIFKEQ_clean_linker_1, # of connection points: 2
#     Edge 120, Type (0, 0), BuildingBlock: KIFKEQ_clean_linker_1, # of connection points: 2
#     Edge 121, Type (0, 0), BuildingBlock: KIFKEQ_clean_linker_1, # of connection points: 2
#     Edge 122, Type (0, 0), BuildingBlock: KIFKEQ_clean_linker_1, # of connection points: 2
#     Edge 123, Type (0, 0), BuildingBlock: KIFKEQ_clean_linker_1, # of connection points: 2
#     Edge 124, Type (0, 0), BuildingBlock: KIFKEQ_clean_linker_1, # of connection points: 2
#     Edge 125, Type (0, 0), BuildingBlock: KIFKEQ_clean_linker_1, # of connection points: 2
#     Edge 126, Type (0, 0), BuildingBlock: KIFKEQ_clean_linker_1, # of connection points: 2
#     Edge 127, Type (0, 0), BuildingBlock: KIFKEQ_clean_linker_1, # of connection points: 2
# Relax obj value: 0.350
# Max RMSD: 0.294
# Mean RMSD: 0.231
data_MOF--net-wip--node1-BETFEN_clean_sbu_0--edge1-KIFKEQ_clean_linker_1
_symmetry_space_group_name_H-M    P1
_symmetry_Int_Tables_number       1
_symmetry_cell_setting            triclinic
loop_
_symmetry_equiv_pos_as_xyz
'x, y, z'
_cell_length_a     67.482813
_cell_length_b     63.820374
_cell_length_c     35.841884
_cell_angle_alpha  85.624222
_cell_angle_beta   94.178098
_cell_angle_gamma 88.95088
loop_
_atom_site_label
_atom_site_type_symbol
_atom_site_fract_x
_atom_site_fract_y
_atom_site_fract_z
_atom_type_partial_charge
Pr0 Pr 0.06178 0.40771 0.1593 0.0
Pr1 Pr 0.08843 0.43473 0.11111 0.0
C2 C 0.04453 0.38557 0.21508 0.0
C3 C 0.04593 0.38314 0.25647 0.0
C4 C 0.0362 0.36661 0.27491 0.0
C5 C 0.03455 0.36599 0.31371 0.0
C6 C 0.0425 0.38201 0.33478 0.0
C7 C 0.05308 0.39804 0.3164 0.0
C8 C 0.05482 0.39857 0.27764 0.0
C9 C 0.04112 0.44229 0.12186 0.0
C10 C 0.08636 0.44773 0.19533 0.0
C11 C 0.10504 0.458 0.05515 0.0
C12 C 0.10144 0.46742 1.01537 0.0
C13 C 0.11206 0.45978 0.98663 0.0
C14 C 0.11007 0.46947 0.94982 0.0
C15 C 0.09743 0.48724 0.9404 0.0
C16 C 0.08665 0.49473 0.96921 0.0
C17 C 0.08864 0.48503 1.006 0.0
C18 C 0.10942 0.40566 0.16461 0.0
C19 C 0.05533 0.40306 0.06954 0.0
O20 O 0.05897 0.37779 0.19755 0.0
O21 O 0.03807 0.40394 0.20016 0.0
O22 O 0.05876 0.4426 0.13647 0.0
O23 O 0.03484 0.42318 0.12299 0.0
O24 O 0.08872 0.45592 0.16106 0.0
O25 O 0.07891 0.42886 0.20153 0.0
O26 O 0.09549 0.46614 0.08135 0.0
O27 O 0.10757 0.43757 0.06105 0.0
O28 O 0.09368 0.40184 0.14461 0.0
O29 O 0.11602 0.42378 0.15277 0.0
O30 O 0.05317 0.39269 0.10237 0.0
O31 O 0.06644 0.41981 0.0672 0.0
H32 H 0.02912 0.35465 0.25906 0.0
H33 H 0.02618 0.35351 0.32687 0.0
H34 H 0.05963 0.41044 0.33186 0.0
H35 H 0.06241 0.41149 0.26399 0.0
H36 H 0.12219 0.44639 0.99273 0.0
H37 H 0.11846 0.4629 0.92869 0.0
H38 H 0.07697 0.5085 0.96368 0.0
H39 H 0.08035 0.49162 0.02725 0.0
Pr40 Pr 0.81072 0.80123 0.34542 0.0
Pr41 Pr 0.78549 0.83894 0.37392 0.0
C42 C 0.82631 0.76926 0.31146 0.0
C43 C 0.82385 0.75933 0.27587 0.0
C44 C 0.83894 0.74592 0.26612 0.0
C45 C 0.83724 0.73677 0.23191 0.0
C46 C 0.82029 0.74074 0.20686 0.0
C47 C 0.80515 0.75425 0.21689 0.0
C48 C 0.80699 0.76358 0.25102 0.0
C49 C 0.83295 0.83179 0.3788 0.0
C50 C 0.78489 0.83584 0.28298 0.0
C51 C 0.77406 0.87278 0.40811 0.0
C52 C 0.76765 0.87701 0.44499 0.0
C53 C 0.76322 0.86035 0.47058 0.0
C54 C 0.75634 0.86445 0.50512 0.0
C55 C 0.75387 0.88527 0.51464 0.0
C56 C 0.75873 0.9019 0.48916 0.0
C57 C 0.76553 0.89777 0.45448 0.0
C58 C 0.76402 0.80505 0.35057 0.0
C59 C 0.80202 0.79824 0.4362 0.0
O60 O 0.81196 0.76689 0.33406 0.0
O61 O 0.83346 0.78822 0.30957 0.0
O62 O 0.81739 0.83562 0.35703 0.0
O63 O 0.83855 0.81223 0.3791 0.0
O64 O 0.78332 0.84908 0.30939 0.0
O65 O 0.7931 0.81682 0.29047 0.0
O66 O 0.7927 0.86698 0.40707 0.0
O67 O 0.76182 0.86192 0.38766 0.0
O68 O 0.78073 0.80451 0.36823 0.0
O69 O 0.75579 0.82368 0.34985 0.0
O70 O 0.80775 0.78771 0.40803 0.0
O71 O 0.79441 0.81773 0.43052 0.0
H72 H 0.85218 0.7427 0.28483 0.0
H73 H 0.84939 0.72684 0.22488 0.0
H74 H 0.79181 0.75753 0.19854 0.0
H75 H 0.79531 0.77416 0.25788 0.0
H76 H 0.76491 0.84421 0.46368 0.0
H77 H 0.75304 0.85132 0.52448 0.0
H78 H 0.75689 0.91807 0.49573 0.0
H79 H 0.76893 0.91078 0.43492 0.0
Pr80 Pr 0.44847 0.60377 0.61683 0.0
Pr81 Pr 0.42751 0.56982 0.57058 0.0
C82 C 0.45956 0.63543 0.65896 0.0
C83 C 0.46472 0.63587 0.69981 0.0
C84 C 0.47687 0.65153 0.71374 0.0
C85 C 0.48246 0.65131 0.7523 0.0
C86 C 0.47607 0.63534 0.77779 0.0
C87 C 0.46372 0.61979 0.76358 0.0
C88 C 0.45817 0.62003 0.72511 0.0
C89 C 0.46932 0.56617 0.62477 0.0
C90 C 0.42837 0.56217 0.6612 0.0
C91 C 0.41352 0.5426 0.52067 0.0
C92 C 0.41531 0.53275 0.48449 0.0
C93 C 0.40392 0.51513 0.4772 0.0
C94 C 0.40416 0.506 0.44278 0.0
C95 C 0.41594 0.51409 0.4143 0.0
C96 C 0.42743 0.53184 0.42176 0.0
C97 C 0.42709 0.54106 0.45635 0.0
C98 C 0.40194 0.5976 0.60396 0.0
C99 C 0.4573 0.60371 0.52657 0.0
O100 O 0.44098 0.63174 0.64893 0.0
O101 O 0.47205 0.62514 0.64041 0.0
O102 O 0.46048 0.57318 0.59351 0.0
O103 O 0.468 0.57888 0.65101 0.0
O104 O 0.42866 0.55212 0.63024 0.0
O105 O 0.43247 0.58241 0.6615 0.0
O106 O 0.42609 0.53691 0.54952 0.0
O107 O 0.40806 0.56247 0.51912 0.0
O108 O 0.41744 0.60276 0.58766 0.0
O109 O 0.39833 0.57808 0.59897 0.0
O110 O 0.46108 0.61311 0.55795 0.0
O111 O 0.44477 0.58817 0.52469 0.0
H112 H 0.48224 0.6638 0.69474 0.0
H113 H 0.49216 0.66341 0.76202 0.0
H114 H 0.45823 0.60742 0.78221 0.0
H115 H 0.44884 0.60773 0.71505 0.0
H116 H 0.39448 0.50854 0.49809 0.0
H117 H 0.39473 0.49275 0.43836 0.0
H118 H 0.43688 0.53853 0.40103 0.0
H119 H 0.43596 0.55473 0.46103 0.0
Pr120 Pr 0.68042 0.17725 0.87539 0.0
Pr121 Pr 0.70061 0.14614 0.82622 0.0
C122 C 0.66632 0.19599 0.93328 0.0
C123 C 0.65951 0.20705 0.96522 0.0
C124 C 0.67074 0.22344 0.97922 0.0
C125 C 0.66697 0.23131 1.01351 0.0
C126 C 0.65204 0.22279 0.0352 0.0
C127 C 0.64015 0.20703 1.02021 0.0
C128 C 0.64382 0.1993 0.98557 0.0
C129 C 0.71603 0.19145 0.8487 0.0
C130 C 0.71117 0.13922 0.91523 0.0
C131 C 0.7197 0.12495 0.77621 0.0
C132 C 0.72898 0.1261 0.73998 0.0
C133 C 0.74265 0.11024 0.73342 0.0
C134 C 0.75173 0.1106 0.69951 0.0
C135 C 0.7474 0.1269 0.67119 0.0
C136 C 0.73354 0.14278 0.67779 0.0
C137 C 0.72443 0.14241 0.7119 0.0
C138 C 0.66737 0.13097 0.86135 0.0
C139 C 0.67402 0.18828 0.78582 0.0
O140 O 0.65442 0.18682 0.90923 0.0
O141 O 0.68493 0.19631 0.92558 0.0
O142 O 0.71276 0.17277 0.86041 0.0
O143 O 0.69979 0.20284 0.84738 0.0
O144 O 0.71925 0.138 0.88306 0.0
O145 O 0.69417 0.14952 0.91705 0.0
O146 O 0.72891 0.13376 0.80412 0.0
O147 O 0.70034 0.12688 0.77555 0.0
O148 O 0.66897 0.14914 0.84567 0.0
O149 O 0.68275 0.1193 0.85619 0.0
O150 O 0.6658 0.19122 0.81753 0.0
O151 O 0.6886 0.17428 0.7841 0.0
H152 H 0.68295 0.22977 0.96422 0.0
H153 H 0.67612 0.24381 1.02336 0.0
H154 H 0.62861 0.1999 0.03601 0.0
H155 H 0.63512 0.18642 0.9758 0.0
H156 H 0.74629 0.09745 0.75461 0.0
H157 H 0.76203 0.09792 0.69537 0.0
H158 H 0.72997 0.15571 0.65687 0.0
H159 H 0.71393 0.15484 0.71639 0.0
Pr160 Pr 0.04892 0.59265 0.61591 0.0
Pr161 Pr 0.0706 0.55281 0.58627 0.0
C162 C 0.0238 0.61828 0.64728 0.0
C163 C 0.01582 0.61756 0.68472 0.0
C164 C 0.00974 0.63614 0.69955 0.0
C165 C 0.00286 0.63559 0.73561 0.0
C166 C 0.00185 0.61641 0.75756 0.0
C167 C 0.00791 0.5978 0.74244 0.0
C168 C 0.01492 0.59839 0.70654 0.0
C169 C 0.08411 0.60062 0.58034 0.0
C170 C 0.07914 0.56194 0.67586 0.0
C171 C 0.09144 0.52581 0.54969 0.0
C172 C 0.09638 0.52283 0.51134 0.0
C173 C 0.10575 0.50404 0.50389 0.0
C174 C 0.10876 0.49991 0.46704 0.0
C175 C 0.10254 0.5146 0.43695 0.0
C176 C 0.09378 0.53381 0.44483 0.0
C177 C 0.09056 0.5378 0.48173 0.0
C178 C 0.04198 0.54345 0.63503 0.0
C179 C 0.03465 0.57958 0.52931 0.0
O180 O 0.01777 0.60373 0.62551 0.0
O181 O 0.04284 0.62169 0.64649 0.0
O182 O 0.07095 0.58794 0.57195 0.0
O183 O 0.07855 0.61176 0.60684 0.0
O184 O 0.08759 0.55517 0.64643 0.0
O185 O 0.06326 0.57459 0.67123 0.0
O186 O 0.0996 0.5417 0.5657 0.0
O187 O 0.07272 0.52327 0.55615 0.0
O188 O 0.04084 0.55838 0.60998 0.0
O189 O 0.05745 0.53129 0.63312 0.0
O190 O 0.03295 0.59356 0.55469 0.0
O191 O 0.04719 0.5631 0.53515 0.0
H192 H 0.01043 0.65111 0.68332 0.0
H193 H 0.99818 0.65019 0.74619 0.0
H194 H 0.00764 0.58279 0.75868 0.0
H195 H 0.01984 0.58388 0.69596 0.0
H196 H 0.11014 0.49224 0.52649 0.0
H197 H 0.11517 0.48478 0.46214 0.0
H198 H 0.08901 0.54557 0.42245 0.0
H199 H 0.08304 0.5523 0.487 0.0
Pr200 Pr 0.68841 0.81142 0.97113 0.0
Pr201 Pr 0.70798 0.85101 0.93299 0.0
C202 C 0.677 0.77959 1.01863 0.0
C203 C 0.68186 0.77003 0.05766 0.0
C204 C 0.68693 0.78238 0.08768 0.0
C205 C 0.69054 0.77309 0.12452 0.0
C206 C 0.68919 0.75117 0.13247 0.0
C207 C 0.68443 0.73888 0.10209 0.0
C208 C 0.68083 0.74818 0.06532 0.0
C209 C 0.66267 0.83645 0.91872 0.0
C210 C 0.71132 0.84613 0.02589 0.0
C211 C 0.71374 0.88831 0.89615 0.0
C212 C 0.71256 0.89372 0.85548 0.0
C213 C 0.72531 0.90848 0.8398 0.0
C214 C 0.7265 0.91083 0.80087 0.0
C215 C 0.71493 0.89841 0.77724 0.0
C216 C 0.70134 0.88456 0.79308 0.0
C217 C 0.70039 0.88203 0.8318 0.0
C218 C 0.73344 0.81624 0.94403 0.0
C219 C 0.69825 0.80994 0.88358 0.0
O220 O 0.69002 0.77701 0.99383 0.0
O221 O 0.66836 0.7983 1.01477 0.0
O222 O 0.67556 0.84334 0.9423 0.0
O223 O 0.66131 0.81631 0.9259 0.0
O224 O 0.71663 0.8573 0.99581 0.0
O225 O 0.69969 0.82979 1.02318 0.0
O226 O 0.69691 0.88347 0.91032 0.0
O227 O 0.72841 0.87543 0.90883 0.0
O228 O 0.72089 0.82121 0.96691 0.0
O229 O 0.73422 0.8306 0.91637 0.0
O230 O 0.69727 0.79806 0.91541 0.0
O231 O 0.69903 0.83074 0.88265 0.0
H232 H 0.68787 0.79927 0.08276 0.0
H233 H 0.69395 0.78323 0.1469 0.0
H234 H 0.68359 0.72197 0.10661 0.0
H235 H 0.67704 0.73825 0.04278 0.0
H236 H 0.735 0.91742 0.85771 0.0
H237 H 0.73724 0.92149 0.78953 0.0
H238 H 0.692 0.875 0.77566 0.0
H239 H 0.6908 0.87018 0.84328 0.0
Pr240 Pr 0.44416 0.40332 0.12709 0.0
Pr241 Pr 0.42739 0.44084 0.07596 0.0
C242 C 0.46461 0.37414 0.174 0.0
C243 C 0.47262 0.37356 0.21357 0.0
C244 C 0.47831 0.35434 0.23335 0.0
C245 C 0.48488 0.35356 0.27148 0.0
C246 C 0.48582 0.37203 0.29071 0.0
C247 C 0.48025 0.39131 0.27052 0.0
C248 C 0.4737 0.39205 0.23241 0.0
C249 C 0.40722 0.39752 0.08745 0.0
C250 C 0.42309 0.44125 0.16935 0.0
C251 C 0.40562 0.46929 0.03029 0.0
C252 C 0.40447 0.47517 0.98971 0.0
C253 C 0.42048 0.47052 0.9686 0.0
C254 C 0.4202 0.47765 0.93074 0.0
C255 C 0.4038 0.4894 0.91307 0.0
C256 C 0.38742 0.49323 0.93408 0.0
C257 C 0.3878 0.48622 0.97211 0.0
C258 C 0.46593 0.44622 0.10366 0.0
C259 C 0.45777 0.4085 0.03853 0.0
O260 O 0.4731 0.38692 0.15 0.0
O261 O 0.44523 0.37467 0.16863 0.0
O262 O 0.42212 0.40619 0.07541 0.0
O263 O 0.41107 0.3902 0.12207 0.0
O264 O 0.41561 0.44865 0.13541 0.0
O265 O 0.43572 0.42513 0.17304 0.0
O266 O 0.39892 0.45081 0.04084 0.0
O267 O 0.42231 0.47365 0.04866 0.0
O268 O 0.45248 0.4383 0.12285 0.0
O269 O 0.45942 0.45115 0.06899 0.0
O270 O 0.46212 0.39996 0.07318 0.0
O271 O 0.44321 0.42276 0.03109 0.0
H272 H 0.47742 0.33986 0.21943 0.0
H273 H 0.48876 0.33841 0.28609 0.0
H274 H 0.48101 0.40589 0.2841 0.0
H275 H 0.46932 0.40707 0.21771 0.0
H276 H 0.43347 0.4619 0.98168 0.0
H277 H 0.43319 0.47461 0.9158 0.0
H278 H 0.37439 0.50186 0.92129 0.0
H279 H 0.37525 0.48979 0.98794 0.0
Pr280 Pr 0.84287 0.18327 0.38679 0.0
Pr281 Pr 0.8129 0.15885 0.34019 0.0
C282 C 0.86343 0.2039 0.43976 0.0
C283 C 0.86177 0.2098 0.47862 0.0
C284 C 0.87866 0.2164 0.49923 0.0
C285 C 0.87738 0.22267 0.53563 0.0
C286 C 0.85912 0.22255 0.5524 0.0
C287 C 0.84222 0.21561 0.53172 0.0
C288 C 0.84353 0.20931 0.49523 0.0
C289 C 0.86023 0.1569 0.3378 0.0
C290 C 0.81635 0.14633 0.43045 0.0
C291 C 0.79127 0.13703 0.29085 0.0
C292 C 0.78771 0.13167 0.25189 0.0
C293 C 0.77106 0.1198 0.24285 0.0
C294 C 0.76518 0.11702 0.20551 0.0
C295 C 0.77591 0.12602 0.17647 0.0
C296 C 0.79332 0.13694 0.18561 0.0
C297 C 0.79913 0.13988 0.22323 0.0
C298 C 0.7948 0.18752 0.38257 0.0
C299 C 0.83392 0.20148 0.30076 0.0
O300 O 0.85097 0.21321 0.41372 0.0
O301 O 0.86646 0.18396 0.43526 0.0
O302 O 0.8458 0.1521 0.35734 0.0
O303 O 0.86731 0.17482 0.34644 0.0
O304 O 0.81123 0.13887 0.39781 0.0
O305 O 0.82666 0.16356 0.43245 0.0
O306 O 0.80704 0.12904 0.31067 0.0
O307 O 0.78697 0.15636 0.29759 0.0
O308 O 0.81026 0.19124 0.36534 0.0
O309 O 0.78808 0.16908 0.37684 0.0
O310 O 0.83897 0.20714 0.3347 0.0
O311 O 0.82604 0.18297 0.29546 0.0
H312 H 0.8929 0.2168 0.48706 0.0
H313 H 0.89081 0.22749 0.55074 0.0
H314 H 0.82787 0.21544 0.54339 0.0
H315 H 0.83028 0.20425 0.47984 0.0
H316 H 0.76207 0.11339 0.26465 0.0
H317 H 0.75182 0.10839 0.19921 0.0
H318 H 0.80177 0.14411 0.16368 0.0
H319 H 0.81201 0.14919 0.22983 0.0
Pr320 Pr 0.90687 0.55637 0.24666 0.0
Pr321 Pr 0.93622 0.58129 0.19876 0.0
C322 C 0.88886 0.5345 0.3026 0.0
C323 C 0.89177 0.52585 0.3428 0.0
C324 C 0.87522 0.51957 0.36217 0.0
C325 C 0.87744 0.51078 0.39958 0.0
C326 C 0.89636 0.50799 0.41915 0.0
C327 C 0.91296 0.51454 0.39959 0.0
C328 C 0.9107 0.52327 0.36204 0.0
C329 C 0.88855 0.5872 0.19344 0.0
C330 C 0.94324 0.58421 0.28909 0.0
C331 C 0.955 0.60321 0.14461 0.0
C332 C 0.95509 0.60673 0.10339 0.0
C333 C 0.96642 0.62295 0.08796 0.0
C334 C 0.969 0.62488 0.04944 0.0
C335 C 0.96035 0.61055 0.02543 0.0
C336 C 0.9484 0.59472 0.0409 0.0
C337 C 0.9458 0.59283 0.07949 0.0
C338 C 0.95267 0.5435 0.2335 0.0
C339 C 0.90751 0.54424 0.16076 0.0
O340 O 0.89893 0.52562 0.27786 0.0
O341 O 0.887 0.55494 0.29566 0.0
O342 O 0.90473 0.5895 0.21337 0.0
O343 O 0.8801 0.57021 0.20604 0.0
O344 O 0.94602 0.59489 0.25679 0.0
O345 O 0.93073 0.5686 0.29034 0.0
O346 O 0.94022 0.61116 0.16106 0.0
O347 O 0.96056 0.58444 0.15899 0.0
O348 O 0.93508 0.54635 0.21931 0.0
O349 O 0.96169 0.56132 0.23303 0.0
O350 O 0.90361 0.53652 0.19472 0.0
O351 O 0.91763 0.56173 0.15545 0.0
H352 H 0.86044 0.52123 0.34814 0.0
H353 H 0.86424 0.50575 0.41281 0.0
H354 H 0.92779 0.51309 0.41334 0.0
H355 H 0.92377 0.52792 0.34796 0.0
H356 H 0.97388 0.63372 0.10595 0.0
H357 H 0.97848 0.6371 0.03875 0.0
H358 H 0.94126 0.58359 1.02326 0.0
H359 H 0.93707 0.58014 0.09086 0.0
Pr360 Pr 0.2033 0.14315 0.97517 0.0
Pr361 Pr 0.18945 0.18503 1.00908 0.0
C362 C 0.20718 0.1087 0.93711 0.0
C363 C 0.2153 0.1055 0.90102 0.0
C364 C 0.22144 0.08542 0.89268 0.0
C365 C 0.23021 0.08266 0.85912 0.0
C366 C 0.23302 0.1 0.83348 0.0
C367 C 0.22666 0.12009 0.84199 0.0
C368 C 0.21797 0.12282 0.87549 0.0
C369 C 0.23192 0.17413 0.97806 0.0
C370 C 0.18617 0.18477 0.91611 0.0
C371 C 0.18694 0.22115 0.04279 0.0
C372 C 0.18341 0.22832 0.07969 0.0
C373 C 0.18321 0.21404 0.11144 0.0
C374 C 0.18018 0.22129 0.14653 0.0
C375 C 0.17737 0.24291 0.15028 0.0
C376 C 0.1773 0.25704 0.11813 0.0
C377 C 0.18031 0.24979 0.08318 0.0
C378 C 0.15896 0.15759 0.99311 0.0
C379 C 0.21209 0.1465 0.0672 0.0
O380 O 0.19075 0.12002 0.93543 0.0
O381 O 0.22016 0.11362 0.96367 0.0
O382 O 0.21355 0.17678 0.97139 0.0
O383 O 0.23644 0.15421 0.98014 0.0
O384 O 0.18813 0.19674 0.94481 0.0
O385 O 0.18921 0.16405 0.92114 0.0
O386 O 0.20374 0.21091 0.04034 0.0
O387 O 0.17178 0.21313 0.0245 0.0
O388 O 0.17639 0.15191 1.00614 0.0
O389 O 0.15625 0.17752 0.99669 0.0
O390 O 0.21111 0.13354 0.03987 0.0
O391 O 0.20544 0.16617 0.06186 0.0
H392 H 0.21967 0.07192 0.9123 0.0
H393 H 0.23512 0.06702 0.8536 0.0
H394 H 0.22826 0.13373 0.82264 0.0
H395 H 0.21346 0.1385 0.8816 0.0
H396 H 0.18556 0.19737 0.10912 0.0
H397 H 0.18047 0.21005 0.17079 0.0
H398 H 0.17485 0.27374 0.11996 0.0
H399 H 0.1803 0.26097 0.05886 0.0
Pr400 Pr 0.57786 0.4289 0.78305 0.0
Pr401 Pr 0.55359 0.39374 0.73532 0.0
C402 C 0.59147 0.45563 0.83413 0.0
C403 C 0.58868 0.46493 0.87084 0.0
C404 C 0.59351 0.45344 0.90562 0.0
C405 C 0.59292 0.46303 0.93973 0.0
C406 C 0.5875 0.48447 0.94034 0.0
C407 C 0.58238 0.49582 0.90549 0.0
C408 C 0.58302 0.48625 0.87142 0.0
C409 C 0.60065 0.39873 0.75016 0.0
C410 C 0.54599 0.39516 0.82506 0.0
C411 C 0.54618 0.3633 0.68835 0.0
C412 C 0.53898 0.36321 0.64831 0.0
C413 C 0.52394 0.37734 0.63233 0.0
C414 C 0.5182 0.37806 0.59387 0.0
C415 C 0.52747 0.36477 0.57036 0.0
C416 C 0.54251 0.3506 0.58659 0.0
C417 C 0.5482 0.34987 0.62509 0.0
C418 C 0.53062 0.43055 0.73484 0.0
C419 C 0.57388 0.43647 0.69142 0.0
O420 O 0.57952 0.46169 0.80449 0.0
O421 O 0.5973 0.43585 0.83478 0.0
O422 O 0.58456 0.39521 0.7658 0.0
O423 O 0.60649 0.41756 0.75628 0.0
O424 O 0.54406 0.3835 0.7959 0.0
O425 O 0.55691 0.41218 0.82515 0.0
O426 O 0.56377 0.37109 0.69465 0.0
O427 O 0.53347 0.36901 0.71189 0.0
O428 O 0.54749 0.4267 0.75177 0.0
O429 O 0.52452 0.41404 0.71873 0.0
O430 O 0.57688 0.44601 0.72291 0.0
O431 O 0.56749 0.41693 0.69048 0.0
H432 H 0.5981 0.43705 0.90658 0.0
H433 H 0.59673 0.45355 0.96569 0.0
H434 H 0.5784 0.51238 0.90432 0.0
H435 H 0.57953 0.49575 0.84534 0.0
H436 H 0.51675 0.38804 0.64946 0.0
H437 H 0.50643 0.389 0.5826 0.0
H438 H 0.55024 0.34038 0.5694 0.0
H439 H 0.56008 0.3391 0.63665 0.0
Pr440 Pr 0.30452 0.83875 0.53063 0.0
Pr441 Pr 0.32943 0.80837 0.48694 0.0
C442 C 0.28177 0.85724 0.57885 0.0
C443 C 0.27315 0.85464 0.61616 0.0
C444 C 0.28339 0.86129 0.64868 0.0
C445 C 0.27448 0.86055 0.683 0.0
C446 C 0.25503 0.85321 0.6858 0.0
C447 C 0.2449 0.84643 0.65327 0.0
C448 C 0.25378 0.84719 0.61902 0.0
C449 C 0.33906 0.85514 0.50243 0.0
C450 C 0.33311 0.8005 0.57666 0.0
C451 C 0.35116 0.78984 0.43729 0.0
C452 C 0.34978 0.78384 0.3978 0.0
C453 C 0.33698 0.7681 0.38584 0.0
C454 C 0.33674 0.76197 0.349 0.0
C455 C 0.34923 0.77144 0.32309 0.0
C456 C 0.36184 0.78736 0.33505 0.0
C457 C 0.36215 0.79339 0.37191 0.0
C458 C 0.2926 0.79284 0.50537 0.0
C459 C 0.29634 0.84307 0.43954 0.0
O460 O 0.27453 0.84612 0.55202 0.0
O461 O 0.30092 0.86001 0.57792 0.0
O462 O 0.33754 0.83697 0.51835 0.0
O463 O 0.32273 0.86612 0.50376 0.0
O464 O 0.34374 0.79936 0.54732 0.0
O465 O 0.31634 0.81165 0.5747 0.0
O466 O 0.35189 0.80987 0.44255 0.0
O467 O 0.34077 0.77937 0.46152 0.0
O468 O 0.29603 0.81155 0.49442 0.0
O469 O 0.30908 0.7818 0.50913 0.0
O470 O 0.28872 0.84725 0.47118 0.0
O471 O 0.31236 0.83078 0.43918 0.0
H472 H 0.29823 0.86737 0.64756 0.0
H473 H 0.28288 0.86571 0.70738 0.0
H474 H 0.2298 0.84101 0.65394 0.0
H475 H 0.24526 0.84231 0.59453 0.0
H476 H 0.32723 0.76037 0.40498 0.0
H477 H 0.32666 0.74985 0.34077 0.0
H478 H 0.37187 0.79485 0.31619 0.0
H479 H 0.37232 0.80536 0.38039 0.0
Pr480 Pr 0.92183 0.43431 0.78211 0.0
Pr481 Pr 0.94966 0.40649 0.74258 0.0
C482 C 0.89117 0.45011 0.81585 0.0
C483 C 0.88794 0.45436 0.85464 0.0
C484 C 0.90324 0.45017 0.88299 0.0
C485 C 0.90146 0.45705 0.91868 0.0
C486 C 0.8843 0.46823 0.92671 0.0
C487 C 0.86859 0.47145 0.89861 0.0
C488 C 0.87044 0.46462 0.86281 0.0
C489 C 0.95515 0.45486 0.76396 0.0
C490 C 0.96145 0.41356 0.83351 0.0
C491 C 0.97838 0.38599 0.71007 0.0
C492 C 0.98672 0.38639 0.67308 0.0
C493 C 0.99556 0.36808 0.66186 0.0
C494 C 0.0027 0.3678 0.62619 0.0
C495 C 0.00118 0.38587 0.60097 0.0
C496 C 0.99247 0.40431 0.61251 0.0
C497 C 0.98522 0.40454 0.64816 0.0
C498 C 0.91831 0.3865 0.77788 0.0
C499 C 0.91797 0.43573 0.68614 0.0
O500 O 0.8925 0.4303 0.8087 0.0
O501 O 0.90454 0.46177 0.80034 0.0
O502 O 0.9459 0.44282 0.7423 0.0
O503 O 0.947 0.45651 0.79545 0.0
O504 O 0.96777 0.40797 0.80143 0.0
O505 O 0.94346 0.42217 0.83477 0.0
O506 O 0.98183 0.40212 0.72992 0.0
O507 O 0.96022 0.37934 0.71136 0.0
O508 O 0.92965 0.39994 0.78977 0.0
O509 O 0.92283 0.38198 0.74477 0.0
O510 O 0.90911 0.43995 0.71693 0.0
O511 O 0.93446 0.42424 0.6888 0.0
H512 H 0.91693 0.44239 0.87705 0.0
H513 H 0.91397 0.45452 0.93934 0.0
H514 H 0.85506 0.47971 0.90399 0.0
H515 H 0.8585 0.46799 0.84117 0.0
H516 H 0.99679 0.3539 0.68062 0.0
H517 H 0.0095 0.35341 0.61841 0.0
H518 H 0.99084 0.41842 0.59366 0.0
H519 H 0.97823 0.41879 0.65609 0.0
Pr520 Pr 0.2967 0.14187 0.40721 0.0
Pr521 Pr 0.32348 0.1728 0.36345 0.0
C522 C 0.28278 0.11273 0.45644 0.0
C523 C 0.28414 0.10665 0.49683 0.0
C524 C 0.29278 0.1199 0.52262 0.0
C525 C 0.29103 0.11555 0.56108 0.0
C526 C 0.28065 0.09786 0.57422 0.0
C527 C 0.27328 0.0839 0.54827 0.0
C528 C 0.27494 0.08833 0.5099 0.0
C529 C 0.276 0.17781 0.37376 0.0
C530 C 0.31718 0.18224 0.45039 0.0
C531 C 0.33893 0.19945 0.31116 0.0
C532 C 0.33483 0.20827 0.27119 0.0
C533 C 0.34152 0.19776 0.2411 0.0
C534 C 0.33855 0.20665 0.20388 0.0
C535 C 0.32883 0.22639 0.19546 0.0
C536 C 0.32208 0.23682 0.22561 0.0
C537 C 0.32508 0.22795 0.2628 0.0
C538 C 0.3443 0.14393 0.41668 0.0
C539 C 0.29279 0.14046 0.31621 0.0
O540 O 0.29856 0.10948 0.43833 0.0
O541 O 0.27364 0.13069 0.44601 0.0
O542 O 0.29355 0.17703 0.38837 0.0
O543 O 0.26857 0.1591 0.37582 0.0
O544 O 0.32205 0.19102 0.41764 0.0
O545 O 0.30928 0.16336 0.4536 0.0
O546 O 0.3273 0.20565 0.33617 0.0
O547 O 0.34447 0.1796 0.31741 0.0
O548 O 0.32936 0.13973 0.39483 0.0
O549 O 0.35069 0.16234 0.40581 0.0
O550 O 0.28971 0.12943 0.34785 0.0
O551 O 0.30377 0.15737 0.31603 0.0
H552 H 0.30006 0.13406 0.51291 0.0
H553 H 0.29684 0.12667 0.58022 0.0
H554 H 0.26561 0.0699 0.55752 0.0
H555 H 0.26833 0.07787 0.49032 0.0
H556 H 0.34922 0.18267 0.24626 0.0
H557 H 0.3438 0.19794 0.18164 0.0
H558 H 0.31482 0.25215 0.22066 0.0
H559 H 0.31996 0.23672 0.28511 0.0
Pr560 Pr 0.57419 0.55923 0.27387 0.0
Pr561 Pr 0.55963 0.5985 0.22262 0.0
C562 C 0.59437 0.52942 0.31936 0.0
C563 C 0.59577 0.52222 0.35944 0.0
C564 C 0.59998 0.50094 0.36998 0.0
C565 C 0.59889 0.49305 0.40718 0.0
C566 C 0.59362 0.50634 0.43458 0.0
C567 C 0.59016 0.52787 0.42425 0.0
C568 C 0.59109 0.53575 0.38685 0.0
C569 C 0.5374 0.55511 0.23629 0.0
C570 C 0.5434 0.59157 0.30974 0.0
C571 C 0.54003 0.62771 0.17445 0.0
C572 C 0.53274 0.6284 0.13437 0.0
C573 C 0.52738 0.64767 0.11443 0.0
C574 C 0.52104 0.64849 0.07616 0.0
C575 C 0.51993 0.63003 0.05694 0.0
C576 C 0.5253 0.61072 0.07721 0.0
C577 C 0.53167 0.60992 0.11545 0.0
C578 C 0.5951 0.60301 0.26757 0.0
C579 C 0.58288 0.56082 0.18181 0.0
O580 O 0.60185 0.54772 0.30983 0.0
O581 O 0.57733 0.52619 0.30117 0.0
O582 O 0.55216 0.56377 0.22261 0.0
O583 O 0.54147 0.54842 0.27131 0.0
O584 O 0.54009 0.60089 0.27527 0.0
O585 O 0.55741 0.57679 0.31762 0.0
O586 O 0.53106 0.61485 0.19763 0.0
O587 O 0.55935 0.62728 0.18134 0.0
O588 O 0.57977 0.59394 0.27685 0.0
O589 O 0.59223 0.61172 0.23357 0.0
O590 O 0.5884 0.55237 0.2162 0.0
O591 O 0.57087 0.57753 0.17708 0.0
H592 H 0.60351 0.49026 0.34918 0.0
H593 H 0.60186 0.47644 0.41442 0.0
H594 H 0.58593 0.53843 0.44474 0.0
H595 H 0.58755 0.55221 0.37913 0.0
H596 H 0.52814 0.66212 0.12843 0.0
H597 H 0.51682 0.66361 0.06171 0.0
H598 H 0.52493 0.59621 0.06339 0.0
H599 H 0.53591 0.59487 0.13019 0.0
Pr600 Pr 0.18796 0.82887 1.01793 0.0
Pr601 Pr 0.15725 0.80526 0.97249 0.0
C602 C 0.20959 0.84971 0.06875 0.0
C603 C 0.21182 0.85351 0.10885 0.0
C604 C 0.20938 0.83731 0.13681 0.0
C605 C 0.215 0.84013 0.17441 0.0
C606 C 0.22311 0.85922 0.18472 0.0
C607 C 0.2242 0.87584 0.15685 0.0
C608 C 0.21867 0.87297 0.11927 0.0
C609 C 0.20498 0.79903 0.97655 0.0
C610 C 0.1661 0.78687 0.0583 0.0
C611 C 0.13612 0.78524 0.91938 0.0
C612 C 0.13806 0.77916 0.8807 0.0
C613 C 0.12143 0.77205 0.86002 0.0
C614 C 0.12302 0.76563 0.82378 0.0
C615 C 0.14136 0.76612 0.80724 0.0
C616 C 0.15799 0.77358 0.828 0.0
C617 C 0.15636 0.78003 0.86431 0.0
C618 C 0.14064 0.8323 1.02132 0.0
C619 C 0.1852 0.84053 0.92742 0.0
O620 O 0.19432 0.85838 0.04831 0.0
O621 O 0.2141 0.83077 0.06008 0.0
O622 O 0.18956 0.79613 0.99421 0.0
O623 O 0.21233 0.81735 0.98109 0.0
O624 O 0.16052 0.78131 0.02453 0.0
O625 O 0.17461 0.80512 0.06315 0.0
O626 O 0.14802 0.77553 0.94591 0.0
O627 O 0.13379 0.8053 0.92364 0.0
O628 O 0.15509 0.83672 1.00149 0.0
O629 O 0.13316 0.81452 1.01291 0.0
O630 O 0.19077 0.84813 0.95978 0.0
O631 O 0.17406 0.82386 0.9262 0.0
H632 H 0.20402 0.82216 0.12942 0.0
H633 H 0.21404 0.82694 0.19503 0.0
H634 H 0.22998 0.89088 0.16389 0.0
H635 H 0.22056 0.8857 0.09812 0.0
H636 H 0.10715 0.77135 0.872 0.0
H637 H 0.10978 0.76043 0.80861 0.0
H638 H 0.1724 0.77406 0.81654 0.0
H639 H 0.16942 0.78549 0.87974 0.0
Pr640 Pr 0.56761 0.90205 0.66058 0.0
Pr641 Pr 0.59 0.9327 0.60834 0.0
C642 C 0.55342 0.8718 0.70745 0.0
C643 C 0.54837 0.87152 0.74681 0.0
C644 C 0.53775 0.85489 0.76277 0.0
C645 C 0.53238 0.85506 0.79981 0.0
C646 C 0.5375 0.87194 0.82151 0.0
C647 C 0.54831 0.8885 0.80533 0.0
C648 C 0.55367 0.88829 0.76838 0.0
C649 C 0.55162 0.94213 0.65539 0.0
C650 C 0.59347 0.94054 0.69724 0.0
C651 C 0.60316 0.95884 0.55209 0.0
C652 C 0.59911 0.96814 0.51243 0.0
C653 C 0.61489 0.97645 0.49293 0.0
C654 C 0.61176 0.98568 0.45595 0.0
C655 C 0.59266 0.98694 0.43689 0.0
C656 C 0.57681 0.97847 0.45657 0.0
C657 C 0.57999 0.96919 0.49373 0.0
C658 C 0.61443 0.90274 0.65482 0.0
C659 C 0.55554 0.90235 0.56859 0.0
O660 O 0.57227 0.87344 0.70187 0.0
O661 O 0.542 0.88382 0.68333 0.0
O662 O 0.55759 0.93364 0.62703 0.0
O663 O 0.55303 0.92963 0.68574 0.0
O664 O 0.59294 0.95044 0.66328 0.0
O665 O 0.5875 0.92091 0.70263 0.0
O666 O 0.5922 0.96521 0.57802 0.0
O667 O 0.60814 0.93883 0.5575 0.0
O668 O 0.59794 0.89903 0.63717 0.0
O669 O 0.61956 0.92169 0.64439 0.0
O670 O 0.55179 0.89407 0.60225 0.0
O671 O 0.56988 0.91586 0.56431 0.0
H672 H 0.53343 0.84187 0.74649 0.0
H673 H 0.52388 0.84217 0.81118 0.0
H674 H 0.55276 0.90159 0.8213 0.0
H675 H 0.56189 0.90131 0.75655 0.0
H676 H 0.62979 0.97598 0.50652 0.0
H677 H 0.62439 0.99221 0.44258 0.0
H678 H 0.5619 0.97877 0.44314 0.0
H679 H 0.5675 0.96285 0.50782 0.0
Pr680 Pr 0.31808 0.30636 0.83837 0.0
Pr681 Pr 0.28678 0.3365 0.8695 0.0
C682 C 0.33898 0.28078 0.79871 0.0
C683 C 0.33678 0.27132 0.76227 0.0
C684 C 0.34975 0.27699 0.73451 0.0
C685 C 0.34775 0.26858 0.69958 0.0
C686 C 0.33281 0.25414 0.69171 0.0
C687 C 0.31994 0.24832 0.71975 0.0
C688 C 0.32185 0.25686 0.75458 0.0
C689 C 0.33425 0.33924 0.87589 0.0
C690 C 0.28638 0.33687 0.77889 0.0
C691 C 0.26846 0.3654 0.90682 0.0
C692 C 0.25986 0.36657 0.94299 0.0
C693 C 0.25446 0.34827 0.96359 0.0
C694 C 0.24585 0.34962 0.99762 0.0
C695 C 0.24264 0.36929 1.01173 0.0
C696 C 0.24831 0.38756 0.99102 0.0
C697 C 0.25682 0.38618 0.95689 0.0
C698 C 0.27167 0.29934 0.84386 0.0
C699 C 0.30989 0.29805 0.92883 0.0
O700 O 0.32771 0.27381 0.82504 0.0
O701 O 0.34121 0.30117 0.79724 0.0
O702 O 0.31867 0.34087 0.85366 0.0
O703 O 0.34321 0.32126 0.87401 0.0
O704 O 0.28355 0.3491 0.80627 0.0
O705 O 0.2971 0.31919 0.78512 0.0
O706 O 0.2878 0.36315 0.90786 0.0
O707 O 0.2591 0.35378 0.88307 0.0
O708 O 0.28811 0.30156 0.86152 0.0
O709 O 0.261 0.31659 0.84272 0.0
O710 O 0.31759 0.28984 0.89985 0.0
O711 O 0.29893 0.31572 0.92443 0.0
H712 H 0.3614 0.2881 0.73974 0.0
H713 H 0.35777 0.27364 0.67859 0.0
H714 H 0.30848 0.23696 0.71499 0.0
H715 H 0.31163 0.2521 0.77539 0.0
H716 H 0.25679 0.33297 0.95323 0.0
H717 H 0.24149 0.33526 1.01261 0.0
H718 H 0.24641 0.40291 1.00139 0.0
H719 H 0.26103 0.40044 0.94135 0.0
Pr720 Pr 0.94072 0.08866 0.10901 0.0
Pr721 Pr 0.91484 0.05978 0.06383 0.0
C722 C 0.95592 0.11429 0.1598 0.0
C723 C 0.95944 0.11382 0.20107 0.0
C724 C 0.97907 0.11328 0.21701 0.0
C725 C 0.98303 0.11184 0.25587 0.0
C726 C 0.96744 0.11119 0.27991 0.0
C727 C 0.94771 0.11199 0.2639 0.0
C728 C 0.94374 0.11324 0.22486 0.0
C729 C 0.96173 0.0527 0.09317 0.0
C730 C 0.91705 0.04913 0.15375 0.0
C731 C 0.89719 0.03565 1.01252 0.0
C732 C 0.89931 0.02664 0.97567 0.0
C733 C 0.88921 0.03606 0.94267 0.0
C734 C 0.88965 0.02673 0.90849 0.0
C735 C 0.90007 0.00759 0.90632 0.0
C736 C 0.91042 -0.00165 0.93926 0.0
C737 C 0.91001 0.0077 0.97342 0.0
C738 C 0.89387 0.09092 0.09781 0.0
C739 C 0.94723 0.0908 1.02076 0.0
O740 O 0.9376 0.11608 0.14514 0.0
O741 O 0.9667 0.10109 0.14335 0.0
O742 O 0.94389 0.05305 0.10175 0.0
O743 O 0.96842 0.07163 0.08969 0.0
O744 O 0.91334 0.04068 0.12152 0.0
O745 O 0.9257 0.06753 0.15553 0.0
O746 O 0.90849 0.02795 0.04184 0.0
O747 O 0.89386 0.05594 1.01248 0.0
O748 O 0.9096 0.09382 0.08084 0.0
O749 O 0.88743 0.07226 0.09262 0.0
O750 O 0.94791 0.10273 0.04933 0.0
O751 O 0.93747 0.0731 1.0219 0.0
H752 H 0.99143 0.11363 0.19932 0.0
H753 H 0.99839 0.11083 0.26703 0.0
H754 H 0.93532 0.11178 0.2815 0.0
H755 H 0.92842 0.11362 0.21342 0.0
H756 H 0.88056 0.05047 0.9434 0.0
H757 H 0.88131 0.03424 0.88397 0.0
H758 H 0.91887 0.98381 0.93874 0.0
H759 H 0.91785 -0.00014 0.99819 0.0
Pr760 Pr 0.17155 0.6847 0.37839 0.0
Pr761 Pr 0.20087 0.65901 0.33604 0.0
C762 C 0.14806 0.70007 0.42875 0.0
C763 C 0.14907 0.70561 0.4685 0.0
C764 C 0.16145 0.72153 0.48113 0.0
C765 C 0.16132 0.72736 0.51809 0.0
C766 C 0.14883 0.71744 0.54354 0.0
C767 C 0.13673 0.70123 0.53095 0.0
C768 C 0.13682 0.69546 0.49394 0.0
C769 C 0.2029 0.70815 0.35268 0.0
C770 C 0.21118 0.65919 0.42553 0.0
C771 C 0.2259 0.64216 0.28993 0.0
C772 C 0.23255 0.64194 0.25138 0.0
C773 C 0.23838 0.62272 0.23844 0.0
C774 C 0.24634 0.62201 0.2035 0.0
C775 C 0.24871 0.64056 0.1805 0.0
C776 C 0.24235 0.65979 0.19319 0.0
C777 C 0.23436 0.66048 0.22823 0.0
C778 C 0.17127 0.63635 0.37104 0.0
C779 C 0.16514 0.68925 0.28813 0.0
O780 O 0.1491 0.68018 0.42266 0.0
O781 O 0.15746 0.7119 0.4048 0.0
O782 O 0.20444 0.6894 0.36694 0.0
O783 O 0.18441 0.71441 0.34889 0.0
O784 O 0.21924 0.65681 0.39365 0.0
O785 O 0.19299 0.66718 0.42646 0.0
O786 O 0.23016 0.65843 0.30893 0.0
O787 O 0.20863 0.63428 0.29654 0.0
O788 O 0.16873 0.6537 0.35178 0.0
O789 O 0.18947 0.62947 0.37039 0.0
O790 O 0.15522 0.68978 0.31855 0.0
O791 O 0.18319 0.68076 0.2892 0.0
H792 H 0.17108 0.72975 0.46232 0.0
H793 H 0.17069 0.74006 0.52638 0.0
H794 H 0.12716 0.69292 0.5497 0.0
H795 H 0.1271 0.68316 0.48506 0.0
H796 H 0.23725 0.60822 0.25586 0.0
H797 H 0.25126 0.60694 0.19511 0.0
H798 H 0.24362 0.67438 0.17612 0.0
H799 H 0.2299 0.67553 0.23743 0.0
Pr800 Pr 0.54483 0.09624 0.1102 0.0
Pr801 Pr 0.56099 0.05604 0.07632 0.0
C802 C 0.52344 0.12475 0.143 0.0
C803 C 0.51557 0.12477 0.18047 0.0
C804 C 0.51255 0.14373 0.19683 0.0
C805 C 0.50612 0.14368 0.2332 0.0
C806 C 0.50256 0.12464 0.25396 0.0
C807 C 0.50553 0.10567 0.23725 0.0
C808 C 0.51202 0.10575 0.20101 0.0
C809 C 0.57957 0.10163 0.07229 0.0
C810 C 0.56985 0.06018 0.16993 0.0
C811 C 0.58284 0.02617 0.04809 0.0
C812 C 0.58861 0.02074 1.01123 0.0
C813 C 0.59712 0.0009 1.00764 0.0
C814 C 0.60122 0.99477 0.97234 0.0
C815 C 0.59697 0.00845 0.93988 0.0
C816 C 0.58887 0.0286 0.94387 0.0
C817 C 0.58459 0.03462 0.97919 0.0
C818 C 0.5245 0.05203 0.10645 0.0
C819 C 0.52942 0.08634 1.02101 0.0
O820 O 0.51539 0.11162 0.12023 0.0
O821 O 0.54281 0.12526 0.14262 0.0
O822 O 0.56493 0.09092 0.06322 0.0
O823 O 0.57607 0.11202 0.10103 0.0
O824 O 0.57519 0.05102 0.13993 0.0
O825 O 0.55751 0.07672 0.16592 0.0
O826 O 0.59058 0.04307 0.06124 0.0
O827 O 0.56399 0.0242 0.05367 0.0
O828 O 0.53923 0.06136 0.12018 0.0
O829 O 0.52877 0.04348 0.07607 0.0
O830 O 0.52527 0.09583 0.05152 0.0
O831 O 0.54453 0.07271 1.0219 0.0
H832 H 0.51533 0.15858 0.18161 0.0
H833 H 0.50382 0.15859 0.24498 0.0
H834 H 0.50326 0.0907 0.2525 0.0
H835 H 0.5145 0.0909 0.18916 0.0
H836 H 0.60012 0.98991 0.03206 0.0
H837 H 0.60707 0.97901 0.97043 0.0
H838 H 0.58562 0.03966 0.91966 0.0
H839 H 0.57777 0.04992 0.98136 0.0
Pr840 Pr 0.16681 0.31297 0.486 0.0
Pr841 Pr 0.19513 0.34274 0.44187 0.0
C842 C 0.15109 0.28588 0.53714 0.0
C843 C 0.1557 0.27582 0.57594 0.0
C844 C 0.16175 0.28755 0.60631 0.0
C845 C 0.16537 0.27773 0.64277 0.0
C846 C 0.16306 0.25588 0.64999 0.0
C847 C 0.15724 0.24421 0.61931 0.0
C848 C 0.1536 0.25404 0.58294 0.0
C849 C 0.14699 0.34463 0.43708 0.0
C850 C 0.2012 0.34184 0.53291 0.0
C851 C 0.20952 0.371 0.3918 0.0
C852 C 0.2057 0.37628 0.3514 0.0
C853 C 0.2191 0.38869 0.33211 0.0
C854 C 0.2174 0.39099 0.29294 0.0
C855 C 0.20232 0.3808 0.27255 0.0
C856 C 0.18824 0.36935 0.29217 0.0
C857 C 0.18997 0.36708 0.33132 0.0
C858 C 0.21275 0.30391 0.47018 0.0
C859 C 0.16969 0.30598 0.39706 0.0
O860 O 0.16176 0.27974 0.51067 0.0
O861 O 0.14674 0.3061 0.53332 0.0
O862 O 0.16304 0.34697 0.45741 0.0
O863 O 0.13925 0.32686 0.44786 0.0
O864 O 0.20441 0.35321 0.50168 0.0
O865 O 0.18891 0.32594 0.53288 0.0
O866 O 0.19526 0.37555 0.41294 0.0
O867 O 0.21774 0.35244 0.40094 0.0
O868 O 0.19516 0.30744 0.45711 0.0
O869 O 0.22241 0.32142 0.46841 0.0
O870 O 0.16582 0.29623 0.42969 0.0
O871 O 0.17846 0.32441 0.39491 0.0
H872 H 0.16354 0.30437 0.60199 0.0
H873 H 0.16959 0.28741 0.66542 0.0
H874 H 0.15563 0.22736 0.62322 0.0
H875 H 0.14902 0.24456 0.56016 0.0
H876 H 0.2314 0.39578 0.34725 0.0
H877 H 0.22863 0.3997 0.27866 0.0
H878 H 0.17634 0.36151 0.27724 0.0
H879 H 0.17952 0.35744 0.34587 0.0
Pr880 Pr 0.94739 0.90701 0.6255 0.0
Pr881 Pr 0.91852 0.93703 0.57486 0.0
C882 C 0.97197 0.88623 0.67914 0.0
C883 C 0.97887 0.88765 0.7187 0.0
C884 C 0.9889 0.87041 0.73857 0.0
C885 C 0.9955 0.87134 0.77627 0.0
C886 C 0.99217 0.88959 0.79486 0.0
C887 C 0.98203 0.90688 0.77474 0.0
C888 C 0.97544 0.90592 0.73696 0.0
C889 C 0.91619 0.88809 0.58601 0.0
C890 C 0.91504 0.93663 0.66565 0.0
C891 C 0.89206 0.95446 0.52088 0.0
C892 C 0.8915 0.96203 0.48085 0.0
C893 C 0.88865 0.98358 0.47066 0.0
C894 C 0.88902 0.99137 0.43329 0.0
C895 C 0.89201 0.97772 0.40508 0.0
C896 C 0.89437 0.95602 0.4152 0.0
C897 C 0.89416 0.94824 0.45273 0.0
C898 C 0.94887 0.95728 0.61145 0.0
C899 C 0.95844 0.91471 0.53841 0.0
O900 O 0.97791 0.90083 0.65508 0.0
O901 O 0.95336 0.88139 0.67246 0.0
O902 O 0.91464 0.9045 0.60312 0.0
O903 O 0.93422 0.88037 0.59035 0.0
O904 O 0.90446 0.93979 0.63294 0.0
O905 O 0.93253 0.92686 0.66839 0.0
O906 O 0.89385 0.93418 0.52942 0.0
O907 O 0.90252 0.96542 0.54421 0.0
O908 O 0.951 0.94003 0.59693 0.0
O909 O 0.93113 0.9655 0.60433 0.0
O910 O 0.96518 0.9077 0.57263 0.0
O911 O 0.94101 0.92494 0.53186 0.0
H912 H 0.99157 0.85614 0.72493 0.0
H913 H 0.00294 0.85762 0.79101 0.0
H914 H 0.97937 0.92124 0.78806 0.0
H915 H 0.9677 0.91941 0.72199 0.0
H916 H 0.8865 0.99452 0.49178 0.0
H917 H 0.88748 0.00819 0.42673 0.0
H918 H 0.89642 0.94503 0.39416 0.0
H919 H 0.89628 0.9315 0.45967 0.0
Pr920 Pr 0.34358 0.68474 0.8938 0.0
Pr921 Pr 0.31396 0.65903 0.84947 0.0
C922 C 0.36365 0.70617 0.94619 0.0
C923 C 0.36145 0.71186 0.98502 0.0
C924 C 0.37799 0.71864 1.00642 0.0
C925 C 0.37616 0.72464 0.04286 0.0
C926 C 0.35768 0.72407 0.05885 0.0
C927 C 0.34114 0.71695 0.03736 0.0
C928 C 0.34302 0.71091 1.00087 0.0
C929 C 0.36131 0.65923 0.844 0.0
C930 C 0.31829 0.64749 0.93987 0.0
C931 C 0.29286 0.63672 0.80019 0.0
C932 C 0.28979 0.63364 0.7601 0.0
C933 C 0.27195 0.62494 0.74712 0.0
C934 C 0.26711 0.62435 0.70875 0.0
C935 C 0.28009 0.63237 0.68244 0.0
C936 C 0.2984 0.64041 0.69572 0.0
C937 C 0.30317 0.64112 0.73432 0.0
C938 C 0.29554 0.68765 0.89142 0.0
C939 C 0.33291 0.70233 0.80793 0.0
O940 O 0.35103 0.71507 0.91999 0.0
O941 O 0.36733 0.68633 0.94176 0.0
O942 O 0.34733 0.65362 0.86426 0.0
O943 O 0.36783 0.67736 0.85269 0.0
O944 O 0.31297 0.63951 0.90778 0.0
O945 O 0.32839 0.6649 0.94067 0.0
O946 O 0.30951 0.62965 0.8182 0.0
O947 O 0.28703 0.655 0.80997 0.0
O948 O 0.31069 0.69163 0.87344 0.0
O949 O 0.28926 0.6689 0.88674 0.0
O950 O 0.33847 0.70832 0.84144 0.0
O951 O 0.32533 0.68361 0.80358 0.0
H952 H 0.39238 0.71937 0.99487 0.0
H953 H 0.38933 0.72959 0.05859 0.0
H954 H 0.32663 0.71644 0.0484 0.0
H955 H 0.33002 0.70568 0.98489 0.0
H956 H 0.26136 0.61935 0.76668 0.0
H957 H 0.25273 0.61848 0.69982 0.0
H958 H 0.30884 0.64651 0.67632 0.0
H959 H 0.31698 0.64805 0.74397 0.0
Pr960 Pr 0.40962 0.05706 0.73745 0.0
Pr961 Pr 0.43232 0.08764 0.68478 0.0
C962 C 0.39725 0.03029 0.79363 0.0
C963 C 0.40165 0.02051 0.833 0.0
C964 C 0.39394 0.00074 0.84314 0.0
C965 C 0.39682 0.99144 0.88013 0.0
C966 C 0.40763 0.00151 0.90863 0.0
C967 C 0.41546 0.02138 0.89826 0.0
C968 C 0.41251 0.03073 0.86109 0.0
C969 C 0.38499 0.08595 0.68923 0.0
C970 C 0.44168 0.08969 0.7775 0.0
C971 C 0.44749 0.1174 0.63796 0.0
C972 C 0.45211 0.11875 0.59817 0.0
C973 C 0.46616 0.13298 0.58541 0.0
C974 C 0.47105 0.13395 0.54797 0.0
C975 C 0.462 0.12065 0.52245 0.0
C976 C 0.44782 0.10645 0.53544 0.0
C977 C 0.44295 0.10549 0.57288 0.0
C978 C 0.44912 0.04779 0.6954 0.0
C979 C 0.40716 0.04899 0.64823 0.0
O980 O 0.40778 0.02414 0.76692 0.0
O981 O 0.39224 0.05032 0.78893 0.0
O982 O 0.40143 0.09018 0.70657 0.0
O983 O 0.37992 0.06719 0.70102 0.0
O984 O 0.44633 0.0971 0.74378 0.0
O985 O 0.42754 0.07594 0.78159 0.0
O986 O 0.4287 0.11673 0.6444 0.0
O987 O 0.45856 0.10433 0.66078 0.0
O988 O 0.44252 0.05743 0.72186 0.0
O989 O 0.44752 0.05893 0.66352 0.0
O990 O 0.40773 0.03913 0.68228 0.0
O991 O 0.41289 0.06867 0.64271 0.0
H992 H 0.38535 0.9925 0.82239 0.0
H993 H 0.39012 0.97642 0.88644 0.0
H994 H 0.42408 0.02972 0.91877 0.0
H995 H 0.41866 0.04599 0.85437 0.0
H996 H 0.4735 0.14324 0.60452 0.0
H997 H 0.48222 0.14487 0.53923 0.0
H998 H 0.44034 0.09615 0.5166 0.0
H999 H 0.43208 0.09432 0.58213 0.0
Pr1000 Pr 0.72249 0.64301 0.46515 0.0
Pr1001 Pr 0.70992 0.68714 0.4949 0.0
C1002 C 0.72354 0.60721 0.43019 0.0
C1003 C 0.72896 0.60294 0.39265 0.0
C1004 C 0.73423 0.61963 0.3679 0.0
C1005 C 0.73947 0.61589 0.33209 0.0
C1006 C 0.73959 0.59537 0.32036 0.0
C1007 C 0.73441 0.57862 0.34536 0.0
C1008 C 0.72906 0.58241 0.38131 0.0
C1009 C 0.75237 0.67265 0.46779 0.0
C1010 C 0.7085 0.68455 0.40238 0.0
C1011 C 0.70868 0.72419 0.52594 0.0
C1012 C 0.70834 0.73197 0.56335 0.0
C1013 C 0.711 0.71817 0.59579 0.0
C1014 C 0.71004 0.72577 0.63123 0.0
C1015 C 0.7063 0.74727 0.63469 0.0
C1016 C 0.7039 0.76103 0.60198 0.0
C1017 C 0.70491 0.75342 0.56663 0.0
C1018 C 0.67875 0.66101 0.47667 0.0
C1019 C 0.7297 0.64835 0.55672 0.0
O1020 O 0.70737 0.61871 0.43106 0.0
O1021 O 0.73814 0.61292 0.45293 0.0
O1022 O 0.73411 0.67579 0.4605 0.0
O1023 O 0.75627 0.65256 0.46985 0.0
O1024 O 0.70994 0.6972 0.43018 0.0
O1025 O 0.71089 0.66378 0.40895 0.0
O1026 O 0.72526 0.715 0.5183 0.0
O1027 O 0.69274 0.71463 0.51386 0.0
O1028 O 0.69544 0.65481 0.49282 0.0
O1029 O 0.67692 0.68134 0.47646 0.0
O1030 O 0.72887 0.63477 0.53041 0.0
O1031 O 0.72399 0.66828 0.54964 0.0
H1032 H 0.73439 0.63556 0.37639 0.0
H1033 H 0.74373 0.62907 0.31376 0.0
H1034 H 0.73427 0.56267 0.33698 0.0
H1035 H 0.72502 0.56938 0.40019 0.0
H1036 H 0.71361 0.70152 0.59368 0.0
H1037 H 0.71179 0.71475 0.65584 0.0
H1038 H 0.70132 0.77771 0.6037 0.0
H1039 H 0.70289 0.76428 0.54182 0.0
Pr1040 Pr 0.08908 0.93344 0.29275 0.0
Pr1041 Pr 0.06068 0.90696 0.24535 0.0
C1042 C 0.10768 0.95662 0.34467 0.0
C1043 C 0.10579 0.96663 0.38054 0.0
C1044 C 0.11657 0.98473 0.38726 0.0
C1045 C 0.11588 0.99412 0.42133 0.0
C1046 C 0.1043 0.98571 0.44984 0.0
C1047 C 0.09344 0.96751 0.44295 0.0
C1048 C 0.09418 0.9581 0.40874 0.0
C1049 C 0.10741 0.8998 0.26073 0.0
C1050 C 0.05298 0.90595 0.33281 0.0
C1051 C 0.04413 0.88292 0.1932 0.0
C1052 C 0.04033 0.88431 0.15176 0.0
C1053 C 0.02252 0.89357 0.13475 0.0
C1054 C 0.01878 0.89498 0.0958 0.0
C1055 C 0.03266 0.88702 0.07278 0.0
C1056 C 0.05043 0.87758 0.08974 0.0
C1057 C 0.05423 0.87624 0.12881 0.0
C1058 C 0.04398 0.94606 0.2584 0.0
C1059 C 0.08939 0.94279 0.20216 0.0
O1060 O 0.09759 0.96498 0.31439 0.0
O1061 O 0.10886 0.93606 0.34603 0.0
O1062 O 0.09092 0.89899 0.27584 0.0
O1063 O 0.11596 0.91728 0.26774 0.0
O1064 O 0.05175 0.89396 0.30435 0.0
O1065 O 0.06425 0.92263 0.33238 0.0
O1066 O 0.06255 0.88036 0.20706 0.0
O1067 O 0.03392 0.89581 0.21142 0.0
O1068 O 0.06179 0.94258 0.25178 0.0
O1069 O 0.03457 0.9285 0.2607 0.0
O1070 O 0.09396 0.95097 0.23446 0.0
O1071 O 0.0784 0.92587 0.20014 0.0
H1072 H 0.12579 0.99154 0.3662 0.0
H1073 H 0.12474 0.00783 0.42548 0.0
H1074 H 0.08415 0.96065 0.46379 0.0
H1075 H 0.08573 0.94413 0.40438 0.0
H1076 H 0.01137 0.89971 0.15154 0.0
H1077 H 0.0048 0.90199 0.08373 0.0
H1078 H 0.06148 0.87139 0.07279 0.0
H1079 H 0.06805 0.86889 0.14099 0.0
Pr1080 Pr 0.80099 0.3285 1.02017 0.0
Pr1081 Pr 0.83143 0.30249 0.98143 0.0
C1082 C 0.77502 0.3449 0.06515 0.0
C1083 C 0.76688 0.34384 0.10292 0.0
C1084 C 0.7772 0.35198 0.134 0.0
C1085 C 0.76833 0.35297 0.16817 0.0
C1086 C 0.74885 0.34597 0.17217 0.0
C1087 C 0.73877 0.3374 0.14125 0.0
C1088 C 0.74761 0.33643 0.10717 0.0
C1089 C 0.83147 0.3509 0.98719 0.0
C1090 C 0.8362 0.29893 0.0712 0.0
C1091 C 0.85551 0.28644 0.93278 0.0
C1092 C 0.85448 0.28093 0.89301 0.0
C1093 C 0.84216 0.26494 0.88046 0.0
C1094 C 0.84202 0.25934 0.84333 0.0
C1095 C 0.85419 0.26956 0.81764 0.0
C1096 C 0.86628 0.28579 0.83016 0.0
C1097 C 0.86643 0.29136 0.86732 0.0
C1098 C 0.7996 0.27906 1.00507 0.0
C1099 C 0.79301 0.32805 0.93045 0.0
O1100 O 0.77045 0.3301 0.04286 0.0
O1101 O 0.79296 0.35189 0.06165 0.0
O1102 O 0.8335 0.33376 1.00718 0.0
O1103 O 0.81318 0.35785 0.98591 0.0
O1104 O 0.84693 0.29855 0.04184 0.0
O1105 O 0.81785 0.30677 0.06827 0.0
O1106 O 0.85473 0.30636 0.93874 0.0
O1107 O 0.84575 0.27487 0.95651 0.0
O1108 O 0.79823 0.29768 0.99006 0.0
O1109 O 0.81813 0.27323 1.01157 0.0
O1110 O 0.78401 0.33078 0.96121 0.0
O1111 O 0.81121 0.31985 0.9316 0.0
H1112 H 0.79197 0.35808 0.13174 0.0
H1113 H 0.77656 0.35984 0.19108 0.0
H1114 H 0.72392 0.33148 0.14324 0.0
H1115 H 0.73914 0.33024 0.0838 0.0
H1116 H 0.83274 0.25653 0.8994 0.0
H1117 H 0.83268 0.24663 0.83505 0.0
H1118 H 0.87561 0.2943 0.8112 0.0
H1119 H 0.87604 0.30379 0.87607 0.0
Pr1120 Pr 0.42879 0.93001 0.27316 0.0
Pr1121 Pr 0.4534 0.89584 0.23955 0.0
C1122 C 0.40215 0.95689 0.29793 0.0
C1123 C 0.39766 0.96369 0.33473 0.0
C1124 C 0.38769 0.98297 0.33668 0.0
C1125 C 0.38551 0.991 0.3714 0.0
C1126 C 0.3932 0.97979 0.4048 0.0
C1127 C 0.40253 0.96007 0.40284 0.0
C1128 C 0.4049 0.95217 0.36803 0.0
C1129 C 0.46719 0.94137 0.26147 0.0
C1130 C 0.46398 0.90371 0.32896 0.0
C1131 C 0.47545 0.87172 0.19914 0.0
C1132 C 0.48275 0.87275 0.1613 0.0
C1133 C 0.49037 0.85452 0.1476 0.0
C1134 C 0.49673 0.85502 0.11124 0.0
C1135 C 0.49554 0.8738 0.08776 0.0
C1136 C 0.4879 0.8921 0.10175 0.0
C1137 C 0.48158 0.89157 0.13819 0.0
C1138 C 0.42311 0.88029 0.28288 0.0
C1139 C 0.4276 0.93082 0.17861 0.0
O1140 O 0.39786 0.93764 0.29092 0.0
O1141 O 0.41933 0.96256 0.28663 0.0
O1142 O 0.45608 0.93165 0.23897 0.0
O1143 O 0.45855 0.94468 0.2918 0.0
O1144 O 0.47158 0.8985 0.29769 0.0
O1145 O 0.44607 0.91296 0.32789 0.0
O1146 O 0.48322 0.88477 0.22241 0.0
O1147 O 0.45621 0.86984 0.20069 0.0
O1148 O 0.4217 0.89644 0.25997 0.0
O1149 O 0.44008 0.87069 0.28158 0.0
O1150 O 0.42141 0.93995 0.20788 0.0
O1151 O 0.43895 0.91359 0.18359 0.0
H1152 H 0.38215 0.99215 0.31125 0.0
H1153 H 0.37816 0.00618 0.37213 0.0
H1154 H 0.4088 0.95122 0.42807 0.0
H1155 H 0.41301 0.93745 0.36711 0.0
H1156 H 0.49124 0.83981 0.16493 0.0
H1157 H 0.50221 0.84055 0.1013 0.0
H1158 H 0.48696 0.90688 0.08468 0.0
H1159 H 0.4757 0.90583 0.14828 0.0
Pr1160 Pr 0.80241 0.63335 0.90947 0.0
Pr1161 Pr 0.82182 0.67269 0.87018 0.0
C1162 C 0.79554 0.5961 0.94564 0.0
C1163 C 0.79432 0.59041 0.9859 0.0
C1164 C 0.78014 0.57618 0.99804 0.0
C1165 C 0.77662 0.57351 0.03609 0.0
C1166 C 0.78725 0.58509 0.06246 0.0
C1167 C 0.80227 0.5984 0.05035 0.0
C1168 C 0.80563 0.60118 1.01241 0.0
C1169 C 0.77767 0.66866 0.90121 0.0
C1170 C 0.81397 0.67397 0.95921 0.0
C1171 C 0.83147 0.70501 0.82193 0.0
C1172 C 0.82725 0.71353 0.78199 0.0
C1173 C 0.84307 0.72001 0.76078 0.0
C1174 C 0.83965 0.72839 0.72339 0.0
C1175 C 0.82024 0.7306 0.70586 0.0
C1176 C 0.80436 0.72404 0.72721 0.0
C1177 C 0.80782 0.71558 0.76469 0.0
C1178 C 0.84793 0.64787 0.92224 0.0
C1179 C 0.79971 0.63752 0.81632 0.0
O1180 O 0.81309 0.60135 0.93524 0.0
O1181 O 0.78123 0.60863 0.92999 0.0
O1182 O 0.78935 0.66358 0.87683 0.0
O1183 O 0.77726 0.65408 0.92859 0.0
O1184 O 0.81516 0.68584 0.92739 0.0
O1185 O 0.81197 0.65328 0.95998 0.0
O1186 O 0.81731 0.70634 0.84498 0.0
O1187 O 0.84204 0.68746 0.82796 0.0
O1188 O 0.83477 0.64086 0.89922 0.0
O1189 O 0.84953 0.66794 0.91407 0.0
O1190 O 0.79358 0.62719 0.84655 0.0
O1191 O 0.81207 0.65323 0.81883 0.0
H1192 H 0.77113 0.56791 0.97792 0.0
H1193 H 0.76483 0.56329 0.04449 0.0
H1194 H 0.81093 0.60729 0.07002 0.0
H1195 H 0.81647 0.6125 1.00368 0.0
H1196 H 0.85819 0.71874 0.7733 0.0
H1197 H 0.85229 0.73349 0.70842 0.0
H1198 H 0.78922 0.72519 0.71483 0.0
H1199 H 0.79526 0.71064 0.78009 0.0
Pr1200 Pr 0.08275 0.05924 0.78195 0.0
Pr1201 Pr 0.05195 0.0857 0.72809 0.0
C1202 C 0.11018 0.04676 0.83815 0.0
C1203 C 0.11043 0.03581 0.87602 0.0
C1204 C 0.10405 0.01503 0.88121 0.0
C1205 C 0.10345 0.00526 0.91728 0.0
C1206 C 0.10907 0.01606 0.94902 0.0
C1207 C 0.11587 0.0367 0.94376 0.0
C1208 C 0.11657 0.04646 0.90759 0.0
C1209 C 0.05281 0.03534 0.75272 0.0
C1210 C 0.04144 0.08064 0.81584 0.0
C1211 C 0.02614 0.10406 0.67382 0.0
C1212 C 0.01863 0.10174 0.6349 0.0
C1213 C 0.0039 0.1158 0.61789 0.0
C1214 C 0.99722 0.11459 0.58031 0.0
C1215 C 0.00524 0.09933 0.55902 0.0
C1216 C 0.01981 0.085 0.57646 0.0
C1217 C 0.02639 0.08615 0.61418 0.0
C1218 C 0.08147 0.10805 0.76612 0.0
C1219 C 0.08532 0.05619 0.69101 0.0
O1220 O 0.10201 0.0656 0.8341 0.0
O1221 O 0.10582 0.03573 0.8095 0.0
O1222 O 0.05035 0.05382 0.76215 0.0
O1223 O 0.07051 0.02772 0.76284 0.0
O1224 O 0.03432 0.08597 0.78109 0.0
O1225 O 0.0593 0.07138 0.82329 0.0
O1226 O 0.02098 0.08979 0.69925 0.0
O1227 O 0.04467 0.10956 0.67891 0.0
O1228 O 0.08427 0.09126 0.7506 0.0
O1229 O 0.06313 0.11453 0.7595 0.0
O1230 O 0.09635 0.05516 0.72342 0.0
O1231 O 0.06725 0.06459 0.68786 0.0
H1232 H 0.0993 0.00634 0.85748 0.0
H1233 H 0.09851 0.98921 0.92029 0.0
H1234 H 0.12016 0.04552 0.96758 0.0
H1235 H 0.12159 0.06249 0.9043 0.0
H1236 H 0.99779 0.12796 0.63352 0.0
H1237 H 0.98619 0.12602 0.56762 0.0
H1238 H 0.02613 0.07293 0.56091 0.0
H1239 H 0.03767 0.07506 0.62705 0.0
Pr1240 Pr 0.68678 0.32962 0.50627 0.0
Pr1241 Pr 0.65631 0.30346 0.46625 0.0
C1242 C 0.70873 0.35293 0.55266 0.0
C1243 C 0.71374 0.35476 0.59273 0.0
C1244 C 0.73238 0.36244 0.60371 0.0
C1245 C 0.73908 0.3614 0.64152 0.0
C1246 C 0.72718 0.35273 0.66901 0.0
C1247 C 0.70803 0.34599 0.6582 0.0
C1248 C 0.70138 0.34685 0.62013 0.0
C1249 C 0.70396 0.29931 0.46599 0.0
C1250 C 0.66888 0.28687 0.55225 0.0
C1251 C 0.63499 0.28202 0.41554 0.0
C1252 C 0.63663 0.27667 0.37631 0.0
C1253 C 0.61971 0.27081 0.35486 0.0
C1254 C 0.62103 0.26558 0.31778 0.0
C1255 C 0.63935 0.26604 0.30118 0.0
C1256 C 0.65628 0.27212 0.32285 0.0
C1257 C 0.65492 0.27741 0.35992 0.0
C1258 C 0.63978 0.33019 0.51537 0.0
C1259 C 0.68124 0.3393 0.41578 0.0
O1260 O 0.69078 0.35856 0.53888 0.0
O1261 O 0.71538 0.33583 0.53961 0.0
O1262 O 0.68926 0.29621 0.48552 0.0
O1263 O 0.71041 0.31825 0.4676 0.0
O1264 O 0.66189 0.28062 0.51968 0.0
O1265 O 0.67713 0.30545 0.55474 0.0
O1266 O 0.64805 0.27307 0.44092 0.0
O1267 O 0.63139 0.3018 0.42048 0.0
O1268 O 0.65326 0.33543 0.49357 0.0
O1269 O 0.6332 0.31176 0.50876 0.0
O1270 O 0.6867 0.34819 0.44689 0.0
O1271 O 0.67127 0.32177 0.41704 0.0
H1272 H 0.74212 0.36848 0.58288 0.0
H1273 H 0.75382 0.36684 0.64924 0.0
H1274 H 0.69866 0.33914 0.67895 0.0
H1275 H 0.68699 0.34065 0.61203 0.0
H1276 H 0.60542 0.27028 0.3668 0.0
H1277 H 0.60758 0.26139 0.30201 0.0
H1278 H 0.6707 0.27248 0.31146 0.0
H1279 H 0.6682 0.28197 0.37587 0.0
H1280 H 0.09846 0.43172 0.26563 0.0
H1281 H 0.08698 0.49037 0.19834 0.0
H1282 H 0.10566 0.45096 0.32105 0.0
H1283 H 0.09397 0.5097 0.2543 0.0
H1284 H 0.07535 0.52394 0.37713 0.0
H1285 H 0.07475 0.51033 0.31545 0.0
H1286 H 0.13091 0.47793 0.34627 0.0
H1287 H 0.13208 0.49222 0.40764 0.0
C1288 C 0.09762 0.44875 0.2627 0.0
C1289 C 0.09207 0.45961 0.22785 0.0
C1290 C 0.10191 0.45974 0.29431 0.0
C1291 C 0.10041 0.48178 0.2918 0.0
C1292 C 0.09522 0.4927 0.25682 0.0
C1293 C 0.0913 0.48168 0.22493 0.0
C1294 C 0.08794 0.51452 0.37048 0.0
C1295 C 0.10367 0.50899 0.39763 0.0
C1296 C 0.08753 0.50669 0.33512 0.0
C1297 C 0.1027 0.49298 0.32637 0.0
C1298 C 0.11893 0.48832 0.3526 0.0
C1299 C 0.11951 0.49639 0.38777 0.0
H1300 H 0.7172 0.86415 0.73693 0.0
H1301 H 0.72125 0.93184 0.72673 0.0
H1302 H 0.72475 0.86285 0.6721 0.0
H1303 H 0.72893 0.93049 0.6612 0.0
H1304 H 0.76775 0.91304 0.56428 0.0
H1305 H 0.75641 0.91796 0.6263 0.0
H1306 H 0.71101 0.87213 0.60854 0.0
H1307 H 0.72249 0.86708 0.54689 0.0
C1308 C 0.7193 0.87883 0.7206 0.0
C1309 C 0.71845 0.89814 0.73692 0.0
C1310 C 0.72366 0.87807 0.68336 0.0
C1311 C 0.72732 0.89657 0.66143 0.0
C1312 C 0.72633 0.91595 0.67753 0.0
C1313 C 0.72193 0.91672 0.71497 0.0
C1314 C 0.75519 0.90425 0.5735 0.0
C1315 C 0.74616 0.88948 0.55102 0.0
C1316 C 0.74865 0.90711 0.60893 0.0
C1317 C 0.73293 0.8953 0.62242 0.0
C1318 C 0.72341 0.88116 0.59923 0.0
C1319 C 0.72999 0.87824 0.56397 0.0
H1320 H 0.42659 0.57789 0.72955 0.0
H1321 H 0.41825 0.52081 0.67329 0.0
H1322 H 0.41894 0.55956 0.78818 0.0
H1323 H 0.40978 0.50251 0.73215 0.0
H1324 H 0.41988 0.47213 0.85369 0.0
H1325 H 0.42462 0.48925 0.79206 0.0
H1326 H 0.39289 0.54449 0.82082 0.0
H1327 H 0.38935 0.52798 0.88319 0.0
C1328 C 0.42302 0.56142 0.72958 0.0
C1329 C 0.4232 0.5508 0.69666 0.0
C1330 C 0.41838 0.55093 0.76328 0.0
C1331 C 0.41362 0.52953 0.76501 0.0
C1332 C 0.4136 0.51892 0.73198 0.0
C1333 C 0.41837 0.52944 0.69817 0.0
C1334 C 0.41399 0.48797 0.84696 0.0
C1335 C 0.40444 0.49872 0.87375 0.0
C1336 C 0.41647 0.4977 0.81135 0.0
C1337 C 0.40933 0.51837 0.80149 0.0
C1338 C 0.39896 0.52873 0.82765 0.0
C1339 C 0.39664 0.51909 0.86334 0.0
H1340 H 0.79438 0.11387 0.11538 0.0
H1341 H 0.73876 0.13785 0.14888 0.0
H1342 H 0.7796 0.11265 0.05098 0.0
H1343 H 0.72427 0.13763 0.08508 0.0
H1344 H 0.69534 0.12258 0.97789 0.0
H1345 H 0.71205 0.11597 0.04025 0.0
H1346 H 0.76792 0.13335 0.996 0.0
H1347 H 0.75123 0.13851 0.9331 0.0
C1348 C 0.77905 0.11898 0.10883 0.0
C1349 C 0.76761 0.1257 0.13708 0.0
C1350 C 0.77056 0.11834 0.072 0.0
C1351 C 0.75057 0.12471 0.06271 0.0
C1352 C 0.73944 0.13188 0.09113 0.0
C1353 C 0.74779 0.1322 0.12777 0.0
C1354 C 0.71128 0.12446 0.98144 0.0
C1355 C 0.72198 0.13123 0.95084 0.0
C1356 C 0.72087 0.12094 1.01726 0.0
C1357 C 0.74129 0.12475 1.02358 0.0
C1358 C 0.75221 0.13021 0.99238 0.0
C1359 C 0.74266 0.13322 0.95627 0.0
H1360 H 0.89376 0.50411 0.15927 0.0
H1361 H 0.9065 0.55886 0.08721 0.0
H1362 H 0.88481 0.48511 0.10404 0.0
H1363 H 0.89825 0.53978 0.03236 0.0
H1364 H 0.89821 0.45184 0.99706 0.0
H1365 H 0.90148 0.47004 0.05446 0.0
H1366 H 0.87157 0.52483 0.99627 0.0
H1367 H 0.86925 0.50709 0.93851 0.0
C1368 C 0.89459 0.51211 0.13169 0.0
C1369 C 0.90106 0.53291 0.12764 0.0
C1370 C 0.88959 0.50118 0.10005 0.0
C1371 C 0.89087 0.51087 0.06373 0.0
C1372 C 0.89685 0.53187 0.05983 0.0
C1373 C 0.90184 0.54275 0.09137 0.0
C1374 C 0.8923 0.46776 0.99653 0.0
C1375 C 0.88366 0.47805 0.963 0.0
C1376 C 0.89396 0.47811 0.02958 0.0
C1377 C 0.88697 0.49899 0.02991 0.0
C1378 C 0.87743 0.50889 0.99686 0.0
C1379 C 0.87584 0.49858 0.9638 0.0
H1380 H 0.2273 0.06849 0.78629 0.0
H1381 H 0.25996 0.12535 0.7999 0.0
H1382 H 0.24112 0.06524 0.72596 0.0
H1383 H 0.27307 0.1226 0.73888 0.0
H1384 H 0.30443 0.1043 0.63786 0.0
H1385 H 0.29486 0.1026 0.70255 0.0
H1386 H 0.23598 0.08401 0.66474 0.0
H1387 H 0.24543 0.08575 0.60062 0.0
C1388 C 0.23757 0.08019 0.7766 0.0
C1389 C 0.24237 0.09728 0.7978 0.0
C1390 C 0.24534 0.07844 0.74184 0.0
C1391 C 0.25809 0.09375 0.72745 0.0
C1392 C 0.26343 0.11044 0.74923 0.0
C1393 C 0.25568 0.11217 0.784 0.0
C1394 C 0.28949 0.09976 0.64347 0.0
C1395 C 0.27573 0.0951 0.61404 0.0
C1396 C 0.284 0.09879 0.68049 0.0
C1397 C 0.26465 0.09314 0.68883 0.0
C1398 C 0.25111 0.08801 0.65948 0.0
C1399 C 0.25656 0.08899 0.62261 0.0
H1400 H 0.57278 0.47176 0.45433 0.0
H1401 H 0.60732 0.52081 0.50176 0.0
H1402 H 0.56817 0.45608 0.5169 0.0
H1403 H 0.60322 0.50472 0.56495 0.0
H1404 H 0.57535 0.4791 0.67376 0.0
H1405 H 0.58002 0.49703 0.61223 0.0
H1406 H 0.58687 0.43678 0.56651 0.0
H1407 H 0.58148 0.4191 0.627 0.0
C1408 C 0.57958 0.47906 0.47825 0.0
C1409 C 0.59062 0.49735 0.47315 0.0
C1410 C 0.577 0.47004 0.51419 0.0
C1411 C 0.58558 0.47892 0.54611 0.0
C1412 C 0.5963 0.49753 0.54106 0.0
C1413 C 0.59871 0.5067 0.50491 0.0
C1414 C 0.57795 0.46976 0.65051 0.0
C1415 C 0.57789 0.4477 0.65518 0.0
C1416 C 0.58069 0.48002 0.61528 0.0
C1417 C 0.58358 0.46838 0.58418 0.0
C1418 C 0.58414 0.44631 0.58943 0.0
C1419 C 0.58117 0.43613 0.6243 0.0
H1420 H 0.25774 0.85751 0.42653 0.0
H1421 H 0.31031 0.84364 0.37006 0.0
H1422 H 0.23896 0.86461 0.36573 0.0
H1423 H 0.29157 0.85042 0.30968 0.0
H1424 H 0.20936 0.84405 0.2518 0.0
H1425 H 0.22671 0.84329 0.31418 0.0
H1426 H 0.27467 0.878 0.26764 0.0
H1427 H 0.25781 0.87808 0.20534 0.0
C1428 C 0.26537 0.85631 0.4012 0.0
C1429 C 0.28552 0.85 0.40314 0.0
C1430 C 0.25456 0.86018 0.3664 0.0
C1431 C 0.26375 0.85803 0.33287 0.0
C1432 C 0.28408 0.85247 0.33492 0.0
C1433 C 0.29481 0.84847 0.36959 0.0
C1434 C 0.22356 0.8516 0.25493 0.0
C1435 C 0.23221 0.86102 0.22345 0.0
C1436 C 0.23341 0.85136 0.29074 0.0
C1437 C 0.25215 0.86047 0.29582 0.0
C1438 C 0.26038 0.87063 0.26461 0.0
C1439 C 0.25056 0.87088 0.22891 0.0
H1440 H 0.57327 0.01699 0.8748 0.0
H1441 H 0.62708 0.98321 0.91904 0.0
H1442 H 0.57621 0.00252 0.81452 0.0
H1443 H 0.62959 0.96825 0.85883 0.0
H1444 H 0.6045 0.92384 0.76808 0.0
H1445 H 0.60844 0.94232 0.82506 0.0
H1446 H 0.59777 0.00163 0.75961 0.0
H1447 H 0.5939 0.98311 0.70229 0.0
C1448 C 0.58596 0.00683 0.87156 0.0
C1449 C 0.59987 0.0012 0.90204 0.0
C1450 C 0.58761 -0.0015 0.83694 0.0
C1451 C 0.60309 0.9842 0.83202 0.0
C1452 C 0.61737 0.97907 0.86197 0.0
C1453 C 0.61585 0.98757 0.89651 0.0
C1454 C 0.60333 0.94085 0.76571 0.0
C1455 C 0.59877 0.95202 0.73071 0.0
C1456 C 0.6057 0.95144 0.79836 0.0
C1457 C 0.6033 0.97341 0.79679 0.0
C1458 C 0.59954 0.98467 0.76164 0.0
C1459 C 0.59748 0.97408 0.72884 0.0
H1460 H 0.21562 0.39867 0.03038 0.0
H1461 H 0.24961 0.34327 0.07576 0.0
H1462 H 0.20221 0.40179 0.09127 0.0
H1463 H 0.23592 0.34619 0.13611 0.0
H1464 H 0.19742 0.34659 0.23206 0.0
H1465 H 0.20399 0.34376 0.16667 0.0
H1466 H 0.21619 0.41004 0.15507 0.0
H1467 H 0.20916 0.41301 0.2204 0.0
C1468 C 0.22024 0.38717 0.05329 0.0
C1469 C 0.23374 0.37075 0.04819 0.0
C1470 C 0.21248 0.38892 0.08806 0.0
C1471 C 0.21794 0.37418 0.11833 0.0
C1472 C 0.23114 0.35757 0.11308 0.0
C1473 C 0.239 0.3559 0.07846 0.0
C1474 C 0.20095 0.36069 0.2153 0.0
C1475 C 0.20292 0.38002 0.23143 0.0
C1476 C 0.20493 0.359 0.17798 0.0
C1477 C 0.21087 0.37661 0.15597 0.0
C1478 C 0.2116 0.39621 0.17135 0.0
C1479 C 0.20772 0.39789 0.20879 0.0
H1480 H 0.9124 0.06554 0.22048 0.0
H1481 H 0.91004 0.00719 0.16666 0.0
H1482 H 0.90446 0.04699 0.27928 0.0
H1483 H 0.90226 0.98856 0.22596 0.0
H1484 H 0.91708 0.9648 0.35395 0.0
H1485 H 0.92134 0.98099 0.29123 0.0
H1486 H 0.87506 0.02679 0.30458 0.0
H1487 H 0.87022 0.01026 0.36676 0.0
C1488 C 0.91016 0.04875 0.2212 0.0
C1489 C 0.91185 0.03779 0.18898 0.0
C1490 C 0.90548 0.03817 0.25479 0.0
C1491 C 0.9027 0.01638 0.25705 0.0
C1492 C 0.9044 0.00538 0.2249 0.0
C1493 C 0.90876 0.01603 0.19102 0.0
C1494 C 0.90746 0.978 0.34325 0.0
C1495 C 0.89342 0.98633 0.36563 0.0
C1496 C 0.90997 0.9873 0.30736 0.0
C1497 C 0.89864 0.00522 0.2933 0.0
C1498 C 0.88418 0.01315 0.31505 0.0
C1499 C 0.88149 0.00372 0.3507 0.0
H1500 H 0.25154 0.65886 0.43926 0.0
H1501 H 0.19709 0.64652 0.49252 0.0
H1502 H 0.27066 0.65061 0.49964 0.0
H1503 H 0.21621 0.63794 0.55248 0.0
H1504 H 0.25859 0.60393 0.64347 0.0
H1505 H 0.24312 0.60911 0.57969 0.0
H1506 H 0.27181 0.66867 0.56445 0.0
H1507 H 0.28663 0.66411 0.62883 0.0
C1508 C 0.24371 0.65416 0.46376 0.0
C1509 C 0.22286 0.65335 0.46132 0.0
C1510 C 0.25463 0.64955 0.49822 0.0
C1511 C 0.24489 0.64357 0.53053 0.0
C1512 C 0.22407 0.64233 0.52786 0.0
C1513 C 0.21315 0.64737 0.49367 0.0
C1514 C 0.26165 0.61816 0.62662 0.0
C1515 C 0.27362 0.63376 0.64165 0.0
C1516 C 0.25285 0.62103 0.59006 0.0
C1517 C 0.25615 0.63936 0.56742 0.0
C1518 C 0.26912 0.65435 0.58137 0.0
C1519 C 0.27769 0.65165 0.61821 0.0
H1520 H 0.40903 0.0066 0.6401 0.0
H1521 H 0.39242 0.06632 0.58022 0.0
H1522 H 0.40405 0.98934 0.58167 0.0
H1523 H 0.38616 0.04912 0.52268 0.0
H1524 H 0.40396 0.01926 0.41949 0.0
H1525 H 0.40523 0.03505 0.47903 0.0
H1526 H 0.38279 0.97805 0.53211 0.0
H1527 H 0.38234 0.96196 0.4722 0.0
C1528 C 0.40385 0.01594 0.61464 0.0
C1529 C 0.40132 0.03782 0.61465 0.0
C1530 C 0.4009 0.00605 0.58112 0.0
C1531 C 0.39502 0.01784 0.5471 0.0
C1532 C 0.3913 0.03956 0.54791 0.0
C1533 C 0.39466 0.04944 0.58109 0.0
C1534 C 0.39908 0.01019 0.44379 0.0
C1535 C 0.39291 0.98945 0.44115 0.0
C1536 C 0.39971 0.01927 0.47803 0.0
C1537 C 0.3939 0.00797 0.51058 0.0
C1538 C 0.38758 0.98719 0.50784 0.0
C1539 C 0.38722 0.97798 0.47352 0.0
H1540 H 0.77705 0.55147 0.10927 0.0
H1541 H 0.7836 0.61885 0.10362 0.0
H1542 H 0.76471 0.55246 0.17176 0.0
H1543 H 0.77198 0.61971 0.16601 0.0
H1544 H 0.72809 0.61823 0.25484 0.0
H1545 H 0.73982 0.61441 0.19303 0.0
H1546 H 0.77585 0.56033 0.23757 0.0
H1547 H 0.7641 0.5642 0.29977 0.0
C1548 C 0.77599 0.56643 0.12145 0.0
C1549 C 0.78132 0.58506 0.10152 0.0
C1550 C 0.76907 0.56697 0.15726 0.0
C1551 C 0.7672 0.58619 0.17357 0.0
C1552 C 0.77295 0.6047 0.15393 0.0
C1553 C 0.7799 0.60416 0.11837 0.0
C1554 C 0.73853 0.60553 0.25148 0.0
C1555 C 0.74537 0.59168 0.28224 0.0
C1556 C 0.74525 0.60335 0.2161 0.0
C1557 C 0.75897 0.58725 0.21061 0.0
C1558 C 0.76522 0.57284 0.24098 0.0
C1559 C 0.75848 0.57504 0.27652 0.0
H1560 H 0.08783 0.92687 0.13386 0.0
H1561 H 0.10397 0.98247 0.18971 0.0
H1562 H 0.09389 0.9449 0.07382 0.0
H1563 H 0.10996 0.00066 0.12898 0.0
H1564 H 0.13479 0.01773 1.01186 0.0
H1565 H 0.13174 0.00024 0.07433 0.0
H1566 H 0.07618 0.97413 0.03497 0.0
H1567 H 0.07901 0.9917 0.97308 0.0
C1568 C 0.09274 0.94295 0.13338 0.0
C1569 C 0.09517 0.95335 0.16655 0.0
C1570 C 0.09616 0.95329 0.09889 0.0
C1571 C 0.10209 0.97429 0.09664 0.0
C1572 C 0.10542 0.98445 0.12992 0.0
C1573 C 0.10197 0.97406 0.16464 0.0
C1574 C 0.12184 0.00841 1.01668 0.0
C1575 C 0.10725 0.00592 0.98733 0.0
C1576 C 0.12013 -0.0016 0.05242 0.0
C1577 C 0.10385 0.98563 0.05938 0.0
C1578 C 0.08912 0.98349 0.03023 0.0
C1579 C 0.09077 0.99353 0.99472 0.0
H1580 H 0.71142 0.36458 0.73282 0.0
H1581 H 0.76182 0.33263 0.6934 0.0
H1582 H 0.72681 0.36012 0.79713 0.0
H1583 H 0.7768 0.32732 0.75718 0.0
H1584 H 0.80955 0.33929 0.86543 0.0
H1585 H 0.79284 0.34639 0.80329 0.0
H1586 H 0.73608 0.33548 0.84925 0.0
H1587 H 0.75293 0.32933 0.91198 0.0
C1588 C 0.72569 0.35643 0.73808 0.0
C1589 C 0.7356 0.3492 0.70828 0.0
C1590 C 0.73449 0.35379 0.77483 0.0
C1591 C 0.75322 0.34363 0.78237 0.0
C1592 C 0.76269 0.33581 0.75243 0.0
C1593 C 0.75406 0.33871 0.71586 0.0
C1594 C 0.79348 0.33854 0.86226 0.0
C1595 C 0.78252 0.33362 0.89341 0.0
C1596 C 0.78388 0.34246 0.82659 0.0
C1597 C 0.76309 0.34115 0.82102 0.0
C1598 C 0.75207 0.33678 0.85247 0.0
C1599 C 0.76171 0.33319 0.88839 0.0
H1600 H 0.12741 0.32662 0.37918 0.0
H1601 H 0.15462 0.38485 0.40468 0.0
H1602 H 0.11982 0.33998 0.31508 0.0
H1603 H 0.14562 0.39931 0.34024 0.0
H1604 H 0.13913 0.41775 0.21432 0.0
H1605 H 0.14857 0.40374 0.27818 0.0
H1606 H 0.10249 0.35778 0.26852 0.0
H1607 H 0.09496 0.3705 0.2033 0.0
C1608 C 0.13152 0.34258 0.37127 0.0
C1609 C 0.14181 0.3545 0.39768 0.0
C1610 C 0.1269 0.3505 0.33389 0.0
C1611 C 0.13173 0.3711 0.32101 0.0
C1612 C 0.14176 0.38327 0.34783 0.0
C1613 C 0.1469 0.37503 0.38532 0.0
C1614 C 0.13118 0.40443 0.22567 0.0
C1615 C 0.11586 0.3956 0.20337 0.0
C1616 C 0.13643 0.39648 0.26302 0.0
C1617 C 0.12634 0.37953 0.28019 0.0
C1618 C 0.11112 0.37059 0.2574 0.0
C1619 C 0.1063 0.37821 0.21967 0.0
H1620 H 0.87742 0.90202 0.57158 0.0
H1621 H 0.92142 0.85966 0.53497 0.0
H1622 H 0.85359 0.89218 0.52084 0.0
H1623 H 0.8976 0.84964 0.48536 0.0
H1624 H 0.84128 0.81562 0.44954 0.0
H1625 H 0.85867 0.83203 0.5008 0.0
H1626 H 0.85767 0.89099 0.4333 0.0
H1627 H 0.83977 0.87436 0.38093 0.0
C1628 C 0.88199 0.89069 0.55269 0.0
C1629 C 0.90129 0.88165 0.55708 0.0
C1630 C 0.86844 0.88523 0.52365 0.0
C1631 C 0.87397 0.87041 0.49913 0.0
C1632 C 0.89314 0.86127 0.5038 0.0
C1633 C 0.90668 0.86687 0.53238 0.0
C1634 C 0.84424 0.83224 0.44571 0.0
C1635 C 0.83936 0.8437 0.41109 0.0
C1636 C 0.85418 0.84159 0.47516 0.0
C1637 C 0.85957 0.86262 0.47074 0.0
C1638 C 0.8535 0.8747 0.43721 0.0
C1639 C 0.84332 0.86526 0.4074 0.0
H1640 H 0.39006 0.67185 0.79818 0.0
H1641 H 0.34621 0.62422 0.8116 0.0
H1642 H 0.39917 0.65768 0.74063 0.0
H1643 H 0.35406 0.61085 0.75227 0.0
H1644 H 0.38451 0.57814 0.66297 0.0
H1645 H 0.37529 0.59223 0.72015 0.0
H1646 H 0.39218 0.6541 0.67777 0.0
H1647 H 0.40253 0.63938 0.62086 0.0
C1648 C 0.38219 0.65837 0.78868 0.0
C1649 C 0.36722 0.64931 0.80966 0.0
C1650 C 0.38725 0.65035 0.75509 0.0
C1651 C 0.37734 0.63309 0.74075 0.0
C1652 C 0.36239 0.62395 0.76204 0.0
C1653 C 0.35759 0.63178 0.79611 0.0
C1654 C 0.38621 0.59482 0.66561 0.0
C1655 C 0.39457 0.60754 0.6372 0.0
C1656 C 0.38073 0.60302 0.69869 0.0
C1657 C 0.38286 0.62449 0.70445 0.0
C1658 C 0.39063 0.63741 0.67532 0.0
C1659 C 0.39647 0.62904 0.64231 0.0
H1660 H 0.66971 0.09661 0.91148 0.0
H1661 H 0.63671 0.15486 0.88228 0.0
H1662 H 0.65081 0.09021 0.96664 0.0
H1663 H 0.61828 0.14881 0.9385 0.0
H1664 H 0.58996 0.07697 1.01942 0.0
H1665 H 0.61261 0.08415 0.97079 0.0
H1666 H 0.62609 0.14383 1.01461 0.0
H1667 H 0.60363 0.13608 0.06499 0.0
C1668 C 0.65841 0.10804 0.91683 0.0
C1669 C 0.65473 0.12631 0.89273 0.0
C1670 C 0.64775 0.10447 0.94857 0.0
C1671 C 0.63337 0.1192 0.95705 0.0
C1672 C 0.62961 0.13745 0.93295 0.0
C1673 C 0.64005 0.14084 0.90078 0.0
C1674 C 0.5982 0.0913 1.01952 0.0
C1675 C 0.59529 0.10575 0.04636 0.0
C1676 C 0.61109 0.09548 0.9915 0.0
C1677 C 0.62108 0.1145 0.98903 0.0
C1678 C 0.61849 0.12902 1.01607 0.0
C1679 C 0.60582 0.12455 0.04493 0.0
H1680 H 0.09711 0.5764 0.52889 0.0
H1681 H 0.10541 0.63714 0.572 0.0
H1682 H 0.11962 0.58515 0.48045 0.0
H1683 H 0.12764 0.64636 0.52176 0.0
H1684 H 0.13282 0.64813 0.37895 0.0
H1685 H 0.11384 0.64096 0.4343 0.0
H1686 H 0.16273 0.60291 0.48821 0.0
H1687 H 0.18199 0.61047 0.43361 0.0
C1688 C 0.10414 0.59144 0.52857 0.0
C1689 C 0.09976 0.60588 0.55466 0.0
C1690 C 0.11687 0.5965 0.50061 0.0
C1691 C 0.12522 0.61636 0.49755 0.0
C1692 C 0.12128 0.6309 0.52384 0.0
C1693 C 0.10873 0.6256 0.55257 0.0
C1694 C 0.13948 0.63822 0.40261 0.0
C1695 C 0.15888 0.62995 0.40208 0.0
C1696 C 0.12875 0.63436 0.4343 0.0
C1697 C 0.13714 0.62187 0.46557 0.0
C1698 C 0.15621 0.61295 0.46458 0.0
C1699 C 0.16705 0.61704 0.43316 0.0
H1700 H 0.64021 0.91844 0.70789 0.0
H1701 H 0.60747 0.8627 0.68715 0.0
H1702 H 0.65174 0.9032 0.77012 0.0
H1703 H 0.61788 0.84778 0.75063 0.0
H1704 H 0.65652 0.87909 0.89506 0.0
H1705 H 0.64511 0.89455 0.83211 0.0
H1706 H 0.64216 0.83236 0.79243 0.0
H1707 H 0.65255 0.81725 0.85499 0.0
C1708 C 0.63534 0.90286 0.7166 0.0
C1709 C 0.62249 0.89203 0.69221 0.0
C1710 C 0.6418 0.89416 0.75292 0.0
C1711 C 0.6357 0.87418 0.76665 0.0
C1712 C 0.6232 0.86312 0.74177 0.0
C1713 C 0.61689 0.8718 0.70519 0.0
C1714 C 0.65337 0.86877 0.87287 0.0
C1715 C 0.65557 0.84685 0.88056 0.0
C1716 C 0.64687 0.87763 0.8364 0.0
C1717 C 0.6425 0.86489 0.8062 0.0
C1718 C 0.64479 0.84297 0.81432 0.0
C1719 C 0.65097 0.8342 0.85062 0.0
H1720 H 0.37631 0.3706 0.09998 0.0
H1721 H 0.39964 0.41349 1.01593 0.0
H1722 H 0.35151 0.35941 0.05229 0.0
H1723 H 0.37523 0.40263 0.9691 0.0
H1724 H 0.32991 0.38157 0.88592 0.0
H1725 H 0.34114 0.39899 0.94249 0.0
H1726 H 0.35705 0.33838 1.00004 0.0
H1727 H 0.34611 0.32141 0.94454 0.0
C1728 C 0.37581 0.37801 0.07171 0.0
C1729 C 0.38997 0.39283 0.06172 0.0
C1730 C 0.36166 0.37163 0.04438 0.0
C1731 C 0.3614 0.3801 1.00675 0.0
C1732 C 0.3747 0.396 0.99774 0.0
C1733 C 0.38884 0.40216 0.02474 0.0
C1734 C 0.33539 0.3721 0.91104 0.0
C1735 C 0.33744 0.35022 0.91063 0.0
C1736 C 0.34183 0.38199 0.94338 0.0
C1737 C 0.35013 0.37007 0.97581 0.0
C1738 C 0.35059 0.3481 0.97596 0.0
C1739 C 0.34449 0.33836 0.94379 0.0
H1740 H 0.84354 0.12266 0.30641 0.0
H1741 H 0.88981 0.16749 0.29214 0.0
H1742 H 0.85043 0.10839 0.24754 0.0
H1743 H 0.89816 0.15212 0.235 0.0
H1744 H 0.89911 0.13231 0.11488 0.0
H1745 H 0.89093 0.14819 0.17221 0.0
H1746 H 0.87034 0.08816 0.2164 0.0
H1747 H 0.87719 0.07311 0.15885 0.0
C1748 C 0.85527 0.1294 0.29079 0.0
C1749 C 0.86581 0.14646 0.30388 0.0
C1750 C 0.85955 0.12099 0.25702 0.0
C1751 C 0.87498 0.12895 0.23568 0.0
C1752 C 0.88588 0.14571 0.24959 0.0
C1753 C 0.88125 0.1544 0.28289 0.0
C1754 C 0.89266 0.12266 0.13682 0.0
C1755 C 0.8888 0.10145 0.13199 0.0
C1756 C 0.88809 0.13168 0.17005 0.0
C1757 C 0.87978 0.11964 0.19964 0.0
C1758 C 0.87612 0.09836 0.19446 0.0
C1759 C 0.88026 0.08957 0.16118 0.0
H1760 H 0.90323 0.6227 0.15488 0.0
H1761 H 0.86117 0.5734 0.14136 0.0
H1762 H 0.89507 0.63601 0.0894 0.0
H1763 H 0.85238 0.58701 0.07697 0.0
H1764 H 0.8509 0.6055 0.94993 0.0
H1765 H 0.86111 0.59113 1.01415 0.0
H1766 H 0.87137 0.65397 0.04677 0.0
H1767 H 0.86149 0.66802 0.9832 0.0
C1768 C 0.8923 0.61464 0.13806 0.0
C1769 C 0.88311 0.5968 0.15388 0.0
C1770 C 0.88737 0.62242 0.10032 0.0
C1771 C 0.87297 0.61269 0.07695 0.0
C1772 C 0.86375 0.59491 0.09311 0.0
C1773 C 0.86869 0.58719 0.13063 0.0
C1774 C 0.85521 0.61623 0.97086 0.0
C1775 C 0.85504 0.63801 0.96091 0.0
C1776 C 0.86114 0.60799 1.00799 0.0
C1777 C 0.86718 0.62125 0.03656 0.0
C1778 C 0.86724 0.64299 0.02615 0.0
C1779 C 0.86141 0.65114 0.98925 0.0
H1780 H 0.06978 0.13216 0.81971 0.0
H1781 H 0.12086 0.09811 0.78726 0.0
H1782 H 0.08864 0.14144 0.87597 0.0
H1783 H 0.14009 0.10773 0.84434 0.0
H1784 H 0.15846 0.11607 0.97452 0.0
H1785 H 0.14079 0.1026 0.91868 0.0
H1786 H 0.11686 0.16499 0.88556 0.0
H1787 H 0.13396 0.17814 0.93991 0.0
C1788 C 0.08515 0.12681 0.8244 0.0
C1789 C 0.09388 0.11452 0.79887 0.0
C1790 C 0.09595 0.13205 0.85683 0.0
C1791 C 0.11586 0.12534 0.86461 0.0
C1792 C 0.1247 0.11295 0.83923 0.0
C1793 C 0.11381 0.10768 0.80644 0.0
C1794 C 0.1494 0.12677 0.95516 0.0
C1795 C 0.1477 0.14814 0.96171 0.0
C1796 C 0.13939 0.11913 0.92323 0.0
C1797 C 0.12738 0.13276 0.89784 0.0
C1798 C 0.12572 0.15401 0.90477 0.0
C1799 C 0.13559 0.16153 0.9362 0.0
H1800 H 0.65412 0.36704 0.54277 0.0
H1801 H 0.61187 0.31852 0.56355 0.0
H1802 H 0.64633 0.38239 0.60053 0.0
H1803 H 0.60288 0.33453 0.61944 0.0
H1804 H 0.60075 0.3564 0.73716 0.0
H1805 H 0.61076 0.34022 0.68137 0.0
H1806 H 0.62473 0.40153 0.63161 0.0
H1807 H 0.61579 0.41717 0.68776 0.0
C1808 C 0.64313 0.35967 0.55956 0.0
C1809 C 0.63395 0.34131 0.54856 0.0
C1810 C 0.63838 0.36864 0.5927 0.0
C1811 C 0.62394 0.35978 0.6156 0.0
C1812 C 0.61442 0.3417 0.60373 0.0
C1813 C 0.61943 0.33259 0.57108 0.0
C1814 C 0.6061 0.36632 0.71434 0.0
C1815 C 0.60724 0.38812 0.71701 0.0
C1816 C 0.61173 0.3571 0.68196 0.0
C1817 C 0.61857 0.36942 0.65111 0.0
C1818 C 0.61996 0.39121 0.65444 0.0
C1819 C 0.61464 0.4003 0.68686 0.0
H1820 H 0.37407 0.83466 0.49266 0.0
H1821 H 0.33549 0.88632 0.44616 0.0
H1822 H 0.39469 0.83988 0.4392 0.0
H1823 H 0.35595 0.89156 0.39324 0.0
H1824 H 0.41094 0.84245 0.31333 0.0
H1825 H 0.39174 0.83624 0.36876 0.0
H1826 H 0.38989 0.90296 0.38133 0.0
H1827 H 0.40957 0.90849 0.32781 0.0
C1828 C 0.37016 0.84727 0.47127 0.0
C1829 C 0.35315 0.86001 0.47345 0.0
C1830 C 0.38181 0.85011 0.44054 0.0
C1831 C 0.37683 0.866 0.41186 0.0
C1832 C 0.36024 0.87923 0.41495 0.0
C1833 C 0.34855 0.87628 0.44538 0.0
C1834 C 0.40612 0.85573 0.32778 0.0
C1835 C 0.41062 0.87629 0.3148 0.0
C1836 C 0.39529 0.85219 0.35959 0.0
C1837 C 0.38889 0.86918 0.37893 0.0
C1838 C 0.39393 0.88958 0.36634 0.0
C1839 C 0.40478 0.89296 0.33496 0.0
H1840 H 0.9297 0.37378 0.84873 0.0
H1841 H 0.87933 0.37409 0.76742 0.0
H1842 H 0.90875 0.36509 0.89879 0.0
H1843 H 0.85792 0.36376 0.81811 0.0
H1844 H 0.82241 0.37416 0.92043 0.0
H1845 H 0.84316 0.37889 0.86755 0.0
H1846 H 0.8903 0.34227 0.93185 0.0
H1847 H 0.87008 0.33905 0.98514 0.0
C1848 C 0.91413 0.37107 0.84146 0.0
C1849 C 0.90615 0.37452 0.80417 0.0
C1850 C 0.90201 0.36599 0.87037 0.0
C1851 C 0.88145 0.36381 0.86293 0.0
C1852 C 0.87362 0.36573 0.82509 0.0
C1853 C 0.88589 0.37116 0.79588 0.0
C1854 C 0.83741 0.36761 0.92343 0.0
C1855 C 0.84471 0.35633 0.95698 0.0
C1856 C 0.84919 0.3699 0.89279 0.0
C1857 C 0.86847 0.36084 0.89495 0.0
C1858 C 0.87575 0.34988 0.92899 0.0
C1859 C 0.86414 0.34797 0.95972 0.0
H1860 H 0.35875 0.16476 0.47595 0.0
H1861 H 0.34022 0.10309 0.44941 0.0
H1862 H 0.36598 0.1524 0.54074 0.0
H1863 H 0.34906 0.08981 0.5145 0.0
H1864 H 0.35699 0.07061 0.63947 0.0
H1865 H 0.34592 0.08428 0.57618 0.0
H1866 H 0.38463 0.13705 0.58813 0.0
H1867 H 0.39355 0.12437 0.65298 0.0
C1868 C 0.35645 0.14832 0.48385 0.0
C1869 C 0.34883 0.13501 0.45685 0.0
C1870 C 0.36089 0.14101 0.52161 0.0
C1871 C 0.35862 0.11975 0.53431 0.0
C1872 C 0.35093 0.10635 0.50706 0.0
C1873 C 0.34592 0.11391 0.46919 0.0
C1874 C 0.3629 0.08536 0.6288 0.0
C1875 C 0.37682 0.09599 0.65141 0.0
C1876 C 0.35674 0.09315 0.59174 0.0
C1877 C 0.36446 0.11181 0.57522 0.0
C1878 C 0.37794 0.12274 0.59862 0.0
C1879 C 0.38362 0.1152 0.63608 0.0
H1880 H 0.59994 0.5874 0.34016 0.0
H1881 H 0.62593 0.63021 0.25935 0.0
H1882 H 0.62241 0.59913 0.38998 0.0
H1883 H 0.64894 0.64173 0.30938 0.0
H1884 H 0.66091 0.67936 0.41214 0.0
H1885 H 0.64405 0.66301 0.36056 0.0
H1886 H 0.65582 0.60183 0.41914 0.0
H1887 H 0.67265 0.61858 0.47198 0.0
C1888 C 0.61079 0.59904 0.33289 0.0
C1889 C 0.61101 0.6081 0.29587 0.0
C1890 C 0.62378 0.60566 0.36153 0.0
C1891 C 0.63735 0.62156 0.35389 0.0
C1892 C 0.6384 0.62972 0.31637 0.0
C1893 C 0.62533 0.62307 0.28763 0.0
C1894 C 0.65988 0.66239 0.41432 0.0
C1895 C 0.66811 0.65022 0.44629 0.0
C1896 C 0.65045 0.65298 0.38429 0.0
C1897 C 0.64876 0.63106 0.38531 0.0
C1898 C 0.65684 0.61878 0.41744 0.0
C1899 C 0.66646 0.6283 0.44769 0.0
H1900 H 0.15826 0.86593 0.05352 0.0
H1901 H 0.10986 0.8235 0.06506 0.0
H1902 H 0.15118 0.88059 0.11189 0.0
H1903 H 0.10129 0.83939 0.12148 0.0
H1904 H 0.09891 0.85937 0.24122 0.0
H1905 H 0.10682 0.8433 0.18397 0.0
H1906 H 0.13282 0.90145 0.14375 0.0
H1907 H 0.12636 0.91645 0.20146 0.0
C1908 C 0.146 0.85982 0.06841 0.0
C1909 C 0.13497 0.84325 0.05473 0.0
C1910 C 0.1416 0.86849 0.10191 0.0
C1911 C 0.12552 0.86135 0.1224 0.0
C1912 C 0.11408 0.84517 0.10774 0.0
C1913 C 0.11885 0.83616 0.07479 0.0
C1914 C 0.10647 0.86855 0.22016 0.0
C1915 C 0.11198 0.88921 0.22625 0.0
C1916 C 0.1109 0.85943 0.18691 0.0
C1917 C 0.12068 0.87084 0.1584 0.0
C1918 C 0.12589 0.89162 0.16477 0.0
C1919 C 0.12194 0.90043 0.19816 0.0
H1920 H 0.9399 0.51273 0.18969 0.0
H1921 H 0.9916 0.53317 0.2541 0.0
H1922 H 0.96055 0.49029 0.15705 0.0
H1923 H 0.01242 0.50892 0.22381 0.0
H1924 H 0.04886 0.48255 0.13887 0.0
H1925 H 0.02659 0.5059 0.16782 0.0
H1926 H 0.97943 0.46138 0.15425 0.0
H1927 H 0.001 0.43938 0.12251 0.0
C1928 C 0.95566 0.51179 0.19802 0.0
C1929 C 0.96417 0.52498 0.22414 0.0
C1930 C 0.96763 0.4988 0.17914 0.0
C1931 C 0.98838 0.49802 0.18692 0.0
C1932 C 0.99663 0.5097 0.21583 0.0
C1933 C 0.98467 0.52323 0.23394 0.0
C1934 C 0.0335 0.47824 0.14089 0.0
C1935 C 0.02678 0.45903 0.1288 0.0
C1936 C 0.02082 0.49135 0.15834 0.0
C1937 C 0.00128 0.48531 0.16469 0.0
C1938 C 0.99425 0.46679 0.14997 0.0
C1939 C 0.00672 0.45405 0.13164 0.0
H1940 H 0.77299 0.77436 0.30725 0.0
H1941 H 0.73335 0.7913 0.38942 0.0
H1942 H 0.77483 0.73825 0.33478 0.0
H1943 H 0.73433 0.75502 0.41627 0.0
H1944 H 0.76562 0.70826 0.49534 0.0
H1945 H 0.76405 0.74068 0.45466 0.0
H1946 H 0.76194 0.70456 0.35729 0.0
H1947 H 0.76458 0.67224 0.39829 0.0
C1948 C 0.76357 0.76994 0.3296 0.0
C1949 C 0.75361 0.78549 0.34718 0.0
C1950 C 0.76488 0.74936 0.34578 0.0
C1951 C 0.7557 0.74427 0.37902 0.0
C1952 C 0.74238 0.75892 0.39169 0.0
C1953 C 0.74126 0.77953 0.37562 0.0
C1954 C 0.76623 0.70733 0.46537 0.0
C1955 C 0.765 0.68792 0.44981 0.0
C1956 C 0.76456 0.72581 0.442 0.0
C1957 C 0.76164 0.72498 0.40287 0.0
C1958 C 0.76373 0.70562 0.38735 0.0
C1959 C 0.76579 0.68713 0.41086 0.0
H1960 H 0.49355 0.43935 0.70382 0.0
H1961 H 0.54836 0.46872 0.73772 0.0
H1962 H 0.48111 0.47231 0.67143 0.0
H1963 H 0.53698 0.50108 0.70206 0.0
H1964 H 0.50054 0.56144 0.67496 0.0
H1965 H 0.51592 0.52907 0.70192 0.0
H1966 H 0.48322 0.49529 0.61801 0.0
H1967 H 0.46645 0.52833 0.59247 0.0
C1968 C 0.50293 0.45294 0.70436 0.0
C1969 C 0.52201 0.45147 0.72289 0.0
C1970 C 0.49599 0.47171 0.685 0.0
C1971 C 0.50817 0.48932 0.68311 0.0
C1972 C 0.52706 0.48795 0.7029 0.0
C1973 C 0.53371 0.46934 0.72329 0.0
C1974 C 0.49683 0.54715 0.66176 0.0
C1975 C 0.48209 0.54726 0.63201 0.0
C1976 C 0.50585 0.52848 0.67713 0.0
C1977 C 0.50066 0.50937 0.66268 0.0
C1978 C 0.48716 0.50969 0.63055 0.0
C1979 C 0.47781 0.52857 0.61538 0.0
H1980 H 0.72785 0.2312 0.83078 0.0
H1981 H 0.74472 0.17429 0.89965 0.0
H1982 H 0.74895 0.25128 0.87233 0.0
H1983 H 0.7643 0.19428 0.94264 0.0
H1984 H 0.80651 0.23695 1.00431 0.0
H1985 H 0.79015 0.21468 0.96068 0.0
H1986 H 0.74443 0.26282 0.93172 0.0
H1987 H 0.76188 0.28586 0.97337 0.0
C1988 C 0.73655 0.22293 0.85416 0.0
C1989 C 0.7343 0.20134 0.86254 0.0
C1990 C 0.74821 0.23445 0.87854 0.0
C1991 C 0.75749 0.22456 0.9119 0.0
C1992 C 0.75722 0.20254 0.91755 0.0
C1993 C 0.74601 0.19099 0.89265 0.0
C1994 C 0.79272 0.24265 0.98926 0.0
C1995 C 0.78574 0.26338 0.99144 0.0
C1996 C 0.78334 0.22984 0.96401 0.0
C1997 C 0.76639 0.23724 0.94148 0.0
C1998 C 0.75803 0.25701 0.94726 0.0
C1999 C 0.7677 0.27004 0.97186 0.0
H2000 H 0.95975 0.46775 0.69125 0.0
H2001 H 0.9768 0.48089 0.80565 0.0
H2002 H 0.97743 0.49855 0.66861 0.0
H2003 H 0.99452 0.51181 0.78281 0.0
H2004 H 0.04998 0.52471 0.70422 0.0
H2005 H 0.02565 0.5101 0.74482 0.0
H2006 H 0.9783 0.53981 0.67039 0.0
H2007 H 0.00294 0.55499 0.62991 0.0
C2008 C 0.96731 0.47722 0.71145 0.0
C2009 C 0.96723 0.47195 0.75004 0.0
C2010 C 0.97695 0.49509 0.6986 0.0
C2011 C 0.98676 0.50772 0.7242 0.0
C2012 C 0.98666 0.50246 0.76279 0.0
C2013 C 0.97686 0.48468 0.77567 0.0
C2014 C 0.03441 0.5288 0.69741 0.0
C2015 C 0.02803 0.54018 0.66363 0.0
C2016 C 0.02053 0.52069 0.72084 0.0
C2017 C 1.00023 0.52354 0.70997 0.0
C2018 C 0.99397 0.53737 0.67884 0.0
C2019 C 0.00795 0.54585 0.6557 0.0
H2020 H 0.76847 0.68367 0.96618 0.0
H2021 H 0.77182 0.7025 0.84856 0.0
H2022 H 0.75989 0.71913 0.97825 0.0
H2023 H 0.76118 0.73821 0.85989 0.0
H2024 H 0.75942 0.80441 0.89497 0.0
H2025 H 0.77031 0.76908 0.88441 0.0
H2026 H 0.73596 0.74449 0.97469 0.0
H2027 H 0.72685 0.78017 0.9873 0.0
C2028 C 0.76688 0.69539 0.94257 0.0
C2029 C 0.77076 0.69028 0.9063 0.0
C2030 C 0.76175 0.71585 0.94952 0.0
C2031 C 0.75956 0.73178 0.92016 0.0
C2032 C 0.76305 0.72655 0.8835 0.0
C2033 C 0.7689 0.70604 0.87676 0.0
C2034 C 0.75452 0.79143 0.91302 0.0
C2035 C 0.74201 0.79497 0.94169 0.0
C2036 C 0.7605 0.77106 0.90651 0.0
C2037 C 0.75381 0.75364 0.92808 0.0
C2038 C 0.7417 0.75735 0.95755 0.0
C2039 C 0.7362 0.77782 0.96468 0.0
H2040 H 0.48559 0.47775 0.06898 0.0
H2041 H 0.48005 0.44416 0.177 0.0
H2042 H 0.50086 0.50635 0.09913 0.0
H2043 H 0.49737 0.47212 0.20754 0.0
H2044 H 0.50509 0.53343 0.25669 0.0
H2045 H 0.48937 0.50581 0.22253 0.0
H2046 H 0.5265 0.52052 0.13079 0.0
H2047 H 0.54029 0.54918 0.16292 0.0
C2048 C 0.4884 0.47611 0.09923 0.0
C2049 C 0.48119 0.45907 0.12086 0.0
C2050 C 0.49725 0.49259 0.11663 0.0
C2051 C 0.49983 0.49188 0.15593 0.0
C2052 C 0.49477 0.47359 0.17728 0.0
C2053 C 0.48528 0.45735 0.15985 0.0
C2054 C 0.50922 0.53114 0.2286 0.0
C2055 C 0.52405 0.54312 0.21265 0.0
C2056 C 0.50063 0.51503 0.20939 0.0
C2057 C 0.50719 0.5104 0.17447 0.0
C2058 C 0.52097 0.52355 0.15751 0.0
C2059 C 0.52896 0.54006 0.17606 0.0
H2060 H 0.75706 0.1833 0.40232 0.0
H2061 H 0.80399 0.22822 0.39553 0.0
H2062 H 0.73482 0.21003 0.42125 0.0
H2063 H 0.7819 0.25505 0.41667 0.0
H2064 H 0.73168 0.30369 0.41522 0.0
H2065 H 0.75398 0.27668 0.39611 0.0
H2066 H 0.72688 0.23029 0.4694 0.0
H2067 H 0.70396 0.25723 0.48684 0.0
C2068 C 0.76272 0.1989 0.40541 0.0
C2069 C 0.78223 0.20374 0.39714 0.0
C2070 C 0.74996 0.21425 0.4166 0.0
C2071 C 0.75644 0.23481 0.4205 0.0
C2072 C 0.77622 0.23951 0.41324 0.0
C2073 C 0.78896 0.22414 0.40146 0.0
C2074 C 0.73042 0.28763 0.42689 0.0
C2075 C 0.71613 0.28248 0.45243 0.0
C2076 C 0.74335 0.27219 0.4163 0.0
C2077 C 0.74246 0.25126 0.43144 0.0
C2078 C 0.72789 0.24613 0.4567 0.0
C2079 C 0.71474 0.26156 0.4668 0.0
H2080 H 0.29133 0.26333 0.83448 0.0
H2081 H 0.23357 0.28826 0.85479 0.0
H2082 H 0.28339 0.2295 0.86498 0.0
H2083 H 0.22526 0.25412 0.88427 0.0
H2084 H 0.23438 0.2144 0.99337 0.0
H2085 H 0.24198 0.24291 0.94798 0.0
H2086 H 0.26253 0.19773 0.87468 0.0
H2087 H 0.25518 0.16915 0.92073 0.0
C2088 C 0.27655 0.26118 0.84374 0.0
C2089 C 0.26331 0.27841 0.84366 0.0
C2090 C 0.27203 0.24185 0.86128 0.0
C2091 C 0.25411 0.23965 0.87838 0.0
C2092 C 0.23951 0.25583 0.87238 0.0
C2093 C 0.24411 0.27523 0.855 0.0
C2094 C 0.24137 0.21067 0.96834 0.0
C2095 C 0.2444 0.18977 0.96054 0.0
C2096 C 0.24516 0.22687 0.94191 0.0
C2097 C 0.25197 0.22234 0.90723 0.0
C2098 C 0.25694 0.20152 0.901 0.0
C2099 C 0.25318 0.18525 0.92764 0.0
H2100 H 0.2416 0.70018 0.37753 0.0
H2101 H 0.19748 0.75037 0.35493 0.0
H2102 H 0.26173 0.7225 0.41651 0.0
H2103 H 0.21666 0.77198 0.39592 0.0
H2104 H 0.26425 0.81053 0.45417 0.0
H2105 H 0.24388 0.79144 0.41081 0.0
H2106 H 0.25974 0.73328 0.47734 0.0
H2107 H 0.28154 0.75243 0.51923 0.0
C2108 C 0.23644 0.71614 0.38021 0.0
C2109 C 0.2178 0.72337 0.36397 0.0
C2110 C 0.24771 0.72876 0.40325 0.0
C2111 C 0.24037 0.74868 0.41075 0.0
C2112 C 0.22273 0.75668 0.39117 0.0
C2113 C 0.21172 0.74426 0.36748 0.0
C2114 C 0.26302 0.79373 0.46014 0.0
C2115 C 0.27484 0.78284 0.48954 0.0
C2116 C 0.25135 0.78272 0.43507 0.0
C2117 C 0.25076 0.76069 0.43973 0.0
C2118 C 0.26063 0.75015 0.47194 0.0
C2119 C 0.27272 0.76112 0.49649 0.0
H2120 H 0.24039 0.17823 0.40471 0.0
H2121 H 0.28484 0.21881 0.36016 0.0
H2122 H 0.22588 0.20745 0.43326 0.0
H2123 H 0.26945 0.24874 0.38636 0.0
H2124 H 0.2526 0.29434 0.46829 0.0
H2125 H 0.26679 0.26342 0.443 0.0
H2126 H 0.20795 0.23798 0.42846 0.0
H2127 H 0.19435 0.26765 0.45664 0.0
C2128 C 0.2465 0.19367 0.39953 0.0
C2129 C 0.26364 0.19631 0.3799 0.0
C2130 C 0.23823 0.21053 0.41617 0.0
C2131 C 0.24661 0.23059 0.41283 0.0
C2132 C 0.26292 0.23346 0.3907 0.0
C2133 C 0.27148 0.21645 0.37482 0.0
C2134 C 0.24288 0.28177 0.4608 0.0
C2135 C 0.22234 0.28357 0.46407 0.0
C2136 C 0.25091 0.26421 0.44549 0.0
C2137 C 0.2385 0.2483 0.43255 0.0
C2138 C 0.21813 0.24966 0.43811 0.0
C2139 C 0.21024 0.26685 0.45423 0.0
H2140 H 0.25745 0.68336 0.90921 0.0
H2141 H 0.30463 0.72811 0.90578 0.0
H2142 H 0.23502 0.70997 0.92805 0.0
H2143 H 0.28239 0.75474 0.92695 0.0
H2144 H 0.23297 0.80372 0.92659 0.0
H2145 H 0.25495 0.77675 0.90652 0.0
H2146 H 0.22644 0.72972 0.97627 0.0
H2147 H 0.20378 0.7567 0.99451 0.0
C2148 C 0.26312 0.69889 0.91304 0.0
C2149 C 0.28275 0.70374 0.90573 0.0
C2150 C 0.25024 0.71416 0.92416 0.0
C2151 C 0.25676 0.73463 0.92902 0.0
C2152 C 0.27666 0.7393 0.92272 0.0
C2153 C 0.28949 0.72404 0.91092 0.0
C2154 C 0.23131 0.78753 0.93721 0.0
C2155 C 0.21673 0.78222 0.96203 0.0
C2156 C 0.24407 0.77209 0.9261 0.0
C2157 C 0.24274 0.751 0.94007 0.0
C2158 C 0.2278 0.7457 0.96447 0.0
C2159 C 0.2148 0.76114 0.97503 0.0
H2160 H 0.48611 0.04824 0.72912 0.0
H2161 H 0.44526 0.01034 0.66713 0.0
H2162 H 0.51383 0.02602 0.71431 0.0
H2163 H 0.47263 0.98728 0.65381 0.0
H2164 H 0.52431 0.96107 0.60211 0.0
H2165 H 0.49963 0.98789 0.61464 0.0
H2166 H 0.52964 0.99318 0.7243 0.0
H2167 H 0.55432 0.96749 0.71094 0.0
C2168 C 0.48304 0.03442 0.71406 0.0
C2169 C 0.46366 0.03052 0.70006 0.0
C2170 C 0.49889 0.02187 0.705 0.0
C2171 C 0.49552 0.00511 0.6821 0.0
C2172 C 0.47585 0.00044 0.67046 0.0
C2173 C 0.4601 0.0132 0.67902 0.0
C2174 C 0.52599 0.96877 0.62803 0.0
C2175 C 0.54105 0.96232 0.65562 0.0
C2176 C 0.51169 0.98374 0.63567 0.0
C2177 C 0.51233 0.99223 0.67099 0.0
C2178 C 0.5286 0.98709 0.69687 0.0
C2179 C 0.54282 0.97236 0.68916 0.0
H2180 H 0.05863 0.97658 0.21152 0.0
H2181 H 0.00498 0.9573 0.26187 0.0
H2182 H 0.03953 0.00075 0.1672 0.0
H2183 H 0.98577 0.98297 0.21924 0.0
H2184 H 0.95257 0.01238 0.11537 0.0
H2185 H 0.97327 0.98755 0.15699 0.0
H2186 H 0.02164 0.03114 0.154 0.0
H2187 H 0.00157 0.05489 0.11045 0.0
C2188 C 0.04278 0.97806 0.21403 0.0
C2189 C 0.03326 0.96484 0.23996 0.0
C2190 C 0.03174 0.99201 0.18844 0.0
C2191 C 0.01094 0.99362 0.18888 0.0
C2192 C 0.00165 0.98164 0.21703 0.0
C2193 C 0.01268 0.96725 0.24206 0.0
C2194 C 0.96786 0.01625 0.12272 0.0
C2195 C 0.97538 0.03562 0.10982 0.0
C2196 C 0.97962 0.00225 0.14725 0.0
C2197 C 0.99903 0.0075 0.1599 0.0
C2198 C 0.00687 0.02634 0.14496 0.0
C2199 C 0.99529 0.04007 0.11981 0.0
H2200 H 0.48684 0.9399 0.19866 0.0
H2201 H 0.47687 0.97828 0.2902 0.0
H2202 H 0.49828 0.97057 0.16246 0.0
H2203 H 0.48696 0.00908 0.25328 0.0
H2204 H 0.52422 0.05442 0.18153 0.0
H2205 H 0.51203 0.02733 0.22397 0.0
H2206 H 0.48049 0.00035 0.13033 0.0
H2207 H 0.49394 0.02691 0.0873 0.0
C2208 C 0.48761 0.9548 0.2113 0.0
C2209 C 0.48062 0.95695 0.24664 0.0
C2210 C 0.49364 0.97241 0.19035 0.0
C2211 C 0.4925 0.99232 0.20444 0.0
C2212 C 0.48768 0.99398 0.24151 0.0
C2213 C 0.48205 0.97629 0.26275 0.0
C2214 C 0.51417 0.04313 0.17004 0.0
C2215 C 0.51059 0.04213 0.13113 0.0
C2216 C 0.50722 0.02754 0.19445 0.0
C2217 C 0.49613 0.01121 0.18016 0.0
C2218 C 0.48989 0.01225 0.14175 0.0
C2219 C 0.49723 0.02761 0.11722 0.0
H2220 H 0.98893 0.95034 0.61457 0.0
H2221 H 0.94284 0.98544 0.66183 0.0
H2222 H 0.01417 0.96875 0.65105 0.0
H2223 H 0.9678 0.00305 0.69961 0.0
H2224 H 0.05403 0.99362 0.74363 0.0
H2225 H 0.02855 0.97316 0.71253 0.0
H2226 H 0.99149 0.02936 0.68927 0.0
H2227 H 0.01657 0.04945 0.72223 0.0
C2228 C 0.98428 0.9618 0.63316 0.0
C2229 C 0.96413 0.96686 0.63506 0.0
C2230 C 0.99865 0.97223 0.65421 0.0
C2231 C 0.99295 0.98754 0.67787 0.0
C2232 C 0.97267 0.99178 0.68087 0.0
C2233 C 0.9584 0.98166 0.6594 0.0
C2234 C 0.04033 0.0015 0.73212 0.0
C2235 C 0.03715 0.02306 0.73516 0.0
C2236 C 0.02583 0.98984 0.71409 0.0
C2237 C 0.00804 -0.00036 0.69836 0.0
C2238 C 0.00489 0.02126 0.70167 0.0
C2239 C 0.01927 0.03283 0.72023 0.0
H2240 H 0.01764 0.38674 0.06418 0.0
H2241 H 0.06336 0.41183 0.99678 0.0
H2242 H 0.99455 0.38749 1.00779 0.0
H2243 H 0.04052 0.41274 0.94096 0.0
H2244 H 0.99992 0.3983 0.84063 0.0
H2245 H 0.0222 0.39231 0.89712 0.0
H2246 H 0.97616 0.41392 0.96346 0.0
H2247 H 0.95365 0.41974 0.90667 0.0
C2248 C 0.02295 0.39185 0.03726 0.0
C2249 C 0.04248 0.39901 0.03511 0.0
C2250 C 0.00961 0.39262 1.00494 0.0
C2251 C 0.01552 0.40031 0.96955 0.0
C2252 C 0.03535 0.40652 0.96739 0.0
C2253 C 0.04853 0.40598 0.99957 0.0
C2254 C 0.99443 0.40175 0.86719 0.0
C2255 C 0.9749 0.40966 0.86874 0.0
C2256 C 0.00731 0.39836 0.89976 0.0
C2257 C 0.00114 0.40266 0.93516 0.0
C2258 C 0.98147 0.41019 0.9369 0.0
C2259 C 0.96856 0.41371 0.90417 0.0
H2260 H 0.82017 0.71533 0.97122 0.0
H2261 H 0.80874 0.65522 0.02871 0.0
H2262 H 0.82142 0.73143 0.0308 0.0
H2263 H 0.80915 0.67142 0.0878 0.0
H2264 H 0.83235 0.70109 0.19253 0.0
H2265 H 0.83112 0.68558 0.13271 0.0
H2266 H 0.80186 0.74195 0.07887 0.0
H2267 H 0.80439 0.75806 0.13838 0.0
C2268 C 0.81782 0.70557 0.9965 0.0
C2269 C 0.81448 0.68397 0.99517 0.0
C2270 C 0.81836 0.71484 0.03068 0.0
C2271 C 0.81543 0.70275 0.06426 0.0
C2272 C 0.81186 0.68118 0.06272 0.0
C2273 C 0.81149 0.67189 0.02867 0.0
C2274 C 0.82589 0.71033 0.16789 0.0
C2275 C 0.81859 0.73092 0.17039 0.0
C2276 C 0.8249 0.70128 0.13357 0.0
C2277 C 0.81635 0.71246 0.10082 0.0
C2278 C 0.8088 0.73296 0.10336 0.0
C2279 C 0.80997 0.7421 0.13768 0.0
H2280 H 0.55165 0.5834 0.38547 0.0
H2281 H 0.50717 0.61284 0.30461 0.0
H2282 H 0.53093 0.59054 0.4362 0.0
H2283 H 0.48629 0.61991 0.35567 0.0
H2284 H 0.44614 0.59801 0.45334 0.0
H2285 H 0.46703 0.59832 0.40063 0.0
H2286 H 0.51638 0.61887 0.47104 0.0
H2287 H 0.49531 0.61865 0.52407 0.0
C2288 C 0.5375 0.59157 0.37844 0.0
C2289 C 0.53112 0.59746 0.34071 0.0
C2290 C 0.52565 0.59581 0.40771 0.0
C2291 C 0.50687 0.60584 0.40024 0.0
C2292 C 0.5006 0.61206 0.36255 0.0
C2293 C 0.51262 0.60809 0.33323 0.0
C2294 C 0.46132 0.60311 0.45746 0.0
C2295 C 0.46897 0.60838 0.4931 0.0
C2296 C 0.47333 0.60331 0.42708 0.0
C2297 C 0.4935 0.60846 0.43144 0.0
C2298 C 0.50097 0.61462 0.46667 0.0
C2299 C 0.48882 0.61475 0.49701 0.0
H2300 H 0.67914 0.18003 0.71399 0.0
H2301 H 0.65772 0.22838 0.77999 0.0
H2302 H 0.67579 0.20426 0.65822 0.0
H2303 H 0.6541 0.25283 0.7235 0.0
H2304 H 0.6794 0.29483 0.6252 0.0
H2305 H 0.67732 0.27123 0.68166 0.0
H2306 H 0.65184 0.22385 0.61419 0.0
H2307 H 0.65417 0.24719 0.55781 0.0
C2308 C 0.67337 0.19578 0.71648 0.0
C2309 C 0.66874 0.20229 0.75149 0.0
C2310 C 0.67136 0.20967 0.68437 0.0
C2311 C 0.66475 0.23053 0.68636 0.0
C2312 C 0.65942 0.2369 0.72113 0.0
C2313 C 0.66128 0.22286 0.75338 0.0
C2314 C 0.67332 0.27939 0.62239 0.0
C2315 C 0.66717 0.27284 0.58684 0.0
C2316 C 0.67194 0.26594 0.65484 0.0
C2317 C 0.66445 0.24562 0.65246 0.0
C2318 C 0.6579 0.23929 0.61699 0.0
C2319 C 0.65922 0.25272 0.58463 0.0
H2320 H 0.96797 0.57778 0.9828 0.0
H2321 H 0.96287 0.64551 0.97632 0.0
H2322 H 0.9772 0.57934 0.91824 0.0
H2323 H 0.97193 0.64711 0.91157 0.0
H2324 H 0.01066 0.64336 0.81219 0.0
H2325 H 0.99975 0.64204 0.87565 0.0
H2326 H 0.96591 0.58687 0.85399 0.0
H2327 H 0.97711 0.58806 0.79068 0.0
C2328 C 0.96849 0.59301 0.96743 0.0
C2329 C 0.96468 0.61152 0.98497 0.0
C2330 C 0.97381 0.59392 0.93027 0.0
C2331 C 0.97544 0.61336 0.90946 0.0
C2332 C 0.97124 0.63185 0.92679 0.0
C2333 C 0.96597 0.63094 0.96399 0.0
C2334 C 0.00074 0.63106 0.82084 0.0
C2335 C 0.99479 0.61582 0.79622 0.0
C2336 C 0.99442 0.63031 0.8573 0.0
C2337 C 0.98188 0.61435 0.87021 0.0
C2338 C 0.97581 0.5992 0.84543 0.0
C2339 C 0.98222 0.59989 0.80901 0.0
H2340 H 0.70986 0.72619 0.37712 0.0
H2341 H 0.7011 0.66464 0.33735 0.0
H2342 H 0.70566 0.74191 0.31285 0.0
H2343 H 0.69709 0.68034 0.27281 0.0
H2344 H 0.66988 0.71763 0.16557 0.0
H2345 H 0.67483 0.70157 0.22948 0.0
H2346 H 0.72061 0.7459 0.25415 0.0
H2347 H 0.71574 0.76194 0.19007 0.0
C2348 C 0.70702 0.71596 0.35469 0.0
C2349 C 0.70573 0.69408 0.36273 0.0
C2350 C 0.70475 0.725 0.31759 0.0
C2351 C 0.70096 0.71251 0.28719 0.0
C2352 C 0.6997 0.6906 0.29528 0.0
C2353 C 0.70212 0.68153 0.33242 0.0
C2354 C 0.6812 0.72386 0.18434 0.0
C2355 C 0.69239 0.74119 0.17211 0.0
C2356 C 0.68405 0.71459 0.22126 0.0
C2357 C 0.69816 0.72231 0.24742 0.0
C2358 C 0.70938 0.73962 0.23524 0.0
C2359 C 0.70655 0.74889 0.19826 0.0
H2360 H 0.52386 0.33225 0.52433 0.0
H2361 H 0.51786 0.39982 0.52258 0.0
H2362 H 0.5142 0.3341 0.45725 0.0
H2363 H 0.5081 0.40164 0.45558 0.0
H2364 H 0.47077 0.39461 0.34498 0.0
H2365 H 0.481 0.39294 0.41177 0.0
H2366 H 0.52564 0.34564 0.39655 0.0
H2367 H 0.51548 0.34737 0.32966 0.0
C2368 C 0.52066 0.34753 0.50965 0.0
C2369 C 0.52162 0.36587 0.52913 0.0
C2370 C 0.5151 0.34859 0.47108 0.0
C2371 C 0.51031 0.36802 0.45084 0.0
C2372 C 0.51134 0.38636 0.47027 0.0
C2373 C 0.51693 0.38531 0.50882 0.0
C2374 C 0.48293 0.38402 0.35571 0.0
C2375 C 0.49228 0.37114 0.33169 0.0
C2376 C 0.4888 0.38305 0.39414 0.0
C2377 C 0.50417 0.36915 0.40974 0.0
C2378 C 0.51355 0.3563 0.38573 0.0
C2379 C 0.5077 0.35729 0.34727 0.0
H2380 H 0.88627 0.26682 0.77491 0.0
H2381 H 0.82297 0.25733 0.77081 0.0
H2382 H 0.88704 0.25581 0.71145 0.0
H2383 H 0.82378 0.2462 0.7073 0.0
H2384 H 0.83681 0.20642 0.60896 0.0
H2385 H 0.83528 0.21794 0.67211 0.0
H2386 H 0.87691 0.26666 0.64691 0.0
H2387 H 0.87837 0.25527 0.58387 0.0
C2388 C 0.87244 0.26263 0.7604 0.0
C2389 C 0.85455 0.26306 0.77828 0.0
C2390 C 0.87289 0.25626 0.72386 0.0
C2391 C 0.85547 0.25008 0.70398 0.0
C2392 C 0.83756 0.25051 0.72181 0.0
C2393 C 0.8371 0.25692 0.75836 0.0
C2394 C 0.8455 0.21974 0.61669 0.0
C2395 C 0.85781 0.22979 0.59108 0.0
C2396 C 0.84462 0.22636 0.65304 0.0
C2397 C 0.85604 0.24321 0.66492 0.0
C2398 C 0.86819 0.25338 0.63918 0.0
C2399 C 0.86904 0.2468 0.60288 0.0
H2400 H 0.0148 0.61527 0.4957 0.0
H2401 H 0.02563 0.54977 0.48 0.0
H2402 H 0.99337 0.61876 0.43688 0.0
H2403 H 0.00395 0.55321 0.42215 0.0
H2404 H 0.94237 0.56156 0.35659 0.0
H2405 H 0.96495 0.56195 0.41218 0.0
H2406 H 0.99609 0.6134 0.36013 0.0
H2407 H 0.97355 0.61268 0.30277 0.0
C2408 C 0.01267 0.60163 0.4798 0.0
C2409 C 0.02196 0.58219 0.49294 0.0
C2410 C 0.00048 0.60369 0.44593 0.0
C2411 C 0.99691 0.58627 0.42476 0.0
C2412 C 0.00633 0.56694 0.43776 0.0
C2413 C 0.0188 0.56499 0.47103 0.0
C2414 C 0.95389 0.57314 0.35653 0.0
C2415 C 0.95602 0.58703 0.32453 0.0
C2416 C 0.96694 0.57326 0.3887 0.0
C2417 C 0.98247 0.58754 0.39064 0.0
C2418 C 0.98426 0.60216 0.35953 0.0
C2419 C 0.97131 0.60178 0.32667 0.0
H2420 H 0.16832 0.26374 0.38744 0.0
H2421 H 0.16386 0.325 0.32689 0.0
H2422 H 0.16878 0.24736 0.32777 0.0
H2423 H 0.16381 0.30883 0.26786 0.0
H2424 H 0.19453 0.27716 0.17862 0.0
H2425 H 0.19004 0.29136 0.23846 0.0
H2426 H 0.15056 0.24102 0.26684 0.0
H2427 H 0.1551 0.22668 0.20644 0.0
C2428 C 0.16689 0.27365 0.36142 0.0
C2429 C 0.16623 0.29564 0.3618 0.0
C2430 C 0.16719 0.26429 0.32729 0.0
C2431 C 0.16674 0.27683 0.29315 0.0
C2432 C 0.16472 0.29874 0.29368 0.0
C2433 C 0.16459 0.30802 0.32756 0.0
C2434 C 0.18474 0.2692 0.19741 0.0
C2435 C 0.17499 0.25094 0.18757 0.0
C2436 C 0.18214 0.27735 0.23174 0.0
C2437 C 0.16969 0.26749 0.25719 0.0
C2438 C 0.16027 0.24893 0.24785 0.0
C2439 C 0.16289 0.24073 0.21332 0.0
H2440 H 0.49393 0.38751 0.04412 0.0
H2441 H 0.44969 0.41662 0.96239 0.0
H2442 H 0.51515 0.38049 0.99378 0.0
H2443 H 0.47086 0.4094 0.91208 0.0
H2444 H 0.50826 0.37952 0.82676 0.0
H2445 H 0.48636 0.38005 0.87856 0.0
H2446 H 0.53433 0.40308 0.94933 0.0
H2447 H 0.55597 0.40282 0.89774 0.0
C2448 C 0.48858 0.39219 1.01542 0.0
C2449 C 0.47004 0.4027 1.00751 0.0
C2450 C 0.50082 0.38823 0.98651 0.0
C2451 C 0.49477 0.39435 0.94874 0.0
C2452 C 0.47595 0.40425 0.94072 0.0
C2453 C 0.46384 0.40851 0.96968 0.0
C2454 C 0.51426 0.38414 0.85369 0.0
C2455 C 0.53394 0.39098 0.85809 0.0
C2456 C 0.50164 0.38471 0.88326 0.0
C2457 C 0.50851 0.39172 0.91818 0.0
C2458 C 0.52851 0.39744 0.92305 0.0
C2459 C 0.54096 0.39727 0.89339 0.0
H2460 H 0.32376 0.80852 0.64638 0.0
H2461 H 0.35362 0.76268 0.5862 0.0
H2462 H 0.32655 0.78461 0.70269 0.0
H2463 H 0.35654 0.73855 0.64315 0.0
H2464 H 0.32732 0.69424 0.73393 0.0
H2465 H 0.33149 0.7183 0.6789 0.0
H2466 H 0.34992 0.76667 0.75103 0.0
H2467 H 0.34554 0.74282 0.806 0.0
C2468 C 0.3313 0.79345 0.64544 0.0
C2469 C 0.33842 0.78742 0.61188 0.0
C2470 C 0.33297 0.77977 0.67779 0.0
C2471 C 0.34165 0.75964 0.67732 0.0
C2472 C 0.3496 0.75391 0.6442 0.0
C2473 C 0.34813 0.76778 0.61177 0.0
C2474 C 0.33229 0.70999 0.73807 0.0
C2475 C 0.33585 0.71668 0.77441 0.0
C2476 C 0.3349 0.72369 0.70652 0.0
C2477 C 0.34103 0.74438 0.71063 0.0
C2478 C 0.34501 0.75088 0.74695 0.0
C2479 C 0.34249 0.73719 0.77846 0.0
H2480 H 0.04413 0.3495 0.3898 0.0
H2481 H 0.0315 0.41616 0.37085 0.0
H2482 H 0.03543 0.35044 0.45456 0.0
H2483 H 0.02241 0.41711 0.4352 0.0
H2484 H 0.02234 0.4156 0.5624 0.0
H2485 H 0.03388 0.41463 0.49958 0.0
H2486 H 0.00722 0.35406 0.48958 0.0
H2487 H 0.99608 0.35492 0.55255 0.0
C2488 C 0.03947 0.36436 0.39946 0.0
C2489 C 0.03853 0.38274 0.37509 0.0
C2490 C 0.03438 0.36491 0.43659 0.0
C2491 C 0.02806 0.38384 0.45029 0.0
C2492 C 0.02748 0.40229 0.42602 0.0
C2493 C 0.0327 0.40176 0.38899 0.0
C2494 C 0.0189 0.40212 0.54671 0.0
C2495 C 0.00831 0.38533 0.56259 0.0
C2496 C 0.0255 0.40155 0.5106 0.0
C2497 C 0.02155 0.38425 0.48928 0.0
C2498 C 0.01094 0.36747 0.50528 0.0
C2499 C 0.00447 0.36798 0.54144 0.0
H2500 H 0.29839 0.31161 0.99498 0.0
H2501 H 0.32852 0.25965 0.95097 0.0
H2502 H 0.30308 0.29425 0.05783 0.0
H2503 H 0.33285 0.24193 1.01411 0.0
H2504 H 0.3544 0.22551 0.13864 0.0
H2505 H 0.35004 0.24213 0.07489 0.0
H2506 H 0.29229 0.26613 0.09768 0.0
H2507 H 0.29669 0.24962 0.16134 0.0
C2508 C 0.30594 0.29638 0.99856 0.0
C2509 C 0.31301 0.2871 0.96749 0.0
C2510 C 0.30853 0.28629 0.03486 0.0
C2511 C 0.31826 0.26648 0.04155 0.0
C2512 C 0.32546 0.25723 1.01047 0.0
C2513 C 0.32289 0.26738 0.97404 0.0
C2514 C 0.34065 0.23414 0.13004 0.0
C2515 C 0.32596 0.23618 0.15566 0.0
C2516 C 0.33814 0.24373 0.09323 0.0
C2517 C 0.32082 0.25569 0.08068 0.0
C2518 C 0.30603 0.25749 0.10619 0.0
C2519 C 0.30856 0.24795 0.14296 0.0
H2520 H 0.529 0.65934 1.00081 0.0
H2521 H 0.49589 0.60276 1.01988 0.0
H2522 H 0.51846 0.6607 0.93414 0.0
H2523 H 0.48525 0.60416 0.95325 0.0
H2524 H 0.48663 0.60081 0.82625 0.0
H2525 H 0.497 0.59963 0.8929 0.0
H2526 H 0.49038 0.6672 0.88952 0.0
H2527 H 0.48006 0.66838 0.82273 0.0
C2528 C 0.5193 0.64728 0.9909 0.0
C2529 C 0.51333 0.63093 1.01596 0.0
C2530 C 0.51322 0.64807 0.95253 0.0
C2531 C 0.50096 0.63254 0.938 0.0
C2532 C 0.49495 0.61622 0.96311 0.0
C2533 C 0.50106 0.61541 1.00146 0.0
C2534 C 0.48719 0.61543 0.83972 0.0
C2535 C 0.48244 0.6347 0.81885 0.0
C2536 C 0.49315 0.61475 0.87811 0.0
C2537 C 0.49455 0.63331 0.89692 0.0
C2538 C 0.48981 0.65259 0.87605 0.0
C2539 C 0.48386 0.65327 0.83761 0.0
H2540 H 0.1228 0.73291 0.77597 0.0
H2541 H 0.16382 0.78231 0.75089 0.0
H2542 H 0.12486 0.72121 0.71328 0.0
H2543 H 0.16599 0.77043 0.68813 0.0
H2544 H 0.17961 0.73025 0.5909 0.0
H2545 H 0.17818 0.74188 0.65396 0.0
H2546 H 0.11499 0.73179 0.64831 0.0
H2547 H 0.11635 0.72037 0.58526 0.0
C2548 C 0.13214 0.74144 0.75705 0.0
C2549 C 0.14304 0.75871 0.76876 0.0
C2550 C 0.13334 0.73467 0.72095 0.0
C2551 C 0.14553 0.74488 0.69533 0.0
C2552 C 0.15662 0.76199 0.70712 0.0
C2553 C 0.15538 0.76881 0.74326 0.0
C2554 C 0.16535 0.73067 0.60289 0.0
C2555 C 0.14811 0.72426 0.58266 0.0
C2556 C 0.16454 0.73736 0.6392 0.0
C2557 C 0.14647 0.73779 0.6565 0.0
C2558 C 0.12925 0.73135 0.63631 0.0
C2559 C 0.13004 0.72474 0.6 0.0
H2560 H 0.45447 0.91207 0.40031 0.0
H2561 H 0.5024 0.88846 0.34061 0.0
H2562 H 0.47617 0.9092 0.45846 0.0
H2563 H 0.52387 0.88545 0.39842 0.0
H2564 H 0.56339 0.91004 0.4951 0.0
H2565 H 0.54097 0.90869 0.43919 0.0
H2566 H 0.49477 0.88533 0.5073 0.0
H2567 H 0.51741 0.88683 0.56387 0.0
C2568 C 0.46954 0.90609 0.39954 0.0
C2569 C 0.47659 0.90063 0.3654 0.0
C2570 C 0.482 0.90433 0.43305 0.0
C2571 C 0.50195 0.89722 0.43341 0.0
C2572 C 0.50877 0.89131 0.3994 0.0
C2573 C 0.49633 0.89294 0.36608 0.0
C2574 C 0.54856 0.90428 0.49835 0.0
C2575 C 0.54237 0.89842 0.53431 0.0
C2576 C 0.53563 0.90346 0.46603 0.0
C2577 C 0.51591 0.89691 0.46835 0.0
C2578 C 0.50976 0.89064 0.50426 0.0
C2579 C 0.52284 0.89125 0.53675 0.0
H2580 H 0.29972 0.17425 0.51584 0.0
H2581 H 0.34034 0.21641 0.4623 0.0
H2582 H 0.3037 0.19283 0.57253 0.0
H2583 H 0.34434 0.23508 0.51965 0.0
H2584 H 0.36233 0.24229 0.64813 0.0
H2585 H 0.35865 0.22647 0.58816 0.0
H2586 H 0.29487 0.22918 0.59149 0.0
H2587 H 0.2984 0.24556 0.65078 0.0
C2588 C 0.30954 0.18748 0.51614 0.0
C2589 C 0.31972 0.19387 0.48451 0.0
C2590 C 0.31169 0.19821 0.5486 0.0
C2591 C 0.32424 0.21545 0.55041 0.0
C2592 C 0.3346 0.22178 0.51898 0.0
C2593 C 0.33224 0.21118 0.48616 0.0
C2594 C 0.3475 0.23987 0.63582 0.0
C2595 C 0.33066 0.24509 0.65454 0.0
C2596 C 0.34543 0.23078 0.60148 0.0
C2597 C 0.32649 0.22651 0.58532 0.0
C2598 C 0.30966 0.23204 0.60361 0.0
C2599 C 0.31171 0.24131 0.63769 0.0
H2600 H 0.9841 0.10864 1.02175 0.0
H2601 H 0.94023 0.08018 0.94925 0.0
H2602 H 0.00781 0.1079 0.97287 0.0
H2603 H 0.96364 0.07946 0.90082 0.0
H2604 H 0.00349 0.09672 0.8087 0.0
H2605 H 0.98132 0.10255 0.85733 0.0
H2606 H 0.02697 0.07981 0.94206 0.0
H2607 H 0.04957 0.074 0.89288 0.0
C2608 C 0.97933 0.1028 0.99504 0.0
C2609 C 0.96018 0.0947 0.98922 0.0
C2610 C 0.99301 0.10206 0.96728 0.0
C2611 C 0.9877 0.09353 0.93292 0.0
C2612 C 0.96825 0.08631 0.92671 0.0
C2613 C 0.95476 0.08677 0.9545 0.0
C2614 C 0.00899 0.09297 0.83762 0.0
C2615 C 0.02839 0.08466 0.84665 0.0
C2616 C 0.99616 0.0963 0.86561 0.0
C2617 C 0.00225 0.09155 0.90367 0.0
C2618 C 0.02183 0.08379 0.91301 0.0
C2619 C 0.03474 0.0803 0.8848 0.0
H2620 H 0.17181 0.79408 0.13278 0.0
H2621 H 0.15141 0.7472 0.0589 0.0
H2622 H 0.16641 0.76989 0.18703 0.0
H2623 H 0.14584 0.72321 0.1131 0.0
H2624 H 0.17148 0.67982 0.21759 0.0
H2625 H 0.16825 0.70365 0.16109 0.0
H2626 H 0.14071 0.75063 0.22234 0.0
H2627 H 0.14404 0.72657 0.2793 0.0
C2628 C 0.16607 0.77869 0.12807 0.0
C2629 C 0.16228 0.77252 0.09144 0.0
C2630 C 0.16275 0.76491 0.15919 0.0
C2631 C 0.15567 0.74462 0.15438 0.0
C2632 C 0.15144 0.73866 0.11775 0.0
C2633 C 0.15466 0.75245 0.08668 0.0
C2634 C 0.16415 0.69498 0.21871 0.0
C2635 C 0.15797 0.70133 0.25279 0.0
C2636 C 0.1623 0.70867 0.18631 0.0
C2637 C 0.15443 0.72914 0.1873 0.0
C2638 C 0.14705 0.73503 0.22084 0.0
C2639 C 0.14868 0.72117 0.25329 0.0
H2640 H 0.51569 0.14911 0.31011 0.0
H2641 H 0.4748 0.09974 0.28653 0.0
H2642 H 0.50571 0.14828 0.37421 0.0
H2643 H 0.46469 0.09899 0.35054 0.0
H2644 H 0.46711 0.0877 0.47875 0.0
H2645 H 0.47649 0.08889 0.41428 0.0
H2646 H 0.47875 0.15659 0.4112 0.0
H2647 H 0.46942 0.15538 0.47575 0.0
C2648 C 0.50439 0.13824 0.31843 0.0
C2649 C 0.49608 0.12448 0.29302 0.0
C2650 C 0.49864 0.13776 0.35529 0.0
C2651 C 0.48437 0.12355 0.36779 0.0
C2652 C 0.47596 0.1099 0.34225 0.0
C2653 C 0.48175 0.11035 0.30543 0.0
C2654 C 0.4694 0.10287 0.46425 0.0
C2655 C 0.46749 0.12144 0.48265 0.0
C2656 C 0.47479 0.10356 0.42715 0.0
C2657 C 0.47842 0.12285 0.40731 0.0
C2658 C 0.47642 0.14142 0.42567 0.0
C2659 C 0.47104 0.14072 0.46279 0.0
H2660 H 0.19091 0.26489 0.70675 0.0
H2661 H 0.14309 0.22273 0.6829 0.0
H2662 H 0.19631 0.24786 0.77002 0.0
H2663 H 0.14866 0.2056 0.74598 0.0
H2664 H 0.17675 0.16618 0.8504 0.0
H2665 H 0.1715 0.18302 0.78675 0.0
H2666 H 0.18189 0.24358 0.82967 0.0
H2667 H 0.18735 0.22675 0.89305 0.0
C2668 C 0.1814 0.25212 0.71492 0.0
C2669 C 0.16652 0.24532 0.68917 0.0
C2670 C 0.18454 0.24228 0.75142 0.0
C2671 C 0.17296 0.22524 0.76349 0.0
C2672 C 0.15814 0.2184 0.73776 0.0
C2673 C 0.15494 0.22828 0.70133 0.0
C2674 C 0.17788 0.1831 0.8463 0.0
C2675 C 0.18241 0.19504 0.87713 0.0
C2676 C 0.17476 0.19282 0.80969 0.0
C2677 C 0.17623 0.21477 0.80269 0.0
C2678 C 0.18082 0.22666 0.83361 0.0
C2679 C 0.18379 0.21697 0.87019 0.0
H2680 H 0.039 0.85666 0.02459 0.0
H2681 H 0.01638 0.92023 0.02721 0.0
H2682 H 0.03001 0.85806 0.95726 0.0
H2683 H 0.00748 0.92169 0.95989 0.0
H2684 H 0.97262 0.90653 0.85031 0.0
H2685 H 0.98341 0.90662 0.91669 0.0
H2686 H 0.03814 0.87446 0.89715 0.0
H2687 H 0.02735 0.87438 0.83075 0.0
C2688 C 0.03237 0.87104 1.01071 0.0
C2689 C 0.02831 0.88829 0.03134 0.0
C2690 C 0.02721 0.87185 0.97208 0.0
C2691 C 0.01791 0.88996 0.95314 0.0
C2692 C 0.01426 0.90736 0.97367 0.0
C2693 C 0.01939 0.90653 1.01227 0.0
C2694 C 0.98706 0.89971 0.86006 0.0
C2695 C 0.99907 0.89038 0.83516 0.0
C2696 C 0.99326 0.89976 0.89817 0.0
C2697 C 0.01163 0.8905 0.91234 0.0
C2698 C 0.02376 0.88142 0.88734 0.0
C2699 C 0.01757 0.88138 0.84924 0.0
H2700 H 0.35161 0.79594 0.25712 0.0
H2701 H 0.34731 0.73129 0.30023 0.0
H2702 H 0.35283 0.78473 0.19383 0.0
H2703 H 0.34876 0.72 0.23698 0.0
H2704 H 0.33463 0.70752 0.11396 0.0
H2705 H 0.33152 0.71918 0.17656 0.0
H2706 H 0.37389 0.76771 0.15481 0.0
H2707 H 0.37622 0.75676 0.09177 0.0
C2708 C 0.35106 0.7793 0.25318 0.0
C2709 C 0.34941 0.76456 0.28401 0.0
C2710 C 0.3518 0.77282 0.21676 0.0
C2711 C 0.351 0.75138 0.20997 0.0
C2712 C 0.34913 0.73666 0.24079 0.0
C2713 C 0.34831 0.74315 0.27722 0.0
C2714 C 0.34311 0.72085 0.1223 0.0
C2715 C 0.35572 0.73111 0.0975 0.0
C2716 C 0.34151 0.7274 0.15853 0.0
C2717 C 0.35246 0.74444 0.17111 0.0
C2718 C 0.365 0.75472 0.14622 0.0
C2719 C 0.36657 0.74821 0.11005 0.0
H2720 H 0.48018 0.1038 0.78469 0.0
H2721 H 0.43113 0.08579 0.85001 0.0
H2722 H 0.50144 0.10578 0.84276 0.0
H2723 H 0.45226 0.08768 0.90768 0.0
H2724 H 0.53792 0.07631 0.95072 0.0
H2725 H 0.51689 0.08059 0.8923 0.0
H2726 H 0.4711 0.11001 0.94975 0.0
H2727 H 0.49224 0.10569 1.00855 0.0
C2728 C 0.47377 0.10072 0.81135 0.0
C2729 C 0.45384 0.09468 0.81239 0.0
C2730 C 0.48605 0.10161 0.84477 0.0
C2731 C 0.47871 0.09675 0.88025 0.0
C2732 C 0.45852 0.09171 0.88117 0.0
C2733 C 0.44636 0.09057 0.84788 0.0
C2734 C 0.52343 0.08388 0.95102 0.0
C2735 C 0.51685 0.09059 0.98472 0.0
C2736 C 0.51137 0.08647 0.91723 0.0
C2737 C 0.49217 0.09566 0.91593 0.0
C2738 C 0.48569 0.1027 0.94952 0.0
C2739 C 0.49789 0.10034 0.98332 0.0
H2740 H 0.72963 0.73712 0.69971 0.0
H2741 H 0.67896 0.77568 0.65432 0.0
H2742 H 0.72723 0.75146 0.76058 0.0
H2743 H 0.67655 0.78994 0.71495 0.0
H2744 H 0.69347 0.82912 0.81287 0.0
H2745 H 0.69533 0.81324 0.75375 0.0
H2746 H 0.70612 0.75226 0.81363 0.0
H2747 H 0.70466 0.76829 0.87323 0.0
C2748 C 0.71786 0.74849 0.70284 0.0
C2749 C 0.70458 0.75539 0.67211 0.0
C2750 C 0.71648 0.75668 0.7377 0.0
C2751 C 0.70178 0.77194 0.74254 0.0
C2752 C 0.68828 0.77851 0.71198 0.0
C2753 C 0.68968 0.77035 0.67721 0.0
C2754 C 0.69623 0.81232 0.81355 0.0
C2755 C 0.69884 0.79995 0.84779 0.0
C2756 C 0.69716 0.80318 0.77958 0.0
C2757 C 0.70076 0.78146 0.77895 0.0
C2758 C 0.70344 0.76906 0.81319 0.0
C2759 C 0.70243 0.77821 0.8473 0.0
H2760 H 0.01548 0.88951 0.33094 0.0
H2761 H 0.05965 0.91692 0.4043 0.0
H2762 H 0.99168 0.89042 0.37964 0.0
H2763 H 0.03614 0.91782 0.45255 0.0
H2764 H 0.99631 0.89846 0.54433 0.0
H2765 H 0.01841 0.89375 0.4951 0.0
H2766 H 0.97283 0.91852 0.41193 0.0
H2767 H 0.95032 0.92329 0.46172 0.0
C2768 C 0.02025 0.89528 0.3577 0.0
C2769 C 0.03953 0.90299 0.36384 0.0
C2770 C 0.00654 0.89609 0.38539 0.0
C2771 C 0.01195 0.90427 0.42001 0.0
C2772 C 0.03146 0.91126 0.42642 0.0
C2773 C 0.04498 0.91075 0.3987 0.0
C2774 C 0.99081 0.90289 0.51562 0.0
C2775 C 0.97145 0.91143 0.50722 0.0
C2776 C 0.00361 0.90021 0.48731 0.0
C2777 C 0.9975 0.90584 0.44951 0.0
C2778 C 0.97797 0.91389 0.44076 0.0
C2779 C 0.96512 0.91676 0.46931 0.0
H2780 H 0.85881 0.26265 0.08227 0.0
H2781 H 0.82736 0.30807 0.14065 0.0
H2782 H 0.86179 0.23882 0.1395 0.0
H2783 H 0.83026 0.28445 0.19744 0.0
H2784 H 0.84681 0.24182 0.30099 0.0
H2785 H 0.85262 0.26605 0.24725 0.0
H2786 H 0.83582 0.2184 0.17246 0.0
H2787 H 0.83018 0.19398 0.22627 0.0
C2788 C 0.85318 0.26783 0.10765 0.0
C2789 C 0.84287 0.28719 0.10711 0.0
C2790 C 0.85462 0.25409 0.14023 0.0
C2791 C 0.84605 0.25966 0.17285 0.0
C2792 C 0.83712 0.27971 0.17292 0.0
C2793 C 0.83546 0.29326 0.14036 0.0
C2794 C 0.84444 0.23642 0.27313 0.0
C2795 C 0.8378 0.21601 0.26796 0.0
C2796 C 0.84779 0.25033 0.24234 0.0
C2797 C 0.84469 0.24415 0.20562 0.0
C2798 C 0.83859 0.22355 0.20043 0.0
C2799 C 0.83512 0.20964 0.23126 0.0
H2800 H 0.53772 0.83929 0.87604 0.0
H2801 H 0.52351 0.90564 0.85583 0.0
H2802 H 0.5275 0.84001 0.93983 0.0
H2803 H 0.51396 0.90651 0.92002 0.0
H2804 H 0.47792 0.89464 1.0236 0.0
H2805 H 0.48811 0.89439 0.95972 0.0
H2806 H 0.53806 0.8534 0.99955 0.0
H2807 H 0.52793 0.8537 0.0634 0.0
C2808 C 0.53239 0.85403 0.88516 0.0
C2809 C 0.53145 0.8724 0.86069 0.0
C2810 C 0.52674 0.8545 0.92192 0.0
C2811 C 0.51994 0.87334 0.93519 0.0
C2812 C 0.51895 0.89169 0.9107 0.0
C2813 C 0.52465 0.89123 0.87398 0.0
C2814 C 0.49121 0.88576 1.01884 0.0
C2815 C 0.50205 0.87414 0.04876 0.0
C2816 C 0.49705 0.88561 0.98214 0.0
C2817 C 0.51388 0.87381 0.97437 0.0
C2818 C 0.52482 0.86235 1.00435 0.0
C2819 C 0.519 0.86253 0.04102 0.0
H2820 H 0.81467 0.75774 0.4599 0.0
H2821 H 0.7936 0.81503 0.50202 0.0
H2822 H 0.81813 0.74108 0.52371 0.0
H2823 H 0.79734 0.79849 0.56585 0.0
H2824 H 0.78964 0.75712 0.67407 0.0
H2825 H 0.78448 0.77256 0.60953 0.0
H2826 H 0.83804 0.7411 0.58193 0.0
H2827 H 0.84281 0.72513 0.64597 0.0
C2828 C 0.81082 0.76686 0.4827 0.0
C2829 C 0.8039 0.78785 0.47543 0.0
C2830 C 0.8129 0.75729 0.51953 0.0
C2831 C 0.80811 0.76834 0.55043 0.0
C2832 C 0.80099 0.78927 0.54304 0.0
C2833 C 0.79894 0.79885 0.50623 0.0
C2834 C 0.80022 0.75326 0.65421 0.0
C2835 C 0.81672 0.73982 0.66575 0.0
C2836 C 0.79738 0.76236 0.61708 0.0
C2837 C 0.81086 0.75826 0.59007 0.0
C2838 C 0.82718 0.74459 0.60151 0.0
C2839 C 0.83007 0.73557 0.63862 0.0
H2840 H 0.02893 0.09478 0.5014 0.0
H2841 H 0.96757 0.1036 0.52477 0.0
H2842 H 0.01913 0.09688 0.43429 0.0
H2843 H 0.95781 0.10608 0.45749 0.0
H2844 H 0.94798 0.08837 0.33374 0.0
H2845 H 0.95655 0.08445 0.40139 0.0
H2846 H 0.00591 0.12569 0.38751 0.0
H2847 H 0.99715 0.1301 0.3203 0.0
C2848 C 0.01333 0.09693 0.49223 0.0
C2849 C 0.99904 0.09909 0.5184 0.0
C2850 C 0.00774 0.09836 0.45379 0.0
C2851 C 0.98772 0.10183 0.44062 0.0
C2852 C 0.97334 0.10333 0.46679 0.0
C2853 C 0.97895 0.10207 0.50527 0.0
C2854 C 0.96049 0.09686 0.34514 0.0
C2855 C 0.97195 0.10944 0.32139 0.0
C2856 C 0.96544 0.09452 0.38389 0.0
C2857 C 0.98204 0.10457 0.39968 0.0
C2858 C 0.99328 0.11739 0.37607 0.0
C2859 C 0.98825 0.11989 0.3375 0.0
H2860 H 0.68123 0.23336 0.0876 0.0
H2861 H 0.61756 0.22744 0.07145 0.0
H2862 H 0.67777 0.24421 0.15039 0.0
H2863 H 0.61419 0.23801 0.13483 0.0
H2864 H 0.6192 0.23534 0.26488 0.0
H2865 H 0.62166 0.22558 0.20092 0.0
H2866 H 0.6654 0.27315 0.18352 0.0
H2867 H 0.66276 0.28318 0.24726 0.0
C2868 C 0.66642 0.23463 0.09711 0.0
C2869 C 0.64967 0.22963 0.07391 0.0
C2870 C 0.66446 0.24082 0.13337 0.0
C2871 C 0.64569 0.2421 0.14786 0.0
C2872 C 0.62891 0.237 0.12486 0.0
C2873 C 0.63086 0.2309 0.08841 0.0
C2874 C 0.62917 0.24396 0.24737 0.0
C2875 C 0.64078 0.2601 0.26165 0.0
C2876 C 0.63059 0.23831 0.21055 0.0
C2877 C 0.64376 0.24851 0.18687 0.0
C2878 C 0.65532 0.26469 0.20103 0.0
C2879 C 0.65383 0.27042 0.23778 0.0
H2880 H 0.06568 0.57351 0.74174 0.0
H2881 H 0.10499 0.52833 0.69941 0.0
H2882 H 0.07073 0.55574 0.80412 0.0
H2883 H 0.10992 0.51023 0.76236 0.0
H2884 H 0.12641 0.49279 0.88962 0.0
H2885 H 0.12355 0.51087 0.82685 0.0
H2886 H 0.06155 0.52451 0.83854 0.0
H2887 H 0.06433 0.5064 0.90099 0.0
C2888 C 0.07564 0.55989 0.74569 0.0
C2889 C 0.08497 0.55254 0.71506 0.0
C2890 C 0.07836 0.54947 0.78171 0.0
C2891 C 0.09054 0.53122 0.78873 0.0
C2892 C 0.1005 0.52425 0.75842 0.0
C2893 C 0.09772 0.53471 0.72215 0.0
C2894 C 0.11207 0.49942 0.87879 0.0
C2895 C 0.09564 0.49805 0.90109 0.0
C2896 C 0.11044 0.50989 0.84254 0.0
C2897 C 0.09235 0.51947 0.82722 0.0
C2898 C 0.07589 0.51786 0.84933 0.0
C2899 C 0.0775 0.50738 0.88547 0.0
H2900 H 0.74818 0.86178 0.04239 0.0
H2901 H 0.69703 0.8373 0.09509 0.0
H2902 H 0.76653 0.86153 0.10406 0.0
H2903 H 0.71524 0.83772 0.15683 0.0
H2904 H 0.75244 0.86183 0.26228 0.0
H2905 H 0.7341 0.867 0.2004 0.0
H2906 H 0.77701 0.82726 0.15456 0.0
H2907 H 0.79495 0.82142 0.21658 0.0
C2908 C 0.74064 0.85691 0.06716 0.0
C2909 C 0.72104 0.84967 0.06367 0.0
C2910 C 0.75124 0.8566 0.10247 0.0
C2911 C 0.74236 0.84959 0.13533 0.0
C2912 C 0.72246 0.84332 0.13208 0.0
C2913 C 0.71203 0.8431 0.09668 0.0
C2914 C 0.75815 0.85445 0.2389 0.0
C2915 C 0.77529 0.84132 0.24445 0.0
C2916 C 0.74755 0.8573 0.20352 0.0
C2917 C 0.75412 0.84758 0.17256 0.0
C2918 C 0.77164 0.83508 0.17778 0.0
C2919 C 0.78192 0.83175 0.21334 0.0
H2920 H 0.41269 0.47208 0.40181 0.0
H2921 H 0.41967 0.5326 0.3423 0.0
H2922 H 0.41197 0.4555 0.34319 0.0
H2923 H 0.42008 0.51566 0.28337 0.0
H2924 H 0.40437 0.47994 0.17701 0.0
H2925 H 0.40183 0.49789 0.23489 0.0
H2926 H 0.43265 0.44533 0.29838 0.0
H2927 H 0.43457 0.42745 0.24173 0.0
C2928 C 0.41403 0.48199 0.37628 0.0
C2929 C 0.41616 0.50388 0.37745 0.0
C2930 C 0.41391 0.47232 0.34233 0.0
C2931 C 0.41611 0.48405 0.30795 0.0
C2932 C 0.41816 0.50598 0.30892 0.0
C2933 C 0.41821 0.51571 0.34305 0.0
C2934 C 0.4103 0.47212 0.20345 0.0
C2935 C 0.41953 0.45208 0.2043 0.0
C2936 C 0.40906 0.48253 0.23674 0.0
C2937 C 0.41696 0.47318 0.2719 0.0
C2938 C 0.42597 0.45307 0.27244 0.0
C2939 C 0.42719 0.44276 0.23949 0.0
H2940 H 0.78162 0.12492 0.43839 0.0
H2941 H 0.83126 0.15004 0.50201 0.0
H2942 H 0.76481 0.11805 0.49639 0.0
H2943 H 0.81454 0.14353 0.55936 0.0
H2944 H 0.78633 0.11674 0.66195 0.0
H2945 H 0.80312 0.11729 0.60408 0.0
H2946 H 0.7488 0.13932 0.54103 0.0
H2947 H 0.73173 0.13805 0.59902 0.0
C2948 C 0.78917 0.12845 0.4648 0.0
C2949 C 0.80784 0.13791 0.46554 0.0
C2950 C 0.77942 0.12482 0.49799 0.0
C2951 C 0.78822 0.13037 0.53266 0.0
C2952 C 0.80733 0.13884 0.53342 0.0
C2953 C 0.81694 0.1426 0.50039 0.0
C2954 C 0.77783 0.12143 0.63575 0.0
C2955 C 0.7576 0.12736 0.63537 0.0
C2956 C 0.78754 0.12192 0.60249 0.0
C2957 C 0.77737 0.12837 0.56772 0.0
C2958 C 0.75708 0.13403 0.56717 0.0
C2959 C 0.74734 0.1336 0.60055 0.0
H2960 H 0.92574 0.42145 0.61887 0.0
H2961 H 0.89562 0.47254 0.66512 0.0
H2962 H 0.9198 0.43869 0.55633 0.0
H2963 H 0.89002 0.49038 0.60187 0.0
H2964 H 0.87095 0.51029 0.47664 0.0
H2965 H 0.87415 0.49279 0.53981 0.0
H2966 H 0.93085 0.46607 0.5172 0.0
H2967 H 0.92718 0.48256 0.45371 0.0
C2968 C 0.91767 0.43639 0.61574 0.0
C2969 C 0.91117 0.44547 0.64752 0.0
C2970 C 0.91446 0.44651 0.57954 0.0
C2971 C 0.90474 0.46634 0.57335 0.0
C2972 C 0.8975 0.47514 0.60499 0.0
C2973 C 0.90065 0.46485 0.64149 0.0
C2974 C 0.88404 0.50049 0.48482 0.0
C2975 C 0.89871 0.49794 0.45918 0.0
C2976 C 0.886 0.49058 0.52158 0.0
C2977 C 0.9027 0.47766 0.53427 0.0
C2978 C 0.91751 0.47543 0.50882 0.0
C2979 C 0.91554 0.48528 0.47214 0.0
H2980 H 0.20218 0.15753 0.13568 0.0
H2981 H 0.2459 0.12177 0.08366 0.0
H2982 H 0.22172 0.15202 0.19603 0.0
H2983 H 0.26589 0.11688 0.14405 0.0
H2984 H 0.3041 0.14838 0.24467 0.0
H2985 H 0.28417 0.14566 0.18537 0.0
H2986 H 0.23587 0.12091 0.24627 0.0
H2987 H 0.25606 0.12295 0.30568 0.0
C2988 C 0.21579 0.14812 0.13728 0.0
C2989 C 0.22232 0.13989 0.10481 0.0
C2990 C 0.22701 0.14499 0.17192 0.0
C2991 C 0.24542 0.13404 0.17496 0.0
C2992 C 0.25179 0.12538 0.1427 0.0
C2993 C 0.24024 0.12801 0.10817 0.0
C2994 C 0.28941 0.14186 0.24543 0.0
C2995 C 0.2818 0.13572 0.28008 0.0
C2996 C 0.27798 0.14029 0.21138 0.0
C2997 C 0.25839 0.13308 0.21098 0.0
C2998 C 0.2509 0.12651 0.24555 0.0
C2999 C 0.26254 0.12754 0.2796 0.0
H3000 H 0.56168 0.5152 0.95994 0.0
H3001 H 0.61324 0.4779 1.00438 0.0
H3002 H 0.56206 0.53294 1.01767 0.0
H3003 H 0.61368 0.49577 0.06233 0.0
H3004 H 0.59677 0.51995 0.17628 0.0
H3005 H 0.59819 0.50115 0.11929 0.0
H3006 H 0.57907 0.55789 0.052 0.0
H3007 H 0.57728 0.57632 0.10846 0.0
C3008 C 0.57327 0.51085 0.98181 0.0
C3009 C 0.58749 0.49504 0.97684 0.0
C3010 C 0.57351 0.52113 1.01522 0.0
C3011 C 0.58804 0.51612 0.04511 0.0
C3012 C 0.6021 0.50007 0.04043 0.0
C3013 C 0.60184 0.48974 1.00694 0.0
C3014 C 0.5932 0.52849 0.14929 0.0
C3015 C 0.58695 0.54977 0.14736 0.0
C3016 C 0.59396 0.51766 0.1164 0.0
C3017 C 0.58847 0.52776 0.08052 0.0
C3018 C 0.58294 0.54924 0.07878 0.0
C3019 C 0.58215 0.55997 0.11145 0.0
H3020 H 0.22087 0.86015 0.91811 0.0
H3021 H 0.17003 0.83628 0.85617 0.0
H3022 H 0.23807 0.86441 0.86009 0.0
H3023 H 0.18687 0.84083 0.79858 0.0
H3024 H 0.23055 0.82328 0.71517 0.0
H3025 H 0.21354 0.82308 0.77266 0.0
H3026 H 0.24006 0.882 0.79726 0.0
H3027 H 0.25715 0.88223 0.73935 0.0
C3028 C 0.21313 0.85643 0.892 0.0
C3029 C 0.19406 0.84786 0.89192 0.0
C3030 C 0.22303 0.85875 0.85869 0.0
C3031 C 0.21407 0.85256 0.82456 0.0
C3032 C 0.19453 0.84523 0.82432 0.0
C3033 C 0.18473 0.84286 0.85742 0.0
C3034 C 0.23267 0.83634 0.73253 0.0
C3035 C 0.24519 0.85285 0.72214 0.0
C3036 C 0.22284 0.83625 0.76567 0.0
C3037 C 0.22514 0.85268 0.78964 0.0
C3038 C 0.23797 0.86901 0.77974 0.0
C3039 C 0.24783 0.86911 0.74645 0.0
H3040 H 0.56024 0.01062 0.40365 0.0
H3041 H 0.61769 0.98684 0.37875 0.0
H3042 H 0.55541 0.02759 0.34029 0.0
H3043 H 0.61322 0.00455 0.31596 0.0
H3044 H 0.59141 0.02326 0.19205 0.0
H3045 H 0.59669 0.00542 0.25499 0.0
H3046 H 0.56492 0.05596 0.2999 0.0
H3047 H 0.55935 0.07345 0.23721 0.0
C3048 C 0.57189 0.00888 0.3848 0.0
C3049 C 0.58943 -0.00279 0.39711 0.0
C3050 C 0.56921 0.01896 0.34826 0.0
C3051 C 0.58394 0.01778 0.32235 0.0
C3052 C 0.60137 0.00587 0.3345 0.0
C3053 C 0.60406 -0.00416 0.37106 0.0
C3054 C 0.58572 0.0307 0.21536 0.0
C3055 C 0.57501 0.04999 0.20902 0.0
C3056 C 0.58878 0.02042 0.25177 0.0
C3057 C 0.58118 0.02899 0.28323 0.0
C3058 C 0.57076 0.04845 0.27679 0.0
C3059 C 0.56774 0.05871 0.24053 0.0
H3060 H 0.1912 0.33294 0.6051 0.0
H3061 H 0.23883 0.35741 0.54184 0.0
H3062 H 0.21224 0.33445 0.66344 0.0
H3063 H 0.26009 0.3583 0.60028 0.0
H3064 H 0.29529 0.3237 0.71064 0.0
H3065 H 0.27487 0.32775 0.65095 0.0
H3066 H 0.23084 0.36304 0.70299 0.0
H3067 H 0.25148 0.35958 0.7624 0.0
C3068 C 0.20608 0.33888 0.60364 0.0
C3069 C 0.21321 0.34522 0.56866 0.0
C3070 C 0.21815 0.33975 0.63713 0.0
C3071 C 0.23789 0.34645 0.63659 0.0
C3072 C 0.24498 0.35302 0.60169 0.0
C3073 C 0.23272 0.35267 0.56823 0.0
C3074 C 0.28144 0.33268 0.70922 0.0
C3075 C 0.27516 0.34144 0.74142 0.0
C3076 C 0.26973 0.33501 0.67496 0.0
C3077 C 0.25117 0.34568 0.67216 0.0
C3078 C 0.24502 0.35469 0.70418 0.0
C3079 C 0.25695 0.35283 0.73819 0.0
H3080 H 0.89759 0.96545 0.89627 0.0
H3081 H 0.90167 0.0257 0.83411 0.0
H3082 H 0.89815 0.94804 0.83826 0.0
H3083 H 0.90225 0.00819 0.77585 0.0
H3084 H 0.88958 0.97047 0.67237 0.0
H3085 H 0.88385 0.98761 0.72994 0.0
H3086 H 0.92185 0.94073 0.79428 0.0
H3087 H 0.92718 0.92365 0.73766 0.0
C3088 C 0.89875 0.97503 0.87028 0.0
C3089 C 0.89982 -0.00296 0.87021 0.0
C3090 C 0.89901 0.965 0.83685 0.0
C3091 C 0.90037 0.97662 0.80214 0.0
C3092 C 0.90094 -0.00131 0.80187 0.0
C3093 C 0.90067 0.00875 0.8354 0.0
C3094 C 0.8963 0.96361 0.69898 0.0
C3095 C 0.90876 0.94561 0.70029 0.0
C3096 C 0.89324 0.97357 0.73194 0.0
C3097 C 0.9024 0.96563 0.76698 0.0
C3098 C 0.91429 0.94723 0.76816 0.0
C3099 C 0.91743 0.93744 0.73544 0.0
H3100 H 0.275 0.6684 0.15085 0.0
H3101 H 0.24503 0.61103 0.12807 0.0
H3102 H 0.29189 0.6669 0.09346 0.0
H3103 H 0.26262 0.60908 0.07112 0.0
H3104 H 0.28245 0.62864 0.94978 0.0
H3105 H 0.26536 0.62556 1.00796 0.0
H3106 H 0.31771 0.64734 0.06857 0.0
H3107 H 0.33445 0.65078 1.01068 0.0
C3108 C 0.2719 0.65549 0.13356 0.0
C3109 C 0.25857 0.63986 0.14437 0.0
C3110 C 0.28187 0.65444 0.10078 0.0
C3111 C 0.27889 0.6377 0.07767 0.0
C3112 C 0.26531 0.62222 0.08807 0.0
C3113 C 0.25533 0.62326 0.121 0.0
C3114 C 0.29049 0.6321 0.97577 0.0
C3115 C 0.30983 0.63993 0.97553 0.0
C3116 C 0.28064 0.63049 1.00916 0.0
C3117 C 0.28996 0.63666 0.04299 0.0
C3118 C 0.30981 0.64301 0.04301 0.0
C3119 C 0.31954 0.6447 1.00981 0.0
H3120 H 0.40595 0.96743 0.15408 0.0
H3121 H 0.44026 0.91764 0.11276 0.0
H3122 H 0.40095 0.98432 0.09033 0.0
H3123 H 0.43589 0.93468 0.04972 0.0
H3124 H 0.41154 0.95917 0.93276 0.0
H3125 H 0.41489 0.94264 0.99621 0.0
H3126 H 0.41484 0.00372 0.04024 0.0
H3127 H 0.41037 0.02031 0.97648 0.0
C3128 C 0.41239 0.95999 0.1315 0.0
C3129 C 0.4234 0.94094 0.13912 0.0
C3130 C 0.40969 0.96985 0.09468 0.0
C3131 C 0.41793 0.96107 0.06401 0.0
C3132 C 0.42888 0.94197 0.07183 0.0
C3133 C 0.43151 0.93213 0.10847 0.0
C3134 C 0.41196 0.96924 0.95576 0.0
C3135 C 0.41052 0.99131 0.9486 0.0
C3136 C 0.41421 0.95963 0.99264 0.0
C3137 C 0.41525 0.97161 0.02425 0.0
C3138 C 0.41389 0.99371 1.01717 0.0
C3139 C 0.41159 0.00334 0.98018 0.0
H3140 H 0.763 0.62171 0.79852 0.0
H3141 H 0.81491 0.64563 0.74771 0.0
H3142 H 0.74549 0.62135 0.73619 0.0
H3143 H 0.79756 0.64455 0.68535 0.0
H3144 H 0.76151 0.62143 0.57803 0.0
H3145 H 0.77908 0.61561 0.64073 0.0
H3146 H 0.73566 0.65522 0.6855 0.0
H3147 H 0.71858 0.66165 0.6229 0.0
C3148 C 0.77091 0.6263 0.77408 0.0
C3149 C 0.79046 0.63358 0.7783 0.0
C3150 C 0.76079 0.62623 0.73835 0.0
C3151 C 0.77012 0.6329 0.70579 0.0
C3152 C 0.79 0.63916 0.70983 0.0
C3153 C 0.79994 0.63977 0.74561 0.0
C3154 C 0.75551 0.62856 0.6014 0.0
C3155 C 0.73854 0.64189 0.59543 0.0
C3156 C 0.76567 0.62536 0.63723 0.0
C3157 C 0.75875 0.63492 0.66813 0.0
C3158 C 0.7413 0.6475 0.66241 0.0
C3159 C 0.73151 0.65118 0.6265 0.0
H3160 H 0.10451 0.02797 0.46069 0.0
H3161 H 0.1023 0.96723 0.522 0.0
H3162 H 0.10338 0.04498 0.51885 0.0
H3163 H 0.10027 0.98444 0.58036 0.0
H3164 H 0.11107 0.02224 0.68512 0.0
H3165 H 0.11736 0.00508 0.62768 0.0
H3166 H 0.07988 0.05204 0.56234 0.0
H3167 H 0.07415 0.06913 0.61872 0.0
C3168 C 0.10389 0.01814 0.48655 0.0
C3169 C 0.1035 -0.00391 0.48618 0.0
C3170 C 0.10301 0.02799 0.52011 0.0
C3171 C 0.10161 0.0162 0.55468 0.0
C3172 C 0.10151 0.99412 0.55452 0.0
C3173 C 0.10239 0.98423 0.52082 0.0
C3174 C 0.1046 0.0291 0.65832 0.0
C3175 C 0.09214 0.04712 0.65668 0.0
C3176 C 0.10796 0.01911 0.62539 0.0
C3177 C 0.09912 0.02706 0.59003 0.0
C3178 C 0.08723 0.04548 0.58863 0.0
C3179 C 0.08382 0.05528 0.62125 0.0
H3180 H 0.6663 0.33122 0.34596 0.0
H3181 H 0.71531 0.3612 0.40299 0.0
H3182 H 0.68263 0.33489 0.28773 0.0
H3183 H 0.73171 0.36523 0.34404 0.0
H3184 H 0.76512 0.34032 0.24538 0.0
H3185 H 0.74838 0.34248 0.3032 0.0
H3186 H 0.69311 0.35852 0.23807 0.0
H3187 H 0.70979 0.35646 0.18045 0.0
C3188 C 0.68037 0.33914 0.34587 0.0
C3189 C 0.68938 0.34605 0.37927 0.0
C3190 C 0.68978 0.34126 0.31228 0.0
C3191 C 0.70861 0.35028 0.31093 0.0
C3192 C 0.71732 0.35799 0.34402 0.0
C3193 C 0.70778 0.35599 0.37774 0.0
C3194 C 0.74945 0.34457 0.24331 0.0
C3195 C 0.73885 0.34797 0.20794 0.0
C3196 C 0.73982 0.34586 0.27661 0.0
C3197 C 0.7193 0.35058 0.27555 0.0
C3198 C 0.70883 0.35447 0.24018 0.0
C3199 C 0.71843 0.3532 0.20698 0.0
loop_
_geom_bond_atom_site_label_1
_geom_bond_atom_site_label_2
_geom_bond_distance
_geom_bond_site_symmetry_2
_ccdc_geom_bond_type
Pr0 C2 2.880 . S
Pr0 O20 2.562 . S
Pr0 O21 2.490 . S
Pr0 O22 2.695 . S
Pr0 O23 2.512 . S
Pr0 O25 2.437 . S
Pr0 O28 2.436 . S
Pr0 O30 2.438 . S
Pr1 C11 2.880 . S
Pr1 O22 2.436 . S
Pr1 O24 2.438 . S
Pr1 O26 2.562 . S
Pr1 O27 2.490 . S
Pr1 O28 2.695 . S
Pr1 O29 2.512 . S
Pr1 O31 2.437 . S
C2 Pr0 2.880 . S
C2 C3 1.491 . S
C2 O20 1.254 . S
C2 O21 1.225 . S
C3 C2 1.491 . S
C3 C4 1.425 . S
C3 C8 1.356 . S
C4 C3 1.425 . S
C4 C5 1.357 1_455 S
C4 H32 0.908 1_455 S
C5 C4 1.357 1_655 S
C5 C6 1.386 1_655 S
C5 H33 0.929 . S
C6 C5 1.386 1_455 S
C6 C7 1.373 . S
C7 C6 1.373 . S
C7 C8 1.409 . S
C7 H34 0.931 . S
C8 C3 1.356 . S
C8 C7 1.409 . S
C8 H35 0.930 . S
C9 O22 1.270 . S
C9 O23 1.248 . S
C10 O24 1.267 . S
C10 O25 1.278 . S
C11 Pr1 2.880 . S
C11 C12 1.491 1_554 S
C11 O26 1.254 . S
C11 O27 1.225 . S
C12 C11 1.491 1_556 S
C12 C13 1.392 . S
C12 C17 1.356 . S
C13 C12 1.392 . S
C13 C14 1.368 . S
C13 H36 0.929 1_556 S
C14 C13 1.368 . S
C14 C15 1.386 . S
C14 H37 0.929 . S
C15 C14 1.386 . S
C15 C16 1.373 . S
C16 C15 1.373 . S
C16 C17 1.409 . S
C16 H38 0.931 . S
C17 C12 1.356 . S
C17 C16 1.409 . S
C17 H39 0.930 . S
C18 O28 1.270 . S
C18 O29 1.248 . S
C19 O30 1.267 . S
C19 O31 1.278 . S
O20 Pr0 2.562 . S
O20 C2 1.254 . S
O21 Pr0 2.490 . S
O21 C2 1.225 . S
O22 Pr0 2.695 . S
O22 Pr1 2.436 . S
O22 C9 1.270 . S
O23 Pr0 2.512 . S
O23 C9 1.248 . S
O24 Pr1 2.438 . S
O24 C10 1.267 . S
O25 Pr0 2.437 . S
O25 C10 1.278 . S
O26 Pr1 2.562 . S
O26 C11 1.254 . S
O27 Pr1 2.490 . S
O27 C11 1.225 . S
O28 Pr0 2.436 . S
O28 Pr1 2.695 . S
O28 C18 1.270 . S
O29 Pr1 2.512 . S
O29 C18 1.248 . S
O30 Pr0 2.438 . S
O30 C19 1.267 . S
O31 Pr1 2.437 . S
O31 C19 1.278 . S
H32 C4 0.908 1_655 S
H33 C5 0.929 . S
H34 C7 0.931 . S
H35 C8 0.930 . S
H36 C13 0.929 1_554 S
H37 C14 0.929 . S
H38 C16 0.931 . S
H39 C17 0.930 . S
Pr40 C42 2.880 . S
Pr40 O60 2.562 . S
Pr40 O61 2.490 . S
Pr40 O62 2.695 . S
Pr40 O63 2.512 . S
Pr40 O65 2.437 . S
Pr40 O68 2.436 . S
Pr40 O70 2.438 . S
Pr41 C51 2.880 . S
Pr41 O62 2.436 . S
Pr41 O64 2.438 . S
Pr41 O66 2.562 . S
Pr41 O67 2.490 . S
Pr41 O68 2.695 . S
Pr41 O69 2.512 . S
Pr41 O71 2.437 . S
C42 Pr40 2.880 . S
C42 C43 1.491 . S
C42 O60 1.254 . S
C42 O61 1.225 . S
C43 C42 1.491 . S
C43 C44 1.392 . S
C43 C48 1.356 . S
C44 C43 1.392 . S
C44 C45 1.368 . S
C44 H72 0.929 . S
C45 C44 1.368 . S
C45 C46 1.386 . S
C45 H73 0.929 . S
C46 C45 1.386 . S
C46 C47 1.373 . S
C47 C46 1.373 . S
C47 C48 1.409 . S
C47 H74 0.931 . S
C48 C43 1.356 . S
C48 C47 1.409 . S
C48 H75 0.930 . S
C49 O62 1.270 . S
C49 O63 1.248 . S
C50 O64 1.267 . S
C50 O65 1.278 . S
C51 Pr41 2.880 . S
C51 C52 1.491 . S
C51 O66 1.254 . S
C51 O67 1.225 . S
C52 C51 1.491 . S
C52 C53 1.392 . S
C52 C57 1.356 . S
C53 C52 1.392 . S
C53 C54 1.368 . S
C53 H76 0.929 . S
C54 C53 1.368 . S
C54 C55 1.386 . S
C54 H77 0.929 . S
C55 C54 1.386 . S
C55 C56 1.373 . S
C56 C55 1.373 . S
C56 C57 1.409 . S
C56 H78 0.931 . S
C57 C52 1.356 . S
C57 C56 1.409 . S
C57 H79 0.930 . S
C58 O68 1.270 . S
C58 O69 1.248 . S
C59 O70 1.267 . S
C59 O71 1.278 . S
O60 Pr40 2.562 . S
O60 C42 1.254 . S
O61 Pr40 2.490 . S
O61 C42 1.225 . S
O62 Pr40 2.695 . S
O62 Pr41 2.436 . S
O62 C49 1.270 . S
O63 Pr40 2.512 . S
O63 C49 1.248 . S
O64 Pr41 2.438 . S
O64 C50 1.267 . S
O65 Pr40 2.437 . S
O65 C50 1.278 . S
O66 Pr41 2.562 . S
O66 C51 1.254 . S
O67 Pr41 2.490 . S
O67 C51 1.225 . S
O68 Pr40 2.436 . S
O68 Pr41 2.695 . S
O68 C58 1.270 . S
O69 Pr41 2.512 . S
O69 C58 1.248 . S
O70 Pr40 2.438 . S
O70 C59 1.267 . S
O71 Pr41 2.437 . S
O71 C59 1.278 . S
H72 C44 0.929 . S
H73 C45 0.929 . S
H74 C47 0.931 . S
H75 C48 0.930 . S
H76 C53 0.929 . S
H77 C54 0.929 . S
H78 C56 0.931 . S
H79 C57 0.930 . S
Pr80 C82 2.880 . S
Pr80 O100 2.562 . S
Pr80 O101 2.490 . S
Pr80 O102 2.695 . S
Pr80 O103 2.512 . S
Pr80 O105 2.437 . S
Pr80 O108 2.436 . S
Pr80 O110 2.438 . S
Pr81 C91 2.880 . S
Pr81 O102 2.436 . S
Pr81 O104 2.438 . S
Pr81 O106 2.562 . S
Pr81 O107 2.490 . S
Pr81 O108 2.695 . S
Pr81 O109 2.512 . S
Pr81 O111 2.437 . S
C82 Pr80 2.880 . S
C82 C83 1.491 . S
C82 O100 1.254 . S
C82 O101 1.225 . S
C83 C82 1.491 . S
C83 C84 1.392 . S
C83 C88 1.356 . S
C84 C83 1.392 . S
C84 C85 1.368 . S
C84 H112 0.929 . S
C85 C84 1.368 . S
C85 C86 1.386 . S
C85 H113 0.929 . S
C86 C85 1.386 . S
C86 C87 1.373 . S
C87 C86 1.373 . S
C87 C88 1.409 . S
C87 H114 0.931 . S
C88 C83 1.356 . S
C88 C87 1.409 . S
C88 H115 0.930 . S
C89 O102 1.270 . S
C89 O103 1.248 . S
C90 O104 1.267 . S
C90 O105 1.278 . S
C91 Pr81 2.880 . S
C91 C92 1.491 . S
C91 O106 1.254 . S
C91 O107 1.225 . S
C92 C91 1.491 . S
C92 C93 1.392 . S
C92 C97 1.356 . S
C93 C92 1.392 . S
C93 C94 1.368 . S
C93 H116 0.929 . S
C94 C93 1.368 . S
C94 C95 1.386 . S
C94 H117 0.929 . S
C95 C94 1.386 . S
C95 C96 1.373 . S
C96 C95 1.373 . S
C96 C97 1.409 . S
C96 H118 0.931 . S
C97 C92 1.356 . S
C97 C96 1.409 . S
C97 H119 0.930 . S
C98 O108 1.270 . S
C98 O109 1.248 . S
C99 O110 1.267 . S
C99 O111 1.278 . S
O100 Pr80 2.562 . S
O100 C82 1.254 . S
O101 Pr80 2.490 . S
O101 C82 1.225 . S
O102 Pr80 2.695 . S
O102 Pr81 2.436 . S
O102 C89 1.270 . S
O103 Pr80 2.512 . S
O103 C89 1.248 . S
O104 Pr81 2.438 . S
O104 C90 1.267 . S
O105 Pr80 2.437 . S
O105 C90 1.278 . S
O106 Pr81 2.562 . S
O106 C91 1.254 . S
O107 Pr81 2.490 . S
O107 C91 1.225 . S
O108 Pr80 2.436 . S
O108 Pr81 2.695 . S
O108 C98 1.270 . S
O109 Pr81 2.512 . S
O109 C98 1.248 . S
O110 Pr80 2.438 . S
O110 C99 1.267 . S
O111 Pr81 2.437 . S
O111 C99 1.278 . S
H112 C84 0.929 . S
H113 C85 0.929 . S
H114 C87 0.931 . S
H115 C88 0.930 . S
H116 C93 0.929 . S
H117 C94 0.929 . S
H118 C96 0.931 . S
H119 C97 0.930 . S
Pr120 C122 2.880 . S
Pr120 O140 2.562 . S
Pr120 O141 2.490 . S
Pr120 O142 2.695 . S
Pr120 O143 2.512 . S
Pr120 O145 2.437 . S
Pr120 O148 2.436 . S
Pr120 O150 2.438 . S
Pr121 C131 2.880 . S
Pr121 O142 2.436 . S
Pr121 O144 2.438 . S
Pr121 O146 2.562 . S
Pr121 O147 2.490 . S
Pr121 O148 2.695 . S
Pr121 O149 2.512 . S
Pr121 O151 2.437 . S
C122 Pr120 2.880 . S
C122 C123 1.491 . S
C122 O140 1.254 . S
C122 O141 1.225 . S
C123 C122 1.491 . S
C123 C124 1.392 1_556 S
C123 C128 1.356 1_556 S
C124 C123 1.392 1_554 S
C124 C125 1.368 . S
C124 H152 0.929 1_554 S
C125 C124 1.368 . S
C125 C126 1.386 . S
C125 H153 0.929 . S
C126 C125 1.386 . S
C126 C127 1.373 . S
C127 C126 1.373 . S
C127 C128 1.409 . S
C127 H154 0.931 . S
C128 C123 1.356 1_554 S
C128 C127 1.409 . S
C128 H155 0.930 . S
C129 O142 1.270 . S
C129 O143 1.248 . S
C130 O144 1.267 . S
C130 O145 1.278 . S
C131 Pr121 2.880 . S
C131 C132 1.491 . S
C131 O146 1.254 . S
C131 O147 1.225 . S
C132 C131 1.491 . S
C132 C133 1.392 . S
C132 C137 1.356 . S
C133 C132 1.392 . S
C133 C134 1.368 . S
C133 H156 0.929 . S
C134 C133 1.368 . S
C134 C135 1.386 . S
C134 H157 0.929 . S
C135 C134 1.386 . S
C135 C136 1.373 . S
C136 C135 1.373 . S
C136 C137 1.409 . S
C136 H158 0.931 . S
C137 C132 1.356 . S
C137 C136 1.409 . S
C137 H159 0.930 . S
C138 O148 1.270 . S
C138 O149 1.248 . S
C139 O150 1.267 . S
C139 O151 1.278 . S
O140 Pr120 2.562 . S
O140 C122 1.254 . S
O141 Pr120 2.490 . S
O141 C122 1.225 . S
O142 Pr120 2.695 . S
O142 Pr121 2.436 . S
O142 C129 1.270 . S
O143 Pr120 2.512 . S
O143 C129 1.248 . S
O144 Pr121 2.438 . S
O144 C130 1.267 . S
O145 Pr120 2.437 . S
O145 C130 1.278 . S
O146 Pr121 2.562 . S
O146 C131 1.254 . S
O147 Pr121 2.490 . S
O147 C131 1.225 . S
O148 Pr120 2.436 . S
O148 Pr121 2.695 . S
O148 C138 1.270 . S
O149 Pr121 2.512 . S
O149 C138 1.248 . S
O150 Pr120 2.438 . S
O150 C139 1.267 . S
O151 Pr121 2.437 . S
O151 C139 1.278 . S
H152 C124 0.929 1_556 S
H153 C125 0.929 . S
H154 C127 0.931 . S
H155 C128 0.930 . S
H156 C133 0.929 . S
H157 C134 0.929 . S
H158 C136 0.931 . S
H159 C137 0.930 . S
Pr160 C162 2.880 . S
Pr160 O180 2.562 . S
Pr160 O181 2.490 . S
Pr160 O182 2.695 . S
Pr160 O183 2.512 . S
Pr160 O185 2.437 . S
Pr160 O188 2.436 . S
Pr160 O190 2.438 . S
Pr161 C171 2.880 . S
Pr161 O182 2.436 . S
Pr161 O184 2.438 . S
Pr161 O186 2.562 . S
Pr161 O187 2.490 . S
Pr161 O188 2.695 . S
Pr161 O189 2.512 . S
Pr161 O191 2.437 . S
C162 Pr160 2.880 . S
C162 C163 1.491 . S
C162 O180 1.254 . S
C162 O181 1.225 . S
C163 C162 1.491 . S
C163 C164 1.392 . S
C163 C168 1.356 . S
C164 C163 1.392 . S
C164 C165 1.368 . S
C164 H192 0.929 . S
C165 C164 1.368 . S
C165 C166 1.386 . S
C165 H193 0.929 . S
C166 C165 1.386 . S
C166 C167 1.373 . S
C167 C166 1.373 . S
C167 C168 1.409 . S
C167 H194 0.931 . S
C168 C163 1.356 . S
C168 C167 1.409 . S
C168 H195 0.930 . S
C169 O182 1.270 . S
C169 O183 1.248 . S
C170 O184 1.267 . S
C170 O185 1.278 . S
C171 Pr161 2.880 . S
C171 C172 1.491 . S
C171 O186 1.254 . S
C171 O187 1.225 . S
C172 C171 1.491 . S
C172 C173 1.392 . S
C172 C177 1.356 . S
C173 C172 1.392 . S
C173 C174 1.368 . S
C173 H196 0.929 . S
C174 C173 1.368 . S
C174 C175 1.386 . S
C174 H197 0.929 . S
C175 C174 1.386 . S
C175 C176 1.373 . S
C176 C175 1.373 . S
C176 C177 1.409 . S
C176 H198 0.931 . S
C177 C172 1.356 . S
C177 C176 1.409 . S
C177 H199 0.930 . S
C178 O188 1.270 . S
C178 O189 1.248 . S
C179 O190 1.267 . S
C179 O191 1.278 . S
O180 Pr160 2.562 . S
O180 C162 1.254 . S
O181 Pr160 2.490 . S
O181 C162 1.225 . S
O182 Pr160 2.695 . S
O182 Pr161 2.436 . S
O182 C169 1.270 . S
O183 Pr160 2.512 . S
O183 C169 1.248 . S
O184 Pr161 2.438 . S
O184 C170 1.267 . S
O185 Pr160 2.437 . S
O185 C170 1.278 . S
O186 Pr161 2.562 . S
O186 C171 1.254 . S
O187 Pr161 2.490 . S
O187 C171 1.225 . S
O188 Pr160 2.436 . S
O188 Pr161 2.695 . S
O188 C178 1.270 . S
O189 Pr161 2.512 . S
O189 C178 1.248 . S
O190 Pr160 2.438 . S
O190 C179 1.267 . S
O191 Pr161 2.437 . S
O191 C179 1.278 . S
H192 C164 0.929 . S
H193 C165 0.929 . S
H194 C167 0.931 . S
H195 C168 0.930 . S
H196 C173 0.929 . S
H197 C174 0.929 . S
H198 C176 0.931 . S
H199 C177 0.930 . S
Pr200 C202 2.880 1_556 S
Pr200 O220 2.562 1_556 S
Pr200 O221 2.490 . S
Pr200 O222 2.695 . S
Pr200 O223 2.512 . S
Pr200 O225 2.437 . S
Pr200 O228 2.436 . S
Pr200 O230 2.438 . S
Pr201 C211 2.880 . S
Pr201 O222 2.436 . S
Pr201 O224 2.438 . S
Pr201 O226 2.562 . S
Pr201 O227 2.490 . S
Pr201 O228 2.695 . S
Pr201 O229 2.512 . S
Pr201 O231 2.437 . S
C202 Pr200 2.880 1_554 S
C202 C203 1.491 . S
C202 O220 1.254 . S
C202 O221 1.225 1_554 S
C203 C202 1.491 . S
C203 C204 1.392 . S
C203 C208 1.356 . S
C204 C203 1.392 . S
C204 C205 1.368 . S
C204 H232 0.929 . S
C205 C204 1.368 . S
C205 C206 1.386 . S
C205 H233 0.929 . S
C206 C205 1.386 . S
C206 C207 1.373 . S
C207 C206 1.373 . S
C207 C208 1.409 . S
C207 H234 0.931 . S
C208 C203 1.356 . S
C208 C207 1.409 . S
C208 H235 0.930 . S
C209 O222 1.270 . S
C209 O223 1.248 . S
C210 O224 1.267 . S
C210 O225 1.278 . S
C211 Pr201 2.880 . S
C211 C212 1.491 . S
C211 O226 1.254 . S
C211 O227 1.225 . S
C212 C211 1.491 . S
C212 C213 1.392 . S
C212 C217 1.356 . S
C213 C212 1.392 . S
C213 C214 1.368 . S
C213 H236 0.929 . S
C214 C213 1.368 . S
C214 C215 1.386 . S
C214 H237 0.929 . S
C215 C214 1.386 . S
C215 C216 1.373 . S
C216 C215 1.373 . S
C216 C217 1.409 . S
C216 H238 0.931 . S
C217 C212 1.356 . S
C217 C216 1.409 . S
C217 H239 0.930 . S
C218 O228 1.270 . S
C218 O229 1.248 . S
C219 O230 1.267 . S
C219 O231 1.278 . S
O220 Pr200 2.562 1_554 S
O220 C202 1.254 . S
O221 Pr200 2.490 . S
O221 C202 1.225 1_556 S
O222 Pr200 2.695 . S
O222 Pr201 2.436 . S
O222 C209 1.270 . S
O223 Pr200 2.512 . S
O223 C209 1.248 . S
O224 Pr201 2.438 . S
O224 C210 1.267 . S
O225 Pr200 2.437 . S
O225 C210 1.278 . S
O226 Pr201 2.562 . S
O226 C211 1.254 . S
O227 Pr201 2.490 . S
O227 C211 1.225 . S
O228 Pr200 2.436 . S
O228 Pr201 2.695 . S
O228 C218 1.270 . S
O229 Pr201 2.512 . S
O229 C218 1.248 . S
O230 Pr200 2.438 . S
O230 C219 1.267 . S
O231 Pr201 2.437 . S
O231 C219 1.278 . S
H232 C204 0.929 . S
H233 C205 0.929 . S
H234 C207 0.931 . S
H235 C208 0.930 . S
H236 C213 0.929 . S
H237 C214 0.929 . S
H238 C216 0.931 . S
H239 C217 0.930 . S
Pr240 C242 2.880 . S
Pr240 O260 2.562 . S
Pr240 O261 2.490 . S
Pr240 O262 2.695 . S
Pr240 O263 2.512 . S
Pr240 O265 2.437 . S
Pr240 O268 2.436 . S
Pr240 O270 2.438 . S
Pr241 C251 2.880 1_554 S
Pr241 O262 2.436 . S
Pr241 O264 2.438 . S
Pr241 O266 2.562 1_554 S
Pr241 O267 2.490 1_554 S
Pr241 O268 2.695 . S
Pr241 O269 2.512 . S
Pr241 O271 2.437 . S
C242 Pr240 2.880 . S
C242 C243 1.491 . S
C242 O260 1.254 . S
C242 O261 1.225 . S
C243 C242 1.491 . S
C243 C244 1.392 . S
C243 C248 1.356 . S
C244 C243 1.392 . S
C244 C245 1.368 . S
C244 H272 0.929 . S
C245 C244 1.368 . S
C245 C246 1.386 . S
C245 H273 0.929 . S
C246 C245 1.386 . S
C246 C247 1.373 . S
C247 C246 1.373 . S
C247 C248 1.409 . S
C247 H274 0.931 . S
C248 C243 1.356 . S
C248 C247 1.409 . S
C248 H275 0.930 . S
C249 O262 1.270 . S
C249 O263 1.248 . S
C250 O264 1.267 . S
C250 O265 1.278 . S
C251 Pr241 2.880 1_556 S
C251 C252 1.491 . S
C251 O266 1.254 . S
C251 O267 1.225 . S
C252 C251 1.491 . S
C252 C253 1.392 . S
C252 C257 1.356 . S
C253 C252 1.392 . S
C253 C254 1.368 . S
C253 H276 0.929 . S
C254 C253 1.368 . S
C254 C255 1.386 . S
C254 H277 0.929 . S
C255 C254 1.386 . S
C255 C256 1.373 . S
C256 C255 1.373 . S
C256 C257 1.409 . S
C256 H278 0.931 . S
C257 C252 1.356 . S
C257 C256 1.409 . S
C257 H279 0.930 . S
C258 O268 1.270 . S
C258 O269 1.248 . S
C259 O270 1.267 . S
C259 O271 1.278 . S
O260 Pr240 2.562 . S
O260 C242 1.254 . S
O261 Pr240 2.490 . S
O261 C242 1.225 . S
O262 Pr240 2.695 . S
O262 Pr241 2.436 . S
O262 C249 1.270 . S
O263 Pr240 2.512 . S
O263 C249 1.248 . S
O264 Pr241 2.438 . S
O264 C250 1.267 . S
O265 Pr240 2.437 . S
O265 C250 1.278 . S
O266 Pr241 2.562 1_556 S
O266 C251 1.254 . S
O267 Pr241 2.490 1_556 S
O267 C251 1.225 . S
O268 Pr240 2.436 . S
O268 Pr241 2.695 . S
O268 C258 1.270 . S
O269 Pr241 2.512 . S
O269 C258 1.248 . S
O270 Pr240 2.438 . S
O270 C259 1.267 . S
O271 Pr241 2.437 . S
O271 C259 1.278 . S
H272 C244 0.929 . S
H273 C245 0.929 . S
H274 C247 0.931 . S
H275 C248 0.930 . S
H276 C253 0.929 . S
H277 C254 0.929 . S
H278 C256 0.931 . S
H279 C257 0.930 . S
Pr280 C282 2.880 . S
Pr280 O300 2.562 . S
Pr280 O301 2.490 . S
Pr280 O302 2.695 . S
Pr280 O303 2.512 . S
Pr280 O305 2.437 . S
Pr280 O308 2.436 . S
Pr280 O310 2.438 . S
Pr281 C291 2.880 . S
Pr281 O302 2.436 . S
Pr281 O304 2.438 . S
Pr281 O306 2.562 . S
Pr281 O307 2.490 . S
Pr281 O308 2.695 . S
Pr281 O309 2.512 . S
Pr281 O311 2.437 . S
C282 Pr280 2.880 . S
C282 C283 1.491 . S
C282 O300 1.254 . S
C282 O301 1.225 . S
C283 C282 1.491 . S
C283 C284 1.392 . S
C283 C288 1.356 . S
C284 C283 1.392 . S
C284 C285 1.368 . S
C284 H312 0.929 . S
C285 C284 1.368 . S
C285 C286 1.386 . S
C285 H313 0.929 . S
C286 C285 1.386 . S
C286 C287 1.373 . S
C287 C286 1.373 . S
C287 C288 1.409 . S
C287 H314 0.931 . S
C288 C283 1.356 . S
C288 C287 1.409 . S
C288 H315 0.930 . S
C289 O302 1.270 . S
C289 O303 1.248 . S
C290 O304 1.267 . S
C290 O305 1.278 . S
C291 Pr281 2.880 . S
C291 C292 1.491 . S
C291 O306 1.254 . S
C291 O307 1.225 . S
C292 C291 1.491 . S
C292 C293 1.392 . S
C292 C297 1.356 . S
C293 C292 1.392 . S
C293 C294 1.368 . S
C293 H316 0.929 . S
C294 C293 1.368 . S
C294 C295 1.386 . S
C294 H317 0.929 . S
C295 C294 1.386 . S
C295 C296 1.373 . S
C296 C295 1.373 . S
C296 C297 1.409 . S
C296 H318 0.931 . S
C297 C292 1.356 . S
C297 C296 1.409 . S
C297 H319 0.930 . S
C298 O308 1.270 . S
C298 O309 1.248 . S
C299 O310 1.267 . S
C299 O311 1.278 . S
O300 Pr280 2.562 . S
O300 C282 1.254 . S
O301 Pr280 2.490 . S
O301 C282 1.225 . S
O302 Pr280 2.695 . S
O302 Pr281 2.436 . S
O302 C289 1.270 . S
O303 Pr280 2.512 . S
O303 C289 1.248 . S
O304 Pr281 2.438 . S
O304 C290 1.267 . S
O305 Pr280 2.437 . S
O305 C290 1.278 . S
O306 Pr281 2.562 . S
O306 C291 1.254 . S
O307 Pr281 2.490 . S
O307 C291 1.225 . S
O308 Pr280 2.436 . S
O308 Pr281 2.695 . S
O308 C298 1.270 . S
O309 Pr281 2.512 . S
O309 C298 1.248 . S
O310 Pr280 2.438 . S
O310 C299 1.267 . S
O311 Pr281 2.437 . S
O311 C299 1.278 . S
H312 C284 0.929 . S
H313 C285 0.929 . S
H314 C287 0.931 . S
H315 C288 0.930 . S
H316 C293 0.929 . S
H317 C294 0.929 . S
H318 C296 0.931 . S
H319 C297 0.930 . S
Pr320 C322 2.880 . S
Pr320 O340 2.562 . S
Pr320 O341 2.490 . S
Pr320 O342 2.695 . S
Pr320 O343 2.512 . S
Pr320 O345 2.437 . S
Pr320 O348 2.436 . S
Pr320 O350 2.438 . S
Pr321 C331 2.880 . S
Pr321 O342 2.436 . S
Pr321 O344 2.438 . S
Pr321 O346 2.562 . S
Pr321 O347 2.490 . S
Pr321 O348 2.695 . S
Pr321 O349 2.512 . S
Pr321 O351 2.437 . S
C322 Pr320 2.880 . S
C322 C323 1.491 . S
C322 O340 1.254 . S
C322 O341 1.225 . S
C323 C322 1.491 . S
C323 C324 1.392 . S
C323 C328 1.356 . S
C324 C323 1.392 . S
C324 C325 1.368 . S
C324 H352 0.929 . S
C325 C324 1.368 . S
C325 C326 1.386 . S
C325 H353 0.929 . S
C326 C325 1.386 . S
C326 C327 1.373 . S
C327 C326 1.373 . S
C327 C328 1.409 . S
C327 H354 0.931 . S
C328 C323 1.356 . S
C328 C327 1.409 . S
C328 H355 0.930 . S
C329 O342 1.270 . S
C329 O343 1.248 . S
C330 O344 1.267 . S
C330 O345 1.278 . S
C331 Pr321 2.880 . S
C331 C332 1.491 . S
C331 O346 1.254 . S
C331 O347 1.225 . S
C332 C331 1.491 . S
C332 C333 1.428 . S
C332 C337 1.356 . S
C333 C332 1.428 . S
C333 C334 1.356 1_654 S
C333 H356 0.906 1_655 S
C334 C333 1.356 1_456 S
C334 C335 1.386 1_455 S
C334 H357 0.929 . S
C335 C334 1.386 1_655 S
C335 C336 1.373 . S
C336 C335 1.373 . S
C336 C337 1.409 1_556 S
C336 H358 0.931 . S
C337 C332 1.356 . S
C337 C336 1.409 1_554 S
C337 H359 0.930 . S
C338 O348 1.270 . S
C338 O349 1.248 . S
C339 O350 1.267 . S
C339 O351 1.278 . S
O340 Pr320 2.562 . S
O340 C322 1.254 . S
O341 Pr320 2.490 . S
O341 C322 1.225 . S
O342 Pr320 2.695 . S
O342 Pr321 2.436 . S
O342 C329 1.270 . S
O343 Pr320 2.512 . S
O343 C329 1.248 . S
O344 Pr321 2.438 . S
O344 C330 1.267 . S
O345 Pr320 2.437 . S
O345 C330 1.278 . S
O346 Pr321 2.562 . S
O346 C331 1.254 . S
O347 Pr321 2.490 . S
O347 C331 1.225 . S
O348 Pr320 2.436 . S
O348 Pr321 2.695 . S
O348 C338 1.270 . S
O349 Pr321 2.512 . S
O349 C338 1.248 . S
O350 Pr320 2.438 . S
O350 C339 1.267 . S
O351 Pr321 2.437 . S
O351 C339 1.278 . S
H352 C324 0.929 . S
H353 C325 0.929 . S
H354 C327 0.931 . S
H355 C328 0.930 . S
H356 C333 0.906 1_455 S
H357 C334 0.929 . S
H358 C336 0.931 . S
H359 C337 0.930 . S
Pr360 C362 2.880 . S
Pr360 O380 2.562 . S
Pr360 O381 2.490 . S
Pr360 O382 2.695 . S
Pr360 O383 2.512 . S
Pr360 O385 2.437 . S
Pr360 O388 2.436 . S
Pr360 O390 2.438 . S
Pr361 C371 2.880 1_556 S
Pr361 O382 2.436 . S
Pr361 O384 2.438 . S
Pr361 O386 2.562 1_556 S
Pr361 O387 2.490 1_556 S
Pr361 O388 2.695 . S
Pr361 O389 2.512 . S
Pr361 O391 2.437 1_556 S
C362 Pr360 2.880 . S
C362 C363 1.491 . S
C362 O380 1.254 . S
C362 O381 1.225 . S
C363 C362 1.491 . S
C363 C364 1.392 . S
C363 C368 1.356 . S
C364 C363 1.392 . S
C364 C365 1.368 . S
C364 H392 0.929 . S
C365 C364 1.368 . S
C365 C366 1.386 . S
C365 H393 0.929 . S
C366 C365 1.386 . S
C366 C367 1.373 . S
C367 C366 1.373 . S
C367 C368 1.409 . S
C367 H394 0.931 . S
C368 C363 1.356 . S
C368 C367 1.409 . S
C368 H395 0.930 . S
C369 O382 1.270 . S
C369 O383 1.248 . S
C370 O384 1.267 . S
C370 O385 1.278 . S
C371 Pr361 2.880 1_554 S
C371 C372 1.491 . S
C371 O386 1.254 . S
C371 O387 1.225 . S
C372 C371 1.491 . S
C372 C373 1.392 . S
C372 C377 1.356 . S
C373 C372 1.392 . S
C373 C374 1.368 . S
C373 H396 0.929 . S
C374 C373 1.368 . S
C374 C375 1.386 . S
C374 H397 0.929 . S
C375 C374 1.386 . S
C375 C376 1.373 . S
C376 C375 1.373 . S
C376 C377 1.409 . S
C376 H398 0.931 . S
C377 C372 1.356 . S
C377 C376 1.409 . S
C377 H399 0.930 . S
C378 O388 1.270 . S
C378 O389 1.248 . S
C379 O390 1.267 1_554 S
C379 O391 1.278 . S
O380 Pr360 2.562 . S
O380 C362 1.254 . S
O381 Pr360 2.490 . S
O381 C362 1.225 . S
O382 Pr360 2.695 . S
O382 Pr361 2.436 . S
O382 C369 1.270 . S
O383 Pr360 2.512 . S
O383 C369 1.248 . S
O384 Pr361 2.438 . S
O384 C370 1.267 . S
O385 Pr360 2.437 . S
O385 C370 1.278 . S
O386 Pr361 2.562 1_554 S
O386 C371 1.254 . S
O387 Pr361 2.490 1_554 S
O387 C371 1.225 . S
O388 Pr360 2.436 . S
O388 Pr361 2.695 . S
O388 C378 1.270 . S
O389 Pr361 2.512 . S
O389 C378 1.248 . S
O390 Pr360 2.438 . S
O390 C379 1.267 1_556 S
O391 Pr361 2.437 1_554 S
O391 C379 1.278 . S
H392 C364 0.929 . S
H393 C365 0.929 . S
H394 C367 0.931 . S
H395 C368 0.930 . S
H396 C373 0.929 . S
H397 C374 0.929 . S
H398 C376 0.931 . S
H399 C377 0.930 . S
Pr400 C402 2.880 . S
Pr400 O420 2.562 . S
Pr400 O421 2.490 . S
Pr400 O422 2.695 . S
Pr400 O423 2.512 . S
Pr400 O425 2.437 . S
Pr400 O428 2.436 . S
Pr400 O430 2.438 . S
Pr401 C411 2.880 . S
Pr401 O422 2.436 . S
Pr401 O424 2.438 . S
Pr401 O426 2.562 . S
Pr401 O427 2.490 . S
Pr401 O428 2.695 . S
Pr401 O429 2.512 . S
Pr401 O431 2.437 . S
C402 Pr400 2.880 . S
C402 C403 1.491 . S
C402 O420 1.254 . S
C402 O421 1.225 . S
C403 C402 1.491 . S
C403 C404 1.392 . S
C403 C408 1.356 . S
C404 C403 1.392 . S
C404 C405 1.368 . S
C404 H432 0.929 . S
C405 C404 1.368 . S
C405 C406 1.386 . S
C405 H433 0.929 . S
C406 C405 1.386 . S
C406 C407 1.373 . S
C407 C406 1.373 . S
C407 C408 1.409 . S
C407 H434 0.931 . S
C408 C403 1.356 . S
C408 C407 1.409 . S
C408 H435 0.930 . S
C409 O422 1.270 . S
C409 O423 1.248 . S
C410 O424 1.267 . S
C410 O425 1.278 . S
C411 Pr401 2.880 . S
C411 C412 1.491 . S
C411 O426 1.254 . S
C411 O427 1.225 . S
C412 C411 1.491 . S
C412 C413 1.392 . S
C412 C417 1.356 . S
C413 C412 1.392 . S
C413 C414 1.368 . S
C413 H436 0.929 . S
C414 C413 1.368 . S
C414 C415 1.386 . S
C414 H437 0.929 . S
C415 C414 1.386 . S
C415 C416 1.373 . S
C416 C415 1.373 . S
C416 C417 1.409 . S
C416 H438 0.931 . S
C417 C412 1.356 . S
C417 C416 1.409 . S
C417 H439 0.930 . S
C418 O428 1.270 . S
C418 O429 1.248 . S
C419 O430 1.267 . S
C419 O431 1.278 . S
O420 Pr400 2.562 . S
O420 C402 1.254 . S
O421 Pr400 2.490 . S
O421 C402 1.225 . S
O422 Pr400 2.695 . S
O422 Pr401 2.436 . S
O422 C409 1.270 . S
O423 Pr400 2.512 . S
O423 C409 1.248 . S
O424 Pr401 2.438 . S
O424 C410 1.267 . S
O425 Pr400 2.437 . S
O425 C410 1.278 . S
O426 Pr401 2.562 . S
O426 C411 1.254 . S
O427 Pr401 2.490 . S
O427 C411 1.225 . S
O428 Pr400 2.436 . S
O428 Pr401 2.695 . S
O428 C418 1.270 . S
O429 Pr401 2.512 . S
O429 C418 1.248 . S
O430 Pr400 2.438 . S
O430 C419 1.267 . S
O431 Pr401 2.437 . S
O431 C419 1.278 . S
H432 C404 0.929 . S
H433 C405 0.929 . S
H434 C407 0.931 . S
H435 C408 0.930 . S
H436 C413 0.929 . S
H437 C414 0.929 . S
H438 C416 0.931 . S
H439 C417 0.930 . S
Pr440 C442 2.880 . S
Pr440 O460 2.562 . S
Pr440 O461 2.490 . S
Pr440 O462 2.695 . S
Pr440 O463 2.512 . S
Pr440 O465 2.437 . S
Pr440 O468 2.436 . S
Pr440 O470 2.438 . S
Pr441 C451 2.880 . S
Pr441 O462 2.436 . S
Pr441 O464 2.438 . S
Pr441 O466 2.562 . S
Pr441 O467 2.490 . S
Pr441 O468 2.695 . S
Pr441 O469 2.512 . S
Pr441 O471 2.437 . S
C442 Pr440 2.880 . S
C442 C443 1.491 . S
C442 O460 1.254 . S
C442 O461 1.225 . S
C443 C442 1.491 . S
C443 C444 1.392 . S
C443 C448 1.356 . S
C444 C443 1.392 . S
C444 C445 1.368 . S
C444 H472 0.929 . S
C445 C444 1.368 . S
C445 C446 1.386 . S
C445 H473 0.929 . S
C446 C445 1.386 . S
C446 C447 1.373 . S
C447 C446 1.373 . S
C447 C448 1.409 . S
C447 H474 0.931 . S
C448 C443 1.356 . S
C448 C447 1.409 . S
C448 H475 0.930 . S
C449 O462 1.270 . S
C449 O463 1.248 . S
C450 O464 1.267 . S
C450 O465 1.278 . S
C451 Pr441 2.880 . S
C451 C452 1.491 . S
C451 O466 1.254 . S
C451 O467 1.225 . S
C452 C451 1.491 . S
C452 C453 1.392 . S
C452 C457 1.356 . S
C453 C452 1.392 . S
C453 C454 1.368 . S
C453 H476 0.929 . S
C454 C453 1.368 . S
C454 C455 1.386 . S
C454 H477 0.929 . S
C455 C454 1.386 . S
C455 C456 1.373 . S
C456 C455 1.373 . S
C456 C457 1.409 . S
C456 H478 0.931 . S
C457 C452 1.356 . S
C457 C456 1.409 . S
C457 H479 0.930 . S
C458 O468 1.270 . S
C458 O469 1.248 . S
C459 O470 1.267 . S
C459 O471 1.278 . S
O460 Pr440 2.562 . S
O460 C442 1.254 . S
O461 Pr440 2.490 . S
O461 C442 1.225 . S
O462 Pr440 2.695 . S
O462 Pr441 2.436 . S
O462 C449 1.270 . S
O463 Pr440 2.512 . S
O463 C449 1.248 . S
O464 Pr441 2.438 . S
O464 C450 1.267 . S
O465 Pr440 2.437 . S
O465 C450 1.278 . S
O466 Pr441 2.562 . S
O466 C451 1.254 . S
O467 Pr441 2.490 . S
O467 C451 1.225 . S
O468 Pr440 2.436 . S
O468 Pr441 2.695 . S
O468 C458 1.270 . S
O469 Pr441 2.512 . S
O469 C458 1.248 . S
O470 Pr440 2.438 . S
O470 C459 1.267 . S
O471 Pr441 2.437 . S
O471 C459 1.278 . S
H472 C444 0.929 . S
H473 C445 0.929 . S
H474 C447 0.931 . S
H475 C448 0.930 . S
H476 C453 0.929 . S
H477 C454 0.929 . S
H478 C456 0.931 . S
H479 C457 0.930 . S
Pr480 C482 2.880 . S
Pr480 O500 2.562 . S
Pr480 O501 2.490 . S
Pr480 O502 2.695 . S
Pr480 O503 2.512 . S
Pr480 O505 2.437 . S
Pr480 O508 2.436 . S
Pr480 O510 2.438 . S
Pr481 C491 2.880 . S
Pr481 O502 2.436 . S
Pr481 O504 2.438 . S
Pr481 O506 2.562 . S
Pr481 O507 2.490 . S
Pr481 O508 2.695 . S
Pr481 O509 2.512 . S
Pr481 O511 2.437 . S
C482 Pr480 2.880 . S
C482 C483 1.491 . S
C482 O500 1.254 . S
C482 O501 1.225 . S
C483 C482 1.491 . S
C483 C484 1.392 . S
C483 C488 1.356 . S
C484 C483 1.392 . S
C484 C485 1.368 . S
C484 H512 0.929 . S
C485 C484 1.368 . S
C485 C486 1.386 . S
C485 H513 0.929 . S
C486 C485 1.386 . S
C486 C487 1.373 . S
C487 C486 1.373 . S
C487 C488 1.409 . S
C487 H514 0.931 . S
C488 C483 1.356 . S
C488 C487 1.409 . S
C488 H515 0.930 . S
C489 O502 1.270 . S
C489 O503 1.248 . S
C490 O504 1.267 . S
C490 O505 1.278 . S
C491 Pr481 2.880 . S
C491 C492 1.491 . S
C491 O506 1.254 . S
C491 O507 1.225 . S
C492 C491 1.491 . S
C492 C493 1.392 . S
C492 C497 1.356 . S
C493 C492 1.392 . S
C493 C494 1.368 . S
C493 H516 0.929 . S
C494 C493 1.368 . S
C494 C495 1.386 . S
C494 H517 0.929 . S
C495 C494 1.386 . S
C495 C496 1.373 . S
C496 C495 1.373 . S
C496 C497 1.409 . S
C496 H518 0.931 . S
C497 C492 1.356 . S
C497 C496 1.409 . S
C497 H519 0.930 . S
C498 O508 1.270 . S
C498 O509 1.248 . S
C499 O510 1.267 . S
C499 O511 1.278 . S
O500 Pr480 2.562 . S
O500 C482 1.254 . S
O501 Pr480 2.490 . S
O501 C482 1.225 . S
O502 Pr480 2.695 . S
O502 Pr481 2.436 . S
O502 C489 1.270 . S
O503 Pr480 2.512 . S
O503 C489 1.248 . S
O504 Pr481 2.438 . S
O504 C490 1.267 . S
O505 Pr480 2.437 . S
O505 C490 1.278 . S
O506 Pr481 2.562 . S
O506 C491 1.254 . S
O507 Pr481 2.490 . S
O507 C491 1.225 . S
O508 Pr480 2.436 . S
O508 Pr481 2.695 . S
O508 C498 1.270 . S
O509 Pr481 2.512 . S
O509 C498 1.248 . S
O510 Pr480 2.438 . S
O510 C499 1.267 . S
O511 Pr481 2.437 . S
O511 C499 1.278 . S
H512 C484 0.929 . S
H513 C485 0.929 . S
H514 C487 0.931 . S
H515 C488 0.930 . S
H516 C493 0.929 . S
H517 C494 0.929 . S
H518 C496 0.931 . S
H519 C497 0.930 . S
Pr520 C522 2.880 . S
Pr520 O540 2.562 . S
Pr520 O541 2.490 . S
Pr520 O542 2.695 . S
Pr520 O543 2.512 . S
Pr520 O545 2.437 . S
Pr520 O548 2.436 . S
Pr520 O550 2.438 . S
Pr521 C531 2.880 . S
Pr521 O542 2.436 . S
Pr521 O544 2.438 . S
Pr521 O546 2.562 . S
Pr521 O547 2.490 . S
Pr521 O548 2.695 . S
Pr521 O549 2.512 . S
Pr521 O551 2.437 . S
C522 Pr520 2.880 . S
C522 C523 1.491 . S
C522 O540 1.254 . S
C522 O541 1.225 . S
C523 C522 1.491 . S
C523 C524 1.392 . S
C523 C528 1.356 . S
C524 C523 1.392 . S
C524 C525 1.368 . S
C524 H552 0.929 . S
C525 C524 1.368 . S
C525 C526 1.386 . S
C525 H553 0.929 . S
C526 C525 1.386 . S
C526 C527 1.373 . S
C527 C526 1.373 . S
C527 C528 1.409 . S
C527 H554 0.931 . S
C528 C523 1.356 . S
C528 C527 1.409 . S
C528 H555 0.930 . S
C529 O542 1.270 . S
C529 O543 1.248 . S
C530 O544 1.267 . S
C530 O545 1.278 . S
C531 Pr521 2.880 . S
C531 C532 1.491 . S
C531 O546 1.254 . S
C531 O547 1.225 . S
C532 C531 1.491 . S
C532 C533 1.392 . S
C532 C537 1.356 . S
C533 C532 1.392 . S
C533 C534 1.368 . S
C533 H556 0.929 . S
C534 C533 1.368 . S
C534 C535 1.386 . S
C534 H557 0.929 . S
C535 C534 1.386 . S
C535 C536 1.373 . S
C536 C535 1.373 . S
C536 C537 1.409 . S
C536 H558 0.931 . S
C537 C532 1.356 . S
C537 C536 1.409 . S
C537 H559 0.930 . S
C538 O548 1.270 . S
C538 O549 1.248 . S
C539 O550 1.267 . S
C539 O551 1.278 . S
O540 Pr520 2.562 . S
O540 C522 1.254 . S
O541 Pr520 2.490 . S
O541 C522 1.225 . S
O542 Pr520 2.695 . S
O542 Pr521 2.436 . S
O542 C529 1.270 . S
O543 Pr520 2.512 . S
O543 C529 1.248 . S
O544 Pr521 2.438 . S
O544 C530 1.267 . S
O545 Pr520 2.437 . S
O545 C530 1.278 . S
O546 Pr521 2.562 . S
O546 C531 1.254 . S
O547 Pr521 2.490 . S
O547 C531 1.225 . S
O548 Pr520 2.436 . S
O548 Pr521 2.695 . S
O548 C538 1.270 . S
O549 Pr521 2.512 . S
O549 C538 1.248 . S
O550 Pr520 2.438 . S
O550 C539 1.267 . S
O551 Pr521 2.437 . S
O551 C539 1.278 . S
H552 C524 0.929 . S
H553 C525 0.929 . S
H554 C527 0.931 . S
H555 C528 0.930 . S
H556 C533 0.929 . S
H557 C534 0.929 . S
H558 C536 0.931 . S
H559 C537 0.930 . S
Pr560 C562 2.880 . S
Pr560 O580 2.562 . S
Pr560 O581 2.490 . S
Pr560 O582 2.695 . S
Pr560 O583 2.512 . S
Pr560 O585 2.437 . S
Pr560 O588 2.436 . S
Pr560 O590 2.438 . S
Pr561 C571 2.880 . S
Pr561 O582 2.436 . S
Pr561 O584 2.438 . S
Pr561 O586 2.562 . S
Pr561 O587 2.490 . S
Pr561 O588 2.695 . S
Pr561 O589 2.512 . S
Pr561 O591 2.437 . S
C562 Pr560 2.880 . S
C562 C563 1.491 . S
C562 O580 1.254 . S
C562 O581 1.225 . S
C563 C562 1.491 . S
C563 C564 1.392 . S
C563 C568 1.356 . S
C564 C563 1.392 . S
C564 C565 1.368 . S
C564 H592 0.929 . S
C565 C564 1.368 . S
C565 C566 1.386 . S
C565 H593 0.929 . S
C566 C565 1.386 . S
C566 C567 1.373 . S
C567 C566 1.373 . S
C567 C568 1.409 . S
C567 H594 0.931 . S
C568 C563 1.356 . S
C568 C567 1.409 . S
C568 H595 0.930 . S
C569 O582 1.270 . S
C569 O583 1.248 . S
C570 O584 1.267 . S
C570 O585 1.278 . S
C571 Pr561 2.880 . S
C571 C572 1.491 . S
C571 O586 1.254 . S
C571 O587 1.225 . S
C572 C571 1.491 . S
C572 C573 1.392 . S
C572 C577 1.356 . S
C573 C572 1.392 . S
C573 C574 1.368 . S
C573 H596 0.929 . S
C574 C573 1.368 . S
C574 C575 1.386 . S
C574 H597 0.929 . S
C575 C574 1.386 . S
C575 C576 1.373 . S
C576 C575 1.373 . S
C576 C577 1.409 . S
C576 H598 0.931 . S
C577 C572 1.356 . S
C577 C576 1.409 . S
C577 H599 0.930 . S
C578 O588 1.270 . S
C578 O589 1.248 . S
C579 O590 1.267 . S
C579 O591 1.278 . S
O580 Pr560 2.562 . S
O580 C562 1.254 . S
O581 Pr560 2.490 . S
O581 C562 1.225 . S
O582 Pr560 2.695 . S
O582 Pr561 2.436 . S
O582 C569 1.270 . S
O583 Pr560 2.512 . S
O583 C569 1.248 . S
O584 Pr561 2.438 . S
O584 C570 1.267 . S
O585 Pr560 2.437 . S
O585 C570 1.278 . S
O586 Pr561 2.562 . S
O586 C571 1.254 . S
O587 Pr561 2.490 . S
O587 C571 1.225 . S
O588 Pr560 2.436 . S
O588 Pr561 2.695 . S
O588 C578 1.270 . S
O589 Pr561 2.512 . S
O589 C578 1.248 . S
O590 Pr560 2.438 . S
O590 C579 1.267 . S
O591 Pr561 2.437 . S
O591 C579 1.278 . S
H592 C564 0.929 . S
H593 C565 0.929 . S
H594 C567 0.931 . S
H595 C568 0.930 . S
H596 C573 0.929 . S
H597 C574 0.929 . S
H598 C576 0.931 . S
H599 C577 0.930 . S
Pr600 C602 2.880 . S
Pr600 O620 2.562 . S
Pr600 O621 2.490 . S
Pr600 O622 2.695 1_554 S
Pr600 O623 2.512 1_554 S
Pr600 O625 2.437 . S
Pr600 O628 2.436 1_554 S
Pr600 O630 2.438 1_554 S
Pr601 C611 2.880 . S
Pr601 O622 2.436 . S
Pr601 O624 2.438 1_556 S
Pr601 O626 2.562 . S
Pr601 O627 2.490 . S
Pr601 O628 2.695 . S
Pr601 O629 2.512 . S
Pr601 O631 2.437 . S
C602 Pr600 2.880 . S
C602 C603 1.491 . S
C602 O620 1.254 . S
C602 O621 1.225 . S
C603 C602 1.491 . S
C603 C604 1.392 . S
C603 C608 1.356 . S
C604 C603 1.392 . S
C604 C605 1.368 . S
C604 H632 0.929 . S
C605 C604 1.368 . S
C605 C606 1.386 . S
C605 H633 0.929 . S
C606 C605 1.386 . S
C606 C607 1.373 . S
C607 C606 1.373 . S
C607 C608 1.409 . S
C607 H634 0.931 . S
C608 C603 1.356 . S
C608 C607 1.409 . S
C608 H635 0.930 . S
C609 O622 1.270 . S
C609 O623 1.248 . S
C610 O624 1.267 . S
C610 O625 1.278 . S
C611 Pr601 2.880 . S
C611 C612 1.491 . S
C611 O626 1.254 . S
C611 O627 1.225 . S
C612 C611 1.491 . S
C612 C613 1.392 . S
C612 C617 1.356 . S
C613 C612 1.392 . S
C613 C614 1.368 . S
C613 H636 0.929 . S
C614 C613 1.368 . S
C614 C615 1.386 . S
C614 H637 0.929 . S
C615 C614 1.386 . S
C615 C616 1.373 . S
C616 C615 1.373 . S
C616 C617 1.409 . S
C616 H638 0.931 . S
C617 C612 1.356 . S
C617 C616 1.409 . S
C617 H639 0.930 . S
C618 O628 1.270 . S
C618 O629 1.248 . S
C619 O630 1.267 . S
C619 O631 1.278 . S
O620 Pr600 2.562 . S
O620 C602 1.254 . S
O621 Pr600 2.490 . S
O621 C602 1.225 . S
O622 Pr600 2.695 1_556 S
O622 Pr601 2.436 . S
O622 C609 1.270 . S
O623 Pr600 2.512 1_556 S
O623 C609 1.248 . S
O624 Pr601 2.438 1_554 S
O624 C610 1.267 . S
O625 Pr600 2.437 . S
O625 C610 1.278 . S
O626 Pr601 2.562 . S
O626 C611 1.254 . S
O627 Pr601 2.490 . S
O627 C611 1.225 . S
O628 Pr600 2.436 1_556 S
O628 Pr601 2.695 . S
O628 C618 1.270 . S
O629 Pr601 2.512 . S
O629 C618 1.248 . S
O630 Pr600 2.438 1_556 S
O630 C619 1.267 . S
O631 Pr601 2.437 . S
O631 C619 1.278 . S
H632 C604 0.929 . S
H633 C605 0.929 . S
H634 C607 0.931 . S
H635 C608 0.930 . S
H636 C613 0.929 . S
H637 C614 0.929 . S
H638 C616 0.931 . S
H639 C617 0.930 . S
Pr640 C642 2.880 . S
Pr640 O660 2.562 . S
Pr640 O661 2.490 . S
Pr640 O662 2.695 . S
Pr640 O663 2.512 . S
Pr640 O665 2.437 . S
Pr640 O668 2.436 . S
Pr640 O670 2.438 . S
Pr641 C651 2.880 . S
Pr641 O662 2.436 . S
Pr641 O664 2.438 . S
Pr641 O666 2.562 . S
Pr641 O667 2.490 . S
Pr641 O668 2.695 . S
Pr641 O669 2.512 . S
Pr641 O671 2.437 . S
C642 Pr640 2.880 . S
C642 C643 1.491 . S
C642 O660 1.254 . S
C642 O661 1.225 . S
C643 C642 1.491 . S
C643 C644 1.392 . S
C643 C648 1.356 . S
C644 C643 1.392 . S
C644 C645 1.368 . S
C644 H672 0.929 . S
C645 C644 1.368 . S
C645 C646 1.386 . S
C645 H673 0.929 . S
C646 C645 1.386 . S
C646 C647 1.373 . S
C647 C646 1.373 . S
C647 C648 1.409 . S
C647 H674 0.931 . S
C648 C643 1.356 . S
C648 C647 1.409 . S
C648 H675 0.930 . S
C649 O662 1.270 . S
C649 O663 1.248 . S
C650 O664 1.267 . S
C650 O665 1.278 . S
C651 Pr641 2.880 . S
C651 C652 1.491 . S
C651 O666 1.254 . S
C651 O667 1.225 . S
C652 C651 1.491 . S
C652 C653 1.392 . S
C652 C657 1.356 . S
C653 C652 1.392 . S
C653 C654 1.368 . S
C653 H676 0.929 . S
C654 C653 1.368 . S
C654 C655 1.386 . S
C654 H677 0.929 . S
C655 C654 1.386 . S
C655 C656 1.373 . S
C656 C655 1.373 . S
C656 C657 1.409 . S
C656 H678 0.931 . S
C657 C652 1.356 . S
C657 C656 1.409 . S
C657 H679 0.930 . S
C658 O668 1.270 . S
C658 O669 1.248 . S
C659 O670 1.267 . S
C659 O671 1.278 . S
O660 Pr640 2.562 . S
O660 C642 1.254 . S
O661 Pr640 2.490 . S
O661 C642 1.225 . S
O662 Pr640 2.695 . S
O662 Pr641 2.436 . S
O662 C649 1.270 . S
O663 Pr640 2.512 . S
O663 C649 1.248 . S
O664 Pr641 2.438 . S
O664 C650 1.267 . S
O665 Pr640 2.437 . S
O665 C650 1.278 . S
O666 Pr641 2.562 . S
O666 C651 1.254 . S
O667 Pr641 2.490 . S
O667 C651 1.225 . S
O668 Pr640 2.436 . S
O668 Pr641 2.695 . S
O668 C658 1.270 . S
O669 Pr641 2.512 . S
O669 C658 1.248 . S
O670 Pr640 2.438 . S
O670 C659 1.267 . S
O671 Pr641 2.437 . S
O671 C659 1.278 . S
H672 C644 0.929 . S
H673 C645 0.929 . S
H674 C647 0.931 . S
H675 C648 0.930 . S
H676 C653 0.929 . S
H677 C654 0.929 . S
H678 C656 0.931 . S
H679 C657 0.930 . S
Pr680 C682 2.880 . S
Pr680 O700 2.562 . S
Pr680 O701 2.490 . S
Pr680 O702 2.695 . S
Pr680 O703 2.512 . S
Pr680 O705 2.437 . S
Pr680 O708 2.436 . S
Pr680 O710 2.438 . S
Pr681 C691 2.880 . S
Pr681 O702 2.436 . S
Pr681 O704 2.438 . S
Pr681 O706 2.562 . S
Pr681 O707 2.490 . S
Pr681 O708 2.695 . S
Pr681 O709 2.512 . S
Pr681 O711 2.437 . S
C682 Pr680 2.880 . S
C682 C683 1.491 . S
C682 O700 1.254 . S
C682 O701 1.225 . S
C683 C682 1.491 . S
C683 C684 1.392 . S
C683 C688 1.356 . S
C684 C683 1.392 . S
C684 C685 1.368 . S
C684 H712 0.929 . S
C685 C684 1.368 . S
C685 C686 1.386 . S
C685 H713 0.929 . S
C686 C685 1.386 . S
C686 C687 1.373 . S
C687 C686 1.373 . S
C687 C688 1.409 . S
C687 H714 0.931 . S
C688 C683 1.356 . S
C688 C687 1.409 . S
C688 H715 0.930 . S
C689 O702 1.270 . S
C689 O703 1.248 . S
C690 O704 1.267 . S
C690 O705 1.278 . S
C691 Pr681 2.880 . S
C691 C692 1.491 . S
C691 O706 1.254 . S
C691 O707 1.225 . S
C692 C691 1.491 . S
C692 C693 1.392 1_556 S
C692 C697 1.356 1_556 S
C693 C692 1.392 1_554 S
C693 C694 1.368 . S
C693 H716 0.929 1_554 S
C694 C693 1.368 . S
C694 C695 1.386 . S
C694 H717 0.929 . S
C695 C694 1.386 . S
C695 C696 1.373 . S
C696 C695 1.373 . S
C696 C697 1.409 . S
C696 H718 0.931 . S
C697 C692 1.356 1_554 S
C697 C696 1.409 . S
C697 H719 0.930 . S
C698 O708 1.270 . S
C698 O709 1.248 . S
C699 O710 1.267 . S
C699 O711 1.278 . S
O700 Pr680 2.562 . S
O700 C682 1.254 . S
O701 Pr680 2.490 . S
O701 C682 1.225 . S
O702 Pr680 2.695 . S
O702 Pr681 2.436 . S
O702 C689 1.270 . S
O703 Pr680 2.512 . S
O703 C689 1.248 . S
O704 Pr681 2.438 . S
O704 C690 1.267 . S
O705 Pr680 2.437 . S
O705 C690 1.278 . S
O706 Pr681 2.562 . S
O706 C691 1.254 . S
O707 Pr681 2.490 . S
O707 C691 1.225 . S
O708 Pr680 2.436 . S
O708 Pr681 2.695 . S
O708 C698 1.270 . S
O709 Pr681 2.512 . S
O709 C698 1.248 . S
O710 Pr680 2.438 . S
O710 C699 1.267 . S
O711 Pr681 2.437 . S
O711 C699 1.278 . S
H712 C684 0.929 . S
H713 C685 0.929 . S
H714 C687 0.931 . S
H715 C688 0.930 . S
H716 C693 0.929 1_556 S
H717 C694 0.929 . S
H718 C696 0.931 . S
H719 C697 0.930 . S
Pr720 C722 2.880 . S
Pr720 O740 2.562 . S
Pr720 O741 2.490 . S
Pr720 O742 2.695 . S
Pr720 O743 2.512 . S
Pr720 O745 2.437 . S
Pr720 O748 2.436 . S
Pr720 O750 2.438 . S
Pr721 C731 2.880 . S
Pr721 O742 2.436 . S
Pr721 O744 2.438 . S
Pr721 O746 2.562 . S
Pr721 O747 2.490 . S
Pr721 O748 2.695 . S
Pr721 O749 2.512 . S
Pr721 O751 2.437 . S
C722 Pr720 2.880 . S
C722 C723 1.491 . S
C722 O740 1.254 . S
C722 O741 1.225 . S
C723 C722 1.491 . S
C723 C724 1.392 . S
C723 C728 1.356 . S
C724 C723 1.392 . S
C724 C725 1.368 . S
C724 H752 0.923 1_655 S
C725 C724 1.368 . S
C725 C726 1.386 . S
C725 H753 0.929 1_655 S
C726 C725 1.386 . S
C726 C727 1.373 . S
C727 C726 1.373 . S
C727 C728 1.409 . S
C727 H754 0.931 . S
C728 C723 1.356 . S
C728 C727 1.409 . S
C728 H755 0.930 . S
C729 O742 1.270 . S
C729 O743 1.248 . S
C730 O744 1.267 . S
C730 O745 1.278 . S
C731 Pr721 2.880 . S
C731 C732 1.491 1_554 S
C731 O746 1.254 . S
C731 O747 1.225 . S
C732 C731 1.491 1_556 S
C732 C733 1.392 . S
C732 C737 1.356 . S
C733 C732 1.392 . S
C733 C734 1.368 . S
C733 H756 0.929 . S
C734 C733 1.368 . S
C734 C735 1.386 . S
C734 H757 0.929 . S
C735 C734 1.386 . S
C735 C736 1.373 . S
C736 C735 1.373 . S
C736 C737 1.409 . S
C736 H758 0.931 . S
C737 C732 1.356 . S
C737 C736 1.409 . S
C737 H759 0.930 . S
C738 O748 1.270 . S
C738 O749 1.248 . S
C739 O750 1.267 . S
C739 O751 1.278 . S
O740 Pr720 2.562 . S
O740 C722 1.254 . S
O741 Pr720 2.490 . S
O741 C722 1.225 . S
O742 Pr720 2.695 . S
O742 Pr721 2.436 . S
O742 C729 1.270 . S
O743 Pr720 2.512 . S
O743 C729 1.248 . S
O744 Pr721 2.438 . S
O744 C730 1.267 . S
O745 Pr720 2.437 . S
O745 C730 1.278 . S
O746 Pr721 2.562 . S
O746 C731 1.254 . S
O747 Pr721 2.490 . S
O747 C731 1.225 . S
O748 Pr720 2.436 . S
O748 Pr721 2.695 . S
O748 C738 1.270 . S
O749 Pr721 2.512 . S
O749 C738 1.248 . S
O750 Pr720 2.438 . S
O750 C739 1.267 . S
O751 Pr721 2.437 . S
O751 C739 1.278 . S
H752 C724 0.923 1_455 S
H753 C725 0.929 1_455 S
H754 C727 0.931 . S
H755 C728 0.930 . S
H756 C733 0.929 . S
H757 C734 0.929 . S
H758 C736 0.931 . S
H759 C737 0.930 . S
Pr760 C762 2.880 . S
Pr760 O780 2.562 . S
Pr760 O781 2.490 . S
Pr760 O782 2.695 . S
Pr760 O783 2.512 . S
Pr760 O785 2.437 . S
Pr760 O788 2.436 . S
Pr760 O790 2.438 . S
Pr761 C771 2.880 . S
Pr761 O782 2.436 . S
Pr761 O784 2.438 . S
Pr761 O786 2.562 . S
Pr761 O787 2.490 . S
Pr761 O788 2.695 . S
Pr761 O789 2.512 . S
Pr761 O791 2.437 . S
C762 Pr760 2.880 . S
C762 C763 1.491 . S
C762 O780 1.254 . S
C762 O781 1.225 . S
C763 C762 1.491 . S
C763 C764 1.392 . S
C763 C768 1.356 . S
C764 C763 1.392 . S
C764 C765 1.368 . S
C764 H792 0.929 . S
C765 C764 1.368 . S
C765 C766 1.386 . S
C765 H793 0.929 . S
C766 C765 1.386 . S
C766 C767 1.373 . S
C767 C766 1.373 . S
C767 C768 1.409 . S
C767 H794 0.931 . S
C768 C763 1.356 . S
C768 C767 1.409 . S
C768 H795 0.930 . S
C769 O782 1.270 . S
C769 O783 1.248 . S
C770 O784 1.267 . S
C770 O785 1.278 . S
C771 Pr761 2.880 . S
C771 C772 1.491 . S
C771 O786 1.254 . S
C771 O787 1.225 . S
C772 C771 1.491 . S
C772 C773 1.392 . S
C772 C777 1.356 . S
C773 C772 1.392 . S
C773 C774 1.368 . S
C773 H796 0.929 . S
C774 C773 1.368 . S
C774 C775 1.386 . S
C774 H797 0.929 . S
C775 C774 1.386 . S
C775 C776 1.373 . S
C776 C775 1.373 . S
C776 C777 1.409 . S
C776 H798 0.931 . S
C777 C772 1.356 . S
C777 C776 1.409 . S
C777 H799 0.930 . S
C778 O788 1.270 . S
C778 O789 1.248 . S
C779 O790 1.267 . S
C779 O791 1.278 . S
O780 Pr760 2.562 . S
O780 C762 1.254 . S
O781 Pr760 2.490 . S
O781 C762 1.225 . S
O782 Pr760 2.695 . S
O782 Pr761 2.436 . S
O782 C769 1.270 . S
O783 Pr760 2.512 . S
O783 C769 1.248 . S
O784 Pr761 2.438 . S
O784 C770 1.267 . S
O785 Pr760 2.437 . S
O785 C770 1.278 . S
O786 Pr761 2.562 . S
O786 C771 1.254 . S
O787 Pr761 2.490 . S
O787 C771 1.225 . S
O788 Pr760 2.436 . S
O788 Pr761 2.695 . S
O788 C778 1.270 . S
O789 Pr761 2.512 . S
O789 C778 1.248 . S
O790 Pr760 2.438 . S
O790 C779 1.267 . S
O791 Pr761 2.437 . S
O791 C779 1.278 . S
H792 C764 0.929 . S
H793 C765 0.929 . S
H794 C767 0.931 . S
H795 C768 0.930 . S
H796 C773 0.929 . S
H797 C774 0.929 . S
H798 C776 0.931 . S
H799 C777 0.930 . S
Pr800 C802 2.880 . S
Pr800 O820 2.562 . S
Pr800 O821 2.490 . S
Pr800 O822 2.695 . S
Pr800 O823 2.512 . S
Pr800 O825 2.437 . S
Pr800 O828 2.436 . S
Pr800 O830 2.438 . S
Pr801 C811 2.880 1_554 S
Pr801 O822 2.436 . S
Pr801 O824 2.438 . S
Pr801 O826 2.562 1_554 S
Pr801 O827 2.490 1_544 S
Pr801 O828 2.695 . S
Pr801 O829 2.500 1_545 S
Pr801 O831 2.437 . S
C802 Pr800 2.880 . S
C802 C803 1.491 . S
C802 O820 1.254 . S
C802 O821 1.225 . S
C803 C802 1.491 . S
C803 C804 1.392 . S
C803 C808 1.356 . S
C804 C803 1.392 . S
C804 C805 1.368 . S
C804 H832 0.929 . S
C805 C804 1.368 . S
C805 C806 1.386 . S
C805 H833 0.929 . S
C806 C805 1.386 . S
C806 C807 1.373 . S
C807 C806 1.373 . S
C807 C808 1.409 . S
C807 H834 0.931 . S
C808 C803 1.356 . S
C808 C807 1.409 . S
C808 H835 0.930 . S
C809 O822 1.270 . S
C809 O823 1.248 . S
C810 O824 1.267 . S
C810 O825 1.278 . S
C811 Pr801 2.880 1_556 S
C811 C812 1.491 1_545 S
C811 O826 1.254 . S
C811 O827 1.225 1_545 S
C812 C811 1.491 1_565 S
C812 C813 1.392 . S
C812 C817 1.356 1_565 S
C813 C812 1.392 . S
C813 C814 1.368 . S
C813 H836 0.929 . S
C814 C813 1.368 . S
C814 C815 1.386 . S
C814 H837 0.929 . S
C815 C814 1.386 . S
C815 C816 1.373 1_565 S
C816 C815 1.373 1_545 S
C816 C817 1.409 . S
C816 H838 0.931 . S
C817 C812 1.356 1_545 S
C817 C816 1.409 . S
C817 H839 0.930 . S
C818 O828 1.270 . S
C818 O829 1.227 1_545 S
C819 O830 1.275 . S
C819 O831 1.279 . S
O820 Pr800 2.562 . S
O820 C802 1.254 . S
O821 Pr800 2.490 . S
O821 C802 1.225 . S
O822 Pr800 2.695 . S
O822 Pr801 2.436 . S
O822 C809 1.270 . S
O823 Pr800 2.512 . S
O823 C809 1.248 . S
O824 Pr801 2.438 . S
O824 C810 1.267 . S
O825 Pr800 2.437 . S
O825 C810 1.278 . S
O826 Pr801 2.562 1_556 S
O826 C811 1.254 . S
O827 Pr801 2.490 1_566 S
O827 C811 1.225 1_565 S
O828 Pr800 2.436 . S
O828 Pr801 2.695 . S
O828 C818 1.270 . S
O829 Pr801 2.500 1_565 S
O829 C818 1.227 1_565 S
O830 Pr800 2.438 . S
O830 C819 1.275 . S
O831 Pr801 2.437 . S
O831 C819 1.279 . S
H832 C804 0.929 . S
H833 C805 0.929 . S
H834 C807 0.931 . S
H835 C808 0.930 . S
H836 C813 0.929 . S
H837 C814 0.929 . S
H838 C816 0.931 . S
H839 C817 0.930 . S
Pr840 C842 2.880 . S
Pr840 O860 2.562 . S
Pr840 O861 2.490 . S
Pr840 O862 2.695 . S
Pr840 O863 2.512 . S
Pr840 O865 2.437 . S
Pr840 O868 2.436 . S
Pr840 O870 2.438 . S
Pr841 C851 2.880 . S
Pr841 O862 2.436 . S
Pr841 O864 2.438 . S
Pr841 O866 2.562 . S
Pr841 O867 2.490 . S
Pr841 O868 2.695 . S
Pr841 O869 2.512 . S
Pr841 O871 2.437 . S
C842 Pr840 2.880 . S
C842 C843 1.491 . S
C842 O860 1.254 . S
C842 O861 1.225 . S
C843 C842 1.491 . S
C843 C844 1.392 . S
C843 C848 1.356 . S
C844 C843 1.392 . S
C844 C845 1.368 . S
C844 H872 0.929 . S
C845 C844 1.368 . S
C845 C846 1.386 . S
C845 H873 0.929 . S
C846 C845 1.386 . S
C846 C847 1.373 . S
C847 C846 1.373 . S
C847 C848 1.409 . S
C847 H874 0.931 . S
C848 C843 1.356 . S
C848 C847 1.409 . S
C848 H875 0.930 . S
C849 O862 1.270 . S
C849 O863 1.248 . S
C850 O864 1.267 . S
C850 O865 1.278 . S
C851 Pr841 2.880 . S
C851 C852 1.491 . S
C851 O866 1.254 . S
C851 O867 1.225 . S
C852 C851 1.491 . S
C852 C853 1.392 . S
C852 C857 1.356 . S
C853 C852 1.392 . S
C853 C854 1.368 . S
C853 H876 0.929 . S
C854 C853 1.368 . S
C854 C855 1.386 . S
C854 H877 0.929 . S
C855 C854 1.386 . S
C855 C856 1.373 . S
C856 C855 1.373 . S
C856 C857 1.409 . S
C856 H878 0.931 . S
C857 C852 1.356 . S
C857 C856 1.409 . S
C857 H879 0.930 . S
C858 O868 1.270 . S
C858 O869 1.248 . S
C859 O870 1.267 . S
C859 O871 1.278 . S
O860 Pr840 2.562 . S
O860 C842 1.254 . S
O861 Pr840 2.490 . S
O861 C842 1.225 . S
O862 Pr840 2.695 . S
O862 Pr841 2.436 . S
O862 C849 1.270 . S
O863 Pr840 2.512 . S
O863 C849 1.248 . S
O864 Pr841 2.438 . S
O864 C850 1.267 . S
O865 Pr840 2.437 . S
O865 C850 1.278 . S
O866 Pr841 2.562 . S
O866 C851 1.254 . S
O867 Pr841 2.490 . S
O867 C851 1.225 . S
O868 Pr840 2.436 . S
O868 Pr841 2.695 . S
O868 C858 1.270 . S
O869 Pr841 2.512 . S
O869 C858 1.248 . S
O870 Pr840 2.438 . S
O870 C859 1.267 . S
O871 Pr841 2.437 . S
O871 C859 1.278 . S
H872 C844 0.929 . S
H873 C845 0.929 . S
H874 C847 0.931 . S
H875 C848 0.930 . S
H876 C853 0.929 . S
H877 C854 0.929 . S
H878 C856 0.931 . S
H879 C857 0.930 . S
Pr880 C882 2.880 . S
Pr880 O900 2.562 . S
Pr880 O901 2.490 . S
Pr880 O902 2.695 . S
Pr880 O903 2.512 . S
Pr880 O905 2.437 . S
Pr880 O908 2.436 . S
Pr880 O910 2.438 . S
Pr881 C891 2.880 . S
Pr881 O902 2.436 . S
Pr881 O904 2.438 . S
Pr881 O906 2.562 . S
Pr881 O907 2.490 1_565 S
Pr881 O908 2.695 . S
Pr881 O909 2.512 . S
Pr881 O911 2.437 . S
C882 Pr880 2.880 . S
C882 C883 1.491 . S
C882 O900 1.254 . S
C882 O901 1.225 . S
C883 C882 1.491 . S
C883 C884 1.392 . S
C883 C888 1.356 . S
C884 C883 1.392 . S
C884 C885 1.368 . S
C884 H912 0.929 . S
C885 C884 1.368 . S
C885 C886 1.386 . S
C885 H913 0.929 . S
C886 C885 1.386 . S
C886 C887 1.373 . S
C887 C886 1.373 . S
C887 C888 1.409 . S
C887 H914 0.931 . S
C888 C883 1.356 . S
C888 C887 1.409 . S
C888 H915 0.930 . S
C889 O902 1.270 . S
C889 O903 1.248 . S
C890 O904 1.267 . S
C890 O905 1.278 . S
C891 Pr881 2.880 . S
C891 C892 1.491 . S
C891 O906 1.254 . S
C891 O907 1.225 1_565 S
C892 C891 1.491 . S
C892 C893 1.392 1_565 S
C892 C897 1.356 . S
C893 C892 1.392 1_545 S
C893 C894 1.368 . S
C893 H916 0.929 . S
C894 C893 1.368 . S
C894 C895 1.386 . S
C894 H917 0.929 . S
C895 C894 1.386 . S
C895 C896 1.373 1_545 S
C896 C895 1.373 1_565 S
C896 C897 1.409 . S
C896 H918 0.931 . S
C897 C892 1.356 . S
C897 C896 1.409 . S
C897 H919 0.930 . S
C898 O908 1.270 . S
C898 O909 1.248 . S
C899 O910 1.267 . S
C899 O911 1.278 . S
O900 Pr880 2.562 . S
O900 C882 1.254 . S
O901 Pr880 2.490 . S
O901 C882 1.225 . S
O902 Pr880 2.695 . S
O902 Pr881 2.436 . S
O902 C889 1.270 . S
O903 Pr880 2.512 . S
O903 C889 1.248 . S
O904 Pr881 2.438 . S
O904 C890 1.267 . S
O905 Pr880 2.437 . S
O905 C890 1.278 . S
O906 Pr881 2.562 . S
O906 C891 1.254 . S
O907 Pr881 2.490 1_545 S
O907 C891 1.225 1_545 S
O908 Pr880 2.436 . S
O908 Pr881 2.695 . S
O908 C898 1.270 . S
O909 Pr881 2.512 . S
O909 C898 1.248 . S
O910 Pr880 2.438 . S
O910 C899 1.267 . S
O911 Pr881 2.437 . S
O911 C899 1.278 . S
H912 C884 0.929 . S
H913 C885 0.929 . S
H914 C887 0.931 . S
H915 C888 0.930 . S
H916 C893 0.929 . S
H917 C894 0.929 . S
H918 C896 0.931 . S
H919 C897 0.930 . S
Pr920 C922 2.880 . S
Pr920 O940 2.562 . S
Pr920 O941 2.490 . S
Pr920 O942 2.695 . S
Pr920 O943 2.512 . S
Pr920 O945 2.437 . S
Pr920 O948 2.436 . S
Pr920 O950 2.438 . S
Pr921 C931 2.880 . S
Pr921 O942 2.436 . S
Pr921 O944 2.438 . S
Pr921 O946 2.562 . S
Pr921 O947 2.490 . S
Pr921 O948 2.695 . S
Pr921 O949 2.512 . S
Pr921 O951 2.437 . S
C922 Pr920 2.880 . S
C922 C923 1.491 . S
C922 O940 1.254 . S
C922 O941 1.225 . S
C923 C922 1.491 . S
C923 C924 1.392 . S
C923 C928 1.356 . S
C924 C923 1.392 . S
C924 C925 1.368 1_556 S
C924 H952 0.929 . S
C925 C924 1.368 1_554 S
C925 C926 1.386 . S
C925 H953 0.929 . S
C926 C925 1.386 . S
C926 C927 1.373 . S
C927 C926 1.373 . S
C927 C928 1.409 1_554 S
C927 H954 0.931 . S
C928 C923 1.356 . S
C928 C927 1.409 1_556 S
C928 H955 0.930 . S
C929 O942 1.270 . S
C929 O943 1.248 . S
C930 O944 1.267 . S
C930 O945 1.278 . S
C931 Pr921 2.880 . S
C931 C932 1.491 . S
C931 O946 1.254 . S
C931 O947 1.225 . S
C932 C931 1.491 . S
C932 C933 1.392 . S
C932 C937 1.356 . S
C933 C932 1.392 . S
C933 C934 1.368 . S
C933 H956 0.929 . S
C934 C933 1.368 . S
C934 C935 1.386 . S
C934 H957 0.929 . S
C935 C934 1.386 . S
C935 C936 1.373 . S
C936 C935 1.373 . S
C936 C937 1.409 . S
C936 H958 0.931 . S
C937 C932 1.356 . S
C937 C936 1.409 . S
C937 H959 0.930 . S
C938 O948 1.270 . S
C938 O949 1.248 . S
C939 O950 1.267 . S
C939 O951 1.278 . S
O940 Pr920 2.562 . S
O940 C922 1.254 . S
O941 Pr920 2.490 . S
O941 C922 1.225 . S
O942 Pr920 2.695 . S
O942 Pr921 2.436 . S
O942 C929 1.270 . S
O943 Pr920 2.512 . S
O943 C929 1.248 . S
O944 Pr921 2.438 . S
O944 C930 1.267 . S
O945 Pr920 2.437 . S
O945 C930 1.278 . S
O946 Pr921 2.562 . S
O946 C931 1.254 . S
O947 Pr921 2.490 . S
O947 C931 1.225 . S
O948 Pr920 2.436 . S
O948 Pr921 2.695 . S
O948 C938 1.270 . S
O949 Pr921 2.512 . S
O949 C938 1.248 . S
O950 Pr920 2.438 . S
O950 C939 1.267 . S
O951 Pr921 2.437 . S
O951 C939 1.278 . S
H952 C924 0.929 . S
H953 C925 0.929 . S
H954 C927 0.931 . S
H955 C928 0.930 . S
H956 C933 0.929 . S
H957 C934 0.929 . S
H958 C936 0.931 . S
H959 C937 0.930 . S
Pr960 C962 2.880 . S
Pr960 O980 2.562 . S
Pr960 O981 2.490 . S
Pr960 O982 2.695 . S
Pr960 O983 2.512 . S
Pr960 O985 2.437 . S
Pr960 O988 2.436 . S
Pr960 O990 2.438 . S
Pr961 C971 2.880 . S
Pr961 O982 2.436 . S
Pr961 O984 2.438 . S
Pr961 O986 2.562 . S
Pr961 O987 2.490 . S
Pr961 O988 2.695 . S
Pr961 O989 2.512 . S
Pr961 O991 2.437 . S
C962 Pr960 2.880 . S
C962 C963 1.491 . S
C962 O980 1.254 . S
C962 O981 1.225 . S
C963 C962 1.491 . S
C963 C964 1.392 . S
C963 C968 1.356 . S
C964 C963 1.392 . S
C964 C965 1.368 . S
C964 H992 0.929 . S
C965 C964 1.368 . S
C965 C966 1.386 . S
C965 H993 0.929 . S
C966 C965 1.386 . S
C966 C967 1.373 . S
C967 C966 1.373 . S
C967 C968 1.409 . S
C967 H994 0.931 . S
C968 C963 1.356 . S
C968 C967 1.409 . S
C968 H995 0.930 . S
C969 O982 1.270 . S
C969 O983 1.248 . S
C970 O984 1.267 . S
C970 O985 1.278 . S
C971 Pr961 2.880 . S
C971 C972 1.491 . S
C971 O986 1.254 . S
C971 O987 1.225 . S
C972 C971 1.491 . S
C972 C973 1.392 . S
C972 C977 1.356 . S
C973 C972 1.392 . S
C973 C974 1.368 . S
C973 H996 0.929 . S
C974 C973 1.368 . S
C974 C975 1.386 . S
C974 H997 0.929 . S
C975 C974 1.386 . S
C975 C976 1.373 . S
C976 C975 1.373 . S
C976 C977 1.409 . S
C976 H998 0.931 . S
C977 C972 1.356 . S
C977 C976 1.409 . S
C977 H999 0.930 . S
C978 O988 1.270 . S
C978 O989 1.248 . S
C979 O990 1.267 . S
C979 O991 1.278 . S
O980 Pr960 2.562 . S
O980 C962 1.254 . S
O981 Pr960 2.490 . S
O981 C962 1.225 . S
O982 Pr960 2.695 . S
O982 Pr961 2.436 . S
O982 C969 1.270 . S
O983 Pr960 2.512 . S
O983 C969 1.248 . S
O984 Pr961 2.438 . S
O984 C970 1.267 . S
O985 Pr960 2.437 . S
O985 C970 1.278 . S
O986 Pr961 2.562 . S
O986 C971 1.254 . S
O987 Pr961 2.490 . S
O987 C971 1.225 . S
O988 Pr960 2.436 . S
O988 Pr961 2.695 . S
O988 C978 1.270 . S
O989 Pr961 2.512 . S
O989 C978 1.248 . S
O990 Pr960 2.438 . S
O990 C979 1.267 . S
O991 Pr961 2.437 . S
O991 C979 1.278 . S
H992 C964 0.929 . S
H993 C965 0.929 . S
H994 C967 0.931 . S
H995 C968 0.930 . S
H996 C973 0.929 . S
H997 C974 0.929 . S
H998 C976 0.931 . S
H999 C977 0.930 . S
Pr1000 C1002 2.880 . S
Pr1000 O1020 2.562 . S
Pr1000 O1021 2.490 . S
Pr1000 O1022 2.695 . S
Pr1000 O1023 2.512 . S
Pr1000 O1025 2.437 . S
Pr1000 O1028 2.436 . S
Pr1000 O1030 2.438 . S
Pr1001 C1011 2.880 . S
Pr1001 O1022 2.436 . S
Pr1001 O1024 2.438 . S
Pr1001 O1026 2.562 . S
Pr1001 O1027 2.490 . S
Pr1001 O1028 2.695 . S
Pr1001 O1029 2.512 . S
Pr1001 O1031 2.437 . S
C1002 Pr1000 2.880 . S
C1002 C1003 1.491 . S
C1002 O1020 1.254 . S
C1002 O1021 1.225 . S
C1003 C1002 1.491 . S
C1003 C1004 1.392 . S
C1003 C1008 1.356 . S
C1004 C1003 1.392 . S
C1004 C1005 1.368 . S
C1004 H1032 0.929 . S
C1005 C1004 1.368 . S
C1005 C1006 1.386 . S
C1005 H1033 0.929 . S
C1006 C1005 1.386 . S
C1006 C1007 1.373 . S
C1007 C1006 1.373 . S
C1007 C1008 1.409 . S
C1007 H1034 0.931 . S
C1008 C1003 1.356 . S
C1008 C1007 1.409 . S
C1008 H1035 0.930 . S
C1009 O1022 1.270 . S
C1009 O1023 1.248 . S
C1010 O1024 1.267 . S
C1010 O1025 1.278 . S
C1011 Pr1001 2.880 . S
C1011 C1012 1.491 . S
C1011 O1026 1.254 . S
C1011 O1027 1.225 . S
C1012 C1011 1.491 . S
C1012 C1013 1.392 . S
C1012 C1017 1.356 . S
C1013 C1012 1.392 . S
C1013 C1014 1.368 . S
C1013 H1036 0.929 . S
C1014 C1013 1.368 . S
C1014 C1015 1.386 . S
C1014 H1037 0.929 . S
C1015 C1014 1.386 . S
C1015 C1016 1.373 . S
C1016 C1015 1.373 . S
C1016 C1017 1.409 . S
C1016 H1038 0.931 . S
C1017 C1012 1.356 . S
C1017 C1016 1.409 . S
C1017 H1039 0.930 . S
C1018 O1028 1.270 . S
C1018 O1029 1.248 . S
C1019 O1030 1.267 . S
C1019 O1031 1.278 . S
O1020 Pr1000 2.562 . S
O1020 C1002 1.254 . S
O1021 Pr1000 2.490 . S
O1021 C1002 1.225 . S
O1022 Pr1000 2.695 . S
O1022 Pr1001 2.436 . S
O1022 C1009 1.270 . S
O1023 Pr1000 2.512 . S
O1023 C1009 1.248 . S
O1024 Pr1001 2.438 . S
O1024 C1010 1.267 . S
O1025 Pr1000 2.437 . S
O1025 C1010 1.278 . S
O1026 Pr1001 2.562 . S
O1026 C1011 1.254 . S
O1027 Pr1001 2.490 . S
O1027 C1011 1.225 . S
O1028 Pr1000 2.436 . S
O1028 Pr1001 2.695 . S
O1028 C1018 1.270 . S
O1029 Pr1001 2.512 . S
O1029 C1018 1.248 . S
O1030 Pr1000 2.438 . S
O1030 C1019 1.267 . S
O1031 Pr1001 2.437 . S
O1031 C1019 1.278 . S
H1032 C1004 0.929 . S
H1033 C1005 0.929 . S
H1034 C1007 0.931 . S
H1035 C1008 0.930 . S
H1036 C1013 0.929 . S
H1037 C1014 0.929 . S
H1038 C1016 0.931 . S
H1039 C1017 0.930 . S
Pr1040 C1042 2.880 . S
Pr1040 O1060 2.562 . S
Pr1040 O1061 2.490 . S
Pr1040 O1062 2.695 . S
Pr1040 O1063 2.512 . S
Pr1040 O1065 2.437 . S
Pr1040 O1068 2.436 . S
Pr1040 O1070 2.438 . S
Pr1041 C1051 2.880 . S
Pr1041 O1062 2.436 . S
Pr1041 O1064 2.438 . S
Pr1041 O1066 2.562 . S
Pr1041 O1067 2.490 . S
Pr1041 O1068 2.695 . S
Pr1041 O1069 2.512 . S
Pr1041 O1071 2.437 . S
C1042 Pr1040 2.880 . S
C1042 C1043 1.491 . S
C1042 O1060 1.254 . S
C1042 O1061 1.225 . S
C1043 C1042 1.491 . S
C1043 C1044 1.392 . S
C1043 C1048 1.356 . S
C1044 C1043 1.392 . S
C1044 C1045 1.368 . S
C1044 H1072 0.929 . S
C1045 C1044 1.368 . S
C1045 C1046 1.386 . S
C1045 H1073 0.929 . S
C1046 C1045 1.386 . S
C1046 C1047 1.373 . S
C1047 C1046 1.373 . S
C1047 C1048 1.409 . S
C1047 H1074 0.931 . S
C1048 C1043 1.356 . S
C1048 C1047 1.409 . S
C1048 H1075 0.930 . S
C1049 O1062 1.270 . S
C1049 O1063 1.248 . S
C1050 O1064 1.267 . S
C1050 O1065 1.278 . S
C1051 Pr1041 2.880 . S
C1051 C1052 1.491 . S
C1051 O1066 1.254 . S
C1051 O1067 1.225 . S
C1052 C1051 1.491 . S
C1052 C1053 1.392 . S
C1052 C1057 1.356 . S
C1053 C1052 1.392 . S
C1053 C1054 1.368 . S
C1053 H1076 0.925 1_455 S
C1054 C1053 1.368 . S
C1054 C1055 1.386 1_554 S
C1054 H1077 0.929 1_454 S
C1055 C1054 1.386 1_556 S
C1055 C1056 1.373 1_556 S
C1056 C1055 1.373 1_554 S
C1056 C1057 1.409 . S
C1056 H1078 0.931 1_554 S
C1057 C1052 1.356 . S
C1057 C1056 1.409 . S
C1057 H1079 0.930 . S
C1058 O1068 1.270 . S
C1058 O1069 1.248 . S
C1059 O1070 1.267 . S
C1059 O1071 1.278 . S
O1060 Pr1040 2.562 . S
O1060 C1042 1.254 . S
O1061 Pr1040 2.490 . S
O1061 C1042 1.225 . S
O1062 Pr1040 2.695 . S
O1062 Pr1041 2.436 . S
O1062 C1049 1.270 . S
O1063 Pr1040 2.512 . S
O1063 C1049 1.248 . S
O1064 Pr1041 2.438 . S
O1064 C1050 1.267 . S
O1065 Pr1040 2.437 . S
O1065 C1050 1.278 . S
O1066 Pr1041 2.562 . S
O1066 C1051 1.254 . S
O1067 Pr1041 2.490 . S
O1067 C1051 1.225 . S
O1068 Pr1040 2.436 . S
O1068 Pr1041 2.695 . S
O1068 C1058 1.270 . S
O1069 Pr1041 2.512 . S
O1069 C1058 1.248 . S
O1070 Pr1040 2.438 . S
O1070 C1059 1.267 . S
O1071 Pr1041 2.437 . S
O1071 C1059 1.278 . S
H1072 C1044 0.929 . S
H1073 C1045 0.929 . S
H1074 C1047 0.931 . S
H1075 C1048 0.930 . S
H1076 C1053 0.925 1_655 S
H1077 C1054 0.929 1_656 S
H1078 C1056 0.931 1_556 S
H1079 C1057 0.930 . S
Pr1080 C1082 2.880 1_556 S
Pr1080 O1100 2.562 1_556 S
Pr1080 O1101 2.490 1_556 S
Pr1080 O1102 2.695 . S
Pr1080 O1103 2.512 . S
Pr1080 O1105 2.437 1_556 S
Pr1080 O1108 2.436 . S
Pr1080 O1110 2.438 . S
Pr1081 C1091 2.880 . S
Pr1081 O1102 2.436 . S
Pr1081 O1104 2.438 . S
Pr1081 O1106 2.562 . S
Pr1081 O1107 2.490 . S
Pr1081 O1108 2.695 . S
Pr1081 O1109 2.512 . S
Pr1081 O1111 2.437 . S
C1082 Pr1080 2.880 1_554 S
C1082 C1083 1.491 . S
C1082 O1100 1.254 . S
C1082 O1101 1.225 . S
C1083 C1082 1.491 . S
C1083 C1084 1.392 . S
C1083 C1088 1.356 . S
C1084 C1083 1.392 . S
C1084 C1085 1.368 . S
C1084 H1112 0.929 . S
C1085 C1084 1.368 . S
C1085 C1086 1.386 . S
C1085 H1113 0.929 . S
C1086 C1085 1.386 . S
C1086 C1087 1.373 . S
C1087 C1086 1.373 . S
C1087 C1088 1.409 . S
C1087 H1114 0.931 . S
C1088 C1083 1.356 . S
C1088 C1087 1.409 . S
C1088 H1115 0.930 . S
C1089 O1102 1.270 . S
C1089 O1103 1.248 . S
C1090 O1104 1.267 1_554 S
C1090 O1105 1.278 . S
C1091 Pr1081 2.880 . S
C1091 C1092 1.491 . S
C1091 O1106 1.254 . S
C1091 O1107 1.225 . S
C1092 C1091 1.491 . S
C1092 C1093 1.392 . S
C1092 C1097 1.356 . S
C1093 C1092 1.392 . S
C1093 C1094 1.368 . S
C1093 H1116 0.929 . S
C1094 C1093 1.368 . S
C1094 C1095 1.386 . S
C1094 H1117 0.929 . S
C1095 C1094 1.386 . S
C1095 C1096 1.373 . S
C1096 C1095 1.373 . S
C1096 C1097 1.409 . S
C1096 H1118 0.931 . S
C1097 C1092 1.356 . S
C1097 C1096 1.409 . S
C1097 H1119 0.930 . S
C1098 O1108 1.270 . S
C1098 O1109 1.248 . S
C1099 O1110 1.267 . S
C1099 O1111 1.278 . S
O1100 Pr1080 2.562 1_554 S
O1100 C1082 1.254 . S
O1101 Pr1080 2.490 1_554 S
O1101 C1082 1.225 . S
O1102 Pr1080 2.695 . S
O1102 Pr1081 2.436 . S
O1102 C1089 1.270 . S
O1103 Pr1080 2.512 . S
O1103 C1089 1.248 . S
O1104 Pr1081 2.438 . S
O1104 C1090 1.267 1_556 S
O1105 Pr1080 2.437 1_554 S
O1105 C1090 1.278 . S
O1106 Pr1081 2.562 . S
O1106 C1091 1.254 . S
O1107 Pr1081 2.490 . S
O1107 C1091 1.225 . S
O1108 Pr1080 2.436 . S
O1108 Pr1081 2.695 . S
O1108 C1098 1.270 . S
O1109 Pr1081 2.512 . S
O1109 C1098 1.248 . S
O1110 Pr1080 2.438 . S
O1110 C1099 1.267 . S
O1111 Pr1081 2.437 . S
O1111 C1099 1.278 . S
H1112 C1084 0.929 . S
H1113 C1085 0.929 . S
H1114 C1087 0.931 . S
H1115 C1088 0.930 . S
H1116 C1093 0.929 . S
H1117 C1094 0.929 . S
H1118 C1096 0.931 . S
H1119 C1097 0.930 . S
Pr1120 C1122 2.880 . S
Pr1120 O1140 2.562 . S
Pr1120 O1141 2.490 1_565 S
Pr1120 O1142 2.695 . S
Pr1120 O1143 2.497 1_565 S
Pr1120 O1145 2.437 . S
Pr1120 O1148 2.436 . S
Pr1120 O1150 2.438 . S
Pr1121 C1131 2.880 . S
Pr1121 O1142 2.436 . S
Pr1121 O1144 2.438 . S
Pr1121 O1146 2.562 . S
Pr1121 O1147 2.490 . S
Pr1121 O1148 2.695 . S
Pr1121 O1149 2.512 . S
Pr1121 O1151 2.437 . S
C1122 Pr1120 2.880 . S
C1122 C1123 1.491 1_565 S
C1122 O1140 1.254 . S
C1122 O1141 1.225 1_565 S
C1123 C1122 1.491 1_545 S
C1123 C1124 1.392 . S
C1123 C1128 1.356 1_545 S
C1124 C1123 1.392 . S
C1124 C1125 1.368 . S
C1124 H1152 0.929 . S
C1125 C1124 1.368 . S
C1125 C1126 1.386 . S
C1125 H1153 0.929 . S
C1126 C1125 1.386 . S
C1126 C1127 1.373 1_545 S
C1127 C1126 1.373 1_565 S
C1127 C1128 1.409 . S
C1127 H1154 0.931 . S
C1128 C1123 1.356 1_565 S
C1128 C1127 1.409 . S
C1128 H1155 0.930 . S
C1129 O1142 1.270 . S
C1129 O1143 1.221 1_565 S
C1130 O1144 1.267 . S
C1130 O1145 1.278 . S
C1131 Pr1121 2.880 . S
C1131 C1132 1.491 . S
C1131 O1146 1.254 . S
C1131 O1147 1.225 . S
C1132 C1131 1.491 . S
C1132 C1133 1.392 . S
C1132 C1137 1.356 . S
C1133 C1132 1.392 . S
C1133 C1134 1.368 . S
C1133 H1156 0.929 . S
C1134 C1133 1.368 . S
C1134 C1135 1.386 . S
C1134 H1157 0.929 . S
C1135 C1134 1.386 . S
C1135 C1136 1.373 . S
C1136 C1135 1.373 . S
C1136 C1137 1.409 . S
C1136 H1158 0.931 . S
C1137 C1132 1.356 . S
C1137 C1136 1.409 . S
C1137 H1159 0.930 . S
C1138 O1148 1.270 . S
C1138 O1149 1.248 . S
C1139 O1150 1.267 . S
C1139 O1151 1.278 . S
O1140 Pr1120 2.562 . S
O1140 C1122 1.254 . S
O1141 Pr1120 2.490 1_545 S
O1141 C1122 1.225 1_545 S
O1142 Pr1120 2.695 . S
O1142 Pr1121 2.436 . S
O1142 C1129 1.270 . S
O1143 Pr1120 2.497 1_545 S
O1143 C1129 1.221 1_545 S
O1144 Pr1121 2.438 . S
O1144 C1130 1.267 . S
O1145 Pr1120 2.437 . S
O1145 C1130 1.278 . S
O1146 Pr1121 2.562 . S
O1146 C1131 1.254 . S
O1147 Pr1121 2.490 . S
O1147 C1131 1.225 . S
O1148 Pr1120 2.436 . S
O1148 Pr1121 2.695 . S
O1148 C1138 1.270 . S
O1149 Pr1121 2.512 . S
O1149 C1138 1.248 . S
O1150 Pr1120 2.438 . S
O1150 C1139 1.267 . S
O1151 Pr1121 2.437 . S
O1151 C1139 1.278 . S
H1152 C1124 0.929 . S
H1153 C1125 0.929 . S
H1154 C1127 0.931 . S
H1155 C1128 0.930 . S
H1156 C1133 0.929 . S
H1157 C1134 0.929 . S
H1158 C1136 0.931 . S
H1159 C1137 0.930 . S
Pr1160 C1162 2.880 . S
Pr1160 O1180 2.562 . S
Pr1160 O1181 2.490 . S
Pr1160 O1182 2.695 . S
Pr1160 O1183 2.512 . S
Pr1160 O1185 2.437 . S
Pr1160 O1188 2.436 . S
Pr1160 O1190 2.438 . S
Pr1161 C1171 2.880 . S
Pr1161 O1182 2.436 . S
Pr1161 O1184 2.438 . S
Pr1161 O1186 2.562 . S
Pr1161 O1187 2.490 . S
Pr1161 O1188 2.695 . S
Pr1161 O1189 2.512 . S
Pr1161 O1191 2.437 . S
C1162 Pr1160 2.880 . S
C1162 C1163 1.491 1_556 S
C1162 O1180 1.254 . S
C1162 O1181 1.225 . S
C1163 C1162 1.491 1_554 S
C1163 C1164 1.392 . S
C1163 C1168 1.356 . S
C1164 C1163 1.392 . S
C1164 C1165 1.368 . S
C1164 H1192 0.929 . S
C1165 C1164 1.368 . S
C1165 C1166 1.386 . S
C1165 H1193 0.929 . S
C1166 C1165 1.386 . S
C1166 C1167 1.373 . S
C1167 C1166 1.373 . S
C1167 C1168 1.409 . S
C1167 H1194 0.931 . S
C1168 C1163 1.356 . S
C1168 C1167 1.409 . S
C1168 H1195 0.930 . S
C1169 O1182 1.270 . S
C1169 O1183 1.248 . S
C1170 O1184 1.267 . S
C1170 O1185 1.278 . S
C1171 Pr1161 2.880 . S
C1171 C1172 1.491 . S
C1171 O1186 1.254 . S
C1171 O1187 1.225 . S
C1172 C1171 1.491 . S
C1172 C1173 1.392 . S
C1172 C1177 1.356 . S
C1173 C1172 1.392 . S
C1173 C1174 1.368 . S
C1173 H1196 0.929 . S
C1174 C1173 1.368 . S
C1174 C1175 1.386 . S
C1174 H1197 0.929 . S
C1175 C1174 1.386 . S
C1175 C1176 1.373 . S
C1176 C1175 1.373 . S
C1176 C1177 1.409 . S
C1176 H1198 0.931 . S
C1177 C1172 1.356 . S
C1177 C1176 1.409 . S
C1177 H1199 0.930 . S
C1178 O1188 1.270 . S
C1178 O1189 1.248 . S
C1179 O1190 1.267 . S
C1179 O1191 1.278 . S
O1180 Pr1160 2.562 . S
O1180 C1162 1.254 . S
O1181 Pr1160 2.490 . S
O1181 C1162 1.225 . S
O1182 Pr1160 2.695 . S
O1182 Pr1161 2.436 . S
O1182 C1169 1.270 . S
O1183 Pr1160 2.512 . S
O1183 C1169 1.248 . S
O1184 Pr1161 2.438 . S
O1184 C1170 1.267 . S
O1185 Pr1160 2.437 . S
O1185 C1170 1.278 . S
O1186 Pr1161 2.562 . S
O1186 C1171 1.254 . S
O1187 Pr1161 2.490 . S
O1187 C1171 1.225 . S
O1188 Pr1160 2.436 . S
O1188 Pr1161 2.695 . S
O1188 C1178 1.270 . S
O1189 Pr1161 2.512 . S
O1189 C1178 1.248 . S
O1190 Pr1160 2.438 . S
O1190 C1179 1.267 . S
O1191 Pr1161 2.437 . S
O1191 C1179 1.278 . S
H1192 C1164 0.929 . S
H1193 C1165 0.929 . S
H1194 C1167 0.931 . S
H1195 C1168 0.930 . S
H1196 C1173 0.929 . S
H1197 C1174 0.929 . S
H1198 C1176 0.931 . S
H1199 C1177 0.930 . S
Pr1200 C1202 2.880 . S
Pr1200 O1220 2.562 . S
Pr1200 O1221 2.490 1_545 S
Pr1200 O1222 2.695 . S
Pr1200 O1223 2.512 . S
Pr1200 O1225 2.437 . S
Pr1200 O1228 2.436 . S
Pr1200 O1230 2.438 . S
Pr1201 C1211 2.880 . S
Pr1201 O1222 2.436 . S
Pr1201 O1224 2.438 . S
Pr1201 O1226 2.562 . S
Pr1201 O1227 2.490 . S
Pr1201 O1228 2.695 . S
Pr1201 O1229 2.512 . S
Pr1201 O1231 2.437 . S
C1202 Pr1200 2.880 . S
C1202 C1203 1.491 . S
C1202 O1220 1.254 . S
C1202 O1221 1.225 1_545 S
C1203 C1202 1.491 . S
C1203 C1204 1.392 1_545 S
C1203 C1208 1.356 . S
C1204 C1203 1.392 1_565 S
C1204 C1205 1.368 . S
C1204 H1232 0.929 . S
C1205 C1204 1.368 . S
C1205 C1206 1.386 . S
C1205 H1233 0.929 . S
C1206 C1205 1.386 . S
C1206 C1207 1.373 1_565 S
C1207 C1206 1.373 1_545 S
C1207 C1208 1.409 . S
C1207 H1234 0.931 . S
C1208 C1203 1.356 . S
C1208 C1207 1.409 . S
C1208 H1235 0.930 . S
C1209 O1222 1.270 . S
C1209 O1223 1.248 . S
C1210 O1224 1.267 . S
C1210 O1225 1.278 . S
C1211 Pr1201 2.880 . S
C1211 C1212 1.491 . S
C1211 O1226 1.254 . S
C1211 O1227 1.225 . S
C1212 C1211 1.491 . S
C1212 C1213 1.392 . S
C1212 C1217 1.356 . S
C1213 C1212 1.392 . S
C1213 C1214 1.368 . S
C1213 H1236 0.929 . S
C1214 C1213 1.368 . S
C1214 C1215 1.386 . S
C1214 H1237 0.929 . S
C1215 C1214 1.386 . S
C1215 C1216 1.373 . S
C1216 C1215 1.373 . S
C1216 C1217 1.409 . S
C1216 H1238 0.931 . S
C1217 C1212 1.356 . S
C1217 C1216 1.409 . S
C1217 H1239 0.930 . S
C1218 O1228 1.270 . S
C1218 O1229 1.248 . S
C1219 O1230 1.267 . S
C1219 O1231 1.278 . S
O1220 Pr1200 2.562 . S
O1220 C1202 1.254 . S
O1221 Pr1200 2.490 1_565 S
O1221 C1202 1.225 1_565 S
O1222 Pr1200 2.695 . S
O1222 Pr1201 2.436 . S
O1222 C1209 1.270 . S
O1223 Pr1200 2.512 . S
O1223 C1209 1.248 . S
O1224 Pr1201 2.438 . S
O1224 C1210 1.267 . S
O1225 Pr1200 2.437 . S
O1225 C1210 1.278 . S
O1226 Pr1201 2.562 . S
O1226 C1211 1.254 . S
O1227 Pr1201 2.490 . S
O1227 C1211 1.225 . S
O1228 Pr1200 2.436 . S
O1228 Pr1201 2.695 . S
O1228 C1218 1.270 . S
O1229 Pr1201 2.512 . S
O1229 C1218 1.248 . S
O1230 Pr1200 2.438 . S
O1230 C1219 1.267 . S
O1231 Pr1201 2.437 . S
O1231 C1219 1.278 . S
H1232 C1204 0.929 . S
H1233 C1205 0.929 . S
H1234 C1207 0.931 . S
H1235 C1208 0.930 . S
H1236 C1213 0.929 . S
H1237 C1214 0.929 . S
H1238 C1216 0.931 . S
H1239 C1217 0.930 . S
Pr1240 C1242 2.880 . S
Pr1240 O1260 2.562 . S
Pr1240 O1261 2.490 . S
Pr1240 O1262 2.695 . S
Pr1240 O1263 2.512 . S
Pr1240 O1265 2.437 . S
Pr1240 O1268 2.436 . S
Pr1240 O1270 2.438 . S
Pr1241 C1251 2.880 . S
Pr1241 O1262 2.436 . S
Pr1241 O1264 2.438 . S
Pr1241 O1266 2.562 . S
Pr1241 O1267 2.490 . S
Pr1241 O1268 2.695 . S
Pr1241 O1269 2.512 . S
Pr1241 O1271 2.437 . S
C1242 Pr1240 2.880 . S
C1242 C1243 1.491 . S
C1242 O1260 1.254 . S
C1242 O1261 1.225 . S
C1243 C1242 1.491 . S
C1243 C1244 1.392 . S
C1243 C1248 1.356 . S
C1244 C1243 1.392 . S
C1244 C1245 1.368 . S
C1244 H1272 0.929 . S
C1245 C1244 1.368 . S
C1245 C1246 1.386 . S
C1245 H1273 0.929 . S
C1246 C1245 1.386 . S
C1246 C1247 1.373 . S
C1247 C1246 1.373 . S
C1247 C1248 1.409 . S
C1247 H1274 0.931 . S
C1248 C1243 1.356 . S
C1248 C1247 1.409 . S
C1248 H1275 0.930 . S
C1249 O1262 1.270 . S
C1249 O1263 1.248 . S
C1250 O1264 1.267 . S
C1250 O1265 1.278 . S
C1251 Pr1241 2.880 . S
C1251 C1252 1.491 . S
C1251 O1266 1.254 . S
C1251 O1267 1.225 . S
C1252 C1251 1.491 . S
C1252 C1253 1.392 . S
C1252 C1257 1.356 . S
C1253 C1252 1.392 . S
C1253 C1254 1.368 . S
C1253 H1276 0.929 . S
C1254 C1253 1.368 . S
C1254 C1255 1.386 . S
C1254 H1277 0.929 . S
C1255 C1254 1.386 . S
C1255 C1256 1.373 . S
C1256 C1255 1.373 . S
C1256 C1257 1.409 . S
C1256 H1278 0.931 . S
C1257 C1252 1.356 . S
C1257 C1256 1.409 . S
C1257 H1279 0.930 . S
C1258 O1268 1.270 . S
C1258 O1269 1.248 . S
C1259 O1270 1.267 . S
C1259 O1271 1.278 . S
O1260 Pr1240 2.562 . S
O1260 C1242 1.254 . S
O1261 Pr1240 2.490 . S
O1261 C1242 1.225 . S
O1262 Pr1240 2.695 . S
O1262 Pr1241 2.436 . S
O1262 C1249 1.270 . S
O1263 Pr1240 2.512 . S
O1263 C1249 1.248 . S
O1264 Pr1241 2.438 . S
O1264 C1250 1.267 . S
O1265 Pr1240 2.437 . S
O1265 C1250 1.278 . S
O1266 Pr1241 2.562 . S
O1266 C1251 1.254 . S
O1267 Pr1241 2.490 . S
O1267 C1251 1.225 . S
O1268 Pr1240 2.436 . S
O1268 Pr1241 2.695 . S
O1268 C1258 1.270 . S
O1269 Pr1241 2.512 . S
O1269 C1258 1.248 . S
O1270 Pr1240 2.438 . S
O1270 C1259 1.267 . S
O1271 Pr1241 2.437 . S
O1271 C1259 1.278 . S
H1272 C1244 0.929 . S
H1273 C1245 0.929 . S
H1274 C1247 0.931 . S
H1275 C1248 0.930 . S
H1276 C1253 0.929 . S
H1277 C1254 0.929 . S
H1278 C1256 0.931 . S
H1279 C1257 0.930 . S
H1280 C1288 0.950 . S
H1281 C1293 0.950 . S
H1282 C1290 0.950 . S
H1283 C1292 0.950 . S
H1284 C1294 0.950 . S
H1285 C1296 0.950 . S
H1286 C1298 0.950 . S
H1287 C1299 0.950 . S
C1288 H1280 0.950 . S
C1288 C1289 1.386 . S
C1288 C1290 1.391 . S
C1289 C1288 1.386 . S
C1289 C1293 1.393 . S
C1290 H1282 0.950 . S
C1290 C1288 1.391 . S
C1290 C1291 1.400 . S
C1291 C1290 1.400 . S
C1291 C1292 1.398 . S
C1291 C1297 1.491 . S
C1292 H1283 0.950 . S
C1292 C1291 1.398 . S
C1292 C1293 1.391 . S
C1293 H1281 0.950 . S
C1293 C1289 1.393 . S
C1293 C1292 1.391 . S
C1294 H1284 0.950 . S
C1294 C1295 1.386 . S
C1294 C1296 1.391 . S
C1295 C1294 1.386 . S
C1295 C1299 1.393 . S
C1296 H1285 0.950 . S
C1296 C1294 1.391 . S
C1296 C1297 1.400 . S
C1297 C1291 1.491 . S
C1297 C1296 1.400 . S
C1297 C1298 1.398 . S
C1298 H1286 0.950 . S
C1298 C1297 1.398 . S
C1298 C1299 1.391 . S
C1299 H1287 0.950 . S
C1299 C1295 1.393 . S
C1299 C1298 1.391 . S
H1300 C1308 0.950 . S
H1301 C1313 0.950 . S
H1302 C1310 0.950 . S
H1303 C1312 0.950 . S
H1304 C1314 0.950 . S
H1305 C1316 0.950 . S
H1306 C1318 0.950 . S
H1307 C1319 0.950 . S
C1308 H1300 0.950 . S
C1308 C1309 1.386 . S
C1308 C1310 1.391 . S
C1309 C1308 1.386 . S
C1309 C1313 1.393 . S
C1310 H1302 0.950 . S
C1310 C1308 1.391 . S
C1310 C1311 1.400 . S
C1311 C1310 1.400 . S
C1311 C1312 1.398 . S
C1311 C1317 1.491 . S
C1312 H1303 0.950 . S
C1312 C1311 1.398 . S
C1312 C1313 1.391 . S
C1313 H1301 0.950 . S
C1313 C1309 1.393 . S
C1313 C1312 1.391 . S
C1314 H1304 0.950 . S
C1314 C1315 1.386 . S
C1314 C1316 1.391 . S
C1315 C1314 1.386 . S
C1315 C1319 1.393 . S
C1316 H1305 0.950 . S
C1316 C1314 1.391 . S
C1316 C1317 1.400 . S
C1317 C1311 1.491 . S
C1317 C1316 1.400 . S
C1317 C1318 1.398 . S
C1318 H1306 0.950 . S
C1318 C1317 1.398 . S
C1318 C1319 1.391 . S
C1319 H1307 0.950 . S
C1319 C1315 1.393 . S
C1319 C1318 1.391 . S
H1320 C1328 0.950 . S
H1321 C1333 0.950 . S
H1322 C1330 0.950 . S
H1323 C1332 0.950 . S
H1324 C1334 0.950 . S
H1325 C1336 0.950 . S
H1326 C1338 0.950 . S
H1327 C1339 0.950 . S
C1328 H1320 0.950 . S
C1328 C1329 1.386 . S
C1328 C1330 1.391 . S
C1329 C1328 1.386 . S
C1329 C1333 1.393 . S
C1330 H1322 0.950 . S
C1330 C1328 1.391 . S
C1330 C1331 1.400 . S
C1331 C1330 1.400 . S
C1331 C1332 1.398 . S
C1331 C1337 1.491 . S
C1332 H1323 0.950 . S
C1332 C1331 1.398 . S
C1332 C1333 1.391 . S
C1333 H1321 0.950 . S
C1333 C1329 1.393 . S
C1333 C1332 1.391 . S
C1334 H1324 0.950 . S
C1334 C1335 1.386 . S
C1334 C1336 1.391 . S
C1335 C1334 1.386 . S
C1335 C1339 1.393 . S
C1336 H1325 0.950 . S
C1336 C1334 1.391 . S
C1336 C1337 1.400 . S
C1337 C1331 1.491 . S
C1337 C1336 1.400 . S
C1337 C1338 1.398 . S
C1338 H1326 0.950 . S
C1338 C1337 1.398 . S
C1338 C1339 1.391 . S
C1339 H1327 0.950 . S
C1339 C1335 1.393 . S
C1339 C1338 1.391 . S
H1340 C1348 0.950 . S
H1341 C1353 0.950 . S
H1342 C1350 0.950 . S
H1343 C1352 0.950 . S
H1344 C1354 0.950 . S
H1345 C1356 0.950 1_554 S
H1346 C1358 0.950 . S
H1347 C1359 0.950 . S
C1348 H1340 0.950 . S
C1348 C1349 1.386 . S
C1348 C1350 1.391 . S
C1349 C1348 1.386 . S
C1349 C1353 1.393 . S
C1350 H1342 0.950 . S
C1350 C1348 1.391 . S
C1350 C1351 1.400 . S
C1351 C1350 1.400 . S
C1351 C1352 1.398 . S
C1351 C1357 1.491 . S
C1352 H1343 0.950 . S
C1352 C1351 1.398 . S
C1352 C1353 1.391 . S
C1353 H1341 0.950 . S
C1353 C1349 1.393 . S
C1353 C1352 1.391 . S
C1354 H1344 0.950 . S
C1354 C1355 1.386 . S
C1354 C1356 1.391 . S
C1355 C1354 1.386 . S
C1355 C1359 1.393 . S
C1356 H1345 0.950 1_556 S
C1356 C1354 1.391 . S
C1356 C1357 1.400 1_556 S
C1357 C1351 1.491 . S
C1357 C1356 1.400 1_554 S
C1357 C1358 1.398 1_554 S
C1358 H1346 0.950 . S
C1358 C1357 1.398 1_556 S
C1358 C1359 1.391 . S
C1359 H1347 0.950 . S
C1359 C1355 1.393 . S
C1359 C1358 1.391 . S
H1360 C1368 0.950 . S
H1361 C1373 0.950 . S
H1362 C1370 0.950 . S
H1363 C1372 0.950 . S
H1364 C1374 0.950 . S
H1365 C1376 0.950 . S
H1366 C1378 0.950 1_554 S
H1367 C1379 0.950 . S
C1368 H1360 0.950 . S
C1368 C1369 1.386 . S
C1368 C1370 1.391 . S
C1369 C1368 1.386 . S
C1369 C1373 1.393 . S
C1370 H1362 0.950 . S
C1370 C1368 1.391 . S
C1370 C1371 1.400 . S
C1371 C1370 1.400 . S
C1371 C1372 1.398 . S
C1371 C1377 1.491 . S
C1372 H1363 0.950 . S
C1372 C1371 1.398 . S
C1372 C1373 1.391 . S
C1373 H1361 0.950 . S
C1373 C1369 1.393 . S
C1373 C1372 1.391 . S
C1374 H1364 0.950 . S
C1374 C1375 1.386 . S
C1374 C1376 1.391 . S
C1375 C1374 1.386 . S
C1375 C1379 1.393 . S
C1376 H1365 0.950 . S
C1376 C1374 1.391 . S
C1376 C1377 1.400 1_556 S
C1377 C1371 1.491 . S
C1377 C1376 1.400 1_554 S
C1377 C1378 1.398 1_554 S
C1378 H1366 0.950 1_556 S
C1378 C1377 1.398 1_556 S
C1378 C1379 1.391 . S
C1379 H1367 0.950 . S
C1379 C1375 1.393 . S
C1379 C1378 1.391 . S
H1380 C1388 0.950 . S
H1381 C1393 0.950 . S
H1382 C1390 0.950 . S
H1383 C1392 0.950 . S
H1384 C1394 0.950 . S
H1385 C1396 0.950 . S
H1386 C1398 0.950 . S
H1387 C1399 0.950 . S
C1388 H1380 0.950 . S
C1388 C1389 1.386 . S
C1388 C1390 1.391 . S
C1389 C1388 1.386 . S
C1389 C1393 1.393 . S
C1390 H1382 0.950 . S
C1390 C1388 1.391 . S
C1390 C1391 1.400 . S
C1391 C1390 1.400 . S
C1391 C1392 1.398 . S
C1391 C1397 1.491 . S
C1392 H1383 0.950 . S
C1392 C1391 1.398 . S
C1392 C1393 1.391 . S
C1393 H1381 0.950 . S
C1393 C1389 1.393 . S
C1393 C1392 1.391 . S
C1394 H1384 0.950 . S
C1394 C1395 1.386 . S
C1394 C1396 1.391 . S
C1395 C1394 1.386 . S
C1395 C1399 1.393 . S
C1396 H1385 0.950 . S
C1396 C1394 1.391 . S
C1396 C1397 1.400 . S
C1397 C1391 1.491 . S
C1397 C1396 1.400 . S
C1397 C1398 1.398 . S
C1398 H1386 0.950 . S
C1398 C1397 1.398 . S
C1398 C1399 1.391 . S
C1399 H1387 0.950 . S
C1399 C1395 1.393 . S
C1399 C1398 1.391 . S
H1400 C1408 0.950 . S
H1401 C1413 0.950 . S
H1402 C1410 0.950 . S
H1403 C1412 0.950 . S
H1404 C1414 0.950 . S
H1405 C1416 0.950 . S
H1406 C1418 0.950 . S
H1407 C1419 0.950 . S
C1408 H1400 0.950 . S
C1408 C1409 1.386 . S
C1408 C1410 1.391 . S
C1409 C1408 1.386 . S
C1409 C1413 1.393 . S
C1410 H1402 0.950 . S
C1410 C1408 1.391 . S
C1410 C1411 1.400 . S
C1411 C1410 1.400 . S
C1411 C1412 1.398 . S
C1411 C1417 1.491 . S
C1412 H1403 0.950 . S
C1412 C1411 1.398 . S
C1412 C1413 1.391 . S
C1413 H1401 0.950 . S
C1413 C1409 1.393 . S
C1413 C1412 1.391 . S
C1414 H1404 0.950 . S
C1414 C1415 1.386 . S
C1414 C1416 1.391 . S
C1415 C1414 1.386 . S
C1415 C1419 1.393 . S
C1416 H1405 0.950 . S
C1416 C1414 1.391 . S
C1416 C1417 1.400 . S
C1417 C1411 1.491 . S
C1417 C1416 1.400 . S
C1417 C1418 1.398 . S
C1418 H1406 0.950 . S
C1418 C1417 1.398 . S
C1418 C1419 1.391 . S
C1419 H1407 0.950 . S
C1419 C1415 1.393 . S
C1419 C1418 1.391 . S
H1420 C1428 0.950 . S
H1421 C1433 0.950 . S
H1422 C1430 0.950 . S
H1423 C1432 0.950 . S
H1424 C1434 0.950 . S
H1425 C1436 0.950 . S
H1426 C1438 0.950 . S
H1427 C1439 0.950 . S
C1428 H1420 0.950 . S
C1428 C1429 1.386 . S
C1428 C1430 1.391 . S
C1429 C1428 1.386 . S
C1429 C1433 1.393 . S
C1430 H1422 0.950 . S
C1430 C1428 1.391 . S
C1430 C1431 1.400 . S
C1431 C1430 1.400 . S
C1431 C1432 1.398 . S
C1431 C1437 1.491 . S
C1432 H1423 0.950 . S
C1432 C1431 1.398 . S
C1432 C1433 1.391 . S
C1433 H1421 0.950 . S
C1433 C1429 1.393 . S
C1433 C1432 1.391 . S
C1434 H1424 0.950 . S
C1434 C1435 1.386 . S
C1434 C1436 1.391 . S
C1435 C1434 1.386 . S
C1435 C1439 1.393 . S
C1436 H1425 0.950 . S
C1436 C1434 1.391 . S
C1436 C1437 1.400 . S
C1437 C1431 1.491 . S
C1437 C1436 1.400 . S
C1437 C1438 1.398 . S
C1438 H1426 0.950 . S
C1438 C1437 1.398 . S
C1438 C1439 1.391 . S
C1439 H1427 0.950 . S
C1439 C1435 1.393 . S
C1439 C1438 1.391 . S
H1440 C1448 0.950 1_545 S
H1441 C1453 0.950 . S
H1442 C1450 0.950 . S
H1443 C1452 0.950 . S
H1444 C1454 0.950 . S
H1445 C1456 0.950 . S
H1446 C1458 0.950 . S
H1447 C1459 0.950 . S
C1448 H1440 0.950 1_565 S
C1448 C1449 1.386 . S
C1448 C1450 1.391 . S
C1449 C1448 1.386 . S
C1449 C1453 1.393 . S
C1450 H1442 0.950 . S
C1450 C1448 1.391 . S
C1450 C1451 1.400 . S
C1451 C1450 1.400 . S
C1451 C1452 1.398 . S
C1451 C1457 1.491 . S
C1452 H1443 0.950 . S
C1452 C1451 1.398 . S
C1452 C1453 1.391 . S
C1453 H1441 0.950 . S
C1453 C1449 1.393 . S
C1453 C1452 1.391 . S
C1454 H1444 0.950 . S
C1454 C1455 1.386 . S
C1454 C1456 1.391 . S
C1455 C1454 1.386 . S
C1455 C1459 1.393 . S
C1456 H1445 0.950 . S
C1456 C1454 1.391 . S
C1456 C1457 1.400 . S
C1457 C1451 1.491 . S
C1457 C1456 1.400 . S
C1457 C1458 1.398 . S
C1458 H1446 0.950 . S
C1458 C1457 1.398 . S
C1458 C1459 1.391 . S
C1459 H1447 0.950 . S
C1459 C1455 1.393 . S
C1459 C1458 1.391 . S
H1460 C1468 0.950 . S
H1461 C1473 0.950 . S
H1462 C1470 0.950 . S
H1463 C1472 0.950 . S
H1464 C1474 0.950 . S
H1465 C1476 0.950 . S
H1466 C1478 0.950 . S
H1467 C1479 0.950 . S
C1468 H1460 0.950 . S
C1468 C1469 1.386 . S
C1468 C1470 1.391 . S
C1469 C1468 1.386 . S
C1469 C1473 1.393 . S
C1470 H1462 0.950 . S
C1470 C1468 1.391 . S
C1470 C1471 1.400 . S
C1471 C1470 1.400 . S
C1471 C1472 1.398 . S
C1471 C1477 1.491 . S
C1472 H1463 0.950 . S
C1472 C1471 1.398 . S
C1472 C1473 1.391 . S
C1473 H1461 0.950 . S
C1473 C1469 1.393 . S
C1473 C1472 1.391 . S
C1474 H1464 0.950 . S
C1474 C1475 1.386 . S
C1474 C1476 1.391 . S
C1475 C1474 1.386 . S
C1475 C1479 1.393 . S
C1476 H1465 0.950 . S
C1476 C1474 1.391 . S
C1476 C1477 1.400 . S
C1477 C1471 1.491 . S
C1477 C1476 1.400 . S
C1477 C1478 1.398 . S
C1478 H1466 0.950 . S
C1478 C1477 1.398 . S
C1478 C1479 1.391 . S
C1479 H1467 0.950 . S
C1479 C1475 1.393 . S
C1479 C1478 1.391 . S
H1480 C1488 0.950 . S
H1481 C1493 0.950 . S
H1482 C1490 0.950 . S
H1483 C1492 0.950 . S
H1484 C1494 0.950 1_565 S
H1485 C1496 0.950 . S
H1486 C1498 0.950 . S
H1487 C1499 0.950 . S
C1488 H1480 0.950 . S
C1488 C1489 1.386 . S
C1488 C1490 1.391 . S
C1489 C1488 1.386 . S
C1489 C1493 1.393 . S
C1490 H1482 0.950 . S
C1490 C1488 1.391 . S
C1490 C1491 1.400 . S
C1491 C1490 1.400 . S
C1491 C1492 1.398 . S
C1491 C1497 1.491 . S
C1492 H1483 0.950 . S
C1492 C1491 1.398 . S
C1492 C1493 1.391 . S
C1493 H1481 0.950 . S
C1493 C1489 1.393 . S
C1493 C1492 1.391 . S
C1494 H1484 0.950 1_545 S
C1494 C1495 1.386 . S
C1494 C1496 1.391 . S
C1495 C1494 1.386 . S
C1495 C1499 1.393 . S
C1496 H1485 0.950 . S
C1496 C1494 1.391 . S
C1496 C1497 1.400 . S
C1497 C1491 1.491 . S
C1497 C1496 1.400 . S
C1497 C1498 1.398 . S
C1498 H1486 0.950 . S
C1498 C1497 1.398 . S
C1498 C1499 1.391 . S
C1499 H1487 0.950 . S
C1499 C1495 1.393 . S
C1499 C1498 1.391 . S
H1500 C1508 0.950 . S
H1501 C1513 0.950 . S
H1502 C1510 0.950 . S
H1503 C1512 0.950 . S
H1504 C1514 0.950 . S
H1505 C1516 0.950 . S
H1506 C1518 0.950 . S
H1507 C1519 0.950 . S
C1508 H1500 0.950 . S
C1508 C1509 1.386 . S
C1508 C1510 1.391 . S
C1509 C1508 1.386 . S
C1509 C1513 1.393 . S
C1510 H1502 0.950 . S
C1510 C1508 1.391 . S
C1510 C1511 1.400 . S
C1511 C1510 1.400 . S
C1511 C1512 1.398 . S
C1511 C1517 1.491 . S
C1512 H1503 0.950 . S
C1512 C1511 1.398 . S
C1512 C1513 1.391 . S
C1513 H1501 0.950 . S
C1513 C1509 1.393 . S
C1513 C1512 1.391 . S
C1514 H1504 0.950 . S
C1514 C1515 1.386 . S
C1514 C1516 1.391 . S
C1515 C1514 1.386 . S
C1515 C1519 1.393 . S
C1516 H1505 0.950 . S
C1516 C1514 1.391 . S
C1516 C1517 1.400 . S
C1517 C1511 1.491 . S
C1517 C1516 1.400 . S
C1517 C1518 1.398 . S
C1518 H1506 0.950 . S
C1518 C1517 1.398 . S
C1518 C1519 1.391 . S
C1519 H1507 0.950 . S
C1519 C1515 1.393 . S
C1519 C1518 1.391 . S
H1520 C1528 0.950 . S
H1521 C1533 0.950 . S
H1522 C1530 0.950 . S
H1523 C1532 0.950 . S
H1524 C1534 0.950 . S
H1525 C1536 0.950 . S
H1526 C1538 0.950 . S
H1527 C1539 0.950 1_565 S
C1528 H1520 0.950 . S
C1528 C1529 1.386 . S
C1528 C1530 1.391 . S
C1529 C1528 1.386 . S
C1529 C1533 1.393 . S
C1530 H1522 0.950 . S
C1530 C1528 1.391 . S
C1530 C1531 1.400 . S
C1531 C1530 1.400 . S
C1531 C1532 1.398 . S
C1531 C1537 1.491 . S
C1532 H1523 0.950 . S
C1532 C1531 1.398 . S
C1532 C1533 1.391 . S
C1533 H1521 0.950 . S
C1533 C1529 1.393 . S
C1533 C1532 1.391 . S
C1534 H1524 0.950 . S
C1534 C1535 1.386 . S
C1534 C1536 1.391 . S
C1535 C1534 1.386 . S
C1535 C1539 1.393 . S
C1536 H1525 0.950 . S
C1536 C1534 1.391 . S
C1536 C1537 1.400 . S
C1537 C1531 1.491 . S
C1537 C1536 1.400 . S
C1537 C1538 1.398 . S
C1538 H1526 0.950 . S
C1538 C1537 1.398 . S
C1538 C1539 1.391 . S
C1539 H1527 0.950 1_545 S
C1539 C1535 1.393 . S
C1539 C1538 1.391 . S
H1540 C1548 0.950 . S
H1541 C1553 0.950 . S
H1542 C1550 0.950 . S
H1543 C1552 0.950 . S
H1544 C1554 0.950 . S
H1545 C1556 0.950 . S
H1546 C1558 0.950 . S
H1547 C1559 0.950 . S
C1548 H1540 0.950 . S
C1548 C1549 1.386 . S
C1548 C1550 1.391 . S
C1549 C1548 1.386 . S
C1549 C1553 1.393 . S
C1550 H1542 0.950 . S
C1550 C1548 1.391 . S
C1550 C1551 1.400 . S
C1551 C1550 1.400 . S
C1551 C1552 1.398 . S
C1551 C1557 1.491 . S
C1552 H1543 0.950 . S
C1552 C1551 1.398 . S
C1552 C1553 1.391 . S
C1553 H1541 0.950 . S
C1553 C1549 1.393 . S
C1553 C1552 1.391 . S
C1554 H1544 0.950 . S
C1554 C1555 1.386 . S
C1554 C1556 1.391 . S
C1555 C1554 1.386 . S
C1555 C1559 1.393 . S
C1556 H1545 0.950 . S
C1556 C1554 1.391 . S
C1556 C1557 1.400 . S
C1557 C1551 1.491 . S
C1557 C1556 1.400 . S
C1557 C1558 1.398 . S
C1558 H1546 0.950 . S
C1558 C1557 1.398 . S
C1558 C1559 1.391 . S
C1559 H1547 0.950 . S
C1559 C1555 1.393 . S
C1559 C1558 1.391 . S
H1560 C1568 0.950 . S
H1561 C1573 0.950 . S
H1562 C1570 0.950 . S
H1563 C1572 0.950 . S
H1564 C1574 0.950 1_545 S
H1565 C1576 0.950 . S
H1566 C1578 0.950 1_554 S
H1567 C1579 0.950 . S
C1568 H1560 0.950 . S
C1568 C1569 1.386 . S
C1568 C1570 1.391 . S
C1569 C1568 1.386 . S
C1569 C1573 1.393 . S
C1570 H1562 0.950 . S
C1570 C1568 1.391 . S
C1570 C1571 1.400 . S
C1571 C1570 1.400 . S
C1571 C1572 1.398 . S
C1571 C1577 1.491 . S
C1572 H1563 0.950 . S
C1572 C1571 1.398 . S
C1572 C1573 1.391 . S
C1573 H1561 0.950 . S
C1573 C1569 1.393 . S
C1573 C1572 1.391 . S
C1574 H1564 0.950 1_565 S
C1574 C1575 1.386 . S
C1574 C1576 1.391 1_556 S
C1575 C1574 1.386 . S
C1575 C1579 1.393 . S
C1576 H1565 0.950 . S
C1576 C1574 1.391 1_554 S
C1576 C1577 1.400 . S
C1577 C1571 1.491 . S
C1577 C1576 1.400 . S
C1577 C1578 1.398 1_554 S
C1578 H1566 0.950 1_556 S
C1578 C1577 1.398 1_556 S
C1578 C1579 1.391 . S
C1579 H1567 0.950 . S
C1579 C1575 1.393 . S
C1579 C1578 1.391 . S
H1580 C1588 0.950 . S
H1581 C1593 0.950 . S
H1582 C1590 0.950 . S
H1583 C1592 0.950 . S
H1584 C1594 0.950 . S
H1585 C1596 0.950 . S
H1586 C1598 0.950 . S
H1587 C1599 0.950 . S
C1588 H1580 0.950 . S
C1588 C1589 1.386 . S
C1588 C1590 1.391 . S
C1589 C1588 1.386 . S
C1589 C1593 1.393 . S
C1590 H1582 0.950 . S
C1590 C1588 1.391 . S
C1590 C1591 1.400 . S
C1591 C1590 1.400 . S
C1591 C1592 1.398 . S
C1591 C1597 1.491 . S
C1592 H1583 0.950 . S
C1592 C1591 1.398 . S
C1592 C1593 1.391 . S
C1593 H1581 0.950 . S
C1593 C1589 1.393 . S
C1593 C1592 1.391 . S
C1594 H1584 0.950 . S
C1594 C1595 1.386 . S
C1594 C1596 1.391 . S
C1595 C1594 1.386 . S
C1595 C1599 1.393 . S
C1596 H1585 0.950 . S
C1596 C1594 1.391 . S
C1596 C1597 1.400 . S
C1597 C1591 1.491 . S
C1597 C1596 1.400 . S
C1597 C1598 1.398 . S
C1598 H1586 0.950 . S
C1598 C1597 1.398 . S
C1598 C1599 1.391 . S
C1599 H1587 0.950 . S
C1599 C1595 1.393 . S
C1599 C1598 1.391 . S
H1600 C1608 0.950 . S
H1601 C1613 0.950 . S
H1602 C1610 0.950 . S
H1603 C1612 0.950 . S
H1604 C1614 0.950 . S
H1605 C1616 0.950 . S
H1606 C1618 0.950 . S
H1607 C1619 0.950 . S
C1608 H1600 0.950 . S
C1608 C1609 1.386 . S
C1608 C1610 1.391 . S
C1609 C1608 1.386 . S
C1609 C1613 1.393 . S
C1610 H1602 0.950 . S
C1610 C1608 1.391 . S
C1610 C1611 1.400 . S
C1611 C1610 1.400 . S
C1611 C1612 1.398 . S
C1611 C1617 1.491 . S
C1612 H1603 0.950 . S
C1612 C1611 1.398 . S
C1612 C1613 1.391 . S
C1613 H1601 0.950 . S
C1613 C1609 1.393 . S
C1613 C1612 1.391 . S
C1614 H1604 0.950 . S
C1614 C1615 1.386 . S
C1614 C1616 1.391 . S
C1615 C1614 1.386 . S
C1615 C1619 1.393 . S
C1616 H1605 0.950 . S
C1616 C1614 1.391 . S
C1616 C1617 1.400 . S
C1617 C1611 1.491 . S
C1617 C1616 1.400 . S
C1617 C1618 1.398 . S
C1618 H1606 0.950 . S
C1618 C1617 1.398 . S
C1618 C1619 1.391 . S
C1619 H1607 0.950 . S
C1619 C1615 1.393 . S
C1619 C1618 1.391 . S
H1620 C1628 0.950 . S
H1621 C1633 0.950 . S
H1622 C1630 0.950 . S
H1623 C1632 0.950 . S
H1624 C1634 0.950 . S
H1625 C1636 0.950 . S
H1626 C1638 0.950 . S
H1627 C1639 0.950 . S
C1628 H1620 0.950 . S
C1628 C1629 1.386 . S
C1628 C1630 1.391 . S
C1629 C1628 1.386 . S
C1629 C1633 1.393 . S
C1630 H1622 0.950 . S
C1630 C1628 1.391 . S
C1630 C1631 1.400 . S
C1631 C1630 1.400 . S
C1631 C1632 1.398 . S
C1631 C1637 1.491 . S
C1632 H1623 0.950 . S
C1632 C1631 1.398 . S
C1632 C1633 1.391 . S
C1633 H1621 0.950 . S
C1633 C1629 1.393 . S
C1633 C1632 1.391 . S
C1634 H1624 0.950 . S
C1634 C1635 1.386 . S
C1634 C1636 1.391 . S
C1635 C1634 1.386 . S
C1635 C1639 1.393 . S
C1636 H1625 0.950 . S
C1636 C1634 1.391 . S
C1636 C1637 1.400 . S
C1637 C1631 1.491 . S
C1637 C1636 1.400 . S
C1637 C1638 1.398 . S
C1638 H1626 0.950 . S
C1638 C1637 1.398 . S
C1638 C1639 1.391 . S
C1639 H1627 0.950 . S
C1639 C1635 1.393 . S
C1639 C1638 1.391 . S
H1640 C1648 0.950 . S
H1641 C1653 0.950 . S
H1642 C1650 0.950 . S
H1643 C1652 0.950 . S
H1644 C1654 0.950 . S
H1645 C1656 0.950 . S
H1646 C1658 0.950 . S
H1647 C1659 0.950 . S
C1648 H1640 0.950 . S
C1648 C1649 1.386 . S
C1648 C1650 1.391 . S
C1649 C1648 1.386 . S
C1649 C1653 1.393 . S
C1650 H1642 0.950 . S
C1650 C1648 1.391 . S
C1650 C1651 1.400 . S
C1651 C1650 1.400 . S
C1651 C1652 1.398 . S
C1651 C1657 1.491 . S
C1652 H1643 0.950 . S
C1652 C1651 1.398 . S
C1652 C1653 1.391 . S
C1653 H1641 0.950 . S
C1653 C1649 1.393 . S
C1653 C1652 1.391 . S
C1654 H1644 0.950 . S
C1654 C1655 1.386 . S
C1654 C1656 1.391 . S
C1655 C1654 1.386 . S
C1655 C1659 1.393 . S
C1656 H1645 0.950 . S
C1656 C1654 1.391 . S
C1656 C1657 1.400 . S
C1657 C1651 1.491 . S
C1657 C1656 1.400 . S
C1657 C1658 1.398 . S
C1658 H1646 0.950 . S
C1658 C1657 1.398 . S
C1658 C1659 1.391 . S
C1659 H1647 0.950 . S
C1659 C1655 1.393 . S
C1659 C1658 1.391 . S
H1660 C1668 0.950 . S
H1661 C1673 0.950 . S
H1662 C1670 0.950 . S
H1663 C1672 0.950 . S
H1664 C1674 0.950 . S
H1665 C1676 0.950 . S
H1666 C1678 0.950 . S
H1667 C1679 0.950 . S
C1668 H1660 0.950 . S
C1668 C1669 1.386 . S
C1668 C1670 1.391 . S
C1669 C1668 1.386 . S
C1669 C1673 1.393 . S
C1670 H1662 0.950 . S
C1670 C1668 1.391 . S
C1670 C1671 1.400 . S
C1671 C1670 1.400 . S
C1671 C1672 1.398 . S
C1671 C1677 1.491 . S
C1672 H1663 0.950 . S
C1672 C1671 1.398 . S
C1672 C1673 1.391 . S
C1673 H1661 0.950 . S
C1673 C1669 1.393 . S
C1673 C1672 1.391 . S
C1674 H1664 0.950 . S
C1674 C1675 1.386 . S
C1674 C1676 1.391 1_554 S
C1675 C1674 1.386 . S
C1675 C1679 1.393 . S
C1676 H1665 0.950 . S
C1676 C1674 1.391 1_556 S
C1676 C1677 1.400 . S
C1677 C1671 1.491 . S
C1677 C1676 1.400 . S
C1677 C1678 1.398 . S
C1678 H1666 0.950 . S
C1678 C1677 1.398 . S
C1678 C1679 1.391 1_556 S
C1679 H1667 0.950 . S
C1679 C1675 1.393 . S
C1679 C1678 1.391 1_554 S
H1680 C1688 0.950 . S
H1681 C1693 0.950 . S
H1682 C1690 0.950 . S
H1683 C1692 0.950 . S
H1684 C1694 0.950 . S
H1685 C1696 0.950 . S
H1686 C1698 0.950 . S
H1687 C1699 0.950 . S
C1688 H1680 0.950 . S
C1688 C1689 1.386 . S
C1688 C1690 1.391 . S
C1689 C1688 1.386 . S
C1689 C1693 1.393 . S
C1690 H1682 0.950 . S
C1690 C1688 1.391 . S
C1690 C1691 1.400 . S
C1691 C1690 1.400 . S
C1691 C1692 1.398 . S
C1691 C1697 1.491 . S
C1692 H1683 0.950 . S
C1692 C1691 1.398 . S
C1692 C1693 1.391 . S
C1693 H1681 0.950 . S
C1693 C1689 1.393 . S
C1693 C1692 1.391 . S
C1694 H1684 0.950 . S
C1694 C1695 1.386 . S
C1694 C1696 1.391 . S
C1695 C1694 1.386 . S
C1695 C1699 1.393 . S
C1696 H1685 0.950 . S
C1696 C1694 1.391 . S
C1696 C1697 1.400 . S
C1697 C1691 1.491 . S
C1697 C1696 1.400 . S
C1697 C1698 1.398 . S
C1698 H1686 0.950 . S
C1698 C1697 1.398 . S
C1698 C1699 1.391 . S
C1699 H1687 0.950 . S
C1699 C1695 1.393 . S
C1699 C1698 1.391 . S
H1700 C1708 0.950 . S
H1701 C1713 0.950 . S
H1702 C1710 0.950 . S
H1703 C1712 0.950 . S
H1704 C1714 0.950 . S
H1705 C1716 0.950 . S
H1706 C1718 0.950 . S
H1707 C1719 0.950 . S
C1708 H1700 0.950 . S
C1708 C1709 1.386 . S
C1708 C1710 1.391 . S
C1709 C1708 1.386 . S
C1709 C1713 1.393 . S
C1710 H1702 0.950 . S
C1710 C1708 1.391 . S
C1710 C1711 1.400 . S
C1711 C1710 1.400 . S
C1711 C1712 1.398 . S
C1711 C1717 1.491 . S
C1712 H1703 0.950 . S
C1712 C1711 1.398 . S
C1712 C1713 1.391 . S
C1713 H1701 0.950 . S
C1713 C1709 1.393 . S
C1713 C1712 1.391 . S
C1714 H1704 0.950 . S
C1714 C1715 1.386 . S
C1714 C1716 1.391 . S
C1715 C1714 1.386 . S
C1715 C1719 1.393 . S
C1716 H1705 0.950 . S
C1716 C1714 1.391 . S
C1716 C1717 1.400 . S
C1717 C1711 1.491 . S
C1717 C1716 1.400 . S
C1717 C1718 1.398 . S
C1718 H1706 0.950 . S
C1718 C1717 1.398 . S
C1718 C1719 1.391 . S
C1719 H1707 0.950 . S
C1719 C1715 1.393 . S
C1719 C1718 1.391 . S
H1720 C1728 0.950 . S
H1721 C1733 0.950 . S
H1722 C1730 0.949 . S
H1723 C1732 0.950 . S
H1724 C1734 0.950 . S
H1725 C1736 0.950 . S
H1726 C1738 0.950 . S
H1727 C1739 0.950 . S
C1728 H1720 0.950 . S
C1728 C1729 1.386 . S
C1728 C1730 1.391 1_554 S
C1729 C1728 1.386 . S
C1729 C1733 1.393 1_554 S
C1730 H1722 0.949 . S
C1730 C1728 1.391 1_556 S
C1730 C1731 1.400 . S
C1731 C1730 1.400 . S
C1731 C1732 1.398 . S
C1731 C1737 1.491 . S
C1732 H1723 0.950 . S
C1732 C1731 1.398 . S
C1732 C1733 1.391 . S
C1733 H1721 0.950 . S
C1733 C1729 1.393 1_556 S
C1733 C1732 1.391 . S
C1734 H1724 0.950 . S
C1734 C1735 1.386 . S
C1734 C1736 1.391 . S
C1735 C1734 1.386 . S
C1735 C1739 1.393 . S
C1736 H1725 0.950 . S
C1736 C1734 1.391 . S
C1736 C1737 1.400 . S
C1737 C1731 1.491 . S
C1737 C1736 1.400 . S
C1737 C1738 1.398 . S
C1738 H1726 0.950 . S
C1738 C1737 1.398 . S
C1738 C1739 1.391 . S
C1739 H1727 0.950 . S
C1739 C1735 1.393 . S
C1739 C1738 1.391 . S
H1740 C1748 0.950 . S
H1741 C1753 0.950 . S
H1742 C1750 0.950 . S
H1743 C1752 0.950 . S
H1744 C1754 0.950 . S
H1745 C1756 0.950 . S
H1746 C1758 0.950 . S
H1747 C1759 0.950 . S
C1748 H1740 0.950 . S
C1748 C1749 1.386 . S
C1748 C1750 1.391 . S
C1749 C1748 1.386 . S
C1749 C1753 1.393 . S
C1750 H1742 0.950 . S
C1750 C1748 1.391 . S
C1750 C1751 1.400 . S
C1751 C1750 1.400 . S
C1751 C1752 1.398 . S
C1751 C1757 1.491 . S
C1752 H1743 0.950 . S
C1752 C1751 1.398 . S
C1752 C1753 1.391 . S
C1753 H1741 0.950 . S
C1753 C1749 1.393 . S
C1753 C1752 1.391 . S
C1754 H1744 0.950 . S
C1754 C1755 1.386 . S
C1754 C1756 1.391 . S
C1755 C1754 1.386 . S
C1755 C1759 1.393 . S
C1756 H1745 0.950 . S
C1756 C1754 1.391 . S
C1756 C1757 1.400 . S
C1757 C1751 1.491 . S
C1757 C1756 1.400 . S
C1757 C1758 1.398 . S
C1758 H1746 0.950 . S
C1758 C1757 1.398 . S
C1758 C1759 1.391 . S
C1759 H1747 0.950 . S
C1759 C1755 1.393 . S
C1759 C1758 1.391 . S
H1760 C1768 0.950 . S
H1761 C1773 0.950 . S
H1762 C1770 0.950 . S
H1763 C1772 0.950 . S
H1764 C1774 0.950 . S
H1765 C1776 0.950 . S
H1766 C1778 0.962 . S
H1767 C1779 0.950 . S
C1768 H1760 0.950 . S
C1768 C1769 1.386 . S
C1768 C1770 1.391 . S
C1769 C1768 1.386 . S
C1769 C1773 1.393 . S
C1770 H1762 0.950 . S
C1770 C1768 1.391 . S
C1770 C1771 1.400 . S
C1771 C1770 1.400 . S
C1771 C1772 1.398 . S
C1771 C1777 1.491 . S
C1772 H1763 0.950 . S
C1772 C1771 1.398 . S
C1772 C1773 1.391 . S
C1773 H1761 0.950 . S
C1773 C1769 1.393 . S
C1773 C1772 1.391 . S
C1774 H1764 0.950 . S
C1774 C1775 1.386 . S
C1774 C1776 1.391 . S
C1775 C1774 1.386 . S
C1775 C1779 1.393 . S
C1776 H1765 0.950 . S
C1776 C1774 1.391 . S
C1776 C1777 1.400 1_556 S
C1777 C1771 1.491 . S
C1777 C1776 1.400 1_554 S
C1777 C1778 1.400 . S
C1778 H1766 0.962 . S
C1778 C1777 1.400 . S
C1778 C1779 1.377 1_554 S
C1779 H1767 0.950 . S
C1779 C1775 1.393 . S
C1779 C1778 1.377 1_556 S
H1780 C1788 0.950 . S
H1781 C1793 0.950 . S
H1782 C1790 0.950 . S
H1783 C1792 0.950 . S
H1784 C1794 0.950 . S
H1785 C1796 0.950 . S
H1786 C1798 0.950 . S
H1787 C1799 0.950 . S
C1788 H1780 0.950 . S
C1788 C1789 1.386 . S
C1788 C1790 1.391 . S
C1789 C1788 1.386 . S
C1789 C1793 1.393 . S
C1790 H1782 0.950 . S
C1790 C1788 1.391 . S
C1790 C1791 1.400 . S
C1791 C1790 1.400 . S
C1791 C1792 1.398 . S
C1791 C1797 1.491 . S
C1792 H1783 0.950 . S
C1792 C1791 1.398 . S
C1792 C1793 1.391 . S
C1793 H1781 0.950 . S
C1793 C1789 1.393 . S
C1793 C1792 1.391 . S
C1794 H1784 0.950 . S
C1794 C1795 1.386 . S
C1794 C1796 1.391 . S
C1795 C1794 1.386 . S
C1795 C1799 1.393 . S
C1796 H1785 0.950 . S
C1796 C1794 1.391 . S
C1796 C1797 1.400 . S
C1797 C1791 1.491 . S
C1797 C1796 1.400 . S
C1797 C1798 1.398 . S
C1798 H1786 0.950 . S
C1798 C1797 1.398 . S
C1798 C1799 1.391 . S
C1799 H1787 0.950 . S
C1799 C1795 1.393 . S
C1799 C1798 1.391 . S
H1800 C1808 0.950 . S
H1801 C1813 0.950 . S
H1802 C1810 0.950 . S
H1803 C1812 0.950 . S
H1804 C1814 0.950 . S
H1805 C1816 0.950 . S
H1806 C1818 0.950 . S
H1807 C1819 0.950 . S
C1808 H1800 0.950 . S
C1808 C1809 1.386 . S
C1808 C1810 1.391 . S
C1809 C1808 1.386 . S
C1809 C1813 1.393 . S
C1810 H1802 0.950 . S
C1810 C1808 1.391 . S
C1810 C1811 1.400 . S
C1811 C1810 1.400 . S
C1811 C1812 1.398 . S
C1811 C1817 1.491 . S
C1812 H1803 0.950 . S
C1812 C1811 1.398 . S
C1812 C1813 1.391 . S
C1813 H1801 0.950 . S
C1813 C1809 1.393 . S
C1813 C1812 1.391 . S
C1814 H1804 0.950 . S
C1814 C1815 1.386 . S
C1814 C1816 1.391 . S
C1815 C1814 1.386 . S
C1815 C1819 1.393 . S
C1816 H1805 0.950 . S
C1816 C1814 1.391 . S
C1816 C1817 1.400 . S
C1817 C1811 1.491 . S
C1817 C1816 1.400 . S
C1817 C1818 1.398 . S
C1818 H1806 0.950 . S
C1818 C1817 1.398 . S
C1818 C1819 1.391 . S
C1819 H1807 0.950 . S
C1819 C1815 1.393 . S
C1819 C1818 1.391 . S
H1820 C1828 0.950 . S
H1821 C1833 0.950 . S
H1822 C1830 0.950 . S
H1823 C1832 0.950 . S
H1824 C1834 0.950 . S
H1825 C1836 0.950 . S
H1826 C1838 0.950 . S
H1827 C1839 0.950 . S
C1828 H1820 0.950 . S
C1828 C1829 1.386 . S
C1828 C1830 1.391 . S
C1829 C1828 1.386 . S
C1829 C1833 1.393 . S
C1830 H1822 0.950 . S
C1830 C1828 1.391 . S
C1830 C1831 1.400 . S
C1831 C1830 1.400 . S
C1831 C1832 1.398 . S
C1831 C1837 1.491 . S
C1832 H1823 0.950 . S
C1832 C1831 1.398 . S
C1832 C1833 1.391 . S
C1833 H1821 0.950 . S
C1833 C1829 1.393 . S
C1833 C1832 1.391 . S
C1834 H1824 0.950 . S
C1834 C1835 1.386 . S
C1834 C1836 1.391 . S
C1835 C1834 1.386 . S
C1835 C1839 1.393 . S
C1836 H1825 0.950 . S
C1836 C1834 1.391 . S
C1836 C1837 1.400 . S
C1837 C1831 1.491 . S
C1837 C1836 1.400 . S
C1837 C1838 1.398 . S
C1838 H1826 0.950 . S
C1838 C1837 1.398 . S
C1838 C1839 1.391 . S
C1839 H1827 0.950 . S
C1839 C1835 1.393 . S
C1839 C1838 1.391 . S
H1840 C1848 0.950 . S
H1841 C1853 0.950 . S
H1842 C1850 0.950 . S
H1843 C1852 0.950 . S
H1844 C1854 0.950 . S
H1845 C1856 0.950 . S
H1846 C1858 0.950 . S
H1847 C1859 0.950 . S
C1848 H1840 0.950 . S
C1848 C1849 1.386 . S
C1848 C1850 1.391 . S
C1849 C1848 1.386 . S
C1849 C1853 1.393 . S
C1850 H1842 0.950 . S
C1850 C1848 1.391 . S
C1850 C1851 1.400 . S
C1851 C1850 1.400 . S
C1851 C1852 1.398 . S
C1851 C1857 1.491 . S
C1852 H1843 0.950 . S
C1852 C1851 1.398 . S
C1852 C1853 1.391 . S
C1853 H1841 0.950 . S
C1853 C1849 1.393 . S
C1853 C1852 1.391 . S
C1854 H1844 0.950 . S
C1854 C1855 1.386 . S
C1854 C1856 1.391 . S
C1855 C1854 1.386 . S
C1855 C1859 1.393 . S
C1856 H1845 0.950 . S
C1856 C1854 1.391 . S
C1856 C1857 1.400 . S
C1857 C1851 1.491 . S
C1857 C1856 1.400 . S
C1857 C1858 1.398 . S
C1858 H1846 0.950 . S
C1858 C1857 1.398 . S
C1858 C1859 1.391 . S
C1859 H1847 0.950 . S
C1859 C1855 1.393 . S
C1859 C1858 1.391 . S
H1860 C1868 0.950 . S
H1861 C1873 0.950 . S
H1862 C1870 0.950 . S
H1863 C1872 0.950 . S
H1864 C1874 0.950 . S
H1865 C1876 0.950 . S
H1866 C1878 0.950 . S
H1867 C1879 0.950 . S
C1868 H1860 0.950 . S
C1868 C1869 1.386 . S
C1868 C1870 1.391 . S
C1869 C1868 1.386 . S
C1869 C1873 1.393 . S
C1870 H1862 0.950 . S
C1870 C1868 1.391 . S
C1870 C1871 1.400 . S
C1871 C1870 1.400 . S
C1871 C1872 1.398 . S
C1871 C1877 1.491 . S
C1872 H1863 0.950 . S
C1872 C1871 1.398 . S
C1872 C1873 1.391 . S
C1873 H1861 0.950 . S
C1873 C1869 1.393 . S
C1873 C1872 1.391 . S
C1874 H1864 0.950 . S
C1874 C1875 1.386 . S
C1874 C1876 1.391 . S
C1875 C1874 1.386 . S
C1875 C1879 1.393 . S
C1876 H1865 0.950 . S
C1876 C1874 1.391 . S
C1876 C1877 1.400 . S
C1877 C1871 1.491 . S
C1877 C1876 1.400 . S
C1877 C1878 1.398 . S
C1878 H1866 0.950 . S
C1878 C1877 1.398 . S
C1878 C1879 1.391 . S
C1879 H1867 0.950 . S
C1879 C1875 1.393 . S
C1879 C1878 1.391 . S
H1880 C1888 0.950 . S
H1881 C1893 0.950 . S
H1882 C1890 0.950 . S
H1883 C1892 0.950 . S
H1884 C1894 0.950 . S
H1885 C1896 0.950 . S
H1886 C1898 0.950 . S
H1887 C1899 0.950 . S
C1888 H1880 0.950 . S
C1888 C1889 1.386 . S
C1888 C1890 1.391 . S
C1889 C1888 1.386 . S
C1889 C1893 1.393 . S
C1890 H1882 0.950 . S
C1890 C1888 1.391 . S
C1890 C1891 1.400 . S
C1891 C1890 1.400 . S
C1891 C1892 1.398 . S
C1891 C1897 1.491 . S
C1892 H1883 0.950 . S
C1892 C1891 1.398 . S
C1892 C1893 1.391 . S
C1893 H1881 0.950 . S
C1893 C1889 1.393 . S
C1893 C1892 1.391 . S
C1894 H1884 0.950 . S
C1894 C1895 1.386 . S
C1894 C1896 1.391 . S
C1895 C1894 1.386 . S
C1895 C1899 1.393 . S
C1896 H1885 0.950 . S
C1896 C1894 1.391 . S
C1896 C1897 1.400 . S
C1897 C1891 1.491 . S
C1897 C1896 1.400 . S
C1897 C1898 1.398 . S
C1898 H1886 0.950 . S
C1898 C1897 1.398 . S
C1898 C1899 1.391 . S
C1899 H1887 0.950 . S
C1899 C1895 1.393 . S
C1899 C1898 1.391 . S
H1900 C1908 0.950 . S
H1901 C1913 0.950 . S
H1902 C1910 0.950 . S
H1903 C1912 0.950 . S
H1904 C1914 0.950 . S
H1905 C1916 0.950 . S
H1906 C1918 0.950 . S
H1907 C1919 0.950 . S
C1908 H1900 0.950 . S
C1908 C1909 1.386 . S
C1908 C1910 1.391 . S
C1909 C1908 1.386 . S
C1909 C1913 1.393 . S
C1910 H1902 0.950 . S
C1910 C1908 1.391 . S
C1910 C1911 1.400 . S
C1911 C1910 1.400 . S
C1911 C1912 1.398 . S
C1911 C1917 1.491 . S
C1912 H1903 0.950 . S
C1912 C1911 1.398 . S
C1912 C1913 1.391 . S
C1913 H1901 0.950 . S
C1913 C1909 1.393 . S
C1913 C1912 1.391 . S
C1914 H1904 0.950 . S
C1914 C1915 1.386 . S
C1914 C1916 1.391 . S
C1915 C1914 1.386 . S
C1915 C1919 1.393 . S
C1916 H1905 0.950 . S
C1916 C1914 1.391 . S
C1916 C1917 1.400 . S
C1917 C1911 1.491 . S
C1917 C1916 1.400 . S
C1917 C1918 1.398 . S
C1918 H1906 0.950 . S
C1918 C1917 1.398 . S
C1918 C1919 1.391 . S
C1919 H1907 0.950 . S
C1919 C1915 1.393 . S
C1919 C1918 1.391 . S
H1920 C1928 0.950 . S
H1921 C1933 0.950 1_455 S
H1922 C1930 0.950 . S
H1923 C1932 0.950 . S
H1924 C1934 0.950 . S
H1925 C1936 0.950 . S
H1926 C1938 0.950 . S
H1927 C1939 0.950 1_655 S
C1928 H1920 0.950 . S
C1928 C1929 1.386 . S
C1928 C1930 1.391 . S
C1929 C1928 1.386 . S
C1929 C1933 1.393 . S
C1930 H1922 0.950 . S
C1930 C1928 1.391 . S
C1930 C1931 1.400 . S
C1931 C1930 1.400 . S
C1931 C1932 1.398 1_655 S
C1931 C1937 1.491 1_655 S
C1932 H1923 0.950 . S
C1932 C1931 1.398 1_455 S
C1932 C1933 1.391 1_455 S
C1933 H1921 0.950 1_655 S
C1933 C1929 1.393 . S
C1933 C1932 1.391 1_655 S
C1934 H1924 0.950 . S
C1934 C1935 1.386 . S
C1934 C1936 1.391 . S
C1935 C1934 1.386 . S
C1935 C1939 1.393 . S
C1936 H1925 0.950 . S
C1936 C1934 1.391 . S
C1936 C1937 1.400 . S
C1937 C1931 1.491 1_455 S
C1937 C1936 1.400 . S
C1937 C1938 1.398 1_455 S
C1938 H1926 0.950 . S
C1938 C1937 1.398 1_655 S
C1938 C1939 1.391 1_655 S
C1939 H1927 0.950 1_455 S
C1939 C1935 1.393 . S
C1939 C1938 1.391 1_455 S
H1940 C1948 0.950 . S
H1941 C1953 0.950 . S
H1942 C1950 0.950 . S
H1943 C1952 0.950 . S
H1944 C1954 0.950 . S
H1945 C1956 0.950 . S
H1946 C1958 0.950 . S
H1947 C1959 0.950 . S
C1948 H1940 0.950 . S
C1948 C1949 1.386 . S
C1948 C1950 1.391 . S
C1949 C1948 1.386 . S
C1949 C1953 1.393 . S
C1950 H1942 0.950 . S
C1950 C1948 1.391 . S
C1950 C1951 1.400 . S
C1951 C1950 1.400 . S
C1951 C1952 1.398 . S
C1951 C1957 1.491 . S
C1952 H1943 0.950 . S
C1952 C1951 1.398 . S
C1952 C1953 1.391 . S
C1953 H1941 0.950 . S
C1953 C1949 1.393 . S
C1953 C1952 1.391 . S
C1954 H1944 0.950 . S
C1954 C1955 1.386 . S
C1954 C1956 1.391 . S
C1955 C1954 1.386 . S
C1955 C1959 1.393 . S
C1956 H1945 0.950 . S
C1956 C1954 1.391 . S
C1956 C1957 1.400 . S
C1957 C1951 1.491 . S
C1957 C1956 1.400 . S
C1957 C1958 1.398 . S
C1958 H1946 0.950 . S
C1958 C1957 1.398 . S
C1958 C1959 1.391 . S
C1959 H1947 0.950 . S
C1959 C1955 1.393 . S
C1959 C1958 1.391 . S
H1960 C1968 0.950 . S
H1961 C1973 0.950 . S
H1962 C1970 0.950 . S
H1963 C1972 0.950 . S
H1964 C1974 0.950 . S
H1965 C1976 0.950 . S
H1966 C1978 0.950 . S
H1967 C1979 0.950 . S
C1968 H1960 0.950 . S
C1968 C1969 1.386 . S
C1968 C1970 1.391 . S
C1969 C1968 1.386 . S
C1969 C1973 1.393 . S
C1970 H1962 0.950 . S
C1970 C1968 1.391 . S
C1970 C1971 1.400 . S
C1971 C1970 1.400 . S
C1971 C1972 1.398 . S
C1971 C1977 1.491 . S
C1972 H1963 0.950 . S
C1972 C1971 1.398 . S
C1972 C1973 1.391 . S
C1973 H1961 0.950 . S
C1973 C1969 1.393 . S
C1973 C1972 1.391 . S
C1974 H1964 0.950 . S
C1974 C1975 1.386 . S
C1974 C1976 1.391 . S
C1975 C1974 1.386 . S
C1975 C1979 1.393 . S
C1976 H1965 0.950 . S
C1976 C1974 1.391 . S
C1976 C1977 1.400 . S
C1977 C1971 1.491 . S
C1977 C1976 1.400 . S
C1977 C1978 1.398 . S
C1978 H1966 0.950 . S
C1978 C1977 1.398 . S
C1978 C1979 1.391 . S
C1979 H1967 0.950 . S
C1979 C1975 1.393 . S
C1979 C1978 1.391 . S
H1980 C1988 0.950 . S
H1981 C1993 0.950 . S
H1982 C1990 0.950 . S
H1983 C1992 0.950 . S
H1984 C1994 0.950 . S
H1985 C1996 0.950 . S
H1986 C1998 0.950 . S
H1987 C1999 0.950 . S
C1988 H1980 0.950 . S
C1988 C1989 1.386 . S
C1988 C1990 1.391 . S
C1989 C1988 1.386 . S
C1989 C1993 1.393 . S
C1990 H1982 0.950 . S
C1990 C1988 1.391 . S
C1990 C1991 1.400 . S
C1991 C1990 1.400 . S
C1991 C1992 1.398 . S
C1991 C1997 1.491 . S
C1992 H1983 0.950 . S
C1992 C1991 1.398 . S
C1992 C1993 1.391 . S
C1993 H1981 0.950 . S
C1993 C1989 1.393 . S
C1993 C1992 1.391 . S
C1994 H1984 0.950 . S
C1994 C1995 1.386 . S
C1994 C1996 1.391 . S
C1995 C1994 1.386 . S
C1995 C1999 1.393 . S
C1996 H1985 0.950 . S
C1996 C1994 1.391 . S
C1996 C1997 1.400 . S
C1997 C1991 1.491 . S
C1997 C1996 1.400 . S
C1997 C1998 1.398 . S
C1998 H1986 0.950 . S
C1998 C1997 1.398 . S
C1998 C1999 1.391 . S
C1999 H1987 0.950 . S
C1999 C1995 1.393 . S
C1999 C1998 1.391 . S
H2000 C2008 0.950 . S
H2001 C2013 0.950 . S
H2002 C2010 0.926 1_455 S
H2003 C2012 0.950 . S
H2004 C2014 0.950 . S
H2005 C2016 0.923 1_655 S
H2006 C2018 0.950 . S
H2007 C2019 0.950 . S
C2008 H2000 0.950 . S
C2008 C2009 1.386 . S
C2008 C2010 1.391 . S
C2009 C2008 1.386 . S
C2009 C2013 1.393 . S
C2010 H2002 0.926 1_655 S
C2010 C2008 1.391 . S
C2010 C2011 1.400 . S
C2011 C2010 1.400 . S
C2011 C2012 1.398 . S
C2011 C2017 1.491 1_655 S
C2012 H2003 0.950 . S
C2012 C2011 1.398 . S
C2012 C2013 1.391 . S
C2013 H2001 0.950 . S
C2013 C2009 1.393 . S
C2013 C2012 1.391 . S
C2014 H2004 0.950 . S
C2014 C2015 1.386 . S
C2014 C2016 1.391 . S
C2015 C2014 1.386 . S
C2015 C2019 1.393 . S
C2016 H2005 0.923 1_455 S
C2016 C2014 1.391 . S
C2016 C2017 1.400 . S
C2017 C2011 1.491 1_455 S
C2017 C2016 1.400 . S
C2017 C2018 1.398 . S
C2018 H2006 0.950 . S
C2018 C2017 1.398 . S
C2018 C2019 1.391 . S
C2019 H2007 0.950 . S
C2019 C2015 1.393 . S
C2019 C2018 1.391 . S
H2020 C2028 0.950 . S
H2021 C2033 0.950 . S
H2022 C2030 0.950 . S
H2023 C2032 0.950 . S
H2024 C2034 0.950 . S
H2025 C2036 0.950 . S
H2026 C2038 0.950 . S
H2027 C2039 0.950 . S
C2028 H2020 0.950 . S
C2028 C2029 1.386 . S
C2028 C2030 1.391 . S
C2029 C2028 1.386 . S
C2029 C2033 1.393 . S
C2030 H2022 0.950 . S
C2030 C2028 1.391 . S
C2030 C2031 1.400 . S
C2031 C2030 1.400 . S
C2031 C2032 1.398 . S
C2031 C2037 1.491 . S
C2032 H2023 0.950 . S
C2032 C2031 1.398 . S
C2032 C2033 1.391 . S
C2033 H2021 0.950 . S
C2033 C2029 1.393 . S
C2033 C2032 1.391 . S
C2034 H2024 0.950 . S
C2034 C2035 1.386 . S
C2034 C2036 1.391 . S
C2035 C2034 1.386 . S
C2035 C2039 1.393 . S
C2036 H2025 0.950 . S
C2036 C2034 1.391 . S
C2036 C2037 1.400 . S
C2037 C2031 1.491 . S
C2037 C2036 1.400 . S
C2037 C2038 1.398 . S
C2038 H2026 0.950 . S
C2038 C2037 1.398 . S
C2038 C2039 1.391 . S
C2039 H2027 0.950 . S
C2039 C2035 1.393 . S
C2039 C2038 1.391 . S
H2040 C2048 0.950 . S
H2041 C2053 0.950 . S
H2042 C2050 0.950 . S
H2043 C2052 0.950 . S
H2044 C2054 0.950 . S
H2045 C2056 0.950 . S
H2046 C2058 0.950 . S
H2047 C2059 0.950 . S
C2048 H2040 0.950 . S
C2048 C2049 1.386 . S
C2048 C2050 1.391 . S
C2049 C2048 1.386 . S
C2049 C2053 1.393 . S
C2050 H2042 0.950 . S
C2050 C2048 1.391 . S
C2050 C2051 1.400 . S
C2051 C2050 1.400 . S
C2051 C2052 1.398 . S
C2051 C2057 1.491 . S
C2052 H2043 0.950 . S
C2052 C2051 1.398 . S
C2052 C2053 1.391 . S
C2053 H2041 0.950 . S
C2053 C2049 1.393 . S
C2053 C2052 1.391 . S
C2054 H2044 0.950 . S
C2054 C2055 1.386 . S
C2054 C2056 1.391 . S
C2055 C2054 1.386 . S
C2055 C2059 1.393 . S
C2056 H2045 0.950 . S
C2056 C2054 1.391 . S
C2056 C2057 1.400 . S
C2057 C2051 1.491 . S
C2057 C2056 1.400 . S
C2057 C2058 1.398 . S
C2058 H2046 0.950 . S
C2058 C2057 1.398 . S
C2058 C2059 1.391 . S
C2059 H2047 0.950 . S
C2059 C2055 1.393 . S
C2059 C2058 1.391 . S
H2060 C2068 0.950 . S
H2061 C2073 0.950 . S
H2062 C2070 0.950 . S
H2063 C2072 0.950 . S
H2064 C2074 0.950 . S
H2065 C2076 0.950 . S
H2066 C2078 0.950 . S
H2067 C2079 0.950 . S
C2068 H2060 0.950 . S
C2068 C2069 1.386 . S
C2068 C2070 1.391 . S
C2069 C2068 1.386 . S
C2069 C2073 1.393 . S
C2070 H2062 0.950 . S
C2070 C2068 1.391 . S
C2070 C2071 1.400 . S
C2071 C2070 1.400 . S
C2071 C2072 1.398 . S
C2071 C2077 1.491 . S
C2072 H2063 0.950 . S
C2072 C2071 1.398 . S
C2072 C2073 1.391 . S
C2073 H2061 0.950 . S
C2073 C2069 1.393 . S
C2073 C2072 1.391 . S
C2074 H2064 0.950 . S
C2074 C2075 1.386 . S
C2074 C2076 1.391 . S
C2075 C2074 1.386 . S
C2075 C2079 1.393 . S
C2076 H2065 0.950 . S
C2076 C2074 1.391 . S
C2076 C2077 1.400 . S
C2077 C2071 1.491 . S
C2077 C2076 1.400 . S
C2077 C2078 1.398 . S
C2078 H2066 0.950 . S
C2078 C2077 1.398 . S
C2078 C2079 1.391 . S
C2079 H2067 0.950 . S
C2079 C2075 1.393 . S
C2079 C2078 1.391 . S
H2080 C2088 0.950 . S
H2081 C2093 0.950 . S
H2082 C2090 0.950 . S
H2083 C2092 0.950 . S
H2084 C2094 0.950 . S
H2085 C2096 0.950 . S
H2086 C2098 0.950 . S
H2087 C2099 0.950 . S
C2088 H2080 0.950 . S
C2088 C2089 1.386 . S
C2088 C2090 1.391 . S
C2089 C2088 1.386 . S
C2089 C2093 1.393 . S
C2090 H2082 0.950 . S
C2090 C2088 1.391 . S
C2090 C2091 1.400 . S
C2091 C2090 1.400 . S
C2091 C2092 1.398 . S
C2091 C2097 1.491 . S
C2092 H2083 0.950 . S
C2092 C2091 1.398 . S
C2092 C2093 1.391 . S
C2093 H2081 0.950 . S
C2093 C2089 1.393 . S
C2093 C2092 1.391 . S
C2094 H2084 0.950 . S
C2094 C2095 1.386 . S
C2094 C2096 1.391 . S
C2095 C2094 1.386 . S
C2095 C2099 1.393 . S
C2096 H2085 0.950 . S
C2096 C2094 1.391 . S
C2096 C2097 1.400 . S
C2097 C2091 1.491 . S
C2097 C2096 1.400 . S
C2097 C2098 1.398 . S
C2098 H2086 0.950 . S
C2098 C2097 1.398 . S
C2098 C2099 1.391 . S
C2099 H2087 0.950 . S
C2099 C2095 1.393 . S
C2099 C2098 1.391 . S
H2100 C2108 0.950 . S
H2101 C2113 0.950 . S
H2102 C2110 0.950 . S
H2103 C2112 0.950 . S
H2104 C2114 0.950 . S
H2105 C2116 0.950 . S
H2106 C2118 0.950 . S
H2107 C2119 0.950 . S
C2108 H2100 0.950 . S
C2108 C2109 1.386 . S
C2108 C2110 1.391 . S
C2109 C2108 1.386 . S
C2109 C2113 1.393 . S
C2110 H2102 0.950 . S
C2110 C2108 1.391 . S
C2110 C2111 1.400 . S
C2111 C2110 1.400 . S
C2111 C2112 1.398 . S
C2111 C2117 1.491 . S
C2112 H2103 0.950 . S
C2112 C2111 1.398 . S
C2112 C2113 1.391 . S
C2113 H2101 0.950 . S
C2113 C2109 1.393 . S
C2113 C2112 1.391 . S
C2114 H2104 0.950 . S
C2114 C2115 1.386 . S
C2114 C2116 1.391 . S
C2115 C2114 1.386 . S
C2115 C2119 1.393 . S
C2116 H2105 0.950 . S
C2116 C2114 1.391 . S
C2116 C2117 1.400 . S
C2117 C2111 1.491 . S
C2117 C2116 1.400 . S
C2117 C2118 1.398 . S
C2118 H2106 0.950 . S
C2118 C2117 1.398 . S
C2118 C2119 1.391 . S
C2119 H2107 0.950 . S
C2119 C2115 1.393 . S
C2119 C2118 1.391 . S
H2120 C2128 0.950 . S
H2121 C2133 0.950 . S
H2122 C2130 0.950 . S
H2123 C2132 0.950 . S
H2124 C2134 0.950 . S
H2125 C2136 0.950 . S
H2126 C2138 0.950 . S
H2127 C2139 0.950 . S
C2128 H2120 0.950 . S
C2128 C2129 1.386 . S
C2128 C2130 1.391 . S
C2129 C2128 1.386 . S
C2129 C2133 1.393 . S
C2130 H2122 0.950 . S
C2130 C2128 1.391 . S
C2130 C2131 1.400 . S
C2131 C2130 1.400 . S
C2131 C2132 1.398 . S
C2131 C2137 1.491 . S
C2132 H2123 0.950 . S
C2132 C2131 1.398 . S
C2132 C2133 1.391 . S
C2133 H2121 0.950 . S
C2133 C2129 1.393 . S
C2133 C2132 1.391 . S
C2134 H2124 0.950 . S
C2134 C2135 1.386 . S
C2134 C2136 1.391 . S
C2135 C2134 1.386 . S
C2135 C2139 1.393 . S
C2136 H2125 0.950 . S
C2136 C2134 1.391 . S
C2136 C2137 1.400 . S
C2137 C2131 1.491 . S
C2137 C2136 1.400 . S
C2137 C2138 1.398 . S
C2138 H2126 0.950 . S
C2138 C2137 1.398 . S
C2138 C2139 1.391 . S
C2139 H2127 0.950 . S
C2139 C2135 1.393 . S
C2139 C2138 1.391 . S
H2140 C2148 0.950 . S
H2141 C2153 0.950 . S
H2142 C2150 0.950 . S
H2143 C2152 0.950 . S
H2144 C2154 0.950 1_554 S
H2145 C2156 0.950 . S
H2146 C2158 0.950 . S
H2147 C2159 0.950 . S
C2148 H2140 0.950 . S
C2148 C2149 1.386 . S
C2148 C2150 1.391 . S
C2149 C2148 1.386 . S
C2149 C2153 1.393 . S
C2150 H2142 0.950 . S
C2150 C2148 1.391 . S
C2150 C2151 1.400 . S
C2151 C2150 1.400 . S
C2151 C2152 1.398 . S
C2151 C2157 1.491 . S
C2152 H2143 0.950 . S
C2152 C2151 1.398 . S
C2152 C2153 1.391 . S
C2153 H2141 0.950 . S
C2153 C2149 1.393 . S
C2153 C2152 1.391 . S
C2154 H2144 0.950 1_556 S
C2154 C2155 1.386 . S
C2154 C2156 1.391 . S
C2155 C2154 1.386 . S
C2155 C2159 1.393 . S
C2156 H2145 0.950 . S
C2156 C2154 1.391 . S
C2156 C2157 1.400 . S
C2157 C2151 1.491 . S
C2157 C2156 1.400 . S
C2157 C2158 1.398 . S
C2158 H2146 0.950 . S
C2158 C2157 1.398 . S
C2158 C2159 1.391 . S
C2159 H2147 0.950 . S
C2159 C2155 1.393 . S
C2159 C2158 1.391 . S
H2160 C2168 0.950 . S
H2161 C2173 0.950 . S
H2162 C2170 0.950 . S
H2163 C2172 0.950 1_565 S
H2164 C2174 0.950 . S
H2165 C2176 0.950 . S
H2166 C2178 0.950 1_545 S
H2167 C2179 0.950 . S
C2168 H2160 0.950 . S
C2168 C2169 1.386 . S
C2168 C2170 1.391 . S
C2169 C2168 1.386 . S
C2169 C2173 1.393 . S
C2170 H2162 0.950 . S
C2170 C2168 1.391 . S
C2170 C2171 1.400 . S
C2171 C2170 1.400 . S
C2171 C2172 1.398 . S
C2171 C2177 1.491 1_545 S
C2172 H2163 0.950 1_545 S
C2172 C2171 1.398 . S
C2172 C2173 1.391 . S
C2173 H2161 0.950 . S
C2173 C2169 1.393 . S
C2173 C2172 1.391 . S
C2174 H2164 0.950 . S
C2174 C2175 1.386 . S
C2174 C2176 1.391 . S
C2175 C2174 1.386 . S
C2175 C2179 1.393 . S
C2176 H2165 0.950 . S
C2176 C2174 1.391 . S
C2176 C2177 1.400 . S
C2177 C2171 1.491 1_565 S
C2177 C2176 1.400 . S
C2177 C2178 1.398 . S
C2178 H2166 0.950 1_565 S
C2178 C2177 1.398 . S
C2178 C2179 1.391 . S
C2179 H2167 0.950 . S
C2179 C2175 1.393 . S
C2179 C2178 1.391 . S
H2180 C2188 0.950 . S
H2181 C2193 0.950 . S
H2182 C2190 0.950 1_545 S
H2183 C2192 0.950 . S
H2184 C2194 0.950 . S
H2185 C2196 0.950 1_565 S
H2186 C2198 0.950 . S
H2187 C2199 0.950 . S
C2188 H2180 0.950 . S
C2188 C2189 1.386 . S
C2188 C2190 1.391 . S
C2189 C2188 1.386 . S
C2189 C2193 1.393 . S
C2190 H2182 0.950 1_565 S
C2190 C2188 1.391 . S
C2190 C2191 1.400 . S
C2191 C2190 1.400 . S
C2191 C2192 1.398 . S
C2191 C2197 1.491 1_465 S
C2192 H2183 0.950 . S
C2192 C2191 1.398 . S
C2192 C2193 1.391 . S
C2193 H2181 0.950 . S
C2193 C2189 1.393 . S
C2193 C2192 1.391 . S
C2194 H2184 0.950 . S
C2194 C2195 1.386 . S
C2194 C2196 1.391 . S
C2195 C2194 1.386 . S
C2195 C2199 1.393 . S
C2196 H2185 0.950 1_545 S
C2196 C2194 1.391 . S
C2196 C2197 1.400 . S
C2197 C2191 1.491 1_645 S
C2197 C2196 1.400 . S
C2197 C2198 1.398 . S
C2198 H2186 0.950 . S
C2198 C2197 1.398 . S
C2198 C2199 1.391 . S
C2199 H2187 0.950 . S
C2199 C2195 1.393 . S
C2199 C2198 1.391 . S
H2200 C2208 0.950 . S
H2201 C2213 0.950 . S
H2202 C2210 0.950 . S
H2203 C2212 0.950 . S
H2204 C2214 0.950 . S
H2205 C2216 0.950 . S
H2206 C2218 0.950 . S
H2207 C2219 0.950 . S
C2208 H2200 0.950 . S
C2208 C2209 1.386 . S
C2208 C2210 1.391 . S
C2209 C2208 1.386 . S
C2209 C2213 1.393 1_565 S
C2210 H2202 0.950 . S
C2210 C2208 1.391 . S
C2210 C2211 1.400 . S
C2211 C2210 1.400 . S
C2211 C2212 1.398 1_565 S
C2211 C2217 1.491 1_565 S
C2212 H2203 0.950 . S
C2212 C2211 1.398 1_545 S
C2212 C2213 1.391 . S
C2213 H2201 0.950 . S
C2213 C2209 1.393 1_545 S
C2213 C2212 1.391 . S
C2214 H2204 0.950 . S
C2214 C2215 1.386 . S
C2214 C2216 1.391 . S
C2215 C2214 1.386 . S
C2215 C2219 1.393 1_545 S
C2216 H2205 0.950 . S
C2216 C2214 1.391 . S
C2216 C2217 1.400 . S
C2217 C2211 1.491 1_545 S
C2217 C2216 1.400 . S
C2217 C2218 1.398 1_545 S
C2218 H2206 0.950 . S
C2218 C2217 1.398 1_565 S
C2218 C2219 1.391 . S
C2219 H2207 0.950 . S
C2219 C2215 1.393 1_565 S
C2219 C2218 1.391 . S
H2220 C2228 0.950 . S
H2221 C2233 0.950 . S
H2222 C2230 0.955 . S
H2223 C2232 0.950 . S
H2224 C2234 0.950 . S
H2225 C2236 0.952 . S
H2226 C2238 0.950 . S
H2227 C2239 0.950 . S
C2228 H2220 0.950 . S
C2228 C2229 1.386 . S
C2228 C2230 1.391 1_655 S
C2229 C2228 1.386 . S
C2229 C2233 1.393 . S
C2230 H2222 0.955 . S
C2230 C2228 1.391 1_455 S
C2230 C2231 1.400 1_455 S
C2231 C2230 1.400 1_655 S
C2231 C2232 1.398 . S
C2231 C2237 1.491 1_665 S
C2232 H2223 0.950 . S
C2232 C2231 1.398 . S
C2232 C2233 1.391 . S
C2233 H2221 0.950 . S
C2233 C2229 1.393 . S
C2233 C2232 1.391 . S
C2234 H2224 0.950 . S
C2234 C2235 1.386 . S
C2234 C2236 1.391 1_455 S
C2235 C2234 1.386 . S
C2235 C2239 1.393 . S
C2236 H2225 0.952 . S
C2236 C2234 1.391 1_655 S
C2236 C2237 1.400 1_655 S
C2237 C2231 1.491 1_445 S
C2237 C2236 1.400 1_455 S
C2237 C2238 1.398 . S
C2238 H2226 0.950 . S
C2238 C2237 1.398 . S
C2238 C2239 1.391 . S
C2239 H2227 0.950 . S
C2239 C2235 1.393 . S
C2239 C2238 1.391 . S
H2240 C2248 0.950 1_655 S
H2241 C2253 0.950 . S
H2242 C2250 0.950 . S
H2243 C2252 0.950 . S
H2244 C2254 0.950 . S
H2245 C2256 0.950 1_455 S
H2246 C2258 0.950 . S
H2247 C2259 0.950 . S
C2248 H2240 0.950 1_455 S
C2248 C2249 1.386 . S
C2248 C2250 1.391 1_454 S
C2249 C2248 1.386 . S
C2249 C2253 1.393 1_554 S
C2250 H2242 0.950 . S
C2250 C2248 1.391 1_656 S
C2250 C2251 1.400 1_655 S
C2251 C2250 1.400 1_455 S
C2251 C2252 1.398 . S
C2251 C2257 1.491 1_455 S
C2252 H2243 0.950 . S
C2252 C2251 1.398 . S
C2252 C2253 1.391 . S
C2253 H2241 0.950 . S
C2253 C2249 1.393 1_556 S
C2253 C2252 1.391 . S
C2254 H2244 0.950 . S
C2254 C2255 1.386 . S
C2254 C2256 1.391 . S
C2255 C2254 1.386 . S
C2255 C2259 1.393 . S
C2256 H2245 0.950 1_655 S
C2256 C2254 1.391 . S
C2256 C2257 1.400 . S
C2257 C2251 1.491 1_655 S
C2257 C2256 1.400 . S
C2257 C2258 1.398 . S
C2258 H2246 0.950 . S
C2258 C2257 1.398 . S
C2258 C2259 1.391 . S
C2259 H2247 0.950 . S
C2259 C2255 1.393 . S
C2259 C2258 1.391 . S
H2260 C2268 0.950 . S
H2261 C2273 0.950 . S
H2262 C2270 0.950 . S
H2263 C2272 0.950 . S
H2264 C2274 0.950 . S
H2265 C2276 0.950 . S
H2266 C2278 0.950 . S
H2267 C2279 0.950 . S
C2268 H2260 0.950 . S
C2268 C2269 1.386 . S
C2268 C2270 1.391 1_556 S
C2269 C2268 1.386 . S
C2269 C2273 1.393 1_556 S
C2270 H2262 0.950 . S
C2270 C2268 1.391 1_554 S
C2270 C2271 1.400 . S
C2271 C2270 1.400 . S
C2271 C2272 1.398 . S
C2271 C2277 1.491 . S
C2272 H2263 0.950 . S
C2272 C2271 1.398 . S
C2272 C2273 1.391 . S
C2273 H2261 0.950 . S
C2273 C2269 1.393 1_554 S
C2273 C2272 1.391 . S
C2274 H2264 0.950 . S
C2274 C2275 1.386 . S
C2274 C2276 1.391 . S
C2275 C2274 1.386 . S
C2275 C2279 1.393 . S
C2276 H2265 0.950 . S
C2276 C2274 1.391 . S
C2276 C2277 1.400 . S
C2277 C2271 1.491 . S
C2277 C2276 1.400 . S
C2277 C2278 1.398 . S
C2278 H2266 0.950 . S
C2278 C2277 1.398 . S
C2278 C2279 1.391 . S
C2279 H2267 0.950 . S
C2279 C2275 1.393 . S
C2279 C2278 1.391 . S
H2280 C2288 0.950 . S
H2281 C2293 0.950 . S
H2282 C2290 0.950 . S
H2283 C2292 0.950 . S
H2284 C2294 0.950 . S
H2285 C2296 0.950 . S
H2286 C2298 0.950 . S
H2287 C2299 0.950 . S
C2288 H2280 0.950 . S
C2288 C2289 1.386 . S
C2288 C2290 1.391 . S
C2289 C2288 1.386 . S
C2289 C2293 1.393 . S
C2290 H2282 0.950 . S
C2290 C2288 1.391 . S
C2290 C2291 1.400 . S
C2291 C2290 1.400 . S
C2291 C2292 1.398 . S
C2291 C2297 1.491 . S
C2292 H2283 0.950 . S
C2292 C2291 1.398 . S
C2292 C2293 1.391 . S
C2293 H2281 0.950 . S
C2293 C2289 1.393 . S
C2293 C2292 1.391 . S
C2294 H2284 0.950 . S
C2294 C2295 1.386 . S
C2294 C2296 1.391 . S
C2295 C2294 1.386 . S
C2295 C2299 1.393 . S
C2296 H2285 0.950 . S
C2296 C2294 1.391 . S
C2296 C2297 1.400 . S
C2297 C2291 1.491 . S
C2297 C2296 1.400 . S
C2297 C2298 1.398 . S
C2298 H2286 0.950 . S
C2298 C2297 1.398 . S
C2298 C2299 1.391 . S
C2299 H2287 0.950 . S
C2299 C2295 1.393 . S
C2299 C2298 1.391 . S
H2300 C2308 0.950 . S
H2301 C2313 0.950 . S
H2302 C2310 0.950 . S
H2303 C2312 0.950 . S
H2304 C2314 0.950 . S
H2305 C2316 0.950 . S
H2306 C2318 0.950 . S
H2307 C2319 0.950 . S
C2308 H2300 0.950 . S
C2308 C2309 1.386 . S
C2308 C2310 1.391 . S
C2309 C2308 1.386 . S
C2309 C2313 1.393 . S
C2310 H2302 0.950 . S
C2310 C2308 1.391 . S
C2310 C2311 1.400 . S
C2311 C2310 1.400 . S
C2311 C2312 1.398 . S
C2311 C2317 1.491 . S
C2312 H2303 0.950 . S
C2312 C2311 1.398 . S
C2312 C2313 1.391 . S
C2313 H2301 0.950 . S
C2313 C2309 1.393 . S
C2313 C2312 1.391 . S
C2314 H2304 0.950 . S
C2314 C2315 1.386 . S
C2314 C2316 1.391 . S
C2315 C2314 1.386 . S
C2315 C2319 1.393 . S
C2316 H2305 0.950 . S
C2316 C2314 1.391 . S
C2316 C2317 1.400 . S
C2317 C2311 1.491 . S
C2317 C2316 1.400 . S
C2317 C2318 1.398 . S
C2318 H2306 0.950 . S
C2318 C2317 1.398 . S
C2318 C2319 1.391 . S
C2319 H2307 0.950 . S
C2319 C2315 1.393 . S
C2319 C2318 1.391 . S
H2320 C2328 0.950 . S
H2321 C2333 0.950 . S
H2322 C2330 0.950 . S
H2323 C2332 0.950 . S
H2324 C2334 0.950 . S
H2325 C2336 0.950 . S
H2326 C2338 0.950 . S
H2327 C2339 0.950 . S
C2328 H2320 0.950 . S
C2328 C2329 1.386 . S
C2328 C2330 1.391 . S
C2329 C2328 1.386 . S
C2329 C2333 1.393 1_655 S
C2330 H2322 0.950 . S
C2330 C2328 1.391 . S
C2330 C2331 1.400 1_655 S
C2331 C2330 1.400 1_455 S
C2331 C2332 1.398 . S
C2331 C2337 1.491 . S
C2332 H2323 0.950 . S
C2332 C2331 1.398 . S
C2332 C2333 1.391 . S
C2333 H2321 0.950 . S
C2333 C2329 1.393 1_455 S
C2333 C2332 1.391 . S
C2334 H2324 0.950 . S
C2334 C2335 1.386 . S
C2334 C2336 1.391 . S
C2335 C2334 1.386 . S
C2335 C2339 1.393 . S
C2336 H2325 0.950 . S
C2336 C2334 1.391 . S
C2336 C2337 1.400 . S
C2337 C2331 1.491 . S
C2337 C2336 1.400 . S
C2337 C2338 1.398 . S
C2338 H2326 0.950 . S
C2338 C2337 1.398 . S
C2338 C2339 1.391 . S
C2339 H2327 0.950 . S
C2339 C2335 1.393 . S
C2339 C2338 1.391 . S
H2340 C2348 0.950 . S
H2341 C2353 0.950 . S
H2342 C2350 0.950 . S
H2343 C2352 0.950 . S
H2344 C2354 0.950 . S
H2345 C2356 0.950 . S
H2346 C2358 0.950 . S
H2347 C2359 0.950 . S
C2348 H2340 0.950 . S
C2348 C2349 1.386 . S
C2348 C2350 1.391 . S
C2349 C2348 1.386 . S
C2349 C2353 1.393 . S
C2350 H2342 0.950 . S
C2350 C2348 1.391 . S
C2350 C2351 1.400 . S
C2351 C2350 1.400 . S
C2351 C2352 1.398 . S
C2351 C2357 1.491 . S
C2352 H2343 0.950 . S
C2352 C2351 1.398 . S
C2352 C2353 1.391 . S
C2353 H2341 0.950 . S
C2353 C2349 1.393 . S
C2353 C2352 1.391 . S
C2354 H2344 0.950 . S
C2354 C2355 1.386 . S
C2354 C2356 1.391 . S
C2355 C2354 1.386 . S
C2355 C2359 1.393 . S
C2356 H2345 0.950 . S
C2356 C2354 1.391 . S
C2356 C2357 1.400 . S
C2357 C2351 1.491 . S
C2357 C2356 1.400 . S
C2357 C2358 1.398 . S
C2358 H2346 0.950 . S
C2358 C2357 1.398 . S
C2358 C2359 1.391 . S
C2359 H2347 0.950 . S
C2359 C2355 1.393 . S
C2359 C2358 1.391 . S
H2360 C2368 0.950 . S
H2361 C2373 0.950 . S
H2362 C2370 0.950 . S
H2363 C2372 0.950 . S
H2364 C2374 0.950 . S
H2365 C2376 0.950 . S
H2366 C2378 0.950 . S
H2367 C2379 0.950 . S
C2368 H2360 0.950 . S
C2368 C2369 1.386 . S
C2368 C2370 1.391 . S
C2369 C2368 1.386 . S
C2369 C2373 1.393 . S
C2370 H2362 0.950 . S
C2370 C2368 1.391 . S
C2370 C2371 1.400 . S
C2371 C2370 1.400 . S
C2371 C2372 1.398 . S
C2371 C2377 1.491 . S
C2372 H2363 0.950 . S
C2372 C2371 1.398 . S
C2372 C2373 1.391 . S
C2373 H2361 0.950 . S
C2373 C2369 1.393 . S
C2373 C2372 1.391 . S
C2374 H2364 0.950 . S
C2374 C2375 1.386 . S
C2374 C2376 1.391 . S
C2375 C2374 1.386 . S
C2375 C2379 1.393 . S
C2376 H2365 0.950 . S
C2376 C2374 1.391 . S
C2376 C2377 1.400 . S
C2377 C2371 1.491 . S
C2377 C2376 1.400 . S
C2377 C2378 1.398 . S
C2378 H2366 0.950 . S
C2378 C2377 1.398 . S
C2378 C2379 1.391 . S
C2379 H2367 0.950 . S
C2379 C2375 1.393 . S
C2379 C2378 1.391 . S
H2380 C2388 0.950 . S
H2381 C2393 0.950 . S
H2382 C2390 0.950 . S
H2383 C2392 0.950 . S
H2384 C2394 0.950 . S
H2385 C2396 0.950 . S
H2386 C2398 0.950 . S
H2387 C2399 0.950 . S
C2388 H2380 0.950 . S
C2388 C2389 1.386 . S
C2388 C2390 1.391 . S
C2389 C2388 1.386 . S
C2389 C2393 1.393 . S
C2390 H2382 0.950 . S
C2390 C2388 1.391 . S
C2390 C2391 1.400 . S
C2391 C2390 1.400 . S
C2391 C2392 1.398 . S
C2391 C2397 1.491 . S
C2392 H2383 0.950 . S
C2392 C2391 1.398 . S
C2392 C2393 1.391 . S
C2393 H2381 0.950 . S
C2393 C2389 1.393 . S
C2393 C2392 1.391 . S
C2394 H2384 0.950 . S
C2394 C2395 1.386 . S
C2394 C2396 1.391 . S
C2395 C2394 1.386 . S
C2395 C2399 1.393 . S
C2396 H2385 0.950 . S
C2396 C2394 1.391 . S
C2396 C2397 1.400 . S
C2397 C2391 1.491 . S
C2397 C2396 1.400 . S
C2397 C2398 1.398 . S
C2398 H2386 0.950 . S
C2398 C2397 1.398 . S
C2398 C2399 1.391 . S
C2399 H2387 0.950 . S
C2399 C2395 1.393 . S
C2399 C2398 1.391 . S
H2400 C2408 0.950 . S
H2401 C2413 0.950 . S
H2402 C2410 0.950 . S
H2403 C2412 0.943 1_655 S
H2404 C2414 0.950 . S
H2405 C2416 0.950 . S
H2406 C2418 0.950 1_455 S
H2407 C2419 0.950 . S
C2408 H2400 0.950 . S
C2408 C2409 1.386 . S
C2408 C2410 1.391 . S
C2409 C2408 1.386 . S
C2409 C2413 1.393 . S
C2410 H2402 0.950 . S
C2410 C2408 1.391 . S
C2410 C2411 1.400 . S
C2411 C2410 1.400 . S
C2411 C2412 1.398 . S
C2411 C2417 1.491 1_455 S
C2412 H2403 0.943 1_455 S
C2412 C2411 1.398 . S
C2412 C2413 1.391 . S
C2413 H2401 0.950 . S
C2413 C2409 1.393 . S
C2413 C2412 1.391 . S
C2414 H2404 0.950 . S
C2414 C2415 1.386 . S
C2414 C2416 1.391 . S
C2415 C2414 1.386 . S
C2415 C2419 1.393 . S
C2416 H2405 0.950 . S
C2416 C2414 1.391 . S
C2416 C2417 1.400 . S
C2417 C2411 1.491 1_655 S
C2417 C2416 1.400 . S
C2417 C2418 1.398 . S
C2418 H2406 0.950 1_655 S
C2418 C2417 1.398 . S
C2418 C2419 1.391 . S
C2419 H2407 0.950 . S
C2419 C2415 1.393 . S
C2419 C2418 1.391 . S
H2420 C2428 0.950 . S
H2421 C2433 0.950 . S
H2422 C2430 0.950 . S
H2423 C2432 0.950 . S
H2424 C2434 0.950 . S
H2425 C2436 0.950 . S
H2426 C2438 0.950 . S
H2427 C2439 0.950 . S
C2428 H2420 0.950 . S
C2428 C2429 1.386 . S
C2428 C2430 1.391 . S
C2429 C2428 1.386 . S
C2429 C2433 1.393 . S
C2430 H2422 0.950 . S
C2430 C2428 1.391 . S
C2430 C2431 1.400 . S
C2431 C2430 1.400 . S
C2431 C2432 1.398 . S
C2431 C2437 1.491 . S
C2432 H2423 0.950 . S
C2432 C2431 1.398 . S
C2432 C2433 1.391 . S
C2433 H2421 0.950 . S
C2433 C2429 1.393 . S
C2433 C2432 1.391 . S
C2434 H2424 0.950 . S
C2434 C2435 1.386 . S
C2434 C2436 1.391 . S
C2435 C2434 1.386 . S
C2435 C2439 1.393 . S
C2436 H2425 0.950 . S
C2436 C2434 1.391 . S
C2436 C2437 1.400 . S
C2437 C2431 1.491 . S
C2437 C2436 1.400 . S
C2437 C2438 1.398 . S
C2438 H2426 0.950 . S
C2438 C2437 1.398 . S
C2438 C2439 1.391 . S
C2439 H2427 0.950 . S
C2439 C2435 1.393 . S
C2439 C2438 1.391 . S
H2440 C2448 0.950 . S
H2441 C2453 0.950 . S
H2442 C2450 0.950 . S
H2443 C2452 0.950 . S
H2444 C2454 0.950 . S
H2445 C2456 0.950 . S
H2446 C2458 0.950 . S
H2447 C2459 0.950 . S
C2448 H2440 0.950 . S
C2448 C2449 1.386 . S
C2448 C2450 1.391 . S
C2449 C2448 1.386 . S
C2449 C2453 1.393 . S
C2450 H2442 0.950 . S
C2450 C2448 1.391 . S
C2450 C2451 1.400 . S
C2451 C2450 1.400 . S
C2451 C2452 1.398 . S
C2451 C2457 1.491 . S
C2452 H2443 0.950 . S
C2452 C2451 1.398 . S
C2452 C2453 1.391 . S
C2453 H2441 0.950 . S
C2453 C2449 1.393 . S
C2453 C2452 1.391 . S
C2454 H2444 0.950 . S
C2454 C2455 1.386 . S
C2454 C2456 1.391 . S
C2455 C2454 1.386 . S
C2455 C2459 1.393 . S
C2456 H2445 0.950 . S
C2456 C2454 1.391 . S
C2456 C2457 1.400 . S
C2457 C2451 1.491 . S
C2457 C2456 1.400 . S
C2457 C2458 1.398 . S
C2458 H2446 0.950 . S
C2458 C2457 1.398 . S
C2458 C2459 1.391 . S
C2459 H2447 0.950 . S
C2459 C2455 1.393 . S
C2459 C2458 1.391 . S
H2460 C2468 0.950 . S
H2461 C2473 0.950 . S
H2462 C2470 0.950 . S
H2463 C2472 0.950 . S
H2464 C2474 0.950 . S
H2465 C2476 0.950 . S
H2466 C2478 0.950 . S
H2467 C2479 0.950 . S
C2468 H2460 0.950 . S
C2468 C2469 1.386 . S
C2468 C2470 1.391 . S
C2469 C2468 1.386 . S
C2469 C2473 1.393 . S
C2470 H2462 0.950 . S
C2470 C2468 1.391 . S
C2470 C2471 1.400 . S
C2471 C2470 1.400 . S
C2471 C2472 1.398 . S
C2471 C2477 1.491 . S
C2472 H2463 0.950 . S
C2472 C2471 1.398 . S
C2472 C2473 1.391 . S
C2473 H2461 0.950 . S
C2473 C2469 1.393 . S
C2473 C2472 1.391 . S
C2474 H2464 0.950 . S
C2474 C2475 1.386 . S
C2474 C2476 1.391 . S
C2475 C2474 1.386 . S
C2475 C2479 1.393 . S
C2476 H2465 0.950 . S
C2476 C2474 1.391 . S
C2476 C2477 1.400 . S
C2477 C2471 1.491 . S
C2477 C2476 1.400 . S
C2477 C2478 1.398 . S
C2478 H2466 0.950 . S
C2478 C2477 1.398 . S
C2478 C2479 1.391 . S
C2479 H2467 0.950 . S
C2479 C2475 1.393 . S
C2479 C2478 1.391 . S
H2480 C2488 0.950 . S
H2481 C2493 0.950 . S
H2482 C2490 0.950 . S
H2483 C2492 0.950 . S
H2484 C2494 0.950 . S
H2485 C2496 0.950 . S
H2486 C2498 0.950 . S
H2487 C2499 0.950 . S
C2488 H2480 0.950 . S
C2488 C2489 1.386 1_655 S
C2488 C2490 1.391 . S
C2489 C2488 1.386 1_455 S
C2489 C2493 1.393 . S
C2490 H2482 0.950 . S
C2490 C2488 1.391 . S
C2490 C2491 1.400 . S
C2491 C2490 1.400 . S
C2491 C2492 1.398 1_655 S
C2491 C2497 1.491 . S
C2492 H2483 0.950 . S
C2492 C2491 1.398 1_455 S
C2492 C2493 1.391 . S
C2493 H2481 0.950 . S
C2493 C2489 1.393 . S
C2493 C2492 1.391 . S
C2494 H2484 0.950 . S
C2494 C2495 1.386 . S
C2494 C2496 1.391 . S
C2495 C2494 1.386 . S
C2495 C2499 1.393 . S
C2496 H2485 0.950 . S
C2496 C2494 1.391 . S
C2496 C2497 1.400 . S
C2497 C2491 1.491 . S
C2497 C2496 1.400 . S
C2497 C2498 1.398 . S
C2498 H2486 0.950 . S
C2498 C2497 1.398 . S
C2498 C2499 1.391 . S
C2499 H2487 0.950 . S
C2499 C2495 1.393 . S
C2499 C2498 1.391 . S
H2500 C2508 0.950 . S
H2501 C2513 0.950 . S
H2502 C2510 0.950 . S
H2503 C2512 0.950 . S
H2504 C2514 0.950 . S
H2505 C2516 0.950 . S
H2506 C2518 0.950 . S
H2507 C2519 0.950 . S
C2508 H2500 0.950 . S
C2508 C2509 1.386 . S
C2508 C2510 1.391 1_556 S
C2509 C2508 1.386 . S
C2509 C2513 1.393 . S
C2510 H2502 0.950 . S
C2510 C2508 1.391 1_554 S
C2510 C2511 1.400 . S
C2511 C2510 1.400 . S
C2511 C2512 1.398 . S
C2511 C2517 1.491 . S
C2512 H2503 0.950 . S
C2512 C2511 1.398 . S
C2512 C2513 1.391 1_554 S
C2513 H2501 0.950 . S
C2513 C2509 1.393 . S
C2513 C2512 1.391 1_556 S
C2514 H2504 0.950 . S
C2514 C2515 1.386 . S
C2514 C2516 1.391 . S
C2515 C2514 1.386 . S
C2515 C2519 1.393 . S
C2516 H2505 0.950 . S
C2516 C2514 1.391 . S
C2516 C2517 1.400 . S
C2517 C2511 1.491 . S
C2517 C2516 1.400 . S
C2517 C2518 1.398 . S
C2518 H2506 0.950 . S
C2518 C2517 1.398 . S
C2518 C2519 1.391 . S
C2519 H2507 0.950 . S
C2519 C2515 1.393 . S
C2519 C2518 1.391 . S
H2520 C2528 0.950 . S
H2521 C2533 0.950 . S
H2522 C2530 0.950 . S
H2523 C2532 0.950 . S
H2524 C2534 0.950 . S
H2525 C2536 0.950 . S
H2526 C2538 0.950 . S
H2527 C2539 0.950 . S
C2528 H2520 0.950 . S
C2528 C2529 1.386 1_556 S
C2528 C2530 1.391 . S
C2529 C2528 1.386 1_554 S
C2529 C2533 1.393 . S
C2530 H2522 0.950 . S
C2530 C2528 1.391 . S
C2530 C2531 1.400 . S
C2531 C2530 1.400 . S
C2531 C2532 1.398 . S
C2531 C2537 1.491 . S
C2532 H2523 0.950 . S
C2532 C2531 1.398 . S
C2532 C2533 1.391 1_556 S
C2533 H2521 0.950 . S
C2533 C2529 1.393 . S
C2533 C2532 1.391 1_554 S
C2534 H2524 0.950 . S
C2534 C2535 1.386 . S
C2534 C2536 1.391 . S
C2535 C2534 1.386 . S
C2535 C2539 1.393 . S
C2536 H2525 0.950 . S
C2536 C2534 1.391 . S
C2536 C2537 1.400 . S
C2537 C2531 1.491 . S
C2537 C2536 1.400 . S
C2537 C2538 1.398 . S
C2538 H2526 0.950 . S
C2538 C2537 1.398 . S
C2538 C2539 1.391 . S
C2539 H2527 0.950 . S
C2539 C2535 1.393 . S
C2539 C2538 1.391 . S
H2540 C2548 0.950 . S
H2541 C2553 0.950 . S
H2542 C2550 0.950 . S
H2543 C2552 0.950 . S
H2544 C2554 0.950 . S
H2545 C2556 0.950 . S
H2546 C2558 0.950 . S
H2547 C2559 0.950 . S
C2548 H2540 0.950 . S
C2548 C2549 1.386 . S
C2548 C2550 1.391 . S
C2549 C2548 1.386 . S
C2549 C2553 1.393 . S
C2550 H2542 0.950 . S
C2550 C2548 1.391 . S
C2550 C2551 1.400 . S
C2551 C2550 1.400 . S
C2551 C2552 1.398 . S
C2551 C2557 1.491 . S
C2552 H2543 0.950 . S
C2552 C2551 1.398 . S
C2552 C2553 1.391 . S
C2553 H2541 0.950 . S
C2553 C2549 1.393 . S
C2553 C2552 1.391 . S
C2554 H2544 0.950 . S
C2554 C2555 1.386 . S
C2554 C2556 1.391 . S
C2555 C2554 1.386 . S
C2555 C2559 1.393 . S
C2556 H2545 0.950 . S
C2556 C2554 1.391 . S
C2556 C2557 1.400 . S
C2557 C2551 1.491 . S
C2557 C2556 1.400 . S
C2557 C2558 1.398 . S
C2558 H2546 0.950 . S
C2558 C2557 1.398 . S
C2558 C2559 1.391 . S
C2559 H2547 0.950 . S
C2559 C2555 1.393 . S
C2559 C2558 1.391 . S
H2560 C2568 0.950 . S
H2561 C2573 0.950 . S
H2562 C2570 0.950 . S
H2563 C2572 0.950 . S
H2564 C2574 0.950 . S
H2565 C2576 0.950 . S
H2566 C2578 0.950 . S
H2567 C2579 0.950 . S
C2568 H2560 0.950 . S
C2568 C2569 1.386 . S
C2568 C2570 1.391 . S
C2569 C2568 1.386 . S
C2569 C2573 1.393 . S
C2570 H2562 0.950 . S
C2570 C2568 1.391 . S
C2570 C2571 1.400 . S
C2571 C2570 1.400 . S
C2571 C2572 1.398 . S
C2571 C2577 1.491 . S
C2572 H2563 0.950 . S
C2572 C2571 1.398 . S
C2572 C2573 1.391 . S
C2573 H2561 0.950 . S
C2573 C2569 1.393 . S
C2573 C2572 1.391 . S
C2574 H2564 0.950 . S
C2574 C2575 1.386 . S
C2574 C2576 1.391 . S
C2575 C2574 1.386 . S
C2575 C2579 1.393 . S
C2576 H2565 0.950 . S
C2576 C2574 1.391 . S
C2576 C2577 1.400 . S
C2577 C2571 1.491 . S
C2577 C2576 1.400 . S
C2577 C2578 1.398 . S
C2578 H2566 0.950 . S
C2578 C2577 1.398 . S
C2578 C2579 1.391 . S
C2579 H2567 0.950 . S
C2579 C2575 1.393 . S
C2579 C2578 1.391 . S
H2580 C2588 0.950 . S
H2581 C2593 0.950 . S
H2582 C2590 0.950 . S
H2583 C2592 0.950 . S
H2584 C2594 0.950 . S
H2585 C2596 0.950 . S
H2586 C2598 0.950 . S
H2587 C2599 0.950 . S
C2588 H2580 0.950 . S
C2588 C2589 1.386 . S
C2588 C2590 1.391 . S
C2589 C2588 1.386 . S
C2589 C2593 1.393 . S
C2590 H2582 0.950 . S
C2590 C2588 1.391 . S
C2590 C2591 1.400 . S
C2591 C2590 1.400 . S
C2591 C2592 1.398 . S
C2591 C2597 1.491 . S
C2592 H2583 0.950 . S
C2592 C2591 1.398 . S
C2592 C2593 1.391 . S
C2593 H2581 0.950 . S
C2593 C2589 1.393 . S
C2593 C2592 1.391 . S
C2594 H2584 0.950 . S
C2594 C2595 1.386 . S
C2594 C2596 1.391 . S
C2595 C2594 1.386 . S
C2595 C2599 1.393 . S
C2596 H2585 0.950 . S
C2596 C2594 1.391 . S
C2596 C2597 1.400 . S
C2597 C2591 1.491 . S
C2597 C2596 1.400 . S
C2597 C2598 1.398 . S
C2598 H2586 0.950 . S
C2598 C2597 1.398 . S
C2598 C2599 1.391 . S
C2599 H2587 0.950 . S
C2599 C2595 1.393 . S
C2599 C2598 1.391 . S
H2600 C2608 0.950 1_554 S
H2601 C2613 0.950 . S
H2602 C2610 0.951 1_455 S
H2603 C2612 0.950 . S
H2604 C2614 0.945 1_655 S
H2605 C2616 0.950 . S
H2606 C2618 0.950 . S
H2607 C2619 0.950 . S
C2608 H2600 0.950 1_556 S
C2608 C2609 1.386 . S
C2608 C2610 1.390 . S
C2609 C2608 1.386 . S
C2609 C2613 1.393 . S
C2610 H2602 0.951 1_655 S
C2610 C2608 1.390 . S
C2610 C2611 1.400 . S
C2611 C2610 1.400 . S
C2611 C2612 1.398 . S
C2611 C2617 1.491 1_655 S
C2612 H2603 0.950 . S
C2612 C2611 1.398 . S
C2612 C2613 1.391 . S
C2613 H2601 0.950 . S
C2613 C2609 1.393 . S
C2613 C2612 1.391 . S
C2614 H2604 0.945 1_455 S
C2614 C2615 1.386 . S
C2614 C2616 1.391 1_455 S
C2615 C2614 1.386 . S
C2615 C2619 1.393 . S
C2616 H2605 0.950 . S
C2616 C2614 1.391 1_655 S
C2616 C2617 1.400 1_655 S
C2617 C2611 1.491 1_455 S
C2617 C2616 1.400 1_455 S
C2617 C2618 1.398 . S
C2618 H2606 0.950 . S
C2618 C2617 1.398 . S
C2618 C2619 1.391 . S
C2619 H2607 0.950 . S
C2619 C2615 1.393 . S
C2619 C2618 1.391 . S
H2620 C2628 0.950 . S
H2621 C2633 0.950 . S
H2622 C2630 0.950 . S
H2623 C2632 0.950 . S
H2624 C2634 0.950 . S
H2625 C2636 0.950 . S
H2626 C2638 0.950 . S
H2627 C2639 0.950 . S
C2628 H2620 0.950 . S
C2628 C2629 1.386 . S
C2628 C2630 1.391 . S
C2629 C2628 1.386 . S
C2629 C2633 1.393 . S
C2630 H2622 0.950 . S
C2630 C2628 1.391 . S
C2630 C2631 1.400 . S
C2631 C2630 1.400 . S
C2631 C2632 1.398 . S
C2631 C2637 1.491 . S
C2632 H2623 0.950 . S
C2632 C2631 1.398 . S
C2632 C2633 1.391 . S
C2633 H2621 0.950 . S
C2633 C2629 1.393 . S
C2633 C2632 1.391 . S
C2634 H2624 0.950 . S
C2634 C2635 1.386 . S
C2634 C2636 1.391 . S
C2635 C2634 1.386 . S
C2635 C2639 1.393 . S
C2636 H2625 0.950 . S
C2636 C2634 1.391 . S
C2636 C2637 1.400 . S
C2637 C2631 1.491 . S
C2637 C2636 1.400 . S
C2637 C2638 1.398 . S
C2638 H2626 0.950 . S
C2638 C2637 1.398 . S
C2638 C2639 1.391 . S
C2639 H2627 0.950 . S
C2639 C2635 1.393 . S
C2639 C2638 1.391 . S
H2640 C2648 0.950 . S
H2641 C2653 0.950 . S
H2642 C2650 0.950 . S
H2643 C2652 0.950 . S
H2644 C2654 0.950 . S
H2645 C2656 0.950 . S
H2646 C2658 0.950 . S
H2647 C2659 0.950 . S
C2648 H2640 0.950 . S
C2648 C2649 1.386 . S
C2648 C2650 1.391 . S
C2649 C2648 1.386 . S
C2649 C2653 1.393 . S
C2650 H2642 0.950 . S
C2650 C2648 1.391 . S
C2650 C2651 1.400 . S
C2651 C2650 1.400 . S
C2651 C2652 1.398 . S
C2651 C2657 1.491 . S
C2652 H2643 0.950 . S
C2652 C2651 1.398 . S
C2652 C2653 1.391 . S
C2653 H2641 0.950 . S
C2653 C2649 1.393 . S
C2653 C2652 1.391 . S
C2654 H2644 0.950 . S
C2654 C2655 1.386 . S
C2654 C2656 1.391 . S
C2655 C2654 1.386 . S
C2655 C2659 1.393 . S
C2656 H2645 0.950 . S
C2656 C2654 1.391 . S
C2656 C2657 1.400 . S
C2657 C2651 1.491 . S
C2657 C2656 1.400 . S
C2657 C2658 1.398 . S
C2658 H2646 0.950 . S
C2658 C2657 1.398 . S
C2658 C2659 1.391 . S
C2659 H2647 0.950 . S
C2659 C2655 1.393 . S
C2659 C2658 1.391 . S
H2660 C2668 0.950 . S
H2661 C2673 0.950 . S
H2662 C2670 0.950 . S
H2663 C2672 0.950 . S
H2664 C2674 0.950 . S
H2665 C2676 0.950 . S
H2666 C2678 0.950 . S
H2667 C2679 0.950 . S
C2668 H2660 0.950 . S
C2668 C2669 1.386 . S
C2668 C2670 1.391 . S
C2669 C2668 1.386 . S
C2669 C2673 1.393 . S
C2670 H2662 0.950 . S
C2670 C2668 1.391 . S
C2670 C2671 1.400 . S
C2671 C2670 1.400 . S
C2671 C2672 1.398 . S
C2671 C2677 1.491 . S
C2672 H2663 0.950 . S
C2672 C2671 1.398 . S
C2672 C2673 1.391 . S
C2673 H2661 0.950 . S
C2673 C2669 1.393 . S
C2673 C2672 1.391 . S
C2674 H2664 0.950 . S
C2674 C2675 1.386 . S
C2674 C2676 1.391 . S
C2675 C2674 1.386 . S
C2675 C2679 1.393 . S
C2676 H2665 0.950 . S
C2676 C2674 1.391 . S
C2676 C2677 1.400 . S
C2677 C2671 1.491 . S
C2677 C2676 1.400 . S
C2677 C2678 1.398 . S
C2678 H2666 0.950 . S
C2678 C2677 1.398 . S
C2678 C2679 1.391 . S
C2679 H2667 0.950 . S
C2679 C2675 1.393 . S
C2679 C2678 1.391 . S
H2680 C2688 0.950 . S
H2681 C2693 0.950 . S
H2682 C2690 0.950 . S
H2683 C2692 0.950 . S
H2684 C2694 0.950 . S
H2685 C2696 0.950 . S
H2686 C2698 0.950 . S
H2687 C2699 0.950 . S
C2688 H2680 0.950 . S
C2688 C2689 1.386 . S
C2688 C2690 1.391 . S
C2689 C2688 1.386 . S
C2689 C2693 1.393 . S
C2690 H2682 0.950 . S
C2690 C2688 1.391 . S
C2690 C2691 1.400 1_455 S
C2691 C2690 1.400 1_655 S
C2691 C2692 1.398 . S
C2691 C2697 1.491 . S
C2692 H2683 0.950 . S
C2692 C2691 1.398 . S
C2692 C2693 1.391 1_655 S
C2693 H2681 0.950 . S
C2693 C2689 1.393 . S
C2693 C2692 1.391 1_455 S
C2694 H2684 0.950 . S
C2694 C2695 1.386 . S
C2694 C2696 1.391 . S
C2695 C2694 1.386 . S
C2695 C2699 1.393 . S
C2696 H2685 0.950 . S
C2696 C2694 1.391 . S
C2696 C2697 1.400 . S
C2697 C2691 1.491 . S
C2697 C2696 1.400 . S
C2697 C2698 1.398 . S
C2698 H2686 0.950 . S
C2698 C2697 1.398 . S
C2698 C2699 1.391 . S
C2699 H2687 0.950 . S
C2699 C2695 1.393 . S
C2699 C2698 1.391 . S
H2700 C2708 0.950 . S
H2701 C2713 0.950 . S
H2702 C2710 0.950 . S
H2703 C2712 0.950 . S
H2704 C2714 0.950 . S
H2705 C2716 0.950 . S
H2706 C2718 0.950 . S
H2707 C2719 0.950 . S
C2708 H2700 0.950 . S
C2708 C2709 1.386 . S
C2708 C2710 1.391 . S
C2709 C2708 1.386 . S
C2709 C2713 1.393 . S
C2710 H2702 0.950 . S
C2710 C2708 1.391 . S
C2710 C2711 1.400 . S
C2711 C2710 1.400 . S
C2711 C2712 1.398 . S
C2711 C2717 1.491 . S
C2712 H2703 0.950 . S
C2712 C2711 1.398 . S
C2712 C2713 1.391 . S
C2713 H2701 0.950 . S
C2713 C2709 1.393 . S
C2713 C2712 1.391 . S
C2714 H2704 0.950 . S
C2714 C2715 1.386 . S
C2714 C2716 1.391 . S
C2715 C2714 1.386 . S
C2715 C2719 1.393 . S
C2716 H2705 0.950 . S
C2716 C2714 1.391 . S
C2716 C2717 1.400 . S
C2717 C2711 1.491 . S
C2717 C2716 1.400 . S
C2717 C2718 1.398 . S
C2718 H2706 0.950 . S
C2718 C2717 1.398 . S
C2718 C2719 1.391 . S
C2719 H2707 0.950 . S
C2719 C2715 1.393 . S
C2719 C2718 1.391 . S
H2720 C2728 0.950 . S
H2721 C2733 0.950 . S
H2722 C2730 0.950 . S
H2723 C2732 0.950 . S
H2724 C2734 0.950 . S
H2725 C2736 0.950 . S
H2726 C2738 0.950 . S
H2727 C2739 0.950 . S
C2728 H2720 0.950 . S
C2728 C2729 1.386 . S
C2728 C2730 1.391 . S
C2729 C2728 1.386 . S
C2729 C2733 1.393 . S
C2730 H2722 0.950 . S
C2730 C2728 1.391 . S
C2730 C2731 1.400 . S
C2731 C2730 1.400 . S
C2731 C2732 1.398 . S
C2731 C2737 1.491 . S
C2732 H2723 0.950 . S
C2732 C2731 1.398 . S
C2732 C2733 1.391 . S
C2733 H2721 0.950 . S
C2733 C2729 1.393 . S
C2733 C2732 1.391 . S
C2734 H2724 0.950 . S
C2734 C2735 1.386 . S
C2734 C2736 1.391 . S
C2735 C2734 1.386 . S
C2735 C2739 1.393 . S
C2736 H2725 0.950 . S
C2736 C2734 1.391 . S
C2736 C2737 1.400 . S
C2737 C2731 1.491 . S
C2737 C2736 1.400 . S
C2737 C2738 1.398 . S
C2738 H2726 0.950 . S
C2738 C2737 1.398 . S
C2738 C2739 1.391 . S
C2739 H2727 0.950 . S
C2739 C2735 1.393 . S
C2739 C2738 1.391 . S
H2740 C2748 0.950 . S
H2741 C2753 0.950 . S
H2742 C2750 0.950 . S
H2743 C2752 0.950 . S
H2744 C2754 0.950 . S
H2745 C2756 0.950 . S
H2746 C2758 0.950 . S
H2747 C2759 0.950 . S
C2748 H2740 0.950 . S
C2748 C2749 1.386 . S
C2748 C2750 1.391 . S
C2749 C2748 1.386 . S
C2749 C2753 1.393 . S
C2750 H2742 0.950 . S
C2750 C2748 1.391 . S
C2750 C2751 1.400 . S
C2751 C2750 1.400 . S
C2751 C2752 1.398 . S
C2751 C2757 1.491 . S
C2752 H2743 0.950 . S
C2752 C2751 1.398 . S
C2752 C2753 1.391 . S
C2753 H2741 0.950 . S
C2753 C2749 1.393 . S
C2753 C2752 1.391 . S
C2754 H2744 0.950 . S
C2754 C2755 1.386 . S
C2754 C2756 1.391 . S
C2755 C2754 1.386 . S
C2755 C2759 1.393 . S
C2756 H2745 0.950 . S
C2756 C2754 1.391 . S
C2756 C2757 1.400 . S
C2757 C2751 1.491 . S
C2757 C2756 1.400 . S
C2757 C2758 1.398 . S
C2758 H2746 0.950 . S
C2758 C2757 1.398 . S
C2758 C2759 1.391 . S
C2759 H2747 0.950 . S
C2759 C2755 1.393 . S
C2759 C2758 1.391 . S
H2760 C2768 0.950 . S
H2761 C2773 0.950 . S
H2762 C2770 0.950 1_655 S
H2763 C2772 0.950 . S
H2764 C2774 0.950 . S
H2765 C2776 0.950 . S
H2766 C2778 0.950 . S
H2767 C2779 0.950 . S
C2768 H2760 0.950 . S
C2768 C2769 1.386 . S
C2768 C2770 1.391 . S
C2769 C2768 1.386 . S
C2769 C2773 1.393 . S
C2770 H2762 0.950 1_455 S
C2770 C2768 1.391 . S
C2770 C2771 1.400 . S
C2771 C2770 1.400 . S
C2771 C2772 1.398 . S
C2771 C2777 1.491 1_455 S
C2772 H2763 0.950 . S
C2772 C2771 1.398 . S
C2772 C2773 1.391 . S
C2773 H2761 0.950 . S
C2773 C2769 1.393 . S
C2773 C2772 1.391 . S
C2774 H2764 0.950 . S
C2774 C2775 1.386 . S
C2774 C2776 1.391 1_655 S
C2775 C2774 1.386 . S
C2775 C2779 1.393 . S
C2776 H2765 0.950 . S
C2776 C2774 1.391 1_455 S
C2776 C2777 1.400 1_455 S
C2777 C2771 1.491 1_655 S
C2777 C2776 1.400 1_655 S
C2777 C2778 1.398 . S
C2778 H2766 0.950 . S
C2778 C2777 1.398 . S
C2778 C2779 1.391 . S
C2779 H2767 0.950 . S
C2779 C2775 1.393 . S
C2779 C2778 1.391 . S
H2780 C2788 0.950 . S
H2781 C2793 0.950 . S
H2782 C2790 0.950 . S
H2783 C2792 0.950 . S
H2784 C2794 0.950 . S
H2785 C2796 0.950 . S
H2786 C2798 0.950 . S
H2787 C2799 0.950 . S
C2788 H2780 0.950 . S
C2788 C2789 1.386 . S
C2788 C2790 1.391 . S
C2789 C2788 1.386 . S
C2789 C2793 1.393 . S
C2790 H2782 0.950 . S
C2790 C2788 1.391 . S
C2790 C2791 1.400 . S
C2791 C2790 1.400 . S
C2791 C2792 1.398 . S
C2791 C2797 1.491 . S
C2792 H2783 0.950 . S
C2792 C2791 1.398 . S
C2792 C2793 1.391 . S
C2793 H2781 0.950 . S
C2793 C2789 1.393 . S
C2793 C2792 1.391 . S
C2794 H2784 0.950 . S
C2794 C2795 1.386 . S
C2794 C2796 1.391 . S
C2795 C2794 1.386 . S
C2795 C2799 1.393 . S
C2796 H2785 0.950 . S
C2796 C2794 1.391 . S
C2796 C2797 1.400 . S
C2797 C2791 1.491 . S
C2797 C2796 1.400 . S
C2797 C2798 1.398 . S
C2798 H2786 0.950 . S
C2798 C2797 1.398 . S
C2798 C2799 1.391 . S
C2799 H2787 0.950 . S
C2799 C2795 1.393 . S
C2799 C2798 1.391 . S
H2800 C2808 0.950 . S
H2801 C2813 0.950 . S
H2802 C2810 0.950 . S
H2803 C2812 0.950 . S
H2804 C2814 0.950 . S
H2805 C2816 0.950 . S
H2806 C2818 0.950 . S
H2807 C2819 0.950 . S
C2808 H2800 0.950 . S
C2808 C2809 1.386 . S
C2808 C2810 1.391 . S
C2809 C2808 1.386 . S
C2809 C2813 1.393 . S
C2810 H2802 0.950 . S
C2810 C2808 1.391 . S
C2810 C2811 1.400 . S
C2811 C2810 1.400 . S
C2811 C2812 1.398 . S
C2811 C2817 1.491 . S
C2812 H2803 0.950 . S
C2812 C2811 1.398 . S
C2812 C2813 1.391 . S
C2813 H2801 0.950 . S
C2813 C2809 1.393 . S
C2813 C2812 1.391 . S
C2814 H2804 0.950 . S
C2814 C2815 1.386 . S
C2814 C2816 1.391 1_554 S
C2815 C2814 1.386 . S
C2815 C2819 1.393 . S
C2816 H2805 0.950 . S
C2816 C2814 1.391 1_556 S
C2816 C2817 1.400 . S
C2817 C2811 1.491 . S
C2817 C2816 1.400 . S
C2817 C2818 1.398 . S
C2818 H2806 0.950 . S
C2818 C2817 1.398 . S
C2818 C2819 1.391 1_556 S
C2819 H2807 0.950 . S
C2819 C2815 1.393 . S
C2819 C2818 1.391 1_554 S
H2820 C2828 0.950 . S
H2821 C2833 0.950 . S
H2822 C2830 0.950 . S
H2823 C2832 0.950 . S
H2824 C2834 0.950 . S
H2825 C2836 0.950 . S
H2826 C2838 0.950 . S
H2827 C2839 0.950 . S
C2828 H2820 0.950 . S
C2828 C2829 1.386 . S
C2828 C2830 1.391 . S
C2829 C2828 1.386 . S
C2829 C2833 1.393 . S
C2830 H2822 0.950 . S
C2830 C2828 1.391 . S
C2830 C2831 1.400 . S
C2831 C2830 1.400 . S
C2831 C2832 1.398 . S
C2831 C2837 1.491 . S
C2832 H2823 0.950 . S
C2832 C2831 1.398 . S
C2832 C2833 1.391 . S
C2833 H2821 0.950 . S
C2833 C2829 1.393 . S
C2833 C2832 1.391 . S
C2834 H2824 0.950 . S
C2834 C2835 1.386 . S
C2834 C2836 1.391 . S
C2835 C2834 1.386 . S
C2835 C2839 1.393 . S
C2836 H2825 0.950 . S
C2836 C2834 1.391 . S
C2836 C2837 1.400 . S
C2837 C2831 1.491 . S
C2837 C2836 1.400 . S
C2837 C2838 1.398 . S
C2838 H2826 0.950 . S
C2838 C2837 1.398 . S
C2838 C2839 1.391 . S
C2839 H2827 0.950 . S
C2839 C2835 1.393 . S
C2839 C2838 1.391 . S
H2840 C2848 0.950 . S
H2841 C2853 0.950 . S
H2842 C2850 0.950 . S
H2843 C2852 0.950 1_655 S
H2844 C2854 0.950 . S
H2845 C2856 0.950 . S
H2846 C2858 0.950 . S
H2847 C2859 0.950 . S
C2848 H2840 0.950 . S
C2848 C2849 1.386 . S
C2848 C2850 1.391 . S
C2849 C2848 1.386 . S
C2849 C2853 1.393 . S
C2850 H2842 0.950 . S
C2850 C2848 1.391 . S
C2850 C2851 1.400 . S
C2851 C2850 1.400 . S
C2851 C2852 1.398 . S
C2851 C2857 1.491 . S
C2852 H2843 0.950 1_455 S
C2852 C2851 1.398 . S
C2852 C2853 1.391 . S
C2853 H2841 0.950 . S
C2853 C2849 1.393 . S
C2853 C2852 1.391 . S
C2854 H2844 0.950 . S
C2854 C2855 1.386 . S
C2854 C2856 1.391 . S
C2855 C2854 1.386 . S
C2855 C2859 1.393 1_655 S
C2856 H2845 0.950 . S
C2856 C2854 1.391 . S
C2856 C2857 1.400 1_655 S
C2857 C2851 1.491 . S
C2857 C2856 1.400 1_455 S
C2857 C2858 1.398 . S
C2858 H2846 0.950 . S
C2858 C2857 1.398 . S
C2858 C2859 1.391 . S
C2859 H2847 0.950 . S
C2859 C2855 1.393 1_455 S
C2859 C2858 1.391 . S
H2860 C2868 0.950 . S
H2861 C2873 0.950 . S
H2862 C2870 0.950 . S
H2863 C2872 0.950 . S
H2864 C2874 0.950 . S
H2865 C2876 0.950 . S
H2866 C2878 0.950 . S
H2867 C2879 0.950 . S
C2868 H2860 0.950 . S
C2868 C2869 1.386 . S
C2868 C2870 1.391 . S
C2869 C2868 1.386 . S
C2869 C2873 1.393 . S
C2870 H2862 0.950 . S
C2870 C2868 1.391 . S
C2870 C2871 1.400 . S
C2871 C2870 1.400 . S
C2871 C2872 1.398 . S
C2871 C2877 1.491 . S
C2872 H2863 0.950 . S
C2872 C2871 1.398 . S
C2872 C2873 1.391 . S
C2873 H2861 0.950 . S
C2873 C2869 1.393 . S
C2873 C2872 1.391 . S
C2874 H2864 0.950 . S
C2874 C2875 1.386 . S
C2874 C2876 1.391 . S
C2875 C2874 1.386 . S
C2875 C2879 1.393 . S
C2876 H2865 0.950 . S
C2876 C2874 1.391 . S
C2876 C2877 1.400 . S
C2877 C2871 1.491 . S
C2877 C2876 1.400 . S
C2877 C2878 1.398 . S
C2878 H2866 0.950 . S
C2878 C2877 1.398 . S
C2878 C2879 1.391 . S
C2879 H2867 0.950 . S
C2879 C2875 1.393 . S
C2879 C2878 1.391 . S
H2880 C2888 0.950 . S
H2881 C2893 0.950 . S
H2882 C2890 0.950 . S
H2883 C2892 0.950 . S
H2884 C2894 0.950 . S
H2885 C2896 0.950 . S
H2886 C2898 0.950 . S
H2887 C2899 0.950 . S
C2888 H2880 0.950 . S
C2888 C2889 1.386 . S
C2888 C2890 1.391 . S
C2889 C2888 1.386 . S
C2889 C2893 1.393 . S
C2890 H2882 0.950 . S
C2890 C2888 1.391 . S
C2890 C2891 1.400 . S
C2891 C2890 1.400 . S
C2891 C2892 1.398 . S
C2891 C2897 1.491 . S
C2892 H2883 0.950 . S
C2892 C2891 1.398 . S
C2892 C2893 1.391 . S
C2893 H2881 0.950 . S
C2893 C2889 1.393 . S
C2893 C2892 1.391 . S
C2894 H2884 0.950 . S
C2894 C2895 1.386 . S
C2894 C2896 1.391 . S
C2895 C2894 1.386 . S
C2895 C2899 1.393 . S
C2896 H2885 0.950 . S
C2896 C2894 1.391 . S
C2896 C2897 1.400 . S
C2897 C2891 1.491 . S
C2897 C2896 1.400 . S
C2897 C2898 1.398 . S
C2898 H2886 0.950 . S
C2898 C2897 1.398 . S
C2898 C2899 1.391 . S
C2899 H2887 0.950 . S
C2899 C2895 1.393 . S
C2899 C2898 1.391 . S
H2900 C2908 0.950 . S
H2901 C2913 0.950 . S
H2902 C2910 0.950 . S
H2903 C2912 0.950 . S
H2904 C2914 0.950 . S
H2905 C2916 0.950 . S
H2906 C2918 0.950 . S
H2907 C2919 0.950 . S
C2908 H2900 0.950 . S
C2908 C2909 1.386 . S
C2908 C2910 1.391 . S
C2909 C2908 1.386 . S
C2909 C2913 1.393 . S
C2910 H2902 0.950 . S
C2910 C2908 1.391 . S
C2910 C2911 1.400 . S
C2911 C2910 1.400 . S
C2911 C2912 1.398 . S
C2911 C2917 1.491 . S
C2912 H2903 0.950 . S
C2912 C2911 1.398 . S
C2912 C2913 1.391 . S
C2913 H2901 0.950 . S
C2913 C2909 1.393 . S
C2913 C2912 1.391 . S
C2914 H2904 0.950 . S
C2914 C2915 1.386 . S
C2914 C2916 1.391 . S
C2915 C2914 1.386 . S
C2915 C2919 1.393 . S
C2916 H2905 0.950 . S
C2916 C2914 1.391 . S
C2916 C2917 1.400 . S
C2917 C2911 1.491 . S
C2917 C2916 1.400 . S
C2917 C2918 1.398 . S
C2918 H2906 0.950 . S
C2918 C2917 1.398 . S
C2918 C2919 1.391 . S
C2919 H2907 0.950 . S
C2919 C2915 1.393 . S
C2919 C2918 1.391 . S
H2920 C2928 0.950 . S
H2921 C2933 0.950 . S
H2922 C2930 0.950 . S
H2923 C2932 0.950 . S
H2924 C2934 0.950 . S
H2925 C2936 0.950 . S
H2926 C2938 0.950 . S
H2927 C2939 0.950 . S
C2928 H2920 0.950 . S
C2928 C2929 1.386 . S
C2928 C2930 1.391 . S
C2929 C2928 1.386 . S
C2929 C2933 1.393 . S
C2930 H2922 0.950 . S
C2930 C2928 1.391 . S
C2930 C2931 1.400 . S
C2931 C2930 1.400 . S
C2931 C2932 1.398 . S
C2931 C2937 1.491 . S
C2932 H2923 0.950 . S
C2932 C2931 1.398 . S
C2932 C2933 1.391 . S
C2933 H2921 0.950 . S
C2933 C2929 1.393 . S
C2933 C2932 1.391 . S
C2934 H2924 0.950 . S
C2934 C2935 1.386 . S
C2934 C2936 1.391 . S
C2935 C2934 1.386 . S
C2935 C2939 1.393 . S
C2936 H2925 0.950 . S
C2936 C2934 1.391 . S
C2936 C2937 1.400 . S
C2937 C2931 1.491 . S
C2937 C2936 1.400 . S
C2937 C2938 1.398 . S
C2938 H2926 0.950 . S
C2938 C2937 1.398 . S
C2938 C2939 1.391 . S
C2939 H2927 0.950 . S
C2939 C2935 1.393 . S
C2939 C2938 1.391 . S
H2940 C2948 0.950 . S
H2941 C2953 0.950 . S
H2942 C2950 0.950 . S
H2943 C2952 0.950 . S
H2944 C2954 0.950 . S
H2945 C2956 0.950 . S
H2946 C2958 0.950 . S
H2947 C2959 0.950 . S
C2948 H2940 0.950 . S
C2948 C2949 1.386 . S
C2948 C2950 1.391 . S
C2949 C2948 1.386 . S
C2949 C2953 1.393 . S
C2950 H2942 0.950 . S
C2950 C2948 1.391 . S
C2950 C2951 1.400 . S
C2951 C2950 1.400 . S
C2951 C2952 1.398 . S
C2951 C2957 1.491 . S
C2952 H2943 0.950 . S
C2952 C2951 1.398 . S
C2952 C2953 1.391 . S
C2953 H2941 0.950 . S
C2953 C2949 1.393 . S
C2953 C2952 1.391 . S
C2954 H2944 0.950 . S
C2954 C2955 1.386 . S
C2954 C2956 1.391 . S
C2955 C2954 1.386 . S
C2955 C2959 1.393 . S
C2956 H2945 0.950 . S
C2956 C2954 1.391 . S
C2956 C2957 1.400 . S
C2957 C2951 1.491 . S
C2957 C2956 1.400 . S
C2957 C2958 1.398 . S
C2958 H2946 0.950 . S
C2958 C2957 1.398 . S
C2958 C2959 1.391 . S
C2959 H2947 0.950 . S
C2959 C2955 1.393 . S
C2959 C2958 1.391 . S
H2960 C2968 0.950 . S
H2961 C2973 0.950 . S
H2962 C2970 0.950 . S
H2963 C2972 0.950 . S
H2964 C2974 0.950 . S
H2965 C2976 0.950 . S
H2966 C2978 0.950 . S
H2967 C2979 0.950 . S
C2968 H2960 0.950 . S
C2968 C2969 1.386 . S
C2968 C2970 1.391 . S
C2969 C2968 1.386 . S
C2969 C2973 1.393 . S
C2970 H2962 0.950 . S
C2970 C2968 1.391 . S
C2970 C2971 1.400 . S
C2971 C2970 1.400 . S
C2971 C2972 1.398 . S
C2971 C2977 1.491 . S
C2972 H2963 0.950 . S
C2972 C2971 1.398 . S
C2972 C2973 1.391 . S
C2973 H2961 0.950 . S
C2973 C2969 1.393 . S
C2973 C2972 1.391 . S
C2974 H2964 0.950 . S
C2974 C2975 1.386 . S
C2974 C2976 1.391 . S
C2975 C2974 1.386 . S
C2975 C2979 1.393 . S
C2976 H2965 0.950 . S
C2976 C2974 1.391 . S
C2976 C2977 1.400 . S
C2977 C2971 1.491 . S
C2977 C2976 1.400 . S
C2977 C2978 1.398 . S
C2978 H2966 0.950 . S
C2978 C2977 1.398 . S
C2978 C2979 1.391 . S
C2979 H2967 0.950 . S
C2979 C2975 1.393 . S
C2979 C2978 1.391 . S
H2980 C2988 0.950 . S
H2981 C2993 0.950 . S
H2982 C2990 0.950 . S
H2983 C2992 0.950 . S
H2984 C2994 0.950 . S
H2985 C2996 0.950 . S
H2986 C2998 0.950 . S
H2987 C2999 0.950 . S
C2988 H2980 0.950 . S
C2988 C2989 1.386 . S
C2988 C2990 1.391 . S
C2989 C2988 1.386 . S
C2989 C2993 1.393 . S
C2990 H2982 0.950 . S
C2990 C2988 1.391 . S
C2990 C2991 1.400 . S
C2991 C2990 1.400 . S
C2991 C2992 1.398 . S
C2991 C2997 1.491 . S
C2992 H2983 0.950 . S
C2992 C2991 1.398 . S
C2992 C2993 1.391 . S
C2993 H2981 0.950 . S
C2993 C2989 1.393 . S
C2993 C2992 1.391 . S
C2994 H2984 0.950 . S
C2994 C2995 1.386 . S
C2994 C2996 1.391 . S
C2995 C2994 1.386 . S
C2995 C2999 1.393 . S
C2996 H2985 0.950 . S
C2996 C2994 1.391 . S
C2996 C2997 1.400 . S
C2997 C2991 1.491 . S
C2997 C2996 1.400 . S
C2997 C2998 1.398 . S
C2998 H2986 0.950 . S
C2998 C2997 1.398 . S
C2998 C2999 1.391 . S
C2999 H2987 0.950 . S
C2999 C2995 1.393 . S
C2999 C2998 1.391 . S
H3000 C3008 0.950 . S
H3001 C3013 0.950 . S
H3002 C3010 0.950 . S
H3003 C3012 0.950 . S
H3004 C3014 0.950 . S
H3005 C3016 0.950 . S
H3006 C3018 0.950 . S
H3007 C3019 0.950 . S
C3008 H3000 0.950 . S
C3008 C3009 1.386 . S
C3008 C3010 1.391 1_556 S
C3009 C3008 1.386 . S
C3009 C3013 1.393 . S
C3010 H3002 0.950 . S
C3010 C3008 1.391 1_554 S
C3010 C3011 1.400 . S
C3011 C3010 1.400 . S
C3011 C3012 1.398 . S
C3011 C3017 1.491 . S
C3012 H3003 0.950 . S
C3012 C3011 1.398 . S
C3012 C3013 1.391 1_554 S
C3013 H3001 0.950 . S
C3013 C3009 1.393 . S
C3013 C3012 1.391 1_556 S
C3014 H3004 0.950 . S
C3014 C3015 1.386 . S
C3014 C3016 1.391 . S
C3015 C3014 1.386 . S
C3015 C3019 1.393 . S
C3016 H3005 0.950 . S
C3016 C3014 1.391 . S
C3016 C3017 1.400 . S
C3017 C3011 1.491 . S
C3017 C3016 1.400 . S
C3017 C3018 1.398 . S
C3018 H3006 0.950 . S
C3018 C3017 1.398 . S
C3018 C3019 1.391 . S
C3019 H3007 0.950 . S
C3019 C3015 1.393 . S
C3019 C3018 1.391 . S
H3020 C3028 0.950 . S
H3021 C3033 0.950 . S
H3022 C3030 0.950 . S
H3023 C3032 0.950 . S
H3024 C3034 0.950 . S
H3025 C3036 0.950 . S
H3026 C3038 0.950 . S
H3027 C3039 0.950 . S
C3028 H3020 0.950 . S
C3028 C3029 1.386 . S
C3028 C3030 1.391 . S
C3029 C3028 1.386 . S
C3029 C3033 1.393 . S
C3030 H3022 0.950 . S
C3030 C3028 1.391 . S
C3030 C3031 1.400 . S
C3031 C3030 1.400 . S
C3031 C3032 1.398 . S
C3031 C3037 1.491 . S
C3032 H3023 0.950 . S
C3032 C3031 1.398 . S
C3032 C3033 1.391 . S
C3033 H3021 0.950 . S
C3033 C3029 1.393 . S
C3033 C3032 1.391 . S
C3034 H3024 0.950 . S
C3034 C3035 1.386 . S
C3034 C3036 1.391 . S
C3035 C3034 1.386 . S
C3035 C3039 1.393 . S
C3036 H3025 0.950 . S
C3036 C3034 1.391 . S
C3036 C3037 1.400 . S
C3037 C3031 1.491 . S
C3037 C3036 1.400 . S
C3037 C3038 1.398 . S
C3038 H3026 0.950 . S
C3038 C3037 1.398 . S
C3038 C3039 1.391 . S
C3039 H3027 0.950 . S
C3039 C3035 1.393 . S
C3039 C3038 1.391 . S
H3040 C3048 0.950 . S
H3041 C3053 0.950 . S
H3042 C3050 0.950 . S
H3043 C3052 0.950 . S
H3044 C3054 0.950 . S
H3045 C3056 0.950 . S
H3046 C3058 0.950 . S
H3047 C3059 0.950 . S
C3048 H3040 0.950 . S
C3048 C3049 1.386 . S
C3048 C3050 1.391 . S
C3049 C3048 1.386 . S
C3049 C3053 1.393 . S
C3050 H3042 0.950 . S
C3050 C3048 1.391 . S
C3050 C3051 1.400 . S
C3051 C3050 1.400 . S
C3051 C3052 1.398 . S
C3051 C3057 1.491 . S
C3052 H3043 0.950 . S
C3052 C3051 1.398 . S
C3052 C3053 1.391 . S
C3053 H3041 0.950 . S
C3053 C3049 1.393 . S
C3053 C3052 1.391 . S
C3054 H3044 0.950 . S
C3054 C3055 1.386 . S
C3054 C3056 1.391 1_545 S
C3055 C3054 1.386 . S
C3055 C3059 1.393 . S
C3056 H3045 0.950 . S
C3056 C3054 1.391 1_565 S
C3056 C3057 1.400 . S
C3057 C3051 1.491 . S
C3057 C3056 1.400 . S
C3057 C3058 1.398 1_565 S
C3058 H3046 0.950 . S
C3058 C3057 1.398 1_545 S
C3058 C3059 1.391 . S
C3059 H3047 0.950 . S
C3059 C3055 1.393 . S
C3059 C3058 1.391 . S
H3060 C3068 0.950 . S
H3061 C3073 0.950 . S
H3062 C3070 0.950 . S
H3063 C3072 0.950 . S
H3064 C3074 0.950 . S
H3065 C3076 0.950 . S
H3066 C3078 0.950 . S
H3067 C3079 0.950 . S
C3068 H3060 0.950 . S
C3068 C3069 1.386 . S
C3068 C3070 1.391 . S
C3069 C3068 1.386 . S
C3069 C3073 1.393 . S
C3070 H3062 0.950 . S
C3070 C3068 1.391 . S
C3070 C3071 1.400 . S
C3071 C3070 1.400 . S
C3071 C3072 1.398 . S
C3071 C3077 1.491 . S
C3072 H3063 0.950 . S
C3072 C3071 1.398 . S
C3072 C3073 1.391 . S
C3073 H3061 0.950 . S
C3073 C3069 1.393 . S
C3073 C3072 1.391 . S
C3074 H3064 0.950 . S
C3074 C3075 1.386 . S
C3074 C3076 1.391 . S
C3075 C3074 1.386 . S
C3075 C3079 1.393 . S
C3076 H3065 0.950 . S
C3076 C3074 1.391 . S
C3076 C3077 1.400 . S
C3077 C3071 1.491 . S
C3077 C3076 1.400 . S
C3077 C3078 1.398 . S
C3078 H3066 0.950 . S
C3078 C3077 1.398 . S
C3078 C3079 1.391 . S
C3079 H3067 0.950 . S
C3079 C3075 1.393 . S
C3079 C3078 1.391 . S
H3080 C3088 0.950 . S
H3081 C3093 0.950 . S
H3082 C3090 0.950 1_565 S
H3083 C3092 0.950 . S
H3084 C3094 0.950 . S
H3085 C3096 0.950 . S
H3086 C3098 0.950 . S
H3087 C3099 0.950 . S
C3088 H3080 0.950 . S
C3088 C3089 1.386 . S
C3088 C3090 1.391 . S
C3089 C3088 1.386 . S
C3089 C3093 1.393 . S
C3090 H3082 0.950 1_545 S
C3090 C3088 1.391 . S
C3090 C3091 1.400 . S
C3091 C3090 1.400 . S
C3091 C3092 1.398 . S
C3091 C3097 1.491 1_545 S
C3092 H3083 0.950 . S
C3092 C3091 1.398 . S
C3092 C3093 1.391 . S
C3093 H3081 0.950 . S
C3093 C3089 1.393 . S
C3093 C3092 1.391 . S
C3094 H3084 0.950 . S
C3094 C3095 1.386 . S
C3094 C3096 1.391 1_565 S
C3095 C3094 1.386 . S
C3095 C3099 1.393 . S
C3096 H3085 0.950 . S
C3096 C3094 1.391 1_545 S
C3096 C3097 1.400 1_545 S
C3097 C3091 1.491 1_565 S
C3097 C3096 1.400 1_565 S
C3097 C3098 1.398 . S
C3098 H3086 0.950 . S
C3098 C3097 1.398 . S
C3098 C3099 1.391 . S
C3099 H3087 0.950 . S
C3099 C3095 1.393 . S
C3099 C3098 1.391 . S
H3100 C3108 0.950 . S
H3101 C3113 0.950 . S
H3102 C3110 0.950 . S
H3103 C3112 0.950 . S
H3104 C3114 0.950 . S
H3105 C3116 0.950 . S
H3106 C3118 0.950 . S
H3107 C3119 0.950 . S
C3108 H3100 0.950 . S
C3108 C3109 1.386 . S
C3108 C3110 1.391 . S
C3109 C3108 1.386 . S
C3109 C3113 1.393 . S
C3110 H3102 0.950 . S
C3110 C3108 1.391 . S
C3110 C3111 1.400 . S
C3111 C3110 1.400 . S
C3111 C3112 1.398 . S
C3111 C3117 1.491 . S
C3112 H3103 0.950 . S
C3112 C3111 1.398 . S
C3112 C3113 1.391 . S
C3113 H3101 0.950 . S
C3113 C3109 1.393 . S
C3113 C3112 1.391 . S
C3114 H3104 0.950 . S
C3114 C3115 1.386 . S
C3114 C3116 1.391 . S
C3115 C3114 1.386 . S
C3115 C3119 1.393 . S
C3116 H3105 0.950 . S
C3116 C3114 1.391 . S
C3116 C3117 1.400 1_556 S
C3117 C3111 1.491 . S
C3117 C3116 1.400 1_554 S
C3117 C3118 1.398 . S
C3118 H3106 0.950 . S
C3118 C3117 1.398 . S
C3118 C3119 1.391 1_554 S
C3119 H3107 0.950 . S
C3119 C3115 1.393 . S
C3119 C3118 1.391 1_556 S
H3120 C3128 0.961 . S
H3121 C3133 0.950 . S
H3122 C3130 0.950 . S
H3123 C3132 0.950 . S
H3124 C3134 0.950 . S
H3125 C3136 0.950 1_565 S
H3126 C3138 0.950 1_554 S
H3127 C3139 0.950 . S
C3128 H3120 0.961 . S
C3128 C3129 1.363 1_545 S
C3128 C3130 1.403 . S
C3129 C3128 1.363 1_565 S
C3129 C3133 1.393 . S
C3130 H3122 0.950 . S
C3130 C3128 1.403 . S
C3130 C3131 1.400 . S
C3131 C3130 1.400 . S
C3131 C3132 1.398 1_545 S
C3131 C3137 1.491 . S
C3132 H3123 0.950 . S
C3132 C3131 1.398 1_565 S
C3132 C3133 1.391 . S
C3133 H3121 0.950 . S
C3133 C3129 1.393 . S
C3133 C3132 1.391 . S
C3134 H3124 0.950 . S
C3134 C3135 1.386 . S
C3134 C3136 1.391 . S
C3135 C3134 1.386 . S
C3135 C3139 1.393 . S
C3136 H3125 0.950 1_545 S
C3136 C3134 1.391 . S
C3136 C3137 1.400 1_556 S
C3137 C3131 1.491 . S
C3137 C3136 1.400 1_554 S
C3137 C3138 1.398 1_554 S
C3138 H3126 0.950 1_556 S
C3138 C3137 1.398 1_556 S
C3138 C3139 1.391 . S
C3139 H3127 0.950 . S
C3139 C3135 1.393 . S
C3139 C3138 1.391 . S
H3140 C3148 0.950 . S
H3141 C3153 0.950 . S
H3142 C3150 0.950 . S
H3143 C3152 0.950 . S
H3144 C3154 0.950 . S
H3145 C3156 0.950 . S
H3146 C3158 0.950 . S
H3147 C3159 0.950 . S
C3148 H3140 0.950 . S
C3148 C3149 1.386 . S
C3148 C3150 1.391 . S
C3149 C3148 1.386 . S
C3149 C3153 1.393 . S
C3150 H3142 0.950 . S
C3150 C3148 1.391 . S
C3150 C3151 1.400 . S
C3151 C3150 1.400 . S
C3151 C3152 1.398 . S
C3151 C3157 1.491 . S
C3152 H3143 0.950 . S
C3152 C3151 1.398 . S
C3152 C3153 1.391 . S
C3153 H3141 0.950 . S
C3153 C3149 1.393 . S
C3153 C3152 1.391 . S
C3154 H3144 0.950 . S
C3154 C3155 1.386 . S
C3154 C3156 1.391 . S
C3155 C3154 1.386 . S
C3155 C3159 1.393 . S
C3156 H3145 0.950 . S
C3156 C3154 1.391 . S
C3156 C3157 1.400 . S
C3157 C3151 1.491 . S
C3157 C3156 1.400 . S
C3157 C3158 1.398 . S
C3158 H3146 0.950 . S
C3158 C3157 1.398 . S
C3158 C3159 1.391 . S
C3159 H3147 0.950 . S
C3159 C3155 1.393 . S
C3159 C3158 1.391 . S
H3160 C3168 0.950 1_545 S
H3161 C3173 0.950 . S
H3162 C3170 0.950 . S
H3163 C3172 0.950 . S
H3164 C3174 0.932 1_565 S
H3165 C3176 0.950 . S
H3166 C3178 0.950 . S
H3167 C3179 0.950 . S
C3168 H3160 0.950 1_565 S
C3168 C3169 1.386 . S
C3168 C3170 1.391 1_565 S
C3169 C3168 1.386 . S
C3169 C3173 1.393 . S
C3170 H3162 0.950 . S
C3170 C3168 1.391 1_545 S
C3170 C3171 1.400 1_545 S
C3171 C3170 1.400 1_565 S
C3171 C3172 1.398 . S
C3171 C3177 1.491 1_565 S
C3172 H3163 0.950 . S
C3172 C3171 1.398 . S
C3172 C3173 1.391 . S
C3173 H3161 0.950 . S
C3173 C3169 1.393 . S
C3173 C3172 1.391 . S
C3174 H3164 0.932 1_545 S
C3174 C3175 1.422 . S
C3174 C3176 1.373 1_545 S
C3175 C3174 1.422 . S
C3175 C3179 1.393 . S
C3176 H3165 0.950 . S
C3176 C3174 1.373 1_565 S
C3176 C3177 1.400 1_565 S
C3177 C3171 1.491 1_545 S
C3177 C3176 1.400 1_545 S
C3177 C3178 1.398 . S
C3178 H3166 0.950 . S
C3178 C3177 1.398 . S
C3178 C3179 1.391 . S
C3179 H3167 0.950 . S
C3179 C3175 1.393 . S
C3179 C3178 1.391 . S
H3180 C3188 0.950 . S
H3181 C3193 0.950 . S
H3182 C3190 0.950 . S
H3183 C3192 0.950 . S
H3184 C3194 0.950 . S
H3185 C3196 0.950 . S
H3186 C3198 0.950 . S
H3187 C3199 0.950 . S
C3188 H3180 0.950 . S
C3188 C3189 1.386 . S
C3188 C3190 1.391 . S
C3189 C3188 1.386 . S
C3189 C3193 1.393 . S
C3190 H3182 0.950 . S
C3190 C3188 1.391 . S
C3190 C3191 1.400 . S
C3191 C3190 1.400 . S
C3191 C3192 1.398 . S
C3191 C3197 1.491 . S
C3192 H3183 0.950 . S
C3192 C3191 1.398 . S
C3192 C3193 1.391 . S
C3193 H3181 0.950 . S
C3193 C3189 1.393 . S
C3193 C3192 1.391 . S
C3194 H3184 0.950 . S
C3194 C3195 1.386 . S
C3194 C3196 1.391 . S
C3195 C3194 1.386 . S
C3195 C3199 1.393 . S
C3196 H3185 0.950 . S
C3196 C3194 1.391 . S
C3196 C3197 1.400 . S
C3197 C3191 1.491 . S
C3197 C3196 1.400 . S
C3197 C3198 1.398 . S
C3198 H3186 0.950 . S
C3198 C3197 1.398 . S
C3198 C3199 1.391 . S
C3199 H3187 0.950 . S
C3199 C3195 1.393 . S
C3199 C3198 1.391 . S
C1289 C10 0.284 . S
C1295 C175 0.210 . S
C1309 C215 0.384 . S
C1315 C55 0.382 . S
C1329 C90 0.271 . S
C1335 C255 0.190 . S
C1349 C295 0.250 . S
C1355 C130 0.281 . S
C1369 C339 0.286 . S
C1375 C486 0.255 . S
C1389 C366 0.442 . S
C1395 C526 0.367 . S
C1409 C566 0.232 . S
C1415 C419 0.253 . S
C1429 C459 0.352 . S
C1435 C606 0.255 . S
C1449 C815 0.298 . S
C1455 C650 0.204 . S
C1469 C695 0.396 . S
C1475 C855 0.321 . S
C1489 C730 0.343 . S
C1495 C895 0.160 . S
C1509 C770 0.317 . S
C1515 C935 0.282 . S
C1529 C979 0.290 . S
C1535 C1126 0.221 . S
C1549 C1166 0.392 . S
C1555 C1006 0.399 . S
C1569 C1059 0.251 . S
C1575 C1206 0.222 . S
C1589 C1246 0.219 . S
C1595 C1099 0.362 . S
C1609 C849 1.906 . S
C1615 C18 1.883 . S
C1629 C889 1.322 . S
C1635 C49 1.323 . S
C1649 C929 1.872 . S
C1655 C98 1.847 . S
C1669 C138 1.390 . S
C1675 C809 1.403 . S
C1689 C169 1.383 . S
C1695 C778 1.372 . S
C1709 C658 1.878 . S
C1715 C209 1.901 . S
C1729 C249 1.348 . S
C1735 C689 1.331 . S
C1749 C289 1.844 . S
C1755 C738 1.816 . S
C1769 C329 1.897 . S
C1775 C1178 1.915 . S
C1789 C1218 1.334 . S
C1795 C378 1.314 . S
C1809 C1258 1.866 . S
C1815 C409 1.842 . S
C1829 C449 1.400 . S
C1835 C1138 1.412 . S
C1849 C498 1.385 . S
C1855 C1089 1.373 . S
C1869 C538 1.896 . S
C1875 C969 1.876 . S
C1889 C578 1.332 . S
C1895 C1018 1.345 . S
C1909 C618 1.869 1_554 S
C1915 C1049 1.844 . S
C1929 C338 0.631 . S
C1935 C9 0.631 . S
C1949 C58 0.653 . S
C1955 C1009 0.653 . S
C1969 C418 0.800 . S
C1975 C89 0.800 . S
C1989 C129 0.672 . S
C1995 C1098 0.672 . S
C2009 C489 0.500 . S
C2015 C178 0.500 . S
C2029 C1169 0.661 . S
C2035 C218 0.661 . S
C2049 C258 0.418 . S
C2055 C569 0.418 . S
C2069 C298 0.527 . S
C2075 C1249 0.527 . S
C2089 C698 0.653 . S
C2095 C369 0.653 . S
C2109 C769 0.696 . S
C2115 C458 0.696 . S
C2129 C529 0.684 . S
C2135 C858 0.684 . S
C2149 C938 0.529 . S
C2155 C609 0.529 . S
C2169 C978 0.709 . S
C2175 C649 0.709 . S
C2189 C1058 0.761 . S
C2195 C729 0.761 . S
C2209 C1129 0.446 . S
C2215 C818 0.446 . S
C2229 C898 0.422 . S
C2235 C1209 0.422 . S
C2249 C19 2.183 . S
C2255 C490 2.216 . S
C2269 C1170 1.355 . S
C2275 C46 1.340 . S
C2289 C570 2.217 . S
C2295 C99 2.192 . S
C2309 C139 1.914 . S
C2315 C1250 1.927 . S
C2329 C335 0.764 . S
C2335 C166 0.741 . S
C2349 C1010 1.631 . S
C2355 C206 1.613 . S
C2369 C415 0.815 . S
C2375 C246 0.789 . S
C2389 C1095 0.975 . S
C2395 C286 0.953 . S
C2409 C179 2.218 . S
C2415 C330 2.195 . S
C2429 C859 1.365 . S
C2435 C375 1.334 . S
C2449 C259 2.212 1_556 S
C2455 C410 2.184 . S
C2469 C450 1.899 . S
C2475 C939 1.922 . S
C2489 C6 0.763 . S
C2495 C495 0.748 . S
C2509 C699 1.625 . S
C2515 C535 1.596 . S
C2529 C575 0.799 . S
C2535 C86 0.829 . S
C2549 C615 0.986 . S
C2555 C766 0.977 . S
C2569 C1130 2.212 . S
C2575 C659 2.182 . S
C2589 C530 1.365 . S
C2595 C686 1.334 . S
C2609 C739 2.185 1_556 S
C2615 C1210 2.213 . S
C2629 C610 1.921 . S
C2635 C779 1.899 . S
C2649 C806 0.752 . S
C2655 C975 0.731 . S
C2669 C846 1.604 . S
C2675 C370 1.625 . S
C2689 C1055 0.809 . S
C2695 C886 0.792 . S
C2709 C455 0.986 . S
C2715 C926 0.952 . S
C2729 C970 2.191 . S
C2735 C819 2.210 1_556 S
C2749 C1015 1.317 . S
C2755 C219 1.363 . S
C2769 C1050 2.197 . S
C2775 C899 2.209 . S
C2789 C1090 1.913 . S
C2795 C299 1.923 . S
C2809 C646 0.759 . S
C2815 C1135 0.760 . S
C2829 C59 1.642 . S
C2835 C1175 1.597 . S
C2849 C1215 0.790 . S
C2855 C726 0.821 . S
C2869 C126 0.977 . S
C2875 C1255 0.952 . S
C2889 C170 2.336 . S
C2895 C15 2.297 . S
C2909 C210 3.139 1_554 S
C2915 C50 3.145 . S
C2929 C95 2.341 . S
C2935 C250 2.380 . S
C2949 C290 2.302 . S
C2955 C135 2.271 . S
C2969 C499 2.342 . S
C2975 C326 2.297 . S
C2989 C379 3.147 . S
C2995 C539 3.135 . S
C3009 C406 2.339 . S
C3015 C579 2.382 . S
C3029 C619 2.297 . S
C3035 C446 2.276 . S
C3049 C655 2.300 . S
C3055 C810 2.336 . S
C3069 C850 3.136 . S
C3075 C690 3.149 . S
C3089 C735 2.338 . S
C3095 C890 2.377 . S
C3109 C775 2.283 . S
C3115 C930 2.298 . S
C3129 C1139 2.339 . S
C3135 C966 2.307 . S
C3149 C1179 3.138 . S
C3155 C1019 3.151 . S
C3169 C1046 2.328 . S
C3175 C1219 2.381 . S
C3189 C1259 2.302 . S
C3195 C1086 2.272 . S
