# Generated by pormake.
# Topology sxg, (6)-cn, num edge types: 1
# Building blocks:
#     Node 0, Type 0, BuildingBlock: UKALOJ_clean_sbu_0, # of connection points: 6
#     Node 1, Type 0, BuildingBlock: UKALOJ_clean_sbu_0, # of connection points: 6
#     Node 2, Type 0, BuildingBlock: UKALOJ_clean_sbu_0, # of connection points: 6
#     Node 3, Type 0, BuildingBlock: UKALOJ_clean_sbu_0, # of connection points: 6
#     Node 4, Type 0, BuildingBlock: UKALOJ_clean_sbu_0, # of connection points: 6
#     Node 5, Type 0, BuildingBlock: UKALOJ_clean_sbu_0, # of connection points: 6
#     Node 6, Type 0, BuildingBlock: UKALOJ_clean_sbu_0, # of connection points: 6
#     Node 7, Type 0, BuildingBlock: UKALOJ_clean_sbu_0, # of connection points: 6
#     Node 8, Type 0, BuildingBlock: UKALOJ_clean_sbu_0, # of connection points: 6
#     Node 9, Type 0, BuildingBlock: UKALOJ_clean_sbu_0, # of connection points: 6
#     Node 10, Type 0, BuildingBlock: UKALOJ_clean_sbu_0, # of connection points: 6
#     Node 11, Type 0, BuildingBlock: UKALOJ_clean_sbu_0, # of connection points: 6
#     Node 12, Type 0, BuildingBlock: UKALOJ_clean_sbu_0, # of connection points: 6
#     Node 13, Type 0, BuildingBlock: UKALOJ_clean_sbu_0, # of connection points: 6
#     Node 14, Type 0, BuildingBlock: UKALOJ_clean_sbu_0, # of connection points: 6
#     Node 15, Type 0, BuildingBlock: UKALOJ_clean_sbu_0, # of connection points: 6
#     Node 16, Type 0, BuildingBlock: UKALOJ_clean_sbu_0, # of connection points: 6
#     Node 17, Type 0, BuildingBlock: UKALOJ_clean_sbu_0, # of connection points: 6
#     Node 18, Type 0, BuildingBlock: UKALOJ_clean_sbu_0, # of connection points: 6
#     Node 19, Type 0, BuildingBlock: UKALOJ_clean_sbu_0, # of connection points: 6
#     Node 20, Type 0, BuildingBlock: UKALOJ_clean_sbu_0, # of connection points: 6
#     Node 21, Type 0, BuildingBlock: UKALOJ_clean_sbu_0, # of connection points: 6
#     Node 22, Type 0, BuildingBlock: UKALOJ_clean_sbu_0, # of connection points: 6
#     Node 23, Type 0, BuildingBlock: UKALOJ_clean_sbu_0, # of connection points: 6
#     Edge 24, Type (0, 0), BuildingBlock: OJICUG_clean_linker_0, # of connection points: 2
#     Edge 25, Type (0, 0), BuildingBlock: OJICUG_clean_linker_0, # of connection points: 2
#     Edge 26, Type (0, 0), BuildingBlock: OJICUG_clean_linker_0, # of connection points: 2
#     Edge 27, Type (0, 0), BuildingBlock: OJICUG_clean_linker_0, # of connection points: 2
#     Edge 28, Type (0, 0), BuildingBlock: OJICUG_clean_linker_0, # of connection points: 2
#     Edge 29, Type (0, 0), BuildingBlock: OJICUG_clean_linker_0, # of connection points: 2
#     Edge 30, Type (0, 0), BuildingBlock: OJICUG_clean_linker_0, # of connection points: 2
#     Edge 31, Type (0, 0), BuildingBlock: OJICUG_clean_linker_0, # of connection points: 2
#     Edge 32, Type (0, 0), BuildingBlock: OJICUG_clean_linker_0, # of connection points: 2
#     Edge 33, Type (0, 0), BuildingBlock: OJICUG_clean_linker_0, # of connection points: 2
#     Edge 34, Type (0, 0), BuildingBlock: OJICUG_clean_linker_0, # of connection points: 2
#     Edge 35, Type (0, 0), BuildingBlock: OJICUG_clean_linker_0, # of connection points: 2
#     Edge 36, Type (0, 0), BuildingBlock: OJICUG_clean_linker_0, # of connection points: 2
#     Edge 37, Type (0, 0), BuildingBlock: OJICUG_clean_linker_0, # of connection points: 2
#     Edge 38, Type (0, 0), BuildingBlock: OJICUG_clean_linker_0, # of connection points: 2
#     Edge 39, Type (0, 0), BuildingBlock: OJICUG_clean_linker_0, # of connection points: 2
#     Edge 40, Type (0, 0), BuildingBlock: OJICUG_clean_linker_0, # of connection points: 2
#     Edge 41, Type (0, 0), BuildingBlock: OJICUG_clean_linker_0, # of connection points: 2
#     Edge 42, Type (0, 0), BuildingBlock: OJICUG_clean_linker_0, # of connection points: 2
#     Edge 43, Type (0, 0), BuildingBlock: OJICUG_clean_linker_0, # of connection points: 2
#     Edge 44, Type (0, 0), BuildingBlock: OJICUG_clean_linker_0, # of connection points: 2
#     Edge 45, Type (0, 0), BuildingBlock: OJICUG_clean_linker_0, # of connection points: 2
#     Edge 46, Type (0, 0), BuildingBlock: OJICUG_clean_linker_0, # of connection points: 2
#     Edge 47, Type (0, 0), BuildingBlock: OJICUG_clean_linker_0, # of connection points: 2
#     Edge 48, Type (0, 0), BuildingBlock: OJICUG_clean_linker_0, # of connection points: 2
#     Edge 49, Type (0, 0), BuildingBlock: OJICUG_clean_linker_0, # of connection points: 2
#     Edge 50, Type (0, 0), BuildingBlock: OJICUG_clean_linker_0, # of connection points: 2
#     Edge 51, Type (0, 0), BuildingBlock: OJICUG_clean_linker_0, # of connection points: 2
#     Edge 52, Type (0, 0), BuildingBlock: OJICUG_clean_linker_0, # of connection points: 2
#     Edge 53, Type (0, 0), BuildingBlock: OJICUG_clean_linker_0, # of connection points: 2
#     Edge 54, Type (0, 0), BuildingBlock: OJICUG_clean_linker_0, # of connection points: 2
#     Edge 55, Type (0, 0), BuildingBlock: OJICUG_clean_linker_0, # of connection points: 2
#     Edge 56, Type (0, 0), BuildingBlock: OJICUG_clean_linker_0, # of connection points: 2
#     Edge 57, Type (0, 0), BuildingBlock: OJICUG_clean_linker_0, # of connection points: 2
#     Edge 58, Type (0, 0), BuildingBlock: OJICUG_clean_linker_0, # of connection points: 2
#     Edge 59, Type (0, 0), BuildingBlock: OJICUG_clean_linker_0, # of connection points: 2
#     Edge 60, Type (0, 0), BuildingBlock: OJICUG_clean_linker_0, # of connection points: 2
#     Edge 61, Type (0, 0), BuildingBlock: OJICUG_clean_linker_0, # of connection points: 2
#     Edge 62, Type (0, 0), BuildingBlock: OJICUG_clean_linker_0, # of connection points: 2
#     Edge 63, Type (0, 0), BuildingBlock: OJICUG_clean_linker_0, # of connection points: 2
#     Edge 64, Type (0, 0), BuildingBlock: OJICUG_clean_linker_0, # of connection points: 2
#     Edge 65, Type (0, 0), BuildingBlock: OJICUG_clean_linker_0, # of connection points: 2
#     Edge 66, Type (0, 0), BuildingBlock: OJICUG_clean_linker_0, # of connection points: 2
#     Edge 67, Type (0, 0), BuildingBlock: OJICUG_clean_linker_0, # of connection points: 2
#     Edge 68, Type (0, 0), BuildingBlock: OJICUG_clean_linker_0, # of connection points: 2
#     Edge 69, Type (0, 0), BuildingBlock: OJICUG_clean_linker_0, # of connection points: 2
#     Edge 70, Type (0, 0), BuildingBlock: OJICUG_clean_linker_0, # of connection points: 2
#     Edge 71, Type (0, 0), BuildingBlock: OJICUG_clean_linker_0, # of connection points: 2
#     Edge 72, Type (0, 0), BuildingBlock: OJICUG_clean_linker_0, # of connection points: 2
#     Edge 73, Type (0, 0), BuildingBlock: OJICUG_clean_linker_0, # of connection points: 2
#     Edge 74, Type (0, 0), BuildingBlock: OJICUG_clean_linker_0, # of connection points: 2
#     Edge 75, Type (0, 0), BuildingBlock: OJICUG_clean_linker_0, # of connection points: 2
#     Edge 76, Type (0, 0), BuildingBlock: OJICUG_clean_linker_0, # of connection points: 2
#     Edge 77, Type (0, 0), BuildingBlock: OJICUG_clean_linker_0, # of connection points: 2
#     Edge 78, Type (0, 0), BuildingBlock: OJICUG_clean_linker_0, # of connection points: 2
#     Edge 79, Type (0, 0), BuildingBlock: OJICUG_clean_linker_0, # of connection points: 2
#     Edge 80, Type (0, 0), BuildingBlock: OJICUG_clean_linker_0, # of connection points: 2
#     Edge 81, Type (0, 0), BuildingBlock: OJICUG_clean_linker_0, # of connection points: 2
#     Edge 82, Type (0, 0), BuildingBlock: OJICUG_clean_linker_0, # of connection points: 2
#     Edge 83, Type (0, 0), BuildingBlock: OJICUG_clean_linker_0, # of connection points: 2
#     Edge 84, Type (0, 0), BuildingBlock: OJICUG_clean_linker_0, # of connection points: 2
#     Edge 85, Type (0, 0), BuildingBlock: OJICUG_clean_linker_0, # of connection points: 2
#     Edge 86, Type (0, 0), BuildingBlock: OJICUG_clean_linker_0, # of connection points: 2
#     Edge 87, Type (0, 0), BuildingBlock: OJICUG_clean_linker_0, # of connection points: 2
#     Edge 88, Type (0, 0), BuildingBlock: OJICUG_clean_linker_0, # of connection points: 2
#     Edge 89, Type (0, 0), BuildingBlock: OJICUG_clean_linker_0, # of connection points: 2
#     Edge 90, Type (0, 0), BuildingBlock: OJICUG_clean_linker_0, # of connection points: 2
#     Edge 91, Type (0, 0), BuildingBlock: OJICUG_clean_linker_0, # of connection points: 2
#     Edge 92, Type (0, 0), BuildingBlock: OJICUG_clean_linker_0, # of connection points: 2
#     Edge 93, Type (0, 0), BuildingBlock: OJICUG_clean_linker_0, # of connection points: 2
#     Edge 94, Type (0, 0), BuildingBlock: OJICUG_clean_linker_0, # of connection points: 2
#     Edge 95, Type (0, 0), BuildingBlock: OJICUG_clean_linker_0, # of connection points: 2
# Relax obj value: 0.322
# Max RMSD: 0.292
# Mean RMSD: 0.292
data_MOF--net-sxg--node1-UKALOJ_clean_sbu_0--edge1-OJICUG_clean_linker_0
_symmetry_space_group_name_H-M    P1
_symmetry_Int_Tables_number       1
_symmetry_cell_setting            triclinic
loop_
_symmetry_equiv_pos_as_xyz
'x, y, z'
_cell_length_a     36.253956
_cell_length_b     36.181339
_cell_length_c     36.188911
_cell_angle_alpha  89.99739
_cell_angle_beta   89.970477
_cell_angle_gamma 89.997992
loop_
_atom_site_label
_atom_site_type_symbol
_atom_site_fract_x
_atom_site_fract_y
_atom_site_fract_z
_atom_type_partial_charge
Zn0 Zn 0.02156 0.26997 0.19183 0.0
O1 O 0.98191 0.26385 0.23323 0.0
C2 C 0.00966 0.3533 0.19459 0.0
Zn3 Zn 0.05935 0.30135 0.22821 0.0
C4 C 0.98617 0.28242 0.26265 0.0
O5 O 0.0158 0.30052 0.26774 0.0
C6 C 0.0944 0.28682 0.15584 0.0
O7 O 0.07876 0.25073 0.24713 0.0
O8 O 0.04612 0.2174 0.20808 0.0
N9 N 0.09103 0.32985 0.26481 0.0
C10 C 0.12699 0.33905 0.26422 0.0
C11 C 0.10007 0.37616 0.30105 0.0
N12 N 0.07447 0.35258 0.28818 0.0
N13 N 0.13329 0.36869 0.2861 0.0
C14 C 0.95478 0.26117 0.13945 0.0
C15 C 0.97939 0.23162 0.09493 0.0
N16 N 0.98738 0.24779 0.15183 0.0
N17 N 0.00222 0.22894 0.1242 0.0
N18 N 0.94953 0.25208 0.10355 0.0
H19 H 0.94004 0.29197 0.18915 0.0
H20 H 0.9027 0.27112 0.16553 0.0
H21 H 0.92379 0.31148 0.14602 0.0
C22 C 0.92933 0.28554 0.1614 0.0
C23 C 0.15617 0.31695 0.24493 0.0
H24 H 0.14796 0.28743 0.2435 0.0
H25 H 0.18292 0.3195 0.25962 0.0
H26 H 0.15981 0.32728 0.21642 0.0
O27 O 0.10155 0.30139 0.18701 0.0
O28 O 0.06219 0.27457 0.14995 0.0
C29 C 0.06999 0.21931 0.23414 0.0
O30 O 0.99771 0.32373 0.17994 0.0
O31 O 0.04012 0.35232 0.21141 0.0
Zn32 Zn 0.47845 0.73222 0.69341 0.0
O33 O 0.51883 0.73781 0.73406 0.0
C34 C 0.48811 0.64878 0.69683 0.0
Zn35 Zn 0.44051 0.70266 0.73117 0.0
C36 C 0.51466 0.71991 0.76389 0.0
O37 O 0.48468 0.7027 0.76993 0.0
C38 C 0.40473 0.71697 0.6589 0.0
O39 O 0.42285 0.75413 0.74998 0.0
O40 O 0.45566 0.78553 0.70945 0.0
N41 N 0.40874 0.6753 0.76861 0.0
C42 C 0.37278 0.66614 0.76806 0.0
C43 C 0.39963 0.62908 0.80496 0.0
N44 N 0.42526 0.65262 0.79204 0.0
N45 N 0.36643 0.63654 0.78998 0.0
C46 C 0.54523 0.73945 0.64063 0.0
C47 C 0.52124 0.76951 0.59611 0.0
N48 N 0.51271 0.75317 0.65288 0.0
N49 N 0.49823 0.77229 0.62526 0.0
N50 N 0.55083 0.7487 0.60482 0.0
H51 H 0.55904 0.70763 0.68999 0.0
H52 H 0.59675 0.72904 0.66753 0.0
H53 H 0.57613 0.68901 0.64684 0.0
C54 C 0.57024 0.71465 0.6626 0.0
C55 C 0.34359 0.68833 0.74894 0.0
H56 H 0.35191 0.71782 0.74741 0.0
H57 H 0.31691 0.68588 0.76381 0.0
H58 H 0.33971 0.67797 0.72048 0.0
O59 O 0.3976 0.70333 0.69052 0.0
O60 O 0.43719 0.72815 0.65228 0.0
C61 C 0.43248 0.78497 0.7362 0.0
O62 O 0.50058 0.67782 0.68156 0.0
O63 O 0.45821 0.65092 0.7146 0.0
Zn64 Zn 0.55741 0.20076 0.77345 0.0
O65 O 0.5787 0.25117 0.7536 0.0
C66 C 0.59325 0.21492 0.84496 0.0
Zn67 Zn 0.52075 0.23459 0.80873 0.0
C68 C 0.5706 0.28297 0.7663 0.0
O69 O 0.54693 0.28567 0.79245 0.0
C70 C 0.50467 0.15206 0.80719 0.0
O71 O 0.48115 0.24191 0.7679 0.0
O72 O 0.51366 0.20295 0.73441 0.0
N73 N 0.4883 0.25783 0.84954 0.0
C74 C 0.45696 0.24332 0.86382 0.0
C75 C 0.48409 0.27193 0.90732 0.0
N76 N 0.50479 0.27597 0.87665 0.0
N77 N 0.45426 0.25072 0.90041 0.0
C78 C 0.6239 0.16184 0.73676 0.0
C79 C 0.59615 0.1229 0.70254 0.0
N80 N 0.58784 0.17063 0.73709 0.0
N81 N 0.57073 0.14674 0.71535 0.0
N82 N 0.62979 0.13138 0.71591 0.0
H83 H 0.64494 0.21428 0.75528 0.0
H84 H 0.67969 0.18219 0.73869 0.0
H85 H 0.65831 0.17535 0.78294 0.0
C86 C 0.65346 0.18484 0.75431 0.0
C87 C 0.42713 0.2259 0.84097 0.0
H88 H 0.42851 0.23564 0.81201 0.0
H89 H 0.39963 0.23285 0.85253 0.0
H90 H 0.43002 0.19547 0.84119 0.0
O91 O 0.49455 0.18299 0.82028 0.0
O92 O 0.53562 0.15009 0.79124 0.0
C93 C 0.48475 0.22234 0.73901 0.0
O94 O 0.60014 0.1995 0.81416 0.0
O95 O 0.5614 0.22828 0.8503 0.0
Zn96 Zn 0.94244 0.80043 0.27157 0.0
O97 O 0.92263 0.74987 0.25222 0.0
C98 C 0.90664 0.78624 0.34362 0.0
Zn99 Zn 0.97991 0.76914 0.30842 0.0
C100 C 0.93142 0.71856 0.26552 0.0
O101 O 0.95513 0.71692 0.29171 0.0
C102 C 0.99254 0.85207 0.30623 0.0
O103 O 0.02 0.7629 0.2675 0.0
O104 O 0.98633 0.79934 0.23251 0.0
N105 N 0.01324 0.74616 0.34861 0.0
C106 C 0.04578 0.75897 0.36171 0.0
C107 C 0.02029 0.72873 0.40525 0.0
N108 N 0.99785 0.72686 0.37562 0.0
N109 N 0.05045 0.74907 0.39747 0.0
C110 C 0.8755 0.83897 0.2352 0.0
C111 C 0.90305 0.87689 0.19969 0.0
N112 N 0.91142 0.82961 0.23485 0.0
N113 N 0.92838 0.85285 0.21228 0.0
N114 N 0.86961 0.8692 0.21403 0.0
H115 H 0.85414 0.78702 0.25468 0.0
H116 H 0.81951 0.81939 0.23836 0.0
H117 H 0.84173 0.82646 0.2821 0.0
C118 C 0.84596 0.81656 0.25353 0.0
C119 C 0.07167 0.78369 0.3407 0.0
H120 H 0.06178 0.79003 0.31261 0.0
H121 H 0.09863 0.76966 0.33749 0.0
H122 H 0.07633 0.80965 0.35634 0.0
O123 O 0.00413 0.82243 0.321 0.0
O124 O 0.96235 0.85123 0.28885 0.0
C125 C 0.01597 0.78136 0.23797 0.0
O126 O 0.8997 0.80072 0.31235 0.0
O127 O 0.93884 0.77406 0.34975 0.0
Zn128 Zn 0.23048 0.06059 0.30079 0.0
O129 O 0.25017 0.07877 0.24997 0.0
C130 C 0.15788 0.09547 0.28419 0.0
Zn131 Zn 0.1939 0.02242 0.27026 0.0
C132 C 0.23696 0.06979 0.21875 0.0
O133 O 0.21043 0.04642 0.21734 0.0
C134 C 0.19637 0.01114 0.35325 0.0
O135 O 0.23586 0.98317 0.26572 0.0
O136 O 0.27052 0.01753 0.30207 0.0
N137 N 0.15441 0.98785 0.24815 0.0
C138 C 0.14054 0.95663 0.26338 0.0
C139 C 0.0977 0.98114 0.23165 0.0
N140 N 0.12775 0.00271 0.22812 0.0
N141 N 0.10449 0.95236 0.25439 0.0
C142 C 0.25692 0.12098 0.35391 0.0
C143 C 0.31547 0.12033 0.34832 0.0
N144 N 0.26518 0.09566 0.3279 0.0
N145 N 0.30159 0.09519 0.32445 0.0
N146 N 0.28782 0.13697 0.36676 0.0
H147 H 0.2076 0.15335 0.35448 0.0
H148 H 0.22019 0.1351 0.39875 0.0
H149 H 0.19984 0.10542 0.36473 0.0
C150 C 0.21896 0.12875 0.36877 0.0
C151 C 0.16361 0.92839 0.2831 0.0
H152 H 0.19271 0.92998 0.27398 0.0
H153 H 0.15303 0.90016 0.27748 0.0
H154 H 0.1627 0.93309 0.31327 0.0
O155 O 0.18185 0.99872 0.3238 0.0
O156 O 0.2133 0.0416 0.35188 0.0
C157 C 0.26525 0.98758 0.28433 0.0
O158 O 0.18938 0.10281 0.29769 0.0
O159 O 0.15131 0.06272 0.27376 0.0
Zn160 Zn 0.31043 0.98338 0.76356 0.0
O161 O 0.26827 0.0222 0.75643 0.0
C162 C 0.31102 1.00085 0.8462 0.0
Zn163 Zn 0.27638 0.9469 0.79927 0.0
C164 C 0.24023 0.01873 0.77719 0.0
O165 O 0.23677 0.99013 0.79731 0.0
C166 C 0.34793 0.91156 0.78412 0.0
O167 O 0.2558 0.92422 0.74949 0.0
O168 O 0.29335 0.9561 0.71364 0.0
N169 N 0.24107 0.91663 0.83107 0.0
C170 C 0.24111 0.88083 0.84125 0.0
C171 C 0.20615 0.90968 0.87874 0.0
N172 N 0.21893 0.93438 0.85411 0.0
N173 N 0.21997 0.87582 0.87172 0.0
C174 C 0.36295 0.04929 0.75013 0.0
C175 C 0.4075 0.02214 0.72324 0.0
N176 N 0.35007 0.01627 0.7382 0.0
N177 N 0.37775 0.99989 0.72081 0.0
N178 N 0.3992 0.05324 0.74203 0.0
H179 H 0.31214 0.06725 0.77546 0.0
H180 H 0.33959 0.1032 0.75733 0.0
H181 H 0.35385 0.0811 0.7995 0.0
C182 C 0.34081 0.07646 0.77214 0.0
C183 C 0.25941 0.85072 0.81955 0.0
H184 H 0.26042 0.85816 0.78981 0.0
H185 H 0.24437 0.82423 0.82303 0.0
H186 H 0.28804 0.84695 0.82941 0.0
O187 O 0.31759 0.90492 0.80048 0.0
O188 O 0.35274 0.94307 0.76958 0.0
C189 C 0.26775 0.93201 0.71729 0.0
O190 O 0.32306 0.01075 0.81475 0.0
O191 O 0.29505 0.96994 0.84897 0.0
Zn192 Zn 0.69091 0.48154 0.73399 0.0
O193 O 0.73094 0.52228 0.74146 0.0
C194 C 0.69328 0.49675 0.65134 0.0
Zn195 Zn 0.72724 0.44499 0.70101 0.0
C196 C 0.76012 0.51884 0.72234 0.0
O197 O 0.76536 0.48965 0.70344 0.0
C198 C 0.65648 0.40769 0.71461 0.0
O199 O 0.74648 0.4244 0.75197 0.0
O200 O 0.70681 0.45618 0.78553 0.0
N201 N 0.76471 0.41513 0.67144 0.0
C202 C 0.76557 0.37916 0.66198 0.0
C203 C 0.80008 0.40804 0.62415 0.0
N204 N 0.78663 0.43293 0.64823 0.0
N205 N 0.78693 0.37403 0.63172 0.0
C206 C 0.63461 0.54466 0.74172 0.0
C207 C 0.59144 0.51713 0.77043 0.0
N208 N 0.64915 0.51344 0.75629 0.0
N209 N 0.62224 0.49667 0.77446 0.0
N210 N 0.59806 0.54705 0.74918 0.0
H211 H 0.686 0.57366 0.73356 0.0
H212 H 0.64527 0.6021 0.73049 0.0
H213 H 0.65685 0.57127 0.69348 0.0
C214 C 0.65707 0.57458 0.72387 0.0
C215 C 0.74815 0.34899 0.68434 0.0
H216 H 0.74677 0.35709 0.71389 0.0
H217 H 0.76407 0.32294 0.68148 0.0
H218 H 0.71973 0.34398 0.67449 0.0
O219 O 0.68752 0.40135 0.69953 0.0
O220 O 0.65032 0.43964 0.72759 0.0
C221 C 0.73311 0.43265 0.78348 0.0
O222 O 0.6796 0.50698 0.68197 0.0
O223 O 0.70985 0.46606 0.64993 0.0
Zn224 Zn 0.77207 0.55784 0.20193 0.0
O225 O 0.75314 0.57797 0.25322 0.0
C226 C 0.84451 0.59321 0.21753 0.0
Zn227 Zn 0.80806 0.52071 0.23469 0.0
C228 C 0.76606 0.56919 0.28471 0.0
O229 O 0.79216 0.54545 0.28663 0.0
C230 C 0.80545 0.50578 0.15191 0.0
O231 O 0.76605 0.48156 0.24032 0.0
O232 O 0.73187 0.51517 0.20278 0.0
N233 N 0.84793 0.48678 0.2573 0.0
C234 C 0.86206 0.45572 0.24198 0.0
C235 C 0.90524 0.48137 0.2723 0.0
N236 N 0.87482 0.50233 0.27649 0.0
N237 N 0.89842 0.4523 0.24996 0.0
C238 C 0.74533 0.61697 0.1475 0.0
C239 C 0.68698 0.618 0.1548 0.0
N240 N 0.73719 0.59238 0.17424 0.0
N241 N 0.70089 0.59294 0.17873 0.0
N242 N 0.7145 0.63352 0.13521 0.0
H243 H 0.79537 0.64814 0.14528 0.0
H244 H 0.78122 0.62964 0.1016 0.0
H245 H 0.80169 0.59988 0.13558 0.0
C246 C 0.78307 0.62365 0.13162 0.0
C247 C 0.83917 0.42673 0.22326 0.0
H248 H 0.81008 0.42836 0.23244 0.0
H249 H 0.8501 0.3988 0.22966 0.0
H250 H 0.8401 0.4305 0.19295 0.0
O251 O 0.81954 0.49573 0.18241 0.0
O252 O 0.7885 0.53628 0.15062 0.0
C253 C 0.73678 0.48572 0.22143 0.0
O254 O 0.81339 0.59993 0.2029 0.0
O255 O 0.8506 0.56105 0.22994 0.0
Zn256 Zn 0.27018 0.19425 0.02181 0.0
O257 O 0.26434 0.23572 0.98214 0.0
C258 C 0.35334 0.19708 0.01071 0.0
Zn259 Zn 0.30081 0.23094 0.06 0.0
C260 C 0.28228 0.26548 0.98663 0.0
O261 O 0.3001 0.27073 0.01644 0.0
C262 C 0.28617 0.15815 0.09488 0.0
O263 O 0.25012 0.24988 0.07902 0.0
O264 O 0.21757 0.21057 0.04586 0.0
N265 N 0.32914 0.26753 0.09195 0.0
C266 C 0.33876 0.26666 0.12786 0.0
C267 C 0.3752 0.30402 0.10079 0.0
N268 N 0.35145 0.29122 0.07533 0.0
N269 N 0.36829 0.2887 0.13403 0.0
C270 C 0.26182 0.14214 0.95466 0.0
C271 C 0.23193 0.09762 0.97884 0.0
N272 N 0.24827 0.15441 0.98728 0.0
N273 N 0.2292 0.12679 0.00186 0.0
N274 N 0.25263 0.1063 0.94913 0.0
H275 H 0.29298 0.19175 0.94045 0.0
H276 H 0.27212 0.16861 0.90278 0.0
H277 H 0.3122 0.14863 0.92383 0.0
C278 C 0.2864 0.16414 0.92946 0.0
C279 C 0.31705 0.24702 0.15712 0.0
H280 H 0.28751 0.24566 0.1492 0.0
H281 H 0.31984 0.26141 0.18406 0.0
H282 H 0.32742 0.21845 0.16027 0.0
O283 O 0.3005 0.18941 0.10226 0.0
O284 O 0.27433 0.15228 0.06247 0.0
C285 C 0.21897 0.23681 0.06962 0.0
O286 O 0.32403 0.18226 0.99845 0.0
O287 O 0.35187 0.21425 0.04102 0.0
Zn288 Zn 0.76377 0.31059 0.98188 0.0
O289 O 0.75774 0.26785 0.02068 0.0
C290 C 0.84647 0.31005 0.99819 0.0
Zn291 Zn 0.79817 0.27506 0.94558 0.0
C292 C 0.77769 0.23915 0.01713 0.0
O293 O 0.79747 0.23498 0.98835 0.0
C294 C 0.78181 0.34709 0.90958 0.0
O295 O 0.74795 0.25477 0.92463 0.0
O296 O 0.71304 0.29361 0.95583 0.0
N297 N 0.82728 0.24047 0.91191 0.0
C298 C 0.85423 0.24894 0.8877 0.0
C299 C 0.84835 0.1903 0.88733 0.0
N300 N 0.8237 0.204 0.91177 0.0
N301 N 0.86756 0.21811 0.87181 0.0
C302 C 0.75133 0.36318 0.04828 0.0
C303 C 0.72306 0.40738 0.02191 0.0
N304 N 0.73907 0.35019 0.01544 0.0
N305 N 0.72086 0.37764 0.99954 0.0
N306 N 0.7425 0.39928 0.0526 0.0
H307 H 0.7771 0.31252 0.06577 0.0
H308 H 0.76135 0.34086 0.10226 0.0
H309 H 0.80215 0.35443 0.07753 0.0
C310 C 0.77455 0.34144 0.0747 0.0
C311 C 0.86921 0.28706 0.88076 0.0
H312 H 0.85535 0.2989 0.85616 0.0
H313 H 0.89924 0.28589 0.87491 0.0
H314 H 0.86468 0.30579 0.90438 0.0
O315 O 0.79699 0.3161 0.9033 0.0
O316 O 0.76884 0.35326 0.94154 0.0
C317 C 0.71608 0.26723 0.93248 0.0
O318 O 0.8155 0.32317 0.00812 0.0
O319 O 0.84847 0.29299 0.96779 0.0
Zn320 Zn 0.73721 0.69175 0.48257 0.0
O321 O 0.74494 0.73376 0.52165 0.0
C322 C 0.65471 0.69167 0.49975 0.0
Zn323 Zn 0.70213 0.72661 0.44643 0.0
C324 C 0.72468 0.7622 0.5184 0.0
O325 O 0.7044 0.76598 0.48998 0.0
C326 C 0.71671 0.65506 0.41031 0.0
O327 O 0.7519 0.74707 0.42425 0.0
O328 O 0.78724 0.70845 0.45538 0.0
N329 N 0.67093 0.76254 0.41644 0.0
C330 C 0.66139 0.76317 0.38051 0.0
C331 C 0.62341 0.79753 0.40939 0.0
N332 N 0.64761 0.78434 0.43424 0.0
N333 N 0.63102 0.78434 0.3754 0.0
C334 C 0.75011 0.63874 0.54825 0.0
C335 C 0.77669 0.59399 0.52105 0.0
N336 N 0.76207 0.6516 0.51524 0.0
N337 N 0.77925 0.62379 0.49881 0.0
N338 N 0.75801 0.60237 0.55218 0.0
H339 H 0.72472 0.68969 0.56605 0.0
H340 H 0.74356 0.66273 0.60196 0.0
H341 H 0.7012 0.64792 0.58068 0.0
C342 C 0.72837 0.66109 0.57549 0.0
C343 C 0.68361 0.74549 0.35041 0.0
H344 H 0.71317 0.74443 0.35831 0.0
H345 H 0.68051 0.76106 0.32417 0.0
H346 H 0.67394 0.71685 0.34593 0.0
O347 O 0.70084 0.68574 0.40385 0.0
O348 O 0.73073 0.64971 0.44196 0.0
C349 C 0.78387 0.73458 0.43177 0.0
O350 O 0.68597 0.6794 0.50977 0.0
O351 O 0.65225 0.70803 0.46901 0.0
Zn352 Zn 0.19968 0.77323 0.5572 0.0
O353 O 0.25017 0.75367 0.57781 0.0
C354 C 0.21546 0.84514 0.59349 0.0
Zn355 Zn 0.23317 0.80924 0.5208 0.0
C356 C 0.28182 0.76659 0.56989 0.0
O357 O 0.28443 0.79289 0.54639 0.0
C358 C 0.15082 0.80768 0.50495 0.0
O359 O 0.23932 0.76743 0.48134 0.0
O360 O 0.20083 0.7334 0.51403 0.0
N361 N 0.25654 0.84944 0.48766 0.0
C362 C 0.2418 0.86394 0.45652 0.0
C363 C 0.272 0.90684 0.48288 0.0
N364 N 0.27565 0.87617 0.50368 0.0
N365 N 0.25008 0.90031 0.45349 0.0
C366 C 0.14471 0.7462 0.61552 0.0
C367 C 0.15133 0.68764 0.61579 0.0
N368 N 0.17135 0.73807 0.59087 0.0
N369 N 0.17541 0.70165 0.59094 0.0
N370 N 0.13207 0.71523 0.63163 0.0
H371 H 0.14375 0.79624 0.64696 0.0
H372 H 0.09956 0.78259 0.62942 0.0
H373 H 0.13304 0.80283 0.59896 0.0
C374 C 0.1294 0.78414 0.62276 0.0
C375 C 0.22317 0.84149 0.42712 0.0
H376 H 0.23175 0.81217 0.42871 0.0
H377 H 0.23019 0.85254 0.39937 0.0
H378 H 0.19289 0.84302 0.43038 0.0
O379 O 0.18158 0.82128 0.49518 0.0
O380 O 0.14896 0.7905 0.53529 0.0
C381 C 0.22011 0.73824 0.48498 0.0
O382 O 0.20061 0.81402 0.59992 0.0
O383 O 0.22789 0.85143 0.56138 0.0
Zn384 Zn 0.94025 0.70253 0.76956 0.0
O385 O 0.92148 0.75347 0.75122 0.0
C386 C 0.9051 0.71625 0.84247 0.0
Zn387 Zn 0.97874 0.73149 0.80733 0.0
C388 C 0.93159 0.78431 0.76458 0.0
O389 O 0.95546 0.78488 0.79074 0.0
C390 C 0.98915 0.64879 0.8035 0.0
O391 O 0.01904 0.73624 0.7667 0.0
O392 O 0.98367 0.70368 0.72974 0.0
N393 N 0.01253 0.75269 0.84814 0.0
C394 C 0.04391 0.73784 0.86198 0.0
C395 C 0.01902 0.76913 0.90502 0.0
N396 N 0.99742 0.77241 0.87495 0.0
N397 N 0.04808 0.74683 0.89812 0.0
C398 C 0.87225 0.66538 0.73383 0.0
C399 C 0.89885 0.62805 0.697 0.0
N400 N 0.9082 0.6746 0.73281 0.0
N401 N 0.92455 0.65174 0.70944 0.0
N402 N 0.86575 0.63555 0.71225 0.0
H403 H 0.85163 0.71733 0.75407 0.0
H404 H 0.81645 0.68534 0.73824 0.0
H405 H 0.83948 0.67785 0.78153 0.0
C406 C 0.84322 0.68786 0.75291 0.0
C407 C 0.07211 0.71801 0.83899 0.0
H408 H 0.07078 0.72713 0.80987 0.0
H409 H 0.10027 0.7235 0.84966 0.0
H410 H 0.06719 0.68786 0.83989 0.0
O411 O 0.00155 0.67764 0.81921 0.0
O412 O 0.95929 0.6511 0.7857 0.0
C413 C 0.01427 0.71967 0.73615 0.0
O414 O 0.8979 0.70234 0.811 0.0
O415 O 0.93749 0.72774 0.84873 0.0
Zn416 Zn 0.52216 0.27031 0.30938 0.0
O417 O 0.48134 0.26328 0.26956 0.0
C418 C 0.5106 0.35328 0.30552 0.0
Zn419 Zn 0.55962 0.30032 0.27164 0.0
C420 C 0.48499 0.28148 0.23981 0.0
O421 O 0.51462 0.29932 0.2337 0.0
C422 C 0.59643 0.28717 0.34318 0.0
O423 O 0.57813 0.24937 0.25237 0.0
O424 O 0.54665 0.21736 0.29349 0.0
N425 N 0.59014 0.32864 0.23376 0.0
C426 C 0.62593 0.3385 0.23385 0.0
C427 C 0.59775 0.37567 0.19809 0.0
N428 N 0.5728 0.3514 0.21102 0.0
N429 N 0.63134 0.36863 0.21238 0.0
C430 C 0.45844 0.26397 0.36552 0.0
C431 C 0.48509 0.23481 0.40897 0.0
N432 N 0.48971 0.24921 0.35134 0.0
N433 N 0.50593 0.2308 0.37842 0.0
N434 N 0.45543 0.2563 0.40208 0.0
H435 H 0.42995 0.27183 0.31378 0.0
H436 H 0.40141 0.27635 0.35424 0.0
H437 H 0.43322 0.31241 0.34209 0.0
C438 C 0.42912 0.28212 0.34255 0.0
C439 C 0.65588 0.31638 0.25188 0.0
H440 H 0.64802 0.28675 0.25302 0.0
H441 H 0.68217 0.3195 0.23645 0.0
H442 H 0.66028 0.32621 0.28045 0.0
O443 O 0.60331 0.30047 0.31138 0.0
O444 O 0.56402 0.27605 0.35008 0.0
C445 C 0.56954 0.21836 0.26645 0.0
O446 O 0.49801 0.324 0.32029 0.0
O447 O 0.54113 0.35162 0.28879 0.0
Zn448 Zn 0.44238 0.80102 0.23408 0.0
O449 O 0.42317 0.75028 0.25314 0.0
C450 C 0.40633 0.78799 0.16205 0.0
Zn451 Zn 0.48014 0.77086 0.19664 0.0
C452 C 0.43198 0.71926 0.2392 0.0
O453 O 0.45527 0.71821 0.21252 0.0
C454 C 0.49212 0.85358 0.20036 0.0
O455 O 0.52061 0.76372 0.23682 0.0
O456 O 0.48696 0.79945 0.27265 0.0
N457 N 0.5126 0.74923 0.15502 0.0
C458 C 0.54363 0.76406 0.14041 0.0
C459 C 0.51707 0.73383 0.09765 0.0
N460 N 0.49645 0.73014 0.12838 0.0
N461 N 0.54653 0.75575 0.10398 0.0
C462 C 0.37604 0.84018 0.27114 0.0
C463 C 0.40432 0.87685 0.30736 0.0
N464 N 0.4117 0.82983 0.27159 0.0
N465 N 0.42908 0.85229 0.2946 0.0
N466 N 0.37079 0.87033 0.29268 0.0
H467 H 0.35354 0.78882 0.25146 0.0
H468 H 0.31959 0.82198 0.26762 0.0
H469 H 0.34228 0.82855 0.22397 0.0
C470 C 0.34606 0.81856 0.25259 0.0
C471 C 0.57289 0.78287 0.16292 0.0
H472 H 0.57194 0.77346 0.192 0.0
H473 H 0.60062 0.77677 0.15143 0.0
H474 H 0.56883 0.81316 0.16247 0.0
O475 O 0.50457 0.82425 0.18561 0.0
O476 O 0.4616 0.8521 0.21711 0.0
C477 C 0.51661 0.78155 0.26676 0.0
O478 O 0.39913 0.80149 0.1937 0.0
O479 O 0.43875 0.77667 0.15561 0.0
Zn480 Zn 0.06007 0.20317 0.73436 0.0
O481 O 0.07964 0.25369 0.7528 0.0
C482 C 0.09498 0.21676 0.66123 0.0
Zn483 Zn 0.02179 0.23274 0.69689 0.0
C484 C 0.06997 0.28473 0.73959 0.0
O485 O 0.04598 0.28575 0.71355 0.0
C486 C 0.01028 0.15014 0.70062 0.0
O487 O 0.98177 0.23802 0.73759 0.0
O488 O 0.01668 0.20481 0.77444 0.0
N489 N 0.9883 0.25461 0.65622 0.0
C490 C 0.9572 0.23959 0.64197 0.0
C491 C 0.98268 0.2707 0.59915 0.0
N492 N 0.00377 0.27424 0.62956 0.0
N493 N 0.95361 0.24833 0.60571 0.0
C494 C 0.12791 0.16518 0.76925 0.0
C495 C 0.1014 0.12747 0.80576 0.0
N496 N 0.09205 0.17466 0.77075 0.0
N497 N 0.07575 0.15156 0.79393 0.0
N498 N 0.13438 0.13499 0.7903 0.0
H499 H 0.14878 0.21711 0.74917 0.0
H500 H 0.1838 0.18478 0.7647 0.0
H501 H 0.16063 0.17767 0.72149 0.0
C502 C 0.15699 0.18757 0.75014 0.0
C503 C 0.92849 0.22022 0.66473 0.0
H504 H 0.92958 0.22956 0.69381 0.0
H505 H 0.90054 0.22591 0.6536 0.0
H506 H 0.93305 0.19002 0.66415 0.0
O507 O 0.9981 0.17917 0.68506 0.0
O508 O 0.04033 0.15206 0.71814 0.0
C509 C 0.98634 0.22136 0.76812 0.0
O510 O 0.10226 0.20266 0.69261 0.0
O511 O 0.06265 0.22854 0.65526 0.0
Zn512 Zn 0.77507 0.94598 0.70121 0.0
O513 O 0.75507 0.92326 0.75101 0.0
C514 C 0.8468 0.91065 0.71601 0.0
Zn515 Zn 0.8093 0.98256 0.73634 0.0
C516 C 0.7669 0.93114 0.78318 0.0
O517 O 0.79232 0.95545 0.78677 0.0
C518 C 0.80912 0.99997 0.65394 0.0
O519 O 0.76778 0.02184 0.74324 0.0
O520 O 0.73519 0.98905 0.70377 0.0
N521 N 0.84925 0.01517 0.76078 0.0
C522 C 0.86375 0.0465 0.7464 0.0
C523 C 0.90677 0.01929 0.7756 0.0
N524 N 0.87606 0.99863 0.77929 0.0
N525 N 0.90016 0.04913 0.75424 0.0
C526 C 0.73986 0.87902 0.66133 0.0
C527 C 0.70545 0.90652 0.6224 0.0
N528 N 0.73981 0.91517 0.67013 0.0
N529 N 0.718 0.93212 0.64622 0.0
N530 N 0.71909 0.87293 0.63089 0.0
H531 H 0.75874 0.85805 0.71367 0.0
H532 H 0.74259 0.8231 0.68159 0.0
H533 H 0.78646 0.84513 0.67465 0.0
C534 C 0.75783 0.84958 0.68423 0.0
C535 C 0.8413 0.07653 0.72878 0.0
H536 H 0.8121 0.07484 0.73759 0.0
H537 H 0.85252 0.10401 0.73649 0.0
H538 H 0.84254 0.07419 0.69836 0.0
O539 O 0.82159 0.00965 0.68525 0.0
O540 O 0.79299 0.96913 0.65121 0.0
C541 C 0.73914 0.01795 0.72341 0.0
O542 O 0.81653 0.90404 0.69956 0.0
O543 O 0.85149 0.94216 0.73052 0.0
Zn544 Zn 0.69287 0.02063 0.23691 0.0
O545 O 0.73419 0.98119 0.24366 0.0
C546 C 0.6928 0.00343 0.15445 0.0
Zn547 Zn 0.72718 0.05719 0.20182 0.0
C548 C 0.76271 0.98485 0.22362 0.0
O549 O 0.76678 0.01375 0.20398 0.0
C550 C 0.65563 0.09286 0.21707 0.0
O551 O 0.74753 0.07959 0.2517 0.0
O552 O 0.70996 0.04753 0.28732 0.0
N553 N 0.76262 0.08779 0.17059 0.0
C554 C 0.76257 0.12382 0.16131 0.0
C555 C 0.79709 0.09586 0.12278 0.0
N556 N 0.78451 0.07056 0.14692 0.0
N557 N 0.7834 0.12955 0.13081 0.0
C558 C 0.63846 0.95675 0.24716 0.0
C559 C 0.59532 0.98407 0.27611 0.0
N560 N 0.65289 0.98814 0.26143 0.0
N561 N 0.62601 0.00475 0.27981 0.0
N562 N 0.60202 0.95416 0.2549 0.0
H563 H 0.69009 0.92824 0.2387 0.0
H564 H 0.6496 0.8992 0.23738 0.0
H565 H 0.65992 0.92896 0.1993 0.0
C566 C 0.66096 0.92664 0.22972 0.0
C567 C 0.74457 0.15352 0.18385 0.0
H568 H 0.7437 0.1454 0.21341 0.0
H569 H 0.75976 0.17999 0.18086 0.0
H570 H 0.71592 0.15778 0.17426 0.0
O571 O 0.68592 0.09951 0.20062 0.0
O572 O 0.65082 0.06122 0.23127 0.0
C573 C 0.73557 0.07167 0.28384 0.0
O574 O 0.68043 0.99365 0.18578 0.0
O575 O 0.70891 0.03428 0.15176 0.0
Zn576 Zn 0.30977 0.52082 0.26659 0.0
O577 O 0.26896 0.48107 0.25891 0.0
C578 C 0.30855 0.50384 0.34913 0.0
Zn579 Zn 0.27454 0.5571 0.30106 0.0
C580 C 0.24012 0.48442 0.27856 0.0
O581 O 0.23552 0.51321 0.29824 0.0
C582 C 0.34592 0.59336 0.28721 0.0
O583 O 0.25485 0.5792 0.25084 0.0
O584 O 0.29344 0.54775 0.21578 0.0
N585 N 0.23819 0.5873 0.33161 0.0
C586 C 0.23764 0.62336 0.34078 0.0
C587 C 0.20301 0.59504 0.37895 0.0
N588 N 0.21622 0.56985 0.35504 0.0
N589 N 0.21636 0.62889 0.37101 0.0
C590 C 0.36487 0.45712 0.25749 0.0
C591 C 0.40849 0.48461 0.22944 0.0
N592 N 0.35064 0.48856 0.24306 0.0
N593 N 0.37784 0.50528 0.22527 0.0
N594 N 0.40146 0.45458 0.2504 0.0
H595 H 0.31314 0.42852 0.26505 0.0
H596 H 0.35364 0.39956 0.26718 0.0
H597 H 0.34257 0.4294 0.30501 0.0
C598 C 0.34211 0.427 0.27457 0.0
C599 C 0.25547 0.65322 0.31832 0.0
H600 H 0.25673 0.64502 0.2888 0.0
H601 H 0.23992 0.6795 0.32108 0.0
H602 H 0.28398 0.65787 0.32814 0.0
O603 O 0.31522 0.59982 0.30295 0.0
O604 O 0.3513 0.56173 0.2732 0.0
C605 C 0.26749 0.57159 0.21889 0.0
O606 O 0.32134 0.49396 0.318 0.0
O607 O 0.29221 0.5346 0.35144 0.0
Zn608 Zn 0.22647 0.44708 0.80305 0.0
O609 O 0.2468 0.42472 0.75319 0.0
C610 C 0.15538 0.41058 0.78874 0.0
Zn611 Zn 0.19155 0.48311 0.76814 0.0
C612 C 0.23434 0.43215 0.72114 0.0
O613 O 0.2084 0.45594 0.71776 0.0
C614 C 0.19203 0.50068 0.85044 0.0
O615 O 0.23226 0.523 0.76056 0.0
O616 O 0.26531 0.49111 0.80038 0.0
N617 N 0.15087 0.51485 0.74384 0.0
C618 C 0.13593 0.54601 0.7581 0.0
C619 C 0.09326 0.51801 0.72911 0.0
N620 N 0.12428 0.4978 0.72546 0.0
N621 N 0.09948 0.54804 0.75031 0.0
C622 C 0.26362 0.38129 0.84331 0.0
C623 C 0.29741 0.41009 0.88184 0.0
N624 N 0.26264 0.41734 0.83417 0.0
N625 N 0.28408 0.4351 0.85783 0.0
N626 N 0.28466 0.37604 0.87376 0.0
H627 H 0.24543 0.35946 0.7911 0.0
H628 H 0.2622 0.32513 0.82353 0.0
H629 H 0.2178 0.34633 0.83008 0.0
C630 C 0.2464 0.35125 0.82062 0.0
C631 C 0.15793 0.57645 0.7756 0.0
H632 H 0.18713 0.57522 0.76674 0.0
H633 H 0.14625 0.60373 0.76784 0.0
H634 H 0.15679 0.5742 0.80604 0.0
O635 O 0.17938 0.5103 0.81918 0.0
O636 O 0.20817 0.46985 0.8531 0.0
C637 C 0.26085 0.51982 0.78056 0.0
O638 O 0.18594 0.40417 0.80476 0.0
O639 O 0.15009 0.44218 0.77465 0.0
Zn640 Zn 0.72998 0.80787 0.97961 0.0
O641 O 0.73517 0.76718 0.02012 0.0
C642 C 0.6474 0.80535 0.9916 0.0
Zn643 Zn 0.69984 0.76995 0.94207 0.0
C644 C 0.71809 0.73684 0.01602 0.0
O645 O 0.7013 0.73045 0.98584 0.0
C646 C 0.71421 0.84248 0.90586 0.0
O647 O 0.75008 0.75095 0.92232 0.0
O648 O 0.7826 0.79049 0.95523 0.0
N649 N 0.67093 0.73308 0.91105 0.0
C650 C 0.66131 0.73326 0.87516 0.0
C651 C 0.62419 0.69724 0.90311 0.0
N652 N 0.6482 0.71019 0.92825 0.0
N653 N 0.63136 0.71165 0.86952 0.0
C654 C 0.73945 0.86094 0.04629 0.0
C655 C 0.76954 0.90489 0.02134 0.0
N656 N 0.75238 0.84823 0.01353 0.0
N657 N 0.77154 0.87553 0.99848 0.0
N658 N 0.74923 0.89668 0.05146 0.0
H659 H 0.70758 0.81203 0.06134 0.0
H660 H 0.72932 0.83524 0.09857 0.0
H661 H 0.68938 0.85564 0.07777 0.0
C662 C 0.71482 0.8396 0.07199 0.0
C663 C 0.68328 0.75187 0.84545 0.0
H664 H 0.71284 0.75311 0.85337 0.0
H665 H 0.68031 0.73685 0.81887 0.0
H666 H 0.67324 0.78044 0.84159 0.0
O667 O 0.69966 0.81115 0.89912 0.0
O668 O 0.72601 0.84892 0.93818 0.0
C669 C 0.78121 0.76427 0.93139 0.0
O670 O 0.67658 0.82104 0.00301 0.0
O671 O 0.64895 0.78684 0.96206 0.0
Zn672 Zn 0.23373 0.69614 0.02251 0.0
O673 O 0.24048 0.73743 0.98268 0.0
C674 C 0.15088 0.69825 0.00931 0.0
Zn675 Zn 0.20213 0.73295 0.05983 0.0
C676 C 0.22228 0.76712 0.98659 0.0
O677 O 0.20375 0.77244 0.01598 0.0
C678 C 0.21639 0.66052 0.09573 0.0
O679 O 0.25215 0.7523 0.08022 0.0
O680 O 0.28572 0.71292 0.04815 0.0
N681 N 0.17265 0.76951 0.09073 0.0
C682 C 0.16281 0.76909 0.12658 0.0
C683 C 0.12547 0.8048 0.09856 0.0
N684 N 0.14978 0.79219 0.07349 0.0
N685 N 0.1326 0.79034 0.13213 0.0
C686 C 0.24344 0.64344 0.95592 0.0
C687 C 0.27264 0.59904 0.98107 0.0
N688 N 0.25657 0.65604 0.98862 0.0
N689 N 0.27523 0.62848 0.00378 0.0
N690 N 0.25244 0.60745 0.95094 0.0
H691 H 0.21329 0.69325 0.94042 0.0
H692 H 0.23395 0.66886 0.90337 0.0
H693 H 0.1934 0.65011 0.92467 0.0
C694 C 0.21943 0.66529 0.93007 0.0
C695 C 0.1848 0.75064 0.15636 0.0
H696 H 0.2144 0.74965 0.14856 0.0
H697 H 0.18157 0.76563 0.18293 0.0
H698 H 0.17498 0.72198 0.1602 0.0
O699 O 0.20172 0.69174 0.10261 0.0
O700 O 0.22863 0.65444 0.06347 0.0
C701 C 0.28358 0.73913 0.07194 0.0
O702 O 0.18058 0.68365 0.99776 0.0
O703 O 0.1516 0.71575 0.03948 0.0
Zn704 Zn 0.27004 0.3089 0.52424 0.0
O705 O 0.2649 0.26849 0.48357 0.0
C706 C 0.35282 0.30618 0.51281 0.0
Zn707 Zn 0.29989 0.27078 0.56167 0.0
C708 C 0.28213 0.23822 0.48744 0.0
O709 O 0.29877 0.23161 0.51765 0.0
C710 C 0.28564 0.34316 0.59816 0.0
O711 O 0.24958 0.25174 0.58092 0.0
O712 O 0.21716 0.2916 0.54835 0.0
N713 N 0.32826 0.23364 0.59261 0.0
C714 C 0.33769 0.23377 0.62854 0.0
C715 C 0.37494 0.19779 0.60072 0.0
N716 N 0.35104 0.21075 0.57548 0.0
N717 N 0.36759 0.21218 0.63427 0.0
C718 C 0.26105 0.36196 0.45753 0.0
C719 C 0.23102 0.40606 0.48227 0.0
N720 N 0.248 0.34938 0.49029 0.0
N721 N 0.22888 0.37677 0.50522 0.0
N722 N 0.25137 0.3977 0.45223 0.0
H723 H 0.29312 0.31304 0.44278 0.0
H724 H 0.27105 0.33576 0.40547 0.0
H725 H 0.31102 0.35655 0.42587 0.0
C726 C 0.28568 0.34047 0.43193 0.0
C727 C 0.31557 0.25224 0.65823 0.0
H728 H 0.28605 0.25345 0.65022 0.0
H729 H 0.3185 0.23711 0.68476 0.0
H730 H 0.32553 0.2808 0.66231 0.0
O731 O 0.29991 0.3117 0.60485 0.0
O732 O 0.274 0.34981 0.56582 0.0
C733 C 0.21848 0.26516 0.57196 0.0
O734 O 0.32374 0.32189 0.50113 0.0
O735 O 0.35098 0.28766 0.54233 0.0
Zn736 Zn 0.80211 0.23225 0.44292 0.0
O737 O 0.75186 0.25176 0.42291 0.0
C738 C 0.78769 0.16004 0.40684 0.0
Zn739 Zn 0.77074 0.1953 0.48031 0.0
C740 C 0.72053 0.23848 0.43145 0.0
O741 O 0.71868 0.21216 0.45513 0.0
C742 C 0.85349 0.1974 0.49322 0.0
O743 O 0.76435 0.2364 0.52035 0.0
O744 O 0.80089 0.27148 0.4869 0.0
N745 N 0.74792 0.15512 0.51408 0.0
C746 C 0.76069 0.14246 0.54689 0.0
C747 C 0.73109 0.09835 0.52171 0.0
N748 N 0.72903 0.12773 0.49888 0.0
N749 N 0.75116 0.10664 0.55194 0.0
C750 C 0.84087 0.26885 0.376 0.0
C751 C 0.87858 0.30427 0.40388 0.0
N752 N 0.83148 0.26893 0.41198 0.0
N753 N 0.85459 0.29143 0.42914 0.0
N754 N 0.87102 0.29015 0.37027 0.0
H755 H 0.78903 0.24955 0.35449 0.0
H756 H 0.82142 0.26585 0.31986 0.0
H757 H 0.82834 0.22202 0.34216 0.0
C758 C 0.81853 0.25064 0.34634 0.0
C759 C 0.78502 0.16396 0.57273 0.0
H760 H 0.7915 0.19186 0.56241 0.0
H761 H 0.77064 0.16761 0.59949 0.0
H762 H 0.81086 0.14842 0.57803 0.0
O763 O 0.82385 0.18267 0.50474 0.0
O764 O 0.85275 0.21487 0.46302 0.0
C765 C 0.78266 0.26603 0.51644 0.0
O766 O 0.80227 0.1913 0.39998 0.0
O767 O 0.77563 0.15382 0.43914 0.0
C768 C 0.1698 0.41743 0.31618 0.0
C769 C 0.16345 0.39455 0.28546 0.0
H770 H 0.19869 0.46432 0.33785 0.0
C771 C 0.18298 0.40148 0.25255 0.0
H772 H 0.1548 0.41305 0.34169 0.0
C773 C 0.20835 0.43036 0.2505 0.0
C774 C 0.21368 0.45378 0.28082 0.0
H775 H 0.17749 0.38606 0.22767 0.0
H776 H 0.2228 0.43522 0.22473 0.0
C777 C 0.19449 0.44695 0.31382 0.0
C778 C 0.29254 0.57426 0.75312 0.0
C779 C 0.28701 0.55066 0.78327 0.0
H780 H 0.32329 0.61894 0.7309 0.0
C781 C 0.30563 0.55757 0.81657 0.0
H782 H 0.27853 0.56936 0.72713 0.0
C783 C 0.32995 0.58736 0.8194 0.0
C784 C 0.3365 0.61043 0.78887 0.0
H785 H 0.30126 0.54006 0.84047 0.0
H786 H 0.34452 0.5918 0.84514 0.0
C787 C 0.31755 0.6034 0.75566 0.0
C788 C 0.68078 0.10025 0.74896 0.0
C789 C 0.66038 0.10603 0.7164 0.0
H790 H 0.72191 0.068 0.77656 0.0
C791 C 0.66648 0.08261 0.68605 0.0
H792 H 0.67549 0.11612 0.77362 0.0
C793 C 0.69192 0.05373 0.68841 0.0
C794 C 0.71203 0.04803 0.72108 0.0
H795 H 0.65079 0.08612 0.66084 0.0
H796 H 0.69595 0.03594 0.66466 0.0
C797 C 0.70682 0.07197 0.75103 0.0
C798 C 0.82015 0.90166 0.2482 0.0
C799 C 0.83961 0.89524 0.21515 0.0
H800 H 0.78037 0.93489 0.27665 0.0
C801 C 0.8333 0.91869 0.18486 0.0
H802 H 0.82569 0.88581 0.27281 0.0
C803 C 0.80857 0.94815 0.18773 0.0
C804 C 0.78936 0.9544 0.22085 0.0
H805 H 0.84829 0.91472 0.15927 0.0
H806 H 0.80432 0.9659 0.16399 0.0
C807 C 0.79479 0.9305 0.25078 0.0
C808 C 0.30648 0.18013 0.45845 0.0
C809 C 0.28495 0.21241 0.456 0.0
H810 H 0.32471 0.13071 0.43093 0.0
C811 C 0.26735 0.22086 0.42245 0.0
H812 H 0.32084 0.17318 0.48375 0.0
C813 C 0.27009 0.19691 0.39247 0.0
C814 C 0.29038 0.1641 0.3954 0.0
H815 H 0.2511 0.24579 0.41939 0.0
H816 H 0.25556 0.20343 0.36715 0.0
C817 C 0.3092 0.15615 0.42825 0.0
C818 C 0.18867 0.84133 0.92135 0.0
C819 C 0.21918 0.84564 0.89772 0.0
H820 H 0.16592 0.81346 0.96844 0.0
C821 C 0.2506 0.82361 0.90373 0.0
H822 H 0.16429 0.85824 0.91773 0.0
C823 C 0.25132 0.79771 0.93227 0.0
C824 C 0.22121 0.79421 0.95631 0.0
H825 H 0.27543 0.82738 0.88776 0.0
H826 H 0.276 0.7813 0.93633 0.0
C827 C 0.18974 0.81605 0.95053 0.0
C828 C 0.75448 0.29645 0.57123 0.0
C829 C 0.78433 0.29283 0.54692 0.0
H830 H 0.73102 0.32612 0.616 0.0
C831 C 0.81611 0.31425 0.55259 0.0
H832 H 0.72959 0.28035 0.56724 0.0
C833 C 0.8177 0.33932 0.58193 0.0
C834 C 0.78741 0.34382 0.60579 0.0
H835 H 0.83975 0.31152 0.53446 0.0
H836 H 0.84226 0.356 0.58544 0.0
C837 C 0.75572 0.32214 0.5999 0.0
C838 C 0.69174 0.65405 0.07461 0.0
C839 C 0.71186 0.66102 0.1069 0.0
H840 H 0.6784 0.67239 0.01991 0.0
C841 C 0.73287 0.69339 0.10969 0.0
H842 H 0.67561 0.62899 0.07205 0.0
C843 C 0.7349 0.71792 0.0801 0.0
C844 C 0.71591 0.71048 0.04708 0.0
H845 H 0.74837 0.69919 0.13459 0.0
H846 H 0.75169 0.74251 0.08304 0.0
C847 C 0.69381 0.67858 0.04479 0.0
C848 C 0.40106 0.25571 0.18424 0.0
C849 C 0.39443 0.28827 0.164 0.0
H850 H 0.43471 0.22826 0.22438 0.0
C851 C 0.41787 0.31876 0.16946 0.0
H852 H 0.38528 0.23093 0.1795 0.0
C853 C 0.44761 0.31646 0.19387 0.0
C854 C 0.45406 0.28381 0.21376 0.0
H855 H 0.41376 0.34402 0.15394 0.0
H856 H 0.46546 0.34024 0.19729 0.0
C857 C 0.43011 0.25378 0.20939 0.0
C858 C 0.89317 0.23666 0.81206 0.0
C859 C 0.89602 0.21572 0.84448 0.0
H860 H 0.91962 0.25536 0.76286 0.0
C861 C 0.92827 0.19553 0.85143 0.0
H862 H 0.86827 0.25211 0.80621 0.0
C863 C 0.95796 0.19745 0.82677 0.0
C864 C 0.95557 0.21945 0.79478 0.0
H865 H 0.93084 0.1794 0.8765 0.0
H866 H 0.98278 0.18194 0.83287 0.0
C867 C 0.92263 0.23858 0.78746 0.0
C868 C 0.55249 0.81439 0.31553 0.0
C869 C 0.547 0.78289 0.29358 0.0
H870 H 0.58493 0.83996 0.35788 0.0
C871 C 0.57129 0.75296 0.29685 0.0
H872 H 0.53436 0.83808 0.31308 0.0
C873 C 0.59973 0.75381 0.32277 0.0
C874 C 0.60537 0.78521 0.34501 0.0
H875 H 0.56744 0.72827 0.28034 0.0
H876 H 0.61583 0.72904 0.32644 0.0
C877 C 0.58157 0.81562 0.34081 0.0
C878 C 0.10759 0.73323 0.69198 0.0
C879 C 0.10411 0.71261 0.65941 0.0
H880 H 0.08178 0.75213 0.74146 0.0
C881 C 0.07147 0.69307 0.65254 0.0
H882 H 0.13277 0.74829 0.69766 0.0
C883 C 0.04198 0.69538 0.6774 0.0
C884 C 0.04498 0.71717 0.70949 0.0
H885 H 0.06839 0.67726 0.62733 0.0
H886 H 0.01682 0.68045 0.67131 0.0
C887 C 0.07833 0.73554 0.71679 0.0
C888 C 0.82982 0.58569 0.68334 0.0
C889 C 0.8357 0.60954 0.71341 0.0
H890 H 0.80184 0.53773 0.66292 0.0
C891 C 0.81592 0.60336 0.74635 0.0
H892 H 0.84495 0.58947 0.65781 0.0
C893 C 0.79084 0.57425 0.74905 0.0
C894 C 0.78612 0.54982 0.71944 0.0
H895 H 0.821 0.61953 0.77082 0.0
H896 H 0.77621 0.56999 0.77482 0.0
C897 C 0.80555 0.5559 0.68642 0.0
C898 C 0.66625 0.4192 0.18322 0.0
C899 C 0.66088 0.39522 0.2133 0.0
H900 H 0.69404 0.46721 0.16246 0.0
C901 C 0.68079 0.4016 0.24608 0.0
H902 H 0.65091 0.4153 0.15785 0.0
C903 C 0.70573 0.4308 0.24854 0.0
C904 C 0.71025 0.45516 0.21883 0.0
H905 H 0.67597 0.3854 0.2706 0.0
H906 H 0.72059 0.43506 0.27416 0.0
C907 C 0.6905 0.44908 0.18603 0.0
C908 C 0.3363 0.92118 0.32205 0.0
C909 C 0.3414 0.89715 0.29192 0.0
H910 H 0.30861 0.96922 0.34305 0.0
C911 C 0.32124 0.90357 0.25932 0.0
H912 H 0.35187 0.9173 0.34729 0.0
C913 C 0.29623 0.93273 0.25711 0.0
C914 C 0.29186 0.95706 0.28689 0.0
H915 H 0.32584 0.88741 0.23474 0.0
H916 H 0.28118 0.93699 0.2316 0.0
C917 C 0.31195 0.95105 0.31948 0.0
C918 C 0.20744 0.07316 0.75091 0.0
C919 C 0.21381 0.04931 0.78069 0.0
H920 H 0.176 0.11802 0.72995 0.0
C921 C 0.19589 0.05579 0.8145 0.0
H922 H 0.22089 0.06861 0.72456 0.0
C923 C 0.17147 0.0854 0.81821 0.0
C924 C 0.16418 0.10879 0.78812 0.0
H925 H 0.20092 0.03811 0.83813 0.0
H926 H 0.15748 0.08954 0.84433 0.0
C927 C 0.18236 0.10218 0.75437 0.0
C928 C 0.68856 0.83578 0.58291 0.0
C929 C 0.71914 0.84197 0.60591 0.0
H930 H 0.66648 0.80591 0.53686 0.0
C931 C 0.75141 0.82113 0.60007 0.0
H932 H 0.66355 0.85176 0.58649 0.0
C933 C 0.75298 0.79468 0.57207 0.0
C934 C 0.72279 0.78944 0.5485 0.0
H935 H 0.77619 0.82639 0.61567 0.0
H936 H 0.77831 0.77932 0.56798 0.0
C937 C 0.6904 0.8099 0.55435 0.0
C938 C 0.74952 0.20714 0.07114 0.0
C939 C 0.77962 0.21205 0.04735 0.0
H940 H 0.72637 0.17603 0.11521 0.0
C941 C 0.81196 0.19151 0.05324 0.0
H942 H 0.72422 0.22255 0.06703 0.0
C943 C 0.81384 0.16596 0.08212 0.0
C944 C 0.78334 0.16016 0.10538 0.0
H945 H 0.83581 0.19526 0.03558 0.0
H946 H 0.83882 0.14996 0.08576 0.0
C947 C 0.75111 0.18102 0.09943 0.0
C948 C 0.1866 0.69021 0.44867 0.0
C949 C 0.21858 0.71125 0.45466 0.0
H950 H 0.16048 0.64833 0.41597 0.0
C951 C 0.24878 0.70694 0.43089 0.0
H952 H 0.16268 0.6935 0.46633 0.0
C953 C 0.24768 0.68088 0.40253 0.0
C954 C 0.21582 0.6595 0.39646 0.0
H955 H 0.27382 0.72275 0.43509 0.0
H956 H 0.27255 0.67636 0.38682 0.0
C957 C 0.18518 0.66474 0.41969 0.0
C958 C 0.31487 0.31516 0.95164 0.0
C959 C 0.28358 0.2929 0.9567 0.0
H960 H 0.34017 0.35825 0.91986 0.0
C961 C 0.25372 0.29643 0.9324 0.0
H962 H 0.3385 0.31255 0.96979 0.0
C963 C 0.25446 0.32283 0.90436 0.0
C964 C 0.28567 0.34533 0.89908 0.0
H965 H 0.22917 0.27972 0.93595 0.0
H966 H 0.22974 0.32662 0.88825 0.0
C967 C 0.31599 0.34096 0.92292 0.0
C968 C 0.56978 0.74699 0.79425 0.0
C969 C 0.5454 0.71728 0.7901 0.0
H970 H 0.61498 0.76936 0.82388 0.0
C971 C 0.55136 0.68468 0.81022 0.0
H972 H 0.56554 0.77248 0.7791 0.0
C973 C 0.58112 0.6821 0.83459 0.0
C974 C 0.60506 0.71224 0.83971 0.0
H975 H 0.53315 0.66115 0.80697 0.0
H976 H 0.5849 0.6569 0.8503 0.0
C977 C 0.59885 0.74478 0.81932 0.0
C978 C 0.05253 0.81678 0.19164 0.0
C979 C 0.04662 0.78405 0.2116 0.0
H980 H 0.08597 0.84483 0.15166 0.0
C981 C 0.07102 0.75438 0.2072 0.0
H982 H 0.03432 0.84028 0.19507 0.0
C983 C 0.10007 0.75679 0.18208 0.0
C984 C 0.10623 0.78947 0.16189 0.0
H985 H 0.06685 0.72881 0.22221 0.0
H986 H 0.11629 0.73228 0.17734 0.0
C987 C 0.08224 0.81954 0.16721 0.0
C988 C 0.42987 0.24924 0.70798 0.0
C989 C 0.45406 0.21949 0.71279 0.0
H990 H 0.38455 0.27102 0.67806 0.0
C991 C 0.44771 0.18635 0.69364 0.0
H992 H 0.43436 0.2751 0.72239 0.0
C993 C 0.41774 0.18325 0.66965 0.0
C994 C 0.394 0.21338 0.66389 0.0
H995 H 0.46573 0.16276 0.69743 0.0
H996 H 0.41364 0.15764 0.65472 0.0
C997 C 0.40059 0.24648 0.68324 0.0
C998 C 0.92082 0.31981 0.33474 0.0
C999 C 0.89697 0.28964 0.34012 0.0
H1000 H 0.96828 0.34094 0.30637 0.0
C1001 C 0.90289 0.25719 0.31951 0.0
H1002 H 0.91727 0.34494 0.35061 0.0
C1003 C 0.93157 0.2551 0.29394 0.0
C1004 C 0.95584 0.28485 0.28945 0.0
H1005 H 0.88679 0.2326 0.32425 0.0
H1006 H 0.93556 0.22967 0.27863 0.0
C1007 C 0.95017 0.31737 0.30983 0.0
C1008 C 0.1029 0.12028 0.24947 0.0
C1009 C 0.13154 0.12566 0.27534 0.0
H1010 H 0.06105 0.14554 0.21569 0.0
C1011 C 0.1376 0.16134 0.28911 0.0
H1012 H 0.09765 0.09311 0.23807 0.0
C1013 C 0.11671 0.19111 0.27639 0.0
C1014 C 0.08926 0.18625 0.24922 0.0
H1015 H 0.15934 0.16656 0.30892 0.0
H1016 H 0.12302 0.21829 0.28725 0.0
C1017 C 0.08206 0.15032 0.23641 0.0
C1018 C 0.37111 0.84708 0.79407 0.0
C1019 C 0.37445 0.88126 0.77616 0.0
H1020 H 0.38685 0.79034 0.79577 0.0
C1021 C 0.40007 0.88458 0.74696 0.0
H1022 H 0.35211 0.8436 0.81686 0.0
C1023 C 0.42011 0.85377 0.73452 0.0
C1024 C 0.41505 0.81908 0.75114 0.0
H1025 H 0.40329 0.91054 0.7324 0.0
H1026 H 0.43844 0.85685 0.71107 0.0
C1027 C 0.39113 0.81647 0.78179 0.0
C1028 C 0.6363 0.34146 0.70903 0.0
C1029 C 0.63056 0.37702 0.72338 0.0
H1030 H 0.62211 0.28422 0.71122 0.0
C1031 C 0.60273 0.38193 0.75022 0.0
H1032 H 0.65712 0.33663 0.68819 0.0
C1033 C 0.58258 0.3517 0.76375 0.0
C1034 C 0.58965 0.31588 0.75061 0.0
H1035 H 0.59756 0.40893 0.76207 0.0
H1036 H 0.56221 0.3563 0.78516 0.0
C1037 C 0.61614 0.31134 0.72243 0.0
C1038 C 0.86448 0.65914 0.21113 0.0
C1039 C 0.87073 0.62375 0.22561 0.0
H1040 H 0.87863 0.7163 0.21207 0.0
C1041 C 0.89933 0.61909 0.25164 0.0
H1042 H 0.84274 0.66385 0.19118 0.0
C1043 C 0.91989 0.64953 0.26419 0.0
C1044 C 0.91245 0.68518 0.25075 0.0
H1045 H 0.90477 0.5922 0.2636 0.0
H1046 H 0.94085 0.64526 0.28508 0.0
C1047 C 0.88509 0.68935 0.22338 0.0
C1048 C 0.28184 0.11342 0.18933 0.0
C1049 C 0.25216 0.08848 0.18537 0.0
H1050 H 0.31634 0.15418 0.164 0.0
C1051 C 0.23668 0.08371 0.15014 0.0
H1052 H 0.29494 0.1176 0.2159 0.0
C1053 C 0.24938 0.10478 0.12011 0.0
C1054 C 0.27763 0.13125 0.12475 0.0
H1055 H 0.21399 0.06468 0.14603 0.0
H1056 H 0.23579 0.10159 0.09366 0.0
C1057 C 0.29429 0.13455 0.15951 0.0
C1058 C 0.26234 0.92118 0.64859 0.0
C1059 C 0.25191 0.91226 0.6849 0.0
H1060 H 0.25828 0.90761 0.59111 0.0
C1061 C 0.22631 0.88345 0.69034 0.0
H1062 H 0.28173 0.94335 0.64335 0.0
C1063 C 0.2128 0.863 0.66046 0.0
C1064 C 0.2243 0.87092 0.62426 0.0
H1065 H 0.2174 0.87587 0.71789 0.0
H1066 H 0.19434 0.84012 0.66595 0.0
C1067 C 0.2486 0.90083 0.61861 0.0
C1068 C 0.73511 0.42188 0.85249 0.0
C1069 C 0.74801 0.4137 0.81679 0.0
H1070 H 0.73634 0.40784 0.91005 0.0
C1071 C 0.77503 0.386 0.81271 0.0
H1072 H 0.71453 0.44317 0.85669 0.0
C1073 C 0.78755 0.36583 0.84315 0.0
C1074 C 0.77362 0.37288 0.87865 0.0
H1075 H 0.78587 0.37899 0.7857 0.0
H1076 H 0.80721 0.34379 0.83858 0.0
C1077 C 0.74788 0.40178 0.88311 0.0
C1078 C 0.7656 0.58157 0.35345 0.0
C1079 C 0.75081 0.58774 0.31813 0.0
H1080 H 0.7659 0.59748 0.41047 0.0
C1081 C 0.72157 0.61319 0.31447 0.0
H1082 H 0.78789 0.56202 0.35736 0.0
C1083 C 0.70884 0.63339 0.34485 0.0
C1084 C 0.72491 0.62873 0.3798 0.0
H1085 H 0.70904 0.61837 0.2878 0.0
H1086 H 0.68715 0.65347 0.34065 0.0
C1087 C 0.75274 0.60178 0.38395 0.0
C1088 C 0.15037 0.23675 0.08253 0.0
C1089 C 0.18551 0.25216 0.08783 0.0
H1090 H 0.09372 0.23614 0.0995 0.0
C1091 C 0.18919 0.28209 0.11254 0.0
H1092 H 0.1465 0.21389 0.06361 0.0
C1093 C 0.15911 0.29489 0.13297 0.0
C1094 C 0.12443 0.27823 0.12927 0.0
H1095 H 0.21569 0.29515 0.11703 0.0
H1096 H 0.16333 0.31718 0.15243 0.0
C1097 C 0.12011 0.24973 0.10299 0.0
C1098 C 0.68845 0.22243 0.88742 0.0
C1099 C 0.68353 0.25114 0.91332 0.0
H1100 H 0.66386 0.18772 0.84637 0.0
C1101 C 0.64774 0.26459 0.91948 0.0
H1102 H 0.71555 0.21094 0.88222 0.0
C1103 C 0.61794 0.25094 0.8989 0.0
C1104 C 0.62329 0.22368 0.87152 0.0
H1105 H 0.64288 0.28641 0.93939 0.0
H1106 H 0.59098 0.26308 0.9033 0.0
C1107 C 0.65875 0.20893 0.8668 0.0
C1108 C 0.81123 0.77852 0.3857 0.0
C1109 C 0.81628 0.75036 0.41214 0.0
H1110 H 0.83576 0.81276 0.34425 0.0
C1111 C 0.85214 0.73721 0.41858 0.0
H1112 H 0.78407 0.78973 0.38025 0.0
C1113 C 0.88192 0.75068 0.39784 0.0
C1114 C 0.87648 0.77746 0.37004 0.0
H1115 H 0.8571 0.7158 0.4389 0.0
H1116 H 0.90895 0.73882 0.40251 0.0
C1117 C 0.84093 0.79186 0.36495 0.0
C1118 C 0.37989 0.75266 0.60479 0.0
C1119 C 0.37471 0.72553 0.63232 0.0
H1120 H 0.35476 0.78726 0.56364 0.0
C1121 C 0.3395 0.71015 0.63677 0.0
H1122 H 0.40669 0.76525 0.60066 0.0
C1123 C 0.30984 0.7228 0.6156 0.0
C1124 C 0.31452 0.75132 0.58945 0.0
H1125 H 0.33459 0.68893 0.65722 0.0
H1126 H 0.28293 0.71078 0.62056 0.0
C1127 C 0.3501 0.76551 0.58367 0.0
C1128 C 0.8701 0.84612 0.70647 0.0
C1129 C 0.87333 0.88038 0.7242 0.0
H1130 H 0.88597 0.78942 0.70505 0.0
C1131 C 0.8989 0.88387 0.75344 0.0
H1132 H 0.85118 0.8425 0.68366 0.0
C1133 C 0.91901 0.85316 0.76605 0.0
C1134 C 0.91405 0.81839 0.74959 0.0
H1135 H 0.90204 0.90991 0.76786 0.0
H1136 H 0.93729 0.85638 0.78949 0.0
C1137 C 0.89016 0.8156 0.71894 0.0
C1138 C 0.6325 0.15768 0.20847 0.0
C1139 C 0.62912 0.12312 0.2256 0.0
H1140 H 0.61638 0.21435 0.20764 0.0
C1141 C 0.60326 0.11917 0.25454 0.0
H1142 H 0.65171 0.16171 0.18594 0.0
C1143 C 0.58288 0.14962 0.26737 0.0
C1144 C 0.58778 0.18464 0.25139 0.0
H1145 H 0.59999 0.09291 0.26855 0.0
H1146 H 0.56428 0.14598 0.29051 0.0
C1147 C 0.61212 0.18796 0.22111 0.0
C1148 C 0.38858 0.6888 0.28369 0.0
C1149 C 0.41362 0.68553 0.254 0.0
H1150 H 0.34845 0.66237 0.3181 0.0
C1151 C 0.41922 0.65048 0.23834 0.0
H1152 H 0.38377 0.71524 0.2969 0.0
C1153 C 0.39887 0.61992 0.25086 0.0
C1154 C 0.37233 0.62379 0.27918 0.0
H1155 H 0.43839 0.64688 0.21566 0.0
H1156 H 0.40271 0.59362 0.23709 0.0
C1157 C 0.36822 0.65841 0.29604 0.0
C1158 C 0.11319 0.31501 0.78426 0.0
C1159 C 0.08808 0.31846 0.75465 0.0
H1160 H 0.15324 0.34125 0.81884 0.0
C1161 C 0.08223 0.35365 0.73941 0.0
H1162 H 0.11818 0.28847 0.79718 0.0
C1163 C 0.10245 0.38418 0.75224 0.0
C1164 C 0.12907 0.38014 0.78045 0.0
H1165 H 0.063 0.35738 0.71682 0.0
H1166 H 0.09844 0.41061 0.73877 0.0
C1167 C 0.13339 0.34536 0.79691 0.0
C1168 C 0.74935 0.89722 0.88134 0.0
C1169 C 0.72342 0.86871 0.87549 0.0
H1170 H 0.78373 0.93905 0.85704 0.0
C1171 C 0.71028 0.8629 0.8395 0.0
H1172 H 0.76028 0.90247 0.90868 0.0
C1173 C 0.72386 0.8838 0.80993 0.0
C1174 C 0.75106 0.91111 0.81547 0.0
H1175 H 0.69016 0.84159 0.83391 0.0
H1176 H 0.71356 0.87782 0.78248 0.0
C1177 C 0.76308 0.9181 0.85168 0.0
C1178 C 0.77898 0.11841 0.31099 0.0
C1179 C 0.75137 0.09147 0.31627 0.0
H1180 H 0.81286 0.16028 0.33528 0.0
C1181 C 0.73883 0.0847 0.35236 0.0
H1182 H 0.78971 0.12419 0.28365 0.0
C1183 C 0.7524 0.1055 0.38213 0.0
C1184 C 0.7787 0.1337 0.37651 0.0
H1185 H 0.71785 0.06402 0.35752 0.0
H1186 H 0.74102 0.10049 0.40936 0.0
C1187 C 0.79242 0.13922 0.34067 0.0
C1188 C 0.211 0.63919 0.16169 0.0
C1189 C 0.22524 0.63405 0.12601 0.0
H1190 H 0.21299 0.62373 0.21862 0.0
C1191 C 0.25184 0.60608 0.12056 0.0
H1192 H 0.19033 0.66006 0.16695 0.0
C1193 C 0.26515 0.58513 0.15037 0.0
C1194 C 0.25204 0.59151 0.18633 0.0
H1195 H 0.26363 0.60136 0.09345 0.0
H1196 H 0.28636 0.56465 0.14536 0.0
C1197 C 0.22416 0.61823 0.1914 0.0
C1198 C 0.2373 0.41883 0.65269 0.0
C1199 C 0.24988 0.41207 0.68875 0.0
H1200 H 0.2393 0.40292 0.59573 0.0
C1201 C 0.27723 0.38486 0.69404 0.0
H1202 H 0.21651 0.43969 0.64752 0.0
C1203 C 0.29041 0.36383 0.66439 0.0
C1204 C 0.27672 0.36942 0.62857 0.0
H1205 H 0.28794 0.37906 0.72137 0.0
H1206 H 0.31068 0.34261 0.66977 0.0
C1207 C 0.25065 0.39784 0.62295 0.0
C1208 C 0.84044 0.70796 0.8657 0.0
C1209 C 0.87514 0.72458 0.86931 0.0
H1210 H 0.78411 0.70707 0.88252 0.0
C1211 C 0.87971 0.75254 0.89615 0.0
H1212 H 0.83601 0.68609 0.84582 0.0
C1213 C 0.84969 0.76495 0.91738 0.0
C1214 C 0.81454 0.74947 0.91236 0.0
H1215 H 0.90613 0.7661 0.89959 0.0
H1216 H 0.85378 0.78739 0.93675 0.0
C1217 C 0.81063 0.72014 0.88694 0.0
C1218 C 0.35204 0.74012 0.08586 0.0
C1219 C 0.31639 0.75409 0.0917 0.0
H1220 H 0.40862 0.74045 0.10304 0.0
C1221 C 0.31158 0.7822 0.11833 0.0
H1222 H 0.35682 0.71868 0.06553 0.0
C1223 C 0.3411 0.79467 0.13979 0.0
C1224 C 0.3764 0.7796 0.1352 0.0
H1225 H 0.28462 0.79405 0.12348 0.0
H1226 H 0.33599 0.81548 0.16062 0.0
C1227 C 0.38175 0.75285 0.10728 0.0
C1228 C 0.15003 0.26581 0.58627 0.0
C1229 C 0.18518 0.25024 0.59098 0.0
H1230 H 0.09372 0.26694 0.60441 0.0
C1231 C 0.18918 0.2207 0.61617 0.0
H1232 H 0.14588 0.28841 0.56709 0.0
C1233 C 0.15948 0.20844 0.63752 0.0
C1234 C 0.12479 0.22515 0.63424 0.0
H1235 H 0.21569 0.20755 0.62035 0.0
H1236 H 0.16399 0.18644 0.65724 0.0
C1237 C 0.12012 0.2533 0.6076 0.0
C1238 C 0.66184 0.29418 0.36474 0.0
C1239 C 0.6267 0.27881 0.36963 0.0
H1240 H 0.71854 0.29381 0.38035 0.0
C1241 C 0.62187 0.25182 0.3974 0.0
H1242 H 0.66654 0.31521 0.34403 0.0
C1243 C 0.65193 0.23916 0.41836 0.0
C1244 C 0.68742 0.25341 0.41218 0.0
H1245 H 0.59514 0.2392 0.40185 0.0
H1246 H 0.64754 0.21753 0.43858 0.0
C1247 C 0.69172 0.28175 0.38573 0.0
C1248 C 0.9366 0.28184 0.0432 0.0
C1249 C 0.92405 0.26823 0.07748 0.0
H1250 H 0.92196 0.3067 0.99115 0.0
C1251 C 0.88645 0.27104 0.08587 0.0
H1252 H 0.96549 0.27985 0.03589 0.0
C1253 C 0.86208 0.28761 0.06109 0.0
C1254 C 0.87434 0.30119 0.02677 0.0
H1255 H 0.87551 0.25912 0.11096 0.0
H1256 H 0.83314 0.28719 0.06788 0.0
C1257 C 0.91191 0.29782 0.01791 0.0
C1258 C 0.58918 0.70405 0.51896 0.0
C1259 C 0.62659 0.70014 0.52823 0.0
H1260 H 0.53555 0.72228 0.53652 0.0
C1261 C 0.63849 0.7128 0.56301 0.0
H1262 H 0.5794 0.6958 0.49191 0.0
C1263 C 0.61394 0.72921 0.58774 0.0
C1264 C 0.57651 0.73266 0.57886 0.0
H1265 H 0.66732 0.71262 0.57026 0.0
H1266 H 0.62466 0.74051 0.61319 0.0
C1267 C 0.56431 0.71982 0.54419 0.0
C1268 C 0.40226 0.24052 0.9895 0.0
C1269 C 0.38362 0.20666 0.98478 0.0
H1270 H 0.43758 0.28155 0.96589 0.0
C1271 C 0.38964 0.18664 0.95214 0.0
H1272 H 0.39801 0.25715 0.01402 0.0
C1273 C 0.41311 0.20059 0.92459 0.0
C1274 C 0.42981 0.23568 0.92834 0.0
H1275 H 0.37589 0.16044 0.94773 0.0
H1276 H 0.41824 0.1835 0.90077 0.0
C1277 C 0.42466 0.25491 0.96162 0.0
C1278 C 0.13698 0.78396 0.44221 0.0
C1279 C 0.12372 0.79802 0.47598 0.0
H1280 H 0.12473 0.75521 0.39215 0.0
C1281 C 0.08596 0.79485 0.48389 0.0
H1282 H 0.16623 0.7835 0.4363 0.0
C1283 C 0.06193 0.77879 0.45806 0.0
C1284 C 0.07537 0.76489 0.42424 0.0
H1285 H 0.07521 0.80412 0.51024 0.0
H1286 H 0.03282 0.77707 0.46453 0.0
C1287 C 0.11321 0.76733 0.41688 0.0
C1288 C 0.07927 0.91115 0.30417 0.0
C1289 C 0.0765 0.92759 0.26885 0.0
H1290 H 0.05489 0.87438 0.34408 0.0
C1291 C 0.04385 0.92209 0.24873 0.0
H1292 H 0.10262 0.91634 0.32183 0.0
C1293 C 0.01554 0.89999 0.26262 0.0
C1294 C 0.01914 0.88185 0.29686 0.0
H1295 H 0.04031 0.93465 0.2218 0.0
H1296 H 0.99152 0.89562 0.24536 0.0
C1297 C 0.05128 0.88787 0.31762 0.0
C1298 C 0.4838 0.08745 0.79206 0.0
C1299 C 0.47594 0.12523 0.79595 0.0
H1300 H 0.46503 0.03473 0.77227 0.0
C1301 C 0.44286 0.13898 0.78093 0.0
H1302 H 0.50965 0.07631 0.80212 0.0
C1303 C 0.41841 0.11577 0.76226 0.0
C1304 C 0.42557 0.07783 0.75921 0.0
H1305 H 0.43693 0.16828 0.78127 0.0
H1306 H 0.39461 0.12794 0.74913 0.0
C1307 C 0.45862 0.06388 0.77432 0.0
C1308 C 0.53699 0.57669 0.7539 0.0
C1309 C 0.57001 0.57145 0.73434 0.0
H1310 H 0.48485 0.60371 0.75674 0.0
C1311 C 0.57346 0.58812 0.69921 0.0
H1312 H 0.53295 0.56376 0.78058 0.0
C1313 C 0.54596 0.61178 0.68558 0.0
C1314 C 0.51365 0.61804 0.70599 0.0
H1315 H 0.59707 0.5829 0.68189 0.0
H1316 H 0.55021 0.6256 0.65938 0.0
C1317 C 0.50913 0.59931 0.73984 0.0
C1318 C 0.98758 0.40077 0.23919 0.0
C1319 C 0.98328 0.38297 0.20482 0.0
H1320 H 0.96349 0.43489 0.28093 0.0
C1321 C 0.95074 0.38913 0.1848 0.0
H1322 H 0.01197 0.39631 0.25587 0.0
C1323 C 0.92298 0.41211 0.19913 0.0
C1324 C 0.92638 0.42808 0.2346 0.0
H1325 H 0.94663 0.37594 0.15826 0.0
H1326 H 0.89931 0.41746 0.18197 0.0
C1327 C 0.95947 0.4226 0.25394 0.0
C1328 C 0.27239 0.08883 0.8861 0.0
C1329 C 0.26893 0.08025 0.92367 0.0
H1330 H 0.28929 0.07104 0.83285 0.0
C1331 C 0.28212 0.04583 0.93626 0.0
H1332 H 0.26086 0.11406 0.8751 0.0
C1333 C 0.29824 0.02055 0.91164 0.0
C1334 C 0.30215 0.02952 0.87407 0.0
H1335 H 0.27968 0.0384 0.96514 0.0
H1336 H 0.30676 0.99369 0.92173 0.0
C1337 C 0.28914 0.06405 0.8618 0.0
C1338 C 0.77416 0.45911 0.06341 0.0
C1339 C 0.75919 0.42589 0.07727 0.0
H1340 H 0.80127 0.51057 0.07606 0.0
C1341 C 0.76161 0.41893 0.11528 0.0
H1342 H 0.77249 0.46536 0.0342 0.0
C1343 C 0.77954 0.44377 0.13867 0.0
C1344 C 0.79458 0.47694 0.125 0.0
H1345 H 0.74849 0.39498 0.12729 0.0
H1346 H 0.77934 0.43804 0.168 0.0
C1347 C 0.79125 0.48463 0.08714 0.0
C1348 C 0.72643 0.54248 0.56308 0.0
C1349 C 0.74089 0.57596 0.57685 0.0
H1350 H 0.69929 0.49106 0.57572 0.0
C1351 C 0.73729 0.58344 0.61469 0.0
H1352 H 0.72892 0.53578 0.53404 0.0
C1353 C 0.71865 0.55894 0.63791 0.0
C1354 C 0.70432 0.52544 0.62434 0.0
H1355 H 0.74995 0.60754 0.62682 0.0
H1356 H 0.71782 0.56519 0.66713 0.0
C1357 C 0.70879 0.51723 0.58669 0.0
C1358 C 0.19923 0.92585 0.41429 0.0
C1359 C 0.23516 0.9284 0.42919 0.0
H1360 H 0.15828 0.95012 0.37873 0.0
C1361 C 0.2555 0.96067 0.42243 0.0
H1362 H 0.18148 0.90287 0.4208 0.0
C1363 C 0.24125 0.98872 0.40014 0.0
C1364 C 0.20636 0.98516 0.38334 0.0
H1365 H 0.28286 0.96396 0.43395 0.0
H1366 H 0.25866 0.0124 0.39449 0.0
C1367 C 0.18531 0.95356 0.39099 0.0
C1368 C 0.07909 0.75377 0.95833 0.0
C1369 C 0.07343 0.73312 0.92597 0.0
H1370 H 0.10641 0.75836 0.01018 0.0
C1371 C 0.09051 0.69809 0.92332 0.0
H1372 H 0.06606 0.78048 0.96178 0.0
C1373 C 0.11456 0.68549 0.95106 0.0
C1374 C 0.12073 0.70681 0.98287 0.0
H1375 H 0.08524 0.68002 0.90024 0.0
H1376 H 0.12849 0.65925 0.94753 0.0
C1377 C 0.10199 0.74072 0.98641 0.0
C1378 C 0.42612 0.25115 0.46337 0.0
C1379 C 0.43058 0.27062 0.4301 0.0
H1380 H 0.39975 0.2478 0.51584 0.0
C1381 C 0.41273 0.30516 0.42652 0.0
H1382 H 0.43989 0.22493 0.46758 0.0
C1383 C 0.38885 0.31821 0.45422 0.0
C1384 C 0.38349 0.29784 0.48681 0.0
H1385 H 0.41716 0.32245 0.40267 0.0
H1386 H 0.37422 0.34394 0.44992 0.0
C1387 C 0.40332 0.26466 0.49136 0.0
C1388 C 0.61175 0.81775 0.0503 0.0
C1389 C 0.61711 0.79695 0.01799 0.0
H1390 H 0.58386 0.8224 0.10201 0.0
C1391 C 0.5978 0.76338 0.01416 0.0
H1392 H 0.62601 0.84377 0.05404 0.0
C1393 C 0.57546 0.74998 0.04258 0.0
C1394 C 0.57098 0.76993 0.07556 0.0
H1395 H 0.60145 0.74618 0.98993 0.0
H1396 H 0.56206 0.72349 0.03892 0.0
C1397 C 0.58834 0.80478 0.07842 0.0
C1398 C 0.88902 0.18563 0.55211 0.0
C1399 C 0.88328 0.20647 0.5199 0.0
H1400 H 0.9172 0.18116 0.60365 0.0
C1401 C 0.90176 0.24053 0.5163 0.0
H1402 H 0.87529 0.15929 0.5557 0.0
C1403 C 0.92389 0.25419 0.54472 0.0
C1404 C 0.92902 0.23404 0.57748 0.0
H1405 H 0.89765 0.25782 0.49222 0.0
H1406 H 0.93672 0.28099 0.5412 0.0
C1407 C 0.91228 0.19887 0.58021 0.0
C1408 C 0.92527 0.08886 0.7035 0.0
C1409 C 0.92814 0.07351 0.73929 0.0
H1410 H 0.94913 0.12489 0.66266 0.0
C1411 C 0.96056 0.07994 0.75939 0.0
H1412 H 0.90216 0.08257 0.68588 0.0
C1413 C 0.98841 0.10246 0.74514 0.0
C1414 C 0.9845 0.11981 0.71047 0.0
H1415 H 0.96413 0.06799 0.78659 0.0
H1416 H 0.01221 0.10781 0.76241 0.0
C1417 C 0.9528 0.11234 0.68957 0.0
C1418 C 0.54161 0.92332 0.25975 0.0
C1419 C 0.57413 0.92983 0.23978 0.0
H1420 H 0.48992 0.89548 0.2624 0.0
C1421 C 0.57718 0.91464 0.20395 0.0
H1422 H 0.53794 0.93513 0.28699 0.0
C1423 C 0.54972 0.89123 0.18981 0.0
C1424 C 0.51789 0.88376 0.21052 0.0
H1425 H 0.60037 0.92101 0.18644 0.0
H1426 H 0.55353 0.87878 0.16286 0.0
C1427 C 0.51382 0.90091 0.24527 0.0
C1428 C 0.45274 0.39079 0.31558 0.0
C1429 C 0.48497 0.38365 0.29534 0.0
H1430 H 0.40195 0.4204 0.31845 0.0
C1431 C 0.48963 0.40135 0.26095 0.0
H1432 H 0.44846 0.37794 0.34226 0.0
C1433 C 0.46204 0.42392 0.24629 0.0
C1434 C 0.42914 0.43009 0.26572 0.0
H1435 H 0.51385 0.39624 0.24418 0.0
H1436 H 0.4662 0.43613 0.21928 0.0
C1437 C 0.42548 0.41436 0.30127 0.0
C1438 C 0.07387 0.58725 0.8011 0.0
C1439 C 0.07123 0.57208 0.76524 0.0
H1440 H 0.04977 0.62313 0.84192 0.0
C1441 C 0.03889 0.57845 0.74499 0.0
H1442 H 0.09692 0.58094 0.81881 0.0
C1443 C 0.01095 0.60092 0.75914 0.0
C1444 C 0.0147 0.61822 0.79386 0.0
H1445 H 0.03553 0.56659 0.71773 0.0
H1446 H 0.98725 0.60634 0.74175 0.0
C1447 C 0.04624 0.61065 0.81496 0.0
C1448 C 0.73151 0.91516 0.1149 0.0
C1449 C 0.73371 0.92311 0.07706 0.0
H1450 H 0.71637 0.93405 0.16856 0.0
C1451 C 0.72008 0.95731 0.06435 0.0
H1452 H 0.74334 0.89004 0.12587 0.0
C1453 C 0.70459 0.98293 0.08903 0.0
C1454 C 0.70181 0.97457 0.12682 0.0
H1455 H 0.72159 0.96425 0.03529 0.0
H1456 H 0.69552 0.00954 0.07875 0.0
C1457 C 0.71556 0.94039 0.13937 0.0
C1458 C 0.20563 0.52155 0.91532 0.0
C1459 C 0.20174 0.52974 0.8776 0.0
H1460 H 0.22451 0.54031 0.96835 0.0
C1461 C 0.21533 0.56374 0.86442 0.0
H1462 H 0.19667 0.49508 0.92604 0.0
C1463 C 0.2325 0.58884 0.88817 0.0
C1464 C 0.23586 0.58107 0.92596 0.0
H1465 H 0.21512 0.56999 0.83519 0.0
H1466 H 0.24436 0.61365 0.87658 0.0
C1467 C 0.22218 0.54713 0.93932 0.0
C1468 C 0.28048 0.45831 0.43922 0.0
C1469 C 0.26704 0.424 0.42659 0.0
H1470 H 0.30508 0.51048 0.42472 0.0
C1471 C 0.26967 0.41579 0.38884 0.0
H1472 H 0.27865 0.46545 0.46821 0.0
C1473 C 0.2859 0.44085 0.36438 0.0
C1474 C 0.29941 0.47514 0.37685 0.0
H1475 H 0.258 0.39059 0.3779 0.0
H1476 H 0.2855 0.43428 0.33522 0.0
C1477 C 0.29619 0.48378 0.41453 0.0
C1478 C 0.78113 0.04634 0.5643 0.0
C1479 C 0.76705 0.08024 0.57731 0.0
H1480 H 0.80642 0.99434 0.57824 0.0
C1481 C 0.76927 0.08797 0.61519 0.0
H1482 H 0.77964 0.03958 0.53519 0.0
C1483 C 0.78569 0.06282 0.6394 0.0
C1484 C 0.79983 0.02892 0.62655 0.0
H1485 H 0.75709 0.11282 0.62639 0.0
H1486 H 0.78496 0.06898 0.66865 0.0
C1487 C 0.79704 0.02077 0.58873 0.0
loop_
_geom_bond_atom_site_label_1
_geom_bond_atom_site_label_2
_geom_bond_distance
_geom_bond_site_symmetry_2
_ccdc_geom_bond_type
Zn0 O1 2.055 1_455 S
Zn0 O8 2.046 . S
Zn0 N16 2.036 1_455 S
Zn0 O28 2.053 . S
Zn0 O30 2.066 1_455 S
O1 Zn0 2.055 1_655 S
O1 C4 1.259 . S
C2 O30 1.256 1_455 S
C2 O31 1.244 . S
Zn3 O5 2.046 . S
Zn3 O7 2.055 . S
Zn3 N9 2.036 . S
Zn3 O27 2.066 . S
Zn3 O31 2.053 . S
C4 O1 1.259 . S
C4 O5 1.254 1_655 S
O5 Zn3 2.046 . S
O5 C4 1.254 1_455 S
C6 O27 1.256 . S
C6 O28 1.244 . S
O7 Zn3 2.055 . S
O7 C29 1.259 . S
O8 Zn0 2.046 . S
O8 C29 1.254 . S
N9 Zn3 2.036 . S
N9 C10 1.298 . S
N9 N12 1.398 . S
C10 N9 1.298 . S
C10 N13 1.367 . S
C10 C23 1.481 . S
C11 N12 1.299 . S
C11 N13 1.379 . S
N12 N9 1.398 . S
N12 C11 1.299 . S
N13 C10 1.367 . S
N13 C11 1.379 . S
C14 N16 1.298 . S
C14 N18 1.367 . S
C14 C22 1.481 . S
C15 N17 1.299 1_655 S
C15 N18 1.379 . S
N16 Zn0 2.036 1_655 S
N16 C14 1.298 . S
N16 N17 1.398 1_655 S
N17 C15 1.299 1_455 S
N17 N16 1.398 1_455 S
N18 C14 1.367 . S
N18 C15 1.379 . S
H19 C22 0.980 . S
H20 C22 0.981 . S
H21 C22 0.981 . S
C22 C14 1.481 . S
C22 H19 0.980 . S
C22 H20 0.981 . S
C22 H21 0.981 . S
C23 C10 1.481 . S
C23 H24 0.980 . S
C23 H25 0.981 . S
C23 H26 0.981 . S
H24 C23 0.980 . S
H25 C23 0.981 . S
H26 C23 0.981 . S
O27 Zn3 2.066 . S
O27 C6 1.256 . S
O28 Zn0 2.053 . S
O28 C6 1.244 . S
C29 O7 1.259 . S
C29 O8 1.254 . S
O30 Zn0 2.066 1_655 S
O30 C2 1.256 1_655 S
O31 C2 1.244 . S
O31 Zn3 2.053 . S
Zn32 O33 2.055 . S
Zn32 O40 2.046 . S
Zn32 N48 2.036 . S
Zn32 O60 2.053 . S
Zn32 O62 2.066 . S
O33 Zn32 2.055 . S
O33 C36 1.259 . S
C34 O62 1.256 . S
C34 O63 1.244 . S
Zn35 O37 2.046 . S
Zn35 O39 2.055 . S
Zn35 N41 2.036 . S
Zn35 O59 2.066 . S
Zn35 O63 2.053 . S
C36 O33 1.259 . S
C36 O37 1.254 . S
O37 Zn35 2.046 . S
O37 C36 1.254 . S
C38 O59 1.256 . S
C38 O60 1.244 . S
O39 Zn35 2.055 . S
O39 C61 1.259 . S
O40 Zn32 2.046 . S
O40 C61 1.254 . S
N41 Zn35 2.036 . S
N41 C42 1.298 . S
N41 N44 1.398 . S
C42 N41 1.298 . S
C42 N45 1.367 . S
C42 C55 1.481 . S
C43 N44 1.299 . S
C43 N45 1.379 . S
N44 N41 1.398 . S
N44 C43 1.299 . S
N45 C42 1.367 . S
N45 C43 1.379 . S
C46 N48 1.298 . S
C46 N50 1.367 . S
C46 C54 1.481 . S
C47 N49 1.299 . S
C47 N50 1.379 . S
N48 Zn32 2.036 . S
N48 C46 1.298 . S
N48 N49 1.398 . S
N49 C47 1.299 . S
N49 N48 1.398 . S
N50 C46 1.367 . S
N50 C47 1.379 . S
H51 C54 0.980 . S
H52 C54 0.981 . S
H53 C54 0.981 . S
C54 C46 1.481 . S
C54 H51 0.980 . S
C54 H52 0.981 . S
C54 H53 0.981 . S
C55 C42 1.481 . S
C55 H56 0.980 . S
C55 H57 0.981 . S
C55 H58 0.981 . S
H56 C55 0.980 . S
H57 C55 0.981 . S
H58 C55 0.981 . S
O59 Zn35 2.066 . S
O59 C38 1.256 . S
O60 Zn32 2.053 . S
O60 C38 1.244 . S
C61 O39 1.259 . S
C61 O40 1.254 . S
O62 Zn32 2.066 . S
O62 C34 1.256 . S
O63 C34 1.244 . S
O63 Zn35 2.053 . S
Zn64 O65 2.055 . S
Zn64 O72 2.046 . S
Zn64 N80 2.036 . S
Zn64 O92 2.053 . S
Zn64 O94 2.066 . S
O65 Zn64 2.055 . S
O65 C68 1.259 . S
C66 O94 1.256 . S
C66 O95 1.244 . S
Zn67 O69 2.046 . S
Zn67 O71 2.055 . S
Zn67 N73 2.036 . S
Zn67 O91 2.066 . S
Zn67 O95 2.053 . S
C68 O65 1.259 . S
C68 O69 1.254 . S
O69 Zn67 2.046 . S
O69 C68 1.254 . S
C70 O91 1.256 . S
C70 O92 1.244 . S
O71 Zn67 2.055 . S
O71 C93 1.259 . S
O72 Zn64 2.046 . S
O72 C93 1.254 . S
N73 Zn67 2.036 . S
N73 C74 1.298 . S
N73 N76 1.398 . S
C74 N73 1.298 . S
C74 N77 1.367 . S
C74 C87 1.481 . S
C75 N76 1.299 . S
C75 N77 1.379 . S
N76 N73 1.398 . S
N76 C75 1.299 . S
N77 C74 1.367 . S
N77 C75 1.379 . S
C78 N80 1.298 . S
C78 N82 1.367 . S
C78 C86 1.481 . S
C79 N81 1.299 . S
C79 N82 1.379 . S
N80 Zn64 2.036 . S
N80 C78 1.298 . S
N80 N81 1.398 . S
N81 C79 1.299 . S
N81 N80 1.398 . S
N82 C78 1.367 . S
N82 C79 1.379 . S
H83 C86 0.980 . S
H84 C86 0.981 . S
H85 C86 0.981 . S
C86 C78 1.481 . S
C86 H83 0.980 . S
C86 H84 0.981 . S
C86 H85 0.981 . S
C87 C74 1.481 . S
C87 H88 0.980 . S
C87 H89 0.981 . S
C87 H90 0.981 . S
H88 C87 0.980 . S
H89 C87 0.981 . S
H90 C87 0.981 . S
O91 Zn67 2.066 . S
O91 C70 1.256 . S
O92 Zn64 2.053 . S
O92 C70 1.244 . S
C93 O71 1.259 . S
C93 O72 1.254 . S
O94 Zn64 2.066 . S
O94 C66 1.256 . S
O95 C66 1.244 . S
O95 Zn67 2.053 . S
Zn96 O97 2.055 . S
Zn96 O104 2.046 . S
Zn96 N112 2.036 . S
Zn96 O124 2.053 . S
Zn96 O126 2.066 . S
O97 Zn96 2.055 . S
O97 C100 1.259 . S
C98 O126 1.256 . S
C98 O127 1.244 . S
Zn99 O101 2.046 . S
Zn99 O103 2.055 1_655 S
Zn99 N105 2.036 1_655 S
Zn99 O123 2.066 1_655 S
Zn99 O127 2.053 . S
C100 O97 1.259 . S
C100 O101 1.254 . S
O101 Zn99 2.046 . S
O101 C100 1.254 . S
C102 O123 1.256 1_655 S
C102 O124 1.244 . S
O103 Zn99 2.055 1_455 S
O103 C125 1.259 . S
O104 Zn96 2.046 . S
O104 C125 1.254 1_655 S
N105 Zn99 2.036 1_455 S
N105 C106 1.298 . S
N105 N108 1.398 1_455 S
C106 N105 1.298 . S
C106 N109 1.367 . S
C106 C119 1.481 . S
C107 N108 1.299 1_455 S
C107 N109 1.379 . S
N108 N105 1.398 1_655 S
N108 C107 1.299 1_655 S
N109 C106 1.367 . S
N109 C107 1.379 . S
C110 N112 1.298 . S
C110 N114 1.367 . S
C110 C118 1.481 . S
C111 N113 1.299 . S
C111 N114 1.379 . S
N112 Zn96 2.036 . S
N112 C110 1.298 . S
N112 N113 1.398 . S
N113 C111 1.299 . S
N113 N112 1.398 . S
N114 C110 1.367 . S
N114 C111 1.379 . S
H115 C118 0.980 . S
H116 C118 0.981 . S
H117 C118 0.981 . S
C118 C110 1.481 . S
C118 H115 0.980 . S
C118 H116 0.981 . S
C118 H117 0.981 . S
C119 C106 1.481 . S
C119 H120 0.980 . S
C119 H121 0.981 . S
C119 H122 0.981 . S
H120 C119 0.980 . S
H121 C119 0.981 . S
H122 C119 0.981 . S
O123 Zn99 2.066 1_455 S
O123 C102 1.256 1_455 S
O124 Zn96 2.053 . S
O124 C102 1.244 . S
C125 O103 1.259 . S
C125 O104 1.254 1_455 S
O126 Zn96 2.066 . S
O126 C98 1.256 . S
O127 C98 1.244 . S
O127 Zn99 2.053 . S
Zn128 O129 2.055 . S
Zn128 O136 2.046 . S
Zn128 N144 2.036 . S
Zn128 O156 2.053 . S
Zn128 O158 2.066 . S
O129 Zn128 2.055 . S
O129 C132 1.259 . S
C130 O158 1.256 . S
C130 O159 1.244 . S
Zn131 O133 2.046 . S
Zn131 O135 2.055 1_545 S
Zn131 N137 2.036 1_545 S
Zn131 O155 2.066 1_545 S
Zn131 O159 2.053 . S
C132 O129 1.259 . S
C132 O133 1.254 . S
O133 Zn131 2.046 . S
O133 C132 1.254 . S
C134 O155 1.256 1_545 S
C134 O156 1.244 . S
O135 Zn131 2.055 1_565 S
O135 C157 1.259 . S
O136 Zn128 2.046 . S
O136 C157 1.254 1_545 S
N137 Zn131 2.036 1_565 S
N137 C138 1.298 . S
N137 N140 1.398 1_565 S
C138 N137 1.298 . S
C138 N141 1.367 . S
C138 C151 1.481 . S
C139 N140 1.299 1_565 S
C139 N141 1.379 . S
N140 N137 1.398 1_545 S
N140 C139 1.299 1_545 S
N141 C138 1.367 . S
N141 C139 1.379 . S
C142 N144 1.298 . S
C142 N146 1.367 . S
C142 C150 1.481 . S
C143 N145 1.299 . S
C143 N146 1.379 . S
N144 Zn128 2.036 . S
N144 C142 1.298 . S
N144 N145 1.398 . S
N145 C143 1.299 . S
N145 N144 1.398 . S
N146 C142 1.367 . S
N146 C143 1.379 . S
H147 C150 0.980 . S
H148 C150 0.981 . S
H149 C150 0.981 . S
C150 C142 1.481 . S
C150 H147 0.980 . S
C150 H148 0.981 . S
C150 H149 0.981 . S
C151 C138 1.481 . S
C151 H152 0.980 . S
C151 H153 0.981 . S
C151 H154 0.981 . S
H152 C151 0.980 . S
H153 C151 0.981 . S
H154 C151 0.981 . S
O155 Zn131 2.066 1_565 S
O155 C134 1.256 1_565 S
O156 Zn128 2.053 . S
O156 C134 1.244 . S
C157 O135 1.259 . S
C157 O136 1.254 1_565 S
O158 Zn128 2.066 . S
O158 C130 1.256 . S
O159 C130 1.244 . S
O159 Zn131 2.053 . S
Zn160 O161 2.055 1_565 S
Zn160 O168 2.046 . S
Zn160 N176 2.036 1_565 S
Zn160 O188 2.053 . S
Zn160 O190 2.066 1_565 S
O161 Zn160 2.055 1_545 S
O161 C164 1.259 . S
C162 O190 1.256 1_565 S
C162 O191 1.244 . S
Zn163 O165 2.046 . S
Zn163 O167 2.055 . S
Zn163 N169 2.036 . S
Zn163 O187 2.066 . S
Zn163 O191 2.053 . S
C164 O161 1.259 . S
C164 O165 1.254 1_545 S
O165 Zn163 2.046 . S
O165 C164 1.254 1_565 S
C166 O187 1.256 . S
C166 O188 1.244 . S
O167 Zn163 2.055 . S
O167 C189 1.259 . S
O168 Zn160 2.046 . S
O168 C189 1.254 . S
N169 Zn163 2.036 . S
N169 C170 1.298 . S
N169 N172 1.398 . S
C170 N169 1.298 . S
C170 N173 1.367 . S
C170 C183 1.481 . S
C171 N172 1.299 . S
C171 N173 1.379 . S
N172 N169 1.398 . S
N172 C171 1.299 . S
N173 C170 1.367 . S
N173 C171 1.379 . S
C174 N176 1.298 . S
C174 N178 1.367 . S
C174 C182 1.481 . S
C175 N177 1.299 1_545 S
C175 N178 1.379 . S
N176 Zn160 2.036 1_545 S
N176 C174 1.298 . S
N176 N177 1.398 1_545 S
N177 C175 1.299 1_565 S
N177 N176 1.398 1_565 S
N178 C174 1.367 . S
N178 C175 1.379 . S
H179 C182 0.980 . S
H180 C182 0.981 . S
H181 C182 0.981 . S
C182 C174 1.481 . S
C182 H179 0.980 . S
C182 H180 0.981 . S
C182 H181 0.981 . S
C183 C170 1.481 . S
C183 H184 0.980 . S
C183 H185 0.981 . S
C183 H186 0.981 . S
H184 C183 0.980 . S
H185 C183 0.981 . S
H186 C183 0.981 . S
O187 Zn163 2.066 . S
O187 C166 1.256 . S
O188 Zn160 2.053 . S
O188 C166 1.244 . S
C189 O167 1.259 . S
C189 O168 1.254 . S
O190 Zn160 2.066 1_545 S
O190 C162 1.256 1_545 S
O191 C162 1.244 . S
O191 Zn163 2.053 . S
Zn192 O193 2.055 . S
Zn192 O200 2.046 . S
Zn192 N208 2.036 . S
Zn192 O220 2.053 . S
Zn192 O222 2.066 . S
O193 Zn192 2.055 . S
O193 C196 1.259 . S
C194 O222 1.256 . S
C194 O223 1.244 . S
Zn195 O197 2.046 . S
Zn195 O199 2.055 . S
Zn195 N201 2.036 . S
Zn195 O219 2.066 . S
Zn195 O223 2.053 . S
C196 O193 1.259 . S
C196 O197 1.254 . S
O197 Zn195 2.046 . S
O197 C196 1.254 . S
C198 O219 1.256 . S
C198 O220 1.244 . S
O199 Zn195 2.055 . S
O199 C221 1.259 . S
O200 Zn192 2.046 . S
O200 C221 1.254 . S
N201 Zn195 2.036 . S
N201 C202 1.298 . S
N201 N204 1.398 . S
C202 N201 1.298 . S
C202 N205 1.367 . S
C202 C215 1.481 . S
C203 N204 1.299 . S
C203 N205 1.379 . S
N204 N201 1.398 . S
N204 C203 1.299 . S
N205 C202 1.367 . S
N205 C203 1.379 . S
C206 N208 1.298 . S
C206 N210 1.367 . S
C206 C214 1.481 . S
C207 N209 1.299 . S
C207 N210 1.379 . S
N208 Zn192 2.036 . S
N208 C206 1.298 . S
N208 N209 1.398 . S
N209 C207 1.299 . S
N209 N208 1.398 . S
N210 C206 1.367 . S
N210 C207 1.379 . S
H211 C214 0.980 . S
H212 C214 0.981 . S
H213 C214 0.981 . S
C214 C206 1.481 . S
C214 H211 0.980 . S
C214 H212 0.981 . S
C214 H213 0.981 . S
C215 C202 1.481 . S
C215 H216 0.980 . S
C215 H217 0.981 . S
C215 H218 0.981 . S
H216 C215 0.980 . S
H217 C215 0.981 . S
H218 C215 0.981 . S
O219 Zn195 2.066 . S
O219 C198 1.256 . S
O220 Zn192 2.053 . S
O220 C198 1.244 . S
C221 O199 1.259 . S
C221 O200 1.254 . S
O222 Zn192 2.066 . S
O222 C194 1.256 . S
O223 C194 1.244 . S
O223 Zn195 2.053 . S
Zn224 O225 2.055 . S
Zn224 O232 2.046 . S
Zn224 N240 2.036 . S
Zn224 O252 2.053 . S
Zn224 O254 2.066 . S
O225 Zn224 2.055 . S
O225 C228 1.259 . S
C226 O254 1.256 . S
C226 O255 1.244 . S
Zn227 O229 2.046 . S
Zn227 O231 2.055 . S
Zn227 N233 2.036 . S
Zn227 O251 2.066 . S
Zn227 O255 2.053 . S
C228 O225 1.259 . S
C228 O229 1.254 . S
O229 Zn227 2.046 . S
O229 C228 1.254 . S
C230 O251 1.256 . S
C230 O252 1.244 . S
O231 Zn227 2.055 . S
O231 C253 1.259 . S
O232 Zn224 2.046 . S
O232 C253 1.254 . S
N233 Zn227 2.036 . S
N233 C234 1.298 . S
N233 N236 1.398 . S
C234 N233 1.298 . S
C234 N237 1.367 . S
C234 C247 1.481 . S
C235 N236 1.299 . S
C235 N237 1.379 . S
N236 N233 1.398 . S
N236 C235 1.299 . S
N237 C234 1.367 . S
N237 C235 1.379 . S
C238 N240 1.298 . S
C238 N242 1.367 . S
C238 C246 1.481 . S
C239 N241 1.299 . S
C239 N242 1.379 . S
N240 Zn224 2.036 . S
N240 C238 1.298 . S
N240 N241 1.398 . S
N241 C239 1.299 . S
N241 N240 1.398 . S
N242 C238 1.367 . S
N242 C239 1.379 . S
H243 C246 0.980 . S
H244 C246 0.981 . S
H245 C246 0.981 . S
C246 C238 1.481 . S
C246 H243 0.980 . S
C246 H244 0.981 . S
C246 H245 0.981 . S
C247 C234 1.481 . S
C247 H248 0.980 . S
C247 H249 0.981 . S
C247 H250 0.981 . S
H248 C247 0.980 . S
H249 C247 0.981 . S
H250 C247 0.981 . S
O251 Zn227 2.066 . S
O251 C230 1.256 . S
O252 Zn224 2.053 . S
O252 C230 1.244 . S
C253 O231 1.259 . S
C253 O232 1.254 . S
O254 Zn224 2.066 . S
O254 C226 1.256 . S
O255 C226 1.244 . S
O255 Zn227 2.053 . S
Zn256 O257 2.055 1_554 S
Zn256 O264 2.046 . S
Zn256 N272 2.036 1_554 S
Zn256 O284 2.053 . S
Zn256 O286 2.066 1_554 S
O257 Zn256 2.055 1_556 S
O257 C260 1.259 . S
C258 O286 1.256 1_554 S
C258 O287 1.244 . S
Zn259 O261 2.046 . S
Zn259 O263 2.055 . S
Zn259 N265 2.036 . S
Zn259 O283 2.066 . S
Zn259 O287 2.053 . S
C260 O257 1.259 . S
C260 O261 1.254 1_556 S
O261 Zn259 2.046 . S
O261 C260 1.254 1_554 S
C262 O283 1.256 . S
C262 O284 1.244 . S
O263 Zn259 2.055 . S
O263 C285 1.259 . S
O264 Zn256 2.046 . S
O264 C285 1.254 . S
N265 Zn259 2.036 . S
N265 C266 1.298 . S
N265 N268 1.398 . S
C266 N265 1.298 . S
C266 N269 1.367 . S
C266 C279 1.481 . S
C267 N268 1.299 . S
C267 N269 1.379 . S
N268 N265 1.398 . S
N268 C267 1.299 . S
N269 C266 1.367 . S
N269 C267 1.379 . S
C270 N272 1.298 . S
C270 N274 1.367 . S
C270 C278 1.481 . S
C271 N273 1.299 1_556 S
C271 N274 1.379 . S
N272 Zn256 2.036 1_556 S
N272 C270 1.298 . S
N272 N273 1.398 1_556 S
N273 C271 1.299 1_554 S
N273 N272 1.398 1_554 S
N274 C270 1.367 . S
N274 C271 1.379 . S
H275 C278 0.980 . S
H276 C278 0.981 . S
H277 C278 0.981 . S
C278 C270 1.481 . S
C278 H275 0.980 . S
C278 H276 0.981 . S
C278 H277 0.981 . S
C279 C266 1.481 . S
C279 H280 0.980 . S
C279 H281 0.981 . S
C279 H282 0.981 . S
H280 C279 0.980 . S
H281 C279 0.981 . S
H282 C279 0.981 . S
O283 Zn259 2.066 . S
O283 C262 1.256 . S
O284 Zn256 2.053 . S
O284 C262 1.244 . S
C285 O263 1.259 . S
C285 O264 1.254 . S
O286 Zn256 2.066 1_556 S
O286 C258 1.256 1_556 S
O287 C258 1.244 . S
O287 Zn259 2.053 . S
Zn288 O289 2.055 1_556 S
Zn288 O296 2.046 . S
Zn288 N304 2.036 1_556 S
Zn288 O316 2.053 . S
Zn288 O318 2.066 1_556 S
O289 Zn288 2.055 1_554 S
O289 C292 1.259 . S
C290 O318 1.256 1_556 S
C290 O319 1.244 . S
Zn291 O293 2.046 . S
Zn291 O295 2.055 . S
Zn291 N297 2.036 . S
Zn291 O315 2.066 . S
Zn291 O319 2.053 . S
C292 O289 1.259 . S
C292 O293 1.254 1_554 S
O293 Zn291 2.046 . S
O293 C292 1.254 1_556 S
C294 O315 1.256 . S
C294 O316 1.244 . S
O295 Zn291 2.055 . S
O295 C317 1.259 . S
O296 Zn288 2.046 . S
O296 C317 1.254 . S
N297 Zn291 2.036 . S
N297 C298 1.298 . S
N297 N300 1.398 . S
C298 N297 1.298 . S
C298 N301 1.367 . S
C298 C311 1.481 . S
C299 N300 1.299 . S
C299 N301 1.379 . S
N300 N297 1.398 . S
N300 C299 1.299 . S
N301 C298 1.367 . S
N301 C299 1.379 . S
C302 N304 1.298 . S
C302 N306 1.367 . S
C302 C310 1.481 . S
C303 N305 1.299 1_554 S
C303 N306 1.379 . S
N304 Zn288 2.036 1_554 S
N304 C302 1.298 . S
N304 N305 1.398 1_554 S
N305 C303 1.299 1_556 S
N305 N304 1.398 1_556 S
N306 C302 1.367 . S
N306 C303 1.379 . S
H307 C310 0.980 . S
H308 C310 0.981 . S
H309 C310 0.981 . S
C310 C302 1.481 . S
C310 H307 0.980 . S
C310 H308 0.981 . S
C310 H309 0.981 . S
C311 C298 1.481 . S
C311 H312 0.980 . S
C311 H313 0.981 . S
C311 H314 0.981 . S
H312 C311 0.980 . S
H313 C311 0.981 . S
H314 C311 0.981 . S
O315 Zn291 2.066 . S
O315 C294 1.256 . S
O316 Zn288 2.053 . S
O316 C294 1.244 . S
C317 O295 1.259 . S
C317 O296 1.254 . S
O318 Zn288 2.066 1_554 S
O318 C290 1.256 1_554 S
O319 C290 1.244 . S
O319 Zn291 2.053 . S
Zn320 O321 2.055 . S
Zn320 O328 2.046 . S
Zn320 N336 2.036 . S
Zn320 O348 2.053 . S
Zn320 O350 2.066 . S
O321 Zn320 2.055 . S
O321 C324 1.259 . S
C322 O350 1.256 . S
C322 O351 1.244 . S
Zn323 O325 2.046 . S
Zn323 O327 2.055 . S
Zn323 N329 2.036 . S
Zn323 O347 2.066 . S
Zn323 O351 2.053 . S
C324 O321 1.259 . S
C324 O325 1.254 . S
O325 Zn323 2.046 . S
O325 C324 1.254 . S
C326 O347 1.256 . S
C326 O348 1.244 . S
O327 Zn323 2.055 . S
O327 C349 1.259 . S
O328 Zn320 2.046 . S
O328 C349 1.254 . S
N329 Zn323 2.036 . S
N329 C330 1.298 . S
N329 N332 1.398 . S
C330 N329 1.298 . S
C330 N333 1.367 . S
C330 C343 1.481 . S
C331 N332 1.299 . S
C331 N333 1.379 . S
N332 N329 1.398 . S
N332 C331 1.299 . S
N333 C330 1.367 . S
N333 C331 1.379 . S
C334 N336 1.298 . S
C334 N338 1.367 . S
C334 C342 1.481 . S
C335 N337 1.299 . S
C335 N338 1.379 . S
N336 Zn320 2.036 . S
N336 C334 1.298 . S
N336 N337 1.398 . S
N337 C335 1.299 . S
N337 N336 1.398 . S
N338 C334 1.367 . S
N338 C335 1.379 . S
H339 C342 0.980 . S
H340 C342 0.981 . S
H341 C342 0.981 . S
C342 C334 1.481 . S
C342 H339 0.980 . S
C342 H340 0.981 . S
C342 H341 0.981 . S
C343 C330 1.481 . S
C343 H344 0.980 . S
C343 H345 0.981 . S
C343 H346 0.981 . S
H344 C343 0.980 . S
H345 C343 0.981 . S
H346 C343 0.981 . S
O347 Zn323 2.066 . S
O347 C326 1.256 . S
O348 Zn320 2.053 . S
O348 C326 1.244 . S
C349 O327 1.259 . S
C349 O328 1.254 . S
O350 Zn320 2.066 . S
O350 C322 1.256 . S
O351 C322 1.244 . S
O351 Zn323 2.053 . S
Zn352 O353 2.055 . S
Zn352 O360 2.046 . S
Zn352 N368 2.036 . S
Zn352 O380 2.053 . S
Zn352 O382 2.066 . S
O353 Zn352 2.055 . S
O353 C356 1.259 . S
C354 O382 1.256 . S
C354 O383 1.244 . S
Zn355 O357 2.046 . S
Zn355 O359 2.055 . S
Zn355 N361 2.036 . S
Zn355 O379 2.066 . S
Zn355 O383 2.053 . S
C356 O353 1.259 . S
C356 O357 1.254 . S
O357 Zn355 2.046 . S
O357 C356 1.254 . S
C358 O379 1.256 . S
C358 O380 1.244 . S
O359 Zn355 2.055 . S
O359 C381 1.259 . S
O360 Zn352 2.046 . S
O360 C381 1.254 . S
N361 Zn355 2.036 . S
N361 C362 1.298 . S
N361 N364 1.398 . S
C362 N361 1.298 . S
C362 N365 1.367 . S
C362 C375 1.481 . S
C363 N364 1.299 . S
C363 N365 1.379 . S
N364 N361 1.398 . S
N364 C363 1.299 . S
N365 C362 1.367 . S
N365 C363 1.379 . S
C366 N368 1.298 . S
C366 N370 1.367 . S
C366 C374 1.481 . S
C367 N369 1.299 . S
C367 N370 1.379 . S
N368 Zn352 2.036 . S
N368 C366 1.298 . S
N368 N369 1.398 . S
N369 C367 1.299 . S
N369 N368 1.398 . S
N370 C366 1.367 . S
N370 C367 1.379 . S
H371 C374 0.980 . S
H372 C374 0.981 . S
H373 C374 0.981 . S
C374 C366 1.481 . S
C374 H371 0.980 . S
C374 H372 0.981 . S
C374 H373 0.981 . S
C375 C362 1.481 . S
C375 H376 0.980 . S
C375 H377 0.981 . S
C375 H378 0.981 . S
H376 C375 0.980 . S
H377 C375 0.981 . S
H378 C375 0.981 . S
O379 Zn355 2.066 . S
O379 C358 1.256 . S
O380 Zn352 2.053 . S
O380 C358 1.244 . S
C381 O359 1.259 . S
C381 O360 1.254 . S
O382 Zn352 2.066 . S
O382 C354 1.256 . S
O383 C354 1.244 . S
O383 Zn355 2.053 . S
Zn384 O385 2.055 . S
Zn384 O392 2.046 . S
Zn384 N400 2.036 . S
Zn384 O412 2.053 . S
Zn384 O414 2.066 . S
O385 Zn384 2.055 . S
O385 C388 1.259 . S
C386 O414 1.256 . S
C386 O415 1.244 . S
Zn387 O389 2.046 . S
Zn387 O391 2.055 1_655 S
Zn387 N393 2.036 1_655 S
Zn387 O411 2.066 1_655 S
Zn387 O415 2.053 . S
C388 O385 1.259 . S
C388 O389 1.254 . S
O389 Zn387 2.046 . S
O389 C388 1.254 . S
C390 O411 1.256 1_655 S
C390 O412 1.244 . S
O391 Zn387 2.055 1_455 S
O391 C413 1.259 . S
O392 Zn384 2.046 . S
O392 C413 1.254 1_655 S
N393 Zn387 2.036 1_455 S
N393 C394 1.298 . S
N393 N396 1.398 1_455 S
C394 N393 1.298 . S
C394 N397 1.367 . S
C394 C407 1.481 . S
C395 N396 1.299 1_455 S
C395 N397 1.379 . S
N396 N393 1.398 1_655 S
N396 C395 1.299 1_655 S
N397 C394 1.367 . S
N397 C395 1.379 . S
C398 N400 1.298 . S
C398 N402 1.367 . S
C398 C406 1.481 . S
C399 N401 1.299 . S
C399 N402 1.379 . S
N400 Zn384 2.036 . S
N400 C398 1.298 . S
N400 N401 1.398 . S
N401 C399 1.299 . S
N401 N400 1.398 . S
N402 C398 1.367 . S
N402 C399 1.379 . S
H403 C406 0.980 . S
H404 C406 0.981 . S
H405 C406 0.981 . S
C406 C398 1.481 . S
C406 H403 0.980 . S
C406 H404 0.981 . S
C406 H405 0.981 . S
C407 C394 1.481 . S
C407 H408 0.980 . S
C407 H409 0.981 . S
C407 H410 0.981 . S
H408 C407 0.980 . S
H409 C407 0.981 . S
H410 C407 0.981 . S
O411 Zn387 2.066 1_455 S
O411 C390 1.256 1_455 S
O412 Zn384 2.053 . S
O412 C390 1.244 . S
C413 O391 1.259 . S
C413 O392 1.254 1_455 S
O414 Zn384 2.066 . S
O414 C386 1.256 . S
O415 C386 1.244 . S
O415 Zn387 2.053 . S
Zn416 O417 2.055 . S
Zn416 O424 2.046 . S
Zn416 N432 2.036 . S
Zn416 O444 2.053 . S
Zn416 O446 2.066 . S
O417 Zn416 2.055 . S
O417 C420 1.259 . S
C418 O446 1.256 . S
C418 O447 1.244 . S
Zn419 O421 2.046 . S
Zn419 O423 2.055 . S
Zn419 N425 2.036 . S
Zn419 O443 2.066 . S
Zn419 O447 2.053 . S
C420 O417 1.259 . S
C420 O421 1.254 . S
O421 Zn419 2.046 . S
O421 C420 1.254 . S
C422 O443 1.256 . S
C422 O444 1.244 . S
O423 Zn419 2.055 . S
O423 C445 1.259 . S
O424 Zn416 2.046 . S
O424 C445 1.254 . S
N425 Zn419 2.036 . S
N425 C426 1.298 . S
N425 N428 1.398 . S
C426 N425 1.298 . S
C426 N429 1.367 . S
C426 C439 1.481 . S
C427 N428 1.299 . S
C427 N429 1.379 . S
N428 N425 1.398 . S
N428 C427 1.299 . S
N429 C426 1.367 . S
N429 C427 1.379 . S
C430 N432 1.298 . S
C430 N434 1.367 . S
C430 C438 1.481 . S
C431 N433 1.299 . S
C431 N434 1.379 . S
N432 Zn416 2.036 . S
N432 C430 1.298 . S
N432 N433 1.398 . S
N433 C431 1.299 . S
N433 N432 1.398 . S
N434 C430 1.367 . S
N434 C431 1.379 . S
H435 C438 0.980 . S
H436 C438 0.981 . S
H437 C438 0.981 . S
C438 C430 1.481 . S
C438 H435 0.980 . S
C438 H436 0.981 . S
C438 H437 0.981 . S
C439 C426 1.481 . S
C439 H440 0.980 . S
C439 H441 0.981 . S
C439 H442 0.981 . S
H440 C439 0.980 . S
H441 C439 0.981 . S
H442 C439 0.981 . S
O443 Zn419 2.066 . S
O443 C422 1.256 . S
O444 Zn416 2.053 . S
O444 C422 1.244 . S
C445 O423 1.259 . S
C445 O424 1.254 . S
O446 Zn416 2.066 . S
O446 C418 1.256 . S
O447 C418 1.244 . S
O447 Zn419 2.053 . S
Zn448 O449 2.055 . S
Zn448 O456 2.046 . S
Zn448 N464 2.036 . S
Zn448 O476 2.053 . S
Zn448 O478 2.066 . S
O449 Zn448 2.055 . S
O449 C452 1.259 . S
C450 O478 1.256 . S
C450 O479 1.244 . S
Zn451 O453 2.046 . S
Zn451 O455 2.055 . S
Zn451 N457 2.036 . S
Zn451 O475 2.066 . S
Zn451 O479 2.053 . S
C452 O449 1.259 . S
C452 O453 1.254 . S
O453 Zn451 2.046 . S
O453 C452 1.254 . S
C454 O475 1.256 . S
C454 O476 1.244 . S
O455 Zn451 2.055 . S
O455 C477 1.259 . S
O456 Zn448 2.046 . S
O456 C477 1.254 . S
N457 Zn451 2.036 . S
N457 C458 1.298 . S
N457 N460 1.398 . S
C458 N457 1.298 . S
C458 N461 1.367 . S
C458 C471 1.481 . S
C459 N460 1.299 . S
C459 N461 1.379 . S
N460 N457 1.398 . S
N460 C459 1.299 . S
N461 C458 1.367 . S
N461 C459 1.379 . S
C462 N464 1.298 . S
C462 N466 1.367 . S
C462 C470 1.481 . S
C463 N465 1.299 . S
C463 N466 1.379 . S
N464 Zn448 2.036 . S
N464 C462 1.298 . S
N464 N465 1.398 . S
N465 C463 1.299 . S
N465 N464 1.398 . S
N466 C462 1.367 . S
N466 C463 1.379 . S
H467 C470 0.980 . S
H468 C470 0.981 . S
H469 C470 0.981 . S
C470 C462 1.481 . S
C470 H467 0.980 . S
C470 H468 0.981 . S
C470 H469 0.981 . S
C471 C458 1.481 . S
C471 H472 0.980 . S
C471 H473 0.981 . S
C471 H474 0.981 . S
H472 C471 0.980 . S
H473 C471 0.981 . S
H474 C471 0.981 . S
O475 Zn451 2.066 . S
O475 C454 1.256 . S
O476 Zn448 2.053 . S
O476 C454 1.244 . S
C477 O455 1.259 . S
C477 O456 1.254 . S
O478 Zn448 2.066 . S
O478 C450 1.256 . S
O479 C450 1.244 . S
O479 Zn451 2.053 . S
Zn480 O481 2.055 . S
Zn480 O488 2.046 . S
Zn480 N496 2.036 . S
Zn480 O508 2.053 . S
Zn480 O510 2.066 . S
O481 Zn480 2.055 . S
O481 C484 1.259 . S
C482 O510 1.256 . S
C482 O511 1.244 . S
Zn483 O485 2.046 . S
Zn483 O487 2.055 1_455 S
Zn483 N489 2.036 1_455 S
Zn483 O507 2.066 1_455 S
Zn483 O511 2.053 . S
C484 O481 1.259 . S
C484 O485 1.254 . S
O485 Zn483 2.046 . S
O485 C484 1.254 . S
C486 O507 1.256 1_455 S
C486 O508 1.244 . S
O487 Zn483 2.055 1_655 S
O487 C509 1.259 . S
O488 Zn480 2.046 . S
O488 C509 1.254 1_455 S
N489 Zn483 2.036 1_655 S
N489 C490 1.298 . S
N489 N492 1.398 1_655 S
C490 N489 1.298 . S
C490 N493 1.367 . S
C490 C503 1.481 . S
C491 N492 1.299 1_655 S
C491 N493 1.379 . S
N492 N489 1.398 1_455 S
N492 C491 1.299 1_455 S
N493 C490 1.367 . S
N493 C491 1.379 . S
C494 N496 1.298 . S
C494 N498 1.367 . S
C494 C502 1.481 . S
C495 N497 1.299 . S
C495 N498 1.379 . S
N496 Zn480 2.036 . S
N496 C494 1.298 . S
N496 N497 1.398 . S
N497 C495 1.299 . S
N497 N496 1.398 . S
N498 C494 1.367 . S
N498 C495 1.379 . S
H499 C502 0.980 . S
H500 C502 0.981 . S
H501 C502 0.981 . S
C502 C494 1.481 . S
C502 H499 0.980 . S
C502 H500 0.981 . S
C502 H501 0.981 . S
C503 C490 1.481 . S
C503 H504 0.980 . S
C503 H505 0.981 . S
C503 H506 0.981 . S
H504 C503 0.980 . S
H505 C503 0.981 . S
H506 C503 0.981 . S
O507 Zn483 2.066 1_655 S
O507 C486 1.256 1_655 S
O508 Zn480 2.053 . S
O508 C486 1.244 . S
C509 O487 1.259 . S
C509 O488 1.254 1_655 S
O510 Zn480 2.066 . S
O510 C482 1.256 . S
O511 C482 1.244 . S
O511 Zn483 2.053 . S
Zn512 O513 2.055 . S
Zn512 O520 2.046 . S
Zn512 N528 2.036 . S
Zn512 O540 2.053 . S
Zn512 O542 2.066 . S
O513 Zn512 2.055 . S
O513 C516 1.259 . S
C514 O542 1.256 . S
C514 O543 1.244 . S
Zn515 O517 2.046 . S
Zn515 O519 2.055 1_565 S
Zn515 N521 2.036 1_565 S
Zn515 O539 2.066 1_565 S
Zn515 O543 2.053 . S
C516 O513 1.259 . S
C516 O517 1.254 . S
O517 Zn515 2.046 . S
O517 C516 1.254 . S
C518 O539 1.256 1_565 S
C518 O540 1.244 . S
O519 Zn515 2.055 1_545 S
O519 C541 1.259 . S
O520 Zn512 2.046 . S
O520 C541 1.254 1_565 S
N521 Zn515 2.036 1_545 S
N521 C522 1.298 . S
N521 N524 1.398 1_545 S
C522 N521 1.298 . S
C522 N525 1.367 . S
C522 C535 1.481 . S
C523 N524 1.299 1_545 S
C523 N525 1.379 . S
N524 N521 1.398 1_565 S
N524 C523 1.299 1_565 S
N525 C522 1.367 . S
N525 C523 1.379 . S
C526 N528 1.298 . S
C526 N530 1.367 . S
C526 C534 1.481 . S
C527 N529 1.299 . S
C527 N530 1.379 . S
N528 Zn512 2.036 . S
N528 C526 1.298 . S
N528 N529 1.398 . S
N529 C527 1.299 . S
N529 N528 1.398 . S
N530 C526 1.367 . S
N530 C527 1.379 . S
H531 C534 0.980 . S
H532 C534 0.981 . S
H533 C534 0.981 . S
C534 C526 1.481 . S
C534 H531 0.980 . S
C534 H532 0.981 . S
C534 H533 0.981 . S
C535 C522 1.481 . S
C535 H536 0.980 . S
C535 H537 0.981 . S
C535 H538 0.981 . S
H536 C535 0.980 . S
H537 C535 0.981 . S
H538 C535 0.981 . S
O539 Zn515 2.066 1_545 S
O539 C518 1.256 1_545 S
O540 Zn512 2.053 . S
O540 C518 1.244 . S
C541 O519 1.259 . S
C541 O520 1.254 1_545 S
O542 Zn512 2.066 . S
O542 C514 1.256 . S
O543 C514 1.244 . S
O543 Zn515 2.053 . S
Zn544 O545 2.055 1_545 S
Zn544 O552 2.046 . S
Zn544 N560 2.036 1_545 S
Zn544 O572 2.053 . S
Zn544 O574 2.066 1_545 S
O545 Zn544 2.055 1_565 S
O545 C548 1.259 . S
C546 O574 1.256 1_545 S
C546 O575 1.244 . S
Zn547 O549 2.046 . S
Zn547 O551 2.055 . S
Zn547 N553 2.036 . S
Zn547 O571 2.066 . S
Zn547 O575 2.053 . S
C548 O545 1.259 . S
C548 O549 1.254 1_565 S
O549 Zn547 2.046 . S
O549 C548 1.254 1_545 S
C550 O571 1.256 . S
C550 O572 1.244 . S
O551 Zn547 2.055 . S
O551 C573 1.259 . S
O552 Zn544 2.046 . S
O552 C573 1.254 . S
N553 Zn547 2.036 . S
N553 C554 1.298 . S
N553 N556 1.398 . S
C554 N553 1.298 . S
C554 N557 1.367 . S
C554 C567 1.481 . S
C555 N556 1.299 . S
C555 N557 1.379 . S
N556 N553 1.398 . S
N556 C555 1.299 . S
N557 C554 1.367 . S
N557 C555 1.379 . S
C558 N560 1.298 . S
C558 N562 1.367 . S
C558 C566 1.481 . S
C559 N561 1.299 1_565 S
C559 N562 1.379 . S
N560 Zn544 2.036 1_565 S
N560 C558 1.298 . S
N560 N561 1.398 1_565 S
N561 C559 1.299 1_545 S
N561 N560 1.398 1_545 S
N562 C558 1.367 . S
N562 C559 1.379 . S
H563 C566 0.980 . S
H564 C566 0.981 . S
H565 C566 0.981 . S
C566 C558 1.481 . S
C566 H563 0.980 . S
C566 H564 0.981 . S
C566 H565 0.981 . S
C567 C554 1.481 . S
C567 H568 0.980 . S
C567 H569 0.981 . S
C567 H570 0.981 . S
H568 C567 0.980 . S
H569 C567 0.981 . S
H570 C567 0.981 . S
O571 Zn547 2.066 . S
O571 C550 1.256 . S
O572 Zn544 2.053 . S
O572 C550 1.244 . S
C573 O551 1.259 . S
C573 O552 1.254 . S
O574 Zn544 2.066 1_565 S
O574 C546 1.256 1_565 S
O575 C546 1.244 . S
O575 Zn547 2.053 . S
Zn576 O577 2.055 . S
Zn576 O584 2.046 . S
Zn576 N592 2.036 . S
Zn576 O604 2.053 . S
Zn576 O606 2.066 . S
O577 Zn576 2.055 . S
O577 C580 1.259 . S
C578 O606 1.256 . S
C578 O607 1.244 . S
Zn579 O581 2.046 . S
Zn579 O583 2.055 . S
Zn579 N585 2.036 . S
Zn579 O603 2.066 . S
Zn579 O607 2.053 . S
C580 O577 1.259 . S
C580 O581 1.254 . S
O581 Zn579 2.046 . S
O581 C580 1.254 . S
C582 O603 1.256 . S
C582 O604 1.244 . S
O583 Zn579 2.055 . S
O583 C605 1.259 . S
O584 Zn576 2.046 . S
O584 C605 1.254 . S
N585 Zn579 2.036 . S
N585 C586 1.298 . S
N585 N588 1.398 . S
C586 N585 1.298 . S
C586 N589 1.367 . S
C586 C599 1.481 . S
C587 N588 1.299 . S
C587 N589 1.379 . S
N588 N585 1.398 . S
N588 C587 1.299 . S
N589 C586 1.367 . S
N589 C587 1.379 . S
C590 N592 1.298 . S
C590 N594 1.367 . S
C590 C598 1.481 . S
C591 N593 1.299 . S
C591 N594 1.379 . S
N592 Zn576 2.036 . S
N592 C590 1.298 . S
N592 N593 1.398 . S
N593 C591 1.299 . S
N593 N592 1.398 . S
N594 C590 1.367 . S
N594 C591 1.379 . S
H595 C598 0.980 . S
H596 C598 0.981 . S
H597 C598 0.981 . S
C598 C590 1.481 . S
C598 H595 0.980 . S
C598 H596 0.981 . S
C598 H597 0.981 . S
C599 C586 1.481 . S
C599 H600 0.980 . S
C599 H601 0.981 . S
C599 H602 0.981 . S
H600 C599 0.980 . S
H601 C599 0.981 . S
H602 C599 0.981 . S
O603 Zn579 2.066 . S
O603 C582 1.256 . S
O604 Zn576 2.053 . S
O604 C582 1.244 . S
C605 O583 1.259 . S
C605 O584 1.254 . S
O606 Zn576 2.066 . S
O606 C578 1.256 . S
O607 C578 1.244 . S
O607 Zn579 2.053 . S
Zn608 O609 2.055 . S
Zn608 O616 2.046 . S
Zn608 N624 2.036 . S
Zn608 O636 2.053 . S
Zn608 O638 2.066 . S
O609 Zn608 2.055 . S
O609 C612 1.259 . S
C610 O638 1.256 . S
C610 O639 1.244 . S
Zn611 O613 2.046 . S
Zn611 O615 2.055 . S
Zn611 N617 2.036 . S
Zn611 O635 2.066 . S
Zn611 O639 2.053 . S
C612 O609 1.259 . S
C612 O613 1.254 . S
O613 Zn611 2.046 . S
O613 C612 1.254 . S
C614 O635 1.256 . S
C614 O636 1.244 . S
O615 Zn611 2.055 . S
O615 C637 1.259 . S
O616 Zn608 2.046 . S
O616 C637 1.254 . S
N617 Zn611 2.036 . S
N617 C618 1.298 . S
N617 N620 1.398 . S
C618 N617 1.298 . S
C618 N621 1.367 . S
C618 C631 1.481 . S
C619 N620 1.299 . S
C619 N621 1.379 . S
N620 N617 1.398 . S
N620 C619 1.299 . S
N621 C618 1.367 . S
N621 C619 1.379 . S
C622 N624 1.298 . S
C622 N626 1.367 . S
C622 C630 1.481 . S
C623 N625 1.299 . S
C623 N626 1.379 . S
N624 Zn608 2.036 . S
N624 C622 1.298 . S
N624 N625 1.398 . S
N625 C623 1.299 . S
N625 N624 1.398 . S
N626 C622 1.367 . S
N626 C623 1.379 . S
H627 C630 0.980 . S
H628 C630 0.981 . S
H629 C630 0.981 . S
C630 C622 1.481 . S
C630 H627 0.980 . S
C630 H628 0.981 . S
C630 H629 0.981 . S
C631 C618 1.481 . S
C631 H632 0.980 . S
C631 H633 0.981 . S
C631 H634 0.981 . S
H632 C631 0.980 . S
H633 C631 0.981 . S
H634 C631 0.981 . S
O635 Zn611 2.066 . S
O635 C614 1.256 . S
O636 Zn608 2.053 . S
O636 C614 1.244 . S
C637 O615 1.259 . S
C637 O616 1.254 . S
O638 Zn608 2.066 . S
O638 C610 1.256 . S
O639 C610 1.244 . S
O639 Zn611 2.053 . S
Zn640 O641 2.055 1_556 S
Zn640 O648 2.046 . S
Zn640 N656 2.036 1_556 S
Zn640 O668 2.053 . S
Zn640 O670 2.066 1_556 S
O641 Zn640 2.055 1_554 S
O641 C644 1.259 . S
C642 O670 1.256 1_556 S
C642 O671 1.244 . S
Zn643 O645 2.046 . S
Zn643 O647 2.055 . S
Zn643 N649 2.036 . S
Zn643 O667 2.066 . S
Zn643 O671 2.053 . S
C644 O641 1.259 . S
C644 O645 1.254 1_554 S
O645 Zn643 2.046 . S
O645 C644 1.254 1_556 S
C646 O667 1.256 . S
C646 O668 1.244 . S
O647 Zn643 2.055 . S
O647 C669 1.259 . S
O648 Zn640 2.046 . S
O648 C669 1.254 . S
N649 Zn643 2.036 . S
N649 C650 1.298 . S
N649 N652 1.398 . S
C650 N649 1.298 . S
C650 N653 1.367 . S
C650 C663 1.481 . S
C651 N652 1.299 . S
C651 N653 1.379 . S
N652 N649 1.398 . S
N652 C651 1.299 . S
N653 C650 1.367 . S
N653 C651 1.379 . S
C654 N656 1.298 . S
C654 N658 1.367 . S
C654 C662 1.481 . S
C655 N657 1.299 1_554 S
C655 N658 1.379 . S
N656 Zn640 2.036 1_554 S
N656 C654 1.298 . S
N656 N657 1.398 1_554 S
N657 C655 1.299 1_556 S
N657 N656 1.398 1_556 S
N658 C654 1.367 . S
N658 C655 1.379 . S
H659 C662 0.980 . S
H660 C662 0.981 . S
H661 C662 0.981 . S
C662 C654 1.481 . S
C662 H659 0.980 . S
C662 H660 0.981 . S
C662 H661 0.981 . S
C663 C650 1.481 . S
C663 H664 0.980 . S
C663 H665 0.981 . S
C663 H666 0.981 . S
H664 C663 0.980 . S
H665 C663 0.981 . S
H666 C663 0.981 . S
O667 Zn643 2.066 . S
O667 C646 1.256 . S
O668 Zn640 2.053 . S
O668 C646 1.244 . S
C669 O647 1.259 . S
C669 O648 1.254 . S
O670 Zn640 2.066 1_554 S
O670 C642 1.256 1_554 S
O671 C642 1.244 . S
O671 Zn643 2.053 . S
Zn672 O673 2.055 1_554 S
Zn672 O680 2.046 . S
Zn672 N688 2.036 1_554 S
Zn672 O700 2.053 . S
Zn672 O702 2.066 1_554 S
O673 Zn672 2.055 1_556 S
O673 C676 1.259 . S
C674 O702 1.256 1_554 S
C674 O703 1.244 . S
Zn675 O677 2.046 . S
Zn675 O679 2.055 . S
Zn675 N681 2.036 . S
Zn675 O699 2.066 . S
Zn675 O703 2.053 . S
C676 O673 1.259 . S
C676 O677 1.254 1_556 S
O677 Zn675 2.046 . S
O677 C676 1.254 1_554 S
C678 O699 1.256 . S
C678 O700 1.244 . S
O679 Zn675 2.055 . S
O679 C701 1.259 . S
O680 Zn672 2.046 . S
O680 C701 1.254 . S
N681 Zn675 2.036 . S
N681 C682 1.298 . S
N681 N684 1.398 . S
C682 N681 1.298 . S
C682 N685 1.367 . S
C682 C695 1.481 . S
C683 N684 1.299 . S
C683 N685 1.379 . S
N684 N681 1.398 . S
N684 C683 1.299 . S
N685 C682 1.367 . S
N685 C683 1.379 . S
C686 N688 1.298 . S
C686 N690 1.367 . S
C686 C694 1.481 . S
C687 N689 1.299 1_556 S
C687 N690 1.379 . S
N688 Zn672 2.036 1_556 S
N688 C686 1.298 . S
N688 N689 1.398 1_556 S
N689 C687 1.299 1_554 S
N689 N688 1.398 1_554 S
N690 C686 1.367 . S
N690 C687 1.379 . S
H691 C694 0.980 . S
H692 C694 0.981 . S
H693 C694 0.981 . S
C694 C686 1.481 . S
C694 H691 0.980 . S
C694 H692 0.981 . S
C694 H693 0.981 . S
C695 C682 1.481 . S
C695 H696 0.980 . S
C695 H697 0.981 . S
C695 H698 0.981 . S
H696 C695 0.980 . S
H697 C695 0.981 . S
H698 C695 0.981 . S
O699 Zn675 2.066 . S
O699 C678 1.256 . S
O700 Zn672 2.053 . S
O700 C678 1.244 . S
C701 O679 1.259 . S
C701 O680 1.254 . S
O702 Zn672 2.066 1_556 S
O702 C674 1.256 1_556 S
O703 C674 1.244 . S
O703 Zn675 2.053 . S
Zn704 O705 2.055 . S
Zn704 O712 2.046 . S
Zn704 N720 2.036 . S
Zn704 O732 2.053 . S
Zn704 O734 2.066 . S
O705 Zn704 2.055 . S
O705 C708 1.259 . S
C706 O734 1.256 . S
C706 O735 1.244 . S
Zn707 O709 2.046 . S
Zn707 O711 2.055 . S
Zn707 N713 2.036 . S
Zn707 O731 2.066 . S
Zn707 O735 2.053 . S
C708 O705 1.259 . S
C708 O709 1.254 . S
O709 Zn707 2.046 . S
O709 C708 1.254 . S
C710 O731 1.256 . S
C710 O732 1.244 . S
O711 Zn707 2.055 . S
O711 C733 1.259 . S
O712 Zn704 2.046 . S
O712 C733 1.254 . S
N713 Zn707 2.036 . S
N713 C714 1.298 . S
N713 N716 1.398 . S
C714 N713 1.298 . S
C714 N717 1.367 . S
C714 C727 1.481 . S
C715 N716 1.299 . S
C715 N717 1.379 . S
N716 N713 1.398 . S
N716 C715 1.299 . S
N717 C714 1.367 . S
N717 C715 1.379 . S
C718 N720 1.298 . S
C718 N722 1.367 . S
C718 C726 1.481 . S
C719 N721 1.299 . S
C719 N722 1.379 . S
N720 Zn704 2.036 . S
N720 C718 1.298 . S
N720 N721 1.398 . S
N721 C719 1.299 . S
N721 N720 1.398 . S
N722 C718 1.367 . S
N722 C719 1.379 . S
H723 C726 0.980 . S
H724 C726 0.981 . S
H725 C726 0.981 . S
C726 C718 1.481 . S
C726 H723 0.980 . S
C726 H724 0.981 . S
C726 H725 0.981 . S
C727 C714 1.481 . S
C727 H728 0.980 . S
C727 H729 0.981 . S
C727 H730 0.981 . S
H728 C727 0.980 . S
H729 C727 0.981 . S
H730 C727 0.981 . S
O731 Zn707 2.066 . S
O731 C710 1.256 . S
O732 Zn704 2.053 . S
O732 C710 1.244 . S
C733 O711 1.259 . S
C733 O712 1.254 . S
O734 Zn704 2.066 . S
O734 C706 1.256 . S
O735 C706 1.244 . S
O735 Zn707 2.053 . S
Zn736 O737 2.055 . S
Zn736 O744 2.046 . S
Zn736 N752 2.036 . S
Zn736 O764 2.053 . S
Zn736 O766 2.066 . S
O737 Zn736 2.055 . S
O737 C740 1.259 . S
C738 O766 1.256 . S
C738 O767 1.244 . S
Zn739 O741 2.046 . S
Zn739 O743 2.055 . S
Zn739 N745 2.036 . S
Zn739 O763 2.066 . S
Zn739 O767 2.053 . S
C740 O737 1.259 . S
C740 O741 1.254 . S
O741 Zn739 2.046 . S
O741 C740 1.254 . S
C742 O763 1.256 . S
C742 O764 1.244 . S
O743 Zn739 2.055 . S
O743 C765 1.259 . S
O744 Zn736 2.046 . S
O744 C765 1.254 . S
N745 Zn739 2.036 . S
N745 C746 1.298 . S
N745 N748 1.398 . S
C746 N745 1.298 . S
C746 N749 1.367 . S
C746 C759 1.481 . S
C747 N748 1.299 . S
C747 N749 1.379 . S
N748 N745 1.398 . S
N748 C747 1.299 . S
N749 C746 1.367 . S
N749 C747 1.379 . S
C750 N752 1.298 . S
C750 N754 1.367 . S
C750 C758 1.481 . S
C751 N753 1.299 . S
C751 N754 1.379 . S
N752 Zn736 2.036 . S
N752 C750 1.298 . S
N752 N753 1.398 . S
N753 C751 1.299 . S
N753 N752 1.398 . S
N754 C750 1.367 . S
N754 C751 1.379 . S
H755 C758 0.980 . S
H756 C758 0.981 . S
H757 C758 0.981 . S
C758 C750 1.481 . S
C758 H755 0.980 . S
C758 H756 0.981 . S
C758 H757 0.981 . S
C759 C746 1.481 . S
C759 H760 0.980 . S
C759 H761 0.981 . S
C759 H762 0.981 . S
H760 C759 0.980 . S
H761 C759 0.981 . S
H762 C759 0.981 . S
O763 Zn739 2.066 . S
O763 C742 1.256 . S
O764 Zn736 2.053 . S
O764 C742 1.244 . S
C765 O743 1.259 . S
C765 O744 1.254 . S
O766 Zn736 2.066 . S
O766 C738 1.256 . S
O767 C738 1.244 . S
O767 Zn739 2.053 . S
C768 C769 1.387 . S
C768 H772 0.950 . S
C768 C777 1.390 . S
C769 C768 1.387 . S
C769 C771 1.387 . S
H770 C777 0.950 . S
C771 C769 1.387 . S
C771 C773 1.390 . S
C771 H775 0.950 . S
H772 C768 0.950 . S
C773 C771 1.390 . S
C773 C774 1.387 . S
C773 H776 0.950 . S
C774 C773 1.387 . S
C774 C777 1.387 . S
H775 C771 0.950 . S
H776 C773 0.950 . S
C777 C768 1.390 . S
C777 H770 0.950 . S
C777 C774 1.387 . S
C778 C779 1.387 . S
C778 H782 0.950 . S
C778 C787 1.390 . S
C779 C778 1.387 . S
C779 C781 1.387 . S
H780 C787 0.950 . S
C781 C779 1.387 . S
C781 C783 1.390 . S
C781 H785 0.950 . S
H782 C778 0.950 . S
C783 C781 1.390 . S
C783 C784 1.387 . S
C783 H786 0.950 . S
C784 C783 1.387 . S
C784 C787 1.387 . S
H785 C781 0.950 . S
H786 C783 0.950 . S
C787 C778 1.390 . S
C787 H780 0.950 . S
C787 C784 1.387 . S
C788 C789 1.387 . S
C788 H792 0.950 . S
C788 C797 1.390 . S
C789 C788 1.387 . S
C789 C791 1.387 . S
H790 C797 0.950 . S
C791 C789 1.387 . S
C791 C793 1.390 . S
C791 H795 0.950 . S
H792 C788 0.950 . S
C793 C791 1.390 . S
C793 C794 1.387 . S
C793 H796 0.950 . S
C794 C793 1.387 . S
C794 C797 1.387 . S
H795 C791 0.950 . S
H796 C793 0.950 . S
C797 C788 1.390 . S
C797 H790 0.950 . S
C797 C794 1.387 . S
C798 C799 1.387 . S
C798 H802 0.950 . S
C798 C807 1.390 . S
C799 C798 1.387 . S
C799 C801 1.387 . S
H800 C807 0.950 . S
C801 C799 1.387 . S
C801 C803 1.390 . S
C801 H805 0.950 . S
H802 C798 0.950 . S
C803 C801 1.390 . S
C803 C804 1.387 . S
C803 H806 0.950 . S
C804 C803 1.387 . S
C804 C807 1.387 . S
H805 C801 0.950 . S
H806 C803 0.950 . S
C807 C798 1.390 . S
C807 H800 0.950 . S
C807 C804 1.387 . S
C808 C809 1.387 . S
C808 H812 0.950 . S
C808 C817 1.390 . S
C809 C808 1.387 . S
C809 C811 1.387 . S
H810 C817 0.950 . S
C811 C809 1.387 . S
C811 C813 1.390 . S
C811 H815 0.950 . S
H812 C808 0.950 . S
C813 C811 1.390 . S
C813 C814 1.387 . S
C813 H816 0.950 . S
C814 C813 1.387 . S
C814 C817 1.387 . S
H815 C811 0.950 . S
H816 C813 0.950 . S
C817 C808 1.390 . S
C817 H810 0.950 . S
C817 C814 1.387 . S
C818 C819 1.387 . S
C818 H822 0.950 . S
C818 C827 1.390 . S
C819 C818 1.387 . S
C819 C821 1.387 . S
H820 C827 0.950 . S
C821 C819 1.387 . S
C821 C823 1.390 . S
C821 H825 0.950 . S
H822 C818 0.950 . S
C823 C821 1.390 . S
C823 C824 1.387 . S
C823 H826 0.950 . S
C824 C823 1.387 . S
C824 C827 1.387 . S
H825 C821 0.950 . S
H826 C823 0.950 . S
C827 C818 1.390 . S
C827 H820 0.950 . S
C827 C824 1.387 . S
C828 C829 1.387 . S
C828 H832 0.950 . S
C828 C837 1.390 . S
C829 C828 1.387 . S
C829 C831 1.387 . S
H830 C837 0.950 . S
C831 C829 1.387 . S
C831 C833 1.390 . S
C831 H835 0.950 . S
H832 C828 0.950 . S
C833 C831 1.390 . S
C833 C834 1.387 . S
C833 H836 0.950 . S
C834 C833 1.387 . S
C834 C837 1.387 . S
H835 C831 0.950 . S
H836 C833 0.950 . S
C837 C828 1.390 . S
C837 H830 0.950 . S
C837 C834 1.387 . S
C838 C839 1.387 . S
C838 H842 0.950 . S
C838 C847 1.390 . S
C839 C838 1.387 . S
C839 C841 1.387 . S
H840 C847 0.950 . S
C841 C839 1.387 . S
C841 C843 1.390 . S
C841 H845 0.950 . S
H842 C838 0.950 . S
C843 C841 1.390 . S
C843 C844 1.387 . S
C843 H846 0.950 . S
C844 C843 1.387 . S
C844 C847 1.387 . S
H845 C841 0.950 . S
H846 C843 0.950 . S
C847 C838 1.390 . S
C847 H840 0.950 . S
C847 C844 1.387 . S
C848 C849 1.387 . S
C848 H852 0.950 . S
C848 C857 1.390 . S
C849 C848 1.387 . S
C849 C851 1.387 . S
H850 C857 0.950 . S
C851 C849 1.387 . S
C851 C853 1.390 . S
C851 H855 0.950 . S
H852 C848 0.950 . S
C853 C851 1.390 . S
C853 C854 1.387 . S
C853 H856 0.950 . S
C854 C853 1.387 . S
C854 C857 1.387 . S
H855 C851 0.950 . S
H856 C853 0.950 . S
C857 C848 1.390 . S
C857 H850 0.950 . S
C857 C854 1.387 . S
C858 C859 1.387 . S
C858 H862 0.950 . S
C858 C867 1.390 . S
C859 C858 1.387 . S
C859 C861 1.387 . S
H860 C867 0.950 . S
C861 C859 1.387 . S
C861 C863 1.390 . S
C861 H865 0.950 . S
H862 C858 0.950 . S
C863 C861 1.390 . S
C863 C864 1.387 . S
C863 H866 0.950 . S
C864 C863 1.387 . S
C864 C867 1.387 . S
H865 C861 0.950 . S
H866 C863 0.950 . S
C867 C858 1.390 . S
C867 H860 0.950 . S
C867 C864 1.387 . S
C868 C869 1.387 . S
C868 H872 0.950 . S
C868 C877 1.390 . S
C869 C868 1.387 . S
C869 C871 1.387 . S
H870 C877 0.950 . S
C871 C869 1.387 . S
C871 C873 1.390 . S
C871 H875 0.950 . S
H872 C868 0.950 . S
C873 C871 1.390 . S
C873 C874 1.387 . S
C873 H876 0.950 . S
C874 C873 1.387 . S
C874 C877 1.387 . S
H875 C871 0.950 . S
H876 C873 0.950 . S
C877 C868 1.390 . S
C877 H870 0.950 . S
C877 C874 1.387 . S
C878 C879 1.387 . S
C878 H882 0.950 . S
C878 C887 1.390 . S
C879 C878 1.387 . S
C879 C881 1.387 . S
H880 C887 0.950 . S
C881 C879 1.387 . S
C881 C883 1.390 . S
C881 H885 0.950 . S
H882 C878 0.950 . S
C883 C881 1.390 . S
C883 C884 1.387 . S
C883 H886 0.950 . S
C884 C883 1.387 . S
C884 C887 1.387 . S
H885 C881 0.950 . S
H886 C883 0.950 . S
C887 C878 1.390 . S
C887 H880 0.950 . S
C887 C884 1.387 . S
C888 C889 1.387 . S
C888 H892 0.950 . S
C888 C897 1.390 . S
C889 C888 1.387 . S
C889 C891 1.387 . S
H890 C897 0.950 . S
C891 C889 1.387 . S
C891 C893 1.390 . S
C891 H895 0.950 . S
H892 C888 0.950 . S
C893 C891 1.390 . S
C893 C894 1.387 . S
C893 H896 0.950 . S
C894 C893 1.387 . S
C894 C897 1.387 . S
H895 C891 0.950 . S
H896 C893 0.950 . S
C897 C888 1.390 . S
C897 H890 0.950 . S
C897 C894 1.387 . S
C898 C899 1.387 . S
C898 H902 0.950 . S
C898 C907 1.390 . S
C899 C898 1.387 . S
C899 C901 1.387 . S
H900 C907 0.950 . S
C901 C899 1.387 . S
C901 C903 1.390 . S
C901 H905 0.950 . S
H902 C898 0.950 . S
C903 C901 1.390 . S
C903 C904 1.387 . S
C903 H906 0.950 . S
C904 C903 1.387 . S
C904 C907 1.387 . S
H905 C901 0.950 . S
H906 C903 0.950 . S
C907 C898 1.390 . S
C907 H900 0.950 . S
C907 C904 1.387 . S
C908 C909 1.387 . S
C908 H912 0.950 . S
C908 C917 1.390 . S
C909 C908 1.387 . S
C909 C911 1.387 . S
H910 C917 0.950 . S
C911 C909 1.387 . S
C911 C913 1.390 . S
C911 H915 0.950 . S
H912 C908 0.950 . S
C913 C911 1.390 . S
C913 C914 1.387 . S
C913 H916 0.950 . S
C914 C913 1.387 . S
C914 C917 1.387 . S
H915 C911 0.950 . S
H916 C913 0.950 . S
C917 C908 1.390 . S
C917 H910 0.950 . S
C917 C914 1.387 . S
C918 C919 1.387 . S
C918 H922 0.950 . S
C918 C927 1.390 . S
C919 C918 1.387 . S
C919 C921 1.387 . S
H920 C927 0.950 . S
C921 C919 1.387 . S
C921 C923 1.390 . S
C921 H925 0.950 . S
H922 C918 0.950 . S
C923 C921 1.390 . S
C923 C924 1.387 . S
C923 H926 0.950 . S
C924 C923 1.387 . S
C924 C927 1.387 . S
H925 C921 0.950 . S
H926 C923 0.950 . S
C927 C918 1.390 . S
C927 H920 0.950 . S
C927 C924 1.387 . S
C928 C929 1.387 . S
C928 H932 0.950 . S
C928 C937 1.390 . S
C929 C928 1.387 . S
C929 C931 1.387 . S
H930 C937 0.950 . S
C931 C929 1.387 . S
C931 C933 1.390 . S
C931 H935 0.950 . S
H932 C928 0.950 . S
C933 C931 1.390 . S
C933 C934 1.387 . S
C933 H936 0.950 . S
C934 C933 1.387 . S
C934 C937 1.387 . S
H935 C931 0.950 . S
H936 C933 0.950 . S
C937 C928 1.390 . S
C937 H930 0.950 . S
C937 C934 1.387 . S
C938 C939 1.387 . S
C938 H942 0.950 . S
C938 C947 1.390 . S
C939 C938 1.387 . S
C939 C941 1.387 . S
H940 C947 0.950 . S
C941 C939 1.387 . S
C941 C943 1.390 . S
C941 H945 0.950 . S
H942 C938 0.950 . S
C943 C941 1.390 . S
C943 C944 1.387 . S
C943 H946 0.950 . S
C944 C943 1.387 . S
C944 C947 1.387 . S
H945 C941 0.950 . S
H946 C943 0.950 . S
C947 C938 1.390 . S
C947 H940 0.950 . S
C947 C944 1.387 . S
C948 C949 1.387 . S
C948 H952 0.950 . S
C948 C957 1.390 . S
C949 C948 1.387 . S
C949 C951 1.387 . S
H950 C957 0.950 . S
C951 C949 1.387 . S
C951 C953 1.390 . S
C951 H955 0.950 . S
H952 C948 0.950 . S
C953 C951 1.390 . S
C953 C954 1.387 . S
C953 H956 0.950 . S
C954 C953 1.387 . S
C954 C957 1.387 . S
H955 C951 0.950 . S
H956 C953 0.950 . S
C957 C948 1.390 . S
C957 H950 0.950 . S
C957 C954 1.387 . S
C958 C959 1.387 . S
C958 H962 0.950 . S
C958 C967 1.390 . S
C959 C958 1.387 . S
C959 C961 1.387 . S
H960 C967 0.950 . S
C961 C959 1.387 . S
C961 C963 1.390 . S
C961 H965 0.950 . S
H962 C958 0.950 . S
C963 C961 1.390 . S
C963 C964 1.387 . S
C963 H966 0.950 . S
C964 C963 1.387 . S
C964 C967 1.387 . S
H965 C961 0.950 . S
H966 C963 0.950 . S
C967 C958 1.390 . S
C967 H960 0.950 . S
C967 C964 1.387 . S
C968 C969 1.387 . S
C968 H972 0.950 . S
C968 C977 1.390 . S
C969 C968 1.387 . S
C969 C971 1.387 . S
H970 C977 0.950 . S
C971 C969 1.387 . S
C971 C973 1.390 . S
C971 H975 0.950 . S
H972 C968 0.950 . S
C973 C971 1.390 . S
C973 C974 1.387 . S
C973 H976 0.950 . S
C974 C973 1.387 . S
C974 C977 1.387 . S
H975 C971 0.950 . S
H976 C973 0.950 . S
C977 C968 1.390 . S
C977 H970 0.950 . S
C977 C974 1.387 . S
C978 C979 1.387 . S
C978 H982 0.950 . S
C978 C987 1.390 . S
C979 C978 1.387 . S
C979 C981 1.387 . S
H980 C987 0.950 . S
C981 C979 1.387 . S
C981 C983 1.390 . S
C981 H985 0.950 . S
H982 C978 0.950 . S
C983 C981 1.390 . S
C983 C984 1.387 . S
C983 H986 0.950 . S
C984 C983 1.387 . S
C984 C987 1.387 . S
H985 C981 0.950 . S
H986 C983 0.950 . S
C987 C978 1.390 . S
C987 H980 0.950 . S
C987 C984 1.387 . S
C988 C989 1.387 . S
C988 H992 0.950 . S
C988 C997 1.390 . S
C989 C988 1.387 . S
C989 C991 1.387 . S
H990 C997 0.950 . S
C991 C989 1.387 . S
C991 C993 1.390 . S
C991 H995 0.950 . S
H992 C988 0.950 . S
C993 C991 1.390 . S
C993 C994 1.387 . S
C993 H996 0.950 . S
C994 C993 1.387 . S
C994 C997 1.387 . S
H995 C991 0.950 . S
H996 C993 0.950 . S
C997 C988 1.390 . S
C997 H990 0.950 . S
C997 C994 1.387 . S
C998 C999 1.387 . S
C998 H1002 0.950 . S
C998 C1007 1.390 . S
C999 C998 1.387 . S
C999 C1001 1.387 . S
H1000 C1007 0.950 . S
C1001 C999 1.387 . S
C1001 C1003 1.390 . S
C1001 H1005 0.950 . S
H1002 C998 0.950 . S
C1003 C1001 1.390 . S
C1003 C1004 1.387 . S
C1003 H1006 0.950 . S
C1004 C1003 1.387 . S
C1004 C1007 1.387 . S
H1005 C1001 0.950 . S
H1006 C1003 0.950 . S
C1007 C998 1.390 . S
C1007 H1000 0.950 . S
C1007 C1004 1.387 . S
C1008 C1009 1.387 . S
C1008 H1012 0.950 . S
C1008 C1017 1.390 . S
C1009 C1008 1.387 . S
C1009 C1011 1.387 . S
H1010 C1017 0.950 . S
C1011 C1009 1.387 . S
C1011 C1013 1.390 . S
C1011 H1015 0.950 . S
H1012 C1008 0.950 . S
C1013 C1011 1.390 . S
C1013 C1014 1.387 . S
C1013 H1016 0.950 . S
C1014 C1013 1.387 . S
C1014 C1017 1.387 . S
H1015 C1011 0.950 . S
H1016 C1013 0.950 . S
C1017 C1008 1.390 . S
C1017 H1010 0.950 . S
C1017 C1014 1.387 . S
C1018 C1019 1.387 . S
C1018 H1022 0.950 . S
C1018 C1027 1.390 . S
C1019 C1018 1.387 . S
C1019 C1021 1.387 . S
H1020 C1027 0.950 . S
C1021 C1019 1.387 . S
C1021 C1023 1.390 . S
C1021 H1025 0.950 . S
H1022 C1018 0.950 . S
C1023 C1021 1.390 . S
C1023 C1024 1.387 . S
C1023 H1026 0.950 . S
C1024 C1023 1.387 . S
C1024 C1027 1.387 . S
H1025 C1021 0.950 . S
H1026 C1023 0.950 . S
C1027 C1018 1.390 . S
C1027 H1020 0.950 . S
C1027 C1024 1.387 . S
C1028 C1029 1.387 . S
C1028 H1032 0.950 . S
C1028 C1037 1.390 . S
C1029 C1028 1.387 . S
C1029 C1031 1.387 . S
H1030 C1037 0.950 . S
C1031 C1029 1.387 . S
C1031 C1033 1.390 . S
C1031 H1035 0.950 . S
H1032 C1028 0.950 . S
C1033 C1031 1.390 . S
C1033 C1034 1.387 . S
C1033 H1036 0.950 . S
C1034 C1033 1.387 . S
C1034 C1037 1.387 . S
H1035 C1031 0.950 . S
H1036 C1033 0.950 . S
C1037 C1028 1.390 . S
C1037 H1030 0.950 . S
C1037 C1034 1.387 . S
C1038 C1039 1.387 . S
C1038 H1042 0.950 . S
C1038 C1047 1.390 . S
C1039 C1038 1.387 . S
C1039 C1041 1.387 . S
H1040 C1047 0.950 . S
C1041 C1039 1.387 . S
C1041 C1043 1.390 . S
C1041 H1045 0.950 . S
H1042 C1038 0.950 . S
C1043 C1041 1.390 . S
C1043 C1044 1.387 . S
C1043 H1046 0.950 . S
C1044 C1043 1.387 . S
C1044 C1047 1.387 . S
H1045 C1041 0.950 . S
H1046 C1043 0.950 . S
C1047 C1038 1.390 . S
C1047 H1040 0.950 . S
C1047 C1044 1.387 . S
C1048 C1049 1.387 . S
C1048 H1052 0.950 . S
C1048 C1057 1.390 . S
C1049 C1048 1.387 . S
C1049 C1051 1.387 . S
H1050 C1057 0.950 . S
C1051 C1049 1.387 . S
C1051 C1053 1.390 . S
C1051 H1055 0.950 . S
H1052 C1048 0.950 . S
C1053 C1051 1.390 . S
C1053 C1054 1.387 . S
C1053 H1056 0.950 . S
C1054 C1053 1.387 . S
C1054 C1057 1.387 . S
H1055 C1051 0.950 . S
H1056 C1053 0.950 . S
C1057 C1048 1.390 . S
C1057 H1050 0.950 . S
C1057 C1054 1.387 . S
C1058 C1059 1.387 . S
C1058 H1062 0.950 . S
C1058 C1067 1.390 . S
C1059 C1058 1.387 . S
C1059 C1061 1.387 . S
H1060 C1067 0.950 . S
C1061 C1059 1.387 . S
C1061 C1063 1.390 . S
C1061 H1065 0.950 . S
H1062 C1058 0.950 . S
C1063 C1061 1.390 . S
C1063 C1064 1.387 . S
C1063 H1066 0.950 . S
C1064 C1063 1.387 . S
C1064 C1067 1.387 . S
H1065 C1061 0.950 . S
H1066 C1063 0.950 . S
C1067 C1058 1.390 . S
C1067 H1060 0.950 . S
C1067 C1064 1.387 . S
C1068 C1069 1.387 . S
C1068 H1072 0.950 . S
C1068 C1077 1.390 . S
C1069 C1068 1.387 . S
C1069 C1071 1.387 . S
H1070 C1077 0.950 . S
C1071 C1069 1.387 . S
C1071 C1073 1.390 . S
C1071 H1075 0.950 . S
H1072 C1068 0.950 . S
C1073 C1071 1.390 . S
C1073 C1074 1.387 . S
C1073 H1076 0.950 . S
C1074 C1073 1.387 . S
C1074 C1077 1.387 . S
H1075 C1071 0.950 . S
H1076 C1073 0.950 . S
C1077 C1068 1.390 . S
C1077 H1070 0.950 . S
C1077 C1074 1.387 . S
C1078 C1079 1.387 . S
C1078 H1082 0.950 . S
C1078 C1087 1.390 . S
C1079 C1078 1.387 . S
C1079 C1081 1.387 . S
H1080 C1087 0.950 . S
C1081 C1079 1.387 . S
C1081 C1083 1.390 . S
C1081 H1085 0.950 . S
H1082 C1078 0.950 . S
C1083 C1081 1.390 . S
C1083 C1084 1.387 . S
C1083 H1086 0.950 . S
C1084 C1083 1.387 . S
C1084 C1087 1.387 . S
H1085 C1081 0.950 . S
H1086 C1083 0.950 . S
C1087 C1078 1.390 . S
C1087 H1080 0.950 . S
C1087 C1084 1.387 . S
C1088 C1089 1.387 . S
C1088 H1092 0.950 . S
C1088 C1097 1.390 . S
C1089 C1088 1.387 . S
C1089 C1091 1.387 . S
H1090 C1097 0.950 . S
C1091 C1089 1.387 . S
C1091 C1093 1.390 . S
C1091 H1095 0.950 . S
H1092 C1088 0.950 . S
C1093 C1091 1.390 . S
C1093 C1094 1.387 . S
C1093 H1096 0.950 . S
C1094 C1093 1.387 . S
C1094 C1097 1.387 . S
H1095 C1091 0.950 . S
H1096 C1093 0.950 . S
C1097 C1088 1.390 . S
C1097 H1090 0.950 . S
C1097 C1094 1.387 . S
C1098 C1099 1.387 . S
C1098 H1102 0.950 . S
C1098 C1107 1.390 . S
C1099 C1098 1.387 . S
C1099 C1101 1.387 . S
H1100 C1107 0.950 . S
C1101 C1099 1.387 . S
C1101 C1103 1.390 . S
C1101 H1105 0.950 . S
H1102 C1098 0.950 . S
C1103 C1101 1.390 . S
C1103 C1104 1.387 . S
C1103 H1106 0.950 . S
C1104 C1103 1.387 . S
C1104 C1107 1.387 . S
H1105 C1101 0.950 . S
H1106 C1103 0.950 . S
C1107 C1098 1.390 . S
C1107 H1100 0.950 . S
C1107 C1104 1.387 . S
C1108 C1109 1.387 . S
C1108 H1112 0.950 . S
C1108 C1117 1.390 . S
C1109 C1108 1.387 . S
C1109 C1111 1.387 . S
H1110 C1117 0.950 . S
C1111 C1109 1.387 . S
C1111 C1113 1.390 . S
C1111 H1115 0.950 . S
H1112 C1108 0.950 . S
C1113 C1111 1.390 . S
C1113 C1114 1.387 . S
C1113 H1116 0.950 . S
C1114 C1113 1.387 . S
C1114 C1117 1.387 . S
H1115 C1111 0.950 . S
H1116 C1113 0.950 . S
C1117 C1108 1.390 . S
C1117 H1110 0.950 . S
C1117 C1114 1.387 . S
C1118 C1119 1.387 . S
C1118 H1122 0.950 . S
C1118 C1127 1.390 . S
C1119 C1118 1.387 . S
C1119 C1121 1.387 . S
H1120 C1127 0.950 . S
C1121 C1119 1.387 . S
C1121 C1123 1.390 . S
C1121 H1125 0.950 . S
H1122 C1118 0.950 . S
C1123 C1121 1.390 . S
C1123 C1124 1.387 . S
C1123 H1126 0.950 . S
C1124 C1123 1.387 . S
C1124 C1127 1.387 . S
H1125 C1121 0.950 . S
H1126 C1123 0.950 . S
C1127 C1118 1.390 . S
C1127 H1120 0.950 . S
C1127 C1124 1.387 . S
C1128 C1129 1.387 . S
C1128 H1132 0.950 . S
C1128 C1137 1.390 . S
C1129 C1128 1.387 . S
C1129 C1131 1.387 . S
H1130 C1137 0.950 . S
C1131 C1129 1.387 . S
C1131 C1133 1.390 . S
C1131 H1135 0.950 . S
H1132 C1128 0.950 . S
C1133 C1131 1.390 . S
C1133 C1134 1.387 . S
C1133 H1136 0.950 . S
C1134 C1133 1.387 . S
C1134 C1137 1.387 . S
H1135 C1131 0.950 . S
H1136 C1133 0.950 . S
C1137 C1128 1.390 . S
C1137 H1130 0.950 . S
C1137 C1134 1.387 . S
C1138 C1139 1.387 . S
C1138 H1142 0.950 . S
C1138 C1147 1.390 . S
C1139 C1138 1.387 . S
C1139 C1141 1.387 . S
H1140 C1147 0.950 . S
C1141 C1139 1.387 . S
C1141 C1143 1.390 . S
C1141 H1145 0.950 . S
H1142 C1138 0.950 . S
C1143 C1141 1.390 . S
C1143 C1144 1.387 . S
C1143 H1146 0.950 . S
C1144 C1143 1.387 . S
C1144 C1147 1.387 . S
H1145 C1141 0.950 . S
H1146 C1143 0.950 . S
C1147 C1138 1.390 . S
C1147 H1140 0.950 . S
C1147 C1144 1.387 . S
C1148 C1149 1.387 . S
C1148 H1152 0.950 . S
C1148 C1157 1.390 . S
C1149 C1148 1.387 . S
C1149 C1151 1.387 . S
H1150 C1157 0.950 . S
C1151 C1149 1.387 . S
C1151 C1153 1.390 . S
C1151 H1155 0.950 . S
H1152 C1148 0.950 . S
C1153 C1151 1.390 . S
C1153 C1154 1.387 . S
C1153 H1156 0.950 . S
C1154 C1153 1.387 . S
C1154 C1157 1.387 . S
H1155 C1151 0.950 . S
H1156 C1153 0.950 . S
C1157 C1148 1.390 . S
C1157 H1150 0.950 . S
C1157 C1154 1.387 . S
C1158 C1159 1.387 . S
C1158 H1162 0.950 . S
C1158 C1167 1.390 . S
C1159 C1158 1.387 . S
C1159 C1161 1.387 . S
H1160 C1167 0.950 . S
C1161 C1159 1.387 . S
C1161 C1163 1.390 . S
C1161 H1165 0.950 . S
H1162 C1158 0.950 . S
C1163 C1161 1.390 . S
C1163 C1164 1.387 . S
C1163 H1166 0.950 . S
C1164 C1163 1.387 . S
C1164 C1167 1.387 . S
H1165 C1161 0.950 . S
H1166 C1163 0.950 . S
C1167 C1158 1.390 . S
C1167 H1160 0.950 . S
C1167 C1164 1.387 . S
C1168 C1169 1.387 . S
C1168 H1172 0.950 . S
C1168 C1177 1.390 . S
C1169 C1168 1.387 . S
C1169 C1171 1.387 . S
H1170 C1177 0.950 . S
C1171 C1169 1.387 . S
C1171 C1173 1.390 . S
C1171 H1175 0.950 . S
H1172 C1168 0.950 . S
C1173 C1171 1.390 . S
C1173 C1174 1.387 . S
C1173 H1176 0.950 . S
C1174 C1173 1.387 . S
C1174 C1177 1.387 . S
H1175 C1171 0.950 . S
H1176 C1173 0.950 . S
C1177 C1168 1.390 . S
C1177 H1170 0.950 . S
C1177 C1174 1.387 . S
C1178 C1179 1.387 . S
C1178 H1182 0.950 . S
C1178 C1187 1.390 . S
C1179 C1178 1.387 . S
C1179 C1181 1.387 . S
H1180 C1187 0.950 . S
C1181 C1179 1.387 . S
C1181 C1183 1.390 . S
C1181 H1185 0.950 . S
H1182 C1178 0.950 . S
C1183 C1181 1.390 . S
C1183 C1184 1.387 . S
C1183 H1186 0.950 . S
C1184 C1183 1.387 . S
C1184 C1187 1.387 . S
H1185 C1181 0.950 . S
H1186 C1183 0.950 . S
C1187 C1178 1.390 . S
C1187 H1180 0.950 . S
C1187 C1184 1.387 . S
C1188 C1189 1.387 . S
C1188 H1192 0.950 . S
C1188 C1197 1.390 . S
C1189 C1188 1.387 . S
C1189 C1191 1.387 . S
H1190 C1197 0.950 . S
C1191 C1189 1.387 . S
C1191 C1193 1.390 . S
C1191 H1195 0.950 . S
H1192 C1188 0.950 . S
C1193 C1191 1.390 . S
C1193 C1194 1.387 . S
C1193 H1196 0.950 . S
C1194 C1193 1.387 . S
C1194 C1197 1.387 . S
H1195 C1191 0.950 . S
H1196 C1193 0.950 . S
C1197 C1188 1.390 . S
C1197 H1190 0.950 . S
C1197 C1194 1.387 . S
C1198 C1199 1.387 . S
C1198 H1202 0.950 . S
C1198 C1207 1.390 . S
C1199 C1198 1.387 . S
C1199 C1201 1.387 . S
H1200 C1207 0.950 . S
C1201 C1199 1.387 . S
C1201 C1203 1.390 . S
C1201 H1205 0.950 . S
H1202 C1198 0.950 . S
C1203 C1201 1.390 . S
C1203 C1204 1.387 . S
C1203 H1206 0.950 . S
C1204 C1203 1.387 . S
C1204 C1207 1.387 . S
H1205 C1201 0.950 . S
H1206 C1203 0.950 . S
C1207 C1198 1.390 . S
C1207 H1200 0.950 . S
C1207 C1204 1.387 . S
C1208 C1209 1.387 . S
C1208 H1212 0.950 . S
C1208 C1217 1.390 . S
C1209 C1208 1.387 . S
C1209 C1211 1.387 . S
H1210 C1217 0.950 . S
C1211 C1209 1.387 . S
C1211 C1213 1.390 . S
C1211 H1215 0.950 . S
H1212 C1208 0.950 . S
C1213 C1211 1.390 . S
C1213 C1214 1.387 . S
C1213 H1216 0.950 . S
C1214 C1213 1.387 . S
C1214 C1217 1.387 . S
H1215 C1211 0.950 . S
H1216 C1213 0.950 . S
C1217 C1208 1.390 . S
C1217 H1210 0.950 . S
C1217 C1214 1.387 . S
C1218 C1219 1.387 . S
C1218 H1222 0.950 . S
C1218 C1227 1.390 . S
C1219 C1218 1.387 . S
C1219 C1221 1.387 . S
H1220 C1227 0.950 . S
C1221 C1219 1.387 . S
C1221 C1223 1.390 . S
C1221 H1225 0.950 . S
H1222 C1218 0.950 . S
C1223 C1221 1.390 . S
C1223 C1224 1.387 . S
C1223 H1226 0.950 . S
C1224 C1223 1.387 . S
C1224 C1227 1.387 . S
H1225 C1221 0.950 . S
H1226 C1223 0.950 . S
C1227 C1218 1.390 . S
C1227 H1220 0.950 . S
C1227 C1224 1.387 . S
C1228 C1229 1.387 . S
C1228 H1232 0.950 . S
C1228 C1237 1.390 . S
C1229 C1228 1.387 . S
C1229 C1231 1.387 . S
H1230 C1237 0.950 . S
C1231 C1229 1.387 . S
C1231 C1233 1.390 . S
C1231 H1235 0.950 . S
H1232 C1228 0.950 . S
C1233 C1231 1.390 . S
C1233 C1234 1.387 . S
C1233 H1236 0.950 . S
C1234 C1233 1.387 . S
C1234 C1237 1.387 . S
H1235 C1231 0.950 . S
H1236 C1233 0.950 . S
C1237 C1228 1.390 . S
C1237 H1230 0.950 . S
C1237 C1234 1.387 . S
C1238 C1239 1.387 . S
C1238 H1242 0.950 . S
C1238 C1247 1.390 . S
C1239 C1238 1.387 . S
C1239 C1241 1.387 . S
H1240 C1247 0.950 . S
C1241 C1239 1.387 . S
C1241 C1243 1.390 . S
C1241 H1245 0.950 . S
H1242 C1238 0.950 . S
C1243 C1241 1.390 . S
C1243 C1244 1.387 . S
C1243 H1246 0.950 . S
C1244 C1243 1.387 . S
C1244 C1247 1.387 . S
H1245 C1241 0.950 . S
H1246 C1243 0.950 . S
C1247 C1238 1.390 . S
C1247 H1240 0.950 . S
C1247 C1244 1.387 . S
C1248 C1249 1.387 . S
C1248 H1252 0.950 . S
C1248 C1257 1.390 . S
C1249 C1248 1.387 . S
C1249 C1251 1.387 . S
H1250 C1257 0.950 . S
C1251 C1249 1.387 . S
C1251 C1253 1.390 . S
C1251 H1255 0.950 . S
H1252 C1248 0.950 . S
C1253 C1251 1.390 . S
C1253 C1254 1.387 . S
C1253 H1256 0.950 . S
C1254 C1253 1.387 . S
C1254 C1257 1.387 . S
H1255 C1251 0.950 . S
H1256 C1253 0.950 . S
C1257 C1248 1.390 . S
C1257 H1250 0.950 . S
C1257 C1254 1.387 . S
C1258 C1259 1.387 . S
C1258 H1262 0.950 . S
C1258 C1267 1.390 . S
C1259 C1258 1.387 . S
C1259 C1261 1.387 . S
H1260 C1267 0.950 . S
C1261 C1259 1.387 . S
C1261 C1263 1.390 . S
C1261 H1265 0.950 . S
H1262 C1258 0.950 . S
C1263 C1261 1.390 . S
C1263 C1264 1.387 . S
C1263 H1266 0.950 . S
C1264 C1263 1.387 . S
C1264 C1267 1.387 . S
H1265 C1261 0.950 . S
H1266 C1263 0.950 . S
C1267 C1258 1.390 . S
C1267 H1260 0.950 . S
C1267 C1264 1.387 . S
C1268 C1269 1.387 . S
C1268 H1272 0.950 . S
C1268 C1277 1.390 . S
C1269 C1268 1.387 . S
C1269 C1271 1.387 . S
H1270 C1277 0.950 . S
C1271 C1269 1.387 . S
C1271 C1273 1.390 . S
C1271 H1275 0.950 . S
H1272 C1268 0.950 . S
C1273 C1271 1.390 . S
C1273 C1274 1.387 . S
C1273 H1276 0.950 . S
C1274 C1273 1.387 . S
C1274 C1277 1.387 . S
H1275 C1271 0.950 . S
H1276 C1273 0.950 . S
C1277 C1268 1.390 . S
C1277 H1270 0.950 . S
C1277 C1274 1.387 . S
C1278 C1279 1.387 . S
C1278 H1282 0.950 . S
C1278 C1287 1.390 . S
C1279 C1278 1.387 . S
C1279 C1281 1.387 . S
H1280 C1287 0.950 . S
C1281 C1279 1.387 . S
C1281 C1283 1.390 . S
C1281 H1285 0.950 . S
H1282 C1278 0.950 . S
C1283 C1281 1.390 . S
C1283 C1284 1.387 . S
C1283 H1286 0.950 . S
C1284 C1283 1.387 . S
C1284 C1287 1.387 . S
H1285 C1281 0.950 . S
H1286 C1283 0.950 . S
C1287 C1278 1.390 . S
C1287 H1280 0.950 . S
C1287 C1284 1.387 . S
C1288 C1289 1.387 . S
C1288 H1292 0.950 . S
C1288 C1297 1.390 . S
C1289 C1288 1.387 . S
C1289 C1291 1.387 . S
H1290 C1297 0.950 . S
C1291 C1289 1.387 . S
C1291 C1293 1.390 . S
C1291 H1295 0.950 . S
H1292 C1288 0.950 . S
C1293 C1291 1.390 . S
C1293 C1294 1.387 . S
C1293 H1296 0.950 . S
C1294 C1293 1.387 . S
C1294 C1297 1.387 . S
H1295 C1291 0.950 . S
H1296 C1293 0.950 . S
C1297 C1288 1.390 . S
C1297 H1290 0.950 . S
C1297 C1294 1.387 . S
C1298 C1299 1.387 . S
C1298 H1302 0.950 . S
C1298 C1307 1.390 . S
C1299 C1298 1.387 . S
C1299 C1301 1.387 . S
H1300 C1307 0.950 . S
C1301 C1299 1.387 . S
C1301 C1303 1.390 . S
C1301 H1305 0.950 . S
H1302 C1298 0.950 . S
C1303 C1301 1.390 . S
C1303 C1304 1.387 . S
C1303 H1306 0.950 . S
C1304 C1303 1.387 . S
C1304 C1307 1.387 . S
H1305 C1301 0.950 . S
H1306 C1303 0.950 . S
C1307 C1298 1.390 . S
C1307 H1300 0.950 . S
C1307 C1304 1.387 . S
C1308 C1309 1.387 . S
C1308 H1312 0.950 . S
C1308 C1317 1.390 . S
C1309 C1308 1.387 . S
C1309 C1311 1.387 . S
H1310 C1317 0.950 . S
C1311 C1309 1.387 . S
C1311 C1313 1.390 . S
C1311 H1315 0.950 . S
H1312 C1308 0.950 . S
C1313 C1311 1.390 . S
C1313 C1314 1.387 . S
C1313 H1316 0.950 . S
C1314 C1313 1.387 . S
C1314 C1317 1.387 . S
H1315 C1311 0.950 . S
H1316 C1313 0.950 . S
C1317 C1308 1.390 . S
C1317 H1310 0.950 . S
C1317 C1314 1.387 . S
C1318 C1319 1.387 . S
C1318 H1322 0.950 . S
C1318 C1327 1.390 . S
C1319 C1318 1.387 . S
C1319 C1321 1.387 . S
H1320 C1327 0.950 . S
C1321 C1319 1.387 . S
C1321 C1323 1.390 . S
C1321 H1325 0.950 . S
H1322 C1318 0.950 . S
C1323 C1321 1.390 . S
C1323 C1324 1.387 . S
C1323 H1326 0.950 . S
C1324 C1323 1.387 . S
C1324 C1327 1.387 . S
H1325 C1321 0.950 . S
H1326 C1323 0.950 . S
C1327 C1318 1.390 . S
C1327 H1320 0.950 . S
C1327 C1324 1.387 . S
C1328 C1329 1.387 . S
C1328 H1332 0.950 . S
C1328 C1337 1.390 . S
C1329 C1328 1.387 . S
C1329 C1331 1.387 . S
H1330 C1337 0.950 . S
C1331 C1329 1.387 . S
C1331 C1333 1.390 . S
C1331 H1335 0.950 . S
H1332 C1328 0.950 . S
C1333 C1331 1.390 . S
C1333 C1334 1.387 . S
C1333 H1336 0.950 . S
C1334 C1333 1.387 . S
C1334 C1337 1.387 . S
H1335 C1331 0.950 . S
H1336 C1333 0.950 . S
C1337 C1328 1.390 . S
C1337 H1330 0.950 . S
C1337 C1334 1.387 . S
C1338 C1339 1.387 . S
C1338 H1342 0.950 . S
C1338 C1347 1.390 . S
C1339 C1338 1.387 . S
C1339 C1341 1.387 . S
H1340 C1347 0.950 . S
C1341 C1339 1.387 . S
C1341 C1343 1.390 . S
C1341 H1345 0.950 . S
H1342 C1338 0.950 . S
C1343 C1341 1.390 . S
C1343 C1344 1.387 . S
C1343 H1346 0.950 . S
C1344 C1343 1.387 . S
C1344 C1347 1.387 . S
H1345 C1341 0.950 . S
H1346 C1343 0.950 . S
C1347 C1338 1.390 . S
C1347 H1340 0.950 . S
C1347 C1344 1.387 . S
C1348 C1349 1.387 . S
C1348 H1352 0.950 . S
C1348 C1357 1.390 . S
C1349 C1348 1.387 . S
C1349 C1351 1.387 . S
H1350 C1357 0.950 . S
C1351 C1349 1.387 . S
C1351 C1353 1.390 . S
C1351 H1355 0.950 . S
H1352 C1348 0.950 . S
C1353 C1351 1.390 . S
C1353 C1354 1.387 . S
C1353 H1356 0.950 . S
C1354 C1353 1.387 . S
C1354 C1357 1.387 . S
H1355 C1351 0.950 . S
H1356 C1353 0.950 . S
C1357 C1348 1.390 . S
C1357 H1350 0.950 . S
C1357 C1354 1.387 . S
C1358 C1359 1.387 . S
C1358 H1362 0.950 . S
C1358 C1367 1.390 . S
C1359 C1358 1.387 . S
C1359 C1361 1.387 . S
H1360 C1367 0.950 . S
C1361 C1359 1.387 . S
C1361 C1363 1.390 . S
C1361 H1365 0.950 . S
H1362 C1358 0.950 . S
C1363 C1361 1.390 . S
C1363 C1364 1.387 . S
C1363 H1366 0.950 1_565 S
C1364 C1363 1.387 . S
C1364 C1367 1.387 . S
H1365 C1361 0.950 . S
H1366 C1363 0.950 1_545 S
C1367 C1358 1.390 . S
C1367 H1360 0.950 . S
C1367 C1364 1.387 . S
C1368 C1369 1.387 . S
C1368 H1372 0.950 . S
C1368 C1377 1.390 . S
C1369 C1368 1.387 . S
C1369 C1371 1.387 . S
H1370 C1377 0.950 1_554 S
C1371 C1369 1.387 . S
C1371 C1373 1.390 . S
C1371 H1375 0.950 . S
H1372 C1368 0.950 . S
C1373 C1371 1.390 . S
C1373 C1374 1.387 . S
C1373 H1376 0.950 . S
C1374 C1373 1.387 . S
C1374 C1377 1.387 . S
H1375 C1371 0.950 . S
H1376 C1373 0.950 . S
C1377 C1368 1.390 . S
C1377 H1370 0.950 1_556 S
C1377 C1374 1.387 . S
C1378 C1379 1.387 . S
C1378 H1382 0.950 . S
C1378 C1387 1.390 . S
C1379 C1378 1.387 . S
C1379 C1381 1.387 . S
H1380 C1387 0.950 . S
C1381 C1379 1.387 . S
C1381 C1383 1.390 . S
C1381 H1385 0.950 . S
H1382 C1378 0.950 . S
C1383 C1381 1.390 . S
C1383 C1384 1.387 . S
C1383 H1386 0.950 . S
C1384 C1383 1.387 . S
C1384 C1387 1.387 . S
H1385 C1381 0.950 . S
H1386 C1383 0.950 . S
C1387 C1378 1.390 . S
C1387 H1380 0.950 . S
C1387 C1384 1.387 . S
C1388 C1389 1.387 . S
C1388 H1392 0.950 . S
C1388 C1397 1.390 . S
C1389 C1388 1.387 . S
C1389 C1391 1.387 . S
H1390 C1397 0.950 . S
C1391 C1389 1.387 . S
C1391 C1393 1.390 . S
C1391 H1395 0.950 . S
H1392 C1388 0.950 . S
C1393 C1391 1.390 . S
C1393 C1394 1.387 . S
C1393 H1396 0.950 . S
C1394 C1393 1.387 . S
C1394 C1397 1.387 . S
H1395 C1391 0.950 . S
H1396 C1393 0.950 . S
C1397 C1388 1.390 . S
C1397 H1390 0.950 . S
C1397 C1394 1.387 . S
C1398 C1399 1.387 . S
C1398 H1402 0.950 . S
C1398 C1407 1.390 . S
C1399 C1398 1.387 . S
C1399 C1401 1.387 . S
H1400 C1407 0.950 . S
C1401 C1399 1.387 . S
C1401 C1403 1.390 . S
C1401 H1405 0.950 . S
H1402 C1398 0.950 . S
C1403 C1401 1.390 . S
C1403 C1404 1.387 . S
C1403 H1406 0.950 . S
C1404 C1403 1.387 . S
C1404 C1407 1.387 . S
H1405 C1401 0.950 . S
H1406 C1403 0.950 . S
C1407 C1398 1.390 . S
C1407 H1400 0.950 . S
C1407 C1404 1.387 . S
C1408 C1409 1.387 . S
C1408 H1412 0.950 . S
C1408 C1417 1.390 . S
C1409 C1408 1.387 . S
C1409 C1411 1.387 . S
H1410 C1417 0.950 . S
C1411 C1409 1.387 . S
C1411 C1413 1.390 . S
C1411 H1415 0.950 . S
H1412 C1408 0.950 . S
C1413 C1411 1.390 . S
C1413 C1414 1.387 . S
C1413 H1416 0.950 . S
C1414 C1413 1.387 . S
C1414 C1417 1.387 . S
H1415 C1411 0.950 . S
H1416 C1413 0.950 . S
C1417 C1408 1.390 . S
C1417 H1410 0.950 . S
C1417 C1414 1.387 . S
C1418 C1419 1.387 . S
C1418 H1422 0.950 . S
C1418 C1427 1.390 . S
C1419 C1418 1.387 . S
C1419 C1421 1.387 . S
H1420 C1427 0.950 . S
C1421 C1419 1.387 . S
C1421 C1423 1.390 . S
C1421 H1425 0.950 . S
H1422 C1418 0.950 . S
C1423 C1421 1.390 . S
C1423 C1424 1.387 . S
C1423 H1426 0.950 . S
C1424 C1423 1.387 . S
C1424 C1427 1.387 . S
H1425 C1421 0.950 . S
H1426 C1423 0.950 . S
C1427 C1418 1.390 . S
C1427 H1420 0.950 . S
C1427 C1424 1.387 . S
C1428 C1429 1.387 . S
C1428 H1432 0.950 . S
C1428 C1437 1.390 . S
C1429 C1428 1.387 . S
C1429 C1431 1.387 . S
H1430 C1437 0.950 . S
C1431 C1429 1.387 . S
C1431 C1433 1.390 . S
C1431 H1435 0.950 . S
H1432 C1428 0.950 . S
C1433 C1431 1.390 . S
C1433 C1434 1.387 . S
C1433 H1436 0.950 . S
C1434 C1433 1.387 . S
C1434 C1437 1.387 . S
H1435 C1431 0.950 . S
H1436 C1433 0.950 . S
C1437 C1428 1.390 . S
C1437 H1430 0.950 . S
C1437 C1434 1.387 . S
C1438 C1439 1.387 . S
C1438 H1442 0.950 . S
C1438 C1447 1.390 . S
C1439 C1438 1.387 . S
C1439 C1441 1.387 . S
H1440 C1447 0.950 . S
C1441 C1439 1.387 . S
C1441 C1443 1.390 . S
C1441 H1445 0.950 . S
H1442 C1438 0.950 . S
C1443 C1441 1.390 . S
C1443 C1444 1.387 . S
C1443 H1446 0.950 . S
C1444 C1443 1.387 . S
C1444 C1447 1.387 . S
H1445 C1441 0.950 . S
H1446 C1443 0.950 . S
C1447 C1438 1.390 . S
C1447 H1440 0.950 . S
C1447 C1444 1.387 . S
C1448 C1449 1.387 . S
C1448 H1452 0.950 . S
C1448 C1457 1.390 . S
C1449 C1448 1.387 . S
C1449 C1451 1.387 . S
H1450 C1457 0.950 . S
C1451 C1449 1.387 . S
C1451 C1453 1.390 . S
C1451 H1455 0.950 . S
H1452 C1448 0.950 . S
C1453 C1451 1.390 . S
C1453 C1454 1.387 . S
C1453 H1456 0.950 1_565 S
C1454 C1453 1.387 . S
C1454 C1457 1.387 . S
H1455 C1451 0.950 . S
H1456 C1453 0.950 1_545 S
C1457 C1448 1.390 . S
C1457 H1450 0.950 . S
C1457 C1454 1.387 . S
C1458 C1459 1.387 . S
C1458 H1462 0.950 . S
C1458 C1467 1.390 . S
C1459 C1458 1.387 . S
C1459 C1461 1.387 . S
H1460 C1467 0.950 . S
C1461 C1459 1.387 . S
C1461 C1463 1.390 . S
C1461 H1465 0.950 . S
H1462 C1458 0.950 . S
C1463 C1461 1.390 . S
C1463 C1464 1.387 . S
C1463 H1466 0.950 . S
C1464 C1463 1.387 . S
C1464 C1467 1.387 . S
H1465 C1461 0.950 . S
H1466 C1463 0.950 . S
C1467 C1458 1.390 . S
C1467 H1460 0.950 . S
C1467 C1464 1.387 . S
C1468 C1469 1.387 . S
C1468 H1472 0.950 . S
C1468 C1477 1.390 . S
C1469 C1468 1.387 . S
C1469 C1471 1.387 . S
H1470 C1477 0.950 . S
C1471 C1469 1.387 . S
C1471 C1473 1.390 . S
C1471 H1475 0.950 . S
H1472 C1468 0.950 . S
C1473 C1471 1.390 . S
C1473 C1474 1.387 . S
C1473 H1476 0.950 . S
C1474 C1473 1.387 . S
C1474 C1477 1.387 . S
H1475 C1471 0.950 . S
H1476 C1473 0.950 . S
C1477 C1468 1.390 . S
C1477 H1470 0.950 . S
C1477 C1474 1.387 . S
C1478 C1479 1.387 . S
C1478 H1482 0.950 . S
C1478 C1487 1.390 . S
C1479 C1478 1.387 . S
C1479 C1481 1.387 . S
H1480 C1487 0.950 . S
C1481 C1479 1.387 . S
C1481 C1483 1.390 . S
C1481 H1485 0.950 . S
H1482 C1478 0.950 . S
C1483 C1481 1.390 . S
C1483 C1484 1.387 . S
C1483 H1486 0.950 . S
C1484 C1483 1.387 . S
C1484 C1487 1.387 . S
H1485 C1481 0.950 . S
H1486 C1483 0.950 . S
C1487 C1478 1.390 . S
C1487 H1480 0.950 . S
C1487 C1484 1.387 . S
C769 N13 1.305 . S
C774 C580 1.469 . S
C779 C637 1.470 . S
C784 N45 1.310 . S
C789 N82 1.311 . S
C794 C541 1.470 . S
C799 N114 1.310 . S
C804 C548 1.470 . S
C809 C708 1.470 . S
C814 N146 1.310 . S
C819 N173 1.306 . S
C824 C676 1.469 . S
C829 C765 1.470 . S
C834 N205 1.311 . S
C839 N242 1.309 . S
C844 C644 1.470 . S
C849 N269 1.310 . S
C854 C420 1.470 . S
C859 N301 1.306 . S
C864 C509 1.469 . S
C869 C477 1.469 . S
C874 N333 1.307 . S
C879 N370 1.306 . S
C884 C413 1.469 . S
C889 N402 1.310 . S
C894 C196 1.470 . S
C899 N429 1.311 . S
C904 C253 1.470 . S
C909 N466 1.311 . S
C914 C157 1.470 . S
C919 C164 1.469 . S
C924 N498 1.305 . S
C929 N530 1.311 . S
C934 C324 1.470 . S
C939 C292 1.469 . S
C944 N557 1.305 . S
C949 C381 1.470 . S
C954 N589 1.311 . S
C959 C260 1.470 . S
C964 N626 1.310 . S
C969 C36 1.469 . S
C974 N653 1.306 . S
C979 C125 1.470 . S
C984 N685 1.311 . S
C989 C93 1.469 . S
C994 N717 1.305 . S
C999 N754 1.310 . S
C1004 C4 1.470 . S
C1009 C130 1.805 . S
C1014 C29 1.838 . S
C1019 C166 1.806 . S
C1024 C61 1.838 . S
C1029 C198 1.806 . S
C1034 C68 1.839 . S
C1039 C226 1.806 . S
C1044 C100 1.838 . S
C1049 C132 1.838 . S
C1054 C262 1.806 . S
C1059 C189 1.836 . S
C1064 C354 1.804 . S
C1069 C221 1.837 . S
C1074 C294 1.804 . S
C1079 C228 1.837 . S
C1084 C326 1.804 . S
C1089 C285 1.838 . S
C1094 C6 1.805 . S
C1099 C317 1.838 . S
C1104 C66 1.806 . S
C1109 C349 1.837 . S
C1114 C98 1.805 . S
C1119 C38 1.805 . S
C1124 C356 1.837 . S
C1129 C514 1.804 . S
C1134 C388 1.837 . S
C1139 C550 1.804 . S
C1144 C445 1.837 . S
C1149 C452 1.838 . S
C1154 C582 1.805 . S
C1159 C484 1.836 . S
C1164 C610 1.804 . S
C1169 C646 1.806 . S
C1174 C516 1.839 . S
C1179 C573 1.837 . S
C1184 C738 1.804 . S
C1189 C678 1.804 . S
C1194 C605 1.837 . S
C1199 C612 1.838 . S
C1204 C710 1.806 . S
C1209 C386 1.805 . S
C1214 C669 1.837 . S
C1219 C701 1.837 . S
C1224 C450 1.805 . S
C1229 C733 1.838 . S
C1234 C482 1.805 . S
C1239 C422 1.805 . S
C1244 C740 1.838 . S
C1249 N18 1.770 . S
C1254 C290 1.790 1_554 S
C1259 C322 1.790 . S
C1264 N50 1.770 . S
C1269 C258 1.790 1_556 S
C1274 N77 1.770 . S
C1279 C358 1.793 . S
C1284 N109 1.772 . S
C1289 N141 1.773 . S
C1294 C102 1.792 1_455 S
C1299 C70 1.790 . S
C1304 N178 1.770 . S
C1309 N210 1.771 . S
C1314 C34 1.791 . S
C1319 C2 1.791 1_655 S
C1324 N237 1.771 . S
C1329 N274 1.772 . S
C1334 C162 1.793 1_545 S
C1339 N306 1.770 . S
C1344 C230 1.790 . S
C1349 N338 1.770 . S
C1354 C194 1.790 . S
C1359 N365 1.774 . S
C1364 C134 1.793 1_565 S
C1369 N397 1.774 . S
C1374 C674 1.793 1_556 S
C1379 N434 1.772 . S
C1384 C706 1.792 . S
C1389 C642 1.791 1_554 S
C1394 N461 1.771 . S
C1399 C742 1.790 . S
C1404 N493 1.770 . S
C1409 N525 1.771 . S
C1414 C486 1.791 1_655 S
C1419 N562 1.773 . S
C1424 C454 1.793 . S
C1429 C418 1.791 . S
C1434 N594 1.770 . S
C1439 N621 1.771 . S
C1444 C390 1.791 1_455 S
C1449 N658 1.770 . S
C1454 C546 1.790 1_565 S
C1459 C614 1.793 . S
C1464 N690 1.773 . S
C1469 N722 1.772 . S
C1474 C578 1.793 . S
C1479 N749 1.773 . S
C1484 C518 1.793 1_545 S
