# Generated by pormake.
# Topology uoq, (4)-cn, num edge types: 1
# Building blocks:
#     Node 0, Type 0, BuildingBlock: NAHDIM_clean_sbu_0, # of connection points: 4
#     Node 1, Type 0, BuildingBlock: NAHDIM_clean_sbu_0, # of connection points: 4
#     Node 2, Type 0, BuildingBlock: NAHDIM_clean_sbu_0, # of connection points: 4
#     Node 3, Type 0, BuildingBlock: NAHDIM_clean_sbu_0, # of connection points: 4
#     Node 4, Type 0, BuildingBlock: NAHDIM_clean_sbu_0, # of connection points: 4
#     Node 5, Type 0, BuildingBlock: NAHDIM_clean_sbu_0, # of connection points: 4
#     Node 6, Type 0, BuildingBlock: NAHDIM_clean_sbu_0, # of connection points: 4
#     Node 7, Type 0, BuildingBlock: NAHDIM_clean_sbu_0, # of connection points: 4
#     Node 8, Type 0, BuildingBlock: NAHDIM_clean_sbu_0, # of connection points: 4
#     Node 9, Type 0, BuildingBlock: NAHDIM_clean_sbu_0, # of connection points: 4
#     Node 10, Type 0, BuildingBlock: NAHDIM_clean_sbu_0, # of connection points: 4
#     Node 11, Type 0, BuildingBlock: NAHDIM_clean_sbu_0, # of connection points: 4
#     Edge 12, Type (0, 0), BuildingBlock: XIVTED_clean_linker_0, # of connection points: 2
#     Edge 13, Type (0, 0), BuildingBlock: XIVTED_clean_linker_0, # of connection points: 2
#     Edge 14, Type (0, 0), BuildingBlock: XIVTED_clean_linker_0, # of connection points: 2
#     Edge 15, Type (0, 0), BuildingBlock: XIVTED_clean_linker_0, # of connection points: 2
#     Edge 16, Type (0, 0), BuildingBlock: XIVTED_clean_linker_0, # of connection points: 2
#     Edge 17, Type (0, 0), BuildingBlock: XIVTED_clean_linker_0, # of connection points: 2
#     Edge 18, Type (0, 0), BuildingBlock: XIVTED_clean_linker_0, # of connection points: 2
#     Edge 19, Type (0, 0), BuildingBlock: XIVTED_clean_linker_0, # of connection points: 2
#     Edge 20, Type (0, 0), BuildingBlock: XIVTED_clean_linker_0, # of connection points: 2
#     Edge 21, Type (0, 0), BuildingBlock: XIVTED_clean_linker_0, # of connection points: 2
#     Edge 22, Type (0, 0), BuildingBlock: XIVTED_clean_linker_0, # of connection points: 2
#     Edge 23, Type (0, 0), BuildingBlock: XIVTED_clean_linker_0, # of connection points: 2
#     Edge 24, Type (0, 0), BuildingBlock: XIVTED_clean_linker_0, # of connection points: 2
#     Edge 25, Type (0, 0), BuildingBlock: XIVTED_clean_linker_0, # of connection points: 2
#     Edge 26, Type (0, 0), BuildingBlock: XIVTED_clean_linker_0, # of connection points: 2
#     Edge 27, Type (0, 0), BuildingBlock: XIVTED_clean_linker_0, # of connection points: 2
#     Edge 28, Type (0, 0), BuildingBlock: XIVTED_clean_linker_0, # of connection points: 2
#     Edge 29, Type (0, 0), BuildingBlock: XIVTED_clean_linker_0, # of connection points: 2
#     Edge 30, Type (0, 0), BuildingBlock: XIVTED_clean_linker_0, # of connection points: 2
#     Edge 31, Type (0, 0), BuildingBlock: XIVTED_clean_linker_0, # of connection points: 2
#     Edge 32, Type (0, 0), BuildingBlock: XIVTED_clean_linker_0, # of connection points: 2
#     Edge 33, Type (0, 0), BuildingBlock: XIVTED_clean_linker_0, # of connection points: 2
#     Edge 34, Type (0, 0), BuildingBlock: XIVTED_clean_linker_0, # of connection points: 2
#     Edge 35, Type (0, 0), BuildingBlock: XIVTED_clean_linker_0, # of connection points: 2
# Relax obj value: 0.070
# Max RMSD: 0.071
# Mean RMSD: 0.071
data_MOF--net-uoq--node1-NAHDIM_clean_sbu_0--edge1-XIVTED_clean_linker_0
_symmetry_space_group_name_H-M    P1
_symmetry_Int_Tables_number       1
_symmetry_cell_setting            triclinic
loop_
_symmetry_equiv_pos_as_xyz
'x, y, z'
_cell_length_a     58.923752
_cell_length_b     59.045749
_cell_length_c     24.136198
_cell_angle_alpha  89.956578
_cell_angle_beta   89.96325
_cell_angle_gamma 119.96275
loop_
_atom_site_label
_atom_site_type_symbol
_atom_site_fract_x
_atom_site_fract_y
_atom_site_fract_z
_atom_type_partial_charge
C0 C 0.27332 0.43807 0.14622 0.0
O1 O 0.29805 0.45609 0.15182 0.0
O2 O 0.31287 0.45859 0.26462 0.0
Zn3 Zn 0.28164 0.4225 0.25391 0.0
O4 O 0.25706 0.41354 0.31778 0.0
C5 C 0.31515 0.40209 0.2262 0.0
O6 O 0.32558 0.42249 0.19307 0.0
O7 O 0.26236 0.42093 0.18392 0.0
C8 C 0.26532 0.41471 0.36684 0.0
O9 O 0.29005 0.42182 0.37489 0.0
C10 C 0.31319 0.47637 0.29485 0.0
O11 O 0.29176 0.47195 0.32081 0.0
O12 O 0.29496 0.39726 0.25418 0.0
C13 C 0.8046 0.26411 0.51973 0.0
O14 O 0.79291 0.26971 0.55936 0.0
O15 O 0.84065 0.32388 0.59877 0.0
Zn16 Zn 0.84652 0.29303 0.5922 0.0
O17 O 0.8314 0.26908 0.65727 0.0
C18 C 0.90156 0.3266 0.56765 0.0
O19 O 0.89302 0.33865 0.53529 0.0
O20 O 0.82906 0.27255 0.52347 0.0
C21 C 0.84019 0.27701 0.70568 0.0
O22 O 0.85878 0.30137 0.71297 0.0
C23 C 0.8253 0.32532 0.63384 0.0
O24 O 0.81169 0.30564 0.66759 0.0
O25 O 0.88513 0.30619 0.59348 0.0
C26 C 0.52879 0.80597 0.83647 0.0
O27 O 0.51232 0.79535 0.87795 0.0
O28 O 0.5104 0.84767 0.91465 0.0
Zn29 Zn 0.54487 0.84833 0.90859 0.0
O30 O 0.54679 0.82776 0.9727 0.0
C31 C 0.58321 0.89599 0.95999 0.0
O32 O 0.57426 0.88128 0.00443 0.0
O33 O 0.54568 0.83019 0.83864 0.0
C34 C 0.56706 0.82686 0.987 0.0
O35 O 0.58885 0.84008 0.95856 0.0
C36 C 0.50279 0.85009 0.96248 0.0
O37 O 0.51757 0.85295 0.0056 0.0
O38 O 0.57409 0.88598 0.9128 0.0
C39 C 0.72953 0.55239 0.17254 0.0
O40 O 0.73636 0.54523 0.2182 0.0
O41 O 0.66567 0.52025 0.26317 0.0
Zn42 Zn 0.69558 0.55663 0.2498 0.0
O43 O 0.72303 0.56509 0.30823 0.0
C44 C 0.66586 0.57652 0.29807 0.0
O45 O 0.66187 0.5577 0.33272 0.0
O46 O 0.71167 0.5585 0.17481 0.0
C47 C 0.72997 0.58207 0.34641 0.0
O48 O 0.71881 0.59647 0.35065 0.0
C49 C 0.66798 0.50188 0.2848 0.0
O50 O 0.69141 0.50584 0.29708 0.0
O51 O 0.68072 0.58075 0.25641 0.0
C52 C 0.177 0.71437 0.48515 0.0
O53 O 0.18757 0.70406 0.51693 0.0
O54 O 0.14565 0.66327 0.58158 0.0
Zn55 Zn 0.14005 0.69399 0.57197 0.0
O56 O 0.15964 0.71884 0.63339 0.0
C57 C 0.09111 0.68202 0.62426 0.0
O58 O 0.10657 0.695 0.66571 0.0
O59 O 0.15521 0.71217 0.49938 0.0
C60 C 0.16094 0.74069 0.64165 0.0
O61 O 0.14887 0.7486 0.60773 0.0
C62 C 0.14173 0.65333 0.6298 0.0
O63 O 0.13427 0.66338 0.66954 0.0
O64 O 0.10111 0.68012 0.57897 0.0
C65 C 0.46022 0.18871 0.84084 0.0
O66 O 0.47593 0.20033 0.88291 0.0
O67 O 0.48201 0.14691 0.91604 0.0
Zn68 Zn 0.44732 0.14573 0.91068 0.0
O69 O 0.44498 0.16529 0.97605 0.0
C70 C 0.40703 0.09781 0.95947 0.0
O71 O 0.41362 0.1124 0.00414 0.0
O72 O 0.44556 0.164 0.84185 0.0
C73 C 0.42576 0.16884 0.98502 0.0
O74 O 0.40606 0.1594 0.95004 0.0
C75 C 0.48763 0.14123 0.96301 0.0
O76 O 0.47072 0.13483 0.00377 0.0
O77 O 0.41835 0.10798 0.91377 0.0
C78 C 0.51743 0.69178 0.51736 0.0
O79 O 0.49802 0.66756 0.51406 0.0
O80 O 0.49257 0.65069 0.39869 0.0
Zn81 Zn 0.52878 0.68223 0.40529 0.0
O82 O 0.53301 0.70647 0.34302 0.0
C83 C 0.56614 0.67108 0.35173 0.0
O84 O 0.56023 0.68041 0.30812 0.0
O85 O 0.53314 0.7016 0.47679 0.0
C86 C 0.55439 0.72729 0.33267 0.0
O87 O 0.5749 0.73377 0.36423 0.0
C88 C 0.48651 0.63915 0.35207 0.0
O89 O 0.5038 0.64825 0.31176 0.0
O90 O 0.55548 0.67032 0.39811 0.0
C91 C 0.81117 0.54632 0.81228 0.0
O92 O 0.79731 0.54004 0.76648 0.0
O93 O 0.83765 0.50786 0.72687 0.0
Zn94 Zn 0.84827 0.54595 0.73723 0.0
O95 O 0.83259 0.55768 0.6773 0.0
C96 C 0.90078 0.56166 0.70285 0.0
O97 O 0.88846 0.53917 0.67686 0.0
O98 O 0.83435 0.54998 0.81068 0.0
C99 C 0.84366 0.56714 0.6311 0.0
O100 O 0.86652 0.56937 0.62023 0.0
C101 C 0.83128 0.49662 0.67992 0.0
O102 O 0.83086 0.50981 0.6365 0.0
O103 O 0.88775 0.56862 0.73344 0.0
C104 C 0.27541 0.81901 0.15183 0.0
O105 O 0.28666 0.80957 0.11953 0.0
O106 O 0.3269 0.85425 0.05662 0.0
Zn107 Zn 0.29384 0.85633 0.06564 0.0
O108 O 0.2691 0.83582 0.00455 0.0
C109 C 0.31129 0.90456 0.01157 0.0
O110 O 0.31157 0.89014 0.97044 0.0
O111 O 0.27625 0.84021 0.13814 0.0
C112 C 0.25235 0.84079 0.9833 0.0
O113 O 0.24984 0.86018 0.00288 0.0
C114 C 0.33266 0.84823 0.01018 0.0
O115 O 0.31667 0.84292 0.9681 0.0
O116 O 0.3037 0.89415 0.0591 0.0
C117 C 0.45872 0.29776 0.52361 0.0
O118 O 0.4761 0.32279 0.52087 0.0
O119 O 0.48504 0.33711 0.40262 0.0
Zn120 Zn 0.44962 0.30484 0.40851 0.0
O121 O 0.44697 0.28055 0.34791 0.0
C122 C 0.42584 0.32667 0.34656 0.0
O123 O 0.44561 0.33027 0.3152 0.0
O124 O 0.44466 0.28647 0.4815 0.0
C125 C 0.425 0.26449 0.32664 0.0
O126 O 0.40354 0.26315 0.34615 0.0
C127 C 0.50606 0.33636 0.39615 0.0
O128 O 0.50513 0.31366 0.3966 0.0
O129 O 0.42269 0.31548 0.39328 0.0
C130 C 0.17164 0.45316 0.82922 0.0
O131 O 0.18441 0.47053 0.7903 0.0
O132 O 0.14142 0.47793 0.73866 0.0
Zn133 Zn 0.13508 0.4412 0.74718 0.0
O134 O 0.15689 0.43505 0.69208 0.0
C135 C 0.08967 0.41979 0.68387 0.0
O136 O 0.10717 0.43787 0.65112 0.0
O137 O 0.14741 0.43701 0.82212 0.0
C138 C 0.14924 0.41339 0.66768 0.0
O139 O 0.12566 0.39368 0.67746 0.0
C140 C 0.15366 0.49225 0.69734 0.0
O141 O 0.16345 0.48339 0.65991 0.0
O142 O 0.09685 0.41647 0.73145 0.0
C143 C 0.69987 0.15861 0.19397 0.0
O144 O 0.67958 0.16041 0.17759 0.0
O145 O 0.66216 0.13796 0.07236 0.0
Zn146 Zn 0.69454 0.13523 0.08597 0.0
O147 O 0.72265 0.1589 0.03291 0.0
C148 C 0.67694 0.08818 0.02554 0.0
O149 O 0.6762 0.10324 0.98633 0.0
O150 O 0.7088 0.14756 0.16267 0.0
C151 C 0.73805 0.15313 0.00792 0.0
O152 O 0.73612 0.13025 0.0163 0.0
C153 C 0.6584 0.14635 0.02671 0.0
O154 O 0.67626 0.154 0.98762 0.0
O155 O 0.68485 0.09773 0.07355 0.0
H156 H 0.3583 0.40656 0.17332 0.0
H157 H 0.38086 0.31967 0.39649 0.0
H158 H 0.3037 0.36459 0.30528 0.0
H159 H 0.42946 0.35349 0.25183 0.0
H160 H 0.35176 0.33518 0.36307 0.0
H161 H 0.38382 0.38603 0.19985 0.0
C162 C 0.35152 0.39282 0.20751 0.0
C163 C 0.32893 0.38742 0.23733 0.0
C164 C 0.36874 0.33908 0.33856 0.0
C165 C 0.35822 0.36408 0.2684 0.0
C166 C 0.38539 0.33032 0.35771 0.0
C167 C 0.4077 0.33542 0.32707 0.0
C168 C 0.37454 0.35316 0.28859 0.0
C169 C 0.41255 0.34918 0.27696 0.0
C170 C 0.36613 0.38113 0.22272 0.0
C171 C 0.32104 0.36939 0.28118 0.0
N172 N 0.39619 0.35767 0.25946 0.0
N173 N 0.3358 0.35855 0.29573 0.0
H174 H 0.94259 0.36865 0.51693 0.0
H175 H 0.04855 0.37809 0.73618 0.0
H176 H 0.92492 0.31143 0.64583 0.0
H177 H 0.0682 0.42591 0.58902 0.0
H178 H 0.00301 0.35354 0.70461 0.0
H179 H 0.98879 0.38996 0.54296 0.0
C180 C 0.94845 0.36044 0.5504 0.0
C181 C 0.92984 0.33829 0.57936 0.0
C182 C 0.01735 0.36933 0.67915 0.0
C183 C 0.98265 0.36273 0.6098 0.0
C184 C 0.04332 0.38338 0.69723 0.0
C185 C 0.06218 0.40414 0.66532 0.0
C186 C 0.01021 0.37625 0.62905 0.0
C187 C 0.05432 0.41009 0.61507 0.0
C188 C 0.97483 0.37262 0.56528 0.0
C189 C 0.93858 0.32848 0.62235 0.0
N190 N 0.02894 0.39632 0.59867 0.0
N191 N 0.96432 0.34089 0.63657 0.0
H192 H 0.60035 0.93407 0.87978 0.0
H193 H 0.67271 0.05057 0.0983 0.0
H194 H 0.60779 0.92254 0.05404 0.0
H195 H 0.65949 0.06213 0.92727 0.0
H196 H 0.65384 0.00389 0.08006 0.0
H197 H 0.62701 0.98132 0.89359 0.0
C198 C 0.60782 0.94144 0.9208 0.0
C199 C 0.60159 0.92434 0.96594 0.0
C200 C 0.65522 0.01666 0.04643 0.0
C201 C 0.63197 0.97833 0.98208 0.0
C202 C 0.66601 0.04333 0.05682 0.0
C203 C 0.66743 0.06024 0.01439 0.0
C204 C 0.64578 0.00682 0.99323 0.0
C205 C 0.65857 0.04978 0.96136 0.0
C206 C 0.62297 0.96842 0.9287 0.0
C207 C 0.61186 0.93499 0.01814 0.0
N208 N 0.64797 0.02372 0.95238 0.0
N209 N 0.62638 0.96128 0.02483 0.0
H210 H 0.63823 0.57592 0.38933 0.0
H211 H 0.59464 0.67289 0.26074 0.0
H212 H 0.66487 0.61334 0.23005 0.0
H213 H 0.57727 0.64378 0.42859 0.0
H214 H 0.62097 0.65184 0.24902 0.0
H215 H 0.6162 0.60101 0.4046 0.0
C216 C 0.6395 0.58947 0.35755 0.0
C217 C 0.65331 0.59243 0.30816 0.0
C218 C 0.61155 0.6502 0.28853 0.0
C219 C 0.62802 0.62124 0.32542 0.0
C220 C 0.59647 0.66219 0.29527 0.0
C221 C 0.58359 0.65996 0.34566 0.0
C222 C 0.61363 0.6357 0.33234 0.0
C223 C 0.5868 0.64596 0.389 0.0
C224 C 0.62696 0.60386 0.3664 0.0
C225 C 0.6544 0.6104 0.26867 0.0
N226 N 0.60134 0.6342 0.3812 0.0
N227 N 0.64177 0.62402 0.27801 0.0
H228 H 0.93145 0.55635 0.62515 0.0
H229 H 0.06309 0.68522 0.71128 0.0
H230 H 0.93395 0.60828 0.75392 0.0
H231 H 0.05398 0.64393 0.55794 0.0
H232 H 0.01642 0.65665 0.73019 0.0
H233 H 0.97719 0.58709 0.60362 0.0
C234 C 0.94165 0.57417 0.64914 0.0
C235 C 0.92885 0.57973 0.69152 0.0
C236 C 0.02461 0.65401 0.6922 0.0
C237 C 0.9813 0.6151 0.66681 0.0
C238 C 0.05123 0.6703 0.68133 0.0
C239 C 0.06248 0.66688 0.63304 0.0
C240 C 0.00918 0.63395 0.65483 0.0
C241 C 0.04616 0.64728 0.59566 0.0
C242 C 0.96774 0.5918 0.63653 0.0
C243 C 0.94306 0.60322 0.72093 0.0
N244 N 0.02039 0.6314 0.60761 0.0
N245 N 0.96859 0.62002 0.70815 0.0
H246 H 0.3166 0.94116 0.08831 0.0
H247 H 0.39146 0.0608 0.8776 0.0
H248 H 0.32857 0.93217 0.91504 0.0
H249 H 0.38085 0.07002 0.05151 0.0
H250 H 0.36446 0.01346 0.8885 0.0
H251 H 0.3362 0.98825 0.07373 0.0
C252 C 0.32317 0.94905 0.04714 0.0
C253 C 0.32118 0.93274 0.00295 0.0
C254 C 0.36788 0.02586 0.92419 0.0
C255 C 0.34368 0.98658 0.98599 0.0
C256 C 0.38327 0.0529 0.91796 0.0
C257 C 0.38865 0.06939 0.96383 0.0
C258 C 0.35786 0.01523 0.97668 0.0
C259 C 0.37741 0.05806 0.01508 0.0
C260 C 0.33437 0.97594 0.03883 0.0
C261 C 0.32991 0.94402 0.95043 0.0
N262 N 0.36272 0.03168 0.02021 0.0
N263 N 0.34093 0.97025 0.9435 0.0
H264 H 0.22291 0.48562 0.85529 0.0
H265 H 0.22119 0.40526 0.12393 0.0
H266 H 0.15331 0.41677 0.91338 0.0
H267 H 0.29022 0.47323 0.0609 0.0
H268 H 0.19576 0.40887 0.04784 0.0
H269 H 0.24742 0.48151 0.93186 0.0
C270 C 0.21271 0.46966 0.88433 0.0
C271 C 0.18599 0.45147 0.8778 0.0
C272 C 0.21648 0.42294 0.05064 0.0
C273 C 0.21411 0.44655 0.96577 0.0
C274 C 0.23104 0.42086 0.09397 0.0
C275 C 0.2579 0.439 0.09884 0.0
C276 C 0.22886 0.44332 0.01196 0.0
C277 C 0.26959 0.45882 0.05886 0.0
C278 C 0.22678 0.46729 0.92806 0.0
C279 C 0.17387 0.43124 0.91686 0.0
N280 N 0.25499 0.46047 0.01725 0.0
N281 N 0.18806 0.42927 0.95916 0.0
H282 H 0.82083 0.24369 0.43676 0.0
H283 H 0.68491 0.18165 0.27321 0.0
H284 H 0.75337 0.24722 0.495 0.0
H285 H 0.74702 0.16601 0.23133 0.0
H286 H 0.71007 0.20648 0.35373 0.0
H287 H 0.79467 0.21633 0.35946 0.0
C288 C 0.80055 0.23875 0.43326 0.0
C289 C 0.78928 0.24779 0.47236 0.0
C290 C 0.71812 0.19748 0.32714 0.0
C291 C 0.75926 0.2165 0.38411 0.0
C292 C 0.70375 0.18327 0.28114 0.0
C293 C 0.71389 0.17178 0.24536 0.0
C294 C 0.74293 0.20042 0.33723 0.0
C295 C 0.73842 0.17453 0.25779 0.0
C296 C 0.78559 0.22304 0.38927 0.0
C297 C 0.76287 0.24069 0.46588 0.0
N298 N 0.75219 0.18871 0.30248 0.0
N299 N 0.7488 0.22555 0.42252 0.0
H300 H 0.56066 0.82071 0.74464 0.0
H301 H 0.48696 0.67738 0.6108 0.0
H302 H 0.49489 0.75391 0.82051 0.0
H303 H 0.55357 0.74339 0.53497 0.0
H304 H 0.49017 0.70514 0.68876 0.0
H305 H 0.55877 0.79281 0.66772 0.0
C306 C 0.54581 0.80021 0.74511 0.0
C307 C 0.52789 0.78965 0.78908 0.0
C308 C 0.50414 0.71355 0.65515 0.0
C309 C 0.52566 0.75761 0.70133 0.0
C310 C 0.50234 0.69768 0.61062 0.0
C311 C 0.51998 0.70806 0.56617 0.0
C312 C 0.5237 0.74005 0.65531 0.0
C313 C 0.53952 0.73454 0.56829 0.0
C314 C 0.54477 0.78428 0.70124 0.0
C315 C 0.5091 0.76293 0.78753 0.0
N316 N 0.5408 0.74963 0.61202 0.0
N317 N 0.50848 0.74787 0.74443 0.0
H318 H 0.77267 0.54735 0.15718 0.0
H319 H 0.76497 0.54593 0.82706 0.0
H320 H 0.71579 0.5587 0.0673 0.0
H321 H 0.83104 0.55206 0.91732 0.0
H322 H 0.74561 0.54874 0.91446 0.0
H323 H 0.79325 0.54717 0.06961 0.0
C324 C 0.7645 0.54984 0.119 0.0
C325 C 0.74241 0.55298 0.11956 0.0
C326 C 0.76439 0.54958 0.91512 0.0
C327 C 0.76589 0.55269 0.01901 0.0
C328 C 0.77544 0.5479 0.86526 0.0
C329 C 0.79965 0.54868 0.86489 0.0
C330 C 0.77751 0.55182 0.96511 0.0
C331 C 0.81235 0.55137 0.91564 0.0
C332 C 0.77634 0.54981 0.069 0.0
C333 C 0.73279 0.55623 0.06879 0.0
N334 N 0.80106 0.5527 0.96373 0.0
N335 N 0.74451 0.55586 0.0205 0.0
H336 H 0.21886 0.7154 0.43432 0.0
H337 H 0.24149 0.82669 0.21652 0.0
H338 H 0.16722 0.74735 0.4223 0.0
H339 H 0.27662 0.77799 0.201 0.0
H340 H 0.21694 0.801 0.29745 0.0
H341 H 0.24294 0.74121 0.35371 0.0
C342 C 0.21254 0.72782 0.41465 0.0
C343 C 0.19097 0.72921 0.43504 0.0
C344 C 0.23003 0.79598 0.27624 0.0
C345 C 0.21864 0.759 0.34292 0.0
C346 C 0.24414 0.8107 0.23027 0.0
C347 C 0.26112 0.80446 0.20196 0.0
C348 C 0.23317 0.77509 0.29432 0.0
C349 C 0.2637 0.78346 0.22144 0.0
C350 C 0.22629 0.74252 0.36855 0.0
C351 C 0.18367 0.74561 0.40779 0.0
N352 N 0.24995 0.7696 0.26648 0.0
N353 N 0.19758 0.76 0.36325 0.0
H354 H 0.42906 0.17149 0.74831 0.0
H355 H 0.48718 0.31504 0.61944 0.0
H356 H 0.48864 0.24172 0.82738 0.0
H357 H 0.4272 0.24509 0.54024 0.0
H358 H 0.48681 0.28857 0.69759 0.0
H359 H 0.42728 0.19813 0.67265 0.0
C360 C 0.44179 0.19249 0.74974 0.0
C361 C 0.45908 0.20437 0.7942 0.0
C362 C 0.47364 0.27901 0.66323 0.0
C363 C 0.45707 0.235 0.70787 0.0
C364 C 0.4738 0.29414 0.61861 0.0
C365 C 0.45727 0.28227 0.57308 0.0
C366 C 0.45687 0.25179 0.66232 0.0
C367 C 0.44033 0.25509 0.57438 0.0
C368 C 0.44073 0.20771 0.70659 0.0
C369 C 0.47505 0.23169 0.79393 0.0
N370 N 0.44065 0.24076 0.61814 0.0
N371 N 0.47368 0.24605 0.75145 0.0
H372 H 0.20224 0.44391 0.65916 0.0
H373 H 0.21188 0.38944 0.36706 0.0
H374 H 0.13588 0.37722 0.58505 0.0
H375 H 0.27904 0.43066 0.4739 0.0
H376 H 0.18338 0.38608 0.44414 0.0
H377 H 0.2307 0.44106 0.58923 0.0
C378 C 0.19369 0.4286 0.62825 0.0
C379 C 0.16667 0.41085 0.62757 0.0
C380 C 0.20433 0.39559 0.45082 0.0
C381 C 0.19904 0.40765 0.54741 0.0
C382 C 0.22059 0.39761 0.40687 0.0
C383 C 0.24784 0.4105 0.41414 0.0
C384 C 0.21546 0.40698 0.50196 0.0
C385 C 0.25812 0.42058 0.46659 0.0
C386 C 0.20995 0.42691 0.58861 0.0
C387 C 0.15662 0.39128 0.58694 0.0
N388 N 0.24192 0.41892 0.50839 0.0
N389 N 0.17279 0.39039 0.54794 0.0
H390 H 0.8411 0.29 0.81466 0.0
H391 H 0.76113 0.14243 0.92127 0.0
H392 H 0.81307 0.22372 0.70485 0.0
H393 H 0.75748 0.20573 0.00206 0.0
H394 H 0.78935 0.1731 0.84964 0.0
H395 H 0.81932 0.25996 0.8922 0.0
C396 C 0.83059 0.26914 0.807 0.0
C397 C 0.82865 0.25927 0.75333 0.0
C398 C 0.78249 0.18022 0.88337 0.0
C399 C 0.80411 0.22504 0.84146 0.0
C400 C 0.76653 0.16282 0.92428 0.0
C401 C 0.75683 0.17158 0.96725 0.0
C402 C 0.78909 0.20655 0.88622 0.0
C403 C 0.76436 0.19817 0.96923 0.0
C404 C 0.81814 0.25208 0.85111 0.0
C405 C 0.81478 0.2321 0.74557 0.0
N406 N 0.78007 0.21476 0.92921 0.0
N407 N 0.80303 0.21588 0.78924 0.0
H408 H 0.60797 0.82694 0.04177 0.0
H409 H 0.51464 0.72238 0.26682 0.0
H410 H 0.52396 0.79341 0.04682 0.0
H411 H 0.59872 0.76711 0.28489 0.0
H412 H 0.51815 0.74652 0.18246 0.0
H413 H 0.60546 0.8032 0.12708 0.0
C414 C 0.58902 0.81452 0.06064 0.0
C415 C 0.56614 0.81215 0.0372 0.0
C416 C 0.53586 0.75117 0.20491 0.0
C417 C 0.56316 0.78508 0.13442 0.0
C418 C 0.53387 0.73736 0.25312 0.0
C419 C 0.55643 0.74276 0.28296 0.0
C420 C 0.56061 0.77042 0.186 0.0
C421 C 0.58082 0.76241 0.26323 0.0
C422 C 0.58762 0.8011 0.1094 0.0
C423 C 0.54212 0.79589 0.06347 0.0
N424 N 0.58229 0.77549 0.21573 0.0
N425 N 0.54127 0.78296 0.11055 0.0
H426 H 0.73797 0.60247 0.45105 0.0
H427 H 0.85366 0.5736 0.51994 0.0
H428 H 0.76641 0.56686 0.3347 0.0
H429 H 0.80242 0.5755 0.64553 0.0
H430 H 0.82846 0.58121 0.4492 0.0
H431 H 0.7684 0.60267 0.52066 0.0
C432 C 0.75082 0.59499 0.44 0.0
C433 C 0.74957 0.58443 0.38732 0.0
C434 C 0.8229 0.58013 0.49232 0.0
C435 C 0.78434 0.58481 0.46614 0.0
C436 C 0.83728 0.57589 0.53268 0.0
C437 C 0.82993 0.57368 0.58855 0.0
C438 C 0.80129 0.58257 0.50813 0.0
C439 C 0.80856 0.57681 0.60279 0.0
C440 C 0.76804 0.59501 0.4797 0.0
C441 C 0.76659 0.57493 0.37507 0.0
N442 N 0.79494 0.58108 0.56276 0.0
N443 N 0.78329 0.57535 0.41424 0.0
H444 H 0.18987 0.73068 0.71512 0.0
H445 H 0.21941 0.84952 0.91749 0.0
H446 H 0.1629 0.78523 0.68182 0.0
H447 H 0.25135 0.79819 0.93732 0.0
H448 H 0.19674 0.82547 0.83361 0.0
H449 H 0.21107 0.75472 0.79883 0.0
C450 C 0.18845 0.7478 0.72534 0.0
C451 C 0.17459 0.75597 0.69135 0.0
C452 C 0.20869 0.8195 0.85648 0.0
C453 C 0.19885 0.78364 0.78772 0.0
C454 C 0.22154 0.83313 0.90442 0.0
C455 C 0.23732 0.82587 0.93438 0.0
C456 C 0.21163 0.79846 0.8387 0.0
C457 C 0.23945 0.80454 0.91552 0.0
C458 C 0.20058 0.76154 0.77329 0.0
C459 C 0.17346 0.7783 0.7068 0.0
N460 N 0.22679 0.79165 0.86894 0.0
N461 N 0.18541 0.79137 0.75404 0.0
H462 H 0.46475 0.19305 0.06118 0.0
H463 H 0.38266 0.23348 0.26122 0.0
H464 H 0.38597 0.17584 0.02455 0.0
H465 H 0.46502 0.26 0.28131 0.0
H466 H 0.3822 0.2095 0.17816 0.0
H467 H 0.46394 0.21518 0.14551 0.0
C468 C 0.44725 0.19394 0.07084 0.0
C469 C 0.42539 0.18262 0.03568 0.0
C470 C 0.40034 0.22054 0.20087 0.0
C471 C 0.42433 0.20792 0.13253 0.0
C472 C 0.4006 0.23414 0.24837 0.0
C473 C 0.42394 0.2488 0.27814 0.0
C474 C 0.42354 0.22153 0.1833 0.0
C475 C 0.44661 0.24903 0.25955 0.0
C476 C 0.44682 0.20661 0.11906 0.0
C477 C 0.40328 0.18438 0.05041 0.0
N478 N 0.44583 0.23561 0.21333 0.0
N479 N 0.4033 0.19679 0.09785 0.0
H480 H 0.32421 0.51474 0.37164 0.0
H481 H 0.47033 0.60708 0.26189 0.0
H482 H 0.35858 0.49477 0.23572 0.0
H483 H 0.44359 0.61786 0.42105 0.0
H484 H 0.42773 0.56827 0.24696 0.0
H485 H 0.36609 0.55507 0.38555 0.0
C486 C 0.3405 0.5189 0.34454 0.0
C487 C 0.33792 0.50134 0.30252 0.0
C488 C 0.43116 0.57909 0.28519 0.0
C489 C 0.38577 0.54736 0.31818 0.0
C490 C 0.45548 0.60132 0.29373 0.0
C491 C 0.46058 0.61572 0.3429 0.0
C492 C 0.41162 0.57123 0.32589 0.0
C493 C 0.44054 0.60727 0.38263 0.0
C494 C 0.36441 0.54184 0.35267 0.0
C495 C 0.3597 0.50767 0.26878 0.0
N496 N 0.41689 0.58558 0.37322 0.0
N497 N 0.38267 0.53016 0.2773 0.0
H498 H 0.82275 0.46058 0.76074 0.0
H499 H 0.84201 0.36527 0.55881 0.0
H500 H 0.83087 0.47211 0.58362 0.0
H501 H 0.80532 0.34046 0.71926 0.0
H502 H 0.84102 0.40599 0.56898 0.0
H503 H 0.81902 0.41767 0.74848 0.0
C504 C 0.8236 0.45403 0.71928 0.0
C505 C 0.82719 0.46996 0.67314 0.0
C506 C 0.83303 0.39154 0.60178 0.0
C507 C 0.82325 0.42113 0.65895 0.0
C508 C 0.83367 0.36836 0.5961 0.0
C509 C 0.82377 0.34948 0.6383 0.0
C510 C 0.82281 0.39608 0.65039 0.0
C511 C 0.81311 0.35447 0.68565 0.0
C512 C 0.82141 0.42954 0.71232 0.0
C513 C 0.82808 0.46047 0.62035 0.0
N514 N 0.81313 0.37741 0.69066 0.0
N515 N 0.8264 0.43678 0.61474 0.0
H516 H 0.48209 0.85643 0.05864 0.0
H517 H 0.35169 0.83848 0.91527 0.0
H518 H 0.46618 0.84266 0.88357 0.0
H519 H 0.37001 0.85712 0.08831 0.0
H520 H 0.3929 0.83865 0.90339 0.0
H521 H 0.44057 0.85557 0.07067 0.0
C522 C 0.46986 0.85321 0.02267 0.0
C523 C 0.47765 0.84962 0.96996 0.0
C524 C 0.38791 0.84269 0.94397 0.0
C525 C 0.42998 0.84859 0.98355 0.0
C526 C 0.36435 0.84256 0.95084 0.0
C527 C 0.35738 0.84782 0.0029 0.0
C528 C 0.40466 0.84806 0.98948 0.0
C529 C 0.37459 0.85299 0.04742 0.0
C530 C 0.44614 0.85274 0.02961 0.0
C531 C 0.46098 0.84555 0.92493 0.0
N532 N 0.39744 0.85298 0.03968 0.0
N533 N 0.43792 0.84513 0.93277 0.0
H534 H 0.6171 0.49058 0.27983 0.0
H535 H 0.55547 0.3431 0.38496 0.0
H536 H 0.66474 0.45672 0.32457 0.0
H537 H 0.51286 0.38496 0.37714 0.0
H538 H 0.59542 0.38323 0.35774 0.0
H539 H 0.57821 0.4504 0.30859 0.0
C540 C 0.6194 0.47463 0.29545 0.0
C541 C 0.64426 0.47705 0.29982 0.0
C542 C 0.57733 0.38359 0.36229 0.0
C543 C 0.59965 0.43088 0.3331 0.0
C544 C 0.55453 0.36073 0.37782 0.0
C545 C 0.53077 0.36065 0.38327 0.0
C546 C 0.57624 0.40642 0.35162 0.0
C547 C 0.5307 0.38406 0.37352 0.0
C548 C 0.59715 0.45171 0.31216 0.0
C549 C 0.64596 0.45572 0.32058 0.0
N550 N 0.55303 0.40591 0.35788 0.0
N551 N 0.62393 0.43347 0.3364 0.0
H552 H 0.13239 0.62629 0.72688 0.0
H553 H 0.17297 0.52501 0.60781 0.0
H554 H 0.15912 0.62882 0.55916 0.0
H555 H 0.13674 0.51715 0.76761 0.0
H556 H 0.17185 0.56533 0.59217 0.0
H557 H 0.13745 0.58842 0.7451 0.0
C558 C 0.13938 0.61892 0.69386 0.0
C559 C 0.14523 0.63068 0.6413 0.0
C560 C 0.16424 0.55483 0.63073 0.0
C561 C 0.15111 0.58729 0.66199 0.0
C562 C 0.16494 0.53184 0.63979 0.0
C563 C 0.15481 0.5176 0.689 0.0
C564 C 0.15341 0.56369 0.67124 0.0
C565 C 0.14466 0.52742 0.72895 0.0
C566 C 0.14225 0.59726 0.70432 0.0
C567 C 0.15427 0.62029 0.60021 0.0
N568 N 0.14416 0.54981 0.71911 0.0
N569 N 0.1569 0.59915 0.61141 0.0
H570 H 0.64303 0.16077 0.93233 0.0
H571 H 0.50456 0.12936 0.05806 0.0
H572 H 0.6175 0.13232 0.09859 0.0
H573 H 0.52818 0.15514 0.88965 0.0
H574 H 0.54626 0.13115 0.07378 0.0
H575 H 0.60163 0.15985 0.91626 0.0
C576 C 0.62876 0.15439 0.96553 0.0
C577 C 0.63374 0.14657 0.0169 0.0
C578 C 0.54236 0.13642 0.03335 0.0
C579 C 0.58629 0.14543 -0.00132 0.0
C580 C 0.51851 0.1354 0.0243 0.0
C581 C 0.51284 0.1421 0.9724 0.0
C582 C 0.56078 0.14424 0.99025 0.0
C583 C 0.53172 0.14978 0.93029 0.0
C584 C 0.60511 0.15383 0.95626 0.0
C585 C 0.61451 0.13848 0.05833 0.0
N586 N 0.55487 0.15065 0.94015 0.0
N587 N 0.59165 0.1381 0.04828 0.0
loop_
_geom_bond_atom_site_label_1
_geom_bond_atom_site_label_2
_geom_bond_distance
_geom_bond_site_symmetry_2
_ccdc_geom_bond_type
C0 O1 1.160 . S
C0 O7 1.185 . S
O1 C0 1.160 . S
O2 Zn3 1.899 . S
O2 C10 1.284 . S
Zn3 O2 1.899 . S
Zn3 O4 2.032 . S
Zn3 O7 2.086 . S
Zn3 O12 1.977 . S
O4 Zn3 2.032 . S
O4 C8 1.278 . S
C5 O6 1.203 . S
C5 O12 1.267 . S
O6 C5 1.203 . S
O7 C0 1.185 . S
O7 Zn3 2.086 . S
C8 O4 1.278 . S
C8 O9 1.211 . S
O9 C8 1.211 . S
C10 O2 1.284 . S
C10 O11 1.273 . S
O11 C10 1.273 . S
O12 Zn3 1.977 . S
O12 C5 1.267 . S
C13 O14 1.160 . S
C13 O20 1.185 . S
O14 C13 1.160 . S
O15 Zn16 1.899 . S
O15 C23 1.284 . S
Zn16 O15 1.899 . S
Zn16 O17 2.032 . S
Zn16 O20 2.086 . S
Zn16 O25 1.977 . S
O17 Zn16 2.032 . S
O17 C21 1.278 . S
C18 O19 1.203 . S
C18 O25 1.267 . S
O19 C18 1.203 . S
O20 C13 1.185 . S
O20 Zn16 2.086 . S
C21 O17 1.278 . S
C21 O22 1.211 . S
O22 C21 1.211 . S
C23 O15 1.284 . S
C23 O24 1.273 . S
O24 C23 1.273 . S
O25 Zn16 1.977 . S
O25 C18 1.267 . S
C26 O27 1.160 . S
C26 O33 1.185 . S
O27 C26 1.160 . S
O28 Zn29 1.899 . S
O28 C36 1.284 . S
Zn29 O28 1.899 . S
Zn29 O30 2.032 . S
Zn29 O33 2.086 . S
Zn29 O38 1.977 . S
O30 Zn29 2.032 . S
O30 C34 1.278 1_556 S
C31 O32 1.204 . S
C31 O38 1.267 . S
O32 C31 1.204 . S
O33 C26 1.185 . S
O33 Zn29 2.086 . S
C34 O30 1.278 1_554 S
C34 O35 1.211 . S
O35 C34 1.211 . S
C36 O28 1.284 . S
C36 O37 1.273 1_556 S
O37 C36 1.273 1_554 S
O38 Zn29 1.977 . S
O38 C31 1.267 . S
C39 O40 1.160 . S
C39 O46 1.185 . S
O40 C39 1.160 . S
O41 Zn42 1.899 . S
O41 C49 1.284 . S
Zn42 O41 1.899 . S
Zn42 O43 2.032 . S
Zn42 O46 2.086 . S
Zn42 O51 1.977 . S
O43 Zn42 2.032 . S
O43 C47 1.278 . S
C44 O45 1.203 . S
C44 O51 1.267 . S
O45 C44 1.203 . S
O46 C39 1.185 . S
O46 Zn42 2.086 . S
C47 O43 1.278 . S
C47 O48 1.211 . S
O48 C47 1.211 . S
C49 O41 1.284 . S
C49 O50 1.273 . S
O50 C49 1.273 . S
O51 Zn42 1.977 . S
O51 C44 1.267 . S
C52 O53 1.160 . S
C52 O59 1.185 . S
O53 C52 1.160 . S
O54 Zn55 1.899 . S
O54 C62 1.284 . S
Zn55 O54 1.899 . S
Zn55 O56 2.032 . S
Zn55 O59 2.086 . S
Zn55 O64 1.977 . S
O56 Zn55 2.032 . S
O56 C60 1.278 . S
C57 O58 1.203 . S
C57 O64 1.267 . S
O58 C57 1.203 . S
O59 C52 1.185 . S
O59 Zn55 2.086 . S
C60 O56 1.278 . S
C60 O61 1.211 . S
O61 C60 1.211 . S
C62 O54 1.284 . S
C62 O63 1.273 . S
O63 C62 1.273 . S
O64 Zn55 1.977 . S
O64 C57 1.267 . S
C65 O66 1.160 . S
C65 O72 1.185 . S
O66 C65 1.160 . S
O67 Zn68 1.899 . S
O67 C75 1.284 . S
Zn68 O67 1.899 . S
Zn68 O69 2.032 . S
Zn68 O72 2.086 . S
Zn68 O77 1.977 . S
O69 Zn68 2.032 . S
O69 C73 1.278 1_556 S
C70 O71 1.204 . S
C70 O77 1.267 . S
O71 C70 1.204 . S
O72 C65 1.185 . S
O72 Zn68 2.086 . S
C73 O69 1.278 1_554 S
C73 O74 1.211 . S
O74 C73 1.211 . S
C75 O67 1.284 . S
C75 O76 1.273 1_556 S
O76 C75 1.273 1_554 S
O77 Zn68 1.977 . S
O77 C70 1.267 . S
C78 O79 1.160 . S
C78 O85 1.185 . S
O79 C78 1.160 . S
O80 Zn81 1.899 . S
O80 C88 1.284 . S
Zn81 O80 1.899 . S
Zn81 O82 2.032 . S
Zn81 O85 2.086 . S
Zn81 O90 1.977 . S
O82 Zn81 2.032 . S
O82 C86 1.278 . S
C83 O84 1.203 . S
C83 O90 1.267 . S
O84 C83 1.203 . S
O85 C78 1.185 . S
O85 Zn81 2.086 . S
C86 O82 1.278 . S
C86 O87 1.211 . S
O87 C86 1.211 . S
C88 O80 1.284 . S
C88 O89 1.273 . S
O89 C88 1.273 . S
O90 Zn81 1.977 . S
O90 C83 1.267 . S
C91 O92 1.160 . S
C91 O98 1.185 . S
O92 C91 1.160 . S
O93 Zn94 1.899 . S
O93 C101 1.284 . S
Zn94 O93 1.899 . S
Zn94 O95 2.032 . S
Zn94 O98 2.086 . S
Zn94 O103 1.977 . S
O95 Zn94 2.032 . S
O95 C99 1.278 . S
C96 O97 1.203 . S
C96 O103 1.267 . S
O97 C96 1.203 . S
O98 C91 1.185 . S
O98 Zn94 2.086 . S
C99 O95 1.278 . S
C99 O100 1.211 . S
O100 C99 1.211 . S
C101 O93 1.284 . S
C101 O102 1.273 . S
O102 C101 1.273 . S
O103 Zn94 1.977 . S
O103 C96 1.267 . S
C104 O105 1.160 . S
C104 O111 1.185 . S
O105 C104 1.160 . S
O106 Zn107 1.899 . S
O106 C114 1.284 . S
Zn107 O106 1.899 . S
Zn107 O108 2.032 . S
Zn107 O111 2.086 . S
Zn107 O116 1.977 . S
O108 Zn107 2.032 . S
O108 C112 1.278 1_554 S
C109 O110 1.203 . S
C109 O116 1.267 . S
O110 C109 1.203 . S
O111 C104 1.185 . S
O111 Zn107 2.086 . S
C112 O108 1.278 1_556 S
C112 O113 1.211 . S
O113 C112 1.211 . S
C114 O106 1.284 . S
C114 O115 1.273 1_554 S
O115 C114 1.273 1_556 S
O116 Zn107 1.977 . S
O116 C109 1.267 . S
C117 O118 1.160 . S
C117 O124 1.185 . S
O118 C117 1.160 . S
O119 Zn120 1.899 . S
O119 C127 1.284 . S
Zn120 O119 1.899 . S
Zn120 O121 2.032 . S
Zn120 O124 2.086 . S
Zn120 O129 1.977 . S
O121 Zn120 2.032 . S
O121 C125 1.278 . S
C122 O123 1.203 . S
C122 O129 1.267 . S
O123 C122 1.203 . S
O124 C117 1.185 . S
O124 Zn120 2.086 . S
C125 O121 1.278 . S
C125 O126 1.211 . S
O126 C125 1.211 . S
C127 O119 1.284 . S
C127 O128 1.273 . S
O128 C127 1.273 . S
O129 Zn120 1.977 . S
O129 C122 1.267 . S
C130 O131 1.160 . S
C130 O137 1.185 . S
O131 C130 1.160 . S
O132 Zn133 1.899 . S
O132 C140 1.284 . S
Zn133 O132 1.899 . S
Zn133 O134 2.032 . S
Zn133 O137 2.086 . S
Zn133 O142 1.977 . S
O134 Zn133 2.032 . S
O134 C138 1.278 . S
C135 O136 1.203 . S
C135 O142 1.267 . S
O136 C135 1.203 . S
O137 C130 1.185 . S
O137 Zn133 2.086 . S
C138 O134 1.278 . S
C138 O139 1.211 . S
O139 C138 1.211 . S
C140 O132 1.284 . S
C140 O141 1.273 . S
O141 C140 1.273 . S
O142 Zn133 1.977 . S
O142 C135 1.267 . S
C143 O144 1.160 . S
C143 O150 1.185 . S
O144 C143 1.160 . S
O145 Zn146 1.899 . S
O145 C153 1.284 . S
Zn146 O145 1.899 . S
Zn146 O147 2.032 . S
Zn146 O150 2.086 . S
Zn146 O155 1.977 . S
O147 Zn146 2.032 . S
O147 C151 1.278 1_554 S
C148 O149 1.203 . S
C148 O155 1.267 . S
O149 C148 1.203 . S
O150 C143 1.185 . S
O150 Zn146 2.086 . S
C151 O147 1.278 1_556 S
C151 O152 1.211 . S
O152 C151 1.211 . S
C153 O145 1.284 . S
C153 O154 1.273 1_554 S
O154 C153 1.273 1_556 S
O155 Zn146 1.977 . S
O155 C148 1.267 . S
H156 C162 0.930 . S
H157 C166 0.930 . S
H158 C171 0.929 . S
H159 C169 0.929 . S
H160 C164 0.929 . S
H161 C170 0.929 . S
C162 H156 0.930 . S
C162 C163 1.367 . S
C162 C170 1.378 . S
C163 C162 1.367 . S
C163 C171 1.433 . S
C164 H160 0.929 . S
C164 C166 1.378 . S
C164 C168 1.350 . S
C165 C168 1.463 . S
C165 C170 1.350 . S
C165 N173 1.427 . S
C166 H157 0.930 . S
C166 C164 1.378 . S
C166 C167 1.367 . S
C167 C166 1.367 . S
C167 C169 1.433 . S
C168 C164 1.350 . S
C168 C165 1.463 . S
C168 N172 1.427 . S
C169 H159 0.929 . S
C169 C167 1.433 . S
C169 N172 1.384 . S
C170 H161 0.929 . S
C170 C162 1.378 . S
C170 C165 1.350 . S
C171 H158 0.929 . S
C171 C163 1.433 . S
C171 N173 1.384 . S
N172 C168 1.427 . S
N172 C169 1.384 . S
N173 C165 1.427 . S
N173 C171 1.384 . S
H174 C180 0.930 . S
H175 C184 0.930 . S
H176 C189 0.929 . S
H177 C187 0.929 . S
H178 C182 0.929 . S
H179 C188 0.929 . S
C180 H174 0.930 . S
C180 C181 1.367 . S
C180 C188 1.378 . S
C181 C180 1.367 . S
C181 C189 1.433 . S
C182 H178 0.929 . S
C182 C184 1.378 . S
C182 C186 1.350 . S
C183 C186 1.463 1_655 S
C183 C188 1.350 . S
C183 N191 1.427 . S
C184 H175 0.930 . S
C184 C182 1.378 . S
C184 C185 1.367 . S
C185 C184 1.367 . S
C185 C187 1.433 . S
C186 C182 1.350 . S
C186 C183 1.463 1_455 S
C186 N190 1.427 . S
C187 H177 0.929 . S
C187 C185 1.433 . S
C187 N190 1.384 . S
C188 H179 0.929 . S
C188 C180 1.378 . S
C188 C183 1.350 . S
C189 H176 0.929 . S
C189 C181 1.433 . S
C189 N191 1.384 . S
N190 C186 1.427 . S
N190 C187 1.384 . S
N191 C183 1.427 . S
N191 C189 1.384 . S
H192 C198 0.930 . S
H193 C202 0.930 . S
H194 C207 0.929 . S
H195 C205 0.929 . S
H196 C200 0.929 . S
H197 C206 0.929 . S
C198 H192 0.930 . S
C198 C199 1.367 . S
C198 C206 1.378 . S
C199 C198 1.367 . S
C199 C207 1.433 1_556 S
C200 H196 0.929 . S
C200 C202 1.378 . S
C200 C204 1.350 . S
C201 C204 1.463 1_566 S
C201 C206 1.350 . S
C201 N209 1.427 1_556 S
C202 H193 0.930 . S
C202 C200 1.378 . S
C202 C203 1.367 . S
C203 C202 1.367 . S
C203 C205 1.433 1_554 S
C204 C200 1.350 . S
C204 C201 1.463 1_544 S
C204 N208 1.427 1_554 S
C205 H195 0.929 . S
C205 C203 1.433 1_556 S
C205 N208 1.384 . S
C206 H197 0.929 . S
C206 C198 1.378 . S
C206 C201 1.350 . S
C207 H194 0.929 . S
C207 C199 1.433 1_554 S
C207 N209 1.384 . S
N208 C204 1.427 1_556 S
N208 C205 1.384 . S
N209 C201 1.427 1_554 S
N209 C207 1.384 . S
H210 C216 0.930 . S
H211 C220 0.930 . S
H212 C225 0.929 . S
H213 C223 0.929 . S
H214 C218 0.929 . S
H215 C224 0.929 . S
C216 H210 0.930 . S
C216 C217 1.367 . S
C216 C224 1.378 . S
C217 C216 1.367 . S
C217 C225 1.433 . S
C218 H214 0.929 . S
C218 C220 1.378 . S
C218 C222 1.350 . S
C219 C222 1.463 . S
C219 C224 1.350 . S
C219 N227 1.427 . S
C220 H211 0.930 . S
C220 C218 1.378 . S
C220 C221 1.367 . S
C221 C220 1.367 . S
C221 C223 1.433 . S
C222 C218 1.350 . S
C222 C219 1.463 . S
C222 N226 1.427 . S
C223 H213 0.929 . S
C223 C221 1.433 . S
C223 N226 1.384 . S
C224 H215 0.929 . S
C224 C216 1.378 . S
C224 C219 1.350 . S
C225 H212 0.929 . S
C225 C217 1.433 . S
C225 N227 1.384 . S
N226 C222 1.427 . S
N226 C223 1.384 . S
N227 C219 1.427 . S
N227 C225 1.384 . S
H228 C234 0.930 . S
H229 C238 0.930 . S
H230 C243 0.929 . S
H231 C241 0.929 . S
H232 C236 0.929 . S
H233 C242 0.929 . S
C234 H228 0.930 . S
C234 C235 1.367 . S
C234 C242 1.378 . S
C235 C234 1.367 . S
C235 C243 1.433 . S
C236 H232 0.929 . S
C236 C238 1.378 . S
C236 C240 1.350 . S
C237 C240 1.463 1_655 S
C237 C242 1.350 . S
C237 N245 1.427 . S
C238 H229 0.930 . S
C238 C236 1.378 . S
C238 C239 1.367 . S
C239 C238 1.367 . S
C239 C241 1.433 . S
C240 C236 1.350 . S
C240 C237 1.463 1_455 S
C240 N244 1.427 . S
C241 H231 0.929 . S
C241 C239 1.433 . S
C241 N244 1.384 . S
C242 H233 0.929 . S
C242 C234 1.378 . S
C242 C237 1.350 . S
C243 H230 0.929 . S
C243 C235 1.433 . S
C243 N245 1.384 . S
N244 C240 1.427 . S
N244 C241 1.384 . S
N245 C237 1.427 . S
N245 C243 1.384 . S
H246 C252 0.930 . S
H247 C256 0.930 . S
H248 C261 0.929 . S
H249 C259 0.929 . S
H250 C254 0.929 . S
H251 C260 0.929 . S
C252 H246 0.930 . S
C252 C253 1.367 . S
C252 C260 1.378 . S
C253 C252 1.367 . S
C253 C261 1.433 1_554 S
C254 H250 0.929 . S
C254 C256 1.378 . S
C254 C258 1.350 . S
C255 C258 1.463 1_564 S
C255 C260 1.350 . S
C255 N263 1.427 1_554 S
C256 H247 0.930 . S
C256 C254 1.378 . S
C256 C257 1.367 . S
C257 C256 1.367 . S
C257 C259 1.433 1_556 S
C258 C254 1.350 . S
C258 C255 1.463 1_546 S
C258 N262 1.427 1_556 S
C259 H249 0.929 . S
C259 C257 1.433 1_554 S
C259 N262 1.384 . S
C260 H251 0.929 . S
C260 C252 1.378 . S
C260 C255 1.350 . S
C261 H248 0.929 . S
C261 C253 1.433 1_556 S
C261 N263 1.384 . S
N262 C258 1.427 1_554 S
N262 C259 1.384 . S
N263 C255 1.427 1_556 S
N263 C261 1.384 . S
H264 C270 0.930 . S
H265 C274 0.930 . S
H266 C279 0.929 . S
H267 C277 0.929 . S
H268 C272 0.929 . S
H269 C278 0.929 . S
C270 H264 0.930 . S
C270 C271 1.367 . S
C270 C278 1.378 . S
C271 C270 1.367 . S
C271 C279 1.433 . S
C272 H268 0.929 . S
C272 C274 1.378 . S
C272 C276 1.350 . S
C273 C276 1.463 1_556 S
C273 C278 1.350 . S
C273 N281 1.427 . S
C274 H265 0.930 . S
C274 C272 1.378 . S
C274 C275 1.367 . S
C275 C274 1.367 . S
C275 C277 1.433 . S
C276 C272 1.350 . S
C276 C273 1.463 1_554 S
C276 N280 1.427 . S
C277 H267 0.929 . S
C277 C275 1.433 . S
C277 N280 1.384 . S
C278 H269 0.929 . S
C278 C270 1.378 . S
C278 C273 1.350 . S
C279 H266 0.929 . S
C279 C271 1.433 . S
C279 N281 1.384 . S
N280 C276 1.427 . S
N280 C277 1.384 . S
N281 C273 1.427 . S
N281 C279 1.384 . S
H282 C288 0.930 . S
H283 C292 0.930 . S
H284 C297 0.929 . S
H285 C295 0.929 . S
H286 C290 0.929 . S
H287 C296 0.929 . S
C288 H282 0.930 . S
C288 C289 1.367 . S
C288 C296 1.378 . S
C289 C288 1.367 . S
C289 C297 1.433 . S
C290 H286 0.929 . S
C290 C292 1.378 . S
C290 C294 1.350 . S
C291 C294 1.463 . S
C291 C296 1.350 . S
C291 N299 1.427 . S
C292 H283 0.930 . S
C292 C290 1.378 . S
C292 C293 1.367 . S
C293 C292 1.367 . S
C293 C295 1.433 . S
C294 C290 1.350 . S
C294 C291 1.463 . S
C294 N298 1.427 . S
C295 H285 0.929 . S
C295 C293 1.433 . S
C295 N298 1.384 . S
C296 H287 0.929 . S
C296 C288 1.378 . S
C296 C291 1.350 . S
C297 H284 0.929 . S
C297 C289 1.433 . S
C297 N299 1.384 . S
N298 C294 1.427 . S
N298 C295 1.384 . S
N299 C291 1.427 . S
N299 C297 1.384 . S
H300 C306 0.930 . S
H301 C310 0.930 . S
H302 C315 0.929 . S
H303 C313 0.929 . S
H304 C308 0.929 . S
H305 C314 0.929 . S
C306 H300 0.930 . S
C306 C307 1.367 . S
C306 C314 1.378 . S
C307 C306 1.367 . S
C307 C315 1.433 . S
C308 H304 0.929 . S
C308 C310 1.378 . S
C308 C312 1.350 . S
C309 C312 1.463 . S
C309 C314 1.350 . S
C309 N317 1.427 . S
C310 H301 0.930 . S
C310 C308 1.378 . S
C310 C311 1.367 . S
C311 C310 1.367 . S
C311 C313 1.433 . S
C312 C308 1.350 . S
C312 C309 1.463 . S
C312 N316 1.427 . S
C313 H303 0.929 . S
C313 C311 1.433 . S
C313 N316 1.384 . S
C314 H305 0.929 . S
C314 C306 1.378 . S
C314 C309 1.350 . S
C315 H302 0.929 . S
C315 C307 1.433 . S
C315 N317 1.384 . S
N316 C312 1.427 . S
N316 C313 1.384 . S
N317 C309 1.427 . S
N317 C315 1.384 . S
H318 C324 0.930 . S
H319 C328 0.930 . S
H320 C333 0.929 . S
H321 C331 0.929 . S
H322 C326 0.929 . S
H323 C332 0.929 . S
C324 H318 0.930 . S
C324 C325 1.367 . S
C324 C332 1.378 . S
C325 C324 1.367 . S
C325 C333 1.433 . S
C326 H322 0.929 . S
C326 C328 1.378 . S
C326 C330 1.350 . S
C327 C330 1.463 1_554 S
C327 C332 1.350 . S
C327 N335 1.427 . S
C328 H319 0.930 . S
C328 C326 1.378 . S
C328 C329 1.367 . S
C329 C328 1.367 . S
C329 C331 1.433 . S
C330 C326 1.350 . S
C330 C327 1.463 1_556 S
C330 N334 1.427 . S
C331 H321 0.929 . S
C331 C329 1.433 . S
C331 N334 1.384 . S
C332 H323 0.929 . S
C332 C324 1.378 . S
C332 C327 1.350 . S
C333 H320 0.929 . S
C333 C325 1.433 . S
C333 N335 1.384 . S
N334 C330 1.427 . S
N334 C331 1.384 . S
N335 C327 1.427 . S
N335 C333 1.384 . S
H336 C342 0.930 . S
H337 C346 0.930 . S
H338 C351 0.929 . S
H339 C349 0.929 . S
H340 C344 0.929 . S
H341 C350 0.929 . S
C342 H336 0.930 . S
C342 C343 1.367 . S
C342 C350 1.378 . S
C343 C342 1.367 . S
C343 C351 1.433 . S
C344 H340 0.929 . S
C344 C346 1.378 . S
C344 C348 1.350 . S
C345 C348 1.463 . S
C345 C350 1.350 . S
C345 N353 1.427 . S
C346 H337 0.930 . S
C346 C344 1.378 . S
C346 C347 1.367 . S
C347 C346 1.367 . S
C347 C349 1.433 . S
C348 C344 1.350 . S
C348 C345 1.463 . S
C348 N352 1.427 . S
C349 H339 0.929 . S
C349 C347 1.433 . S
C349 N352 1.384 . S
C350 H341 0.929 . S
C350 C342 1.378 . S
C350 C345 1.350 . S
C351 H338 0.929 . S
C351 C343 1.433 . S
C351 N353 1.384 . S
N352 C348 1.427 . S
N352 C349 1.384 . S
N353 C345 1.427 . S
N353 C351 1.384 . S
H354 C360 0.930 . S
H355 C364 0.930 . S
H356 C369 0.929 . S
H357 C367 0.929 . S
H358 C362 0.929 . S
H359 C368 0.929 . S
C360 H354 0.930 . S
C360 C361 1.367 . S
C360 C368 1.378 . S
C361 C360 1.367 . S
C361 C369 1.433 . S
C362 H358 0.929 . S
C362 C364 1.378 . S
C362 C366 1.350 . S
C363 C366 1.463 . S
C363 C368 1.350 . S
C363 N371 1.427 . S
C364 H355 0.930 . S
C364 C362 1.378 . S
C364 C365 1.367 . S
C365 C364 1.367 . S
C365 C367 1.433 . S
C366 C362 1.350 . S
C366 C363 1.463 . S
C366 N370 1.427 . S
C367 H357 0.929 . S
C367 C365 1.433 . S
C367 N370 1.384 . S
C368 H359 0.929 . S
C368 C360 1.378 . S
C368 C363 1.350 . S
C369 H356 0.929 . S
C369 C361 1.433 . S
C369 N371 1.384 . S
N370 C366 1.427 . S
N370 C367 1.384 . S
N371 C363 1.427 . S
N371 C369 1.384 . S
H372 C378 0.930 . S
H373 C382 0.930 . S
H374 C387 0.929 . S
H375 C385 0.929 . S
H376 C380 0.929 . S
H377 C386 0.929 . S
C378 H372 0.930 . S
C378 C379 1.367 . S
C378 C386 1.378 . S
C379 C378 1.367 . S
C379 C387 1.433 . S
C380 H376 0.929 . S
C380 C382 1.378 . S
C380 C384 1.350 . S
C381 C384 1.463 . S
C381 C386 1.350 . S
C381 N389 1.427 . S
C382 H373 0.930 . S
C382 C380 1.378 . S
C382 C383 1.367 . S
C383 C382 1.367 . S
C383 C385 1.433 . S
C384 C380 1.350 . S
C384 C381 1.463 . S
C384 N388 1.427 . S
C385 H375 0.929 . S
C385 C383 1.433 . S
C385 N388 1.384 . S
C386 H377 0.929 . S
C386 C378 1.378 . S
C386 C381 1.350 . S
C387 H374 0.929 . S
C387 C379 1.433 . S
C387 N389 1.384 . S
N388 C384 1.427 . S
N388 C385 1.384 . S
N389 C381 1.427 . S
N389 C387 1.384 . S
H390 C396 0.930 . S
H391 C400 0.930 . S
H392 C405 0.929 . S
H393 C403 0.929 . S
H394 C398 0.929 . S
H395 C404 0.929 . S
C396 H390 0.930 . S
C396 C397 1.367 . S
C396 C404 1.378 . S
C397 C396 1.367 . S
C397 C405 1.433 . S
C398 H394 0.929 . S
C398 C400 1.378 . S
C398 C402 1.350 . S
C399 C402 1.463 . S
C399 C404 1.350 . S
C399 N407 1.427 . S
C400 H391 0.930 . S
C400 C398 1.378 . S
C400 C401 1.367 . S
C401 C400 1.367 . S
C401 C403 1.433 . S
C402 C398 1.350 . S
C402 C399 1.463 . S
C402 N406 1.427 . S
C403 H393 0.929 . S
C403 C401 1.433 . S
C403 N406 1.384 . S
C404 H395 0.929 . S
C404 C396 1.378 . S
C404 C399 1.350 . S
C405 H392 0.929 . S
C405 C397 1.433 . S
C405 N407 1.384 . S
N406 C402 1.427 . S
N406 C403 1.384 . S
N407 C399 1.427 . S
N407 C405 1.384 . S
H408 C414 0.930 . S
H409 C418 0.930 . S
H410 C423 0.929 . S
H411 C421 0.929 . S
H412 C416 0.929 . S
H413 C422 0.929 . S
C414 H408 0.930 . S
C414 C415 1.367 . S
C414 C422 1.378 . S
C415 C414 1.367 . S
C415 C423 1.433 . S
C416 H412 0.929 . S
C416 C418 1.378 . S
C416 C420 1.350 . S
C417 C420 1.463 . S
C417 C422 1.350 . S
C417 N425 1.427 . S
C418 H409 0.930 . S
C418 C416 1.378 . S
C418 C419 1.367 . S
C419 C418 1.367 . S
C419 C421 1.433 . S
C420 C416 1.350 . S
C420 C417 1.463 . S
C420 N424 1.427 . S
C421 H411 0.929 . S
C421 C419 1.433 . S
C421 N424 1.384 . S
C422 H413 0.929 . S
C422 C414 1.378 . S
C422 C417 1.350 . S
C423 H410 0.929 . S
C423 C415 1.433 . S
C423 N425 1.384 . S
N424 C420 1.427 . S
N424 C421 1.384 . S
N425 C417 1.427 . S
N425 C423 1.384 . S
H426 C432 0.930 . S
H427 C436 0.930 . S
H428 C441 0.929 . S
H429 C439 0.929 . S
H430 C434 0.929 . S
H431 C440 0.929 . S
C432 H426 0.930 . S
C432 C433 1.367 . S
C432 C440 1.378 . S
C433 C432 1.367 . S
C433 C441 1.433 . S
C434 H430 0.929 . S
C434 C436 1.378 . S
C434 C438 1.350 . S
C435 C438 1.463 . S
C435 C440 1.350 . S
C435 N443 1.427 . S
C436 H427 0.930 . S
C436 C434 1.378 . S
C436 C437 1.367 . S
C437 C436 1.367 . S
C437 C439 1.433 . S
C438 C434 1.350 . S
C438 C435 1.463 . S
C438 N442 1.427 . S
C439 H429 0.929 . S
C439 C437 1.433 . S
C439 N442 1.384 . S
C440 H431 0.929 . S
C440 C432 1.378 . S
C440 C435 1.350 . S
C441 H428 0.929 . S
C441 C433 1.433 . S
C441 N443 1.384 . S
N442 C438 1.427 . S
N442 C439 1.384 . S
N443 C435 1.427 . S
N443 C441 1.384 . S
H444 C450 0.930 . S
H445 C454 0.930 . S
H446 C459 0.929 . S
H447 C457 0.929 . S
H448 C452 0.929 . S
H449 C458 0.929 . S
C450 H444 0.930 . S
C450 C451 1.367 . S
C450 C458 1.378 . S
C451 C450 1.367 . S
C451 C459 1.433 . S
C452 H448 0.929 . S
C452 C454 1.378 . S
C452 C456 1.350 . S
C453 C456 1.463 . S
C453 C458 1.350 . S
C453 N461 1.427 . S
C454 H445 0.930 . S
C454 C452 1.378 . S
C454 C455 1.367 . S
C455 C454 1.367 . S
C455 C457 1.433 . S
C456 C452 1.350 . S
C456 C453 1.463 . S
C456 N460 1.427 . S
C457 H447 0.929 . S
C457 C455 1.433 . S
C457 N460 1.384 . S
C458 H449 0.929 . S
C458 C450 1.378 . S
C458 C453 1.350 . S
C459 H446 0.929 . S
C459 C451 1.433 . S
C459 N461 1.384 . S
N460 C456 1.427 . S
N460 C457 1.384 . S
N461 C453 1.427 . S
N461 C459 1.384 . S
H462 C468 0.930 . S
H463 C472 0.930 . S
H464 C477 0.929 . S
H465 C475 0.929 . S
H466 C470 0.929 . S
H467 C476 0.929 . S
C468 H462 0.930 . S
C468 C469 1.367 . S
C468 C476 1.378 . S
C469 C468 1.367 . S
C469 C477 1.433 . S
C470 H466 0.929 . S
C470 C472 1.378 . S
C470 C474 1.350 . S
C471 C474 1.463 . S
C471 C476 1.350 . S
C471 N479 1.427 . S
C472 H463 0.930 . S
C472 C470 1.378 . S
C472 C473 1.367 . S
C473 C472 1.367 . S
C473 C475 1.433 . S
C474 C470 1.350 . S
C474 C471 1.463 . S
C474 N478 1.427 . S
C475 H465 0.929 . S
C475 C473 1.433 . S
C475 N478 1.384 . S
C476 H467 0.929 . S
C476 C468 1.378 . S
C476 C471 1.350 . S
C477 H464 0.929 . S
C477 C469 1.433 . S
C477 N479 1.384 . S
N478 C474 1.427 . S
N478 C475 1.384 . S
N479 C471 1.427 . S
N479 C477 1.384 . S
H480 C486 0.930 . S
H481 C490 0.930 . S
H482 C495 0.929 . S
H483 C493 0.929 . S
H484 C488 0.929 . S
H485 C494 0.929 . S
C486 H480 0.930 . S
C486 C487 1.367 . S
C486 C494 1.378 . S
C487 C486 1.367 . S
C487 C495 1.433 . S
C488 H484 0.929 . S
C488 C490 1.378 . S
C488 C492 1.350 . S
C489 C492 1.463 . S
C489 C494 1.350 . S
C489 N497 1.427 . S
C490 H481 0.930 . S
C490 C488 1.378 . S
C490 C491 1.367 . S
C491 C490 1.367 . S
C491 C493 1.433 . S
C492 C488 1.350 . S
C492 C489 1.463 . S
C492 N496 1.427 . S
C493 H483 0.929 . S
C493 C491 1.433 . S
C493 N496 1.384 . S
C494 H485 0.929 . S
C494 C486 1.378 . S
C494 C489 1.350 . S
C495 H482 0.929 . S
C495 C487 1.433 . S
C495 N497 1.384 . S
N496 C492 1.427 . S
N496 C493 1.384 . S
N497 C489 1.427 . S
N497 C495 1.384 . S
H498 C504 0.930 . S
H499 C508 0.930 . S
H500 C513 0.929 . S
H501 C511 0.929 . S
H502 C506 0.929 . S
H503 C512 0.929 . S
C504 H498 0.930 . S
C504 C505 1.367 . S
C504 C512 1.378 . S
C505 C504 1.367 . S
C505 C513 1.433 . S
C506 H502 0.929 . S
C506 C508 1.378 . S
C506 C510 1.350 . S
C507 C510 1.463 . S
C507 C512 1.350 . S
C507 N515 1.427 . S
C508 H499 0.930 . S
C508 C506 1.378 . S
C508 C509 1.367 . S
C509 C508 1.367 . S
C509 C511 1.433 . S
C510 C506 1.350 . S
C510 C507 1.463 . S
C510 N514 1.427 . S
C511 H501 0.929 . S
C511 C509 1.433 . S
C511 N514 1.384 . S
C512 H503 0.929 . S
C512 C504 1.378 . S
C512 C507 1.350 . S
C513 H500 0.929 . S
C513 C505 1.433 . S
C513 N515 1.384 . S
N514 C510 1.427 . S
N514 C511 1.384 . S
N515 C507 1.427 . S
N515 C513 1.384 . S
H516 C522 0.930 1_554 S
H517 C526 0.930 1_556 S
H518 C531 0.929 . S
H519 C529 0.929 . S
H520 C524 0.929 . S
H521 C530 0.929 . S
C522 H516 0.930 1_556 S
C522 C523 1.367 . S
C522 C530 1.378 1_556 S
C523 C522 1.367 . S
C523 C531 1.433 . S
C524 H520 0.929 . S
C524 C526 1.378 1_556 S
C524 C528 1.350 1_556 S
C525 C528 1.463 1_556 S
C525 C530 1.350 1_556 S
C525 N533 1.427 . S
C526 H517 0.930 1_554 S
C526 C524 1.378 1_554 S
C526 C527 1.367 . S
C527 C526 1.367 . S
C527 C529 1.433 . S
C528 C524 1.350 1_554 S
C528 C525 1.463 1_554 S
C528 N532 1.427 . S
C529 H519 0.929 . S
C529 C527 1.433 . S
C529 N532 1.384 . S
C530 H521 0.929 . S
C530 C522 1.378 1_554 S
C530 C525 1.350 1_554 S
C531 H518 0.929 . S
C531 C523 1.433 . S
C531 N533 1.384 . S
N532 C528 1.427 . S
N532 C529 1.384 . S
N533 C525 1.427 . S
N533 C531 1.384 . S
H534 C540 0.930 . S
H535 C544 0.930 . S
H536 C549 0.929 . S
H537 C547 0.929 . S
H538 C542 0.929 . S
H539 C548 0.929 . S
C540 H534 0.930 . S
C540 C541 1.367 . S
C540 C548 1.378 . S
C541 C540 1.367 . S
C541 C549 1.433 . S
C542 H538 0.929 . S
C542 C544 1.378 . S
C542 C546 1.350 . S
C543 C546 1.463 . S
C543 C548 1.350 . S
C543 N551 1.427 . S
C544 H535 0.930 . S
C544 C542 1.378 . S
C544 C545 1.367 . S
C545 C544 1.367 . S
C545 C547 1.433 . S
C546 C542 1.350 . S
C546 C543 1.463 . S
C546 N550 1.427 . S
C547 H537 0.929 . S
C547 C545 1.433 . S
C547 N550 1.384 . S
C548 H539 0.929 . S
C548 C540 1.378 . S
C548 C543 1.350 . S
C549 H536 0.929 . S
C549 C541 1.433 . S
C549 N551 1.384 . S
N550 C546 1.427 . S
N550 C547 1.384 . S
N551 C543 1.427 . S
N551 C549 1.384 . S
H552 C558 0.930 . S
H553 C562 0.930 . S
H554 C567 0.929 . S
H555 C565 0.929 . S
H556 C560 0.929 . S
H557 C566 0.929 . S
C558 H552 0.930 . S
C558 C559 1.367 . S
C558 C566 1.378 . S
C559 C558 1.367 . S
C559 C567 1.433 . S
C560 H556 0.929 . S
C560 C562 1.378 . S
C560 C564 1.350 . S
C561 C564 1.463 . S
C561 C566 1.350 . S
C561 N569 1.427 . S
C562 H553 0.930 . S
C562 C560 1.378 . S
C562 C563 1.367 . S
C563 C562 1.367 . S
C563 C565 1.433 . S
C564 C560 1.350 . S
C564 C561 1.463 . S
C564 N568 1.427 . S
C565 H555 0.929 . S
C565 C563 1.433 . S
C565 N568 1.384 . S
C566 H557 0.929 . S
C566 C558 1.378 . S
C566 C561 1.350 . S
C567 H554 0.929 . S
C567 C559 1.433 . S
C567 N569 1.384 . S
N568 C564 1.427 . S
N568 C565 1.384 . S
N569 C561 1.427 . S
N569 C567 1.384 . S
H570 C576 0.930 . S
H571 C580 0.930 . S
H572 C585 0.929 . S
H573 C583 0.929 . S
H574 C578 0.929 . S
H575 C584 0.929 . S
C576 H570 0.930 . S
C576 C577 1.367 1_556 S
C576 C584 1.378 . S
C577 C576 1.367 1_554 S
C577 C585 1.433 . S
C578 H574 0.929 . S
C578 C580 1.378 . S
C578 C582 1.350 1_554 S
C579 C582 1.463 1_554 S
C579 C584 1.350 1_554 S
C579 N587 1.427 . S
C580 H571 0.930 . S
C580 C578 1.378 . S
C580 C581 1.367 1_554 S
C581 C580 1.367 1_556 S
C581 C583 1.433 . S
C582 C578 1.350 1_556 S
C582 C579 1.463 1_556 S
C582 N586 1.427 . S
C583 H573 0.929 . S
C583 C581 1.433 . S
C583 N586 1.384 . S
C584 H575 0.929 . S
C584 C576 1.378 . S
C584 C579 1.350 1_556 S
C585 H572 0.929 . S
C585 C577 1.433 . S
C585 N587 1.384 . S
N586 C582 1.427 . S
N586 C583 1.384 . S
N587 C579 1.427 . S
N587 C585 1.384 . S
C163 C5 1.298 . S
C167 C122 1.311 . S
C181 C18 1.302 . S
C185 C135 1.314 . S
C199 C31 1.303 . S
C203 C148 1.314 . S
C217 C44 1.308 . S
C221 C83 1.298 . S
C235 C96 1.303 . S
C239 C57 1.301 . S
C253 C109 1.307 . S
C257 C70 1.313 . S
C271 C130 1.609 . S
C275 C0 1.618 . S
C289 C13 1.618 . S
C293 C143 1.608 . S
C307 C26 1.617 . S
C311 C78 1.608 . S
C325 C39 1.615 . S
C329 C91 1.614 . S
C343 C52 1.608 . S
C347 C104 1.618 . S
C361 C65 1.617 . S
C365 C117 1.608 . S
C379 C138 0.930 . S
C383 C8 0.927 . S
C397 C21 0.921 . S
C401 C151 0.917 . S
C415 C34 0.918 . S
C419 C86 0.922 . S
C433 C47 0.916 . S
C437 C99 0.915 . S
C451 C60 0.925 . S
C455 C112 0.920 . S
C469 C73 0.921 . S
C473 C125 0.918 . S
C487 C10 1.555 . S
C491 C88 1.554 . S
C505 C101 1.558 . S
C509 C23 1.560 . S
C523 C36 1.554 . S
C527 C114 1.556 . S
C541 C49 1.559 . S
C545 C127 1.557 . S
C559 C62 1.553 . S
C563 C140 1.553 . S
C577 C153 1.555 . S
C581 C75 1.553 . S
