# Generated by pormake.
# Topology lcy-a-x, (5)-cn, num edge types: 1
# Building blocks:
#     Node 0, Type 0, BuildingBlock: XOMCOT_clean_sbu_1, # of connection points: 5
#     Node 1, Type 0, BuildingBlock: XOMCOT_clean_sbu_1, # of connection points: 5
#     Node 2, Type 0, BuildingBlock: XOMCOT_clean_sbu_1, # of connection points: 5
#     Node 3, Type 0, BuildingBlock: XOMCOT_clean_sbu_1, # of connection points: 5
#     Node 4, Type 0, BuildingBlock: XOMCOT_clean_sbu_1, # of connection points: 5
#     Node 5, Type 0, BuildingBlock: XOMCOT_clean_sbu_1, # of connection points: 5
#     Node 6, Type 0, BuildingBlock: XOMCOT_clean_sbu_1, # of connection points: 5
#     Node 7, Type 0, BuildingBlock: XOMCOT_clean_sbu_1, # of connection points: 5
#     Node 8, Type 0, BuildingBlock: XOMCOT_clean_sbu_1, # of connection points: 5
#     Node 9, Type 0, BuildingBlock: XOMCOT_clean_sbu_1, # of connection points: 5
#     Node 10, Type 0, BuildingBlock: XOMCOT_clean_sbu_1, # of connection points: 5
#     Node 11, Type 0, BuildingBlock: XOMCOT_clean_sbu_1, # of connection points: 5
#     Node 12, Type 0, BuildingBlock: XOMCOT_clean_sbu_1, # of connection points: 5
#     Node 13, Type 0, BuildingBlock: XOMCOT_clean_sbu_1, # of connection points: 5
#     Node 14, Type 0, BuildingBlock: XOMCOT_clean_sbu_1, # of connection points: 5
#     Node 15, Type 0, BuildingBlock: XOMCOT_clean_sbu_1, # of connection points: 5
#     Node 16, Type 0, BuildingBlock: XOMCOT_clean_sbu_1, # of connection points: 5
#     Node 17, Type 0, BuildingBlock: XOMCOT_clean_sbu_1, # of connection points: 5
#     Node 18, Type 0, BuildingBlock: XOMCOT_clean_sbu_1, # of connection points: 5
#     Node 19, Type 0, BuildingBlock: XOMCOT_clean_sbu_1, # of connection points: 5
#     Node 20, Type 0, BuildingBlock: XOMCOT_clean_sbu_1, # of connection points: 5
#     Node 21, Type 0, BuildingBlock: XOMCOT_clean_sbu_1, # of connection points: 5
#     Node 22, Type 0, BuildingBlock: XOMCOT_clean_sbu_1, # of connection points: 5
#     Node 23, Type 0, BuildingBlock: XOMCOT_clean_sbu_1, # of connection points: 5
#     Edge 24, Type (0, 0), BuildingBlock: ZUJKAS_clean_linker_0, # of connection points: 2
#     Edge 25, Type (0, 0), BuildingBlock: ZUJKAS_clean_linker_0, # of connection points: 2
#     Edge 26, Type (0, 0), BuildingBlock: ZUJKAS_clean_linker_0, # of connection points: 2
#     Edge 27, Type (0, 0), BuildingBlock: ZUJKAS_clean_linker_0, # of connection points: 2
#     Edge 28, Type (0, 0), BuildingBlock: ZUJKAS_clean_linker_0, # of connection points: 2
#     Edge 29, Type (0, 0), BuildingBlock: ZUJKAS_clean_linker_0, # of connection points: 2
#     Edge 30, Type (0, 0), BuildingBlock: ZUJKAS_clean_linker_0, # of connection points: 2
#     Edge 31, Type (0, 0), BuildingBlock: ZUJKAS_clean_linker_0, # of connection points: 2
#     Edge 32, Type (0, 0), BuildingBlock: ZUJKAS_clean_linker_0, # of connection points: 2
#     Edge 33, Type (0, 0), BuildingBlock: ZUJKAS_clean_linker_0, # of connection points: 2
#     Edge 34, Type (0, 0), BuildingBlock: ZUJKAS_clean_linker_0, # of connection points: 2
#     Edge 35, Type (0, 0), BuildingBlock: ZUJKAS_clean_linker_0, # of connection points: 2
#     Edge 36, Type (0, 0), BuildingBlock: ZUJKAS_clean_linker_0, # of connection points: 2
#     Edge 37, Type (0, 0), BuildingBlock: ZUJKAS_clean_linker_0, # of connection points: 2
#     Edge 38, Type (0, 0), BuildingBlock: ZUJKAS_clean_linker_0, # of connection points: 2
#     Edge 39, Type (0, 0), BuildingBlock: ZUJKAS_clean_linker_0, # of connection points: 2
#     Edge 40, Type (0, 0), BuildingBlock: ZUJKAS_clean_linker_0, # of connection points: 2
#     Edge 41, Type (0, 0), BuildingBlock: ZUJKAS_clean_linker_0, # of connection points: 2
#     Edge 42, Type (0, 0), BuildingBlock: ZUJKAS_clean_linker_0, # of connection points: 2
#     Edge 43, Type (0, 0), BuildingBlock: ZUJKAS_clean_linker_0, # of connection points: 2
#     Edge 44, Type (0, 0), BuildingBlock: ZUJKAS_clean_linker_0, # of connection points: 2
#     Edge 45, Type (0, 0), BuildingBlock: ZUJKAS_clean_linker_0, # of connection points: 2
#     Edge 46, Type (0, 0), BuildingBlock: ZUJKAS_clean_linker_0, # of connection points: 2
#     Edge 47, Type (0, 0), BuildingBlock: ZUJKAS_clean_linker_0, # of connection points: 2
#     Edge 48, Type (0, 0), BuildingBlock: ZUJKAS_clean_linker_0, # of connection points: 2
#     Edge 49, Type (0, 0), BuildingBlock: ZUJKAS_clean_linker_0, # of connection points: 2
#     Edge 50, Type (0, 0), BuildingBlock: ZUJKAS_clean_linker_0, # of connection points: 2
#     Edge 51, Type (0, 0), BuildingBlock: ZUJKAS_clean_linker_0, # of connection points: 2
#     Edge 52, Type (0, 0), BuildingBlock: ZUJKAS_clean_linker_0, # of connection points: 2
#     Edge 53, Type (0, 0), BuildingBlock: ZUJKAS_clean_linker_0, # of connection points: 2
#     Edge 54, Type (0, 0), BuildingBlock: ZUJKAS_clean_linker_0, # of connection points: 2
#     Edge 55, Type (0, 0), BuildingBlock: ZUJKAS_clean_linker_0, # of connection points: 2
#     Edge 56, Type (0, 0), BuildingBlock: ZUJKAS_clean_linker_0, # of connection points: 2
#     Edge 57, Type (0, 0), BuildingBlock: ZUJKAS_clean_linker_0, # of connection points: 2
#     Edge 58, Type (0, 0), BuildingBlock: ZUJKAS_clean_linker_0, # of connection points: 2
#     Edge 59, Type (0, 0), BuildingBlock: ZUJKAS_clean_linker_0, # of connection points: 2
#     Edge 60, Type (0, 0), BuildingBlock: ZUJKAS_clean_linker_0, # of connection points: 2
#     Edge 61, Type (0, 0), BuildingBlock: ZUJKAS_clean_linker_0, # of connection points: 2
#     Edge 62, Type (0, 0), BuildingBlock: ZUJKAS_clean_linker_0, # of connection points: 2
#     Edge 63, Type (0, 0), BuildingBlock: ZUJKAS_clean_linker_0, # of connection points: 2
#     Edge 64, Type (0, 0), BuildingBlock: ZUJKAS_clean_linker_0, # of connection points: 2
#     Edge 65, Type (0, 0), BuildingBlock: ZUJKAS_clean_linker_0, # of connection points: 2
#     Edge 66, Type (0, 0), BuildingBlock: ZUJKAS_clean_linker_0, # of connection points: 2
#     Edge 67, Type (0, 0), BuildingBlock: ZUJKAS_clean_linker_0, # of connection points: 2
#     Edge 68, Type (0, 0), BuildingBlock: ZUJKAS_clean_linker_0, # of connection points: 2
#     Edge 69, Type (0, 0), BuildingBlock: ZUJKAS_clean_linker_0, # of connection points: 2
#     Edge 70, Type (0, 0), BuildingBlock: ZUJKAS_clean_linker_0, # of connection points: 2
#     Edge 71, Type (0, 0), BuildingBlock: ZUJKAS_clean_linker_0, # of connection points: 2
#     Edge 72, Type (0, 0), BuildingBlock: ZUJKAS_clean_linker_0, # of connection points: 2
#     Edge 73, Type (0, 0), BuildingBlock: ZUJKAS_clean_linker_0, # of connection points: 2
#     Edge 74, Type (0, 0), BuildingBlock: ZUJKAS_clean_linker_0, # of connection points: 2
#     Edge 75, Type (0, 0), BuildingBlock: ZUJKAS_clean_linker_0, # of connection points: 2
#     Edge 76, Type (0, 0), BuildingBlock: ZUJKAS_clean_linker_0, # of connection points: 2
#     Edge 77, Type (0, 0), BuildingBlock: ZUJKAS_clean_linker_0, # of connection points: 2
#     Edge 78, Type (0, 0), BuildingBlock: ZUJKAS_clean_linker_0, # of connection points: 2
#     Edge 79, Type (0, 0), BuildingBlock: ZUJKAS_clean_linker_0, # of connection points: 2
#     Edge 80, Type (0, 0), BuildingBlock: ZUJKAS_clean_linker_0, # of connection points: 2
#     Edge 81, Type (0, 0), BuildingBlock: ZUJKAS_clean_linker_0, # of connection points: 2
#     Edge 82, Type (0, 0), BuildingBlock: ZUJKAS_clean_linker_0, # of connection points: 2
#     Edge 83, Type (0, 0), BuildingBlock: ZUJKAS_clean_linker_0, # of connection points: 2
# Relax obj value: 0.869
# Max RMSD: 0.219
# Mean RMSD: 0.219
data_MOF--net-lcy-a-x--node1-XOMCOT_clean_sbu_1--edge1-ZUJKAS_clean_linker_0
_symmetry_space_group_name_H-M    P1
_symmetry_Int_Tables_number       1
_symmetry_cell_setting            triclinic
loop_
_symmetry_equiv_pos_as_xyz
'x, y, z'
_cell_length_a     72.750689
_cell_length_b     72.743957
_cell_length_c     72.741745
_cell_angle_alpha  89.998123
_cell_angle_beta   90.014885
_cell_angle_gamma 90.000455
loop_
_atom_site_label
_atom_site_type_symbol
_atom_site_fract_x
_atom_site_fract_y
_atom_site_fract_z
_atom_type_partial_charge
C0 C 0.03471 0.01425 0.78954 0.0
C1 C 0.01755 0.00911 0.79583 0.0
N2 N 0.00502 0.01337 0.78283 0.0
N3 N 0.03294 0.02163 0.77265 0.0
C4 C 0.01479 0.02089 0.76898 0.0
H5 H 0.04751 0.01337 0.79706 0.0
Co6 Co 0.05008 0.0341 0.75842 0.0
C7 C 0.04511 0.01791 0.72156 0.0
O8 O 0.06303 0.01601 0.72019 0.0
N9 N 0.06665 0.04814 0.74422 0.0
C10 C 0.08635 0.07043 0.73651 0.0
C11 C 0.08186 0.05743 0.74957 0.0
C12 C 0.06173 0.05652 0.72836 0.0
N13 N 0.07346 0.06988 0.72332 0.0
O14 O 0.03416 0.05461 0.75819 0.0
H15 H 0.08803 0.05661 0.76305 0.0
H16 H 0.04877 0.05419 0.72149 0.0
O17 O 0.03812 0.02504 0.73604 0.0
C18 C 0.03705 0.06856 0.76822 0.0
O19 O 0.05116 0.06858 0.7795 0.0
N20 N 0.0659 0.01319 0.75875 0.0
C21 C 0.08876 0.98322 0.7521 0.0
C22 C 0.06964 0.98125 0.75146 0.0
C23 C 0.05846 0.99634 0.75495 0.0
C24 C 0.08436 0.01461 0.76193 0.0
C25 C 0.09616 -7e-05 0.75807 0.0
H26 H 0.0438 0.99472 0.75322 0.0
H27 H 0.09022 0.02716 0.76696 0.0
H28 H 0.00872 0.02698 0.75683 0.0
H29 H 0.01452 0.00322 0.80915 0.0
H30 H 0.09705 0.08071 0.7376 0.0
H31 H 0.06335 0.96848 0.74705 0.0
H32 H 0.11088 0.00172 0.75934 0.0
C33 C 0.30412 0.82436 0.94134 0.0
C34 C 0.30636 0.81109 0.95465 0.0
N35 N 0.30001 0.79498 0.94801 0.0
N36 N 0.29656 0.81662 0.92631 0.0
C37 C 0.29417 0.79879 0.93079 0.0
H38 H 0.30722 0.83883 0.94275 0.0
Co39 Co 0.28852 0.82852 0.90527 0.0
C40 C 0.29827 0.80378 0.8744 0.0
O41 O 0.30314 0.81794 0.86429 0.0
N42 N 0.27956 0.8406 0.88418 0.0
C43 C 0.27016 0.86067 0.86302 0.0
C44 C 0.28205 0.85777 0.8775 0.0
C45 C 0.26611 0.83348 0.87352 0.0
N46 N 0.26013 0.84531 0.86059 0.0
O47 O 0.26444 0.82003 0.91035 0.0
H48 H 0.29129 0.86794 0.88302 0.0
H49 H 0.2602 0.82002 0.87578 0.0
O50 O 0.29269 0.80628 0.89087 0.0
C51 C 0.25289 0.83083 0.9177 0.0
O52 O 0.25775 0.84789 0.92113 0.0
N53 N 0.31251 0.83725 0.90148 0.0
C54 C 0.34819 0.85053 0.90597 0.0
C55 C 0.34511 0.83259 0.89973 0.0
C56 C 0.3272 0.82605 0.89806 0.0
C57 C 0.31528 0.85487 0.90725 0.0
C58 C 0.33302 0.86188 0.90942 0.0
H59 H 0.32546 0.81155 0.89567 0.0
H60 H 0.30368 0.86308 0.9116 0.0
H61 H 0.28784 0.78891 0.92168 0.0
H62 H 0.31155 0.81336 0.96841 0.0
H63 H 0.26873 0.87324 0.8552 0.0
H64 H 0.35642 0.82309 0.89782 0.0
H65 H 0.33485 0.87564 0.9148 0.0
C66 C 0.51709 0.04834 0.24952 0.0
C67 C 0.53199 0.05483 0.25931 0.0
N68 N 0.54721 0.04637 0.25298 0.0
N69 N 0.52298 0.03591 0.23711 0.0
C70 C 0.54131 0.03491 0.23965 0.0
H71 H 0.50288 0.05233 0.25135 0.0
Co72 Co 0.50895 0.02212 0.22089 0.0
C73 C 0.53052 0.02096 0.18664 0.0
O74 O 0.51523 0.02374 0.17742 0.0
N75 N 0.49486 0.00722 0.20484 0.0
C76 C 0.47451 0.9928 0.18698 0.0
C77 C 0.47753 0.00786 0.19808 0.0
C78 C 0.5017 0.99132 0.19806 0.0
N79 N 0.4898 0.98242 0.18704 0.0
O80 O 0.51664 0.00056 0.23318 0.0
H81 H 0.46744 0.01831 0.20084 0.0
H82 H 0.51558 0.98666 0.20069 0.0
O83 O 0.53006 0.01994 0.20419 0.0
C84 C 0.50781 0.9949 0.24712 0.0
O85 O 0.49362 0.0044 0.25301 0.0
N86 N 0.5012 0.04411 0.20954 0.0
C87 C 0.48976 0.07861 0.19684 0.0
C88 C 0.50831 0.07333 0.19602 0.0
C89 C 0.51374 0.05626 0.20263 0.0
C90 C 0.48336 0.04938 0.2116 0.0
C91 C 0.47717 0.06622 0.2047 0.0
H92 H 0.52827 0.05335 0.20312 0.0
H93 H 0.474 0.04088 0.21937 0.0
H94 H 0.55013 0.02554 0.23221 0.0
H95 H 0.53164 0.06503 0.27013 0.0
H96 H 0.46199 0.98972 0.17955 0.0
H97 H 0.51891 0.08269 0.19141 0.0
H98 H 0.46279 0.0697 0.20621 0.0
C99 C 0.33056 0.29383 0.51636 0.0
C100 C 0.32808 0.3121 0.52077 0.0
N101 N 0.32501 0.32155 0.5051 0.0
N102 N 0.32884 0.29177 0.49803 0.0
C103 C 0.32551 0.30885 0.49158 0.0
H104 H 0.33388 0.28283 0.5258 0.0
Co105 Co 0.33282 0.27081 0.4839 0.0
C106 C 0.29938 0.27293 0.45936 0.0
O107 O 0.29281 0.25677 0.46394 0.0
N108 N 0.33735 0.24962 0.46911 0.0
C109 C 0.33549 0.22329 0.45334 0.0
C110 C 0.3269 0.23452 0.46591 0.0
C111 C 0.35233 0.24689 0.45844 0.0
N112 N 0.35154 0.23115 0.44872 0.0
O113 O 0.35037 0.28453 0.47028 0.0
H114 H 0.31378 0.23165 0.4722 0.0
H115 H 0.36347 0.25655 0.45709 0.0
O116 O 0.31421 0.27895 0.46656 0.0
C117 C 0.36613 0.28569 0.4777 0.0
O118 O 0.36942 0.27606 0.49264 0.0
N119 N 0.31607 0.25784 0.49851 0.0
C120 C 0.29215 0.23689 0.51963 0.0
C121 C 0.28657 0.25389 0.51244 0.0
C122 C 0.29885 0.2643 0.50212 0.0
C123 C 0.32236 0.24238 0.50706 0.0
C124 C 0.31045 0.23138 0.51732 0.0
H125 H 0.29437 0.27735 0.4966 0.0
H126 H 0.33649 0.23812 0.50519 0.0
H127 H 0.32388 0.31195 0.47712 0.0
H128 H 0.32917 0.31805 0.53436 0.0
H129 H 0.33027 0.21045 0.44792 0.0
H130 H 0.27259 0.25877 0.51407 0.0
H131 H 0.31538 0.21855 0.52306 0.0
C132 C 0.51767 0.52603 0.28766 0.0
C133 C 0.50015 0.52641 0.28032 0.0
N134 N 0.48803 0.52711 0.29431 0.0
N135 N 0.51647 0.52669 0.30614 0.0
C136 C 0.4983 0.52759 0.30971 0.0
H137 H 0.53034 0.52422 0.2801 0.0
Co138 Co 0.53438 0.52234 0.32392 0.0
C139 C 0.52552 0.55526 0.34832 0.0
O140 O 0.54134 0.56375 0.34666 0.0
N141 N 0.55214 0.51749 0.34239 0.0
C142 C 0.57336 0.5197 0.36439 0.0
C143 C 0.56458 0.52879 0.35037 0.0
C144 C 0.55397 0.50151 0.35174 0.0
N145 N 0.56654 0.50255 0.36536 0.0
O146 O 0.51882 0.50396 0.33433 0.0
H147 H 0.5672 0.54284 0.34645 0.0
H148 H 0.54599 0.48933 0.34886 0.0
O149 O 0.52249 0.54008 0.34004 0.0
C150 C 0.51617 0.48938 0.3251 0.0
O151 O 0.52461 0.48742 0.30924 0.0
N152 N 0.54973 0.5399 0.31291 0.0
C153 C 0.57553 0.56646 0.30444 0.0
C154 C 0.55677 0.57089 0.30461 0.0
C155 C 0.54396 0.55724 0.30871 0.0
C156 C 0.56738 0.53472 0.30926 0.0
C157 C 0.58075 0.54797 0.3056 0.0
H158 H 0.52964 0.56096 0.31018 0.0
H159 H 0.57149 0.52056 0.31118 0.0
H160 H 0.49267 0.52738 0.32348 0.0
H161 H 0.49659 0.52488 0.26595 0.0
H162 H 0.58339 0.5256 0.37367 0.0
H163 H 0.55219 0.58502 0.30347 0.0
H164 H 0.59509 0.54402 0.30508 0.0
C165 C 0.77699 0.27033 0.56105 0.0
C166 C 0.77397 0.25282 0.55432 0.0
N167 N 0.78376 0.24091 0.5646 0.0
N168 N 0.78864 0.26932 0.57542 0.0
C169 C 0.79254 0.25129 0.57718 0.0
H170 H 0.77152 0.28299 0.5555 0.0
Co171 Co 0.79968 0.2881 0.58857 0.0
C172 C 0.79784 0.27567 0.62746 0.0
O173 O 0.79466 0.29262 0.63287 0.0
N174 N 0.81187 0.30701 0.60169 0.0
C175 C 0.82291 0.33265 0.61441 0.0
C176 C 0.80978 0.32547 0.6028 0.0
C177 C 0.82686 0.30359 0.61214 0.0
N178 N 0.83363 0.31879 0.62025 0.0
O179 O 0.82294 0.27899 0.58143 0.0
H180 H 0.79965 0.33357 0.59569 0.0
H181 H 0.83232 0.28993 0.61436 0.0
O182 O 0.80031 0.27227 0.61038 0.0
C183 C 0.83086 0.28572 0.56742 0.0
O184 O 0.82243 0.29851 0.55784 0.0
N185 N 0.77628 0.29716 0.59492 0.0
C186 C 0.74336 0.31331 0.60567 0.0
C187 C 0.74766 0.29537 0.61115 0.0
C188 C 0.76399 0.28735 0.60521 0.0
C189 C 0.7711 0.31349 0.58739 0.0
C190 C 0.75494 0.32215 0.59304 0.0
H191 H 0.76675 0.2733 0.60909 0.0
H192 H 0.77972 0.31998 0.57719 0.0
H193 H 0.80249 0.24596 0.58686 0.0
H194 H 0.7655 0.24919 0.54264 0.0
H195 H 0.82443 0.34695 0.61824 0.0
H196 H 0.73871 0.28772 0.62026 0.0
H197 H 0.75151 0.33557 0.58757 0.0
C198 C 0.01575 0.54842 0.85044 0.0
C199 C 0.0283 0.54702 0.83628 0.0
N200 N 0.04523 0.55018 0.84316 0.0
N201 N 0.02481 0.55219 0.86616 0.0
C202 C 0.04265 0.55322 0.86127 0.0
H203 H 0.00097 0.54721 0.84931 0.0
Co204 Co 0.01535 0.55773 0.88929 0.0
C205 C 0.04195 0.53494 0.91182 0.0
O206 O 0.0294 0.52339 0.91768 0.0
N207 N 0.00601 0.5641 0.91287 0.0
C208 C 0.99831 0.5642 0.94261 0.0
C209 C 0.00208 0.55336 0.92758 0.0
C210 C 0.00374 0.5814 0.9193 0.0
N211 N -0.00073 0.5818 0.93723 0.0
O212 O 0.02716 0.58092 0.88746 0.0
H213 H 0.0021 0.53855 0.92768 0.0
H214 H 0.00637 0.59372 0.91147 0.0
O215 O 0.03761 0.54806 0.90096 0.0
C216 C 0.01846 0.59242 0.8776 0.0
O217 O 0.00211 0.5879 0.87137 0.0
N218 N 0.00306 0.53507 0.88974 0.0
C219 C 0.98302 0.50263 0.8885 0.0
C220 C 0.00163 0.50275 0.88364 0.0
C221 C 0.0114 0.51918 0.88422 0.0
C222 C 0.98463 0.53535 0.89326 0.0
C223 C 0.97441 0.51912 0.89327 0.0
H224 H 0.02574 0.51913 0.88032 0.0
H225 H 0.97783 0.54823 0.89625 0.0
H226 H 0.05354 0.55649 0.87085 0.0
H227 H 0.02513 0.54452 0.82196 0.0
H228 H 0.99567 0.55958 0.95651 0.0
H229 H 0.0086 0.49021 0.87963 0.0
H230 H 0.95991 0.51948 0.89663 0.0
C231 C 0.8226 0.77824 0.09962 0.0
C232 C 0.8265 0.79219 0.08737 0.0
N233 N 0.81542 0.80654 0.09119 0.0
N234 N 0.80915 0.78386 0.11106 0.0
C235 C 0.805 0.80104 0.1055 0.0
H236 H 0.82901 0.76484 0.10007 0.0
Co237 Co 0.79765 0.77081 0.12965 0.0
C238 C 0.79417 0.79726 0.16053 0.0
O239 O 0.79781 0.78411 0.17238 0.0
N240 N 0.78521 0.75751 0.14814 0.0
C241 C 0.77423 0.73779 0.16888 0.0
C242 C 0.78857 0.74154 0.15707 0.0
C243 C 0.76858 0.76282 0.1545 0.0
N244 N 0.76164 0.75123 0.16713 0.0
O245 O 0.77481 0.77455 0.1178 0.0
H246 H 0.80045 0.73289 0.15525 0.0
H247 H 0.76188 0.77541 0.15027 0.0
O248 O 0.79381 0.79367 0.14333 0.0
C249 C 0.76768 0.76195 0.10806 0.0
O250 O 0.77695 0.7467 0.10525 0.0
N251 N 0.82072 0.76683 0.14068 0.0
C252 C 0.85652 0.75977 0.1525 0.0
C253 C 0.84912 0.7775 0.15358 0.0
C254 C 0.83142 0.78084 0.14716 0.0
C255 C 0.82795 0.74964 0.13882 0.0
C256 C 0.84572 0.7457 0.14495 0.0
H257 H 0.82692 0.79493 0.14644 0.0
H258 H 0.82012 0.73908 0.13187 0.0
H259 H 0.79404 0.80913 0.11144 0.0
H260 H 0.8367 0.7918 0.07655 0.0
H261 H 0.7731 0.72602 0.17792 0.0
H262 H 0.85736 0.78902 0.1582 0.0
H263 H 0.85116 0.73195 0.14322 0.0
C264 C 0.75077 0.00437 0.01002 0.0
C265 C 0.76216 0.9894 0.00749 0.0
N266 N 0.75805 0.97676 0.0204 0.0
N267 N 0.73961 0.00107 0.02444 0.0
C268 C 0.74449 0.98428 0.03053 0.0
H269 H 0.75068 0.01687 0.00197 0.0
Co270 Co 0.7221 0.01628 0.03491 0.0
C271 C 0.69052 0.99186 0.04302 0.0
O272 O 0.67921 0.00495 0.03781 0.0
N273 N 0.70464 0.03186 0.04639 0.0
C274 C 0.68371 0.05253 0.05481 0.0
C275 C 0.69584 0.04739 0.04124 0.0
C276 C 0.69818 0.0285 0.0635 0.0
N277 N 0.68503 0.04047 0.06881 0.0
O278 O 0.73528 0.01559 0.05727 0.0
H279 H 0.69758 0.05461 0.02845 0.0
H280 H 0.70269 0.0169 0.0716 0.0
O281 O 0.70789 0.99462 0.04256 0.0
C282 C 0.74567 0.02916 0.06086 0.0
O283 O 0.74724 0.04244 0.04871 0.0
N284 N 0.70987 0.01734 0.01218 0.0
C285 C 0.69296 0.02137 0.9781 0.0
C286 C 0.6935 0.00418 0.98673 0.0
C287 C 0.70238 0.00236 0.00362 0.0
C288 C 0.71112 0.03362 0.00305 0.0
C289 C 0.70224 0.03615 0.98625 0.0
H290 H 0.70353 0.98881 0.00952 0.0
H291 H 0.71913 0.04472 0.00884 0.0
H292 H 0.7386 0.9779 0.0426 0.0
H293 H 0.77254 0.98789 0.99694 0.0
H294 H 0.67415 0.06388 0.05393 0.0
H295 H 0.68724 0.99223 0.98042 0.0
H296 H 0.7031 0.04936 0.97944 0.0
C297 C 0.26796 0.4756 0.29714 0.0
C298 C 0.28261 0.48737 0.29492 0.0
N299 N 0.29831 0.47755 0.29619 0.0
N300 N 0.27435 0.45841 0.29961 0.0
C301 C 0.29282 0.46004 0.29916 0.0
H302 H 0.25355 0.47927 0.29678 0.0
Co303 Co 0.26051 0.43723 0.30319 0.0
C304 C 0.28201 0.41095 0.27884 0.0
O305 O 0.26831 0.40626 0.26807 0.0
N306 N 0.24641 0.41576 0.30725 0.0
C307 C 0.23096 0.38944 0.30403 0.0
C308 C 0.23777 0.40465 0.29506 0.0
C309 C 0.24393 0.40728 0.32359 0.0
N310 N 0.2348 0.39129 0.32198 0.0
O311 O 0.27327 0.43356 0.32568 0.0
H312 H 0.23673 0.40709 0.28046 0.0
H313 H 0.24954 0.41207 0.33647 0.0
O314 O 0.27963 0.42261 0.29172 0.0
C315 C 0.26936 0.44313 0.33975 0.0
O316 O 0.25525 0.4544 0.33901 0.0
N317 N 0.24815 0.44193 0.28115 0.0
C318 C 0.22931 0.4558 0.25087 0.0
C319 C 0.24809 0.45164 0.24971 0.0
C320 C 0.25733 0.44503 0.2651 0.0
C321 C 0.22985 0.44577 0.28255 0.0
C322 C 0.2201 0.45262 0.26749 0.0
H323 H 0.27207 0.44352 0.2644 0.0
H324 H 0.22296 0.44415 0.29563 0.0
H325 H 0.30203 0.44858 0.30129 0.0
H326 H 0.28167 0.50198 0.29231 0.0
H327 H 0.22422 0.3777 0.29783 0.0
H328 H 0.25589 0.45461 0.23738 0.0
H329 H 0.20566 0.45594 0.26899 0.0
C330 C 0.83444 0.02139 0.55338 0.0
C331 C 0.82288 0.03631 0.55186 0.0
N332 N 0.83326 0.0516 0.55053 0.0
N333 N 0.85201 0.02727 0.55294 0.0
C334 C 0.85085 0.04571 0.55127 0.0
H335 H 0.83032 0.00722 0.55511 0.0
Co336 Co 0.87282 0.01296 0.55633 0.0
C337 C 0.90149 0.0291 0.53232 0.0
O338 O 0.90733 0.0127 0.52751 0.0
N339 N 0.89416 0.99843 0.56038 0.0
C340 C 0.91516 0.97628 0.5634 0.0
C341 C 0.89839 0.98084 0.55598 0.0
C342 C 0.90888 0.0042 0.57018 0.0
N343 N 0.92169 0.991 0.57247 0.0
O344 O 0.87778 0.02645 0.57798 0.0
H345 H 0.88999 0.9715 0.54816 0.0
H346 H 0.90993 0.01776 0.57615 0.0
O347 O 0.88761 0.03072 0.54293 0.0
C348 C 0.87354 0.01983 0.59354 0.0
O349 O 0.86624 0.00333 0.59436 0.0
N350 N 0.86657 -0.00036 0.53535 0.0
C351 C 0.85236 0.97878 0.50674 0.0
C352 C 0.85944 0.99637 0.50341 0.0
C353 C 0.86627 0.00673 0.51798 0.0
C354 C 0.8586 0.98305 0.53894 0.0
C355 C 0.85192 0.97208 0.52473 0.0
H356 H 0.87056 0.02067 0.51532 0.0
H357 H 0.85754 0.97831 0.553 0.0
H358 H 0.86266 0.05473 0.55145 0.0
H359 H 0.80801 0.03593 0.5519 0.0
H360 H 0.92181 0.963 0.56246 0.0
H361 H 0.85948 0.00215 0.48968 0.0
H362 H 0.84598 0.95877 0.5278 0.0
C363 C 0.25221 0.56176 0.75353 0.0
C364 C 0.23482 0.55435 0.75504 0.0
N365 N 0.22516 0.56455 0.76714 0.0
N366 N 0.25337 0.57666 0.76448 0.0
C367 C 0.23678 0.57794 0.77262 0.0
H368 H 0.26333 0.55655 0.74516 0.0
Co369 Co 0.27355 0.59161 0.76866 0.0
C370 C 0.2591 0.62953 0.76618 0.0
O371 O 0.27413 0.63452 0.75748 0.0
N372 N 0.29421 0.60662 0.77386 0.0
C373 C 0.32072 0.62196 0.77574 0.0
C374 C 0.31123 0.60839 0.76654 0.0
C375 C 0.2942 0.61867 0.78803 0.0
N376 N 0.3099 0.62839 0.78926 0.0
O377 O 0.27145 0.58697 0.79414 0.0
H378 H 0.31677 0.60056 0.75529 0.0
H379 H 0.2824 0.62095 0.7968 0.0
O380 O 0.25724 0.61289 0.77157 0.0
C381 C 0.2784 0.57305 0.80203 0.0
O382 O 0.28697 0.5606 0.79214 0.0
N383 N 0.27533 0.59574 0.74307 0.0
C384 C 0.27985 0.60443 0.70612 0.0
C385 C 0.26342 0.60863 0.71518 0.0
C386 C 0.26123 0.60369 0.73351 0.0
C387 C 0.29014 0.58906 0.73377 0.0
C388 C 0.29299 0.59372 0.71534 0.0
H389 H 0.24821 0.60652 0.74003 0.0
H390 H 0.29994 0.58034 0.74074 0.0
H391 H 0.23335 0.58853 0.78248 0.0
H392 H 0.22988 0.54213 0.74814 0.0
H393 H 0.33444 0.62681 0.77263 0.0
H394 H 0.25234 0.61571 0.70819 0.0
H395 H 0.30552 0.58938 0.70859 0.0
C396 C 0.27738 0.59345 0.0474 0.0
C397 C 0.28516 0.61072 0.04649 0.0
N398 N 0.27467 0.62123 0.0354 0.0
N399 N 0.2621 0.59318 0.03693 0.0
C400 C 0.26084 0.61024 0.0298 0.0
H401 H 0.28282 0.58171 0.05471 0.0
Co402 Co 0.24749 0.57326 0.03095 0.0
C403 C 0.2092 0.58746 0.0337 0.0
O404 O 0.2036 0.57176 0.0407 0.0
N405 N 0.23292 0.55293 0.02399 0.0
C406 C 0.21986 0.52563 0.01916 0.0
C407 C 0.23253 0.53517 0.0295 0.0
C408 C 0.22088 0.55351 0.00983 0.0
N409 N 0.21253 0.53726 0.00679 0.0
O410 O 0.25229 0.57749 0.00575 0.0
H411 H 0.24099 0.52913 0.04003 0.0
H412 H 0.21795 0.56592 0.00217 0.0
O413 O 0.22611 0.58957 0.02937 0.0
C414 C 0.26627 0.57002 0.99846 0.0
O415 O 0.27756 0.56049 0.00886 0.0
N416 N 0.24356 0.56888 0.05613 0.0
C417 C 0.23735 0.55851 0.09239 0.0
C418 C 0.23019 0.57505 0.08562 0.0
C419 C 0.23394 0.58027 0.06756 0.0
C420 C 0.25258 0.55409 0.06321 0.0
C421 C 0.24934 0.54836 0.08122 0.0
H422 H 0.229 0.59344 0.06287 0.0
H423 H 0.26199 0.54641 0.05464 0.0
H424 H 0.25054 0.6142 0.01983 0.0
H425 H 0.29772 0.61508 0.05317 0.0
H426 H 0.21649 0.51121 0.02055 0.0
H427 H 0.22174 0.58382 0.09418 0.0
H428 H 0.25568 0.5358 0.08608 0.0
C429 C 0.76514 0.03139 0.30609 0.0
C430 C 0.74828 0.03953 0.30922 0.0
N431 N 0.73623 0.0329 0.29678 0.0
N432 N 0.76357 0.01956 0.29191 0.0
C433 C 0.74589 0.02086 0.28653 0.0
H434 H 0.77773 0.03401 0.31355 0.0
Co435 Co 0.78124 0.00505 0.28069 0.0
C436 C 0.76445 0.96785 0.27997 0.0
O437 O 0.78059 0.96055 0.28357 0.0
N438 N 0.7991 0.99066 0.26831 0.0
C439 C 0.82403 0.97659 0.25734 0.0
C440 C 0.81751 0.98881 0.27024 0.0
C441 C 0.79514 0.98031 0.25336 0.0
N442 N 0.80985 0.97115 0.24681 0.0
O443 O 0.77423 0.0147 0.25764 0.0
H444 H 0.82602 0.99587 0.28006 0.0
H445 H 0.78141 0.9789 0.24784 0.0
O446 O 0.76295 0.98529 0.27809 0.0
C447 C 0.78424 0.02709 0.25049 0.0
O448 O 0.79854 0.03322 0.25967 0.0
N449 N 0.78839 0.99609 0.30393 0.0
C450 C 0.80142 0.9803 0.33621 0.0
C451 C 0.78299 0.97819 0.33105 0.0
C452 C 0.77662 0.98663 0.31512 0.0
C453 C 0.80544 0.00058 0.31019 0.0
C454 C 0.81251 0.99236 0.32602 0.0
H455 H 0.76223 0.98534 0.31173 0.0
H456 H 0.81366 0.01047 0.30279 0.0
H457 H 0.74021 0.01302 0.27524 0.0
H458 H 0.74525 0.0498 0.31955 0.0
H459 H 0.83811 0.97201 0.25592 0.0
H460 H 0.77355 0.97014 0.33928 0.0
H461 H 0.82658 0.99517 0.32999 0.0
C462 C 0.30805 0.54645 0.48276 0.0
C463 C 0.30162 0.52861 0.48351 0.0
N464 N 0.31573 0.51749 0.4881 0.0
N465 N 0.32605 0.54655 0.48711 0.0
C466 C 0.3303 0.52877 0.4903 0.0
H467 H 0.30032 0.55845 0.47859 0.0
Co468 Co 0.34276 0.56588 0.48505 0.0
C469 C 0.36328 0.55919 0.52094 0.0
O470 O 0.35794 0.57434 0.52913 0.0
N471 N 0.36006 0.58513 0.48217 0.0
C472 C 0.38114 0.60703 0.48647 0.0
C473 C 0.367 0.59729 0.49444 0.0
C474 C 0.36973 0.58844 0.46666 0.0
N475 N 0.38265 0.60145 0.46897 0.0
O476 O 0.35615 0.55098 0.46827 0.0
H477 H 0.36232 0.59909 0.50836 0.0
H478 H 0.36819 0.58077 0.45405 0.0
O479 O 0.35777 0.55535 0.5047 0.0
C480 C 0.34963 0.54963 0.45214 0.0
O481 O 0.33631 0.56081 0.44721 0.0
N482 N 0.32858 0.58013 0.50128 0.0
C483 C 0.30797 0.60169 0.52521 0.0
C484 C 0.31135 0.58313 0.52914 0.0
C485 C 0.32153 0.57256 0.51693 0.0
C486 C 0.32405 0.59769 0.49643 0.0
C487 C 0.31414 0.60892 0.50846 0.0
H488 H 0.32432 0.55838 0.5204 0.0
H489 H 0.32861 0.60322 0.4834 0.0
H490 H 0.34405 0.52415 0.49351 0.0
H491 H 0.28786 0.52412 0.48006 0.0
H492 H 0.38996 0.61701 0.49312 0.0
H493 H 0.30688 0.577 0.54196 0.0
H494 H 0.3115 0.62312 0.50484 0.0
C495 C 0.78168 0.0437 0.7738 0.0
C496 C 0.79722 0.03323 0.77673 0.0
N497 N 0.81159 0.04469 0.77909 0.0
N498 N 0.78625 0.06165 0.77459 0.0
C499 C 0.80452 0.06178 0.7778 0.0
H500 H 0.76805 0.03861 0.77072 0.0
Co501 Co 0.77182 0.08213 0.76933 0.0
C502 C 0.78296 0.10484 0.80271 0.0
O503 O 0.76728 0.10398 0.81159 0.0
N504 N 0.75767 0.10325 0.76361 0.0
C505 C 0.74159 0.12928 0.76562 0.0
C506 C 0.74658 0.11338 0.77458 0.0
C507 C 0.75874 0.11317 0.74793 0.0
N508 N 0.74938 0.12913 0.74886 0.0
O509 O 0.78984 0.08931 0.75195 0.0
H510 H 0.74275 0.10983 0.78846 0.0
H511 H 0.76723 0.1095 0.73636 0.0
O512 O 0.78508 0.09661 0.78736 0.0
C513 C 0.78929 0.08105 0.73659 0.0
O514 O 0.77589 0.06935 0.73343 0.0
N515 N 0.75394 0.0739 0.78593 0.0
C516 C 0.72633 0.05988 0.80834 0.0
C517 C 0.74455 0.06075 0.81459 0.0
C518 C 0.75821 0.06759 0.80307 0.0
C519 C 0.73652 0.07201 0.77921 0.0
C520 C 0.72237 0.06544 0.79035 0.0
H521 H 0.77226 0.0679 0.80792 0.0
H522 H 0.73355 0.07581 0.76514 0.0
H523 H 0.81258 0.07426 0.77864 0.0
H524 H 0.79802 0.01838 0.7763 0.0
H525 H 0.73344 0.14038 0.77126 0.0
H526 H 0.74819 0.05648 0.82839 0.0
H527 H 0.70854 0.06455 0.78492 0.0
C528 C 0.04069 0.81586 0.02029 0.0
C529 C 0.03347 0.82231 0.00398 0.0
N530 N 0.03531 0.80906 0.99114 0.0
N531 N 0.04698 0.79863 0.01769 0.0
C532 C 0.04351 0.79489 -0.00013 0.0
H533 H 0.04188 0.82345 0.03302 0.0
Co534 Co 0.0605 0.78416 0.03369 0.0
C535 C 0.04295 0.74775 0.03191 0.0
O536 O 0.04311 0.74695 0.04996 0.0
N537 N 0.07502 0.7692 0.04939 0.0
C538 C 0.09245 0.75615 0.07102 0.0
C539 C 0.08068 0.77046 0.06708 0.0
C540 C 0.08397 0.75422 0.04293 0.0
N541 N 0.09454 0.746 0.05572 0.0
O542 O 0.07925 0.78254 0.01571 0.0
H543 H 0.07723 0.78121 0.07663 0.0
H544 H 0.08272 0.74941 0.02891 0.0
O545 O 0.04913 0.76194 0.02358 0.0
C546 C 0.09289 0.79316 0.01804 0.0
O547 O 0.09304 0.80414 0.03239 0.0
N548 N 0.04205 0.78706 0.05153 0.0
C549 C 0.01696 0.79108 0.08001 0.0
C550 C 0.01159 0.78304 0.06334 0.0
C551 C 0.02426 0.78157 0.04906 0.0
C552 C 0.0466 0.79729 0.06654 0.0
C553 C 0.03449 0.7989 0.08132 0.0
H554 H 0.01985 0.77568 0.03616 0.0
H555 H 0.05982 0.80403 0.06714 0.0
H556 H 0.04796 0.78238 0.99316 0.0
H557 H 0.02774 0.83584 0.00168 0.0
H558 H 0.09942 0.75381 0.08395 0.0
H559 H 0.99792 0.77741 0.06153 0.0
H560 H 0.03877 0.80613 0.09361 0.0
C561 C 0.52368 0.7709 0.06835 0.0
C562 C 0.51753 0.76436 0.08508 0.0
N563 N 0.52277 0.77633 0.0982 0.0
N564 N 0.53285 0.78677 0.07109 0.0
C565 C 0.53203 0.78969 0.08936 0.0
H566 H 0.52256 0.76398 0.05523 0.0
Co567 Co 0.54763 0.79925 0.05462 0.0
C568 C 0.5438 0.8387 0.06455 0.0
O569 O 0.54422 0.8433 0.04708 0.0
N570 N 0.56355 0.81162 0.03819 0.0
C571 C 0.57969 0.8232 0.01483 0.0
C572 C 0.56503 0.81221 0.01965 0.0
C573 C 0.5779 0.82185 0.04416 0.0
N574 N 0.58775 0.82921 0.03034 0.0
O575 O 0.56847 0.79275 0.06876 0.0
H576 H 0.55635 0.80513 0.00997 0.0
H577 H 0.58068 0.82439 0.05855 0.0
O578 O 0.54495 0.82178 0.06918 0.0
C579 C 0.57665 0.77789 0.06467 0.0
O580 O 0.56944 0.76713 0.05208 0.0
N581 N 0.52682 0.80474 0.04036 0.0
C582 C 0.49888 0.81345 0.01573 0.0
C583 C 0.4991 0.82113 0.03342 0.0
C584 C 0.51293 0.81618 0.04573 0.0
C585 C 0.52535 0.79526 0.02429 0.0
C586 C 0.51175 0.79971 0.01153 0.0
H587 H 0.51253 0.82181 0.05945 0.0
H588 H 0.53525 0.78464 0.02109 0.0
H589 H 0.5395 0.80051 0.09631 0.0
H590 H 0.51054 0.75145 0.08751 0.0
H591 H 0.58412 0.82641 0.00099 0.0
H592 H 0.48906 0.8313 0.03757 0.0
H593 H 0.51146 0.79264 0.99843 0.0
C594 C 0.53414 0.28758 0.30937 0.0
C595 C 0.54319 0.28567 0.32593 0.0
N596 N 0.53052 0.28357 0.33929 0.0
N597 N 0.51588 0.28675 0.31238 0.0
C598 C 0.51414 0.28411 0.33064 0.0
H599 H 0.54038 0.29058 0.29622 0.0
Co600 Co 0.49688 0.29285 0.29639 0.0
C601 C 0.47075 0.26137 0.30373 0.0
O602 O 0.46936 0.25636 0.28646 0.0
N603 N 0.47718 0.29947 0.28033 0.0
C604 C 0.45492 0.29959 0.25921 0.0
C605 C 0.46991 0.29028 0.26586 0.0
C606 C 0.46634 0.31454 0.28185 0.0
N607 N 0.45259 0.31485 0.26937 0.0
O608 O 0.48846 0.31041 0.31391 0.0
H609 H 0.47476 0.27733 0.26049 0.0
H610 H 0.46829 0.32513 0.29205 0.0
O611 O 0.48116 0.27475 0.3083 0.0
C612 C 0.49846 0.32454 0.31623 0.0
O613 O 0.51355 0.32623 0.30645 0.0
N614 N 0.5062 0.27621 0.27919 0.0
C615 C 0.51569 0.25259 0.25095 0.0
C616 C 0.51381 0.24596 0.26896 0.0
C617 C 0.5092 0.25812 0.28302 0.0
C618 C 0.51079 0.28325 0.26242 0.0
C619 C 0.51495 0.27154 0.24781 0.0
H620 H 0.50714 0.25287 0.29676 0.0
H621 H 0.5096 0.29788 0.25998 0.0
H622 H 0.50105 0.28436 0.3377 0.0
H623 H 0.55788 0.28671 0.32808 0.0
H624 H 0.44601 0.29499 0.24823 0.0
H625 H 0.51456 0.23138 0.2719 0.0
H626 H 0.51665 0.2771 0.23411 0.0
C627 C 0.06888 0.24581 0.56258 0.0
C628 C 0.0699 0.25427 0.57952 0.0
N629 N 0.0588 0.24518 0.59125 0.0
N630 N 0.05724 0.23145 0.5637 0.0
C631 C 0.05123 0.23151 0.58124 0.0
H632 H 0.07611 0.24987 0.55024 0.0
Co633 Co 0.05029 0.21562 0.54499 0.0
C634 C 0.04922 0.17881 0.56223 0.0
O635 O 0.05629 0.17162 0.54723 0.0
N636 N 0.04243 0.19981 0.52583 0.0
C637 C 0.03767 0.18314 0.50052 0.0
C638 C 0.04911 0.19565 0.50896 0.0
C639 C 0.02665 0.19004 0.52691 0.0
N640 N 0.02353 0.17968 0.51189 0.0
O641 O 0.02569 0.2234 0.54801 0.0
H642 H 0.06139 0.20115 0.50283 0.0
H643 H 0.01789 0.18999 0.53894 0.0
O644 O 0.04605 0.19608 0.56297 0.0
C645 C 0.01909 0.23593 0.53781 0.0
O646 O 0.02962 0.24353 0.52526 0.0
N647 N 0.07509 0.20881 0.54215 0.0
C648 C 0.11238 0.20129 0.53733 0.0
C649 C 0.10344 0.19649 0.55369 0.0
C650 C 0.08494 0.20075 0.55599 0.0
C651 C 0.08395 0.21508 0.5269 0.0
C652 C 0.10246 0.211 0.52392 0.0
H653 H 0.07882 0.19813 0.56924 0.0
H654 H 0.07665 0.22352 0.51709 0.0
H655 H 0.04106 0.222 0.58645 0.0
H656 H 0.07826 0.26609 0.58294 0.0
H657 H 0.03959 0.17711 0.48705 0.0
H658 H 0.11081 0.1901 0.56493 0.0
H659 H 0.10892 0.21556 0.51131 0.0
C660 C 0.03166 0.79544 0.76663 0.0
C661 C 0.02433 0.80141 0.78308 0.0
N662 N 0.03733 0.79981 0.79621 0.0
N663 N 0.04925 0.79036 0.76939 0.0
C664 C 0.05229 0.79317 0.78746 0.0
H665 H 0.02446 0.79417 0.75368 0.0
Co666 Co 0.06504 0.77818 0.75347 0.0
C667 C 0.09998 0.79822 0.75749 0.0
O668 O 0.10106 0.79888 0.73946 0.0
N669 N 0.08066 0.76435 0.73822 0.0
C670 C 0.08959 0.74065 0.72089 0.0
C671 C 0.0757 0.75308 0.72428 0.0
C672 C 0.09721 0.75781 0.74356 0.0
N673 N 0.103 0.74358 0.73326 0.0
O674 O 0.06656 0.75885 0.77076 0.0
H675 H 0.06205 0.7523 0.71847 0.0
H676 H 0.10406 0.76201 0.75605 0.0
O677 O 0.08638 0.79008 0.76516 0.0
C678 C 0.05597 0.74506 0.76942 0.0
O679 O 0.04395 0.74449 0.75594 0.0
N680 N 0.06329 0.79794 0.7362 0.0
C681 C 0.06789 0.82741 0.71218 0.0
C682 C 0.06688 0.83034 0.73114 0.0
C683 C 0.06457 0.81549 0.74289 0.0
C684 C 0.06188 0.79524 0.71764 0.0
C685 C 0.06478 0.80974 0.70531 0.0
H686 H 0.06534 0.81805 0.75749 0.0
H687 H 0.05919 0.78186 0.71208 0.0
H688 H 0.06512 0.78978 0.79415 0.0
H689 H 0.01026 0.80568 0.78534 0.0
H690 H 0.08897 0.72911 0.71151 0.0
H691 H 0.06926 0.84384 0.73698 0.0
H692 H 0.06507 0.80711 0.69066 0.0
C693 C 0.52811 0.34915 0.5539 0.0
C694 C 0.52973 0.33512 0.54126 0.0
N695 N 0.53274 0.34265 0.5246 0.0
N696 N 0.53013 0.36538 0.54519 0.0
C697 C 0.53288 0.36097 0.52739 0.0
H698 H 0.5251 0.34769 0.56839 0.0
Co699 Co 0.52653 0.38874 0.55488 0.0
C700 C 0.55751 0.40767 0.53383 0.0
O701 O 0.56828 0.41121 0.54787 0.0
N702 N 0.52209 0.41235 0.56445 0.0
C703 C 0.52353 0.44134 0.57428 0.0
C704 C 0.53357 0.42577 0.57026 0.0
C705 C 0.50523 0.41997 0.56562 0.0
N706 N 0.5057 0.43765 0.57108 0.0
O707 O 0.5068 0.39175 0.53801 0.0
H708 H 0.54828 0.42452 0.57141 0.0
H709 H 0.4927 0.41282 0.56221 0.0
O710 O 0.54226 0.39931 0.53614 0.0
C711 C 0.49169 0.3835 0.54085 0.0
O712 O 0.4895 0.37429 0.55624 0.0
N713 N 0.54589 0.38493 0.57152 0.0
C714 C 0.57316 0.37659 0.59696 0.0
C715 C 0.57579 0.37296 0.57826 0.0
C716 C 0.56196 0.37713 0.56577 0.0
C717 C 0.54281 0.38791 0.5898 0.0
C718 C 0.55651 0.38425 0.60279 0.0
H719 H 0.56413 0.37397 0.55142 0.0
H720 H 0.52966 0.3931 0.59438 0.0
H721 H 0.53394 0.37105 0.51651 0.0
H722 H 0.52848 0.32056 0.54405 0.0
H723 H 0.52902 0.45454 0.57841 0.0
H724 H 0.58851 0.36701 0.5733 0.0
H725 H 0.554 0.38696 0.61721 0.0
C726 C 0.99485 0.27687 0.80547 0.0
C727 C 0.00773 0.27705 0.79152 0.0
N728 N -0.00112 0.27492 0.77535 0.0
N729 N 0.97799 0.27485 0.79806 0.0
C730 C 0.98091 0.27372 0.77979 0.0
H731 H 0.99762 0.27756 0.82006 0.0
Co732 Co 0.95552 0.27109 0.80968 0.0
C733 C 0.93292 0.2974 0.78622 0.0
O734 O 0.92843 0.30867 0.79956 0.0
N735 N 0.93251 0.26669 0.82124 0.0
C736 C 0.90443 0.2693 0.83341 0.0
C737 C 0.91967 0.27871 0.82736 0.0
C738 C 0.92484 0.25003 0.82439 0.0
N739 N 0.90784 0.25127 0.83156 0.0
O740 O 0.95329 0.24872 0.79649 0.0
H741 H 0.92118 0.29344 0.82773 0.0
H742 H 0.93114 0.23708 0.82088 0.0
O743 O 0.94303 0.2834 0.78938 0.0
C744 C 0.96234 0.23551 0.80345 0.0
O745 O 0.97117 0.23823 0.81898 0.0
N746 N 0.95881 0.29261 0.82326 0.0
C747 C 0.96196 0.32327 0.84569 0.0
C748 C 0.96514 0.32469 0.82672 0.0
C749 C 0.96373 0.30906 0.81572 0.0
C750 C 0.95765 0.29066 0.84187 0.0
C751 C 0.95868 0.30594 0.85335 0.0
H752 H 0.96605 0.31024 0.80109 0.0
H753 H 0.95517 0.27725 0.84779 0.0
H754 H 0.96999 0.27155 0.76995 0.0
H755 H 0.02247 0.2779 0.79325 0.0
H756 H 0.89181 0.2752 0.83862 0.0
H757 H 0.96804 0.33785 0.82038 0.0
H758 H 0.95675 0.30427 0.86802 0.0
C759 C 0.5693 0.77415 0.31836 0.0
C760 C 0.55914 0.76715 0.30393 0.0
N761 N 0.56678 0.77306 0.28814 0.0
N762 N 0.58313 0.78445 0.31157 0.0
C763 C 0.58116 0.78359 0.29316 0.0
H764 H 0.56655 0.77225 0.33284 0.0
Co765 Co 0.59955 0.79868 0.32486 0.0
C766 C 0.63374 0.79984 0.30299 0.0
O767 O 0.64322 0.79855 0.31832 0.0
N768 N 0.61568 0.81399 0.33832 0.0
C769 C 0.63454 0.82854 0.35765 0.0
C770 C 0.62354 0.81329 0.35517 0.0
C771 C 0.62176 0.83005 0.33121 0.0
N772 N 0.63333 0.83906 0.34248 0.0
O773 O 0.58726 0.81991 0.31634 0.0
H774 H 0.62178 0.8025 0.36515 0.0
H775 H 0.61847 0.83462 0.31744 0.0
O776 O 0.61616 0.80009 0.30356 0.0
C777 C 0.57399 0.82709 0.3251 0.0
O778 O 0.56837 0.81944 0.34046 0.0
N779 N 0.61091 0.77692 0.33325 0.0
C780 C 0.62277 0.74223 0.34493 0.0
C781 C 0.62435 0.74759 0.32649 0.0
C782 C 0.61806 0.7647 0.32091 0.0
C783 C 0.60846 0.77173 0.35109 0.0
C784 C 0.61473 0.75464 0.35737 0.0
H785 H 0.61786 0.76744 0.30635 0.0
H786 H 0.60085 0.78052 0.36035 0.0
H787 H 0.58953 0.79124 0.28357 0.0
H788 H 0.54704 0.75854 0.30495 0.0
H789 H 0.64287 0.83156 0.36961 0.0
H790 H 0.62919 0.73818 0.31603 0.0
H791 H 0.61262 0.75094 0.37163 0.0
H792 H 0.11521 0.98602 0.72568 0.0
H793 H 0.12736 0.96057 0.70711 0.0
H794 H 0.09958 0.92186 0.74246 0.0
H795 H 0.08789 0.94706 0.76112 0.0
H796 H 0.13291 0.90847 0.7283 0.0
H797 H 0.08852 0.93817 0.67323 0.0
H798 H 0.1075 0.95122 0.68224 0.0
H799 H 0.08757 0.94727 0.69625 0.0
C800 C 0.11239 0.97201 0.72988 0.0
C801 C 0.10043 0.96841 0.74464 0.0
C802 C 0.11918 0.95753 0.71916 0.0
C803 C 0.11401 0.93938 0.72315 0.0
C804 C 0.10371 0.93577 0.73908 0.0
H805 H 0.05325 0.86146 0.70872 0.0
H806 H 0.0707 0.88889 0.70099 0.0
C807 C 0.09697 0.95015 0.74973 0.0
C808 C 0.11628 0.92426 0.70973 0.0
H809 H 0.09147 0.9063 0.67426 0.0
C810 C 0.12454 0.90801 0.71596 0.0
C811 C 0.10561 0.92388 0.69344 0.0
C812 C 0.09674 0.94101 0.68579 0.0
C813 C 0.1198 0.89095 0.70835 0.0
C814 C 0.10682 0.89035 0.69381 0.0
C815 C 0.10121 0.90684 0.68554 0.0
C816 C 0.09478 0.87408 0.69154 0.0
C817 C 0.12673 0.87372 0.71765 0.0
C818 C 0.10185 0.85664 0.68725 0.0
C819 C 0.0918 0.84087 0.6918 0.0
C820 C 0.07461 0.84251 0.70047 0.0
C821 C 0.06652 0.85991 0.70213 0.0
C822 C 0.07653 0.87558 0.69769 0.0
H823 H 0.1364 0.87676 0.72908 0.0
H824 H 0.11501 0.86573 0.72329 0.0
H825 H 0.13401 0.86496 0.70751 0.0
H826 H 0.11573 0.8552 0.68209 0.0
H827 H 0.0983 0.82754 0.69041 0.0
H828 H 0.46265 0.82281 0.0204 0.0
H829 H 0.44144 0.83478 0.99721 0.0
H830 H 0.48385 0.83091 0.95604 0.0
H831 H 0.50538 0.81938 0.9792 0.0
H832 H 0.44877 0.86802 0.97074 0.0
H833 H 0.43687 0.79947 0.93845 0.0
H834 H 0.4446 0.8016 0.96195 0.0
H835 H 0.46006 0.8066 0.94344 0.0
C836 C 0.46755 0.82467 0.00647 0.0
C837 C 0.4857 0.82007 0.00164 0.0
C838 C 0.45542 0.83149 0.99326 0.0
C839 C 0.46117 0.83371 0.97501 0.0
C840 C 0.47922 0.82921 0.97009 0.0
H841 H 0.38076 0.84627 0.88764 0.0
H842 H 0.4115 0.84695 0.90138 0.0
C843 C 0.49141 0.82245 0.9833 0.0
C844 C 0.44795 0.84007 0.96105 0.0
H845 H 0.41894 0.82402 0.92805 0.0
C846 C 0.44238 0.85852 0.96118 0.0
C847 C 0.43992 0.82765 0.94851 0.0
C848 C 0.44554 0.80768 0.94798 0.0
C849 C 0.42838 0.86476 0.94946 0.0
C850 C 0.41948 0.85205 0.93772 0.0
C851 C 0.42579 0.8338 0.93698 0.0
C852 C 0.40214 0.85645 0.92798 0.0
C853 C 0.42312 0.8848 0.94996 0.0
C854 C 0.38681 0.86234 0.93812 0.0
C855 C 0.36933 0.86214 0.93025 0.0
C856 C 0.36684 0.85575 0.9122 0.0
C857 C 0.38234 0.85121 0.9016 0.0
C858 C 0.39987 0.8516 0.90943 0.0
H859 H 0.43519 0.89352 0.95339 0.0
H860 H 0.41732 0.88945 0.93663 0.0
H861 H 0.41267 0.88697 0.96086 0.0
H862 H 0.38808 0.86566 0.95257 0.0
H863 H 0.35763 0.86541 0.93885 0.0
H864 H 0.4904 0.25115 0.22379 0.0
H865 H 0.48304 0.22404 0.20529 0.0
H866 H 0.53204 0.19722 0.22517 0.0
H867 H 0.53904 0.22405 0.24429 0.0
H868 H 0.49833 0.19813 0.17968 0.0
H869 H 0.48876 0.17027 0.24996 0.0
H870 H 0.49278 0.19432 0.24563 0.0
H871 H 0.5117 0.17837 0.24597 0.0
C872 C 0.49999 0.23975 0.22359 0.0
C873 C 0.51514 0.23946 0.23557 0.0
C874 C 0.49577 0.22429 0.21302 0.0
C875 C 0.50678 0.20855 0.21424 0.0
C876 C 0.52324 0.2092 0.22432 0.0
H877 H 0.50492 0.10143 0.17065 0.0
H878 H 0.50437 0.13473 0.17143 0.0
C879 C 0.52726 0.22449 0.23517 0.0
C880 C 0.49936 0.19062 0.2083 0.0
H881 H 0.48733 0.14893 0.22555 0.0
C882 C 0.49576 0.18733 0.18963 0.0
C883 C 0.49526 0.17691 0.22143 0.0
C884 C 0.49712 0.18017 0.24188 0.0
C885 C 0.48908 0.17018 0.18366 0.0
C886 C 0.48641 0.15597 0.19671 0.0
C887 C 0.48928 0.15971 0.21544 0.0
C888 C 0.48258 0.13658 0.19164 0.0
C889 C 0.4849 0.16759 0.16353 0.0
C890 C 0.46998 0.12632 0.20209 0.0
C891 C 0.47112 0.10719 0.20262 0.0
C892 C 0.48453 0.0979 0.19222 0.0
C893 C 0.49503 0.10812 0.17953 0.0
C894 C 0.4944 0.12729 0.17958 0.0
H895 H 0.48002 0.18064 0.15728 0.0
H896 H 0.49768 0.16354 0.15625 0.0
H897 H 0.47433 0.15681 0.16128 0.0
H898 H 0.46052 0.13318 0.21133 0.0
H899 H 0.46262 0.10003 0.21249 0.0
H900 H 0.13862 0.22339 0.52198 0.0
H901 H 0.1716 0.21791 0.5204 0.0
H902 H 0.16449 0.16528 0.54671 0.0
H903 H 0.13122 0.17037 0.54788 0.0
H904 H 0.19113 0.18903 0.56348 0.0
H905 H 0.20241 0.18202 0.48866 0.0
H906 H 0.18799 0.20129 0.4941 0.0
H907 H 0.18024 0.17836 0.49928 0.0
C908 C 0.14393 0.21042 0.52697 0.0
C909 C 0.13225 0.19731 0.53502 0.0
C910 C 0.1628 0.20732 0.5261 0.0
C911 C 0.17038 0.1911 0.53325 0.0
C912 C 0.15883 0.17783 0.54104 0.0
H913 H 0.28728 0.20045 0.51249 0.0
H914 H 0.26002 0.18212 0.51972 0.0
C915 C 0.13987 0.18084 0.54179 0.0
C916 C 0.19054 0.18904 0.53385 0.0
H917 H 0.22802 0.19394 0.50637 0.0
C918 C 0.19931 0.18956 0.55102 0.0
C919 C 0.20114 0.18927 0.51762 0.0
C920 C 0.19246 0.1875 0.49887 0.0
C921 C 0.21835 0.1923 0.55231 0.0
C922 C 0.22865 0.19479 0.53603 0.0
C923 C 0.22011 0.19224 0.5189 0.0
C924 C 0.24711 0.20329 0.53614 0.0
C925 C 0.22708 0.19344 0.57107 0.0
C926 C 0.24919 0.22097 0.54361 0.0
C927 C 0.26472 0.23142 0.53954 0.0
C928 C 0.27835 0.22442 0.52782 0.0
C929 C 0.27702 0.20615 0.52167 0.0
C930 C 0.26145 0.19568 0.52573 0.0
H931 H 0.21987 0.18431 0.58097 0.0
H932 H 0.24185 0.18961 0.57065 0.0
H933 H 0.22589 0.20773 0.5763 0.0
H934 H 0.23816 0.2273 0.55134 0.0
H935 H 0.2655 0.24541 0.54458 0.0
H936 H 0.60041 0.56885 0.33192 0.0
H937 H 0.61563 0.59684 0.34249 0.0
H938 H 0.59648 0.62548 0.2942 0.0
H939 H 0.58049 0.59762 0.28398 0.0
H940 H 0.63994 0.6234 0.33214 0.0
H941 H 0.56901 0.65084 0.33535 0.0
H942 H 0.57382 0.62711 0.33019 0.0
H943 H 0.57537 0.64433 0.31245 0.0
C944 C 0.60001 0.58094 0.32322 0.0
C945 C 0.58915 0.58122 0.30723 0.0
C946 C 0.60867 0.59693 0.32932 0.0
C947 C 0.6067 0.61333 0.3194 0.0
C948 C 0.59772 0.61304 0.30229 0.0
H949 H 0.65026 0.71995 0.33186 0.0
H950 H 0.64895 0.68668 0.33045 0.0
C951 C 0.58872 0.59715 0.29638 0.0
C952 C 0.6116 0.63103 0.32812 0.0
H953 H 0.59306 0.67219 0.34026 0.0
C954 C 0.62972 0.63409 0.33406 0.0
C955 C 0.59807 0.6446 0.33139 0.0
C956 C 0.57795 0.6415 0.32721 0.0
C957 C 0.63484 0.6508 0.34232 0.0
C958 C 0.62158 0.66494 0.34416 0.0
C959 C 0.60333 0.66147 0.33891 0.0
C960 C 0.62625 0.68407 0.34957 0.0
C961 C 0.65431 0.65298 0.34907 0.0
C962 C 0.61452 0.69386 0.36141 0.0
C963 C 0.61457 0.71306 0.36145 0.0
C964 C 0.62668 0.72278 0.34993 0.0
C965 C 0.64029 0.71289 0.34037 0.0
C966 C 0.63982 0.69373 0.33984 0.0
H967 H 0.65985 0.63964 0.35404 0.0
H968 H 0.66314 0.65755 0.3375 0.0
H969 H 0.6553 0.6632 0.36037 0.0
H970 H 0.60408 0.68671 0.36926 0.0
H971 H 0.60394 0.72009 0.36911 0.0
H972 H 0.59039 0.40003 0.62065 0.0
H973 H 0.62015 0.39457 0.63578 0.0
H974 H 0.61932 0.33838 0.6168 0.0
H975 H 0.58975 0.34374 0.60192 0.0
H976 H 0.63686 0.34393 0.65242 0.0
H977 H 0.66189 0.39086 0.59702 0.0
H978 H 0.64522 0.39928 0.61322 0.0
H979 H 0.63875 0.38202 0.59681 0.0
C980 C 0.59632 0.38637 0.62036 0.0
C981 C 0.58808 0.37234 0.60996 0.0
C982 C 0.61328 0.38329 0.62891 0.0
C983 C 0.622 0.36617 0.62711 0.0
C984 C 0.6128 0.35169 0.61833 0.0
H985 H 0.70892 0.29901 0.60962 0.0
H986 H 0.68145 0.3146 0.62077 0.0
C987 C 0.59599 0.35477 0.60976 0.0
C988 C 0.64176 0.36384 0.63107 0.0
H989 H 0.68298 0.37063 0.60991 0.0
C990 C 0.6471 0.35016 0.64356 0.0
C991 C 0.65509 0.37211 0.61957 0.0
C992 C 0.65008 0.38685 0.60583 0.0
C993 C 0.66517 0.34343 0.64374 0.0
C994 C 0.67795 0.35029 0.6308 0.0
C995 C 0.67308 0.36526 0.61968 0.0
C996 C 0.69519 0.34043 0.62639 0.0
C997 C 0.67011 0.32843 0.65717 0.0
C998 C 0.71196 0.34989 0.62536 0.0
C999 C 0.72765 0.34106 0.61868 0.0
C1000 C 0.7268 0.32263 0.61292 0.0
C1001 C 0.71005 0.31313 0.61421 0.0
C1002 C 0.69438 0.32198 0.62077 0.0
H1003 H 0.66222 0.32997 0.67016 0.0
H1004 H 0.66646 0.3149 0.65116 0.0
H1005 H 0.68503 0.32849 0.66042 0.0
H1006 H 0.71282 0.36421 0.62939 0.0
H1007 H 0.74045 0.34864 0.61801 0.0
H1008 H 0.98668 0.35133 0.84702 0.0
H1009 H 0.98348 0.38044 0.86357 0.0
H1010 H 0.93197 0.36202 0.88644 0.0
H1011 H 0.93514 0.33277 0.86993 0.0
H1012 H 0.93133 0.39663 0.8665 0.0
H1013 H 0.98609 0.39442 0.91932 0.0
H1014 H 0.99368 0.38656 0.89718 0.0
H1015 H 0.97622 0.37392 0.90928 0.0
C1016 C 0.97484 0.3534 0.85581 0.0
C1017 C 0.96116 0.3399 0.85723 0.0
C1018 C 0.9731 0.36991 0.86537 0.0
C1019 C 0.95761 0.37319 0.87638 0.0
C1020 C 0.94412 0.35957 0.87819 0.0
H1021 H 0.9656 0.48636 0.9173 0.0
H1022 H 0.95324 0.45487 0.91822 0.0
C1023 C 0.94597 0.34294 0.8688 0.0
C1024 C 0.95472 0.3917 0.88401 0.0
H1025 H 0.97726 0.42466 0.9084 0.0
C1026 C 0.94098 0.40269 0.87612 0.0
C1027 C 0.96715 0.39943 0.89675 0.0
C1028 C 0.98151 0.38792 0.90628 0.0
C1029 C 0.94062 0.4217 0.87917 0.0
C1030 C 0.95434 0.42971 0.89031 0.0
C1031 C 0.96682 0.41844 0.89975 0.0
C1032 C 0.95837 0.44952 0.88942 0.0
C1033 C 0.92636 0.43322 0.86951 0.0
C1034 C 0.96511 0.45682 0.8729 0.0
C1035 C 0.97237 0.47451 0.87243 0.0
C1036 C 0.97283 0.4852 0.88845 0.0
C1037 C 0.96519 0.47831 0.90478 0.0
C1038 C 0.95816 0.46043 0.90532 0.0
H1039 H 0.91376 0.42511 0.86657 0.0
H1040 H 0.92259 0.44545 0.87785 0.0
H1041 H 0.93203 0.43808 0.8562 0.0
H1042 H 0.96572 0.44845 0.86059 0.0
H1043 H 0.97825 0.47962 0.85973 0.0
H1044 H 0.98058 0.79983 0.08089 0.0
H1045 H 0.9591 0.79465 0.10611 0.0
H1046 H 0.00359 0.77575 0.14049 0.0
H1047 H 0.02523 0.78076 0.11508 0.0
H1048 H 0.97462 0.7511 0.13834 0.0
H1049 H 0.94833 0.82014 0.15488 0.0
H1050 H 0.94852 0.81675 0.13047 0.0
H1051 H 0.96989 0.8166 0.14302 0.0
C1052 C 0.98582 0.79488 0.09392 0.0
C1053 C 0.00451 0.79065 0.09605 0.0
C1054 C 0.97359 0.79211 0.10839 0.0
C1055 C 0.97982 0.78507 0.12525 0.0
C1056 C 0.99858 0.7814 0.12765 0.0
H1057 H 0.87635 0.77283 0.18173 0.0
H1058 H 0.90986 0.7756 0.18332 0.0
C1059 C 0.01089 0.78432 0.11318 0.0
C1060 C 0.96617 0.77951 0.13921 0.0
H1061 H 0.92616 0.79488 0.15779 0.0
C1062 C 0.96429 0.76072 0.14317 0.0
C1063 C 0.95304 0.79207 0.146 0.0
C1064 C 0.95518 0.81254 0.14354 0.0
C1065 C 0.94838 0.75395 0.15169 0.0
C1066 C 0.934 0.7663 0.15598 0.0
C1067 C 0.937 0.7853 0.15421 0.0
C1068 C 0.9148 0.76001 0.15848 0.0
C1069 C 0.94669 0.73356 0.15498 0.0
C1070 C 0.90652 0.74963 0.14445 0.0
C1071 C 0.88745 0.74805 0.14351 0.0
C1072 C 0.8763 0.75701 0.15646 0.0
C1073 C 0.88465 0.76597 0.17144 0.0
C1074 C 0.90377 0.76748 0.17242 0.0
H1075 H 0.96022 0.72761 0.15882 0.0
H1076 H 0.93659 0.73043 0.16599 0.0
H1077 H 0.9422 0.72674 0.14209 0.0
H1078 H 0.91463 0.74415 0.13325 0.0
H1079 H 0.88146 0.74127 0.13168 0.0
H1080 H 0.66941 0.04842 0.96711 0.0
H1081 H 0.6588 0.05457 0.93573 0.0
H1082 H 0.68725 0.00603 0.91683 0.0
H1083 H 0.69728 -0.00039 0.94807 0.0
H1084 H 0.68159 0.06322 0.91057 0.0
H1085 H 0.64408 0.00365 0.88377 0.0
H1086 H 0.6474 0.0071 0.90815 0.0
H1087 H 0.66454 0.99532 0.89458 0.0
C1088 C 0.67293 0.03884 0.95627 0.0
C1089 C 0.68422 0.0236 0.95991 0.0
C1090 C 0.66676 0.04227 0.93841 0.0
C1091 C 0.67195 0.03063 0.92391 0.0
C1092 C 0.68247 0.01489 0.92779 0.0
H1093 H 0.72653 0.02999 0.83081 0.0
H1094 H 0.70538 0.02367 0.85606 0.0
C1095 C 0.6884 0.01132 0.94565 0.0
C1096 C 0.6699 0.03666 0.90456 0.0
H1097 H 0.6654 0.01885 0.86143 0.0
C1098 C 0.67732 0.05383 0.89981 0.0
C1099 C 0.66414 0.02454 0.89048 0.0
C1100 C 0.6544 0.00673 0.8946 0.0
C1101 C 0.68135 0.05819 0.88151 0.0
C1102 C 0.67769 0.04506 0.86765 0.0
C1103 C 0.66837 0.02879 0.87214 0.0
C1104 C 0.68709 0.04628 0.84974 0.0
C1105 C 0.69128 0.07597 0.87742 0.0
C1106 C 0.6833 0.06058 0.83737 0.0
C1107 C 0.69551 0.06432 0.823 0.0
C1108 C 0.71159 0.05379 0.82092 0.0
C1109 C 0.71441 0.03851 0.83235 0.0
C1110 C 0.70224 0.03477 0.84663 0.0
H1111 H 0.69415 0.08408 0.89003 0.0
H1112 H 0.70452 0.0731 0.87039 0.0
H1113 H 0.68278 0.08453 0.86808 0.0
H1114 H 0.6716 0.06953 0.83953 0.0
H1115 H 0.69301 0.07617 0.81433 0.0
H1116 H 0.2029 0.55771 0.10713 0.0
H1117 H 0.19335 0.54375 0.13627 0.0
H1118 H 0.24964 0.52899 0.14762 0.0
H1119 H 0.25932 0.54317 0.11874 0.0
H1120 H 0.19835 0.50656 0.14562 0.0
H1121 H 0.23215 0.55244 0.19597 0.0
H1122 H 0.22816 0.55909 0.17237 0.0
H1123 H 0.24763 0.54501 0.17826 0.0
C1124 C 0.21328 0.55184 0.11605 0.0
C1125 C 0.23187 0.55154 0.1107 0.0
C1126 C 0.20779 0.5438 0.1326 0.0
C1127 C 0.22082 0.53556 0.14415 0.0
C1128 C 0.23942 0.53558 0.13903 0.0
H1129 H 0.2314 0.44762 0.21436 0.0
H1130 H 0.22306 0.4677 0.18885 0.0
C1131 C 0.24491 0.54351 0.12246 0.0
C1132 C 0.21505 0.52568 0.16091 0.0
H1133 H 0.22531 0.52167 0.20639 0.0
C1134 C 0.20388 0.51006 0.15902 0.0
C1135 C 0.22193 0.5305 0.17841 0.0
C1136 C 0.23297 0.5478 0.18144 0.0
C1137 C 0.20069 0.49827 0.17395 0.0
C1138 C 0.20911 0.50216 0.19103 0.0
C1139 C 0.21899 0.51859 0.19324 0.0
C1140 C 0.21016 0.48839 0.20595 0.0
C1141 C 0.18887 0.48148 0.17112 0.0
C1142 C 0.20539 0.49316 0.22403 0.0
C1143 C 0.21034 0.48175 0.23867 0.0
C1144 C 0.22028 0.4655 0.23543 0.0
C1145 C 0.22384 0.46012 0.21723 0.0
C1146 C 0.21889 0.47151 0.20263 0.0
H1147 H 0.1783 0.48397 0.16038 0.0
H1148 H 0.19763 0.46993 0.16639 0.0
H1149 H 0.1819 0.47731 0.18405 0.0
H1150 H 0.19879 0.5062 0.22688 0.0
H1151 H 0.20758 0.48633 0.25256 0.0
H1152 H 0.82597 0.98931 0.48287 0.0
H1153 H 0.81645 0.97357 0.45488 0.0
H1154 H 0.85247 0.92822 0.46785 0.0
H1155 H 0.86203 0.94411 0.49617 0.0
H1156 H 0.85932 0.94388 0.43405 0.0
H1157 H 0.78534 0.9297 0.43962 0.0
H1158 H 0.78995 0.95223 0.44845 0.0
H1159 H 0.79989 0.93243 0.45961 0.0
C1160 C 0.83151 0.9758 0.47994 0.0
C1161 C 0.84479 0.96792 0.49145 0.0
C1162 C 0.82591 0.96669 0.46411 0.0
C1163 C 0.83351 0.94957 0.45947 0.0
C1164 C 0.84624 0.94128 0.47138 0.0
H1165 H 0.79432 0.94486 0.34665 0.0
H1166 H 0.80432 0.9294 0.37484 0.0
C1167 C 0.8517 0.95034 0.48744 0.0
C1168 C 0.83046 0.9425 0.44072 0.0
H1169 H 0.79584 0.94163 0.40931 0.0
C1170 C 0.84548 0.94259 0.42863 0.0
C1171 C 0.81251 0.94028 0.43366 0.0
C1172 C 0.79605 0.93844 0.44611 0.0
C1173 C 0.84276 0.94341 0.40959 0.0
C1174 C 0.82463 0.94437 0.40272 0.0
C1175 C 0.80976 0.94138 0.41464 0.0
C1176 C 0.82068 0.95228 0.38445 0.0
C1177 C 0.85926 0.94478 0.39713 0.0
C1178 C 0.82652 0.97027 0.38062 0.0
C1179 C 0.82064 0.97923 0.36476 0.0
C1180 C 0.80871 0.97038 0.35244 0.0
C1181 C 0.80329 0.95214 0.35604 0.0
C1182 C 0.80914 0.9432 0.372 0.0
H1183 H 0.871 0.93684 0.40282 0.0
H1184 H 0.85611 0.93965 0.3831 0.0
H1185 H 0.86361 0.95937 0.39613 0.0
H1186 H 0.83495 0.97775 0.39036 0.0
H1187 H 0.82482 0.99335 0.36257 0.0
H1188 H 0.27758 0.5946 0.54582 0.0
H1189 H 0.27043 0.60834 0.57541 0.0
H1190 H 0.31269 0.64912 0.5669 0.0
H1191 H 0.32035 0.63488 0.53741 0.0
H1192 H 0.31981 0.62958 0.59601 0.0
H1193 H 0.24756 0.65054 0.60158 0.0
H1194 H 0.24827 0.62831 0.59106 0.0
H1195 H 0.25868 0.64768 0.57955 0.0
C1196 C 0.28489 0.6069 0.54997 0.0
C1197 C 0.29972 0.61348 0.53954 0.0
C1198 C 0.28064 0.61493 0.56681 0.0
C1199 C 0.29099 0.62982 0.57341 0.0
C1200 C 0.30448 0.63768 0.56205 0.0
H1201 H 0.27192 0.63843 0.69243 0.0
H1202 H 0.27608 0.64944 0.66091 0.0
C1203 C 0.3088 0.62957 0.54517 0.0
C1204 C 0.29057 0.63397 0.59333 0.0
H1205 H 0.26069 0.63553 0.62938 0.0
C1206 C 0.30694 0.63152 0.60329 0.0
C1207 C 0.27391 0.6368 0.60294 0.0
C1208 C 0.25619 0.64118 0.59313 0.0
C1209 C 0.30676 0.62982 0.62245 0.0
C1210 C 0.28976 0.63024 0.63179 0.0
C1211 C 0.27368 0.63471 0.6221 0.0
C1212 C 0.28813 0.62411 0.65108 0.0
C1213 C 0.3247 0.62673 0.6324 0.0
C1214 C 0.29339 0.60616 0.6559 0.0
C1215 C 0.29095 0.59979 0.67382 0.0
C1216 C 0.28303 0.61122 0.6872 0.0
C1217 C 0.27785 0.62923 0.68234 0.0
C1218 C 0.28031 0.63559 0.6644 0.0
H1219 H 0.33634 0.63309 0.62484 0.0
H1220 H 0.32429 0.63247 0.64655 0.0
H1221 H 0.3274 0.61175 0.63333 0.0
H1222 H 0.299 0.59692 0.64566 0.0
H1223 H 0.29481 0.58578 0.67707 0.0
H1224 H 0.05913 0.14289 0.56648 0.0
H1225 H 0.06121 0.12556 0.59508 0.0
H1226 H 0.03953 0.17192 0.62501 0.0
H1227 H 0.03768 0.18955 0.59644 0.0
H1228 H 0.07093 0.15793 0.64058 0.0
H1229 H 0.02147 0.10186 0.62612 0.0
H1230 H 0.03848 0.10433 0.60845 0.0
H1231 H 0.02238 0.12265 0.61259 0.0
C1232 C 0.05453 0.14935 0.57908 0.0
C1233 C 0.04827 0.16764 0.57917 0.0
C1234 C 0.05566 0.13937 0.59542 0.0
C1235 C 0.05034 0.14739 0.61213 0.0
C1236 C 0.04366 0.16548 0.61223 0.0
H1237 H 0.04107 0.08469 0.71299 0.0
H1238 H 0.03557 0.10501 0.68686 0.0
C1239 C 0.04257 0.17551 0.59589 0.0
C1240 C 0.05283 0.13722 0.62957 0.0
H1241 H 0.04216 0.09703 0.65119 0.0
C1242 C 0.06451 0.14468 0.64301 0.0
C1243 C 0.0443 0.12005 0.63274 0.0
C1244 C 0.03081 0.11183 0.61929 0.0
C1245 C 0.06825 0.1352 0.65939 0.0
C1246 C 0.06038 0.11765 0.66218 0.0
C1247 C 0.04835 0.11041 0.64892 0.0
C1248 C 0.06417 0.10656 0.67881 0.0
C1249 C 0.08042 0.14413 0.67361 0.0
C1250 C 0.08212 0.10084 0.68309 0.0
C1251 C 0.0853 0.08923 0.6981 0.0
C1252 C 0.07054 0.08294 0.7088 0.0
C1253 C 0.05266 0.08903 0.70471 0.0
C1254 C 0.04951 0.10071 0.68987 0.0
H1255 H 0.08106 0.15928 0.67175 0.0
H1256 H 0.07549 0.14114 0.68774 0.0
H1257 H 0.09459 0.13865 0.67224 0.0
H1258 H 0.09359 0.10491 0.67452 0.0
H1259 H 0.09916 0.08462 0.70098 0.0
H1260 H 0.24835 0.81286 0.84679 0.0
H1261 H 0.22073 0.8075 0.82856 0.0
H1262 H 0.20962 0.86573 0.82794 0.0
H1263 H 0.23697 0.87116 0.84683 0.0
H1264 H 0.17912 0.84485 0.83714 0.0
H1265 H 0.21225 0.81751 0.77428 0.0
H1266 H 0.21924 0.80559 0.79471 0.0
H1267 H 0.22495 0.8295 0.79191 0.0
C1268 C 0.24006 0.82455 0.84279 0.0
C1269 C 0.24484 0.84244 0.84832 0.0
C1270 C 0.22437 0.82147 0.83219 0.0
C1271 C 0.21325 0.83623 0.82671 0.0
C1272 C 0.21809 0.85416 0.83195 0.0
H1273 H 0.12642 0.82203 0.74612 0.0
H1274 H 0.15292 0.8331 0.76344 0.0
C1275 C 0.23381 0.85726 0.8426 0.0
C1276 C 0.19618 0.83276 0.81618 0.0
H1277 H 0.17997 0.81228 0.77724 0.0
C1278 C 0.17928 0.83789 0.82395 0.0
C1279 C 0.19645 0.82387 0.7989 0.0
C1280 C 0.21421 0.81896 0.78936 0.0
C1281 C 0.16258 0.8339 0.81512 0.0
C1282 C 0.16283 0.82422 0.79825 0.0
C1283 C 0.17977 0.81954 0.79027 0.0
C1284 C 0.14578 0.81877 0.78852 0.0
C1285 C 0.14486 0.84022 0.82385 0.0
C1286 C 0.13282 0.80717 0.79692 0.0
C1287 C 0.11752 0.80091 0.78707 0.0
C1288 C 0.11514 0.80593 0.76857 0.0
C1289 C 0.12795 0.8178 0.76032 0.0
C1290 C 0.1431 0.82417 0.7702 0.0
H1291 H 0.1472 0.85182 0.83351 0.0
H1292 H 0.13476 0.84461 0.81328 0.0
H1293 H 0.13879 0.82869 0.83178 0.0
H1294 H 0.13482 0.8025 0.81092 0.0
H1295 H 0.10793 0.79169 0.79375 0.0
H1296 H 0.53688 0.8337 0.10128 0.0
H1297 H 0.52763 0.85702 0.12367 0.0
H1298 H 0.53165 0.8989 0.08191 0.0
H1299 H 0.54103 0.87576 0.05945 0.0
H1300 H 0.54787 0.90839 0.11626 0.0
H1301 H 0.47642 0.8822 0.12369 0.0
H1302 H 0.49437 0.86558 0.12725 0.0
H1303 H 0.4912 0.87554 0.10489 0.0
C1304 C 0.53591 0.84787 0.09686 0.0
C1305 C 0.53956 0.85284 0.07853 0.0
C1306 C 0.53051 0.86116 0.10966 0.0
C1307 C 0.52868 0.87959 0.10433 0.0
C1308 C 0.53288 0.88469 0.08623 0.0
H1309 H 0.4747 0.97268 0.15435 0.0
H1310 H 0.48373 0.94667 0.13497 0.0
C1311 C 0.53823 0.87144 0.07342 0.0
C1312 C 0.52226 0.89365 0.11753 0.0
H1313 H 0.485 0.90714 0.14272 0.0
C1314 C 0.53416 0.9081 0.12211 0.0
C1315 C 0.50427 0.8933 0.12492 0.0
C1316 C 0.49072 0.87843 0.11987 0.0
C1317 C 0.52859 0.92222 0.13399 0.0
C1318 C 0.5107 0.92173 0.14159 0.0
C1319 C 0.49875 0.90734 0.13695 0.0
C1320 C 0.50409 0.93636 0.15403 0.0
C1321 C 0.54172 0.93777 0.13804 0.0
C1322 C 0.51215 0.93874 0.17136 0.0
C1323 C 0.50695 0.95347 0.18248 0.0
C1324 C 0.49359 0.96611 0.17646 0.0
C1325 C 0.48494 0.96316 0.15942 0.0
C1326 C 0.49014 0.94838 0.14831 0.0
H1327 H 0.55344 0.93806 0.12825 0.0
H1328 H 0.53451 0.95122 0.13745 0.0
H1329 H 0.54734 0.93608 0.15212 0.0
H1330 H 0.5227 0.92937 0.17613 0.0
H1331 H 0.51357 0.9551 0.1957 0.0
H1332 H 0.34397 0.21242 0.41737 0.0
H1333 H 0.36489 0.20774 0.39139 0.0
H1334 H 0.40863 0.23347 0.42209 0.0
H1335 H 0.38808 0.2375 0.44818 0.0
H1336 H 0.37944 0.23613 0.37327 0.0
H1337 H 0.43631 0.19246 0.3978 0.0
H1338 H 0.41465 0.19399 0.40984 0.0
H1339 H 0.43231 0.21098 0.41354 0.0
C1340 C 0.35821 0.21648 0.41878 0.0
C1341 C 0.36434 0.22552 0.43473 0.0
C1342 C 0.37012 0.21387 0.40391 0.0
C1343 C 0.38838 0.22009 0.40484 0.0
C1344 C 0.39475 0.22817 0.42115 0.0
H1345 H 0.47134 0.26702 0.34088 0.0
H1346 H 0.45128 0.2532 0.36396 0.0
C1347 C 0.3829 0.23074 0.43598 0.0
C1348 C 0.39999 0.22083 0.38813 0.0
H1349 H 0.44391 0.21392 0.37312 0.0
C1350 C 0.39337 0.23083 0.373 0.0
C1351 C 0.41817 0.21393 0.38782 0.0
C1352 C 0.42568 0.20208 0.40307 0.0
C1353 C 0.40486 0.23527 0.35818 0.0
C1354 C 0.42336 0.22939 0.35846 0.0
C1355 C 0.42972 0.2185 0.37305 0.0
C1356 C 0.43666 0.23598 0.34462 0.0
C1357 C 0.39746 0.24721 0.3429 0.0
C1358 C 0.4353 0.23054 0.32619 0.0
C1359 C 0.44674 0.23842 0.31292 0.0
C1360 C 0.4597 0.2519 0.31791 0.0
C1361 C 0.46146 0.25677 0.33654 0.0
C1362 C 0.45006 0.24884 0.34977 0.0
H1363 H 0.38351 0.25259 0.34599 0.0
H1364 H 0.40681 0.25901 0.34038 0.0
H1365 H 0.39669 0.23905 0.33003 0.0
H1366 H 0.42511 0.22051 0.32202 0.0
H1367 H 0.4451 0.23429 0.29872 0.0
H1368 H 0.58941 0.42451 0.52296 0.0
H1369 H 0.5964 0.43735 0.49265 0.0
H1370 H 0.54377 0.41887 0.47255 0.0
H1371 H 0.53682 0.40566 0.50257 0.0
H1372 H 0.57194 0.41351 0.44735 0.0
H1373 H 0.57244 0.4848 0.47511 0.0
H1374 H 0.58843 0.46928 0.48571 0.0
H1375 H 0.56415 0.4655 0.48826 0.0
C1376 C 0.57938 0.42306 0.51206 0.0
C1377 C 0.56246 0.41427 0.51525 0.0
C1378 C 0.58338 0.43046 0.49477 0.0
C1379 C 0.57045 0.42936 0.48048 0.0
C1380 C 0.5539 0.41993 0.48342 0.0
H1381 H 0.54332 0.47584 0.37727 0.0
H1382 H 0.54746 0.45604 0.40391 0.0
C1383 C 0.54994 0.41244 0.50063 0.0
C1384 C 0.5736 0.43878 0.46272 0.0
H1385 H 0.57764 0.48136 0.44346 0.0
C1386 C 0.57336 0.42833 0.44648 0.0
C1387 C 0.57542 0.45812 0.46165 0.0
C1388 C 0.57499 0.47014 0.47857 0.0
C1389 C 0.57456 0.43677 0.42917 0.0
C1390 C 0.57585 0.45612 0.42812 0.0
C1391 C 0.57675 0.4665 0.44435 0.0
C1392 C 0.57466 0.46614 0.41045 0.0
C1393 C 0.57426 0.42492 0.41215 0.0
C1394 C 0.58862 0.47837 0.40523 0.0
C1395 C 0.58631 0.48975 0.38992 0.0
C1396 C 0.56991 0.48924 0.37967 0.0
C1397 C 0.55625 0.47645 0.3846 0.0
C1398 C 0.55859 0.46507 0.39986 0.0
H1399 H 0.57886 0.41067 0.41518 0.0
H1400 H 0.55999 0.4242 0.40681 0.0
H1401 H 0.58317 0.43076 0.40122 0.0
H1402 H 0.60109 0.47945 0.41329 0.0
H1403 H 0.5972 0.49924 0.38637 0.0
H1404 H 0.93858 0.27661 0.75533 0.0
H1405 H 0.92622 0.28194 0.72453 0.0
H1406 H 0.8993 0.33114 0.74372 0.0
H1407 H 0.9118 0.32614 0.77444 0.0
H1408 H 0.8893 0.28335 0.71602 0.0
H1409 H 0.92339 0.34851 0.69611 0.0
H1410 H 0.93149 0.33435 0.71483 0.0
H1411 H 0.9123 0.34959 0.71812 0.0
C1412 C 0.93024 0.2887 0.75296 0.0
C1413 C 0.92618 0.30095 0.76737 0.0
C1414 C 0.9232 0.29172 0.73535 0.0
C1415 C 0.91209 0.30708 0.73179 0.0
C1416 C 0.9082 0.31944 0.74606 0.0
H1417 H 0.83607 0.34213 0.64914 0.0
H1418 H 0.85748 0.33979 0.67501 0.0
C1419 C 0.91523 0.31645 0.76367 0.0
C1420 C 0.90323 0.30935 0.71362 0.0
H1421 H 0.89724 0.33956 0.67817 0.0
C1422 C 0.89123 0.29551 0.7076 0.0
C1423 C 0.90573 0.32528 0.70275 0.0
C1424 C 0.91906 0.34021 0.70818 0.0
C1425 C 0.88112 0.29746 0.69132 0.0
C1426 C 0.88335 0.31355 0.68062 0.0
C1427 C 0.89561 0.32725 0.68643 0.0
C1428 C 0.87235 0.31661 0.66381 0.0
C1429 C 0.86761 0.2826 0.68606 0.0
C1430 C 0.87416 0.30481 0.64868 0.0
C1431 C 0.86196 0.30611 0.63392 0.0
C1432 C 0.84783 0.31931 0.63401 0.0
C1433 C 0.84685 0.33189 0.64864 0.0
C1434 C 0.85902 0.33053 0.66344 0.0
H1435 H 0.86476 0.27308 0.69765 0.0
H1436 H 0.85441 0.28869 0.68139 0.0
H1437 H 0.87335 0.27442 0.67454 0.0
H1438 H 0.88461 0.2942 0.64858 0.0
H1439 H 0.86329 0.29649 0.62264 0.0
H1440 H 0.01317 0.72687 0.03991 0.0
H1441 H 0.00253 0.69939 0.02369 0.0
H1442 H 0.04725 0.70496 0.98505 0.0
H1443 H 0.05702 0.73326 0.00049 0.0
H1444 H 0.019 0.69422 0.96762 0.0
H1445 H 0.0241 0.65022 0.02941 0.0
H1446 H 0.00799 0.66851 0.0328 0.0
H1447 H 0.03199 0.67367 0.02928 0.0
C1448 C 0.02058 0.72224 0.02785 0.0
C1449 C 0.03594 0.73199 0.02145 0.0
C1450 C 0.01464 0.70645 0.01871 0.0
C1451 C 0.02444 0.69969 0.00351 0.0
C1452 C 0.03951 0.70979 0.99682 0.0
H1453 H 0.02223 0.58738 0.96545 0.0
H1454 H 0.02729 0.61645 0.98166 0.0
C1455 C 0.0451 0.72594 0.00561 0.0
C1456 C 0.01912 0.68208 0.99462 0.0
H1457 H 0.00951 0.63698 0.00338 0.0
C1458 C 0.01703 0.68168 0.97544 0.0
C1459 C 0.01683 0.6656 0.00476 0.0
C1460 C 0.02055 0.66446 0.02516 0.0
C1461 C 0.01289 0.66532 0.96609 0.0
C1462 C 0.00973 0.64904 0.97633 0.0
C1463 C 0.01166 0.64948 0.99553 0.0
C1464 C 0.00562 0.63114 0.96738 0.0
C1465 C 0.01279 0.66561 0.94533 0.0
C1466 C 0.99141 0.62947 0.95438 0.0
C1467 C 0.98891 0.613 0.94481 0.0
C1468 C 2e-05 0.59775 0.94869 0.0
C1469 C 0.0134 0.59899 0.96249 0.0
C1470 C 0.01629 0.61559 0.97166 0.0
H1471 H 0.02097 0.67728 0.93984 0.0
H1472 H 0.01844 0.65266 0.93955 0.0
H1473 H 0.99846 0.66732 0.94039 0.0
H1474 H 0.98253 0.64101 0.95131 0.0
H1475 H 0.97853 0.61218 0.93417 0.0
H1476 H 0.75453 0.73962 0.20179 0.0
H1477 H 0.72775 0.7475 0.22049 0.0
H1478 H 0.70427 0.77699 0.17472 0.0
H1479 H 0.7309 0.76897 0.15587 0.0
H1480 H 0.70687 0.79776 0.20678 0.0
H1481 H 0.67388 0.73052 0.22053 0.0
H1482 H 0.69814 0.73051 0.22508 0.0
H1483 H 0.69003 0.73397 0.20198 0.0
C1484 C 0.74347 0.74736 0.19556 0.0
C1485 C 0.74493 0.75381 0.17742 0.0
C1486 C 0.72815 0.75185 0.20625 0.0
C1487 C 0.71399 0.76272 0.19893 0.0
C1488 C 0.71507 0.76858 0.18061 0.0
H1489 H 0.61967 0.78877 0.2698 0.0
H1490 H 0.63703 0.78154 0.24185 0.0
C1491 C 0.73035 0.76408 0.16991 0.0
C1492 C 0.69906 0.76948 0.21096 0.0
H1493 H 0.66609 0.75521 0.24109 0.0
C1494 C 0.69773 0.78849 0.21405 0.0
C1495 C 0.68701 0.75739 0.22023 0.0
C1496 C 0.68717 0.73697 0.21667 0.0
C1497 C 0.68537 0.79563 0.22699 0.0
C1498 C 0.67423 0.78343 0.23718 0.0
C1499 C 0.67477 0.76453 0.23332 0.0
C1500 C 0.66331 0.78973 0.25311 0.0
C1501 C 0.68465 0.81614 0.22998 0.0
C1502 C 0.67234 0.79688 0.26856 0.0
C1503 C 0.66252 0.80094 0.28451 0.0
C1504 C 0.64346 0.79792 0.28529 0.0
C1505 C 0.6343 0.7914 0.26956 0.0
C1506 C 0.6442 0.78719 0.25362 0.0
H1507 H 0.68966 0.82375 0.21772 0.0
H1508 H 0.67044 0.82074 0.23317 0.0
H1509 H 0.69361 0.81981 0.24177 0.0
H1510 H 0.68713 0.79866 0.26854 0.0
H1511 H 0.66995 0.80594 0.2964 0.0
H1512 H 0.68143 0.0111 0.09209 0.0
H1513 H 0.65864 0.00711 0.11601 0.0
H1514 H 0.63749 0.06141 0.10534 0.0
H1515 H 0.66094 0.06609 0.08191 0.0
H1516 H 0.63746 0.05276 0.14235 0.0
H1517 H 0.60595 0.99671 0.10108 0.0
H1518 H 0.62957 0.99288 0.10708 0.0
H1519 H 0.62359 0.01156 0.09203 0.0
C1520 C 0.67231 0.02246 0.0949 0.0
C1521 C 0.67298 0.03886 0.08456 0.0
C1522 C 0.65909 0.02002 0.10858 0.0
C1523 C 0.64606 0.03374 0.11208 0.0
C1524 C 0.64731 0.05053 0.10269 0.0
H1525 H 0.53598 0.02573 0.14995 0.0
H1526 H 0.56509 0.02812 0.13367 0.0
C1527 C 0.66067 0.0531 0.08912 0.0
C1528 C 0.63038 0.03019 0.12457 0.0
H1529 H 0.59245 0.00309 0.12977 0.0
C1530 C 0.62765 0.04185 0.1397 0.0
C1531 C 0.61753 0.01604 0.12092 0.0
C1532 C 0.61915 0.00367 0.10432 0.0
C1533 C 0.61222 0.03992 0.15115 0.0
C1534 C 0.59941 0.02573 0.1475 0.0
C1535 C 0.60238 0.01386 0.1326 0.0
C1536 C 0.58196 0.02395 0.15782 0.0
C1537 C 0.60936 0.05352 0.16654 0.0
C1538 C 0.58176 0.02054 0.17682 0.0
C1539 C 0.56504 0.01925 0.18626 0.0
C1540 C 0.54829 0.02121 0.17678 0.0
C1541 C 0.5486 0.02418 0.1577 0.0
C1542 C 0.56525 0.02555 0.14834 0.0
H1543 H 0.6183 0.06581 0.16504 0.0
H1544 H 0.59481 0.05811 0.16709 0.0
H1545 H 0.61271 0.04685 0.17984 0.0
H1546 H 0.5945 0.01887 0.18433 0.0
H1547 H 0.56525 0.01687 0.20095 0.0
H1548 H 0.24564 0.35613 0.31949 0.0
H1549 H 0.24991 0.33488 0.34511 0.0
H1550 H 0.22521 0.37436 0.38195 0.0
H1551 H 0.22211 0.39606 0.35632 0.0
H1552 H 0.25507 0.36435 0.39569 0.0
H1553 H 0.22077 0.30042 0.37459 0.0
H1554 H 0.23643 0.30707 0.35683 0.0
H1555 H 0.2172 0.32174 0.36243 0.0
C1556 C 0.24061 0.35995 0.33297 0.0
C1557 C 0.23347 0.37757 0.33605 0.0
C1558 C 0.24294 0.34778 0.34762 0.0
C1559 C 0.23762 0.35283 0.36551 0.0
C1560 C 0.2294 0.3701 0.36831 0.0
H1561 H 0.26275 0.27153 0.45132 0.0
H1562 H 0.24558 0.29173 0.43058 0.0
C1563 C 0.22754 0.38244 0.35373 0.0
C1564 C 0.24301 0.34126 0.38146 0.0
H1565 H 0.24672 0.29673 0.39567 0.0
C1566 C 0.25285 0.34961 0.39585 0.0
C1567 C 0.23987 0.32207 0.38203 0.0
C1568 C 0.22779 0.3124 0.36822 0.0
C1569 C 0.26051 0.33921 0.41014 0.0
C1570 C 0.25905 0.31982 0.40959 0.0
C1571 C 0.24826 0.31156 0.39587 0.0
C1572 C 0.26929 0.30787 0.42257 0.0
C1573 C 0.27009 0.34922 0.4256 0.0
C1574 C 0.28835 0.31004 0.4248 0.0
C1575 C 0.29808 0.29879 0.4369 0.0
C1576 C 0.28904 0.28475 0.44656 0.0
C1577 C 0.27007 0.28222 0.44399 0.0
C1578 C 0.26025 0.29376 0.43217 0.0
H1579 H 0.26403 0.36308 0.42775 0.0
H1580 H 0.26923 0.34147 0.43873 0.0
H1581 H 0.28478 0.35117 0.422 0.0
H1582 H 0.29578 0.32034 0.41704 0.0
H1583 H 0.31275 0.30089 0.43845 0.0
H1584 H 0.94042 0.0215 0.58301 0.0
H1585 H 0.96379 0.02337 0.6069 0.0
H1586 H 0.96276 0.96438 0.61279 0.0
H1587 H 0.93865 0.96244 0.58958 0.0
H1588 H 0.95915 0.98115 0.64524 0.0
H1589 H 0.01782 0.01196 0.608 0.0
H1590 H 0.99731 0.02537 0.60541 0.0
H1591 H 0.99818 0.00239 0.59624 0.0
C1592 C 0.94518 0.00889 0.5893 0.0
C1593 C 0.93745 0.99184 0.58446 0.0
C1594 C 0.95877 0.00998 0.60279 0.0
C1595 C 0.96517 0.994 0.61149 0.0
C1596 C 0.95806 0.97688 0.60618 0.0
H1597 H 0.05485 0.99862 0.69094 0.0
H1598 H 0.03558 0.99104 0.6645 0.0
C1599 C 0.94436 0.97579 0.59277 0.0
C1600 C 0.97795 0.99535 0.62727 0.0
H1601 H 0.01868 0.01409 0.64099 0.0
C1602 C 0.97228 0.98814 0.64426 0.0
C1603 C 0.99516 0.00428 0.62594 0.0
C1604 C 0.00256 0.01126 0.60786 0.0
C1605 C 0.98308 0.99017 0.66009 0.0
C1606 C -0.00023 7e-05 0.65897 0.0
C1607 C 0.00575 0.00671 0.64187 0.0
C1608 C 0.01111 0.00396 0.67541 0.0
C1609 C 0.97653 0.98161 0.67782 0.0
C1610 C 0.00374 0.01377 0.69031 0.0
C1611 C 0.01467 0.01799 0.70552 0.0
C1612 C 0.03325 0.01273 0.70594 0.0
C1613 C 0.04059 0.0029 0.69101 0.0
C1614 C 0.02961 0.99856 0.67588 0.0
H1615 H 0.96694 0.97001 0.67521 0.0
H1616 H 0.98823 0.97648 0.68617 0.0
H1617 H 0.96903 0.99209 0.68597 0.0
H1618 H 0.98961 0.01845 0.69003 0.0
H1619 H 0.00866 0.0257 0.71675 0.0
H1620 H 0.31334 0.79338 0.84161 0.0
H1621 H 0.31733 0.76213 0.82986 0.0
H1622 H 0.29281 0.74025 0.87918 0.0
H1623 H 0.28867 0.77144 0.89107 0.0
H1624 H 0.33685 0.73136 0.84743 0.0
H1625 H 0.26237 0.71827 0.83564 0.0
H1626 H 0.27159 0.74115 0.8384 0.0
H1627 H 0.26868 0.72655 0.85807 0.0
C1628 C 0.30875 0.78194 0.84997 0.0
C1629 C 0.30062 0.78491 0.86725 0.0
C1630 C 0.31112 0.76411 0.84326 0.0
C1631 C 0.30525 0.74896 0.85362 0.0
C1632 C 0.29726 0.75182 0.87092 0.0
H1633 H 0.29698 0.6336 0.82368 0.0
H1634 H 0.29792 0.66221 0.84135 0.0
C1635 C 0.29494 0.76965 0.87769 0.0
C1636 C 0.3073 0.73019 0.84616 0.0
H1637 H 0.28275 0.69395 0.82942 0.0
C1638 C 0.32505 0.72311 0.84353 0.0
C1639 C 0.29186 0.71952 0.84119 0.0
C1640 C 0.27252 0.72673 0.84331 0.0
C1641 C 0.32777 0.70554 0.83603 0.0
C1642 C 0.31232 0.69501 0.83068 0.0
C1643 C 0.29458 0.70202 0.83359 0.0
C1644 C 0.31409 0.67704 0.82126 0.0
C1645 C 0.34713 0.69836 0.83407 0.0
C1646 C 0.32316 0.67578 0.80427 0.0
C1647 C 0.3227 0.65942 0.7942 0.0
C1648 C 0.3129 0.64415 0.80082 0.0
C1649 C 0.30446 0.64523 0.81817 0.0
C1650 C 0.30503 0.66152 0.82828 0.0
H1651 H 0.35665 0.70524 0.84384 0.0
H1652 H 0.34772 0.68329 0.83645 0.0
H1653 H 0.35211 0.70119 0.81993 0.0
H1654 H 0.32986 0.68769 0.79837 0.0
H1655 H 0.32909 0.65909 0.78077 0.0
H1656 H 0.18586 0.51139 0.00984 0.0
H1657 H 0.1588 0.50798 0.99026 0.0
H1658 H 0.17788 0.55239 0.95594 0.0
H1659 H 0.20532 0.5554 0.97497 0.0
H1660 H 0.13344 0.53529 0.98616 0.0
H1661 H 0.16085 0.51522 0.9179 0.0
H1662 H 0.17428 0.51352 0.93872 0.0
H1663 H 0.17159 0.53532 0.92737 0.0
C1664 C 0.18459 0.52009 0.99784 0.0
C1665 C 0.19771 0.53378 0.99409 0.0
C1666 C 0.16906 0.51818 0.98672 0.0
C1667 C 0.16639 0.52984 0.97157 0.0
C1668 C 0.17979 0.54304 0.96736 0.0
H1669 H 0.07138 0.5575 0.90483 0.0
H1670 H 0.10221 0.55552 0.91835 0.0
C1671 C 0.19536 0.54492 0.97844 0.0
C1672 C 0.14872 0.52952 0.96147 0.0
H1673 H 0.12953 0.52513 0.91881 0.0
C1674 C 0.13258 0.53288 0.97146 0.0
C1675 C 0.14767 0.52659 0.94226 0.0
C1676 C 0.1645 0.52229 0.93094 0.0
C1677 C 0.11542 0.53363 0.96277 0.0
C1678 C 0.11435 0.53069 0.94359 0.0
C1679 C 0.13046 0.52737 0.93352 0.0
C1680 C 0.09648 0.53087 0.93395 0.0
C1681 C 0.09858 0.53791 0.97411 0.0
C1682 C 0.08332 0.51738 0.93791 0.0
C1683 C 0.06575 0.51849 0.93032 0.0
C1684 C 0.06104 0.53308 0.91854 0.0
C1685 C 0.07454 0.54615 0.91395 0.0
C1686 C 0.09215 0.54503 0.9216 0.0
H1687 H 0.10221 0.54385 0.98771 0.0
H1688 H 0.08943 0.54769 0.96678 0.0
H1689 H 0.09075 0.52504 0.97652 0.0
H1690 H 0.08652 0.50622 0.94724 0.0
H1691 H 0.05577 0.50808 0.934 0.0
H1692 H 0.79184 0.82857 0.13962 0.0
H1693 H 0.79313 0.86043 0.15037 0.0
H1694 H 0.79604 0.84145 0.20646 0.0
H1695 H 0.79459 0.80963 0.19592 0.0
H1696 H 0.77157 0.87115 0.20083 0.0
H1697 H 0.84069 0.88414 0.17068 0.0
H1698 H 0.82332 0.87591 0.15513 0.0
H1699 H 0.83139 0.86128 0.17329 0.0
C1700 C 0.79261 0.83116 0.15425 0.0
C1701 C 0.79327 0.81654 0.16691 0.0
C1702 C 0.79345 0.84938 0.16035 0.0
C1703 C 0.79498 0.85324 0.17918 0.0
C1704 C 0.79496 0.83872 0.19186 0.0
H1705 H 0.83259 0.94168 0.24537 0.0
H1706 H 0.82884 0.91441 0.22617 0.0
C1707 C 0.79415 0.82054 0.18579 0.0
C1708 C 0.79703 0.87234 0.18585 0.0
H1709 H 0.82699 0.90847 0.18709 0.0
C1710 C 0.78357 0.87942 0.19769 0.0
C1711 C 0.81283 0.88295 0.18182 0.0
C1712 C 0.82799 0.87571 0.16965 0.0
C1713 C 0.78564 0.89672 0.20593 0.0
C1714 C 0.80148 0.90729 0.202 0.0
C1715 C 0.8148 0.90037 0.1899 0.0
C1716 C 0.80512 0.92484 0.21158 0.0
C1717 C 0.77124 0.90323 0.21938 0.0
C1718 C 0.79347 0.94 0.20919 0.0
C1719 C 0.79562 0.95566 0.2201 0.0
C1720 C 0.8095 0.95642 0.23357 0.0
C1721 C 0.82185 0.94163 0.23508 0.0
C1722 C 0.81968 0.92599 0.22417 0.0
H1723 H 0.76167 0.89203 0.22343 0.0
H1724 H 0.77778 0.90884 0.23199 0.0
H1725 H 0.76304 0.91439 0.21299 0.0
H1726 H 0.78236 0.93949 0.19927 0.0
H1727 H 0.78613 0.96697 0.21832 0.0
H1728 H 0.49749 0.5377 0.36568 0.0
H1729 H 0.47322 0.5514 0.38434 0.0
H1730 H 0.49542 0.60543 0.3738 0.0
H1731 H 0.52043 0.59161 0.35601 0.0
H1732 H 0.4862 0.60371 0.40755 0.0
H1733 H 0.42782 0.57603 0.36813 0.0
H1734 H 0.44191 0.55739 0.3758 0.0
H1735 H 0.45115 0.57415 0.36 0.0
C1736 C 0.49714 0.5525 0.36731 0.0
C1737 C 0.51076 0.56362 0.35937 0.0
C1738 C 0.48316 0.56035 0.37782 0.0
C1739 C 0.48213 0.57952 0.38004 0.0
C1740 C 0.49582 0.59063 0.37217 0.0
H1741 H 0.38003 0.61236 0.43382 0.0
H1742 H 0.40492 0.61245 0.41105 0.0
C1743 C 0.5101 0.58273 0.36203 0.0
C1744 C 0.46721 0.58777 0.39127 0.0
H1745 H 0.42124 0.58475 0.39958 0.0
C1746 C 0.47193 0.59984 0.4056 0.0
C1747 C 0.4485 0.58328 0.38843 0.0
C1748 C 0.44206 0.57218 0.3721 0.0
C1749 C 0.45861 0.6066 0.4178 0.0
C1750 C 0.44021 0.60047 0.41615 0.0
C1751 C 0.43536 0.58929 0.40116 0.0
C1752 C 0.42604 0.60417 0.4304 0.0
C1753 C 0.4645 0.62025 0.43228 0.0
C1754 C 0.42965 0.60013 0.44897 0.0
C1755 C 0.41557 0.60076 0.46198 0.0
C1756 C 0.39754 0.60481 0.45657 0.0
C1757 C 0.39394 0.60939 0.43821 0.0
C1758 C 0.40812 0.60932 0.42526 0.0
H1759 H 0.47588 0.62904 0.42713 0.0
H1760 H 0.45298 0.62926 0.43661 0.0
H1761 H 0.46975 0.61271 0.44446 0.0
H1762 H 0.4431 0.59544 0.45327 0.0
H1763 H 0.41846 0.59674 0.47603 0.0
H1764 H 0.79749 0.23876 0.62 0.0
H1765 H 0.7886 0.2139 0.64078 0.0
H1766 H 0.78271 0.25285 0.68508 0.0
H1767 H 0.79135 0.27785 0.66437 0.0
H1768 H 0.80353 0.20197 0.67451 0.0
H1769 H 0.73212 0.22773 0.68273 0.0
H1770 H 0.74733 0.23596 0.66494 0.0
H1771 H 0.74969 0.24423 0.6881 0.0
C1772 C 0.79448 0.24205 0.6342 0.0
C1773 C 0.79492 0.26033 0.64047 0.0
C1774 C 0.78937 0.22782 0.64604 0.0
C1775 C 0.7846 0.23163 0.66432 0.0
C1776 C 0.78591 0.24971 0.67088 0.0
H1777 H 0.74903 0.1656 0.75663 0.0
H1778 H 0.75661 0.19063 0.73548 0.0
C1779 C 0.79098 0.26395 0.65905 0.0
C1780 C 0.77797 0.21672 0.67646 0.0
H1781 H 0.74088 0.20257 0.70153 0.0
C1782 C 0.78982 0.20203 0.68037 0.0
C1783 C 0.76005 0.21689 0.68403 0.0
C1784 C 0.74647 0.23195 0.67964 0.0
C1785 C 0.78435 0.18763 0.69196 0.0
C1786 C 0.76644 0.18782 0.69956 0.0
C1787 C 0.75458 0.2025 0.69565 0.0
C1788 C 0.75992 0.17295 0.7118 0.0
C1789 C 0.79792 0.17254 0.69631 0.0
C1790 C 0.75851 0.15487 0.70527 0.0
C1791 C 0.7541 0.14058 0.71729 0.0
C1792 C 0.75093 0.14412 0.73603 0.0
C1793 C 0.75126 0.16242 0.74227 0.0
C1794 C 0.75571 0.17672 0.73023 0.0
H1795 H 0.81225 0.17666 0.69302 0.0
H1796 H 0.79721 0.16866 0.71106 0.0
H1797 H 0.79454 0.1602 0.68801 0.0
H1798 H 0.76128 0.15176 0.69098 0.0
H1799 H 0.75361 0.12667 0.71202 0.0
H1800 H 0.21683 0.62278 0.02308 0.0
H1801 H 0.19686 0.64967 0.0258 0.0
H1802 H 0.15341 0.61542 0.0471 0.0
H1803 H 0.17316 0.58841 0.04421 0.0
H1804 H 0.14132 0.64129 0.02133 0.0
H1805 H 0.18447 0.67341 0.07552 0.0
H1806 H 0.19659 0.66786 0.05474 0.0
H1807 H 0.18714 0.64973 0.06861 0.0
C1808 C 0.20299 0.62092 0.02821 0.0
C1809 C 0.19665 0.60346 0.0336 0.0
C1810 C 0.19163 0.63633 0.02985 0.0
C1811 C 0.17381 0.63456 0.037 0.0
C1812 C 0.16719 0.61708 0.04168 0.0
H1813 H 0.10476 0.72123 0.08163 0.0
H1814 H 0.12373 0.69379 0.07703 0.0
C1815 C 0.17851 0.60166 0.04002 0.0
C1816 C 0.16215 0.65097 0.03999 0.0
H1817 H 0.15977 0.69125 0.06396 0.0
C1818 C 0.14532 0.65223 0.03064 0.0
C1819 C 0.1673 0.66504 0.0524 0.0
C1820 C 0.18477 0.66394 0.06354 0.0
C1821 C 0.13362 0.66736 0.03315 0.0
C1822 C 0.13905 0.6817 0.04512 0.0
C1823 C 0.15574 0.6803 0.05468 0.0
C1824 C 0.12762 0.69831 0.04788 0.0
C1825 C 0.11541 0.66772 0.02321 0.0
C1826 C 0.12382 0.71007 0.0331 0.0
C1827 C 0.11307 0.72574 0.0357 0.0
C1828 C 0.10598 0.73003 0.05318 0.0
C1829 C 0.1101 0.71838 0.06804 0.0
C1830 C 0.12086 0.70267 0.06542 0.0
H1831 H 0.11124 0.65379 0.01853 0.0
H1832 H 0.10441 0.67339 0.03214 0.0
H1833 H 0.1166 0.67665 0.0109 0.0
H1834 H 0.12931 0.7072 0.01956 0.0
H1835 H 0.11053 0.73462 0.02404 0.0
H1836 H 0.65466 0.98202 0.04703 0.0
H1837 H 0.64206 0.95105 0.04864 0.0
H1838 H 0.69687 0.92844 0.04837 0.0
H1839 H 0.70967 0.95953 0.04647 0.0
H1840 H 0.67455 0.91274 0.02241 0.0
H1841 H 0.63906 0.91337 0.08954 0.0
H1842 H 0.63275 0.93286 0.07583 0.0
H1843 H 0.65618 0.93026 0.08339 0.0
C1844 C 0.66409 0.97051 0.0476 0.0
C1845 C 0.68318 0.97324 0.04653 0.0
C1846 C 0.65684 0.95279 0.04867 0.0
C1847 C 0.66852 0.93745 0.04886 0.0
C1848 C 0.68763 0.94012 0.04836 0.0
H1849 H 0.61256 0.83118 0.05803 0.0
H1850 H 0.63545 0.85534 0.06289 0.0
C1851 C 0.69491 0.95789 0.04732 0.0
C1852 C 0.66057 0.91874 0.04783 0.0
H1853 H 0.62787 0.89136 0.06727 0.0
C1854 C 0.6646 0.90788 0.0324 0.0
C1855 C 0.64782 0.91228 0.061 0.0
C1856 C 0.64385 0.92273 0.07847 0.0
C1857 C 0.65535 0.89125 0.0292 0.0
C1858 C 0.6415 0.88557 0.0416 0.0
C1859 C 0.63832 0.89585 0.05762 0.0
C1860 C 0.62923 0.86979 0.03765 0.0
C1861 C 0.66031 0.88011 0.01243 0.0
C1862 C 0.61825 0.8698 0.02176 0.0
C1863 C 0.60517 0.85603 0.01896 0.0
C1864 C 0.60264 0.84213 0.03213 0.0
C1865 C 0.61402 0.84185 0.04777 0.0
C1866 C 0.62716 0.85559 0.05052 0.0
H1867 H 0.67472 0.88274 0.00811 0.0
H1868 H 0.65859 0.86516 0.01498 0.0
H1869 H 0.65119 0.88412 0.00088 0.0
H1870 H 0.61927 0.88088 0.01187 0.0
H1871 H 0.59644 0.85677 0.00694 0.0
H1872 H 0.43051 0.32153 0.23999 0.0
H1873 H 0.40268 0.34031 0.23953 0.0
H1874 H 0.41218 0.35604 0.29586 0.0
H1875 H 0.43969 0.33695 0.2967 0.0
H1876 H 0.37259 0.33407 0.26586 0.0
H1877 H 0.40037 0.40527 0.2678 0.0
H1878 H 0.41374 0.3859 0.25982 0.0
H1879 H 0.41007 0.38926 0.28398 0.0
C1880 C 0.42676 0.32899 0.25229 0.0
C1881 C 0.43736 0.32755 0.26842 0.0
C1882 C 0.41092 0.33983 0.25194 0.0
C1883 C 0.40551 0.34963 0.26761 0.0
C1884 C 0.41632 0.34878 0.28353 0.0
H1885 H 0.31168 0.41317 0.30172 0.0
H1886 H 0.34165 0.39855 0.29791 0.0
C1887 C 0.43211 0.33785 0.28395 0.0
C1888 C 0.38771 0.35941 0.26786 0.0
H1889 H 0.36823 0.40186 0.272 0.0
C1890 C 0.37158 0.34891 0.26703 0.0
C1891 C 0.38657 0.3787 0.26959 0.0
C1892 C 0.40358 0.39053 0.27023 0.0
C1893 C 0.35422 0.35717 0.26837 0.0
C1894 C 0.353 0.37652 0.27001 0.0
C1895 C 0.36919 0.38704 0.27066 0.0
C1896 C 0.33507 0.38603 0.27173 0.0
C1897 C 0.33741 0.345 0.26872 0.0
C1898 C 0.32154 0.38415 0.2581 0.0
C1899 C 0.30429 0.39232 0.26033 0.0
C1900 C 0.3004 0.40278 0.2761 0.0
C1901 C 0.31422 0.40517 0.28942 0.0
C1902 C 0.33137 0.39685 0.28726 0.0
H1903 H 0.34092 0.3306 0.27244 0.0
H1904 H 0.32705 0.35019 0.27865 0.0
H1905 H 0.33106 0.3448 0.25485 0.0
H1906 H 0.32427 0.37626 0.24577 0.0
H1907 H 0.29403 0.39042 0.24971 0.0
H1908 H 0.02512 0.14751 0.49321 0.0
H1909 H 0.00168 0.1234 0.49272 0.0
H1910 H 0.96565 0.15768 0.525 0.0
H1911 H 0.98906 0.18179 0.52559 0.0
H1912 H 0.97105 0.12375 0.54008 0.0
H1913 H 0.95272 0.1167 0.4664 0.0
H1914 H 0.97699 0.11555 0.47077 0.0
H1915 H 0.96471 0.13652 0.47536 0.0
C1916 C 0.01203 0.15008 0.4998 0.0
C1917 C 0.00897 0.16648 0.50955 0.0
C1918 C 0.99862 0.13631 0.49947 0.0
C1919 C 0.98186 0.13881 0.50868 0.0
C1920 C 0.97849 0.15548 0.51778 0.0
H1921 H 0.89298 0.06503 0.53942 0.0
H1922 H 0.91137 0.09218 0.53225 0.0
C1923 C 0.99191 0.16919 0.51819 0.0
C1924 C 0.96868 0.1234 0.51057 0.0
H1925 H 0.94269 0.09263 0.48642 0.0
C1926 C 0.96469 0.11708 0.52835 0.0
C1927 C 0.96054 0.11464 0.49523 0.0
C1928 C 0.9638 0.12129 0.47587 0.0
C1929 C 0.95307 0.102 0.53123 0.0
C1930 C 0.945 0.09317 0.51592 0.0
C1931 C 0.94889 0.09949 0.49811 0.0
C1932 C 0.93282 0.07707 0.51828 0.0
C1933 C 0.94993 0.09531 0.55063 0.0
C1934 C 0.93848 0.05969 0.51215 0.0
C1935 C 0.92796 0.04412 0.51617 0.0
C1936 C 0.9116 0.0457 0.52634 0.0
C1937 C 0.90557 0.06328 0.53169 0.0
C1938 C 0.91607 0.07883 0.52765 0.0
H1939 H 0.96025 0.10097 0.56037 0.0
H1940 H 0.93611 0.09974 0.5553 0.0
H1941 H 0.95047 0.08007 0.55127 0.0
H1942 H 0.95136 0.0581 0.50485 0.0
H1943 H 0.93296 0.0308 0.51178 0.0
H1944 H 0.25738 0.66441 0.75261 0.0
H1945 H 0.23021 0.68374 0.74948 0.0
H1946 H 0.19761 0.64277 0.77731 0.0
H1947 H 0.22473 0.62307 0.78017 0.0
H1948 H 0.18214 0.65391 0.74504 0.0
H1949 H 0.2023 0.71461 0.78631 0.0
H1950 H 0.21915 0.70875 0.7693 0.0
H1951 H 0.21433 0.69295 0.78773 0.0
C1952 C 0.24451 0.65959 0.75834 0.0
C1953 C 0.24321 0.64217 0.7666 0.0
C1954 C 0.22901 0.67073 0.75662 0.0
C1955 C 0.21195 0.66478 0.76334 0.0
C1956 C 0.21069 0.64763 0.77209 0.0
H1957 H 0.11518 0.73402 0.76704 0.0
H1958 H 0.14117 0.71414 0.77429 0.0
C1959 C 0.2262 0.63642 0.77376 0.0
C1960 C 0.19525 0.67588 0.75997 0.0
H1961 H 0.17702 0.71869 0.76565 0.0
C1962 C 0.18092 0.66802 0.74969 0.0
C1963 C 0.19365 0.69422 0.76618 0.0
C1964 C 0.2081 0.70308 0.77815 0.0
C1965 C 0.16518 0.67817 0.7451 0.0
C1966 C 0.16397 0.69677 0.7506 0.0
C1967 C 0.17811 0.70449 0.76123 0.0
C1968 C 0.14795 0.7084 0.74591 0.0
C1969 C 0.14992 0.66879 0.73462 0.0
C1970 C 0.14315 0.71181 0.7275 0.0
C1971 C 0.12822 0.72319 0.72331 0.0
C1972 C 0.11812 0.73158 0.73744 0.0
C1973 C 0.12296 0.72809 0.75583 0.0
C1974 C 0.13773 0.71664 0.76001 0.0
H1975 H 0.1507 0.65359 0.73593 0.0
H1976 H 0.13623 0.67342 0.73953 0.0
H1977 H 0.15112 0.67229 0.71982 0.0
H1978 H 0.15109 0.70588 0.7164 0.0
H1979 H 0.12479 0.72577 0.70906 0.0
H1980 H 0.47624 0.43631 0.54854 0.0
H1981 H 0.45123 0.45832 0.54655 0.0
H1982 H 0.47556 0.49028 0.59019 0.0
H1983 H 0.50098 0.46809 0.59221 0.0
H1984 H 0.42579 0.46963 0.57223 0.0
H1985 H 0.46981 0.5278 0.54886 0.0
H1986 H 0.47808 0.50444 0.54958 0.0
H1987 H 0.47584 0.51742 0.57045 0.0
C1988 C 0.47621 0.44783 0.55795 0.0
C1989 C 0.49058 0.45041 0.57061 0.0
C1990 C 0.46191 0.46046 0.55672 0.0
C1991 C 0.46161 0.476 0.5681 0.0
C1992 C 0.47571 0.47852 0.58106 0.0
H1993 H 0.38174 0.5654 0.55309 0.0
H1994 H 0.40466 0.54557 0.56773 0.0
C1995 C 0.49018 0.46586 0.58223 0.0
C1996 C 0.44667 0.48959 0.5657 0.0
H1997 H 0.43794 0.5327 0.54933 0.0
C1998 C 0.42844 0.48351 0.56748 0.0
C1999 C 0.45019 0.50769 0.55951 0.0
C2000 C 0.46951 0.51478 0.55683 0.0
C2001 C 0.41363 0.4948 0.56249 0.0
C2002 C 0.41721 0.51254 0.5555 0.0
C2003 C 0.43534 0.51902 0.55468 0.0
C2004 C 0.4025 0.52396 0.54744 0.0
C2005 C 0.3943 0.48751 0.56429 0.0
C2006 C 0.39382 0.51833 0.53117 0.0
C2007 C 0.38085 0.52965 0.52268 0.0
C2008 C 0.37632 0.54679 0.53037 0.0
C2009 C 0.38487 0.55225 0.54685 0.0
C2010 C 0.39796 0.54097 0.55524 0.0
H2011 H 0.39357 0.47585 0.57412 0.0
H2012 H 0.38476 0.49849 0.5689 0.0
H2013 H 0.38954 0.48253 0.55067 0.0
H2014 H 0.39739 0.50535 0.52481 0.0
H2015 H 0.37459 0.52505 0.50999 0.0
H2016 H 0.78918 0.11677 0.83782 0.0
H2017 H 0.81195 0.13948 0.84788 0.0
H2018 H 0.83124 0.14475 0.792 0.0
H2019 H 0.80938 0.12138 0.78216 0.0
H2020 H 0.85895 0.14561 0.81396 0.0
H2021 H 0.8061 0.19327 0.84146 0.0
H2022 H 0.80639 0.17139 0.85279 0.0
H2023 H 0.80016 0.1728 0.82886 0.0
C2024 C 0.79843 0.12268 0.82777 0.0
C2025 C 0.79746 0.11742 0.80921 0.0
C2026 C 0.81131 0.13578 0.83348 0.0
C2027 C 0.82298 0.14423 0.82062 0.0
C2028 C 0.82235 0.1385 0.80219 0.0
H2029 H 0.8725 0.25039 0.82079 0.0
H2030 H 0.85229 0.22351 0.82059 0.0
C2031 C 0.80984 0.12513 0.79657 0.0
C2032 C 0.83564 0.15931 0.826 0.0
H2033 H 0.837 0.20235 0.84467 0.0
C2034 C 0.85416 0.15801 0.82072 0.0
C2035 C 0.82934 0.17556 0.83468 0.0
C2036 C 0.80939 0.17847 0.83962 0.0
C2037 C 0.86639 0.1727 0.8232 0.0
C2038 C 0.86015 0.18887 0.83209 0.0
C2039 C 0.8418 0.18991 0.83798 0.0
C2040 C 0.87191 0.20545 0.83393 0.0
C2041 C 0.88551 0.17105 0.81528 0.0
C2042 C 0.88942 0.20446 0.84201 0.0
C2043 C 0.9011 0.21971 0.84168 0.0
C2044 C 0.89518 0.23635 0.83391 0.0
C2045 C 0.87726 0.23771 0.82697 0.0
C2046 C 0.86576 0.22235 0.82685 0.0
H2047 H 0.88632 0.16012 0.80464 0.0
H2048 H 0.89005 0.18419 0.80898 0.0
H2049 H 0.89528 0.16738 0.82641 0.0
H2050 H 0.89424 0.1918 0.84814 0.0
H2051 H 0.91484 0.2185 0.84727 0.0
H2052 H 0.66734 0.8484 0.35459 0.0
H2053 H 0.68634 0.87378 0.34331 0.0
H2054 H 0.64198 0.89161 0.30825 0.0
H2055 H 0.62284 0.86647 0.31964 0.0
H2056 H 0.67569 0.88576 0.28987 0.0
H2057 H 0.68423 0.93005 0.35142 0.0
H2058 H 0.68896 0.90612 0.35535 0.0
H2059 H 0.66606 0.91323 0.34942 0.0
C2060 C 0.66147 0.858 0.34486 0.0
C2061 C 0.64364 0.85533 0.33789 0.0
C2062 C 0.67234 0.87248 0.3384 0.0
C2063 C 0.66552 0.88458 0.325 0.0
C2064 C 0.6475 0.88239 0.31858 0.0
H2065 H 0.72917 0.97921 0.28653 0.0
H2066 H 0.70305 0.95987 0.29536 0.0
C2067 C 0.63662 0.86796 0.32503 0.0
C2068 C 0.67768 0.8985 0.31654 0.0
H2069 H 0.70468 0.93557 0.32633 0.0
C2070 C 0.68188 0.89679 0.29778 0.0
C2071 C 0.68555 0.91296 0.32686 0.0
C2072 C 0.68087 0.91587 0.34684 0.0
C2073 C 0.69434 0.90875 0.28922 0.0
C2074 C 0.70288 0.92265 0.29975 0.0
C2075 C 0.69813 0.92483 0.31832 0.0
C2076 C 0.71776 0.93423 0.29215 0.0
C2077 C 0.69844 0.9063 0.26904 0.0
C2078 C 0.73452 0.92615 0.28713 0.0
C2079 C 0.74944 0.93712 0.28214 0.0
C2080 C 0.74785 0.95637 0.2821 0.0
C2081 C 0.73078 0.96441 0.28629 0.0
C2082 C 0.71588 0.95341 0.29144 0.0
H2083 H 0.68732 0.8986 0.26193 0.0
H2084 H 0.70028 0.9198 0.26215 0.0
H2085 H 0.71139 0.89838 0.26749 0.0
H2086 H 0.73632 0.91138 0.28784 0.0
H2087 H 0.76242 0.93053 0.27897 0.0
H2088 H 0.0047 0.07152 0.74932 0.0
H2089 H 0.98535 0.09892 0.74606 0.0
H2090 H 0.02353 0.1298 0.77928 0.0
H2091 H 0.04288 0.1026 0.78268 0.0
H2092 H 0.96937 0.11932 0.77594 0.0
H2093 H 0.01498 0.16242 0.73308 0.0
H2094 H 0.01712 0.13767 0.73433 0.0
H2095 H 0.02706 0.15197 0.75191 0.0
C2096 C 0.009 0.08418 0.75586 0.0
C2097 C 0.02529 0.08494 0.7663 0.0
C2098 C 0.99797 0.09979 0.75392 0.0
C2099 C 0.00324 0.11638 0.76214 0.0
C2100 C 0.01947 0.11716 0.77252 0.0
H2101 H 0.9699 0.20297 0.81977 0.0
H2102 H 0.97394 0.17323 0.80501 0.0
C2103 C 0.03041 0.10158 0.7746 0.0
C2104 C 0.99132 0.13273 0.76123 0.0
H2105 H 0.99403 0.17878 0.75339 0.0
C2106 C 0.97444 0.13226 0.77052 0.0
C2107 C 0.99773 0.14945 0.75374 0.0
C2108 C 0.01514 0.1504 0.74252 0.0
C2109 C 0.96487 0.14853 0.77436 0.0
C2110 C 0.97256 0.16552 0.76892 0.0
C2111 C 0.98828 0.16574 0.75776 0.0
C2112 C 0.967 0.18291 0.77773 0.0
C2113 C 0.94726 0.14752 0.78524 0.0
C2114 C 0.96182 0.19825 0.76723 0.0
C2115 C 0.95948 0.21536 0.7757 0.0
C2116 C 0.96272 0.21733 0.79465 0.0
C2117 C 0.96741 0.20185 0.80513 0.0
C2118 C 0.96949 0.18479 0.79675 0.0
H2119 H 0.93987 0.13444 0.78247 0.0
H2120 H 0.95054 0.14792 0.80014 0.0
H2121 H 0.93803 0.15924 0.78199 0.0
H2122 H 0.96013 0.19707 0.75249 0.0
H2123 H 0.95595 0.22716 0.76733 0.0
H2124 H 0.0949 0.77625 0.98446 0.0
H2125 H 0.12079 0.77692 0.96281 0.0
H2126 H 0.15165 0.81043 0.00076 0.0
H2127 H 0.126 0.80992 0.02234 0.0
H2128 H 0.13764 0.81043 0.94782 0.0
H2129 H 0.18662 0.76694 0.98675 0.0
H2130 H 0.16208 0.76628 0.99057 0.0
H2131 H 0.17574 0.78432 0.00052 0.0
C2132 C 0.10727 0.78365 0.98821 0.0
C2133 C 0.10845 0.79304 0.00508 0.0
C2134 C 0.12199 0.78402 0.97585 0.0
C2135 C 0.13813 0.79352 0.98036 0.0
C2136 C 0.13937 0.80278 0.9972 0.0
H2137 H 0.2243 0.85073 0.93153 0.0
H2138 H 0.19505 0.83905 0.94309 0.0
C2139 C 0.12466 0.80257 0.00946 0.0
C2140 C 0.15354 0.79473 0.96725 0.0
H2141 H 0.19969 0.78738 0.96431 0.0
C2142 C 0.15115 0.80507 0.95117 0.0
C2143 C 0.17102 0.78747 0.97156 0.0
C2144 C 0.17404 0.77547 0.9882 0.0
C2145 C 0.16618 0.80952 0.93994 0.0
C2146 C 0.18394 0.80359 0.94514 0.0
C2147 C 0.18607 0.79207 0.96047 0.0
C2148 C 0.20069 0.81067 0.93612 0.0
C2149 C 0.16301 0.82097 0.92295 0.0
C2150 C 0.21358 0.79855 0.9285 0.0
C2151 C 0.23037 0.80518 0.92196 0.0
C2152 C 0.23459 0.82402 0.92316 0.0
C2153 C 0.22146 0.83616 0.93042 0.0
C2154 C 0.20467 0.82953 0.93687 0.0
H2155 H 0.14876 0.81932 0.91773 0.0
H2156 H 0.16506 0.83569 0.92639 0.0
H2157 H 0.17281 0.81722 0.91186 0.0
H2158 H 0.21081 0.78393 0.92798 0.0
H2159 H 0.24023 0.79547 0.91645 0.0
H2160 H 0.53479 0.97108 0.23667 0.0
H2161 H 0.54338 0.94216 0.25135 0.0
H2162 H 0.50162 0.95039 0.2926 0.0
H2163 H 0.49297 0.97954 0.27808 0.0
H2164 H 0.5368 0.93979 0.30648 0.0
H2165 H 0.51312 0.89419 0.25012 0.0
H2166 H 0.52804 0.91239 0.24266 0.0
H2167 H 0.50588 0.91786 0.25213 0.0
C2168 C 0.52741 0.96677 0.24886 0.0
C2169 C 0.51315 0.97756 0.25619 0.0
C2170 C 0.53226 0.95019 0.25715 0.0
C2171 C 0.52291 0.94406 0.27285 0.0
C2172 C 0.50888 0.95489 0.28039 0.0
H2173 H 0.54493 0.84602 0.33979 0.0
H2174 H 0.53104 0.87439 0.32806 0.0
C2175 C 0.50397 0.9715 0.27208 0.0
C2176 C 0.52814 0.92647 0.28151 0.0
H2177 H 0.53256 0.88063 0.2728 0.0
C2178 C 0.53567 0.92679 0.29927 0.0
C2179 C 0.52657 0.9096 0.27201 0.0
C2180 C 0.51781 0.90839 0.25324 0.0
C2181 C 0.54249 0.91072 0.30746 0.0
C2182 C 0.54142 0.89394 0.2977 0.0
C2183 C 0.53338 0.89355 0.28018 0.0
C2184 C 0.54956 0.87681 0.30492 0.0
C2185 C 0.55145 0.9119 0.32613 0.0
C2186 C 0.56431 0.86869 0.29557 0.0
C2187 C 0.57219 0.85251 0.30214 0.0
C2188 C 0.5654 0.84411 0.31816 0.0
C2189 C 0.55051 0.85221 0.32745 0.0
C2190 C 0.54261 0.86844 0.32084 0.0
H2191 H 0.55427 0.92635 0.33023 0.0
H2192 H 0.54219 0.90573 0.33656 0.0
H2193 H 0.56457 0.90411 0.32631 0.0
H2194 H 0.56982 0.87497 0.28324 0.0
H2195 H 0.58366 0.84665 0.29467 0.0
H2196 H 0.49497 0.39356 0.50472 0.0
H2197 H 0.47276 0.38778 0.48002 0.0
H2198 H 0.43469 0.36558 0.51973 0.0
H2199 H 0.45654 0.37147 0.54428 0.0
H2200 H 0.46206 0.35408 0.47066 0.0
H2201 H 0.39981 0.3931 0.48707 0.0
H2202 H 0.42203 0.39934 0.49634 0.0
H2203 H 0.40772 0.38267 0.5079 0.0
C2204 C 0.48163 0.38794 0.50821 0.0
C2205 C 0.47749 0.38284 0.52641 0.0
C2206 C 0.46897 0.38468 0.49409 0.0
C2207 C 0.45193 0.37656 0.49805 0.0
C2208 C 0.4475 0.37237 0.51637 0.0
H2209 H 0.40254 0.28593 0.48532 0.0
H2210 H 0.42398 0.31089 0.48008 0.0
C2211 C 0.46012 0.37551 0.53041 0.0
C2212 C 0.43996 0.36938 0.48325 0.0
H2213 H 0.39452 0.36056 0.47695 0.0
C2214 C 0.44729 0.356 0.47143 0.0
C2215 C 0.42076 0.37231 0.48353 0.0
C2216 C 0.41221 0.38783 0.49426 0.0
C2217 C 0.43576 0.34349 0.46238 0.0
C2218 C 0.41661 0.34424 0.46567 0.0
C2219 C 0.40925 0.35954 0.47485 0.0
C2220 C 0.40497 0.32759 0.4643 0.0
C2221 C 0.44433 0.32867 0.4507 0.0
C2222 C 0.38709 0.32845 0.45705 0.0
C2223 C 0.37465 0.31412 0.46025 0.0
C2224 C 0.3799 0.2989 0.47096 0.0
C2225 C 0.39811 0.29753 0.4771 0.0
C2226 C 0.41049 0.31173 0.47385 0.0
H2227 H 0.45584 0.33443 0.44249 0.0
H2228 H 0.45019 0.31786 0.45974 0.0
H2229 H 0.43418 0.3223 0.44124 0.0
H2230 H 0.38246 0.34064 0.44986 0.0
H2231 H 0.36063 0.31554 0.45542 0.0
H2232 H 0.50377 0.45976 0.30627 0.0
H2233 H 0.48673 0.43375 0.31811 0.0
H2234 H 0.48381 0.45945 0.37152 0.0
H2235 H 0.50139 0.48573 0.35966 0.0
H2236 H 0.49651 0.42596 0.37468 0.0
H2237 H 0.43555 0.41996 0.3315 0.0
H2238 H 0.45411 0.42496 0.31617 0.0
H2239 H 0.44785 0.44147 0.33366 0.0
C2240 C 0.49926 0.46009 0.32046 0.0
C2241 C 0.50407 0.47469 0.33207 0.0
C2242 C 0.48919 0.4453 0.32717 0.0
C2243 C 0.48352 0.4448 0.34563 0.0
C2244 C 0.48776 0.45969 0.35717 0.0
H2245 H 0.46461 0.33045 0.33189 0.0
H2246 H 0.45492 0.35778 0.3492 0.0
C2247 C 0.49786 0.47462 0.3504 0.0
C2248 C 0.47625 0.42727 0.35302 0.0
H2249 H 0.45397 0.39034 0.33512 0.0
C2250 C 0.48657 0.41829 0.36663 0.0
C2251 C 0.46262 0.4173 0.3434 0.0
C2252 C 0.44928 0.42659 0.33055 0.0
C2253 C 0.48617 0.39909 0.36812 0.0
C2254 C 0.47571 0.38887 0.35531 0.0
C2255 C 0.46267 0.39807 0.34445 0.0
C2256 C 0.48184 0.37046 0.34909 0.0
C2257 C 0.49841 0.38988 0.38208 0.0
C2258 C 0.50021 0.36838 0.34348 0.0
C2259 C 0.50569 0.35298 0.33358 0.0
C2260 C 0.49292 0.33934 0.32889 0.0
C2261 C 0.47475 0.34081 0.33533 0.0
C2262 C 0.46921 0.35635 0.34527 0.0
H2263 H 0.49779 0.39739 0.39537 0.0
H2264 H 0.49443 0.37533 0.38441 0.0
H2265 H 0.51288 0.39039 0.37728 0.0
H2266 H 0.51014 0.37926 0.34561 0.0
H2267 H 0.51981 0.35219 0.32892 0.0
H2268 H 0.99405 0.22274 0.56239 0.0
H2269 H 0.96191 0.23184 0.56577 0.0
H2270 H 0.96807 0.2708 0.52151 0.0
H2271 H 0.00028 0.26171 0.5179 0.0
H2272 H 0.94857 0.2681 0.57326 0.0
H2273 H 0.92216 0.24003 0.50716 0.0
H2274 H 0.94386 0.23296 0.51695 0.0
H2275 H 0.94194 0.25478 0.50558 0.0
C2276 C 0.98858 0.23321 0.55333 0.0
C2277 C -0.00031 0.2415 0.53985 0.0
C2278 C 0.97023 0.23838 0.55529 0.0
C2279 C 0.96263 0.25181 0.54375 0.0
C2280 C 0.97365 0.26018 0.53034 0.0
H2281 H 0.85264 0.29882 0.53971 0.0
H2282 H 0.88481 0.29102 0.53363 0.0
C2283 C 0.99205 0.25504 0.52837 0.0
C2284 C 0.94327 0.25736 0.54619 0.0
H2285 H 0.90116 0.25665 0.52555 0.0
C2286 C 0.93818 0.26561 0.56285 0.0
C2287 C 0.92986 0.25415 0.5325 0.0
C2288 C 0.93461 0.24487 0.51457 0.0
C2289 C 0.91994 0.27078 0.56621 0.0
C2290 C 0.90644 0.26724 0.55267 0.0
C2291 C 0.91158 0.25927 0.53589 0.0
C2292 C 0.88684 0.27141 0.55589 0.0
C2293 C 0.91531 0.28015 0.58414 0.0
C2294 C 0.8773 0.26262 0.57014 0.0
C2295 C 0.85899 0.26704 0.57367 0.0
C2296 C 0.84986 0.28025 0.56291 0.0
C2297 C 0.85931 0.28863 0.54828 0.0
C2298 C 0.87766 0.2842 0.54478 0.0
H2299 H 0.92769 0.28624 0.5907 0.0
H2300 H 0.90495 0.29118 0.58205 0.0
H2301 H 0.90945 0.2699 0.59379 0.0
H2302 H 0.88408 0.25242 0.57862 0.0
H2303 H 0.85207 0.26025 0.58497 0.0
H2304 H 0.00102 0.62206 0.86326 0.0
H2305 H 0.01499 0.64956 0.85021 0.0
H2306 H 0.06871 0.63021 0.86622 0.0
H2307 H 0.05475 0.60238 0.87933 0.0
H2308 H 0.03961 0.6773 0.86535 0.0
H2309 H 0.06997 0.63522 0.80885 0.0
H2310 H 0.05213 0.62628 0.82357 0.0
H2311 H 0.07503 0.62904 0.83227 0.0
C2312 C 0.01578 0.62373 0.86425 0.0
C2313 C 0.02683 0.61002 0.87214 0.0
C2314 C 0.02373 0.63949 0.85687 0.0
C2315 C 0.04285 0.64177 0.85713 0.0
C2316 C 0.05392 0.62857 0.86581 0.0
H2317 H 0.07818 0.74291 0.79972 0.0
H2318 H 0.07922 0.71818 0.82258 0.0
C2319 C 0.04593 0.61277 0.87333 0.0
C2320 C 0.05088 0.65724 0.84677 0.0
H2321 H 0.06943 0.66715 0.80487 0.0
C2322 C 0.04659 0.67519 0.85235 0.0
C2323 C 0.05985 0.65429 0.82979 0.0
C2324 C 0.06451 0.6352 0.82311 0.0
C2325 C 0.04999 0.69025 0.8408 0.0
C2326 C 0.05796 0.68716 0.82336 0.0
C2327 C 0.06333 0.66936 0.81829 0.0
C2328 C 0.05838 0.70171 0.80924 0.0
C2329 C 0.04387 0.70916 0.84674 0.0
C2330 C 0.04655 0.70038 0.79408 0.0
C2331 C 0.04588 0.71441 0.78105 0.0
C2332 C 0.05711 0.72999 0.78293 0.0
C2333 C 0.06928 0.7311 0.79795 0.0
C2334 C 0.0699 0.71704 0.81103 0.0
H2335 H 0.03624 0.70889 0.85997 0.0
H2336 H 0.05607 0.71816 0.84841 0.0
H2337 H 0.03492 0.7154 0.83606 0.0
H2338 H 0.03755 0.68861 0.79253 0.0
H2339 H 0.03644 0.7131 0.76961 0.0
H2340 H 0.59798 0.74764 0.05854 0.0
H2341 H 0.63018 0.74334 0.06721 0.0
H2342 H 0.62987 0.7958 0.09483 0.0
H2343 H 0.59766 0.80014 0.08645 0.0
H2344 H 0.65846 0.76694 0.05636 0.0
H2345 H 0.65461 0.76188 0.13239 0.0
H2346 H 0.63478 0.75881 0.11776 0.0
H2347 H 0.64299 0.78153 0.12299 0.0
C2348 C 0.60467 0.75811 0.06675 0.0
C2349 C 0.59528 0.77422 0.07182 0.0
C2350 C 0.62305 0.75564 0.07165 0.0
C2351 C 0.63232 0.76917 0.08179 0.0
C2352 C 0.62285 0.78503 0.08732 0.0
H2353 H 0.74399 0.79022 0.11484 0.0
H2354 H 0.71125 0.79163 0.10757 0.0
C2355 C 0.60446 0.78751 0.08245 0.0
C2356 C 0.65224 0.7674 0.0853 0.0
H2357 H 0.68436 0.76626 0.11945 0.0
C2358 C 0.66415 0.76661 0.07014 0.0
C2359 C 0.65954 0.76708 0.1033 0.0
C2360 C 0.64732 0.7672 0.12006 0.0
C2361 C 0.68326 0.76596 0.0725 0.0
C2362 C 0.69056 0.76581 0.0905 0.0
C2363 C 0.67866 0.76643 0.10567 0.0
C2364 C 0.71056 0.76521 0.09394 0.0
C2365 C 0.69549 0.76596 0.05575 0.0
C2366 C 0.72099 0.74991 0.08857 0.0
C2367 C 0.73974 0.74906 0.09265 0.0
C2368 C 0.7483 0.76348 0.10224 0.0
C2369 C 0.73783 0.77892 0.10735 0.0
C2370 C 0.71911 0.77973 0.10328 0.0
H2371 H 0.68799 0.77047 0.04323 0.0
H2372 H 0.70753 0.77512 0.05781 0.0
H2373 H 0.70067 0.75182 0.05332 0.0
H2374 H 0.71454 0.73844 0.0816 0.0
H2375 H 0.7474 0.73695 0.08864 0.0
H2376 H 0.80764 0.04622 0.22821 0.0
H2377 H 0.80418 0.05186 0.1952 0.0
H2378 H 0.75102 0.02565 0.19619 0.0
H2379 H 0.75434 0.01989 0.22911 0.0
H2380 H 0.79857 0.02189 0.16931 0.0
H2381 H 0.7432 0.0743 0.16657 0.0
H2382 H 0.75718 0.07056 0.18677 0.0
H2383 H 0.73851 0.05524 0.18158 0.0
C2384 C 0.79506 0.04197 0.22147 0.0
C2385 C 0.78127 0.03256 0.23121 0.0
C2386 C 0.79315 0.04518 0.20264 0.0
C2387 C 0.7773 0.0393 0.19339 0.0
C2388 C 0.76324 0.03052 0.2032 0.0
H2389 H 0.74752 0.00316 0.0878 0.0
H2390 H 0.75839 0.00725 0.11932 0.0
C2391 C 0.7652 0.02716 0.22196 0.0
C2392 C 0.77605 0.04072 0.17322 0.0
H2393 H 0.74903 0.05753 0.13883 0.0
C2394 C 0.78797 0.02993 0.16257 0.0
C2395 C 0.76229 0.05133 0.16457 0.0
C2396 C 0.74965 0.06366 0.17542 0.0
C2397 C 0.78579 0.02868 0.14348 0.0
C2398 C 0.77131 0.0384 0.13497 0.0
C2399 C 0.76006 0.05001 0.14548 0.0
C2400 C 0.76662 0.03558 0.11547 0.0
C2401 C 0.79866 0.01661 0.13258 0.0
C2402 C 0.76772 0.05017 0.10295 0.0
C2403 C 0.76158 0.04787 0.0849 0.0
C2404 C 0.75399 0.03101 0.07925 0.0
C2405 C 0.7533 0.0163 0.09175 0.0
C2406 C 0.75958 0.01858 0.10972 0.0
H2407 H 0.81164 0.01392 0.14018 0.0
H2408 H 0.79189 0.00322 0.12988 0.0
H2409 H 0.80203 0.02301 0.11913 0.0
H2410 H 0.77301 0.06341 0.10724 0.0
H2411 H 0.76223 0.05947 0.07559 0.0
H2412 H 0.36488 0.51708 0.46329 0.0
H2413 H 0.36316 0.48776 0.44681 0.0
H2414 H 0.34068 0.51583 0.39961 0.0
H2415 H 0.34236 0.54493 0.41589 0.0
H2416 H 0.33052 0.47407 0.4375 0.0
H2417 H 0.37172 0.4779 0.37453 0.0
H2418 H 0.37609 0.49274 0.39398 0.0
H2419 H 0.35938 0.49907 0.37674 0.0
C2420 C 0.36024 0.51706 0.44914 0.0
C2421 C 0.35353 0.53323 0.4409 0.0
C2422 C 0.35927 0.50029 0.43976 0.0
C2423 C 0.35197 0.49959 0.42191 0.0
C2424 C 0.34679 0.51603 0.41319 0.0
H2425 H 0.26511 0.46194 0.37184 0.0
H2426 H 0.28844 0.46766 0.39505 0.0
C2427 C 0.34758 0.53268 0.42258 0.0
C2428 C 0.34624 0.48194 0.41358 0.0
H2429 H 0.34065 0.46368 0.37091 0.0
C2430 C 0.33324 0.47129 0.42309 0.0
C2431 C 0.35016 0.47779 0.39502 0.0
C2432 C 0.36529 0.4874 0.38461 0.0
C2433 C 0.32218 0.45855 0.41378 0.0
C2434 C 0.324 0.45679 0.3945 0.0
C2435 C 0.33884 0.46537 0.38562 0.0
C2436 C 0.30884 0.44966 0.38289 0.0
C2437 C 0.30784 0.44808 0.42447 0.0
C2438 C 0.3124 0.4375 0.36835 0.0
C2439 C 0.29906 0.43438 0.35485 0.0
C2440 C 0.28203 0.44353 0.35561 0.0
C2441 C 0.27809 0.45472 0.37082 0.0
C2442 C 0.29139 0.45782 0.38427 0.0
H2443 H 0.31312 0.44442 0.43833 0.0
H2444 H 0.29558 0.45693 0.42646 0.0
H2445 H 0.3036 0.43531 0.41725 0.0
H2446 H 0.32581 0.43119 0.36691 0.0
H2447 H 0.30251 0.42563 0.3433 0.0
H2448 H 0.88691 0.0549 0.59624 0.0
H2449 H 0.88532 0.07516 0.62304 0.0
H2450 H 0.86198 0.0309 0.65492 0.0
H2451 H 0.86391 0.01059 0.6285 0.0
H2452 H 0.85405 0.08529 0.63728 0.0
H2453 H 0.89357 0.05406 0.69325 0.0
H2454 H 0.89747 0.04791 0.66948 0.0
H2455 H 0.88015 0.03623 0.68291 0.0
C2456 C 0.8819 0.04937 0.60912 0.0
C2457 C 0.87532 0.03121 0.61023 0.0
C2458 C 0.88108 0.06095 0.62443 0.0
C2459 C 0.8738 0.05451 0.64108 0.0
C2460 C 0.86819 0.03608 0.64242 0.0
H2461 H 0.78755 0.07252 0.70039 0.0
H2462 H 0.81225 0.07394 0.67797 0.0
C2463 C 0.86905 0.02451 0.62719 0.0
C2464 C 0.8687 0.06744 0.65595 0.0
H2465 H 0.86297 0.06715 0.70238 0.0
C2466 C 0.85659 0.08182 0.65156 0.0
C2467 C 0.87241 0.06348 0.67461 0.0
C2468 C 0.88681 0.0497 0.68027 0.0
C2469 C 0.84602 0.0903 0.66522 0.0
C2470 C 0.8474 0.08393 0.68351 0.0
C2471 C 0.86152 0.07166 0.68824 0.0
C2472 C 0.83203 0.08621 0.69657 0.0
C2473 C 0.83235 0.10488 0.65972 0.0
C2474 C 0.83497 0.09252 0.71456 0.0
C2475 C 0.82077 0.09164 0.72751 0.0
C2476 C 0.80362 0.0841 0.72266 0.0
C2477 C 0.80062 0.07835 0.70452 0.0
C2478 C 0.81468 0.07938 0.69162 0.0
H2479 H 0.83785 0.11336 0.64826 0.0
H2480 H 0.81957 0.09819 0.65475 0.0
H2481 H 0.82887 0.11403 0.67144 0.0
H2482 H 0.84835 0.09756 0.7187 0.0
H2483 H 0.82345 0.09608 0.74147 0.0
H2484 H 0.28876 0.54395 0.8236 0.0
H2485 H 0.28791 0.54219 0.85728 0.0
H2486 H 0.26563 0.59706 0.85968 0.0
H2487 H 0.26639 0.59899 0.82619 0.0
H2488 H 0.29755 0.58898 0.88361 0.0
H2489 H 0.23957 0.53929 0.88962 0.0
H2490 H 0.25794 0.53355 0.87406 0.0
H2491 H 0.24338 0.55283 0.86916 0.0
C2492 C 0.28362 0.5556 0.83131 0.0
C2493 C 0.27757 0.57157 0.82225 0.0
C2494 C 0.28311 0.55455 0.8505 0.0
C2495 C 0.27661 0.56947 0.86084 0.0
C2496 C 0.27065 0.58542 0.85186 0.0
H2497 H 0.24234 0.58319 0.97275 0.0
H2498 H 0.24594 0.58277 0.93934 0.0
C2499 C 0.27104 0.58644 0.83273 0.0
C2500 C 0.27616 0.56868 0.8811 0.0
H2501 H 0.25321 0.5495 0.9172 0.0
C2502 C 0.28796 0.58027 0.89101 0.0
C2503 C 0.2635 0.55741 0.89055 0.0
C2504 C 0.25025 0.5451 0.88039 0.0
C2505 C 0.28737 0.58095 0.91026 0.0
C2506 C 0.27469 0.5697 0.91972 0.0
C2507 C 0.26295 0.55803 0.90981 0.0
C2508 C 0.27293 0.57032 0.93991 0.0
C2509 C 0.29992 0.59401 0.92036 0.0
C2510 C 0.28696 0.56345 0.95119 0.0
C2511 C 0.28496 0.56363 0.97029 0.0
C2512 C 0.26889 0.57072 0.97836 0.0
C2513 C 0.25494 0.57775 0.96697 0.0
C2514 C 0.25692 0.57746 0.94789 0.0
H2515 H 0.30673 0.6039 0.91092 0.0
H2516 H 0.29212 0.60184 0.9309 0.0
H2517 H 0.31075 0.58603 0.92757 0.0
H2518 H 0.29934 0.55773 0.94521 0.0
H2519 H 0.29591 0.55807 0.97871 0.0
H2520 H 0.84082 0.06403 0.76659 0.0
H2521 H 0.87324 0.05584 0.7693 0.0
H2522 H 0.85842 0.00622 0.79818 0.0
H2523 H 0.82581 0.01432 0.79535 0.0
H2524 H 0.89421 0.05065 0.79972 0.0
H2525 H 0.89199 0.98666 0.75814 0.0
H2526 H 0.87328 0.00294 0.75855 0.0
H2527 H 0.87632 0.98702 0.77721 0.0
C2528 C 0.84444 0.05144 0.77364 0.0
C2529 C 0.83074 0.03983 0.7808 0.0
C2530 C 0.86298 0.04672 0.7751 0.0
C2531 C 0.86827 0.03031 0.78375 0.0
C2532 C 0.85466 0.01875 0.79109 0.0
H2533 H 0.98412 0.01352 0.8139 0.0
H2534 H 0.9506 0.01562 0.8156 0.0
C2535 C 0.83604 0.02341 0.78951 0.0
C2536 C 0.88809 0.0256 0.78522 0.0
H2537 H 0.9203 0.99392 0.77236 0.0
C2538 C 0.89991 0.0382 0.79382 0.0
C2539 C 0.89553 0.00943 0.77734 0.0
C2540 C 0.88369 0.99579 0.76714 0.0
C2541 C 0.91897 0.03525 0.79455 0.0
C2542 C 0.92639 0.01899 0.78685 0.0
C2543 C 0.91456 0.00626 0.77844 0.0
C2544 C 0.94653 0.01567 0.78613 0.0
C2545 C 0.93103 0.04995 0.80288 0.0
C2546 C 0.95531 0.01404 0.76904 0.0
C2547 C 0.97442 0.01254 0.76803 0.0
C2548 C 0.98521 0.01267 0.78409 0.0
C2549 C 0.9763 0.01337 0.80125 0.0
C2550 C 0.95712 0.0148 0.80225 0.0
H2551 H 0.9237 0.06328 0.80418 0.0
H2552 H 0.93536 0.04558 0.81684 0.0
H2553 H 0.94359 0.05211 0.79447 0.0
H2554 H 0.94741 0.0145 0.75642 0.0
H2555 H 0.98076 0.0116 0.75461 0.0
H2556 H 0.27684 0.76657 0.94041 0.0
H2557 H 0.27427 0.73756 0.95696 0.0
H2558 H 0.31667 0.7549 0.99451 0.0
H2559 H 0.31976 0.78389 0.97777 0.0
H2560 H 0.30386 0.711 0.96432 0.0
H2561 H 0.27134 0.73978 0.02734 0.0
H2562 H 0.27135 0.75186 0.00564 0.0
H2563 H 0.29189 0.75094 0.01926 0.0
C2564 C 0.28583 0.76424 0.95202 0.0
C2565 C 0.29854 0.7777 0.9577 0.0
C2566 C 0.28422 0.74765 0.96154 0.0
C2567 C 0.29515 0.74421 0.97703 0.0
C2568 C 0.30793 0.75745 0.98273 0.0
H2569 H 0.30792 0.63745 0.03078 0.0
H2570 H 0.31386 0.66791 0.01764 0.0
C2571 C 0.30963 0.77404 0.97315 0.0
C2572 C 0.2932 0.72662 0.98706 0.0
H2573 H 0.27772 0.70795 0.02726 0.0
C2574 C 0.29826 0.71031 0.97812 0.0
C2575 C 0.28573 0.72584 0.00498 0.0
C2576 C 0.27962 0.74298 0.01492 0.0
C2577 C 0.29601 0.69315 0.98665 0.0
C2578 C 0.2886 0.69237 0.0046 0.0
C2579 C 0.28355 0.70868 0.01356 0.0
C2580 C 0.28513 0.6746 0.01386 0.0
C2581 C 0.30111 0.67594 0.97626 0.0
C2582 C 0.26703 0.66856 0.01651 0.0
C2583 C 0.26361 0.65122 0.02401 0.0
C2584 C 0.27824 0.63967 0.02913 0.0
C2585 C 0.29637 0.64607 0.02709 0.0
C2586 C 0.29979 0.66338 0.01946 0.0
H2587 H 0.30378 0.67872 0.96148 0.0
H2588 H 0.31373 0.66993 0.98236 0.0
H2589 H 0.28999 0.66554 0.97737 0.0
H2590 H 0.25555 0.67709 0.01235 0.0
H2591 H 0.24951 0.64678 0.02566 0.0
H2592 H 0.71248 0.04489 0.32302 0.0
H2593 H 0.67968 0.05169 0.319 0.0
H2594 H 0.68392 0.03823 0.26143 0.0
H2595 H 0.71661 0.03199 0.26519 0.0
H2596 H 0.66388 0.07065 0.26859 0.0
H2597 H 0.63995 0.01191 0.31151 0.0
H2598 H 0.65573 0.0277 0.32212 0.0
H2599 H 0.66329 0.01366 0.30329 0.0
C2600 C 0.70645 0.04357 0.30949 0.0
C2601 C 0.71713 0.03768 0.29447 0.0
C2602 C 0.68768 0.04729 0.30725 0.0
C2603 C 0.67933 0.04518 0.28997 0.0
C2604 C 0.69007 0.03982 0.27491 0.0
H2605 H 0.5781 0.04211 0.23277 0.0
H2606 H 0.60981 0.04421 0.24352 0.0
C2607 C 0.70874 0.03609 0.27712 0.0
C2608 C 0.65935 0.04821 0.28736 0.0
H2609 H 0.61729 0.02967 0.29688 0.0
C2610 C 0.65366 0.06183 0.27493 0.0
C2611 C 0.64606 0.03672 0.29572 0.0
C2612 C 0.65147 0.02157 0.30882 0.0
C2613 C 0.63508 0.06393 0.27021 0.0
C2614 C 0.6219 0.05191 0.27792 0.0
C2615 C 0.62746 0.03884 0.29098 0.0
C2616 C 0.6026 0.05159 0.27142 0.0
C2617 C 0.62975 0.07882 0.2568 0.0
C2618 C 0.58799 0.05476 0.28361 0.0
C2619 C 0.56978 0.05344 0.27751 0.0
C2620 C 0.5659 0.04866 0.25917 0.0
C2621 C 0.58061 0.04561 0.24701 0.0
C2622 C 0.59875 0.04703 0.25308 0.0
H2623 H 0.64007 0.09008 0.25656 0.0
H2624 H 0.62897 0.07289 0.24277 0.0
H2625 H 0.6161 0.08473 0.26026 0.0
H2626 H 0.59069 0.05812 0.29787 0.0
H2627 H 0.55876 0.05568 0.28724 0.0
H2628 H 0.28679 0.49516 0.49567 0.0
H2629 H 0.28716 0.46154 0.49803 0.0
H2630 H 0.34493 0.46117 0.48486 0.0
H2631 H 0.34467 0.49458 0.48233 0.0
H2632 H 0.2982 0.43418 0.47147 0.0
H2633 H 0.34138 0.43321 0.53447 0.0
H2634 H 0.3297 0.45364 0.52658 0.0
H2635 H 0.35065 0.44635 0.51572 0.0
C2636 C 0.29954 0.48792 0.49315 0.0
C2637 C 0.31575 0.49766 0.48905 0.0
C2638 C 0.29974 0.46872 0.49454 0.0
C2639 C 0.31614 0.45892 0.49193 0.0
C2640 C 0.33221 0.46851 0.48733 0.0
H2641 H 0.33389 0.34223 0.4753 0.0
H2642 H 0.3306 0.37546 0.47196 0.0
C2643 C 0.33203 0.48766 0.48595 0.0
C2644 C 0.31657 0.43867 0.49423 0.0
H2645 H 0.33578 0.4045 0.52008 0.0
C2646 C 0.30634 0.42766 0.48213 0.0
C2647 C 0.32706 0.43024 0.50828 0.0
C2648 C 0.33771 0.44143 0.52213 0.0
C2649 C 0.30661 0.40838 0.48349 0.0
C2650 C 0.31755 0.39993 0.4972 0.0
C2651 C 0.32748 0.41099 0.50951 0.0
C2652 C 0.31899 0.37965 0.49902 0.0
C2653 C 0.29503 0.39725 0.47037 0.0
C2654 C 0.31394 0.37096 0.5155 0.0
C2655 C 0.31582 0.35192 0.51747 0.0
C2656 C 0.32287 0.34118 0.50302 0.0
C2657 C 0.32802 0.34997 0.48656 0.0
C2658 C 0.32615 0.369 0.48462 0.0
H2659 H 0.28387 0.40564 0.46418 0.0
H2660 H 0.30384 0.39209 0.45904 0.0
H2661 H 0.2888 0.38522 0.47741 0.0
H2662 H 0.30847 0.37893 0.52683 0.0
H2663 H 0.31161 0.34559 0.53026 0.0
H2664 H 0.46463 0.53905 0.26787 0.0
H2665 H 0.43122 0.53391 0.26659 0.0
H2666 H 0.43416 0.50289 0.31705 0.0
H2667 H 0.46718 0.50814 0.31847 0.0
H2668 H 0.41179 0.50236 0.26445 0.0
H2669 H 0.39328 0.53824 0.3288 0.0
H2670 H 0.41561 0.54059 0.31826 0.0
H2671 H 0.41056 0.52112 0.33271 0.0
C2672 C 0.45805 0.53124 0.2787 0.0
C2673 C 0.46844 0.52431 0.29344 0.0
C2674 C 0.43902 0.52835 0.27799 0.0
C2675 C 0.43012 0.51842 0.29199 0.0
C2676 C 0.44059 0.51115 0.30645 0.0
H2677 H 0.32918 0.45748 0.28926 0.0
H2678 H 0.3606 0.46869 0.28735 0.0
C2679 C 0.45949 0.51416 0.30724 0.0
C2680 C 0.41003 0.51489 0.29122 0.0
H2681 H 0.37092 0.51689 0.31706 0.0
C2682 C 0.40279 0.50576 0.27584 0.0
C2683 C 0.3982 0.5196 0.30594 0.0
C2684 C 0.40478 0.53061 0.32226 0.0
C2685 C 0.38423 0.50049 0.27513 0.0
C2686 C 0.37272 0.50405 0.29043 0.0
C2687 C 0.37978 0.5139 0.30545 0.0
C2688 C 0.35348 0.4973 0.29138 0.0
C2689 C 0.37716 0.49122 0.25797 0.0
C2690 C 0.33899 0.50953 0.29495 0.0
C2691 C 0.32095 0.50309 0.29652 0.0
C2692 C 0.31696 0.48424 0.29456 0.0
C2693 C 0.33158 0.47204 0.29103 0.0
C2694 C 0.34962 0.47848 0.28962 0.0
H2695 H 0.38553 0.49499 0.24577 0.0
H2696 H 0.37807 0.47609 0.25971 0.0
H2697 H 0.36261 0.49491 0.25523 0.0
H2698 H 0.34166 0.52409 0.29655 0.0
H2699 H 0.31021 0.51292 0.29952 0.0
H2700 H 0.80184 0.06553 0.56491 0.0
H2701 H 0.79202 0.09765 0.5648 0.0
H2702 H 0.84064 0.1125 0.53429 0.0
H2703 H 0.85063 0.08039 0.53455 0.0
H2704 H 0.83555 0.13479 0.56301 0.0
H2705 H 0.77012 0.12892 0.52457 0.0
H2706 H 0.77103 0.11381 0.54404 0.0
H2707 H 0.78684 0.1106 0.52528 0.0
C2708 C 0.81028 0.07557 0.55791 0.0
C2709 C 0.82701 0.0704 0.54971 0.0
C2710 C 0.80462 0.09394 0.5578 0.0
C2711 C 0.81542 0.10746 0.54926 0.0
C2712 C 0.83204 0.1023 0.5409 0.0
H2713 H 0.78302 0.22214 0.53236 0.0
H2714 H 0.79031 0.18949 0.52792 0.0
C2715 C 0.83778 0.08396 0.54113 0.0
C2716 C 0.81003 0.12714 0.5501 0.0
H2717 H 0.77498 0.15708 0.54096 0.0
C2718 C 0.82236 0.13967 0.55805 0.0
C2719 C 0.79292 0.13358 0.5434 0.0
C2720 C 0.77955 0.12106 0.53367 0.0
C2721 C 0.81789 0.15833 0.55993 0.0
C2722 C 0.80041 0.16458 0.55411 0.0
C2723 C 0.78826 0.1522 0.54566 0.0
C2724 C 0.79455 0.18392 0.55684 0.0
C2725 C 0.83205 0.1712 0.56798 0.0
C2726 C 0.79388 0.19143 0.57459 0.0
C2727 C 0.7898 0.21 0.57713 0.0
C2728 C 0.78607 0.22141 0.56199 0.0
C2729 C 0.78578 0.21367 0.54428 0.0
C2730 C 0.79001 0.19506 0.54173 0.0
H2731 H 0.84617 0.16553 0.5667 0.0
H2732 H 0.83164 0.18483 0.56113 0.0
H2733 H 0.82915 0.1732 0.58282 0.0
H2734 H 0.79683 0.18297 0.58649 0.0
H2735 H 0.78974 0.2155 0.59096 0.0
H2736 H 0.07565 0.56951 0.85273 0.0
H2737 H 0.1053 0.56961 0.83718 0.0
H2738 H 0.08384 0.53341 0.79546 0.0
H2739 H 0.05403 0.53286 0.81123 0.0
H2740 H 0.12678 0.53596 0.82886 0.0
H2741 H 0.10878 0.57791 0.76732 0.0
H2742 H 0.09547 0.57883 0.78827 0.0
H2743 H 0.09378 0.55919 0.77348 0.0
C2744 C 0.07718 0.56141 0.84035 0.0
C2745 C 0.06245 0.55099 0.83336 0.0
C2746 C 0.09414 0.56162 0.8314 0.0
C2747 C 0.09671 0.55158 0.81517 0.0
C2748 C 0.08203 0.54141 0.80789 0.0
H2749 H 0.19757 0.54714 0.74893 0.0
H2750 H 0.1661 0.54208 0.75986 0.0
C2751 C 0.06501 0.54113 0.8169 0.0
C2752 C 0.11507 0.55131 0.80644 0.0
H2753 H 0.1395 0.56809 0.77006 0.0
C2754 C 0.12956 0.54286 0.81594 0.0
C2755 C 0.11856 0.56019 0.78952 0.0
C2756 C 0.10341 0.56966 0.779 0.0
C2757 C 0.14759 0.54335 0.80913 0.0
C2758 C 0.15126 0.55292 0.7926 0.0
C2759 C 0.13665 0.56083 0.78276 0.0
C2760 C 0.1703 0.55577 0.78593 0.0
C2761 C 0.16255 0.53365 0.81974 0.0
C2762 C 0.18298 0.56532 0.79685 0.0
C2763 C 0.20094 0.56811 0.79073 0.0
C2764 C 0.20659 0.56156 0.77343 0.0
C2765 C 0.19377 0.55214 0.76241 0.0
C2766 C 0.17575 0.54934 0.76858 0.0
H2767 H 0.15686 0.52255 0.82856 0.0
H2768 H 0.17295 0.5276 0.81035 0.0
H2769 H 0.16956 0.54369 0.82884 0.0
H2770 H 0.17897 0.57069 0.81015 0.0
H2771 H 0.21043 0.57524 0.79969 0.0
H2772 H 0.79326 0.96679 0.01302 0.0
H2773 H 0.8077 0.93706 0.01996 0.0
H2774 H 0.75628 0.91724 0.0418 0.0
H2775 H 0.74178 0.94655 0.03454 0.0
H2776 H 0.81103 0.9212 0.05461 0.0
H2777 H 0.77212 0.87525 0.00824 0.0
H2778 H 0.77254 0.89991 0.00532 0.0
H2779 H 0.75719 0.88952 0.02171 0.0
C2780 C 0.78499 0.95595 0.01898 0.0
C2781 C 0.7664 0.95903 0.02331 0.0
C2782 C 0.79326 0.93903 0.023 0.0
C2783 C 0.783 0.92487 0.03116 0.0
C2784 C 0.76438 0.92784 0.03519 0.0
H2785 H 0.8047 0.83911 0.10555 0.0
H2786 H 0.80006 0.86793 0.0891 0.0
C2787 C 0.75616 0.9447 0.03125 0.0
C2788 C 0.79182 0.90739 0.03678 0.0
H2789 H 0.78635 0.86086 0.03457 0.0
C2790 C 0.8059 0.90799 0.04997 0.0
C2791 C 0.78534 0.89017 0.03051 0.0
C2792 C 0.7711 0.88864 0.01551 0.0
C2793 C 0.81279 0.89182 0.05795 0.0
C2794 C 0.80519 0.87468 0.05278 0.0
C2795 C 0.79201 0.87402 0.0387 0.0
C2796 C 0.80947 0.85749 0.06287 0.0
C2797 C 0.82787 0.89329 0.07211 0.0
C2798 C 0.81605 0.84193 0.05355 0.0
C2799 C 0.81852 0.8253 0.06292 0.0
C2800 C 0.81421 0.82391 0.08172 0.0
C2801 C 0.80793 0.83964 0.09104 0.0
C2802 C 0.80551 0.85622 0.0817 0.0
H2803 H 0.83623 0.9059 0.07 0.0
H2804 H 0.82163 0.89412 0.086 0.0
H2805 H 0.83709 0.88114 0.07169 0.0
H2806 H 0.81902 0.84258 0.03897 0.0
H2807 H 0.8232 0.8134 0.05532 0.0
H2808 H 0.01299 0.82242 0.81338 0.0
H2809 H 0.00974 0.82722 0.8466 0.0
H2810 H 0.05367 0.78874 0.85654 0.0
H2811 H 0.0568 0.78358 0.82365 0.0
H2812 H 0.00261 0.80024 0.8749 0.0
H2813 H 0.06937 0.83573 0.88473 0.0
H2814 H 0.05867 0.83323 0.86245 0.0
H2815 H 0.07112 0.81437 0.87247 0.0
C2816 C 0.02191 0.81492 0.82263 0.0
C2817 C 0.03532 0.80278 0.81575 0.0
C2818 C 0.02007 0.81774 0.8416 0.0
C2819 C 0.03168 0.80857 0.85397 0.0
C2820 C 0.04486 0.79627 0.84719 0.0
H2821 H 0.0274 0.78106 0.96792 0.0
H2822 H 0.02435 0.78273 0.93452 0.0
C2823 C 0.04667 0.7934 0.82831 0.0
C2824 C 0.02998 0.81148 0.87406 0.0
H2825 H 0.05456 0.82458 0.91181 0.0
C2826 C 0.01386 0.80577 0.88298 0.0
C2827 C 0.04458 0.81892 0.88452 0.0
C2828 C 0.06186 0.82609 0.87556 0.0
C2829 C 0.01229 0.80654 0.90222 0.0
C2830 C 0.02732 0.81301 0.91275 0.0
C2831 C 0.0431 0.81949 0.90374 0.0
C2832 C 0.02745 0.81229 0.93313 0.0
C2833 C 0.99464 0.8003 0.91111 0.0
C2834 C 0.03035 0.82832 0.94347 0.0
C2835 C 0.03228 0.82738 0.96258 0.0
C2836 C 0.03155 0.81034 0.9717 0.0
C2837 C 0.02821 0.79436 0.96132 0.0
C2838 C 0.02624 0.79533 0.94224 0.0
H2839 H 0.98289 0.80109 0.90137 0.0
H2840 H 0.99611 0.78577 0.91551 0.0
H2841 H 0.99139 0.80871 0.92343 0.0
H2842 H 0.03148 0.84154 0.93669 0.0
H2843 H 0.03505 0.83991 0.9701 0.0
H2844 H 0.53159 0.77235 0.27619 0.0
H2845 H 0.52128 0.77053 0.24414 0.0
H2846 H 0.57763 0.76467 0.22646 0.0
H2847 H 0.58789 0.76728 0.25837 0.0
H2848 H 0.5616 0.78982 0.20724 0.0
H2849 H 0.51548 0.72931 0.20848 0.0
H2850 H 0.50883 0.74649 0.22485 0.0
H2851 H 0.53055 0.73489 0.22736 0.0
C2852 C 0.54167 0.77034 0.26543 0.0
C2853 C 0.56051 0.76998 0.26966 0.0
C2854 C 0.5358 0.7692 0.24714 0.0
C2855 C 0.54865 0.76721 0.23284 0.0
C2856 C 0.56743 0.76622 0.23721 0.0
H2857 H 0.52878 0.74498 0.11723 0.0
H2858 H 0.53347 0.74248 0.15054 0.0
C2859 C 0.5733 0.76771 0.25541 0.0
C2860 C 0.54283 0.76772 0.21325 0.0
H2861 H 0.51409 0.74819 0.18161 0.0
C2862 C 0.55128 0.78062 0.20165 0.0
C2863 C 0.52948 0.75562 0.20586 0.0
C2864 C 0.5207 0.74067 0.21724 0.0
C2865 C 0.54683 0.78179 0.18295 0.0
C2866 C 0.53292 0.77025 0.17571 0.0
C2867 C 0.52452 0.75724 0.18724 0.0
C2868 C 0.52751 0.77113 0.15605 0.0
C2869 C 0.55753 0.79504 0.17106 0.0
C2870 C 0.5218 0.78782 0.1482 0.0
C2871 C 0.51942 0.78929 0.12922 0.0
C2872 C 0.52218 0.77398 0.1178 0.0
C2873 C 0.52645 0.75693 0.12578 0.0
C2874 C 0.52918 0.75553 0.14477 0.0
H2875 H 0.57097 0.79867 0.17736 0.0
H2876 H 0.56012 0.78921 0.1572 0.0
H2877 H 0.54955 0.80794 0.16946 0.0
H2878 H 0.51986 0.79989 0.15669 0.0
H2879 H 0.51594 0.80252 0.12333 0.0
H2880 H 0.55206 0.35368 0.49487 0.0
H2881 H 0.55247 0.33925 0.46446 0.0
H2882 H 0.51665 0.29637 0.48418 0.0
H2883 H 0.51606 0.31082 0.51465 0.0
H2884 H 0.56201 0.29942 0.45522 0.0
H2885 H 0.49075 0.32161 0.43784 0.0
H2886 H 0.50418 0.33298 0.45536 0.0
H2887 H 0.49453 0.31073 0.45975 0.0
C2888 C 0.54428 0.34118 0.49273 0.0
C2889 C 0.53396 0.33343 0.50712 0.0
C2890 C 0.54462 0.33291 0.47541 0.0
C2891 C 0.5345 0.31685 0.47211 0.0
C2892 C 0.52448 0.30882 0.4865 0.0
H2893 H 0.50975 0.26757 0.36557 0.0
H2894 H 0.51161 0.27291 0.39877 0.0
C2895 C 0.52426 0.31701 0.5039 0.0
C2896 C 0.53406 0.3089 0.45342 0.0
H2897 H 0.50707 0.30536 0.41525 0.0
C2898 C 0.54999 0.30057 0.44648 0.0
C2899 C 0.51829 0.31037 0.44218 0.0
C2900 C 0.50094 0.31947 0.44901 0.0
C2901 C 0.55063 0.29375 0.42842 0.0
C2902 C 0.53507 0.29581 0.41691 0.0
C2903 C 0.51899 0.30377 0.42407 0.0
C2904 C 0.53537 0.29075 0.39714 0.0
C2905 C 0.56792 0.28431 0.42194 0.0
C2906 C 0.54824 0.29878 0.3852 0.0
C2907 C 0.54728 0.29563 0.36627 0.0
C2908 C 0.53322 0.28463 0.35888 0.0
C2909 C 0.52066 0.27618 0.3709 0.0
C2910 C 0.52173 0.27921 0.38984 0.0
H2911 H 0.57574 0.2784 0.43365 0.0
H2912 H 0.56478 0.27315 0.41201 0.0
H2913 H 0.57691 0.29452 0.41505 0.0
H2914 H 0.55858 0.30814 0.39041 0.0
H2915 H 0.55692 0.30261 0.35735 0.0
H2916 H 0.03209 0.28751 0.76357 0.0
H2917 H 0.04508 0.28449 0.7326 0.0
H2918 H 0.99669 0.25515 0.71506 0.0
H2919 H 0.98383 0.25766 0.74582 0.0
H2920 H 0.05145 0.25079 0.71149 0.0
H2921 H 0.00228 0.29837 0.67772 0.0
H2922 H 0.00605 0.29819 0.70227 0.0
H2923 H 0.99172 0.28102 0.69178 0.0
C2924 C 0.02426 0.28032 0.75317 0.0
C2925 C 0.00678 0.27305 0.75723 0.0
C2926 C 0.03167 0.27868 0.73547 0.0
C2927 C 0.02169 0.26988 0.7215 0.0
C2928 C 0.00444 0.26235 0.72556 0.0
H2929 H 0.04892 0.22112 0.61792 0.0
H2930 H 0.04169 0.2282 0.64994 0.0
C2931 C 0.99707 0.26389 0.7432 0.0
C2932 C 0.02924 0.26824 0.70267 0.0
H2933 H 0.02023 0.27936 0.65797 0.0
C2934 C 0.04478 0.25719 0.69979 0.0
C2935 C 0.02061 0.27677 0.68748 0.0
C2936 C 0.00433 0.2894 0.6899 0.0
C2937 C 0.05147 0.25383 0.68198 0.0
C2938 C 0.04226 0.26162 0.66672 0.0
C2939 C 0.02718 0.27329 0.66969 0.0
C2940 C 0.04753 0.25727 0.64751 0.0
C2941 C 0.06826 0.2419 0.67964 0.0
C2942 C 0.05292 0.27131 0.63543 0.0
C2943 C 0.05693 0.26732 0.61705 0.0
C2944 C 0.05538 0.24924 0.61035 0.0
C2945 C 0.05005 0.23521 0.62256 0.0
C2946 C 0.04614 0.2392 0.64093 0.0
H2947 H 0.07656 0.24129 0.69245 0.0
H2948 H 0.06387 0.2277 0.6762 0.0
H2949 H 0.07709 0.24703 0.66829 0.0
H2950 H 0.05392 0.28538 0.64021 0.0
H2951 H 0.06079 0.27846 0.60798 0.0
loop_
_geom_bond_atom_site_label_1
_geom_bond_atom_site_label_2
_geom_bond_distance
_geom_bond_site_symmetry_2
_ccdc_geom_bond_type
C0 C1 1.351 1_455 S
C0 N3 1.368 . S
C0 H5 0.931 . S
C1 C0 1.351 1_655 S
C1 N2 1.373 . S
C1 H29 0.930 . S
N2 C1 1.373 . S
N2 C4 1.340 . S
N3 C0 1.368 . S
N3 C4 1.321 1_455 S
N3 Co6 2.135 . S
C4 N2 1.340 . S
C4 N3 1.321 1_655 S
C4 H28 0.930 . S
H5 C0 0.931 . S
Co6 N3 2.135 . S
Co6 N9 2.121 . S
Co6 O14 2.055 . S
Co6 O17 2.039 . S
Co6 N20 2.140 . S
C7 O8 1.227 . S
C7 O17 1.265 . S
O8 C7 1.227 . S
N9 Co6 2.121 . S
N9 C11 1.375 . S
N9 C12 1.313 . S
C10 C11 1.338 . S
C10 N13 1.377 . S
C10 H30 0.930 . S
C11 N9 1.375 . S
C11 C10 1.338 . S
C11 H15 0.931 . S
C12 N9 1.313 . S
C12 N13 1.344 . S
C12 H16 0.930 . S
N13 C10 1.377 . S
N13 C12 1.344 . S
O14 Co6 2.055 . S
O14 C18 1.253 . S
H15 C11 0.931 . S
H16 C12 0.930 . S
O17 Co6 2.039 . S
O17 C7 1.265 . S
C18 O14 1.253 . S
C18 O19 1.227 . S
O19 C18 1.227 . S
N20 Co6 2.140 . S
N20 C23 1.346 . S
N20 C24 1.345 . S
C21 C22 1.387 . S
C21 C25 1.391 1_565 S
C22 C21 1.387 . S
C22 C23 1.369 1_565 S
C22 H31 0.929 . S
C23 N20 1.346 . S
C23 C22 1.369 1_545 S
C23 H26 0.928 . S
C24 N20 1.345 . S
C24 C25 1.371 . S
C24 H27 0.931 . S
C25 C21 1.391 1_545 S
C25 C24 1.371 . S
C25 H32 0.930 . S
H26 C23 0.928 . S
H27 C24 0.931 . S
H28 C4 0.930 . S
H29 C1 0.930 . S
H30 C10 0.930 . S
H31 C22 0.929 . S
H32 C25 0.930 . S
C33 C34 1.351 . S
C33 N36 1.327 1_554 S
C33 H38 0.931 . S
C34 C33 1.351 . S
C34 N35 1.373 . S
C34 H62 0.930 . S
N35 C34 1.373 . S
N35 C37 1.340 1_554 S
N36 C33 1.327 1_556 S
N36 C37 1.323 . S
N36 Co39 2.165 . S
C37 N35 1.340 1_556 S
C37 N36 1.323 . S
C37 H61 0.930 . S
H38 C33 0.931 . S
Co39 N36 2.165 . S
Co39 N42 2.121 . S
Co39 O47 2.055 . S
Co39 O50 2.039 . S
Co39 N53 2.140 . S
C40 O41 1.227 . S
C40 O50 1.265 . S
O41 C40 1.227 . S
N42 Co39 2.121 . S
N42 C44 1.375 . S
N42 C45 1.313 . S
C43 C44 1.338 . S
C43 N46 1.377 . S
C43 H63 0.930 . S
C44 N42 1.375 . S
C44 C43 1.338 . S
C44 H48 0.931 . S
C45 N42 1.313 . S
C45 N46 1.344 . S
C45 H49 0.930 . S
N46 C43 1.377 . S
N46 C45 1.344 . S
O47 Co39 2.055 . S
O47 C51 1.253 . S
H48 C44 0.931 . S
H49 C45 0.930 . S
O50 Co39 2.039 . S
O50 C40 1.265 . S
C51 O47 1.253 . S
C51 O52 1.218 1_556 S
O52 C51 1.218 1_554 S
N53 Co39 2.140 . S
N53 C56 1.346 . S
N53 C57 1.345 . S
C54 C55 1.387 . S
C54 C58 1.391 . S
C55 C54 1.387 . S
C55 C56 1.369 . S
C55 H64 0.929 . S
C56 N53 1.346 . S
C56 C55 1.369 . S
C56 H59 0.928 . S
C57 N53 1.345 . S
C57 C58 1.371 . S
C57 H60 0.931 . S
C58 C54 1.391 . S
C58 C57 1.371 . S
C58 H65 0.930 . S
H59 C56 0.928 . S
H60 C57 0.931 . S
H61 C37 0.930 . S
H62 C34 0.930 . S
H63 C43 0.930 . S
H64 C55 0.929 . S
H65 C58 0.930 . S
C66 C67 1.351 . S
C66 N69 1.368 . S
C66 H71 0.931 . S
C67 C66 1.351 . S
C67 N68 1.373 . S
C67 H95 0.930 . S
N68 C67 1.373 . S
N68 C70 1.340 . S
N69 C66 1.368 . S
N69 C70 1.321 . S
N69 Co72 2.135 . S
C70 N68 1.340 . S
C70 N69 1.321 . S
C70 H94 0.930 . S
H71 C66 0.931 . S
Co72 N69 2.135 . S
Co72 N75 2.121 . S
Co72 O80 2.048 1_545 S
Co72 O83 2.039 . S
Co72 N86 2.140 . S
C73 O74 1.227 . S
C73 O83 1.265 . S
O74 C73 1.227 . S
N75 Co72 2.121 . S
N75 C77 1.375 . S
N75 C78 1.313 . S
C76 C77 1.338 . S
C76 N79 1.377 . S
C76 H96 0.930 . S
C77 N75 1.375 . S
C77 C76 1.338 . S
C77 H81 0.931 . S
C78 N75 1.313 . S
C78 N79 1.344 . S
C78 H82 0.935 . S
N79 C76 1.377 . S
N79 C78 1.344 . S
O80 Co72 2.048 1_565 S
O80 C84 1.253 . S
H81 C77 0.931 . S
H82 C78 0.935 . S
O83 Co72 2.039 . S
O83 C73 1.265 . S
C84 O80 1.253 . S
C84 O85 1.227 1_565 S
O85 C84 1.227 1_545 S
N86 Co72 2.140 . S
N86 C89 1.346 . S
N86 C90 1.345 . S
C87 C88 1.387 . S
C87 C91 1.391 . S
C88 C87 1.387 . S
C88 C89 1.369 . S
C88 H97 0.929 . S
C89 N86 1.346 . S
C89 C88 1.369 . S
C89 H92 0.928 . S
C90 N86 1.345 . S
C90 C91 1.371 . S
C90 H93 0.931 . S
C91 C87 1.391 . S
C91 C90 1.371 . S
C91 H98 0.930 . S
H92 C89 0.928 . S
H93 C90 0.931 . S
H94 C70 0.930 . S
H95 C67 0.930 . S
H96 C76 0.930 . S
H97 C88 0.929 . S
H98 C91 0.930 . S
C99 C100 1.351 . S
C99 N102 1.368 . S
C99 H104 0.931 . S
C100 C99 1.351 . S
C100 N101 1.373 . S
C100 H128 0.930 . S
N101 C100 1.373 . S
N101 C103 1.340 . S
N102 C99 1.368 . S
N102 C103 1.321 . S
N102 Co105 2.135 . S
C103 N101 1.340 . S
C103 N102 1.321 . S
C103 H127 0.930 . S
H104 C99 0.931 . S
Co105 N102 2.135 . S
Co105 N108 2.121 . S
Co105 O113 2.055 . S
Co105 O116 2.039 . S
Co105 N119 2.140 . S
C106 O107 1.227 . S
C106 O116 1.265 . S
O107 C106 1.227 . S
N108 Co105 2.121 . S
N108 C110 1.375 . S
N108 C111 1.313 . S
C109 C110 1.338 . S
C109 N112 1.377 . S
C109 H129 0.930 . S
C110 N108 1.375 . S
C110 C109 1.338 . S
C110 H114 0.931 . S
C111 N108 1.313 . S
C111 N112 1.344 . S
C111 H115 0.930 . S
N112 C109 1.377 . S
N112 C111 1.344 . S
O113 Co105 2.055 . S
O113 C117 1.253 . S
H114 C110 0.931 . S
H115 C111 0.930 . S
O116 Co105 2.039 . S
O116 C106 1.265 . S
C117 O113 1.253 . S
C117 O118 1.227 . S
O118 C117 1.227 . S
N119 Co105 2.140 . S
N119 C122 1.346 . S
N119 C123 1.345 . S
C120 C121 1.387 . S
C120 C124 1.391 . S
C121 C120 1.387 . S
C121 C122 1.369 . S
C121 H130 0.929 . S
C122 N119 1.346 . S
C122 C121 1.369 . S
C122 H125 0.928 . S
C123 N119 1.345 . S
C123 C124 1.371 . S
C123 H126 0.931 . S
C124 C120 1.391 . S
C124 C123 1.371 . S
C124 H131 0.930 . S
H125 C122 0.928 . S
H126 C123 0.931 . S
H127 C103 0.930 . S
H128 C100 0.930 . S
H129 C109 0.930 . S
H130 C121 0.929 . S
H131 C124 0.930 . S
C132 C133 1.351 . S
C132 N135 1.368 . S
C132 H137 0.931 . S
C133 C132 1.351 . S
C133 N134 1.373 . S
C133 H161 0.930 . S
N134 C133 1.373 . S
N134 C136 1.340 . S
N135 C132 1.368 . S
N135 C136 1.321 . S
N135 Co138 2.135 . S
C136 N134 1.340 . S
C136 N135 1.321 . S
C136 H160 0.930 . S
H137 C132 0.931 . S
Co138 N135 2.135 . S
Co138 N141 2.121 . S
Co138 O146 2.055 . S
Co138 O149 2.039 . S
Co138 N152 2.140 . S
C139 O140 1.227 . S
C139 O149 1.265 . S
O140 C139 1.227 . S
N141 Co138 2.121 . S
N141 C143 1.375 . S
N141 C144 1.313 . S
C142 C143 1.338 . S
C142 N145 1.377 . S
C142 H162 0.930 . S
C143 N141 1.375 . S
C143 C142 1.338 . S
C143 H147 0.931 . S
C144 N141 1.313 . S
C144 N145 1.344 . S
C144 H148 0.930 . S
N145 C142 1.377 . S
N145 C144 1.344 . S
O146 Co138 2.055 . S
O146 C150 1.253 . S
H147 C143 0.931 . S
H148 C144 0.930 . S
O149 Co138 2.039 . S
O149 C139 1.265 . S
C150 O146 1.253 . S
C150 O151 1.227 . S
O151 C150 1.227 . S
N152 Co138 2.140 . S
N152 C155 1.346 . S
N152 C156 1.345 . S
C153 C154 1.387 . S
C153 C157 1.391 . S
C154 C153 1.387 . S
C154 C155 1.369 . S
C154 H163 0.929 . S
C155 N152 1.346 . S
C155 C154 1.369 . S
C155 H158 0.928 . S
C156 N152 1.345 . S
C156 C157 1.371 . S
C156 H159 0.931 . S
C157 C153 1.391 . S
C157 C156 1.371 . S
C157 H164 0.930 . S
H158 C155 0.928 . S
H159 C156 0.931 . S
H160 C136 0.930 . S
H161 C133 0.930 . S
H162 C142 0.930 . S
H163 C154 0.929 . S
H164 C157 0.930 . S
C165 C166 1.351 . S
C165 N168 1.368 . S
C165 H170 0.931 . S
C166 C165 1.351 . S
C166 N167 1.373 . S
C166 H194 0.930 . S
N167 C166 1.373 . S
N167 C169 1.340 . S
N168 C165 1.368 . S
N168 C169 1.321 . S
N168 Co171 2.135 . S
C169 N167 1.340 . S
C169 N168 1.321 . S
C169 H193 0.930 . S
H170 C165 0.931 . S
Co171 N168 2.135 . S
Co171 N174 2.121 . S
Co171 O179 2.055 . S
Co171 O182 2.039 . S
Co171 N185 2.140 . S
C172 O173 1.227 . S
C172 O182 1.265 . S
O173 C172 1.227 . S
N174 Co171 2.121 . S
N174 C176 1.375 . S
N174 C177 1.313 . S
C175 C176 1.338 . S
C175 N178 1.377 . S
C175 H195 0.930 . S
C176 N174 1.375 . S
C176 C175 1.338 . S
C176 H180 0.931 . S
C177 N174 1.313 . S
C177 N178 1.344 . S
C177 H181 0.930 . S
N178 C175 1.377 . S
N178 C177 1.344 . S
O179 Co171 2.055 . S
O179 C183 1.253 . S
H180 C176 0.931 . S
H181 C177 0.930 . S
O182 Co171 2.039 . S
O182 C172 1.265 . S
C183 O179 1.253 . S
C183 O184 1.227 . S
O184 C183 1.227 . S
N185 Co171 2.140 . S
N185 C188 1.346 . S
N185 C189 1.345 . S
C186 C187 1.387 . S
C186 C190 1.391 . S
C187 C186 1.387 . S
C187 C188 1.369 . S
C187 H196 0.929 . S
C188 N185 1.346 . S
C188 C187 1.369 . S
C188 H191 0.928 . S
C189 N185 1.345 . S
C189 C190 1.371 . S
C189 H192 0.931 . S
C190 C186 1.391 . S
C190 C189 1.371 . S
C190 H197 0.930 . S
H191 C188 0.928 . S
H192 C189 0.931 . S
H193 C169 0.930 . S
H194 C166 0.930 . S
H195 C175 0.930 . S
H196 C187 0.929 . S
H197 C190 0.930 . S
C198 C199 1.351 . S
C198 N201 1.368 . S
C198 H203 0.931 . S
C199 C198 1.351 . S
C199 N200 1.373 . S
C199 H227 0.930 . S
N200 C199 1.373 . S
N200 C202 1.340 . S
N201 C198 1.368 . S
N201 C202 1.321 . S
N201 Co204 2.135 . S
C202 N200 1.340 . S
C202 N201 1.321 . S
C202 H226 0.930 . S
H203 C198 0.931 . S
Co204 N201 2.135 . S
Co204 N207 2.121 . S
Co204 O212 2.055 . S
Co204 O215 2.039 . S
Co204 N218 2.140 . S
C205 O206 1.227 . S
C205 O215 1.265 . S
O206 C205 1.227 . S
N207 Co204 2.121 . S
N207 C209 1.375 . S
N207 C210 1.313 . S
C208 C209 1.338 . S
C208 N211 1.377 . S
C208 H228 0.930 . S
C209 N207 1.375 . S
C209 C208 1.338 . S
C209 H213 0.931 . S
C210 N207 1.313 . S
C210 N211 1.344 . S
C210 H214 0.930 . S
N211 C208 1.377 . S
N211 C210 1.344 . S
O212 Co204 2.055 . S
O212 C216 1.253 . S
H213 C209 0.931 . S
H214 C210 0.930 . S
O215 Co204 2.039 . S
O215 C205 1.265 . S
C216 O212 1.253 . S
C216 O217 1.227 . S
O217 C216 1.227 . S
N218 Co204 2.140 . S
N218 C221 1.346 . S
N218 C222 1.345 . S
C219 C220 1.387 . S
C219 C223 1.391 . S
C220 C219 1.387 . S
C220 C221 1.369 . S
C220 H229 0.929 . S
C221 N218 1.346 . S
C221 C220 1.369 . S
C221 H224 0.928 . S
C222 N218 1.345 . S
C222 C223 1.371 . S
C222 H225 0.931 . S
C223 C219 1.391 . S
C223 C222 1.371 . S
C223 H230 0.930 1_455 S
H224 C221 0.928 . S
H225 C222 0.931 . S
H226 C202 0.930 . S
H227 C199 0.930 . S
H228 C208 0.930 . S
H229 C220 0.929 . S
H230 C223 0.930 1_655 S
C231 C232 1.351 . S
C231 N234 1.368 . S
C231 H236 0.931 . S
C232 C231 1.351 . S
C232 N233 1.373 . S
C232 H260 0.930 . S
N233 C232 1.373 . S
N233 C235 1.340 . S
N234 C231 1.368 . S
N234 C235 1.321 . S
N234 Co237 2.135 . S
C235 N233 1.340 . S
C235 N234 1.321 . S
C235 H259 0.930 . S
H236 C231 0.931 . S
Co237 N234 2.135 . S
Co237 N240 2.121 . S
Co237 O245 2.055 . S
Co237 O248 2.039 . S
Co237 N251 2.140 . S
C238 O239 1.227 . S
C238 O248 1.265 . S
O239 C238 1.227 . S
N240 Co237 2.121 . S
N240 C242 1.375 . S
N240 C243 1.313 . S
C241 C242 1.338 . S
C241 N244 1.377 . S
C241 H261 0.930 . S
C242 N240 1.375 . S
C242 C241 1.338 . S
C242 H246 0.931 . S
C243 N240 1.313 . S
C243 N244 1.344 . S
C243 H247 0.930 . S
N244 C241 1.377 . S
N244 C243 1.344 . S
O245 Co237 2.055 . S
O245 C249 1.253 . S
H246 C242 0.931 . S
H247 C243 0.930 . S
O248 Co237 2.039 . S
O248 C238 1.265 . S
C249 O245 1.253 . S
C249 O250 1.227 . S
O250 C249 1.227 . S
N251 Co237 2.140 . S
N251 C254 1.346 . S
N251 C255 1.345 . S
C252 C253 1.387 . S
C252 C256 1.391 . S
C253 C252 1.387 . S
C253 C254 1.369 . S
C253 H262 0.929 . S
C254 N251 1.346 . S
C254 C253 1.369 . S
C254 H257 0.928 . S
C255 N251 1.345 . S
C255 C256 1.371 . S
C255 H258 0.931 . S
C256 C252 1.391 . S
C256 C255 1.371 . S
C256 H263 0.930 . S
H257 C254 0.928 . S
H258 C255 0.931 . S
H259 C235 0.930 . S
H260 C232 0.930 . S
H261 C241 0.930 . S
H262 C253 0.929 . S
H263 C256 0.930 . S
C264 C265 1.351 1_545 S
C264 N267 1.368 . S
C264 H269 0.931 . S
C265 C264 1.351 1_565 S
C265 N266 1.373 . S
C265 H293 0.930 . S
N266 C265 1.373 . S
N266 C268 1.340 . S
N267 C264 1.368 . S
N267 C268 1.321 1_545 S
N267 Co270 2.135 . S
C268 N266 1.340 . S
C268 N267 1.321 1_565 S
C268 H292 0.930 . S
H269 C264 0.931 . S
Co270 N267 2.135 . S
Co270 N273 2.121 . S
Co270 O278 2.055 . S
Co270 O281 2.039 . S
Co270 N284 2.140 . S
C271 O272 1.227 . S
C271 O281 1.265 . S
O272 C271 1.227 . S
N273 Co270 2.121 . S
N273 C275 1.375 . S
N273 C276 1.313 . S
C274 C275 1.338 . S
C274 N277 1.377 . S
C274 H294 0.930 . S
C275 N273 1.375 . S
C275 C274 1.338 . S
C275 H279 0.931 . S
C276 N273 1.313 . S
C276 N277 1.344 . S
C276 H280 0.930 . S
N277 C274 1.377 . S
N277 C276 1.344 . S
O278 Co270 2.055 . S
O278 C282 1.253 . S
H279 C275 0.931 . S
H280 C276 0.930 . S
O281 Co270 2.039 . S
O281 C271 1.265 . S
C282 O278 1.253 . S
C282 O283 1.227 . S
O283 C282 1.227 . S
N284 Co270 2.140 . S
N284 C287 1.346 . S
N284 C288 1.345 . S
C285 C286 1.387 . S
C285 C289 1.391 1_556 S
C286 C285 1.387 . S
C286 C287 1.369 1_556 S
C286 H295 0.929 . S
C287 N284 1.346 . S
C287 C286 1.369 1_554 S
C287 H290 0.928 . S
C288 N284 1.345 . S
C288 C289 1.371 . S
C288 H291 0.931 . S
C289 C285 1.391 1_554 S
C289 C288 1.371 . S
C289 H296 0.930 . S
H290 C287 0.928 . S
H291 C288 0.931 . S
H292 C268 0.930 . S
H293 C265 0.930 . S
H294 C274 0.930 . S
H295 C286 0.929 . S
H296 C289 0.930 . S
C297 C298 1.351 . S
C297 N300 1.368 . S
C297 H302 0.931 . S
C298 C297 1.351 . S
C298 N299 1.373 . S
C298 H326 0.930 . S
N299 C298 1.373 . S
N299 C301 1.340 . S
N300 C297 1.368 . S
N300 C301 1.321 . S
N300 Co303 2.135 . S
C301 N299 1.340 . S
C301 N300 1.321 . S
C301 H325 0.930 . S
H302 C297 0.931 . S
Co303 N300 2.135 . S
Co303 N306 2.121 . S
Co303 O311 2.055 . S
Co303 O314 2.039 . S
Co303 N317 2.140 . S
C304 O305 1.227 . S
C304 O314 1.265 . S
O305 C304 1.227 . S
N306 Co303 2.121 . S
N306 C308 1.375 . S
N306 C309 1.313 . S
C307 C308 1.338 . S
C307 N310 1.377 . S
C307 H327 0.930 . S
C308 N306 1.375 . S
C308 C307 1.338 . S
C308 H312 0.931 . S
C309 N306 1.313 . S
C309 N310 1.344 . S
C309 H313 0.930 . S
N310 C307 1.377 . S
N310 C309 1.344 . S
O311 Co303 2.055 . S
O311 C315 1.253 . S
H312 C308 0.931 . S
H313 C309 0.930 . S
O314 Co303 2.039 . S
O314 C304 1.265 . S
C315 O311 1.253 . S
C315 O316 1.227 . S
O316 C315 1.227 . S
N317 Co303 2.140 . S
N317 C320 1.346 . S
N317 C321 1.345 . S
C318 C319 1.387 . S
C318 C322 1.391 . S
C319 C318 1.387 . S
C319 C320 1.369 . S
C319 H328 0.929 . S
C320 N317 1.346 . S
C320 C319 1.369 . S
C320 H323 0.928 . S
C321 N317 1.345 . S
C321 C322 1.371 . S
C321 H324 0.931 . S
C322 C318 1.391 . S
C322 C321 1.371 . S
C322 H329 0.930 . S
H323 C320 0.928 . S
H324 C321 0.931 . S
H325 C301 0.930 . S
H326 C298 0.930 . S
H327 C307 0.930 . S
H328 C319 0.929 . S
H329 C322 0.930 . S
C330 C331 1.351 . S
C330 N333 1.368 . S
C330 H335 0.931 . S
C331 C330 1.351 . S
C331 N332 1.373 . S
C331 H359 0.930 . S
N332 C331 1.373 . S
N332 C334 1.340 . S
N333 C330 1.368 . S
N333 C334 1.321 . S
N333 Co336 2.135 . S
C334 N332 1.340 . S
C334 N333 1.321 . S
C334 H358 0.930 . S
H335 C330 0.931 . S
Co336 N333 2.135 . S
Co336 N339 2.121 . S
Co336 O344 2.055 . S
Co336 O347 2.039 . S
Co336 N350 2.140 . S
C337 O338 1.227 . S
C337 O347 1.265 . S
O338 C337 1.227 . S
N339 Co336 2.121 . S
N339 C341 1.375 . S
N339 C342 1.313 . S
C340 C341 1.338 . S
C340 N343 1.377 . S
C340 H360 0.930 . S
C341 N339 1.375 . S
C341 C340 1.338 . S
C341 H345 0.931 . S
C342 N339 1.313 . S
C342 N343 1.344 . S
C342 H346 0.930 . S
N343 C340 1.377 . S
N343 C342 1.344 . S
O344 Co336 2.055 . S
O344 C348 1.253 . S
H345 C341 0.931 . S
H346 C342 0.930 . S
O347 Co336 2.039 . S
O347 C337 1.265 . S
C348 O344 1.253 . S
C348 O349 1.227 . S
O349 C348 1.227 . S
N350 Co336 2.140 . S
N350 C353 1.346 . S
N350 C354 1.345 . S
C351 C352 1.387 . S
C351 C355 1.391 . S
C352 C351 1.387 . S
C352 C353 1.369 . S
C352 H361 0.929 . S
C353 N350 1.346 . S
C353 C352 1.369 . S
C353 H356 0.928 . S
C354 N350 1.345 . S
C354 C355 1.371 . S
C354 H357 0.931 . S
C355 C351 1.391 . S
C355 C354 1.371 . S
C355 H362 0.930 1_545 S
H356 C353 0.928 . S
H357 C354 0.931 . S
H358 C334 0.930 . S
H359 C331 0.930 . S
H360 C340 0.930 . S
H361 C352 0.929 . S
H362 C355 0.930 1_565 S
C363 C364 1.351 . S
C363 N366 1.368 . S
C363 H368 0.931 . S
C364 C363 1.351 . S
C364 N365 1.373 . S
C364 H392 0.930 . S
N365 C364 1.373 . S
N365 C367 1.340 . S
N366 C363 1.368 . S
N366 C367 1.321 . S
N366 Co369 2.135 . S
C367 N365 1.340 . S
C367 N366 1.321 . S
C367 H391 0.930 . S
H368 C363 0.931 . S
Co369 N366 2.135 . S
Co369 N372 2.121 . S
Co369 O377 2.055 . S
Co369 O380 2.039 . S
Co369 N383 2.140 . S
C370 O371 1.227 . S
C370 O380 1.265 . S
O371 C370 1.227 . S
N372 Co369 2.121 . S
N372 C374 1.375 . S
N372 C375 1.313 . S
C373 C374 1.338 . S
C373 N376 1.377 . S
C373 H393 0.930 . S
C374 N372 1.375 . S
C374 C373 1.338 . S
C374 H378 0.931 . S
C375 N372 1.313 . S
C375 N376 1.344 . S
C375 H379 0.930 . S
N376 C373 1.377 . S
N376 C375 1.344 . S
O377 Co369 2.055 . S
O377 C381 1.253 . S
H378 C374 0.931 . S
H379 C375 0.930 . S
O380 Co369 2.039 . S
O380 C370 1.265 . S
C381 O377 1.253 . S
C381 O382 1.227 . S
O382 C381 1.227 . S
N383 Co369 2.140 . S
N383 C386 1.346 . S
N383 C387 1.345 . S
C384 C385 1.387 . S
C384 C388 1.391 . S
C385 C384 1.387 . S
C385 C386 1.369 . S
C385 H394 0.929 . S
C386 N383 1.346 . S
C386 C385 1.369 . S
C386 H389 0.928 . S
C387 N383 1.345 . S
C387 C388 1.371 . S
C387 H390 0.931 . S
C388 C384 1.391 . S
C388 C387 1.371 . S
C388 H395 0.930 . S
H389 C386 0.928 . S
H390 C387 0.931 . S
H391 C367 0.930 . S
H392 C364 0.930 . S
H393 C373 0.930 . S
H394 C385 0.929 . S
H395 C388 0.930 . S
C396 C397 1.351 . S
C396 N399 1.368 . S
C396 H401 0.931 . S
C397 C396 1.351 . S
C397 N398 1.373 . S
C397 H425 0.930 . S
N398 C397 1.373 . S
N398 C400 1.340 . S
N399 C396 1.368 . S
N399 C400 1.321 . S
N399 Co402 2.135 . S
C400 N398 1.340 . S
C400 N399 1.321 . S
C400 H424 0.930 . S
H401 C396 0.931 . S
Co402 N399 2.135 . S
Co402 N405 2.121 . S
Co402 O410 2.048 1_554 S
Co402 O413 2.039 . S
Co402 N416 2.140 . S
C403 O404 1.227 . S
C403 O413 1.265 . S
O404 C403 1.227 . S
N405 Co402 2.121 . S
N405 C407 1.375 . S
N405 C408 1.313 . S
C406 C407 1.338 . S
C406 N409 1.377 . S
C406 H426 0.930 . S
C407 N405 1.375 . S
C407 C406 1.338 . S
C407 H411 0.931 . S
C408 N405 1.313 . S
C408 N409 1.344 . S
C408 H412 0.935 . S
N409 C406 1.377 . S
N409 C408 1.344 . S
O410 Co402 2.048 1_556 S
O410 C414 1.253 . S
H411 C407 0.931 . S
H412 C408 0.935 . S
O413 Co402 2.039 . S
O413 C403 1.265 . S
C414 O410 1.253 . S
C414 O415 1.227 1_556 S
O415 C414 1.227 1_554 S
N416 Co402 2.140 . S
N416 C419 1.346 . S
N416 C420 1.345 . S
C417 C418 1.387 . S
C417 C421 1.391 . S
C418 C417 1.387 . S
C418 C419 1.369 . S
C418 H427 0.929 . S
C419 N416 1.346 . S
C419 C418 1.369 . S
C419 H422 0.928 . S
C420 N416 1.345 . S
C420 C421 1.371 . S
C420 H423 0.931 . S
C421 C417 1.391 . S
C421 C420 1.371 . S
C421 H428 0.930 . S
H422 C419 0.928 . S
H423 C420 0.931 . S
H424 C400 0.930 . S
H425 C397 0.930 . S
H426 C406 0.930 . S
H427 C418 0.929 . S
H428 C421 0.930 . S
C429 C430 1.351 . S
C429 N432 1.327 1_545 S
C429 H434 0.931 . S
C430 C429 1.351 . S
C430 N431 1.373 . S
C430 H458 0.930 . S
N431 C430 1.373 . S
N431 C433 1.340 1_545 S
N432 C429 1.327 1_565 S
N432 C433 1.323 . S
N432 Co435 2.165 . S
C433 N431 1.340 1_565 S
C433 N432 1.323 . S
C433 H457 0.930 . S
H434 C429 0.931 . S
Co435 N432 2.165 . S
Co435 N438 2.121 . S
Co435 O443 2.055 . S
Co435 O446 2.039 . S
Co435 N449 2.140 . S
C436 O437 1.227 . S
C436 O446 1.265 . S
O437 C436 1.227 . S
N438 Co435 2.121 . S
N438 C440 1.375 . S
N438 C441 1.313 . S
C439 C440 1.338 . S
C439 N442 1.377 . S
C439 H459 0.930 . S
C440 N438 1.375 . S
C440 C439 1.338 . S
C440 H444 0.931 . S
C441 N438 1.313 . S
C441 N442 1.344 . S
C441 H445 0.930 . S
N442 C439 1.377 . S
N442 C441 1.344 . S
O443 Co435 2.055 . S
O443 C447 1.253 . S
H444 C440 0.931 . S
H445 C441 0.930 . S
O446 Co435 2.039 . S
O446 C436 1.265 . S
C447 O443 1.253 . S
C447 O448 1.218 1_565 S
O448 C447 1.218 1_545 S
N449 Co435 2.140 . S
N449 C452 1.346 . S
N449 C453 1.345 . S
C450 C451 1.387 . S
C450 C454 1.391 . S
C451 C450 1.387 . S
C451 C452 1.369 . S
C451 H460 0.929 . S
C452 N449 1.346 . S
C452 C451 1.369 . S
C452 H455 0.928 . S
C453 N449 1.345 . S
C453 C454 1.371 . S
C453 H456 0.931 . S
C454 C450 1.391 . S
C454 C453 1.371 . S
C454 H461 0.930 . S
H455 C452 0.928 . S
H456 C453 0.931 . S
H457 C433 0.930 . S
H458 C430 0.930 . S
H459 C439 0.930 . S
H460 C451 0.929 . S
H461 C454 0.930 . S
C462 C463 1.351 . S
C462 N465 1.368 . S
C462 H467 0.931 . S
C463 C462 1.351 . S
C463 N464 1.373 . S
C463 H491 0.930 . S
N464 C463 1.373 . S
N464 C466 1.340 . S
N465 C462 1.368 . S
N465 C466 1.321 . S
N465 Co468 2.135 . S
C466 N464 1.340 . S
C466 N465 1.321 . S
C466 H490 0.930 . S
H467 C462 0.931 . S
Co468 N465 2.135 . S
Co468 N471 2.121 . S
Co468 O476 2.055 . S
Co468 O479 2.039 . S
Co468 N482 2.140 . S
C469 O470 1.227 . S
C469 O479 1.265 . S
O470 C469 1.227 . S
N471 Co468 2.121 . S
N471 C473 1.375 . S
N471 C474 1.313 . S
C472 C473 1.338 . S
C472 N475 1.377 . S
C472 H492 0.930 . S
C473 N471 1.375 . S
C473 C472 1.338 . S
C473 H477 0.931 . S
C474 N471 1.313 . S
C474 N475 1.344 . S
C474 H478 0.930 . S
N475 C472 1.377 . S
N475 C474 1.344 . S
O476 Co468 2.055 . S
O476 C480 1.253 . S
H477 C473 0.931 . S
H478 C474 0.930 . S
O479 Co468 2.039 . S
O479 C469 1.265 . S
C480 O476 1.253 . S
C480 O481 1.227 . S
O481 C480 1.227 . S
N482 Co468 2.140 . S
N482 C485 1.346 . S
N482 C486 1.345 . S
C483 C484 1.387 . S
C483 C487 1.391 . S
C484 C483 1.387 . S
C484 C485 1.369 . S
C484 H493 0.929 . S
C485 N482 1.346 . S
C485 C484 1.369 . S
C485 H488 0.928 . S
C486 N482 1.345 . S
C486 C487 1.371 . S
C486 H489 0.931 . S
C487 C483 1.391 . S
C487 C486 1.371 . S
C487 H494 0.930 . S
H488 C485 0.928 . S
H489 C486 0.931 . S
H490 C466 0.930 . S
H491 C463 0.930 . S
H492 C472 0.930 . S
H493 C484 0.929 . S
H494 C487 0.930 . S
C495 C496 1.351 . S
C495 N498 1.368 . S
C495 H500 0.931 . S
C496 C495 1.351 . S
C496 N497 1.373 . S
C496 H524 0.930 . S
N497 C496 1.373 . S
N497 C499 1.340 . S
N498 C495 1.368 . S
N498 C499 1.321 . S
N498 Co501 2.135 . S
C499 N497 1.340 . S
C499 N498 1.321 . S
C499 H523 0.930 . S
H500 C495 0.931 . S
Co501 N498 2.135 . S
Co501 N504 2.121 . S
Co501 O509 2.055 . S
Co501 O512 2.039 . S
Co501 N515 2.140 . S
C502 O503 1.227 . S
C502 O512 1.265 . S
O503 C502 1.227 . S
N504 Co501 2.121 . S
N504 C506 1.375 . S
N504 C507 1.313 . S
C505 C506 1.338 . S
C505 N508 1.377 . S
C505 H525 0.930 . S
C506 N504 1.375 . S
C506 C505 1.338 . S
C506 H510 0.931 . S
C507 N504 1.313 . S
C507 N508 1.344 . S
C507 H511 0.930 . S
N508 C505 1.377 . S
N508 C507 1.344 . S
O509 Co501 2.055 . S
O509 C513 1.253 . S
H510 C506 0.931 . S
H511 C507 0.930 . S
O512 Co501 2.039 . S
O512 C502 1.265 . S
C513 O509 1.253 . S
C513 O514 1.227 . S
O514 C513 1.227 . S
N515 Co501 2.140 . S
N515 C518 1.346 . S
N515 C519 1.345 . S
C516 C517 1.387 . S
C516 C520 1.391 . S
C517 C516 1.387 . S
C517 C518 1.369 . S
C517 H526 0.929 . S
C518 N515 1.346 . S
C518 C517 1.369 . S
C518 H521 0.928 . S
C519 N515 1.345 . S
C519 C520 1.371 . S
C519 H522 0.931 . S
C520 C516 1.391 . S
C520 C519 1.371 . S
C520 H527 0.930 . S
H521 C518 0.928 . S
H522 C519 0.931 . S
H523 C499 0.930 . S
H524 C496 0.930 . S
H525 C505 0.930 . S
H526 C517 0.929 . S
H527 C520 0.930 . S
C528 C529 1.351 1_554 S
C528 N531 1.368 . S
C528 H533 0.931 . S
C529 C528 1.351 1_556 S
C529 N530 1.373 . S
C529 H557 0.930 . S
N530 C529 1.373 . S
N530 C532 1.340 . S
N531 C528 1.368 . S
N531 C532 1.321 1_554 S
N531 Co534 2.135 . S
C532 N530 1.340 . S
C532 N531 1.321 1_556 S
C532 H556 0.930 . S
H533 C528 0.931 . S
Co534 N531 2.135 . S
Co534 N537 2.121 . S
Co534 O542 2.055 . S
Co534 O545 2.039 . S
Co534 N548 2.140 . S
C535 O536 1.227 . S
C535 O545 1.265 . S
O536 C535 1.227 . S
N537 Co534 2.121 . S
N537 C539 1.375 . S
N537 C540 1.313 . S
C538 C539 1.338 . S
C538 N541 1.377 . S
C538 H558 0.930 . S
C539 N537 1.375 . S
C539 C538 1.338 . S
C539 H543 0.931 . S
C540 N537 1.313 . S
C540 N541 1.344 . S
C540 H544 0.930 . S
N541 C538 1.377 . S
N541 C540 1.344 . S
O542 Co534 2.055 . S
O542 C546 1.253 . S
H543 C539 0.931 . S
H544 C540 0.930 . S
O545 Co534 2.039 . S
O545 C535 1.265 . S
C546 O542 1.253 . S
C546 O547 1.227 . S
O547 C546 1.227 . S
N548 Co534 2.140 . S
N548 C551 1.346 . S
N548 C552 1.345 . S
C549 C550 1.387 . S
C549 C553 1.391 1_655 S
C550 C549 1.387 . S
C550 C551 1.369 1_655 S
C550 H559 0.929 . S
C551 N548 1.346 . S
C551 C550 1.369 1_455 S
C551 H554 0.928 . S
C552 N548 1.345 . S
C552 C553 1.371 . S
C552 H555 0.931 . S
C553 C549 1.391 1_455 S
C553 C552 1.371 . S
C553 H560 0.930 . S
H554 C551 0.928 . S
H555 C552 0.931 . S
H556 C532 0.930 . S
H557 C529 0.930 . S
H558 C538 0.930 . S
H559 C550 0.929 . S
H560 C553 0.930 . S
C561 C562 1.351 . S
C561 N564 1.368 . S
C561 H566 0.931 . S
C562 C561 1.351 . S
C562 N563 1.373 . S
C562 H590 0.930 . S
N563 C562 1.373 . S
N563 C565 1.340 . S
N564 C561 1.368 . S
N564 C565 1.321 . S
N564 Co567 2.135 . S
C565 N563 1.340 . S
C565 N564 1.321 . S
C565 H589 0.930 . S
H566 C561 0.931 . S
Co567 N564 2.135 . S
Co567 N570 2.121 . S
Co567 O575 2.055 . S
Co567 O578 2.039 . S
Co567 N581 2.140 . S
C568 O569 1.227 . S
C568 O578 1.265 . S
O569 C568 1.227 . S
N570 Co567 2.121 . S
N570 C572 1.375 . S
N570 C573 1.313 . S
C571 C572 1.338 . S
C571 N574 1.377 . S
C571 H591 0.930 . S
C572 N570 1.375 . S
C572 C571 1.338 . S
C572 H576 0.931 . S
C573 N570 1.313 . S
C573 N574 1.344 . S
C573 H577 0.930 . S
N574 C571 1.377 . S
N574 C573 1.344 . S
O575 Co567 2.055 . S
O575 C579 1.253 . S
H576 C572 0.931 . S
H577 C573 0.930 . S
O578 Co567 2.039 . S
O578 C568 1.265 . S
C579 O575 1.253 . S
C579 O580 1.227 . S
O580 C579 1.227 . S
N581 Co567 2.140 . S
N581 C584 1.346 . S
N581 C585 1.345 . S
C582 C583 1.387 . S
C582 C586 1.391 . S
C583 C582 1.387 . S
C583 C584 1.369 . S
C583 H592 0.929 . S
C584 N581 1.346 . S
C584 C583 1.369 . S
C584 H587 0.928 . S
C585 N581 1.345 . S
C585 C586 1.371 . S
C585 H588 0.931 . S
C586 C582 1.391 . S
C586 C585 1.371 . S
C586 H593 0.930 1_554 S
H587 C584 0.928 . S
H588 C585 0.931 . S
H589 C565 0.930 . S
H590 C562 0.930 . S
H591 C571 0.930 . S
H592 C583 0.929 . S
H593 C586 0.930 1_556 S
C594 C595 1.351 . S
C594 N597 1.368 . S
C594 H599 0.931 . S
C595 C594 1.351 . S
C595 N596 1.373 . S
C595 H623 0.930 . S
N596 C595 1.373 . S
N596 C598 1.340 . S
N597 C594 1.368 . S
N597 C598 1.321 . S
N597 Co600 2.135 . S
C598 N596 1.340 . S
C598 N597 1.321 . S
C598 H622 0.930 . S
H599 C594 0.931 . S
Co600 N597 2.135 . S
Co600 N603 2.121 . S
Co600 O608 2.055 . S
Co600 O611 2.039 . S
Co600 N614 2.140 . S
C601 O602 1.227 . S
C601 O611 1.265 . S
O602 C601 1.227 . S
N603 Co600 2.121 . S
N603 C605 1.375 . S
N603 C606 1.313 . S
C604 C605 1.338 . S
C604 N607 1.377 . S
C604 H624 0.930 . S
C605 N603 1.375 . S
C605 C604 1.338 . S
C605 H609 0.931 . S
C606 N603 1.313 . S
C606 N607 1.344 . S
C606 H610 0.930 . S
N607 C604 1.377 . S
N607 C606 1.344 . S
O608 Co600 2.055 . S
O608 C612 1.253 . S
H609 C605 0.931 . S
H610 C606 0.930 . S
O611 Co600 2.039 . S
O611 C601 1.265 . S
C612 O608 1.253 . S
C612 O613 1.227 . S
O613 C612 1.227 . S
N614 Co600 2.140 . S
N614 C617 1.346 . S
N614 C618 1.345 . S
C615 C616 1.387 . S
C615 C619 1.391 . S
C616 C615 1.387 . S
C616 C617 1.369 . S
C616 H625 0.929 . S
C617 N614 1.346 . S
C617 C616 1.369 . S
C617 H620 0.928 . S
C618 N614 1.345 . S
C618 C619 1.371 . S
C618 H621 0.931 . S
C619 C615 1.391 . S
C619 C618 1.371 . S
C619 H626 0.930 . S
H620 C617 0.928 . S
H621 C618 0.931 . S
H622 C598 0.930 . S
H623 C595 0.930 . S
H624 C604 0.930 . S
H625 C616 0.929 . S
H626 C619 0.930 . S
C627 C628 1.351 . S
C627 N630 1.368 . S
C627 H632 0.931 . S
C628 C627 1.351 . S
C628 N629 1.373 . S
C628 H656 0.930 . S
N629 C628 1.373 . S
N629 C631 1.340 . S
N630 C627 1.368 . S
N630 C631 1.321 . S
N630 Co633 2.135 . S
C631 N629 1.340 . S
C631 N630 1.321 . S
C631 H655 0.930 . S
H632 C627 0.931 . S
Co633 N630 2.135 . S
Co633 N636 2.121 . S
Co633 O641 2.048 1_455 S
Co633 O644 2.039 . S
Co633 N647 2.140 . S
C634 O635 1.227 . S
C634 O644 1.265 . S
O635 C634 1.227 . S
N636 Co633 2.121 . S
N636 C638 1.375 . S
N636 C639 1.313 . S
C637 C638 1.338 . S
C637 N640 1.377 . S
C637 H657 0.930 . S
C638 N636 1.375 . S
C638 C637 1.338 . S
C638 H642 0.931 . S
C639 N636 1.313 . S
C639 N640 1.344 . S
C639 H643 0.935 . S
N640 C637 1.377 . S
N640 C639 1.344 . S
O641 Co633 2.048 1_655 S
O641 C645 1.253 . S
H642 C638 0.931 . S
H643 C639 0.935 . S
O644 Co633 2.039 . S
O644 C634 1.265 . S
C645 O641 1.253 . S
C645 O646 1.227 1_655 S
O646 C645 1.227 1_455 S
N647 Co633 2.140 . S
N647 C650 1.346 . S
N647 C651 1.345 . S
C648 C649 1.387 . S
C648 C652 1.391 . S
C649 C648 1.387 . S
C649 C650 1.369 . S
C649 H658 0.929 . S
C650 N647 1.346 . S
C650 C649 1.369 . S
C650 H653 0.928 . S
C651 N647 1.345 . S
C651 C652 1.371 . S
C651 H654 0.931 . S
C652 C648 1.391 . S
C652 C651 1.371 . S
C652 H659 0.930 . S
H653 C650 0.928 . S
H654 C651 0.931 . S
H655 C631 0.930 . S
H656 C628 0.930 . S
H657 C637 0.930 . S
H658 C649 0.929 . S
H659 C652 0.930 . S
C660 C661 1.351 . S
C660 N663 1.368 . S
C660 H665 0.931 . S
C661 C660 1.351 . S
C661 N662 1.373 . S
C661 H689 0.930 . S
N662 C661 1.373 . S
N662 C664 1.340 . S
N663 C660 1.368 . S
N663 C664 1.321 . S
N663 Co666 2.135 . S
C664 N662 1.340 . S
C664 N663 1.321 . S
C664 H688 0.930 . S
H665 C660 0.931 . S
Co666 N663 2.135 . S
Co666 N669 2.121 . S
Co666 O674 2.055 . S
Co666 O677 2.039 . S
Co666 N680 2.140 . S
C667 O668 1.227 . S
C667 O677 1.265 . S
O668 C667 1.227 . S
N669 Co666 2.121 . S
N669 C671 1.375 . S
N669 C672 1.313 . S
C670 C671 1.338 . S
C670 N673 1.377 . S
C670 H690 0.930 . S
C671 N669 1.375 . S
C671 C670 1.338 . S
C671 H675 0.931 . S
C672 N669 1.313 . S
C672 N673 1.344 . S
C672 H676 0.930 . S
N673 C670 1.377 . S
N673 C672 1.344 . S
O674 Co666 2.055 . S
O674 C678 1.253 . S
H675 C671 0.931 . S
H676 C672 0.930 . S
O677 Co666 2.039 . S
O677 C667 1.265 . S
C678 O674 1.253 . S
C678 O679 1.227 . S
O679 C678 1.227 . S
N680 Co666 2.140 . S
N680 C683 1.346 . S
N680 C684 1.345 . S
C681 C682 1.387 . S
C681 C685 1.391 . S
C682 C681 1.387 . S
C682 C683 1.369 . S
C682 H691 0.929 . S
C683 N680 1.346 . S
C683 C682 1.369 . S
C683 H686 0.928 . S
C684 N680 1.345 . S
C684 C685 1.371 . S
C684 H687 0.931 . S
C685 C681 1.391 . S
C685 C684 1.371 . S
C685 H692 0.930 . S
H686 C683 0.928 . S
H687 C684 0.931 . S
H688 C664 0.930 . S
H689 C661 0.930 . S
H690 C670 0.930 . S
H691 C682 0.929 . S
H692 C685 0.930 . S
C693 C694 1.351 . S
C693 N696 1.368 . S
C693 H698 0.931 . S
C694 C693 1.351 . S
C694 N695 1.373 . S
C694 H722 0.930 . S
N695 C694 1.373 . S
N695 C697 1.340 . S
N696 C693 1.368 . S
N696 C697 1.321 . S
N696 Co699 2.135 . S
C697 N695 1.340 . S
C697 N696 1.321 . S
C697 H721 0.930 . S
H698 C693 0.931 . S
Co699 N696 2.135 . S
Co699 N702 2.121 . S
Co699 O707 2.055 . S
Co699 O710 2.039 . S
Co699 N713 2.140 . S
C700 O701 1.227 . S
C700 O710 1.265 . S
O701 C700 1.227 . S
N702 Co699 2.121 . S
N702 C704 1.375 . S
N702 C705 1.313 . S
C703 C704 1.338 . S
C703 N706 1.377 . S
C703 H723 0.930 . S
C704 N702 1.375 . S
C704 C703 1.338 . S
C704 H708 0.931 . S
C705 N702 1.313 . S
C705 N706 1.344 . S
C705 H709 0.930 . S
N706 C703 1.377 . S
N706 C705 1.344 . S
O707 Co699 2.055 . S
O707 C711 1.253 . S
H708 C704 0.931 . S
H709 C705 0.930 . S
O710 Co699 2.039 . S
O710 C700 1.265 . S
C711 O707 1.253 . S
C711 O712 1.227 . S
O712 C711 1.227 . S
N713 Co699 2.140 . S
N713 C716 1.346 . S
N713 C717 1.345 . S
C714 C715 1.387 . S
C714 C718 1.391 . S
C715 C714 1.387 . S
C715 C716 1.369 . S
C715 H724 0.929 . S
C716 N713 1.346 . S
C716 C715 1.369 . S
C716 H719 0.928 . S
C717 N713 1.345 . S
C717 C718 1.371 . S
C717 H720 0.931 . S
C718 C714 1.391 . S
C718 C717 1.371 . S
C718 H725 0.930 . S
H719 C716 0.928 . S
H720 C717 0.931 . S
H721 C697 0.930 . S
H722 C694 0.930 . S
H723 C703 0.930 . S
H724 C715 0.929 . S
H725 C718 0.930 . S
C726 C727 1.351 . S
C726 N729 1.327 1_455 S
C726 H731 0.931 . S
C727 C726 1.351 . S
C727 N728 1.373 . S
C727 H755 0.930 . S
N728 C727 1.373 . S
N728 C730 1.340 1_455 S
N729 C726 1.327 1_655 S
N729 C730 1.323 . S
N729 Co732 2.165 . S
C730 N728 1.340 1_655 S
C730 N729 1.323 . S
C730 H754 0.930 . S
H731 C726 0.931 . S
Co732 N729 2.165 . S
Co732 N735 2.121 . S
Co732 O740 2.055 . S
Co732 O743 2.039 . S
Co732 N746 2.140 . S
C733 O734 1.227 . S
C733 O743 1.265 . S
O734 C733 1.227 . S
N735 Co732 2.121 . S
N735 C737 1.375 . S
N735 C738 1.313 . S
C736 C737 1.338 . S
C736 N739 1.377 . S
C736 H756 0.930 . S
C737 N735 1.375 . S
C737 C736 1.338 . S
C737 H741 0.931 . S
C738 N735 1.313 . S
C738 N739 1.344 . S
C738 H742 0.930 . S
N739 C736 1.377 . S
N739 C738 1.344 . S
O740 Co732 2.055 . S
O740 C744 1.253 . S
H741 C737 0.931 . S
H742 C738 0.930 . S
O743 Co732 2.039 . S
O743 C733 1.265 . S
C744 O740 1.253 . S
C744 O745 1.218 1_655 S
O745 C744 1.218 1_455 S
N746 Co732 2.140 . S
N746 C749 1.346 . S
N746 C750 1.345 . S
C747 C748 1.387 . S
C747 C751 1.391 . S
C748 C747 1.387 . S
C748 C749 1.369 . S
C748 H757 0.929 . S
C749 N746 1.346 . S
C749 C748 1.369 . S
C749 H752 0.928 . S
C750 N746 1.345 . S
C750 C751 1.371 . S
C750 H753 0.931 . S
C751 C747 1.391 . S
C751 C750 1.371 . S
C751 H758 0.930 . S
H752 C749 0.928 . S
H753 C750 0.931 . S
H754 C730 0.930 . S
H755 C727 0.930 . S
H756 C736 0.930 . S
H757 C748 0.929 . S
H758 C751 0.930 . S
C759 C760 1.351 . S
C759 N762 1.368 . S
C759 H764 0.931 . S
C760 C759 1.351 . S
C760 N761 1.373 . S
C760 H788 0.930 . S
N761 C760 1.373 . S
N761 C763 1.340 . S
N762 C759 1.368 . S
N762 C763 1.321 . S
N762 Co765 2.135 . S
C763 N761 1.340 . S
C763 N762 1.321 . S
C763 H787 0.930 . S
H764 C759 0.931 . S
Co765 N762 2.135 . S
Co765 N768 2.121 . S
Co765 O773 2.055 . S
Co765 O776 2.039 . S
Co765 N779 2.140 . S
C766 O767 1.227 . S
C766 O776 1.265 . S
O767 C766 1.227 . S
N768 Co765 2.121 . S
N768 C770 1.375 . S
N768 C771 1.313 . S
C769 C770 1.338 . S
C769 N772 1.377 . S
C769 H789 0.930 . S
C770 N768 1.375 . S
C770 C769 1.338 . S
C770 H774 0.931 . S
C771 N768 1.313 . S
C771 N772 1.344 . S
C771 H775 0.930 . S
N772 C769 1.377 . S
N772 C771 1.344 . S
O773 Co765 2.055 . S
O773 C777 1.253 . S
H774 C770 0.931 . S
H775 C771 0.930 . S
O776 Co765 2.039 . S
O776 C766 1.265 . S
C777 O773 1.253 . S
C777 O778 1.227 . S
O778 C777 1.227 . S
N779 Co765 2.140 . S
N779 C782 1.346 . S
N779 C783 1.345 . S
C780 C781 1.387 . S
C780 C784 1.391 . S
C781 C780 1.387 . S
C781 C782 1.369 . S
C781 H790 0.929 . S
C782 N779 1.346 . S
C782 C781 1.369 . S
C782 H785 0.928 . S
C783 N779 1.345 . S
C783 C784 1.371 . S
C783 H786 0.931 . S
C784 C780 1.391 . S
C784 C783 1.371 . S
C784 H791 0.930 . S
H785 C782 0.928 . S
H786 C783 0.931 . S
H787 C763 0.930 . S
H788 C760 0.930 . S
H789 C769 0.930 . S
H790 C781 0.929 . S
H791 C784 0.930 . S
H792 C800 0.929 . S
H793 C802 0.930 . S
H794 C804 0.930 . S
H795 C807 0.929 . S
H796 C810 0.930 . S
H797 C812 0.960 . S
H798 C812 0.960 . S
H799 C812 0.960 . S
C800 H792 0.929 . S
C800 C801 1.377 . S
C800 C802 1.384 . S
C801 C800 1.377 . S
C801 C807 1.390 . S
C802 H793 0.930 . S
C802 C800 1.384 . S
C802 C803 1.372 . S
C803 C802 1.372 . S
C803 C804 1.400 . S
C803 C808 1.490 . S
C804 H794 0.930 . S
C804 C803 1.400 . S
C804 C807 1.386 . S
H805 C821 0.930 . S
H806 C822 0.931 . S
C807 H795 0.929 . S
C807 C801 1.390 . S
C807 C804 1.386 . S
C808 C803 1.490 . S
C808 C810 1.395 . S
C808 C811 1.403 . S
H809 C815 0.930 . S
C810 H796 0.930 . S
C810 C808 1.395 . S
C810 C813 1.403 . S
C811 C808 1.403 . S
C811 C812 1.524 . S
C811 C815 1.400 . S
C812 H797 0.960 . S
C812 H798 0.960 . S
C812 H799 0.960 . S
C812 C811 1.524 . S
C813 C810 1.403 . S
C813 C814 1.392 . S
C813 C817 1.495 . S
C814 C813 1.392 . S
C814 C815 1.385 . S
C814 C816 1.478 . S
C815 H809 0.930 . S
C815 C811 1.400 . S
C815 C814 1.385 . S
C816 C814 1.478 . S
C816 C818 1.381 . S
C816 C822 1.383 . S
C817 C813 1.495 . S
C817 H823 0.959 . S
C817 H824 0.961 . S
C817 H825 0.960 . S
C818 C816 1.381 . S
C818 C819 1.394 . S
C818 H826 0.930 . S
C819 C818 1.394 . S
C819 C820 1.383 . S
C819 H827 0.929 . S
C820 C819 1.383 . S
C820 C821 1.377 . S
C821 H805 0.930 . S
C821 C820 1.377 . S
C821 C822 1.379 . S
C822 H806 0.931 . S
C822 C816 1.383 . S
C822 C821 1.379 . S
H823 C817 0.959 . S
H824 C817 0.961 . S
H825 C817 0.960 . S
H826 C818 0.930 . S
H827 C819 0.929 . S
H828 C836 0.929 . S
H829 C838 0.930 . S
H830 C840 0.930 . S
H831 C843 0.929 . S
H832 C846 0.930 . S
H833 C848 0.960 . S
H834 C848 0.960 . S
H835 C848 0.960 . S
C836 H828 0.929 . S
C836 C837 1.377 . S
C836 C838 1.384 . S
C837 C836 1.377 . S
C837 C843 1.390 1_554 S
C838 H829 0.930 . S
C838 C836 1.384 . S
C838 C839 1.372 . S
C839 C838 1.372 . S
C839 C840 1.400 1_554 S
C839 C844 1.490 . S
C840 H830 0.930 . S
C840 C839 1.400 1_556 S
C840 C843 1.386 . S
H841 C857 0.930 . S
H842 C858 0.931 . S
C843 H831 0.929 . S
C843 C837 1.390 1_556 S
C843 C840 1.386 . S
C844 C839 1.490 . S
C844 C846 1.395 . S
C844 C847 1.403 1_554 S
H845 C851 0.930 . S
C846 H832 0.930 . S
C846 C844 1.395 . S
C846 C849 1.403 . S
C847 C844 1.403 1_556 S
C847 C848 1.524 . S
C847 C851 1.400 . S
C848 H833 0.960 . S
C848 H834 0.960 . S
C848 H835 0.960 . S
C848 C847 1.524 . S
C849 C846 1.403 . S
C849 C850 1.392 . S
C849 C853 1.495 . S
C850 C849 1.392 . S
C850 C851 1.385 1_554 S
C850 C852 1.478 . S
C851 H845 0.930 . S
C851 C847 1.400 . S
C851 C850 1.385 1_556 S
C852 C850 1.478 . S
C852 C854 1.381 . S
C852 C858 1.383 1_554 S
C853 C849 1.495 . S
C853 H859 0.959 . S
C853 H860 0.961 . S
C853 H861 0.960 . S
C854 C852 1.381 . S
C854 C855 1.394 . S
C854 H862 0.930 . S
C855 C854 1.394 . S
C855 C856 1.383 . S
C855 H863 0.929 . S
C856 C855 1.383 . S
C856 C857 1.377 1_554 S
C857 H841 0.930 . S
C857 C856 1.377 1_556 S
C857 C858 1.379 . S
C858 H842 0.931 . S
C858 C852 1.383 1_556 S
C858 C857 1.379 . S
H859 C853 0.959 . S
H860 C853 0.961 . S
H861 C853 0.960 . S
H862 C854 0.930 . S
H863 C855 0.929 . S
H864 C872 0.929 . S
H865 C874 0.930 . S
H866 C876 0.930 . S
H867 C879 0.929 . S
H868 C882 0.930 . S
H869 C884 0.960 . S
H870 C884 0.960 . S
H871 C884 0.960 . S
C872 H864 0.929 . S
C872 C873 1.377 . S
C872 C874 1.384 . S
C873 C872 1.377 . S
C873 C879 1.390 . S
C874 H865 0.930 . S
C874 C872 1.384 . S
C874 C875 1.372 . S
C875 C874 1.372 . S
C875 C876 1.400 . S
C875 C880 1.490 . S
C876 H866 0.930 . S
C876 C875 1.400 . S
C876 C879 1.386 . S
H877 C893 0.930 . S
H878 C894 0.931 . S
C879 H867 0.929 . S
C879 C873 1.390 . S
C879 C876 1.386 . S
C880 C875 1.490 . S
C880 C882 1.395 . S
C880 C883 1.403 . S
H881 C887 0.930 . S
C882 H868 0.930 . S
C882 C880 1.395 . S
C882 C885 1.403 . S
C883 C880 1.403 . S
C883 C884 1.524 . S
C883 C887 1.400 . S
C884 H869 0.960 . S
C884 H870 0.960 . S
C884 H871 0.960 . S
C884 C883 1.524 . S
C885 C882 1.403 . S
C885 C886 1.392 . S
C885 C889 1.495 . S
C886 C885 1.392 . S
C886 C887 1.385 . S
C886 C888 1.478 . S
C887 H881 0.930 . S
C887 C883 1.400 . S
C887 C886 1.385 . S
C888 C886 1.478 . S
C888 C890 1.381 . S
C888 C894 1.383 . S
C889 C885 1.495 . S
C889 H895 0.959 . S
C889 H896 0.961 . S
C889 H897 0.960 . S
C890 C888 1.381 . S
C890 C891 1.394 . S
C890 H898 0.930 . S
C891 C890 1.394 . S
C891 C892 1.383 . S
C891 H899 0.929 . S
C892 C891 1.383 . S
C892 C893 1.377 . S
C893 H877 0.930 . S
C893 C892 1.377 . S
C893 C894 1.379 . S
C894 H878 0.931 . S
C894 C888 1.383 . S
C894 C893 1.379 . S
H895 C889 0.959 . S
H896 C889 0.961 . S
H897 C889 0.960 . S
H898 C890 0.930 . S
H899 C891 0.929 . S
H900 C908 0.929 . S
H901 C910 0.930 . S
H902 C912 0.930 . S
H903 C915 0.929 . S
H904 C918 0.930 . S
H905 C920 0.960 . S
H906 C920 0.960 . S
H907 C920 0.960 . S
C908 H900 0.929 . S
C908 C909 1.377 . S
C908 C910 1.384 . S
C909 C908 1.377 . S
C909 C915 1.390 . S
C910 H901 0.930 . S
C910 C908 1.384 . S
C910 C911 1.372 . S
C911 C910 1.372 . S
C911 C912 1.400 . S
C911 C916 1.490 . S
C912 H902 0.930 . S
C912 C911 1.400 . S
C912 C915 1.386 . S
H913 C929 0.930 . S
H914 C930 0.931 . S
C915 H903 0.929 . S
C915 C909 1.390 . S
C915 C912 1.386 . S
C916 C911 1.490 . S
C916 C918 1.395 . S
C916 C919 1.403 . S
H917 C923 0.930 . S
C918 H904 0.930 . S
C918 C916 1.395 . S
C918 C921 1.403 . S
C919 C916 1.403 . S
C919 C920 1.524 . S
C919 C923 1.400 . S
C920 H905 0.960 . S
C920 H906 0.960 . S
C920 H907 0.960 . S
C920 C919 1.524 . S
C921 C918 1.403 . S
C921 C922 1.392 . S
C921 C925 1.495 . S
C922 C921 1.392 . S
C922 C923 1.385 . S
C922 C924 1.478 . S
C923 H917 0.930 . S
C923 C919 1.400 . S
C923 C922 1.385 . S
C924 C922 1.478 . S
C924 C926 1.381 . S
C924 C930 1.383 . S
C925 C921 1.495 . S
C925 H931 0.959 . S
C925 H932 0.961 . S
C925 H933 0.960 . S
C926 C924 1.381 . S
C926 C927 1.394 . S
C926 H934 0.930 . S
C927 C926 1.394 . S
C927 C928 1.383 . S
C927 H935 0.929 . S
C928 C927 1.383 . S
C928 C929 1.377 . S
C929 H913 0.930 . S
C929 C928 1.377 . S
C929 C930 1.379 . S
C930 H914 0.931 . S
C930 C924 1.383 . S
C930 C929 1.379 . S
H931 C925 0.959 . S
H932 C925 0.961 . S
H933 C925 0.960 . S
H934 C926 0.930 . S
H935 C927 0.929 . S
H936 C944 0.929 . S
H937 C946 0.930 . S
H938 C948 0.930 . S
H939 C951 0.929 . S
H940 C954 0.930 . S
H941 C956 0.960 . S
H942 C956 0.960 . S
H943 C956 0.960 . S
C944 H936 0.929 . S
C944 C945 1.377 . S
C944 C946 1.384 . S
C945 C944 1.377 . S
C945 C951 1.390 . S
C946 H937 0.930 . S
C946 C944 1.384 . S
C946 C947 1.372 . S
C947 C946 1.372 . S
C947 C948 1.400 . S
C947 C952 1.490 . S
C948 H938 0.930 . S
C948 C947 1.400 . S
C948 C951 1.386 . S
H949 C965 0.930 . S
H950 C966 0.931 . S
C951 H939 0.929 . S
C951 C945 1.390 . S
C951 C948 1.386 . S
C952 C947 1.490 . S
C952 C954 1.395 . S
C952 C955 1.403 . S
H953 C959 0.930 . S
C954 H940 0.930 . S
C954 C952 1.395 . S
C954 C957 1.403 . S
C955 C952 1.403 . S
C955 C956 1.524 . S
C955 C959 1.400 . S
C956 H941 0.960 . S
C956 H942 0.960 . S
C956 H943 0.960 . S
C956 C955 1.524 . S
C957 C954 1.403 . S
C957 C958 1.392 . S
C957 C961 1.495 . S
C958 C957 1.392 . S
C958 C959 1.385 . S
C958 C960 1.478 . S
C959 H953 0.930 . S
C959 C955 1.400 . S
C959 C958 1.385 . S
C960 C958 1.478 . S
C960 C962 1.381 . S
C960 C966 1.383 . S
C961 C957 1.495 . S
C961 H967 0.959 . S
C961 H968 0.961 . S
C961 H969 0.960 . S
C962 C960 1.381 . S
C962 C963 1.394 . S
C962 H970 0.930 . S
C963 C962 1.394 . S
C963 C964 1.383 . S
C963 H971 0.929 . S
C964 C963 1.383 . S
C964 C965 1.377 . S
C965 H949 0.930 . S
C965 C964 1.377 . S
C965 C966 1.379 . S
C966 H950 0.931 . S
C966 C960 1.383 . S
C966 C965 1.379 . S
H967 C961 0.959 . S
H968 C961 0.961 . S
H969 C961 0.960 . S
H970 C962 0.930 . S
H971 C963 0.929 . S
H972 C980 0.929 . S
H973 C982 0.930 . S
H974 C984 0.930 . S
H975 C987 0.929 . S
H976 C990 0.930 . S
H977 C992 0.960 . S
H978 C992 0.960 . S
H979 C992 0.960 . S
C980 H972 0.929 . S
C980 C981 1.377 . S
C980 C982 1.384 . S
C981 C980 1.377 . S
C981 C987 1.390 . S
C982 H973 0.930 . S
C982 C980 1.384 . S
C982 C983 1.372 . S
C983 C982 1.372 . S
C983 C984 1.400 . S
C983 C988 1.490 . S
C984 H974 0.930 . S
C984 C983 1.400 . S
C984 C987 1.386 . S
H985 C1001 0.930 . S
H986 C1002 0.931 . S
C987 H975 0.929 . S
C987 C981 1.390 . S
C987 C984 1.386 . S
C988 C983 1.490 . S
C988 C990 1.395 . S
C988 C991 1.403 . S
H989 C995 0.930 . S
C990 H976 0.930 . S
C990 C988 1.395 . S
C990 C993 1.403 . S
C991 C988 1.403 . S
C991 C992 1.524 . S
C991 C995 1.400 . S
C992 H977 0.960 . S
C992 H978 0.960 . S
C992 H979 0.960 . S
C992 C991 1.524 . S
C993 C990 1.403 . S
C993 C994 1.392 . S
C993 C997 1.495 . S
C994 C993 1.392 . S
C994 C995 1.385 . S
C994 C996 1.478 . S
C995 H989 0.930 . S
C995 C991 1.400 . S
C995 C994 1.385 . S
C996 C994 1.478 . S
C996 C998 1.381 . S
C996 C1002 1.383 . S
C997 C993 1.495 . S
C997 H1003 0.959 . S
C997 H1004 0.961 . S
C997 H1005 0.960 . S
C998 C996 1.381 . S
C998 C999 1.394 . S
C998 H1006 0.930 . S
C999 C998 1.394 . S
C999 C1000 1.383 . S
C999 H1007 0.929 . S
C1000 C999 1.383 . S
C1000 C1001 1.377 . S
C1001 H985 0.930 . S
C1001 C1000 1.377 . S
C1001 C1002 1.379 . S
C1002 H986 0.931 . S
C1002 C996 1.383 . S
C1002 C1001 1.379 . S
H1003 C997 0.959 . S
H1004 C997 0.961 . S
H1005 C997 0.960 . S
H1006 C998 0.930 . S
H1007 C999 0.929 . S
H1008 C1016 0.929 . S
H1009 C1018 0.930 . S
H1010 C1020 0.930 . S
H1011 C1023 0.929 . S
H1012 C1026 0.926 1_655 S
H1013 C1028 0.960 . S
H1014 C1028 0.960 . S
H1015 C1028 0.960 . S
C1016 H1008 0.929 . S
C1016 C1017 1.420 . S
C1016 C1018 1.384 . S
C1017 C1016 1.420 . S
C1017 C1023 1.353 1_455 S
C1018 H1009 0.930 . S
C1018 C1016 1.384 . S
C1018 C1019 1.372 . S
C1019 C1018 1.372 . S
C1019 C1020 1.400 1_455 S
C1019 C1024 1.490 . S
C1020 H1010 0.930 . S
C1020 C1019 1.400 1_655 S
C1020 C1023 1.386 . S
H1021 C1037 0.930 . S
H1022 C1038 0.931 . S
C1023 H1011 0.929 . S
C1023 C1017 1.353 1_655 S
C1023 C1020 1.386 . S
C1024 C1019 1.490 . S
C1024 C1026 1.399 . S
C1024 C1027 1.403 . S
H1025 C1031 0.930 . S
C1026 H1012 0.926 1_455 S
C1026 C1024 1.399 . S
C1026 C1029 1.403 . S
C1027 C1024 1.403 . S
C1027 C1028 1.524 . S
C1027 C1031 1.400 . S
C1028 H1013 0.960 . S
C1028 H1014 0.960 . S
C1028 H1015 0.960 . S
C1028 C1027 1.524 . S
C1029 C1026 1.403 . S
C1029 C1030 1.401 . S
C1029 C1033 1.488 1_455 S
C1030 C1029 1.401 . S
C1030 C1031 1.385 . S
C1030 C1032 1.478 . S
C1031 H1025 0.930 . S
C1031 C1027 1.400 . S
C1031 C1030 1.385 . S
C1032 C1030 1.478 . S
C1032 C1034 1.381 . S
C1032 C1038 1.383 1_455 S
C1033 C1029 1.488 1_655 S
C1033 H1039 0.959 . S
C1033 H1040 0.961 . S
C1033 H1041 0.960 1_655 S
C1034 C1032 1.381 . S
C1034 C1035 1.394 . S
C1034 H1042 0.930 . S
C1035 C1034 1.394 . S
C1035 C1036 1.383 . S
C1035 H1043 0.929 . S
C1036 C1035 1.383 . S
C1036 C1037 1.377 1_455 S
C1037 H1021 0.930 . S
C1037 C1036 1.377 1_655 S
C1037 C1038 1.379 . S
C1038 H1022 0.931 . S
C1038 C1032 1.383 1_655 S
C1038 C1037 1.379 . S
H1039 C1033 0.959 . S
H1040 C1033 0.961 . S
H1041 C1033 0.960 1_455 S
H1042 C1034 0.930 . S
H1043 C1035 0.929 . S
H1044 C1052 0.929 . S
H1045 C1054 0.930 . S
H1046 C1056 0.930 . S
H1047 C1059 0.929 . S
H1048 C1062 0.930 . S
H1049 C1064 0.960 . S
H1050 C1064 0.960 . S
H1051 C1064 0.960 . S
C1052 H1044 0.929 . S
C1052 C1053 1.377 . S
C1052 C1054 1.384 . S
C1053 C1052 1.377 . S
C1053 C1059 1.390 . S
C1054 H1045 0.930 . S
C1054 C1052 1.384 . S
C1054 C1055 1.372 . S
C1055 C1054 1.372 . S
C1055 C1056 1.400 . S
C1055 C1060 1.490 . S
C1056 H1046 0.930 . S
C1056 C1055 1.400 . S
C1056 C1059 1.386 . S
H1057 C1073 0.930 . S
H1058 C1074 0.931 . S
C1059 H1047 0.929 . S
C1059 C1053 1.390 . S
C1059 C1056 1.386 . S
C1060 C1055 1.490 . S
C1060 C1062 1.395 . S
C1060 C1063 1.403 . S
H1061 C1067 0.930 . S
C1062 H1048 0.930 . S
C1062 C1060 1.395 . S
C1062 C1065 1.403 . S
C1063 C1060 1.403 . S
C1063 C1064 1.524 . S
C1063 C1067 1.400 . S
C1064 H1049 0.960 . S
C1064 H1050 0.960 . S
C1064 H1051 0.960 . S
C1064 C1063 1.524 . S
C1065 C1062 1.403 . S
C1065 C1066 1.392 . S
C1065 C1069 1.495 . S
C1066 C1065 1.392 . S
C1066 C1067 1.385 . S
C1066 C1068 1.478 . S
C1067 H1061 0.930 . S
C1067 C1063 1.400 . S
C1067 C1066 1.385 . S
C1068 C1066 1.478 . S
C1068 C1070 1.381 . S
C1068 C1074 1.383 . S
C1069 C1065 1.495 . S
C1069 H1075 0.959 . S
C1069 H1076 0.961 . S
C1069 H1077 0.960 . S
C1070 C1068 1.381 . S
C1070 C1071 1.394 . S
C1070 H1078 0.930 . S
C1071 C1070 1.394 . S
C1071 C1072 1.383 . S
C1071 H1079 0.929 . S
C1072 C1071 1.383 . S
C1072 C1073 1.377 . S
C1073 H1057 0.930 . S
C1073 C1072 1.377 . S
C1073 C1074 1.379 . S
C1074 H1058 0.931 . S
C1074 C1068 1.383 . S
C1074 C1073 1.379 . S
H1075 C1069 0.959 . S
H1076 C1069 0.961 . S
H1077 C1069 0.960 . S
H1078 C1070 0.930 . S
H1079 C1071 0.929 . S
H1080 C1088 0.929 . S
H1081 C1090 0.930 . S
H1082 C1092 0.930 . S
H1083 C1095 0.929 . S
H1084 C1098 0.930 . S
H1085 C1100 0.960 . S
H1086 C1100 0.960 . S
H1087 C1100 0.960 . S
C1088 H1080 0.929 . S
C1088 C1089 1.377 . S
C1088 C1090 1.384 . S
C1089 C1088 1.377 . S
C1089 C1095 1.390 . S
C1090 H1081 0.930 . S
C1090 C1088 1.384 . S
C1090 C1091 1.372 . S
C1091 C1090 1.372 . S
C1091 C1092 1.400 . S
C1091 C1096 1.490 . S
C1092 H1082 0.930 . S
C1092 C1091 1.400 . S
C1092 C1095 1.386 . S
H1093 C1109 0.930 . S
H1094 C1110 0.931 . S
C1095 H1083 0.929 . S
C1095 C1089 1.390 . S
C1095 C1092 1.386 . S
C1096 C1091 1.490 . S
C1096 C1098 1.395 . S
C1096 C1099 1.403 . S
H1097 C1103 0.930 . S
C1098 H1084 0.930 . S
C1098 C1096 1.395 . S
C1098 C1101 1.403 . S
C1099 C1096 1.403 . S
C1099 C1100 1.524 . S
C1099 C1103 1.400 . S
C1100 H1085 0.960 . S
C1100 H1086 0.960 . S
C1100 H1087 0.960 . S
C1100 C1099 1.524 . S
C1101 C1098 1.403 . S
C1101 C1102 1.392 . S
C1101 C1105 1.495 . S
C1102 C1101 1.392 . S
C1102 C1103 1.385 . S
C1102 C1104 1.478 . S
C1103 H1097 0.930 . S
C1103 C1099 1.400 . S
C1103 C1102 1.385 . S
C1104 C1102 1.478 . S
C1104 C1106 1.381 . S
C1104 C1110 1.383 . S
C1105 C1101 1.495 . S
C1105 H1111 0.959 . S
C1105 H1112 0.961 . S
C1105 H1113 0.960 . S
C1106 C1104 1.381 . S
C1106 C1107 1.394 . S
C1106 H1114 0.930 . S
C1107 C1106 1.394 . S
C1107 C1108 1.383 . S
C1107 H1115 0.929 . S
C1108 C1107 1.383 . S
C1108 C1109 1.377 . S
C1109 H1093 0.930 . S
C1109 C1108 1.377 . S
C1109 C1110 1.379 . S
C1110 H1094 0.931 . S
C1110 C1104 1.383 . S
C1110 C1109 1.379 . S
H1111 C1105 0.959 . S
H1112 C1105 0.961 . S
H1113 C1105 0.960 . S
H1114 C1106 0.930 . S
H1115 C1107 0.929 . S
H1116 C1124 0.929 . S
H1117 C1126 0.930 . S
H1118 C1128 0.930 . S
H1119 C1131 0.929 . S
H1120 C1134 0.930 . S
H1121 C1136 0.960 . S
H1122 C1136 0.960 . S
H1123 C1136 0.960 . S
C1124 H1116 0.929 . S
C1124 C1125 1.377 . S
C1124 C1126 1.384 . S
C1125 C1124 1.377 . S
C1125 C1131 1.390 . S
C1126 H1117 0.930 . S
C1126 C1124 1.384 . S
C1126 C1127 1.372 . S
C1127 C1126 1.372 . S
C1127 C1128 1.400 . S
C1127 C1132 1.490 . S
C1128 H1118 0.930 . S
C1128 C1127 1.400 . S
C1128 C1131 1.386 . S
H1129 C1145 0.930 . S
H1130 C1146 0.931 . S
C1131 H1119 0.929 . S
C1131 C1125 1.390 . S
C1131 C1128 1.386 . S
C1132 C1127 1.490 . S
C1132 C1134 1.395 . S
C1132 C1135 1.403 . S
H1133 C1139 0.930 . S
C1134 H1120 0.930 . S
C1134 C1132 1.395 . S
C1134 C1137 1.403 . S
C1135 C1132 1.403 . S
C1135 C1136 1.524 . S
C1135 C1139 1.400 . S
C1136 H1121 0.960 . S
C1136 H1122 0.960 . S
C1136 H1123 0.960 . S
C1136 C1135 1.524 . S
C1137 C1134 1.403 . S
C1137 C1138 1.392 . S
C1137 C1141 1.495 . S
C1138 C1137 1.392 . S
C1138 C1139 1.385 . S
C1138 C1140 1.478 . S
C1139 H1133 0.930 . S
C1139 C1135 1.400 . S
C1139 C1138 1.385 . S
C1140 C1138 1.478 . S
C1140 C1142 1.381 . S
C1140 C1146 1.383 . S
C1141 C1137 1.495 . S
C1141 H1147 0.959 . S
C1141 H1148 0.961 . S
C1141 H1149 0.960 . S
C1142 C1140 1.381 . S
C1142 C1143 1.394 . S
C1142 H1150 0.930 . S
C1143 C1142 1.394 . S
C1143 C1144 1.383 . S
C1143 H1151 0.929 . S
C1144 C1143 1.383 . S
C1144 C1145 1.377 . S
C1145 H1129 0.930 . S
C1145 C1144 1.377 . S
C1145 C1146 1.379 . S
C1146 H1130 0.931 . S
C1146 C1140 1.383 . S
C1146 C1145 1.379 . S
H1147 C1141 0.959 . S
H1148 C1141 0.961 . S
H1149 C1141 0.960 . S
H1150 C1142 0.930 . S
H1151 C1143 0.929 . S
H1152 C1160 0.939 . S
H1153 C1162 0.926 1_565 S
H1154 C1164 0.930 . S
H1155 C1167 0.929 . S
H1156 C1170 0.930 . S
H1157 C1172 0.960 . S
H1158 C1172 0.960 . S
H1159 C1172 0.960 . S
C1160 H1152 0.939 . S
C1160 C1161 1.377 . S
C1160 C1162 1.384 . S
C1161 C1160 1.377 . S
C1161 C1167 1.390 . S
C1162 H1153 0.926 1_545 S
C1162 C1160 1.384 . S
C1162 C1163 1.372 . S
C1163 C1162 1.372 . S
C1163 C1164 1.400 . S
C1163 C1168 1.490 . S
C1164 H1154 0.930 . S
C1164 C1163 1.400 . S
C1164 C1167 1.386 . S
H1165 C1181 0.930 . S
H1166 C1182 0.931 . S
C1167 H1155 0.929 . S
C1167 C1161 1.390 . S
C1167 C1164 1.386 . S
C1168 C1163 1.490 . S
C1168 C1170 1.395 . S
C1168 C1171 1.403 1_545 S
H1169 C1175 0.930 . S
C1170 H1156 0.930 . S
C1170 C1168 1.395 . S
C1170 C1173 1.403 . S
C1171 C1168 1.403 1_565 S
C1171 C1172 1.524 . S
C1171 C1175 1.400 . S
C1172 H1157 0.960 . S
C1172 H1158 0.960 . S
C1172 H1159 0.960 . S
C1172 C1171 1.524 . S
C1173 C1170 1.403 . S
C1173 C1174 1.392 . S
C1173 C1177 1.495 . S
C1174 C1173 1.392 . S
C1174 C1175 1.385 1_545 S
C1174 C1176 1.478 . S
C1175 H1169 0.930 . S
C1175 C1171 1.400 . S
C1175 C1174 1.385 1_565 S
C1176 C1174 1.478 . S
C1176 C1178 1.381 1_545 S
C1176 C1182 1.383 . S
C1177 C1173 1.495 . S
C1177 H1183 0.959 . S
C1177 H1184 0.961 . S
C1177 H1185 0.960 . S
C1178 C1176 1.381 1_565 S
C1178 C1179 1.394 . S
C1178 H1186 0.930 . S
C1179 C1178 1.394 . S
C1179 C1180 1.383 1_565 S
C1179 H1187 0.929 . S
C1180 C1179 1.383 1_545 S
C1180 C1181 1.377 . S
C1181 H1165 0.930 . S
C1181 C1180 1.377 . S
C1181 C1182 1.379 . S
C1182 H1166 0.931 . S
C1182 C1176 1.383 . S
C1182 C1181 1.379 . S
H1183 C1177 0.959 . S
H1184 C1177 0.961 . S
H1185 C1177 0.960 . S
H1186 C1178 0.930 . S
H1187 C1179 0.929 . S
H1188 C1196 0.929 . S
H1189 C1198 0.930 . S
H1190 C1200 0.930 . S
H1191 C1203 0.929 . S
H1192 C1206 0.930 . S
H1193 C1208 0.960 . S
H1194 C1208 0.960 . S
H1195 C1208 0.960 . S
C1196 H1188 0.929 . S
C1196 C1197 1.377 . S
C1196 C1198 1.384 . S
C1197 C1196 1.377 . S
C1197 C1203 1.390 . S
C1198 H1189 0.930 . S
C1198 C1196 1.384 . S
C1198 C1199 1.372 . S
C1199 C1198 1.372 . S
C1199 C1200 1.400 . S
C1199 C1204 1.490 . S
C1200 H1190 0.930 . S
C1200 C1199 1.400 . S
C1200 C1203 1.386 . S
H1201 C1217 0.930 . S
H1202 C1218 0.931 . S
C1203 H1191 0.929 . S
C1203 C1197 1.390 . S
C1203 C1200 1.386 . S
C1204 C1199 1.490 . S
C1204 C1206 1.395 . S
C1204 C1207 1.403 . S
H1205 C1211 0.930 . S
C1206 H1192 0.930 . S
C1206 C1204 1.395 . S
C1206 C1209 1.403 . S
C1207 C1204 1.403 . S
C1207 C1208 1.524 . S
C1207 C1211 1.400 . S
C1208 H1193 0.960 . S
C1208 H1194 0.960 . S
C1208 H1195 0.960 . S
C1208 C1207 1.524 . S
C1209 C1206 1.403 . S
C1209 C1210 1.392 . S
C1209 C1213 1.495 . S
C1210 C1209 1.392 . S
C1210 C1211 1.385 . S
C1210 C1212 1.478 . S
C1211 H1205 0.930 . S
C1211 C1207 1.400 . S
C1211 C1210 1.385 . S
C1212 C1210 1.478 . S
C1212 C1214 1.381 . S
C1212 C1218 1.383 . S
C1213 C1209 1.495 . S
C1213 H1219 0.959 . S
C1213 H1220 0.961 . S
C1213 H1221 0.960 . S
C1214 C1212 1.381 . S
C1214 C1215 1.394 . S
C1214 H1222 0.930 . S
C1215 C1214 1.394 . S
C1215 C1216 1.383 . S
C1215 H1223 0.929 . S
C1216 C1215 1.383 . S
C1216 C1217 1.377 . S
C1217 H1201 0.930 . S
C1217 C1216 1.377 . S
C1217 C1218 1.379 . S
C1218 H1202 0.931 . S
C1218 C1212 1.383 . S
C1218 C1217 1.379 . S
H1219 C1213 0.959 . S
H1220 C1213 0.961 . S
H1221 C1213 0.960 . S
H1222 C1214 0.930 . S
H1223 C1215 0.929 . S
H1224 C1232 0.929 . S
H1225 C1234 0.930 . S
H1226 C1236 0.930 . S
H1227 C1239 0.929 . S
H1228 C1242 0.930 . S
H1229 C1244 0.960 . S
H1230 C1244 0.960 . S
H1231 C1244 0.960 . S
C1232 H1224 0.929 . S
C1232 C1233 1.377 . S
C1232 C1234 1.384 . S
C1233 C1232 1.377 . S
C1233 C1239 1.390 . S
C1234 H1225 0.930 . S
C1234 C1232 1.384 . S
C1234 C1235 1.372 . S
C1235 C1234 1.372 . S
C1235 C1236 1.400 . S
C1235 C1240 1.490 . S
C1236 H1226 0.930 . S
C1236 C1235 1.400 . S
C1236 C1239 1.386 . S
H1237 C1253 0.930 . S
H1238 C1254 0.931 . S
C1239 H1227 0.929 . S
C1239 C1233 1.390 . S
C1239 C1236 1.386 . S
C1240 C1235 1.490 . S
C1240 C1242 1.395 . S
C1240 C1243 1.403 . S
H1241 C1247 0.930 . S
C1242 H1228 0.930 . S
C1242 C1240 1.395 . S
C1242 C1245 1.403 . S
C1243 C1240 1.403 . S
C1243 C1244 1.524 . S
C1243 C1247 1.400 . S
C1244 H1229 0.960 . S
C1244 H1230 0.960 . S
C1244 H1231 0.960 . S
C1244 C1243 1.524 . S
C1245 C1242 1.403 . S
C1245 C1246 1.392 . S
C1245 C1249 1.495 . S
C1246 C1245 1.392 . S
C1246 C1247 1.385 . S
C1246 C1248 1.478 . S
C1247 H1241 0.930 . S
C1247 C1243 1.400 . S
C1247 C1246 1.385 . S
C1248 C1246 1.478 . S
C1248 C1250 1.381 . S
C1248 C1254 1.383 . S
C1249 C1245 1.495 . S
C1249 H1255 0.959 . S
C1249 H1256 0.961 . S
C1249 H1257 0.960 . S
C1250 C1248 1.381 . S
C1250 C1251 1.394 . S
C1250 H1258 0.930 . S
C1251 C1250 1.394 . S
C1251 C1252 1.383 . S
C1251 H1259 0.929 . S
C1252 C1251 1.383 . S
C1252 C1253 1.377 . S
C1253 H1237 0.930 . S
C1253 C1252 1.377 . S
C1253 C1254 1.379 . S
C1254 H1238 0.931 . S
C1254 C1248 1.383 . S
C1254 C1253 1.379 . S
H1255 C1249 0.959 . S
H1256 C1249 0.961 . S
H1257 C1249 0.960 . S
H1258 C1250 0.930 . S
H1259 C1251 0.929 . S
H1260 C1268 0.929 . S
H1261 C1270 0.930 . S
H1262 C1272 0.930 . S
H1263 C1275 0.929 . S
H1264 C1278 0.930 . S
H1265 C1280 0.960 . S
H1266 C1280 0.960 . S
H1267 C1280 0.960 . S
C1268 H1260 0.929 . S
C1268 C1269 1.377 . S
C1268 C1270 1.384 . S
C1269 C1268 1.377 . S
C1269 C1275 1.390 . S
C1270 H1261 0.930 . S
C1270 C1268 1.384 . S
C1270 C1271 1.372 . S
C1271 C1270 1.372 . S
C1271 C1272 1.400 . S
C1271 C1276 1.490 . S
C1272 H1262 0.930 . S
C1272 C1271 1.400 . S
C1272 C1275 1.386 . S
H1273 C1289 0.930 . S
H1274 C1290 0.931 . S
C1275 H1263 0.929 . S
C1275 C1269 1.390 . S
C1275 C1272 1.386 . S
C1276 C1271 1.490 . S
C1276 C1278 1.395 . S
C1276 C1279 1.403 . S
H1277 C1283 0.930 . S
C1278 H1264 0.930 . S
C1278 C1276 1.395 . S
C1278 C1281 1.403 . S
C1279 C1276 1.403 . S
C1279 C1280 1.524 . S
C1279 C1283 1.400 . S
C1280 H1265 0.960 . S
C1280 H1266 0.960 . S
C1280 H1267 0.960 . S
C1280 C1279 1.524 . S
C1281 C1278 1.403 . S
C1281 C1282 1.392 . S
C1281 C1285 1.495 . S
C1282 C1281 1.392 . S
C1282 C1283 1.385 . S
C1282 C1284 1.478 . S
C1283 H1277 0.930 . S
C1283 C1279 1.400 . S
C1283 C1282 1.385 . S
C1284 C1282 1.478 . S
C1284 C1286 1.381 . S
C1284 C1290 1.383 . S
C1285 C1281 1.495 . S
C1285 H1291 0.959 . S
C1285 H1292 0.961 . S
C1285 H1293 0.960 . S
C1286 C1284 1.381 . S
C1286 C1287 1.394 . S
C1286 H1294 0.930 . S
C1287 C1286 1.394 . S
C1287 C1288 1.383 . S
C1287 H1295 0.929 . S
C1288 C1287 1.383 . S
C1288 C1289 1.377 . S
C1289 H1273 0.930 . S
C1289 C1288 1.377 . S
C1289 C1290 1.379 . S
C1290 H1274 0.931 . S
C1290 C1284 1.383 . S
C1290 C1289 1.379 . S
H1291 C1285 0.959 . S
H1292 C1285 0.961 . S
H1293 C1285 0.960 . S
H1294 C1286 0.930 . S
H1295 C1287 0.929 . S
H1296 C1304 0.929 . S
H1297 C1306 0.930 . S
H1298 C1308 0.930 . S
H1299 C1311 0.929 . S
H1300 C1314 0.930 . S
H1301 C1316 0.960 . S
H1302 C1316 0.960 . S
H1303 C1316 0.960 . S
C1304 H1296 0.929 . S
C1304 C1305 1.377 . S
C1304 C1306 1.384 . S
C1305 C1304 1.377 . S
C1305 C1311 1.390 . S
C1306 H1297 0.930 . S
C1306 C1304 1.384 . S
C1306 C1307 1.372 . S
C1307 C1306 1.372 . S
C1307 C1308 1.400 . S
C1307 C1312 1.490 . S
C1308 H1298 0.930 . S
C1308 C1307 1.400 . S
C1308 C1311 1.386 . S
H1309 C1325 0.930 . S
H1310 C1326 0.931 . S
C1311 H1299 0.929 . S
C1311 C1305 1.390 . S
C1311 C1308 1.386 . S
C1312 C1307 1.490 . S
C1312 C1314 1.395 . S
C1312 C1315 1.403 . S
H1313 C1319 0.930 . S
C1314 H1300 0.930 . S
C1314 C1312 1.395 . S
C1314 C1317 1.403 . S
C1315 C1312 1.403 . S
C1315 C1316 1.524 . S
C1315 C1319 1.400 . S
C1316 H1301 0.960 . S
C1316 H1302 0.960 . S
C1316 H1303 0.960 . S
C1316 C1315 1.524 . S
C1317 C1314 1.403 . S
C1317 C1318 1.392 . S
C1317 C1321 1.495 . S
C1318 C1317 1.392 . S
C1318 C1319 1.385 . S
C1318 C1320 1.478 . S
C1319 H1313 0.930 . S
C1319 C1315 1.400 . S
C1319 C1318 1.385 . S
C1320 C1318 1.478 . S
C1320 C1322 1.381 . S
C1320 C1326 1.383 . S
C1321 C1317 1.495 . S
C1321 H1327 0.959 . S
C1321 H1328 0.961 . S
C1321 H1329 0.960 . S
C1322 C1320 1.381 . S
C1322 C1323 1.394 1_565 S
C1322 H1330 0.930 . S
C1323 C1322 1.394 1_545 S
C1323 C1324 1.383 . S
C1323 H1331 0.929 . S
C1324 C1323 1.383 . S
C1324 C1325 1.377 1_545 S
C1325 H1309 0.930 . S
C1325 C1324 1.377 1_565 S
C1325 C1326 1.379 . S
C1326 H1310 0.931 . S
C1326 C1320 1.383 . S
C1326 C1325 1.379 . S
H1327 C1321 0.959 . S
H1328 C1321 0.961 . S
H1329 C1321 0.960 . S
H1330 C1322 0.930 . S
H1331 C1323 0.929 . S
H1332 C1340 0.929 . S
H1333 C1342 0.930 . S
H1334 C1344 0.930 . S
H1335 C1347 0.929 . S
H1336 C1350 0.930 . S
H1337 C1352 0.960 . S
H1338 C1352 0.960 . S
H1339 C1352 0.960 . S
C1340 H1332 0.929 . S
C1340 C1341 1.377 . S
C1340 C1342 1.384 . S
C1341 C1340 1.377 . S
C1341 C1347 1.390 . S
C1342 H1333 0.930 . S
C1342 C1340 1.384 . S
C1342 C1343 1.372 . S
C1343 C1342 1.372 . S
C1343 C1344 1.400 . S
C1343 C1348 1.490 . S
C1344 H1334 0.930 . S
C1344 C1343 1.400 . S
C1344 C1347 1.386 . S
H1345 C1361 0.930 . S
H1346 C1362 0.931 . S
C1347 H1335 0.929 . S
C1347 C1341 1.390 . S
C1347 C1344 1.386 . S
C1348 C1343 1.490 . S
C1348 C1350 1.395 . S
C1348 C1351 1.403 . S
H1349 C1355 0.930 . S
C1350 H1336 0.930 . S
C1350 C1348 1.395 . S
C1350 C1353 1.403 . S
C1351 C1348 1.403 . S
C1351 C1352 1.524 . S
C1351 C1355 1.400 . S
C1352 H1337 0.960 . S
C1352 H1338 0.960 . S
C1352 H1339 0.960 . S
C1352 C1351 1.524 . S
C1353 C1350 1.403 . S
C1353 C1354 1.392 . S
C1353 C1357 1.495 . S
C1354 C1353 1.392 . S
C1354 C1355 1.385 . S
C1354 C1356 1.478 . S
C1355 H1349 0.930 . S
C1355 C1351 1.400 . S
C1355 C1354 1.385 . S
C1356 C1354 1.478 . S
C1356 C1358 1.381 . S
C1356 C1362 1.383 . S
C1357 C1353 1.495 . S
C1357 H1363 0.959 . S
C1357 H1364 0.961 . S
C1357 H1365 0.960 . S
C1358 C1356 1.381 . S
C1358 C1359 1.394 . S
C1358 H1366 0.930 . S
C1359 C1358 1.394 . S
C1359 C1360 1.383 . S
C1359 H1367 0.929 . S
C1360 C1359 1.383 . S
C1360 C1361 1.377 . S
C1361 H1345 0.930 . S
C1361 C1360 1.377 . S
C1361 C1362 1.379 . S
C1362 H1346 0.931 . S
C1362 C1356 1.383 . S
C1362 C1361 1.379 . S
H1363 C1357 0.959 . S
H1364 C1357 0.961 . S
H1365 C1357 0.960 . S
H1366 C1358 0.930 . S
H1367 C1359 0.929 . S
H1368 C1376 0.929 . S
H1369 C1378 0.930 . S
H1370 C1380 0.930 . S
H1371 C1383 0.929 . S
H1372 C1386 0.930 . S
H1373 C1388 0.960 . S
H1374 C1388 0.960 . S
H1375 C1388 0.960 . S
C1376 H1368 0.929 . S
C1376 C1377 1.377 . S
C1376 C1378 1.384 . S
C1377 C1376 1.377 . S
C1377 C1383 1.390 . S
C1378 H1369 0.930 . S
C1378 C1376 1.384 . S
C1378 C1379 1.372 . S
C1379 C1378 1.372 . S
C1379 C1380 1.400 . S
C1379 C1384 1.490 . S
C1380 H1370 0.930 . S
C1380 C1379 1.400 . S
C1380 C1383 1.386 . S
H1381 C1397 0.930 . S
H1382 C1398 0.931 . S
C1383 H1371 0.929 . S
C1383 C1377 1.390 . S
C1383 C1380 1.386 . S
C1384 C1379 1.490 . S
C1384 C1386 1.395 . S
C1384 C1387 1.403 . S
H1385 C1391 0.930 . S
C1386 H1372 0.930 . S
C1386 C1384 1.395 . S
C1386 C1389 1.403 . S
C1387 C1384 1.403 . S
C1387 C1388 1.524 . S
C1387 C1391 1.400 . S
C1388 H1373 0.960 . S
C1388 H1374 0.960 . S
C1388 H1375 0.960 . S
C1388 C1387 1.524 . S
C1389 C1386 1.403 . S
C1389 C1390 1.392 . S
C1389 C1393 1.495 . S
C1390 C1389 1.392 . S
C1390 C1391 1.385 . S
C1390 C1392 1.478 . S
C1391 H1385 0.930 . S
C1391 C1387 1.400 . S
C1391 C1390 1.385 . S
C1392 C1390 1.478 . S
C1392 C1394 1.381 . S
C1392 C1398 1.383 . S
C1393 C1389 1.495 . S
C1393 H1399 0.959 . S
C1393 H1400 0.961 . S
C1393 H1401 0.960 . S
C1394 C1392 1.381 . S
C1394 C1395 1.394 . S
C1394 H1402 0.930 . S
C1395 C1394 1.394 . S
C1395 C1396 1.383 . S
C1395 H1403 0.929 . S
C1396 C1395 1.383 . S
C1396 C1397 1.377 . S
C1397 H1381 0.930 . S
C1397 C1396 1.377 . S
C1397 C1398 1.379 . S
C1398 H1382 0.931 . S
C1398 C1392 1.383 . S
C1398 C1397 1.379 . S
H1399 C1393 0.959 . S
H1400 C1393 0.961 . S
H1401 C1393 0.960 . S
H1402 C1394 0.930 . S
H1403 C1395 0.929 . S
H1404 C1412 0.929 . S
H1405 C1414 0.930 . S
H1406 C1416 0.930 . S
H1407 C1419 0.929 . S
H1408 C1422 0.930 . S
H1409 C1424 0.960 . S
H1410 C1424 0.960 . S
H1411 C1424 0.960 . S
C1412 H1404 0.929 . S
C1412 C1413 1.377 . S
C1412 C1414 1.384 . S
C1413 C1412 1.377 . S
C1413 C1419 1.390 . S
C1414 H1405 0.930 . S
C1414 C1412 1.384 . S
C1414 C1415 1.372 . S
C1415 C1414 1.372 . S
C1415 C1416 1.400 . S
C1415 C1420 1.490 . S
C1416 H1406 0.930 . S
C1416 C1415 1.400 . S
C1416 C1419 1.386 . S
H1417 C1433 0.930 . S
H1418 C1434 0.931 . S
C1419 H1407 0.929 . S
C1419 C1413 1.390 . S
C1419 C1416 1.386 . S
C1420 C1415 1.490 . S
C1420 C1422 1.395 . S
C1420 C1423 1.403 . S
H1421 C1427 0.930 . S
C1422 H1408 0.930 . S
C1422 C1420 1.395 . S
C1422 C1425 1.403 . S
C1423 C1420 1.403 . S
C1423 C1424 1.524 . S
C1423 C1427 1.400 . S
C1424 H1409 0.960 . S
C1424 H1410 0.960 . S
C1424 H1411 0.960 . S
C1424 C1423 1.524 . S
C1425 C1422 1.403 . S
C1425 C1426 1.392 . S
C1425 C1429 1.495 . S
C1426 C1425 1.392 . S
C1426 C1427 1.385 . S
C1426 C1428 1.478 . S
C1427 H1421 0.930 . S
C1427 C1423 1.400 . S
C1427 C1426 1.385 . S
C1428 C1426 1.478 . S
C1428 C1430 1.381 . S
C1428 C1434 1.383 . S
C1429 C1425 1.495 . S
C1429 H1435 0.959 . S
C1429 H1436 0.961 . S
C1429 H1437 0.960 . S
C1430 C1428 1.381 . S
C1430 C1431 1.394 . S
C1430 H1438 0.930 . S
C1431 C1430 1.394 . S
C1431 C1432 1.383 . S
C1431 H1439 0.929 . S
C1432 C1431 1.383 . S
C1432 C1433 1.377 . S
C1433 H1417 0.930 . S
C1433 C1432 1.377 . S
C1433 C1434 1.379 . S
C1434 H1418 0.931 . S
C1434 C1428 1.383 . S
C1434 C1433 1.379 . S
H1435 C1429 0.959 . S
H1436 C1429 0.961 . S
H1437 C1429 0.960 . S
H1438 C1430 0.930 . S
H1439 C1431 0.929 . S
H1440 C1448 0.929 . S
H1441 C1450 0.930 . S
H1442 C1452 0.930 . S
H1443 C1455 0.929 1_554 S
H1444 C1458 0.930 . S
H1445 C1460 0.960 1_655 S
H1446 C1460 0.960 1_655 S
H1447 C1460 0.960 . S
C1448 H1440 0.929 . S
C1448 C1449 1.377 . S
C1448 C1450 1.384 . S
C1449 C1448 1.377 . S
C1449 C1455 1.390 . S
C1450 H1441 0.930 . S
C1450 C1448 1.384 . S
C1450 C1451 1.372 . S
C1451 C1450 1.372 . S
C1451 C1452 1.400 . S
C1451 C1456 1.490 . S
C1452 H1442 0.930 . S
C1452 C1451 1.400 . S
C1452 C1455 1.386 . S
H1453 C1469 0.930 . S
H1454 C1470 0.931 . S
C1455 H1443 0.929 1_556 S
C1455 C1449 1.390 . S
C1455 C1452 1.386 . S
C1456 C1451 1.490 . S
C1456 C1458 1.395 . S
C1456 C1459 1.403 . S
H1457 C1463 0.959 . S
C1458 H1444 0.930 . S
C1458 C1456 1.395 . S
C1458 C1461 1.403 . S
C1459 C1456 1.403 . S
C1459 C1460 1.524 . S
C1459 C1463 1.400 . S
C1460 H1445 0.960 1_455 S
C1460 H1446 0.960 1_455 S
C1460 H1447 0.960 . S
C1460 C1459 1.524 . S
C1461 C1458 1.403 . S
C1461 C1462 1.392 . S
C1461 C1465 1.495 . S
C1462 C1461 1.392 . S
C1462 C1463 1.385 . S
C1462 C1464 1.478 . S
C1463 H1457 0.959 . S
C1463 C1459 1.400 . S
C1463 C1462 1.385 . S
C1464 C1462 1.478 . S
C1464 C1466 1.381 1_455 S
C1464 C1470 1.383 . S
C1465 C1461 1.495 . S
C1465 H1471 0.959 . S
C1465 H1472 0.961 . S
C1465 H1473 0.960 . S
C1466 C1464 1.381 1_655 S
C1466 C1467 1.394 . S
C1466 H1474 0.930 . S
C1467 C1466 1.394 . S
C1467 C1468 1.383 . S
C1467 H1475 0.929 . S
C1468 C1467 1.383 . S
C1468 C1469 1.377 1_655 S
C1469 H1453 0.930 . S
C1469 C1468 1.377 1_455 S
C1469 C1470 1.379 . S
C1470 H1454 0.931 . S
C1470 C1464 1.383 . S
C1470 C1469 1.379 . S
H1471 C1465 0.959 . S
H1472 C1465 0.961 . S
H1473 C1465 0.960 . S
H1474 C1466 0.930 . S
H1475 C1467 0.929 . S
H1476 C1484 0.929 . S
H1477 C1486 0.930 . S
H1478 C1488 0.930 . S
H1479 C1491 0.929 . S
H1480 C1494 0.930 . S
H1481 C1496 0.960 . S
H1482 C1496 0.960 . S
H1483 C1496 0.960 . S
C1484 H1476 0.929 . S
C1484 C1485 1.377 . S
C1484 C1486 1.384 . S
C1485 C1484 1.377 . S
C1485 C1491 1.390 . S
C1486 H1477 0.930 . S
C1486 C1484 1.384 . S
C1486 C1487 1.372 . S
C1487 C1486 1.372 . S
C1487 C1488 1.400 . S
C1487 C1492 1.490 . S
C1488 H1478 0.930 . S
C1488 C1487 1.400 . S
C1488 C1491 1.386 . S
H1489 C1505 0.930 . S
H1490 C1506 0.931 . S
C1491 H1479 0.929 . S
C1491 C1485 1.390 . S
C1491 C1488 1.386 . S
C1492 C1487 1.490 . S
C1492 C1494 1.395 . S
C1492 C1495 1.403 . S
H1493 C1499 0.930 . S
C1494 H1480 0.930 . S
C1494 C1492 1.395 . S
C1494 C1497 1.403 . S
C1495 C1492 1.403 . S
C1495 C1496 1.524 . S
C1495 C1499 1.400 . S
C1496 H1481 0.960 . S
C1496 H1482 0.960 . S
C1496 H1483 0.960 . S
C1496 C1495 1.524 . S
C1497 C1494 1.403 . S
C1497 C1498 1.392 . S
C1497 C1501 1.495 . S
C1498 C1497 1.392 . S
C1498 C1499 1.385 . S
C1498 C1500 1.478 . S
C1499 H1493 0.930 . S
C1499 C1495 1.400 . S
C1499 C1498 1.385 . S
C1500 C1498 1.478 . S
C1500 C1502 1.381 . S
C1500 C1506 1.383 . S
C1501 C1497 1.495 . S
C1501 H1507 0.959 . S
C1501 H1508 0.961 . S
C1501 H1509 0.960 . S
C1502 C1500 1.381 . S
C1502 C1503 1.394 . S
C1502 H1510 0.930 . S
C1503 C1502 1.394 . S
C1503 C1504 1.383 . S
C1503 H1511 0.929 . S
C1504 C1503 1.383 . S
C1504 C1505 1.377 . S
C1505 H1489 0.930 . S
C1505 C1504 1.377 . S
C1505 C1506 1.379 . S
C1506 H1490 0.931 . S
C1506 C1500 1.383 . S
C1506 C1505 1.379 . S
H1507 C1501 0.959 . S
H1508 C1501 0.961 . S
H1509 C1501 0.960 . S
H1510 C1502 0.930 . S
H1511 C1503 0.929 . S
H1512 C1520 0.929 . S
H1513 C1522 0.930 . S
H1514 C1524 0.930 . S
H1515 C1527 0.929 . S
H1516 C1530 0.930 . S
H1517 C1532 0.960 . S
H1518 C1532 0.960 . S
H1519 C1532 0.960 . S
C1520 H1512 0.929 . S
C1520 C1521 1.377 . S
C1520 C1522 1.384 . S
C1521 C1520 1.377 . S
C1521 C1527 1.390 . S
C1522 H1513 0.930 . S
C1522 C1520 1.384 . S
C1522 C1523 1.372 . S
C1523 C1522 1.372 . S
C1523 C1524 1.400 . S
C1523 C1528 1.490 . S
C1524 H1514 0.930 . S
C1524 C1523 1.400 . S
C1524 C1527 1.386 . S
H1525 C1541 0.930 . S
H1526 C1542 0.931 . S
C1527 H1515 0.929 . S
C1527 C1521 1.390 . S
C1527 C1524 1.386 . S
C1528 C1523 1.490 . S
C1528 C1530 1.395 . S
C1528 C1531 1.403 . S
H1529 C1535 0.930 . S
C1530 H1516 0.930 . S
C1530 C1528 1.395 . S
C1530 C1533 1.403 . S
C1531 C1528 1.403 . S
C1531 C1532 1.524 . S
C1531 C1535 1.400 . S
C1532 H1517 0.960 . S
C1532 H1518 0.960 . S
C1532 H1519 0.960 . S
C1532 C1531 1.524 . S
C1533 C1530 1.403 . S
C1533 C1534 1.392 . S
C1533 C1537 1.495 . S
C1534 C1533 1.392 . S
C1534 C1535 1.385 . S
C1534 C1536 1.478 . S
C1535 H1529 0.930 . S
C1535 C1531 1.400 . S
C1535 C1534 1.385 . S
C1536 C1534 1.478 . S
C1536 C1538 1.381 . S
C1536 C1542 1.383 . S
C1537 C1533 1.495 . S
C1537 H1543 0.959 . S
C1537 H1544 0.961 . S
C1537 H1545 0.960 . S
C1538 C1536 1.381 . S
C1538 C1539 1.394 . S
C1538 H1546 0.930 . S
C1539 C1538 1.394 . S
C1539 C1540 1.383 . S
C1539 H1547 0.929 . S
C1540 C1539 1.383 . S
C1540 C1541 1.377 . S
C1541 H1525 0.930 . S
C1541 C1540 1.377 . S
C1541 C1542 1.379 . S
C1542 H1526 0.931 . S
C1542 C1536 1.383 . S
C1542 C1541 1.379 . S
H1543 C1537 0.959 . S
H1544 C1537 0.961 . S
H1545 C1537 0.960 . S
H1546 C1538 0.930 . S
H1547 C1539 0.929 . S
H1548 C1556 0.929 . S
H1549 C1558 0.930 . S
H1550 C1560 0.930 . S
H1551 C1563 0.929 . S
H1552 C1566 0.930 . S
H1553 C1568 0.960 . S
H1554 C1568 0.960 . S
H1555 C1568 0.960 . S
C1556 H1548 0.929 . S
C1556 C1557 1.377 . S
C1556 C1558 1.384 . S
C1557 C1556 1.377 . S
C1557 C1563 1.390 . S
C1558 H1549 0.930 . S
C1558 C1556 1.384 . S
C1558 C1559 1.372 . S
C1559 C1558 1.372 . S
C1559 C1560 1.400 . S
C1559 C1564 1.490 . S
C1560 H1550 0.930 . S
C1560 C1559 1.400 . S
C1560 C1563 1.386 . S
H1561 C1577 0.930 . S
H1562 C1578 0.931 . S
C1563 H1551 0.929 . S
C1563 C1557 1.390 . S
C1563 C1560 1.386 . S
C1564 C1559 1.490 . S
C1564 C1566 1.395 . S
C1564 C1567 1.403 . S
H1565 C1571 0.930 . S
C1566 H1552 0.930 . S
C1566 C1564 1.395 . S
C1566 C1569 1.403 . S
C1567 C1564 1.403 . S
C1567 C1568 1.524 . S
C1567 C1571 1.400 . S
C1568 H1553 0.960 . S
C1568 H1554 0.960 . S
C1568 H1555 0.960 . S
C1568 C1567 1.524 . S
C1569 C1566 1.403 . S
C1569 C1570 1.392 . S
C1569 C1573 1.495 . S
C1570 C1569 1.392 . S
C1570 C1571 1.385 . S
C1570 C1572 1.478 . S
C1571 H1565 0.930 . S
C1571 C1567 1.400 . S
C1571 C1570 1.385 . S
C1572 C1570 1.478 . S
C1572 C1574 1.381 . S
C1572 C1578 1.383 . S
C1573 C1569 1.495 . S
C1573 H1579 0.959 . S
C1573 H1580 0.961 . S
C1573 H1581 0.960 . S
C1574 C1572 1.381 . S
C1574 C1575 1.394 . S
C1574 H1582 0.930 . S
C1575 C1574 1.394 . S
C1575 C1576 1.383 . S
C1575 H1583 0.929 . S
C1576 C1575 1.383 . S
C1576 C1577 1.377 . S
C1577 H1561 0.930 . S
C1577 C1576 1.377 . S
C1577 C1578 1.379 . S
C1578 H1562 0.931 . S
C1578 C1572 1.383 . S
C1578 C1577 1.379 . S
H1579 C1573 0.959 . S
H1580 C1573 0.961 . S
H1581 C1573 0.960 . S
H1582 C1574 0.930 . S
H1583 C1575 0.929 . S
H1584 C1592 0.929 . S
H1585 C1594 0.930 . S
H1586 C1596 0.930 . S
H1587 C1599 0.929 . S
H1588 C1602 0.930 . S
H1589 C1604 0.960 . S
H1590 C1604 0.960 . S
H1591 C1604 0.960 . S
C1592 H1584 0.929 . S
C1592 C1593 1.377 1_545 S
C1592 C1594 1.384 . S
C1593 C1592 1.377 1_565 S
C1593 C1599 1.390 . S
C1594 H1585 0.930 . S
C1594 C1592 1.384 . S
C1594 C1595 1.372 . S
C1595 C1594 1.372 . S
C1595 C1596 1.400 1_545 S
C1595 C1600 1.490 . S
C1596 H1586 0.930 . S
C1596 C1595 1.400 1_565 S
C1596 C1599 1.386 . S
H1597 C1613 0.930 1_455 S
H1598 C1614 0.973 . S
C1599 H1587 0.929 . S
C1599 C1593 1.390 . S
C1599 C1596 1.386 . S
C1600 C1595 1.490 . S
C1600 C1602 1.395 . S
C1600 C1603 1.403 . S
H1601 C1607 0.930 . S
C1602 H1588 0.930 . S
C1602 C1600 1.395 . S
C1602 C1605 1.403 . S
C1603 C1600 1.403 . S
C1603 C1604 1.524 . S
C1603 C1607 1.400 . S
C1604 H1589 0.960 . S
C1604 H1590 0.960 . S
C1604 H1591 0.960 . S
C1604 C1603 1.524 . S
C1605 C1602 1.403 . S
C1605 C1606 1.392 . S
C1605 C1609 1.495 . S
C1606 C1605 1.392 . S
C1606 C1607 1.385 . S
C1606 C1608 1.478 . S
C1607 H1601 0.930 . S
C1607 C1603 1.400 . S
C1607 C1606 1.385 . S
C1608 C1606 1.478 . S
C1608 C1610 1.381 . S
C1608 C1614 1.383 . S
C1609 C1605 1.495 . S
C1609 H1615 0.959 . S
C1609 H1616 0.961 . S
C1609 H1617 0.960 . S
C1610 C1608 1.381 . S
C1610 C1611 1.394 . S
C1610 H1618 0.930 . S
C1611 C1610 1.394 . S
C1611 C1612 1.383 . S
C1611 H1619 0.929 . S
C1612 C1611 1.383 . S
C1612 C1613 1.377 . S
C1613 H1597 0.930 1_655 S
C1613 C1612 1.377 . S
C1613 C1614 1.379 . S
C1614 H1598 0.973 . S
C1614 C1608 1.383 . S
C1614 C1613 1.379 . S
H1615 C1609 0.959 . S
H1616 C1609 0.961 . S
H1617 C1609 0.960 . S
H1618 C1610 0.930 . S
H1619 C1611 0.929 . S
H1620 C1628 0.929 . S
H1621 C1630 0.930 . S
H1622 C1632 0.930 . S
H1623 C1635 0.929 . S
H1624 C1638 0.930 . S
H1625 C1640 0.960 . S
H1626 C1640 0.960 . S
H1627 C1640 0.960 . S
C1628 H1620 0.929 . S
C1628 C1629 1.377 . S
C1628 C1630 1.384 . S
C1629 C1628 1.377 . S
C1629 C1635 1.390 . S
C1630 H1621 0.930 . S
C1630 C1628 1.384 . S
C1630 C1631 1.372 . S
C1631 C1630 1.372 . S
C1631 C1632 1.400 . S
C1631 C1636 1.490 . S
C1632 H1622 0.930 . S
C1632 C1631 1.400 . S
C1632 C1635 1.386 . S
H1633 C1649 0.930 . S
H1634 C1650 0.931 . S
C1635 H1623 0.929 . S
C1635 C1629 1.390 . S
C1635 C1632 1.386 . S
C1636 C1631 1.490 . S
C1636 C1638 1.395 . S
C1636 C1639 1.403 . S
H1637 C1643 0.930 . S
C1638 H1624 0.930 . S
C1638 C1636 1.395 . S
C1638 C1641 1.403 . S
C1639 C1636 1.403 . S
C1639 C1640 1.524 . S
C1639 C1643 1.400 . S
C1640 H1625 0.960 . S
C1640 H1626 0.960 . S
C1640 H1627 0.960 . S
C1640 C1639 1.524 . S
C1641 C1638 1.403 . S
C1641 C1642 1.392 . S
C1641 C1645 1.495 . S
C1642 C1641 1.392 . S
C1642 C1643 1.385 . S
C1642 C1644 1.478 . S
C1643 H1637 0.930 . S
C1643 C1639 1.400 . S
C1643 C1642 1.385 . S
C1644 C1642 1.478 . S
C1644 C1646 1.381 . S
C1644 C1650 1.383 . S
C1645 C1641 1.495 . S
C1645 H1651 0.959 . S
C1645 H1652 0.961 . S
C1645 H1653 0.960 . S
C1646 C1644 1.381 . S
C1646 C1647 1.394 . S
C1646 H1654 0.930 . S
C1647 C1646 1.394 . S
C1647 C1648 1.383 . S
C1647 H1655 0.929 . S
C1648 C1647 1.383 . S
C1648 C1649 1.377 . S
C1649 H1633 0.930 . S
C1649 C1648 1.377 . S
C1649 C1650 1.379 . S
C1650 H1634 0.931 . S
C1650 C1644 1.383 . S
C1650 C1649 1.379 . S
H1651 C1645 0.959 . S
H1652 C1645 0.961 . S
H1653 C1645 0.960 . S
H1654 C1646 0.930 . S
H1655 C1647 0.929 . S
H1656 C1664 0.938 . S
H1657 C1666 0.930 . S
H1658 C1668 0.930 . S
H1659 C1671 0.929 . S
H1660 C1674 0.930 . S
H1661 C1676 0.960 . S
H1662 C1676 0.960 . S
H1663 C1676 0.960 . S
C1664 H1656 0.938 . S
C1664 C1665 1.377 1_556 S
C1664 C1666 1.384 . S
C1665 C1664 1.377 1_554 S
C1665 C1671 1.390 1_554 S
C1666 H1657 0.930 . S
C1666 C1664 1.384 . S
C1666 C1667 1.372 . S
C1667 C1666 1.372 . S
C1667 C1668 1.400 . S
C1667 C1672 1.490 . S
C1668 H1658 0.930 . S
C1668 C1667 1.400 . S
C1668 C1671 1.386 . S
H1669 C1685 0.930 . S
H1670 C1686 0.931 . S
C1671 H1659 0.929 . S
C1671 C1665 1.390 1_556 S
C1671 C1668 1.386 . S
C1672 C1667 1.490 . S
C1672 C1674 1.395 . S
C1672 C1675 1.403 . S
H1673 C1679 0.930 . S
C1674 H1660 0.930 . S
C1674 C1672 1.395 . S
C1674 C1677 1.403 . S
C1675 C1672 1.403 . S
C1675 C1676 1.524 . S
C1675 C1679 1.400 . S
C1676 H1661 0.960 . S
C1676 H1662 0.960 . S
C1676 H1663 0.960 . S
C1676 C1675 1.524 . S
C1677 C1674 1.403 . S
C1677 C1678 1.392 . S
C1677 C1681 1.495 . S
C1678 C1677 1.392 . S
C1678 C1679 1.385 . S
C1678 C1680 1.478 . S
C1679 H1673 0.930 . S
C1679 C1675 1.400 . S
C1679 C1678 1.385 . S
C1680 C1678 1.478 . S
C1680 C1682 1.381 . S
C1680 C1686 1.383 . S
C1681 C1677 1.495 . S
C1681 H1687 0.959 . S
C1681 H1688 0.961 . S
C1681 H1689 0.960 . S
C1682 C1680 1.381 . S
C1682 C1683 1.394 . S
C1682 H1690 0.930 . S
C1683 C1682 1.394 . S
C1683 C1684 1.383 . S
C1683 H1691 0.929 . S
C1684 C1683 1.383 . S
C1684 C1685 1.377 . S
C1685 H1669 0.930 . S
C1685 C1684 1.377 . S
C1685 C1686 1.379 . S
C1686 H1670 0.931 . S
C1686 C1680 1.383 . S
C1686 C1685 1.379 . S
H1687 C1681 0.959 . S
H1688 C1681 0.961 . S
H1689 C1681 0.960 . S
H1690 C1682 0.930 . S
H1691 C1683 0.929 . S
H1692 C1700 0.929 . S
H1693 C1702 0.930 . S
H1694 C1704 0.930 . S
H1695 C1707 0.929 . S
H1696 C1710 0.930 . S
H1697 C1712 0.960 . S
H1698 C1712 0.960 . S
H1699 C1712 0.960 . S
C1700 H1692 0.929 . S
C1700 C1701 1.377 . S
C1700 C1702 1.384 . S
C1701 C1700 1.377 . S
C1701 C1707 1.390 . S
C1702 H1693 0.930 . S
C1702 C1700 1.384 . S
C1702 C1703 1.372 . S
C1703 C1702 1.372 . S
C1703 C1704 1.400 . S
C1703 C1708 1.490 . S
C1704 H1694 0.930 . S
C1704 C1703 1.400 . S
C1704 C1707 1.386 . S
H1705 C1721 0.930 . S
H1706 C1722 0.931 . S
C1707 H1695 0.929 . S
C1707 C1701 1.390 . S
C1707 C1704 1.386 . S
C1708 C1703 1.490 . S
C1708 C1710 1.395 . S
C1708 C1711 1.403 . S
H1709 C1715 0.930 . S
C1710 H1696 0.930 . S
C1710 C1708 1.395 . S
C1710 C1713 1.403 . S
C1711 C1708 1.403 . S
C1711 C1712 1.524 . S
C1711 C1715 1.400 . S
C1712 H1697 0.960 . S
C1712 H1698 0.960 . S
C1712 H1699 0.960 . S
C1712 C1711 1.524 . S
C1713 C1710 1.403 . S
C1713 C1714 1.392 . S
C1713 C1717 1.495 . S
C1714 C1713 1.392 . S
C1714 C1715 1.385 . S
C1714 C1716 1.478 . S
C1715 H1709 0.930 . S
C1715 C1711 1.400 . S
C1715 C1714 1.385 . S
C1716 C1714 1.478 . S
C1716 C1718 1.381 . S
C1716 C1722 1.383 . S
C1717 C1713 1.495 . S
C1717 H1723 0.959 . S
C1717 H1724 0.961 . S
C1717 H1725 0.960 . S
C1718 C1716 1.381 . S
C1718 C1719 1.394 . S
C1718 H1726 0.930 . S
C1719 C1718 1.394 . S
C1719 C1720 1.383 . S
C1719 H1727 0.929 . S
C1720 C1719 1.383 . S
C1720 C1721 1.377 . S
C1721 H1705 0.930 . S
C1721 C1720 1.377 . S
C1721 C1722 1.379 . S
C1722 H1706 0.931 . S
C1722 C1716 1.383 . S
C1722 C1721 1.379 . S
H1723 C1717 0.959 . S
H1724 C1717 0.961 . S
H1725 C1717 0.960 . S
H1726 C1718 0.930 . S
H1727 C1719 0.929 . S
H1728 C1736 0.929 . S
H1729 C1738 0.930 . S
H1730 C1740 0.930 . S
H1731 C1743 0.929 . S
H1732 C1746 0.930 . S
H1733 C1748 0.960 . S
H1734 C1748 0.960 . S
H1735 C1748 0.960 . S
C1736 H1728 0.929 . S
C1736 C1737 1.377 . S
C1736 C1738 1.384 . S
C1737 C1736 1.377 . S
C1737 C1743 1.390 . S
C1738 H1729 0.930 . S
C1738 C1736 1.384 . S
C1738 C1739 1.372 . S
C1739 C1738 1.372 . S
C1739 C1740 1.400 . S
C1739 C1744 1.490 . S
C1740 H1730 0.930 . S
C1740 C1739 1.400 . S
C1740 C1743 1.386 . S
H1741 C1757 0.930 . S
H1742 C1758 0.931 . S
C1743 H1731 0.929 . S
C1743 C1737 1.390 . S
C1743 C1740 1.386 . S
C1744 C1739 1.490 . S
C1744 C1746 1.395 . S
C1744 C1747 1.403 . S
H1745 C1751 0.930 . S
C1746 H1732 0.930 . S
C1746 C1744 1.395 . S
C1746 C1749 1.403 . S
C1747 C1744 1.403 . S
C1747 C1748 1.524 . S
C1747 C1751 1.400 . S
C1748 H1733 0.960 . S
C1748 H1734 0.960 . S
C1748 H1735 0.960 . S
C1748 C1747 1.524 . S
C1749 C1746 1.403 . S
C1749 C1750 1.392 . S
C1749 C1753 1.495 . S
C1750 C1749 1.392 . S
C1750 C1751 1.385 . S
C1750 C1752 1.478 . S
C1751 H1745 0.930 . S
C1751 C1747 1.400 . S
C1751 C1750 1.385 . S
C1752 C1750 1.478 . S
C1752 C1754 1.381 . S
C1752 C1758 1.383 . S
C1753 C1749 1.495 . S
C1753 H1759 0.959 . S
C1753 H1760 0.961 . S
C1753 H1761 0.960 . S
C1754 C1752 1.381 . S
C1754 C1755 1.394 . S
C1754 H1762 0.930 . S
C1755 C1754 1.394 . S
C1755 C1756 1.383 . S
C1755 H1763 0.929 . S
C1756 C1755 1.383 . S
C1756 C1757 1.377 . S
C1757 H1741 0.930 . S
C1757 C1756 1.377 . S
C1757 C1758 1.379 . S
C1758 H1742 0.931 . S
C1758 C1752 1.383 . S
C1758 C1757 1.379 . S
H1759 C1753 0.959 . S
H1760 C1753 0.961 . S
H1761 C1753 0.960 . S
H1762 C1754 0.930 . S
H1763 C1755 0.929 . S
H1764 C1772 0.929 . S
H1765 C1774 0.930 . S
H1766 C1776 0.930 . S
H1767 C1779 0.929 . S
H1768 C1782 0.930 . S
H1769 C1784 0.960 . S
H1770 C1784 0.960 . S
H1771 C1784 0.960 . S
C1772 H1764 0.929 . S
C1772 C1773 1.377 . S
C1772 C1774 1.384 . S
C1773 C1772 1.377 . S
C1773 C1779 1.390 . S
C1774 H1765 0.930 . S
C1774 C1772 1.384 . S
C1774 C1775 1.372 . S
C1775 C1774 1.372 . S
C1775 C1776 1.400 . S
C1775 C1780 1.490 . S
C1776 H1766 0.930 . S
C1776 C1775 1.400 . S
C1776 C1779 1.386 . S
H1777 C1793 0.930 . S
H1778 C1794 0.931 . S
C1779 H1767 0.929 . S
C1779 C1773 1.390 . S
C1779 C1776 1.386 . S
C1780 C1775 1.490 . S
C1780 C1782 1.395 . S
C1780 C1783 1.403 . S
H1781 C1787 0.930 . S
C1782 H1768 0.930 . S
C1782 C1780 1.395 . S
C1782 C1785 1.403 . S
C1783 C1780 1.403 . S
C1783 C1784 1.524 . S
C1783 C1787 1.400 . S
C1784 H1769 0.960 . S
C1784 H1770 0.960 . S
C1784 H1771 0.960 . S
C1784 C1783 1.524 . S
C1785 C1782 1.403 . S
C1785 C1786 1.392 . S
C1785 C1789 1.495 . S
C1786 C1785 1.392 . S
C1786 C1787 1.385 . S
C1786 C1788 1.478 . S
C1787 H1781 0.930 . S
C1787 C1783 1.400 . S
C1787 C1786 1.385 . S
C1788 C1786 1.478 . S
C1788 C1790 1.381 . S
C1788 C1794 1.383 . S
C1789 C1785 1.495 . S
C1789 H1795 0.959 . S
C1789 H1796 0.961 . S
C1789 H1797 0.960 . S
C1790 C1788 1.381 . S
C1790 C1791 1.394 . S
C1790 H1798 0.930 . S
C1791 C1790 1.394 . S
C1791 C1792 1.383 . S
C1791 H1799 0.929 . S
C1792 C1791 1.383 . S
C1792 C1793 1.377 . S
C1793 H1777 0.930 . S
C1793 C1792 1.377 . S
C1793 C1794 1.379 . S
C1794 H1778 0.931 . S
C1794 C1788 1.383 . S
C1794 C1793 1.379 . S
H1795 C1789 0.959 . S
H1796 C1789 0.961 . S
H1797 C1789 0.960 . S
H1798 C1790 0.930 . S
H1799 C1791 0.929 . S
H1800 C1808 0.929 . S
H1801 C1810 0.930 . S
H1802 C1812 0.930 . S
H1803 C1815 0.929 . S
H1804 C1818 0.930 . S
H1805 C1820 0.960 . S
H1806 C1820 0.960 . S
H1807 C1820 0.960 . S
C1808 H1800 0.929 . S
C1808 C1809 1.377 . S
C1808 C1810 1.384 . S
C1809 C1808 1.377 . S
C1809 C1815 1.390 . S
C1810 H1801 0.930 . S
C1810 C1808 1.384 . S
C1810 C1811 1.372 . S
C1811 C1810 1.372 . S
C1811 C1812 1.400 . S
C1811 C1816 1.490 . S
C1812 H1802 0.930 . S
C1812 C1811 1.400 . S
C1812 C1815 1.386 . S
H1813 C1829 0.930 . S
H1814 C1830 0.931 . S
C1815 H1803 0.929 . S
C1815 C1809 1.390 . S
C1815 C1812 1.386 . S
C1816 C1811 1.490 . S
C1816 C1818 1.395 . S
C1816 C1819 1.403 . S
H1817 C1823 0.930 . S
C1818 H1804 0.930 . S
C1818 C1816 1.395 . S
C1818 C1821 1.403 . S
C1819 C1816 1.403 . S
C1819 C1820 1.524 . S
C1819 C1823 1.400 . S
C1820 H1805 0.960 . S
C1820 H1806 0.960 . S
C1820 H1807 0.960 . S
C1820 C1819 1.524 . S
C1821 C1818 1.403 . S
C1821 C1822 1.392 . S
C1821 C1825 1.495 . S
C1822 C1821 1.392 . S
C1822 C1823 1.385 . S
C1822 C1824 1.478 . S
C1823 H1817 0.930 . S
C1823 C1819 1.400 . S
C1823 C1822 1.385 . S
C1824 C1822 1.478 . S
C1824 C1826 1.381 . S
C1824 C1830 1.383 . S
C1825 C1821 1.495 . S
C1825 H1831 0.959 . S
C1825 H1832 0.961 . S
C1825 H1833 0.960 . S
C1826 C1824 1.381 . S
C1826 C1827 1.394 . S
C1826 H1834 0.930 . S
C1827 C1826 1.394 . S
C1827 C1828 1.383 . S
C1827 H1835 0.929 . S
C1828 C1827 1.383 . S
C1828 C1829 1.377 . S
C1829 H1813 0.930 . S
C1829 C1828 1.377 . S
C1829 C1830 1.379 . S
C1830 H1814 0.931 . S
C1830 C1824 1.383 . S
C1830 C1829 1.379 . S
H1831 C1825 0.959 . S
H1832 C1825 0.961 . S
H1833 C1825 0.960 . S
H1834 C1826 0.930 . S
H1835 C1827 0.929 . S
H1836 C1844 0.929 . S
H1837 C1846 0.930 1_556 S
H1838 C1848 0.930 . S
H1839 C1851 0.929 . S
H1840 C1854 0.930 . S
H1841 C1856 0.960 . S
H1842 C1856 0.960 . S
H1843 C1856 0.960 . S
C1844 H1836 0.929 . S
C1844 C1845 1.377 . S
C1844 C1846 1.384 . S
C1845 C1844 1.377 . S
C1845 C1851 1.390 . S
C1846 H1837 0.930 1_554 S
C1846 C1844 1.384 . S
C1846 C1847 1.372 . S
C1847 C1846 1.372 . S
C1847 C1848 1.400 . S
C1847 C1852 1.490 . S
C1848 H1838 0.930 . S
C1848 C1847 1.400 . S
C1848 C1851 1.386 . S
H1849 C1865 0.930 . S
H1850 C1866 0.931 . S
C1851 H1839 0.929 . S
C1851 C1845 1.390 . S
C1851 C1848 1.386 . S
C1852 C1847 1.490 . S
C1852 C1854 1.395 . S
C1852 C1855 1.403 . S
H1853 C1859 0.930 . S
C1854 H1840 0.930 . S
C1854 C1852 1.395 . S
C1854 C1857 1.403 . S
C1855 C1852 1.403 . S
C1855 C1856 1.524 . S
C1855 C1859 1.400 . S
C1856 H1841 0.960 . S
C1856 H1842 0.960 . S
C1856 H1843 0.960 . S
C1856 C1855 1.524 . S
C1857 C1854 1.403 . S
C1857 C1858 1.392 . S
C1857 C1861 1.495 1_554 S
C1858 C1857 1.392 . S
C1858 C1859 1.385 . S
C1858 C1860 1.478 . S
C1859 H1853 0.930 . S
C1859 C1855 1.400 . S
C1859 C1858 1.385 . S
C1860 C1858 1.478 . S
C1860 C1862 1.381 1_554 S
C1860 C1866 1.383 . S
C1861 C1857 1.495 1_556 S
C1861 H1867 0.959 . S
C1861 H1868 0.961 1_556 S
C1861 H1869 0.960 . S
C1862 C1860 1.381 1_556 S
C1862 C1863 1.394 . S
C1862 H1870 0.930 . S
C1863 C1862 1.394 . S
C1863 C1864 1.383 . S
C1863 H1871 0.929 . S
C1864 C1863 1.383 . S
C1864 C1865 1.377 1_556 S
C1865 H1849 0.930 . S
C1865 C1864 1.377 1_554 S
C1865 C1866 1.379 . S
C1866 H1850 0.931 . S
C1866 C1860 1.383 . S
C1866 C1865 1.379 . S
H1867 C1861 0.959 . S
H1868 C1861 0.961 1_554 S
H1869 C1861 0.960 . S
H1870 C1862 0.930 . S
H1871 C1863 0.929 . S
H1872 C1880 0.929 . S
H1873 C1882 0.930 . S
H1874 C1884 0.930 . S
H1875 C1887 0.929 . S
H1876 C1890 0.930 . S
H1877 C1892 0.960 . S
H1878 C1892 0.960 . S
H1879 C1892 0.960 . S
C1880 H1872 0.929 . S
C1880 C1881 1.377 . S
C1880 C1882 1.384 . S
C1881 C1880 1.377 . S
C1881 C1887 1.390 . S
C1882 H1873 0.930 . S
C1882 C1880 1.384 . S
C1882 C1883 1.372 . S
C1883 C1882 1.372 . S
C1883 C1884 1.400 . S
C1883 C1888 1.490 . S
C1884 H1874 0.930 . S
C1884 C1883 1.400 . S
C1884 C1887 1.386 . S
H1885 C1901 0.930 . S
H1886 C1902 0.931 . S
C1887 H1875 0.929 . S
C1887 C1881 1.390 . S
C1887 C1884 1.386 . S
C1888 C1883 1.490 . S
C1888 C1890 1.395 . S
C1888 C1891 1.403 . S
H1889 C1895 0.930 . S
C1890 H1876 0.930 . S
C1890 C1888 1.395 . S
C1890 C1893 1.403 . S
C1891 C1888 1.403 . S
C1891 C1892 1.524 . S
C1891 C1895 1.400 . S
C1892 H1877 0.960 . S
C1892 H1878 0.960 . S
C1892 H1879 0.960 . S
C1892 C1891 1.524 . S
C1893 C1890 1.403 . S
C1893 C1894 1.392 . S
C1893 C1897 1.495 . S
C1894 C1893 1.392 . S
C1894 C1895 1.385 . S
C1894 C1896 1.478 . S
C1895 H1889 0.930 . S
C1895 C1891 1.400 . S
C1895 C1894 1.385 . S
C1896 C1894 1.478 . S
C1896 C1898 1.381 . S
C1896 C1902 1.383 . S
C1897 C1893 1.495 . S
C1897 H1903 0.959 . S
C1897 H1904 0.961 . S
C1897 H1905 0.960 . S
C1898 C1896 1.381 . S
C1898 C1899 1.394 . S
C1898 H1906 0.930 . S
C1899 C1898 1.394 . S
C1899 C1900 1.383 . S
C1899 H1907 0.929 . S
C1900 C1899 1.383 . S
C1900 C1901 1.377 . S
C1901 H1885 0.930 . S
C1901 C1900 1.377 . S
C1901 C1902 1.379 . S
C1902 H1886 0.931 . S
C1902 C1896 1.383 . S
C1902 C1901 1.379 . S
H1903 C1897 0.959 . S
H1904 C1897 0.961 . S
H1905 C1897 0.960 . S
H1906 C1898 0.930 . S
H1907 C1899 0.929 . S
H1908 C1916 0.929 . S
H1909 C1918 0.930 . S
H1910 C1920 0.930 . S
H1911 C1923 0.929 . S
H1912 C1926 0.930 . S
H1913 C1928 0.960 . S
H1914 C1928 0.960 . S
H1915 C1928 0.960 . S
C1916 H1908 0.929 . S
C1916 C1917 1.377 . S
C1916 C1918 1.384 1_455 S
C1917 C1916 1.377 . S
C1917 C1923 1.390 1_455 S
C1918 H1909 0.930 . S
C1918 C1916 1.384 1_655 S
C1918 C1919 1.372 . S
C1919 C1918 1.372 . S
C1919 C1920 1.400 . S
C1919 C1924 1.490 . S
C1920 H1910 0.930 . S
C1920 C1919 1.400 . S
C1920 C1923 1.386 . S
H1921 C1937 0.930 . S
H1922 C1938 0.931 . S
C1923 H1911 0.929 . S
C1923 C1917 1.390 1_655 S
C1923 C1920 1.386 . S
C1924 C1919 1.490 . S
C1924 C1926 1.395 . S
C1924 C1927 1.403 . S
H1925 C1931 0.930 . S
C1926 H1912 0.930 . S
C1926 C1924 1.395 . S
C1926 C1929 1.403 . S
C1927 C1924 1.403 . S
C1927 C1928 1.524 . S
C1927 C1931 1.400 . S
C1928 H1913 0.960 . S
C1928 H1914 0.960 . S
C1928 H1915 0.960 . S
C1928 C1927 1.524 . S
C1929 C1926 1.403 . S
C1929 C1930 1.392 . S
C1929 C1933 1.495 . S
C1930 C1929 1.392 . S
C1930 C1931 1.385 . S
C1930 C1932 1.478 . S
C1931 H1925 0.930 . S
C1931 C1927 1.400 . S
C1931 C1930 1.385 . S
C1932 C1930 1.478 . S
C1932 C1934 1.381 . S
C1932 C1938 1.383 . S
C1933 C1929 1.495 . S
C1933 H1939 0.959 . S
C1933 H1940 0.961 . S
C1933 H1941 0.960 . S
C1934 C1932 1.381 . S
C1934 C1935 1.394 . S
C1934 H1942 0.930 . S
C1935 C1934 1.394 . S
C1935 C1936 1.383 . S
C1935 H1943 0.929 . S
C1936 C1935 1.383 . S
C1936 C1937 1.377 . S
C1937 H1921 0.930 . S
C1937 C1936 1.377 . S
C1937 C1938 1.379 . S
C1938 H1922 0.931 . S
C1938 C1932 1.383 . S
C1938 C1937 1.379 . S
H1939 C1933 0.959 . S
H1940 C1933 0.961 . S
H1941 C1933 0.960 . S
H1942 C1934 0.930 . S
H1943 C1935 0.929 . S
H1944 C1952 0.929 . S
H1945 C1954 0.930 . S
H1946 C1956 0.930 . S
H1947 C1959 0.929 . S
H1948 C1962 0.930 . S
H1949 C1964 0.960 . S
H1950 C1964 0.960 . S
H1951 C1964 0.960 . S
C1952 H1944 0.929 . S
C1952 C1953 1.377 . S
C1952 C1954 1.384 . S
C1953 C1952 1.377 . S
C1953 C1959 1.390 . S
C1954 H1945 0.930 . S
C1954 C1952 1.384 . S
C1954 C1955 1.372 . S
C1955 C1954 1.372 . S
C1955 C1956 1.400 . S
C1955 C1960 1.490 . S
C1956 H1946 0.930 . S
C1956 C1955 1.400 . S
C1956 C1959 1.386 . S
H1957 C1973 0.930 . S
H1958 C1974 0.931 . S
C1959 H1947 0.929 . S
C1959 C1953 1.390 . S
C1959 C1956 1.386 . S
C1960 C1955 1.490 . S
C1960 C1962 1.395 . S
C1960 C1963 1.403 . S
H1961 C1967 0.930 . S
C1962 H1948 0.930 . S
C1962 C1960 1.395 . S
C1962 C1965 1.403 . S
C1963 C1960 1.403 . S
C1963 C1964 1.524 . S
C1963 C1967 1.400 . S
C1964 H1949 0.960 . S
C1964 H1950 0.960 . S
C1964 H1951 0.960 . S
C1964 C1963 1.524 . S
C1965 C1962 1.403 . S
C1965 C1966 1.392 . S
C1965 C1969 1.495 . S
C1966 C1965 1.392 . S
C1966 C1967 1.385 . S
C1966 C1968 1.478 . S
C1967 H1961 0.930 . S
C1967 C1963 1.400 . S
C1967 C1966 1.385 . S
C1968 C1966 1.478 . S
C1968 C1970 1.381 . S
C1968 C1974 1.383 . S
C1969 C1965 1.495 . S
C1969 H1975 0.959 . S
C1969 H1976 0.961 . S
C1969 H1977 0.960 . S
C1970 C1968 1.381 . S
C1970 C1971 1.394 . S
C1970 H1978 0.930 . S
C1971 C1970 1.394 . S
C1971 C1972 1.383 . S
C1971 H1979 0.929 . S
C1972 C1971 1.383 . S
C1972 C1973 1.377 . S
C1973 H1957 0.930 . S
C1973 C1972 1.377 . S
C1973 C1974 1.379 . S
C1974 H1958 0.931 . S
C1974 C1968 1.383 . S
C1974 C1973 1.379 . S
H1975 C1969 0.959 . S
H1976 C1969 0.961 . S
H1977 C1969 0.960 . S
H1978 C1970 0.930 . S
H1979 C1971 0.929 . S
H1980 C1988 0.929 . S
H1981 C1990 0.930 . S
H1982 C1992 0.930 . S
H1983 C1995 0.929 . S
H1984 C1998 0.930 . S
H1985 C2000 0.960 . S
H1986 C2000 0.960 . S
H1987 C2000 0.960 . S
C1988 H1980 0.929 . S
C1988 C1989 1.377 . S
C1988 C1990 1.384 . S
C1989 C1988 1.377 . S
C1989 C1995 1.390 . S
C1990 H1981 0.930 . S
C1990 C1988 1.384 . S
C1990 C1991 1.372 . S
C1991 C1990 1.372 . S
C1991 C1992 1.400 . S
C1991 C1996 1.490 . S
C1992 H1982 0.930 . S
C1992 C1991 1.400 . S
C1992 C1995 1.386 . S
H1993 C2009 0.930 . S
H1994 C2010 0.931 . S
C1995 H1983 0.929 . S
C1995 C1989 1.390 . S
C1995 C1992 1.386 . S
C1996 C1991 1.490 . S
C1996 C1998 1.395 . S
C1996 C1999 1.403 . S
H1997 C2003 0.930 . S
C1998 H1984 0.930 . S
C1998 C1996 1.395 . S
C1998 C2001 1.403 . S
C1999 C1996 1.403 . S
C1999 C2000 1.524 . S
C1999 C2003 1.400 . S
C2000 H1985 0.960 . S
C2000 H1986 0.960 . S
C2000 H1987 0.960 . S
C2000 C1999 1.524 . S
C2001 C1998 1.403 . S
C2001 C2002 1.392 . S
C2001 C2005 1.495 . S
C2002 C2001 1.392 . S
C2002 C2003 1.385 . S
C2002 C2004 1.478 . S
C2003 H1997 0.930 . S
C2003 C1999 1.400 . S
C2003 C2002 1.385 . S
C2004 C2002 1.478 . S
C2004 C2006 1.381 . S
C2004 C2010 1.383 . S
C2005 C2001 1.495 . S
C2005 H2011 0.959 . S
C2005 H2012 0.961 . S
C2005 H2013 0.960 . S
C2006 C2004 1.381 . S
C2006 C2007 1.394 . S
C2006 H2014 0.930 . S
C2007 C2006 1.394 . S
C2007 C2008 1.383 . S
C2007 H2015 0.929 . S
C2008 C2007 1.383 . S
C2008 C2009 1.377 . S
C2009 H1993 0.930 . S
C2009 C2008 1.377 . S
C2009 C2010 1.379 . S
C2010 H1994 0.931 . S
C2010 C2004 1.383 . S
C2010 C2009 1.379 . S
H2011 C2005 0.959 . S
H2012 C2005 0.961 . S
H2013 C2005 0.960 . S
H2014 C2006 0.930 . S
H2015 C2007 0.929 . S
H2016 C2024 0.929 . S
H2017 C2026 0.930 . S
H2018 C2028 0.930 . S
H2019 C2031 0.929 . S
H2020 C2034 0.930 . S
H2021 C2036 0.960 . S
H2022 C2036 0.960 . S
H2023 C2036 0.960 . S
C2024 H2016 0.929 . S
C2024 C2025 1.377 . S
C2024 C2026 1.384 . S
C2025 C2024 1.377 . S
C2025 C2031 1.390 . S
C2026 H2017 0.930 . S
C2026 C2024 1.384 . S
C2026 C2027 1.372 . S
C2027 C2026 1.372 . S
C2027 C2028 1.400 . S
C2027 C2032 1.490 . S
C2028 H2018 0.930 . S
C2028 C2027 1.400 . S
C2028 C2031 1.386 . S
H2029 C2045 0.930 . S
H2030 C2046 0.931 . S
C2031 H2019 0.929 . S
C2031 C2025 1.390 . S
C2031 C2028 1.386 . S
C2032 C2027 1.490 . S
C2032 C2034 1.395 . S
C2032 C2035 1.403 . S
H2033 C2039 0.930 . S
C2034 H2020 0.930 . S
C2034 C2032 1.395 . S
C2034 C2037 1.403 . S
C2035 C2032 1.403 . S
C2035 C2036 1.524 . S
C2035 C2039 1.400 . S
C2036 H2021 0.960 . S
C2036 H2022 0.960 . S
C2036 H2023 0.960 . S
C2036 C2035 1.524 . S
C2037 C2034 1.403 . S
C2037 C2038 1.392 . S
C2037 C2041 1.495 . S
C2038 C2037 1.392 . S
C2038 C2039 1.385 . S
C2038 C2040 1.478 . S
C2039 H2033 0.930 . S
C2039 C2035 1.400 . S
C2039 C2038 1.385 . S
C2040 C2038 1.478 . S
C2040 C2042 1.381 . S
C2040 C2046 1.383 . S
C2041 C2037 1.495 . S
C2041 H2047 0.959 . S
C2041 H2048 0.961 . S
C2041 H2049 0.960 . S
C2042 C2040 1.381 . S
C2042 C2043 1.394 . S
C2042 H2050 0.930 . S
C2043 C2042 1.394 . S
C2043 C2044 1.383 . S
C2043 H2051 0.929 . S
C2044 C2043 1.383 . S
C2044 C2045 1.377 . S
C2045 H2029 0.930 . S
C2045 C2044 1.377 . S
C2045 C2046 1.379 . S
C2046 H2030 0.931 . S
C2046 C2040 1.383 . S
C2046 C2045 1.379 . S
H2047 C2041 0.959 . S
H2048 C2041 0.961 . S
H2049 C2041 0.960 . S
H2050 C2042 0.930 . S
H2051 C2043 0.929 . S
H2052 C2060 0.929 . S
H2053 C2062 0.930 . S
H2054 C2064 0.930 . S
H2055 C2067 0.929 . S
H2056 C2070 0.930 . S
H2057 C2072 0.960 . S
H2058 C2072 0.960 . S
H2059 C2072 0.960 . S
C2060 H2052 0.929 . S
C2060 C2061 1.377 . S
C2060 C2062 1.384 . S
C2061 C2060 1.377 . S
C2061 C2067 1.390 . S
C2062 H2053 0.930 . S
C2062 C2060 1.384 . S
C2062 C2063 1.372 . S
C2063 C2062 1.372 . S
C2063 C2064 1.400 . S
C2063 C2068 1.490 . S
C2064 H2054 0.930 . S
C2064 C2063 1.400 . S
C2064 C2067 1.386 . S
H2065 C2081 0.930 . S
H2066 C2082 0.931 . S
C2067 H2055 0.929 . S
C2067 C2061 1.390 . S
C2067 C2064 1.386 . S
C2068 C2063 1.490 . S
C2068 C2070 1.395 . S
C2068 C2071 1.403 . S
H2069 C2075 0.930 . S
C2070 H2056 0.930 . S
C2070 C2068 1.395 . S
C2070 C2073 1.403 . S
C2071 C2068 1.403 . S
C2071 C2072 1.524 . S
C2071 C2075 1.400 . S
C2072 H2057 0.960 . S
C2072 H2058 0.960 . S
C2072 H2059 0.960 . S
C2072 C2071 1.524 . S
C2073 C2070 1.403 . S
C2073 C2074 1.392 . S
C2073 C2077 1.495 . S
C2074 C2073 1.392 . S
C2074 C2075 1.385 . S
C2074 C2076 1.478 . S
C2075 H2069 0.930 . S
C2075 C2071 1.400 . S
C2075 C2074 1.385 . S
C2076 C2074 1.478 . S
C2076 C2078 1.381 . S
C2076 C2082 1.383 . S
C2077 C2073 1.495 . S
C2077 H2083 0.959 . S
C2077 H2084 0.961 . S
C2077 H2085 0.960 . S
C2078 C2076 1.381 . S
C2078 C2079 1.394 . S
C2078 H2086 0.930 . S
C2079 C2078 1.394 . S
C2079 C2080 1.383 . S
C2079 H2087 0.929 . S
C2080 C2079 1.383 . S
C2080 C2081 1.377 . S
C2081 H2065 0.930 . S
C2081 C2080 1.377 . S
C2081 C2082 1.379 . S
C2082 H2066 0.931 . S
C2082 C2076 1.383 . S
C2082 C2081 1.379 . S
H2083 C2077 0.959 . S
H2084 C2077 0.961 . S
H2085 C2077 0.960 . S
H2086 C2078 0.930 . S
H2087 C2079 0.929 . S
H2088 C2096 0.929 . S
H2089 C2098 0.930 . S
H2090 C2100 0.930 . S
H2091 C2103 0.929 . S
H2092 C2106 0.930 . S
H2093 C2108 0.960 . S
H2094 C2108 0.960 . S
H2095 C2108 0.960 . S
C2096 H2088 0.929 . S
C2096 C2097 1.377 . S
C2096 C2098 1.384 . S
C2097 C2096 1.377 . S
C2097 C2103 1.390 . S
C2098 H2089 0.930 . S
C2098 C2096 1.384 . S
C2098 C2099 1.372 . S
C2099 C2098 1.372 . S
C2099 C2100 1.400 . S
C2099 C2104 1.490 . S
C2100 H2090 0.930 . S
C2100 C2099 1.400 . S
C2100 C2103 1.386 . S
H2101 C2117 0.930 . S
H2102 C2118 0.931 . S
C2103 H2091 0.929 . S
C2103 C2097 1.390 . S
C2103 C2100 1.386 . S
C2104 C2099 1.490 . S
C2104 C2106 1.395 . S
C2104 C2107 1.403 . S
H2105 C2111 0.930 . S
C2106 H2092 0.930 . S
C2106 C2104 1.395 . S
C2106 C2109 1.403 . S
C2107 C2104 1.403 . S
C2107 C2108 1.524 . S
C2107 C2111 1.400 . S
C2108 H2093 0.960 . S
C2108 H2094 0.960 . S
C2108 H2095 0.960 . S
C2108 C2107 1.524 . S
C2109 C2106 1.403 . S
C2109 C2110 1.392 . S
C2109 C2113 1.495 1_455 S
C2110 C2109 1.392 . S
C2110 C2111 1.385 . S
C2110 C2112 1.478 . S
C2111 H2105 0.930 . S
C2111 C2107 1.400 . S
C2111 C2110 1.385 . S
C2112 C2110 1.478 . S
C2112 C2114 1.381 1_455 S
C2112 C2118 1.383 . S
C2113 C2109 1.495 1_655 S
C2113 H2119 0.959 . S
C2113 H2120 0.961 1_655 S
C2113 H2121 0.960 . S
C2114 C2112 1.381 1_655 S
C2114 C2115 1.394 . S
C2114 H2122 0.930 . S
C2115 C2114 1.394 . S
C2115 C2116 1.351 1_655 S
C2115 H2123 0.929 . S
C2116 C2115 1.351 1_455 S
C2116 C2117 1.420 . S
C2117 H2101 0.930 . S
C2117 C2116 1.420 . S
C2117 C2118 1.379 . S
C2118 H2102 0.931 . S
C2118 C2112 1.383 . S
C2118 C2117 1.379 . S
H2119 C2113 0.959 . S
H2120 C2113 0.961 1_455 S
H2121 C2113 0.960 . S
H2122 C2114 0.930 . S
H2123 C2115 0.929 . S
H2124 C2132 0.929 . S
H2125 C2134 0.930 . S
H2126 C2136 0.930 . S
H2127 C2139 0.929 . S
H2128 C2142 0.930 . S
H2129 C2144 0.960 . S
H2130 C2144 0.960 . S
H2131 C2144 0.960 . S
C2132 H2124 0.929 . S
C2132 C2133 1.377 . S
C2132 C2134 1.384 . S
C2133 C2132 1.377 . S
C2133 C2139 1.390 . S
C2134 H2125 0.930 . S
C2134 C2132 1.384 . S
C2134 C2135 1.372 . S
C2135 C2134 1.372 . S
C2135 C2136 1.400 . S
C2135 C2140 1.490 . S
C2136 H2126 0.930 . S
C2136 C2135 1.400 . S
C2136 C2139 1.386 . S
H2137 C2153 0.930 . S
H2138 C2154 0.931 . S
C2139 H2127 0.929 . S
C2139 C2133 1.390 . S
C2139 C2136 1.386 . S
C2140 C2135 1.490 . S
C2140 C2142 1.395 . S
C2140 C2143 1.403 . S
H2141 C2147 0.930 . S
C2142 H2128 0.930 . S
C2142 C2140 1.395 . S
C2142 C2145 1.403 . S
C2143 C2140 1.403 . S
C2143 C2144 1.524 . S
C2143 C2147 1.400 . S
C2144 H2129 0.960 . S
C2144 H2130 0.960 . S
C2144 H2131 0.960 . S
C2144 C2143 1.524 . S
C2145 C2142 1.403 . S
C2145 C2146 1.392 . S
C2145 C2149 1.495 1_554 S
C2146 C2145 1.392 . S
C2146 C2147 1.385 . S
C2146 C2148 1.478 . S
C2147 H2141 0.930 . S
C2147 C2143 1.400 . S
C2147 C2146 1.385 . S
C2148 C2146 1.478 . S
C2148 C2150 1.381 1_554 S
C2148 C2154 1.383 . S
C2149 C2145 1.495 1_556 S
C2149 H2155 0.959 . S
C2149 H2156 0.961 . S
C2149 H2157 0.960 . S
C2150 C2148 1.381 1_556 S
C2150 C2151 1.394 . S
C2150 H2158 0.930 . S
C2151 C2150 1.394 . S
C2151 C2152 1.379 1_556 S
C2151 H2159 0.929 . S
C2152 C2151 1.379 1_554 S
C2152 C2153 1.383 . S
C2153 H2137 0.930 . S
C2153 C2152 1.383 . S
C2153 C2154 1.379 . S
C2154 H2138 0.931 . S
C2154 C2148 1.383 . S
C2154 C2153 1.379 . S
H2155 C2149 0.959 . S
H2156 C2149 0.961 . S
H2157 C2149 0.960 . S
H2158 C2150 0.930 . S
H2159 C2151 0.929 . S
H2160 C2168 0.929 . S
H2161 C2170 0.930 . S
H2162 C2172 0.930 . S
H2163 C2175 0.929 . S
H2164 C2178 0.930 . S
H2165 C2180 0.960 . S
H2166 C2180 0.960 . S
H2167 C2180 0.960 . S
C2168 H2160 0.929 . S
C2168 C2169 1.377 . S
C2168 C2170 1.384 . S
C2169 C2168 1.377 . S
C2169 C2175 1.390 . S
C2170 H2161 0.930 . S
C2170 C2168 1.384 . S
C2170 C2171 1.372 . S
C2171 C2170 1.372 . S
C2171 C2172 1.400 . S
C2171 C2176 1.490 . S
C2172 H2162 0.930 . S
C2172 C2171 1.400 . S
C2172 C2175 1.386 . S
H2173 C2189 0.930 . S
H2174 C2190 0.931 . S
C2175 H2163 0.929 . S
C2175 C2169 1.390 . S
C2175 C2172 1.386 . S
C2176 C2171 1.490 . S
C2176 C2178 1.395 . S
C2176 C2179 1.403 . S
H2177 C2183 0.930 . S
C2178 H2164 0.930 . S
C2178 C2176 1.395 . S
C2178 C2181 1.403 . S
C2179 C2176 1.403 . S
C2179 C2180 1.524 . S
C2179 C2183 1.400 . S
C2180 H2165 0.960 . S
C2180 H2166 0.960 . S
C2180 H2167 0.960 . S
C2180 C2179 1.524 . S
C2181 C2178 1.403 . S
C2181 C2182 1.392 . S
C2181 C2185 1.495 . S
C2182 C2181 1.392 . S
C2182 C2183 1.385 . S
C2182 C2184 1.478 . S
C2183 H2177 0.930 . S
C2183 C2179 1.400 . S
C2183 C2182 1.385 . S
C2184 C2182 1.478 . S
C2184 C2186 1.381 . S
C2184 C2190 1.383 . S
C2185 C2181 1.495 . S
C2185 H2191 0.959 . S
C2185 H2192 0.961 . S
C2185 H2193 0.960 . S
C2186 C2184 1.381 . S
C2186 C2187 1.394 . S
C2186 H2194 0.930 . S
C2187 C2186 1.394 . S
C2187 C2188 1.383 . S
C2187 H2195 0.929 . S
C2188 C2187 1.383 . S
C2188 C2189 1.377 . S
C2189 H2173 0.930 . S
C2189 C2188 1.377 . S
C2189 C2190 1.379 . S
C2190 H2174 0.931 . S
C2190 C2184 1.383 . S
C2190 C2189 1.379 . S
H2191 C2185 0.959 . S
H2192 C2185 0.961 . S
H2193 C2185 0.960 . S
H2194 C2186 0.930 . S
H2195 C2187 0.929 . S
H2196 C2204 0.929 . S
H2197 C2206 0.930 . S
H2198 C2208 0.930 . S
H2199 C2211 0.929 . S
H2200 C2214 0.930 . S
H2201 C2216 0.960 . S
H2202 C2216 0.960 . S
H2203 C2216 0.960 . S
C2204 H2196 0.929 . S
C2204 C2205 1.377 . S
C2204 C2206 1.384 . S
C2205 C2204 1.377 . S
C2205 C2211 1.390 . S
C2206 H2197 0.930 . S
C2206 C2204 1.384 . S
C2206 C2207 1.372 . S
C2207 C2206 1.372 . S
C2207 C2208 1.400 . S
C2207 C2212 1.490 . S
C2208 H2198 0.930 . S
C2208 C2207 1.400 . S
C2208 C2211 1.386 . S
H2209 C2225 0.930 . S
H2210 C2226 0.931 . S
C2211 H2199 0.929 . S
C2211 C2205 1.390 . S
C2211 C2208 1.386 . S
C2212 C2207 1.490 . S
C2212 C2214 1.395 . S
C2212 C2215 1.403 . S
H2213 C2219 0.930 . S
C2214 H2200 0.930 . S
C2214 C2212 1.395 . S
C2214 C2217 1.403 . S
C2215 C2212 1.403 . S
C2215 C2216 1.524 . S
C2215 C2219 1.400 . S
C2216 H2201 0.960 . S
C2216 H2202 0.960 . S
C2216 H2203 0.960 . S
C2216 C2215 1.524 . S
C2217 C2214 1.403 . S
C2217 C2218 1.392 . S
C2217 C2221 1.495 . S
C2218 C2217 1.392 . S
C2218 C2219 1.385 . S
C2218 C2220 1.478 . S
C2219 H2213 0.930 . S
C2219 C2215 1.400 . S
C2219 C2218 1.385 . S
C2220 C2218 1.478 . S
C2220 C2222 1.381 . S
C2220 C2226 1.383 . S
C2221 C2217 1.495 . S
C2221 H2227 0.959 . S
C2221 H2228 0.961 . S
C2221 H2229 0.960 . S
C2222 C2220 1.381 . S
C2222 C2223 1.394 . S
C2222 H2230 0.930 . S
C2223 C2222 1.394 . S
C2223 C2224 1.383 . S
C2223 H2231 0.929 . S
C2224 C2223 1.383 . S
C2224 C2225 1.377 . S
C2225 H2209 0.930 . S
C2225 C2224 1.377 . S
C2225 C2226 1.379 . S
C2226 H2210 0.931 . S
C2226 C2220 1.383 . S
C2226 C2225 1.379 . S
H2227 C2221 0.959 . S
H2228 C2221 0.961 . S
H2229 C2221 0.960 . S
H2230 C2222 0.930 . S
H2231 C2223 0.929 . S
H2232 C2240 0.929 . S
H2233 C2242 0.930 . S
H2234 C2244 0.930 . S
H2235 C2247 0.929 . S
H2236 C2250 0.930 . S
H2237 C2252 0.960 . S
H2238 C2252 0.960 . S
H2239 C2252 0.960 . S
C2240 H2232 0.929 . S
C2240 C2241 1.377 . S
C2240 C2242 1.384 . S
C2241 C2240 1.377 . S
C2241 C2247 1.390 . S
C2242 H2233 0.930 . S
C2242 C2240 1.384 . S
C2242 C2243 1.372 . S
C2243 C2242 1.372 . S
C2243 C2244 1.400 . S
C2243 C2248 1.490 . S
C2244 H2234 0.930 . S
C2244 C2243 1.400 . S
C2244 C2247 1.386 . S
H2245 C2261 0.930 . S
H2246 C2262 0.931 . S
C2247 H2235 0.929 . S
C2247 C2241 1.390 . S
C2247 C2244 1.386 . S
C2248 C2243 1.490 . S
C2248 C2250 1.395 . S
C2248 C2251 1.403 . S
H2249 C2255 0.930 . S
C2250 H2236 0.930 . S
C2250 C2248 1.395 . S
C2250 C2253 1.403 . S
C2251 C2248 1.403 . S
C2251 C2252 1.524 . S
C2251 C2255 1.400 . S
C2252 H2237 0.960 . S
C2252 H2238 0.960 . S
C2252 H2239 0.960 . S
C2252 C2251 1.524 . S
C2253 C2250 1.403 . S
C2253 C2254 1.392 . S
C2253 C2257 1.495 . S
C2254 C2253 1.392 . S
C2254 C2255 1.385 . S
C2254 C2256 1.478 . S
C2255 H2249 0.930 . S
C2255 C2251 1.400 . S
C2255 C2254 1.385 . S
C2256 C2254 1.478 . S
C2256 C2258 1.381 . S
C2256 C2262 1.383 . S
C2257 C2253 1.495 . S
C2257 H2263 0.959 . S
C2257 H2264 0.961 . S
C2257 H2265 0.960 . S
C2258 C2256 1.381 . S
C2258 C2259 1.394 . S
C2258 H2266 0.930 . S
C2259 C2258 1.394 . S
C2259 C2260 1.383 . S
C2259 H2267 0.929 . S
C2260 C2259 1.383 . S
C2260 C2261 1.377 . S
C2261 H2245 0.930 . S
C2261 C2260 1.377 . S
C2261 C2262 1.379 . S
C2262 H2246 0.931 . S
C2262 C2256 1.383 . S
C2262 C2261 1.379 . S
H2263 C2257 0.959 . S
H2264 C2257 0.961 . S
H2265 C2257 0.960 . S
H2266 C2258 0.930 . S
H2267 C2259 0.929 . S
H2268 C2276 0.929 . S
H2269 C2278 0.930 . S
H2270 C2280 0.930 . S
H2271 C2283 0.929 . S
H2272 C2286 0.930 . S
H2273 C2288 0.960 . S
H2274 C2288 0.960 . S
H2275 C2288 0.960 . S
C2276 H2268 0.929 . S
C2276 C2277 1.377 . S
C2276 C2278 1.384 . S
C2277 C2276 1.377 . S
C2277 C2283 1.390 . S
C2278 H2269 0.930 . S
C2278 C2276 1.384 . S
C2278 C2279 1.372 . S
C2279 C2278 1.372 . S
C2279 C2280 1.400 . S
C2279 C2284 1.490 . S
C2280 H2270 0.930 . S
C2280 C2279 1.400 . S
C2280 C2283 1.386 . S
H2281 C2297 0.930 . S
H2282 C2298 0.931 . S
C2283 H2271 0.929 . S
C2283 C2277 1.390 . S
C2283 C2280 1.386 . S
C2284 C2279 1.490 . S
C2284 C2286 1.395 . S
C2284 C2287 1.403 . S
H2285 C2291 0.930 . S
C2286 H2272 0.930 . S
C2286 C2284 1.395 . S
C2286 C2289 1.403 . S
C2287 C2284 1.403 . S
C2287 C2288 1.524 . S
C2287 C2291 1.400 . S
C2288 H2273 0.960 . S
C2288 H2274 0.960 . S
C2288 H2275 0.960 . S
C2288 C2287 1.524 . S
C2289 C2286 1.403 . S
C2289 C2290 1.392 . S
C2289 C2293 1.495 . S
C2290 C2289 1.392 . S
C2290 C2291 1.385 . S
C2290 C2292 1.478 . S
C2291 H2285 0.930 . S
C2291 C2287 1.400 . S
C2291 C2290 1.385 . S
C2292 C2290 1.478 . S
C2292 C2294 1.381 . S
C2292 C2298 1.383 . S
C2293 C2289 1.495 . S
C2293 H2299 0.959 . S
C2293 H2300 0.961 . S
C2293 H2301 0.960 . S
C2294 C2292 1.381 . S
C2294 C2295 1.394 . S
C2294 H2302 0.930 . S
C2295 C2294 1.394 . S
C2295 C2296 1.383 . S
C2295 H2303 0.929 . S
C2296 C2295 1.383 . S
C2296 C2297 1.377 . S
C2297 H2281 0.930 . S
C2297 C2296 1.377 . S
C2297 C2298 1.379 . S
C2298 H2282 0.931 . S
C2298 C2292 1.383 . S
C2298 C2297 1.379 . S
H2299 C2293 0.959 . S
H2300 C2293 0.961 . S
H2301 C2293 0.960 . S
H2302 C2294 0.930 . S
H2303 C2295 0.929 . S
H2304 C2312 0.929 . S
H2305 C2314 0.930 . S
H2306 C2316 0.930 . S
H2307 C2319 0.929 . S
H2308 C2322 0.930 . S
H2309 C2324 0.960 . S
H2310 C2324 0.960 . S
H2311 C2324 0.960 . S
C2312 H2304 0.929 . S
C2312 C2313 1.377 . S
C2312 C2314 1.384 . S
C2313 C2312 1.377 . S
C2313 C2319 1.390 . S
C2314 H2305 0.930 . S
C2314 C2312 1.384 . S
C2314 C2315 1.372 . S
C2315 C2314 1.372 . S
C2315 C2316 1.400 . S
C2315 C2320 1.490 . S
C2316 H2306 0.930 . S
C2316 C2315 1.400 . S
C2316 C2319 1.386 . S
H2317 C2333 0.930 . S
H2318 C2334 0.931 . S
C2319 H2307 0.929 . S
C2319 C2313 1.390 . S
C2319 C2316 1.386 . S
C2320 C2315 1.490 . S
C2320 C2322 1.395 . S
C2320 C2323 1.403 . S
H2321 C2327 0.930 . S
C2322 H2308 0.930 . S
C2322 C2320 1.395 . S
C2322 C2325 1.403 . S
C2323 C2320 1.403 . S
C2323 C2324 1.524 . S
C2323 C2327 1.400 . S
C2324 H2309 0.960 . S
C2324 H2310 0.960 . S
C2324 H2311 0.960 . S
C2324 C2323 1.524 . S
C2325 C2322 1.403 . S
C2325 C2326 1.392 . S
C2325 C2329 1.495 . S
C2326 C2325 1.392 . S
C2326 C2327 1.385 . S
C2326 C2328 1.478 . S
C2327 H2321 0.930 . S
C2327 C2323 1.400 . S
C2327 C2326 1.385 . S
C2328 C2326 1.478 . S
C2328 C2330 1.381 . S
C2328 C2334 1.383 . S
C2329 C2325 1.495 . S
C2329 H2335 0.959 . S
C2329 H2336 0.961 . S
C2329 H2337 0.960 . S
C2330 C2328 1.381 . S
C2330 C2331 1.394 . S
C2330 H2338 0.930 . S
C2331 C2330 1.394 . S
C2331 C2332 1.383 . S
C2331 H2339 0.929 . S
C2332 C2331 1.383 . S
C2332 C2333 1.377 . S
C2333 H2317 0.930 . S
C2333 C2332 1.377 . S
C2333 C2334 1.379 . S
C2334 H2318 0.931 . S
C2334 C2328 1.383 . S
C2334 C2333 1.379 . S
H2335 C2329 0.959 . S
H2336 C2329 0.961 . S
H2337 C2329 0.960 . S
H2338 C2330 0.930 . S
H2339 C2331 0.929 . S
H2340 C2348 0.929 . S
H2341 C2350 0.930 . S
H2342 C2352 0.930 . S
H2343 C2355 0.929 . S
H2344 C2358 0.930 . S
H2345 C2360 0.960 . S
H2346 C2360 0.960 . S
H2347 C2360 0.960 . S
C2348 H2340 0.929 . S
C2348 C2349 1.377 . S
C2348 C2350 1.384 . S
C2349 C2348 1.377 . S
C2349 C2355 1.390 . S
C2350 H2341 0.930 . S
C2350 C2348 1.384 . S
C2350 C2351 1.372 . S
C2351 C2350 1.372 . S
C2351 C2352 1.400 . S
C2351 C2356 1.490 . S
C2352 H2342 0.930 . S
C2352 C2351 1.400 . S
C2352 C2355 1.386 . S
H2353 C2369 0.930 . S
H2354 C2370 0.931 . S
C2355 H2343 0.929 . S
C2355 C2349 1.390 . S
C2355 C2352 1.386 . S
C2356 C2351 1.490 . S
C2356 C2358 1.395 . S
C2356 C2359 1.403 . S
H2357 C2363 0.930 . S
C2358 H2344 0.930 . S
C2358 C2356 1.395 . S
C2358 C2361 1.403 . S
C2359 C2356 1.403 . S
C2359 C2360 1.524 . S
C2359 C2363 1.400 . S
C2360 H2345 0.960 . S
C2360 H2346 0.960 . S
C2360 H2347 0.960 . S
C2360 C2359 1.524 . S
C2361 C2358 1.403 . S
C2361 C2362 1.392 . S
C2361 C2365 1.495 . S
C2362 C2361 1.392 . S
C2362 C2363 1.385 . S
C2362 C2364 1.478 . S
C2363 H2357 0.930 . S
C2363 C2359 1.400 . S
C2363 C2362 1.385 . S
C2364 C2362 1.478 . S
C2364 C2366 1.381 . S
C2364 C2370 1.383 . S
C2365 C2361 1.495 . S
C2365 H2371 0.959 . S
C2365 H2372 0.961 . S
C2365 H2373 0.960 . S
C2366 C2364 1.381 . S
C2366 C2367 1.394 . S
C2366 H2374 0.930 . S
C2367 C2366 1.394 . S
C2367 C2368 1.383 . S
C2367 H2375 0.929 . S
C2368 C2367 1.383 . S
C2368 C2369 1.377 . S
C2369 H2353 0.930 . S
C2369 C2368 1.377 . S
C2369 C2370 1.379 . S
C2370 H2354 0.931 . S
C2370 C2364 1.383 . S
C2370 C2369 1.379 . S
H2371 C2365 0.959 . S
H2372 C2365 0.961 . S
H2373 C2365 0.960 . S
H2374 C2366 0.930 . S
H2375 C2367 0.929 . S
H2376 C2384 0.929 . S
H2377 C2386 0.930 . S
H2378 C2388 0.930 . S
H2379 C2391 0.929 . S
H2380 C2394 0.909 1_565 S
H2381 C2396 0.960 . S
H2382 C2396 0.960 . S
H2383 C2396 0.960 . S
C2384 H2376 0.929 . S
C2384 C2385 1.377 . S
C2384 C2386 1.384 . S
C2385 C2384 1.377 . S
C2385 C2391 1.390 1_545 S
C2386 H2377 0.930 . S
C2386 C2384 1.384 . S
C2386 C2387 1.372 . S
C2387 C2386 1.372 . S
C2387 C2388 1.400 . S
C2387 C2392 1.490 . S
C2388 H2378 0.930 . S
C2388 C2387 1.400 . S
C2388 C2391 1.386 1_545 S
H2389 C2405 0.930 . S
H2390 C2406 0.931 . S
C2391 H2379 0.929 . S
C2391 C2385 1.390 1_565 S
C2391 C2388 1.386 1_565 S
C2392 C2387 1.490 . S
C2392 C2394 1.395 . S
C2392 C2395 1.403 . S
H2393 C2399 0.930 . S
C2394 H2380 0.909 1_545 S
C2394 C2392 1.395 . S
C2394 C2397 1.403 . S
C2395 C2392 1.403 . S
C2395 C2396 1.524 . S
C2395 C2399 1.400 . S
C2396 H2381 0.960 . S
C2396 H2382 0.960 . S
C2396 H2383 0.960 . S
C2396 C2395 1.524 . S
C2397 C2394 1.403 . S
C2397 C2398 1.392 . S
C2397 C2401 1.495 . S
C2398 C2397 1.392 . S
C2398 C2399 1.385 . S
C2398 C2400 1.478 . S
C2399 H2393 0.930 . S
C2399 C2395 1.400 . S
C2399 C2398 1.385 . S
C2400 C2398 1.478 . S
C2400 C2402 1.381 . S
C2400 C2406 1.383 . S
C2401 C2397 1.495 . S
C2401 H2407 0.959 1_545 S
C2401 H2408 0.961 1_545 S
C2401 H2409 0.960 . S
C2402 C2400 1.381 . S
C2402 C2403 1.394 . S
C2402 H2410 0.930 . S
C2403 C2402 1.394 . S
C2403 C2404 1.383 . S
C2403 H2411 0.929 . S
C2404 C2403 1.383 . S
C2404 C2405 1.377 . S
C2405 H2389 0.930 . S
C2405 C2404 1.377 . S
C2405 C2406 1.379 . S
C2406 H2390 0.931 . S
C2406 C2400 1.383 . S
C2406 C2405 1.379 . S
H2407 C2401 0.959 1_565 S
H2408 C2401 0.961 1_565 S
H2409 C2401 0.960 . S
H2410 C2402 0.930 . S
H2411 C2403 0.929 . S
H2412 C2420 0.929 . S
H2413 C2422 0.930 . S
H2414 C2424 0.930 . S
H2415 C2427 0.929 . S
H2416 C2430 0.930 . S
H2417 C2432 0.960 . S
H2418 C2432 0.960 . S
H2419 C2432 0.960 . S
C2420 H2412 0.929 . S
C2420 C2421 1.377 . S
C2420 C2422 1.384 . S
C2421 C2420 1.377 . S
C2421 C2427 1.390 . S
C2422 H2413 0.930 . S
C2422 C2420 1.384 . S
C2422 C2423 1.372 . S
C2423 C2422 1.372 . S
C2423 C2424 1.400 . S
C2423 C2428 1.490 . S
C2424 H2414 0.930 . S
C2424 C2423 1.400 . S
C2424 C2427 1.386 . S
H2425 C2441 0.930 . S
H2426 C2442 0.931 . S
C2427 H2415 0.929 . S
C2427 C2421 1.390 . S
C2427 C2424 1.386 . S
C2428 C2423 1.490 . S
C2428 C2430 1.395 . S
C2428 C2431 1.403 . S
H2429 C2435 0.930 . S
C2430 H2416 0.930 . S
C2430 C2428 1.395 . S
C2430 C2433 1.403 . S
C2431 C2428 1.403 . S
C2431 C2432 1.524 . S
C2431 C2435 1.400 . S
C2432 H2417 0.960 . S
C2432 H2418 0.960 . S
C2432 H2419 0.960 . S
C2432 C2431 1.524 . S
C2433 C2430 1.403 . S
C2433 C2434 1.392 . S
C2433 C2437 1.495 . S
C2434 C2433 1.392 . S
C2434 C2435 1.385 . S
C2434 C2436 1.478 . S
C2435 H2429 0.930 . S
C2435 C2431 1.400 . S
C2435 C2434 1.385 . S
C2436 C2434 1.478 . S
C2436 C2438 1.381 . S
C2436 C2442 1.383 . S
C2437 C2433 1.495 . S
C2437 H2443 0.959 . S
C2437 H2444 0.961 . S
C2437 H2445 0.960 . S
C2438 C2436 1.381 . S
C2438 C2439 1.394 . S
C2438 H2446 0.930 . S
C2439 C2438 1.394 . S
C2439 C2440 1.383 . S
C2439 H2447 0.929 . S
C2440 C2439 1.383 . S
C2440 C2441 1.377 . S
C2441 H2425 0.930 . S
C2441 C2440 1.377 . S
C2441 C2442 1.379 . S
C2442 H2426 0.931 . S
C2442 C2436 1.383 . S
C2442 C2441 1.379 . S
H2443 C2437 0.959 . S
H2444 C2437 0.961 . S
H2445 C2437 0.960 . S
H2446 C2438 0.930 . S
H2447 C2439 0.929 . S
H2448 C2456 0.929 . S
H2449 C2458 0.930 . S
H2450 C2460 0.930 . S
H2451 C2463 0.929 . S
H2452 C2466 0.930 . S
H2453 C2468 0.960 . S
H2454 C2468 0.960 . S
H2455 C2468 0.960 . S
C2456 H2448 0.929 . S
C2456 C2457 1.377 . S
C2456 C2458 1.384 . S
C2457 C2456 1.377 . S
C2457 C2463 1.390 . S
C2458 H2449 0.930 . S
C2458 C2456 1.384 . S
C2458 C2459 1.372 . S
C2459 C2458 1.372 . S
C2459 C2460 1.400 . S
C2459 C2464 1.490 . S
C2460 H2450 0.930 . S
C2460 C2459 1.400 . S
C2460 C2463 1.386 . S
H2461 C2477 0.930 . S
H2462 C2478 0.931 . S
C2463 H2451 0.929 . S
C2463 C2457 1.390 . S
C2463 C2460 1.386 . S
C2464 C2459 1.490 . S
C2464 C2466 1.395 . S
C2464 C2467 1.403 . S
H2465 C2471 0.930 . S
C2466 H2452 0.930 . S
C2466 C2464 1.395 . S
C2466 C2469 1.403 . S
C2467 C2464 1.403 . S
C2467 C2468 1.524 . S
C2467 C2471 1.400 . S
C2468 H2453 0.960 . S
C2468 H2454 0.960 . S
C2468 H2455 0.960 . S
C2468 C2467 1.524 . S
C2469 C2466 1.403 . S
C2469 C2470 1.392 . S
C2469 C2473 1.495 . S
C2470 C2469 1.392 . S
C2470 C2471 1.385 . S
C2470 C2472 1.478 . S
C2471 H2465 0.930 . S
C2471 C2467 1.400 . S
C2471 C2470 1.385 . S
C2472 C2470 1.478 . S
C2472 C2474 1.381 . S
C2472 C2478 1.383 . S
C2473 C2469 1.495 . S
C2473 H2479 0.959 . S
C2473 H2480 0.961 . S
C2473 H2481 0.960 . S
C2474 C2472 1.381 . S
C2474 C2475 1.394 . S
C2474 H2482 0.930 . S
C2475 C2474 1.394 . S
C2475 C2476 1.383 . S
C2475 H2483 0.929 . S
C2476 C2475 1.383 . S
C2476 C2477 1.377 . S
C2477 H2461 0.930 . S
C2477 C2476 1.377 . S
C2477 C2478 1.379 . S
C2478 H2462 0.931 . S
C2478 C2472 1.383 . S
C2478 C2477 1.379 . S
H2479 C2473 0.959 . S
H2480 C2473 0.961 . S
H2481 C2473 0.960 . S
H2482 C2474 0.930 . S
H2483 C2475 0.929 . S
H2484 C2492 0.929 . S
H2485 C2494 0.930 . S
H2486 C2496 0.930 . S
H2487 C2499 0.929 . S
H2488 C2502 0.930 . S
H2489 C2504 0.960 . S
H2490 C2504 0.960 . S
H2491 C2504 0.960 . S
C2492 H2484 0.929 . S
C2492 C2493 1.377 . S
C2492 C2494 1.384 . S
C2493 C2492 1.377 . S
C2493 C2499 1.390 . S
C2494 H2485 0.930 . S
C2494 C2492 1.384 . S
C2494 C2495 1.372 . S
C2495 C2494 1.372 . S
C2495 C2496 1.400 . S
C2495 C2500 1.490 . S
C2496 H2486 0.930 . S
C2496 C2495 1.400 . S
C2496 C2499 1.386 . S
H2497 C2513 0.930 . S
H2498 C2514 0.931 . S
C2499 H2487 0.929 . S
C2499 C2493 1.390 . S
C2499 C2496 1.386 . S
C2500 C2495 1.490 . S
C2500 C2502 1.395 . S
C2500 C2503 1.403 . S
H2501 C2507 0.930 . S
C2502 H2488 0.930 . S
C2502 C2500 1.395 . S
C2502 C2505 1.403 . S
C2503 C2500 1.403 . S
C2503 C2504 1.524 . S
C2503 C2507 1.400 . S
C2504 H2489 0.960 . S
C2504 H2490 0.960 . S
C2504 H2491 0.960 . S
C2504 C2503 1.524 . S
C2505 C2502 1.403 . S
C2505 C2506 1.392 . S
C2505 C2509 1.495 . S
C2506 C2505 1.392 . S
C2506 C2507 1.385 . S
C2506 C2508 1.478 . S
C2507 H2501 0.930 . S
C2507 C2503 1.400 . S
C2507 C2506 1.385 . S
C2508 C2506 1.478 . S
C2508 C2510 1.381 . S
C2508 C2514 1.383 . S
C2509 C2505 1.495 . S
C2509 H2515 0.959 . S
C2509 H2516 0.961 . S
C2509 H2517 0.960 . S
C2510 C2508 1.381 . S
C2510 C2511 1.394 . S
C2510 H2518 0.930 . S
C2511 C2510 1.394 . S
C2511 C2512 1.383 . S
C2511 H2519 0.929 . S
C2512 C2511 1.383 . S
C2512 C2513 1.377 . S
C2513 H2497 0.930 . S
C2513 C2512 1.377 . S
C2513 C2514 1.379 . S
C2514 H2498 0.931 . S
C2514 C2508 1.383 . S
C2514 C2513 1.379 . S
H2515 C2509 0.959 . S
H2516 C2509 0.961 . S
H2517 C2509 0.960 . S
H2518 C2510 0.930 . S
H2519 C2511 0.929 . S
H2520 C2528 0.929 . S
H2521 C2530 0.930 . S
H2522 C2532 0.930 . S
H2523 C2535 0.929 . S
H2524 C2538 0.930 . S
H2525 C2540 0.960 . S
H2526 C2540 0.960 . S
H2527 C2540 0.960 . S
C2528 H2520 0.929 . S
C2528 C2529 1.377 . S
C2528 C2530 1.384 . S
C2529 C2528 1.377 . S
C2529 C2535 1.390 . S
C2530 H2521 0.930 . S
C2530 C2528 1.384 . S
C2530 C2531 1.372 . S
C2531 C2530 1.372 . S
C2531 C2532 1.400 . S
C2531 C2536 1.490 . S
C2532 H2522 0.930 . S
C2532 C2531 1.400 . S
C2532 C2535 1.386 . S
H2533 C2549 0.930 . S
H2534 C2550 0.931 . S
C2535 H2523 0.929 . S
C2535 C2529 1.390 . S
C2535 C2532 1.386 . S
C2536 C2531 1.490 . S
C2536 C2538 1.395 . S
C2536 C2539 1.403 . S
H2537 C2543 0.930 . S
C2538 H2524 0.930 . S
C2538 C2536 1.395 . S
C2538 C2541 1.403 . S
C2539 C2536 1.403 . S
C2539 C2540 1.524 . S
C2539 C2543 1.400 . S
C2540 H2525 0.960 . S
C2540 H2526 0.960 . S
C2540 H2527 0.960 . S
C2540 C2539 1.524 . S
C2541 C2538 1.403 . S
C2541 C2542 1.392 . S
C2541 C2545 1.495 . S
C2542 C2541 1.392 . S
C2542 C2543 1.385 . S
C2542 C2544 1.478 . S
C2543 H2537 0.930 . S
C2543 C2539 1.400 . S
C2543 C2542 1.385 . S
C2544 C2542 1.478 . S
C2544 C2546 1.381 . S
C2544 C2550 1.383 . S
C2545 C2541 1.495 . S
C2545 H2551 0.959 . S
C2545 H2552 0.961 . S
C2545 H2553 0.960 . S
C2546 C2544 1.381 . S
C2546 C2547 1.394 . S
C2546 H2554 0.930 . S
C2547 C2546 1.394 . S
C2547 C2548 1.383 . S
C2547 H2555 0.929 . S
C2548 C2547 1.383 . S
C2548 C2549 1.377 . S
C2549 H2533 0.930 . S
C2549 C2548 1.377 . S
C2549 C2550 1.379 . S
C2550 H2534 0.931 . S
C2550 C2544 1.383 . S
C2550 C2549 1.379 . S
H2551 C2545 0.959 . S
H2552 C2545 0.961 . S
H2553 C2545 0.960 . S
H2554 C2546 0.930 . S
H2555 C2547 0.929 . S
H2556 C2564 0.929 . S
H2557 C2566 0.930 . S
H2558 C2568 0.930 . S
H2559 C2571 0.929 . S
H2560 C2574 0.930 . S
H2561 C2576 0.960 . S
H2562 C2576 0.960 . S
H2563 C2576 0.960 . S
C2564 H2556 0.929 . S
C2564 C2565 1.377 . S
C2564 C2566 1.384 . S
C2565 C2564 1.377 . S
C2565 C2571 1.390 . S
C2566 H2557 0.930 . S
C2566 C2564 1.384 . S
C2566 C2567 1.372 . S
C2567 C2566 1.372 . S
C2567 C2568 1.400 . S
C2567 C2572 1.490 . S
C2568 H2558 0.930 . S
C2568 C2567 1.400 . S
C2568 C2571 1.386 . S
H2569 C2585 0.930 . S
H2570 C2586 0.931 . S
C2571 H2559 0.929 . S
C2571 C2565 1.390 . S
C2571 C2568 1.386 . S
C2572 C2567 1.490 . S
C2572 C2574 1.395 . S
C2572 C2575 1.403 . S
H2573 C2579 0.930 . S
C2574 H2560 0.930 . S
C2574 C2572 1.395 . S
C2574 C2577 1.403 . S
C2575 C2572 1.403 . S
C2575 C2576 1.524 . S
C2575 C2579 1.400 . S
C2576 H2561 0.960 . S
C2576 H2562 0.960 . S
C2576 H2563 0.960 . S
C2576 C2575 1.524 . S
C2577 C2574 1.403 . S
C2577 C2578 1.392 . S
C2577 C2581 1.495 . S
C2578 C2577 1.392 . S
C2578 C2579 1.385 . S
C2578 C2580 1.478 . S
C2579 H2573 0.930 . S
C2579 C2575 1.400 . S
C2579 C2578 1.385 . S
C2580 C2578 1.478 . S
C2580 C2582 1.381 . S
C2580 C2586 1.383 . S
C2581 C2577 1.495 . S
C2581 H2587 0.959 1_554 S
C2581 H2588 0.964 . S
C2581 H2589 0.960 . S
C2582 C2580 1.381 . S
C2582 C2583 1.394 . S
C2582 H2590 0.930 . S
C2583 C2582 1.394 . S
C2583 C2584 1.383 . S
C2583 H2591 0.929 . S
C2584 C2583 1.383 . S
C2584 C2585 1.377 . S
C2585 H2569 0.930 . S
C2585 C2584 1.377 . S
C2585 C2586 1.379 . S
C2586 H2570 0.931 . S
C2586 C2580 1.383 . S
C2586 C2585 1.379 . S
H2587 C2581 0.959 1_556 S
H2588 C2581 0.964 . S
H2589 C2581 0.960 . S
H2590 C2582 0.930 . S
H2591 C2583 0.929 . S
H2592 C2600 0.929 . S
H2593 C2602 0.930 . S
H2594 C2604 0.964 . S
H2595 C2607 0.929 1_565 S
H2596 C2610 0.930 . S
H2597 C2612 0.960 1_565 S
H2598 C2612 0.960 . S
H2599 C2612 0.960 1_565 S
C2600 H2592 0.929 . S
C2600 C2601 1.377 . S
C2600 C2602 1.384 . S
C2601 C2600 1.377 . S
C2601 C2607 1.390 . S
C2602 H2593 0.930 . S
C2602 C2600 1.384 . S
C2602 C2603 1.372 . S
C2603 C2602 1.372 . S
C2603 C2604 1.400 . S
C2603 C2608 1.490 . S
C2604 H2594 0.964 . S
C2604 C2603 1.400 . S
C2604 C2607 1.386 . S
H2605 C2621 0.930 . S
H2606 C2622 0.931 . S
C2607 H2595 0.929 1_545 S
C2607 C2601 1.390 . S
C2607 C2604 1.386 . S
C2608 C2603 1.490 . S
C2608 C2610 1.395 . S
C2608 C2611 1.403 . S
H2609 C2615 0.930 . S
C2610 H2596 0.930 . S
C2610 C2608 1.395 . S
C2610 C2613 1.403 . S
C2611 C2608 1.403 . S
C2611 C2612 1.524 . S
C2611 C2615 1.400 . S
C2612 H2597 0.960 1_545 S
C2612 H2598 0.960 . S
C2612 H2599 0.960 1_545 S
C2612 C2611 1.524 . S
C2613 C2610 1.403 . S
C2613 C2614 1.392 . S
C2613 C2617 1.495 . S
C2614 C2613 1.392 . S
C2614 C2615 1.385 . S
C2614 C2616 1.478 . S
C2615 H2609 0.930 . S
C2615 C2611 1.400 . S
C2615 C2614 1.385 . S
C2616 C2614 1.478 . S
C2616 C2618 1.381 . S
C2616 C2622 1.383 . S
C2617 C2613 1.495 . S
C2617 H2623 0.959 . S
C2617 H2624 0.961 . S
C2617 H2625 0.960 . S
C2618 C2616 1.381 . S
C2618 C2619 1.394 . S
C2618 H2626 0.930 . S
C2619 C2618 1.394 . S
C2619 C2620 1.383 . S
C2619 H2627 0.929 . S
C2620 C2619 1.383 . S
C2620 C2621 1.377 . S
C2621 H2605 0.930 . S
C2621 C2620 1.377 . S
C2621 C2622 1.379 . S
C2622 H2606 0.931 . S
C2622 C2616 1.383 . S
C2622 C2621 1.379 . S
H2623 C2617 0.959 . S
H2624 C2617 0.961 . S
H2625 C2617 0.960 . S
H2626 C2618 0.930 . S
H2627 C2619 0.929 . S
H2628 C2636 0.929 . S
H2629 C2638 0.930 . S
H2630 C2640 0.930 . S
H2631 C2643 0.929 . S
H2632 C2646 0.930 . S
H2633 C2648 0.960 . S
H2634 C2648 0.960 . S
H2635 C2648 0.960 . S
C2636 H2628 0.929 . S
C2636 C2637 1.377 . S
C2636 C2638 1.384 . S
C2637 C2636 1.377 . S
C2637 C2643 1.390 . S
C2638 H2629 0.930 . S
C2638 C2636 1.384 . S
C2638 C2639 1.372 . S
C2639 C2638 1.372 . S
C2639 C2640 1.400 . S
C2639 C2644 1.490 . S
C2640 H2630 0.930 . S
C2640 C2639 1.400 . S
C2640 C2643 1.386 . S
H2641 C2657 0.930 . S
H2642 C2658 0.931 . S
C2643 H2631 0.929 . S
C2643 C2637 1.390 . S
C2643 C2640 1.386 . S
C2644 C2639 1.490 . S
C2644 C2646 1.395 . S
C2644 C2647 1.403 . S
H2645 C2651 0.930 . S
C2646 H2632 0.930 . S
C2646 C2644 1.395 . S
C2646 C2649 1.403 . S
C2647 C2644 1.403 . S
C2647 C2648 1.524 . S
C2647 C2651 1.400 . S
C2648 H2633 0.960 . S
C2648 H2634 0.960 . S
C2648 H2635 0.960 . S
C2648 C2647 1.524 . S
C2649 C2646 1.403 . S
C2649 C2650 1.392 . S
C2649 C2653 1.495 . S
C2650 C2649 1.392 . S
C2650 C2651 1.385 . S
C2650 C2652 1.478 . S
C2651 H2645 0.930 . S
C2651 C2647 1.400 . S
C2651 C2650 1.385 . S
C2652 C2650 1.478 . S
C2652 C2654 1.381 . S
C2652 C2658 1.383 . S
C2653 C2649 1.495 . S
C2653 H2659 0.959 . S
C2653 H2660 0.961 . S
C2653 H2661 0.960 . S
C2654 C2652 1.381 . S
C2654 C2655 1.394 . S
C2654 H2662 0.930 . S
C2655 C2654 1.394 . S
C2655 C2656 1.383 . S
C2655 H2663 0.929 . S
C2656 C2655 1.383 . S
C2656 C2657 1.377 . S
C2657 H2641 0.930 . S
C2657 C2656 1.377 . S
C2657 C2658 1.379 . S
C2658 H2642 0.931 . S
C2658 C2652 1.383 . S
C2658 C2657 1.379 . S
H2659 C2653 0.959 . S
H2660 C2653 0.961 . S
H2661 C2653 0.960 . S
H2662 C2654 0.930 . S
H2663 C2655 0.929 . S
H2664 C2672 0.929 . S
H2665 C2674 0.930 . S
H2666 C2676 0.930 . S
H2667 C2679 0.929 . S
H2668 C2682 0.930 . S
H2669 C2684 0.960 . S
H2670 C2684 0.960 . S
H2671 C2684 0.960 . S
C2672 H2664 0.929 . S
C2672 C2673 1.377 . S
C2672 C2674 1.384 . S
C2673 C2672 1.377 . S
C2673 C2679 1.390 . S
C2674 H2665 0.930 . S
C2674 C2672 1.384 . S
C2674 C2675 1.372 . S
C2675 C2674 1.372 . S
C2675 C2676 1.400 . S
C2675 C2680 1.490 . S
C2676 H2666 0.930 . S
C2676 C2675 1.400 . S
C2676 C2679 1.386 . S
H2677 C2693 0.930 . S
H2678 C2694 0.931 . S
C2679 H2667 0.929 . S
C2679 C2673 1.390 . S
C2679 C2676 1.386 . S
C2680 C2675 1.490 . S
C2680 C2682 1.395 . S
C2680 C2683 1.403 . S
H2681 C2687 0.930 . S
C2682 H2668 0.930 . S
C2682 C2680 1.395 . S
C2682 C2685 1.403 . S
C2683 C2680 1.403 . S
C2683 C2684 1.524 . S
C2683 C2687 1.400 . S
C2684 H2669 0.960 . S
C2684 H2670 0.960 . S
C2684 H2671 0.960 . S
C2684 C2683 1.524 . S
C2685 C2682 1.403 . S
C2685 C2686 1.392 . S
C2685 C2689 1.495 . S
C2686 C2685 1.392 . S
C2686 C2687 1.385 . S
C2686 C2688 1.478 . S
C2687 H2681 0.930 . S
C2687 C2683 1.400 . S
C2687 C2686 1.385 . S
C2688 C2686 1.478 . S
C2688 C2690 1.381 . S
C2688 C2694 1.383 . S
C2689 C2685 1.495 . S
C2689 H2695 0.959 . S
C2689 H2696 0.961 . S
C2689 H2697 0.960 . S
C2690 C2688 1.381 . S
C2690 C2691 1.394 . S
C2690 H2698 0.930 . S
C2691 C2690 1.394 . S
C2691 C2692 1.383 . S
C2691 H2699 0.929 . S
C2692 C2691 1.383 . S
C2692 C2693 1.377 . S
C2693 H2677 0.930 . S
C2693 C2692 1.377 . S
C2693 C2694 1.379 . S
C2694 H2678 0.931 . S
C2694 C2688 1.383 . S
C2694 C2693 1.379 . S
H2695 C2689 0.959 . S
H2696 C2689 0.961 . S
H2697 C2689 0.960 . S
H2698 C2690 0.930 . S
H2699 C2691 0.929 . S
H2700 C2708 0.929 . S
H2701 C2710 0.930 . S
H2702 C2712 0.930 . S
H2703 C2715 0.929 . S
H2704 C2718 0.930 . S
H2705 C2720 0.960 . S
H2706 C2720 0.960 . S
H2707 C2720 0.960 . S
C2708 H2700 0.929 . S
C2708 C2709 1.377 . S
C2708 C2710 1.384 . S
C2709 C2708 1.377 . S
C2709 C2715 1.390 . S
C2710 H2701 0.930 . S
C2710 C2708 1.384 . S
C2710 C2711 1.372 . S
C2711 C2710 1.372 . S
C2711 C2712 1.400 . S
C2711 C2716 1.490 . S
C2712 H2702 0.930 . S
C2712 C2711 1.400 . S
C2712 C2715 1.386 . S
H2713 C2729 0.930 . S
H2714 C2730 0.931 . S
C2715 H2703 0.929 . S
C2715 C2709 1.390 . S
C2715 C2712 1.386 . S
C2716 C2711 1.490 . S
C2716 C2718 1.395 . S
C2716 C2719 1.403 . S
H2717 C2723 0.930 . S
C2718 H2704 0.930 . S
C2718 C2716 1.395 . S
C2718 C2721 1.403 . S
C2719 C2716 1.403 . S
C2719 C2720 1.524 . S
C2719 C2723 1.400 . S
C2720 H2705 0.960 . S
C2720 H2706 0.960 . S
C2720 H2707 0.960 . S
C2720 C2719 1.524 . S
C2721 C2718 1.403 . S
C2721 C2722 1.392 . S
C2721 C2725 1.495 . S
C2722 C2721 1.392 . S
C2722 C2723 1.385 . S
C2722 C2724 1.478 . S
C2723 H2717 0.930 . S
C2723 C2719 1.400 . S
C2723 C2722 1.385 . S
C2724 C2722 1.478 . S
C2724 C2726 1.381 . S
C2724 C2730 1.383 . S
C2725 C2721 1.495 . S
C2725 H2731 0.959 . S
C2725 H2732 0.961 . S
C2725 H2733 0.960 . S
C2726 C2724 1.381 . S
C2726 C2727 1.394 . S
C2726 H2734 0.930 . S
C2727 C2726 1.394 . S
C2727 C2728 1.383 . S
C2727 H2735 0.929 . S
C2728 C2727 1.383 . S
C2728 C2729 1.377 . S
C2729 H2713 0.930 . S
C2729 C2728 1.377 . S
C2729 C2730 1.379 . S
C2730 H2714 0.931 . S
C2730 C2724 1.383 . S
C2730 C2729 1.379 . S
H2731 C2725 0.959 . S
H2732 C2725 0.961 . S
H2733 C2725 0.960 . S
H2734 C2726 0.930 . S
H2735 C2727 0.929 . S
H2736 C2744 0.929 . S
H2737 C2746 0.930 . S
H2738 C2748 0.930 . S
H2739 C2751 0.929 . S
H2740 C2754 0.930 . S
H2741 C2756 0.960 . S
H2742 C2756 0.960 . S
H2743 C2756 0.960 . S
C2744 H2736 0.929 . S
C2744 C2745 1.377 . S
C2744 C2746 1.384 . S
C2745 C2744 1.377 . S
C2745 C2751 1.390 . S
C2746 H2737 0.930 . S
C2746 C2744 1.384 . S
C2746 C2747 1.372 . S
C2747 C2746 1.372 . S
C2747 C2748 1.400 . S
C2747 C2752 1.490 . S
C2748 H2738 0.930 . S
C2748 C2747 1.400 . S
C2748 C2751 1.386 . S
H2749 C2765 0.930 . S
H2750 C2766 0.931 . S
C2751 H2739 0.929 . S
C2751 C2745 1.390 . S
C2751 C2748 1.386 . S
C2752 C2747 1.490 . S
C2752 C2754 1.395 . S
C2752 C2755 1.403 . S
H2753 C2759 0.930 . S
C2754 H2740 0.930 . S
C2754 C2752 1.395 . S
C2754 C2757 1.403 . S
C2755 C2752 1.403 . S
C2755 C2756 1.524 . S
C2755 C2759 1.400 . S
C2756 H2741 0.960 . S
C2756 H2742 0.960 . S
C2756 H2743 0.960 . S
C2756 C2755 1.524 . S
C2757 C2754 1.403 . S
C2757 C2758 1.392 . S
C2757 C2761 1.495 . S
C2758 C2757 1.392 . S
C2758 C2759 1.385 . S
C2758 C2760 1.478 . S
C2759 H2753 0.930 . S
C2759 C2755 1.400 . S
C2759 C2758 1.385 . S
C2760 C2758 1.478 . S
C2760 C2762 1.381 . S
C2760 C2766 1.383 . S
C2761 C2757 1.495 . S
C2761 H2767 0.959 . S
C2761 H2768 0.961 . S
C2761 H2769 0.960 . S
C2762 C2760 1.381 . S
C2762 C2763 1.394 . S
C2762 H2770 0.930 . S
C2763 C2762 1.394 . S
C2763 C2764 1.383 . S
C2763 H2771 0.929 . S
C2764 C2763 1.383 . S
C2764 C2765 1.377 . S
C2765 H2749 0.930 . S
C2765 C2764 1.377 . S
C2765 C2766 1.379 . S
C2766 H2750 0.931 . S
C2766 C2760 1.383 . S
C2766 C2765 1.379 . S
H2767 C2761 0.959 . S
H2768 C2761 0.961 . S
H2769 C2761 0.960 . S
H2770 C2762 0.930 . S
H2771 C2763 0.929 . S
H2772 C2780 0.929 . S
H2773 C2782 0.930 . S
H2774 C2784 0.930 . S
H2775 C2787 0.929 . S
H2776 C2790 0.930 . S
H2777 C2792 0.960 . S
H2778 C2792 0.960 . S
H2779 C2792 0.960 . S
C2780 H2772 0.929 . S
C2780 C2781 1.377 . S
C2780 C2782 1.384 . S
C2781 C2780 1.377 . S
C2781 C2787 1.390 . S
C2782 H2773 0.930 . S
C2782 C2780 1.384 . S
C2782 C2783 1.372 . S
C2783 C2782 1.372 . S
C2783 C2784 1.400 . S
C2783 C2788 1.490 . S
C2784 H2774 0.930 . S
C2784 C2783 1.400 . S
C2784 C2787 1.386 . S
H2785 C2801 0.930 . S
H2786 C2802 0.931 . S
C2787 H2775 0.929 . S
C2787 C2781 1.390 . S
C2787 C2784 1.386 . S
C2788 C2783 1.490 . S
C2788 C2790 1.395 . S
C2788 C2791 1.403 . S
H2789 C2795 0.930 . S
C2790 H2776 0.930 . S
C2790 C2788 1.395 . S
C2790 C2793 1.403 . S
C2791 C2788 1.403 . S
C2791 C2792 1.524 . S
C2791 C2795 1.400 . S
C2792 H2777 0.960 . S
C2792 H2778 0.960 . S
C2792 H2779 0.960 . S
C2792 C2791 1.524 . S
C2793 C2790 1.403 . S
C2793 C2794 1.392 . S
C2793 C2797 1.495 . S
C2794 C2793 1.392 . S
C2794 C2795 1.385 . S
C2794 C2796 1.478 . S
C2795 H2789 0.930 . S
C2795 C2791 1.400 . S
C2795 C2794 1.385 . S
C2796 C2794 1.478 . S
C2796 C2798 1.381 . S
C2796 C2802 1.383 . S
C2797 C2793 1.495 . S
C2797 H2803 0.959 . S
C2797 H2804 0.961 . S
C2797 H2805 0.960 . S
C2798 C2796 1.381 . S
C2798 C2799 1.394 . S
C2798 H2806 0.930 . S
C2799 C2798 1.394 . S
C2799 C2800 1.383 . S
C2799 H2807 0.929 . S
C2800 C2799 1.383 . S
C2800 C2801 1.377 . S
C2801 H2785 0.930 . S
C2801 C2800 1.377 . S
C2801 C2802 1.379 . S
C2802 H2786 0.931 . S
C2802 C2796 1.383 . S
C2802 C2801 1.379 . S
H2803 C2797 0.959 . S
H2804 C2797 0.961 . S
H2805 C2797 0.960 . S
H2806 C2798 0.930 . S
H2807 C2799 0.929 . S
H2808 C2816 0.929 . S
H2809 C2818 0.930 . S
H2810 C2820 0.930 . S
H2811 C2823 0.929 . S
H2812 C2826 0.930 . S
H2813 C2828 0.960 . S
H2814 C2828 0.960 . S
H2815 C2828 0.960 . S
C2816 H2808 0.929 . S
C2816 C2817 1.377 . S
C2816 C2818 1.384 . S
C2817 C2816 1.377 . S
C2817 C2823 1.390 . S
C2818 H2809 0.930 . S
C2818 C2816 1.384 . S
C2818 C2819 1.372 . S
C2819 C2818 1.372 . S
C2819 C2820 1.400 . S
C2819 C2824 1.490 . S
C2820 H2810 0.930 . S
C2820 C2819 1.400 . S
C2820 C2823 1.386 . S
H2821 C2837 0.930 . S
H2822 C2838 0.931 . S
C2823 H2811 0.929 . S
C2823 C2817 1.390 . S
C2823 C2820 1.386 . S
C2824 C2819 1.490 . S
C2824 C2826 1.395 . S
C2824 C2827 1.403 . S
H2825 C2831 0.930 . S
C2826 H2812 0.930 . S
C2826 C2824 1.395 . S
C2826 C2829 1.403 . S
C2827 C2824 1.403 . S
C2827 C2828 1.524 . S
C2827 C2831 1.400 . S
C2828 H2813 0.960 . S
C2828 H2814 0.960 . S
C2828 H2815 0.960 . S
C2828 C2827 1.524 . S
C2829 C2826 1.403 . S
C2829 C2830 1.392 . S
C2829 C2833 1.495 . S
C2830 C2829 1.392 . S
C2830 C2831 1.385 . S
C2830 C2832 1.478 . S
C2831 H2825 0.930 . S
C2831 C2827 1.400 . S
C2831 C2830 1.385 . S
C2832 C2830 1.478 . S
C2832 C2834 1.381 . S
C2832 C2838 1.383 . S
C2833 C2829 1.495 . S
C2833 H2839 0.959 1_455 S
C2833 H2840 0.966 . S
C2833 H2841 0.960 1_455 S
C2834 C2832 1.381 . S
C2834 C2835 1.394 . S
C2834 H2842 0.930 . S
C2835 C2834 1.394 . S
C2835 C2836 1.383 . S
C2835 H2843 0.929 . S
C2836 C2835 1.383 . S
C2836 C2837 1.377 . S
C2837 H2821 0.930 . S
C2837 C2836 1.377 . S
C2837 C2838 1.379 . S
C2838 H2822 0.931 . S
C2838 C2832 1.383 . S
C2838 C2837 1.379 . S
H2839 C2833 0.959 1_655 S
H2840 C2833 0.966 . S
H2841 C2833 0.960 1_655 S
H2842 C2834 0.930 . S
H2843 C2835 0.929 . S
H2844 C2852 0.929 . S
H2845 C2854 0.930 . S
H2846 C2856 0.930 . S
H2847 C2859 0.929 . S
H2848 C2862 0.930 . S
H2849 C2864 0.960 . S
H2850 C2864 0.960 . S
H2851 C2864 0.960 . S
C2852 H2844 0.929 . S
C2852 C2853 1.377 . S
C2852 C2854 1.384 . S
C2853 C2852 1.377 . S
C2853 C2859 1.390 . S
C2854 H2845 0.930 . S
C2854 C2852 1.384 . S
C2854 C2855 1.372 . S
C2855 C2854 1.372 . S
C2855 C2856 1.400 . S
C2855 C2860 1.490 . S
C2856 H2846 0.930 . S
C2856 C2855 1.400 . S
C2856 C2859 1.386 . S
H2857 C2873 0.930 . S
H2858 C2874 0.931 . S
C2859 H2847 0.929 . S
C2859 C2853 1.390 . S
C2859 C2856 1.386 . S
C2860 C2855 1.490 . S
C2860 C2862 1.395 . S
C2860 C2863 1.403 . S
H2861 C2867 0.930 . S
C2862 H2848 0.930 . S
C2862 C2860 1.395 . S
C2862 C2865 1.403 . S
C2863 C2860 1.403 . S
C2863 C2864 1.524 . S
C2863 C2867 1.400 . S
C2864 H2849 0.960 . S
C2864 H2850 0.960 . S
C2864 H2851 0.960 . S
C2864 C2863 1.524 . S
C2865 C2862 1.403 . S
C2865 C2866 1.392 . S
C2865 C2869 1.495 . S
C2866 C2865 1.392 . S
C2866 C2867 1.385 . S
C2866 C2868 1.478 . S
C2867 H2861 0.930 . S
C2867 C2863 1.400 . S
C2867 C2866 1.385 . S
C2868 C2866 1.478 . S
C2868 C2870 1.381 . S
C2868 C2874 1.383 . S
C2869 C2865 1.495 . S
C2869 H2875 0.959 . S
C2869 H2876 0.961 . S
C2869 H2877 0.960 . S
C2870 C2868 1.381 . S
C2870 C2871 1.394 . S
C2870 H2878 0.930 . S
C2871 C2870 1.394 . S
C2871 C2872 1.383 . S
C2871 H2879 0.929 . S
C2872 C2871 1.383 . S
C2872 C2873 1.377 . S
C2873 H2857 0.930 . S
C2873 C2872 1.377 . S
C2873 C2874 1.379 . S
C2874 H2858 0.931 . S
C2874 C2868 1.383 . S
C2874 C2873 1.379 . S
H2875 C2869 0.959 . S
H2876 C2869 0.961 . S
H2877 C2869 0.960 . S
H2878 C2870 0.930 . S
H2879 C2871 0.929 . S
H2880 C2888 0.929 . S
H2881 C2890 0.930 . S
H2882 C2892 0.930 . S
H2883 C2895 0.929 . S
H2884 C2898 0.930 . S
H2885 C2900 0.960 . S
H2886 C2900 0.960 . S
H2887 C2900 0.960 . S
C2888 H2880 0.929 . S
C2888 C2889 1.377 . S
C2888 C2890 1.384 . S
C2889 C2888 1.377 . S
C2889 C2895 1.390 . S
C2890 H2881 0.930 . S
C2890 C2888 1.384 . S
C2890 C2891 1.372 . S
C2891 C2890 1.372 . S
C2891 C2892 1.400 . S
C2891 C2896 1.490 . S
C2892 H2882 0.930 . S
C2892 C2891 1.400 . S
C2892 C2895 1.386 . S
H2893 C2909 0.930 . S
H2894 C2910 0.931 . S
C2895 H2883 0.929 . S
C2895 C2889 1.390 . S
C2895 C2892 1.386 . S
C2896 C2891 1.490 . S
C2896 C2898 1.395 . S
C2896 C2899 1.403 . S
H2897 C2903 0.930 . S
C2898 H2884 0.930 . S
C2898 C2896 1.395 . S
C2898 C2901 1.403 . S
C2899 C2896 1.403 . S
C2899 C2900 1.524 . S
C2899 C2903 1.400 . S
C2900 H2885 0.960 . S
C2900 H2886 0.960 . S
C2900 H2887 0.960 . S
C2900 C2899 1.524 . S
C2901 C2898 1.403 . S
C2901 C2902 1.392 . S
C2901 C2905 1.495 . S
C2902 C2901 1.392 . S
C2902 C2903 1.385 . S
C2902 C2904 1.478 . S
C2903 H2897 0.930 . S
C2903 C2899 1.400 . S
C2903 C2902 1.385 . S
C2904 C2902 1.478 . S
C2904 C2906 1.381 . S
C2904 C2910 1.383 . S
C2905 C2901 1.495 . S
C2905 H2911 0.959 . S
C2905 H2912 0.961 . S
C2905 H2913 0.960 . S
C2906 C2904 1.381 . S
C2906 C2907 1.394 . S
C2906 H2914 0.930 . S
C2907 C2906 1.394 . S
C2907 C2908 1.383 . S
C2907 H2915 0.929 . S
C2908 C2907 1.383 . S
C2908 C2909 1.377 . S
C2909 H2893 0.930 . S
C2909 C2908 1.377 . S
C2909 C2910 1.379 . S
C2910 H2894 0.931 . S
C2910 C2904 1.383 . S
C2910 C2909 1.379 . S
H2911 C2905 0.959 . S
H2912 C2905 0.961 . S
H2913 C2905 0.960 . S
H2914 C2906 0.930 . S
H2915 C2907 0.929 . S
H2916 C2924 0.929 . S
H2917 C2926 0.930 . S
H2918 C2928 0.930 . S
H2919 C2931 0.929 1_655 S
H2920 C2934 0.930 . S
H2921 C2936 0.960 . S
H2922 C2936 0.960 . S
H2923 C2936 0.960 . S
C2924 H2916 0.929 . S
C2924 C2925 1.377 . S
C2924 C2926 1.384 . S
C2925 C2924 1.377 . S
C2925 C2931 1.390 . S
C2926 H2917 0.930 . S
C2926 C2924 1.384 . S
C2926 C2927 1.372 . S
C2927 C2926 1.372 . S
C2927 C2928 1.400 . S
C2927 C2932 1.490 . S
C2928 H2918 0.930 . S
C2928 C2927 1.400 . S
C2928 C2931 1.386 . S
H2929 C2945 0.930 . S
H2930 C2946 0.931 . S
C2931 H2919 0.929 1_455 S
C2931 C2925 1.390 . S
C2931 C2928 1.386 . S
C2932 C2927 1.490 . S
C2932 C2934 1.395 . S
C2932 C2935 1.403 . S
H2933 C2939 0.930 . S
C2934 H2920 0.930 . S
C2934 C2932 1.395 . S
C2934 C2937 1.403 . S
C2935 C2932 1.403 . S
C2935 C2936 1.524 1_455 S
C2935 C2939 1.400 . S
C2936 H2921 0.960 . S
C2936 H2922 0.960 . S
C2936 H2923 0.960 . S
C2936 C2935 1.524 1_655 S
C2937 C2934 1.403 . S
C2937 C2938 1.392 . S
C2937 C2941 1.495 . S
C2938 C2937 1.392 . S
C2938 C2939 1.385 . S
C2938 C2940 1.478 . S
C2939 H2933 0.930 . S
C2939 C2935 1.400 . S
C2939 C2938 1.385 . S
C2940 C2938 1.478 . S
C2940 C2942 1.381 . S
C2940 C2946 1.383 . S
C2941 C2937 1.495 . S
C2941 H2947 0.959 . S
C2941 H2948 0.961 . S
C2941 H2949 0.960 . S
C2942 C2940 1.381 . S
C2942 C2943 1.394 . S
C2942 H2950 0.930 . S
C2943 C2942 1.394 . S
C2943 C2944 1.383 . S
C2943 H2951 0.929 . S
C2944 C2943 1.383 . S
C2944 C2945 1.377 . S
C2945 H2929 0.930 . S
C2945 C2944 1.377 . S
C2945 C2946 1.379 . S
C2946 H2930 0.931 . S
C2946 C2940 1.383 . S
C2946 C2945 1.379 . S
H2947 C2941 0.959 . S
H2948 C2941 0.961 . S
H2949 C2941 0.960 . S
H2950 C2942 0.930 . S
H2951 C2943 0.929 . S
C801 C21 0.520 . S
C820 C681 0.465 . S
C837 C582 0.533 . S
C856 C54 0.605 1_554 S
C873 C615 0.512 . S
C892 C87 0.553 . S
C909 C648 0.527 . S
C928 C120 0.609 . S
C945 C153 0.512 . S
C964 C780 0.528 . S
C981 C714 0.534 . S
C1000 C186 0.449 . S
C1017 C747 0.515 1_455 S
C1036 C219 0.590 . S
C1053 C549 0.541 . S
C1072 C252 0.583 . S
C1089 C285 0.537 . S
C1108 C516 0.455 . S
C1125 C417 0.514 . S
C1144 C318 0.580 . S
C1161 C351 0.545 . S
C1180 C450 0.522 1_545 S
C1197 C483 0.545 . S
C1216 C384 0.544 . S
C1233 C634 1.204 . S
C1252 N13 1.072 . S
C1269 N46 1.010 . S
C1288 C667 1.191 . S
C1305 C568 1.204 . S
C1324 N79 1.032 . S
C1341 N112 1.037 . S
C1360 C601 1.211 . S
C1377 C700 1.202 . S
C1396 N145 1.068 . S
C1413 C733 1.200 . S
C1432 N178 0.955 . S
C1449 C535 1.200 1_556 S
C1468 N211 1.004 1_655 S
C1485 N244 1.037 . S
C1504 C766 1.207 . S
C1521 N277 1.009 . S
C1540 C73 1.189 . S
C1557 N310 1.024 . S
C1576 C106 1.207 . S
C1593 N343 1.010 1_565 S
C1612 C7 1.190 1_655 S
C1629 C40 1.204 . S
C1648 N376 1.089 . S
C1665 N409 1.036 . S
C1684 C205 1.205 . S
C1701 C238 1.201 . S
C1720 N442 0.974 . S
C1737 C139 1.204 . S
C1756 N475 1.046 . S
C1773 C172 1.200 . S
C1792 N508 0.960 . S
C1809 C403 1.201 . S
C1828 N541 0.972 . S
C1845 C271 1.202 1_565 S
C1864 N574 1.053 1_556 S
C1881 N607 1.038 . S
C1900 C304 1.209 . S
C1917 N640 1.035 . S
C1936 C337 1.212 . S
C1953 C370 1.201 . S
C1972 N673 1.031 . S
C1989 N706 1.010 . S
C2008 C469 1.191 . S
C2025 C502 1.199 . S
C2044 N739 0.983 . S
C2061 N772 1.035 . S
C2080 C436 1.212 . S
C2097 C18 0.868 . S
C2116 C744 0.880 1_455 S
C2133 C546 0.870 . S
C2152 C51 0.877 1_554 S
C2169 C84 0.867 . S
C2188 C777 0.903 . S
C2205 C711 0.868 . S
C2224 C117 0.900 . S
C2241 C150 0.881 . S
C2260 C612 0.840 . S
C2277 C645 0.871 . S
C2296 C183 0.874 . S
C2313 C216 0.879 . S
C2332 C678 0.867 . S
C2349 C579 0.872 . S
C2368 C249 0.899 . S
C2385 C447 0.880 1_545 S
C2404 C282 0.862 . S
C2421 C480 0.868 . S
C2440 C315 0.892 . S
C2457 C348 0.868 . S
C2476 C513 0.894 . S
C2493 C381 0.881 . S
C2512 C414 0.841 . S
C2529 N497 0.581 . S
C2548 N2 0.505 . S
C2565 N35 0.585 . S
C2584 N398 0.509 . S
C2601 N431 0.617 . S
C2620 N68 0.674 . S
C2637 N464 0.616 . S
C2656 N101 0.672 . S
C2673 N134 0.616 . S
C2692 N299 0.689 . S
C2709 N332 0.592 . S
C2728 N167 0.528 . S
C2745 N200 0.577 . S
C2764 N365 0.515 . S
C2781 N266 0.613 . S
C2800 N233 0.635 . S
C2817 N662 0.615 . S
C2836 N530 0.691 . S
C2853 N761 0.593 . S
C2872 N563 0.533 . S
C2889 N695 0.590 . S
C2908 N596 0.633 . S
C2925 N728 0.616 . S
C2944 N629 0.689 . S
