# Generated by pormake.
# Topology lcy-e, (6)-cn, num edge types: 1
# Building blocks:
#     Node 0, Type 0, BuildingBlock: INOVEN_clean_sbu_0, # of connection points: 6
#     Node 1, Type 0, BuildingBlock: INOVEN_clean_sbu_0, # of connection points: 6
#     Node 2, Type 0, BuildingBlock: INOVEN_clean_sbu_0, # of connection points: 6
#     Node 3, Type 0, BuildingBlock: INOVEN_clean_sbu_0, # of connection points: 6
#     Node 4, Type 0, BuildingBlock: INOVEN_clean_sbu_0, # of connection points: 6
#     Node 5, Type 0, BuildingBlock: INOVEN_clean_sbu_0, # of connection points: 6
#     Node 6, Type 0, BuildingBlock: INOVEN_clean_sbu_0, # of connection points: 6
#     Node 7, Type 0, BuildingBlock: INOVEN_clean_sbu_0, # of connection points: 6
#     Node 8, Type 0, BuildingBlock: INOVEN_clean_sbu_0, # of connection points: 6
#     Node 9, Type 0, BuildingBlock: INOVEN_clean_sbu_0, # of connection points: 6
#     Node 10, Type 0, BuildingBlock: INOVEN_clean_sbu_0, # of connection points: 6
#     Node 11, Type 0, BuildingBlock: INOVEN_clean_sbu_0, # of connection points: 6
#     Edge 12, Type (0, 0), BuildingBlock: TEMPAE_clean_linker_10, # of connection points: 2
#     Edge 13, Type (0, 0), BuildingBlock: TEMPAE_clean_linker_10, # of connection points: 2
#     Edge 14, Type (0, 0), BuildingBlock: TEMPAE_clean_linker_10, # of connection points: 2
#     Edge 15, Type (0, 0), BuildingBlock: TEMPAE_clean_linker_10, # of connection points: 2
#     Edge 16, Type (0, 0), BuildingBlock: TEMPAE_clean_linker_10, # of connection points: 2
#     Edge 17, Type (0, 0), BuildingBlock: TEMPAE_clean_linker_10, # of connection points: 2
#     Edge 18, Type (0, 0), BuildingBlock: TEMPAE_clean_linker_10, # of connection points: 2
#     Edge 19, Type (0, 0), BuildingBlock: TEMPAE_clean_linker_10, # of connection points: 2
#     Edge 20, Type (0, 0), BuildingBlock: TEMPAE_clean_linker_10, # of connection points: 2
#     Edge 21, Type (0, 0), BuildingBlock: TEMPAE_clean_linker_10, # of connection points: 2
#     Edge 22, Type (0, 0), BuildingBlock: TEMPAE_clean_linker_10, # of connection points: 2
#     Edge 23, Type (0, 0), BuildingBlock: TEMPAE_clean_linker_10, # of connection points: 2
#     Edge 24, Type (0, 0), BuildingBlock: TEMPAE_clean_linker_10, # of connection points: 2
#     Edge 25, Type (0, 0), BuildingBlock: TEMPAE_clean_linker_10, # of connection points: 2
#     Edge 26, Type (0, 0), BuildingBlock: TEMPAE_clean_linker_10, # of connection points: 2
#     Edge 27, Type (0, 0), BuildingBlock: TEMPAE_clean_linker_10, # of connection points: 2
#     Edge 28, Type (0, 0), BuildingBlock: TEMPAE_clean_linker_10, # of connection points: 2
#     Edge 29, Type (0, 0), BuildingBlock: TEMPAE_clean_linker_10, # of connection points: 2
#     Edge 30, Type (0, 0), BuildingBlock: TEMPAE_clean_linker_10, # of connection points: 2
#     Edge 31, Type (0, 0), BuildingBlock: TEMPAE_clean_linker_10, # of connection points: 2
#     Edge 32, Type (0, 0), BuildingBlock: TEMPAE_clean_linker_10, # of connection points: 2
#     Edge 33, Type (0, 0), BuildingBlock: TEMPAE_clean_linker_10, # of connection points: 2
#     Edge 34, Type (0, 0), BuildingBlock: TEMPAE_clean_linker_10, # of connection points: 2
#     Edge 35, Type (0, 0), BuildingBlock: TEMPAE_clean_linker_10, # of connection points: 2
#     Edge 36, Type (0, 0), BuildingBlock: TEMPAE_clean_linker_10, # of connection points: 2
#     Edge 37, Type (0, 0), BuildingBlock: TEMPAE_clean_linker_10, # of connection points: 2
#     Edge 38, Type (0, 0), BuildingBlock: TEMPAE_clean_linker_10, # of connection points: 2
#     Edge 39, Type (0, 0), BuildingBlock: TEMPAE_clean_linker_10, # of connection points: 2
#     Edge 40, Type (0, 0), BuildingBlock: TEMPAE_clean_linker_10, # of connection points: 2
#     Edge 41, Type (0, 0), BuildingBlock: TEMPAE_clean_linker_10, # of connection points: 2
#     Edge 42, Type (0, 0), BuildingBlock: TEMPAE_clean_linker_10, # of connection points: 2
#     Edge 43, Type (0, 0), BuildingBlock: TEMPAE_clean_linker_10, # of connection points: 2
#     Edge 44, Type (0, 0), BuildingBlock: TEMPAE_clean_linker_10, # of connection points: 2
#     Edge 45, Type (0, 0), BuildingBlock: TEMPAE_clean_linker_10, # of connection points: 2
#     Edge 46, Type (0, 0), BuildingBlock: TEMPAE_clean_linker_10, # of connection points: 2
#     Edge 47, Type (0, 0), BuildingBlock: TEMPAE_clean_linker_10, # of connection points: 2
# Relax obj value: 0.185
# Max RMSD: 0.306
# Mean RMSD: 0.290
data_MOF--net-lcy-e--node1-INOVEN_clean_sbu_0--edge1-TEMPAE_clean_linker_10
_symmetry_space_group_name_H-M    P1
_symmetry_Int_Tables_number       1
_symmetry_cell_setting            triclinic
loop_
_symmetry_equiv_pos_as_xyz
'x, y, z'
_cell_length_a     45.700524
_cell_length_b     43.513964
_cell_length_c     44.674985
_cell_angle_alpha  89.687716
_cell_angle_beta   90.507784
_cell_angle_gamma 88.045417
loop_
_atom_site_label
_atom_site_type_symbol
_atom_site_fract_x
_atom_site_fract_y
_atom_site_fract_z
_atom_type_partial_charge
Gd0 Gd 0.14621 0.23346 0.52542 0.0
Gd1 Gd 0.12878 0.27531 0.46852 0.0
C2 C 0.09171 0.21513 0.48124 0.0
C3 C 0.14349 0.20984 0.57831 0.0
C4 C 0.13741 0.17998 0.59211 0.0
C5 C 0.14989 0.15224 0.58152 0.0
C6 C 0.11649 0.17926 0.61482 0.0
C7 C 0.11972 0.12331 0.61575 0.0
C8 C 0.10761 0.15129 0.62639 0.0
C9 C 0.14125 0.12413 0.59339 0.0
C10 C 0.17695 0.21413 0.47639 0.0
C11 C 0.1827 0.29421 0.5106 0.0
C12 C 0.12537 0.30401 0.41783 0.0
C13 C 0.14229 0.31538 0.3924 0.0
C14 C 0.16747 0.33265 0.3962 0.0
C15 C 0.13181 0.30989 0.36342 0.0
C16 C 0.17028 0.34022 0.34211 0.0
C17 C 0.14561 0.32212 0.33856 0.0
C18 C 0.18132 0.34503 0.37121 0.0
C19 C 0.09999 0.28747 0.52071 0.0
O20 O 0.10509 0.21176 0.50758 0.0
O21 O 0.09937 0.23585 0.46132 0.0
O22 O 0.16835 0.21269 0.5641 0.0
O23 O 0.12099 0.22292 0.56433 0.0
O24 O 0.17917 0.20112 0.50261 0.0
O25 O 0.15751 0.23531 0.478 0.0
O26 O 0.17245 0.29322 0.48276 0.0
O27 O 0.17338 0.27557 0.53198 0.0
O28 O 0.12732 0.3182 0.44359 0.0
O29 O 0.12383 0.2741 0.42041 0.0
O30 O 0.08813 0.29234 0.49447 0.0
O31 O 0.12615 0.27899 0.51722 0.0
H32 H 0.16588 0.15222 0.56377 0.0
H33 H 0.10632 0.20042 0.62301 0.0
H34 H 0.09058 0.15167 0.6431 0.0
H35 H 0.15133 0.10308 0.58493 0.0
H36 H 0.17608 0.33702 0.41838 0.0
H37 H 0.11236 0.29671 0.36002 0.0
H38 H 0.13622 0.31836 0.31659 0.0
H39 H 0.20045 0.35865 0.37465 0.0
Gd40 Gd 0.99514 0.88206 0.72627 0.0
Gd41 Gd 0.04713 0.8889 0.76933 0.0
C42 C 0.04129 0.93226 0.70936 0.0
C43 C 0.94655 0.87878 0.69617 0.0
C44 C 0.93662 0.88871 0.666 0.0
C45 C 0.90995 0.87873 0.6546 0.0
C46 C 0.95331 0.90846 0.64858 0.0
C47 C 0.91637 0.90854 0.60876 0.0
C48 C 0.94326 0.91835 0.62027 0.0
C49 C 0.89991 0.88852 0.6263 0.0
C50 C 0.04428 0.8485 0.71321 0.0
C51 C 1.00018 0.84297 0.78847 0.0
C52 C 0.09905 0.88901 0.79324 0.0
C53 C 0.12186 0.8695 0.80878 0.0
C54 C 0.12066 0.86385 0.83977 0.0
C55 C 0.14693 0.85935 0.79315 0.0
C56 C 0.16997 0.84036 0.83943 0.0
C57 C 0.17065 0.84493 0.80825 0.0
C58 C 0.14439 0.84935 0.85488 0.0
C59 C 0.9979 0.92176 0.78401 0.0
O60 O 0.01435 0.92324 0.70463 0.0
O61 O 0.05801 0.92072 0.73126 0.0
O62 O 0.96639 0.85642 0.69735 0.0
O63 O 0.9519 0.9008 0.71501 0.0
O64 O 0.02757 0.86206 0.69321 0.0
O65 O 0.03378 0.85258 0.73885 0.0
O66 O 0.02874 0.84602 0.78706 0.0
O67 O 0.98217 0.85771 0.76932 0.0
O68 O 0.07517 0.8968 0.80779 0.0
O69 O 0.09419 0.88361 0.76484 0.0
O70 O 0.01662 0.91049 0.80353 0.0
O71 O 1.00772 0.9176 0.75801 0.0
H72 H 0.8967 0.86358 0.66773 0.0
H73 H 0.97404 0.91637 0.65696 0.0
H74 H 0.9566 0.93355 0.60733 0.0
H75 H 0.87889 0.8809 0.61846 0.0
H76 H 0.10185 0.87161 0.85261 0.0
H77 H 0.14867 0.86351 0.76931 0.0
H78 H 0.18984 0.83796 0.79559 0.0
H79 H 0.1432 0.84652 0.87894 0.0
Gd80 Gd 0.38131 0.78715 0.02387 0.0
Gd81 Gd 0.39416 0.74348 0.9672 0.0
C82 C 0.43055 0.8069 0.97568 0.0
C83 C 0.38496 0.81352 0.07543 0.0
C84 C 0.40461 0.83549 0.08956 0.0
C85 C 0.42175 0.85455 0.07191 0.0
C86 C 0.40391 0.83987 0.1206 0.0
C87 C 0.43475 0.88429 0.1158 0.0
C88 C 0.4189 0.86403 0.13365 0.0
C89 C 0.43665 0.87874 0.08487 0.0
C90 C 0.33975 0.79597 0.97989 0.0
C91 C 0.34892 0.72169 0.01533 0.0
C92 C 0.40007 0.72297 0.91325 0.0
C93 C 0.38591 0.70659 0.88863 0.0
C94 C 0.40213 0.70037 0.86279 0.0
C95 C 0.35661 0.69805 0.88986 0.0
C96 C 0.36011 0.67694 0.83938 0.0
C97 C 0.34375 0.68341 0.86535 0.0
C98 C 0.38943 0.68572 0.83844 0.0
C99 C 0.42373 0.73066 0.01863 0.0
O100 O 0.41616 0.81398 1.00054 0.0
O101 O 0.42573 0.78159 0.96022 0.0
O102 O 0.3693 0.8247 0.05297 0.0
O103 O 0.39553 0.78562 0.07056 0.0
O104 O 0.33967 0.8108 1.00499 0.0
O105 O 0.36182 0.77805 0.98026 0.0
O106 O 0.35431 0.72285 0.98623 0.0
O107 O 0.35939 0.74207 0.03455 0.0
O108 O 0.40814 0.70699 0.93706 0.0
O109 O 0.38935 0.75049 0.91945 0.0
O110 O 0.41569 0.70953 1.00004 0.0
O111 O 0.41722 0.75688 1.00805 0.0
H112 H 0.4226 0.85155 0.04791 0.0
H113 H 0.39076 0.82545 0.13459 0.0
H114 H 0.41683 0.86777 0.15749 0.0
H115 H 0.44901 0.89361 0.07057 0.0
H116 H 0.42471 0.70705 0.86136 0.0
H117 H 0.34372 0.70279 0.90965 0.0
H118 H 0.32119 0.67674 0.86687 0.0
H119 H 0.40253 0.68153 0.8187 0.0
Gd120 Gd 0.52792 0.13804 0.23858 0.0
Gd121 Gd 0.47793 0.12008 0.27984 0.0
C122 C 0.48837 0.0784 0.22274 0.0
C123 C 0.57385 0.1372 0.2049 0.0
C124 C 0.58349 0.12198 0.17671 0.0
C125 C 0.58874 0.13996 0.15122 0.0
C126 C 0.58827 0.08989 0.17496 0.0
C127 C 0.6038 0.09431 0.12295 0.0
C128 C 0.59839 0.07625 0.14842 0.0
C129 C 0.59863 0.12632 0.12467 0.0
C130 C 0.47891 0.17299 0.2308 0.0
C131 C 0.51675 0.17693 0.29777 0.0
C132 C 0.43079 0.11694 0.31198 0.0
C133 C 0.40439 0.13361 0.32381 0.0
C134 C 0.37749 0.11904 0.32237 0.0
C135 C 0.40536 0.16259 0.33752 0.0
C136 C 0.35286 0.16148 0.34885 0.0
C137 C 0.37987 0.17637 0.34989 0.0
C138 C 0.35218 0.13265 0.3347 0.0
C139 C 0.53147 0.09108 0.28961 0.0
O140 O 0.51236 0.09381 0.2179 0.0
O141 O 0.46986 0.08611 0.24403 0.0
O142 O 0.5527 0.15815 0.20256 0.0
O143 O 0.57152 0.11985 0.22876 0.0
O144 O 0.50527 0.18264 0.22775 0.0
O145 O 0.47922 0.14416 0.23579 0.0
O146 O 0.48964 0.16742 0.29529 0.0
O147 O 0.53764 0.16578 0.27996 0.0
O148 O 0.45661 0.12246 0.32329 0.0
O149 O 0.43147 0.11192 0.28318 0.0
O150 O 0.5069 0.07749 0.2936 0.0
O151 O 0.52581 0.11848 0.28308 0.0
H152 H 0.58547 0.16472 0.15192 0.0
H153 H 0.58438 0.07526 0.19411 0.0
H154 H 0.60191 0.05152 0.14781 0.0
H155 H 0.60295 0.14098 0.10566 0.0
H156 H 0.37614 0.0966 0.31215 0.0
H157 H 0.42578 0.17444 0.33894 0.0
H158 H 0.38135 0.19869 0.36027 0.0
H159 H 0.33221 0.12 0.33388 0.0
Gd160 Gd 0.62459 0.2478 0.55645 0.0
Gd161 Gd 0.63375 0.30257 0.51422 0.0
C162 C 0.67528 0.29753 0.57129 0.0
C163 C 0.63185 0.1994 0.59023 0.0
C164 C 0.6413 0.19131 0.6212 0.0
C165 C 0.6255 0.17 0.63761 0.0
C166 C 0.66671 0.20319 0.63407 0.0
C167 C 0.66108 0.17132 0.67868 0.0
C168 C 0.67652 0.19328 0.66246 0.0
C169 C 0.63522 0.16014 0.666 0.0
C170 C 0.58668 0.29509 0.56534 0.0
C171 C 0.58564 0.25459 0.49701 0.0
C172 C 0.63145 0.35157 0.48086 0.0
C173 C 0.61423 0.37532 0.46376 0.0
C174 C 0.62163 0.38074 0.43384 0.0
C175 C 0.59384 0.39548 0.47762 0.0
C176 C 0.5909 0.42765 0.43269 0.0
C177 C 0.58215 0.42135 0.46216 0.0
C178 C 0.6101 0.40652 0.41848 0.0
C179 C 0.66805 0.25104 0.50477 0.0
O180 O 0.66364 0.27077 0.57733 0.0
O181 O 0.66577 0.31533 0.54914 0.0
O182 O 0.60658 0.21415 0.58684 0.0
O183 O 0.65193 0.20947 0.57231 0.0
O184 O 0.58093 0.26649 0.56982 0.0
O185 O 0.61346 0.29798 0.55899 0.0
O186 O 0.59049 0.28425 0.49955 0.0
O187 O 0.6001 0.23419 0.5144 0.0
O188 O 0.63435 0.32379 0.46993 0.0
O189 O 0.63037 0.35207 0.51011 0.0
O190 O 0.67709 0.27863 0.50027 0.0
O191 O 0.64168 0.25264 0.5117 0.0
H192 H 0.60594 0.16037 0.62813 0.0
H193 H 0.67933 0.21971 0.62199 0.0
H194 H 0.69635 0.20262 0.6716 0.0
H195 H 0.62298 0.14288 0.67756 0.0
H196 H 0.63741 0.36571 0.42267 0.0
H197 H 0.58782 0.39197 0.50072 0.0
H198 H 0.56737 0.43713 0.47372 0.0
H199 H 0.61681 0.41033 0.3956 0.0
Gd200 Gd 0.97882 0.3844 0.7363 0.0
Gd201 Gd 0.02152 0.36659 0.78397 0.0
C202 C 0.96199 0.32726 0.77634 0.0
C203 C 0.94897 0.39667 0.68807 0.0
C204 C 0.91995 0.38709 0.67837 0.0
C205 C 0.90142 0.37304 0.69884 0.0
C206 C 0.91114 0.39053 0.64843 0.0
C207 C 0.86543 0.36564 0.65937 0.0
C208 C 0.88405 0.37992 0.63898 0.0
C209 C 0.87438 0.36243 0.68944 0.0
C210 C 0.96815 0.41218 0.78975 0.0
C211 C 0.03967 0.42016 0.74292 0.0
C212 C 0.04716 0.35445 0.83471 0.0
C213 C 0.06225 0.37069 0.85866 0.0
C214 C 0.07024 0.35459 0.88483 0.0
C215 C 0.06775 0.40214 0.8563 0.0
C216 C 0.0891 0.4012 0.90649 0.0
C217 C 0.08122 0.41729 0.88004 0.0
C218 C 0.08355 0.36968 0.90854 0.0
C219 C 0.03376 0.34146 0.72997 0.0
O220 O 0.95571 0.34244 0.75136 0.0
O221 O 0.98502 0.33391 0.79286 0.0
O222 O 0.94936 0.41504 0.7111 0.0
O223 O 0.96895 0.37451 0.6899 0.0
O224 O 0.94809 0.40117 0.77254 0.0
O225 O 0.99287 0.40792 0.77787 0.0
O226 O 0.03986 0.41144 0.77119 0.0
O227 O 0.01998 0.40957 0.724 0.0
O228 O 0.06054 0.35228 0.80899 0.0
O229 O 0.01911 0.36096 0.83194 0.0
O230 O 0.05352 0.35074 0.7485 0.0
O231 O 1.00879 0.34423 0.74163 0.0
H232 H 0.90802 0.36998 0.72204 0.0
H233 H 0.92527 0.40119 0.63234 0.0
H234 H 0.8776 0.38303 0.61574 0.0
H235 H 0.86074 0.3512 0.70559 0.0
H236 H 0.06606 0.33032 0.88699 0.0
H237 H 0.06145 0.41495 0.83626 0.0
H238 H 0.08509 0.44162 0.8779 0.0
H239 H 0.08978 0.35656 0.9284 0.0
Gd240 Gd 0.8968 0.76744 0.04745 0.0
Gd241 Gd 0.87724 0.71463 1.00798 0.0
C242 C 0.84424 0.72311 0.06918 0.0
C243 C 0.89948 0.81435 0.0827 0.0
C244 C 0.88415 0.82569 0.10979 0.0
C245 C 0.90071 0.83475 0.13462 0.0
C246 C 0.85339 0.82758 0.11142 0.0
C247 C 0.85621 0.84798 0.16215 0.0
C248 C 0.83958 0.83877 0.13729 0.0
C249 C 0.88694 0.84567 0.16051 0.0
C250 C 0.93408 0.71849 0.04772 0.0
C251 C 0.9257 0.76003 0.98331 0.0
C252 C 0.87244 0.66544 0.97569 0.0
C253 C 0.88802 0.64051 0.95895 0.0
C254 C 0.90767 0.64629 0.93569 0.0
C255 C 0.88135 0.60994 0.96536 0.0
C256 C 0.9129 0.59113 0.92512 0.0
C257 C 0.89355 0.58562 0.94874 0.0
C258 C 0.92 0.62185 0.91898 0.0
C259 C 0.84492 0.76867 1.0036 0.0
O260 O 0.85711 0.74978 0.07162 0.0
O261 O 0.85099 0.70355 0.04782 0.0
O262 O 0.916 0.7894 0.0861 0.0
O263 O 0.88468 0.81486 0.05744 0.0
O264 O 0.94193 0.74682 0.04879 0.0
O265 O 0.90638 0.71679 0.04815 0.0
O266 O 0.91765 0.73112 0.98503 0.0
O267 O 0.91742 0.78051 1.00375 0.0
O268 O 0.87114 0.69333 0.96448 0.0
O269 O 0.87513 0.66502 1.00485 0.0
O270 O 0.83339 0.74191 1.00087 0.0
O271 O 0.87192 0.76474 1.00623 0.0
H272 H 0.92442 0.83352 0.13392 0.0
H273 H 0.84001 0.82048 0.09273 0.0
H274 H 0.81588 0.84002 0.13793 0.0
H275 H 0.90041 0.85292 0.17907 0.0
H276 H 0.91323 0.66963 0.93016 0.0
H277 H 0.86602 0.60484 0.98294 0.0
H278 H 0.88704 0.56251 0.9539 0.0
H279 H 0.93503 0.62704 0.9012 0.0
Gd280 Gd 0.53948 0.63086 0.2358 0.0
Gd281 Gd 0.49632 0.64981 0.28434 0.0
C282 C 0.55391 0.68866 0.27966 0.0
C283 C 0.5736 0.62965 0.1898 0.0
C284 C 0.60261 0.64068 0.18203 0.0
C285 C 0.62015 0.65518 0.2033 0.0
C286 C 0.61226 0.63797 0.1525 0.0
C287 C 0.65663 0.66477 0.16518 0.0
C288 C 0.63903 0.64983 0.14414 0.0
C289 C 0.647 0.66711 0.19496 0.0
C290 C 0.54403 0.59558 0.28522 0.0
C291 C 0.48174 0.59325 0.24268 0.0
C292 C 0.46257 0.65312 0.33063 0.0
C293 C 0.45296 0.63476 0.35637 0.0
C294 C 0.45189 0.64873 0.38455 0.0
C295 C 0.44449 0.60416 0.35353 0.0
C296 C 0.43295 0.60232 0.40676 0.0
C297 C 0.43444 0.58811 0.37853 0.0
C298 C 0.44205 0.63273 0.40946 0.0
C299 C 0.48782 0.67901 0.23037 0.0
O300 O 0.56061 0.67276 0.25538 0.0
O301 O 0.53086 0.6827 0.29586 0.0
O302 O 0.57289 0.60727 0.20944 0.0
O303 O 0.55345 0.65114 0.19425 0.0
O304 O 0.54892 0.5858 0.25829 0.0
O305 O 0.53933 0.62452 0.28535 0.0
O306 O 0.48264 0.60258 0.27077 0.0
O307 O 0.49952 0.60487 0.22255 0.0
O308 O 0.45326 0.64588 0.30389 0.0
O309 O 0.48993 0.66084 0.33106 0.0
O310 O 0.48157 0.69177 0.25582 0.0
O311 O 0.4955 0.65162 0.23522 0.0
H312 H 0.61294 0.65756 0.22622 0.0
H313 H 0.59896 0.6269 0.1358 0.0
H314 H 0.64602 0.64714 0.12118 0.0
H315 H 0.65993 0.67865 0.21164 0.0
H316 H 0.45831 0.67231 0.38723 0.0
H317 H 0.44536 0.59279 0.33203 0.0
H318 H 0.42776 0.56464 0.37579 0.0
H319 H 0.44074 0.64456 0.4307 0.0
Gd320 Gd 0.23009 0.5195 0.13202 0.0
Gd321 Gd 0.26979 0.46368 0.11831 0.0
C322 C 0.20915 0.47613 0.07951 0.0
C323 C 0.20108 0.57067 0.14055 0.0
C324 C 0.17138 0.58168 0.13101 0.0
C325 C 0.15103 0.59165 0.15252 0.0
C326 C 0.16259 0.58112 0.10076 0.0
C327 C 0.11367 0.60072 0.11373 0.0
C328 C 0.13415 0.59064 0.09223 0.0
C329 C 0.1225 0.60096 0.14402 0.0
C330 C 0.21881 0.46718 0.16238 0.0
C331 C 0.29348 0.51005 0.16492 0.0
C332 C 0.28922 0.40737 0.11356 0.0
C333 C 0.30209 0.3817 0.13161 0.0
C334 C 0.3241 0.38605 0.15317 0.0
C335 C 0.29251 0.35191 0.1264 0.0
C336 C 0.32821 0.33064 0.16238 0.0
C337 C 0.30536 0.32667 0.14162 0.0
C338 C 0.33707 0.36073 0.16839 0.0
C339 C 0.28345 0.51539 0.0886 0.0
O340 O 0.20545 0.50342 0.09189 0.0
O341 O 0.23101 0.45699 0.08747 0.0
O342 O 0.20221 0.54832 0.16025 0.0
O343 O 0.22064 0.56701 0.11954 0.0
O344 O 0.19869 0.48584 0.15146 0.0
O345 O 0.24364 0.47734 0.15711 0.0
O346 O 0.29179 0.48041 0.15939 0.0
O347 O 0.2737 0.53026 0.15394 0.0
O348 O 0.30536 0.43116 0.10849 0.0
O349 O 0.26177 0.41492 0.11879 0.0
O350 O 0.30265 0.49401 0.09629 0.0
O351 O 0.25799 0.50667 0.09404 0.0
H352 H 0.15714 0.59198 0.176 0.0
H353 H 0.17765 0.57331 0.0836 0.0
H354 H 0.1284 0.59056 0.06866 0.0
H355 H 0.10729 0.6081 0.16129 0.0
H356 H 0.3317 0.40887 0.15778 0.0
H357 H 0.27536 0.34807 0.11007 0.0
H358 H 0.29763 0.30395 0.1368 0.0
H359 H 0.35477 0.36465 0.18404 0.0
Gd360 Gd 0.73313 0.98089 0.88146 0.0
Gd361 Gd 0.77053 0.033 0.90079 0.0
C362 C 0.7122 0.02599 0.93711 0.0
C363 C 0.70023 0.93361 0.87962 0.0
C364 C 0.67149 0.92522 0.8919 0.0
C365 C 0.6488 0.91758 0.8722 0.0
C366 C 0.66635 0.92443 0.92292 0.0
C367 C 0.61653 0.90791 0.91414 0.0
C368 C 0.6392 0.91572 0.9339 0.0
C369 C 0.6216 0.90916 0.88316 0.0
C370 C 0.72775 0.03009 0.84492 0.0
C371 C 0.79437 0.98826 0.84907 0.0
C372 C 0.80166 0.08157 0.9058 0.0
C373 C 0.81777 0.10451 0.88872 0.0
C374 C 0.83015 0.12873 0.90436 0.0
C375 C 0.81967 0.1038 0.85736 0.0
C376 C 0.8456 0.15205 0.85763 0.0
C377 C 0.83365 0.12734 0.84192 0.0
C378 C 0.8439 0.15221 0.88905 0.0
C379 C 0.77774 0.9792 0.93233 0.0
O380 O 0.70875 1.00006 0.92221 0.0
O381 O 0.73347 0.04446 0.9308 0.0
O382 O 0.69972 0.955 0.85893 0.0
O383 O 0.722 0.93613 0.89861 0.0
O384 O 0.72735 1.00171 0.83632 0.0
O385 O 0.72964 0.03167 0.87331 0.0
O386 O 0.79135 0.01723 0.85766 0.0
O387 O 0.77582 0.96753 0.85856 0.0
O388 O 0.81283 0.05352 0.90752 0.0
O389 O 0.77321 0.08249 0.90244 0.0
O390 O 0.77884 1.00603 0.94482 0.0
O391 O 0.77464 0.9828 0.90479 0.0
H392 H 0.65218 0.91791 0.84822 0.0
H393 H 0.6833 0.93039 0.93875 0.0
H394 H 0.63588 0.91523 0.95788 0.0
H395 H 0.60472 0.90292 0.86736 0.0
H396 H 0.82886 0.12971 0.92855 0.0
H397 H 0.81004 0.08535 0.84488 0.0
H398 H 0.8345 0.12658 0.81772 0.0
H399 H 0.8533 0.17054 0.90189 0.0
Gd400 Gd 0.74198 0.98231 0.40057 0.0
Gd401 Gd 0.79111 0.02435 0.38284 0.0
C402 C 0.78511 0.96377 0.34443 0.0
C403 C 0.69649 0.94845 0.4018 0.0
C404 C 0.68537 0.92191 0.38536 0.0
C405 C 0.65508 0.9191 0.3819 0.0
C406 C 0.70442 0.89947 0.37296 0.0
C407 C 0.66277 0.87115 0.35468 0.0
C408 C 0.69321 0.87422 0.35786 0.0
C409 C 0.64388 0.89401 0.36672 0.0
C410 C 0.7882 0.97883 0.43809 0.0
C411 C 0.74769 0.04593 0.43489 0.0
C412 C 0.83721 0.05762 0.38011 0.0
C413 C 0.86002 0.07295 0.39811 0.0
C414 C 0.8639 0.10462 0.39434 0.0
C415 C 0.88024 0.05597 0.41617 0.0
C416 C 0.90879 0.10171 0.42452 0.0
C417 C 0.90433 0.07018 0.42916 0.0
C418 C 0.88788 0.11885 0.40745 0.0
C419 C 0.73917 0.03165 0.35179 0.0
O420 O 0.76043 0.9591 0.35887 0.0
O421 O 0.80229 0.98629 0.35161 0.0
O422 O 0.71964 0.94341 0.41882 0.0
O423 O 0.69729 0.97425 0.38674 0.0
O424 O 0.76113 0.97663 0.4461 0.0
O425 O 0.79018 0.98103 0.40975 0.0
O426 O 0.77543 0.04449 0.4267 0.0
O427 O 0.72871 0.02627 0.42422 0.0
O428 O 0.81047 0.06946 0.37985 0.0
O429 O 0.83804 0.02754 0.37971 0.0
O430 O 0.76445 0.03532 0.33938 0.0
O431 O 0.7434 0.02666 0.37894 0.0
H432 H 0.64004 0.93624 0.3912 0.0
H433 H 0.72792 0.90137 0.37507 0.0
H434 H 0.70834 0.85719 0.34856 0.0
H435 H 0.62035 0.89217 0.36499 0.0
H436 H 0.84893 0.11822 0.38027 0.0
H437 H 0.878 0.0315 0.41957 0.0
H438 H 0.91973 0.05634 0.4425 0.0
H439 H 0.89069 0.14308 0.40312 0.0
Gd440 Gd 0.29046 0.49426 0.63696 0.0
Gd441 Gd 0.25411 0.54834 0.61358 0.0
C442 C 0.31643 0.53839 0.5846 0.0
C443 C 0.32501 0.44666 0.6453 0.0
C444 C 0.35369 0.43692 0.63325 0.0
C445 C 0.37441 0.42228 0.6522 0.0
C446 C 0.3614 0.444 0.6037 0.0
C447 C 0.41065 0.42247 0.6125 0.0
C448 C 0.38965 0.4369 0.59343 0.0
C449 C 0.40256 0.41499 0.64193 0.0
C450 C 0.28806 0.54262 0.67437 0.0
C451 C 0.22582 0.50236 0.66092 0.0
C452 C 0.22367 0.59912 0.60594 0.0
C453 C 0.20765 0.62347 0.62241 0.0
C454 C 0.21003 0.65392 0.61265 0.0
C455 C 0.19021 0.61718 0.64728 0.0
C456 C 0.17715 0.6718 0.65187 0.0
C457 C 0.17496 0.64119 0.66185 0.0
C458 C 0.19498 0.67783 0.6272 0.0
C459 C 0.25359 0.49724 0.57875 0.0
O460 O 0.31793 0.51149 0.59855 0.0
O461 O 0.29498 0.55854 0.58955 0.0
O462 O 0.32522 0.47094 0.66236 0.0
O463 O 0.30269 0.44693 0.62673 0.0
O464 O 0.28726 0.51413 0.68276 0.0
O465 O 0.29094 0.54457 0.64623 0.0
O466 O 0.2279 0.53145 0.65266 0.0
O467 O 0.24627 0.48149 0.65368 0.0
O468 O 0.21233 0.57193 0.60457 0.0
O469 O 0.25207 0.59793 0.60969 0.0
O470 O 0.25037 0.52493 0.56811 0.0
O471 O 0.25312 0.49832 0.6067 0.0
H472 H 0.36888 0.41669 0.67509 0.0
H473 H 0.34571 0.4553 0.58868 0.0
H474 H 0.39511 0.44304 0.57069 0.0
H475 H 0.41788 0.40318 0.65702 0.0
H476 H 0.22338 0.65921 0.59349 0.0
H477 H 0.18826 0.59382 0.65533 0.0
H478 H 0.16155 0.63585 0.68092 0.0
H479 H 0.19677 0.70102 0.61862 0.0
C480 C 0.2117 0.34005 0.49672 0.0
C481 C 0.2005 0.3209 0.51898 0.0
C482 C 0.22355 0.36852 0.50394 0.0
C483 C 0.22402 0.37826 0.53412 0.0
C484 C 0.21421 0.35832 0.55685 0.0
C485 C 0.20274 0.32984 0.54903 0.0
C486 C 0.23419 0.38882 0.47908 0.0
C487 C 0.21423 0.3678 0.58932 0.0
C488 C 0.26879 0.44527 0.56084 0.0
C489 C 0.24734 0.46892 0.56238 0.0
C490 C 0.26188 0.41593 0.55044 0.0
C491 C 0.23268 0.41009 0.54185 0.0
C492 C 0.21118 0.4344 0.54238 0.0
C493 C 0.21883 0.46361 0.55256 0.0
C494 C 0.28555 0.3909 0.54986 0.0
C495 C 0.17975 0.42917 0.53368 0.0
H496 H 0.21022 0.33335 0.47343 0.0
H497 H 0.19404 0.31538 0.56642 0.0
H498 H 0.21918 0.40927 0.47654 0.0
H499 H 0.25622 0.39725 0.48461 0.0
H500 H 0.23525 0.37666 0.45729 0.0
H501 H 0.20781 0.3489 0.60446 0.0
H502 H 0.23625 0.37531 0.59615 0.0
H503 H 0.19868 0.38767 0.59239 0.0
H504 H 0.29084 0.44956 0.56846 0.0
H505 H 0.20219 0.48187 0.55429 0.0
H506 H 0.28591 0.3795 0.52771 0.0
H507 H 0.28088 0.37307 0.56684 0.0
H508 H 0.30758 0.39986 0.55462 0.0
H509 H 0.17863 0.41892 0.51103 0.0
H510 H 0.16609 0.45078 0.53378 0.0
H511 H 0.17021 0.41263 0.54954 0.0
C512 C 0.82698 0.94833 0.82379 0.0
C513 C 0.82199 0.9786 0.83371 0.0
C514 C 0.85465 0.93841 0.81302 0.0
C515 C 0.87808 0.95899 0.81289 0.0
C516 C 0.87288 0.98975 0.82208 0.0
C517 C 0.84494 0.99923 0.83194 0.0
C518 C 0.85904 0.90566 0.80259 0.0
C519 C 0.89724 0.01236 0.82301 0.0
C520 C 0.95659 0.92714 0.82014 0.0
C521 C 0.96737 0.93164 0.79121 0.0
C522 C 0.92751 0.93547 0.82734 0.0
C523 C 0.90847 0.94819 0.80493 0.0
C524 C 0.91917 0.95237 0.77554 0.0
C525 C 0.94864 0.94461 0.76921 0.0
C526 C 0.91731 0.9311 0.8591 0.0
C527 C 0.89955 0.96516 0.75079 0.0
H528 H 0.80947 0.9322 0.82503 0.0
H529 H 0.84156 0.02266 0.83963 0.0
H530 H 0.86992 0.90513 0.78048 0.0
H531 H 0.87358 0.89271 0.81857 0.0
H532 H 0.83804 0.89365 0.80078 0.0
H533 H 0.88943 0.0357 0.82993 0.0
H534 H 0.9145 1.00407 0.83903 0.0
H535 H 0.90756 0.01414 0.80073 0.0
H536 H 0.97094 0.91706 0.83726 0.0
H537 H 0.95705 0.9488 0.74703 0.0
H538 H 0.89833 0.91591 0.85948 0.0
H539 H 0.90993 0.95359 0.8685 0.0
H540 H 0.9348 0.92088 0.87386 0.0
H541 H 0.87901 0.9523 0.74971 0.0
H542 H 0.91029 0.96396 0.72859 0.0
H543 H 0.89338 0.98952 0.75547 0.0
C544 C 0.32862 0.69026 0.05753 0.0
C545 C 0.33406 0.69411 0.02687 0.0
C546 C 0.31812 0.66241 0.06878 0.0
C547 C 0.31351 0.63761 0.04901 0.0
C548 C 0.31821 0.64168 0.01799 0.0
C549 C 0.32807 0.66986 1.00732 0.0
C550 C 0.31282 0.65923 0.10193 0.0
C551 C 0.3142 0.61574 0.99615 0.0
C552 C 0.32014 0.55534 0.07844 0.0
C553 C 0.29088 0.54666 0.07845 0.0
C554 C 0.32773 0.58501 0.06944 0.0
C555 C 0.30546 0.60677 0.06066 0.0
C556 C 0.2758 0.59825 0.06114 0.0
C557 C 0.26893 0.56813 0.06952 0.0
C558 C 0.35967 0.59285 0.06878 0.0
C559 C 0.25133 0.62086 0.05259 0.0
H560 H 0.33322 0.70871 0.07289 0.0
H561 H 0.33225 0.67233 0.9836 0.0
H562 H 0.29103 0.64956 0.10592 0.0
H563 H 0.32947 0.64304 0.11195 0.0
H564 H 0.314 0.68159 0.1137 0.0
H565 H 0.31797 0.62287 0.97262 0.0
H566 H 0.3297 0.59635 1.00181 0.0
H567 H 0.29176 0.60699 0.99777 0.0
H568 H 0.33722 0.53885 0.08538 0.0
H569 H 0.24635 0.56134 0.06892 0.0
H570 H 0.36353 0.61312 0.08304 0.0
H571 H 0.36589 0.59905 0.04562 0.0
H572 H 0.37427 0.57349 0.07667 0.0
H573 H 0.25358 0.64262 0.06512 0.0
H574 H 0.22939 0.61169 0.05714 0.0
H575 H 0.25259 0.62652 0.02842 0.0
C576 C 0.58415 0.10033 0.29918 0.0
C577 C 0.56189 0.07911 0.29569 0.0
C578 C 0.61326 0.09082 0.30515 0.0
C579 C 0.62079 0.05907 0.30734 0.0
C580 C 0.5986 0.03735 0.30305 0.0
C581 C 0.5693 0.04763 0.29753 0.0
C582 C 0.63574 0.11496 0.31035 0.0
C583 C 0.60573 1.00329 0.30487 0.0
C584 C 0.70352 0.03992 0.30816 0.0
C585 C 0.70923 0.03751 0.33898 0.0
C586 C 0.6746 0.04551 0.29725 0.0
C587 C 0.65105 0.04925 0.31767 0.0
C588 C 0.65689 0.0465 0.34872 0.0
C589 C 0.68563 0.04051 0.35883 0.0
C590 C 0.66926 0.04791 0.26395 0.0
C591 C 0.6329 0.051 0.37152 0.0
H592 H 0.57873 0.12473 0.29792 0.0
H593 H 0.55231 0.03111 0.29456 0.0
H594 H 0.64394 0.11342 0.33379 0.0
H595 H 0.65479 0.11093 0.29551 0.0
H596 H 0.62668 0.13865 0.3063 0.0
H597 H 0.5869 0.98939 0.29798 0.0
H598 H 0.6247 0.9973 0.29043 0.0
H599 H 0.61206 0.99687 0.32817 0.0
H600 H 0.72153 0.03741 0.29265 0.0
H601 H 0.68961 0.03868 0.38268 0.0
H602 H 0.66206 0.07177 0.25795 0.0
H603 H 0.65141 0.03265 0.2572 0.0
H604 H 0.68919 0.04167 0.25096 0.0
H605 H 0.62358 0.07485 0.36995 0.0
H606 H 0.64088 0.04688 0.39481 0.0
H607 H 0.61486 0.03524 0.36691 0.0
C608 C 0.70913 0.22025 0.48076 0.0
C609 C 0.68345 0.22156 0.49765 0.0
C610 C 0.72157 0.19169 0.47175 0.0
C611 C 0.70863 0.16401 0.48096 0.0
C612 C 0.68358 0.16541 0.49928 0.0
C613 C 0.67082 0.19406 0.50647 0.0
C614 C 0.74754 0.19118 0.45112 0.0
C615 C 0.66953 0.13664 0.51049 0.0
C616 C 0.71377 0.09141 0.43441 0.0
C617 C 0.73664 0.07466 0.44866 0.0
C618 C 0.7053 0.12097 0.44402 0.0
C619 C 0.71927 0.13364 0.46933 0.0
C620 C 0.74195 0.11643 0.48431 0.0
C621 C 0.7509 0.08739 0.47328 0.0
C622 C 0.68166 0.1388 0.42677 0.0
C623 C 0.75641 0.12851 0.51216 0.0
H624 H 0.71868 0.24145 0.47348 0.0
H625 H 0.65045 0.1948 0.51863 0.0
H626 H 0.76545 0.17602 0.46034 0.0
H627 H 0.74107 0.18156 0.42917 0.0
H628 H 0.75606 0.21448 0.44739 0.0
H629 H 0.65328 0.1417 0.52831 0.0
H630 H 0.65815 0.12533 0.49173 0.0
H631 H 0.6864 0.12002 0.51947 0.0
H632 H 0.70332 0.08192 0.41482 0.0
H633 H 0.76885 0.0745 0.48401 0.0
H634 H 0.68944 0.16183 0.4205 0.0
H635 H 0.66209 0.14243 0.44097 0.0
H636 H 0.67491 0.12676 0.40608 0.0
H637 H 0.7668 0.1506 0.5072 0.0
H638 H 0.77333 0.11209 0.52144 0.0
H639 H 0.73965 0.13316 0.52954 0.0
C640 C 0.06805 0.44304 0.70104 0.0
C641 C 0.06428 0.43826 0.73182 0.0
C642 C 0.09373 0.45575 0.69009 0.0
C643 C 0.11613 0.46385 0.7104 0.0
C644 C 0.11182 0.46049 0.74155 0.0
C645 C 0.08594 0.44782 0.75188 0.0
C646 C 0.09742 0.45931 0.65671 0.0
C647 C 0.13514 0.46888 0.76394 0.0
C648 C 0.19408 0.46153 0.68137 0.0
C649 C 0.19874 0.49274 0.67588 0.0
C650 C 0.16737 0.45189 0.69284 0.0
C651 C 0.14479 0.47399 0.69903 0.0
C652 C 0.14956 0.50557 0.69417 0.0
C653 C 0.17648 0.51457 0.68268 0.0
C654 C 0.16313 0.41797 0.69781 0.0
C655 C 0.12603 0.52981 0.70052 0.0
H656 H 0.05148 0.43572 0.68537 0.0
H657 H 0.08322 0.44435 0.77573 0.0
H658 H 0.10331 0.48318 0.65116 0.0
H659 H 0.11562 0.44384 0.64904 0.0
H660 H 0.07727 0.45378 0.64403 0.0
H661 H 0.1275 0.46711 0.78741 0.0
H662 H 0.15467 0.45332 0.76128 0.0
H663 H 0.14218 0.49267 0.75984 0.0
H664 H 0.21107 0.44447 0.67611 0.0
H665 H 0.17981 0.53875 0.67852 0.0
H666 H 0.14478 0.41022 0.68361 0.0
H667 H 0.1572 0.41364 0.72145 0.0
H668 H 0.18306 0.40379 0.69249 0.0
H669 H 0.1065 0.52591 0.6863 0.0
H670 H 0.13348 0.55346 0.69624 0.0
H671 H 0.11904 0.52816 0.72417 0.0
C672 C 0.78417 0.94411 0.97749 0.0
C673 C 0.78315 0.94847 0.94639 0.0
C674 C 0.79021 0.91461 0.98995 0.0
C675 C 0.79581 0.88913 0.97083 0.0
C676 C 0.79401 0.89349 0.93945 0.0
C677 C 0.78756 0.9229 0.92773 0.0
C678 C 0.79148 0.91085 0.02352 0.0
C679 C 0.80037 0.86735 0.91806 0.0
C680 C 0.84923 0.82455 0.99375 0.0
C681 C 0.831 0.79951 0.99758 0.0
C682 C 0.83788 0.85394 0.98636 0.0
C683 C 0.80729 0.85888 0.98297 0.0
C684 C 0.78851 0.83401 0.98794 0.0
C685 C 0.80062 0.80446 0.99497 0.0
C686 C 0.85892 0.87937 0.98073 0.0
C687 C 0.75574 0.83844 0.98499 0.0
H688 H 0.78049 0.9637 0.99202 0.0
H689 H 0.78679 0.92597 0.90365 0.0
H690 H 0.77867 0.89089 0.03055 0.0
H691 H 0.81448 0.90618 0.03083 0.0
H692 H 0.78295 0.93171 0.03523 0.0
H693 H 0.79613 0.87409 0.89435 0.0
H694 H 0.82366 0.85956 0.92036 0.0
H695 H 0.78681 0.84746 0.92351 0.0
H696 H 0.87275 0.82108 0.99563 0.0
H697 H 0.78641 0.78529 0.99811 0.0
H698 H 0.85297 0.89979 0.9944 0.0
H699 H 0.85755 0.88654 0.95686 0.0
H700 H 0.88197 0.8722 0.98597 0.0
H701 H 0.7481 0.85901 0.99767 0.0
H702 H 0.74404 0.81812 0.99318 0.0
H703 H 0.7497 0.84249 0.96115 0.0
C704 C 0.43493 0.56765 0.25366 0.0
C705 C 0.45645 0.57527 0.2329 0.0
C706 C 0.40821 0.55586 0.24428 0.0
C707 C 0.40302 0.55111 0.21343 0.0
C708 C 0.42522 0.55718 0.19248 0.0
C709 C 0.45166 0.56931 0.20246 0.0
C710 C 0.38503 0.54985 0.26729 0.0
C711 C 0.42063 0.55194 0.15941 0.0
C712 C 0.34196 0.49931 0.18976 0.0
C713 C 0.31998 0.52074 0.18051 0.0
C714 C 0.36895 0.50886 0.2008 0.0
C715 C 0.37405 0.54064 0.20298 0.0
C716 C 0.35163 0.56243 0.19471 0.0
C717 C 0.32487 0.55222 0.18347 0.0
C718 C 0.39238 0.48494 0.20917 0.0
C719 C 0.35618 0.59655 0.19701 0.0
H720 H 0.43836 0.57212 0.27725 0.0
H721 H 0.46812 0.57514 0.18626 0.0
H722 H 0.3657 0.56547 0.26315 0.0
H723 H 0.37755 0.52596 0.26534 0.0
H724 H 0.393 0.55343 0.29054 0.0
H725 H 0.44077 0.5557 0.14632 0.0
H726 H 0.41354 0.52816 0.15545 0.0
H727 H 0.40298 0.56783 0.15079 0.0
H728 H 0.33848 0.47491 0.18754 0.0
H729 H 0.30811 0.56894 0.17626 0.0
H730 H 0.39989 0.48837 0.23255 0.0
H731 H 0.41165 0.48745 0.19454 0.0
H732 H 0.38462 0.46113 0.20701 0.0
H733 H 0.36315 0.60242 0.22008 0.0
H734 H 0.33606 0.61044 0.19119 0.0
H735 H 0.37391 0.60321 0.18172 0.0
C736 C 0.50318 0.20058 0.34685 0.0
C737 C 0.52458 0.19421 0.32512 0.0
C738 C 0.5108 0.21128 0.37536 0.0
C739 C 0.54051 0.21631 0.38227 0.0
C740 C 0.56205 0.21153 0.35997 0.0
C741 C 0.55386 0.20038 0.33172 0.0
C742 C 0.48718 0.21584 0.39851 0.0
C743 C 0.59392 0.2172 0.36628 0.0
C744 C 0.55963 0.26633 0.4486 0.0
C745 C 0.56973 0.24441 0.46986 0.0
C746 C 0.54964 0.25751 0.42024 0.0
C747 C 0.54917 0.22593 0.413 0.0
C748 C 0.55777 0.2036 0.43488 0.0
C749 C 0.56812 0.2131 0.46299 0.0
C750 C 0.54091 0.28207 0.39753 0.0
C751 C 0.55704 0.16966 0.42821 0.0
H752 H 0.48047 0.19589 0.34212 0.0
H753 H 0.57058 0.19547 0.31519 0.0
H754 H 0.49127 0.19957 0.41742 0.0
H755 H 0.48763 0.23941 0.40778 0.0
H756 H 0.46496 0.2121 0.38923 0.0
H757 H 0.60765 0.21435 0.34602 0.0
H758 H 0.59641 0.24078 0.37506 0.0
H759 H 0.60237 0.2009 0.38375 0.0
H760 H 0.56074 0.29062 0.45354 0.0
H761 H 0.57589 0.19598 0.47917 0.0
H762 H 0.51864 0.27816 0.38858 0.0
H763 H 0.55616 0.2809 0.37835 0.0
H764 H 0.54122 0.30556 0.40711 0.0
H765 H 0.53508 0.16376 0.41964 0.0
H766 H 0.56232 0.15524 0.44826 0.0
H767 H 0.57308 0.16373 0.41048 0.0
C768 C 0.10365 0.28935 0.57648 0.0
C769 C 0.08725 0.29563 0.55032 0.0
C770 C 0.09241 0.29595 0.60495 0.0
C771 C 0.06483 0.3115 0.60756 0.0
C772 C 0.04853 0.31908 0.58117 0.0
C773 C 0.05963 0.31043 0.55288 0.0
C774 C 0.11026 0.28629 0.63225 0.0
C775 C 0.01979 0.33708 0.58276 0.0
C776 C 0.02768 0.30934 0.68398 0.0
C777 C 0.03943 0.33491 0.698 0.0
C778 C 0.03534 0.30161 0.65436 0.0
C779 C 0.05401 0.32081 0.63793 0.0
C780 C 0.06452 0.34765 0.65166 0.0
C781 C 0.05775 0.35388 0.68172 0.0
C782 C 0.02481 0.27202 0.64127 0.0
C783 C 0.08341 0.36956 0.63482 0.0
H784 H 0.12551 0.27917 0.57477 0.0
H785 H 0.04707 0.31595 0.53277 0.0
H786 H 0.11869 0.30688 0.64353 0.0
H787 H 0.09641 0.27425 0.64854 0.0
H788 H 0.12921 0.27082 0.6265 0.0
H789 H 1.00989 0.34144 0.56028 0.0
H790 H 1.00402 0.32456 0.59659 0.0
H791 H 0.02321 0.3595 0.59378 0.0
H792 H 1.01366 0.29458 0.69667 0.0
H793 H 0.0667 0.37378 0.69251 0.0
H794 H 0.04389 0.25622 0.63701 0.0
H795 H 1.01365 0.27645 0.61947 0.0
H796 H 1.00952 0.26028 0.65639 0.0
H797 H 0.10518 0.35849 0.63058 0.0
H798 H 0.08671 0.39112 0.64741 0.0
H799 H 0.07332 0.37546 0.61275 0.0
C800 C 1.00819 0.81126 0.83465 0.0
C801 C 0.98861 0.82649 0.8147 0.0
C802 C 0.99871 0.79968 0.86209 0.0
C803 C 0.9688 0.80294 0.86967 0.0
C804 C 0.94865 0.81718 0.84917 0.0
C805 C 0.95883 0.82892 0.82193 0.0
C806 C 0.02092 0.78491 0.88342 0.0
C807 C 0.91651 0.82078 0.85636 0.0
C808 C 0.94143 0.7505 0.9307 0.0
C809 C 0.93967 0.77036 0.95536 0.0
C810 C 0.95062 0.76088 0.90267 0.0
C811 C 0.95881 0.79173 0.89926 0.0
C812 C 0.95801 0.81168 0.92423 0.0
C813 C 0.94824 0.80081 0.95196 0.0
C814 C 0.95085 0.739 0.87653 0.0
C815 C 0.96713 0.84461 0.92155 0.0
H816 H 0.03126 0.80924 0.82933 0.0
H817 H 0.9436 0.84087 0.8068 0.0
H818 H 0.02151 0.79819 0.90454 0.0
H819 H 0.01457 0.76126 0.88925 0.0
H820 H 0.04332 0.78375 0.87393 0.0
H821 H 0.90345 0.83064 0.8373 0.0
H822 H 0.90769 0.79817 0.86249 0.0
H823 H 0.91352 0.8361 0.87594 0.0
H824 H 0.93465 0.72698 0.93294 0.0
H825 H 0.94685 0.81633 0.97083 0.0
H826 H 0.97318 0.73676 0.86709 0.0
H827 H 0.93615 0.74827 0.85849 0.0
H828 H 0.94366 0.71574 0.8829 0.0
H829 H 0.98985 0.8453 0.91308 0.0
H830 H 0.96601 0.85689 0.94327 0.0
H831 H 0.95278 0.85719 0.90513 0.0
C832 C 0.45921 0.71576 0.19613 0.0
C833 C 0.4784 0.69019 0.20018 0.0
C834 C 0.44869 0.72419 0.16728 0.0
C835 C 0.45851 0.70734 0.14193 0.0
C836 C 0.47851 0.68211 0.14601 0.0
C837 C 0.48743 0.67339 0.175 0.0
C838 C 0.42633 0.75035 0.16403 0.0
C839 C 0.49042 0.66402 0.11975 0.0
C840 C 0.41778 0.70331 0.06737 0.0
C841 C 0.43215 0.72509 0.05023 0.0
C842 C 0.42478 0.69879 0.09784 0.0
C843 C 0.44775 0.71536 0.11104 0.0
C844 C 0.46228 0.73743 0.09365 0.0
C845 C 0.45381 0.74252 0.06363 0.0
C846 C 0.40778 0.67601 0.11574 0.0
C847 C 0.4876 0.75474 0.10632 0.0
H848 H 0.45165 0.72847 0.21553 0.0
H849 H 0.50136 0.65299 0.1779 0.0
H850 H 0.43423 0.76803 0.14837 0.0
H851 H 0.4058 0.74162 0.1543 0.0
H852 H 0.42123 0.76145 0.18579 0.0
H853 H 0.50825 0.64734 0.1265 0.0
H854 H 0.47263 0.65112 0.1091 0.0
H855 H 0.49901 0.67981 0.10258 0.0
H856 H 0.4006 0.69026 0.0571 0.0
H857 H 0.46474 0.75953 0.05032 0.0
H858 H 0.40132 0.68599 0.13762 0.0
H859 H 0.42172 0.65515 0.1204 0.0
H860 H 0.38774 0.66893 0.1037 0.0
H861 H 0.4809 0.76712 0.1269 0.0
H862 H 0.4961 0.77163 0.09011 0.0
H863 H 0.50567 0.73822 0.11269 0.0
C864 C 0.18981 0.38675 0.31685 0.0
C865 C 0.18282 0.35564 0.31556 0.0
C866 C 0.19792 0.40275 0.29101 0.0
C867 C 0.19903 0.38732 0.26318 0.0
C868 C 0.19337 0.35558 0.26197 0.0
C869 C 0.18537 0.34012 0.28817 0.0
C870 C 0.204 0.43656 0.29327 0.0
C871 C 0.19454 0.33826 0.23279 0.0
C872 C 0.18503 0.43873 0.19526 0.0
C873 C 0.21354 0.44384 0.18565 0.0
C874 C 0.17998 0.41948 0.21986 0.0
C875 C 0.20405 0.40501 0.23517 0.0
C876 C 0.23282 0.40894 0.22462 0.0
C877 C 0.23722 0.42832 0.19995 0.0
C878 C 0.14894 0.41558 0.23017 0.0
C879 C 0.25905 0.39377 0.24014 0.0
H880 H 0.18762 0.399 0.3378 0.0
H881 H 0.18046 0.31595 0.2871 0.0
H882 H 0.22534 0.44138 0.28291 0.0
H883 H 0.18687 0.45018 0.2808 0.0
H884 H 0.20435 0.44461 0.31683 0.0
H885 H 0.19209 0.31316 0.23605 0.0
H886 H 0.17672 0.34706 0.21769 0.0
H887 H 0.21556 0.34203 0.22132 0.0
H888 H 0.16668 0.45056 0.18415 0.0
H889 H 0.25931 0.43206 0.19242 0.0
H890 H 0.14615 0.42574 0.25274 0.0
H891 H 0.14423 0.39081 0.23204 0.0
H892 H 0.13259 0.42678 0.21473 0.0
H893 H 0.26204 0.40426 0.26249 0.0
H894 H 0.27949 0.39633 0.22721 0.0
H895 H 0.25556 0.36893 0.24374 0.0
C896 C 0.90671 0.95083 0.57071 0.0
C897 C 0.90483 0.91979 0.5791 0.0
C898 C 0.89274 0.96239 0.54457 0.0
C899 C 0.87634 0.94252 0.52642 0.0
C900 C 0.87607 0.9108 0.5337 0.0
C901 C 0.8903 0.89985 0.55986 0.0
C902 C 0.89389 0.99628 0.53753 0.0
C903 C 0.85902 0.8887 0.51497 0.0
C904 C 0.80566 0.97265 0.4904 0.0
C905 C 0.81249 0.97313 0.45986 0.0
C906 C 0.82656 0.96383 0.51214 0.0
C907 C 0.85538 0.95542 0.50332 0.0
C908 C 0.86299 0.95748 0.47262 0.0
C909 C 0.84136 0.96627 0.45113 0.0
C910 C 0.81732 0.96223 0.54451 0.0
C911 C 0.8936 0.94929 0.46237 0.0
H912 H 0.91784 0.9665 0.58536 0.0
H913 H 0.88933 0.8757 0.5657 0.0
H914 H 0.89737 1.00009 0.51326 0.0
H915 H 0.87268 1.00778 0.54338 0.0
H916 H 0.91155 1.00743 0.55032 0.0
H917 H 0.86387 0.86436 0.52142 0.0
H918 H 0.83522 0.89364 0.51779 0.0
H919 H 0.864 0.89169 0.4909 0.0
H920 H 0.78349 0.97839 0.49741 0.0
H921 H 0.8468 0.96681 0.42757 0.0
H922 H 0.83198 0.97591 0.55871 0.0
H923 H 0.81914 0.93806 0.55257 0.0
H924 H 0.79442 0.97089 0.54778 0.0
H925 H 0.91005 0.95984 0.47717 0.0
H926 H 0.89727 0.95686 0.43895 0.0
H927 H 0.89737 0.924 0.46366 0.0
C928 C 0.30518 0.59524 0.68788 0.0
C929 C 0.29289 0.56744 0.69621 0.0
C930 C 0.31376 0.61643 0.70979 0.0
C931 C 0.30982 0.60955 0.74057 0.0
C932 C 0.2957 0.58237 0.74878 0.0
C933 C 0.28743 0.56173 0.72654 0.0
C934 C 0.32847 0.64531 0.70011 0.0
C935 C 0.29089 0.57408 0.78121 0.0
C936 C 0.36351 0.63714 0.7991 0.0
C937 C 0.34717 0.66051 0.81349 0.0
C938 C 0.35191 0.62119 0.77475 0.0
C939 C 0.32316 0.62868 0.76439 0.0
C940 C 0.30664 0.65257 0.77847 0.0
C941 C 0.31879 0.66812 0.80295 0.0
C942 C 0.37021 0.59567 0.76066 0.0
C943 C 0.27597 0.66132 0.76802 0.0
H944 H 0.30932 0.59979 0.66444 0.0
H945 H 0.27758 0.54041 0.73306 0.0
H946 H 0.319 0.66558 0.712 0.0
H947 H 0.35209 0.64341 0.70607 0.0
H948 H 0.32638 0.64935 0.6756 0.0
H949 H 0.27722 0.55362 0.78372 0.0
H950 H 0.31234 0.5691 0.79237 0.0
H951 H 0.28017 0.59364 0.79315 0.0
H952 H 0.38529 0.63081 0.80732 0.0
H953 H 0.30616 0.6864 0.8137 0.0
H954 H 0.37179 0.59954 0.73618 0.0
H955 H 0.35958 0.57338 0.76404 0.0
H956 H 0.39271 0.59381 0.77027 0.0
H957 H 0.27574 0.66611 0.7436 0.0
H958 H 0.26683 0.68184 0.77983 0.0
H959 H 0.26138 0.64186 0.7719 0.0
C960 C 0.60505 0.0896 0.06676 0.0
C961 C 0.61584 0.08017 0.095 0.0
C962 C 0.61783 0.07841 0.04023 0.0
C963 C 0.64227 0.05751 0.04183 0.0
C964 C 0.65255 0.04701 0.07026 0.0
C965 C 0.63916 0.05834 0.09643 0.0
C966 C 0.60591 0.08997 1.01047 0.0
C967 C 0.67869 0.025 0.07312 0.0
C968 C 0.67009 0.01554 0.97183 0.0
C969 C 0.69288 0.03428 0.96284 0.0
C970 C 0.65308 0.0229 0.99722 0.0
C971 C 0.65914 0.04948 0.01416 0.0
C972 C 0.68189 0.06857 1.00495 0.0
C973 C 0.69829 0.06085 0.9795 0.0
C974 C 0.62885 1.00209 1.00609 0.0
C975 C 0.68932 0.09703 0.02231 0.0
H976 H 0.58676 0.10608 0.06541 0.0
H977 H 0.64781 0.05107 0.1181 0.0
H978 H 0.62204 0.10495 0.9998 0.0
H979 H 0.6024 0.07044 0.99514 0.0
H980 H 0.58493 0.10335 0.01284 0.0
H981 H 0.68228 0.0168 0.0965 0.0
H982 H 0.67591 1.0048 0.05846 0.0
H983 H 0.69864 0.0366 0.06566 0.0
H984 H 0.66569 0.99496 0.95923 0.0
H985 H 0.71579 0.0756 0.97297 0.0
H986 H 0.60782 0.01551 1.00744 0.0
H987 H 0.63348 0.99222 0.02865 0.0
H988 H 0.62619 0.98294 0.99006 0.0
H989 H 0.66989 0.11295 0.02342 0.0
H990 H 0.70761 0.10951 0.01216 0.0
H991 H 0.69555 0.09064 0.04564 0.0
C992 C 0.65359 0.15197 0.73123 0.0
C993 C 0.67267 0.15856 0.70776 0.0
C994 C 0.66356 0.13591 0.75697 0.0
C995 C 0.69337 0.12608 0.7594 0.0
C996 C 0.71315 0.13466 0.73682 0.0
C997 C 0.70258 0.15072 0.71129 0.0
C998 C 0.64169 0.12747 0.7805 0.0
C999 C 0.74511 0.12479 0.73844 0.0
C1000 C 0.72146 0.08666 0.83167 0.0
C1001 C 0.71918 0.0556 0.82409 0.0
C1002 C 0.71343 0.11013 0.81086 0.0
C1003 C 0.70253 0.10221 0.78214 0.0
C1004 C 0.70013 0.07084 0.77466 0.0
C1005 C 0.70865 0.04811 0.79553 0.0
C1006 C 0.71675 0.1433 0.81946 0.0
C1007 C 0.68843 0.06113 0.74451 0.0
H1008 H 0.63057 0.15852 0.72905 0.0
H1009 H 0.71755 0.15553 0.69332 0.0
H1010 H 0.63728 0.10261 0.77881 0.0
H1011 H 0.65058 0.13153 0.80326 0.0
H1012 H 0.62061 0.14071 0.7778 0.0
H1013 H 0.75841 0.13755 0.72214 0.0
H1014 H 0.75409 0.12829 0.76127 0.0
H1015 H 0.74748 0.09988 0.73342 0.0
H1016 H 0.72978 0.09256 0.85362 0.0
H1017 H 0.70676 0.02418 0.78941 0.0
H1018 H 0.69523 0.15582 0.81797 0.0
H1019 H 0.73157 0.15457 0.80357 0.0
H1020 H 0.72569 0.14568 0.84251 0.0
H1021 H 0.666 0.0711 0.7409 0.0
H1022 H 0.68765 0.03575 0.74238 0.0
H1023 H 0.70237 0.06996 0.7264 0.0
C1024 C 0.19441 0.43907 0.04004 0.0
C1025 C 0.1895 0.4672 0.05468 0.0
C1026 C 0.17675 0.43051 0.01589 0.0
C1027 C 0.15346 0.45048 1.00611 0.0
C1028 C 0.14817 0.47881 0.02087 0.0
C1029 C 0.16628 0.48687 0.04498 0.0
C1030 C 0.18312 0.40006 1.00075 0.0
C1031 C 0.12345 0.50062 1.01114 0.0
C1032 C 0.12701 0.43604 0.92677 0.0
C1033 C 0.10354 0.41681 0.93184 0.0
C1034 C 0.14273 0.44833 0.9508 0.0
C1035 C 0.13467 0.44128 0.98054 0.0
C1036 C 0.11013 0.42308 0.98575 0.0
C1037 C 0.09489 0.41103 0.96133 0.0
C1038 C 0.16881 0.4676 0.94435 0.0
C1039 C 0.10071 0.41523 0.01711 0.0
H1040 H 0.21226 0.42367 0.04729 0.0
H1041 H 0.16229 0.50866 0.05612 0.0
H1042 H 0.16372 0.38549 1.00208 0.0
H1043 H 0.18764 0.40387 0.97668 0.0
H1044 H 0.20217 0.38726 1.01098 0.0
H1045 H 0.12205 0.52163 0.02516 0.0
H1046 H 0.12645 0.50761 0.98748 0.0
H1047 H 0.1023 0.48892 0.01236 0.0
H1048 H 0.13388 0.44042 0.90403 0.0
H1049 H 0.07643 0.39661 0.96534 0.0
H1050 H 0.18917 0.45494 0.95156 0.0
H1051 H 0.16744 0.48931 0.95725 0.0
H1052 H 0.17056 0.47332 0.92018 0.0
H1053 H 0.11777 0.4002 0.02808 0.0
H1054 H 0.07967 0.40316 0.01735 0.0
H1055 H 0.09829 0.43639 0.03073 0.0
C1056 C 0.77753 0.91832 0.31056 0.0
C1057 C 0.7936 0.94402 0.31854 0.0
C1058 C 0.78539 0.90024 0.28558 0.0
C1059 C 0.80973 0.9082 0.26801 0.0
C1060 C 0.82596 0.93409 0.276 0.0
C1061 C 0.81781 0.95151 0.3011 0.0
C1062 C 0.76766 0.87267 0.27798 0.0
C1063 C 0.85195 0.94359 0.25787 0.0
C1064 C 0.85186 0.85195 0.21808 0.0
C1065 C 0.84185 0.86087 0.18943 0.0
C1066 C 0.84041 0.86595 0.24396 0.0
C1067 C 0.81858 0.88974 0.24121 0.0
C1068 C 0.80754 0.89798 0.21241 0.0
C1069 C 0.81921 0.88337 0.18691 0.0
C1070 C 0.85257 0.85614 0.27419 0.0
C1071 C 0.78448 0.92337 0.20839 0.0
H1072 H 0.7588 0.91228 0.32381 0.0
H1073 H 0.83039 0.97134 0.30683 0.0
H1074 H 0.75802 0.87547 0.25521 0.0
H1075 H 0.78206 0.85163 0.27776 0.0
H1076 H 0.74969 0.86923 0.29413 0.0
H1077 H 0.8621 0.96449 0.26688 0.0
H1078 H 0.86882 0.92465 0.25757 0.0
H1079 H 0.84509 0.9482 0.23434 0.0
H1080 H 0.86903 0.83424 0.22025 0.0
H1081 H 0.81147 0.89055 0.16487 0.0
H1082 H 0.83451 0.85159 0.28986 0.0
H1083 H 0.86535 0.87498 0.28385 0.0
H1084 H 0.86708 0.8352 0.27282 0.0
H1085 H 0.76574 0.91962 0.22342 0.0
H1086 H 0.77622 0.92506 0.18495 0.0
H1087 H 0.79383 0.94569 0.21457 0.0
C1088 C 0.33684 0.57465 0.5472 0.0
C1089 C 0.33789 0.54554 0.56095 0.0
C1090 C 0.3547 0.58121 0.52278 0.0
C1091 C 0.37426 0.55815 0.5117 0.0
C1092 C 0.3762 0.52901 0.526 0.0
C1093 C 0.358 0.52305 0.55049 0.0
C1094 C 0.35202 0.61268 0.50833 0.0
C1095 C 0.39691 0.5039 0.51494 0.0
C1096 C 0.39416 0.57092 0.43031 0.0
C1097 C 0.42037 0.58657 0.43313 0.0
C1098 C 0.37974 0.55992 0.45567 0.0
C1099 C 0.39182 0.56463 0.48454 0.0
C1100 C 0.41917 0.57871 0.48736 0.0
C1101 C 0.43309 0.58952 0.46165 0.0
C1102 C 0.35065 0.54497 0.45164 0.0
C1103 C 0.43295 0.58395 0.51766 0.0
H1104 H 0.32156 0.59232 0.55512 0.0
H1105 H 0.35904 0.50052 0.56089 0.0
H1106 H 0.3737 0.62336 0.50787 0.0
H1107 H 0.34445 0.61053 0.48478 0.0
H1108 H 0.33641 0.62835 0.52022 0.0
H1109 H 0.39695 0.48308 0.52943 0.0
H1110 H 0.39056 0.4973 0.49188 0.0
H1111 H 0.41952 0.51232 0.51391 0.0
H1112 H 0.38408 0.56871 0.40841 0.0
H1113 H 0.45361 0.60112 0.46394 0.0
H1114 H 0.33291 0.56045 0.4603 0.0
H1115 H 0.35024 0.5232 0.46465 0.0
H1116 H 0.34582 0.53996 0.42778 0.0
H1117 H 0.41988 0.60176 0.52982 0.0
H1118 H 0.45579 0.59169 0.51588 0.0
H1119 H 0.433 0.5626 0.53135 0.0
C1120 C 0.21478 0.18038 0.45235 0.0
C1121 C 0.19858 0.20834 0.45218 0.0
C1122 C 0.23849 0.17516 0.433 0.0
C1123 C 0.24678 0.19867 0.41304 0.0
C1124 C 0.22988 0.22673 0.41203 0.0
C1125 C 0.20585 0.23118 0.43151 0.0
C1126 C 0.25527 0.14467 0.43465 0.0
C1127 C 0.23792 0.25255 0.39134 0.0
C1128 C 0.32731 0.19028 0.39096 0.0
C1129 C 0.32571 0.17488 0.36343 0.0
C1130 C 0.30181 0.19987 0.40641 0.0
C1131 C 0.27378 0.19379 0.39434 0.0
C1132 C 0.27198 0.17964 0.36592 0.0
C1133 C 0.29781 0.17056 0.35083 0.0
C1134 C 0.30492 0.21516 0.43645 0.0
C1135 C 0.24272 0.17265 0.35208 0.0
H1136 H 0.20928 0.16262 0.46827 0.0
H1137 H 0.19364 0.25299 0.43149 0.0
H1138 H 0.25665 0.13419 0.4121 0.0
H1139 H 0.27799 0.14826 0.44251 0.0
H1140 H 0.24502 0.12814 0.45007 0.0
H1141 H 0.22092 0.27143 0.39076 0.0
H1142 H 0.25891 0.26211 0.39894 0.0
H1143 H 0.24125 0.2439 0.36826 0.0
H1144 H 0.34853 0.19369 0.40119 0.0
H1145 H 0.29606 0.15945 0.32928 0.0
H1146 H 0.29798 0.19929 0.45436 0.0
H1147 H 0.29049 0.23615 0.43753 0.0
H1148 H 0.32782 0.22158 0.44116 0.0
H1149 H 0.23226 0.15451 0.36541 0.0
H1150 H 0.24481 0.16457 0.32862 0.0
H1151 H 0.22784 0.19332 0.3524 0.0
C1152 C 0.10551 0.06842 0.60847 0.0
C1153 C 0.10926 0.09356 0.62756 0.0
C1154 C 0.09461 0.0407 0.61926 0.0
C1155 C 0.08683 0.03821 0.64975 0.0
C1156 C 0.09059 0.06342 0.66913 0.0
C1157 C 0.10204 0.0906 0.6579 0.0
C1158 C 0.09133 0.01412 0.59805 0.0
C1159 C 0.08242 0.06174 0.70178 0.0
C1160 C 0.03384 0.97864 0.67637 0.0
C1161 C 0.05286 0.95749 0.69111 0.0
C1162 C 0.04466 1.0046 0.6619 0.0
C1163 C 0.07521 1.00915 0.66178 0.0
C1164 C 0.09457 0.98698 0.67526 0.0
C1165 C 0.08315 0.96156 0.68996 0.0
C1166 C 0.0233 0.02791 0.64804 0.0
C1167 C 0.12731 0.99067 0.67511 0.0
H1168 H 0.1106 0.07055 0.58492 0.0
H1169 H 0.10538 0.10958 0.673 0.0
H1170 H 0.10389 0.99361 0.60665 0.0
H1171 H 0.06802 1.0079 0.5966 0.0
H1172 H 0.09907 0.01949 0.57517 0.0
H1173 H 0.08576 0.08374 0.71362 0.0
H1174 H 0.05911 0.05577 0.70389 0.0
H1175 H 0.09576 0.04333 0.7132 0.0
H1176 H 1.01041 0.97562 0.67722 0.0
H1177 H 0.098 0.94507 0.70099 0.0
H1178 H 0.02959 0.03312 0.62468 0.0
H1179 H 0.02391 0.04973 0.66075 0.0
H1180 H 1.00049 0.01987 0.64799 0.0
H1181 H 0.13489 0.99529 0.65204 0.0
H1182 H 0.13945 0.96996 0.68398 0.0
H1183 H 0.13301 0.01067 0.68902 0.0
C1184 C 0.19416 0.80775 0.88003 0.0
C1185 C 0.19654 0.82855 0.85612 0.0
C1186 C 0.21867 0.79904 0.89781 0.0
C1187 C 0.2462 0.81164 0.89178 0.0
C1188 C 0.24903 0.83144 0.86679 0.0
C1189 C 0.22423 0.83963 0.84929 0.0
C1190 C 0.21483 0.77738 0.92387 0.0
C1191 C 0.27798 0.84524 0.85944 0.0
C1192 C 0.29599 0.82389 0.95885 0.0
C1193 C 0.31688 0.79973 0.95633 0.0
C1194 C 0.27319 0.828 0.93787 0.0
C1195 C 0.27097 0.80732 0.91366 0.0
C1196 C 0.29222 0.78297 0.91074 0.0
C1197 C 0.31494 0.7794 0.93222 0.0
C1198 C 0.25133 0.8545 0.94177 0.0
C1199 C 0.29063 0.76022 0.88547 0.0
H1200 H 0.17299 0.79866 0.88517 0.0
H1201 H 0.22632 0.8559 0.83103 0.0
H1202 H 0.23175 0.75849 0.92332 0.0
H1203 H 0.21777 0.78993 0.94518 0.0
H1204 H 0.19285 0.76724 0.92385 0.0
H1205 H 0.27725 0.85781 0.83772 0.0
H1206 H 0.28405 0.8615 0.87732 0.0
H1207 H 0.29551 0.82699 0.85857 0.0
H1208 H 0.2974 0.8397 0.97744 0.0
H1209 H 0.33083 0.76047 0.9304 0.0
H1210 H 0.22903 0.84563 0.94449 0.0
H1211 H 0.25089 0.86938 0.92151 0.0
H1212 H 0.25646 0.86884 0.9615 0.0
H1213 H 0.27403 0.74305 0.89084 0.0
H1214 H 0.31195 0.7478 0.88208 0.0
H1215 H 0.28389 0.7717 0.86415 0.0
C1216 C 0.50365 0.03787 0.18547 0.0
C1217 C 0.48233 0.05083 0.20448 0.0
C1218 C 0.4985 0.01071 0.16955 0.0
C1219 C 0.47133 0.99629 0.17259 0.0
C1220 C 0.44958 0.0096 0.19132 0.0
C1221 C 0.45536 0.03657 0.20704 0.0
C1222 C 0.52226 0.9972 0.14985 0.0
C1223 C 0.42021 0.99517 0.195 0.0
C1224 C 0.44284 0.941 0.11447 0.0
C1225 C 0.44712 0.91248 0.129 0.0
C1226 C 0.45173 0.96834 0.12783 0.0
C1227 C 0.46536 0.96721 0.15642 0.0
C1228 C 0.47084 0.93838 0.17066 0.0
C1229 C 0.46154 0.91139 0.15685 0.0
C1230 C 0.44524 0.99857 0.11197 0.0
C1231 C 0.48557 0.93614 0.20101 0.0
H1232 H 0.5246 0.04861 0.1834 0.0
H1233 H 0.43865 0.0464 0.22153 0.0
H1234 H 0.52896 0.97388 0.15805 0.0
H1235 H 0.51387 0.99467 0.12665 0.0
H1236 H 0.54189 0.01158 0.14932 0.0
H1237 H 0.40545 1.00873 0.20996 0.0
H1238 H 0.40928 0.99304 0.17288 0.0
H1239 H 0.42328 0.97164 0.20444 0.0
H1240 H 0.43138 0.94214 0.09312 0.0
H1241 H 0.46523 0.88941 0.16804 0.0
H1242 H 0.4652 0.01233 0.11105 0.0
H1243 H 0.42855 0.01214 0.12465 0.0
H1244 H 0.43691 0.99536 0.0888 0.0
H1245 H 0.5062 0.94886 0.20097 0.0
H1246 H 0.49064 0.91193 0.20783 0.0
H1247 H 0.47109 0.94693 0.21807 0.0
C1248 C 0.83473 0.338 0.62222 0.0
C1249 C 0.83686 0.35397 0.64928 0.0
C1250 C 0.80776 0.3276 0.61193 0.0
C1251 C 0.78229 0.33332 0.62912 0.0
C1252 C 0.78438 0.34877 0.65681 0.0
C1253 C 0.81166 0.35893 0.66656 0.0
C1254 C 0.80642 0.3111 0.58232 0.0
C1255 C 0.75768 0.35532 0.6757 0.0
C1256 C 0.71147 0.3371 0.58445 0.0
C1257 C 0.70089 0.30752 0.58885 0.0
C1258 C 0.73743 0.34607 0.59825 0.0
C1259 C 0.75326 0.32498 0.61698 0.0
C1260 C 0.74214 0.29553 0.62255 0.0
C1261 C 0.71605 0.28713 0.60838 0.0
C1262 C 0.74848 0.37775 0.59185 0.0
C1263 C 0.75835 0.27249 0.64253 0.0
H1264 H 0.85422 0.33361 0.60906 0.0
H1265 H 0.81313 0.37147 0.68739 0.0
H1266 H 0.79607 0.28859 0.58519 0.0
H1267 H 0.79266 0.32483 0.56623 0.0
H1268 H 0.82844 0.30711 0.57243 0.0
H1269 H 0.76334 0.36552 0.69765 0.0
H1270 H 0.74239 0.3715 0.66362 0.0
H1271 H 0.74585 0.33386 0.6797 0.0
H1272 H 0.69982 0.35316 0.5696 0.0
H1273 H 0.70811 0.26425 0.61188 0.0
H1274 H 0.76947 0.37573 0.57959 0.0
H1275 H 0.75287 0.38991 0.6131 0.0
H1276 H 0.7327 0.39203 0.57823 0.0
H1277 H 0.7793 0.26519 0.63191 0.0
H1278 H 0.74547 0.25174 0.64678 0.0
H1279 H 0.76384 0.2831 0.6643 0.0
C1280 C 0.93294 0.44343 0.82096 0.0
C1281 C 0.96187 0.4362 0.81262 0.0
C1282 C 0.92632 0.46809 0.84032 0.0
C1283 C 0.94915 0.48616 0.85161 0.0
C1284 C 0.97851 0.47835 0.84396 0.0
C1285 C 0.98452 0.45345 0.82466 0.0
C1286 C 0.89476 0.47523 0.84815 0.0
C1287 C 1.00356 0.49685 0.85543 0.0
C1288 C 0.92693 0.56791 0.87528 0.0
C1289 C 0.92453 0.56489 0.90649 0.0
C1290 C 0.93566 0.54275 0.85732 0.0
C1291 C 0.94206 0.51364 0.87071 0.0
C1292 C 0.94046 0.51061 0.90223 0.0
C1293 C 0.93186 0.53618 0.91967 0.0
C1294 C 0.93726 0.54714 0.82384 0.0
C1295 C 0.94714 0.48012 0.91753 0.0
H1296 H 0.91533 0.43016 0.81185 0.0
H1297 H 1.00695 0.44799 0.81838 0.0
H1298 H 0.89218 0.47562 0.87282 0.0
H1299 H 0.88805 0.4984 0.83954 0.0
H1300 H 0.87971 0.45822 0.83865 0.0
H1301 H 0.02522 0.48666 0.84905 0.0
H1302 H 1.00155 0.5206 0.84628 0.0
H1303 H 1.00275 0.4986 0.88017 0.0
H1304 H 0.92106 0.58974 0.86468 0.0
H1305 H 0.93068 0.53358 0.94376 0.0
H1306 H 0.92073 0.53295 0.81262 0.0
H1307 H 0.95909 0.53925 0.81565 0.0
H1308 H 0.93328 0.57152 0.817 0.0
H1309 H 0.93125 0.46301 0.90994 0.0
H1310 H 0.9461 0.4818 0.9423 0.0
H1311 H 0.96927 0.47121 0.91128 0.0
C1312 C 0.80773 0.68646 0.0881 0.0
C1313 C 0.81979 0.71566 0.08934 0.0
C1314 C 0.78235 0.67984 0.10392 0.0
C1315 C 0.76859 0.70294 0.12158 0.0
C1316 C 0.78145 0.732 0.12423 0.0
C1317 C 0.80693 0.73805 0.10804 0.0
C1318 C 0.76948 0.6485 0.10052 0.0
C1319 C 0.76759 0.75713 0.14306 0.0
C1320 C 0.68683 0.69316 0.12833 0.0
C1321 C 0.68492 0.67765 0.15582 0.0
C1322 C 0.71377 0.70293 0.11767 0.0
C1323 C 0.73952 0.69717 0.13495 0.0
C1324 C 0.73756 0.68297 0.16343 0.0
C1325 C 0.71026 0.67333 0.17353 0.0
C1326 C 0.71484 0.71811 0.08723 0.0
C1327 C 0.76447 0.67659 0.18259 0.0
H1328 H 0.81763 0.66886 0.07399 0.0
H1329 H 0.8161 0.76066 0.10922 0.0
H1330 H 0.76556 0.63818 0.12282 0.0
H1331 H 0.74801 0.65082 0.08878 0.0
H1332 H 0.78391 0.63244 0.08763 0.0
H1333 H 0.78211 0.77692 0.1458 0.0
H1334 H 0.74683 0.76555 0.13233 0.0
H1335 H 0.7621 0.74814 0.16553 0.0
H1336 H 0.66724 0.69721 0.11483 0.0
H1337 H 0.709 0.6613 0.19476 0.0
H1338 H 0.72705 0.70281 0.07155 0.0
H1339 H 0.72666 0.7399 0.08861 0.0
H1340 H 0.69264 0.72315 0.0777 0.0
H1341 H 0.77828 0.65818 0.17218 0.0
H1342 H 0.75884 0.66912 0.20559 0.0
H1343 H 0.77781 0.69736 0.18407 0.0
C1344 C 0.60205 0.4734 0.4011 0.0
C1345 C 0.58146 0.45673 0.41699 0.0
C1346 C 0.59357 0.49927 0.38382 0.0
C1347 C 0.56367 0.50888 0.38225 0.0
C1348 C 0.54297 0.49331 0.39968 0.0
C1349 C 0.55212 0.46741 0.4169 0.0
C1350 C 0.61648 0.51523 0.36585 0.0
C1351 C 0.51092 0.50286 0.39879 0.0
C1352 C 0.54894 0.58505 0.34079 0.0
C1353 C 0.54517 0.57459 0.31144 0.0
C1354 C 0.55346 0.56396 0.36467 0.0
C1355 C 0.55396 0.53187 0.35892 0.0
C1356 C 0.54826 0.52148 0.32956 0.0
C1357 C 0.54405 0.54289 0.3063 0.0
C1358 C 0.55915 0.57599 0.3957 0.0
C1359 C 0.54817 0.4876 0.32228 0.0
H1360 H 0.62489 0.4658 0.40168 0.0
H1361 H 0.53609 0.45476 0.42924 0.0
H1362 H 0.61294 0.51081 0.34166 0.0
H1363 H 0.61461 0.54046 0.36915 0.0
H1364 H 0.63907 0.50713 0.37199 0.0
H1365 H 0.49859 0.49209 0.41717 0.0
H1366 H 0.50803 0.52822 0.40033 0.0
H1367 H 0.50121 0.49583 0.37713 0.0
H1368 H 0.54958 0.60956 0.34488 0.0
H1369 H 0.54058 0.53466 0.28372 0.0
H1370 H 0.5827 0.5724 0.40138 0.0
H1371 H 0.54651 0.56326 0.41253 0.0
H1372 H 0.55339 0.60092 0.39747 0.0
H1373 H 0.57057 0.47733 0.32527 0.0
H1374 H 0.54084 0.48334 0.29893 0.0
H1375 H 0.53359 0.47545 0.33776 0.0
C1376 C 0.35141 0.27771 0.15832 0.0
C1377 C 0.34414 0.30341 0.17599 0.0
C1378 C 0.3693 0.25335 0.16954 0.0
C1379 C 0.38036 0.25462 0.1992 0.0
C1380 C 0.37156 0.27949 0.2178 0.0
C1381 C 0.35367 0.30363 0.20595 0.0
C1382 C 0.37822 0.22744 0.14883 0.0
C1383 C 0.38259 0.28162 0.24963 0.0
C1384 C 0.42428 0.18445 0.22952 0.0
C1385 C 0.45294 0.19296 0.22341 0.0
C1386 C 0.40021 0.2045 0.22248 0.0
C1387 C 0.40507 0.23331 0.20861 0.0
C1388 C 0.43403 0.24181 0.20256 0.0
C1389 C 0.45746 0.22171 0.21021 0.0
C1390 C 0.36968 0.19487 0.22973 0.0
C1391 C 0.44039 0.27209 0.18759 0.0
H1392 H 0.34444 0.27734 0.13508 0.0
H1393 H 0.34771 0.32308 0.21996 0.0
H1394 H 0.40143 0.2298 0.14238 0.0
H1395 H 0.37651 0.20489 0.16026 0.0
H1396 H 0.36459 0.22744 0.12811 0.0
H1397 H 0.37007 0.29931 0.26257 0.0
H1398 H 0.38125 0.25912 0.26125 0.0
H1399 H 0.40595 0.28778 0.24957 0.0
H1400 H 0.42073 0.16237 0.23997 0.0
H1401 H 0.47954 0.22853 0.20543 0.0
H1402 H 0.35705 0.19184 0.20869 0.0
H1403 H 0.35805 0.21307 0.24277 0.0
H1404 H 0.36973 0.17301 0.2427 0.0
H1405 H 0.42953 0.27347 0.16529 0.0
H1406 H 0.46421 0.27523 0.18456 0.0
H1407 H 0.43143 0.29147 0.20111 0.0
C1408 C 0.91774 0.29463 0.77035 0.0
C1409 C 0.9436 0.30138 0.78586 0.0
C1410 C 0.90034 0.2702 0.77949 0.0
C1411 C 0.90903 0.25197 0.80464 0.0
C1412 C 0.93522 0.25853 0.82015 0.0
C1413 C 0.95207 0.2831 0.81066 0.0
C1414 C 0.87251 0.2641 0.76242 0.0
C1415 C 0.94539 0.23971 0.84704 0.0
C1416 C 0.85429 0.20832 0.85073 0.0
C1417 C 0.8598 0.17781 0.84173 0.0
C1418 C 0.86926 0.23275 0.83797 0.0
C1419 C 0.89043 0.22668 0.81561 0.0
C1420 C 0.89529 0.19608 0.80556 0.0
C1421 C 0.87987 0.17204 0.81867 0.0
C1422 C 0.86316 0.26499 0.84921 0.0
C1423 C 0.91767 0.18857 0.78182 0.0
H1424 H 0.91095 0.30856 0.75117 0.0
H1425 H 0.97202 0.28792 0.82279 0.0
H1426 H 0.87303 0.24007 0.75422 0.0
H1427 H 0.85344 0.26676 0.77749 0.0
H1428 H 0.8691 0.27991 0.74299 0.0
H1429 H 0.96669 0.24717 0.85612 0.0
H1430 H 0.92884 0.24163 0.86501 0.0
H1431 H 0.94766 0.21506 0.84095 0.0
H1432 H 0.83841 0.21308 0.86813 0.0
H1433 H 0.88436 0.14855 0.81166 0.0
H1434 H 0.85824 0.28085 0.83016 0.0
H1435 H 0.88287 0.27337 0.86084 0.0
H1436 H 0.84451 0.26621 0.86499 0.0
H1437 H 0.91393 0.20363 0.76194 0.0
H1438 H 0.91712 0.16419 0.77464 0.0
H1439 H 0.93991 0.19299 0.79061 0.0
C1440 C 0.06859 0.59797 0.08085 0.0
C1441 C 0.08365 0.61197 0.10443 0.0
C1442 C 0.04142 0.61006 0.07034 0.0
C1443 C 0.02887 0.63673 0.08378 0.0
C1444 C 0.04326 0.65005 0.1085 0.0
C1445 C 0.07044 0.63766 0.11838 0.0
C1446 C 0.02682 0.59512 0.04399 0.0
C1447 C 0.03067 0.67847 0.1236 0.0
C1448 C 0.98389 0.69659 0.04033 0.0
C1449 C 0.95583 0.69296 0.05188 0.0
C1450 C 1.0074 0.67693 0.04891 0.0
C1451 C 1.00287 0.65319 0.06997 0.0
C1452 C 0.97407 0.648 0.0801 0.0
C1453 C 0.95072 0.66796 0.07077 0.0
C1454 C 0.03752 0.6831 0.03708 0.0
C1455 C 0.96828 0.62287 0.10243 0.0
H1456 H 0.07823 0.57774 0.07026 0.0
H1457 H 0.08189 0.64895 0.13635 0.0
H1458 H 1.00328 0.59194 0.0485 0.0
H1459 H 0.02811 0.61031 0.02405 0.0
H1460 H 0.0373 0.57245 0.03853 0.0
H1461 H 0.04292 0.68416 0.14431 0.0
H1462 H 0.03135 0.69835 0.10799 0.0
H1463 H 1.00741 0.6753 0.1294 0.0
H1464 H 0.98776 0.71586 0.02554 0.0
H1465 H 0.92903 0.66527 0.07986 0.0
H1466 H 0.04834 0.66152 0.02904 0.0
H1467 H 0.05134 0.69212 0.05537 0.0
H1468 H 0.03679 0.70013 0.01845 0.0
H1469 H 0.98017 0.60119 0.0963 0.0
H1470 H 0.94455 0.61844 0.10413 0.0
H1471 H 0.97641 0.62972 0.12482 0.0
C1472 C 0.66171 0.8141 0.34649 0.0
C1473 C 0.65052 0.8438 0.33978 0.0
C1474 C 0.64846 0.78795 0.33489 0.0
C1475 C 0.62348 0.79157 0.31603 0.0
C1476 C 0.61293 0.82152 0.30809 0.0
C1477 C 0.62651 0.84723 0.3201 0.0
C1478 C 0.66036 0.75645 0.34397 0.0
C1479 C 0.58652 0.82644 0.28785 0.0
C1480 C 0.59582 0.72378 0.27129 0.0
C1481 C 0.57268 0.71417 0.28917 0.0
C1482 C 0.61288 0.74865 0.27986 0.0
C1483 C 0.60668 0.76426 0.30695 0.0
C1484 C 0.58369 0.75432 0.32529 0.0
C1485 C 0.56701 0.72951 0.31618 0.0
C1486 C 0.6372 0.75855 0.2597 0.0
C1487 C 0.57642 0.77017 0.35443 0.0
H1488 H 0.68012 0.81123 0.36184 0.0
H1489 H 0.61805 0.87012 0.31442 0.0
H1490 H 0.64435 0.74515 0.35857 0.0
H1491 H 0.66352 0.74173 0.32399 0.0
H1492 H 0.68152 0.75748 0.35629 0.0
H1493 H 0.58262 0.85103 0.28174 0.0
H1494 H 0.58928 0.81292 0.26703 0.0
H1495 H 0.56677 0.81818 0.29924 0.0
H1496 H 0.6004 0.71215 0.25037 0.0
H1497 H 0.54932 0.72227 0.3303 0.0
H1498 H 0.65811 0.7591 0.27244 0.0
H1499 H 0.63226 0.78221 0.25127 0.0
H1500 H 0.64026 0.74303 0.24022 0.0
H1501 H 0.59604 0.77007 0.36923 0.0
H1502 H 0.55844 0.75905 0.36655 0.0
H1503 H 0.56978 0.79456 0.35004 0.0
C1504 C 0.53899 0.3124 0.58575 0.0
C1505 C 0.56495 0.32007 0.5715 0.0
C1506 C 0.51666 0.33439 0.59075 0.0
C1507 C 0.52009 0.36502 0.58097 0.0
C1508 C 0.54651 0.37325 0.56706 0.0
C1509 C 0.5688 0.35056 0.56253 0.0
C1510 C 0.48911 0.32456 0.60615 0.0
C1511 C 0.55094 0.40557 0.55604 0.0
C1512 C 0.4445 0.40142 0.57301 0.0
C1513 C 0.44053 0.4139 0.60165 0.0
C1514 C 0.4717 0.38848 0.56448 0.0
C1515 C 0.4953 0.38756 0.58525 0.0
C1516 C 0.49224 0.40281 0.61298 0.0
C1517 C 0.46491 0.41589 0.62082 0.0
C1518 C 0.47439 0.37325 0.53432 0.0
C1519 C 0.51703 0.40287 0.63551 0.0
H1520 H 0.53593 0.2889 0.59294 0.0
H1521 H 0.58881 0.35653 0.55146 0.0
H1522 H 0.48491 0.33894 0.62619 0.0
H1523 H 0.47003 0.3279 0.59081 0.0
H1524 H 0.49044 0.30006 0.6133 0.0
H1525 H 0.54026 0.40859 0.53377 0.0
H1526 H 0.54092 0.4229 0.5713 0.0
H1527 H 0.57456 0.41024 0.55362 0.0
H1528 H 0.42593 0.3999 0.5579 0.0
H1529 H 0.46232 0.42649 0.64258 0.0
H1530 H 0.47397 0.34792 0.53724 0.0
H1531 H 0.49552 0.37865 0.52379 0.0
H1532 H 0.45621 0.38058 0.51892 0.0
H1533 H 0.51972 0.37969 0.64588 0.0
H1534 H 0.5129 0.41987 0.65358 0.0
H1535 H 0.53794 0.40806 0.62443 0.0
C1536 C 0.17271 0.72593 0.67082 0.0
C1537 C 0.16001 0.69742 0.66602 0.0
C1538 C 0.15593 0.75138 0.68088 0.0
C1539 C 0.12572 0.74827 0.68628 0.0
C1540 C 0.11306 0.71921 0.68281 0.0
C1541 C 0.13037 0.69413 0.67273 0.0
C1542 C 0.1703 0.78189 0.68459 0.0
C1543 C 0.08093 0.71493 0.68848 0.0
C1544 C 0.08178 0.8087 0.72964 0.0
C1545 C 0.06725 0.82496 0.70641 0.0
C1546 C 0.10157 0.78419 0.72349 0.0
C1547 C 0.10682 0.77577 0.69339 0.0
C1548 C 0.09301 0.79292 0.66985 0.0
C1549 C 0.07341 0.81735 0.67666 0.0
C1550 C 0.11605 0.7667 0.74919 0.0
C1551 C 0.09824 0.78485 0.63745 0.0
H1552 H 0.19574 0.72848 0.66615 0.0
H1553 H 0.12035 0.67227 0.66886 0.0
H1554 H 0.16138 0.79845 0.66759 0.0
H1555 H 0.16533 0.79169 0.70692 0.0
H1556 H 0.19444 0.77986 0.68204 0.0
H1557 H 0.07494 0.69046 0.68689 0.0
H1558 H 0.07499 0.72357 0.71102 0.0
H1559 H 0.06763 0.72851 0.67188 0.0
H1560 H 0.07718 0.81468 0.7527 0.0
H1561 H 0.06231 0.82999 0.65866 0.0
H1562 H 0.14006 0.7646 0.74587 0.0
H1563 H 0.10774 0.74305 0.75005 0.0
H1564 H 0.11179 0.77792 0.77108 0.0
H1565 H 0.12203 0.78451 0.63265 0.0
H1566 H 0.08688 0.80133 0.62182 0.0
H1567 H 0.09038 0.76147 0.63291 0.0
C1568 C 0.46318 0.85208 0.98246 0.0
C1569 C 0.45542 0.82593 0.96629 0.0
C1570 C 0.48833 0.86831 0.97515 0.0
C1571 C 0.50626 0.8581 0.9512 0.0
C1572 C 0.49811 0.83225 0.93435 0.0
C1573 C 0.47284 0.81664 0.94197 0.0
C1574 C 0.49605 0.89598 0.99346 0.0
C1575 C 0.5166 0.82045 0.90871 0.0
C1576 C 0.56149 0.90834 0.91282 0.0
C1577 C 0.58801 0.89737 0.92564 0.0
C1578 C 0.53456 0.89687 0.92195 0.0
C1579 C 0.53412 0.87353 0.94416 0.0
C1580 C 0.56077 0.86304 0.95782 0.0
C1581 C 0.58734 0.8752 0.94851 0.0
C1582 C 0.50667 0.90902 0.90713 0.0
C1583 C 0.56137 0.83797 0.98133 0.0
H1584 H 0.44991 0.85961 1.00118 0.0
H1585 H 0.46719 0.79657 0.92919 0.0
H1586 H 0.5172 0.89141 1.00531 0.0
H1587 H 0.4989 0.91614 0.97858 0.0
H1588 H 0.47907 0.90197 1.01029 0.0
H1589 H 0.50691 0.80048 0.89739 0.0
H1590 H 0.51933 0.83895 0.89189 0.0
H1591 H 0.53877 0.8134 0.91709 0.0
H1592 H 0.56183 0.92577 0.89541 0.0
H1593 H 0.60775 0.86643 0.95834 0.0
H1594 H 0.49029 0.91575 0.92429 0.0
H1595 H 0.49708 0.89068 0.89337 0.0
H1596 H 0.5104 0.92917 0.89246 0.0
H1597 H 0.54591 0.84395 0.99956 0.0
H1598 H 0.58356 0.83385 0.99121 0.0
H1599 H 0.55415 0.81622 0.97122 0.0
C1600 C 0.96337 0.10127 0.43346 0.0
C1601 C 0.93584 0.11639 0.43598 0.0
C1602 C 0.98927 0.11562 0.44211 0.0
C1603 C 0.98776 0.14586 0.45375 0.0
C1604 C 0.95999 0.16091 0.45715 0.0
C1605 C 0.93446 0.14609 0.44816 0.0
C1606 C 0.01834 0.09876 0.43787 0.0
C1607 C 0.95727 0.19301 0.4697 0.0
C1608 C 0.05352 0.17733 0.49591 0.0
C1609 C 0.06614 0.19587 0.474 0.0
C1610 C 0.02824 0.1607 0.48964 0.0
C1611 C 0.01524 0.16245 0.46071 0.0
C1612 C 0.02824 0.1806 0.43837 0.0
C1613 C 0.05336 0.19707 0.44527 0.0
C1614 C 0.01511 0.1417 0.51415 0.0
C1615 C 0.01535 0.183 0.40716 0.0
H1616 H 0.9648 0.07851 0.42374 0.0
H1617 H 0.91333 0.15784 0.45058 0.0
H1618 H 0.03136 0.11105 0.42103 0.0
H1619 H 0.0311 0.09832 0.45911 0.0
H1620 H 0.01575 0.07474 0.43025 0.0
H1621 H 0.93409 0.20087 0.47257 0.0
H1622 H 0.96865 0.19399 0.4917 0.0
H1623 H 0.96802 0.20933 0.45451 0.0
H1624 H 0.06305 0.17622 0.51821 0.0
H1625 H 0.06285 0.21116 0.42805 0.0
H1626 H 1.01329 0.11754 0.50675 0.0
H1627 H 0.99263 0.15065 0.519 0.0
H1628 H 0.02828 0.14192 0.53516 0.0
H1629 H 1.01379 0.15975 0.39731 0.0
H1630 H 0.02854 0.1973 0.39205 0.0
H1631 H 0.9928 0.19323 0.40807 0.0
loop_
_geom_bond_atom_site_label_1
_geom_bond_atom_site_label_2
_geom_bond_distance
_geom_bond_site_symmetry_2
_ccdc_geom_bond_type
Gd0 C3 2.818 . S
Gd0 O20 2.377 . S
Gd0 O22 2.448 . S
Gd0 O23 2.506 . S
Gd0 O24 2.435 . S
Gd0 O25 2.717 . S
Gd0 O27 2.395 . S
Gd0 O31 2.327 . S
Gd1 C12 2.818 . S
Gd1 O21 2.395 . S
Gd1 O25 2.327 . S
Gd1 O26 2.377 . S
Gd1 O28 2.448 . S
Gd1 O29 2.506 . S
Gd1 O30 2.435 . S
Gd1 O31 2.717 . S
C2 O20 1.240 . S
C2 O21 1.240 . S
C3 Gd0 2.818 . S
C3 C4 1.510 . S
C3 O22 1.249 . S
C3 O23 1.252 . S
C4 C3 1.510 . S
C4 C5 1.404 . S
C4 C6 1.352 . S
C5 C4 1.404 . S
C5 C9 1.389 . S
C5 H32 0.930 . S
C6 C4 1.352 . S
C6 C8 1.374 . S
C6 H33 0.931 . S
C7 C8 1.359 . S
C7 C9 1.364 . S
C8 C6 1.374 . S
C8 C7 1.359 . S
C8 H34 0.931 . S
C9 C5 1.389 . S
C9 C7 1.364 . S
C9 H35 0.931 . S
C10 O24 1.256 . S
C10 O25 1.257 . S
C11 O26 1.240 . S
C11 O27 1.240 . S
C12 Gd1 2.818 . S
C12 C13 1.510 . S
C12 O28 1.249 . S
C12 O29 1.252 . S
C13 C12 1.510 . S
C13 C14 1.404 . S
C13 C15 1.352 . S
C14 C13 1.404 . S
C14 C18 1.389 . S
C14 H36 0.930 . S
C15 C13 1.352 . S
C15 C17 1.374 . S
C15 H37 0.931 . S
C16 C17 1.359 . S
C16 C18 1.364 . S
C17 C15 1.374 . S
C17 C16 1.359 . S
C17 H38 0.931 . S
C18 C14 1.389 . S
C18 C16 1.364 . S
C18 H39 0.931 . S
C19 O30 1.256 . S
C19 O31 1.257 . S
O20 Gd0 2.377 . S
O20 C2 1.240 . S
O21 Gd1 2.395 . S
O21 C2 1.240 . S
O22 Gd0 2.448 . S
O22 C3 1.249 . S
O23 Gd0 2.506 . S
O23 C3 1.252 . S
O24 Gd0 2.435 . S
O24 C10 1.256 . S
O25 Gd0 2.717 . S
O25 Gd1 2.327 . S
O25 C10 1.257 . S
O26 Gd1 2.377 . S
O26 C11 1.240 . S
O27 Gd0 2.395 . S
O27 C11 1.240 . S
O28 Gd1 2.448 . S
O28 C12 1.249 . S
O29 Gd1 2.506 . S
O29 C12 1.252 . S
O30 Gd1 2.435 . S
O30 C19 1.256 . S
O31 Gd0 2.327 . S
O31 Gd1 2.717 . S
O31 C19 1.257 . S
H32 C5 0.930 . S
H33 C6 0.931 . S
H34 C8 0.931 . S
H35 C9 0.931 . S
H36 C14 0.930 . S
H37 C15 0.931 . S
H38 C17 0.931 . S
H39 C18 0.931 . S
Gd40 C43 2.818 . S
Gd40 O60 2.377 1_655 S
Gd40 O62 2.448 . S
Gd40 O63 2.506 . S
Gd40 O64 2.435 1_655 S
Gd40 O65 2.717 1_655 S
Gd40 O67 2.395 . S
Gd40 O71 2.327 . S
Gd41 C52 2.818 . S
Gd41 O61 2.395 . S
Gd41 O65 2.327 . S
Gd41 O66 2.377 . S
Gd41 O68 2.448 . S
Gd41 O69 2.506 . S
Gd41 O70 2.435 1_455 S
Gd41 O71 2.717 1_455 S
C42 O60 1.240 . S
C42 O61 1.240 . S
C43 Gd40 2.818 . S
C43 C44 1.510 . S
C43 O62 1.249 . S
C43 O63 1.252 . S
C44 C43 1.510 . S
C44 C45 1.404 . S
C44 C46 1.352 . S
C45 C44 1.404 . S
C45 C49 1.389 . S
C45 H72 0.930 . S
C46 C44 1.352 . S
C46 C48 1.374 . S
C46 H73 0.931 . S
C47 C48 1.359 . S
C47 C49 1.364 . S
C48 C46 1.374 . S
C48 C47 1.359 . S
C48 H74 0.931 . S
C49 C45 1.389 . S
C49 C47 1.364 . S
C49 H75 0.931 . S
C50 O64 1.256 . S
C50 O65 1.257 . S
C51 O66 1.240 1_655 S
C51 O67 1.240 . S
C52 Gd41 2.818 . S
C52 C53 1.510 . S
C52 O68 1.249 . S
C52 O69 1.252 . S
C53 C52 1.510 . S
C53 C54 1.404 . S
C53 C55 1.352 . S
C54 C53 1.404 . S
C54 C58 1.389 . S
C54 H76 0.930 . S
C55 C53 1.352 . S
C55 C57 1.374 . S
C55 H77 0.931 . S
C56 C57 1.359 . S
C56 C58 1.364 . S
C57 C55 1.374 . S
C57 C56 1.359 . S
C57 H78 0.931 . S
C58 C54 1.389 . S
C58 C56 1.364 . S
C58 H79 0.931 . S
C59 O70 1.256 . S
C59 O71 1.257 . S
O60 Gd40 2.377 1_455 S
O60 C42 1.240 . S
O61 Gd41 2.395 . S
O61 C42 1.240 . S
O62 Gd40 2.448 . S
O62 C43 1.249 . S
O63 Gd40 2.506 . S
O63 C43 1.252 . S
O64 Gd40 2.435 1_455 S
O64 C50 1.256 . S
O65 Gd40 2.717 1_455 S
O65 Gd41 2.327 . S
O65 C50 1.257 . S
O66 Gd41 2.377 . S
O66 C51 1.240 1_455 S
O67 Gd40 2.395 . S
O67 C51 1.240 . S
O68 Gd41 2.448 . S
O68 C52 1.249 . S
O69 Gd41 2.506 . S
O69 C52 1.252 . S
O70 Gd41 2.435 1_655 S
O70 C59 1.256 . S
O71 Gd40 2.327 . S
O71 Gd41 2.717 1_655 S
O71 C59 1.257 . S
H72 C45 0.930 . S
H73 C46 0.931 . S
H74 C48 0.931 . S
H75 C49 0.931 . S
H76 C54 0.930 . S
H77 C55 0.931 . S
H78 C57 0.931 . S
H79 C58 0.931 . S
Gd80 C83 2.818 . S
Gd80 O100 2.377 1_554 S
Gd80 O102 2.448 . S
Gd80 O103 2.506 . S
Gd80 O104 2.435 1_554 S
Gd80 O105 2.717 1_554 S
Gd80 O107 2.395 . S
Gd80 O111 2.327 . S
Gd81 C92 2.818 . S
Gd81 O101 2.395 . S
Gd81 O105 2.327 . S
Gd81 O106 2.377 . S
Gd81 O108 2.448 . S
Gd81 O109 2.506 . S
Gd81 O110 2.435 . S
Gd81 O111 2.717 1_556 S
C82 O100 1.240 . S
C82 O101 1.240 . S
C83 Gd80 2.818 . S
C83 C84 1.510 . S
C83 O102 1.249 . S
C83 O103 1.252 . S
C84 C83 1.510 . S
C84 C85 1.404 . S
C84 C86 1.352 . S
C85 C84 1.404 . S
C85 C89 1.389 . S
C85 H112 0.930 . S
C86 C84 1.352 . S
C86 C88 1.374 . S
C86 H113 0.931 . S
C87 C88 1.359 . S
C87 C89 1.364 . S
C88 C86 1.374 . S
C88 C87 1.359 . S
C88 H114 0.931 . S
C89 C85 1.389 . S
C89 C87 1.364 . S
C89 H115 0.931 . S
C90 O104 1.256 . S
C90 O105 1.257 . S
C91 O106 1.240 1_554 S
C91 O107 1.240 . S
C92 Gd81 2.818 . S
C92 C93 1.510 . S
C92 O108 1.249 . S
C92 O109 1.252 . S
C93 C92 1.510 . S
C93 C94 1.404 . S
C93 C95 1.352 . S
C94 C93 1.404 . S
C94 C98 1.389 . S
C94 H116 0.930 . S
C95 C93 1.352 . S
C95 C97 1.374 . S
C95 H117 0.931 . S
C96 C97 1.359 . S
C96 C98 1.364 . S
C97 C95 1.374 . S
C97 C96 1.359 . S
C97 H118 0.931 . S
C98 C94 1.389 . S
C98 C96 1.364 . S
C98 H119 0.931 . S
C99 O110 1.256 1_554 S
C99 O111 1.257 . S
O100 Gd80 2.377 1_556 S
O100 C82 1.240 . S
O101 Gd81 2.395 . S
O101 C82 1.240 . S
O102 Gd80 2.448 . S
O102 C83 1.249 . S
O103 Gd80 2.506 . S
O103 C83 1.252 . S
O104 Gd80 2.435 1_556 S
O104 C90 1.256 . S
O105 Gd80 2.717 1_556 S
O105 Gd81 2.327 . S
O105 C90 1.257 . S
O106 Gd81 2.377 . S
O106 C91 1.240 1_556 S
O107 Gd80 2.395 . S
O107 C91 1.240 . S
O108 Gd81 2.448 . S
O108 C92 1.249 . S
O109 Gd81 2.506 . S
O109 C92 1.252 . S
O110 Gd81 2.435 . S
O110 C99 1.256 1_556 S
O111 Gd80 2.327 . S
O111 Gd81 2.717 1_554 S
O111 C99 1.257 . S
H112 C85 0.930 . S
H113 C86 0.931 . S
H114 C88 0.931 . S
H115 C89 0.931 . S
H116 C94 0.930 . S
H117 C95 0.931 . S
H118 C97 0.931 . S
H119 C98 0.931 . S
Gd120 C123 2.818 . S
Gd120 O140 2.377 . S
Gd120 O142 2.448 . S
Gd120 O143 2.506 . S
Gd120 O144 2.435 . S
Gd120 O145 2.717 . S
Gd120 O147 2.395 . S
Gd120 O151 2.327 . S
Gd121 C132 2.818 . S
Gd121 O141 2.395 . S
Gd121 O145 2.327 . S
Gd121 O146 2.377 . S
Gd121 O148 2.448 . S
Gd121 O149 2.506 . S
Gd121 O150 2.435 . S
Gd121 O151 2.717 . S
C122 O140 1.240 . S
C122 O141 1.240 . S
C123 Gd120 2.818 . S
C123 C124 1.510 . S
C123 O142 1.249 . S
C123 O143 1.252 . S
C124 C123 1.510 . S
C124 C125 1.404 . S
C124 C126 1.352 . S
C125 C124 1.404 . S
C125 C129 1.389 . S
C125 H152 0.930 . S
C126 C124 1.352 . S
C126 C128 1.374 . S
C126 H153 0.931 . S
C127 C128 1.359 . S
C127 C129 1.364 . S
C128 C126 1.374 . S
C128 C127 1.359 . S
C128 H154 0.931 . S
C129 C125 1.389 . S
C129 C127 1.364 . S
C129 H155 0.931 . S
C130 O144 1.256 . S
C130 O145 1.257 . S
C131 O146 1.240 . S
C131 O147 1.240 . S
C132 Gd121 2.818 . S
C132 C133 1.510 . S
C132 O148 1.249 . S
C132 O149 1.252 . S
C133 C132 1.510 . S
C133 C134 1.404 . S
C133 C135 1.352 . S
C134 C133 1.404 . S
C134 C138 1.389 . S
C134 H156 0.930 . S
C135 C133 1.352 . S
C135 C137 1.374 . S
C135 H157 0.931 . S
C136 C137 1.359 . S
C136 C138 1.364 . S
C137 C135 1.374 . S
C137 C136 1.359 . S
C137 H158 0.931 . S
C138 C134 1.389 . S
C138 C136 1.364 . S
C138 H159 0.931 . S
C139 O150 1.256 . S
C139 O151 1.257 . S
O140 Gd120 2.377 . S
O140 C122 1.240 . S
O141 Gd121 2.395 . S
O141 C122 1.240 . S
O142 Gd120 2.448 . S
O142 C123 1.249 . S
O143 Gd120 2.506 . S
O143 C123 1.252 . S
O144 Gd120 2.435 . S
O144 C130 1.256 . S
O145 Gd120 2.717 . S
O145 Gd121 2.327 . S
O145 C130 1.257 . S
O146 Gd121 2.377 . S
O146 C131 1.240 . S
O147 Gd120 2.395 . S
O147 C131 1.240 . S
O148 Gd121 2.448 . S
O148 C132 1.249 . S
O149 Gd121 2.506 . S
O149 C132 1.252 . S
O150 Gd121 2.435 . S
O150 C139 1.256 . S
O151 Gd120 2.327 . S
O151 Gd121 2.717 . S
O151 C139 1.257 . S
H152 C125 0.930 . S
H153 C126 0.931 . S
H154 C128 0.931 . S
H155 C129 0.931 . S
H156 C134 0.930 . S
H157 C135 0.931 . S
H158 C137 0.931 . S
H159 C138 0.931 . S
Gd160 C163 2.818 . S
Gd160 O180 2.377 . S
Gd160 O182 2.448 . S
Gd160 O183 2.506 . S
Gd160 O184 2.435 . S
Gd160 O185 2.717 . S
Gd160 O187 2.395 . S
Gd160 O191 2.327 . S
Gd161 C172 2.818 . S
Gd161 O181 2.395 . S
Gd161 O185 2.327 . S
Gd161 O186 2.377 . S
Gd161 O188 2.448 . S
Gd161 O189 2.506 . S
Gd161 O190 2.435 . S
Gd161 O191 2.717 . S
C162 O180 1.240 . S
C162 O181 1.240 . S
C163 Gd160 2.818 . S
C163 C164 1.510 . S
C163 O182 1.249 . S
C163 O183 1.252 . S
C164 C163 1.510 . S
C164 C165 1.404 . S
C164 C166 1.352 . S
C165 C164 1.404 . S
C165 C169 1.389 . S
C165 H192 0.930 . S
C166 C164 1.352 . S
C166 C168 1.374 . S
C166 H193 0.931 . S
C167 C168 1.359 . S
C167 C169 1.364 . S
C168 C166 1.374 . S
C168 C167 1.359 . S
C168 H194 0.931 . S
C169 C165 1.389 . S
C169 C167 1.364 . S
C169 H195 0.931 . S
C170 O184 1.256 . S
C170 O185 1.257 . S
C171 O186 1.240 . S
C171 O187 1.240 . S
C172 Gd161 2.818 . S
C172 C173 1.510 . S
C172 O188 1.249 . S
C172 O189 1.252 . S
C173 C172 1.510 . S
C173 C174 1.404 . S
C173 C175 1.352 . S
C174 C173 1.404 . S
C174 C178 1.389 . S
C174 H196 0.930 . S
C175 C173 1.352 . S
C175 C177 1.374 . S
C175 H197 0.931 . S
C176 C177 1.359 . S
C176 C178 1.364 . S
C177 C175 1.374 . S
C177 C176 1.359 . S
C177 H198 0.931 . S
C178 C174 1.389 . S
C178 C176 1.364 . S
C178 H199 0.931 . S
C179 O190 1.256 . S
C179 O191 1.257 . S
O180 Gd160 2.377 . S
O180 C162 1.240 . S
O181 Gd161 2.395 . S
O181 C162 1.240 . S
O182 Gd160 2.448 . S
O182 C163 1.249 . S
O183 Gd160 2.506 . S
O183 C163 1.252 . S
O184 Gd160 2.435 . S
O184 C170 1.256 . S
O185 Gd160 2.717 . S
O185 Gd161 2.327 . S
O185 C170 1.257 . S
O186 Gd161 2.377 . S
O186 C171 1.240 . S
O187 Gd160 2.395 . S
O187 C171 1.240 . S
O188 Gd161 2.448 . S
O188 C172 1.249 . S
O189 Gd161 2.506 . S
O189 C172 1.252 . S
O190 Gd161 2.435 . S
O190 C179 1.256 . S
O191 Gd160 2.327 . S
O191 Gd161 2.717 . S
O191 C179 1.257 . S
H192 C165 0.930 . S
H193 C166 0.931 . S
H194 C168 0.931 . S
H195 C169 0.931 . S
H196 C174 0.930 . S
H197 C175 0.931 . S
H198 C177 0.931 . S
H199 C178 0.931 . S
Gd200 C203 2.818 . S
Gd200 O220 2.377 . S
Gd200 O222 2.448 . S
Gd200 O223 2.506 . S
Gd200 O224 2.435 . S
Gd200 O225 2.717 . S
Gd200 O227 2.395 1_655 S
Gd200 O231 2.327 . S
Gd201 C212 2.818 . S
Gd201 O221 2.395 1_455 S
Gd201 O225 2.327 1_455 S
Gd201 O226 2.377 . S
Gd201 O228 2.448 . S
Gd201 O229 2.506 . S
Gd201 O230 2.435 . S
Gd201 O231 2.717 1_455 S
C202 O220 1.240 . S
C202 O221 1.240 . S
C203 Gd200 2.818 . S
C203 C204 1.510 . S
C203 O222 1.249 . S
C203 O223 1.252 . S
C204 C203 1.510 . S
C204 C205 1.404 . S
C204 C206 1.352 . S
C205 C204 1.404 . S
C205 C209 1.389 . S
C205 H232 0.930 . S
C206 C204 1.352 . S
C206 C208 1.374 . S
C206 H233 0.931 . S
C207 C208 1.359 . S
C207 C209 1.364 . S
C208 C206 1.374 . S
C208 C207 1.359 . S
C208 H234 0.931 . S
C209 C205 1.389 . S
C209 C207 1.364 . S
C209 H235 0.931 . S
C210 O224 1.256 . S
C210 O225 1.257 . S
C211 O226 1.240 . S
C211 O227 1.240 . S
C212 Gd201 2.818 . S
C212 C213 1.510 . S
C212 O228 1.249 . S
C212 O229 1.252 . S
C213 C212 1.510 . S
C213 C214 1.404 . S
C213 C215 1.352 . S
C214 C213 1.404 . S
C214 C218 1.389 . S
C214 H236 0.930 . S
C215 C213 1.352 . S
C215 C217 1.374 . S
C215 H237 0.931 . S
C216 C217 1.359 . S
C216 C218 1.364 . S
C217 C215 1.374 . S
C217 C216 1.359 . S
C217 H238 0.931 . S
C218 C214 1.389 . S
C218 C216 1.364 . S
C218 H239 0.931 . S
C219 O230 1.256 . S
C219 O231 1.257 1_455 S
O220 Gd200 2.377 . S
O220 C202 1.240 . S
O221 Gd201 2.395 1_655 S
O221 C202 1.240 . S
O222 Gd200 2.448 . S
O222 C203 1.249 . S
O223 Gd200 2.506 . S
O223 C203 1.252 . S
O224 Gd200 2.435 . S
O224 C210 1.256 . S
O225 Gd200 2.717 . S
O225 Gd201 2.327 1_655 S
O225 C210 1.257 . S
O226 Gd201 2.377 . S
O226 C211 1.240 . S
O227 Gd200 2.395 1_455 S
O227 C211 1.240 . S
O228 Gd201 2.448 . S
O228 C212 1.249 . S
O229 Gd201 2.506 . S
O229 C212 1.252 . S
O230 Gd201 2.435 . S
O230 C219 1.256 . S
O231 Gd200 2.327 . S
O231 Gd201 2.717 1_655 S
O231 C219 1.257 1_655 S
H232 C205 0.930 . S
H233 C206 0.931 . S
H234 C208 0.931 . S
H235 C209 0.931 . S
H236 C214 0.930 . S
H237 C215 0.931 . S
H238 C217 0.931 . S
H239 C218 0.931 . S
Gd240 C243 2.818 . S
Gd240 O260 2.377 . S
Gd240 O262 2.448 . S
Gd240 O263 2.506 . S
Gd240 O264 2.435 . S
Gd240 O265 2.717 . S
Gd240 O267 2.395 1_554 S
Gd240 O271 2.318 1_554 S
Gd241 C252 2.818 . S
Gd241 O261 2.395 1_556 S
Gd241 O265 2.327 1_556 S
Gd241 O266 2.377 . S
Gd241 O268 2.448 . S
Gd241 O269 2.506 . S
Gd241 O270 2.435 . S
Gd241 O271 2.722 . S
C242 O260 1.240 . S
C242 O261 1.240 . S
C243 Gd240 2.818 . S
C243 C244 1.510 . S
C243 O262 1.249 . S
C243 O263 1.252 . S
C244 C243 1.510 . S
C244 C245 1.404 . S
C244 C246 1.352 . S
C245 C244 1.404 . S
C245 C249 1.389 . S
C245 H272 0.930 . S
C246 C244 1.352 . S
C246 C248 1.374 . S
C246 H273 0.931 . S
C247 C248 1.359 . S
C247 C249 1.364 . S
C248 C246 1.374 . S
C248 C247 1.359 . S
C248 H274 0.931 . S
C249 C245 1.389 . S
C249 C247 1.364 . S
C249 H275 0.931 . S
C250 O264 1.256 . S
C250 O265 1.257 . S
C251 O266 1.240 . S
C251 O267 1.240 . S
C252 Gd241 2.818 . S
C252 C253 1.510 . S
C252 O268 1.249 . S
C252 O269 1.252 . S
C253 C252 1.510 . S
C253 C254 1.404 . S
C253 C255 1.352 . S
C254 C253 1.404 . S
C254 C258 1.389 . S
C254 H276 0.930 . S
C255 C253 1.352 . S
C255 C257 1.374 . S
C255 H277 0.931 . S
C256 C257 1.359 . S
C256 C258 1.364 . S
C257 C255 1.374 . S
C257 C256 1.359 . S
C257 H278 0.931 . S
C258 C254 1.389 . S
C258 C256 1.364 . S
C258 H279 0.931 . S
C259 O270 1.256 . S
C259 O271 1.267 . S
O260 Gd240 2.377 . S
O260 C242 1.240 . S
O261 Gd241 2.395 1_554 S
O261 C242 1.240 . S
O262 Gd240 2.448 . S
O262 C243 1.249 . S
O263 Gd240 2.506 . S
O263 C243 1.252 . S
O264 Gd240 2.435 . S
O264 C250 1.256 . S
O265 Gd240 2.717 . S
O265 Gd241 2.327 1_554 S
O265 C250 1.257 . S
O266 Gd241 2.377 . S
O266 C251 1.240 . S
O267 Gd240 2.395 1_556 S
O267 C251 1.240 . S
O268 Gd241 2.448 . S
O268 C252 1.249 . S
O269 Gd241 2.506 . S
O269 C252 1.252 . S
O270 Gd241 2.435 . S
O270 C259 1.256 . S
O271 Gd240 2.318 1_556 S
O271 Gd241 2.722 . S
O271 C259 1.267 . S
H272 C245 0.930 . S
H273 C246 0.931 . S
H274 C248 0.931 . S
H275 C249 0.931 . S
H276 C254 0.930 . S
H277 C255 0.931 . S
H278 C257 0.931 . S
H279 C258 0.931 . S
Gd280 C283 2.818 . S
Gd280 O300 2.377 . S
Gd280 O302 2.448 . S
Gd280 O303 2.506 . S
Gd280 O304 2.435 . S
Gd280 O305 2.717 . S
Gd280 O307 2.395 . S
Gd280 O311 2.327 . S
Gd281 C292 2.818 . S
Gd281 O301 2.395 . S
Gd281 O305 2.327 . S
Gd281 O306 2.377 . S
Gd281 O308 2.448 . S
Gd281 O309 2.506 . S
Gd281 O310 2.435 . S
Gd281 O311 2.717 . S
C282 O300 1.240 . S
C282 O301 1.240 . S
C283 Gd280 2.818 . S
C283 C284 1.510 . S
C283 O302 1.249 . S
C283 O303 1.252 . S
C284 C283 1.510 . S
C284 C285 1.404 . S
C284 C286 1.352 . S
C285 C284 1.404 . S
C285 C289 1.389 . S
C285 H312 0.930 . S
C286 C284 1.352 . S
C286 C288 1.374 . S
C286 H313 0.931 . S
C287 C288 1.359 . S
C287 C289 1.364 . S
C288 C286 1.374 . S
C288 C287 1.359 . S
C288 H314 0.931 . S
C289 C285 1.389 . S
C289 C287 1.364 . S
C289 H315 0.931 . S
C290 O304 1.256 . S
C290 O305 1.257 . S
C291 O306 1.240 . S
C291 O307 1.240 . S
C292 Gd281 2.818 . S
C292 C293 1.510 . S
C292 O308 1.249 . S
C292 O309 1.252 . S
C293 C292 1.510 . S
C293 C294 1.404 . S
C293 C295 1.352 . S
C294 C293 1.404 . S
C294 C298 1.389 . S
C294 H316 0.930 . S
C295 C293 1.352 . S
C295 C297 1.374 . S
C295 H317 0.931 . S
C296 C297 1.359 . S
C296 C298 1.364 . S
C297 C295 1.374 . S
C297 C296 1.359 . S
C297 H318 0.931 . S
C298 C294 1.389 . S
C298 C296 1.364 . S
C298 H319 0.931 . S
C299 O310 1.256 . S
C299 O311 1.257 . S
O300 Gd280 2.377 . S
O300 C282 1.240 . S
O301 Gd281 2.395 . S
O301 C282 1.240 . S
O302 Gd280 2.448 . S
O302 C283 1.249 . S
O303 Gd280 2.506 . S
O303 C283 1.252 . S
O304 Gd280 2.435 . S
O304 C290 1.256 . S
O305 Gd280 2.717 . S
O305 Gd281 2.327 . S
O305 C290 1.257 . S
O306 Gd281 2.377 . S
O306 C291 1.240 . S
O307 Gd280 2.395 . S
O307 C291 1.240 . S
O308 Gd281 2.448 . S
O308 C292 1.249 . S
O309 Gd281 2.506 . S
O309 C292 1.252 . S
O310 Gd281 2.435 . S
O310 C299 1.256 . S
O311 Gd280 2.327 . S
O311 Gd281 2.717 . S
O311 C299 1.257 . S
H312 C285 0.930 . S
H313 C286 0.931 . S
H314 C288 0.931 . S
H315 C289 0.931 . S
H316 C294 0.930 . S
H317 C295 0.931 . S
H318 C297 0.931 . S
H319 C298 0.931 . S
Gd320 C323 2.818 . S
Gd320 O340 2.377 . S
Gd320 O342 2.448 . S
Gd320 O343 2.506 . S
Gd320 O344 2.435 . S
Gd320 O345 2.717 . S
Gd320 O347 2.395 . S
Gd320 O351 2.327 . S
Gd321 C332 2.818 . S
Gd321 O341 2.395 . S
Gd321 O345 2.327 . S
Gd321 O346 2.377 . S
Gd321 O348 2.448 . S
Gd321 O349 2.506 . S
Gd321 O350 2.435 . S
Gd321 O351 2.717 . S
C322 O340 1.240 . S
C322 O341 1.240 . S
C323 Gd320 2.818 . S
C323 C324 1.510 . S
C323 O342 1.249 . S
C323 O343 1.252 . S
C324 C323 1.510 . S
C324 C325 1.404 . S
C324 C326 1.352 . S
C325 C324 1.404 . S
C325 C329 1.389 . S
C325 H352 0.930 . S
C326 C324 1.352 . S
C326 C328 1.374 . S
C326 H353 0.931 . S
C327 C328 1.359 . S
C327 C329 1.364 . S
C328 C326 1.374 . S
C328 C327 1.359 . S
C328 H354 0.931 . S
C329 C325 1.389 . S
C329 C327 1.364 . S
C329 H355 0.931 . S
C330 O344 1.256 . S
C330 O345 1.257 . S
C331 O346 1.240 . S
C331 O347 1.240 . S
C332 Gd321 2.818 . S
C332 C333 1.510 . S
C332 O348 1.249 . S
C332 O349 1.252 . S
C333 C332 1.510 . S
C333 C334 1.404 . S
C333 C335 1.352 . S
C334 C333 1.404 . S
C334 C338 1.389 . S
C334 H356 0.930 . S
C335 C333 1.352 . S
C335 C337 1.374 . S
C335 H357 0.931 . S
C336 C337 1.359 . S
C336 C338 1.364 . S
C337 C335 1.374 . S
C337 C336 1.359 . S
C337 H358 0.931 . S
C338 C334 1.389 . S
C338 C336 1.364 . S
C338 H359 0.931 . S
C339 O350 1.256 . S
C339 O351 1.257 . S
O340 Gd320 2.377 . S
O340 C322 1.240 . S
O341 Gd321 2.395 . S
O341 C322 1.240 . S
O342 Gd320 2.448 . S
O342 C323 1.249 . S
O343 Gd320 2.506 . S
O343 C323 1.252 . S
O344 Gd320 2.435 . S
O344 C330 1.256 . S
O345 Gd320 2.717 . S
O345 Gd321 2.327 . S
O345 C330 1.257 . S
O346 Gd321 2.377 . S
O346 C331 1.240 . S
O347 Gd320 2.395 . S
O347 C331 1.240 . S
O348 Gd321 2.448 . S
O348 C332 1.249 . S
O349 Gd321 2.506 . S
O349 C332 1.252 . S
O350 Gd321 2.435 . S
O350 C339 1.256 . S
O351 Gd320 2.327 . S
O351 Gd321 2.717 . S
O351 C339 1.257 . S
H352 C325 0.930 . S
H353 C326 0.931 . S
H354 C328 0.931 . S
H355 C329 0.931 . S
H356 C334 0.930 . S
H357 C335 0.931 . S
H358 C337 0.931 . S
H359 C338 0.931 . S
Gd360 C363 2.818 . S
Gd360 O380 2.377 1_565 S
Gd360 O382 2.448 . S
Gd360 O383 2.506 . S
Gd360 O384 2.435 1_565 S
Gd360 O385 2.717 1_565 S
Gd360 O387 2.395 . S
Gd360 O391 2.327 . S
Gd361 C372 2.818 . S
Gd361 O381 2.395 . S
Gd361 O385 2.327 . S
Gd361 O386 2.377 . S
Gd361 O388 2.448 . S
Gd361 O389 2.506 . S
Gd361 O390 2.435 . S
Gd361 O391 2.717 1_545 S
C362 O380 1.240 . S
C362 O381 1.240 . S
C363 Gd360 2.818 . S
C363 C364 1.510 . S
C363 O382 1.249 . S
C363 O383 1.252 . S
C364 C363 1.510 . S
C364 C365 1.404 . S
C364 C366 1.352 . S
C365 C364 1.404 . S
C365 C369 1.389 . S
C365 H392 0.930 . S
C366 C364 1.352 . S
C366 C368 1.374 . S
C366 H393 0.931 . S
C367 C368 1.359 . S
C367 C369 1.364 . S
C368 C366 1.374 . S
C368 C367 1.359 . S
C368 H394 0.931 . S
C369 C365 1.389 . S
C369 C367 1.364 . S
C369 H395 0.931 . S
C370 O384 1.256 . S
C370 O385 1.257 . S
C371 O386 1.240 1_565 S
C371 O387 1.240 . S
C372 Gd361 2.818 . S
C372 C373 1.510 . S
C372 O388 1.249 . S
C372 O389 1.252 . S
C373 C372 1.510 . S
C373 C374 1.404 . S
C373 C375 1.352 . S
C374 C373 1.404 . S
C374 C378 1.389 . S
C374 H396 0.930 . S
C375 C373 1.352 . S
C375 C377 1.374 . S
C375 H397 0.931 . S
C376 C377 1.359 . S
C376 C378 1.364 . S
C377 C375 1.374 . S
C377 C376 1.359 . S
C377 H398 0.931 . S
C378 C374 1.389 . S
C378 C376 1.364 . S
C378 H399 0.931 . S
C379 O390 1.256 1_565 S
C379 O391 1.257 . S
O380 Gd360 2.377 1_545 S
O380 C362 1.240 . S
O381 Gd361 2.395 . S
O381 C362 1.240 . S
O382 Gd360 2.448 . S
O382 C363 1.249 . S
O383 Gd360 2.506 . S
O383 C363 1.252 . S
O384 Gd360 2.435 1_545 S
O384 C370 1.256 . S
O385 Gd360 2.717 1_545 S
O385 Gd361 2.327 . S
O385 C370 1.257 . S
O386 Gd361 2.377 . S
O386 C371 1.240 1_545 S
O387 Gd360 2.395 . S
O387 C371 1.240 . S
O388 Gd361 2.448 . S
O388 C372 1.249 . S
O389 Gd361 2.506 . S
O389 C372 1.252 . S
O390 Gd361 2.435 . S
O390 C379 1.256 1_545 S
O391 Gd360 2.327 . S
O391 Gd361 2.717 1_565 S
O391 C379 1.257 . S
H392 C365 0.930 . S
H393 C366 0.931 . S
H394 C368 0.931 . S
H395 C369 0.931 . S
H396 C374 0.930 . S
H397 C375 0.931 . S
H398 C377 0.931 . S
H399 C378 0.931 . S
Gd400 C403 2.818 . S
Gd400 O420 2.377 . S
Gd400 O422 2.448 . S
Gd400 O423 2.506 . S
Gd400 O424 2.435 . S
Gd400 O425 2.717 . S
Gd400 O427 2.395 1_565 S
Gd400 O431 2.327 . S
Gd401 C412 2.818 . S
Gd401 O421 2.395 1_545 S
Gd401 O425 2.327 1_545 S
Gd401 O426 2.377 . S
Gd401 O428 2.448 . S
Gd401 O429 2.506 . S
Gd401 O430 2.435 . S
Gd401 O431 2.717 1_545 S
C402 O420 1.240 . S
C402 O421 1.240 . S
C403 Gd400 2.818 . S
C403 C404 1.510 . S
C403 O422 1.249 . S
C403 O423 1.252 . S
C404 C403 1.510 . S
C404 C405 1.404 . S
C404 C406 1.352 . S
C405 C404 1.404 . S
C405 C409 1.389 . S
C405 H432 0.930 . S
C406 C404 1.352 . S
C406 C408 1.374 . S
C406 H433 0.931 . S
C407 C408 1.359 . S
C407 C409 1.364 . S
C408 C406 1.374 . S
C408 C407 1.359 . S
C408 H434 0.931 . S
C409 C405 1.389 . S
C409 C407 1.364 . S
C409 H435 0.931 . S
C410 O424 1.256 . S
C410 O425 1.257 . S
C411 O426 1.240 . S
C411 O427 1.240 . S
C412 Gd401 2.818 . S
C412 C413 1.510 . S
C412 O428 1.249 . S
C412 O429 1.252 . S
C413 C412 1.510 . S
C413 C414 1.404 . S
C413 C415 1.352 . S
C414 C413 1.404 . S
C414 C418 1.389 . S
C414 H436 0.930 . S
C415 C413 1.352 . S
C415 C417 1.374 . S
C415 H437 0.931 . S
C416 C417 1.359 . S
C416 C418 1.364 . S
C417 C415 1.374 . S
C417 C416 1.359 . S
C417 H438 0.931 . S
C418 C414 1.389 . S
C418 C416 1.364 . S
C418 H439 0.931 . S
C419 O430 1.256 . S
C419 O431 1.257 1_545 S
O420 Gd400 2.377 . S
O420 C402 1.240 . S
O421 Gd401 2.395 1_565 S
O421 C402 1.240 . S
O422 Gd400 2.448 . S
O422 C403 1.249 . S
O423 Gd400 2.506 . S
O423 C403 1.252 . S
O424 Gd400 2.435 . S
O424 C410 1.256 . S
O425 Gd400 2.717 . S
O425 Gd401 2.327 1_565 S
O425 C410 1.257 . S
O426 Gd401 2.377 . S
O426 C411 1.240 . S
O427 Gd400 2.395 1_545 S
O427 C411 1.240 . S
O428 Gd401 2.448 . S
O428 C412 1.249 . S
O429 Gd401 2.506 . S
O429 C412 1.252 . S
O430 Gd401 2.435 . S
O430 C419 1.256 . S
O431 Gd400 2.327 . S
O431 Gd401 2.717 1_565 S
O431 C419 1.257 1_565 S
H432 C405 0.930 . S
H433 C406 0.931 . S
H434 C408 0.931 . S
H435 C409 0.931 . S
H436 C414 0.930 . S
H437 C415 0.931 . S
H438 C417 0.931 . S
H439 C418 0.931 . S
Gd440 C443 2.818 . S
Gd440 O460 2.377 . S
Gd440 O462 2.448 . S
Gd440 O463 2.506 . S
Gd440 O464 2.435 . S
Gd440 O465 2.717 . S
Gd440 O467 2.395 . S
Gd440 O471 2.327 . S
Gd441 C452 2.818 . S
Gd441 O461 2.395 . S
Gd441 O465 2.327 . S
Gd441 O466 2.377 . S
Gd441 O468 2.448 . S
Gd441 O469 2.506 . S
Gd441 O470 2.435 . S
Gd441 O471 2.717 . S
C442 O460 1.240 . S
C442 O461 1.240 . S
C443 Gd440 2.818 . S
C443 C444 1.510 . S
C443 O462 1.249 . S
C443 O463 1.252 . S
C444 C443 1.510 . S
C444 C445 1.404 . S
C444 C446 1.352 . S
C445 C444 1.404 . S
C445 C449 1.389 . S
C445 H472 0.930 . S
C446 C444 1.352 . S
C446 C448 1.374 . S
C446 H473 0.931 . S
C447 C448 1.359 . S
C447 C449 1.364 . S
C448 C446 1.374 . S
C448 C447 1.359 . S
C448 H474 0.931 . S
C449 C445 1.389 . S
C449 C447 1.364 . S
C449 H475 0.931 . S
C450 O464 1.256 . S
C450 O465 1.257 . S
C451 O466 1.240 . S
C451 O467 1.240 . S
C452 Gd441 2.818 . S
C452 C453 1.510 . S
C452 O468 1.249 . S
C452 O469 1.252 . S
C453 C452 1.510 . S
C453 C454 1.404 . S
C453 C455 1.352 . S
C454 C453 1.404 . S
C454 C458 1.389 . S
C454 H476 0.930 . S
C455 C453 1.352 . S
C455 C457 1.374 . S
C455 H477 0.931 . S
C456 C457 1.359 . S
C456 C458 1.364 . S
C457 C455 1.374 . S
C457 C456 1.359 . S
C457 H478 0.931 . S
C458 C454 1.389 . S
C458 C456 1.364 . S
C458 H479 0.931 . S
C459 O470 1.256 . S
C459 O471 1.257 . S
O460 Gd440 2.377 . S
O460 C442 1.240 . S
O461 Gd441 2.395 . S
O461 C442 1.240 . S
O462 Gd440 2.448 . S
O462 C443 1.249 . S
O463 Gd440 2.506 . S
O463 C443 1.252 . S
O464 Gd440 2.435 . S
O464 C450 1.256 . S
O465 Gd440 2.717 . S
O465 Gd441 2.327 . S
O465 C450 1.257 . S
O466 Gd441 2.377 . S
O466 C451 1.240 . S
O467 Gd440 2.395 . S
O467 C451 1.240 . S
O468 Gd441 2.448 . S
O468 C452 1.249 . S
O469 Gd441 2.506 . S
O469 C452 1.252 . S
O470 Gd441 2.435 . S
O470 C459 1.256 . S
O471 Gd440 2.327 . S
O471 Gd441 2.717 . S
O471 C459 1.257 . S
H472 C445 0.930 . S
H473 C446 0.931 . S
H474 C448 0.931 . S
H475 C449 0.931 . S
H476 C454 0.930 . S
H477 C455 0.931 . S
H478 C457 0.931 . S
H479 C458 0.931 . S
C480 C481 1.391 . S
C480 C482 1.394 . S
C480 H496 0.931 . S
C481 C480 1.391 . S
C481 C485 1.376 . S
C482 C480 1.394 . S
C482 C483 1.369 . S
C482 C486 1.531 . S
C483 C482 1.369 . S
C483 C484 1.410 . S
C483 C491 1.503 . S
C484 C483 1.410 . S
C484 C485 1.392 . S
C484 C487 1.511 . S
C485 C481 1.376 . S
C485 C484 1.392 . S
C485 H497 0.929 . S
C486 C482 1.531 . S
C486 H498 0.960 . S
C486 H499 0.962 . S
C486 H500 0.960 . S
C487 C484 1.511 . S
C487 H501 0.961 . S
C487 H502 0.961 . S
C487 H503 0.961 . S
C488 C489 1.370 . S
C488 C490 1.363 . S
C488 H504 0.931 . S
C489 C488 1.370 . S
C489 C493 1.408 . S
C490 C488 1.363 . S
C490 C491 1.370 . S
C490 C494 1.524 . S
C491 C483 1.503 . S
C491 C490 1.370 . S
C491 C492 1.403 . S
C492 C491 1.403 . S
C492 C493 1.404 . S
C492 C495 1.539 . S
C493 C489 1.408 . S
C493 C492 1.404 . S
C493 H505 0.930 . S
C494 C490 1.524 . S
C494 H506 0.956 . S
C494 H507 0.961 . S
C494 H508 0.961 . S
C495 C492 1.539 . S
C495 H509 0.958 . S
C495 H510 0.961 . S
C495 H511 0.960 . S
H496 C480 0.931 . S
H497 C485 0.929 . S
H498 C486 0.960 . S
H499 C486 0.962 . S
H500 C486 0.960 . S
H501 C487 0.961 . S
H502 C487 0.961 . S
H503 C487 0.961 . S
H504 C488 0.931 . S
H505 C493 0.930 . S
H506 C494 0.956 . S
H507 C494 0.961 . S
H508 C494 0.961 . S
H509 C495 0.958 . S
H510 C495 0.961 . S
H511 C495 0.960 . S
C512 C513 1.391 . S
C512 C514 1.394 . S
C512 H528 0.931 . S
C513 C512 1.391 . S
C513 C517 1.376 1_565 S
C514 C512 1.394 . S
C514 C515 1.369 . S
C514 C518 1.531 . S
C515 C514 1.369 . S
C515 C516 1.410 . S
C515 C523 1.503 . S
C516 C515 1.410 . S
C516 C517 1.392 1_565 S
C516 C519 1.511 1_565 S
C517 C513 1.376 1_545 S
C517 C516 1.392 1_545 S
C517 H529 0.929 . S
C518 C514 1.531 . S
C518 H530 0.960 . S
C518 H531 0.962 . S
C518 H532 0.960 . S
C519 C516 1.511 1_545 S
C519 H533 0.961 . S
C519 H534 0.961 . S
C519 H535 0.961 . S
C520 C521 1.370 . S
C520 C522 1.363 . S
C520 H536 0.931 . S
C521 C520 1.370 . S
C521 C525 1.408 . S
C522 C520 1.363 . S
C522 C523 1.370 . S
C522 C526 1.524 . S
C523 C515 1.503 . S
C523 C522 1.370 . S
C523 C524 1.403 . S
C524 C523 1.403 . S
C524 C525 1.404 . S
C524 C527 1.539 . S
C525 C521 1.408 . S
C525 C524 1.404 . S
C525 H537 0.930 . S
C526 C522 1.524 . S
C526 H538 0.956 . S
C526 H539 0.961 . S
C526 H540 0.961 . S
C527 C524 1.539 . S
C527 H541 0.958 . S
C527 H542 0.961 . S
C527 H543 0.960 . S
H528 C512 0.931 . S
H529 C517 0.929 . S
H530 C518 0.960 . S
H531 C518 0.962 . S
H532 C518 0.960 . S
H533 C519 0.961 . S
H534 C519 0.961 . S
H535 C519 0.961 . S
H536 C520 0.931 . S
H537 C525 0.930 . S
H538 C526 0.956 . S
H539 C526 0.961 . S
H540 C526 0.961 . S
H541 C527 0.958 . S
H542 C527 0.961 . S
H543 C527 0.960 . S
C544 C545 1.391 . S
C544 C546 1.394 . S
C544 H560 0.931 . S
C545 C544 1.391 . S
C545 C549 1.376 1_554 S
C546 C544 1.394 . S
C546 C547 1.369 . S
C546 C550 1.531 . S
C547 C546 1.369 . S
C547 C548 1.410 . S
C547 C555 1.503 . S
C548 C547 1.410 . S
C548 C549 1.392 1_554 S
C548 C551 1.511 1_554 S
C549 C545 1.376 1_556 S
C549 C548 1.392 1_556 S
C549 H561 0.929 . S
C550 C546 1.531 . S
C550 H562 0.960 . S
C550 H563 0.962 . S
C550 H564 0.960 . S
C551 C548 1.511 1_556 S
C551 H565 0.961 . S
C551 H566 0.961 . S
C551 H567 0.961 . S
C552 C553 1.370 . S
C552 C554 1.363 . S
C552 H568 0.931 . S
C553 C552 1.370 . S
C553 C557 1.408 . S
C554 C552 1.363 . S
C554 C555 1.370 . S
C554 C558 1.524 . S
C555 C547 1.503 . S
C555 C554 1.370 . S
C555 C556 1.403 . S
C556 C555 1.403 . S
C556 C557 1.404 . S
C556 C559 1.539 . S
C557 C553 1.408 . S
C557 C556 1.404 . S
C557 H569 0.930 . S
C558 C554 1.524 . S
C558 H570 0.956 . S
C558 H571 0.961 . S
C558 H572 0.961 . S
C559 C556 1.539 . S
C559 H573 0.958 . S
C559 H574 0.961 . S
C559 H575 0.960 . S
H560 C544 0.931 . S
H561 C549 0.929 . S
H562 C550 0.960 . S
H563 C550 0.962 . S
H564 C550 0.960 . S
H565 C551 0.961 . S
H566 C551 0.961 . S
H567 C551 0.961 . S
H568 C552 0.931 . S
H569 C557 0.930 . S
H570 C558 0.956 . S
H571 C558 0.961 . S
H572 C558 0.961 . S
H573 C559 0.958 . S
H574 C559 0.961 . S
H575 C559 0.960 . S
C576 C577 1.391 . S
C576 C578 1.394 . S
C576 H592 0.931 . S
C577 C576 1.391 . S
C577 C581 1.376 . S
C578 C576 1.394 . S
C578 C579 1.369 . S
C578 C582 1.531 . S
C579 C578 1.369 . S
C579 C580 1.410 . S
C579 C587 1.503 . S
C580 C579 1.410 . S
C580 C581 1.392 . S
C580 C583 1.511 1_545 S
C581 C577 1.376 . S
C581 C580 1.392 . S
C581 H593 0.929 . S
C582 C578 1.531 . S
C582 H594 0.960 . S
C582 H595 0.962 . S
C582 H596 0.960 . S
C583 C580 1.511 1_565 S
C583 H597 0.961 . S
C583 H598 0.961 . S
C583 H599 0.961 . S
C584 C585 1.370 . S
C584 C586 1.363 . S
C584 H600 0.931 . S
C585 C584 1.370 . S
C585 C589 1.408 . S
C586 C584 1.363 . S
C586 C587 1.370 . S
C586 C590 1.524 . S
C587 C579 1.503 . S
C587 C586 1.370 . S
C587 C588 1.403 . S
C588 C587 1.403 . S
C588 C589 1.404 . S
C588 C591 1.539 . S
C589 C585 1.408 . S
C589 C588 1.404 . S
C589 H601 0.930 . S
C590 C586 1.524 . S
C590 H602 0.956 . S
C590 H603 0.961 . S
C590 H604 0.961 . S
C591 C588 1.539 . S
C591 H605 0.958 . S
C591 H606 0.961 . S
C591 H607 0.960 . S
H592 C576 0.931 . S
H593 C581 0.929 . S
H594 C582 0.960 . S
H595 C582 0.962 . S
H596 C582 0.960 . S
H597 C583 0.961 . S
H598 C583 0.961 . S
H599 C583 0.961 . S
H600 C584 0.931 . S
H601 C589 0.930 . S
H602 C590 0.956 . S
H603 C590 0.961 . S
H604 C590 0.961 . S
H605 C591 0.958 . S
H606 C591 0.961 . S
H607 C591 0.960 . S
C608 C609 1.391 . S
C608 C610 1.394 . S
C608 H624 0.931 . S
C609 C608 1.391 . S
C609 C613 1.376 . S
C610 C608 1.394 . S
C610 C611 1.369 . S
C610 C614 1.531 . S
C611 C610 1.369 . S
C611 C612 1.410 . S
C611 C619 1.503 . S
C612 C611 1.410 . S
C612 C613 1.392 . S
C612 C615 1.511 . S
C613 C609 1.376 . S
C613 C612 1.392 . S
C613 H625 0.929 . S
C614 C610 1.531 . S
C614 H626 0.960 . S
C614 H627 0.962 . S
C614 H628 0.960 . S
C615 C612 1.511 . S
C615 H629 0.961 . S
C615 H630 0.961 . S
C615 H631 0.961 . S
C616 C617 1.370 . S
C616 C618 1.363 . S
C616 H632 0.931 . S
C617 C616 1.370 . S
C617 C621 1.408 . S
C618 C616 1.363 . S
C618 C619 1.370 . S
C618 C622 1.524 . S
C619 C611 1.503 . S
C619 C618 1.370 . S
C619 C620 1.403 . S
C620 C619 1.403 . S
C620 C621 1.404 . S
C620 C623 1.539 . S
C621 C617 1.408 . S
C621 C620 1.404 . S
C621 H633 0.930 . S
C622 C618 1.524 . S
C622 H634 0.956 . S
C622 H635 0.961 . S
C622 H636 0.961 . S
C623 C620 1.539 . S
C623 H637 0.958 . S
C623 H638 0.961 . S
C623 H639 0.960 . S
H624 C608 0.931 . S
H625 C613 0.929 . S
H626 C614 0.960 . S
H627 C614 0.962 . S
H628 C614 0.960 . S
H629 C615 0.961 . S
H630 C615 0.961 . S
H631 C615 0.961 . S
H632 C616 0.931 . S
H633 C621 0.930 . S
H634 C622 0.956 . S
H635 C622 0.961 . S
H636 C622 0.961 . S
H637 C623 0.958 . S
H638 C623 0.961 . S
H639 C623 0.960 . S
C640 C641 1.391 . S
C640 C642 1.394 . S
C640 H656 0.931 . S
C641 C640 1.391 . S
C641 C645 1.376 . S
C642 C640 1.394 . S
C642 C643 1.369 . S
C642 C646 1.531 . S
C643 C642 1.369 . S
C643 C644 1.410 . S
C643 C651 1.503 . S
C644 C643 1.410 . S
C644 C645 1.392 . S
C644 C647 1.511 . S
C645 C641 1.376 . S
C645 C644 1.392 . S
C645 H657 0.929 . S
C646 C642 1.531 . S
C646 H658 0.960 . S
C646 H659 0.962 . S
C646 H660 0.960 . S
C647 C644 1.511 . S
C647 H661 0.961 . S
C647 H662 0.961 . S
C647 H663 0.961 . S
C648 C649 1.370 . S
C648 C650 1.363 . S
C648 H664 0.931 . S
C649 C648 1.370 . S
C649 C653 1.408 . S
C650 C648 1.363 . S
C650 C651 1.370 . S
C650 C654 1.524 . S
C651 C643 1.503 . S
C651 C650 1.370 . S
C651 C652 1.403 . S
C652 C651 1.403 . S
C652 C653 1.404 . S
C652 C655 1.539 . S
C653 C649 1.408 . S
C653 C652 1.404 . S
C653 H665 0.930 . S
C654 C650 1.524 . S
C654 H666 0.956 . S
C654 H667 0.961 . S
C654 H668 0.961 . S
C655 C652 1.539 . S
C655 H669 0.958 . S
C655 H670 0.961 . S
C655 H671 0.960 . S
H656 C640 0.931 . S
H657 C645 0.929 . S
H658 C646 0.960 . S
H659 C646 0.962 . S
H660 C646 0.960 . S
H661 C647 0.961 . S
H662 C647 0.961 . S
H663 C647 0.961 . S
H664 C648 0.931 . S
H665 C653 0.930 . S
H666 C654 0.956 . S
H667 C654 0.961 . S
H668 C654 0.961 . S
H669 C655 0.958 . S
H670 C655 0.961 . S
H671 C655 0.960 . S
C672 C673 1.391 . S
C672 C674 1.394 . S
C672 H688 0.931 . S
C673 C672 1.391 . S
C673 C677 1.376 . S
C674 C672 1.394 . S
C674 C675 1.369 . S
C674 C678 1.531 . S
C675 C674 1.369 . S
C675 C676 1.410 . S
C675 C683 1.503 . S
C676 C675 1.410 . S
C676 C677 1.392 . S
C676 C679 1.511 . S
C677 C673 1.376 . S
C677 C676 1.392 . S
C677 H689 0.929 . S
C678 C674 1.531 . S
C678 H690 0.960 . S
C678 H691 0.962 . S
C678 H692 0.960 . S
C679 C676 1.511 . S
C679 H693 0.961 . S
C679 H694 0.961 . S
C679 H695 0.961 . S
C680 C681 1.370 . S
C680 C682 1.363 . S
C680 H696 0.931 1_556 S
C681 C680 1.370 . S
C681 C685 1.408 . S
C682 C680 1.363 . S
C682 C683 1.370 . S
C682 C686 1.524 . S
C683 C675 1.503 . S
C683 C682 1.370 . S
C683 C684 1.403 . S
C684 C683 1.403 . S
C684 C685 1.404 . S
C684 C687 1.539 . S
C685 C681 1.408 . S
C685 C684 1.404 . S
C685 H697 0.930 . S
C686 C682 1.524 . S
C686 H698 0.956 1_556 S
C686 H699 0.961 . S
C686 H700 0.961 1_556 S
C687 C684 1.539 . S
C687 H701 0.958 . S
C687 H702 0.961 . S
C687 H703 0.960 . S
H688 C672 0.931 . S
H689 C677 0.929 . S
H690 C678 0.960 . S
H691 C678 0.962 . S
H692 C678 0.960 . S
H693 C679 0.961 . S
H694 C679 0.961 . S
H695 C679 0.961 . S
H696 C680 0.931 1_554 S
H697 C685 0.930 . S
H698 C686 0.956 1_554 S
H699 C686 0.961 . S
H700 C686 0.961 1_554 S
H701 C687 0.958 . S
H702 C687 0.961 . S
H703 C687 0.960 . S
C704 C705 1.391 . S
C704 C706 1.394 . S
C704 H720 0.931 . S
C705 C704 1.391 . S
C705 C709 1.376 . S
C706 C704 1.394 . S
C706 C707 1.369 . S
C706 C710 1.531 . S
C707 C706 1.369 . S
C707 C708 1.410 . S
C707 C715 1.503 . S
C708 C707 1.410 . S
C708 C709 1.392 . S
C708 C711 1.511 . S
C709 C705 1.376 . S
C709 C708 1.392 . S
C709 H721 0.929 . S
C710 C706 1.531 . S
C710 H722 0.960 . S
C710 H723 0.962 . S
C710 H724 0.960 . S
C711 C708 1.511 . S
C711 H725 0.961 . S
C711 H726 0.961 . S
C711 H727 0.961 . S
C712 C713 1.370 . S
C712 C714 1.363 . S
C712 H728 0.931 . S
C713 C712 1.370 . S
C713 C717 1.408 . S
C714 C712 1.363 . S
C714 C715 1.370 . S
C714 C718 1.524 . S
C715 C707 1.503 . S
C715 C714 1.370 . S
C715 C716 1.403 . S
C716 C715 1.403 . S
C716 C717 1.404 . S
C716 C719 1.539 . S
C717 C713 1.408 . S
C717 C716 1.404 . S
C717 H729 0.930 . S
C718 C714 1.524 . S
C718 H730 0.956 . S
C718 H731 0.961 . S
C718 H732 0.961 . S
C719 C716 1.539 . S
C719 H733 0.958 . S
C719 H734 0.961 . S
C719 H735 0.960 . S
H720 C704 0.931 . S
H721 C709 0.929 . S
H722 C710 0.960 . S
H723 C710 0.962 . S
H724 C710 0.960 . S
H725 C711 0.961 . S
H726 C711 0.961 . S
H727 C711 0.961 . S
H728 C712 0.931 . S
H729 C717 0.930 . S
H730 C718 0.956 . S
H731 C718 0.961 . S
H732 C718 0.961 . S
H733 C719 0.958 . S
H734 C719 0.961 . S
H735 C719 0.960 . S
C736 C737 1.391 . S
C736 C738 1.394 . S
C736 H752 0.931 . S
C737 C736 1.391 . S
C737 C741 1.376 . S
C738 C736 1.394 . S
C738 C739 1.369 . S
C738 C742 1.531 . S
C739 C738 1.369 . S
C739 C740 1.410 . S
C739 C747 1.503 . S
C740 C739 1.410 . S
C740 C741 1.392 . S
C740 C743 1.511 . S
C741 C737 1.376 . S
C741 C740 1.392 . S
C741 H753 0.929 . S
C742 C738 1.531 . S
C742 H754 0.960 . S
C742 H755 0.962 . S
C742 H756 0.960 . S
C743 C740 1.511 . S
C743 H757 0.961 . S
C743 H758 0.961 . S
C743 H759 0.961 . S
C744 C745 1.370 . S
C744 C746 1.363 . S
C744 H760 0.931 . S
C745 C744 1.370 . S
C745 C749 1.408 . S
C746 C744 1.363 . S
C746 C747 1.370 . S
C746 C750 1.524 . S
C747 C739 1.503 . S
C747 C746 1.370 . S
C747 C748 1.403 . S
C748 C747 1.403 . S
C748 C749 1.404 . S
C748 C751 1.539 . S
C749 C745 1.408 . S
C749 C748 1.404 . S
C749 H761 0.930 . S
C750 C746 1.524 . S
C750 H762 0.956 . S
C750 H763 0.961 . S
C750 H764 0.961 . S
C751 C748 1.539 . S
C751 H765 0.958 . S
C751 H766 0.961 . S
C751 H767 0.960 . S
H752 C736 0.931 . S
H753 C741 0.929 . S
H754 C742 0.960 . S
H755 C742 0.962 . S
H756 C742 0.960 . S
H757 C743 0.961 . S
H758 C743 0.961 . S
H759 C743 0.961 . S
H760 C744 0.931 . S
H761 C749 0.930 . S
H762 C750 0.956 . S
H763 C750 0.961 . S
H764 C750 0.961 . S
H765 C751 0.958 . S
H766 C751 0.961 . S
H767 C751 0.960 . S
C768 C769 1.391 . S
C768 C770 1.394 . S
C768 H784 0.931 . S
C769 C768 1.391 . S
C769 C773 1.376 . S
C770 C768 1.394 . S
C770 C771 1.369 . S
C770 C774 1.531 . S
C771 C770 1.369 . S
C771 C772 1.410 . S
C771 C779 1.503 . S
C772 C771 1.410 . S
C772 C773 1.392 . S
C772 C775 1.511 1_455 S
C773 C769 1.376 . S
C773 C772 1.392 . S
C773 H785 0.929 . S
C774 C770 1.531 . S
C774 H786 0.960 . S
C774 H787 0.962 . S
C774 H788 0.960 . S
C775 C772 1.511 1_655 S
C775 H789 0.961 . S
C775 H790 0.961 . S
C775 H791 0.961 . S
C776 C777 1.370 . S
C776 C778 1.363 . S
C776 H792 0.931 . S
C777 C776 1.370 . S
C777 C781 1.408 . S
C778 C776 1.363 . S
C778 C779 1.370 . S
C778 C782 1.524 . S
C779 C771 1.503 . S
C779 C778 1.370 . S
C779 C780 1.403 . S
C780 C779 1.403 . S
C780 C781 1.404 . S
C780 C783 1.539 1_455 S
C781 C777 1.408 . S
C781 C780 1.404 . S
C781 H793 0.930 1_455 S
C782 C778 1.524 . S
C782 H794 0.956 . S
C782 H795 0.961 . S
C782 H796 0.961 . S
C783 C780 1.539 1_655 S
C783 H797 0.958 1_655 S
C783 H798 0.961 . S
C783 H799 0.960 . S
H784 C768 0.931 . S
H785 C773 0.929 . S
H786 C774 0.960 . S
H787 C774 0.962 . S
H788 C774 0.960 . S
H789 C775 0.961 . S
H790 C775 0.961 . S
H791 C775 0.961 . S
H792 C776 0.931 . S
H793 C781 0.930 1_655 S
H794 C782 0.956 . S
H795 C782 0.961 . S
H796 C782 0.961 . S
H797 C783 0.958 1_455 S
H798 C783 0.961 . S
H799 C783 0.960 . S
C800 C801 1.391 . S
C800 C802 1.394 . S
C800 H816 0.931 1_655 S
C801 C800 1.391 . S
C801 C805 1.376 . S
C802 C800 1.394 . S
C802 C803 1.369 . S
C802 C806 1.531 . S
C803 C802 1.369 . S
C803 C804 1.410 . S
C803 C811 1.503 . S
C804 C803 1.410 . S
C804 C805 1.392 . S
C804 C807 1.511 . S
C805 C801 1.376 . S
C805 C804 1.392 . S
C805 H817 0.929 . S
C806 C802 1.531 . S
C806 H818 0.960 . S
C806 H819 0.962 1_655 S
C806 H820 0.960 . S
C807 C804 1.511 . S
C807 H821 0.961 . S
C807 H822 0.961 . S
C807 H823 0.961 . S
C808 C809 1.370 . S
C808 C810 1.363 . S
C808 H824 0.931 . S
C809 C808 1.370 . S
C809 C813 1.408 . S
C810 C808 1.363 . S
C810 C811 1.370 . S
C810 C814 1.524 . S
C811 C803 1.503 . S
C811 C810 1.370 . S
C811 C812 1.403 . S
C812 C811 1.403 . S
C812 C813 1.404 . S
C812 C815 1.539 . S
C813 C809 1.408 . S
C813 C812 1.404 . S
C813 H825 0.930 . S
C814 C810 1.524 . S
C814 H826 0.956 1_655 S
C814 H827 0.961 . S
C814 H828 0.961 . S
C815 C812 1.539 . S
C815 H829 0.958 . S
C815 H830 0.961 . S
C815 H831 0.960 . S
H816 C800 0.931 1_455 S
H817 C805 0.929 . S
H818 C806 0.960 . S
H819 C806 0.962 1_455 S
H820 C806 0.960 . S
H821 C807 0.961 . S
H822 C807 0.961 . S
H823 C807 0.961 . S
H824 C808 0.931 . S
H825 C813 0.930 . S
H826 C814 0.956 1_455 S
H827 C814 0.961 . S
H828 C814 0.961 . S
H829 C815 0.958 . S
H830 C815 0.961 . S
H831 C815 0.960 . S
C832 C833 1.391 . S
C832 C834 1.394 . S
C832 H848 0.931 . S
C833 C832 1.391 . S
C833 C837 1.376 . S
C834 C832 1.394 . S
C834 C835 1.369 . S
C834 C838 1.531 . S
C835 C834 1.369 . S
C835 C836 1.410 . S
C835 C843 1.503 . S
C836 C835 1.410 . S
C836 C837 1.392 . S
C836 C839 1.511 . S
C837 C833 1.376 . S
C837 C836 1.392 . S
C837 H849 0.929 . S
C838 C834 1.531 . S
C838 H850 0.960 . S
C838 H851 0.962 . S
C838 H852 0.960 . S
C839 C836 1.511 . S
C839 H853 0.961 . S
C839 H854 0.961 . S
C839 H855 0.961 . S
C840 C841 1.370 . S
C840 C842 1.363 . S
C840 H856 0.931 . S
C841 C840 1.370 . S
C841 C845 1.408 . S
C842 C840 1.363 . S
C842 C843 1.370 . S
C842 C846 1.524 . S
C843 C835 1.503 . S
C843 C842 1.370 . S
C843 C844 1.403 . S
C844 C843 1.403 . S
C844 C845 1.404 . S
C844 C847 1.539 . S
C845 C841 1.408 . S
C845 C844 1.404 . S
C845 H857 0.930 . S
C846 C842 1.524 . S
C846 H858 0.956 . S
C846 H859 0.961 . S
C846 H860 0.961 . S
C847 C844 1.539 . S
C847 H861 0.958 . S
C847 H862 0.961 . S
C847 H863 0.960 . S
H848 C832 0.931 . S
H849 C837 0.929 . S
H850 C838 0.960 . S
H851 C838 0.962 . S
H852 C838 0.960 . S
H853 C839 0.961 . S
H854 C839 0.961 . S
H855 C839 0.961 . S
H856 C840 0.931 . S
H857 C845 0.930 . S
H858 C846 0.956 . S
H859 C846 0.961 . S
H860 C846 0.961 . S
H861 C847 0.958 . S
H862 C847 0.961 . S
H863 C847 0.960 . S
C864 C865 1.391 . S
C864 C866 1.394 . S
C864 H880 0.931 . S
C865 C864 1.391 . S
C865 C869 1.376 . S
C866 C864 1.394 . S
C866 C867 1.369 . S
C866 C870 1.531 . S
C867 C866 1.369 . S
C867 C868 1.410 . S
C867 C875 1.503 . S
C868 C867 1.410 . S
C868 C869 1.392 . S
C868 C871 1.511 . S
C869 C865 1.376 . S
C869 C868 1.392 . S
C869 H881 0.929 . S
C870 C866 1.531 . S
C870 H882 0.960 . S
C870 H883 0.962 . S
C870 H884 0.960 . S
C871 C868 1.511 . S
C871 H885 0.961 . S
C871 H886 0.961 . S
C871 H887 0.961 . S
C872 C873 1.370 . S
C872 C874 1.363 . S
C872 H888 0.931 . S
C873 C872 1.370 . S
C873 C877 1.408 . S
C874 C872 1.363 . S
C874 C875 1.370 . S
C874 C878 1.524 . S
C875 C867 1.503 . S
C875 C874 1.370 . S
C875 C876 1.403 . S
C876 C875 1.403 . S
C876 C877 1.404 . S
C876 C879 1.539 . S
C877 C873 1.408 . S
C877 C876 1.404 . S
C877 H889 0.930 . S
C878 C874 1.524 . S
C878 H890 0.956 . S
C878 H891 0.961 . S
C878 H892 0.961 . S
C879 C876 1.539 . S
C879 H893 0.958 . S
C879 H894 0.961 . S
C879 H895 0.960 . S
H880 C864 0.931 . S
H881 C869 0.929 . S
H882 C870 0.960 . S
H883 C870 0.962 . S
H884 C870 0.960 . S
H885 C871 0.961 . S
H886 C871 0.961 . S
H887 C871 0.961 . S
H888 C872 0.931 . S
H889 C877 0.930 . S
H890 C878 0.956 . S
H891 C878 0.961 . S
H892 C878 0.961 . S
H893 C879 0.958 . S
H894 C879 0.961 . S
H895 C879 0.960 . S
C896 C897 1.391 . S
C896 C898 1.394 . S
C896 H912 0.931 . S
C897 C896 1.391 . S
C897 C901 1.376 . S
C898 C896 1.394 . S
C898 C899 1.369 . S
C898 C902 1.531 . S
C899 C898 1.369 . S
C899 C900 1.410 . S
C899 C907 1.503 . S
C900 C899 1.410 . S
C900 C901 1.392 . S
C900 C903 1.511 . S
C901 C897 1.376 . S
C901 C900 1.392 . S
C901 H913 0.929 . S
C902 C898 1.531 . S
C902 H914 0.960 . S
C902 H915 0.962 . S
C902 H916 0.960 . S
C903 C900 1.511 . S
C903 H917 0.961 . S
C903 H918 0.961 . S
C903 H919 0.961 . S
C904 C905 1.370 . S
C904 C906 1.363 . S
C904 H920 0.931 . S
C905 C904 1.370 . S
C905 C909 1.408 . S
C906 C904 1.363 . S
C906 C907 1.370 . S
C906 C910 1.524 . S
C907 C899 1.503 . S
C907 C906 1.370 . S
C907 C908 1.403 . S
C908 C907 1.403 . S
C908 C909 1.404 . S
C908 C911 1.539 . S
C909 C905 1.408 . S
C909 C908 1.404 . S
C909 H921 0.930 . S
C910 C906 1.524 . S
C910 H922 0.956 . S
C910 H923 0.961 . S
C910 H924 0.961 . S
C911 C908 1.539 . S
C911 H925 0.958 1_565 S
C911 H926 0.961 . S
C911 H927 0.960 . S
H912 C896 0.931 . S
H913 C901 0.929 . S
H914 C902 0.960 . S
H915 C902 0.962 . S
H916 C902 0.960 . S
H917 C903 0.961 . S
H918 C903 0.961 . S
H919 C903 0.961 . S
H920 C904 0.931 . S
H921 C909 0.930 . S
H922 C910 0.956 . S
H923 C910 0.961 . S
H924 C910 0.961 . S
H925 C911 0.958 1_545 S
H926 C911 0.961 . S
H927 C911 0.960 . S
C928 C929 1.391 . S
C928 C930 1.394 . S
C928 H944 0.931 . S
C929 C928 1.391 . S
C929 C933 1.376 . S
C930 C928 1.394 . S
C930 C931 1.369 . S
C930 C934 1.531 . S
C931 C930 1.369 . S
C931 C932 1.410 . S
C931 C939 1.503 . S
C932 C931 1.410 . S
C932 C933 1.392 . S
C932 C935 1.511 . S
C933 C929 1.376 . S
C933 C932 1.392 . S
C933 H945 0.929 . S
C934 C930 1.531 . S
C934 H946 0.960 . S
C934 H947 0.962 . S
C934 H948 0.960 . S
C935 C932 1.511 . S
C935 H949 0.961 . S
C935 H950 0.961 . S
C935 H951 0.961 . S
C936 C937 1.370 . S
C936 C938 1.363 . S
C936 H952 0.931 . S
C937 C936 1.370 . S
C937 C941 1.408 . S
C938 C936 1.363 . S
C938 C939 1.370 . S
C938 C942 1.524 . S
C939 C931 1.503 . S
C939 C938 1.370 . S
C939 C940 1.403 . S
C940 C939 1.403 . S
C940 C941 1.404 . S
C940 C943 1.539 . S
C941 C937 1.408 . S
C941 C940 1.404 . S
C941 H953 0.930 . S
C942 C938 1.524 . S
C942 H954 0.956 . S
C942 H955 0.961 . S
C942 H956 0.961 . S
C943 C940 1.539 . S
C943 H957 0.958 . S
C943 H958 0.961 . S
C943 H959 0.960 . S
H944 C928 0.931 . S
H945 C933 0.929 . S
H946 C934 0.960 . S
H947 C934 0.962 . S
H948 C934 0.960 . S
H949 C935 0.961 . S
H950 C935 0.961 . S
H951 C935 0.961 . S
H952 C936 0.931 . S
H953 C941 0.930 . S
H954 C942 0.956 . S
H955 C942 0.961 . S
H956 C942 0.961 . S
H957 C943 0.958 . S
H958 C943 0.961 . S
H959 C943 0.960 . S
C960 C961 1.391 . S
C960 C962 1.394 . S
C960 H976 0.931 . S
C961 C960 1.391 . S
C961 C965 1.376 . S
C962 C960 1.394 . S
C962 C963 1.369 . S
C962 C966 1.531 1_554 S
C963 C962 1.369 . S
C963 C964 1.410 . S
C963 C971 1.503 1_554 S
C964 C963 1.410 . S
C964 C965 1.392 . S
C964 C967 1.511 . S
C965 C961 1.376 . S
C965 C964 1.392 . S
C965 H977 0.929 . S
C966 C962 1.531 1_556 S
C966 H978 0.960 . S
C966 H979 0.962 . S
C966 H980 0.960 . S
C967 C964 1.511 . S
C967 H981 0.961 . S
C967 H982 0.961 . S
C967 H983 0.961 . S
C968 C969 1.370 . S
C968 C970 1.363 . S
C968 H984 0.931 1_545 S
C969 C968 1.370 . S
C969 C973 1.408 . S
C970 C968 1.363 . S
C970 C971 1.370 . S
C970 C974 1.524 1_556 S
C971 C963 1.503 1_556 S
C971 C970 1.370 . S
C971 C972 1.403 . S
C972 C971 1.403 . S
C972 C973 1.404 . S
C972 C975 1.539 . S
C973 C969 1.408 . S
C973 C972 1.404 . S
C973 H985 0.930 . S
C974 C970 1.524 1_554 S
C974 H986 0.957 . S
C974 H987 0.961 . S
C974 H988 0.961 1_544 S
C975 C972 1.539 . S
C975 H989 0.958 . S
C975 H990 0.961 . S
C975 H991 0.960 1_556 S
H976 C960 0.931 . S
H977 C965 0.929 . S
H978 C966 0.960 . S
H979 C966 0.962 . S
H980 C966 0.960 . S
H981 C967 0.961 . S
H982 C967 0.961 . S
H983 C967 0.961 . S
H984 C968 0.931 1_565 S
H985 C973 0.930 . S
H986 C974 0.957 . S
H987 C974 0.961 . S
H988 C974 0.961 1_566 S
H989 C975 0.958 . S
H990 C975 0.961 . S
H991 C975 0.960 1_554 S
C992 C993 1.391 . S
C992 C994 1.394 . S
C992 H1008 0.931 . S
C993 C992 1.391 . S
C993 C997 1.376 . S
C994 C992 1.394 . S
C994 C995 1.369 . S
C994 C998 1.531 . S
C995 C994 1.369 . S
C995 C996 1.410 . S
C995 C1003 1.503 . S
C996 C995 1.410 . S
C996 C997 1.392 . S
C996 C999 1.511 . S
C997 C993 1.376 . S
C997 C996 1.392 . S
C997 H1009 0.929 . S
C998 C994 1.531 . S
C998 H1010 0.960 . S
C998 H1011 0.962 . S
C998 H1012 0.960 . S
C999 C996 1.511 . S
C999 H1013 0.961 . S
C999 H1014 0.961 . S
C999 H1015 0.961 . S
C1000 C1001 1.370 . S
C1000 C1002 1.363 . S
C1000 H1016 0.931 . S
C1001 C1000 1.370 . S
C1001 C1005 1.408 . S
C1002 C1000 1.363 . S
C1002 C1003 1.370 . S
C1002 C1006 1.524 . S
C1003 C995 1.503 . S
C1003 C1002 1.370 . S
C1003 C1004 1.403 . S
C1004 C1003 1.403 . S
C1004 C1005 1.404 . S
C1004 C1007 1.539 . S
C1005 C1001 1.408 . S
C1005 C1004 1.404 . S
C1005 H1017 0.930 . S
C1006 C1002 1.524 . S
C1006 H1018 0.956 . S
C1006 H1019 0.961 . S
C1006 H1020 0.961 . S
C1007 C1004 1.539 . S
C1007 H1021 0.958 . S
C1007 H1022 0.961 . S
C1007 H1023 0.960 . S
H1008 C992 0.931 . S
H1009 C997 0.929 . S
H1010 C998 0.960 . S
H1011 C998 0.962 . S
H1012 C998 0.960 . S
H1013 C999 0.961 . S
H1014 C999 0.961 . S
H1015 C999 0.961 . S
H1016 C1000 0.931 . S
H1017 C1005 0.930 . S
H1018 C1006 0.956 . S
H1019 C1006 0.961 . S
H1020 C1006 0.961 . S
H1021 C1007 0.958 . S
H1022 C1007 0.961 . S
H1023 C1007 0.960 . S
C1024 C1025 1.391 . S
C1024 C1026 1.394 1_554 S
C1024 H1040 0.931 . S
C1025 C1024 1.391 . S
C1025 C1029 1.376 . S
C1026 C1024 1.394 1_556 S
C1026 C1027 1.369 . S
C1026 C1030 1.531 . S
C1027 C1026 1.369 . S
C1027 C1028 1.410 . S
C1027 C1035 1.503 . S
C1028 C1027 1.410 . S
C1028 C1029 1.392 1_556 S
C1028 C1031 1.511 . S
C1029 C1025 1.376 . S
C1029 C1028 1.392 1_554 S
C1029 H1041 0.929 . S
C1030 C1026 1.531 . S
C1030 H1042 0.960 . S
C1030 H1043 0.962 . S
C1030 H1044 0.960 . S
C1031 C1028 1.511 . S
C1031 H1045 0.961 . S
C1031 H1046 0.961 . S
C1031 H1047 0.961 . S
C1032 C1033 1.370 . S
C1032 C1034 1.363 . S
C1032 H1048 0.931 . S
C1033 C1032 1.370 . S
C1033 C1037 1.408 . S
C1034 C1032 1.363 . S
C1034 C1035 1.370 . S
C1034 C1038 1.524 . S
C1035 C1027 1.503 . S
C1035 C1034 1.370 . S
C1035 C1036 1.403 . S
C1036 C1035 1.403 . S
C1036 C1037 1.404 . S
C1036 C1039 1.539 . S
C1037 C1033 1.408 . S
C1037 C1036 1.404 . S
C1037 H1049 0.930 . S
C1038 C1034 1.524 . S
C1038 H1050 0.956 . S
C1038 H1051 0.961 . S
C1038 H1052 0.961 . S
C1039 C1036 1.539 . S
C1039 H1053 0.958 . S
C1039 H1054 0.961 . S
C1039 H1055 0.960 . S
H1040 C1024 0.931 . S
H1041 C1029 0.929 . S
H1042 C1030 0.960 . S
H1043 C1030 0.962 . S
H1044 C1030 0.960 . S
H1045 C1031 0.961 . S
H1046 C1031 0.961 . S
H1047 C1031 0.961 . S
H1048 C1032 0.931 . S
H1049 C1037 0.930 . S
H1050 C1038 0.956 . S
H1051 C1038 0.961 . S
H1052 C1038 0.961 . S
H1053 C1039 0.958 . S
H1054 C1039 0.961 . S
H1055 C1039 0.960 . S
C1056 C1057 1.391 . S
C1056 C1058 1.394 . S
C1056 H1072 0.931 . S
C1057 C1056 1.391 . S
C1057 C1061 1.376 . S
C1058 C1056 1.394 . S
C1058 C1059 1.369 . S
C1058 C1062 1.531 . S
C1059 C1058 1.369 . S
C1059 C1060 1.410 . S
C1059 C1067 1.503 . S
C1060 C1059 1.410 . S
C1060 C1061 1.392 . S
C1060 C1063 1.511 . S
C1061 C1057 1.376 . S
C1061 C1060 1.392 . S
C1061 H1073 0.929 . S
C1062 C1058 1.531 . S
C1062 H1074 0.960 . S
C1062 H1075 0.962 . S
C1062 H1076 0.960 . S
C1063 C1060 1.511 . S
C1063 H1077 0.961 . S
C1063 H1078 0.961 . S
C1063 H1079 0.961 . S
C1064 C1065 1.370 . S
C1064 C1066 1.363 . S
C1064 H1080 0.931 . S
C1065 C1064 1.370 . S
C1065 C1069 1.408 . S
C1066 C1064 1.363 . S
C1066 C1067 1.370 . S
C1066 C1070 1.524 . S
C1067 C1059 1.503 . S
C1067 C1066 1.370 . S
C1067 C1068 1.403 . S
C1068 C1067 1.403 . S
C1068 C1069 1.404 . S
C1068 C1071 1.539 . S
C1069 C1065 1.408 . S
C1069 C1068 1.404 . S
C1069 H1081 0.930 . S
C1070 C1066 1.524 . S
C1070 H1082 0.956 . S
C1070 H1083 0.961 . S
C1070 H1084 0.961 . S
C1071 C1068 1.539 . S
C1071 H1085 0.958 . S
C1071 H1086 0.961 . S
C1071 H1087 0.960 . S
H1072 C1056 0.931 . S
H1073 C1061 0.929 . S
H1074 C1062 0.960 . S
H1075 C1062 0.962 . S
H1076 C1062 0.960 . S
H1077 C1063 0.961 . S
H1078 C1063 0.961 . S
H1079 C1063 0.961 . S
H1080 C1064 0.931 . S
H1081 C1069 0.930 . S
H1082 C1070 0.956 . S
H1083 C1070 0.961 . S
H1084 C1070 0.961 . S
H1085 C1071 0.958 . S
H1086 C1071 0.961 . S
H1087 C1071 0.960 . S
C1088 C1089 1.391 . S
C1088 C1090 1.394 . S
C1088 H1104 0.931 . S
C1089 C1088 1.391 . S
C1089 C1093 1.376 . S
C1090 C1088 1.394 . S
C1090 C1091 1.369 . S
C1090 C1094 1.531 . S
C1091 C1090 1.369 . S
C1091 C1092 1.410 . S
C1091 C1099 1.503 . S
C1092 C1091 1.410 . S
C1092 C1093 1.392 . S
C1092 C1095 1.511 . S
C1093 C1089 1.376 . S
C1093 C1092 1.392 . S
C1093 H1105 0.929 . S
C1094 C1090 1.531 . S
C1094 H1106 0.960 . S
C1094 H1107 0.962 . S
C1094 H1108 0.960 . S
C1095 C1092 1.511 . S
C1095 H1109 0.961 . S
C1095 H1110 0.961 . S
C1095 H1111 0.961 . S
C1096 C1097 1.370 . S
C1096 C1098 1.363 . S
C1096 H1112 0.931 . S
C1097 C1096 1.370 . S
C1097 C1101 1.408 . S
C1098 C1096 1.363 . S
C1098 C1099 1.370 . S
C1098 C1102 1.524 . S
C1099 C1091 1.503 . S
C1099 C1098 1.370 . S
C1099 C1100 1.403 . S
C1100 C1099 1.403 . S
C1100 C1101 1.404 . S
C1100 C1103 1.539 . S
C1101 C1097 1.408 . S
C1101 C1100 1.404 . S
C1101 H1113 0.930 . S
C1102 C1098 1.524 . S
C1102 H1114 0.956 . S
C1102 H1115 0.961 . S
C1102 H1116 0.961 . S
C1103 C1100 1.539 . S
C1103 H1117 0.958 . S
C1103 H1118 0.961 . S
C1103 H1119 0.960 . S
H1104 C1088 0.931 . S
H1105 C1093 0.929 . S
H1106 C1094 0.960 . S
H1107 C1094 0.962 . S
H1108 C1094 0.960 . S
H1109 C1095 0.961 . S
H1110 C1095 0.961 . S
H1111 C1095 0.961 . S
H1112 C1096 0.931 . S
H1113 C1101 0.930 . S
H1114 C1102 0.956 . S
H1115 C1102 0.961 . S
H1116 C1102 0.961 . S
H1117 C1103 0.958 . S
H1118 C1103 0.961 . S
H1119 C1103 0.960 . S
C1120 C1121 1.391 . S
C1120 C1122 1.394 . S
C1120 H1136 0.931 . S
C1121 C1120 1.391 . S
C1121 C1125 1.376 . S
C1122 C1120 1.394 . S
C1122 C1123 1.369 . S
C1122 C1126 1.531 . S
C1123 C1122 1.369 . S
C1123 C1124 1.410 . S
C1123 C1131 1.503 . S
C1124 C1123 1.410 . S
C1124 C1125 1.392 . S
C1124 C1127 1.511 . S
C1125 C1121 1.376 . S
C1125 C1124 1.392 . S
C1125 H1137 0.929 . S
C1126 C1122 1.531 . S
C1126 H1138 0.960 . S
C1126 H1139 0.962 . S
C1126 H1140 0.960 . S
C1127 C1124 1.511 . S
C1127 H1141 0.961 . S
C1127 H1142 0.961 . S
C1127 H1143 0.961 . S
C1128 C1129 1.370 . S
C1128 C1130 1.363 . S
C1128 H1144 0.931 . S
C1129 C1128 1.370 . S
C1129 C1133 1.408 . S
C1130 C1128 1.363 . S
C1130 C1131 1.370 . S
C1130 C1134 1.524 . S
C1131 C1123 1.503 . S
C1131 C1130 1.370 . S
C1131 C1132 1.403 . S
C1132 C1131 1.403 . S
C1132 C1133 1.404 . S
C1132 C1135 1.539 . S
C1133 C1129 1.408 . S
C1133 C1132 1.404 . S
C1133 H1145 0.930 . S
C1134 C1130 1.524 . S
C1134 H1146 0.956 . S
C1134 H1147 0.961 . S
C1134 H1148 0.961 . S
C1135 C1132 1.539 . S
C1135 H1149 0.958 . S
C1135 H1150 0.961 . S
C1135 H1151 0.960 . S
H1136 C1120 0.931 . S
H1137 C1125 0.929 . S
H1138 C1126 0.960 . S
H1139 C1126 0.962 . S
H1140 C1126 0.960 . S
H1141 C1127 0.961 . S
H1142 C1127 0.961 . S
H1143 C1127 0.961 . S
H1144 C1128 0.931 . S
H1145 C1133 0.930 . S
H1146 C1134 0.956 . S
H1147 C1134 0.961 . S
H1148 C1134 0.961 . S
H1149 C1135 0.958 . S
H1150 C1135 0.961 . S
H1151 C1135 0.960 . S
C1152 C1153 1.391 . S
C1152 C1154 1.394 . S
C1152 H1168 0.931 . S
C1153 C1152 1.391 . S
C1153 C1157 1.376 . S
C1154 C1152 1.394 . S
C1154 C1155 1.369 . S
C1154 C1158 1.531 1_545 S
C1155 C1154 1.369 . S
C1155 C1156 1.410 . S
C1155 C1163 1.503 1_545 S
C1156 C1155 1.410 . S
C1156 C1157 1.392 . S
C1156 C1159 1.511 . S
C1157 C1153 1.376 . S
C1157 C1156 1.392 . S
C1157 H1169 0.929 . S
C1158 C1154 1.531 1_565 S
C1158 H1170 0.960 . S
C1158 H1171 0.962 . S
C1158 H1172 0.960 . S
C1159 C1156 1.511 . S
C1159 H1173 0.961 . S
C1159 H1174 0.961 . S
C1159 H1175 0.961 . S
C1160 C1161 1.370 . S
C1160 C1162 1.363 . S
C1160 H1176 0.931 1_455 S
C1161 C1160 1.370 . S
C1161 C1165 1.408 . S
C1162 C1160 1.363 . S
C1162 C1163 1.370 . S
C1162 C1166 1.524 1_465 S
C1163 C1155 1.503 1_565 S
C1163 C1162 1.370 . S
C1163 C1164 1.403 . S
C1164 C1163 1.403 . S
C1164 C1165 1.404 . S
C1164 C1167 1.539 . S
C1165 C1161 1.408 . S
C1165 C1164 1.404 . S
C1165 H1177 0.930 . S
C1166 C1162 1.524 1_645 S
C1166 H1178 0.968 . S
C1166 H1179 0.961 . S
C1166 H1180 0.961 1_545 S
C1167 C1164 1.539 . S
C1167 H1181 0.958 . S
C1167 H1182 0.961 . S
C1167 H1183 0.960 1_565 S
H1168 C1152 0.931 . S
H1169 C1157 0.929 . S
H1170 C1158 0.960 . S
H1171 C1158 0.962 . S
H1172 C1158 0.960 . S
H1173 C1159 0.961 . S
H1174 C1159 0.961 . S
H1175 C1159 0.961 . S
H1176 C1160 0.931 1_655 S
H1177 C1165 0.930 . S
H1178 C1166 0.968 . S
H1179 C1166 0.961 . S
H1180 C1166 0.961 1_565 S
H1181 C1167 0.958 . S
H1182 C1167 0.961 . S
H1183 C1167 0.960 1_545 S
C1184 C1185 1.391 . S
C1184 C1186 1.394 . S
C1184 H1200 0.931 . S
C1185 C1184 1.391 . S
C1185 C1189 1.376 . S
C1186 C1184 1.394 . S
C1186 C1187 1.369 . S
C1186 C1190 1.531 . S
C1187 C1186 1.369 . S
C1187 C1188 1.410 . S
C1187 C1195 1.503 . S
C1188 C1187 1.410 . S
C1188 C1189 1.392 . S
C1188 C1191 1.511 . S
C1189 C1185 1.376 . S
C1189 C1188 1.392 . S
C1189 H1201 0.929 . S
C1190 C1186 1.531 . S
C1190 H1202 0.960 . S
C1190 H1203 0.962 . S
C1190 H1204 0.960 . S
C1191 C1188 1.511 . S
C1191 H1205 0.961 . S
C1191 H1206 0.961 . S
C1191 H1207 0.961 . S
C1192 C1193 1.370 . S
C1192 C1194 1.363 . S
C1192 H1208 0.931 . S
C1193 C1192 1.370 . S
C1193 C1197 1.408 . S
C1194 C1192 1.363 . S
C1194 C1195 1.370 . S
C1194 C1198 1.524 . S
C1195 C1187 1.503 . S
C1195 C1194 1.370 . S
C1195 C1196 1.403 . S
C1196 C1195 1.403 . S
C1196 C1197 1.404 . S
C1196 C1199 1.539 . S
C1197 C1193 1.408 . S
C1197 C1196 1.404 . S
C1197 H1209 0.930 . S
C1198 C1194 1.524 . S
C1198 H1210 0.956 . S
C1198 H1211 0.961 . S
C1198 H1212 0.961 . S
C1199 C1196 1.539 . S
C1199 H1213 0.958 . S
C1199 H1214 0.961 . S
C1199 H1215 0.960 . S
H1200 C1184 0.931 . S
H1201 C1189 0.929 . S
H1202 C1190 0.960 . S
H1203 C1190 0.962 . S
H1204 C1190 0.960 . S
H1205 C1191 0.961 . S
H1206 C1191 0.961 . S
H1207 C1191 0.961 . S
H1208 C1192 0.931 . S
H1209 C1197 0.930 . S
H1210 C1198 0.956 . S
H1211 C1198 0.961 . S
H1212 C1198 0.961 . S
H1213 C1199 0.958 . S
H1214 C1199 0.961 . S
H1215 C1199 0.960 . S
C1216 C1217 1.391 . S
C1216 C1218 1.394 . S
C1216 H1232 0.931 . S
C1217 C1216 1.391 . S
C1217 C1221 1.376 . S
C1218 C1216 1.394 . S
C1218 C1219 1.369 . S
C1218 C1222 1.531 . S
C1219 C1218 1.369 . S
C1219 C1220 1.410 . S
C1219 C1227 1.503 1_545 S
C1220 C1219 1.410 . S
C1220 C1221 1.392 . S
C1220 C1223 1.511 1_545 S
C1221 C1217 1.376 . S
C1221 C1220 1.392 . S
C1221 H1233 0.929 . S
C1222 C1218 1.531 . S
C1222 H1234 0.960 . S
C1222 H1235 0.962 . S
C1222 H1236 0.960 . S
C1223 C1220 1.511 1_565 S
C1223 H1237 0.961 . S
C1223 H1238 0.961 . S
C1223 H1239 0.961 . S
C1224 C1225 1.370 . S
C1224 C1226 1.363 . S
C1224 H1240 0.931 . S
C1225 C1224 1.370 . S
C1225 C1229 1.408 . S
C1226 C1224 1.363 . S
C1226 C1227 1.370 . S
C1226 C1230 1.524 . S
C1227 C1219 1.503 1_565 S
C1227 C1226 1.370 . S
C1227 C1228 1.403 . S
C1228 C1227 1.403 . S
C1228 C1229 1.404 . S
C1228 C1231 1.539 . S
C1229 C1225 1.408 . S
C1229 C1228 1.404 . S
C1229 H1241 0.930 . S
C1230 C1226 1.524 . S
C1230 H1242 0.956 1_565 S
C1230 H1243 0.961 . S
C1230 H1244 0.961 . S
C1231 C1228 1.539 . S
C1231 H1245 0.958 . S
C1231 H1246 0.961 . S
C1231 H1247 0.960 . S
H1232 C1216 0.931 . S
H1233 C1221 0.929 . S
H1234 C1222 0.960 . S
H1235 C1222 0.962 . S
H1236 C1222 0.960 . S
H1237 C1223 0.961 . S
H1238 C1223 0.961 . S
H1239 C1223 0.961 . S
H1240 C1224 0.931 . S
H1241 C1229 0.930 . S
H1242 C1230 0.956 1_545 S
H1243 C1230 0.961 . S
H1244 C1230 0.961 . S
H1245 C1231 0.958 . S
H1246 C1231 0.961 . S
H1247 C1231 0.960 . S
C1248 C1249 1.391 . S
C1248 C1250 1.394 . S
C1248 H1264 0.931 . S
C1249 C1248 1.391 . S
C1249 C1253 1.376 . S
C1250 C1248 1.394 . S
C1250 C1251 1.369 . S
C1250 C1254 1.531 . S
C1251 C1250 1.369 . S
C1251 C1252 1.410 . S
C1251 C1259 1.503 . S
C1252 C1251 1.410 . S
C1252 C1253 1.392 . S
C1252 C1255 1.511 . S
C1253 C1249 1.376 . S
C1253 C1252 1.392 . S
C1253 H1265 0.929 . S
C1254 C1250 1.531 . S
C1254 H1266 0.960 . S
C1254 H1267 0.962 . S
C1254 H1268 0.960 . S
C1255 C1252 1.511 . S
C1255 H1269 0.961 . S
C1255 H1270 0.961 . S
C1255 H1271 0.961 . S
C1256 C1257 1.370 . S
C1256 C1258 1.363 . S
C1256 H1272 0.931 . S
C1257 C1256 1.370 . S
C1257 C1261 1.408 . S
C1258 C1256 1.363 . S
C1258 C1259 1.370 . S
C1258 C1262 1.524 . S
C1259 C1251 1.503 . S
C1259 C1258 1.370 . S
C1259 C1260 1.403 . S
C1260 C1259 1.403 . S
C1260 C1261 1.404 . S
C1260 C1263 1.539 . S
C1261 C1257 1.408 . S
C1261 C1260 1.404 . S
C1261 H1273 0.930 . S
C1262 C1258 1.524 . S
C1262 H1274 0.956 . S
C1262 H1275 0.961 . S
C1262 H1276 0.961 . S
C1263 C1260 1.539 . S
C1263 H1277 0.958 . S
C1263 H1278 0.961 . S
C1263 H1279 0.960 . S
H1264 C1248 0.931 . S
H1265 C1253 0.929 . S
H1266 C1254 0.960 . S
H1267 C1254 0.962 . S
H1268 C1254 0.960 . S
H1269 C1255 0.961 . S
H1270 C1255 0.961 . S
H1271 C1255 0.961 . S
H1272 C1256 0.931 . S
H1273 C1261 0.930 . S
H1274 C1262 0.956 . S
H1275 C1262 0.961 . S
H1276 C1262 0.961 . S
H1277 C1263 0.958 . S
H1278 C1263 0.961 . S
H1279 C1263 0.960 . S
C1280 C1281 1.391 . S
C1280 C1282 1.394 . S
C1280 H1296 0.931 . S
C1281 C1280 1.391 . S
C1281 C1285 1.376 . S
C1282 C1280 1.394 . S
C1282 C1283 1.369 . S
C1282 C1286 1.531 . S
C1283 C1282 1.369 . S
C1283 C1284 1.410 . S
C1283 C1291 1.503 . S
C1284 C1283 1.410 . S
C1284 C1285 1.392 . S
C1284 C1287 1.511 . S
C1285 C1281 1.376 . S
C1285 C1284 1.392 . S
C1285 H1297 0.929 . S
C1286 C1282 1.531 . S
C1286 H1298 0.960 . S
C1286 H1299 0.962 . S
C1286 H1300 0.960 . S
C1287 C1284 1.511 . S
C1287 H1301 0.961 . S
C1287 H1302 0.961 . S
C1287 H1303 0.961 . S
C1288 C1289 1.370 . S
C1288 C1290 1.363 . S
C1288 H1304 0.931 . S
C1289 C1288 1.370 . S
C1289 C1293 1.408 . S
C1290 C1288 1.363 . S
C1290 C1291 1.370 . S
C1290 C1294 1.524 . S
C1291 C1283 1.503 . S
C1291 C1290 1.370 . S
C1291 C1292 1.403 . S
C1292 C1291 1.403 . S
C1292 C1293 1.404 . S
C1292 C1295 1.539 . S
C1293 C1289 1.408 . S
C1293 C1292 1.404 . S
C1293 H1305 0.930 . S
C1294 C1290 1.524 . S
C1294 H1306 0.956 . S
C1294 H1307 0.961 . S
C1294 H1308 0.961 . S
C1295 C1292 1.539 . S
C1295 H1309 0.958 . S
C1295 H1310 0.950 1_655 S
C1295 H1311 0.960 . S
H1296 C1280 0.931 . S
H1297 C1285 0.929 . S
H1298 C1286 0.960 . S
H1299 C1286 0.962 . S
H1300 C1286 0.960 . S
H1301 C1287 0.961 . S
H1302 C1287 0.961 . S
H1303 C1287 0.961 . S
H1304 C1288 0.931 . S
H1305 C1293 0.930 . S
H1306 C1294 0.956 . S
H1307 C1294 0.961 . S
H1308 C1294 0.961 . S
H1309 C1295 0.958 . S
H1310 C1295 0.950 1_455 S
H1311 C1295 0.960 . S
C1312 C1313 1.391 . S
C1312 C1314 1.394 . S
C1312 H1328 0.931 . S
C1313 C1312 1.391 . S
C1313 C1317 1.376 . S
C1314 C1312 1.394 . S
C1314 C1315 1.369 . S
C1314 C1318 1.531 . S
C1315 C1314 1.369 . S
C1315 C1316 1.410 . S
C1315 C1323 1.503 . S
C1316 C1315 1.410 . S
C1316 C1317 1.392 . S
C1316 C1319 1.511 . S
C1317 C1313 1.376 . S
C1317 C1316 1.392 . S
C1317 H1329 0.929 . S
C1318 C1314 1.531 . S
C1318 H1330 0.960 . S
C1318 H1331 0.962 . S
C1318 H1332 0.960 . S
C1319 C1316 1.511 . S
C1319 H1333 0.961 . S
C1319 H1334 0.961 . S
C1319 H1335 0.961 . S
C1320 C1321 1.370 . S
C1320 C1322 1.363 . S
C1320 H1336 0.931 . S
C1321 C1320 1.370 . S
C1321 C1325 1.408 . S
C1322 C1320 1.363 . S
C1322 C1323 1.370 . S
C1322 C1326 1.524 . S
C1323 C1315 1.503 . S
C1323 C1322 1.370 . S
C1323 C1324 1.403 . S
C1324 C1323 1.403 . S
C1324 C1325 1.404 . S
C1324 C1327 1.539 . S
C1325 C1321 1.408 . S
C1325 C1324 1.404 . S
C1325 H1337 0.930 . S
C1326 C1322 1.524 . S
C1326 H1338 0.956 . S
C1326 H1339 0.961 . S
C1326 H1340 0.961 . S
C1327 C1324 1.539 . S
C1327 H1341 0.958 . S
C1327 H1342 0.961 . S
C1327 H1343 0.960 . S
H1328 C1312 0.931 . S
H1329 C1317 0.929 . S
H1330 C1318 0.960 . S
H1331 C1318 0.962 . S
H1332 C1318 0.960 . S
H1333 C1319 0.961 . S
H1334 C1319 0.961 . S
H1335 C1319 0.961 . S
H1336 C1320 0.931 . S
H1337 C1325 0.930 . S
H1338 C1326 0.956 . S
H1339 C1326 0.961 . S
H1340 C1326 0.961 . S
H1341 C1327 0.958 . S
H1342 C1327 0.961 . S
H1343 C1327 0.960 . S
C1344 C1345 1.391 . S
C1344 C1346 1.394 . S
C1344 H1360 0.931 . S
C1345 C1344 1.391 . S
C1345 C1349 1.376 . S
C1346 C1344 1.394 . S
C1346 C1347 1.369 . S
C1346 C1350 1.531 . S
C1347 C1346 1.369 . S
C1347 C1348 1.410 . S
C1347 C1355 1.503 . S
C1348 C1347 1.410 . S
C1348 C1349 1.392 . S
C1348 C1351 1.511 . S
C1349 C1345 1.376 . S
C1349 C1348 1.392 . S
C1349 H1361 0.929 . S
C1350 C1346 1.531 . S
C1350 H1362 0.960 . S
C1350 H1363 0.962 . S
C1350 H1364 0.960 . S
C1351 C1348 1.511 . S
C1351 H1365 0.961 . S
C1351 H1366 0.961 . S
C1351 H1367 0.961 . S
C1352 C1353 1.370 . S
C1352 C1354 1.363 . S
C1352 H1368 0.931 . S
C1353 C1352 1.370 . S
C1353 C1357 1.408 . S
C1354 C1352 1.363 . S
C1354 C1355 1.370 . S
C1354 C1358 1.524 . S
C1355 C1347 1.503 . S
C1355 C1354 1.370 . S
C1355 C1356 1.403 . S
C1356 C1355 1.403 . S
C1356 C1357 1.404 . S
C1356 C1359 1.539 . S
C1357 C1353 1.408 . S
C1357 C1356 1.404 . S
C1357 H1369 0.930 . S
C1358 C1354 1.524 . S
C1358 H1370 0.956 . S
C1358 H1371 0.961 . S
C1358 H1372 0.961 . S
C1359 C1356 1.539 . S
C1359 H1373 0.958 . S
C1359 H1374 0.961 . S
C1359 H1375 0.960 . S
H1360 C1344 0.931 . S
H1361 C1349 0.929 . S
H1362 C1350 0.960 . S
H1363 C1350 0.962 . S
H1364 C1350 0.960 . S
H1365 C1351 0.961 . S
H1366 C1351 0.961 . S
H1367 C1351 0.961 . S
H1368 C1352 0.931 . S
H1369 C1357 0.930 . S
H1370 C1358 0.956 . S
H1371 C1358 0.961 . S
H1372 C1358 0.961 . S
H1373 C1359 0.958 . S
H1374 C1359 0.961 . S
H1375 C1359 0.960 . S
C1376 C1377 1.391 . S
C1376 C1378 1.394 . S
C1376 H1392 0.931 . S
C1377 C1376 1.391 . S
C1377 C1381 1.376 . S
C1378 C1376 1.394 . S
C1378 C1379 1.369 . S
C1378 C1382 1.531 . S
C1379 C1378 1.369 . S
C1379 C1380 1.410 . S
C1379 C1387 1.503 . S
C1380 C1379 1.410 . S
C1380 C1381 1.392 . S
C1380 C1383 1.511 . S
C1381 C1377 1.376 . S
C1381 C1380 1.392 . S
C1381 H1393 0.929 . S
C1382 C1378 1.531 . S
C1382 H1394 0.960 . S
C1382 H1395 0.962 . S
C1382 H1396 0.960 . S
C1383 C1380 1.511 . S
C1383 H1397 0.961 . S
C1383 H1398 0.961 . S
C1383 H1399 0.961 . S
C1384 C1385 1.370 . S
C1384 C1386 1.363 . S
C1384 H1400 0.931 . S
C1385 C1384 1.370 . S
C1385 C1389 1.408 . S
C1386 C1384 1.363 . S
C1386 C1387 1.370 . S
C1386 C1390 1.524 . S
C1387 C1379 1.503 . S
C1387 C1386 1.370 . S
C1387 C1388 1.403 . S
C1388 C1387 1.403 . S
C1388 C1389 1.404 . S
C1388 C1391 1.539 . S
C1389 C1385 1.408 . S
C1389 C1388 1.404 . S
C1389 H1401 0.930 . S
C1390 C1386 1.524 . S
C1390 H1402 0.956 . S
C1390 H1403 0.961 . S
C1390 H1404 0.961 . S
C1391 C1388 1.539 . S
C1391 H1405 0.958 . S
C1391 H1406 0.961 . S
C1391 H1407 0.960 . S
H1392 C1376 0.931 . S
H1393 C1381 0.929 . S
H1394 C1382 0.960 . S
H1395 C1382 0.962 . S
H1396 C1382 0.960 . S
H1397 C1383 0.961 . S
H1398 C1383 0.961 . S
H1399 C1383 0.961 . S
H1400 C1384 0.931 . S
H1401 C1389 0.930 . S
H1402 C1390 0.956 . S
H1403 C1390 0.961 . S
H1404 C1390 0.961 . S
H1405 C1391 0.958 . S
H1406 C1391 0.961 . S
H1407 C1391 0.960 . S
C1408 C1409 1.391 . S
C1408 C1410 1.394 . S
C1408 H1424 0.931 . S
C1409 C1408 1.391 . S
C1409 C1413 1.376 . S
C1410 C1408 1.394 . S
C1410 C1411 1.369 . S
C1410 C1414 1.531 . S
C1411 C1410 1.369 . S
C1411 C1412 1.410 . S
C1411 C1419 1.503 . S
C1412 C1411 1.410 . S
C1412 C1413 1.392 . S
C1412 C1415 1.511 . S
C1413 C1409 1.376 . S
C1413 C1412 1.392 . S
C1413 H1425 0.929 . S
C1414 C1410 1.531 . S
C1414 H1426 0.960 . S
C1414 H1427 0.962 . S
C1414 H1428 0.960 . S
C1415 C1412 1.511 . S
C1415 H1429 0.961 . S
C1415 H1430 0.961 . S
C1415 H1431 0.961 . S
C1416 C1417 1.370 . S
C1416 C1418 1.363 . S
C1416 H1432 0.931 . S
C1417 C1416 1.370 . S
C1417 C1421 1.408 . S
C1418 C1416 1.363 . S
C1418 C1419 1.370 . S
C1418 C1422 1.524 . S
C1419 C1411 1.503 . S
C1419 C1418 1.370 . S
C1419 C1420 1.403 . S
C1420 C1419 1.403 . S
C1420 C1421 1.404 . S
C1420 C1423 1.539 . S
C1421 C1417 1.408 . S
C1421 C1420 1.404 . S
C1421 H1433 0.930 . S
C1422 C1418 1.524 . S
C1422 H1434 0.956 . S
C1422 H1435 0.961 . S
C1422 H1436 0.961 . S
C1423 C1420 1.539 . S
C1423 H1437 0.958 . S
C1423 H1438 0.961 . S
C1423 H1439 0.960 . S
H1424 C1408 0.931 . S
H1425 C1413 0.929 . S
H1426 C1414 0.960 . S
H1427 C1414 0.962 . S
H1428 C1414 0.960 . S
H1429 C1415 0.961 . S
H1430 C1415 0.961 . S
H1431 C1415 0.961 . S
H1432 C1416 0.931 . S
H1433 C1421 0.930 . S
H1434 C1422 0.956 . S
H1435 C1422 0.961 . S
H1436 C1422 0.961 . S
H1437 C1423 0.958 . S
H1438 C1423 0.961 . S
H1439 C1423 0.960 . S
C1440 C1441 1.391 . S
C1440 C1442 1.394 . S
C1440 H1456 0.931 . S
C1441 C1440 1.391 . S
C1441 C1445 1.376 . S
C1442 C1440 1.394 . S
C1442 C1443 1.369 . S
C1442 C1446 1.531 . S
C1443 C1442 1.369 . S
C1443 C1444 1.410 . S
C1443 C1451 1.503 1_455 S
C1444 C1443 1.410 . S
C1444 C1445 1.392 . S
C1444 C1447 1.511 . S
C1445 C1441 1.376 . S
C1445 C1444 1.392 . S
C1445 H1457 0.929 . S
C1446 C1442 1.531 . S
C1446 H1458 0.960 . S
C1446 H1459 0.962 1_554 S
C1446 H1460 0.960 1_554 S
C1447 C1444 1.511 . S
C1447 H1461 0.961 . S
C1447 H1462 0.961 1_455 S
C1447 H1463 0.961 1_455 S
C1448 C1449 1.370 . S
C1448 C1450 1.363 . S
C1448 H1464 0.931 . S
C1449 C1448 1.370 . S
C1449 C1453 1.408 . S
C1450 C1448 1.363 . S
C1450 C1451 1.370 . S
C1450 C1454 1.524 1_655 S
C1451 C1443 1.503 1_655 S
C1451 C1450 1.370 . S
C1451 C1452 1.403 . S
C1452 C1451 1.403 . S
C1452 C1453 1.404 . S
C1452 C1455 1.539 . S
C1453 C1449 1.408 . S
C1453 C1452 1.404 . S
C1453 H1465 0.930 . S
C1454 C1450 1.524 1_455 S
C1454 H1466 0.956 . S
C1454 H1467 0.961 . S
C1454 H1468 0.961 . S
C1455 C1452 1.539 . S
C1455 H1469 0.958 . S
C1455 H1470 0.961 . S
C1455 H1471 0.960 . S
H1456 C1440 0.931 . S
H1457 C1445 0.929 . S
H1458 C1446 0.960 . S
H1459 C1446 0.962 1_556 S
H1460 C1446 0.960 1_556 S
H1461 C1447 0.961 . S
H1462 C1447 0.961 1_655 S
H1463 C1447 0.961 1_655 S
H1464 C1448 0.931 . S
H1465 C1453 0.930 . S
H1466 C1454 0.956 . S
H1467 C1454 0.961 . S
H1468 C1454 0.961 . S
H1469 C1455 0.958 . S
H1470 C1455 0.961 . S
H1471 C1455 0.960 . S
C1472 C1473 1.391 . S
C1472 C1474 1.394 . S
C1472 H1488 0.931 . S
C1473 C1472 1.391 . S
C1473 C1477 1.376 . S
C1474 C1472 1.394 . S
C1474 C1475 1.369 . S
C1474 C1478 1.531 . S
C1475 C1474 1.369 . S
C1475 C1476 1.410 . S
C1475 C1483 1.503 . S
C1476 C1475 1.410 . S
C1476 C1477 1.392 . S
C1476 C1479 1.511 . S
C1477 C1473 1.376 . S
C1477 C1476 1.392 . S
C1477 H1489 0.929 . S
C1478 C1474 1.531 . S
C1478 H1490 0.960 . S
C1478 H1491 0.962 . S
C1478 H1492 0.960 . S
C1479 C1476 1.511 . S
C1479 H1493 0.961 . S
C1479 H1494 0.961 . S
C1479 H1495 0.961 . S
C1480 C1481 1.370 . S
C1480 C1482 1.363 . S
C1480 H1496 0.931 . S
C1481 C1480 1.370 . S
C1481 C1485 1.408 . S
C1482 C1480 1.363 . S
C1482 C1483 1.370 . S
C1482 C1486 1.524 . S
C1483 C1475 1.503 . S
C1483 C1482 1.370 . S
C1483 C1484 1.403 . S
C1484 C1483 1.403 . S
C1484 C1485 1.404 . S
C1484 C1487 1.539 . S
C1485 C1481 1.408 . S
C1485 C1484 1.404 . S
C1485 H1497 0.930 . S
C1486 C1482 1.524 . S
C1486 H1498 0.956 . S
C1486 H1499 0.961 . S
C1486 H1500 0.961 . S
C1487 C1484 1.539 . S
C1487 H1501 0.958 . S
C1487 H1502 0.961 . S
C1487 H1503 0.960 . S
H1488 C1472 0.931 . S
H1489 C1477 0.929 . S
H1490 C1478 0.960 . S
H1491 C1478 0.962 . S
H1492 C1478 0.960 . S
H1493 C1479 0.961 . S
H1494 C1479 0.961 . S
H1495 C1479 0.961 . S
H1496 C1480 0.931 . S
H1497 C1485 0.930 . S
H1498 C1486 0.956 . S
H1499 C1486 0.961 . S
H1500 C1486 0.961 . S
H1501 C1487 0.958 . S
H1502 C1487 0.961 . S
H1503 C1487 0.960 . S
C1504 C1505 1.391 . S
C1504 C1506 1.394 . S
C1504 H1520 0.931 . S
C1505 C1504 1.391 . S
C1505 C1509 1.376 . S
C1506 C1504 1.394 . S
C1506 C1507 1.369 . S
C1506 C1510 1.531 . S
C1507 C1506 1.369 . S
C1507 C1508 1.410 . S
C1507 C1515 1.503 . S
C1508 C1507 1.410 . S
C1508 C1509 1.392 . S
C1508 C1511 1.511 . S
C1509 C1505 1.376 . S
C1509 C1508 1.392 . S
C1509 H1521 0.929 . S
C1510 C1506 1.531 . S
C1510 H1522 0.960 . S
C1510 H1523 0.962 . S
C1510 H1524 0.960 . S
C1511 C1508 1.511 . S
C1511 H1525 0.961 . S
C1511 H1526 0.961 . S
C1511 H1527 0.961 . S
C1512 C1513 1.370 . S
C1512 C1514 1.363 . S
C1512 H1528 0.931 . S
C1513 C1512 1.370 . S
C1513 C1517 1.408 . S
C1514 C1512 1.363 . S
C1514 C1515 1.370 . S
C1514 C1518 1.524 . S
C1515 C1507 1.503 . S
C1515 C1514 1.370 . S
C1515 C1516 1.403 . S
C1516 C1515 1.403 . S
C1516 C1517 1.404 . S
C1516 C1519 1.539 . S
C1517 C1513 1.408 . S
C1517 C1516 1.404 . S
C1517 H1529 0.930 . S
C1518 C1514 1.524 . S
C1518 H1530 0.956 . S
C1518 H1531 0.961 . S
C1518 H1532 0.961 . S
C1519 C1516 1.539 . S
C1519 H1533 0.958 . S
C1519 H1534 0.961 . S
C1519 H1535 0.960 . S
H1520 C1504 0.931 . S
H1521 C1509 0.929 . S
H1522 C1510 0.960 . S
H1523 C1510 0.962 . S
H1524 C1510 0.960 . S
H1525 C1511 0.961 . S
H1526 C1511 0.961 . S
H1527 C1511 0.961 . S
H1528 C1512 0.931 . S
H1529 C1517 0.930 . S
H1530 C1518 0.956 . S
H1531 C1518 0.961 . S
H1532 C1518 0.961 . S
H1533 C1519 0.958 . S
H1534 C1519 0.961 . S
H1535 C1519 0.960 . S
C1536 C1537 1.391 . S
C1536 C1538 1.394 . S
C1536 H1552 0.931 . S
C1537 C1536 1.391 . S
C1537 C1541 1.376 . S
C1538 C1536 1.394 . S
C1538 C1539 1.369 . S
C1538 C1542 1.531 . S
C1539 C1538 1.369 . S
C1539 C1540 1.410 . S
C1539 C1547 1.503 . S
C1540 C1539 1.410 . S
C1540 C1541 1.392 . S
C1540 C1543 1.511 . S
C1541 C1537 1.376 . S
C1541 C1540 1.392 . S
C1541 H1553 0.929 . S
C1542 C1538 1.531 . S
C1542 H1554 0.960 . S
C1542 H1555 0.962 . S
C1542 H1556 0.960 . S
C1543 C1540 1.511 . S
C1543 H1557 0.961 . S
C1543 H1558 0.961 . S
C1543 H1559 0.961 . S
C1544 C1545 1.370 . S
C1544 C1546 1.363 . S
C1544 H1560 0.931 . S
C1545 C1544 1.370 . S
C1545 C1549 1.408 . S
C1546 C1544 1.363 . S
C1546 C1547 1.370 . S
C1546 C1550 1.524 . S
C1547 C1539 1.503 . S
C1547 C1546 1.370 . S
C1547 C1548 1.403 . S
C1548 C1547 1.403 . S
C1548 C1549 1.404 . S
C1548 C1551 1.539 . S
C1549 C1545 1.408 . S
C1549 C1548 1.404 . S
C1549 H1561 0.930 . S
C1550 C1546 1.524 . S
C1550 H1562 0.956 . S
C1550 H1563 0.961 . S
C1550 H1564 0.961 . S
C1551 C1548 1.539 . S
C1551 H1565 0.958 . S
C1551 H1566 0.961 1_455 S
C1551 H1567 0.960 . S
H1552 C1536 0.931 . S
H1553 C1541 0.929 . S
H1554 C1542 0.960 . S
H1555 C1542 0.962 . S
H1556 C1542 0.960 . S
H1557 C1543 0.961 . S
H1558 C1543 0.961 . S
H1559 C1543 0.961 . S
H1560 C1544 0.931 . S
H1561 C1549 0.930 . S
H1562 C1550 0.956 . S
H1563 C1550 0.961 . S
H1564 C1550 0.961 . S
H1565 C1551 0.958 . S
H1566 C1551 0.961 1_655 S
H1567 C1551 0.960 . S
C1568 C1569 1.391 . S
C1568 C1570 1.394 . S
C1568 H1584 0.931 1_556 S
C1569 C1568 1.391 . S
C1569 C1573 1.376 . S
C1570 C1568 1.394 . S
C1570 C1571 1.369 . S
C1570 C1574 1.531 . S
C1571 C1570 1.369 . S
C1571 C1572 1.410 . S
C1571 C1579 1.503 . S
C1572 C1571 1.410 . S
C1572 C1573 1.392 . S
C1572 C1575 1.511 . S
C1573 C1569 1.376 . S
C1573 C1572 1.392 . S
C1573 H1585 0.929 . S
C1574 C1570 1.531 . S
C1574 H1586 0.960 . S
C1574 H1587 0.962 . S
C1574 H1588 0.960 1_556 S
C1575 C1572 1.511 . S
C1575 H1589 0.961 . S
C1575 H1590 0.961 . S
C1575 H1591 0.961 . S
C1576 C1577 1.370 . S
C1576 C1578 1.363 . S
C1576 H1592 0.931 . S
C1577 C1576 1.370 . S
C1577 C1581 1.408 . S
C1578 C1576 1.363 . S
C1578 C1579 1.370 . S
C1578 C1582 1.524 . S
C1579 C1571 1.503 . S
C1579 C1578 1.370 . S
C1579 C1580 1.403 . S
C1580 C1579 1.403 . S
C1580 C1581 1.404 . S
C1580 C1583 1.539 . S
C1581 C1577 1.408 . S
C1581 C1580 1.404 . S
C1581 H1593 0.930 . S
C1582 C1578 1.524 . S
C1582 H1594 0.956 . S
C1582 H1595 0.961 . S
C1582 H1596 0.961 . S
C1583 C1580 1.539 . S
C1583 H1597 0.958 . S
C1583 H1598 0.961 . S
C1583 H1599 0.960 . S
H1584 C1568 0.931 1_554 S
H1585 C1573 0.929 . S
H1586 C1574 0.960 . S
H1587 C1574 0.962 . S
H1588 C1574 0.960 1_554 S
H1589 C1575 0.961 . S
H1590 C1575 0.961 . S
H1591 C1575 0.961 . S
H1592 C1576 0.931 . S
H1593 C1581 0.930 . S
H1594 C1582 0.956 . S
H1595 C1582 0.961 . S
H1596 C1582 0.961 . S
H1597 C1583 0.958 . S
H1598 C1583 0.961 . S
H1599 C1583 0.960 . S
C1600 C1601 1.391 . S
C1600 C1602 1.394 . S
C1600 H1616 0.931 . S
C1601 C1600 1.391 . S
C1601 C1605 1.376 . S
C1602 C1600 1.394 . S
C1602 C1603 1.369 . S
C1602 C1606 1.531 . S
C1603 C1602 1.369 . S
C1603 C1604 1.410 . S
C1603 C1611 1.503 . S
C1604 C1603 1.410 . S
C1604 C1605 1.392 . S
C1604 C1607 1.511 . S
C1605 C1601 1.376 . S
C1605 C1604 1.392 . S
C1605 H1617 0.929 . S
C1606 C1602 1.531 . S
C1606 H1618 0.960 . S
C1606 H1619 0.962 . S
C1606 H1620 0.960 . S
C1607 C1604 1.511 . S
C1607 H1621 0.961 . S
C1607 H1622 0.961 . S
C1607 H1623 0.961 . S
C1608 C1609 1.370 . S
C1608 C1610 1.363 1_455 S
C1608 H1624 0.931 . S
C1609 C1608 1.370 . S
C1609 C1613 1.408 . S
C1610 C1608 1.363 1_655 S
C1610 C1611 1.370 . S
C1610 C1614 1.524 . S
C1611 C1603 1.503 . S
C1611 C1610 1.370 . S
C1611 C1612 1.403 . S
C1612 C1611 1.403 . S
C1612 C1613 1.404 1_655 S
C1612 C1615 1.539 . S
C1613 C1609 1.408 . S
C1613 C1612 1.404 1_455 S
C1613 H1625 0.930 . S
C1614 C1610 1.524 . S
C1614 H1626 0.956 . S
C1614 H1627 0.961 . S
C1614 H1628 0.961 . S
C1615 C1612 1.539 . S
C1615 H1629 0.958 . S
C1615 H1630 0.961 . S
C1615 H1631 0.960 . S
H1616 C1600 0.931 . S
H1617 C1605 0.929 . S
H1618 C1606 0.960 . S
H1619 C1606 0.962 . S
H1620 C1606 0.960 . S
H1621 C1607 0.961 . S
H1622 C1607 0.961 . S
H1623 C1607 0.961 . S
H1624 C1608 0.931 . S
H1625 C1613 0.930 . S
H1626 C1614 0.956 . S
H1627 C1614 0.961 . S
H1628 C1614 0.961 . S
H1629 C1615 0.958 . S
H1630 C1615 0.961 . S
H1631 C1615 0.960 . S
C481 C11 1.228 . S
C489 C459 1.274 . S
C513 C371 1.841 . S
C521 C59 1.893 . S
C545 C91 1.310 . S
C553 C339 1.337 . S
C577 C139 1.997 . S
C585 C419 1.994 . S
C609 C179 1.808 . S
C617 C411 1.752 . S
C641 C211 1.509 . S
C649 C451 1.501 . S
C673 C379 1.900 . S
C681 C259 1.911 . S
C705 C291 1.531 . S
C713 C331 1.582 . S
C737 C131 1.578 . S
C745 C171 1.612 . S
C769 C19 1.594 . S
C777 C219 1.587 . S
C801 C51 1.566 . S
C809 C251 1.609 . S
C833 C299 1.815 . S
C841 C99 1.817 . S
C865 C16 1.986 . S
C873 C330 1.937 . S
C897 C47 1.293 . S
C905 C410 1.266 . S
C929 C450 1.962 . S
C937 C96 1.930 . S
C961 C127 1.568 . S
C969 C362 1.547 . S
C993 C167 1.171 . S
C1001 C370 1.133 . S
C1025 C322 2.166 . S
C1033 C216 2.055 . S
C1057 C402 1.434 . S
C1065 C247 1.449 . S
C1089 C442 2.174 . S
C1097 C296 2.072 . S
C1121 C10 2.396 . S
C1129 C136 2.385 . S
C1153 C7 1.751 . S
C1161 C42 1.726 . S
C1185 C56 2.149 . S
C1193 C90 2.176 . S
C1217 C122 1.627 . S
C1225 C87 1.631 . S
C1249 C207 1.532 . S
C1257 C162 1.518 . S
C1281 C210 1.340 . S
C1289 C256 1.339 . S
C1313 C242 1.404 . S
C1321 C287 1.455 . S
C1345 C176 1.171 . S
C1353 C290 1.105 . S
C1377 C336 1.531 . S
C1385 C130 1.478 . S
C1409 C202 2.144 . S
C1417 C376 2.064 . S
C1441 C327 1.391 . S
C1449 C250 1.351 . S
C1473 C407 1.814 . S
C1481 C282 1.782 . S
C1505 C170 1.324 . S
C1513 C447 1.345 . S
C1537 C456 1.475 . S
C1545 C50 1.403 . S
C1569 C82 1.660 . S
C1577 C367 1.676 . S
C1601 C416 1.962 . S
C1609 C2 2.043 . S
