# Generated by pormake.
# Topology bcu-j, (5)-cn, num edge types: 1
# Building blocks:
#     Node 0, Type 0, BuildingBlock: BEQFEK_clean_sbu_0, # of connection points: 5
#     Node 1, Type 0, BuildingBlock: BEQFEK_clean_sbu_0, # of connection points: 5
#     Node 2, Type 0, BuildingBlock: BEQFEK_clean_sbu_0, # of connection points: 5
#     Node 3, Type 0, BuildingBlock: BEQFEK_clean_sbu_0, # of connection points: 5
#     Node 4, Type 0, BuildingBlock: BEQFEK_clean_sbu_0, # of connection points: 5
#     Node 5, Type 0, BuildingBlock: BEQFEK_clean_sbu_0, # of connection points: 5
#     Node 6, Type 0, BuildingBlock: BEQFEK_clean_sbu_0, # of connection points: 5
#     Node 7, Type 0, BuildingBlock: BEQFEK_clean_sbu_0, # of connection points: 5
#     Node 8, Type 0, BuildingBlock: BEQFEK_clean_sbu_0, # of connection points: 5
#     Node 9, Type 0, BuildingBlock: BEQFEK_clean_sbu_0, # of connection points: 5
#     Node 10, Type 0, BuildingBlock: BEQFEK_clean_sbu_0, # of connection points: 5
#     Node 11, Type 0, BuildingBlock: BEQFEK_clean_sbu_0, # of connection points: 5
#     Node 12, Type 0, BuildingBlock: BEQFEK_clean_sbu_0, # of connection points: 5
#     Node 13, Type 0, BuildingBlock: BEQFEK_clean_sbu_0, # of connection points: 5
#     Node 14, Type 0, BuildingBlock: BEQFEK_clean_sbu_0, # of connection points: 5
#     Node 15, Type 0, BuildingBlock: BEQFEK_clean_sbu_0, # of connection points: 5
#     Edge 16, Type (0, 0), None
#     Edge 17, Type (0, 0), None
#     Edge 18, Type (0, 0), None
#     Edge 19, Type (0, 0), None
#     Edge 20, Type (0, 0), None
#     Edge 21, Type (0, 0), None
#     Edge 22, Type (0, 0), None
#     Edge 23, Type (0, 0), None
#     Edge 24, Type (0, 0), None
#     Edge 25, Type (0, 0), None
#     Edge 26, Type (0, 0), None
#     Edge 27, Type (0, 0), None
#     Edge 28, Type (0, 0), None
#     Edge 29, Type (0, 0), None
#     Edge 30, Type (0, 0), None
#     Edge 31, Type (0, 0), None
#     Edge 32, Type (0, 0), None
#     Edge 33, Type (0, 0), None
#     Edge 34, Type (0, 0), None
#     Edge 35, Type (0, 0), None
#     Edge 36, Type (0, 0), None
#     Edge 37, Type (0, 0), None
#     Edge 38, Type (0, 0), None
#     Edge 39, Type (0, 0), None
#     Edge 40, Type (0, 0), None
#     Edge 41, Type (0, 0), None
#     Edge 42, Type (0, 0), None
#     Edge 43, Type (0, 0), None
#     Edge 44, Type (0, 0), None
#     Edge 45, Type (0, 0), None
#     Edge 46, Type (0, 0), None
#     Edge 47, Type (0, 0), None
#     Edge 48, Type (0, 0), None
#     Edge 49, Type (0, 0), None
#     Edge 50, Type (0, 0), None
#     Edge 51, Type (0, 0), None
#     Edge 52, Type (0, 0), None
#     Edge 53, Type (0, 0), None
#     Edge 54, Type (0, 0), None
#     Edge 55, Type (0, 0), None
# Relax obj value: 1.025
# Max RMSD: 0.239
# Mean RMSD: 0.221
data_MOF--net-bcu-j--node1-BEQFEK_clean_sbu_0--edge1-none
_symmetry_space_group_name_H-M    P1
_symmetry_Int_Tables_number       1
_symmetry_cell_setting            triclinic
loop_
_symmetry_equiv_pos_as_xyz
'x, y, z'
_cell_length_a     21.176632
_cell_length_b     21.309476
_cell_length_c     19.218725
_cell_angle_alpha  89.677425
_cell_angle_beta   90.119741
_cell_angle_gamma 90.19417
loop_
_atom_site_label
_atom_site_type_symbol
_atom_site_fract_x
_atom_site_fract_y
_atom_site_fract_z
_atom_type_partial_charge
Co0 Co 0.03845 0.02427 0.55399 0.0
Co1 Co 0.09627 0.1238 0.45329 0.0
C2 C 0.17557 0.02272 0.50131 0.0
O3 O 0.12801 0.99655 0.52973 0.0
O4 O 0.17282 0.07911 0.48061 0.0
C5 C 0.05664 1.0036 0.67996 0.0
O6 O 0.10341 0.03588 0.65269 0.0
C7 C 0.17672 0.23317 0.44324 0.0
C8 C 0.14132 0.28862 0.35443 0.0
C9 C 0.18205 0.2922 0.41122 0.0
N10 N 0.13409 0.19794 0.40836 0.0
N11 N 0.11444 0.23082 0.35395 0.0
C12 C 0.20543 0.21155 0.51085 0.0
H13 H 0.24237 0.17661 0.5 0.0
H14 H 0.1693 0.1884 0.54381 0.0
H15 H 0.22837 0.24861 0.54106 0.0
C16 C 0.99357 0.14272 0.62955 0.0
N17 N 0.0225 0.11207 0.57604 0.0
N18 N 0.04709 0.15362 0.53367 0.0
C19 C 0.03473 0.21161 0.55931 0.0
C20 C 1.0033 0.20766 0.62396 0.0
C21 C 0.94885 0.11238 0.67966 0.0
H22 H 0.94118 0.06226 0.66795 0.0
H23 H 0.96584 0.11875 0.73376 0.0
H24 H 0.90225 0.13555 0.67513 0.0
O25 O 0.99489 0.99672 0.47086 0.0
O26 O 0.05858 0.04769 0.39663 0.0
H27 H 0.9988 0.29878 0.52072 0.0
H28 H 0.0844 0.29471 0.53176 0.0
C29 C 0.04128 0.26921 0.51595 0.0
H30 H 0.04389 0.25701 0.46043 0.0
H31 H 0.0789 0.21614 0.32011 0.0
O32 O 0.0159 0.97898 0.63996 0.0
C33 C 0.02155 1.00118 0.41155 0.0
Co34 Co 0.44731 0.08318 0.65936 0.0
Co35 Co 0.38569 0.01829 0.56187 0.0
C36 C 0.42681 0.13996 0.52658 0.0
O37 O 0.46778 0.11957 0.56721 0.0
O38 O 0.37423 0.11159 0.5269 0.0
C39 C 0.36909 0.17945 0.70183 0.0
O40 O 0.32764 0.15126 0.66183 0.0
C41 C 0.29295 0.01202 0.4722 0.0
C42 C 0.24827 0.92792 0.5164 0.0
C43 C 0.23549 0.98811 0.4939 0.0
N44 N 0.3391 0.97243 0.49185 0.0
N45 N 0.31134 0.91985 0.5122 0.0
C46 C 0.30134 0.05922 0.4148 0.0
H47 H 0.26972 0.04726 0.37061 0.0
H48 H 0.35097 0.05966 0.39649 0.0
H49 H 0.28825 0.1066 0.43238 0.0
C50 C 0.36018 0.02221 0.76165 0.0
N51 N 0.37839 0.03339 0.69535 0.0
N52 N 0.34255 1.00297 0.65238 0.0
C53 C 0.29898 0.9704 0.69153 0.0
C54 C 0.30329 0.98815 0.76258 0.0
C55 C 0.41051 0.01413 0.8152 0.0
H56 H 0.45676 1.00598 0.78977 0.0
H57 H 0.41486 0.05752 0.84473 0.0
H58 H 0.40124 0.97306 0.84934 0.0
O59 O 0.52613 0.03801 0.66816 0.0
O60 O 0.48737 1.00183 0.56811 0.0
H61 H 0.28082 0.87398 0.72058 0.0
H62 H 0.23605 0.90181 0.64659 0.0
C63 C 0.28208 0.90416 0.6735 0.0
H64 H 0.31919 0.88368 0.64055 0.0
H65 H 0.33585 0.88012 0.52869 0.0
O66 O 0.42636 0.1621 0.70068 0.0
C67 C 0.5351 0.01089 0.61001 0.0
Co68 Co 0.5109 0.47137 0.62595 0.0
Co69 Co 0.48787 0.37647 0.54655 0.0
C70 C 0.39467 0.47428 0.54254 0.0
O71 O 0.42373 0.49981 0.59329 0.0
O72 O 0.4106 0.42029 0.52295 0.0
C73 C 0.51779 0.54658 0.7372 0.0
O74 O 0.47424 0.50487 0.7521 0.0
C75 C 0.42808 0.25924 0.51179 0.0
C76 C 0.50059 0.20835 0.45575 0.0
C77 C 0.44228 0.1993 0.48827 0.0
N78 N 0.47518 0.29979 0.49507 0.0
N79 N 0.51719 0.26932 0.4581 0.0
C80 C 0.37553 0.27527 0.56007 0.0
H81 H 0.35144 0.31798 0.54088 0.0
H82 H 0.39458 0.28545 0.6125 0.0
H83 H 0.3407 0.23652 0.56345 0.0
C84 C 0.5406 0.37253 0.74245 0.0
N85 N 0.5148 0.39622 0.68273 0.0
N86 N 0.50153 0.3499 0.64105 0.0
C87 C 0.52063 0.29571 0.6709 0.0
C88 C 0.53981 0.30703 0.73884 0.0
C89 C 0.58666 0.40765 0.787 0.0
H90 H 0.59425 0.4561 0.76835 0.0
H91 H 0.57091 0.40758 0.8416 0.0
H92 H 0.633 0.38345 0.78608 0.0
O93 O 0.55259 0.45249 0.52978 0.0
O94 O 0.55602 0.44975 0.52665 0.0
H95 H 0.58783 0.22098 0.65628 0.0
H96 H 0.51024 0.20908 0.61996 0.0
C97 C 0.54753 0.24361 0.62921 0.0
H98 H 0.56577 0.26177 0.57919 0.0
H99 H 0.56053 0.288 0.44243 0.0
O100 O 0.5469 0.54229 0.67967 0.0
C101 C 0.54353 0.49973 0.49103 0.0
Co102 Co 0.17226 0.38468 0.56391 0.0
Co103 Co 0.19774 0.48973 0.475 0.0
C104 C 0.20782 0.35143 0.44201 0.0
O105 O 0.23347 0.34953 0.50056 0.0
O106 O 0.18677 0.40442 0.4232 0.0
C107 C 0.21955 0.31085 0.66778 0.0
O108 O 0.27127 0.33957 0.64751 0.0
C109 C 0.31029 0.48619 0.44618 0.0
C110 C 0.33527 0.57274 0.50042 0.0
C111 C 0.34836 0.5094 0.49916 0.0
N112 N 0.26751 0.53013 0.4274 0.0
N113 N 0.28716 0.58333 0.45543 0.0
C114 C 0.32798 0.43253 0.40018 0.0
H115 H 0.29462 0.42805 0.35585 0.0
H116 H 0.33017 0.38815 0.43026 0.0
H117 H 0.3762 0.4408 0.37963 0.0
C118 C 0.19376 0.47507 0.67667 0.0
N119 N 0.20331 0.45421 0.61177 0.0
N120 N 0.22297 0.50052 0.57335 0.0
C121 C 0.23954 0.54847 0.61692 0.0
C122 C 0.22912 0.52927 0.68552 0.0
C123 C 0.12593 0.47881 0.69754 0.0
H124 H 0.11245 0.43486 0.72263 0.0
H125 H 0.11501 0.51928 0.73105 0.0
H126 H 0.09565 0.48493 0.65071 0.0
O127 O 0.08878 0.40931 0.51644 0.0
O128 O 0.10262 0.50603 0.47334 0.0
H129 H 0.20419 0.64129 0.63918 0.0
H130 H 0.27663 0.64059 0.59272 0.0
C131 C 0.23053 0.61637 0.59775 0.0
H132 H 0.20337 0.62081 0.54859 0.0
H133 H 0.26519 0.62651 0.44719 0.0
O134 O 0.17013 0.31618 0.63086 0.0
C135 C 0.06588 0.45974 0.49057 0.0
Co136 Co 0.10917 0.36294 0.81115 0.0
Co137 Co 0.9926 0.34394 0.88337 0.0
C138 C 0.12366 0.35687 0.94482 0.0
O139 O 0.13828 0.32231 0.89512 0.0
O140 O 0.06662 0.37382 0.94666 0.0
C141 C 0.20649 0.31014 0.74079 0.0
O142 O 0.18049 0.25928 0.76703 0.0
C143 C 0.99754 0.24818 0.96107 0.0
C144 C 0.92779 0.19404 0.90201 0.0
C145 C 0.98851 0.19147 0.92782 0.0
N146 N 0.94924 0.28696 0.94519 0.0
N147 N 0.90532 0.25203 0.9152 0.0
C148 C 0.03831 0.25616 0.02437 0.0
H149 H 0.0264 0.21905 0.06302 0.0
H150 H 0.03063 0.30263 0.04868 0.0
H151 H 0.08879 0.25 0.01106 0.0
C152 C 0.04511 0.30428 0.69132 0.0
N153 N 0.0522 0.31408 0.76008 0.0
N154 N 1.00233 0.29456 0.79322 0.0
C155 C 0.9692 0.25773 0.74703 0.0
C156 C 1.00067 0.25716 0.6822 0.0
C157 C 0.03498 0.36289 0.64973 0.0
H158 H 0.01598 0.40052 0.68351 0.0
H159 H 0.08023 0.37891 0.62983 0.0
H160 H 0.99978 0.35813 0.60778 0.0
O161 O 0.07163 0.44782 0.83302 0.0
O162 O 0.97118 0.43692 0.863 0.0
H163 H 0.87774 0.24763 0.69861 0.0
H164 H 0.88882 0.20083 0.77491 0.0
C165 C 0.89933 0.24711 0.75135 0.0
H166 H 0.87705 0.28466 0.78234 0.0
H167 H 0.86169 0.26923 0.89875 0.0
O168 O 0.18885 0.36322 0.7626 0.0
C169 C 0.01888 0.47276 0.84807 0.0
Co170 Co 0.05923 1.00301 0.88059 0.0
Co171 Co 0.1441 0.08091 0.97716 0.0
C172 C 0.03458 0.14 0.91993 0.0
O173 O 0.01664 0.08718 0.8967 0.0
O174 O 0.09129 0.14834 0.93905 0.0
C175 C 0.04493 0.01385 0.7531 0.0
O176 O 0.07136 0.06396 0.78007 0.0
C177 C 0.24092 0.17169 -0.00941 0.0
C178 C 0.28853 0.15369 0.09067 0.0
C179 C 0.29368 0.18881 0.02961 0.0
N180 N 0.20754 0.12839 0.02601 0.0
N181 N 0.23525 0.11869 0.08673 0.0
C182 C 0.22381 0.19022 0.91753 0.0
H183 H 0.18371 0.2227 0.92047 0.0
H184 H 0.20707 0.14926 0.88771 0.0
H185 H 0.26158 0.21315 0.88764 0.0
C186 C 0.18598 0.97137 0.81348 0.0
N187 N 0.15007 0.99893 0.86347 0.0
N188 N 0.18657 0.03115 0.90459 0.0
C189 C 0.24714 0.02494 0.88195 0.0
C190 C 0.24998 0.99025 0.81894 0.0
C191 C 0.16107 0.9188 0.77021 0.0
H192 H 0.11372 0.9038 0.78804 0.0
H193 H 0.15857 0.93336 0.71508 0.0
H194 H 0.19181 0.87728 0.77601 0.0
O195 O 0.03466 0.96218 0.96764 0.0
O196 O 0.07042 0.04114 0.03264 0.0
H197 H 0.3371 1.00514 0.92792 0.0
H198 H 0.32105 0.08742 0.90932 0.0
C199 C 0.30122 0.04242 0.92727 0.0
H200 H 0.28563 0.04733 0.98176 0.0
H201 H 0.22065 0.08507 0.12304 0.0
O202 O 0.02172 0.97219 0.79322 0.0
C203 C 0.0302 0.99707 0.02135 0.0
Co204 Co 0.40775 0.173 0.89275 0.0
Co205 Co 0.49404 0.22158 -0.00028 0.0
C206 C 0.35263 0.21839 0.00349 0.0
O207 O 0.35635 0.23317 0.94057 0.0
O208 O 0.40394 0.20857 0.03514 0.0
C209 C 0.34911 0.19839 0.7696 0.0
O210 O 0.36196 0.25616 0.78845 0.0
C211 C 0.47326 0.32865 0.03083 0.0
C212 C 0.55722 0.36645 0.97932 0.0
C213 C 0.49221 0.36902 0.9775 0.0
N214 N 0.52293 0.29367 0.05155 0.0
N215 N 0.57369 0.32133 0.02555 0.0
C216 C 0.41777 0.34006 0.07756 0.0
H217 H 0.4173 0.30616 0.12164 0.0
H218 H 0.37283 0.3368 0.0483 0.0
H219 H 0.42078 0.38834 0.09873 0.0
C220 C 0.50999 0.20767 0.79688 0.0
N221 N 0.48084 0.20986 0.85864 0.0
N222 N 0.51438 0.24266 0.90188 0.0
C223 C 0.5616 0.27028 0.86411 0.0
C224 C 0.55214 0.25743 0.7936 0.0
C225 C 0.53445 0.14455 0.77575 0.0
H226 H 0.49933 0.10764 0.78738 0.0
H227 H 0.5468 0.14375 0.72009 0.0
H228 H 0.57794 0.13331 0.80575 0.0
O229 O 0.42962 0.09955 0.95375 0.0
O230 O 0.51331 0.129 0.01702 0.0
H231 H 0.66147 0.25158 0.85241 0.0
H232 H 0.64424 0.322 0.89727 0.0
C233 C 0.62852 0.27279 0.89055 0.0
H234 H 0.63323 0.24633 0.94011 0.0
H235 H 0.61981 0.30825 0.03797 0.0
O236 O 0.35486 0.15449 0.81385 0.0
C237 C 0.47413 0.08631 -0.00424 0.0
Co238 Co 0.43517 0.53685 0.87441 0.0
Co239 Co 0.33858 0.4876 0.94381 0.0
C240 C 0.45202 0.41222 0.93589 0.0
O241 O 0.4755 0.45113 0.89198 0.0
O242 O 0.39547 0.4178 0.95512 0.0
C243 C 0.53133 0.59681 0.78668 0.0
O244 O 0.57369 0.63994 0.77177 0.0
C245 C 0.23724 0.40041 0.96135 0.0
C246 C 0.16338 0.44731 0.02182 0.0
C247 C 0.17378 0.39494 0.98034 0.0
N248 N 0.26183 0.45384 -0.01238 0.0
N249 N 0.21785 0.48077 0.02589 0.0
C250 C 0.27342 0.36034 0.91157 0.0
H251 H 0.31349 0.33971 0.94002 0.0
H252 H 0.29311 0.38918 0.86873 0.0
H253 H 0.24645 0.3213 0.8893 0.0
C254 C 0.3368 0.55399 0.75086 0.0
N255 N 0.36165 0.53482 0.81305 0.0
N256 N 0.31669 0.50862 0.8495 0.0
C257 C 0.26219 0.5115 0.81354 0.0
C258 C 0.27304 0.53605 0.74737 0.0
C259 C 0.36657 0.60229 0.70461 0.0
H260 H 0.41379 0.61625 0.72353 0.0
H261 H 0.36904 0.58519 0.65063 0.0
H262 H 0.33638 0.64475 0.70376 0.0
O263 O 0.40605 0.55626 0.97608 0.0
O264 O 0.40258 0.55834 0.97999 0.0
H265 H 0.16585 0.54103 0.82302 0.0
H266 H 0.18293 0.45999 0.84772 0.0
C267 C 0.19976 0.50896 0.84828 0.0
H268 H 0.20413 0.52536 0.9024 0.0
H269 H 0.22282 0.52467 0.04901 0.0
O270 O 0.50066 0.59999 0.84351 0.0
C271 C 0.451 0.54492 0.01805 0.0
Co272 Co 0.93966 0.85322 0.27842 0.0
Co273 Co 0.03939 0.80658 0.38193 0.0
C274 C 0.89595 0.82978 0.41529 0.0
O275 O 0.88004 0.84566 0.35446 0.0
O276 O 0.95295 0.81564 0.4277 0.0
C277 C 0.88164 0.73766 0.23506 0.0
O278 O 0.86582 0.67813 0.23771 0.0
C279 C 0.02073 0.70217 0.44114 0.0
C280 C 0.09255 0.6525 0.38133 0.0
C281 C 0.02943 0.65104 0.39866 0.0
N282 N 0.07256 0.73915 0.43813 0.0
N283 N 0.11709 0.70586 0.40772 0.0
C284 C 0.97412 0.70383 0.4999 0.0
H285 H 0.98298 0.74479 0.53407 0.0
H286 H 0.92518 0.70543 0.47923 0.0
H287 H 0.97822 0.66014 0.53135 0.0
C288 C 0.02553 0.80812 0.17706 0.0
N289 N 0.01366 0.81759 0.24427 0.0
N290 N 0.05107 0.78365 0.28278 0.0
C291 C 0.08888 0.75064 0.2379 0.0
C292 C 0.07023 0.76218 0.16837 0.0
C293 C 1.00991 0.85677 0.1261 0.0
H294 H 0.9914 0.89675 0.15639 0.0
H295 H 0.9747 0.83839 0.08858 0.0
H296 H 0.05287 0.87341 0.09883 0.0
O297 O 0.97726 0.92823 0.3317 0.0
O298 O 0.06156 0.89808 0.39346 0.0
H299 H 0.18577 0.73514 0.20786 0.0
H300 H 0.15785 0.68374 0.27452 0.0
C301 C 0.1555 0.73244 0.25496 0.0
H302 H 0.17525 0.76474 0.29451 0.0
H303 H 0.16365 0.72109 0.40202 0.0
O304 O 0.91302 0.76211 0.28443 0.0
C305 C 0.02396 0.9415 0.37156 0.0
Co306 Co 0.58341 0.02461 0.44052 0.0
Co307 Co 0.69014 0.93758 0.49603 0.0
C308 C 0.56918 0.88746 0.47762 0.0
O309 O 0.54493 0.94093 0.46476 0.0
O310 O 0.62748 0.87711 0.46817 0.0
C311 C 0.48843 0.09041 0.35683 0.0
O312 O 0.44479 0.13345 0.3485 0.0
C313 C 0.78628 0.84742 0.4655 0.0
C314 C 0.86601 0.87507 0.53197 0.0
C315 C 0.85107 0.84044 0.47306 0.0
N316 N 0.76479 0.88748 0.51389 0.0
N317 N 0.81234 0.9016 0.55573 0.0
C318 C 0.74596 0.82096 0.40871 0.0
H319 H 0.71054 0.78871 0.43184 0.0
H320 H 0.71978 0.85927 0.3827 0.0
H321 H 0.77375 0.79383 0.37058 0.0
C322 C 0.67798 0.04159 0.3202 0.0
N323 N 0.65893 0.02109 0.38404 0.0
N324 N 0.7062 0.99112 0.41373 0.0
C325 C 0.75568 0.99172 0.36888 0.0
C326 C 0.73885 0.0203 0.30662 0.0
C327 C 0.64633 0.09273 0.27999 0.0
H328 H 0.61385 0.11938 0.31386 0.0
H329 H 0.62019 0.07251 0.23598 0.0
H330 H 0.68185 0.12565 0.25826 0.0
O331 O 0.60843 0.05439 0.53127 0.0
O332 O 0.6364 0.9667 0.58045 0.0
H333 H 0.84789 0.02999 0.38158 0.0
H334 H 0.8463 0.95099 0.35509 0.0
C335 C 0.82305 0.98457 0.38985 0.0
H336 H 0.828 0.97216 0.44521 0.0
H337 H 0.80994 0.93491 0.59515 0.0
O338 O 0.51721 0.08522 0.41418 0.0
C339 C 0.60039 0.01461 0.57965 0.0
Co340 Co 0.52731 0.61141 0.38653 0.0
Co341 Co 0.52116 0.69374 0.48285 0.0
C342 C 0.64784 0.6413 0.44762 0.0
O343 O 0.62191 0.60933 0.39918 0.0
O344 O 0.61462 0.67845 0.48346 0.0
C345 C 0.50457 0.5348 0.27368 0.0
O346 O 0.54705 0.57268 0.24692 0.0
C347 C 0.55548 0.78521 0.54467 0.0
C348 C 0.46906 0.83997 0.53063 0.0
C349 C 0.53269 0.84017 0.5163 0.0
N350 N 0.50632 0.74804 0.56078 0.0
N351 N 0.45511 0.78326 0.55818 0.0
C352 C 0.61915 0.77847 0.57845 0.0
H353 H 0.62174 0.73425 0.60918 0.0
H354 H 0.65702 0.77897 0.53885 0.0
H355 H 0.62785 0.81888 0.61348 0.0
C356 C 0.47268 0.71161 0.2864 0.0
N357 N 0.49921 0.69036 0.34627 0.0
N358 N 0.49099 0.73176 0.39529 0.0
C359 C 0.45548 0.77967 0.36899 0.0
C360 C 0.45135 0.77296 0.29687 0.0
C361 C 0.43706 0.66736 0.24037 0.0
H362 H 0.42005 0.62668 0.27124 0.0
H363 H 0.46764 0.65031 0.19837 0.0
H364 H 0.39443 0.68947 0.21777 0.0
O365 O 0.49327 0.60011 0.48619 0.0
O366 O 0.48993 0.60048 0.48871 0.0
H367 H 0.35501 0.79939 0.37071 0.0
H368 H 0.40137 0.84917 0.42421 0.0
C369 C 0.39668 0.8004 0.40602 0.0
H370 H 0.38558 0.7685 0.45 0.0
H371 H 0.40995 0.76725 0.57099 0.0
O372 O 0.49021 0.54062 0.33683 0.0
C373 C 0.51913 0.558 0.52338 0.0
Co374 Co 0.96241 0.46892 0.32862 0.0
Co375 Co 0.87823 0.53799 0.43362 0.0
C376 C 0.98296 0.60251 0.37978 0.0
O377 O 1.00252 0.55123 0.35527 0.0
O378 O 0.92506 0.6095 0.39432 0.0
C379 C 0.97451 0.50117 0.20683 0.0
O380 O 0.94084 0.54078 0.24309 0.0
C381 C 0.76605 0.61388 0.43502 0.0
C382 C 0.72589 0.60292 0.53957 0.0
C383 C 0.71225 0.62574 0.47326 0.0
N384 N 0.80865 0.58328 0.47551 0.0
N385 N 0.78473 0.57833 0.53873 0.0
C386 C 0.7744 0.62808 0.35915 0.0
H387 H 0.77825 0.67962 0.35201 0.0
H388 H 0.81736 0.60578 0.33824 0.0
H389 H 0.73259 0.61228 0.329 0.0
C390 C 0.8334 0.44014 0.26634 0.0
N391 N 0.87193 0.46094 0.31788 0.0
N392 N 0.83698 0.48472 0.36685 0.0
C393 C 0.77535 0.4779 0.34872 0.0
C394 C 0.77049 0.45455 0.2815 0.0
C395 C 0.85535 0.40547 0.20329 0.0
H396 H 0.89847 0.37814 0.2157 0.0
H397 H 0.86647 0.43865 0.16057 0.0
H398 H 0.81761 0.37344 0.18447 0.0
O399 O 0.99242 0.42345 0.409 0.0
O400 O 0.95888 0.49847 0.48174 0.0
H401 H 0.69743 0.43243 0.39836 0.0
H402 H 0.68701 0.51422 0.38339 0.0
C403 C 0.72186 0.47853 0.39928 0.0
H404 H 0.73856 0.48605 0.45314 0.0
H405 H 0.80628 0.55414 0.57973 0.0
O406 O 0.99868 0.45346 0.23654 0.0
C407 C 0.99995 0.45665 0.46368 0.0
Co408 Co 1.01152 0.5506 0.01699 0.0
Co409 Co 0.96766 0.66458 0.92729 0.0
C410 C 0.87865 0.56997 0.96853 0.0
O411 O 0.92324 0.53315 -0.01611 0.0
O412 O 0.88853 0.62834 0.9618 0.0
C413 C 0.9784 0.5139 0.1335 0.0
O414 O 0.94313 0.56004 0.1104 0.0
C415 C 0.88302 0.77562 0.91012 0.0
C416 C 0.94834 0.85119 0.88462 0.0
C417 C 0.88892 0.84041 0.91277 0.0
N418 N 0.93738 0.74822 0.8888 0.0
N419 N 0.97467 0.79495 0.86885 0.0
C420 C 0.82544 0.74176 0.93238 0.0
H421 H 0.81894 0.69835 0.90167 0.0
H422 H 0.83097 0.73232 -0.01154 0.0
H423 H 0.78294 0.77159 0.92533 0.0
C424 C 0.06306 0.65338 0.10867 0.0
N425 N 0.03349 0.63257 0.05035 0.0
N426 N 0.02243 0.68015 0.00867 0.0
C427 C 0.04658 0.7325 0.03887 0.0
C428 C 0.0697 0.71843 0.10597 0.0
C429 C 0.0918 0.61164 0.16282 0.0
H430 H 0.09714 0.5632 0.14385 0.0
H431 H 0.06277 0.61239 0.21082 0.0
H432 H 0.13992 0.62845 0.17532 0.0
O433 O 0.05945 0.53485 0.93572 0.0
O434 O 0.98967 0.58304 0.8671 0.0
H435 H 0.10756 0.81269 0.02287 0.0
H436 H 0.02852 0.82059 -0.01162 0.0
C437 C 0.068 0.78779 -0.00318 0.0
H438 H 0.08503 0.77158 0.9455 0.0
H439 H 0.02087 0.78895 0.85143 0.0
O440 O 0.02124 0.49163 0.09481 0.0
C441 C 0.0257 0.53559 0.881 0.0
Co442 Co 0.8627 0.89568 0.10353 0.0
Co443 Co 0.84478 0.01492 0.03773 0.0
C444 C 0.85673 0.88055 0.96617 0.0
O445 O 0.83483 0.85351 0.0199 0.0
O446 O 0.86452 0.94013 0.96752 0.0
C447 C 0.8636 0.7766 0.17584 0.0
O448 O 0.82459 0.75559 0.12817 0.0
C449 C 0.72276 0.01417 0.01131 0.0
C450 C 0.69852 0.09515 0.0754 0.0
C451 C 0.67986 0.03441 0.06053 0.0
N452 N 0.77018 0.05647 0.00493 0.0
N453 N 0.7524 0.10687 0.03972 0.0
C454 C 0.71969 0.9533 0.97327 0.0
H455 H 0.75195 0.95386 0.92797 0.0
H456 H 0.7313 0.9144 0.00951 0.0
H457 H 0.67087 0.9451 0.95411 0.0
C458 C 0.77294 0.94323 0.20928 0.0
N459 N 0.80488 0.94638 0.14882 0.0
N460 N 0.81783 1.00444 0.13402 0.0
C461 C 0.79713 0.04108 0.18711 0.0
C462 C 0.76635 1.00353 0.23671 0.0
C463 C 0.74937 0.88327 0.23977 0.0
H464 H 0.78539 0.86507 0.27611 0.0
H465 H 0.74199 0.84801 0.19825 0.0
H466 H 0.70446 0.89111 0.26798 0.0
O467 O 0.94032 0.94884 0.07137 0.0
O468 O 0.93149 0.04873 0.04155 0.0
H469 H 0.83057 0.11861 0.24752 0.0
H470 H 0.76961 0.13786 0.18676 0.0
C471 C 0.81266 0.10926 0.19423 0.0
H472 H 0.8486 0.12362 0.15524 0.0
H473 H 0.78138 0.1459 0.04756 0.0
O474 O 0.88415 0.83244 0.17299 0.0
C475 C 0.96629 1.00056 0.05303 0.0
Co476 Co 0.50154 1.00417 0.16905 0.0
Co477 Co 0.53557 0.9026 0.06699 0.0
C478 C 0.62735 0.9982 0.09299 0.0
O479 O 0.58607 0.02706 0.12833 0.0
O480 O 0.62021 0.94031 0.07903 0.0
C481 C 0.50442 0.05033 0.29978 0.0
O482 O 0.54108 1.00145 0.309 0.0
C483 C 0.57835 0.77742 0.06445 0.0
C484 C 0.52407 0.73317 0.97998 0.0
C485 C 0.55987 0.72011 0.03886 0.0
N486 N 0.551 0.82301 0.02589 0.0
N487 N 0.51951 0.79625 0.97446 0.0
C488 C 0.61623 0.78781 0.1293 0.0
H489 H 0.66586 0.77378 0.11961 0.0
H490 H 0.61531 0.83755 0.14552 0.0
H491 H 0.59793 0.75756 0.17203 0.0
C492 C 0.45915 0.89114 0.25692 0.0
N493 N 0.48532 0.92016 0.2007 0.0
N494 N 0.49245 0.8788 0.15168 0.0
C495 C 0.46956 0.82269 0.1739 0.0
C496 C 0.45317 0.8266 0.24403 0.0
C497 C 0.42222 0.92554 0.31083 0.0
H498 H 0.40906 0.97281 0.29184 0.0
H499 H 0.45022 0.92947 0.35943 0.0
H500 H 0.37726 0.90075 0.32169 0.0
O501 O 0.44725 0.02654 0.09339 0.0
O502 O 0.50032 0.97726 0.01077 0.0
H503 H 0.38841 0.7695 0.14192 0.0
H504 H 0.46289 0.73361 0.12287 0.0
C505 C 0.43758 0.77861 0.12473 0.0
H506 H 0.43458 0.79939 0.07194 0.0
H507 H 0.49074 0.82047 0.93933 0.0
O508 O 0.48136 0.06193 0.24069 0.0
C509 C 0.46993 0.0253 0.03248 0.0
Co510 Co 0.55476 0.53097 0.12666 0.0
Co511 Co 0.64597 0.5459 0.04477 0.0
C512 C 0.57833 0.65769 0.06394 0.0
O513 O 0.54745 0.62737 0.1109 0.0
O514 O 0.62177 0.63148 0.03074 0.0
C515 C 0.46695 0.49358 0.22939 0.0
O516 O 0.41789 0.46346 0.25467 0.0
C517 C 0.75988 0.57367 -0.01623 0.0
C518 C 0.79778 0.48286 0.94889 0.0
C519 C 0.81442 0.54474 0.96227 0.0
N520 N 0.71321 0.5312 -0.01608 0.0
N521 N 0.73543 0.477 0.96195 0.0
C522 C 0.7557 0.63421 0.02241 0.0
H523 H 0.73462 0.67047 -0.01187 0.0
H524 H 0.72469 0.62941 0.06799 0.0
H525 H 0.80206 0.64893 0.04312 0.0
C526 C 0.65572 0.47044 0.22905 0.0
N527 N 0.63133 0.50281 0.17401 0.0
N528 N 0.67768 0.52544 0.13713 0.0
C529 C 0.73307 0.51358 0.17017 0.0
C530 C 0.72181 0.47615 0.22886 0.0
C531 C 0.61735 0.43005 0.27683 0.0
H532 H 0.57446 0.41283 0.24964 0.0
H533 H 0.60248 0.4578 0.32251 0.0
H534 H 0.64556 0.38948 0.2955 0.0
O535 O 0.5572 0.50494 0.025 0.0
O536 O 0.55778 0.50223 0.02322 0.0
H537 H 0.81318 0.53085 0.10483 0.0
H538 H 0.8291 0.54134 0.19584 0.0
C539 C 0.79353 0.54734 0.15462 0.0
H540 H 0.78492 0.59836 0.1528 0.0
H541 H 0.71001 0.43489 0.96281 0.0
O542 O 0.47965 0.48921 0.16543 0.0
C543 C 0.51481 0.53149 -0.01132 0.0
loop_
_geom_bond_atom_site_label_1
_geom_bond_atom_site_label_2
_geom_bond_distance
_geom_bond_site_symmetry_2
_ccdc_geom_bond_type
Co0 O3 1.970 . S
Co0 N17 1.989 1_455 S
Co0 O25 1.967 1_455 S
Co0 O32 1.920 1_455 S
Co1 O4 1.966 1_655 S
Co1 N10 2.022 . S
Co1 N18 1.993 . S
Co1 O26 1.941 . S
C2 O3 1.258 . S
C2 O4 1.263 . S
O3 Co0 1.970 . S
O3 C2 1.258 . S
O4 Co1 1.966 1_455 S
O4 C2 1.263 . S
C5 O6 1.235 . S
C5 O32 1.289 1_455 S
O6 C5 1.235 . S
C7 C9 1.400 . S
C7 N10 1.351 1_455 S
C7 C12 1.501 . S
C8 C9 1.387 1_655 S
C8 N11 1.341 . S
C9 C7 1.400 . S
C9 C8 1.387 1_455 S
N10 Co1 2.022 . S
N10 C7 1.351 1_655 S
N10 N11 1.365 . S
N11 C8 1.341 . S
N11 N10 1.365 . S
N11 H31 0.862 . S
C12 C7 1.501 . S
C12 H13 0.961 . S
C12 H14 0.961 . S
C12 H15 0.960 . S
H13 C12 0.961 . S
H14 C12 0.961 . S
H15 C12 0.960 . S
C16 N17 1.342 . S
C16 C20 1.401 . S
C16 C21 1.499 . S
N17 Co0 1.989 1_655 S
N17 C16 1.342 . S
N17 N18 1.388 . S
N18 Co1 1.993 . S
N18 N17 1.388 . S
N18 C19 1.346 . S
C19 N18 1.346 . S
C19 C20 1.396 . S
C19 C29 1.510 . S
C20 C16 1.401 . S
C20 C19 1.396 . S
C21 C16 1.499 . S
C21 H22 0.959 . S
C21 H23 0.960 . S
C21 H24 0.961 . S
H22 C21 0.959 . S
H23 C21 0.960 . S
H24 C21 0.961 . S
O25 Co0 1.967 1_655 S
O25 C33 1.258 . S
O26 Co1 1.941 . S
O26 C33 1.266 . S
H27 C29 0.959 . S
H28 C29 0.961 . S
C29 C19 1.510 . S
C29 H27 0.959 . S
C29 H28 0.961 . S
C29 H30 0.960 . S
H30 C29 0.960 . S
H31 N11 0.862 . S
O32 Co0 1.920 1_655 S
O32 C5 1.289 1_655 S
C33 O25 1.258 . S
C33 O26 1.266 . S
Co34 O37 1.962 1_565 S
Co34 N51 1.992 . S
Co34 O59 1.972 . S
Co34 O66 1.922 . S
Co35 O38 1.966 1_565 S
Co35 N44 2.022 . S
Co35 N52 1.993 . S
Co35 O60 1.941 . S
C36 O37 1.258 . S
C36 O38 1.263 . S
O37 Co34 1.962 1_545 S
O37 C36 1.258 . S
O38 Co35 1.966 1_545 S
O38 C36 1.263 . S
C39 O40 1.235 . S
C39 O66 1.289 1_545 S
O40 C39 1.235 . S
C41 C43 1.400 . S
C41 N44 1.351 1_545 S
C41 C46 1.501 . S
C42 C43 1.387 1_565 S
C42 N45 1.341 . S
C43 C41 1.400 . S
C43 C42 1.387 1_545 S
N44 Co35 2.022 . S
N44 C41 1.351 1_565 S
N44 N45 1.365 . S
N45 C42 1.341 . S
N45 N44 1.365 . S
N45 H65 0.862 . S
C46 C41 1.501 . S
C46 H47 0.961 . S
C46 H48 0.961 . S
C46 H49 0.960 . S
H47 C46 0.961 . S
H48 C46 0.961 . S
H49 C46 0.960 . S
C50 N51 1.342 . S
C50 C54 1.401 . S
C50 C55 1.499 . S
N51 Co34 1.992 . S
N51 C50 1.342 . S
N51 N52 1.388 . S
N52 Co35 1.993 . S
N52 N51 1.388 . S
N52 C53 1.346 . S
C53 N52 1.346 . S
C53 C54 1.396 . S
C53 C63 1.510 . S
C54 C50 1.401 . S
C54 C53 1.396 . S
C55 C50 1.499 . S
C55 H56 0.959 . S
C55 H57 0.960 . S
C55 H58 0.961 . S
H56 C55 0.959 . S
H57 C55 0.960 . S
H58 C55 0.961 . S
O59 Co34 1.972 . S
O59 C67 1.258 . S
O60 Co35 1.941 . S
O60 C67 1.266 . S
H61 C63 0.959 . S
H62 C63 0.961 . S
C63 C53 1.510 . S
C63 H61 0.959 . S
C63 H62 0.961 . S
C63 H64 0.960 . S
H64 C63 0.960 . S
H65 N45 0.862 . S
O66 Co34 1.922 . S
O66 C39 1.289 1_565 S
C67 O59 1.258 . S
C67 O60 1.266 . S
Co68 O71 1.970 . S
Co68 N85 1.989 . S
Co68 O93 1.967 . S
Co68 O100 1.920 . S
Co69 O72 1.966 . S
Co69 N78 2.022 . S
Co69 N86 1.993 . S
Co69 O94 1.941 . S
C70 O71 1.258 . S
C70 O72 1.263 . S
O71 Co68 1.970 . S
O71 C70 1.258 . S
O72 Co69 1.966 . S
O72 C70 1.263 . S
C73 O74 1.235 . S
C73 O100 1.289 . S
O74 C73 1.235 . S
C75 C77 1.400 . S
C75 N78 1.351 . S
C75 C80 1.501 . S
C76 C77 1.387 . S
C76 N79 1.341 . S
C77 C75 1.400 . S
C77 C76 1.387 . S
N78 Co69 2.022 . S
N78 C75 1.351 . S
N78 N79 1.365 . S
N79 C76 1.341 . S
N79 N78 1.365 . S
N79 H99 0.862 . S
C80 C75 1.501 . S
C80 H81 0.961 . S
C80 H82 0.961 . S
C80 H83 0.960 . S
H81 C80 0.961 . S
H82 C80 0.961 . S
H83 C80 0.960 . S
C84 N85 1.342 . S
C84 C88 1.401 . S
C84 C89 1.499 . S
N85 Co68 1.989 . S
N85 C84 1.342 . S
N85 N86 1.388 . S
N86 Co69 1.993 . S
N86 N85 1.388 . S
N86 C87 1.346 . S
C87 N86 1.346 . S
C87 C88 1.396 . S
C87 C97 1.510 . S
C88 C84 1.401 . S
C88 C87 1.396 . S
C89 C84 1.499 . S
C89 H90 0.959 . S
C89 H91 0.960 . S
C89 H92 0.961 . S
H90 C89 0.959 . S
H91 C89 0.960 . S
H92 C89 0.961 . S
O93 Co68 1.967 . S
O93 C101 1.258 . S
O94 Co69 1.941 . S
O94 C101 1.266 . S
H95 C97 0.959 . S
H96 C97 0.961 . S
C97 C87 1.510 . S
C97 H95 0.959 . S
C97 H96 0.961 . S
C97 H98 0.960 . S
H98 C97 0.960 . S
H99 N79 0.862 . S
O100 Co68 1.920 . S
O100 C73 1.289 . S
C101 O93 1.258 . S
C101 O94 1.266 . S
Co102 O105 1.970 . S
Co102 N119 1.989 . S
Co102 O127 1.967 . S
Co102 O134 1.920 . S
Co103 O106 1.966 . S
Co103 N112 2.022 . S
Co103 N120 1.993 . S
Co103 O128 1.941 . S
C104 O105 1.258 . S
C104 O106 1.263 . S
O105 Co102 1.970 . S
O105 C104 1.258 . S
O106 Co103 1.966 . S
O106 C104 1.263 . S
C107 O108 1.235 . S
C107 O134 1.289 . S
O108 C107 1.235 . S
C109 C111 1.400 . S
C109 N112 1.351 . S
C109 C114 1.501 . S
C110 C111 1.387 . S
C110 N113 1.341 . S
C111 C109 1.400 . S
C111 C110 1.387 . S
N112 Co103 2.022 . S
N112 C109 1.351 . S
N112 N113 1.365 . S
N113 C110 1.341 . S
N113 N112 1.365 . S
N113 H133 0.862 . S
C114 C109 1.501 . S
C114 H115 0.961 . S
C114 H116 0.961 . S
C114 H117 0.960 . S
H115 C114 0.961 . S
H116 C114 0.961 . S
H117 C114 0.960 . S
C118 N119 1.342 . S
C118 C122 1.401 . S
C118 C123 1.499 . S
N119 Co102 1.989 . S
N119 C118 1.342 . S
N119 N120 1.388 . S
N120 Co103 1.993 . S
N120 N119 1.388 . S
N120 C121 1.346 . S
C121 N120 1.346 . S
C121 C122 1.396 . S
C121 C131 1.510 . S
C122 C118 1.401 . S
C122 C121 1.396 . S
C123 C118 1.499 . S
C123 H124 0.959 . S
C123 H125 0.960 . S
C123 H126 0.961 . S
H124 C123 0.959 . S
H125 C123 0.960 . S
H126 C123 0.961 . S
O127 Co102 1.967 . S
O127 C135 1.258 . S
O128 Co103 1.941 . S
O128 C135 1.266 . S
H129 C131 0.959 . S
H130 C131 0.961 . S
C131 C121 1.510 . S
C131 H129 0.959 . S
C131 H130 0.961 . S
C131 H132 0.960 . S
H132 C131 0.960 . S
H133 N113 0.862 . S
O134 Co102 1.920 . S
O134 C107 1.289 . S
C135 O127 1.258 . S
C135 O128 1.266 . S
Co136 O139 1.962 1_655 S
Co136 N153 1.992 . S
Co136 O161 1.972 . S
Co136 O168 1.922 . S
Co137 O140 1.966 1_655 S
Co137 N146 2.022 . S
Co137 N154 1.993 1_554 S
Co137 O162 1.941 . S
C138 O139 1.258 . S
C138 O140 1.263 1_556 S
O139 Co136 1.962 1_455 S
O139 C138 1.258 . S
O140 Co137 1.966 1_455 S
O140 C138 1.263 1_554 S
C141 O142 1.235 . S
C141 O168 1.289 1_455 S
O142 C141 1.235 . S
C143 C145 1.400 . S
C143 N146 1.351 1_455 S
C143 C148 1.501 . S
C144 C145 1.387 1_655 S
C144 N147 1.341 . S
C145 C143 1.400 . S
C145 C144 1.387 1_455 S
N146 Co137 2.022 . S
N146 C143 1.351 1_655 S
N146 N147 1.365 . S
N147 C144 1.341 . S
N147 N146 1.365 . S
N147 H167 0.862 . S
C148 C143 1.501 . S
C148 H149 0.961 . S
C148 H150 0.961 . S
C148 H151 0.960 . S
H149 C148 0.961 . S
H150 C148 0.961 . S
H151 C148 0.960 . S
C152 N153 1.342 . S
C152 C156 1.401 . S
C152 C157 1.499 . S
N153 Co136 1.992 . S
N153 C152 1.342 . S
N153 N154 1.388 . S
N154 Co137 1.993 1_556 S
N154 N153 1.388 . S
N154 C155 1.346 . S
C155 N154 1.346 . S
C155 C156 1.396 . S
C155 C165 1.510 . S
C156 C152 1.401 . S
C156 C155 1.396 . S
C157 C152 1.499 . S
C157 H158 0.959 . S
C157 H159 0.960 . S
C157 H160 0.961 . S
H158 C157 0.959 . S
H159 C157 0.960 . S
H160 C157 0.961 . S
O161 Co136 1.972 . S
O161 C169 1.258 1_556 S
O162 Co137 1.941 . S
O162 C169 1.266 . S
H163 C165 0.959 . S
H164 C165 0.961 . S
C165 C155 1.510 . S
C165 H163 0.959 . S
C165 H164 0.961 . S
C165 H166 0.960 . S
H166 C165 0.960 . S
H167 N147 0.862 . S
O168 Co136 1.922 . S
O168 C141 1.289 1_655 S
C169 O161 1.258 1_554 S
C169 O162 1.266 . S
Co170 O173 1.970 . S
Co170 N187 1.989 1_545 S
Co170 O195 1.967 1_545 S
Co170 O202 1.920 1_545 S
Co171 O174 1.966 1_565 S
Co171 N180 2.022 . S
Co171 N188 1.993 1_554 S
Co171 O196 1.941 . S
C172 O173 1.258 . S
C172 O174 1.263 1_556 S
O173 Co170 1.970 . S
O173 C172 1.258 . S
O174 Co171 1.966 1_545 S
O174 C172 1.263 1_554 S
C175 O176 1.235 . S
C175 O202 1.289 1_545 S
O176 C175 1.235 . S
C177 C179 1.400 . S
C177 N180 1.351 1_545 S
C177 C182 1.501 . S
C178 C179 1.387 1_565 S
C178 N181 1.341 . S
C179 C177 1.400 . S
C179 C178 1.387 1_545 S
N180 Co171 2.022 . S
N180 C177 1.351 1_565 S
N180 N181 1.365 . S
N181 C178 1.341 . S
N181 N180 1.365 . S
N181 H201 0.862 . S
C182 C177 1.501 . S
C182 H183 0.961 . S
C182 H184 0.961 . S
C182 H185 0.960 . S
H183 C182 0.961 . S
H184 C182 0.961 . S
H185 C182 0.960 . S
C186 N187 1.342 . S
C186 C190 1.401 . S
C186 C191 1.499 . S
N187 Co170 1.989 1_565 S
N187 C186 1.342 . S
N187 N188 1.388 . S
N188 Co171 1.993 1_556 S
N188 N187 1.388 . S
N188 C189 1.346 . S
C189 N188 1.346 . S
C189 C190 1.396 . S
C189 C199 1.510 . S
C190 C186 1.401 . S
C190 C189 1.396 . S
C191 C186 1.499 . S
C191 H192 0.959 . S
C191 H193 0.960 . S
C191 H194 0.961 . S
H192 C191 0.959 . S
H193 C191 0.960 . S
H194 C191 0.961 . S
O195 Co170 1.967 1_565 S
O195 C203 1.258 1_556 S
O196 Co171 1.941 . S
O196 C203 1.266 . S
H197 C199 0.959 . S
H198 C199 0.961 . S
C199 C189 1.510 . S
C199 H197 0.959 . S
C199 H198 0.961 . S
C199 H200 0.960 . S
H200 C199 0.960 . S
H201 N181 0.862 . S
O202 Co170 1.920 1_565 S
O202 C175 1.289 1_565 S
C203 O195 1.258 1_554 S
C203 O196 1.266 . S
Co204 O207 1.970 . S
Co204 N221 1.989 . S
Co204 O229 1.967 . S
Co204 O236 1.920 . S
Co205 O208 1.966 . S
Co205 N214 2.022 . S
Co205 N222 1.993 1_554 S
Co205 O230 1.941 . S
C206 O207 1.258 . S
C206 O208 1.263 1_556 S
O207 Co204 1.970 . S
O207 C206 1.258 . S
O208 Co205 1.966 . S
O208 C206 1.263 1_554 S
C209 O210 1.235 . S
C209 O236 1.289 . S
O210 C209 1.235 . S
C211 C213 1.400 . S
C211 N214 1.351 . S
C211 C216 1.501 . S
C212 C213 1.387 . S
C212 N215 1.341 . S
C213 C211 1.400 . S
C213 C212 1.387 . S
N214 Co205 2.022 . S
N214 C211 1.351 . S
N214 N215 1.365 . S
N215 C212 1.341 . S
N215 N214 1.365 . S
N215 H235 0.862 . S
C216 C211 1.501 . S
C216 H217 0.961 . S
C216 H218 0.961 . S
C216 H219 0.960 . S
H217 C216 0.961 . S
H218 C216 0.961 . S
H219 C216 0.960 . S
C220 N221 1.342 . S
C220 C224 1.401 . S
C220 C225 1.499 . S
N221 Co204 1.989 . S
N221 C220 1.342 . S
N221 N222 1.388 . S
N222 Co205 1.993 1_556 S
N222 N221 1.388 . S
N222 C223 1.346 . S
C223 N222 1.346 . S
C223 C224 1.396 . S
C223 C233 1.510 . S
C224 C220 1.401 . S
C224 C223 1.396 . S
C225 C220 1.499 . S
C225 H226 0.959 . S
C225 H227 0.960 . S
C225 H228 0.961 . S
H226 C225 0.959 . S
H227 C225 0.960 . S
H228 C225 0.961 . S
O229 Co204 1.967 . S
O229 C237 1.258 1_556 S
O230 Co205 1.941 . S
O230 C237 1.266 . S
H231 C233 0.959 . S
H232 C233 0.961 . S
C233 C223 1.510 . S
C233 H231 0.959 . S
C233 H232 0.961 . S
C233 H234 0.960 . S
H234 C233 0.960 . S
H235 N215 0.862 . S
O236 Co204 1.920 . S
O236 C209 1.289 . S
C237 O229 1.258 1_554 S
C237 O230 1.266 . S
Co238 O241 1.970 . S
Co238 N255 1.989 . S
Co238 O263 1.967 . S
Co238 O270 1.920 . S
Co239 O242 1.966 . S
Co239 N248 2.022 . S
Co239 N256 1.993 1_554 S
Co239 O264 1.941 . S
C240 O241 1.258 . S
C240 O242 1.263 1_556 S
O241 Co238 1.970 . S
O241 C240 1.258 . S
O242 Co239 1.966 . S
O242 C240 1.263 1_554 S
C243 O244 1.235 . S
C243 O270 1.289 . S
O244 C243 1.235 . S
C245 C247 1.400 . S
C245 N248 1.351 . S
C245 C250 1.501 . S
C246 C247 1.387 . S
C246 N249 1.341 . S
C247 C245 1.400 . S
C247 C246 1.387 . S
N248 Co239 2.022 . S
N248 C245 1.351 . S
N248 N249 1.365 . S
N249 C246 1.341 . S
N249 N248 1.365 . S
N249 H269 0.862 . S
C250 C245 1.501 . S
C250 H251 0.961 . S
C250 H252 0.961 . S
C250 H253 0.960 . S
H251 C250 0.961 . S
H252 C250 0.961 . S
H253 C250 0.960 . S
C254 N255 1.342 . S
C254 C258 1.401 . S
C254 C259 1.499 . S
N255 Co238 1.989 . S
N255 C254 1.342 . S
N255 N256 1.388 . S
N256 Co239 1.993 1_556 S
N256 N255 1.388 . S
N256 C257 1.346 . S
C257 N256 1.346 . S
C257 C258 1.396 . S
C257 C267 1.510 . S
C258 C254 1.401 . S
C258 C257 1.396 . S
C259 C254 1.499 . S
C259 H260 0.959 . S
C259 H261 0.960 . S
C259 H262 0.961 . S
H260 C259 0.959 . S
H261 C259 0.960 . S
H262 C259 0.961 . S
O263 Co238 1.967 . S
O263 C271 1.258 1_556 S
O264 Co239 1.941 . S
O264 C271 1.266 . S
H265 C267 0.959 . S
H266 C267 0.961 . S
C267 C257 1.510 . S
C267 H265 0.959 . S
C267 H266 0.961 . S
C267 H268 0.960 . S
H268 C267 0.960 . S
H269 N249 0.862 . S
O270 Co238 1.920 . S
O270 C243 1.289 . S
C271 O263 1.258 1_554 S
C271 O264 1.266 . S
Co272 O275 1.970 . S
Co272 N289 1.989 1_655 S
Co272 O297 1.967 1_655 S
Co272 O304 1.920 1_655 S
Co273 O276 1.966 1_455 S
Co273 N282 2.022 . S
Co273 N290 1.993 . S
Co273 O298 1.941 . S
C274 O275 1.258 . S
C274 O276 1.263 . S
O275 Co272 1.970 . S
O275 C274 1.258 . S
O276 Co273 1.966 1_655 S
O276 C274 1.263 . S
C277 O278 1.235 . S
C277 O304 1.289 1_655 S
O278 C277 1.235 . S
C279 C281 1.400 . S
C279 N282 1.351 1_655 S
C279 C284 1.501 . S
C280 C281 1.387 1_455 S
C280 N283 1.341 . S
C281 C279 1.400 . S
C281 C280 1.387 1_655 S
N282 Co273 2.022 . S
N282 C279 1.351 1_455 S
N282 N283 1.365 . S
N283 C280 1.341 . S
N283 N282 1.365 . S
N283 H303 0.862 . S
C284 C279 1.501 . S
C284 H285 0.961 . S
C284 H286 0.961 . S
C284 H287 0.960 . S
H285 C284 0.961 . S
H286 C284 0.961 . S
H287 C284 0.960 . S
C288 N289 1.342 . S
C288 C292 1.401 . S
C288 C293 1.499 . S
N289 Co272 1.989 1_455 S
N289 C288 1.342 . S
N289 N290 1.388 . S
N290 Co273 1.993 . S
N290 N289 1.388 . S
N290 C291 1.346 . S
C291 N290 1.346 . S
C291 C292 1.396 . S
C291 C301 1.510 . S
C292 C288 1.401 . S
C292 C291 1.396 . S
C293 C288 1.499 . S
C293 H294 0.959 . S
C293 H295 0.960 . S
C293 H296 0.961 . S
H294 C293 0.959 . S
H295 C293 0.960 . S
H296 C293 0.961 . S
O297 Co272 1.967 1_455 S
O297 C305 1.258 . S
O298 Co273 1.941 . S
O298 C305 1.266 . S
H299 C301 0.959 . S
H300 C301 0.961 . S
C301 C291 1.510 . S
C301 H299 0.959 . S
C301 H300 0.961 . S
C301 H302 0.960 . S
H302 C301 0.960 . S
H303 N283 0.862 . S
O304 Co272 1.920 1_455 S
O304 C277 1.289 1_455 S
C305 O297 1.258 . S
C305 O298 1.266 . S
Co306 O309 1.962 1_545 S
Co306 N323 1.992 . S
Co306 O331 1.972 . S
Co306 O338 1.922 . S
Co307 O310 1.966 1_545 S
Co307 N316 2.022 . S
Co307 N324 1.993 . S
Co307 O332 1.941 . S
C308 O309 1.258 . S
C308 O310 1.263 . S
O309 Co306 1.962 1_565 S
O309 C308 1.258 . S
O310 Co307 1.966 1_565 S
O310 C308 1.263 . S
C311 O312 1.235 . S
C311 O338 1.289 1_565 S
O312 C311 1.235 . S
C313 C315 1.400 . S
C313 N316 1.351 1_565 S
C313 C318 1.501 . S
C314 C315 1.387 1_545 S
C314 N317 1.341 . S
C315 C313 1.400 . S
C315 C314 1.387 1_565 S
N316 Co307 2.022 . S
N316 C313 1.351 1_545 S
N316 N317 1.365 . S
N317 C314 1.341 . S
N317 N316 1.365 . S
N317 H337 0.862 . S
C318 C313 1.501 . S
C318 H319 0.961 . S
C318 H320 0.961 . S
C318 H321 0.960 . S
H319 C318 0.961 . S
H320 C318 0.961 . S
H321 C318 0.960 . S
C322 N323 1.342 . S
C322 C326 1.401 . S
C322 C327 1.499 . S
N323 Co306 1.992 . S
N323 C322 1.342 . S
N323 N324 1.388 . S
N324 Co307 1.993 . S
N324 N323 1.388 . S
N324 C325 1.346 . S
C325 N324 1.346 . S
C325 C326 1.396 . S
C325 C335 1.510 . S
C326 C322 1.401 . S
C326 C325 1.396 . S
C327 C322 1.499 . S
C327 H328 0.959 . S
C327 H329 0.960 . S
C327 H330 0.961 . S
H328 C327 0.959 . S
H329 C327 0.960 . S
H330 C327 0.961 . S
O331 Co306 1.972 . S
O331 C339 1.258 . S
O332 Co307 1.941 . S
O332 C339 1.266 . S
H333 C335 0.959 . S
H334 C335 0.961 . S
C335 C325 1.510 . S
C335 H333 0.959 . S
C335 H334 0.961 . S
C335 H336 0.960 . S
H336 C335 0.960 . S
H337 N317 0.862 . S
O338 Co306 1.922 . S
O338 C311 1.289 1_545 S
C339 O331 1.258 . S
C339 O332 1.266 . S
Co340 O343 1.970 . S
Co340 N357 1.989 . S
Co340 O365 1.967 . S
Co340 O372 1.920 . S
Co341 O344 1.966 . S
Co341 N350 2.022 . S
Co341 N358 1.993 . S
Co341 O366 1.941 . S
C342 O343 1.258 . S
C342 O344 1.263 . S
O343 Co340 1.970 . S
O343 C342 1.258 . S
O344 Co341 1.966 . S
O344 C342 1.263 . S
C345 O346 1.235 . S
C345 O372 1.289 . S
O346 C345 1.235 . S
C347 C349 1.400 . S
C347 N350 1.351 . S
C347 C352 1.501 . S
C348 C349 1.387 . S
C348 N351 1.341 . S
C349 C347 1.400 . S
C349 C348 1.387 . S
N350 Co341 2.022 . S
N350 C347 1.351 . S
N350 N351 1.365 . S
N351 C348 1.341 . S
N351 N350 1.365 . S
N351 H371 0.862 . S
C352 C347 1.501 . S
C352 H353 0.961 . S
C352 H354 0.961 . S
C352 H355 0.960 . S
H353 C352 0.961 . S
H354 C352 0.961 . S
H355 C352 0.960 . S
C356 N357 1.342 . S
C356 C360 1.401 . S
C356 C361 1.499 . S
N357 Co340 1.989 . S
N357 C356 1.342 . S
N357 N358 1.388 . S
N358 Co341 1.993 . S
N358 N357 1.388 . S
N358 C359 1.346 . S
C359 N358 1.346 . S
C359 C360 1.396 . S
C359 C369 1.510 . S
C360 C356 1.401 . S
C360 C359 1.396 . S
C361 C356 1.499 . S
C361 H362 0.959 . S
C361 H363 0.960 . S
C361 H364 0.961 . S
H362 C361 0.959 . S
H363 C361 0.960 . S
H364 C361 0.961 . S
O365 Co340 1.967 . S
O365 C373 1.258 . S
O366 Co341 1.941 . S
O366 C373 1.266 . S
H367 C369 0.959 . S
H368 C369 0.961 . S
C369 C359 1.510 . S
C369 H367 0.959 . S
C369 H368 0.961 . S
C369 H370 0.960 . S
H370 C369 0.960 . S
H371 N351 0.862 . S
O372 Co340 1.920 . S
O372 C345 1.289 . S
C373 O365 1.258 . S
C373 O366 1.266 . S
Co374 O377 1.970 . S
Co374 N391 1.989 . S
Co374 O399 1.967 . S
Co374 O406 1.920 . S
Co375 O378 1.966 . S
Co375 N384 2.022 . S
Co375 N392 1.993 . S
Co375 O400 1.941 . S
C376 O377 1.258 . S
C376 O378 1.263 . S
O377 Co374 1.970 . S
O377 C376 1.258 . S
O378 Co375 1.966 . S
O378 C376 1.263 . S
C379 O380 1.235 . S
C379 O406 1.289 . S
O380 C379 1.235 . S
C381 C383 1.400 . S
C381 N384 1.351 . S
C381 C386 1.501 . S
C382 C383 1.387 . S
C382 N385 1.341 . S
C383 C381 1.400 . S
C383 C382 1.387 . S
N384 Co375 2.022 . S
N384 C381 1.351 . S
N384 N385 1.365 . S
N385 C382 1.341 . S
N385 N384 1.365 . S
N385 H405 0.862 . S
C386 C381 1.501 . S
C386 H387 0.961 . S
C386 H388 0.961 . S
C386 H389 0.960 . S
H387 C386 0.961 . S
H388 C386 0.961 . S
H389 C386 0.960 . S
C390 N391 1.342 . S
C390 C394 1.401 . S
C390 C395 1.499 . S
N391 Co374 1.989 . S
N391 C390 1.342 . S
N391 N392 1.388 . S
N392 Co375 1.993 . S
N392 N391 1.388 . S
N392 C393 1.346 . S
C393 N392 1.346 . S
C393 C394 1.396 . S
C393 C403 1.510 . S
C394 C390 1.401 . S
C394 C393 1.396 . S
C395 C390 1.499 . S
C395 H396 0.959 . S
C395 H397 0.960 . S
C395 H398 0.961 . S
H396 C395 0.959 . S
H397 C395 0.960 . S
H398 C395 0.961 . S
O399 Co374 1.967 . S
O399 C407 1.258 . S
O400 Co375 1.941 . S
O400 C407 1.266 . S
H401 C403 0.959 . S
H402 C403 0.961 . S
C403 C393 1.510 . S
C403 H401 0.959 . S
C403 H402 0.961 . S
C403 H404 0.960 . S
H404 C403 0.960 . S
H405 N385 0.862 . S
O406 Co374 1.920 . S
O406 C379 1.289 . S
C407 O399 1.258 . S
C407 O400 1.266 . S
Co408 O411 1.962 1_455 S
Co408 N425 1.992 . S
Co408 O433 1.972 . S
Co408 O440 1.922 . S
Co409 O412 1.966 1_455 S
Co409 N418 2.022 . S
Co409 N426 1.993 1_556 S
Co409 O434 1.941 . S
C410 O411 1.258 . S
C410 O412 1.263 1_554 S
O411 Co408 1.962 1_655 S
O411 C410 1.258 . S
O412 Co409 1.966 1_655 S
O412 C410 1.263 1_556 S
C413 O414 1.235 . S
C413 O440 1.289 1_655 S
O414 C413 1.235 . S
C415 C417 1.400 . S
C415 N418 1.351 1_655 S
C415 C420 1.501 . S
C416 C417 1.387 1_455 S
C416 N419 1.341 . S
C417 C415 1.400 . S
C417 C416 1.387 1_655 S
N418 Co409 2.022 . S
N418 C415 1.351 1_455 S
N418 N419 1.365 . S
N419 C416 1.341 . S
N419 N418 1.365 . S
N419 H439 0.862 . S
C420 C415 1.501 . S
C420 H421 0.961 . S
C420 H422 0.961 . S
C420 H423 0.960 . S
H421 C420 0.961 . S
H422 C420 0.961 . S
H423 C420 0.960 . S
C424 N425 1.342 . S
C424 C428 1.401 . S
C424 C429 1.499 . S
N425 Co408 1.992 . S
N425 C424 1.342 . S
N425 N426 1.388 . S
N426 Co409 1.993 1_554 S
N426 N425 1.388 . S
N426 C427 1.346 . S
C427 N426 1.346 . S
C427 C428 1.396 . S
C427 C437 1.510 . S
C428 C424 1.401 . S
C428 C427 1.396 . S
C429 C424 1.499 . S
C429 H430 0.959 . S
C429 H431 0.960 . S
C429 H432 0.961 . S
H430 C429 0.959 . S
H431 C429 0.960 . S
H432 C429 0.961 . S
O433 Co408 1.972 . S
O433 C441 1.258 1_554 S
O434 Co409 1.941 . S
O434 C441 1.266 . S
H435 C437 0.959 . S
H436 C437 0.961 . S
C437 C427 1.510 . S
C437 H435 0.959 . S
C437 H436 0.961 . S
C437 H438 0.960 . S
H438 C437 0.960 . S
H439 N419 0.862 . S
O440 Co408 1.922 . S
O440 C413 1.289 1_455 S
C441 O433 1.258 1_556 S
C441 O434 1.266 . S
Co442 O445 1.970 . S
Co442 N459 1.989 1_565 S
Co442 O467 1.967 1_565 S
Co442 O474 1.920 1_565 S
Co443 O446 1.966 1_545 S
Co443 N452 2.022 . S
Co443 N460 1.993 1_556 S
Co443 O468 1.941 . S
C444 O445 1.258 . S
C444 O446 1.263 1_554 S
O445 Co442 1.970 . S
O445 C444 1.258 . S
O446 Co443 1.966 1_565 S
O446 C444 1.263 1_556 S
C447 O448 1.235 . S
C447 O474 1.289 1_565 S
O448 C447 1.235 . S
C449 C451 1.400 . S
C449 N452 1.351 1_565 S
C449 C454 1.501 . S
C450 C451 1.387 1_545 S
C450 N453 1.341 . S
C451 C449 1.400 . S
C451 C450 1.387 1_565 S
N452 Co443 2.022 . S
N452 C449 1.351 1_545 S
N452 N453 1.365 . S
N453 C450 1.341 . S
N453 N452 1.365 . S
N453 H473 0.862 . S
C454 C449 1.501 . S
C454 H455 0.961 . S
C454 H456 0.961 . S
C454 H457 0.960 . S
H455 C454 0.961 . S
H456 C454 0.961 . S
H457 C454 0.960 . S
C458 N459 1.342 . S
C458 C462 1.401 . S
C458 C463 1.499 . S
N459 Co442 1.989 1_545 S
N459 C458 1.342 . S
N459 N460 1.388 . S
N460 Co443 1.993 1_554 S
N460 N459 1.388 . S
N460 C461 1.346 . S
C461 N460 1.346 . S
C461 C462 1.396 . S
C461 C471 1.510 . S
C462 C458 1.401 . S
C462 C461 1.396 . S
C463 C458 1.499 . S
C463 H464 0.959 . S
C463 H465 0.960 . S
C463 H466 0.961 . S
H464 C463 0.959 . S
H465 C463 0.960 . S
H466 C463 0.961 . S
O467 Co442 1.967 1_545 S
O467 C475 1.258 1_554 S
O468 Co443 1.941 . S
O468 C475 1.266 . S
H469 C471 0.959 . S
H470 C471 0.961 . S
C471 C461 1.510 . S
C471 H469 0.959 . S
C471 H470 0.961 . S
C471 H472 0.960 . S
H472 C471 0.960 . S
H473 N453 0.862 . S
O474 Co442 1.920 1_545 S
O474 C447 1.289 1_545 S
C475 O467 1.258 1_556 S
C475 O468 1.266 . S
Co476 O479 1.970 . S
Co476 N493 1.989 . S
Co476 O501 1.967 . S
Co476 O508 1.920 . S
Co477 O480 1.966 . S
Co477 N486 2.022 . S
Co477 N494 1.993 1_556 S
Co477 O502 1.941 . S
C478 O479 1.258 . S
C478 O480 1.263 1_554 S
O479 Co476 1.970 . S
O479 C478 1.258 . S
O480 Co477 1.966 . S
O480 C478 1.263 1_556 S
C481 O482 1.235 . S
C481 O508 1.289 . S
O482 C481 1.235 . S
C483 C485 1.400 . S
C483 N486 1.351 . S
C483 C488 1.501 . S
C484 C485 1.387 . S
C484 N487 1.341 . S
C485 C483 1.400 . S
C485 C484 1.387 . S
N486 Co477 2.022 . S
N486 C483 1.351 . S
N486 N487 1.365 . S
N487 C484 1.341 . S
N487 N486 1.365 . S
N487 H507 0.862 . S
C488 C483 1.501 . S
C488 H489 0.961 . S
C488 H490 0.961 . S
C488 H491 0.960 . S
H489 C488 0.961 . S
H490 C488 0.961 . S
H491 C488 0.960 . S
C492 N493 1.342 . S
C492 C496 1.401 . S
C492 C497 1.499 . S
N493 Co476 1.989 . S
N493 C492 1.342 . S
N493 N494 1.388 . S
N494 Co477 1.993 1_554 S
N494 N493 1.388 . S
N494 C495 1.346 . S
C495 N494 1.346 . S
C495 C496 1.396 . S
C495 C505 1.510 . S
C496 C492 1.401 . S
C496 C495 1.396 . S
C497 C492 1.499 . S
C497 H498 0.959 . S
C497 H499 0.960 . S
C497 H500 0.961 . S
H498 C497 0.959 . S
H499 C497 0.960 . S
H500 C497 0.961 . S
O501 Co476 1.967 . S
O501 C509 1.258 1_554 S
O502 Co477 1.941 . S
O502 C509 1.266 . S
H503 C505 0.959 . S
H504 C505 0.961 . S
C505 C495 1.510 . S
C505 H503 0.959 . S
C505 H504 0.961 . S
C505 H506 0.960 . S
H506 C505 0.960 . S
H507 N487 0.862 . S
O508 Co476 1.920 . S
O508 C481 1.289 . S
C509 O501 1.258 1_556 S
C509 O502 1.266 . S
Co510 O513 1.970 . S
Co510 N527 1.989 . S
Co510 O535 1.967 . S
Co510 O542 1.920 . S
Co511 O514 1.966 . S
Co511 N520 2.022 . S
Co511 N528 1.993 1_556 S
Co511 O536 1.941 . S
C512 O513 1.258 . S
C512 O514 1.263 1_554 S
O513 Co510 1.970 . S
O513 C512 1.258 . S
O514 Co511 1.966 . S
O514 C512 1.263 1_556 S
C515 O516 1.235 . S
C515 O542 1.289 . S
O516 C515 1.235 . S
C517 C519 1.400 . S
C517 N520 1.351 . S
C517 C522 1.501 . S
C518 C519 1.387 . S
C518 N521 1.341 . S
C519 C517 1.400 . S
C519 C518 1.387 . S
N520 Co511 2.022 . S
N520 C517 1.351 . S
N520 N521 1.365 . S
N521 C518 1.341 . S
N521 N520 1.365 . S
N521 H541 0.862 . S
C522 C517 1.501 . S
C522 H523 0.961 . S
C522 H524 0.961 . S
C522 H525 0.960 . S
H523 C522 0.961 . S
H524 C522 0.961 . S
H525 C522 0.960 . S
C526 N527 1.342 . S
C526 C530 1.401 . S
C526 C531 1.499 . S
N527 Co510 1.989 . S
N527 C526 1.342 . S
N527 N528 1.388 . S
N528 Co511 1.993 1_554 S
N528 N527 1.388 . S
N528 C529 1.346 . S
C529 N528 1.346 . S
C529 C530 1.396 . S
C529 C539 1.510 . S
C530 C526 1.401 . S
C530 C529 1.396 . S
C531 C526 1.499 . S
C531 H532 0.959 . S
C531 H533 0.960 . S
C531 H534 0.961 . S
H532 C531 0.959 . S
H533 C531 0.960 . S
H534 C531 0.961 . S
O535 Co510 1.967 . S
O535 C543 1.258 1_554 S
O536 Co511 1.941 . S
O536 C543 1.266 . S
H537 C539 0.959 . S
H538 C539 0.961 . S
C539 C529 1.510 . S
C539 H537 0.959 . S
C539 H538 0.961 . S
C539 H540 0.960 . S
H540 C539 0.960 . S
H541 N521 0.862 . S
O542 Co510 1.920 . S
O542 C515 1.289 . S
C543 O535 1.258 1_556 S
C543 O536 1.266 . S
C5 C175 0.796 . S
C39 C209 0.677 . S
C243 C73 0.632 . S
C141 C107 0.677 . S
C277 C447 0.796 . S
C311 C481 0.677 . S
C345 C515 0.632 . S
C379 C413 0.677 . S
C305 C33 4.260 1_465 S
C339 C67 3.863 1_545 S
C101 C373 4.835 . S
C407 C135 5.059 1_655 S
C169 C441 3.864 1_654 S
C203 C475 4.260 1_464 S
C237 C509 5.059 1_544 S
C271 C543 4.835 1_554 S
C20 C156 2.544 . S
C54 C190 2.544 . S
C224 C88 2.688 . S
C122 C258 2.688 . S
C428 C292 2.544 . S
C462 C326 2.544 . S
C360 C496 2.688 . S
C530 C394 2.688 . S
C43 C2 3.340 . S
C36 C77 3.487 . S
C70 C111 3.944 . S
C104 C9 3.723 . S
C247 C138 3.487 1_554 S
C172 C145 3.340 1_556 S
C206 C179 3.723 1_556 S
C240 C213 3.944 1_556 S
C274 C315 3.340 . S
C308 C349 3.487 . S
C383 C342 3.944 . S
C376 C281 3.723 . S
C410 C519 3.487 1_554 S
C417 C444 3.340 1_556 S
C451 C478 3.723 1_556 S
C512 C485 3.944 1_554 S
