# Generated by pormake.
# Topology wjr, (5)-cn, num edge types: 1
# Building blocks:
#     Node 0, Type 0, BuildingBlock: XOMCOT_clean_sbu_1, # of connection points: 5
#     Node 1, Type 0, BuildingBlock: XOMCOT_clean_sbu_1, # of connection points: 5
#     Node 2, Type 0, BuildingBlock: XOMCOT_clean_sbu_1, # of connection points: 5
#     Node 3, Type 0, BuildingBlock: XOMCOT_clean_sbu_1, # of connection points: 5
#     Node 4, Type 0, BuildingBlock: XOMCOT_clean_sbu_1, # of connection points: 5
#     Node 5, Type 0, BuildingBlock: XOMCOT_clean_sbu_1, # of connection points: 5
#     Node 6, Type 0, BuildingBlock: XOMCOT_clean_sbu_1, # of connection points: 5
#     Node 7, Type 0, BuildingBlock: XOMCOT_clean_sbu_1, # of connection points: 5
#     Node 8, Type 0, BuildingBlock: XOMCOT_clean_sbu_1, # of connection points: 5
#     Node 9, Type 0, BuildingBlock: XOMCOT_clean_sbu_1, # of connection points: 5
#     Node 10, Type 0, BuildingBlock: XOMCOT_clean_sbu_1, # of connection points: 5
#     Node 11, Type 0, BuildingBlock: XOMCOT_clean_sbu_1, # of connection points: 5
#     Node 12, Type 0, BuildingBlock: XOMCOT_clean_sbu_1, # of connection points: 5
#     Node 13, Type 0, BuildingBlock: XOMCOT_clean_sbu_1, # of connection points: 5
#     Node 14, Type 0, BuildingBlock: XOMCOT_clean_sbu_1, # of connection points: 5
#     Node 15, Type 0, BuildingBlock: XOMCOT_clean_sbu_1, # of connection points: 5
#     Node 16, Type 0, BuildingBlock: XOMCOT_clean_sbu_1, # of connection points: 5
#     Node 17, Type 0, BuildingBlock: XOMCOT_clean_sbu_1, # of connection points: 5
#     Node 18, Type 0, BuildingBlock: XOMCOT_clean_sbu_1, # of connection points: 5
#     Node 19, Type 0, BuildingBlock: XOMCOT_clean_sbu_1, # of connection points: 5
#     Node 20, Type 0, BuildingBlock: XOMCOT_clean_sbu_1, # of connection points: 5
#     Node 21, Type 0, BuildingBlock: XOMCOT_clean_sbu_1, # of connection points: 5
#     Node 22, Type 0, BuildingBlock: XOMCOT_clean_sbu_1, # of connection points: 5
#     Node 23, Type 0, BuildingBlock: XOMCOT_clean_sbu_1, # of connection points: 5
#     Edge 24, Type (0, 0), BuildingBlock: OJICUG_clean_linker_0, # of connection points: 2
#     Edge 25, Type (0, 0), BuildingBlock: OJICUG_clean_linker_0, # of connection points: 2
#     Edge 26, Type (0, 0), BuildingBlock: OJICUG_clean_linker_0, # of connection points: 2
#     Edge 27, Type (0, 0), BuildingBlock: OJICUG_clean_linker_0, # of connection points: 2
#     Edge 28, Type (0, 0), BuildingBlock: OJICUG_clean_linker_0, # of connection points: 2
#     Edge 29, Type (0, 0), BuildingBlock: OJICUG_clean_linker_0, # of connection points: 2
#     Edge 30, Type (0, 0), BuildingBlock: OJICUG_clean_linker_0, # of connection points: 2
#     Edge 31, Type (0, 0), BuildingBlock: OJICUG_clean_linker_0, # of connection points: 2
#     Edge 32, Type (0, 0), BuildingBlock: OJICUG_clean_linker_0, # of connection points: 2
#     Edge 33, Type (0, 0), BuildingBlock: OJICUG_clean_linker_0, # of connection points: 2
#     Edge 34, Type (0, 0), BuildingBlock: OJICUG_clean_linker_0, # of connection points: 2
#     Edge 35, Type (0, 0), BuildingBlock: OJICUG_clean_linker_0, # of connection points: 2
#     Edge 36, Type (0, 0), BuildingBlock: OJICUG_clean_linker_0, # of connection points: 2
#     Edge 37, Type (0, 0), BuildingBlock: OJICUG_clean_linker_0, # of connection points: 2
#     Edge 38, Type (0, 0), BuildingBlock: OJICUG_clean_linker_0, # of connection points: 2
#     Edge 39, Type (0, 0), BuildingBlock: OJICUG_clean_linker_0, # of connection points: 2
#     Edge 40, Type (0, 0), BuildingBlock: OJICUG_clean_linker_0, # of connection points: 2
#     Edge 41, Type (0, 0), BuildingBlock: OJICUG_clean_linker_0, # of connection points: 2
#     Edge 42, Type (0, 0), BuildingBlock: OJICUG_clean_linker_0, # of connection points: 2
#     Edge 43, Type (0, 0), BuildingBlock: OJICUG_clean_linker_0, # of connection points: 2
#     Edge 44, Type (0, 0), BuildingBlock: OJICUG_clean_linker_0, # of connection points: 2
#     Edge 45, Type (0, 0), BuildingBlock: OJICUG_clean_linker_0, # of connection points: 2
#     Edge 46, Type (0, 0), BuildingBlock: OJICUG_clean_linker_0, # of connection points: 2
#     Edge 47, Type (0, 0), BuildingBlock: OJICUG_clean_linker_0, # of connection points: 2
#     Edge 48, Type (0, 0), BuildingBlock: OJICUG_clean_linker_0, # of connection points: 2
#     Edge 49, Type (0, 0), BuildingBlock: OJICUG_clean_linker_0, # of connection points: 2
#     Edge 50, Type (0, 0), BuildingBlock: OJICUG_clean_linker_0, # of connection points: 2
#     Edge 51, Type (0, 0), BuildingBlock: OJICUG_clean_linker_0, # of connection points: 2
#     Edge 52, Type (0, 0), BuildingBlock: OJICUG_clean_linker_0, # of connection points: 2
#     Edge 53, Type (0, 0), BuildingBlock: OJICUG_clean_linker_0, # of connection points: 2
#     Edge 54, Type (0, 0), BuildingBlock: OJICUG_clean_linker_0, # of connection points: 2
#     Edge 55, Type (0, 0), BuildingBlock: OJICUG_clean_linker_0, # of connection points: 2
#     Edge 56, Type (0, 0), BuildingBlock: OJICUG_clean_linker_0, # of connection points: 2
#     Edge 57, Type (0, 0), BuildingBlock: OJICUG_clean_linker_0, # of connection points: 2
#     Edge 58, Type (0, 0), BuildingBlock: OJICUG_clean_linker_0, # of connection points: 2
#     Edge 59, Type (0, 0), BuildingBlock: OJICUG_clean_linker_0, # of connection points: 2
#     Edge 60, Type (0, 0), BuildingBlock: OJICUG_clean_linker_0, # of connection points: 2
#     Edge 61, Type (0, 0), BuildingBlock: OJICUG_clean_linker_0, # of connection points: 2
#     Edge 62, Type (0, 0), BuildingBlock: OJICUG_clean_linker_0, # of connection points: 2
#     Edge 63, Type (0, 0), BuildingBlock: OJICUG_clean_linker_0, # of connection points: 2
#     Edge 64, Type (0, 0), BuildingBlock: OJICUG_clean_linker_0, # of connection points: 2
#     Edge 65, Type (0, 0), BuildingBlock: OJICUG_clean_linker_0, # of connection points: 2
#     Edge 66, Type (0, 0), BuildingBlock: OJICUG_clean_linker_0, # of connection points: 2
#     Edge 67, Type (0, 0), BuildingBlock: OJICUG_clean_linker_0, # of connection points: 2
#     Edge 68, Type (0, 0), BuildingBlock: OJICUG_clean_linker_0, # of connection points: 2
#     Edge 69, Type (0, 0), BuildingBlock: OJICUG_clean_linker_0, # of connection points: 2
#     Edge 70, Type (0, 0), BuildingBlock: OJICUG_clean_linker_0, # of connection points: 2
#     Edge 71, Type (0, 0), BuildingBlock: OJICUG_clean_linker_0, # of connection points: 2
#     Edge 72, Type (0, 0), BuildingBlock: OJICUG_clean_linker_0, # of connection points: 2
#     Edge 73, Type (0, 0), BuildingBlock: OJICUG_clean_linker_0, # of connection points: 2
#     Edge 74, Type (0, 0), BuildingBlock: OJICUG_clean_linker_0, # of connection points: 2
#     Edge 75, Type (0, 0), BuildingBlock: OJICUG_clean_linker_0, # of connection points: 2
#     Edge 76, Type (0, 0), BuildingBlock: OJICUG_clean_linker_0, # of connection points: 2
#     Edge 77, Type (0, 0), BuildingBlock: OJICUG_clean_linker_0, # of connection points: 2
#     Edge 78, Type (0, 0), BuildingBlock: OJICUG_clean_linker_0, # of connection points: 2
#     Edge 79, Type (0, 0), BuildingBlock: OJICUG_clean_linker_0, # of connection points: 2
#     Edge 80, Type (0, 0), BuildingBlock: OJICUG_clean_linker_0, # of connection points: 2
#     Edge 81, Type (0, 0), BuildingBlock: OJICUG_clean_linker_0, # of connection points: 2
#     Edge 82, Type (0, 0), BuildingBlock: OJICUG_clean_linker_0, # of connection points: 2
#     Edge 83, Type (0, 0), BuildingBlock: OJICUG_clean_linker_0, # of connection points: 2
# Relax obj value: 0.624
# Max RMSD: 0.258
# Mean RMSD: 0.258
data_MOF--net-wjr--node1-XOMCOT_clean_sbu_1--edge1-OJICUG_clean_linker_0
_symmetry_space_group_name_H-M    P1
_symmetry_Int_Tables_number       1
_symmetry_cell_setting            triclinic
loop_
_symmetry_equiv_pos_as_xyz
'x, y, z'
_cell_length_a     49.027892
_cell_length_b     49.063519
_cell_length_c     36.095302
_cell_angle_alpha  89.923892
_cell_angle_beta   90.095802
_cell_angle_gamma 119.99502
loop_
_atom_site_label
_atom_site_type_symbol
_atom_site_fract_x
_atom_site_fract_y
_atom_site_fract_z
_atom_type_partial_charge
C0 C 0.47053 0.16468 0.14221 0.0
C1 C 0.46582 0.18579 0.16237 0.0
N2 N 0.48849 0.19894 0.18847 0.0
N3 N 0.4962 0.16446 0.15517 0.0
C4 C 0.50674 0.18579 0.18319 0.0
H5 H 0.45508 0.14915 0.12091 0.0
Co6 Co 0.50871 0.13519 0.14155 0.0
C7 C 0.55345 0.14207 0.19914 0.0
O8 O 0.54037 0.11128 0.19966 0.0
N9 N 0.52207 0.10549 0.12762 0.0
C10 C 0.55535 0.08949 0.10917 0.0
C11 C 0.55124 0.11498 0.11424 0.0
C12 C 0.50892 0.07359 0.13003 0.0
N13 N 0.52874 0.06332 0.11924 0.0
O14 O 0.53358 0.16235 0.10196 0.0
H15 H 0.56905 0.13923 0.10949 0.0
H16 H 0.48581 0.05795 0.14091 0.0
O17 O 0.54391 0.15521 0.17609 0.0
C18 C 0.51504 0.15425 0.07424 0.0
O19 O 0.48597 0.13109 0.07831 0.0
N20 N 0.48116 0.1081 0.17753 0.0
C21 C 0.43429 0.06423 0.22373 0.0
C22 C 0.45916 0.09227 0.23825 0.0
C23 C 0.48225 0.11405 0.21461 0.0
C24 C 0.45494 0.08352 0.16255 0.0
C25 C 0.43181 0.06064 0.18506 0.0
H26 H 0.50074 0.13565 0.22627 0.0
H27 H 0.4528 0.08086 0.13275 0.0
H28 H 0.52663 0.19067 0.20059 0.0
H29 H 0.44603 0.18962 0.1594 0.0
H30 H 0.57649 0.0903 0.09896 0.0
H31 H 0.46112 0.09727 0.26764 0.0
H32 H 0.41306 0.03984 0.17203 0.0
C33 C 0.30151 0.48258 0.14472 0.0
C34 C 0.27581 0.47408 0.16719 0.0
N35 N 0.2861 0.48491 0.20163 0.0
N36 N 0.32816 0.49886 0.16471 0.0
C37 C 0.31786 0.49983 0.19939 0.0
H38 H 0.30049 0.47618 0.11594 0.0
Co39 Co 0.37001 0.51215 0.14943 0.0
C40 C 0.37576 0.57012 0.18335 0.0
O41 O 0.34871 0.56594 0.17104 0.0
N42 N 0.41228 0.52549 0.13521 0.0
C43 C 0.46191 0.55711 0.11753 0.0
C44 C 0.43268 0.55425 0.12168 0.0
C45 C 0.42981 0.51117 0.13873 0.0
N46 N 0.46033 0.53006 0.12846 0.0
O47 O 0.36419 0.52964 0.10464 0.0
H48 H 0.42682 0.57236 0.1159 0.0
H49 H 0.42063 0.48772 0.14985 0.0
O50 O 0.38488 0.55073 0.17528 0.0
C51 C 0.35655 0.5083 0.08025 0.0
O52 O 0.35411 0.48141 0.09036 0.0
N53 N 0.37483 0.493 0.19062 0.0
C54 C 0.38477 0.45653 0.2413 0.0
C55 C 0.39731 0.48892 0.24757 0.0
C56 C 0.39245 0.50699 0.22142 0.0
C57 C 0.36024 0.46134 0.18577 0.0
C58 C 0.36493 0.44259 0.21073 0.0
H59 H 0.4041 0.53217 0.22513 0.0
H60 H 0.34647 0.45095 0.161 0.0
H61 H 0.33335 0.51017 0.22296 0.0
H62 H 0.25136 0.46046 0.1589 0.0
H63 H 0.48274 0.57769 0.10719 0.0
H64 H 0.41233 0.50052 0.27119 0.0
H65 H 0.35513 0.41789 0.20428 0.0
C66 C 0.83669 0.30338 0.13785 0.0
C67 C 0.81482 0.27856 0.15879 0.0
N68 N 0.80274 0.2898 0.18404 0.0
N69 N 0.83816 0.33028 0.14917 0.0
C70 C 0.8173 0.32121 0.1776 0.0
H71 H 0.85148 0.30211 0.11651 0.0
Co72 Co 0.86856 0.37099 0.13264 0.0
C73 C 0.87927 0.41243 0.19614 0.0
O74 O 0.90959 0.42506 0.18978 0.0
N75 N 0.8997 0.41314 0.11666 0.0
C76 C 0.91788 0.46428 0.10574 0.0
C77 C 0.89159 0.43546 0.11133 0.0
C78 C 0.93182 0.42975 0.11419 0.0
N79 N 0.94348 0.46102 0.10806 0.0
O80 O 0.83751 0.37461 0.10223 0.0
H81 H 0.86797 0.43164 0.11383 0.0
H82 H 0.94677 0.41994 0.1196 0.0
O83 O 0.85948 0.38976 0.1758 0.0
C84 C 0.82202 0.35542 0.07607 0.0
O85 O 0.81668 0.32647 0.078 0.0
N86 N 0.89876 0.36573 0.15783 0.0
C87 C 0.94899 0.36139 0.18591 0.0
C88 C 0.92608 0.3606 0.20987 0.0
C89 C 0.90055 0.36212 0.1951 0.0
C90 C 0.91797 0.36148 0.13425 0.0
C91 C 0.9439 0.36017 0.14767 0.0
H92 H 0.88298 0.36153 0.21361 0.0
H93 H 0.91439 0.36149 0.10467 0.0
H94 H 0.81356 0.33737 0.19419 0.0
H95 H 0.80955 0.25439 0.15696 0.0
H96 H 0.91792 0.48613 0.10162 0.0
H97 H 0.92885 0.36074 0.23967 0.0
H98 H 0.96065 0.35985 0.12837 0.0
C99 C 0.5596 0.83576 0.16475 0.0
C100 C 0.56228 0.81543 0.18878 0.0
N101 N 0.53584 0.80081 0.20914 0.0
N102 N 0.5316 0.83424 0.16977 0.0
C103 C 0.51761 0.8126 0.1972 0.0
H104 H 0.57785 0.85205 0.14631 0.0
Co105 Co 0.52197 0.86357 0.14802 0.0
C106 C 0.45634 0.82673 0.18469 0.0
O107 O 0.44368 0.79743 0.17347 0.0
N108 N 0.512 0.89353 0.12693 0.0
C109 C 0.48232 0.91138 0.10154 0.0
C110 C 0.48508 0.88526 0.1082 0.0
C111 C 0.52518 0.92526 0.13115 0.0
N112 N 0.50747 0.93668 0.11622 0.0
O113 O 0.50093 0.83567 0.10752 0.0
H114 H 0.46746 0.86136 0.10145 0.0
H115 H 0.54644 0.93972 0.1466 0.0
O116 O 0.48375 0.84734 0.17435 0.0
C117 C 0.52035 0.83942 0.082 0.0
O118 O 0.5505 0.8582 0.08843 0.0
N119 N 0.54434 0.89149 0.18572 0.0
C120 C 0.57946 0.94494 0.22786 0.0
C121 C 0.54996 0.92115 0.24038 0.0
C122 C 0.53267 0.89437 0.21883 0.0
C123 C 0.57468 0.91197 0.17597 0.0
C124 C 0.59269 0.93924 0.19651 0.0
H125 H 0.50948 0.87705 0.22805 0.0
H126 H 0.5837 0.90873 0.15002 0.0
H127 H 0.49561 0.80707 0.21015 0.0
H128 H 0.58253 0.81231 0.19188 0.0
H129 H 0.46281 0.91147 0.0876 0.0
H130 H 0.53952 0.92407 0.26541 0.0
H131 H 0.61545 0.95681 0.18596 0.0
C132 C 0.7209 0.54939 0.14206 0.0
C133 C 0.74687 0.55322 0.16113 0.0
N134 N 0.73712 0.53358 0.19047 0.0
N135 N 0.69454 0.52728 0.15892 0.0
C136 C 0.70525 0.51783 0.18823 0.0
H137 H 0.72138 0.56305 0.11833 0.0
Co138 Co 0.65344 0.51803 0.14585 0.0
C139 C 0.61135 0.46843 0.19644 0.0
O140 O 0.59568 0.48348 0.20034 0.0
N141 N 0.61106 0.50824 0.13203 0.0
C142 C 0.56184 0.47871 0.11086 0.0
C143 C 0.59077 0.48096 0.11494 0.0
C144 C 0.59334 0.52226 0.13764 0.0
N145 N 0.56321 0.50461 0.12535 0.0
O146 O 0.65484 0.49608 0.10267 0.0
H147 H 0.59621 0.46298 0.10697 0.0
H148 H 0.6016 0.5443 0.15188 0.0
O149 O 0.63559 0.47946 0.17555 0.0
C150 C 0.66401 0.51635 0.0767 0.0
O151 O 0.66975 0.54488 0.0846 0.0
N152 N 0.65456 0.54281 0.18537 0.0
C153 C 0.64758 0.58161 0.23481 0.0
C154 C 0.64982 0.55584 0.24778 0.0
C155 C 0.65407 0.53693 0.2224 0.0
C156 C 0.65888 0.57101 0.17346 0.0
C157 C 0.65484 0.59069 0.1977 0.0
H158 H 0.65496 0.51671 0.23248 0.0
H159 H 0.66215 0.57663 0.14424 0.0
H160 H 0.69006 0.5011 0.20881 0.0
H161 H 0.77112 0.57003 0.1545 0.0
H162 H 0.5413 0.45923 0.09828 0.0
H163 H 0.64582 0.54899 0.27668 0.0
H164 H 0.65402 0.6108 0.18662 0.0
C165 C 0.19248 0.71727 0.13617 0.0
C166 C 0.21505 0.74094 0.15783 0.0
N167 N 0.2181 0.72812 0.18942 0.0
N168 N 0.18144 0.68939 0.15367 0.0
C169 C 0.19757 0.6969 0.1862 0.0
H170 H 0.18432 0.72048 0.1096 0.0
Co171 Co 0.14953 0.64982 0.1359 0.0
C172 C 0.14816 0.6041 0.18882 0.0
O173 O 0.1173 0.59017 0.18887 0.0
N174 N 0.11726 0.60894 0.11759 0.0
C175 C 0.09764 0.56091 0.09289 0.0
C176 C 0.12445 0.58913 0.09968 0.0
C177 C 0.0853 0.59147 0.12133 0.0
N178 N 0.0728 0.56208 0.10677 0.0
O179 O 0.17728 0.65147 0.09717 0.0
H180 H 0.14801 0.59415 0.09317 0.0
H181 H 0.07143 0.59914 0.13643 0.0
O182 O 0.1645 0.62859 0.16908 0.0
C183 C 0.17151 0.66322 0.06877 0.0
O184 O 0.14988 0.67148 0.07138 0.0
N185 N 0.12205 0.65098 0.17084 0.0
C186 C 0.07328 0.64816 0.21214 0.0
C187 C 0.09817 0.64713 0.22984 0.0
C188 C 0.12287 0.64917 0.20857 0.0
C189 C 0.10069 0.65708 0.15427 0.0
C190 C 0.0754 0.65481 0.17425 0.0
H191 H 0.1416 0.64774 0.22242 0.0
H192 H 0.10179 0.6609 0.12465 0.0
H193 H 0.19444 0.67991 0.2073 0.0
H194 H 0.22747 0.76583 0.15139 0.0
H195 H 0.09683 0.54091 0.07923 0.0
H196 H 0.09746 0.64263 0.25932 0.0
H197 H 0.05675 0.65629 0.15991 0.0
C198 C 0.84972 0.55805 0.35681 0.0
C199 C 0.82985 0.56253 0.33412 0.0
N200 N 0.81455 0.53724 0.31198 0.0
N201 N 0.84712 0.52989 0.34962 0.0
C202 C 0.82521 0.51756 0.32211 0.0
H203 H 0.86658 0.57523 0.37586 0.0
Co204 Co 0.87623 0.51952 0.37088 0.0
C205 C 0.84631 0.45989 0.32475 0.0
O206 O 0.82006 0.44358 0.34347 0.0
N207 N 0.90587 0.50986 0.39213 0.0
C208 C 0.93827 0.50599 0.43241 0.0
C209 C 0.91295 0.51075 0.42838 0.0
C210 C 0.92723 0.50446 0.37472 0.0
N211 N 0.94748 0.50219 0.39854 0.0
O212 O 0.84465 0.49051 0.40476 0.0
H213 H 0.9013 0.51576 0.45051 0.0
H214 H 0.92902 0.50414 0.3449 0.0
O215 O 0.86653 0.48759 0.33482 0.0
C216 C 0.84038 0.50557 0.43068 0.0
O217 O 0.85627 0.53644 0.42973 0.0
N218 N 0.90747 0.54902 0.33978 0.0
C219 C 0.95809 0.59014 0.29577 0.0
C220 C 0.92888 0.56894 0.27979 0.0
C221 C 0.90401 0.54829 0.30224 0.0
C222 C 0.93437 0.57167 0.35609 0.0
C223 C 0.96029 0.59199 0.33462 0.0
H224 H 0.88221 0.53122 0.2893 0.0
H225 H 0.93636 0.57279 0.38597 0.0
H226 H 0.81902 0.49592 0.30772 0.0
H227 H 0.82789 0.58354 0.33282 0.0
H228 H 0.94935 0.50601 0.45836 0.0
H229 H 0.92537 0.5675 0.25009 0.0
H230 H 0.98213 0.60781 0.34855 0.0
C231 C 0.30365 0.83437 0.36031 0.0
C232 C 0.279 0.81201 0.33951 0.0
N233 N 0.29087 0.80167 0.31298 0.0
N234 N 0.33108 0.83778 0.34763 0.0
C235 C 0.32239 0.81762 0.31847 0.0
H236 H 0.30178 0.84843 0.38213 0.0
Co237 Co 0.372 0.86897 0.3631 0.0
C238 C 0.41206 0.87516 0.29979 0.0
O239 O 0.42632 0.90592 0.30317 0.0
N240 N 0.41448 0.90075 0.37786 0.0
C241 C 0.4656 0.91927 0.38983 0.0
C242 C 0.43671 0.89281 0.38496 0.0
C243 C 0.43123 0.93295 0.37856 0.0
N244 N 0.46247 0.9448 0.38542 0.0
O245 O 0.37545 0.83913 0.39496 0.0
H246 H 0.43279 0.86911 0.38422 0.0
H247 H 0.4215 0.94775 0.37182 0.0
O248 O 0.38997 0.85765 0.32203 0.0
C249 C 0.35871 0.8308 0.42429 0.0
O250 O 0.33689 0.83864 0.42782 0.0
N251 N 0.36679 0.89804 0.33552 0.0
C252 C 0.36686 0.94917 0.30367 0.0
C253 C 0.36457 0.92477 0.28128 0.0
C254 C 0.36387 0.89877 0.29798 0.0
C255 C 0.36296 0.91844 0.3574 0.0
C256 C 0.36385 0.9449 0.34207 0.0
H257 H 0.36272 0.88027 0.28071 0.0
H258 H 0.3624 0.91577 0.3872 0.0
H259 H 0.33881 0.81538 0.30054 0.0
H260 H 0.25444 0.80531 0.34223 0.0
H261 H 0.4874 0.91946 0.39519 0.0
H262 H 0.36598 0.92696 0.25137 0.0
H263 H 0.36475 0.96297 0.3601 0.0
C264 C 0.45625 0.28873 0.34086 0.0
C265 C 0.45323 0.26321 0.32177 0.0
N266 N 0.48184 0.26978 0.31008 0.0
N267 N 0.48658 0.3123 0.34025 0.0
C268 C 0.5018 0.299 0.32305 0.0
H269 H 0.43691 0.28991 0.35319 0.0
Co270 Co 0.50101 0.35487 0.35656 0.0
C271 C 0.54095 0.36582 0.28913 0.0
O272 O 0.51644 0.34441 0.27066 0.0
N273 N 0.51475 0.39671 0.37312 0.0
C274 C 0.54522 0.44823 0.38278 0.0
C275 C 0.54473 0.42013 0.37746 0.0
C276 C 0.49746 0.41119 0.37731 0.0
N277 N 0.51537 0.44278 0.3822 0.0
O278 O 0.52461 0.34996 0.39582 0.0
H279 H 0.56514 0.41726 0.37508 0.0
H280 H 0.47213 0.39886 0.37541 0.0
O281 O 0.53767 0.37132 0.3231 0.0
C282 C 0.50665 0.33272 0.42174 0.0
O283 O 0.47605 0.31848 0.41655 0.0
N284 N 0.47611 0.36029 0.32095 0.0
C285 C 0.43986 0.38419 0.29156 0.0
C286 C 0.47016 0.39428 0.2781 0.0
C287 C 0.48833 0.38311 0.29423 0.0
C288 C 0.44559 0.34826 0.33199 0.0
C289 C 0.4269 0.35971 0.31744 0.0
H290 H 0.5131 0.39631 0.2885 0.0
H291 H 0.43719 0.33363 0.35632 0.0
H292 H 0.5268 0.31121 0.31753 0.0
H293 H 0.43132 0.24224 0.31467 0.0
H294 H 0.56623 0.47109 0.38492 0.0
H295 H 0.48104 0.41313 0.25797 0.0
H296 H 0.40391 0.35193 0.3294 0.0
C297 C 0.15523 0.44057 0.34802 0.0
C298 C 0.1787 0.43599 0.33415 0.0
N299 N 0.20292 0.46401 0.32337 0.0
N300 N 0.16415 0.47133 0.34576 0.0
C301 C 0.19419 0.4852 0.33321 0.0
H302 H 0.13182 0.42217 0.35551 0.0
Co303 Co 0.13452 0.48547 0.34686 0.0
C304 C 0.17832 0.53133 0.28366 0.0
O305 O 0.19219 0.51677 0.26938 0.0
N306 N 0.1039 0.4989 0.34685 0.0
C307 C 0.07063 0.51153 0.32021 0.0
C308 C 0.09693 0.5091 0.31532 0.0
C309 C 0.08066 0.49495 0.37071 0.0
N310 N 0.05995 0.50234 0.35482 0.0
O311 O 0.15667 0.51319 0.38751 0.0
H312 H 0.10853 0.51208 0.28902 0.0
H313 H 0.0776 0.48464 0.39799 0.0
O314 O 0.15864 0.51891 0.31035 0.0
C315 C 0.14918 0.49584 0.41634 0.0
O316 O 0.12955 0.46551 0.41256 0.0
N317 N 0.1108 0.45609 0.31059 0.0
C318 C 0.06466 0.41181 0.26415 0.0
C319 C 0.0949 0.43287 0.25048 0.0
C320 C 0.11775 0.45496 0.27429 0.0
C321 C 0.08283 0.43377 0.32501 0.0
C322 C 0.05927 0.41171 0.30231 0.0
H323 H 0.1404 0.47132 0.26319 0.0
H324 H 0.07818 0.43431 0.35421 0.0
H325 H 0.20859 0.51018 0.32857 0.0
H326 H 0.17674 0.41333 0.32912 0.0
H327 H 0.05926 0.51814 0.29914 0.0
H328 H 0.1005 0.43315 0.22143 0.0
H329 H 0.03645 0.39625 0.31444 0.0
C330 C 0.71784 0.1993 0.36544 0.0
C331 C 0.74097 0.22111 0.34271 0.0
N332 N 0.72934 0.21739 0.30814 0.0
N333 N 0.69126 0.18188 0.34566 0.0
C334 C 0.69932 0.19315 0.31054 0.0
H335 H 0.72051 0.19677 0.39469 0.0
Co336 Co 0.65148 0.15032 0.36414 0.0
C337 C 0.6326 0.19271 0.3236 0.0
O338 O 0.65809 0.22028 0.32789 0.0
N339 N 0.61088 0.11879 0.3818 0.0
C340 C 0.56216 0.0986 0.40415 0.0
C341 C 0.59066 0.12562 0.39911 0.0
C342 C 0.59379 0.08703 0.37679 0.0
N343 N 0.5638 0.07411 0.38979 0.0
O344 O 0.65639 0.17555 0.40693 0.0
H345 H 0.59586 0.14909 0.40651 0.0
H346 H 0.6027 0.0738 0.3624 0.0
O347 O 0.63093 0.16803 0.33719 0.0
C348 C 0.66701 0.16526 0.43226 0.0
O349 O 0.67257 0.14239 0.42412 0.0
N350 N 0.64782 0.12456 0.32487 0.0
C351 C 0.63398 0.07177 0.28345 0.0
C352 C 0.62035 0.09019 0.27447 0.0
C353 C 0.62739 0.11651 0.29582 0.0
C354 C 0.6639 0.10908 0.33133 0.0
C355 C 0.65727 0.08241 0.31094 0.0
H356 H 0.61453 0.12862 0.29058 0.0
H357 H 0.67986 0.11585 0.35466 0.0
H358 H 0.68312 0.18447 0.28738 0.0
H359 H 0.76468 0.23832 0.35101 0.0
H360 H 0.54171 0.09739 0.41709 0.0
H361 H 0.60276 0.0831 0.25281 0.0
H362 H 0.66828 0.06886 0.31884 0.0
C363 C 0.51783 0.69266 0.37988 0.0
C364 C 0.52573 0.72068 0.36225 0.0
N365 N 0.51677 0.71443 0.3265 0.0
N366 N 0.50417 0.66888 0.35529 0.0
C367 C 0.50405 0.683 0.32299 0.0
H368 H 0.52224 0.68984 0.40861 0.0
Co369 Co 0.49065 0.626 0.36328 0.0
C370 C 0.43621 0.61958 0.32055 0.0
O371 O 0.42716 0.63164 0.34701 0.0
N372 N 0.47692 0.58241 0.37023 0.0
C373 C 0.44621 0.53042 0.37384 0.0
C374 C 0.44682 0.55869 0.37046 0.0
C375 C 0.4942 0.56784 0.37387 0.0
N376 N 0.47608 0.53599 0.3758 0.0
O377 O 0.4625 0.62438 0.40119 0.0
H378 H 0.42652 0.56173 0.36789 0.0
H379 H 0.51968 0.58041 0.37387 0.0
O380 O 0.45968 0.61548 0.32524 0.0
C381 C 0.46928 0.61841 0.43314 0.0
O382 O 0.49273 0.61282 0.43642 0.0
N383 N 0.51969 0.62846 0.32924 0.0
C384 C 0.56659 0.62263 0.2946 0.0
C385 C 0.53561 0.60616 0.28117 0.0
C386 C 0.51228 0.60943 0.29899 0.0
C387 C 0.55005 0.64637 0.34087 0.0
C388 C 0.57413 0.64406 0.32356 0.0
H389 H 0.48805 0.59444 0.29075 0.0
H390 H 0.55521 0.66061 0.36555 0.0
H391 H 0.49578 0.67065 0.29694 0.0
H392 H 0.53717 0.74384 0.37472 0.0
H393 H 0.42516 0.50751 0.37479 0.0
H394 H 0.52918 0.58928 0.25885 0.0
H395 H 0.5978 0.65677 0.33474 0.0
C396 C 0.5185 0.80584 0.86236 0.0
C397 C 0.5201 0.78479 0.83848 0.0
N398 N 0.51594 0.79194 0.80373 0.0
N399 N 0.51289 0.82612 0.84292 0.0
C400 C 0.51189 0.81709 0.80709 0.0
H401 H 0.5206 0.80555 0.89209 0.0
Co402 Co 0.50443 0.85784 0.86054 0.0
C403 C 0.44447 0.81059 0.82503 0.0
O404 O 0.44541 0.78597 0.83776 0.0
N405 N 0.49525 0.88956 0.87696 0.0
C406 C 0.46712 0.91021 0.89922 0.0
C407 C 0.46837 0.88303 0.89451 0.0
C408 C 0.51002 0.92129 0.8714 0.0
N409 N 0.49322 0.93449 0.88445 0.0
O410 O 0.48546 0.83401 0.90464 0.0
H411 H 0.4502 0.85969 0.90254 0.0
H412 H 0.53209 0.93432 0.85676 0.0
O413 O 0.46546 0.83826 0.83444 0.0
C414 C 0.50777 0.84441 0.92824 0.0
O415 O 0.53599 0.8663 0.91767 0.0
N416 N 0.52542 0.88224 0.82011 0.0
C417 C 0.56421 0.92791 0.76991 0.0
C418 C 0.532 0.90835 0.76224 0.0
C419 C 0.51276 0.8861 0.78824 0.0
C420 C 0.55699 0.89862 0.82622 0.0
C421 C 0.57688 0.92187 0.80165 0.0
H422 H 0.48781 0.8729 0.78304 0.0
H423 H 0.56642 0.89494 0.85163 0.0
H424 H 0.50665 0.82766 0.78388 0.0
H425 H 0.52393 0.76561 0.8461 0.0
H426 H 0.44814 0.91174 0.91242 0.0
H427 H 0.52134 0.9115 0.7375 0.0
H428 H 0.60143 0.93643 0.80912 0.0
C429 C 0.71028 0.55547 0.84975 0.0
C430 C 0.73874 0.5621 0.83506 0.0
N431 N 0.73576 0.53563 0.82007 0.0
N432 N 0.68851 0.52515 0.84313 0.0
C433 C 0.7057 0.51326 0.82776 0.0
H434 H 0.70573 0.57242 0.86321 0.0
Co435 Co 0.64401 0.50836 0.85111 0.0
C436 C 0.64155 0.46423 0.79218 0.0
O437 O 0.66227 0.48801 0.77217 0.0
N438 N 0.60038 0.49277 0.86008 0.0
C439 C 0.54952 0.4607 0.87202 0.0
C440 C 0.57859 0.46294 0.86856 0.0
C441 C 0.58388 0.50831 0.85891 0.0
N442 N 0.55261 0.48926 0.8658 0.0
O443 O 0.64729 0.49044 0.89675 0.0
H444 H 0.58351 0.44392 0.87206 0.0
H445 H 0.59465 0.53308 0.85239 0.0
O446 O 0.63352 0.46937 0.82411 0.0
C447 C 0.65606 0.51171 0.92137 0.0
O448 O 0.6601 0.53934 0.91177 0.0
N449 N 0.64069 0.5277 0.80795 0.0
C450 C 0.6361 0.56077 0.74749 0.0
C451 C 0.62056 0.52771 0.74753 0.0
C452 C 0.62126 0.51181 0.77903 0.0
C453 C 0.65533 0.55964 0.80898 0.0
C454 C 0.65353 0.57662 0.77918 0.0
H455 H 0.60563 0.4867 0.78018 0.0
H456 H 0.66666 0.57206 0.83402 0.0
H457 H 0.69642 0.48871 0.82149 0.0
H458 H 0.75934 0.5853 0.83344 0.0
H459 H 0.52786 0.43951 0.87905 0.0
H460 H 0.60653 0.51377 0.72441 0.0
H461 H 0.66412 0.6018 0.78245 0.0
C462 C 0.1994 0.7187 0.84975 0.0
C463 C 0.21885 0.74326 0.82664 0.0
N464 N 0.22157 0.7311 0.79439 0.0
N465 N 0.18976 0.69108 0.83214 0.0
C466 C 0.20364 0.69963 0.79835 0.0
H467 H 0.19217 0.72105 0.87726 0.0
Co468 Co 0.15985 0.64995 0.84827 0.0
C469 C 0.20458 0.63416 0.8095 0.0
O470 O 0.22799 0.64794 0.83313 0.0
N471 N 0.12966 0.60857 0.8636 0.0
C472 C 0.10759 0.55758 0.87699 0.0
C473 C 0.1356 0.58513 0.87123 0.0
C474 C 0.09778 0.59471 0.86558 0.0
N475 N 0.08362 0.56345 0.87313 0.0
O476 O 0.18631 0.65295 0.8891 0.0
H477 H 0.15882 0.58768 0.87147 0.0
H478 H 0.08514 0.60703 0.8596 0.0
O479 O 0.17862 0.63337 0.81544 0.0
C480 C 0.17696 0.66265 0.91632 0.0
O481 O 0.15403 0.66873 0.91079 0.0
N482 N 0.13288 0.64755 0.81103 0.0
C483 C 0.08063 0.63694 0.77063 0.0
C484 C 0.09453 0.61839 0.76467 0.0
C485 C 0.1206 0.62389 0.78551 0.0
C486 C 0.12114 0.66734 0.81511 0.0
C487 C 0.09494 0.66257 0.79482 0.0
H488 H 0.12879 0.60719 0.78366 0.0
H489 H 0.1306 0.68533 0.83628 0.0
H490 H 0.19967 0.68326 0.77625 0.0
H491 H 0.2301 0.76811 0.83303 0.0
H492 H 0.10518 0.53489 0.88309 0.0
H493 H 0.08386 0.59831 0.74618 0.0
H494 H 0.08447 0.67706 0.80033 0.0
C495 C 0.46342 0.16365 0.85191 0.0
C496 C 0.45715 0.18374 0.83184 0.0
N497 N 0.48051 0.19916 0.80721 0.0
N498 N 0.4902 0.16523 0.83961 0.0
C499 C 0.50092 0.18873 0.8139 0.0
H500 H 0.4484 0.14791 0.87329 0.0
Co501 Co 0.50415 0.13631 0.85502 0.0
C502 C 0.54359 0.16145 0.78696 0.0
O503 O 0.51869 0.15353 0.76611 0.0
N504 N 0.51794 0.10782 0.87091 0.0
C505 C 0.55057 0.0899 0.88424 0.0
C506 C 0.54807 0.11635 0.87868 0.0
C507 C 0.50242 0.0758 0.87288 0.0
N508 N 0.52189 0.06412 0.88009 0.0
O509 O 0.52811 0.16433 0.89431 0.0
H510 H 0.56736 0.14038 0.87902 0.0
H511 H 0.47756 0.06131 0.86692 0.0
O512 O 0.54048 0.15633 0.82189 0.0
C513 C 0.51022 0.15761 0.9224 0.0
O514 O 0.48065 0.13537 0.91919 0.0
N515 N 0.47872 0.10691 0.81915 0.0
C516 C 0.43712 0.05161 0.78324 0.0
C517 C 0.46951 0.06536 0.77731 0.0
C518 C 0.48999 0.09277 0.796 0.0
C519 C 0.44704 0.09406 0.82417 0.0
C520 C 0.42568 0.06663 0.80584 0.0
H521 H 0.51485 0.10068 0.79469 0.0
H522 H 0.4381 0.103 0.84518 0.0
H523 H 0.52306 0.19816 0.79973 0.0
H524 H 0.43646 0.18611 0.83463 0.0
H525 H 0.57218 0.0899 0.89029 0.0
H526 H 0.47897 0.05366 0.76065 0.0
H527 H 0.40076 0.05582 0.81186 0.0
C528 C 0.29558 0.45941 0.84905 0.0
C529 C 0.26854 0.45398 0.83126 0.0
N530 N 0.27375 0.48097 0.81547 0.0
N531 N 0.31867 0.48949 0.84357 0.0
C532 C 0.3035 0.50249 0.82551 0.0
H533 H 0.29828 0.44177 0.86377 0.0
Co534 Co 0.36242 0.50396 0.85498 0.0
C535 C 0.37145 0.54983 0.79479 0.0
O536 O 0.35049 0.52699 0.77386 0.0
N537 N 0.40536 0.51738 0.86701 0.0
C538 C 0.45586 0.54803 0.88213 0.0
C539 C 0.42695 0.54622 0.87906 0.0
C540 C 0.42186 0.50195 0.86348 0.0
N541 N 0.45294 0.5202 0.87203 0.0
O542 O 0.35862 0.52281 0.89955 0.0
H543 H 0.42211 0.56504 0.88471 0.0
H544 H 0.41137 0.478 0.85362 0.0
O545 O 0.37679 0.54355 0.82758 0.0
C546 C 0.34762 0.50165 0.92448 0.0
O547 O 0.34075 0.47298 0.91543 0.0
N548 N 0.36625 0.48348 0.81332 0.0
C549 C 0.3793 0.44871 0.76286 0.0
C550 C 0.39243 0.48127 0.75852 0.0
C551 C 0.38752 0.49832 0.78556 0.0
C552 C 0.35185 0.45162 0.81677 0.0
C553 C 0.35794 0.43373 0.79187 0.0
H554 H 0.40305 0.5234 0.78556 0.0
H555 H 0.33852 0.44025 0.84128 0.0
H556 H 0.31423 0.52701 0.81806 0.0
H557 H 0.2472 0.43142 0.82847 0.0
H558 H 0.47735 0.56856 0.89113 0.0
H559 H 0.40899 0.49407 0.73658 0.0
H560 H 0.34828 0.40893 0.79764 0.0
C561 C 0.8248 0.31817 0.87224 0.0
C562 C 0.80428 0.29214 0.85168 0.0
N563 N 0.81116 0.29887 0.81552 0.0
N564 N 0.84425 0.34139 0.84911 0.0
C565 C 0.83554 0.3287 0.81477 0.0
H566 H 0.82503 0.32023 0.90204 0.0
Co567 Co 0.87391 0.38347 0.86023 0.0
C568 C 0.83403 0.40299 0.81702 0.0
O569 O 0.81777 0.40454 0.84499 0.0
N570 N 0.90416 0.4267 0.86981 0.0
C571 C 0.92658 0.47881 0.87438 0.0
C572 C 0.89851 0.45089 0.87122 0.0
C573 C 0.93601 0.44071 0.87294 0.0
N574 N 0.95047 0.47259 0.87523 0.0
O575 O 0.84617 0.38422 0.89774 0.0
H576 H 0.87548 0.4486 0.8691 0.0
H577 H 0.94839 0.4277 0.87287 0.0
O578 O 0.85531 0.39586 0.82219 0.0
C579 C 0.8578 0.38841 0.93027 0.0
O580 O 0.8862 0.39243 0.93443 0.0
N581 N 0.90163 0.38209 0.82674 0.0
C582 C 0.95903 0.39788 0.79617 0.0
C583 C 0.93889 0.40612 0.77809 0.0
C584 C 0.91028 0.39839 0.79418 0.0
C585 C 0.9186 0.36961 0.84141 0.0
C586 C 0.94788 0.37749 0.82658 0.0
H587 H 0.8971 0.4084 0.78225 0.0
H588 H 0.91125 0.35686 0.86732 0.0
H589 H 0.84611 0.3415 0.7895 0.0
H590 H 0.78568 0.27001 0.86247 0.0
H591 H 0.92897 0.50194 0.87473 0.0
H592 H 0.94658 0.42119 0.75385 0.0
H593 H 0.96284 0.37055 0.84101 0.0
C594 C 0.18709 0.48803 0.63492 0.0
C595 C 0.20559 0.48073 0.65696 0.0
N596 N 0.20776 0.49313 0.69088 0.0
N597 N 0.17754 0.50503 0.65475 0.0
C598 C 0.19047 0.50753 0.6888 0.0
H599 H 0.18031 0.4805 0.60663 0.0
Co600 Co 0.14829 0.51795 0.64154 0.0
C601 C 0.20309 0.57637 0.67218 0.0
O602 O 0.22485 0.57147 0.65779 0.0
N603 N 0.11844 0.53068 0.62976 0.0
C604 C 0.09771 0.56164 0.62168 0.0
C605 C 0.12523 0.56059 0.62379 0.0
C606 C 0.0864 0.51381 0.63023 0.0
N607 N 0.07324 0.53224 0.62578 0.0
O608 O 0.16908 0.53444 0.59491 0.0
H609 H 0.14878 0.58065 0.62221 0.0
H610 H 0.073 0.48875 0.63547 0.0
O611 O 0.17401 0.5574 0.66593 0.0
C612 C 0.15442 0.5133 0.5705 0.0
O613 O 0.13048 0.48625 0.58107 0.0
N614 N 0.12667 0.50001 0.68455 0.0
C615 C 0.08401 0.46586 0.73971 0.0
C616 C 0.10442 0.4984 0.74381 0.0
C617 C 0.12531 0.51528 0.71542 0.0
C618 C 0.10915 0.4682 0.6816 0.0
C619 C 0.08756 0.45056 0.70887 0.0
H620 H 0.13908 0.54057 0.71768 0.0
H621 H 0.11069 0.45676 0.65672 0.0
H622 H 0.18638 0.51882 0.71216 0.0
H623 H 0.21634 0.46704 0.64874 0.0
H624 H 0.0958 0.58249 0.61766 0.0
H625 H 0.10276 0.51102 0.76749 0.0
H626 H 0.07207 0.42565 0.70414 0.0
C627 C 0.73161 0.1677 0.66796 0.0
C628 C 0.75649 0.19204 0.68633 0.0
N629 N 0.74776 0.21281 0.69688 0.0
N630 N 0.70671 0.17245 0.66732 0.0
C631 C 0.71819 0.20117 0.68353 0.0
H632 H 0.73188 0.14753 0.65667 0.0
Co633 Co 0.66473 0.14328 0.64994 0.0
C634 C 0.65144 0.17195 0.7154 0.0
O635 O 0.67165 0.16841 0.73591 0.0
N636 N 0.62317 0.11444 0.63257 0.0
C637 C 0.57232 0.09459 0.61917 0.0
C638 C 0.60066 0.12177 0.62504 0.0
C639 C 0.60784 0.08247 0.63012 0.0
N640 N 0.57657 0.06956 0.62273 0.0
O641 O 0.66951 0.17131 0.61042 0.0
H642 H 0.60427 0.14539 0.62554 0.0
H643 H 0.61923 0.06885 0.63506 0.0
O644 O 0.6472 0.16307 0.68152 0.0
C645 C 0.68746 0.17185 0.58468 0.0
O646 O 0.70329 0.15707 0.59 0.0
N647 N 0.65949 0.11365 0.68617 0.0
C648 C 0.63711 0.05452 0.71749 0.0
C649 C 0.62583 0.07414 0.72945 0.0
C650 C 0.63613 0.10283 0.71218 0.0
C651 C 0.6728 0.09595 0.67675 0.0
C652 C 0.66205 0.06623 0.69225 0.0
H653 H 0.622 0.11364 0.7165 0.0
H654 H 0.68834 0.10256 0.65321 0.0
H655 H 0.70484 0.21307 0.68689 0.0
H656 H 0.77856 0.19331 0.69344 0.0
H657 H 0.55005 0.09358 0.61447 0.0
H658 H 0.60655 0.06593 0.749 0.0
H659 H 0.6708 0.05142 0.68161 0.0
C660 C 0.5489 0.70959 0.64299 0.0
C661 C 0.55057 0.73509 0.66101 0.0
N662 N 0.5226 0.72603 0.67706 0.0
N663 N 0.52008 0.684 0.64794 0.0
C664 C 0.50422 0.69552 0.66717 0.0
H665 H 0.56825 0.70992 0.62851 0.0
Co666 Co 0.50669 0.64077 0.63595 0.0
C667 C 0.47806 0.63497 0.71117 0.0
O668 O 0.50467 0.65658 0.72603 0.0
N669 N 0.49303 0.5973 0.62489 0.0
C670 C 0.46071 0.54533 0.62173 0.0
C671 C 0.46259 0.57422 0.62484 0.0
C672 C 0.50919 0.58144 0.62117 0.0
N673 N 0.49007 0.54961 0.61983 0.0
O674 O 0.47431 0.63847 0.60366 0.0
H675 H 0.44284 0.57803 0.62838 0.0
H676 H 0.53457 0.59284 0.62144 0.0
O677 O 0.47709 0.62696 0.67725 0.0
C678 C 0.48007 0.65717 0.57643 0.0
O679 O 0.50724 0.68349 0.57517 0.0
N680 N 0.53927 0.64243 0.66386 0.0
C681 C 0.58572 0.62904 0.68374 0.0
C682 C 0.55875 0.61844 0.70559 0.0
C683 C 0.5352 0.62433 0.69436 0.0
C684 C 0.56657 0.65487 0.64395 0.0
C685 C 0.59047 0.64871 0.65367 0.0
H686 H 0.51259 0.61066 0.70731 0.0
H687 H 0.56804 0.66581 0.61749 0.0
H688 H 0.47988 0.6815 0.6755 0.0
H689 H 0.57154 0.75786 0.66445 0.0
H690 H 0.43913 0.52283 0.62161 0.0
H691 H 0.55418 0.60232 0.72841 0.0
H692 H 0.61058 0.65617 0.63557 0.0
C693 C 0.85036 0.56422 0.6568 0.0
C694 C 0.83179 0.56846 0.68192 0.0
N695 N 0.81421 0.54122 0.70016 0.0
N696 N 0.84477 0.5344 0.65906 0.0
C697 C 0.8221 0.52075 0.68541 0.0
H698 H 0.86869 0.58243 0.64003 0.0
Co699 Co 0.87314 0.5228 0.63918 0.0
C700 C 0.85028 0.46089 0.67472 0.0
O701 O 0.85042 0.44723 0.6435 0.0
N702 N 0.90287 0.51206 0.62004 0.0
C703 C 0.93319 0.50471 0.57997 0.0
C704 C 0.90692 0.50785 0.58397 0.0
C705 C 0.92743 0.51176 0.63736 0.0
N706 N 0.94635 0.5075 0.61353 0.0
O707 O 0.84205 0.4945 0.60379 0.0
H708 H 0.89301 0.50916 0.56159 0.0
H709 H 0.93228 0.51614 0.66668 0.0
O710 O 0.85929 0.49006 0.67531 0.0
C711 C 0.83209 0.50657 0.57978 0.0
O712 O 0.84009 0.53627 0.58333 0.0
N713 N 0.90355 0.55126 0.67095 0.0
C714 C 0.95686 0.59038 0.71112 0.0
C715 C 0.92959 0.56775 0.72928 0.0
C716 C 0.9029 0.54832 0.70855 0.0
C717 C 0.92829 0.57575 0.65357 0.0
C718 C 0.95554 0.59556 0.67317 0.0
H719 H 0.88243 0.53007 0.72251 0.0
H720 H 0.92772 0.57821 0.62383 0.0
H721 H 0.81342 0.49718 0.69581 0.0
H722 H 0.83244 0.59041 0.68783 0.0
H723 H 0.94315 0.50285 0.55399 0.0
H724 H 0.92961 0.56375 0.7588 0.0
H725 H 0.9761 0.61286 0.65822 0.0
C726 C 0.31948 0.8356 0.62561 0.0
C727 C 0.2914 0.81572 0.64328 0.0
N728 N 0.29734 0.80089 0.67082 0.0
N729 N 0.34311 0.83369 0.6423 0.0
C730 C 0.32864 0.81203 0.66952 0.0
H731 H 0.32284 0.8523 0.60401 0.0
Co732 Co 0.38624 0.86354 0.63669 0.0
C733 C 0.39897 0.81937 0.68182 0.0
O734 O 0.39187 0.79827 0.65568 0.0
N735 N 0.43062 0.89427 0.63223 0.0
C736 C 0.48264 0.91344 0.6305 0.0
C737 C 0.45354 0.88664 0.63271 0.0
C738 C 0.44685 0.92629 0.62911 0.0
N739 N 0.47861 0.93863 0.62835 0.0
O740 O 0.38979 0.83784 0.59911 0.0
H741 H 0.44942 0.86288 0.63452 0.0
H742 H 0.43585 0.94056 0.62778 0.0
O743 O 0.3972 0.844 0.6756 0.0
C744 C 0.39646 0.85104 0.56741 0.0
O745 O 0.40237 0.88019 0.56464 0.0
N746 N 0.38079 0.88864 0.67043 0.0
C747 C 0.37634 0.93192 0.71509 0.0
C748 C 0.37289 0.90407 0.73032 0.0
C749 C 0.37501 0.8825 0.70733 0.0
C750 C 0.37895 0.91279 0.65455 0.0
C751 C 0.37751 0.93531 0.67645 0.0
H752 H 0.37207 0.86111 0.71933 0.0
H753 H 0.3805 0.91552 0.62475 0.0
H754 H 0.34082 0.80669 0.69068 0.0
H755 H 0.26872 0.81359 0.63763 0.0
H756 H 0.50503 0.91413 0.6301 0.0
H757 H 0.37027 0.8998 0.75991 0.0
H758 H 0.3797 0.95616 0.66329 0.0
C759 C 0.46061 0.29376 0.6437 0.0
C760 C 0.45401 0.26666 0.66228 0.0
N761 N 0.47913 0.27242 0.68309 0.0
N762 N 0.48948 0.31735 0.65335 0.0
C763 C 0.5009 0.3026 0.67515 0.0
H764 H 0.44468 0.29599 0.62494 0.0
Co765 Co 0.50567 0.36118 0.64077 0.0
C766 C 0.54185 0.36808 0.71023 0.0
O767 O 0.51567 0.34907 0.72796 0.0
N768 N 0.52114 0.40446 0.62772 0.0
C769 C 0.55326 0.45609 0.62049 0.0
C770 C 0.55154 0.4273 0.62507 0.0
C771 C 0.50486 0.42013 0.62397 0.0
N772 N 0.52383 0.4518 0.6201 0.0
O773 O 0.52972 0.3573 0.60157 0.0
H774 H 0.57135 0.4235 0.62791 0.0
H775 H 0.47946 0.40852 0.6254 0.0
O776 O 0.54086 0.37421 0.67584 0.0
C777 C 0.51141 0.34719 0.57365 0.0
O778 O 0.48255 0.34205 0.57718 0.0
N779 N 0.48021 0.36507 0.6762 0.0
C780 C 0.44138 0.38387 0.70942 0.0
C781 C 0.47251 0.39613 0.72137 0.0
C782 C 0.49194 0.38772 0.70304 0.0
C783 C 0.44926 0.35118 0.66628 0.0
C784 C 0.42928 0.36009 0.68272 0.0
H785 H 0.51688 0.40214 0.70779 0.0
H786 H 0.44087 0.33636 0.64219 0.0
H787 H 0.52444 0.3138 0.68622 0.0
H788 H 0.4319 0.24467 0.66131 0.0
H789 H 0.5748 0.4786 0.61929 0.0
H790 H 0.48277 0.41459 0.74202 0.0
H791 H 0.40565 0.35078 0.6719 0.0
C792 C 0.49266 1.00535 0.11622 0.0
C793 C 0.52327 0.03133 0.11947 0.0
H794 H 0.46358 0.95529 0.1129 0.0
C795 C 0.54856 0.02544 0.1225 0.0
H796 H 0.4726 0.00881 0.11368 0.0
C797 C 0.54343 0.99458 0.12183 0.0
C798 C 0.51286 0.96863 0.11787 0.0
H799 H 0.57244 0.04469 0.12562 0.0
H800 H 0.56353 0.99115 0.12381 0.0
C801 C 0.48754 0.97452 0.11534 0.0
C802 C 0.54294 0.54207 0.13038 0.0
C803 C 0.53733 0.51107 0.12794 0.0
H804 H 0.5233 0.57241 0.13282 0.0
C805 C 0.5057 0.48636 0.12725 0.0
H806 H 0.56679 0.56174 0.13097 0.0
C807 C 0.48059 0.49247 0.12807 0.0
C808 C 0.4862 0.52351 0.12946 0.0
H809 H 0.5002 0.46211 0.12609 0.0
H810 H 0.45676 0.47281 0.12682 0.0
C811 C 0.51782 0.54819 0.13104 0.0
C812 C 0.01539 0.54246 0.11416 0.0
C813 C 0.04021 0.53653 0.10762 0.0
H814 H 0.96591 0.52376 0.12008 0.0
C815 C 0.03247 0.50498 0.10175 0.0
H816 H 0.02004 0.5662 0.11869 0.0
C817 C 1.00101 0.48036 0.10194 0.0
C818 C 0.97618 0.48636 0.10809 0.0
H819 H 0.05066 0.49904 0.09721 0.0
H820 H 0.99624 0.45664 0.09687 0.0
C821 C 0.98399 0.51785 0.11447 0.0
C822 C 0.02765 0.50815 0.40401 0.0
C823 C 0.03033 0.49823 0.36842 0.0
H824 H 0.9996 0.51782 0.44141 0.0
C825 C 1.00437 0.48733 0.34425 0.0
H826 H 0.0473 0.51687 0.42309 0.0
C827 C 0.97708 0.48777 0.35451 0.0
C828 C 0.97479 0.49924 0.38935 0.0
H829 H 1.00545 0.47902 0.31682 0.0
H830 H 0.95793 0.47946 0.33479 0.0
C831 C 1.00023 0.50875 0.41434 0.0
C832 C 0.48177 1.00235 0.39093 0.0
C833 C 0.48785 0.97752 0.38534 0.0
H834 H 0.50044 0.05193 0.39621 0.0
C835 C 0.5195 0.98535 0.38 0.0
H836 H 0.45793 0.99758 0.3951 0.0
C837 C 0.5442 0.01675 0.38107 0.0
C838 C 0.5382 0.04155 0.38749 0.0
H839 H 0.52545 0.96724 0.37479 0.0
H840 H 0.56805 0.02144 0.37739 0.0
C841 C 0.50647 0.03377 0.39197 0.0
C842 C 0.47473 0.45824 0.36998 0.0
C843 C 0.50519 0.46614 0.38194 0.0
H844 H 0.44199 0.47369 0.35771 0.0
C845 C 0.52583 0.49773 0.39219 0.0
H846 H 0.45803 0.43455 0.36133 0.0
C847 C 0.51645 0.52053 0.39019 0.0
C848 C 0.48604 0.51256 0.37797 0.0
H849 H 0.54935 0.50503 0.40199 0.0
H850 H 0.53302 0.54437 0.39861 0.0
C851 C 0.4654 0.48098 0.36792 0.0
C852 C 0.48337 0.00647 0.88457 0.0
C853 C 0.51453 0.03136 0.88047 0.0
H854 H 0.45213 0.9568 0.88847 0.0
C855 C 0.53845 0.02346 0.87656 0.0
H856 H 0.46419 0.01121 0.88758 0.0
C857 C 0.53154 0.99196 0.87739 0.0
C858 C 0.50046 0.96714 0.88222 0.0
H859 H 0.5627 0.04157 0.87259 0.0
H860 H 0.55071 0.98715 0.87481 0.0
C861 C 0.47648 0.97499 0.88544 0.0
C862 C 0.47127 0.48102 0.86588 0.0
C863 C 0.47805 0.51237 0.86977 0.0
H864 H 0.48891 0.44915 0.86101 0.0
C865 C 0.51014 0.53602 0.87142 0.0
H866 H 0.44717 0.46194 0.86447 0.0
C867 C 0.53438 0.52858 0.86983 0.0
C868 C 0.52757 0.4972 0.86647 0.0
H869 H 0.51685 0.56054 0.8738 0.0
H870 H 0.5585 0.54757 0.87175 0.0
C871 C 0.49552 0.47359 0.86423 0.0
C872 C 1.00663 0.48623 0.86812 0.0
C873 C 0.98415 0.49539 0.87566 0.0
H874 H 0.05518 0.50024 0.86062 0.0
C875 C 0.9954 0.52762 0.8827 0.0
H876 H 0.99945 0.46198 0.86221 0.0
C877 C 0.02776 0.54979 0.88182 0.0
C878 C 0.0501 0.54056 0.87415 0.0
H879 H 0.97934 0.53599 0.88913 0.0
H880 H 0.03527 0.57418 0.88762 0.0
C881 C 0.03896 0.5084 0.86732 0.0
C882 C 0.99899 0.53525 0.64358 0.0
C883 C 0.97715 0.5111 0.62045 0.0
H884 H 0.04685 0.56107 0.66298 0.0
C885 C 0.98697 0.49245 0.60138 0.0
H886 H 0.99232 0.55023 0.65833 0.0
C887 C 0.01804 0.49823 0.60468 0.0
C888 C 0.04027 0.5234 0.62627 0.0
H889 H 0.97069 0.47371 0.58335 0.0
H890 H 0.02512 0.48401 0.58898 0.0
C891 C 0.03025 0.54157 0.64605 0.0
C892 C 0.55817 0.01298 0.63666 0.0
C893 C 0.55215 0.03635 0.62282 0.0
H894 H 0.53998 0.96445 0.65019 0.0
C895 C 0.52127 0.02655 0.61032 0.0
H896 H 0.58127 0.01906 0.6468 0.0
C897 C 0.4973 0.9948 0.61215 0.0
C898 C 0.50332 0.97159 0.62638 0.0
H899 H 0.51537 0.04332 0.59887 0.0
H900 H 0.47411 0.98847 0.60197 0.0
C901 C 0.53422 0.98128 0.63853 0.0
C902 C 0.53648 0.50718 0.60705 0.0
C903 C 0.51508 0.4763 0.61923 0.0
H904 H 0.54555 0.55425 0.59735 0.0
C905 C 0.48532 0.47029 0.63155 0.0
H906 H 0.55955 0.51304 0.59701 0.0
C907 C 0.47731 0.49415 0.63178 0.0
C908 C 0.49866 0.52501 0.61955 0.0
H909 H 0.46821 0.44725 0.64176 0.0
H910 H 0.45437 0.48831 0.64226 0.0
C911 C 0.52843 0.53106 0.60722 0.0
C912 C 0.50267 0.23752 0.28269 0.0
C913 C 0.48703 0.25472 0.27882 0.0
H914 H 0.51521 0.20588 0.25705 0.0
C915 C 0.47405 0.25516 0.2443 0.0
H916 H 0.51267 0.23677 0.30918 0.0
C917 C 0.47561 0.23786 0.21446 0.0
C918 C 0.49001 0.21938 0.21838 0.0
H919 H 0.46205 0.26848 0.24076 0.0
H920 H 0.46503 0.23859 0.18842 0.0
C921 C 0.50413 0.21995 0.25275 0.0
C922 C 0.27495 0.5023 0.26177 0.0
C923 C 0.26678 0.4792 0.23419 0.0
H924 H 0.26086 0.51568 0.31194 0.0
C925 C 0.23856 0.4505 0.2381 0.0
H926 H 0.29654 0.5247 0.25941 0.0
C927 C 0.21856 0.44518 0.26813 0.0
C928 C 0.22592 0.46853 0.29519 0.0
H929 H 0.23174 0.43212 0.21761 0.0
H930 H 0.19659 0.42308 0.26912 0.0
C931 C 0.25453 0.49716 0.29175 0.0
C932 C 0.78608 0.28616 0.24959 0.0
C933 C 0.78217 0.27227 0.21451 0.0
H934 H 0.77242 0.27959 0.30676 0.0
C935 C 0.75914 0.2403 0.21035 0.0
H936 H 0.8037 0.31059 0.25389 0.0
C937 C 0.74097 0.22253 0.24067 0.0
C938 C 0.74585 0.23614 0.27605 0.0
H939 H 0.75541 0.22895 0.18365 0.0
H940 H 0.72392 0.19786 0.23674 0.0
C941 C 0.76834 0.26828 0.27998 0.0
C942 C 0.50162 0.7511 0.24281 0.0
C943 C 0.53019 0.77964 0.23975 0.0
H944 H 0.47525 0.70749 0.27256 0.0
C945 C 0.55389 0.78666 0.26622 0.0
H946 H 0.48309 0.7451 0.22265 0.0
C947 C 0.54918 0.76564 0.29512 0.0
C948 C 0.521 0.73667 0.29763 0.0
H949 H 0.57608 0.80855 0.26453 0.0
H950 H 0.56791 0.77163 0.31499 0.0
C951 C 0.49725 0.72959 0.27114 0.0
C952 C 0.74869 0.50621 0.24135 0.0
C953 C 0.75675 0.53356 0.22055 0.0
H954 H 0.76128 0.48572 0.28653 0.0
C955 C 0.78452 0.56147 0.22989 0.0
H956 H 0.72755 0.4843 0.23476 0.0
C957 C 0.80343 0.56227 0.2593 0.0
C958 C 0.79544 0.53517 0.28032 0.0
H959 H 0.79138 0.58309 0.21496 0.0
H960 H 0.82449 0.58432 0.26565 0.0
C961 C 0.76806 0.50693 0.27073 0.0
C962 C 0.28579 0.78894 0.246 0.0
C963 C 0.27366 0.78148 0.28218 0.0
H964 H 0.27736 0.77791 0.18805 0.0
C965 C 0.24356 0.75509 0.28747 0.0
H966 H 0.30875 0.80929 0.24103 0.0
C967 C 0.22585 0.73678 0.25722 0.0
C968 C 0.23751 0.74496 0.22091 0.0
H969 H 0.23367 0.74881 0.31504 0.0
H970 H 0.20254 0.71694 0.26205 0.0
C971 C 0.26777 0.77112 0.2157 0.0
C972 C 0.49949 0.74228 0.77005 0.0
C973 C 0.51485 0.7753 0.7703 0.0
H974 H 0.48891 0.70067 0.73981 0.0
C975 C 0.53017 0.79175 0.73792 0.0
H976 H 0.48719 0.72903 0.79449 0.0
C977 C 0.53166 0.77552 0.70667 0.0
C978 C 0.51712 0.74247 0.70681 0.0
H979 H 0.54216 0.81721 0.73741 0.0
H980 H 0.54478 0.78882 0.68264 0.0
C981 C 0.50025 0.72604 0.73856 0.0
C982 C 0.7656 0.51093 0.7374 0.0
C983 C 0.79574 0.53725 0.73295 0.0
H984 H 0.72263 0.48964 0.76834 0.0
C985 C 0.80716 0.5608 0.76021 0.0
H986 H 0.75635 0.49239 0.71683 0.0
C987 C 0.78833 0.55903 0.79021 0.0
C988 C 0.75713 0.53397 0.79346 0.0
H989 H 0.83063 0.58099 0.75792 0.0
H990 H 0.79802 0.578 0.81015 0.0
C991 C 0.74638 0.50938 0.76716 0.0
C992 C 0.25812 0.79225 0.71928 0.0
C993 C 0.27652 0.78216 0.70034 0.0
H994 H 0.22662 0.78414 0.76471 0.0
C995 C 0.276 0.75465 0.71237 0.0
H996 H 0.25846 0.81361 0.71085 0.0
C997 C 0.25732 0.73747 0.74259 0.0
C998 C 0.2396 0.74803 0.7622 0.0
H999 H 0.29014 0.74655 0.69834 0.0
H1000 H 0.2574 0.71639 0.75136 0.0
C1001 C 0.24018 0.7756 0.75021 0.0
C1002 C 0.50892 0.24011 0.75862 0.0
C1003 C 0.48068 0.21815 0.77616 0.0
H1004 H 0.5307 0.2743 0.71519 0.0
C1005 C 0.45216 0.21388 0.76159 0.0
H1006 H 0.53136 0.24412 0.76893 0.0
C1007 C 0.45177 0.23101 0.73078 0.0
C1008 C 0.4799 0.25319 0.71332 0.0
H1009 H 0.42986 0.19687 0.77365 0.0
H1010 H 0.42922 0.22722 0.72122 0.0
C1011 C 0.50854 0.25752 0.72775 0.0
C1012 C 0.23828 0.51448 0.74921 0.0
C1013 C 0.22355 0.48996 0.72314 0.0
H1014 H 0.26618 0.53102 0.799 0.0
C1015 C 0.22469 0.46224 0.72893 0.0
H1016 H 0.23791 0.53617 0.74542 0.0
C1017 C 0.24023 0.45909 0.75977 0.0
C1018 C 0.25557 0.48376 0.78551 0.0
H1019 H 0.21338 0.44284 0.70963 0.0
H1020 H 0.24103 0.43756 0.76282 0.0
C1021 C 0.25449 0.51158 0.77981 0.0
C1022 C 0.74646 0.23984 0.75418 0.0
C1023 C 0.76352 0.23713 0.7245 0.0
H1024 H 0.74837 0.26116 0.80679 0.0
C1025 C 0.79652 0.25622 0.72454 0.0
H1026 H 0.72109 0.22526 0.75522 0.0
C1027 C 0.81209 0.27721 0.7538 0.0
C1028 C 0.79507 0.27884 0.78421 0.0
H1029 H 0.81025 0.25452 0.70214 0.0
H1030 H 0.83753 0.29135 0.75337 0.0
C1031 C 0.76207 0.26013 0.7839 0.0
C1032 C 0.42525 0.03292 0.28181 0.0
C1033 C 0.41328 0.03767 0.24847 0.0
H1034 H 0.4193 1.00124 0.32565 0.0
C1035 C 0.38284 0.01459 0.23699 0.0
H1036 H 0.44866 0.04961 0.29153 0.0
C1037 C 0.36636 0.98616 0.25623 0.0
C1038 C 0.37956 0.98089 0.28796 0.0
H1039 H 0.37229 0.01774 0.21219 0.0
H1040 H 0.34402 0.96783 0.2455 0.0
C1041 C 0.40842 1.00499 0.30148 0.0
C1042 C 0.42915 0.45335 0.27003 0.0
C1043 C 0.39692 0.43863 0.26161 0.0
H1044 H 0.46767 0.44777 0.28654 0.0
C1045 C 0.37807 0.40592 0.26692 0.0
H1046 H 0.44456 0.47839 0.2661 0.0
C1047 C 0.39173 0.38802 0.27736 0.0
C1048 C 0.42436 0.40264 0.28301 0.0
H1049 H 0.35301 0.39398 0.26135 0.0
H1050 H 0.37699 0.36271 0.27951 0.0
C1051 C 0.44263 0.43559 0.2808 0.0
C1052 C 0.03556 0.40756 0.20557 0.0
C1053 C 0.03762 0.39367 0.23877 0.0
H1054 H 1.00565 0.40779 0.16268 0.0
C1055 C 0.01132 0.36522 0.25034 0.0
H1056 H 0.05504 0.42959 0.19584 0.0
C1057 C 0.98261 0.35314 0.23167 0.0
C1058 C 0.98005 0.36881 0.20053 0.0
H1059 H 0.01233 0.35334 0.27517 0.0
H1060 H 0.96209 0.33255 0.24262 0.0
C1061 C 1.00709 0.39513 0.18654 0.0
C1062 C 0.62682 0.99595 0.24718 0.0
C1063 C 0.59396 0.97692 0.24389 0.0
H1064 H 0.66546 0.0413 0.26154 0.0
C1065 C 0.57471 0.98957 0.25306 0.0
H1066 H 0.64224 0.98683 0.24032 0.0
C1067 C 0.58789 0.02044 0.26529 0.0
C1068 C 0.6207 0.03963 0.26829 0.0
H1069 H 0.54935 0.97584 0.25005 0.0
H1070 H 0.57223 0.02912 0.2729 0.0
C1071 C 0.64008 0.02706 0.25933 0.0
C1072 C 0.58142 0.58189 0.28572 0.0
C1073 C 0.58945 0.6135 0.28264 0.0
H1074 H 0.59408 0.54726 0.27369 0.0
C1075 C 0.61902 0.63571 0.26864 0.0
H1076 H 0.55894 0.56455 0.29729 0.0
C1077 C 0.63945 0.62588 0.25531 0.0
C1078 C 0.63061 0.59385 0.25652 0.0
H1079 H 0.62569 0.66031 0.26665 0.0
H1080 H 0.66151 0.643 0.24275 0.0
C1081 C 0.60183 0.57216 0.27291 0.0
C1082 C 0.98936 0.59412 0.2391 0.0
C1083 C 0.9866 0.60772 0.2722 0.0
H1084 H 0.01886 0.59688 0.19408 0.0
C1085 C 0.01232 0.63668 0.28374 0.0
H1086 H 0.97072 0.5715 0.22959 0.0
C1087 C 0.04053 0.65066 0.26375 0.0
C1088 C 0.04306 0.63643 0.23133 0.0
H1089 H 0.01101 0.64826 0.30861 0.0
H1090 H 0.06046 0.67224 0.27382 0.0
C1091 C 0.01711 0.60851 0.21874 0.0
C1092 C 0.61589 0.97204 0.7464 0.0
C1093 C 0.58291 0.95778 0.74947 0.0
H1094 H 0.65928 0.01439 0.73458 0.0
C1095 C 0.56818 0.97463 0.73802 0.0
H1096 H 0.62792 0.95945 0.75423 0.0
C1097 C 0.58597 1.00553 0.72639 0.0
C1098 C 0.61899 0.02069 0.72643 0.0
H1099 H 0.54297 0.96485 0.74019 0.0
H1100 H 0.5737 0.01788 0.71845 0.0
C1101 C 0.63385 1.00339 0.73507 0.0
C1102 C 0.59962 0.56279 0.70029 0.0
C1103 C 0.62882 0.5781 0.71885 0.0
H1104 H 0.56366 0.5678 0.67356 0.0
C1105 C 0.64762 0.61113 0.71528 0.0
H1106 H 0.58414 0.53762 0.70115 0.0
C1107 C 0.63482 0.62859 0.70041 0.0
C1108 C 0.60379 0.61293 0.68756 0.0
H1109 H 0.67109 0.62379 0.72689 0.0
H1110 H 0.64803 0.65405 0.70187 0.0
C1111 C 0.58745 0.58014 0.68447 0.0
C1112 C 0.04125 0.64682 0.73813 0.0
C1113 C 0.04876 0.62625 0.7566 0.0
H1114 H 1.00553 0.65151 0.70923 0.0
C1115 C 0.02531 0.59494 0.76277 0.0
H1116 H 0.05905 0.67115 0.73349 0.0
C1117 C 0.99505 0.58393 0.74947 0.0
C1118 C 0.9876 0.60402 0.72976 0.0
H1119 H 0.03046 0.57885 0.7777 0.0
H1120 H 0.97782 0.55928 0.75334 0.0
C1121 C 0.01081 0.63566 0.72446 0.0
C1122 C 0.42275 0.99592 0.78313 0.0
C1123 C 0.41637 0.01927 0.77103 0.0
H1124 H 0.41468 0.94966 0.77507 0.0
C1125 C 0.39217 0.01194 0.74546 0.0
H1126 H 0.44107 1.00121 0.80344 0.0
C1127 C 0.37655 0.98208 0.72935 0.0
C1128 C 0.38509 0.95951 0.73887 0.0
H1129 H 0.38679 0.02978 0.73634 0.0
H1130 H 0.3592 0.97729 0.70796 0.0
C1131 C 0.40724 0.96627 0.76724 0.0
C1132 C 0.42554 0.44866 0.73473 0.0
C1133 C 0.39324 0.43214 0.74323 0.0
H1134 H 0.46538 0.4466 0.71614 0.0
C1135 C 0.37607 0.39937 0.73757 0.0
H1136 H 0.44008 0.47371 0.73925 0.0
C1137 C 0.39144 0.38333 0.72626 0.0
C1138 C 0.42402 0.39996 0.71984 0.0
H1139 H 0.35104 0.38597 0.7431 0.0
H1140 H 0.37807 0.35795 0.72364 0.0
C1141 C 0.44051 0.43286 0.72255 0.0
C1142 C 0.04121 0.41684 0.76978 0.0
C1143 C 0.05519 0.4493 0.7624 0.0
H1144 H 0.99913 0.37463 0.78596 0.0
C1145 C 0.0385 0.46486 0.77079 0.0
H1146 H 0.05375 0.40435 0.76417 0.0
C1147 C 1.00768 0.448 0.78311 0.0
C1148 C 0.99277 0.41521 0.7872 0.0
H1149 H 0.04822 0.48971 0.76526 0.0
H1150 H 0.99507 0.46054 0.78808 0.0
C1151 C 0.01008 0.39985 0.78216 0.0
C1152 C 0.56079 0.14694 0.26686 0.0
C1153 C 0.57172 0.15977 0.23163 0.0
H1154 H 0.57118 0.14907 0.3245 0.0
C1155 C 0.60023 0.18826 0.22825 0.0
H1156 H 0.53845 0.12538 0.27019 0.0
C1157 C 0.61928 0.20183 0.25957 0.0
C1158 C 0.60949 0.18717 0.29435 0.0
H1159 H 0.60875 0.19869 0.20124 0.0
H1160 H 0.64264 0.22199 0.25601 0.0
C1161 C 0.57928 0.16078 0.29799 0.0
C1162 C 0.38951 0.60421 0.27906 0.0
C1163 C 0.42132 0.61297 0.28369 0.0
H1164 H 0.34966 0.58387 0.24233 0.0
C1165 C 0.43892 0.61363 0.25272 0.0
H1166 H 0.37556 0.60383 0.30251 0.0
C1167 C 0.42442 0.60291 0.21854 0.0
C1168 C 0.39199 0.59118 0.21463 0.0
H1169 H 0.46371 0.62116 0.25517 0.0
H1170 H 0.43812 0.60157 0.19579 0.0
C1171 C 0.37483 0.59322 0.2446 0.0
C1172 C 0.83131 0.41792 0.27567 0.0
C1173 C 0.8533 0.44705 0.29125 0.0
H1174 H 0.82204 0.38398 0.23272 0.0
C1175 C 0.88295 0.46464 0.27438 0.0
H1176 H 0.80822 0.4039 0.28792 0.0
C1177 C 0.89075 0.45336 0.24331 0.0
C1178 C 0.86915 0.42418 0.22788 0.0
H1179 H 0.90055 0.48721 0.2853 0.0
H1180 H 0.91398 0.46766 0.23144 0.0
C1181 C 0.83914 0.40661 0.24403 0.0
C1182 C 0.43913 0.88092 0.23992 0.0
C1183 C 0.42022 0.86129 0.26856 0.0
H1184 H 0.4643 0.88494 0.19036 0.0
C1185 C 0.4099 0.82887 0.26708 0.0
H1186 H 0.44696 0.90585 0.23978 0.0
C1187 C 0.42 0.81674 0.23845 0.0
C1188 C 0.44041 0.83694 0.21108 0.0
H1189 H 0.395 0.81316 0.28869 0.0
H1190 H 0.41317 0.79206 0.23875 0.0
C1191 C 0.44892 0.86887 0.21144 0.0
C1192 C 0.58782 0.41103 0.20615 0.0
C1193 C 0.60297 0.44153 0.2207 0.0
H1194 H 0.55635 0.36224 0.21724 0.0
C1195 C 0.60351 0.44594 0.2591 0.0
H1196 H 0.58704 0.40732 0.17649 0.0
C1197 C 0.58637 0.42032 0.28248 0.0
C1198 C 0.5677 0.39008 0.26755 0.0
H1199 H 0.61507 0.46944 0.27074 0.0
H1200 H 0.58526 0.42481 0.31161 0.0
C1201 C 0.57021 0.38535 0.2295 0.0
C1202 C 0.15406 0.58909 0.2523 0.0
C1203 C 0.16324 0.59302 0.21505 0.0
H1204 H 0.15364 0.5681 0.30429 0.0
C1205 C 0.1828 0.58182 0.20243 0.0
H1206 H 0.13923 0.59799 0.26256 0.0
C1207 C 0.19026 0.56381 0.22597 0.0
C1208 C 0.17841 0.55716 0.26241 0.0
H1209 H 0.1901 0.58474 0.17369 0.0
H1210 H 0.20328 0.55324 0.21473 0.0
C1211 C 0.16216 0.57185 0.27604 0.0
C1212 C 0.41788 0.78425 0.76541 0.0
C1213 C 0.42596 0.80822 0.79174 0.0
H1214 H 0.40294 0.76888 0.7095 0.0
C1215 C 0.42236 0.834 0.78256 0.0
H1216 H 0.42084 0.76427 0.7716 0.0
C1217 C 0.41379 0.83737 0.74695 0.0
C1218 C 0.40696 0.81429 0.71984 0.0
H1219 H 0.42851 0.85292 0.80219 0.0
H1220 H 0.41394 0.85894 0.74052 0.0
C1221 C 0.40821 0.78717 0.72969 0.0
C1222 C 0.5987 0.40896 0.714 0.0
C1223 C 0.5708 0.38722 0.73182 0.0
H1224 H 0.64386 0.45005 0.71962 0.0
C1225 C 0.56954 0.38692 0.77076 0.0
H1226 H 0.60058 0.40935 0.68408 0.0
C1227 C 0.59425 0.41042 0.7912 0.0
C1228 C 0.62064 0.43439 0.77299 0.0
H1229 H 0.54853 0.37006 0.78539 0.0
H1230 H 0.59156 0.41111 0.8209 0.0
C1231 C 0.62355 0.43224 0.73447 0.0
C1232 C 0.23097 0.60027 0.73189 0.0
C1233 C 0.21028 0.59808 0.70346 0.0
H1234 H 0.24525 0.61328 0.78862 0.0
C1235 C 0.19107 0.61129 0.70882 0.0
H1236 H 0.2458 0.58992 0.72844 0.0
C1237 C 0.19055 0.62416 0.74283 0.0
C1238 C 0.20908 0.62403 0.77254 0.0
H1239 H 0.175 0.60998 0.68731 0.0
H1240 H 0.17474 0.63335 0.746 0.0
C1241 C 0.2304 0.61327 0.76636 0.0
C1242 C 0.57681 0.17416 0.7304 0.0
C1243 C 0.57418 0.17158 0.76915 0.0
H1244 H 0.60389 0.17699 0.68279 0.0
C1245 C 0.59992 0.17521 0.79015 0.0
H1246 H 0.55759 0.17204 0.71347 0.0
C1247 C 0.62656 0.17818 0.77252 0.0
C1248 C 0.62776 0.17742 0.73366 0.0
H1249 H 0.59878 0.17383 0.8201 0.0
H1250 H 0.64519 0.17888 0.7894 0.0
C1251 C 0.60339 0.17706 0.71279 0.0
C1252 C 0.39348 0.58159 0.73763 0.0
C1253 C 0.39613 0.57815 0.77591 0.0
H1254 H 0.41762 0.60205 0.68701 0.0
C1255 C 0.42502 0.59785 0.79361 0.0
H1256 H 0.37145 0.56718 0.72319 0.0
C1257 C 0.45154 0.618 0.77274 0.0
C1258 C 0.4495 0.61855 0.73397 0.0
H1259 H 0.42778 0.59599 0.82311 0.0
H1260 H 0.47398 0.63146 0.78671 0.0
C1261 C 0.41999 0.60138 0.7168 0.0
C1262 C 0.83463 0.45597 0.74144 0.0
C1263 C 0.84145 0.44333 0.71009 0.0
H1264 H 0.82587 0.45241 0.79991 0.0
C1265 C 0.84172 0.415 0.71369 0.0
H1266 H 0.83424 0.47777 0.73971 0.0
C1267 C 0.83736 0.40079 0.74841 0.0
C1268 C 0.832 0.41428 0.77994 0.0
H1269 H 0.84685 0.40467 0.69013 0.0
H1270 H 0.83933 0.37984 0.75087 0.0
C1271 C 0.82958 0.44137 0.77597 0.0
C1272 C 0.54565 0.16374 0.01587 0.0
C1273 C 0.52459 0.16861 0.03734 0.0
H1274 H 0.55812 0.1572 0.96081 0.0
C1275 C 0.50515 0.17812 0.01985 0.0
H1276 H 0.56033 0.1557 0.02881 0.0
C1277 C 0.5038 0.17885 0.98132 0.0
C1278 C 0.52192 0.17017 0.95965 0.0
H1279 H 0.48848 0.18164 0.03588 0.0
H1280 H 0.48614 0.18295 0.96853 0.0
C1281 C 0.54436 0.16458 0.977 0.0
C1282 C 0.37052 0.53782 0.01992 0.0
C1283 C 0.34956 0.51185 0.04147 0.0
H1284 H 0.38627 0.55514 0.96466 0.0
C1285 C 0.32468 0.48569 0.02407 0.0
H1286 H 0.39008 0.5581 0.03285 0.0
C1287 C 0.3225 0.48401 0.98565 0.0
C1288 C 0.34522 0.50841 0.96376 0.0
H1289 H 0.30812 0.46548 0.04017 0.0
H1290 H 0.30424 0.46255 0.97303 0.0
C1291 C 0.36835 0.5361 0.98103 0.0
C1292 C 0.80496 0.3463 0.00963 0.0
C1293 C 0.8215 0.36765 0.03846 0.0
H1294 H 0.80286 0.33682 0.95137 0.0
C1295 C 0.84353 0.39887 0.02899 0.0
H1296 H 0.78749 0.32215 0.01587 0.0
C1297 C 0.85279 0.40698 0.99212 0.0
C1298 C 0.83927 0.38438 0.96397 0.0
H1299 H 0.85625 0.41618 0.05007 0.0
H1300 H 0.8726 0.43008 0.98609 0.0
C1301 C 0.81366 0.3547 0.97258 0.0
C1302 C 0.48365 0.82937 0.02843 0.0
C1303 C 0.51027 0.82953 0.04341 0.0
H1304 H 0.46162 0.83376 0.97885 0.0
C1305 C 0.53143 0.82713 0.0194 0.0
H1306 H 0.46697 0.83122 0.04634 0.0
C1307 C 0.52836 0.82856 0.98123 0.0
C1308 C 0.50397 0.83222 0.96627 0.0
H1309 H 0.55195 0.82688 0.03017 0.0
H1310 H 0.54656 0.82935 0.9635 0.0
C1311 C 0.48053 0.83076 0.98986 0.0
C1312 C 0.64212 0.48244 0.02007 0.0
C1313 C 0.66645 0.50906 0.03773 0.0
H1314 H 0.61971 0.46211 0.96792 0.0
C1315 C 0.69028 0.53283 0.01624 0.0
H1316 H 0.62329 0.46401 0.03617 0.0
C1317 C 0.68816 0.53185 0.97782 0.0
C1318 C 0.66226 0.507 0.96005 0.0
H1319 H 0.70936 0.5535 0.02926 0.0
H1320 H 0.70568 0.55174 0.96206 0.0
C1321 C 0.64004 0.48139 0.98116 0.0
C1322 C 0.18259 0.63842 0.97454 0.0
C1323 C 0.18891 0.66548 0.95436 0.0
H1324 H 0.17272 0.61657 0.02832 0.0
C1325 C 0.19737 0.69345 0.9735 0.0
H1326 H 0.1753 0.6164 0.96029 0.0
C1327 C 0.19582 0.69353 0.01206 0.0
C1328 C 0.18579 0.66564 0.03217 0.0
H1329 H 0.20194 0.71447 0.9585 0.0
H1330 H 0.19932 0.71465 0.02588 0.0
C1331 C 0.18107 0.63851 0.01345 0.0
C1332 C 0.80674 0.50295 0.48243 0.0
C1333 C 0.82412 0.49078 0.46553 0.0
H1334 H 0.79466 0.51647 0.53326 0.0
C1335 C 0.83466 0.47408 0.48727 0.0
H1336 H 0.79824 0.51579 0.46618 0.0
C1337 C 0.83256 0.47441 0.52607 0.0
C1338 C 0.82039 0.49189 0.54305 0.0
H1339 H 0.8482 0.46453 0.47484 0.0
H1340 H 0.84412 0.46462 0.54246 0.0
C1341 C 0.80481 0.50343 0.52092 0.0
C1342 C 0.40199 0.83927 0.4673 0.0
C1343 C 0.36974 0.82292 0.45864 0.0
H1344 H 0.43624 0.86117 0.51045 0.0
C1345 C 0.34794 0.80722 0.48724 0.0
H1346 H 0.4194 0.85149 0.44604 0.0
C1347 C 0.35778 0.81197 0.52425 0.0
C1348 C 0.38942 0.83291 0.53294 0.0
H1349 H 0.32292 0.79438 0.48133 0.0
H1350 H 0.3401 0.80293 0.54588 0.0
C1351 C 0.41173 0.84472 0.50431 0.0
C1352 C 0.50076 0.30793 0.48303 0.0
C1353 C 0.51809 0.33401 0.4599 0.0
H1354 H 0.48592 0.29182 0.53839 0.0
C1355 C 0.53999 0.36296 0.47591 0.0
H1356 H 0.48372 0.28538 0.47136 0.0
C1357 C 0.5413 0.36662 0.5146 0.0
C1358 C 0.5209 0.3413 0.53731 0.0
H1359 H 0.55331 0.38354 0.45867 0.0
H1360 H 0.55552 0.38991 0.5263 0.0
C1361 C 0.50208 0.31157 0.52139 0.0
C1362 C 0.16736 0.48902 0.47757 0.0
C1363 C 0.16093 0.50788 0.45396 0.0
H1364 H 0.17113 0.47677 0.53343 0.0
C1365 C 0.15923 0.53341 0.46904 0.0
H1366 H 0.16878 0.4692 0.46666 0.0
C1367 C 0.16073 0.53784 0.50771 0.0
C1368 C 0.16405 0.51684 0.53133 0.0
H1369 H 0.15381 0.54797 0.45143 0.0
H1370 H 0.15636 0.55569 0.51918 0.0
C1371 C 0.16882 0.4934 0.5158 0.0
C1372 C 0.65131 0.17558 0.4941 0.0
C1373 C 0.67498 0.17874 0.46968 0.0
H1374 H 0.63692 0.17143 0.551 0.0
C1375 C 0.70476 0.18689 0.48377 0.0
H1376 H 0.62801 0.16877 0.48374 0.0
C1377 C 0.70989 0.18843 0.52186 0.0
C1378 C 0.68521 0.18154 0.54658 0.0
H1379 H 0.72329 0.18927 0.4654 0.0
H1380 H 0.73235 0.19218 0.53192 0.0
C1381 C 0.65643 0.17704 0.53253 0.0
C1382 C 0.45055 0.61253 0.53295 0.0
C1383 C 0.46325 0.64466 0.54101 0.0
H1384 H 0.44235 0.57868 0.49069 0.0
C1385 C 0.46777 0.66556 0.51184 0.0
H1386 H 0.44662 0.59576 0.55472 0.0
C1387 C 0.46442 0.65546 0.47504 0.0
C1388 C 0.45702 0.62452 0.46722 0.0
H1389 H 0.4773 0.69041 0.5173 0.0
H1390 H 0.47174 0.67277 0.45306 0.0
C1391 C 0.44797 0.60264 0.49622 0.0
loop_
_geom_bond_atom_site_label_1
_geom_bond_atom_site_label_2
_geom_bond_distance
_geom_bond_site_symmetry_2
_ccdc_geom_bond_type
C0 C1 1.351 . S
C0 N3 1.368 . S
C0 H5 0.931 . S
C1 C0 1.351 . S
C1 N2 1.373 . S
C1 H29 0.930 . S
N2 C1 1.373 . S
N2 C4 1.340 . S
N3 C0 1.368 . S
N3 C4 1.321 . S
N3 Co6 2.135 . S
C4 N2 1.340 . S
C4 N3 1.321 . S
C4 H28 0.930 . S
H5 C0 0.931 . S
Co6 N3 2.135 . S
Co6 N9 2.121 . S
Co6 O14 2.055 . S
Co6 O17 2.039 . S
Co6 N20 2.140 . S
C7 O8 1.227 . S
C7 O17 1.265 . S
O8 C7 1.227 . S
N9 Co6 2.121 . S
N9 C11 1.375 . S
N9 C12 1.313 . S
C10 C11 1.338 . S
C10 N13 1.377 . S
C10 H30 0.930 . S
C11 N9 1.375 . S
C11 C10 1.338 . S
C11 H15 0.931 . S
C12 N9 1.313 . S
C12 N13 1.344 . S
C12 H16 0.930 . S
N13 C10 1.377 . S
N13 C12 1.344 . S
O14 Co6 2.055 . S
O14 C18 1.253 . S
H15 C11 0.931 . S
H16 C12 0.930 . S
O17 Co6 2.039 . S
O17 C7 1.265 . S
C18 O14 1.253 . S
C18 O19 1.227 . S
O19 C18 1.227 . S
N20 Co6 2.140 . S
N20 C23 1.346 . S
N20 C24 1.345 . S
C21 C22 1.387 . S
C21 C25 1.391 . S
C22 C21 1.387 . S
C22 C23 1.369 . S
C22 H31 0.929 . S
C23 N20 1.346 . S
C23 C22 1.369 . S
C23 H26 0.928 . S
C24 N20 1.345 . S
C24 C25 1.371 . S
C24 H27 0.931 . S
C25 C21 1.391 . S
C25 C24 1.371 . S
C25 H32 0.930 . S
H26 C23 0.928 . S
H27 C24 0.931 . S
H28 C4 0.930 . S
H29 C1 0.930 . S
H30 C10 0.930 . S
H31 C22 0.929 . S
H32 C25 0.930 . S
C33 C34 1.351 . S
C33 N36 1.368 . S
C33 H38 0.931 . S
C34 C33 1.351 . S
C34 N35 1.373 . S
C34 H62 0.930 . S
N35 C34 1.373 . S
N35 C37 1.340 . S
N36 C33 1.368 . S
N36 C37 1.321 . S
N36 Co39 2.135 . S
C37 N35 1.340 . S
C37 N36 1.321 . S
C37 H61 0.930 . S
H38 C33 0.931 . S
Co39 N36 2.135 . S
Co39 N42 2.121 . S
Co39 O47 2.055 . S
Co39 O50 2.039 . S
Co39 N53 2.140 . S
C40 O41 1.227 . S
C40 O50 1.265 . S
O41 C40 1.227 . S
N42 Co39 2.121 . S
N42 C44 1.375 . S
N42 C45 1.313 . S
C43 C44 1.338 . S
C43 N46 1.377 . S
C43 H63 0.930 . S
C44 N42 1.375 . S
C44 C43 1.338 . S
C44 H48 0.931 . S
C45 N42 1.313 . S
C45 N46 1.344 . S
C45 H49 0.930 . S
N46 C43 1.377 . S
N46 C45 1.344 . S
O47 Co39 2.055 . S
O47 C51 1.253 . S
H48 C44 0.931 . S
H49 C45 0.930 . S
O50 Co39 2.039 . S
O50 C40 1.265 . S
C51 O47 1.253 . S
C51 O52 1.227 . S
O52 C51 1.227 . S
N53 Co39 2.140 . S
N53 C56 1.346 . S
N53 C57 1.345 . S
C54 C55 1.387 . S
C54 C58 1.391 . S
C55 C54 1.387 . S
C55 C56 1.369 . S
C55 H64 0.929 . S
C56 N53 1.346 . S
C56 C55 1.369 . S
C56 H59 0.928 . S
C57 N53 1.345 . S
C57 C58 1.371 . S
C57 H60 0.931 . S
C58 C54 1.391 . S
C58 C57 1.371 . S
C58 H65 0.930 . S
H59 C56 0.928 . S
H60 C57 0.931 . S
H61 C37 0.930 . S
H62 C34 0.930 . S
H63 C43 0.930 . S
H64 C55 0.929 . S
H65 C58 0.930 . S
C66 C67 1.351 . S
C66 N69 1.368 . S
C66 H71 0.931 . S
C67 C66 1.351 . S
C67 N68 1.373 . S
C67 H95 0.930 . S
N68 C67 1.373 . S
N68 C70 1.340 . S
N69 C66 1.368 . S
N69 C70 1.321 . S
N69 Co72 2.135 . S
C70 N68 1.340 . S
C70 N69 1.321 . S
C70 H94 0.930 . S
H71 C66 0.931 . S
Co72 N69 2.135 . S
Co72 N75 2.121 . S
Co72 O80 2.055 . S
Co72 O83 2.039 . S
Co72 N86 2.140 . S
C73 O74 1.227 . S
C73 O83 1.265 . S
O74 C73 1.227 . S
N75 Co72 2.121 . S
N75 C77 1.375 . S
N75 C78 1.313 . S
C76 C77 1.338 . S
C76 N79 1.377 . S
C76 H96 0.930 . S
C77 N75 1.375 . S
C77 C76 1.338 . S
C77 H81 0.931 . S
C78 N75 1.313 . S
C78 N79 1.344 . S
C78 H82 0.930 . S
N79 C76 1.377 . S
N79 C78 1.344 . S
O80 Co72 2.055 . S
O80 C84 1.253 . S
H81 C77 0.931 . S
H82 C78 0.930 . S
O83 Co72 2.039 . S
O83 C73 1.265 . S
C84 O80 1.253 . S
C84 O85 1.227 . S
O85 C84 1.227 . S
N86 Co72 2.140 . S
N86 C89 1.346 . S
N86 C90 1.345 . S
C87 C88 1.387 . S
C87 C91 1.391 . S
C88 C87 1.387 . S
C88 C89 1.369 . S
C88 H97 0.929 . S
C89 N86 1.346 . S
C89 C88 1.369 . S
C89 H92 0.928 . S
C90 N86 1.345 . S
C90 C91 1.371 . S
C90 H93 0.931 . S
C91 C87 1.391 . S
C91 C90 1.371 . S
C91 H98 0.930 . S
H92 C89 0.928 . S
H93 C90 0.931 . S
H94 C70 0.930 . S
H95 C67 0.930 . S
H96 C76 0.930 . S
H97 C88 0.929 . S
H98 C91 0.930 . S
C99 C100 1.351 . S
C99 N102 1.368 . S
C99 H104 0.931 . S
C100 C99 1.351 . S
C100 N101 1.373 . S
C100 H128 0.930 . S
N101 C100 1.373 . S
N101 C103 1.340 . S
N102 C99 1.368 . S
N102 C103 1.321 . S
N102 Co105 2.135 . S
C103 N101 1.340 . S
C103 N102 1.321 . S
C103 H127 0.930 . S
H104 C99 0.931 . S
Co105 N102 2.135 . S
Co105 N108 2.121 . S
Co105 O113 2.055 . S
Co105 O116 2.039 . S
Co105 N119 2.140 . S
C106 O107 1.227 . S
C106 O116 1.265 . S
O107 C106 1.227 . S
N108 Co105 2.121 . S
N108 C110 1.375 . S
N108 C111 1.313 . S
C109 C110 1.338 . S
C109 N112 1.377 . S
C109 H129 0.930 . S
C110 N108 1.375 . S
C110 C109 1.338 . S
C110 H114 0.931 . S
C111 N108 1.313 . S
C111 N112 1.344 . S
C111 H115 0.930 . S
N112 C109 1.377 . S
N112 C111 1.344 . S
O113 Co105 2.055 . S
O113 C117 1.253 . S
H114 C110 0.931 . S
H115 C111 0.930 . S
O116 Co105 2.039 . S
O116 C106 1.265 . S
C117 O113 1.253 . S
C117 O118 1.227 . S
O118 C117 1.227 . S
N119 Co105 2.140 . S
N119 C122 1.346 . S
N119 C123 1.345 . S
C120 C121 1.387 . S
C120 C124 1.391 . S
C121 C120 1.387 . S
C121 C122 1.369 . S
C121 H130 0.929 . S
C122 N119 1.346 . S
C122 C121 1.369 . S
C122 H125 0.928 . S
C123 N119 1.345 . S
C123 C124 1.371 . S
C123 H126 0.931 . S
C124 C120 1.391 . S
C124 C123 1.371 . S
C124 H131 0.930 . S
H125 C122 0.928 . S
H126 C123 0.931 . S
H127 C103 0.930 . S
H128 C100 0.930 . S
H129 C109 0.930 . S
H130 C121 0.929 . S
H131 C124 0.930 . S
C132 C133 1.351 . S
C132 N135 1.368 . S
C132 H137 0.931 . S
C133 C132 1.351 . S
C133 N134 1.373 . S
C133 H161 0.930 . S
N134 C133 1.373 . S
N134 C136 1.340 . S
N135 C132 1.368 . S
N135 C136 1.321 . S
N135 Co138 2.135 . S
C136 N134 1.340 . S
C136 N135 1.321 . S
C136 H160 0.930 . S
H137 C132 0.931 . S
Co138 N135 2.135 . S
Co138 N141 2.121 . S
Co138 O146 2.055 . S
Co138 O149 2.039 . S
Co138 N152 2.140 . S
C139 O140 1.227 . S
C139 O149 1.265 . S
O140 C139 1.227 . S
N141 Co138 2.121 . S
N141 C143 1.375 . S
N141 C144 1.313 . S
C142 C143 1.338 . S
C142 N145 1.377 . S
C142 H162 0.930 . S
C143 N141 1.375 . S
C143 C142 1.338 . S
C143 H147 0.931 . S
C144 N141 1.313 . S
C144 N145 1.344 . S
C144 H148 0.930 . S
N145 C142 1.377 . S
N145 C144 1.344 . S
O146 Co138 2.055 . S
O146 C150 1.253 . S
H147 C143 0.931 . S
H148 C144 0.930 . S
O149 Co138 2.039 . S
O149 C139 1.265 . S
C150 O146 1.253 . S
C150 O151 1.227 . S
O151 C150 1.227 . S
N152 Co138 2.140 . S
N152 C155 1.346 . S
N152 C156 1.345 . S
C153 C154 1.387 . S
C153 C157 1.391 . S
C154 C153 1.387 . S
C154 C155 1.369 . S
C154 H163 0.929 . S
C155 N152 1.346 . S
C155 C154 1.369 . S
C155 H158 0.928 . S
C156 N152 1.345 . S
C156 C157 1.371 . S
C156 H159 0.931 . S
C157 C153 1.391 . S
C157 C156 1.371 . S
C157 H164 0.930 . S
H158 C155 0.928 . S
H159 C156 0.931 . S
H160 C136 0.930 . S
H161 C133 0.930 . S
H162 C142 0.930 . S
H163 C154 0.929 . S
H164 C157 0.930 . S
C165 C166 1.351 . S
C165 N168 1.368 . S
C165 H170 0.931 . S
C166 C165 1.351 . S
C166 N167 1.373 . S
C166 H194 0.930 . S
N167 C166 1.373 . S
N167 C169 1.340 . S
N168 C165 1.368 . S
N168 C169 1.321 . S
N168 Co171 2.135 . S
C169 N167 1.340 . S
C169 N168 1.321 . S
C169 H193 0.930 . S
H170 C165 0.931 . S
Co171 N168 2.135 . S
Co171 N174 2.121 . S
Co171 O179 2.055 . S
Co171 O182 2.039 . S
Co171 N185 2.140 . S
C172 O173 1.227 . S
C172 O182 1.265 . S
O173 C172 1.227 . S
N174 Co171 2.121 . S
N174 C176 1.375 . S
N174 C177 1.313 . S
C175 C176 1.338 . S
C175 N178 1.377 . S
C175 H195 0.930 . S
C176 N174 1.375 . S
C176 C175 1.338 . S
C176 H180 0.931 . S
C177 N174 1.313 . S
C177 N178 1.344 . S
C177 H181 0.930 . S
N178 C175 1.377 . S
N178 C177 1.344 . S
O179 Co171 2.055 . S
O179 C183 1.253 . S
H180 C176 0.931 . S
H181 C177 0.930 . S
O182 Co171 2.039 . S
O182 C172 1.265 . S
C183 O179 1.253 . S
C183 O184 1.227 . S
O184 C183 1.227 . S
N185 Co171 2.140 . S
N185 C188 1.346 . S
N185 C189 1.345 . S
C186 C187 1.387 . S
C186 C190 1.391 . S
C187 C186 1.387 . S
C187 C188 1.369 . S
C187 H196 0.929 . S
C188 N185 1.346 . S
C188 C187 1.369 . S
C188 H191 0.928 . S
C189 N185 1.345 . S
C189 C190 1.371 . S
C189 H192 0.931 . S
C190 C186 1.391 . S
C190 C189 1.371 . S
C190 H197 0.930 . S
H191 C188 0.928 . S
H192 C189 0.931 . S
H193 C169 0.930 . S
H194 C166 0.930 . S
H195 C175 0.930 . S
H196 C187 0.929 . S
H197 C190 0.930 . S
C198 C199 1.351 . S
C198 N201 1.368 . S
C198 H203 0.931 . S
C199 C198 1.351 . S
C199 N200 1.373 . S
C199 H227 0.930 . S
N200 C199 1.373 . S
N200 C202 1.340 . S
N201 C198 1.368 . S
N201 C202 1.321 . S
N201 Co204 2.135 . S
C202 N200 1.340 . S
C202 N201 1.321 . S
C202 H226 0.930 . S
H203 C198 0.931 . S
Co204 N201 2.135 . S
Co204 N207 2.121 . S
Co204 O212 2.055 . S
Co204 O215 2.039 . S
Co204 N218 2.140 . S
C205 O206 1.227 . S
C205 O215 1.265 . S
O206 C205 1.227 . S
N207 Co204 2.121 . S
N207 C209 1.375 . S
N207 C210 1.313 . S
C208 C209 1.338 . S
C208 N211 1.377 . S
C208 H228 0.930 . S
C209 N207 1.375 . S
C209 C208 1.338 . S
C209 H213 0.931 . S
C210 N207 1.313 . S
C210 N211 1.344 . S
C210 H214 0.930 . S
N211 C208 1.377 . S
N211 C210 1.344 . S
O212 Co204 2.055 . S
O212 C216 1.253 . S
H213 C209 0.931 . S
H214 C210 0.930 . S
O215 Co204 2.039 . S
O215 C205 1.265 . S
C216 O212 1.253 . S
C216 O217 1.227 . S
O217 C216 1.227 . S
N218 Co204 2.140 . S
N218 C221 1.346 . S
N218 C222 1.345 . S
C219 C220 1.387 . S
C219 C223 1.391 . S
C220 C219 1.387 . S
C220 C221 1.369 . S
C220 H229 0.929 . S
C221 N218 1.346 . S
C221 C220 1.369 . S
C221 H224 0.928 . S
C222 N218 1.345 . S
C222 C223 1.371 . S
C222 H225 0.931 . S
C223 C219 1.391 . S
C223 C222 1.371 . S
C223 H230 0.930 . S
H224 C221 0.928 . S
H225 C222 0.931 . S
H226 C202 0.930 . S
H227 C199 0.930 . S
H228 C208 0.930 . S
H229 C220 0.929 . S
H230 C223 0.930 . S
C231 C232 1.351 . S
C231 N234 1.368 . S
C231 H236 0.931 . S
C232 C231 1.351 . S
C232 N233 1.373 . S
C232 H260 0.930 . S
N233 C232 1.373 . S
N233 C235 1.340 . S
N234 C231 1.368 . S
N234 C235 1.321 . S
N234 Co237 2.135 . S
C235 N233 1.340 . S
C235 N234 1.321 . S
C235 H259 0.930 . S
H236 C231 0.931 . S
Co237 N234 2.135 . S
Co237 N240 2.121 . S
Co237 O245 2.055 . S
Co237 O248 2.039 . S
Co237 N251 2.140 . S
C238 O239 1.227 . S
C238 O248 1.265 . S
O239 C238 1.227 . S
N240 Co237 2.121 . S
N240 C242 1.375 . S
N240 C243 1.313 . S
C241 C242 1.338 . S
C241 N244 1.377 . S
C241 H261 0.930 . S
C242 N240 1.375 . S
C242 C241 1.338 . S
C242 H246 0.931 . S
C243 N240 1.313 . S
C243 N244 1.344 . S
C243 H247 0.930 . S
N244 C241 1.377 . S
N244 C243 1.344 . S
O245 Co237 2.055 . S
O245 C249 1.253 . S
H246 C242 0.931 . S
H247 C243 0.930 . S
O248 Co237 2.039 . S
O248 C238 1.265 . S
C249 O245 1.253 . S
C249 O250 1.227 . S
O250 C249 1.227 . S
N251 Co237 2.140 . S
N251 C254 1.346 . S
N251 C255 1.345 . S
C252 C253 1.387 . S
C252 C256 1.391 . S
C253 C252 1.387 . S
C253 C254 1.369 . S
C253 H262 0.929 . S
C254 N251 1.346 . S
C254 C253 1.369 . S
C254 H257 0.928 . S
C255 N251 1.345 . S
C255 C256 1.371 . S
C255 H258 0.931 . S
C256 C252 1.391 . S
C256 C255 1.371 . S
C256 H263 0.930 . S
H257 C254 0.928 . S
H258 C255 0.931 . S
H259 C235 0.930 . S
H260 C232 0.930 . S
H261 C241 0.930 . S
H262 C253 0.929 . S
H263 C256 0.930 . S
C264 C265 1.351 . S
C264 N267 1.368 . S
C264 H269 0.931 . S
C265 C264 1.351 . S
C265 N266 1.373 . S
C265 H293 0.930 . S
N266 C265 1.373 . S
N266 C268 1.340 . S
N267 C264 1.368 . S
N267 C268 1.321 . S
N267 Co270 2.135 . S
C268 N266 1.340 . S
C268 N267 1.321 . S
C268 H292 0.930 . S
H269 C264 0.931 . S
Co270 N267 2.135 . S
Co270 N273 2.121 . S
Co270 O278 2.055 . S
Co270 O281 2.039 . S
Co270 N284 2.140 . S
C271 O272 1.227 . S
C271 O281 1.265 . S
O272 C271 1.227 . S
N273 Co270 2.121 . S
N273 C275 1.375 . S
N273 C276 1.313 . S
C274 C275 1.338 . S
C274 N277 1.377 . S
C274 H294 0.930 . S
C275 N273 1.375 . S
C275 C274 1.338 . S
C275 H279 0.931 . S
C276 N273 1.313 . S
C276 N277 1.344 . S
C276 H280 0.930 . S
N277 C274 1.377 . S
N277 C276 1.344 . S
O278 Co270 2.055 . S
O278 C282 1.253 . S
H279 C275 0.931 . S
H280 C276 0.930 . S
O281 Co270 2.039 . S
O281 C271 1.265 . S
C282 O278 1.253 . S
C282 O283 1.227 . S
O283 C282 1.227 . S
N284 Co270 2.140 . S
N284 C287 1.346 . S
N284 C288 1.345 . S
C285 C286 1.387 . S
C285 C289 1.391 . S
C286 C285 1.387 . S
C286 C287 1.369 . S
C286 H295 0.929 . S
C287 N284 1.346 . S
C287 C286 1.369 . S
C287 H290 0.928 . S
C288 N284 1.345 . S
C288 C289 1.371 . S
C288 H291 0.931 . S
C289 C285 1.391 . S
C289 C288 1.371 . S
C289 H296 0.930 . S
H290 C287 0.928 . S
H291 C288 0.931 . S
H292 C268 0.930 . S
H293 C265 0.930 . S
H294 C274 0.930 . S
H295 C286 0.929 . S
H296 C289 0.930 . S
C297 C298 1.351 . S
C297 N300 1.368 . S
C297 H302 0.931 . S
C298 C297 1.351 . S
C298 N299 1.373 . S
C298 H326 0.930 . S
N299 C298 1.373 . S
N299 C301 1.340 . S
N300 C297 1.368 . S
N300 C301 1.321 . S
N300 Co303 2.135 . S
C301 N299 1.340 . S
C301 N300 1.321 . S
C301 H325 0.930 . S
H302 C297 0.931 . S
Co303 N300 2.135 . S
Co303 N306 2.121 . S
Co303 O311 2.055 . S
Co303 O314 2.039 . S
Co303 N317 2.140 . S
C304 O305 1.227 . S
C304 O314 1.265 . S
O305 C304 1.227 . S
N306 Co303 2.121 . S
N306 C308 1.375 . S
N306 C309 1.313 . S
C307 C308 1.338 . S
C307 N310 1.377 . S
C307 H327 0.930 . S
C308 N306 1.375 . S
C308 C307 1.338 . S
C308 H312 0.931 . S
C309 N306 1.313 . S
C309 N310 1.344 . S
C309 H313 0.930 . S
N310 C307 1.377 . S
N310 C309 1.344 . S
O311 Co303 2.055 . S
O311 C315 1.253 . S
H312 C308 0.931 . S
H313 C309 0.930 . S
O314 Co303 2.039 . S
O314 C304 1.265 . S
C315 O311 1.253 . S
C315 O316 1.227 . S
O316 C315 1.227 . S
N317 Co303 2.140 . S
N317 C320 1.346 . S
N317 C321 1.345 . S
C318 C319 1.387 . S
C318 C322 1.391 . S
C319 C318 1.387 . S
C319 C320 1.369 . S
C319 H328 0.929 . S
C320 N317 1.346 . S
C320 C319 1.369 . S
C320 H323 0.928 . S
C321 N317 1.345 . S
C321 C322 1.371 . S
C321 H324 0.931 . S
C322 C318 1.391 . S
C322 C321 1.371 . S
C322 H329 0.930 . S
H323 C320 0.928 . S
H324 C321 0.931 . S
H325 C301 0.930 . S
H326 C298 0.930 . S
H327 C307 0.930 . S
H328 C319 0.929 . S
H329 C322 0.930 . S
C330 C331 1.351 . S
C330 N333 1.368 . S
C330 H335 0.931 . S
C331 C330 1.351 . S
C331 N332 1.373 . S
C331 H359 0.930 . S
N332 C331 1.373 . S
N332 C334 1.340 . S
N333 C330 1.368 . S
N333 C334 1.321 . S
N333 Co336 2.135 . S
C334 N332 1.340 . S
C334 N333 1.321 . S
C334 H358 0.930 . S
H335 C330 0.931 . S
Co336 N333 2.135 . S
Co336 N339 2.121 . S
Co336 O344 2.055 . S
Co336 O347 2.039 . S
Co336 N350 2.140 . S
C337 O338 1.227 . S
C337 O347 1.265 . S
O338 C337 1.227 . S
N339 Co336 2.121 . S
N339 C341 1.375 . S
N339 C342 1.313 . S
C340 C341 1.338 . S
C340 N343 1.377 . S
C340 H360 0.930 . S
C341 N339 1.375 . S
C341 C340 1.338 . S
C341 H345 0.931 . S
C342 N339 1.313 . S
C342 N343 1.344 . S
C342 H346 0.930 . S
N343 C340 1.377 . S
N343 C342 1.344 . S
O344 Co336 2.055 . S
O344 C348 1.253 . S
H345 C341 0.931 . S
H346 C342 0.930 . S
O347 Co336 2.039 . S
O347 C337 1.265 . S
C348 O344 1.253 . S
C348 O349 1.227 . S
O349 C348 1.227 . S
N350 Co336 2.140 . S
N350 C353 1.346 . S
N350 C354 1.345 . S
C351 C352 1.387 . S
C351 C355 1.391 . S
C352 C351 1.387 . S
C352 C353 1.369 . S
C352 H361 0.929 . S
C353 N350 1.346 . S
C353 C352 1.369 . S
C353 H356 0.928 . S
C354 N350 1.345 . S
C354 C355 1.371 . S
C354 H357 0.931 . S
C355 C351 1.391 . S
C355 C354 1.371 . S
C355 H362 0.930 . S
H356 C353 0.928 . S
H357 C354 0.931 . S
H358 C334 0.930 . S
H359 C331 0.930 . S
H360 C340 0.930 . S
H361 C352 0.929 . S
H362 C355 0.930 . S
C363 C364 1.351 . S
C363 N366 1.368 . S
C363 H368 0.931 . S
C364 C363 1.351 . S
C364 N365 1.373 . S
C364 H392 0.930 . S
N365 C364 1.373 . S
N365 C367 1.340 . S
N366 C363 1.368 . S
N366 C367 1.321 . S
N366 Co369 2.135 . S
C367 N365 1.340 . S
C367 N366 1.321 . S
C367 H391 0.930 . S
H368 C363 0.931 . S
Co369 N366 2.135 . S
Co369 N372 2.121 . S
Co369 O377 2.055 . S
Co369 O380 2.039 . S
Co369 N383 2.140 . S
C370 O371 1.227 . S
C370 O380 1.265 . S
O371 C370 1.227 . S
N372 Co369 2.121 . S
N372 C374 1.375 . S
N372 C375 1.313 . S
C373 C374 1.338 . S
C373 N376 1.377 . S
C373 H393 0.930 . S
C374 N372 1.375 . S
C374 C373 1.338 . S
C374 H378 0.931 . S
C375 N372 1.313 . S
C375 N376 1.344 . S
C375 H379 0.930 . S
N376 C373 1.377 . S
N376 C375 1.344 . S
O377 Co369 2.055 . S
O377 C381 1.253 . S
H378 C374 0.931 . S
H379 C375 0.930 . S
O380 Co369 2.039 . S
O380 C370 1.265 . S
C381 O377 1.253 . S
C381 O382 1.227 . S
O382 C381 1.227 . S
N383 Co369 2.140 . S
N383 C386 1.346 . S
N383 C387 1.345 . S
C384 C385 1.387 . S
C384 C388 1.391 . S
C385 C384 1.387 . S
C385 C386 1.369 . S
C385 H394 0.929 . S
C386 N383 1.346 . S
C386 C385 1.369 . S
C386 H389 0.928 . S
C387 N383 1.345 . S
C387 C388 1.371 . S
C387 H390 0.931 . S
C388 C384 1.391 . S
C388 C387 1.371 . S
C388 H395 0.930 . S
H389 C386 0.928 . S
H390 C387 0.931 . S
H391 C367 0.930 . S
H392 C364 0.930 . S
H393 C373 0.930 . S
H394 C385 0.929 . S
H395 C388 0.930 . S
C396 C397 1.351 . S
C396 N399 1.368 . S
C396 H401 0.931 . S
C397 C396 1.351 . S
C397 N398 1.373 . S
C397 H425 0.930 . S
N398 C397 1.373 . S
N398 C400 1.340 . S
N399 C396 1.368 . S
N399 C400 1.321 . S
N399 Co402 2.135 . S
C400 N398 1.340 . S
C400 N399 1.321 . S
C400 H424 0.930 . S
H401 C396 0.931 . S
Co402 N399 2.135 . S
Co402 N405 2.121 . S
Co402 O410 2.055 . S
Co402 O413 2.039 . S
Co402 N416 2.140 . S
C403 O404 1.227 . S
C403 O413 1.265 . S
O404 C403 1.227 . S
N405 Co402 2.121 . S
N405 C407 1.375 . S
N405 C408 1.313 . S
C406 C407 1.338 . S
C406 N409 1.377 . S
C406 H426 0.930 . S
C407 N405 1.375 . S
C407 C406 1.338 . S
C407 H411 0.931 . S
C408 N405 1.313 . S
C408 N409 1.344 . S
C408 H412 0.930 . S
N409 C406 1.377 . S
N409 C408 1.344 . S
O410 Co402 2.055 . S
O410 C414 1.253 . S
H411 C407 0.931 . S
H412 C408 0.930 . S
O413 Co402 2.039 . S
O413 C403 1.265 . S
C414 O410 1.253 . S
C414 O415 1.227 . S
O415 C414 1.227 . S
N416 Co402 2.140 . S
N416 C419 1.346 . S
N416 C420 1.345 . S
C417 C418 1.387 . S
C417 C421 1.391 . S
C418 C417 1.387 . S
C418 C419 1.369 . S
C418 H427 0.929 . S
C419 N416 1.346 . S
C419 C418 1.369 . S
C419 H422 0.928 . S
C420 N416 1.345 . S
C420 C421 1.371 . S
C420 H423 0.931 . S
C421 C417 1.391 . S
C421 C420 1.371 . S
C421 H428 0.930 . S
H422 C419 0.928 . S
H423 C420 0.931 . S
H424 C400 0.930 . S
H425 C397 0.930 . S
H426 C406 0.930 . S
H427 C418 0.929 . S
H428 C421 0.930 . S
C429 C430 1.351 . S
C429 N432 1.368 . S
C429 H434 0.931 . S
C430 C429 1.351 . S
C430 N431 1.373 . S
C430 H458 0.930 . S
N431 C430 1.373 . S
N431 C433 1.340 . S
N432 C429 1.368 . S
N432 C433 1.321 . S
N432 Co435 2.135 . S
C433 N431 1.340 . S
C433 N432 1.321 . S
C433 H457 0.930 . S
H434 C429 0.931 . S
Co435 N432 2.135 . S
Co435 N438 2.121 . S
Co435 O443 2.055 . S
Co435 O446 2.039 . S
Co435 N449 2.140 . S
C436 O437 1.227 . S
C436 O446 1.265 . S
O437 C436 1.227 . S
N438 Co435 2.121 . S
N438 C440 1.375 . S
N438 C441 1.313 . S
C439 C440 1.338 . S
C439 N442 1.377 . S
C439 H459 0.930 . S
C440 N438 1.375 . S
C440 C439 1.338 . S
C440 H444 0.931 . S
C441 N438 1.313 . S
C441 N442 1.344 . S
C441 H445 0.930 . S
N442 C439 1.377 . S
N442 C441 1.344 . S
O443 Co435 2.055 . S
O443 C447 1.253 . S
H444 C440 0.931 . S
H445 C441 0.930 . S
O446 Co435 2.039 . S
O446 C436 1.265 . S
C447 O443 1.253 . S
C447 O448 1.227 . S
O448 C447 1.227 . S
N449 Co435 2.140 . S
N449 C452 1.346 . S
N449 C453 1.345 . S
C450 C451 1.387 . S
C450 C454 1.391 . S
C451 C450 1.387 . S
C451 C452 1.369 . S
C451 H460 0.929 . S
C452 N449 1.346 . S
C452 C451 1.369 . S
C452 H455 0.928 . S
C453 N449 1.345 . S
C453 C454 1.371 . S
C453 H456 0.931 . S
C454 C450 1.391 . S
C454 C453 1.371 . S
C454 H461 0.930 . S
H455 C452 0.928 . S
H456 C453 0.931 . S
H457 C433 0.930 . S
H458 C430 0.930 . S
H459 C439 0.930 . S
H460 C451 0.929 . S
H461 C454 0.930 . S
C462 C463 1.351 . S
C462 N465 1.368 . S
C462 H467 0.931 . S
C463 C462 1.351 . S
C463 N464 1.373 . S
C463 H491 0.930 . S
N464 C463 1.373 . S
N464 C466 1.340 . S
N465 C462 1.368 . S
N465 C466 1.321 . S
N465 Co468 2.135 . S
C466 N464 1.340 . S
C466 N465 1.321 . S
C466 H490 0.930 . S
H467 C462 0.931 . S
Co468 N465 2.135 . S
Co468 N471 2.121 . S
Co468 O476 2.055 . S
Co468 O479 2.039 . S
Co468 N482 2.140 . S
C469 O470 1.227 . S
C469 O479 1.265 . S
O470 C469 1.227 . S
N471 Co468 2.121 . S
N471 C473 1.375 . S
N471 C474 1.313 . S
C472 C473 1.338 . S
C472 N475 1.377 . S
C472 H492 0.930 . S
C473 N471 1.375 . S
C473 C472 1.338 . S
C473 H477 0.931 . S
C474 N471 1.313 . S
C474 N475 1.344 . S
C474 H478 0.930 . S
N475 C472 1.377 . S
N475 C474 1.344 . S
O476 Co468 2.055 . S
O476 C480 1.253 . S
H477 C473 0.931 . S
H478 C474 0.930 . S
O479 Co468 2.039 . S
O479 C469 1.265 . S
C480 O476 1.253 . S
C480 O481 1.227 . S
O481 C480 1.227 . S
N482 Co468 2.140 . S
N482 C485 1.346 . S
N482 C486 1.345 . S
C483 C484 1.387 . S
C483 C487 1.391 . S
C484 C483 1.387 . S
C484 C485 1.369 . S
C484 H493 0.929 . S
C485 N482 1.346 . S
C485 C484 1.369 . S
C485 H488 0.928 . S
C486 N482 1.345 . S
C486 C487 1.371 . S
C486 H489 0.931 . S
C487 C483 1.391 . S
C487 C486 1.371 . S
C487 H494 0.930 . S
H488 C485 0.928 . S
H489 C486 0.931 . S
H490 C466 0.930 . S
H491 C463 0.930 . S
H492 C472 0.930 . S
H493 C484 0.929 . S
H494 C487 0.930 . S
C495 C496 1.351 . S
C495 N498 1.368 . S
C495 H500 0.931 . S
C496 C495 1.351 . S
C496 N497 1.373 . S
C496 H524 0.930 . S
N497 C496 1.373 . S
N497 C499 1.340 . S
N498 C495 1.368 . S
N498 C499 1.321 . S
N498 Co501 2.135 . S
C499 N497 1.340 . S
C499 N498 1.321 . S
C499 H523 0.930 . S
H500 C495 0.931 . S
Co501 N498 2.135 . S
Co501 N504 2.121 . S
Co501 O509 2.055 . S
Co501 O512 2.039 . S
Co501 N515 2.140 . S
C502 O503 1.227 . S
C502 O512 1.265 . S
O503 C502 1.227 . S
N504 Co501 2.121 . S
N504 C506 1.375 . S
N504 C507 1.313 . S
C505 C506 1.338 . S
C505 N508 1.377 . S
C505 H525 0.930 . S
C506 N504 1.375 . S
C506 C505 1.338 . S
C506 H510 0.931 . S
C507 N504 1.313 . S
C507 N508 1.344 . S
C507 H511 0.930 . S
N508 C505 1.377 . S
N508 C507 1.344 . S
O509 Co501 2.055 . S
O509 C513 1.253 . S
H510 C506 0.931 . S
H511 C507 0.930 . S
O512 Co501 2.039 . S
O512 C502 1.265 . S
C513 O509 1.253 . S
C513 O514 1.227 . S
O514 C513 1.227 . S
N515 Co501 2.140 . S
N515 C518 1.346 . S
N515 C519 1.345 . S
C516 C517 1.387 . S
C516 C520 1.391 . S
C517 C516 1.387 . S
C517 C518 1.369 . S
C517 H526 0.929 . S
C518 N515 1.346 . S
C518 C517 1.369 . S
C518 H521 0.928 . S
C519 N515 1.345 . S
C519 C520 1.371 . S
C519 H522 0.931 . S
C520 C516 1.391 . S
C520 C519 1.371 . S
C520 H527 0.930 . S
H521 C518 0.928 . S
H522 C519 0.931 . S
H523 C499 0.930 . S
H524 C496 0.930 . S
H525 C505 0.930 . S
H526 C517 0.929 . S
H527 C520 0.930 . S
C528 C529 1.351 . S
C528 N531 1.368 . S
C528 H533 0.931 . S
C529 C528 1.351 . S
C529 N530 1.373 . S
C529 H557 0.930 . S
N530 C529 1.373 . S
N530 C532 1.340 . S
N531 C528 1.368 . S
N531 C532 1.321 . S
N531 Co534 2.135 . S
C532 N530 1.340 . S
C532 N531 1.321 . S
C532 H556 0.930 . S
H533 C528 0.931 . S
Co534 N531 2.135 . S
Co534 N537 2.121 . S
Co534 O542 2.055 . S
Co534 O545 2.039 . S
Co534 N548 2.140 . S
C535 O536 1.227 . S
C535 O545 1.265 . S
O536 C535 1.227 . S
N537 Co534 2.121 . S
N537 C539 1.375 . S
N537 C540 1.313 . S
C538 C539 1.338 . S
C538 N541 1.377 . S
C538 H558 0.930 . S
C539 N537 1.375 . S
C539 C538 1.338 . S
C539 H543 0.931 . S
C540 N537 1.313 . S
C540 N541 1.344 . S
C540 H544 0.930 . S
N541 C538 1.377 . S
N541 C540 1.344 . S
O542 Co534 2.055 . S
O542 C546 1.253 . S
H543 C539 0.931 . S
H544 C540 0.930 . S
O545 Co534 2.039 . S
O545 C535 1.265 . S
C546 O542 1.253 . S
C546 O547 1.227 . S
O547 C546 1.227 . S
N548 Co534 2.140 . S
N548 C551 1.346 . S
N548 C552 1.345 . S
C549 C550 1.387 . S
C549 C553 1.391 . S
C550 C549 1.387 . S
C550 C551 1.369 . S
C550 H559 0.929 . S
C551 N548 1.346 . S
C551 C550 1.369 . S
C551 H554 0.928 . S
C552 N548 1.345 . S
C552 C553 1.371 . S
C552 H555 0.931 . S
C553 C549 1.391 . S
C553 C552 1.371 . S
C553 H560 0.930 . S
H554 C551 0.928 . S
H555 C552 0.931 . S
H556 C532 0.930 . S
H557 C529 0.930 . S
H558 C538 0.930 . S
H559 C550 0.929 . S
H560 C553 0.930 . S
C561 C562 1.351 . S
C561 N564 1.368 . S
C561 H566 0.931 . S
C562 C561 1.351 . S
C562 N563 1.373 . S
C562 H590 0.930 . S
N563 C562 1.373 . S
N563 C565 1.340 . S
N564 C561 1.368 . S
N564 C565 1.321 . S
N564 Co567 2.135 . S
C565 N563 1.340 . S
C565 N564 1.321 . S
C565 H589 0.930 . S
H566 C561 0.931 . S
Co567 N564 2.135 . S
Co567 N570 2.121 . S
Co567 O575 2.055 . S
Co567 O578 2.039 . S
Co567 N581 2.140 . S
C568 O569 1.227 . S
C568 O578 1.265 . S
O569 C568 1.227 . S
N570 Co567 2.121 . S
N570 C572 1.375 . S
N570 C573 1.313 . S
C571 C572 1.338 . S
C571 N574 1.377 . S
C571 H591 0.930 . S
C572 N570 1.375 . S
C572 C571 1.338 . S
C572 H576 0.931 . S
C573 N570 1.313 . S
C573 N574 1.344 . S
C573 H577 0.930 . S
N574 C571 1.377 . S
N574 C573 1.344 . S
O575 Co567 2.055 . S
O575 C579 1.253 . S
H576 C572 0.931 . S
H577 C573 0.930 . S
O578 Co567 2.039 . S
O578 C568 1.265 . S
C579 O575 1.253 . S
C579 O580 1.227 . S
O580 C579 1.227 . S
N581 Co567 2.140 . S
N581 C584 1.346 . S
N581 C585 1.345 . S
C582 C583 1.387 . S
C582 C586 1.391 . S
C583 C582 1.387 . S
C583 C584 1.369 . S
C583 H592 0.929 . S
C584 N581 1.346 . S
C584 C583 1.369 . S
C584 H587 0.928 . S
C585 N581 1.345 . S
C585 C586 1.371 . S
C585 H588 0.931 . S
C586 C582 1.391 . S
C586 C585 1.371 . S
C586 H593 0.930 . S
H587 C584 0.928 . S
H588 C585 0.931 . S
H589 C565 0.930 . S
H590 C562 0.930 . S
H591 C571 0.930 . S
H592 C583 0.929 . S
H593 C586 0.930 . S
C594 C595 1.351 . S
C594 N597 1.368 . S
C594 H599 0.931 . S
C595 C594 1.351 . S
C595 N596 1.373 . S
C595 H623 0.930 . S
N596 C595 1.373 . S
N596 C598 1.340 . S
N597 C594 1.368 . S
N597 C598 1.321 . S
N597 Co600 2.135 . S
C598 N596 1.340 . S
C598 N597 1.321 . S
C598 H622 0.930 . S
H599 C594 0.931 . S
Co600 N597 2.135 . S
Co600 N603 2.121 . S
Co600 O608 2.055 . S
Co600 O611 2.039 . S
Co600 N614 2.140 . S
C601 O602 1.227 . S
C601 O611 1.265 . S
O602 C601 1.227 . S
N603 Co600 2.121 . S
N603 C605 1.375 . S
N603 C606 1.313 . S
C604 C605 1.338 . S
C604 N607 1.377 . S
C604 H624 0.930 . S
C605 N603 1.375 . S
C605 C604 1.338 . S
C605 H609 0.931 . S
C606 N603 1.313 . S
C606 N607 1.344 . S
C606 H610 0.930 . S
N607 C604 1.377 . S
N607 C606 1.344 . S
O608 Co600 2.055 . S
O608 C612 1.253 . S
H609 C605 0.931 . S
H610 C606 0.930 . S
O611 Co600 2.039 . S
O611 C601 1.265 . S
C612 O608 1.253 . S
C612 O613 1.227 . S
O613 C612 1.227 . S
N614 Co600 2.140 . S
N614 C617 1.346 . S
N614 C618 1.345 . S
C615 C616 1.387 . S
C615 C619 1.391 . S
C616 C615 1.387 . S
C616 C617 1.369 . S
C616 H625 0.929 . S
C617 N614 1.346 . S
C617 C616 1.369 . S
C617 H620 0.928 . S
C618 N614 1.345 . S
C618 C619 1.371 . S
C618 H621 0.931 . S
C619 C615 1.391 . S
C619 C618 1.371 . S
C619 H626 0.930 . S
H620 C617 0.928 . S
H621 C618 0.931 . S
H622 C598 0.930 . S
H623 C595 0.930 . S
H624 C604 0.930 . S
H625 C616 0.929 . S
H626 C619 0.930 . S
C627 C628 1.351 . S
C627 N630 1.368 . S
C627 H632 0.931 . S
C628 C627 1.351 . S
C628 N629 1.373 . S
C628 H656 0.930 . S
N629 C628 1.373 . S
N629 C631 1.340 . S
N630 C627 1.368 . S
N630 C631 1.321 . S
N630 Co633 2.135 . S
C631 N629 1.340 . S
C631 N630 1.321 . S
C631 H655 0.930 . S
H632 C627 0.931 . S
Co633 N630 2.135 . S
Co633 N636 2.121 . S
Co633 O641 2.055 . S
Co633 O644 2.039 . S
Co633 N647 2.140 . S
C634 O635 1.227 . S
C634 O644 1.265 . S
O635 C634 1.227 . S
N636 Co633 2.121 . S
N636 C638 1.375 . S
N636 C639 1.313 . S
C637 C638 1.338 . S
C637 N640 1.377 . S
C637 H657 0.930 . S
C638 N636 1.375 . S
C638 C637 1.338 . S
C638 H642 0.931 . S
C639 N636 1.313 . S
C639 N640 1.344 . S
C639 H643 0.930 . S
N640 C637 1.377 . S
N640 C639 1.344 . S
O641 Co633 2.055 . S
O641 C645 1.253 . S
H642 C638 0.931 . S
H643 C639 0.930 . S
O644 Co633 2.039 . S
O644 C634 1.265 . S
C645 O641 1.253 . S
C645 O646 1.227 . S
O646 C645 1.227 . S
N647 Co633 2.140 . S
N647 C650 1.346 . S
N647 C651 1.345 . S
C648 C649 1.387 . S
C648 C652 1.391 . S
C649 C648 1.387 . S
C649 C650 1.369 . S
C649 H658 0.929 . S
C650 N647 1.346 . S
C650 C649 1.369 . S
C650 H653 0.928 . S
C651 N647 1.345 . S
C651 C652 1.371 . S
C651 H654 0.931 . S
C652 C648 1.391 . S
C652 C651 1.371 . S
C652 H659 0.930 . S
H653 C650 0.928 . S
H654 C651 0.931 . S
H655 C631 0.930 . S
H656 C628 0.930 . S
H657 C637 0.930 . S
H658 C649 0.929 . S
H659 C652 0.930 . S
C660 C661 1.351 . S
C660 N663 1.368 . S
C660 H665 0.931 . S
C661 C660 1.351 . S
C661 N662 1.373 . S
C661 H689 0.930 . S
N662 C661 1.373 . S
N662 C664 1.340 . S
N663 C660 1.368 . S
N663 C664 1.321 . S
N663 Co666 2.135 . S
C664 N662 1.340 . S
C664 N663 1.321 . S
C664 H688 0.930 . S
H665 C660 0.931 . S
Co666 N663 2.135 . S
Co666 N669 2.121 . S
Co666 O674 2.055 . S
Co666 O677 2.039 . S
Co666 N680 2.140 . S
C667 O668 1.227 . S
C667 O677 1.265 . S
O668 C667 1.227 . S
N669 Co666 2.121 . S
N669 C671 1.375 . S
N669 C672 1.313 . S
C670 C671 1.338 . S
C670 N673 1.377 . S
C670 H690 0.930 . S
C671 N669 1.375 . S
C671 C670 1.338 . S
C671 H675 0.931 . S
C672 N669 1.313 . S
C672 N673 1.344 . S
C672 H676 0.930 . S
N673 C670 1.377 . S
N673 C672 1.344 . S
O674 Co666 2.055 . S
O674 C678 1.253 . S
H675 C671 0.931 . S
H676 C672 0.930 . S
O677 Co666 2.039 . S
O677 C667 1.265 . S
C678 O674 1.253 . S
C678 O679 1.227 . S
O679 C678 1.227 . S
N680 Co666 2.140 . S
N680 C683 1.346 . S
N680 C684 1.345 . S
C681 C682 1.387 . S
C681 C685 1.391 . S
C682 C681 1.387 . S
C682 C683 1.369 . S
C682 H691 0.929 . S
C683 N680 1.346 . S
C683 C682 1.369 . S
C683 H686 0.928 . S
C684 N680 1.345 . S
C684 C685 1.371 . S
C684 H687 0.931 . S
C685 C681 1.391 . S
C685 C684 1.371 . S
C685 H692 0.930 . S
H686 C683 0.928 . S
H687 C684 0.931 . S
H688 C664 0.930 . S
H689 C661 0.930 . S
H690 C670 0.930 . S
H691 C682 0.929 . S
H692 C685 0.930 . S
C693 C694 1.351 . S
C693 N696 1.368 . S
C693 H698 0.931 . S
C694 C693 1.351 . S
C694 N695 1.373 . S
C694 H722 0.930 . S
N695 C694 1.373 . S
N695 C697 1.340 . S
N696 C693 1.368 . S
N696 C697 1.321 . S
N696 Co699 2.135 . S
C697 N695 1.340 . S
C697 N696 1.321 . S
C697 H721 0.930 . S
H698 C693 0.931 . S
Co699 N696 2.135 . S
Co699 N702 2.121 . S
Co699 O707 2.055 . S
Co699 O710 2.039 . S
Co699 N713 2.140 . S
C700 O701 1.227 . S
C700 O710 1.265 . S
O701 C700 1.227 . S
N702 Co699 2.121 . S
N702 C704 1.375 . S
N702 C705 1.313 . S
C703 C704 1.338 . S
C703 N706 1.377 . S
C703 H723 0.930 . S
C704 N702 1.375 . S
C704 C703 1.338 . S
C704 H708 0.931 . S
C705 N702 1.313 . S
C705 N706 1.344 . S
C705 H709 0.930 . S
N706 C703 1.377 . S
N706 C705 1.344 . S
O707 Co699 2.055 . S
O707 C711 1.253 . S
H708 C704 0.931 . S
H709 C705 0.930 . S
O710 Co699 2.039 . S
O710 C700 1.265 . S
C711 O707 1.253 . S
C711 O712 1.227 . S
O712 C711 1.227 . S
N713 Co699 2.140 . S
N713 C716 1.346 . S
N713 C717 1.345 . S
C714 C715 1.387 . S
C714 C718 1.391 . S
C715 C714 1.387 . S
C715 C716 1.369 . S
C715 H724 0.929 . S
C716 N713 1.346 . S
C716 C715 1.369 . S
C716 H719 0.928 . S
C717 N713 1.345 . S
C717 C718 1.371 . S
C717 H720 0.931 . S
C718 C714 1.391 . S
C718 C717 1.371 . S
C718 H725 0.930 . S
H719 C716 0.928 . S
H720 C717 0.931 . S
H721 C697 0.930 . S
H722 C694 0.930 . S
H723 C703 0.930 . S
H724 C715 0.929 . S
H725 C718 0.930 . S
C726 C727 1.351 . S
C726 N729 1.368 . S
C726 H731 0.931 . S
C727 C726 1.351 . S
C727 N728 1.373 . S
C727 H755 0.930 . S
N728 C727 1.373 . S
N728 C730 1.340 . S
N729 C726 1.368 . S
N729 C730 1.321 . S
N729 Co732 2.135 . S
C730 N728 1.340 . S
C730 N729 1.321 . S
C730 H754 0.930 . S
H731 C726 0.931 . S
Co732 N729 2.135 . S
Co732 N735 2.121 . S
Co732 O740 2.055 . S
Co732 O743 2.039 . S
Co732 N746 2.140 . S
C733 O734 1.227 . S
C733 O743 1.265 . S
O734 C733 1.227 . S
N735 Co732 2.121 . S
N735 C737 1.375 . S
N735 C738 1.313 . S
C736 C737 1.338 . S
C736 N739 1.377 . S
C736 H756 0.930 . S
C737 N735 1.375 . S
C737 C736 1.338 . S
C737 H741 0.931 . S
C738 N735 1.313 . S
C738 N739 1.344 . S
C738 H742 0.930 . S
N739 C736 1.377 . S
N739 C738 1.344 . S
O740 Co732 2.055 . S
O740 C744 1.253 . S
H741 C737 0.931 . S
H742 C738 0.930 . S
O743 Co732 2.039 . S
O743 C733 1.265 . S
C744 O740 1.253 . S
C744 O745 1.227 . S
O745 C744 1.227 . S
N746 Co732 2.140 . S
N746 C749 1.346 . S
N746 C750 1.345 . S
C747 C748 1.387 . S
C747 C751 1.391 . S
C748 C747 1.387 . S
C748 C749 1.369 . S
C748 H757 0.929 . S
C749 N746 1.346 . S
C749 C748 1.369 . S
C749 H752 0.928 . S
C750 N746 1.345 . S
C750 C751 1.371 . S
C750 H753 0.931 . S
C751 C747 1.391 . S
C751 C750 1.371 . S
C751 H758 0.930 . S
H752 C749 0.928 . S
H753 C750 0.931 . S
H754 C730 0.930 . S
H755 C727 0.930 . S
H756 C736 0.930 . S
H757 C748 0.929 . S
H758 C751 0.930 . S
C759 C760 1.351 . S
C759 N762 1.368 . S
C759 H764 0.931 . S
C760 C759 1.351 . S
C760 N761 1.373 . S
C760 H788 0.930 . S
N761 C760 1.373 . S
N761 C763 1.340 . S
N762 C759 1.368 . S
N762 C763 1.321 . S
N762 Co765 2.135 . S
C763 N761 1.340 . S
C763 N762 1.321 . S
C763 H787 0.930 . S
H764 C759 0.931 . S
Co765 N762 2.135 . S
Co765 N768 2.121 . S
Co765 O773 2.055 . S
Co765 O776 2.039 . S
Co765 N779 2.140 . S
C766 O767 1.227 . S
C766 O776 1.265 . S
O767 C766 1.227 . S
N768 Co765 2.121 . S
N768 C770 1.375 . S
N768 C771 1.313 . S
C769 C770 1.338 . S
C769 N772 1.377 . S
C769 H789 0.930 . S
C770 N768 1.375 . S
C770 C769 1.338 . S
C770 H774 0.931 . S
C771 N768 1.313 . S
C771 N772 1.344 . S
C771 H775 0.930 . S
N772 C769 1.377 . S
N772 C771 1.344 . S
O773 Co765 2.055 . S
O773 C777 1.253 . S
H774 C770 0.931 . S
H775 C771 0.930 . S
O776 Co765 2.039 . S
O776 C766 1.265 . S
C777 O773 1.253 . S
C777 O778 1.227 . S
O778 C777 1.227 . S
N779 Co765 2.140 . S
N779 C782 1.346 . S
N779 C783 1.345 . S
C780 C781 1.387 . S
C780 C784 1.391 . S
C781 C780 1.387 . S
C781 C782 1.369 . S
C781 H790 0.929 . S
C782 N779 1.346 . S
C782 C781 1.369 . S
C782 H785 0.928 . S
C783 N779 1.345 . S
C783 C784 1.371 . S
C783 H786 0.931 . S
C784 C780 1.391 . S
C784 C783 1.371 . S
C784 H791 0.930 . S
H785 C782 0.928 . S
H786 C783 0.931 . S
H787 C763 0.930 . S
H788 C760 0.930 . S
H789 C769 0.930 . S
H790 C781 0.929 . S
H791 C784 0.930 . S
C792 C793 1.387 . S
C792 H796 0.950 . S
C792 C801 1.390 1_545 S
C793 C792 1.387 . S
C793 C795 1.387 . S
H794 C801 0.950 . S
C795 C793 1.387 . S
C795 C797 1.390 1_545 S
C795 H799 0.950 . S
H796 C792 0.950 . S
C797 C795 1.390 1_565 S
C797 C798 1.387 . S
C797 H800 0.950 . S
C798 C797 1.387 . S
C798 C801 1.387 . S
H799 C795 0.950 . S
H800 C797 0.950 . S
C801 C792 1.390 1_565 S
C801 H794 0.950 . S
C801 C798 1.387 . S
C802 C803 1.387 . S
C802 H806 0.950 . S
C802 C811 1.390 . S
C803 C802 1.387 . S
C803 C805 1.387 . S
H804 C811 0.950 . S
C805 C803 1.387 . S
C805 C807 1.390 . S
C805 H809 0.950 . S
H806 C802 0.950 . S
C807 C805 1.390 . S
C807 C808 1.387 . S
C807 H810 0.950 . S
C808 C807 1.387 . S
C808 C811 1.387 . S
H809 C805 0.950 . S
H810 C807 0.950 . S
C811 C802 1.390 . S
C811 H804 0.950 . S
C811 C808 1.387 . S
C812 C813 1.387 . S
C812 H816 0.950 . S
C812 C821 1.390 1_455 S
C813 C812 1.387 . S
C813 C815 1.387 . S
H814 C821 0.950 . S
C815 C813 1.387 . S
C815 C817 1.390 1_455 S
C815 H819 0.950 . S
H816 C812 0.950 . S
C817 C815 1.390 1_655 S
C817 C818 1.387 . S
C817 H820 0.950 . S
C818 C817 1.387 . S
C818 C821 1.387 . S
H819 C815 0.950 . S
H820 C817 0.950 . S
C821 C812 1.390 1_655 S
C821 H814 0.950 . S
C821 C818 1.387 . S
C822 C823 1.387 . S
C822 H826 0.950 . S
C822 C831 1.390 1_455 S
C823 C822 1.387 . S
C823 C825 1.387 . S
H824 C831 0.950 . S
C825 C823 1.387 . S
C825 C827 1.390 1_455 S
C825 H829 0.950 . S
H826 C822 0.950 . S
C827 C825 1.390 1_655 S
C827 C828 1.387 . S
C827 H830 0.950 . S
C828 C827 1.387 . S
C828 C831 1.387 . S
H829 C825 0.950 . S
H830 C827 0.950 . S
C831 C822 1.390 1_655 S
C831 H824 0.950 . S
C831 C828 1.387 . S
C832 C833 1.387 . S
C832 H836 0.950 . S
C832 C841 1.390 1_565 S
C833 C832 1.387 . S
C833 C835 1.387 . S
H834 C841 0.950 . S
C835 C833 1.387 . S
C835 C837 1.390 1_565 S
C835 H839 0.950 . S
H836 C832 0.950 . S
C837 C835 1.390 1_545 S
C837 C838 1.387 . S
C837 H840 0.950 . S
C838 C837 1.387 . S
C838 C841 1.387 . S
H839 C835 0.950 . S
H840 C837 0.950 . S
C841 C832 1.390 1_545 S
C841 H834 0.950 . S
C841 C838 1.387 . S
C842 C843 1.387 . S
C842 H846 0.950 . S
C842 C851 1.390 . S
C843 C842 1.387 . S
C843 C845 1.387 . S
H844 C851 0.950 . S
C845 C843 1.387 . S
C845 C847 1.390 . S
C845 H849 0.950 . S
H846 C842 0.950 . S
C847 C845 1.390 . S
C847 C848 1.387 . S
C847 H850 0.950 . S
C848 C847 1.387 . S
C848 C851 1.387 . S
H849 C845 0.950 . S
H850 C847 0.950 . S
C851 C842 1.390 . S
C851 H844 0.950 . S
C851 C848 1.387 . S
C852 C853 1.387 . S
C852 H856 0.950 . S
C852 C861 1.390 1_545 S
C853 C852 1.387 . S
C853 C855 1.387 . S
H854 C861 0.950 . S
C855 C853 1.387 . S
C855 C857 1.390 1_545 S
C855 H859 0.950 . S
H856 C852 0.950 . S
C857 C855 1.390 1_565 S
C857 C858 1.387 . S
C857 H860 0.950 . S
C858 C857 1.387 . S
C858 C861 1.387 . S
H859 C855 0.950 . S
H860 C857 0.950 . S
C861 C852 1.390 1_565 S
C861 H854 0.950 . S
C861 C858 1.387 . S
C862 C863 1.387 . S
C862 H866 0.950 . S
C862 C871 1.390 . S
C863 C862 1.387 . S
C863 C865 1.387 . S
H864 C871 0.950 . S
C865 C863 1.387 . S
C865 C867 1.390 . S
C865 H869 0.950 . S
H866 C862 0.950 . S
C867 C865 1.390 . S
C867 C868 1.387 . S
C867 H870 0.950 . S
C868 C867 1.387 . S
C868 C871 1.387 . S
H869 C865 0.950 . S
H870 C867 0.950 . S
C871 C862 1.390 . S
C871 H864 0.950 . S
C871 C868 1.387 . S
C872 C873 1.387 . S
C872 H876 0.950 . S
C872 C881 1.390 1_655 S
C873 C872 1.387 . S
C873 C875 1.387 . S
H874 C881 0.950 . S
C875 C873 1.387 . S
C875 C877 1.390 1_655 S
C875 H879 0.950 . S
H876 C872 0.950 . S
C877 C875 1.390 1_455 S
C877 C878 1.387 . S
C877 H880 0.950 . S
C878 C877 1.387 . S
C878 C881 1.387 . S
H879 C875 0.950 . S
H880 C877 0.950 . S
C881 C872 1.390 1_455 S
C881 H874 0.950 . S
C881 C878 1.387 . S
C882 C883 1.387 . S
C882 H886 0.950 . S
C882 C891 1.390 1_655 S
C883 C882 1.387 . S
C883 C885 1.387 . S
H884 C891 0.950 . S
C885 C883 1.387 . S
C885 C887 1.390 1_655 S
C885 H889 0.950 . S
H886 C882 0.950 . S
C887 C885 1.390 1_455 S
C887 C888 1.387 . S
C887 H890 0.950 . S
C888 C887 1.387 . S
C888 C891 1.387 . S
H889 C885 0.950 . S
H890 C887 0.950 . S
C891 C882 1.390 1_455 S
C891 H884 0.950 . S
C891 C888 1.387 . S
C892 C893 1.387 . S
C892 H896 0.950 . S
C892 C901 1.390 1_545 S
C893 C892 1.387 . S
C893 C895 1.387 . S
H894 C901 0.950 . S
C895 C893 1.387 . S
C895 C897 1.390 1_545 S
C895 H899 0.950 . S
H896 C892 0.950 . S
C897 C895 1.390 1_565 S
C897 C898 1.387 . S
C897 H900 0.950 . S
C898 C897 1.387 . S
C898 C901 1.387 . S
H899 C895 0.950 . S
H900 C897 0.950 . S
C901 C892 1.390 1_565 S
C901 H894 0.950 . S
C901 C898 1.387 . S
C902 C903 1.387 . S
C902 H906 0.950 . S
C902 C911 1.390 . S
C903 C902 1.387 . S
C903 C905 1.387 . S
H904 C911 0.950 . S
C905 C903 1.387 . S
C905 C907 1.390 . S
C905 H909 0.950 . S
H906 C902 0.950 . S
C907 C905 1.390 . S
C907 C908 1.387 . S
C907 H910 0.950 . S
C908 C907 1.387 . S
C908 C911 1.387 . S
H909 C905 0.950 . S
H910 C907 0.950 . S
C911 C902 1.390 . S
C911 H904 0.950 . S
C911 C908 1.387 . S
C912 C913 1.387 . S
C912 H916 0.950 . S
C912 C921 1.390 . S
C913 C912 1.387 . S
C913 C915 1.387 . S
H914 C921 0.950 . S
C915 C913 1.387 . S
C915 C917 1.390 . S
C915 H919 0.950 . S
H916 C912 0.950 . S
C917 C915 1.390 . S
C917 C918 1.387 . S
C917 H920 0.950 . S
C918 C917 1.387 . S
C918 C921 1.387 . S
H919 C915 0.950 . S
H920 C917 0.950 . S
C921 C912 1.390 . S
C921 H914 0.950 . S
C921 C918 1.387 . S
C922 C923 1.387 . S
C922 H926 0.950 . S
C922 C931 1.390 . S
C923 C922 1.387 . S
C923 C925 1.387 . S
H924 C931 0.950 . S
C925 C923 1.387 . S
C925 C927 1.390 . S
C925 H929 0.950 . S
H926 C922 0.950 . S
C927 C925 1.390 . S
C927 C928 1.387 . S
C927 H930 0.950 . S
C928 C927 1.387 . S
C928 C931 1.387 . S
H929 C925 0.950 . S
H930 C927 0.950 . S
C931 C922 1.390 . S
C931 H924 0.950 . S
C931 C928 1.387 . S
C932 C933 1.387 . S
C932 H936 0.950 . S
C932 C941 1.390 . S
C933 C932 1.387 . S
C933 C935 1.387 . S
H934 C941 0.950 . S
C935 C933 1.387 . S
C935 C937 1.390 . S
C935 H939 0.950 . S
H936 C932 0.950 . S
C937 C935 1.390 . S
C937 C938 1.387 . S
C937 H940 0.950 . S
C938 C937 1.387 . S
C938 C941 1.387 . S
H939 C935 0.950 . S
H940 C937 0.950 . S
C941 C932 1.390 . S
C941 H934 0.950 . S
C941 C938 1.387 . S
C942 C943 1.387 . S
C942 H946 0.950 . S
C942 C951 1.390 . S
C943 C942 1.387 . S
C943 C945 1.387 . S
H944 C951 0.950 . S
C945 C943 1.387 . S
C945 C947 1.390 . S
C945 H949 0.950 . S
H946 C942 0.950 . S
C947 C945 1.390 . S
C947 C948 1.387 . S
C947 H950 0.950 . S
C948 C947 1.387 . S
C948 C951 1.387 . S
H949 C945 0.950 . S
H950 C947 0.950 . S
C951 C942 1.390 . S
C951 H944 0.950 . S
C951 C948 1.387 . S
C952 C953 1.387 . S
C952 H956 0.950 . S
C952 C961 1.390 . S
C953 C952 1.387 . S
C953 C955 1.387 . S
H954 C961 0.950 . S
C955 C953 1.387 . S
C955 C957 1.390 . S
C955 H959 0.950 . S
H956 C952 0.950 . S
C957 C955 1.390 . S
C957 C958 1.387 . S
C957 H960 0.950 . S
C958 C957 1.387 . S
C958 C961 1.387 . S
H959 C955 0.950 . S
H960 C957 0.950 . S
C961 C952 1.390 . S
C961 H954 0.950 . S
C961 C958 1.387 . S
C962 C963 1.387 . S
C962 H966 0.950 . S
C962 C971 1.390 . S
C963 C962 1.387 . S
C963 C965 1.387 . S
H964 C971 0.950 . S
C965 C963 1.387 . S
C965 C967 1.390 . S
C965 H969 0.950 . S
H966 C962 0.950 . S
C967 C965 1.390 . S
C967 C968 1.387 . S
C967 H970 0.950 . S
C968 C967 1.387 . S
C968 C971 1.387 . S
H969 C965 0.950 . S
H970 C967 0.950 . S
C971 C962 1.390 . S
C971 H964 0.950 . S
C971 C968 1.387 . S
C972 C973 1.387 . S
C972 H976 0.950 . S
C972 C981 1.390 . S
C973 C972 1.387 . S
C973 C975 1.387 . S
H974 C981 0.950 . S
C975 C973 1.387 . S
C975 C977 1.390 . S
C975 H979 0.950 . S
H976 C972 0.950 . S
C977 C975 1.390 . S
C977 C978 1.387 . S
C977 H980 0.950 . S
C978 C977 1.387 . S
C978 C981 1.387 . S
H979 C975 0.950 . S
H980 C977 0.950 . S
C981 C972 1.390 . S
C981 H974 0.950 . S
C981 C978 1.387 . S
C982 C983 1.387 . S
C982 H986 0.950 . S
C982 C991 1.390 . S
C983 C982 1.387 . S
C983 C985 1.387 . S
H984 C991 0.950 . S
C985 C983 1.387 . S
C985 C987 1.390 . S
C985 H989 0.950 . S
H986 C982 0.950 . S
C987 C985 1.390 . S
C987 C988 1.387 . S
C987 H990 0.950 . S
C988 C987 1.387 . S
C988 C991 1.387 . S
H989 C985 0.950 . S
H990 C987 0.950 . S
C991 C982 1.390 . S
C991 H984 0.950 . S
C991 C988 1.387 . S
C992 C993 1.387 . S
C992 H996 0.950 . S
C992 C1001 1.390 . S
C993 C992 1.387 . S
C993 C995 1.387 . S
H994 C1001 0.950 . S
C995 C993 1.387 . S
C995 C997 1.390 . S
C995 H999 0.950 . S
H996 C992 0.950 . S
C997 C995 1.390 . S
C997 C998 1.387 . S
C997 H1000 0.950 . S
C998 C997 1.387 . S
C998 C1001 1.387 . S
H999 C995 0.950 . S
H1000 C997 0.950 . S
C1001 C992 1.390 . S
C1001 H994 0.950 . S
C1001 C998 1.387 . S
C1002 C1003 1.387 . S
C1002 H1006 0.950 . S
C1002 C1011 1.390 . S
C1003 C1002 1.387 . S
C1003 C1005 1.387 . S
H1004 C1011 0.950 . S
C1005 C1003 1.387 . S
C1005 C1007 1.390 . S
C1005 H1009 0.950 . S
H1006 C1002 0.950 . S
C1007 C1005 1.390 . S
C1007 C1008 1.387 . S
C1007 H1010 0.950 . S
C1008 C1007 1.387 . S
C1008 C1011 1.387 . S
H1009 C1005 0.950 . S
H1010 C1007 0.950 . S
C1011 C1002 1.390 . S
C1011 H1004 0.950 . S
C1011 C1008 1.387 . S
C1012 C1013 1.387 . S
C1012 H1016 0.950 . S
C1012 C1021 1.390 . S
C1013 C1012 1.387 . S
C1013 C1015 1.387 . S
H1014 C1021 0.950 . S
C1015 C1013 1.387 . S
C1015 C1017 1.390 . S
C1015 H1019 0.950 . S
H1016 C1012 0.950 . S
C1017 C1015 1.390 . S
C1017 C1018 1.387 . S
C1017 H1020 0.950 . S
C1018 C1017 1.387 . S
C1018 C1021 1.387 . S
H1019 C1015 0.950 . S
H1020 C1017 0.950 . S
C1021 C1012 1.390 . S
C1021 H1014 0.950 . S
C1021 C1018 1.387 . S
C1022 C1023 1.387 . S
C1022 H1026 0.950 . S
C1022 C1031 1.390 . S
C1023 C1022 1.387 . S
C1023 C1025 1.387 . S
H1024 C1031 0.950 . S
C1025 C1023 1.387 . S
C1025 C1027 1.390 . S
C1025 H1029 0.950 . S
H1026 C1022 0.950 . S
C1027 C1025 1.390 . S
C1027 C1028 1.387 . S
C1027 H1030 0.950 . S
C1028 C1027 1.387 . S
C1028 C1031 1.387 . S
H1029 C1025 0.950 . S
H1030 C1027 0.950 . S
C1031 C1022 1.390 . S
C1031 H1024 0.950 . S
C1031 C1028 1.387 . S
C1032 C1033 1.387 . S
C1032 H1036 0.950 . S
C1032 C1041 1.390 1_545 S
C1033 C1032 1.387 . S
C1033 C1035 1.387 . S
H1034 C1041 0.950 . S
C1035 C1033 1.387 . S
C1035 C1037 1.390 1_545 S
C1035 H1039 0.950 . S
H1036 C1032 0.950 . S
C1037 C1035 1.390 1_565 S
C1037 C1038 1.387 . S
C1037 H1040 0.950 . S
C1038 C1037 1.387 . S
C1038 C1041 1.387 . S
H1039 C1035 0.950 . S
H1040 C1037 0.950 . S
C1041 C1032 1.390 1_565 S
C1041 H1034 0.950 . S
C1041 C1038 1.387 . S
C1042 C1043 1.387 . S
C1042 H1046 0.950 . S
C1042 C1051 1.390 . S
C1043 C1042 1.387 . S
C1043 C1045 1.387 . S
H1044 C1051 0.950 . S
C1045 C1043 1.387 . S
C1045 C1047 1.390 . S
C1045 H1049 0.950 . S
H1046 C1042 0.950 . S
C1047 C1045 1.390 . S
C1047 C1048 1.387 . S
C1047 H1050 0.950 . S
C1048 C1047 1.387 . S
C1048 C1051 1.387 . S
H1049 C1045 0.950 . S
H1050 C1047 0.950 . S
C1051 C1042 1.390 . S
C1051 H1044 0.950 . S
C1051 C1048 1.387 . S
C1052 C1053 1.387 . S
C1052 H1056 0.950 . S
C1052 C1061 1.419 . S
C1053 C1052 1.387 . S
C1053 C1055 1.361 1_455 S
H1054 C1061 0.948 . S
C1055 C1053 1.361 1_655 S
C1055 C1057 1.419 . S
C1055 H1059 0.948 . S
H1056 C1052 0.950 . S
C1057 C1055 1.419 . S
C1057 C1058 1.387 . S
C1057 H1060 0.950 . S
C1058 C1057 1.387 . S
C1058 C1061 1.361 1_655 S
H1059 C1055 0.948 . S
H1060 C1057 0.950 . S
C1061 C1052 1.419 . S
C1061 H1054 0.948 . S
C1061 C1058 1.361 1_455 S
C1062 C1063 1.387 . S
C1062 H1066 0.950 . S
C1062 C1071 1.390 1_565 S
C1063 C1062 1.387 . S
C1063 C1065 1.387 . S
H1064 C1071 0.950 . S
C1065 C1063 1.387 . S
C1065 C1067 1.390 1_565 S
C1065 H1069 0.950 . S
H1066 C1062 0.950 . S
C1067 C1065 1.390 1_545 S
C1067 C1068 1.387 . S
C1067 H1070 0.950 . S
C1068 C1067 1.387 . S
C1068 C1071 1.387 . S
H1069 C1065 0.950 . S
H1070 C1067 0.950 . S
C1071 C1062 1.390 1_545 S
C1071 H1064 0.950 . S
C1071 C1068 1.387 . S
C1072 C1073 1.387 . S
C1072 H1076 0.950 . S
C1072 C1081 1.390 . S
C1073 C1072 1.387 . S
C1073 C1075 1.387 . S
H1074 C1081 0.950 . S
C1075 C1073 1.387 . S
C1075 C1077 1.390 . S
C1075 H1079 0.950 . S
H1076 C1072 0.950 . S
C1077 C1075 1.390 . S
C1077 C1078 1.387 . S
C1077 H1080 0.950 . S
C1078 C1077 1.387 . S
C1078 C1081 1.387 . S
H1079 C1075 0.950 . S
H1080 C1077 0.950 . S
C1081 C1072 1.390 . S
C1081 H1074 0.950 . S
C1081 C1078 1.387 . S
C1082 C1083 1.387 . S
C1082 H1086 0.950 . S
C1082 C1091 1.390 1_655 S
C1083 C1082 1.387 . S
C1083 C1085 1.387 . S
H1084 C1091 0.950 . S
C1085 C1083 1.387 . S
C1085 C1087 1.390 1_655 S
C1085 H1089 0.950 . S
H1086 C1082 0.950 . S
C1087 C1085 1.390 1_455 S
C1087 C1088 1.387 . S
C1087 H1090 0.950 . S
C1088 C1087 1.387 . S
C1088 C1091 1.387 . S
H1089 C1085 0.950 . S
H1090 C1087 0.950 . S
C1091 C1082 1.390 1_455 S
C1091 H1084 0.950 . S
C1091 C1088 1.387 . S
C1092 C1093 1.387 . S
C1092 H1096 0.950 . S
C1092 C1101 1.390 1_565 S
C1093 C1092 1.387 . S
C1093 C1095 1.387 . S
H1094 C1101 0.950 . S
C1095 C1093 1.387 . S
C1095 C1097 1.390 1_565 S
C1095 H1099 0.950 . S
H1096 C1092 0.950 . S
C1097 C1095 1.390 1_545 S
C1097 C1098 1.387 . S
C1097 H1100 0.950 . S
C1098 C1097 1.387 . S
C1098 C1101 1.387 . S
H1099 C1095 0.950 . S
H1100 C1097 0.950 . S
C1101 C1092 1.390 1_545 S
C1101 H1094 0.950 . S
C1101 C1098 1.387 . S
C1102 C1103 1.387 . S
C1102 H1106 0.950 . S
C1102 C1111 1.390 . S
C1103 C1102 1.387 . S
C1103 C1105 1.387 . S
H1104 C1111 0.950 . S
C1105 C1103 1.387 . S
C1105 C1107 1.390 . S
C1105 H1109 0.950 . S
H1106 C1102 0.950 . S
C1107 C1105 1.390 . S
C1107 C1108 1.387 . S
C1107 H1110 0.950 . S
C1108 C1107 1.387 . S
C1108 C1111 1.387 . S
H1109 C1105 0.950 . S
H1110 C1107 0.950 . S
C1111 C1102 1.390 . S
C1111 H1104 0.950 . S
C1111 C1108 1.387 . S
C1112 C1113 1.387 . S
C1112 H1116 0.950 . S
C1112 C1121 1.390 1_455 S
C1113 C1112 1.387 . S
C1113 C1115 1.387 . S
H1114 C1121 0.950 . S
C1115 C1113 1.387 . S
C1115 C1117 1.390 1_455 S
C1115 H1119 0.950 . S
H1116 C1112 0.950 . S
C1117 C1115 1.390 1_655 S
C1117 C1118 1.387 . S
C1117 H1120 0.950 . S
C1118 C1117 1.387 . S
C1118 C1121 1.387 . S
H1119 C1115 0.950 . S
H1120 C1117 0.950 . S
C1121 C1112 1.390 1_655 S
C1121 H1114 0.950 . S
C1121 C1118 1.387 . S
C1122 C1123 1.387 . S
C1122 H1126 0.950 . S
C1122 C1131 1.390 1_545 S
C1123 C1122 1.387 . S
C1123 C1125 1.387 . S
H1124 C1131 0.950 . S
C1125 C1123 1.387 . S
C1125 C1127 1.390 1_545 S
C1125 H1129 0.950 . S
H1126 C1122 0.950 . S
C1127 C1125 1.390 1_565 S
C1127 C1128 1.387 . S
C1127 H1130 0.950 . S
C1128 C1127 1.387 . S
C1128 C1131 1.387 . S
H1129 C1125 0.950 . S
H1130 C1127 0.950 . S
C1131 C1122 1.390 1_565 S
C1131 H1124 0.950 . S
C1131 C1128 1.387 . S
C1132 C1133 1.387 . S
C1132 H1136 0.950 . S
C1132 C1141 1.390 . S
C1133 C1132 1.387 . S
C1133 C1135 1.387 . S
H1134 C1141 0.950 . S
C1135 C1133 1.387 . S
C1135 C1137 1.390 . S
C1135 H1139 0.950 . S
H1136 C1132 0.950 . S
C1137 C1135 1.390 . S
C1137 C1138 1.387 . S
C1137 H1140 0.950 . S
C1138 C1137 1.387 . S
C1138 C1141 1.387 . S
H1139 C1135 0.950 . S
H1140 C1137 0.950 . S
C1141 C1132 1.390 . S
C1141 H1134 0.950 . S
C1141 C1138 1.387 . S
C1142 C1143 1.387 . S
C1142 H1146 0.950 . S
C1142 C1151 1.390 . S
C1143 C1142 1.387 . S
C1143 C1145 1.387 1_455 S
H1144 C1151 0.950 . S
C1145 C1143 1.387 1_655 S
C1145 C1147 1.390 . S
C1145 H1149 0.950 . S
H1146 C1142 0.950 . S
C1147 C1145 1.390 . S
C1147 C1148 1.387 . S
C1147 H1150 0.950 . S
C1148 C1147 1.387 . S
C1148 C1151 1.387 1_655 S
H1149 C1145 0.950 . S
H1150 C1147 0.950 . S
C1151 C1142 1.390 . S
C1151 H1144 0.950 . S
C1151 C1148 1.387 1_455 S
C1152 C1153 1.387 . S
C1152 H1156 0.950 . S
C1152 C1161 1.390 . S
C1153 C1152 1.387 . S
C1153 C1155 1.387 . S
H1154 C1161 0.950 . S
C1155 C1153 1.387 . S
C1155 C1157 1.390 . S
C1155 H1159 0.950 . S
H1156 C1152 0.950 . S
C1157 C1155 1.390 . S
C1157 C1158 1.387 . S
C1157 H1160 0.950 . S
C1158 C1157 1.387 . S
C1158 C1161 1.387 . S
H1159 C1155 0.950 . S
H1160 C1157 0.950 . S
C1161 C1152 1.390 . S
C1161 H1154 0.950 . S
C1161 C1158 1.387 . S
C1162 C1163 1.387 . S
C1162 H1166 0.950 . S
C1162 C1171 1.390 . S
C1163 C1162 1.387 . S
C1163 C1165 1.387 . S
H1164 C1171 0.950 . S
C1165 C1163 1.387 . S
C1165 C1167 1.390 . S
C1165 H1169 0.950 . S
H1166 C1162 0.950 . S
C1167 C1165 1.390 . S
C1167 C1168 1.387 . S
C1167 H1170 0.950 . S
C1168 C1167 1.387 . S
C1168 C1171 1.387 . S
H1169 C1165 0.950 . S
H1170 C1167 0.950 . S
C1171 C1162 1.390 . S
C1171 H1164 0.950 . S
C1171 C1168 1.387 . S
C1172 C1173 1.387 . S
C1172 H1176 0.950 . S
C1172 C1181 1.390 . S
C1173 C1172 1.387 . S
C1173 C1175 1.387 . S
H1174 C1181 0.950 . S
C1175 C1173 1.387 . S
C1175 C1177 1.390 . S
C1175 H1179 0.950 . S
H1176 C1172 0.950 . S
C1177 C1175 1.390 . S
C1177 C1178 1.387 . S
C1177 H1180 0.950 . S
C1178 C1177 1.387 . S
C1178 C1181 1.387 . S
H1179 C1175 0.950 . S
H1180 C1177 0.950 . S
C1181 C1172 1.390 . S
C1181 H1174 0.950 . S
C1181 C1178 1.387 . S
C1182 C1183 1.387 . S
C1182 H1186 0.950 . S
C1182 C1191 1.390 . S
C1183 C1182 1.387 . S
C1183 C1185 1.387 . S
H1184 C1191 0.950 . S
C1185 C1183 1.387 . S
C1185 C1187 1.390 . S
C1185 H1189 0.950 . S
H1186 C1182 0.950 . S
C1187 C1185 1.390 . S
C1187 C1188 1.387 . S
C1187 H1190 0.950 . S
C1188 C1187 1.387 . S
C1188 C1191 1.387 . S
H1189 C1185 0.950 . S
H1190 C1187 0.950 . S
C1191 C1182 1.390 . S
C1191 H1184 0.950 . S
C1191 C1188 1.387 . S
C1192 C1193 1.387 . S
C1192 H1196 0.950 . S
C1192 C1201 1.390 . S
C1193 C1192 1.387 . S
C1193 C1195 1.387 . S
H1194 C1201 0.950 . S
C1195 C1193 1.387 . S
C1195 C1197 1.390 . S
C1195 H1199 0.950 . S
H1196 C1192 0.950 . S
C1197 C1195 1.390 . S
C1197 C1198 1.387 . S
C1197 H1200 0.950 . S
C1198 C1197 1.387 . S
C1198 C1201 1.387 . S
H1199 C1195 0.950 . S
H1200 C1197 0.950 . S
C1201 C1192 1.390 . S
C1201 H1194 0.950 . S
C1201 C1198 1.387 . S
C1202 C1203 1.387 . S
C1202 H1206 0.950 . S
C1202 C1211 1.390 . S
C1203 C1202 1.387 . S
C1203 C1205 1.387 . S
H1204 C1211 0.950 . S
C1205 C1203 1.387 . S
C1205 C1207 1.390 . S
C1205 H1209 0.950 . S
H1206 C1202 0.950 . S
C1207 C1205 1.390 . S
C1207 C1208 1.387 . S
C1207 H1210 0.950 . S
C1208 C1207 1.387 . S
C1208 C1211 1.387 . S
H1209 C1205 0.950 . S
H1210 C1207 0.950 . S
C1211 C1202 1.390 . S
C1211 H1204 0.950 . S
C1211 C1208 1.387 . S
C1212 C1213 1.387 . S
C1212 H1216 0.950 . S
C1212 C1221 1.390 . S
C1213 C1212 1.387 . S
C1213 C1215 1.387 . S
H1214 C1221 0.950 . S
C1215 C1213 1.387 . S
C1215 C1217 1.390 . S
C1215 H1219 0.950 . S
H1216 C1212 0.950 . S
C1217 C1215 1.390 . S
C1217 C1218 1.387 . S
C1217 H1220 0.950 . S
C1218 C1217 1.387 . S
C1218 C1221 1.387 . S
H1219 C1215 0.950 . S
H1220 C1217 0.950 . S
C1221 C1212 1.390 . S
C1221 H1214 0.950 . S
C1221 C1218 1.387 . S
C1222 C1223 1.387 . S
C1222 H1226 0.950 . S
C1222 C1231 1.390 . S
C1223 C1222 1.387 . S
C1223 C1225 1.387 . S
H1224 C1231 0.950 . S
C1225 C1223 1.387 . S
C1225 C1227 1.390 . S
C1225 H1229 0.950 . S
H1226 C1222 0.950 . S
C1227 C1225 1.390 . S
C1227 C1228 1.387 . S
C1227 H1230 0.950 . S
C1228 C1227 1.387 . S
C1228 C1231 1.387 . S
H1229 C1225 0.950 . S
H1230 C1227 0.950 . S
C1231 C1222 1.390 . S
C1231 H1224 0.950 . S
C1231 C1228 1.387 . S
C1232 C1233 1.387 . S
C1232 H1236 0.950 . S
C1232 C1241 1.390 . S
C1233 C1232 1.387 . S
C1233 C1235 1.387 . S
H1234 C1241 0.950 . S
C1235 C1233 1.387 . S
C1235 C1237 1.390 . S
C1235 H1239 0.950 . S
H1236 C1232 0.950 . S
C1237 C1235 1.390 . S
C1237 C1238 1.387 . S
C1237 H1240 0.950 . S
C1238 C1237 1.387 . S
C1238 C1241 1.387 . S
H1239 C1235 0.950 . S
H1240 C1237 0.950 . S
C1241 C1232 1.390 . S
C1241 H1234 0.950 . S
C1241 C1238 1.387 . S
C1242 C1243 1.387 . S
C1242 H1246 0.950 . S
C1242 C1251 1.390 . S
C1243 C1242 1.387 . S
C1243 C1245 1.387 . S
H1244 C1251 0.950 . S
C1245 C1243 1.387 . S
C1245 C1247 1.390 . S
C1245 H1249 0.950 . S
H1246 C1242 0.950 . S
C1247 C1245 1.390 . S
C1247 C1248 1.387 . S
C1247 H1250 0.950 . S
C1248 C1247 1.387 . S
C1248 C1251 1.387 . S
H1249 C1245 0.950 . S
H1250 C1247 0.950 . S
C1251 C1242 1.390 . S
C1251 H1244 0.950 . S
C1251 C1248 1.387 . S
C1252 C1253 1.387 . S
C1252 H1256 0.950 . S
C1252 C1261 1.390 . S
C1253 C1252 1.387 . S
C1253 C1255 1.387 . S
H1254 C1261 0.950 . S
C1255 C1253 1.387 . S
C1255 C1257 1.390 . S
C1255 H1259 0.950 . S
H1256 C1252 0.950 . S
C1257 C1255 1.390 . S
C1257 C1258 1.387 . S
C1257 H1260 0.950 . S
C1258 C1257 1.387 . S
C1258 C1261 1.387 . S
H1259 C1255 0.950 . S
H1260 C1257 0.950 . S
C1261 C1252 1.390 . S
C1261 H1254 0.950 . S
C1261 C1258 1.387 . S
C1262 C1263 1.387 . S
C1262 H1266 0.950 . S
C1262 C1271 1.390 . S
C1263 C1262 1.387 . S
C1263 C1265 1.387 . S
H1264 C1271 0.950 . S
C1265 C1263 1.387 . S
C1265 C1267 1.390 . S
C1265 H1269 0.950 . S
H1266 C1262 0.950 . S
C1267 C1265 1.390 . S
C1267 C1268 1.387 . S
C1267 H1270 0.950 . S
C1268 C1267 1.387 . S
C1268 C1271 1.387 . S
H1269 C1265 0.950 . S
H1270 C1267 0.950 . S
C1271 C1262 1.390 . S
C1271 H1264 0.950 . S
C1271 C1268 1.387 . S
C1272 C1273 1.387 . S
C1272 H1276 0.950 . S
C1272 C1281 1.390 1_554 S
C1273 C1272 1.387 . S
C1273 C1275 1.387 . S
H1274 C1281 0.950 . S
C1275 C1273 1.387 . S
C1275 C1277 1.390 1_554 S
C1275 H1279 0.950 . S
H1276 C1272 0.950 . S
C1277 C1275 1.390 1_556 S
C1277 C1278 1.387 . S
C1277 H1280 0.950 . S
C1278 C1277 1.387 . S
C1278 C1281 1.387 . S
H1279 C1275 0.950 . S
H1280 C1277 0.950 . S
C1281 C1272 1.390 1_556 S
C1281 H1274 0.950 . S
C1281 C1278 1.387 . S
C1282 C1283 1.387 . S
C1282 H1286 0.950 . S
C1282 C1291 1.390 1_554 S
C1283 C1282 1.387 . S
C1283 C1285 1.387 . S
H1284 C1291 0.950 . S
C1285 C1283 1.387 . S
C1285 C1287 1.390 1_554 S
C1285 H1289 0.950 . S
H1286 C1282 0.950 . S
C1287 C1285 1.390 1_556 S
C1287 C1288 1.387 . S
C1287 H1290 0.950 . S
C1288 C1287 1.387 . S
C1288 C1291 1.387 . S
H1289 C1285 0.950 . S
H1290 C1287 0.950 . S
C1291 C1282 1.390 1_556 S
C1291 H1284 0.950 . S
C1291 C1288 1.387 . S
C1292 C1293 1.387 . S
C1292 H1296 0.950 . S
C1292 C1301 1.390 1_554 S
C1293 C1292 1.387 . S
C1293 C1295 1.387 . S
H1294 C1301 0.950 . S
C1295 C1293 1.387 . S
C1295 C1297 1.390 1_554 S
C1295 H1299 0.950 . S
H1296 C1292 0.950 . S
C1297 C1295 1.390 1_556 S
C1297 C1298 1.387 . S
C1297 H1300 0.950 . S
C1298 C1297 1.387 . S
C1298 C1301 1.387 . S
H1299 C1295 0.950 . S
H1300 C1297 0.950 . S
C1301 C1292 1.390 1_556 S
C1301 H1294 0.950 . S
C1301 C1298 1.387 . S
C1302 C1303 1.387 . S
C1302 H1306 0.950 . S
C1302 C1311 1.390 1_554 S
C1303 C1302 1.387 . S
C1303 C1305 1.387 . S
H1304 C1311 0.950 . S
C1305 C1303 1.387 . S
C1305 C1307 1.390 1_554 S
C1305 H1309 0.950 . S
H1306 C1302 0.950 . S
C1307 C1305 1.390 1_556 S
C1307 C1308 1.387 . S
C1307 H1310 0.950 . S
C1308 C1307 1.387 . S
C1308 C1311 1.387 . S
H1309 C1305 0.950 . S
H1310 C1307 0.950 . S
C1311 C1302 1.390 1_556 S
C1311 H1304 0.950 . S
C1311 C1308 1.387 . S
C1312 C1313 1.387 . S
C1312 H1316 0.950 . S
C1312 C1321 1.390 1_554 S
C1313 C1312 1.387 . S
C1313 C1315 1.387 . S
H1314 C1321 0.950 . S
C1315 C1313 1.387 . S
C1315 C1317 1.390 1_554 S
C1315 H1319 0.950 . S
H1316 C1312 0.950 . S
C1317 C1315 1.390 1_556 S
C1317 C1318 1.387 . S
C1317 H1320 0.950 . S
C1318 C1317 1.387 . S
C1318 C1321 1.387 . S
H1319 C1315 0.950 . S
H1320 C1317 0.950 . S
C1321 C1312 1.390 1_556 S
C1321 H1314 0.950 . S
C1321 C1318 1.387 . S
C1322 C1323 1.387 . S
C1322 H1326 0.950 . S
C1322 C1331 1.390 1_556 S
C1323 C1322 1.387 . S
C1323 C1325 1.387 . S
H1324 C1331 0.950 . S
C1325 C1323 1.387 . S
C1325 C1327 1.390 1_556 S
C1325 H1329 0.950 . S
H1326 C1322 0.950 . S
C1327 C1325 1.390 1_554 S
C1327 C1328 1.387 . S
C1327 H1330 0.950 . S
C1328 C1327 1.387 . S
C1328 C1331 1.387 . S
H1329 C1325 0.950 . S
H1330 C1327 0.950 . S
C1331 C1322 1.390 1_554 S
C1331 H1324 0.950 . S
C1331 C1328 1.387 . S
C1332 C1333 1.387 . S
C1332 H1336 0.950 . S
C1332 C1341 1.390 . S
C1333 C1332 1.387 . S
C1333 C1335 1.387 . S
H1334 C1341 0.950 . S
C1335 C1333 1.387 . S
C1335 C1337 1.390 . S
C1335 H1339 0.950 . S
H1336 C1332 0.950 . S
C1337 C1335 1.390 . S
C1337 C1338 1.387 . S
C1337 H1340 0.950 . S
C1338 C1337 1.387 . S
C1338 C1341 1.387 . S
H1339 C1335 0.950 . S
H1340 C1337 0.950 . S
C1341 C1332 1.390 . S
C1341 H1334 0.950 . S
C1341 C1338 1.387 . S
C1342 C1343 1.387 . S
C1342 H1346 0.950 . S
C1342 C1351 1.390 . S
C1343 C1342 1.387 . S
C1343 C1345 1.387 . S
H1344 C1351 0.950 . S
C1345 C1343 1.387 . S
C1345 C1347 1.390 . S
C1345 H1349 0.950 . S
H1346 C1342 0.950 . S
C1347 C1345 1.390 . S
C1347 C1348 1.387 . S
C1347 H1350 0.950 . S
C1348 C1347 1.387 . S
C1348 C1351 1.387 . S
H1349 C1345 0.950 . S
H1350 C1347 0.950 . S
C1351 C1342 1.390 . S
C1351 H1344 0.950 . S
C1351 C1348 1.387 . S
C1352 C1353 1.387 . S
C1352 H1356 0.950 . S
C1352 C1361 1.390 . S
C1353 C1352 1.387 . S
C1353 C1355 1.387 . S
H1354 C1361 0.950 . S
C1355 C1353 1.387 . S
C1355 C1357 1.390 . S
C1355 H1359 0.950 . S
H1356 C1352 0.950 . S
C1357 C1355 1.390 . S
C1357 C1358 1.387 . S
C1357 H1360 0.950 . S
C1358 C1357 1.387 . S
C1358 C1361 1.387 . S
H1359 C1355 0.950 . S
H1360 C1357 0.950 . S
C1361 C1352 1.390 . S
C1361 H1354 0.950 . S
C1361 C1358 1.387 . S
C1362 C1363 1.387 . S
C1362 H1366 0.950 . S
C1362 C1371 1.390 . S
C1363 C1362 1.387 . S
C1363 C1365 1.387 . S
H1364 C1371 0.950 . S
C1365 C1363 1.387 . S
C1365 C1367 1.390 . S
C1365 H1369 0.950 . S
H1366 C1362 0.950 . S
C1367 C1365 1.390 . S
C1367 C1368 1.387 . S
C1367 H1370 0.950 . S
C1368 C1367 1.387 . S
C1368 C1371 1.387 . S
H1369 C1365 0.950 . S
H1370 C1367 0.950 . S
C1371 C1362 1.390 . S
C1371 H1364 0.950 . S
C1371 C1368 1.387 . S
C1372 C1373 1.387 . S
C1372 H1376 0.950 . S
C1372 C1381 1.390 . S
C1373 C1372 1.387 . S
C1373 C1375 1.387 . S
H1374 C1381 0.950 . S
C1375 C1373 1.387 . S
C1375 C1377 1.390 . S
C1375 H1379 0.950 . S
H1376 C1372 0.950 . S
C1377 C1375 1.390 . S
C1377 C1378 1.387 . S
C1377 H1380 0.950 . S
C1378 C1377 1.387 . S
C1378 C1381 1.387 . S
H1379 C1375 0.950 . S
H1380 C1377 0.950 . S
C1381 C1372 1.390 . S
C1381 H1374 0.950 . S
C1381 C1378 1.387 . S
C1382 C1383 1.387 . S
C1382 H1386 0.950 . S
C1382 C1391 1.390 . S
C1383 C1382 1.387 . S
C1383 C1385 1.387 . S
H1384 C1391 0.950 . S
C1385 C1383 1.387 . S
C1385 C1387 1.390 . S
C1385 H1389 0.950 . S
H1386 C1382 0.950 . S
C1387 C1385 1.390 . S
C1387 C1388 1.387 . S
C1387 H1390 0.950 . S
C1388 C1387 1.387 . S
C1388 C1391 1.387 . S
H1389 C1385 0.950 . S
H1390 C1387 0.950 . S
C1391 C1382 1.390 . S
C1391 H1384 0.950 . S
C1391 C1388 1.387 . S
C793 N13 1.054 . S
C798 N112 1.054 . S
C803 N145 1.054 . S
C808 N46 1.054 . S
C813 N178 1.054 . S
C818 N79 1.054 . S
C823 N310 1.054 . S
C828 N211 1.054 . S
C833 N244 1.054 . S
C838 N343 1.054 . S
C843 N277 1.054 . S
C848 N376 1.054 . S
C853 N508 1.054 . S
C858 N409 1.054 . S
C863 N541 1.054 . S
C868 N442 1.054 . S
C873 N574 1.054 . S
C878 N475 1.054 . S
C883 N706 1.054 . S
C888 N607 1.054 . S
C893 N640 1.054 . S
C898 N739 1.054 . S
C903 N772 1.054 . S
C908 N673 1.054 . S
C913 N266 1.829 . S
C918 N2 1.829 . S
C923 N35 1.829 . S
C928 N299 1.829 . S
C933 N68 1.829 . S
C938 N332 1.829 . S
C943 N101 1.829 . S
C948 N365 1.829 . S
C953 N134 1.829 . S
C958 N200 1.829 . S
C963 N233 1.829 . S
C968 N167 1.829 . S
C973 N398 1.829 . S
C978 N662 1.829 . S
C983 N695 1.829 . S
C988 N431 1.829 . S
C993 N728 1.829 . S
C998 N464 1.829 . S
C1003 N497 1.829 . S
C1008 N761 1.829 . S
C1013 N596 1.829 . S
C1018 N530 1.829 . S
C1023 N629 1.829 . S
C1028 N563 1.829 . S
C1033 C21 0.998 . S
C1038 C252 0.998 . S
C1043 C54 0.996 . S
C1048 C285 1.000 . S
C1053 C318 0.996 . S
C1058 C87 1.001 . S
C1063 C120 0.999 . S
C1068 C351 0.999 . S
C1073 C384 0.999 . S
C1078 C153 0.998 . S
C1083 C219 0.997 . S
C1088 C186 0.999 . S
C1093 C417 0.998 . S
C1098 C648 0.998 . S
C1103 C450 1.001 . S
C1108 C681 0.996 . S
C1113 C483 1.000 . S
C1118 C714 0.996 . S
C1123 C516 0.999 . S
C1128 C747 0.999 . S
C1133 C549 1.000 . S
C1138 C780 0.997 . S
C1143 C615 1.001 . S
C1148 C582 0.996 . S
C1153 C7 1.349 . S
C1158 C337 1.349 . S
C1163 C370 1.349 . S
C1168 C40 1.352 . S
C1173 C205 1.349 . S
C1178 C73 1.352 . S
C1183 C238 1.349 . S
C1188 C106 1.349 . S
C1193 C139 1.351 . S
C1198 C271 1.351 . S
C1203 C172 1.351 . S
C1208 C304 1.348 . S
C1213 C403 1.349 . S
C1218 C733 1.349 . S
C1223 C766 1.351 . S
C1228 C436 1.351 . S
C1233 C601 1.349 . S
C1238 C469 1.352 . S
C1243 C502 1.351 . S
C1248 C634 1.351 . S
C1253 C535 1.350 . S
C1258 C667 1.352 . S
C1263 C700 1.349 . S
C1268 C568 1.352 . S
C1273 C18 1.248 . S
C1278 C513 1.246 . S
C1283 C51 1.247 . S
C1288 C546 1.247 . S
C1293 C84 1.247 . S
C1298 C579 1.247 . S
C1303 C117 1.246 . S
C1308 C414 1.248 . S
C1313 C150 1.248 . S
C1318 C447 1.246 . S
C1323 C480 1.247 . S
C1328 C183 1.247 . S
C1333 C216 1.246 . S
C1338 C711 1.248 . S
C1343 C249 1.246 . S
C1348 C744 1.248 . S
C1353 C282 1.246 . S
C1358 C777 1.248 . S
C1363 C315 1.248 . S
C1368 C612 1.246 . S
C1373 C348 1.247 . S
C1378 C645 1.247 . S
C1383 C678 1.247 . S
C1388 C381 1.247 . S
