# Generated by pormake.
# Topology uli, (4)-cn, num edge types: 1
# Building blocks:
#     Node 0, Type 0, BuildingBlock: GALJAG_clean_sbu_0, # of connection points: 4
#     Node 1, Type 0, BuildingBlock: GALJAG_clean_sbu_0, # of connection points: 4
#     Node 2, Type 0, BuildingBlock: GALJAG_clean_sbu_0, # of connection points: 4
#     Node 3, Type 0, BuildingBlock: GALJAG_clean_sbu_0, # of connection points: 4
#     Node 4, Type 0, BuildingBlock: GALJAG_clean_sbu_0, # of connection points: 4
#     Node 5, Type 0, BuildingBlock: GALJAG_clean_sbu_0, # of connection points: 4
#     Node 6, Type 0, BuildingBlock: GALJAG_clean_sbu_0, # of connection points: 4
#     Node 7, Type 0, BuildingBlock: GALJAG_clean_sbu_0, # of connection points: 4
#     Node 8, Type 0, BuildingBlock: GALJAG_clean_sbu_0, # of connection points: 4
#     Node 9, Type 0, BuildingBlock: GALJAG_clean_sbu_0, # of connection points: 4
#     Node 10, Type 0, BuildingBlock: GALJAG_clean_sbu_0, # of connection points: 4
#     Node 11, Type 0, BuildingBlock: GALJAG_clean_sbu_0, # of connection points: 4
#     Node 12, Type 0, BuildingBlock: GALJAG_clean_sbu_0, # of connection points: 4
#     Node 13, Type 0, BuildingBlock: GALJAG_clean_sbu_0, # of connection points: 4
#     Node 14, Type 0, BuildingBlock: GALJAG_clean_sbu_0, # of connection points: 4
#     Node 15, Type 0, BuildingBlock: GALJAG_clean_sbu_0, # of connection points: 4
#     Node 16, Type 0, BuildingBlock: GALJAG_clean_sbu_0, # of connection points: 4
#     Node 17, Type 0, BuildingBlock: GALJAG_clean_sbu_0, # of connection points: 4
#     Node 18, Type 0, BuildingBlock: GALJAG_clean_sbu_0, # of connection points: 4
#     Node 19, Type 0, BuildingBlock: GALJAG_clean_sbu_0, # of connection points: 4
#     Node 20, Type 0, BuildingBlock: GALJAG_clean_sbu_0, # of connection points: 4
#     Node 21, Type 0, BuildingBlock: GALJAG_clean_sbu_0, # of connection points: 4
#     Node 22, Type 0, BuildingBlock: GALJAG_clean_sbu_0, # of connection points: 4
#     Node 23, Type 0, BuildingBlock: GALJAG_clean_sbu_0, # of connection points: 4
#     Node 24, Type 0, BuildingBlock: GALJAG_clean_sbu_0, # of connection points: 4
#     Node 25, Type 0, BuildingBlock: GALJAG_clean_sbu_0, # of connection points: 4
#     Node 26, Type 0, BuildingBlock: GALJAG_clean_sbu_0, # of connection points: 4
#     Node 27, Type 0, BuildingBlock: GALJAG_clean_sbu_0, # of connection points: 4
#     Node 28, Type 0, BuildingBlock: GALJAG_clean_sbu_0, # of connection points: 4
#     Node 29, Type 0, BuildingBlock: GALJAG_clean_sbu_0, # of connection points: 4
#     Node 30, Type 0, BuildingBlock: GALJAG_clean_sbu_0, # of connection points: 4
#     Node 31, Type 0, BuildingBlock: GALJAG_clean_sbu_0, # of connection points: 4
#     Node 32, Type 0, BuildingBlock: GALJAG_clean_sbu_0, # of connection points: 4
#     Node 33, Type 0, BuildingBlock: GALJAG_clean_sbu_0, # of connection points: 4
#     Node 34, Type 0, BuildingBlock: GALJAG_clean_sbu_0, # of connection points: 4
#     Node 35, Type 0, BuildingBlock: GALJAG_clean_sbu_0, # of connection points: 4
#     Node 36, Type 0, BuildingBlock: GALJAG_clean_sbu_0, # of connection points: 4
#     Node 37, Type 0, BuildingBlock: GALJAG_clean_sbu_0, # of connection points: 4
#     Node 38, Type 0, BuildingBlock: GALJAG_clean_sbu_0, # of connection points: 4
#     Node 39, Type 0, BuildingBlock: GALJAG_clean_sbu_0, # of connection points: 4
#     Node 40, Type 0, BuildingBlock: GALJAG_clean_sbu_0, # of connection points: 4
#     Node 41, Type 0, BuildingBlock: GALJAG_clean_sbu_0, # of connection points: 4
#     Node 42, Type 0, BuildingBlock: GALJAG_clean_sbu_0, # of connection points: 4
#     Node 43, Type 0, BuildingBlock: GALJAG_clean_sbu_0, # of connection points: 4
#     Node 44, Type 0, BuildingBlock: GALJAG_clean_sbu_0, # of connection points: 4
#     Node 45, Type 0, BuildingBlock: GALJAG_clean_sbu_0, # of connection points: 4
#     Node 46, Type 0, BuildingBlock: GALJAG_clean_sbu_0, # of connection points: 4
#     Node 47, Type 0, BuildingBlock: GALJAG_clean_sbu_0, # of connection points: 4
#     Edge 48, Type (0, 0), BuildingBlock: XIVTED_clean_linker_0, # of connection points: 2
#     Edge 49, Type (0, 0), BuildingBlock: XIVTED_clean_linker_0, # of connection points: 2
#     Edge 50, Type (0, 0), BuildingBlock: XIVTED_clean_linker_0, # of connection points: 2
#     Edge 51, Type (0, 0), BuildingBlock: XIVTED_clean_linker_0, # of connection points: 2
#     Edge 52, Type (0, 0), BuildingBlock: XIVTED_clean_linker_0, # of connection points: 2
#     Edge 53, Type (0, 0), BuildingBlock: XIVTED_clean_linker_0, # of connection points: 2
#     Edge 54, Type (0, 0), BuildingBlock: XIVTED_clean_linker_0, # of connection points: 2
#     Edge 55, Type (0, 0), BuildingBlock: XIVTED_clean_linker_0, # of connection points: 2
#     Edge 56, Type (0, 0), BuildingBlock: XIVTED_clean_linker_0, # of connection points: 2
#     Edge 57, Type (0, 0), BuildingBlock: XIVTED_clean_linker_0, # of connection points: 2
#     Edge 58, Type (0, 0), BuildingBlock: XIVTED_clean_linker_0, # of connection points: 2
#     Edge 59, Type (0, 0), BuildingBlock: XIVTED_clean_linker_0, # of connection points: 2
#     Edge 60, Type (0, 0), BuildingBlock: XIVTED_clean_linker_0, # of connection points: 2
#     Edge 61, Type (0, 0), BuildingBlock: XIVTED_clean_linker_0, # of connection points: 2
#     Edge 62, Type (0, 0), BuildingBlock: XIVTED_clean_linker_0, # of connection points: 2
#     Edge 63, Type (0, 0), BuildingBlock: XIVTED_clean_linker_0, # of connection points: 2
#     Edge 64, Type (0, 0), BuildingBlock: XIVTED_clean_linker_0, # of connection points: 2
#     Edge 65, Type (0, 0), BuildingBlock: XIVTED_clean_linker_0, # of connection points: 2
#     Edge 66, Type (0, 0), BuildingBlock: XIVTED_clean_linker_0, # of connection points: 2
#     Edge 67, Type (0, 0), BuildingBlock: XIVTED_clean_linker_0, # of connection points: 2
#     Edge 68, Type (0, 0), BuildingBlock: XIVTED_clean_linker_0, # of connection points: 2
#     Edge 69, Type (0, 0), BuildingBlock: XIVTED_clean_linker_0, # of connection points: 2
#     Edge 70, Type (0, 0), BuildingBlock: XIVTED_clean_linker_0, # of connection points: 2
#     Edge 71, Type (0, 0), BuildingBlock: XIVTED_clean_linker_0, # of connection points: 2
#     Edge 72, Type (0, 0), BuildingBlock: XIVTED_clean_linker_0, # of connection points: 2
#     Edge 73, Type (0, 0), BuildingBlock: XIVTED_clean_linker_0, # of connection points: 2
#     Edge 74, Type (0, 0), BuildingBlock: XIVTED_clean_linker_0, # of connection points: 2
#     Edge 75, Type (0, 0), BuildingBlock: XIVTED_clean_linker_0, # of connection points: 2
#     Edge 76, Type (0, 0), BuildingBlock: XIVTED_clean_linker_0, # of connection points: 2
#     Edge 77, Type (0, 0), BuildingBlock: XIVTED_clean_linker_0, # of connection points: 2
#     Edge 78, Type (0, 0), BuildingBlock: XIVTED_clean_linker_0, # of connection points: 2
#     Edge 79, Type (0, 0), BuildingBlock: XIVTED_clean_linker_0, # of connection points: 2
#     Edge 80, Type (0, 0), BuildingBlock: XIVTED_clean_linker_0, # of connection points: 2
#     Edge 81, Type (0, 0), BuildingBlock: XIVTED_clean_linker_0, # of connection points: 2
#     Edge 82, Type (0, 0), BuildingBlock: XIVTED_clean_linker_0, # of connection points: 2
#     Edge 83, Type (0, 0), BuildingBlock: XIVTED_clean_linker_0, # of connection points: 2
#     Edge 84, Type (0, 0), BuildingBlock: XIVTED_clean_linker_0, # of connection points: 2
#     Edge 85, Type (0, 0), BuildingBlock: XIVTED_clean_linker_0, # of connection points: 2
#     Edge 86, Type (0, 0), BuildingBlock: XIVTED_clean_linker_0, # of connection points: 2
#     Edge 87, Type (0, 0), BuildingBlock: XIVTED_clean_linker_0, # of connection points: 2
#     Edge 88, Type (0, 0), BuildingBlock: XIVTED_clean_linker_0, # of connection points: 2
#     Edge 89, Type (0, 0), BuildingBlock: XIVTED_clean_linker_0, # of connection points: 2
#     Edge 90, Type (0, 0), BuildingBlock: XIVTED_clean_linker_0, # of connection points: 2
#     Edge 91, Type (0, 0), BuildingBlock: XIVTED_clean_linker_0, # of connection points: 2
#     Edge 92, Type (0, 0), BuildingBlock: XIVTED_clean_linker_0, # of connection points: 2
#     Edge 93, Type (0, 0), BuildingBlock: XIVTED_clean_linker_0, # of connection points: 2
#     Edge 94, Type (0, 0), BuildingBlock: XIVTED_clean_linker_0, # of connection points: 2
#     Edge 95, Type (0, 0), BuildingBlock: XIVTED_clean_linker_0, # of connection points: 2
#     Edge 96, Type (0, 0), BuildingBlock: XIVTED_clean_linker_0, # of connection points: 2
#     Edge 97, Type (0, 0), BuildingBlock: XIVTED_clean_linker_0, # of connection points: 2
#     Edge 98, Type (0, 0), BuildingBlock: XIVTED_clean_linker_0, # of connection points: 2
#     Edge 99, Type (0, 0), BuildingBlock: XIVTED_clean_linker_0, # of connection points: 2
#     Edge 100, Type (0, 0), BuildingBlock: XIVTED_clean_linker_0, # of connection points: 2
#     Edge 101, Type (0, 0), BuildingBlock: XIVTED_clean_linker_0, # of connection points: 2
#     Edge 102, Type (0, 0), BuildingBlock: XIVTED_clean_linker_0, # of connection points: 2
#     Edge 103, Type (0, 0), BuildingBlock: XIVTED_clean_linker_0, # of connection points: 2
#     Edge 104, Type (0, 0), BuildingBlock: XIVTED_clean_linker_0, # of connection points: 2
#     Edge 105, Type (0, 0), BuildingBlock: XIVTED_clean_linker_0, # of connection points: 2
#     Edge 106, Type (0, 0), BuildingBlock: XIVTED_clean_linker_0, # of connection points: 2
#     Edge 107, Type (0, 0), BuildingBlock: XIVTED_clean_linker_0, # of connection points: 2
#     Edge 108, Type (0, 0), BuildingBlock: XIVTED_clean_linker_0, # of connection points: 2
#     Edge 109, Type (0, 0), BuildingBlock: XIVTED_clean_linker_0, # of connection points: 2
#     Edge 110, Type (0, 0), BuildingBlock: XIVTED_clean_linker_0, # of connection points: 2
#     Edge 111, Type (0, 0), BuildingBlock: XIVTED_clean_linker_0, # of connection points: 2
#     Edge 112, Type (0, 0), BuildingBlock: XIVTED_clean_linker_0, # of connection points: 2
#     Edge 113, Type (0, 0), BuildingBlock: XIVTED_clean_linker_0, # of connection points: 2
#     Edge 114, Type (0, 0), BuildingBlock: XIVTED_clean_linker_0, # of connection points: 2
#     Edge 115, Type (0, 0), BuildingBlock: XIVTED_clean_linker_0, # of connection points: 2
#     Edge 116, Type (0, 0), BuildingBlock: XIVTED_clean_linker_0, # of connection points: 2
#     Edge 117, Type (0, 0), BuildingBlock: XIVTED_clean_linker_0, # of connection points: 2
#     Edge 118, Type (0, 0), BuildingBlock: XIVTED_clean_linker_0, # of connection points: 2
#     Edge 119, Type (0, 0), BuildingBlock: XIVTED_clean_linker_0, # of connection points: 2
#     Edge 120, Type (0, 0), BuildingBlock: XIVTED_clean_linker_0, # of connection points: 2
#     Edge 121, Type (0, 0), BuildingBlock: XIVTED_clean_linker_0, # of connection points: 2
#     Edge 122, Type (0, 0), BuildingBlock: XIVTED_clean_linker_0, # of connection points: 2
#     Edge 123, Type (0, 0), BuildingBlock: XIVTED_clean_linker_0, # of connection points: 2
#     Edge 124, Type (0, 0), BuildingBlock: XIVTED_clean_linker_0, # of connection points: 2
#     Edge 125, Type (0, 0), BuildingBlock: XIVTED_clean_linker_0, # of connection points: 2
#     Edge 126, Type (0, 0), BuildingBlock: XIVTED_clean_linker_0, # of connection points: 2
#     Edge 127, Type (0, 0), BuildingBlock: XIVTED_clean_linker_0, # of connection points: 2
#     Edge 128, Type (0, 0), BuildingBlock: XIVTED_clean_linker_0, # of connection points: 2
#     Edge 129, Type (0, 0), BuildingBlock: XIVTED_clean_linker_0, # of connection points: 2
#     Edge 130, Type (0, 0), BuildingBlock: XIVTED_clean_linker_0, # of connection points: 2
#     Edge 131, Type (0, 0), BuildingBlock: XIVTED_clean_linker_0, # of connection points: 2
#     Edge 132, Type (0, 0), BuildingBlock: XIVTED_clean_linker_0, # of connection points: 2
#     Edge 133, Type (0, 0), BuildingBlock: XIVTED_clean_linker_0, # of connection points: 2
#     Edge 134, Type (0, 0), BuildingBlock: XIVTED_clean_linker_0, # of connection points: 2
#     Edge 135, Type (0, 0), BuildingBlock: XIVTED_clean_linker_0, # of connection points: 2
#     Edge 136, Type (0, 0), BuildingBlock: XIVTED_clean_linker_0, # of connection points: 2
#     Edge 137, Type (0, 0), BuildingBlock: XIVTED_clean_linker_0, # of connection points: 2
#     Edge 138, Type (0, 0), BuildingBlock: XIVTED_clean_linker_0, # of connection points: 2
#     Edge 139, Type (0, 0), BuildingBlock: XIVTED_clean_linker_0, # of connection points: 2
#     Edge 140, Type (0, 0), BuildingBlock: XIVTED_clean_linker_0, # of connection points: 2
#     Edge 141, Type (0, 0), BuildingBlock: XIVTED_clean_linker_0, # of connection points: 2
#     Edge 142, Type (0, 0), BuildingBlock: XIVTED_clean_linker_0, # of connection points: 2
#     Edge 143, Type (0, 0), BuildingBlock: XIVTED_clean_linker_0, # of connection points: 2
# Relax obj value: 0.561
# Max RMSD: 0.175
# Mean RMSD: 0.175
data_MOF--net-uli--node1-GALJAG_clean_sbu_0--edge1-XIVTED_clean_linker_0
_symmetry_space_group_name_H-M    P1
_symmetry_Int_Tables_number       1
_symmetry_cell_setting            triclinic
loop_
_symmetry_equiv_pos_as_xyz
'x, y, z'
_cell_length_a     66.568207
_cell_length_b     66.56098
_cell_length_c     66.563388
_cell_angle_alpha  90.000427
_cell_angle_beta   89.99578
_cell_angle_gamma 90.001917
loop_
_atom_site_label
_atom_site_type_symbol
_atom_site_fract_x
_atom_site_fract_y
_atom_site_fract_z
_atom_type_partial_charge
In0 In 0.0953 0.26732 0.21463 0.0
O1 O 0.09531 0.29038 0.23943 0.0
O2 O 0.09185 0.301 0.20934 0.0
C3 C 0.10951 0.23703 0.23757 0.0
C4 C 0.0567 0.25583 0.21334 0.0
C5 C 0.12246 0.26949 0.18481 0.0
O6 O 0.11329 0.25519 0.24145 0.0
O7 O 0.09886 0.23429 0.22221 0.0
O8 O 0.104 0.26673 0.18124 0.0
O9 O 0.12686 0.27134 0.20312 0.0
C10 C 0.09327 0.30527 0.22782 0.0
O11 O 0.06941 0.24936 0.20082 0.0
O12 O 0.06319 0.26925 0.22498 0.0
In13 In 0.71906 0.0894 0.2254 0.0
O14 O 0.69466 0.09274 0.24879 0.0
O15 O 0.68566 0.08861 0.21832 0.0
C16 C 0.75178 0.0963 0.24807 0.0
C17 C 0.72625 0.05015 0.22087 0.0
C18 C 0.72155 0.12086 0.2002 0.0
O19 O 0.73434 0.10091 0.25401 0.0
O20 O 0.75254 0.08844 0.23087 0.0
O21 O 0.72048 0.10302 0.1937 0.0
O22 O 0.72116 0.12253 0.21905 0.0
C23 C 0.68039 0.0915 0.23634 0.0
O24 O 0.73079 0.06268 0.20732 0.0
O25 O 0.71666 0.05736 0.23554 0.0
In26 In 0.89955 0.71583 0.1827 0.0
O27 O 0.92596 0.73477 0.17184 0.0
O28 O 0.93206 0.7052 0.18156 0.0
C29 C 0.87026 0.71236 0.15499 0.0
C30 C 0.89639 0.68134 0.20316 0.0
C31 C 0.89088 0.74901 0.20423 0.0
O32 O 0.88851 0.71383 0.14999 0.0
O33 O 0.86708 0.71258 0.17363 0.0
O34 O 0.8927 0.73195 0.21229 0.0
O35 O 0.89287 0.74916 0.18541 0.0
C36 C 0.93909 0.72187 0.17604 0.0
O37 O 0.89763 0.69826 0.21171 0.0
O38 O 0.89721 0.68179 0.18416 0.0
In39 In 0.26316 0.89426 0.20595 0.0
O40 O 0.23849 0.91677 0.19872 0.0
O41 O 0.26786 0.9279 0.20431 0.0
C42 C 0.26517 0.87221 0.17192 0.0
C43 C 0.29917 0.89826 0.2238 0.0
C44 C 0.23767 0.87452 0.23074 0.0
O45 O 0.25347 0.88702 0.17363 0.0
O46 O 0.27614 0.86913 0.18697 0.0
O47 O 0.25112 0.86569 0.22077 0.0
O48 O 0.2375 0.89331 0.22874 0.0
C49 C 0.2496 0.93191 0.2012 0.0
O50 O 0.28332 0.89449 0.23354 0.0
O51 O 0.29671 0.9005 0.20512 0.0
In52 In 0.09598 0.71927 0.80164 0.0
O53 O 0.07162 0.73805 0.81669 0.0
O54 O 0.0631 0.71044 0.80335 0.0
C55 C 0.1274 0.7188 0.82717 0.0
C56 C 0.09583 0.68282 0.78464 0.0
C57 C 0.10312 0.75019 0.77631 0.0
O58 O 0.10951 0.71919 0.8335 0.0
O59 O 0.12916 0.7186 0.80837 0.0
O60 O 0.10774 0.73233 0.772 0.0
O61 O 0.09508 0.75236 0.79327 0.0
C62 C 0.05749 0.72651 0.81164 0.0
O63 O 0.09231 0.69874 0.77489 0.0
O64 O 0.09867 0.68523 0.80329 0.0
In65 In 0.27383 0.09165 0.77925 0.0
O66 O 0.29937 0.09501 0.75717 0.0
O67 O 0.30678 0.08893 0.78779 0.0
C68 C 0.24186 0.10371 0.75765 0.0
C69 C 0.26458 0.05261 0.77895 0.0
C70 C 0.27348 0.1206 0.80721 0.0
O71 O 0.25964 0.10694 0.7518 0.0
O72 O 0.24043 0.09465 0.77419 0.0
O73 O 0.27107 0.1023 0.81188 0.0
O74 O 0.27606 0.12394 0.78875 0.0
C75 C 0.31299 0.09266 0.77022 0.0
O76 O 0.26078 0.06353 0.79404 0.0
O77 O 0.27445 0.06111 0.7652 0.0
In78 In 0.89766 0.27185 0.79563 0.0
O79 O 0.89806 0.29371 0.76968 0.0
O80 O 0.89839 0.30578 0.79945 0.0
C81 C 0.88726 0.23979 0.77304 0.0
C82 C 0.93672 0.26337 0.80125 0.0
C83 C 0.86772 0.27498 0.82252 0.0
O84 O 0.89498 0.23832 0.79023 0.0
O85 O 0.8846 0.25759 0.76706 0.0
O86 O 0.88584 0.27334 0.82802 0.0
O87 O 0.86501 0.27492 0.8038 0.0
C88 C 0.89808 0.30917 0.78074 0.0
O89 O 0.92314 0.25478 0.8113 0.0
O90 O 0.93057 0.27718 0.78989 0.0
In91 In 0.72791 0.89458 0.79359 0.0
O92 O 0.74444 0.91847 0.81205 0.0
O93 O 0.72113 0.92769 0.79226 0.0
C94 C 0.72635 0.86138 0.81665 0.0
C95 C 0.69 0.89554 0.78015 0.0
C96 C 0.75997 0.88852 0.76953 0.0
O97 O 0.72632 0.87877 0.82429 0.0
O98 O 0.72743 0.86101 0.79779 0.0
O99 O 0.74222 0.88543 0.76358 0.0
O100 O 0.76136 0.89483 0.78731 0.0
C101 C 0.73468 0.93281 0.80442 0.0
O102 O 0.70494 0.89573 0.76837 0.0
O103 O 0.6943 0.89529 0.79866 0.0
In104 In 0.21147 0.08935 0.28494 0.0
O105 O 0.23742 0.09025 0.30674 0.0
O106 O 0.20782 0.08956 0.319 0.0
C107 C 0.23243 0.09899 0.25161 0.0
C108 C 0.20649 0.05012 0.27743 0.0
C109 C 0.18426 0.11913 0.28593 0.0
O110 O 0.23838 0.10372 0.26897 0.0
O111 O 0.21606 0.08956 0.25116 0.0
O112 O 0.17899 0.10087 0.28566 0.0
O113 O 0.20295 0.12208 0.28594 0.0
C114 C 0.22652 0.09048 0.32227 0.0
O115 O 0.19338 0.06292 0.27247 0.0
O116 O 0.22093 0.05705 0.28752 0.0
In117 In 0.90624 0.18879 0.28191 0.0
O118 O 0.93226 0.17296 0.26596 0.0
O119 O 0.93907 0.19302 0.28963 0.0
C120 C 0.87608 0.1624 0.28651 0.0
C121 C 0.90319 0.20804 0.317 0.0
C122 C 0.89761 0.20875 0.24767 0.0
O123 O 0.89418 0.15664 0.28586 0.0
O124 O 0.87352 0.18105 0.28474 0.0
O125 O 0.90166 0.19029 0.24815 0.0
O126 O 0.89755 0.21728 0.2646 0.0
C127 C 0.94566 0.18226 0.27554 0.0
O128 O 0.90427 0.21714 0.30035 0.0
O129 O 0.90443 0.18908 0.31601 0.0
In130 In 0.79772 0.89033 0.26777 0.0
O131 O 0.77023 0.88983 0.28781 0.0
O132 O 0.79889 0.89104 0.30201 0.0
C133 C 0.7721 0.87286 0.24152 0.0
C134 C 0.80245 0.92911 0.25786 0.0
C135 C 0.83182 0.86849 0.26545 0.0
O136 O 0.78303 0.86286 0.25328 0.0
O137 O 0.77368 0.8916 0.24335 0.0
O138 O 0.82934 0.88443 0.25552 0.0
O139 O 0.81762 0.8643 0.27719 0.0
C140 C 0.78003 0.89012 0.30404 0.0
O141 O 0.80429 0.91507 0.24529 0.0
O142 O 0.80008 0.92341 0.2758 0.0
In143 In 0.0933 0.76241 0.26931 0.0
O144 O 0.06559 0.77804 0.25639 0.0
O145 O 0.06319 0.74778 0.2667 0.0
C146 C 0.12312 0.78945 0.27119 0.0
C147 C 0.0916 0.75144 0.30797 0.0
C148 C 0.1054 0.74311 0.23603 0.0
O149 O 0.10496 0.79488 0.26938 0.0
O150 O 0.12584 0.77073 0.27225 0.0
O151 O 0.10835 0.73582 0.25335 0.0
O152 O 0.09675 0.75994 0.23576 0.0
C153 C 0.0549 0.76236 0.25788 0.0
O154 O 0.09618 0.7393 0.29408 0.0
O155 O 0.08736 0.76906 0.30223 0.0
In156 In 0.19686 0.89766 0.72054 0.0
O157 O 0.18391 0.92195 0.74091 0.0
O158 O 0.19616 0.93083 0.7129 0.0
C159 C 0.16902 0.86822 0.71964 0.0
C160 C 0.21365 0.89988 0.684 0.0
C161 C 0.22249 0.88789 0.75051 0.0
O162 O 0.16416 0.88644 0.72168 0.0
O163 O 0.18756 0.86514 0.71785 0.0
O164 O 0.2251 0.88202 0.73269 0.0
O165 O 0.20706 0.89848 0.7531 0.0
C166 C 0.189 0.93624 0.72957 0.0
O167 O 0.22371 0.90133 0.70005 0.0
O168 O 0.19491 0.89778 0.68639 0.0
In169 In 0.09177 0.20622 0.72289 0.0
O170 O 0.06476 0.19117 0.73814 0.0
O171 O 0.06036 0.21817 0.72159 0.0
C172 C 0.12055 0.17814 0.71993 0.0
C173 C 0.09016 0.21839 0.68462 0.0
C174 C 0.10445 0.22738 0.755 0.0
O175 O 0.10236 0.17341 0.72282 0.0
O176 O 0.12389 0.19672 0.71849 0.0
O177 O 0.10699 0.23362 0.73725 0.0
O178 O 0.09578 0.21063 0.75636 0.0
C179 C 0.05283 0.20497 0.73285 0.0
O180 O 0.09364 0.23027 0.69904 0.0
O181 O 0.08717 0.20027 0.68956 0.0
In182 In 0.78252 0.09558 0.72913 0.0
O183 O 0.79468 0.06669 0.74344 0.0
O184 O 0.76361 0.06873 0.7358 0.0
C185 C 0.81322 0.12156 0.72675 0.0
C186 C 0.77327 0.09057 0.69026 0.0
C187 C 0.76293 0.11372 0.75937 0.0
O188 O 0.81579 0.10361 0.73255 0.0
O189 O 0.79545 0.12595 0.72186 0.0
O190 O 0.75708 0.11532 0.74135 0.0
O191 O 0.77865 0.10347 0.76181 0.0
C192 C 0.77742 0.05868 0.74398 0.0
O193 O 0.76105 0.09775 0.7029 0.0
O194 O 0.79017 0.08555 0.69733 0.0
In195 In 0.90275 0.78234 0.72605 0.0
O196 O 0.89873 0.76026 0.70066 0.0
O197 O 0.91009 0.78937 0.69336 0.0
C198 C 0.88676 0.76245 0.75735 0.0
C199 C 0.94061 0.77787 0.73867 0.0
C200 C 0.87657 0.81291 0.72378 0.0
O201 O 0.88494 0.75614 0.73953 0.0
O202 O 0.89605 0.77883 0.7591 0.0
O203 O 0.89485 0.81582 0.72823 0.0
O204 O 0.87188 0.79487 0.72038 0.0
C205 C 0.9046 0.77226 0.68715 0.0
O206 O 0.93156 0.7945 0.74051 0.0
O207 O 0.93113 0.76462 0.72905 0.0
In208 In 0.26891 0.19637 0.09833 0.0
O209 O 0.2489 0.18337 0.07375 0.0
O210 O 0.27738 0.19478 0.06532 0.0
C211 C 0.27185 0.1693 0.12835 0.0
C212 C 0.3047 0.21466 0.09668 0.0
C213 C 0.23764 0.22029 0.10826 0.0
O214 O 0.26962 0.16389 0.11031 0.0
O215 O 0.27262 0.18798 0.13096 0.0
O216 O 0.2556 0.22515 0.11187 0.0
O217 O 0.23558 0.20356 0.09973 0.0
C218 C 0.26078 0.18766 0.05967 0.0
O219 O 0.2883 0.22413 0.09504 0.0
O220 O 0.303 0.19581 0.09854 0.0
In221 In 0.28043 0.79508 0.89925 0.0
O222 O 0.26272 0.81147 0.92362 0.0
O223 O 0.28652 0.79227 0.93251 0.0
C224 C 0.28034 0.82128 0.86846 0.0
C225 C 0.31769 0.77986 0.89959 0.0
C226 C 0.2493 0.77029 0.8912 0.0
O227 O 0.28018 0.8272 0.8865 0.0
O228 O 0.28079 0.80252 0.86624 0.0
O229 O 0.26697 0.76639 0.88557 0.0
O230 O 0.24746 0.78653 0.90066 0.0
C231 C 0.27175 0.80284 0.93787 0.0
O232 O 0.30213 0.76913 0.90146 0.0
O233 O 0.31448 0.79855 0.89818 0.0
In234 In 0.20983 0.27029 0.90096 0.0
O235 O 0.23083 0.29672 0.89715 0.0
O236 O 0.20136 0.30251 0.90844 0.0
C237 C 0.22964 0.23886 0.88527 0.0
C238 C 0.21437 0.25802 0.93883 0.0
C239 C 0.17995 0.27133 0.87401 0.0
O240 O 0.23582 0.2567 0.8829 0.0
O241 O 0.21358 0.23718 0.89513 0.0
O242 O 0.1767 0.26686 0.89223 0.0
O243 O 0.19797 0.27544 0.8698 0.0
C244 C 0.21813 0.3096 0.903 0.0
O245 O 0.19748 0.25694 0.93013 0.0
O246 O 0.22801 0.26666 0.92892 0.0
In247 In 0.71364 0.21726 0.9075 0.0
O248 O 0.68822 0.2396 0.90449 0.0
O249 O 0.68059 0.20887 0.90935 0.0
C250 C 0.74593 0.23901 0.89667 0.0
C251 C 0.72289 0.21554 0.94649 0.0
C252 C 0.71534 0.19013 0.87777 0.0
O253 O 0.72825 0.24482 0.89285 0.0
O254 O 0.7471 0.22245 0.90574 0.0
O255 O 0.7169 0.185 0.89602 0.0
O256 O 0.71278 0.20866 0.87482 0.0
C257 C 0.6745 0.22656 0.90604 0.0
O258 O 0.72501 0.20045 0.93513 0.0
O259 O 0.7145 0.23051 0.93846 0.0
In260 In 0.78548 0.71164 0.90383 0.0
O261 O 0.76141 0.68778 0.90773 0.0
O262 O 0.79186 0.67861 0.9102 0.0
C263 C 0.75706 0.73604 0.88794 0.0
C264 C 0.79431 0.73104 0.93797 0.0
C265 C 0.81547 0.7111 0.87667 0.0
O266 O 0.76696 0.7237 0.87759 0.0
O267 O 0.76071 0.73537 0.90646 0.0
O268 O 0.81814 0.71739 0.89438 0.0
O269 O 0.79807 0.70463 0.87311 0.0
C270 C 0.77362 0.67345 0.90994 0.0
O271 O 0.79853 0.73812 0.92089 0.0
O272 O 0.78727 0.71339 0.93776 0.0
In273 In 0.71895 0.78492 0.08429 0.0
O274 O 0.6946 0.76131 0.08173 0.0
O275 O 0.68551 0.79174 0.08591 0.0
C276 C 0.74942 0.75851 0.0886 0.0
C277 C 0.72771 0.79695 0.04683 0.0
C278 C 0.72158 0.80623 0.11854 0.0
O279 O 0.73157 0.75411 0.0933 0.0
O280 O 0.75169 0.77596 0.08168 0.0
O281 O 0.71954 0.81475 0.10167 0.0
O282 O 0.72211 0.78734 0.11789 0.0
C283 C 0.68029 0.77356 0.08413 0.0
O284 O 0.73522 0.80537 0.06208 0.0
O285 O 0.71454 0.78389 0.05072 0.0
In286 In 0.20757 0.71822 0.08418 0.0
O287 O 0.23338 0.69673 0.08849 0.0
O288 O 0.20472 0.68441 0.08072 0.0
C289 C 0.2253 0.75259 0.096 0.0
C290 C 0.20663 0.72725 0.045 0.0
C291 C 0.17991 0.71297 0.11298 0.0
O292 O 0.23398 0.73579 0.09764 0.0
O293 O 0.20784 0.75185 0.08878 0.0
O294 O 0.17484 0.71514 0.09476 0.0
O295 O 0.19853 0.7136 0.1163 0.0
C296 C 0.22292 0.68118 0.08524 0.0
O297 O 0.19237 0.7321 0.05656 0.0
O298 O 0.21996 0.71643 0.05294 0.0
In299 In 0.79897 0.26106 0.10321 0.0
O300 O 0.80371 0.23635 0.08019 0.0
O301 O 0.80357 0.26655 0.0699 0.0
C302 C 0.83246 0.25982 0.12615 0.0
C303 C 0.78243 0.29766 0.09858 0.0
C304 C 0.77236 0.23681 0.12206 0.0
O305 O 0.83043 0.2491 0.11066 0.0
O306 O 0.81807 0.2716 0.12943 0.0
O307 O 0.78219 0.25018 0.13118 0.0
O308 O 0.77545 0.23613 0.10343 0.0
C309 C 0.804 0.24814 0.06537 0.0
O310 O 0.77204 0.28202 0.10132 0.0
O311 O 0.80117 0.29478 0.09798 0.0
In312 In 0.59277 0.7713 0.72205 0.0
O313 O 0.59537 0.79455 0.74659 0.0
O314 O 0.58671 0.80467 0.71743 0.0
C315 C 0.60906 0.73856 0.73921 0.0
C316 C 0.55487 0.75832 0.72401 0.0
C317 C 0.61963 0.77623 0.6925 0.0
O318 O 0.61081 0.75583 0.74691 0.0
O319 O 0.5995 0.73802 0.72289 0.0
O320 O 0.60141 0.77219 0.68874 0.0
O321 O 0.62393 0.77779 0.71089 0.0
C322 C 0.59099 0.80923 0.73536 0.0
O323 O 0.56422 0.75882 0.70746 0.0
O324 O 0.56412 0.76587 0.73869 0.0
In325 In 0.21475 0.60307 0.6818 0.0
O326 O 0.23416 0.57617 0.6736 0.0
O327 O 0.20299 0.57125 0.67669 0.0
C328 C 0.21174 0.63264 0.65427 0.0
C329 C 0.18078 0.60381 0.70339 0.0
C330 C 0.24751 0.61215 0.7038 0.0
O331 O 0.21478 0.61461 0.64922 0.0
O332 O 0.21001 0.63546 0.67287 0.0
O333 O 0.24825 0.60848 0.68524 0.0
O334 O 0.2301 0.6118 0.71129 0.0
C335 C 0.2201 0.56359 0.67422 0.0
O336 O 0.19794 0.60214 0.71134 0.0
O337 O 0.18074 0.60483 0.68441 0.0
In338 In 0.38707 0.23591 0.71735 0.0
O339 O 0.38652 0.21384 0.74349 0.0
O340 O 0.39589 0.20301 0.71494 0.0
C341 C 0.36829 0.26731 0.73437 0.0
C342 C 0.42493 0.24921 0.71592 0.0
C343 C 0.36093 0.23078 0.68698 0.0
O344 O 0.3675 0.24986 0.74186 0.0
O345 O 0.37836 0.26873 0.71839 0.0
O346 O 0.37787 0.23896 0.68443 0.0
O347 O 0.35748 0.22493 0.70466 0.0
C348 C 0.39236 0.19906 0.73313 0.0
O349 O 0.41684 0.24071 0.701 0.0
O350 O 0.41409 0.2505 0.73137 0.0
In351 In 0.77773 0.3976 0.69653 0.0
O352 O 0.75748 0.42195 0.68337 0.0
O353 O 0.78586 0.43067 0.69481 0.0
C354 C 0.78236 0.36744 0.6699 0.0
C355 C 0.81313 0.39937 0.71547 0.0
C356 C 0.74587 0.38703 0.71924 0.0
O357 O 0.78031 0.38543 0.66423 0.0
O358 O 0.7819 0.36494 0.6886 0.0
O359 O 0.7637 0.38456 0.72519 0.0
O360 O 0.74426 0.39485 0.7021 0.0
C361 C 0.76929 0.43613 0.6875 0.0
O362 O 0.79657 0.40051 0.72475 0.0
O363 O 0.81173 0.39808 0.69656 0.0
In364 In 0.59568 0.23358 0.2793 0.0
O365 O 0.56724 0.24853 0.29176 0.0
O366 O 0.56595 0.23321 0.26369 0.0
C367 C 0.62257 0.23366 0.30935 0.0
C368 C 0.5941 0.19433 0.27069 0.0
C369 C 0.61055 0.26361 0.25662 0.0
O370 O 0.60426 0.23785 0.31241 0.0
O371 O 0.62691 0.22927 0.29145 0.0
O372 O 0.61368 0.24537 0.25243 0.0
O373 O 0.6002 0.26653 0.27218 0.0
C374 C 0.55698 0.24394 0.27643 0.0
O375 O 0.5986 0.20755 0.25782 0.0
O376 O 0.59007 0.20096 0.28805 0.0
In377 In 0.76974 0.59945 0.29372 0.0
O378 O 0.78972 0.59949 0.26622 0.0
O379 O 0.80401 0.59827 0.29482 0.0
C380 C 0.74382 0.61751 0.26818 0.0
C381 C 0.75848 0.56101 0.29802 0.0
C382 C 0.76774 0.62117 0.32793 0.0
O383 O 0.75539 0.62726 0.27954 0.0
O384 O 0.7457 0.59875 0.26931 0.0
O385 O 0.75794 0.60513 0.32556 0.0
O386 O 0.77925 0.6255 0.31357 0.0
C387 C 0.80597 0.59902 0.27595 0.0
O388 O 0.74644 0.57549 0.30001 0.0
O389 O 0.77665 0.56607 0.29591 0.0
In390 In 0.39881 0.77654 0.28437 0.0
O391 O 0.42671 0.76187 0.29821 0.0
O392 O 0.42935 0.77729 0.27034 0.0
C393 C 0.37111 0.77803 0.31351 0.0
C394 C 0.3984 0.81514 0.27315 0.0
C395 C 0.38527 0.74463 0.26348 0.0
O396 O 0.38957 0.77573 0.31755 0.0
O397 O 0.36701 0.77959 0.29509 0.0
O398 O 0.38235 0.76244 0.25758 0.0
O399 O 0.3947 0.74312 0.2798 0.0
C400 C 0.43763 0.76626 0.2833 0.0
O401 O 0.39594 0.80081 0.26092 0.0
O402 O 0.40177 0.80995 0.29113 0.0
In403 In 0.2162 0.40141 0.29666 0.0
O404 O 0.23389 0.42669 0.31169 0.0
O405 O 0.20889 0.43438 0.2935 0.0
C406 C 0.21721 0.37139 0.32377 0.0
C407 C 0.17848 0.40071 0.28267 0.0
C408 C 0.24663 0.39309 0.27112 0.0
O409 O 0.21738 0.38961 0.32912 0.0
O410 O 0.2164 0.36861 0.3051 0.0
O411 O 0.22883 0.38752 0.26777 0.0
O412 O 0.24896 0.40274 0.2872 0.0
C413 C 0.22375 0.44045 0.30352 0.0
O414 O 0.19363 0.40211 0.27131 0.0
O415 O 0.18236 0.40026 0.30128 0.0
In416 In 0.72252 0.59605 0.77083 0.0
O417 O 0.70996 0.56693 0.7574 0.0
O418 O 0.74129 0.5692 0.76386 0.0
C419 C 0.69171 0.6215 0.77547 0.0
C420 C 0.73443 0.59143 0.809 0.0
C421 C 0.73949 0.61454 0.73918 0.0
O422 O 0.689 0.6036 0.76958 0.0
O423 O 0.70969 0.6261 0.7793 0.0
O424 O 0.74645 0.61648 0.75677 0.0
O425 O 0.72406 0.60366 0.73785 0.0
C426 C 0.72722 0.55897 0.75638 0.0
O427 O 0.74586 0.59812 0.79539 0.0
O428 O 0.71692 0.58675 0.80329 0.0
In429 In 0.39544 0.69508 0.77214 0.0
O430 O 0.39952 0.72182 0.79283 0.0
O431 O 0.39701 0.69299 0.80636 0.0
C432 C 0.38044 0.72347 0.74732 0.0
C433 C 0.4326 0.68542 0.75999 0.0
C434 C 0.36949 0.66407 0.76885 0.0
O435 O 0.36947 0.71285 0.75851 0.0
O436 O 0.39897 0.72018 0.74906 0.0
O437 O 0.38608 0.66442 0.75972 0.0
O438 O 0.36659 0.67876 0.7804 0.0
C439 C 0.39892 0.71171 0.80884 0.0
O440 O 0.41815 0.68775 0.74799 0.0
O441 O 0.42789 0.68635 0.77836 0.0
In442 In 0.24841 0.40614 0.76993 0.0
O443 O 0.22574 0.40252 0.79508 0.0
O444 O 0.25487 0.41351 0.80263 0.0
C445 C 0.23025 0.39004 0.73767 0.0
C446 C 0.24581 0.44387 0.75667 0.0
C447 C 0.27884 0.37981 0.77216 0.0
O448 O 0.22341 0.38745 0.75522 0.0
O449 O 0.24607 0.40036 0.73669 0.0
O450 O 0.28179 0.39817 0.76813 0.0
O451 O 0.26077 0.37508 0.77531 0.0
C452 C 0.23771 0.40812 0.80873 0.0
O453 O 0.26249 0.4348 0.75764 0.0
O454 O 0.23108 0.43445 0.76398 0.0
In455 In 0.60499 0.27475 0.75759 0.0
O456 O 0.60557 0.24979 0.78097 0.0
O457 O 0.59615 0.27884 0.79033 0.0
C458 C 0.6231 0.25623 0.72663 0.0
C459 C 0.56712 0.27554 0.74426 0.0
C460 C 0.63113 0.30536 0.76108 0.0
O461 O 0.62441 0.24966 0.74441 0.0
O462 O 0.61296 0.27211 0.72468 0.0
O463 O 0.6139 0.30761 0.75344 0.0
O464 O 0.63491 0.28785 0.76721 0.0
C465 C 0.59964 0.26086 0.79519 0.0
O466 O 0.57542 0.29102 0.75147 0.0
O467 O 0.57772 0.25987 0.74436 0.0
In468 In 0.71545 0.40879 0.20604 0.0
O469 O 0.69883 0.43635 0.21801 0.0
O470 O 0.72756 0.44027 0.20464 0.0
C471 C 0.68756 0.37972 0.20674 0.0
C472 C 0.72812 0.40582 0.16794 0.0
C473 C 0.73662 0.39873 0.23904 0.0
O474 O 0.68272 0.39811 0.20677 0.0
O475 O 0.70617 0.37629 0.20619 0.0
O476 O 0.74277 0.39468 0.22155 0.0
O477 O 0.71988 0.40748 0.23974 0.0
C478 C 0.7133 0.44808 0.21434 0.0
O479 O 0.73992 0.40581 0.1828 0.0
O480 O 0.70977 0.40823 0.17225 0.0
In481 In 0.58895 0.7098 0.21597 0.0
O482 O 0.56592 0.69026 0.23226 0.0
O483 O 0.55577 0.70987 0.20924 0.0
C484 C 0.62301 0.68822 0.21847 0.0
C485 C 0.58935 0.72234 0.17772 0.0
C486 C 0.59229 0.73565 0.24701 0.0
O487 O 0.6061 0.67982 0.21637 0.0
O488 O 0.62249 0.7071 0.21918 0.0
O489 O 0.59736 0.74045 0.22937 0.0
O490 O 0.58547 0.71811 0.24878 0.0
C491 C 0.55115 0.69779 0.22307 0.0
O492 O 0.58702 0.73421 0.19236 0.0
O493 O 0.59093 0.70399 0.18239 0.0
In494 In 0.27962 0.59753 0.22481 0.0
O495 O 0.2935 0.5691 0.23844 0.0
O496 O 0.26481 0.5674 0.22434 0.0
C497 C 0.30871 0.62529 0.22274 0.0
C498 C 0.26824 0.59686 0.18629 0.0
C499 C 0.25952 0.61077 0.25732 0.0
O500 O 0.31274 0.60695 0.22583 0.0
O501 O 0.29032 0.62925 0.22061 0.0
O502 O 0.25319 0.61386 0.23969 0.0
O503 O 0.27586 0.60129 0.25835 0.0
C504 C 0.27824 0.55854 0.23431 0.0
O505 O 0.25627 0.60096 0.20047 0.0
O506 O 0.28603 0.59277 0.19159 0.0
In507 In 0.39648 0.29953 0.21683 0.0
O508 O 0.39789 0.27339 0.19523 0.0
O509 O 0.39365 0.30271 0.18291 0.0
C510 C 0.38954 0.27504 0.24848 0.0
C511 C 0.43547 0.30811 0.22291 0.0
C512 C 0.36564 0.32566 0.21715 0.0
O513 O 0.38445 0.2704 0.23083 0.0
O514 O 0.398 0.29186 0.25006 0.0
O515 O 0.38367 0.33161 0.2171 0.0
O516 O 0.36344 0.30689 0.21697 0.0
C517 C 0.39511 0.28402 0.17974 0.0
O518 O 0.42173 0.31592 0.23334 0.0
O519 O 0.42933 0.29752 0.20847 0.0
In520 In 0.7714 0.72925 0.59531 0.0
O521 O 0.75843 0.71525 0.56674 0.0
O522 O 0.76732 0.74604 0.56649 0.0
C523 C 0.77453 0.69981 0.62265 0.0
C524 C 0.80992 0.74063 0.59317 0.0
C525 C 0.73889 0.74755 0.61072 0.0
O526 O 0.77054 0.69604 0.60442 0.0
O527 O 0.77713 0.71813 0.6267 0.0
O528 O 0.75636 0.75467 0.61303 0.0
O529 O 0.73807 0.73136 0.60096 0.0
C530 C 0.75911 0.73171 0.55722 0.0
O531 O 0.79602 0.75239 0.59858 0.0
O532 O 0.80427 0.72316 0.58826 0.0
In533 In 0.77409 0.30408 0.39197 0.0
O534 O 0.79206 0.27515 0.39235 0.0
O535 O 0.80812 0.30296 0.3919 0.0
C536 C 0.74168 0.2825 0.38089 0.0
C537 C 0.76709 0.30974 0.43151 0.0
C538 C 0.77789 0.33223 0.36314 0.0
O539 O 0.75924 0.27535 0.3801 0.0
O540 O 0.74066 0.30039 0.38696 0.0
O541 O 0.77454 0.33699 0.38121 0.0
O542 O 0.77943 0.31368 0.35998 0.0
C543 C 0.80891 0.28397 0.39194 0.0
O544 O 0.75374 0.31193 0.41834 0.0
O545 O 0.7844 0.30674 0.42453 0.0
In546 In 0.68626 0.77379 0.39796 0.0
O547 O 0.67585 0.75497 0.42467 0.0
O548 O 0.68538 0.78468 0.43037 0.0
C549 C 0.65823 0.7778 0.36907 0.0
C550 C 0.70672 0.80824 0.39444 0.0
C551 C 0.70745 0.74049 0.38881 0.0
O552 O 0.65341 0.77575 0.38732 0.0
O553 O 0.67683 0.77775 0.3657 0.0
O554 O 0.6886 0.74057 0.39058 0.0
O555 O 0.71571 0.75739 0.39116 0.0
C556 C 0.67999 0.76807 0.43762 0.0
O557 O 0.71527 0.79129 0.39523 0.0
O558 O 0.68777 0.80782 0.39592 0.0
In559 In 0.22193 0.71488 0.40608 0.0
O560 O 0.23724 0.70174 0.43396 0.0
O561 O 0.22424 0.73095 0.43545 0.0
C562 C 0.22019 0.68583 0.37828 0.0
C563 C 0.18284 0.72411 0.40784 0.0
C564 C 0.25304 0.73573 0.39105 0.0
O565 O 0.22385 0.68182 0.39653 0.0
O566 O 0.21736 0.70416 0.37445 0.0
O567 O 0.23514 0.74179 0.38912 0.0
O568 O 0.25497 0.71923 0.40009 0.0
C569 C 0.2348 0.71773 0.44396 0.0
O570 O 0.19621 0.73676 0.40313 0.0
O571 O 0.18932 0.70684 0.41246 0.0
In572 In 0.30027 0.22485 0.40164 0.0
O573 O 0.27471 0.20266 0.40449 0.0
O574 O 0.30454 0.19097 0.40254 0.0
C575 C 0.27387 0.25414 0.39201 0.0
C576 C 0.30739 0.23471 0.44018 0.0
C577 C 0.32716 0.22435 0.37136 0.0
O578 O 0.2708 0.23598 0.38755 0.0
O579 O 0.29009 0.25738 0.40114 0.0
O580 O 0.33262 0.2263 0.38943 0.0
O581 O 0.30853 0.22255 0.36887 0.0
C582 C 0.28591 0.18733 0.40382 0.0
O583 O 0.31326 0.24551 0.42577 0.0
O584 O 0.29991 0.21813 0.43496 0.0
In585 In 0.21102 0.28163 0.58827 0.0
O586 O 0.18901 0.25591 0.58971 0.0
O587 O 0.17743 0.28507 0.58299 0.0
C588 C 0.24392 0.26326 0.60298 0.0
C589 C 0.22328 0.28308 0.55001 0.0
C590 C 0.2051 0.30976 0.61653 0.0
O591 O 0.22658 0.25579 0.60492 0.0
O592 O 0.24447 0.27982 0.59386 0.0
O593 O 0.20788 0.31448 0.5983 0.0
O594 O 0.20534 0.29119 0.62014 0.0
C595 C 0.17376 0.2667 0.58623 0.0
O596 O 0.22592 0.29776 0.56178 0.0
O597 O 0.21307 0.26884 0.5572 0.0
In598 In 0.7346 0.2101 0.5838 0.0
O599 O 0.71896 0.2219 0.55571 0.0
O600 O 0.74996 0.21405 0.55406 0.0
C601 C 0.70578 0.20976 0.61198 0.0
C602 C 0.74535 0.17128 0.58343 0.0
C603 C 0.75426 0.24277 0.59705 0.0
O604 O 0.7017 0.21229 0.59358 0.0
O605 O 0.72412 0.20706 0.61585 0.0
O606 O 0.76076 0.22523 0.60043 0.0
O607 O 0.73802 0.24356 0.5874 0.0
C608 C 0.73498 0.22187 0.54548 0.0
O609 O 0.75758 0.18531 0.58723 0.0
O610 O 0.7278 0.17696 0.57891 0.0
In611 In 0.29495 0.7819 0.59161 0.0
O612 O 0.27055 0.80505 0.58675 0.0
O613 O 0.29954 0.81555 0.59543 0.0
C614 C 0.26735 0.75221 0.59362 0.0
C615 C 0.30952 0.77421 0.55478 0.0
C616 C 0.31558 0.77874 0.62626 0.0
O617 O 0.26372 0.76978 0.59973 0.0
O618 O 0.28468 0.74976 0.58651 0.0
O619 O 0.29674 0.7778 0.62515 0.0
O620 O 0.32442 0.78135 0.60966 0.0
C621 C 0.28147 0.81986 0.59142 0.0
O622 O 0.31438 0.7639 0.56991 0.0
O623 O 0.29906 0.7895 0.55876 0.0
H624 H 0.96018 0.17109 0.23858 0.0
H625 H 0.02777 0.26736 0.23949 0.0
H626 H 0.97615 0.20327 0.29258 0.0
H627 H 0.04369 0.21938 0.19884 0.0
H628 H 0.00267 0.24562 0.25478 0.0
H629 H 0.98746 0.18842 0.22075 0.0
C630 C 0.96985 0.18123 0.24687 0.0
C631 C 0.96571 0.18606 0.26701 0.0
C632 C 0.01155 0.23991 0.24239 0.0
C633 C 0.99608 0.20626 0.2466 0.0
C634 C 0.02565 0.25239 0.23345 0.0
C635 C 0.03798 0.24506 0.21805 0.0
C636 C 0.00957 0.22002 0.23576 0.0
C637 C 0.03448 0.22556 0.21074 0.0
C638 C 0.98521 0.19125 0.23661 0.0
C639 C 0.97863 0.19933 0.27699 0.0
N640 N 0.02062 0.21355 0.2198 0.0
N641 N 0.99293 0.20935 0.26656 0.0
H642 H 0.80364 0.9448 0.21981 0.0
H643 H 0.71914 0.02179 0.24917 0.0
H644 H 0.78826 0.95956 0.28107 0.0
H645 H 0.75567 0.0338 0.19692 0.0
H646 H 0.74096 0.99369 0.25756 0.0
H647 H 0.78481 0.97441 0.20842 0.0
C648 C 0.79682 0.95458 0.23089 0.0
C649 C 0.79726 0.94961 0.25141 0.0
C650 C 0.7441 0.00239 0.24417 0.0
C651 C 0.7753 0.98274 0.23845 0.0
C652 C 0.7315 0.01823 0.2392 0.0
C653 C 0.73575 0.03026 0.22245 0.0
C654 C 0.76095 -0.00164 0.2322 0.0
C655 C 0.75193 0.02488 0.21 0.0
C656 C 0.78597 0.97131 0.22435 0.0
C657 C 0.78818 0.96273 0.26512 0.0
N658 N 0.76411 0.00931 0.2152 0.0
N659 N 0.77718 0.97847 0.25835 0.0
H660 H 0.03769 0.78732 0.22977 0.0
H661 H 0.96929 0.6977 0.18929 0.0
H662 H 0.03087 0.72955 0.25849 0.0
H663 H 0.95573 0.75947 0.17487 0.0
H664 H -0.00158 0.70897 0.20837 0.0
H665 H 0.01171 0.77762 0.20531 0.0
C666 C 0.03045 0.77282 0.23119 0.0
C667 C 0.03643 0.75919 0.24614 0.0
C668 C 0.98924 0.72004 0.20076 0.0
C669 C 0.00761 0.74783 0.21794 0.0
C670 C 0.97279 0.7136 0.18962 0.0
C671 C 0.95987 0.7277 0.18084 0.0
C672 C 0.99279 0.74071 0.20308 0.0
C673 C 0.96522 0.74812 0.18163 0.0
C674 C 0.01587 0.76722 0.21711 0.0
C675 C 0.02677 0.74051 0.24718 0.0
N676 N 0.98114 0.7541 0.19294 0.0
N677 N 0.01302 0.7353 0.23314 0.0
H678 H 0.21007 0.94371 0.2009 0.0
H679 H 0.23387 0.02116 0.28553 0.0
H680 H 0.27 0.96485 0.21392 0.0
H681 H 0.18338 0.03438 0.24699 0.0
H682 H 0.24296 0.99342 0.2635 0.0
H683 H 0.19639 0.97247 0.21964 0.0
C684 C 0.22032 0.95469 0.20715 0.0
C685 C 0.24122 0.95176 0.20615 0.0
C686 C 0.22975 0.00228 0.26002 0.0
C687 C 0.22573 0.98383 0.22798 0.0
C688 C 0.22438 0.01792 0.2727 0.0
C689 C 0.20803 0.03025 0.26789 0.0
C690 C 0.21854 -0.00125 0.24257 0.0
C691 C 0.19618 0.02524 0.25114 0.0
C692 C 0.21249 0.97092 0.21794 0.0
C693 C 0.25382 0.96639 0.21451 0.0
N694 N 0.20178 0.00987 0.23886 0.0
N695 N 0.24588 0.98154 0.22551 0.0
H696 H 0.96115 0.80056 0.76658 0.0
H697 H 0.02453 0.70478 0.80117 0.0
H698 H 0.96039 0.74238 0.73788 0.0
H699 H 0.04367 0.76504 0.81553 0.0
H700 H 0.99451 0.7185 0.78533 0.0
H701 H 0.98719 0.78816 0.78976 0.0
C702 C 0.96668 0.78534 0.76495 0.0
C703 C 0.95867 0.77249 0.75027 0.0
C704 C 0.00511 0.72872 0.79226 0.0
C705 C 0.98755 0.75812 0.77704 0.0
C706 C 0.0221 0.72087 0.80155 0.0
C707 C 0.03677 0.73382 0.80927 0.0
C708 C 0.00285 0.74963 0.79066 0.0
C709 C 0.03278 0.75456 0.80952 0.0
C710 C 0.98129 0.77823 0.7783 0.0
C711 C 0.96613 0.75284 0.74895 0.0
N712 N 0.01634 0.76192 0.7999 0.0
N713 N 0.98 0.74623 0.76225 0.0
H714 H 0.27122 0.0272 0.74793 0.0
H715 H 0.18489 0.94966 0.76831 0.0
H716 H 0.23386 0.0351 0.80036 0.0
H717 H 0.20298 0.96857 0.70897 0.0
H718 H 0.20295 0.97849 0.78253 0.0
H719 H 0.24878 0.00085 0.73628 0.0
C720 C 0.2585 0.0231 0.75721 0.0
C721 C 0.25428 0.03345 0.77504 0.0
C722 C 0.2025 0.97652 0.76638 0.0
C723 C 0.22831 0.00358 0.76156 0.0
C724 C 0.19204 0.96024 0.75823 0.0
C725 C 0.19279 0.95655 0.73745 0.0
C726 C 0.21386 0.98882 0.75362 0.0
C727 C 0.20228 0.97069 0.72509 0.0
C728 C 0.24553 0.00827 0.7504 0.0
C729 C 0.23761 0.02743 0.78652 0.0
N730 N 0.21286 0.98595 0.7334 0.0
N731 N 0.22508 0.01287 0.77952 0.0
H732 H 0.02372 0.23018 0.72014 0.0
H733 H 0.94992 0.22562 0.8115 0.0
H734 H 0.0381 0.18876 0.76791 0.0
H735 H 0.96848 0.28068 0.7827 0.0
H736 H 0.97825 0.20819 0.79534 0.0
H737 H -0.00332 0.24386 0.74057 0.0
C738 C 0.02086 0.22363 0.73477 0.0
C739 C 0.03329 0.20853 0.74249 0.0
C740 C 0.97629 0.22417 0.79303 0.0
C741 C 0.00268 0.22438 0.76605 0.0
C742 C 0.96033 0.23418 0.80239 0.0
C743 C 0.95673 0.25455 0.79813 0.0
C744 C 0.98827 0.23468 0.77926 0.0
C745 C 0.97056 0.26491 0.78614 0.0
C746 C 0.00563 0.23162 0.7465 0.0
C747 C 0.02882 0.20046 0.76148 0.0
N748 N 0.98545 0.25476 0.77675 0.0
N749 N 0.01389 0.20866 0.77282 0.0
H750 H 0.80314 0.03395 0.76511 0.0
H751 H 0.71143 0.966 0.8019 0.0
H752 H 0.74063 0.04275 0.7502 0.0
H753 H 0.77304 0.94687 0.80755 0.0
H754 H 0.72296 -0.00095 0.79126 0.0
H755 H 0.79339 0.00548 0.78668 0.0
C756 C 0.78745 0.02982 0.76627 0.0
C757 C 0.77269 0.04053 0.75569 0.0
C758 C 0.73403 0.98779 0.79519 0.0
C759 C 0.76147 0.00873 0.78062 0.0
C760 C 0.72742 0.96903 0.8015 0.0
C761 C 0.74133 0.95377 0.80533 0.0
C762 C 0.75467 0.9911 0.79225 0.0
C763 C 0.76189 0.95835 0.80466 0.0
C764 C 0.78189 0.01377 0.77869 0.0
C765 C 0.75255 0.03481 0.7579 0.0
N766 N 0.76801 0.97655 0.79768 0.0
N767 N 0.74758 0.01936 0.7701 0.0
H768 H 0.2835 0.19612 0.0268 0.0
H769 H 0.19011 0.23287 0.96101 0.0
H770 H 0.22228 0.18564 0.04542 0.0
H771 H 0.25028 0.25691 0.95783 0.0
H772 H 0.20112 0.21041 0.98826 0.0
H773 H 0.27111 0.21117 0.99582 0.0
C774 C 0.26745 0.19647 0.0241 0.0
C775 C 0.25388 0.19002 0.03882 0.0
C776 C 0.21181 0.22068 0.98155 0.0
C777 C 0.2396 0.20775 0.00378 0.0
C778 C 0.20551 0.23362 0.96622 0.0
C779 C 0.2193 0.2468 0.95724 0.0
C780 C 0.23203 0.22085 0.98758 0.0
C781 C 0.23912 0.24703 0.96434 0.0
C782 C 0.26037 0.20529 0.00654 0.0
C783 C 0.23324 0.19065 0.03449 0.0
N784 N 0.2449 0.23417 0.97897 0.0
N785 N 0.22665 0.19981 0.01747 0.0
H786 H 0.23332 0.81255 0.9493 0.0
H787 H 0.23351 0.71632 0.0166 0.0
H788 H 0.28732 0.78325 0.97006 0.0
H789 H 0.19056 0.76267 0.03113 0.0
H790 H 0.24894 0.73874 0.99217 0.0
H791 H 0.21412 0.79442 0.97511 0.0
C792 C 0.24126 0.80292 0.95973 0.0
C793 C 0.2619 0.79907 0.95732 0.0
C794 C 0.23597 0.74391 0.00054 0.0
C795 C 0.24001 0.77795 0.98598 0.0
C796 C 0.22696 0.73103 0.01422 0.0
C797 C 0.21092 0.73777 0.02605 0.0
C798 C 0.22879 0.76359 -0.0015 0.0
C799 C 0.20295 0.75696 0.02228 0.0
C800 C 0.23024 0.79243 0.97424 0.0
C801 C 0.2714 0.78642 0.97119 0.0
N802 N 0.21214 0.76941 0.00889 0.0
N803 N 0.26029 0.7759 0.98459 0.0
H804 H 0.7232 0.24803 0.971 0.0
H805 H 0.7989 0.20941 0.05236 0.0
H806 H 0.74791 0.18834 0.965 0.0
H807 H 0.79638 0.2711 0.03245 0.0
H808 H 0.77942 0.1995 0.02268 0.0
H809 H 0.74692 0.25481 -0.00208 0.0
C810 C 0.73337 0.23619 0.97561 0.0
C811 C 0.73369 0.21763 0.96567 0.0
C812 C 0.78358 0.21511 0.02465 0.0
C813 C 0.7611 0.22546 0.99627 0.0
C814 C 0.79482 0.22077 0.04144 0.0
C815 C 0.79892 0.24117 0.04502 0.0
C816 C 0.77625 0.23002 0.01173 0.0
C817 C 0.79332 0.25525 0.03042 0.0
C818 C 0.7471 0.24019 0.99077 0.0
C819 C 0.7472 0.20285 0.97232 0.0
N820 N 0.78184 0.24947 0.01464 0.0
N821 N 0.76049 0.20709 0.98727 0.0
H822 H 0.802 0.77147 0.94086 0.0
H823 H 0.7133 0.78235 0.01162 0.0
H824 H 0.77983 0.72076 0.97473 0.0
H825 H 0.76567 0.81015 0.0379 0.0
H826 H 0.73431 0.76962 0.98435 0.0
H827 H 0.78712 0.79415 0.96602 0.0
C828 C 0.79463 0.76509 0.95389 0.0
C829 C 0.79187 0.7442 0.9556 0.0
C830 C 0.74098 0.77911 0.99578 0.0
C831 C 0.77465 0.76988 0.98367 0.0
C832 C 0.72903 0.78651 0.01121 0.0
C833 C 0.73786 0.79696 0.0272 0.0
C834 C 0.76174 0.78237 0.99631 0.0
C835 C 0.75835 0.80198 0.02589 0.0
C836 C 0.78609 0.77804 0.96806 0.0
C837 C 0.78215 0.73674 0.97271 0.0
N838 N 0.76984 0.79415 0.0109 0.0
N839 N 0.77342 0.74961 0.98584 0.0
H840 H 0.53274 0.73697 0.69628 0.0
H841 H 0.46634 0.68748 0.78309 0.0
H842 H 0.53594 0.7518 0.75937 0.0
H843 H 0.44626 0.68924 0.72145 0.0
H844 H 0.49799 0.70278 0.77278 0.0
H845 H 0.50523 0.71339 0.70381 0.0
C846 C 0.52751 0.73545 0.71162 0.0
C847 C 0.53651 0.74642 0.72721 0.0
C848 C 0.48678 0.69947 0.76145 0.0
C849 C 0.50592 0.71914 0.73592 0.0
C850 C 0.46883 0.69051 0.76729 0.0
C851 C 0.45351 0.68757 0.75318 0.0
C852 C 0.48936 0.70549 0.74139 0.0
C853 C 0.45761 0.6916 0.73286 0.0
C854 C 0.51204 0.72188 0.71591 0.0
C855 C 0.52939 0.74374 0.74685 0.0
N856 N 0.47505 0.70079 0.72758 0.0
N857 N 0.51462 0.7303 0.75064 0.0
H858 H 0.21083 0.46394 0.75062 0.0
H859 H 0.2564 0.54449 0.67563 0.0
H860 H 0.27351 0.46423 0.73393 0.0
H861 H 0.19287 0.53462 0.68402 0.0
H862 H 0.2633 0.51383 0.69459 0.0
H863 H 0.20443 0.49006 0.72592 0.0
C864 C 0.22333 0.46972 0.74193 0.0
C865 C 0.24275 0.46198 0.74437 0.0
C866 C 0.24784 0.51815 0.69191 0.0
C867 C 0.23544 0.49165 0.71571 0.0
C868 C 0.24388 0.53552 0.68089 0.0
C869 C 0.22403 0.54229 0.67861 0.0
C870 C 0.23183 0.50766 0.70075 0.0
C871 C 0.2084 0.53008 0.68565 0.0
C872 C 0.2196 0.48446 0.72762 0.0
C873 C 0.25833 0.46992 0.73261 0.0
N874 N 0.21265 0.51356 0.69679 0.0
N875 N 0.25433 0.48438 0.71874 0.0
H876 H 0.45551 0.23885 0.69051 0.0
H877 H 0.53708 0.30269 0.75133 0.0
H878 H 0.44117 0.27675 0.74112 0.0
H879 H 0.55067 0.2481 0.71908 0.0
H880 H 0.50199 0.29988 0.74032 0.0
H881 H 0.49085 0.24894 0.69358 0.0
C882 C 0.45978 0.24951 0.70204 0.0
C883 C 0.44562 0.25675 0.71581 0.0
C884 C 0.51277 0.28869 0.73549 0.0
C885 C 0.48559 0.2684 0.71926 0.0
C886 C 0.53271 0.29029 0.74174 0.0
C887 C 0.54656 0.27541 0.73635 0.0
C888 C 0.5069 0.27227 0.72361 0.0
C889 C 0.54028 0.25969 0.72382 0.0
C890 C 0.47986 0.25521 0.70381 0.0
C891 C 0.45178 0.27059 0.73044 0.0
N892 N 0.52084 0.25846 0.71794 0.0
N893 N 0.47137 0.27589 0.73188 0.0
H894 H 0.79237 0.46939 0.69249 0.0
H895 H 0.70126 0.5355 0.73419 0.0
H896 H 0.73068 0.45014 0.68738 0.0
H897 H 0.76356 0.54166 0.75119 0.0
H898 H 0.71077 0.50778 0.71159 0.0
H899 H 0.7809 0.50123 0.70642 0.0
C900 C 0.77637 0.47212 0.69378 0.0
C901 C 0.76247 0.45705 0.68917 0.0
C902 C 0.72226 0.51529 0.72032 0.0
C903 C 0.74926 0.49306 0.70571 0.0
C904 C 0.71684 0.5309 0.73333 0.0
C905 C 0.73164 0.54077 0.74465 0.0
C906 C 0.74259 0.50985 0.71855 0.0
C907 C 0.75163 0.53444 0.74282 0.0
C908 C 0.76983 0.49018 0.70194 0.0
C909 C 0.74189 0.46137 0.69095 0.0
N910 N 0.7565 0.51947 0.72999 0.0
N911 N 0.73586 0.47889 0.69954 0.0
H912 H 0.45022 0.31742 0.26023 0.0
H913 H 0.53224 0.2338 0.24591 0.0
H914 H 0.46747 0.29307 0.20266 0.0
H915 H 0.5383 0.27598 0.29482 0.0
H916 H 0.50463 0.25356 0.23264 0.0
H917 H 0.48064 0.30274 0.27506 0.0
C918 C 0.46075 0.30962 0.25057 0.0
C919 C 0.45621 0.30612 0.23025 0.0
C920 C 0.51194 0.25852 0.2463 0.0
C921 C 0.49033 0.28891 0.24718 0.0
C922 C 0.52753 0.24709 0.25405 0.0
C923 C 0.53765 0.25337 0.27139 0.0
C924 C 0.50625 0.27631 0.25602 0.0
C925 C 0.53082 0.27065 0.28139 0.0
C926 C 0.47794 0.30108 0.2591 0.0
C927 C 0.47026 0.29586 0.21844 0.0
N928 N 0.51548 0.28166 0.27349 0.0
N929 N 0.48648 0.28724 0.22717 0.0
H930 H 0.68901 0.4652 0.24303 0.0
H931 H 0.78067 0.52968 0.28389 0.0
H932 H 0.74526 0.47319 0.21172 0.0
H933 H 0.71972 0.54725 0.29746 0.0
H934 H 0.76774 0.50208 0.26357 0.0
H935 H 0.69944 0.49107 0.26728 0.0
C936 C 0.70329 0.47272 0.24096 0.0
C937 C 0.71635 0.46699 0.22541 0.0
C938 C 0.75722 0.51181 0.27127 0.0
C939 C 0.72857 0.49564 0.25339 0.0
C940 C 0.76458 0.52737 0.28312 0.0
C941 C 0.75123 0.54097 0.29206 0.0
C942 C 0.73642 0.50976 0.26853 0.0
C943 C 0.73051 0.5372 0.29059 0.0
C944 C 0.7093 0.48723 0.25492 0.0
C945 C 0.73475 0.47706 0.22352 0.0
N946 N 0.72366 0.52204 0.27873 0.0
N947 N 0.74045 0.49065 0.23754 0.0
H948 H 0.51657 0.70838 0.20438 0.0
H949 H 0.45469 0.73396 0.30284 0.0
H950 H 0.54007 0.68984 0.26188 0.0
H951 H 0.46206 0.77307 0.2516 0.0
H952 H 0.48024 0.71127 0.28847 0.0
H953 H 0.48768 0.72314 0.22139 0.0
C954 C 0.51526 0.70674 0.22053 0.0
C955 C 0.53088 0.69833 0.2318 0.0
C956 C 0.47627 0.72495 0.2806 0.0
C957 C 0.49832 0.71561 0.2513 0.0
C958 C 0.46198 0.73801 0.28887 0.0
C959 C 0.45621 0.75536 0.27831 0.0
C960 C 0.48428 0.72922 0.26158 0.0
C961 C 0.46593 0.75981 0.26019 0.0
C962 C 0.49895 0.7154 0.23023 0.0
C963 C 0.52838 0.69642 0.25269 0.0
N964 N 0.47924 0.74667 0.25226 0.0
N965 N 0.51256 0.7055 0.26192 0.0
H966 H 0.24879 0.53255 0.2242 0.0
H967 H 0.26172 0.45433 0.31155 0.0
H968 H 0.29704 0.54099 0.26669 0.0
H969 H 0.20438 0.47236 0.28723 0.0
H970 H 0.27733 0.48347 0.29515 0.0
H971 H 0.23567 0.50549 0.24489 0.0
C972 C 0.25686 0.52842 0.23772 0.0
C973 C 0.27389 0.53912 0.24387 0.0
C974 C 0.26127 0.48123 0.29386 0.0
C975 C 0.2587 0.50844 0.26785 0.0
C976 C 0.2523 0.46478 0.30338 0.0
C977 C 0.23178 0.4608 0.30042 0.0
C978 C 0.24958 0.49339 0.28126 0.0
C979 C 0.22029 0.47473 0.28964 0.0
C980 C 0.2492 0.51318 0.24966 0.0
C981 C 0.28385 0.53305 0.26146 0.0
N982 N 0.22943 0.49017 0.28008 0.0
N983 N 0.276 0.51809 0.27301 0.0
H984 H 0.75938 0.76565 0.53481 0.0
H985 H 0.67855 0.73083 0.45501 0.0
H986 H 0.73242 0.70674 0.53793 0.0
H987 H 0.69303 0.7928 0.46744 0.0
H988 H 0.69713 0.72085 0.48514 0.0
H989 H 0.73612 0.77461 0.50819 0.0
C990 C 0.74872 0.75447 0.52968 0.0
C991 C 0.74779 0.73543 0.5386 0.0
C992 C 0.69585 0.73665 0.48148 0.0
C993 C 0.72077 0.74576 0.50833 0.0
C994 C 0.68507 0.74239 0.46443 0.0
C995 C 0.68457 0.76266 0.45856 0.0
C996 C 0.70624 0.7513 0.4925 0.0
C997 C 0.69326 0.777 0.47127 0.0
C998 C 0.73525 0.75969 0.51465 0.0
C999 C 0.73367 0.72155 0.53134 0.0
N1000 N 0.70409 0.771 0.48743 0.0
N1001 N 0.72062 0.72701 0.51658 0.0
H1002 H 0.79274 0.29918 0.46159 0.0
H1003 H 0.7073 0.24633 0.5271 0.0
H1004 H 0.72971 0.30655 0.44825 0.0
H1005 H 0.7691 0.2269 0.52377 0.0
H1006 H 0.71466 0.27237 0.502 0.0
H1007 H 0.7838 0.27862 0.49054 0.0
C1008 C 0.777 0.29699 0.46511 0.0
C1009 C 0.76195 0.30419 0.45228 0.0
C1010 C 0.72651 0.26227 0.50673 0.0
C1011 C 0.75166 0.28025 0.48497 0.0
C1012 C 0.72228 0.24728 0.52081 0.0
C1013 C 0.73761 0.23443 0.52747 0.0
C1014 C 0.74623 0.26449 0.49957 0.0
C1015 C 0.75681 0.23646 0.51905 0.0
C1016 C 0.77191 0.285 0.48146 0.0
C1017 C 0.74179 0.30103 0.45764 0.0
N1018 N 0.76061 0.25132 0.50569 0.0
N1019 N 0.73719 0.28893 0.47342 0.0
H1020 H 0.26492 0.69569 0.46201 0.0
H1021 H 0.30207 0.79359 0.51964 0.0
H1022 H 0.23372 0.75251 0.46488 0.0
H1023 H 0.31449 0.73483 0.54404 0.0
H1024 H 0.28635 0.77775 0.4906 0.0
H1025 H 0.28983 0.70883 0.48611 0.0
C1026 C 0.2631 0.71073 0.46796 0.0
C1027 C 0.24724 0.72304 0.46147 0.0
C1028 C 0.29297 0.76832 0.50209 0.0
C1029 C 0.27597 0.73827 0.48788 0.0
C1030 C 0.30221 0.77735 0.5185 0.0
C1031 C 0.30905 0.7655 0.53448 0.0
C1032 C 0.29062 0.74737 0.50173 0.0
C1033 C 0.30907 0.7445 0.53214 0.0
C1034 C 0.27743 0.71826 0.48141 0.0
C1035 C 0.2457 0.74248 0.46942 0.0
N1036 N 0.29941 0.736 0.51627 0.0
N1037 N 0.26 0.74955 0.48199 0.0
H1038 H 0.21873 0.2534 0.52265 0.0
H1039 H 0.30971 0.2741 0.45218 0.0
H1040 H 0.25544 0.30513 0.53621 0.0
H1041 H 0.29356 0.21483 0.47298 0.0
H1042 H 0.28971 0.28866 0.47956 0.0
H1043 H 0.2436 0.24256 0.49819 0.0
C1044 C 0.23183 0.26273 0.52016 0.0
C1045 C 0.23516 0.28006 0.53163 0.0
C1046 C 0.29106 0.27249 0.47836 0.0
C1047 C 0.26382 0.26751 0.50392 0.0
C1048 C 0.30263 0.26414 0.46293 0.0
C1049 C 0.30292 0.24321 0.4601 0.0
C1050 C 0.27968 0.25973 0.49063 0.0
C1051 C 0.29345 0.23103 0.47441 0.0
C1052 C 0.24614 0.25637 0.50642 0.0
C1053 C 0.25237 0.29165 0.52765 0.0
N1054 N 0.28176 0.23948 0.48875 0.0
N1055 N 0.26625 0.28509 0.51412 0.0
H1056 H 0.14473 0.11818 0.27444 0.0
H1057 H 0.13806 0.23804 0.26716 0.0
H1058 H 0.19167 0.15848 0.29377 0.0
H1059 H 0.09921 0.19755 0.23469 0.0
H1060 H 0.15353 0.20911 0.28384 0.0
H1061 H 0.12349 0.14732 0.26682 0.0
C1062 C 0.1504 0.13314 0.27743 0.0
C1063 C 0.17003 0.136 0.28446 0.0
C1064 C 0.14147 0.2066 0.27321 0.0
C1065 C 0.146 0.16923 0.27578 0.0
C1066 C 0.13264 0.22309 0.26373 0.0
C1067 C 0.11758 0.22011 0.24933 0.0
C1068 C 0.13508 0.18708 0.2683 0.0
C1069 C 0.111 0.20045 0.24551 0.0
C1070 C 0.13834 0.14974 0.273 0.0
C1071 C 0.17669 0.15566 0.2881 0.0
N1072 N 0.1199 0.18465 0.25483 0.0
N1073 N 0.16476 0.17155 0.28356 0.0
H1074 H 0.83901 0.17099 0.30082 0.0
H1075 H 0.78953 0.08216 0.24131 0.0
H1076 H 0.87383 0.12301 0.27472 0.0
H1077 H 0.75585 0.12146 0.28032 0.0
H1078 H 0.82065 0.09423 0.25648 0.0
H1079 H 0.80873 0.15078 0.29704 0.0
C1080 C 0.84028 0.15601 0.29458 0.0
C1081 C 0.85881 0.14871 0.28778 0.0
C1082 C 0.80646 0.09997 0.262 0.0
C1083 C 0.82421 0.12563 0.28304 0.0
C1084 C 0.7887 0.09314 0.25329 0.0
C1085 C 0.77016 0.10112 0.25936 0.0
C1086 C 0.80568 0.11513 0.27663 0.0
C1087 C 0.76987 0.11509 0.27509 0.0
C1088 C 0.823 0.14445 0.29247 0.0
C1089 C 0.85975 0.12917 0.28003 0.0
N1090 N 0.78742 0.12194 0.28295 0.0
N1091 N 0.84256 0.11842 0.27747 0.0
H1092 H 0.88186 0.75246 0.24423 0.0
H1093 H 0.85931 0.86991 0.23496 0.0
H1094 H 0.89104 0.78754 0.19048 0.0
H1095 H 0.83975 0.8332 0.28469 0.0
H1096 H 0.87881 0.84154 0.22221 0.0
H1097 H 0.87334 0.78332 0.2624 0.0
C1098 C 0.88221 0.76667 0.23631 0.0
C1099 C 0.88682 0.76746 0.21577 0.0
C1100 C 0.87054 0.8398 0.23611 0.0
C1101 C 0.87733 0.80272 0.23642 0.0
C1102 C 0.85954 0.85605 0.24348 0.0
C1103 C 0.84762 0.85375 0.26069 0.0
C1104 C 0.86954 0.82119 0.24603 0.0
C1105 C 0.84852 0.83549 0.27119 0.0
C1106 C 0.87741 0.78426 0.24668 0.0
C1107 C 0.88727 0.78625 0.20625 0.0
N1108 N 0.85902 0.81978 0.26351 0.0
N1109 N 0.88243 0.80312 0.21662 0.0
H1110 H 0.20233 0.88927 0.24555 0.0
H1111 H 0.16253 0.78031 0.27631 0.0
H1112 H 0.2373 0.83487 0.24106 0.0
H1113 H 0.12291 0.83027 0.26454 0.0
H1114 H 0.19132 0.80224 0.27102 0.0
H1115 H 0.17454 0.86977 0.25986 0.0
C1116 C 0.20427 0.87328 0.2479 0.0
C1117 C 0.22204 0.86359 0.24197 0.0
C1118 C 0.17635 0.80848 0.26976 0.0
C1119 C 0.19044 0.84133 0.25826 0.0
C1120 C 0.15988 0.79598 0.27281 0.0
C1121 C 0.1403 0.80344 0.27057 0.0
C1122 C 0.17327 0.82862 0.26441 0.0
C1123 C 0.13778 0.82391 0.26624 0.0
C1124 C 0.1884 0.86219 0.25596 0.0
C1125 C 0.22379 0.84288 0.24528 0.0
N1126 N 0.15412 0.83579 0.26309 0.0
N1127 N 0.20814 0.83242 0.25311 0.0
H1128 H 0.09088 0.78901 0.78074 0.0
H1129 H 0.17442 0.82975 0.70726 0.0
H1130 H 0.1264 0.7506 0.74246 0.0
H1131 H 0.13161 0.86841 0.73677 0.0
H1132 H 0.15411 0.80069 0.71641 0.0
H1133 H 0.10257 0.81817 0.7618 0.0
C1134 C 0.10097 0.78671 0.76817 0.0
C1135 C 0.10797 0.76744 0.76333 0.0
C1136 C 0.14891 0.81552 0.7206 0.0
C1137 C 0.12151 0.80072 0.7417 0.0
C1138 C 0.16051 0.83212 0.71538 0.0
C1139 C 0.15478 0.85142 0.72155 0.0
C1140 C 0.13166 0.81822 0.73243 0.0
C1141 C 0.13657 0.85372 0.73185 0.0
C1142 C 0.10758 0.80336 0.75732 0.0
C1143 C 0.12082 0.76525 0.7468 0.0
N1144 N 0.12582 0.83724 0.73734 0.0
N1145 N 0.12743 0.78174 0.73676 0.0
H1146 H 0.24001 0.13053 0.72647 0.0
H1147 H 0.12027 0.13907 0.73302 0.0
H1148 H 0.20293 0.09342 0.76455 0.0
H1149 H 0.15869 0.1842 0.70677 0.0
H1150 H 0.14971 0.11736 0.73761 0.0
H1151 H 0.20956 0.14552 0.71219 0.0
C1152 C 0.22547 0.12534 0.73159 0.0
C1153 C 0.22394 0.11099 0.74691 0.0
C1154 C 0.15161 0.13191 0.73057 0.0
C1155 C 0.18918 0.12796 0.73074 0.0
C1156 C 0.13483 0.14423 0.72789 0.0
C1157 C 0.13717 0.16353 0.71982 0.0
C1158 C 0.17074 0.13897 0.72502 0.0
C1159 C 0.15632 0.16952 0.71336 0.0
C1160 C 0.20811 0.1339 0.72349 0.0
C1161 C 0.20475 0.10469 0.75296 0.0
N1162 N 0.1724 0.15736 0.71627 0.0
N1163 N 0.18811 0.11335 0.74499 0.0
H1164 H 0.86489 0.23852 0.73851 0.0
H1165 H 0.84957 0.11964 0.74598 0.0
H1166 H 0.89487 0.20053 0.78165 0.0
H1167 H 0.81226 0.15905 0.71054 0.0
H1168 H 0.87192 0.148 0.75317 0.0
H1169 H 0.85097 0.20849 0.72241 0.0
C1170 C 0.86875 0.22385 0.74442 0.0
C1171 C 0.88075 0.22197 0.76161 0.0
C1172 C 0.85901 0.15035 0.74355 0.0
C1173 C 0.86494 0.18767 0.74336 0.0
C1174 C 0.84633 0.13415 0.73937 0.0
C1175 C 0.82891 0.13713 0.72794 0.0
C1176 C 0.85417 0.16956 0.7362 0.0
C1177 C 0.8254 0.15621 0.71969 0.0
C1178 C 0.8608 0.20673 0.73525 0.0
C1179 C 0.88541 0.20263 0.76859 0.0
N1180 N 0.83779 0.17176 0.72418 0.0
N1181 N 0.87734 0.18623 0.75955 0.0
H1182 H 0.8395 0.81199 0.70677 0.0
H1183 H 0.79897 0.898 0.77758 0.0
H1184 H 0.87833 0.84957 0.7425 0.0
H1185 H 0.76181 0.86651 0.73482 0.0
H1186 H 0.82881 0.88406 0.76147 0.0
H1187 H 0.81179 0.83509 0.71304 0.0
C1188 C 0.84225 0.82532 0.71569 0.0
C1189 C 0.86112 0.82876 0.7244 0.0
C1190 C 0.81417 0.88045 0.75536 0.0
C1191 C 0.82938 0.85511 0.73194 0.0
C1192 C 0.79712 0.88838 0.76458 0.0
C1193 C 0.77791 0.88311 0.75771 0.0
C1194 C 0.81198 0.86691 0.73934 0.0
C1195 C 0.77636 0.8708 0.7407 0.0
C1196 C 0.82642 0.83853 0.71925 0.0
C1197 C 0.86396 0.84634 0.73563 0.0
N1198 N 0.79318 0.86283 0.7323 0.0
N1199 N 0.84812 0.85869 0.73941 0.0
H1200 H 0.22465 0.08683 0.21329 0.0
H1201 H 0.28604 0.17648 0.16584 0.0
H1202 H 0.26379 0.12527 0.24782 0.0
H1203 H 0.25749 0.13073 0.12992 0.0
H1204 H 0.28102 0.15585 0.19567 0.0
H1205 H 0.23906 0.10042 0.18241 0.0
C1206 C 0.23646 0.09798 0.21436 0.0
C1207 C 0.24286 0.10519 0.2331 0.0
C1208 C 0.27612 0.15012 0.18125 0.0
C1209 C 0.25929 0.12088 0.19786 0.0
C1210 C 0.27896 0.16191 0.16422 0.0
C1211 C 0.27191 0.15536 0.14549 0.0
C1212 C 0.2658 0.1318 0.1796 0.0
C1213 C 0.26304 0.13632 0.14414 0.0
C1214 C 0.24473 0.10568 0.19672 0.0
C1215 C 0.25832 0.11945 0.23365 0.0
N1216 N 0.25989 0.12533 0.16108 0.0
N1217 N 0.26582 0.12706 0.21626 0.0
H1218 H 0.86142 0.23065 0.12619 0.0
H1219 H 0.88437 0.24741 0.24271 0.0
H1220 H 0.83921 0.28091 0.1606 0.0
H1221 H 0.90003 0.19389 0.20964 0.0
H1222 H 0.87377 0.26324 0.21123 0.0
H1223 H 0.8822 0.22076 0.15482 0.0
C1224 C 0.86126 0.23986 0.13961 0.0
C1225 C 0.84834 0.25641 0.14119 0.0
C1226 C 0.87973 0.24811 0.21085 0.0
C1227 C 0.87176 0.24504 0.17405 0.0
C1228 C 0.88575 0.23907 0.2288 0.0
C1229 C 0.89276 0.21922 0.22878 0.0
C1230 C 0.88078 0.23718 0.1928 0.0
C1231 C 0.89442 0.20914 0.21034 0.0
C1232 C 0.87303 0.23415 0.156 0.0
C1233 C 0.84878 0.26787 0.15888 0.0
N1234 N 0.8883 0.21817 0.19312 0.0
N1235 N 0.86006 0.2618 0.17474 0.0
H1236 H 0.76361 0.83308 0.23665 0.0
H1237 H 0.72434 0.84699 0.12458 0.0
H1238 H 0.75344 0.89127 0.20994 0.0
H1239 H 0.72538 0.79019 0.15584 0.0
H1240 H 0.73269 0.864 0.1562 0.0
H1241 H 0.74727 0.81739 0.20783 0.0
C1242 C 0.75771 0.84255 0.2248 0.0
C1243 C 0.76001 0.86345 0.22556 0.0
C1244 C 0.73085 0.84783 0.15615 0.0
C1245 C 0.74155 0.84565 0.19239 0.0
C1246 C 0.7261 0.83815 0.13813 0.0
C1247 C 0.72442 0.81716 0.13758 0.0
C1248 C 0.73403 0.83637 0.17362 0.0
C1249 C 0.72675 0.80639 0.15554 0.0
C1250 C 0.74838 0.83361 0.20834 0.0
C1251 C 0.75203 0.87506 0.20987 0.0
N1252 N 0.73163 0.8161 0.17277 0.0
N1253 N 0.74337 0.86598 0.19377 0.0
H1254 H 0.09376 0.75195 0.19793 0.0
H1255 H 0.18692 0.69715 0.14981 0.0
H1256 H 0.13281 0.71268 0.2316 0.0
H1257 H 0.14052 0.72505 0.11424 0.0
H1258 H 0.16539 0.69945 0.17933 0.0
H1259 H 0.10845 0.73943 0.16678 0.0
C1260 C 0.1053 0.7405 0.19873 0.0
C1261 C 0.11235 0.73354 0.21734 0.0
C1262 C 0.15972 0.70478 0.16504 0.0
C1263 C 0.12934 0.71928 0.18176 0.0
C1264 C 0.17203 0.70351 0.14819 0.0
C1265 C 0.16554 0.7112 0.12968 0.0
C1266 C 0.14093 0.71418 0.16346 0.0
C1267 C 0.14608 0.71906 0.1283 0.0
C1268 C 0.11363 0.7333 0.18094 0.0
C1269 C 0.1271 0.71854 0.21755 0.0
N1270 N 0.13455 0.72071 0.1451 0.0
N1271 N 0.13536 0.71214 0.2 0.0
H1272 H 0.22157 0.90186 0.78898 0.0
H1273 H 0.28926 0.81303 0.82955 0.0
H1274 H 0.25312 0.86047 0.75033 0.0
H1275 H 0.26584 0.85982 0.86777 0.0
H1276 H 0.27968 0.83259 0.80013 0.0
H1277 H 0.24064 0.88917 0.81763 0.0
C1278 C 0.23268 0.89022 0.78651 0.0
C1279 C 0.23559 0.88196 0.76734 0.0
C1280 C 0.2769 0.83879 0.81492 0.0
C1281 C 0.25737 0.86731 0.80004 0.0
C1282 C 0.28237 0.82762 0.83172 0.0
C1283 C 0.27807 0.83475 0.85107 0.0
C1284 C 0.26672 0.85708 0.81747 0.0
C1285 C 0.26932 0.85378 0.85308 0.0
C1286 C 0.24361 0.88303 0.80286 0.0
C1287 C 0.2503 0.86711 0.76491 0.0
N1288 N 0.26357 0.86416 0.83644 0.0
N1289 N 0.26046 0.86005 0.78114 0.0
H1290 H 0.12855 0.26072 0.75649 0.0
H1291 H 0.14316 0.25284 0.87556 0.0
H1292 H 0.09708 0.21842 0.79422 0.0
H1293 H 0.18212 0.28651 0.83619 0.0
H1294 H 0.12102 0.2459 0.84695 0.0
H1295 H 0.14334 0.27588 0.78658 0.0
C1296 C 0.12459 0.25479 0.77111 0.0
C1297 C 0.11185 0.23813 0.77289 0.0
C1298 C 0.13427 0.25505 0.84466 0.0
C1299 C 0.12862 0.25532 0.80728 0.0
C1300 C 0.14683 0.25909 0.86099 0.0
C1301 C 0.1646 0.26999 0.85812 0.0
C1302 C 0.13956 0.26205 0.82544 0.0
C1303 C 0.16868 0.27778 0.83896 0.0
C1304 C 0.13303 0.26341 0.78827 0.0
C1305 C 0.10708 0.23109 0.79219 0.0
N1306 N 0.15637 0.27349 0.8233 0.0
N1307 N 0.1156 0.23961 0.80863 0.0
H1308 H 0.73301 0.14206 0.75873 0.0
H1309 H 0.72995 0.15167 0.87869 0.0
H1310 H 0.76901 0.10622 0.79901 0.0
H1311 H 0.70679 0.19687 0.8384 0.0
H1312 H 0.73834 0.1307 0.84961 0.0
H1313 H 0.71755 0.15845 0.78792 0.0
C1314 C 0.73753 0.13756 0.7737 0.0
C1315 C 0.75246 0.12299 0.77651 0.0
C1316 C 0.73122 0.14513 0.84717 0.0
C1317 C 0.73484 0.14143 0.80979 0.0
C1318 C 0.72636 0.15702 0.86375 0.0
C1319 C 0.71791 0.17608 0.86088 0.0
C1320 C 0.72748 0.15235 0.82768 0.0
C1321 C 0.71352 0.18234 0.84122 0.0
C1322 C 0.72874 0.14689 0.79031 0.0
C1323 C 0.75773 0.11759 0.79619 0.0
N1324 N 0.71849 0.17056 0.82535 0.0
N1325 N 0.74898 0.12686 0.81208 0.0
H1326 H 0.85065 0.73238 0.87768 0.0
H1327 H 0.86301 0.72879 0.75813 0.0
H1328 H 0.81363 0.69622 0.83863 0.0
H1329 H 0.89297 0.77143 0.79671 0.0
H1330 H 0.84913 0.71225 0.78798 0.0
H1331 H 0.87119 0.74188 0.84869 0.0
C1332 C 0.84711 0.72612 0.86308 0.0
C1333 C 0.83029 0.71374 0.86045 0.0
C1334 C 0.85886 0.72515 0.78988 0.0
C1335 C 0.85345 0.7247 0.82728 0.0
C1336 C 0.86673 0.73459 0.77288 0.0
C1337 C 0.8789 0.75164 0.77499 0.0
C1338 C 0.86329 0.73281 0.80907 0.0
C1339 C 0.88342 0.75847 0.79441 0.0
C1340 C 0.85873 0.73164 0.84652 0.0
C1341 C 0.82635 0.70602 0.84124 0.0
N1342 N 0.87553 0.7491 0.81069 0.0
N1343 N 0.8377 0.71181 0.82533 0.0
H1344 H 0.16065 0.2835 0.18759 0.0
H1345 H 0.19826 0.21458 0.09864 0.0
H1346 H 0.12028 0.25293 0.14717 0.0
H1347 H 0.23746 0.25323 0.13286 0.0
H1348 H 0.16924 0.23162 0.11324 0.0
H1349 H 0.18846 0.27623 0.16491 0.0
C1350 C 0.15761 0.27553 0.17372 0.0
C1351 C 0.13824 0.26853 0.16934 0.0
C1352 C 0.18417 0.2366 0.11734 0.0
C1353 C 0.17004 0.25982 0.14347 0.0
C1354 C 0.20074 0.22684 0.10906 0.0
C1355 C 0.22026 0.23232 0.11483 0.0
C1356 C 0.18714 0.25176 0.1317 0.0
C1357 C 0.22265 0.24842 0.12817 0.0
C1358 C 0.1735 0.27138 0.16077 0.0
C1359 C 0.13505 0.25847 0.15113 0.0
N1360 N 0.20627 0.25738 0.1364 0.0
N1361 N 0.15089 0.25406 0.13901 0.0
H1362 H 0.21125 0.77335 0.90591 0.0
H1363 H 0.16566 0.70835 0.81791 0.0
H1364 H 0.24753 0.73894 0.86466 0.0
H1365 H 0.12955 0.73271 0.86588 0.0
H1366 H 0.19588 0.71606 0.83706 0.0
H1367 H 0.18142 0.75569 0.89394 0.0
C1368 C 0.21295 0.76188 0.89448 0.0
C1369 C 0.2318 0.75779 0.886 0.0
C1370 C 0.18138 0.71945 0.8436 0.0
C1371 C 0.19775 0.73765 0.87214 0.0
C1372 C 0.16411 0.71507 0.83266 0.0
C1373 C 0.14515 0.72018 0.84026 0.0
C1374 C 0.17968 0.72937 0.86213 0.0
C1375 C 0.14394 0.72865 0.85948 0.0
C1376 C 0.19592 0.75176 0.8877 0.0
C1377 C 0.23323 0.74266 0.87144 0.0
N1378 N 0.16103 0.73334 0.86964 0.0
N1379 N 0.21635 0.73335 0.86473 0.0
H1380 H 0.22246 0.19964 0.89404 0.0
H1381 H 0.28582 0.1591 0.80186 0.0
H1382 H 0.25996 0.23776 0.85739 0.0
H1383 H 0.25748 0.12008 0.84517 0.0
H1384 H 0.27889 0.18779 0.82355 0.0
H1385 H 0.23713 0.17019 0.87797 0.0
C1386 C 0.23391 0.20179 0.88268 0.0
C1387 C 0.23985 0.22115 0.87682 0.0
C1388 C 0.27442 0.17295 0.82848 0.0
C1389 C 0.25664 0.18749 0.85829 0.0
C1390 C 0.27834 0.15656 0.8161 0.0
C1391 C 0.27197 0.13726 0.82167 0.0
C1392 C 0.26377 0.17006 0.84644 0.0
C1393 C 0.26254 0.13475 0.84031 0.0
C1394 C 0.24234 0.18496 0.87357 0.0
C1395 C 0.25488 0.22308 0.86222 0.0
N1396 N 0.25843 0.15105 0.85193 0.0
N1397 N 0.26259 0.20643 0.85325 0.0
H1398 H 0.78436 0.23307 0.90913 0.0
H1399 H 0.82988 0.2878 0.81454 0.0
H1400 H 0.74873 0.26894 0.86857 0.0
H1401 H 0.86664 0.26355 0.86208 0.0
H1402 H 0.80034 0.28418 0.83587 0.0
H1403 H 0.81482 0.24699 0.89424 0.0
C1404 C 0.78297 0.2441 0.89724 0.0
C1405 C 0.76405 0.24967 0.88982 0.0
C1406 C 0.81488 0.27993 0.84181 0.0
C1407 C 0.79883 0.26548 0.87259 0.0
C1408 C 0.83174 0.28194 0.82962 0.0
C1409 C 0.85063 0.27567 0.83651 0.0
C1410 C 0.81686 0.27125 0.86091 0.0
C1411 C 0.85229 0.26842 0.85619 0.0
C1412 C 0.80037 0.25208 0.88879 0.0
C1413 C 0.76306 0.26416 0.8746 0.0
N1414 N 0.83552 0.26607 0.86762 0.0
N1415 N 0.78025 0.27133 0.86623 0.0
H1416 H 0.72744 0.8569 0.85772 0.0
H1417 H 0.7446 0.73898 0.84906 0.0
H1418 H 0.72351 0.82329 0.80241 0.0
H1419 H 0.74347 0.77046 0.90571 0.0
H1420 H 0.73195 0.76909 0.83247 0.0
H1421 H 0.7291 0.82512 0.87634 0.0
C1422 C 0.72674 0.84285 0.84954 0.0
C1423 C 0.72565 0.84269 0.82851 0.0
C1424 C 0.73414 0.76937 0.84859 0.0
C1425 C 0.72749 0.80643 0.84957 0.0
C1426 C 0.74129 0.75213 0.85806 0.0
C1427 C 0.74529 0.75234 0.87871 0.0
C1428 C 0.7313 0.78703 0.85981 0.0
C1429 C 0.74066 0.76973 0.88971 0.0
C1430 C 0.72763 0.82473 0.86015 0.0
C1431 C 0.72463 0.82411 0.81862 0.0
N1432 N 0.73425 0.78654 0.88005 0.0
N1433 N 0.72576 0.80676 0.82921 0.0
H1434 H 0.75038 0.72463 0.11188 0.0
H1435 H 0.87031 0.72494 0.11577 0.0
H1436 H 0.78789 0.7629 0.07541 0.0
H1437 H 0.83203 0.69989 0.16168 0.0
H1438 H 0.84055 0.73065 0.09474 0.0
H1439 H 0.78051 0.70725 0.12387 0.0
C1440 C 0.76492 0.72908 0.10608 0.0
C1441 C 0.76674 0.74544 0.09296 0.0
C1442 C 0.83876 0.72355 0.10927 0.0
C1443 C 0.80114 0.72578 0.10661 0.0
C1444 C 0.85571 0.72023 0.1212 0.0
C1445 C 0.8535 0.71228 0.14057 0.0
C1446 C 0.81961 0.71874 0.11678 0.0
C1447 C 0.8343 0.70639 0.14694 0.0
C1448 C 0.7821 0.71922 0.11297 0.0
C1449 C 0.7859 0.75056 0.08582 0.0
N1450 N 0.81805 0.70994 0.13517 0.0
N1451 N 0.8024 0.74093 0.09294 0.0
H1452 H 0.21034 0.79026 0.09071 0.0
H1453 H 0.28938 0.83989 0.16527 0.0
H1454 H 0.26071 0.75841 0.11621 0.0
H1455 H 0.23785 0.871 0.14122 0.0
H1456 H 0.28282 0.81198 0.14243 0.0
H1457 H 0.22356 0.82156 0.10436 0.0
C1458 C 0.22429 0.78989 0.09908 0.0
C1459 C 0.23431 0.77169 0.10263 0.0
C1460 C 0.27312 0.82503 0.1419 0.0
C1461 C 0.24951 0.80748 0.11835 0.0
C1462 C 0.2769 0.84101 0.15489 0.0
C1463 C 0.26392 0.85761 0.15534 0.0
C1464 C 0.25616 0.82562 0.12939 0.0
C1465 C 0.2481 0.85838 0.14147 0.0
C1466 C 0.23186 0.80778 0.10683 0.0
C1467 C 0.25243 0.77211 0.11332 0.0
N1468 N 0.24447 0.84243 0.12926 0.0
N1469 N 0.25935 0.78971 0.12103 0.0
H1470 H 0.72656 0.1221 0.15919 0.0
H1471 H 0.76118 0.23661 0.1615 0.0
H1472 H 0.72315 0.15997 0.21172 0.0
H1473 H 0.7559 0.20254 0.1066 0.0
H1474 H 0.74475 0.20927 0.17961 0.0
H1475 H 0.73492 0.15176 0.13896 0.0
C1476 C 0.72734 0.13667 0.1664 0.0
C1477 C 0.72439 0.13857 0.18717 0.0
C1478 C 0.74695 0.20783 0.16355 0.0
C1479 C 0.73403 0.17242 0.16427 0.0
C1480 C 0.75631 0.22346 0.15323 0.0
C1481 C 0.76003 0.22173 0.13259 0.0
C1482 C 0.7415 0.19024 0.15321 0.0
C1483 C 0.75337 0.20441 0.12256 0.0
C1484 C 0.7321 0.15358 0.15487 0.0
C1485 C 0.72551 0.15778 0.19577 0.0
N1486 N 0.74466 0.18919 0.13302 0.0
N1487 N 0.73042 0.1739 0.18433 0.0
H1488 H 0.69263 0.65797 0.79379 0.0
H1489 H 0.60292 0.6998 0.72769 0.0
H1490 H 0.65491 0.62013 0.7571 0.0
H1491 H 0.63503 0.73579 0.77101 0.0
H1492 H 0.61949 0.66983 0.74073 0.0
H1493 H 0.66932 0.68574 0.78866 0.0
C1494 C 0.67922 0.65543 0.78491 0.0
C1495 C 0.67578 0.63684 0.77563 0.0
C1496 C 0.62277 0.68423 0.74755 0.0
C1497 C 0.64922 0.66865 0.76939 0.0
C1498 C 0.61339 0.70136 0.74005 0.0
C1499 C 0.61785 0.72031 0.74813 0.0
C1500 C 0.6369 0.68608 0.76309 0.0
C1501 C 0.63131 0.72147 0.76426 0.0
C1502 C 0.66592 0.6713 0.78197 0.0
C1503 C 0.65814 0.63428 0.76444 0.0
N1504 N 0.64057 0.70459 0.77106 0.0
N1505 N 0.64565 0.65014 0.76134 0.0
H1506 H 0.24993 0.62386 0.74317 0.0
H1507 H 0.36937 0.63575 0.73913 0.0
H1508 H 0.28649 0.60916 0.69169 0.0
H1509 H 0.33227 0.6612 0.78582 0.0
H1510 H 0.33979 0.61895 0.72533 0.0
H1511 H 0.28051 0.63149 0.76218 0.0
C1512 C 0.26439 0.62216 0.73592 0.0
C1513 C 0.26571 0.61616 0.71577 0.0
C1514 C 0.33818 0.62795 0.73878 0.0
C1515 C 0.30065 0.62462 0.7374 0.0
C1516 C 0.35509 0.63741 0.74676 0.0
C1517 C 0.35318 0.65012 0.76345 0.0
C1518 C 0.31928 0.63125 0.74757 0.0
C1519 C 0.33434 0.6517 0.77277 0.0
C1520 C 0.28182 0.62646 0.74677 0.0
C1521 C 0.2848 0.614 0.70712 0.0
N1522 N 0.31804 0.64262 0.76454 0.0
N1523 N 0.30152 0.61833 0.71796 0.0
H1524 H 0.37227 0.30664 0.72385 0.0
H1525 H 0.27718 0.34155 0.7864 0.0
H1526 H 0.34069 0.26761 0.76486 0.0
H1527 H 0.31644 0.38306 0.7558 0.0
H1528 H 0.30142 0.31471 0.7805 0.0
H1529 H 0.35316 0.33516 0.73676 0.0
C1530 C 0.36138 0.30411 0.73568 0.0
C1531 C 0.35787 0.28473 0.74318 0.0
C1532 C 0.3049 0.32973 0.77531 0.0
C1533 C 0.3359 0.31726 0.75795 0.0
C1534 C 0.29106 0.34506 0.77866 0.0
C1535 C 0.29476 0.36448 0.77138 0.0
C1536 C 0.32243 0.33379 0.76433 0.0
C1537 C 0.31301 0.36826 0.76159 0.0
C1538 C 0.35054 0.32041 0.7431 0.0
C1539 C 0.34375 0.2823 0.7586 0.0
N1540 N 0.32607 0.35295 0.75807 0.0
N1541 N 0.33309 0.29837 0.76533 0.0
H1542 H 0.66833 0.30445 0.77824 0.0
H1543 H 0.70657 0.39545 0.71182 0.0
H1544 H 0.62912 0.34223 0.74307 0.0
H1545 H 0.745 0.36197 0.75186 0.0
H1546 H 0.67732 0.37937 0.72692 0.0
H1547 H 0.69565 0.32831 0.77281 0.0
C1548 C 0.6654 0.31794 0.76963 0.0
C1549 C 0.64655 0.32124 0.7608 0.0
C1550 C 0.6921 0.37572 0.73263 0.0
C1551 C 0.67778 0.34847 0.75434 0.0
C1552 C 0.70881 0.38488 0.724 0.0
C1553 C 0.72821 0.37976 0.73041 0.0
C1554 C 0.69483 0.36111 0.7476 0.0
C1555 C 0.73028 0.36618 0.74637 0.0
C1556 C 0.681 0.33157 0.76653 0.0
C1557 C 0.6435 0.33903 0.74996 0.0
N1558 N 0.71378 0.35706 0.75422 0.0
N1559 N 0.65905 0.35184 0.74676 0.0
H1560 H 0.64845 0.38171 0.21953 0.0
H1561 H 0.63843 0.26203 0.22643 0.0
H1562 H 0.69375 0.34016 0.19896 0.0
H1563 H 0.60169 0.30339 0.26024 0.0
H1564 H 0.65443 0.29063 0.20968 0.0
H1565 H 0.62666 0.35314 0.22779 0.0
C1566 C 0.65364 0.3666 0.21642 0.0
C1567 C 0.67298 0.36321 0.20883 0.0
C1568 C 0.64272 0.29341 0.22063 0.0
C1569 C 0.64832 0.33064 0.21822 0.0
C1570 C 0.63359 0.27711 0.23015 0.0
C1571 C 0.61896 0.2804 0.24492 0.0
C1572 C 0.63707 0.31307 0.22587 0.0
C1573 C 0.61313 0.30023 0.24911 0.0
C1574 C 0.64127 0.35033 0.22121 0.0
C1575 C 0.67902 0.34338 0.20506 0.0
N1576 N 0.62231 0.31584 0.23974 0.0
N1577 N 0.66679 0.32782 0.20994 0.0
H1578 H 0.7129 0.5994 0.24818 0.0
H1579 H 0.66047 0.70401 0.22167 0.0
H1580 H 0.73862 0.65752 0.26102 0.0
H1581 H 0.6288 0.64742 0.22136 0.0
H1582 H 0.69147 0.68632 0.22959 0.0
H1583 H 0.68436 0.61602 0.23197 0.0
C1584 C 0.71268 0.61565 0.24732 0.0
C1585 C 0.72801 0.62716 0.2561 0.0
C1586 C 0.67779 0.67772 0.22765 0.0
C1587 C 0.69552 0.64616 0.23767 0.0
C1588 C 0.66007 0.6878 0.22311 0.0
C1589 C 0.642 0.67716 0.22112 0.0
C1590 C 0.67748 0.65682 0.23028 0.0
C1591 C 0.64241 0.65617 0.22293 0.0
C1592 C 0.69637 0.6251 0.23814 0.0
C1593 C 0.72702 0.64812 0.25457 0.0
N1594 N 0.65989 0.64666 0.2276 0.0
N1595 N 0.71097 0.65696 0.24565 0.0
H1596 H 0.34701 0.62392 0.23789 0.0
H1597 H 0.35914 0.74339 0.23171 0.0
H1598 H 0.30449 0.6635 0.20913 0.0
H1599 H 0.39379 0.70539 0.27119 0.0
H1600 H 0.34379 0.71335 0.21701 0.0
H1601 H 0.36921 0.65277 0.24369 0.0
C1602 C 0.34255 0.6386 0.23246 0.0
C1603 C 0.32381 0.64145 0.22331 0.0
C1604 C 0.35492 0.7116 0.22874 0.0
C1605 C 0.34891 0.67436 0.22993 0.0
C1606 C 0.36368 0.72872 0.2371 0.0
C1607 C 0.37748 0.72684 0.25288 0.0
C1608 C 0.36009 0.69252 0.23619 0.0
C1609 C 0.38297 0.70749 0.25923 0.0
C1610 C 0.35514 0.65505 0.23585 0.0
C1611 C 0.31871 0.66074 0.21653 0.0
N1612 N 0.37413 0.69108 0.25099 0.0
N1613 N 0.3311 0.6765 0.22014 0.0
H1614 H 0.32688 0.31732 0.20779 0.0
H1615 H 0.28516 0.40674 0.27343 0.0
H1616 H 0.36484 0.36445 0.23097 0.0
H1617 H 0.24704 0.36657 0.23974 0.0
H1618 H 0.31428 0.39388 0.25521 0.0
H1619 H 0.29738 0.33731 0.21614 0.0
C1620 C 0.32898 0.33205 0.21439 0.0
C1621 C 0.34825 0.33918 0.21897 0.0
C1622 C 0.29953 0.38809 0.25156 0.0
C1623 C 0.31456 0.36201 0.22888 0.0
C1624 C 0.2829 0.39538 0.262 0.0
C1625 C 0.26373 0.38745 0.25828 0.0
C1626 C 0.29697 0.37257 0.2375 0.0
C1627 C 0.2616 0.37293 0.24319 0.0
C1628 C 0.31213 0.34348 0.21913 0.0
C1629 C 0.35019 0.35841 0.22731 0.0
N1630 N 0.27808 0.36573 0.23356 0.0
N1631 N 0.33349 0.36905 0.23236 0.0
H1632 H 0.73033 0.60761 0.69998 0.0
H1633 H 0.78908 0.70353 0.66062 0.0
H1634 H 0.76842 0.64386 0.73789 0.0
H1635 H 0.75927 0.66157 0.62122 0.0
H1636 H 0.7841 0.6804 0.68859 0.0
H1637 H 0.74276 0.62569 0.67065 0.0
C1638 C 0.74142 0.61932 0.70211 0.0
C1639 C 0.7482 0.62444 0.7214 0.0
C1640 C 0.77888 0.67608 0.6738 0.0
C1641 C 0.76245 0.64525 0.68787 0.0
C1642 C 0.78171 0.68929 0.65782 0.0
C1643 C 0.77436 0.68451 0.63865 0.0
C1644 C 0.76837 0.65809 0.67066 0.0
C1645 C 0.76509 0.66583 0.6358 0.0
C1646 C 0.74858 0.62958 0.68533 0.0
C1647 C 0.76272 0.63956 0.72328 0.0
N1648 N 0.76208 0.6534 0.65173 0.0
N1649 N 0.7692 0.64961 0.70672 0.0
H1650 H 0.40059 0.74245 0.717 0.0
H1651 H 0.29884 0.77628 0.66334 0.0
H1652 H 0.3414 0.73477 0.7423 0.0
H1653 H 0.3561 0.77446 0.63298 0.0
H1654 H 0.31548 0.76755 0.6947 0.0
H1655 H 0.38571 0.76054 0.68862 0.0
C1656 C 0.3845 0.74487 0.71674 0.0
C1657 C 0.37214 0.73693 0.73186 0.0
C1658 C 0.32447 0.76922 0.68125 0.0
C1659 C 0.3551 0.75746 0.69953 0.0
C1660 C 0.31499 0.77421 0.66332 0.0
C1661 C 0.3261 0.7758 0.6455 0.0
C1662 C 0.34524 0.76567 0.68138 0.0
C1663 C 0.34699 0.7732 0.64639 0.0
C1664 C 0.37603 0.75511 0.70052 0.0
C1665 C 0.35143 0.74049 0.73085 0.0
N1666 N 0.35589 0.76803 0.66404 0.0
N1667 N 0.34354 0.75036 0.71485 0.0
H1668 H 0.20208 0.36006 0.73524 0.0
H1669 H 0.21448 0.34989 0.61601 0.0
H1670 H 0.23816 0.39978 0.69886 0.0
H1671 H 0.19145 0.30296 0.65434 0.0
H1672 H 0.21588 0.37238 0.64519 0.0
H1673 H 0.19084 0.34297 0.70458 0.0
C1674 C 0.20739 0.36534 0.72079 0.0
C1675 C 0.22129 0.3811 0.71954 0.0
C1676 C 0.21026 0.35723 0.64712 0.0
C1677 C 0.20856 0.36178 0.68458 0.0
C1678 C 0.20939 0.34446 0.63048 0.0
C1679 C 0.20315 0.32451 0.6329 0.0
C1680 C 0.20472 0.34995 0.66617 0.0
C1681 C 0.19666 0.31818 0.65193 0.0
C1682 C 0.20103 0.35559 0.70333 0.0
C1683 C 0.22766 0.38746 0.70048 0.0
N1684 N 0.19778 0.3308 0.66789 0.0
N1685 N 0.22137 0.37768 0.68375 0.0
H1686 H 0.70978 0.19846 0.65104 0.0
H1687 H 0.61744 0.26445 0.68697 0.0
H1688 H 0.66811 0.22615 0.60985 0.0
H1689 H 0.65063 0.22564 0.72691 0.0
H1690 H 0.63491 0.24951 0.65841 0.0
H1691 H 0.68733 0.20667 0.67884 0.0
C1692 C 0.69574 0.20603 0.64783 0.0
C1693 C 0.69084 0.21182 0.62817 0.0
C1694 C 0.63825 0.2441 0.67339 0.0
C1695 C 0.66524 0.22154 0.65992 0.0
C1696 C 0.62836 0.25269 0.68971 0.0
C1697 C 0.63277 0.24639 0.70932 0.0
C1698 C 0.65286 0.22927 0.67672 0.0
C1699 C 0.64689 0.231 0.71202 0.0
C1700 C 0.68293 0.21071 0.6637 0.0
C1701 C 0.67244 0.22148 0.62481 0.0
N1702 N 0.65661 0.2231 0.69589 0.0
N1703 N 0.66042 0.22632 0.6406 0.0
H1704 H 0.76974 0.37458 0.24237 0.0
H1705 H 0.7622 0.37031 0.36217 0.0
H1706 H 0.72821 0.40987 0.27748 0.0
H1707 H 0.79326 0.32653 0.32586 0.0
H1708 H 0.7565 0.39064 0.33195 0.0
H1709 H 0.78504 0.36239 0.27353 0.0
C1710 C 0.76402 0.37994 0.25663 0.0
C1711 C 0.7475 0.39295 0.25741 0.0
C1712 C 0.76487 0.37674 0.33069 0.0
C1713 C 0.76486 0.37917 0.29299 0.0
C1714 C 0.76821 0.36523 0.34793 0.0
C1715 C 0.77791 0.34662 0.34637 0.0
C1716 C 0.77138 0.36955 0.31192 0.0
C1717 C 0.78542 0.34068 0.3276 0.0
C1718 C 0.77273 0.37299 0.27439 0.0
C1719 C 0.74074 0.39957 0.27625 0.0
N1720 N 0.78181 0.35199 0.31106 0.0
N1721 N 0.74933 0.39246 0.29332 0.0
H1722 H 0.61507 0.76982 0.24911 0.0
H1723 H 0.61909 0.76493 0.36886 0.0
H1724 H 0.57866 0.73014 0.28519 0.0
H1725 H 0.66451 0.79205 0.33143 0.0
H1726 H 0.59787 0.76041 0.33903 0.0
H1727 H 0.6267 0.78638 0.27983 0.0
C1728 C 0.6092 0.76489 0.26346 0.0
C1729 C 0.59623 0.74835 0.2647 0.0
C1730 C 0.61233 0.7677 0.33745 0.0
C1731 C 0.6095 0.76705 0.29978 0.0
C1732 C 0.62437 0.77034 0.35445 0.0
C1733 C 0.64367 0.77851 0.35245 0.0
C1734 C 0.61967 0.77343 0.31848 0.0
C1735 C 0.64984 0.78534 0.3335 0.0
C1736 C 0.61588 0.77428 0.28099 0.0
C1737 C 0.58897 0.74262 0.28365 0.0
N1738 N 0.63797 0.78244 0.3172 0.0
N1739 N 0.59593 0.75178 0.30049 0.0
H1740 H 0.23671 0.64806 0.37896 0.0
H1741 H 0.22743 0.63643 0.25962 0.0
H1742 H 0.20532 0.68977 0.34053 0.0
H1743 H 0.26851 0.60222 0.29629 0.0
H1744 H 0.2133 0.65135 0.29015 0.0
H1745 H 0.24239 0.62622 0.3498 0.0
C1746 C 0.23069 0.65241 0.36447 0.0
C1747 C 0.22082 0.67083 0.36203 0.0
C1748 C 0.22527 0.64041 0.29151 0.0
C1749 C 0.22729 0.64614 0.32876 0.0
C1750 C 0.23331 0.63191 0.2741 0.0
C1751 C 0.24934 0.61835 0.27546 0.0
C1752 C 0.23332 0.63525 0.31034 0.0
C1753 C 0.25633 0.61286 0.29459 0.0
C1754 C 0.23401 0.64002 0.34784 0.0
C1755 C 0.21329 0.6758 0.34298 0.0
N1756 N 0.24839 0.62146 0.31128 0.0
N1757 N 0.21685 0.66362 0.32704 0.0
H1758 H 0.36513 0.24031 0.37031 0.0
H1759 H 0.36602 0.24137 0.25018 0.0
H1760 H 0.32007 0.21232 0.33307 0.0
H1761 H 0.40214 0.2806 0.28704 0.0
H1762 H 0.35478 0.2239 0.28053 0.0
H1763 H 0.38455 0.24829 0.34 0.0
C1764 C 0.35956 0.23548 0.3558 0.0
C1765 C 0.34087 0.22595 0.35409 0.0
C1766 C 0.36537 0.23617 0.28194 0.0
C1767 C 0.36281 0.23503 0.31955 0.0
C1768 C 0.3718 0.24611 0.26463 0.0
C1769 C 0.38473 0.26265 0.26618 0.0
C1770 C 0.37199 0.24282 0.30086 0.0
C1771 C 0.3919 0.2681 0.28524 0.0
C1772 C 0.37057 0.24011 0.33853 0.0
C1773 C 0.3343 0.21998 0.33498 0.0
N1774 N 0.38527 0.25834 0.30188 0.0
N1775 N 0.34515 0.22479 0.31843 0.0
H1776 H 0.73644 0.778 0.63833 0.0
H1777 H 0.61811 0.76309 0.65348 0.0
H1778 H 0.70003 0.73774 0.60289 0.0
H1779 H 0.65701 0.79203 0.6965 0.0
H1780 H 0.64656 0.7605 0.6302 0.0
H1781 H 0.70599 0.7899 0.65526 0.0
C1782 C 0.72202 0.77187 0.63395 0.0
C1783 C 0.72073 0.75666 0.61946 0.0
C1784 C 0.64876 0.76767 0.64464 0.0
C1785 C 0.68597 0.77014 0.63864 0.0
C1786 C 0.63253 0.76922 0.65785 0.0
C1787 C 0.63536 0.77748 0.677 0.0
C1788 C 0.66781 0.77455 0.65065 0.0
C1789 C 0.65431 0.78526 0.68196 0.0
C1790 C 0.70467 0.77863 0.64361 0.0
C1791 C 0.70169 0.74929 0.61422 0.0
N1792 N 0.66987 0.78343 0.66894 0.0
N1793 N 0.68506 0.75597 0.62393 0.0
H1794 H 0.73983 0.2466 0.36086 0.0
H1795 H 0.62087 0.254 0.34512 0.0
H1796 H 0.70256 0.29295 0.38665 0.0
H1797 H 0.66033 0.21826 0.30816 0.0
H1798 H 0.64948 0.26232 0.36681 0.0
H1799 H 0.7096 0.23029 0.3476 0.0
C1800 C 0.72527 0.2532 0.36392 0.0
C1801 C 0.72367 0.2713 0.37455 0.0
C1802 C 0.65177 0.2524 0.35412 0.0
C1803 C 0.68915 0.25277 0.35958 0.0
C1804 C 0.63545 0.24757 0.34184 0.0
C1805 C 0.63837 0.23571 0.3247 0.0
C1806 C 0.67101 0.24518 0.34922 0.0
C1807 C 0.65753 0.22772 0.32109 0.0
C1808 C 0.70805 0.24392 0.35636 0.0
C1809 C 0.70446 0.27916 0.37824 0.0
N1810 N 0.67318 0.23276 0.33312 0.0
N1811 N 0.68795 0.26994 0.37063 0.0
H1812 H 0.73733 0.61968 0.3555 0.0
H1813 H 0.74742 0.7368 0.37981 0.0
H1814 H 0.78702 0.65644 0.33593 0.0
H1815 H 0.69328 0.70211 0.38806 0.0
H1816 H 0.76528 0.70593 0.37063 0.0
H1817 H 0.72472 0.64796 0.37526 0.0
C1818 C 0.74587 0.63353 0.35578 0.0
C1819 C 0.76304 0.63587 0.34381 0.0
C1820 C 0.74954 0.70508 0.37464 0.0
C1821 C 0.74856 0.66831 0.36604 0.0
C1822 C 0.73935 0.72267 0.37982 0.0
C1823 C 0.71879 0.72201 0.38437 0.0
C1824 C 0.73909 0.68674 0.37413 0.0
C1825 C 0.70907 0.70331 0.38436 0.0
C1826 C 0.73859 0.64972 0.36693 0.0
C1827 C 0.77356 0.65412 0.34476 0.0
N1828 N 0.71927 0.68644 0.37917 0.0
N1829 N 0.76598 0.66976 0.35542 0.0
H1830 H 0.25347 0.76751 0.36486 0.0
H1831 H 0.37297 0.76348 0.35201 0.0
H1832 H 0.29244 0.7285 0.39896 0.0
H1833 H 0.33264 0.79076 0.30923 0.0
H1834 H 0.34432 0.75736 0.37439 0.0
H1835 H 0.28315 0.7827 0.34921 0.0
C1836 C 0.26827 0.76232 0.3692 0.0
C1837 C 0.27055 0.74653 0.38293 0.0
C1838 C 0.34183 0.76495 0.36022 0.0
C1839 C 0.30442 0.76379 0.36526 0.0
C1840 C 0.35816 0.76852 0.34753 0.0
C1841 C 0.35504 0.77732 0.32867 0.0
C1842 C 0.32238 0.77036 0.35397 0.0
C1843 C 0.3356 0.78362 0.32354 0.0
C1844 C 0.28518 0.77096 0.36029 0.0
C1845 C 0.29004 0.74044 0.38818 0.0
N1846 N 0.31996 0.77984 0.33604 0.0
N1847 N 0.30623 0.74897 0.37922 0.0
H1848 H 0.24184 0.25255 0.36626 0.0
H1849 H 0.2308 0.37217 0.36265 0.0
H1850 H 0.27544 0.29325 0.40391 0.0
H1851 H 0.20935 0.33205 0.31648 0.0
H1852 H 0.24007 0.34293 0.3831 0.0
H1853 H 0.2228 0.28115 0.3531 0.0
C1854 C 0.245 0.26747 0.37196 0.0
C1855 C 0.26043 0.27063 0.38591 0.0
C1856 C 0.23304 0.34057 0.36862 0.0
C1857 C 0.23881 0.3033 0.37099 0.0
C1858 C 0.22768 0.35722 0.35702 0.0
C1859 C 0.21962 0.35444 0.33777 0.0
C1860 C 0.23016 0.32111 0.3609 0.0
C1861 C 0.21583 0.3348 0.33115 0.0
C1862 C 0.23417 0.28377 0.36443 0.0
C1863 C 0.26385 0.29023 0.39291 0.0
N1864 N 0.22131 0.31887 0.3426 0.0
N1865 N 0.25326 0.30586 0.38523 0.0
H1866 H 0.32456 0.212 0.68853 0.0
H1867 H 0.2827 0.27373 0.59563 0.0
H1868 H 0.36179 0.24833 0.64984 0.0
H1869 H 0.24658 0.23222 0.6299 0.0
H1870 H 0.31263 0.2614 0.61276 0.0
H1871 H 0.29684 0.21571 0.6648 0.0
C1872 C 0.32698 0.22052 0.67487 0.0
C1873 C 0.34538 0.23013 0.67125 0.0
C1874 C 0.29822 0.25479 0.6164 0.0
C1875 C 0.31369 0.23464 0.64418 0.0
C1876 C 0.28111 0.26186 0.60666 0.0
C1877 C 0.26214 0.25416 0.6116 0.0
C1878 C 0.29631 0.24008 0.63139 0.0
C1879 C 0.26094 0.23865 0.62579 0.0
C1880 C 0.31115 0.22263 0.66133 0.0
C1881 C 0.34778 0.24082 0.65328 0.0
N1882 N 0.27779 0.2323 0.63542 0.0
N1883 N 0.332 0.24304 0.64053 0.0
H1884 H 0.78312 0.24623 0.62622 0.0
H1885 H 0.7733 0.36603 0.62973 0.0
H1886 H 0.74735 0.28106 0.58488 0.0
H1887 H 0.79498 0.32976 0.67889 0.0
H1888 H 0.7715 0.33573 0.6088 0.0
H1889 H 0.79531 0.27757 0.64132 0.0
C1890 C 0.7781 0.26047 0.62014 0.0
C1891 C 0.76398 0.26114 0.60456 0.0
C1892 C 0.77692 0.33449 0.6241 0.0
C1893 C 0.77778 0.29684 0.6216 0.0
C1894 C 0.778 0.35176 0.63598 0.0
C1895 C 0.78396 0.35026 0.6561 0.0
C1896 C 0.78198 0.31575 0.63243 0.0
C1897 C 0.78997 0.33146 0.6635 0.0
C1898 C 0.785 0.27831 0.62876 0.0
C1899 C 0.758 0.27993 0.59712 0.0
N1900 N 0.78866 0.3149 0.65172 0.0
N1901 N 0.76479 0.29705 0.60583 0.0
H1902 H 0.19763 0.67046 0.66019 0.0
H1903 H 0.27042 0.71448 0.57804 0.0
H1904 H 0.22832 0.6336 0.61662 0.0
H1905 H 0.23288 0.75125 0.61598 0.0
H1906 H 0.25092 0.685 0.58782 0.0
H1907 H 0.20561 0.70016 0.64031 0.0
C1908 C 0.20574 0.6686 0.64619 0.0
C1909 C 0.21265 0.64965 0.64017 0.0
C1910 C 0.24668 0.69955 0.59374 0.0
C1911 C 0.2222 0.68359 0.61754 0.0
C1912 C 0.25784 0.71638 0.58819 0.0
C1913 C 0.25346 0.73523 0.59654 0.0
C1914 C 0.23124 0.70156 0.60797 0.0
C1915 C 0.23688 0.73693 0.60939 0.0
C1916 C 0.2103 0.68557 0.63483 0.0
C1917 C 0.22287 0.64801 0.62184 0.0
N1918 N 0.22658 0.72022 0.61502 0.0
N1919 N 0.22773 0.66485 0.61135 0.0
H1920 H 0.16601 0.40308 0.24369 0.0
H1921 H 0.08884 0.31863 0.2662 0.0
H1922 H 0.14526 0.38809 0.30322 0.0
H1923 H 0.1034 0.33879 0.20638 0.0
H1924 H 0.10176 0.35013 0.27966 0.0
H1925 H 0.1364 0.38674 0.2296 0.0
C1926 C 0.15493 0.39679 0.25382 0.0
C1927 C 0.15834 0.39636 0.2746 0.0
C1928 C 0.10171 0.34795 0.26354 0.0
C1929 C 0.12469 0.37728 0.25861 0.0
C1930 C 0.09433 0.32994 0.25586 0.0
C1931 C 0.0956 0.32595 0.23523 0.0
C1932 C 0.1109 0.36179 0.25051 0.0
C1933 C 0.10248 0.34119 0.22244 0.0
C1934 C 0.13801 0.38744 0.24577 0.0
C1935 C 0.14338 0.38836 0.28707 0.0
N1936 N 0.11041 0.35826 0.23034 0.0
N1937 N 0.12744 0.37866 0.27885 0.0
H1938 H 0.64869 0.09898 0.21134 0.0
H1939 H 0.59856 0.16346 0.29743 0.0
H1940 H 0.66503 0.09655 0.27402 0.0
H1941 H 0.59531 0.17635 0.234 0.0
H1942 H 0.61165 0.12999 0.28954 0.0
H1943 H 0.61829 0.11748 0.2204 0.0
C1944 C 0.64557 0.10179 0.22707 0.0
C1945 C 0.65966 0.09684 0.24192 0.0
C1946 C 0.60752 0.13995 0.27736 0.0
C1947 C 0.62515 0.11808 0.2523 0.0
C1948 C 0.60001 0.15901 0.28184 0.0
C1949 C 0.59644 0.1728 0.26632 0.0
C1950 C 0.61139 0.13478 0.25726 0.0
C1951 C 0.59839 0.16628 0.2464 0.0
C1952 C 0.62825 0.1124 0.23222 0.0
C1953 C 0.65477 0.10059 0.26207 0.0
N1954 N 0.60611 0.14784 0.24243 0.0
N1955 N 0.63811 0.11141 0.26665 0.0
H1956 H 0.815 0.59385 0.2364 0.0
H1957 H 0.89795 0.67555 0.2437 0.0
H1958 H 0.84095 0.61232 0.29282 0.0
H1959 H 0.88303 0.64552 0.18824 0.0
H1960 H 0.88213 0.64825 0.26236 0.0
H1961 H 0.84409 0.60757 0.21886 0.0
C1962 C 0.82708 0.60039 0.24512 0.0
C1963 C 0.82543 0.60238 0.26601 0.0
C1964 C 0.88271 0.64735 0.24613 0.0
C1965 C 0.85852 0.61853 0.24607 0.0
C1966 C 0.89172 0.66296 0.23547 0.0
C1967 C 0.89135 0.66297 0.21442 0.0
C1968 C 0.87292 0.63189 0.23561 0.0
C1969 C 0.88335 0.64621 0.20449 0.0
C1970 C 0.84372 0.60822 0.23512 0.0
C1971 C 0.84157 0.61073 0.27665 0.0
N1972 N 0.87401 0.63155 0.21517 0.0
N1973 N 0.85725 0.61898 0.26651 0.0
H1974 H 0.40012 0.8318 0.23587 0.0
H1975 H 0.30856 0.8956 0.26367 0.0
H1976 H 0.38489 0.84533 0.29735 0.0
H1977 H 0.33545 0.8971 0.20472 0.0
H1978 H 0.34042 0.88392 0.27753 0.0
H1979 H 0.38197 0.86172 0.22509 0.0
C1980 C 0.39344 0.84145 0.24715 0.0
C1981 C 0.39354 0.83591 0.26744 0.0
C1982 C 0.33957 0.88732 0.26164 0.0
C1983 C 0.37217 0.86973 0.25525 0.0
C1984 C 0.32134 0.89395 0.25373 0.0
C1985 C 0.31925 0.89672 0.23296 0.0
C1986 C 0.3556 0.883 0.24858 0.0
C1987 C 0.33633 0.89471 0.22079 0.0
C1988 C 0.38305 0.85855 0.24101 0.0
C1989 C 0.3849 0.84899 0.2815 0.0
N1990 N 0.35366 0.88744 0.2287 0.0
N1991 N 0.374 0.86501 0.27509 0.0
H1992 H 0.11325 0.64903 0.80019 0.0
H1993 H 0.14325 0.61423 0.69034 0.0
H1994 H 0.08817 0.67326 0.74556 0.0
H1995 H 0.17684 0.60048 0.74405 0.0
H1996 H 0.11554 0.62629 0.71124 0.0
H1997 H 0.12842 0.62183 0.78069 0.0
C1998 C 0.11044 0.64829 0.78418 0.0
C1999 C 0.09992 0.66367 0.77435 0.0
C2000 C 0.12881 0.62023 0.71845 0.0
C2001 C 0.11735 0.63285 0.75202 0.0
C2002 C 0.14461 0.61333 0.70653 0.0
C2003 C 0.16252 0.60686 0.71552 0.0
C2004 C 0.13103 0.62068 0.73943 0.0
C2005 C 0.16342 0.60577 0.73654 0.0
C2006 C 0.11918 0.63282 0.77305 0.0
C2007 C 0.09657 0.66191 0.75363 0.0
N2008 N 0.14802 0.61296 0.7478 0.0
N2009 N 0.10561 0.647 0.74307 0.0
H2010 H 0.38782 0.18662 0.77198 0.0
H2011 H 0.33176 0.09427 0.73387 0.0
H2012 H 0.39508 0.16428 0.71158 0.0
H2013 H 0.34141 0.10499 0.79702 0.0
H2014 H 0.36127 0.11455 0.72623 0.0
H2015 H 0.37768 0.1531 0.78278 0.0
C2016 C 0.38777 0.17452 0.7611 0.0
C2017 C 0.39169 0.17831 0.74077 0.0
C2018 C 0.35737 0.11201 0.74181 0.0
C2019 C 0.37972 0.14005 0.75287 0.0
C2020 C 0.3405 0.10038 0.74616 0.0
C2021 C 0.33389 0.09846 0.76604 0.0
C2022 C 0.36721 0.12223 0.75745 0.0
C2023 C 0.34586 0.10643 0.78144 0.0
C2024 C 0.38202 0.15534 0.76727 0.0
C2025 C 0.39174 0.16207 0.72734 0.0
N2026 N 0.36161 0.11854 0.77679 0.0
N2027 N 0.38526 0.14374 0.73352 0.0
H2028 H 0.82029 0.4011 0.75588 0.0
H2029 H 0.90369 0.32143 0.7421 0.0
H2030 H 0.84947 0.38969 0.69914 0.0
H2031 H 0.88466 0.34265 0.80029 0.0
H2032 H 0.89 0.35179 0.72689 0.0
H2033 H 0.84894 0.38619 0.77321 0.0
C2034 C 0.83298 0.39594 0.74709 0.0
C2035 C 0.83228 0.39605 0.72605 0.0
C2036 C 0.88922 0.35011 0.74305 0.0
C2037 C 0.86488 0.37862 0.74569 0.0
C2038 C 0.89703 0.33274 0.75172 0.0
C2039 C 0.89481 0.32936 0.77237 0.0
C2040 C 0.87867 0.36389 0.75508 0.0
C2041 C 0.88637 0.34459 0.78423 0.0
C2042 C 0.84936 0.38741 0.75699 0.0
C2043 C 0.84922 0.38948 0.7154 0.0
N2044 N 0.87809 0.36098 0.77534 0.0
N2045 N 0.86463 0.38053 0.72532 0.0
H2046 H 0.67661 0.895 0.74129 0.0
H2047 H 0.5912 0.82407 0.77345 0.0
H2048 H 0.65619 0.88975 0.80258 0.0
H2049 H 0.6009 0.84121 0.71174 0.0
H2050 H 0.6088 0.85429 0.78429 0.0
H2051 H 0.64425 0.88214 0.72979 0.0
C2052 C 0.66513 0.89158 0.75231 0.0
C2053 C 0.66926 0.89283 0.77292 0.0
C2054 C 0.60662 0.85182 0.76836 0.0
C2055 C 0.63236 0.87784 0.75995 0.0
C2056 C 0.59652 0.83457 0.76219 0.0
C2057 C 0.59508 0.82998 0.74172 0.0
C2058 C 0.61587 0.86415 0.75392 0.0
C2059 C 0.60197 0.84412 0.72771 0.0
C2060 C 0.64661 0.88428 0.74575 0.0
C2061 C 0.65377 0.88855 0.78654 0.0
N2062 N 0.61266 0.86031 0.73407 0.0
N2063 N 0.63616 0.88077 0.77984 0.0
H2064 H 0.247 0.17544 0.40883 0.0
H2065 H 0.26556 0.08754 0.33415 0.0
H2066 H 0.30582 0.1529 0.39362 0.0
H2067 H 0.2068 0.10481 0.3553 0.0
H2068 H 0.28058 0.10473 0.36279 0.0
H2069 H 0.23225 0.14411 0.39686 0.0
C2070 C 0.25685 0.16369 0.40339 0.0
C2071 C 0.27759 0.16694 0.40165 0.0
C2072 C 0.26437 0.10437 0.36151 0.0
C2073 C 0.26082 0.13122 0.38759 0.0
C2074 C 0.25579 0.09452 0.34515 0.0
C2075 C 0.23498 0.09528 0.34212 0.0
C2076 C 0.25204 0.11542 0.3746 0.0
C2077 C 0.22297 0.1042 0.35694 0.0
C2078 C 0.24843 0.14577 0.39656 0.0
C2079 C 0.2897 0.15112 0.39484 0.0
N2080 N 0.23171 0.11442 0.37228 0.0
N2081 N 0.28109 0.13411 0.38759 0.0
H2082 H 0.88686 0.192 0.35106 0.0
H2083 H 0.84595 0.29943 0.38348 0.0
H2084 H 0.90553 0.24818 0.32466 0.0
H2085 H 0.81504 0.24344 0.39415 0.0
H2086 H 0.87542 0.28057 0.37224 0.0
H2087 H 0.86872 0.2107 0.37704 0.0
C2088 C 0.88767 0.20826 0.35111 0.0
C2089 C 0.89729 0.21863 0.33549 0.0
C2090 C 0.86233 0.27243 0.37746 0.0
C2091 C 0.87658 0.23997 0.36494 0.0
C2092 C 0.84553 0.28316 0.38389 0.0
C2093 C 0.82791 0.27294 0.38927 0.0
C2094 C 0.86146 0.25138 0.37648 0.0
C2095 C 0.82822 0.25188 0.38973 0.0
C2096 C 0.87723 0.2189 0.36585 0.0
C2097 C 0.89795 0.23966 0.33626 0.0
N2098 N 0.84464 0.24177 0.38309 0.0
N2099 N 0.88742 0.24967 0.35055 0.0
H2100 H 0.7975 0.87796 0.33914 0.0
H2101 H 0.69134 0.84433 0.38237 0.0
H2102 H 0.74027 0.89367 0.31308 0.0
H2103 H 0.74732 0.81391 0.39433 0.0
H2104 H 0.71004 0.87159 0.36629 0.0
H2105 H 0.77992 0.86403 0.36832 0.0
C2106 C 0.78127 0.87899 0.33983 0.0
C2107 C 0.77024 0.88652 0.32353 0.0
C2108 C 0.71823 0.85916 0.37286 0.0
C2109 C 0.75018 0.87066 0.35667 0.0
C2110 C 0.70759 0.84364 0.38208 0.0
C2111 C 0.71781 0.82666 0.38923 0.0
C2112 C 0.73918 0.85765 0.37089 0.0
C2113 C 0.73886 0.82658 0.38862 0.0
C2114 C 0.77127 0.87098 0.35642 0.0
C2115 C 0.74928 0.88761 0.32519 0.0
N2116 N 0.74887 0.8417 0.37928 0.0
N2117 N 0.73988 0.87946 0.34134 0.0
H2118 H 0.16435 0.7605 0.40469 0.0
H2119 H 0.0961 0.71419 0.32451 0.0
H2120 H 0.15295 0.69682 0.40125 0.0
H2121 H 0.09412 0.77711 0.33988 0.0
H2122 H 0.11018 0.7069 0.35753 0.0
H2123 H 0.13274 0.76679 0.38731 0.0
C2124 C 0.15485 0.74786 0.4008 0.0
C2125 C 0.16146 0.72811 0.40387 0.0
C2126 C 0.10617 0.72226 0.35396 0.0
C2127 C 0.12564 0.7351 0.38343 0.0
C2128 C 0.09816 0.72641 0.33506 0.0
C2129 C 0.09451 0.74633 0.3293 0.0
C2130 C 0.11104 0.73821 0.36691 0.0
C2131 C 0.09711 0.76157 0.34362 0.0
C2132 C 0.13679 0.75143 0.39085 0.0
C2133 C 0.14852 0.71228 0.39883 0.0
N2134 N 0.10576 0.75726 0.36159 0.0
N2135 N 0.13147 0.71609 0.38828 0.0
H2136 H 0.24332 0.83282 0.58378 0.0
H2137 H 0.25305 0.90647 0.67484 0.0
H2138 H 0.29968 0.85197 0.60939 0.0
H2139 H 0.1967 0.88849 0.64836 0.0
H2140 H 0.27049 0.89503 0.64472 0.0
H2141 H 0.22667 0.86109 0.60011 0.0
C2142 C 0.25229 0.84331 0.59241 0.0
C2143 C 0.27278 0.83974 0.59578 0.0
C2144 C 0.25427 0.89398 0.64526 0.0
C2145 C 0.25379 0.87182 0.61484 0.0
C2146 C 0.2443 0.90051 0.66248 0.0
C2147 C 0.22348 0.89787 0.66427 0.0
C2148 C 0.24334 0.88442 0.62993 0.0
C2149 C 0.21283 0.89042 0.64771 0.0
C2150 C 0.24277 0.85943 0.60178 0.0
C2151 C 0.28376 0.85395 0.60677 0.0
N2152 N 0.22294 0.8835 0.63139 0.0
N2153 N 0.27403 0.8691 0.61636 0.0
H2154 H 0.13986 0.28857 0.59366 0.0
H2155 H 0.09563 0.19477 0.65148 0.0
H2156 H 0.16139 0.2277 0.58809 0.0
H2157 H 0.08982 0.25661 0.66997 0.0
H2158 H 0.10789 0.20614 0.61871 0.0
H2159 H 0.11004 0.27601 0.61107 0.0
C2160 C 0.13796 0.2725 0.59543 0.0
C2161 C 0.15333 0.25916 0.59003 0.0
C2162 C 0.10337 0.2172 0.62976 0.0
C2163 C 0.11951 0.24481 0.60998 0.0
C2164 C 0.09636 0.21074 0.64843 0.0
C2165 C 0.09229 0.22481 0.66357 0.0
C2166 C 0.10622 0.23782 0.62632 0.0
C2167 C 0.0933 0.24529 0.65882 0.0
C2168 C 0.12099 0.26536 0.60545 0.0
C2169 C 0.15007 0.2385 0.59251 0.0
N2170 N 0.10053 0.25121 0.6407 0.0
N2171 N 0.13369 0.23196 0.60273 0.0
H2172 H 0.80033 0.0896 0.6594 0.0
H2173 H 0.71901 0.14043 0.58957 0.0
H2174 H 0.73685 0.09341 0.67181 0.0
H2175 H 0.78226 0.15456 0.58971 0.0
H2176 H 0.72606 0.11042 0.60954 0.0
H2177 H 0.79382 0.10033 0.62481 0.0
C2178 C 0.78496 0.09205 0.65466 0.0
C2179 C 0.76913 0.09121 0.66854 0.0
C2180 C 0.73846 0.11974 0.60461 0.0
C2181 C 0.76164 0.10339 0.62922 0.0
C2182 C 0.73447 0.13682 0.59314 0.0
C2183 C 0.75003 0.15028 0.58859 0.0
C2184 C 0.7581 0.11622 0.61146 0.0
C2185 C 0.76978 0.14479 0.5934 0.0
C2186 C 0.78127 0.09819 0.63495 0.0
C2187 C 0.74951 0.09437 0.66164 0.0
N2188 N 0.77323 0.12838 0.605 0.0
N2189 N 0.74633 0.10069 0.64252 0.0
H2190 H 0.84193 0.71509 0.5958 0.0
H2191 H 0.90065 0.79881 0.65612 0.0
H2192 H 0.82621 0.77793 0.59784 0.0
H2193 H 0.90093 0.73545 0.66969 0.0
H2194 H 0.88494 0.79138 0.62369 0.0
H2195 H 0.87439 0.72313 0.61109 0.0
C2196 C 0.84559 0.73067 0.59882 0.0
C2197 C 0.83121 0.74583 0.59615 0.0
C2198 C 0.88906 0.77907 0.6335 0.0
C2199 C 0.86809 0.75504 0.61361 0.0
C2200 C 0.89808 0.78328 0.65196 0.0
C2201 C 0.90152 0.76773 0.66574 0.0
C2202 C 0.88359 0.75921 0.62893 0.0
C2203 C 0.89804 0.74789 0.65961 0.0
C2204 C 0.86407 0.73522 0.60758 0.0
C2205 C 0.83674 0.76575 0.60014 0.0
N2206 N 0.88888 0.7442 0.64178 0.0
N2207 N 0.85462 0.76976 0.60907 0.0
H2208 H 0.3125 0.2547 0.09219 0.0
H2209 H 0.40126 0.24521 0.16814 0.0
H2210 H 0.34076 0.19848 0.10774 0.0
H2211 H 0.37814 0.30191 0.14691 0.0
H2212 H 0.38544 0.22846 0.13967 0.0
H2213 H 0.34177 0.27259 0.10508 0.0
C2214 C 0.32508 0.2461 0.0979 0.0
C2215 C 0.32401 0.22512 0.09943 0.0
C2216 C 0.38418 0.24463 0.14092 0.0
C2217 C 0.35737 0.24547 0.11454 0.0
C2218 C 0.39324 0.2542 0.15719 0.0
C2219 C 0.39053 0.27487 0.16012 0.0
C2220 C 0.37199 0.25578 0.12778 0.0
C2221 C 0.3803 0.28586 0.14536 0.0
C2222 C 0.34182 0.25633 0.10527 0.0
C2223 C 0.34083 0.2147 0.10664 0.0
N2224 N 0.37095 0.2761 0.13007 0.0
N2225 N 0.35664 0.22501 0.11438 0.0
H2226 H 0.4055 0.75108 0.81812 0.0
H2227 H 0.3292 0.74113 0.90628 0.0
H2228 H 0.38781 0.69458 0.84448 0.0
H2229 H 0.35101 0.79779 0.88361 0.0
H2230 H 0.35781 0.72428 0.89082 0.0
H2231 H 0.39357 0.76845 0.84809 0.0
C2232 C 0.39954 0.74228 0.83045 0.0
C2233 C 0.39707 0.72144 0.82863 0.0
C2234 C 0.35667 0.74046 0.88962 0.0
C2235 C 0.38302 0.74122 0.86277 0.0
C2236 C 0.34032 0.75009 0.89847 0.0
C2237 C 0.33748 0.77077 0.8957 0.0
C2238 C 0.36997 0.75157 0.87756 0.0
C2239 C 0.35247 0.78173 0.88578 0.0
C2240 C 0.39272 0.75221 0.84759 0.0
C2241 C 0.38961 0.71073 0.84515 0.0
N2242 N 0.36782 0.77191 0.87658 0.0
N2243 N 0.38236 0.7208 0.86135 0.0
H2244 H 0.25379 0.32913 0.89801 0.0
H2245 H 0.2013 0.40109 0.82623 0.0
H2246 H 0.18982 0.33913 0.90024 0.0
H2247 H 0.26448 0.40604 0.83972 0.0
H2248 H 0.19606 0.38446 0.85845 0.0
H2249 H 0.25811 0.3622 0.88284 0.0
C2250 C 0.24071 0.33856 0.89582 0.0
C2251 C 0.22139 0.33125 0.89985 0.0
C2252 C 0.211 0.38971 0.8547 0.0
C2253 C 0.2261 0.36881 0.882 0.0
C2254 C 0.21397 0.39921 0.83627 0.0
C2255 C 0.23342 0.40439 0.83011 0.0
C2256 C 0.22769 0.38489 0.8667 0.0
C2257 C 0.24927 0.4019 0.84376 0.0
C2258 C 0.24315 0.35748 0.88717 0.0
C2259 C 0.20496 0.34412 0.89701 0.0
N2260 N 0.24617 0.39175 0.86119 0.0
N2261 N 0.20762 0.36208 0.88768 0.0
H2262 H 0.60322 0.22253 0.80939 0.0
H2263 H 0.65628 0.26312 0.90279 0.0
H2264 H 0.59677 0.28398 0.82893 0.0
H2265 H 0.64606 0.19981 0.89356 0.0
H2266 H 0.62786 0.27057 0.88094 0.0
H2267 H 0.61196 0.21292 0.84366 0.0
C2268 C 0.60319 0.23392 0.82102 0.0
C2269 C 0.59985 0.25415 0.81627 0.0
C2270 C 0.63139 0.25501 0.88414 0.0
C2271 C 0.61021 0.24339 0.85539 0.0
C2272 C 0.64762 0.25077 0.89668 0.0
C2273 C 0.65384 0.23086 0.89945 0.0
C2274 C 0.62178 0.23921 0.87394 0.0
C2275 C 0.64196 0.21541 0.89145 0.0
C2276 C 0.60812 0.22843 0.84063 0.0
C2277 C 0.59966 0.26826 0.83192 0.0
N2278 N 0.62686 0.21991 0.8785 0.0
N2279 N 0.60533 0.2627 0.85071 0.0
H2280 H 0.77221 0.59092 0.82458 0.0
H2281 H 0.73547 0.65829 0.90943 0.0
H2282 H 0.70984 0.59411 0.84175 0.0
H2283 H 0.79751 0.64086 0.90278 0.0
H2284 H 0.72538 0.62793 0.89163 0.0
H2285 H 0.78174 0.60148 0.85832 0.0
C2286 C 0.76054 0.59337 0.83567 0.0
C2287 C 0.74024 0.59219 0.83031 0.0
C2288 C 0.74119 0.63035 0.8946 0.0
C2289 C 0.75092 0.60486 0.86875 0.0
C2290 C 0.74695 0.6477 0.90484 0.0
C2291 C 0.76737 0.65243 0.90688 0.0
C2292 C 0.75601 0.61801 0.886 0.0
C2293 C 0.78159 0.63804 0.90102 0.0
C2294 C 0.76596 0.59936 0.85497 0.0
C2295 C 0.72569 0.59518 0.84525 0.0
N2296 N 0.77568 0.62176 0.89024 0.0
N2297 N 0.73129 0.60199 0.86367 0.0
H2298 H 0.66524 0.73558 0.08044 0.0
H2299 H 0.58633 0.76083 0.16383 0.0
H2300 H 0.64858 0.79576 0.09779 0.0
H2301 H 0.60155 0.70069 0.14504 0.0
H2302 H 0.60123 0.77388 0.13299 0.0
H2303 H 0.63481 0.7229 0.09644 0.0
C2304 C 0.6549 0.74619 0.08718 0.0
C2305 C 0.65968 0.76667 0.08834 0.0
C2306 C 0.60092 0.75779 0.13535 0.0
C2307 C 0.62509 0.75225 0.10703 0.0
C2308 C 0.59239 0.75033 0.15297 0.0
C2309 C 0.59326 0.72972 0.15722 0.0
C2310 C 0.61065 0.74454 0.12211 0.0
C2311 C 0.60096 0.71675 0.14251 0.0
C2312 C 0.63752 0.73894 0.09636 0.0
C2313 C 0.64563 0.77979 0.09693 0.0
N2314 N 0.6098 0.72442 0.12581 0.0
N2315 N 0.62919 0.7723 0.10641 0.0
H2316 H 0.2928 0.60257 0.1539 0.0
H2317 H 0.20107 0.64725 0.0926 0.0
H2318 H 0.23042 0.59753 0.17073 0.0
H2319 H 0.26189 0.66947 0.08991 0.0
H2320 H 0.21306 0.61778 0.111 0.0
H2321 H 0.28247 0.61554 0.12104 0.0
C2322 C 0.27693 0.60361 0.15045 0.0
C2323 C 0.2624 0.59951 0.16514 0.0
C2324 C 0.22385 0.62882 0.10583 0.0
C2325 C 0.25058 0.6142 0.12779 0.0
C2326 C 0.21704 0.64559 0.09526 0.0
C2327 C 0.23048 0.66102 0.09027 0.0
C2328 C 0.24418 0.62757 0.1113 0.0
C2329 C 0.251 0.65808 0.09394 0.0
C2330 C 0.27106 0.61104 0.13174 0.0
C2331 C 0.24207 0.60098 0.15991 0.0
N2332 N 0.25721 0.64185 0.10461 0.0
N2333 N 0.23674 0.60854 0.14175 0.0
H2334 H 0.76604 0.40708 0.15269 0.0
H2335 H 0.74265 0.30767 0.09735 0.0
H2336 H 0.70579 0.38792 0.13859 0.0
H2337 H 0.80193 0.33373 0.10003 0.0
H2338 H 0.72824 0.34051 0.10498 0.0
H2339 H 0.77884 0.38538 0.12612 0.0
C2340 C 0.75546 0.39876 0.14353 0.0
C2341 C 0.73492 0.39884 0.14811 0.0
C2342 C 0.74439 0.3392 0.10344 0.0
C2343 C 0.74944 0.37345 0.11821 0.0
C2344 C 0.75261 0.32042 0.09914 0.0
C2345 C 0.77351 0.31792 0.09863 0.0
C2346 C 0.7572 0.35545 0.10764 0.0
C2347 C 0.78573 0.33495 0.1007 0.0
C2348 C 0.76276 0.38629 0.12838 0.0
C2349 C 0.7218 0.38803 0.13569 0.0
N2350 N 0.77741 0.35292 0.1056 0.0
N2351 N 0.72934 0.37525 0.12167 0.0
loop_
_geom_bond_atom_site_label_1
_geom_bond_atom_site_label_2
_geom_bond_distance
_geom_bond_site_symmetry_2
_ccdc_geom_bond_type
In0 O1 2.294 . S
In0 O2 2.326 . S
In0 O6 2.266 . S
In0 O7 2.326 . S
In0 O8 2.266 . S
In0 O9 2.326 . S
In0 O11 2.294 . S
In0 O12 2.326 . S
O1 In0 2.294 . S
O1 C10 1.240 . S
O2 In0 2.326 . S
O2 C10 1.252 . S
C3 O6 1.252 . S
C3 O7 1.260 . S
C4 O11 1.240 . S
C4 O12 1.252 . S
C5 O8 1.252 . S
C5 O9 1.260 . S
O6 In0 2.266 . S
O6 C3 1.252 . S
O7 In0 2.326 . S
O7 C3 1.260 . S
O8 In0 2.266 . S
O8 C5 1.252 . S
O9 In0 2.326 . S
O9 C5 1.260 . S
C10 O1 1.240 . S
C10 O2 1.252 . S
O11 In0 2.294 . S
O11 C4 1.240 . S
O12 In0 2.326 . S
O12 C4 1.252 . S
In13 O14 2.294 . S
In13 O15 2.326 . S
In13 O19 2.266 . S
In13 O20 2.326 . S
In13 O21 2.266 . S
In13 O22 2.326 . S
In13 O24 2.294 . S
In13 O25 2.326 . S
O14 In13 2.294 . S
O14 C23 1.240 . S
O15 In13 2.326 . S
O15 C23 1.252 . S
C16 O19 1.252 . S
C16 O20 1.260 . S
C17 O24 1.240 . S
C17 O25 1.252 . S
C18 O21 1.252 . S
C18 O22 1.260 . S
O19 In13 2.266 . S
O19 C16 1.252 . S
O20 In13 2.326 . S
O20 C16 1.260 . S
O21 In13 2.266 . S
O21 C18 1.252 . S
O22 In13 2.326 . S
O22 C18 1.260 . S
C23 O14 1.240 . S
C23 O15 1.252 . S
O24 In13 2.294 . S
O24 C17 1.240 . S
O25 In13 2.326 . S
O25 C17 1.252 . S
In26 O27 2.294 . S
In26 O28 2.326 . S
In26 O32 2.266 . S
In26 O33 2.326 . S
In26 O34 2.266 . S
In26 O35 2.326 . S
In26 O37 2.294 . S
In26 O38 2.326 . S
O27 In26 2.294 . S
O27 C36 1.240 . S
O28 In26 2.326 . S
O28 C36 1.252 . S
C29 O32 1.252 . S
C29 O33 1.260 . S
C30 O37 1.240 . S
C30 O38 1.252 . S
C31 O34 1.252 . S
C31 O35 1.260 . S
O32 In26 2.266 . S
O32 C29 1.252 . S
O33 In26 2.326 . S
O33 C29 1.260 . S
O34 In26 2.266 . S
O34 C31 1.252 . S
O35 In26 2.326 . S
O35 C31 1.260 . S
C36 O27 1.240 . S
C36 O28 1.252 . S
O37 In26 2.294 . S
O37 C30 1.240 . S
O38 In26 2.326 . S
O38 C30 1.252 . S
In39 O40 2.294 . S
In39 O41 2.326 . S
In39 O45 2.266 . S
In39 O46 2.326 . S
In39 O47 2.266 . S
In39 O48 2.326 . S
In39 O50 2.294 . S
In39 O51 2.326 . S
O40 In39 2.294 . S
O40 C49 1.240 . S
O41 In39 2.326 . S
O41 C49 1.252 . S
C42 O45 1.252 . S
C42 O46 1.260 . S
C43 O50 1.240 . S
C43 O51 1.252 . S
C44 O47 1.252 . S
C44 O48 1.260 . S
O45 In39 2.266 . S
O45 C42 1.252 . S
O46 In39 2.326 . S
O46 C42 1.260 . S
O47 In39 2.266 . S
O47 C44 1.252 . S
O48 In39 2.326 . S
O48 C44 1.260 . S
C49 O40 1.240 . S
C49 O41 1.252 . S
O50 In39 2.294 . S
O50 C43 1.240 . S
O51 In39 2.326 . S
O51 C43 1.252 . S
In52 O53 2.294 . S
In52 O54 2.326 . S
In52 O58 2.266 . S
In52 O59 2.326 . S
In52 O60 2.266 . S
In52 O61 2.326 . S
In52 O63 2.294 . S
In52 O64 2.326 . S
O53 In52 2.294 . S
O53 C62 1.240 . S
O54 In52 2.326 . S
O54 C62 1.252 . S
C55 O58 1.252 . S
C55 O59 1.260 . S
C56 O63 1.240 . S
C56 O64 1.252 . S
C57 O60 1.252 . S
C57 O61 1.260 . S
O58 In52 2.266 . S
O58 C55 1.252 . S
O59 In52 2.326 . S
O59 C55 1.260 . S
O60 In52 2.266 . S
O60 C57 1.252 . S
O61 In52 2.326 . S
O61 C57 1.260 . S
C62 O53 1.240 . S
C62 O54 1.252 . S
O63 In52 2.294 . S
O63 C56 1.240 . S
O64 In52 2.326 . S
O64 C56 1.252 . S
In65 O66 2.294 . S
In65 O67 2.326 . S
In65 O71 2.266 . S
In65 O72 2.326 . S
In65 O73 2.266 . S
In65 O74 2.326 . S
In65 O76 2.294 . S
In65 O77 2.326 . S
O66 In65 2.294 . S
O66 C75 1.240 . S
O67 In65 2.326 . S
O67 C75 1.252 . S
C68 O71 1.252 . S
C68 O72 1.260 . S
C69 O76 1.240 . S
C69 O77 1.252 . S
C70 O73 1.252 . S
C70 O74 1.260 . S
O71 In65 2.266 . S
O71 C68 1.252 . S
O72 In65 2.326 . S
O72 C68 1.260 . S
O73 In65 2.266 . S
O73 C70 1.252 . S
O74 In65 2.326 . S
O74 C70 1.260 . S
C75 O66 1.240 . S
C75 O67 1.252 . S
O76 In65 2.294 . S
O76 C69 1.240 . S
O77 In65 2.326 . S
O77 C69 1.252 . S
In78 O79 2.294 . S
In78 O80 2.326 . S
In78 O84 2.266 . S
In78 O85 2.326 . S
In78 O86 2.266 . S
In78 O87 2.326 . S
In78 O89 2.294 . S
In78 O90 2.326 . S
O79 In78 2.294 . S
O79 C88 1.240 . S
O80 In78 2.326 . S
O80 C88 1.252 . S
C81 O84 1.252 . S
C81 O85 1.260 . S
C82 O89 1.240 . S
C82 O90 1.252 . S
C83 O86 1.252 . S
C83 O87 1.260 . S
O84 In78 2.266 . S
O84 C81 1.252 . S
O85 In78 2.326 . S
O85 C81 1.260 . S
O86 In78 2.266 . S
O86 C83 1.252 . S
O87 In78 2.326 . S
O87 C83 1.260 . S
C88 O79 1.240 . S
C88 O80 1.252 . S
O89 In78 2.294 . S
O89 C82 1.240 . S
O90 In78 2.326 . S
O90 C82 1.252 . S
In91 O92 2.294 . S
In91 O93 2.326 . S
In91 O97 2.266 . S
In91 O98 2.326 . S
In91 O99 2.266 . S
In91 O100 2.326 . S
In91 O102 2.294 . S
In91 O103 2.326 . S
O92 In91 2.294 . S
O92 C101 1.240 . S
O93 In91 2.326 . S
O93 C101 1.252 . S
C94 O97 1.252 . S
C94 O98 1.260 . S
C95 O102 1.240 . S
C95 O103 1.252 . S
C96 O99 1.252 . S
C96 O100 1.260 . S
O97 In91 2.266 . S
O97 C94 1.252 . S
O98 In91 2.326 . S
O98 C94 1.260 . S
O99 In91 2.266 . S
O99 C96 1.252 . S
O100 In91 2.326 . S
O100 C96 1.260 . S
C101 O92 1.240 . S
C101 O93 1.252 . S
O102 In91 2.294 . S
O102 C95 1.240 . S
O103 In91 2.326 . S
O103 C95 1.252 . S
In104 O105 2.294 . S
In104 O106 2.326 . S
In104 O110 2.266 . S
In104 O111 2.326 . S
In104 O112 2.266 . S
In104 O113 2.326 . S
In104 O115 2.294 . S
In104 O116 2.326 . S
O105 In104 2.294 . S
O105 C114 1.240 . S
O106 In104 2.326 . S
O106 C114 1.252 . S
C107 O110 1.252 . S
C107 O111 1.260 . S
C108 O115 1.240 . S
C108 O116 1.252 . S
C109 O112 1.252 . S
C109 O113 1.260 . S
O110 In104 2.266 . S
O110 C107 1.252 . S
O111 In104 2.326 . S
O111 C107 1.260 . S
O112 In104 2.266 . S
O112 C109 1.252 . S
O113 In104 2.326 . S
O113 C109 1.260 . S
C114 O105 1.240 . S
C114 O106 1.252 . S
O115 In104 2.294 . S
O115 C108 1.240 . S
O116 In104 2.326 . S
O116 C108 1.252 . S
In117 O118 2.294 . S
In117 O119 2.326 . S
In117 O123 2.266 . S
In117 O124 2.326 . S
In117 O125 2.266 . S
In117 O126 2.326 . S
In117 O128 2.294 . S
In117 O129 2.326 . S
O118 In117 2.294 . S
O118 C127 1.240 . S
O119 In117 2.326 . S
O119 C127 1.252 . S
C120 O123 1.252 . S
C120 O124 1.260 . S
C121 O128 1.240 . S
C121 O129 1.252 . S
C122 O125 1.252 . S
C122 O126 1.260 . S
O123 In117 2.266 . S
O123 C120 1.252 . S
O124 In117 2.326 . S
O124 C120 1.260 . S
O125 In117 2.266 . S
O125 C122 1.252 . S
O126 In117 2.326 . S
O126 C122 1.260 . S
C127 O118 1.240 . S
C127 O119 1.252 . S
O128 In117 2.294 . S
O128 C121 1.240 . S
O129 In117 2.326 . S
O129 C121 1.252 . S
In130 O131 2.294 . S
In130 O132 2.326 . S
In130 O136 2.266 . S
In130 O137 2.326 . S
In130 O138 2.266 . S
In130 O139 2.326 . S
In130 O141 2.294 . S
In130 O142 2.326 . S
O131 In130 2.294 . S
O131 C140 1.240 . S
O132 In130 2.326 . S
O132 C140 1.252 . S
C133 O136 1.252 . S
C133 O137 1.260 . S
C134 O141 1.240 . S
C134 O142 1.252 . S
C135 O138 1.252 . S
C135 O139 1.260 . S
O136 In130 2.266 . S
O136 C133 1.252 . S
O137 In130 2.326 . S
O137 C133 1.260 . S
O138 In130 2.266 . S
O138 C135 1.252 . S
O139 In130 2.326 . S
O139 C135 1.260 . S
C140 O131 1.240 . S
C140 O132 1.252 . S
O141 In130 2.294 . S
O141 C134 1.240 . S
O142 In130 2.326 . S
O142 C134 1.252 . S
In143 O144 2.294 . S
In143 O145 2.326 . S
In143 O149 2.266 . S
In143 O150 2.326 . S
In143 O151 2.266 . S
In143 O152 2.326 . S
In143 O154 2.294 . S
In143 O155 2.326 . S
O144 In143 2.294 . S
O144 C153 1.240 . S
O145 In143 2.326 . S
O145 C153 1.252 . S
C146 O149 1.252 . S
C146 O150 1.260 . S
C147 O154 1.240 . S
C147 O155 1.252 . S
C148 O151 1.252 . S
C148 O152 1.260 . S
O149 In143 2.266 . S
O149 C146 1.252 . S
O150 In143 2.326 . S
O150 C146 1.260 . S
O151 In143 2.266 . S
O151 C148 1.252 . S
O152 In143 2.326 . S
O152 C148 1.260 . S
C153 O144 1.240 . S
C153 O145 1.252 . S
O154 In143 2.294 . S
O154 C147 1.240 . S
O155 In143 2.326 . S
O155 C147 1.252 . S
In156 O157 2.294 . S
In156 O158 2.326 . S
In156 O162 2.266 . S
In156 O163 2.326 . S
In156 O164 2.266 . S
In156 O165 2.326 . S
In156 O167 2.294 . S
In156 O168 2.326 . S
O157 In156 2.294 . S
O157 C166 1.240 . S
O158 In156 2.326 . S
O158 C166 1.252 . S
C159 O162 1.252 . S
C159 O163 1.260 . S
C160 O167 1.240 . S
C160 O168 1.252 . S
C161 O164 1.252 . S
C161 O165 1.260 . S
O162 In156 2.266 . S
O162 C159 1.252 . S
O163 In156 2.326 . S
O163 C159 1.260 . S
O164 In156 2.266 . S
O164 C161 1.252 . S
O165 In156 2.326 . S
O165 C161 1.260 . S
C166 O157 1.240 . S
C166 O158 1.252 . S
O167 In156 2.294 . S
O167 C160 1.240 . S
O168 In156 2.326 . S
O168 C160 1.252 . S
In169 O170 2.294 . S
In169 O171 2.326 . S
In169 O175 2.266 . S
In169 O176 2.326 . S
In169 O177 2.266 . S
In169 O178 2.326 . S
In169 O180 2.294 . S
In169 O181 2.326 . S
O170 In169 2.294 . S
O170 C179 1.240 . S
O171 In169 2.326 . S
O171 C179 1.252 . S
C172 O175 1.252 . S
C172 O176 1.260 . S
C173 O180 1.240 . S
C173 O181 1.252 . S
C174 O177 1.252 . S
C174 O178 1.260 . S
O175 In169 2.266 . S
O175 C172 1.252 . S
O176 In169 2.326 . S
O176 C172 1.260 . S
O177 In169 2.266 . S
O177 C174 1.252 . S
O178 In169 2.326 . S
O178 C174 1.260 . S
C179 O170 1.240 . S
C179 O171 1.252 . S
O180 In169 2.294 . S
O180 C173 1.240 . S
O181 In169 2.326 . S
O181 C173 1.252 . S
In182 O183 2.294 . S
In182 O184 2.326 . S
In182 O188 2.266 . S
In182 O189 2.326 . S
In182 O190 2.266 . S
In182 O191 2.326 . S
In182 O193 2.294 . S
In182 O194 2.326 . S
O183 In182 2.294 . S
O183 C192 1.240 . S
O184 In182 2.326 . S
O184 C192 1.252 . S
C185 O188 1.252 . S
C185 O189 1.260 . S
C186 O193 1.240 . S
C186 O194 1.252 . S
C187 O190 1.252 . S
C187 O191 1.260 . S
O188 In182 2.266 . S
O188 C185 1.252 . S
O189 In182 2.326 . S
O189 C185 1.260 . S
O190 In182 2.266 . S
O190 C187 1.252 . S
O191 In182 2.326 . S
O191 C187 1.260 . S
C192 O183 1.240 . S
C192 O184 1.252 . S
O193 In182 2.294 . S
O193 C186 1.240 . S
O194 In182 2.326 . S
O194 C186 1.252 . S
In195 O196 2.294 . S
In195 O197 2.326 . S
In195 O201 2.266 . S
In195 O202 2.326 . S
In195 O203 2.266 . S
In195 O204 2.326 . S
In195 O206 2.294 . S
In195 O207 2.326 . S
O196 In195 2.294 . S
O196 C205 1.240 . S
O197 In195 2.326 . S
O197 C205 1.252 . S
C198 O201 1.252 . S
C198 O202 1.260 . S
C199 O206 1.240 . S
C199 O207 1.252 . S
C200 O203 1.252 . S
C200 O204 1.260 . S
O201 In195 2.266 . S
O201 C198 1.252 . S
O202 In195 2.326 . S
O202 C198 1.260 . S
O203 In195 2.266 . S
O203 C200 1.252 . S
O204 In195 2.326 . S
O204 C200 1.260 . S
C205 O196 1.240 . S
C205 O197 1.252 . S
O206 In195 2.294 . S
O206 C199 1.240 . S
O207 In195 2.326 . S
O207 C199 1.252 . S
In208 O209 2.294 . S
In208 O210 2.326 . S
In208 O214 2.266 . S
In208 O215 2.326 . S
In208 O216 2.266 . S
In208 O217 2.326 . S
In208 O219 2.294 . S
In208 O220 2.326 . S
O209 In208 2.294 . S
O209 C218 1.240 . S
O210 In208 2.326 . S
O210 C218 1.252 . S
C211 O214 1.252 . S
C211 O215 1.260 . S
C212 O219 1.240 . S
C212 O220 1.252 . S
C213 O216 1.252 . S
C213 O217 1.260 . S
O214 In208 2.266 . S
O214 C211 1.252 . S
O215 In208 2.326 . S
O215 C211 1.260 . S
O216 In208 2.266 . S
O216 C213 1.252 . S
O217 In208 2.326 . S
O217 C213 1.260 . S
C218 O209 1.240 . S
C218 O210 1.252 . S
O219 In208 2.294 . S
O219 C212 1.240 . S
O220 In208 2.326 . S
O220 C212 1.252 . S
In221 O222 2.294 . S
In221 O223 2.326 . S
In221 O227 2.266 . S
In221 O228 2.326 . S
In221 O229 2.266 . S
In221 O230 2.326 . S
In221 O232 2.294 . S
In221 O233 2.326 . S
O222 In221 2.294 . S
O222 C231 1.240 . S
O223 In221 2.326 . S
O223 C231 1.252 . S
C224 O227 1.252 . S
C224 O228 1.260 . S
C225 O232 1.240 . S
C225 O233 1.252 . S
C226 O229 1.252 . S
C226 O230 1.260 . S
O227 In221 2.266 . S
O227 C224 1.252 . S
O228 In221 2.326 . S
O228 C224 1.260 . S
O229 In221 2.266 . S
O229 C226 1.252 . S
O230 In221 2.326 . S
O230 C226 1.260 . S
C231 O222 1.240 . S
C231 O223 1.252 . S
O232 In221 2.294 . S
O232 C225 1.240 . S
O233 In221 2.326 . S
O233 C225 1.252 . S
In234 O235 2.294 . S
In234 O236 2.326 . S
In234 O240 2.266 . S
In234 O241 2.326 . S
In234 O242 2.266 . S
In234 O243 2.326 . S
In234 O245 2.294 . S
In234 O246 2.326 . S
O235 In234 2.294 . S
O235 C244 1.240 . S
O236 In234 2.326 . S
O236 C244 1.252 . S
C237 O240 1.252 . S
C237 O241 1.260 . S
C238 O245 1.240 . S
C238 O246 1.252 . S
C239 O242 1.252 . S
C239 O243 1.260 . S
O240 In234 2.266 . S
O240 C237 1.252 . S
O241 In234 2.326 . S
O241 C237 1.260 . S
O242 In234 2.266 . S
O242 C239 1.252 . S
O243 In234 2.326 . S
O243 C239 1.260 . S
C244 O235 1.240 . S
C244 O236 1.252 . S
O245 In234 2.294 . S
O245 C238 1.240 . S
O246 In234 2.326 . S
O246 C238 1.252 . S
In247 O248 2.294 . S
In247 O249 2.326 . S
In247 O253 2.266 . S
In247 O254 2.326 . S
In247 O255 2.266 . S
In247 O256 2.326 . S
In247 O258 2.294 . S
In247 O259 2.326 . S
O248 In247 2.294 . S
O248 C257 1.240 . S
O249 In247 2.326 . S
O249 C257 1.252 . S
C250 O253 1.252 . S
C250 O254 1.260 . S
C251 O258 1.240 . S
C251 O259 1.252 . S
C252 O255 1.252 . S
C252 O256 1.260 . S
O253 In247 2.266 . S
O253 C250 1.252 . S
O254 In247 2.326 . S
O254 C250 1.260 . S
O255 In247 2.266 . S
O255 C252 1.252 . S
O256 In247 2.326 . S
O256 C252 1.260 . S
C257 O248 1.240 . S
C257 O249 1.252 . S
O258 In247 2.294 . S
O258 C251 1.240 . S
O259 In247 2.326 . S
O259 C251 1.252 . S
In260 O261 2.294 . S
In260 O262 2.326 . S
In260 O266 2.266 . S
In260 O267 2.326 . S
In260 O268 2.266 . S
In260 O269 2.326 . S
In260 O271 2.294 . S
In260 O272 2.326 . S
O261 In260 2.294 . S
O261 C270 1.240 . S
O262 In260 2.326 . S
O262 C270 1.252 . S
C263 O266 1.252 . S
C263 O267 1.260 . S
C264 O271 1.240 . S
C264 O272 1.252 . S
C265 O268 1.252 . S
C265 O269 1.260 . S
O266 In260 2.266 . S
O266 C263 1.252 . S
O267 In260 2.326 . S
O267 C263 1.260 . S
O268 In260 2.266 . S
O268 C265 1.252 . S
O269 In260 2.326 . S
O269 C265 1.260 . S
C270 O261 1.240 . S
C270 O262 1.252 . S
O271 In260 2.294 . S
O271 C264 1.240 . S
O272 In260 2.326 . S
O272 C264 1.252 . S
In273 O274 2.294 . S
In273 O275 2.326 . S
In273 O279 2.266 . S
In273 O280 2.326 . S
In273 O281 2.266 . S
In273 O282 2.326 . S
In273 O284 2.294 . S
In273 O285 2.326 . S
O274 In273 2.294 . S
O274 C283 1.240 . S
O275 In273 2.326 . S
O275 C283 1.252 . S
C276 O279 1.252 . S
C276 O280 1.260 . S
C277 O284 1.240 . S
C277 O285 1.252 . S
C278 O281 1.252 . S
C278 O282 1.260 . S
O279 In273 2.266 . S
O279 C276 1.252 . S
O280 In273 2.326 . S
O280 C276 1.260 . S
O281 In273 2.266 . S
O281 C278 1.252 . S
O282 In273 2.326 . S
O282 C278 1.260 . S
C283 O274 1.240 . S
C283 O275 1.252 . S
O284 In273 2.294 . S
O284 C277 1.240 . S
O285 In273 2.326 . S
O285 C277 1.252 . S
In286 O287 2.294 . S
In286 O288 2.326 . S
In286 O292 2.266 . S
In286 O293 2.326 . S
In286 O294 2.266 . S
In286 O295 2.326 . S
In286 O297 2.294 . S
In286 O298 2.326 . S
O287 In286 2.294 . S
O287 C296 1.240 . S
O288 In286 2.326 . S
O288 C296 1.252 . S
C289 O292 1.252 . S
C289 O293 1.260 . S
C290 O297 1.240 . S
C290 O298 1.252 . S
C291 O294 1.252 . S
C291 O295 1.260 . S
O292 In286 2.266 . S
O292 C289 1.252 . S
O293 In286 2.326 . S
O293 C289 1.260 . S
O294 In286 2.266 . S
O294 C291 1.252 . S
O295 In286 2.326 . S
O295 C291 1.260 . S
C296 O287 1.240 . S
C296 O288 1.252 . S
O297 In286 2.294 . S
O297 C290 1.240 . S
O298 In286 2.326 . S
O298 C290 1.252 . S
In299 O300 2.294 . S
In299 O301 2.326 . S
In299 O305 2.266 . S
In299 O306 2.326 . S
In299 O307 2.266 . S
In299 O308 2.326 . S
In299 O310 2.294 . S
In299 O311 2.326 . S
O300 In299 2.294 . S
O300 C309 1.240 . S
O301 In299 2.326 . S
O301 C309 1.252 . S
C302 O305 1.252 . S
C302 O306 1.260 . S
C303 O310 1.240 . S
C303 O311 1.252 . S
C304 O307 1.252 . S
C304 O308 1.260 . S
O305 In299 2.266 . S
O305 C302 1.252 . S
O306 In299 2.326 . S
O306 C302 1.260 . S
O307 In299 2.266 . S
O307 C304 1.252 . S
O308 In299 2.326 . S
O308 C304 1.260 . S
C309 O300 1.240 . S
C309 O301 1.252 . S
O310 In299 2.294 . S
O310 C303 1.240 . S
O311 In299 2.326 . S
O311 C303 1.252 . S
In312 O313 2.294 . S
In312 O314 2.326 . S
In312 O318 2.266 . S
In312 O319 2.326 . S
In312 O320 2.266 . S
In312 O321 2.326 . S
In312 O323 2.294 . S
In312 O324 2.326 . S
O313 In312 2.294 . S
O313 C322 1.240 . S
O314 In312 2.326 . S
O314 C322 1.252 . S
C315 O318 1.252 . S
C315 O319 1.260 . S
C316 O323 1.240 . S
C316 O324 1.252 . S
C317 O320 1.252 . S
C317 O321 1.260 . S
O318 In312 2.266 . S
O318 C315 1.252 . S
O319 In312 2.326 . S
O319 C315 1.260 . S
O320 In312 2.266 . S
O320 C317 1.252 . S
O321 In312 2.326 . S
O321 C317 1.260 . S
C322 O313 1.240 . S
C322 O314 1.252 . S
O323 In312 2.294 . S
O323 C316 1.240 . S
O324 In312 2.326 . S
O324 C316 1.252 . S
In325 O326 2.294 . S
In325 O327 2.326 . S
In325 O331 2.266 . S
In325 O332 2.326 . S
In325 O333 2.266 . S
In325 O334 2.326 . S
In325 O336 2.294 . S
In325 O337 2.326 . S
O326 In325 2.294 . S
O326 C335 1.240 . S
O327 In325 2.326 . S
O327 C335 1.252 . S
C328 O331 1.252 . S
C328 O332 1.260 . S
C329 O336 1.240 . S
C329 O337 1.252 . S
C330 O333 1.252 . S
C330 O334 1.260 . S
O331 In325 2.266 . S
O331 C328 1.252 . S
O332 In325 2.326 . S
O332 C328 1.260 . S
O333 In325 2.266 . S
O333 C330 1.252 . S
O334 In325 2.326 . S
O334 C330 1.260 . S
C335 O326 1.240 . S
C335 O327 1.252 . S
O336 In325 2.294 . S
O336 C329 1.240 . S
O337 In325 2.326 . S
O337 C329 1.252 . S
In338 O339 2.294 . S
In338 O340 2.326 . S
In338 O344 2.266 . S
In338 O345 2.326 . S
In338 O346 2.266 . S
In338 O347 2.326 . S
In338 O349 2.294 . S
In338 O350 2.326 . S
O339 In338 2.294 . S
O339 C348 1.240 . S
O340 In338 2.326 . S
O340 C348 1.252 . S
C341 O344 1.252 . S
C341 O345 1.260 . S
C342 O349 1.240 . S
C342 O350 1.252 . S
C343 O346 1.252 . S
C343 O347 1.260 . S
O344 In338 2.266 . S
O344 C341 1.252 . S
O345 In338 2.326 . S
O345 C341 1.260 . S
O346 In338 2.266 . S
O346 C343 1.252 . S
O347 In338 2.326 . S
O347 C343 1.260 . S
C348 O339 1.240 . S
C348 O340 1.252 . S
O349 In338 2.294 . S
O349 C342 1.240 . S
O350 In338 2.326 . S
O350 C342 1.252 . S
In351 O352 2.294 . S
In351 O353 2.326 . S
In351 O357 2.266 . S
In351 O358 2.326 . S
In351 O359 2.266 . S
In351 O360 2.326 . S
In351 O362 2.294 . S
In351 O363 2.326 . S
O352 In351 2.294 . S
O352 C361 1.240 . S
O353 In351 2.326 . S
O353 C361 1.252 . S
C354 O357 1.252 . S
C354 O358 1.260 . S
C355 O362 1.240 . S
C355 O363 1.252 . S
C356 O359 1.252 . S
C356 O360 1.260 . S
O357 In351 2.266 . S
O357 C354 1.252 . S
O358 In351 2.326 . S
O358 C354 1.260 . S
O359 In351 2.266 . S
O359 C356 1.252 . S
O360 In351 2.326 . S
O360 C356 1.260 . S
C361 O352 1.240 . S
C361 O353 1.252 . S
O362 In351 2.294 . S
O362 C355 1.240 . S
O363 In351 2.326 . S
O363 C355 1.252 . S
In364 O365 2.294 . S
In364 O366 2.326 . S
In364 O370 2.266 . S
In364 O371 2.326 . S
In364 O372 2.266 . S
In364 O373 2.326 . S
In364 O375 2.294 . S
In364 O376 2.326 . S
O365 In364 2.294 . S
O365 C374 1.240 . S
O366 In364 2.326 . S
O366 C374 1.252 . S
C367 O370 1.252 . S
C367 O371 1.260 . S
C368 O375 1.240 . S
C368 O376 1.252 . S
C369 O372 1.252 . S
C369 O373 1.260 . S
O370 In364 2.266 . S
O370 C367 1.252 . S
O371 In364 2.326 . S
O371 C367 1.260 . S
O372 In364 2.266 . S
O372 C369 1.252 . S
O373 In364 2.326 . S
O373 C369 1.260 . S
C374 O365 1.240 . S
C374 O366 1.252 . S
O375 In364 2.294 . S
O375 C368 1.240 . S
O376 In364 2.326 . S
O376 C368 1.252 . S
In377 O378 2.294 . S
In377 O379 2.326 . S
In377 O383 2.266 . S
In377 O384 2.326 . S
In377 O385 2.266 . S
In377 O386 2.326 . S
In377 O388 2.294 . S
In377 O389 2.326 . S
O378 In377 2.294 . S
O378 C387 1.240 . S
O379 In377 2.326 . S
O379 C387 1.252 . S
C380 O383 1.252 . S
C380 O384 1.260 . S
C381 O388 1.240 . S
C381 O389 1.252 . S
C382 O385 1.252 . S
C382 O386 1.260 . S
O383 In377 2.266 . S
O383 C380 1.252 . S
O384 In377 2.326 . S
O384 C380 1.260 . S
O385 In377 2.266 . S
O385 C382 1.252 . S
O386 In377 2.326 . S
O386 C382 1.260 . S
C387 O378 1.240 . S
C387 O379 1.252 . S
O388 In377 2.294 . S
O388 C381 1.240 . S
O389 In377 2.326 . S
O389 C381 1.252 . S
In390 O391 2.294 . S
In390 O392 2.326 . S
In390 O396 2.266 . S
In390 O397 2.326 . S
In390 O398 2.266 . S
In390 O399 2.326 . S
In390 O401 2.294 . S
In390 O402 2.326 . S
O391 In390 2.294 . S
O391 C400 1.240 . S
O392 In390 2.326 . S
O392 C400 1.252 . S
C393 O396 1.252 . S
C393 O397 1.260 . S
C394 O401 1.240 . S
C394 O402 1.252 . S
C395 O398 1.252 . S
C395 O399 1.260 . S
O396 In390 2.266 . S
O396 C393 1.252 . S
O397 In390 2.326 . S
O397 C393 1.260 . S
O398 In390 2.266 . S
O398 C395 1.252 . S
O399 In390 2.326 . S
O399 C395 1.260 . S
C400 O391 1.240 . S
C400 O392 1.252 . S
O401 In390 2.294 . S
O401 C394 1.240 . S
O402 In390 2.326 . S
O402 C394 1.252 . S
In403 O404 2.294 . S
In403 O405 2.326 . S
In403 O409 2.266 . S
In403 O410 2.326 . S
In403 O411 2.266 . S
In403 O412 2.326 . S
In403 O414 2.294 . S
In403 O415 2.326 . S
O404 In403 2.294 . S
O404 C413 1.240 . S
O405 In403 2.326 . S
O405 C413 1.252 . S
C406 O409 1.252 . S
C406 O410 1.260 . S
C407 O414 1.240 . S
C407 O415 1.252 . S
C408 O411 1.252 . S
C408 O412 1.260 . S
O409 In403 2.266 . S
O409 C406 1.252 . S
O410 In403 2.326 . S
O410 C406 1.260 . S
O411 In403 2.266 . S
O411 C408 1.252 . S
O412 In403 2.326 . S
O412 C408 1.260 . S
C413 O404 1.240 . S
C413 O405 1.252 . S
O414 In403 2.294 . S
O414 C407 1.240 . S
O415 In403 2.326 . S
O415 C407 1.252 . S
In416 O417 2.294 . S
In416 O418 2.326 . S
In416 O422 2.266 . S
In416 O423 2.326 . S
In416 O424 2.266 . S
In416 O425 2.326 . S
In416 O427 2.294 . S
In416 O428 2.326 . S
O417 In416 2.294 . S
O417 C426 1.240 . S
O418 In416 2.326 . S
O418 C426 1.252 . S
C419 O422 1.252 . S
C419 O423 1.260 . S
C420 O427 1.240 . S
C420 O428 1.252 . S
C421 O424 1.252 . S
C421 O425 1.260 . S
O422 In416 2.266 . S
O422 C419 1.252 . S
O423 In416 2.326 . S
O423 C419 1.260 . S
O424 In416 2.266 . S
O424 C421 1.252 . S
O425 In416 2.326 . S
O425 C421 1.260 . S
C426 O417 1.240 . S
C426 O418 1.252 . S
O427 In416 2.294 . S
O427 C420 1.240 . S
O428 In416 2.326 . S
O428 C420 1.252 . S
In429 O430 2.294 . S
In429 O431 2.326 . S
In429 O435 2.266 . S
In429 O436 2.326 . S
In429 O437 2.266 . S
In429 O438 2.326 . S
In429 O440 2.294 . S
In429 O441 2.326 . S
O430 In429 2.294 . S
O430 C439 1.240 . S
O431 In429 2.326 . S
O431 C439 1.252 . S
C432 O435 1.252 . S
C432 O436 1.260 . S
C433 O440 1.240 . S
C433 O441 1.252 . S
C434 O437 1.252 . S
C434 O438 1.260 . S
O435 In429 2.266 . S
O435 C432 1.252 . S
O436 In429 2.326 . S
O436 C432 1.260 . S
O437 In429 2.266 . S
O437 C434 1.252 . S
O438 In429 2.326 . S
O438 C434 1.260 . S
C439 O430 1.240 . S
C439 O431 1.252 . S
O440 In429 2.294 . S
O440 C433 1.240 . S
O441 In429 2.326 . S
O441 C433 1.252 . S
In442 O443 2.294 . S
In442 O444 2.326 . S
In442 O448 2.266 . S
In442 O449 2.326 . S
In442 O450 2.266 . S
In442 O451 2.326 . S
In442 O453 2.294 . S
In442 O454 2.326 . S
O443 In442 2.294 . S
O443 C452 1.240 . S
O444 In442 2.326 . S
O444 C452 1.252 . S
C445 O448 1.252 . S
C445 O449 1.260 . S
C446 O453 1.240 . S
C446 O454 1.252 . S
C447 O450 1.252 . S
C447 O451 1.260 . S
O448 In442 2.266 . S
O448 C445 1.252 . S
O449 In442 2.326 . S
O449 C445 1.260 . S
O450 In442 2.266 . S
O450 C447 1.252 . S
O451 In442 2.326 . S
O451 C447 1.260 . S
C452 O443 1.240 . S
C452 O444 1.252 . S
O453 In442 2.294 . S
O453 C446 1.240 . S
O454 In442 2.326 . S
O454 C446 1.252 . S
In455 O456 2.294 . S
In455 O457 2.326 . S
In455 O461 2.266 . S
In455 O462 2.326 . S
In455 O463 2.266 . S
In455 O464 2.326 . S
In455 O466 2.294 . S
In455 O467 2.326 . S
O456 In455 2.294 . S
O456 C465 1.240 . S
O457 In455 2.326 . S
O457 C465 1.252 . S
C458 O461 1.252 . S
C458 O462 1.260 . S
C459 O466 1.240 . S
C459 O467 1.252 . S
C460 O463 1.252 . S
C460 O464 1.260 . S
O461 In455 2.266 . S
O461 C458 1.252 . S
O462 In455 2.326 . S
O462 C458 1.260 . S
O463 In455 2.266 . S
O463 C460 1.252 . S
O464 In455 2.326 . S
O464 C460 1.260 . S
C465 O456 1.240 . S
C465 O457 1.252 . S
O466 In455 2.294 . S
O466 C459 1.240 . S
O467 In455 2.326 . S
O467 C459 1.252 . S
In468 O469 2.294 . S
In468 O470 2.326 . S
In468 O474 2.266 . S
In468 O475 2.326 . S
In468 O476 2.266 . S
In468 O477 2.326 . S
In468 O479 2.294 . S
In468 O480 2.326 . S
O469 In468 2.294 . S
O469 C478 1.240 . S
O470 In468 2.326 . S
O470 C478 1.252 . S
C471 O474 1.252 . S
C471 O475 1.260 . S
C472 O479 1.240 . S
C472 O480 1.252 . S
C473 O476 1.252 . S
C473 O477 1.260 . S
O474 In468 2.266 . S
O474 C471 1.252 . S
O475 In468 2.326 . S
O475 C471 1.260 . S
O476 In468 2.266 . S
O476 C473 1.252 . S
O477 In468 2.326 . S
O477 C473 1.260 . S
C478 O469 1.240 . S
C478 O470 1.252 . S
O479 In468 2.294 . S
O479 C472 1.240 . S
O480 In468 2.326 . S
O480 C472 1.252 . S
In481 O482 2.294 . S
In481 O483 2.326 . S
In481 O487 2.266 . S
In481 O488 2.326 . S
In481 O489 2.266 . S
In481 O490 2.326 . S
In481 O492 2.294 . S
In481 O493 2.326 . S
O482 In481 2.294 . S
O482 C491 1.240 . S
O483 In481 2.326 . S
O483 C491 1.252 . S
C484 O487 1.252 . S
C484 O488 1.260 . S
C485 O492 1.240 . S
C485 O493 1.252 . S
C486 O489 1.252 . S
C486 O490 1.260 . S
O487 In481 2.266 . S
O487 C484 1.252 . S
O488 In481 2.326 . S
O488 C484 1.260 . S
O489 In481 2.266 . S
O489 C486 1.252 . S
O490 In481 2.326 . S
O490 C486 1.260 . S
C491 O482 1.240 . S
C491 O483 1.252 . S
O492 In481 2.294 . S
O492 C485 1.240 . S
O493 In481 2.326 . S
O493 C485 1.252 . S
In494 O495 2.294 . S
In494 O496 2.326 . S
In494 O500 2.266 . S
In494 O501 2.326 . S
In494 O502 2.266 . S
In494 O503 2.326 . S
In494 O505 2.294 . S
In494 O506 2.326 . S
O495 In494 2.294 . S
O495 C504 1.240 . S
O496 In494 2.326 . S
O496 C504 1.252 . S
C497 O500 1.252 . S
C497 O501 1.260 . S
C498 O505 1.240 . S
C498 O506 1.252 . S
C499 O502 1.252 . S
C499 O503 1.260 . S
O500 In494 2.266 . S
O500 C497 1.252 . S
O501 In494 2.326 . S
O501 C497 1.260 . S
O502 In494 2.266 . S
O502 C499 1.252 . S
O503 In494 2.326 . S
O503 C499 1.260 . S
C504 O495 1.240 . S
C504 O496 1.252 . S
O505 In494 2.294 . S
O505 C498 1.240 . S
O506 In494 2.326 . S
O506 C498 1.252 . S
In507 O508 2.294 . S
In507 O509 2.326 . S
In507 O513 2.266 . S
In507 O514 2.326 . S
In507 O515 2.266 . S
In507 O516 2.326 . S
In507 O518 2.294 . S
In507 O519 2.326 . S
O508 In507 2.294 . S
O508 C517 1.240 . S
O509 In507 2.326 . S
O509 C517 1.252 . S
C510 O513 1.252 . S
C510 O514 1.260 . S
C511 O518 1.240 . S
C511 O519 1.252 . S
C512 O515 1.252 . S
C512 O516 1.260 . S
O513 In507 2.266 . S
O513 C510 1.252 . S
O514 In507 2.326 . S
O514 C510 1.260 . S
O515 In507 2.266 . S
O515 C512 1.252 . S
O516 In507 2.326 . S
O516 C512 1.260 . S
C517 O508 1.240 . S
C517 O509 1.252 . S
O518 In507 2.294 . S
O518 C511 1.240 . S
O519 In507 2.326 . S
O519 C511 1.252 . S
In520 O521 2.294 . S
In520 O522 2.326 . S
In520 O526 2.266 . S
In520 O527 2.326 . S
In520 O528 2.266 . S
In520 O529 2.326 . S
In520 O531 2.294 . S
In520 O532 2.326 . S
O521 In520 2.294 . S
O521 C530 1.240 . S
O522 In520 2.326 . S
O522 C530 1.252 . S
C523 O526 1.252 . S
C523 O527 1.260 . S
C524 O531 1.240 . S
C524 O532 1.252 . S
C525 O528 1.252 . S
C525 O529 1.260 . S
O526 In520 2.266 . S
O526 C523 1.252 . S
O527 In520 2.326 . S
O527 C523 1.260 . S
O528 In520 2.266 . S
O528 C525 1.252 . S
O529 In520 2.326 . S
O529 C525 1.260 . S
C530 O521 1.240 . S
C530 O522 1.252 . S
O531 In520 2.294 . S
O531 C524 1.240 . S
O532 In520 2.326 . S
O532 C524 1.252 . S
In533 O534 2.294 . S
In533 O535 2.326 . S
In533 O539 2.266 . S
In533 O540 2.326 . S
In533 O541 2.266 . S
In533 O542 2.326 . S
In533 O544 2.294 . S
In533 O545 2.326 . S
O534 In533 2.294 . S
O534 C543 1.240 . S
O535 In533 2.326 . S
O535 C543 1.252 . S
C536 O539 1.252 . S
C536 O540 1.260 . S
C537 O544 1.240 . S
C537 O545 1.252 . S
C538 O541 1.252 . S
C538 O542 1.260 . S
O539 In533 2.266 . S
O539 C536 1.252 . S
O540 In533 2.326 . S
O540 C536 1.260 . S
O541 In533 2.266 . S
O541 C538 1.252 . S
O542 In533 2.326 . S
O542 C538 1.260 . S
C543 O534 1.240 . S
C543 O535 1.252 . S
O544 In533 2.294 . S
O544 C537 1.240 . S
O545 In533 2.326 . S
O545 C537 1.252 . S
In546 O547 2.294 . S
In546 O548 2.326 . S
In546 O552 2.266 . S
In546 O553 2.326 . S
In546 O554 2.266 . S
In546 O555 2.326 . S
In546 O557 2.294 . S
In546 O558 2.326 . S
O547 In546 2.294 . S
O547 C556 1.240 . S
O548 In546 2.326 . S
O548 C556 1.252 . S
C549 O552 1.252 . S
C549 O553 1.260 . S
C550 O557 1.240 . S
C550 O558 1.252 . S
C551 O554 1.252 . S
C551 O555 1.260 . S
O552 In546 2.266 . S
O552 C549 1.252 . S
O553 In546 2.326 . S
O553 C549 1.260 . S
O554 In546 2.266 . S
O554 C551 1.252 . S
O555 In546 2.326 . S
O555 C551 1.260 . S
C556 O547 1.240 . S
C556 O548 1.252 . S
O557 In546 2.294 . S
O557 C550 1.240 . S
O558 In546 2.326 . S
O558 C550 1.252 . S
In559 O560 2.294 . S
In559 O561 2.326 . S
In559 O565 2.266 . S
In559 O566 2.326 . S
In559 O567 2.266 . S
In559 O568 2.326 . S
In559 O570 2.294 . S
In559 O571 2.326 . S
O560 In559 2.294 . S
O560 C569 1.240 . S
O561 In559 2.326 . S
O561 C569 1.252 . S
C562 O565 1.252 . S
C562 O566 1.260 . S
C563 O570 1.240 . S
C563 O571 1.252 . S
C564 O567 1.252 . S
C564 O568 1.260 . S
O565 In559 2.266 . S
O565 C562 1.252 . S
O566 In559 2.326 . S
O566 C562 1.260 . S
O567 In559 2.266 . S
O567 C564 1.252 . S
O568 In559 2.326 . S
O568 C564 1.260 . S
C569 O560 1.240 . S
C569 O561 1.252 . S
O570 In559 2.294 . S
O570 C563 1.240 . S
O571 In559 2.326 . S
O571 C563 1.252 . S
In572 O573 2.294 . S
In572 O574 2.326 . S
In572 O578 2.266 . S
In572 O579 2.326 . S
In572 O580 2.266 . S
In572 O581 2.326 . S
In572 O583 2.294 . S
In572 O584 2.326 . S
O573 In572 2.294 . S
O573 C582 1.240 . S
O574 In572 2.326 . S
O574 C582 1.252 . S
C575 O578 1.252 . S
C575 O579 1.260 . S
C576 O583 1.240 . S
C576 O584 1.252 . S
C577 O580 1.252 . S
C577 O581 1.260 . S
O578 In572 2.266 . S
O578 C575 1.252 . S
O579 In572 2.326 . S
O579 C575 1.260 . S
O580 In572 2.266 . S
O580 C577 1.252 . S
O581 In572 2.326 . S
O581 C577 1.260 . S
C582 O573 1.240 . S
C582 O574 1.252 . S
O583 In572 2.294 . S
O583 C576 1.240 . S
O584 In572 2.326 . S
O584 C576 1.252 . S
In585 O586 2.294 . S
In585 O587 2.326 . S
In585 O591 2.266 . S
In585 O592 2.326 . S
In585 O593 2.266 . S
In585 O594 2.326 . S
In585 O596 2.294 . S
In585 O597 2.326 . S
O586 In585 2.294 . S
O586 C595 1.240 . S
O587 In585 2.326 . S
O587 C595 1.252 . S
C588 O591 1.252 . S
C588 O592 1.260 . S
C589 O596 1.240 . S
C589 O597 1.252 . S
C590 O593 1.252 . S
C590 O594 1.260 . S
O591 In585 2.266 . S
O591 C588 1.252 . S
O592 In585 2.326 . S
O592 C588 1.260 . S
O593 In585 2.266 . S
O593 C590 1.252 . S
O594 In585 2.326 . S
O594 C590 1.260 . S
C595 O586 1.240 . S
C595 O587 1.252 . S
O596 In585 2.294 . S
O596 C589 1.240 . S
O597 In585 2.326 . S
O597 C589 1.252 . S
In598 O599 2.294 . S
In598 O600 2.326 . S
In598 O604 2.266 . S
In598 O605 2.326 . S
In598 O606 2.266 . S
In598 O607 2.326 . S
In598 O609 2.294 . S
In598 O610 2.326 . S
O599 In598 2.294 . S
O599 C608 1.240 . S
O600 In598 2.326 . S
O600 C608 1.252 . S
C601 O604 1.252 . S
C601 O605 1.260 . S
C602 O609 1.240 . S
C602 O610 1.252 . S
C603 O606 1.252 . S
C603 O607 1.260 . S
O604 In598 2.266 . S
O604 C601 1.252 . S
O605 In598 2.326 . S
O605 C601 1.260 . S
O606 In598 2.266 . S
O606 C603 1.252 . S
O607 In598 2.326 . S
O607 C603 1.260 . S
C608 O599 1.240 . S
C608 O600 1.252 . S
O609 In598 2.294 . S
O609 C602 1.240 . S
O610 In598 2.326 . S
O610 C602 1.252 . S
In611 O612 2.294 . S
In611 O613 2.326 . S
In611 O617 2.266 . S
In611 O618 2.326 . S
In611 O619 2.266 . S
In611 O620 2.326 . S
In611 O622 2.294 . S
In611 O623 2.326 . S
O612 In611 2.294 . S
O612 C621 1.240 . S
O613 In611 2.326 . S
O613 C621 1.252 . S
C614 O617 1.252 . S
C614 O618 1.260 . S
C615 O622 1.240 . S
C615 O623 1.252 . S
C616 O619 1.252 . S
C616 O620 1.260 . S
O617 In611 2.266 . S
O617 C614 1.252 . S
O618 In611 2.326 . S
O618 C614 1.260 . S
O619 In611 2.266 . S
O619 C616 1.252 . S
O620 In611 2.326 . S
O620 C616 1.260 . S
C621 O612 1.240 . S
C621 O613 1.252 . S
O622 In611 2.294 . S
O622 C615 1.240 . S
O623 In611 2.326 . S
O623 C615 1.252 . S
H624 C630 0.930 . S
H625 C634 0.930 . S
H626 C639 0.929 . S
H627 C637 0.929 . S
H628 C632 0.949 . S
H629 C638 0.949 . S
C630 H624 0.930 . S
C630 C631 1.367 . S
C630 C638 1.378 . S
C631 C630 1.367 . S
C631 C639 1.433 . S
C632 H628 0.949 . S
C632 C634 1.378 . S
C632 C636 1.350 . S
C633 C636 1.463 1_655 S
C633 C638 1.350 . S
C633 N641 1.427 . S
C634 H625 0.930 . S
C634 C632 1.378 . S
C634 C635 1.367 . S
C635 C634 1.367 . S
C635 C637 1.433 . S
C636 C632 1.350 . S
C636 C633 1.463 1_455 S
C636 N640 1.427 . S
C637 H627 0.929 . S
C637 C635 1.433 . S
C637 N640 1.384 . S
C638 H629 0.949 . S
C638 C630 1.378 . S
C638 C633 1.350 . S
C639 H626 0.929 . S
C639 C631 1.433 . S
C639 N641 1.384 . S
N640 C636 1.427 . S
N640 C637 1.384 . S
N641 C633 1.427 . S
N641 C639 1.384 . S
H642 C648 0.930 . S
H643 C652 0.930 . S
H644 C657 0.929 . S
H645 C655 0.929 . S
H646 C650 0.876 1_565 S
H647 C656 0.876 1_545 S
C648 H642 0.930 . S
C648 C649 1.367 . S
C648 C656 1.415 . S
C649 C648 1.367 . S
C649 C657 1.433 . S
C650 H646 0.876 1_545 S
C650 C652 1.415 . S
C650 C654 1.367 . S
C651 C654 1.463 1_565 S
C651 C656 1.367 . S
C651 N659 1.427 . S
C652 H643 0.930 . S
C652 C650 1.415 . S
C652 C653 1.367 . S
C653 C652 1.367 . S
C653 C655 1.433 . S
C654 C650 1.367 . S
C654 C651 1.463 1_545 S
C654 N658 1.427 . S
C655 H645 0.929 . S
C655 C653 1.433 . S
C655 N658 1.384 . S
C656 H647 0.876 1_565 S
C656 C648 1.415 . S
C656 C651 1.367 . S
C657 H644 0.929 . S
C657 C649 1.433 . S
C657 N659 1.384 . S
N658 C654 1.427 . S
N658 C655 1.384 . S
N659 C651 1.427 . S
N659 C657 1.384 . S
H660 C666 0.930 . S
H661 C670 0.930 . S
H662 C675 0.929 . S
H663 C673 0.929 . S
H664 C668 0.929 1_455 S
H665 C674 0.929 1_655 S
C666 H660 0.930 . S
C666 C667 1.367 . S
C666 C674 1.378 . S
C667 C666 1.367 . S
C667 C675 1.433 . S
C668 H664 0.929 1_655 S
C668 C670 1.378 . S
C668 C672 1.350 . S
C669 C672 1.463 1_455 S
C669 C674 1.350 . S
C669 N677 1.427 . S
C670 H661 0.930 . S
C670 C668 1.378 . S
C670 C671 1.367 . S
C671 C670 1.367 . S
C671 C673 1.433 . S
C672 C668 1.350 . S
C672 C669 1.463 1_655 S
C672 N676 1.427 . S
C673 H663 0.929 . S
C673 C671 1.433 . S
C673 N676 1.384 . S
C674 H665 0.929 1_455 S
C674 C666 1.378 . S
C674 C669 1.350 . S
C675 H662 0.929 . S
C675 C667 1.433 . S
C675 N677 1.384 . S
N676 C672 1.427 . S
N676 C673 1.384 . S
N677 C669 1.427 . S
N677 C675 1.384 . S
H678 C684 0.930 . S
H679 C688 0.930 . S
H680 C693 0.929 . S
H681 C691 0.929 . S
H682 C686 0.929 1_565 S
H683 C692 0.929 1_545 S
C684 H678 0.930 . S
C684 C685 1.367 . S
C684 C692 1.378 . S
C685 C684 1.367 . S
C685 C693 1.433 . S
C686 H682 0.929 1_545 S
C686 C688 1.378 . S
C686 C690 1.350 . S
C687 C690 1.463 1_565 S
C687 C692 1.350 . S
C687 N695 1.427 . S
C688 H679 0.930 . S
C688 C686 1.378 . S
C688 C689 1.367 . S
C689 C688 1.367 . S
C689 C691 1.433 . S
C690 C686 1.350 . S
C690 C687 1.463 1_545 S
C690 N694 1.427 . S
C691 H681 0.929 . S
C691 C689 1.433 . S
C691 N694 1.384 . S
C692 H683 0.929 1_565 S
C692 C684 1.378 . S
C692 C687 1.350 . S
C693 H680 0.929 . S
C693 C685 1.433 . S
C693 N695 1.384 . S
N694 C690 1.427 . S
N694 C691 1.384 . S
N695 C687 1.427 . S
N695 C693 1.384 . S
H696 C702 0.930 . S
H697 C706 0.930 . S
H698 C711 0.929 . S
H699 C709 0.929 . S
H700 C704 0.929 . S
H701 C710 0.929 . S
C702 H696 0.930 . S
C702 C703 1.367 . S
C702 C710 1.378 . S
C703 C702 1.367 . S
C703 C711 1.433 . S
C704 H700 0.929 . S
C704 C706 1.378 . S
C704 C708 1.350 . S
C705 C708 1.463 1_655 S
C705 C710 1.350 . S
C705 N713 1.427 . S
C706 H697 0.930 . S
C706 C704 1.378 . S
C706 C707 1.367 . S
C707 C706 1.367 . S
C707 C709 1.433 . S
C708 C704 1.350 . S
C708 C705 1.463 1_455 S
C708 N712 1.427 . S
C709 H699 0.929 . S
C709 C707 1.433 . S
C709 N712 1.384 . S
C710 H701 0.929 . S
C710 C702 1.378 . S
C710 C705 1.350 . S
C711 H698 0.929 . S
C711 C703 1.433 . S
C711 N713 1.384 . S
N712 C708 1.427 . S
N712 C709 1.384 . S
N713 C705 1.427 . S
N713 C711 1.384 . S
H714 C720 0.930 . S
H715 C724 0.930 . S
H716 C729 0.929 . S
H717 C727 0.929 . S
H718 C722 0.929 . S
H719 C728 0.929 . S
C720 H714 0.930 . S
C720 C721 1.367 . S
C720 C728 1.378 . S
C721 C720 1.367 . S
C721 C729 1.433 . S
C722 H718 0.929 . S
C722 C724 1.378 . S
C722 C726 1.350 . S
C723 C726 1.463 1_545 S
C723 C728 1.350 . S
C723 N731 1.427 . S
C724 H715 0.930 . S
C724 C722 1.378 . S
C724 C725 1.367 . S
C725 C724 1.367 . S
C725 C727 1.433 . S
C726 C722 1.350 . S
C726 C723 1.463 1_565 S
C726 N730 1.427 . S
C727 H717 0.929 . S
C727 C725 1.433 . S
C727 N730 1.384 . S
C728 H719 0.929 . S
C728 C720 1.378 . S
C728 C723 1.350 . S
C729 H716 0.929 . S
C729 C721 1.433 . S
C729 N731 1.384 . S
N730 C726 1.427 . S
N730 C727 1.384 . S
N731 C723 1.427 . S
N731 C729 1.384 . S
H732 C738 0.930 . S
H733 C742 0.930 . S
H734 C747 0.929 . S
H735 C745 0.929 . S
H736 C740 0.929 . S
H737 C746 0.929 . S
C738 H732 0.930 . S
C738 C739 1.367 . S
C738 C746 1.378 . S
C739 C738 1.367 . S
C739 C747 1.433 . S
C740 H736 0.929 . S
C740 C742 1.378 . S
C740 C744 1.350 . S
C741 C744 1.463 1_455 S
C741 C746 1.350 . S
C741 N749 1.427 . S
C742 H733 0.930 . S
C742 C740 1.378 . S
C742 C743 1.367 . S
C743 C742 1.367 . S
C743 C745 1.433 . S
C744 C740 1.350 . S
C744 C741 1.463 1_655 S
C744 N748 1.427 . S
C745 H735 0.929 . S
C745 C743 1.433 . S
C745 N748 1.384 . S
C746 H737 0.929 . S
C746 C738 1.378 . S
C746 C741 1.350 . S
C747 H734 0.929 . S
C747 C739 1.433 . S
C747 N749 1.384 . S
N748 C744 1.427 . S
N748 C745 1.384 . S
N749 C741 1.427 . S
N749 C747 1.384 . S
H750 C756 0.930 . S
H751 C760 0.930 . S
H752 C765 0.929 . S
H753 C763 0.929 . S
H754 C758 0.929 1_545 S
H755 C764 0.929 1_565 S
C756 H750 0.930 . S
C756 C757 1.367 . S
C756 C764 1.378 . S
C757 C756 1.367 . S
C757 C765 1.433 . S
C758 H754 0.929 1_565 S
C758 C760 1.378 . S
C758 C762 1.350 . S
C759 C762 1.463 1_545 S
C759 C764 1.350 . S
C759 N767 1.427 . S
C760 H751 0.930 . S
C760 C758 1.378 . S
C760 C761 1.367 . S
C761 C760 1.367 . S
C761 C763 1.433 . S
C762 C758 1.350 . S
C762 C759 1.463 1_565 S
C762 N766 1.427 . S
C763 H753 0.929 . S
C763 C761 1.433 . S
C763 N766 1.384 . S
C764 H755 0.929 1_545 S
C764 C756 1.378 . S
C764 C759 1.350 . S
C765 H752 0.929 . S
C765 C757 1.433 . S
C765 N767 1.384 . S
N766 C762 1.427 . S
N766 C763 1.384 . S
N767 C759 1.427 . S
N767 C765 1.384 . S
H768 C774 0.930 . S
H769 C778 0.930 . S
H770 C783 0.929 . S
H771 C781 0.929 . S
H772 C776 0.929 . S
H773 C782 0.929 . S
C774 H768 0.930 . S
C774 C775 1.367 . S
C774 C782 1.378 . S
C775 C774 1.367 . S
C775 C783 1.433 . S
C776 H772 0.929 . S
C776 C778 1.378 . S
C776 C780 1.350 . S
C777 C780 1.463 1_554 S
C777 C782 1.350 . S
C777 N785 1.427 . S
C778 H769 0.930 . S
C778 C776 1.378 . S
C778 C779 1.367 . S
C779 C778 1.367 . S
C779 C781 1.433 . S
C780 C776 1.350 . S
C780 C777 1.463 1_556 S
C780 N784 1.427 . S
C781 H771 0.929 . S
C781 C779 1.433 . S
C781 N784 1.384 . S
C782 H773 0.929 . S
C782 C774 1.378 . S
C782 C777 1.350 . S
C783 H770 0.929 . S
C783 C775 1.433 . S
C783 N785 1.384 . S
N784 C780 1.427 . S
N784 C781 1.384 . S
N785 C777 1.427 . S
N785 C783 1.384 . S
H786 C792 0.930 . S
H787 C796 0.930 . S
H788 C801 0.929 . S
H789 C799 0.929 . S
H790 C794 0.929 . S
H791 C800 0.929 . S
C792 H786 0.930 . S
C792 C793 1.367 . S
C792 C800 1.378 . S
C793 C792 1.367 . S
C793 C801 1.433 . S
C794 H790 0.929 . S
C794 C796 1.378 . S
C794 C798 1.350 . S
C795 C798 1.463 1_556 S
C795 C800 1.350 . S
C795 N803 1.427 . S
C796 H787 0.930 . S
C796 C794 1.378 . S
C796 C797 1.367 . S
C797 C796 1.367 . S
C797 C799 1.433 . S
C798 C794 1.350 . S
C798 C795 1.463 1_554 S
C798 N802 1.427 . S
C799 H789 0.929 . S
C799 C797 1.433 . S
C799 N802 1.384 . S
C800 H791 0.929 . S
C800 C792 1.378 . S
C800 C795 1.350 . S
C801 H788 0.929 . S
C801 C793 1.433 . S
C801 N803 1.384 . S
N802 C798 1.427 . S
N802 C799 1.384 . S
N803 C795 1.427 . S
N803 C801 1.384 . S
H804 C810 0.930 . S
H805 C814 0.930 . S
H806 C819 0.929 . S
H807 C817 0.929 . S
H808 C812 0.929 . S
H809 C818 0.929 . S
C810 H804 0.930 . S
C810 C811 1.367 . S
C810 C818 1.378 . S
C811 C810 1.367 . S
C811 C819 1.433 . S
C812 H808 0.929 . S
C812 C814 1.378 . S
C812 C816 1.350 . S
C813 C816 1.463 1_556 S
C813 C818 1.350 . S
C813 N821 1.427 . S
C814 H805 0.930 . S
C814 C812 1.378 . S
C814 C815 1.367 . S
C815 C814 1.367 . S
C815 C817 1.433 . S
C816 C812 1.350 . S
C816 C813 1.463 1_554 S
C816 N820 1.427 . S
C817 H807 0.929 . S
C817 C815 1.433 . S
C817 N820 1.384 . S
C818 H809 0.929 . S
C818 C810 1.378 . S
C818 C813 1.350 . S
C819 H806 0.929 . S
C819 C811 1.433 . S
C819 N821 1.384 . S
N820 C816 1.427 . S
N820 C817 1.384 . S
N821 C813 1.427 . S
N821 C819 1.384 . S
H822 C828 0.930 . S
H823 C832 0.930 . S
H824 C837 0.929 . S
H825 C835 0.929 . S
H826 C830 0.929 1_556 S
H827 C836 0.929 1_554 S
C828 H822 0.930 . S
C828 C829 1.367 . S
C828 C836 1.378 . S
C829 C828 1.367 . S
C829 C837 1.433 . S
C830 H826 0.929 1_554 S
C830 C832 1.378 . S
C830 C834 1.350 . S
C831 C834 1.463 1_556 S
C831 C836 1.350 . S
C831 N839 1.427 . S
C832 H823 0.930 . S
C832 C830 1.378 . S
C832 C833 1.367 . S
C833 C832 1.367 . S
C833 C835 1.433 . S
C834 C830 1.350 . S
C834 C831 1.463 1_554 S
C834 N838 1.427 . S
C835 H825 0.929 . S
C835 C833 1.433 . S
C835 N838 1.384 . S
C836 H827 0.929 1_556 S
C836 C828 1.378 . S
C836 C831 1.350 . S
C837 H824 0.929 . S
C837 C829 1.433 . S
C837 N839 1.384 . S
N838 C834 1.427 . S
N838 C835 1.384 . S
N839 C831 1.427 . S
N839 C837 1.384 . S
H840 C846 0.930 . S
H841 C850 0.930 . S
H842 C855 0.929 . S
H843 C853 0.929 . S
H844 C848 0.929 . S
H845 C854 0.929 . S
C846 H840 0.930 . S
C846 C847 1.367 . S
C846 C854 1.378 . S
C847 C846 1.367 . S
C847 C855 1.433 . S
C848 H844 0.929 . S
C848 C850 1.378 . S
C848 C852 1.350 . S
C849 C852 1.463 . S
C849 C854 1.350 . S
C849 N857 1.427 . S
C850 H841 0.930 . S
C850 C848 1.378 . S
C850 C851 1.367 . S
C851 C850 1.367 . S
C851 C853 1.433 . S
C852 C848 1.350 . S
C852 C849 1.463 . S
C852 N856 1.427 . S
C853 H843 0.929 . S
C853 C851 1.433 . S
C853 N856 1.384 . S
C854 H845 0.929 . S
C854 C846 1.378 . S
C854 C849 1.350 . S
C855 H842 0.929 . S
C855 C847 1.433 . S
C855 N857 1.384 . S
N856 C852 1.427 . S
N856 C853 1.384 . S
N857 C849 1.427 . S
N857 C855 1.384 . S
H858 C864 0.930 . S
H859 C868 0.930 . S
H860 C873 0.929 . S
H861 C871 0.929 . S
H862 C866 0.929 . S
H863 C872 0.929 . S
C864 H858 0.930 . S
C864 C865 1.367 . S
C864 C872 1.378 . S
C865 C864 1.367 . S
C865 C873 1.433 . S
C866 H862 0.929 . S
C866 C868 1.378 . S
C866 C870 1.350 . S
C867 C870 1.463 . S
C867 C872 1.350 . S
C867 N875 1.427 . S
C868 H859 0.930 . S
C868 C866 1.378 . S
C868 C869 1.367 . S
C869 C868 1.367 . S
C869 C871 1.433 . S
C870 C866 1.350 . S
C870 C867 1.463 . S
C870 N874 1.427 . S
C871 H861 0.929 . S
C871 C869 1.433 . S
C871 N874 1.384 . S
C872 H863 0.929 . S
C872 C864 1.378 . S
C872 C867 1.350 . S
C873 H860 0.929 . S
C873 C865 1.433 . S
C873 N875 1.384 . S
N874 C870 1.427 . S
N874 C871 1.384 . S
N875 C867 1.427 . S
N875 C873 1.384 . S
H876 C882 0.930 . S
H877 C886 0.930 . S
H878 C891 0.929 . S
H879 C889 0.929 . S
H880 C884 0.929 . S
H881 C890 0.929 . S
C882 H876 0.930 . S
C882 C883 1.367 . S
C882 C890 1.378 . S
C883 C882 1.367 . S
C883 C891 1.433 . S
C884 H880 0.929 . S
C884 C886 1.378 . S
C884 C888 1.350 . S
C885 C888 1.463 . S
C885 C890 1.350 . S
C885 N893 1.427 . S
C886 H877 0.930 . S
C886 C884 1.378 . S
C886 C887 1.367 . S
C887 C886 1.367 . S
C887 C889 1.433 . S
C888 C884 1.350 . S
C888 C885 1.463 . S
C888 N892 1.427 . S
C889 H879 0.929 . S
C889 C887 1.433 . S
C889 N892 1.384 . S
C890 H881 0.929 . S
C890 C882 1.378 . S
C890 C885 1.350 . S
C891 H878 0.929 . S
C891 C883 1.433 . S
C891 N893 1.384 . S
N892 C888 1.427 . S
N892 C889 1.384 . S
N893 C885 1.427 . S
N893 C891 1.384 . S
H894 C900 0.930 . S
H895 C904 0.930 . S
H896 C909 0.929 . S
H897 C907 0.929 . S
H898 C902 0.929 . S
H899 C908 0.929 . S
C900 H894 0.930 . S
C900 C901 1.367 . S
C900 C908 1.378 . S
C901 C900 1.367 . S
C901 C909 1.433 . S
C902 H898 0.929 . S
C902 C904 1.378 . S
C902 C906 1.350 . S
C903 C906 1.463 . S
C903 C908 1.350 . S
C903 N911 1.427 . S
C904 H895 0.930 . S
C904 C902 1.378 . S
C904 C905 1.367 . S
C905 C904 1.367 . S
C905 C907 1.433 . S
C906 C902 1.350 . S
C906 C903 1.463 . S
C906 N910 1.427 . S
C907 H897 0.929 . S
C907 C905 1.433 . S
C907 N910 1.384 . S
C908 H899 0.929 . S
C908 C900 1.378 . S
C908 C903 1.350 . S
C909 H896 0.929 . S
C909 C901 1.433 . S
C909 N911 1.384 . S
N910 C906 1.427 . S
N910 C907 1.384 . S
N911 C903 1.427 . S
N911 C909 1.384 . S
H912 C918 0.930 . S
H913 C922 0.930 . S
H914 C927 0.929 . S
H915 C925 0.929 . S
H916 C920 0.929 . S
H917 C926 0.929 . S
C918 H912 0.930 . S
C918 C919 1.367 . S
C918 C926 1.378 . S
C919 C918 1.367 . S
C919 C927 1.433 . S
C920 H916 0.929 . S
C920 C922 1.378 . S
C920 C924 1.350 . S
C921 C924 1.463 . S
C921 C926 1.350 . S
C921 N929 1.427 . S
C922 H913 0.930 . S
C922 C920 1.378 . S
C922 C923 1.367 . S
C923 C922 1.367 . S
C923 C925 1.433 . S
C924 C920 1.350 . S
C924 C921 1.463 . S
C924 N928 1.427 . S
C925 H915 0.929 . S
C925 C923 1.433 . S
C925 N928 1.384 . S
C926 H917 0.929 . S
C926 C918 1.378 . S
C926 C921 1.350 . S
C927 H914 0.929 . S
C927 C919 1.433 . S
C927 N929 1.384 . S
N928 C924 1.427 . S
N928 C925 1.384 . S
N929 C921 1.427 . S
N929 C927 1.384 . S
H930 C936 0.930 . S
H931 C940 0.930 . S
H932 C945 0.929 . S
H933 C943 0.929 . S
H934 C938 0.929 . S
H935 C944 0.929 . S
C936 H930 0.930 . S
C936 C937 1.367 . S
C936 C944 1.378 . S
C937 C936 1.367 . S
C937 C945 1.433 . S
C938 H934 0.929 . S
C938 C940 1.378 . S
C938 C942 1.350 . S
C939 C942 1.463 . S
C939 C944 1.350 . S
C939 N947 1.427 . S
C940 H931 0.930 . S
C940 C938 1.378 . S
C940 C941 1.367 . S
C941 C940 1.367 . S
C941 C943 1.433 . S
C942 C938 1.350 . S
C942 C939 1.463 . S
C942 N946 1.427 . S
C943 H933 0.929 . S
C943 C941 1.433 . S
C943 N946 1.384 . S
C944 H935 0.929 . S
C944 C936 1.378 . S
C944 C939 1.350 . S
C945 H932 0.929 . S
C945 C937 1.433 . S
C945 N947 1.384 . S
N946 C942 1.427 . S
N946 C943 1.384 . S
N947 C939 1.427 . S
N947 C945 1.384 . S
H948 C954 0.930 . S
H949 C958 0.930 . S
H950 C963 0.929 . S
H951 C961 0.929 . S
H952 C956 0.929 . S
H953 C962 0.929 . S
C954 H948 0.930 . S
C954 C955 1.367 . S
C954 C962 1.378 . S
C955 C954 1.367 . S
C955 C963 1.433 . S
C956 H952 0.929 . S
C956 C958 1.378 . S
C956 C960 1.350 . S
C957 C960 1.463 . S
C957 C962 1.350 . S
C957 N965 1.427 . S
C958 H949 0.930 . S
C958 C956 1.378 . S
C958 C959 1.367 . S
C959 C958 1.367 . S
C959 C961 1.433 . S
C960 C956 1.350 . S
C960 C957 1.463 . S
C960 N964 1.427 . S
C961 H951 0.929 . S
C961 C959 1.433 . S
C961 N964 1.384 . S
C962 H953 0.929 . S
C962 C954 1.378 . S
C962 C957 1.350 . S
C963 H950 0.929 . S
C963 C955 1.433 . S
C963 N965 1.384 . S
N964 C960 1.427 . S
N964 C961 1.384 . S
N965 C957 1.427 . S
N965 C963 1.384 . S
H966 C972 0.930 . S
H967 C976 0.930 . S
H968 C981 0.929 . S
H969 C979 0.929 . S
H970 C974 0.929 . S
H971 C980 0.929 . S
C972 H966 0.930 . S
C972 C973 1.367 . S
C972 C980 1.378 . S
C973 C972 1.367 . S
C973 C981 1.433 . S
C974 H970 0.929 . S
C974 C976 1.378 . S
C974 C978 1.350 . S
C975 C978 1.463 . S
C975 C980 1.350 . S
C975 N983 1.427 . S
C976 H967 0.930 . S
C976 C974 1.378 . S
C976 C977 1.367 . S
C977 C976 1.367 . S
C977 C979 1.433 . S
C978 C974 1.350 . S
C978 C975 1.463 . S
C978 N982 1.427 . S
C979 H969 0.929 . S
C979 C977 1.433 . S
C979 N982 1.384 . S
C980 H971 0.929 . S
C980 C972 1.378 . S
C980 C975 1.350 . S
C981 H968 0.929 . S
C981 C973 1.433 . S
C981 N983 1.384 . S
N982 C978 1.427 . S
N982 C979 1.384 . S
N983 C975 1.427 . S
N983 C981 1.384 . S
H984 C990 0.930 . S
H985 C994 0.930 . S
H986 C999 0.929 . S
H987 C997 0.929 . S
H988 C992 0.929 . S
H989 C998 0.929 . S
C990 H984 0.930 . S
C990 C991 1.367 . S
C990 C998 1.378 . S
C991 C990 1.367 . S
C991 C999 1.433 . S
C992 H988 0.929 . S
C992 C994 1.378 . S
C992 C996 1.350 . S
C993 C996 1.463 . S
C993 C998 1.350 . S
C993 N1001 1.427 . S
C994 H985 0.930 . S
C994 C992 1.378 . S
C994 C995 1.367 . S
C995 C994 1.367 . S
C995 C997 1.433 . S
C996 C992 1.350 . S
C996 C993 1.463 . S
C996 N1000 1.427 . S
C997 H987 0.929 . S
C997 C995 1.433 . S
C997 N1000 1.384 . S
C998 H989 0.929 . S
C998 C990 1.378 . S
C998 C993 1.350 . S
C999 H986 0.929 . S
C999 C991 1.433 . S
C999 N1001 1.384 . S
N1000 C996 1.427 . S
N1000 C997 1.384 . S
N1001 C993 1.427 . S
N1001 C999 1.384 . S
H1002 C1008 0.930 . S
H1003 C1012 0.930 . S
H1004 C1017 0.929 . S
H1005 C1015 0.929 . S
H1006 C1010 0.929 . S
H1007 C1016 0.929 . S
C1008 H1002 0.930 . S
C1008 C1009 1.367 . S
C1008 C1016 1.378 . S
C1009 C1008 1.367 . S
C1009 C1017 1.433 . S
C1010 H1006 0.929 . S
C1010 C1012 1.378 . S
C1010 C1014 1.350 . S
C1011 C1014 1.463 . S
C1011 C1016 1.350 . S
C1011 N1019 1.427 . S
C1012 H1003 0.930 . S
C1012 C1010 1.378 . S
C1012 C1013 1.367 . S
C1013 C1012 1.367 . S
C1013 C1015 1.433 . S
C1014 C1010 1.350 . S
C1014 C1011 1.463 . S
C1014 N1018 1.427 . S
C1015 H1005 0.929 . S
C1015 C1013 1.433 . S
C1015 N1018 1.384 . S
C1016 H1007 0.929 . S
C1016 C1008 1.378 . S
C1016 C1011 1.350 . S
C1017 H1004 0.929 . S
C1017 C1009 1.433 . S
C1017 N1019 1.384 . S
N1018 C1014 1.427 . S
N1018 C1015 1.384 . S
N1019 C1011 1.427 . S
N1019 C1017 1.384 . S
H1020 C1026 0.930 . S
H1021 C1030 0.930 . S
H1022 C1035 0.929 . S
H1023 C1033 0.929 . S
H1024 C1028 0.929 . S
H1025 C1034 0.929 . S
C1026 H1020 0.930 . S
C1026 C1027 1.367 . S
C1026 C1034 1.378 . S
C1027 C1026 1.367 . S
C1027 C1035 1.433 . S
C1028 H1024 0.929 . S
C1028 C1030 1.378 . S
C1028 C1032 1.350 . S
C1029 C1032 1.463 . S
C1029 C1034 1.350 . S
C1029 N1037 1.427 . S
C1030 H1021 0.930 . S
C1030 C1028 1.378 . S
C1030 C1031 1.367 . S
C1031 C1030 1.367 . S
C1031 C1033 1.433 . S
C1032 C1028 1.350 . S
C1032 C1029 1.463 . S
C1032 N1036 1.427 . S
C1033 H1023 0.929 . S
C1033 C1031 1.433 . S
C1033 N1036 1.384 . S
C1034 H1025 0.929 . S
C1034 C1026 1.378 . S
C1034 C1029 1.350 . S
C1035 H1022 0.929 . S
C1035 C1027 1.433 . S
C1035 N1037 1.384 . S
N1036 C1032 1.427 . S
N1036 C1033 1.384 . S
N1037 C1029 1.427 . S
N1037 C1035 1.384 . S
H1038 C1044 0.930 . S
H1039 C1048 0.930 . S
H1040 C1053 0.929 . S
H1041 C1051 0.929 . S
H1042 C1046 0.929 . S
H1043 C1052 0.929 . S
C1044 H1038 0.930 . S
C1044 C1045 1.367 . S
C1044 C1052 1.378 . S
C1045 C1044 1.367 . S
C1045 C1053 1.433 . S
C1046 H1042 0.929 . S
C1046 C1048 1.378 . S
C1046 C1050 1.350 . S
C1047 C1050 1.463 . S
C1047 C1052 1.350 . S
C1047 N1055 1.427 . S
C1048 H1039 0.930 . S
C1048 C1046 1.378 . S
C1048 C1049 1.367 . S
C1049 C1048 1.367 . S
C1049 C1051 1.433 . S
C1050 C1046 1.350 . S
C1050 C1047 1.463 . S
C1050 N1054 1.427 . S
C1051 H1041 0.929 . S
C1051 C1049 1.433 . S
C1051 N1054 1.384 . S
C1052 H1043 0.929 . S
C1052 C1044 1.378 . S
C1052 C1047 1.350 . S
C1053 H1040 0.929 . S
C1053 C1045 1.433 . S
C1053 N1055 1.384 . S
N1054 C1050 1.427 . S
N1054 C1051 1.384 . S
N1055 C1047 1.427 . S
N1055 C1053 1.384 . S
H1056 C1062 0.930 . S
H1057 C1066 0.930 . S
H1058 C1071 0.929 . S
H1059 C1069 0.929 . S
H1060 C1064 0.929 . S
H1061 C1070 0.929 . S
C1062 H1056 0.930 . S
C1062 C1063 1.367 . S
C1062 C1070 1.378 . S
C1063 C1062 1.367 . S
C1063 C1071 1.433 . S
C1064 H1060 0.929 . S
C1064 C1066 1.378 . S
C1064 C1068 1.350 . S
C1065 C1068 1.463 . S
C1065 C1070 1.350 . S
C1065 N1073 1.427 . S
C1066 H1057 0.930 . S
C1066 C1064 1.378 . S
C1066 C1067 1.367 . S
C1067 C1066 1.367 . S
C1067 C1069 1.433 . S
C1068 C1064 1.350 . S
C1068 C1065 1.463 . S
C1068 N1072 1.427 . S
C1069 H1059 0.929 . S
C1069 C1067 1.433 . S
C1069 N1072 1.384 . S
C1070 H1061 0.929 . S
C1070 C1062 1.378 . S
C1070 C1065 1.350 . S
C1071 H1058 0.929 . S
C1071 C1063 1.433 . S
C1071 N1073 1.384 . S
N1072 C1068 1.427 . S
N1072 C1069 1.384 . S
N1073 C1065 1.427 . S
N1073 C1071 1.384 . S
H1074 C1080 0.930 . S
H1075 C1084 0.930 . S
H1076 C1089 0.929 . S
H1077 C1087 0.929 . S
H1078 C1082 0.929 . S
H1079 C1088 0.929 . S
C1080 H1074 0.930 . S
C1080 C1081 1.367 . S
C1080 C1088 1.378 . S
C1081 C1080 1.367 . S
C1081 C1089 1.433 . S
C1082 H1078 0.929 . S
C1082 C1084 1.378 . S
C1082 C1086 1.350 . S
C1083 C1086 1.463 . S
C1083 C1088 1.350 . S
C1083 N1091 1.427 . S
C1084 H1075 0.930 . S
C1084 C1082 1.378 . S
C1084 C1085 1.367 . S
C1085 C1084 1.367 . S
C1085 C1087 1.433 . S
C1086 C1082 1.350 . S
C1086 C1083 1.463 . S
C1086 N1090 1.427 . S
C1087 H1077 0.929 . S
C1087 C1085 1.433 . S
C1087 N1090 1.384 . S
C1088 H1079 0.929 . S
C1088 C1080 1.378 . S
C1088 C1083 1.350 . S
C1089 H1076 0.929 . S
C1089 C1081 1.433 . S
C1089 N1091 1.384 . S
N1090 C1086 1.427 . S
N1090 C1087 1.384 . S
N1091 C1083 1.427 . S
N1091 C1089 1.384 . S
H1092 C1098 0.930 . S
H1093 C1102 0.930 . S
H1094 C1107 0.929 . S
H1095 C1105 0.929 . S
H1096 C1100 0.929 . S
H1097 C1106 0.929 . S
C1098 H1092 0.930 . S
C1098 C1099 1.367 . S
C1098 C1106 1.378 . S
C1099 C1098 1.367 . S
C1099 C1107 1.433 . S
C1100 H1096 0.929 . S
C1100 C1102 1.378 . S
C1100 C1104 1.350 . S
C1101 C1104 1.463 . S
C1101 C1106 1.350 . S
C1101 N1109 1.427 . S
C1102 H1093 0.930 . S
C1102 C1100 1.378 . S
C1102 C1103 1.367 . S
C1103 C1102 1.367 . S
C1103 C1105 1.433 . S
C1104 C1100 1.350 . S
C1104 C1101 1.463 . S
C1104 N1108 1.427 . S
C1105 H1095 0.929 . S
C1105 C1103 1.433 . S
C1105 N1108 1.384 . S
C1106 H1097 0.929 . S
C1106 C1098 1.378 . S
C1106 C1101 1.350 . S
C1107 H1094 0.929 . S
C1107 C1099 1.433 . S
C1107 N1109 1.384 . S
N1108 C1104 1.427 . S
N1108 C1105 1.384 . S
N1109 C1101 1.427 . S
N1109 C1107 1.384 . S
H1110 C1116 0.930 . S
H1111 C1120 0.930 . S
H1112 C1125 0.929 . S
H1113 C1123 0.929 . S
H1114 C1118 0.929 . S
H1115 C1124 0.929 . S
C1116 H1110 0.930 . S
C1116 C1117 1.367 . S
C1116 C1124 1.378 . S
C1117 C1116 1.367 . S
C1117 C1125 1.433 . S
C1118 H1114 0.929 . S
C1118 C1120 1.378 . S
C1118 C1122 1.350 . S
C1119 C1122 1.463 . S
C1119 C1124 1.350 . S
C1119 N1127 1.427 . S
C1120 H1111 0.930 . S
C1120 C1118 1.378 . S
C1120 C1121 1.367 . S
C1121 C1120 1.367 . S
C1121 C1123 1.433 . S
C1122 C1118 1.350 . S
C1122 C1119 1.463 . S
C1122 N1126 1.427 . S
C1123 H1113 0.929 . S
C1123 C1121 1.433 . S
C1123 N1126 1.384 . S
C1124 H1115 0.929 . S
C1124 C1116 1.378 . S
C1124 C1119 1.350 . S
C1125 H1112 0.929 . S
C1125 C1117 1.433 . S
C1125 N1127 1.384 . S
N1126 C1122 1.427 . S
N1126 C1123 1.384 . S
N1127 C1119 1.427 . S
N1127 C1125 1.384 . S
H1128 C1134 0.930 . S
H1129 C1138 0.930 . S
H1130 C1143 0.929 . S
H1131 C1141 0.929 . S
H1132 C1136 0.929 . S
H1133 C1142 0.929 . S
C1134 H1128 0.930 . S
C1134 C1135 1.367 . S
C1134 C1142 1.378 . S
C1135 C1134 1.367 . S
C1135 C1143 1.433 . S
C1136 H1132 0.929 . S
C1136 C1138 1.378 . S
C1136 C1140 1.350 . S
C1137 C1140 1.463 . S
C1137 C1142 1.350 . S
C1137 N1145 1.427 . S
C1138 H1129 0.930 . S
C1138 C1136 1.378 . S
C1138 C1139 1.367 . S
C1139 C1138 1.367 . S
C1139 C1141 1.433 . S
C1140 C1136 1.350 . S
C1140 C1137 1.463 . S
C1140 N1144 1.427 . S
C1141 H1131 0.929 . S
C1141 C1139 1.433 . S
C1141 N1144 1.384 . S
C1142 H1133 0.929 . S
C1142 C1134 1.378 . S
C1142 C1137 1.350 . S
C1143 H1130 0.929 . S
C1143 C1135 1.433 . S
C1143 N1145 1.384 . S
N1144 C1140 1.427 . S
N1144 C1141 1.384 . S
N1145 C1137 1.427 . S
N1145 C1143 1.384 . S
H1146 C1152 0.930 . S
H1147 C1156 0.930 . S
H1148 C1161 0.929 . S
H1149 C1159 0.929 . S
H1150 C1154 0.929 . S
H1151 C1160 0.929 . S
C1152 H1146 0.930 . S
C1152 C1153 1.367 . S
C1152 C1160 1.378 . S
C1153 C1152 1.367 . S
C1153 C1161 1.433 . S
C1154 H1150 0.929 . S
C1154 C1156 1.378 . S
C1154 C1158 1.350 . S
C1155 C1158 1.463 . S
C1155 C1160 1.350 . S
C1155 N1163 1.427 . S
C1156 H1147 0.930 . S
C1156 C1154 1.378 . S
C1156 C1157 1.367 . S
C1157 C1156 1.367 . S
C1157 C1159 1.433 . S
C1158 C1154 1.350 . S
C1158 C1155 1.463 . S
C1158 N1162 1.427 . S
C1159 H1149 0.929 . S
C1159 C1157 1.433 . S
C1159 N1162 1.384 . S
C1160 H1151 0.929 . S
C1160 C1152 1.378 . S
C1160 C1155 1.350 . S
C1161 H1148 0.929 . S
C1161 C1153 1.433 . S
C1161 N1163 1.384 . S
N1162 C1158 1.427 . S
N1162 C1159 1.384 . S
N1163 C1155 1.427 . S
N1163 C1161 1.384 . S
H1164 C1170 0.930 . S
H1165 C1174 0.930 . S
H1166 C1179 0.929 . S
H1167 C1177 0.929 . S
H1168 C1172 0.929 . S
H1169 C1178 0.929 . S
C1170 H1164 0.930 . S
C1170 C1171 1.367 . S
C1170 C1178 1.378 . S
C1171 C1170 1.367 . S
C1171 C1179 1.433 . S
C1172 H1168 0.929 . S
C1172 C1174 1.378 . S
C1172 C1176 1.350 . S
C1173 C1176 1.463 . S
C1173 C1178 1.350 . S
C1173 N1181 1.427 . S
C1174 H1165 0.930 . S
C1174 C1172 1.378 . S
C1174 C1175 1.367 . S
C1175 C1174 1.367 . S
C1175 C1177 1.433 . S
C1176 C1172 1.350 . S
C1176 C1173 1.463 . S
C1176 N1180 1.427 . S
C1177 H1167 0.929 . S
C1177 C1175 1.433 . S
C1177 N1180 1.384 . S
C1178 H1169 0.929 . S
C1178 C1170 1.378 . S
C1178 C1173 1.350 . S
C1179 H1166 0.929 . S
C1179 C1171 1.433 . S
C1179 N1181 1.384 . S
N1180 C1176 1.427 . S
N1180 C1177 1.384 . S
N1181 C1173 1.427 . S
N1181 C1179 1.384 . S
H1182 C1188 0.930 . S
H1183 C1192 0.930 . S
H1184 C1197 0.929 . S
H1185 C1195 0.929 . S
H1186 C1190 0.929 . S
H1187 C1196 0.929 . S
C1188 H1182 0.930 . S
C1188 C1189 1.367 . S
C1188 C1196 1.378 . S
C1189 C1188 1.367 . S
C1189 C1197 1.433 . S
C1190 H1186 0.929 . S
C1190 C1192 1.378 . S
C1190 C1194 1.350 . S
C1191 C1194 1.463 . S
C1191 C1196 1.350 . S
C1191 N1199 1.427 . S
C1192 H1183 0.930 . S
C1192 C1190 1.378 . S
C1192 C1193 1.367 . S
C1193 C1192 1.367 . S
C1193 C1195 1.433 . S
C1194 C1190 1.350 . S
C1194 C1191 1.463 . S
C1194 N1198 1.427 . S
C1195 H1185 0.929 . S
C1195 C1193 1.433 . S
C1195 N1198 1.384 . S
C1196 H1187 0.929 . S
C1196 C1188 1.378 . S
C1196 C1191 1.350 . S
C1197 H1184 0.929 . S
C1197 C1189 1.433 . S
C1197 N1199 1.384 . S
N1198 C1194 1.427 . S
N1198 C1195 1.384 . S
N1199 C1191 1.427 . S
N1199 C1197 1.384 . S
H1200 C1206 0.930 . S
H1201 C1210 0.930 . S
H1202 C1215 0.929 . S
H1203 C1213 0.929 . S
H1204 C1208 0.929 . S
H1205 C1214 0.929 . S
C1206 H1200 0.930 . S
C1206 C1207 1.367 . S
C1206 C1214 1.378 . S
C1207 C1206 1.367 . S
C1207 C1215 1.433 . S
C1208 H1204 0.929 . S
C1208 C1210 1.378 . S
C1208 C1212 1.350 . S
C1209 C1212 1.463 . S
C1209 C1214 1.350 . S
C1209 N1217 1.427 . S
C1210 H1201 0.930 . S
C1210 C1208 1.378 . S
C1210 C1211 1.367 . S
C1211 C1210 1.367 . S
C1211 C1213 1.433 . S
C1212 C1208 1.350 . S
C1212 C1209 1.463 . S
C1212 N1216 1.427 . S
C1213 H1203 0.929 . S
C1213 C1211 1.433 . S
C1213 N1216 1.384 . S
C1214 H1205 0.929 . S
C1214 C1206 1.378 . S
C1214 C1209 1.350 . S
C1215 H1202 0.929 . S
C1215 C1207 1.433 . S
C1215 N1217 1.384 . S
N1216 C1212 1.427 . S
N1216 C1213 1.384 . S
N1217 C1209 1.427 . S
N1217 C1215 1.384 . S
H1218 C1224 0.930 . S
H1219 C1228 0.930 . S
H1220 C1233 0.929 . S
H1221 C1231 0.929 . S
H1222 C1226 0.929 . S
H1223 C1232 0.929 . S
C1224 H1218 0.930 . S
C1224 C1225 1.367 . S
C1224 C1232 1.378 . S
C1225 C1224 1.367 . S
C1225 C1233 1.433 . S
C1226 H1222 0.929 . S
C1226 C1228 1.378 . S
C1226 C1230 1.350 . S
C1227 C1230 1.463 . S
C1227 C1232 1.350 . S
C1227 N1235 1.427 . S
C1228 H1219 0.930 . S
C1228 C1226 1.378 . S
C1228 C1229 1.367 . S
C1229 C1228 1.367 . S
C1229 C1231 1.433 . S
C1230 C1226 1.350 . S
C1230 C1227 1.463 . S
C1230 N1234 1.427 . S
C1231 H1221 0.929 . S
C1231 C1229 1.433 . S
C1231 N1234 1.384 . S
C1232 H1223 0.929 . S
C1232 C1224 1.378 . S
C1232 C1227 1.350 . S
C1233 H1220 0.929 . S
C1233 C1225 1.433 . S
C1233 N1235 1.384 . S
N1234 C1230 1.427 . S
N1234 C1231 1.384 . S
N1235 C1227 1.427 . S
N1235 C1233 1.384 . S
H1236 C1242 0.930 . S
H1237 C1246 0.930 . S
H1238 C1251 0.929 . S
H1239 C1249 0.929 . S
H1240 C1244 0.929 . S
H1241 C1250 0.929 . S
C1242 H1236 0.930 . S
C1242 C1243 1.367 . S
C1242 C1250 1.378 . S
C1243 C1242 1.367 . S
C1243 C1251 1.433 . S
C1244 H1240 0.929 . S
C1244 C1246 1.378 . S
C1244 C1248 1.350 . S
C1245 C1248 1.463 . S
C1245 C1250 1.350 . S
C1245 N1253 1.427 . S
C1246 H1237 0.930 . S
C1246 C1244 1.378 . S
C1246 C1247 1.367 . S
C1247 C1246 1.367 . S
C1247 C1249 1.433 . S
C1248 C1244 1.350 . S
C1248 C1245 1.463 . S
C1248 N1252 1.427 . S
C1249 H1239 0.929 . S
C1249 C1247 1.433 . S
C1249 N1252 1.384 . S
C1250 H1241 0.929 . S
C1250 C1242 1.378 . S
C1250 C1245 1.350 . S
C1251 H1238 0.929 . S
C1251 C1243 1.433 . S
C1251 N1253 1.384 . S
N1252 C1248 1.427 . S
N1252 C1249 1.384 . S
N1253 C1245 1.427 . S
N1253 C1251 1.384 . S
H1254 C1260 0.930 . S
H1255 C1264 0.930 . S
H1256 C1269 0.929 . S
H1257 C1267 0.929 . S
H1258 C1262 0.929 . S
H1259 C1268 0.929 . S
C1260 H1254 0.930 . S
C1260 C1261 1.367 . S
C1260 C1268 1.378 . S
C1261 C1260 1.367 . S
C1261 C1269 1.433 . S
C1262 H1258 0.929 . S
C1262 C1264 1.378 . S
C1262 C1266 1.350 . S
C1263 C1266 1.463 . S
C1263 C1268 1.350 . S
C1263 N1271 1.427 . S
C1264 H1255 0.930 . S
C1264 C1262 1.378 . S
C1264 C1265 1.367 . S
C1265 C1264 1.367 . S
C1265 C1267 1.433 . S
C1266 C1262 1.350 . S
C1266 C1263 1.463 . S
C1266 N1270 1.427 . S
C1267 H1257 0.929 . S
C1267 C1265 1.433 . S
C1267 N1270 1.384 . S
C1268 H1259 0.929 . S
C1268 C1260 1.378 . S
C1268 C1263 1.350 . S
C1269 H1256 0.929 . S
C1269 C1261 1.433 . S
C1269 N1271 1.384 . S
N1270 C1266 1.427 . S
N1270 C1267 1.384 . S
N1271 C1263 1.427 . S
N1271 C1269 1.384 . S
H1272 C1278 0.930 . S
H1273 C1282 0.930 . S
H1274 C1287 0.929 . S
H1275 C1285 0.929 . S
H1276 C1280 0.929 . S
H1277 C1286 0.929 . S
C1278 H1272 0.930 . S
C1278 C1279 1.367 . S
C1278 C1286 1.378 . S
C1279 C1278 1.367 . S
C1279 C1287 1.433 . S
C1280 H1276 0.929 . S
C1280 C1282 1.378 . S
C1280 C1284 1.350 . S
C1281 C1284 1.463 . S
C1281 C1286 1.350 . S
C1281 N1289 1.427 . S
C1282 H1273 0.930 . S
C1282 C1280 1.378 . S
C1282 C1283 1.367 . S
C1283 C1282 1.367 . S
C1283 C1285 1.433 . S
C1284 C1280 1.350 . S
C1284 C1281 1.463 . S
C1284 N1288 1.427 . S
C1285 H1275 0.929 . S
C1285 C1283 1.433 . S
C1285 N1288 1.384 . S
C1286 H1277 0.929 . S
C1286 C1278 1.378 . S
C1286 C1281 1.350 . S
C1287 H1274 0.929 . S
C1287 C1279 1.433 . S
C1287 N1289 1.384 . S
N1288 C1284 1.427 . S
N1288 C1285 1.384 . S
N1289 C1281 1.427 . S
N1289 C1287 1.384 . S
H1290 C1296 0.930 . S
H1291 C1300 0.930 . S
H1292 C1305 0.929 . S
H1293 C1303 0.929 . S
H1294 C1298 0.929 . S
H1295 C1304 0.929 . S
C1296 H1290 0.930 . S
C1296 C1297 1.367 . S
C1296 C1304 1.378 . S
C1297 C1296 1.367 . S
C1297 C1305 1.433 . S
C1298 H1294 0.929 . S
C1298 C1300 1.378 . S
C1298 C1302 1.350 . S
C1299 C1302 1.463 . S
C1299 C1304 1.350 . S
C1299 N1307 1.427 . S
C1300 H1291 0.930 . S
C1300 C1298 1.378 . S
C1300 C1301 1.367 . S
C1301 C1300 1.367 . S
C1301 C1303 1.433 . S
C1302 C1298 1.350 . S
C1302 C1299 1.463 . S
C1302 N1306 1.427 . S
C1303 H1293 0.929 . S
C1303 C1301 1.433 . S
C1303 N1306 1.384 . S
C1304 H1295 0.929 . S
C1304 C1296 1.378 . S
C1304 C1299 1.350 . S
C1305 H1292 0.929 . S
C1305 C1297 1.433 . S
C1305 N1307 1.384 . S
N1306 C1302 1.427 . S
N1306 C1303 1.384 . S
N1307 C1299 1.427 . S
N1307 C1305 1.384 . S
H1308 C1314 0.930 . S
H1309 C1318 0.930 . S
H1310 C1323 0.929 . S
H1311 C1321 0.929 . S
H1312 C1316 0.929 . S
H1313 C1322 0.929 . S
C1314 H1308 0.930 . S
C1314 C1315 1.367 . S
C1314 C1322 1.378 . S
C1315 C1314 1.367 . S
C1315 C1323 1.433 . S
C1316 H1312 0.929 . S
C1316 C1318 1.378 . S
C1316 C1320 1.350 . S
C1317 C1320 1.463 . S
C1317 C1322 1.350 . S
C1317 N1325 1.427 . S
C1318 H1309 0.930 . S
C1318 C1316 1.378 . S
C1318 C1319 1.367 . S
C1319 C1318 1.367 . S
C1319 C1321 1.433 . S
C1320 C1316 1.350 . S
C1320 C1317 1.463 . S
C1320 N1324 1.427 . S
C1321 H1311 0.929 . S
C1321 C1319 1.433 . S
C1321 N1324 1.384 . S
C1322 H1313 0.929 . S
C1322 C1314 1.378 . S
C1322 C1317 1.350 . S
C1323 H1310 0.929 . S
C1323 C1315 1.433 . S
C1323 N1325 1.384 . S
N1324 C1320 1.427 . S
N1324 C1321 1.384 . S
N1325 C1317 1.427 . S
N1325 C1323 1.384 . S
H1326 C1332 0.930 . S
H1327 C1336 0.930 . S
H1328 C1341 0.929 . S
H1329 C1339 0.929 . S
H1330 C1334 0.929 . S
H1331 C1340 0.929 . S
C1332 H1326 0.930 . S
C1332 C1333 1.367 . S
C1332 C1340 1.378 . S
C1333 C1332 1.367 . S
C1333 C1341 1.433 . S
C1334 H1330 0.929 . S
C1334 C1336 1.378 . S
C1334 C1338 1.350 . S
C1335 C1338 1.463 . S
C1335 C1340 1.350 . S
C1335 N1343 1.427 . S
C1336 H1327 0.930 . S
C1336 C1334 1.378 . S
C1336 C1337 1.367 . S
C1337 C1336 1.367 . S
C1337 C1339 1.433 . S
C1338 C1334 1.350 . S
C1338 C1335 1.463 . S
C1338 N1342 1.427 . S
C1339 H1329 0.929 . S
C1339 C1337 1.433 . S
C1339 N1342 1.384 . S
C1340 H1331 0.929 . S
C1340 C1332 1.378 . S
C1340 C1335 1.350 . S
C1341 H1328 0.929 . S
C1341 C1333 1.433 . S
C1341 N1343 1.384 . S
N1342 C1338 1.427 . S
N1342 C1339 1.384 . S
N1343 C1335 1.427 . S
N1343 C1341 1.384 . S
H1344 C1350 0.930 . S
H1345 C1354 0.930 . S
H1346 C1359 0.929 . S
H1347 C1357 0.929 . S
H1348 C1352 0.929 . S
H1349 C1358 0.929 . S
C1350 H1344 0.930 . S
C1350 C1351 1.367 . S
C1350 C1358 1.378 . S
C1351 C1350 1.367 . S
C1351 C1359 1.433 . S
C1352 H1348 0.929 . S
C1352 C1354 1.378 . S
C1352 C1356 1.350 . S
C1353 C1356 1.463 . S
C1353 C1358 1.350 . S
C1353 N1361 1.427 . S
C1354 H1345 0.930 . S
C1354 C1352 1.378 . S
C1354 C1355 1.367 . S
C1355 C1354 1.367 . S
C1355 C1357 1.433 . S
C1356 C1352 1.350 . S
C1356 C1353 1.463 . S
C1356 N1360 1.427 . S
C1357 H1347 0.929 . S
C1357 C1355 1.433 . S
C1357 N1360 1.384 . S
C1358 H1349 0.929 . S
C1358 C1350 1.378 . S
C1358 C1353 1.350 . S
C1359 H1346 0.929 . S
C1359 C1351 1.433 . S
C1359 N1361 1.384 . S
N1360 C1356 1.427 . S
N1360 C1357 1.384 . S
N1361 C1353 1.427 . S
N1361 C1359 1.384 . S
H1362 C1368 0.930 . S
H1363 C1372 0.930 . S
H1364 C1377 0.929 . S
H1365 C1375 0.929 . S
H1366 C1370 0.929 . S
H1367 C1376 0.929 . S
C1368 H1362 0.930 . S
C1368 C1369 1.367 . S
C1368 C1376 1.378 . S
C1369 C1368 1.367 . S
C1369 C1377 1.433 . S
C1370 H1366 0.929 . S
C1370 C1372 1.378 . S
C1370 C1374 1.350 . S
C1371 C1374 1.463 . S
C1371 C1376 1.350 . S
C1371 N1379 1.427 . S
C1372 H1363 0.930 . S
C1372 C1370 1.378 . S
C1372 C1373 1.367 . S
C1373 C1372 1.367 . S
C1373 C1375 1.433 . S
C1374 C1370 1.350 . S
C1374 C1371 1.463 . S
C1374 N1378 1.427 . S
C1375 H1365 0.929 . S
C1375 C1373 1.433 . S
C1375 N1378 1.384 . S
C1376 H1367 0.929 . S
C1376 C1368 1.378 . S
C1376 C1371 1.350 . S
C1377 H1364 0.929 . S
C1377 C1369 1.433 . S
C1377 N1379 1.384 . S
N1378 C1374 1.427 . S
N1378 C1375 1.384 . S
N1379 C1371 1.427 . S
N1379 C1377 1.384 . S
H1380 C1386 0.930 . S
H1381 C1390 0.930 . S
H1382 C1395 0.929 . S
H1383 C1393 0.929 . S
H1384 C1388 0.929 . S
H1385 C1394 0.929 . S
C1386 H1380 0.930 . S
C1386 C1387 1.367 . S
C1386 C1394 1.378 . S
C1387 C1386 1.367 . S
C1387 C1395 1.433 . S
C1388 H1384 0.929 . S
C1388 C1390 1.378 . S
C1388 C1392 1.350 . S
C1389 C1392 1.463 . S
C1389 C1394 1.350 . S
C1389 N1397 1.427 . S
C1390 H1381 0.930 . S
C1390 C1388 1.378 . S
C1390 C1391 1.367 . S
C1391 C1390 1.367 . S
C1391 C1393 1.433 . S
C1392 C1388 1.350 . S
C1392 C1389 1.463 . S
C1392 N1396 1.427 . S
C1393 H1383 0.929 . S
C1393 C1391 1.433 . S
C1393 N1396 1.384 . S
C1394 H1385 0.929 . S
C1394 C1386 1.378 . S
C1394 C1389 1.350 . S
C1395 H1382 0.929 . S
C1395 C1387 1.433 . S
C1395 N1397 1.384 . S
N1396 C1392 1.427 . S
N1396 C1393 1.384 . S
N1397 C1389 1.427 . S
N1397 C1395 1.384 . S
H1398 C1404 0.930 . S
H1399 C1408 0.930 . S
H1400 C1413 0.929 . S
H1401 C1411 0.929 . S
H1402 C1406 0.929 . S
H1403 C1412 0.929 . S
C1404 H1398 0.930 . S
C1404 C1405 1.367 . S
C1404 C1412 1.378 . S
C1405 C1404 1.367 . S
C1405 C1413 1.433 . S
C1406 H1402 0.929 . S
C1406 C1408 1.378 . S
C1406 C1410 1.350 . S
C1407 C1410 1.463 . S
C1407 C1412 1.350 . S
C1407 N1415 1.427 . S
C1408 H1399 0.930 . S
C1408 C1406 1.378 . S
C1408 C1409 1.367 . S
C1409 C1408 1.367 . S
C1409 C1411 1.433 . S
C1410 C1406 1.350 . S
C1410 C1407 1.463 . S
C1410 N1414 1.427 . S
C1411 H1401 0.929 . S
C1411 C1409 1.433 . S
C1411 N1414 1.384 . S
C1412 H1403 0.929 . S
C1412 C1404 1.378 . S
C1412 C1407 1.350 . S
C1413 H1400 0.929 . S
C1413 C1405 1.433 . S
C1413 N1415 1.384 . S
N1414 C1410 1.427 . S
N1414 C1411 1.384 . S
N1415 C1407 1.427 . S
N1415 C1413 1.384 . S
H1416 C1422 0.930 . S
H1417 C1426 0.930 . S
H1418 C1431 0.929 . S
H1419 C1429 0.929 . S
H1420 C1424 0.929 . S
H1421 C1430 0.929 . S
C1422 H1416 0.930 . S
C1422 C1423 1.367 . S
C1422 C1430 1.378 . S
C1423 C1422 1.367 . S
C1423 C1431 1.433 . S
C1424 H1420 0.929 . S
C1424 C1426 1.378 . S
C1424 C1428 1.350 . S
C1425 C1428 1.463 . S
C1425 C1430 1.350 . S
C1425 N1433 1.427 . S
C1426 H1417 0.930 . S
C1426 C1424 1.378 . S
C1426 C1427 1.367 . S
C1427 C1426 1.367 . S
C1427 C1429 1.433 . S
C1428 C1424 1.350 . S
C1428 C1425 1.463 . S
C1428 N1432 1.427 . S
C1429 H1419 0.929 . S
C1429 C1427 1.433 . S
C1429 N1432 1.384 . S
C1430 H1421 0.929 . S
C1430 C1422 1.378 . S
C1430 C1425 1.350 . S
C1431 H1418 0.929 . S
C1431 C1423 1.433 . S
C1431 N1433 1.384 . S
N1432 C1428 1.427 . S
N1432 C1429 1.384 . S
N1433 C1425 1.427 . S
N1433 C1431 1.384 . S
H1434 C1440 0.930 . S
H1435 C1444 0.930 . S
H1436 C1449 0.929 . S
H1437 C1447 0.929 . S
H1438 C1442 0.929 . S
H1439 C1448 0.929 . S
C1440 H1434 0.930 . S
C1440 C1441 1.367 . S
C1440 C1448 1.378 . S
C1441 C1440 1.367 . S
C1441 C1449 1.433 . S
C1442 H1438 0.929 . S
C1442 C1444 1.378 . S
C1442 C1446 1.350 . S
C1443 C1446 1.463 . S
C1443 C1448 1.350 . S
C1443 N1451 1.427 . S
C1444 H1435 0.930 . S
C1444 C1442 1.378 . S
C1444 C1445 1.367 . S
C1445 C1444 1.367 . S
C1445 C1447 1.433 . S
C1446 C1442 1.350 . S
C1446 C1443 1.463 . S
C1446 N1450 1.427 . S
C1447 H1437 0.929 . S
C1447 C1445 1.433 . S
C1447 N1450 1.384 . S
C1448 H1439 0.929 . S
C1448 C1440 1.378 . S
C1448 C1443 1.350 . S
C1449 H1436 0.929 . S
C1449 C1441 1.433 . S
C1449 N1451 1.384 . S
N1450 C1446 1.427 . S
N1450 C1447 1.384 . S
N1451 C1443 1.427 . S
N1451 C1449 1.384 . S
H1452 C1458 0.930 . S
H1453 C1462 0.930 . S
H1454 C1467 0.929 . S
H1455 C1465 0.929 . S
H1456 C1460 0.929 . S
H1457 C1466 0.929 . S
C1458 H1452 0.930 . S
C1458 C1459 1.367 . S
C1458 C1466 1.378 . S
C1459 C1458 1.367 . S
C1459 C1467 1.433 . S
C1460 H1456 0.929 . S
C1460 C1462 1.378 . S
C1460 C1464 1.350 . S
C1461 C1464 1.463 . S
C1461 C1466 1.350 . S
C1461 N1469 1.427 . S
C1462 H1453 0.930 . S
C1462 C1460 1.378 . S
C1462 C1463 1.367 . S
C1463 C1462 1.367 . S
C1463 C1465 1.433 . S
C1464 C1460 1.350 . S
C1464 C1461 1.463 . S
C1464 N1468 1.427 . S
C1465 H1455 0.929 . S
C1465 C1463 1.433 . S
C1465 N1468 1.384 . S
C1466 H1457 0.929 . S
C1466 C1458 1.378 . S
C1466 C1461 1.350 . S
C1467 H1454 0.929 . S
C1467 C1459 1.433 . S
C1467 N1469 1.384 . S
N1468 C1464 1.427 . S
N1468 C1465 1.384 . S
N1469 C1461 1.427 . S
N1469 C1467 1.384 . S
H1470 C1476 0.930 . S
H1471 C1480 0.930 . S
H1472 C1485 0.929 . S
H1473 C1483 0.929 . S
H1474 C1478 0.929 . S
H1475 C1484 0.929 . S
C1476 H1470 0.930 . S
C1476 C1477 1.367 . S
C1476 C1484 1.378 . S
C1477 C1476 1.367 . S
C1477 C1485 1.433 . S
C1478 H1474 0.929 . S
C1478 C1480 1.378 . S
C1478 C1482 1.350 . S
C1479 C1482 1.463 . S
C1479 C1484 1.350 . S
C1479 N1487 1.427 . S
C1480 H1471 0.930 . S
C1480 C1478 1.378 . S
C1480 C1481 1.367 . S
C1481 C1480 1.367 . S
C1481 C1483 1.433 . S
C1482 C1478 1.350 . S
C1482 C1479 1.463 . S
C1482 N1486 1.427 . S
C1483 H1473 0.929 . S
C1483 C1481 1.433 . S
C1483 N1486 1.384 . S
C1484 H1475 0.929 . S
C1484 C1476 1.378 . S
C1484 C1479 1.350 . S
C1485 H1472 0.929 . S
C1485 C1477 1.433 . S
C1485 N1487 1.384 . S
N1486 C1482 1.427 . S
N1486 C1483 1.384 . S
N1487 C1479 1.427 . S
N1487 C1485 1.384 . S
H1488 C1494 0.930 . S
H1489 C1498 0.930 . S
H1490 C1503 0.929 . S
H1491 C1501 0.929 . S
H1492 C1496 0.929 . S
H1493 C1502 0.929 . S
C1494 H1488 0.930 . S
C1494 C1495 1.367 . S
C1494 C1502 1.378 . S
C1495 C1494 1.367 . S
C1495 C1503 1.433 . S
C1496 H1492 0.929 . S
C1496 C1498 1.378 . S
C1496 C1500 1.350 . S
C1497 C1500 1.463 . S
C1497 C1502 1.350 . S
C1497 N1505 1.427 . S
C1498 H1489 0.930 . S
C1498 C1496 1.378 . S
C1498 C1499 1.367 . S
C1499 C1498 1.367 . S
C1499 C1501 1.433 . S
C1500 C1496 1.350 . S
C1500 C1497 1.463 . S
C1500 N1504 1.427 . S
C1501 H1491 0.929 . S
C1501 C1499 1.433 . S
C1501 N1504 1.384 . S
C1502 H1493 0.929 . S
C1502 C1494 1.378 . S
C1502 C1497 1.350 . S
C1503 H1490 0.929 . S
C1503 C1495 1.433 . S
C1503 N1505 1.384 . S
N1504 C1500 1.427 . S
N1504 C1501 1.384 . S
N1505 C1497 1.427 . S
N1505 C1503 1.384 . S
H1506 C1512 0.930 . S
H1507 C1516 0.930 . S
H1508 C1521 0.929 . S
H1509 C1519 0.929 . S
H1510 C1514 0.929 . S
H1511 C1520 0.929 . S
C1512 H1506 0.930 . S
C1512 C1513 1.367 . S
C1512 C1520 1.378 . S
C1513 C1512 1.367 . S
C1513 C1521 1.433 . S
C1514 H1510 0.929 . S
C1514 C1516 1.378 . S
C1514 C1518 1.350 . S
C1515 C1518 1.463 . S
C1515 C1520 1.350 . S
C1515 N1523 1.427 . S
C1516 H1507 0.930 . S
C1516 C1514 1.378 . S
C1516 C1517 1.367 . S
C1517 C1516 1.367 . S
C1517 C1519 1.433 . S
C1518 C1514 1.350 . S
C1518 C1515 1.463 . S
C1518 N1522 1.427 . S
C1519 H1509 0.929 . S
C1519 C1517 1.433 . S
C1519 N1522 1.384 . S
C1520 H1511 0.929 . S
C1520 C1512 1.378 . S
C1520 C1515 1.350 . S
C1521 H1508 0.929 . S
C1521 C1513 1.433 . S
C1521 N1523 1.384 . S
N1522 C1518 1.427 . S
N1522 C1519 1.384 . S
N1523 C1515 1.427 . S
N1523 C1521 1.384 . S
H1524 C1530 0.930 . S
H1525 C1534 0.930 . S
H1526 C1539 0.929 . S
H1527 C1537 0.929 . S
H1528 C1532 0.929 . S
H1529 C1538 0.929 . S
C1530 H1524 0.930 . S
C1530 C1531 1.367 . S
C1530 C1538 1.378 . S
C1531 C1530 1.367 . S
C1531 C1539 1.433 . S
C1532 H1528 0.929 . S
C1532 C1534 1.378 . S
C1532 C1536 1.350 . S
C1533 C1536 1.463 . S
C1533 C1538 1.350 . S
C1533 N1541 1.427 . S
C1534 H1525 0.930 . S
C1534 C1532 1.378 . S
C1534 C1535 1.367 . S
C1535 C1534 1.367 . S
C1535 C1537 1.433 . S
C1536 C1532 1.350 . S
C1536 C1533 1.463 . S
C1536 N1540 1.427 . S
C1537 H1527 0.929 . S
C1537 C1535 1.433 . S
C1537 N1540 1.384 . S
C1538 H1529 0.929 . S
C1538 C1530 1.378 . S
C1538 C1533 1.350 . S
C1539 H1526 0.929 . S
C1539 C1531 1.433 . S
C1539 N1541 1.384 . S
N1540 C1536 1.427 . S
N1540 C1537 1.384 . S
N1541 C1533 1.427 . S
N1541 C1539 1.384 . S
H1542 C1548 0.930 . S
H1543 C1552 0.930 . S
H1544 C1557 0.929 . S
H1545 C1555 0.929 . S
H1546 C1550 0.929 . S
H1547 C1556 0.929 . S
C1548 H1542 0.930 . S
C1548 C1549 1.367 . S
C1548 C1556 1.378 . S
C1549 C1548 1.367 . S
C1549 C1557 1.433 . S
C1550 H1546 0.929 . S
C1550 C1552 1.378 . S
C1550 C1554 1.350 . S
C1551 C1554 1.463 . S
C1551 C1556 1.350 . S
C1551 N1559 1.427 . S
C1552 H1543 0.930 . S
C1552 C1550 1.378 . S
C1552 C1553 1.367 . S
C1553 C1552 1.367 . S
C1553 C1555 1.433 . S
C1554 C1550 1.350 . S
C1554 C1551 1.463 . S
C1554 N1558 1.427 . S
C1555 H1545 0.929 . S
C1555 C1553 1.433 . S
C1555 N1558 1.384 . S
C1556 H1547 0.929 . S
C1556 C1548 1.378 . S
C1556 C1551 1.350 . S
C1557 H1544 0.929 . S
C1557 C1549 1.433 . S
C1557 N1559 1.384 . S
N1558 C1554 1.427 . S
N1558 C1555 1.384 . S
N1559 C1551 1.427 . S
N1559 C1557 1.384 . S
H1560 C1566 0.930 . S
H1561 C1570 0.930 . S
H1562 C1575 0.929 . S
H1563 C1573 0.929 . S
H1564 C1568 0.929 . S
H1565 C1574 0.929 . S
C1566 H1560 0.930 . S
C1566 C1567 1.367 . S
C1566 C1574 1.378 . S
C1567 C1566 1.367 . S
C1567 C1575 1.433 . S
C1568 H1564 0.929 . S
C1568 C1570 1.378 . S
C1568 C1572 1.350 . S
C1569 C1572 1.463 . S
C1569 C1574 1.350 . S
C1569 N1577 1.427 . S
C1570 H1561 0.930 . S
C1570 C1568 1.378 . S
C1570 C1571 1.367 . S
C1571 C1570 1.367 . S
C1571 C1573 1.433 . S
C1572 C1568 1.350 . S
C1572 C1569 1.463 . S
C1572 N1576 1.427 . S
C1573 H1563 0.929 . S
C1573 C1571 1.433 . S
C1573 N1576 1.384 . S
C1574 H1565 0.929 . S
C1574 C1566 1.378 . S
C1574 C1569 1.350 . S
C1575 H1562 0.929 . S
C1575 C1567 1.433 . S
C1575 N1577 1.384 . S
N1576 C1572 1.427 . S
N1576 C1573 1.384 . S
N1577 C1569 1.427 . S
N1577 C1575 1.384 . S
H1578 C1584 0.930 . S
H1579 C1588 0.930 . S
H1580 C1593 0.929 . S
H1581 C1591 0.929 . S
H1582 C1586 0.929 . S
H1583 C1592 0.929 . S
C1584 H1578 0.930 . S
C1584 C1585 1.367 . S
C1584 C1592 1.378 . S
C1585 C1584 1.367 . S
C1585 C1593 1.433 . S
C1586 H1582 0.929 . S
C1586 C1588 1.378 . S
C1586 C1590 1.350 . S
C1587 C1590 1.463 . S
C1587 C1592 1.350 . S
C1587 N1595 1.427 . S
C1588 H1579 0.930 . S
C1588 C1586 1.378 . S
C1588 C1589 1.367 . S
C1589 C1588 1.367 . S
C1589 C1591 1.433 . S
C1590 C1586 1.350 . S
C1590 C1587 1.463 . S
C1590 N1594 1.427 . S
C1591 H1581 0.929 . S
C1591 C1589 1.433 . S
C1591 N1594 1.384 . S
C1592 H1583 0.929 . S
C1592 C1584 1.378 . S
C1592 C1587 1.350 . S
C1593 H1580 0.929 . S
C1593 C1585 1.433 . S
C1593 N1595 1.384 . S
N1594 C1590 1.427 . S
N1594 C1591 1.384 . S
N1595 C1587 1.427 . S
N1595 C1593 1.384 . S
H1596 C1602 0.930 . S
H1597 C1606 0.930 . S
H1598 C1611 0.929 . S
H1599 C1609 0.929 . S
H1600 C1604 0.929 . S
H1601 C1610 0.929 . S
C1602 H1596 0.930 . S
C1602 C1603 1.367 . S
C1602 C1610 1.378 . S
C1603 C1602 1.367 . S
C1603 C1611 1.433 . S
C1604 H1600 0.929 . S
C1604 C1606 1.378 . S
C1604 C1608 1.350 . S
C1605 C1608 1.463 . S
C1605 C1610 1.350 . S
C1605 N1613 1.427 . S
C1606 H1597 0.930 . S
C1606 C1604 1.378 . S
C1606 C1607 1.367 . S
C1607 C1606 1.367 . S
C1607 C1609 1.433 . S
C1608 C1604 1.350 . S
C1608 C1605 1.463 . S
C1608 N1612 1.427 . S
C1609 H1599 0.929 . S
C1609 C1607 1.433 . S
C1609 N1612 1.384 . S
C1610 H1601 0.929 . S
C1610 C1602 1.378 . S
C1610 C1605 1.350 . S
C1611 H1598 0.929 . S
C1611 C1603 1.433 . S
C1611 N1613 1.384 . S
N1612 C1608 1.427 . S
N1612 C1609 1.384 . S
N1613 C1605 1.427 . S
N1613 C1611 1.384 . S
H1614 C1620 0.930 . S
H1615 C1624 0.930 . S
H1616 C1629 0.929 . S
H1617 C1627 0.929 . S
H1618 C1622 0.929 . S
H1619 C1628 0.929 . S
C1620 H1614 0.930 . S
C1620 C1621 1.367 . S
C1620 C1628 1.378 . S
C1621 C1620 1.367 . S
C1621 C1629 1.433 . S
C1622 H1618 0.929 . S
C1622 C1624 1.378 . S
C1622 C1626 1.350 . S
C1623 C1626 1.463 . S
C1623 C1628 1.350 . S
C1623 N1631 1.427 . S
C1624 H1615 0.930 . S
C1624 C1622 1.378 . S
C1624 C1625 1.367 . S
C1625 C1624 1.367 . S
C1625 C1627 1.433 . S
C1626 C1622 1.350 . S
C1626 C1623 1.463 . S
C1626 N1630 1.427 . S
C1627 H1617 0.929 . S
C1627 C1625 1.433 . S
C1627 N1630 1.384 . S
C1628 H1619 0.929 . S
C1628 C1620 1.378 . S
C1628 C1623 1.350 . S
C1629 H1616 0.929 . S
C1629 C1621 1.433 . S
C1629 N1631 1.384 . S
N1630 C1626 1.427 . S
N1630 C1627 1.384 . S
N1631 C1623 1.427 . S
N1631 C1629 1.384 . S
H1632 C1638 0.930 . S
H1633 C1642 0.930 . S
H1634 C1647 0.929 . S
H1635 C1645 0.929 . S
H1636 C1640 0.929 . S
H1637 C1646 0.929 . S
C1638 H1632 0.930 . S
C1638 C1639 1.367 . S
C1638 C1646 1.378 . S
C1639 C1638 1.367 . S
C1639 C1647 1.433 . S
C1640 H1636 0.929 . S
C1640 C1642 1.378 . S
C1640 C1644 1.350 . S
C1641 C1644 1.463 . S
C1641 C1646 1.350 . S
C1641 N1649 1.427 . S
C1642 H1633 0.930 . S
C1642 C1640 1.378 . S
C1642 C1643 1.367 . S
C1643 C1642 1.367 . S
C1643 C1645 1.433 . S
C1644 C1640 1.350 . S
C1644 C1641 1.463 . S
C1644 N1648 1.427 . S
C1645 H1635 0.929 . S
C1645 C1643 1.433 . S
C1645 N1648 1.384 . S
C1646 H1637 0.929 . S
C1646 C1638 1.378 . S
C1646 C1641 1.350 . S
C1647 H1634 0.929 . S
C1647 C1639 1.433 . S
C1647 N1649 1.384 . S
N1648 C1644 1.427 . S
N1648 C1645 1.384 . S
N1649 C1641 1.427 . S
N1649 C1647 1.384 . S
H1650 C1656 0.930 . S
H1651 C1660 0.930 . S
H1652 C1665 0.929 . S
H1653 C1663 0.929 . S
H1654 C1658 0.929 . S
H1655 C1664 0.929 . S
C1656 H1650 0.930 . S
C1656 C1657 1.367 . S
C1656 C1664 1.378 . S
C1657 C1656 1.367 . S
C1657 C1665 1.433 . S
C1658 H1654 0.929 . S
C1658 C1660 1.378 . S
C1658 C1662 1.350 . S
C1659 C1662 1.463 . S
C1659 C1664 1.350 . S
C1659 N1667 1.427 . S
C1660 H1651 0.930 . S
C1660 C1658 1.378 . S
C1660 C1661 1.367 . S
C1661 C1660 1.367 . S
C1661 C1663 1.433 . S
C1662 C1658 1.350 . S
C1662 C1659 1.463 . S
C1662 N1666 1.427 . S
C1663 H1653 0.929 . S
C1663 C1661 1.433 . S
C1663 N1666 1.384 . S
C1664 H1655 0.929 . S
C1664 C1656 1.378 . S
C1664 C1659 1.350 . S
C1665 H1652 0.929 . S
C1665 C1657 1.433 . S
C1665 N1667 1.384 . S
N1666 C1662 1.427 . S
N1666 C1663 1.384 . S
N1667 C1659 1.427 . S
N1667 C1665 1.384 . S
H1668 C1674 0.930 . S
H1669 C1678 0.930 . S
H1670 C1683 0.929 . S
H1671 C1681 0.929 . S
H1672 C1676 0.929 . S
H1673 C1682 0.929 . S
C1674 H1668 0.930 . S
C1674 C1675 1.367 . S
C1674 C1682 1.378 . S
C1675 C1674 1.367 . S
C1675 C1683 1.433 . S
C1676 H1672 0.929 . S
C1676 C1678 1.378 . S
C1676 C1680 1.350 . S
C1677 C1680 1.463 . S
C1677 C1682 1.350 . S
C1677 N1685 1.427 . S
C1678 H1669 0.930 . S
C1678 C1676 1.378 . S
C1678 C1679 1.367 . S
C1679 C1678 1.367 . S
C1679 C1681 1.433 . S
C1680 C1676 1.350 . S
C1680 C1677 1.463 . S
C1680 N1684 1.427 . S
C1681 H1671 0.929 . S
C1681 C1679 1.433 . S
C1681 N1684 1.384 . S
C1682 H1673 0.929 . S
C1682 C1674 1.378 . S
C1682 C1677 1.350 . S
C1683 H1670 0.929 . S
C1683 C1675 1.433 . S
C1683 N1685 1.384 . S
N1684 C1680 1.427 . S
N1684 C1681 1.384 . S
N1685 C1677 1.427 . S
N1685 C1683 1.384 . S
H1686 C1692 0.930 . S
H1687 C1696 0.930 . S
H1688 C1701 0.929 . S
H1689 C1699 0.929 . S
H1690 C1694 0.929 . S
H1691 C1700 0.929 . S
C1692 H1686 0.930 . S
C1692 C1693 1.367 . S
C1692 C1700 1.378 . S
C1693 C1692 1.367 . S
C1693 C1701 1.433 . S
C1694 H1690 0.929 . S
C1694 C1696 1.378 . S
C1694 C1698 1.350 . S
C1695 C1698 1.463 . S
C1695 C1700 1.350 . S
C1695 N1703 1.427 . S
C1696 H1687 0.930 . S
C1696 C1694 1.378 . S
C1696 C1697 1.367 . S
C1697 C1696 1.367 . S
C1697 C1699 1.433 . S
C1698 C1694 1.350 . S
C1698 C1695 1.463 . S
C1698 N1702 1.427 . S
C1699 H1689 0.929 . S
C1699 C1697 1.433 . S
C1699 N1702 1.384 . S
C1700 H1691 0.929 . S
C1700 C1692 1.378 . S
C1700 C1695 1.350 . S
C1701 H1688 0.929 . S
C1701 C1693 1.433 . S
C1701 N1703 1.384 . S
N1702 C1698 1.427 . S
N1702 C1699 1.384 . S
N1703 C1695 1.427 . S
N1703 C1701 1.384 . S
H1704 C1710 0.930 . S
H1705 C1714 0.930 . S
H1706 C1719 0.929 . S
H1707 C1717 0.929 . S
H1708 C1712 0.929 . S
H1709 C1718 0.929 . S
C1710 H1704 0.930 . S
C1710 C1711 1.367 . S
C1710 C1718 1.378 . S
C1711 C1710 1.367 . S
C1711 C1719 1.433 . S
C1712 H1708 0.929 . S
C1712 C1714 1.378 . S
C1712 C1716 1.350 . S
C1713 C1716 1.463 . S
C1713 C1718 1.350 . S
C1713 N1721 1.427 . S
C1714 H1705 0.930 . S
C1714 C1712 1.378 . S
C1714 C1715 1.367 . S
C1715 C1714 1.367 . S
C1715 C1717 1.433 . S
C1716 C1712 1.350 . S
C1716 C1713 1.463 . S
C1716 N1720 1.427 . S
C1717 H1707 0.929 . S
C1717 C1715 1.433 . S
C1717 N1720 1.384 . S
C1718 H1709 0.929 . S
C1718 C1710 1.378 . S
C1718 C1713 1.350 . S
C1719 H1706 0.929 . S
C1719 C1711 1.433 . S
C1719 N1721 1.384 . S
N1720 C1716 1.427 . S
N1720 C1717 1.384 . S
N1721 C1713 1.427 . S
N1721 C1719 1.384 . S
H1722 C1728 0.930 . S
H1723 C1732 0.930 . S
H1724 C1737 0.929 . S
H1725 C1735 0.929 . S
H1726 C1730 0.929 . S
H1727 C1736 0.929 . S
C1728 H1722 0.930 . S
C1728 C1729 1.367 . S
C1728 C1736 1.378 . S
C1729 C1728 1.367 . S
C1729 C1737 1.433 . S
C1730 H1726 0.929 . S
C1730 C1732 1.378 . S
C1730 C1734 1.350 . S
C1731 C1734 1.463 . S
C1731 C1736 1.350 . S
C1731 N1739 1.427 . S
C1732 H1723 0.930 . S
C1732 C1730 1.378 . S
C1732 C1733 1.367 . S
C1733 C1732 1.367 . S
C1733 C1735 1.433 . S
C1734 C1730 1.350 . S
C1734 C1731 1.463 . S
C1734 N1738 1.427 . S
C1735 H1725 0.929 . S
C1735 C1733 1.433 . S
C1735 N1738 1.384 . S
C1736 H1727 0.929 . S
C1736 C1728 1.378 . S
C1736 C1731 1.350 . S
C1737 H1724 0.929 . S
C1737 C1729 1.433 . S
C1737 N1739 1.384 . S
N1738 C1734 1.427 . S
N1738 C1735 1.384 . S
N1739 C1731 1.427 . S
N1739 C1737 1.384 . S
H1740 C1746 0.930 . S
H1741 C1750 0.930 . S
H1742 C1755 0.929 . S
H1743 C1753 0.929 . S
H1744 C1748 0.929 . S
H1745 C1754 0.929 . S
C1746 H1740 0.930 . S
C1746 C1747 1.367 . S
C1746 C1754 1.378 . S
C1747 C1746 1.367 . S
C1747 C1755 1.433 . S
C1748 H1744 0.929 . S
C1748 C1750 1.378 . S
C1748 C1752 1.350 . S
C1749 C1752 1.463 . S
C1749 C1754 1.350 . S
C1749 N1757 1.427 . S
C1750 H1741 0.930 . S
C1750 C1748 1.378 . S
C1750 C1751 1.367 . S
C1751 C1750 1.367 . S
C1751 C1753 1.433 . S
C1752 C1748 1.350 . S
C1752 C1749 1.463 . S
C1752 N1756 1.427 . S
C1753 H1743 0.929 . S
C1753 C1751 1.433 . S
C1753 N1756 1.384 . S
C1754 H1745 0.929 . S
C1754 C1746 1.378 . S
C1754 C1749 1.350 . S
C1755 H1742 0.929 . S
C1755 C1747 1.433 . S
C1755 N1757 1.384 . S
N1756 C1752 1.427 . S
N1756 C1753 1.384 . S
N1757 C1749 1.427 . S
N1757 C1755 1.384 . S
H1758 C1764 0.930 . S
H1759 C1768 0.930 . S
H1760 C1773 0.929 . S
H1761 C1771 0.929 . S
H1762 C1766 0.929 . S
H1763 C1772 0.929 . S
C1764 H1758 0.930 . S
C1764 C1765 1.367 . S
C1764 C1772 1.378 . S
C1765 C1764 1.367 . S
C1765 C1773 1.433 . S
C1766 H1762 0.929 . S
C1766 C1768 1.378 . S
C1766 C1770 1.350 . S
C1767 C1770 1.463 . S
C1767 C1772 1.350 . S
C1767 N1775 1.427 . S
C1768 H1759 0.930 . S
C1768 C1766 1.378 . S
C1768 C1769 1.367 . S
C1769 C1768 1.367 . S
C1769 C1771 1.433 . S
C1770 C1766 1.350 . S
C1770 C1767 1.463 . S
C1770 N1774 1.427 . S
C1771 H1761 0.929 . S
C1771 C1769 1.433 . S
C1771 N1774 1.384 . S
C1772 H1763 0.929 . S
C1772 C1764 1.378 . S
C1772 C1767 1.350 . S
C1773 H1760 0.929 . S
C1773 C1765 1.433 . S
C1773 N1775 1.384 . S
N1774 C1770 1.427 . S
N1774 C1771 1.384 . S
N1775 C1767 1.427 . S
N1775 C1773 1.384 . S
H1776 C1782 0.930 . S
H1777 C1786 0.930 . S
H1778 C1791 0.929 . S
H1779 C1789 0.929 . S
H1780 C1784 0.929 . S
H1781 C1790 0.929 . S
C1782 H1776 0.930 . S
C1782 C1783 1.367 . S
C1782 C1790 1.378 . S
C1783 C1782 1.367 . S
C1783 C1791 1.433 . S
C1784 H1780 0.929 . S
C1784 C1786 1.378 . S
C1784 C1788 1.350 . S
C1785 C1788 1.463 . S
C1785 C1790 1.350 . S
C1785 N1793 1.427 . S
C1786 H1777 0.930 . S
C1786 C1784 1.378 . S
C1786 C1787 1.367 . S
C1787 C1786 1.367 . S
C1787 C1789 1.433 . S
C1788 C1784 1.350 . S
C1788 C1785 1.463 . S
C1788 N1792 1.427 . S
C1789 H1779 0.929 . S
C1789 C1787 1.433 . S
C1789 N1792 1.384 . S
C1790 H1781 0.929 . S
C1790 C1782 1.378 . S
C1790 C1785 1.350 . S
C1791 H1778 0.929 . S
C1791 C1783 1.433 . S
C1791 N1793 1.384 . S
N1792 C1788 1.427 . S
N1792 C1789 1.384 . S
N1793 C1785 1.427 . S
N1793 C1791 1.384 . S
H1794 C1800 0.930 . S
H1795 C1804 0.930 . S
H1796 C1809 0.929 . S
H1797 C1807 0.929 . S
H1798 C1802 0.929 . S
H1799 C1808 0.929 . S
C1800 H1794 0.930 . S
C1800 C1801 1.367 . S
C1800 C1808 1.378 . S
C1801 C1800 1.367 . S
C1801 C1809 1.433 . S
C1802 H1798 0.929 . S
C1802 C1804 1.378 . S
C1802 C1806 1.350 . S
C1803 C1806 1.463 . S
C1803 C1808 1.350 . S
C1803 N1811 1.427 . S
C1804 H1795 0.930 . S
C1804 C1802 1.378 . S
C1804 C1805 1.367 . S
C1805 C1804 1.367 . S
C1805 C1807 1.433 . S
C1806 C1802 1.350 . S
C1806 C1803 1.463 . S
C1806 N1810 1.427 . S
C1807 H1797 0.929 . S
C1807 C1805 1.433 . S
C1807 N1810 1.384 . S
C1808 H1799 0.929 . S
C1808 C1800 1.378 . S
C1808 C1803 1.350 . S
C1809 H1796 0.929 . S
C1809 C1801 1.433 . S
C1809 N1811 1.384 . S
N1810 C1806 1.427 . S
N1810 C1807 1.384 . S
N1811 C1803 1.427 . S
N1811 C1809 1.384 . S
H1812 C1818 0.930 . S
H1813 C1822 0.930 . S
H1814 C1827 0.929 . S
H1815 C1825 0.929 . S
H1816 C1820 0.929 . S
H1817 C1826 0.929 . S
C1818 H1812 0.930 . S
C1818 C1819 1.367 . S
C1818 C1826 1.378 . S
C1819 C1818 1.367 . S
C1819 C1827 1.433 . S
C1820 H1816 0.929 . S
C1820 C1822 1.378 . S
C1820 C1824 1.350 . S
C1821 C1824 1.463 . S
C1821 C1826 1.350 . S
C1821 N1829 1.427 . S
C1822 H1813 0.930 . S
C1822 C1820 1.378 . S
C1822 C1823 1.367 . S
C1823 C1822 1.367 . S
C1823 C1825 1.433 . S
C1824 C1820 1.350 . S
C1824 C1821 1.463 . S
C1824 N1828 1.427 . S
C1825 H1815 0.929 . S
C1825 C1823 1.433 . S
C1825 N1828 1.384 . S
C1826 H1817 0.929 . S
C1826 C1818 1.378 . S
C1826 C1821 1.350 . S
C1827 H1814 0.929 . S
C1827 C1819 1.433 . S
C1827 N1829 1.384 . S
N1828 C1824 1.427 . S
N1828 C1825 1.384 . S
N1829 C1821 1.427 . S
N1829 C1827 1.384 . S
H1830 C1836 0.930 . S
H1831 C1840 0.930 . S
H1832 C1845 0.929 . S
H1833 C1843 0.929 . S
H1834 C1838 0.929 . S
H1835 C1844 0.929 . S
C1836 H1830 0.930 . S
C1836 C1837 1.367 . S
C1836 C1844 1.378 . S
C1837 C1836 1.367 . S
C1837 C1845 1.433 . S
C1838 H1834 0.929 . S
C1838 C1840 1.378 . S
C1838 C1842 1.350 . S
C1839 C1842 1.463 . S
C1839 C1844 1.350 . S
C1839 N1847 1.427 . S
C1840 H1831 0.930 . S
C1840 C1838 1.378 . S
C1840 C1841 1.367 . S
C1841 C1840 1.367 . S
C1841 C1843 1.433 . S
C1842 C1838 1.350 . S
C1842 C1839 1.463 . S
C1842 N1846 1.427 . S
C1843 H1833 0.929 . S
C1843 C1841 1.433 . S
C1843 N1846 1.384 . S
C1844 H1835 0.929 . S
C1844 C1836 1.378 . S
C1844 C1839 1.350 . S
C1845 H1832 0.929 . S
C1845 C1837 1.433 . S
C1845 N1847 1.384 . S
N1846 C1842 1.427 . S
N1846 C1843 1.384 . S
N1847 C1839 1.427 . S
N1847 C1845 1.384 . S
H1848 C1854 0.930 . S
H1849 C1858 0.930 . S
H1850 C1863 0.929 . S
H1851 C1861 0.929 . S
H1852 C1856 0.929 . S
H1853 C1862 0.929 . S
C1854 H1848 0.930 . S
C1854 C1855 1.367 . S
C1854 C1862 1.378 . S
C1855 C1854 1.367 . S
C1855 C1863 1.433 . S
C1856 H1852 0.929 . S
C1856 C1858 1.378 . S
C1856 C1860 1.350 . S
C1857 C1860 1.463 . S
C1857 C1862 1.350 . S
C1857 N1865 1.427 . S
C1858 H1849 0.930 . S
C1858 C1856 1.378 . S
C1858 C1859 1.367 . S
C1859 C1858 1.367 . S
C1859 C1861 1.433 . S
C1860 C1856 1.350 . S
C1860 C1857 1.463 . S
C1860 N1864 1.427 . S
C1861 H1851 0.929 . S
C1861 C1859 1.433 . S
C1861 N1864 1.384 . S
C1862 H1853 0.929 . S
C1862 C1854 1.378 . S
C1862 C1857 1.350 . S
C1863 H1850 0.929 . S
C1863 C1855 1.433 . S
C1863 N1865 1.384 . S
N1864 C1860 1.427 . S
N1864 C1861 1.384 . S
N1865 C1857 1.427 . S
N1865 C1863 1.384 . S
H1866 C1872 0.930 . S
H1867 C1876 0.930 . S
H1868 C1881 0.929 . S
H1869 C1879 0.929 . S
H1870 C1874 0.929 . S
H1871 C1880 0.929 . S
C1872 H1866 0.930 . S
C1872 C1873 1.367 . S
C1872 C1880 1.378 . S
C1873 C1872 1.367 . S
C1873 C1881 1.433 . S
C1874 H1870 0.929 . S
C1874 C1876 1.378 . S
C1874 C1878 1.350 . S
C1875 C1878 1.463 . S
C1875 C1880 1.350 . S
C1875 N1883 1.427 . S
C1876 H1867 0.930 . S
C1876 C1874 1.378 . S
C1876 C1877 1.367 . S
C1877 C1876 1.367 . S
C1877 C1879 1.433 . S
C1878 C1874 1.350 . S
C1878 C1875 1.463 . S
C1878 N1882 1.427 . S
C1879 H1869 0.929 . S
C1879 C1877 1.433 . S
C1879 N1882 1.384 . S
C1880 H1871 0.929 . S
C1880 C1872 1.378 . S
C1880 C1875 1.350 . S
C1881 H1868 0.929 . S
C1881 C1873 1.433 . S
C1881 N1883 1.384 . S
N1882 C1878 1.427 . S
N1882 C1879 1.384 . S
N1883 C1875 1.427 . S
N1883 C1881 1.384 . S
H1884 C1890 0.930 . S
H1885 C1894 0.930 . S
H1886 C1899 0.929 . S
H1887 C1897 0.929 . S
H1888 C1892 0.929 . S
H1889 C1898 0.929 . S
C1890 H1884 0.930 . S
C1890 C1891 1.367 . S
C1890 C1898 1.378 . S
C1891 C1890 1.367 . S
C1891 C1899 1.433 . S
C1892 H1888 0.929 . S
C1892 C1894 1.378 . S
C1892 C1896 1.350 . S
C1893 C1896 1.463 . S
C1893 C1898 1.350 . S
C1893 N1901 1.427 . S
C1894 H1885 0.930 . S
C1894 C1892 1.378 . S
C1894 C1895 1.367 . S
C1895 C1894 1.367 . S
C1895 C1897 1.433 . S
C1896 C1892 1.350 . S
C1896 C1893 1.463 . S
C1896 N1900 1.427 . S
C1897 H1887 0.929 . S
C1897 C1895 1.433 . S
C1897 N1900 1.384 . S
C1898 H1889 0.929 . S
C1898 C1890 1.378 . S
C1898 C1893 1.350 . S
C1899 H1886 0.929 . S
C1899 C1891 1.433 . S
C1899 N1901 1.384 . S
N1900 C1896 1.427 . S
N1900 C1897 1.384 . S
N1901 C1893 1.427 . S
N1901 C1899 1.384 . S
H1902 C1908 0.930 . S
H1903 C1912 0.930 . S
H1904 C1917 0.929 . S
H1905 C1915 0.929 . S
H1906 C1910 0.929 . S
H1907 C1916 0.929 . S
C1908 H1902 0.930 . S
C1908 C1909 1.367 . S
C1908 C1916 1.378 . S
C1909 C1908 1.367 . S
C1909 C1917 1.433 . S
C1910 H1906 0.929 . S
C1910 C1912 1.378 . S
C1910 C1914 1.350 . S
C1911 C1914 1.463 . S
C1911 C1916 1.350 . S
C1911 N1919 1.427 . S
C1912 H1903 0.930 . S
C1912 C1910 1.378 . S
C1912 C1913 1.367 . S
C1913 C1912 1.367 . S
C1913 C1915 1.433 . S
C1914 C1910 1.350 . S
C1914 C1911 1.463 . S
C1914 N1918 1.427 . S
C1915 H1905 0.929 . S
C1915 C1913 1.433 . S
C1915 N1918 1.384 . S
C1916 H1907 0.929 . S
C1916 C1908 1.378 . S
C1916 C1911 1.350 . S
C1917 H1904 0.929 . S
C1917 C1909 1.433 . S
C1917 N1919 1.384 . S
N1918 C1914 1.427 . S
N1918 C1915 1.384 . S
N1919 C1911 1.427 . S
N1919 C1917 1.384 . S
H1920 C1926 0.930 . S
H1921 C1930 0.930 . S
H1922 C1935 0.929 . S
H1923 C1933 0.929 . S
H1924 C1928 0.929 . S
H1925 C1934 0.929 . S
C1926 H1920 0.930 . S
C1926 C1927 1.367 . S
C1926 C1934 1.378 . S
C1927 C1926 1.367 . S
C1927 C1935 1.433 . S
C1928 H1924 0.929 . S
C1928 C1930 1.378 . S
C1928 C1932 1.350 . S
C1929 C1932 1.463 . S
C1929 C1934 1.350 . S
C1929 N1937 1.427 . S
C1930 H1921 0.930 . S
C1930 C1928 1.378 . S
C1930 C1931 1.367 . S
C1931 C1930 1.367 . S
C1931 C1933 1.433 . S
C1932 C1928 1.350 . S
C1932 C1929 1.463 . S
C1932 N1936 1.427 . S
C1933 H1923 0.929 . S
C1933 C1931 1.433 . S
C1933 N1936 1.384 . S
C1934 H1925 0.929 . S
C1934 C1926 1.378 . S
C1934 C1929 1.350 . S
C1935 H1922 0.929 . S
C1935 C1927 1.433 . S
C1935 N1937 1.384 . S
N1936 C1932 1.427 . S
N1936 C1933 1.384 . S
N1937 C1929 1.427 . S
N1937 C1935 1.384 . S
H1938 C1944 0.930 . S
H1939 C1948 0.930 . S
H1940 C1953 0.929 . S
H1941 C1951 0.929 . S
H1942 C1946 0.929 . S
H1943 C1952 0.929 . S
C1944 H1938 0.930 . S
C1944 C1945 1.367 . S
C1944 C1952 1.378 . S
C1945 C1944 1.367 . S
C1945 C1953 1.433 . S
C1946 H1942 0.929 . S
C1946 C1948 1.378 . S
C1946 C1950 1.350 . S
C1947 C1950 1.463 . S
C1947 C1952 1.350 . S
C1947 N1955 1.427 . S
C1948 H1939 0.930 . S
C1948 C1946 1.378 . S
C1948 C1949 1.367 . S
C1949 C1948 1.367 . S
C1949 C1951 1.433 . S
C1950 C1946 1.350 . S
C1950 C1947 1.463 . S
C1950 N1954 1.427 . S
C1951 H1941 0.929 . S
C1951 C1949 1.433 . S
C1951 N1954 1.384 . S
C1952 H1943 0.929 . S
C1952 C1944 1.378 . S
C1952 C1947 1.350 . S
C1953 H1940 0.929 . S
C1953 C1945 1.433 . S
C1953 N1955 1.384 . S
N1954 C1950 1.427 . S
N1954 C1951 1.384 . S
N1955 C1947 1.427 . S
N1955 C1953 1.384 . S
H1956 C1962 0.930 . S
H1957 C1966 0.930 . S
H1958 C1971 0.929 . S
H1959 C1969 0.929 . S
H1960 C1964 0.929 . S
H1961 C1970 0.929 . S
C1962 H1956 0.930 . S
C1962 C1963 1.367 . S
C1962 C1970 1.378 . S
C1963 C1962 1.367 . S
C1963 C1971 1.433 . S
C1964 H1960 0.929 . S
C1964 C1966 1.378 . S
C1964 C1968 1.350 . S
C1965 C1968 1.463 . S
C1965 C1970 1.350 . S
C1965 N1973 1.427 . S
C1966 H1957 0.930 . S
C1966 C1964 1.378 . S
C1966 C1967 1.367 . S
C1967 C1966 1.367 . S
C1967 C1969 1.433 . S
C1968 C1964 1.350 . S
C1968 C1965 1.463 . S
C1968 N1972 1.427 . S
C1969 H1959 0.929 . S
C1969 C1967 1.433 . S
C1969 N1972 1.384 . S
C1970 H1961 0.929 . S
C1970 C1962 1.378 . S
C1970 C1965 1.350 . S
C1971 H1958 0.929 . S
C1971 C1963 1.433 . S
C1971 N1973 1.384 . S
N1972 C1968 1.427 . S
N1972 C1969 1.384 . S
N1973 C1965 1.427 . S
N1973 C1971 1.384 . S
H1974 C1980 0.930 . S
H1975 C1984 0.930 . S
H1976 C1989 0.929 . S
H1977 C1987 0.929 . S
H1978 C1982 0.929 . S
H1979 C1988 0.929 . S
C1980 H1974 0.930 . S
C1980 C1981 1.367 . S
C1980 C1988 1.378 . S
C1981 C1980 1.367 . S
C1981 C1989 1.433 . S
C1982 H1978 0.929 . S
C1982 C1984 1.378 . S
C1982 C1986 1.350 . S
C1983 C1986 1.463 . S
C1983 C1988 1.350 . S
C1983 N1991 1.427 . S
C1984 H1975 0.930 . S
C1984 C1982 1.378 . S
C1984 C1985 1.367 . S
C1985 C1984 1.367 . S
C1985 C1987 1.433 . S
C1986 C1982 1.350 . S
C1986 C1983 1.463 . S
C1986 N1990 1.427 . S
C1987 H1977 0.929 . S
C1987 C1985 1.433 . S
C1987 N1990 1.384 . S
C1988 H1979 0.929 . S
C1988 C1980 1.378 . S
C1988 C1983 1.350 . S
C1989 H1976 0.929 . S
C1989 C1981 1.433 . S
C1989 N1991 1.384 . S
N1990 C1986 1.427 . S
N1990 C1987 1.384 . S
N1991 C1983 1.427 . S
N1991 C1989 1.384 . S
H1992 C1998 0.930 . S
H1993 C2002 0.930 . S
H1994 C2007 0.929 . S
H1995 C2005 0.929 . S
H1996 C2000 0.929 . S
H1997 C2006 0.929 . S
C1998 H1992 0.930 . S
C1998 C1999 1.367 . S
C1998 C2006 1.378 . S
C1999 C1998 1.367 . S
C1999 C2007 1.433 . S
C2000 H1996 0.929 . S
C2000 C2002 1.378 . S
C2000 C2004 1.350 . S
C2001 C2004 1.463 . S
C2001 C2006 1.350 . S
C2001 N2009 1.427 . S
C2002 H1993 0.930 . S
C2002 C2000 1.378 . S
C2002 C2003 1.367 . S
C2003 C2002 1.367 . S
C2003 C2005 1.433 . S
C2004 C2000 1.350 . S
C2004 C2001 1.463 . S
C2004 N2008 1.427 . S
C2005 H1995 0.929 . S
C2005 C2003 1.433 . S
C2005 N2008 1.384 . S
C2006 H1997 0.929 . S
C2006 C1998 1.378 . S
C2006 C2001 1.350 . S
C2007 H1994 0.929 . S
C2007 C1999 1.433 . S
C2007 N2009 1.384 . S
N2008 C2004 1.427 . S
N2008 C2005 1.384 . S
N2009 C2001 1.427 . S
N2009 C2007 1.384 . S
H2010 C2016 0.930 . S
H2011 C2020 0.930 . S
H2012 C2025 0.929 . S
H2013 C2023 0.929 . S
H2014 C2018 0.929 . S
H2015 C2024 0.929 . S
C2016 H2010 0.930 . S
C2016 C2017 1.367 . S
C2016 C2024 1.378 . S
C2017 C2016 1.367 . S
C2017 C2025 1.433 . S
C2018 H2014 0.929 . S
C2018 C2020 1.378 . S
C2018 C2022 1.350 . S
C2019 C2022 1.463 . S
C2019 C2024 1.350 . S
C2019 N2027 1.427 . S
C2020 H2011 0.930 . S
C2020 C2018 1.378 . S
C2020 C2021 1.367 . S
C2021 C2020 1.367 . S
C2021 C2023 1.433 . S
C2022 C2018 1.350 . S
C2022 C2019 1.463 . S
C2022 N2026 1.427 . S
C2023 H2013 0.929 . S
C2023 C2021 1.433 . S
C2023 N2026 1.384 . S
C2024 H2015 0.929 . S
C2024 C2016 1.378 . S
C2024 C2019 1.350 . S
C2025 H2012 0.929 . S
C2025 C2017 1.433 . S
C2025 N2027 1.384 . S
N2026 C2022 1.427 . S
N2026 C2023 1.384 . S
N2027 C2019 1.427 . S
N2027 C2025 1.384 . S
H2028 C2034 0.930 . S
H2029 C2038 0.930 . S
H2030 C2043 0.929 . S
H2031 C2041 0.929 . S
H2032 C2036 0.929 . S
H2033 C2042 0.929 . S
C2034 H2028 0.930 . S
C2034 C2035 1.367 . S
C2034 C2042 1.378 . S
C2035 C2034 1.367 . S
C2035 C2043 1.433 . S
C2036 H2032 0.929 . S
C2036 C2038 1.378 . S
C2036 C2040 1.350 . S
C2037 C2040 1.463 . S
C2037 C2042 1.350 . S
C2037 N2045 1.427 . S
C2038 H2029 0.930 . S
C2038 C2036 1.378 . S
C2038 C2039 1.367 . S
C2039 C2038 1.367 . S
C2039 C2041 1.433 . S
C2040 C2036 1.350 . S
C2040 C2037 1.463 . S
C2040 N2044 1.427 . S
C2041 H2031 0.929 . S
C2041 C2039 1.433 . S
C2041 N2044 1.384 . S
C2042 H2033 0.929 . S
C2042 C2034 1.378 . S
C2042 C2037 1.350 . S
C2043 H2030 0.929 . S
C2043 C2035 1.433 . S
C2043 N2045 1.384 . S
N2044 C2040 1.427 . S
N2044 C2041 1.384 . S
N2045 C2037 1.427 . S
N2045 C2043 1.384 . S
H2046 C2052 0.930 . S
H2047 C2056 0.930 . S
H2048 C2061 0.929 . S
H2049 C2059 0.929 . S
H2050 C2054 0.929 . S
H2051 C2060 0.929 . S
C2052 H2046 0.930 . S
C2052 C2053 1.367 . S
C2052 C2060 1.378 . S
C2053 C2052 1.367 . S
C2053 C2061 1.433 . S
C2054 H2050 0.929 . S
C2054 C2056 1.378 . S
C2054 C2058 1.350 . S
C2055 C2058 1.463 . S
C2055 C2060 1.350 . S
C2055 N2063 1.427 . S
C2056 H2047 0.930 . S
C2056 C2054 1.378 . S
C2056 C2057 1.367 . S
C2057 C2056 1.367 . S
C2057 C2059 1.433 . S
C2058 C2054 1.350 . S
C2058 C2055 1.463 . S
C2058 N2062 1.427 . S
C2059 H2049 0.929 . S
C2059 C2057 1.433 . S
C2059 N2062 1.384 . S
C2060 H2051 0.929 . S
C2060 C2052 1.378 . S
C2060 C2055 1.350 . S
C2061 H2048 0.929 . S
C2061 C2053 1.433 . S
C2061 N2063 1.384 . S
N2062 C2058 1.427 . S
N2062 C2059 1.384 . S
N2063 C2055 1.427 . S
N2063 C2061 1.384 . S
H2064 C2070 0.930 . S
H2065 C2074 0.930 . S
H2066 C2079 0.929 . S
H2067 C2077 0.929 . S
H2068 C2072 0.929 . S
H2069 C2078 0.929 . S
C2070 H2064 0.930 . S
C2070 C2071 1.367 . S
C2070 C2078 1.378 . S
C2071 C2070 1.367 . S
C2071 C2079 1.433 . S
C2072 H2068 0.929 . S
C2072 C2074 1.378 . S
C2072 C2076 1.350 . S
C2073 C2076 1.463 . S
C2073 C2078 1.350 . S
C2073 N2081 1.427 . S
C2074 H2065 0.930 . S
C2074 C2072 1.378 . S
C2074 C2075 1.367 . S
C2075 C2074 1.367 . S
C2075 C2077 1.433 . S
C2076 C2072 1.350 . S
C2076 C2073 1.463 . S
C2076 N2080 1.427 . S
C2077 H2067 0.929 . S
C2077 C2075 1.433 . S
C2077 N2080 1.384 . S
C2078 H2069 0.929 . S
C2078 C2070 1.378 . S
C2078 C2073 1.350 . S
C2079 H2066 0.929 . S
C2079 C2071 1.433 . S
C2079 N2081 1.384 . S
N2080 C2076 1.427 . S
N2080 C2077 1.384 . S
N2081 C2073 1.427 . S
N2081 C2079 1.384 . S
H2082 C2088 0.930 . S
H2083 C2092 0.930 . S
H2084 C2097 0.929 . S
H2085 C2095 0.929 . S
H2086 C2090 0.929 . S
H2087 C2096 0.929 . S
C2088 H2082 0.930 . S
C2088 C2089 1.367 . S
C2088 C2096 1.378 . S
C2089 C2088 1.367 . S
C2089 C2097 1.433 . S
C2090 H2086 0.929 . S
C2090 C2092 1.378 . S
C2090 C2094 1.350 . S
C2091 C2094 1.463 . S
C2091 C2096 1.350 . S
C2091 N2099 1.427 . S
C2092 H2083 0.930 . S
C2092 C2090 1.378 . S
C2092 C2093 1.367 . S
C2093 C2092 1.367 . S
C2093 C2095 1.433 . S
C2094 C2090 1.350 . S
C2094 C2091 1.463 . S
C2094 N2098 1.427 . S
C2095 H2085 0.929 . S
C2095 C2093 1.433 . S
C2095 N2098 1.384 . S
C2096 H2087 0.929 . S
C2096 C2088 1.378 . S
C2096 C2091 1.350 . S
C2097 H2084 0.929 . S
C2097 C2089 1.433 . S
C2097 N2099 1.384 . S
N2098 C2094 1.427 . S
N2098 C2095 1.384 . S
N2099 C2091 1.427 . S
N2099 C2097 1.384 . S
H2100 C2106 0.930 . S
H2101 C2110 0.930 . S
H2102 C2115 0.929 . S
H2103 C2113 0.929 . S
H2104 C2108 0.929 . S
H2105 C2114 0.929 . S
C2106 H2100 0.930 . S
C2106 C2107 1.367 . S
C2106 C2114 1.378 . S
C2107 C2106 1.367 . S
C2107 C2115 1.433 . S
C2108 H2104 0.929 . S
C2108 C2110 1.378 . S
C2108 C2112 1.350 . S
C2109 C2112 1.463 . S
C2109 C2114 1.350 . S
C2109 N2117 1.427 . S
C2110 H2101 0.930 . S
C2110 C2108 1.378 . S
C2110 C2111 1.367 . S
C2111 C2110 1.367 . S
C2111 C2113 1.433 . S
C2112 C2108 1.350 . S
C2112 C2109 1.463 . S
C2112 N2116 1.427 . S
C2113 H2103 0.929 . S
C2113 C2111 1.433 . S
C2113 N2116 1.384 . S
C2114 H2105 0.929 . S
C2114 C2106 1.378 . S
C2114 C2109 1.350 . S
C2115 H2102 0.929 . S
C2115 C2107 1.433 . S
C2115 N2117 1.384 . S
N2116 C2112 1.427 . S
N2116 C2113 1.384 . S
N2117 C2109 1.427 . S
N2117 C2115 1.384 . S
H2118 C2124 0.930 . S
H2119 C2128 0.930 . S
H2120 C2133 0.929 . S
H2121 C2131 0.929 . S
H2122 C2126 0.929 . S
H2123 C2132 0.929 . S
C2124 H2118 0.930 . S
C2124 C2125 1.367 . S
C2124 C2132 1.378 . S
C2125 C2124 1.367 . S
C2125 C2133 1.433 . S
C2126 H2122 0.929 . S
C2126 C2128 1.378 . S
C2126 C2130 1.350 . S
C2127 C2130 1.463 . S
C2127 C2132 1.350 . S
C2127 N2135 1.427 . S
C2128 H2119 0.930 . S
C2128 C2126 1.378 . S
C2128 C2129 1.367 . S
C2129 C2128 1.367 . S
C2129 C2131 1.433 . S
C2130 C2126 1.350 . S
C2130 C2127 1.463 . S
C2130 N2134 1.427 . S
C2131 H2121 0.929 . S
C2131 C2129 1.433 . S
C2131 N2134 1.384 . S
C2132 H2123 0.929 . S
C2132 C2124 1.378 . S
C2132 C2127 1.350 . S
C2133 H2120 0.929 . S
C2133 C2125 1.433 . S
C2133 N2135 1.384 . S
N2134 C2130 1.427 . S
N2134 C2131 1.384 . S
N2135 C2127 1.427 . S
N2135 C2133 1.384 . S
H2136 C2142 0.930 . S
H2137 C2146 0.930 . S
H2138 C2151 0.929 . S
H2139 C2149 0.929 . S
H2140 C2144 0.929 . S
H2141 C2150 0.929 . S
C2142 H2136 0.930 . S
C2142 C2143 1.367 . S
C2142 C2150 1.378 . S
C2143 C2142 1.367 . S
C2143 C2151 1.433 . S
C2144 H2140 0.929 . S
C2144 C2146 1.378 . S
C2144 C2148 1.350 . S
C2145 C2148 1.463 . S
C2145 C2150 1.350 . S
C2145 N2153 1.427 . S
C2146 H2137 0.930 . S
C2146 C2144 1.378 . S
C2146 C2147 1.367 . S
C2147 C2146 1.367 . S
C2147 C2149 1.433 . S
C2148 C2144 1.350 . S
C2148 C2145 1.463 . S
C2148 N2152 1.427 . S
C2149 H2139 0.929 . S
C2149 C2147 1.433 . S
C2149 N2152 1.384 . S
C2150 H2141 0.929 . S
C2150 C2142 1.378 . S
C2150 C2145 1.350 . S
C2151 H2138 0.929 . S
C2151 C2143 1.433 . S
C2151 N2153 1.384 . S
N2152 C2148 1.427 . S
N2152 C2149 1.384 . S
N2153 C2145 1.427 . S
N2153 C2151 1.384 . S
H2154 C2160 0.930 . S
H2155 C2164 0.930 . S
H2156 C2169 0.929 . S
H2157 C2167 0.929 . S
H2158 C2162 0.929 . S
H2159 C2168 0.929 . S
C2160 H2154 0.930 . S
C2160 C2161 1.367 . S
C2160 C2168 1.378 . S
C2161 C2160 1.367 . S
C2161 C2169 1.433 . S
C2162 H2158 0.929 . S
C2162 C2164 1.378 . S
C2162 C2166 1.350 . S
C2163 C2166 1.463 . S
C2163 C2168 1.350 . S
C2163 N2171 1.427 . S
C2164 H2155 0.930 . S
C2164 C2162 1.378 . S
C2164 C2165 1.367 . S
C2165 C2164 1.367 . S
C2165 C2167 1.433 . S
C2166 C2162 1.350 . S
C2166 C2163 1.463 . S
C2166 N2170 1.427 . S
C2167 H2157 0.929 . S
C2167 C2165 1.433 . S
C2167 N2170 1.384 . S
C2168 H2159 0.929 . S
C2168 C2160 1.378 . S
C2168 C2163 1.350 . S
C2169 H2156 0.929 . S
C2169 C2161 1.433 . S
C2169 N2171 1.384 . S
N2170 C2166 1.427 . S
N2170 C2167 1.384 . S
N2171 C2163 1.427 . S
N2171 C2169 1.384 . S
H2172 C2178 0.930 . S
H2173 C2182 0.930 . S
H2174 C2187 0.929 . S
H2175 C2185 0.929 . S
H2176 C2180 0.929 . S
H2177 C2186 0.929 . S
C2178 H2172 0.930 . S
C2178 C2179 1.367 . S
C2178 C2186 1.378 . S
C2179 C2178 1.367 . S
C2179 C2187 1.433 . S
C2180 H2176 0.929 . S
C2180 C2182 1.378 . S
C2180 C2184 1.350 . S
C2181 C2184 1.463 . S
C2181 C2186 1.350 . S
C2181 N2189 1.427 . S
C2182 H2173 0.930 . S
C2182 C2180 1.378 . S
C2182 C2183 1.367 . S
C2183 C2182 1.367 . S
C2183 C2185 1.433 . S
C2184 C2180 1.350 . S
C2184 C2181 1.463 . S
C2184 N2188 1.427 . S
C2185 H2175 0.929 . S
C2185 C2183 1.433 . S
C2185 N2188 1.384 . S
C2186 H2177 0.929 . S
C2186 C2178 1.378 . S
C2186 C2181 1.350 . S
C2187 H2174 0.929 . S
C2187 C2179 1.433 . S
C2187 N2189 1.384 . S
N2188 C2184 1.427 . S
N2188 C2185 1.384 . S
N2189 C2181 1.427 . S
N2189 C2187 1.384 . S
H2190 C2196 0.930 . S
H2191 C2200 0.930 . S
H2192 C2205 0.929 . S
H2193 C2203 0.929 . S
H2194 C2198 0.929 . S
H2195 C2204 0.929 . S
C2196 H2190 0.930 . S
C2196 C2197 1.367 . S
C2196 C2204 1.378 . S
C2197 C2196 1.367 . S
C2197 C2205 1.433 . S
C2198 H2194 0.929 . S
C2198 C2200 1.378 . S
C2198 C2202 1.350 . S
C2199 C2202 1.463 . S
C2199 C2204 1.350 . S
C2199 N2207 1.427 . S
C2200 H2191 0.930 . S
C2200 C2198 1.378 . S
C2200 C2201 1.367 . S
C2201 C2200 1.367 . S
C2201 C2203 1.433 . S
C2202 C2198 1.350 . S
C2202 C2199 1.463 . S
C2202 N2206 1.427 . S
C2203 H2193 0.929 . S
C2203 C2201 1.433 . S
C2203 N2206 1.384 . S
C2204 H2195 0.929 . S
C2204 C2196 1.378 . S
C2204 C2199 1.350 . S
C2205 H2192 0.929 . S
C2205 C2197 1.433 . S
C2205 N2207 1.384 . S
N2206 C2202 1.427 . S
N2206 C2203 1.384 . S
N2207 C2199 1.427 . S
N2207 C2205 1.384 . S
H2208 C2214 0.930 . S
H2209 C2218 0.930 . S
H2210 C2223 0.929 . S
H2211 C2221 0.929 . S
H2212 C2216 0.929 . S
H2213 C2222 0.929 . S
C2214 H2208 0.930 . S
C2214 C2215 1.367 . S
C2214 C2222 1.378 . S
C2215 C2214 1.367 . S
C2215 C2223 1.433 . S
C2216 H2212 0.929 . S
C2216 C2218 1.378 . S
C2216 C2220 1.350 . S
C2217 C2220 1.463 . S
C2217 C2222 1.350 . S
C2217 N2225 1.427 . S
C2218 H2209 0.930 . S
C2218 C2216 1.378 . S
C2218 C2219 1.367 . S
C2219 C2218 1.367 . S
C2219 C2221 1.433 . S
C2220 C2216 1.350 . S
C2220 C2217 1.463 . S
C2220 N2224 1.427 . S
C2221 H2211 0.929 . S
C2221 C2219 1.433 . S
C2221 N2224 1.384 . S
C2222 H2213 0.929 . S
C2222 C2214 1.378 . S
C2222 C2217 1.350 . S
C2223 H2210 0.929 . S
C2223 C2215 1.433 . S
C2223 N2225 1.384 . S
N2224 C2220 1.427 . S
N2224 C2221 1.384 . S
N2225 C2217 1.427 . S
N2225 C2223 1.384 . S
H2226 C2232 0.930 . S
H2227 C2236 0.930 . S
H2228 C2241 0.929 . S
H2229 C2239 0.929 . S
H2230 C2234 0.929 . S
H2231 C2240 0.929 . S
C2232 H2226 0.930 . S
C2232 C2233 1.367 . S
C2232 C2240 1.378 . S
C2233 C2232 1.367 . S
C2233 C2241 1.433 . S
C2234 H2230 0.929 . S
C2234 C2236 1.378 . S
C2234 C2238 1.350 . S
C2235 C2238 1.463 . S
C2235 C2240 1.350 . S
C2235 N2243 1.427 . S
C2236 H2227 0.930 . S
C2236 C2234 1.378 . S
C2236 C2237 1.367 . S
C2237 C2236 1.367 . S
C2237 C2239 1.433 . S
C2238 C2234 1.350 . S
C2238 C2235 1.463 . S
C2238 N2242 1.427 . S
C2239 H2229 0.929 . S
C2239 C2237 1.433 . S
C2239 N2242 1.384 . S
C2240 H2231 0.929 . S
C2240 C2232 1.378 . S
C2240 C2235 1.350 . S
C2241 H2228 0.929 . S
C2241 C2233 1.433 . S
C2241 N2243 1.384 . S
N2242 C2238 1.427 . S
N2242 C2239 1.384 . S
N2243 C2235 1.427 . S
N2243 C2241 1.384 . S
H2244 C2250 0.930 . S
H2245 C2254 0.930 . S
H2246 C2259 0.929 . S
H2247 C2257 0.929 . S
H2248 C2252 0.929 . S
H2249 C2258 0.929 . S
C2250 H2244 0.930 . S
C2250 C2251 1.367 . S
C2250 C2258 1.378 . S
C2251 C2250 1.367 . S
C2251 C2259 1.433 . S
C2252 H2248 0.929 . S
C2252 C2254 1.378 . S
C2252 C2256 1.350 . S
C2253 C2256 1.463 . S
C2253 C2258 1.350 . S
C2253 N2261 1.427 . S
C2254 H2245 0.930 . S
C2254 C2252 1.378 . S
C2254 C2255 1.367 . S
C2255 C2254 1.367 . S
C2255 C2257 1.433 . S
C2256 C2252 1.350 . S
C2256 C2253 1.463 . S
C2256 N2260 1.427 . S
C2257 H2247 0.929 . S
C2257 C2255 1.433 . S
C2257 N2260 1.384 . S
C2258 H2249 0.929 . S
C2258 C2250 1.378 . S
C2258 C2253 1.350 . S
C2259 H2246 0.929 . S
C2259 C2251 1.433 . S
C2259 N2261 1.384 . S
N2260 C2256 1.427 . S
N2260 C2257 1.384 . S
N2261 C2253 1.427 . S
N2261 C2259 1.384 . S
H2262 C2268 0.930 . S
H2263 C2272 0.930 . S
H2264 C2277 0.929 . S
H2265 C2275 0.929 . S
H2266 C2270 0.929 . S
H2267 C2276 0.929 . S
C2268 H2262 0.930 . S
C2268 C2269 1.367 . S
C2268 C2276 1.378 . S
C2269 C2268 1.367 . S
C2269 C2277 1.433 . S
C2270 H2266 0.929 . S
C2270 C2272 1.378 . S
C2270 C2274 1.350 . S
C2271 C2274 1.463 . S
C2271 C2276 1.350 . S
C2271 N2279 1.427 . S
C2272 H2263 0.930 . S
C2272 C2270 1.378 . S
C2272 C2273 1.367 . S
C2273 C2272 1.367 . S
C2273 C2275 1.433 . S
C2274 C2270 1.350 . S
C2274 C2271 1.463 . S
C2274 N2278 1.427 . S
C2275 H2265 0.929 . S
C2275 C2273 1.433 . S
C2275 N2278 1.384 . S
C2276 H2267 0.929 . S
C2276 C2268 1.378 . S
C2276 C2271 1.350 . S
C2277 H2264 0.929 . S
C2277 C2269 1.433 . S
C2277 N2279 1.384 . S
N2278 C2274 1.427 . S
N2278 C2275 1.384 . S
N2279 C2271 1.427 . S
N2279 C2277 1.384 . S
H2280 C2286 0.930 . S
H2281 C2290 0.930 . S
H2282 C2295 0.929 . S
H2283 C2293 0.929 . S
H2284 C2288 0.929 . S
H2285 C2294 0.929 . S
C2286 H2280 0.930 . S
C2286 C2287 1.367 . S
C2286 C2294 1.378 . S
C2287 C2286 1.367 . S
C2287 C2295 1.433 . S
C2288 H2284 0.929 . S
C2288 C2290 1.378 . S
C2288 C2292 1.350 . S
C2289 C2292 1.463 . S
C2289 C2294 1.350 . S
C2289 N2297 1.427 . S
C2290 H2281 0.930 . S
C2290 C2288 1.378 . S
C2290 C2291 1.367 . S
C2291 C2290 1.367 . S
C2291 C2293 1.433 . S
C2292 C2288 1.350 . S
C2292 C2289 1.463 . S
C2292 N2296 1.427 . S
C2293 H2283 0.929 . S
C2293 C2291 1.433 . S
C2293 N2296 1.384 . S
C2294 H2285 0.929 . S
C2294 C2286 1.378 . S
C2294 C2289 1.350 . S
C2295 H2282 0.929 . S
C2295 C2287 1.433 . S
C2295 N2297 1.384 . S
N2296 C2292 1.427 . S
N2296 C2293 1.384 . S
N2297 C2289 1.427 . S
N2297 C2295 1.384 . S
H2298 C2304 0.930 . S
H2299 C2308 0.930 . S
H2300 C2313 0.929 . S
H2301 C2311 0.929 . S
H2302 C2306 0.929 . S
H2303 C2312 0.929 . S
C2304 H2298 0.930 . S
C2304 C2305 1.367 . S
C2304 C2312 1.378 . S
C2305 C2304 1.367 . S
C2305 C2313 1.433 . S
C2306 H2302 0.929 . S
C2306 C2308 1.378 . S
C2306 C2310 1.350 . S
C2307 C2310 1.463 . S
C2307 C2312 1.350 . S
C2307 N2315 1.427 . S
C2308 H2299 0.930 . S
C2308 C2306 1.378 . S
C2308 C2309 1.367 . S
C2309 C2308 1.367 . S
C2309 C2311 1.433 . S
C2310 C2306 1.350 . S
C2310 C2307 1.463 . S
C2310 N2314 1.427 . S
C2311 H2301 0.929 . S
C2311 C2309 1.433 . S
C2311 N2314 1.384 . S
C2312 H2303 0.929 . S
C2312 C2304 1.378 . S
C2312 C2307 1.350 . S
C2313 H2300 0.929 . S
C2313 C2305 1.433 . S
C2313 N2315 1.384 . S
N2314 C2310 1.427 . S
N2314 C2311 1.384 . S
N2315 C2307 1.427 . S
N2315 C2313 1.384 . S
H2316 C2322 0.930 . S
H2317 C2326 0.930 . S
H2318 C2331 0.929 . S
H2319 C2329 0.929 . S
H2320 C2324 0.929 . S
H2321 C2330 0.929 . S
C2322 H2316 0.930 . S
C2322 C2323 1.367 . S
C2322 C2330 1.378 . S
C2323 C2322 1.367 . S
C2323 C2331 1.433 . S
C2324 H2320 0.929 . S
C2324 C2326 1.378 . S
C2324 C2328 1.350 . S
C2325 C2328 1.463 . S
C2325 C2330 1.350 . S
C2325 N2333 1.427 . S
C2326 H2317 0.930 . S
C2326 C2324 1.378 . S
C2326 C2327 1.367 . S
C2327 C2326 1.367 . S
C2327 C2329 1.433 . S
C2328 C2324 1.350 . S
C2328 C2325 1.463 . S
C2328 N2332 1.427 . S
C2329 H2319 0.929 . S
C2329 C2327 1.433 . S
C2329 N2332 1.384 . S
C2330 H2321 0.929 . S
C2330 C2322 1.378 . S
C2330 C2325 1.350 . S
C2331 H2318 0.929 . S
C2331 C2323 1.433 . S
C2331 N2333 1.384 . S
N2332 C2328 1.427 . S
N2332 C2329 1.384 . S
N2333 C2325 1.427 . S
N2333 C2331 1.384 . S
H2334 C2340 0.930 . S
H2335 C2344 0.930 . S
H2336 C2349 0.929 . S
H2337 C2347 0.929 . S
H2338 C2342 0.929 . S
H2339 C2348 0.929 . S
C2340 H2334 0.930 . S
C2340 C2341 1.367 . S
C2340 C2348 1.378 . S
C2341 C2340 1.367 . S
C2341 C2349 1.433 . S
C2342 H2338 0.929 . S
C2342 C2344 1.378 . S
C2342 C2346 1.350 . S
C2343 C2346 1.463 . S
C2343 C2348 1.350 . S
C2343 N2351 1.427 . S
C2344 H2335 0.930 . S
C2344 C2342 1.378 . S
C2344 C2345 1.367 . S
C2345 C2344 1.367 . S
C2345 C2347 1.433 . S
C2346 C2342 1.350 . S
C2346 C2343 1.463 . S
C2346 N2350 1.427 . S
C2347 H2337 0.929 . S
C2347 C2345 1.433 . S
C2347 N2350 1.384 . S
C2348 H2339 0.929 . S
C2348 C2340 1.378 . S
C2348 C2343 1.350 . S
C2349 H2336 0.929 . S
C2349 C2341 1.433 . S
C2349 N2351 1.384 . S
N2350 C2346 1.427 . S
N2350 C2347 1.384 . S
N2351 C2343 1.427 . S
N2351 C2349 1.384 . S
C631 C127 1.640 . S
C635 C4 1.643 . S
C649 C134 1.647 . S
C653 C17 1.647 . S
C667 C153 1.645 . S
C671 C36 1.647 . S
C685 C49 1.646 . S
C689 C108 1.647 . S
C703 C199 1.636 . S
C707 C62 1.639 . S
C721 C69 1.632 . S
C725 C166 1.630 . S
C739 C179 1.631 . S
C743 C82 1.630 . S
C757 C192 1.645 . S
C761 C101 1.647 . S
C775 C218 1.632 . S
C779 C238 1.630 . S
C793 C231 1.639 . S
C797 C290 1.642 . S
C811 C251 1.630 . S
C815 C309 1.630 . S
C829 C264 1.644 . S
C833 C277 1.646 . S
C847 C316 1.633 . S
C851 C433 1.636 . S
C865 C446 1.643 . S
C869 C335 1.640 . S
C883 C342 1.647 . S
C887 C459 1.647 . S
C901 C361 1.640 . S
C905 C426 1.636 . S
C919 C511 1.632 . S
C923 C374 1.635 . S
C937 C478 1.631 . S
C941 C381 1.633 . S
C955 C491 1.633 . S
C959 C400 1.631 . S
C973 C504 1.631 . S
C977 C413 1.630 . S
C991 C530 1.637 . S
C995 C556 1.634 . S
C1009 C537 1.631 . S
C1013 C608 1.630 . S
C1027 C569 1.640 . S
C1031 C615 1.644 . S
C1045 C589 1.636 . S
C1049 C576 1.633 . S
C1063 C109 1.244 . S
C1067 C3 1.292 . S
C1081 C120 1.240 . S
C1085 C16 1.296 . S
C1099 C31 1.293 . S
C1103 C135 1.226 . S
C1117 C44 1.296 . S
C1121 C146 1.226 . S
C1135 C57 1.296 . S
C1139 C159 1.239 . S
C1153 C68 1.292 . S
C1157 C172 1.244 . S
C1171 C81 1.294 . S
C1175 C185 1.225 . S
C1189 C200 1.240 . S
C1193 C96 1.296 . S
C1207 C107 1.297 . S
C1211 C211 1.237 . S
C1225 C302 1.225 . S
C1229 C122 1.294 . S
C1243 C133 1.292 . S
C1247 C278 1.245 . S
C1261 C148 1.297 . S
C1265 C291 1.235 . S
C1279 C161 1.296 . S
C1283 C224 1.227 . S
C1297 C174 1.291 . S
C1301 C239 1.235 . S
C1315 C187 1.291 . S
C1319 C252 1.240 . S
C1333 C265 1.242 . S
C1337 C198 1.291 . S
C1351 C5 1.233 . S
C1355 C213 1.297 . S
C1369 C226 1.295 . S
C1373 C55 1.225 . S
C1387 C237 1.296 . S
C1391 C70 1.228 . S
C1405 C250 1.297 . S
C1409 C83 1.229 . S
C1423 C94 1.245 . S
C1427 C263 1.292 . S
C1441 C276 1.291 . S
C1445 C29 1.232 . S
C1459 C289 1.297 . S
C1463 C42 1.236 . S
C1477 C18 1.245 . S
C1481 C304 1.293 . S
C1495 C419 1.228 . S
C1499 C315 1.297 . S
C1513 C330 1.295 . S
C1517 C434 1.225 . S
C1531 C341 1.297 . S
C1535 C447 1.230 . S
C1549 C460 1.242 . S
C1553 C356 1.296 . S
C1567 C471 1.237 . S
C1571 C369 1.291 . S
C1585 C380 1.295 . S
C1589 C484 1.225 . S
C1603 C497 1.241 . S
C1607 C395 1.291 . S
C1621 C512 1.238 . S
C1625 C408 1.296 . S
C1639 C421 1.297 . S
C1643 C523 1.237 . S
C1657 C432 1.294 . S
C1661 C616 1.226 . S
C1675 C445 1.291 . S
C1679 C590 1.235 . S
C1693 C601 1.227 . S
C1697 C458 1.296 . S
C1711 C473 1.291 . S
C1715 C538 1.236 . S
C1729 C486 1.292 . S
C1733 C549 1.230 . S
C1747 C562 1.245 . S
C1751 C499 1.294 . S
C1765 C577 1.239 . S
C1769 C510 1.291 . S
C1783 C525 1.291 . S
C1787 C317 1.236 . S
C1801 C536 1.292 . S
C1805 C367 1.228 . S
C1819 C382 1.225 . S
C1823 C551 1.294 . S
C1837 C564 1.292 . S
C1841 C393 1.227 . S
C1855 C575 1.291 . S
C1859 C406 1.242 . S
C1873 C343 1.236 . S
C1877 C588 1.297 . S
C1891 C603 1.291 . S
C1895 C354 1.240 . S
C1909 C328 1.225 . S
C1913 C614 1.295 . S
C1927 C407 1.479 . S
C1931 C10 1.483 . S
C1945 C23 1.479 . S
C1949 C368 1.488 . S
C1963 C387 1.482 . S
C1967 C30 1.479 . S
C1981 C394 1.487 . S
C1985 C43 1.475 . S
C1999 C56 1.475 . S
C2003 C329 1.490 . S
C2017 C348 1.475 . S
C2021 C75 1.488 . S
C2035 C355 1.476 . S
C2039 C88 1.485 . S
C2053 C95 1.478 . S
C2057 C322 1.484 . S
C2071 C582 1.486 . S
C2075 C114 1.476 . S
C2089 C121 1.490 . S
C2093 C543 1.476 . S
C2107 C140 1.475 . S
C2111 C550 1.490 . S
C2125 C563 1.485 . S
C2129 C147 1.477 . S
C2143 C621 1.478 . S
C2147 C160 1.484 . S
C2161 C595 1.487 . S
C2165 C173 1.480 . S
C2179 C186 1.489 . S
C2183 C602 1.477 . S
C2197 C524 1.485 . S
C2201 C205 1.483 . S
C2215 C212 1.486 . S
C2219 C517 1.476 . S
C2233 C439 1.477 . S
C2237 C225 1.485 . S
C2251 C244 1.485 . S
C2255 C452 1.477 . S
C2269 C465 1.481 . S
C2273 C257 1.481 . S
C2287 C420 1.488 . S
C2291 C270 1.475 . S
C2305 C283 1.475 . S
C2309 C485 1.489 . S
C2323 C498 1.476 . S
C2327 C296 1.490 . S
C2341 C472 1.486 . S
C2345 C303 1.476 . S
