# Generated by pormake.
# Topology qtz-e, (6)-cn, num edge types: 1
# Building blocks:
#     Node 0, Type 0, BuildingBlock: CUKXOW_clean_sbu_0, # of connection points: 6
#     Node 1, Type 0, BuildingBlock: CUKXOW_clean_sbu_0, # of connection points: 6
#     Node 2, Type 0, BuildingBlock: CUKXOW_clean_sbu_0, # of connection points: 6
#     Node 3, Type 0, BuildingBlock: CUKXOW_clean_sbu_0, # of connection points: 6
#     Node 4, Type 0, BuildingBlock: CUKXOW_clean_sbu_0, # of connection points: 6
#     Node 5, Type 0, BuildingBlock: CUKXOW_clean_sbu_0, # of connection points: 6
#     Edge 6, Type (0, 0), BuildingBlock: CIFDUS_clean_linker_0, # of connection points: 2
#     Edge 7, Type (0, 0), BuildingBlock: CIFDUS_clean_linker_0, # of connection points: 2
#     Edge 8, Type (0, 0), BuildingBlock: CIFDUS_clean_linker_0, # of connection points: 2
#     Edge 9, Type (0, 0), BuildingBlock: CIFDUS_clean_linker_0, # of connection points: 2
#     Edge 10, Type (0, 0), BuildingBlock: CIFDUS_clean_linker_0, # of connection points: 2
#     Edge 11, Type (0, 0), BuildingBlock: CIFDUS_clean_linker_0, # of connection points: 2
#     Edge 12, Type (0, 0), BuildingBlock: CIFDUS_clean_linker_0, # of connection points: 2
#     Edge 13, Type (0, 0), BuildingBlock: CIFDUS_clean_linker_0, # of connection points: 2
#     Edge 14, Type (0, 0), BuildingBlock: CIFDUS_clean_linker_0, # of connection points: 2
#     Edge 15, Type (0, 0), BuildingBlock: CIFDUS_clean_linker_0, # of connection points: 2
#     Edge 16, Type (0, 0), BuildingBlock: CIFDUS_clean_linker_0, # of connection points: 2
#     Edge 17, Type (0, 0), BuildingBlock: CIFDUS_clean_linker_0, # of connection points: 2
#     Edge 18, Type (0, 0), BuildingBlock: CIFDUS_clean_linker_0, # of connection points: 2
#     Edge 19, Type (0, 0), BuildingBlock: CIFDUS_clean_linker_0, # of connection points: 2
#     Edge 20, Type (0, 0), BuildingBlock: CIFDUS_clean_linker_0, # of connection points: 2
#     Edge 21, Type (0, 0), BuildingBlock: CIFDUS_clean_linker_0, # of connection points: 2
#     Edge 22, Type (0, 0), BuildingBlock: CIFDUS_clean_linker_0, # of connection points: 2
#     Edge 23, Type (0, 0), BuildingBlock: CIFDUS_clean_linker_0, # of connection points: 2
# Relax obj value: 0.113
# Max RMSD: 0.163
# Mean RMSD: 0.163
data_MOF--net-qtz-e--node1-CUKXOW_clean_sbu_0--edge1-CIFDUS_clean_linker_0
_symmetry_space_group_name_H-M    P1
_symmetry_Int_Tables_number       1
_symmetry_cell_setting            triclinic
loop_
_symmetry_equiv_pos_as_xyz
'x, y, z'
_cell_length_a     23.891835
_cell_length_b     23.723453
_cell_length_c     32.484588
_cell_angle_alpha  90.273622
_cell_angle_beta   89.34318
_cell_angle_gamma 120.16908
loop_
_atom_site_label
_atom_site_type_symbol
_atom_site_fract_x
_atom_site_fract_y
_atom_site_fract_z
_atom_type_partial_charge
Tb0 Tb 0.14826 0.35507 0.08101 0.0
C1 C 0.29956 0.43925 0.07871 0.0
Tb2 Tb 0.22035 0.44918 1.00757 0.0
O3 O 0.18159 0.28825 0.05925 0.0
O4 O 0.16893 0.34771 1.0185 0.0
O5 O 0.24763 0.41339 0.10303 0.0
C6 C 0.2745 0.50565 0.93623 0.0
O7 O 0.29665 0.44331 1.03832 0.0
C8 C 0.2107 0.50418 0.07584 0.0
C9 C 0.06999 0.37999 1.01125 0.0
O10 O 0.28092 0.46015 0.95388 0.0
O11 O 0.23675 0.51854 0.95847 0.0
O12 O 0.25625 0.53454 0.04858 0.0
O13 O 0.17118 0.44918 0.06191 0.0
O14 O 0.12192 0.40668 0.98698 0.0
O15 O 0.07004 0.36035 0.04968 0.0
C16 C 0.08077 0.30131 0.1501 0.0
O17 O 0.0625 0.27799 0.11321 0.0
O18 O 0.13693 0.35415 0.14792 0.0
C19 C 0.18984 0.30903 1.0215 0.0
Tb20 Tb 0.77524 0.13636 0.41147 0.0
C21 C 0.87787 0.28143 0.39813 0.0
Tb22 Tb 0.75246 0.21552 0.34663 0.0
O23 O 0.8571 0.14464 0.37487 0.0
O24 O 0.77901 0.14301 0.34616 0.0
O25 O 0.84861 0.23592 0.42675 0.0
C26 C 0.73146 0.2669 0.2802 0.0
O27 O 0.85402 0.27646 0.36087 0.0
C28 C 0.72847 0.23488 0.42351 0.0
C29 C 0.64028 0.0745 0.36532 0.0
O30 O 0.78455 0.26627 0.28738 0.0
O31 O 0.69054 0.23848 0.31014 0.0
O32 O 0.74768 0.27859 0.39471 0.0
O33 O 0.71973 0.18302 0.40732 0.0
O34 O 0.66597 0.12165 0.33746 0.0
O35 O 0.67323 0.07264 0.39743 0.0
C36 C 0.76397 0.06012 0.47481 0.0
O37 O 0.75689 0.04305 0.4363 0.0
O38 O 0.77926 0.12089 0.47757 0.0
C39 C 0.83425 0.15021 0.34003 0.0
Tb40 Tb 0.58817 0.77844 0.74472 0.0
C41 C 0.55231 0.88825 0.74059 0.0
Tb42 Tb 0.50602 0.78298 0.67235 0.0
O43 O 0.67309 0.86867 0.7222 0.0
O44 O 0.60233 0.80476 0.68182 0.0
O45 O 0.56064 0.84902 0.76548 0.0
C46 C 0.46031 0.79359 0.59996 0.0
O47 O 0.54287 0.87786 0.70054 0.0
C48 C 0.44452 0.73521 0.74252 0.0
C49 C 0.52876 0.66318 0.67858 0.0
O50 O 0.52022 0.82826 0.61136 0.0
O51 O 0.42668 0.75291 0.62908 0.0
O52 O 0.42746 0.7648 0.71622 0.0
O53 O 0.49026 0.73021 0.72736 0.0
O54 O 0.50555 0.69371 0.65648 0.0
O55 O 0.56022 0.68569 0.71394 0.0
C56 C 0.62745 0.75059 0.81449 0.0
O57 O 0.65046 0.7509 0.77791 0.0
O58 O 0.58246 0.76579 0.81164 0.0
C59 C 0.65289 0.85941 0.68448 0.0
Tb60 Tb 0.80453 0.60581 0.06759 0.0
C61 C 0.65474 0.54639 0.07583 0.0
Tb62 Tb 0.7113 0.49526 1.00896 0.0
O63 O 0.78097 0.67463 1.03708 0.0
O64 O 0.77643 0.59629 1.00548 0.0
O65 O 0.70975 0.57122 0.09626 0.0
C66 C 0.6494 0.41996 0.9453 0.0
O67 O 0.64859 0.52597 1.03726 0.0
C68 C 0.72192 0.45849 0.08312 0.0
C69 C 0.85979 0.54421 1.00323 0.0
O70 O 0.64931 0.47314 0.9552 0.0
O71 O 0.68373 0.40922 0.97133 0.0
O72 O 0.67049 0.42684 0.06082 0.0
O73 O 0.76505 0.50399 0.06197 0.0
O74 O 0.80323 0.51322 0.98456 0.0
O75 O 0.87063 0.57989 1.03711 0.0
C76 C 0.88418 0.66826 0.12986 0.0
O77 O 0.89732 0.68445 0.09119 0.0
O78 O 0.82623 0.61818 0.13312 0.0
C79 C 0.76422 0.64161 1.00288 0.0
Tb80 Tb 0.14031 0.80863 0.41018 0.0
C81 C 0.07892 0.65784 0.39864 0.0
Tb82 Tb 0.18773 0.76075 0.33725 0.0
O83 O 0.04756 0.77696 0.38116 0.0
O84 O 0.13079 0.80582 0.34484 0.0
O85 O 0.08677 0.70473 0.42467 0.0
C86 C 0.20326 0.71101 0.26716 0.0
O87 O 0.10898 0.66962 0.36223 0.0
C88 C 0.25364 0.78161 0.40588 0.0
C89 C 0.25965 0.90421 0.35449 0.0
O90 O 0.14785 0.69427 0.2846 0.0
O91 O 0.24935 0.75568 0.289 0.0
O92 O 0.27771 0.78338 0.36962 0.0
O93 O 0.19453 0.7615 0.40183 0.0
O94 O 0.2312 0.86327 0.3239 0.0
O95 O 0.23512 0.88938 0.39225 0.0
C96 C 0.14257 0.87604 0.47691 0.0
O97 O 0.13828 0.89097 0.43916 0.0
O98 O 0.14298 0.82152 0.4772 0.0
C99 C 0.06991 0.78001 0.34404 0.0
Tb100 Tb 0.31906 0.17374 0.74019 0.0
C101 C 0.3833 0.08669 0.74213 0.0
Tb102 Tb 0.41416 0.18472 0.67069 0.0
O103 O 0.24675 0.07576 0.71979 0.0
O104 O 0.31249 0.14396 0.67777 0.0
O105 O 0.36155 0.11819 0.76503 0.0
C106 C 0.47721 0.18436 0.60258 0.0
O107 O 0.39418 0.09631 0.70205 0.0
C108 C 0.4659 0.24268 0.74055 0.0
C109 C 0.3635 0.28393 0.67094 0.0
O110 O 0.42388 0.13482 0.61642 0.0
O111 O 0.49385 0.23411 0.62656 0.0
O112 O 0.49306 0.22006 0.71595 0.0
O113 O 0.41629 0.23635 0.72385 0.0
O114 O 0.39248 0.25803 0.64932 0.0
O115 O 0.33415 0.2607 0.70713 0.0
C116 C 0.26919 0.1985 0.80699 0.0
O117 O 0.24543 0.18967 0.7701 0.0
O118 O 0.3202 0.19237 0.80622 0.0
C119 C 0.26908 0.08525 0.68227 0.0
H120 H 0.11764 0.5969 0.23103 0.0
H121 H 0.31257 0.75934 0.22071 0.0
H122 H 0.33243 0.70969 0.16036 0.0
H123 H 0.29463 0.61944 0.11085 0.0
H124 H 0.1015 0.4544 0.12306 0.0
H125 H 0.08072 0.50509 0.18252 0.0
C126 C 0.16422 0.62143 0.21532 0.0
C127 C 0.21346 0.6817 0.22991 0.0
C128 C 0.17574 0.59188 0.18123 0.0
C129 C 0.27395 0.71286 0.20981 0.0
C130 C 0.28537 0.68449 0.1754 0.0
C131 C 0.24811 0.59472 0.12664 0.0
C132 C 0.19961 0.53364 0.1127 0.0
C133 C 0.23673 0.6239 0.16094 0.0
C134 C 0.1396 0.50157 0.13342 0.0
C135 C 0.12761 0.53059 0.16729 0.0
H136 H 0.58553 0.28637 0.57041 0.0
H137 H 0.4584 0.07886 0.5579 0.0
H138 H 0.52823 0.07554 0.50332 0.0
H139 H 0.62484 0.1319 0.45903 0.0
H140 H 0.74863 0.34032 0.46844 0.0
H141 H 0.68136 0.34312 0.52511 0.0
C142 C 0.57306 0.24051 0.55558 0.0
C143 C 0.51698 0.18294 0.56799 0.0
C144 C 0.61321 0.23914 0.52416 0.0
C145 C 0.50121 0.12382 0.54864 0.0
C146 C 0.54126 0.12187 0.51764 0.0
C147 C 0.63748 0.17782 0.47382 0.0
C148 C 0.69181 0.23587 0.45999 0.0
C149 C 0.59745 0.1792 0.50527 0.0
C150 C 0.70714 0.29513 0.47887 0.0
C151 C 0.66856 0.29671 0.51104 0.0
H152 H 0.26123 0.59766 0.89546 0.0
H153 H 0.36736 0.49472 0.89418 0.0
H154 H 0.43116 0.559 0.83497 0.0
H155 H 0.45704 0.64447 0.78406 0.0
H156 H 0.34879 0.74509 0.78278 0.0
H157 H 0.28557 0.682 0.84289 0.0
C158 C 0.29812 0.58919 0.882 0.0
C159 C 0.30976 0.5417 0.899 0.0
C160 C 0.33433 0.6261 0.84784 0.0
C161 C 0.35752 0.53095 0.88143 0.0
C162 C 0.39411 0.56779 0.84773 0.0
C163 C 0.41977 0.65279 0.79706 0.0
C164 C 0.4076 0.69945 0.77937 0.0
C165 C 0.38309 0.61561 0.83084 0.0
C166 C 0.35893 0.70944 0.79613 0.0
C167 C 0.3228 0.67333 0.83034 0.0
H168 H 0.8206 0.3624 0.23109 0.0
H169 H 0.61502 0.23877 0.25036 0.0
H170 H 0.5935 0.28834 0.1913 0.0
H171 H 0.63338 0.36553 0.13345 0.0
H172 H 0.83879 0.49433 0.11678 0.0
H173 H 0.8604 0.44485 0.17585 0.0
C174 C 0.77122 0.34636 0.22214 0.0
C175 C 0.71941 0.29674 0.24445 0.0
C176 C 0.75928 0.37629 0.1889 0.0
C177 C 0.65555 0.27684 0.2333 0.0
C178 C 0.64324 0.30516 0.19965 0.0
C179 C 0.68276 0.38296 0.14303 0.0
C180 C 0.7344 0.43296 0.12087 0.0
C181 C 0.69472 0.3548 0.17718 0.0
C182 C 0.79826 0.45573 0.13355 0.0
C183 C 0.81066 0.4273 0.16714 0.0
H184 H 0.3353 0.75171 0.58426 0.0
H185 H 0.52541 0.85086 0.52838 0.0
H186 H 0.47853 0.85684 0.46276 0.0
H187 H 0.38183 0.82968 0.4208 0.0
H188 H 0.19351 0.73674 0.47945 0.0
H189 H 0.24112 0.73261 0.54447 0.0
C190 C 0.36643 0.77465 0.55769 0.0
C191 C 0.4334 0.80001 0.56079 0.0
C192 C 0.33936 0.77894 0.52061 0.0
C193 C 0.47353 0.83066 0.52648 0.0
C194 C 0.44674 0.83399 0.48904 0.0
C195 C 0.35157 0.80907 0.44799 0.0
C196 C 0.28432 0.78339 0.44538 0.0
C197 C 0.37954 0.80773 0.48564 0.0
C198 C 0.24542 0.75699 0.48072 0.0
C199 C 0.27256 0.75437 0.5179 0.0
H200 H 0.5575 0.42067 0.89795 0.0
H201 H 0.67327 0.32939 0.91146 0.0
H202 H 0.62681 0.2659 0.84885 0.0
H203 H 0.55504 0.23853 0.78913 0.0
H204 H 0.43473 0.32525 0.77816 0.0
H205 H 0.4807 0.38806 0.84093 0.0
C206 C 0.57226 0.3867 0.88714 0.0
C207 C 0.61885 0.37985 0.90882 0.0
C208 C 0.54463 0.3497 0.85159 0.0
C209 C 0.63736 0.33533 0.89503 0.0
C210 C 0.61098 0.29918 0.85925 0.0
C211 C 0.53911 0.27123 0.80064 0.0
C212 C 0.49236 0.27802 0.77913 0.0
C213 C 0.56495 0.30634 0.8371 0.0
C214 C 0.471 0.31958 0.79437 0.0
C215 C 0.49726 0.35554 0.83016 0.0
H216 H 0.36525 0.39012 0.11789 0.0
H217 H 0.37852 0.56828 0.07567 0.0
H218 H 0.49618 0.62494 0.08014 0.0
H219 H 0.59363 0.6152 0.07916 0.0
H220 H 0.58144 0.43661 0.11888 0.0
H221 H 0.46559 0.38873 0.13323 0.0
C222 C 0.39407 0.44198 0.11159 0.0
C223 C 0.36426 0.47519 0.09614 0.0
C224 C 0.46193 0.47371 0.11303 0.0
C225 C 0.40128 0.54212 0.08748 0.0
C226 C 0.46845 0.57436 0.08972 0.0
C227 C 0.56589 0.56701 0.09277 0.0
C228 C 0.59488 0.52908 0.09798 0.0
C229 C 0.4993 0.53955 0.09994 0.0
C230 C 0.55927 0.46638 0.11498 0.0
C231 C 0.49308 0.43887 0.12279 0.0
H232 H 0.10106 0.56222 0.37562 0.0
H233 H -0.02522 0.60058 0.4517 0.0
H234 H 0.90718 0.48355 0.46638 0.0
H235 H 0.87591 0.37016 0.44825 0.0
H236 H -0.0011 0.33438 0.36744 0.0
H237 H 0.07768 0.4511 0.3648 0.0
C238 C 0.05888 0.54506 0.39561 0.0
C239 C 0.04155 0.58929 0.41166 0.0
C240 C 0.02048 0.47841 0.40338 0.0
C241 C -0.01176 0.56695 0.43857 0.0
C242 C 0.94979 0.50025 0.44694 0.0
C243 C 0.92142 0.38813 0.43163 0.0
C244 C 0.93282 0.34466 0.40858 0.0
C245 C 0.9644 0.45543 0.42842 0.0
C246 C -0.00959 0.36757 0.38594 0.0
C247 C 0.03473 0.43412 0.38397 0.0
H248 H 0.50694 0.12061 0.74595 0.0
H249 H 0.31547 0.96731 0.77923 0.0
H250 H 0.35752 0.89342 0.79219 0.0
H251 H 0.44428 0.86772 0.77907 0.0
H252 H 0.63143 0.01868 0.73652 0.0
H253 H 0.59686 0.09952 0.74324 0.0
C254 C 0.47502 0.07163 0.7574 0.0
C255 C 0.40856 0.04878 0.76166 0.0
C256 C 0.49908 0.02934 0.7628 0.0
C257 C 0.36696 -0.01449 0.77617 0.0
C258 C 0.39096 0.94336 0.78314 0.0
C259 C 0.47802 0.91891 0.77306 0.0
C260 C 0.54033 0.93811 0.75786 0.0
C261 C 0.4563 0.96392 0.77453 0.0
C262 C 0.58363 0.00372 0.74887 0.0
C263 C 0.56357 0.04953 0.75226 0.0
H264 H 0.40739 0.56663 0.66747 0.0
H265 H 0.60561 0.61041 0.66631 0.0
H266 H 0.56975 0.49483 0.65512 0.0
H267 H 0.48205 0.38132 0.65428 0.0
H268 H 0.28407 0.33582 0.66813 0.0
H269 H 0.31907 0.45239 0.66497 0.0
C270 C 0.44251 0.55065 0.66385 0.0
C271 C 0.50884 0.59611 0.66709 0.0
C272 C 0.4213 0.48413 0.65981 0.0
C273 C 0.55436 0.57565 0.66359 0.0
C274 C 0.53383 0.50987 0.65729 0.0
C275 C 0.44649 0.39701 0.6553 0.0
C276 C 0.38059 0.35069 0.66049 0.0
C277 C 0.46743 0.46363 0.65641 0.0
C278 C 0.3349 0.37107 0.66344 0.0
C279 C 0.35501 0.43748 0.66199 0.0
H280 H 0.08739 0.49027 0.97924 0.0
H281 H 0.93917 0.30054 1.02145 0.0
H282 H 0.85777 0.33427 1.01553 0.0
H283 H 0.83335 0.4223 1.00766 0.0
H284 H -0.01387 0.61698 0.97849 0.0
H285 H 0.06266 0.57711 0.96972 0.0
C286 C 0.03684 0.45563 0.9859 0.0
C287 C 0.01842 0.39269 0.99999 0.0
C288 C -0.00788 0.47691 0.98535 0.0
C289 C 0.95362 0.34885 1.01003 0.0
C290 C 0.90758 0.36834 1.00695 0.0
C291 C 0.88323 0.45548 0.99851 0.0
C292 C 0.90482 0.52195 0.99307 0.0
C293 C 0.9269 0.43288 0.99602 0.0
C294 C -0.03072 0.56555 0.98242 0.0
C295 C 0.01258 0.54274 0.97753 0.0
H296 H 0.34729 0.93055 0.41285 0.0
H297 H 0.32879 0.97329 0.28645 0.0
H298 H 0.44687 0.02744 0.27739 0.0
H299 H 0.55423 0.05784 0.30534 0.0
H300 H 0.56676 0.00156 0.42986 0.0
H301 H 0.45112 0.95511 0.43916 0.0
C302 C 0.36891 0.95281 0.38345 0.0
C303 C 0.32968 0.94916 0.35053 0.0
C304 C 0.43535 0.97923 0.37777 0.0
C305 C 0.35842 0.97671 0.3124 0.0
C306 C 0.42559 0.00663 0.3071 0.0
C307 C 0.53141 0.03422 0.3342 0.0
C308 C 0.56929 0.03332 0.36679 0.0
C309 C 0.46433 0.00685 0.33939 0.0
C310 C 0.53899 0.00253 0.40403 0.0
C311 C 0.47281 0.97656 0.40965 0.0
H312 H 0.2974 0.1933 0.88705 0.0
H313 H 0.19017 0.25 0.80809 0.0
H314 H 0.15795 0.29112 0.86762 0.0
H315 H 0.16161 0.31235 0.94181 0.0
H316 H 0.26178 0.24887 1.02196 0.0
H317 H 0.29568 0.20889 0.96231 0.0
C318 C 0.26662 0.21429 0.88304 0.0
C319 C 0.24616 0.21879 0.84336 0.0
C320 C 0.24734 0.23672 0.91752 0.0
C321 C 0.20614 0.24576 0.83841 0.0
C322 C 0.18797 0.26949 0.87238 0.0
C323 C 0.19084 0.28969 0.94619 0.0
C324 C 0.20962 0.28376 0.98605 0.0
C325 C 0.20854 0.2655 0.912 0.0
C326 C 0.24684 0.2538 0.99147 0.0
C327 C 0.26618 0.23106 0.95741 0.0
H328 H 0.9645 0.21503 0.32943 0.0
H329 H 0.78554 0.13444 0.26288 0.0
H330 H 0.84574 0.17053 0.19761 0.0
H331 H 0.95001 0.22691 0.15948 0.0
H332 H 0.1284 0.31667 0.22711 0.0
H333 H 0.06817 0.27513 0.29181 0.0
C334 C 0.93883 0.20504 0.30056 0.0
C335 C 0.87082 0.17145 0.30076 0.0
C336 C -0.02621 0.22765 0.26336 0.0
C337 C 0.83797 0.15991 0.26333 0.0
C338 C 0.87235 0.18053 0.22606 0.0
C339 C -0.02452 0.2368 0.18841 0.0
C340 C 0.04346 0.27405 0.18863 0.0
C341 C 0.94034 0.21456 0.22567 0.0
C342 C 0.07605 0.28781 0.22628 0.0
C343 C 0.04166 0.26411 0.26325 0.0
H344 H 0.64233 0.83072 0.60358 0.0
H345 H 0.73095 -0.00872 0.68871 0.0
H346 H 0.77591 0.06843 0.63108 0.0
H347 H 0.78565 0.09 0.55615 0.0
H348 H 0.70008 0.9281 0.47163 0.0
H349 H 0.65839 0.85155 0.52924 0.0
C350 C 0.67168 0.88265 0.60941 0.0
C351 C 0.683 0.90564 0.65009 0.0
C352 C 0.69785 0.9263 0.57625 0.0
C353 C 0.72174 0.97273 0.65749 0.0
C354 C 0.74724 0.01673 0.6246 0.0
C355 C 0.75856 0.03791 0.55048 0.0
C356 C 0.74583 0.01461 0.50981 0.0
C357 C 0.73512 -0.00591 0.58382 0.0
C358 C 0.71076 0.94712 0.50271 0.0
C359 C 0.68664 0.90333 0.53562 0.0
H360 H 0.6911 0.68392 0.82405 0.0
H361 H 0.61153 0.78421 0.89211 0.0
H362 H 0.64882 0.76203 0.95674 0.0
H363 H 0.70442 0.71344 0.99412 0.0
H364 H 0.77509 0.60523 0.92571 0.0
H365 H 0.74105 0.6308 0.86135 0.0
C366 C 0.68213 0.70098 0.85307 0.0
C367 C 0.64926 0.73611 0.85339 0.0
C368 C 0.70219 0.68655 0.89013 0.0
C369 C 0.63695 0.75714 0.89117 0.0
C370 C 0.65832 0.74454 0.92811 0.0
C371 C 0.7125 0.69587 0.96504 0.0
C372 C 0.74286 0.65822 0.96457 0.0
C373 C 0.69113 0.70932 0.92802 0.0
C374 C 0.75206 0.63461 0.92683 0.0
C375 C 0.73264 0.6492 0.88997 0.0
H376 H 0.10582 0.80388 0.26253 0.0
H377 H 0.9408 0.69913 0.34352 0.0
H378 H 0.86932 0.65596 0.28457 0.0
H379 H 0.85293 0.64746 0.21029 0.0
H380 H 0.015 0.75473 0.12786 0.0
H381 H 0.08831 0.79783 0.18681 0.0
C382 C 0.05422 0.77161 0.26708 0.0
C383 C 0.02857 0.75468 0.3073 0.0
C384 C 0.01285 0.7477 0.23282 0.0
C385 C 0.96166 0.71307 0.31289 0.0
C386 C 0.92068 0.6883 0.27919 0.0
C387 C 0.90428 0.68056 0.20522 0.0
C388 C 0.92861 0.69799 0.1649 0.0
C389 C 0.94564 0.70536 0.23909 0.0
C390 C -0.00483 0.74096 0.15873 0.0
C391 C 0.03705 0.76534 0.1924 0.0
H392 H 0.26128 0.10994 0.60209 0.0
H393 H 0.21299 0.95372 0.68788 0.0
H394 H 0.16698 0.87375 0.63203 0.0
H395 H 0.14341 0.84904 0.5581 0.0
H396 H 0.18407 0.00529 0.47379 0.0
H397 H 0.2291 0.08443 0.5297 0.0
C398 C 0.24063 0.05834 0.60842 0.0
C399 C 0.24095 0.03744 0.6487 0.0
C400 C 0.21244 0.01275 0.57649 0.0
C401 C 0.21324 0.9706 0.65691 0.0
C402 C 0.18696 0.92501 0.62505 0.0
C403 C 0.1613 0.90032 0.55222 0.0
C404 C 0.16057 0.92141 0.51198 0.0
C405 C 0.18646 0.94554 0.58466 0.0
C406 C 0.18378 -0.01212 0.50461 0.0
C407 C 0.20998 0.03323 0.53649 0.0
loop_
_geom_bond_atom_site_label_1
_geom_bond_atom_site_label_2
_geom_bond_distance
_geom_bond_site_symmetry_2
_ccdc_geom_bond_type
Tb0 O3 2.453 1_554 S
Tb0 O4 2.596 1_554 S
Tb0 O5 2.374 . S
Tb0 O13 2.343 . S
Tb0 O15 2.353 1_554 S
Tb0 O17 2.427 . S
Tb0 O18 2.513 . S
C1 O5 1.251 . S
C1 O7 1.263 . S
Tb2 O4 2.343 . S
Tb2 O7 2.353 1_556 S
Tb2 O10 2.427 . S
Tb2 O11 2.513 . S
Tb2 O12 2.453 1_556 S
Tb2 O13 2.596 1_556 S
Tb2 O14 2.374 . S
O3 Tb0 2.453 1_556 S
O3 C19 1.245 . S
O4 Tb0 2.596 1_556 S
O4 Tb2 2.343 . S
O4 C19 1.259 . S
O5 Tb0 2.374 . S
O5 C1 1.251 . S
C6 O10 1.275 . S
C6 O11 1.246 . S
O7 C1 1.263 . S
O7 Tb2 2.353 1_554 S
C8 O12 1.245 . S
C8 O13 1.259 . S
C9 O14 1.250 . S
C9 O15 1.263 . S
O10 Tb2 2.427 . S
O10 C6 1.275 . S
O11 Tb2 2.513 . S
O11 C6 1.246 . S
O12 Tb2 2.453 1_554 S
O12 C8 1.245 . S
O13 Tb0 2.343 . S
O13 Tb2 2.596 1_554 S
O13 C8 1.259 . S
O14 Tb2 2.374 . S
O14 C9 1.250 . S
O15 Tb0 2.353 1_556 S
O15 C9 1.263 . S
C16 O17 1.275 . S
C16 O18 1.246 . S
O17 Tb0 2.427 . S
O17 C16 1.275 . S
O18 Tb0 2.513 . S
O18 C16 1.246 . S
C19 O3 1.245 . S
C19 O4 1.259 . S
Tb20 O23 2.453 . S
Tb20 O24 2.596 . S
Tb20 O25 2.374 . S
Tb20 O33 2.343 . S
Tb20 O35 2.353 . S
Tb20 O37 2.427 . S
Tb20 O38 2.513 . S
C21 O25 1.251 . S
C21 O27 1.263 . S
Tb22 O24 2.343 . S
Tb22 O27 2.353 . S
Tb22 O30 2.427 . S
Tb22 O31 2.513 . S
Tb22 O32 2.453 . S
Tb22 O33 2.596 . S
Tb22 O34 2.374 . S
O23 Tb20 2.453 . S
O23 C39 1.245 . S
O24 Tb20 2.596 . S
O24 Tb22 2.343 . S
O24 C39 1.259 . S
O25 Tb20 2.374 . S
O25 C21 1.251 . S
C26 O30 1.275 . S
C26 O31 1.246 . S
O27 C21 1.263 . S
O27 Tb22 2.353 . S
C28 O32 1.245 . S
C28 O33 1.259 . S
C29 O34 1.250 . S
C29 O35 1.263 . S
O30 Tb22 2.427 . S
O30 C26 1.275 . S
O31 Tb22 2.513 . S
O31 C26 1.246 . S
O32 Tb22 2.453 . S
O32 C28 1.245 . S
O33 Tb20 2.343 . S
O33 Tb22 2.596 . S
O33 C28 1.259 . S
O34 Tb22 2.374 . S
O34 C29 1.250 . S
O35 Tb20 2.353 . S
O35 C29 1.263 . S
C36 O37 1.275 . S
C36 O38 1.246 . S
O37 Tb20 2.427 . S
O37 C36 1.275 . S
O38 Tb20 2.513 . S
O38 C36 1.246 . S
C39 O23 1.245 . S
C39 O24 1.259 . S
Tb40 O43 2.453 . S
Tb40 O44 2.596 . S
Tb40 O45 2.374 . S
Tb40 O53 2.343 . S
Tb40 O55 2.353 . S
Tb40 O57 2.427 . S
Tb40 O58 2.513 . S
C41 O45 1.251 . S
C41 O47 1.263 . S
Tb42 O44 2.343 . S
Tb42 O47 2.353 . S
Tb42 O50 2.427 . S
Tb42 O51 2.513 . S
Tb42 O52 2.453 . S
Tb42 O53 2.596 . S
Tb42 O54 2.374 . S
O43 Tb40 2.453 . S
O43 C59 1.245 . S
O44 Tb40 2.596 . S
O44 Tb42 2.343 . S
O44 C59 1.259 . S
O45 Tb40 2.374 . S
O45 C41 1.251 . S
C46 O50 1.275 . S
C46 O51 1.246 . S
O47 C41 1.263 . S
O47 Tb42 2.353 . S
C48 O52 1.245 . S
C48 O53 1.259 . S
C49 O54 1.250 . S
C49 O55 1.263 . S
O50 Tb42 2.427 . S
O50 C46 1.275 . S
O51 Tb42 2.513 . S
O51 C46 1.246 . S
O52 Tb42 2.453 . S
O52 C48 1.245 . S
O53 Tb40 2.343 . S
O53 Tb42 2.596 . S
O53 C48 1.259 . S
O54 Tb42 2.374 . S
O54 C49 1.250 . S
O55 Tb40 2.353 . S
O55 C49 1.263 . S
C56 O57 1.275 . S
C56 O58 1.246 . S
O57 Tb40 2.427 . S
O57 C56 1.275 . S
O58 Tb40 2.513 . S
O58 C56 1.246 . S
C59 O43 1.245 . S
C59 O44 1.259 . S
Tb60 O63 2.453 1_554 S
Tb60 O64 2.596 1_554 S
Tb60 O65 2.374 . S
Tb60 O73 2.343 . S
Tb60 O75 2.353 1_554 S
Tb60 O77 2.427 . S
Tb60 O78 2.513 . S
C61 O65 1.251 . S
C61 O67 1.263 . S
Tb62 O64 2.343 . S
Tb62 O67 2.353 1_556 S
Tb62 O70 2.427 . S
Tb62 O71 2.513 . S
Tb62 O72 2.453 1_556 S
Tb62 O73 2.596 1_556 S
Tb62 O74 2.374 . S
O63 Tb60 2.453 1_556 S
O63 C79 1.245 . S
O64 Tb60 2.596 1_556 S
O64 Tb62 2.343 . S
O64 C79 1.259 . S
O65 Tb60 2.374 . S
O65 C61 1.251 . S
C66 O70 1.275 . S
C66 O71 1.246 . S
O67 C61 1.263 . S
O67 Tb62 2.353 1_554 S
C68 O72 1.245 . S
C68 O73 1.259 . S
C69 O74 1.250 . S
C69 O75 1.263 . S
O70 Tb62 2.427 . S
O70 C66 1.275 . S
O71 Tb62 2.513 . S
O71 C66 1.246 . S
O72 Tb62 2.453 1_554 S
O72 C68 1.245 . S
O73 Tb60 2.343 . S
O73 Tb62 2.596 1_554 S
O73 C68 1.259 . S
O74 Tb62 2.374 . S
O74 C69 1.250 . S
O75 Tb60 2.353 1_556 S
O75 C69 1.263 . S
C76 O77 1.275 . S
C76 O78 1.246 . S
O77 Tb60 2.427 . S
O77 C76 1.275 . S
O78 Tb60 2.513 . S
O78 C76 1.246 . S
C79 O63 1.245 . S
C79 O64 1.259 . S
Tb80 O83 2.453 . S
Tb80 O84 2.596 . S
Tb80 O85 2.374 . S
Tb80 O93 2.343 . S
Tb80 O95 2.353 . S
Tb80 O97 2.427 . S
Tb80 O98 2.513 . S
C81 O85 1.251 . S
C81 O87 1.263 . S
Tb82 O84 2.343 . S
Tb82 O87 2.353 . S
Tb82 O90 2.427 . S
Tb82 O91 2.513 . S
Tb82 O92 2.453 . S
Tb82 O93 2.596 . S
Tb82 O94 2.374 . S
O83 Tb80 2.453 . S
O83 C99 1.245 . S
O84 Tb80 2.596 . S
O84 Tb82 2.343 . S
O84 C99 1.259 . S
O85 Tb80 2.374 . S
O85 C81 1.251 . S
C86 O90 1.275 . S
C86 O91 1.246 . S
O87 C81 1.263 . S
O87 Tb82 2.353 . S
C88 O92 1.245 . S
C88 O93 1.259 . S
C89 O94 1.250 . S
C89 O95 1.263 . S
O90 Tb82 2.427 . S
O90 C86 1.275 . S
O91 Tb82 2.513 . S
O91 C86 1.246 . S
O92 Tb82 2.453 . S
O92 C88 1.245 . S
O93 Tb80 2.343 . S
O93 Tb82 2.596 . S
O93 C88 1.259 . S
O94 Tb82 2.374 . S
O94 C89 1.250 . S
O95 Tb80 2.353 . S
O95 C89 1.263 . S
C96 O97 1.275 . S
C96 O98 1.246 . S
O97 Tb80 2.427 . S
O97 C96 1.275 . S
O98 Tb80 2.513 . S
O98 C96 1.246 . S
C99 O83 1.245 . S
C99 O84 1.259 . S
Tb100 O103 2.453 . S
Tb100 O104 2.596 . S
Tb100 O105 2.374 . S
Tb100 O113 2.343 . S
Tb100 O115 2.353 . S
Tb100 O117 2.427 . S
Tb100 O118 2.513 . S
C101 O105 1.251 . S
C101 O107 1.263 . S
Tb102 O104 2.343 . S
Tb102 O107 2.353 . S
Tb102 O110 2.427 . S
Tb102 O111 2.513 . S
Tb102 O112 2.453 . S
Tb102 O113 2.596 . S
Tb102 O114 2.374 . S
O103 Tb100 2.453 . S
O103 C119 1.245 . S
O104 Tb100 2.596 . S
O104 Tb102 2.343 . S
O104 C119 1.259 . S
O105 Tb100 2.374 . S
O105 C101 1.251 . S
C106 O110 1.275 . S
C106 O111 1.246 . S
O107 C101 1.263 . S
O107 Tb102 2.353 . S
C108 O112 1.245 . S
C108 O113 1.259 . S
C109 O114 1.250 . S
C109 O115 1.263 . S
O110 Tb102 2.427 . S
O110 C106 1.275 . S
O111 Tb102 2.513 . S
O111 C106 1.246 . S
O112 Tb102 2.453 . S
O112 C108 1.245 . S
O113 Tb100 2.343 . S
O113 Tb102 2.596 . S
O113 C108 1.259 . S
O114 Tb102 2.374 . S
O114 C109 1.250 . S
O115 Tb100 2.353 . S
O115 C109 1.263 . S
C116 O117 1.275 . S
C116 O118 1.246 . S
O117 Tb100 2.427 . S
O117 C116 1.275 . S
O118 Tb100 2.513 . S
O118 C116 1.246 . S
C119 O103 1.245 . S
C119 O104 1.259 . S
H120 C126 0.930 . S
H121 C129 0.930 . S
H122 C130 0.930 . S
H123 C131 0.930 . S
H124 C134 0.930 . S
H125 C135 0.930 . S
C126 H120 0.930 . S
C126 C127 1.355 . S
C126 C128 1.415 . S
C127 C126 1.355 . S
C127 C129 1.419 . S
C128 C126 1.415 . S
C128 C133 1.425 . S
C128 C135 1.409 . S
C129 H121 0.930 . S
C129 C127 1.419 . S
C129 C130 1.362 . S
C130 H122 0.930 . S
C130 C129 1.362 . S
C130 C133 1.409 . S
C131 H123 0.930 . S
C131 C132 1.355 . S
C131 C133 1.415 . S
C132 C131 1.355 . S
C132 C134 1.419 . S
C133 C128 1.425 . S
C133 C130 1.409 . S
C133 C131 1.415 . S
C134 H124 0.930 . S
C134 C132 1.419 . S
C134 C135 1.362 . S
C135 H125 0.930 . S
C135 C128 1.409 . S
C135 C134 1.362 . S
H136 C142 0.930 . S
H137 C145 0.930 . S
H138 C146 0.930 . S
H139 C147 0.930 . S
H140 C150 0.930 . S
H141 C151 0.930 . S
C142 H136 0.930 . S
C142 C143 1.355 . S
C142 C144 1.415 . S
C143 C142 1.355 . S
C143 C145 1.419 . S
C144 C142 1.415 . S
C144 C149 1.425 . S
C144 C151 1.409 . S
C145 H137 0.930 . S
C145 C143 1.419 . S
C145 C146 1.362 . S
C146 H138 0.930 . S
C146 C145 1.362 . S
C146 C149 1.409 . S
C147 H139 0.930 . S
C147 C148 1.355 . S
C147 C149 1.415 . S
C148 C147 1.355 . S
C148 C150 1.419 . S
C149 C144 1.425 . S
C149 C146 1.409 . S
C149 C147 1.415 . S
C150 H140 0.930 . S
C150 C148 1.419 . S
C150 C151 1.362 . S
C151 H141 0.930 . S
C151 C144 1.409 . S
C151 C150 1.362 . S
H152 C158 0.930 . S
H153 C161 0.930 . S
H154 C162 0.930 . S
H155 C163 0.930 . S
H156 C166 0.930 . S
H157 C167 0.930 . S
C158 H152 0.930 . S
C158 C159 1.355 . S
C158 C160 1.415 . S
C159 C158 1.355 . S
C159 C161 1.419 . S
C160 C158 1.415 . S
C160 C165 1.425 . S
C160 C167 1.409 . S
C161 H153 0.930 . S
C161 C159 1.419 . S
C161 C162 1.362 . S
C162 H154 0.930 . S
C162 C161 1.362 . S
C162 C165 1.409 . S
C163 H155 0.930 . S
C163 C164 1.355 . S
C163 C165 1.415 . S
C164 C163 1.355 . S
C164 C166 1.419 . S
C165 C160 1.425 . S
C165 C162 1.409 . S
C165 C163 1.415 . S
C166 H156 0.930 . S
C166 C164 1.419 . S
C166 C167 1.362 . S
C167 H157 0.930 . S
C167 C160 1.409 . S
C167 C166 1.362 . S
H168 C174 0.930 . S
H169 C177 0.930 . S
H170 C178 0.930 . S
H171 C179 0.930 . S
H172 C182 0.930 . S
H173 C183 0.930 . S
C174 H168 0.930 . S
C174 C175 1.355 . S
C174 C176 1.415 . S
C175 C174 1.355 . S
C175 C177 1.419 . S
C176 C174 1.415 . S
C176 C181 1.425 . S
C176 C183 1.409 . S
C177 H169 0.930 . S
C177 C175 1.419 . S
C177 C178 1.362 . S
C178 H170 0.930 . S
C178 C177 1.362 . S
C178 C181 1.409 . S
C179 H171 0.930 . S
C179 C180 1.355 . S
C179 C181 1.415 . S
C180 C179 1.355 . S
C180 C182 1.419 . S
C181 C176 1.425 . S
C181 C178 1.409 . S
C181 C179 1.415 . S
C182 H172 0.930 . S
C182 C180 1.419 . S
C182 C183 1.362 . S
C183 H173 0.930 . S
C183 C176 1.409 . S
C183 C182 1.362 . S
H184 C190 0.930 . S
H185 C193 0.930 . S
H186 C194 0.930 . S
H187 C195 0.930 . S
H188 C198 0.930 . S
H189 C199 0.930 . S
C190 H184 0.930 . S
C190 C191 1.355 . S
C190 C192 1.415 . S
C191 C190 1.355 . S
C191 C193 1.419 . S
C192 C190 1.415 . S
C192 C197 1.425 . S
C192 C199 1.409 . S
C193 H185 0.930 . S
C193 C191 1.419 . S
C193 C194 1.362 . S
C194 H186 0.930 . S
C194 C193 1.362 . S
C194 C197 1.409 . S
C195 H187 0.930 . S
C195 C196 1.355 . S
C195 C197 1.415 . S
C196 C195 1.355 . S
C196 C198 1.419 . S
C197 C192 1.425 . S
C197 C194 1.409 . S
C197 C195 1.415 . S
C198 H188 0.930 . S
C198 C196 1.419 . S
C198 C199 1.362 . S
C199 H189 0.930 . S
C199 C192 1.409 . S
C199 C198 1.362 . S
H200 C206 0.930 . S
H201 C209 0.930 . S
H202 C210 0.930 . S
H203 C211 0.930 . S
H204 C214 0.930 . S
H205 C215 0.930 . S
C206 H200 0.930 . S
C206 C207 1.355 . S
C206 C208 1.415 . S
C207 C206 1.355 . S
C207 C209 1.419 . S
C208 C206 1.415 . S
C208 C213 1.425 . S
C208 C215 1.409 . S
C209 H201 0.930 . S
C209 C207 1.419 . S
C209 C210 1.362 . S
C210 H202 0.930 . S
C210 C209 1.362 . S
C210 C213 1.409 . S
C211 H203 0.930 . S
C211 C212 1.355 . S
C211 C213 1.415 . S
C212 C211 1.355 . S
C212 C214 1.419 . S
C213 C208 1.425 . S
C213 C210 1.409 . S
C213 C211 1.415 . S
C214 H204 0.930 . S
C214 C212 1.419 . S
C214 C215 1.362 . S
C215 H205 0.930 . S
C215 C208 1.409 . S
C215 C214 1.362 . S
H216 C222 0.930 . S
H217 C225 0.930 . S
H218 C226 0.930 . S
H219 C227 0.930 . S
H220 C230 0.930 . S
H221 C231 0.930 . S
C222 H216 0.930 . S
C222 C223 1.355 . S
C222 C224 1.415 . S
C223 C222 1.355 . S
C223 C225 1.419 . S
C224 C222 1.415 . S
C224 C229 1.425 . S
C224 C231 1.409 . S
C225 H217 0.930 . S
C225 C223 1.419 . S
C225 C226 1.362 . S
C226 H218 0.930 . S
C226 C225 1.362 . S
C226 C229 1.409 . S
C227 H219 0.930 . S
C227 C228 1.355 . S
C227 C229 1.415 . S
C228 C227 1.355 . S
C228 C230 1.419 . S
C229 C224 1.425 . S
C229 C226 1.409 . S
C229 C227 1.415 . S
C230 H220 0.930 . S
C230 C228 1.419 . S
C230 C231 1.362 . S
C231 H221 0.930 . S
C231 C224 1.409 . S
C231 C230 1.362 . S
H232 C238 0.930 . S
H233 C241 0.930 . S
H234 C242 0.930 . S
H235 C243 0.930 . S
H236 C246 0.930 . S
H237 C247 0.930 . S
C238 H232 0.930 . S
C238 C239 1.355 . S
C238 C240 1.415 . S
C239 C238 1.355 . S
C239 C241 1.419 1_455 S
C240 C238 1.415 . S
C240 C245 1.425 1_455 S
C240 C247 1.409 . S
C241 H233 0.930 . S
C241 C239 1.419 1_655 S
C241 C242 1.362 . S
C242 H234 0.930 . S
C242 C241 1.362 . S
C242 C245 1.409 . S
C243 H235 0.930 . S
C243 C244 1.355 . S
C243 C245 1.415 . S
C244 C243 1.355 . S
C244 C246 1.419 1_655 S
C245 C240 1.425 1_655 S
C245 C242 1.409 . S
C245 C243 1.415 . S
C246 H236 0.930 . S
C246 C244 1.419 1_455 S
C246 C247 1.362 . S
C247 H237 0.930 . S
C247 C240 1.409 . S
C247 C246 1.362 . S
H248 C254 0.930 . S
H249 C257 0.930 . S
H250 C258 0.930 . S
H251 C259 0.930 . S
H252 C262 0.930 . S
H253 C263 0.930 . S
C254 H248 0.930 . S
C254 C255 1.355 . S
C254 C256 1.415 . S
C255 C254 1.355 . S
C255 C257 1.419 1_545 S
C256 C254 1.415 . S
C256 C261 1.425 1_545 S
C256 C263 1.409 . S
C257 H249 0.930 . S
C257 C255 1.419 1_565 S
C257 C258 1.362 . S
C258 H250 0.930 . S
C258 C257 1.362 . S
C258 C261 1.409 . S
C259 H251 0.930 . S
C259 C260 1.355 . S
C259 C261 1.415 . S
C260 C259 1.355 . S
C260 C262 1.419 1_565 S
C261 C256 1.425 1_565 S
C261 C258 1.409 . S
C261 C259 1.415 . S
C262 H252 0.930 . S
C262 C260 1.419 1_545 S
C262 C263 1.362 . S
C263 H253 0.930 . S
C263 C256 1.409 . S
C263 C262 1.362 . S
H264 C270 0.930 . S
H265 C273 0.930 . S
H266 C274 0.930 . S
H267 C275 0.930 . S
H268 C278 0.930 . S
H269 C279 0.930 . S
C270 H264 0.930 . S
C270 C271 1.355 . S
C270 C272 1.415 . S
C271 C270 1.355 . S
C271 C273 1.419 . S
C272 C270 1.415 . S
C272 C277 1.425 . S
C272 C279 1.409 . S
C273 H265 0.930 . S
C273 C271 1.419 . S
C273 C274 1.362 . S
C274 H266 0.930 . S
C274 C273 1.362 . S
C274 C277 1.409 . S
C275 H267 0.930 . S
C275 C276 1.355 . S
C275 C277 1.415 . S
C276 C275 1.355 . S
C276 C278 1.419 . S
C277 C272 1.425 . S
C277 C274 1.409 . S
C277 C275 1.415 . S
C278 H268 0.930 . S
C278 C276 1.419 . S
C278 C279 1.362 . S
C279 H269 0.930 . S
C279 C272 1.409 . S
C279 C278 1.362 . S
H280 C286 0.930 . S
H281 C289 0.930 . S
H282 C290 0.930 1_655 S
H283 C291 0.930 . S
H284 C294 0.930 . S
H285 C295 0.930 1_455 S
C286 H280 0.930 . S
C286 C287 1.355 . S
C286 C288 1.415 . S
C287 C286 1.355 . S
C287 C289 1.419 1_556 S
C288 C286 1.415 . S
C288 C293 1.425 1_456 S
C288 C295 1.409 1_455 S
C289 H281 0.930 . S
C289 C287 1.419 1_554 S
C289 C290 1.362 . S
C290 H282 0.930 1_455 S
C290 C289 1.362 . S
C290 C293 1.409 1_455 S
C291 H283 0.930 . S
C291 C292 1.355 1_554 S
C291 C293 1.415 . S
C292 C291 1.355 1_556 S
C292 C294 1.419 . S
C293 C288 1.425 1_654 S
C293 C290 1.409 1_655 S
C293 C291 1.415 . S
C294 H284 0.930 . S
C294 C292 1.419 . S
C294 C295 1.362 . S
C295 H285 0.930 1_655 S
C295 C288 1.409 1_655 S
C295 C294 1.362 . S
H296 C302 0.930 1_545 S
H297 C305 0.930 . S
H298 C306 0.930 . S
H299 C307 0.930 1_565 S
H300 C310 0.930 . S
H301 C311 0.930 . S
C302 H296 0.930 1_565 S
C302 C303 1.355 . S
C302 C304 1.415 1_565 S
C303 C302 1.355 . S
C303 C305 1.419 . S
C304 C302 1.415 1_545 S
C304 C309 1.425 1_545 S
C304 C311 1.409 . S
C305 H297 0.930 . S
C305 C303 1.419 . S
C305 C306 1.362 . S
C306 H298 0.930 . S
C306 C305 1.362 . S
C306 C309 1.409 . S
C307 H299 0.930 1_545 S
C307 C308 1.355 . S
C307 C309 1.415 1_545 S
C308 C307 1.355 . S
C308 C310 1.419 . S
C309 C304 1.425 1_565 S
C309 C306 1.409 . S
C309 C307 1.415 1_565 S
C310 H300 0.930 . S
C310 C308 1.419 . S
C310 C311 1.362 . S
C311 H301 0.930 . S
C311 C304 1.409 . S
C311 C310 1.362 . S
H312 C318 0.930 . S
H313 C321 0.930 . S
H314 C322 0.930 . S
H315 C323 0.930 . S
H316 C326 0.930 . S
H317 C327 0.930 . S
C318 H312 0.930 . S
C318 C319 1.355 . S
C318 C320 1.415 . S
C319 C318 1.355 . S
C319 C321 1.419 . S
C320 C318 1.415 . S
C320 C325 1.425 . S
C320 C327 1.409 . S
C321 H313 0.930 . S
C321 C319 1.419 . S
C321 C322 1.362 . S
C322 H314 0.930 . S
C322 C321 1.362 . S
C322 C325 1.409 . S
C323 H315 0.930 . S
C323 C324 1.355 . S
C323 C325 1.415 . S
C324 C323 1.355 . S
C324 C326 1.419 . S
C325 C320 1.425 . S
C325 C322 1.409 . S
C325 C323 1.415 . S
C326 H316 0.930 . S
C326 C324 1.419 . S
C326 C327 1.362 . S
C327 H317 0.930 . S
C327 C320 1.409 . S
C327 C326 1.362 . S
H328 C334 0.930 . S
H329 C337 0.930 . S
H330 C338 0.930 . S
H331 C339 0.930 1_655 S
H332 C342 0.930 . S
H333 C343 0.930 . S
C334 H328 0.930 . S
C334 C335 1.355 . S
C334 C336 1.415 1_655 S
C335 C334 1.355 . S
C335 C337 1.419 . S
C336 C334 1.415 1_455 S
C336 C341 1.425 1_455 S
C336 C343 1.409 . S
C337 H329 0.930 . S
C337 C335 1.419 . S
C337 C338 1.362 . S
C338 H330 0.930 . S
C338 C337 1.362 . S
C338 C341 1.409 . S
C339 H331 0.930 1_455 S
C339 C340 1.355 . S
C339 C341 1.415 1_455 S
C340 C339 1.355 . S
C340 C342 1.419 . S
C341 C336 1.425 1_655 S
C341 C338 1.409 . S
C341 C339 1.415 1_655 S
C342 H332 0.930 . S
C342 C340 1.419 . S
C342 C343 1.362 . S
C343 H333 0.930 . S
C343 C336 1.409 . S
C343 C342 1.362 . S
H344 C350 0.930 . S
H345 C353 0.930 . S
H346 C354 0.930 1_545 S
H347 C355 0.930 . S
H348 C358 0.930 . S
H349 C359 0.930 . S
C350 H344 0.930 . S
C350 C351 1.355 . S
C350 C352 1.415 . S
C351 C350 1.355 . S
C351 C353 1.419 . S
C352 C350 1.415 . S
C352 C357 1.425 1_565 S
C352 C359 1.409 . S
C353 H345 0.930 . S
C353 C351 1.419 . S
C353 C354 1.362 . S
C354 H346 0.930 1_565 S
C354 C353 1.362 . S
C354 C357 1.409 1_565 S
C355 H347 0.930 . S
C355 C356 1.355 . S
C355 C357 1.415 . S
C356 C355 1.355 . S
C356 C358 1.419 . S
C357 C352 1.425 1_545 S
C357 C354 1.409 1_545 S
C357 C355 1.415 . S
C358 H348 0.930 . S
C358 C356 1.419 . S
C358 C359 1.362 1_545 S
C359 H349 0.930 . S
C359 C352 1.409 . S
C359 C358 1.362 1_565 S
H360 C366 0.930 . S
H361 C369 0.930 . S
H362 C370 0.930 . S
H363 C371 0.930 . S
H364 C374 0.930 . S
H365 C375 0.930 . S
C366 H360 0.930 . S
C366 C367 1.355 . S
C366 C368 1.415 . S
C367 C366 1.355 . S
C367 C369 1.419 . S
C368 C366 1.415 . S
C368 C373 1.425 . S
C368 C375 1.409 . S
C369 H361 0.930 . S
C369 C367 1.419 . S
C369 C370 1.362 . S
C370 H362 0.930 . S
C370 C369 1.362 . S
C370 C373 1.409 . S
C371 H363 0.930 . S
C371 C372 1.355 . S
C371 C373 1.415 . S
C372 C371 1.355 . S
C372 C374 1.419 . S
C373 C368 1.425 . S
C373 C370 1.409 . S
C373 C371 1.415 . S
C374 H364 0.930 . S
C374 C372 1.419 . S
C374 C375 1.362 . S
C375 H365 0.930 . S
C375 C368 1.409 . S
C375 C374 1.362 . S
H376 C382 0.930 . S
H377 C385 0.930 . S
H378 C386 0.930 . S
H379 C387 0.930 . S
H380 C390 0.930 . S
H381 C391 0.930 . S
C382 H376 0.930 . S
C382 C383 1.355 . S
C382 C384 1.415 . S
C383 C382 1.355 . S
C383 C385 1.419 . S
C384 C382 1.415 . S
C384 C389 1.425 1_455 S
C384 C391 1.409 . S
C385 H377 0.930 . S
C385 C383 1.419 . S
C385 C386 1.362 1_455 S
C386 H378 0.930 . S
C386 C385 1.362 1_655 S
C386 C389 1.409 . S
C387 H379 0.930 . S
C387 C388 1.355 . S
C387 C389 1.415 . S
C388 C387 1.355 . S
C388 C390 1.419 . S
C389 C384 1.425 1_655 S
C389 C386 1.409 . S
C389 C387 1.415 . S
C390 H380 0.930 . S
C390 C388 1.419 . S
C390 C391 1.362 1_655 S
C391 H381 0.930 . S
C391 C384 1.409 . S
C391 C390 1.362 1_455 S
H392 C398 0.930 . S
H393 C401 0.930 . S
H394 C402 0.930 . S
H395 C403 0.930 . S
H396 C406 0.930 . S
H397 C407 0.930 . S
C398 H392 0.930 . S
C398 C399 1.355 . S
C398 C400 1.415 . S
C399 C398 1.355 . S
C399 C401 1.419 . S
C400 C398 1.415 . S
C400 C405 1.425 1_545 S
C400 C407 1.409 . S
C401 H393 0.930 . S
C401 C399 1.419 . S
C401 C402 1.362 1_545 S
C402 H394 0.930 . S
C402 C401 1.362 1_565 S
C402 C405 1.409 . S
C403 H395 0.930 . S
C403 C404 1.355 . S
C403 C405 1.415 . S
C404 C403 1.355 . S
C404 C406 1.419 . S
C405 C400 1.425 1_565 S
C405 C402 1.409 . S
C405 C403 1.415 . S
C406 H396 0.930 . S
C406 C404 1.419 . S
C406 C407 1.362 1_565 S
C407 H397 0.930 . S
C407 C400 1.409 . S
C407 C406 1.362 1_545 S
C127 C86 1.373 . S
C132 C8 1.371 . S
C143 C106 1.362 . S
C148 C28 1.278 . S
C159 C6 1.384 . S
C164 C48 1.279 . S
C175 C26 1.386 . S
C180 C68 1.370 . S
C191 C46 1.386 . S
C196 C88 1.280 . S
C207 C66 1.346 . S
C212 C108 1.334 . S
C223 C1 0.886 . S
C228 C61 0.893 . S
C239 C81 1.034 . S
C244 C21 1.027 . S
C255 C101 1.023 . S
C260 C41 1.010 . S
C271 C49 1.001 . S
C276 C109 0.998 . S
C287 C9 0.962 . S
C292 C69 0.941 . S
C303 C89 0.924 . S
C308 C29 0.940 . S
C319 C116 1.538 . S
C324 C19 1.540 . S
C335 C39 1.551 . S
C340 C16 1.563 . S
C351 C59 1.488 . S
C356 C36 1.535 . S
C367 C56 1.544 . S
C372 C79 1.494 . S
C383 C99 1.507 . S
C388 C76 1.520 . S
C399 C119 1.488 . S
C404 C96 1.525 . S
