# Generated by pormake.
# Topology whc, (6)-cn, num edge types: 1
# Building blocks:
#     Node 0, Type 0, BuildingBlock: IZENUY_clean_sbu_0, # of connection points: 6
#     Node 1, Type 0, BuildingBlock: IZENUY_clean_sbu_0, # of connection points: 6
#     Node 2, Type 0, BuildingBlock: IZENUY_clean_sbu_0, # of connection points: 6
#     Node 3, Type 0, BuildingBlock: IZENUY_clean_sbu_0, # of connection points: 6
#     Node 4, Type 0, BuildingBlock: IZENUY_clean_sbu_0, # of connection points: 6
#     Node 5, Type 0, BuildingBlock: IZENUY_clean_sbu_0, # of connection points: 6
#     Node 6, Type 0, BuildingBlock: IZENUY_clean_sbu_0, # of connection points: 6
#     Node 7, Type 0, BuildingBlock: IZENUY_clean_sbu_0, # of connection points: 6
#     Edge 8, Type (0, 0), BuildingBlock: OJICUG_clean_linker_0, # of connection points: 2
#     Edge 9, Type (0, 0), BuildingBlock: OJICUG_clean_linker_0, # of connection points: 2
#     Edge 10, Type (0, 0), BuildingBlock: OJICUG_clean_linker_0, # of connection points: 2
#     Edge 11, Type (0, 0), BuildingBlock: OJICUG_clean_linker_0, # of connection points: 2
#     Edge 12, Type (0, 0), BuildingBlock: OJICUG_clean_linker_0, # of connection points: 2
#     Edge 13, Type (0, 0), BuildingBlock: OJICUG_clean_linker_0, # of connection points: 2
#     Edge 14, Type (0, 0), BuildingBlock: OJICUG_clean_linker_0, # of connection points: 2
#     Edge 15, Type (0, 0), BuildingBlock: OJICUG_clean_linker_0, # of connection points: 2
#     Edge 16, Type (0, 0), BuildingBlock: OJICUG_clean_linker_0, # of connection points: 2
#     Edge 17, Type (0, 0), BuildingBlock: OJICUG_clean_linker_0, # of connection points: 2
#     Edge 18, Type (0, 0), BuildingBlock: OJICUG_clean_linker_0, # of connection points: 2
#     Edge 19, Type (0, 0), BuildingBlock: OJICUG_clean_linker_0, # of connection points: 2
#     Edge 20, Type (0, 0), BuildingBlock: OJICUG_clean_linker_0, # of connection points: 2
#     Edge 21, Type (0, 0), BuildingBlock: OJICUG_clean_linker_0, # of connection points: 2
#     Edge 22, Type (0, 0), BuildingBlock: OJICUG_clean_linker_0, # of connection points: 2
#     Edge 23, Type (0, 0), BuildingBlock: OJICUG_clean_linker_0, # of connection points: 2
#     Edge 24, Type (0, 0), BuildingBlock: OJICUG_clean_linker_0, # of connection points: 2
#     Edge 25, Type (0, 0), BuildingBlock: OJICUG_clean_linker_0, # of connection points: 2
#     Edge 26, Type (0, 0), BuildingBlock: OJICUG_clean_linker_0, # of connection points: 2
#     Edge 27, Type (0, 0), BuildingBlock: OJICUG_clean_linker_0, # of connection points: 2
#     Edge 28, Type (0, 0), BuildingBlock: OJICUG_clean_linker_0, # of connection points: 2
#     Edge 29, Type (0, 0), BuildingBlock: OJICUG_clean_linker_0, # of connection points: 2
#     Edge 30, Type (0, 0), BuildingBlock: OJICUG_clean_linker_0, # of connection points: 2
#     Edge 31, Type (0, 0), BuildingBlock: OJICUG_clean_linker_0, # of connection points: 2
# Relax obj value: 0.364
# Max RMSD: 0.283
# Mean RMSD: 0.283
data_MOF--net-whc--node1-IZENUY_clean_sbu_0--edge1-OJICUG_clean_linker_0
_symmetry_space_group_name_H-M    P1
_symmetry_Int_Tables_number       1
_symmetry_cell_setting            triclinic
loop_
_symmetry_equiv_pos_as_xyz
'x, y, z'
_cell_length_a     25.890587
_cell_length_b     25.8907
_cell_length_c     21.470776
_cell_angle_alpha  90.020843
_cell_angle_beta   89.977831
_cell_angle_gamma 89.817991
loop_
_atom_site_label
_atom_site_type_symbol
_atom_site_fract_x
_atom_site_fract_y
_atom_site_fract_z
_atom_type_partial_charge
Fe0 Fe 0.52316 0.19443 0.12156 0.0
Fe1 Fe 0.40774 0.19766 0.08825 0.0
O2 O 0.46331 0.22691 0.12138 0.0
Fe3 Fe 0.45832 0.28896 0.15539 0.0
O4 O 0.52588 0.30884 0.14097 0.0
O5 O 0.55549 0.24612 0.08296 0.0
O6 O 0.51433 0.1677 0.04164 0.0
C7 C 0.48128 0.17934 0.99972 0.0
C8 C 0.51009 0.23254 0.24335 0.0
O9 O 0.43719 0.1961 0.01335 0.0
C10 C 0.36357 0.24217 0.18927 0.0
O11 O 0.49638 0.1401 0.16112 0.0
O12 O 0.42878 0.12926 0.10252 0.0
O13 O 0.47325 0.26271 0.23092 0.0
O14 O 0.54048 0.21691 0.20059 0.0
C15 C 0.40232 0.30272 0.05044 0.0
O16 O 0.37307 0.19935 0.1628 0.0
O17 O 0.39024 0.28178 0.1769 0.0
C18 C 0.46379 0.11083 0.13769 0.0
O19 O 0.37959 0.26035 0.06346 0.0
O20 O 0.44177 0.31665 0.08068 0.0
C21 C 0.55837 0.29154 0.10213 0.0
Fe22 Fe 0.19678 0.61232 0.93422 0.0
Fe23 Fe 0.19483 0.49686 0.90086 0.0
O24 O 0.22664 0.55686 0.90112 0.0
Fe25 Fe 0.2887 0.56208 0.86725 0.0
O26 O 0.31607 0.57862 0.94205 0.0
O27 O 0.25919 0.64065 0.95927 0.0
O28 O 0.19534 0.58288 1.0091 0.0
C29 C 0.17912 0.53869 0.0227 0.0
C30 C 0.24117 0.65675 0.83342 0.0
O31 O 0.16796 0.50554 0.98077 0.0
C32 C 0.23287 0.51021 0.77914 0.0
O33 O 0.12856 0.59099 0.91974 0.0
O34 O 0.14021 0.52334 0.86128 0.0
O35 O 0.28096 0.63016 0.84589 0.0
O36 O 0.19833 0.64708 0.85968 0.0
C37 C 0.2923 0.46208 0.92036 0.0
O38 O 0.21757 0.4797 0.82183 0.0
O39 O 0.26269 0.54714 0.79165 0.0
C40 C 0.11052 0.55571 0.88477 0.0
O41 O 0.24685 0.46478 0.93951 0.0
O42 O 0.30925 0.49458 0.88151 0.0
C43 C 0.30173 0.61799 0.97236 0.0
Fe44 Fe 0.61122 0.82154 0.08879 0.0
Fe45 Fe 0.56086 0.73009 0.15583 0.0
O46 O 0.55573 0.79215 0.12196 0.0
Fe47 Fe 0.49584 0.82455 0.12234 0.0
O48 O 0.50457 0.85131 0.04244 0.0
O49 O 0.58173 0.82301 0.01394 0.0
O50 O 0.63955 0.75892 0.06393 0.0
C51 C 0.61693 0.71651 0.05086 0.0
C52 C 0.555 0.90825 0.13834 0.0
O53 O 0.57748 0.7025 0.08105 0.0
C54 C 0.50903 0.78634 0.24402 0.0
O55 O 0.6459 0.81994 0.1633 0.0
O56 O 0.62892 0.73744 0.17732 0.0
O57 O 0.52262 0.87886 0.16197 0.0
O58 O 0.59001 0.8899 0.10308 0.0
C59 C 0.46077 0.72739 0.10272 0.0
O60 O 0.54587 0.75621 0.23144 0.0
O61 O 0.4786 0.802 0.20136 0.0
C62 C 0.65549 0.77712 0.18972 0.0
O63 O 0.49334 0.71006 0.1414 0.0
O64 O 0.46351 0.77286 0.08373 0.0
C65 C 0.5376 0.8397 1.00043 0.0
Fe66 Fe 0.82461 0.52224 0.90088 0.0
Fe67 Fe 0.73061 0.45717 0.86741 0.0
O68 O 0.79272 0.46228 0.9011 0.0
Fe69 Fe 0.82256 0.40676 0.93399 0.0
O70 O 0.82408 0.43614 1.00895 0.0
O71 O 0.85157 0.51345 0.98068 0.0
O72 O 0.7727 0.55437 0.93974 0.0
C73 C 0.72721 0.55713 0.92077 0.0
C74 C 0.90883 0.46334 0.8845 0.0
O75 O 0.71015 0.52467 0.88192 0.0
C76 C 0.77803 0.3625 0.83317 0.0
O77 O 0.80178 0.53952 0.82195 0.0
O78 O 0.75652 0.47218 0.79177 0.0
O79 O 0.89079 0.42806 0.91945 0.0
O80 O 0.87913 0.4957 0.86106 0.0
C81 C 0.71765 0.4011 0.97236 0.0
O82 O 0.73827 0.38911 0.84583 0.0
O83 O 0.8209 0.37209 0.85936 0.0
C84 C 0.78635 0.50908 0.77925 0.0
O85 O 0.70333 0.44056 0.94224 0.0
O86 O 0.76016 0.37844 0.95909 0.0
C87 C 0.84035 0.4803 0.02259 0.0
Fe88 Fe 0.56196 0.28861 0.65522 0.0
Fe89 Fe 0.61242 0.19671 0.58842 0.0
O90 O 0.55688 0.22652 0.62141 0.0
Fe91 Fe 0.49692 0.19462 0.62159 0.0
O92 O 0.46482 0.24656 0.58283 0.0
O93 O 0.49445 0.30904 0.64084 0.0
O94 O 0.57854 0.31595 0.58042 0.0
C95 C 0.61797 0.30165 0.55019 0.0
C96 C 0.51008 0.23276 0.74329 0.0
O97 O 0.64068 0.25915 0.56335 0.0
C98 C 0.55588 0.11041 0.6379 0.0
O99 O 0.63004 0.28099 0.67669 0.0
O100 O 0.6471 0.19838 0.66301 0.0
O101 O 0.47963 0.2174 0.70057 0.0
O102 O 0.54698 0.26261 0.73081 0.0
C103 C 0.53889 0.1789 0.49984 0.0
O104 O 0.59117 0.12847 0.60295 0.0
O105 O 0.52343 0.14007 0.66129 0.0
C106 C 0.65668 0.24125 0.68924 0.0
O107 O 0.58305 0.19517 0.51349 0.0
O108 O 0.50573 0.16769 0.54175 0.0
C109 C 0.46201 0.29201 0.60194 0.0
Fe110 Fe 0.19756 0.40792 0.43429 0.0
Fe111 Fe 0.28902 0.45837 0.36733 0.0
O112 O 0.22693 0.46345 0.40119 0.0
Fe113 Fe 0.1945 0.52333 0.40091 0.0
O114 O 0.16769 0.51454 0.48081 0.0
O115 O 0.196 0.43738 0.50918 0.0
O116 O 0.26018 0.37964 0.45912 0.0
C117 C 0.30256 0.40228 0.47223 0.0
C118 C 0.11085 0.4641 0.38476 0.0
O119 O 0.31656 0.44176 0.44209 0.0
C120 C 0.23279 0.51019 0.27921 0.0
O121 O 0.19924 0.37328 0.35972 0.0
O122 O 0.28174 0.39031 0.34576 0.0
O123 O 0.14022 0.49654 0.36125 0.0
O124 O 0.1292 0.42908 0.41999 0.0
C125 C 0.29163 0.55845 0.42057 0.0
O126 O 0.26294 0.47336 0.29174 0.0
O127 O 0.21709 0.5406 0.32191 0.0
C128 C 0.24209 0.36372 0.3333 0.0
O129 O 0.30899 0.5259 0.38183 0.0
O130 O 0.24616 0.55565 0.43958 0.0
C131 C 0.1793 0.4815 0.52276 0.0
Fe132 Fe 0.40684 0.8225 0.58903 0.0
Fe133 Fe 0.5223 0.82442 0.62233 0.0
O134 O 0.4623 0.7926 0.62205 0.0
Fe135 Fe 0.45706 0.73053 0.6558 0.0
O136 O 0.44049 0.70321 0.58097 0.0
O137 O 0.37846 0.76011 0.56395 0.0
O138 O 0.4363 0.82392 0.51413 0.0
C139 C 0.48049 0.84014 0.50053 0.0
C140 C 0.36243 0.77811 0.68983 0.0
O141 O 0.51362 0.85133 0.54247 0.0
C142 C 0.50894 0.78627 0.74398 0.0
O143 O 0.42822 0.89071 0.60352 0.0
O144 O 0.49577 0.879 0.66204 0.0
O145 O 0.38899 0.7383 0.67726 0.0
O146 O 0.3721 0.82095 0.66361 0.0
C147 C 0.55707 0.72696 0.60259 0.0
O148 O 0.53945 0.80163 0.70131 0.0
O149 O 0.47202 0.75647 0.73143 0.0
C150 C 0.4635 0.90874 0.6385 0.0
O151 O 0.5544 0.77244 0.58358 0.0
O152 O 0.52454 0.70996 0.64141 0.0
C153 C 0.4011 0.71757 0.55076 0.0
Fe154 Fe 0.82143 0.6114 0.43435 0.0
Fe155 Fe 0.73013 0.56092 0.36713 0.0
O156 O 0.79216 0.55587 0.40113 0.0
Fe157 Fe 0.8246 0.496 0.40085 0.0
O158 O 0.85128 0.50478 0.48079 0.0
O159 O 0.82291 0.58192 0.5092 0.0
O160 O 0.75875 0.63961 0.45916 0.0
C161 C 0.71636 0.61691 0.47215 0.0
C162 C 0.90826 0.55529 0.38486 0.0
O163 O 0.70242 0.57748 0.44186 0.0
C164 C 0.78656 0.50913 0.27909 0.0
O165 O 0.81984 0.6461 0.35984 0.0
O166 O 0.73739 0.629 0.3457 0.0
O167 O 0.87896 0.52278 0.36132 0.0
O168 O 0.88982 0.59031 0.42008 0.0
C169 C 0.72745 0.46085 0.42026 0.0
O170 O 0.75641 0.54598 0.29158 0.0
O171 O 0.80215 0.47872 0.32181 0.0
C172 C 0.77703 0.65564 0.33338 0.0
O173 O 0.71018 0.49338 0.38148 0.0
O174 O 0.77287 0.46367 0.4394 0.0
C175 C 0.83964 0.53782 0.52275 0.0
C176 C 0.28394 0.27812 0.32596 0.0
C177 C 0.25158 0.3155 0.29842 0.0
H178 H 0.34483 0.22291 0.31152 0.0
C179 C 0.24643 0.31593 0.23343 0.0
H180 H 0.28962 0.27797 0.37598 0.0
C181 C 0.27804 0.2842 0.19653 0.0
C182 C 0.31532 0.25173 0.22408 0.0
H183 H 0.22294 0.3452 0.21099 0.0
H184 H 0.27796 0.28996 0.14652 0.0
C185 C 0.31564 0.24649 0.28905 0.0
C186 C 0.28279 0.74227 0.8264 0.0
C187 C 0.25048 0.70508 0.79874 0.0
H188 H 0.3436 0.79723 0.81219 0.0
C189 C 0.24535 0.70485 0.73374 0.0
H190 H 0.28849 0.74227 0.87642 0.0
C191 C 0.27689 0.73655 0.69696 0.0
C192 C 0.31413 0.76881 0.72461 0.0
H193 H 0.22193 0.67572 0.71117 0.0
H194 H 0.27681 0.7309 0.64693 0.0
C195 C 0.31444 0.77386 0.78961 0.0
C196 C 0.77276 0.70361 0.2337 0.0
C197 C 0.76753 0.70393 0.29868 0.0
H198 H 0.74128 0.72963 0.14684 0.0
C199 C 0.73508 0.74122 0.32631 0.0
H200 H 0.79633 0.67441 0.2112 0.0
C201 C 0.70335 0.77283 0.28947 0.0
C202 C 0.70375 0.76767 0.22448 0.0
H203 H 0.72935 0.7413 0.37632 0.0
H204 H 0.67408 0.79632 0.31198 0.0
C205 C 0.74113 0.73533 0.19686 0.0
C206 C 0.7737 0.31465 0.7333 0.0
C207 C 0.76862 0.31426 0.79831 0.0
H208 H 0.7422 0.28879 0.64643 0.0
C209 C 0.73633 0.27701 0.82586 0.0
H210 H 0.79711 0.34382 0.71081 0.0
C211 C 0.70466 0.24549 0.789 0.0
C212 C 0.70495 0.25067 0.724 0.0
H213 H 0.73066 0.27687 0.87589 0.0
H214 H 0.67554 0.22203 0.81151 0.0
C215 C 0.74215 0.28303 0.69643 0.0
C216 C 0.54458 0.22207 0.85174 0.0
C217 C 0.50447 0.21411 0.80828 0.0
H218 H 0.56971 0.21492 0.94662 0.0
C219 C 0.46079 0.18622 0.82703 0.0
H220 H 0.57937 0.24246 0.83856 0.0
C221 C 0.45574 0.16998 0.88883 0.0
C222 C 0.49455 0.18052 0.93298 0.0
H223 H 0.42972 0.17851 0.7946 0.0
H224 H 0.4201 0.15156 0.90304 0.0
C225 C 0.53978 0.20521 0.91339 0.0
C226 C 0.20579 0.48039 0.109 0.0
C227 C 0.18049 0.52544 0.08945 0.0
H228 H 0.24355 0.44104 0.18379 0.0
C229 C 0.16943 0.56417 0.13364 0.0
H230 H 0.21592 0.45055 0.07573 0.0
C231 C 0.18571 0.55921 0.19546 0.0
C232 C 0.21416 0.51572 0.21418 0.0
H233 H 0.15054 0.59968 0.11947 0.0
H234 H 0.17755 0.59021 0.22792 0.0
C235 C 0.22269 0.47569 0.17066 0.0
C236 C 0.56304 0.84925 0.88953 0.0
C237 C 0.52429 0.83852 0.93372 0.0
H238 H 0.58907 0.84086 0.79526 0.0
C239 C 0.47917 0.81362 0.91417 0.0
H240 H 0.5986 0.86782 0.90372 0.0
C241 C 0.47443 0.79675 0.8525 0.0
C242 C 0.51449 0.80491 0.809 0.0
H243 H 0.44931 0.80376 0.94744 0.0
H244 H 0.43973 0.7762 0.83935 0.0
C245 C 0.55804 0.83299 0.82772 0.0
C246 C 0.79702 0.54359 0.17059 0.0
C247 C 0.80527 0.50351 0.21408 0.0
H248 H 0.80402 0.56869 0.07569 0.0
C249 C 0.83348 0.45985 0.19534 0.0
H250 H 0.77637 0.57836 0.18376 0.0
C251 C 0.84977 0.45478 0.13352 0.0
C252 C 0.83897 0.49356 0.08936 0.0
H253 H 0.84141 0.4288 0.22778 0.0
H254 H 0.86846 0.41915 0.11934 0.0
C255 C 0.81394 0.53878 0.10893 0.0
C256 C 0.47562 0.22211 0.35186 0.0
C257 C 0.51572 0.21387 0.30835 0.0
H258 H 0.4505 0.21513 0.44678 0.0
C259 C 0.5594 0.18572 0.32707 0.0
H260 H 0.44083 0.24271 0.33872 0.0
C261 C 0.56447 0.16947 0.38889 0.0
C262 C 0.52566 0.18025 0.43308 0.0
H263 H 0.59047 0.1778 0.29461 0.0
H264 H 0.60011 0.15082 0.40306 0.0
C265 C 0.48043 0.20523 0.41352 0.0
C266 C 0.16987 0.45603 0.63365 0.0
C267 C 0.1805 0.49481 0.58949 0.0
H268 H 0.17838 0.43001 0.72788 0.0
C269 C 0.20531 0.53997 0.60905 0.0
H270 H 0.15135 0.42044 0.61947 0.0
C271 C 0.22222 0.54474 0.67069 0.0
C272 C 0.21418 0.50465 0.71416 0.0
H273 H 0.21509 0.56987 0.57579 0.0
H274 H 0.24271 0.57948 0.68384 0.0
C275 C 0.18616 0.46105 0.69544 0.0
C276 C 0.46003 0.8335 0.3278 0.0
C277 C 0.5035 0.80501 0.30905 0.0
H278 H 0.41955 0.86873 0.40381 0.0
C279 C 0.54352 0.79649 0.35255 0.0
H280 H 0.42903 0.84165 0.29536 0.0
C281 C 0.53882 0.81343 0.41421 0.0
C282 C 0.49377 0.83876 0.43378 0.0
H283 H 0.57817 0.77562 0.33939 0.0
H284 H 0.56865 0.8033 0.44746 0.0
C285 C 0.45506 0.84982 0.38962 0.0
C286 C 0.79685 0.47459 0.67073 0.0
C287 C 0.80494 0.51467 0.71422 0.0
H288 H 0.80387 0.44948 0.5758 0.0
C289 C 0.83292 0.55829 0.69547 0.0
H290 H 0.77638 0.43985 0.6839 0.0
C291 C 0.84913 0.56332 0.63365 0.0
C292 C 0.83847 0.52454 0.58948 0.0
H293 H 0.84074 0.58933 0.72793 0.0
H294 H 0.86762 0.59892 0.61945 0.0
C295 C 0.81368 0.47937 0.60905 0.0
C296 C 0.29943 0.37183 0.95795 0.0
C297 C 0.32396 0.41858 0.94297 0.0
H298 H 0.305 0.29844 1.00272 0.0
C299 C 0.37634 0.42485 0.95753 0.0
H300 H 0.25905 0.3659 0.94682 0.0
C301 C 0.40269 0.3862 0.99053 0.0
C302 C 0.37711 0.34059 1.00866 0.0
H303 H 0.39595 0.46066 0.94678 0.0
H304 H 0.44251 0.39281 1.00368 0.0
C305 C 0.32577 0.33313 0.99001 0.0
C306 C 0.38478 0.61727 0.03305 0.0
C307 C 0.3394 0.64318 0.01423 0.0
H308 H 0.45899 0.62355 0.07737 0.0
C309 C 0.33207 0.69476 0.03219 0.0
H310 H 0.39128 0.57726 0.02044 0.0
C311 C 0.37071 0.72096 0.06427 0.0
C312 C 0.41726 0.69605 0.07995 0.0
H313 H 0.29755 0.71578 0.0189 0.0
H314 H 0.36489 0.76149 0.07487 0.0
C315 C 0.42335 0.64348 0.06606 0.0
C316 C 0.69384 0.68593 0.99112 0.0
C317 C 0.64231 0.67865 1.00916 0.0
H318 H 0.76073 0.65302 0.94843 0.0
C319 C 0.61667 0.63322 0.99052 0.0
H320 H 0.71465 0.72048 1.00427 0.0
C321 C 0.6431 0.59457 0.95757 0.0
C322 C 0.69562 0.60064 0.94357 0.0
H323 H 0.57671 0.62676 1.00321 0.0
H324 H 0.62339 0.5589 0.94636 0.0
C325 C 0.72025 0.64722 0.95911 0.0
C326 C 0.63472 0.40178 0.03333 0.0
C327 C 0.67996 0.3758 0.01409 0.0
H328 H 0.56055 0.39552 0.07783 0.0
C329 C 0.68709 0.32406 0.03145 0.0
H330 H 0.62839 0.44191 0.02118 0.0
C331 C 0.64837 0.29781 0.06334 0.0
C332 C 0.60195 0.32282 0.07945 0.0
H333 H 0.72149 0.30298 0.0178 0.0
H334 H 0.65403 0.25718 0.07347 0.0
C335 C 0.59608 0.37551 0.06617 0.0
C336 C 0.61727 0.3847 0.4895 0.0
C337 C 0.6432 0.33935 0.5084 0.0
H338 H 0.62356 0.45893 0.44523 0.0
C339 C 0.69484 0.33209 0.49061 0.0
H340 H 0.57722 0.39114 0.50198 0.0
C341 C 0.72106 0.37078 0.45865 0.0
C342 C 0.69612 0.4173 0.4429 0.0
H343 H 0.71587 0.2976 0.50397 0.0
H344 H 0.76163 0.36502 0.44819 0.0
C345 C 0.64351 0.42332 0.4566 0.0
C346 C 0.42451 0.37614 0.56539 0.0
C347 C 0.41847 0.32361 0.57928 0.0
H348 H 0.39227 0.44254 0.51991 0.0
C349 C 0.3719 0.29896 0.56374 0.0
H350 H 0.46016 0.39585 0.5766 0.0
C351 C 0.33318 0.32537 0.53183 0.0
C352 C 0.34042 0.37691 0.51388 0.0
H353 H 0.36613 0.25846 0.57434 0.0
H354 H 0.29864 0.30454 0.51867 0.0
C355 C 0.38584 0.40257 0.53253 0.0
C356 C 0.4018 0.63461 0.48983 0.0
C357 C 0.37584 0.6799 0.50895 0.0
H358 H 0.39555 0.56045 0.44532 0.0
C359 C 0.32417 0.68712 0.49137 0.0
H360 H 0.44188 0.62821 0.50216 0.0
C361 C 0.29795 0.64845 0.45936 0.0
C362 C 0.32292 0.60198 0.44336 0.0
H363 H 0.30311 0.72156 0.50492 0.0
H364 H 0.25736 0.65418 0.44904 0.0
C365 C 0.37557 0.59601 0.45689 0.0
C366 C 0.63289 0.61657 0.53215 0.0
C367 C 0.67849 0.64214 0.51398 0.0
H368 H 0.55845 0.62331 0.57603 0.0
C369 C 0.68596 0.69348 0.53266 0.0
H370 H 0.62627 0.57674 0.51897 0.0
C371 C 0.64729 0.71982 0.56481 0.0
C372 C 0.60055 0.6953 0.57985 0.0
H373 H 0.72066 0.71423 0.51991 0.0
H374 H 0.65324 0.7602 0.57596 0.0
C375 C 0.59426 0.64292 0.56523 0.0
C376 C 0.4945 0.03247 0.19315 0.0
C377 C 0.47961 0.05585 0.13685 0.0
H378 H 0.53172 0.96818 0.2376 0.0
C379 C 0.49507 0.03252 0.08058 0.0
H380 H 0.48495 0.05057 0.23722 0.0
C381 C 0.52446 0.98667 0.08083 0.0
C382 C 0.53888 0.96317 0.13735 0.0
H383 H 0.48616 0.05081 0.03648 0.0
H384 H 0.53421 0.96853 0.03686 0.0
C385 C 0.52295 0.98639 0.19339 0.0
C386 C 0.98689 0.49462 0.94191 0.0
C387 C 0.96365 0.47962 0.88548 0.0
H388 H 0.0505 0.53362 0.98607 0.0
C389 C 0.98681 0.4953 0.82936 0.0
H390 H 0.96879 0.4851 0.98592 0.0
C391 C 0.03256 0.52403 0.82946 0.0
C392 C 0.05568 0.5395 0.88567 0.0
H393 H 0.96879 0.48613 0.78519 0.0
H394 H 0.05062 0.53336 0.78534 0.0
C395 C 0.03241 0.52429 0.942 0.0
C396 C 0.49456 0.98685 0.58099 0.0
C397 C 0.47986 0.96354 0.63748 0.0
H398 H 0.53333 0.05052 0.53667 0.0
C399 C 0.49584 0.98661 0.69352 0.0
H400 H 0.48481 0.96881 0.53701 0.0
C401 C 0.52457 0.03236 0.69331 0.0
C402 C 0.53975 0.05555 0.63703 0.0
H403 H 0.48688 0.96854 0.73773 0.0
H404 H 0.53413 0.05036 0.73739 0.0
C405 C 0.52424 0.03236 0.58077 0.0
C406 C 0.98651 0.52421 0.44216 0.0
C407 C 0.96322 0.53937 0.38579 0.0
H408 H 0.05049 0.48531 0.48612 0.0
C409 C 0.98663 0.52418 0.32958 0.0
H410 H 0.96821 0.53335 0.4862 0.0
C411 C 0.03271 0.49574 0.32953 0.0
C412 C 0.0559 0.48011 0.38567 0.0
H413 H 0.96856 0.53351 0.28546 0.0
H414 H 0.05095 0.48675 0.28537 0.0
C415 C 0.03237 0.49482 0.44209 0.0
loop_
_geom_bond_atom_site_label_1
_geom_bond_atom_site_label_2
_geom_bond_distance
_geom_bond_site_symmetry_2
_ccdc_geom_bond_type
Fe0 O2 1.918 . S
Fe0 O5 1.997 . S
Fe0 O6 2.002 1_554 S
Fe0 O11 1.976 . S
Fe0 O14 1.996 . S
Fe1 O2 1.918 . S
Fe1 O9 1.997 1_554 S
Fe1 O12 1.996 . S
Fe1 O16 1.976 . S
Fe1 O19 2.002 . S
O2 Fe0 1.918 . S
O2 Fe1 1.918 . S
O2 Fe3 1.918 . S
Fe3 O2 1.918 . S
Fe3 O4 2.002 . S
Fe3 O13 1.976 . S
Fe3 O17 1.996 . S
Fe3 O20 1.997 . S
O4 Fe3 2.002 . S
O4 C21 1.295 . S
O5 Fe0 1.997 . S
O5 C21 1.235 . S
O6 Fe0 2.002 1_556 S
O6 C7 1.295 . S
C7 O6 1.295 . S
C7 O9 1.235 . S
C8 O13 1.287 . S
C8 O14 1.255 . S
O9 Fe1 1.997 1_556 S
O9 C7 1.235 . S
C10 O16 1.287 . S
C10 O17 1.255 . S
O11 Fe0 1.976 . S
O11 C18 1.287 . S
O12 Fe1 1.996 . S
O12 C18 1.255 . S
O13 Fe3 1.976 . S
O13 C8 1.287 . S
O14 Fe0 1.996 . S
O14 C8 1.255 . S
C15 O19 1.295 . S
C15 O20 1.235 . S
O16 Fe1 1.976 . S
O16 C10 1.287 . S
O17 Fe3 1.996 . S
O17 C10 1.255 . S
C18 O11 1.287 . S
C18 O12 1.255 . S
O19 Fe1 2.002 . S
O19 C15 1.295 . S
O20 Fe3 1.997 . S
O20 C15 1.235 . S
C21 O4 1.295 . S
C21 O5 1.235 . S
Fe22 O24 1.918 . S
Fe22 O27 1.997 . S
Fe22 O28 2.002 1_556 S
Fe22 O33 1.976 . S
Fe22 O36 1.996 . S
Fe23 O24 1.918 . S
Fe23 O31 1.997 1_556 S
Fe23 O34 1.996 . S
Fe23 O38 1.976 . S
Fe23 O41 2.002 . S
O24 Fe22 1.918 . S
O24 Fe23 1.918 . S
O24 Fe25 1.918 . S
Fe25 O24 1.918 . S
Fe25 O26 2.002 . S
Fe25 O35 1.976 . S
Fe25 O39 1.996 . S
Fe25 O42 1.997 . S
O26 Fe25 2.002 . S
O26 C43 1.295 . S
O27 Fe22 1.997 . S
O27 C43 1.235 . S
O28 Fe22 2.002 1_554 S
O28 C29 1.295 . S
C29 O28 1.295 . S
C29 O31 1.235 . S
C30 O35 1.287 . S
C30 O36 1.255 . S
O31 Fe23 1.997 1_554 S
O31 C29 1.235 . S
C32 O38 1.287 . S
C32 O39 1.255 . S
O33 Fe22 1.976 . S
O33 C40 1.287 . S
O34 Fe23 1.996 . S
O34 C40 1.255 . S
O35 Fe25 1.976 . S
O35 C30 1.287 . S
O36 Fe22 1.996 . S
O36 C30 1.255 . S
C37 O41 1.295 . S
C37 O42 1.235 . S
O38 Fe23 1.976 . S
O38 C32 1.287 . S
O39 Fe25 1.996 . S
O39 C32 1.255 . S
C40 O33 1.287 . S
C40 O34 1.255 . S
O41 Fe23 2.002 . S
O41 C37 1.295 . S
O42 Fe25 1.997 . S
O42 C37 1.235 . S
C43 O26 1.295 . S
C43 O27 1.235 . S
Fe44 O46 1.918 . S
Fe44 O49 1.997 1_554 S
Fe44 O50 2.002 . S
Fe44 O55 1.976 . S
Fe44 O58 1.996 . S
Fe45 O46 1.918 . S
Fe45 O53 1.997 . S
Fe45 O56 1.996 . S
Fe45 O60 1.976 . S
Fe45 O63 2.002 . S
O46 Fe44 1.918 . S
O46 Fe45 1.918 . S
O46 Fe47 1.918 . S
Fe47 O46 1.918 . S
Fe47 O48 2.002 1_554 S
Fe47 O57 1.976 . S
Fe47 O61 1.996 . S
Fe47 O64 1.997 . S
O48 Fe47 2.002 1_556 S
O48 C65 1.295 . S
O49 Fe44 1.997 1_556 S
O49 C65 1.235 . S
O50 Fe44 2.002 . S
O50 C51 1.295 . S
C51 O50 1.295 . S
C51 O53 1.235 . S
C52 O57 1.287 . S
C52 O58 1.255 . S
O53 Fe45 1.997 . S
O53 C51 1.235 . S
C54 O60 1.287 . S
C54 O61 1.255 . S
O55 Fe44 1.976 . S
O55 C62 1.287 . S
O56 Fe45 1.996 . S
O56 C62 1.255 . S
O57 Fe47 1.976 . S
O57 C52 1.287 . S
O58 Fe44 1.996 . S
O58 C52 1.255 . S
C59 O63 1.295 . S
C59 O64 1.235 . S
O60 Fe45 1.976 . S
O60 C54 1.287 . S
O61 Fe47 1.996 . S
O61 C54 1.255 . S
C62 O55 1.287 . S
C62 O56 1.255 . S
O63 Fe45 2.002 . S
O63 C59 1.295 . S
O64 Fe47 1.997 . S
O64 C59 1.235 . S
C65 O48 1.295 . S
C65 O49 1.235 . S
Fe66 O68 1.918 . S
Fe66 O71 1.997 1_556 S
Fe66 O72 2.002 . S
Fe66 O77 1.976 . S
Fe66 O80 1.996 . S
Fe67 O68 1.918 . S
Fe67 O75 1.997 . S
Fe67 O78 1.996 . S
Fe67 O82 1.976 . S
Fe67 O85 2.002 . S
O68 Fe66 1.918 . S
O68 Fe67 1.918 . S
O68 Fe69 1.918 . S
Fe69 O68 1.918 . S
Fe69 O70 2.002 1_556 S
Fe69 O79 1.976 . S
Fe69 O83 1.996 . S
Fe69 O86 1.997 . S
O70 Fe69 2.002 1_554 S
O70 C87 1.295 . S
O71 Fe66 1.997 1_554 S
O71 C87 1.235 . S
O72 Fe66 2.002 . S
O72 C73 1.295 . S
C73 O72 1.295 . S
C73 O75 1.235 . S
C74 O79 1.287 . S
C74 O80 1.255 . S
O75 Fe67 1.997 . S
O75 C73 1.235 . S
C76 O82 1.287 . S
C76 O83 1.255 . S
O77 Fe66 1.976 . S
O77 C84 1.287 . S
O78 Fe67 1.996 . S
O78 C84 1.255 . S
O79 Fe69 1.976 . S
O79 C74 1.287 . S
O80 Fe66 1.996 . S
O80 C74 1.255 . S
C81 O85 1.295 . S
C81 O86 1.235 . S
O82 Fe67 1.976 . S
O82 C76 1.287 . S
O83 Fe69 1.996 . S
O83 C76 1.255 . S
C84 O77 1.287 . S
C84 O78 1.255 . S
O85 Fe67 2.002 . S
O85 C81 1.295 . S
O86 Fe69 1.997 . S
O86 C81 1.235 . S
C87 O70 1.295 . S
C87 O71 1.235 . S
Fe88 O90 1.918 . S
Fe88 O93 1.997 . S
Fe88 O94 2.002 . S
Fe88 O99 1.976 . S
Fe88 O102 1.996 . S
Fe89 O90 1.918 . S
Fe89 O97 1.997 . S
Fe89 O100 1.996 . S
Fe89 O104 1.976 . S
Fe89 O107 2.002 . S
O90 Fe88 1.918 . S
O90 Fe89 1.918 . S
O90 Fe91 1.918 . S
Fe91 O90 1.918 . S
Fe91 O92 2.002 . S
Fe91 O101 1.976 . S
Fe91 O105 1.996 . S
Fe91 O108 1.997 . S
O92 Fe91 2.002 . S
O92 C109 1.295 . S
O93 Fe88 1.997 . S
O93 C109 1.235 . S
O94 Fe88 2.002 . S
O94 C95 1.295 . S
C95 O94 1.295 . S
C95 O97 1.235 . S
C96 O101 1.287 . S
C96 O102 1.255 . S
O97 Fe89 1.997 . S
O97 C95 1.235 . S
C98 O104 1.287 . S
C98 O105 1.255 . S
O99 Fe88 1.976 . S
O99 C106 1.287 . S
O100 Fe89 1.996 . S
O100 C106 1.255 . S
O101 Fe91 1.976 . S
O101 C96 1.287 . S
O102 Fe88 1.996 . S
O102 C96 1.255 . S
C103 O107 1.295 . S
C103 O108 1.235 . S
O104 Fe89 1.976 . S
O104 C98 1.287 . S
O105 Fe91 1.996 . S
O105 C98 1.255 . S
C106 O99 1.287 . S
C106 O100 1.255 . S
O107 Fe89 2.002 . S
O107 C103 1.295 . S
O108 Fe91 1.997 . S
O108 C103 1.235 . S
C109 O92 1.295 . S
C109 O93 1.235 . S
Fe110 O112 1.918 . S
Fe110 O115 1.997 . S
Fe110 O116 2.002 . S
Fe110 O121 1.976 . S
Fe110 O124 1.996 . S
Fe111 O112 1.918 . S
Fe111 O119 1.997 . S
Fe111 O122 1.996 . S
Fe111 O126 1.976 . S
Fe111 O129 2.002 . S
O112 Fe110 1.918 . S
O112 Fe111 1.918 . S
O112 Fe113 1.918 . S
Fe113 O112 1.918 . S
Fe113 O114 2.002 . S
Fe113 O123 1.976 . S
Fe113 O127 1.996 . S
Fe113 O130 1.997 . S
O114 Fe113 2.002 . S
O114 C131 1.295 . S
O115 Fe110 1.997 . S
O115 C131 1.235 . S
O116 Fe110 2.002 . S
O116 C117 1.295 . S
C117 O116 1.295 . S
C117 O119 1.235 . S
C118 O123 1.287 . S
C118 O124 1.255 . S
O119 Fe111 1.997 . S
O119 C117 1.235 . S
C120 O126 1.287 . S
C120 O127 1.255 . S
O121 Fe110 1.976 . S
O121 C128 1.287 . S
O122 Fe111 1.996 . S
O122 C128 1.255 . S
O123 Fe113 1.976 . S
O123 C118 1.287 . S
O124 Fe110 1.996 . S
O124 C118 1.255 . S
C125 O129 1.295 . S
C125 O130 1.235 . S
O126 Fe111 1.976 . S
O126 C120 1.287 . S
O127 Fe113 1.996 . S
O127 C120 1.255 . S
C128 O121 1.287 . S
C128 O122 1.255 . S
O129 Fe111 2.002 . S
O129 C125 1.295 . S
O130 Fe113 1.997 . S
O130 C125 1.235 . S
C131 O114 1.295 . S
C131 O115 1.235 . S
Fe132 O134 1.918 . S
Fe132 O137 1.997 . S
Fe132 O138 2.002 . S
Fe132 O143 1.976 . S
Fe132 O146 1.996 . S
Fe133 O134 1.918 . S
Fe133 O141 1.997 . S
Fe133 O144 1.996 . S
Fe133 O148 1.976 . S
Fe133 O151 2.002 . S
O134 Fe132 1.918 . S
O134 Fe133 1.918 . S
O134 Fe135 1.918 . S
Fe135 O134 1.918 . S
Fe135 O136 2.002 . S
Fe135 O145 1.976 . S
Fe135 O149 1.996 . S
Fe135 O152 1.997 . S
O136 Fe135 2.002 . S
O136 C153 1.295 . S
O137 Fe132 1.997 . S
O137 C153 1.235 . S
O138 Fe132 2.002 . S
O138 C139 1.295 . S
C139 O138 1.295 . S
C139 O141 1.235 . S
C140 O145 1.287 . S
C140 O146 1.255 . S
O141 Fe133 1.997 . S
O141 C139 1.235 . S
C142 O148 1.287 . S
C142 O149 1.255 . S
O143 Fe132 1.976 . S
O143 C150 1.287 . S
O144 Fe133 1.996 . S
O144 C150 1.255 . S
O145 Fe135 1.976 . S
O145 C140 1.287 . S
O146 Fe132 1.996 . S
O146 C140 1.255 . S
C147 O151 1.295 . S
C147 O152 1.235 . S
O148 Fe133 1.976 . S
O148 C142 1.287 . S
O149 Fe135 1.996 . S
O149 C142 1.255 . S
C150 O143 1.287 . S
C150 O144 1.255 . S
O151 Fe133 2.002 . S
O151 C147 1.295 . S
O152 Fe135 1.997 . S
O152 C147 1.235 . S
C153 O136 1.295 . S
C153 O137 1.235 . S
Fe154 O156 1.918 . S
Fe154 O159 1.997 . S
Fe154 O160 2.002 . S
Fe154 O165 1.976 . S
Fe154 O168 1.996 . S
Fe155 O156 1.918 . S
Fe155 O163 1.997 . S
Fe155 O166 1.996 . S
Fe155 O170 1.976 . S
Fe155 O173 2.002 . S
O156 Fe154 1.918 . S
O156 Fe155 1.918 . S
O156 Fe157 1.918 . S
Fe157 O156 1.918 . S
Fe157 O158 2.002 . S
Fe157 O167 1.976 . S
Fe157 O171 1.996 . S
Fe157 O174 1.997 . S
O158 Fe157 2.002 . S
O158 C175 1.295 . S
O159 Fe154 1.997 . S
O159 C175 1.235 . S
O160 Fe154 2.002 . S
O160 C161 1.295 . S
C161 O160 1.295 . S
C161 O163 1.235 . S
C162 O167 1.287 . S
C162 O168 1.255 . S
O163 Fe155 1.997 . S
O163 C161 1.235 . S
C164 O170 1.287 . S
C164 O171 1.255 . S
O165 Fe154 1.976 . S
O165 C172 1.287 . S
O166 Fe155 1.996 . S
O166 C172 1.255 . S
O167 Fe157 1.976 . S
O167 C162 1.287 . S
O168 Fe154 1.996 . S
O168 C162 1.255 . S
C169 O173 1.295 . S
C169 O174 1.235 . S
O170 Fe155 1.976 . S
O170 C164 1.287 . S
O171 Fe157 1.996 . S
O171 C164 1.255 . S
C172 O165 1.287 . S
C172 O166 1.255 . S
O173 Fe155 2.002 . S
O173 C169 1.295 . S
O174 Fe157 1.997 . S
O174 C169 1.235 . S
C175 O158 1.295 . S
C175 O159 1.235 . S
C176 C177 1.387 . S
C176 H180 0.950 . S
C176 C185 1.390 . S
C177 C176 1.387 . S
C177 C179 1.387 . S
H178 C185 0.950 . S
C179 C177 1.387 . S
C179 C181 1.390 . S
C179 H183 0.950 . S
H180 C176 0.950 . S
C181 C179 1.390 . S
C181 C182 1.387 . S
C181 H184 0.950 . S
C182 C181 1.387 . S
C182 C185 1.387 . S
H183 C179 0.950 . S
H184 C181 0.950 . S
C185 C176 1.390 . S
C185 H178 0.950 . S
C185 C182 1.387 . S
C186 C187 1.387 . S
C186 H190 0.950 . S
C186 C195 1.390 . S
C187 C186 1.387 . S
C187 C189 1.387 . S
H188 C195 0.950 . S
C189 C187 1.387 . S
C189 C191 1.390 . S
C189 H193 0.950 . S
H190 C186 0.950 . S
C191 C189 1.390 . S
C191 C192 1.387 . S
C191 H194 0.950 . S
C192 C191 1.387 . S
C192 C195 1.387 . S
H193 C189 0.950 . S
H194 C191 0.950 . S
C195 C186 1.390 . S
C195 H188 0.950 . S
C195 C192 1.387 . S
C196 C197 1.387 . S
C196 H200 0.950 . S
C196 C205 1.390 . S
C197 C196 1.387 . S
C197 C199 1.387 . S
H198 C205 0.950 . S
C199 C197 1.387 . S
C199 C201 1.390 . S
C199 H203 0.950 . S
H200 C196 0.950 . S
C201 C199 1.390 . S
C201 C202 1.387 . S
C201 H204 0.950 . S
C202 C201 1.387 . S
C202 C205 1.387 . S
H203 C199 0.950 . S
H204 C201 0.950 . S
C205 C196 1.390 . S
C205 H198 0.950 . S
C205 C202 1.387 . S
C206 C207 1.387 . S
C206 H210 0.950 . S
C206 C215 1.390 . S
C207 C206 1.387 . S
C207 C209 1.387 . S
H208 C215 0.950 . S
C209 C207 1.387 . S
C209 C211 1.390 . S
C209 H213 0.950 . S
H210 C206 0.950 . S
C211 C209 1.390 . S
C211 C212 1.387 . S
C211 H214 0.950 . S
C212 C211 1.387 . S
C212 C215 1.387 . S
H213 C209 0.950 . S
H214 C211 0.950 . S
C215 C206 1.390 . S
C215 H208 0.950 . S
C215 C212 1.387 . S
C216 C217 1.387 . S
C216 H220 0.950 . S
C216 C225 1.390 . S
C217 C216 1.387 . S
C217 C219 1.387 . S
H218 C225 0.950 . S
C219 C217 1.387 . S
C219 C221 1.390 . S
C219 H223 0.950 . S
H220 C216 0.950 . S
C221 C219 1.390 . S
C221 C222 1.387 . S
C221 H224 0.950 . S
C222 C221 1.387 . S
C222 C225 1.387 . S
H223 C219 0.950 . S
H224 C221 0.950 . S
C225 C216 1.390 . S
C225 H218 0.950 . S
C225 C222 1.387 . S
C226 C227 1.387 . S
C226 H230 0.950 . S
C226 C235 1.390 . S
C227 C226 1.387 . S
C227 C229 1.387 . S
H228 C235 0.950 . S
C229 C227 1.387 . S
C229 C231 1.390 . S
C229 H233 0.950 . S
H230 C226 0.950 . S
C231 C229 1.390 . S
C231 C232 1.387 . S
C231 H234 0.950 . S
C232 C231 1.387 . S
C232 C235 1.387 . S
H233 C229 0.950 . S
H234 C231 0.950 . S
C235 C226 1.390 . S
C235 H228 0.950 . S
C235 C232 1.387 . S
C236 C237 1.387 . S
C236 H240 0.950 . S
C236 C245 1.390 . S
C237 C236 1.387 . S
C237 C239 1.387 . S
H238 C245 0.950 . S
C239 C237 1.387 . S
C239 C241 1.390 . S
C239 H243 0.950 . S
H240 C236 0.950 . S
C241 C239 1.390 . S
C241 C242 1.387 . S
C241 H244 0.950 . S
C242 C241 1.387 . S
C242 C245 1.387 . S
H243 C239 0.950 . S
H244 C241 0.950 . S
C245 C236 1.390 . S
C245 H238 0.950 . S
C245 C242 1.387 . S
C246 C247 1.387 . S
C246 H250 0.950 . S
C246 C255 1.390 . S
C247 C246 1.387 . S
C247 C249 1.387 . S
H248 C255 0.950 . S
C249 C247 1.387 . S
C249 C251 1.390 . S
C249 H253 0.950 . S
H250 C246 0.950 . S
C251 C249 1.390 . S
C251 C252 1.387 . S
C251 H254 0.950 . S
C252 C251 1.387 . S
C252 C255 1.387 . S
H253 C249 0.950 . S
H254 C251 0.950 . S
C255 C246 1.390 . S
C255 H248 0.950 . S
C255 C252 1.387 . S
C256 C257 1.387 . S
C256 H260 0.950 . S
C256 C265 1.390 . S
C257 C256 1.387 . S
C257 C259 1.387 . S
H258 C265 0.950 . S
C259 C257 1.387 . S
C259 C261 1.390 . S
C259 H263 0.950 . S
H260 C256 0.950 . S
C261 C259 1.390 . S
C261 C262 1.387 . S
C261 H264 0.950 . S
C262 C261 1.387 . S
C262 C265 1.387 . S
H263 C259 0.950 . S
H264 C261 0.950 . S
C265 C256 1.390 . S
C265 H258 0.950 . S
C265 C262 1.387 . S
C266 C267 1.387 . S
C266 H270 0.950 . S
C266 C275 1.390 . S
C267 C266 1.387 . S
C267 C269 1.387 . S
H268 C275 0.950 . S
C269 C267 1.387 . S
C269 C271 1.390 . S
C269 H273 0.950 . S
H270 C266 0.950 . S
C271 C269 1.390 . S
C271 C272 1.387 . S
C271 H274 0.950 . S
C272 C271 1.387 . S
C272 C275 1.387 . S
H273 C269 0.950 . S
H274 C271 0.950 . S
C275 C266 1.390 . S
C275 H268 0.950 . S
C275 C272 1.387 . S
C276 C277 1.387 . S
C276 H280 0.950 . S
C276 C285 1.390 . S
C277 C276 1.387 . S
C277 C279 1.387 . S
H278 C285 0.950 . S
C279 C277 1.387 . S
C279 C281 1.390 . S
C279 H283 0.950 . S
H280 C276 0.950 . S
C281 C279 1.390 . S
C281 C282 1.387 . S
C281 H284 0.950 . S
C282 C281 1.387 . S
C282 C285 1.387 . S
H283 C279 0.950 . S
H284 C281 0.950 . S
C285 C276 1.390 . S
C285 H278 0.950 . S
C285 C282 1.387 . S
C286 C287 1.387 . S
C286 H290 0.950 . S
C286 C295 1.390 . S
C287 C286 1.387 . S
C287 C289 1.387 . S
H288 C295 0.950 . S
C289 C287 1.387 . S
C289 C291 1.390 . S
C289 H293 0.950 . S
H290 C286 0.950 . S
C291 C289 1.390 . S
C291 C292 1.387 . S
C291 H294 0.950 . S
C292 C291 1.387 . S
C292 C295 1.387 . S
H293 C289 0.950 . S
H294 C291 0.950 . S
C295 C286 1.390 . S
C295 H288 0.950 . S
C295 C292 1.387 . S
C296 C297 1.387 . S
C296 H300 0.950 . S
C296 C305 1.390 . S
C297 C296 1.387 . S
C297 C299 1.387 1_556 S
H298 C305 0.950 . S
C299 C297 1.387 1_554 S
C299 C301 1.390 . S
C299 H303 0.950 . S
H300 C296 0.950 . S
C301 C299 1.390 . S
C301 C302 1.376 1_554 S
C301 H304 0.950 . S
C302 C301 1.376 1_556 S
C302 C305 1.405 . S
H303 C299 0.950 . S
H304 C301 0.950 . S
C305 C296 1.390 . S
C305 H298 0.950 . S
C305 C302 1.405 . S
C306 C307 1.389 . S
C306 H310 0.951 . S
C306 C315 1.390 . S
C307 C306 1.389 . S
C307 C309 1.389 . S
H308 C315 0.950 . S
C309 C307 1.389 . S
C309 C311 1.390 . S
C309 H313 0.950 . S
H310 C306 0.951 . S
C311 C309 1.390 . S
C311 C312 1.387 . S
C311 H314 0.950 . S
C312 C311 1.387 . S
C312 C315 1.387 . S
H313 C309 0.950 . S
H314 C311 0.950 . S
C315 C306 1.390 . S
C315 H308 0.950 . S
C315 C312 1.387 . S
C316 C317 1.387 . S
C316 H320 0.950 1_556 S
C316 C325 1.390 . S
C317 C316 1.387 . S
C317 C319 1.387 . S
H318 C325 0.950 . S
C319 C317 1.387 . S
C319 C321 1.390 . S
C319 H323 0.950 . S
H320 C316 0.950 1_554 S
C321 C319 1.390 . S
C321 C322 1.387 . S
C321 H324 0.950 . S
C322 C321 1.387 . S
C322 C325 1.387 . S
H323 C319 0.950 . S
H324 C321 0.950 . S
C325 C316 1.390 . S
C325 H318 0.950 . S
C325 C322 1.387 . S
C326 C327 1.391 . S
C326 H330 0.950 . S
C326 C335 1.390 . S
C327 C326 1.391 . S
C327 C329 1.385 1_554 S
H328 C335 0.950 . S
C329 C327 1.385 1_556 S
C329 C331 1.390 . S
C329 H333 0.950 . S
H330 C326 0.950 . S
C331 C329 1.390 . S
C331 C332 1.387 1_556 S
C331 H334 0.950 . S
C332 C331 1.387 1_554 S
C332 C335 1.387 . S
H333 C329 0.950 . S
H334 C331 0.950 . S
C335 C326 1.390 . S
C335 H328 0.950 . S
C335 C332 1.387 . S
C336 C337 1.387 . S
C336 H340 0.950 . S
C336 C345 1.390 . S
C337 C336 1.387 . S
C337 C339 1.387 . S
H338 C345 0.950 . S
C339 C337 1.387 . S
C339 C341 1.390 . S
C339 H343 0.950 . S
H340 C336 0.950 . S
C341 C339 1.390 . S
C341 C342 1.387 . S
C341 H344 0.950 . S
C342 C341 1.387 . S
C342 C345 1.387 . S
H343 C339 0.950 . S
H344 C341 0.950 . S
C345 C336 1.390 . S
C345 H338 0.950 . S
C345 C342 1.387 . S
C346 C347 1.387 . S
C346 H350 0.950 . S
C346 C355 1.390 . S
C347 C346 1.387 . S
C347 C349 1.387 . S
H348 C355 0.950 . S
C349 C347 1.387 . S
C349 C351 1.390 . S
C349 H353 0.950 . S
H350 C346 0.950 . S
C351 C349 1.390 . S
C351 C352 1.387 . S
C351 H354 0.950 . S
C352 C351 1.387 . S
C352 C355 1.387 . S
H353 C349 0.950 . S
H354 C351 0.950 . S
C355 C346 1.390 . S
C355 H348 0.950 . S
C355 C352 1.387 . S
C356 C357 1.387 . S
C356 H360 0.950 . S
C356 C365 1.390 . S
C357 C356 1.387 . S
C357 C359 1.387 . S
H358 C365 0.950 . S
C359 C357 1.387 . S
C359 C361 1.390 . S
C359 H363 0.950 . S
H360 C356 0.950 . S
C361 C359 1.390 . S
C361 C362 1.387 . S
C361 H364 0.950 . S
C362 C361 1.387 . S
C362 C365 1.387 . S
H363 C359 0.950 . S
H364 C361 0.950 . S
C365 C356 1.390 . S
C365 H358 0.950 . S
C365 C362 1.387 . S
C366 C367 1.387 . S
C366 H370 0.950 . S
C366 C375 1.390 . S
C367 C366 1.387 . S
C367 C369 1.387 . S
H368 C375 0.950 . S
C369 C367 1.387 . S
C369 C371 1.390 . S
C369 H373 0.950 . S
H370 C366 0.950 . S
C371 C369 1.390 . S
C371 C372 1.387 . S
C371 H374 0.950 . S
C372 C371 1.387 . S
C372 C375 1.387 . S
H373 C369 0.950 . S
H374 C371 0.950 . S
C375 C366 1.390 . S
C375 H368 0.950 . S
C375 C372 1.387 . S
C376 C377 1.387 . S
C376 H380 0.950 . S
C376 C385 1.390 1_545 S
C377 C376 1.387 . S
C377 C379 1.387 . S
H378 C385 0.950 . S
C379 C377 1.387 . S
C379 C381 1.390 1_545 S
C379 H383 0.950 1_554 S
H380 C376 0.950 . S
C381 C379 1.390 1_565 S
C381 C382 1.387 . S
C381 H384 0.950 1_554 S
C382 C381 1.387 . S
C382 C385 1.387 . S
H383 C379 0.950 1_556 S
H384 C381 0.950 1_556 S
C385 C376 1.390 1_565 S
C385 H378 0.950 . S
C385 C382 1.387 . S
C386 C387 1.387 . S
C386 H390 0.950 1_556 S
C386 C395 1.390 1_655 S
C387 C386 1.387 . S
C387 C389 1.387 . S
H388 C395 0.950 1_554 S
C389 C387 1.387 . S
C389 C391 1.390 1_655 S
C389 H393 0.950 . S
H390 C386 0.950 1_554 S
C391 C389 1.390 1_455 S
C391 C392 1.387 . S
C391 H394 0.950 . S
C392 C391 1.387 . S
C392 C395 1.387 . S
H393 C389 0.950 . S
H394 C391 0.950 . S
C395 C386 1.390 1_455 S
C395 H388 0.950 1_556 S
C395 C392 1.387 . S
C396 C397 1.387 . S
C396 H400 0.950 . S
C396 C405 1.390 1_565 S
C397 C396 1.387 . S
C397 C399 1.387 . S
H398 C405 0.950 . S
C399 C397 1.387 . S
C399 C401 1.390 1_565 S
C399 H403 0.950 . S
H400 C396 0.950 . S
C401 C399 1.390 1_545 S
C401 C402 1.387 . S
C401 H404 0.950 . S
C402 C401 1.387 . S
C402 C405 1.387 . S
H403 C399 0.950 . S
H404 C401 0.950 . S
C405 C396 1.390 1_545 S
C405 H398 0.950 . S
C405 C402 1.387 . S
C406 C407 1.387 . S
C406 H410 0.950 . S
C406 C415 1.390 1_655 S
C407 C406 1.387 . S
C407 C409 1.387 . S
H408 C415 0.950 . S
C409 C407 1.387 . S
C409 C411 1.390 1_655 S
C409 H413 0.950 . S
H410 C406 0.950 . S
C411 C409 1.390 1_455 S
C411 C412 1.387 . S
C411 H414 0.950 . S
C412 C411 1.387 . S
C412 C415 1.387 . S
H413 C409 0.950 . S
H414 C411 0.950 . S
C415 C406 1.390 1_455 S
C415 H408 0.950 . S
C415 C412 1.387 . S
C177 C128 1.464 . S
C182 C10 1.467 . S
C187 C30 1.502 . S
C192 C140 1.499 . S
C197 C172 1.467 . S
C202 C62 1.464 . S
C207 C76 1.499 . S
C212 C106 1.502 . S
C217 C96 1.385 . S
C222 C7 1.394 . S
C227 C29 1.399 . S
C232 C120 1.395 . S
C237 C65 1.395 . S
C242 C142 1.385 . S
C247 C164 1.394 . S
C252 C87 1.399 . S
C257 C8 1.394 . S
C262 C103 1.399 . S
C267 C131 1.396 . S
C272 C32 1.386 . S
C277 C54 1.393 . S
C282 C139 1.398 . S
C287 C84 1.386 . S
C292 C175 1.394 . S
C297 C37 1.263 . S
C302 C15 1.256 1_556 S
C307 C43 1.257 1_554 S
C312 C59 1.265 . S
C317 C51 1.265 1_556 S
C322 C73 1.264 . S
C327 C81 1.258 1_554 S
C332 C21 1.265 . S
C337 C95 1.260 . S
C342 C169 1.264 . S
C347 C109 1.263 . S
C352 C117 1.264 . S
C357 C153 1.260 . S
C362 C125 1.264 . S
C367 C161 1.264 . S
C372 C147 1.263 . S
C377 C18 1.779 . S
C382 C52 1.779 . S
C387 C74 1.761 . S
C392 C40 1.761 . S
C397 C150 1.761 . S
C402 C98 1.761 . S
C407 C162 1.784 . S
C412 C118 1.784 . S
