# Generated by pormake.
# Topology zfi, (5)-cn, num edge types: 1
# Building blocks:
#     Node 0, Type 0, BuildingBlock: BEQFEK_clean_sbu_0, # of connection points: 5
#     Node 1, Type 0, BuildingBlock: BEQFEK_clean_sbu_0, # of connection points: 5
#     Node 2, Type 0, BuildingBlock: BEQFEK_clean_sbu_0, # of connection points: 5
#     Node 3, Type 0, BuildingBlock: BEQFEK_clean_sbu_0, # of connection points: 5
#     Node 4, Type 0, BuildingBlock: BEQFEK_clean_sbu_0, # of connection points: 5
#     Node 5, Type 0, BuildingBlock: BEQFEK_clean_sbu_0, # of connection points: 5
#     Node 6, Type 0, BuildingBlock: BEQFEK_clean_sbu_0, # of connection points: 5
#     Node 7, Type 0, BuildingBlock: BEQFEK_clean_sbu_0, # of connection points: 5
#     Node 8, Type 0, BuildingBlock: BEQFEK_clean_sbu_0, # of connection points: 5
#     Node 9, Type 0, BuildingBlock: BEQFEK_clean_sbu_0, # of connection points: 5
#     Node 10, Type 0, BuildingBlock: BEQFEK_clean_sbu_0, # of connection points: 5
#     Node 11, Type 0, BuildingBlock: BEQFEK_clean_sbu_0, # of connection points: 5
#     Node 12, Type 0, BuildingBlock: BEQFEK_clean_sbu_0, # of connection points: 5
#     Node 13, Type 0, BuildingBlock: BEQFEK_clean_sbu_0, # of connection points: 5
#     Node 14, Type 0, BuildingBlock: BEQFEK_clean_sbu_0, # of connection points: 5
#     Node 15, Type 0, BuildingBlock: BEQFEK_clean_sbu_0, # of connection points: 5
#     Edge 16, Type (0, 0), BuildingBlock: KIFKEQ_clean_linker_1, # of connection points: 2
#     Edge 17, Type (0, 0), BuildingBlock: KIFKEQ_clean_linker_1, # of connection points: 2
#     Edge 18, Type (0, 0), BuildingBlock: KIFKEQ_clean_linker_1, # of connection points: 2
#     Edge 19, Type (0, 0), BuildingBlock: KIFKEQ_clean_linker_1, # of connection points: 2
#     Edge 20, Type (0, 0), BuildingBlock: KIFKEQ_clean_linker_1, # of connection points: 2
#     Edge 21, Type (0, 0), BuildingBlock: KIFKEQ_clean_linker_1, # of connection points: 2
#     Edge 22, Type (0, 0), BuildingBlock: KIFKEQ_clean_linker_1, # of connection points: 2
#     Edge 23, Type (0, 0), BuildingBlock: KIFKEQ_clean_linker_1, # of connection points: 2
#     Edge 24, Type (0, 0), BuildingBlock: KIFKEQ_clean_linker_1, # of connection points: 2
#     Edge 25, Type (0, 0), BuildingBlock: KIFKEQ_clean_linker_1, # of connection points: 2
#     Edge 26, Type (0, 0), BuildingBlock: KIFKEQ_clean_linker_1, # of connection points: 2
#     Edge 27, Type (0, 0), BuildingBlock: KIFKEQ_clean_linker_1, # of connection points: 2
#     Edge 28, Type (0, 0), BuildingBlock: KIFKEQ_clean_linker_1, # of connection points: 2
#     Edge 29, Type (0, 0), BuildingBlock: KIFKEQ_clean_linker_1, # of connection points: 2
#     Edge 30, Type (0, 0), BuildingBlock: KIFKEQ_clean_linker_1, # of connection points: 2
#     Edge 31, Type (0, 0), BuildingBlock: KIFKEQ_clean_linker_1, # of connection points: 2
#     Edge 32, Type (0, 0), BuildingBlock: KIFKEQ_clean_linker_1, # of connection points: 2
#     Edge 33, Type (0, 0), BuildingBlock: KIFKEQ_clean_linker_1, # of connection points: 2
#     Edge 34, Type (0, 0), BuildingBlock: KIFKEQ_clean_linker_1, # of connection points: 2
#     Edge 35, Type (0, 0), BuildingBlock: KIFKEQ_clean_linker_1, # of connection points: 2
#     Edge 36, Type (0, 0), BuildingBlock: KIFKEQ_clean_linker_1, # of connection points: 2
#     Edge 37, Type (0, 0), BuildingBlock: KIFKEQ_clean_linker_1, # of connection points: 2
#     Edge 38, Type (0, 0), BuildingBlock: KIFKEQ_clean_linker_1, # of connection points: 2
#     Edge 39, Type (0, 0), BuildingBlock: KIFKEQ_clean_linker_1, # of connection points: 2
#     Edge 40, Type (0, 0), BuildingBlock: KIFKEQ_clean_linker_1, # of connection points: 2
#     Edge 41, Type (0, 0), BuildingBlock: KIFKEQ_clean_linker_1, # of connection points: 2
#     Edge 42, Type (0, 0), BuildingBlock: KIFKEQ_clean_linker_1, # of connection points: 2
#     Edge 43, Type (0, 0), BuildingBlock: KIFKEQ_clean_linker_1, # of connection points: 2
#     Edge 44, Type (0, 0), BuildingBlock: KIFKEQ_clean_linker_1, # of connection points: 2
#     Edge 45, Type (0, 0), BuildingBlock: KIFKEQ_clean_linker_1, # of connection points: 2
#     Edge 46, Type (0, 0), BuildingBlock: KIFKEQ_clean_linker_1, # of connection points: 2
#     Edge 47, Type (0, 0), BuildingBlock: KIFKEQ_clean_linker_1, # of connection points: 2
#     Edge 48, Type (0, 0), BuildingBlock: KIFKEQ_clean_linker_1, # of connection points: 2
#     Edge 49, Type (0, 0), BuildingBlock: KIFKEQ_clean_linker_1, # of connection points: 2
#     Edge 50, Type (0, 0), BuildingBlock: KIFKEQ_clean_linker_1, # of connection points: 2
#     Edge 51, Type (0, 0), BuildingBlock: KIFKEQ_clean_linker_1, # of connection points: 2
#     Edge 52, Type (0, 0), BuildingBlock: KIFKEQ_clean_linker_1, # of connection points: 2
#     Edge 53, Type (0, 0), BuildingBlock: KIFKEQ_clean_linker_1, # of connection points: 2
#     Edge 54, Type (0, 0), BuildingBlock: KIFKEQ_clean_linker_1, # of connection points: 2
#     Edge 55, Type (0, 0), BuildingBlock: KIFKEQ_clean_linker_1, # of connection points: 2
# Relax obj value: 0.228
# Max RMSD: 0.194
# Mean RMSD: 0.194
data_MOF--net-zfi--node1-BEQFEK_clean_sbu_0--edge1-KIFKEQ_clean_linker_1
_symmetry_space_group_name_H-M    P1
_symmetry_Int_Tables_number       1
_symmetry_cell_setting            triclinic
loop_
_symmetry_equiv_pos_as_xyz
'x, y, z'
_cell_length_a     37.858325
_cell_length_b     37.853255
_cell_length_c     58.465824
_cell_angle_alpha  90.019152
_cell_angle_beta   90.019524
_cell_angle_gamma 90.068732
loop_
_atom_site_label
_atom_site_type_symbol
_atom_site_fract_x
_atom_site_fract_y
_atom_site_fract_z
_atom_type_partial_charge
Co0 Co 0.62163 0.08909 0.13376 0.0
Co1 Co 0.60357 0.01151 0.14782 0.0
C2 C 0.59471 0.07238 0.1805 0.0
O3 O 0.60317 0.09613 0.16599 0.0
O4 O 0.59383 0.04003 0.17484 0.0
C5 C 0.6532 0.15532 0.13455 0.0
O6 O 0.65292 0.14676 0.15632 0.0
C7 C 0.55442 0.95419 0.15828 0.0
C8 C 0.59109 0.90913 0.1618 0.0
C9 C 0.55574 0.91833 0.16266 0.0
N10 N 0.58758 0.96561 0.15481 0.0
N11 N 0.60941 0.93867 0.15719 0.0
C12 C 0.52262 0.97762 0.15872 0.0
H13 H 0.53003 0.00532 0.15474 0.0
H14 H 0.50261 0.96826 0.14627 0.0
H15 H 0.51035 0.97642 0.17594 0.0
C16 C 0.57321 0.06787 0.09416 0.0
N17 N 0.58946 0.06217 0.11449 0.0
N18 N 0.58359 0.02916 0.12057 0.0
C19 C 0.56495 0.01262 0.10414 0.0
C20 C 0.55667 0.03664 0.08711 0.0
C21 C 0.5744 0.10213 0.08151 0.0
H22 H 0.57706 0.12445 0.09371 0.0
H23 H 0.55033 0.1055 0.07089 0.0
H24 H 0.59777 0.1022 0.07006 0.0
O25 O 0.668 0.064 0.13652 0.0
O26 O 0.65416 0.00858 0.14459 0.0
H27 H 0.58272 0.9597 0.11132 0.0
H28 H 0.56002 0.96444 0.08452 0.0
C29 C 0.56061 0.97329 0.10262 0.0
H30 H 0.53532 0.96543 0.11065 0.0
H31 H 0.63677 0.94036 0.15539 0.0
O32 O 0.63754 0.13513 0.12035 0.0
C33 C 0.67704 0.03226 0.1406 0.0
Co34 Co 0.40406 0.62673 0.13027 0.0
Co35 Co 0.48384 0.61318 0.14111 0.0
C36 C 0.42788 0.60072 0.17637 0.0
O37 O 0.40248 0.60819 0.16283 0.0
O38 O 0.45971 0.60129 0.16955 0.0
C39 C 0.33106 0.64302 0.13333 0.0
O40 O 0.33576 0.63091 0.15416 0.0
C41 C 0.54688 0.57178 0.15137 0.0
C42 C 0.5887 0.61208 0.1471 0.0
C43 C 0.58293 0.57705 0.1527 0.0
N44 N 0.53193 0.60243 0.14516 0.0
N45 N 0.557 0.62646 0.14278 0.0
C46 C 0.52675 0.53896 0.15718 0.0
H47 H 0.49822 0.54235 0.15338 0.0
H48 H 0.53723 0.51615 0.14743 0.0
H49 H 0.53024 0.53304 0.17563 0.0
C50 C 0.42414 0.58089 0.08954 0.0
N51 N 0.43097 0.59661 0.10987 0.0
N52 N 0.46446 0.59121 0.11498 0.0
C53 C 0.47989 0.57245 0.09815 0.0
C54 C 0.45495 0.56485 0.08161 0.0
C55 C 0.38951 0.58308 0.07738 0.0
H56 H 0.38679 0.60978 0.06975 0.0
H57 H 0.36761 0.57946 0.08977 0.0
H58 H 0.38775 0.563 0.06358 0.0
O59 O 0.4255 0.67475 0.13207 0.0
O60 O 0.4821 0.66399 0.13802 0.0
H61 H 0.53401 0.58866 0.10149 0.0
H62 H 0.52657 0.55663 0.07919 0.0
C63 C 0.51866 0.56487 0.09666 0.0
H64 H 0.52529 0.54314 0.10857 0.0
H65 H 0.55249 0.65269 0.13811 0.0
O66 O 0.35581 0.63922 0.11881 0.0
C67 C 0.45694 0.68555 0.13509 0.0
Co68 Co 0.86684 0.40543 0.1293 0.0
Co69 Co 0.89178 0.48275 0.13977 0.0
C70 C 0.9001 0.42537 0.17438 0.0
O71 O 0.88656 0.40161 0.1615 0.0
O72 O 0.90429 0.45682 0.1673 0.0
C73 C 0.85108 0.32793 0.11264 0.0
O74 O 0.88334 0.31612 0.10959 0.0
C75 C 0.93922 0.5427 0.14939 0.0
C76 C 0.90207 0.5872 0.14484 0.0
C77 C 0.93648 0.57904 0.15064 0.0
N78 N 0.90757 0.52982 0.14313 0.0
N79 N 0.88553 0.55656 0.14047 0.0
C80 C 0.97068 0.52059 0.15511 0.0
H81 H 0.97591 0.5224 0.17376 0.0
H82 H 0.966 0.49257 0.15038 0.0
H83 H 0.99434 0.53083 0.14607 0.0
C84 C 0.91078 0.42087 0.08657 0.0
N85 N 0.89823 0.42876 0.10767 0.0
N86 N 0.90853 0.4611 0.11286 0.0
C87 C 0.92781 0.47452 0.0956 0.0
C88 C 0.93033 0.44953 0.07846 0.0
C89 C 0.9031 0.38723 0.07416 0.0
H90 H 0.87463 0.38068 0.07578 0.0
H91 H 0.91839 0.36555 0.0822 0.0
H92 H 0.91049 0.38915 0.05583 0.0
O93 O 0.82244 0.43247 0.13217 0.0
O94 O 0.84069 0.48681 0.13908 0.0
H95 H 0.91876 0.53015 0.09925 0.0
H96 H 0.94967 0.51921 0.077 0.0
C97 C 0.94044 0.51201 0.09439 0.0
H98 H 0.96267 0.51565 0.10648 0.0
H99 H 0.85909 0.55393 0.13574 0.0
O100 O 0.84612 0.35944 0.11944 0.0
C101 C 0.81594 0.46473 0.1362 0.0
Co102 Co 0.09182 0.87206 0.13272 0.0
Co103 Co 0.01261 0.88986 0.14303 0.0
C104 C 0.0687 0.9038 0.17774 0.0
O105 O 0.09345 0.89267 0.16477 0.0
O106 O 0.03693 0.90482 0.17079 0.0
C107 C 0.15621 0.84088 0.13863 0.0
O108 O 0.14204 0.84088 0.15913 0.0
C109 C 0.95 0.93326 0.15189 0.0
C110 C 0.9076 0.89359 0.14752 0.0
C111 C 0.91384 0.92864 0.15285 0.0
N112 N 0.9646 0.90217 0.14615 0.0
N113 N 0.93914 0.87857 0.14364 0.0
C114 C 0.97047 0.96592 0.15755 0.0
H115 H 0.9681 0.97133 0.17615 0.0
H116 H -0.00124 0.9626 0.15306 0.0
H117 H 0.95936 0.98894 0.1483 0.0
C118 C 0.07372 0.91598 0.09061 0.0
N119 N 0.06621 0.90167 0.11128 0.0
N120 N 0.03288 0.90853 0.11611 0.0
C121 C 0.01824 0.92682 0.09879 0.0
C122 C 0.0435 0.93252 0.08216 0.0
C123 C 0.10837 0.91206 0.07868 0.0
H124 H 0.10983 0.88529 0.07101 0.0
H125 H 0.13027 0.91456 0.09121 0.0
H126 H 0.1113 0.93204 0.06491 0.0
O127 O 0.06871 0.82513 0.13538 0.0
O128 O 0.01299 0.83849 0.14241 0.0
H129 H 0.96336 0.91353 0.10204 0.0
H130 H 0.97247 0.94528 0.07984 0.0
C131 C 0.97995 0.93651 0.09728 0.0
H132 H 0.97449 0.95848 0.10927 0.0
H133 H 0.94329 0.85216 0.13931 0.0
O134 O 0.14016 0.85718 0.12264 0.0
C135 C 0.03713 0.81577 0.13948 0.0
Co136 Co 0.12946 0.90821 0.39414 0.0
Co137 Co 0.1053 0.98575 0.38405 0.0
C138 C 0.09603 0.92982 0.349 0.0
O139 O 0.1094 0.90599 0.36182 0.0
O140 O 0.09217 0.96122 0.35616 0.0
C141 C 0.15879 0.84158 0.38795 0.0
O142 O 0.15618 0.85335 0.3669 0.0
C143 C 0.0586 0.04555 0.37458 0.0
C144 C 0.09522 0.0903 0.38016 0.0
C145 C 0.06108 0.08189 0.37376 0.0
N146 N 0.0901 0.03287 0.38118 0.0
N147 N 0.11187 0.05972 0.38446 0.0
C148 C 0.02756 0.02324 0.36811 0.0
H149 H 0.0318 0.99537 0.37333 0.0
H150 H 0.00322 0.0337 0.37621 0.0
H151 H 0.02385 0.02441 0.3493 0.0
C152 C 0.0843 0.92291 0.43636 0.0
N153 N 0.09771 0.93138 0.41558 0.0
N154 N 0.08771 0.96384 0.4106 0.0
C155 C 0.06796 0.97688 0.42776 0.0
C156 C 0.06475 0.95146 0.44457 0.0
C157 C 0.09159 0.88898 0.44849 0.0
H158 H 0.11933 0.88913 0.45464 0.0
H159 H 0.08867 0.86656 0.43639 0.0
H160 H 0.0736 0.88544 0.46331 0.0
O161 O 0.175 0.93445 0.39212 0.0
O162 O 0.15646 0.98873 0.38516 0.0
H163 H 0.07705 0.03265 0.42498 0.0
H164 H 0.04504 0.02091 0.44644 0.0
C165 C 0.05519 0.01428 0.42917 0.0
H166 H 0.03354 0.01817 0.41669 0.0
H167 H 0.13815 0.05718 0.38953 0.0
O168 O 0.14582 0.86012 0.40408 0.0
C169 C 0.18134 0.96689 0.38826 0.0
Co170 Co 0.59354 0.12547 0.39748 0.0
Co171 Co 0.51264 0.12082 0.38714 0.0
C172 C 0.56813 0.11082 0.3504 0.0
O173 O 0.5942 0.11218 0.36419 0.0
O174 O 0.5366 0.11412 0.35754 0.0
C175 C 0.66785 0.13674 0.39525 0.0
O176 O 0.66363 0.12377 0.37459 0.0
C177 C 0.44919 0.08038 0.37604 0.0
C178 C 0.40778 0.12127 0.37893 0.0
C179 C 0.4132 0.08584 0.37423 0.0
N180 N 0.46438 0.11121 0.38179 0.0
N181 N 0.43956 0.13561 0.38331 0.0
C182 C 0.46913 0.04714 0.37108 0.0
H183 H 0.49804 0.05193 0.3718 0.0
H184 H 0.46205 0.02642 0.38366 0.0
H185 H 0.46166 0.03714 0.35389 0.0
C186 C 0.57115 0.07299 0.4342 0.0
N187 N 0.5651 0.0935 0.41564 0.0
N188 N 0.53099 0.09284 0.41115 0.0
C189 C 0.51424 0.0733 0.42703 0.0
C190 C 0.53903 0.05908 0.44185 0.0
C191 C 0.6067 0.06792 0.44478 0.0
H192 H 0.62762 0.07006 0.43156 0.0
H193 H 0.60827 0.04191 0.4535 0.0
H194 H 0.61114 0.08899 0.45767 0.0
O195 O 0.57432 0.17443 0.39932 0.0
O196 O 0.51618 0.17009 0.39566 0.0
H197 H 0.46846 0.07057 0.44911 0.0
H198 H 0.46273 0.05149 0.42129 0.0
C199 C 0.47503 0.07369 0.43072 0.0
H200 H 0.46358 0.09894 0.42473 0.0
H201 H 0.44429 0.162 0.38754 0.0
O202 O 0.64235 0.13448 0.40935 0.0
C203 C 0.54376 0.1883 0.39921 0.0
Co204 Co 0.37138 0.58717 0.39228 0.0
Co205 Co 0.38633 0.50758 0.38121 0.0
C206 C 0.39798 0.56495 0.34638 0.0
O207 O 0.39083 0.59007 0.36015 0.0
O208 O 0.39725 0.53302 0.35296 0.0
C209 C 0.34651 0.65626 0.3878 0.0
O210 O 0.35113 0.64702 0.36637 0.0
C211 C 0.43538 0.44949 0.37445 0.0
C212 C 0.4 0.40319 0.37599 0.0
C213 C 0.43509 0.41306 0.37408 0.0
N214 N 0.40195 0.46079 0.37654 0.0
N215 N 0.38079 0.43302 0.37691 0.0
C216 C 0.46708 0.4731 0.37396 0.0
H217 H 0.4596 0.50087 0.37761 0.0
H218 H 0.48707 0.46389 0.3865 0.0
H219 H 0.47936 0.47167 0.35675 0.0
C220 C 0.41926 0.56827 0.43258 0.0
N221 N 0.40218 0.56114 0.4127 0.0
N222 N 0.40628 0.52733 0.40806 0.0
C223 C 0.4243 0.51175 0.42513 0.0
C224 C 0.43437 0.53711 0.44088 0.0
C225 C 0.42047 0.60388 0.44355 0.0
H226 H 0.41774 0.62488 0.43043 0.0
H227 H 0.44548 0.60737 0.45322 0.0
H228 H 0.39812 0.60618 0.45573 0.0
O229 O 0.32428 0.56316 0.38992 0.0
O230 O 0.33561 0.5065 0.38396 0.0
H231 H 0.4042 0.45895 0.4203 0.0
H232 H 0.42645 0.46593 0.44707 0.0
C233 C 0.4267 0.47258 0.42858 0.0
H234 H 0.45187 0.4628 0.42137 0.0
H235 H 0.35344 0.4344 0.3789 0.0
O236 O 0.35692 0.63528 0.40345 0.0
C237 C 0.31381 0.53153 0.38682 0.0
Co238 Co 0.90198 0.37247 0.39142 0.0
Co239 Co 0.98098 0.3903 0.3804 0.0
C240 C 0.92348 0.40268 0.34604 0.0
O241 O 0.89868 0.39226 0.35922 0.0
O242 O 0.95527 0.40353 0.35291 0.0
C243 C 0.83966 0.33754 0.38656 0.0
O244 O 0.85441 0.3368 0.36623 0.0
C245 C 0.0412 0.43692 0.37148 0.0
C246 C 0.08499 0.39833 0.37096 0.0
C247 C 0.07724 0.43381 0.36842 0.0
N248 N 0.02816 0.40456 0.37572 0.0
N249 N 0.05441 0.3816 0.37525 0.0
C250 C 0.01923 0.4695 0.36904 0.0
H251 H 0.99132 0.46405 0.37369 0.0
H252 H 0.02989 0.49091 0.38001 0.0
H253 H 0.02051 0.47879 0.35106 0.0
C254 C 0.92045 0.41976 0.43236 0.0
N255 N 0.92775 0.40338 0.41227 0.0
N256 N 0.96126 0.40914 0.40736 0.0
C257 C 0.9764 0.42808 0.42418 0.0
C258 C 0.95107 0.43641 0.44035 0.0
C259 C 0.88517 0.41908 0.44377 0.0
H260 H 0.86394 0.41532 0.4309 0.0
H261 H 0.88077 0.44382 0.45355 0.0
H262 H 0.88436 0.39658 0.45592 0.0
O263 O 0.92629 0.32597 0.38878 0.0
O264 O 0.98208 0.33935 0.38186 0.0
H265 H 0.0302 0.41148 0.41912 0.0
H266 H 0.0232 0.43676 0.4447 0.0
C267 C 0.01541 0.43398 0.42649 0.0
H268 H 0.02289 0.45861 0.41748 0.0
H269 H 0.05148 0.3545 0.37788 0.0
O270 O 0.85438 0.35594 0.40216 0.0
C271 C 0.95795 0.31664 0.38493 0.0
Co272 Co 0.37181 0.90101 0.89478 0.0
Co273 Co 0.3916 0.97998 0.88492 0.0
C274 C 0.39975 0.92433 0.84899 0.0
O275 O 0.39081 0.89921 0.86237 0.0
O276 O 0.40142 0.956 0.85605 0.0
C277 C 0.33694 0.83884 0.88852 0.0
O278 O 0.33606 0.85461 0.86852 0.0
C279 C 0.43758 0.04079 0.87571 0.0
C280 C 0.39969 0.08469 0.88007 0.0
C281 C 0.43442 0.07711 0.87466 0.0
N282 N 0.40597 0.02741 0.88156 0.0
N283 N 0.38344 0.05377 0.88405 0.0
C284 C 0.46934 0.01908 0.87 0.0
H285 H 0.47555 0.02224 0.85156 0.0
H286 H 0.46445 0.99075 0.87378 0.0
H287 H 0.49255 0.02855 0.87983 0.0
C288 C 0.4177 0.9169 0.93637 0.0
N289 N 0.40348 0.92503 0.91577 0.0
N290 N 0.4118 0.95803 0.91089 0.0
C291 C 0.43114 0.9718 0.92806 0.0
C292 C 0.436 0.94626 0.94464 0.0
C293 C 0.41184 0.88269 0.9485 0.0
H294 H 0.41193 0.86059 0.93603 0.0
H295 H 0.43232 0.8784 0.96181 0.0
H296 H 0.38552 0.8833 0.95685 0.0
O297 O 0.32583 0.92613 0.89331 0.0
O298 O 0.34064 0.98199 0.88798 0.0
H299 H 0.41848 0.02689 0.92521 0.0
H300 H 0.4495 0.01702 0.94765 0.0
C301 C 0.44116 0.01 0.93003 0.0
H302 H 0.4635 0.01557 0.91836 0.0
H303 H 0.35693 0.05068 0.88846 0.0
O304 O 0.35516 0.85292 0.90445 0.0
C305 C 0.31732 0.95831 0.89068 0.0
Co306 Co 0.59041 0.37074 0.89379 0.0
Co307 Co 0.51001 0.38496 0.88461 0.0
C308 C 0.56444 0.39616 0.84804 0.0
O309 O 0.59028 0.38865 0.8612 0.0
O310 O 0.53284 0.39611 0.85538 0.0
C311 C 0.66081 0.34855 0.88828 0.0
O312 O 0.65215 0.3548 0.86691 0.0
C313 C 0.44757 0.4295 0.87908 0.0
C314 C 0.40548 0.39205 0.88906 0.0
C315 C 0.41183 0.42705 0.88359 0.0
N316 N 0.46186 0.39741 0.88225 0.0
N317 N 0.43641 0.37493 0.88751 0.0
C318 C 0.46837 0.46234 0.87445 0.0
H319 H 0.49697 0.45769 0.87733 0.0
H320 H 0.45893 0.48435 0.8854 0.0
H321 H 0.46426 0.47022 0.85636 0.0
C322 C 0.57397 0.42007 0.93366 0.0
N323 N 0.56541 0.40216 0.91435 0.0
N324 N 0.53138 0.4065 0.91045 0.0
C325 C 0.51717 0.42587 0.92744 0.0
C326 C 0.54362 0.43614 0.94234 0.0
C327 C 0.61019 0.42118 0.94376 0.0
H328 H 0.63036 0.4194 0.93004 0.0
H329 H 0.61404 0.44569 0.9539 0.0
H330 H 0.61353 0.39815 0.95529 0.0
O331 O 0.56761 0.32307 0.89314 0.0
O332 O 0.51085 0.33428 0.888 0.0
H333 H 0.46387 0.40624 0.9257 0.0
H334 H 0.47267 0.43337 0.95015 0.0
C335 C 0.47831 0.42992 0.93166 0.0
H336 H 0.46846 0.45367 0.92264 0.0
H337 H 0.44052 0.34839 0.89153 0.0
O338 O 0.63932 0.35753 0.90399 0.0
C339 C 0.53589 0.31255 0.89086 0.0
Co340 Co 0.12341 0.5918 0.89402 0.0
Co341 Co 0.11447 0.51153 0.88292 0.0
C342 C 0.10761 0.56777 0.84666 0.0
O343 O 0.11054 0.59358 0.86056 0.0
O344 O 0.10906 0.53605 0.85362 0.0
C345 C 0.13678 0.66593 0.89234 0.0
O346 O 0.12391 0.66243 0.87159 0.0
C347 C 0.07151 0.45005 0.87125 0.0
C348 C 0.11079 0.40705 0.87366 0.0
C349 C 0.07561 0.41395 0.86902 0.0
N350 N 0.10289 0.46389 0.87714 0.0
N351 N 0.12634 0.43814 0.87834 0.0
C352 C 0.039 0.47131 0.86661 0.0
H353 H 0.03037 0.46676 0.8487 0.0
H354 H 0.04417 0.49988 0.8693 0.0
H355 H 0.01715 0.46263 0.87791 0.0
C356 C 0.06984 0.5713 0.93058 0.0
N357 N 0.08982 0.56467 0.91185 0.0
N358 N 0.08722 0.53077 0.90696 0.0
C359 C 0.06677 0.5147 0.92267 0.0
C360 C 0.05414 0.5398 0.93783 0.0
C361 C 0.06717 0.60664 0.94181 0.0
H362 H 0.0697 0.62792 0.92886 0.0
H363 H 0.04176 0.60921 0.95114 0.0
H364 H 0.08912 0.60951 0.95426 0.0
O365 O 0.17145 0.57024 0.89642 0.0
O366 O 0.1637 0.51266 0.89162 0.0
H367 H 0.08931 0.46264 0.91981 0.0
H368 H 0.06101 0.46847 0.94412 0.0
C369 C 0.06474 0.47543 0.92584 0.0
H370 H 0.04193 0.46483 0.91616 0.0
H371 H 0.15288 0.44175 0.88259 0.0
O372 O 0.13401 0.64012 0.90617 0.0
C373 C 0.18346 0.53889 0.89589 0.0
Co374 Co 0.90788 0.12649 0.89389 0.0
Co375 Co 0.98647 0.10692 0.88301 0.0
C376 C 0.92956 0.09456 0.84865 0.0
O377 O 0.90524 0.1063 0.86172 0.0
O378 O 0.96133 0.09281 0.85547 0.0
C379 C 0.84238 0.15681 0.88816 0.0
O380 O 0.85547 0.15591 0.86737 0.0
C381 C 0.04731 0.06126 0.87412 0.0
C382 C 0.09094 0.10007 0.87586 0.0
C383 C 0.0835 0.06478 0.87206 0.0
N384 N 0.0339 0.09322 0.879 0.0
N385 N 0.06006 0.1163 0.87989 0.0
C386 C 0.02561 0.02879 0.87018 0.0
H387 H 0.02758 0.02106 0.85191 0.0
H388 H 0.99751 0.03366 0.87458 0.0
H389 H 0.03593 0.00653 0.88052 0.0
C390 C 0.92521 0.07915 0.93499 0.0
N391 N 0.93302 0.09535 0.91492 0.0
N392 N 0.96632 0.08857 0.90998 0.0
C393 C 0.98079 0.069 0.92672 0.0
C394 C 0.95524 0.06152 0.94291 0.0
C395 C 0.88994 0.08073 0.94637 0.0
H396 H 0.86875 0.08371 0.93339 0.0
H397 H 0.88532 0.05671 0.95684 0.0
H398 H 0.88924 0.10409 0.95784 0.0
O399 O 0.93235 0.17316 0.8914 0.0
O400 O 0.98751 0.15786 0.88412 0.0
H401 H 0.03529 0.08344 0.92215 0.0
H402 H 0.02719 0.05641 0.9468 0.0
C403 C 0.01945 0.06107 0.92875 0.0
H404 H 0.02566 0.03693 0.91882 0.0
H405 H 0.05687 0.14317 0.8833 0.0
O406 O 0.85969 0.14202 0.90422 0.0
C407 C 0.96429 0.1814 0.88733 0.0
Co408 Co 0.87158 0.08906 0.63229 0.0
Co409 Co 0.88753 0.00965 0.64343 0.0
C410 C 0.90196 0.0666 0.67766 0.0
O411 O 0.89161 0.09139 0.66446 0.0
O412 O 0.90223 0.03471 0.67094 0.0
C413 C 0.8444 0.15655 0.63723 0.0
O414 O 0.84716 0.14558 0.65845 0.0
C415 C 0.93159 0.94768 0.65237 0.0
C416 C 0.89171 0.905 0.65114 0.0
C417 C 0.92726 0.91159 0.65457 0.0
N418 N 0.89989 0.96185 0.64772 0.0
N419 N 0.87614 0.93625 0.64714 0.0
C420 C 0.96466 0.96863 0.65596 0.0
H421 H 0.96031 0.99685 0.65164 0.0
H422 H 0.98638 0.95784 0.64535 0.0
H423 H 0.97285 0.96642 0.67413 0.0
C424 C 0.9191 0.0697 0.59173 0.0
N425 N 0.9019 0.06253 0.61155 0.0
N426 N 0.90688 0.0289 0.61646 0.0
C427 C 0.92611 0.01358 0.59987 0.0
C428 C 0.93544 0.03887 0.5839 0.0
C429 C 0.91983 0.10518 0.58057 0.0
H430 H 0.89751 0.10697 0.56833 0.0
H431 H 0.9167 0.1263 0.59358 0.0
H432 H 0.94483 0.10893 0.57094 0.0
O433 O 0.82415 0.0663 0.6349 0.0
O434 O 0.83655 0.01042 0.64223 0.0
H435 H 0.90882 0.95988 0.60446 0.0
H436 H 0.93567 0.96676 0.57955 0.0
C437 C 0.93186 0.97454 0.59768 0.0
H438 H 0.95587 0.96694 0.60732 0.0
H439 H 0.8493 0.94009 0.64395 0.0
O440 O 0.85723 0.13732 0.62138 0.0
C441 C 0.81426 0.03484 0.63902 0.0
Co442 Co 0.40391 0.87022 0.63204 0.0
Co443 Co 0.48286 0.88935 0.64275 0.0
C444 C 0.42651 0.89649 0.67834 0.0
O445 O 0.40152 0.88782 0.66478 0.0
O446 O 0.45822 0.89837 0.67142 0.0
C447 C 0.33247 0.84845 0.63567 0.0
O448 O 0.33789 0.85857 0.65687 0.0
C449 C 0.5428 0.93598 0.65257 0.0
C450 C 0.58719 0.89824 0.65032 0.0
C451 C 0.57901 0.93318 0.65473 0.0
N452 N 0.53004 0.90396 0.64706 0.0
N453 N 0.55667 0.88151 0.64584 0.0
C454 C 0.52054 0.96786 0.65697 0.0
H455 H 0.4926 0.96271 0.65225 0.0
H456 H 0.53083 0.99074 0.64716 0.0
H457 H 0.52207 0.97476 0.67539 0.0
C458 C 0.42076 0.91706 0.59128 0.0
N459 N 0.42859 0.90239 0.61178 0.0
N460 N 0.46162 0.91026 0.61687 0.0
C461 C 0.47576 0.92968 0.59988 0.0
C462 C 0.45037 0.93517 0.58327 0.0
C463 C 0.38646 0.91198 0.57908 0.0
H464 H 0.36428 0.91404 0.59142 0.0
H465 H 0.38324 0.93167 0.56517 0.0
H466 H 0.38583 0.88504 0.57159 0.0
O467 O 0.42881 0.82399 0.63317 0.0
O468 O 0.48473 0.83854 0.63893 0.0
H469 H 0.53054 0.9161 0.60375 0.0
H470 H 0.52172 0.94485 0.57996 0.0
C471 C 0.51423 0.93859 0.59785 0.0
H472 H 0.52012 0.96202 0.60853 0.0
H473 H 0.55403 0.85473 0.64197 0.0
O474 O 0.35616 0.85495 0.6208 0.0
C475 C 0.46099 0.81537 0.63582 0.0
Co476 Co 0.62253 0.40182 0.63177 0.0
Co477 Co 0.60539 0.48133 0.64183 0.0
C478 C 0.59464 0.42592 0.67754 0.0
O479 O 0.60328 0.40061 0.66421 0.0
O480 O 0.59404 0.45764 0.67052 0.0
C481 C 0.64915 0.33383 0.63728 0.0
O482 O 0.64562 0.34444 0.65854 0.0
C483 C 0.56212 0.54388 0.65111 0.0
C484 C 0.60158 0.58632 0.64618 0.0
C485 C 0.56668 0.58008 0.65188 0.0
N486 N 0.59309 0.5293 0.64513 0.0
N487 N 0.61658 0.55478 0.64233 0.0
C488 C 0.52968 0.52338 0.65721 0.0
H489 H 0.52386 0.52716 0.67565 0.0
H490 H 0.53349 0.49482 0.65366 0.0
H491 H 0.50665 0.53335 0.64744 0.0
C492 C 0.57675 0.41934 0.59041 0.0
N493 N 0.59169 0.42708 0.61086 0.0
N494 N 0.58452 0.46032 0.6158 0.0
C495 C 0.56525 0.47462 0.5988 0.0
C496 C 0.55921 0.44921 0.58228 0.0
C497 C 0.58088 0.38478 0.57838 0.0
H498 H 0.57877 0.36281 0.59088 0.0
H499 H 0.56077 0.38168 0.5647 0.0
H500 H 0.60759 0.38363 0.57059 0.0
O501 O 0.66963 0.42516 0.6334 0.0
O502 O 0.65635 0.48133 0.63895 0.0
H503 H 0.5793 0.5294 0.60169 0.0
H504 H 0.54775 0.52032 0.57942 0.0
C505 C 0.55615 0.51304 0.59697 0.0
H506 H 0.53411 0.51905 0.60879 0.0
H507 H 0.64288 0.55065 0.63772 0.0
O508 O 0.63696 0.35333 0.62137 0.0
C509 C 0.67901 0.45711 0.63618 0.0
Co510 Co 0.09049 0.6221 0.63077 0.0
Co511 Co 0.01209 0.60204 0.64245 0.0
C512 C 0.06939 0.59197 0.67674 0.0
O513 O 0.09341 0.60226 0.66294 0.0
O514 O 0.03733 0.59004 0.67048 0.0
C515 C 0.15723 0.65084 0.63602 0.0
O516 O 0.1458 0.64825 0.65715 0.0
C517 C 0.95062 0.55714 0.65215 0.0
C518 C 0.90737 0.5959 0.64833 0.0
C519 C 0.91438 0.56096 0.65349 0.0
N520 N 0.96448 0.58858 0.64637 0.0
N521 N 0.93851 0.61164 0.64424 0.0
C522 C 0.97186 0.52489 0.65749 0.0
H523 H 0.96915 0.51863 0.67595 0.0
H524 H 0.00015 0.52925 0.65335 0.0
H525 H 0.96165 0.50192 0.64773 0.0
C526 C 0.07204 0.57734 0.58918 0.0
N527 N 0.06504 0.59115 0.61006 0.0
N528 N 0.03231 0.58278 0.61562 0.0
C529 C 0.01759 0.56383 0.59859 0.0
C530 C 0.04221 0.5593 0.5814 0.0
C531 C 0.1057 0.58321 0.57642 0.0
H532 H 0.12847 0.58091 0.58829 0.0
H533 H 0.10844 0.56408 0.56213 0.0
H534 H 0.10575 0.61042 0.56936 0.0
O535 O 0.06617 0.6685 0.63315 0.0
O536 O 0.01098 0.65321 0.6405 0.0
H537 H 0.96262 0.57611 0.60267 0.0
H538 H 0.97149 0.54512 0.58003 0.0
C539 C 0.97939 0.55353 0.59748 0.0
H540 H 0.97462 0.53118 0.60928 0.0
H541 H 0.94201 0.63813 0.6399 0.0
O542 O 0.13852 0.63754 0.62006 0.0
C543 C 0.03424 0.67675 0.63712 0.0
H544 H 0.54643 0.86746 0.19425 0.0
H545 H 0.50259 0.90958 0.13181 0.0
H546 H 0.51282 0.81307 0.18867 0.0
H547 H 0.46892 0.85506 0.12624 0.0
H548 H 0.40997 0.74125 0.13568 0.0
H549 H 0.42348 0.80302 0.1456 0.0
H550 H 0.53396 0.77652 0.1512 0.0
H551 H 0.52114 0.7159 0.1411 0.0
C552 C 0.52828 0.86568 0.17995 0.0
C553 C 0.52688 0.89254 0.16352 0.0
C554 C 0.50915 0.83467 0.17674 0.0
C555 C 0.48876 0.83001 0.15691 0.0
C556 C 0.48425 0.85834 0.14175 0.0
C557 C 0.50336 0.88956 0.14502 0.0
C558 C 0.43716 0.74883 0.13874 0.0
C559 C 0.46444 0.72358 0.13785 0.0
C560 C 0.44474 0.78398 0.14452 0.0
C561 C 0.47953 0.79393 0.14975 0.0
C562 C 0.50678 0.7691 0.14783 0.0
C563 C 0.49939 0.73443 0.14187 0.0
H564 H 0.75543 0.42456 0.13719 0.0
H565 H 0.79351 0.53209 0.14249 0.0
H566 H 0.69542 0.44511 0.14552 0.0
H567 H 0.73421 0.55224 0.15046 0.0
H568 H 0.63618 0.58091 0.18311 0.0
H569 H 0.69115 0.54737 0.18185 0.0
H570 H 0.64914 0.48356 0.12687 0.0
H571 H 0.59386 0.51675 0.12858 0.0
C572 C 0.751 0.4525 0.13998 0.0
C573 C 0.77923 0.47669 0.13931 0.0
C574 C 0.71676 0.46416 0.14481 0.0
C575 C 0.7104 0.50009 0.14914 0.0
C576 C 0.73851 0.52422 0.14789 0.0
C577 C 0.77248 0.51269 0.14306 0.0
C578 C 0.63836 0.55884 0.17138 0.0
C579 C 0.61105 0.55112 0.15604 0.0
C580 C 0.66977 0.53985 0.17052 0.0
C581 C 0.67454 0.51341 0.15394 0.0
C582 C 0.64604 0.50368 0.13989 0.0
C583 C 0.61439 0.52252 0.14093 0.0
H584 H 0.97275 0.78799 0.14915 0.0
H585 H 0.08141 0.75821 0.1368 0.0
H586 H 0.95771 0.72693 0.15616 0.0
H587 H 0.06595 0.69621 0.14405 0.0
H588 H 0.99481 0.59287 0.12524 0.0
H589 H 0.0269 0.64914 0.12511 0.0
H590 H 0.97001 0.68147 0.18564 0.0
H591 H 0.93735 0.62587 0.18519 0.0
C592 C 0.99352 0.76842 0.14796 0.0
C593 C 0.02832 0.77805 0.14245 0.0
C594 C 0.98494 0.73339 0.15226 0.0
C595 C 0.01086 0.70696 0.15117 0.0
C596 C 0.04559 0.71621 0.1452 0.0
C597 C 0.05433 0.75159 0.14098 0.0
C598 C 0.99048 0.61147 0.13905 0.0
C599 C 0.96375 0.60551 0.15519 0.0
C600 C 0.00872 0.64363 0.13896 0.0
C601 C 0.00026 0.66986 0.15506 0.0
C602 C 0.97646 0.66191 0.17277 0.0
C603 C 0.95801 0.63011 0.17266 0.0
H604 H 0.90124 0.98801 0.12802 0.0
H605 H 0.86295 0.92628 0.18486 0.0
H606 H 0.84512 0.02022 0.12681 0.0
H607 H 0.8074 0.95885 0.18411 0.0
H608 H 0.70386 0.96634 0.14532 0.0
H609 H 0.76453 0.94955 0.15192 0.0
H610 H 0.79704 0.05866 0.14684 0.0
H611 H 0.73535 0.07598 0.14008 0.0
C612 C 0.88144 0.98263 0.14093 0.0
C613 C 0.88601 0.95483 0.15653 0.0
C614 C 0.84938 0.00093 0.1402 0.0
C615 C 0.82183 0.99144 0.15507 0.0
C616 C 0.82807 0.96617 0.17219 0.0
C617 C 0.85979 0.94771 0.17274 0.0
C618 C 0.72374 0.98695 0.14557 0.0
C619 C 0.71468 0.02257 0.14239 0.0
C620 C 0.75853 0.9773 0.14957 0.0
C621 C 0.78526 0.00295 0.15051 0.0
C622 C 0.77673 0.0385 0.14645 0.0
C623 C 0.74156 0.04831 0.1425 0.0
H624 H 0.02292 0.28913 0.37723 0.0
H625 H 0.9135 0.25895 0.38626 0.0
H626 H 0.03836 0.22833 0.36997 0.0
H627 H 0.92946 0.19709 0.37885 0.0
H628 H 0.00188 0.0942 0.39854 0.0
H629 H 0.96869 0.14976 0.39858 0.0
H630 H 0.02675 0.1841 0.33898 0.0
H631 H 0.06051 0.12923 0.33952 0.0
C632 C 0.00206 0.26953 0.37765 0.0
C633 C 0.96692 0.27896 0.38222 0.0
C634 C 0.01091 0.23466 0.37322 0.0
C635 C 0.98492 0.20821 0.37326 0.0
C636 C 0.94985 0.21718 0.37847 0.0
C637 C 0.94083 0.25244 0.3828 0.0
C638 C 0.00626 0.11308 0.38491 0.0
C639 C 0.03363 0.10797 0.36909 0.0
C640 C 0.98736 0.14478 0.38493 0.0
C641 C 0.99581 0.17137 0.36909 0.0
C642 C 0.02027 0.16419 0.35162 0.0
C643 C 0.03939 0.13286 0.35181 0.0
H644 H 0.24298 0.92822 0.38661 0.0
H645 H 0.20257 0.03502 0.38441 0.0
H646 H 0.30275 0.95099 0.37944 0.0
H647 H 0.26139 0.05726 0.37753 0.0
H648 H 0.40309 0.0245 0.39773 0.0
H649 H 0.3485 0.98999 0.39913 0.0
H650 H 0.30425 0.0555 0.34586 0.0
H651 H 0.35852 0.09028 0.34485 0.0
C652 C 0.24683 0.95643 0.38476 0.0
C653 C 0.21799 0.97977 0.3859 0.0
C654 C 0.28093 0.96939 0.3806 0.0
C655 C 0.28649 0.00577 0.37738 0.0
C656 C 0.25777 0.02898 0.37921 0.0
C657 C 0.22402 0.01619 0.38339 0.0
C658 C 0.38222 0.0305 0.38569 0.0
C659 C 0.38481 0.05986 0.37111 0.0
C660 C 0.35094 0.01087 0.38657 0.0
C661 C 0.32201 0.02051 0.37289 0.0
C662 C 0.32595 0.04797 0.35691 0.0
C663 C 0.35697 0.06772 0.35621 0.0
H664 H 0.58525 0.23899 0.37999 0.0
H665 H 0.49276 0.22345 0.422 0.0
H666 H 0.57014 0.30177 0.37585 0.0
H667 H 0.47835 0.28592 0.41848 0.0
H668 H 0.46289 0.39984 0.41547 0.0
H669 H 0.50176 0.35069 0.42557 0.0
H670 H 0.51092 0.32327 0.35412 0.0
H671 H 0.47172 0.37247 0.34412 0.0
C672 C 0.56251 0.24934 0.38902 0.0
C673 C 0.53993 0.22667 0.40118 0.0
C674 C 0.55389 0.28505 0.38659 0.0
C675 C 0.5232 0.29845 0.39687 0.0
C676 C 0.50239 0.27626 0.41062 0.0
C677 C 0.51048 0.24056 0.41254 0.0
C678 C 0.47441 0.38409 0.40193 0.0
C679 C 0.46468 0.38958 0.37908 0.0
C680 C 0.49653 0.35609 0.40769 0.0
C681 C 0.50921 0.33339 0.39061 0.0
C682 C 0.50182 0.34079 0.36753 0.0
C683 C 0.47934 0.36864 0.36181 0.0
H684 H 0.12638 0.43829 0.33536 0.0
H685 H 0.08953 0.48935 0.39685 0.0
H686 H 0.18186 0.47093 0.33793 0.0
H687 H 0.14545 0.52176 0.39968 0.0
H688 H 0.25749 0.57769 0.38817 0.0
H689 H 0.19525 0.56361 0.38013 0.0
H690 H 0.22297 0.4538 0.37166 0.0
H691 H 0.2841 0.46726 0.37973 0.0
C692 C 0.12969 0.45764 0.34886 0.0
C693 C 0.10401 0.46147 0.3659 0.0
C694 C 0.16134 0.47617 0.35039 0.0
C695 C 0.16796 0.49824 0.36923 0.0
C696 C 0.14079 0.50499 0.38496 0.0
C697 C 0.10883 0.48658 0.3833 0.0
C698 C 0.25012 0.55054 0.38476 0.0
C699 C 0.2758 0.52364 0.3844 0.0
C700 C 0.21467 0.54261 0.38008 0.0
C701 C 0.20473 0.50786 0.37469 0.0
C702 C 0.23019 0.481 0.37512 0.0
C703 C 0.26521 0.48874 0.37996 0.0
H704 H 0.49445 0.0869 0.89943 0.0
H705 H 0.43367 0.12894 0.84329 0.0
H706 H 0.5275 0.14256 0.90194 0.0
H707 H 0.46685 0.18412 0.84552 0.0
H708 H 0.47086 0.28274 0.89042 0.0
H709 H 0.45574 0.22185 0.88264 0.0
H710 H 0.56627 0.19434 0.87998 0.0
H711 H 0.58199 0.25635 0.88767 0.0
C712 C 0.48956 0.10735 0.88687 0.0
C713 C 0.46168 0.10401 0.87117 0.0
C714 C 0.50833 0.13913 0.88836 0.0
C715 C 0.49917 0.16756 0.87416 0.0
C716 C 0.47403 0.16257 0.85679 0.0
C717 C 0.45518 0.13109 0.85545 0.0
C718 C 0.49214 0.26391 0.8883 0.0
C719 C 0.52766 0.27452 0.88936 0.0
C720 C 0.48342 0.22906 0.88367 0.0
C721 C 0.50991 0.20382 0.8801 0.0
C722 C 0.54549 0.21363 0.88239 0.0
C723 C 0.55437 0.24894 0.88689 0.0
H724 H 0.38433 0.44312 0.92459 0.0
H725 H 0.38416 0.47496 0.85377 0.0
H726 H 0.33385 0.48146 0.93208 0.0
H727 H 0.33281 0.51293 0.86105 0.0
H728 H 0.23924 0.58058 0.88319 0.0
H729 H 0.30195 0.56363 0.8834 0.0
H730 H 0.27437 0.46523 0.91636 0.0
H731 H 0.21251 0.48182 0.91589 0.0
C732 C 0.37384 0.45908 0.91078 0.0
C733 C 0.38726 0.45586 0.88855 0.0
C734 C 0.34515 0.48102 0.91505 0.0
C735 C 0.32916 0.49961 0.89706 0.0
C736 C 0.3448 0.49898 0.87523 0.0
C737 C 0.37389 0.47716 0.87101 0.0
C738 C 0.24693 0.55577 0.89095 0.0
C739 C 0.22127 0.5323 0.89939 0.0
C740 C 0.28261 0.54607 0.89098 0.0
C741 C 0.29292 0.51323 0.89996 0.0
C742 C 0.26729 0.49093 0.90963 0.0
C743 C 0.23184 0.50027 0.90921 0.0
H744 H 0.03095 0.20635 0.88271 0.0
H745 H 0.92207 0.24076 0.88551 0.0
H746 H 0.04957 0.26592 0.87431 0.0
H747 H 0.94131 0.30147 0.87704 0.0
H748 H 0.01589 0.4044 0.89418 0.0
H749 H 0.98153 0.34972 0.89651 0.0
H750 H 0.04176 0.30655 0.84037 0.0
H751 H 0.07635 0.3609 0.83835 0.0
C752 C 0.01089 0.22664 0.88155 0.0
C753 C 0.97494 0.21867 0.88456 0.0
C754 C 0.0216 0.26079 0.87652 0.0
C755 C 0.99675 0.28802 0.8744 0.0
C756 C 0.96087 0.2807 0.87831 0.0
C757 C 0.94996 0.24612 0.88326 0.0
C758 C 0.02055 0.38384 0.88166 0.0
C759 C 0.04857 0.3866 0.86603 0.0
C760 C 0.00101 0.35254 0.88307 0.0
C761 C 0.00949 0.32387 0.86888 0.0
C762 C 0.03512 0.32819 0.85172 0.0
C763 C 0.05478 0.3592 0.85048 0.0
H764 H 0.29114 0.02452 0.8857 0.0
H765 H 0.25877 0.91505 0.89033 0.0
H766 H 0.23089 0.04155 0.87758 0.0
H767 H 0.1976 0.93265 0.88218 0.0
H768 H 0.09369 0.00681 0.89872 0.0
H769 H 0.14895 0.97352 0.90171 0.0
H770 H 0.19015 0.03002 0.84335 0.0
H771 H 0.13524 0.06345 0.8406 0.0
C772 C 0.27116 0.00404 0.88509 0.0
C773 C 0.27985 0.96837 0.88846 0.0
C774 C 0.23666 0.01381 0.88022 0.0
C775 C 0.20993 0.98825 0.87866 0.0
C776 C 0.21799 0.95271 0.88303 0.0
C777 C 0.25286 0.94276 0.88778 0.0
C778 C 0.11394 0.01074 0.88588 0.0
C779 C 0.11052 0.03748 0.8694 0.0
C780 C 0.14554 0.99187 0.88766 0.0
C781 C 0.17382 -0.0002 0.87301 0.0
C782 C 0.1688 0.02389 0.85504 0.0
C783 C 0.13746 0.04283 0.85338 0.0
H784 H 0.07665 0.73599 0.6361 0.0
H785 H 0.96816 0.70206 0.64418 0.0
H786 H 0.05856 0.79713 0.64394 0.0
H787 H 0.95062 0.76222 0.65188 0.0
H788 H 0.92806 0.86007 0.68624 0.0
H789 H 0.96133 0.805 0.68408 0.0
H790 H 0.01766 0.84445 0.62513 0.0
H791 H 0.98464 0.89991 0.62761 0.0
C792 C 0.04905 0.74153 0.63939 0.0
C793 C 0.02389 0.71412 0.63969 0.0
C794 C 0.03881 0.7764 0.64395 0.0
C795 C 0.00341 0.7841 0.64908 0.0
C796 C 0.97829 0.75685 0.64866 0.0
C797 C 0.98835 0.72236 0.64401 0.0
C798 C 0.94854 0.8574 0.67341 0.0
C799 C 0.95402 0.88397 0.65715 0.0
C800 C 0.9674 0.82595 0.67208 0.0
C801 C 0.99149 0.82037 0.65417 0.0
C802 C -0.00065 0.84823 0.63915 0.0
C803 C 0.98061 0.87996 0.64063 0.0
H804 H 0.78599 0.97037 0.64743 0.0
H805 H 0.75697 0.07984 0.63742 0.0
H806 H 0.72521 0.95571 0.65538 0.0
H807 H 0.69501 0.06461 0.64546 0.0
H808 H 0.59101 0.9906 0.62802 0.0
H809 H 0.64659 0.02379 0.62648 0.0
H810 H 0.68235 0.96984 0.6873 0.0
H811 H 0.62739 0.93617 0.68837 0.0
C812 C 0.76665 0.99142 0.64691 0.0
C813 C 0.77645 0.02637 0.64193 0.0
C814 C 0.73178 0.98301 0.65172 0.0
C815 C 0.70565 0.00923 0.65163 0.0
C816 C 0.71489 0.04407 0.64591 0.0
C817 C 0.7502 0.05266 0.64122 0.0
C818 C 0.61016 0.9872 0.64161 0.0
C819 C 0.60536 0.96094 0.65827 0.0
C820 C 0.6419 0.00609 0.64072 0.0
C821 C 0.66886 -0.00125 0.65651 0.0
C822 C 0.6621 0.9755 0.67472 0.0
C823 C 0.63072 0.95639 0.67542 0.0
H824 H 0.57021 0.63344 0.68213 0.0
H825 H 0.50607 0.59041 0.62782 0.0
H826 H 0.53753 0.68884 0.68001 0.0
H827 H 0.47356 0.64623 0.62537 0.0
H828 H 0.41765 0.75697 0.63789 0.0
H829 H 0.4358 0.69581 0.64553 0.0
H830 H 0.54505 0.72869 0.64539 0.0
H831 H 0.52744 0.78894 0.63781 0.0
C832 C 0.54821 0.63552 0.67034 0.0
C833 C 0.54044 0.60796 0.65519 0.0
C834 C 0.52969 0.66715 0.66901 0.0
C835 C 0.50361 0.67186 0.6522 0.0
C836 C 0.49349 0.64311 0.63851 0.0
C837 C 0.51193 0.6112 0.63998 0.0
C838 C 0.44553 0.75095 0.63926 0.0
C839 C 0.4711 0.77785 0.6375 0.0
C840 C 0.45581 0.71609 0.64373 0.0
C841 C 0.49168 0.70792 0.64667 0.0
C842 C 0.51713 0.73453 0.6439 0.0
C843 C 0.507 0.76903 0.63935 0.0
H844 H 0.86219 0.56212 0.68463 0.0
H845 H 0.90393 0.50136 0.62837 0.0
H846 H 0.80687 0.52918 0.68236 0.0
H847 H 0.84818 0.46859 0.6258 0.0
H848 H 0.73663 0.41268 0.63796 0.0
H849 H 0.79813 0.42963 0.64598 0.0
H850 H 0.76717 0.53934 0.64745 0.0
H851 H 0.70671 0.52297 0.63944 0.0
C852 C 0.85991 0.54072 0.67239 0.0
C853 C 0.88703 0.53406 0.65672 0.0
C854 C 0.82833 0.52204 0.671 0.0
C855 C 0.82322 0.49692 0.65362 0.0
C856 C 0.85163 0.48775 0.63939 0.0
C857 C 0.8835 0.50634 0.64093 0.0
C858 C 0.74315 0.4404 0.63979 0.0
C859 C 0.71673 0.46646 0.63831 0.0
C860 C 0.77819 0.44999 0.64447 0.0
C861 C 0.78698 0.48563 0.64795 0.0
C862 C 0.76083 0.51156 0.64553 0.0
C863 C 0.7262 0.50214 0.64074 0.0
H864 H 0.67179 0.21342 0.15876 0.0
H865 H 0.68895 0.16186 0.09385 0.0
H866 H 0.71789 0.25613 0.14981 0.0
H867 H 0.73575 0.20477 0.08491 0.0
H868 H 0.84904 0.25727 0.10087 0.0
H869 H 0.79777 0.21761 0.10239 0.0
H870 H 0.73153 0.30514 0.12213 0.0
H871 H 0.7821 0.34457 0.1206 0.0
C872 C 0.68499 0.21165 0.14236 0.0
C873 C 0.67662 0.18441 0.12697 0.0
C874 C 0.71142 0.23615 0.13722 0.0
C875 C 0.73056 0.23375 0.11669 0.0
C876 C 0.72156 0.20712 0.10092 0.0
C877 C 0.69454 0.18286 0.10592 0.0
C878 C 0.82345 0.26811 0.10522 0.0
C879 C 0.81992 0.30405 0.1109 0.0
C880 C 0.79406 0.24543 0.10596 0.0
C881 C 0.76069 0.25824 0.11258 0.0
C882 C 0.75695 0.29441 0.11725 0.0
C883 C 0.78607 0.31701 0.11633 0.0
H884 H 0.2725 0.65328 0.15938 0.0
H885 H 0.32408 0.69101 0.09815 0.0
H886 H 0.23167 0.70273 0.15775 0.0
H887 H 0.28298 0.741 0.09666 0.0
H888 H 0.2027 0.81554 0.16963 0.0
H889 H 0.24346 0.76658 0.16506 0.0
H890 H 0.21768 0.76049 0.09323 0.0
H891 H 0.1765 0.81022 0.09782 0.0
C892 C 0.27476 0.67178 0.14532 0.0
C893 C 0.30187 0.66835 0.12907 0.0
C894 C 0.25151 0.70033 0.14449 0.0
C895 C 0.25469 0.72627 0.12741 0.0
C896 C 0.28001 0.72153 0.1101 0.0
C897 C 0.30346 0.69282 0.11093 0.0
C898 C 0.20605 0.80423 0.15274 0.0
C899 C 0.18609 0.81656 0.13414 0.0
C900 C 0.22921 0.77592 0.15017 0.0
C901 C 0.23306 0.75903 0.12892 0.0
C902 C 0.21505 0.77285 0.10985 0.0
C903 C 0.19165 0.80141 0.11245 0.0
H904 H 0.30599 0.66928 0.42616 0.0
H905 H 0.33392 0.71205 0.36012 0.0
H906 H 0.25836 0.71314 0.42944 0.0
H907 H 0.28708 0.75549 0.36347 0.0
H908 H 0.17526 0.78948 0.35819 0.0
H909 H 0.2219 0.74584 0.36164 0.0
H910 H 0.24274 0.78036 0.43072 0.0
H911 H 0.19524 0.82437 0.42733 0.0
C912 C 0.30263 0.68859 0.41267 0.0
C913 C 0.32346 0.68696 0.39275 0.0
C914 C 0.27527 0.71356 0.41451 0.0
C915 C 0.2684 0.73712 0.39644 0.0
C916 C 0.29105 0.73706 0.37741 0.0
C917 C 0.31812 0.71231 0.37557 0.0
C918 C 0.1893 0.78747 0.37429 0.0
C919 C 0.18181 0.81067 0.39238 0.0
C920 C 0.21625 0.7626 0.37621 0.0
C921 C 0.23666 0.76031 0.39623 0.0
C922 C 0.22759 0.78169 0.41503 0.0
C923 C 0.20033 0.80675 0.41311 0.0
H924 H 0.79587 0.30743 0.35567 0.0
H925 H 0.81867 0.30933 0.42803 0.0
H926 H 0.75655 0.25751 0.36121 0.0
H927 H 0.77887 0.2586 0.43362 0.0
H928 H 0.72777 0.14501 0.3701 0.0
H929 H 0.76846 0.19476 0.37092 0.0
H930 H 0.71449 0.23726 0.42981 0.0
H931 H 0.67364 0.187 0.42918 0.0
C932 C 0.79212 0.29745 0.37287 0.0
C933 C 0.81067 0.3122 0.39137 0.0
C934 C 0.76979 0.26856 0.376 0.0
C935 C 0.76534 0.25345 0.39775 0.0
C936 C 0.782 0.26953 0.41662 0.0
C937 C 0.80459 0.29868 0.41345 0.0
C938 C 0.72494 0.16449 0.38355 0.0
C939 C 0.69713 0.16216 0.39938 0.0
C940 C 0.74811 0.19321 0.3839 0.0
C941 C 0.74412 0.22045 0.40006 0.0
C942 C 0.71813 0.2168 0.41708 0.0
C943 C 0.69481 0.18791 0.41673 0.0
H944 H 0.18571 0.67101 0.92711 0.0
H945 H 0.1465 0.72601 0.86756 0.0
H946 H 0.23601 0.71175 0.9289 0.0
H947 H 0.19627 0.76656 0.86952 0.0
H948 H 0.30914 0.79507 0.85676 0.0
H949 H 0.25948 0.75502 0.86103 0.0
H950 H 0.25687 0.77613 0.93357 0.0
H951 H 0.30736 0.8166 0.92928 0.0
C952 C 0.18725 0.69231 0.91478 0.0
C953 C 0.16227 0.69494 0.89698 0.0
C954 C 0.21615 0.71557 0.91579 0.0
C955 C 0.22058 0.74179 0.89901 0.0
C956 C 0.19412 0.74603 0.88235 0.0
C957 C 0.16538 0.72293 0.88134 0.0
C958 C 0.29842 0.79085 0.87372 0.0
C959 C 0.31202 0.80927 0.89264 0.0
C960 C 0.26969 0.76812 0.87613 0.0
C961 C 0.25358 0.76316 0.89753 0.0
C962 C 0.26858 0.77964 0.91683 0.0
C963 C 0.29759 0.80261 0.9144 0.0
H964 H 0.71613 0.33461 0.86029 0.0
H965 H 0.67311 0.30726 0.92636 0.0
H966 H 0.75849 0.28672 0.86344 0.0
H967 H 0.71576 0.25861 0.92943 0.0
H968 H 0.79126 0.17455 0.85809 0.0
H969 H 0.74853 0.22207 0.86137 0.0
H970 H 0.78177 0.24111 0.93094 0.0
H971 H 0.82481 0.19268 0.92769 0.0
C972 C 0.71608 0.31871 0.87569 0.0
C973 C 0.69097 0.32457 0.89295 0.0
C974 C 0.7402 0.29102 0.87742 0.0
C975 C 0.73986 0.26825 0.89641 0.0
C976 C 0.71652 0.27557 0.91452 0.0
C977 C 0.69221 0.30352 0.9128 0.0
C978 C 0.78909 0.18837 0.87426 0.0
C979 C 0.81165 0.18007 0.89255 0.0
C980 C 0.76479 0.21585 0.87608 0.0
C981 C 0.76245 0.23603 0.8962 0.0
C982 C 0.78314 0.22617 0.91516 0.0
C983 C 0.80761 0.19835 0.91335 0.0
H984 H 0.8056 0.1702 0.59821 0.0
H985 H 0.82808 0.21018 0.66584 0.0
H986 H 0.75618 0.21205 0.59488 0.0
H987 H 0.77948 0.25168 0.66246 0.0
H988 H 0.68791 0.32016 0.59826 0.0
H989 H 0.73741 0.27844 0.59487 0.0
H990 H 0.71474 0.23911 0.66259 0.0
H991 H 0.66604 0.28048 0.66603 0.0
C992 C 0.80067 0.18856 0.61205 0.0
C993 C 0.8205 0.18666 0.63239 0.0
C994 C 0.77228 0.21235 0.61019 0.0
C995 C 0.76336 0.23447 0.62866 0.0
C996 C 0.78503 0.2343 0.64818 0.0
C997 C 0.81312 0.2107 0.65004 0.0
C998 C 0.69301 0.30192 0.61214 0.0
C999 C 0.6733 0.30387 0.63253 0.0
C1000 C 0.72143 0.27819 0.61024 0.0
C1001 C 0.73054 0.25618 0.62871 0.0
C1002 C 0.70904 0.25641 0.6483 0.0
C1003 C 0.6809 0.27995 0.6502 0.0
H1004 H 0.32335 0.80529 0.59803 0.0
H1005 H 0.27639 0.83323 0.6629 0.0
H1006 H 0.28234 0.75517 0.5948 0.0
H1007 H 0.23593 0.78363 0.65963 0.0
H1008 H 0.17284 0.68759 0.59647 0.0
H1009 H 0.21467 0.73712 0.59298 0.0
H1010 H 0.25031 0.71825 0.66202 0.0
H1011 H 0.20903 0.66937 0.66552 0.0
C1012 C 0.30381 0.8013 0.61131 0.0
C1013 C 0.30346 0.82304 0.63088 0.0
C1014 C 0.28044 0.77254 0.60947 0.0
C1015 C 0.25655 0.76502 0.62722 0.0
C1016 C 0.25465 0.78825 0.64593 0.0
C1017 C 0.27773 0.81686 0.64772 0.0
C1018 C 0.19034 0.69349 0.61063 0.0
C1019 C 0.18737 0.67484 0.63137 0.0
C1020 C 0.21411 0.72192 0.60867 0.0
C1021 C 0.23506 0.73209 0.62745 0.0
C1022 C 0.23385 0.71164 0.64747 0.0
C1023 C 0.21035 0.68344 0.64941 0.0
H1024 H 0.49406 0.00226 0.08502 0.0
H1025 H 0.57275 0.05089 0.04203 0.0
H1026 H 0.46521 0.97727 0.05164 0.0
H1027 H 0.54262 0.02765 1.0081 0.0
H1028 H 0.50602 0.95049 0.95367 0.0
H1029 H 0.53394 0.97449 0.98804 0.0
H1030 H 0.43097 0.98579 0.01923 0.0
H1031 H 0.40373 0.96017 0.98515 0.0
C1032 C 0.50475 0.00822 0.06827 0.0
C1033 C 0.53584 0.0283 0.06617 0.0
C1034 C 0.48804 0.99402 0.04903 0.0
C1035 C 0.50164 -0.00012 0.02696 0.0
C1036 C 0.53176 0.02172 0.02479 0.0
C1037 C 0.54873 0.0357 0.04419 0.0
C1038 C 0.48966 0.95699 0.96828 0.0
C1039 C 0.45291 0.95256 0.96711 0.0
C1040 C 0.5055 0.97153 0.98781 0.0
C1041 C 0.48485 0.98267 1.00652 0.0
C1042 C 0.44799 0.97719 1.00544 0.0
C1043 C 0.43225 0.96225 0.98598 0.0
H1044 H 0.45796 0.49442 0.07348 0.0
H1045 H 0.47283 0.59564 0.04136 0.0
H1046 H 0.48316 0.46502 0.03997 0.0
H1047 H 0.49943 0.56687 1.00815 0.0
H1048 H 0.51298 0.50039 0.94305 0.0
H1049 H 0.48957 0.53177 0.97595 0.0
H1050 H 0.53746 0.45472 0.02085 0.0
H1051 H 0.55958 0.42241 0.9874 0.0
C1052 C 0.4659 0.51023 0.05892 0.0
C1053 C 0.4625 0.54711 0.05959 0.0
C1054 C 0.48109 0.49354 0.03991 0.0
C1055 C 0.49384 0.51344 0.02128 0.0
C1056 C 0.48959 0.55046 0.02191 0.0
C1057 C 0.47409 0.56706 0.04084 0.0
C1058 C 0.51913 0.49061 0.96001 0.0
C1059 C 0.5381 0.459 0.96269 0.0
C1060 C 0.50568 0.50863 0.97895 0.0
C1061 C 0.51106 0.4957 1.00123 0.0
C1062 C 0.532 0.46511 1.00397 0.0
C1063 C 0.54535 0.4469 0.98487 0.0
H1064 H 0.00027 0.45474 0.06985 0.0
H1065 H 0.89833 0.46174 0.03751 0.0
H1066 H 0.02823 0.47912 0.03565 0.0
H1067 H 0.92576 0.48734 1.0034 0.0
H1068 H 0.99298 0.50279 0.93834 0.0
H1069 H 0.96261 0.47804 0.97135 0.0
H1070 H 0.03414 0.53406 0.01621 0.0
H1071 H 0.06547 0.55755 0.98285 0.0
C1072 C 0.98403 0.46069 0.05508 0.0
C1073 C 0.94734 0.45561 0.05601 0.0
C1074 C -0.00013 0.4754 0.03566 0.0
C1075 C 0.9793 0.48587 0.01678 0.0
C1076 C 0.94259 0.47942 0.01746 0.0
C1077 C 0.92681 0.46445 0.03689 0.0
C1078 C 0.00181 0.51024 0.9553 0.0
C1079 C 0.03163 0.532 0.95804 0.0
C1080 C 0.98436 0.49608 0.97427 0.0
C1081 C 0.99612 0.50348 0.99658 0.0
C1082 C 0.02479 0.52703 0.99931 0.0
C1083 C 0.04239 0.5411 0.98023 0.0
H1084 H 0.94524 0.07894 0.98811 0.0
H1085 H 0.98056 0.99492 0.944 0.0
H1086 H 0.96785 0.04663 0.02142 0.0
H1087 H 0.00437 0.9633 0.97673 0.0
H1088 H 0.01979 0.9015 0.0433 0.0
H1089 H 0.99373 0.93097 1.01019 0.0
H1090 H 0.02314 0.03229 0.03863 0.0
H1091 H 0.04796 0.00235 0.07208 0.0
C1092 C 0.95709 0.0532 0.98564 0.0
C1093 C 0.96104 0.03934 0.96354 0.0
C1094 C 0.97072 0.03493 1.00463 0.0
C1095 C 0.98862 0.00247 1.00186 0.0
C1096 C 0.99068 0.98796 0.97974 0.0
C1097 C 0.97698 0.00608 0.96091 0.0
C1098 C 0.0216 0.92999 0.04202 0.0
C1099 C 0.03673 0.94966 0.05984 0.0
C1100 C 0.0064 0.94702 0.02315 0.0
C1101 C 0.00592 0.98421 0.02167 0.0
C1102 C 0.02229 0.00372 0.03928 0.0
C1103 C 0.03728 0.98662 0.05821 0.0
H1104 H 0.92143 0.05285 0.53862 0.0
H1105 H -0.00013 0.00823 0.58351 0.0
H1106 H 0.95394 0.03016 0.50545 0.0
H1107 H 0.03145 0.98417 0.55085 0.0
H1108 H 0.09566 0.96845 0.48504 0.0
H1109 H 0.06651 0.99394 0.5185 0.0
H1110 H 0.96485 0.97551 0.48689 0.0
H1111 H 0.99453 0.9514 0.45321 0.0
C1112 C 0.94599 0.03882 0.54133 0.0
C1113 C 0.95812 0.03226 0.56359 0.0
C1114 C 0.96434 0.02517 0.52239 0.0
C1115 C 0.99514 0.00461 0.52536 0.0
C1116 C 0.00809 -0.00011 0.54769 0.0
C1117 C 0.98992 0.01367 0.56649 0.0
C1118 C 0.06707 0.96886 0.48569 0.0
C1119 C 0.04725 0.95715 0.4669 0.0
C1120 C 0.05024 0.98378 0.50476 0.0
C1121 C 0.01315 0.9873 0.50545 0.0
C1122 C 0.9934 0.97407 0.48689 0.0
C1123 C 0.01029 0.95945 0.46779 0.0
H1124 H 0.49673 0.00135 0.44277 0.0
H1125 H 0.56128 0.06673 0.4864 0.0
H1126 H 0.47246 0.9715 0.47607 0.0
H1127 H 0.53862 0.03547 0.51997 0.0
H1128 H 0.46334 0.00457 0.57649 0.0
H1129 H 0.48678 0.03249 0.54206 0.0
H1130 H 0.48014 0.9324 0.50659 0.0
H1131 H 0.45516 0.90525 0.54096 0.0
C1132 C 0.50632 0.00876 0.45957 0.0
C1133 C 0.5307 0.03656 0.462 0.0
C1134 C 0.49251 0.9915 0.47872 0.0
C1135 C 0.50301 0.00127 0.50092 0.0
C1136 C 0.5291 0.02775 0.50323 0.0
C1137 C 0.54271 0.04528 0.48398 0.0
C1138 C 0.46591 0.98896 0.56104 0.0
C1139 C 0.45676 0.95304 0.56113 0.0
C1140 C 0.48007 0.0047 0.54142 0.0
C1141 C 0.48606 0.98471 0.52147 0.0
C1142 C 0.47569 0.94887 0.52144 0.0
C1143 C 0.46112 0.93325 0.54106 0.0
H1144 H 0.49614 0.50158 0.44236 0.0
H1145 H 0.42157 0.55526 0.48583 0.0
H1146 H 0.52597 0.47764 0.47564 0.0
H1147 H 0.45278 0.53301 0.51964 0.0
H1148 H 0.48904 0.45658 0.57473 0.0
H1149 H 0.46045 0.48059 0.54063 0.0
H1150 H 0.56212 0.48621 0.50708 0.0
H1151 H 0.58994 0.46057 0.54092 0.0
C1152 C 0.48665 0.50893 0.45918 0.0
C1153 C 0.45634 0.53006 0.46149 0.0
C1154 C 0.50392 0.49531 0.47836 0.0
C1155 C 0.49173 0.50282 0.50056 0.0
C1156 C 0.46253 0.52581 0.50288 0.0
C1157 C 0.44497 0.53922 0.48353 0.0
C1158 C 0.50491 0.46187 0.55969 0.0
C1159 C 0.54145 0.4558 0.56012 0.0
C1160 C 0.48872 0.47642 0.5403 0.0
C1161 C 0.50885 0.48593 0.52098 0.0
C1162 C 0.54547 0.47889 0.52136 0.0
C1163 C 0.56153 0.46393 0.54068 0.0
H1164 H 0.03968 0.48932 0.57192 0.0
H1165 H 0.02419 0.5918 0.54169 0.0
H1166 H 0.01434 0.46122 0.53801 0.0
H1167 H 0.9973 0.5643 0.5081 0.0
H1168 H 0.98147 0.50094 0.44202 0.0
H1169 H 0.00587 0.53087 0.47521 0.0
H1170 H 0.96014 0.45111 0.51914 0.0
H1171 H 0.93728 0.42015 0.48537 0.0
C1172 C 0.03159 0.50572 0.55767 0.0
C1173 C 0.03482 0.54258 0.55902 0.0
C1174 C 0.01628 0.48975 0.53844 0.0
C1175 C 0.00321 0.51035 0.52024 0.0
C1176 C 0.00739 0.54736 0.5215 0.0
C1177 C 0.02306 0.56324 0.54066 0.0
C1178 C 0.97616 0.49013 0.45884 0.0
C1179 C 0.95764 0.45813 0.46112 0.0
C1180 C 0.99012 0.50737 0.47796 0.0
C1181 C 0.98559 0.49332 0.50003 0.0
C1182 C 0.96502 0.46235 0.50241 0.0
C1183 C 0.95125 0.44489 0.48313 0.0
H1184 H 0.62562 0.08348 0.32774 0.0
H1185 H 0.52373 0.13175 0.31643 0.0
H1186 H 0.6332 0.07728 0.28621 0.0
H1187 H 0.5318 0.12625 0.27518 0.0
H1188 H 0.58115 0.13701 0.20095 0.0
H1189 H 0.57659 0.14914 0.24226 0.0
H1190 H 0.5956 0.03906 0.25671 0.0
H1191 H 0.5992 0.02669 0.21608 0.0
C1192 C 0.60505 0.09299 0.31644 0.0
C1193 C 0.57393 0.10767 0.32539 0.0
C1194 C 0.60939 0.08951 0.29273 0.0
C1195 C 0.5831 0.10147 0.27755 0.0
C1196 C 0.55257 0.11715 0.28648 0.0
C1197 C 0.54788 0.11991 0.31012 0.0
C1198 C 0.58409 0.11546 0.21297 0.0
C1199 C 0.59021 0.08088 0.20514 0.0
C1200 C 0.5816 0.12239 0.23655 0.0
C1201 C 0.58617 0.09503 0.2526 0.0
C1202 C 0.59244 0.06068 0.24473 0.0
C1203 C 0.59412 0.05364 0.22137 0.0
H1204 H 0.41834 0.62658 0.32483 0.0
H1205 H 0.3867 0.51873 0.31163 0.0
H1206 H 0.42347 0.6366 0.28337 0.0
H1207 H 0.39083 0.52919 0.27065 0.0
H1208 H 0.36684 0.57963 0.19844 0.0
H1209 H 0.35827 0.57278 0.23996 0.0
H1210 H 0.46595 0.60542 0.25167 0.0
H1211 H 0.47497 0.61125 0.21066 0.0
C1212 C 0.41249 0.60513 0.31316 0.0
C1213 C 0.40257 0.57179 0.32156 0.0
C1214 C 0.41527 0.61087 0.28951 0.0
C1215 C 0.40718 0.5837 0.2739 0.0
C1216 C 0.39681 0.55064 0.2823 0.0
C1217 C 0.39488 0.54464 0.30581 0.0
C1218 C 0.38864 0.58516 0.2099 0.0
C1219 C 0.42164 0.59556 0.20121 0.0
C1220 C 0.38373 0.58136 0.23359 0.0
C1221 C 0.41143 0.58891 0.24893 0.0
C1222 C 0.44411 0.59982 0.24024 0.0
C1223 C 0.44927 0.60276 0.2167 0.0
H1224 H 0.87887 0.36888 0.20108 0.0
H1225 H 0.93527 0.46812 0.20391 0.0
H1226 H 0.8828 0.36427 0.24287 0.0
H1227 H 0.93758 0.46446 0.24505 0.0
H1228 H 0.96902 0.43284 0.31601 0.0
H1229 H 0.96493 0.43478 0.27487 0.0
H1230 H 0.8599 0.39017 0.27805 0.0
H1231 H 0.86479 0.38653 0.31984 0.0
C1232 C 0.89248 0.38941 0.21052 0.0
C1233 C 0.90686 0.41876 0.19906 0.0
C1234 C 0.89421 0.3871 0.2345 0.0
C1235 C 0.91033 0.4141 0.24746 0.0
C1236 C 0.92541 0.44286 0.2358 0.0
C1237 C 0.92396 0.44501 0.21204 0.0
C1238 C 0.94479 0.42371 0.30809 0.0
C1239 C 0.9172 0.40954 0.32135 0.0
C1240 C 0.9424 0.42495 0.28434 0.0
C1241 C 0.9121 0.41259 0.27296 0.0
C1242 C 0.88387 0.39942 0.2862 0.0
C1243 C 0.88639 0.3979 0.31017 0.0
H1244 H 0.06076 0.97261 0.31955 0.0
H1245 H 0.11613 0.87292 0.32241 0.0
H1246 H 0.05699 0.96807 0.27842 0.0
H1247 H 0.11097 0.8676 0.28073 0.0
H1248 H 0.12783 0.88881 0.20364 0.0
H1249 H 0.13356 0.89342 0.2453 0.0
H1250 H 0.02837 0.93726 0.24907 0.0
H1251 H 0.02328 0.93407 0.20792 0.0
C1252 C 0.07159 0.94927 0.31144 0.0
C1253 C 0.08877 0.92311 0.3244 0.0
C1254 C 0.0693 0.94662 0.28771 0.0
C1255 C 0.08376 0.91752 0.27611 0.0
C1256 C 0.10003 0.89068 0.28906 0.0
C1257 C 0.10249 0.89342 0.31299 0.0
C1258 C 0.10631 0.90015 0.21337 0.0
C1259 C 0.07518 0.91119 0.20236 0.0
C1260 C 0.10934 0.90226 0.23729 0.0
C1261 C 0.08134 0.91549 0.25065 0.0
C1262 C 0.0507 0.92733 0.23945 0.0
C1263 C 0.04775 0.9254 0.21572 0.0
H1264 H 0.41684 0.86267 0.8263 0.0
H1265 H 0.38967 0.97219 0.81513 0.0
H1266 H 0.42078 0.85407 0.78462 0.0
H1267 H 0.39248 0.96314 0.77395 0.0
H1268 H 0.3654 0.91557 0.70104 0.0
H1269 H 0.35714 0.92009 0.74276 0.0
H1270 H 0.46495 0.88725 0.75333 0.0
H1271 H 0.47368 0.88384 0.71216 0.0
C1272 C 0.41168 0.88477 0.81503 0.0
C1273 C 0.40344 0.91817 0.82405 0.0
C1274 C 0.41374 0.87983 0.79126 0.0
C1275 C 0.40652 0.90792 0.77619 0.0
C1276 C 0.39774 0.94102 0.7852 0.0
C1277 C 0.39658 0.94619 0.80882 0.0
C1278 C 0.38727 0.90946 0.71231 0.0
C1279 C 0.42027 0.89984 0.70329 0.0
C1280 C 0.38254 0.91191 0.73609 0.0
C1281 C 0.41039 0.90366 0.75114 0.0
C1282 C 0.44301 0.89336 0.7421 0.0
C1283 C 0.44801 0.89183 0.71849 0.0
H1284 H 0.57536 0.36455 0.69994 0.0
H1285 H 0.60396 0.47367 0.71159 0.0
H1286 H 0.56942 0.35612 0.74154 0.0
H1287 H 0.59913 0.46478 0.75268 0.0
H1288 H 0.62505 0.41634 0.82536 0.0
H1289 H 0.63326 0.4216 0.78376 0.0
H1290 H 0.52528 0.38927 0.77295 0.0
H1291 H 0.51657 0.38506 0.81416 0.0
C1292 C 0.58038 0.38661 0.71129 0.0
C1293 C 0.58971 0.41983 0.70242 0.0
C1294 C 0.5771 0.38178 0.73502 0.0
C1295 C 0.58416 0.40979 0.75021 0.0
C1296 C 0.5939 0.44273 0.74134 0.0
C1297 C 0.59628 0.4478 0.71777 0.0
C1298 C 0.60307 0.41058 0.81409 0.0
C1299 C 0.57009 0.40072 0.8231 0.0
C1300 C 0.60779 0.41343 0.79035 0.0
C1301 C 0.57993 0.40547 0.77525 0.0
C1302 C 0.54722 0.39516 0.78423 0.0
C1303 C 0.54224 0.39317 0.80785 0.0
H1304 H 0.13405 0.58201 0.69763 0.0
H1305 H 0.02246 0.59216 0.71192 0.0
H1306 H 0.14583 0.57849 0.73895 0.0
H1307 H 0.0345 0.5897 0.75273 0.0
H1308 H 0.07816 0.62427 0.82395 0.0
H1309 H 0.07116 0.631 0.78233 0.0
H1310 H 0.12479 0.53188 0.77168 0.0
H1311 H 0.13096 0.5246 0.81293 0.0
C1312 C 0.11212 0.58334 0.70949 0.0
C1313 C 0.07733 0.58704 0.70141 0.0
C1314 C 0.11886 0.58151 0.73308 0.0
C1315 C 0.09105 0.58433 0.74894 0.0
C1316 C 0.05642 0.58798 0.74087 0.0
C1317 C 0.04959 0.58896 0.71743 0.0
C1318 C 0.08858 0.6041 0.81268 0.0
C1319 C 0.10473 0.57377 0.82169 0.0
C1320 C 0.08459 0.60791 0.78894 0.0
C1321 C 0.09757 0.58195 0.77389 0.0
C1322 C 0.11482 0.55235 0.7829 0.0
C1323 C 0.11803 0.54812 0.80652 0.0
H1324 H 0.87174 0.11282 0.82241 0.0
H1325 H 0.97297 0.06043 0.81904 0.0
H1326 H 0.8661 0.10761 0.78075 0.0
H1327 H 0.968 0.05649 0.7779 0.0
H1328 H 0.93337 0.02171 0.70762 0.0
H1329 H 0.93709 0.02687 0.74876 0.0
H1330 H 0.89147 0.13132 0.74525 0.0
H1331 H 0.88645 0.12555 0.70359 0.0
C1332 C 0.8925 0.09978 0.81288 0.0
C1333 C 0.92273 0.08694 0.82413 0.0
C1334 C 0.88956 0.09731 0.78898 0.0
C1335 C 0.91672 0.08186 0.77588 0.0
C1336 C 0.94635 0.0682 0.78732 0.0
C1337 C 0.94923 0.07055 0.81104 0.0
C1338 C 0.92442 0.04603 0.71548 0.0
C1339 C 0.90961 0.07324 0.7022 0.0
C1340 C 0.92665 0.04902 0.73919 0.0
C1341 C 0.91445 0.07945 0.75045 0.0
C1342 C 0.90061 0.10726 0.73717 0.0
C1343 C 0.89826 0.10422 0.71327 0.0
loop_
_geom_bond_atom_site_label_1
_geom_bond_atom_site_label_2
_geom_bond_distance
_geom_bond_site_symmetry_2
_ccdc_geom_bond_type
Co0 O3 1.970 . S
Co0 N17 1.989 . S
Co0 O25 1.967 . S
Co0 O32 1.920 . S
Co1 O4 1.966 1_565 S
Co1 N10 2.022 . S
Co1 N18 1.993 1_565 S
Co1 O26 1.941 . S
C2 O3 1.258 . S
C2 O4 1.263 . S
O3 Co0 1.970 . S
O3 C2 1.258 . S
O4 Co1 1.966 1_545 S
O4 C2 1.263 . S
C5 O6 1.235 . S
C5 O32 1.289 . S
O6 C5 1.235 . S
C7 C9 1.400 . S
C7 N10 1.351 . S
C7 C12 1.501 . S
C8 C9 1.387 . S
C8 N11 1.341 . S
C9 C7 1.400 . S
C9 C8 1.387 . S
N10 Co1 2.022 . S
N10 C7 1.351 . S
N10 N11 1.365 . S
N11 C8 1.341 . S
N11 N10 1.365 . S
N11 H31 0.862 . S
C12 C7 1.501 . S
C12 H13 0.961 . S
C12 H14 0.961 . S
C12 H15 0.960 . S
H13 C12 0.961 . S
H14 C12 0.961 . S
H15 C12 0.960 . S
C16 N17 1.342 . S
C16 C20 1.401 . S
C16 C21 1.499 . S
N17 Co0 1.989 . S
N17 C16 1.342 . S
N17 N18 1.388 . S
N18 Co1 1.993 1_545 S
N18 N17 1.388 . S
N18 C19 1.346 . S
C19 N18 1.346 . S
C19 C20 1.396 . S
C19 C29 1.510 1_545 S
C20 C16 1.401 . S
C20 C19 1.396 . S
C21 C16 1.499 . S
C21 H22 0.959 . S
C21 H23 0.960 . S
C21 H24 0.961 . S
H22 C21 0.959 . S
H23 C21 0.960 . S
H24 C21 0.961 . S
O25 Co0 1.967 . S
O25 C33 1.258 . S
O26 Co1 1.941 . S
O26 C33 1.266 1_565 S
H27 C29 0.959 . S
H28 C29 0.961 . S
C29 C19 1.510 1_565 S
C29 H27 0.959 . S
C29 H28 0.961 . S
C29 H30 0.960 . S
H30 C29 0.960 . S
H31 N11 0.862 . S
O32 Co0 1.920 . S
O32 C5 1.289 . S
C33 O25 1.258 . S
C33 O26 1.266 1_545 S
Co34 O37 1.970 . S
Co34 N51 1.989 . S
Co34 O59 1.967 . S
Co34 O66 1.920 . S
Co35 O38 1.966 . S
Co35 N44 2.022 . S
Co35 N52 1.993 . S
Co35 O60 1.941 . S
C36 O37 1.258 . S
C36 O38 1.263 . S
O37 Co34 1.970 . S
O37 C36 1.258 . S
O38 Co35 1.966 . S
O38 C36 1.263 . S
C39 O40 1.235 . S
C39 O66 1.289 . S
O40 C39 1.235 . S
C41 C43 1.400 . S
C41 N44 1.351 . S
C41 C46 1.501 . S
C42 C43 1.387 . S
C42 N45 1.341 . S
C43 C41 1.400 . S
C43 C42 1.387 . S
N44 Co35 2.022 . S
N44 C41 1.351 . S
N44 N45 1.365 . S
N45 C42 1.341 . S
N45 N44 1.365 . S
N45 H65 0.862 . S
C46 C41 1.501 . S
C46 H47 0.961 . S
C46 H48 0.961 . S
C46 H49 0.960 . S
H47 C46 0.961 . S
H48 C46 0.961 . S
H49 C46 0.960 . S
C50 N51 1.342 . S
C50 C54 1.401 . S
C50 C55 1.499 . S
N51 Co34 1.989 . S
N51 C50 1.342 . S
N51 N52 1.388 . S
N52 Co35 1.993 . S
N52 N51 1.388 . S
N52 C53 1.346 . S
C53 N52 1.346 . S
C53 C54 1.396 . S
C53 C63 1.510 . S
C54 C50 1.401 . S
C54 C53 1.396 . S
C55 C50 1.499 . S
C55 H56 0.959 . S
C55 H57 0.960 . S
C55 H58 0.961 . S
H56 C55 0.959 . S
H57 C55 0.960 . S
H58 C55 0.961 . S
O59 Co34 1.967 . S
O59 C67 1.258 . S
O60 Co35 1.941 . S
O60 C67 1.266 . S
H61 C63 0.959 . S
H62 C63 0.961 . S
C63 C53 1.510 . S
C63 H61 0.959 . S
C63 H62 0.961 . S
C63 H64 0.960 . S
H64 C63 0.960 . S
H65 N45 0.862 . S
O66 Co34 1.920 . S
O66 C39 1.289 . S
C67 O59 1.258 . S
C67 O60 1.266 . S
Co68 O71 1.970 . S
Co68 N85 1.989 . S
Co68 O93 1.967 . S
Co68 O100 1.920 . S
Co69 O72 1.966 . S
Co69 N78 2.022 . S
Co69 N86 1.993 . S
Co69 O94 1.941 . S
C70 O71 1.258 . S
C70 O72 1.263 . S
O71 Co68 1.970 . S
O71 C70 1.258 . S
O72 Co69 1.966 . S
O72 C70 1.263 . S
C73 O74 1.235 . S
C73 O100 1.289 . S
O74 C73 1.235 . S
C75 C77 1.400 . S
C75 N78 1.351 . S
C75 C80 1.501 . S
C76 C77 1.387 . S
C76 N79 1.341 . S
C77 C75 1.400 . S
C77 C76 1.387 . S
N78 Co69 2.022 . S
N78 C75 1.351 . S
N78 N79 1.365 . S
N79 C76 1.341 . S
N79 N78 1.365 . S
N79 H99 0.862 . S
C80 C75 1.501 . S
C80 H81 0.961 . S
C80 H82 0.961 . S
C80 H83 0.960 . S
H81 C80 0.961 . S
H82 C80 0.961 . S
H83 C80 0.960 . S
C84 N85 1.342 . S
C84 C88 1.401 . S
C84 C89 1.499 . S
N85 Co68 1.989 . S
N85 C84 1.342 . S
N85 N86 1.388 . S
N86 Co69 1.993 . S
N86 N85 1.388 . S
N86 C87 1.346 . S
C87 N86 1.346 . S
C87 C88 1.396 . S
C87 C97 1.510 . S
C88 C84 1.401 . S
C88 C87 1.396 . S
C89 C84 1.499 . S
C89 H90 0.959 . S
C89 H91 0.960 . S
C89 H92 0.961 . S
H90 C89 0.959 . S
H91 C89 0.960 . S
H92 C89 0.961 . S
O93 Co68 1.967 . S
O93 C101 1.258 . S
O94 Co69 1.941 . S
O94 C101 1.266 . S
H95 C97 0.959 . S
H96 C97 0.961 . S
C97 C87 1.510 . S
C97 H95 0.959 . S
C97 H96 0.961 . S
C97 H98 0.960 . S
H98 C97 0.960 . S
H99 N79 0.862 . S
O100 Co68 1.920 . S
O100 C73 1.289 . S
C101 O93 1.258 . S
C101 O94 1.266 . S
Co102 O105 1.970 . S
Co102 N119 1.989 . S
Co102 O127 1.967 . S
Co102 O134 1.920 . S
Co103 O106 1.966 1_655 S
Co103 N112 2.022 . S
Co103 N120 1.993 1_655 S
Co103 O128 1.941 . S
C104 O105 1.258 . S
C104 O106 1.263 . S
O105 Co102 1.970 . S
O105 C104 1.258 . S
O106 Co103 1.966 1_455 S
O106 C104 1.263 . S
C107 O108 1.235 . S
C107 O134 1.289 . S
O108 C107 1.235 . S
C109 C111 1.400 . S
C109 N112 1.351 . S
C109 C114 1.501 . S
C110 C111 1.387 . S
C110 N113 1.341 . S
C111 C109 1.400 . S
C111 C110 1.387 . S
N112 Co103 2.022 . S
N112 C109 1.351 . S
N112 N113 1.365 . S
N113 C110 1.341 . S
N113 N112 1.365 . S
N113 H133 0.862 . S
C114 C109 1.501 . S
C114 H115 0.961 . S
C114 H116 0.961 . S
C114 H117 0.960 . S
H115 C114 0.961 . S
H116 C114 0.961 . S
H117 C114 0.960 . S
C118 N119 1.342 . S
C118 C122 1.401 . S
C118 C123 1.499 . S
N119 Co102 1.989 . S
N119 C118 1.342 . S
N119 N120 1.388 . S
N120 Co103 1.993 1_455 S
N120 N119 1.388 . S
N120 C121 1.346 . S
C121 N120 1.346 . S
C121 C122 1.396 . S
C121 C131 1.510 1_455 S
C122 C118 1.401 . S
C122 C121 1.396 . S
C123 C118 1.499 . S
C123 H124 0.959 . S
C123 H125 0.960 . S
C123 H126 0.961 . S
H124 C123 0.959 . S
H125 C123 0.960 . S
H126 C123 0.961 . S
O127 Co102 1.967 . S
O127 C135 1.258 . S
O128 Co103 1.941 . S
O128 C135 1.266 1_655 S
H129 C131 0.959 . S
H130 C131 0.961 . S
C131 C121 1.510 1_655 S
C131 H129 0.959 . S
C131 H130 0.961 . S
C131 H132 0.960 . S
H132 C131 0.960 . S
H133 N113 0.862 . S
O134 Co102 1.920 . S
O134 C107 1.289 . S
C135 O127 1.258 . S
C135 O128 1.266 1_455 S
Co136 O139 1.970 . S
Co136 N153 1.989 . S
Co136 O161 1.967 . S
Co136 O168 1.920 . S
Co137 O140 1.966 1_545 S
Co137 N146 2.022 . S
Co137 N154 1.993 1_545 S
Co137 O162 1.941 . S
C138 O139 1.258 . S
C138 O140 1.263 . S
O139 Co136 1.970 . S
O139 C138 1.258 . S
O140 Co137 1.966 1_565 S
O140 C138 1.263 . S
C141 O142 1.235 . S
C141 O168 1.289 . S
O142 C141 1.235 . S
C143 C145 1.400 . S
C143 N146 1.351 . S
C143 C148 1.501 . S
C144 C145 1.387 . S
C144 N147 1.341 . S
C145 C143 1.400 . S
C145 C144 1.387 . S
N146 Co137 2.022 . S
N146 C143 1.351 . S
N146 N147 1.365 . S
N147 C144 1.341 . S
N147 N146 1.365 . S
N147 H167 0.862 . S
C148 C143 1.501 . S
C148 H149 0.961 . S
C148 H150 0.961 . S
C148 H151 0.960 . S
H149 C148 0.961 . S
H150 C148 0.961 . S
H151 C148 0.960 . S
C152 N153 1.342 . S
C152 C156 1.401 . S
C152 C157 1.499 . S
N153 Co136 1.989 . S
N153 C152 1.342 . S
N153 N154 1.388 . S
N154 Co137 1.993 1_565 S
N154 N153 1.388 . S
N154 C155 1.346 . S
C155 N154 1.346 . S
C155 C156 1.396 . S
C155 C165 1.510 1_565 S
C156 C152 1.401 . S
C156 C155 1.396 . S
C157 C152 1.499 . S
C157 H158 0.959 . S
C157 H159 0.960 . S
C157 H160 0.961 . S
H158 C157 0.959 . S
H159 C157 0.960 . S
H160 C157 0.961 . S
O161 Co136 1.967 . S
O161 C169 1.258 . S
O162 Co137 1.941 . S
O162 C169 1.266 1_545 S
H163 C165 0.959 . S
H164 C165 0.961 . S
C165 C155 1.510 1_545 S
C165 H163 0.959 . S
C165 H164 0.961 . S
C165 H166 0.960 . S
H166 C165 0.960 . S
H167 N147 0.862 . S
O168 Co136 1.920 . S
O168 C141 1.289 . S
C169 O161 1.258 . S
C169 O162 1.266 1_565 S
Co170 O173 1.970 . S
Co170 N187 1.989 . S
Co170 O195 1.967 . S
Co170 O202 1.920 . S
Co171 O174 1.966 . S
Co171 N180 2.022 . S
Co171 N188 1.993 . S
Co171 O196 1.941 . S
C172 O173 1.258 . S
C172 O174 1.263 . S
O173 Co170 1.970 . S
O173 C172 1.258 . S
O174 Co171 1.966 . S
O174 C172 1.263 . S
C175 O176 1.235 . S
C175 O202 1.289 . S
O176 C175 1.235 . S
C177 C179 1.400 . S
C177 N180 1.351 . S
C177 C182 1.501 . S
C178 C179 1.387 . S
C178 N181 1.341 . S
C179 C177 1.400 . S
C179 C178 1.387 . S
N180 Co171 2.022 . S
N180 C177 1.351 . S
N180 N181 1.365 . S
N181 C178 1.341 . S
N181 N180 1.365 . S
N181 H201 0.862 . S
C182 C177 1.501 . S
C182 H183 0.961 . S
C182 H184 0.961 . S
C182 H185 0.960 . S
H183 C182 0.961 . S
H184 C182 0.961 . S
H185 C182 0.960 . S
C186 N187 1.342 . S
C186 C190 1.401 . S
C186 C191 1.499 . S
N187 Co170 1.989 . S
N187 C186 1.342 . S
N187 N188 1.388 . S
N188 Co171 1.993 . S
N188 N187 1.388 . S
N188 C189 1.346 . S
C189 N188 1.346 . S
C189 C190 1.396 . S
C189 C199 1.510 . S
C190 C186 1.401 . S
C190 C189 1.396 . S
C191 C186 1.499 . S
C191 H192 0.959 . S
C191 H193 0.960 . S
C191 H194 0.961 . S
H192 C191 0.959 . S
H193 C191 0.960 . S
H194 C191 0.961 . S
O195 Co170 1.967 . S
O195 C203 1.258 . S
O196 Co171 1.941 . S
O196 C203 1.266 . S
H197 C199 0.959 . S
H198 C199 0.961 . S
C199 C189 1.510 . S
C199 H197 0.959 . S
C199 H198 0.961 . S
C199 H200 0.960 . S
H200 C199 0.960 . S
H201 N181 0.862 . S
O202 Co170 1.920 . S
O202 C175 1.289 . S
C203 O195 1.258 . S
C203 O196 1.266 . S
Co204 O207 1.970 . S
Co204 N221 1.989 . S
Co204 O229 1.967 . S
Co204 O236 1.920 . S
Co205 O208 1.966 . S
Co205 N214 2.022 . S
Co205 N222 1.993 . S
Co205 O230 1.941 . S
C206 O207 1.258 . S
C206 O208 1.263 . S
O207 Co204 1.970 . S
O207 C206 1.258 . S
O208 Co205 1.966 . S
O208 C206 1.263 . S
C209 O210 1.235 . S
C209 O236 1.289 . S
O210 C209 1.235 . S
C211 C213 1.400 . S
C211 N214 1.351 . S
C211 C216 1.501 . S
C212 C213 1.387 . S
C212 N215 1.341 . S
C213 C211 1.400 . S
C213 C212 1.387 . S
N214 Co205 2.022 . S
N214 C211 1.351 . S
N214 N215 1.365 . S
N215 C212 1.341 . S
N215 N214 1.365 . S
N215 H235 0.862 . S
C216 C211 1.501 . S
C216 H217 0.961 . S
C216 H218 0.961 . S
C216 H219 0.960 . S
H217 C216 0.961 . S
H218 C216 0.961 . S
H219 C216 0.960 . S
C220 N221 1.342 . S
C220 C224 1.401 . S
C220 C225 1.499 . S
N221 Co204 1.989 . S
N221 C220 1.342 . S
N221 N222 1.388 . S
N222 Co205 1.993 . S
N222 N221 1.388 . S
N222 C223 1.346 . S
C223 N222 1.346 . S
C223 C224 1.396 . S
C223 C233 1.510 . S
C224 C220 1.401 . S
C224 C223 1.396 . S
C225 C220 1.499 . S
C225 H226 0.959 . S
C225 H227 0.960 . S
C225 H228 0.961 . S
H226 C225 0.959 . S
H227 C225 0.960 . S
H228 C225 0.961 . S
O229 Co204 1.967 . S
O229 C237 1.258 . S
O230 Co205 1.941 . S
O230 C237 1.266 . S
H231 C233 0.959 . S
H232 C233 0.961 . S
C233 C223 1.510 . S
C233 H231 0.959 . S
C233 H232 0.961 . S
C233 H234 0.960 . S
H234 C233 0.960 . S
H235 N215 0.862 . S
O236 Co204 1.920 . S
O236 C209 1.289 . S
C237 O229 1.258 . S
C237 O230 1.266 . S
Co238 O241 1.970 . S
Co238 N255 1.989 . S
Co238 O263 1.967 . S
Co238 O270 1.920 . S
Co239 O242 1.966 1_455 S
Co239 N248 2.022 . S
Co239 N256 1.993 1_455 S
Co239 O264 1.941 . S
C240 O241 1.258 . S
C240 O242 1.263 . S
O241 Co238 1.970 . S
O241 C240 1.258 . S
O242 Co239 1.966 1_655 S
O242 C240 1.263 . S
C243 O244 1.235 . S
C243 O270 1.289 . S
O244 C243 1.235 . S
C245 C247 1.400 . S
C245 N248 1.351 . S
C245 C250 1.501 . S
C246 C247 1.387 . S
C246 N249 1.341 . S
C247 C245 1.400 . S
C247 C246 1.387 . S
N248 Co239 2.022 . S
N248 C245 1.351 . S
N248 N249 1.365 . S
N249 C246 1.341 . S
N249 N248 1.365 . S
N249 H269 0.862 . S
C250 C245 1.501 . S
C250 H251 0.961 . S
C250 H252 0.961 . S
C250 H253 0.960 . S
H251 C250 0.961 . S
H252 C250 0.961 . S
H253 C250 0.960 . S
C254 N255 1.342 . S
C254 C258 1.401 . S
C254 C259 1.499 . S
N255 Co238 1.989 . S
N255 C254 1.342 . S
N255 N256 1.388 . S
N256 Co239 1.993 1_655 S
N256 N255 1.388 . S
N256 C257 1.346 . S
C257 N256 1.346 . S
C257 C258 1.396 . S
C257 C267 1.510 1_655 S
C258 C254 1.401 . S
C258 C257 1.396 . S
C259 C254 1.499 . S
C259 H260 0.959 . S
C259 H261 0.960 . S
C259 H262 0.961 . S
H260 C259 0.959 . S
H261 C259 0.960 . S
H262 C259 0.961 . S
O263 Co238 1.967 . S
O263 C271 1.258 . S
O264 Co239 1.941 . S
O264 C271 1.266 1_455 S
H265 C267 0.959 . S
H266 C267 0.961 . S
C267 C257 1.510 1_455 S
C267 H265 0.959 . S
C267 H266 0.961 . S
C267 H268 0.960 . S
H268 C267 0.960 . S
H269 N249 0.862 . S
O270 Co238 1.920 . S
O270 C243 1.289 . S
C271 O263 1.258 . S
C271 O264 1.266 1_655 S
Co272 O275 1.970 . S
Co272 N289 1.989 . S
Co272 O297 1.967 . S
Co272 O304 1.920 . S
Co273 O276 1.966 1_545 S
Co273 N282 2.022 . S
Co273 N290 1.993 1_545 S
Co273 O298 1.941 . S
C274 O275 1.258 . S
C274 O276 1.263 . S
O275 Co272 1.970 . S
O275 C274 1.258 . S
O276 Co273 1.966 1_565 S
O276 C274 1.263 . S
C277 O278 1.235 . S
C277 O304 1.289 . S
O278 C277 1.235 . S
C279 C281 1.400 . S
C279 N282 1.351 . S
C279 C284 1.501 . S
C280 C281 1.387 . S
C280 N283 1.341 . S
C281 C279 1.400 . S
C281 C280 1.387 . S
N282 Co273 2.022 . S
N282 C279 1.351 . S
N282 N283 1.365 . S
N283 C280 1.341 . S
N283 N282 1.365 . S
N283 H303 0.862 . S
C284 C279 1.501 . S
C284 H285 0.961 . S
C284 H286 0.961 . S
C284 H287 0.960 . S
H285 C284 0.961 . S
H286 C284 0.961 . S
H287 C284 0.960 . S
C288 N289 1.342 . S
C288 C292 1.401 . S
C288 C293 1.499 . S
N289 Co272 1.989 . S
N289 C288 1.342 . S
N289 N290 1.388 . S
N290 Co273 1.993 1_565 S
N290 N289 1.388 . S
N290 C291 1.346 . S
C291 N290 1.346 . S
C291 C292 1.396 . S
C291 C301 1.510 1_565 S
C292 C288 1.401 . S
C292 C291 1.396 . S
C293 C288 1.499 . S
C293 H294 0.959 . S
C293 H295 0.960 . S
C293 H296 0.961 . S
H294 C293 0.959 . S
H295 C293 0.960 . S
H296 C293 0.961 . S
O297 Co272 1.967 . S
O297 C305 1.258 . S
O298 Co273 1.941 . S
O298 C305 1.266 1_545 S
H299 C301 0.959 . S
H300 C301 0.961 . S
C301 C291 1.510 1_545 S
C301 H299 0.959 . S
C301 H300 0.961 . S
C301 H302 0.960 . S
H302 C301 0.960 . S
H303 N283 0.862 . S
O304 Co272 1.920 . S
O304 C277 1.289 . S
C305 O297 1.258 . S
C305 O298 1.266 1_565 S
Co306 O309 1.970 . S
Co306 N323 1.989 . S
Co306 O331 1.967 . S
Co306 O338 1.920 . S
Co307 O310 1.966 . S
Co307 N316 2.022 . S
Co307 N324 1.993 . S
Co307 O332 1.941 . S
C308 O309 1.258 . S
C308 O310 1.263 . S
O309 Co306 1.970 . S
O309 C308 1.258 . S
O310 Co307 1.966 . S
O310 C308 1.263 . S
C311 O312 1.235 . S
C311 O338 1.289 . S
O312 C311 1.235 . S
C313 C315 1.400 . S
C313 N316 1.351 . S
C313 C318 1.501 . S
C314 C315 1.387 . S
C314 N317 1.341 . S
C315 C313 1.400 . S
C315 C314 1.387 . S
N316 Co307 2.022 . S
N316 C313 1.351 . S
N316 N317 1.365 . S
N317 C314 1.341 . S
N317 N316 1.365 . S
N317 H337 0.862 . S
C318 C313 1.501 . S
C318 H319 0.961 . S
C318 H320 0.961 . S
C318 H321 0.960 . S
H319 C318 0.961 . S
H320 C318 0.961 . S
H321 C318 0.960 . S
C322 N323 1.342 . S
C322 C326 1.401 . S
C322 C327 1.499 . S
N323 Co306 1.989 . S
N323 C322 1.342 . S
N323 N324 1.388 . S
N324 Co307 1.993 . S
N324 N323 1.388 . S
N324 C325 1.346 . S
C325 N324 1.346 . S
C325 C326 1.396 . S
C325 C335 1.510 . S
C326 C322 1.401 . S
C326 C325 1.396 . S
C327 C322 1.499 . S
C327 H328 0.959 . S
C327 H329 0.960 . S
C327 H330 0.961 . S
H328 C327 0.959 . S
H329 C327 0.960 . S
H330 C327 0.961 . S
O331 Co306 1.967 . S
O331 C339 1.258 . S
O332 Co307 1.941 . S
O332 C339 1.266 . S
H333 C335 0.959 . S
H334 C335 0.961 . S
C335 C325 1.510 . S
C335 H333 0.959 . S
C335 H334 0.961 . S
C335 H336 0.960 . S
H336 C335 0.960 . S
H337 N317 0.862 . S
O338 Co306 1.920 . S
O338 C311 1.289 . S
C339 O331 1.258 . S
C339 O332 1.266 . S
Co340 O343 1.970 . S
Co340 N357 1.989 . S
Co340 O365 1.967 . S
Co340 O372 1.920 . S
Co341 O344 1.966 . S
Co341 N350 2.022 . S
Co341 N358 1.993 . S
Co341 O366 1.941 . S
C342 O343 1.258 . S
C342 O344 1.263 . S
O343 Co340 1.970 . S
O343 C342 1.258 . S
O344 Co341 1.966 . S
O344 C342 1.263 . S
C345 O346 1.235 . S
C345 O372 1.289 . S
O346 C345 1.235 . S
C347 C349 1.400 . S
C347 N350 1.351 . S
C347 C352 1.501 . S
C348 C349 1.387 . S
C348 N351 1.341 . S
C349 C347 1.400 . S
C349 C348 1.387 . S
N350 Co341 2.022 . S
N350 C347 1.351 . S
N350 N351 1.365 . S
N351 C348 1.341 . S
N351 N350 1.365 . S
N351 H371 0.862 . S
C352 C347 1.501 . S
C352 H353 0.961 . S
C352 H354 0.961 . S
C352 H355 0.960 . S
H353 C352 0.961 . S
H354 C352 0.961 . S
H355 C352 0.960 . S
C356 N357 1.342 . S
C356 C360 1.401 . S
C356 C361 1.499 . S
N357 Co340 1.989 . S
N357 C356 1.342 . S
N357 N358 1.388 . S
N358 Co341 1.993 . S
N358 N357 1.388 . S
N358 C359 1.346 . S
C359 N358 1.346 . S
C359 C360 1.396 . S
C359 C369 1.510 . S
C360 C356 1.401 . S
C360 C359 1.396 . S
C361 C356 1.499 . S
C361 H362 0.959 . S
C361 H363 0.960 . S
C361 H364 0.961 . S
H362 C361 0.959 . S
H363 C361 0.960 . S
H364 C361 0.961 . S
O365 Co340 1.967 . S
O365 C373 1.258 . S
O366 Co341 1.941 . S
O366 C373 1.266 . S
H367 C369 0.959 . S
H368 C369 0.961 . S
C369 C359 1.510 . S
C369 H367 0.959 . S
C369 H368 0.961 . S
C369 H370 0.960 . S
H370 C369 0.960 . S
H371 N351 0.862 . S
O372 Co340 1.920 . S
O372 C345 1.289 . S
C373 O365 1.258 . S
C373 O366 1.266 . S
Co374 O377 1.970 . S
Co374 N391 1.989 . S
Co374 O399 1.967 . S
Co374 O406 1.920 . S
Co375 O378 1.966 1_455 S
Co375 N384 2.022 . S
Co375 N392 1.993 1_455 S
Co375 O400 1.941 . S
C376 O377 1.258 . S
C376 O378 1.263 . S
O377 Co374 1.970 . S
O377 C376 1.258 . S
O378 Co375 1.966 1_655 S
O378 C376 1.263 . S
C379 O380 1.235 . S
C379 O406 1.289 . S
O380 C379 1.235 . S
C381 C383 1.400 . S
C381 N384 1.351 . S
C381 C386 1.501 . S
C382 C383 1.387 . S
C382 N385 1.341 . S
C383 C381 1.400 . S
C383 C382 1.387 . S
N384 Co375 2.022 . S
N384 C381 1.351 . S
N384 N385 1.365 . S
N385 C382 1.341 . S
N385 N384 1.365 . S
N385 H405 0.862 . S
C386 C381 1.501 . S
C386 H387 0.961 . S
C386 H388 0.961 . S
C386 H389 0.960 . S
H387 C386 0.961 . S
H388 C386 0.961 . S
H389 C386 0.960 . S
C390 N391 1.342 . S
C390 C394 1.401 . S
C390 C395 1.499 . S
N391 Co374 1.989 . S
N391 C390 1.342 . S
N391 N392 1.388 . S
N392 Co375 1.993 1_655 S
N392 N391 1.388 . S
N392 C393 1.346 . S
C393 N392 1.346 . S
C393 C394 1.396 . S
C393 C403 1.510 1_655 S
C394 C390 1.401 . S
C394 C393 1.396 . S
C395 C390 1.499 . S
C395 H396 0.959 . S
C395 H397 0.960 . S
C395 H398 0.961 . S
H396 C395 0.959 . S
H397 C395 0.960 . S
H398 C395 0.961 . S
O399 Co374 1.967 . S
O399 C407 1.258 . S
O400 Co375 1.941 . S
O400 C407 1.266 1_455 S
H401 C403 0.959 . S
H402 C403 0.961 . S
C403 C393 1.510 1_455 S
C403 H401 0.959 . S
C403 H402 0.961 . S
C403 H404 0.960 . S
H404 C403 0.960 . S
H405 N385 0.862 . S
O406 Co374 1.920 . S
O406 C379 1.289 . S
C407 O399 1.258 . S
C407 O400 1.266 1_655 S
Co408 O411 1.970 . S
Co408 N425 1.989 . S
Co408 O433 1.967 . S
Co408 O440 1.920 . S
Co409 O412 1.966 1_565 S
Co409 N418 2.022 . S
Co409 N426 1.993 1_565 S
Co409 O434 1.941 . S
C410 O411 1.258 . S
C410 O412 1.263 . S
O411 Co408 1.970 . S
O411 C410 1.258 . S
O412 Co409 1.966 1_545 S
O412 C410 1.263 . S
C413 O414 1.235 . S
C413 O440 1.289 . S
O414 C413 1.235 . S
C415 C417 1.400 . S
C415 N418 1.351 . S
C415 C420 1.501 . S
C416 C417 1.387 . S
C416 N419 1.341 . S
C417 C415 1.400 . S
C417 C416 1.387 . S
N418 Co409 2.022 . S
N418 C415 1.351 . S
N418 N419 1.365 . S
N419 C416 1.341 . S
N419 N418 1.365 . S
N419 H439 0.862 . S
C420 C415 1.501 . S
C420 H421 0.961 . S
C420 H422 0.961 . S
C420 H423 0.960 . S
H421 C420 0.961 . S
H422 C420 0.961 . S
H423 C420 0.960 . S
C424 N425 1.342 . S
C424 C428 1.401 . S
C424 C429 1.499 . S
N425 Co408 1.989 . S
N425 C424 1.342 . S
N425 N426 1.388 . S
N426 Co409 1.993 1_545 S
N426 N425 1.388 . S
N426 C427 1.346 . S
C427 N426 1.346 . S
C427 C428 1.396 . S
C427 C437 1.510 1_545 S
C428 C424 1.401 . S
C428 C427 1.396 . S
C429 C424 1.499 . S
C429 H430 0.959 . S
C429 H431 0.960 . S
C429 H432 0.961 . S
H430 C429 0.959 . S
H431 C429 0.960 . S
H432 C429 0.961 . S
O433 Co408 1.967 . S
O433 C441 1.258 . S
O434 Co409 1.941 . S
O434 C441 1.266 1_565 S
H435 C437 0.959 . S
H436 C437 0.961 . S
C437 C427 1.510 1_565 S
C437 H435 0.959 . S
C437 H436 0.961 . S
C437 H438 0.960 . S
H438 C437 0.960 . S
H439 N419 0.862 . S
O440 Co408 1.920 . S
O440 C413 1.289 . S
C441 O433 1.258 . S
C441 O434 1.266 1_545 S
Co442 O445 1.970 . S
Co442 N459 1.989 . S
Co442 O467 1.967 . S
Co442 O474 1.920 . S
Co443 O446 1.966 . S
Co443 N452 2.022 . S
Co443 N460 1.993 . S
Co443 O468 1.941 . S
C444 O445 1.258 . S
C444 O446 1.263 . S
O445 Co442 1.970 . S
O445 C444 1.258 . S
O446 Co443 1.966 . S
O446 C444 1.263 . S
C447 O448 1.235 . S
C447 O474 1.289 . S
O448 C447 1.235 . S
C449 C451 1.400 . S
C449 N452 1.351 . S
C449 C454 1.501 . S
C450 C451 1.387 . S
C450 N453 1.341 . S
C451 C449 1.400 . S
C451 C450 1.387 . S
N452 Co443 2.022 . S
N452 C449 1.351 . S
N452 N453 1.365 . S
N453 C450 1.341 . S
N453 N452 1.365 . S
N453 H473 0.862 . S
C454 C449 1.501 . S
C454 H455 0.961 . S
C454 H456 0.961 . S
C454 H457 0.960 . S
H455 C454 0.961 . S
H456 C454 0.961 . S
H457 C454 0.960 . S
C458 N459 1.342 . S
C458 C462 1.401 . S
C458 C463 1.499 . S
N459 Co442 1.989 . S
N459 C458 1.342 . S
N459 N460 1.388 . S
N460 Co443 1.993 . S
N460 N459 1.388 . S
N460 C461 1.346 . S
C461 N460 1.346 . S
C461 C462 1.396 . S
C461 C471 1.510 . S
C462 C458 1.401 . S
C462 C461 1.396 . S
C463 C458 1.499 . S
C463 H464 0.959 . S
C463 H465 0.960 . S
C463 H466 0.961 . S
H464 C463 0.959 . S
H465 C463 0.960 . S
H466 C463 0.961 . S
O467 Co442 1.967 . S
O467 C475 1.258 . S
O468 Co443 1.941 . S
O468 C475 1.266 . S
H469 C471 0.959 . S
H470 C471 0.961 . S
C471 C461 1.510 . S
C471 H469 0.959 . S
C471 H470 0.961 . S
C471 H472 0.960 . S
H472 C471 0.960 . S
H473 N453 0.862 . S
O474 Co442 1.920 . S
O474 C447 1.289 . S
C475 O467 1.258 . S
C475 O468 1.266 . S
Co476 O479 1.970 . S
Co476 N493 1.989 . S
Co476 O501 1.967 . S
Co476 O508 1.920 . S
Co477 O480 1.966 . S
Co477 N486 2.022 . S
Co477 N494 1.993 . S
Co477 O502 1.941 . S
C478 O479 1.258 . S
C478 O480 1.263 . S
O479 Co476 1.970 . S
O479 C478 1.258 . S
O480 Co477 1.966 . S
O480 C478 1.263 . S
C481 O482 1.235 . S
C481 O508 1.289 . S
O482 C481 1.235 . S
C483 C485 1.400 . S
C483 N486 1.351 . S
C483 C488 1.501 . S
C484 C485 1.387 . S
C484 N487 1.341 . S
C485 C483 1.400 . S
C485 C484 1.387 . S
N486 Co477 2.022 . S
N486 C483 1.351 . S
N486 N487 1.365 . S
N487 C484 1.341 . S
N487 N486 1.365 . S
N487 H507 0.862 . S
C488 C483 1.501 . S
C488 H489 0.961 . S
C488 H490 0.961 . S
C488 H491 0.960 . S
H489 C488 0.961 . S
H490 C488 0.961 . S
H491 C488 0.960 . S
C492 N493 1.342 . S
C492 C496 1.401 . S
C492 C497 1.499 . S
N493 Co476 1.989 . S
N493 C492 1.342 . S
N493 N494 1.388 . S
N494 Co477 1.993 . S
N494 N493 1.388 . S
N494 C495 1.346 . S
C495 N494 1.346 . S
C495 C496 1.396 . S
C495 C505 1.510 . S
C496 C492 1.401 . S
C496 C495 1.396 . S
C497 C492 1.499 . S
C497 H498 0.959 . S
C497 H499 0.960 . S
C497 H500 0.961 . S
H498 C497 0.959 . S
H499 C497 0.960 . S
H500 C497 0.961 . S
O501 Co476 1.967 . S
O501 C509 1.258 . S
O502 Co477 1.941 . S
O502 C509 1.266 . S
H503 C505 0.959 . S
H504 C505 0.961 . S
C505 C495 1.510 . S
C505 H503 0.959 . S
C505 H504 0.961 . S
C505 H506 0.960 . S
H506 C505 0.960 . S
H507 N487 0.862 . S
O508 Co476 1.920 . S
O508 C481 1.289 . S
C509 O501 1.258 . S
C509 O502 1.266 . S
Co510 O513 1.970 . S
Co510 N527 1.989 . S
Co510 O535 1.967 . S
Co510 O542 1.920 . S
Co511 O514 1.966 1_655 S
Co511 N520 2.022 . S
Co511 N528 1.993 1_655 S
Co511 O536 1.941 . S
C512 O513 1.258 . S
C512 O514 1.263 . S
O513 Co510 1.970 . S
O513 C512 1.258 . S
O514 Co511 1.966 1_455 S
O514 C512 1.263 . S
C515 O516 1.235 . S
C515 O542 1.289 . S
O516 C515 1.235 . S
C517 C519 1.400 . S
C517 N520 1.351 . S
C517 C522 1.501 . S
C518 C519 1.387 . S
C518 N521 1.341 . S
C519 C517 1.400 . S
C519 C518 1.387 . S
N520 Co511 2.022 . S
N520 C517 1.351 . S
N520 N521 1.365 . S
N521 C518 1.341 . S
N521 N520 1.365 . S
N521 H541 0.862 . S
C522 C517 1.501 . S
C522 H523 0.961 . S
C522 H524 0.961 . S
C522 H525 0.960 . S
H523 C522 0.961 . S
H524 C522 0.961 . S
H525 C522 0.960 . S
C526 N527 1.342 . S
C526 C530 1.401 . S
C526 C531 1.499 . S
N527 Co510 1.989 . S
N527 C526 1.342 . S
N527 N528 1.388 . S
N528 Co511 1.993 1_455 S
N528 N527 1.388 . S
N528 C529 1.346 . S
C529 N528 1.346 . S
C529 C530 1.396 . S
C529 C539 1.510 1_455 S
C530 C526 1.401 . S
C530 C529 1.396 . S
C531 C526 1.499 . S
C531 H532 0.959 . S
C531 H533 0.960 . S
C531 H534 0.961 . S
H532 C531 0.959 . S
H533 C531 0.960 . S
H534 C531 0.961 . S
O535 Co510 1.967 . S
O535 C543 1.258 . S
O536 Co511 1.941 . S
O536 C543 1.266 1_655 S
H537 C539 0.959 . S
H538 C539 0.961 . S
C539 C529 1.510 1_655 S
C539 H537 0.959 . S
C539 H538 0.961 . S
C539 H540 0.960 . S
H540 C539 0.960 . S
H541 N521 0.862 . S
O542 Co510 1.920 . S
O542 C515 1.289 . S
C543 O535 1.258 . S
C543 O536 1.266 1_455 S
H544 C552 0.950 . S
H545 C557 0.950 . S
H546 C554 0.950 . S
H547 C556 0.950 . S
H548 C558 0.950 . S
H549 C560 0.950 . S
H550 C562 0.950 . S
H551 C563 0.950 . S
C552 H544 0.950 . S
C552 C553 1.386 . S
C552 C554 1.391 . S
C553 C552 1.386 . S
C553 C557 1.393 . S
C554 H546 0.950 . S
C554 C552 1.391 . S
C554 C555 1.400 . S
C555 C554 1.400 . S
C555 C556 1.398 . S
C555 C561 1.491 . S
C556 H547 0.950 . S
C556 C555 1.398 . S
C556 C557 1.391 . S
C557 H545 0.950 . S
C557 C553 1.393 . S
C557 C556 1.391 . S
C558 H548 0.950 . S
C558 C559 1.386 . S
C558 C560 1.391 . S
C559 C558 1.386 . S
C559 C563 1.393 . S
C560 H549 0.950 . S
C560 C558 1.391 . S
C560 C561 1.400 . S
C561 C555 1.491 . S
C561 C560 1.400 . S
C561 C562 1.398 . S
C562 H550 0.950 . S
C562 C561 1.398 . S
C562 C563 1.391 . S
C563 H551 0.950 . S
C563 C559 1.393 . S
C563 C562 1.391 . S
H564 C572 0.950 . S
H565 C577 0.950 . S
H566 C574 0.950 . S
H567 C576 0.950 . S
H568 C578 0.950 . S
H569 C580 0.950 . S
H570 C582 0.950 . S
H571 C583 0.950 . S
C572 H564 0.950 . S
C572 C573 1.386 . S
C572 C574 1.391 . S
C573 C572 1.386 . S
C573 C577 1.393 . S
C574 H566 0.950 . S
C574 C572 1.391 . S
C574 C575 1.400 . S
C575 C574 1.400 . S
C575 C576 1.398 . S
C575 C581 1.491 . S
C576 H567 0.950 . S
C576 C575 1.398 . S
C576 C577 1.391 . S
C577 H565 0.950 . S
C577 C573 1.393 . S
C577 C576 1.391 . S
C578 H568 0.950 . S
C578 C579 1.386 . S
C578 C580 1.391 . S
C579 C578 1.386 . S
C579 C583 1.393 . S
C580 H569 0.950 . S
C580 C578 1.391 . S
C580 C581 1.400 . S
C581 C575 1.491 . S
C581 C580 1.400 . S
C581 C582 1.398 . S
C582 H570 0.950 . S
C582 C581 1.398 . S
C582 C583 1.391 . S
C583 H571 0.950 . S
C583 C579 1.393 . S
C583 C582 1.391 . S
H584 C592 0.950 . S
H585 C597 0.950 . S
H586 C594 0.950 . S
H587 C596 0.950 . S
H588 C598 0.966 . S
H589 C600 0.950 . S
H590 C602 0.950 . S
H591 C603 0.950 . S
C592 H584 0.950 . S
C592 C593 1.386 1_655 S
C592 C594 1.391 . S
C593 C592 1.386 1_455 S
C593 C597 1.393 . S
C594 H586 0.950 . S
C594 C592 1.391 . S
C594 C595 1.400 . S
C595 C594 1.400 . S
C595 C596 1.398 1_655 S
C595 C601 1.491 . S
C596 H587 0.950 . S
C596 C595 1.398 1_455 S
C596 C597 1.391 . S
C597 H585 0.950 . S
C597 C593 1.393 . S
C597 C596 1.391 . S
C598 H588 0.966 . S
C598 C599 1.365 1_455 S
C598 C600 1.396 . S
C599 C598 1.365 1_655 S
C599 C603 1.393 . S
C600 H589 0.950 . S
C600 C598 1.396 . S
C600 C601 1.400 1_455 S
C601 C595 1.491 . S
C601 C600 1.400 1_655 S
C601 C602 1.398 . S
C602 H590 0.950 . S
C602 C601 1.398 . S
C602 C603 1.391 . S
C603 H591 0.950 . S
C603 C599 1.393 . S
C603 C602 1.391 . S
H604 C612 0.950 . S
H605 C617 0.950 . S
H606 C614 0.950 . S
H607 C616 0.950 . S
H608 C618 0.950 . S
H609 C620 0.950 . S
H610 C622 0.950 . S
H611 C623 0.950 . S
C612 H604 0.950 . S
C612 C613 1.386 1_545 S
C612 C614 1.391 . S
C613 C612 1.386 1_565 S
C613 C617 1.393 . S
C614 H606 0.950 . S
C614 C612 1.391 . S
C614 C615 1.400 1_545 S
C615 C614 1.400 1_565 S
C615 C616 1.398 . S
C615 C621 1.491 . S
C616 H607 0.950 . S
C616 C615 1.398 . S
C616 C617 1.391 . S
C617 H605 0.950 . S
C617 C613 1.393 . S
C617 C616 1.391 . S
C618 H608 0.950 . S
C618 C619 1.386 1_565 S
C618 C620 1.391 . S
C619 C618 1.386 1_545 S
C619 C623 1.393 . S
C620 H609 0.950 . S
C620 C618 1.391 . S
C620 C621 1.400 . S
C621 C615 1.491 . S
C621 C620 1.400 . S
C621 C622 1.398 1_565 S
C622 H610 0.950 . S
C622 C621 1.398 1_545 S
C622 C623 1.391 . S
C623 H611 0.950 . S
C623 C619 1.393 . S
C623 C622 1.391 . S
H624 C632 0.950 . S
H625 C637 0.950 . S
H626 C634 0.950 . S
H627 C636 0.950 . S
H628 C638 0.950 . S
H629 C640 0.950 . S
H630 C642 0.950 . S
H631 C643 0.950 . S
C632 H624 0.950 . S
C632 C633 1.386 1_455 S
C632 C634 1.391 . S
C633 C632 1.386 1_655 S
C633 C637 1.393 . S
C634 H626 0.950 . S
C634 C632 1.391 . S
C634 C635 1.400 . S
C635 C634 1.400 . S
C635 C636 1.398 1_455 S
C635 C641 1.491 . S
C636 H627 0.950 . S
C636 C635 1.398 1_655 S
C636 C637 1.391 . S
C637 H625 0.950 . S
C637 C633 1.393 . S
C637 C636 1.391 . S
C638 H628 0.950 . S
C638 C639 1.386 1_655 S
C638 C640 1.391 . S
C639 C638 1.386 1_455 S
C639 C643 1.393 . S
C640 H629 0.950 . S
C640 C638 1.391 . S
C640 C641 1.400 1_655 S
C641 C635 1.491 . S
C641 C640 1.400 1_455 S
C641 C642 1.398 . S
C642 H630 0.950 . S
C642 C641 1.398 . S
C642 C643 1.391 . S
C643 H631 0.950 . S
C643 C639 1.393 . S
C643 C642 1.391 . S
H644 C652 0.950 . S
H645 C657 0.950 . S
H646 C654 0.948 1_565 S
H647 C656 0.950 . S
H648 C658 0.950 . S
H649 C660 0.950 . S
H650 C662 0.950 . S
H651 C663 0.950 . S
C652 H644 0.950 . S
C652 C653 1.386 . S
C652 C654 1.387 1_565 S
C653 C652 1.386 . S
C653 C657 1.393 1_565 S
C654 H646 0.948 1_545 S
C654 C652 1.387 1_545 S
C654 C655 1.407 . S
C655 C654 1.407 . S
C655 C656 1.398 . S
C655 C661 1.491 . S
C656 H647 0.950 . S
C656 C655 1.398 . S
C656 C657 1.391 . S
C657 H645 0.950 . S
C657 C653 1.393 1_545 S
C657 C656 1.391 . S
C658 H648 0.950 . S
C658 C659 1.386 . S
C658 C660 1.391 . S
C659 C658 1.386 . S
C659 C663 1.393 . S
C660 H649 0.950 . S
C660 C658 1.391 . S
C660 C661 1.400 . S
C661 C655 1.491 . S
C661 C660 1.400 . S
C661 C662 1.398 . S
C662 H650 0.950 . S
C662 C661 1.398 . S
C662 C663 1.391 . S
C663 H651 0.950 . S
C663 C659 1.393 . S
C663 C662 1.391 . S
H664 C672 0.950 . S
H665 C677 0.950 . S
H666 C674 0.950 . S
H667 C676 0.950 . S
H668 C678 0.950 . S
H669 C680 0.950 . S
H670 C682 0.950 . S
H671 C683 0.950 . S
C672 H664 0.950 . S
C672 C673 1.386 . S
C672 C674 1.391 . S
C673 C672 1.386 . S
C673 C677 1.393 . S
C674 H666 0.950 . S
C674 C672 1.391 . S
C674 C675 1.400 . S
C675 C674 1.400 . S
C675 C676 1.398 . S
C675 C681 1.491 . S
C676 H667 0.950 . S
C676 C675 1.398 . S
C676 C677 1.391 . S
C677 H665 0.950 . S
C677 C673 1.393 . S
C677 C676 1.391 . S
C678 H668 0.950 . S
C678 C679 1.386 . S
C678 C680 1.391 . S
C679 C678 1.386 . S
C679 C683 1.393 . S
C680 H669 0.950 . S
C680 C678 1.391 . S
C680 C681 1.400 . S
C681 C675 1.491 . S
C681 C680 1.400 . S
C681 C682 1.398 . S
C682 H670 0.950 . S
C682 C681 1.398 . S
C682 C683 1.391 . S
C683 H671 0.950 . S
C683 C679 1.393 . S
C683 C682 1.391 . S
H684 C692 0.950 . S
H685 C697 0.950 . S
H686 C694 0.950 . S
H687 C696 0.950 . S
H688 C698 0.950 . S
H689 C700 0.950 . S
H690 C702 0.950 . S
H691 C703 0.950 . S
C692 H684 0.950 . S
C692 C693 1.386 . S
C692 C694 1.391 . S
C693 C692 1.386 . S
C693 C697 1.393 . S
C694 H686 0.950 . S
C694 C692 1.391 . S
C694 C695 1.400 . S
C695 C694 1.400 . S
C695 C696 1.398 . S
C695 C701 1.491 . S
C696 H687 0.950 . S
C696 C695 1.398 . S
C696 C697 1.391 . S
C697 H685 0.950 . S
C697 C693 1.393 . S
C697 C696 1.391 . S
C698 H688 0.950 . S
C698 C699 1.386 . S
C698 C700 1.391 . S
C699 C698 1.386 . S
C699 C703 1.393 . S
C700 H689 0.950 . S
C700 C698 1.391 . S
C700 C701 1.400 . S
C701 C695 1.491 . S
C701 C700 1.400 . S
C701 C702 1.398 . S
C702 H690 0.950 . S
C702 C701 1.398 . S
C702 C703 1.391 . S
C703 H691 0.950 . S
C703 C699 1.393 . S
C703 C702 1.391 . S
H704 C712 0.950 . S
H705 C717 0.950 . S
H706 C714 0.950 . S
H707 C716 0.950 . S
H708 C718 0.950 . S
H709 C720 0.950 . S
H710 C722 0.950 . S
H711 C723 0.950 . S
C712 H704 0.950 . S
C712 C713 1.386 . S
C712 C714 1.391 . S
C713 C712 1.386 . S
C713 C717 1.393 . S
C714 H706 0.950 . S
C714 C712 1.391 . S
C714 C715 1.400 . S
C715 C714 1.400 . S
C715 C716 1.398 . S
C715 C721 1.491 . S
C716 H707 0.950 . S
C716 C715 1.398 . S
C716 C717 1.391 . S
C717 H705 0.950 . S
C717 C713 1.393 . S
C717 C716 1.391 . S
C718 H708 0.950 . S
C718 C719 1.386 . S
C718 C720 1.391 . S
C719 C718 1.386 . S
C719 C723 1.393 . S
C720 H709 0.950 . S
C720 C718 1.391 . S
C720 C721 1.400 . S
C721 C715 1.491 . S
C721 C720 1.400 . S
C721 C722 1.398 . S
C722 H710 0.950 . S
C722 C721 1.398 . S
C722 C723 1.391 . S
C723 H711 0.950 . S
C723 C719 1.393 . S
C723 C722 1.391 . S
H724 C732 0.950 . S
H725 C737 0.950 . S
H726 C734 0.950 . S
H727 C736 0.950 . S
H728 C738 0.950 . S
H729 C740 0.950 . S
H730 C742 0.950 . S
H731 C743 0.950 . S
C732 H724 0.950 . S
C732 C733 1.386 . S
C732 C734 1.391 . S
C733 C732 1.386 . S
C733 C737 1.393 . S
C734 H726 0.950 . S
C734 C732 1.391 . S
C734 C735 1.400 . S
C735 C734 1.400 . S
C735 C736 1.398 . S
C735 C741 1.491 . S
C736 H727 0.950 . S
C736 C735 1.398 . S
C736 C737 1.391 . S
C737 H725 0.950 . S
C737 C733 1.393 . S
C737 C736 1.391 . S
C738 H728 0.950 . S
C738 C739 1.386 . S
C738 C740 1.391 . S
C739 C738 1.386 . S
C739 C743 1.393 . S
C740 H729 0.950 . S
C740 C738 1.391 . S
C740 C741 1.400 . S
C741 C735 1.491 . S
C741 C740 1.400 . S
C741 C742 1.398 . S
C742 H730 0.950 . S
C742 C741 1.398 . S
C742 C743 1.391 . S
C743 H731 0.950 . S
C743 C739 1.393 . S
C743 C742 1.391 . S
H744 C752 0.950 . S
H745 C757 0.950 . S
H746 C754 0.950 . S
H747 C756 0.950 . S
H748 C758 0.950 . S
H749 C760 0.950 . S
H750 C762 0.950 . S
H751 C763 0.950 . S
C752 H744 0.950 . S
C752 C753 1.386 1_455 S
C752 C754 1.391 . S
C753 C752 1.386 1_655 S
C753 C757 1.393 . S
C754 H746 0.950 . S
C754 C752 1.391 . S
C754 C755 1.400 . S
C755 C754 1.400 . S
C755 C756 1.398 1_455 S
C755 C761 1.491 . S
C756 H747 0.950 . S
C756 C755 1.398 1_655 S
C756 C757 1.391 . S
C757 H745 0.950 . S
C757 C753 1.393 . S
C757 C756 1.391 . S
C758 H748 0.950 . S
C758 C759 1.386 1_655 S
C758 C760 1.391 . S
C759 C758 1.386 1_455 S
C759 C763 1.393 . S
C760 H749 0.950 . S
C760 C758 1.391 . S
C760 C761 1.400 1_655 S
C761 C755 1.491 . S
C761 C760 1.400 1_455 S
C761 C762 1.398 . S
C762 H750 0.950 . S
C762 C761 1.398 . S
C762 C763 1.391 . S
C763 H751 0.950 . S
C763 C759 1.393 . S
C763 C762 1.391 . S
H764 C772 0.950 . S
H765 C777 0.950 . S
H766 C774 0.950 . S
H767 C776 0.950 . S
H768 C778 0.950 1_565 S
H769 C780 0.950 . S
H770 C782 0.950 . S
H771 C783 0.950 . S
C772 H764 0.950 . S
C772 C773 1.386 1_545 S
C772 C774 1.391 . S
C773 C772 1.386 1_565 S
C773 C777 1.393 . S
C774 H766 0.950 . S
C774 C772 1.391 . S
C774 C775 1.400 . S
C775 C774 1.400 . S
C775 C776 1.398 1_545 S
C775 C781 1.491 . S
C776 H767 0.950 . S
C776 C775 1.398 1_565 S
C776 C777 1.391 . S
C777 H765 0.950 . S
C777 C773 1.393 . S
C777 C776 1.391 . S
C778 H768 0.950 1_545 S
C778 C779 1.386 . S
C778 C780 1.391 1_545 S
C779 C778 1.386 . S
C779 C783 1.393 . S
C780 H769 0.950 . S
C780 C778 1.391 1_565 S
C780 C781 1.400 1_565 S
C781 C775 1.491 . S
C781 C780 1.400 1_545 S
C781 C782 1.398 . S
C782 H770 0.950 . S
C782 C781 1.398 . S
C782 C783 1.391 . S
C783 H771 0.950 . S
C783 C779 1.393 . S
C783 C782 1.391 . S
H784 C792 0.950 . S
H785 C797 0.950 . S
H786 C794 0.950 . S
H787 C796 0.950 . S
H788 C798 0.950 . S
H789 C800 0.950 . S
H790 C802 0.950 . S
H791 C803 0.964 . S
C792 H784 0.950 . S
C792 C793 1.386 . S
C792 C794 1.391 . S
C793 C792 1.386 . S
C793 C797 1.393 1_455 S
C794 H786 0.950 . S
C794 C792 1.391 . S
C794 C795 1.400 1_455 S
C795 C794 1.400 1_655 S
C795 C796 1.398 . S
C795 C801 1.491 . S
C796 H787 0.950 . S
C796 C795 1.398 . S
C796 C797 1.391 . S
C797 H785 0.950 . S
C797 C793 1.393 1_655 S
C797 C796 1.391 . S
C798 H788 0.950 . S
C798 C799 1.386 . S
C798 C800 1.391 . S
C799 C798 1.386 . S
C799 C803 1.375 1_655 S
C800 H789 0.950 . S
C800 C798 1.391 . S
C800 C801 1.400 . S
C801 C795 1.491 . S
C801 C800 1.400 . S
C801 C802 1.398 1_655 S
C802 H790 0.950 . S
C802 C801 1.398 1_455 S
C802 C803 1.395 . S
C803 H791 0.964 . S
C803 C799 1.375 1_455 S
C803 C802 1.395 . S
H804 C812 0.950 . S
H805 C817 0.950 . S
H806 C814 0.950 . S
H807 C816 0.950 . S
H808 C818 0.945 1_545 S
H809 C820 0.950 . S
H810 C822 0.950 . S
H811 C823 0.950 . S
C812 H804 0.950 . S
C812 C813 1.386 1_565 S
C812 C814 1.391 . S
C813 C812 1.386 1_545 S
C813 C817 1.393 . S
C814 H806 0.950 . S
C814 C812 1.391 . S
C814 C815 1.400 . S
C815 C814 1.400 . S
C815 C816 1.398 1_565 S
C815 C821 1.491 . S
C816 H807 0.950 . S
C816 C815 1.398 1_545 S
C816 C817 1.391 . S
C817 H805 0.950 . S
C817 C813 1.393 . S
C817 C816 1.391 . S
C818 H808 0.945 1_565 S
C818 C819 1.392 . S
C818 C820 1.390 1_565 S
C819 C818 1.392 . S
C819 C823 1.393 . S
C820 H809 0.950 . S
C820 C818 1.390 1_545 S
C820 C821 1.400 1_545 S
C821 C815 1.491 . S
C821 C820 1.400 1_565 S
C821 C822 1.398 . S
C822 H810 0.950 . S
C822 C821 1.398 . S
C822 C823 1.391 . S
C823 H811 0.950 . S
C823 C819 1.393 . S
C823 C822 1.391 . S
H824 C832 0.950 . S
H825 C837 0.950 . S
H826 C834 0.950 . S
H827 C836 0.950 . S
H828 C838 0.950 . S
H829 C840 0.950 . S
H830 C842 0.950 . S
H831 C843 0.950 . S
C832 H824 0.950 . S
C832 C833 1.386 . S
C832 C834 1.391 . S
C833 C832 1.386 . S
C833 C837 1.393 . S
C834 H826 0.950 . S
C834 C832 1.391 . S
C834 C835 1.400 . S
C835 C834 1.400 . S
C835 C836 1.398 . S
C835 C841 1.491 . S
C836 H827 0.950 . S
C836 C835 1.398 . S
C836 C837 1.391 . S
C837 H825 0.950 . S
C837 C833 1.393 . S
C837 C836 1.391 . S
C838 H828 0.950 . S
C838 C839 1.386 . S
C838 C840 1.391 . S
C839 C838 1.386 . S
C839 C843 1.393 . S
C840 H829 0.950 . S
C840 C838 1.391 . S
C840 C841 1.400 . S
C841 C835 1.491 . S
C841 C840 1.400 . S
C841 C842 1.398 . S
C842 H830 0.950 . S
C842 C841 1.398 . S
C842 C843 1.391 . S
C843 H831 0.950 . S
C843 C839 1.393 . S
C843 C842 1.391 . S
H844 C852 0.950 . S
H845 C857 0.950 . S
H846 C854 0.950 . S
H847 C856 0.950 . S
H848 C858 0.950 . S
H849 C860 0.950 . S
H850 C862 0.950 . S
H851 C863 0.950 . S
C852 H844 0.950 . S
C852 C853 1.386 . S
C852 C854 1.391 . S
C853 C852 1.386 . S
C853 C857 1.393 . S
C854 H846 0.950 . S
C854 C852 1.391 . S
C854 C855 1.400 . S
C855 C854 1.400 . S
C855 C856 1.398 . S
C855 C861 1.491 . S
C856 H847 0.950 . S
C856 C855 1.398 . S
C856 C857 1.391 . S
C857 H845 0.950 . S
C857 C853 1.393 . S
C857 C856 1.391 . S
C858 H848 0.950 . S
C858 C859 1.386 . S
C858 C860 1.391 . S
C859 C858 1.386 . S
C859 C863 1.393 . S
C860 H849 0.950 . S
C860 C858 1.391 . S
C860 C861 1.400 . S
C861 C855 1.491 . S
C861 C860 1.400 . S
C861 C862 1.398 . S
C862 H850 0.950 . S
C862 C861 1.398 . S
C862 C863 1.391 . S
C863 H851 0.950 . S
C863 C859 1.393 . S
C863 C862 1.391 . S
H864 C872 0.950 . S
H865 C877 0.950 . S
H866 C874 0.950 . S
H867 C876 0.950 . S
H868 C878 0.950 . S
H869 C880 0.950 . S
H870 C882 0.950 . S
H871 C883 0.950 . S
C872 H864 0.950 . S
C872 C873 1.386 . S
C872 C874 1.391 . S
C873 C872 1.386 . S
C873 C877 1.393 . S
C874 H866 0.950 . S
C874 C872 1.391 . S
C874 C875 1.400 . S
C875 C874 1.400 . S
C875 C876 1.398 . S
C875 C881 1.491 . S
C876 H867 0.950 . S
C876 C875 1.398 . S
C876 C877 1.391 . S
C877 H865 0.950 . S
C877 C873 1.393 . S
C877 C876 1.391 . S
C878 H868 0.950 . S
C878 C879 1.386 . S
C878 C880 1.391 . S
C879 C878 1.386 . S
C879 C883 1.393 . S
C880 H869 0.950 . S
C880 C878 1.391 . S
C880 C881 1.400 . S
C881 C875 1.491 . S
C881 C880 1.400 . S
C881 C882 1.398 . S
C882 H870 0.950 . S
C882 C881 1.398 . S
C882 C883 1.391 . S
C883 H871 0.950 . S
C883 C879 1.393 . S
C883 C882 1.391 . S
H884 C892 0.950 . S
H885 C897 0.950 . S
H886 C894 0.950 . S
H887 C896 0.950 . S
H888 C898 0.950 . S
H889 C900 0.950 . S
H890 C902 0.950 . S
H891 C903 0.950 . S
C892 H884 0.950 . S
C892 C893 1.386 . S
C892 C894 1.391 . S
C893 C892 1.386 . S
C893 C897 1.393 . S
C894 H886 0.950 . S
C894 C892 1.391 . S
C894 C895 1.400 . S
C895 C894 1.400 . S
C895 C896 1.398 . S
C895 C901 1.491 . S
C896 H887 0.950 . S
C896 C895 1.398 . S
C896 C897 1.391 . S
C897 H885 0.950 . S
C897 C893 1.393 . S
C897 C896 1.391 . S
C898 H888 0.950 . S
C898 C899 1.386 . S
C898 C900 1.391 . S
C899 C898 1.386 . S
C899 C903 1.393 . S
C900 H889 0.950 . S
C900 C898 1.391 . S
C900 C901 1.400 . S
C901 C895 1.491 . S
C901 C900 1.400 . S
C901 C902 1.398 . S
C902 H890 0.950 . S
C902 C901 1.398 . S
C902 C903 1.391 . S
C903 H891 0.950 . S
C903 C899 1.393 . S
C903 C902 1.391 . S
H904 C912 0.950 . S
H905 C917 0.950 . S
H906 C914 0.950 . S
H907 C916 0.950 . S
H908 C918 0.950 . S
H909 C920 0.950 . S
H910 C922 0.950 . S
H911 C923 0.950 . S
C912 H904 0.950 . S
C912 C913 1.386 . S
C912 C914 1.391 . S
C913 C912 1.386 . S
C913 C917 1.393 . S
C914 H906 0.950 . S
C914 C912 1.391 . S
C914 C915 1.400 . S
C915 C914 1.400 . S
C915 C916 1.398 . S
C915 C921 1.491 . S
C916 H907 0.950 . S
C916 C915 1.398 . S
C916 C917 1.391 . S
C917 H905 0.950 . S
C917 C913 1.393 . S
C917 C916 1.391 . S
C918 H908 0.950 . S
C918 C919 1.386 . S
C918 C920 1.391 . S
C919 C918 1.386 . S
C919 C923 1.393 . S
C920 H909 0.950 . S
C920 C918 1.391 . S
C920 C921 1.400 . S
C921 C915 1.491 . S
C921 C920 1.400 . S
C921 C922 1.398 . S
C922 H910 0.950 . S
C922 C921 1.398 . S
C922 C923 1.391 . S
C923 H911 0.950 . S
C923 C919 1.393 . S
C923 C922 1.391 . S
H924 C932 0.950 . S
H925 C937 0.950 . S
H926 C934 0.950 . S
H927 C936 0.950 . S
H928 C938 0.950 . S
H929 C940 0.950 . S
H930 C942 0.950 . S
H931 C943 0.950 . S
C932 H924 0.950 . S
C932 C933 1.386 . S
C932 C934 1.391 . S
C933 C932 1.386 . S
C933 C937 1.393 . S
C934 H926 0.950 . S
C934 C932 1.391 . S
C934 C935 1.400 . S
C935 C934 1.400 . S
C935 C936 1.398 . S
C935 C941 1.491 . S
C936 H927 0.950 . S
C936 C935 1.398 . S
C936 C937 1.391 . S
C937 H925 0.950 . S
C937 C933 1.393 . S
C937 C936 1.391 . S
C938 H928 0.950 . S
C938 C939 1.386 . S
C938 C940 1.391 . S
C939 C938 1.386 . S
C939 C943 1.393 . S
C940 H929 0.950 . S
C940 C938 1.391 . S
C940 C941 1.400 . S
C941 C935 1.491 . S
C941 C940 1.400 . S
C941 C942 1.398 . S
C942 H930 0.950 . S
C942 C941 1.398 . S
C942 C943 1.391 . S
C943 H931 0.950 . S
C943 C939 1.393 . S
C943 C942 1.391 . S
H944 C952 0.950 . S
H945 C957 0.950 . S
H946 C954 0.950 . S
H947 C956 0.950 . S
H948 C958 0.950 . S
H949 C960 0.950 . S
H950 C962 0.950 . S
H951 C963 0.950 . S
C952 H944 0.950 . S
C952 C953 1.386 . S
C952 C954 1.391 . S
C953 C952 1.386 . S
C953 C957 1.393 . S
C954 H946 0.950 . S
C954 C952 1.391 . S
C954 C955 1.400 . S
C955 C954 1.400 . S
C955 C956 1.398 . S
C955 C961 1.491 . S
C956 H947 0.950 . S
C956 C955 1.398 . S
C956 C957 1.391 . S
C957 H945 0.950 . S
C957 C953 1.393 . S
C957 C956 1.391 . S
C958 H948 0.950 . S
C958 C959 1.386 . S
C958 C960 1.391 . S
C959 C958 1.386 . S
C959 C963 1.393 . S
C960 H949 0.950 . S
C960 C958 1.391 . S
C960 C961 1.400 . S
C961 C955 1.491 . S
C961 C960 1.400 . S
C961 C962 1.398 . S
C962 H950 0.950 . S
C962 C961 1.398 . S
C962 C963 1.391 . S
C963 H951 0.950 . S
C963 C959 1.393 . S
C963 C962 1.391 . S
H964 C972 0.950 . S
H965 C977 0.950 . S
H966 C974 0.950 . S
H967 C976 0.950 . S
H968 C978 0.950 . S
H969 C980 0.950 . S
H970 C982 0.950 . S
H971 C983 0.950 . S
C972 H964 0.950 . S
C972 C973 1.386 . S
C972 C974 1.391 . S
C973 C972 1.386 . S
C973 C977 1.393 . S
C974 H966 0.950 . S
C974 C972 1.391 . S
C974 C975 1.400 . S
C975 C974 1.400 . S
C975 C976 1.398 . S
C975 C981 1.491 . S
C976 H967 0.950 . S
C976 C975 1.398 . S
C976 C977 1.391 . S
C977 H965 0.950 . S
C977 C973 1.393 . S
C977 C976 1.391 . S
C978 H968 0.950 . S
C978 C979 1.386 . S
C978 C980 1.391 . S
C979 C978 1.386 . S
C979 C983 1.393 . S
C980 H969 0.950 . S
C980 C978 1.391 . S
C980 C981 1.400 . S
C981 C975 1.491 . S
C981 C980 1.400 . S
C981 C982 1.398 . S
C982 H970 0.950 . S
C982 C981 1.398 . S
C982 C983 1.391 . S
C983 H971 0.950 . S
C983 C979 1.393 . S
C983 C982 1.391 . S
H984 C992 0.950 . S
H985 C997 0.950 . S
H986 C994 0.950 . S
H987 C996 0.950 . S
H988 C998 0.950 . S
H989 C1000 0.950 . S
H990 C1002 0.950 . S
H991 C1003 0.950 . S
C992 H984 0.950 . S
C992 C993 1.386 . S
C992 C994 1.391 . S
C993 C992 1.386 . S
C993 C997 1.393 . S
C994 H986 0.950 . S
C994 C992 1.391 . S
C994 C995 1.400 . S
C995 C994 1.400 . S
C995 C996 1.398 . S
C995 C1001 1.491 . S
C996 H987 0.950 . S
C996 C995 1.398 . S
C996 C997 1.391 . S
C997 H985 0.950 . S
C997 C993 1.393 . S
C997 C996 1.391 . S
C998 H988 0.950 . S
C998 C999 1.386 . S
C998 C1000 1.391 . S
C999 C998 1.386 . S
C999 C1003 1.393 . S
C1000 H989 0.950 . S
C1000 C998 1.391 . S
C1000 C1001 1.400 . S
C1001 C995 1.491 . S
C1001 C1000 1.400 . S
C1001 C1002 1.398 . S
C1002 H990 0.950 . S
C1002 C1001 1.398 . S
C1002 C1003 1.391 . S
C1003 H991 0.950 . S
C1003 C999 1.393 . S
C1003 C1002 1.391 . S
H1004 C1012 0.950 . S
H1005 C1017 0.950 . S
H1006 C1014 0.950 . S
H1007 C1016 0.950 . S
H1008 C1018 0.950 . S
H1009 C1020 0.950 . S
H1010 C1022 0.950 . S
H1011 C1023 0.950 . S
C1012 H1004 0.950 . S
C1012 C1013 1.386 . S
C1012 C1014 1.391 . S
C1013 C1012 1.386 . S
C1013 C1017 1.393 . S
C1014 H1006 0.950 . S
C1014 C1012 1.391 . S
C1014 C1015 1.400 . S
C1015 C1014 1.400 . S
C1015 C1016 1.398 . S
C1015 C1021 1.491 . S
C1016 H1007 0.950 . S
C1016 C1015 1.398 . S
C1016 C1017 1.391 . S
C1017 H1005 0.950 . S
C1017 C1013 1.393 . S
C1017 C1016 1.391 . S
C1018 H1008 0.950 . S
C1018 C1019 1.386 . S
C1018 C1020 1.391 . S
C1019 C1018 1.386 . S
C1019 C1023 1.393 . S
C1020 H1009 0.950 . S
C1020 C1018 1.391 . S
C1020 C1021 1.400 . S
C1021 C1015 1.491 . S
C1021 C1020 1.400 . S
C1021 C1022 1.398 . S
C1022 H1010 0.950 . S
C1022 C1021 1.398 . S
C1022 C1023 1.391 . S
C1023 H1011 0.950 . S
C1023 C1019 1.393 . S
C1023 C1022 1.391 . S
H1024 C1032 0.950 . S
H1025 C1037 0.950 . S
H1026 C1034 0.950 . S
H1027 C1036 0.986 . S
H1028 C1038 0.950 . S
H1029 C1040 0.950 . S
H1030 C1042 0.986 . S
H1031 C1043 0.950 . S
C1032 H1024 0.950 . S
C1032 C1033 1.386 . S
C1032 C1034 1.391 . S
C1033 C1032 1.386 . S
C1033 C1037 1.393 . S
C1034 H1026 0.950 . S
C1034 C1032 1.391 . S
C1034 C1035 1.400 . S
C1035 C1034 1.400 . S
C1035 C1036 1.398 1_545 S
C1035 C1041 1.491 1_544 S
C1036 H1027 0.986 . S
C1036 C1035 1.398 1_565 S
C1036 C1037 1.391 1_565 S
C1037 H1025 0.950 . S
C1037 C1033 1.393 . S
C1037 C1036 1.391 1_545 S
C1038 H1028 0.950 . S
C1038 C1039 1.386 . S
C1038 C1040 1.391 . S
C1039 C1038 1.386 . S
C1039 C1043 1.393 . S
C1040 H1029 0.950 . S
C1040 C1038 1.391 . S
C1040 C1041 1.400 . S
C1041 C1035 1.491 1_566 S
C1041 C1040 1.400 . S
C1041 C1042 1.398 1_565 S
C1042 H1030 0.986 . S
C1042 C1041 1.398 1_545 S
C1042 C1043 1.391 1_545 S
C1043 H1031 0.950 . S
C1043 C1039 1.393 . S
C1043 C1042 1.391 1_565 S
H1044 C1052 0.950 . S
H1045 C1057 0.950 . S
H1046 C1054 0.950 . S
H1047 C1056 0.950 . S
H1048 C1058 0.950 . S
H1049 C1060 0.950 . S
H1050 C1062 0.950 . S
H1051 C1063 0.950 . S
C1052 H1044 0.950 . S
C1052 C1053 1.386 . S
C1052 C1054 1.391 . S
C1053 C1052 1.386 . S
C1053 C1057 1.393 . S
C1054 H1046 0.950 . S
C1054 C1052 1.391 . S
C1054 C1055 1.400 . S
C1055 C1054 1.400 . S
C1055 C1056 1.398 . S
C1055 C1061 1.491 1_554 S
C1056 H1047 0.950 . S
C1056 C1055 1.398 . S
C1056 C1057 1.391 . S
C1057 H1045 0.950 . S
C1057 C1053 1.393 . S
C1057 C1056 1.391 . S
C1058 H1048 0.950 . S
C1058 C1059 1.386 . S
C1058 C1060 1.391 . S
C1059 C1058 1.386 . S
C1059 C1063 1.393 . S
C1060 H1049 0.950 . S
C1060 C1058 1.391 . S
C1060 C1061 1.400 . S
C1061 C1055 1.491 1_556 S
C1061 C1060 1.400 . S
C1061 C1062 1.398 . S
C1062 H1050 0.950 . S
C1062 C1061 1.398 . S
C1062 C1063 1.391 . S
C1063 H1051 0.950 . S
C1063 C1059 1.393 . S
C1063 C1062 1.391 . S
H1064 C1072 0.950 . S
H1065 C1077 0.950 . S
H1066 C1074 0.950 . S
H1067 C1076 0.950 . S
H1068 C1078 0.950 . S
H1069 C1080 0.950 . S
H1070 C1082 0.950 . S
H1071 C1083 0.950 . S
C1072 H1064 0.950 . S
C1072 C1073 1.386 . S
C1072 C1074 1.391 1_655 S
C1073 C1072 1.386 . S
C1073 C1077 1.393 . S
C1074 H1066 0.950 . S
C1074 C1072 1.391 1_455 S
C1074 C1075 1.400 1_455 S
C1075 C1074 1.400 1_655 S
C1075 C1076 1.398 . S
C1075 C1081 1.491 1_654 S
C1076 H1067 0.950 . S
C1076 C1075 1.398 . S
C1076 C1077 1.391 . S
C1077 H1065 0.950 . S
C1077 C1073 1.393 . S
C1077 C1076 1.391 . S
C1078 H1068 0.950 . S
C1078 C1079 1.386 . S
C1078 C1080 1.391 1_455 S
C1079 C1078 1.386 . S
C1079 C1083 1.393 . S
C1080 H1069 0.950 . S
C1080 C1078 1.391 1_655 S
C1080 C1081 1.400 1_655 S
C1081 C1075 1.491 1_456 S
C1081 C1080 1.400 1_455 S
C1081 C1082 1.398 . S
C1082 H1070 0.950 . S
C1082 C1081 1.398 . S
C1082 C1083 1.391 . S
C1083 H1071 0.950 . S
C1083 C1079 1.393 . S
C1083 C1082 1.391 . S
H1084 C1092 0.950 . S
H1085 C1097 0.950 . S
H1086 C1094 0.950 . S
H1087 C1096 0.950 . S
H1088 C1098 0.950 . S
H1089 C1100 0.950 . S
H1090 C1102 0.950 . S
H1091 C1103 0.950 . S
C1092 H1084 0.950 . S
C1092 C1093 1.386 1_455 S
C1092 C1094 1.391 . S
C1093 C1092 1.386 1_655 S
C1093 C1097 1.393 . S
C1094 H1086 0.950 . S
C1094 C1092 1.391 . S
C1094 C1095 1.400 1_455 S
C1095 C1094 1.400 1_655 S
C1095 C1096 1.398 . S
C1095 C1101 1.491 1_646 S
C1096 H1087 0.950 . S
C1096 C1095 1.398 . S
C1096 C1097 1.391 . S
C1097 H1085 0.950 . S
C1097 C1093 1.393 . S
C1097 C1096 1.391 . S
C1098 H1088 0.950 . S
C1098 C1099 1.386 1_655 S
C1098 C1100 1.391 . S
C1099 C1098 1.386 1_455 S
C1099 C1103 1.393 . S
C1100 H1089 0.950 . S
C1100 C1098 1.391 . S
C1100 C1101 1.400 1_655 S
C1101 C1095 1.491 1_464 S
C1101 C1100 1.400 1_455 S
C1101 C1102 1.398 . S
C1102 H1090 0.950 . S
C1102 C1101 1.398 . S
C1102 C1103 1.391 . S
C1103 H1091 0.950 . S
C1103 C1099 1.393 . S
C1103 C1102 1.391 . S
H1104 C1112 0.950 . S
H1105 C1117 0.950 . S
H1106 C1114 0.950 . S
H1107 C1116 0.950 . S
H1108 C1118 0.950 . S
H1109 C1120 0.950 . S
H1110 C1122 0.950 . S
H1111 C1123 0.950 . S
C1112 H1104 0.950 . S
C1112 C1113 1.386 1_565 S
C1112 C1114 1.391 . S
C1113 C1112 1.386 1_545 S
C1113 C1117 1.393 . S
C1114 H1106 0.950 . S
C1114 C1112 1.391 . S
C1114 C1115 1.400 1_565 S
C1115 C1114 1.400 1_545 S
C1115 C1116 1.398 . S
C1115 C1121 1.491 1_645 S
C1116 H1107 0.950 . S
C1116 C1115 1.398 . S
C1116 C1117 1.391 . S
C1117 H1105 0.950 . S
C1117 C1113 1.393 . S
C1117 C1116 1.391 . S
C1118 H1108 0.950 . S
C1118 C1119 1.386 1_545 S
C1118 C1120 1.391 . S
C1119 C1118 1.386 1_565 S
C1119 C1123 1.393 . S
C1120 H1109 0.950 . S
C1120 C1118 1.391 . S
C1120 C1121 1.400 1_545 S
C1121 C1115 1.491 1_465 S
C1121 C1120 1.400 1_565 S
C1121 C1122 1.398 . S
C1122 H1110 0.950 . S
C1122 C1121 1.398 . S
C1122 C1123 1.391 . S
C1123 H1111 0.950 . S
C1123 C1119 1.393 . S
C1123 C1122 1.391 . S
H1124 C1132 0.950 . S
H1125 C1137 0.950 . S
H1126 C1134 0.950 . S
H1127 C1136 0.950 . S
H1128 C1138 0.950 . S
H1129 C1140 0.950 . S
H1130 C1142 0.950 . S
H1131 C1143 0.950 . S
C1132 H1124 0.950 . S
C1132 C1133 1.386 . S
C1132 C1134 1.391 1_545 S
C1133 C1132 1.386 . S
C1133 C1137 1.393 . S
C1134 H1126 0.950 . S
C1134 C1132 1.391 1_565 S
C1134 C1135 1.400 1_565 S
C1135 C1134 1.400 1_545 S
C1135 C1136 1.398 . S
C1135 C1141 1.491 1_545 S
C1136 H1127 0.950 . S
C1136 C1135 1.398 . S
C1136 C1137 1.391 . S
C1137 H1125 0.950 . S
C1137 C1133 1.393 . S
C1137 C1136 1.391 . S
C1138 H1128 0.950 . S
C1138 C1139 1.386 . S
C1138 C1140 1.391 1_565 S
C1139 C1138 1.386 . S
C1139 C1143 1.393 . S
C1140 H1129 0.950 . S
C1140 C1138 1.391 1_545 S
C1140 C1141 1.400 1_545 S
C1141 C1135 1.491 1_565 S
C1141 C1140 1.400 1_565 S
C1141 C1142 1.398 . S
C1142 H1130 0.950 . S
C1142 C1141 1.398 . S
C1142 C1143 1.391 . S
C1143 H1131 0.950 . S
C1143 C1139 1.393 . S
C1143 C1142 1.391 . S
H1144 C1152 0.950 . S
H1145 C1157 0.950 . S
H1146 C1154 0.950 . S
H1147 C1156 0.950 . S
H1148 C1158 0.950 . S
H1149 C1160 0.950 . S
H1150 C1162 0.950 . S
H1151 C1163 0.950 . S
C1152 H1144 0.950 . S
C1152 C1153 1.386 . S
C1152 C1154 1.391 . S
C1153 C1152 1.386 . S
C1153 C1157 1.393 . S
C1154 H1146 0.950 . S
C1154 C1152 1.391 . S
C1154 C1155 1.400 . S
C1155 C1154 1.400 . S
C1155 C1156 1.398 . S
C1155 C1161 1.491 . S
C1156 H1147 0.950 . S
C1156 C1155 1.398 . S
C1156 C1157 1.391 . S
C1157 H1145 0.950 . S
C1157 C1153 1.393 . S
C1157 C1156 1.391 . S
C1158 H1148 0.950 . S
C1158 C1159 1.386 . S
C1158 C1160 1.391 . S
C1159 C1158 1.386 . S
C1159 C1163 1.393 . S
C1160 H1149 0.950 . S
C1160 C1158 1.391 . S
C1160 C1161 1.400 . S
C1161 C1155 1.491 . S
C1161 C1160 1.400 . S
C1161 C1162 1.398 . S
C1162 H1150 0.950 . S
C1162 C1161 1.398 . S
C1162 C1163 1.391 . S
C1163 H1151 0.950 . S
C1163 C1159 1.393 . S
C1163 C1162 1.391 . S
H1164 C1172 0.950 1_655 S
H1165 C1177 0.950 . S
H1166 C1174 0.950 . S
H1167 C1176 0.950 . S
H1168 C1178 0.950 1_455 S
H1169 C1180 0.950 . S
H1170 C1182 0.950 . S
H1171 C1183 0.950 . S
C1172 H1164 0.950 1_455 S
C1172 C1173 1.386 . S
C1172 C1174 1.391 1_455 S
C1173 C1172 1.386 . S
C1173 C1177 1.393 . S
C1174 H1166 0.950 . S
C1174 C1172 1.391 1_655 S
C1174 C1175 1.400 1_655 S
C1175 C1174 1.400 1_455 S
C1175 C1176 1.398 . S
C1175 C1181 1.491 1_455 S
C1176 H1167 0.950 . S
C1176 C1175 1.398 . S
C1176 C1177 1.391 . S
C1177 H1165 0.950 . S
C1177 C1173 1.393 . S
C1177 C1176 1.391 . S
C1178 H1168 0.950 1_655 S
C1178 C1179 1.386 . S
C1178 C1180 1.391 1_655 S
C1179 C1178 1.386 . S
C1179 C1183 1.393 . S
C1180 H1169 0.950 . S
C1180 C1178 1.391 1_455 S
C1180 C1181 1.400 1_455 S
C1181 C1175 1.491 1_655 S
C1181 C1180 1.400 1_655 S
C1181 C1182 1.398 . S
C1182 H1170 0.950 . S
C1182 C1181 1.398 . S
C1182 C1183 1.391 . S
C1183 H1171 0.950 . S
C1183 C1179 1.393 . S
C1183 C1182 1.391 . S
H1184 C1192 0.950 . S
H1185 C1197 0.950 . S
H1186 C1194 0.950 . S
H1187 C1196 0.950 . S
H1188 C1198 0.950 . S
H1189 C1200 0.950 . S
H1190 C1202 0.950 . S
H1191 C1203 0.950 . S
C1192 H1184 0.950 . S
C1192 C1193 1.386 . S
C1192 C1194 1.391 . S
C1193 C1192 1.386 . S
C1193 C1197 1.393 . S
C1194 H1186 0.950 . S
C1194 C1192 1.391 . S
C1194 C1195 1.400 . S
C1195 C1194 1.400 . S
C1195 C1196 1.398 . S
C1195 C1201 1.491 . S
C1196 H1187 0.950 . S
C1196 C1195 1.398 . S
C1196 C1197 1.391 . S
C1197 H1185 0.950 . S
C1197 C1193 1.393 . S
C1197 C1196 1.391 . S
C1198 H1188 0.950 . S
C1198 C1199 1.386 . S
C1198 C1200 1.391 . S
C1199 C1198 1.386 . S
C1199 C1203 1.393 . S
C1200 H1189 0.950 . S
C1200 C1198 1.391 . S
C1200 C1201 1.400 . S
C1201 C1195 1.491 . S
C1201 C1200 1.400 . S
C1201 C1202 1.398 . S
C1202 H1190 0.950 . S
C1202 C1201 1.398 . S
C1202 C1203 1.391 . S
C1203 H1191 0.950 . S
C1203 C1199 1.393 . S
C1203 C1202 1.391 . S
H1204 C1212 0.950 . S
H1205 C1217 0.950 . S
H1206 C1214 0.950 . S
H1207 C1216 0.950 . S
H1208 C1218 0.950 . S
H1209 C1220 0.950 . S
H1210 C1222 0.950 . S
H1211 C1223 0.950 . S
C1212 H1204 0.950 . S
C1212 C1213 1.386 . S
C1212 C1214 1.391 . S
C1213 C1212 1.386 . S
C1213 C1217 1.393 . S
C1214 H1206 0.950 . S
C1214 C1212 1.391 . S
C1214 C1215 1.400 . S
C1215 C1214 1.400 . S
C1215 C1216 1.398 . S
C1215 C1221 1.491 . S
C1216 H1207 0.950 . S
C1216 C1215 1.398 . S
C1216 C1217 1.391 . S
C1217 H1205 0.950 . S
C1217 C1213 1.393 . S
C1217 C1216 1.391 . S
C1218 H1208 0.950 . S
C1218 C1219 1.386 . S
C1218 C1220 1.391 . S
C1219 C1218 1.386 . S
C1219 C1223 1.393 . S
C1220 H1209 0.950 . S
C1220 C1218 1.391 . S
C1220 C1221 1.400 . S
C1221 C1215 1.491 . S
C1221 C1220 1.400 . S
C1221 C1222 1.398 . S
C1222 H1210 0.950 . S
C1222 C1221 1.398 . S
C1222 C1223 1.391 . S
C1223 H1211 0.950 . S
C1223 C1219 1.393 . S
C1223 C1222 1.391 . S
H1224 C1232 0.950 . S
H1225 C1237 0.950 . S
H1226 C1234 0.950 . S
H1227 C1236 0.950 . S
H1228 C1238 0.950 . S
H1229 C1240 0.950 . S
H1230 C1242 0.950 . S
H1231 C1243 0.950 . S
C1232 H1224 0.950 . S
C1232 C1233 1.386 . S
C1232 C1234 1.391 . S
C1233 C1232 1.386 . S
C1233 C1237 1.393 . S
C1234 H1226 0.950 . S
C1234 C1232 1.391 . S
C1234 C1235 1.400 . S
C1235 C1234 1.400 . S
C1235 C1236 1.398 . S
C1235 C1241 1.491 . S
C1236 H1227 0.950 . S
C1236 C1235 1.398 . S
C1236 C1237 1.391 . S
C1237 H1225 0.950 . S
C1237 C1233 1.393 . S
C1237 C1236 1.391 . S
C1238 H1228 0.950 . S
C1238 C1239 1.386 . S
C1238 C1240 1.391 . S
C1239 C1238 1.386 . S
C1239 C1243 1.393 . S
C1240 H1229 0.950 . S
C1240 C1238 1.391 . S
C1240 C1241 1.400 . S
C1241 C1235 1.491 . S
C1241 C1240 1.400 . S
C1241 C1242 1.398 . S
C1242 H1230 0.950 . S
C1242 C1241 1.398 . S
C1242 C1243 1.391 . S
C1243 H1231 0.950 . S
C1243 C1239 1.393 . S
C1243 C1242 1.391 . S
H1244 C1252 0.950 . S
H1245 C1257 0.950 . S
H1246 C1254 0.950 . S
H1247 C1256 0.950 . S
H1248 C1258 0.950 . S
H1249 C1260 0.950 . S
H1250 C1262 0.950 . S
H1251 C1263 0.950 . S
C1252 H1244 0.950 . S
C1252 C1253 1.386 . S
C1252 C1254 1.391 . S
C1253 C1252 1.386 . S
C1253 C1257 1.393 . S
C1254 H1246 0.950 . S
C1254 C1252 1.391 . S
C1254 C1255 1.400 . S
C1255 C1254 1.400 . S
C1255 C1256 1.398 . S
C1255 C1261 1.491 . S
C1256 H1247 0.950 . S
C1256 C1255 1.398 . S
C1256 C1257 1.391 . S
C1257 H1245 0.950 . S
C1257 C1253 1.393 . S
C1257 C1256 1.391 . S
C1258 H1248 0.950 . S
C1258 C1259 1.386 . S
C1258 C1260 1.391 . S
C1259 C1258 1.386 . S
C1259 C1263 1.393 . S
C1260 H1249 0.950 . S
C1260 C1258 1.391 . S
C1260 C1261 1.400 . S
C1261 C1255 1.491 . S
C1261 C1260 1.400 . S
C1261 C1262 1.398 . S
C1262 H1250 0.950 . S
C1262 C1261 1.398 . S
C1262 C1263 1.391 . S
C1263 H1251 0.950 . S
C1263 C1259 1.393 . S
C1263 C1262 1.391 . S
H1264 C1272 0.950 . S
H1265 C1277 0.950 . S
H1266 C1274 0.950 . S
H1267 C1276 0.950 . S
H1268 C1278 0.950 . S
H1269 C1280 0.950 . S
H1270 C1282 0.950 . S
H1271 C1283 0.950 . S
C1272 H1264 0.950 . S
C1272 C1273 1.386 . S
C1272 C1274 1.391 . S
C1273 C1272 1.386 . S
C1273 C1277 1.393 . S
C1274 H1266 0.950 . S
C1274 C1272 1.391 . S
C1274 C1275 1.400 . S
C1275 C1274 1.400 . S
C1275 C1276 1.398 . S
C1275 C1281 1.491 . S
C1276 H1267 0.950 . S
C1276 C1275 1.398 . S
C1276 C1277 1.391 . S
C1277 H1265 0.950 . S
C1277 C1273 1.393 . S
C1277 C1276 1.391 . S
C1278 H1268 0.950 . S
C1278 C1279 1.386 . S
C1278 C1280 1.391 . S
C1279 C1278 1.386 . S
C1279 C1283 1.393 . S
C1280 H1269 0.950 . S
C1280 C1278 1.391 . S
C1280 C1281 1.400 . S
C1281 C1275 1.491 . S
C1281 C1280 1.400 . S
C1281 C1282 1.398 . S
C1282 H1270 0.950 . S
C1282 C1281 1.398 . S
C1282 C1283 1.391 . S
C1283 H1271 0.950 . S
C1283 C1279 1.393 . S
C1283 C1282 1.391 . S
H1284 C1292 0.950 . S
H1285 C1297 0.950 . S
H1286 C1294 0.950 . S
H1287 C1296 0.950 . S
H1288 C1298 0.950 . S
H1289 C1300 0.950 . S
H1290 C1302 0.950 . S
H1291 C1303 0.950 . S
C1292 H1284 0.950 . S
C1292 C1293 1.386 . S
C1292 C1294 1.391 . S
C1293 C1292 1.386 . S
C1293 C1297 1.393 . S
C1294 H1286 0.950 . S
C1294 C1292 1.391 . S
C1294 C1295 1.400 . S
C1295 C1294 1.400 . S
C1295 C1296 1.398 . S
C1295 C1301 1.491 . S
C1296 H1287 0.950 . S
C1296 C1295 1.398 . S
C1296 C1297 1.391 . S
C1297 H1285 0.950 . S
C1297 C1293 1.393 . S
C1297 C1296 1.391 . S
C1298 H1288 0.950 . S
C1298 C1299 1.386 . S
C1298 C1300 1.391 . S
C1299 C1298 1.386 . S
C1299 C1303 1.393 . S
C1300 H1289 0.950 . S
C1300 C1298 1.391 . S
C1300 C1301 1.400 . S
C1301 C1295 1.491 . S
C1301 C1300 1.400 . S
C1301 C1302 1.398 . S
C1302 H1290 0.950 . S
C1302 C1301 1.398 . S
C1302 C1303 1.391 . S
C1303 H1291 0.950 . S
C1303 C1299 1.393 . S
C1303 C1302 1.391 . S
H1304 C1312 0.950 . S
H1305 C1317 0.950 . S
H1306 C1314 0.950 . S
H1307 C1316 0.950 . S
H1308 C1318 0.950 . S
H1309 C1320 0.950 . S
H1310 C1322 0.950 . S
H1311 C1323 0.950 . S
C1312 H1304 0.950 . S
C1312 C1313 1.386 . S
C1312 C1314 1.391 . S
C1313 C1312 1.386 . S
C1313 C1317 1.393 . S
C1314 H1306 0.950 . S
C1314 C1312 1.391 . S
C1314 C1315 1.400 . S
C1315 C1314 1.400 . S
C1315 C1316 1.398 . S
C1315 C1321 1.491 . S
C1316 H1307 0.950 . S
C1316 C1315 1.398 . S
C1316 C1317 1.391 . S
C1317 H1305 0.950 . S
C1317 C1313 1.393 . S
C1317 C1316 1.391 . S
C1318 H1308 0.950 . S
C1318 C1319 1.386 . S
C1318 C1320 1.391 . S
C1319 C1318 1.386 . S
C1319 C1323 1.393 . S
C1320 H1309 0.950 . S
C1320 C1318 1.391 . S
C1320 C1321 1.400 . S
C1321 C1315 1.491 . S
C1321 C1320 1.400 . S
C1321 C1322 1.398 . S
C1322 H1310 0.950 . S
C1322 C1321 1.398 . S
C1322 C1323 1.391 . S
C1323 H1311 0.950 . S
C1323 C1319 1.393 . S
C1323 C1322 1.391 . S
H1324 C1332 0.950 . S
H1325 C1337 0.950 . S
H1326 C1334 0.950 . S
H1327 C1336 0.950 . S
H1328 C1338 0.950 . S
H1329 C1340 0.950 . S
H1330 C1342 0.950 . S
H1331 C1343 0.950 . S
C1332 H1324 0.950 . S
C1332 C1333 1.386 . S
C1332 C1334 1.391 . S
C1333 C1332 1.386 . S
C1333 C1337 1.393 . S
C1334 H1326 0.950 . S
C1334 C1332 1.391 . S
C1334 C1335 1.400 . S
C1335 C1334 1.400 . S
C1335 C1336 1.398 . S
C1335 C1341 1.491 . S
C1336 H1327 0.950 . S
C1336 C1335 1.398 . S
C1336 C1337 1.391 . S
C1337 H1325 0.950 . S
C1337 C1333 1.393 . S
C1337 C1336 1.391 . S
C1338 H1328 0.950 . S
C1338 C1339 1.386 . S
C1338 C1340 1.391 . S
C1339 C1338 1.386 . S
C1339 C1343 1.393 . S
C1340 H1329 0.950 . S
C1340 C1338 1.391 . S
C1340 C1341 1.400 . S
C1341 C1335 1.491 . S
C1341 C1340 1.400 . S
C1341 C1342 1.398 . S
C1342 H1330 0.950 . S
C1342 C1341 1.398 . S
C1342 C1343 1.391 . S
C1343 H1331 0.950 . S
C1343 C1339 1.393 . S
C1343 C1342 1.391 . S
C553 C9 0.831 . S
C559 C67 0.832 . S
C573 C101 0.830 . S
C579 C43 0.794 . S
C593 C135 0.827 . S
C599 C77 0.784 . S
C613 C111 0.766 . S
C619 C33 0.827 . S
C633 C271 0.830 . S
C639 C145 0.821 . S
C653 C169 0.833 . S
C659 C179 0.833 . S
C673 C203 0.832 . S
C679 C213 0.827 . S
C693 C247 0.812 . S
C699 C237 0.829 . S
C713 C281 0.817 . S
C719 C339 0.830 . S
C733 C315 0.822 . S
C739 C373 0.832 . S
C753 C407 0.827 . S
C759 C349 0.771 . S
C773 C305 0.826 . S
C779 C383 0.761 . S
C793 C543 0.832 . S
C799 C417 0.834 . S
C813 C441 0.826 . S
C819 C451 0.762 . S
C833 C485 0.802 . S
C839 C475 0.830 . S
C853 C519 0.796 . S
C859 C509 0.830 . S
C873 C5 2.196 . S
C879 C73 2.200 . S
C893 C39 2.200 . S
C899 C107 2.205 . S
C913 C209 2.205 . S
C919 C141 2.208 . S
C933 C243 2.196 . S
C939 C175 2.200 . S
C953 C345 2.197 . S
C959 C277 2.196 . S
C973 C311 2.201 . S
C979 C379 2.197 . S
C993 C413 2.198 . S
C999 C481 2.203 . S
C1013 C447 2.201 . S
C1019 C515 2.206 . S
C1033 C20 1.807 . S
C1039 C292 1.807 . S
C1053 C54 1.804 . S
C1059 C326 1.804 . S
C1073 C88 1.807 . S
C1079 C360 1.807 . S
C1093 C394 1.805 . S
C1099 C122 1.805 . S
C1113 C428 1.802 . S
C1119 C156 1.802 . S
C1133 C190 1.805 . S
C1139 C462 1.805 . S
C1153 C224 1.806 . S
C1159 C496 1.806 . S
C1173 C530 1.799 . S
C1179 C258 1.799 . S
C1193 C172 1.630 . S
C1199 C2 1.628 . S
C1213 C206 1.632 . S
C1219 C36 1.630 . S
C1233 C70 1.627 . S
C1239 C240 1.628 . S
C1253 C138 1.631 . S
C1259 C104 1.632 . S
C1273 C274 1.630 . S
C1279 C444 1.632 . S
C1293 C478 1.629 . S
C1299 C308 1.631 . S
C1313 C512 1.630 . S
C1319 C342 1.632 . S
C1333 C376 1.632 . S
C1339 C410 1.631 . S
