# Generated by pormake.
# Topology hcp, (12)-cn, num edge types: 1
# Building blocks:
#     Node 0, Type 0, BuildingBlock: ZALLEG_clean_sbu_0, # of connection points: 12
#     Node 1, Type 0, BuildingBlock: ZALLEG_clean_sbu_0, # of connection points: 12
#     Edge 2, Type (0, 0), BuildingBlock: FUNLAD_clean_linker_1, # of connection points: 2
#     Edge 3, Type (0, 0), BuildingBlock: FUNLAD_clean_linker_1, # of connection points: 2
#     Edge 4, Type (0, 0), BuildingBlock: FUNLAD_clean_linker_1, # of connection points: 2
#     Edge 5, Type (0, 0), BuildingBlock: FUNLAD_clean_linker_1, # of connection points: 2
#     Edge 6, Type (0, 0), BuildingBlock: FUNLAD_clean_linker_1, # of connection points: 2
#     Edge 7, Type (0, 0), BuildingBlock: FUNLAD_clean_linker_1, # of connection points: 2
#     Edge 8, Type (0, 0), BuildingBlock: FUNLAD_clean_linker_1, # of connection points: 2
#     Edge 9, Type (0, 0), BuildingBlock: FUNLAD_clean_linker_1, # of connection points: 2
#     Edge 10, Type (0, 0), BuildingBlock: FUNLAD_clean_linker_1, # of connection points: 2
#     Edge 11, Type (0, 0), BuildingBlock: FUNLAD_clean_linker_1, # of connection points: 2
#     Edge 12, Type (0, 0), BuildingBlock: FUNLAD_clean_linker_1, # of connection points: 2
#     Edge 13, Type (0, 0), BuildingBlock: FUNLAD_clean_linker_1, # of connection points: 2
# Relax obj value: 0.186
# Max RMSD: 0.270
# Mean RMSD: 0.270
data_MOF--net-hcp--node1-ZALLEG_clean_sbu_0--edge1-FUNLAD_clean_linker_1
_symmetry_space_group_name_H-M    P1
_symmetry_Int_Tables_number       1
_symmetry_cell_setting            triclinic
loop_
_symmetry_equiv_pos_as_xyz
'x, y, z'
_cell_length_a     18.907937
_cell_length_b     19.028919
_cell_length_c     30.382406
_cell_angle_alpha  90.420769
_cell_angle_beta   89.459688
_cell_angle_gamma 119.94846
loop_
_atom_site_label
_atom_site_type_symbol
_atom_site_fract_x
_atom_site_fract_y
_atom_site_fract_z
_atom_type_partial_charge
H0 H 0.59278 0.15527 0.24697 0.0
O1 O 0.61541 0.21139 0.25787 0.0
Tb2 Tb 0.54091 0.25994 0.23908 0.0
Tb3 Tb 0.62774 0.21448 0.32676 0.0
Tb4 Tb 0.73143 0.2841 0.23137 0.0
O5 O 0.54641 0.25541 0.30843 0.0
O6 O 0.65761 0.33112 0.21062 0.0
O7 O 0.5887 0.37791 0.2627 0.0
O8 O 0.67271 0.33179 0.35091 0.0
O9 O 0.78385 0.40468 0.25502 0.0
O10 O 0.74416 0.28632 0.30058 0.0
H11 H 0.49187 0.22166 0.32182 0.0
H12 H 0.65498 0.33139 0.17813 0.0
Tb13 Tb 0.59452 0.37334 0.3315 0.0
Tb14 Tb 0.70785 0.44921 0.23652 0.0
H15 H 0.55275 0.39931 0.25426 0.0
H16 H 0.67543 0.33206 0.38323 0.0
Tb17 Tb 0.78874 0.40627 0.32405 0.0
H18 H 0.83933 0.43967 0.24308 0.0
H19 H 0.77933 0.26454 0.31006 0.0
O20 O 0.71275 0.45126 0.30587 0.0
H21 H 0.73482 0.50673 0.31774 0.0
O22 O 0.45149 0.13376 0.25587 0.0
O23 O 0.87734 0.53315 0.31019 0.0
O24 O 0.82032 0.35707 0.37888 0.0
O25 O 0.51771 0.32337 0.1837 0.0
O26 O 0.66114 0.12314 0.30964 0.0
O27 O 0.67316 0.53966 0.2548 0.0
O28 O 0.78669 0.4697 0.17688 0.0
O29 O 0.55668 0.18853 0.3861 0.0
O30 O 0.66209 0.20169 0.17521 0.0
O31 O 0.65004 0.44984 0.38724 0.0
O32 O 0.4662 0.33706 0.32452 0.0
O33 O 0.85977 0.31982 0.23954 0.0
O34 O 0.5118 0.10185 0.31582 0.0
O35 O 0.8215 0.56336 0.24809 0.0
O36 O 0.63539 0.45537 0.18359 0.0
O37 O 0.70535 0.22462 0.3856 0.0
O38 O 0.42853 0.2618 0.25756 0.0
O39 O 0.9002 0.40196 0.30464 0.0
O40 O 0.78513 0.47042 0.38655 0.0
O41 O 0.52952 0.18656 0.18141 0.0
O42 O 0.53645 0.3018 0.39333 0.0
O43 O 0.79982 0.3517 0.17393 0.0
O44 O 0.73275 0.17084 0.24177 0.0
O45 O 0.59375 0.48704 0.32046 0.0
C46 C 0.45217 0.08386 0.28675 0.0
C47 C 0.87818 0.58291 0.27903 0.0
C48 C 0.77716 0.28712 0.40001 0.0
C49 C 0.56217 0.40022 0.16869 0.0
C50 C 0.7009 0.11706 0.2745 0.0
C51 C 0.62853 0.54263 0.28861 0.0
C52 C 0.81658 0.42436 0.15927 0.0
C53 C 0.53106 0.23239 0.40812 0.0
C54 C 0.58388 0.17067 0.16223 0.0
C55 C 0.72317 0.47724 0.40495 0.0
C56 C 0.41317 0.2951 0.29282 0.0
C57 C 0.91395 0.36497 0.27033 0.0
H58 H 0.16056 0.59894 0.74556 0.0
O59 O 0.2165 0.6195 0.75652 0.0
Tb60 Tb 0.21658 0.62314 0.82557 0.0
Tb61 Tb 0.26492 0.54669 0.7339 0.0
Tb62 Tb 0.29321 0.73742 0.73472 0.0
O63 O 0.25691 0.54305 0.80331 0.0
O64 O 0.29296 0.74099 0.80425 0.0
O65 O 0.33282 0.6619 0.85069 0.0
O66 O 0.38183 0.58842 0.75786 0.0
O67 O 0.41287 0.78343 0.75916 0.0
O68 O 0.33938 0.66502 0.70963 0.0
H69 H 0.22168 0.48744 0.81448 0.0
H70 H 0.27158 0.77554 0.8157 0.0
Tb71 Tb 0.37394 0.58512 0.82696 0.0
Tb72 Tb 0.41189 0.77919 0.82825 0.0
H73 H 0.331 0.66138 0.88309 0.0
H74 H 0.40275 0.55315 0.74705 0.0
Tb75 Tb 0.45646 0.709 0.73611 0.0
H76 H 0.44941 0.83971 0.74944 0.0
H77 H 0.34099 0.66622 0.67708 0.0
O78 O 0.45594 0.70486 0.80564 0.0
H79 H 0.51109 0.72476 0.81771 0.0
O80 O 0.10259 0.51032 0.81091 0.0
O81 O 0.57211 0.81784 0.7512 0.0
O82 O 0.46285 0.64386 0.67905 0.0
O83 O 0.22274 0.69673 0.88568 0.0
O84 O 0.19418 0.54249 0.6776 0.0
O85 O 0.47169 0.76663 0.88963 0.0
O86 O 0.41417 0.89372 0.81484 0.0
O87 O 0.26073 0.43158 0.74638 0.0
O88 O 0.18056 0.74054 0.74661 0.0
O89 O 0.4881 0.58418 0.81408 0.0
O90 O 0.29633 0.52054 0.88656 0.0
O91 O 0.36504 0.8123 0.68016 0.0
O92 O 0.13739 0.45641 0.74834 0.0
O93 O 0.54023 0.86882 0.8156 0.0
O94 O 0.36036 0.80534 0.88503 0.0
O95 O 0.33022 0.5273 0.677 0.0
O96 O 0.18578 0.54667 0.88203 0.0
O97 O 0.48199 0.79614 0.68049 0.0
O98 O 0.54421 0.66919 0.75092 0.0
O99 O 0.12734 0.66046 0.81113 0.0
O100 O 0.33823 0.45913 0.81194 0.0
O101 O 0.33005 0.86362 0.75115 0.0
O102 O 0.21186 0.67543 0.67652 0.0
O103 O 0.44771 0.63175 0.88472 0.0
C104 C 0.08591 0.45383 0.77985 0.0
C105 C 0.59075 0.87208 0.78349 0.0
C106 C 0.40756 0.57296 0.66193 0.0
C107 C 0.28627 0.76435 0.90299 0.0
C108 C 0.17926 0.59848 0.66122 0.0
C109 C 0.47685 0.70276 0.90519 0.0
C110 C 0.37718 0.91277 0.78349 0.0
C111 C 0.29484 0.4113 0.7785 0.0
C112 C 0.12455 0.70552 0.77838 0.0
C113 C 0.54509 0.62103 0.7827 0.0
C114 C 0.22672 0.51616 0.90191 0.0
C115 C 0.43853 0.82961 0.66527 0.0
H116 H 0.22793 0.80566 0.95359 0.0
C117 C 0.27998 0.79802 0.94625 0.0
H118 H 0.39716 0.82093 0.96382 0.0
H119 H 0.55998 0.16204 0.04358 0.0
H120 H 0.61202 0.19305 0.96902 0.0
H121 H 0.55321 0.08962 0.9104 0.0
H122 H 0.44143 0.95473 0.92611 0.0
C123 C 0.34686 0.83095 0.97243 0.0
C124 C 0.36828 0.89647 1.00592 0.0
C125 C 0.43443 0.97537 0.99668 0.0
C126 C 0.46947 0.03475 1.03077 0.0
C127 C 0.53314 0.11354 1.01967 0.0
C128 C 0.56315 0.13255 0.97676 0.0
C129 C 0.53002 0.07437 0.94376 0.0
C130 C 0.46624 0.99687 0.95334 0.0
H131 H 0.59516 0.09608 0.10868 0.0
C132 C 0.55341 0.11194 0.12471 0.0
H133 H 0.43279 0.0915 0.12777 0.0
H134 H 0.23809 0.75476 1.03381 0.0
H135 H 0.17831 0.72601 0.10713 0.0
H136 H 0.2369 0.82812 0.16609 0.0
H137 H 0.35766 0.95888 0.15316 0.0
C138 C 0.47483 0.07698 0.11093 0.0
C139 C 0.43922 0.01505 0.07458 0.0
C140 C 0.36931 0.93776 0.0831 0.0
C141 C 0.3343 0.87854 0.04881 0.0
C142 C 0.26623 0.80177 0.05854 0.0
C143 C 0.23156 0.7844 0.10048 0.0
C144 C 0.26484 0.84195 0.13379 0.0
C145 C 0.3336 0.91724 0.12566 0.0
H146 H 0.39676 0.48397 0.6103 0.0
C147 C 0.43763 0.54258 0.62501 0.0
H148 H 0.55707 0.64496 0.62548 0.0
H149 H 0.64531 0.38117 0.53594 0.0
H150 H 0.60008 0.30916 0.60553 0.0
H151 H 0.5401 0.35416 0.66337 0.0
H152 H 0.51834 0.46747 0.65148 0.0
C153 C 0.51661 0.58568 0.61133 0.0
C154 C 0.55447 0.55868 0.57657 0.0
C155 C 0.56839 0.49326 0.58437 0.0
C156 C 0.60743 0.47009 0.55162 0.0
C157 C 0.61683 0.40197 0.55973 0.0
C158 C 0.59165 0.36031 0.59949 0.0
C159 C 0.55719 0.38533 0.63208 0.0
C160 C 0.54517 0.45066 0.62477 0.0
H161 H 0.78215 0.56638 0.46008 0.0
C162 C 0.7281 0.51101 0.44983 0.0
H163 H 0.60735 0.41918 0.4639 0.0
H164 H 0.54323 0.69083 0.55253 0.0
H165 H 0.59284 0.76704 0.48479 0.0
H166 H 0.66126 0.72814 0.42815 0.0
H167 H 0.6814 0.61411 0.439 0.0
C168 C 0.65787 0.47759 0.47409 0.0
C169 C 0.63666 0.51483 0.51182 0.0
C170 C 0.62602 0.58288 0.50494 0.0
C171 C 0.58526 0.60478 0.53739 0.0
C172 C 0.57418 0.67189 0.52926 0.0
C173 C 0.60197 0.716 0.49039 0.0
C174 C 0.64051 0.69412 0.45853 0.0
C175 C 0.65204 0.62825 0.46539 0.0
H176 H 0.88153 0.50757 0.103 0.0
C177 C 0.87639 0.45727 0.12218 0.0
H178 H 0.9234 0.37865 0.13381 0.0
H179 H 0.03179 0.42716 0.92772 0.0
H180 H 0.88686 0.34766 0.91316 0.0
H181 H 0.7859 0.31152 0.97311 0.0
H182 H 0.82915 0.35786 0.04778 0.0
C183 C 0.92554 0.42596 0.11307 0.0
C184 C 0.98605 0.45307 0.07606 0.0
C185 C 0.96012 0.42349 1.03278 0.0
C186 C 0.01873 0.44228 0.99837 0.0
C187 C 0.99045 0.41412 0.95523 0.0
C188 C 0.90729 0.36812 0.9464 0.0
C189 C 0.85041 0.34798 0.98013 0.0
C190 C 0.87612 0.37501 1.02287 0.0
H191 H 0.18369 0.42511 0.95636 0.0
C192 C 0.19294 0.48364 0.94615 0.0
H193 H 0.17635 0.58374 0.95939 0.0
H194 H 0.0575 0.51537 0.15556 0.0
H195 H 0.20297 0.59939 0.16926 0.0
H196 H 0.30314 0.6393 0.10892 0.0
H197 H 0.25935 0.59275 1.0343 0.0
C198 C 0.16297 0.52382 0.96998 0.0
C199 C 0.10353 0.49033 1.00726 0.0
C200 C 0.12919 0.52112 0.05033 0.0
C201 C 0.07079 0.50056 0.08497 0.0
C202 C 0.09904 0.52948 0.12797 0.0
C203 C 0.18218 0.57807 0.13632 0.0
C204 C 0.23877 0.60047 0.10228 0.0
C205 C 0.21284 0.57317 0.05966 0.0
H206 H 0.52398 0.89909 0.61018 0.0
C207 C 0.47372 0.89319 0.63047 0.0
H208 H 0.39241 0.93685 0.64454 0.0
H209 H 0.6469 0.24762 0.52319 0.0
H210 H 0.73938 0.28449 0.585 0.0
H211 H 0.70344 0.1949 0.64942 0.0
H212 H 0.57924 0.06302 0.65044 0.0
C213 C 0.44216 0.94257 0.62381 0.0
C214 C 0.46379 -0.00032 0.58597 0.0
C215 C 0.53638 0.07627 0.58609 0.0
C216 C 0.55466 0.13047 0.55007 0.0
C217 C 0.62964 0.20471 0.54993 0.0
C218 C 0.68311 0.22672 0.58524 0.0
C219 C 0.66307 0.1759 0.62142 0.0
C220 C 0.59132 0.10086 0.62175 0.0
H221 H 0.45841 0.21558 0.47005 0.0
C222 C 0.50145 0.20221 0.45345 0.0
H223 H 0.57567 0.14812 0.4569 0.0
H224 H 0.31555 0.86135 0.57722 0.0
H225 H 0.2193 0.82874 0.51782 0.0
H226 H 0.24957 0.92393 0.45642 0.0
H227 H 0.37581 0.05253 0.45425 0.0
C228 C 0.52806 0.15555 0.47283 0.0
C229 C 0.49856 0.11022 0.51503 0.0
C230 C 0.42352 0.03583 0.51633 0.0
C231 C 0.40628 0.98059 0.55171 0.0
C232 C 0.33169 0.90585 0.55144 0.0
C233 C 0.27593 0.88616 0.51744 0.0
C234 C 0.29298 0.93973 0.48287 0.0
C235 C 0.36587 0.01354 0.48205 0.0
H236 H 0.4899 0.38572 0.10834 0.0
C237 C 0.5303 0.42893 0.13264 0.0
H238 H 0.59419 0.55049 0.15438 0.0
H239 H 0.66028 0.74047 0.97855 0.0
H240 H 0.79673 0.78609 1.00576 0.0
H241 H 0.81808 0.72299 0.07111 0.0
H242 H 0.70382 0.61424 0.10961 0.0
C243 C 0.55549 0.50914 0.12888 0.0
C244 C 0.54124 0.54754 0.08949 0.0
C245 C 0.60923 0.61218 0.06741 0.0
C246 C 0.59728 0.64827 1.02923 0.0
C247 C 0.66615 0.71111 1.0075 0.0
C248 C 0.74476 0.7379 1.02279 0.0
C249 C 0.75675 0.70244 0.05963 0.0
C250 C 0.69023 0.6402 0.08166 0.0
H251 H 0.52329 0.755 0.97226 0.0
C252 C 0.50756 0.70376 0.95056 0.0
H253 H 0.48937 0.58463 0.94411 0.0
H254 H 0.39656 0.4409 0.12951 0.0
H255 H 0.26107 0.39118 0.10016 0.0
H256 H 0.24149 0.44235 1.02996 0.0
H257 H 0.35716 0.54873 0.98988 0.0
C258 C 0.50666 0.63617 0.96585 0.0
C259 C 0.51784 0.61885 1.01238 0.0
C260 C 0.44981 0.55646 1.0354 0.0
C261 C 0.4613 0.52277 0.07464 0.0
C262 C 0.39177 0.46476 0.0982 0.0
C263 C 0.31352 0.43627 0.08196 0.0
C264 C 0.30253 0.46546 0.04243 0.0
C265 C 0.36942 0.52583 1.01964 0.0
H266 H 0.77912 0.23209 0.46502 0.0
C267 C 0.80849 0.28664 0.44512 0.0
H268 H 0.89531 0.41241 0.44267 0.0
H269 H 0.97177 0.55066 0.62681 0.0
H270 H 0.86992 0.58627 0.60736 0.0
H271 H 0.78302 0.52559 0.54282 0.0
H272 H 0.79376 0.42449 0.49792 0.0
C273 C 0.86948 0.35741 0.4622 0.0
C274 C 0.90349 0.37294 0.50785 0.0
C275 C 0.89557 0.43044 0.53449 0.0
C276 C 0.9482 0.46815 0.57111 0.0
C277 C 0.93636 0.52301 0.59757 0.0
C278 C 0.87741 0.54337 0.58708 0.0
C279 C 0.82796 0.50866 0.55075 0.0
C280 C 0.83572 0.45193 0.52499 0.0
H281 H 0.11974 0.61314 0.60141 0.0
C282 C 0.11979 0.56953 0.62424 0.0
H283 H 0.06684 0.44654 0.64292 0.0
H284 H 0.93054 0.26031 0.46705 0.0
H285 H 0.03313 0.2249 0.48595 0.0
H286 H 0.12648 0.29182 0.54805 0.0
H287 H 0.11846 0.39479 0.59139 0.0
C288 C 0.06686 0.48873 0.61898 0.0
C289 C 0.01065 0.45013 0.58064 0.0
C290 C 0.01528 0.3888 0.55569 0.0
C291 C 0.96157 0.35014 0.51952 0.0
C292 C 0.96957 0.29129 0.49469 0.0
C293 C 0.02815 0.27032 0.50523 0.0
C294 C 0.08061 0.30791 0.54024 0.0
C295 C 0.07488 0.36669 0.5651 0.0
H296 H 0.7395 0.03754 0.24201 0.0
C297 C 0.7058 0.04278 0.26984 0.0
H298 H 0.62966 0.9827 0.32472 0.0
H299 H 0.54881 0.66226 0.20806 0.0
H300 H 0.46019 0.69726 0.1679 0.0
H301 H 0.46257 0.8262 0.1826 0.0
H302 H 0.5529 0.92044 0.23773 0.0
C303 C 0.66425 0.97946 0.2968 0.0
C304 C 0.66176 0.90177 0.28843 0.0
C305 C 0.6081 0.84747 0.25624 0.0
C306 C 0.6065 0.77325 0.24788 0.0
C307 C 0.55248 0.71967 0.21562 0.0
C308 C 0.50126 0.73895 0.19238 0.0
C309 C 0.50258 0.81152 0.20066 0.0
C310 C 0.555 0.86525 0.23228 0.0
H311 H 0.59006 0.62148 0.3218 0.0
C312 C 0.62059 0.6152 0.29277 0.0
H313 H 0.6853 0.67103 0.23405 0.0
H314 H 0.76975 0.99254 0.35293 0.0
H315 H 0.85691 0.95671 0.39388 0.0
H316 H 0.85444 0.82773 0.37928 0.0
H317 H 0.76663 0.73502 0.32318 0.0
C318 C 0.65559 0.67605 0.26373 0.0
C319 C 0.65767 0.75353 0.27217 0.0
C320 C 0.71105 0.8077 0.30453 0.0
C321 C 0.71265 0.8819 0.31285 0.0
C322 C 0.76611 0.93515 0.34539 0.0
C323 C 0.81648 0.9154 0.36908 0.0
C324 C 0.81523 0.84291 0.36081 0.0
C325 C 0.76388 0.78982 0.3287 0.0
H326 H 0.0476 0.74844 0.74828 0.0
C327 C 0.05084 0.71192 0.77471 0.0
H328 H 0.98551 0.62841 0.82585 0.0
H329 H 0.73466 0.76622 0.81467 0.0
H330 H 0.8219 0.85661 0.87193 0.0
H331 H 0.9491 0.85894 0.89234 0.0
H332 H 0.98982 0.77087 0.85536 0.0
C333 C 0.98496 0.667 0.79984 0.0
C334 C 0.90679 0.66227 0.78957 0.0
C335 C 0.88384 0.71328 0.8119 0.0
C336 C 0.8102 0.71097 0.8006 0.0
C337 C 0.78923 0.76409 0.82259 0.0
C338 C 0.83899 0.81665 0.85538 0.0
C339 C 0.91065 0.81805 0.86682 0.0
C340 C 0.93329 0.76725 0.84536 0.0
H341 H 0.62288 0.58005 0.81363 0.0
C342 C 0.61773 0.61257 0.78567 0.0
H343 H 0.67765 0.68386 0.72944 0.0
H344 H 0.93265 0.5537 0.74218 0.0
H345 H 0.84535 0.46285 0.68505 0.0
H346 H 0.7192 0.46134 0.66401 0.0
H347 H 0.67744 0.54882 0.70108 0.0
C348 C 0.68078 0.651 0.75775 0.0
C349 C 0.75954 0.65648 0.76754 0.0
C350 C 0.78284 0.60589 0.74496 0.0
C351 C 0.85643 0.60811 0.75639 0.0
C352 C 0.8778 0.55539 0.73433 0.0
C353 C 0.8282 0.50282 0.70154 0.0
C354 C 0.75683 0.50171 0.68982 0.0
C355 C 0.73381 0.55227 0.71127 0.0
H356 H 0.37861 0.96356 0.31685 0.0
C357 C 0.37923 0.00375 0.29139 0.0
H358 H 0.30988 0.02262 0.24354 0.0
H359 H 0.08628 0.62655 0.27861 0.0
H360 H 0.19659 0.61647 0.24441 0.0
H361 H 0.32648 0.739 0.22526 0.0
H362 H 0.34614 0.87312 0.24012 0.0
C363 C 0.31196 0.98188 0.26771 0.0
C364 C 0.23489 0.90755 0.27888 0.0
C365 C 0.22537 0.83016 0.26988 0.0
C366 C 0.15066 0.75949 0.28054 0.0
C367 C 0.1418 0.68252 0.27108 0.0
C368 C 0.20487 0.6758 0.25147 0.0
C369 C 0.27797 0.74486 0.2408 0.0
C370 C 0.28853 0.8214 0.2498 0.0
H371 H 0.95621 0.70235 0.24867 0.0
C372 C 0.94896 0.66514 0.27723 0.0
H373 H 0.00225 0.65595 0.33637 0.0
H374 H 0.23712 0.04739 0.30427 0.0
H375 H 0.12792 0.05668 0.34129 0.0
H376 H 0.99725 0.93383 0.35832 0.0
H377 H 0.97546 0.79983 0.3395 0.0
C378 C 0.00718 0.69255 0.30797 0.0
C379 C 0.08607 0.76669 0.29978 0.0
C380 C 0.09632 0.84384 0.30993 0.0
C381 C 0.17115 0.91465 0.2995 0.0
C382 C 0.18109 0.99139 0.31098 0.0
C383 C 0.11888 0.99765 0.33223 0.0
C384 C 0.04526 0.92832 0.34191 0.0
C385 C 0.0336 0.85203 0.33089 0.0
H386 H 0.239 0.28479 0.75538 0.0
C387 C 0.28815 0.33144 0.7749 0.0
H388 H 0.39634 0.36503 0.81019 0.0
H389 H 0.30091 0.00389 0.85295 0.0
H390 H 0.29258 0.05349 0.92521 0.0
H391 H 0.30715 0.18899 0.93459 0.0
H392 H 0.32957 0.27518 0.87156 0.0
C393 C 0.34617 0.31833 0.79124 0.0
C394 C 0.34284 0.23949 0.78528 0.0
C395 C 0.33208 0.19104 0.82268 0.0
C396 C 0.32591 0.11403 0.8174 0.0
C397 C 0.30996 0.06455 0.85506 0.0
C398 C 0.30402 0.09189 0.89682 0.0
C399 C 0.31209 0.16807 0.90209 0.0
C400 C 0.32527 0.21706 0.86557 0.0
H401 H 0.43415 0.03928 0.80666 0.0
C402 C 0.38545 0.99333 0.78661 0.0
H403 H 0.28016 0.96256 0.74911 0.0
H404 H 0.37091 0.32099 0.70677 0.0
H405 H 0.37858 0.2708 0.63447 0.0
H406 H 0.37027 0.13795 0.62552 0.0
H407 H 0.35091 0.05321 0.68878 0.0
C408 C 0.32959 0.00821 0.76889 0.0
C409 C 0.33386 0.08744 0.77481 0.0
C410 C 0.34515 0.13606 0.73742 0.0
C411 C 0.35007 0.21256 0.74263 0.0
C412 C 0.36369 0.26102 0.70479 0.0
C413 C 0.3693 0.23338 0.66303 0.0
C414 C 0.36454 0.15859 0.65797 0.0
C415 C 0.35315 0.11046 0.69462 0.0
H416 H 0.3191 0.30602 0.32955 0.0
C417 C 0.33373 0.29077 0.29742 0.0
H418 H 0.30084 0.27218 0.23013 0.0
H419 H 0.94925 0.21334 0.30277 0.0
H420 H 0.91294 0.07272 0.29211 0.0
H421 H 0.01725 0.03697 0.2707 0.0
H422 H 0.15908 0.14185 0.26024 0.0
C423 C 0.28656 0.28377 0.26316 0.0
C424 C 0.2215 0.30509 0.26959 0.0
C425 C 0.13925 0.24336 0.27519 0.0
C426 C 0.07902 0.26417 0.28694 0.0
C427 C 0.99732 0.2011 0.29314 0.0
C428 C 0.9757 0.12011 0.28733 0.0
C429 C 0.0345 0.09998 0.27535 0.0
C430 C 0.11554 0.16062 0.26949 0.0
H431 H 0.01078 0.36026 0.23273 0.0
C432 C 0.99354 0.36966 0.26559 0.0
H433 H 0.01791 0.37186 0.33353 0.0
H434 H 0.37251 0.43876 0.25673 0.0
H435 H 0.40942 0.5792 0.26859 0.0
H436 H 0.30636 0.61472 0.29275 0.0
H437 H 0.16447 0.50981 0.30371 0.0
C438 C 0.03654 0.36838 0.30002 0.0
C439 C 0.10121 0.34684 0.29245 0.0
C440 C 0.1835 0.40853 0.28686 0.0
C441 C 0.24349 0.38779 0.27453 0.0
C442 C 0.32488 0.4509 0.26744 0.0
C443 C 0.34683 0.53181 0.27385 0.0
C444 C 0.28862 0.5518 0.28726 0.0
C445 C 0.20762 0.49117 0.29342 0.0
H446 H 0.95803 0.38116 0.80197 0.0
C447 C 0.00645 0.37959 0.78317 0.0
H448 H 0.04457 0.30614 0.74971 0.0
H449 H 0.72952 0.05138 0.87496 0.0
H450 H 0.81742 0.12076 0.93693 0.0
H451 H 0.95448 0.23927 0.92537 0.0
H452 H 0.00299 0.29115 0.85206 0.0
C453 C 0.99611 0.30879 0.76785 0.0
C454 C 0.91856 0.2321 0.77483 0.0
C455 C 0.89188 0.20227 0.81805 0.0
C456 C 0.81443 0.1321 0.82456 0.0
C457 C 0.78824 0.10416 0.86806 0.0
C458 C 0.83819 0.1432 0.90395 0.0
C459 C 0.91522 0.21006 0.89745 0.0
C460 C 0.94202 0.23967 0.85514 0.0
H461 H 0.7202 0.93832 0.76399 0.0
C462 C 0.67244 0.94337 0.78145 0.0
H463 H 0.63826 0.02233 0.81184 0.0
H464 H 0.95674 0.26928 0.6876 0.0
H465 H 0.87497 0.19272 0.62521 0.0
H466 H 0.74091 0.06977 0.63627 0.0
H467 H 0.68673 0.02463 0.70951 0.0
C468 C 0.68589 0.01609 0.79506 0.0
C469 C 0.76589 0.09007 0.78778 0.0
C470 C 0.79439 0.11775 0.74437 0.0
C471 C 0.87135 0.18868 0.73795 0.0
C472 C 0.89898 0.21523 0.69441 0.0
C473 C 0.85262 0.17194 0.65824 0.0
C474 C 0.77724 0.1027 0.66448 0.0
C475 C 0.74726 0.07683 0.70687 0.0
loop_
_geom_bond_atom_site_label_1
_geom_bond_atom_site_label_2
_geom_bond_distance
_geom_bond_site_symmetry_2
_ccdc_geom_bond_type
H0 O1 0.850 . S
O1 H0 0.850 . S
O1 Tb2 2.341 . S
O1 Tb3 2.341 . S
O1 Tb4 2.341 . S
Tb2 O1 2.341 . S
Tb2 O5 2.341 . S
Tb2 O6 2.341 . S
Tb2 O7 2.341 . S
Tb2 O22 2.344 . S
Tb2 O25 2.344 . S
Tb2 O38 2.344 . S
Tb2 O41 2.344 . S
Tb3 O1 2.341 . S
Tb3 O5 2.341 . S
Tb3 O8 2.341 . S
Tb3 O10 2.341 . S
Tb3 O26 2.344 . S
Tb3 O29 2.344 . S
Tb3 O34 2.344 . S
Tb3 O37 2.344 . S
Tb4 O1 2.341 . S
Tb4 O6 2.341 . S
Tb4 O9 2.341 . S
Tb4 O10 2.341 . S
Tb4 O30 2.344 . S
Tb4 O33 2.344 . S
Tb4 O43 2.344 . S
Tb4 O44 2.344 . S
O5 Tb2 2.341 . S
O5 Tb3 2.341 . S
O5 H11 0.850 . S
O5 Tb13 2.341 . S
O6 Tb2 2.341 . S
O6 Tb4 2.341 . S
O6 H12 0.850 . S
O6 Tb14 2.341 . S
O7 Tb2 2.341 . S
O7 Tb13 2.341 . S
O7 Tb14 2.341 . S
O7 H15 0.850 . S
O8 Tb3 2.341 . S
O8 Tb13 2.341 . S
O8 H16 0.850 . S
O8 Tb17 2.341 . S
O9 Tb4 2.341 . S
O9 Tb14 2.341 . S
O9 Tb17 2.341 . S
O9 H18 0.850 . S
O10 Tb3 2.341 . S
O10 Tb4 2.341 . S
O10 Tb17 2.341 . S
O10 H19 0.850 . S
H11 O5 0.850 . S
H12 O6 0.850 . S
Tb13 O5 2.341 . S
Tb13 O7 2.341 . S
Tb13 O8 2.341 . S
Tb13 O20 2.341 . S
Tb13 O31 2.344 . S
Tb13 O32 2.344 . S
Tb13 O42 2.344 . S
Tb13 O45 2.344 . S
Tb14 O6 2.341 . S
Tb14 O7 2.341 . S
Tb14 O9 2.341 . S
Tb14 O20 2.341 . S
Tb14 O27 2.344 . S
Tb14 O28 2.344 . S
Tb14 O35 2.344 . S
Tb14 O36 2.344 . S
H15 O7 0.850 . S
H16 O8 0.850 . S
Tb17 O8 2.341 . S
Tb17 O9 2.341 . S
Tb17 O10 2.341 . S
Tb17 O20 2.341 . S
Tb17 O23 2.344 . S
Tb17 O24 2.344 . S
Tb17 O39 2.344 . S
Tb17 O40 2.344 . S
H18 O9 0.850 . S
H19 O10 0.850 . S
O20 Tb13 2.341 . S
O20 Tb14 2.341 . S
O20 Tb17 2.341 . S
O20 H21 0.850 . S
H21 O20 0.850 . S
O22 Tb2 2.344 . S
O22 C46 1.272 . S
O23 Tb17 2.344 . S
O23 C47 1.272 . S
O24 Tb17 2.344 . S
O24 C48 1.272 . S
O25 Tb2 2.344 . S
O25 C49 1.272 . S
O26 Tb3 2.344 . S
O26 C50 1.272 . S
O27 Tb14 2.344 . S
O27 C51 1.272 . S
O28 Tb14 2.344 . S
O28 C52 1.272 . S
O29 Tb3 2.344 . S
O29 C53 1.272 . S
O30 Tb4 2.344 . S
O30 C54 1.272 . S
O31 Tb13 2.344 . S
O31 C55 1.272 . S
O32 Tb13 2.344 . S
O32 C56 1.272 . S
O33 Tb4 2.344 . S
O33 C57 1.272 . S
O34 Tb3 2.344 . S
O34 C46 1.272 . S
O35 Tb14 2.344 . S
O35 C47 1.272 . S
O36 Tb14 2.344 . S
O36 C49 1.272 . S
O37 Tb3 2.344 . S
O37 C48 1.272 . S
O38 Tb2 2.344 . S
O38 C56 1.272 . S
O39 Tb17 2.344 . S
O39 C57 1.272 . S
O40 Tb17 2.344 . S
O40 C55 1.272 . S
O41 Tb2 2.344 . S
O41 C54 1.272 . S
O42 Tb13 2.344 . S
O42 C53 1.272 . S
O43 Tb4 2.344 . S
O43 C52 1.272 . S
O44 Tb4 2.344 . S
O44 C50 1.272 . S
O45 Tb13 2.344 . S
O45 C51 1.272 . S
C46 O22 1.272 . S
C46 O34 1.272 . S
C47 O23 1.272 . S
C47 O35 1.272 . S
C48 O24 1.272 . S
C48 O37 1.272 . S
C49 O25 1.272 . S
C49 O36 1.272 . S
C50 O26 1.272 . S
C50 O44 1.272 . S
C51 O27 1.272 . S
C51 O45 1.272 . S
C52 O28 1.272 . S
C52 O43 1.272 . S
C53 O29 1.272 . S
C53 O42 1.272 . S
C54 O30 1.272 . S
C54 O41 1.272 . S
C55 O31 1.272 . S
C55 O40 1.272 . S
C56 O32 1.272 . S
C56 O38 1.272 . S
C57 O33 1.272 . S
C57 O39 1.272 . S
H58 O59 0.850 . S
O59 H58 0.850 . S
O59 Tb60 2.341 . S
O59 Tb61 2.341 . S
O59 Tb62 2.341 . S
Tb60 O59 2.341 . S
Tb60 O63 2.341 . S
Tb60 O64 2.341 . S
Tb60 O65 2.341 . S
Tb60 O80 2.344 . S
Tb60 O83 2.344 . S
Tb60 O96 2.344 . S
Tb60 O99 2.344 . S
Tb61 O59 2.341 . S
Tb61 O63 2.341 . S
Tb61 O66 2.341 . S
Tb61 O68 2.341 . S
Tb61 O84 2.344 . S
Tb61 O87 2.344 . S
Tb61 O92 2.344 . S
Tb61 O95 2.344 . S
Tb62 O59 2.341 . S
Tb62 O64 2.341 . S
Tb62 O67 2.341 . S
Tb62 O68 2.341 . S
Tb62 O88 2.344 . S
Tb62 O91 2.344 . S
Tb62 O101 2.344 . S
Tb62 O102 2.344 . S
O63 Tb60 2.341 . S
O63 Tb61 2.341 . S
O63 H69 0.850 . S
O63 Tb71 2.341 . S
O64 Tb60 2.341 . S
O64 Tb62 2.341 . S
O64 H70 0.850 . S
O64 Tb72 2.341 . S
O65 Tb60 2.341 . S
O65 Tb71 2.341 . S
O65 Tb72 2.341 . S
O65 H73 0.850 . S
O66 Tb61 2.341 . S
O66 Tb71 2.341 . S
O66 H74 0.850 . S
O66 Tb75 2.341 . S
O67 Tb62 2.341 . S
O67 Tb72 2.341 . S
O67 Tb75 2.341 . S
O67 H76 0.850 . S
O68 Tb61 2.341 . S
O68 Tb62 2.341 . S
O68 Tb75 2.341 . S
O68 H77 0.850 . S
H69 O63 0.850 . S
H70 O64 0.850 . S
Tb71 O63 2.341 . S
Tb71 O65 2.341 . S
Tb71 O66 2.341 . S
Tb71 O78 2.341 . S
Tb71 O89 2.344 . S
Tb71 O90 2.344 . S
Tb71 O100 2.344 . S
Tb71 O103 2.344 . S
Tb72 O64 2.341 . S
Tb72 O65 2.341 . S
Tb72 O67 2.341 . S
Tb72 O78 2.341 . S
Tb72 O85 2.344 . S
Tb72 O86 2.344 . S
Tb72 O93 2.344 . S
Tb72 O94 2.344 . S
H73 O65 0.850 . S
H74 O66 0.850 . S
Tb75 O66 2.341 . S
Tb75 O67 2.341 . S
Tb75 O68 2.341 . S
Tb75 O78 2.341 . S
Tb75 O81 2.344 . S
Tb75 O82 2.344 . S
Tb75 O97 2.344 . S
Tb75 O98 2.344 . S
H76 O67 0.850 . S
H77 O68 0.850 . S
O78 Tb71 2.341 . S
O78 Tb72 2.341 . S
O78 Tb75 2.341 . S
O78 H79 0.850 . S
H79 O78 0.850 . S
O80 Tb60 2.344 . S
O80 C104 1.272 . S
O81 Tb75 2.344 . S
O81 C105 1.272 . S
O82 Tb75 2.344 . S
O82 C106 1.272 . S
O83 Tb60 2.344 . S
O83 C107 1.272 . S
O84 Tb61 2.344 . S
O84 C108 1.272 . S
O85 Tb72 2.344 . S
O85 C109 1.272 . S
O86 Tb72 2.344 . S
O86 C110 1.272 . S
O87 Tb61 2.344 . S
O87 C111 1.272 . S
O88 Tb62 2.344 . S
O88 C112 1.272 . S
O89 Tb71 2.344 . S
O89 C113 1.272 . S
O90 Tb71 2.344 . S
O90 C114 1.272 . S
O91 Tb62 2.344 . S
O91 C115 1.272 . S
O92 Tb61 2.344 . S
O92 C104 1.272 . S
O93 Tb72 2.344 . S
O93 C105 1.272 . S
O94 Tb72 2.344 . S
O94 C107 1.272 . S
O95 Tb61 2.344 . S
O95 C106 1.272 . S
O96 Tb60 2.344 . S
O96 C114 1.272 . S
O97 Tb75 2.344 . S
O97 C115 1.272 . S
O98 Tb75 2.344 . S
O98 C113 1.272 . S
O99 Tb60 2.344 . S
O99 C112 1.272 . S
O100 Tb71 2.344 . S
O100 C111 1.272 . S
O101 Tb62 2.344 . S
O101 C110 1.272 . S
O102 Tb62 2.344 . S
O102 C108 1.272 . S
O103 Tb71 2.344 . S
O103 C109 1.272 . S
C104 O80 1.272 . S
C104 O92 1.272 . S
C105 O81 1.272 . S
C105 O93 1.272 . S
C106 O82 1.272 . S
C106 O95 1.272 . S
C107 O83 1.272 . S
C107 O94 1.272 . S
C108 O84 1.272 . S
C108 O102 1.272 . S
C109 O85 1.272 . S
C109 O103 1.272 . S
C110 O86 1.272 . S
C110 O101 1.272 . S
C111 O87 1.272 . S
C111 O100 1.272 . S
C112 O88 1.272 . S
C112 O99 1.272 . S
C113 O89 1.272 . S
C113 O98 1.272 . S
C114 O90 1.272 . S
C114 O96 1.272 . S
C115 O91 1.272 . S
C115 O97 1.272 . S
H116 C117 0.951 . S
C117 H116 0.951 . S
C117 C123 1.265 . S
H118 C123 0.950 . S
H119 C127 0.949 1_554 S
H120 C128 0.950 . S
H121 C129 0.951 . S
H122 C130 0.951 . S
C123 C117 1.265 . S
C123 H118 0.950 . S
C123 C124 1.478 . S
C124 C123 1.478 . S
C124 C125 1.397 . S
C124 C141 1.394 1_556 S
C125 C124 1.397 . S
C125 C126 1.438 1_565 S
C125 C130 1.429 . S
C126 C125 1.438 1_545 S
C126 C127 1.428 . S
C126 C139 1.394 1_556 S
C127 H119 0.949 1_556 S
C127 C126 1.428 . S
C127 C128 1.345 . S
C128 H120 0.950 . S
C128 C127 1.345 . S
C128 C129 1.424 . S
C129 H121 0.951 . S
C129 C128 1.424 . S
C129 C130 1.347 1_545 S
C130 H122 0.951 . S
C130 C125 1.429 . S
C130 C129 1.347 1_565 S
H131 C132 0.951 . S
C132 H131 0.951 . S
C132 C138 1.265 . S
H133 C138 0.950 . S
H134 C142 0.949 1_556 S
H135 C143 0.950 . S
H136 C144 0.951 . S
H137 C145 0.951 . S
C138 C132 1.265 . S
C138 H133 0.950 . S
C138 C139 1.478 . S
C139 C126 1.394 1_554 S
C139 C138 1.478 . S
C139 C140 1.397 1_545 S
C140 C139 1.397 1_565 S
C140 C141 1.438 . S
C140 C145 1.429 . S
C141 C124 1.394 1_554 S
C141 C140 1.438 . S
C141 C142 1.428 . S
C142 H134 0.949 1_554 S
C142 C141 1.428 . S
C142 C143 1.345 . S
C143 H135 0.950 . S
C143 C142 1.345 . S
C143 C144 1.424 . S
C144 H136 0.951 . S
C144 C143 1.424 . S
C144 C145 1.347 . S
C145 H137 0.951 . S
C145 C140 1.429 . S
C145 C144 1.347 . S
H146 C147 0.951 . S
C147 H146 0.951 . S
C147 C153 1.265 . S
H148 C153 0.950 . S
H149 C157 0.949 . S
H150 C158 0.950 . S
H151 C159 0.951 . S
H152 C160 0.951 . S
C153 C147 1.265 . S
C153 H148 0.950 . S
C153 C154 1.478 . S
C154 C153 1.478 . S
C154 C155 1.397 . S
C154 C171 1.394 . S
C155 C154 1.397 . S
C155 C156 1.438 . S
C155 C160 1.429 . S
C156 C155 1.438 . S
C156 C157 1.428 . S
C156 C169 1.394 . S
C157 H149 0.949 . S
C157 C156 1.428 . S
C157 C158 1.345 . S
C158 H150 0.950 . S
C158 C157 1.345 . S
C158 C159 1.424 . S
C159 H151 0.951 . S
C159 C158 1.424 . S
C159 C160 1.347 . S
C160 H152 0.951 . S
C160 C155 1.429 . S
C160 C159 1.347 . S
H161 C162 0.951 . S
C162 H161 0.951 . S
C162 C168 1.265 . S
H163 C168 0.950 . S
H164 C172 0.949 . S
H165 C173 0.950 . S
H166 C174 0.951 . S
H167 C175 0.951 . S
C168 C162 1.265 . S
C168 H163 0.950 . S
C168 C169 1.478 . S
C169 C156 1.394 . S
C169 C168 1.478 . S
C169 C170 1.397 . S
C170 C169 1.397 . S
C170 C171 1.438 . S
C170 C175 1.429 . S
C171 C154 1.394 . S
C171 C170 1.438 . S
C171 C172 1.428 . S
C172 H164 0.949 . S
C172 C171 1.428 . S
C172 C173 1.345 . S
C173 H165 0.950 . S
C173 C172 1.345 . S
C173 C174 1.424 . S
C174 H166 0.951 . S
C174 C173 1.424 . S
C174 C175 1.347 . S
C175 H167 0.951 . S
C175 C170 1.429 . S
C175 C174 1.347 . S
H176 C177 0.951 . S
C177 H176 0.951 . S
C177 C183 1.265 . S
H178 C183 0.950 . S
H179 C187 0.949 . S
H180 C188 0.950 . S
H181 C189 0.951 . S
H182 C190 0.951 1_655 S
C183 C177 1.265 . S
C183 H178 0.950 . S
C183 C184 1.478 . S
C184 C183 1.478 . S
C184 C185 1.397 1_655 S
C184 C201 1.394 . S
C185 C184 1.397 1_455 S
C185 C186 1.438 1_554 S
C185 C190 1.429 . S
C186 C185 1.438 1_556 S
C186 C187 1.428 . S
C186 C199 1.394 . S
C187 H179 0.949 . S
C187 C186 1.428 . S
C187 C188 1.345 . S
C188 H180 0.950 . S
C188 C187 1.345 . S
C188 C189 1.424 . S
C189 H181 0.951 . S
C189 C188 1.424 . S
C189 C190 1.347 1_556 S
C190 H182 0.951 1_455 S
C190 C185 1.429 . S
C190 C189 1.347 1_554 S
H191 C192 0.951 . S
C192 H191 0.951 . S
C192 C198 1.265 . S
H193 C198 0.950 . S
H194 C202 0.949 . S
H195 C203 0.950 . S
H196 C204 0.951 . S
H197 C205 0.951 . S
C198 C192 1.265 . S
C198 H193 0.950 . S
C198 C199 1.478 . S
C199 C186 1.394 . S
C199 C198 1.478 . S
C199 C200 1.397 . S
C200 C199 1.397 . S
C200 C201 1.438 1_456 S
C200 C205 1.429 . S
C201 C184 1.394 . S
C201 C200 1.438 1_654 S
C201 C202 1.428 . S
C202 H194 0.949 . S
C202 C201 1.428 . S
C202 C203 1.345 . S
C203 H195 0.950 . S
C203 C202 1.345 . S
C203 C204 1.424 1_655 S
C204 H196 0.951 . S
C204 C203 1.424 1_455 S
C204 C205 1.347 1_554 S
C205 H197 0.951 . S
C205 C200 1.429 . S
C205 C204 1.347 1_556 S
H206 C207 0.951 . S
C207 H206 0.951 . S
C207 C213 1.265 . S
H208 C213 0.950 . S
H209 C217 0.949 . S
H210 C218 0.950 . S
H211 C219 0.951 . S
H212 C220 0.951 . S
C213 C207 1.265 . S
C213 H208 0.950 . S
C213 C214 1.478 . S
C214 C213 1.478 . S
C214 C215 1.397 1_565 S
C214 C231 1.394 . S
C215 C214 1.397 1_545 S
C215 C216 1.438 . S
C215 C220 1.429 . S
C216 C215 1.438 . S
C216 C217 1.428 . S
C216 C229 1.394 . S
C217 H209 0.949 . S
C217 C216 1.428 . S
C217 C218 1.345 . S
C218 H210 0.950 . S
C218 C217 1.345 . S
C218 C219 1.424 . S
C219 H211 0.951 . S
C219 C218 1.424 . S
C219 C220 1.347 . S
C220 H212 0.951 . S
C220 C215 1.429 . S
C220 C219 1.347 . S
H221 C222 0.951 . S
C222 H221 0.951 . S
C222 C228 1.265 . S
H223 C228 0.950 . S
H224 C232 0.949 . S
H225 C233 0.950 . S
H226 C234 0.951 . S
H227 C235 0.951 . S
C228 C222 1.265 . S
C228 H223 0.950 . S
C228 C229 1.478 . S
C229 C216 1.394 . S
C229 C228 1.478 . S
C229 C230 1.397 1_545 S
C230 C229 1.397 1_565 S
C230 C231 1.438 . S
C230 C235 1.429 . S
C231 C214 1.394 . S
C231 C230 1.438 . S
C231 C232 1.428 . S
C232 H224 0.949 . S
C232 C231 1.428 . S
C232 C233 1.345 . S
C233 H225 0.950 . S
C233 C232 1.345 . S
C233 C234 1.424 . S
C234 H226 0.951 . S
C234 C233 1.424 . S
C234 C235 1.347 . S
C235 H227 0.951 . S
C235 C230 1.429 . S
C235 C234 1.347 . S
H236 C237 0.951 . S
C237 H236 0.951 . S
C237 C243 1.265 . S
H238 C243 0.950 . S
H239 C247 0.949 1_556 S
H240 C248 0.950 . S
H241 C249 0.951 . S
H242 C250 0.951 . S
C243 C237 1.265 . S
C243 H238 0.950 . S
C243 C244 1.478 . S
C244 C243 1.478 . S
C244 C245 1.397 . S
C244 C261 1.394 1_554 S
C245 C244 1.397 . S
C245 C246 1.438 . S
C245 C250 1.429 . S
C246 C245 1.438 . S
C246 C247 1.428 . S
C246 C259 1.394 1_554 S
C247 H239 0.949 1_554 S
C247 C246 1.428 . S
C247 C248 1.345 . S
C248 H240 0.950 . S
C248 C247 1.345 . S
C248 C249 1.424 . S
C249 H241 0.951 . S
C249 C248 1.424 . S
C249 C250 1.347 . S
C250 H242 0.951 . S
C250 C245 1.429 . S
C250 C249 1.347 . S
H251 C252 0.951 . S
C252 H251 0.951 . S
C252 C258 1.265 . S
H253 C258 0.950 . S
H254 C262 0.949 1_554 S
H255 C263 0.950 . S
H256 C264 0.951 . S
H257 C265 0.951 . S
C258 C252 1.265 . S
C258 H253 0.950 . S
C258 C259 1.478 . S
C259 C246 1.394 1_556 S
C259 C258 1.478 . S
C259 C260 1.397 . S
C260 C259 1.397 . S
C260 C261 1.438 . S
C260 C265 1.429 . S
C261 C244 1.394 1_556 S
C261 C260 1.438 . S
C261 C262 1.428 . S
C262 H254 0.949 1_556 S
C262 C261 1.428 . S
C262 C263 1.345 . S
C263 H255 0.950 . S
C263 C262 1.345 . S
C263 C264 1.424 . S
C264 H256 0.951 . S
C264 C263 1.424 . S
C264 C265 1.347 . S
C265 H257 0.951 . S
C265 C260 1.429 . S
C265 C264 1.347 . S
H266 C267 0.951 . S
C267 H266 0.951 . S
C267 C273 1.265 . S
H268 C273 0.950 . S
H269 C277 0.949 1_455 S
H270 C278 0.950 . S
H271 C279 0.951 . S
H272 C280 0.951 . S
C273 C267 1.265 . S
C273 H268 0.950 . S
C273 C274 1.478 . S
C274 C273 1.478 . S
C274 C275 1.397 . S
C274 C291 1.394 . S
C275 C274 1.397 . S
C275 C276 1.438 . S
C275 C280 1.429 . S
C276 C275 1.438 . S
C276 C277 1.428 . S
C276 C289 1.385 1_655 S
C277 H269 0.949 1_655 S
C277 C276 1.428 . S
C277 C278 1.345 . S
C278 H270 0.950 . S
C278 C277 1.345 . S
C278 C279 1.424 . S
C279 H271 0.951 . S
C279 C278 1.424 . S
C279 C280 1.347 . S
C280 H272 0.951 . S
C280 C275 1.429 . S
C280 C279 1.347 . S
H281 C282 0.951 . S
C282 H281 0.951 . S
C282 C288 1.265 . S
H283 C288 0.950 . S
H284 C292 0.949 . S
H285 C293 0.950 . S
H286 C294 0.951 1_455 S
H287 C295 0.951 . S
C288 C282 1.265 . S
C288 H283 0.950 . S
C288 C289 1.482 . S
C289 C276 1.385 1_455 S
C289 C288 1.482 . S
C289 C290 1.401 1_455 S
C290 C289 1.401 1_655 S
C290 C291 1.438 . S
C290 C295 1.429 1_655 S
C291 C274 1.394 . S
C291 C290 1.438 . S
C291 C292 1.428 . S
C292 H284 0.949 . S
C292 C291 1.428 . S
C292 C293 1.345 . S
C293 H285 0.950 . S
C293 C292 1.345 . S
C293 C294 1.424 . S
C294 H286 0.951 1_655 S
C294 C293 1.424 . S
C294 C295 1.347 1_655 S
C295 H287 0.951 . S
C295 C290 1.429 1_455 S
C295 C294 1.347 1_455 S
H296 C297 0.951 . S
C297 H296 0.951 . S
C297 C303 1.265 1_545 S
H298 C303 0.950 . S
H299 C307 0.949 . S
H300 C308 0.950 . S
H301 C309 0.951 . S
H302 C310 0.951 . S
C303 C297 1.265 1_565 S
C303 H298 0.950 . S
C303 C304 1.478 . S
C304 C303 1.478 . S
C304 C305 1.397 . S
C304 C321 1.394 . S
C305 C304 1.397 . S
C305 C306 1.438 . S
C305 C310 1.429 . S
C306 C305 1.438 . S
C306 C307 1.428 . S
C306 C319 1.394 . S
C307 H299 0.949 . S
C307 C306 1.428 . S
C307 C308 1.345 . S
C308 H300 0.950 . S
C308 C307 1.345 . S
C308 C309 1.424 . S
C309 H301 0.951 . S
C309 C308 1.424 . S
C309 C310 1.347 . S
C310 H302 0.951 . S
C310 C305 1.429 . S
C310 C309 1.347 . S
H311 C312 0.951 . S
C312 H311 0.951 . S
C312 C318 1.265 . S
H313 C318 0.950 . S
H314 C322 0.949 . S
H315 C323 0.950 . S
H316 C324 0.951 . S
H317 C325 0.951 . S
C318 C312 1.265 . S
C318 H313 0.950 . S
C318 C319 1.478 . S
C319 C306 1.394 . S
C319 C318 1.478 . S
C319 C320 1.397 . S
C320 C319 1.397 . S
C320 C321 1.438 . S
C320 C325 1.429 . S
C321 C304 1.394 . S
C321 C320 1.438 . S
C321 C322 1.428 . S
C322 H314 0.949 . S
C322 C321 1.428 . S
C322 C323 1.345 . S
C323 H315 0.950 . S
C323 C322 1.345 . S
C323 C324 1.424 . S
C324 H316 0.951 . S
C324 C323 1.424 . S
C324 C325 1.347 . S
C325 H317 0.951 . S
C325 C320 1.429 . S
C325 C324 1.347 . S
H326 C327 0.951 . S
C327 H326 0.951 . S
C327 C333 1.265 1_455 S
H328 C333 0.950 . S
H329 C337 0.949 . S
H330 C338 0.950 . S
H331 C339 0.951 . S
H332 C340 0.951 . S
C333 C327 1.265 1_655 S
C333 H328 0.950 . S
C333 C334 1.478 . S
C334 C333 1.478 . S
C334 C335 1.397 . S
C334 C351 1.394 . S
C335 C334 1.397 . S
C335 C336 1.438 . S
C335 C340 1.429 . S
C336 C335 1.438 . S
C336 C337 1.428 . S
C336 C349 1.394 . S
C337 H329 0.949 . S
C337 C336 1.428 . S
C337 C338 1.345 . S
C338 H330 0.950 . S
C338 C337 1.345 . S
C338 C339 1.424 . S
C339 H331 0.951 . S
C339 C338 1.424 . S
C339 C340 1.347 . S
C340 H332 0.951 . S
C340 C335 1.429 . S
C340 C339 1.347 . S
H341 C342 0.951 . S
C342 H341 0.951 . S
C342 C348 1.265 . S
H343 C348 0.950 . S
H344 C352 0.949 . S
H345 C353 0.950 . S
H346 C354 0.951 . S
H347 C355 0.951 . S
C348 C342 1.265 . S
C348 H343 0.950 . S
C348 C349 1.478 . S
C349 C336 1.394 . S
C349 C348 1.478 . S
C349 C350 1.397 . S
C350 C349 1.397 . S
C350 C351 1.438 . S
C350 C355 1.429 . S
C351 C334 1.394 . S
C351 C350 1.438 . S
C351 C352 1.428 . S
C352 H344 0.949 . S
C352 C351 1.428 . S
C352 C353 1.345 . S
C353 H345 0.950 . S
C353 C352 1.345 . S
C353 C354 1.424 . S
C354 H346 0.951 . S
C354 C353 1.424 . S
C354 C355 1.347 . S
C355 H347 0.951 . S
C355 C350 1.429 . S
C355 C354 1.347 . S
H356 C357 0.951 1_565 S
C357 H356 0.951 1_545 S
C357 C363 1.265 1_545 S
H358 C363 0.950 . S
H359 C367 0.949 . S
H360 C368 0.950 . S
H361 C369 0.951 . S
H362 C370 0.951 . S
C363 C357 1.265 1_565 S
C363 H358 0.950 . S
C363 C364 1.478 . S
C364 C363 1.478 . S
C364 C365 1.397 . S
C364 C381 1.394 . S
C365 C364 1.397 . S
C365 C366 1.438 . S
C365 C370 1.429 . S
C366 C365 1.438 . S
C366 C367 1.428 . S
C366 C379 1.394 . S
C367 H359 0.949 . S
C367 C366 1.428 . S
C367 C368 1.345 . S
C368 H360 0.950 . S
C368 C367 1.345 . S
C368 C369 1.424 . S
C369 H361 0.951 . S
C369 C368 1.424 . S
C369 C370 1.347 . S
C370 H362 0.951 . S
C370 C365 1.429 . S
C370 C369 1.347 . S
H371 C372 0.951 . S
C372 H371 0.951 . S
C372 C378 1.265 1_655 S
H373 C378 0.950 . S
H374 C382 0.949 1_545 S
H375 C383 0.950 1_545 S
H376 C384 0.951 . S
H377 C385 0.951 . S
C378 C372 1.265 1_455 S
C378 H373 0.950 . S
C378 C379 1.478 . S
C379 C366 1.394 . S
C379 C378 1.478 . S
C379 C380 1.397 . S
C380 C379 1.397 . S
C380 C381 1.438 . S
C380 C385 1.429 . S
C381 C364 1.394 . S
C381 C380 1.438 . S
C381 C382 1.428 . S
C382 H374 0.949 1_565 S
C382 C381 1.428 . S
C382 C383 1.345 . S
C383 H375 0.950 1_565 S
C383 C382 1.345 . S
C383 C384 1.424 . S
C384 H376 0.951 . S
C384 C383 1.424 . S
C384 C385 1.347 . S
C385 H377 0.951 . S
C385 C380 1.429 . S
C385 C384 1.347 . S
H386 C387 0.951 . S
C387 H386 0.951 . S
C387 C393 1.265 . S
H388 C393 0.950 . S
H389 C397 0.949 . S
H390 C398 0.950 . S
H391 C399 0.951 . S
H392 C400 0.951 . S
C393 C387 1.265 . S
C393 H388 0.950 . S
C393 C394 1.478 . S
C394 C393 1.478 . S
C394 C395 1.397 . S
C394 C411 1.394 . S
C395 C394 1.397 . S
C395 C396 1.438 . S
C395 C400 1.429 . S
C396 C395 1.438 . S
C396 C397 1.428 . S
C396 C409 1.394 . S
C397 H389 0.949 . S
C397 C396 1.428 . S
C397 C398 1.345 . S
C398 H390 0.950 . S
C398 C397 1.345 . S
C398 C399 1.424 . S
C399 H391 0.951 . S
C399 C398 1.424 . S
C399 C400 1.347 . S
C400 H392 0.951 . S
C400 C395 1.429 . S
C400 C399 1.347 . S
H401 C402 0.951 1_545 S
C402 H401 0.951 1_565 S
C402 C408 1.265 1_565 S
H403 C408 0.950 1_565 S
H404 C412 0.949 . S
H405 C413 0.950 . S
H406 C414 0.951 . S
H407 C415 0.951 . S
C408 C402 1.265 1_545 S
C408 H403 0.950 1_545 S
C408 C409 1.478 . S
C409 C396 1.394 . S
C409 C408 1.478 . S
C409 C410 1.397 . S
C410 C409 1.397 . S
C410 C411 1.438 . S
C410 C415 1.429 . S
C411 C394 1.394 . S
C411 C410 1.438 . S
C411 C412 1.428 . S
C412 H404 0.949 . S
C412 C411 1.428 . S
C412 C413 1.345 . S
C413 H405 0.950 . S
C413 C412 1.345 . S
C413 C414 1.424 . S
C414 H406 0.951 . S
C414 C413 1.424 . S
C414 C415 1.347 . S
C415 H407 0.951 . S
C415 C410 1.429 . S
C415 C414 1.347 . S
H416 C417 0.951 . S
C417 H416 0.951 . S
C417 C423 1.265 . S
H418 C423 0.950 . S
H419 C427 0.949 . S
H420 C428 0.950 . S
H421 C429 0.951 . S
H422 C430 0.951 . S
C423 C417 1.265 . S
C423 H418 0.950 . S
C423 C424 1.478 . S
C424 C423 1.478 . S
C424 C425 1.397 . S
C424 C441 1.394 . S
C425 C424 1.397 . S
C425 C426 1.438 . S
C425 C430 1.429 . S
C426 C425 1.438 . S
C426 C427 1.428 . S
C426 C439 1.394 . S
C427 H419 0.949 . S
C427 C426 1.428 . S
C427 C428 1.345 . S
C428 H420 0.950 . S
C428 C427 1.345 . S
C428 C429 1.424 . S
C429 H421 0.951 . S
C429 C428 1.424 . S
C429 C430 1.347 . S
C430 H422 0.951 . S
C430 C425 1.429 . S
C430 C429 1.347 . S
H431 C432 0.951 . S
C432 H431 0.951 . S
C432 C438 1.265 1_655 S
H433 C438 0.950 . S
H434 C442 0.949 . S
H435 C443 0.950 . S
H436 C444 0.951 . S
H437 C445 0.951 . S
C438 C432 1.265 1_455 S
C438 H433 0.950 . S
C438 C439 1.478 . S
C439 C426 1.394 . S
C439 C438 1.478 . S
C439 C440 1.397 . S
C440 C439 1.397 . S
C440 C441 1.438 . S
C440 C445 1.429 . S
C441 C424 1.394 . S
C441 C440 1.438 . S
C441 C442 1.428 . S
C442 H434 0.949 . S
C442 C441 1.428 . S
C442 C443 1.345 . S
C443 H435 0.950 . S
C443 C442 1.345 . S
C443 C444 1.424 . S
C444 H436 0.951 . S
C444 C443 1.424 . S
C444 C445 1.347 . S
C445 H437 0.951 . S
C445 C440 1.429 . S
C445 C444 1.347 . S
H446 C447 0.951 1_655 S
C447 H446 0.951 1_455 S
C447 C453 1.265 1_455 S
H448 C453 0.950 1_455 S
H449 C457 0.949 . S
H450 C458 0.950 . S
H451 C459 0.951 . S
H452 C460 0.951 . S
C453 C447 1.265 1_655 S
C453 H448 0.950 1_655 S
C453 C454 1.478 . S
C454 C453 1.478 . S
C454 C455 1.397 . S
C454 C471 1.394 . S
C455 C454 1.397 . S
C455 C456 1.438 . S
C455 C460 1.429 . S
C456 C455 1.438 . S
C456 C457 1.428 . S
C456 C469 1.394 . S
C457 H449 0.949 . S
C457 C456 1.428 . S
C457 C458 1.345 . S
C458 H450 0.950 . S
C458 C457 1.345 . S
C458 C459 1.424 . S
C459 H451 0.951 . S
C459 C458 1.424 . S
C459 C460 1.347 . S
C460 H452 0.951 . S
C460 C455 1.429 . S
C460 C459 1.347 . S
H461 C462 0.951 . S
C462 H461 0.951 . S
C462 C468 1.265 1_565 S
H463 C468 0.950 . S
H464 C472 0.949 . S
H465 C473 0.950 . S
H466 C474 0.951 . S
H467 C475 0.951 . S
C468 C462 1.265 1_545 S
C468 H463 0.950 . S
C468 C469 1.478 . S
C469 C456 1.394 . S
C469 C468 1.478 . S
C469 C470 1.397 . S
C470 C469 1.397 . S
C470 C471 1.438 . S
C470 C475 1.429 . S
C471 C454 1.394 . S
C471 C470 1.438 . S
C471 C472 1.428 . S
C472 H464 0.949 . S
C472 C471 1.428 . S
C472 C473 1.345 . S
C473 H465 0.950 . S
C473 C472 1.345 . S
C473 C474 1.424 . S
C474 H466 0.951 . S
C474 C473 1.424 . S
C474 C475 1.347 . S
C475 H467 0.951 . S
C475 C470 1.429 . S
C475 C474 1.347 . S
C117 C107 1.839 . S
C132 C54 1.941 . S
C147 C106 1.933 . S
C162 C55 1.832 . S
C177 C52 1.905 . S
C192 C114 1.757 . S
C207 C115 1.941 . S
C222 C53 1.847 . S
C237 C49 1.913 . S
C252 C109 1.791 . S
C267 C48 1.832 . S
C282 C108 1.933 . S
C297 C50 1.132 . S
C312 C51 1.132 . S
C327 C112 1.132 . S
C342 C113 1.132 . S
C357 C46 1.111 . S
C372 C47 1.111 . S
C387 C111 1.132 . S
C402 C110 1.132 . S
C417 C56 1.071 . S
C432 C57 1.071 . S
C447 C104 1.132 . S
C462 C105 1.132 . S
