# Generated by pormake.
# Topology wkj, (6)-cn, num edge types: 1
# Building blocks:
#     Node 0, Type 0, BuildingBlock: CIFDUS_clean_sbu_1, # of connection points: 6
#     Node 1, Type 0, BuildingBlock: CIFDUS_clean_sbu_1, # of connection points: 6
#     Node 2, Type 0, BuildingBlock: CIFDUS_clean_sbu_1, # of connection points: 6
#     Node 3, Type 0, BuildingBlock: CIFDUS_clean_sbu_1, # of connection points: 6
#     Node 4, Type 0, BuildingBlock: CIFDUS_clean_sbu_1, # of connection points: 6
#     Node 5, Type 0, BuildingBlock: CIFDUS_clean_sbu_1, # of connection points: 6
#     Node 6, Type 0, BuildingBlock: CIFDUS_clean_sbu_1, # of connection points: 6
#     Node 7, Type 0, BuildingBlock: CIFDUS_clean_sbu_1, # of connection points: 6
#     Node 8, Type 0, BuildingBlock: CIFDUS_clean_sbu_1, # of connection points: 6
#     Node 9, Type 0, BuildingBlock: CIFDUS_clean_sbu_1, # of connection points: 6
#     Node 10, Type 0, BuildingBlock: CIFDUS_clean_sbu_1, # of connection points: 6
#     Node 11, Type 0, BuildingBlock: CIFDUS_clean_sbu_1, # of connection points: 6
#     Edge 12, Type (0, 0), BuildingBlock: KIFKEQ_clean_linker_1, # of connection points: 2
#     Edge 13, Type (0, 0), BuildingBlock: KIFKEQ_clean_linker_1, # of connection points: 2
#     Edge 14, Type (0, 0), BuildingBlock: KIFKEQ_clean_linker_1, # of connection points: 2
#     Edge 15, Type (0, 0), BuildingBlock: KIFKEQ_clean_linker_1, # of connection points: 2
#     Edge 16, Type (0, 0), BuildingBlock: KIFKEQ_clean_linker_1, # of connection points: 2
#     Edge 17, Type (0, 0), BuildingBlock: KIFKEQ_clean_linker_1, # of connection points: 2
#     Edge 18, Type (0, 0), BuildingBlock: KIFKEQ_clean_linker_1, # of connection points: 2
#     Edge 19, Type (0, 0), BuildingBlock: KIFKEQ_clean_linker_1, # of connection points: 2
#     Edge 20, Type (0, 0), BuildingBlock: KIFKEQ_clean_linker_1, # of connection points: 2
#     Edge 21, Type (0, 0), BuildingBlock: KIFKEQ_clean_linker_1, # of connection points: 2
#     Edge 22, Type (0, 0), BuildingBlock: KIFKEQ_clean_linker_1, # of connection points: 2
#     Edge 23, Type (0, 0), BuildingBlock: KIFKEQ_clean_linker_1, # of connection points: 2
#     Edge 24, Type (0, 0), BuildingBlock: KIFKEQ_clean_linker_1, # of connection points: 2
#     Edge 25, Type (0, 0), BuildingBlock: KIFKEQ_clean_linker_1, # of connection points: 2
#     Edge 26, Type (0, 0), BuildingBlock: KIFKEQ_clean_linker_1, # of connection points: 2
#     Edge 27, Type (0, 0), BuildingBlock: KIFKEQ_clean_linker_1, # of connection points: 2
#     Edge 28, Type (0, 0), BuildingBlock: KIFKEQ_clean_linker_1, # of connection points: 2
#     Edge 29, Type (0, 0), BuildingBlock: KIFKEQ_clean_linker_1, # of connection points: 2
#     Edge 30, Type (0, 0), BuildingBlock: KIFKEQ_clean_linker_1, # of connection points: 2
#     Edge 31, Type (0, 0), BuildingBlock: KIFKEQ_clean_linker_1, # of connection points: 2
#     Edge 32, Type (0, 0), BuildingBlock: KIFKEQ_clean_linker_1, # of connection points: 2
#     Edge 33, Type (0, 0), BuildingBlock: KIFKEQ_clean_linker_1, # of connection points: 2
#     Edge 34, Type (0, 0), BuildingBlock: KIFKEQ_clean_linker_1, # of connection points: 2
#     Edge 35, Type (0, 0), BuildingBlock: KIFKEQ_clean_linker_1, # of connection points: 2
#     Edge 36, Type (0, 0), BuildingBlock: KIFKEQ_clean_linker_1, # of connection points: 2
#     Edge 37, Type (0, 0), BuildingBlock: KIFKEQ_clean_linker_1, # of connection points: 2
#     Edge 38, Type (0, 0), BuildingBlock: KIFKEQ_clean_linker_1, # of connection points: 2
#     Edge 39, Type (0, 0), BuildingBlock: KIFKEQ_clean_linker_1, # of connection points: 2
#     Edge 40, Type (0, 0), BuildingBlock: KIFKEQ_clean_linker_1, # of connection points: 2
#     Edge 41, Type (0, 0), BuildingBlock: KIFKEQ_clean_linker_1, # of connection points: 2
#     Edge 42, Type (0, 0), BuildingBlock: KIFKEQ_clean_linker_1, # of connection points: 2
#     Edge 43, Type (0, 0), BuildingBlock: KIFKEQ_clean_linker_1, # of connection points: 2
#     Edge 44, Type (0, 0), BuildingBlock: KIFKEQ_clean_linker_1, # of connection points: 2
#     Edge 45, Type (0, 0), BuildingBlock: KIFKEQ_clean_linker_1, # of connection points: 2
#     Edge 46, Type (0, 0), BuildingBlock: KIFKEQ_clean_linker_1, # of connection points: 2
#     Edge 47, Type (0, 0), BuildingBlock: KIFKEQ_clean_linker_1, # of connection points: 2
# Relax obj value: 0.527
# Max RMSD: 0.242
# Mean RMSD: 0.242
data_MOF--net-wkj--node1-CIFDUS_clean_sbu_1--edge1-KIFKEQ_clean_linker_1
_symmetry_space_group_name_H-M    P1
_symmetry_Int_Tables_number       1
_symmetry_cell_setting            triclinic
loop_
_symmetry_equiv_pos_as_xyz
'x, y, z'
_cell_length_a     51.845961
_cell_length_b     51.862242
_cell_length_c     25.158062
_cell_angle_alpha  89.971869
_cell_angle_beta   89.91913
_cell_angle_gamma 120.0901
loop_
_atom_site_label
_atom_site_type_symbol
_atom_site_fract_x
_atom_site_fract_y
_atom_site_fract_z
_atom_type_partial_charge
O0 O 0.48734 0.09986 0.31525 0.0
Mn1 Mn 0.45498 0.08351 0.25559 0.0
O2 O 0.47562 0.1267 0.37037 0.0
Mn3 Mn 0.4425 0.12102 0.33267 0.0
O4 O 0.42213 0.06621 0.19541 0.0
O5 O 0.46041 0.04844 0.24966 0.0
Mn6 Mn 0.46278 0.03779 0.18516 0.0
O7 O 0.48777 0.1062 0.19618 0.0
O8 O 0.42703 0.02978 0.15517 0.0
O9 O 0.42246 0.05887 0.31332 0.0
O10 O 0.4073 0.0877 0.3515 0.0
O11 O 0.46447 0.01026 0.23062 0.0
O12 O 0.49601 0.07125 0.15837 0.0
C13 C 0.44824 0.14389 0.26127 0.0
C14 C 0.49191 0.11584 0.35707 0.0
C15 C 0.41375 0.04464 0.16175 0.0
C16 C 0.46175 0.02604 0.26755 0.0
C17 C 0.50184 0.09815 0.16372 0.0
C18 C 0.40498 0.06243 0.34485 0.0
O19 O 0.44993 0.11975 0.26407 0.0
O20 O 0.44192 0.15284 0.30492 0.0
O21 O 0.37967 0.48975 0.65278 0.0
Mn22 Mn 0.36703 0.45799 0.59323 0.0
O23 O 0.34472 0.46493 0.71423 0.0
Mn24 Mn 0.31587 0.43664 0.66967 0.0
O25 O 0.35523 0.42619 0.53243 0.0
O26 O 0.40914 0.46813 0.58805 0.0
Mn27 Mn 0.42352 0.47342 0.52395 0.0
O28 O 0.3742 0.49032 0.53428 0.0
O29 O 0.39827 0.43789 0.48979 0.0
O30 O 0.36162 0.42565 0.65026 0.0
O31 O 0.31409 0.40057 0.67582 0.0
O32 O 0.45269 0.47537 0.56987 0.0
O33 O 0.42043 0.50571 0.50124 0.0
C34 C 0.30602 0.45723 0.60806 0.0
C35 C 0.36947 0.48708 0.70007 0.0
C36 C 0.37024 0.42132 0.49688 0.0
C37 C 0.43292 0.46973 0.60622 0.0
C38 C 0.39684 0.50761 0.50456 0.0
C39 C 0.33994 0.40354 0.67485 0.0
O40 O 0.32355 0.44633 0.60103 0.0
O41 O 0.28966 0.4483 0.65064 0.0
O42 O 0.89114 0.38517 0.98689 0.0
Mn43 Mn 0.90878 0.37078 0.92692 0.0
O44 O 0.86461 0.34547 0.03973 0.0
Mn45 Mn 0.87056 0.31905 0.99955 0.0
O46 O 0.92745 0.35745 0.86567 0.0
O47 O 0.94362 0.41136 0.92451 0.0
Mn48 Mn 0.95386 0.42724 0.86156 0.0
O49 O 0.88668 0.38183 0.86828 0.0
O50 O 0.96089 0.40044 0.82468 0.0
O51 O 0.93277 0.36212 0.98474 0.0
O52 O 0.90352 0.31695 0.0184 0.0
O53 O 0.98238 0.45367 0.9096 0.0
O54 O 0.92018 0.42825 0.83994 0.0
C55 C 0.84862 0.30311 0.92745 0.0
C56 C 0.87543 0.37297 0.02873 0.0
C57 C 0.94773 0.37216 0.83027 0.0
C58 C 0.96682 0.43344 0.94445 0.0
C59 C 0.89384 0.40569 0.84113 0.0
C60 C 0.92864 0.34049 0.01517 0.0
O61 O 0.87256 0.32913 0.93165 0.0
O62 O 0.83921 0.287 0.97019 0.0
O63 O 0.50387 0.89093 0.31943 0.0
Mn64 Mn 0.53584 0.91012 0.25948 0.0
O65 O 0.51736 0.86382 0.36998 0.0
Mn66 Mn 0.54997 0.87091 0.32891 0.0
O67 O 0.56823 0.93047 0.1987 0.0
O68 O 0.52917 0.94409 0.26055 0.0
Mn69 Mn 0.52843 0.95944 0.19971 0.0
O70 O 0.5033 0.88967 0.19963 0.0
O71 O 0.5659 0.97106 0.17254 0.0
O72 O 0.56832 0.93323 0.31782 0.0
O73 O 0.58478 0.90402 0.34921 0.0
O74 O 0.52253 0.98128 0.25318 0.0
O75 O 0.49741 0.92693 0.16502 0.0
C76 C 0.54407 0.85085 0.25423 0.0
C77 C 0.50048 0.87449 0.36004 0.0
C78 C 0.57801 0.95486 0.17163 0.0
C79 C 0.52484 0.96304 0.28509 0.0
C80 C 0.49082 0.89961 0.1674 0.0
C81 C 0.58614 0.92907 0.34716 0.0
O82 O 0.54192 0.87447 0.26157 0.0
O83 O 0.55093 0.84052 0.29547 0.0
O84 O 0.61105 0.50559 0.656 0.0
Mn85 Mn 0.62343 0.53781 0.59702 0.0
O86 O 0.65031 0.52476 0.71091 0.0
Mn87 Mn 0.67503 0.55567 0.66588 0.0
O88 O 0.63533 0.57031 0.5371 0.0
O89 O 0.58232 0.53055 0.59915 0.0
Mn90 Mn 0.56658 0.53023 0.53819 0.0
O91 O 0.61124 0.50512 0.53667 0.0
O92 O 0.59238 0.56762 0.51063 0.0
O93 O 0.63113 0.5701 0.65486 0.0
O94 O 0.67766 0.59136 0.6815 0.0
O95 O 0.53866 0.52466 0.5908 0.0
O96 O 0.56742 0.4988 0.50446 0.0
C97 C 0.69368 0.54938 0.59894 0.0
C98 C 0.62369 0.50513 0.69948 0.0
C99 C 0.62074 0.58005 0.5103 0.0
C100 C 0.55885 0.52652 0.62314 0.0
C101 C 0.58808 0.4921 0.50589 0.0
C102 C 0.65303 0.59062 0.68067 0.0
O103 O 0.66635 0.54478 0.59761 0.0
O104 O 0.70845 0.55776 0.6432 0.0
O105 O 0.10317 0.61344 0.98742 0.0
Mn106 Mn 0.08169 0.62397 0.92904 0.0
O107 O 0.12525 0.65396 0.04006 0.0
Mn108 Mn 0.11729 0.67841 0.99748 0.0
O109 O 0.05913 0.63401 0.86969 0.0
O110 O 0.0497 0.58207 0.93096 0.0
Mn111 Mn 0.03486 0.56581 0.86997 0.0
O112 O 0.10347 0.61419 0.86801 0.0
O113 O 0.02048 0.58956 0.84409 0.0
O114 O 0.05734 0.63083 0.98883 0.0
O115 O 0.08278 0.67791 0.01516 0.0
O116 O 0.01458 0.53699 0.92262 0.0
O117 O 0.06809 0.56977 0.83411 0.0
C118 C 0.13825 0.69345 0.92366 0.0
C119 C 0.11768 0.62707 0.02931 0.0
C120 C 0.03483 0.61802 0.84322 0.0
C121 C 0.03197 0.55785 0.95491 0.0
C122 C 0.09478 0.59185 0.83589 0.0
C123 C 0.0593 0.65267 0.01602 0.0
O124 O 0.11558 0.66686 0.9305 0.0
O125 O 0.14703 0.71077 0.96486 0.0
O126 O 0.88395 0.50372 0.36521 0.0
Mn127 Mn 0.90728 0.53528 0.42283 0.0
O128 O 0.88039 0.53304 0.30523 0.0
Mn129 Mn 0.87942 0.5594 0.35449 0.0
O130 O 0.93234 0.56663 0.4825 0.0
O131 O 0.93646 0.52173 0.41934 0.0
Mn132 Mn 0.94961 0.51692 0.47976 0.0
O133 O 0.88351 0.50385 0.48326 0.0
O134 O 0.967 0.55486 0.50854 0.0
O135 O 0.93376 0.56765 0.36454 0.0
O136 O 0.91317 0.59558 0.35012 0.0
O137 O 0.96806 0.50692 0.42596 0.0
O138 O 0.91503 0.48877 0.51373 0.0
C139 C 0.84815 0.53831 0.4139 0.0
C140 C 0.87957 0.50898 0.31766 0.0
C141 C 0.95579 0.57192 0.5093 0.0
C142 C 0.95254 0.51349 0.39448 0.0
C143 C 0.88975 0.48749 0.51341 0.0
C144 C 0.93515 0.59142 0.34526 0.0
O145 O 0.87649 0.54891 0.42338 0.0
O146 O 0.84152 0.54765 0.37097 0.0
O147 O 0.38176 0.89366 0.69338 0.0
Mn148 Mn 0.36764 0.91194 0.7531 0.0
O149 O 0.34227 0.86941 0.63922 0.0
Mn150 Mn 0.31604 0.87591 0.67917 0.0
O151 O 0.35399 0.93089 0.81329 0.0
O152 O 0.40882 0.94618 0.75701 0.0
Mn153 Mn 0.42308 0.95637 0.82097 0.0
O154 O 0.37727 0.88901 0.81279 0.0
O155 O 0.39644 0.96494 0.85435 0.0
O156 O 0.36029 0.93693 0.69517 0.0
O157 O 0.31483 0.90962 0.66174 0.0
O158 O 0.45158 0.98408 0.77463 0.0
O159 O 0.42261 0.92251 0.84557 0.0
C160 C 0.29921 0.85294 0.75042 0.0
C161 C 0.36943 0.87859 0.651 0.0
C162 C 0.36825 0.95171 0.84782 0.0
C163 C 0.4322 0.96883 0.73845 0.0
C164 C 0.40021 0.89616 0.84272 0.0
C165 C 0.33879 0.93428 0.66591 0.0
O166 O 0.32556 0.87653 0.74707 0.0
O167 O 0.28333 0.84461 0.70743 0.0
O168 O 0.48615 0.38348 0.02667 0.0
Mn169 Mn 0.45415 0.37175 0.08594 0.0
O170 O 0.46879 0.34291 0.97473 0.0
Mn171 Mn 0.43719 0.31826 0.01871 0.0
O172 O 0.42181 0.36023 0.1461 0.0
O173 O 0.46091 0.41254 0.08234 0.0
Mn174 Mn 0.46088 0.42892 0.14239 0.0
O175 O 0.48705 0.38498 0.14601 0.0
O176 O 0.42339 0.40306 0.16972 0.0
O177 O 0.42154 0.36248 0.02797 0.0
O178 O 0.40177 0.31588 1.00091 0.0
O179 O 0.46675 0.45619 0.08812 0.0
O180 O 0.49233 0.42856 0.1773 0.0
C181 C 0.44433 0.30291 0.09025 0.0
C182 C 0.48759 0.37006 0.98488 0.0
C183 C 0.41157 0.37477 0.17168 0.0
C184 C 0.46522 0.43568 0.057 0.0
C185 C 0.49961 0.4083 0.17647 0.0
C186 C 0.40182 0.34023 1.00149 0.0
O187 O 0.44763 0.32948 0.08613 0.0
O188 O 0.43596 0.28618 0.04825 0.0
O189 O 0.10449 0.49188 0.36062 0.0
Mn190 Mn 0.08513 0.45902 0.4191 0.0
O191 O 0.12724 0.47545 0.30601 0.0
Mn192 Mn 0.12029 0.44347 0.34833 0.0
O193 O 0.06434 0.42622 0.47884 0.0
O194 O 0.05152 0.46653 0.41957 0.0
Mn195 Mn 0.0387 0.46974 0.48163 0.0
O196 O 0.10675 0.49112 0.47975 0.0
O197 O 0.02791 0.43341 0.51311 0.0
O198 O 0.06039 0.42728 0.35994 0.0
O199 O 0.08742 0.40834 0.33034 0.0
O200 O 0.01427 0.47302 0.43053 0.0
O201 O 0.07217 0.50197 0.51085 0.0
C202 C 0.1441 0.4479 0.41554 0.0
C203 C 0.1188 0.49392 0.31768 0.0
C204 C 0.04181 0.41893 0.50994 0.0
C205 C 0.03091 0.46912 0.39705 0.0
C206 C 0.09867 0.50618 0.50961 0.0
C207 C 0.06315 0.40832 0.33149 0.0
O208 O 0.12121 0.45225 0.41711 0.0
O209 O 0.15124 0.44075 0.37069 0.0
O210 O 0.61135 0.10267 0.689 0.0
Mn211 Mn 0.6238 0.08359 0.74947 0.0
O212 O 0.65212 0.13003 0.63866 0.0
Mn213 Mn 0.6772 0.12188 0.67862 0.0
O214 O 0.63577 0.06344 0.81062 0.0
O215 O 0.5826 0.05 0.74977 0.0
Mn216 Mn 0.56738 0.03538 0.81161 0.0
O217 O 0.61276 0.10511 0.80894 0.0
O218 O 0.59281 0.02305 0.83744 0.0
O219 O 0.63218 0.05955 0.69164 0.0
O220 O 0.67758 0.08815 0.65796 0.0
O221 O 0.53836 0.01345 0.76032 0.0
O222 O 0.57012 0.06837 0.84642 0.0
C223 C 0.69202 0.14208 0.75299 0.0
C224 C 0.62456 0.11945 0.64874 0.0
C225 C 0.62116 0.03913 0.8379 0.0
C226 C 0.55847 0.03113 0.72701 0.0
C227 C 0.59092 0.09563 0.84253 0.0
C228 C 0.65371 0.06323 0.66137 0.0
O229 O 0.66597 0.11867 0.74614 0.0
O230 O 0.7092 0.15184 0.71155 0.0
O231 O 0.50323 0.6093 0.03291 0.0
Mn232 Mn 0.53463 0.62245 0.09327 0.0
O233 O 0.52432 0.64744 0.97453 0.0
Mn234 Mn 0.55529 0.67406 0.01783 0.0
O235 O 0.56668 0.63556 0.15394 0.0
O236 O 0.52588 0.58099 0.09915 0.0
Mn237 Mn 0.52152 0.56668 0.16305 0.0
O238 O 0.50193 0.61429 0.152 0.0
O239 O 0.55722 0.59293 0.19574 0.0
O240 O 0.56643 0.62738 0.03602 0.0
O241 O 0.59037 0.6741 0.00819 0.0
O242 O 0.5199 0.53792 0.11599 0.0
O243 O 0.48887 0.56896 0.18696 0.0
C244 C 0.54659 0.69166 0.08556 0.0
C245 C 0.50405 0.62122 0.98768 0.0
C246 C 0.57271 0.62109 0.18881 0.0
C247 C 0.52456 0.55758 0.08004 0.0
C248 C 0.48559 0.59172 0.18257 0.0
C249 C 0.58773 0.64857 0.00975 0.0
O250 O 0.54296 0.66496 0.0847 0.0
O251 O 0.55636 0.70727 0.04235 0.0
H252 H 0.50179 0.19171 0.24267 0.0
H253 H 0.412 0.14211 0.18311 0.0
H254 H 0.50593 0.2379 0.2099 0.0
H255 H 0.41621 0.188 0.14856 0.0
H256 H 0.40939 0.26769 0.16905 0.0
H257 H 0.41556 0.22705 0.20274 0.0
H258 H 0.50507 0.26994 0.13914 0.0
H259 H 0.49896 0.31099 0.10717 0.0
C260 C 0.4837 0.1905 0.21919 0.0
C261 C 0.45656 0.16353 0.21534 0.0
C262 C 0.48583 0.21703 0.20145 0.0
C263 C 0.46087 0.21666 0.17906 0.0
C264 C 0.43539 0.18903 0.16778 0.0
C265 C 0.43325 0.16261 0.18591 0.0
C266 C 0.43101 0.26935 0.16554 0.0
C267 C 0.4537 0.29232 0.13573 0.0
C268 C 0.43426 0.24564 0.18315 0.0
C269 C 0.46026 0.24465 0.17101 0.0
C270 C 0.48458 0.26983 0.1482 0.0
C271 C 0.48134 0.29367 0.13097 0.0
H272 H 0.2922 0.43908 0.50521 0.0
H273 H 0.29666 0.50325 0.61921 0.0
H274 H 0.2527 0.44225 0.45787 0.0
H275 H 0.25693 0.50601 0.573 0.0
H276 H 0.18282 0.50156 0.45835 0.0
H277 H 0.23152 0.51319 0.4942 0.0
H278 H 0.20197 0.41913 0.49954 0.0
H279 H 0.15386 0.40785 0.46387 0.0
C280 C 0.28596 0.45512 0.51828 0.0
C281 C 0.29686 0.47049 0.56616 0.0
C282 C 0.26296 0.45652 0.49196 0.0
C283 C 0.25093 0.47337 0.51337 0.0
C284 C 0.26544 0.49254 0.55606 0.0
C285 C 0.28839 0.49115 0.58222 0.0
C286 C 0.18635 0.48345 0.47006 0.0
C287 C 0.16457 0.45381 0.45952 0.0
C288 C 0.2144 0.49009 0.48916 0.0
C289 C 0.22087 0.4671 0.49738 0.0
C290 C 0.19798 0.43738 0.49163 0.0
C291 C 0.17011 0.43082 0.47296 0.0
H292 H 0.80143 0.30965 0.90809 0.0
H293 H 0.85084 0.26931 0.84857 0.0
H294 H 0.75518 0.2675 0.87564 0.0
H295 H 0.80492 0.22759 0.81424 0.0
H296 H 0.72577 0.14114 0.8332 0.0
H297 H 0.7659 0.18783 0.86848 0.0
H298 H 0.72301 0.23442 0.80568 0.0
H299 H 0.6824 0.18735 0.77242 0.0
C300 C 0.8026 0.29273 0.88464 0.0
C301 C 0.82949 0.29246 0.88094 0.0
C302 C 0.77603 0.26827 0.86714 0.0
C303 C 0.77633 0.2436 0.84496 0.0
C304 C 0.80393 0.24576 0.83345 0.0
C305 C 0.83038 0.27009 0.85138 0.0
C306 C 0.72394 0.16102 0.8303 0.0
C307 C 0.70127 0.16086 0.8 0.0
C308 C 0.74738 0.18794 0.8488 0.0
C309 C 0.74833 0.21494 0.83707 0.0
C310 C 0.72319 0.21405 0.81433 0.0
C311 C 0.69959 0.187 0.79635 0.0
H312 H 0.57941 0.72699 0.16566 0.0
H313 H 0.49236 0.68599 0.09384 0.0
H314 H 0.57324 0.76816 0.19634 0.0
H315 H 0.48624 0.72752 0.1233 0.0
H316 H 0.48954 0.80541 0.23173 0.0
H317 H 0.48427 0.75916 0.19658 0.0
H318 H 0.57476 0.80786 0.13804 0.0
H319 H 0.58005 0.85376 0.17461 0.0
C320 C 0.55825 0.72597 0.15922 0.0
C321 C 0.5363 0.70343 0.12783 0.0
C322 C 0.55504 0.74993 0.17521 0.0
C323 C 0.52985 0.75163 0.15979 0.0
C324 C 0.50609 0.72701 0.13484 0.0
C325 C 0.50932 0.70294 0.11904 0.0
C326 C 0.50757 0.80646 0.20818 0.0
C327 C 0.5353 0.8329 0.20618 0.0
C328 C 0.50477 0.77987 0.1891 0.0
C329 C 0.52962 0.77981 0.16715 0.0
C330 C 0.55563 0.80719 0.1569 0.0
C331 C 0.55842 0.83364 0.17626 0.0
H332 H 0.67917 0.49494 0.56048 0.0
H333 H 0.74239 0.58886 0.5466 0.0
H334 H 0.7165 0.4835 0.52512 0.0
H335 H 0.77948 0.57773 0.51148 0.0
H336 H 0.85096 0.55863 0.51465 0.0
H337 H 0.80764 0.55617 0.55844 0.0
H338 H 0.74947 0.49004 0.44511 0.0
H339 H 0.79268 0.49222 0.4022 0.0
C340 C 0.70048 0.51304 0.54704 0.0
C341 C 0.70792 0.54275 0.55526 0.0
C342 C 0.72203 0.50655 0.52814 0.0
C343 C 0.7512 0.52977 0.51787 0.0
C344 C 0.75748 0.55939 0.52098 0.0
C345 C 0.73601 0.5658 0.53944 0.0
C346 C 0.82883 0.54227 0.5013 0.0
C347 C 0.82499 0.52591 0.45486 0.0
C348 C 0.80407 0.54127 0.52554 0.0
C349 C 0.77541 0.5238 0.50358 0.0
C350 C 0.7713 0.50395 0.46239 0.0
C351 C 0.79602 0.50499 0.43822 0.0
H352 H 0.26416 0.85341 0.82869 0.0
H353 H 0.30585 0.80558 0.76769 0.0
H354 H 0.22281 0.80695 0.8625 0.0
H355 H 0.2641 0.75877 0.79989 0.0
H356 H 0.1847 0.68537 0.90567 0.0
H357 H 0.23146 0.72639 0.87172 0.0
H358 H 0.18352 0.76752 0.80748 0.0
H359 H 0.13711 0.72693 0.84311 0.0
C360 C 0.26531 0.83317 0.82542 0.0
C361 C 0.28804 0.83292 0.79585 0.0
C362 C 0.24121 0.80642 0.84311 0.0
C363 C 0.2396 0.77913 0.83129 0.0
C364 C 0.26449 0.7794 0.80869 0.0
C365 C 0.28871 0.80627 0.79133 0.0
C366 C 0.184 0.70225 0.88128 0.0
C367 C 0.15751 0.70326 0.87711 0.0
C368 C 0.21086 0.72607 0.86288 0.0
C369 C 0.21124 0.75082 0.83945 0.0
C370 C 0.18398 0.74927 0.82754 0.0
C371 C 0.15725 0.72559 0.84633 0.0
H372 H 0.61576 0.10292 0.93854 0.0
H373 H 0.56354 0.12908 0.84411 0.0
H374 H 0.60014 0.11687 0.01875 0.0
H375 H 0.54933 0.14562 0.92425 0.0
H376 H 0.48627 0.11101 0.07017 0.0
H377 H 0.51568 0.12303 0.98973 0.0
H378 H 0.59346 0.1428 0.08341 0.0
H379 H 0.56269 0.12799 0.16346 0.0
C380 C 0.60225 0.11339 0.93491 0.0
C381 C 0.59115 0.11524 0.88517 0.0
C382 C 0.59311 0.12148 0.98123 0.0
C383 C 0.57273 0.132 0.97909 0.0
C384 C 0.56421 0.13677 0.92831 0.0
C385 C 0.57286 0.12795 0.88197 0.0
C386 C 0.51 0.1193 0.07366 0.0
C387 C 0.52224 0.11881 0.12306 0.0
C388 C 0.52709 0.12614 0.02716 0.0
C389 C 0.55714 0.13315 0.02895 0.0
C390 C 0.57022 0.13639 0.07956 0.0
C391 C 0.55281 0.12866 0.12594 0.0
H392 H 0.42476 0.56199 0.1828 0.0
H393 H 0.50169 0.62139 0.27509 0.0
H394 H 0.39367 0.54845 0.26226 0.0
H395 H 0.47196 0.60629 0.35522 0.0
H396 H 0.42478 0.56831 0.50143 0.0
H397 H 0.43922 0.59767 0.41991 0.0
H398 H 0.38351 0.51727 0.3303 0.0
H399 H 0.36736 0.48925 0.4122 0.0
C400 C 0.43475 0.57303 0.21994 0.0
C401 C 0.46551 0.59314 0.22264 0.0
C402 C 0.41711 0.5647 0.26611 0.0
C403 C 0.43007 0.57524 0.31659 0.0
C404 C 0.46051 0.59752 0.31799 0.0
C405 C 0.47785 0.60648 0.2716 0.0
C406 C 0.41428 0.55748 0.46443 0.0
C407 C 0.39461 0.52659 0.46325 0.0
C408 C 0.4232 0.57412 0.41714 0.0
C409 C 0.41374 0.56001 0.36719 0.0
C410 C 0.39157 0.52953 0.36702 0.0
C411 C 0.38195 0.51319 0.41446 0.0
H412 H 0.87836 0.37507 0.74948 0.0
H413 H 0.86667 0.43914 0.83908 0.0
H414 H 0.86422 0.39015 0.66887 0.0
H415 H 0.84946 0.45267 0.75937 0.0
H416 H 0.85516 0.42706 0.52115 0.0
H417 H 0.8404 0.39929 0.60448 0.0
H418 H 0.87114 0.48221 0.68967 0.0
H419 H 0.88286 0.50875 0.6062 0.0
C420 C 0.8709 0.39117 0.75231 0.0
C421 C 0.87343 0.4058 0.80048 0.0
C422 C 0.86276 0.40006 0.70571 0.0
C423 C 0.85631 0.4235 0.70623 0.0
C424 C 0.85537 0.43548 0.75617 0.0
C425 C 0.86454 0.42725 0.80246 0.0
C426 C 0.85697 0.43887 0.55772 0.0
C427 C 0.86972 0.46995 0.55725 0.0
C428 C 0.84928 0.42312 0.60595 0.0
C429 C 0.85551 0.4383 0.65506 0.0
C430 C 0.86562 0.46916 0.65366 0.0
C431 C 0.87233 0.48466 0.60537 0.0
H432 H 0.3714 0.88446 0.93607 0.0
H433 H 0.43064 0.86588 0.84546 0.0
H434 H 0.38855 0.87339 0.01764 0.0
H435 H 0.44626 0.85192 0.92667 0.0
H436 H 0.5082 0.89174 0.07143 0.0
H437 H 0.47886 0.87802 0.99098 0.0
H438 H 0.39926 0.85162 0.08469 0.0
H439 H 0.42983 0.86795 0.16496 0.0
C440 C 0.3867 0.87599 0.93346 0.0
C441 C 0.39946 0.87578 0.88439 0.0
C442 C 0.39685 0.86973 0.98063 0.0
C443 C 0.41975 0.86252 0.97989 0.0
C444 C 0.42958 0.85855 0.92974 0.0
C445 C 0.42005 0.86575 0.88269 0.0
C446 C 0.48423 0.88187 0.07484 0.0
C447 C 0.47123 0.88054 0.12439 0.0
C448 C 0.46713 0.87391 0.02838 0.0
C449 C 0.43632 0.86402 0.03017 0.0
C450 C 0.42293 0.85994 0.08081 0.0
C451 C 0.44029 0.86866 0.12726 0.0
H452 H 0.55237 0.4582 0.19398 0.0
H453 H 0.49696 0.36853 0.25151 0.0
H454 H 0.58077 0.47176 0.27584 0.0
H455 H 0.52594 0.3818 0.3341 0.0
H456 H 0.54044 0.43726 0.49123 0.0
H457 H 0.52573 0.41051 0.40751 0.0
H458 H 0.61275 0.47112 0.34233 0.0
H459 H 0.62706 0.49834 0.42668 0.0
C460 C 0.54717 0.44097 0.22337 0.0
C461 C 0.52245 0.4123 0.21623 0.0
C462 C 0.56355 0.44874 0.27061 0.0
C463 C 0.55556 0.42808 0.31247 0.0
C464 C 0.53252 0.3985 0.30323 0.0
C465 C 0.51615 0.39068 0.25553 0.0
C466 C 0.55692 0.44398 0.45983 0.0
C467 C 0.58493 0.46985 0.46564 0.0
C468 C 0.54846 0.42863 0.41145 0.0
C469 C 0.56775 0.43886 0.36727 0.0
C470 C 0.59702 0.46286 0.37502 0.0
C471 C 0.60551 0.47822 0.42373 0.0
H472 H 0.10269 0.6181 0.74068 0.0
H473 H 0.12755 0.56395 0.83247 0.0
H474 H 0.11633 0.60286 0.65952 0.0
H475 H 0.14374 0.55013 0.75152 0.0
H476 H 0.10937 0.4889 0.60363 0.0
H477 H 0.12065 0.5172 0.68524 0.0
H478 H 0.14245 0.59652 0.59436 0.0
H479 H 0.12845 0.56693 0.51309 0.0
C480 C 0.11285 0.60427 0.74356 0.0
C481 C 0.11443 0.59252 0.79283 0.0
C482 C 0.12071 0.59532 0.69671 0.0
C483 C 0.13074 0.57454 0.69788 0.0
C484 C 0.13527 0.56534 0.7482 0.0
C485 C 0.12665 0.57378 0.79501 0.0
C486 C 0.11791 0.5127 0.60106 0.0
C487 C 0.11834 0.52577 0.55202 0.0
C488 C 0.12433 0.52915 0.64821 0.0
C489 C 0.13182 0.55936 0.64747 0.0
C490 C 0.13572 0.57317 0.59736 0.0
C491 C 0.12844 0.55642 0.55033 0.0
H492 H 0.36114 9e-05 0.84559 0.0
H493 H 0.3439 0.92381 0.93994 0.0
H494 H 0.35768 0.02527 0.92493 0.0
H495 H 0.3422 0.9491 0.01959 0.0
H496 H 0.35723 -0.00228 0.16285 0.0
H497 H 0.32963 0.97317 0.0824 0.0
H498 H 0.393 0.04915 0.98993 0.0
H499 H 0.41893 0.0739 0.07065 0.0
C500 C 0.35506 0.98813 0.88304 0.0
C501 C 0.35238 0.95988 0.88667 0.0
C502 C 0.35373 0.00278 0.92887 0.0
C503 C 0.35059 0.98981 0.97947 0.0
C504 C 0.34446 0.96006 0.98185 0.0
C505 C 0.34524 0.94527 0.93591 0.0
C506 C 0.3639 0.00986 0.1256 0.0
C507 C 0.39001 0.03781 0.12294 0.0
C508 C 0.34853 0.99553 0.07913 0.0
C509 C 0.35953 0.00852 0.02891 0.0
C510 C 0.38349 0.03816 0.02734 0.0
C511 C 0.39843 0.05266 0.07394 0.0
H512 H 0.41752 0.35054 0.26203 0.0
H513 H 0.35675 0.36949 0.17758 0.0
H514 H 0.39348 0.34943 0.34517 0.0
H515 H 0.33052 0.36584 0.26023 0.0
H516 H 0.34487 0.42552 0.40709 0.0
H517 H 0.3426 0.4 0.32541 0.0
H518 H 0.36082 0.33899 0.41304 0.0
H519 H 0.36529 0.3666 0.49434 0.0
C520 C 0.39765 0.35246 0.26099 0.0
C521 C 0.38899 0.36012 0.21358 0.0
C522 C 0.38373 0.35195 0.30898 0.0
C523 C 0.3604 0.35854 0.31037 0.0
C524 C 0.3491 0.36186 0.26146 0.0
C525 C 0.36367 0.3633 0.21371 0.0
C526 C 0.34688 0.40572 0.40913 0.0
C527 C 0.35505 0.39789 0.45686 0.0
C528 C 0.3457 0.39093 0.36198 0.0
C529 C 0.35235 0.36765 0.36163 0.0
C530 C 0.35659 0.35739 0.41101 0.0
C531 C 0.35849 0.37275 0.45801 0.0
H532 H 0.99178 0.36442 0.51056 0.0
H533 H 0.06972 0.42249 0.602 0.0
H534 H 0.96651 0.33709 0.59104 0.0
H535 H 0.04431 0.39695 0.68289 0.0
H536 H 0.99542 0.36384 0.82843 0.0
H537 H 0.01983 0.3613 0.74713 0.0
H538 H 0.94388 0.34962 0.6563 0.0
H539 H 0.91932 0.35031 0.73775 0.0
C540 C 0.00399 0.37037 0.54767 0.0
C541 C 0.03282 0.39526 0.55005 0.0
C542 C 0.9893 0.35517 0.59418 0.0
C543 C 0.00279 0.36521 0.64431 0.0
C544 C 0.03294 0.38813 0.64557 0.0
C545 C 0.04779 0.40285 0.59889 0.0
C546 C 0.98331 0.35879 0.79126 0.0
C547 C 0.95532 0.3568 0.78936 0.0
C548 C -0.00245 0.35803 0.74433 0.0
C549 C 0.98443 0.35618 0.69436 0.0
C550 C 0.95493 0.35087 0.69345 0.0
C551 C 0.94055 0.35106 0.74044 0.0
H552 H 0.572 0.92379 0.08228 0.0
H553 H 0.63226 0.00511 0.16336 0.0
H554 H 0.59536 0.94597 0.99821 0.0
H555 H 0.65773 0.02706 0.0798 0.0
H556 H 0.64609 0.07035 0.92711 0.0
H557 H 0.64667 0.04819 0.01143 0.0
H558 H 0.62812 0.96705 0.93036 0.0
H559 H 0.62518 0.98898 0.8465 0.0
C560 C 0.59164 0.94581 0.08245 0.0
C561 C 0.60042 0.96265 0.12931 0.0
C562 C 0.60514 0.95883 0.03386 0.0
C563 C 0.6282 0.98892 0.03114 0.0
C564 C 0.63942 0.0043 0.07946 0.0
C565 C 0.62532 0.99151 0.12781 0.0
C566 C 0.64364 0.04833 0.92712 0.0
C567 C 0.63577 0.03147 0.88028 0.0
C568 C 0.64376 0.03531 0.97586 0.0
C569 C 0.63656 0.00521 0.97876 0.0
C570 C 0.63267 0.98982 0.93053 0.0
C571 C 0.63171 0.00261 0.88202 0.0
H572 H 0.64529 0.57491 0.41966 0.0
H573 H 0.62617 0.63492 0.50646 0.0
H574 H 0.64615 0.59941 0.33728 0.0
H575 H 0.62943 0.66152 0.42452 0.0
H576 H 0.56827 0.64606 0.27902 0.0
H577 H 0.59453 0.64884 0.36004 0.0
H578 H 0.6564 0.63274 0.27029 0.0
H579 H 0.62816 0.62782 0.18966 0.0
C580 C 0.64332 0.59474 0.4214 0.0
C581 C 0.63568 0.60305 0.46924 0.0
C582 C 0.64367 0.60892 0.37384 0.0
C583 C 0.63688 0.6321 0.37336 0.0
C584 C 0.63362 0.64309 0.42267 0.0
C585 C 0.6324 0.6283 0.47 0.0
C586 C 0.58842 0.64468 0.27636 0.0
C587 C 0.59633 0.63692 0.22825 0.0
C588 C 0.60362 0.64614 0.32312 0.0
C589 C 0.62738 0.64018 0.32264 0.0
C590 C 0.63768 0.63645 0.2729 0.0
C591 C 0.62194 0.63429 0.22629 0.0
H592 H 0.97789 0.60282 0.82154 0.0
H593 H 0.06837 0.66161 0.77076 0.0
H594 H 0.95979 0.60585 0.7347 0.0
H595 H 0.05029 0.66611 0.68354 0.0
H596 H 0.01423 0.60503 0.53396 0.0
H597 H 0.03463 0.6313 0.61615 0.0
H598 H 0.94906 0.62173 0.65616 0.0
H599 H 0.92827 0.59382 0.57382 0.0
C600 C 0.99383 0.61778 0.79246 0.0
C601 C 0.02456 0.63148 0.8026 0.0
C602 C 0.98343 0.61961 0.74222 0.0
C603 C 0.00356 0.63537 0.70084 0.0
C604 C 0.03411 0.65286 0.71371 0.0
C605 C 0.04455 0.6508 0.76413 0.0
C606 C -2e-05 0.60938 0.55948 0.0
C607 C 0.96949 0.59679 0.54796 0.0
C608 C 0.01178 0.62477 0.60687 0.0
C609 C 0.99343 0.62815 0.64417 0.0
C610 C 0.96375 0.61886 0.6293 0.0
C611 C 0.95184 0.6032 0.58167 0.0
H612 H 0.50159 0.05958 0.34334 0.0
H613 H 0.42183 0.97537 0.31747 0.0
H614 H 0.51266 0.03973 0.42145 0.0
H615 H 0.43229 0.95518 0.39573 0.0
H616 H 0.47736 0.92076 0.3407 0.0
H617 H 0.45665 0.93224 0.41749 0.0
H618 H 0.5373 0.01609 0.435 0.0
H619 H 0.55889 0.00469 0.35907 0.0
C620 C 0.48565 0.03718 0.35603 0.0
C621 C 0.4615 0.01865 0.32371 0.0
C622 C 0.49213 0.02538 0.40069 0.0
C623 C 0.47594 0.99431 0.41027 0.0
C624 C 0.44753 0.97829 0.38624 0.0
C625 C 0.44125 0.9898 0.34112 0.0
C626 C 0.49136 0.94111 0.36239 0.0
C627 C 0.51914 0.96261 0.3422 0.0
C628 C 0.47933 0.94812 0.40611 0.0
C629 C 0.49284 0.9782 0.42219 0.0
C630 C 0.52412 0.99473 0.41581 0.0
C631 C 0.53678 0.98821 0.37243 0.0
H632 H 0.4334 0.501 0.69328 0.0
H633 H 0.44482 0.42805 0.64385 0.0
H634 H 0.4633 0.50781 0.77196 0.0
H635 H 0.47511 0.43485 0.72098 0.0
H636 H 0.55503 0.48081 0.68222 0.0
H637 H 0.52054 0.45899 0.75602 0.0
H638 H 0.51224 0.53734 0.76467 0.0
H639 H 0.54734 0.55954 0.69252 0.0
C640 C 0.44113 0.48553 0.70072 0.0
C641 C 0.43815 0.46505 0.66165 0.0
C642 C 0.45879 0.48958 0.74551 0.0
C643 C 0.47592 0.47529 0.74795 0.0
C644 C 0.46549 0.44905 0.71734 0.0
C645 C 0.44798 0.44494 0.67261 0.0
C646 C 0.54746 0.49423 0.70229 0.0
C647 C 0.55299 0.52139 0.68036 0.0
C648 C 0.52701 0.4815 0.74415 0.0
C649 C 0.50909 0.49395 0.75761 0.0
C650 C 0.52223 0.52495 0.74904 0.0
C651 C 0.54273 0.53807 0.70761 0.0
H652 H 0.01951 0.44308 0.98344 0.0
H653 H 0.93497 0.43189 0.03254 0.0
H654 H 0.04295 0.47362 0.06039 0.0
H655 H 0.95838 0.46253 0.11027 0.0
H656 H 0.98838 0.54581 0.02672 0.0
H657 H 0.97693 0.51094 0.09861 0.0
H658 H 0.06434 0.52087 0.08453 0.0
H659 H 0.07555 0.55553 0.01152 0.0
C660 C 0.00572 0.44634 0.01197 0.0
C661 C 0.97586 0.43683 1.00046 0.0
C662 C 0.01912 0.46409 0.05648 0.0
C663 C 0.0035 0.4753 0.0855 0.0
C664 C 0.97203 0.45779 0.084 0.0
C665 C 0.95828 0.43971 0.03965 0.0
C666 C 0.00566 0.54154 0.04059 0.0
C667 C 0.03225 0.55217 0.01196 0.0
C668 C -0.00089 0.52114 0.08186 0.0
C669 C 0.01769 0.50878 0.08985 0.0
C670 C 0.04773 0.52675 0.07378 0.0
C671 C 0.05454 0.54719 0.03227 0.0
H672 H 0.0631 0.51177 0.32377 0.0
H673 H 0.98601 0.42465 0.34156 0.0
H674 H 0.04055 0.52098 0.24716 0.0
H675 H 0.96342 0.43335 0.26497 0.0
H676 H 0.91584 0.46653 0.3318 0.0
H677 H 0.93436 0.45235 0.25505 0.0
H678 H 0.01157 0.54034 0.25027 0.0
H679 H 0.99332 0.55419 0.32706 0.0
C680 C 0.04197 0.49398 0.30946 0.0
C681 C 0.02571 0.46807 0.33966 0.0
C682 C 0.0285 0.49933 0.26591 0.0
C683 C -0.00231 0.48011 0.25656 0.0
C684 C 0.98561 0.45064 0.27575 0.0
C685 C -0.00127 0.44523 0.31957 0.0
C686 C 0.9362 0.48321 0.31278 0.0
C687 C 0.9539 0.51103 0.33667 0.0
C688 C 0.94725 0.47506 0.26903 0.0
C689 C 0.97749 0.49336 0.25427 0.0
C690 C 0.99013 0.52397 0.26616 0.0
C691 C 0.97941 0.53238 0.30991 0.0
H692 H 0.44498 0.02218 0.69788 0.0
H693 H 0.43132 0.9363 0.65233 0.0
H694 H 0.47395 0.04384 0.61827 0.0
H695 H 0.46195 0.95831 0.57365 0.0
H696 H 0.54564 0.98759 0.65446 0.0
H697 H 0.51061 0.9767 0.5828 0.0
H698 H 0.52132 0.0643 0.59867 0.0
H699 H 0.55471 0.07431 0.6727 0.0
C700 C 0.44783 0.00783 0.67007 0.0
C701 C 0.43755 0.97793 0.68258 0.0
C702 C 0.46458 0.02015 0.62408 0.0
C703 C 0.47541 0.0039 0.59601 0.0
C704 C 0.45763 0.97251 0.59921 0.0
C705 C 0.43977 0.9596 0.64423 0.0
C706 C 0.54119 0.00488 0.64133 0.0
C707 C 0.55175 0.03123 0.67054 0.0
C708 C 0.52088 -0.00128 0.60008 0.0
C709 C 0.50885 0.01761 0.59224 0.0
C710 C 0.52683 0.04741 0.60917 0.0
C711 C 0.54665 0.05359 0.65127 0.0
H712 H 0.56689 0.54812 0.0371 0.0
H713 H 0.49064 0.55613 0.99611 0.0
H714 H 0.56062 0.52007 0.95674 0.0
H715 H 0.48422 0.52822 0.91509 0.0
H716 H 0.43367 0.44549 0.98111 0.0
H717 H 0.45752 0.47929 0.9073 0.0
H718 H 0.53636 0.47328 0.92978 0.0
H719 H 0.51305 0.44 1.00462 0.0
C720 C 0.5492 0.54447 0.00986 0.0
C721 C 0.52819 0.55268 0.02391 0.0
C722 C 0.5454 0.52827 0.96339 0.0
C723 C 0.51855 0.51717 0.93436 0.0
C724 C 0.50296 0.53292 0.9403 0.0
C725 C 0.50674 0.54938 0.98664 0.0
C726 C 0.45573 0.45041 0.96899 0.0
C727 C 0.47201 0.44115 1.00011 0.0
C728 C 0.46977 0.47016 0.92678 0.0
C729 C 0.50109 0.48414 0.92231 0.0
C730 C 0.5135 0.46669 0.93922 0.0
C731 C 0.49994 0.44693 0.9817 0.0
H732 H 0.39193 0.98198 0.63857 0.0
H733 H 0.2984 0.93827 0.60069 0.0
H734 H 0.40373 0.01101 0.55705 0.0
H735 H 0.31008 0.968 0.51922 0.0
H736 H 0.35727 0.05546 0.40373 0.0
H737 H 0.33787 0.02564 0.48506 0.0
H738 H 0.39529 0.98885 0.45914 0.0
H739 H 0.41435 0.01835 0.3785 0.0
C740 C 0.3739 0.97919 0.61368 0.0
C741 C 0.34448 0.95749 0.62581 0.0
C742 C 0.38059 0.9956 0.56675 0.0
C743 C 0.35779 0.99112 0.53145 0.0
C744 C 0.32803 0.97157 0.5457 0.0
C745 C 0.32141 0.9547 0.59241 0.0
C746 C 0.36501 0.04027 0.41459 0.0
C747 C 0.38732 0.03909 0.38452 0.0
C748 C 0.35402 0.02338 0.46116 0.0
C749 C 0.36557 0.00551 0.47864 0.0
C750 C 0.38632 0.00281 0.44677 0.0
C751 C 0.3969 0.01929 0.40006 0.0
H752 H 0.36327 0.30049 0.92806 0.0
H753 H 0.4014 0.39167 0.98084 0.0
H754 H 0.34594 0.31275 0.84688 0.0
H755 H 0.38442 0.4039 0.89939 0.0
H756 H 0.39307 0.42394 0.72391 0.0
H757 H 0.40333 0.40594 0.80541 0.0
H758 H 0.31281 0.33233 0.80801 0.0
H759 H 0.30263 0.35039 0.72484 0.0
C760 C 0.36734 0.32298 0.92306 0.0
C761 C 0.38436 0.34533 0.96047 0.0
C762 C 0.35745 0.32995 0.87643 0.0
C763 C 0.36453 0.35939 0.86632 0.0
C764 C 0.37929 0.38114 0.90568 0.0
C765 C 0.38888 0.37411 0.95246 0.0
C766 C 0.37569 0.4033 0.74035 0.0
C767 C 0.34724 0.38839 0.71717 0.0
C768 C 0.38135 0.39334 0.78791 0.0
C769 C 0.35867 0.36809 0.81359 0.0
C770 C 0.33063 0.35198 0.78909 0.0
C771 C 0.32488 0.3622 0.74143 0.0
H772 H 0.98738 0.38452 0.02069 0.0
H773 H 0.91869 0.30921 0.1072 0.0
H774 H 0.01931 0.39898 0.09966 0.0
H775 H 0.95041 0.32377 0.18533 0.0
H776 H 0.00338 0.38991 0.32705 0.0
H777 H 0.97133 0.37165 0.24791 0.0
H778 H 0.04385 0.37467 0.15835 0.0
H779 H 0.07552 0.39257 0.23634 0.0
C780 C 0.9793 0.37087 0.0561 0.0
C781 C 0.9505 0.34586 0.05758 0.0
C782 C -0.00253 0.37913 0.10121 0.0
C783 C 0.98697 0.36263 0.14859 0.0
C784 C 0.95875 0.33703 0.14946 0.0
C785 C 0.94082 0.32854 0.10433 0.0
C786 C 0.01222 0.38632 0.29058 0.0
C787 C 0.04186 0.39266 0.288 0.0
C788 C 0.99399 0.37588 0.24549 0.0
C789 C 0.00539 0.37211 0.19713 0.0
C790 C 0.03471 0.37769 0.19503 0.0
C791 C 0.05265 0.38757 0.24004 0.0
H792 H 0.60362 0.00852 0.6473 0.0
H793 H 0.69115 0.06715 0.58121 0.0
H794 H 0.5911 0.97682 0.56834 0.0
H795 H 0.67814 0.03557 0.50262 0.0
H796 H 0.59483 0.98544 0.3595 0.0
H797 H 0.61383 0.01672 0.43906 0.0
H798 H 0.63426 0.95337 0.50976 0.0
H799 H 0.6157 0.92214 0.43078 0.0
C800 C 0.62038 0.01432 0.61672 0.0
C801 C 0.64834 0.04048 0.62061 0.0
C802 C 0.61312 0.99631 0.57155 0.0
C803 C 0.63366 0.00424 0.52973 0.0
C804 C 0.66203 0.02932 0.53454 0.0
C805 C 0.66942 0.04719 0.57975 0.0
C806 C 0.60395 0.97848 0.39145 0.0
C807 C 0.60356 0.9512 0.38876 0.0
C808 C 0.61465 0.99628 0.4369 0.0
C809 C 0.62504 0.987 0.48017 0.0
C810 C 0.62614 0.96068 0.47669 0.0
C811 C 0.61571 0.94302 0.43123 0.0
H812 H 0.56403 0.59726 0.95414 0.0
H813 H 0.64232 0.68442 0.96402 0.0
H814 H 0.58206 0.58769 0.87185 0.0
H815 H 0.66017 0.67544 0.87961 0.0
H816 H 0.69158 0.62829 0.75606 0.0
H817 H 0.67805 0.64411 0.83736 0.0
H818 H 0.58773 0.60677 0.78048 0.0
H819 H 0.60128 0.59093 0.69901 0.0
C820 C 0.58571 0.61388 0.93991 0.0
C821 C 0.60219 0.64111 0.96662 0.0
C822 C 0.59565 0.60881 0.89173 0.0
C823 C 0.62229 0.63104 0.86873 0.0
C824 C 0.63954 0.65789 0.89641 0.0
C825 C 0.62946 0.66297 0.94481 0.0
C826 C 0.669 0.62411 0.76017 0.0
C827 C 0.64724 0.60761 0.72159 0.0
C828 C 0.66127 0.63315 0.80692 0.0
C829 C 0.63167 0.62592 0.81594 0.0
C830 C 0.61056 0.61187 0.77528 0.0
C831 C 0.61834 0.60298 0.72845 0.0
H832 H 0.06187 0.69157 0.092 0.0
H833 H 0.00864 0.60008 0.0402 0.0
H834 H 0.03318 0.67923 0.17433 0.0
H835 H 0.98007 0.588 0.12331 0.0
H836 H 0.92769 0.62079 0.26212 0.0
H837 H 0.95661 0.63675 0.18006 0.0
H838 H 0.01837 0.61222 0.24424 0.0
H839 H 0.98967 0.59664 0.32771 0.0
C840 C 0.04369 0.66897 0.0975 0.0
C841 C 0.03768 0.6467 0.05947 0.0
C842 C 0.02754 0.66197 0.14488 0.0
C843 C 0.00502 0.6327 0.15496 0.0
C844 C -0.00226 0.61069 0.1162 0.0
C845 C 0.01391 0.61766 0.06866 0.0
C846 C 0.94786 0.61947 0.25962 0.0
C847 C 0.95631 0.60711 0.30134 0.0
C848 C 0.96412 0.62831 0.21236 0.0
C849 C 0.98918 0.62515 0.20609 0.0
C850 C -0.00126 0.61439 0.2484 0.0
C851 C 0.98243 0.60553 0.29587 0.0
H852 H 0.54951 0.16042 0.37181 0.0
H853 H 0.48114 0.07593 0.43358 0.0
H854 H 0.58328 0.16352 0.44378 0.0
H855 H 0.51489 0.07832 0.5037 0.0
H856 H 0.59935 0.07983 0.57069 0.0
H857 H 0.56848 0.08038 0.49771 0.0
H858 H 0.5793 0.1636 0.55549 0.0
H859 H 0.60987 0.16261 0.6298 0.0
C860 C 0.54203 0.14239 0.40029 0.0
C861 C 0.51333 0.11746 0.39663 0.0
C862 C 0.56109 0.14424 0.44142 0.0
C863 C 0.5516 0.12105 0.47878 0.0
C864 C 0.52277 0.0963 0.47502 0.0
C865 C 0.50365 0.09478 0.43477 0.0
C866 C 0.595 0.09817 0.56774 0.0
C867 C 0.60623 0.12085 0.60596 0.0
C868 C 0.57753 0.09853 0.52608 0.0
C869 C 0.5716 0.122 0.52131 0.0
C870 C 0.5837 0.14533 0.55857 0.0
C871 C 0.60089 0.14469 0.60099 0.0
H872 H 0.41732 0.54363 0.68705 0.0
H873 H 0.36251 0.47974 0.807 0.0
H874 H 0.44862 0.57765 0.7568 0.0
H875 H 0.39406 0.51294 0.87601 0.0
H876 H 0.44332 0.58735 0.99396 0.0
H877 H 0.40925 0.5573 0.92284 0.0
H878 H 0.4847 0.5821 0.81878 0.0
H879 H 0.51812 0.61337 0.88867 0.0
C880 C 0.41189 0.53693 0.72822 0.0
C881 C 0.3875 0.50899 0.74141 0.0
C882 C 0.42992 0.55628 0.76822 0.0
C883 C 0.42396 0.548 0.82218 0.0
C884 C 0.3991 0.52035 0.83513 0.0
C885 C 0.38104 0.50119 0.79532 0.0
C886 C 0.45234 0.58643 0.95559 0.0
C887 C 0.48307 0.60285 0.94615 0.0
C888 C 0.43298 0.56917 0.91496 0.0
C889 C 0.4442 0.56744 0.86477 0.0
C890 C 0.47515 0.58358 0.85616 0.0
C891 C 0.49432 0.60134 0.89624 0.0
H892 H 0.87721 0.42634 0.01482 0.0
H893 H 0.86822 0.36266 0.13462 0.0
H894 H 0.87566 0.45852 0.08404 0.0
H895 H 0.86863 0.39526 0.20363 0.0
H896 H 0.84725 0.44819 0.31842 0.0
H897 H 0.84306 0.41466 0.24659 0.0
H898 H 0.90389 0.4907 0.15122 0.0
H899 H 0.90602 0.52383 0.22149 0.0
C900 C 0.87481 0.41923 0.05592 0.0
C901 C 0.87246 0.39188 0.06925 0.0
C902 C 0.87426 0.43777 0.09574 0.0
C903 C 0.87201 0.42959 0.14977 0.0
C904 C 0.86958 0.4021 0.16268 0.0
C905 C 0.86948 0.38338 0.12295 0.0
C906 C 0.85933 0.45752 0.2817 0.0
C907 C 0.87657 0.48842 0.27492 0.0
C908 C 0.85723 0.43841 0.24065 0.0
C909 C 0.87307 0.44988 0.19267 0.0
C910 C 0.89064 0.48095 0.18665 0.0
C911 C 0.89205 0.49999 0.22705 0.0
H912 H 0.51597 0.90835 0.44727 0.0
H913 H 0.44036 0.83657 0.36833 0.0
H914 H 0.48397 0.90695 0.51956 0.0
H915 H 0.4081 0.83368 0.44218 0.0
H916 H 0.35534 0.86236 0.54768 0.0
H917 H 0.38641 0.85966 0.47886 0.0
H918 H 0.45586 0.88032 0.59422 0.0
H919 H 0.42481 0.8841 0.66342 0.0
C920 C 0.49239 0.892 0.44604 0.0
C921 C 0.48036 0.8727 0.40257 0.0
C922 C 0.47409 0.89093 0.48765 0.0
C923 C 0.44339 0.87006 0.48713 0.0
C924 C 0.43153 0.85037 0.4436 0.0
C925 C 0.44987 0.85184 0.40142 0.0
C926 C 0.37709 0.86599 0.55878 0.0
C927 C 0.38764 0.87367 0.61119 0.0
C928 C 0.39493 0.86428 0.51908 0.0
C929 C 0.42375 0.86983 0.53066 0.0
C930 C 0.43397 0.87643 0.58355 0.0
C931 C 0.41612 0.87839 0.62338 0.0
H932 H 0.62329 0.51639 0.80374 0.0
H933 H 0.58349 0.4457 0.6881 0.0
H934 H 0.59131 0.48271 0.87265 0.0
H935 H 0.55258 0.411 0.75784 0.0
H936 H 0.47759 0.3676 0.87955 0.0
H937 H 0.51141 0.39931 0.81052 0.0
H938 H 0.58123 0.44287 0.92774 0.0
H939 H 0.54635 0.41214 0.99734 0.0
C940 C 0.60814 0.4933 0.79352 0.0
C941 C 0.60591 0.48345 0.74091 0.0
C942 C 0.58988 0.4739 0.83307 0.0
C943 C 0.56943 0.44396 0.82118 0.0
C944 C 0.56773 0.43399 0.76845 0.0
C945 C 0.58558 0.45368 0.72853 0.0
C946 C 0.50032 0.38375 0.8903 0.0
C947 C 0.50953 0.38745 0.94352 0.0
C948 C 0.5198 0.40187 0.85069 0.0
C949 C 0.54921 0.42368 0.86323 0.0
C950 C 0.55863 0.42669 0.91658 0.0
C951 C 0.53884 0.40895 0.95646 0.0
H952 H 0.12033 0.54721 0.3316 0.0
H953 H 0.12561 0.49044 0.21163 0.0
H954 H 0.12255 0.58124 0.26207 0.0
H955 H 0.12681 0.52357 0.14259 0.0
H956 H 0.08961 0.61373 0.12305 0.0
H957 H 0.09171 0.58271 0.19376 0.0
H958 H 0.15542 0.5706 0.10168 0.0
H959 H 0.15167 0.60037 0.02955 0.0
C960 C 0.12216 0.54214 0.29048 0.0
C961 C 0.12291 0.51627 0.27713 0.0
C962 C 0.1232 0.56145 0.25059 0.0
C963 C 0.12484 0.55513 0.19662 0.0
C964 C 0.12617 0.52951 0.18363 0.0
C965 C 0.12541 0.51044 0.22336 0.0
C966 C 0.10423 0.60455 0.11843 0.0
C967 C 0.12077 0.6095 0.07164 0.0
C968 C 0.10559 0.58697 0.15894 0.0
C969 C 0.12403 0.57444 0.15381 0.0
C970 C 0.14077 0.57966 0.10674 0.0
C971 C 0.13887 0.5968 0.06563 0.0
loop_
_geom_bond_atom_site_label_1
_geom_bond_atom_site_label_2
_geom_bond_distance
_geom_bond_site_symmetry_2
_ccdc_geom_bond_type
O0 Mn1 2.163 . S
O0 C14 1.244 . S
Mn1 O0 2.163 . S
Mn1 O4 2.160 . S
Mn1 O5 2.221 . S
Mn1 O7 2.163 . S
Mn1 O9 2.160 . S
Mn1 O19 2.221 . S
O2 Mn3 2.087 . S
O2 C14 1.256 . S
Mn3 O2 2.087 . S
Mn3 O10 2.089 . S
Mn3 O19 2.290 . S
Mn3 O20 2.251 . S
O4 Mn1 2.160 . S
O4 C15 1.239 . S
O5 Mn1 2.221 . S
O5 Mn6 2.290 . S
O5 C16 1.278 . S
Mn6 O5 2.290 . S
Mn6 O8 2.089 . S
Mn6 O11 2.251 . S
Mn6 O12 2.087 . S
O7 Mn1 2.163 . S
O7 C17 1.244 . S
O8 Mn6 2.089 . S
O8 C15 1.256 . S
O9 Mn1 2.160 . S
O9 C18 1.239 . S
O10 Mn3 2.089 . S
O10 C18 1.256 . S
O11 Mn6 2.251 . S
O11 C16 1.241 . S
O12 Mn6 2.087 . S
O12 C17 1.256 . S
C13 O19 1.278 . S
C13 O20 1.241 . S
C14 O0 1.244 . S
C14 O2 1.256 . S
C15 O4 1.239 . S
C15 O8 1.256 . S
C16 O5 1.278 . S
C16 O11 1.241 . S
C17 O7 1.244 . S
C17 O12 1.256 . S
C18 O9 1.239 . S
C18 O10 1.256 . S
O19 Mn1 2.221 . S
O19 Mn3 2.290 . S
O19 C13 1.278 . S
O20 Mn3 2.251 . S
O20 C13 1.241 . S
O21 Mn22 2.163 . S
O21 C35 1.244 . S
Mn22 O21 2.163 . S
Mn22 O25 2.160 . S
Mn22 O26 2.221 . S
Mn22 O28 2.163 . S
Mn22 O30 2.160 . S
Mn22 O40 2.221 . S
O23 Mn24 2.087 . S
O23 C35 1.256 . S
Mn24 O23 2.087 . S
Mn24 O31 2.089 . S
Mn24 O40 2.290 . S
Mn24 O41 2.251 . S
O25 Mn22 2.160 . S
O25 C36 1.239 . S
O26 Mn22 2.221 . S
O26 Mn27 2.290 . S
O26 C37 1.278 . S
Mn27 O26 2.290 . S
Mn27 O29 2.089 . S
Mn27 O32 2.251 . S
Mn27 O33 2.087 . S
O28 Mn22 2.163 . S
O28 C38 1.244 . S
O29 Mn27 2.089 . S
O29 C36 1.256 . S
O30 Mn22 2.160 . S
O30 C39 1.239 . S
O31 Mn24 2.089 . S
O31 C39 1.256 . S
O32 Mn27 2.251 . S
O32 C37 1.241 . S
O33 Mn27 2.087 . S
O33 C38 1.256 . S
C34 O40 1.278 . S
C34 O41 1.241 . S
C35 O21 1.244 . S
C35 O23 1.256 . S
C36 O25 1.239 . S
C36 O29 1.256 . S
C37 O26 1.278 . S
C37 O32 1.241 . S
C38 O28 1.244 . S
C38 O33 1.256 . S
C39 O30 1.239 . S
C39 O31 1.256 . S
O40 Mn22 2.221 . S
O40 Mn24 2.290 . S
O40 C34 1.278 . S
O41 Mn24 2.251 . S
O41 C34 1.241 . S
O42 Mn43 2.163 . S
O42 C56 1.244 1_556 S
Mn43 O42 2.163 . S
Mn43 O46 2.160 . S
Mn43 O47 2.221 . S
Mn43 O49 2.163 . S
Mn43 O51 2.160 . S
Mn43 O61 2.221 . S
O44 Mn45 2.087 . S
O44 C56 1.256 . S
Mn45 O44 2.087 . S
Mn45 O52 2.089 . S
Mn45 O61 2.290 1_554 S
Mn45 O62 2.251 1_554 S
O46 Mn43 2.160 . S
O46 C57 1.239 . S
O47 Mn43 2.221 . S
O47 Mn48 2.290 . S
O47 C58 1.278 . S
Mn48 O47 2.290 . S
Mn48 O50 2.089 . S
Mn48 O53 2.251 . S
Mn48 O54 2.087 . S
O49 Mn43 2.163 . S
O49 C59 1.244 . S
O50 Mn48 2.089 . S
O50 C57 1.256 . S
O51 Mn43 2.160 . S
O51 C60 1.239 1_556 S
O52 Mn45 2.089 . S
O52 C60 1.256 . S
O53 Mn48 2.251 . S
O53 C58 1.241 . S
O54 Mn48 2.087 . S
O54 C59 1.256 . S
C55 O61 1.278 . S
C55 O62 1.241 . S
C56 O42 1.244 1_554 S
C56 O44 1.256 . S
C57 O46 1.239 . S
C57 O50 1.256 . S
C58 O47 1.278 . S
C58 O53 1.241 . S
C59 O49 1.244 . S
C59 O54 1.256 . S
C60 O51 1.239 1_554 S
C60 O52 1.256 . S
O61 Mn43 2.221 . S
O61 Mn45 2.290 1_556 S
O61 C55 1.278 . S
O62 Mn45 2.251 1_556 S
O62 C55 1.241 . S
O63 Mn64 2.163 . S
O63 C77 1.244 . S
Mn64 O63 2.163 . S
Mn64 O67 2.160 . S
Mn64 O68 2.221 . S
Mn64 O70 2.163 . S
Mn64 O72 2.160 . S
Mn64 O82 2.221 . S
O65 Mn66 2.087 . S
O65 C77 1.256 . S
Mn66 O65 2.087 . S
Mn66 O73 2.089 . S
Mn66 O82 2.290 . S
Mn66 O83 2.251 . S
O67 Mn64 2.160 . S
O67 C78 1.239 . S
O68 Mn64 2.221 . S
O68 Mn69 2.290 . S
O68 C79 1.278 . S
Mn69 O68 2.290 . S
Mn69 O71 2.089 . S
Mn69 O74 2.251 . S
Mn69 O75 2.087 . S
O70 Mn64 2.163 . S
O70 C80 1.244 . S
O71 Mn69 2.089 . S
O71 C78 1.256 . S
O72 Mn64 2.160 . S
O72 C81 1.239 . S
O73 Mn66 2.089 . S
O73 C81 1.256 . S
O74 Mn69 2.251 . S
O74 C79 1.241 . S
O75 Mn69 2.087 . S
O75 C80 1.256 . S
C76 O82 1.278 . S
C76 O83 1.241 . S
C77 O63 1.244 . S
C77 O65 1.256 . S
C78 O67 1.239 . S
C78 O71 1.256 . S
C79 O68 1.278 . S
C79 O74 1.241 . S
C80 O70 1.244 . S
C80 O75 1.256 . S
C81 O72 1.239 . S
C81 O73 1.256 . S
O82 Mn64 2.221 . S
O82 Mn66 2.290 . S
O82 C76 1.278 . S
O83 Mn66 2.251 . S
O83 C76 1.241 . S
O84 Mn85 2.163 . S
O84 C98 1.244 . S
Mn85 O84 2.163 . S
Mn85 O88 2.160 . S
Mn85 O89 2.221 . S
Mn85 O91 2.163 . S
Mn85 O93 2.160 . S
Mn85 O103 2.221 . S
O86 Mn87 2.087 . S
O86 C98 1.256 . S
Mn87 O86 2.087 . S
Mn87 O94 2.089 . S
Mn87 O103 2.290 . S
Mn87 O104 2.251 . S
O88 Mn85 2.160 . S
O88 C99 1.239 . S
O89 Mn85 2.221 . S
O89 Mn90 2.290 . S
O89 C100 1.278 . S
Mn90 O89 2.290 . S
Mn90 O92 2.089 . S
Mn90 O95 2.251 . S
Mn90 O96 2.087 . S
O91 Mn85 2.163 . S
O91 C101 1.244 . S
O92 Mn90 2.089 . S
O92 C99 1.256 . S
O93 Mn85 2.160 . S
O93 C102 1.239 . S
O94 Mn87 2.089 . S
O94 C102 1.256 . S
O95 Mn90 2.251 . S
O95 C100 1.241 . S
O96 Mn90 2.087 . S
O96 C101 1.256 . S
C97 O103 1.278 . S
C97 O104 1.241 . S
C98 O84 1.244 . S
C98 O86 1.256 . S
C99 O88 1.239 . S
C99 O92 1.256 . S
C100 O89 1.278 . S
C100 O95 1.241 . S
C101 O91 1.244 . S
C101 O96 1.256 . S
C102 O93 1.239 . S
C102 O94 1.256 . S
O103 Mn85 2.221 . S
O103 Mn87 2.290 . S
O103 C97 1.278 . S
O104 Mn87 2.251 . S
O104 C97 1.241 . S
O105 Mn106 2.163 . S
O105 C119 1.244 1_556 S
Mn106 O105 2.163 . S
Mn106 O109 2.160 . S
Mn106 O110 2.221 . S
Mn106 O112 2.163 . S
Mn106 O114 2.160 . S
Mn106 O124 2.221 . S
O107 Mn108 2.087 . S
O107 C119 1.256 . S
Mn108 O107 2.087 . S
Mn108 O115 2.089 . S
Mn108 O124 2.290 1_554 S
Mn108 O125 2.251 1_554 S
O109 Mn106 2.160 . S
O109 C120 1.239 . S
O110 Mn106 2.221 . S
O110 Mn111 2.290 . S
O110 C121 1.278 . S
Mn111 O110 2.290 . S
Mn111 O113 2.089 . S
Mn111 O116 2.251 . S
Mn111 O117 2.087 . S
O112 Mn106 2.163 . S
O112 C122 1.244 . S
O113 Mn111 2.089 . S
O113 C120 1.256 . S
O114 Mn106 2.160 . S
O114 C123 1.239 1_556 S
O115 Mn108 2.089 . S
O115 C123 1.256 . S
O116 Mn111 2.251 . S
O116 C121 1.241 . S
O117 Mn111 2.087 . S
O117 C122 1.256 . S
C118 O124 1.278 . S
C118 O125 1.241 . S
C119 O105 1.244 1_554 S
C119 O107 1.256 . S
C120 O109 1.239 . S
C120 O113 1.256 . S
C121 O110 1.278 . S
C121 O116 1.241 . S
C122 O112 1.244 . S
C122 O117 1.256 . S
C123 O114 1.239 1_554 S
C123 O115 1.256 . S
O124 Mn106 2.221 . S
O124 Mn108 2.290 1_556 S
O124 C118 1.278 . S
O125 Mn108 2.251 1_556 S
O125 C118 1.241 . S
O126 Mn127 2.163 . S
O126 C140 1.244 . S
Mn127 O126 2.163 . S
Mn127 O130 2.160 . S
Mn127 O131 2.221 . S
Mn127 O133 2.163 . S
Mn127 O135 2.160 . S
Mn127 O145 2.221 . S
O128 Mn129 2.087 . S
O128 C140 1.256 . S
Mn129 O128 2.087 . S
Mn129 O136 2.089 . S
Mn129 O145 2.290 . S
Mn129 O146 2.251 . S
O130 Mn127 2.160 . S
O130 C141 1.239 . S
O131 Mn127 2.221 . S
O131 Mn132 2.290 . S
O131 C142 1.278 . S
Mn132 O131 2.290 . S
Mn132 O134 2.089 . S
Mn132 O137 2.251 . S
Mn132 O138 2.087 . S
O133 Mn127 2.163 . S
O133 C143 1.244 . S
O134 Mn132 2.089 . S
O134 C141 1.256 . S
O135 Mn127 2.160 . S
O135 C144 1.239 . S
O136 Mn129 2.089 . S
O136 C144 1.256 . S
O137 Mn132 2.251 . S
O137 C142 1.241 . S
O138 Mn132 2.087 . S
O138 C143 1.256 . S
C139 O145 1.278 . S
C139 O146 1.241 . S
C140 O126 1.244 . S
C140 O128 1.256 . S
C141 O130 1.239 . S
C141 O134 1.256 . S
C142 O131 1.278 . S
C142 O137 1.241 . S
C143 O133 1.244 . S
C143 O138 1.256 . S
C144 O135 1.239 . S
C144 O136 1.256 . S
O145 Mn127 2.221 . S
O145 Mn129 2.290 . S
O145 C139 1.278 . S
O146 Mn129 2.251 . S
O146 C139 1.241 . S
O147 Mn148 2.163 . S
O147 C161 1.244 . S
Mn148 O147 2.163 . S
Mn148 O151 2.160 . S
Mn148 O152 2.221 . S
Mn148 O154 2.163 . S
Mn148 O156 2.160 . S
Mn148 O166 2.221 . S
O149 Mn150 2.087 . S
O149 C161 1.256 . S
Mn150 O149 2.087 . S
Mn150 O157 2.089 . S
Mn150 O166 2.290 . S
Mn150 O167 2.251 . S
O151 Mn148 2.160 . S
O151 C162 1.239 . S
O152 Mn148 2.221 . S
O152 Mn153 2.290 . S
O152 C163 1.278 . S
Mn153 O152 2.290 . S
Mn153 O155 2.089 . S
Mn153 O158 2.251 . S
Mn153 O159 2.087 . S
O154 Mn148 2.163 . S
O154 C164 1.244 . S
O155 Mn153 2.089 . S
O155 C162 1.256 . S
O156 Mn148 2.160 . S
O156 C165 1.239 . S
O157 Mn150 2.089 . S
O157 C165 1.256 . S
O158 Mn153 2.251 . S
O158 C163 1.241 . S
O159 Mn153 2.087 . S
O159 C164 1.256 . S
C160 O166 1.278 . S
C160 O167 1.241 . S
C161 O147 1.244 . S
C161 O149 1.256 . S
C162 O151 1.239 . S
C162 O155 1.256 . S
C163 O152 1.278 . S
C163 O158 1.241 . S
C164 O154 1.244 . S
C164 O159 1.256 . S
C165 O156 1.239 . S
C165 O157 1.256 . S
O166 Mn148 2.221 . S
O166 Mn150 2.290 . S
O166 C160 1.278 . S
O167 Mn150 2.251 . S
O167 C160 1.241 . S
O168 Mn169 2.163 . S
O168 C182 1.244 1_554 S
Mn169 O168 2.163 . S
Mn169 O172 2.160 . S
Mn169 O173 2.221 . S
Mn169 O175 2.163 . S
Mn169 O177 2.160 . S
Mn169 O187 2.221 . S
O170 Mn171 2.087 . S
O170 C182 1.256 . S
Mn171 O170 2.087 . S
Mn171 O178 2.089 . S
Mn171 O187 2.290 1_556 S
Mn171 O188 2.251 1_556 S
O172 Mn169 2.160 . S
O172 C183 1.239 . S
O173 Mn169 2.221 . S
O173 Mn174 2.290 . S
O173 C184 1.278 . S
Mn174 O173 2.290 . S
Mn174 O176 2.089 . S
Mn174 O179 2.251 . S
Mn174 O180 2.087 . S
O175 Mn169 2.163 . S
O175 C185 1.244 . S
O176 Mn174 2.089 . S
O176 C183 1.256 . S
O177 Mn169 2.160 . S
O177 C186 1.239 1_554 S
O178 Mn171 2.089 . S
O178 C186 1.256 . S
O179 Mn174 2.251 . S
O179 C184 1.241 . S
O180 Mn174 2.087 . S
O180 C185 1.256 . S
C181 O187 1.278 . S
C181 O188 1.241 . S
C182 O168 1.244 1_556 S
C182 O170 1.256 . S
C183 O172 1.239 . S
C183 O176 1.256 . S
C184 O173 1.278 . S
C184 O179 1.241 . S
C185 O175 1.244 . S
C185 O180 1.256 . S
C186 O177 1.239 1_556 S
C186 O178 1.256 . S
O187 Mn169 2.221 . S
O187 Mn171 2.290 1_554 S
O187 C181 1.278 . S
O188 Mn171 2.251 1_554 S
O188 C181 1.241 . S
O189 Mn190 2.163 . S
O189 C203 1.244 . S
Mn190 O189 2.163 . S
Mn190 O193 2.160 . S
Mn190 O194 2.221 . S
Mn190 O196 2.163 . S
Mn190 O198 2.160 . S
Mn190 O208 2.221 . S
O191 Mn192 2.087 . S
O191 C203 1.256 . S
Mn192 O191 2.087 . S
Mn192 O199 2.089 . S
Mn192 O208 2.290 . S
Mn192 O209 2.251 . S
O193 Mn190 2.160 . S
O193 C204 1.239 . S
O194 Mn190 2.221 . S
O194 Mn195 2.290 . S
O194 C205 1.278 . S
Mn195 O194 2.290 . S
Mn195 O197 2.089 . S
Mn195 O200 2.251 . S
Mn195 O201 2.087 . S
O196 Mn190 2.163 . S
O196 C206 1.244 . S
O197 Mn195 2.089 . S
O197 C204 1.256 . S
O198 Mn190 2.160 . S
O198 C207 1.239 . S
O199 Mn192 2.089 . S
O199 C207 1.256 . S
O200 Mn195 2.251 . S
O200 C205 1.241 . S
O201 Mn195 2.087 . S
O201 C206 1.256 . S
C202 O208 1.278 . S
C202 O209 1.241 . S
C203 O189 1.244 . S
C203 O191 1.256 . S
C204 O193 1.239 . S
C204 O197 1.256 . S
C205 O194 1.278 . S
C205 O200 1.241 . S
C206 O196 1.244 . S
C206 O201 1.256 . S
C207 O198 1.239 . S
C207 O199 1.256 . S
O208 Mn190 2.221 . S
O208 Mn192 2.290 . S
O208 C202 1.278 . S
O209 Mn192 2.251 . S
O209 C202 1.241 . S
O210 Mn211 2.163 . S
O210 C224 1.244 . S
Mn211 O210 2.163 . S
Mn211 O214 2.160 . S
Mn211 O215 2.221 . S
Mn211 O217 2.163 . S
Mn211 O219 2.160 . S
Mn211 O229 2.221 . S
O212 Mn213 2.087 . S
O212 C224 1.256 . S
Mn213 O212 2.087 . S
Mn213 O220 2.089 . S
Mn213 O229 2.290 . S
Mn213 O230 2.251 . S
O214 Mn211 2.160 . S
O214 C225 1.239 . S
O215 Mn211 2.221 . S
O215 Mn216 2.290 . S
O215 C226 1.278 . S
Mn216 O215 2.290 . S
Mn216 O218 2.089 . S
Mn216 O221 2.251 . S
Mn216 O222 2.087 . S
O217 Mn211 2.163 . S
O217 C227 1.244 . S
O218 Mn216 2.089 . S
O218 C225 1.256 . S
O219 Mn211 2.160 . S
O219 C228 1.239 . S
O220 Mn213 2.089 . S
O220 C228 1.256 . S
O221 Mn216 2.251 . S
O221 C226 1.241 . S
O222 Mn216 2.087 . S
O222 C227 1.256 . S
C223 O229 1.278 . S
C223 O230 1.241 . S
C224 O210 1.244 . S
C224 O212 1.256 . S
C225 O214 1.239 . S
C225 O218 1.256 . S
C226 O215 1.278 . S
C226 O221 1.241 . S
C227 O217 1.244 . S
C227 O222 1.256 . S
C228 O219 1.239 . S
C228 O220 1.256 . S
O229 Mn211 2.221 . S
O229 Mn213 2.290 . S
O229 C223 1.278 . S
O230 Mn213 2.251 . S
O230 C223 1.241 . S
O231 Mn232 2.163 . S
O231 C245 1.244 1_554 S
Mn232 O231 2.163 . S
Mn232 O235 2.160 . S
Mn232 O236 2.221 . S
Mn232 O238 2.163 . S
Mn232 O240 2.160 . S
Mn232 O250 2.221 . S
O233 Mn234 2.087 . S
O233 C245 1.256 . S
Mn234 O233 2.087 . S
Mn234 O241 2.089 . S
Mn234 O250 2.290 1_556 S
Mn234 O251 2.251 1_556 S
O235 Mn232 2.160 . S
O235 C246 1.239 . S
O236 Mn232 2.221 . S
O236 Mn237 2.290 . S
O236 C247 1.278 . S
Mn237 O236 2.290 . S
Mn237 O239 2.089 . S
Mn237 O242 2.251 . S
Mn237 O243 2.087 . S
O238 Mn232 2.163 . S
O238 C248 1.244 . S
O239 Mn237 2.089 . S
O239 C246 1.256 . S
O240 Mn232 2.160 . S
O240 C249 1.239 1_554 S
O241 Mn234 2.089 . S
O241 C249 1.256 . S
O242 Mn237 2.251 . S
O242 C247 1.241 . S
O243 Mn237 2.087 . S
O243 C248 1.256 . S
C244 O250 1.278 . S
C244 O251 1.241 . S
C245 O231 1.244 1_556 S
C245 O233 1.256 . S
C246 O235 1.239 . S
C246 O239 1.256 . S
C247 O236 1.278 . S
C247 O242 1.241 . S
C248 O238 1.244 . S
C248 O243 1.256 . S
C249 O240 1.239 1_556 S
C249 O241 1.256 . S
O250 Mn232 2.221 . S
O250 Mn234 2.290 1_554 S
O250 C244 1.278 . S
O251 Mn234 2.251 1_554 S
O251 C244 1.241 . S
H252 C260 0.950 . S
H253 C265 0.950 . S
H254 C262 0.950 . S
H255 C264 0.950 . S
H256 C266 0.950 . S
H257 C268 0.950 . S
H258 C270 0.950 . S
H259 C271 0.950 . S
C260 H252 0.950 . S
C260 C261 1.386 . S
C260 C262 1.391 . S
C261 C260 1.386 . S
C261 C265 1.393 . S
C262 H254 0.950 . S
C262 C260 1.391 . S
C262 C263 1.400 . S
C263 C262 1.400 . S
C263 C264 1.398 . S
C263 C269 1.491 . S
C264 H255 0.950 . S
C264 C263 1.398 . S
C264 C265 1.391 . S
C265 H253 0.950 . S
C265 C261 1.393 . S
C265 C264 1.391 . S
C266 H256 0.950 . S
C266 C267 1.386 . S
C266 C268 1.391 . S
C267 C266 1.386 . S
C267 C271 1.393 . S
C268 H257 0.950 . S
C268 C266 1.391 . S
C268 C269 1.400 . S
C269 C263 1.491 . S
C269 C268 1.400 . S
C269 C270 1.398 . S
C270 H258 0.950 . S
C270 C269 1.398 . S
C270 C271 1.391 . S
C271 H259 0.950 . S
C271 C267 1.393 . S
C271 C270 1.391 . S
H272 C280 0.950 . S
H273 C285 0.950 . S
H274 C282 0.950 . S
H275 C284 0.950 . S
H276 C286 0.950 . S
H277 C288 0.950 . S
H278 C290 0.950 . S
H279 C291 0.950 . S
C280 H272 0.950 . S
C280 C281 1.386 . S
C280 C282 1.391 . S
C281 C280 1.386 . S
C281 C285 1.393 . S
C282 H274 0.950 . S
C282 C280 1.391 . S
C282 C283 1.400 . S
C283 C282 1.400 . S
C283 C284 1.398 . S
C283 C289 1.491 . S
C284 H275 0.950 . S
C284 C283 1.398 . S
C284 C285 1.391 . S
C285 H273 0.950 . S
C285 C281 1.393 . S
C285 C284 1.391 . S
C286 H276 0.950 . S
C286 C287 1.386 . S
C286 C288 1.391 . S
C287 C286 1.386 . S
C287 C291 1.393 . S
C288 H277 0.950 . S
C288 C286 1.391 . S
C288 C289 1.400 . S
C289 C283 1.491 . S
C289 C288 1.400 . S
C289 C290 1.398 . S
C290 H278 0.950 . S
C290 C289 1.398 . S
C290 C291 1.391 . S
C291 H279 0.950 . S
C291 C287 1.393 . S
C291 C290 1.391 . S
H292 C300 0.950 . S
H293 C305 0.950 . S
H294 C302 0.950 . S
H295 C304 0.950 . S
H296 C306 0.950 . S
H297 C308 0.950 . S
H298 C310 0.950 . S
H299 C311 0.950 . S
C300 H292 0.950 . S
C300 C301 1.386 . S
C300 C302 1.391 . S
C301 C300 1.386 . S
C301 C305 1.393 . S
C302 H294 0.950 . S
C302 C300 1.391 . S
C302 C303 1.400 . S
C303 C302 1.400 . S
C303 C304 1.398 . S
C303 C309 1.491 . S
C304 H295 0.950 . S
C304 C303 1.398 . S
C304 C305 1.391 . S
C305 H293 0.950 . S
C305 C301 1.393 . S
C305 C304 1.391 . S
C306 H296 0.950 . S
C306 C307 1.386 . S
C306 C308 1.391 . S
C307 C306 1.386 . S
C307 C311 1.393 . S
C308 H297 0.950 . S
C308 C306 1.391 . S
C308 C309 1.400 . S
C309 C303 1.491 . S
C309 C308 1.400 . S
C309 C310 1.398 . S
C310 H298 0.950 . S
C310 C309 1.398 . S
C310 C311 1.391 . S
C311 H299 0.950 . S
C311 C307 1.393 . S
C311 C310 1.391 . S
H312 C320 0.950 . S
H313 C325 0.950 . S
H314 C322 0.950 . S
H315 C324 0.950 . S
H316 C326 0.950 . S
H317 C328 0.950 . S
H318 C330 0.950 . S
H319 C331 0.950 . S
C320 H312 0.950 . S
C320 C321 1.386 . S
C320 C322 1.391 . S
C321 C320 1.386 . S
C321 C325 1.393 . S
C322 H314 0.950 . S
C322 C320 1.391 . S
C322 C323 1.400 . S
C323 C322 1.400 . S
C323 C324 1.398 . S
C323 C329 1.491 . S
C324 H315 0.950 . S
C324 C323 1.398 . S
C324 C325 1.391 . S
C325 H313 0.950 . S
C325 C321 1.393 . S
C325 C324 1.391 . S
C326 H316 0.950 . S
C326 C327 1.386 . S
C326 C328 1.391 . S
C327 C326 1.386 . S
C327 C331 1.393 . S
C328 H317 0.950 . S
C328 C326 1.391 . S
C328 C329 1.400 . S
C329 C323 1.491 . S
C329 C328 1.400 . S
C329 C330 1.398 . S
C330 H318 0.950 . S
C330 C329 1.398 . S
C330 C331 1.391 . S
C331 H319 0.950 . S
C331 C327 1.393 . S
C331 C330 1.391 . S
H332 C340 0.950 . S
H333 C345 0.950 . S
H334 C342 0.950 . S
H335 C344 0.950 . S
H336 C346 0.950 . S
H337 C348 0.950 . S
H338 C350 0.950 . S
H339 C351 0.950 . S
C340 H332 0.950 . S
C340 C341 1.386 . S
C340 C342 1.391 . S
C341 C340 1.386 . S
C341 C345 1.393 . S
C342 H334 0.950 . S
C342 C340 1.391 . S
C342 C343 1.400 . S
C343 C342 1.400 . S
C343 C344 1.398 . S
C343 C349 1.491 . S
C344 H335 0.950 . S
C344 C343 1.398 . S
C344 C345 1.391 . S
C345 H333 0.950 . S
C345 C341 1.393 . S
C345 C344 1.391 . S
C346 H336 0.950 . S
C346 C347 1.386 . S
C346 C348 1.391 . S
C347 C346 1.386 . S
C347 C351 1.393 . S
C348 H337 0.950 . S
C348 C346 1.391 . S
C348 C349 1.400 . S
C349 C343 1.491 . S
C349 C348 1.400 . S
C349 C350 1.398 . S
C350 H338 0.950 . S
C350 C349 1.398 . S
C350 C351 1.391 . S
C351 H339 0.950 . S
C351 C347 1.393 . S
C351 C350 1.391 . S
H352 C360 0.950 . S
H353 C365 0.950 . S
H354 C362 0.950 . S
H355 C364 0.950 . S
H356 C366 0.950 . S
H357 C368 0.950 . S
H358 C370 0.950 . S
H359 C371 0.950 . S
C360 H352 0.950 . S
C360 C361 1.386 . S
C360 C362 1.391 . S
C361 C360 1.386 . S
C361 C365 1.393 . S
C362 H354 0.950 . S
C362 C360 1.391 . S
C362 C363 1.400 . S
C363 C362 1.400 . S
C363 C364 1.398 . S
C363 C369 1.491 . S
C364 H355 0.950 . S
C364 C363 1.398 . S
C364 C365 1.391 . S
C365 H353 0.950 . S
C365 C361 1.393 . S
C365 C364 1.391 . S
C366 H356 0.950 . S
C366 C367 1.386 . S
C366 C368 1.391 . S
C367 C366 1.386 . S
C367 C371 1.393 . S
C368 H357 0.950 . S
C368 C366 1.391 . S
C368 C369 1.400 . S
C369 C363 1.491 . S
C369 C368 1.400 . S
C369 C370 1.398 . S
C370 H358 0.950 . S
C370 C369 1.398 . S
C370 C371 1.391 . S
C371 H359 0.950 . S
C371 C367 1.393 . S
C371 C370 1.391 . S
H372 C380 0.950 . S
H373 C385 0.950 . S
H374 C382 0.950 1_554 S
H375 C384 0.950 . S
H376 C386 0.950 . S
H377 C388 0.950 1_556 S
H378 C390 0.950 . S
H379 C391 0.950 . S
C380 H372 0.950 . S
C380 C381 1.386 . S
C380 C382 1.391 . S
C381 C380 1.386 . S
C381 C385 1.393 . S
C382 H374 0.950 1_556 S
C382 C380 1.391 . S
C382 C383 1.400 . S
C383 C382 1.400 . S
C383 C384 1.398 . S
C383 C389 1.491 1_556 S
C384 H375 0.950 . S
C384 C383 1.398 . S
C384 C385 1.391 . S
C385 H373 0.950 . S
C385 C381 1.393 . S
C385 C384 1.391 . S
C386 H376 0.950 . S
C386 C387 1.386 . S
C386 C388 1.391 . S
C387 C386 1.386 . S
C387 C391 1.393 . S
C388 H377 0.950 1_554 S
C388 C386 1.391 . S
C388 C389 1.400 . S
C389 C383 1.491 1_554 S
C389 C388 1.400 . S
C389 C390 1.398 . S
C390 H378 0.950 . S
C390 C389 1.398 . S
C390 C391 1.391 . S
C391 H379 0.950 . S
C391 C387 1.393 . S
C391 C390 1.391 . S
H392 C400 0.950 . S
H393 C405 0.950 . S
H394 C402 0.950 . S
H395 C404 0.950 . S
H396 C406 0.950 . S
H397 C408 0.950 . S
H398 C410 0.950 . S
H399 C411 0.950 . S
C400 H392 0.950 . S
C400 C401 1.386 . S
C400 C402 1.391 . S
C401 C400 1.386 . S
C401 C405 1.393 . S
C402 H394 0.950 . S
C402 C400 1.391 . S
C402 C403 1.400 . S
C403 C402 1.400 . S
C403 C404 1.398 . S
C403 C409 1.491 . S
C404 H395 0.950 . S
C404 C403 1.398 . S
C404 C405 1.391 . S
C405 H393 0.950 . S
C405 C401 1.393 . S
C405 C404 1.391 . S
C406 H396 0.950 . S
C406 C407 1.386 . S
C406 C408 1.391 . S
C407 C406 1.386 . S
C407 C411 1.393 . S
C408 H397 0.950 . S
C408 C406 1.391 . S
C408 C409 1.400 . S
C409 C403 1.491 . S
C409 C408 1.400 . S
C409 C410 1.398 . S
C410 H398 0.950 . S
C410 C409 1.398 . S
C410 C411 1.391 . S
C411 H399 0.950 . S
C411 C407 1.393 . S
C411 C410 1.391 . S
H412 C420 0.950 . S
H413 C425 0.950 . S
H414 C422 0.950 . S
H415 C424 0.950 . S
H416 C426 0.950 . S
H417 C428 0.950 . S
H418 C430 0.950 . S
H419 C431 0.950 . S
C420 H412 0.950 . S
C420 C421 1.386 . S
C420 C422 1.391 . S
C421 C420 1.386 . S
C421 C425 1.393 . S
C422 H414 0.950 . S
C422 C420 1.391 . S
C422 C423 1.400 . S
C423 C422 1.400 . S
C423 C424 1.398 . S
C423 C429 1.491 . S
C424 H415 0.950 . S
C424 C423 1.398 . S
C424 C425 1.391 . S
C425 H413 0.950 . S
C425 C421 1.393 . S
C425 C424 1.391 . S
C426 H416 0.950 . S
C426 C427 1.386 . S
C426 C428 1.391 . S
C427 C426 1.386 . S
C427 C431 1.393 . S
C428 H417 0.950 . S
C428 C426 1.391 . S
C428 C429 1.400 . S
C429 C423 1.491 . S
C429 C428 1.400 . S
C429 C430 1.398 . S
C430 H418 0.950 . S
C430 C429 1.398 . S
C430 C431 1.391 . S
C431 H419 0.950 . S
C431 C427 1.393 . S
C431 C430 1.391 . S
H432 C440 0.950 . S
H433 C445 0.950 . S
H434 C442 0.950 1_554 S
H435 C444 0.950 . S
H436 C446 0.950 . S
H437 C448 0.950 1_556 S
H438 C450 0.950 . S
H439 C451 0.950 . S
C440 H432 0.950 . S
C440 C441 1.386 . S
C440 C442 1.391 . S
C441 C440 1.386 . S
C441 C445 1.393 . S
C442 H434 0.950 1_556 S
C442 C440 1.391 . S
C442 C443 1.400 . S
C443 C442 1.400 . S
C443 C444 1.398 . S
C443 C449 1.491 1_556 S
C444 H435 0.950 . S
C444 C443 1.398 . S
C444 C445 1.391 . S
C445 H433 0.950 . S
C445 C441 1.393 . S
C445 C444 1.391 . S
C446 H436 0.950 . S
C446 C447 1.386 . S
C446 C448 1.391 . S
C447 C446 1.386 . S
C447 C451 1.393 . S
C448 H437 0.950 1_554 S
C448 C446 1.391 . S
C448 C449 1.400 . S
C449 C443 1.491 1_554 S
C449 C448 1.400 . S
C449 C450 1.398 . S
C450 H438 0.950 . S
C450 C449 1.398 . S
C450 C451 1.391 . S
C451 H439 0.950 . S
C451 C447 1.393 . S
C451 C450 1.391 . S
H452 C460 0.950 . S
H453 C465 0.950 . S
H454 C462 0.950 . S
H455 C464 0.950 . S
H456 C466 0.950 . S
H457 C468 0.950 . S
H458 C470 0.950 . S
H459 C471 0.950 . S
C460 H452 0.950 . S
C460 C461 1.386 . S
C460 C462 1.391 . S
C461 C460 1.386 . S
C461 C465 1.393 . S
C462 H454 0.950 . S
C462 C460 1.391 . S
C462 C463 1.400 . S
C463 C462 1.400 . S
C463 C464 1.398 . S
C463 C469 1.491 . S
C464 H455 0.950 . S
C464 C463 1.398 . S
C464 C465 1.391 . S
C465 H453 0.950 . S
C465 C461 1.393 . S
C465 C464 1.391 . S
C466 H456 0.950 . S
C466 C467 1.386 . S
C466 C468 1.391 . S
C467 C466 1.386 . S
C467 C471 1.393 . S
C468 H457 0.950 . S
C468 C466 1.391 . S
C468 C469 1.400 . S
C469 C463 1.491 . S
C469 C468 1.400 . S
C469 C470 1.398 . S
C470 H458 0.950 . S
C470 C469 1.398 . S
C470 C471 1.391 . S
C471 H459 0.950 . S
C471 C467 1.393 . S
C471 C470 1.391 . S
H472 C480 0.950 . S
H473 C485 0.950 . S
H474 C482 0.950 . S
H475 C484 0.950 . S
H476 C486 0.950 . S
H477 C488 0.950 . S
H478 C490 0.950 . S
H479 C491 0.950 . S
C480 H472 0.950 . S
C480 C481 1.386 . S
C480 C482 1.391 . S
C481 C480 1.386 . S
C481 C485 1.393 . S
C482 H474 0.950 . S
C482 C480 1.391 . S
C482 C483 1.400 . S
C483 C482 1.400 . S
C483 C484 1.398 . S
C483 C489 1.491 . S
C484 H475 0.950 . S
C484 C483 1.398 . S
C484 C485 1.391 . S
C485 H473 0.950 . S
C485 C481 1.393 . S
C485 C484 1.391 . S
C486 H476 0.950 . S
C486 C487 1.386 . S
C486 C488 1.391 . S
C487 C486 1.386 . S
C487 C491 1.393 . S
C488 H477 0.950 . S
C488 C486 1.391 . S
C488 C489 1.400 . S
C489 C483 1.491 . S
C489 C488 1.400 . S
C489 C490 1.398 . S
C490 H478 0.950 . S
C490 C489 1.398 . S
C490 C491 1.391 . S
C491 H479 0.950 . S
C491 C487 1.393 . S
C491 C490 1.391 . S
H492 C500 0.950 . S
H493 C505 0.950 . S
H494 C502 0.950 . S
H495 C504 0.950 1_554 S
H496 C506 0.950 . S
H497 C508 0.950 . S
H498 C510 0.950 1_556 S
H499 C511 0.950 . S
C500 H492 0.950 . S
C500 C501 1.386 . S
C500 C502 1.391 1_565 S
C501 C500 1.386 . S
C501 C505 1.393 . S
C502 H494 0.950 . S
C502 C500 1.391 1_545 S
C502 C503 1.400 1_545 S
C503 C502 1.400 1_565 S
C503 C504 1.398 . S
C503 C509 1.491 1_566 S
C504 H495 0.950 1_556 S
C504 C503 1.398 . S
C504 C505 1.391 . S
C505 H493 0.950 . S
C505 C501 1.393 . S
C505 C504 1.391 . S
C506 H496 0.950 . S
C506 C507 1.386 . S
C506 C508 1.391 1_545 S
C507 C506 1.386 . S
C507 C511 1.393 . S
C508 H497 0.950 . S
C508 C506 1.391 1_565 S
C508 C509 1.400 1_565 S
C509 C503 1.491 1_544 S
C509 C508 1.400 1_545 S
C509 C510 1.398 . S
C510 H498 0.950 1_554 S
C510 C509 1.398 . S
C510 C511 1.391 . S
C511 H499 0.950 . S
C511 C507 1.393 . S
C511 C510 1.391 . S
H512 C520 0.950 . S
H513 C525 0.950 . S
H514 C522 0.950 . S
H515 C524 0.950 . S
H516 C526 0.950 . S
H517 C528 0.950 . S
H518 C530 0.950 . S
H519 C531 0.950 . S
C520 H512 0.950 . S
C520 C521 1.386 . S
C520 C522 1.391 . S
C521 C520 1.386 . S
C521 C525 1.393 . S
C522 H514 0.950 . S
C522 C520 1.391 . S
C522 C523 1.400 . S
C523 C522 1.400 . S
C523 C524 1.398 . S
C523 C529 1.491 . S
C524 H515 0.950 . S
C524 C523 1.398 . S
C524 C525 1.391 . S
C525 H513 0.950 . S
C525 C521 1.393 . S
C525 C524 1.391 . S
C526 H516 0.950 . S
C526 C527 1.386 . S
C526 C528 1.391 . S
C527 C526 1.386 . S
C527 C531 1.393 . S
C528 H517 0.950 . S
C528 C526 1.391 . S
C528 C529 1.400 . S
C529 C523 1.491 . S
C529 C528 1.400 . S
C529 C530 1.398 . S
C530 H518 0.950 . S
C530 C529 1.398 . S
C530 C531 1.391 . S
C531 H519 0.950 . S
C531 C527 1.393 . S
C531 C530 1.391 . S
H532 C540 0.950 . S
H533 C545 0.950 . S
H534 C542 0.939 1_655 S
H535 C544 0.950 . S
H536 C546 0.950 . S
H537 C548 0.939 1_455 S
H538 C550 0.950 . S
H539 C551 0.950 . S
C540 H532 0.950 . S
C540 C541 1.386 . S
C540 C542 1.397 . S
C541 C540 1.386 . S
C541 C545 1.393 . S
C542 H534 0.939 1_455 S
C542 C540 1.397 . S
C542 C543 1.405 . S
C543 C542 1.405 . S
C543 C544 1.398 . S
C543 C549 1.491 1_455 S
C544 H535 0.950 . S
C544 C543 1.398 . S
C544 C545 1.391 . S
C545 H533 0.950 . S
C545 C541 1.393 . S
C545 C544 1.391 . S
C546 H536 0.950 . S
C546 C547 1.386 . S
C546 C548 1.397 . S
C547 C546 1.386 . S
C547 C551 1.393 . S
C548 H537 0.939 1_655 S
C548 C546 1.397 . S
C548 C549 1.405 . S
C549 C543 1.491 1_655 S
C549 C548 1.405 . S
C549 C550 1.398 . S
C550 H538 0.950 . S
C550 C549 1.398 . S
C550 C551 1.391 . S
C551 H539 0.950 . S
C551 C547 1.393 . S
C551 C550 1.391 . S
H552 C560 0.950 . S
H553 C565 0.950 . S
H554 C562 0.933 1_556 S
H555 C564 0.950 1_545 S
H556 C566 0.950 . S
H557 C568 0.933 1_554 S
H558 C570 0.950 1_565 S
H559 C571 0.950 . S
C560 H552 0.950 . S
C560 C561 1.386 . S
C560 C562 1.391 . S
C561 C560 1.386 . S
C561 C565 1.393 . S
C562 H554 0.933 1_554 S
C562 C560 1.391 . S
C562 C563 1.400 . S
C563 C562 1.400 . S
C563 C564 1.398 . S
C563 C569 1.491 1_564 S
C564 H555 0.950 1_565 S
C564 C563 1.398 . S
C564 C565 1.391 . S
C565 H553 0.950 . S
C565 C561 1.393 . S
C565 C564 1.391 . S
C566 H556 0.950 . S
C566 C567 1.386 . S
C566 C568 1.391 . S
C567 C566 1.386 . S
C567 C571 1.393 . S
C568 H557 0.933 1_556 S
C568 C566 1.391 . S
C568 C569 1.400 . S
C569 C563 1.491 1_546 S
C569 C568 1.400 . S
C569 C570 1.398 . S
C570 H558 0.950 1_545 S
C570 C569 1.398 . S
C570 C571 1.391 . S
C571 H559 0.950 . S
C571 C567 1.393 . S
C571 C570 1.391 . S
H572 C580 0.950 . S
H573 C585 0.950 . S
H574 C582 0.950 . S
H575 C584 0.950 . S
H576 C586 0.950 . S
H577 C588 0.950 . S
H578 C590 0.950 . S
H579 C591 0.950 . S
C580 H572 0.950 . S
C580 C581 1.386 . S
C580 C582 1.391 . S
C581 C580 1.386 . S
C581 C585 1.393 . S
C582 H574 0.950 . S
C582 C580 1.391 . S
C582 C583 1.400 . S
C583 C582 1.400 . S
C583 C584 1.398 . S
C583 C589 1.491 . S
C584 H575 0.950 . S
C584 C583 1.398 . S
C584 C585 1.391 . S
C585 H573 0.950 . S
C585 C581 1.393 . S
C585 C584 1.391 . S
C586 H576 0.950 . S
C586 C587 1.386 . S
C586 C588 1.391 . S
C587 C586 1.386 . S
C587 C591 1.393 . S
C588 H577 0.950 . S
C588 C586 1.391 . S
C588 C589 1.400 . S
C589 C583 1.491 . S
C589 C588 1.400 . S
C589 C590 1.398 . S
C590 H578 0.950 . S
C590 C589 1.398 . S
C590 C591 1.391 . S
C591 H579 0.950 . S
C591 C587 1.393 . S
C591 C590 1.391 . S
H592 C600 0.950 . S
H593 C605 0.950 . S
H594 C602 0.950 1_655 S
H595 C604 0.950 . S
H596 C606 0.950 . S
H597 C608 0.950 1_455 S
H598 C610 0.950 . S
H599 C611 0.950 . S
C600 H592 0.950 . S
C600 C601 1.386 . S
C600 C602 1.391 . S
C601 C600 1.386 . S
C601 C605 1.393 . S
C602 H594 0.950 1_455 S
C602 C600 1.391 . S
C602 C603 1.400 . S
C603 C602 1.400 . S
C603 C604 1.398 . S
C603 C609 1.491 1_455 S
C604 H595 0.950 . S
C604 C603 1.398 . S
C604 C605 1.391 . S
C605 H593 0.950 . S
C605 C601 1.393 . S
C605 C604 1.391 . S
C606 H596 0.950 . S
C606 C607 1.386 . S
C606 C608 1.391 . S
C607 C606 1.386 . S
C607 C611 1.393 . S
C608 H597 0.950 1_655 S
C608 C606 1.391 . S
C608 C609 1.400 . S
C609 C603 1.491 1_655 S
C609 C608 1.400 . S
C609 C610 1.398 . S
C610 H598 0.950 . S
C610 C609 1.398 . S
C610 C611 1.391 . S
C611 H599 0.950 . S
C611 C607 1.393 . S
C611 C610 1.391 . S
H612 C620 0.950 . S
H613 C625 0.950 . S
H614 C622 0.950 . S
H615 C624 0.950 1_565 S
H616 C626 0.950 . S
H617 C628 0.950 . S
H618 C630 0.950 1_545 S
H619 C631 0.950 . S
C620 H612 0.950 . S
C620 C621 1.386 . S
C620 C622 1.391 . S
C621 C620 1.386 . S
C621 C625 1.393 . S
C622 H614 0.950 . S
C622 C620 1.391 . S
C622 C623 1.400 . S
C623 C622 1.400 . S
C623 C624 1.398 . S
C623 C629 1.491 1_545 S
C624 H615 0.950 1_545 S
C624 C623 1.398 . S
C624 C625 1.391 . S
C625 H613 0.950 . S
C625 C621 1.393 . S
C625 C624 1.391 . S
C626 H616 0.950 . S
C626 C627 1.386 . S
C626 C628 1.391 . S
C627 C626 1.386 . S
C627 C631 1.393 . S
C628 H617 0.950 . S
C628 C626 1.391 . S
C628 C629 1.400 . S
C629 C623 1.491 1_565 S
C629 C628 1.400 . S
C629 C630 1.398 . S
C630 H618 0.950 1_565 S
C630 C629 1.398 . S
C630 C631 1.391 . S
C631 H619 0.950 . S
C631 C627 1.393 . S
C631 C630 1.391 . S
H632 C640 0.950 . S
H633 C645 0.950 . S
H634 C642 0.950 . S
H635 C644 0.950 . S
H636 C646 0.950 . S
H637 C648 0.950 . S
H638 C650 0.950 . S
H639 C651 0.950 . S
C640 H632 0.950 . S
C640 C641 1.386 . S
C640 C642 1.391 . S
C641 C640 1.386 . S
C641 C645 1.393 . S
C642 H634 0.950 . S
C642 C640 1.391 . S
C642 C643 1.400 . S
C643 C642 1.400 . S
C643 C644 1.398 . S
C643 C649 1.491 . S
C644 H635 0.950 . S
C644 C643 1.398 . S
C644 C645 1.391 . S
C645 H633 0.950 . S
C645 C641 1.393 . S
C645 C644 1.391 . S
C646 H636 0.950 . S
C646 C647 1.386 . S
C646 C648 1.391 . S
C647 C646 1.386 . S
C647 C651 1.393 . S
C648 H637 0.950 . S
C648 C646 1.391 . S
C648 C649 1.400 . S
C649 C643 1.491 . S
C649 C648 1.400 . S
C649 C650 1.398 . S
C650 H638 0.950 . S
C650 C649 1.398 . S
C650 C651 1.391 . S
C651 H639 0.950 . S
C651 C647 1.393 . S
C651 C650 1.391 . S
H652 C660 0.950 . S
H653 C665 0.950 1_554 S
H654 C662 0.950 1_455 S
H655 C664 0.950 1_554 S
H656 C666 0.950 1_554 S
H657 C668 0.950 1_654 S
H658 C670 0.950 . S
H659 C671 0.950 . S
C660 H652 0.950 . S
C660 C661 1.386 . S
C660 C662 1.391 . S
C661 C660 1.386 . S
C661 C665 1.393 . S
C662 H654 0.950 1_655 S
C662 C660 1.391 . S
C662 C663 1.400 . S
C663 C662 1.400 . S
C663 C664 1.398 . S
C663 C669 1.491 1_655 S
C664 H655 0.950 1_556 S
C664 C663 1.398 . S
C664 C665 1.391 . S
C665 H653 0.950 1_556 S
C665 C661 1.393 . S
C665 C664 1.391 . S
C666 H656 0.950 1_556 S
C666 C667 1.386 . S
C666 C668 1.391 . S
C667 C666 1.386 . S
C667 C671 1.393 . S
C668 H657 0.950 1_456 S
C668 C666 1.391 . S
C668 C669 1.400 . S
C669 C663 1.491 1_455 S
C669 C668 1.400 . S
C669 C670 1.398 . S
C670 H658 0.950 . S
C670 C669 1.398 . S
C670 C671 1.391 . S
C671 H659 0.950 . S
C671 C667 1.393 . S
C671 C670 1.391 . S
H672 C680 0.950 . S
H673 C685 0.950 . S
H674 C682 0.950 . S
H675 C684 0.950 . S
H676 C686 0.950 . S
H677 C688 0.950 . S
H678 C690 0.950 . S
H679 C691 0.950 . S
C680 H672 0.950 . S
C680 C681 1.386 . S
C680 C682 1.391 . S
C681 C680 1.386 . S
C681 C685 1.393 . S
C682 H674 0.950 . S
C682 C680 1.391 . S
C682 C683 1.400 . S
C683 C682 1.400 . S
C683 C684 1.398 . S
C683 C689 1.491 1_455 S
C684 H675 0.950 . S
C684 C683 1.398 . S
C684 C685 1.391 . S
C685 H673 0.950 . S
C685 C681 1.393 . S
C685 C684 1.391 . S
C686 H676 0.950 . S
C686 C687 1.386 . S
C686 C688 1.391 . S
C687 C686 1.386 . S
C687 C691 1.393 . S
C688 H677 0.950 . S
C688 C686 1.391 . S
C688 C689 1.400 . S
C689 C683 1.491 1_655 S
C689 C688 1.400 . S
C689 C690 1.398 . S
C690 H678 0.950 . S
C690 C689 1.398 . S
C690 C691 1.391 . S
C691 H679 0.950 . S
C691 C687 1.393 . S
C691 C690 1.391 . S
H692 C700 0.950 . S
H693 C705 0.950 . S
H694 C702 0.950 1_545 S
H695 C704 0.950 . S
H696 C706 0.950 . S
H697 C708 0.950 1_565 S
H698 C710 0.950 . S
H699 C711 0.950 . S
C700 H692 0.950 . S
C700 C701 1.386 . S
C700 C702 1.391 . S
C701 C700 1.386 . S
C701 C705 1.393 . S
C702 H694 0.950 1_565 S
C702 C700 1.391 . S
C702 C703 1.400 . S
C703 C702 1.400 . S
C703 C704 1.398 . S
C703 C709 1.491 1_565 S
C704 H695 0.950 . S
C704 C703 1.398 . S
C704 C705 1.391 . S
C705 H693 0.950 . S
C705 C701 1.393 . S
C705 C704 1.391 . S
C706 H696 0.950 . S
C706 C707 1.386 . S
C706 C708 1.391 . S
C707 C706 1.386 . S
C707 C711 1.393 . S
C708 H697 0.950 1_545 S
C708 C706 1.391 . S
C708 C709 1.400 . S
C709 C703 1.491 1_545 S
C709 C708 1.400 . S
C709 C710 1.398 . S
C710 H698 0.950 . S
C710 C709 1.398 . S
C710 C711 1.391 . S
C711 H699 0.950 . S
C711 C707 1.393 . S
C711 C710 1.391 . S
H712 C720 0.950 . S
H713 C725 0.950 1_556 S
H714 C722 0.950 . S
H715 C724 0.950 1_556 S
H716 C726 0.950 1_556 S
H717 C728 0.950 1_556 S
H718 C730 0.950 . S
H719 C731 0.950 . S
C720 H712 0.950 . S
C720 C721 1.386 . S
C720 C722 1.391 . S
C721 C720 1.386 . S
C721 C725 1.393 . S
C722 H714 0.950 . S
C722 C720 1.391 . S
C722 C723 1.400 . S
C723 C722 1.400 . S
C723 C724 1.398 . S
C723 C729 1.491 . S
C724 H715 0.950 1_554 S
C724 C723 1.398 . S
C724 C725 1.391 . S
C725 H713 0.950 1_554 S
C725 C721 1.393 . S
C725 C724 1.391 . S
C726 H716 0.950 1_554 S
C726 C727 1.386 . S
C726 C728 1.391 . S
C727 C726 1.386 . S
C727 C731 1.393 . S
C728 H717 0.950 1_554 S
C728 C726 1.391 . S
C728 C729 1.400 . S
C729 C723 1.491 . S
C729 C728 1.400 . S
C729 C730 1.398 . S
C730 H718 0.950 . S
C730 C729 1.398 . S
C730 C731 1.391 . S
C731 H719 0.950 . S
C731 C727 1.393 . S
C731 C730 1.391 . S
H732 C740 0.950 . S
H733 C745 0.950 . S
H734 C742 0.950 . S
H735 C744 0.950 . S
H736 C746 0.950 . S
H737 C748 0.950 . S
H738 C750 0.950 . S
H739 C751 0.950 . S
C740 H732 0.950 . S
C740 C741 1.386 . S
C740 C742 1.391 . S
C741 C740 1.386 . S
C741 C745 1.393 . S
C742 H734 0.950 . S
C742 C740 1.391 . S
C742 C743 1.400 . S
C743 C742 1.400 . S
C743 C744 1.398 . S
C743 C749 1.491 1_565 S
C744 H735 0.950 . S
C744 C743 1.398 . S
C744 C745 1.391 . S
C745 H733 0.950 . S
C745 C741 1.393 . S
C745 C744 1.391 . S
C746 H736 0.950 . S
C746 C747 1.386 . S
C746 C748 1.391 . S
C747 C746 1.386 . S
C747 C751 1.393 . S
C748 H737 0.950 . S
C748 C746 1.391 . S
C748 C749 1.400 . S
C749 C743 1.491 1_545 S
C749 C748 1.400 . S
C749 C750 1.398 . S
C750 H738 0.950 . S
C750 C749 1.398 . S
C750 C751 1.391 . S
C751 H739 0.950 . S
C751 C747 1.393 . S
C751 C750 1.391 . S
H752 C760 0.950 . S
H753 C765 0.950 . S
H754 C762 0.950 . S
H755 C764 0.950 . S
H756 C766 0.950 . S
H757 C768 0.950 . S
H758 C770 0.950 . S
H759 C771 0.950 . S
C760 H752 0.950 . S
C760 C761 1.386 . S
C760 C762 1.391 . S
C761 C760 1.386 . S
C761 C765 1.393 . S
C762 H754 0.950 . S
C762 C760 1.391 . S
C762 C763 1.400 . S
C763 C762 1.400 . S
C763 C764 1.398 . S
C763 C769 1.491 . S
C764 H755 0.950 . S
C764 C763 1.398 . S
C764 C765 1.391 . S
C765 H753 0.950 . S
C765 C761 1.393 . S
C765 C764 1.391 . S
C766 H756 0.950 . S
C766 C767 1.386 . S
C766 C768 1.391 . S
C767 C766 1.386 . S
C767 C771 1.393 . S
C768 H757 0.950 . S
C768 C766 1.391 . S
C768 C769 1.400 . S
C769 C763 1.491 . S
C769 C768 1.400 . S
C769 C770 1.398 . S
C770 H758 0.950 . S
C770 C769 1.398 . S
C770 C771 1.391 . S
C771 H759 0.950 . S
C771 C767 1.393 . S
C771 C770 1.391 . S
H772 C780 0.950 . S
H773 C785 0.950 . S
H774 C782 0.950 1_455 S
H775 C784 0.950 . S
H776 C786 0.950 . S
H777 C788 0.950 1_655 S
H778 C790 0.950 . S
H779 C791 0.950 . S
C780 H772 0.950 . S
C780 C781 1.386 . S
C780 C782 1.391 . S
C781 C780 1.386 . S
C781 C785 1.393 . S
C782 H774 0.950 1_655 S
C782 C780 1.391 . S
C782 C783 1.400 . S
C783 C782 1.400 . S
C783 C784 1.398 . S
C783 C789 1.491 1_655 S
C784 H775 0.950 . S
C784 C783 1.398 . S
C784 C785 1.391 . S
C785 H773 0.950 . S
C785 C781 1.393 . S
C785 C784 1.391 . S
C786 H776 0.950 . S
C786 C787 1.386 . S
C786 C788 1.391 . S
C787 C786 1.386 . S
C787 C791 1.393 . S
C788 H777 0.950 1_455 S
C788 C786 1.391 . S
C788 C789 1.400 . S
C789 C783 1.491 1_455 S
C789 C788 1.400 . S
C789 C790 1.398 . S
C790 H778 0.950 . S
C790 C789 1.398 . S
C790 C791 1.391 . S
C791 H779 0.950 . S
C791 C787 1.393 . S
C791 C790 1.391 . S
H792 C800 0.950 . S
H793 C805 0.950 . S
H794 C802 0.950 . S
H795 C804 0.950 . S
H796 C806 0.950 . S
H797 C808 0.950 . S
H798 C810 0.950 . S
H799 C811 0.950 . S
C800 H792 0.950 . S
C800 C801 1.386 . S
C800 C802 1.391 1_545 S
C801 C800 1.386 . S
C801 C805 1.393 . S
C802 H794 0.950 . S
C802 C800 1.391 1_565 S
C802 C803 1.400 1_565 S
C803 C802 1.400 1_545 S
C803 C804 1.398 . S
C803 C809 1.491 1_545 S
C804 H795 0.950 . S
C804 C803 1.398 . S
C804 C805 1.391 . S
C805 H793 0.950 . S
C805 C801 1.393 . S
C805 C804 1.391 . S
C806 H796 0.950 . S
C806 C807 1.386 . S
C806 C808 1.391 1_565 S
C807 C806 1.386 . S
C807 C811 1.393 . S
C808 H797 0.950 . S
C808 C806 1.391 1_545 S
C808 C809 1.400 1_545 S
C809 C803 1.491 1_565 S
C809 C808 1.400 1_565 S
C809 C810 1.398 . S
C810 H798 0.950 . S
C810 C809 1.398 . S
C810 C811 1.391 . S
C811 H799 0.950 . S
C811 C807 1.393 . S
C811 C810 1.391 . S
H812 C820 0.950 . S
H813 C825 0.950 . S
H814 C822 0.950 . S
H815 C824 0.950 . S
H816 C826 0.950 . S
H817 C828 0.950 . S
H818 C830 0.950 . S
H819 C831 0.950 . S
C820 H812 0.950 . S
C820 C821 1.386 . S
C820 C822 1.391 . S
C821 C820 1.386 . S
C821 C825 1.393 . S
C822 H814 0.950 . S
C822 C820 1.391 . S
C822 C823 1.400 . S
C823 C822 1.400 . S
C823 C824 1.398 . S
C823 C829 1.491 . S
C824 H815 0.950 . S
C824 C823 1.398 . S
C824 C825 1.391 . S
C825 H813 0.950 . S
C825 C821 1.393 . S
C825 C824 1.391 . S
C826 H816 0.950 . S
C826 C827 1.386 . S
C826 C828 1.391 . S
C827 C826 1.386 . S
C827 C831 1.393 . S
C828 H817 0.950 . S
C828 C826 1.391 . S
C828 C829 1.400 . S
C829 C823 1.491 . S
C829 C828 1.400 . S
C829 C830 1.398 . S
C830 H818 0.950 . S
C830 C829 1.398 . S
C830 C831 1.391 . S
C831 H819 0.950 . S
C831 C827 1.393 . S
C831 C830 1.391 . S
H832 C840 0.950 . S
H833 C845 0.950 . S
H834 C842 0.950 . S
H835 C844 0.950 . S
H836 C846 0.950 . S
H837 C848 0.950 . S
H838 C850 0.950 . S
H839 C851 0.950 . S
C840 H832 0.950 . S
C840 C841 1.386 . S
C840 C842 1.391 . S
C841 C840 1.386 . S
C841 C845 1.393 . S
C842 H834 0.950 . S
C842 C840 1.391 . S
C842 C843 1.400 . S
C843 C842 1.400 . S
C843 C844 1.398 1_455 S
C843 C849 1.491 1_455 S
C844 H835 0.950 . S
C844 C843 1.398 1_655 S
C844 C845 1.391 1_655 S
C845 H833 0.950 . S
C845 C841 1.393 . S
C845 C844 1.391 1_455 S
C846 H836 0.950 . S
C846 C847 1.386 . S
C846 C848 1.391 . S
C847 C846 1.386 . S
C847 C851 1.393 . S
C848 H837 0.950 . S
C848 C846 1.391 . S
C848 C849 1.400 . S
C849 C843 1.491 1_655 S
C849 C848 1.400 . S
C849 C850 1.398 1_655 S
C850 H838 0.950 . S
C850 C849 1.398 1_455 S
C850 C851 1.391 1_455 S
C851 H839 0.950 . S
C851 C847 1.393 . S
C851 C850 1.391 1_655 S
H852 C860 0.950 . S
H853 C865 0.950 . S
H854 C862 0.950 . S
H855 C864 0.950 . S
H856 C866 0.950 . S
H857 C868 0.950 . S
H858 C870 0.950 . S
H859 C871 0.950 . S
C860 H852 0.950 . S
C860 C861 1.386 . S
C860 C862 1.391 . S
C861 C860 1.386 . S
C861 C865 1.393 . S
C862 H854 0.950 . S
C862 C860 1.391 . S
C862 C863 1.400 . S
C863 C862 1.400 . S
C863 C864 1.398 . S
C863 C869 1.491 . S
C864 H855 0.950 . S
C864 C863 1.398 . S
C864 C865 1.391 . S
C865 H853 0.950 . S
C865 C861 1.393 . S
C865 C864 1.391 . S
C866 H856 0.950 . S
C866 C867 1.386 . S
C866 C868 1.391 . S
C867 C866 1.386 . S
C867 C871 1.393 . S
C868 H857 0.950 . S
C868 C866 1.391 . S
C868 C869 1.400 . S
C869 C863 1.491 . S
C869 C868 1.400 . S
C869 C870 1.398 . S
C870 H858 0.950 . S
C870 C869 1.398 . S
C870 C871 1.391 . S
C871 H859 0.950 . S
C871 C867 1.393 . S
C871 C870 1.391 . S
H872 C880 0.950 . S
H873 C885 0.950 . S
H874 C882 0.950 . S
H875 C884 0.950 . S
H876 C886 0.950 . S
H877 C888 0.950 . S
H878 C890 0.950 . S
H879 C891 0.950 . S
C880 H872 0.950 . S
C880 C881 1.386 . S
C880 C882 1.391 . S
C881 C880 1.386 . S
C881 C885 1.393 . S
C882 H874 0.950 . S
C882 C880 1.391 . S
C882 C883 1.400 . S
C883 C882 1.400 . S
C883 C884 1.398 . S
C883 C889 1.491 . S
C884 H875 0.950 . S
C884 C883 1.398 . S
C884 C885 1.391 . S
C885 H873 0.950 . S
C885 C881 1.393 . S
C885 C884 1.391 . S
C886 H876 0.950 . S
C886 C887 1.386 . S
C886 C888 1.391 . S
C887 C886 1.386 . S
C887 C891 1.393 . S
C888 H877 0.950 . S
C888 C886 1.391 . S
C888 C889 1.400 . S
C889 C883 1.491 . S
C889 C888 1.400 . S
C889 C890 1.398 . S
C890 H878 0.950 . S
C890 C889 1.398 . S
C890 C891 1.391 . S
C891 H879 0.950 . S
C891 C887 1.393 . S
C891 C890 1.391 . S
H892 C900 0.950 . S
H893 C905 0.950 . S
H894 C902 0.950 . S
H895 C904 0.950 . S
H896 C906 0.950 . S
H897 C908 0.950 . S
H898 C910 0.950 . S
H899 C911 0.950 . S
C900 H892 0.950 . S
C900 C901 1.386 . S
C900 C902 1.391 . S
C901 C900 1.386 . S
C901 C905 1.393 . S
C902 H894 0.950 . S
C902 C900 1.391 . S
C902 C903 1.400 . S
C903 C902 1.400 . S
C903 C904 1.398 . S
C903 C909 1.491 . S
C904 H895 0.950 . S
C904 C903 1.398 . S
C904 C905 1.391 . S
C905 H893 0.950 . S
C905 C901 1.393 . S
C905 C904 1.391 . S
C906 H896 0.950 . S
C906 C907 1.386 . S
C906 C908 1.391 . S
C907 C906 1.386 . S
C907 C911 1.393 . S
C908 H897 0.950 . S
C908 C906 1.391 . S
C908 C909 1.400 . S
C909 C903 1.491 . S
C909 C908 1.400 . S
C909 C910 1.398 . S
C910 H898 0.950 . S
C910 C909 1.398 . S
C910 C911 1.391 . S
C911 H899 0.950 . S
C911 C907 1.393 . S
C911 C910 1.391 . S
H912 C920 0.950 . S
H913 C925 0.950 . S
H914 C922 0.950 . S
H915 C924 0.950 . S
H916 C926 0.950 . S
H917 C928 0.950 . S
H918 C930 0.950 . S
H919 C931 0.950 . S
C920 H912 0.950 . S
C920 C921 1.386 . S
C920 C922 1.391 . S
C921 C920 1.386 . S
C921 C925 1.393 . S
C922 H914 0.950 . S
C922 C920 1.391 . S
C922 C923 1.400 . S
C923 C922 1.400 . S
C923 C924 1.398 . S
C923 C929 1.491 . S
C924 H915 0.950 . S
C924 C923 1.398 . S
C924 C925 1.391 . S
C925 H913 0.950 . S
C925 C921 1.393 . S
C925 C924 1.391 . S
C926 H916 0.950 . S
C926 C927 1.386 . S
C926 C928 1.391 . S
C927 C926 1.386 . S
C927 C931 1.393 . S
C928 H917 0.950 . S
C928 C926 1.391 . S
C928 C929 1.400 . S
C929 C923 1.491 . S
C929 C928 1.400 . S
C929 C930 1.398 . S
C930 H918 0.950 . S
C930 C929 1.398 . S
C930 C931 1.391 . S
C931 H919 0.950 . S
C931 C927 1.393 . S
C931 C930 1.391 . S
H932 C940 0.950 . S
H933 C945 0.950 . S
H934 C942 0.950 . S
H935 C944 0.950 . S
H936 C946 0.950 . S
H937 C948 0.950 . S
H938 C950 0.950 . S
H939 C951 0.950 . S
C940 H932 0.950 . S
C940 C941 1.386 . S
C940 C942 1.391 . S
C941 C940 1.386 . S
C941 C945 1.393 . S
C942 H934 0.950 . S
C942 C940 1.391 . S
C942 C943 1.400 . S
C943 C942 1.400 . S
C943 C944 1.398 . S
C943 C949 1.491 . S
C944 H935 0.950 . S
C944 C943 1.398 . S
C944 C945 1.391 . S
C945 H933 0.950 . S
C945 C941 1.393 . S
C945 C944 1.391 . S
C946 H936 0.950 . S
C946 C947 1.386 . S
C946 C948 1.391 . S
C947 C946 1.386 . S
C947 C951 1.393 . S
C948 H937 0.950 . S
C948 C946 1.391 . S
C948 C949 1.400 . S
C949 C943 1.491 . S
C949 C948 1.400 . S
C949 C950 1.398 . S
C950 H938 0.950 . S
C950 C949 1.398 . S
C950 C951 1.391 . S
C951 H939 0.950 . S
C951 C947 1.393 . S
C951 C950 1.391 . S
H952 C960 0.950 . S
H953 C965 0.950 . S
H954 C962 0.950 . S
H955 C964 0.950 . S
H956 C966 0.950 . S
H957 C968 0.950 . S
H958 C970 0.950 . S
H959 C971 0.950 . S
C960 H952 0.950 . S
C960 C961 1.386 . S
C960 C962 1.391 . S
C961 C960 1.386 . S
C961 C965 1.393 . S
C962 H954 0.950 . S
C962 C960 1.391 . S
C962 C963 1.400 . S
C963 C962 1.400 . S
C963 C964 1.398 . S
C963 C969 1.491 . S
C964 H955 0.950 . S
C964 C963 1.398 . S
C964 C965 1.391 . S
C965 H953 0.950 . S
C965 C961 1.393 . S
C965 C964 1.391 . S
C966 H956 0.950 . S
C966 C967 1.386 . S
C966 C968 1.391 . S
C967 C966 1.386 . S
C967 C971 1.393 . S
C968 H957 0.950 . S
C968 C966 1.391 . S
C968 C969 1.400 . S
C969 C963 1.491 . S
C969 C968 1.400 . S
C969 C970 1.398 . S
C970 H958 0.950 . S
C970 C969 1.398 . S
C970 C971 1.391 . S
C971 H959 0.950 . S
C971 C967 1.393 . S
C971 C970 1.391 . S
C261 C13 0.978 . S
C267 C181 0.979 . S
C281 C34 0.945 . S
C287 C202 0.941 . S
C301 C55 0.959 . S
C307 C223 0.955 . S
C321 C244 0.927 . S
C327 C76 0.929 . S
C341 C97 0.953 . S
C347 C139 0.949 . S
C361 C160 0.937 . S
C367 C118 0.941 . S
C381 C227 1.547 . S
C387 C17 1.512 . S
C401 C248 1.513 . S
C407 C38 1.542 . S
C421 C59 1.536 . S
C427 C143 1.538 . S
C441 C164 1.543 . S
C447 C80 1.513 . S
C461 C185 1.531 . S
C467 C101 1.542 . S
C481 C122 1.548 . S
C487 C206 1.523 . S
C501 C162 1.332 . S
C507 C15 1.286 . S
C521 C183 1.293 . S
C527 C36 1.315 . S
C541 C204 1.328 . S
C547 C57 1.285 . S
C561 C78 1.290 . S
C567 C225 1.320 . S
C581 C99 1.288 . S
C587 C246 1.323 . S
C601 C120 1.321 . S
C607 C141 1.304 . S
C621 C16 1.058 . S
C627 C79 1.014 . S
C641 C37 1.056 . S
C647 C100 1.016 . S
C661 C58 1.018 . S
C667 C121 1.050 . S
C681 C205 1.041 . S
C687 C142 1.032 . S
C701 C163 1.021 . S
C707 C226 1.047 . S
C721 C247 1.031 . S
C727 C184 1.038 . S
C741 C165 1.253 . S
C747 C18 1.249 . S
C761 C186 1.269 . S
C767 C39 1.271 . S
C781 C60 1.247 . S
C787 C207 1.259 . S
C801 C228 1.250 . S
C807 C81 1.268 . S
C821 C249 1.258 . S
C827 C102 1.247 . S
C841 C123 1.271 . S
C847 C144 1.254 . S
C861 C14 1.434 . S
C867 C224 1.434 . S
C881 C35 1.446 . S
C887 C245 1.444 . S
C901 C56 1.445 . S
C907 C140 1.444 . S
C921 C77 1.445 . S
C927 C161 1.446 . S
C941 C98 1.439 . S
C947 C182 1.441 . S
C961 C203 1.435 . S
C967 C119 1.434 . S
