# Generated by pormake.
# Topology ict, (4)-cn, num edge types: 1
# Building blocks:
#     Node 0, Type 0, BuildingBlock: TATPOV_clean_sbu_0, # of connection points: 4
#     Node 1, Type 0, BuildingBlock: TATPOV_clean_sbu_0, # of connection points: 4
#     Node 2, Type 0, BuildingBlock: TATPOV_clean_sbu_0, # of connection points: 4
#     Node 3, Type 0, BuildingBlock: TATPOV_clean_sbu_0, # of connection points: 4
#     Node 4, Type 0, BuildingBlock: TATPOV_clean_sbu_0, # of connection points: 4
#     Node 5, Type 0, BuildingBlock: TATPOV_clean_sbu_0, # of connection points: 4
#     Node 6, Type 0, BuildingBlock: TATPOV_clean_sbu_0, # of connection points: 4
#     Node 7, Type 0, BuildingBlock: TATPOV_clean_sbu_0, # of connection points: 4
#     Node 8, Type 0, BuildingBlock: TATPOV_clean_sbu_0, # of connection points: 4
#     Node 9, Type 0, BuildingBlock: TATPOV_clean_sbu_0, # of connection points: 4
#     Node 10, Type 0, BuildingBlock: TATPOV_clean_sbu_0, # of connection points: 4
#     Node 11, Type 0, BuildingBlock: TATPOV_clean_sbu_0, # of connection points: 4
#     Node 12, Type 0, BuildingBlock: TATPOV_clean_sbu_0, # of connection points: 4
#     Node 13, Type 0, BuildingBlock: TATPOV_clean_sbu_0, # of connection points: 4
#     Node 14, Type 0, BuildingBlock: TATPOV_clean_sbu_0, # of connection points: 4
#     Node 15, Type 0, BuildingBlock: TATPOV_clean_sbu_0, # of connection points: 4
#     Node 16, Type 0, BuildingBlock: TATPOV_clean_sbu_0, # of connection points: 4
#     Node 17, Type 0, BuildingBlock: TATPOV_clean_sbu_0, # of connection points: 4
#     Node 18, Type 0, BuildingBlock: TATPOV_clean_sbu_0, # of connection points: 4
#     Node 19, Type 0, BuildingBlock: TATPOV_clean_sbu_0, # of connection points: 4
#     Node 20, Type 0, BuildingBlock: TATPOV_clean_sbu_0, # of connection points: 4
#     Node 21, Type 0, BuildingBlock: TATPOV_clean_sbu_0, # of connection points: 4
#     Node 22, Type 0, BuildingBlock: TATPOV_clean_sbu_0, # of connection points: 4
#     Node 23, Type 0, BuildingBlock: TATPOV_clean_sbu_0, # of connection points: 4
#     Node 24, Type 0, BuildingBlock: TATPOV_clean_sbu_0, # of connection points: 4
#     Node 25, Type 0, BuildingBlock: TATPOV_clean_sbu_0, # of connection points: 4
#     Node 26, Type 0, BuildingBlock: TATPOV_clean_sbu_0, # of connection points: 4
#     Node 27, Type 0, BuildingBlock: TATPOV_clean_sbu_0, # of connection points: 4
#     Node 28, Type 0, BuildingBlock: TATPOV_clean_sbu_0, # of connection points: 4
#     Node 29, Type 0, BuildingBlock: TATPOV_clean_sbu_0, # of connection points: 4
#     Node 30, Type 0, BuildingBlock: TATPOV_clean_sbu_0, # of connection points: 4
#     Node 31, Type 0, BuildingBlock: TATPOV_clean_sbu_0, # of connection points: 4
#     Node 32, Type 0, BuildingBlock: TATPOV_clean_sbu_0, # of connection points: 4
#     Node 33, Type 0, BuildingBlock: TATPOV_clean_sbu_0, # of connection points: 4
#     Node 34, Type 0, BuildingBlock: TATPOV_clean_sbu_0, # of connection points: 4
#     Node 35, Type 0, BuildingBlock: TATPOV_clean_sbu_0, # of connection points: 4
#     Edge 36, Type (0, 0), None
#     Edge 37, Type (0, 0), None
#     Edge 38, Type (0, 0), None
#     Edge 39, Type (0, 0), None
#     Edge 40, Type (0, 0), None
#     Edge 41, Type (0, 0), None
#     Edge 42, Type (0, 0), None
#     Edge 43, Type (0, 0), None
#     Edge 44, Type (0, 0), None
#     Edge 45, Type (0, 0), None
#     Edge 46, Type (0, 0), None
#     Edge 47, Type (0, 0), None
#     Edge 48, Type (0, 0), None
#     Edge 49, Type (0, 0), None
#     Edge 50, Type (0, 0), None
#     Edge 51, Type (0, 0), None
#     Edge 52, Type (0, 0), None
#     Edge 53, Type (0, 0), None
#     Edge 54, Type (0, 0), None
#     Edge 55, Type (0, 0), None
#     Edge 56, Type (0, 0), None
#     Edge 57, Type (0, 0), None
#     Edge 58, Type (0, 0), None
#     Edge 59, Type (0, 0), None
#     Edge 60, Type (0, 0), None
#     Edge 61, Type (0, 0), None
#     Edge 62, Type (0, 0), None
#     Edge 63, Type (0, 0), None
#     Edge 64, Type (0, 0), None
#     Edge 65, Type (0, 0), None
#     Edge 66, Type (0, 0), None
#     Edge 67, Type (0, 0), None
#     Edge 68, Type (0, 0), None
#     Edge 69, Type (0, 0), None
#     Edge 70, Type (0, 0), None
#     Edge 71, Type (0, 0), None
#     Edge 72, Type (0, 0), None
#     Edge 73, Type (0, 0), None
#     Edge 74, Type (0, 0), None
#     Edge 75, Type (0, 0), None
#     Edge 76, Type (0, 0), None
#     Edge 77, Type (0, 0), None
#     Edge 78, Type (0, 0), None
#     Edge 79, Type (0, 0), None
#     Edge 80, Type (0, 0), None
#     Edge 81, Type (0, 0), None
#     Edge 82, Type (0, 0), None
#     Edge 83, Type (0, 0), None
#     Edge 84, Type (0, 0), None
#     Edge 85, Type (0, 0), None
#     Edge 86, Type (0, 0), None
#     Edge 87, Type (0, 0), None
#     Edge 88, Type (0, 0), None
#     Edge 89, Type (0, 0), None
#     Edge 90, Type (0, 0), None
#     Edge 91, Type (0, 0), None
#     Edge 92, Type (0, 0), None
#     Edge 93, Type (0, 0), None
#     Edge 94, Type (0, 0), None
#     Edge 95, Type (0, 0), None
#     Edge 96, Type (0, 0), None
#     Edge 97, Type (0, 0), None
#     Edge 98, Type (0, 0), None
#     Edge 99, Type (0, 0), None
#     Edge 100, Type (0, 0), None
#     Edge 101, Type (0, 0), None
#     Edge 102, Type (0, 0), None
#     Edge 103, Type (0, 0), None
#     Edge 104, Type (0, 0), None
#     Edge 105, Type (0, 0), None
#     Edge 106, Type (0, 0), None
#     Edge 107, Type (0, 0), None
# Relax obj value: 0.103
# Max RMSD: 0.123
# Mean RMSD: 0.123
data_MOF--net-ict--node1-TATPOV_clean_sbu_0--edge1-none
_symmetry_space_group_name_H-M    P1
_symmetry_Int_Tables_number       1
_symmetry_cell_setting            triclinic
loop_
_symmetry_equiv_pos_as_xyz
'x, y, z'
_cell_length_a     32.373561
_cell_length_b     32.373668
_cell_length_c     15.931905
_cell_angle_alpha  89.9962
_cell_angle_beta   90.009639
_cell_angle_gamma 120.00251
loop_
_atom_site_label
_atom_site_type_symbol
_atom_site_fract_x
_atom_site_fract_y
_atom_site_fract_z
_atom_type_partial_charge
Zn0 Zn 0.15867 0.13836 0.07245 0.0
Zn1 Zn 0.21785 0.19558 -0.03067 0.0
O2 O 0.16221 0.1954 0.91256 0.0
O3 O 0.11803 0.16693 0.02639 0.0
O4 O 0.27731 0.23829 0.90416 0.0
O5 O 0.14909 0.07785 0.02439 0.0
O6 O 0.21136 0.12846 -0.04985 0.0
C7 C 0.12485 0.1857 -0.04608 0.0
C8 C 0.22301 0.21166 0.15745 0.0
O9 O 0.22378 0.22837 0.08498 0.0
O10 O 0.21037 0.16815 0.16177 0.0
C11 C 0.29543 0.28186 0.88361 0.0
O12 O 0.2747 0.30617 0.90582 0.0
C13 C 0.18151 0.08579 -0.02776 0.0
Zn14 Zn 0.83544 0.01508 0.07244 0.0
Zn15 Zn 0.77821 0.01701 -0.0307 0.0
O16 O 0.77837 0.96155 0.91256 0.0
O17 O 0.80691 0.94588 0.02637 0.0
O18 O 0.73549 0.03376 0.90412 0.0
O19 O 0.89594 0.06604 0.02444 0.0
O20 O 0.84533 0.07764 -0.04991 0.0
C21 C 0.7881 0.9339 -0.04608 0.0
C22 C 0.76212 0.00609 0.15744 0.0
O23 O 0.74542 -0.00984 0.08496 0.0
O24 O 0.80565 0.03693 0.16181 0.0
C25 C 0.69192 0.00831 0.88359 0.0
O26 O 0.66761 0.96326 0.90582 0.0
C27 C 0.88799 0.0905 -0.02778 0.0
Zn28 Zn 0.95873 0.81511 0.07246 0.0
Zn29 Zn 0.95675 0.75593 -0.03064 0.0
O30 O 0.0122 0.81156 0.91259 0.0
O31 O 0.02794 0.85575 0.02643 0.0
O32 O 0.94 0.69647 0.90418 0.0
O33 O 0.90779 0.82468 0.02439 0.0
O34 O 0.89611 0.7624 -0.04983 0.0
C35 C 0.03988 0.84893 -0.04605 0.0
C36 C 0.96768 0.75077 0.15748 0.0
O37 O 0.98361 0.74999 0.08502 0.0
O38 O 0.93682 0.76343 0.1618 0.0
C39 C 0.96546 0.67836 0.88363 0.0
O40 O 0.01051 0.69912 0.90583 0.0
C41 C 0.8833 0.79225 -0.02776 0.0
Zn42 Zn 0.13317 0.16402 0.31209 0.0
Zn43 Zn 0.19035 0.22308 0.41575 0.0
O44 O 0.19005 0.16738 0.47238 0.0
O45 O 0.16182 0.12343 0.3582 0.0
O46 O 0.23302 0.28248 0.4811 0.0
O47 O 0.07265 0.15439 0.36021 0.0
O48 O 0.12321 0.21657 0.43472 0.0
C49 C 0.18046 0.13011 0.43079 0.0
C50 C 0.20657 0.22851 0.22785 0.0
O51 O 0.22323 0.229 0.30023 0.0
O52 O 0.16315 0.21624 0.22359 0.0
C53 C 0.27667 0.30076 0.50125 0.0
O54 O 0.30108 0.28023 0.47846 0.0
C55 C 0.08056 0.18675 0.4125 0.0
Zn56 Zn 0.80972 0.96388 0.31202 0.0
Zn57 Zn 0.75068 0.96201 0.41573 0.0
O58 O 0.80639 0.0174 0.47235 0.0
O59 O 0.85031 0.03314 0.35814 0.0
O60 O 0.69128 0.94528 0.48107 0.0
O61 O 0.81936 0.91301 0.36018 0.0
O62 O 0.75719 0.90138 0.43469 0.0
C63 C 0.84365 0.04509 0.43075 0.0
C64 C 0.74522 0.9728 0.22785 0.0
O65 O 0.74477 0.989 0.30021 0.0
O66 O 0.75743 0.9416 0.22363 0.0
C67 C 0.67303 0.97067 0.50123 0.0
O68 O 0.69357 0.01561 0.47846 0.0
C69 C 0.78701 0.88855 0.41247 0.0
Zn70 Zn 0.0099 0.84061 0.31208 0.0
Zn71 Zn 0.01176 0.78343 0.41579 0.0
O72 O 0.95637 0.78374 0.47239 0.0
O73 O 0.94065 0.81196 0.3582 0.0
O74 O 0.02848 0.74076 0.48114 0.0
O75 O 0.06079 0.90112 0.3602 0.0
O76 O 0.07239 0.85057 0.43478 0.0
C77 C 0.92869 0.79334 0.43079 0.0
C78 C 0.00096 0.76719 0.2279 0.0
O79 O -0.01523 0.75054 0.30027 0.0
O80 O 0.03214 0.81059 0.22366 0.0
C81 C 0.0031 0.69711 0.50127 0.0
O82 O 0.95816 0.6727 0.47846 0.0
C83 C 0.08524 0.89322 0.41252 0.0
Zn84 Zn 0.80984 0.84065 0.8121 0.0
Zn85 Zn 0.75069 0.78343 0.91531 0.0
O86 O 0.80632 0.78361 -0.02794 0.0
O87 O 0.8505 0.81211 0.85821 0.0
O88 O 0.69123 0.74073 -0.01951 0.0
O89 O 0.81941 0.90116 0.86011 0.0
O90 O 0.7572 0.85056 0.93448 0.0
C91 C 0.84369 0.79331 0.93067 0.0
C92 C 0.74549 0.76732 0.7272 0.0
O93 O 0.74475 0.75062 0.79967 0.0
O94 O 0.75809 0.81082 0.72286 0.0
C95 C 0.67311 0.69715 0.00103 0.0
O96 O 0.69384 0.67285 -0.02118 0.0
C97 C 0.78701 0.89322 0.91233 0.0
Zn98 Zn 0.13311 0.96392 0.81212 0.0
Zn99 Zn 0.19034 0.96202 0.91534 0.0
O100 O 0.19018 0.01748 -0.02794 0.0
O101 O 0.16162 0.03312 0.85823 0.0
O102 O 0.23305 0.94527 -0.01948 0.0
O103 O 0.0726 0.91294 0.86007 0.0
O104 O 0.12322 0.9014 0.93455 0.0
C105 C 0.18044 0.04512 0.93067 0.0
C106 C 0.20646 0.97294 0.72721 0.0
O107 O 0.22315 0.98888 0.79969 0.0
O108 O 0.16295 0.94207 0.72282 0.0
C109 C 0.27663 0.97072 0.00105 0.0
O110 O 0.30094 0.01576 -0.02117 0.0
C111 C 0.08056 0.88852 0.91235 0.0
Zn112 Zn 0.00983 0.16394 0.81209 0.0
Zn113 Zn 0.01178 0.2231 0.91528 0.0
O114 O 0.95633 0.16746 -0.02798 0.0
O115 O 0.94062 0.12328 0.85817 0.0
O116 O 0.02853 0.28255 -0.01954 0.0
O117 O 0.06078 0.15438 0.86012 0.0
O118 O 0.07241 0.21661 0.93446 0.0
C119 C 0.92866 0.1301 0.93064 0.0
C120 C 0.00086 0.22829 0.72717 0.0
O121 O -0.01509 0.22903 0.79963 0.0
O122 O 0.03174 0.21566 0.72284 0.0
C123 C 0.00307 0.30066 0.00102 0.0
O124 O 0.95802 0.2799 -0.02119 0.0
C125 C 0.08525 0.18679 0.91233 0.0
Zn126 Zn 0.83537 0.815 0.57259 0.0
Zn127 Zn 0.77819 0.75594 0.46889 0.0
O128 O 0.77848 0.81164 0.41229 0.0
O129 O 0.80672 0.85559 0.52647 0.0
O130 O 0.73553 0.69654 0.40354 0.0
O131 O 0.89588 0.82463 0.52448 0.0
O132 O 0.84534 0.76246 0.44993 0.0
C133 C 0.78807 0.84891 0.45388 0.0
C134 C 0.76196 0.75049 0.6568 0.0
O135 O 0.7453 0.75 0.58442 0.0
O136 O 0.80538 0.76278 0.66108 0.0
C137 C 0.69188 0.67826 0.3834 0.0
O138 O 0.66746 0.69878 0.4062 0.0
C139 C 0.88798 0.79228 0.47218 0.0
Zn140 Zn 0.15882 0.01514 0.57265 0.0
Zn141 Zn 0.21786 0.01701 0.46892 0.0
O142 O 0.16215 0.96162 0.41231 0.0
O143 O 0.11823 0.94588 0.52653 0.0
O144 O 0.27726 0.03375 0.40357 0.0
O145 O 0.14918 0.06601 0.52451 0.0
O146 O 0.21134 0.07764 0.44996 0.0
C147 C 0.1249 0.93393 0.45393 0.0
C148 C 0.22334 0.00623 0.6568 0.0
O149 O 0.22379 -0.00996 0.58444 0.0
O150 O 0.21112 0.03741 0.66104 0.0
C151 C 0.29551 0.00836 0.38341 0.0
O152 O 0.27498 0.96342 0.4062 0.0
C153 C 0.18153 0.09046 0.47221 0.0
Zn154 Zn 0.95864 0.13842 0.5726 0.0
Zn155 Zn 0.95678 0.19559 0.46886 0.0
O156 O 0.01218 0.19528 0.41227 0.0
O157 O 0.02789 0.16706 0.52647 0.0
O158 O 0.94005 0.23826 0.4035 0.0
O159 O 0.90774 0.0779 0.52449 0.0
O160 O 0.89615 0.12844 0.44988 0.0
C161 C 0.03985 0.18569 0.45389 0.0
C162 C 0.96757 0.21185 0.65675 0.0
O163 O 0.98375 0.22849 0.58438 0.0
O164 O 0.9364 0.16844 0.66101 0.0
C165 C 0.96543 0.2819 0.38338 0.0
O166 O 0.01037 0.30632 0.4062 0.0
C167 C 0.8833 0.0858 0.47215 0.0
Zn168 Zn 0.82535 0.47168 0.4058 0.0
Zn169 Zn 0.88451 0.52891 0.30268 0.0
O170 O 0.82888 0.52874 0.24592 0.0
O171 O 0.78468 0.50022 0.35973 0.0
O172 O 0.94397 0.57162 0.23752 0.0
O173 O 0.81579 0.41117 0.35777 0.0
O174 O 0.87802 0.46179 0.28347 0.0
C175 C 0.79151 0.51902 0.28727 0.0
C176 C 0.88967 0.54498 0.49082 0.0
O177 O 0.89045 0.5617 0.41835 0.0
O178 O 0.87702 0.50147 0.49516 0.0
C179 C 0.9621 0.61519 0.21697 0.0
O180 O 0.94136 0.6395 0.23918 0.0
C181 C 0.84819 0.41912 0.30557 0.0
Zn182 Zn 0.5021 0.34842 0.4058 0.0
Zn183 Zn 0.44487 0.35035 0.30266 0.0
O184 O 0.44504 0.29489 0.24591 0.0
O185 O 0.47357 0.27921 0.35972 0.0
O186 O 0.40215 0.36709 0.23749 0.0
O187 O 0.5626 0.39938 0.35781 0.0
O188 O 0.51199 0.41098 0.28345 0.0
C189 C 0.45476 0.26724 0.28727 0.0
C190 C 0.42879 0.33942 0.49079 0.0
O191 O 0.41208 0.32349 0.41832 0.0
O192 O 0.4723 0.37028 0.49516 0.0
C193 C 0.35858 0.34164 0.21694 0.0
O194 O 0.33427 0.2966 0.23915 0.0
C195 C 0.55465 0.42383 0.30558 0.0
Zn196 Zn 0.6254 0.14845 0.40577 0.0
Zn197 Zn 0.62341 0.08926 0.30267 0.0
O198 O 0.67886 0.14489 0.2459 0.0
O199 O 0.69461 0.18909 0.35974 0.0
O200 O 0.60667 0.0298 0.2375 0.0
O201 O 0.57447 0.15803 0.3577 0.0
O202 O 0.56277 0.09574 0.28349 0.0
C203 C 0.70655 0.18226 0.28726 0.0
C204 C 0.63434 0.08411 0.49079 0.0
O205 O 0.65028 0.08333 0.41833 0.0
O206 O 0.60348 0.09676 0.49511 0.0
C207 C 0.63213 0.0117 0.21692 0.0
O208 O 0.67718 0.03246 0.23911 0.0
C209 C 0.54997 0.12559 0.30556 0.0
Zn210 Zn 0.79983 0.49737 0.64542 0.0
Zn211 Zn 0.85701 0.55641 0.74911 0.0
O212 O 0.85671 0.50071 0.80573 0.0
O213 O 0.82849 0.45677 0.69153 0.0
O214 O 0.89969 0.61581 0.81446 0.0
O215 O 0.73932 0.48773 0.69354 0.0
O216 O 0.78987 0.5499 0.76808 0.0
C217 C 0.84712 0.46344 0.76413 0.0
C218 C 0.87325 0.56185 0.56122 0.0
O219 O 0.8899 0.56233 0.63359 0.0
O220 O 0.82984 0.54961 0.55696 0.0
C221 C 0.94334 0.6341 0.83457 0.0
O222 O 0.96777 0.61359 0.81174 0.0
C223 C 0.74723 0.52009 0.74584 0.0
Zn224 Zn 0.4764 0.29723 0.64541 0.0
Zn225 Zn 0.41735 0.29534 0.74909 0.0
O226 O 0.47307 0.35073 0.80571 0.0
O227 O 0.51698 0.36649 0.6915 0.0
O228 O 0.35796 0.27861 0.81443 0.0
O229 O 0.48606 0.24637 0.69358 0.0
O230 O 0.42386 0.23471 0.76804 0.0
C231 C 0.51032 0.37843 0.76411 0.0
C232 C 0.4119 0.30613 0.5612 0.0
O233 O 0.41143 0.32232 0.63357 0.0
O234 O 0.42413 0.27495 0.55698 0.0
C235 C 0.33969 0.30399 0.83456 0.0
O236 O 0.36021 0.34893 0.81175 0.0
C237 C 0.45369 0.2219 0.74584 0.0
Zn238 Zn 0.67655 0.17394 0.64542 0.0
Zn239 Zn 0.67843 0.11676 0.7491 0.0
O240 O 0.62305 0.11708 0.80572 0.0
O241 O 0.6073 0.14527 0.69152 0.0
O242 O 0.69516 0.07409 0.81444 0.0
O243 O 0.72743 0.23445 0.69356 0.0
O244 O 0.73907 0.1839 0.76807 0.0
C245 C 0.59535 0.12666 0.76412 0.0
C246 C 0.66763 0.10053 0.56121 0.0
O247 O 0.65144 0.08387 0.63358 0.0
O248 O 0.6988 0.14394 0.55698 0.0
C249 C 0.66978 0.03044 0.83455 0.0
O250 O 0.62484 0.00602 0.81172 0.0
C251 C 0.7519 0.22655 0.74584 0.0
Zn252 Zn 0.4765 0.17399 0.14544 0.0
Zn253 Zn 0.41736 0.11677 0.24865 0.0
O254 O 0.47299 0.11694 0.30538 0.0
O255 O 0.51717 0.14546 0.19154 0.0
O256 O 0.3579 0.07407 0.31384 0.0
O257 O 0.48606 0.2345 0.19345 0.0
O258 O 0.42387 0.1839 0.26784 0.0
C259 C 0.51036 0.12666 0.26399 0.0
C260 C 0.41216 0.10066 0.06053 0.0
O261 O 0.41141 0.08396 0.133 0.0
O262 O 0.42477 0.14416 0.05618 0.0
C263 C 0.33977 0.03049 0.33436 0.0
O264 O 0.36049 0.00617 0.31211 0.0
C265 C 0.45367 0.22656 0.24568 0.0
Zn266 Zn 0.79978 0.29726 0.14544 0.0
Zn267 Zn 0.85701 0.29534 0.24862 0.0
O268 O 0.85685 0.3508 0.30536 0.0
O269 O 0.8283 0.36647 0.19154 0.0
O270 O 0.89972 0.27859 0.31381 0.0
O271 O 0.73927 0.24629 0.19341 0.0
O272 O 0.78989 0.23472 0.26783 0.0
C273 C 0.84712 0.37845 0.26399 0.0
C274 C 0.87311 0.30627 0.06049 0.0
O275 O 0.88981 0.32219 0.13297 0.0
O276 O 0.82959 0.27542 0.0561 0.0
C277 C 0.9433 0.30404 0.33433 0.0
O278 O 0.96761 0.34908 0.31209 0.0
C279 C 0.74722 0.22185 0.24566 0.0
Zn280 Zn 0.67648 0.49725 0.14547 0.0
Zn281 Zn 0.67846 0.55643 0.24862 0.0
O282 O 0.623 0.5008 0.30537 0.0
O283 O 0.60727 0.4566 0.19152 0.0
O284 O 0.69521 0.61588 0.31381 0.0
O285 O 0.72742 0.48768 0.19352 0.0
O286 O 0.73909 0.54994 0.2678 0.0
C287 C 0.59532 0.46343 0.26399 0.0
C288 C 0.66754 0.56161 0.0605 0.0
O289 O 0.6516 0.56238 0.13296 0.0
O290 O 0.69839 0.54895 0.05616 0.0
C291 C 0.66975 0.634 0.33434 0.0
O292 O 0.62471 0.61326 0.31209 0.0
C293 C 0.75191 0.5201 0.24569 0.0
Zn294 Zn 0.50204 0.14831 0.90596 0.0
Zn295 Zn 0.44485 0.08927 0.80223 0.0
O296 O 0.44514 0.14497 0.74563 0.0
O297 O 0.4734 0.18892 0.85981 0.0
O298 O 0.40219 0.02987 0.73688 0.0
O299 O 0.56255 0.15792 0.85789 0.0
O300 O 0.512 0.0958 0.78325 0.0
C301 C 0.45475 0.18224 0.78724 0.0
C302 C 0.42861 0.08381 -0.00987 0.0
O303 O 0.41196 0.08334 0.91775 0.0
O304 O 0.47202 0.09607 -0.00558 0.0
C305 C 0.35854 0.01159 0.71674 0.0
O306 O 0.33412 0.0321 0.73954 0.0
C307 C 0.55464 0.12559 0.80554 0.0
Zn308 Zn 0.8255 0.34847 0.90598 0.0
Zn309 Zn 0.88453 0.35034 0.80221 0.0
O310 O 0.82881 0.29494 0.74561 0.0
O311 O 0.78491 0.27922 0.85984 0.0
O312 O 0.94392 0.36708 0.73685 0.0
O313 O 0.81586 0.39935 0.85785 0.0
O314 O 0.878 0.41096 0.78326 0.0
C315 C 0.79156 0.26726 0.78724 0.0
C316 C 0.89002 0.33956 -0.00992 0.0
O317 O 0.89045 0.32335 0.91771 0.0
O318 O 0.87783 0.37076 -0.00568 0.0
C319 C 0.96217 0.34169 0.71669 0.0
O320 O 0.94164 0.29675 0.73946 0.0
C321 C 0.84819 0.42379 0.80553 0.0
Zn322 Zn 0.62531 0.47176 0.90597 0.0
Zn323 Zn 0.62346 0.52893 0.8022 0.0
O324 O 0.67884 0.52862 0.74561 0.0
O325 O 0.69456 0.50041 0.85982 0.0
O326 O 0.60672 0.5716 0.73685 0.0
O327 O 0.57441 0.41124 0.85786 0.0
O328 O 0.56283 0.46179 0.78324 0.0
C329 C 0.70652 0.51903 0.78723 0.0
C330 C 0.63425 0.5452 -0.00992 0.0
O331 O 0.65044 0.56184 0.91771 0.0
O332 O 0.60306 0.5018 -0.00567 0.0
C333 C 0.6321 0.61524 0.71671 0.0
O334 O 0.67705 0.63966 0.73951 0.0
C335 C 0.54998 0.41914 0.80552 0.0
Zn336 Zn 0.49203 0.80502 0.73916 0.0
Zn337 Zn 0.55118 0.86225 0.63598 0.0
O338 O 0.49554 0.86207 0.57923 0.0
O339 O 0.45137 0.83356 0.69307 0.0
O340 O 0.61064 0.90496 0.57081 0.0
O341 O 0.48247 0.74452 0.69114 0.0
O342 O 0.54468 0.79513 0.61679 0.0
C343 C 0.45817 0.85235 0.62061 0.0
C344 C 0.55636 0.87835 0.8241 0.0
O345 O 0.55711 0.89505 0.75164 0.0
O346 O 0.54376 0.83485 0.82844 0.0
C347 C 0.62877 0.94854 0.55029 0.0
O348 O 0.60805 0.97285 0.57254 0.0
C349 C 0.51487 0.75246 0.63892 0.0
Zn350 Zn 0.16876 0.68176 0.73916 0.0
Zn351 Zn 0.11153 0.68368 0.63601 0.0
O352 O 0.11169 0.62822 0.57926 0.0
O353 O 0.14024 0.61255 0.69307 0.0
O354 O 0.06881 0.70042 0.57084 0.0
O355 O 0.22927 0.73273 0.69118 0.0
O356 O 0.17865 0.74431 0.61679 0.0
C357 C 0.12143 0.60057 0.62062 0.0
C358 C 0.09544 0.67275 0.82415 0.0
O359 O 0.07874 0.65682 0.75167 0.0
O360 O 0.13896 0.7036 0.82852 0.0
C361 C 0.02523 0.67498 0.55031 0.0
O362 O 0.00092 0.62994 0.57255 0.0
C363 C 0.22131 0.75717 0.63894 0.0
Zn364 Zn 0.29205 0.48177 0.73913 0.0
Zn365 Zn 0.29009 0.42259 0.63601 0.0
O366 O 0.34554 0.47823 0.57925 0.0
O367 O 0.36127 0.52242 0.69309 0.0
O368 O 0.27334 0.36314 0.57083 0.0
O369 O 0.24112 0.49134 0.69107 0.0
O370 O 0.22945 0.42907 0.61683 0.0
C371 C 0.37322 0.5156 0.62061 0.0
C372 C 0.30101 0.41743 0.82413 0.0
O373 O 0.31695 0.41666 0.75167 0.0
O374 O 0.27015 0.43008 0.82845 0.0
C375 C 0.29879 0.34502 0.5503 0.0
O376 O 0.34384 0.36576 0.57255 0.0
C377 C 0.21663 0.45892 0.63891 0.0
Zn378 Zn 0.4665 0.83069 -0.02123 0.0
Zn379 Zn 0.52368 0.88975 0.08242 0.0
O380 O 0.52338 0.83404 0.13904 0.0
O381 O 0.49515 0.79009 0.02486 0.0
O382 O 0.56635 0.94915 0.14777 0.0
O383 O 0.40598 0.82105 0.02689 0.0
O384 O 0.45654 0.88324 0.1014 0.0
C385 C 0.51379 0.79677 0.09745 0.0
C386 C 0.53989 0.89517 0.8945 0.0
O387 O 0.55656 0.89568 -0.03311 0.0
O388 O 0.49647 0.88288 0.89023 0.0
C389 C 0.61 0.96744 0.16787 0.0
O390 O 0.63443 0.94694 0.14502 0.0
C391 C 0.41389 0.85342 0.07917 0.0
Zn392 Zn 0.14307 0.63057 -0.02125 0.0
Zn393 Zn 0.08402 0.62867 0.08244 0.0
O394 O 0.13973 0.68406 0.13906 0.0
O395 O 0.18364 0.69983 0.02484 0.0
O396 O 0.02462 0.61195 0.14779 0.0
O397 O 0.15273 0.57971 0.02693 0.0
O398 O 0.09052 0.56804 0.10138 0.0
C399 C 0.17699 0.71177 0.09745 0.0
C400 C 0.07856 0.63946 0.89455 0.0
O401 O 0.07809 0.65565 -0.03308 0.0
O402 O 0.09078 0.60828 0.89033 0.0
C403 C 0.00636 0.63732 0.16792 0.0
O404 O 0.02688 0.68226 0.1451 0.0
C405 C 0.12036 0.55523 0.07918 0.0
Zn406 Zn 0.34321 0.50727 -0.02124 0.0
Zn407 Zn 0.34509 0.4501 0.08244 0.0
O408 O 0.28971 0.45042 0.13906 0.0
O409 O 0.27395 0.4786 0.02485 0.0
O410 O 0.36182 0.40743 0.14779 0.0
O411 O 0.39409 0.56778 0.02692 0.0
O412 O 0.40574 0.51724 0.10141 0.0
C413 C 0.26201 0.45999 0.09746 0.0
C414 C 0.3343 0.43386 0.89455 0.0
O415 O 0.31811 0.4172 -0.03308 0.0
O416 O 0.36546 0.47727 0.89032 0.0
C417 C 0.33644 0.36377 0.1679 0.0
O418 O 0.29151 0.33936 0.14505 0.0
C419 C 0.41856 0.55988 0.07919 0.0
Zn420 Zn 0.14319 0.50734 0.47881 0.0
Zn421 Zn 0.08402 0.45011 0.58195 0.0
O422 O 0.13966 0.45027 0.6387 0.0
O423 O 0.18386 0.4788 0.52488 0.0
O424 O 0.02457 0.4074 0.64713 0.0
O425 O 0.15275 0.56784 0.52683 0.0
O426 O 0.09053 0.51723 0.60115 0.0
C427 C 0.17703 0.45999 0.59733 0.0
C428 C 0.07885 0.43402 0.39382 0.0
O429 O 0.07807 0.41731 0.46629 0.0
O430 O 0.09151 0.47754 0.38945 0.0
C431 C 0.00643 0.36382 0.66763 0.0
O432 O 0.02715 0.33951 0.64536 0.0
C433 C 0.12035 0.5599 0.57903 0.0
Zn434 Zn 0.46645 0.63061 0.4788 0.0
Zn435 Zn 0.52367 0.62867 0.58197 0.0
O436 O 0.52351 0.68414 0.63871 0.0
O437 O 0.49498 0.69981 0.52488 0.0
O438 O 0.56638 0.61193 0.64716 0.0
O439 O 0.40594 0.57964 0.52679 0.0
O440 O 0.45655 0.56805 0.60118 0.0
C441 C 0.51379 0.71179 0.59733 0.0
C442 C 0.53977 0.6396 0.39384 0.0
O443 O 0.55647 0.65552 0.46632 0.0
O444 O 0.49625 0.60875 0.38946 0.0
C445 C 0.60997 0.63737 0.66766 0.0
O446 O 0.63428 0.68241 0.64539 0.0
C447 C 0.41389 0.55519 0.57902 0.0
Zn448 Zn 0.34314 0.83057 0.47883 0.0
Zn449 Zn 0.34512 0.88976 0.58196 0.0
O450 O 0.28967 0.83413 0.63872 0.0
O451 O 0.27393 0.78993 0.52487 0.0
O452 O 0.36187 0.94921 0.64715 0.0
O453 O 0.39407 0.821 0.52689 0.0
O454 O 0.40576 0.88328 0.60113 0.0
C455 C 0.26198 0.79676 0.59734 0.0
C456 C 0.3342 0.89494 0.39384 0.0
O457 O 0.31827 0.89571 0.46631 0.0
O458 O 0.36505 0.88227 0.38951 0.0
C459 C 0.33642 0.96733 0.66768 0.0
O460 O 0.29137 0.94659 0.64543 0.0
C461 C 0.41857 0.85343 0.57904 0.0
Zn462 Zn 0.1687 0.48163 0.23931 0.0
Zn463 Zn 0.11151 0.42261 0.13553 0.0
O464 O 0.11181 0.47831 0.07894 0.0
O465 O 0.14006 0.52224 0.19315 0.0
O466 O 0.06885 0.36321 0.07018 0.0
O467 O 0.22921 0.49125 0.19124 0.0
O468 O 0.17866 0.42914 0.11656 0.0
C469 C 0.12141 0.51557 0.12056 0.0
C470 C 0.09525 0.41713 0.32342 0.0
O471 O 0.07861 0.41669 0.25104 0.0
O472 O 0.13865 0.42934 0.32769 0.0
C473 C 0.02519 0.34492 0.05007 0.0
O474 O 0.00076 0.36542 0.07292 0.0
C475 C 0.2213 0.45892 0.13887 0.0
Zn476 Zn 0.49216 0.68181 0.23932 0.0
Zn477 Zn 0.55119 0.68367 0.13556 0.0
O478 O 0.49548 0.62827 0.07896 0.0
O479 O 0.45156 0.61256 0.19318 0.0
O480 O 0.61058 0.7004 0.0702 0.0
O481 O 0.48253 0.73269 0.1912 0.0
O482 O 0.54466 0.74429 0.1166 0.0
C483 C 0.45822 0.60059 0.12058 0.0
C484 C 0.55667 0.67289 0.32344 0.0
O485 O 0.55711 0.65668 0.25107 0.0
O486 O 0.54448 0.70409 0.32767 0.0
C487 C 0.62885 0.67502 0.05008 0.0
O488 O 0.60833 0.63009 0.07291 0.0
C489 C 0.51486 0.75713 0.13887 0.0
Zn490 Zn 0.29197 0.80509 0.23931 0.0
Zn491 Zn 0.29012 0.86227 0.13554 0.0
O492 O 0.34551 0.86196 0.07895 0.0
O493 O 0.36122 0.83374 0.19316 0.0
O494 O 0.27339 0.90494 0.0702 0.0
O495 O 0.24107 0.74458 0.19121 0.0
O496 O 0.22949 0.79512 0.11657 0.0
C497 C 0.37318 0.85237 0.12057 0.0
C498 C 0.30092 0.87853 0.32342 0.0
O499 O 0.31712 0.89517 0.25106 0.0
O500 O 0.26972 0.83513 0.32767 0.0
C501 C 0.29876 0.94859 0.0501 0.0
O502 O 0.3437 0.97301 0.07293 0.0
C503 C 0.21664 0.75248 0.13886 0.0
loop_
_geom_bond_atom_site_label_1
_geom_bond_atom_site_label_2
_geom_bond_distance
_geom_bond_site_symmetry_2
_ccdc_geom_bond_type
Zn0 O3 2.031 . S
Zn0 O5 2.049 . S
Zn0 O10 2.067 . S
Zn1 O2 1.962 1_554 S
Zn1 O4 1.986 1_554 S
Zn1 O6 1.996 . S
Zn1 O9 1.943 . S
O2 Zn1 1.962 1_556 S
O2 C7 1.254 . S
O3 Zn0 2.031 . S
O3 C7 1.269 1_554 S
O4 Zn1 1.986 1_556 S
O4 C11 1.262 . S
O5 Zn0 2.049 . S
O5 C13 1.260 . S
O6 Zn1 1.996 . S
O6 C13 1.259 . S
C7 O2 1.254 . S
C7 O3 1.269 1_556 S
C8 O9 1.249 . S
C8 O10 1.270 . S
O9 Zn1 1.943 . S
O9 C8 1.249 . S
O10 Zn0 2.067 . S
O10 C8 1.270 . S
C11 O4 1.262 . S
C11 O12 1.232 . S
O12 C11 1.232 . S
C13 O5 1.260 . S
C13 O6 1.259 . S
Zn14 O17 2.031 1_545 S
Zn14 O19 2.049 . S
Zn14 O24 2.067 . S
Zn15 O16 1.962 1_544 S
Zn15 O18 1.986 1_554 S
Zn15 O20 1.996 . S
Zn15 O23 1.943 . S
O16 Zn15 1.962 1_566 S
O16 C21 1.254 . S
O17 Zn14 2.031 1_565 S
O17 C21 1.269 1_554 S
O18 Zn15 1.986 1_556 S
O18 C25 1.262 . S
O19 Zn14 2.049 . S
O19 C27 1.260 . S
O20 Zn15 1.996 . S
O20 C27 1.259 . S
C21 O16 1.254 . S
C21 O17 1.269 1_556 S
C22 O23 1.249 . S
C22 O24 1.270 . S
O23 Zn15 1.943 . S
O23 C22 1.249 . S
O24 Zn14 2.067 . S
O24 C22 1.270 . S
C25 O18 1.262 . S
C25 O26 1.232 . S
O26 C25 1.232 . S
C27 O19 1.260 . S
C27 O20 1.259 . S
Zn28 O31 2.031 1_655 S
Zn28 O33 2.049 . S
Zn28 O38 2.067 . S
Zn29 O30 1.962 1_654 S
Zn29 O32 1.986 1_554 S
Zn29 O34 1.996 . S
Zn29 O37 1.943 . S
O30 Zn29 1.962 1_456 S
O30 C35 1.254 . S
O31 Zn28 2.031 1_455 S
O31 C35 1.269 1_554 S
O32 Zn29 1.986 1_556 S
O32 C39 1.262 . S
O33 Zn28 2.049 . S
O33 C41 1.260 . S
O34 Zn29 1.996 . S
O34 C41 1.259 . S
C35 O30 1.254 . S
C35 O31 1.269 1_556 S
C36 O37 1.249 . S
C36 O38 1.270 . S
O37 Zn29 1.943 . S
O37 C36 1.249 . S
O38 Zn28 2.067 . S
O38 C36 1.270 . S
C39 O32 1.262 . S
C39 O40 1.232 . S
O40 C39 1.232 . S
C41 O33 1.260 . S
C41 O34 1.259 . S
Zn42 O45 2.031 . S
Zn42 O47 2.049 . S
Zn42 O52 2.067 . S
Zn43 O44 1.962 . S
Zn43 O46 1.986 . S
Zn43 O48 1.996 . S
Zn43 O51 1.943 . S
O44 Zn43 1.962 . S
O44 C49 1.254 . S
O45 Zn42 2.031 . S
O45 C49 1.269 . S
O46 Zn43 1.986 . S
O46 C53 1.262 . S
O47 Zn42 2.049 . S
O47 C55 1.260 . S
O48 Zn43 1.996 . S
O48 C55 1.257 . S
C49 O44 1.254 . S
C49 O45 1.269 . S
C50 O51 1.249 . S
C50 O52 1.270 . S
O51 Zn43 1.943 . S
O51 C50 1.249 . S
O52 Zn42 2.067 . S
O52 C50 1.270 . S
C53 O46 1.262 . S
C53 O54 1.232 . S
O54 C53 1.232 . S
C55 O47 1.260 . S
C55 O48 1.257 . S
Zn56 O59 2.031 1_565 S
Zn56 O61 2.049 . S
Zn56 O66 2.067 . S
Zn57 O58 1.962 1_565 S
Zn57 O60 1.986 . S
Zn57 O62 1.996 . S
Zn57 O65 1.943 . S
O58 Zn57 1.962 1_545 S
O58 C63 1.254 . S
O59 Zn56 2.031 1_545 S
O59 C63 1.269 . S
O60 Zn57 1.986 . S
O60 C67 1.262 . S
O61 Zn56 2.049 . S
O61 C69 1.260 . S
O62 Zn57 1.996 . S
O62 C69 1.257 . S
C63 O58 1.254 . S
C63 O59 1.269 . S
C64 O65 1.249 . S
C64 O66 1.270 . S
O65 Zn57 1.943 . S
O65 C64 1.249 . S
O66 Zn56 2.067 . S
O66 C64 1.270 . S
C67 O60 1.262 . S
C67 O68 1.232 . S
O68 C67 1.232 . S
C69 O61 1.260 . S
C69 O62 1.257 . S
Zn70 O73 2.031 1_455 S
Zn70 O75 2.049 . S
Zn70 O80 2.067 . S
Zn71 O72 1.962 1_455 S
Zn71 O74 1.986 . S
Zn71 O76 1.996 . S
Zn71 O79 1.943 . S
O72 Zn71 1.962 1_655 S
O72 C77 1.254 . S
O73 Zn70 2.031 1_655 S
O73 C77 1.269 . S
O74 Zn71 1.986 . S
O74 C81 1.262 . S
O75 Zn70 2.049 . S
O75 C83 1.260 . S
O76 Zn71 1.996 . S
O76 C83 1.257 . S
C77 O72 1.254 . S
C77 O73 1.269 . S
C78 O79 1.249 . S
C78 O80 1.270 . S
O79 Zn71 1.943 . S
O79 C78 1.249 . S
O80 Zn70 2.067 . S
O80 C78 1.270 . S
C81 O74 1.262 . S
C81 O82 1.232 . S
O82 C81 1.232 . S
C83 O75 1.260 . S
C83 O76 1.257 . S
Zn84 O87 2.031 . S
Zn84 O89 2.049 . S
Zn84 O94 2.067 . S
Zn85 O86 1.962 1_556 S
Zn85 O88 1.986 1_556 S
Zn85 O90 1.996 . S
Zn85 O93 1.943 . S
O86 Zn85 1.962 1_554 S
O86 C91 1.254 . S
O87 Zn84 2.031 . S
O87 C91 1.269 1_556 S
O88 Zn85 1.986 1_554 S
O88 C95 1.262 . S
O89 Zn84 2.049 . S
O89 C97 1.260 . S
O90 Zn85 1.996 . S
O90 C97 1.259 . S
C91 O86 1.254 . S
C91 O87 1.269 1_554 S
C92 O93 1.249 . S
C92 O94 1.270 . S
O93 Zn85 1.943 . S
O93 C92 1.249 . S
O94 Zn84 2.067 . S
O94 C92 1.270 . S
C95 O88 1.262 . S
C95 O96 1.232 . S
O96 C95 1.232 . S
C97 O89 1.260 . S
C97 O90 1.259 . S
Zn98 O101 2.031 1_565 S
Zn98 O103 2.049 . S
Zn98 O108 2.067 . S
Zn99 O100 1.962 1_566 S
Zn99 O102 1.986 1_556 S
Zn99 O104 1.996 . S
Zn99 O107 1.943 . S
O100 Zn99 1.962 1_544 S
O100 C105 1.254 . S
O101 Zn98 2.031 1_545 S
O101 C105 1.269 1_556 S
O102 Zn99 1.986 1_554 S
O102 C109 1.262 . S
O103 Zn98 2.049 . S
O103 C111 1.260 . S
O104 Zn99 1.996 . S
O104 C111 1.259 . S
C105 O100 1.254 . S
C105 O101 1.269 1_554 S
C106 O107 1.249 . S
C106 O108 1.270 . S
O107 Zn99 1.943 . S
O107 C106 1.249 . S
O108 Zn98 2.067 . S
O108 C106 1.270 . S
C109 O102 1.262 . S
C109 O110 1.232 . S
O110 C109 1.232 . S
C111 O103 1.260 . S
C111 O104 1.259 . S
Zn112 O115 2.031 1_455 S
Zn112 O117 2.049 . S
Zn112 O122 2.067 . S
Zn113 O114 1.962 1_456 S
Zn113 O116 1.986 1_556 S
Zn113 O118 1.996 . S
Zn113 O121 1.943 . S
O114 Zn113 1.962 1_654 S
O114 C119 1.254 . S
O115 Zn112 2.031 1_655 S
O115 C119 1.269 1_556 S
O116 Zn113 1.986 1_554 S
O116 C123 1.262 . S
O117 Zn112 2.049 . S
O117 C125 1.260 . S
O118 Zn113 1.996 . S
O118 C125 1.259 . S
C119 O114 1.254 . S
C119 O115 1.269 1_554 S
C120 O121 1.249 . S
C120 O122 1.270 . S
O121 Zn113 1.943 . S
O121 C120 1.249 . S
O122 Zn112 2.067 . S
O122 C120 1.270 . S
C123 O116 1.262 . S
C123 O124 1.232 . S
O124 C123 1.232 . S
C125 O117 1.260 . S
C125 O118 1.259 . S
Zn126 O129 2.031 . S
Zn126 O131 2.049 . S
Zn126 O136 2.067 . S
Zn127 O128 1.962 . S
Zn127 O130 1.986 . S
Zn127 O132 1.996 . S
Zn127 O135 1.943 . S
O128 Zn127 1.962 . S
O128 C133 1.254 . S
O129 Zn126 2.031 . S
O129 C133 1.269 . S
O130 Zn127 1.986 . S
O130 C137 1.262 . S
O131 Zn126 2.049 . S
O131 C139 1.260 . S
O132 Zn127 1.996 . S
O132 C139 1.257 . S
C133 O128 1.254 . S
C133 O129 1.269 . S
C134 O135 1.249 . S
C134 O136 1.270 . S
O135 Zn127 1.943 . S
O135 C134 1.249 . S
O136 Zn126 2.067 . S
O136 C134 1.270 . S
C137 O130 1.262 . S
C137 O138 1.232 . S
O138 C137 1.232 . S
C139 O131 1.260 . S
C139 O132 1.257 . S
Zn140 O143 2.031 1_545 S
Zn140 O145 2.049 . S
Zn140 O150 2.067 . S
Zn141 O142 1.962 1_545 S
Zn141 O144 1.986 . S
Zn141 O146 1.996 . S
Zn141 O149 1.943 . S
O142 Zn141 1.962 1_565 S
O142 C147 1.254 . S
O143 Zn140 2.031 1_565 S
O143 C147 1.269 . S
O144 Zn141 1.986 . S
O144 C151 1.262 . S
O145 Zn140 2.049 . S
O145 C153 1.260 . S
O146 Zn141 1.996 . S
O146 C153 1.257 . S
C147 O142 1.254 . S
C147 O143 1.269 . S
C148 O149 1.249 . S
C148 O150 1.270 . S
O149 Zn141 1.943 . S
O149 C148 1.249 . S
O150 Zn140 2.067 . S
O150 C148 1.270 . S
C151 O144 1.262 . S
C151 O152 1.232 . S
O152 C151 1.232 . S
C153 O145 1.260 . S
C153 O146 1.257 . S
Zn154 O157 2.031 1_655 S
Zn154 O159 2.049 . S
Zn154 O164 2.067 . S
Zn155 O156 1.962 1_655 S
Zn155 O158 1.986 . S
Zn155 O160 1.996 . S
Zn155 O163 1.943 . S
O156 Zn155 1.962 1_455 S
O156 C161 1.254 . S
O157 Zn154 2.031 1_455 S
O157 C161 1.269 . S
O158 Zn155 1.986 . S
O158 C165 1.262 . S
O159 Zn154 2.049 . S
O159 C167 1.260 . S
O160 Zn155 1.996 . S
O160 C167 1.257 . S
C161 O156 1.254 . S
C161 O157 1.269 . S
C162 O163 1.249 . S
C162 O164 1.270 . S
O163 Zn155 1.943 . S
O163 C162 1.249 . S
O164 Zn154 2.067 . S
O164 C162 1.270 . S
C165 O158 1.262 . S
C165 O166 1.232 . S
O166 C165 1.232 . S
C167 O159 1.260 . S
C167 O160 1.257 . S
Zn168 O171 2.031 . S
Zn168 O173 2.049 . S
Zn168 O178 2.067 . S
Zn169 O170 1.962 . S
Zn169 O172 1.986 . S
Zn169 O174 1.996 . S
Zn169 O177 1.943 . S
O170 Zn169 1.962 . S
O170 C175 1.254 . S
O171 Zn168 2.031 . S
O171 C175 1.269 . S
O172 Zn169 1.986 . S
O172 C179 1.262 . S
O173 Zn168 2.049 . S
O173 C181 1.260 . S
O174 Zn169 1.996 . S
O174 C181 1.257 . S
C175 O170 1.254 . S
C175 O171 1.269 . S
C176 O177 1.249 . S
C176 O178 1.270 . S
O177 Zn169 1.943 . S
O177 C176 1.249 . S
O178 Zn168 2.067 . S
O178 C176 1.270 . S
C179 O172 1.262 . S
C179 O180 1.232 . S
O180 C179 1.232 . S
C181 O173 1.260 . S
C181 O174 1.257 . S
Zn182 O185 2.031 . S
Zn182 O187 2.049 . S
Zn182 O192 2.067 . S
Zn183 O184 1.962 . S
Zn183 O186 1.986 . S
Zn183 O188 1.996 . S
Zn183 O191 1.943 . S
O184 Zn183 1.962 . S
O184 C189 1.254 . S
O185 Zn182 2.031 . S
O185 C189 1.269 . S
O186 Zn183 1.986 . S
O186 C193 1.262 . S
O187 Zn182 2.049 . S
O187 C195 1.260 . S
O188 Zn183 1.996 . S
O188 C195 1.257 . S
C189 O184 1.254 . S
C189 O185 1.269 . S
C190 O191 1.249 . S
C190 O192 1.270 . S
O191 Zn183 1.943 . S
O191 C190 1.249 . S
O192 Zn182 2.067 . S
O192 C190 1.270 . S
C193 O186 1.262 . S
C193 O194 1.232 . S
O194 C193 1.232 . S
C195 O187 1.260 . S
C195 O188 1.257 . S
Zn196 O199 2.031 . S
Zn196 O201 2.049 . S
Zn196 O206 2.067 . S
Zn197 O198 1.962 . S
Zn197 O200 1.986 . S
Zn197 O202 1.996 . S
Zn197 O205 1.943 . S
O198 Zn197 1.962 . S
O198 C203 1.254 . S
O199 Zn196 2.031 . S
O199 C203 1.269 . S
O200 Zn197 1.986 . S
O200 C207 1.262 . S
O201 Zn196 2.049 . S
O201 C209 1.260 . S
O202 Zn197 1.996 . S
O202 C209 1.257 . S
C203 O198 1.254 . S
C203 O199 1.269 . S
C204 O205 1.249 . S
C204 O206 1.270 . S
O205 Zn197 1.943 . S
O205 C204 1.249 . S
O206 Zn196 2.067 . S
O206 C204 1.270 . S
C207 O200 1.262 . S
C207 O208 1.232 . S
O208 C207 1.232 . S
C209 O201 1.260 . S
C209 O202 1.257 . S
Zn210 O213 2.031 . S
Zn210 O215 2.049 . S
Zn210 O220 2.067 . S
Zn211 O212 1.962 . S
Zn211 O214 1.986 . S
Zn211 O216 1.996 . S
Zn211 O219 1.943 . S
O212 Zn211 1.962 . S
O212 C217 1.254 . S
O213 Zn210 2.031 . S
O213 C217 1.269 . S
O214 Zn211 1.986 . S
O214 C221 1.262 . S
O215 Zn210 2.049 . S
O215 C223 1.260 . S
O216 Zn211 1.996 . S
O216 C223 1.257 . S
C217 O212 1.254 . S
C217 O213 1.269 . S
C218 O219 1.249 . S
C218 O220 1.270 . S
O219 Zn211 1.943 . S
O219 C218 1.249 . S
O220 Zn210 2.067 . S
O220 C218 1.270 . S
C221 O214 1.262 . S
C221 O222 1.232 . S
O222 C221 1.232 . S
C223 O215 1.260 . S
C223 O216 1.257 . S
Zn224 O227 2.031 . S
Zn224 O229 2.049 . S
Zn224 O234 2.067 . S
Zn225 O226 1.962 . S
Zn225 O228 1.986 . S
Zn225 O230 1.996 . S
Zn225 O233 1.943 . S
O226 Zn225 1.962 . S
O226 C231 1.254 . S
O227 Zn224 2.031 . S
O227 C231 1.269 . S
O228 Zn225 1.986 . S
O228 C235 1.262 . S
O229 Zn224 2.049 . S
O229 C237 1.260 . S
O230 Zn225 1.996 . S
O230 C237 1.257 . S
C231 O226 1.254 . S
C231 O227 1.269 . S
C232 O233 1.249 . S
C232 O234 1.270 . S
O233 Zn225 1.943 . S
O233 C232 1.249 . S
O234 Zn224 2.067 . S
O234 C232 1.270 . S
C235 O228 1.262 . S
C235 O236 1.232 . S
O236 C235 1.232 . S
C237 O229 1.260 . S
C237 O230 1.257 . S
Zn238 O241 2.031 . S
Zn238 O243 2.049 . S
Zn238 O248 2.067 . S
Zn239 O240 1.962 . S
Zn239 O242 1.986 . S
Zn239 O244 1.996 . S
Zn239 O247 1.943 . S
O240 Zn239 1.962 . S
O240 C245 1.254 . S
O241 Zn238 2.031 . S
O241 C245 1.269 . S
O242 Zn239 1.986 . S
O242 C249 1.262 . S
O243 Zn238 2.049 . S
O243 C251 1.260 . S
O244 Zn239 1.996 . S
O244 C251 1.257 . S
C245 O240 1.254 . S
C245 O241 1.269 . S
C246 O247 1.249 . S
C246 O248 1.270 . S
O247 Zn239 1.943 . S
O247 C246 1.249 . S
O248 Zn238 2.067 . S
O248 C246 1.270 . S
C249 O242 1.262 . S
C249 O250 1.232 . S
O250 C249 1.232 . S
C251 O243 1.260 . S
C251 O244 1.257 . S
Zn252 O255 2.031 . S
Zn252 O257 2.049 . S
Zn252 O262 2.067 . S
Zn253 O254 1.962 . S
Zn253 O256 1.986 . S
Zn253 O258 1.996 . S
Zn253 O261 1.943 . S
O254 Zn253 1.962 . S
O254 C259 1.254 . S
O255 Zn252 2.031 . S
O255 C259 1.269 . S
O256 Zn253 1.986 . S
O256 C263 1.262 . S
O257 Zn252 2.049 . S
O257 C265 1.260 . S
O258 Zn253 1.996 . S
O258 C265 1.257 . S
C259 O254 1.254 . S
C259 O255 1.269 . S
C260 O261 1.249 . S
C260 O262 1.270 . S
O261 Zn253 1.943 . S
O261 C260 1.249 . S
O262 Zn252 2.067 . S
O262 C260 1.270 . S
C263 O256 1.262 . S
C263 O264 1.232 . S
O264 C263 1.232 . S
C265 O257 1.260 . S
C265 O258 1.257 . S
Zn266 O269 2.031 . S
Zn266 O271 2.049 . S
Zn266 O276 2.067 . S
Zn267 O268 1.962 . S
Zn267 O270 1.986 . S
Zn267 O272 1.996 . S
Zn267 O275 1.943 . S
O268 Zn267 1.962 . S
O268 C273 1.254 . S
O269 Zn266 2.031 . S
O269 C273 1.269 . S
O270 Zn267 1.986 . S
O270 C277 1.262 . S
O271 Zn266 2.049 . S
O271 C279 1.260 . S
O272 Zn267 1.996 . S
O272 C279 1.257 . S
C273 O268 1.254 . S
C273 O269 1.269 . S
C274 O275 1.249 . S
C274 O276 1.270 . S
O275 Zn267 1.943 . S
O275 C274 1.249 . S
O276 Zn266 2.067 . S
O276 C274 1.270 . S
C277 O270 1.262 . S
C277 O278 1.232 . S
O278 C277 1.232 . S
C279 O271 1.260 . S
C279 O272 1.257 . S
Zn280 O283 2.031 . S
Zn280 O285 2.049 . S
Zn280 O290 2.067 . S
Zn281 O282 1.962 . S
Zn281 O284 1.986 . S
Zn281 O286 1.996 . S
Zn281 O289 1.943 . S
O282 Zn281 1.962 . S
O282 C287 1.254 . S
O283 Zn280 2.031 . S
O283 C287 1.269 . S
O284 Zn281 1.986 . S
O284 C291 1.262 . S
O285 Zn280 2.049 . S
O285 C293 1.260 . S
O286 Zn281 1.996 . S
O286 C293 1.257 . S
C287 O282 1.254 . S
C287 O283 1.269 . S
C288 O289 1.249 . S
C288 O290 1.270 . S
O289 Zn281 1.943 . S
O289 C288 1.249 . S
O290 Zn280 2.067 . S
O290 C288 1.270 . S
C291 O284 1.262 . S
C291 O292 1.232 . S
O292 C291 1.232 . S
C293 O285 1.260 . S
C293 O286 1.257 . S
Zn294 O297 2.031 . S
Zn294 O299 2.049 . S
Zn294 O304 2.067 1_556 S
Zn295 O296 1.962 . S
Zn295 O298 1.986 . S
Zn295 O300 1.996 . S
Zn295 O303 1.943 . S
O296 Zn295 1.962 . S
O296 C301 1.254 . S
O297 Zn294 2.031 . S
O297 C301 1.269 . S
O298 Zn295 1.986 . S
O298 C305 1.262 . S
O299 Zn294 2.049 . S
O299 C307 1.260 . S
O300 Zn295 1.996 . S
O300 C307 1.257 . S
C301 O296 1.254 . S
C301 O297 1.269 . S
C302 O303 1.249 1_554 S
C302 O304 1.270 . S
O303 Zn295 1.943 . S
O303 C302 1.249 1_556 S
O304 Zn294 2.067 1_554 S
O304 C302 1.270 . S
C305 O298 1.262 . S
C305 O306 1.232 . S
O306 C305 1.232 . S
C307 O299 1.260 . S
C307 O300 1.257 . S
Zn308 O311 2.031 . S
Zn308 O313 2.049 . S
Zn308 O318 2.067 1_556 S
Zn309 O310 1.962 . S
Zn309 O312 1.986 . S
Zn309 O314 1.996 . S
Zn309 O317 1.943 . S
O310 Zn309 1.962 . S
O310 C315 1.254 . S
O311 Zn308 2.031 . S
O311 C315 1.269 . S
O312 Zn309 1.986 . S
O312 C319 1.262 . S
O313 Zn308 2.049 . S
O313 C321 1.260 . S
O314 Zn309 1.996 . S
O314 C321 1.257 . S
C315 O310 1.254 . S
C315 O311 1.269 . S
C316 O317 1.249 1_554 S
C316 O318 1.270 . S
O317 Zn309 1.943 . S
O317 C316 1.249 1_556 S
O318 Zn308 2.067 1_554 S
O318 C316 1.270 . S
C319 O312 1.262 . S
C319 O320 1.232 . S
O320 C319 1.232 . S
C321 O313 1.260 . S
C321 O314 1.257 . S
Zn322 O325 2.031 . S
Zn322 O327 2.049 . S
Zn322 O332 2.067 1_556 S
Zn323 O324 1.962 . S
Zn323 O326 1.986 . S
Zn323 O328 1.996 . S
Zn323 O331 1.943 . S
O324 Zn323 1.962 . S
O324 C329 1.254 . S
O325 Zn322 2.031 . S
O325 C329 1.269 . S
O326 Zn323 1.986 . S
O326 C333 1.262 . S
O327 Zn322 2.049 . S
O327 C335 1.260 . S
O328 Zn323 1.996 . S
O328 C335 1.257 . S
C329 O324 1.254 . S
C329 O325 1.269 . S
C330 O331 1.249 1_554 S
C330 O332 1.270 . S
O331 Zn323 1.943 . S
O331 C330 1.249 1_556 S
O332 Zn322 2.067 1_554 S
O332 C330 1.270 . S
C333 O326 1.262 . S
C333 O334 1.232 . S
O334 C333 1.232 . S
C335 O327 1.260 . S
C335 O328 1.257 . S
Zn336 O339 2.031 . S
Zn336 O341 2.049 . S
Zn336 O346 2.067 . S
Zn337 O338 1.962 . S
Zn337 O340 1.986 . S
Zn337 O342 1.996 . S
Zn337 O345 1.943 . S
O338 Zn337 1.962 . S
O338 C343 1.254 . S
O339 Zn336 2.031 . S
O339 C343 1.269 . S
O340 Zn337 1.986 . S
O340 C347 1.262 . S
O341 Zn336 2.049 . S
O341 C349 1.260 . S
O342 Zn337 1.996 . S
O342 C349 1.257 . S
C343 O338 1.254 . S
C343 O339 1.269 . S
C344 O345 1.249 . S
C344 O346 1.270 . S
O345 Zn337 1.943 . S
O345 C344 1.249 . S
O346 Zn336 2.067 . S
O346 C344 1.270 . S
C347 O340 1.262 . S
C347 O348 1.232 . S
O348 C347 1.232 . S
C349 O341 1.260 . S
C349 O342 1.257 . S
Zn350 O353 2.031 . S
Zn350 O355 2.049 . S
Zn350 O360 2.067 . S
Zn351 O352 1.962 . S
Zn351 O354 1.986 . S
Zn351 O356 1.996 . S
Zn351 O359 1.943 . S
O352 Zn351 1.962 . S
O352 C357 1.254 . S
O353 Zn350 2.031 . S
O353 C357 1.269 . S
O354 Zn351 1.986 . S
O354 C361 1.262 . S
O355 Zn350 2.049 . S
O355 C363 1.260 . S
O356 Zn351 1.996 . S
O356 C363 1.257 . S
C357 O352 1.254 . S
C357 O353 1.269 . S
C358 O359 1.249 . S
C358 O360 1.270 . S
O359 Zn351 1.943 . S
O359 C358 1.249 . S
O360 Zn350 2.067 . S
O360 C358 1.270 . S
C361 O354 1.262 . S
C361 O362 1.232 . S
O362 C361 1.232 . S
C363 O355 1.260 . S
C363 O356 1.257 . S
Zn364 O367 2.031 . S
Zn364 O369 2.049 . S
Zn364 O374 2.067 . S
Zn365 O366 1.962 . S
Zn365 O368 1.986 . S
Zn365 O370 1.996 . S
Zn365 O373 1.943 . S
O366 Zn365 1.962 . S
O366 C371 1.254 . S
O367 Zn364 2.031 . S
O367 C371 1.269 . S
O368 Zn365 1.986 . S
O368 C375 1.262 . S
O369 Zn364 2.049 . S
O369 C377 1.260 . S
O370 Zn365 1.996 . S
O370 C377 1.257 . S
C371 O366 1.254 . S
C371 O367 1.269 . S
C372 O373 1.249 . S
C372 O374 1.270 . S
O373 Zn365 1.943 . S
O373 C372 1.249 . S
O374 Zn364 2.067 . S
O374 C372 1.270 . S
C375 O368 1.262 . S
C375 O376 1.232 . S
O376 C375 1.232 . S
C377 O369 1.260 . S
C377 O370 1.257 . S
Zn378 O381 2.031 . S
Zn378 O383 2.049 . S
Zn378 O388 2.067 1_554 S
Zn379 O380 1.962 . S
Zn379 O382 1.986 . S
Zn379 O384 1.996 . S
Zn379 O387 1.943 . S
O380 Zn379 1.962 . S
O380 C385 1.254 . S
O381 Zn378 2.031 . S
O381 C385 1.269 . S
O382 Zn379 1.986 . S
O382 C389 1.262 . S
O383 Zn378 2.049 . S
O383 C391 1.260 . S
O384 Zn379 1.996 . S
O384 C391 1.257 . S
C385 O380 1.254 . S
C385 O381 1.269 . S
C386 O387 1.249 1_556 S
C386 O388 1.270 . S
O387 Zn379 1.943 . S
O387 C386 1.249 1_554 S
O388 Zn378 2.067 1_556 S
O388 C386 1.270 . S
C389 O382 1.262 . S
C389 O390 1.232 . S
O390 C389 1.232 . S
C391 O383 1.260 . S
C391 O384 1.257 . S
Zn392 O395 2.031 . S
Zn392 O397 2.049 . S
Zn392 O402 2.067 1_554 S
Zn393 O394 1.962 . S
Zn393 O396 1.986 . S
Zn393 O398 1.996 . S
Zn393 O401 1.943 . S
O394 Zn393 1.962 . S
O394 C399 1.254 . S
O395 Zn392 2.031 . S
O395 C399 1.269 . S
O396 Zn393 1.986 . S
O396 C403 1.262 . S
O397 Zn392 2.049 . S
O397 C405 1.260 . S
O398 Zn393 1.996 . S
O398 C405 1.257 . S
C399 O394 1.254 . S
C399 O395 1.269 . S
C400 O401 1.249 1_556 S
C400 O402 1.270 . S
O401 Zn393 1.943 . S
O401 C400 1.249 1_554 S
O402 Zn392 2.067 1_556 S
O402 C400 1.270 . S
C403 O396 1.262 . S
C403 O404 1.232 . S
O404 C403 1.232 . S
C405 O397 1.260 . S
C405 O398 1.257 . S
Zn406 O409 2.031 . S
Zn406 O411 2.049 . S
Zn406 O416 2.067 1_554 S
Zn407 O408 1.962 . S
Zn407 O410 1.986 . S
Zn407 O412 1.996 . S
Zn407 O415 1.943 . S
O408 Zn407 1.962 . S
O408 C413 1.254 . S
O409 Zn406 2.031 . S
O409 C413 1.269 . S
O410 Zn407 1.986 . S
O410 C417 1.262 . S
O411 Zn406 2.049 . S
O411 C419 1.260 . S
O412 Zn407 1.996 . S
O412 C419 1.257 . S
C413 O408 1.254 . S
C413 O409 1.269 . S
C414 O415 1.249 1_556 S
C414 O416 1.270 . S
O415 Zn407 1.943 . S
O415 C414 1.249 1_554 S
O416 Zn406 2.067 1_556 S
O416 C414 1.270 . S
C417 O410 1.262 . S
C417 O418 1.232 . S
O418 C417 1.232 . S
C419 O411 1.260 . S
C419 O412 1.257 . S
Zn420 O423 2.031 . S
Zn420 O425 2.049 . S
Zn420 O430 2.067 . S
Zn421 O422 1.962 . S
Zn421 O424 1.986 . S
Zn421 O426 1.996 . S
Zn421 O429 1.943 . S
O422 Zn421 1.962 . S
O422 C427 1.254 . S
O423 Zn420 2.031 . S
O423 C427 1.269 . S
O424 Zn421 1.986 . S
O424 C431 1.262 . S
O425 Zn420 2.049 . S
O425 C433 1.260 . S
O426 Zn421 1.996 . S
O426 C433 1.257 . S
C427 O422 1.254 . S
C427 O423 1.269 . S
C428 O429 1.249 . S
C428 O430 1.270 . S
O429 Zn421 1.943 . S
O429 C428 1.249 . S
O430 Zn420 2.067 . S
O430 C428 1.270 . S
C431 O424 1.262 . S
C431 O432 1.232 . S
O432 C431 1.232 . S
C433 O425 1.260 . S
C433 O426 1.257 . S
Zn434 O437 2.031 . S
Zn434 O439 2.049 . S
Zn434 O444 2.067 . S
Zn435 O436 1.962 . S
Zn435 O438 1.986 . S
Zn435 O440 1.996 . S
Zn435 O443 1.943 . S
O436 Zn435 1.962 . S
O436 C441 1.254 . S
O437 Zn434 2.031 . S
O437 C441 1.269 . S
O438 Zn435 1.986 . S
O438 C445 1.262 . S
O439 Zn434 2.049 . S
O439 C447 1.260 . S
O440 Zn435 1.996 . S
O440 C447 1.257 . S
C441 O436 1.254 . S
C441 O437 1.269 . S
C442 O443 1.249 . S
C442 O444 1.270 . S
O443 Zn435 1.943 . S
O443 C442 1.249 . S
O444 Zn434 2.067 . S
O444 C442 1.270 . S
C445 O438 1.262 . S
C445 O446 1.232 . S
O446 C445 1.232 . S
C447 O439 1.260 . S
C447 O440 1.257 . S
Zn448 O451 2.031 . S
Zn448 O453 2.049 . S
Zn448 O458 2.067 . S
Zn449 O450 1.962 . S
Zn449 O452 1.986 . S
Zn449 O454 1.996 . S
Zn449 O457 1.943 . S
O450 Zn449 1.962 . S
O450 C455 1.254 . S
O451 Zn448 2.031 . S
O451 C455 1.269 . S
O452 Zn449 1.986 . S
O452 C459 1.262 . S
O453 Zn448 2.049 . S
O453 C461 1.260 . S
O454 Zn449 1.996 . S
O454 C461 1.257 . S
C455 O450 1.254 . S
C455 O451 1.269 . S
C456 O457 1.249 . S
C456 O458 1.270 . S
O457 Zn449 1.943 . S
O457 C456 1.249 . S
O458 Zn448 2.067 . S
O458 C456 1.270 . S
C459 O452 1.262 . S
C459 O460 1.232 . S
O460 C459 1.232 . S
C461 O453 1.260 . S
C461 O454 1.257 . S
Zn462 O465 2.031 . S
Zn462 O467 2.049 . S
Zn462 O472 2.067 . S
Zn463 O464 1.962 . S
Zn463 O466 1.986 . S
Zn463 O468 1.996 . S
Zn463 O471 1.943 . S
O464 Zn463 1.962 . S
O464 C469 1.254 . S
O465 Zn462 2.031 . S
O465 C469 1.269 . S
O466 Zn463 1.986 . S
O466 C473 1.262 . S
O467 Zn462 2.049 . S
O467 C475 1.260 . S
O468 Zn463 1.996 . S
O468 C475 1.257 . S
C469 O464 1.254 . S
C469 O465 1.269 . S
C470 O471 1.249 . S
C470 O472 1.270 . S
O471 Zn463 1.943 . S
O471 C470 1.249 . S
O472 Zn462 2.067 . S
O472 C470 1.270 . S
C473 O466 1.262 . S
C473 O474 1.232 . S
O474 C473 1.232 . S
C475 O467 1.260 . S
C475 O468 1.257 . S
Zn476 O479 2.031 . S
Zn476 O481 2.049 . S
Zn476 O486 2.067 . S
Zn477 O478 1.962 . S
Zn477 O480 1.986 . S
Zn477 O482 1.996 . S
Zn477 O485 1.943 . S
O478 Zn477 1.962 . S
O478 C483 1.254 . S
O479 Zn476 2.031 . S
O479 C483 1.269 . S
O480 Zn477 1.986 . S
O480 C487 1.262 . S
O481 Zn476 2.049 . S
O481 C489 1.260 . S
O482 Zn477 1.996 . S
O482 C489 1.257 . S
C483 O478 1.254 . S
C483 O479 1.269 . S
C484 O485 1.249 . S
C484 O486 1.270 . S
O485 Zn477 1.943 . S
O485 C484 1.249 . S
O486 Zn476 2.067 . S
O486 C484 1.270 . S
C487 O480 1.262 . S
C487 O488 1.232 . S
O488 C487 1.232 . S
C489 O481 1.260 . S
C489 O482 1.257 . S
Zn490 O493 2.031 . S
Zn490 O495 2.049 . S
Zn490 O500 2.067 . S
Zn491 O492 1.962 . S
Zn491 O494 1.986 . S
Zn491 O496 1.996 . S
Zn491 O499 1.943 . S
O492 Zn491 1.962 . S
O492 C497 1.254 . S
O493 Zn490 2.031 . S
O493 C497 1.269 . S
O494 Zn491 1.986 . S
O494 C501 1.262 . S
O495 Zn490 2.049 . S
O495 C503 1.260 . S
O496 Zn491 1.996 . S
O496 C503 1.257 . S
C497 O492 1.254 . S
C497 O493 1.269 . S
C498 O499 1.249 . S
C498 O500 1.270 . S
O499 Zn491 1.943 . S
O499 C498 1.249 . S
O500 Zn490 2.067 . S
O500 C498 1.270 . S
C501 O494 1.262 . S
C501 O502 1.232 . S
O502 C501 1.232 . S
C503 O495 1.260 . S
C503 O496 1.257 . S
C235 C11 1.394 . S
C249 C25 1.394 . S
C39 C221 1.394 . S
C375 C53 1.394 . S
C347 C67 1.394 . S
C81 C361 1.394 . S
C487 C95 1.394 . S
C501 C109 1.394 . S
C473 C123 1.394 . S
C291 C137 1.394 . S
C151 C263 1.394 . S
C277 C165 1.394 . S
C403 C179 1.394 1_455 S
C193 C417 1.394 . S
C389 C207 1.393 1_565 S
C459 C305 1.393 1_565 S
C431 C319 1.394 1_455 S
C333 C445 1.394 . S
C105 C13 1.433 . S
C119 C27 1.433 . S
C91 C41 1.433 . S
C55 C161 1.433 . S
C133 C69 1.433 . S
C83 C147 1.433 . S
C21 C97 1.433 . S
C111 C35 1.433 . S
C7 C125 1.433 . S
C77 C139 1.433 . S
C49 C153 1.433 . S
C167 C63 1.433 . S
C181 C273 1.433 . S
C287 C195 1.433 . S
C259 C209 1.433 . S
C223 C329 1.433 . S
C301 C237 1.433 . S
C251 C315 1.433 . S
C265 C189 1.433 . S
C279 C203 1.433 . S
C175 C293 1.433 . S
C245 C307 1.433 . S
C217 C321 1.433 . S
C335 C231 1.433 . S
C441 C349 1.433 . S
C363 C455 1.433 . S
C377 C427 1.433 . S
C497 C391 1.433 . S
C405 C469 1.433 . S
C483 C419 1.433 . S
C357 C433 1.433 . S
C371 C447 1.433 . S
C461 C343 1.433 . S
C475 C413 1.433 . S
C385 C489 1.433 . S
C399 C503 1.433 . S
C8 C50 1.353 . S
C22 C64 1.353 1_545 S
C78 C36 1.353 1_455 S
C92 C134 1.353 . S
C148 C106 1.353 1_545 S
C162 C120 1.353 1_655 S
C176 C218 1.352 . S
C190 C232 1.352 . S
C246 C204 1.352 . S
C260 C302 1.352 . S
C274 C316 1.352 . S
C288 C330 1.352 . S
C386 C344 1.352 . S
C400 C358 1.352 . S
C414 C372 1.352 . S
C428 C470 1.352 . S
C484 C442 1.352 . S
C498 C456 1.352 . S
