# Generated by pormake.
# Topology sod, (4)-cn, num edge types: 1
# Building blocks:
#     Node 0, Type 0, BuildingBlock: QUQFOY_clean_sbu_3, # of connection points: 4
#     Node 1, Type 0, BuildingBlock: QUQFOY_clean_sbu_3, # of connection points: 4
#     Node 2, Type 0, BuildingBlock: QUQFOY_clean_sbu_3, # of connection points: 4
#     Node 3, Type 0, BuildingBlock: QUQFOY_clean_sbu_3, # of connection points: 4
#     Node 4, Type 0, BuildingBlock: QUQFOY_clean_sbu_3, # of connection points: 4
#     Node 5, Type 0, BuildingBlock: QUQFOY_clean_sbu_3, # of connection points: 4
#     Node 6, Type 0, BuildingBlock: QUQFOY_clean_sbu_3, # of connection points: 4
#     Node 7, Type 0, BuildingBlock: QUQFOY_clean_sbu_3, # of connection points: 4
#     Node 8, Type 0, BuildingBlock: QUQFOY_clean_sbu_3, # of connection points: 4
#     Node 9, Type 0, BuildingBlock: QUQFOY_clean_sbu_3, # of connection points: 4
#     Node 10, Type 0, BuildingBlock: QUQFOY_clean_sbu_3, # of connection points: 4
#     Node 11, Type 0, BuildingBlock: QUQFOY_clean_sbu_3, # of connection points: 4
#     Edge 12, Type (0, 0), BuildingBlock: ZUJKAS_clean_linker_0, # of connection points: 2
#     Edge 13, Type (0, 0), BuildingBlock: ZUJKAS_clean_linker_0, # of connection points: 2
#     Edge 14, Type (0, 0), BuildingBlock: ZUJKAS_clean_linker_0, # of connection points: 2
#     Edge 15, Type (0, 0), BuildingBlock: ZUJKAS_clean_linker_0, # of connection points: 2
#     Edge 16, Type (0, 0), BuildingBlock: ZUJKAS_clean_linker_0, # of connection points: 2
#     Edge 17, Type (0, 0), BuildingBlock: ZUJKAS_clean_linker_0, # of connection points: 2
#     Edge 18, Type (0, 0), BuildingBlock: ZUJKAS_clean_linker_0, # of connection points: 2
#     Edge 19, Type (0, 0), BuildingBlock: ZUJKAS_clean_linker_0, # of connection points: 2
#     Edge 20, Type (0, 0), BuildingBlock: ZUJKAS_clean_linker_0, # of connection points: 2
#     Edge 21, Type (0, 0), BuildingBlock: ZUJKAS_clean_linker_0, # of connection points: 2
#     Edge 22, Type (0, 0), BuildingBlock: ZUJKAS_clean_linker_0, # of connection points: 2
#     Edge 23, Type (0, 0), BuildingBlock: ZUJKAS_clean_linker_0, # of connection points: 2
#     Edge 24, Type (0, 0), BuildingBlock: ZUJKAS_clean_linker_0, # of connection points: 2
#     Edge 25, Type (0, 0), BuildingBlock: ZUJKAS_clean_linker_0, # of connection points: 2
#     Edge 26, Type (0, 0), BuildingBlock: ZUJKAS_clean_linker_0, # of connection points: 2
#     Edge 27, Type (0, 0), BuildingBlock: ZUJKAS_clean_linker_0, # of connection points: 2
#     Edge 28, Type (0, 0), BuildingBlock: ZUJKAS_clean_linker_0, # of connection points: 2
#     Edge 29, Type (0, 0), BuildingBlock: ZUJKAS_clean_linker_0, # of connection points: 2
#     Edge 30, Type (0, 0), BuildingBlock: ZUJKAS_clean_linker_0, # of connection points: 2
#     Edge 31, Type (0, 0), BuildingBlock: ZUJKAS_clean_linker_0, # of connection points: 2
#     Edge 32, Type (0, 0), BuildingBlock: ZUJKAS_clean_linker_0, # of connection points: 2
#     Edge 33, Type (0, 0), BuildingBlock: ZUJKAS_clean_linker_0, # of connection points: 2
#     Edge 34, Type (0, 0), BuildingBlock: ZUJKAS_clean_linker_0, # of connection points: 2
#     Edge 35, Type (0, 0), BuildingBlock: ZUJKAS_clean_linker_0, # of connection points: 2
# Relax obj value: 0.139
# Max RMSD: 0.179
# Mean RMSD: 0.168
data_MOF--net-sod--node1-QUQFOY_clean_sbu_3--edge1-ZUJKAS_clean_linker_0
_symmetry_space_group_name_H-M    P1
_symmetry_Int_Tables_number       1
_symmetry_cell_setting            triclinic
loop_
_symmetry_equiv_pos_as_xyz
'x, y, z'
_cell_length_a     55.345413
_cell_length_b     56.081257
_cell_length_c     55.736935
_cell_angle_alpha  92.476181
_cell_angle_beta   90.02098
_cell_angle_gamma 91.293925
loop_
_atom_site_label
_atom_site_type_symbol
_atom_site_fract_x
_atom_site_fract_y
_atom_site_fract_z
_atom_type_partial_charge
C0 C 0.00973 0.22078 0.52279 0.0
O1 O 0.01375 0.23051 0.54345 0.0
Cd2 Cd 0.03748 0.2659 0.55072 0.0
O3 O 0.01815 0.23002 0.50391 0.0
Cd4 Cd 0.04244 0.26648 0.49454 0.0
C5 C 0.09022 0.24697 0.52585 0.0
O6 O 0.02007 0.29143 0.52219 0.0
O7 O 0.05134 0.30898 0.50777 0.0
O8 O 0.02007 0.26777 0.45666 0.0
C9 C 0.03205 0.31059 0.51991 0.0
O10 O 0.07937 0.25325 0.54515 0.0
C11 C 0.03867 0.27218 0.4441 0.0
O12 O 0.08015 0.24916 0.50561 0.0
O13 O 0.05884 0.27325 0.45497 0.0
C14 C 0.72915 0.05768 0.46339 0.0
O15 O 0.73378 0.07846 0.47248 0.0
Cd16 Cd 0.7612 0.08691 0.50531 0.0
O17 O 0.73914 0.03944 0.47158 0.0
Cd18 Cd 0.76805 0.0302 0.5034 0.0
C19 C 0.73288 0.05507 0.54787 0.0
O20 O 0.7954 0.06301 0.49444 0.0
O21 O 0.80663 0.04106 0.52312 0.0
O22 O 0.78062 -0.0049 0.47931 0.0
C23 C 0.81135 0.05817 0.50965 0.0
O24 O 0.73856 0.07581 0.54104 0.0
C25 C 0.7779 0.98088 0.49632 0.0
O26 O 0.7407 0.03659 0.53671 0.0
O27 O 0.77014 0.98964 0.51614 0.0
C28 C 0.92745 0.78219 0.48371 0.0
O29 O 0.93704 0.77783 0.46333 0.0
Cd30 Cd 0.97294 0.75557 0.45664 0.0
O31 O 0.93704 0.7749 0.50279 0.0
Cd32 Cd 0.97334 0.75231 0.51308 0.0
C33 C 0.0123 0.7921 0.48831 0.0
O34 O 0.96744 0.72184 0.48128 0.0
O35 O 0.00063 0.7197 0.50115 0.0
O36 O 0.95227 0.73602 0.54751 0.0
C37 C 0.98625 0.71034 0.48557 0.0
O38 O 0.00659 0.78302 0.4677 0.0
C39 C 0.96926 0.74123 0.5623 0.0
O40 O 0.00181 0.78502 0.50708 0.0
O41 O 0.98755 0.75233 0.55427 0.0
C42 C 0.2903 0.97492 0.47362 0.0
O43 O 0.28571 0.95368 0.47958 0.0
Cd44 Cd 0.25561 0.94175 0.50757 0.0
O45 O 0.27899 0.99243 0.48332 0.0
Cd46 Cd 0.24714 -0.00241 0.51458 0.0
C47 C 0.27835 0.96977 0.55796 0.0
O48 O 0.22207 0.96566 0.49691 0.0
O49 O 0.20827 0.98137 0.52986 0.0
O50 O 0.23479 0.03477 0.49671 0.0
C51 C 0.20506 0.96691 0.51198 0.0
O52 O 0.27336 0.94965 0.5475 0.0
C53 C 0.23558 0.04694 0.51649 0.0
O54 O 0.27194 0.98899 0.54878 0.0
O55 O 0.24185 0.03613 0.53494 0.0
C56 C 0.54708 0.00737 0.28485 0.0
O57 O 0.54254 0.98529 0.28058 0.0
Cd58 Cd 0.51156 0.96932 0.25451 0.0
O59 O 0.53474 0.02317 0.2749 0.0
Cd60 Cd 0.50037 0.02354 0.24621 0.0
C61 C 0.46303 0.99332 0.28341 0.0
O62 O 0.51626 0.99265 0.21979 0.0
O63 O 0.48042 0.00328 0.21064 0.0
O64 O 0.51633 0.05897 0.22732 0.0
C65 C 0.49887 0.99126 0.20507 0.0
O66 O 0.47429 0.97443 0.27746 0.0
C67 C 0.49763 0.07127 0.23109 0.0
O68 O 0.46957 0.01328 0.27528 0.0
O69 O 0.4805 0.06165 0.24263 0.0
C70 C 0.06149 0.52394 0.23376 0.0
O71 O 0.05313 0.54356 0.242 0.0
Cd72 Cd 0.02436 0.54806 0.27354 0.0
O73 O 0.05426 0.50413 0.24199 0.0
Cd74 Cd 0.02483 0.49161 0.27307 0.0
C75 C 0.97669 0.51797 0.24758 0.0
O76 O 0.03875 0.5214 0.30267 0.0
O77 O 0.00692 0.50187 0.31304 0.0
O78 O 0.04795 0.45626 0.28202 0.0
C79 C 0.02351 0.51699 0.31881 0.0
O80 O 0.98476 0.53821 0.25554 0.0
C81 C 0.03017 0.44173 0.27876 0.0
O82 O 0.98858 0.49921 0.25058 0.0
O83 O 0.01038 0.45043 0.27226 0.0
C84 C 0.54356 0.02616 0.72023 0.0
O85 O 0.53248 0.0449 0.72686 0.0
Cd86 Cd 0.50387 0.04743 0.75867 0.0
O87 O 0.53924 0.00643 0.73019 0.0
Cd88 Cd 0.51204 0.99244 0.76262 0.0
C89 C 0.46037 0.00951 0.73559 0.0
O90 O 0.52378 0.0258 0.78907 0.0
O91 O 0.49539 0.00355 0.80296 0.0
O92 O 0.54097 0.96116 0.77053 0.0
C93 C 0.51058 0.02056 0.80663 0.0
O94 O 0.46575 0.03106 0.74186 0.0
C95 C 0.52488 0.94474 0.77182 0.0
O96 O 0.47473 0.9929 0.73996 0.0
O97 O 0.50321 0.95054 0.76824 0.0
C98 C 0.02079 0.50186 0.78739 0.0
O99 O 0.0137 0.48016 0.78553 0.0
Cd100 Cd 0.98515 0.46495 0.75619 0.0
O101 O 0.01159 0.51757 0.77451 0.0
Cd102 Cd 0.97858 0.51888 0.74459 0.0
C103 C 0.93666 0.49224 0.78031 0.0
O104 O -0.00349 0.48664 0.72143 0.0
O105 O 0.96365 0.49939 0.70637 0.0
O106 O -0.00121 0.55602 0.73338 0.0
C107 C 0.9819 0.48625 0.70399 0.0
O108 O 0.94608 0.47223 0.77497 0.0
C109 C 0.9793 0.567 0.73017 0.0
O110 O 0.94591 0.5114 0.77265 0.0
O111 O 0.95969 0.55561 0.73389 0.0
C112 C 0.21396 0.55282 0.95431 0.0
O113 O 0.21625 0.57321 0.96501 0.0
Cd114 Cd 0.24684 0.58398 0.99426 0.0
O115 O 0.22727 0.53561 0.95974 0.0
Cd116 Cd 0.25853 0.5293 0.99026 0.0
C117 C 0.22583 0.55024 0.03847 0.0
O118 O 0.28264 0.56416 0.98005 0.0
O119 O 0.29603 0.54445 0.00945 0.0
O120 O 0.27479 0.4958 0.966 0.0
C121 C 0.29937 0.56104 0.99501 0.0
O122 O 0.23027 0.57148 0.03236 0.0
C123 C 0.27338 0.4813 0.98289 0.0
O124 O 0.23282 0.53257 0.02545 0.0
O125 O 0.26463 0.48912 0.00265 0.0
C126 C 0.43142 0.28634 0.97773 0.0
O127 O 0.44329 0.28292 0.95844 0.0
Cd128 Cd 0.47784 0.25831 0.95381 0.0
O129 O 0.43788 0.27686 -0.00295 0.0
Cd130 Cd 0.47121 0.25118 0.0094 0.0
C131 C 0.51679 0.28847 0.99181 0.0
O132 O 0.46687 0.2235 0.97518 0.0
O133 O 0.49752 0.2175 -0.0022 0.0
O134 O 0.4478 0.23006 0.0394 0.0
C135 C 0.48416 0.21028 0.98036 0.0
O136 O 0.51245 0.28168 0.97012 0.0
C137 C 0.4611 0.23719 0.05696 0.0
O138 O 0.50364 0.28103 0.00874 0.0
O139 O 0.4784 0.25153 0.05251 0.0
C140 C 0.79342 0.47603 0.9898 0.0
O141 O 0.7947 0.45525 -0.00215 0.0
Cd142 Cd 0.76934 0.44081 0.02907 0.0
O143 O 0.77897 0.49119 -0.00086 0.0
Cd144 Cd 0.74952 0.49293 0.03273 0.0
C145 C 0.7891 0.4767 0.07572 0.0
O146 O 0.73041 0.45567 0.01846 0.0
O147 O 0.71463 0.47161 0.05043 0.0
O148 O 0.73209 0.52531 0.01073 0.0
C149 C 0.71367 0.45541 0.03387 0.0
O150 O 0.78759 0.45538 0.06703 0.0
C151 C 0.72866 0.5387 0.02933 0.0
O152 O 0.77817 0.49331 0.06574 0.0
O153 O 0.73477 0.53065 0.04932 0.0
C154 C 0.5012 0.72377 0.01611 0.0
O155 O 0.50633 0.73079 0.03752 0.0
Cd156 Cd 0.53178 0.76406 0.04894 0.0
O157 O 0.51031 0.73437 -0.0017 0.0
Cd158 Cd 0.5391 0.76862 0.99307 0.0
C159 C 0.58364 0.74297 0.02488 0.0
O160 O 0.51793 0.79323 0.02209 0.0
O161 O 0.55061 0.80954 0.00904 0.0
O162 O 0.52008 0.77626 0.95452 0.0
C163 C 0.53131 0.81168 0.02109 0.0
O164 O 0.57266 0.74879 0.04423 0.0
C165 C 0.53995 0.77799 0.94323 0.0
O166 O 0.57456 0.74738 0.00466 0.0
O167 O 0.55911 0.77475 0.95505 0.0
H168 H -0.00175 0.27083 0.4157 0.0
H169 H 0.99416 0.28809 0.37636 0.0
H170 H 0.07044 0.30578 0.37652 0.0
H171 H 0.07478 0.28795 0.41523 0.0
H172 H 0.0016 0.33381 0.37214 0.0
H173 H 0.06144 0.28804 0.307 0.0
H174 H 0.0527 0.27503 0.33488 0.0
H175 H 0.07783 0.29602 0.33398 0.0
C176 C 0.01427 0.27773 0.40697 0.0
C177 C 0.03679 0.27828 0.41866 0.0
C178 C 0.01192 0.28753 0.38447 0.0
C179 C 0.03202 0.29806 0.37333 0.0
C180 C 0.05477 0.29723 0.38436 0.0
H181 H 0.06774 0.41955 0.29968 0.0
H182 H 0.06646 0.38028 0.31713 0.0
C183 C 0.05718 0.28725 0.4067 0.0
C184 C 0.02868 0.31371 0.35288 0.0
H185 H 0.05458 0.33035 0.30037 0.0
C186 C 0.01266 0.33263 0.35609 0.0
C187 C 0.0432 0.31226 0.33199 0.0
C188 C 0.05955 0.29156 0.32668 0.0
C189 C 0.01204 0.35105 0.33997 0.0
C190 C 0.02766 0.35037 0.31989 0.0
C191 C 0.04272 0.33082 0.31586 0.0
C192 C 0.03026 0.37118 0.30465 0.0
C193 C -0.00417 0.37191 0.34543 0.0
C194 C 0.01074 0.37849 0.29095 0.0
C195 C 0.01133 0.40098 0.28114 0.0
C196 C 0.03153 0.4164 0.28478 0.0
C197 C 0.05187 0.40814 0.29671 0.0
C198 C 0.05121 0.38567 0.30661 0.0
H199 H 0.98767 0.37134 0.36361 0.0
H200 H 0.00609 0.38906 0.34415 0.0
H201 H 0.98094 0.37167 0.33208 0.0
H202 H 0.99452 0.36738 0.28906 0.0
H203 H -0.00452 0.40675 0.27178 0.0
H204 H 0.71396 0.01587 0.44068 0.0
H205 H 0.68358 0.01044 0.40903 0.0
H206 H 0.67373 0.08651 0.40963 0.0
H207 H 0.70427 0.09224 0.44123 0.0
H208 H 0.63466 0.02558 0.41343 0.0
H209 H 0.68309 0.06678 0.33754 0.0
H210 H 0.6986 0.05715 0.36382 0.0
H211 H 0.68208 0.08434 0.36529 0.0
C212 C 0.70552 0.0315 0.43398 0.0
C213 C 0.71153 0.0545 0.4435 0.0
C214 C 0.68817 0.02834 0.41591 0.0
C215 C 0.67666 0.0481 0.40691 0.0
C216 C 0.68275 0.0711 0.41612 0.0
H217 H 0.56096 0.05273 0.30041 0.0
H218 H 0.5921 0.0641 0.33031 0.0
C219 C 0.70009 0.0743 0.43425 0.0
C220 C 0.65735 0.04435 0.38881 0.0
H221 H 0.6428 0.05343 0.33045 0.0
C222 C 0.63639 0.03169 0.3953 0.0
C223 C 0.65968 0.05257 0.36529 0.0
C224 C 0.68212 0.06583 0.35739 0.0
C225 C 0.6177 0.0268 0.37876 0.0
C226 C 0.6203 0.03442 0.35504 0.0
C227 C 0.64098 0.0476 0.34868 0.0
C228 C 0.60218 0.0278 0.33636 0.0
C229 C 0.5953 0.01355 0.38683 0.0
C230 C 0.59803 0.00371 0.3296 0.0
C231 C 0.58033 -0.00284 0.31265 0.0
C232 C 0.56653 0.01462 0.30201 0.0
C233 C 0.5712 0.03885 0.30835 0.0
C234 C 0.58897 0.04539 0.32538 0.0
H235 H 0.59329 0.01478 0.40668 0.0
H236 H 0.57883 0.0206 0.37855 0.0
H237 H 0.59659 0.9944 0.38121 0.0
H238 H 0.60841 0.98994 0.33758 0.0
H239 H 0.57737 0.97836 0.30805 0.0
H240 H 0.05897 0.54693 0.33661 0.0
H241 H 0.05625 0.57597 0.37032 0.0
H242 H 0.98373 0.55072 0.38482 0.0
H243 H 0.9865 0.52119 0.35128 0.0
H244 H 0.02321 0.61113 0.37017 0.0
H245 H 0.01272 0.55937 0.45226 0.0
H246 H 0.02404 0.54645 0.42433 0.0
H247 H 0.99212 0.55012 0.42856 0.0
C248 C 0.04261 0.54721 0.34727 0.0
C249 C 0.02285 0.53196 0.3412 0.0
C250 C 0.04112 0.56377 0.36655 0.0
C251 C 0.01987 0.5654 0.38013 0.0
C252 C 0.00048 0.54944 0.37485 0.0
H253 H 0.95954 0.68868 0.44955 0.0
H254 H 0.96907 0.65269 0.42554 0.0
C255 C 0.00202 0.5327 0.35559 0.0
C256 C 0.01694 0.58574 0.39758 0.0
H257 H 0.00278 0.60079 0.45583 0.0
C258 C 0.01903 0.60884 0.38896 0.0
C259 C 0.0116 0.58271 0.42208 0.0
C260 C 0.0102 0.55833 0.43246 0.0
C261 C 0.01522 0.62901 0.40403 0.0
C262 C 0.00886 0.62595 0.42824 0.0
C263 C 0.0075 0.60295 0.43715 0.0
C264 C 0.00254 0.64659 0.4441 0.0
C265 C 0.01776 0.65346 0.39388 0.0
C266 C 0.01806 0.6547 0.46274 0.0
C267 C 0.01272 0.67537 0.47649 0.0
C268 C 0.99172 0.68805 0.4718 0.0
C269 C 0.97593 0.6794 0.45351 0.0
C270 C 0.98131 0.65885 0.43979 0.0
H271 H 0.02783 0.65299 0.37663 0.0
H272 H -0.00048 0.66046 0.39055 0.0
H273 H 0.02723 0.66609 0.4068 0.0
H274 H 0.03453 0.64537 0.46625 0.0
H275 H 0.02514 0.68155 0.49056 0.0
H276 H 0.30318 0.01725 0.45357 0.0
H277 H 0.33223 0.02325 0.42107 0.0
H278 H 0.34713 0.94805 0.41817 0.0
H279 H 0.31849 0.94186 0.45063 0.0
H280 H 0.38872 0.97842 0.41841 0.0
H281 H 0.32142 0.00219 0.34967 0.0
H282 H 0.3208 0.01928 0.3777 0.0
H283 H 0.31283 0.98805 0.37698 0.0
C284 C 0.31269 0.00201 0.44605 0.0
C285 C 0.30843 0.97906 0.45464 0.0
C286 C 0.32915 0.00545 0.4274 0.0
C287 C 0.34151 0.98602 0.41705 0.0
C288 C 0.33765 0.96324 0.42588 0.0
H289 H 0.44545 0.9543 0.3062 0.0
H290 H 0.4155 0.95362 0.33837 0.0
C291 C 0.32124 0.95976 0.44444 0.0
C292 C 0.35873 0.98919 0.39712 0.0
H293 H 0.3624 0.0024 0.33799 0.0
C294 C 0.38301 0.98374 0.40084 0.0
C295 C 0.35115 -0.0038 0.37429 0.0
C296 C 0.32511 0.00162 0.36923 0.0
C297 C 0.39997 0.98495 0.38225 0.0
C298 C 0.39229 0.99135 0.35925 0.0
C299 C 0.36813 -0.00263 0.35565 0.0
C300 C 0.4091 0.99155 0.33866 0.0
C301 C 0.426 0.9795 0.38741 0.0
C302 C 0.41464 0.01295 0.32757 0.0
C303 C 0.43165 0.0134 0.30908 0.0
C304 C 0.44331 0.9924 0.3013 0.0
C305 C 0.43695 0.97081 0.31184 0.0
C306 C 0.41995 0.9704 0.33033 0.0
H307 H 0.43004 0.98102 0.40696 0.0
H308 H 0.42967 0.96094 0.38096 0.0
H309 H 0.43847 0.99173 0.37797 0.0
H310 H 0.40628 0.02941 0.33367 0.0
H311 H 0.43604 0.03032 0.30129 0.0
H312 H 0.01811 0.59717 0.72403 0.0
H313 H 0.01833 0.63557 0.70474 0.0
H314 H 0.94098 0.62947 0.69557 0.0
H315 H 0.94054 0.59163 0.71544 0.0
H316 H 0.00605 0.63987 0.65966 0.0
H317 H 0.94765 0.69881 0.71483 0.0
H318 H 0.9594 0.67154 0.72583 0.0
H319 H 0.93245 0.67087 0.70761 0.0
C320 C 0.0011 0.6043 0.71837 0.0
C321 C 0.97932 0.59135 0.72112 0.0
C322 C 0.00124 0.62626 0.70742 0.0
C323 C 0.97963 0.63559 0.69902 0.0
C324 C 0.95779 0.62303 0.70252 0.0
H325 H 0.93404 0.71445 0.58346 0.0
H326 H 0.93765 0.69321 0.62069 0.0
C327 C 0.9576 0.60123 0.71366 0.0
C328 C 0.98019 0.65645 0.68357 0.0
H329 H 0.95141 0.70816 0.67268 0.0
C330 C 0.99455 0.65509 0.66283 0.0
C331 C 0.96513 0.67628 0.68768 0.0
C332 C 0.9505 0.67958 0.71035 0.0
C333 C 0.99321 0.67226 0.64541 0.0
C334 C 0.9772 0.69137 0.64893 0.0
C335 C 0.96358 0.69337 0.67008 0.0
C336 C 0.97308 0.70805 0.62968 0.0
C337 C 0.00797 0.66916 0.62275 0.0
C338 C 0.99141 0.72411 0.62308 0.0
C339 C 0.98944 0.73622 0.60183 0.0
C340 C 0.96911 0.73237 0.58687 0.0
C341 C 0.94997 0.71767 0.59453 0.0
C342 C 0.95196 0.70559 0.61581 0.0
H343 H 0.01708 0.6517 0.62149 0.0
H344 H -0.00368 0.6706 0.60668 0.0
H345 H 0.02205 0.68354 0.62236 0.0
H346 H 0.00778 0.72627 0.63369 0.0
H347 H 0.00441 0.74757 0.5965 0.0
H348 H 0.44167 0.96523 0.7231 0.0
H349 H 0.40683 0.95542 0.69738 0.0
H350 H 0.39347 0.03034 0.69117 0.0
H351 H 0.42818 0.04044 0.71721 0.0
H352 H 0.35087 0.00085 0.69742 0.0
H353 H 0.41081 0.96568 0.62466 0.0
H354 H 0.41441 0.95257 0.65325 0.0
H355 H 0.42217 0.98355 0.65008 0.0
C356 C 0.43124 0.97967 0.71645 0.0
C357 C 0.4379 0.00366 0.72197 0.0
C358 C 0.41136 0.974 0.70172 0.0
C359 C 0.39791 0.99216 0.69207 0.0
C360 C 0.40376 0.01609 0.69839 0.0
H361 H 0.28983 0.00965 0.58576 0.0
H362 H 0.31648 0.01283 0.62057 0.0
C363 C 0.42361 0.02181 0.71323 0.0
C364 C 0.37856 0.98627 0.67437 0.0
H365 H 0.36893 0.9629 0.61755 0.0
C366 C 0.35474 0.99246 0.67998 0.0
C367 C 0.38374 0.97527 0.65169 0.0
C368 C 0.40918 0.96902 0.64438 0.0
C369 C 0.33591 0.98802 0.6634 0.0
C370 C 0.3412 0.9775 0.64054 0.0
C371 C 0.36493 0.97083 0.63516 0.0
C372 C 0.32294 0.97495 0.62116 0.0
C373 C 0.31054 0.99462 0.67048 0.0
C374 C 0.31787 0.95258 0.60977 0.0
C375 C 0.30273 0.95067 0.58965 0.0
C376 C 0.29262 0.97119 0.58046 0.0
C377 C 0.29729 0.99347 0.59233 0.0
C378 C 0.31237 -0.00467 0.61241 0.0
H379 H 0.30825 -0.0047 0.6903 0.0
H380 H 0.30672 0.01259 0.66402 0.0
H381 H 0.29703 0.98172 0.66238 0.0
H382 H 0.32605 0.93666 0.61616 0.0
H383 H 0.29951 0.93326 0.58093 0.0
H384 H 0.05996 0.3509 0.53006 0.0
H385 H 0.04986 0.38441 0.55788 0.0
H386 H 0.97901 0.35304 0.56842 0.0
H387 H 0.98897 0.31954 0.54112 0.0
H388 H 0.00905 0.41798 0.56096 0.0
H389 H 0.01263 0.35536 0.63548 0.0
H390 H 0.02497 0.34831 0.60612 0.0
H391 H 0.99294 0.34598 0.61107 0.0
C392 C 0.04212 0.35138 0.53805 0.0
C393 C 0.02539 0.33245 0.53379 0.0
C394 C 0.03637 0.37051 0.55384 0.0
C395 C 0.01384 0.3709 0.56539 0.0
C396 C -0.00339 0.35283 0.55991 0.0
H397 H 0.95273 0.47886 0.66432 0.0
H398 H 0.96019 0.45221 0.62908 0.0
C399 C 0.00236 0.3337 0.54434 0.0
C400 C 0.00901 0.38884 0.58486 0.0
H401 H -0.0008 0.39422 0.64521 0.0
C402 C 0.00691 0.41289 0.57941 0.0
C403 C 0.00647 0.38204 0.60887 0.0
C404 C 0.00956 0.35657 0.61587 0.0
C405 C 0.00208 0.43039 0.59748 0.0
C406 C -0.00091 0.42346 0.62142 0.0
C407 C 0.00132 0.39942 0.62679 0.0
C408 C 0.99495 0.44085 0.6416 0.0
C409 C 0.00072 0.45615 0.59099 0.0
C410 C 0.01186 0.44301 0.66032 0.0
C411 C 0.00755 0.45788 0.68043 0.0
C412 C 0.98619 0.47092 0.68228 0.0
C413 C 0.96934 0.46903 0.66336 0.0
C414 C 0.97366 0.45399 0.64317 0.0
H415 H 0.00833 0.45911 0.57288 0.0
H416 H 0.98153 0.46147 0.591 0.0
H417 H 0.01058 0.46795 0.60438 0.0
H418 H 0.02834 0.43294 0.65947 0.0
H419 H 0.02095 0.45901 0.69463 0.0
H420 H 0.57255 0.99058 0.70219 0.0
H421 H 0.60605 0.99458 0.67377 0.0
H422 H 0.59122 0.06928 0.66823 0.0
H423 H 0.5579 0.06561 0.69652 0.0
H424 H 0.60504 0.0123 0.62536 0.0
H425 H 0.66376 0.06749 0.68784 0.0
H426 H 0.63833 0.04987 0.69799 0.0
H427 H 0.63352 0.07797 0.68464 0.0
C428 C 0.57634 0.00784 0.69484 0.0
C429 C 0.56265 0.02781 0.70177 0.0
C430 C 0.59547 0.01007 0.67865 0.0
C431 C 0.60128 0.03232 0.66934 0.0
C432 C 0.58725 0.05208 0.67564 0.0
H433 H 0.70608 0.08937 0.57128 0.0
H434 H 0.67469 0.08321 0.60148 0.0
C435 C 0.56813 0.04988 0.69172 0.0
C436 C 0.62196 0.035 0.65289 0.0
H437 H 0.67647 0.06386 0.64719 0.0
C438 C 0.62077 0.02339 0.63014 0.0
C439 C 0.64232 0.04959 0.65927 0.0
C440 C 0.64477 0.06182 0.68383 0.0
C441 C 0.63922 0.0265 0.61325 0.0
C442 C 0.65956 0.0412 0.61958 0.0
C443 C 0.66083 0.05263 0.64244 0.0
C444 C 0.67959 0.0451 0.60258 0.0
C445 C 0.63645 0.0146 0.58856 0.0
C446 C 0.69318 0.02582 0.59384 0.0
C447 C 0.71102 0.02924 0.57659 0.0
C448 C 0.71575 0.05208 0.56792 0.0
C449 C 0.70285 0.07156 0.57755 0.0
C450 C 0.6849 0.06808 0.59476 0.0
H451 H 0.61738 0.00909 0.58469 0.0
H452 H 0.64277 0.02667 0.57447 0.0
H453 H 0.64754 -0.00165 0.58743 0.0
H454 H 0.68973 0.00805 0.60011 0.0
H455 H 0.7208 0.01388 0.56976 0.0
H456 H 0.40097 0.29734 0.01516 0.0
H457 H 0.36784 0.32551 0.01568 0.0
H458 H 0.38159 0.33961 0.9414 0.0
H459 H 0.41433 0.31127 0.94053 0.0
H460 H 0.37345 0.37286 0.00781 0.0
H461 H 0.30859 0.33164 0.94175 0.0
H462 H 0.33275 0.3152 0.95459 0.0
H463 H 0.33865 0.33423 0.92997 0.0
C464 C 0.39672 0.30617 -0.00117 0.0
C465 C 0.41035 0.3021 0.97782 0.0
C466 C 0.37776 0.32221 -0.00085 0.0
C467 C 0.37203 0.33434 0.97847 0.0
C468 C 0.38529 0.32998 0.95738 0.0
H469 H 0.29838 0.46129 0.94503 0.0
H470 H 0.31965 0.4234 0.94407 0.0
C471 C 0.40418 0.31392 0.957 0.0
C472 C 0.35395 0.35336 0.97955 0.0
H473 H 0.30368 0.37337 0.95188 0.0
C474 C 0.35797 0.3728 -0.00415 0.0
C475 C 0.33388 0.35326 0.96381 0.0
C476 C 0.32805 0.33234 0.9467 0.0
C477 C 0.34297 0.39258 -0.00373 0.0
C478 C 0.32324 0.39273 0.98016 0.0
C479 C 0.31888 0.37313 0.96415 0.0
C480 C 0.30758 0.41361 0.97929 0.0
C481 C 0.34884 0.41355 0.01334 0.0
C482 C 0.29315 0.42008 -0.00094 0.0
C483 C 0.28109 0.44166 -0.00029 0.0
C484 C 0.28321 0.45707 0.98053 0.0
C485 C 0.29649 0.44983 0.9601 0.0
C486 C 0.3086 0.42821 0.9595 0.0
H487 H 0.36725 0.41253 0.02114 0.0
H488 H 0.34752 0.43061 0.00408 0.0
H489 H 0.33563 0.41385 0.02831 0.0
H490 H 0.29195 0.40883 0.01435 0.0
H491 H 0.27081 0.44664 0.01561 0.0
H492 H 0.33957 0.55654 0.0228 0.0
H493 H 0.37581 0.58251 0.02424 0.0
H494 H 0.34522 0.62579 0.97037 0.0
H495 H 0.30897 0.6 0.96873 0.0
H496 H 0.4077 0.59655 0.98239 0.0
H497 H 0.3616 0.67115 0.03159 0.0
H498 H 0.35016 0.64072 0.03134 0.0
H499 H 0.34648 0.65817 0.00541 0.0
C500 C 0.34058 0.57156 0.01124 0.0
C501 C 0.32139 0.57634 -0.00424 0.0
C502 C 0.3613 0.58627 0.01202 0.0
C503 C 0.363 0.60602 -0.00251 0.0
C504 C 0.34407 0.61066 0.98179 0.0
H505 H 0.48308 0.70506 0.97324 0.0
H506 H 0.45074 0.67472 0.96757 0.0
C507 C 0.32342 0.59592 0.9809 0.0
C508 C 0.38423 0.62232 -0.00068 0.0
H509 H 0.40189 0.67821 0.01964 0.0
C510 C 0.40652 0.61443 0.99048 0.0
C511 C 0.38246 0.6455 0.01003 0.0
C512 C 0.35896 0.65447 0.02032 0.0
C513 C 0.42724 0.62933 0.99199 0.0
C514 C 0.4254 0.65256 0.00255 0.0
C515 C 0.4031 0.66037 0.01144 0.0
C516 C 0.44652 0.66892 0.00547 0.0
C517 C 0.45102 0.62009 0.98275 0.0
C518 C 0.4548 0.67546 0.02861 0.0
C519 C 0.47314 0.6927 0.03193 0.0
C520 C 0.48343 0.7039 0.01213 0.0
C521 C 0.47555 0.69678 0.98885 0.0
C522 C 0.45717 0.67941 0.98556 0.0
H523 H 0.45017 0.60055 0.97852 0.0
H524 H 0.45599 0.62925 0.96614 0.0
H525 H 0.46556 0.62405 -0.00383 0.0
H526 H 0.4467 0.66754 0.04417 0.0
H527 H 0.4788 0.69766 0.0501 0.0
H528 H 0.52737 0.3111 0.03506 0.0
H529 H 0.56082 0.33915 0.04454 0.0
H530 H 0.58585 0.33199 0.97143 0.0
H531 H 0.55234 0.30396 0.9616 0.0
H532 H 0.62181 0.32667 0.01352 0.0
H533 H 0.56762 0.40932 0.01652 0.0
H534 H 0.55588 0.38371 0.03154 0.0
H535 H 0.55808 0.38264 -0.00057 0.0
C536 C 0.53996 0.31545 0.02095 0.0
C537 C 0.53716 0.30531 -0.00247 0.0
C538 C 0.55899 0.33153 0.02642 0.0
C539 C 0.57559 0.33766 0.00863 0.0
C540 C 0.57308 0.32746 0.98533 0.0
H541 H 0.70635 0.42139 -0.00179 0.0
H542 H 0.67306 0.39234 0.99401 0.0
C543 C 0.55393 0.3115 0.97977 0.0
C544 C 0.59574 0.35458 0.01443 0.0
H545 H 0.60912 0.41371 0.02533 0.0
C546 C 0.61911 0.34571 0.01615 0.0
C547 C 0.59196 0.37927 0.01812 0.0
C548 C 0.56708 0.38949 0.01623 0.0
C549 C 0.63898 0.36102 0.0214 0.0
C550 C 0.63535 0.38588 0.02433 0.0
C551 C 0.61184 0.39466 0.02306 0.0
C552 C 0.65581 0.4032 0.02744 0.0
C553 C 0.66359 0.35037 0.02399 0.0
C554 C 0.65681 0.41944 0.04734 0.0
C555 C 0.67574 0.43636 0.04967 0.0
C556 C 0.69389 0.43729 0.03207 0.0
C557 C 0.69277 0.42101 0.01219 0.0
C558 C 0.67383 0.40425 0.00983 0.0
H559 H 0.66217 0.33142 0.02898 0.0
H560 H 0.67323 0.35088 0.00656 0.0
H561 H 0.67462 0.36051 0.03778 0.0
H562 H 0.64294 0.41904 0.06103 0.0
H563 H 0.6761 0.44873 0.06513 0.0
H564 H 0.71431 0.56823 0.06652 0.0
H565 H 0.69465 0.60665 0.06424 0.0
H566 H 0.69962 0.60164 0.98696 0.0
H567 H 0.71874 0.56284 0.98904 0.0
H568 H 0.7089 0.64936 0.04512 0.0
H569 H 0.62782 0.61031 -0.00199 0.0
H570 H 0.65011 0.59215 0.01155 0.0
H571 H 0.65578 0.6045 0.98279 0.0
C572 C 0.71124 0.5753 0.04903 0.0
C573 C 0.71779 0.5624 0.02793 0.0
C574 C 0.7001 0.5973 0.04777 0.0
C575 C 0.69535 0.60679 0.02543 0.0
C576 C 0.70265 0.59436 0.00436 0.0
H577 H 0.61159 0.72801 0.98704 0.0
H578 H 0.64258 0.69776 0.98702 0.0
C579 C 0.71362 0.57225 0.00558 0.0
C580 C 0.68201 0.62927 0.02427 0.0
H581 H 0.62968 0.65218 0.00381 0.0
C582 C 0.69161 0.65004 0.03603 0.0
C583 C 0.65939 0.63002 0.01252 0.0
C584 C 0.64751 0.60803 0.00069 0.0
C585 C 0.67917 0.6716 0.03628 0.0
C586 C 0.65657 0.67225 0.02459 0.0
C587 C 0.64715 0.6516 0.01258 0.0
C588 C 0.64158 0.69373 0.02541 0.0
C589 C 0.69025 0.69351 0.04893 0.0
C590 C 0.63128 0.70194 0.04714 0.0
C591 C 0.61346 0.71922 0.04725 0.0
C592 C 0.60557 0.7284 0.02558 0.0
C593 C 0.6171 0.72121 0.00404 0.0
C594 C 0.63486 0.70394 0.00397 0.0
H595 H 0.70995 0.69162 0.05191 0.0
H596 H 0.68732 0.70961 0.03848 0.0
H597 H 0.68148 0.69633 0.0667 0.0
H598 H 0.63598 0.69399 0.06384 0.0
H599 H 0.60497 0.72436 0.06414 0.0
H600 H 0.57992 0.78231 0.91496 0.0
H601 H 0.58279 0.80214 0.87681 0.0
H602 H 0.50571 0.81164 0.87717 0.0
H603 H 0.50257 0.79163 0.91523 0.0
H604 H 0.52865 0.8006 0.82925 0.0
H605 H 0.57178 0.87587 0.88353 0.0
H606 H 0.5851 0.84703 0.8851 0.0
H607 H 0.55548 0.8518 0.89724 0.0
C608 C 0.56349 0.78814 0.90667 0.0
C609 C 0.54105 0.78578 0.91828 0.0
C610 C 0.56519 0.79942 0.88487 0.0
C611 C 0.54451 0.80858 0.87444 0.0
C612 C 0.52186 0.80465 0.88501 0.0
H613 H 0.49317 0.90851 0.78108 0.0
H614 H 0.50172 0.87186 0.80091 0.0
C615 C 0.52012 0.79331 0.90679 0.0
C616 C 0.54673 0.82503 0.85454 0.0
H617 H 0.56316 0.88241 0.84345 0.0
C618 C 0.5365 0.81839 0.83214 0.0
C619 C 0.55711 0.84813 0.85843 0.0
C620 C 0.56789 0.85633 0.88237 0.0
C621 C 0.53577 0.83461 0.81366 0.0
C622 C 0.54497 0.85817 0.81801 0.0
C623 C 0.55621 0.86433 0.84006 0.0
C624 C 0.54054 0.87765 0.80153 0.0
C625 C 0.52489 0.82644 0.78981 0.0
C626 C 0.55952 0.89318 0.79511 0.0
C627 C 0.55461 0.91451 0.78416 0.0
C628 C 0.53064 0.92062 0.77945 0.0
C629 C 0.51184 0.90432 0.78446 0.0
C630 C 0.51673 0.88315 0.79558 0.0
H631 H 0.52764 0.80706 0.78613 0.0
H632 H 0.50512 0.82929 0.7903 0.0
H633 H 0.53278 0.83645 0.77483 0.0
H634 H 0.57802 0.88936 0.79966 0.0
H635 H 0.56948 0.92668 0.78041 0.0
H636 H 0.21651 0.52454 0.91356 0.0
H637 H 0.18543 0.51813 0.88255 0.0
H638 H 0.13773 0.56427 0.92342 0.0
H639 H 0.16941 0.57203 0.95345 0.0
H640 H 0.14442 0.49809 0.88334 0.0
H641 H 0.1287 0.59111 0.86028 0.0
H642 H 0.15355 0.58331 0.87909 0.0
H643 H 0.12391 0.58788 0.89173 0.0
C644 C 0.19946 0.53351 0.91567 0.0
C645 C 0.19534 0.54893 0.93567 0.0
C646 C 0.18172 0.52986 0.898 0.0
C647 C 0.15937 0.54114 0.90032 0.0
C648 C 0.15511 0.55612 0.92067 0.0
H649 H 0.02922 0.48427 0.83117 0.0
H650 H 0.06299 0.49448 0.85827 0.0
C651 C 0.17312 0.56035 0.93795 0.0
C652 C 0.14006 0.53614 0.88221 0.0
H653 H 0.0971 0.56254 0.84914 0.0
C654 C 0.13432 0.51223 0.87561 0.0
C655 C 0.12713 0.55453 0.87167 0.0
C656 C 0.13386 0.58061 0.87587 0.0
C657 C 0.1157 0.50618 0.85928 0.0
C658 C 0.10149 0.52451 0.8503 0.0
C659 C 0.10764 0.54844 0.85637 0.0
C660 C 0.08027 0.51928 0.83453 0.0
C661 C 0.11194 0.48023 0.85152 0.0
C662 C 0.07786 0.53095 0.81287 0.0
C663 C 0.05803 0.52586 0.79787 0.0
C664 C 0.04058 0.50867 0.80406 0.0
C665 C 0.04269 0.49734 0.82589 0.0
C666 C 0.06211 0.50297 0.84122 0.0
H667 H 0.12897 0.47025 0.85291 0.0
H668 H 0.09851 0.47188 0.86353 0.0
H669 H 0.1053 0.47815 0.83274 0.0
H670 H 0.09152 0.54373 0.80737 0.0
H671 H 0.05677 0.53477 0.78106 0.0
H672 H 0.54679 0.05082 0.82184 0.0
H673 H 0.54668 0.07911 0.8563 0.0
H674 H 0.47567 0.05329 0.87593 0.0
H675 H 0.476 0.02431 0.84172 0.0
H676 H 0.51551 0.11429 0.86034 0.0
H677 H 0.50853 0.06008 0.9409 0.0
H678 H 0.517 0.04754 0.9118 0.0
H679 H 0.48571 0.05226 0.91889 0.0
C680 C 0.53132 0.05086 0.83375 0.0
C681 C 0.5113 0.03552 0.82903 0.0
C682 C 0.53133 0.06698 0.85347 0.0
C683 C 0.51127 0.06821 0.86879 0.0
C684 C 0.49158 0.0523 0.86466 0.0
H685 H 0.45768 0.19168 0.94274 0.0
H686 H 0.46605 0.15642 0.91729 0.0
C687 C 0.49169 0.03588 0.84501 0.0
C688 C 0.50982 0.08808 0.88707 0.0
H689 H 0.49882 0.10158 0.94635 0.0
C690 C 0.51218 0.11145 0.87919 0.0
C691 C 0.50569 0.08438 0.91169 0.0
C692 C 0.50433 0.0597 0.92139 0.0
C693 C 0.50973 0.13123 0.89509 0.0
C694 C 0.50427 0.12756 0.91942 0.0
C695 C 0.50278 0.10425 0.92759 0.0
C696 C 0.49869 0.14782 0.93611 0.0
C697 C 0.51274 0.15596 0.88564 0.0
C698 C 0.51398 0.15422 0.95552 0.0
C699 C 0.50924 0.17445 0.97021 0.0
C700 C 0.48908 0.18841 0.96566 0.0
C701 C 0.47349 0.18145 0.94659 0.0
C702 C 0.47822 0.16132 0.93201 0.0
H703 H 0.52312 0.15575 0.86858 0.0
H704 H 0.49465 0.16319 0.88208 0.0
H705 H 0.52211 0.16822 0.89897 0.0
H706 H 0.52983 0.14389 0.95895 0.0
H707 H 0.52148 0.17932 0.98487 0.0
H708 H 0.91095 0.45517 0.79909 0.0
H709 H 0.88239 0.45737 0.83252 0.0
H710 H 0.88879 0.53419 0.83504 0.0
H711 H 0.91731 0.53227 0.80159 0.0
H712 H 0.89943 0.5113 0.87913 0.0
H713 H 0.81146 0.48069 0.83934 0.0
H714 H 0.83669 0.46242 0.83113 0.0
H715 H 0.83592 0.49259 0.82162 0.0
C716 C 0.90591 0.47256 0.80639 0.0
C717 C 0.91654 0.49353 0.79776 0.0
C718 C 0.8895 0.47378 0.82542 0.0
C719 C 0.88345 0.49595 0.8361 0.0
C720 C 0.8932 0.51694 0.82691 0.0
H721 H 0.78763 0.51364 0.96074 0.0
H722 H 0.80935 0.52143 0.92344 0.0
C723 C 0.90946 0.51577 0.80777 0.0
C724 C 0.86913 0.49699 0.85845 0.0
H725 H 0.81457 0.48107 0.88214 0.0
C726 C 0.88076 0.50503 0.87977 0.0
C727 C 0.84481 0.48886 0.85912 0.0
C728 C 0.83135 0.48083 0.83657 0.0
C729 C 0.86896 0.50415 0.90197 0.0
C730 C 0.84502 0.49506 0.90274 0.0
C731 C 0.83302 0.48795 0.88136 0.0
C732 C 0.83275 0.49127 0.92576 0.0
C733 C 0.88226 0.51239 0.92456 0.0
C734 C 0.83895 0.47184 0.9393 0.0
C735 C 0.82655 0.46723 0.96045 0.0
C736 C 0.8078 0.48209 0.96846 0.0
C737 C 0.80205 0.50194 0.95511 0.0
C738 C 0.81434 0.50638 0.93379 0.0
H739 H 0.89922 0.52246 0.92062 0.0
H740 H 0.87057 0.52387 0.93615 0.0
H741 H 0.88693 0.49661 0.93485 0.0
H742 H 0.8531 0.45998 0.93324 0.0
H743 H 0.83144 0.45185 0.97033 0.0
H744 H 0.46754 0.10716 0.2455 0.0
H745 H 0.45962 0.14366 0.22443 0.0
H746 H 0.51222 0.12332 0.17059 0.0
H747 H 0.52125 0.08785 0.19236 0.0
H748 H 0.51461 0.16889 0.17838 0.0
H749 H 0.4177 0.14262 0.16687 0.0
H750 H 0.42701 0.14775 0.1975 0.0
H751 H 0.43923 0.12327 0.17978 0.0
C752 C 0.47765 0.11077 0.22937 0.0
C753 C 0.49485 0.09463 0.22041 0.0
C754 C 0.47295 0.13148 0.21723 0.0
C755 C 0.48475 0.1359 0.1955 0.0
C756 C 0.50276 0.12031 0.18725 0.0
H757 H 0.44164 0.19394 0.06702 0.0
H758 H 0.44541 0.17341 0.10444 0.0
C759 C 0.50792 0.1 0.19969 0.0
C760 C 0.47784 0.15587 0.18046 0.0
H761 H 0.43102 0.17718 0.14837 0.0
C762 C 0.49629 0.17084 0.17194 0.0
C763 C 0.4539 0.15835 0.17202 0.0
C764 C 0.43335 0.14204 0.17932 0.0
C765 C 0.4919 0.18706 0.15407 0.0
C766 C 0.46802 0.18933 0.14538 0.0
C767 C 0.44928 0.17548 0.15509 0.0
C768 C 0.46264 0.20337 0.12411 0.0
C769 C 0.51326 0.20021 0.14355 0.0
C770 C 0.47003 0.22742 0.12293 0.0
C771 C 0.4685 0.23897 0.10126 0.0
C772 C 0.4587 0.22692 0.08075 0.0
C773 C 0.44925 0.20365 0.08257 0.0
C774 C 0.45141 0.19191 0.10399 0.0
H775 H 0.53069 0.1921 0.14819 0.0
H776 H 0.5119 0.20034 0.12368 0.0
H777 H 0.51375 0.21895 0.15081 0.0
H778 H 0.47788 0.23695 0.13844 0.0
H779 H 0.47564 0.25706 0.10035 0.0
H780 H 0.94774 0.55416 0.23393 0.0
H781 H 0.91099 0.55045 0.20936 0.0
H782 H 0.91724 0.47386 0.20579 0.0
H783 H 0.95357 0.47729 0.23042 0.0
H784 H 0.90866 0.53045 0.16313 0.0
H785 H 0.84618 0.48192 0.22236 0.0
H786 H 0.87338 0.49706 0.23339 0.0
H787 H 0.87479 0.46775 0.21906 0.0
C788 C 0.94108 0.53651 0.22819 0.0
C789 C 0.95362 0.51603 0.23412 0.0
C790 C 0.9201 0.53444 0.21418 0.0
C791 C 0.9112 0.51186 0.20611 0.0
C792 C 0.92346 0.49142 0.21232 0.0
H793 H 0.817 0.44648 0.10063 0.0
H794 H 0.84473 0.45702 0.1338 0.0
C795 C 0.94438 0.49345 0.22625 0.0
C796 C 0.89042 0.50955 0.1894 0.0
H797 H 0.83624 0.48025 0.18025 0.0
C798 C 0.8926 0.51986 0.167 0.0
C799 C 0.86957 0.49565 0.19454 0.0
C800 C 0.86569 0.48516 0.21874 0.0
C801 C 0.87503 0.51563 0.14909 0.0
C802 C 0.85461 0.501 0.15393 0.0
C803 C 0.85201 0.49136 0.17661 0.0
C804 C 0.83643 0.49457 0.13519 0.0
C805 C 0.879 0.52593 0.12479 0.0
C806 C 0.82222 0.51213 0.12546 0.0
C807 C 0.80642 0.5062 0.10649 0.0
C808 C 0.80448 0.48256 0.09699 0.0
C809 C 0.81812 0.46485 0.10743 0.0
C810 C 0.83394 0.47083 0.1264 0.0
H811 H 0.89782 0.53279 0.12255 0.0
H812 H 0.87498 0.51229 0.11021 0.0
H813 H 0.8666 0.54098 0.12269 0.0
H814 H 0.82364 0.53048 0.13229 0.0
H815 H 0.79604 0.52025 0.09902 0.0
H816 H 0.48879 0.82162 0.04305 0.0
H817 H 0.47969 0.85573 0.06982 0.0
H818 H 0.55138 0.88504 0.05893 0.0
H819 H 0.56054 0.85097 0.03158 0.0
H820 H 0.50403 0.86534 0.11163 0.0
H821 H 0.50905 0.94366 0.05416 0.0
H822 H 0.50616 0.91336 0.04194 0.0
H823 H 0.53507 0.92511 0.05206 0.0
C824 C 0.50255 0.83548 0.04605 0.0
C825 C 0.52547 0.83355 0.03539 0.0
C826 C 0.49726 0.85499 0.0613 0.0
C827 C 0.51476 0.87298 0.0662 0.0
C828 C 0.53745 0.87156 0.05499 0.0
H829 H 0.53548 0.96213 0.19173 0.0
H830 H 0.53724 0.93455 0.15679 0.0
C831 C 0.54273 0.85203 0.03953 0.0
C832 C 0.51006 0.89165 0.08507 0.0
H833 H 0.50886 0.95191 0.09671 0.0
C834 C 0.50482 0.88426 0.10827 0.0
C835 C 0.51092 0.91629 0.08061 0.0
C836 C 0.51538 0.92514 0.0558 0.0
C837 C 0.50117 0.90085 0.12732 0.0
C838 C 0.50306 0.92545 0.12309 0.0
C839 C 0.50752 0.93296 0.09979 0.0
C840 C 0.50215 0.94339 0.14315 0.0
C841 C 0.4957 0.89201 0.15197 0.0
C842 C 0.4819 0.95768 0.14673 0.0
C843 C 0.48072 0.97347 0.16684 0.0
C844 C 0.49988 0.97517 0.18344 0.0
C845 C 0.52034 0.96116 0.17936 0.0
C846 C 0.52145 0.94541 0.1594 0.0
H847 H 0.4899 0.87289 0.15126 0.0
H848 H 0.51221 0.89399 0.16327 0.0
H849 H 0.48133 0.90271 0.16083 0.0
H850 H 0.46685 0.95625 0.13427 0.0
H851 H 0.4648 0.98414 0.16947 0.0
H852 H 0.2144 0.50726 0.05735 0.0
H853 H 0.18898 0.49983 0.09215 0.0
H854 H 0.17944 0.57553 0.10389 0.0
H855 H 0.20511 0.58325 0.06923 0.0
H856 H 0.18947 0.55055 0.14617 0.0
H857 H 0.11503 0.50719 0.0918 0.0
H858 H 0.1444 0.49475 0.08726 0.0
H859 H 0.13896 0.52464 0.0786 0.0
C860 C 0.207 0.52237 0.06736 0.0
C861 C 0.21163 0.54587 0.06038 0.0
C862 C 0.19239 0.51805 0.08717 0.0
C863 C 0.18205 0.53711 0.10027 0.0
C864 C 0.1872 0.56059 0.09387 0.0
H865 H 0.08192 0.56312 0.21388 0.0
H866 H 0.11253 0.56425 0.18256 0.0
C867 C 0.20184 0.56496 0.07406 0.0
C868 C 0.16553 0.53261 0.12045 0.0
H869 H 0.11009 0.50885 0.13384 0.0
C870 C 0.17215 0.54136 0.14353 0.0
C871 C 0.14303 0.52049 0.11688 0.0
C872 C 0.13475 0.51136 0.09229 0.0
C873 C 0.1567 0.53851 0.16318 0.0
C874 C 0.13395 0.52696 0.15948 0.0
C875 C 0.1276 0.51764 0.13654 0.0
C876 C 0.11579 0.52591 0.17882 0.0
C877 C 0.16483 0.54791 0.18771 0.0
C878 C 0.10705 0.50389 0.18664 0.0
C879 C 0.08938 0.50313 0.20455 0.0
C880 C 0.08006 0.5244 0.2147 0.0
C881 C 0.08875 0.54638 0.20655 0.0
C882 C 0.10639 0.54711 0.18876 0.0
H883 H 0.18483 0.5499 0.18879 0.0
H884 H 0.15708 0.56577 0.19143 0.0
H885 H 0.15853 0.53595 0.2019 0.0
H886 H 0.11398 0.48734 0.17896 0.0
H887 H 0.08303 0.48591 0.21038 0.0
H888 H 0.77348 0.94699 0.52976 0.0
H889 H 0.79138 0.90751 0.52841 0.0
H890 H 0.81733 0.91857 0.45673 0.0
H891 H 0.79936 0.95812 0.4578 0.0
H892 H 0.79785 0.86941 0.46712 0.0
H893 H 0.86742 0.9071 0.53132 0.0
H894 H 0.8363 0.91074 0.53967 0.0
H895 H 0.84825 0.9258 0.51435 0.0
C896 C 0.78262 0.94088 0.51352 0.0
C897 C 0.78533 0.95578 0.49399 0.0
C898 C 0.7928 0.91833 0.51281 0.0
C899 C 0.80587 0.91038 0.4926 0.0
C900 C 0.80729 0.92451 0.47248 0.0
H901 H 0.90541 0.80477 0.44749 0.0
H902 H 0.87239 0.83266 0.45087 0.0
C903 C 0.79709 0.94709 0.47316 0.0
C904 C 0.82021 0.88859 0.49338 0.0
H905 H 0.8715 0.86733 0.51772 0.0
C906 C 0.81385 0.86878 0.47831 0.0
C907 C 0.84096 0.88793 0.5081 0.0
C908 C 0.84885 0.90903 0.5242 0.0
C909 C 0.82799 0.84829 0.47736 0.0
C910 C 0.84926 0.84798 0.49144 0.0
C911 C 0.85514 0.86757 0.50702 0.0
C912 C 0.86689 0.8286 0.48894 0.0
C913 C 0.82005 0.82724 0.46128 0.0
C914 C 0.87496 0.81718 0.50929 0.0
C915 C 0.89417 0.80147 0.5075 0.0
C916 C 0.90566 0.79696 0.48532 0.0
C917 C 0.89694 0.80778 0.46484 0.0
C918 C 0.87786 0.82357 0.46667 0.0
H919 H 0.80016 0.82686 0.45854 0.0
H920 H 0.82868 0.82873 0.44342 0.0
H921 H 0.82537 0.81011 0.4688 0.0
H922 H 0.86684 0.82097 0.52668 0.0
H923 H 0.90039 0.79336 0.52361 0.0
H924 H 0.97465 0.2077 0.55378 0.0
H925 H 0.94667 0.17375 0.5497 0.0
H926 H 0.9816 0.1506 0.48374 0.0
H927 H 0.00892 0.18566 0.48708 0.0
H928 H 0.93647 0.14777 0.47727 0.0
H929 H 0.95217 0.10593 0.56297 0.0
H930 H 0.94491 0.13645 0.56942 0.0
H931 H 0.9719 0.12935 0.5526 0.0
C932 C 0.97659 0.19522 0.53855 0.0
C933 C 0.994 0.19924 0.52078 0.0
C934 C 0.96073 0.17562 0.53637 0.0
C935 C 0.96244 0.15914 0.5168 0.0
C936 C 0.98008 0.16294 0.49914 0.0
H937 H 0.85481 0.04189 0.52427 0.0
H938 H 0.89407 0.06296 0.5233 0.0
C939 C -0.00437 0.18295 0.50102 0.0
C940 C 0.94425 0.13939 0.51385 0.0
H941 H 0.91157 0.09955 0.54593 0.0
C942 C 0.93141 0.13685 0.49213 0.0
C943 C 0.93798 0.12449 0.53287 0.0
C944 C 0.95274 0.12404 0.55562 0.0
C945 C 0.91142 0.12117 0.48957 0.0
C946 C 0.90333 0.10857 0.50964 0.0
C947 C 0.91727 0.1097 0.53072 0.0
C948 C 0.87979 0.0954 0.50965 0.0
C949 C 0.89916 0.11849 0.46537 0.0
C950 C 0.85865 0.10674 0.50281 0.0
C951 C 0.83641 0.09458 0.50284 0.0
C952 C 0.83475 0.07112 0.51055 0.0
C953 C 0.85567 0.06001 0.5183 0.0
C954 C 0.87807 0.07201 0.51768 0.0
H955 H 0.91237 0.12103 0.45064 0.0
H956 H 0.89021 0.10067 0.46256 0.0
H957 H 0.88538 0.13244 0.46404 0.0
H958 H 0.85928 0.1251 0.49755 0.0
H959 H 0.82046 0.10363 0.4971 0.0
H960 H 0.02478 0.81907 0.52859 0.0
H961 H 0.05626 0.85021 0.53267 0.0
H962 H 0.07424 0.83945 0.4578 0.0
H963 H 0.04269 0.80821 0.45341 0.0
H964 H 0.11439 0.83929 0.49317 0.0
H965 H 0.05572 0.91837 0.50367 0.0
H966 H 0.04837 0.89346 0.52183 0.0
H967 H 0.04519 0.89031 0.48981 0.0
C968 C 0.03534 0.82334 0.51292 0.0
C969 C 0.03121 0.81114 0.49064 0.0
C970 C 0.05321 0.84124 0.5153 0.0
C971 C 0.0673 0.84723 0.49548 0.0
C972 C 0.06337 0.8351 0.47324 0.0
H973 H 0.19257 0.93791 0.47346 0.0
H974 H 0.15869 0.90941 0.46991 0.0
C975 C 0.04536 0.81729 0.47079 0.0
C976 C 0.08685 0.86549 0.49825 0.0
H977 H 0.09775 0.92513 0.50904 0.0
C978 C 0.11081 0.85808 0.49655 0.0
C979 C 0.08198 0.88987 0.50294 0.0
C980 C 0.05644 0.89864 0.50454 0.0
C981 C 0.13019 0.87446 0.4996 0.0
C982 C 0.12537 0.89897 0.50383 0.0
C983 C 0.10135 0.90634 0.50575 0.0
C984 C 0.14507 0.91723 0.50571 0.0
C985 C 0.15562 0.86528 0.49873 0.0
C986 C 0.14802 0.93182 0.52667 0.0
C987 C 0.16727 0.94841 0.52866 0.0
C988 C 0.1838 0.95059 0.50971 0.0
C989 C 0.18031 0.93644 0.4885 0.0
C990 C 0.16104 0.92005 0.48647 0.0
H991 H 0.15606 0.846 0.5025 0.0
H992 H 0.16315 0.8675 0.48049 0.0
H993 H 0.16749 0.87532 0.51187 0.0
H994 H 0.13573 0.93003 0.54164 0.0
H995 H 0.16947 0.95915 0.54517 0.0
H996 H 0.11523 0.22674 0.48834 0.0
H997 H 0.14811 0.19882 0.49048 0.0
H998 H 0.15099 0.21049 0.56742 0.0
H999 H 0.11739 0.23801 0.56559 0.0
H1000 H 0.19468 0.19821 0.50772 0.0
H1001 H 0.13298 0.14004 0.55966 0.0
H1002 H 0.12269 0.16629 0.54557 0.0
H1003 H 0.13932 0.16907 0.57331 0.0
C1004 C 0.12305 0.22373 0.50573 0.0
C1005 C 0.11329 0.2342 0.52687 0.0
C1006 C 0.14195 0.2078 0.50689 0.0
C1007 C 0.15155 0.20214 0.52915 0.0
C1008 C 0.14338 0.21418 0.55011 0.0
H1009 H 0.23496 0.0762 0.5568 0.0
H1010 H 0.21896 0.1164 0.56101 0.0
C1011 C 0.12426 0.22999 0.54901 0.0
C1012 C 0.16807 0.18182 0.53033 0.0
H1013 H 0.17079 0.12491 0.54935 0.0
C1014 C 0.18963 0.18227 0.51705 0.0
C1015 C 0.1613 0.16096 0.54236 0.0
C1016 C 0.13774 0.15886 0.55587 0.0
C1017 C 0.2044 0.16223 0.51514 0.0
C1018 C 0.19726 0.14127 0.52666 0.0
C1019 C 0.1762 0.14111 0.54062 0.0
C1020 C 0.21031 0.11865 0.52335 0.0
C1021 C 0.22733 0.16353 0.50061 0.0
C1022 C 0.21094 0.10673 0.5007 0.0
C1023 C 0.21997 0.08367 0.49822 0.0
C1024 C 0.22838 0.07216 0.51841 0.0
C1025 C 0.22855 0.08454 0.5409 0.0
C1026 C 0.21949 0.10754 0.54336 0.0
H1027 H 0.23356 0.18229 0.49848 0.0
H1028 H 0.24199 0.15363 0.50911 0.0
H1029 H 0.22393 0.15525 0.48245 0.0
H1030 H 0.20348 0.11483 0.48512 0.0
H1031 H 0.21959 0.07458 0.48067 0.0
loop_
_geom_bond_atom_site_label_1
_geom_bond_atom_site_label_2
_geom_bond_distance
_geom_bond_site_symmetry_2
_ccdc_geom_bond_type
C0 O1 1.306 . S
C0 O3 1.160 . S
O1 C0 1.306 . S
O1 Cd2 2.228 . S
Cd2 O1 2.228 . S
Cd2 O6 2.273 . S
Cd2 O10 2.277 1_655 S
O3 C0 1.160 . S
O3 Cd4 2.203 1_655 S
Cd4 O3 2.203 1_455 S
Cd4 O6 2.411 1_455 S
Cd4 O7 2.333 . S
Cd4 O8 2.352 1_455 S
Cd4 O12 2.277 . S
Cd4 O13 2.356 . S
C5 O10 1.209 . S
C5 O12 1.226 . S
O6 Cd2 2.273 . S
O6 Cd4 2.411 1_655 S
O6 C9 1.320 1_655 S
O7 Cd4 2.333 . S
O7 C9 1.214 . S
O8 Cd4 2.352 1_655 S
O8 C11 1.258 . S
C9 O6 1.320 1_455 S
C9 O7 1.214 . S
O10 Cd2 2.277 1_455 S
O10 C5 1.209 . S
C11 O8 1.258 . S
C11 O13 1.282 1_655 S
O12 Cd4 2.277 . S
O12 C5 1.226 . S
O13 Cd4 2.356 . S
O13 C11 1.282 1_455 S
C14 O15 1.306 . S
C14 O17 1.160 1_545 S
O15 C14 1.306 . S
O15 Cd16 2.228 . S
Cd16 O15 2.228 . S
Cd16 O20 2.273 . S
Cd16 O24 2.277 . S
O17 C14 1.160 1_565 S
O17 Cd18 2.203 1_565 S
Cd18 O17 2.203 1_545 S
Cd18 O20 2.411 . S
Cd18 O21 2.333 . S
Cd18 O22 2.352 1_545 S
Cd18 O26 2.277 . S
Cd18 O27 2.356 1_545 S
C19 O24 1.209 . S
C19 O26 1.226 . S
O20 Cd16 2.273 . S
O20 Cd18 2.411 . S
O20 C23 1.320 . S
O21 Cd18 2.333 . S
O21 C23 1.214 . S
O22 Cd18 2.352 1_565 S
O22 C25 1.258 . S
C23 O20 1.320 . S
C23 O21 1.214 . S
O24 Cd16 2.277 . S
O24 C19 1.209 . S
C25 O22 1.258 . S
C25 O27 1.282 . S
O26 Cd18 2.277 . S
O26 C19 1.226 . S
O27 Cd18 2.356 1_565 S
O27 C25 1.282 . S
C28 O29 1.306 . S
C28 O31 1.160 . S
O29 C28 1.306 . S
O29 Cd30 2.228 1_655 S
Cd30 O29 2.228 1_455 S
Cd30 O34 2.273 . S
Cd30 O38 2.277 . S
O31 C28 1.160 . S
O31 Cd32 2.203 1_655 S
Cd32 O31 2.203 1_455 S
Cd32 O34 2.411 . S
Cd32 O35 2.333 . S
Cd32 O36 2.352 1_455 S
Cd32 O40 2.277 . S
Cd32 O41 2.356 . S
C33 O38 1.209 . S
C33 O40 1.226 . S
O34 Cd30 2.273 . S
O34 Cd32 2.411 . S
O34 C37 1.320 . S
O35 Cd32 2.333 . S
O35 C37 1.214 . S
O36 Cd32 2.352 1_655 S
O36 C39 1.258 1_655 S
C37 O34 1.320 . S
C37 O35 1.214 . S
O38 Cd30 2.277 . S
O38 C33 1.209 . S
C39 O36 1.258 1_455 S
C39 O41 1.282 . S
O40 Cd32 2.277 . S
O40 C33 1.226 . S
O41 Cd32 2.356 . S
O41 C39 1.282 . S
C42 O43 1.262 1_545 S
C42 O45 1.160 . S
O43 C42 1.262 1_565 S
O43 Cd44 2.262 . S
Cd44 O43 2.262 . S
Cd44 O48 2.273 . S
Cd44 O52 2.277 . S
O45 C42 1.160 . S
O45 Cd46 2.203 . S
Cd46 O45 2.203 . S
Cd46 O48 2.411 1_545 S
Cd46 O49 2.333 . S
Cd46 O50 2.352 . S
Cd46 O54 2.277 . S
Cd46 O55 2.356 . S
C47 O52 1.209 1_545 S
C47 O54 1.226 . S
O48 Cd44 2.273 . S
O48 Cd46 2.411 1_565 S
O48 C51 1.320 . S
O49 Cd46 2.333 . S
O49 C51 1.214 1_545 S
O50 Cd46 2.352 . S
O50 C53 1.258 . S
C51 O48 1.320 . S
C51 O49 1.214 1_565 S
O52 Cd44 2.277 . S
O52 C47 1.209 1_565 S
C53 O50 1.258 . S
C53 O55 1.282 . S
O54 Cd46 2.277 . S
O54 C47 1.226 . S
O55 Cd46 2.356 . S
O55 C53 1.282 . S
C56 O57 1.306 1_545 S
C56 O59 1.160 . S
O57 C56 1.306 1_565 S
O57 Cd58 2.228 . S
Cd58 O57 2.228 . S
Cd58 O62 2.273 . S
Cd58 O66 2.277 . S
O59 C56 1.160 . S
O59 Cd60 2.203 . S
Cd60 O59 2.203 . S
Cd60 O62 2.411 1_545 S
Cd60 O63 2.333 1_545 S
Cd60 O64 2.352 . S
Cd60 O68 2.277 . S
Cd60 O69 2.356 . S
C61 O66 1.209 1_545 S
C61 O68 1.226 . S
O62 Cd58 2.273 . S
O62 Cd60 2.411 1_565 S
O62 C65 1.320 . S
O63 Cd60 2.333 1_565 S
O63 C65 1.214 . S
O64 Cd60 2.352 . S
O64 C67 1.258 . S
C65 O62 1.320 . S
C65 O63 1.214 . S
O66 Cd58 2.277 . S
O66 C61 1.209 1_565 S
C67 O64 1.258 . S
C67 O69 1.282 . S
O68 Cd60 2.277 . S
O68 C61 1.226 . S
O69 Cd60 2.356 . S
O69 C67 1.282 . S
C70 O71 1.306 . S
C70 O73 1.160 . S
O71 C70 1.306 . S
O71 Cd72 2.228 . S
Cd72 O71 2.228 . S
Cd72 O76 2.273 . S
Cd72 O80 2.277 1_455 S
O73 C70 1.160 . S
O73 Cd74 2.203 . S
Cd74 O73 2.203 . S
Cd74 O76 2.411 . S
Cd74 O77 2.333 1_455 S
Cd74 O78 2.352 . S
Cd74 O82 2.277 1_455 S
Cd74 O83 2.356 1_455 S
C75 O80 1.209 . S
C75 O82 1.226 . S
O76 Cd72 2.273 . S
O76 Cd74 2.411 . S
O76 C79 1.320 . S
O77 Cd74 2.333 1_655 S
O77 C79 1.214 1_655 S
O78 Cd74 2.352 . S
O78 C81 1.258 . S
C79 O76 1.320 . S
C79 O77 1.214 1_455 S
O80 Cd72 2.277 1_655 S
O80 C75 1.209 . S
C81 O78 1.258 . S
C81 O83 1.282 1_455 S
O82 Cd74 2.277 1_655 S
O82 C75 1.226 . S
O83 Cd74 2.356 1_655 S
O83 C81 1.282 1_655 S
C84 O85 1.306 . S
C84 O87 1.160 1_545 S
O85 C84 1.306 . S
O85 Cd86 2.228 . S
Cd86 O85 2.228 . S
Cd86 O90 2.273 . S
Cd86 O94 2.277 . S
O87 C84 1.160 1_565 S
O87 Cd88 2.203 1_565 S
Cd88 O87 2.203 1_545 S
Cd88 O90 2.411 . S
Cd88 O91 2.333 . S
Cd88 O92 2.352 1_545 S
Cd88 O96 2.277 . S
Cd88 O97 2.356 1_545 S
C89 O94 1.209 . S
C89 O96 1.226 . S
O90 Cd86 2.273 . S
O90 Cd88 2.411 . S
O90 C93 1.320 . S
O91 Cd88 2.333 . S
O91 C93 1.214 . S
O92 Cd88 2.352 1_565 S
O92 C95 1.258 . S
C93 O90 1.320 . S
C93 O91 1.214 . S
O94 Cd86 2.277 . S
O94 C89 1.209 . S
C95 O92 1.258 . S
C95 O97 1.282 . S
O96 Cd88 2.277 . S
O96 C89 1.226 . S
O97 Cd88 2.356 1_565 S
O97 C95 1.282 . S
C98 O99 1.306 . S
C98 O101 1.160 . S
O99 C98 1.306 . S
O99 Cd100 2.228 . S
Cd100 O99 2.228 . S
Cd100 O104 2.273 . S
Cd100 O108 2.277 1_455 S
O101 C98 1.160 . S
O101 Cd102 2.203 . S
Cd102 O101 2.203 . S
Cd102 O104 2.411 . S
Cd102 O105 2.333 1_455 S
Cd102 O106 2.352 . S
Cd102 O110 2.277 1_455 S
Cd102 O111 2.356 1_455 S
C103 O108 1.209 . S
C103 O110 1.226 . S
O104 Cd100 2.273 . S
O104 Cd102 2.411 . S
O104 C107 1.320 . S
O105 Cd102 2.333 1_655 S
O105 C107 1.214 1_655 S
O106 Cd102 2.352 . S
O106 C109 1.258 . S
C107 O104 1.320 . S
C107 O105 1.214 1_455 S
O108 Cd100 2.277 1_655 S
O108 C103 1.209 . S
C109 O106 1.258 . S
C109 O111 1.282 1_455 S
O110 Cd102 2.277 1_655 S
O110 C103 1.226 . S
O111 Cd102 2.356 1_655 S
O111 C109 1.282 1_655 S
C112 O113 1.306 . S
C112 O115 1.160 . S
O113 C112 1.306 . S
O113 Cd114 2.228 1_556 S
Cd114 O113 2.228 1_554 S
Cd114 O118 2.273 . S
Cd114 O122 2.277 . S
O115 C112 1.160 . S
O115 Cd116 2.203 1_556 S
Cd116 O115 2.203 1_554 S
Cd116 O118 2.411 . S
Cd116 O119 2.333 . S
Cd116 O120 2.352 1_554 S
Cd116 O124 2.277 . S
Cd116 O125 2.356 . S
C117 O122 1.209 . S
C117 O124 1.226 . S
O118 Cd114 2.273 . S
O118 Cd116 2.411 . S
O118 C121 1.320 . S
O119 Cd116 2.333 . S
O119 C121 1.214 . S
O120 Cd116 2.352 1_556 S
O120 C123 1.258 1_556 S
C121 O118 1.320 . S
C121 O119 1.214 . S
O122 Cd114 2.277 . S
O122 C117 1.209 . S
C123 O120 1.258 1_554 S
C123 O125 1.282 . S
O124 Cd116 2.277 . S
O124 C117 1.226 . S
O125 Cd116 2.356 . S
O125 C123 1.282 . S
C126 O127 1.306 1_554 S
C126 O129 1.160 . S
O127 C126 1.306 1_556 S
O127 Cd128 2.228 . S
Cd128 O127 2.228 . S
Cd128 O132 2.273 . S
Cd128 O136 2.277 . S
O129 C126 1.160 . S
O129 Cd130 2.203 . S
Cd130 O129 2.203 . S
Cd130 O132 2.411 1_554 S
Cd130 O133 2.333 1_554 S
Cd130 O134 2.352 . S
Cd130 O138 2.277 . S
Cd130 O139 2.356 . S
C131 O136 1.209 1_554 S
C131 O138 1.226 . S
O132 Cd128 2.273 . S
O132 Cd130 2.411 1_556 S
O132 C135 1.320 . S
O133 Cd130 2.333 1_556 S
O133 C135 1.214 . S
O134 Cd130 2.352 . S
O134 C137 1.258 . S
C135 O132 1.320 . S
C135 O133 1.214 . S
O136 Cd128 2.277 . S
O136 C131 1.209 1_556 S
C137 O134 1.258 . S
C137 O139 1.282 . S
O138 Cd130 2.277 . S
O138 C131 1.226 . S
O139 Cd130 2.356 . S
O139 C137 1.282 . S
C140 O141 1.306 . S
C140 O143 1.160 . S
O141 C140 1.306 . S
O141 Cd142 2.213 1_556 S
Cd142 O141 2.213 1_554 S
Cd142 O146 2.274 . S
Cd142 O150 2.294 . S
O143 C140 1.160 . S
O143 Cd144 2.203 1_556 S
Cd144 O143 2.203 1_554 S
Cd144 O146 2.411 . S
Cd144 O147 2.333 . S
Cd144 O148 2.352 1_554 S
Cd144 O152 2.277 . S
Cd144 O153 2.356 . S
C145 O150 1.209 . S
C145 O152 1.226 . S
O146 Cd142 2.274 . S
O146 Cd144 2.411 . S
O146 C149 1.320 . S
O147 Cd144 2.333 . S
O147 C149 1.214 . S
O148 Cd144 2.352 1_556 S
O148 C151 1.258 1_556 S
C149 O146 1.320 . S
C149 O147 1.214 . S
O150 Cd142 2.294 . S
O150 C145 1.209 . S
C151 O148 1.258 1_554 S
C151 O153 1.282 . S
O152 Cd144 2.277 . S
O152 C145 1.226 . S
O153 Cd144 2.356 . S
O153 C151 1.282 . S
C154 O155 1.306 . S
C154 O157 1.160 1_554 S
O155 C154 1.306 . S
O155 Cd156 2.228 . S
Cd156 O155 2.228 . S
Cd156 O160 2.273 . S
Cd156 O164 2.277 . S
O157 C154 1.160 1_556 S
O157 Cd158 2.203 1_556 S
Cd158 O157 2.203 1_554 S
Cd158 O160 2.411 . S
Cd158 O161 2.333 . S
Cd158 O162 2.352 1_554 S
Cd158 O166 2.277 . S
Cd158 O167 2.356 1_554 S
C159 O164 1.209 . S
C159 O166 1.226 . S
O160 Cd156 2.273 . S
O160 Cd158 2.411 . S
O160 C163 1.320 . S
O161 Cd158 2.333 . S
O161 C163 1.214 . S
O162 Cd158 2.352 1_556 S
O162 C165 1.258 . S
C163 O160 1.320 . S
C163 O161 1.214 . S
O164 Cd156 2.277 . S
O164 C159 1.209 . S
C165 O162 1.258 . S
C165 O167 1.282 . S
O166 Cd158 2.277 . S
O166 C159 1.226 . S
O167 Cd158 2.356 1_556 S
O167 C165 1.282 . S
H168 C176 0.929 . S
H169 C178 0.930 . S
H170 C180 0.930 . S
H171 C183 0.929 . S
H172 C186 0.930 . S
H173 C188 0.960 . S
H174 C188 0.928 1_655 S
H175 C188 0.960 . S
C176 H168 0.929 . S
C176 C177 1.377 . S
C176 C178 1.384 . S
C177 C176 1.377 . S
C177 C183 1.390 1_655 S
C178 H169 0.930 . S
C178 C176 1.384 . S
C178 C179 1.372 . S
C179 C178 1.372 . S
C179 C180 1.399 1_655 S
C179 C184 1.490 1_655 S
C180 H170 0.930 . S
C180 C179 1.399 1_455 S
C180 C183 1.386 . S
H181 C197 0.930 . S
H182 C198 0.931 . S
C183 H171 0.929 . S
C183 C177 1.390 1_455 S
C183 C180 1.386 . S
C184 C179 1.490 1_455 S
C184 C186 1.395 1_455 S
C184 C187 1.403 . S
H185 C191 0.930 . S
C186 H172 0.930 . S
C186 C184 1.395 1_655 S
C186 C189 1.403 1_655 S
C187 C184 1.403 . S
C187 C188 1.524 . S
C187 C191 1.400 . S
C188 H173 0.960 . S
C188 H174 0.928 1_455 S
C188 H175 0.960 . S
C188 C187 1.524 . S
C189 C186 1.403 1_455 S
C189 C190 1.392 . S
C189 C193 1.495 1_455 S
C190 C189 1.392 . S
C190 C191 1.385 . S
C190 C192 1.478 . S
C191 H185 0.930 . S
C191 C187 1.400 . S
C191 C190 1.385 . S
C192 C190 1.478 . S
C192 C194 1.381 1_455 S
C192 C198 1.383 . S
C193 C189 1.495 1_655 S
C193 H199 0.959 . S
C193 H200 0.961 1_655 S
C193 H201 0.960 . S
C194 C192 1.381 1_655 S
C194 C195 1.394 . S
C194 H202 0.930 . S
C195 C194 1.394 . S
C195 C196 1.383 1_655 S
C195 H203 0.929 . S
C196 C195 1.383 1_455 S
C196 C197 1.377 . S
C197 H181 0.930 . S
C197 C196 1.377 . S
C197 C198 1.379 . S
C198 H182 0.931 . S
C198 C192 1.383 . S
C198 C197 1.379 . S
H199 C193 0.959 . S
H200 C193 0.961 1_455 S
H201 C193 0.960 . S
H202 C194 0.930 . S
H203 C195 0.929 . S
H204 C212 0.929 . S
H205 C214 0.930 . S
H206 C216 0.930 . S
H207 C219 0.929 . S
H208 C222 0.930 . S
H209 C224 0.960 . S
H210 C224 0.960 1_565 S
H211 C224 0.960 . S
C212 H204 0.929 . S
C212 C213 1.377 1_565 S
C212 C214 1.384 . S
C213 C212 1.377 1_545 S
C213 C219 1.390 . S
C214 H205 0.930 . S
C214 C212 1.384 . S
C214 C215 1.372 1_565 S
C215 C214 1.372 1_545 S
C215 C216 1.400 . S
C215 C220 1.490 . S
C216 H206 0.930 . S
C216 C215 1.400 . S
C216 C219 1.386 . S
H217 C233 0.930 . S
H218 C234 0.931 . S
C219 H207 0.929 . S
C219 C213 1.390 . S
C219 C216 1.386 . S
C220 C215 1.490 . S
C220 C222 1.395 . S
C220 C223 1.403 . S
H221 C227 0.930 . S
C222 H208 0.930 . S
C222 C220 1.395 . S
C222 C225 1.403 . S
C223 C220 1.403 . S
C223 C224 1.524 . S
C223 C227 1.400 . S
C224 H209 0.960 . S
C224 H210 0.960 1_545 S
C224 H211 0.960 . S
C224 C223 1.524 . S
C225 C222 1.403 . S
C225 C226 1.392 . S
C225 C229 1.495 . S
C226 C225 1.392 . S
C226 C227 1.385 . S
C226 C228 1.478 . S
C227 H221 0.930 . S
C227 C223 1.400 . S
C227 C226 1.385 . S
C228 C226 1.478 . S
C228 C230 1.381 1_545 S
C228 C234 1.383 . S
C229 C225 1.495 . S
C229 H235 0.959 . S
C229 H236 0.961 . S
C229 H237 0.931 1_545 S
C230 C228 1.381 1_565 S
C230 C231 1.395 . S
C230 H238 0.930 . S
C231 C230 1.395 . S
C231 C232 1.381 1_565 S
C231 H239 0.931 . S
C232 C231 1.381 1_545 S
C232 C233 1.377 . S
C233 H217 0.930 . S
C233 C232 1.377 . S
C233 C234 1.379 . S
C234 H218 0.931 . S
C234 C228 1.383 . S
C234 C233 1.379 . S
H235 C229 0.959 . S
H236 C229 0.961 . S
H237 C229 0.931 1_565 S
H238 C230 0.930 . S
H239 C231 0.931 . S
H240 C248 0.929 . S
H241 C250 0.930 . S
H242 C252 0.930 . S
H243 C255 0.929 . S
H244 C258 0.930 . S
H245 C260 0.963 . S
H246 C260 0.948 1_455 S
H247 C260 0.974 . S
C248 H240 0.929 . S
C248 C249 1.377 . S
C248 C250 1.384 . S
C249 C248 1.377 . S
C249 C255 1.390 1_455 S
C250 H241 0.930 . S
C250 C248 1.384 . S
C250 C251 1.372 . S
C251 C250 1.372 . S
C251 C252 1.400 1_455 S
C251 C256 1.490 . S
C252 H242 0.930 . S
C252 C251 1.400 1_655 S
C252 C255 1.386 . S
H253 C269 0.930 1_655 S
H254 C270 0.948 . S
C255 H243 0.929 . S
C255 C249 1.390 1_655 S
C255 C252 1.386 . S
C256 C251 1.490 . S
C256 C258 1.395 . S
C256 C259 1.403 . S
H257 C263 0.930 . S
C258 H244 0.930 . S
C258 C256 1.395 . S
C258 C261 1.403 . S
C259 C256 1.403 . S
C259 C260 1.519 1_455 S
C259 C263 1.400 . S
C260 H245 0.963 . S
C260 H246 0.948 1_655 S
C260 H247 0.974 . S
C260 C259 1.519 1_655 S
C261 C258 1.403 . S
C261 C262 1.392 . S
C261 C265 1.495 . S
C262 C261 1.392 . S
C262 C263 1.385 . S
C262 C264 1.478 . S
C263 H257 0.930 . S
C263 C259 1.400 . S
C263 C262 1.385 . S
C264 C262 1.478 . S
C264 C266 1.381 . S
C264 C270 1.367 1_455 S
C265 C261 1.495 . S
C265 H271 0.959 . S
C265 H272 0.961 . S
C265 H273 0.960 . S
C266 C264 1.381 . S
C266 C267 1.394 . S
C266 H274 0.930 . S
C267 C266 1.394 . S
C267 C268 1.383 . S
C267 H275 0.929 . S
C268 C267 1.383 . S
C268 C269 1.377 . S
C269 H253 0.930 1_455 S
C269 C268 1.377 . S
C269 C270 1.379 1_455 S
C270 H254 0.948 . S
C270 C264 1.367 1_655 S
C270 C269 1.379 1_655 S
H271 C265 0.959 . S
H272 C265 0.961 . S
H273 C265 0.960 . S
H274 C266 0.930 . S
H275 C267 0.929 . S
H276 C284 0.929 . S
H277 C286 0.930 . S
H278 C288 0.930 . S
H279 C291 0.929 . S
H280 C294 0.930 . S
H281 C296 0.960 . S
H282 C296 0.960 . S
H283 C296 0.960 . S
C284 H276 0.929 . S
C284 C285 1.377 . S
C284 C286 1.384 . S
C285 C284 1.377 . S
C285 C291 1.390 . S
C286 H277 0.930 . S
C286 C284 1.384 . S
C286 C287 1.372 . S
C287 C286 1.372 . S
C287 C288 1.400 . S
C287 C292 1.490 . S
C288 H278 0.930 . S
C288 C287 1.400 . S
C288 C291 1.386 . S
H289 C305 0.930 . S
H290 C306 0.930 1_565 S
C291 H279 0.929 . S
C291 C285 1.390 . S
C291 C288 1.386 . S
C292 C287 1.490 . S
C292 C294 1.395 1_545 S
C292 C295 1.403 . S
H293 C299 0.930 . S
C294 H280 0.930 . S
C294 C292 1.395 1_565 S
C294 C297 1.403 . S
C295 C292 1.403 . S
C295 C296 1.524 . S
C295 C299 1.400 . S
C296 H281 0.960 . S
C296 H282 0.960 . S
C296 H283 0.960 . S
C296 C295 1.524 . S
C297 C294 1.403 . S
C297 C298 1.392 1_565 S
C297 C301 1.495 . S
C298 C297 1.392 1_545 S
C298 C299 1.385 . S
C298 C300 1.478 . S
C299 H293 0.930 . S
C299 C295 1.400 . S
C299 C298 1.385 . S
C300 C298 1.478 . S
C300 C302 1.381 . S
C300 C306 1.383 . S
C301 C297 1.495 . S
C301 H307 0.959 . S
C301 H308 0.961 . S
C301 H309 0.960 . S
C302 C300 1.381 . S
C302 C303 1.394 . S
C302 H310 0.930 . S
C303 C302 1.394 . S
C303 C304 1.383 . S
C303 H311 0.929 . S
C304 C303 1.383 . S
C304 C305 1.377 1_545 S
C305 H289 0.930 . S
C305 C304 1.377 1_565 S
C305 C306 1.379 1_565 S
C306 H290 0.930 1_545 S
C306 C300 1.383 . S
C306 C305 1.379 1_545 S
H307 C301 0.959 . S
H308 C301 0.961 . S
H309 C301 0.960 . S
H310 C302 0.930 . S
H311 C303 0.929 . S
H312 C320 0.929 . S
H313 C322 0.930 . S
H314 C324 0.930 1_655 S
H315 C327 0.929 1_655 S
H316 C330 0.930 . S
H317 C332 0.960 . S
H318 C332 0.960 . S
H319 C332 0.960 . S
C320 H312 0.929 . S
C320 C321 1.377 . S
C320 C322 1.384 . S
C321 C320 1.377 . S
C321 C327 1.390 . S
C322 H313 0.930 . S
C322 C320 1.384 . S
C322 C323 1.372 . S
C323 C322 1.372 . S
C323 C324 1.400 . S
C323 C328 1.490 . S
C324 H314 0.930 1_455 S
C324 C323 1.400 . S
C324 C327 1.386 . S
H325 C341 0.930 . S
H326 C342 0.942 . S
C327 H315 0.929 1_455 S
C327 C321 1.390 . S
C327 C324 1.386 . S
C328 C323 1.490 . S
C328 C330 1.395 . S
C328 C331 1.403 1_455 S
H329 C335 0.930 . S
C330 H316 0.930 . S
C330 C328 1.395 . S
C330 C333 1.403 . S
C331 C328 1.403 1_655 S
C331 C332 1.524 . S
C331 C335 1.400 . S
C332 H317 0.960 . S
C332 H318 0.960 . S
C332 H319 0.960 . S
C332 C331 1.524 . S
C333 C330 1.403 . S
C333 C334 1.392 . S
C333 C337 1.495 . S
C334 C333 1.392 . S
C334 C335 1.385 1_455 S
C334 C336 1.478 . S
C335 H329 0.930 . S
C335 C331 1.400 . S
C335 C334 1.385 1_655 S
C336 C334 1.478 . S
C336 C338 1.381 . S
C336 C342 1.368 1_455 S
C337 C333 1.495 . S
C337 H343 0.959 . S
C337 H344 0.961 . S
C337 H345 0.960 . S
C338 C336 1.381 . S
C338 C339 1.394 . S
C338 H346 0.930 . S
C339 C338 1.394 . S
C339 C340 1.383 . S
C339 H347 0.929 . S
C340 C339 1.383 . S
C340 C341 1.377 1_455 S
C341 H325 0.930 . S
C341 C340 1.377 1_655 S
C341 C342 1.384 . S
C342 H326 0.942 . S
C342 C336 1.368 1_655 S
C342 C341 1.384 . S
H343 C337 0.959 . S
H344 C337 0.961 . S
H345 C337 0.960 . S
H346 C338 0.930 . S
H347 C339 0.929 . S
H348 C356 0.903 1_565 S
H349 C358 0.930 1_565 S
H350 C360 0.930 . S
H351 C363 0.929 . S
H352 C366 0.930 . S
H353 C368 0.960 . S
H354 C368 0.960 1_565 S
H355 C368 0.960 . S
C356 H348 0.903 1_545 S
C356 C357 1.377 . S
C356 C358 1.384 . S
C357 C356 1.377 . S
C357 C363 1.390 . S
C358 H349 0.930 1_545 S
C358 C356 1.384 . S
C358 C359 1.372 . S
C359 C358 1.372 . S
C359 C360 1.400 . S
C359 C364 1.490 . S
C360 H350 0.930 . S
C360 C359 1.400 . S
C360 C363 1.386 . S
H361 C377 0.930 . S
H362 C378 0.931 . S
C363 H351 0.929 . S
C363 C357 1.390 . S
C363 C360 1.386 . S
C364 C359 1.490 . S
C364 C366 1.395 . S
C364 C367 1.403 . S
H365 C371 0.930 . S
C366 H352 0.930 . S
C366 C364 1.395 . S
C366 C369 1.403 . S
C367 C364 1.403 . S
C367 C368 1.524 . S
C367 C371 1.400 . S
C368 H353 0.960 . S
C368 H354 0.960 1_545 S
C368 H355 0.960 . S
C368 C367 1.524 . S
C369 C366 1.403 . S
C369 C370 1.392 . S
C369 C373 1.495 . S
C370 C369 1.392 . S
C370 C371 1.385 . S
C370 C372 1.478 . S
C371 H365 0.930 . S
C371 C367 1.400 . S
C371 C370 1.385 . S
C372 C370 1.478 . S
C372 C374 1.381 1_545 S
C372 C378 1.383 . S
C373 C369 1.495 . S
C373 H379 0.959 . S
C373 H380 0.961 . S
C373 H381 0.960 . S
C374 C372 1.381 1_565 S
C374 C375 1.394 . S
C374 H382 0.930 . S
C375 C374 1.394 . S
C375 C376 1.383 1_565 S
C375 H383 0.929 . S
C376 C375 1.383 1_545 S
C376 C377 1.377 . S
C377 H361 0.930 . S
C377 C376 1.377 . S
C377 C378 1.379 . S
C378 H362 0.931 . S
C378 C372 1.383 . S
C378 C377 1.379 . S
H379 C373 0.959 . S
H380 C373 0.961 . S
H381 C373 0.960 . S
H382 C374 0.930 . S
H383 C375 0.929 . S
H384 C392 0.929 . S
H385 C394 0.930 . S
H386 C396 0.930 . S
H387 C399 0.929 . S
H388 C402 0.930 . S
H389 C404 0.960 . S
H390 C404 0.960 . S
H391 C404 0.960 . S
C392 H384 0.929 . S
C392 C393 1.377 . S
C392 C394 1.384 . S
C393 C392 1.377 . S
C393 C399 1.390 . S
C394 H385 0.930 . S
C394 C392 1.384 . S
C394 C395 1.372 . S
C395 C394 1.372 . S
C395 C396 1.400 . S
C395 C400 1.490 . S
C396 H386 0.930 . S
C396 C395 1.400 . S
C396 C399 1.386 . S
H397 C413 0.930 . S
H398 C414 0.931 . S
C399 H387 0.929 . S
C399 C393 1.390 . S
C399 C396 1.386 . S
C400 C395 1.490 . S
C400 C402 1.395 . S
C400 C403 1.403 1_455 S
H401 C407 0.930 . S
C402 H388 0.930 . S
C402 C400 1.395 . S
C402 C405 1.403 . S
C403 C400 1.403 1_655 S
C403 C404 1.524 . S
C403 C407 1.400 . S
C404 H389 0.960 . S
C404 H390 0.960 . S
C404 H391 0.960 . S
C404 C403 1.524 . S
C405 C402 1.403 . S
C405 C406 1.392 . S
C405 C409 1.495 . S
C406 C405 1.392 . S
C406 C407 1.385 1_455 S
C406 C408 1.478 . S
C407 H401 0.930 . S
C407 C403 1.400 . S
C407 C406 1.385 1_655 S
C408 C406 1.478 . S
C408 C410 1.381 . S
C408 C414 1.383 . S
C409 C405 1.495 . S
C409 H415 0.959 . S
C409 H416 0.961 . S
C409 H417 0.960 . S
C410 C408 1.381 . S
C410 C411 1.395 . S
C410 H418 0.930 . S
C411 C410 1.395 . S
C411 C412 1.383 . S
C411 H419 0.929 1_455 S
C412 C411 1.383 . S
C412 C413 1.377 . S
C413 H397 0.930 . S
C413 C412 1.377 . S
C413 C414 1.379 . S
C414 H398 0.931 . S
C414 C408 1.383 . S
C414 C413 1.379 . S
H415 C409 0.959 . S
H416 C409 0.961 . S
H417 C409 0.960 . S
H418 C410 0.930 . S
H419 C411 0.929 1_655 S
H420 C428 0.929 . S
H421 C430 0.930 . S
H422 C432 0.930 . S
H423 C435 0.929 . S
H424 C438 0.930 . S
H425 C440 0.960 . S
H426 C440 0.960 . S
H427 C440 0.960 . S
C428 H420 0.929 . S
C428 C429 1.377 1_565 S
C428 C430 1.384 . S
C429 C428 1.377 1_545 S
C429 C435 1.390 . S
C430 H421 0.930 . S
C430 C428 1.384 . S
C430 C431 1.372 1_565 S
C431 C430 1.372 1_545 S
C431 C432 1.400 . S
C431 C436 1.490 . S
C432 H422 0.930 . S
C432 C431 1.400 . S
C432 C435 1.386 . S
H433 C449 0.930 . S
H434 C450 0.931 . S
C435 H423 0.929 . S
C435 C429 1.390 . S
C435 C432 1.386 . S
C436 C431 1.490 . S
C436 C438 1.395 1_545 S
C436 C439 1.403 . S
H437 C443 0.930 . S
C438 H424 0.930 . S
C438 C436 1.395 1_565 S
C438 C441 1.403 . S
C439 C436 1.403 . S
C439 C440 1.524 . S
C439 C443 1.400 . S
C440 H425 0.960 . S
C440 H426 0.960 . S
C440 H427 0.960 . S
C440 C439 1.524 . S
C441 C438 1.403 . S
C441 C442 1.392 1_565 S
C441 C445 1.495 . S
C442 C441 1.392 1_545 S
C442 C443 1.385 . S
C442 C444 1.478 . S
C443 H437 0.930 . S
C443 C439 1.400 . S
C443 C442 1.385 . S
C444 C442 1.478 . S
C444 C446 1.356 1_545 S
C444 C450 1.383 . S
C445 C441 1.495 . S
C445 H451 0.959 . S
C445 H452 0.961 . S
C445 H453 0.960 . S
C446 C444 1.356 1_565 S
C446 C447 1.389 1_565 S
C446 H454 0.963 . S
C447 C446 1.389 1_545 S
C447 C448 1.383 . S
C447 H455 0.929 1_545 S
C448 C447 1.383 . S
C448 C449 1.377 . S
C449 H433 0.930 . S
C449 C448 1.377 . S
C449 C450 1.379 . S
C450 H434 0.931 . S
C450 C444 1.383 . S
C450 C449 1.379 . S
H451 C445 0.959 . S
H452 C445 0.961 . S
H453 C445 0.960 . S
H454 C446 0.963 . S
H455 C447 0.929 1_565 S
H456 C464 0.929 . S
H457 C466 0.930 . S
H458 C468 0.930 . S
H459 C471 0.929 . S
H460 C474 0.930 . S
H461 C476 0.960 . S
H462 C476 0.960 1_554 S
H463 C476 0.960 . S
C464 H456 0.929 . S
C464 C465 1.377 . S
C464 C466 1.384 . S
C465 C464 1.377 . S
C465 C471 1.390 1_554 S
C466 H457 0.930 . S
C466 C464 1.384 . S
C466 C467 1.372 . S
C467 C466 1.372 . S
C467 C468 1.400 1_554 S
C467 C472 1.490 . S
C468 H458 0.930 . S
C468 C467 1.400 1_556 S
C468 C471 1.386 . S
H469 C485 0.930 . S
H470 C486 0.931 . S
C471 H459 0.929 . S
C471 C465 1.390 1_556 S
C471 C468 1.386 . S
C472 C467 1.490 . S
C472 C474 1.395 . S
C472 C475 1.403 . S
H473 C479 0.930 1_556 S
C474 H460 0.930 . S
C474 C472 1.395 . S
C474 C477 1.403 . S
C475 C472 1.403 . S
C475 C476 1.524 1_554 S
C475 C479 1.400 . S
C476 H461 0.960 . S
C476 H462 0.960 1_556 S
C476 H463 0.960 . S
C476 C475 1.524 1_556 S
C477 C474 1.403 . S
C477 C478 1.392 . S
C477 C481 1.495 . S
C478 C477 1.392 . S
C478 C479 1.385 . S
C478 C480 1.478 . S
C479 H473 0.930 1_554 S
C479 C475 1.400 . S
C479 C478 1.385 . S
C480 C478 1.478 . S
C480 C482 1.381 . S
C480 C486 1.383 1_554 S
C481 C477 1.495 . S
C481 H487 0.959 . S
C481 H488 0.961 . S
C481 H489 0.960 . S
C482 C480 1.381 . S
C482 C483 1.394 . S
C482 H490 0.930 . S
C483 C482 1.394 . S
C483 C484 1.383 . S
C483 H491 0.929 . S
C484 C483 1.383 . S
C484 C485 1.377 1_554 S
C485 H469 0.930 . S
C485 C484 1.377 1_556 S
C485 C486 1.379 . S
C486 H470 0.931 . S
C486 C480 1.383 1_556 S
C486 C485 1.379 . S
H487 C481 0.959 . S
H488 C481 0.961 . S
H489 C481 0.960 . S
H490 C482 0.930 . S
H491 C483 0.929 . S
H492 C500 0.929 . S
H493 C502 0.930 . S
H494 C504 0.930 . S
H495 C507 0.929 . S
H496 C510 0.930 1_556 S
H497 C512 0.960 . S
H498 C512 0.960 . S
H499 C512 0.960 . S
C500 H492 0.929 . S
C500 C501 1.377 . S
C500 C502 1.384 . S
C501 C500 1.377 . S
C501 C507 1.390 . S
C502 H493 0.930 . S
C502 C500 1.384 . S
C502 C503 1.372 . S
C503 C502 1.372 . S
C503 C504 1.400 . S
C503 C508 1.490 . S
C504 H494 0.930 . S
C504 C503 1.400 . S
C504 C507 1.386 . S
H505 C521 0.930 . S
H506 C522 0.931 . S
C507 H495 0.929 . S
C507 C501 1.390 . S
C507 C504 1.386 . S
C508 C503 1.490 . S
C508 C510 1.395 . S
C508 C511 1.403 . S
H509 C515 0.930 . S
C510 H496 0.930 1_554 S
C510 C508 1.395 . S
C510 C513 1.403 1_554 S
C511 C508 1.403 . S
C511 C512 1.524 . S
C511 C515 1.400 . S
C512 H497 0.960 . S
C512 H498 0.960 . S
C512 H499 0.960 . S
C512 C511 1.524 . S
C513 C510 1.403 1_556 S
C513 C514 1.392 1_556 S
C513 C517 1.495 . S
C514 C513 1.392 1_554 S
C514 C515 1.385 . S
C514 C516 1.478 . S
C515 H509 0.930 . S
C515 C511 1.400 . S
C515 C514 1.385 . S
C516 C514 1.478 . S
C516 C518 1.381 . S
C516 C522 1.383 1_554 S
C517 C513 1.495 . S
C517 H523 0.959 . S
C517 H524 0.961 . S
C517 H525 0.960 . S
C518 C516 1.381 . S
C518 C519 1.394 . S
C518 H526 0.930 . S
C519 C518 1.394 . S
C519 C520 1.383 . S
C519 H527 0.929 . S
C520 C519 1.383 . S
C520 C521 1.377 1_554 S
C521 H505 0.930 . S
C521 C520 1.377 1_556 S
C521 C522 1.379 . S
C522 H506 0.931 . S
C522 C516 1.383 1_556 S
C522 C521 1.379 . S
H523 C517 0.959 . S
H524 C517 0.961 . S
H525 C517 0.960 . S
H526 C518 0.930 . S
H527 C519 0.929 . S
H528 C536 0.929 . S
H529 C538 0.930 . S
H530 C540 0.930 . S
H531 C543 0.929 . S
H532 C546 0.930 . S
H533 C548 0.960 . S
H534 C548 0.960 . S
H535 C548 0.960 1_556 S
C536 H528 0.929 . S
C536 C537 1.377 . S
C536 C538 1.384 . S
C537 C536 1.377 . S
C537 C543 1.390 1_554 S
C538 H529 0.930 . S
C538 C536 1.384 . S
C538 C539 1.372 . S
C539 C538 1.372 . S
C539 C540 1.400 1_554 S
C539 C544 1.490 . S
C540 H530 0.930 . S
C540 C539 1.400 1_556 S
C540 C543 1.386 . S
H541 C557 0.930 . S
H542 C558 0.931 . S
C543 H531 0.929 . S
C543 C537 1.390 1_556 S
C543 C540 1.386 . S
C544 C539 1.490 . S
C544 C546 1.395 . S
C544 C547 1.403 . S
H545 C551 0.930 . S
C546 H532 0.930 . S
C546 C544 1.395 . S
C546 C549 1.403 . S
C547 C544 1.403 . S
C547 C548 1.524 . S
C547 C551 1.400 . S
C548 H533 0.960 . S
C548 H534 0.960 . S
C548 H535 0.960 1_554 S
C548 C547 1.524 . S
C549 C546 1.403 . S
C549 C550 1.392 . S
C549 C553 1.495 . S
C550 C549 1.392 . S
C550 C551 1.385 . S
C550 C552 1.478 . S
C551 H545 0.930 . S
C551 C547 1.400 . S
C551 C550 1.385 . S
C552 C550 1.478 . S
C552 C554 1.381 . S
C552 C558 1.383 1_554 S
C553 C549 1.495 . S
C553 H559 0.959 . S
C553 H560 0.961 . S
C553 H561 0.960 . S
C554 C552 1.381 . S
C554 C555 1.394 . S
C554 H562 0.930 . S
C555 C554 1.394 . S
C555 C556 1.383 . S
C555 H563 0.929 . S
C556 C555 1.383 . S
C556 C557 1.377 1_554 S
C557 H541 0.930 . S
C557 C556 1.377 1_556 S
C557 C558 1.379 . S
C558 H542 0.931 . S
C558 C552 1.383 1_556 S
C558 C557 1.379 . S
H559 C553 0.959 . S
H560 C553 0.961 . S
H561 C553 0.960 . S
H562 C554 0.930 . S
H563 C555 0.929 . S
H564 C572 0.929 . S
H565 C574 0.930 . S
H566 C576 0.930 . S
H567 C579 0.929 . S
H568 C582 0.930 . S
H569 C584 0.960 . S
H570 C584 0.960 . S
H571 C584 0.960 . S
C572 H564 0.929 . S
C572 C573 1.377 . S
C572 C574 1.384 . S
C573 C572 1.377 . S
C573 C579 1.390 1_554 S
C574 H565 0.930 . S
C574 C572 1.384 . S
C574 C575 1.372 . S
C575 C574 1.372 . S
C575 C576 1.400 1_554 S
C575 C580 1.490 . S
C576 H566 0.930 . S
C576 C575 1.400 1_556 S
C576 C579 1.386 . S
H577 C593 0.930 1_556 S
H578 C594 0.931 1_556 S
C579 H567 0.929 . S
C579 C573 1.390 1_556 S
C579 C576 1.386 . S
C580 C575 1.490 . S
C580 C582 1.395 . S
C580 C583 1.403 1_554 S
H581 C587 0.932 1_556 S
C582 H568 0.930 . S
C582 C580 1.395 . S
C582 C585 1.403 . S
C583 C580 1.403 1_556 S
C583 C584 1.524 . S
C583 C587 1.400 1_556 S
C584 H569 0.960 . S
C584 H570 0.960 . S
C584 H571 0.960 . S
C584 C583 1.524 . S
C585 C582 1.403 . S
C585 C586 1.392 . S
C585 C589 1.495 . S
C586 C585 1.392 . S
C586 C587 1.383 . S
C586 C588 1.478 . S
C587 H581 0.932 1_554 S
C587 C583 1.400 1_554 S
C587 C586 1.383 . S
C588 C586 1.478 . S
C588 C590 1.381 . S
C588 C594 1.383 . S
C589 C585 1.495 . S
C589 H595 0.959 . S
C589 H596 0.961 . S
C589 H597 0.960 . S
C590 C588 1.381 . S
C590 C591 1.394 . S
C590 H598 0.930 . S
C591 C590 1.394 . S
C591 C592 1.383 . S
C591 H599 0.929 . S
C592 C591 1.383 . S
C592 C593 1.377 . S
C593 H577 0.930 1_554 S
C593 C592 1.377 . S
C593 C594 1.379 . S
C594 H578 0.931 1_554 S
C594 C588 1.383 . S
C594 C593 1.379 . S
H595 C589 0.959 . S
H596 C589 0.961 . S
H597 C589 0.960 . S
H598 C590 0.930 . S
H599 C591 0.929 . S
H600 C608 0.929 . S
H601 C610 0.930 . S
H602 C612 0.930 . S
H603 C615 0.929 . S
H604 C618 0.930 . S
H605 C620 0.960 . S
H606 C620 0.960 . S
H607 C620 0.960 . S
C608 H600 0.929 . S
C608 C609 1.377 . S
C608 C610 1.384 . S
C609 C608 1.377 . S
C609 C615 1.390 . S
C610 H601 0.930 . S
C610 C608 1.384 . S
C610 C611 1.372 . S
C611 C610 1.372 . S
C611 C612 1.400 . S
C611 C616 1.490 . S
C612 H602 0.930 . S
C612 C611 1.400 . S
C612 C615 1.386 . S
H613 C629 0.930 . S
H614 C630 0.931 . S
C615 H603 0.929 . S
C615 C609 1.390 . S
C615 C612 1.386 . S
C616 C611 1.490 . S
C616 C618 1.395 . S
C616 C619 1.403 . S
H617 C623 0.930 . S
C618 H604 0.930 . S
C618 C616 1.395 . S
C618 C621 1.403 . S
C619 C616 1.403 . S
C619 C620 1.524 . S
C619 C623 1.400 . S
C620 H605 0.960 . S
C620 H606 0.960 . S
C620 H607 0.960 . S
C620 C619 1.524 . S
C621 C618 1.403 . S
C621 C622 1.392 . S
C621 C625 1.495 . S
C622 C621 1.392 . S
C622 C623 1.385 . S
C622 C624 1.478 . S
C623 H617 0.930 . S
C623 C619 1.400 . S
C623 C622 1.385 . S
C624 C622 1.478 . S
C624 C626 1.381 . S
C624 C630 1.383 . S
C625 C621 1.495 . S
C625 H631 0.959 . S
C625 H632 0.961 . S
C625 H633 0.960 . S
C626 C624 1.381 . S
C626 C627 1.394 . S
C626 H634 0.930 . S
C627 C626 1.394 . S
C627 C628 1.383 . S
C627 H635 0.929 . S
C628 C627 1.383 . S
C628 C629 1.377 . S
C629 H613 0.930 . S
C629 C628 1.377 . S
C629 C630 1.379 . S
C630 H614 0.931 . S
C630 C624 1.383 . S
C630 C629 1.379 . S
H631 C625 0.959 . S
H632 C625 0.961 . S
H633 C625 0.960 . S
H634 C626 0.930 . S
H635 C627 0.929 . S
H636 C644 0.929 . S
H637 C646 0.930 . S
H638 C648 0.930 . S
H639 C651 0.929 . S
H640 C654 0.930 . S
H641 C656 0.960 . S
H642 C656 0.960 . S
H643 C656 0.960 . S
C644 H636 0.929 . S
C644 C645 1.377 . S
C644 C646 1.384 . S
C645 C644 1.377 . S
C645 C651 1.390 . S
C646 H637 0.930 . S
C646 C644 1.384 . S
C646 C647 1.372 . S
C647 C646 1.372 . S
C647 C648 1.400 . S
C647 C652 1.490 . S
C648 H638 0.930 . S
C648 C647 1.400 . S
C648 C651 1.386 . S
H649 C665 0.930 . S
H650 C666 0.931 . S
C651 H639 0.929 . S
C651 C645 1.390 . S
C651 C648 1.386 . S
C652 C647 1.490 . S
C652 C654 1.395 . S
C652 C655 1.403 . S
H653 C659 0.930 . S
C654 H640 0.930 . S
C654 C652 1.395 . S
C654 C657 1.403 . S
C655 C652 1.403 . S
C655 C656 1.524 . S
C655 C659 1.400 . S
C656 H641 0.960 . S
C656 H642 0.960 . S
C656 H643 0.960 . S
C656 C655 1.524 . S
C657 C654 1.403 . S
C657 C658 1.392 . S
C657 C661 1.495 . S
C658 C657 1.392 . S
C658 C659 1.385 . S
C658 C660 1.478 . S
C659 H653 0.930 . S
C659 C655 1.400 . S
C659 C658 1.385 . S
C660 C658 1.478 . S
C660 C662 1.381 . S
C660 C666 1.383 . S
C661 C657 1.495 . S
C661 H667 0.959 . S
C661 H668 0.961 . S
C661 H669 0.960 . S
C662 C660 1.381 . S
C662 C663 1.394 . S
C662 H670 0.930 . S
C663 C662 1.394 . S
C663 C664 1.383 . S
C663 H671 0.929 . S
C664 C663 1.383 . S
C664 C665 1.377 . S
C665 H649 0.930 . S
C665 C664 1.377 . S
C665 C666 1.379 . S
C666 H650 0.931 . S
C666 C660 1.383 . S
C666 C665 1.379 . S
H667 C661 0.959 . S
H668 C661 0.961 . S
H669 C661 0.960 . S
H670 C662 0.930 . S
H671 C663 0.929 . S
H672 C680 0.929 . S
H673 C682 0.930 . S
H674 C684 0.930 . S
H675 C687 0.929 . S
H676 C690 0.930 . S
H677 C692 0.960 . S
H678 C692 0.960 . S
H679 C692 0.960 . S
C680 H672 0.929 . S
C680 C681 1.377 . S
C680 C682 1.384 . S
C681 C680 1.377 . S
C681 C687 1.390 . S
C682 H673 0.930 . S
C682 C680 1.384 . S
C682 C683 1.372 . S
C683 C682 1.372 . S
C683 C684 1.400 . S
C683 C688 1.490 . S
C684 H674 0.930 . S
C684 C683 1.400 . S
C684 C687 1.386 . S
H685 C701 0.930 . S
H686 C702 0.931 . S
C687 H675 0.929 . S
C687 C681 1.390 . S
C687 C684 1.386 . S
C688 C683 1.490 . S
C688 C690 1.395 . S
C688 C691 1.403 . S
H689 C695 0.930 . S
C690 H676 0.930 . S
C690 C688 1.395 . S
C690 C693 1.403 . S
C691 C688 1.403 . S
C691 C692 1.524 . S
C691 C695 1.400 . S
C692 H677 0.960 . S
C692 H678 0.960 . S
C692 H679 0.960 . S
C692 C691 1.524 . S
C693 C690 1.403 . S
C693 C694 1.392 . S
C693 C697 1.495 . S
C694 C693 1.392 . S
C694 C695 1.385 . S
C694 C696 1.478 . S
C695 H689 0.930 . S
C695 C691 1.400 . S
C695 C694 1.385 . S
C696 C694 1.478 . S
C696 C698 1.381 . S
C696 C702 1.383 . S
C697 C693 1.495 . S
C697 H703 0.959 . S
C697 H704 0.961 . S
C697 H705 0.960 . S
C698 C696 1.381 . S
C698 C699 1.394 . S
C698 H706 0.930 . S
C699 C698 1.394 . S
C699 C700 1.383 . S
C699 H707 0.929 . S
C700 C699 1.383 . S
C700 C701 1.377 . S
C701 H685 0.930 . S
C701 C700 1.377 . S
C701 C702 1.379 . S
C702 H686 0.931 . S
C702 C696 1.383 . S
C702 C701 1.379 . S
H703 C697 0.959 . S
H704 C697 0.961 . S
H705 C697 0.960 . S
H706 C698 0.930 . S
H707 C699 0.929 . S
H708 C716 0.929 . S
H709 C718 0.930 . S
H710 C720 0.930 . S
H711 C723 0.929 . S
H712 C726 0.930 . S
H713 C728 0.960 . S
H714 C728 0.960 . S
H715 C728 0.960 . S
C716 H708 0.929 . S
C716 C717 1.377 . S
C716 C718 1.384 . S
C717 C716 1.377 . S
C717 C723 1.390 . S
C718 H709 0.930 . S
C718 C716 1.384 . S
C718 C719 1.372 . S
C719 C718 1.372 . S
C719 C720 1.400 . S
C719 C724 1.490 . S
C720 H710 0.930 . S
C720 C719 1.400 . S
C720 C723 1.386 . S
H721 C737 0.930 . S
H722 C738 0.931 . S
C723 H711 0.929 . S
C723 C717 1.390 . S
C723 C720 1.386 . S
C724 C719 1.490 . S
C724 C726 1.395 . S
C724 C727 1.403 . S
H725 C731 0.930 . S
C726 H712 0.930 . S
C726 C724 1.395 . S
C726 C729 1.403 . S
C727 C724 1.403 . S
C727 C728 1.524 . S
C727 C731 1.400 . S
C728 H713 0.960 . S
C728 H714 0.960 . S
C728 H715 0.960 . S
C728 C727 1.524 . S
C729 C726 1.403 . S
C729 C730 1.392 . S
C729 C733 1.495 . S
C730 C729 1.392 . S
C730 C731 1.385 . S
C730 C732 1.478 . S
C731 H725 0.930 . S
C731 C727 1.400 . S
C731 C730 1.385 . S
C732 C730 1.478 . S
C732 C734 1.381 . S
C732 C738 1.383 . S
C733 C729 1.495 . S
C733 H739 0.959 . S
C733 H740 0.961 . S
C733 H741 0.960 . S
C734 C732 1.381 . S
C734 C735 1.394 . S
C734 H742 0.930 . S
C735 C734 1.394 . S
C735 C736 1.383 . S
C735 H743 0.929 . S
C736 C735 1.383 . S
C736 C737 1.377 . S
C737 H721 0.930 . S
C737 C736 1.377 . S
C737 C738 1.379 . S
C738 H722 0.931 . S
C738 C732 1.383 . S
C738 C737 1.379 . S
H739 C733 0.959 . S
H740 C733 0.961 . S
H741 C733 0.960 . S
H742 C734 0.930 . S
H743 C735 0.929 . S
H744 C752 0.929 . S
H745 C754 0.930 . S
H746 C756 0.930 . S
H747 C759 0.929 . S
H748 C762 0.930 . S
H749 C764 0.960 . S
H750 C764 0.960 . S
H751 C764 0.960 . S
C752 H744 0.929 . S
C752 C753 1.377 . S
C752 C754 1.384 . S
C753 C752 1.377 . S
C753 C759 1.390 . S
C754 H745 0.930 . S
C754 C752 1.384 . S
C754 C755 1.372 . S
C755 C754 1.372 . S
C755 C756 1.400 . S
C755 C760 1.490 . S
C756 H746 0.930 . S
C756 C755 1.400 . S
C756 C759 1.386 . S
H757 C773 0.930 . S
H758 C774 0.931 . S
C759 H747 0.929 . S
C759 C753 1.390 . S
C759 C756 1.386 . S
C760 C755 1.490 . S
C760 C762 1.395 . S
C760 C763 1.403 . S
H761 C767 0.930 . S
C762 H748 0.930 . S
C762 C760 1.395 . S
C762 C765 1.403 . S
C763 C760 1.403 . S
C763 C764 1.524 . S
C763 C767 1.400 . S
C764 H749 0.960 . S
C764 H750 0.960 . S
C764 H751 0.960 . S
C764 C763 1.524 . S
C765 C762 1.403 . S
C765 C766 1.392 . S
C765 C769 1.495 . S
C766 C765 1.392 . S
C766 C767 1.385 . S
C766 C768 1.478 . S
C767 H761 0.930 . S
C767 C763 1.400 . S
C767 C766 1.385 . S
C768 C766 1.478 . S
C768 C770 1.381 . S
C768 C774 1.383 . S
C769 C765 1.495 . S
C769 H775 0.959 . S
C769 H776 0.961 . S
C769 H777 0.960 . S
C770 C768 1.381 . S
C770 C771 1.394 . S
C770 H778 0.930 . S
C771 C770 1.394 . S
C771 C772 1.383 . S
C771 H779 0.929 . S
C772 C771 1.383 . S
C772 C773 1.377 . S
C773 H757 0.930 . S
C773 C772 1.377 . S
C773 C774 1.379 . S
C774 H758 0.931 . S
C774 C768 1.383 . S
C774 C773 1.379 . S
H775 C769 0.959 . S
H776 C769 0.961 . S
H777 C769 0.960 . S
H778 C770 0.930 . S
H779 C771 0.929 . S
H780 C788 0.929 . S
H781 C790 0.930 . S
H782 C792 0.930 . S
H783 C795 0.929 . S
H784 C798 0.930 . S
H785 C800 0.960 . S
H786 C800 0.960 . S
H787 C800 0.960 . S
C788 H780 0.929 . S
C788 C789 1.377 . S
C788 C790 1.384 . S
C789 C788 1.377 . S
C789 C795 1.390 . S
C790 H781 0.930 . S
C790 C788 1.384 . S
C790 C791 1.372 . S
C791 C790 1.372 . S
C791 C792 1.400 . S
C791 C796 1.490 . S
C792 H782 0.930 . S
C792 C791 1.400 . S
C792 C795 1.386 . S
H793 C809 0.930 . S
H794 C810 0.931 . S
C795 H783 0.929 . S
C795 C789 1.390 . S
C795 C792 1.386 . S
C796 C791 1.490 . S
C796 C798 1.395 . S
C796 C799 1.403 . S
H797 C803 0.930 . S
C798 H784 0.930 . S
C798 C796 1.395 . S
C798 C801 1.403 . S
C799 C796 1.403 . S
C799 C800 1.524 . S
C799 C803 1.400 . S
C800 H785 0.960 . S
C800 H786 0.960 . S
C800 H787 0.960 . S
C800 C799 1.524 . S
C801 C798 1.403 . S
C801 C802 1.392 . S
C801 C805 1.495 . S
C802 C801 1.392 . S
C802 C803 1.385 . S
C802 C804 1.478 . S
C803 H797 0.930 . S
C803 C799 1.400 . S
C803 C802 1.385 . S
C804 C802 1.478 . S
C804 C806 1.381 . S
C804 C810 1.383 . S
C805 C801 1.495 . S
C805 H811 0.959 . S
C805 H812 0.961 . S
C805 H813 0.960 . S
C806 C804 1.381 . S
C806 C807 1.394 . S
C806 H814 0.930 . S
C807 C806 1.394 . S
C807 C808 1.383 . S
C807 H815 0.929 . S
C808 C807 1.383 . S
C808 C809 1.377 . S
C809 H793 0.930 . S
C809 C808 1.377 . S
C809 C810 1.379 . S
C810 H794 0.931 . S
C810 C804 1.383 . S
C810 C809 1.379 . S
H811 C805 0.959 . S
H812 C805 0.961 . S
H813 C805 0.960 . S
H814 C806 0.930 . S
H815 C807 0.929 . S
H816 C824 0.929 . S
H817 C826 0.930 . S
H818 C828 0.930 . S
H819 C831 0.929 . S
H820 C834 0.930 . S
H821 C836 0.960 . S
H822 C836 0.960 . S
H823 C836 0.960 . S
C824 H816 0.929 . S
C824 C825 1.377 . S
C824 C826 1.384 . S
C825 C824 1.377 . S
C825 C831 1.390 . S
C826 H817 0.930 . S
C826 C824 1.384 . S
C826 C827 1.372 . S
C827 C826 1.372 . S
C827 C828 1.400 . S
C827 C832 1.490 . S
C828 H818 0.930 . S
C828 C827 1.400 . S
C828 C831 1.386 . S
H829 C845 0.930 . S
H830 C846 0.931 . S
C831 H819 0.929 . S
C831 C825 1.390 . S
C831 C828 1.386 . S
C832 C827 1.490 . S
C832 C834 1.395 . S
C832 C835 1.403 . S
H833 C839 0.930 . S
C834 H820 0.930 . S
C834 C832 1.395 . S
C834 C837 1.403 . S
C835 C832 1.403 . S
C835 C836 1.524 . S
C835 C839 1.400 . S
C836 H821 0.960 . S
C836 H822 0.960 . S
C836 H823 0.960 . S
C836 C835 1.524 . S
C837 C834 1.403 . S
C837 C838 1.392 . S
C837 C841 1.495 . S
C838 C837 1.392 . S
C838 C839 1.385 . S
C838 C840 1.478 . S
C839 H833 0.930 . S
C839 C835 1.400 . S
C839 C838 1.385 . S
C840 C838 1.478 . S
C840 C842 1.381 . S
C840 C846 1.383 . S
C841 C837 1.495 . S
C841 H847 0.959 . S
C841 H848 0.961 . S
C841 H849 0.960 . S
C842 C840 1.381 . S
C842 C843 1.394 . S
C842 H850 0.930 . S
C843 C842 1.394 . S
C843 C844 1.383 . S
C843 H851 0.929 . S
C844 C843 1.383 . S
C844 C845 1.377 . S
C845 H829 0.930 . S
C845 C844 1.377 . S
C845 C846 1.379 . S
C846 H830 0.931 . S
C846 C840 1.383 . S
C846 C845 1.379 . S
H847 C841 0.959 . S
H848 C841 0.961 . S
H849 C841 0.960 . S
H850 C842 0.930 . S
H851 C843 0.929 . S
H852 C860 0.929 . S
H853 C862 0.930 . S
H854 C864 0.930 . S
H855 C867 0.929 . S
H856 C870 0.930 . S
H857 C872 0.960 . S
H858 C872 0.960 . S
H859 C872 0.960 . S
C860 H852 0.929 . S
C860 C861 1.377 . S
C860 C862 1.384 . S
C861 C860 1.377 . S
C861 C867 1.390 . S
C862 H853 0.930 . S
C862 C860 1.384 . S
C862 C863 1.372 . S
C863 C862 1.372 . S
C863 C864 1.400 . S
C863 C868 1.490 . S
C864 H854 0.930 . S
C864 C863 1.400 . S
C864 C867 1.386 . S
H865 C881 0.930 . S
H866 C882 0.931 . S
C867 H855 0.929 . S
C867 C861 1.390 . S
C867 C864 1.386 . S
C868 C863 1.490 . S
C868 C870 1.395 . S
C868 C871 1.403 . S
H869 C875 0.930 . S
C870 H856 0.930 . S
C870 C868 1.395 . S
C870 C873 1.403 . S
C871 C868 1.403 . S
C871 C872 1.524 . S
C871 C875 1.400 . S
C872 H857 0.960 . S
C872 H858 0.960 . S
C872 H859 0.960 . S
C872 C871 1.524 . S
C873 C870 1.403 . S
C873 C874 1.392 . S
C873 C877 1.495 . S
C874 C873 1.392 . S
C874 C875 1.385 . S
C874 C876 1.478 . S
C875 H869 0.930 . S
C875 C871 1.400 . S
C875 C874 1.385 . S
C876 C874 1.478 . S
C876 C878 1.381 . S
C876 C882 1.383 . S
C877 C873 1.495 . S
C877 H883 0.959 . S
C877 H884 0.961 . S
C877 H885 0.960 . S
C878 C876 1.381 . S
C878 C879 1.394 . S
C878 H886 0.930 . S
C879 C878 1.394 . S
C879 C880 1.383 . S
C879 H887 0.929 . S
C880 C879 1.383 . S
C880 C881 1.377 . S
C881 H865 0.930 . S
C881 C880 1.377 . S
C881 C882 1.379 . S
C882 H866 0.931 . S
C882 C876 1.383 . S
C882 C881 1.379 . S
H883 C877 0.959 . S
H884 C877 0.961 . S
H885 C877 0.960 . S
H886 C878 0.930 . S
H887 C879 0.929 . S
H888 C896 0.929 . S
H889 C898 0.930 . S
H890 C900 0.930 . S
H891 C903 0.929 . S
H892 C906 0.930 . S
H893 C908 0.960 . S
H894 C908 0.960 . S
H895 C908 0.960 . S
C896 H888 0.929 . S
C896 C897 1.377 . S
C896 C898 1.384 . S
C897 C896 1.377 . S
C897 C903 1.390 . S
C898 H889 0.930 . S
C898 C896 1.384 . S
C898 C899 1.372 . S
C899 C898 1.372 . S
C899 C900 1.400 . S
C899 C904 1.490 . S
C900 H890 0.930 . S
C900 C899 1.400 . S
C900 C903 1.386 . S
H901 C917 0.930 . S
H902 C918 0.931 . S
C903 H891 0.929 . S
C903 C897 1.390 . S
C903 C900 1.386 . S
C904 C899 1.490 . S
C904 C906 1.395 . S
C904 C907 1.403 . S
H905 C911 0.930 . S
C906 H892 0.930 . S
C906 C904 1.395 . S
C906 C909 1.403 . S
C907 C904 1.403 . S
C907 C908 1.524 . S
C907 C911 1.400 . S
C908 H893 0.960 . S
C908 H894 0.960 . S
C908 H895 0.960 . S
C908 C907 1.524 . S
C909 C906 1.403 . S
C909 C910 1.392 . S
C909 C913 1.495 . S
C910 C909 1.392 . S
C910 C911 1.385 . S
C910 C912 1.478 . S
C911 H905 0.930 . S
C911 C907 1.400 . S
C911 C910 1.385 . S
C912 C910 1.478 . S
C912 C914 1.381 . S
C912 C918 1.383 . S
C913 C909 1.495 . S
C913 H919 0.959 . S
C913 H920 0.961 . S
C913 H921 0.960 . S
C914 C912 1.381 . S
C914 C915 1.394 . S
C914 H922 0.930 . S
C915 C914 1.394 . S
C915 C916 1.383 . S
C915 H923 0.929 . S
C916 C915 1.383 . S
C916 C917 1.377 . S
C917 H901 0.930 . S
C917 C916 1.377 . S
C917 C918 1.379 . S
C918 H902 0.931 . S
C918 C912 1.383 . S
C918 C917 1.379 . S
H919 C913 0.959 . S
H920 C913 0.961 . S
H921 C913 0.960 . S
H922 C914 0.930 . S
H923 C915 0.929 . S
H924 C932 0.929 . S
H925 C934 0.930 . S
H926 C936 0.930 . S
H927 C939 0.929 . S
H928 C942 0.930 . S
H929 C944 0.960 . S
H930 C944 0.960 . S
H931 C944 0.960 . S
C932 H924 0.929 . S
C932 C933 1.377 . S
C932 C934 1.384 . S
C933 C932 1.377 . S
C933 C939 1.390 . S
C934 H925 0.930 . S
C934 C932 1.384 . S
C934 C935 1.372 . S
C935 C934 1.372 . S
C935 C936 1.400 . S
C935 C940 1.490 . S
C936 H926 0.930 . S
C936 C935 1.400 . S
C936 C939 1.386 . S
H937 C953 0.930 . S
H938 C954 0.931 . S
C939 H927 0.929 . S
C939 C933 1.390 . S
C939 C936 1.386 . S
C940 C935 1.490 . S
C940 C942 1.395 . S
C940 C943 1.403 . S
H941 C947 0.930 . S
C942 H928 0.930 . S
C942 C940 1.395 . S
C942 C945 1.403 . S
C943 C940 1.403 . S
C943 C944 1.524 . S
C943 C947 1.400 . S
C944 H929 0.960 . S
C944 H930 0.960 . S
C944 H931 0.960 . S
C944 C943 1.524 . S
C945 C942 1.403 . S
C945 C946 1.392 . S
C945 C949 1.495 . S
C946 C945 1.392 . S
C946 C947 1.385 . S
C946 C948 1.478 . S
C947 H941 0.930 . S
C947 C943 1.400 . S
C947 C946 1.385 . S
C948 C946 1.478 . S
C948 C950 1.381 . S
C948 C954 1.383 . S
C949 C945 1.495 . S
C949 H955 0.959 . S
C949 H956 0.961 . S
C949 H957 0.960 . S
C950 C948 1.381 . S
C950 C951 1.394 . S
C950 H958 0.930 . S
C951 C950 1.394 . S
C951 C952 1.383 . S
C951 H959 0.929 . S
C952 C951 1.383 . S
C952 C953 1.377 . S
C953 H937 0.930 . S
C953 C952 1.377 . S
C953 C954 1.379 . S
C954 H938 0.931 . S
C954 C948 1.383 . S
C954 C953 1.379 . S
H955 C949 0.959 . S
H956 C949 0.961 . S
H957 C949 0.960 . S
H958 C950 0.930 . S
H959 C951 0.929 . S
H960 C968 0.929 . S
H961 C970 0.930 . S
H962 C972 0.930 . S
H963 C975 0.929 . S
H964 C978 0.930 . S
H965 C980 0.960 . S
H966 C980 0.960 . S
H967 C980 0.960 . S
C968 H960 0.929 . S
C968 C969 1.377 . S
C968 C970 1.384 . S
C969 C968 1.377 . S
C969 C975 1.390 . S
C970 H961 0.930 . S
C970 C968 1.384 . S
C970 C971 1.372 . S
C971 C970 1.372 . S
C971 C972 1.400 . S
C971 C976 1.490 . S
C972 H962 0.930 . S
C972 C971 1.400 . S
C972 C975 1.386 . S
H973 C989 0.930 . S
H974 C990 0.931 . S
C975 H963 0.929 . S
C975 C969 1.390 . S
C975 C972 1.386 . S
C976 C971 1.490 . S
C976 C978 1.395 . S
C976 C979 1.403 . S
H977 C983 0.930 . S
C978 H964 0.930 . S
C978 C976 1.395 . S
C978 C981 1.403 . S
C979 C976 1.403 . S
C979 C980 1.524 . S
C979 C983 1.400 . S
C980 H965 0.960 . S
C980 H966 0.960 . S
C980 H967 0.960 . S
C980 C979 1.524 . S
C981 C978 1.403 . S
C981 C982 1.392 . S
C981 C985 1.495 . S
C982 C981 1.392 . S
C982 C983 1.385 . S
C982 C984 1.478 . S
C983 H977 0.930 . S
C983 C979 1.400 . S
C983 C982 1.385 . S
C984 C982 1.478 . S
C984 C986 1.381 . S
C984 C990 1.383 . S
C985 C981 1.495 . S
C985 H991 0.959 . S
C985 H992 0.961 . S
C985 H993 0.960 . S
C986 C984 1.381 . S
C986 C987 1.394 . S
C986 H994 0.930 . S
C987 C986 1.394 . S
C987 C988 1.383 . S
C987 H995 0.929 . S
C988 C987 1.383 . S
C988 C989 1.377 . S
C989 H973 0.930 . S
C989 C988 1.377 . S
C989 C990 1.379 . S
C990 H974 0.931 . S
C990 C984 1.383 . S
C990 C989 1.379 . S
H991 C985 0.959 . S
H992 C985 0.961 . S
H993 C985 0.960 . S
H994 C986 0.930 . S
H995 C987 0.929 . S
H996 C1004 0.929 . S
H997 C1006 0.930 . S
H998 C1008 0.930 . S
H999 C1011 0.929 . S
H1000 C1014 0.930 . S
H1001 C1016 0.960 . S
H1002 C1016 0.960 . S
H1003 C1016 0.960 . S
C1004 H996 0.929 . S
C1004 C1005 1.377 . S
C1004 C1006 1.384 . S
C1005 C1004 1.377 . S
C1005 C1011 1.390 . S
C1006 H997 0.930 . S
C1006 C1004 1.384 . S
C1006 C1007 1.372 . S
C1007 C1006 1.372 . S
C1007 C1008 1.400 . S
C1007 C1012 1.490 . S
C1008 H998 0.930 . S
C1008 C1007 1.400 . S
C1008 C1011 1.386 . S
H1009 C1025 0.930 . S
H1010 C1026 0.931 . S
C1011 H999 0.929 . S
C1011 C1005 1.390 . S
C1011 C1008 1.386 . S
C1012 C1007 1.490 . S
C1012 C1014 1.395 . S
C1012 C1015 1.403 . S
H1013 C1019 0.930 . S
C1014 H1000 0.930 . S
C1014 C1012 1.395 . S
C1014 C1017 1.403 . S
C1015 C1012 1.403 . S
C1015 C1016 1.524 . S
C1015 C1019 1.400 . S
C1016 H1001 0.960 . S
C1016 H1002 0.960 . S
C1016 H1003 0.960 . S
C1016 C1015 1.524 . S
C1017 C1014 1.403 . S
C1017 C1018 1.392 . S
C1017 C1021 1.495 . S
C1018 C1017 1.392 . S
C1018 C1019 1.385 . S
C1018 C1020 1.478 . S
C1019 H1013 0.930 . S
C1019 C1015 1.400 . S
C1019 C1018 1.385 . S
C1020 C1018 1.478 . S
C1020 C1022 1.381 . S
C1020 C1026 1.383 . S
C1021 C1017 1.495 . S
C1021 H1027 0.959 . S
C1021 H1028 0.961 . S
C1021 H1029 0.960 . S
C1022 C1020 1.381 . S
C1022 C1023 1.394 . S
C1022 H1030 0.930 . S
C1023 C1022 1.394 . S
C1023 C1024 1.383 . S
C1023 H1031 0.929 . S
C1024 C1023 1.383 . S
C1024 C1025 1.377 . S
C1025 H1009 0.930 . S
C1025 C1024 1.377 . S
C1025 C1026 1.379 . S
C1026 H1010 0.931 . S
C1026 C1020 1.383 . S
C1026 C1025 1.379 . S
H1027 C1021 0.959 . S
H1028 C1021 0.961 . S
H1029 C1021 0.960 . S
H1030 C1022 0.930 . S
H1031 C1023 0.929 . S
C177 C11 1.441 . S
C196 C81 1.429 . S
C213 C14 1.391 . S
C232 C56 1.380 . S
C249 C79 1.342 . S
C268 C37 1.356 . S
C285 C42 1.390 . S
C304 C61 1.412 . S
C321 C109 1.436 . S
C340 C39 1.418 . S
C357 C89 1.392 . S
C376 C47 1.394 . S
C393 C9 1.343 . S
C412 C107 1.336 . S
C429 C84 1.388 . S
C448 C19 1.390 . S
C465 C126 1.416 . S
C484 C123 1.405 . S
C501 C121 1.376 . S
C520 C154 1.363 . S
C537 C131 1.370 . S
C556 C149 1.379 . S
C573 C151 1.412 . S
C592 C159 1.434 . S
C609 C165 1.433 . S
C628 C95 1.434 . S
C645 C112 1.384 . S
C664 C98 1.368 . S
C681 C93 1.342 . S
C700 C135 1.353 . S
C717 C103 1.410 . S
C736 C140 1.378 . S
C753 C67 1.435 . S
C772 C137 1.418 . S
C789 C75 1.397 . S
C808 C145 1.390 . S
C825 C163 1.340 . S
C844 C65 1.350 . S
C861 C117 1.403 . S
C880 C70 1.389 . S
C897 C25 1.414 . S
C916 C28 1.412 . S
C933 C0 1.357 . S
C952 C23 1.366 . S
C969 C33 1.370 . S
C988 C51 1.375 . S
C1005 C5 1.426 . S
C1024 C53 1.428 . S
