# Generated by pormake.
# Topology whk, (6)-cn, num edge types: 1
# Building blocks:
#     Node 0, Type 0, BuildingBlock: UKALOJ_clean_sbu_0, # of connection points: 6
#     Node 1, Type 0, BuildingBlock: UKALOJ_clean_sbu_0, # of connection points: 6
#     Node 2, Type 0, BuildingBlock: UKALOJ_clean_sbu_0, # of connection points: 6
#     Node 3, Type 0, BuildingBlock: UKALOJ_clean_sbu_0, # of connection points: 6
#     Node 4, Type 0, BuildingBlock: UKALOJ_clean_sbu_0, # of connection points: 6
#     Node 5, Type 0, BuildingBlock: UKALOJ_clean_sbu_0, # of connection points: 6
#     Node 6, Type 0, BuildingBlock: UKALOJ_clean_sbu_0, # of connection points: 6
#     Node 7, Type 0, BuildingBlock: UKALOJ_clean_sbu_0, # of connection points: 6
#     Node 8, Type 0, BuildingBlock: UKALOJ_clean_sbu_0, # of connection points: 6
#     Node 9, Type 0, BuildingBlock: UKALOJ_clean_sbu_0, # of connection points: 6
#     Node 10, Type 0, BuildingBlock: UKALOJ_clean_sbu_0, # of connection points: 6
#     Node 11, Type 0, BuildingBlock: UKALOJ_clean_sbu_0, # of connection points: 6
#     Node 12, Type 0, BuildingBlock: UKALOJ_clean_sbu_0, # of connection points: 6
#     Node 13, Type 0, BuildingBlock: UKALOJ_clean_sbu_0, # of connection points: 6
#     Node 14, Type 0, BuildingBlock: UKALOJ_clean_sbu_0, # of connection points: 6
#     Node 15, Type 0, BuildingBlock: UKALOJ_clean_sbu_0, # of connection points: 6
#     Edge 16, Type (0, 0), BuildingBlock: EZIPEK_clean_linker_0, # of connection points: 2
#     Edge 17, Type (0, 0), BuildingBlock: EZIPEK_clean_linker_0, # of connection points: 2
#     Edge 18, Type (0, 0), BuildingBlock: EZIPEK_clean_linker_0, # of connection points: 2
#     Edge 19, Type (0, 0), BuildingBlock: EZIPEK_clean_linker_0, # of connection points: 2
#     Edge 20, Type (0, 0), BuildingBlock: EZIPEK_clean_linker_0, # of connection points: 2
#     Edge 21, Type (0, 0), BuildingBlock: EZIPEK_clean_linker_0, # of connection points: 2
#     Edge 22, Type (0, 0), BuildingBlock: EZIPEK_clean_linker_0, # of connection points: 2
#     Edge 23, Type (0, 0), BuildingBlock: EZIPEK_clean_linker_0, # of connection points: 2
#     Edge 24, Type (0, 0), BuildingBlock: EZIPEK_clean_linker_0, # of connection points: 2
#     Edge 25, Type (0, 0), BuildingBlock: EZIPEK_clean_linker_0, # of connection points: 2
#     Edge 26, Type (0, 0), BuildingBlock: EZIPEK_clean_linker_0, # of connection points: 2
#     Edge 27, Type (0, 0), BuildingBlock: EZIPEK_clean_linker_0, # of connection points: 2
#     Edge 28, Type (0, 0), BuildingBlock: EZIPEK_clean_linker_0, # of connection points: 2
#     Edge 29, Type (0, 0), BuildingBlock: EZIPEK_clean_linker_0, # of connection points: 2
#     Edge 30, Type (0, 0), BuildingBlock: EZIPEK_clean_linker_0, # of connection points: 2
#     Edge 31, Type (0, 0), BuildingBlock: EZIPEK_clean_linker_0, # of connection points: 2
#     Edge 32, Type (0, 0), BuildingBlock: EZIPEK_clean_linker_0, # of connection points: 2
#     Edge 33, Type (0, 0), BuildingBlock: EZIPEK_clean_linker_0, # of connection points: 2
#     Edge 34, Type (0, 0), BuildingBlock: EZIPEK_clean_linker_0, # of connection points: 2
#     Edge 35, Type (0, 0), BuildingBlock: EZIPEK_clean_linker_0, # of connection points: 2
#     Edge 36, Type (0, 0), BuildingBlock: EZIPEK_clean_linker_0, # of connection points: 2
#     Edge 37, Type (0, 0), BuildingBlock: EZIPEK_clean_linker_0, # of connection points: 2
#     Edge 38, Type (0, 0), BuildingBlock: EZIPEK_clean_linker_0, # of connection points: 2
#     Edge 39, Type (0, 0), BuildingBlock: EZIPEK_clean_linker_0, # of connection points: 2
#     Edge 40, Type (0, 0), BuildingBlock: EZIPEK_clean_linker_0, # of connection points: 2
#     Edge 41, Type (0, 0), BuildingBlock: EZIPEK_clean_linker_0, # of connection points: 2
#     Edge 42, Type (0, 0), BuildingBlock: EZIPEK_clean_linker_0, # of connection points: 2
#     Edge 43, Type (0, 0), BuildingBlock: EZIPEK_clean_linker_0, # of connection points: 2
#     Edge 44, Type (0, 0), BuildingBlock: EZIPEK_clean_linker_0, # of connection points: 2
#     Edge 45, Type (0, 0), BuildingBlock: EZIPEK_clean_linker_0, # of connection points: 2
#     Edge 46, Type (0, 0), BuildingBlock: EZIPEK_clean_linker_0, # of connection points: 2
#     Edge 47, Type (0, 0), BuildingBlock: EZIPEK_clean_linker_0, # of connection points: 2
#     Edge 48, Type (0, 0), BuildingBlock: EZIPEK_clean_linker_0, # of connection points: 2
#     Edge 49, Type (0, 0), BuildingBlock: EZIPEK_clean_linker_0, # of connection points: 2
#     Edge 50, Type (0, 0), BuildingBlock: EZIPEK_clean_linker_0, # of connection points: 2
#     Edge 51, Type (0, 0), BuildingBlock: EZIPEK_clean_linker_0, # of connection points: 2
#     Edge 52, Type (0, 0), BuildingBlock: EZIPEK_clean_linker_0, # of connection points: 2
#     Edge 53, Type (0, 0), BuildingBlock: EZIPEK_clean_linker_0, # of connection points: 2
#     Edge 54, Type (0, 0), BuildingBlock: EZIPEK_clean_linker_0, # of connection points: 2
#     Edge 55, Type (0, 0), BuildingBlock: EZIPEK_clean_linker_0, # of connection points: 2
#     Edge 56, Type (0, 0), BuildingBlock: EZIPEK_clean_linker_0, # of connection points: 2
#     Edge 57, Type (0, 0), BuildingBlock: EZIPEK_clean_linker_0, # of connection points: 2
#     Edge 58, Type (0, 0), BuildingBlock: EZIPEK_clean_linker_0, # of connection points: 2
#     Edge 59, Type (0, 0), BuildingBlock: EZIPEK_clean_linker_0, # of connection points: 2
#     Edge 60, Type (0, 0), BuildingBlock: EZIPEK_clean_linker_0, # of connection points: 2
#     Edge 61, Type (0, 0), BuildingBlock: EZIPEK_clean_linker_0, # of connection points: 2
#     Edge 62, Type (0, 0), BuildingBlock: EZIPEK_clean_linker_0, # of connection points: 2
#     Edge 63, Type (0, 0), BuildingBlock: EZIPEK_clean_linker_0, # of connection points: 2
# Relax obj value: 0.444
# Max RMSD: 0.279
# Mean RMSD: 0.279
data_MOF--net-whk--node1-UKALOJ_clean_sbu_0--edge1-EZIPEK_clean_linker_0
_symmetry_space_group_name_H-M    P1
_symmetry_Int_Tables_number       1
_symmetry_cell_setting            triclinic
loop_
_symmetry_equiv_pos_as_xyz
'x, y, z'
_cell_length_a     29.033172
_cell_length_b     29.059198
_cell_length_c     40.191704
_cell_angle_alpha  90.065658
_cell_angle_beta   90.042686
_cell_angle_gamma 90.104606
loop_
_atom_site_label
_atom_site_type_symbol
_atom_site_fract_x
_atom_site_fract_y
_atom_site_fract_z
_atom_type_partial_charge
Zn0 Zn 0.55644 0.21562 0.36717 0.0
O1 O 0.57715 0.19205 0.32068 0.0
C2 C 0.49046 0.13464 0.37626 0.0
Zn3 Zn 0.58605 0.15514 0.39415 0.0
C4 C 0.59614 0.15282 0.31864 0.0
O5 O 0.60279 0.12914 0.34505 0.0
C6 C 0.547 0.22282 0.4412 0.0
O7 O 0.6479 0.19036 0.39403 0.0
O8 O 0.62134 0.25269 0.37027 0.0
N9 N 0.62192 0.1025 0.41736 0.0
C10 C 0.65354 0.10479 0.44214 0.0
C11 C 0.65256 0.03549 0.42482 0.0
N12 N 0.62155 0.05935 0.40664 0.0
N13 N 0.67296 0.0633 0.44735 0.0
C14 C 0.48377 0.29212 0.35593 0.0
C15 C 0.52383 0.34462 0.33286 0.0
N16 N 0.52488 0.27329 0.34792 0.0
N17 N 0.5495 0.30597 0.33336 0.0
N18 N 0.48262 0.33698 0.34723 0.0
H19 H 0.43316 0.23863 0.35647 0.0
H20 H 0.41544 0.29021 0.37768 0.0
H21 H 0.45657 0.25185 0.39656 0.0
C22 C 0.44503 0.26708 0.37278 0.0
C23 C 0.66842 0.14779 0.46011 0.0
H24 H 0.64348 0.17599 0.45818 0.0
H25 H 0.70127 0.16024 0.44933 0.0
H26 H 0.67474 0.14016 0.48678 0.0
O27 O 0.56764 0.18429 0.44164 0.0
O28 O 0.5368 0.24054 0.41351 0.0
C29 C 0.65491 0.22999 0.38235 0.0
O30 O 0.49448 0.17451 0.36317 0.0
O31 O 0.52373 0.11775 0.39283 0.0
Zn32 Zn 0.35403 0.58943 0.39081 0.0
O33 O 0.32131 0.65376 0.38576 0.0
C34 C 0.2873 0.56057 0.44396 0.0
Zn35 Zn 0.2885 0.5611 0.36983 0.0
C36 C 0.2796 0.6602 0.3779 0.0
O37 O 0.25412 0.62592 0.37117 0.0
C38 C 0.36625 0.49115 0.37865 0.0
O39 O 0.31156 0.5777 0.32131 0.0
O40 O 0.37917 0.59723 0.34155 0.0
N41 N 0.22889 0.53136 0.35252 0.0
C42 C 0.20784 0.49192 0.36177 0.0
C43 C 0.15857 0.53162 0.33496 0.0
N44 N 0.19826 0.55579 0.33568 0.0
N45 N 0.16362 0.49159 0.3514 0.0
C46 C 0.41256 0.65632 0.43479 0.0
C47 C 0.48206 0.63903 0.42379 0.0
N48 N 0.41115 0.62328 0.41106 0.0
N49 N 0.45458 0.61308 0.40396 0.0
N50 N 0.45622 0.66674 0.44312 0.0
H51 H 0.34312 0.68327 0.43641 0.0
H52 H 0.38069 0.70818 0.46595 0.0
H53 H 0.36135 0.65044 0.47241 0.0
C54 C 0.37191 0.67551 0.45312 0.0
C55 C 0.23037 0.45375 0.38084 0.0
H56 H 0.25395 0.43496 0.36391 0.0
H57 H 0.20468 0.42899 0.39068 0.0
H58 H 0.25126 0.46743 0.40159 0.0
O59 O 0.32546 0.4967 0.36746 0.0
O60 O 0.38678 0.52456 0.3929 0.0
C61 C 0.3525 0.5921 0.31658 0.0
O62 O 0.32639 0.57983 0.44023 0.0
O63 O 0.26518 0.54751 0.41848 0.0
Zn64 Zn 0.94768 0.29121 0.36975 0.0
O65 O 0.93304 0.31802 0.32287 0.0
C66 C 0.0094 0.37392 0.38087 0.0
Zn67 Zn 0.91292 0.35037 0.39473 0.0
C68 C 0.90823 0.35363 0.31977 0.0
O69 O 0.89447 0.37463 0.34582 0.0
C70 C 0.95132 0.2829 0.44346 0.0
O71 O 0.85321 0.31111 0.39465 0.0
O72 O 0.8833 0.25218 0.36842 0.0
N73 N 0.87467 0.40231 0.41631 0.0
C74 C 0.84927 0.40209 0.44446 0.0
C75 C 0.8301 0.46187 0.41714 0.0
N76 N 0.86282 0.43968 0.39949 0.0
N77 N 0.82106 0.43886 0.44548 0.0
C78 C 0.99568 0.1969 0.35809 0.0
C79 C 0.05 0.21729 0.32564 0.0
N80 N 0.98679 0.24045 0.34849 0.0
N81 N 0.02032 0.25272 0.32795 0.0
N82 N 0.03553 0.18207 0.34469 0.0
H83 H 0.98017 0.17429 0.40729 0.0
H84 H 0.96936 0.13224 0.37563 0.0
H85 H 0.93051 0.1804 0.38037 0.0
C86 C 0.96693 0.16944 0.38167 0.0
C87 C 0.85065 0.36516 0.47048 0.0
H88 H 0.84807 0.33097 0.45864 0.0
H89 H 0.82258 0.36878 0.48896 0.0
H90 H 0.8839 0.3673 0.48401 0.0
O91 O 0.93152 0.32194 0.44259 0.0
O92 O 0.96304 0.26393 0.4164 0.0
C93 C 0.84831 0.27182 0.38149 0.0
O94 O 0.00852 0.33236 0.37098 0.0
O95 O 0.97337 0.39162 0.39349 0.0
Zn96 Zn 0.15454 0.92241 0.39354 0.0
O97 O 0.18667 0.85784 0.39264 0.0
C98 C 0.23031 0.95705 0.43788 0.0
Zn99 Zn 0.21459 0.95091 0.36541 0.0
C100 C 0.22585 0.85119 0.37955 0.0
O101 O 0.24749 0.88512 0.36718 0.0
C102 C 0.14101 0.02053 0.37575 0.0
O103 O 0.18162 0.93142 0.32023 0.0
O104 O 0.12087 0.90581 0.34792 0.0
N105 N 0.27211 0.97784 0.34274 0.0
C106 C 0.29339 0.01821 0.3496 0.0
C107 C 0.34399 0.97321 0.32935 0.0
N108 N 0.30363 0.95016 0.32986 0.0
N109 N 0.33859 0.0158 0.34205 0.0
C110 C 0.08811 0.85241 0.42793 0.0
C111 C 0.0674 0.89144 0.47022 0.0
N112 N 0.10259 0.89608 0.42299 0.0
N113 N 0.08897 0.9203 0.44911 0.0
N114 N 0.06677 0.8484 0.45774 0.0
H115 H 0.10015 0.82619 0.37853 0.0
H116 H 0.06761 0.78826 0.40569 0.0
H117 H 0.12848 0.79492 0.41128 0.0
C118 C 0.09647 0.81329 0.40435 0.0
C119 C 0.27069 0.05936 0.36513 0.0
H120 H 0.24256 0.07141 0.34864 0.0
H121 H 0.29528 0.08821 0.36858 0.0
H122 H 0.25566 0.05026 0.38956 0.0
O123 O 0.18059 0.0144 0.36321 0.0
O124 O 0.12203 0.98827 0.39226 0.0
C125 C 0.14149 0.91337 0.32042 0.0
O126 O 0.191 0.93785 0.43896 0.0
O127 O 0.24649 0.9689 0.41002 0.0
Zn128 Zn 0.05701 0.78996 0.13618 0.0
O129 O 0.06764 0.81562 0.18343 0.0
C130 C 0.99194 0.86712 0.12557 0.0
Zn131 Zn 0.09163 0.85058 0.11326 0.0
C132 C 0.09075 0.85197 0.18851 0.0
O133 O 0.10539 0.87532 0.1636 0.0
C134 C 0.05871 0.78143 0.0627 0.0
O135 O 0.15347 0.81777 0.11465 0.0
O136 O 0.12427 0.75613 0.13766 0.0
N137 N 0.12512 0.90542 0.09074 0.0
C138 C 0.15855 0.90404 0.06733 0.0
C139 C 0.14027 0.97442 0.07365 0.0
N140 N 0.11406 0.94933 0.09479 0.0
N141 N 0.16875 0.94661 0.05644 0.0
C142 C 0.98743 0.71128 0.14544 0.0
C143 C 0.02865 0.66063 0.16957 0.0
N144 N 0.02746 0.73164 0.15415 0.0
N145 N 0.05285 0.70021 0.16935 0.0
N146 N 0.98775 0.66662 0.15436 0.0
H147 H 0.93415 0.76187 0.14355 0.0
H148 H 0.92058 0.71015 0.12111 0.0
H149 H 0.96133 0.75089 0.10426 0.0
C150 C 0.94867 0.73456 0.12739 0.0
C151 C 0.18196 0.86125 0.05472 0.0
H152 H 0.20998 0.85191 0.07222 0.0
H153 H 0.19802 0.86652 0.03002 0.0
H154 H 0.15783 0.83209 0.05275 0.0
O155 O 0.07796 0.82083 0.06415 0.0
O156 O 0.0449 0.76322 0.08936 0.0
C157 C 0.15886 0.77801 0.12628 0.0
O158 O 0.99357 0.82559 0.13543 0.0
O159 O 0.02782 0.88599 0.1135 0.0
Zn160 Zn 0.71532 0.05777 0.13311 0.0
O161 O 0.69324 0.07012 0.18206 0.0
C162 C 0.63515 0.99265 0.1277 0.0
Zn163 Zn 0.65177 0.09076 0.11287 0.0
C164 C 0.65726 0.09375 0.18756 0.0
O165 O 0.63308 0.10754 0.16292 0.0
C166 C 0.71227 0.05466 0.05816 0.0
O167 O 0.6873 0.15186 0.11157 0.0
O168 O 0.75042 0.1235 0.13292 0.0
N169 N 0.59597 0.12554 0.09268 0.0
C170 C 0.59659 0.15874 0.06911 0.0
C171 C 0.5262 0.14263 0.07831 0.0
N172 N 0.55207 0.11584 0.09853 0.0
N173 N 0.55354 0.17016 0.05988 0.0
C174 C 0.79618 0.98823 0.14046 0.0
C175 C 0.84425 0.02686 0.16932 0.0
N176 N 0.77497 0.02756 0.1496 0.0
N177 N 0.80488 0.05132 0.16772 0.0
N178 N 0.83961 0.98728 0.1522 0.0
H179 H 0.76637 0.92139 0.13682 0.0
H180 H 0.79972 0.9377 0.10133 0.0
H181 H 0.74332 0.96215 0.1077 0.0
C182 C 0.77498 0.95057 0.12015 0.0
C183 C 0.6391 0.1807 0.05464 0.0
H184 H 0.64935 0.2101 0.07067 0.0
H185 H 0.63295 0.19459 0.02937 0.0
H186 H 0.66806 0.15634 0.05324 0.0
O187 O 0.67327 0.07311 0.06319 0.0
O188 O 0.73707 0.04523 0.0833 0.0
C189 C 0.72776 0.15768 0.122 0.0
O190 O 0.67782 0.9946 0.13498 0.0
O191 O 0.61475 0.02819 0.11655 0.0
Zn192 Zn 0.41935 0.6544 0.10998 0.0
O193 O 0.3559 0.68655 0.11332 0.0
C194 C 0.45229 0.72538 0.06161 0.0
Zn195 Zn 0.44836 0.71644 0.13511 0.0
C196 C 0.34963 0.72721 0.12338 0.0
O197 O 0.38369 0.75127 0.13304 0.0
C198 C 0.51675 0.63924 0.12471 0.0
O199 O 0.42864 0.69101 0.18148 0.0
O200 O 0.40777 0.62551 0.1586 0.0
N201 N 0.478 0.77415 0.1555 0.0
C202 C 0.51849 0.79466 0.14805 0.0
C203 C 0.47769 0.84401 0.17388 0.0
N204 N 0.45291 0.8048 0.17182 0.0
N205 N 0.51883 0.83858 0.15894 0.0
C206 C 0.35241 0.60121 0.06338 0.0
C207 C 0.36989 0.53072 0.07012 0.0
N208 N 0.38642 0.59987 0.08637 0.0
N209 N 0.39698 0.5559 0.09068 0.0
N210 N 0.34127 0.55854 0.05305 0.0
H211 H 0.29979 0.65202 0.0679 0.0
H212 H 0.31444 0.63918 0.02575 0.0
H213 H 0.35255 0.67361 0.0505 0.0
C214 C 0.32893 0.64397 0.05104 0.0
C215 C 0.55745 0.77223 0.12965 0.0
H216 H 0.572 0.74445 0.14535 0.0
H217 H 0.58536 0.79711 0.12398 0.0
H218 H 0.54532 0.75644 0.10619 0.0
O219 O 0.51145 0.67871 0.13804 0.0
O220 O 0.48375 0.62102 0.1085 0.0
C221 C 0.41275 0.65047 0.18457 0.0
O222 O 0.43179 0.68665 0.0623 0.0
O223 O 0.466 0.74289 0.08867 0.0
Zn224 Zn 0.79047 0.44786 0.1364 0.0
O225 O 0.81326 0.43003 0.18372 0.0
C226 C 0.86898 0.51389 0.12546 0.0
Zn227 Zn 0.85159 0.41615 0.11215 0.0
C228 C 0.85305 0.41278 0.18744 0.0
O229 O 0.87827 0.40508 0.16191 0.0
C230 C 0.78299 0.44938 0.06254 0.0
O231 O 0.81847 0.35373 0.11538 0.0
O232 O 0.75416 0.38321 0.13423 0.0
N233 N 0.90659 0.38272 0.08988 0.0
C234 C 0.90579 0.3482 0.06732 0.0
C235 C 0.9758 0.36883 0.07264 0.0
N236 N 0.95028 0.39523 0.09334 0.0
N237 N 0.94853 0.33875 0.05632 0.0
C238 C 0.71364 0.51964 0.14647 0.0
C239 C 0.66134 0.4796 0.16989 0.0
N240 N 0.73257 0.47877 0.15464 0.0
N241 N 0.70008 0.45413 0.16942 0.0
N242 N 0.66887 0.52063 0.1553 0.0
H243 H 0.7658 0.5716 0.14598 0.0
H244 H 0.71493 0.58691 0.12304 0.0
H245 H 0.75523 0.54584 0.1062 0.0
C246 C 0.73849 0.55818 0.12925 0.0
C247 C 0.86331 0.32335 0.05556 0.0
H248 H 0.85392 0.29686 0.07421 0.0
H249 H 0.86887 0.30527 0.03162 0.0
H250 H 0.83415 0.3472 0.05252 0.0
O251 O 0.82086 0.42748 0.06369 0.0
O252 O 0.76617 0.46479 0.08929 0.0
C253 C 0.77736 0.34854 0.12473 0.0
O254 O 0.82959 0.51007 0.13916 0.0
O255 O 0.88624 0.47984 0.11006 0.0
Zn256 Zn 0.44502 0.7835 0.63491 0.0
O257 O 0.42988 0.81074 0.68134 0.0
C258 C 0.51482 0.85868 0.62528 0.0
Zn259 Zn 0.41654 0.84493 0.60933 0.0
C260 C 0.41493 0.85153 0.68434 0.0
O261 O 0.40367 0.87332 0.65798 0.0
C262 C 0.45069 0.77407 0.56129 0.0
O263 O 0.35183 0.81371 0.6102 0.0
O264 O 0.37776 0.7508 0.63348 0.0
N265 N 0.38697 0.90078 0.58607 0.0
C266 C 0.35409 0.90144 0.56231 0.0
C267 C 0.37411 0.97103 0.57095 0.0
N268 N 0.39919 0.94413 0.59155 0.0
N269 N 0.34524 0.94488 0.55267 0.0
C270 C 0.51275 0.70449 0.64799 0.0
C271 C 0.46947 0.65447 0.671 0.0
N272 N 0.47237 0.72526 0.65503 0.0
N273 N 0.44572 0.69424 0.66963 0.0
N274 N 0.51141 0.65998 0.65727 0.0
H275 H 0.56719 0.75408 0.64735 0.0
H276 H 0.58072 0.70203 0.62546 0.0
H277 H 0.54184 0.74333 0.60734 0.0
C278 C 0.55285 0.72696 0.63088 0.0
C279 C 0.32965 0.85986 0.54858 0.0
H280 H 0.29958 0.85203 0.56463 0.0
H281 H 0.31639 0.86599 0.52311 0.0
H282 H 0.3523 0.82947 0.54796 0.0
O283 O 0.43149 0.81345 0.5613 0.0
O284 O 0.46096 0.75581 0.58879 0.0
C285 C 0.34442 0.77389 0.62154 0.0
O286 O 0.50971 0.81829 0.6369 0.0
O287 O 0.48145 0.87778 0.61018 0.0
Zn288 Zn 0.64154 0.41003 0.61067 0.0
O289 O 0.67638 0.34794 0.61195 0.0
C290 C 0.70067 0.44506 0.55477 0.0
Zn291 Zn 0.70738 0.4401 0.62895 0.0
C292 C 0.71871 0.34216 0.61748 0.0
O293 O 0.74404 0.37656 0.6242 0.0
C294 C 0.62658 0.50643 0.62492 0.0
O295 O 0.68956 0.42123 0.67808 0.0
O296 O 0.62133 0.39794 0.66075 0.0
N297 N 0.76699 0.47102 0.64469 0.0
C298 C 0.78503 0.51275 0.63776 0.0
C299 C 0.8382 0.47286 0.66015 0.0
N300 N 0.80003 0.44645 0.65882 0.0
N301 N 0.82971 0.51449 0.64685 0.0
C302 C 0.58525 0.34068 0.56916 0.0
C303 C 0.51538 0.36041 0.57628 0.0
N304 N 0.58525 0.37524 0.59167 0.0
N305 N 0.54167 0.38718 0.59632 0.0
N306 N 0.54211 0.33071 0.55925 0.0
H307 H 0.65669 0.34028 0.55323 0.0
H308 H 0.63715 0.28895 0.5738 0.0
H309 H 0.62111 0.29967 0.53172 0.0
C310 C 0.62736 0.31648 0.55606 0.0
C311 C 0.75915 0.55167 0.62214 0.0
H312 H 0.73944 0.56982 0.6418 0.0
H313 H 0.78275 0.57678 0.61025 0.0
H314 H 0.7343 0.53864 0.60362 0.0
O315 O 0.66818 0.50241 0.6347 0.0
O316 O 0.60615 0.47252 0.61142 0.0
C317 C 0.64994 0.40465 0.6844 0.0
O318 O 0.66346 0.42366 0.5607 0.0
O319 O 0.72535 0.45733 0.57935 0.0
Zn320 Zn 0.08129 0.64684 0.60875 0.0
O321 O 0.1458 0.6797 0.60777 0.0
C322 C 0.04674 0.71223 0.55598 0.0
Zn323 Zn 0.05235 0.71169 0.63029 0.0
C324 C 0.15257 0.72061 0.61751 0.0
O325 O 0.11863 0.74465 0.62738 0.0
C326 C 0.98258 0.63493 0.62369 0.0
O327 O 0.07044 0.6883 0.67843 0.0
O328 O 0.0957 0.62259 0.65801 0.0
N329 N 0.02503 0.77134 0.64929 0.0
C330 C 0.98792 0.79597 0.63978 0.0
C331 C 0.02582 0.83751 0.67393 0.0
N332 N 0.04835 0.79715 0.67071 0.0
N333 N 0.98793 0.83755 0.6546 0.0
C334 C 0.15391 0.57822 0.58049 0.0
C335 C 0.11568 0.55217 0.53945 0.0
N336 N 0.10936 0.58981 0.58554 0.0
N337 N 0.08561 0.57214 0.56044 0.0
N338 N 0.15903 0.55633 0.55103 0.0
H339 H 0.18107 0.59835 0.62795 0.0
H340 H 0.21981 0.56479 0.60237 0.0
H341 H 0.20986 0.62388 0.5925 0.0
C342 C 0.19331 0.59227 0.6023 0.0
C343 C 0.95239 0.78083 0.61505 0.0
H344 H 0.9175 0.78718 0.62534 0.0
H345 H 0.95566 0.80192 0.59223 0.0
H346 H 0.95578 0.74415 0.60846 0.0
O347 O 0.98743 0.67602 0.63429 0.0
O348 O 0.01652 0.61435 0.61047 0.0
C349 C 0.08809 0.64876 0.683 0.0
O350 O 0.06643 0.67363 0.56007 0.0
O351 O 0.03598 0.73539 0.58159 0.0
Zn352 Zn 0.85116 0.09044 0.6137 0.0
O353 O 0.81182 0.15046 0.61327 0.0
C354 C 0.79136 0.05085 0.55869 0.0
Zn355 Zn 0.7884 0.05461 0.63317 0.0
C356 C 0.76981 0.1529 0.6213 0.0
O357 O 0.74884 0.11676 0.63055 0.0
C358 C 0.87179 0.99339 0.62811 0.0
O359 O 0.8103 0.07153 0.68239 0.0
O360 O 0.87232 0.10637 0.66313 0.0
N361 N 0.73076 0.0212 0.65066 0.0
C362 C 0.71101 0.98087 0.64182 0.0
C363 C 0.662 0.01741 0.67108 0.0
N364 N 0.70029 0.04361 0.66908 0.0
N365 N 0.66787 0.97798 0.65401 0.0
C366 C 0.90446 0.16127 0.57082 0.0
C367 C 0.97512 0.14574 0.57917 0.0
N368 N 0.90574 0.12713 0.59358 0.0
N369 N 0.94981 0.11782 0.59897 0.0
N370 N 0.94728 0.17372 0.56158 0.0
H371 H 0.8344 0.15599 0.55327 0.0
H372 H 0.84875 0.20882 0.57443 0.0
H373 H 0.8673 0.19974 0.53272 0.0
C374 C 0.86137 0.18229 0.55681 0.0
C375 C 0.73328 0.94414 0.6213 0.0
H376 H 0.74129 0.91443 0.63761 0.0
H377 H 0.70924 0.9317 0.60182 0.0
H378 H 0.76541 0.95632 0.6097 0.0
O379 O 0.82941 0.99396 0.63625 0.0
O380 O 0.89045 0.02947 0.61621 0.0
C381 C 0.84778 0.09332 0.68767 0.0
O382 O 0.82841 0.07296 0.5641 0.0
O383 O 0.76761 0.03858 0.58373 0.0
Zn384 Zn 0.9469 0.21318 0.86657 0.0
O385 O 0.92946 0.18258 0.82014 0.0
C386 C 0.01578 0.13763 0.87595 0.0
Zn387 Zn 0.91848 0.15247 0.89417 0.0
C388 C 0.90879 0.14384 0.81983 0.0
O389 O 0.9001 0.12324 0.84709 0.0
C390 C 0.95366 0.22539 0.93995 0.0
O391 O 0.85519 0.18571 0.89496 0.0
O392 O 0.88073 0.24564 0.8674 0.0
N393 N 0.88623 0.09865 0.91864 0.0
C394 C 0.86128 0.09939 0.94704 0.0
C395 C 0.84506 0.03671 0.92211 0.0
N396 N 0.87624 0.05944 0.90334 0.0
N397 N 0.83507 0.06122 0.94964 0.0
C398 C 0.01556 0.29222 0.85309 0.0
C399 C 0.97402 0.34133 0.82772 0.0
N400 N 0.97538 0.27112 0.84535 0.0
N401 N 0.94979 0.3017 0.8294 0.0
N402 N 0.01523 0.33631 0.84269 0.0
H403 H 0.07005 0.243 0.85561 0.0
H404 H 0.08234 0.29557 0.87741 0.0
H405 H 0.04294 0.25417 0.89483 0.0
C406 C 0.05487 0.2703 0.87147 0.0
C407 C 0.86079 0.13819 0.97169 0.0
H408 H 0.85488 0.17116 0.9588 0.0
H409 H 0.83393 0.1336 0.99099 0.0
H410 H 0.89464 0.13979 0.98446 0.0
O411 O 0.93692 0.18494 0.94066 0.0
O412 O 0.96259 0.24343 0.91211 0.0
C413 C 0.84766 0.22403 0.8811 0.0
O414 O 0.01085 0.17865 0.86565 0.0
O415 O 0.98254 0.11787 0.89101 0.0
Zn416 Zn 0.34739 0.91519 0.88914 0.0
O417 O 0.31498 0.85193 0.88584 0.0
C418 C 0.27753 0.94758 0.93789 0.0
Zn419 Zn 0.28553 0.94366 0.86382 0.0
C420 C 0.27461 0.84499 0.87532 0.0
O421 O 0.25042 0.87863 0.86519 0.0
C422 C 0.36351 0.01187 0.8749 0.0
O423 O 0.30983 0.92599 0.81674 0.0
O424 O 0.3748 0.90404 0.83998 0.0
N425 N 0.22808 0.97439 0.8448 0.0
C426 C 0.20918 0.01518 0.8532 0.0
C427 C 0.15782 0.97674 0.82729 0.0
N428 N 0.19619 0.95068 0.82851 0.0
N429 N 0.16516 0.01719 0.84279 0.0
C430 C 0.40097 0.85274 0.93782 0.0
C431 C 0.47068 0.85618 0.92153 0.0
N432 N 0.40197 0.88153 0.91147 0.0
N433 N 0.44536 0.88335 0.90121 0.0
N434 N 0.44327 0.83627 0.94442 0.0
H435 H 0.36181 0.80661 0.96908 0.0
H436 H 0.35752 0.86649 0.97961 0.0
H437 H 0.32728 0.84437 0.94422 0.0
C438 C 0.35934 0.84182 0.95856 0.0
C439 C 0.23329 0.05306 0.87184 0.0
H440 H 0.25902 0.06924 0.85512 0.0
H441 H 0.20889 0.0801 0.88005 0.0
H442 H 0.25183 0.03969 0.89379 0.0
O443 O 0.32391 0.00677 0.86164 0.0
O444 O 0.38162 0.97875 0.89082 0.0
C445 C 0.35045 0.91049 0.81385 0.0
O446 O 0.31648 0.92768 0.93729 0.0
O447 O 0.25955 0.95999 0.91073 0.0
Zn448 Zn 0.58813 0.34498 0.89207 0.0
O449 O 0.64906 0.31034 0.89389 0.0
C450 C 0.55092 0.27756 0.94079 0.0
Zn451 Zn 0.55498 0.28542 0.86671 0.0
C452 C 0.65543 0.27164 0.88071 0.0
O453 O 0.62191 0.25102 0.86662 0.0
C454 C 0.49009 0.36356 0.87518 0.0
O455 O 0.56866 0.31126 0.81981 0.0
O456 O 0.6074 0.368 0.84285 0.0
N457 N 0.52503 0.22753 0.84775 0.0
C458 C 0.48441 0.20783 0.8558 0.0
C459 C 0.52457 0.15703 0.83089 0.0
N460 N 0.54977 0.19601 0.83206 0.0
N461 N 0.48365 0.16353 0.84592 0.0
C462 C 0.65433 0.39799 0.93889 0.0
C463 C 0.64352 0.46862 0.92712 0.0
N464 N 0.62198 0.39935 0.91469 0.0
N465 N 0.61551 0.44333 0.90729 0.0
N466 N 0.66861 0.4407 0.94677 0.0
H467 H 0.64856 0.32652 0.95476 0.0
H468 H 0.70443 0.34418 0.94041 0.0
H469 H 0.68476 0.36139 0.98058 0.0
C470 C 0.67355 0.35508 0.95461 0.0
C471 C 0.44591 0.23134 0.87401 0.0
H472 H 0.43122 0.25848 0.8578 0.0
H473 H 0.41787 0.20702 0.88051 0.0
H474 H 0.4587 0.24796 0.89701 0.0
O475 O 0.49199 0.32182 0.86574 0.0
O476 O 0.52531 0.38231 0.88843 0.0
C477 C 0.59398 0.34659 0.81674 0.0
O478 O 0.56934 0.31736 0.94037 0.0
O479 O 0.54045 0.25879 0.91346 0.0
Zn480 Zn 0.21555 0.55164 0.86293 0.0
O481 O 0.18759 0.56364 0.81631 0.0
C482 C 0.13697 0.48709 0.87384 0.0
Zn483 Zn 0.15679 0.58575 0.88887 0.0
C484 C 0.15244 0.58917 0.81336 0.0
O485 O 0.13192 0.60345 0.83962 0.0
C486 C 0.22662 0.55067 0.93686 0.0
O487 O 0.19176 0.64652 0.88893 0.0
O488 O 0.25006 0.61872 0.86097 0.0
N489 N 0.10359 0.62065 0.91259 0.0
C490 C 0.10659 0.65322 0.93662 0.0
C491 C 0.03522 0.64241 0.9272 0.0
N492 N 0.0591 0.61421 0.90668 0.0
N493 N 0.06447 0.66763 0.94587 0.0
C494 C 0.29378 0.48147 0.85245 0.0
C495 C 0.34287 0.52062 0.82498 0.0
N496 N 0.27301 0.52107 0.84337 0.0
N497 N 0.3035 0.54516 0.82609 0.0
N498 N 0.3377 0.48073 0.8416 0.0
H499 H 0.24378 0.42791 0.85745 0.0
H500 H 0.29664 0.41668 0.87924 0.0
H501 H 0.25593 0.45779 0.89543 0.0
C502 C 0.27161 0.4439 0.87246 0.0
C503 C 0.15047 0.67258 0.9509 0.0
H504 H 0.16047 0.70332 0.93622 0.0
H505 H 0.14581 0.68401 0.97699 0.0
H506 H 0.17893 0.64764 0.95029 0.0
O507 O 0.18658 0.56849 0.93689 0.0
O508 O 0.24428 0.53921 0.90939 0.0
C509 C 0.22992 0.65264 0.87483 0.0
O510 O 0.17859 0.48836 0.86385 0.0
O511 O 0.11901 0.52283 0.88684 0.0
C512 C 0.65971 0.12628 0.28053 0.0
C513 C 0.61227 0.13602 0.28568 0.0
C514 C 0.59527 0.10735 0.22978 0.0
C515 C 0.64293 0.10481 0.2224 0.0
N516 N 0.72159 0.11957 0.24084 0.0
N517 N 0.53702 0.1476 0.26056 0.0
C518 C 0.67562 0.11586 0.24784 0.0
C519 C 0.5807 0.13039 0.25893 0.0
N520 N 0.69012 0.12826 0.30651 0.0
N521 N 0.56368 0.08572 0.20993 0.0
H522 H 0.52415 0.16563 0.28088 0.0
H523 H 0.51487 0.14765 0.24012 0.0
H524 H 0.57302 0.06463 0.19004 0.0
H525 H 0.52883 0.08366 0.21604 0.0
H526 H 0.72353 0.11537 0.30507 0.0
H527 H 0.6816 0.14038 0.3301 0.0
H528 H 0.74535 0.1337 0.2574 0.0
H529 H 0.73621 0.11294 0.21778 0.0
C530 C 0.42061 0.65046 0.24742 0.0
C531 C 0.39828 0.63381 0.21819 0.0
C532 C 0.35084 0.58385 0.25347 0.0
C533 C 0.36811 0.60597 0.28258 0.0
N534 N 0.40771 0.67355 0.30406 0.0
N535 N 0.32992 0.59621 0.19619 0.0
C536 C 0.39967 0.64308 0.27876 0.0
C537 C 0.35991 0.60368 0.22186 0.0
N538 N 0.4621 0.67261 0.24595 0.0
N539 N 0.32664 0.5436 0.25534 0.0
H540 H 0.33138 0.61399 0.17374 0.0
H541 H 0.29966 0.57723 0.19905 0.0
H542 H 0.32055 0.52607 0.27744 0.0
H543 H 0.3172 0.52493 0.23422 0.0
H544 H 0.48065 0.68138 0.26729 0.0
H545 H 0.48064 0.67751 0.22414 0.0
H546 H 0.42778 0.70303 0.30092 0.0
H547 H 0.38948 0.67348 0.32636 0.0
C548 C 0.89247 0.41651 0.27797 0.0
C549 C 0.89429 0.36903 0.28586 0.0
C550 C 0.8748 0.35054 0.22779 0.0
C551 C 0.86771 0.39799 0.22121 0.0
N552 N 0.85495 0.474 0.24456 0.0
N553 N 0.87344 0.29134 0.26973 0.0
C554 C 0.87184 0.43041 0.24762 0.0
C555 C 0.88196 0.33603 0.26113 0.0
N556 N 0.91216 0.44848 0.29852 0.0
N557 N 0.87304 0.31886 0.20264 0.0
H558 H 0.87447 0.27966 0.29415 0.0
H559 H 0.85967 0.26717 0.25332 0.0
H560 H 0.86364 0.32677 0.1783 0.0
H561 H 0.88356 0.28485 0.20569 0.0
H562 H 0.91496 0.48312 0.29208 0.0
H563 H 0.93062 0.43976 0.31985 0.0
H564 H 0.85394 0.49707 0.26443 0.0
H565 H 0.83737 0.48557 0.22363 0.0
C566 C 0.1335 0.85028 0.27861 0.0
C567 C 0.12202 0.89533 0.28891 0.0
C568 C 0.08702 0.91113 0.23458 0.0
C569 C 0.09999 0.86639 0.22355 0.0
N570 N 0.12315 0.78868 0.23912 0.0
N571 N 0.07409 0.96164 0.28192 0.0
C572 C 0.11927 0.83443 0.24676 0.0
C573 C 0.09481 0.92388 0.26838 0.0
N574 N 0.15876 0.82268 0.29921 0.0
N575 N 0.06626 0.94109 0.21311 0.0
H576 H 0.0765 0.96913 0.30726 0.0
H577 H 0.05065 0.98229 0.26927 0.0
H578 H 0.05506 0.93175 0.1894 0.0
H579 H 0.06149 0.97584 0.21841 0.0
H580 H 0.17421 0.79213 0.29158 0.0
H581 H 0.16619 0.83142 0.32379 0.0
H582 H 0.13052 0.76346 0.2567 0.0
H583 H 0.11591 0.77436 0.21604 0.0
C584 C 0.39105 0.85423 0.77692 0.0
C585 C 0.36858 0.89729 0.78049 0.0
C586 C 0.38889 0.91625 0.7226 0.0
C587 C 0.4075 0.87154 0.71849 0.0
N588 N 0.44968 0.81218 0.74768 0.0
N589 N 0.33955 0.96678 0.75406 0.0
C590 C 0.4155 0.84443 0.74732 0.0
C591 C 0.36559 0.92767 0.75264 0.0
N592 N 0.38648 0.82104 0.80081 0.0
N593 N 0.39815 0.94955 0.69955 0.0
H594 H 0.32266 0.97837 0.7752 0.0
H595 H 0.33137 0.98615 0.73309 0.0
H596 H 0.42149 0.94458 0.68019 0.0
H597 H 0.38915 0.98398 0.70254 0.0
H598 H 0.39822 0.78745 0.79753 0.0
H599 H 0.3661 0.82502 0.82195 0.0
H600 H 0.45896 0.7941 0.76904 0.0
H601 H 0.47389 0.8092 0.72869 0.0
C602 C 0.61472 0.40865 0.77539 0.0
C603 C 0.60902 0.36122 0.78283 0.0
C604 C 0.62753 0.34256 0.72464 0.0
C605 C 0.63839 0.38947 0.71866 0.0
N606 N 0.65608 0.46416 0.74237 0.0
N607 N 0.62266 0.28204 0.76531 0.0
C608 C 0.63663 0.42156 0.74528 0.0
C609 C 0.61875 0.32777 0.75769 0.0
N610 N 0.59677 0.44168 0.79581 0.0
N611 N 0.62651 0.31157 0.699 0.0
H612 H 0.61893 0.26843 0.78904 0.0
H613 H 0.63511 0.25768 0.74854 0.0
H614 H 0.63718 0.31916 0.67489 0.0
H615 H 0.61261 0.27864 0.70139 0.0
H616 H 0.59686 0.47653 0.78966 0.0
H617 H 0.5765 0.43409 0.81649 0.0
H618 H 0.65875 0.48689 0.76237 0.0
H619 H 0.67388 0.47498 0.72132 0.0
C620 C 0.07401 0.63117 0.74388 0.0
C621 C 0.10492 0.63553 0.7167 0.0
C622 C 0.16881 0.61399 0.75369 0.0
C623 C 0.13653 0.60314 0.77944 0.0
N624 N 0.05698 0.58866 0.7939 0.0
N625 N 0.18238 0.6294 0.69541 0.0
C626 C 0.08871 0.60809 0.77308 0.0
C627 C 0.15237 0.62583 0.72146 0.0
N628 N 0.03106 0.65004 0.74256 0.0
N629 N 0.21512 0.61611 0.76 0.0
H630 H 0.17383 0.6451 0.673 0.0
H631 H 0.21541 0.61545 0.69572 0.0
H632 H 0.2305 0.60836 0.78261 0.0
H633 H 0.23883 0.63017 0.74343 0.0
H634 H 0.00891 0.65058 0.76296 0.0
H635 H 0.01988 0.67035 0.7229 0.0
H636 H 0.02183 0.58808 0.78856 0.0
H637 H 0.06604 0.56796 0.81403 0.0
C638 C 0.83282 0.12689 0.74443 0.0
C639 C 0.86285 0.10327 0.72239 0.0
C640 C 0.92231 0.10147 0.76604 0.0
C641 C 0.89181 0.12465 0.78786 0.0
N642 N 0.81399 0.1461 0.80142 0.0
N643 N 0.93248 0.05935 0.71431 0.0
C644 C 0.84573 0.13304 0.7782 0.0
C645 C 0.90673 0.08815 0.73374 0.0
N646 N 0.79311 0.14603 0.73269 0.0
N647 N 0.96596 0.09175 0.77649 0.0
H648 H 0.92189 0.04809 0.69089 0.0
H649 H 0.96261 0.04346 0.72231 0.0
H650 H 0.97614 0.09609 0.80118 0.0
H651 H 0.99213 0.08047 0.7608 0.0
H652 H 0.77245 0.16802 0.74668 0.0
H653 H 0.78335 0.14371 0.70786 0.0
H654 H 0.77881 0.14806 0.79649 0.0
H655 H 0.82217 0.15074 0.82647 0.0
C656 C 0.41993 0.08939 0.39318 0.0
C657 C 0.45023 0.10501 0.36796 0.0
C658 C 0.40322 0.06595 0.32578 0.0
C659 C 0.37537 0.04697 0.35102 0.0
N660 N 0.36407 0.03149 0.4094 0.0
N661 N 0.47866 0.09478 0.31213 0.0
C662 C 0.38553 0.05618 0.38502 0.0
C663 C 0.44399 0.08982 0.33468 0.0
N664 N 0.42364 0.10655 0.42471 0.0
N665 N 0.39052 0.06141 0.29325 0.0
H666 H 0.5107 0.10804 0.31878 0.0
H667 H 0.47762 0.08032 0.28839 0.0
H668 H 0.36042 0.04439 0.28608 0.0
H669 H 0.40751 0.07821 0.27391 0.0
H670 H 0.39969 0.09971 0.44336 0.0
H671 H 0.44864 0.13071 0.43142 0.0
H672 H 0.37308 0.03362 0.43445 0.0
H673 H 0.34044 0.00543 0.4042 0.0
C674 C 0.39906 0.43436 0.33745 0.0
C675 C 0.39223 0.44812 0.37113 0.0
C676 C 0.44561 0.38764 0.38929 0.0
C677 C 0.44952 0.37205 0.35591 0.0
N678 N 0.4231 0.37402 0.29947 0.0
N679 N 0.40201 0.43223 0.42952 0.0
C680 C 0.4238 0.39332 0.33044 0.0
C681 C 0.41339 0.42296 0.39722 0.0
N682 N 0.385 0.46215 0.31203 0.0
N683 N 0.47423 0.37018 0.41308 0.0
H684 H 0.37816 0.45748 0.43607 0.0
H685 H 0.41288 0.41221 0.44951 0.0
H686 H 0.49876 0.34501 0.40797 0.0
H687 H 0.4763 0.38324 0.43717 0.0
H688 H 0.39318 0.45615 0.28717 0.0
H689 H 0.36939 0.49385 0.31596 0.0
H690 H 0.40139 0.38519 0.28048 0.0
H691 H 0.44122 0.34401 0.29384 0.0
C692 C 0.07282 0.42718 0.40007 0.0
C693 C 0.05054 0.40291 0.37393 0.0
C694 C 0.10798 0.43211 0.33432 0.0
C695 C 0.12703 0.45998 0.3596 0.0
N696 N 0.1238 0.49005 0.41536 0.0
N697 N 0.04146 0.38995 0.31474 0.0
C698 C 0.10846 0.45912 0.39224 0.0
C699 C 0.06678 0.40719 0.34063 0.0
N700 N 0.06095 0.41867 0.43238 0.0
N701 N 0.12983 0.42915 0.30433 0.0
H702 H 0.00996 0.37332 0.31787 0.0
H703 H 0.04927 0.39624 0.28988 0.0
H704 H 0.16008 0.44725 0.2992 0.0
H705 H 0.12044 0.40577 0.28585 0.0
H706 H 0.07906 0.43185 0.45265 0.0
H707 H 0.03545 0.39507 0.43901 0.0
H708 H 0.10854 0.4944 0.43858 0.0
H709 H 0.14953 0.51411 0.41027 0.0
C710 C 0.10306 0.0731 0.33439 0.0
C711 C 0.11529 0.06325 0.36798 0.0
C712 C 0.07967 0.13572 0.38548 0.0
C713 C 0.06191 0.14171 0.35286 0.0
N714 N 0.05025 0.11271 0.29762 0.0
N715 N 0.11239 0.08361 0.42619 0.0
C716 C 0.07195 0.10947 0.32768 0.0
C717 C 0.10236 0.09392 0.39382 0.0
N718 N 0.12151 0.04849 0.30867 0.0
N719 N 0.07726 0.1711 0.4078 0.0
H720 H 0.13178 0.05499 0.4331 0.0
H721 H 0.0992 0.10205 0.44627 0.0
H722 H 0.06307 0.20297 0.40183 0.0
H723 H 0.09328 0.17052 0.43098 0.0
H724 H 0.11801 0.05824 0.28386 0.0
H725 H 0.14282 0.02011 0.3118 0.0
H726 H 0.05225 0.08732 0.27935 0.0
H727 H 0.02663 0.13869 0.29225 0.0
C728 C 0.9321 0.89901 0.16456 0.0
C729 C 0.95018 0.89526 0.13171 0.0
C730 C 0.89626 0.95455 0.11282 0.0
C731 C 0.87572 0.955 0.1448 0.0
N732 N 0.8677 0.92213 0.19914 0.0
N733 N 0.94351 0.91293 0.07327 0.0
C734 C 0.89165 0.92533 0.17002 0.0
C735 C 0.9305 0.92117 0.1054 0.0
N736 N 0.95509 0.88024 0.19095 0.0
N737 N 0.88417 0.98715 0.09 0.0
H738 H 0.96771 0.88794 0.06688 0.0
H739 H 0.92717 0.92766 0.05281 0.0
H740 H 0.85938 0.01221 0.0948 0.0
H741 H 0.90137 0.99172 0.06751 0.0
H742 H 0.94595 0.88626 0.21563 0.0
H743 H 0.98606 0.86254 0.18867 0.0
H744 H 0.87477 0.89761 0.21732 0.0
H745 H 0.83805 0.9414 0.20369 0.0
C746 C 0.55088 0.89325 0.11776 0.0
C747 C 0.55034 0.87513 0.15051 0.0
C748 C 0.60493 0.93437 0.16855 0.0
C749 C 0.60813 0.95051 0.13518 0.0
N750 N 0.59102 0.93994 0.07698 0.0
N751 N 0.58204 0.87234 0.20551 0.0
C752 C 0.58309 0.92832 0.10943 0.0
C753 C 0.57913 0.89385 0.1754 0.0
N754 N 0.5193 0.87812 0.09503 0.0
N755 N 0.62414 0.95914 0.19398 0.0
H756 H 0.56304 0.84279 0.21104 0.0
H757 H 0.60593 0.88133 0.22374 0.0
H758 H 0.6423 0.98967 0.19038 0.0
H759 H 0.6186 0.95171 0.219 0.0
H760 H 0.51483 0.89311 0.07175 0.0
H761 H 0.49482 0.85298 0.10051 0.0
H762 H 0.57722 0.92191 0.0569 0.0
H763 H 0.61487 0.96506 0.07002 0.0
C764 C 0.58458 0.59205 0.10581 0.0
C765 C 0.55859 0.6117 0.13208 0.0
C766 C 0.61166 0.5779 0.17275 0.0
C767 C 0.63388 0.55374 0.14694 0.0
N768 N 0.6369 0.53128 0.08925 0.0
N769 N 0.54112 0.61348 0.19088 0.0
C770 C 0.61925 0.55913 0.11345 0.0
C771 C 0.57064 0.60237 0.16572 0.0
N772 N 0.57675 0.60542 0.07373 0.0
N773 N 0.62992 0.57727 0.20405 0.0
H774 H 0.50874 0.62744 0.18652 0.0
H775 H 0.54628 0.60372 0.21554 0.0
H776 H 0.66011 0.55947 0.2097 0.0
H777 H 0.61765 0.59782 0.22336 0.0
H778 H 0.59755 0.59549 0.05388 0.0
H779 H 0.55201 0.6299 0.06739 0.0
H780 H 0.62441 0.53049 0.06496 0.0
H781 H 0.66138 0.506 0.09416 0.0
C782 C 0.93385 0.60676 0.17252 0.0
C783 C 0.95542 0.63073 0.14637 0.0
C784 C 0.91542 0.5819 0.10568 0.0
C785 C 0.89793 0.55488 0.13215 0.0
N786 N 0.90381 0.53358 0.18997 0.0
N787 N 0.97479 0.63539 0.08813 0.0
C788 C 0.91047 0.56524 0.16546 0.0
C789 C 0.94839 0.61686 0.11283 0.0
N790 N 0.93582 0.62373 0.20417 0.0
N791 N 0.90024 0.57456 0.07394 0.0
H792 H 1.00044 0.65972 0.09273 0.0
H793 H 0.97419 0.62358 0.06365 0.0
H794 H 0.87612 0.54917 0.06799 0.0
H795 H 0.90861 0.59608 0.05412 0.0
H796 H 0.91718 0.6095 0.22381 0.0
H797 H 0.95244 0.6546 0.20992 0.0
H798 H 0.91628 0.5378 0.21411 0.0
H799 H 0.89157 0.50065 0.18487 0.0
C800 C 0.61192 0.94504 0.61403 0.0
C801 C 0.63235 0.94509 0.64603 0.0
C802 C 0.57528 0.88905 0.6651 0.0
C803 C 0.5576 0.88546 0.63206 0.0
N804 N 0.56679 0.90264 0.57367 0.0
N805 N 0.63973 0.91137 0.70014 0.0
C806 C 0.57826 0.91126 0.60606 0.0
C807 C 0.61608 0.91498 0.6709 0.0
N808 N 0.62317 0.97858 0.59171 0.0
N809 N 0.5515 0.87097 0.69137 0.0
H810 H 0.6695 0.93047 0.70492 0.0
H811 H 0.63226 0.88664 0.71811 0.0
H812 H 0.51982 0.85453 0.68896 0.0
H813 H 0.56068 0.87671 0.71609 0.0
H814 H 0.60508 0.9836 0.56962 0.0
H815 H 0.64753 0.00407 0.59676 0.0
H816 H 0.58388 0.91768 0.55364 0.0
H817 H 0.54363 0.87684 0.56678 0.0
C818 C 0.59033 0.55917 0.66671 0.0
C819 C 0.59988 0.54831 0.63295 0.0
C820 C 0.54821 0.60988 0.61506 0.0
C821 C 0.54271 0.62351 0.64876 0.0
N822 N 0.56492 0.617 0.70605 0.0
N823 N 0.5941 0.56777 0.57485 0.0
C824 C 0.56599 0.6 0.67439 0.0
C825 C 0.58074 0.57512 0.60701 0.0
N826 N 0.60146 0.52881 0.69129 0.0
N827 N 0.52079 0.62862 0.59104 0.0
H828 H 0.618 0.54257 0.56824 0.0
H829 H 0.5847 0.58918 0.55523 0.0
H830 H 0.49539 0.65282 0.5963 0.0
H831 H 0.52037 0.61719 0.56648 0.0
H832 H 0.59132 0.53288 0.71597 0.0
H833 H 0.6162 0.49698 0.68622 0.0
H834 H 0.58491 0.60374 0.72532 0.0
H835 H 0.54718 0.64704 0.7122 0.0
C836 C 0.92415 0.5996 0.66227 0.0
C837 C 0.93911 0.60908 0.6293 0.0
C838 C 0.88052 0.55619 0.60756 0.0
C839 C 0.86374 0.54942 0.64033 0.0
N840 N 0.86293 0.5712 0.69785 0.0
N841 N 0.92559 0.60391 0.57025 0.0
C842 C 0.88338 0.57354 0.66732 0.0
C843 C 0.91535 0.58972 0.6018 0.0
N844 N 0.95072 0.61237 0.68872 0.0
N845 N 0.86492 0.52886 0.58229 0.0
H846 H 0.9506 0.62883 0.5653 0.0
H847 H 0.90643 0.59426 0.54945 0.0
H848 H 0.83975 0.50368 0.58567 0.0
H849 H 0.87976 0.52847 0.55871 0.0
H850 H 0.94408 0.6023 0.71312 0.0
H851 H 0.98214 0.629 0.68575 0.0
H852 H 0.87309 0.59136 0.71801 0.0
H853 H 0.83302 0.55206 0.702 0.0
C854 C 0.9286 0.93379 0.60898 0.0
C855 C 0.90022 0.95189 0.63458 0.0
C856 C 0.92662 0.89085 0.67223 0.0
C857 C 0.95838 0.8762 0.64787 0.0
N858 N 0.99637 0.88892 0.59552 0.0
N859 N 0.87944 0.95299 0.69299 0.0
C860 C 0.96132 0.89919 0.6169 0.0
C861 C 0.90094 0.93178 0.6669 0.0
N862 N 0.92309 0.94826 0.57687 0.0
N863 N 0.92049 0.86503 0.70024 0.0
H864 H 0.86173 0.98398 0.6908 0.0
H865 H 0.88307 0.9423 0.71757 0.0
H866 H 0.93914 0.83499 0.70472 0.0
H867 H 0.89436 0.87115 0.71743 0.0
H868 H 0.93979 0.93298 0.55677 0.0
H869 H 0.89831 0.97232 0.56986 0.0
H870 H 0.00302 0.90758 0.57393 0.0
H871 H 0.02134 0.86427 0.60096 0.0
C872 C 0.07827 0.11201 0.83565 0.0
C873 C 0.05868 0.11153 0.86835 0.0
C874 C 0.11038 0.04848 0.88392 0.0
C875 C 0.1305 0.05013 0.85189 0.0
N876 N 0.1423 0.08942 0.80033 0.0
N877 N 0.06614 0.08876 0.92584 0.0
C878 C 0.11723 0.08401 0.8288 0.0
C879 C 0.07776 0.08251 0.89319 0.0
N880 N 0.05841 0.13655 0.81043 0.0
N881 N 0.12177 0.01366 0.90517 0.0
H882 H 0.04436 0.11511 0.93375 0.0
H883 H 0.08198 0.07133 0.94536 0.0
H884 H 0.1459 0.98845 0.89915 0.0
H885 H 0.10477 0.00773 0.92757 0.0
H886 H 0.06833 0.13343 0.78564 0.0
H887 H 0.02919 0.15679 0.81299 0.0
H888 H 0.13797 0.11693 0.78404 0.0
H889 H 0.17039 0.06848 0.7946 0.0
C890 C 0.41209 0.07841 0.89443 0.0
C891 C 0.39134 0.05366 0.86792 0.0
C892 C 0.42562 0.10725 0.82785 0.0
C893 C 0.45075 0.12812 0.85381 0.0
N894 N 0.47459 0.12876 0.91124 0.0
N895 N 0.38838 0.03795 0.80885 0.0
C896 C 0.44577 0.1125 0.88706 0.0
C897 C 0.4004 0.06651 0.8344 0.0
N898 N 0.39901 0.07001 0.9265 0.0
N899 N 0.426 0.12648 0.79689 0.0
H900 H 0.37389 0.00571 0.81282 0.0
H901 H 0.39797 0.04368 0.78422 0.0
H902 H 0.4444 0.15647 0.79156 0.0
H903 H 0.40477 0.11521 0.7776 0.0
H904 H 0.4099 0.08995 0.94658 0.0
H905 H 0.37381 0.04582 0.93265 0.0
H906 H 0.4756 0.11545 0.93528 0.0
H907 H 0.50044 0.15279 0.90645 0.0
C908 C 0.43366 0.39511 0.83349 0.0
C909 C 0.44897 0.39178 0.86711 0.0
C910 C 0.39203 0.44974 0.88348 0.0
C911 C 0.37421 0.44963 0.85061 0.0
N912 N 0.37192 0.41673 0.79594 0.0
N913 N 0.43721 0.40963 0.9251 0.0
C914 C 0.39316 0.42047 0.82615 0.0
C915 C 0.42654 0.41732 0.89245 0.0
N916 N 0.45928 0.37668 0.80826 0.0
N917 N 0.3771 0.48198 0.90572 0.0
H918 H 0.46168 0.3855 0.93257 0.0
H919 H 0.41888 0.42394 0.94482 0.0
H920 H 0.35246 0.50666 0.89971 0.0
H921 H 0.3919 0.4868 0.92908 0.0
H922 H 0.45216 0.3823 0.78319 0.0
H923 H 0.49037 0.35971 0.81207 0.0
H924 H 0.38118 0.39243 0.7781 0.0
H925 H 0.34229 0.43528 0.79001 0.0
C926 C 0.08225 0.42455 0.89213 0.0
C927 C 0.10762 0.44628 0.86634 0.0
C928 C 0.07569 0.39116 0.82591 0.0
C929 C 0.047 0.37283 0.85091 0.0
N930 N 0.01717 0.376 0.90669 0.0
N931 N 0.12089 0.456 0.80723 0.0
C932 C 0.04869 0.3906 0.88379 0.0
C933 C 0.10258 0.43097 0.8328 0.0
N934 N 0.09124 0.43534 0.9246 0.0
N935 N 0.07758 0.36995 0.79561 0.0
H936 H 0.13915 0.48646 0.81071 0.0
H937 H 0.11405 0.4491 0.78227 0.0
H938 H 0.05777 0.34096 0.78996 0.0
H939 H 0.10147 0.37856 0.77732 0.0
H940 H 0.0771 0.41755 0.94463 0.0
H941 H 0.11616 0.45941 0.93158 0.0
H942 H 0.01352 0.39077 0.93015 0.0
H943 H 0.99195 0.35155 0.90119 0.0
C944 C 0.72842 0.24116 0.35093 0.0
C945 C 0.70336 0.24592 0.38107 0.0
C946 C 0.77557 0.2545 0.41213 0.0
C947 C 0.80082 0.25184 0.38188 0.0
N948 N 0.80245 0.22896 0.32428 0.0
N949 N 0.70157 0.26253 0.43963 0.0
C950 C 0.7776 0.24131 0.35169 0.0
C951 C 0.72663 0.25391 0.4115 0.0
N952 N 0.70502 0.23709 0.32152 0.0
N953 N 0.79891 0.25501 0.44166 0.0
H954 H 0.66565 0.26245 0.4398 0.0
H955 H 0.71581 0.27347 0.46206 0.0
H956 H 0.8347 0.2536 0.44283 0.0
H957 H 0.78333 0.25244 0.46489 0.0
H958 H 0.72056 0.23803 0.29822 0.0
H959 H 0.66918 0.23629 0.32015 0.0
H960 H 0.78798 0.21766 0.30204 0.0
H961 H 0.83793 0.22443 0.32493 0.0
C962 C 0.27379 0.73602 0.34836 0.0
C963 C 0.26228 0.70794 0.37601 0.0
C964 C 0.2395 0.77594 0.40737 0.0
C965 C 0.24452 0.80357 0.37857 0.0
N966 N 0.2624 0.80834 0.31969 0.0
N967 N 0.22281 0.69993 0.4282 0.0
C968 C 0.26097 0.78338 0.34848 0.0
C969 C 0.24166 0.72753 0.40441 0.0
N970 N 0.29682 0.71735 0.32197 0.0
N971 N 0.23499 0.796 0.43793 0.0
H972 H 0.22099 0.66426 0.42548 0.0
H973 H 0.2047 0.71286 0.4485 0.0
H974 H 0.23535 0.83162 0.44133 0.0
H975 H 0.23696 0.77718 0.45995 0.0
H976 H 0.31153 0.73692 0.30305 0.0
H977 H 0.30331 0.68217 0.31994 0.0
H978 H 0.26903 0.79382 0.29649 0.0
H979 H 0.25321 0.84284 0.31812 0.0
C980 C 0.27723 0.74942 0.09485 0.0
C981 C 0.30202 0.74428 0.12493 0.0
C982 C 0.2322 0.76059 0.15669 0.0
C983 C 0.20625 0.75975 0.12674 0.0
N984 N 0.20301 0.74671 0.06752 0.0
N985 N 0.30212 0.73742 0.18481 0.0
C986 C 0.22852 0.75197 0.09586 0.0
C987 C 0.27926 0.7476 0.15601 0.0
N988 N 0.30047 0.75365 0.06545 0.0
N989 N 0.21281 0.77658 0.18535 0.0
H990 H 0.33698 0.72889 0.18547 0.0
H991 H 0.2856 0.73424 0.20771 0.0
H992 H 0.17915 0.78864 0.18619 0.0
H993 H 0.23139 0.78227 0.20717 0.0
H994 H 0.28453 0.76179 0.04299 0.0
H995 H 0.33638 0.7535 0.06418 0.0
H996 H 0.21702 0.73649 0.04483 0.0
H997 H 0.16718 0.74882 0.06739 0.0
C998 C 0.75528 0.27698 0.15523 0.0
C999 C 0.75866 0.30141 0.12485 0.0
C1000 C 0.75184 0.22948 0.09349 0.0
C1001 C 0.745 0.20538 0.12369 0.0
N1002 N 0.73017 0.20741 0.18276 0.0
N1003 N 0.75023 0.30311 0.06529 0.0
C1004 C 0.74408 0.22942 0.15449 0.0
C1005 C 0.75394 0.27824 0.094 0.0
N1006 N 0.76398 0.29881 0.18473 0.0
N1007 N 0.75713 0.20556 0.06443 0.0
H1008 H 0.75076 0.33901 0.0651 0.0
H1009 H 0.74244 0.28854 0.04227 0.0
H1010 H 0.75635 0.16966 0.06343 0.0
H1011 H 0.76639 0.2209 0.042 0.0
H1012 H 0.76776 0.28145 0.20723 0.0
H1013 H 0.77042 0.33406 0.18642 0.0
H1014 H 0.72389 0.22427 0.20519 0.0
H1015 H 0.72114 0.17278 0.18301 0.0
C1016 C 0.22602 0.74209 0.58903 0.0
C1017 C 0.20061 0.7381 0.61898 0.0
C1018 C 0.27025 0.75682 0.65124 0.0
C1019 C 0.29637 0.75648 0.62139 0.0
N1020 N 0.30092 0.74265 0.56238 0.0
N1021 N 0.19868 0.73739 0.67904 0.0
C1022 C 0.27469 0.74737 0.59041 0.0
C1023 C 0.22272 0.74447 0.65025 0.0
N1024 N 0.20323 0.74277 0.55927 0.0
N1025 N 0.29043 0.77074 0.68034 0.0
H1026 H 0.1635 0.73025 0.67953 0.0
H1027 H 0.21407 0.73556 0.70241 0.0
H1028 H 0.32535 0.77882 0.68227 0.0
H1029 H 0.27214 0.77723 0.70211 0.0
H1030 H 0.21906 0.75077 0.53676 0.0
H1031 H 0.1675 0.73957 0.55744 0.0
H1032 H 0.28787 0.73148 0.53962 0.0
H1033 H 0.33667 0.74617 0.56255 0.0
C1034 C 0.74748 0.22199 0.58851 0.0
C1035 C 0.74714 0.19843 0.61937 0.0
C1036 C 0.7337 0.27055 0.64909 0.0
C1037 C 0.73577 0.29453 0.61846 0.0
N1038 N 0.74733 0.2953 0.55921 0.0
N1039 N 0.7233 0.1972 0.67661 0.0
C1040 C 0.74314 0.27078 0.58809 0.0
C1041 C 0.7354 0.22177 0.64905 0.0
N1042 N 0.74958 0.19695 0.55974 0.0
N1043 N 0.73123 0.29459 0.6783 0.0
H1044 H 0.72047 0.16148 0.6763 0.0
H1045 H 0.7106 0.21206 0.69832 0.0
H1046 H 0.73019 0.33044 0.67918 0.0
H1047 H 0.73419 0.27941 0.70165 0.0
H1048 H 0.74738 0.21088 0.53597 0.0
H1049 H 0.75008 0.16101 0.55983 0.0
H1050 H 0.7557 0.28097 0.53628 0.0
H1051 H 0.74524 0.33115 0.55856 0.0
C1052 C 0.77444 0.24156 0.91059 0.0
C1053 C 0.7997 0.2412 0.88041 0.0
C1054 C 0.72971 0.26199 0.84998 0.0
C1055 C 0.70341 0.25503 0.87935 0.0
N1056 N 0.70017 0.23455 0.93741 0.0
N1057 N 0.8003 0.2465 0.82027 0.0
C1058 C 0.72567 0.24345 0.90958 0.0
C1059 C 0.77714 0.25023 0.84974 0.0
N1060 N 0.79738 0.24278 0.94028 0.0
N1061 N 0.71016 0.28258 0.82292 0.0
H1062 H 0.83522 0.23885 0.81858 0.0
H1063 H 0.78389 0.24726 0.79721 0.0
H1064 H 0.67606 0.29339 0.82267 0.0
H1065 H 0.72883 0.2932 0.80217 0.0
H1066 H 0.78112 0.2471 0.96316 0.0
H1067 H 0.83321 0.24487 0.94166 0.0
H1068 H 0.71415 0.22122 0.95924 0.0
H1069 H 0.66438 0.23708 0.93779 0.0
C1070 C 0.25449 0.77263 0.90451 0.0
C1071 C 0.25822 0.79702 0.87418 0.0
C1072 C 0.24502 0.72569 0.84325 0.0
C1073 C 0.24722 0.70049 0.87349 0.0
N1074 N 0.26149 0.69946 0.93259 0.0
N1075 N 0.26452 0.79607 0.81428 0.0
C1076 C 0.25441 0.7239 0.90403 0.0
C1077 C 0.25571 0.77339 0.84337 0.0
N1078 N 0.24921 0.7962 0.93368 0.0
N1079 N 0.22981 0.70491 0.81483 0.0
H1080 H 0.27115 0.83132 0.81321 0.0
H1081 H 0.26844 0.77922 0.79156 0.0
H1082 H 0.21976 0.6706 0.81425 0.0
H1083 H 0.22294 0.72273 0.7929 0.0
H1084 H 0.24197 0.78032 0.95632 0.0
H1085 H 0.24742 0.83203 0.93456 0.0
H1086 H 0.27141 0.71457 0.955 0.0
H1087 H 0.26124 0.66361 0.93313 0.0
C1088 C 0.75239 0.07388 0.46882 0.0
C1089 C 0.70888 0.05183 0.47089 0.0
C1090 C 0.73554 0.01138 0.52043 0.0
C1091 C 0.7722 0.0433 0.52411 0.0
N1092 N 0.82237 0.0982 0.49653 0.0
N1093 N 0.65857 0.99892 0.49939 0.0
C1094 C 0.78313 0.07232 0.49658 0.0
C1095 C 0.70051 0.0198 0.49664 0.0
N1096 N 0.76473 0.09472 0.43972 0.0
N1097 N 0.73555 0.97197 0.53874 0.0
H1098 H 0.63135 0.00553 0.48319 0.0
H1099 H 0.64982 0.97784 0.51935 0.0
H1100 H 0.76399 0.96302 0.55321 0.0
H1101 H 0.71124 0.94586 0.53574 0.0
H1102 H 0.79733 0.10832 0.43521 0.0
H1103 H 0.74317 0.09468 0.41892 0.0
H1104 H 0.82749 0.12593 0.48056 0.0
H1105 H 0.85056 0.09101 0.5116 0.0
C1106 C 0.446 0.69866 0.53085 0.0
C1107 C 0.45734 0.74643 0.53034 0.0
C1108 C 0.47828 0.73908 0.47133 0.0
C1109 C 0.46932 0.69126 0.47288 0.0
N1110 N 0.45748 0.6237 0.5058 0.0
N1111 N 0.49465 0.80944 0.50175 0.0
C1112 C 0.4586 0.67054 0.50359 0.0
C1113 C 0.47672 0.76598 0.50106 0.0
N1114 N 0.41948 0.6807 0.55581 0.0
N1115 N 0.48623 0.75888 0.44113 0.0
H1116 H 0.49537 0.82957 0.52322 0.0
H1117 H 0.51262 0.82379 0.48187 0.0
H1118 H 0.48887 0.73934 0.4194 0.0
H1119 H 0.48776 0.79435 0.43754 0.0
H1120 H 0.40686 0.64712 0.55551 0.0
H1121 H 0.40512 0.70045 0.57477 0.0
H1122 H 0.45289 0.6062 0.52818 0.0
H1123 H 0.46569 0.60261 0.48564 0.0
C1124 C 0.78611 0.48364 0.49122 0.0
C1125 C 0.78349 0.44706 0.46815 0.0
C1126 C 0.71221 0.41931 0.49435 0.0
C1127 C 0.71861 0.4525 0.5201 0.0
N1128 N 0.74582 0.52851 0.53288 0.0
N1129 N 0.73867 0.38832 0.4413 0.0
C1130 C 0.75067 0.48871 0.51521 0.0
C1131 C 0.7446 0.41745 0.46769 0.0
N1132 N 0.82348 0.51219 0.49107 0.0
N1133 N 0.67557 0.38986 0.49522 0.0
H1134 H 0.76168 0.3872 0.42139 0.0
H1135 H 0.70987 0.36756 0.43775 0.0
H1136 H 0.64602 0.3967 0.50896 0.0
H1137 H 0.67315 0.35997 0.48105 0.0
H1138 H 0.82947 0.53706 0.50923 0.0
H1139 H 0.85004 0.509 0.47376 0.0
H1140 H 0.76627 0.55755 0.5293 0.0
H1141 H 0.71719 0.53397 0.54807 0.0
C1142 C 0.00647 0.76501 0.5152 0.0
C1143 C 0.04327 0.73445 0.52245 0.0
C1144 C 0.09309 0.77619 0.48456 0.0
C1145 C 0.05726 0.80749 0.47705 0.0
N1146 N 0.97688 0.82633 0.47966 0.0
N1147 N 0.10948 0.69747 0.49822 0.0
C1148 C 0.01271 0.8 0.49054 0.0
C1149 C 0.08263 0.73542 0.50197 0.0
N1150 N 0.96577 0.75995 0.53171 0.0
N1151 N 0.13787 0.7869 0.47805 0.0
H1152 H 0.09989 0.66543 0.50755 0.0
H1153 H 0.13659 0.69666 0.48123 0.0
H1154 H 0.14802 0.8186 0.46842 0.0
H1155 H 0.16483 0.76626 0.4864 0.0
H1156 H 0.93873 0.78332 0.53035 0.0
H1157 H 0.95959 0.73174 0.54717 0.0
H1158 H 0.94282 0.82131 0.48683 0.0
H1159 H 0.98114 0.85142 0.46135 0.0
C1160 C 0.20222 0.9382 0.96789 0.0
C1161 C 0.24961 0.95123 0.96889 0.0
C1162 C 0.24203 0.967 0.02872 0.0
C1163 C 0.19438 0.95714 0.02672 0.0
N1164 N 0.12699 0.9442 0.99345 0.0
N1165 N 0.3121 0.98702 0.99912 0.0
C1166 C 0.17383 0.94712 0.99575 0.0
C1167 C 0.26892 0.96831 0.99902 0.0
N1168 N 0.18499 0.91366 0.94159 0.0
N1169 N 0.26166 0.97357 0.05921 0.0
H1170 H 0.3322 0.98975 0.97773 0.0
H1171 H 0.32628 0.00359 0.01972 0.0
H1172 H 0.24215 0.97414 0.08102 0.0
H1173 H 0.2971 0.97578 0.06294 0.0
H1174 H 0.15197 0.89959 0.94129 0.0
H1175 H 0.20498 0.90224 0.92177 0.0
H1176 H 0.10959 0.94105 0.97088 0.0
H1177 H 0.10545 0.9494 0.01386 0.0
C1178 C 0.54912 0.17431 0.99928 0.0
C1179 C 0.54161 0.19553 0.03033 0.0
C1180 C 0.53099 0.26974 0.00223 0.0
C1181 C 0.54667 0.24979 0.97193 0.0
N1182 N 0.58179 0.1835 0.94484 0.0
N1183 N 0.52881 0.26369 0.06257 0.0
C1184 C 0.55822 0.202 0.97111 0.0
C1185 C 0.5332 0.24339 0.03214 0.0
N1186 N 0.54988 0.12743 0.99718 0.0
N1187 N 0.51264 0.31298 0.00235 0.0
H1188 H 0.52892 0.2446 0.08457 0.0
H1189 H 0.52777 0.29922 0.06597 0.0
H1190 H 0.50856 0.33246 0.98079 0.0
H1191 H 0.49727 0.3276 0.02324 0.0
H1192 H 0.55109 0.10979 0.97461 0.0
H1193 H 0.54465 0.10635 0.01783 0.0
H1194 H 0.59483 0.15012 0.94492 0.0
H1195 H 0.59379 0.2025 0.92471 0.0
C1196 C 0.30337 0.56246 0.96502 0.0
C1197 C 0.2561 0.54891 0.96735 0.0
C1198 C 0.26645 0.53735 0.02752 0.0
C1199 C 0.31393 0.54738 0.02419 0.0
N1200 N 0.37972 0.55846 0.9891 0.0
N1201 N 0.19563 0.51403 1.00008 0.0
C1202 C 0.33301 0.55555 0.99253 0.0
C1203 C 0.23837 0.5336 0.99844 0.0
N1204 N 0.31945 0.58561 0.93775 0.0
N1205 N 0.24814 0.53275 0.05858 0.0
H1206 H 0.17489 0.50905 0.9792 0.0
H1207 H 0.18263 0.49876 0.02155 0.0
H1208 H 0.2685 0.53404 0.07999 0.0
H1209 H 0.21288 0.53048 0.06308 0.0
H1210 H 0.35225 0.6001 0.93657 0.0
H1211 H 0.2989 0.59572 0.91788 0.0
H1212 H 0.39608 0.56005 0.96606 0.0
H1213 H 0.40221 0.55476 0.00916 0.0
C1214 C 0.94726 0.3309 0.99579 0.0
C1215 C 0.95954 0.31249 0.02698 0.0
C1216 C 0.97581 0.23812 1.00049 0.0
C1217 C 0.95636 0.25474 0.97032 0.0
N1218 N 0.91216 0.31469 0.94289 0.0
N1219 N 0.98197 0.24812 0.06045 0.0
C1220 C 0.93943 0.30074 0.96875 0.0
C1221 C 0.97312 0.26593 0.02972 0.0
N1222 N 0.94115 0.37724 0.99251 0.0
N1223 N 0.99795 0.1967 0.00104 0.0
H1224 H 0.98142 0.26841 0.0819 0.0
H1225 H 0.98714 0.21317 0.06476 0.0
H1226 H 0.00177 0.17617 0.97993 0.0
H1227 H 0.01612 0.18474 0.02163 0.0
H1228 H 0.9362 0.39322 0.96958 0.0
H1229 H 0.94562 0.40002 0.01233 0.0
H1230 H 0.89564 0.34647 0.94236 0.0
H1231 H 0.90092 0.2928 0.92404 0.0
C1232 C 0.27212 0.97124 0.52759 0.0
C1233 C 0.31879 0.9583 0.52403 0.0
C1234 C 0.30693 0.94326 0.46507 0.0
C1235 C 0.26063 0.95913 0.46769 0.0
N1236 N 0.20227 0.99737 0.50031 0.0
N1237 N 0.38364 0.94409 0.48863 0.0
C1238 C 0.24405 0.97596 0.49867 0.0
C1239 C 0.3372 0.94917 0.4923 0.0
N1240 N 0.25447 0.97738 0.55871 0.0
N1241 N 0.32107 0.91855 0.43796 0.0
H1242 H 0.40642 0.94713 0.50861 0.0
H1243 H 0.39958 0.94151 0.46547 0.0
H1244 H 0.29914 0.90859 0.41876 0.0
H1245 H 0.35321 0.90279 0.43647 0.0
H1246 H 0.21949 0.98189 0.5634 0.0
H1247 H 0.27494 0.97527 0.58002 0.0
H1248 H 0.19021 0.01371 0.52166 0.0
H1249 H 0.1815 0.00249 0.47947 0.0
C1250 C 0.52097 0.25819 0.53103 0.0
C1251 C 0.53067 0.30582 0.5294 0.0
C1252 C 0.55266 0.29839 0.47121 0.0
C1253 C 0.54037 0.25084 0.47182 0.0
N1254 N 0.50311 0.18812 0.50068 0.0
N1255 N 0.54368 0.37341 0.49651 0.0
C1256 C 0.5215 0.2314 0.50128 0.0
C1257 C 0.54148 0.32659 0.49869 0.0
N1258 N 0.51303 0.23849 0.56127 0.0
N1259 N 0.57882 0.31599 0.44591 0.0
H1260 H 0.53683 0.39482 0.51674 0.0
H1261 H 0.54787 0.39084 0.47406 0.0
H1262 H 0.59207 0.29622 0.42658 0.0
H1263 H 0.59235 0.34921 0.44618 0.0
H1264 H 0.51083 0.20306 0.56486 0.0
H1265 H 0.51112 0.25801 0.58305 0.0
H1266 H 0.48545 0.17381 0.52071 0.0
H1267 H 0.50177 0.16812 0.47914 0.0
C1268 C 0.2496 0.60065 0.49203 0.0
C1269 C 0.26369 0.55891 0.47686 0.0
C1270 C 0.21761 0.51556 0.51765 0.0
C1271 C 0.19873 0.55739 0.52938 0.0
N1272 N 0.19294 0.64012 0.52502 0.0
N1273 N 0.2638 0.47613 0.47587 0.0
C1274 C 0.2146 0.60007 0.51654 0.0
C1275 C 0.24873 0.51608 0.4901 0.0
N1276 N 0.26765 0.6415 0.48172 0.0
N1277 N 0.20546 0.47555 0.53313 0.0
H1278 H 0.28911 0.47564 0.45744 0.0
H1279 H 0.25085 0.44371 0.48162 0.0
H1280 H 0.18276 0.47506 0.55327 0.0
H1281 H 0.21981 0.44363 0.52774 0.0
H1282 H 0.26611 0.67173 0.49563 0.0
H1283 H 0.285 0.64494 0.45938 0.0
H1284 H 0.19984 0.67161 0.51384 0.0
H1285 H 0.16499 0.64206 0.54103 0.0
C1286 C 0.9477 0.17973 0.50109 0.0
C1287 C 0.95862 0.19949 0.53212 0.0
C1288 C 0.97214 0.2738 0.50468 0.0
C1289 C 0.95394 0.25531 0.47463 0.0
N1290 N 0.911 0.19332 0.44859 0.0
N1291 N 0.97778 0.26581 0.56485 0.0
C1292 C 0.93846 0.20881 0.47385 0.0
C1293 C 0.9702 0.24674 0.53432 0.0
N1294 N 0.94382 0.13309 0.49821 0.0
N1295 N 0.99211 0.31637 0.50479 0.0
H1296 H 0.97768 0.2461 0.58656 0.0
H1297 H 0.98154 0.30107 0.56872 0.0
H1298 H 0.99476 0.33658 0.48345 0.0
H1299 H 0.0094 0.32989 0.52531 0.0
H1300 H 0.93943 0.11654 0.47538 0.0
H1301 H 0.94955 0.11097 0.51821 0.0
H1302 H 0.89524 0.16107 0.44871 0.0
H1303 H 0.89972 0.21427 0.4293 0.0
C1304 C 0.8015 0.01812 0.99673 0.0
C1305 C 0.79764 0.05298 0.97249 0.0
C1306 C 0.72451 0.07857 0.99726 0.0
C1307 C 0.73167 0.04696 0.02385 0.0
N1308 N 0.76148 0.97264 0.03802 0.0
N1309 N 0.75063 0.10786 0.9436 0.0
C1310 C 0.76549 0.01225 0.02014 0.0
C1311 C 0.7574 0.08058 0.97085 0.0
N1312 N 0.84042 0.99196 0.99824 0.0
N1313 N 0.68653 0.10614 0.99697 0.0
H1314 H 0.77386 0.1089 0.92383 0.0
H1315 H 0.72106 0.12709 0.93927 0.0
H1316 H 0.65717 0.09873 0.01078 0.0
H1317 H 0.6829 0.13495 0.98186 0.0
H1318 H 0.84713 0.96903 0.01755 0.0
H1319 H 0.86742 0.99566 0.98134 0.0
H1320 H 0.78328 0.94449 0.03506 0.0
H1321 H 0.73222 0.96615 0.05234 0.0
C1322 C 0.45076 0.8299 0.00471 0.0
C1323 C 0.45613 0.80958 0.97315 0.0
C1324 C 0.46796 0.7345 0.99973 0.0
C1325 C 0.45452 0.75378 0.03078 0.0
N1326 N 0.42079 0.81896 0.05982 0.0
N1327 N 0.46569 0.74199 0.93951 0.0
C1328 C 0.44305 0.80144 0.03265 0.0
C1329 C 0.46397 0.76167 0.97031 0.0
N1330 N 0.45106 0.8767 0.00754 0.0
N1331 N 0.4856 0.69101 0.99838 0.0
H1332 H 0.46369 0.7614 0.91773 0.0
H1333 H 0.46617 0.70652 0.9357 0.0
H1334 H 0.49043 0.67077 0.0195 0.0
H1335 H 0.49949 0.67678 0.97681 0.0
H1336 H 0.45056 0.89373 0.03037 0.0
H1337 H 0.45634 0.89812 0.98705 0.0
H1338 H 0.40825 0.85251 0.06082 0.0
H1339 H 0.40935 0.79887 0.07957 0.0
C1340 C 0.70592 0.44157 0.03457 0.0
C1341 C 0.75405 0.45103 0.03188 0.0
C1342 C 0.7448 0.45861 0.97136 0.0
C1343 C 0.69664 0.45297 0.97499 0.0
N1344 N 0.63022 0.4508 0.01029 0.0
N1345 N 0.81745 0.47769 0.99804 0.0
C1346 C 0.67696 0.44925 0.00686 0.0
C1347 C 0.7731 0.46228 1.00031 0.0
N1348 N 0.6882 0.42109 0.0624 0.0
N1349 N 0.76342 0.45896 0.94022 0.0
H1350 H 0.83859 0.4822 0.01877 0.0
H1351 H 0.83179 0.49 0.97602 0.0
H1352 H 0.74302 0.45762 0.91884 0.0
H1353 H 0.79874 0.45783 0.93576 0.0
H1354 H 0.65419 0.40982 0.06409 0.0
H1355 H 0.70831 0.40966 0.08213 0.0
H1356 H 0.61388 0.45219 0.03336 0.0
H1357 H 0.6082 0.45525 0.99003 0.0
C1358 C 0.04531 0.77197 1.00025 0.0
C1359 C 0.05753 0.75295 0.03167 0.0
C1360 C 0.05919 0.676 0.00628 0.0
C1361 C 0.05414 0.69571 0.97451 0.0
N1362 N 0.04714 0.76264 0.94008 0.0
N1363 N 0.08872 0.68712 0.06153 0.0
C1364 C 0.04839 0.74385 0.97114 0.0
C1365 C 0.06752 0.7049 0.03399 0.0
N1366 N 0.02922 0.81601 0.99825 0.0
N1367 N 0.05787 0.62928 0.00966 0.0
H1368 H 0.10028 0.70699 0.08141 0.0
H1369 H 0.10038 0.65329 0.06287 0.0
H1370 H 0.05297 0.60726 0.98944 0.0
H1371 H 0.05704 0.61291 0.03272 0.0
H1372 H 0.01618 0.83017 0.9764 0.0
H1373 H 0.02475 0.83698 0.01904 0.0
H1374 H 0.04814 0.79796 0.93575 0.0
H1375 H 0.04799 0.7424 0.91861 0.0
loop_
_geom_bond_atom_site_label_1
_geom_bond_atom_site_label_2
_geom_bond_distance
_geom_bond_site_symmetry_2
_ccdc_geom_bond_type
Zn0 O1 2.055 . S
Zn0 O8 2.046 . S
Zn0 N16 2.036 . S
Zn0 O28 2.053 . S
Zn0 O30 2.066 . S
O1 Zn0 2.055 . S
O1 C4 1.259 . S
C2 O30 1.256 . S
C2 O31 1.244 . S
Zn3 O5 2.046 . S
Zn3 O7 2.055 . S
Zn3 N9 2.036 . S
Zn3 O27 2.066 . S
Zn3 O31 2.053 . S
C4 O1 1.259 . S
C4 O5 1.254 . S
O5 Zn3 2.046 . S
O5 C4 1.254 . S
C6 O27 1.256 . S
C6 O28 1.244 . S
O7 Zn3 2.055 . S
O7 C29 1.259 . S
O8 Zn0 2.046 . S
O8 C29 1.254 . S
N9 Zn3 2.036 . S
N9 C10 1.298 . S
N9 N12 1.398 . S
C10 N9 1.298 . S
C10 N13 1.367 . S
C10 C23 1.481 . S
C11 N12 1.299 . S
C11 N13 1.379 . S
N12 N9 1.398 . S
N12 C11 1.299 . S
N13 C10 1.367 . S
N13 C11 1.379 . S
C14 N16 1.298 . S
C14 N18 1.367 . S
C14 C22 1.481 . S
C15 N17 1.299 . S
C15 N18 1.379 . S
N16 Zn0 2.036 . S
N16 C14 1.298 . S
N16 N17 1.398 . S
N17 C15 1.299 . S
N17 N16 1.398 . S
N18 C14 1.367 . S
N18 C15 1.379 . S
H19 C22 0.980 . S
H20 C22 0.981 . S
H21 C22 0.981 . S
C22 C14 1.481 . S
C22 H19 0.980 . S
C22 H20 0.981 . S
C22 H21 0.981 . S
C23 C10 1.481 . S
C23 H24 0.980 . S
C23 H25 0.981 . S
C23 H26 0.981 . S
H24 C23 0.980 . S
H25 C23 0.981 . S
H26 C23 0.981 . S
O27 Zn3 2.066 . S
O27 C6 1.256 . S
O28 Zn0 2.053 . S
O28 C6 1.244 . S
C29 O7 1.259 . S
C29 O8 1.254 . S
O30 Zn0 2.066 . S
O30 C2 1.256 . S
O31 C2 1.244 . S
O31 Zn3 2.053 . S
Zn32 O33 2.055 . S
Zn32 O40 2.046 . S
Zn32 N48 2.036 . S
Zn32 O60 2.053 . S
Zn32 O62 2.066 . S
O33 Zn32 2.055 . S
O33 C36 1.259 . S
C34 O62 1.256 . S
C34 O63 1.244 . S
Zn35 O37 2.046 . S
Zn35 O39 2.055 . S
Zn35 N41 2.036 . S
Zn35 O59 2.066 . S
Zn35 O63 2.053 . S
C36 O33 1.259 . S
C36 O37 1.254 . S
O37 Zn35 2.046 . S
O37 C36 1.254 . S
C38 O59 1.256 . S
C38 O60 1.244 . S
O39 Zn35 2.055 . S
O39 C61 1.259 . S
O40 Zn32 2.046 . S
O40 C61 1.254 . S
N41 Zn35 2.036 . S
N41 C42 1.298 . S
N41 N44 1.398 . S
C42 N41 1.298 . S
C42 N45 1.367 . S
C42 C55 1.481 . S
C43 N44 1.299 . S
C43 N45 1.379 . S
N44 N41 1.398 . S
N44 C43 1.299 . S
N45 C42 1.367 . S
N45 C43 1.379 . S
C46 N48 1.298 . S
C46 N50 1.367 . S
C46 C54 1.481 . S
C47 N49 1.299 . S
C47 N50 1.379 . S
N48 Zn32 2.036 . S
N48 C46 1.298 . S
N48 N49 1.398 . S
N49 C47 1.299 . S
N49 N48 1.398 . S
N50 C46 1.367 . S
N50 C47 1.379 . S
H51 C54 0.980 . S
H52 C54 0.981 . S
H53 C54 0.981 . S
C54 C46 1.481 . S
C54 H51 0.980 . S
C54 H52 0.981 . S
C54 H53 0.981 . S
C55 C42 1.481 . S
C55 H56 0.980 . S
C55 H57 0.981 . S
C55 H58 0.981 . S
H56 C55 0.980 . S
H57 C55 0.981 . S
H58 C55 0.981 . S
O59 Zn35 2.066 . S
O59 C38 1.256 . S
O60 Zn32 2.053 . S
O60 C38 1.244 . S
C61 O39 1.259 . S
C61 O40 1.254 . S
O62 Zn32 2.066 . S
O62 C34 1.256 . S
O63 C34 1.244 . S
O63 Zn35 2.053 . S
Zn64 O65 2.055 . S
Zn64 O72 2.046 . S
Zn64 N80 2.036 . S
Zn64 O92 2.053 . S
Zn64 O94 2.085 . S
O65 Zn64 2.055 . S
O65 C68 1.259 . S
C66 O94 1.258 . S
C66 O95 1.244 . S
Zn67 O69 2.046 . S
Zn67 O71 2.055 . S
Zn67 N73 2.036 . S
Zn67 O91 2.066 . S
Zn67 O95 2.053 . S
C68 O65 1.259 . S
C68 O69 1.254 . S
O69 Zn67 2.046 . S
O69 C68 1.254 . S
C70 O91 1.256 . S
C70 O92 1.244 . S
O71 Zn67 2.055 . S
O71 C93 1.259 . S
O72 Zn64 2.046 . S
O72 C93 1.254 . S
N73 Zn67 2.036 . S
N73 C74 1.298 . S
N73 N76 1.398 . S
C74 N73 1.298 . S
C74 N77 1.367 . S
C74 C87 1.481 . S
C75 N76 1.299 . S
C75 N77 1.379 . S
N76 N73 1.398 . S
N76 C75 1.299 . S
N77 C74 1.367 . S
N77 C75 1.379 . S
C78 N80 1.298 1_455 S
C78 N82 1.367 . S
C78 C86 1.481 . S
C79 N81 1.299 1_455 S
C79 N82 1.379 . S
N80 Zn64 2.036 . S
N80 C78 1.298 1_655 S
N80 N81 1.398 . S
N81 C79 1.299 1_655 S
N81 N80 1.398 . S
N82 C78 1.367 . S
N82 C79 1.379 . S
H83 C86 0.980 1_655 S
H84 C86 0.981 . S
H85 C86 0.981 . S
C86 C78 1.481 . S
C86 H83 0.980 1_455 S
C86 H84 0.981 . S
C86 H85 0.981 . S
C87 C74 1.481 . S
C87 H88 0.980 . S
C87 H89 0.981 . S
C87 H90 0.981 . S
H88 C87 0.980 . S
H89 C87 0.981 . S
H90 C87 0.981 . S
O91 Zn67 2.066 . S
O91 C70 1.256 . S
O92 Zn64 2.053 . S
O92 C70 1.244 . S
C93 O71 1.259 . S
C93 O72 1.254 . S
O94 Zn64 2.085 . S
O94 C66 1.258 . S
O95 C66 1.244 . S
O95 Zn67 2.053 . S
Zn96 O97 2.055 . S
Zn96 O104 2.046 . S
Zn96 N112 2.036 . S
Zn96 O124 2.053 . S
Zn96 O126 2.066 . S
O97 Zn96 2.055 . S
O97 C100 1.259 . S
C98 O126 1.256 . S
C98 O127 1.244 . S
Zn99 O101 2.046 . S
Zn99 O103 2.055 . S
Zn99 N105 2.036 . S
Zn99 O123 2.085 . S
Zn99 O127 2.053 . S
C100 O97 1.259 . S
C100 O101 1.254 . S
O101 Zn99 2.046 . S
O101 C100 1.254 . S
C102 O123 1.258 . S
C102 O124 1.244 . S
O103 Zn99 2.055 . S
O103 C125 1.259 . S
O104 Zn96 2.046 . S
O104 C125 1.254 . S
N105 Zn99 2.036 . S
N105 C106 1.298 1_565 S
N105 N108 1.398 . S
C106 N105 1.298 1_545 S
C106 N109 1.367 . S
C106 C119 1.481 . S
C107 N108 1.299 1_545 S
C107 N109 1.379 . S
N108 N105 1.398 . S
N108 C107 1.299 1_565 S
N109 C106 1.367 . S
N109 C107 1.379 . S
C110 N112 1.298 . S
C110 N114 1.367 . S
C110 C118 1.481 . S
C111 N113 1.299 . S
C111 N114 1.379 . S
N112 Zn96 2.036 . S
N112 C110 1.298 . S
N112 N113 1.398 . S
N113 C111 1.299 . S
N113 N112 1.398 . S
N114 C110 1.367 . S
N114 C111 1.379 . S
H115 C118 0.980 . S
H116 C118 0.981 . S
H117 C118 0.981 . S
C118 C110 1.481 . S
C118 H115 0.980 . S
C118 H116 0.981 . S
C118 H117 0.981 . S
C119 C106 1.481 . S
C119 H120 0.980 1_545 S
C119 H121 0.981 . S
C119 H122 0.981 . S
H120 C119 0.980 1_565 S
H121 C119 0.981 . S
H122 C119 0.981 . S
O123 Zn99 2.085 . S
O123 C102 1.258 . S
O124 Zn96 2.053 . S
O124 C102 1.244 . S
C125 O103 1.259 . S
C125 O104 1.254 . S
O126 Zn96 2.066 . S
O126 C98 1.256 . S
O127 C98 1.244 . S
O127 Zn99 2.053 . S
Zn128 O129 2.055 . S
Zn128 O136 2.046 . S
Zn128 N144 2.036 . S
Zn128 O156 2.053 . S
Zn128 O158 2.085 . S
O129 Zn128 2.055 . S
O129 C132 1.259 . S
C130 O158 1.258 . S
C130 O159 1.244 . S
Zn131 O133 2.046 . S
Zn131 O135 2.055 . S
Zn131 N137 2.036 . S
Zn131 O155 2.066 . S
Zn131 O159 2.053 . S
C132 O129 1.259 . S
C132 O133 1.254 . S
O133 Zn131 2.046 . S
O133 C132 1.254 . S
C134 O155 1.256 . S
C134 O156 1.244 . S
O135 Zn131 2.055 . S
O135 C157 1.259 . S
O136 Zn128 2.046 . S
O136 C157 1.254 . S
N137 Zn131 2.036 . S
N137 C138 1.298 . S
N137 N140 1.398 . S
C138 N137 1.298 . S
C138 N141 1.367 . S
C138 C151 1.481 . S
C139 N140 1.299 . S
C139 N141 1.379 . S
N140 N137 1.398 . S
N140 C139 1.299 . S
N141 C138 1.367 . S
N141 C139 1.379 . S
C142 N144 1.298 1_655 S
C142 N146 1.367 . S
C142 C150 1.481 . S
C143 N145 1.299 1_655 S
C143 N146 1.379 . S
N144 Zn128 2.036 . S
N144 C142 1.298 1_455 S
N144 N145 1.398 . S
N145 C143 1.299 1_455 S
N145 N144 1.398 . S
N146 C142 1.367 . S
N146 C143 1.379 . S
H147 C150 0.980 1_455 S
H148 C150 0.981 . S
H149 C150 0.981 . S
C150 C142 1.481 . S
C150 H147 0.980 1_655 S
C150 H148 0.981 . S
C150 H149 0.981 . S
C151 C138 1.481 . S
C151 H152 0.980 . S
C151 H153 0.981 . S
C151 H154 0.981 . S
H152 C151 0.980 . S
H153 C151 0.981 . S
H154 C151 0.981 . S
O155 Zn131 2.066 . S
O155 C134 1.256 . S
O156 Zn128 2.053 . S
O156 C134 1.244 . S
C157 O135 1.259 . S
C157 O136 1.254 . S
O158 Zn128 2.085 . S
O158 C130 1.258 . S
O159 C130 1.244 . S
O159 Zn131 2.053 . S
Zn160 O161 2.055 . S
Zn160 O168 2.046 . S
Zn160 N176 2.036 . S
Zn160 O188 2.053 . S
Zn160 O190 2.085 . S
O161 Zn160 2.055 . S
O161 C164 1.259 . S
C162 O190 1.258 . S
C162 O191 1.244 . S
Zn163 O165 2.046 . S
Zn163 O167 2.055 . S
Zn163 N169 2.036 . S
Zn163 O187 2.066 . S
Zn163 O191 2.053 . S
C164 O161 1.259 . S
C164 O165 1.254 . S
O165 Zn163 2.046 . S
O165 C164 1.254 . S
C166 O187 1.256 . S
C166 O188 1.244 . S
O167 Zn163 2.055 . S
O167 C189 1.259 . S
O168 Zn160 2.046 . S
O168 C189 1.254 . S
N169 Zn163 2.036 . S
N169 C170 1.298 . S
N169 N172 1.398 . S
C170 N169 1.298 . S
C170 N173 1.367 . S
C170 C183 1.481 . S
C171 N172 1.299 . S
C171 N173 1.379 . S
N172 N169 1.398 . S
N172 C171 1.299 . S
N173 C170 1.367 . S
N173 C171 1.379 . S
C174 N176 1.298 1_565 S
C174 N178 1.367 . S
C174 C182 1.481 . S
C175 N177 1.299 1_565 S
C175 N178 1.379 . S
N176 Zn160 2.036 . S
N176 C174 1.298 1_545 S
N176 N177 1.398 . S
N177 C175 1.299 1_545 S
N177 N176 1.398 . S
N178 C174 1.367 . S
N178 C175 1.379 . S
H179 C182 0.980 1_545 S
H180 C182 0.981 . S
H181 C182 0.981 . S
C182 C174 1.481 . S
C182 H179 0.980 1_565 S
C182 H180 0.981 . S
C182 H181 0.981 . S
C183 C170 1.481 . S
C183 H184 0.980 . S
C183 H185 0.981 . S
C183 H186 0.981 . S
H184 C183 0.980 . S
H185 C183 0.981 . S
H186 C183 0.981 . S
O187 Zn163 2.066 . S
O187 C166 1.256 . S
O188 Zn160 2.053 . S
O188 C166 1.244 . S
C189 O167 1.259 . S
C189 O168 1.254 . S
O190 Zn160 2.085 . S
O190 C162 1.258 . S
O191 C162 1.244 . S
O191 Zn163 2.053 . S
Zn192 O193 2.055 . S
Zn192 O200 2.046 . S
Zn192 N208 2.036 . S
Zn192 O220 2.053 . S
Zn192 O222 2.066 . S
O193 Zn192 2.055 . S
O193 C196 1.259 . S
C194 O222 1.256 . S
C194 O223 1.244 . S
Zn195 O197 2.046 . S
Zn195 O199 2.055 . S
Zn195 N201 2.036 . S
Zn195 O219 2.066 . S
Zn195 O223 2.053 . S
C196 O193 1.259 . S
C196 O197 1.254 . S
O197 Zn195 2.046 . S
O197 C196 1.254 . S
C198 O219 1.256 . S
C198 O220 1.244 . S
O199 Zn195 2.055 . S
O199 C221 1.259 . S
O200 Zn192 2.046 . S
O200 C221 1.254 . S
N201 Zn195 2.036 . S
N201 C202 1.298 . S
N201 N204 1.398 . S
C202 N201 1.298 . S
C202 N205 1.367 . S
C202 C215 1.481 . S
C203 N204 1.299 . S
C203 N205 1.379 . S
N204 N201 1.398 . S
N204 C203 1.299 . S
N205 C202 1.367 . S
N205 C203 1.379 . S
C206 N208 1.298 . S
C206 N210 1.367 . S
C206 C214 1.481 . S
C207 N209 1.299 . S
C207 N210 1.379 . S
N208 Zn192 2.036 . S
N208 C206 1.298 . S
N208 N209 1.398 . S
N209 C207 1.299 . S
N209 N208 1.398 . S
N210 C206 1.367 . S
N210 C207 1.379 . S
H211 C214 0.980 . S
H212 C214 0.981 . S
H213 C214 0.981 . S
C214 C206 1.481 . S
C214 H211 0.980 . S
C214 H212 0.981 . S
C214 H213 0.981 . S
C215 C202 1.481 . S
C215 H216 0.980 . S
C215 H217 0.981 . S
C215 H218 0.981 . S
H216 C215 0.980 . S
H217 C215 0.981 . S
H218 C215 0.981 . S
O219 Zn195 2.066 . S
O219 C198 1.256 . S
O220 Zn192 2.053 . S
O220 C198 1.244 . S
C221 O199 1.259 . S
C221 O200 1.254 . S
O222 Zn192 2.066 . S
O222 C194 1.256 . S
O223 C194 1.244 . S
O223 Zn195 2.053 . S
Zn224 O225 2.055 . S
Zn224 O232 2.046 . S
Zn224 N240 2.036 . S
Zn224 O252 2.053 . S
Zn224 O254 2.066 . S
O225 Zn224 2.055 . S
O225 C228 1.259 . S
C226 O254 1.256 . S
C226 O255 1.244 . S
Zn227 O229 2.046 . S
Zn227 O231 2.055 . S
Zn227 N233 2.036 . S
Zn227 O251 2.066 . S
Zn227 O255 2.053 . S
C228 O225 1.259 . S
C228 O229 1.254 . S
O229 Zn227 2.046 . S
O229 C228 1.254 . S
C230 O251 1.256 . S
C230 O252 1.244 . S
O231 Zn227 2.055 . S
O231 C253 1.259 . S
O232 Zn224 2.046 . S
O232 C253 1.254 . S
N233 Zn227 2.036 . S
N233 C234 1.298 . S
N233 N236 1.398 . S
C234 N233 1.298 . S
C234 N237 1.367 . S
C234 C247 1.481 . S
C235 N236 1.299 . S
C235 N237 1.379 . S
N236 N233 1.398 . S
N236 C235 1.299 . S
N237 C234 1.367 . S
N237 C235 1.379 . S
C238 N240 1.298 . S
C238 N242 1.367 . S
C238 C246 1.481 . S
C239 N241 1.299 . S
C239 N242 1.379 . S
N240 Zn224 2.036 . S
N240 C238 1.298 . S
N240 N241 1.398 . S
N241 C239 1.299 . S
N241 N240 1.398 . S
N242 C238 1.367 . S
N242 C239 1.379 . S
H243 C246 0.980 . S
H244 C246 0.981 . S
H245 C246 0.981 . S
C246 C238 1.481 . S
C246 H243 0.980 . S
C246 H244 0.981 . S
C246 H245 0.981 . S
C247 C234 1.481 . S
C247 H248 0.980 . S
C247 H249 0.981 . S
C247 H250 0.981 . S
H248 C247 0.980 . S
H249 C247 0.981 . S
H250 C247 0.981 . S
O251 Zn227 2.066 . S
O251 C230 1.256 . S
O252 Zn224 2.053 . S
O252 C230 1.244 . S
C253 O231 1.259 . S
C253 O232 1.254 . S
O254 Zn224 2.066 . S
O254 C226 1.256 . S
O255 C226 1.244 . S
O255 Zn227 2.053 . S
Zn256 O257 2.055 . S
Zn256 O264 2.046 . S
Zn256 N272 2.036 . S
Zn256 O284 2.053 . S
Zn256 O286 2.066 . S
O257 Zn256 2.055 . S
O257 C260 1.259 . S
C258 O286 1.256 . S
C258 O287 1.244 . S
Zn259 O261 2.046 . S
Zn259 O263 2.055 . S
Zn259 N265 2.036 . S
Zn259 O283 2.066 . S
Zn259 O287 2.053 . S
C260 O257 1.259 . S
C260 O261 1.254 . S
O261 Zn259 2.046 . S
O261 C260 1.254 . S
C262 O283 1.256 . S
C262 O284 1.244 . S
O263 Zn259 2.055 . S
O263 C285 1.259 . S
O264 Zn256 2.046 . S
O264 C285 1.254 . S
N265 Zn259 2.036 . S
N265 C266 1.298 . S
N265 N268 1.398 . S
C266 N265 1.298 . S
C266 N269 1.367 . S
C266 C279 1.481 . S
C267 N268 1.299 . S
C267 N269 1.379 . S
N268 N265 1.398 . S
N268 C267 1.299 . S
N269 C266 1.367 . S
N269 C267 1.379 . S
C270 N272 1.298 . S
C270 N274 1.367 . S
C270 C278 1.481 . S
C271 N273 1.299 . S
C271 N274 1.379 . S
N272 Zn256 2.036 . S
N272 C270 1.298 . S
N272 N273 1.398 . S
N273 C271 1.299 . S
N273 N272 1.398 . S
N274 C270 1.367 . S
N274 C271 1.379 . S
H275 C278 0.980 . S
H276 C278 0.981 . S
H277 C278 0.981 . S
C278 C270 1.481 . S
C278 H275 0.980 . S
C278 H276 0.981 . S
C278 H277 0.981 . S
C279 C266 1.481 . S
C279 H280 0.980 . S
C279 H281 0.981 . S
C279 H282 0.981 . S
H280 C279 0.980 . S
H281 C279 0.981 . S
H282 C279 0.981 . S
O283 Zn259 2.066 . S
O283 C262 1.256 . S
O284 Zn256 2.053 . S
O284 C262 1.244 . S
C285 O263 1.259 . S
C285 O264 1.254 . S
O286 Zn256 2.066 . S
O286 C258 1.256 . S
O287 C258 1.244 . S
O287 Zn259 2.053 . S
Zn288 O289 2.055 . S
Zn288 O296 2.046 . S
Zn288 N304 2.036 . S
Zn288 O316 2.053 . S
Zn288 O318 2.066 . S
O289 Zn288 2.055 . S
O289 C292 1.259 . S
C290 O318 1.256 . S
C290 O319 1.244 . S
Zn291 O293 2.046 . S
Zn291 O295 2.055 . S
Zn291 N297 2.036 . S
Zn291 O315 2.066 . S
Zn291 O319 2.053 . S
C292 O289 1.259 . S
C292 O293 1.254 . S
O293 Zn291 2.046 . S
O293 C292 1.254 . S
C294 O315 1.256 . S
C294 O316 1.244 . S
O295 Zn291 2.055 . S
O295 C317 1.259 . S
O296 Zn288 2.046 . S
O296 C317 1.254 . S
N297 Zn291 2.036 . S
N297 C298 1.298 . S
N297 N300 1.398 . S
C298 N297 1.298 . S
C298 N301 1.367 . S
C298 C311 1.481 . S
C299 N300 1.299 . S
C299 N301 1.379 . S
N300 N297 1.398 . S
N300 C299 1.299 . S
N301 C298 1.367 . S
N301 C299 1.379 . S
C302 N304 1.298 . S
C302 N306 1.367 . S
C302 C310 1.481 . S
C303 N305 1.299 . S
C303 N306 1.379 . S
N304 Zn288 2.036 . S
N304 C302 1.298 . S
N304 N305 1.398 . S
N305 C303 1.299 . S
N305 N304 1.398 . S
N306 C302 1.367 . S
N306 C303 1.379 . S
H307 C310 0.980 . S
H308 C310 0.981 . S
H309 C310 0.981 . S
C310 C302 1.481 . S
C310 H307 0.980 . S
C310 H308 0.981 . S
C310 H309 0.981 . S
C311 C298 1.481 . S
C311 H312 0.980 . S
C311 H313 0.981 . S
C311 H314 0.981 . S
H312 C311 0.980 . S
H313 C311 0.981 . S
H314 C311 0.981 . S
O315 Zn291 2.066 . S
O315 C294 1.256 . S
O316 Zn288 2.053 . S
O316 C294 1.244 . S
C317 O295 1.259 . S
C317 O296 1.254 . S
O318 Zn288 2.066 . S
O318 C290 1.256 . S
O319 C290 1.244 . S
O319 Zn291 2.053 . S
Zn320 O321 2.055 . S
Zn320 O328 2.046 . S
Zn320 N336 2.036 . S
Zn320 O348 2.053 . S
Zn320 O350 2.066 . S
O321 Zn320 2.055 . S
O321 C324 1.259 . S
C322 O350 1.256 . S
C322 O351 1.244 . S
Zn323 O325 2.046 . S
Zn323 O327 2.055 . S
Zn323 N329 2.036 . S
Zn323 O347 2.085 . S
Zn323 O351 2.053 . S
C324 O321 1.259 . S
C324 O325 1.254 . S
O325 Zn323 2.046 . S
O325 C324 1.254 . S
C326 O347 1.258 . S
C326 O348 1.244 . S
O327 Zn323 2.055 . S
O327 C349 1.259 . S
O328 Zn320 2.046 . S
O328 C349 1.254 . S
N329 Zn323 2.036 . S
N329 C330 1.298 1_455 S
N329 N332 1.398 . S
C330 N329 1.298 1_655 S
C330 N333 1.367 . S
C330 C343 1.481 . S
C331 N332 1.299 1_655 S
C331 N333 1.379 . S
N332 N329 1.398 . S
N332 C331 1.299 1_455 S
N333 C330 1.367 . S
N333 C331 1.379 . S
C334 N336 1.298 . S
C334 N338 1.367 . S
C334 C342 1.481 . S
C335 N337 1.299 . S
C335 N338 1.379 . S
N336 Zn320 2.036 . S
N336 C334 1.298 . S
N336 N337 1.398 . S
N337 C335 1.299 . S
N337 N336 1.398 . S
N338 C334 1.367 . S
N338 C335 1.379 . S
H339 C342 0.980 . S
H340 C342 0.981 . S
H341 C342 0.981 . S
C342 C334 1.481 . S
C342 H339 0.980 . S
C342 H340 0.981 . S
C342 H341 0.981 . S
C343 C330 1.481 . S
C343 H344 0.980 1_655 S
C343 H345 0.981 . S
C343 H346 0.981 . S
H344 C343 0.980 1_455 S
H345 C343 0.981 . S
H346 C343 0.981 . S
O347 Zn323 2.085 . S
O347 C326 1.258 . S
O348 Zn320 2.053 . S
O348 C326 1.244 . S
C349 O327 1.259 . S
C349 O328 1.254 . S
O350 Zn320 2.066 . S
O350 C322 1.256 . S
O351 C322 1.244 . S
O351 Zn323 2.053 . S
Zn352 O353 2.055 . S
Zn352 O360 2.046 . S
Zn352 N368 2.036 . S
Zn352 O380 2.053 . S
Zn352 O382 2.066 . S
O353 Zn352 2.055 . S
O353 C356 1.259 . S
C354 O382 1.256 . S
C354 O383 1.244 . S
Zn355 O357 2.046 . S
Zn355 O359 2.055 . S
Zn355 N361 2.036 . S
Zn355 O379 2.085 . S
Zn355 O383 2.053 . S
C356 O353 1.259 . S
C356 O357 1.254 . S
O357 Zn355 2.046 . S
O357 C356 1.254 . S
C358 O379 1.258 . S
C358 O380 1.244 . S
O359 Zn355 2.055 . S
O359 C381 1.259 . S
O360 Zn352 2.046 . S
O360 C381 1.254 . S
N361 Zn355 2.036 . S
N361 C362 1.298 1_545 S
N361 N364 1.398 . S
C362 N361 1.298 1_565 S
C362 N365 1.367 . S
C362 C375 1.481 . S
C363 N364 1.299 1_565 S
C363 N365 1.379 . S
N364 N361 1.398 . S
N364 C363 1.299 1_545 S
N365 C362 1.367 . S
N365 C363 1.379 . S
C366 N368 1.298 . S
C366 N370 1.367 . S
C366 C374 1.481 . S
C367 N369 1.299 . S
C367 N370 1.379 . S
N368 Zn352 2.036 . S
N368 C366 1.298 . S
N368 N369 1.398 . S
N369 C367 1.299 . S
N369 N368 1.398 . S
N370 C366 1.367 . S
N370 C367 1.379 . S
H371 C374 0.980 . S
H372 C374 0.981 . S
H373 C374 0.981 . S
C374 C366 1.481 . S
C374 H371 0.980 . S
C374 H372 0.981 . S
C374 H373 0.981 . S
C375 C362 1.481 . S
C375 H376 0.980 1_565 S
C375 H377 0.981 . S
C375 H378 0.981 . S
H376 C375 0.980 1_545 S
H377 C375 0.981 . S
H378 C375 0.981 . S
O379 Zn355 2.085 . S
O379 C358 1.258 . S
O380 Zn352 2.053 . S
O380 C358 1.244 . S
C381 O359 1.259 . S
C381 O360 1.254 . S
O382 Zn352 2.066 . S
O382 C354 1.256 . S
O383 C354 1.244 . S
O383 Zn355 2.053 . S
Zn384 O385 2.055 . S
Zn384 O392 2.046 . S
Zn384 N400 2.036 . S
Zn384 O412 2.053 . S
Zn384 O414 2.085 . S
O385 Zn384 2.055 . S
O385 C388 1.259 . S
C386 O414 1.258 . S
C386 O415 1.244 . S
Zn387 O389 2.046 . S
Zn387 O391 2.055 . S
Zn387 N393 2.036 . S
Zn387 O411 2.066 . S
Zn387 O415 2.053 . S
C388 O385 1.259 . S
C388 O389 1.254 . S
O389 Zn387 2.046 . S
O389 C388 1.254 . S
C390 O411 1.256 . S
C390 O412 1.244 . S
O391 Zn387 2.055 . S
O391 C413 1.259 . S
O392 Zn384 2.046 . S
O392 C413 1.254 . S
N393 Zn387 2.036 . S
N393 C394 1.298 . S
N393 N396 1.398 . S
C394 N393 1.298 . S
C394 N397 1.367 . S
C394 C407 1.481 . S
C395 N396 1.299 . S
C395 N397 1.379 . S
N396 N393 1.398 . S
N396 C395 1.299 . S
N397 C394 1.367 . S
N397 C395 1.379 . S
C398 N400 1.298 1_455 S
C398 N402 1.367 . S
C398 C406 1.481 . S
C399 N401 1.299 1_455 S
C399 N402 1.379 . S
N400 Zn384 2.036 . S
N400 C398 1.298 1_655 S
N400 N401 1.398 . S
N401 C399 1.299 1_655 S
N401 N400 1.398 . S
N402 C398 1.367 . S
N402 C399 1.379 . S
H403 C406 0.980 1_655 S
H404 C406 0.981 . S
H405 C406 0.981 . S
C406 C398 1.481 . S
C406 H403 0.980 1_455 S
C406 H404 0.981 . S
C406 H405 0.981 . S
C407 C394 1.481 . S
C407 H408 0.980 . S
C407 H409 0.981 . S
C407 H410 0.981 . S
H408 C407 0.980 . S
H409 C407 0.981 . S
H410 C407 0.981 . S
O411 Zn387 2.066 . S
O411 C390 1.256 . S
O412 Zn384 2.053 . S
O412 C390 1.244 . S
C413 O391 1.259 . S
C413 O392 1.254 . S
O414 Zn384 2.085 . S
O414 C386 1.258 . S
O415 C386 1.244 . S
O415 Zn387 2.053 . S
Zn416 O417 2.055 . S
Zn416 O424 2.046 . S
Zn416 N432 2.036 . S
Zn416 O444 2.053 . S
Zn416 O446 2.066 . S
O417 Zn416 2.055 . S
O417 C420 1.259 . S
C418 O446 1.256 . S
C418 O447 1.244 . S
Zn419 O421 2.046 . S
Zn419 O423 2.055 . S
Zn419 N425 2.036 . S
Zn419 O443 2.085 . S
Zn419 O447 2.053 . S
C420 O417 1.259 . S
C420 O421 1.254 . S
O421 Zn419 2.046 . S
O421 C420 1.254 . S
C422 O443 1.258 . S
C422 O444 1.244 . S
O423 Zn419 2.055 . S
O423 C445 1.259 . S
O424 Zn416 2.046 . S
O424 C445 1.254 . S
N425 Zn419 2.036 . S
N425 C426 1.298 1_565 S
N425 N428 1.398 . S
C426 N425 1.298 1_545 S
C426 N429 1.367 . S
C426 C439 1.481 . S
C427 N428 1.299 1_545 S
C427 N429 1.379 . S
N428 N425 1.398 . S
N428 C427 1.299 1_565 S
N429 C426 1.367 . S
N429 C427 1.379 . S
C430 N432 1.298 . S
C430 N434 1.367 . S
C430 C438 1.481 . S
C431 N433 1.299 . S
C431 N434 1.379 . S
N432 Zn416 2.036 . S
N432 C430 1.298 . S
N432 N433 1.398 . S
N433 C431 1.299 . S
N433 N432 1.398 . S
N434 C430 1.367 . S
N434 C431 1.379 . S
H435 C438 0.980 . S
H436 C438 0.981 . S
H437 C438 0.981 . S
C438 C430 1.481 . S
C438 H435 0.980 . S
C438 H436 0.981 . S
C438 H437 0.981 . S
C439 C426 1.481 . S
C439 H440 0.980 1_545 S
C439 H441 0.981 . S
C439 H442 0.981 . S
H440 C439 0.980 1_565 S
H441 C439 0.981 . S
H442 C439 0.981 . S
O443 Zn419 2.085 . S
O443 C422 1.258 . S
O444 Zn416 2.053 . S
O444 C422 1.244 . S
C445 O423 1.259 . S
C445 O424 1.254 . S
O446 Zn416 2.066 . S
O446 C418 1.256 . S
O447 C418 1.244 . S
O447 Zn419 2.053 . S
Zn448 O449 2.055 . S
Zn448 O456 2.046 . S
Zn448 N464 2.036 . S
Zn448 O476 2.053 . S
Zn448 O478 2.066 . S
O449 Zn448 2.055 . S
O449 C452 1.259 . S
C450 O478 1.256 . S
C450 O479 1.244 . S
Zn451 O453 2.046 . S
Zn451 O455 2.055 . S
Zn451 N457 2.036 . S
Zn451 O475 2.066 . S
Zn451 O479 2.053 . S
C452 O449 1.259 . S
C452 O453 1.254 . S
O453 Zn451 2.046 . S
O453 C452 1.254 . S
C454 O475 1.256 . S
C454 O476 1.244 . S
O455 Zn451 2.055 . S
O455 C477 1.259 . S
O456 Zn448 2.046 . S
O456 C477 1.254 . S
N457 Zn451 2.036 . S
N457 C458 1.298 . S
N457 N460 1.398 . S
C458 N457 1.298 . S
C458 N461 1.367 . S
C458 C471 1.481 . S
C459 N460 1.299 . S
C459 N461 1.379 . S
N460 N457 1.398 . S
N460 C459 1.299 . S
N461 C458 1.367 . S
N461 C459 1.379 . S
C462 N464 1.298 . S
C462 N466 1.367 . S
C462 C470 1.481 . S
C463 N465 1.299 . S
C463 N466 1.379 . S
N464 Zn448 2.036 . S
N464 C462 1.298 . S
N464 N465 1.398 . S
N465 C463 1.299 . S
N465 N464 1.398 . S
N466 C462 1.367 . S
N466 C463 1.379 . S
H467 C470 0.980 . S
H468 C470 0.981 . S
H469 C470 0.981 . S
C470 C462 1.481 . S
C470 H467 0.980 . S
C470 H468 0.981 . S
C470 H469 0.981 . S
C471 C458 1.481 . S
C471 H472 0.980 . S
C471 H473 0.981 . S
C471 H474 0.981 . S
H472 C471 0.980 . S
H473 C471 0.981 . S
H474 C471 0.981 . S
O475 Zn451 2.066 . S
O475 C454 1.256 . S
O476 Zn448 2.053 . S
O476 C454 1.244 . S
C477 O455 1.259 . S
C477 O456 1.254 . S
O478 Zn448 2.066 . S
O478 C450 1.256 . S
O479 C450 1.244 . S
O479 Zn451 2.053 . S
Zn480 O481 2.055 . S
Zn480 O488 2.046 . S
Zn480 N496 2.036 . S
Zn480 O508 2.053 . S
Zn480 O510 2.066 . S
O481 Zn480 2.055 . S
O481 C484 1.259 . S
C482 O510 1.256 . S
C482 O511 1.244 . S
Zn483 O485 2.046 . S
Zn483 O487 2.055 . S
Zn483 N489 2.036 . S
Zn483 O507 2.066 . S
Zn483 O511 2.053 . S
C484 O481 1.259 . S
C484 O485 1.254 . S
O485 Zn483 2.046 . S
O485 C484 1.254 . S
C486 O507 1.256 . S
C486 O508 1.244 . S
O487 Zn483 2.055 . S
O487 C509 1.259 . S
O488 Zn480 2.046 . S
O488 C509 1.254 . S
N489 Zn483 2.036 . S
N489 C490 1.298 . S
N489 N492 1.398 . S
C490 N489 1.298 . S
C490 N493 1.367 . S
C490 C503 1.481 . S
C491 N492 1.299 . S
C491 N493 1.379 . S
N492 N489 1.398 . S
N492 C491 1.299 . S
N493 C490 1.367 . S
N493 C491 1.379 . S
C494 N496 1.298 . S
C494 N498 1.367 . S
C494 C502 1.481 . S
C495 N497 1.299 . S
C495 N498 1.379 . S
N496 Zn480 2.036 . S
N496 C494 1.298 . S
N496 N497 1.398 . S
N497 C495 1.299 . S
N497 N496 1.398 . S
N498 C494 1.367 . S
N498 C495 1.379 . S
H499 C502 0.980 . S
H500 C502 0.981 . S
H501 C502 0.981 . S
C502 C494 1.481 . S
C502 H499 0.980 . S
C502 H500 0.981 . S
C502 H501 0.981 . S
C503 C490 1.481 . S
C503 H504 0.980 . S
C503 H505 0.981 . S
C503 H506 0.981 . S
H504 C503 0.980 . S
H505 C503 0.981 . S
H506 C503 0.981 . S
O507 Zn483 2.066 . S
O507 C486 1.256 . S
O508 Zn480 2.053 . S
O508 C486 1.244 . S
C509 O487 1.259 . S
C509 O488 1.254 . S
O510 Zn480 2.066 . S
O510 C482 1.256 . S
O511 C482 1.244 . S
O511 Zn483 2.053 . S
C512 C513 1.363 . S
C512 C518 1.379 . S
C512 N520 1.356 . S
C513 C512 1.363 . S
C513 C519 1.363 . S
C514 C515 1.363 . S
C514 C519 1.379 . S
C514 N521 1.356 . S
C515 C514 1.363 . S
C515 C518 1.363 . S
N516 C518 1.356 . S
N516 H528 0.984 . S
N516 H529 0.985 . S
N517 C519 1.356 . S
N517 H522 0.984 . S
N517 H523 0.985 . S
C518 C512 1.379 . S
C518 C515 1.363 . S
C518 N516 1.356 . S
C519 C513 1.363 . S
C519 C514 1.379 . S
C519 N517 1.356 . S
N520 C512 1.356 . S
N520 H526 0.984 . S
N520 H527 0.984 . S
N521 C514 1.356 . S
N521 H524 0.984 . S
N521 H525 0.985 . S
H522 N517 0.984 . S
H523 N517 0.985 . S
H524 N521 0.984 . S
H525 N521 0.985 . S
H526 N520 0.984 . S
H527 N520 0.984 . S
H528 N516 0.984 . S
H529 N516 0.985 . S
C530 C531 1.363 . S
C530 C536 1.379 . S
C530 N538 1.356 . S
C531 C530 1.363 . S
C531 C537 1.363 . S
C532 C533 1.363 . S
C532 C537 1.379 . S
C532 N539 1.356 . S
C533 C532 1.363 . S
C533 C536 1.363 . S
N534 C536 1.356 . S
N534 H546 0.984 . S
N534 H547 0.985 . S
N535 C537 1.356 . S
N535 H540 0.984 . S
N535 H541 0.985 . S
C536 C530 1.379 . S
C536 C533 1.363 . S
C536 N534 1.356 . S
C537 C531 1.363 . S
C537 C532 1.379 . S
C537 N535 1.356 . S
N538 C530 1.356 . S
N538 H544 0.984 . S
N538 H545 0.984 . S
N539 C532 1.356 . S
N539 H542 0.984 . S
N539 H543 0.985 . S
H540 N535 0.984 . S
H541 N535 0.985 . S
H542 N539 0.984 . S
H543 N539 0.985 . S
H544 N538 0.984 . S
H545 N538 0.984 . S
H546 N534 0.984 . S
H547 N534 0.985 . S
C548 C549 1.363 . S
C548 C554 1.379 . S
C548 N556 1.356 . S
C549 C548 1.363 . S
C549 C555 1.363 . S
C550 C551 1.363 . S
C550 C555 1.379 . S
C550 N557 1.356 . S
C551 C550 1.363 . S
C551 C554 1.363 . S
N552 C554 1.356 . S
N552 H564 0.984 . S
N552 H565 0.985 . S
N553 C555 1.356 . S
N553 H558 0.984 . S
N553 H559 0.985 . S
C554 C548 1.379 . S
C554 C551 1.363 . S
C554 N552 1.356 . S
C555 C549 1.363 . S
C555 C550 1.379 . S
C555 N553 1.356 . S
N556 C548 1.356 . S
N556 H562 0.984 . S
N556 H563 0.984 . S
N557 C550 1.356 . S
N557 H560 0.984 . S
N557 H561 0.985 . S
H558 N553 0.984 . S
H559 N553 0.985 . S
H560 N557 0.984 . S
H561 N557 0.985 . S
H562 N556 0.984 . S
H563 N556 0.984 . S
H564 N552 0.984 . S
H565 N552 0.985 . S
C566 C567 1.363 . S
C566 C572 1.379 . S
C566 N574 1.356 . S
C567 C566 1.363 . S
C567 C573 1.363 . S
C568 C569 1.363 . S
C568 C573 1.379 . S
C568 N575 1.356 . S
C569 C568 1.363 . S
C569 C572 1.363 . S
N570 C572 1.356 . S
N570 H582 0.984 . S
N570 H583 0.985 . S
N571 C573 1.356 . S
N571 H576 0.984 . S
N571 H577 0.985 . S
C572 C566 1.379 . S
C572 C569 1.363 . S
C572 N570 1.356 . S
C573 C567 1.363 . S
C573 C568 1.379 . S
C573 N571 1.356 . S
N574 C566 1.356 . S
N574 H580 0.984 . S
N574 H581 0.984 . S
N575 C568 1.356 . S
N575 H578 0.984 . S
N575 H579 0.985 . S
H576 N571 0.984 . S
H577 N571 0.985 . S
H578 N575 0.984 . S
H579 N575 0.985 . S
H580 N574 0.984 . S
H581 N574 0.984 . S
H582 N570 0.984 . S
H583 N570 0.985 . S
C584 C585 1.363 . S
C584 C590 1.379 . S
C584 N592 1.356 . S
C585 C584 1.363 . S
C585 C591 1.363 . S
C586 C587 1.363 . S
C586 C591 1.379 . S
C586 N593 1.356 . S
C587 C586 1.363 . S
C587 C590 1.363 . S
N588 C590 1.356 . S
N588 H600 0.984 . S
N588 H601 0.985 . S
N589 C591 1.356 . S
N589 H594 0.984 . S
N589 H595 0.985 1_565 S
C590 C584 1.379 . S
C590 C587 1.363 . S
C590 N588 1.356 . S
C591 C585 1.363 . S
C591 C586 1.379 . S
C591 N589 1.356 . S
N592 C584 1.356 . S
N592 H598 0.984 . S
N592 H599 0.984 . S
N593 C586 1.356 . S
N593 H596 0.984 . S
N593 H597 0.985 . S
H594 N589 0.984 . S
H595 N589 0.985 1_545 S
H596 N593 0.984 . S
H597 N593 0.985 . S
H598 N592 0.984 . S
H599 N592 0.984 . S
H600 N588 0.984 . S
H601 N588 0.985 . S
C602 C603 1.363 . S
C602 C608 1.379 . S
C602 N610 1.356 . S
C603 C602 1.363 . S
C603 C609 1.363 . S
C604 C605 1.363 . S
C604 C609 1.379 . S
C604 N611 1.356 . S
C605 C604 1.363 . S
C605 C608 1.363 . S
N606 C608 1.356 . S
N606 H618 0.984 . S
N606 H619 0.985 . S
N607 C609 1.356 . S
N607 H612 0.984 . S
N607 H613 0.985 . S
C608 C602 1.379 . S
C608 C605 1.363 . S
C608 N606 1.356 . S
C609 C603 1.363 . S
C609 C604 1.379 . S
C609 N607 1.356 . S
N610 C602 1.356 . S
N610 H616 0.984 . S
N610 H617 0.984 . S
N611 C604 1.356 . S
N611 H614 0.984 . S
N611 H615 0.985 . S
H612 N607 0.984 . S
H613 N607 0.985 . S
H614 N611 0.984 . S
H615 N611 0.985 . S
H616 N610 0.984 . S
H617 N610 0.984 . S
H618 N606 0.984 . S
H619 N606 0.985 . S
C620 C621 1.363 . S
C620 C626 1.379 . S
C620 N628 1.356 . S
C621 C620 1.363 . S
C621 C627 1.363 . S
C622 C623 1.363 . S
C622 C627 1.379 . S
C622 N629 1.356 . S
C623 C622 1.363 . S
C623 C626 1.363 . S
N624 C626 1.356 . S
N624 H636 0.984 . S
N624 H637 0.985 . S
N625 C627 1.356 . S
N625 H630 0.984 . S
N625 H631 0.985 . S
C626 C620 1.379 . S
C626 C623 1.363 . S
C626 N624 1.356 . S
C627 C621 1.363 . S
C627 C622 1.379 . S
C627 N625 1.356 . S
N628 C620 1.356 . S
N628 H634 0.984 . S
N628 H635 0.984 . S
N629 C622 1.356 . S
N629 H632 0.984 . S
N629 H633 0.985 . S
H630 N625 0.984 . S
H631 N625 0.985 . S
H632 N629 0.984 . S
H633 N629 0.985 . S
H634 N628 0.984 . S
H635 N628 0.984 . S
H636 N624 0.984 . S
H637 N624 0.985 . S
C638 C639 1.363 . S
C638 C644 1.379 . S
C638 N646 1.356 . S
C639 C638 1.363 . S
C639 C645 1.363 . S
C640 C641 1.363 . S
C640 C645 1.379 . S
C640 N647 1.356 . S
C641 C640 1.363 . S
C641 C644 1.363 . S
N642 C644 1.356 . S
N642 H654 0.984 . S
N642 H655 0.985 . S
N643 C645 1.356 . S
N643 H648 0.984 . S
N643 H649 0.985 . S
C644 C638 1.379 . S
C644 C641 1.363 . S
C644 N642 1.356 . S
C645 C639 1.363 . S
C645 C640 1.379 . S
C645 N643 1.356 . S
N646 C638 1.356 . S
N646 H652 0.984 . S
N646 H653 0.984 . S
N647 C640 1.356 . S
N647 H650 0.984 . S
N647 H651 0.985 . S
H648 N643 0.984 . S
H649 N643 0.985 . S
H650 N647 0.984 . S
H651 N647 0.985 . S
H652 N646 0.984 . S
H653 N646 0.984 . S
H654 N642 0.984 . S
H655 N642 0.985 . S
C656 C657 1.363 . S
C656 C662 1.379 . S
C656 N664 1.356 . S
C657 C656 1.363 . S
C657 C663 1.363 . S
C658 C659 1.363 . S
C658 C663 1.379 . S
C658 N665 1.356 . S
C659 C658 1.363 . S
C659 C662 1.363 . S
N660 C662 1.356 . S
N660 H672 0.984 . S
N660 H673 0.985 . S
N661 C663 1.356 . S
N661 H666 0.984 . S
N661 H667 0.985 . S
C662 C656 1.379 . S
C662 C659 1.363 . S
C662 N660 1.356 . S
C663 C657 1.363 . S
C663 C658 1.379 . S
C663 N661 1.356 . S
N664 C656 1.356 . S
N664 H670 0.984 . S
N664 H671 0.984 . S
N665 C658 1.356 . S
N665 H668 0.984 . S
N665 H669 0.985 1_545 S
H666 N661 0.984 . S
H667 N661 0.985 . S
H668 N665 0.984 . S
H669 N665 0.985 1_565 S
H670 N664 0.984 . S
H671 N664 0.984 . S
H672 N660 0.984 . S
H673 N660 0.985 . S
C674 C675 1.363 . S
C674 C680 1.379 . S
C674 N682 1.356 . S
C675 C674 1.363 . S
C675 C681 1.363 . S
C676 C677 1.363 . S
C676 C681 1.379 . S
C676 N683 1.356 . S
C677 C676 1.363 . S
C677 C680 1.363 . S
N678 C680 1.356 . S
N678 H690 0.984 . S
N678 H691 0.985 . S
N679 C681 1.356 . S
N679 H684 0.984 . S
N679 H685 0.985 . S
C680 C674 1.379 . S
C680 C677 1.363 . S
C680 N678 1.356 . S
C681 C675 1.363 . S
C681 C676 1.379 . S
C681 N679 1.356 . S
N682 C674 1.356 . S
N682 H688 0.984 . S
N682 H689 0.984 . S
N683 C676 1.356 . S
N683 H686 0.984 . S
N683 H687 0.985 . S
H684 N679 0.984 . S
H685 N679 0.985 . S
H686 N683 0.984 . S
H687 N683 0.985 . S
H688 N682 0.984 . S
H689 N682 0.984 . S
H690 N678 0.984 . S
H691 N678 0.985 . S
C692 C693 1.363 . S
C692 C698 1.379 . S
C692 N700 1.356 . S
C693 C692 1.363 . S
C693 C699 1.363 . S
C694 C695 1.363 . S
C694 C699 1.379 . S
C694 N701 1.356 . S
C695 C694 1.363 . S
C695 C698 1.363 . S
N696 C698 1.356 . S
N696 H708 0.984 . S
N696 H709 0.985 . S
N697 C699 1.341 1_655 S
N697 H702 0.992 . S
N697 H703 0.992 . S
C698 C692 1.379 . S
C698 C695 1.363 . S
C698 N696 1.356 . S
C699 C693 1.363 . S
C699 C694 1.379 . S
C699 N697 1.341 1_455 S
N700 C692 1.356 . S
N700 H706 0.984 . S
N700 H707 0.984 . S
N701 C694 1.356 . S
N701 H704 0.984 . S
N701 H705 0.985 . S
H702 N697 0.992 . S
H703 N697 0.992 . S
H704 N701 0.984 . S
H705 N701 0.985 . S
H706 N700 0.984 . S
H707 N700 0.984 . S
H708 N696 0.984 . S
H709 N696 0.985 . S
C710 C711 1.363 . S
C710 C716 1.379 . S
C710 N718 1.356 . S
C711 C710 1.363 . S
C711 C717 1.363 . S
C712 C713 1.363 . S
C712 C717 1.379 . S
C712 N719 1.356 . S
C713 C712 1.363 . S
C713 C716 1.363 . S
N714 C716 1.356 . S
N714 H726 0.984 . S
N714 H727 0.985 . S
N715 C717 1.356 . S
N715 H720 0.984 . S
N715 H721 0.985 . S
C716 C710 1.379 . S
C716 C713 1.363 . S
C716 N714 1.356 . S
C717 C711 1.363 . S
C717 C712 1.379 . S
C717 N715 1.356 . S
N718 C710 1.356 . S
N718 H724 0.984 . S
N718 H725 0.984 . S
N719 C712 1.356 . S
N719 H722 0.984 . S
N719 H723 0.985 1_455 S
H720 N715 0.984 . S
H721 N715 0.985 . S
H722 N719 0.984 . S
H723 N719 0.985 1_655 S
H724 N718 0.984 . S
H725 N718 0.984 . S
H726 N714 0.984 . S
H727 N714 0.985 . S
C728 C729 1.363 . S
C728 C734 1.379 . S
C728 N736 1.356 . S
C729 C728 1.363 . S
C729 C735 1.363 . S
C730 C731 1.363 . S
C730 C735 1.379 . S
C730 N737 1.356 . S
C731 C730 1.363 . S
C731 C734 1.363 . S
N732 C734 1.356 . S
N732 H744 0.984 . S
N732 H745 0.985 . S
N733 C735 1.356 . S
N733 H738 0.984 . S
N733 H739 0.985 . S
C734 C728 1.379 . S
C734 C731 1.363 . S
C734 N732 1.356 . S
C735 C729 1.363 . S
C735 C730 1.379 . S
C735 N733 1.356 . S
N736 C728 1.356 . S
N736 H742 0.984 . S
N736 H743 0.984 . S
N737 C730 1.356 . S
N737 H740 0.984 . S
N737 H741 0.985 . S
H738 N733 0.984 . S
H739 N733 0.985 . S
H740 N737 0.984 . S
H741 N737 0.985 . S
H742 N736 0.984 . S
H743 N736 0.984 . S
H744 N732 0.984 . S
H745 N732 0.985 . S
C746 C747 1.363 . S
C746 C752 1.379 . S
C746 N754 1.356 . S
C747 C746 1.363 . S
C747 C753 1.363 . S
C748 C749 1.363 . S
C748 C753 1.379 . S
C748 N755 1.356 1_565 S
C749 C748 1.363 . S
C749 C752 1.363 . S
N750 C752 1.356 . S
N750 H762 0.984 . S
N750 H763 0.985 . S
N751 C753 1.356 . S
N751 H756 0.984 . S
N751 H757 0.985 . S
C752 C746 1.379 . S
C752 C749 1.363 . S
C752 N750 1.356 . S
C753 C747 1.363 . S
C753 C748 1.379 . S
C753 N751 1.356 . S
N754 C746 1.356 . S
N754 H760 0.984 . S
N754 H761 0.984 . S
N755 C748 1.356 1_545 S
N755 H758 0.984 . S
N755 H759 0.985 . S
H756 N751 0.984 . S
H757 N751 0.985 . S
H758 N755 0.984 . S
H759 N755 0.985 . S
H760 N754 0.984 . S
H761 N754 0.984 . S
H762 N750 0.984 . S
H763 N750 0.985 . S
C764 C765 1.363 . S
C764 C770 1.379 . S
C764 N772 1.356 . S
C765 C764 1.363 . S
C765 C771 1.363 . S
C766 C767 1.363 . S
C766 C771 1.379 . S
C766 N773 1.356 . S
C767 C766 1.363 . S
C767 C770 1.363 . S
N768 C770 1.356 . S
N768 H780 0.984 . S
N768 H781 0.985 . S
N769 C771 1.356 . S
N769 H774 0.984 . S
N769 H775 0.985 . S
C770 C764 1.379 . S
C770 C767 1.363 . S
C770 N768 1.356 . S
C771 C765 1.363 . S
C771 C766 1.379 . S
C771 N769 1.356 . S
N772 C764 1.356 . S
N772 H778 0.984 . S
N772 H779 0.984 . S
N773 C766 1.356 . S
N773 H776 0.984 . S
N773 H777 0.985 . S
H774 N769 0.984 . S
H775 N769 0.985 . S
H776 N773 0.984 . S
H777 N773 0.985 . S
H778 N772 0.984 . S
H779 N772 0.984 . S
H780 N768 0.984 . S
H781 N768 0.985 . S
C782 C783 1.363 . S
C782 C788 1.379 . S
C782 N790 1.356 . S
C783 C782 1.363 . S
C783 C789 1.363 . S
C784 C785 1.363 . S
C784 C789 1.379 . S
C784 N791 1.356 . S
C785 C784 1.363 . S
C785 C788 1.363 . S
N786 C788 1.356 . S
N786 H798 0.984 . S
N786 H799 0.985 . S
N787 C789 1.356 . S
N787 H792 0.984 . S
N787 H793 0.985 . S
C788 C782 1.379 . S
C788 C785 1.363 . S
C788 N786 1.356 . S
C789 C783 1.363 . S
C789 C784 1.379 . S
C789 N787 1.356 . S
N790 C782 1.356 . S
N790 H796 0.984 1_655 S
N790 H797 0.984 . S
N791 C784 1.356 . S
N791 H794 0.984 . S
N791 H795 0.985 . S
H792 N787 0.984 . S
H793 N787 0.985 . S
H794 N791 0.984 . S
H795 N791 0.985 . S
H796 N790 0.984 1_455 S
H797 N790 0.984 . S
H798 N786 0.984 . S
H799 N786 0.985 . S
C800 C801 1.363 . S
C800 C806 1.379 . S
C800 N808 1.356 . S
C801 C800 1.363 . S
C801 C807 1.363 . S
C802 C803 1.363 . S
C802 C807 1.379 . S
C802 N809 1.356 . S
C803 C802 1.363 . S
C803 C806 1.363 . S
N804 C806 1.356 . S
N804 H816 0.984 . S
N804 H817 0.985 . S
N805 C807 1.356 . S
N805 H810 0.984 . S
N805 H811 0.985 1_565 S
C806 C800 1.379 . S
C806 C803 1.363 . S
C806 N804 1.356 . S
C807 C801 1.363 . S
C807 C802 1.379 . S
C807 N805 1.356 . S
N808 C800 1.356 . S
N808 H814 0.984 . S
N808 H815 0.984 . S
N809 C802 1.356 . S
N809 H812 0.984 . S
N809 H813 0.985 . S
H810 N805 0.984 . S
H811 N805 0.985 1_545 S
H812 N809 0.984 . S
H813 N809 0.985 . S
H814 N808 0.984 . S
H815 N808 0.984 . S
H816 N804 0.984 . S
H817 N804 0.985 . S
C818 C819 1.363 . S
C818 C824 1.379 . S
C818 N826 1.356 . S
C819 C818 1.363 . S
C819 C825 1.363 . S
C820 C821 1.363 . S
C820 C825 1.379 . S
C820 N827 1.356 . S
C821 C820 1.363 . S
C821 C824 1.363 . S
N822 C824 1.356 . S
N822 H834 0.984 . S
N822 H835 0.985 . S
N823 C825 1.356 . S
N823 H828 0.984 . S
N823 H829 0.985 . S
C824 C818 1.379 . S
C824 C821 1.363 . S
C824 N822 1.356 . S
C825 C819 1.363 . S
C825 C820 1.379 . S
C825 N823 1.356 . S
N826 C818 1.356 . S
N826 H832 0.984 . S
N826 H833 0.984 . S
N827 C820 1.356 . S
N827 H830 0.984 . S
N827 H831 0.985 . S
H828 N823 0.984 . S
H829 N823 0.985 . S
H830 N827 0.984 . S
H831 N827 0.985 . S
H832 N826 0.984 . S
H833 N826 0.984 . S
H834 N822 0.984 . S
H835 N822 0.985 . S
C836 C837 1.363 . S
C836 C842 1.379 . S
C836 N844 1.356 1_655 S
C837 C836 1.363 . S
C837 C843 1.363 . S
C838 C839 1.363 . S
C838 C843 1.379 . S
C838 N845 1.356 . S
C839 C838 1.363 . S
C839 C842 1.363 . S
N840 C842 1.356 . S
N840 H852 0.984 . S
N840 H853 0.985 . S
N841 C843 1.356 . S
N841 H846 0.984 . S
N841 H847 0.985 . S
C842 C836 1.379 . S
C842 C839 1.363 . S
C842 N840 1.356 . S
C843 C837 1.363 . S
C843 C838 1.379 . S
C843 N841 1.356 . S
N844 C836 1.356 1_455 S
N844 H850 0.984 . S
N844 H851 0.984 . S
N845 C838 1.356 . S
N845 H848 0.984 . S
N845 H849 0.985 . S
H846 N841 0.984 . S
H847 N841 0.985 . S
H848 N845 0.984 . S
H849 N845 0.985 . S
H850 N844 0.984 . S
H851 N844 0.984 . S
H852 N840 0.984 . S
H853 N840 0.985 . S
C854 C855 1.363 . S
C854 C860 1.379 . S
C854 N862 1.356 . S
C855 C854 1.363 . S
C855 C861 1.363 . S
C856 C857 1.363 . S
C856 C861 1.379 . S
C856 N863 1.356 . S
C857 C856 1.363 . S
C857 C860 1.363 . S
N858 C860 1.356 . S
N858 H870 0.984 . S
N858 H871 0.985 . S
N859 C861 1.356 . S
N859 H864 0.984 . S
N859 H865 0.985 . S
C860 C854 1.379 . S
C860 C857 1.363 . S
C860 N858 1.356 . S
C861 C855 1.363 . S
C861 C856 1.379 . S
C861 N859 1.356 . S
N862 C854 1.356 . S
N862 H868 0.984 . S
N862 H869 0.984 . S
N863 C856 1.356 . S
N863 H866 0.984 . S
N863 H867 0.985 . S
H864 N859 0.984 . S
H865 N859 0.985 . S
H866 N863 0.984 . S
H867 N863 0.985 . S
H868 N862 0.984 . S
H869 N862 0.984 . S
H870 N858 0.984 . S
H871 N858 0.985 . S
C872 C873 1.363 . S
C872 C878 1.379 . S
C872 N880 1.356 . S
C873 C872 1.363 . S
C873 C879 1.363 . S
C874 C875 1.363 . S
C874 C879 1.379 . S
C874 N881 1.356 . S
C875 C874 1.363 . S
C875 C878 1.363 . S
N876 C878 1.356 . S
N876 H888 0.984 . S
N876 H889 0.985 . S
N877 C879 1.356 . S
N877 H882 0.984 . S
N877 H883 0.985 . S
C878 C872 1.379 . S
C878 C875 1.363 . S
C878 N876 1.356 . S
C879 C873 1.363 . S
C879 C874 1.379 . S
C879 N877 1.356 . S
N880 C872 1.356 . S
N880 H886 0.984 1_455 S
N880 H887 0.984 1_455 S
N881 C874 1.356 . S
N881 H884 0.984 . S
N881 H885 0.985 . S
H882 N877 0.984 . S
H883 N877 0.985 . S
H884 N881 0.984 . S
H885 N881 0.985 . S
H886 N880 0.984 1_655 S
H887 N880 0.984 1_655 S
H888 N876 0.984 . S
H889 N876 0.985 . S
C890 C891 1.363 . S
C890 C896 1.379 . S
C890 N898 1.356 . S
C891 C890 1.363 . S
C891 C897 1.363 . S
C892 C893 1.363 . S
C892 C897 1.379 . S
C892 N899 1.356 . S
C893 C892 1.363 . S
C893 C896 1.363 . S
N894 C896 1.356 . S
N894 H906 0.984 . S
N894 H907 0.985 . S
N895 C897 1.356 1_565 S
N895 H900 0.984 . S
N895 H901 0.985 . S
C896 C890 1.379 . S
C896 C893 1.363 . S
C896 N894 1.356 . S
C897 C891 1.363 . S
C897 C892 1.379 . S
C897 N895 1.356 1_545 S
N898 C890 1.356 . S
N898 H904 0.984 . S
N898 H905 0.984 . S
N899 C892 1.356 . S
N899 H902 0.984 . S
N899 H903 0.985 . S
H900 N895 0.984 . S
H901 N895 0.985 . S
H902 N899 0.984 . S
H903 N899 0.985 . S
H904 N898 0.984 . S
H905 N898 0.984 . S
H906 N894 0.984 . S
H907 N894 0.985 . S
C908 C909 1.363 . S
C908 C914 1.379 . S
C908 N916 1.356 . S
C909 C908 1.363 . S
C909 C915 1.363 . S
C910 C911 1.363 . S
C910 C915 1.379 . S
C910 N917 1.356 . S
C911 C910 1.363 . S
C911 C914 1.363 . S
N912 C914 1.356 . S
N912 H924 0.984 . S
N912 H925 0.985 . S
N913 C915 1.356 . S
N913 H918 0.984 . S
N913 H919 0.985 . S
C914 C908 1.379 . S
C914 C911 1.363 . S
C914 N912 1.356 . S
C915 C909 1.363 . S
C915 C910 1.379 . S
C915 N913 1.356 . S
N916 C908 1.356 . S
N916 H922 0.984 . S
N916 H923 0.984 . S
N917 C910 1.356 . S
N917 H920 0.984 . S
N917 H921 0.985 . S
H918 N913 0.984 . S
H919 N913 0.985 . S
H920 N917 0.984 . S
H921 N917 0.985 . S
H922 N916 0.984 . S
H923 N916 0.984 . S
H924 N912 0.984 . S
H925 N912 0.985 . S
C926 C927 1.363 . S
C926 C932 1.379 . S
C926 N934 1.356 . S
C927 C926 1.363 . S
C927 C933 1.363 . S
C928 C929 1.363 . S
C928 C933 1.379 . S
C928 N935 1.356 . S
C929 C928 1.363 . S
C929 C932 1.363 . S
N930 C932 1.356 . S
N930 H942 0.984 . S
N930 H943 0.985 . S
N931 C933 1.356 . S
N931 H936 0.984 . S
N931 H937 0.985 . S
C932 C926 1.379 . S
C932 C929 1.363 . S
C932 N930 1.356 . S
C933 C927 1.363 . S
C933 C928 1.379 . S
C933 N931 1.356 . S
N934 C926 1.356 . S
N934 H940 0.984 . S
N934 H941 0.984 . S
N935 C928 1.356 . S
N935 H938 0.984 . S
N935 H939 0.985 . S
H936 N931 0.984 . S
H937 N931 0.985 . S
H938 N935 0.984 . S
H939 N935 0.985 . S
H940 N934 0.984 . S
H941 N934 0.984 . S
H942 N930 0.984 . S
H943 N930 0.985 . S
C944 C945 1.363 . S
C944 C950 1.379 . S
C944 N952 1.356 . S
C945 C944 1.363 . S
C945 C951 1.363 . S
C946 C947 1.363 . S
C946 C951 1.379 . S
C946 N953 1.356 . S
C947 C946 1.363 . S
C947 C950 1.363 . S
N948 C950 1.356 . S
N948 H960 0.984 . S
N948 H961 0.985 . S
N949 C951 1.356 . S
N949 H954 0.984 . S
N949 H955 0.985 . S
C950 C944 1.379 . S
C950 C947 1.363 . S
C950 N948 1.356 . S
C951 C945 1.363 . S
C951 C946 1.379 . S
C951 N949 1.356 . S
N952 C944 1.356 . S
N952 H958 0.984 . S
N952 H959 0.984 . S
N953 C946 1.356 . S
N953 H956 0.984 . S
N953 H957 0.985 . S
H954 N949 0.984 . S
H955 N949 0.985 . S
H956 N953 0.984 . S
H957 N953 0.985 . S
H958 N952 0.984 . S
H959 N952 0.984 . S
H960 N948 0.984 . S
H961 N948 0.985 . S
C962 C963 1.363 . S
C962 C968 1.379 . S
C962 N970 1.356 . S
C963 C962 1.363 . S
C963 C969 1.363 . S
C964 C965 1.363 . S
C964 C969 1.379 . S
C964 N971 1.356 . S
C965 C964 1.363 . S
C965 C968 1.363 . S
N966 C968 1.356 . S
N966 H978 0.984 . S
N966 H979 0.985 . S
N967 C969 1.356 . S
N967 H972 0.984 . S
N967 H973 0.985 . S
C968 C962 1.379 . S
C968 C965 1.363 . S
C968 N966 1.356 . S
C969 C963 1.363 . S
C969 C964 1.379 . S
C969 N967 1.356 . S
N970 C962 1.356 . S
N970 H976 0.984 . S
N970 H977 0.984 . S
N971 C964 1.356 . S
N971 H974 0.984 . S
N971 H975 0.985 . S
H972 N967 0.984 . S
H973 N967 0.985 . S
H974 N971 0.984 . S
H975 N971 0.985 . S
H976 N970 0.984 . S
H977 N970 0.984 . S
H978 N966 0.984 . S
H979 N966 0.985 . S
C980 C981 1.363 . S
C980 C986 1.379 . S
C980 N988 1.356 . S
C981 C980 1.363 . S
C981 C987 1.363 . S
C982 C983 1.363 . S
C982 C987 1.379 . S
C982 N989 1.356 . S
C983 C982 1.363 . S
C983 C986 1.363 . S
N984 C986 1.356 . S
N984 H996 0.984 . S
N984 H997 0.985 . S
N985 C987 1.356 . S
N985 H990 0.984 . S
N985 H991 0.985 . S
C986 C980 1.379 . S
C986 C983 1.363 . S
C986 N984 1.356 . S
C987 C981 1.363 . S
C987 C982 1.379 . S
C987 N985 1.356 . S
N988 C980 1.356 . S
N988 H994 0.984 . S
N988 H995 0.984 . S
N989 C982 1.356 . S
N989 H992 0.984 . S
N989 H993 0.985 . S
H990 N985 0.984 . S
H991 N985 0.985 . S
H992 N989 0.984 . S
H993 N989 0.985 . S
H994 N988 0.984 . S
H995 N988 0.984 . S
H996 N984 0.984 . S
H997 N984 0.985 . S
C998 C999 1.363 . S
C998 C1004 1.379 . S
C998 N1006 1.356 . S
C999 C998 1.363 . S
C999 C1005 1.363 . S
C1000 C1001 1.363 . S
C1000 C1005 1.379 . S
C1000 N1007 1.356 . S
C1001 C1000 1.363 . S
C1001 C1004 1.363 . S
N1002 C1004 1.356 . S
N1002 H1014 0.984 . S
N1002 H1015 0.985 . S
N1003 C1005 1.356 . S
N1003 H1008 0.984 . S
N1003 H1009 0.985 . S
C1004 C998 1.379 . S
C1004 C1001 1.363 . S
C1004 N1002 1.356 . S
C1005 C999 1.363 . S
C1005 C1000 1.379 . S
C1005 N1003 1.356 . S
N1006 C998 1.356 . S
N1006 H1012 0.984 . S
N1006 H1013 0.984 . S
N1007 C1000 1.356 . S
N1007 H1010 0.984 . S
N1007 H1011 0.985 . S
H1008 N1003 0.984 . S
H1009 N1003 0.985 . S
H1010 N1007 0.984 . S
H1011 N1007 0.985 . S
H1012 N1006 0.984 . S
H1013 N1006 0.984 . S
H1014 N1002 0.984 . S
H1015 N1002 0.985 . S
C1016 C1017 1.363 . S
C1016 C1022 1.379 . S
C1016 N1024 1.356 . S
C1017 C1016 1.363 . S
C1017 C1023 1.363 . S
C1018 C1019 1.363 . S
C1018 C1023 1.379 . S
C1018 N1025 1.356 . S
C1019 C1018 1.363 . S
C1019 C1022 1.363 . S
N1020 C1022 1.356 . S
N1020 H1032 0.984 . S
N1020 H1033 0.985 . S
N1021 C1023 1.356 . S
N1021 H1026 0.984 . S
N1021 H1027 0.985 . S
C1022 C1016 1.379 . S
C1022 C1019 1.363 . S
C1022 N1020 1.356 . S
C1023 C1017 1.363 . S
C1023 C1018 1.379 . S
C1023 N1021 1.356 . S
N1024 C1016 1.356 . S
N1024 H1030 0.984 . S
N1024 H1031 0.984 . S
N1025 C1018 1.356 . S
N1025 H1028 0.984 . S
N1025 H1029 0.985 . S
H1026 N1021 0.984 . S
H1027 N1021 0.985 . S
H1028 N1025 0.984 . S
H1029 N1025 0.985 . S
H1030 N1024 0.984 . S
H1031 N1024 0.984 . S
H1032 N1020 0.984 . S
H1033 N1020 0.985 . S
C1034 C1035 1.363 . S
C1034 C1040 1.379 . S
C1034 N1042 1.356 . S
C1035 C1034 1.363 . S
C1035 C1041 1.363 . S
C1036 C1037 1.363 . S
C1036 C1041 1.379 . S
C1036 N1043 1.356 . S
C1037 C1036 1.363 . S
C1037 C1040 1.363 . S
N1038 C1040 1.356 . S
N1038 H1050 0.984 . S
N1038 H1051 0.985 . S
N1039 C1041 1.356 . S
N1039 H1044 0.984 . S
N1039 H1045 0.985 . S
C1040 C1034 1.379 . S
C1040 C1037 1.363 . S
C1040 N1038 1.356 . S
C1041 C1035 1.363 . S
C1041 C1036 1.379 . S
C1041 N1039 1.356 . S
N1042 C1034 1.356 . S
N1042 H1048 0.984 . S
N1042 H1049 0.984 . S
N1043 C1036 1.356 . S
N1043 H1046 0.984 . S
N1043 H1047 0.985 . S
H1044 N1039 0.984 . S
H1045 N1039 0.985 . S
H1046 N1043 0.984 . S
H1047 N1043 0.985 . S
H1048 N1042 0.984 . S
H1049 N1042 0.984 . S
H1050 N1038 0.984 . S
H1051 N1038 0.985 . S
C1052 C1053 1.363 . S
C1052 C1058 1.379 . S
C1052 N1060 1.356 . S
C1053 C1052 1.363 . S
C1053 C1059 1.363 . S
C1054 C1055 1.363 . S
C1054 C1059 1.379 . S
C1054 N1061 1.356 . S
C1055 C1054 1.363 . S
C1055 C1058 1.363 . S
N1056 C1058 1.356 . S
N1056 H1068 0.984 . S
N1056 H1069 0.985 . S
N1057 C1059 1.356 . S
N1057 H1062 0.984 . S
N1057 H1063 0.985 . S
C1058 C1052 1.379 . S
C1058 C1055 1.363 . S
C1058 N1056 1.356 . S
C1059 C1053 1.363 . S
C1059 C1054 1.379 . S
C1059 N1057 1.356 . S
N1060 C1052 1.356 . S
N1060 H1066 0.984 . S
N1060 H1067 0.984 . S
N1061 C1054 1.356 . S
N1061 H1064 0.984 . S
N1061 H1065 0.985 . S
H1062 N1057 0.984 . S
H1063 N1057 0.985 . S
H1064 N1061 0.984 . S
H1065 N1061 0.985 . S
H1066 N1060 0.984 . S
H1067 N1060 0.984 . S
H1068 N1056 0.984 . S
H1069 N1056 0.985 . S
C1070 C1071 1.363 . S
C1070 C1076 1.379 . S
C1070 N1078 1.356 . S
C1071 C1070 1.363 . S
C1071 C1077 1.363 . S
C1072 C1073 1.363 . S
C1072 C1077 1.379 . S
C1072 N1079 1.356 . S
C1073 C1072 1.363 . S
C1073 C1076 1.363 . S
N1074 C1076 1.356 . S
N1074 H1086 0.984 . S
N1074 H1087 0.985 . S
N1075 C1077 1.356 . S
N1075 H1080 0.984 . S
N1075 H1081 0.985 . S
C1076 C1070 1.379 . S
C1076 C1073 1.363 . S
C1076 N1074 1.356 . S
C1077 C1071 1.363 . S
C1077 C1072 1.379 . S
C1077 N1075 1.356 . S
N1078 C1070 1.356 . S
N1078 H1084 0.984 . S
N1078 H1085 0.984 . S
N1079 C1072 1.356 . S
N1079 H1082 0.984 . S
N1079 H1083 0.985 . S
H1080 N1075 0.984 . S
H1081 N1075 0.985 . S
H1082 N1079 0.984 . S
H1083 N1079 0.985 . S
H1084 N1078 0.984 . S
H1085 N1078 0.984 . S
H1086 N1074 0.984 . S
H1087 N1074 0.985 . S
C1088 C1089 1.363 . S
C1088 C1094 1.379 . S
C1088 N1096 1.356 . S
C1089 C1088 1.363 . S
C1089 C1095 1.363 . S
C1090 C1091 1.363 . S
C1090 C1095 1.379 . S
C1090 N1097 1.356 . S
C1091 C1090 1.363 . S
C1091 C1094 1.363 . S
N1092 C1094 1.356 . S
N1092 H1104 0.984 . S
N1092 H1105 0.985 . S
N1093 C1095 1.356 . S
N1093 H1098 0.984 . S
N1093 H1099 0.985 1_545 S
C1094 C1088 1.379 . S
C1094 C1091 1.363 . S
C1094 N1092 1.356 . S
C1095 C1089 1.363 . S
C1095 C1090 1.379 . S
C1095 N1093 1.356 . S
N1096 C1088 1.356 . S
N1096 H1102 0.984 . S
N1096 H1103 0.984 . S
N1097 C1090 1.356 . S
N1097 H1100 0.984 . S
N1097 H1101 0.985 . S
H1098 N1093 0.984 . S
H1099 N1093 0.985 1_565 S
H1100 N1097 0.984 . S
H1101 N1097 0.985 . S
H1102 N1096 0.984 . S
H1103 N1096 0.984 . S
H1104 N1092 0.984 . S
H1105 N1092 0.985 . S
C1106 C1107 1.363 . S
C1106 C1112 1.379 . S
C1106 N1114 1.356 . S
C1107 C1106 1.363 . S
C1107 C1113 1.363 . S
C1108 C1109 1.363 . S
C1108 C1113 1.379 . S
C1108 N1115 1.356 . S
C1109 C1108 1.363 . S
C1109 C1112 1.363 . S
N1110 C1112 1.356 . S
N1110 H1122 0.984 . S
N1110 H1123 0.985 . S
N1111 C1113 1.356 . S
N1111 H1116 0.984 . S
N1111 H1117 0.985 . S
C1112 C1106 1.379 . S
C1112 C1109 1.363 . S
C1112 N1110 1.356 . S
C1113 C1107 1.363 . S
C1113 C1108 1.379 . S
C1113 N1111 1.356 . S
N1114 C1106 1.356 . S
N1114 H1120 0.984 . S
N1114 H1121 0.984 . S
N1115 C1108 1.356 . S
N1115 H1118 0.984 . S
N1115 H1119 0.985 . S
H1116 N1111 0.984 . S
H1117 N1111 0.985 . S
H1118 N1115 0.984 . S
H1119 N1115 0.985 . S
H1120 N1114 0.984 . S
H1121 N1114 0.984 . S
H1122 N1110 0.984 . S
H1123 N1110 0.985 . S
C1124 C1125 1.363 . S
C1124 C1130 1.379 . S
C1124 N1132 1.356 . S
C1125 C1124 1.363 . S
C1125 C1131 1.363 . S
C1126 C1127 1.363 . S
C1126 C1131 1.379 . S
C1126 N1133 1.356 . S
C1127 C1126 1.363 . S
C1127 C1130 1.363 . S
N1128 C1130 1.356 . S
N1128 H1140 0.984 . S
N1128 H1141 0.985 . S
N1129 C1131 1.356 . S
N1129 H1134 0.984 . S
N1129 H1135 0.985 . S
C1130 C1124 1.379 . S
C1130 C1127 1.363 . S
C1130 N1128 1.356 . S
C1131 C1125 1.363 . S
C1131 C1126 1.379 . S
C1131 N1129 1.356 . S
N1132 C1124 1.356 . S
N1132 H1138 0.984 . S
N1132 H1139 0.984 . S
N1133 C1126 1.356 . S
N1133 H1136 0.984 . S
N1133 H1137 0.985 . S
H1134 N1129 0.984 . S
H1135 N1129 0.985 . S
H1136 N1133 0.984 . S
H1137 N1133 0.985 . S
H1138 N1132 0.984 . S
H1139 N1132 0.984 . S
H1140 N1128 0.984 . S
H1141 N1128 0.985 . S
C1142 C1143 1.363 . S
C1142 C1148 1.379 . S
C1142 N1150 1.356 . S
C1143 C1142 1.363 . S
C1143 C1149 1.363 . S
C1144 C1145 1.363 . S
C1144 C1149 1.379 . S
C1144 N1151 1.356 . S
C1145 C1144 1.363 . S
C1145 C1148 1.363 . S
N1146 C1148 1.356 1_655 S
N1146 H1158 0.984 . S
N1146 H1159 0.985 . S
N1147 C1149 1.356 . S
N1147 H1152 0.984 . S
N1147 H1153 0.985 . S
C1148 C1142 1.379 . S
C1148 C1145 1.363 . S
C1148 N1146 1.356 1_455 S
C1149 C1143 1.363 . S
C1149 C1144 1.379 . S
C1149 N1147 1.356 . S
N1150 C1142 1.356 . S
N1150 H1156 0.984 1_455 S
N1150 H1157 0.984 . S
N1151 C1144 1.356 . S
N1151 H1154 0.984 . S
N1151 H1155 0.985 . S
H1152 N1147 0.984 . S
H1153 N1147 0.985 . S
H1154 N1151 0.984 . S
H1155 N1151 0.985 . S
H1156 N1150 0.984 1_655 S
H1157 N1150 0.984 . S
H1158 N1146 0.984 . S
H1159 N1146 0.985 . S
C1160 C1161 1.363 . S
C1160 C1166 1.379 1_556 S
C1160 N1168 1.356 . S
C1161 C1160 1.363 . S
C1161 C1167 1.363 . S
C1162 C1163 1.363 . S
C1162 C1167 1.379 1_554 S
C1162 N1169 1.348 1_565 S
C1163 C1162 1.363 . S
C1163 C1166 1.363 . S
N1164 C1166 1.356 . S
N1164 H1176 0.984 . S
N1164 H1177 0.985 . S
N1165 C1167 1.356 . S
N1165 H1170 0.984 . S
N1165 H1171 0.985 1_565 S
C1166 C1160 1.379 1_554 S
C1166 C1163 1.363 . S
C1166 N1164 1.356 . S
C1167 C1161 1.363 . S
C1167 C1162 1.379 1_556 S
C1167 N1165 1.356 . S
N1168 C1160 1.356 . S
N1168 H1174 0.984 . S
N1168 H1175 0.984 . S
N1169 C1162 1.348 1_545 S
N1169 H1172 0.984 1_545 S
N1169 H1173 0.994 . S
H1170 N1165 0.984 . S
H1171 N1165 0.985 1_545 S
H1172 N1169 0.984 1_565 S
H1173 N1169 0.994 . S
H1174 N1168 0.984 . S
H1175 N1168 0.984 . S
H1176 N1164 0.984 . S
H1177 N1164 0.985 . S
C1178 C1179 1.364 . S
C1178 C1184 1.377 1_554 S
C1178 N1186 1.357 . S
C1179 C1178 1.364 . S
C1179 C1185 1.363 . S
C1180 C1181 1.363 . S
C1180 C1185 1.379 1_556 S
C1180 N1187 1.356 . S
C1181 C1180 1.363 . S
C1181 C1184 1.363 . S
N1182 C1184 1.356 . S
N1182 H1194 0.984 . S
N1182 H1195 0.985 . S
N1183 C1185 1.356 . S
N1183 H1188 0.984 . S
N1183 H1189 0.985 . S
C1184 C1178 1.377 1_556 S
C1184 C1181 1.363 . S
C1184 N1182 1.356 . S
C1185 C1179 1.363 . S
C1185 C1180 1.379 1_554 S
C1185 N1183 1.356 . S
N1186 C1178 1.357 . S
N1186 H1192 0.984 . S
N1186 H1193 0.984 . S
N1187 C1180 1.356 . S
N1187 H1190 0.984 . S
N1187 H1191 0.985 . S
H1188 N1183 0.984 . S
H1189 N1183 0.985 . S
H1190 N1187 0.984 . S
H1191 N1187 0.985 . S
H1192 N1186 0.984 . S
H1193 N1186 0.984 . S
H1194 N1182 0.984 . S
H1195 N1182 0.985 . S
C1196 C1197 1.363 . S
C1196 C1202 1.379 1_556 S
C1196 N1204 1.356 . S
C1197 C1196 1.363 . S
C1197 C1203 1.363 . S
C1198 C1199 1.363 . S
C1198 C1203 1.379 1_554 S
C1198 N1205 1.356 . S
C1199 C1198 1.363 . S
C1199 C1202 1.363 . S
N1200 C1202 1.356 . S
N1200 H1212 0.984 . S
N1200 H1213 0.985 . S
N1201 C1203 1.356 . S
N1201 H1206 0.984 . S
N1201 H1207 0.985 . S
C1202 C1196 1.379 1_554 S
C1202 C1199 1.363 . S
C1202 N1200 1.356 . S
C1203 C1197 1.363 . S
C1203 C1198 1.379 1_556 S
C1203 N1201 1.356 . S
N1204 C1196 1.356 . S
N1204 H1210 0.984 . S
N1204 H1211 0.984 . S
N1205 C1198 1.356 . S
N1205 H1208 0.984 . S
N1205 H1209 0.985 . S
H1206 N1201 0.984 . S
H1207 N1201 0.985 . S
H1208 N1205 0.984 . S
H1209 N1205 0.985 . S
H1210 N1204 0.984 . S
H1211 N1204 0.984 . S
H1212 N1200 0.984 . S
H1213 N1200 0.985 . S
C1214 C1215 1.359 1_556 S
C1214 C1220 1.384 . S
C1214 N1222 1.354 1_556 S
C1215 C1214 1.359 1_554 S
C1215 C1221 1.363 . S
C1216 C1217 1.363 . S
C1216 C1221 1.379 1_556 S
C1216 N1223 1.356 . S
C1217 C1216 1.363 . S
C1217 C1220 1.363 . S
N1218 C1220 1.356 . S
N1218 H1230 0.984 . S
N1218 H1231 0.985 . S
N1219 C1221 1.356 . S
N1219 H1224 0.984 . S
N1219 H1225 0.985 . S
C1220 C1214 1.384 . S
C1220 C1217 1.363 . S
C1220 N1218 1.356 . S
C1221 C1215 1.363 . S
C1221 C1216 1.379 1_554 S
C1221 N1219 1.356 . S
N1222 C1214 1.354 1_554 S
N1222 H1228 0.984 . S
N1222 H1229 0.984 . S
N1223 C1216 1.356 . S
N1223 H1226 0.984 . S
N1223 H1227 0.985 . S
H1224 N1219 0.984 . S
H1225 N1219 0.985 . S
H1226 N1223 0.984 . S
H1227 N1223 0.985 . S
H1228 N1222 0.984 . S
H1229 N1222 0.984 . S
H1230 N1218 0.984 . S
H1231 N1218 0.985 . S
C1232 C1233 1.363 . S
C1232 C1238 1.379 . S
C1232 N1240 1.356 1_565 S
C1233 C1232 1.363 . S
C1233 C1239 1.363 . S
C1234 C1235 1.363 . S
C1234 C1239 1.379 . S
C1234 N1241 1.356 . S
C1235 C1234 1.363 . S
C1235 C1238 1.363 . S
N1236 C1238 1.356 . S
N1236 H1248 0.984 1_565 S
N1236 H1249 0.985 . S
N1237 C1239 1.356 . S
N1237 H1242 0.984 . S
N1237 H1243 0.985 . S
C1238 C1232 1.379 . S
C1238 C1235 1.363 . S
C1238 N1236 1.356 . S
C1239 C1233 1.363 . S
C1239 C1234 1.379 . S
C1239 N1237 1.356 . S
N1240 C1232 1.356 1_545 S
N1240 H1246 0.984 . S
N1240 H1247 0.986 . S
N1241 C1234 1.356 . S
N1241 H1244 0.984 . S
N1241 H1245 0.985 . S
H1242 N1237 0.984 . S
H1243 N1237 0.985 . S
H1244 N1241 0.984 . S
H1245 N1241 0.985 . S
H1246 N1240 0.984 . S
H1247 N1240 0.986 . S
H1248 N1236 0.984 1_545 S
H1249 N1236 0.985 . S
C1250 C1251 1.363 . S
C1250 C1256 1.379 . S
C1250 N1258 1.356 . S
C1251 C1250 1.363 . S
C1251 C1257 1.363 . S
C1252 C1253 1.363 . S
C1252 C1257 1.379 . S
C1252 N1259 1.356 . S
C1253 C1252 1.363 . S
C1253 C1256 1.363 . S
N1254 C1256 1.356 . S
N1254 H1266 0.984 . S
N1254 H1267 0.985 . S
N1255 C1257 1.356 . S
N1255 H1260 0.984 . S
N1255 H1261 0.985 . S
C1256 C1250 1.379 . S
C1256 C1253 1.363 . S
C1256 N1254 1.356 . S
C1257 C1251 1.363 . S
C1257 C1252 1.379 . S
C1257 N1255 1.356 . S
N1258 C1250 1.356 . S
N1258 H1264 0.984 . S
N1258 H1265 0.984 . S
N1259 C1252 1.356 . S
N1259 H1262 0.984 . S
N1259 H1263 0.985 . S
H1260 N1255 0.984 . S
H1261 N1255 0.985 . S
H1262 N1259 0.984 . S
H1263 N1259 0.985 . S
H1264 N1258 0.984 . S
H1265 N1258 0.984 . S
H1266 N1254 0.984 . S
H1267 N1254 0.985 . S
C1268 C1269 1.363 . S
C1268 C1274 1.379 . S
C1268 N1276 1.356 . S
C1269 C1268 1.363 . S
C1269 C1275 1.363 . S
C1270 C1271 1.363 . S
C1270 C1275 1.379 . S
C1270 N1277 1.356 . S
C1271 C1270 1.363 . S
C1271 C1274 1.363 . S
N1272 C1274 1.356 . S
N1272 H1284 0.984 . S
N1272 H1285 0.985 . S
N1273 C1275 1.356 . S
N1273 H1278 0.984 . S
N1273 H1279 0.985 . S
C1274 C1268 1.379 . S
C1274 C1271 1.363 . S
C1274 N1272 1.356 . S
C1275 C1269 1.363 . S
C1275 C1270 1.379 . S
C1275 N1273 1.356 . S
N1276 C1268 1.356 . S
N1276 H1282 0.984 . S
N1276 H1283 0.984 . S
N1277 C1270 1.356 . S
N1277 H1280 0.984 . S
N1277 H1281 0.985 . S
H1278 N1273 0.984 . S
H1279 N1273 0.985 . S
H1280 N1277 0.984 . S
H1281 N1277 0.985 . S
H1282 N1276 0.984 . S
H1283 N1276 0.984 . S
H1284 N1272 0.984 . S
H1285 N1272 0.985 . S
C1286 C1287 1.363 . S
C1286 C1292 1.379 . S
C1286 N1294 1.356 . S
C1287 C1286 1.363 . S
C1287 C1293 1.363 . S
C1288 C1289 1.363 . S
C1288 C1293 1.379 . S
C1288 N1295 1.356 . S
C1289 C1288 1.363 . S
C1289 C1292 1.363 . S
N1290 C1292 1.356 . S
N1290 H1302 0.984 . S
N1290 H1303 0.985 . S
N1291 C1293 1.356 . S
N1291 H1296 0.984 . S
N1291 H1297 0.985 . S
C1292 C1286 1.379 . S
C1292 C1289 1.363 . S
C1292 N1290 1.356 . S
C1293 C1287 1.363 . S
C1293 C1288 1.379 . S
C1293 N1291 1.356 . S
N1294 C1286 1.356 . S
N1294 H1300 0.984 . S
N1294 H1301 0.984 . S
N1295 C1288 1.356 . S
N1295 H1298 0.984 . S
N1295 H1299 0.985 . S
H1296 N1291 0.984 . S
H1297 N1291 0.985 . S
H1298 N1295 0.984 . S
H1299 N1295 0.985 . S
H1300 N1294 0.984 . S
H1301 N1294 0.984 . S
H1302 N1290 0.984 . S
H1303 N1290 0.985 . S
C1304 C1305 1.363 1_554 S
C1304 C1310 1.379 . S
C1304 N1312 1.356 1_544 S
C1305 C1304 1.363 1_556 S
C1305 C1311 1.363 . S
C1306 C1307 1.363 . S
C1306 C1311 1.379 1_554 S
C1306 N1313 1.356 . S
C1307 C1306 1.363 . S
C1307 C1310 1.363 . S
N1308 C1310 1.356 . S
N1308 H1320 0.984 1_545 S
N1308 H1321 0.985 . S
N1309 C1311 1.356 . S
N1309 H1314 0.984 . S
N1309 H1315 0.985 . S
C1310 C1304 1.379 . S
C1310 C1307 1.363 . S
C1310 N1308 1.356 . S
C1311 C1305 1.363 . S
C1311 C1306 1.379 1_556 S
C1311 N1309 1.356 . S
N1312 C1304 1.356 1_566 S
N1312 H1318 0.984 1_556 S
N1312 H1319 0.984 . S
N1313 C1306 1.356 . S
N1313 H1316 0.984 . S
N1313 H1317 0.985 . S
H1314 N1309 0.984 . S
H1315 N1309 0.985 . S
H1316 N1313 0.984 . S
H1317 N1313 0.985 . S
H1318 N1312 0.984 1_554 S
H1319 N1312 0.984 . S
H1320 N1308 0.984 1_565 S
H1321 N1308 0.985 . S
C1322 C1323 1.363 1_554 S
C1322 C1328 1.379 . S
C1322 N1330 1.356 1_554 S
C1323 C1322 1.363 1_556 S
C1323 C1329 1.363 . S
C1324 C1325 1.363 . S
C1324 C1329 1.379 1_554 S
C1324 N1331 1.356 . S
C1325 C1324 1.363 . S
C1325 C1328 1.363 . S
N1326 C1328 1.356 . S
N1326 H1338 0.984 . S
N1326 H1339 0.985 . S
N1327 C1329 1.356 . S
N1327 H1332 0.984 . S
N1327 H1333 0.985 . S
C1328 C1322 1.379 . S
C1328 C1325 1.363 . S
C1328 N1326 1.356 . S
C1329 C1323 1.363 . S
C1329 C1324 1.379 1_556 S
C1329 N1327 1.356 . S
N1330 C1322 1.356 1_556 S
N1330 H1336 0.984 1_556 S
N1330 H1337 0.984 . S
N1331 C1324 1.356 . S
N1331 H1334 0.984 . S
N1331 H1335 0.985 . S
H1332 N1327 0.984 . S
H1333 N1327 0.985 . S
H1334 N1331 0.984 . S
H1335 N1331 0.985 . S
H1336 N1330 0.984 1_554 S
H1337 N1330 0.984 . S
H1338 N1326 0.984 . S
H1339 N1326 0.985 . S
C1340 C1341 1.363 . S
C1340 C1346 1.379 . S
C1340 N1348 1.356 . S
C1341 C1340 1.363 . S
C1341 C1347 1.363 . S
C1342 C1343 1.363 . S
C1342 C1347 1.379 1_556 S
C1342 N1349 1.356 . S
C1343 C1342 1.363 . S
C1343 C1346 1.363 1_556 S
N1344 C1346 1.356 1_556 S
N1344 H1356 0.984 1_556 S
N1344 H1357 0.985 . S
N1345 C1347 1.356 . S
N1345 H1350 0.984 . S
N1345 H1351 0.985 . S
C1346 C1340 1.379 . S
C1346 C1343 1.363 1_554 S
C1346 N1344 1.356 1_554 S
C1347 C1341 1.363 . S
C1347 C1342 1.379 1_554 S
C1347 N1345 1.356 . S
N1348 C1340 1.356 . S
N1348 H1354 0.984 . S
N1348 H1355 0.984 . S
N1349 C1342 1.356 . S
N1349 H1352 0.984 . S
N1349 H1353 0.985 . S
H1350 N1345 0.984 . S
H1351 N1345 0.985 . S
H1352 N1349 0.984 . S
H1353 N1349 0.985 . S
H1354 N1348 0.984 . S
H1355 N1348 0.984 . S
H1356 N1344 0.984 1_554 S
H1357 N1344 0.985 . S
C1358 C1359 1.363 . S
C1358 C1364 1.379 1_554 S
C1358 N1366 1.356 . S
C1359 C1358 1.363 . S
C1359 C1365 1.363 . S
C1360 C1361 1.379 . S
C1360 C1365 1.358 1_556 S
C1360 N1367 1.368 . S
C1361 C1360 1.379 . S
C1361 C1364 1.363 . S
N1362 C1364 1.356 . S
N1362 H1374 0.984 . S
N1362 H1375 0.985 . S
N1363 C1365 1.356 . S
N1363 H1368 0.984 . S
N1363 H1369 0.985 . S
C1364 C1358 1.379 1_556 S
C1364 C1361 1.363 . S
C1364 N1362 1.356 . S
C1365 C1359 1.363 . S
C1365 C1360 1.358 1_554 S
C1365 N1363 1.356 . S
N1366 C1358 1.356 . S
N1366 H1372 0.984 . S
N1366 H1373 0.984 . S
N1367 C1360 1.368 . S
N1367 H1370 0.984 . S
N1367 H1371 0.985 . S
H1368 N1363 0.984 . S
H1369 N1363 0.985 . S
H1370 N1367 0.984 . S
H1371 N1367 0.985 . S
H1372 N1366 0.984 . S
H1373 N1366 0.984 . S
H1374 N1362 0.984 . S
H1375 N1362 0.985 . S
C513 C4 1.599 . S
C515 C164 1.599 . S
C531 C221 1.599 . S
C533 C61 1.599 . S
C549 C68 1.599 . S
C551 C228 1.599 . S
C567 C125 1.599 . S
C569 C132 1.599 . S
C585 C445 1.599 . S
C587 C260 1.599 . S
C603 C477 1.599 . S
C605 C317 1.599 . S
C621 C349 1.599 . S
C623 C484 1.599 . S
C639 C381 1.599 . S
C641 C388 1.599 . S
C657 C2 2.105 . S
C659 N109 1.807 . S
C675 C38 2.105 . S
C677 N18 1.807 . S
C693 C66 2.105 1_455 S
C695 N45 1.807 . S
C711 C102 2.105 1_545 S
C713 N82 1.807 . S
C729 C130 2.105 1_655 S
C731 N178 1.807 . S
C747 N205 1.807 . S
C749 C162 2.105 1_565 S
C765 C198 2.105 . S
C767 N242 1.807 . S
C783 N146 1.807 . S
C785 C226 2.105 . S
C801 N365 1.807 . S
C803 C258 2.105 . S
C819 C294 2.105 . S
C821 N274 1.807 . S
C837 C326 2.105 1_655 S
C839 N301 1.807 . S
C855 C358 2.105 1_565 S
C857 N333 1.807 . S
C873 C386 2.105 1_455 S
C875 N429 1.807 . S
C891 C422 2.105 1_545 S
C893 N461 1.807 . S
C909 C454 2.105 . S
C911 N498 1.807 . S
C927 C482 2.105 . S
C929 N402 1.807 . S
C945 C29 1.309 . S
C947 C93 1.309 . S
C963 C36 1.309 . S
C965 C100 1.309 . S
C981 C196 1.309 . S
C983 C157 1.309 . S
C999 C253 1.309 . S
C1001 C189 1.309 . S
C1017 C324 1.309 . S
C1019 C285 1.309 . S
C1035 C356 1.309 . S
C1037 C292 1.309 . S
C1053 C413 1.309 . S
C1055 C452 1.309 . S
C1071 C420 1.309 . S
C1073 C509 1.309 . S
C1089 N13 1.501 . S
C1091 C354 1.552 . S
C1107 C262 1.552 . S
C1109 N50 1.501 . S
C1125 N77 1.501 . S
C1127 C290 1.552 . S
C1143 C322 1.552 . S
C1145 N114 1.501 . S
C1161 C418 1.552 . S
C1163 N141 1.501 . S
C1179 N173 1.501 . S
C1181 C450 1.552 . S
C1197 C486 1.552 . S
C1199 N210 1.501 . S
C1215 N237 1.501 . S
C1217 C390 1.552 . S
C1233 N269 1.501 . S
C1235 C98 1.552 . S
C1251 N306 1.501 . S
C1253 C6 1.552 . S
C1269 C34 1.552 . S
C1271 N338 1.501 . S
C1287 N370 1.501 . S
C1289 C70 1.552 . S
C1305 N397 1.501 . S
C1307 C166 1.552 . S
C1323 N434 1.501 . S
C1325 C194 1.552 . S
C1341 C230 1.552 . S
C1343 N466 1.501 . S
C1359 C134 1.552 . S
C1361 N493 1.501 . S
