# Generated by pormake.
# Topology upb, (4)-cn, num edge types: 1
# Building blocks:
#     Node 0, Type 0, BuildingBlock: GALJAG_clean_sbu_0, # of connection points: 4
#     Node 1, Type 0, BuildingBlock: GALJAG_clean_sbu_0, # of connection points: 4
#     Node 2, Type 0, BuildingBlock: GALJAG_clean_sbu_0, # of connection points: 4
#     Node 3, Type 0, BuildingBlock: GALJAG_clean_sbu_0, # of connection points: 4
#     Node 4, Type 0, BuildingBlock: GALJAG_clean_sbu_0, # of connection points: 4
#     Node 5, Type 0, BuildingBlock: GALJAG_clean_sbu_0, # of connection points: 4
#     Node 6, Type 0, BuildingBlock: GALJAG_clean_sbu_0, # of connection points: 4
#     Node 7, Type 0, BuildingBlock: GALJAG_clean_sbu_0, # of connection points: 4
#     Node 8, Type 0, BuildingBlock: GALJAG_clean_sbu_0, # of connection points: 4
#     Node 9, Type 0, BuildingBlock: GALJAG_clean_sbu_0, # of connection points: 4
#     Node 10, Type 0, BuildingBlock: GALJAG_clean_sbu_0, # of connection points: 4
#     Node 11, Type 0, BuildingBlock: GALJAG_clean_sbu_0, # of connection points: 4
#     Node 12, Type 0, BuildingBlock: GALJAG_clean_sbu_0, # of connection points: 4
#     Node 13, Type 0, BuildingBlock: GALJAG_clean_sbu_0, # of connection points: 4
#     Node 14, Type 0, BuildingBlock: GALJAG_clean_sbu_0, # of connection points: 4
#     Node 15, Type 0, BuildingBlock: GALJAG_clean_sbu_0, # of connection points: 4
#     Edge 16, Type (0, 0), BuildingBlock: XIVTED_clean_linker_0, # of connection points: 2
#     Edge 17, Type (0, 0), BuildingBlock: XIVTED_clean_linker_0, # of connection points: 2
#     Edge 18, Type (0, 0), BuildingBlock: XIVTED_clean_linker_0, # of connection points: 2
#     Edge 19, Type (0, 0), BuildingBlock: XIVTED_clean_linker_0, # of connection points: 2
#     Edge 20, Type (0, 0), BuildingBlock: XIVTED_clean_linker_0, # of connection points: 2
#     Edge 21, Type (0, 0), BuildingBlock: XIVTED_clean_linker_0, # of connection points: 2
#     Edge 22, Type (0, 0), BuildingBlock: XIVTED_clean_linker_0, # of connection points: 2
#     Edge 23, Type (0, 0), BuildingBlock: XIVTED_clean_linker_0, # of connection points: 2
#     Edge 24, Type (0, 0), BuildingBlock: XIVTED_clean_linker_0, # of connection points: 2
#     Edge 25, Type (0, 0), BuildingBlock: XIVTED_clean_linker_0, # of connection points: 2
#     Edge 26, Type (0, 0), BuildingBlock: XIVTED_clean_linker_0, # of connection points: 2
#     Edge 27, Type (0, 0), BuildingBlock: XIVTED_clean_linker_0, # of connection points: 2
#     Edge 28, Type (0, 0), BuildingBlock: XIVTED_clean_linker_0, # of connection points: 2
#     Edge 29, Type (0, 0), BuildingBlock: XIVTED_clean_linker_0, # of connection points: 2
#     Edge 30, Type (0, 0), BuildingBlock: XIVTED_clean_linker_0, # of connection points: 2
#     Edge 31, Type (0, 0), BuildingBlock: XIVTED_clean_linker_0, # of connection points: 2
#     Edge 32, Type (0, 0), BuildingBlock: XIVTED_clean_linker_0, # of connection points: 2
#     Edge 33, Type (0, 0), BuildingBlock: XIVTED_clean_linker_0, # of connection points: 2
#     Edge 34, Type (0, 0), BuildingBlock: XIVTED_clean_linker_0, # of connection points: 2
#     Edge 35, Type (0, 0), BuildingBlock: XIVTED_clean_linker_0, # of connection points: 2
#     Edge 36, Type (0, 0), BuildingBlock: XIVTED_clean_linker_0, # of connection points: 2
#     Edge 37, Type (0, 0), BuildingBlock: XIVTED_clean_linker_0, # of connection points: 2
#     Edge 38, Type (0, 0), BuildingBlock: XIVTED_clean_linker_0, # of connection points: 2
#     Edge 39, Type (0, 0), BuildingBlock: XIVTED_clean_linker_0, # of connection points: 2
#     Edge 40, Type (0, 0), BuildingBlock: XIVTED_clean_linker_0, # of connection points: 2
#     Edge 41, Type (0, 0), BuildingBlock: XIVTED_clean_linker_0, # of connection points: 2
#     Edge 42, Type (0, 0), BuildingBlock: XIVTED_clean_linker_0, # of connection points: 2
#     Edge 43, Type (0, 0), BuildingBlock: XIVTED_clean_linker_0, # of connection points: 2
#     Edge 44, Type (0, 0), BuildingBlock: XIVTED_clean_linker_0, # of connection points: 2
#     Edge 45, Type (0, 0), BuildingBlock: XIVTED_clean_linker_0, # of connection points: 2
#     Edge 46, Type (0, 0), BuildingBlock: XIVTED_clean_linker_0, # of connection points: 2
#     Edge 47, Type (0, 0), BuildingBlock: XIVTED_clean_linker_0, # of connection points: 2
# Relax obj value: 0.253
# Max RMSD: 0.089
# Mean RMSD: 0.089
data_MOF--net-upb--node1-GALJAG_clean_sbu_0--edge1-XIVTED_clean_linker_0
_symmetry_space_group_name_H-M    P1
_symmetry_Int_Tables_number       1
_symmetry_cell_setting            triclinic
loop_
_symmetry_equiv_pos_as_xyz
'x, y, z'
_cell_length_a     44.265945
_cell_length_b     44.214564
_cell_length_c     36.437685
_cell_angle_alpha  89.966388
_cell_angle_beta   90.072692
_cell_angle_gamma 89.999578
loop_
_atom_site_label
_atom_site_type_symbol
_atom_site_fract_x
_atom_site_fract_y
_atom_site_fract_z
_atom_type_partial_charge
In0 In 0.03249 0.22722 0.30631 0.0
O1 O 0.07013 0.19851 0.32993 0.0
O2 O 0.06668 0.20068 0.27176 0.0
C3 C 0.00947 0.22384 0.37461 0.0
C4 C 0.05721 0.28169 0.29071 0.0
C5 C 0.98372 0.20529 0.27023 0.0
O6 O 0.02402 0.20248 0.36005 0.0
O7 O 0.00647 0.24703 0.35471 0.0
O8 O 0.98319 0.23017 0.2871 0.0
O9 O 0.00911 0.1925 0.26995 0.0
C10 C 0.08018 0.18977 0.29933 0.0
O11 O 0.04172 0.26719 0.26755 0.0
O12 O 0.05993 0.26882 0.32133 0.0
In13 In 0.76402 0.03083 0.29378 0.0
O14 O 0.81092 0.0435 0.27298 0.0
O15 O 0.78035 0.07931 0.28381 0.0
C16 C 0.77166 0.02464 0.36683 0.0
C17 C 0.70967 0.05499 0.27706 0.0
C18 C 0.77063 0.97396 0.26733 0.0
O19 O 0.79337 0.03117 0.34584 0.0
O20 O 0.74666 0.02101 0.35092 0.0
O21 O 0.7592 0.97964 0.29817 0.0
O22 O 0.77704 0.99707 0.24863 0.0
C23 C 0.80632 0.07162 0.27314 0.0
O24 O 0.72557 0.04196 0.25299 0.0
O25 O 0.72116 0.05541 0.30862 0.0
In26 In 0.95195 0.76109 0.27622 0.0
O27 O 0.94479 0.71033 0.28203 0.0
O28 O 0.93728 0.72945 0.22955 0.0
C29 C 0.00802 0.7763 0.25335 0.0
C30 C 0.90373 0.79707 0.26201 0.0
C31 C 0.9599 0.76744 0.34919 0.0
O32 O 0.98494 0.7919 0.24621 0.0
O33 O 0.0027 0.75213 0.27056 0.0
O34 O 0.96864 0.78714 0.32647 0.0
O35 O 0.94641 0.74513 0.33515 0.0
C36 C 0.93662 0.70608 0.24938 0.0
O37 O 0.90598 0.78142 0.2908 0.0
O38 O 0.92564 0.79442 0.24022 0.0
In39 In 0.22744 0.94667 0.30237 0.0
O40 O 0.26442 0.94103 0.25842 0.0
O41 O 0.27224 0.92364 0.3119 0.0
C42 C 0.19795 0.99858 0.2883 0.0
C43 C 0.18975 0.90202 0.28079 0.0
C44 C 0.23695 0.96174 0.37265 0.0
O45 O 0.22326 0.99297 0.27365 0.0
O46 O 0.18752 0.97766 0.30809 0.0
O47 O 0.2222 0.93838 0.36363 0.0
O48 O 0.24737 0.97701 0.34621 0.0
C49 C 0.28204 0.92703 0.2798 0.0
O50 O 0.20079 0.90331 0.31268 0.0
O51 O 0.19791 0.92309 0.25967 0.0
In52 In 0.03427 0.77136 0.68621 0.0
O53 O 0.04323 0.82194 0.68508 0.0
O54 O 0.07689 0.79403 0.70929 0.0
C55 C 0.02176 0.77001 0.61369 0.0
C56 C 0.06404 0.71998 0.70372 0.0
C57 C 0.98066 0.78094 0.71999 0.0
O58 O 0.03911 0.7895 0.62767 0.0
O59 O 0.01137 0.75094 0.63609 0.0
O60 O 0.98338 0.76523 0.6914 0.0
O61 O 0.00531 0.79031 0.73307 0.0
C62 C 0.06851 0.82047 0.70102 0.0
O63 O 0.04475 0.73173 0.72485 0.0
O64 O 0.0683 0.7342 0.67422 0.0
In65 In 0.23101 0.05182 0.70216 0.0
O66 O 0.20791 0.09547 0.68458 0.0
O67 O 0.20621 0.0838 0.74115 0.0
C68 C 0.23679 0.03243 0.63272 0.0
C69 C 0.28726 0.06729 0.72436 0.0
C70 C 0.19607 0.00526 0.72422 0.0
O71 O 0.22733 0.05863 0.64044 0.0
O72 O 0.24352 0.01616 0.66002 0.0
O73 O 0.2242 0.00577 0.73044 0.0
O74 O 0.18589 0.02855 0.70855 0.0
C75 C 0.19881 0.1023 0.71632 0.0
O76 O 0.26734 0.0587 0.74686 0.0
O77 O 0.27894 0.0671 0.69139 0.0
In78 In 0.96409 0.24397 0.71292 0.0
O79 O 0.96003 0.2945 0.70264 0.0
O80 O 0.94684 0.27851 0.755 0.0
C81 C 0.02301 0.23633 0.73052 0.0
C82 C 0.92353 0.20289 0.73753 0.0
C83 C 0.96045 0.23157 0.6406 0.0
O84 O 0.01439 0.24786 0.70067 0.0
O85 O 0.00192 0.23022 0.75256 0.0
O86 O 0.97396 0.21443 0.66294 0.0
O87 O 0.94816 0.2544 0.65492 0.0
C88 C 0.94898 0.30076 0.73348 0.0
O89 O 0.91616 0.22474 0.71717 0.0
O90 O 0.95114 0.20206 0.74587 0.0
In91 In 0.77647 0.96884 0.70707 0.0
O92 O 0.79858 0.92447 0.69072 0.0
O93 O 0.80329 0.93861 0.74623 0.0
C94 C 0.77977 0.98811 0.63705 0.0
C95 C 0.7212 0.94656 0.72281 0.0
C96 C 0.79881 0.01927 0.73892 0.0
O97 O 0.80053 0.97271 0.65176 0.0
O98 O 0.75774 0.99397 0.65775 0.0
O99 O 0.77129 0.01684 0.73032 0.0
O100 O 0.81447 0.99607 0.73263 0.0
C101 C 0.80924 0.91897 0.72216 0.0
O102 O 0.73746 0.95902 0.74699 0.0
O103 O 0.73264 0.94601 0.69124 0.0
In104 In 0.54309 0.7364 0.78995 0.0
O105 O 0.55265 0.77603 0.75044 0.0
O106 O 0.57098 0.77748 0.80423 0.0
C107 C 0.48864 0.72093 0.76191 0.0
C108 C 0.589 0.69878 0.77317 0.0
C109 C 0.52676 0.73205 0.86087 0.0
O110 O 0.4932 0.74586 0.77776 0.0
O111 O 0.51183 0.70468 0.75849 0.0
O112 O 0.53603 0.70947 0.84291 0.0
O113 O 0.52581 0.75647 0.84303 0.0
C114 C 0.56831 0.79036 0.77364 0.0
O115 O 0.58494 0.70921 0.80501 0.0
O116 O 0.57 0.70748 0.74956 0.0
In117 In 0.27067 0.54968 0.80173 0.0
O118 O 0.29585 0.59343 0.81488 0.0
O119 O 0.29749 0.57714 0.76005 0.0
C120 C 0.26519 0.53314 0.87249 0.0
C121 C 0.21573 0.56771 0.77743 0.0
C122 C 0.30334 0.5013 0.78061 0.0
O123 O 0.2763 0.55827 0.86299 0.0
O124 O 0.25651 0.51655 0.84632 0.0
O125 O 0.27503 0.50234 0.77593 0.0
O126 O 0.31465 0.52458 0.7951 0.0
C127 C 0.30572 0.59708 0.78269 0.0
O128 O 0.23474 0.55531 0.75651 0.0
O129 O 0.22409 0.56991 0.81031 0.0
In130 In 0.47072 0.27067 0.79671 0.0
O131 O 0.45694 0.23158 0.75851 0.0
O132 O 0.44559 0.22842 0.81482 0.0
C133 C 0.5233 0.27967 0.76067 0.0
C134 C 0.43535 0.31887 0.78157 0.0
C135 C 0.48214 0.27534 0.86919 0.0
O136 O 0.52095 0.262 0.78769 0.0
O137 O 0.49868 0.29122 0.75027 0.0
O138 O 0.45734 0.28332 0.85514 0.0
O139 O 0.50113 0.26496 0.84673 0.0
C140 C 0.44446 0.2164 0.7836 0.0
O141 O 0.46127 0.32105 0.7957 0.0
O142 O 0.427 0.29214 0.77477 0.0
In143 In 0.73161 0.46115 0.78144 0.0
O144 O 0.78203 0.46173 0.79336 0.0
O145 O 0.76838 0.44485 0.74162 0.0
C146 C 0.71656 0.5169 0.75702 0.0
C147 C 0.69803 0.41293 0.76067 0.0
C148 C 0.718 0.46458 0.85354 0.0
O149 O 0.73841 0.51233 0.77857 0.0
O150 O 0.70326 0.49324 0.74646 0.0
O151 O 0.70267 0.47802 0.82931 0.0
O152 O 0.73948 0.44886 0.84128 0.0
C153 C 0.78986 0.44978 0.76357 0.0
O154 O 0.71338 0.41341 0.78981 0.0
O155 O 0.69982 0.43668 0.74162 0.0
In156 In 0.52839 0.2627 0.21221 0.0
O157 O 0.57288 0.28322 0.23305 0.0
O158 O 0.53703 0.31303 0.21945 0.0
C159 C 0.52111 0.2712 0.13936 0.0
C160 C 0.55219 0.20772 0.22688 0.0
C161 C 0.47375 0.26699 0.24454 0.0
O162 O 0.54684 0.26902 0.15402 0.0
O163 O 0.49931 0.26922 0.16137 0.0
O164 O 0.4966 0.28115 0.25614 0.0
O165 O 0.4791 0.24899 0.21849 0.0
C166 C 0.56378 0.31018 0.23074 0.0
O167 O 0.54685 0.21694 0.19485 0.0
O168 O 0.54475 0.22593 0.25195 0.0
In169 In 0.72315 0.5382 0.18855 0.0
O170 O 0.70065 0.58369 0.17862 0.0
O171 O 0.70403 0.56832 0.23383 0.0
C172 C 0.71675 0.51819 0.11919 0.0
C173 C 0.78114 0.5558 0.19705 0.0
C174 C 0.69405 0.49155 0.22036 0.0
O175 O 0.70219 0.54058 0.1314 0.0
O176 O 0.73456 0.50606 0.14192 0.0
O177 O 0.72253 0.49203 0.21762 0.0
O178 O 0.68087 0.51471 0.20809 0.0
C179 C 0.69514 0.58869 0.21206 0.0
O180 O 0.76705 0.54199 0.22212 0.0
O181 O 0.7662 0.5599 0.16808 0.0
In182 In 0.4678 0.72451 0.20154 0.0
O183 O 0.45893 0.67392 0.20442 0.0
O184 O 0.42492 0.70301 0.22539 0.0
C185 C 0.47672 0.72414 0.12832 0.0
C186 C 0.43645 0.77489 0.21776 0.0
C187 C 0.52352 0.72045 0.23195 0.0
O188 O 0.46832 0.70092 0.14562 0.0
O189 O 0.48037 0.74735 0.14786 0.0
O190 O 0.51805 0.73523 0.2032 0.0
O191 O 0.50047 0.70916 0.2469 0.0
C192 C 0.4333 0.67622 0.21923 0.0
O193 O 0.45626 0.76434 0.23929 0.0
O194 O 0.43231 0.75973 0.18892 0.0
In195 In 0.26777 0.4466 0.20476 0.0
O196 O 0.29101 0.40158 0.19325 0.0
O197 O 0.29068 0.41741 0.24833 0.0
C198 C 0.26429 0.46347 0.13393 0.0
C199 C 0.21102 0.43182 0.22549 0.0
C200 C 0.30265 0.49321 0.22658 0.0
O201 O 0.27461 0.43805 0.14366 0.0
O202 O 0.25555 0.48021 0.15989 0.0
O203 O 0.27431 0.4934 0.23108 0.0
O204 O 0.31297 0.46948 0.2121 0.0
C205 C 0.29881 0.39709 0.22614 0.0
O206 O 0.22953 0.44387 0.24745 0.0
O207 O 0.2209 0.42827 0.19346 0.0
H208 H 0.10666 0.15917 0.35541 0.0
H209 H 0.20522 0.04455 0.23755 0.0
H210 H 0.10587 0.16544 0.23717 0.0
H211 H 0.15705 0.02044 0.33623 0.0
H212 H 0.18016 0.09455 0.23873 0.0
H213 H 0.13862 0.11445 0.35105 0.0
C214 C 0.11359 0.15142 0.32851 0.0
C215 C 0.10327 0.16579 0.29657 0.0
C216 C 0.17523 0.07813 0.25996 0.0
C217 C 0.13985 0.11458 0.29149 0.0
C218 C 0.18941 0.04976 0.25931 0.0
C219 C 0.18297 0.02834 0.28667 0.0
C220 C 0.15534 0.0851 0.28875 0.0
C221 C 0.16246 0.03614 0.31439 0.0
C222 C 0.1317 0.12582 0.32607 0.0
C223 C 0.11315 0.1548 0.26244 0.0
N224 N 0.14961 0.06391 0.31487 0.0
N225 N 0.13083 0.12961 0.26071 0.0
H226 H 0.97974 0.15148 0.23405 0.0
H227 H 0.804 0.13338 0.27821 0.0
H228 H 0.92488 0.22295 0.27929 0.0
H229 H 0.86262 0.06004 0.24624 0.0
H230 H 0.84546 0.169 0.26751 0.0
H231 H 0.93443 0.12075 0.22599 0.0
C232 C 0.95805 0.16095 0.24161 0.0
C233 C 0.95609 0.18963 0.25783 0.0
C234 C 0.84914 0.14515 0.26247 0.0
C235 C 0.90418 0.15438 0.24927 0.0
C236 C 0.8255 0.12482 0.26858 0.0
C237 C 0.83004 0.0937 0.26355 0.0
C238 C 0.87745 0.13422 0.25121 0.0
C239 C 0.85826 0.08383 0.25084 0.0
C240 C 0.93219 0.14332 0.23718 0.0
C241 C 0.9274 0.20084 0.26692 0.0
N242 N 0.88095 0.10399 0.24539 0.0
N243 N 0.90258 0.183 0.26302 0.0
H244 H 0.75949 0.92114 0.30362 0.0
H245 H 0.89656 0.83696 0.20517 0.0
H246 H 0.8068 0.95722 0.20986 0.0
H247 H 0.8537 0.80579 0.30452 0.0
H248 H 0.85764 0.87599 0.19915 0.0
H249 H 0.78669 0.87352 0.29621 0.0
C250 C 0.77513 0.91881 0.28096 0.0
C251 C 0.78122 0.9433 0.25764 0.0
C252 C 0.85654 0.86038 0.22202 0.0
C253 C 0.8129 0.88904 0.24942 0.0
C254 C 0.87874 0.8381 0.22547 0.0
C255 C 0.87856 0.8184 0.25567 0.0
C256 C 0.83402 0.86296 0.24899 0.0
C257 C 0.85487 0.82074 0.28102 0.0
C258 C 0.79079 0.89165 0.27686 0.0
C259 C 0.80159 0.93896 0.22862 0.0
N260 N 0.83373 0.84281 0.2773 0.0
N261 N 0.81709 0.91252 0.22569 0.0
H262 H 0.06049 0.75623 0.28458 0.0
H263 H 0.15446 0.90106 0.21921 0.0
H264 H 0.02539 0.82409 0.21084 0.0
H265 H 0.17414 0.85055 0.31773 0.0
H266 H 0.11368 0.86543 0.20514 0.0
H267 H 0.10902 0.78284 0.28543 0.0
C268 C 0.06322 0.77631 0.26787 0.0
C269 C 0.03884 0.78819 0.24791 0.0
C270 C 0.12718 0.86198 0.2296 0.0
C271 C 0.09406 0.81873 0.24897 0.0
C272 C 0.15046 0.88224 0.23761 0.0
C273 C 0.16742 0.87891 0.26991 0.0
C274 C 0.12105 0.8381 0.25389 0.0
C275 C 0.16136 0.85409 0.29275 0.0
C276 C 0.09083 0.79158 0.26859 0.0
C277 C 0.04357 0.81434 0.22686 0.0
N278 N 0.13854 0.83471 0.28441 0.0
N279 N 0.07057 0.8289 0.22818 0.0
H280 H 0.05224 0.8792 0.69074 0.0
H281 H 0.21338 0.94779 0.74425 0.0
H282 H 0.12576 0.82383 0.73004 0.0
H283 H 0.1352 0.00127 0.71598 0.0
H284 H 0.18164 0.90223 0.74331 0.0
H285 H 0.08232 0.92422 0.70275 0.0
C286 C 0.07475 0.87653 0.70199 0.0
C287 C 0.08659 0.84774 0.7092 0.0
C288 C 0.17141 0.92401 0.73778 0.0
C289 C 0.12134 0.89934 0.72307 0.0
C290 C 0.18947 0.95 0.7385 0.0
C291 C 0.17693 0.97829 0.72991 0.0
C292 C 0.1407 0.92644 0.72827 0.0
C293 C 0.14587 0.97989 0.7225 0.0
C294 C 0.09193 0.90229 0.70898 0.0
C295 C 0.11584 0.84565 0.72396 0.0
N296 N 0.12894 0.95435 0.72153 0.0
N297 N 0.13234 0.87113 0.7302 0.0
H298 H 0.18504 0.14823 0.66919 0.0
H299 H 0.04598 0.20414 0.78847 0.0
H300 H 0.16714 0.11581 0.77872 0.0
H301 H 0.07091 0.24309 0.68422 0.0
H302 H 0.09412 0.17696 0.78978 0.0
H303 H 0.14734 0.18784 0.67792 0.0
C304 C 0.17339 0.14968 0.69525 0.0
C305 C 0.17892 0.12851 0.72311 0.0
C306 C 0.08932 0.19189 0.76694 0.0
C307 C 0.13545 0.17361 0.73322 0.0
C308 C 0.06188 0.20752 0.76627 0.0
C309 C 0.05428 0.22555 0.73593 0.0
C310 C 0.1091 0.19416 0.73692 0.0
C311 C 0.07573 0.22917 0.70796 0.0
C312 C 0.15188 0.17234 0.70027 0.0
C313 C 0.16338 0.13158 0.75644 0.0
N314 N 0.10194 0.21323 0.70885 0.0
N315 N 0.14201 0.15344 0.76039 0.0
H316 H 0.93535 0.15235 0.77809 0.0
H317 H 0.77535 0.0765 0.73421 0.0
H318 H 0.86336 0.19823 0.72068 0.0
H319 H 0.85447 0.02728 0.76917 0.0
H320 H 0.80309 0.12402 0.74273 0.0
H321 H 0.90174 0.10938 0.78838 0.0
C322 C 0.91233 0.15353 0.76805 0.0
C323 C 0.90223 0.17869 0.74804 0.0
C324 C 0.81418 0.10282 0.74909 0.0
C325 C 0.8637 0.12953 0.75959 0.0
C326 C 0.79832 0.07574 0.74446 0.0
C327 C 0.8128 0.04797 0.75059 0.0
C328 C 0.8446 0.10199 0.76014 0.0
C329 C 0.84259 0.04822 0.76373 0.0
C330 C 0.89317 0.12897 0.77389 0.0
C331 C 0.87213 0.17912 0.73592 0.0
N332 N 0.85759 0.07478 0.76775 0.0
N333 N 0.85398 0.15474 0.74155 0.0
H334 H 0.81621 0.86877 0.67977 0.0
H335 H 0.96886 0.82144 0.77507 0.0
H336 H 0.84716 0.90962 0.7805 0.0
H337 H 0.92526 0.76815 0.69116 0.0
H338 H 0.92205 0.85011 0.78303 0.0
H339 H 0.85331 0.82848 0.68777 0.0
C340 C 0.83064 0.86904 0.70381 0.0
C341 C 0.82893 0.89271 0.72928 0.0
C342 C 0.92251 0.8317 0.76345 0.0
C343 C 0.87173 0.84687 0.73846 0.0
C344 C 0.94921 0.81524 0.75901 0.0
C345 C 0.95108 0.79274 0.73197 0.0
C346 C 0.89775 0.82579 0.74037 0.0
C347 C 0.92492 0.78559 0.712 0.0
C348 C 0.85175 0.84597 0.70847 0.0
C349 C 0.84792 0.89184 0.76011 0.0
N350 N 0.89953 0.80245 0.71609 0.0
N351 N 0.86893 0.86956 0.76354 0.0
H352 H 0.63806 0.68458 0.81509 0.0
H353 H 0.67182 0.53289 0.70895 0.0
H354 H 0.59412 0.66222 0.71291 0.0
H355 H 0.73246 0.57 0.79006 0.0
H356 H 0.64494 0.58121 0.70699 0.0
H357 H 0.67444 0.64398 0.80446 0.0
C358 C 0.63628 0.67128 0.79022 0.0
C359 C 0.61292 0.67654 0.765 0.0
C360 C 0.66447 0.57898 0.72471 0.0
C361 C 0.65424 0.62983 0.75281 0.0
C362 C 0.67984 0.55142 0.7258 0.0
C363 C 0.70419 0.54737 0.74998 0.0
C364 C 0.67323 0.60244 0.74843 0.0
C365 C 0.71369 0.57211 0.77115 0.0
C366 C 0.65711 0.64818 0.78408 0.0
C367 C 0.61175 0.6588 0.73311 0.0
N368 N 0.69786 0.59843 0.77037 0.0
N369 N 0.63185 0.6359 0.72817 0.0
H370 H 0.47317 0.67308 0.71852 0.0
H371 H 0.3204 0.64741 0.82243 0.0
H372 H 0.43496 0.74125 0.78925 0.0
H373 H 0.34106 0.60084 0.72152 0.0
H374 H 0.36132 0.68315 0.80971 0.0
H375 H 0.42423 0.64741 0.71698 0.0
C376 C 0.45427 0.68298 0.73307 0.0
C377 C 0.45811 0.70917 0.75425 0.0
C378 C 0.35657 0.66542 0.79005 0.0
C379 C 0.40238 0.67959 0.7534 0.0
C380 C 0.33331 0.64497 0.79737 0.0
C381 C 0.32757 0.62102 0.77315 0.0
C382 C 0.37456 0.66147 0.75868 0.0
C383 C 0.34485 0.61894 0.74099 0.0
C384 C 0.42636 0.66833 0.73222 0.0
C385 C 0.43293 0.72107 0.7726 0.0
N386 N 0.36792 0.6386 0.73498 0.0
N387 N 0.40625 0.70584 0.77238 0.0
H388 H 0.28482 0.44367 0.76267 0.0
H389 H 0.45207 0.37785 0.78562 0.0
H390 H 0.3645 0.49781 0.78112 0.0
H391 H 0.37521 0.3209 0.76257 0.0
H392 H 0.42008 0.42224 0.77896 0.0
H393 H 0.31711 0.39864 0.75717 0.0
C394 C 0.30909 0.44613 0.76505 0.0
C395 C 0.32201 0.47442 0.77268 0.0
C396 C 0.41011 0.4001 0.77511 0.0
C397 C 0.3589 0.42328 0.76668 0.0
C398 C 0.42841 0.37471 0.77897 0.0
C399 C 0.41621 0.34567 0.77492 0.0
C400 C 0.37919 0.39655 0.76747 0.0
C401 C 0.38546 0.34295 0.76603 0.0
C402 C 0.32748 0.42046 0.76203 0.0
C403 C 0.35353 0.4764 0.77558 0.0
N404 N 0.36788 0.36811 0.76292 0.0
N405 N 0.37081 0.4512 0.77282 0.0
H406 H 0.69475 0.35766 0.79374 0.0
H407 H 0.53446 0.32194 0.70748 0.0
H408 H 0.65477 0.41071 0.70695 0.0
H409 H 0.57932 0.26416 0.78592 0.0
H410 H 0.58169 0.34964 0.69873 0.0
H411 H 0.6564 0.31882 0.784 0.0
C412 C 0.67809 0.36094 0.7723 0.0
C413 C 0.67763 0.38762 0.75148 0.0
C414 C 0.5814 0.33052 0.7173 0.0
C415 C 0.63342 0.34339 0.74039 0.0
C416 C 0.55445 0.31459 0.72216 0.0
C417 C 0.55285 0.29105 0.74793 0.0
C418 C 0.60678 0.32302 0.73865 0.0
C419 C 0.57946 0.2824 0.76609 0.0
C420 C 0.65621 0.33872 0.76668 0.0
C421 C 0.65574 0.39057 0.72383 0.0
N422 N 0.60518 0.29874 0.76162 0.0
N423 N 0.6342 0.36894 0.71947 0.0
H424 H 0.7145 0.43374 0.23297 0.0
H425 H 0.54642 0.36891 0.23726 0.0
H426 H 0.63409 0.48884 0.23552 0.0
H427 H 0.62515 0.31149 0.24154 0.0
H428 H 0.57885 0.41307 0.24384 0.0
H429 H 0.68316 0.38877 0.24366 0.0
C430 C 0.69035 0.43642 0.23647 0.0
C431 C 0.67679 0.46495 0.23293 0.0
C432 C 0.58913 0.39084 0.24369 0.0
C433 C 0.6409 0.41384 0.24475 0.0
C434 C 0.57058 0.36561 0.23988 0.0
C435 C 0.58317 0.33656 0.23847 0.0
C436 C 0.62062 0.38712 0.24565 0.0
C437 C 0.61459 0.33356 0.24232 0.0
C438 C 0.67247 0.41077 0.24241 0.0
C439 C 0.64544 0.46722 0.23763 0.0
N440 N 0.63233 0.3586 0.24528 0.0
N441 N 0.62857 0.442 0.24291 0.0
H442 H 0.57614 0.73943 0.20068 0.0
H443 H 0.66589 0.5965 0.27751 0.0
H444 H 0.54153 0.67997 0.28464 0.0
H445 H 0.68317 0.64028 0.1738 0.0
H446 H 0.62949 0.63647 0.29248 0.0
H447 H 0.62477 0.71356 0.20427 0.0
C448 C 0.57901 0.72147 0.22061 0.0
C449 C 0.55458 0.71135 0.24181 0.0
C450 C 0.6417 0.63757 0.26677 0.0
C451 C 0.60999 0.68143 0.24563 0.0
C452 C 0.66248 0.61485 0.25824 0.0
C453 C 0.67712 0.6149 0.22411 0.0
C454 C 0.63586 0.66056 0.24111 0.0
C455 C 0.67198 0.63919 0.20018 0.0
C456 C 0.60673 0.7066 0.22248 0.0
C457 C 0.55968 0.68819 0.26743 0.0
N458 N 0.65157 0.6609 0.20899 0.0
N459 N 0.5867 0.67357 0.26814 0.0
H460 H 0.37463 0.67488 0.2435 0.0
H461 H 0.36397 0.49487 0.22494 0.0
H462 H 0.44881 0.61687 0.21287 0.0
H463 H 0.28616 0.5513 0.24474 0.0
H464 H 0.39632 0.53922 0.22929 0.0
H465 H 0.34284 0.62995 0.25212 0.0
C466 C 0.38427 0.65269 0.23889 0.0
C467 C 0.4143 0.64956 0.22717 0.0
C468 C 0.37221 0.54198 0.23299 0.0
C469 C 0.37822 0.59825 0.23701 0.0
C470 C 0.3537 0.51661 0.2306 0.0
C471 C 0.3223 0.51947 0.23415 0.0
C472 C 0.35928 0.57058 0.23875 0.0
C473 C 0.31028 0.54817 0.24172 0.0
C474 C 0.36614 0.6271 0.24378 0.0
C475 C 0.42571 0.62034 0.22166 0.0
N476 N 0.32879 0.57273 0.2434 0.0
N477 N 0.40764 0.59588 0.22647 0.0
H478 H 0.3299 0.38983 0.29046 0.0
H479 H 0.42104 0.24774 0.21335 0.0
H480 H 0.31218 0.34637 0.18666 0.0
H481 H 0.4558 0.30833 0.29605 0.0
H482 H 0.37242 0.27378 0.21629 0.0
H483 H 0.3676 0.35082 0.30428 0.0
C484 C 0.33356 0.37178 0.27088 0.0
C485 C 0.31827 0.37152 0.23712 0.0
C486 C 0.3905 0.28094 0.23436 0.0
C487 C 0.36107 0.32689 0.25285 0.0
C488 C 0.4182 0.26595 0.23292 0.0
C489 C 0.44267 0.27628 0.25399 0.0
C490 C 0.38726 0.30634 0.25711 0.0
C491 C 0.43763 0.2999 0.27897 0.0
C492 C 0.35508 0.34959 0.27877 0.0
C493 C 0.32378 0.3476 0.21279 0.0
N494 N 0.4106 0.31449 0.27942 0.0
N495 N 0.34492 0.32637 0.221 0.0
H496 H 0.06023 0.3114 0.2248 0.0
H497 H 0.1897 0.42311 0.29535 0.0
H498 H 0.0901 0.31693 0.33737 0.0
H499 H 0.16622 0.41036 0.18145 0.0
H500 H 0.14597 0.39237 0.31284 0.0
H501 H 0.09175 0.35525 0.21012 0.0
C502 C 0.07312 0.32208 0.2465 0.0
C503 C 0.07294 0.31027 0.2822 0.0
C504 C 0.15012 0.39671 0.28404 0.0
C505 C 0.1091 0.36027 0.26567 0.0
C506 C 0.17498 0.41439 0.27408 0.0
C507 C 0.18179 0.41886 0.23691 0.0
C508 C 0.13208 0.38349 0.25658 0.0
C509 C 0.16198 0.40709 0.21044 0.0
C510 C 0.09113 0.34708 0.23813 0.0
C511 C 0.0899 0.32509 0.30935 0.0
N512 N 0.13825 0.38963 0.22076 0.0
N513 N 0.10755 0.34912 0.30045 0.0
H514 H 0.6702 0.07797 0.32667 0.0
H515 H 0.57419 0.1677 0.17651 0.0
H516 H 0.68414 0.06834 0.21008 0.0
H517 H 0.56866 0.18365 0.29314 0.0
H518 H 0.60791 0.12496 0.18816 0.0
H519 H 0.62659 0.11 0.31456 0.0
C520 C 0.66386 0.08235 0.29844 0.0
C521 C 0.68103 0.07081 0.26929 0.0
C522 C 0.59904 0.13757 0.21121 0.0
C523 C 0.63115 0.10777 0.25523 0.0
C524 C 0.57973 0.16193 0.20462 0.0
C525 C 0.5689 0.17943 0.23393 0.0
C526 C 0.60756 0.13069 0.24737 0.0
C527 C 0.57669 0.17089 0.26975 0.0
C528 C 0.63894 0.10069 0.29156 0.0
C529 C 0.6716 0.07696 0.23331 0.0
N530 N 0.59578 0.14729 0.27544 0.0
N531 N 0.64744 0.09536 0.22726 0.0
H532 H 0.81597 0.55724 0.25942 0.0
H533 H 0.91569 0.69136 0.18098 0.0
H534 H 0.81463 0.58587 0.14619 0.0
H535 H 0.92576 0.65569 0.29056 0.0
H536 H 0.88433 0.6478 0.16512 0.0
H537 H 0.86145 0.58776 0.26918 0.0
C538 C 0.82556 0.56951 0.23648 0.0
C539 C 0.81127 0.56945 0.20214 0.0
C540 C 0.8938 0.6492 0.19248 0.0
C541 C 0.86295 0.60462 0.21309 0.0
C542 C 0.91176 0.67406 0.20149 0.0
C543 C 0.92293 0.67734 0.23727 0.0
C544 C 0.88665 0.62773 0.21961 0.0
C545 C 0.9173 0.65418 0.26273 0.0
C546 C 0.85149 0.58696 0.24204 0.0
C547 C 0.8247 0.58562 0.17329 0.0
N548 N 0.89912 0.63061 0.25361 0.0
N549 N 0.8495 0.6029 0.17955 0.0
H550 H 0.30093 0.91455 0.20977 0.0
H551 H 0.43548 0.80849 0.28097 0.0
H552 H 0.32723 0.90607 0.32336 0.0
H553 H 0.39735 0.80393 0.17205 0.0
H554 H 0.40289 0.85193 0.29415 0.0
H555 H 0.34363 0.88216 0.1926 0.0
C556 C 0.31606 0.90638 0.23097 0.0
C557 C 0.3104 0.91258 0.26803 0.0
C558 C 0.40186 0.84155 0.26727 0.0
C559 C 0.35888 0.87551 0.24879 0.0
C560 C 0.42043 0.81678 0.25978 0.0
C561 C 0.41876 0.80239 0.22559 0.0
C562 C 0.38161 0.85197 0.24031 0.0
C563 C 0.39905 0.81416 0.19896 0.0
C564 C 0.34027 0.88777 0.22123 0.0
C565 C 0.33061 0.90146 0.29448 0.0
N566 N 0.38109 0.83814 0.20696 0.0
N567 N 0.35379 0.88322 0.28439 0.0
H568 H 0.19888 0.57934 0.70642 0.0
H569 H 0.06366 0.68821 0.76829 0.0
H570 H 0.16951 0.5901 0.81851 0.0
H571 H 0.1037 0.68917 0.66038 0.0
H572 H 0.09576 0.6451 0.78453 0.0
H573 H 0.15716 0.61189 0.68645 0.0
C574 C 0.1833 0.58806 0.72673 0.0
C575 C 0.18782 0.58235 0.76418 0.0
C576 C 0.09732 0.65459 0.75719 0.0
C577 C 0.14037 0.61973 0.74169 0.0
C578 C 0.07902 0.67918 0.74794 0.0
C579 C 0.08132 0.69248 0.71312 0.0
C580 C 0.11801 0.64323 0.7314 0.0
C581 C 0.10145 0.67978 0.68769 0.0
C582 C 0.15962 0.60677 0.71537 0.0
C583 C 0.167 0.59422 0.78938 0.0
N584 N 0.11916 0.656 0.69741 0.0
N585 N 0.14436 0.61259 0.77772 0.0
H586 H 0.41499 0.18148 0.83383 0.0
H587 H 0.33436 0.0819 0.67994 0.0
H588 H 0.43537 0.18711 0.71825 0.0
H589 H 0.30644 0.08339 0.79333 0.0
H590 H 0.37829 0.11248 0.69585 0.0
H591 H 0.382 0.13837 0.82157 0.0
C592 C 0.4128 0.1734 0.80589 0.0
C593 C 0.42761 0.18813 0.7769 0.0
C594 C 0.36282 0.10581 0.71739 0.0
C595 C 0.38982 0.13885 0.76271 0.0
C596 C 0.33777 0.08826 0.70835 0.0
C597 C 0.31652 0.08049 0.73531 0.0
C598 C 0.36658 0.11587 0.75362 0.0
C599 C 0.32219 0.08908 0.77169 0.0
C600 C 0.39394 0.14879 0.79894 0.0
C601 C 0.42415 0.17658 0.74134 0.0
N602 N 0.3465 0.10672 0.77973 0.0
N603 N 0.40535 0.15279 0.73518 0.0
H604 H 0.92757 0.3222 0.79894 0.0
H605 H 0.83613 0.44808 0.81305 0.0
H606 H 0.93701 0.3458 0.6846 0.0
H607 H 0.81324 0.42324 0.70191 0.0
H608 H 0.88258 0.41843 0.80812 0.0
H609 H 0.89509 0.36637 0.80751 0.0
C610 C 0.92345 0.33714 0.7759 0.0
C611 C 0.93482 0.33029 0.74101 0.0
C612 C 0.86749 0.41969 0.78476 0.0
C613 C 0.89764 0.38066 0.75044 0.0
C614 C 0.84114 0.43684 0.78736 0.0
C615 C 0.82055 0.43762 0.75802 0.0
C616 C 0.87327 0.40336 0.75254 0.0
C617 C 0.82832 0.42288 0.72532 0.0
C618 C 0.90505 0.36246 0.78081 0.0
C619 C 0.92865 0.35027 0.71197 0.0
N620 N 0.85399 0.40609 0.72355 0.0
N621 N 0.90987 0.37417 0.71714 0.0
H622 H 0.6953 0.93611 0.78992 0.0
H623 H 0.57611 0.81844 0.70705 0.0
H624 H 0.68219 0.92104 0.67399 0.0
H625 H 0.59645 0.82733 0.82239 0.0
H626 H 0.60794 0.86269 0.69466 0.0
H627 H 0.65201 0.90327 0.80256 0.0
C628 C 0.68301 0.92627 0.76714 0.0
C629 C 0.69256 0.93091 0.73093 0.0
C630 C 0.60512 0.85514 0.72272 0.0
C631 C 0.64331 0.89317 0.74506 0.0
C632 C 0.58693 0.82995 0.72977 0.0
C633 C 0.58405 0.81901 0.76569 0.0
C634 C 0.62041 0.86938 0.75185 0.0
C635 C 0.59843 0.8348 0.79419 0.0
C636 C 0.65838 0.90745 0.77432 0.0
C637 C 0.67578 0.91773 0.70238 0.0
N638 N 0.61619 0.859 0.78663 0.0
N639 N 0.65219 0.89919 0.71007 0.0
H640 H 0.01653 0.17777 0.42379 0.0
H641 H 0.93634 0.26766 0.58732 0.0
H642 H 0.97607 0.26601 0.41152 0.0
H643 H 0.98767 0.18565 0.60278 0.0
H644 H 0.94405 0.26348 0.52114 0.0
H645 H -0.00013 0.17667 0.4877 0.0
C646 C 0.00396 0.19683 0.4345 0.0
C647 C 0.99788 0.22214 0.41248 0.0
C648 C 0.95341 0.24625 0.53896 0.0
C649 C 0.97876 0.22103 0.4855 0.0
C650 C 0.94892 0.24856 0.57673 0.0
C651 C 0.96163 0.2271 0.60053 0.0
C652 C 0.97073 0.22231 0.52493 0.0
C653 C 0.97764 0.20278 0.58536 0.0
C654 C 0.99448 0.19619 0.47098 0.0
C655 C 0.98141 0.24615 0.42766 0.0
N656 N 0.98195 0.20116 0.5485 0.0
N657 N 0.97255 0.24507 0.46332 0.0
H658 H 0.73453 0.01485 0.59822 0.0
H659 H 0.82368 0.02013 0.40767 0.0
H660 H 0.82578 0.98167 0.5873 0.0
H661 H 0.72653 0.02242 0.41707 0.0
H662 H 0.82726 0.01384 0.4746 0.0
H663 H 0.73384 0.02632 0.53275 0.0
C664 C 0.75452 0.01019 0.58206 0.0
C665 C 0.78018 0.9971 0.59809 0.0
C666 C 0.80522 0.01579 0.46189 0.0
C667 C 0.77953 0.01015 0.52314 0.0
C668 C 0.80317 0.01943 0.42383 0.0
C669 C 0.77477 0.02162 0.40693 0.0
C670 C 0.77869 0.01482 0.48297 0.0
C671 C 0.74887 0.02061 0.429 0.0
C672 C 0.75407 0.01663 0.54468 0.0
C673 C 0.80548 0.9916 0.57588 0.0
N674 N 0.75146 0.01735 0.46586 0.0
N675 N 0.80452 0.99811 0.53941 0.0
H676 H 0.03834 0.81055 0.56058 0.0
H677 H 0.9429 0.72796 0.40288 0.0
H678 H 0.98512 0.73005 0.57801 0.0
H679 H 0.99288 0.81051 0.38537 0.0
H680 H 0.9576 0.72895 0.46745 0.0
H681 H 0.02203 0.81117 0.49634 0.0
C682 C 0.02333 0.79295 0.55083 0.0
C683 C 0.01311 0.77017 0.57457 0.0
C684 C 0.96526 0.74695 0.44958 0.0
C685 C 0.99424 0.77082 0.50132 0.0
C686 C 0.9568 0.74643 0.41271 0.0
C687 C 0.96673 0.76917 0.38877 0.0
C688 C 0.98389 0.77033 0.4626 0.0
C689 C 0.98473 0.79254 0.40295 0.0
C690 C 0.01394 0.79337 0.51422 0.0
C691 C 0.99358 0.748 0.56061 0.0
N692 N 0.99286 0.79245 0.43894 0.0
N693 N 0.9848 0.74887 0.52491 0.0
H694 H 0.24369 0.97415 0.60967 0.0
H695 H 0.25538 0.01683 0.39752 0.0
H696 H 0.2356 0.06566 0.56959 0.0
H697 H 0.22586 0.92905 0.43492 0.0
H698 H 0.25758 0.03394 0.46131 0.0
H699 H 0.24624 0.95614 0.54617 0.0
C700 C 0.24262 0.99044 0.58748 0.0
C701 C 0.23931 0.02141 0.59474 0.0
C702 C 0.25075 0.01091 0.45551 0.0
C703 C 0.24248 0.00104 0.52242 0.0
C704 C 0.24963 0.00109 0.4192 0.0
C705 C 0.24031 0.97153 0.41105 0.0
C706 C 0.24289 0.99089 0.48382 0.0
C707 C 0.23301 0.95207 0.44011 0.0
C708 C 0.24397 0.98015 0.55135 0.0
C709 C 0.23798 0.04158 0.56509 0.0
N710 N 0.2345 0.96209 0.47532 0.0
N711 N 0.23967 0.03104 0.53015 0.0
H712 H 0.5107 0.77874 0.90528 0.0
H713 H 0.47882 0.67574 0.08146 0.0
H714 H 0.52292 0.68189 0.90497 0.0
H715 H 0.48783 0.77289 0.08482 0.0
H716 H 0.48999 0.67692 0.01555 0.0
H717 H 0.49712 0.77638 0.97 0.0
C718 C 0.51047 0.75694 0.91886 0.0
C719 C 0.51804 0.73047 0.89983 0.0
C720 C 0.48947 0.69794 0.03077 0.0
C721 C 0.50246 0.72759 0.97395 0.0
C722 C 0.48302 0.6973 0.06828 0.0
C723 C 0.48247 0.72427 0.08852 0.0
C724 C 0.49511 0.72578 0.01349 0.0
C725 C 0.48813 0.75157 0.07023 0.0
C726 C 0.50277 0.75562 0.95584 0.0
C727 C 0.51732 0.70283 0.91874 0.0
N728 N 0.49416 0.75163 0.03375 0.0
N729 N 0.50964 0.70209 0.95486 0.0
H730 H 0.27216 0.56787 0.93391 0.0
H731 H 0.27122 0.42865 0.07255 0.0
H732 H 0.25426 0.47639 0.89889 0.0
H733 H 0.2546 0.5204 0.10743 0.0
H734 H 0.26997 0.44563 0.00855 0.0
H735 H 0.27061 0.55089 0.99788 0.0
C736 C 0.26784 0.54423 0.93973 0.0
C737 C 0.26332 0.52348 0.91116 0.0
C738 C 0.26647 0.46199 0.03023 0.0
C739 C 0.26186 0.5039 0.98404 0.0
C740 C 0.26729 0.45235 0.0667 0.0
C741 C 0.26301 0.47318 0.09523 0.0
C742 C 0.26182 0.49274 0.02234 0.0
C743 C 0.25793 0.50361 0.0862 0.0
C744 C 0.26688 0.53459 0.97618 0.0
C745 C 0.25777 0.49312 0.92015 0.0
N746 N 0.25769 0.51253 0.05052 0.0
N747 N 0.25742 0.48418 0.95583 0.0
H748 H 0.56378 0.26924 0.08511 0.0
H749 H 0.44314 0.29205 0.92349 0.0
H750 H 0.46815 0.28096 0.1031 0.0
H751 H 0.53504 0.2633 0.90504 0.0
H752 H 0.45326 0.29362 0.98941 0.0
H753 H 0.55503 0.27257 0.01883 0.0
C754 C 0.54098 0.27269 0.07509 0.0
C755 C 0.51662 0.27469 0.09951 0.0
C756 C 0.47124 0.28703 0.97094 0.0
C757 C 0.50646 0.27852 0.02401 0.0
C758 C 0.46548 0.28617 0.93333 0.0
C759 C 0.48825 0.27738 0.90887 0.0
C760 C 0.50002 0.27916 0.98414 0.0
C761 C 0.51682 0.27006 0.92304 0.0
C762 C 0.53599 0.27451 0.03732 0.0
C763 C 0.48754 0.27916 0.08517 0.0
N764 N 0.52189 0.27108 0.95979 0.0
N765 N 0.48326 0.28088 0.04834 0.0
H766 H 0.67794 0.50269 0.88722 0.0
H767 H 0.74581 0.47063 0.08723 0.0
H768 H 0.74729 0.43668 0.91001 0.0
H769 H 0.68107 0.54119 0.06446 0.0
H770 H 0.7426 0.45446 0.02332 0.0
H771 H 0.67445 0.51344 0.953 0.0
C772 C 0.69216 0.49021 0.90612 0.0
C773 C 0.71308 0.46892 0.8932 0.0
C774 C 0.72897 0.4734 0.03228 0.0
C775 C 0.70939 0.48121 0.96828 0.0
C776 C 0.73081 0.48265 0.06878 0.0
C777 C 0.71385 0.50742 0.08105 0.0
C778 C 0.71006 0.48907 0.00781 0.0
C779 C 0.69466 0.52207 0.05603 0.0
C780 C 0.69024 0.49642 0.94362 0.0
C781 C 0.73098 0.45341 0.91881 0.0
N782 N 0.6934 0.51276 0.02051 0.0
N783 N 0.72885 0.46 0.95509 0.0
loop_
_geom_bond_atom_site_label_1
_geom_bond_atom_site_label_2
_geom_bond_distance
_geom_bond_site_symmetry_2
_ccdc_geom_bond_type
In0 O1 2.294 . S
In0 O2 2.326 . S
In0 O6 2.266 . S
In0 O7 2.326 . S
In0 O8 2.266 1_455 S
In0 O9 2.326 . S
In0 O11 2.294 . S
In0 O12 2.326 . S
O1 In0 2.294 . S
O1 C10 1.240 . S
O2 In0 2.326 . S
O2 C10 1.252 . S
C3 O6 1.252 . S
C3 O7 1.260 . S
C4 O11 1.240 . S
C4 O12 1.252 . S
C5 O8 1.252 . S
C5 O9 1.260 1_655 S
O6 In0 2.266 . S
O6 C3 1.252 . S
O7 In0 2.326 . S
O7 C3 1.260 . S
O8 In0 2.266 1_655 S
O8 C5 1.252 . S
O9 In0 2.326 . S
O9 C5 1.260 1_455 S
C10 O1 1.240 . S
C10 O2 1.252 . S
O11 In0 2.294 . S
O11 C4 1.240 . S
O12 In0 2.326 . S
O12 C4 1.252 . S
In13 O14 2.294 . S
In13 O15 2.326 . S
In13 O19 2.266 . S
In13 O20 2.326 . S
In13 O21 2.266 1_545 S
In13 O22 2.326 . S
In13 O24 2.294 . S
In13 O25 2.326 . S
O14 In13 2.294 . S
O14 C23 1.240 . S
O15 In13 2.326 . S
O15 C23 1.252 . S
C16 O19 1.252 . S
C16 O20 1.260 . S
C17 O24 1.240 . S
C17 O25 1.252 . S
C18 O21 1.252 . S
C18 O22 1.260 1_565 S
O19 In13 2.266 . S
O19 C16 1.252 . S
O20 In13 2.326 . S
O20 C16 1.260 . S
O21 In13 2.266 1_565 S
O21 C18 1.252 . S
O22 In13 2.326 . S
O22 C18 1.260 1_545 S
C23 O14 1.240 . S
C23 O15 1.252 . S
O24 In13 2.294 . S
O24 C17 1.240 . S
O25 In13 2.326 . S
O25 C17 1.252 . S
In26 O27 2.294 . S
In26 O28 2.326 . S
In26 O32 2.266 1_655 S
In26 O33 2.326 . S
In26 O34 2.266 . S
In26 O35 2.326 . S
In26 O37 2.294 . S
In26 O38 2.326 . S
O27 In26 2.294 . S
O27 C36 1.240 . S
O28 In26 2.326 . S
O28 C36 1.252 . S
C29 O32 1.252 . S
C29 O33 1.260 1_455 S
C30 O37 1.240 . S
C30 O38 1.252 . S
C31 O34 1.252 . S
C31 O35 1.260 . S
O32 In26 2.266 1_455 S
O32 C29 1.252 . S
O33 In26 2.326 . S
O33 C29 1.260 1_655 S
O34 In26 2.266 . S
O34 C31 1.252 . S
O35 In26 2.326 . S
O35 C31 1.260 . S
C36 O27 1.240 . S
C36 O28 1.252 . S
O37 In26 2.294 . S
O37 C30 1.240 . S
O38 In26 2.326 . S
O38 C30 1.252 . S
In39 O40 2.294 . S
In39 O41 2.326 . S
In39 O45 2.266 1_565 S
In39 O46 2.326 . S
In39 O47 2.266 . S
In39 O48 2.326 . S
In39 O50 2.294 . S
In39 O51 2.326 . S
O40 In39 2.294 . S
O40 C49 1.240 . S
O41 In39 2.326 . S
O41 C49 1.252 . S
C42 O45 1.252 . S
C42 O46 1.260 1_545 S
C43 O50 1.240 . S
C43 O51 1.252 . S
C44 O47 1.252 . S
C44 O48 1.260 . S
O45 In39 2.266 1_545 S
O45 C42 1.252 . S
O46 In39 2.326 . S
O46 C42 1.260 1_565 S
O47 In39 2.266 . S
O47 C44 1.252 . S
O48 In39 2.326 . S
O48 C44 1.260 . S
C49 O40 1.240 . S
C49 O41 1.252 . S
O50 In39 2.294 . S
O50 C43 1.240 . S
O51 In39 2.326 . S
O51 C43 1.252 . S
In52 O53 2.294 . S
In52 O54 2.326 . S
In52 O58 2.266 . S
In52 O59 2.326 . S
In52 O60 2.266 1_455 S
In52 O61 2.326 . S
In52 O63 2.294 . S
In52 O64 2.326 . S
O53 In52 2.294 . S
O53 C62 1.240 . S
O54 In52 2.326 . S
O54 C62 1.252 . S
C55 O58 1.252 . S
C55 O59 1.260 . S
C56 O63 1.240 . S
C56 O64 1.252 . S
C57 O60 1.252 . S
C57 O61 1.260 1_655 S
O58 In52 2.266 . S
O58 C55 1.252 . S
O59 In52 2.326 . S
O59 C55 1.260 . S
O60 In52 2.266 1_655 S
O60 C57 1.252 . S
O61 In52 2.326 . S
O61 C57 1.260 1_455 S
C62 O53 1.240 . S
C62 O54 1.252 . S
O63 In52 2.294 . S
O63 C56 1.240 . S
O64 In52 2.326 . S
O64 C56 1.252 . S
In65 O66 2.294 . S
In65 O67 2.326 . S
In65 O71 2.266 . S
In65 O72 2.326 . S
In65 O73 2.266 1_545 S
In65 O74 2.326 . S
In65 O76 2.294 . S
In65 O77 2.326 . S
O66 In65 2.294 . S
O66 C75 1.240 . S
O67 In65 2.326 . S
O67 C75 1.252 . S
C68 O71 1.252 . S
C68 O72 1.260 . S
C69 O76 1.240 . S
C69 O77 1.252 . S
C70 O73 1.252 . S
C70 O74 1.260 1_565 S
O71 In65 2.266 . S
O71 C68 1.252 . S
O72 In65 2.326 . S
O72 C68 1.260 . S
O73 In65 2.266 1_565 S
O73 C70 1.252 . S
O74 In65 2.326 . S
O74 C70 1.260 1_545 S
C75 O66 1.240 . S
C75 O67 1.252 . S
O76 In65 2.294 . S
O76 C69 1.240 . S
O77 In65 2.326 . S
O77 C69 1.252 . S
In78 O79 2.294 . S
In78 O80 2.326 . S
In78 O84 2.266 1_655 S
In78 O85 2.326 . S
In78 O86 2.266 . S
In78 O87 2.326 . S
In78 O89 2.294 . S
In78 O90 2.326 . S
O79 In78 2.294 . S
O79 C88 1.240 . S
O80 In78 2.326 . S
O80 C88 1.252 . S
C81 O84 1.252 . S
C81 O85 1.260 1_455 S
C82 O89 1.240 . S
C82 O90 1.252 . S
C83 O86 1.252 . S
C83 O87 1.260 . S
O84 In78 2.266 1_455 S
O84 C81 1.252 . S
O85 In78 2.326 . S
O85 C81 1.260 1_655 S
O86 In78 2.266 . S
O86 C83 1.252 . S
O87 In78 2.326 . S
O87 C83 1.260 . S
C88 O79 1.240 . S
C88 O80 1.252 . S
O89 In78 2.294 . S
O89 C82 1.240 . S
O90 In78 2.326 . S
O90 C82 1.252 . S
In91 O92 2.294 . S
In91 O93 2.326 . S
In91 O97 2.266 . S
In91 O98 2.326 . S
In91 O99 2.266 1_565 S
In91 O100 2.326 . S
In91 O102 2.294 . S
In91 O103 2.326 . S
O92 In91 2.294 . S
O92 C101 1.240 . S
O93 In91 2.326 . S
O93 C101 1.252 . S
C94 O97 1.252 . S
C94 O98 1.260 . S
C95 O102 1.240 . S
C95 O103 1.252 . S
C96 O99 1.252 . S
C96 O100 1.260 1_545 S
O97 In91 2.266 . S
O97 C94 1.252 . S
O98 In91 2.326 . S
O98 C94 1.260 . S
O99 In91 2.266 1_545 S
O99 C96 1.252 . S
O100 In91 2.326 . S
O100 C96 1.260 1_565 S
C101 O92 1.240 . S
C101 O93 1.252 . S
O102 In91 2.294 . S
O102 C95 1.240 . S
O103 In91 2.326 . S
O103 C95 1.252 . S
In104 O105 2.294 . S
In104 O106 2.326 . S
In104 O110 2.266 . S
In104 O111 2.326 . S
In104 O112 2.266 . S
In104 O113 2.326 . S
In104 O115 2.294 . S
In104 O116 2.326 . S
O105 In104 2.294 . S
O105 C114 1.240 . S
O106 In104 2.326 . S
O106 C114 1.252 . S
C107 O110 1.252 . S
C107 O111 1.260 . S
C108 O115 1.240 . S
C108 O116 1.252 . S
C109 O112 1.252 . S
C109 O113 1.260 . S
O110 In104 2.266 . S
O110 C107 1.252 . S
O111 In104 2.326 . S
O111 C107 1.260 . S
O112 In104 2.266 . S
O112 C109 1.252 . S
O113 In104 2.326 . S
O113 C109 1.260 . S
C114 O105 1.240 . S
C114 O106 1.252 . S
O115 In104 2.294 . S
O115 C108 1.240 . S
O116 In104 2.326 . S
O116 C108 1.252 . S
In117 O118 2.294 . S
In117 O119 2.326 . S
In117 O123 2.266 . S
In117 O124 2.326 . S
In117 O125 2.266 . S
In117 O126 2.326 . S
In117 O128 2.294 . S
In117 O129 2.326 . S
O118 In117 2.294 . S
O118 C127 1.240 . S
O119 In117 2.326 . S
O119 C127 1.252 . S
C120 O123 1.252 . S
C120 O124 1.260 . S
C121 O128 1.240 . S
C121 O129 1.252 . S
C122 O125 1.252 . S
C122 O126 1.260 . S
O123 In117 2.266 . S
O123 C120 1.252 . S
O124 In117 2.326 . S
O124 C120 1.260 . S
O125 In117 2.266 . S
O125 C122 1.252 . S
O126 In117 2.326 . S
O126 C122 1.260 . S
C127 O118 1.240 . S
C127 O119 1.252 . S
O128 In117 2.294 . S
O128 C121 1.240 . S
O129 In117 2.326 . S
O129 C121 1.252 . S
In130 O131 2.294 . S
In130 O132 2.326 . S
In130 O136 2.266 . S
In130 O137 2.326 . S
In130 O138 2.266 . S
In130 O139 2.326 . S
In130 O141 2.294 . S
In130 O142 2.326 . S
O131 In130 2.294 . S
O131 C140 1.240 . S
O132 In130 2.326 . S
O132 C140 1.252 . S
C133 O136 1.252 . S
C133 O137 1.260 . S
C134 O141 1.240 . S
C134 O142 1.252 . S
C135 O138 1.252 . S
C135 O139 1.260 . S
O136 In130 2.266 . S
O136 C133 1.252 . S
O137 In130 2.326 . S
O137 C133 1.260 . S
O138 In130 2.266 . S
O138 C135 1.252 . S
O139 In130 2.326 . S
O139 C135 1.260 . S
C140 O131 1.240 . S
C140 O132 1.252 . S
O141 In130 2.294 . S
O141 C134 1.240 . S
O142 In130 2.326 . S
O142 C134 1.252 . S
In143 O144 2.294 . S
In143 O145 2.326 . S
In143 O149 2.266 . S
In143 O150 2.326 . S
In143 O151 2.266 . S
In143 O152 2.326 . S
In143 O154 2.294 . S
In143 O155 2.326 . S
O144 In143 2.294 . S
O144 C153 1.240 . S
O145 In143 2.326 . S
O145 C153 1.252 . S
C146 O149 1.252 . S
C146 O150 1.260 . S
C147 O154 1.240 . S
C147 O155 1.252 . S
C148 O151 1.252 . S
C148 O152 1.260 . S
O149 In143 2.266 . S
O149 C146 1.252 . S
O150 In143 2.326 . S
O150 C146 1.260 . S
O151 In143 2.266 . S
O151 C148 1.252 . S
O152 In143 2.326 . S
O152 C148 1.260 . S
C153 O144 1.240 . S
C153 O145 1.252 . S
O154 In143 2.294 . S
O154 C147 1.240 . S
O155 In143 2.326 . S
O155 C147 1.252 . S
In156 O157 2.294 . S
In156 O158 2.326 . S
In156 O162 2.266 . S
In156 O163 2.326 . S
In156 O164 2.266 . S
In156 O165 2.326 . S
In156 O167 2.294 . S
In156 O168 2.326 . S
O157 In156 2.294 . S
O157 C166 1.240 . S
O158 In156 2.326 . S
O158 C166 1.252 . S
C159 O162 1.252 . S
C159 O163 1.260 . S
C160 O167 1.240 . S
C160 O168 1.252 . S
C161 O164 1.252 . S
C161 O165 1.260 . S
O162 In156 2.266 . S
O162 C159 1.252 . S
O163 In156 2.326 . S
O163 C159 1.260 . S
O164 In156 2.266 . S
O164 C161 1.252 . S
O165 In156 2.326 . S
O165 C161 1.260 . S
C166 O157 1.240 . S
C166 O158 1.252 . S
O167 In156 2.294 . S
O167 C160 1.240 . S
O168 In156 2.326 . S
O168 C160 1.252 . S
In169 O170 2.294 . S
In169 O171 2.326 . S
In169 O175 2.266 . S
In169 O176 2.326 . S
In169 O177 2.266 . S
In169 O178 2.326 . S
In169 O180 2.294 . S
In169 O181 2.326 . S
O170 In169 2.294 . S
O170 C179 1.240 . S
O171 In169 2.326 . S
O171 C179 1.252 . S
C172 O175 1.252 . S
C172 O176 1.260 . S
C173 O180 1.240 . S
C173 O181 1.252 . S
C174 O177 1.252 . S
C174 O178 1.260 . S
O175 In169 2.266 . S
O175 C172 1.252 . S
O176 In169 2.326 . S
O176 C172 1.260 . S
O177 In169 2.266 . S
O177 C174 1.252 . S
O178 In169 2.326 . S
O178 C174 1.260 . S
C179 O170 1.240 . S
C179 O171 1.252 . S
O180 In169 2.294 . S
O180 C173 1.240 . S
O181 In169 2.326 . S
O181 C173 1.252 . S
In182 O183 2.294 . S
In182 O184 2.326 . S
In182 O188 2.266 . S
In182 O189 2.326 . S
In182 O190 2.266 . S
In182 O191 2.326 . S
In182 O193 2.294 . S
In182 O194 2.326 . S
O183 In182 2.294 . S
O183 C192 1.240 . S
O184 In182 2.326 . S
O184 C192 1.252 . S
C185 O188 1.252 . S
C185 O189 1.260 . S
C186 O193 1.240 . S
C186 O194 1.252 . S
C187 O190 1.252 . S
C187 O191 1.260 . S
O188 In182 2.266 . S
O188 C185 1.252 . S
O189 In182 2.326 . S
O189 C185 1.260 . S
O190 In182 2.266 . S
O190 C187 1.252 . S
O191 In182 2.326 . S
O191 C187 1.260 . S
C192 O183 1.240 . S
C192 O184 1.252 . S
O193 In182 2.294 . S
O193 C186 1.240 . S
O194 In182 2.326 . S
O194 C186 1.252 . S
In195 O196 2.294 . S
In195 O197 2.326 . S
In195 O201 2.266 . S
In195 O202 2.326 . S
In195 O203 2.266 . S
In195 O204 2.326 . S
In195 O206 2.294 . S
In195 O207 2.326 . S
O196 In195 2.294 . S
O196 C205 1.240 . S
O197 In195 2.326 . S
O197 C205 1.252 . S
C198 O201 1.252 . S
C198 O202 1.260 . S
C199 O206 1.240 . S
C199 O207 1.252 . S
C200 O203 1.252 . S
C200 O204 1.260 . S
O201 In195 2.266 . S
O201 C198 1.252 . S
O202 In195 2.326 . S
O202 C198 1.260 . S
O203 In195 2.266 . S
O203 C200 1.252 . S
O204 In195 2.326 . S
O204 C200 1.260 . S
C205 O196 1.240 . S
C205 O197 1.252 . S
O206 In195 2.294 . S
O206 C199 1.240 . S
O207 In195 2.326 . S
O207 C199 1.252 . S
H208 C214 0.930 . S
H209 C218 0.930 . S
H210 C223 0.929 . S
H211 C221 0.929 . S
H212 C216 0.929 . S
H213 C222 0.929 . S
C214 H208 0.930 . S
C214 C215 1.367 . S
C214 C222 1.378 . S
C215 C214 1.367 . S
C215 C223 1.433 . S
C216 H212 0.929 . S
C216 C218 1.378 . S
C216 C220 1.350 . S
C217 C220 1.463 . S
C217 C222 1.350 . S
C217 N225 1.427 . S
C218 H209 0.930 . S
C218 C216 1.378 . S
C218 C219 1.367 . S
C219 C218 1.367 . S
C219 C221 1.433 . S
C220 C216 1.350 . S
C220 C217 1.463 . S
C220 N224 1.427 . S
C221 H211 0.929 . S
C221 C219 1.433 . S
C221 N224 1.384 . S
C222 H213 0.929 . S
C222 C214 1.378 . S
C222 C217 1.350 . S
C223 H210 0.929 . S
C223 C215 1.433 . S
C223 N225 1.384 . S
N224 C220 1.427 . S
N224 C221 1.384 . S
N225 C217 1.427 . S
N225 C223 1.384 . S
H226 C232 0.930 . S
H227 C236 0.930 . S
H228 C241 0.929 . S
H229 C239 0.929 . S
H230 C234 0.929 . S
H231 C240 0.929 . S
C232 H226 0.930 . S
C232 C233 1.367 . S
C232 C240 1.378 . S
C233 C232 1.367 . S
C233 C241 1.433 . S
C234 H230 0.929 . S
C234 C236 1.378 . S
C234 C238 1.350 . S
C235 C238 1.463 . S
C235 C240 1.350 . S
C235 N243 1.427 . S
C236 H227 0.930 . S
C236 C234 1.378 . S
C236 C237 1.367 . S
C237 C236 1.367 . S
C237 C239 1.433 . S
C238 C234 1.350 . S
C238 C235 1.463 . S
C238 N242 1.427 . S
C239 H229 0.929 . S
C239 C237 1.433 . S
C239 N242 1.384 . S
C240 H231 0.929 . S
C240 C232 1.378 . S
C240 C235 1.350 . S
C241 H228 0.929 . S
C241 C233 1.433 . S
C241 N243 1.384 . S
N242 C238 1.427 . S
N242 C239 1.384 . S
N243 C235 1.427 . S
N243 C241 1.384 . S
H244 C250 0.930 . S
H245 C254 0.930 . S
H246 C259 0.929 . S
H247 C257 0.929 . S
H248 C252 0.929 . S
H249 C258 0.929 . S
C250 H244 0.930 . S
C250 C251 1.367 . S
C250 C258 1.378 . S
C251 C250 1.367 . S
C251 C259 1.433 . S
C252 H248 0.929 . S
C252 C254 1.378 . S
C252 C256 1.350 . S
C253 C256 1.463 . S
C253 C258 1.350 . S
C253 N261 1.427 . S
C254 H245 0.930 . S
C254 C252 1.378 . S
C254 C255 1.367 . S
C255 C254 1.367 . S
C255 C257 1.433 . S
C256 C252 1.350 . S
C256 C253 1.463 . S
C256 N260 1.427 . S
C257 H247 0.929 . S
C257 C255 1.433 . S
C257 N260 1.384 . S
C258 H249 0.929 . S
C258 C250 1.378 . S
C258 C253 1.350 . S
C259 H246 0.929 . S
C259 C251 1.433 . S
C259 N261 1.384 . S
N260 C256 1.427 . S
N260 C257 1.384 . S
N261 C253 1.427 . S
N261 C259 1.384 . S
H262 C268 0.930 . S
H263 C272 0.930 . S
H264 C277 0.929 . S
H265 C275 0.929 . S
H266 C270 0.929 . S
H267 C276 0.929 . S
C268 H262 0.930 . S
C268 C269 1.367 . S
C268 C276 1.378 . S
C269 C268 1.367 . S
C269 C277 1.433 . S
C270 H266 0.929 . S
C270 C272 1.378 . S
C270 C274 1.350 . S
C271 C274 1.463 . S
C271 C276 1.350 . S
C271 N279 1.427 . S
C272 H263 0.930 . S
C272 C270 1.378 . S
C272 C273 1.367 . S
C273 C272 1.367 . S
C273 C275 1.433 . S
C274 C270 1.350 . S
C274 C271 1.463 . S
C274 N278 1.427 . S
C275 H265 0.929 . S
C275 C273 1.433 . S
C275 N278 1.384 . S
C276 H267 0.929 . S
C276 C268 1.378 . S
C276 C271 1.350 . S
C277 H264 0.929 . S
C277 C269 1.433 . S
C277 N279 1.384 . S
N278 C274 1.427 . S
N278 C275 1.384 . S
N279 C271 1.427 . S
N279 C277 1.384 . S
H280 C286 0.930 . S
H281 C290 0.930 . S
H282 C295 0.929 . S
H283 C293 0.929 . S
H284 C288 0.929 . S
H285 C294 0.929 . S
C286 H280 0.930 . S
C286 C287 1.367 . S
C286 C294 1.378 . S
C287 C286 1.367 . S
C287 C295 1.433 . S
C288 H284 0.929 . S
C288 C290 1.378 . S
C288 C292 1.350 . S
C289 C292 1.463 . S
C289 C294 1.350 . S
C289 N297 1.427 . S
C290 H281 0.930 . S
C290 C288 1.378 . S
C290 C291 1.367 . S
C291 C290 1.367 . S
C291 C293 1.433 . S
C292 C288 1.350 . S
C292 C289 1.463 . S
C292 N296 1.427 . S
C293 H283 0.929 . S
C293 C291 1.433 . S
C293 N296 1.384 . S
C294 H285 0.929 . S
C294 C286 1.378 . S
C294 C289 1.350 . S
C295 H282 0.929 . S
C295 C287 1.433 . S
C295 N297 1.384 . S
N296 C292 1.427 . S
N296 C293 1.384 . S
N297 C289 1.427 . S
N297 C295 1.384 . S
H298 C304 0.930 . S
H299 C308 0.930 . S
H300 C313 0.929 . S
H301 C311 0.929 . S
H302 C306 0.929 . S
H303 C312 0.929 . S
C304 H298 0.930 . S
C304 C305 1.367 . S
C304 C312 1.378 . S
C305 C304 1.367 . S
C305 C313 1.433 . S
C306 H302 0.929 . S
C306 C308 1.378 . S
C306 C310 1.350 . S
C307 C310 1.463 . S
C307 C312 1.350 . S
C307 N315 1.427 . S
C308 H299 0.930 . S
C308 C306 1.378 . S
C308 C309 1.367 . S
C309 C308 1.367 . S
C309 C311 1.433 . S
C310 C306 1.350 . S
C310 C307 1.463 . S
C310 N314 1.427 . S
C311 H301 0.929 . S
C311 C309 1.433 . S
C311 N314 1.384 . S
C312 H303 0.929 . S
C312 C304 1.378 . S
C312 C307 1.350 . S
C313 H300 0.929 . S
C313 C305 1.433 . S
C313 N315 1.384 . S
N314 C310 1.427 . S
N314 C311 1.384 . S
N315 C307 1.427 . S
N315 C313 1.384 . S
H316 C322 0.930 . S
H317 C326 0.930 . S
H318 C331 0.929 . S
H319 C329 0.929 . S
H320 C324 0.929 . S
H321 C330 0.929 . S
C322 H316 0.930 . S
C322 C323 1.367 . S
C322 C330 1.378 . S
C323 C322 1.367 . S
C323 C331 1.433 . S
C324 H320 0.929 . S
C324 C326 1.378 . S
C324 C328 1.350 . S
C325 C328 1.463 . S
C325 C330 1.350 . S
C325 N333 1.427 . S
C326 H317 0.930 . S
C326 C324 1.378 . S
C326 C327 1.367 . S
C327 C326 1.367 . S
C327 C329 1.433 . S
C328 C324 1.350 . S
C328 C325 1.463 . S
C328 N332 1.427 . S
C329 H319 0.929 . S
C329 C327 1.433 . S
C329 N332 1.384 . S
C330 H321 0.929 . S
C330 C322 1.378 . S
C330 C325 1.350 . S
C331 H318 0.929 . S
C331 C323 1.433 . S
C331 N333 1.384 . S
N332 C328 1.427 . S
N332 C329 1.384 . S
N333 C325 1.427 . S
N333 C331 1.384 . S
H334 C340 0.930 . S
H335 C344 0.930 . S
H336 C349 0.929 . S
H337 C347 0.929 . S
H338 C342 0.929 . S
H339 C348 0.929 . S
C340 H334 0.930 . S
C340 C341 1.367 . S
C340 C348 1.378 . S
C341 C340 1.367 . S
C341 C349 1.433 . S
C342 H338 0.929 . S
C342 C344 1.378 . S
C342 C346 1.350 . S
C343 C346 1.463 . S
C343 C348 1.350 . S
C343 N351 1.427 . S
C344 H335 0.930 . S
C344 C342 1.378 . S
C344 C345 1.367 . S
C345 C344 1.367 . S
C345 C347 1.433 . S
C346 C342 1.350 . S
C346 C343 1.463 . S
C346 N350 1.427 . S
C347 H337 0.929 . S
C347 C345 1.433 . S
C347 N350 1.384 . S
C348 H339 0.929 . S
C348 C340 1.378 . S
C348 C343 1.350 . S
C349 H336 0.929 . S
C349 C341 1.433 . S
C349 N351 1.384 . S
N350 C346 1.427 . S
N350 C347 1.384 . S
N351 C343 1.427 . S
N351 C349 1.384 . S
H352 C358 0.930 . S
H353 C362 0.930 . S
H354 C367 0.929 . S
H355 C365 0.929 . S
H356 C360 0.929 . S
H357 C366 0.929 . S
C358 H352 0.930 . S
C358 C359 1.367 . S
C358 C366 1.378 . S
C359 C358 1.367 . S
C359 C367 1.433 . S
C360 H356 0.929 . S
C360 C362 1.378 . S
C360 C364 1.350 . S
C361 C364 1.463 . S
C361 C366 1.350 . S
C361 N369 1.427 . S
C362 H353 0.930 . S
C362 C360 1.378 . S
C362 C363 1.367 . S
C363 C362 1.367 . S
C363 C365 1.433 . S
C364 C360 1.350 . S
C364 C361 1.463 . S
C364 N368 1.427 . S
C365 H355 0.929 . S
C365 C363 1.433 . S
C365 N368 1.384 . S
C366 H357 0.929 . S
C366 C358 1.378 . S
C366 C361 1.350 . S
C367 H354 0.929 . S
C367 C359 1.433 . S
C367 N369 1.384 . S
N368 C364 1.427 . S
N368 C365 1.384 . S
N369 C361 1.427 . S
N369 C367 1.384 . S
H370 C376 0.930 . S
H371 C380 0.930 . S
H372 C385 0.929 . S
H373 C383 0.929 . S
H374 C378 0.929 . S
H375 C384 0.929 . S
C376 H370 0.930 . S
C376 C377 1.367 . S
C376 C384 1.378 . S
C377 C376 1.367 . S
C377 C385 1.433 . S
C378 H374 0.929 . S
C378 C380 1.378 . S
C378 C382 1.350 . S
C379 C382 1.463 . S
C379 C384 1.350 . S
C379 N387 1.427 . S
C380 H371 0.930 . S
C380 C378 1.378 . S
C380 C381 1.367 . S
C381 C380 1.367 . S
C381 C383 1.433 . S
C382 C378 1.350 . S
C382 C379 1.463 . S
C382 N386 1.427 . S
C383 H373 0.929 . S
C383 C381 1.433 . S
C383 N386 1.384 . S
C384 H375 0.929 . S
C384 C376 1.378 . S
C384 C379 1.350 . S
C385 H372 0.929 . S
C385 C377 1.433 . S
C385 N387 1.384 . S
N386 C382 1.427 . S
N386 C383 1.384 . S
N387 C379 1.427 . S
N387 C385 1.384 . S
H388 C394 0.930 . S
H389 C398 0.930 . S
H390 C403 0.929 . S
H391 C401 0.929 . S
H392 C396 0.929 . S
H393 C402 0.929 . S
C394 H388 0.930 . S
C394 C395 1.367 . S
C394 C402 1.378 . S
C395 C394 1.367 . S
C395 C403 1.433 . S
C396 H392 0.929 . S
C396 C398 1.378 . S
C396 C400 1.350 . S
C397 C400 1.463 . S
C397 C402 1.350 . S
C397 N405 1.427 . S
C398 H389 0.930 . S
C398 C396 1.378 . S
C398 C399 1.367 . S
C399 C398 1.367 . S
C399 C401 1.433 . S
C400 C396 1.350 . S
C400 C397 1.463 . S
C400 N404 1.427 . S
C401 H391 0.929 . S
C401 C399 1.433 . S
C401 N404 1.384 . S
C402 H393 0.929 . S
C402 C394 1.378 . S
C402 C397 1.350 . S
C403 H390 0.929 . S
C403 C395 1.433 . S
C403 N405 1.384 . S
N404 C400 1.427 . S
N404 C401 1.384 . S
N405 C397 1.427 . S
N405 C403 1.384 . S
H406 C412 0.930 . S
H407 C416 0.930 . S
H408 C421 0.929 . S
H409 C419 0.929 . S
H410 C414 0.929 . S
H411 C420 0.929 . S
C412 H406 0.930 . S
C412 C413 1.367 . S
C412 C420 1.378 . S
C413 C412 1.367 . S
C413 C421 1.433 . S
C414 H410 0.929 . S
C414 C416 1.378 . S
C414 C418 1.350 . S
C415 C418 1.463 . S
C415 C420 1.350 . S
C415 N423 1.427 . S
C416 H407 0.930 . S
C416 C414 1.378 . S
C416 C417 1.367 . S
C417 C416 1.367 . S
C417 C419 1.433 . S
C418 C414 1.350 . S
C418 C415 1.463 . S
C418 N422 1.427 . S
C419 H409 0.929 . S
C419 C417 1.433 . S
C419 N422 1.384 . S
C420 H411 0.929 . S
C420 C412 1.378 . S
C420 C415 1.350 . S
C421 H408 0.929 . S
C421 C413 1.433 . S
C421 N423 1.384 . S
N422 C418 1.427 . S
N422 C419 1.384 . S
N423 C415 1.427 . S
N423 C421 1.384 . S
H424 C430 0.930 . S
H425 C434 0.930 . S
H426 C439 0.929 . S
H427 C437 0.929 . S
H428 C432 0.929 . S
H429 C438 0.929 . S
C430 H424 0.930 . S
C430 C431 1.367 . S
C430 C438 1.378 . S
C431 C430 1.367 . S
C431 C439 1.433 . S
C432 H428 0.929 . S
C432 C434 1.378 . S
C432 C436 1.350 . S
C433 C436 1.463 . S
C433 C438 1.350 . S
C433 N441 1.427 . S
C434 H425 0.930 . S
C434 C432 1.378 . S
C434 C435 1.367 . S
C435 C434 1.367 . S
C435 C437 1.433 . S
C436 C432 1.350 . S
C436 C433 1.463 . S
C436 N440 1.427 . S
C437 H427 0.929 . S
C437 C435 1.433 . S
C437 N440 1.384 . S
C438 H429 0.929 . S
C438 C430 1.378 . S
C438 C433 1.350 . S
C439 H426 0.929 . S
C439 C431 1.433 . S
C439 N441 1.384 . S
N440 C436 1.427 . S
N440 C437 1.384 . S
N441 C433 1.427 . S
N441 C439 1.384 . S
H442 C448 0.930 . S
H443 C452 0.930 . S
H444 C457 0.929 . S
H445 C455 0.929 . S
H446 C450 0.929 . S
H447 C456 0.929 . S
C448 H442 0.930 . S
C448 C449 1.367 . S
C448 C456 1.378 . S
C449 C448 1.367 . S
C449 C457 1.433 . S
C450 H446 0.929 . S
C450 C452 1.378 . S
C450 C454 1.350 . S
C451 C454 1.463 . S
C451 C456 1.350 . S
C451 N459 1.427 . S
C452 H443 0.930 . S
C452 C450 1.378 . S
C452 C453 1.367 . S
C453 C452 1.367 . S
C453 C455 1.433 . S
C454 C450 1.350 . S
C454 C451 1.463 . S
C454 N458 1.427 . S
C455 H445 0.929 . S
C455 C453 1.433 . S
C455 N458 1.384 . S
C456 H447 0.929 . S
C456 C448 1.378 . S
C456 C451 1.350 . S
C457 H444 0.929 . S
C457 C449 1.433 . S
C457 N459 1.384 . S
N458 C454 1.427 . S
N458 C455 1.384 . S
N459 C451 1.427 . S
N459 C457 1.384 . S
H460 C466 0.930 . S
H461 C470 0.930 . S
H462 C475 0.929 . S
H463 C473 0.929 . S
H464 C468 0.929 . S
H465 C474 0.929 . S
C466 H460 0.930 . S
C466 C467 1.367 . S
C466 C474 1.378 . S
C467 C466 1.367 . S
C467 C475 1.433 . S
C468 H464 0.929 . S
C468 C470 1.378 . S
C468 C472 1.350 . S
C469 C472 1.463 . S
C469 C474 1.350 . S
C469 N477 1.427 . S
C470 H461 0.930 . S
C470 C468 1.378 . S
C470 C471 1.367 . S
C471 C470 1.367 . S
C471 C473 1.433 . S
C472 C468 1.350 . S
C472 C469 1.463 . S
C472 N476 1.427 . S
C473 H463 0.929 . S
C473 C471 1.433 . S
C473 N476 1.384 . S
C474 H465 0.929 . S
C474 C466 1.378 . S
C474 C469 1.350 . S
C475 H462 0.929 . S
C475 C467 1.433 . S
C475 N477 1.384 . S
N476 C472 1.427 . S
N476 C473 1.384 . S
N477 C469 1.427 . S
N477 C475 1.384 . S
H478 C484 0.930 . S
H479 C488 0.930 . S
H480 C493 0.929 . S
H481 C491 0.929 . S
H482 C486 0.929 . S
H483 C492 0.929 . S
C484 H478 0.930 . S
C484 C485 1.367 . S
C484 C492 1.378 . S
C485 C484 1.367 . S
C485 C493 1.433 . S
C486 H482 0.929 . S
C486 C488 1.378 . S
C486 C490 1.350 . S
C487 C490 1.463 . S
C487 C492 1.350 . S
C487 N495 1.427 . S
C488 H479 0.930 . S
C488 C486 1.378 . S
C488 C489 1.367 . S
C489 C488 1.367 . S
C489 C491 1.433 . S
C490 C486 1.350 . S
C490 C487 1.463 . S
C490 N494 1.427 . S
C491 H481 0.929 . S
C491 C489 1.433 . S
C491 N494 1.384 . S
C492 H483 0.929 . S
C492 C484 1.378 . S
C492 C487 1.350 . S
C493 H480 0.929 . S
C493 C485 1.433 . S
C493 N495 1.384 . S
N494 C490 1.427 . S
N494 C491 1.384 . S
N495 C487 1.427 . S
N495 C493 1.384 . S
H496 C502 0.930 . S
H497 C506 0.930 . S
H498 C511 0.929 . S
H499 C509 0.929 . S
H500 C504 0.929 . S
H501 C510 0.929 . S
C502 H496 0.930 . S
C502 C503 1.367 . S
C502 C510 1.378 . S
C503 C502 1.367 . S
C503 C511 1.433 . S
C504 H500 0.929 . S
C504 C506 1.378 . S
C504 C508 1.350 . S
C505 C508 1.463 . S
C505 C510 1.350 . S
C505 N513 1.427 . S
C506 H497 0.930 . S
C506 C504 1.378 . S
C506 C507 1.367 . S
C507 C506 1.367 . S
C507 C509 1.433 . S
C508 C504 1.350 . S
C508 C505 1.463 . S
C508 N512 1.427 . S
C509 H499 0.929 . S
C509 C507 1.433 . S
C509 N512 1.384 . S
C510 H501 0.929 . S
C510 C502 1.378 . S
C510 C505 1.350 . S
C511 H498 0.929 . S
C511 C503 1.433 . S
C511 N513 1.384 . S
N512 C508 1.427 . S
N512 C509 1.384 . S
N513 C505 1.427 . S
N513 C511 1.384 . S
H514 C520 0.930 . S
H515 C524 0.930 . S
H516 C529 0.929 . S
H517 C527 0.929 . S
H518 C522 0.929 . S
H519 C528 0.929 . S
C520 H514 0.930 . S
C520 C521 1.367 . S
C520 C528 1.378 . S
C521 C520 1.367 . S
C521 C529 1.433 . S
C522 H518 0.929 . S
C522 C524 1.378 . S
C522 C526 1.350 . S
C523 C526 1.463 . S
C523 C528 1.350 . S
C523 N531 1.427 . S
C524 H515 0.930 . S
C524 C522 1.378 . S
C524 C525 1.367 . S
C525 C524 1.367 . S
C525 C527 1.433 . S
C526 C522 1.350 . S
C526 C523 1.463 . S
C526 N530 1.427 . S
C527 H517 0.929 . S
C527 C525 1.433 . S
C527 N530 1.384 . S
C528 H519 0.929 . S
C528 C520 1.378 . S
C528 C523 1.350 . S
C529 H516 0.929 . S
C529 C521 1.433 . S
C529 N531 1.384 . S
N530 C526 1.427 . S
N530 C527 1.384 . S
N531 C523 1.427 . S
N531 C529 1.384 . S
H532 C538 0.930 . S
H533 C542 0.930 . S
H534 C547 0.929 . S
H535 C545 0.929 . S
H536 C540 0.929 . S
H537 C546 0.929 . S
C538 H532 0.930 . S
C538 C539 1.367 . S
C538 C546 1.378 . S
C539 C538 1.367 . S
C539 C547 1.433 . S
C540 H536 0.929 . S
C540 C542 1.378 . S
C540 C544 1.350 . S
C541 C544 1.463 . S
C541 C546 1.350 . S
C541 N549 1.427 . S
C542 H533 0.930 . S
C542 C540 1.378 . S
C542 C543 1.367 . S
C543 C542 1.367 . S
C543 C545 1.433 . S
C544 C540 1.350 . S
C544 C541 1.463 . S
C544 N548 1.427 . S
C545 H535 0.929 . S
C545 C543 1.433 . S
C545 N548 1.384 . S
C546 H537 0.929 . S
C546 C538 1.378 . S
C546 C541 1.350 . S
C547 H534 0.929 . S
C547 C539 1.433 . S
C547 N549 1.384 . S
N548 C544 1.427 . S
N548 C545 1.384 . S
N549 C541 1.427 . S
N549 C547 1.384 . S
H550 C556 0.930 . S
H551 C560 0.930 . S
H552 C565 0.929 . S
H553 C563 0.929 . S
H554 C558 0.929 . S
H555 C564 0.929 . S
C556 H550 0.930 . S
C556 C557 1.367 . S
C556 C564 1.378 . S
C557 C556 1.367 . S
C557 C565 1.433 . S
C558 H554 0.929 . S
C558 C560 1.378 . S
C558 C562 1.350 . S
C559 C562 1.463 . S
C559 C564 1.350 . S
C559 N567 1.427 . S
C560 H551 0.930 . S
C560 C558 1.378 . S
C560 C561 1.367 . S
C561 C560 1.367 . S
C561 C563 1.433 . S
C562 C558 1.350 . S
C562 C559 1.463 . S
C562 N566 1.427 . S
C563 H553 0.929 . S
C563 C561 1.433 . S
C563 N566 1.384 . S
C564 H555 0.929 . S
C564 C556 1.378 . S
C564 C559 1.350 . S
C565 H552 0.929 . S
C565 C557 1.433 . S
C565 N567 1.384 . S
N566 C562 1.427 . S
N566 C563 1.384 . S
N567 C559 1.427 . S
N567 C565 1.384 . S
H568 C574 0.930 . S
H569 C578 0.930 . S
H570 C583 0.929 . S
H571 C581 0.929 . S
H572 C576 0.929 . S
H573 C582 0.929 . S
C574 H568 0.930 . S
C574 C575 1.367 . S
C574 C582 1.378 . S
C575 C574 1.367 . S
C575 C583 1.433 . S
C576 H572 0.929 . S
C576 C578 1.378 . S
C576 C580 1.350 . S
C577 C580 1.463 . S
C577 C582 1.350 . S
C577 N585 1.427 . S
C578 H569 0.930 . S
C578 C576 1.378 . S
C578 C579 1.367 . S
C579 C578 1.367 . S
C579 C581 1.433 . S
C580 C576 1.350 . S
C580 C577 1.463 . S
C580 N584 1.427 . S
C581 H571 0.929 . S
C581 C579 1.433 . S
C581 N584 1.384 . S
C582 H573 0.929 . S
C582 C574 1.378 . S
C582 C577 1.350 . S
C583 H570 0.929 . S
C583 C575 1.433 . S
C583 N585 1.384 . S
N584 C580 1.427 . S
N584 C581 1.384 . S
N585 C577 1.427 . S
N585 C583 1.384 . S
H586 C592 0.930 . S
H587 C596 0.930 . S
H588 C601 0.929 . S
H589 C599 0.929 . S
H590 C594 0.929 . S
H591 C600 0.929 . S
C592 H586 0.930 . S
C592 C593 1.367 . S
C592 C600 1.378 . S
C593 C592 1.367 . S
C593 C601 1.433 . S
C594 H590 0.929 . S
C594 C596 1.378 . S
C594 C598 1.350 . S
C595 C598 1.463 . S
C595 C600 1.350 . S
C595 N603 1.427 . S
C596 H587 0.930 . S
C596 C594 1.378 . S
C596 C597 1.367 . S
C597 C596 1.367 . S
C597 C599 1.433 . S
C598 C594 1.350 . S
C598 C595 1.463 . S
C598 N602 1.427 . S
C599 H589 0.929 . S
C599 C597 1.433 . S
C599 N602 1.384 . S
C600 H591 0.929 . S
C600 C592 1.378 . S
C600 C595 1.350 . S
C601 H588 0.929 . S
C601 C593 1.433 . S
C601 N603 1.384 . S
N602 C598 1.427 . S
N602 C599 1.384 . S
N603 C595 1.427 . S
N603 C601 1.384 . S
H604 C610 0.930 . S
H605 C614 0.930 . S
H606 C619 0.929 . S
H607 C617 0.929 . S
H608 C612 0.929 . S
H609 C618 0.929 . S
C610 H604 0.930 . S
C610 C611 1.367 . S
C610 C618 1.378 . S
C611 C610 1.367 . S
C611 C619 1.433 . S
C612 H608 0.929 . S
C612 C614 1.378 . S
C612 C616 1.350 . S
C613 C616 1.463 . S
C613 C618 1.350 . S
C613 N621 1.427 . S
C614 H605 0.930 . S
C614 C612 1.378 . S
C614 C615 1.367 . S
C615 C614 1.367 . S
C615 C617 1.433 . S
C616 C612 1.350 . S
C616 C613 1.463 . S
C616 N620 1.427 . S
C617 H607 0.929 . S
C617 C615 1.433 . S
C617 N620 1.384 . S
C618 H609 0.929 . S
C618 C610 1.378 . S
C618 C613 1.350 . S
C619 H606 0.929 . S
C619 C611 1.433 . S
C619 N621 1.384 . S
N620 C616 1.427 . S
N620 C617 1.384 . S
N621 C613 1.427 . S
N621 C619 1.384 . S
H622 C628 0.930 . S
H623 C632 0.930 . S
H624 C637 0.929 . S
H625 C635 0.929 . S
H626 C630 0.929 . S
H627 C636 0.929 . S
C628 H622 0.930 . S
C628 C629 1.367 . S
C628 C636 1.378 . S
C629 C628 1.367 . S
C629 C637 1.433 . S
C630 H626 0.929 . S
C630 C632 1.378 . S
C630 C634 1.350 . S
C631 C634 1.463 . S
C631 C636 1.350 . S
C631 N639 1.427 . S
C632 H623 0.930 . S
C632 C630 1.378 . S
C632 C633 1.367 . S
C633 C632 1.367 . S
C633 C635 1.433 . S
C634 C630 1.350 . S
C634 C631 1.463 . S
C634 N638 1.427 . S
C635 H625 0.929 . S
C635 C633 1.433 . S
C635 N638 1.384 . S
C636 H627 0.929 . S
C636 C628 1.378 . S
C636 C631 1.350 . S
C637 H624 0.929 . S
C637 C629 1.433 . S
C637 N639 1.384 . S
N638 C634 1.427 . S
N638 C635 1.384 . S
N639 C631 1.427 . S
N639 C637 1.384 . S
H640 C646 0.930 . S
H641 C650 0.930 . S
H642 C655 0.929 . S
H643 C653 0.929 . S
H644 C648 0.929 . S
H645 C654 0.929 . S
C646 H640 0.930 . S
C646 C647 1.367 . S
C646 C654 1.378 . S
C647 C646 1.367 . S
C647 C655 1.433 1_455 S
C648 H644 0.929 . S
C648 C650 1.378 . S
C648 C652 1.350 . S
C649 C652 1.463 1_455 S
C649 C654 1.350 . S
C649 N657 1.427 1_455 S
C650 H641 0.930 . S
C650 C648 1.378 . S
C650 C651 1.367 . S
C651 C650 1.367 . S
C651 C653 1.433 1_655 S
C652 C648 1.350 . S
C652 C649 1.463 1_655 S
C652 N656 1.427 1_655 S
C653 H643 0.929 . S
C653 C651 1.433 1_455 S
C653 N656 1.384 . S
C654 H645 0.929 . S
C654 C646 1.378 . S
C654 C649 1.350 . S
C655 H642 0.929 . S
C655 C647 1.433 1_655 S
C655 N657 1.384 . S
N656 C652 1.427 1_455 S
N656 C653 1.384 . S
N657 C649 1.427 1_655 S
N657 C655 1.384 . S
H658 C664 0.930 . S
H659 C668 0.930 . S
H660 C673 0.929 . S
H661 C671 0.929 . S
H662 C666 0.929 . S
H663 C672 0.929 . S
C664 H658 0.930 . S
C664 C665 1.367 . S
C664 C672 1.378 . S
C665 C664 1.367 . S
C665 C673 1.433 1_565 S
C666 H662 0.929 . S
C666 C668 1.378 . S
C666 C670 1.350 . S
C667 C670 1.463 1_565 S
C667 C672 1.350 . S
C667 N675 1.427 1_565 S
C668 H659 0.930 . S
C668 C666 1.378 . S
C668 C669 1.367 . S
C669 C668 1.367 . S
C669 C671 1.433 1_545 S
C670 C666 1.350 . S
C670 C667 1.463 1_545 S
C670 N674 1.427 1_545 S
C671 H661 0.929 . S
C671 C669 1.433 1_565 S
C671 N674 1.384 . S
C672 H663 0.929 . S
C672 C664 1.378 . S
C672 C667 1.350 . S
C673 H660 0.929 . S
C673 C665 1.433 1_545 S
C673 N675 1.384 . S
N674 C670 1.427 1_565 S
N674 C671 1.384 . S
N675 C667 1.427 1_545 S
N675 C673 1.384 . S
H676 C682 0.930 . S
H677 C686 0.930 . S
H678 C691 0.929 . S
H679 C689 0.929 . S
H680 C684 0.929 . S
H681 C690 0.929 . S
C682 H676 0.930 . S
C682 C683 1.367 . S
C682 C690 1.378 . S
C683 C682 1.367 . S
C683 C691 1.433 1_455 S
C684 H680 0.929 . S
C684 C686 1.378 . S
C684 C688 1.350 . S
C685 C688 1.463 1_455 S
C685 C690 1.350 . S
C685 N693 1.427 1_455 S
C686 H677 0.930 . S
C686 C684 1.378 . S
C686 C687 1.367 . S
C687 C686 1.367 . S
C687 C689 1.433 1_655 S
C688 C684 1.350 . S
C688 C685 1.463 1_655 S
C688 N692 1.427 1_655 S
C689 H679 0.929 . S
C689 C687 1.433 1_455 S
C689 N692 1.384 . S
C690 H681 0.929 . S
C690 C682 1.378 . S
C690 C685 1.350 . S
C691 H678 0.929 . S
C691 C683 1.433 1_655 S
C691 N693 1.384 . S
N692 C688 1.427 1_455 S
N692 C689 1.384 . S
N693 C685 1.427 1_655 S
N693 C691 1.384 . S
H694 C700 0.930 . S
H695 C704 0.930 . S
H696 C709 0.929 . S
H697 C707 0.929 . S
H698 C702 0.929 . S
H699 C708 0.929 . S
C700 H694 0.930 . S
C700 C701 1.367 1_565 S
C700 C708 1.378 . S
C701 C700 1.367 1_545 S
C701 C709 1.433 . S
C702 H698 0.929 . S
C702 C704 1.378 . S
C702 C706 1.350 1_545 S
C703 C706 1.463 1_545 S
C703 C708 1.350 1_545 S
C703 N711 1.427 . S
C704 H695 0.930 . S
C704 C702 1.378 . S
C704 C705 1.367 1_545 S
C705 C704 1.367 1_565 S
C705 C707 1.433 . S
C706 C702 1.350 1_565 S
C706 C703 1.463 1_565 S
C706 N710 1.427 . S
C707 H697 0.929 . S
C707 C705 1.433 . S
C707 N710 1.384 . S
C708 H699 0.929 . S
C708 C700 1.378 . S
C708 C703 1.350 1_565 S
C709 H696 0.929 . S
C709 C701 1.433 . S
C709 N711 1.384 . S
N710 C706 1.427 . S
N710 C707 1.384 . S
N711 C703 1.427 . S
N711 C709 1.384 . S
H712 C718 0.930 . S
H713 C722 0.930 . S
H714 C727 0.929 . S
H715 C725 0.929 . S
H716 C720 0.929 . S
H717 C726 0.929 . S
C718 H712 0.930 . S
C718 C719 1.367 . S
C718 C726 1.378 . S
C719 C718 1.367 . S
C719 C727 1.433 . S
C720 H716 0.929 . S
C720 C722 1.378 . S
C720 C724 1.350 . S
C721 C724 1.463 1_556 S
C721 C726 1.350 . S
C721 N729 1.427 . S
C722 H713 0.930 . S
C722 C720 1.378 . S
C722 C723 1.367 . S
C723 C722 1.367 . S
C723 C725 1.433 . S
C724 C720 1.350 . S
C724 C721 1.463 1_554 S
C724 N728 1.427 . S
C725 H715 0.929 . S
C725 C723 1.433 . S
C725 N728 1.384 . S
C726 H717 0.929 . S
C726 C718 1.378 . S
C726 C721 1.350 . S
C727 H714 0.929 . S
C727 C719 1.433 . S
C727 N729 1.384 . S
N728 C724 1.427 . S
N728 C725 1.384 . S
N729 C721 1.427 . S
N729 C727 1.384 . S
H730 C736 0.930 . S
H731 C740 0.930 . S
H732 C745 0.929 . S
H733 C743 0.929 . S
H734 C738 0.929 . S
H735 C744 0.929 . S
C736 H730 0.930 . S
C736 C737 1.367 . S
C736 C744 1.378 . S
C737 C736 1.367 . S
C737 C745 1.433 . S
C738 H734 0.929 . S
C738 C740 1.378 . S
C738 C742 1.350 . S
C739 C742 1.463 1_556 S
C739 C744 1.350 . S
C739 N747 1.427 . S
C740 H731 0.930 . S
C740 C738 1.378 . S
C740 C741 1.367 . S
C741 C740 1.367 . S
C741 C743 1.433 . S
C742 C738 1.350 . S
C742 C739 1.463 1_554 S
C742 N746 1.427 . S
C743 H733 0.929 . S
C743 C741 1.433 . S
C743 N746 1.384 . S
C744 H735 0.929 . S
C744 C736 1.378 . S
C744 C739 1.350 . S
C745 H732 0.929 . S
C745 C737 1.433 . S
C745 N747 1.384 . S
N746 C742 1.427 . S
N746 C743 1.384 . S
N747 C739 1.427 . S
N747 C745 1.384 . S
H748 C754 0.930 . S
H749 C758 0.930 . S
H750 C763 0.929 . S
H751 C761 0.929 . S
H752 C756 0.929 . S
H753 C762 0.929 . S
C754 H748 0.930 . S
C754 C755 1.367 . S
C754 C762 1.378 . S
C755 C754 1.367 . S
C755 C763 1.433 . S
C756 H752 0.929 . S
C756 C758 1.378 . S
C756 C760 1.350 . S
C757 C760 1.463 1_554 S
C757 C762 1.350 . S
C757 N765 1.427 . S
C758 H749 0.930 . S
C758 C756 1.378 . S
C758 C759 1.367 . S
C759 C758 1.367 . S
C759 C761 1.433 . S
C760 C756 1.350 . S
C760 C757 1.463 1_556 S
C760 N764 1.427 . S
C761 H751 0.929 . S
C761 C759 1.433 . S
C761 N764 1.384 . S
C762 H753 0.929 . S
C762 C754 1.378 . S
C762 C757 1.350 . S
C763 H750 0.929 . S
C763 C755 1.433 . S
C763 N765 1.384 . S
N764 C760 1.427 . S
N764 C761 1.384 . S
N765 C757 1.427 . S
N765 C763 1.384 . S
H766 C772 0.930 . S
H767 C776 0.930 . S
H768 C781 0.929 . S
H769 C779 0.929 . S
H770 C774 0.929 . S
H771 C780 0.929 . S
C772 H766 0.930 . S
C772 C773 1.367 . S
C772 C780 1.378 . S
C773 C772 1.367 . S
C773 C781 1.433 . S
C774 H770 0.929 . S
C774 C776 1.378 . S
C774 C778 1.350 . S
C775 C778 1.463 1_556 S
C775 C780 1.350 . S
C775 N783 1.427 . S
C776 H767 0.930 . S
C776 C774 1.378 . S
C776 C777 1.367 . S
C777 C776 1.367 . S
C777 C779 1.433 . S
C778 C774 1.350 . S
C778 C775 1.463 1_554 S
C778 N782 1.427 . S
C779 H769 0.929 . S
C779 C777 1.433 . S
C779 N782 1.384 . S
C780 H771 0.929 . S
C780 C772 1.378 . S
C780 C775 1.350 . S
C781 H768 0.929 . S
C781 C773 1.433 . S
C781 N783 1.384 . S
N782 C778 1.427 . S
N782 C779 1.384 . S
N783 C775 1.427 . S
N783 C781 1.384 . S
C215 C10 1.581 . S
C219 C42 1.596 . S
C233 C5 1.588 . S
C237 C23 1.589 . S
C251 C18 1.592 . S
C255 C30 1.589 . S
C269 C29 1.592 . S
C273 C43 1.589 . S
C287 C62 1.582 . S
C291 C70 1.594 . S
C305 C75 1.585 . S
C309 C81 1.590 . S
C323 C82 1.589 . S
C327 C96 1.592 . S
C341 C101 1.587 . S
C345 C57 1.589 . S
C359 C108 1.584 . S
C363 C146 1.591 . S
C377 C107 1.591 . S
C381 C127 1.584 . S
C395 C122 1.597 . S
C399 C134 1.582 . S
C413 C147 1.582 . S
C417 C133 1.594 . S
C431 C174 1.596 . S
C435 C166 1.584 . S
C449 C187 1.592 . S
C453 C179 1.589 . S
C467 C192 1.590 . S
C471 C200 1.591 . S
C485 C205 1.590 . S
C489 C161 1.590 . S
C503 C4 1.141 . S
C507 C199 1.140 . S
C521 C17 1.131 . S
C525 C160 1.137 . S
C539 C173 1.140 . S
C543 C36 1.135 . S
C557 C49 1.141 . S
C561 C186 1.139 . S
C575 C121 1.141 . S
C579 C56 1.139 . S
C593 C140 1.132 . S
C597 C69 1.131 . S
C611 C88 1.133 . S
C615 C153 1.139 . S
C629 C95 1.141 . S
C633 C114 1.140 . S
C647 C3 1.665 . S
C651 C83 1.670 . S
C665 C94 1.671 . S
C669 C16 1.665 . S
C683 C55 1.665 . S
C687 C31 1.671 . S
C701 C68 1.672 . S
C705 C44 1.673 . S
C719 C109 1.673 . S
C723 C185 1.666 . S
C737 C120 1.670 . S
C741 C198 1.665 . S
C755 C159 1.665 . S
C759 C135 1.670 . S
C773 C148 1.669 . S
C777 C172 1.674 . S
