# Generated by pormake.
# Topology uki, (4)-cn, num edge types: 1
# Building blocks:
#     Node 0, Type 0, BuildingBlock: CEKHIL_clean_sbu_0, # of connection points: 4
#     Node 1, Type 0, BuildingBlock: CEKHIL_clean_sbu_0, # of connection points: 4
#     Node 2, Type 0, BuildingBlock: CEKHIL_clean_sbu_0, # of connection points: 4
#     Node 3, Type 0, BuildingBlock: CEKHIL_clean_sbu_0, # of connection points: 4
#     Node 4, Type 0, BuildingBlock: CEKHIL_clean_sbu_0, # of connection points: 4
#     Node 5, Type 0, BuildingBlock: CEKHIL_clean_sbu_0, # of connection points: 4
#     Node 6, Type 0, BuildingBlock: CEKHIL_clean_sbu_0, # of connection points: 4
#     Node 7, Type 0, BuildingBlock: CEKHIL_clean_sbu_0, # of connection points: 4
#     Node 8, Type 0, BuildingBlock: CEKHIL_clean_sbu_0, # of connection points: 4
#     Node 9, Type 0, BuildingBlock: CEKHIL_clean_sbu_0, # of connection points: 4
#     Node 10, Type 0, BuildingBlock: CEKHIL_clean_sbu_0, # of connection points: 4
#     Node 11, Type 0, BuildingBlock: CEKHIL_clean_sbu_0, # of connection points: 4
#     Node 12, Type 0, BuildingBlock: CEKHIL_clean_sbu_0, # of connection points: 4
#     Node 13, Type 0, BuildingBlock: CEKHIL_clean_sbu_0, # of connection points: 4
#     Node 14, Type 0, BuildingBlock: CEKHIL_clean_sbu_0, # of connection points: 4
#     Node 15, Type 0, BuildingBlock: CEKHIL_clean_sbu_0, # of connection points: 4
#     Edge 16, Type (0, 0), BuildingBlock: XUDNAN_clean_linker_2, # of connection points: 2
#     Edge 17, Type (0, 0), BuildingBlock: XUDNAN_clean_linker_2, # of connection points: 2
#     Edge 18, Type (0, 0), BuildingBlock: XUDNAN_clean_linker_2, # of connection points: 2
#     Edge 19, Type (0, 0), BuildingBlock: XUDNAN_clean_linker_2, # of connection points: 2
#     Edge 20, Type (0, 0), BuildingBlock: XUDNAN_clean_linker_2, # of connection points: 2
#     Edge 21, Type (0, 0), BuildingBlock: XUDNAN_clean_linker_2, # of connection points: 2
#     Edge 22, Type (0, 0), BuildingBlock: XUDNAN_clean_linker_2, # of connection points: 2
#     Edge 23, Type (0, 0), BuildingBlock: XUDNAN_clean_linker_2, # of connection points: 2
#     Edge 24, Type (0, 0), BuildingBlock: XUDNAN_clean_linker_2, # of connection points: 2
#     Edge 25, Type (0, 0), BuildingBlock: XUDNAN_clean_linker_2, # of connection points: 2
#     Edge 26, Type (0, 0), BuildingBlock: XUDNAN_clean_linker_2, # of connection points: 2
#     Edge 27, Type (0, 0), BuildingBlock: XUDNAN_clean_linker_2, # of connection points: 2
#     Edge 28, Type (0, 0), BuildingBlock: XUDNAN_clean_linker_2, # of connection points: 2
#     Edge 29, Type (0, 0), BuildingBlock: XUDNAN_clean_linker_2, # of connection points: 2
#     Edge 30, Type (0, 0), BuildingBlock: XUDNAN_clean_linker_2, # of connection points: 2
#     Edge 31, Type (0, 0), BuildingBlock: XUDNAN_clean_linker_2, # of connection points: 2
#     Edge 32, Type (0, 0), BuildingBlock: XUDNAN_clean_linker_2, # of connection points: 2
#     Edge 33, Type (0, 0), BuildingBlock: XUDNAN_clean_linker_2, # of connection points: 2
#     Edge 34, Type (0, 0), BuildingBlock: XUDNAN_clean_linker_2, # of connection points: 2
#     Edge 35, Type (0, 0), BuildingBlock: XUDNAN_clean_linker_2, # of connection points: 2
#     Edge 36, Type (0, 0), BuildingBlock: XUDNAN_clean_linker_2, # of connection points: 2
#     Edge 37, Type (0, 0), BuildingBlock: XUDNAN_clean_linker_2, # of connection points: 2
#     Edge 38, Type (0, 0), BuildingBlock: XUDNAN_clean_linker_2, # of connection points: 2
#     Edge 39, Type (0, 0), BuildingBlock: XUDNAN_clean_linker_2, # of connection points: 2
#     Edge 40, Type (0, 0), BuildingBlock: XUDNAN_clean_linker_2, # of connection points: 2
#     Edge 41, Type (0, 0), BuildingBlock: XUDNAN_clean_linker_2, # of connection points: 2
#     Edge 42, Type (0, 0), BuildingBlock: XUDNAN_clean_linker_2, # of connection points: 2
#     Edge 43, Type (0, 0), BuildingBlock: XUDNAN_clean_linker_2, # of connection points: 2
#     Edge 44, Type (0, 0), BuildingBlock: XUDNAN_clean_linker_2, # of connection points: 2
#     Edge 45, Type (0, 0), BuildingBlock: XUDNAN_clean_linker_2, # of connection points: 2
#     Edge 46, Type (0, 0), BuildingBlock: XUDNAN_clean_linker_2, # of connection points: 2
#     Edge 47, Type (0, 0), BuildingBlock: XUDNAN_clean_linker_2, # of connection points: 2
# Relax obj value: 0.100
# Max RMSD: 0.196
# Mean RMSD: 0.196
data_MOF--net-uki--node1-CEKHIL_clean_sbu_0--edge1-XUDNAN_clean_linker_2
_symmetry_space_group_name_H-M    P1
_symmetry_Int_Tables_number       1
_symmetry_cell_setting            triclinic
loop_
_symmetry_equiv_pos_as_xyz
'x, y, z'
_cell_length_a     30.29383
_cell_length_b     30.286744
_cell_length_c     72.401736
_cell_angle_alpha  89.999432
_cell_angle_beta   89.994929
_cell_angle_gamma 89.856191
loop_
_atom_site_label
_atom_site_type_symbol
_atom_site_fract_x
_atom_site_fract_y
_atom_site_fract_z
_atom_type_partial_charge
Co0 Co 0.12709 0.22298 0.29551 0.0
O1 O 0.18147 0.19722 0.30379 0.0
O2 O 0.12516 0.21187 0.32215 0.0
C3 C 0.15755 0.27767 0.27877 0.0
O4 O 0.06609 0.25084 0.29086 0.0
Co5 Co 0.1087 0.21969 0.25318 0.0
O6 O 0.06365 0.26407 0.26022 0.0
C7 C 0.08891 0.14169 0.27596 0.0
C8 C 0.16545 0.19719 0.32035 0.0
C9 C 0.04764 0.26809 0.27644 0.0
O10 O 0.10176 0.16291 0.29037 0.0
O11 O 0.09137 0.1575 0.25958 0.0
O12 O 0.15287 0.28147 0.29651 0.0
O13 O 0.14905 0.23896 0.27214 0.0
Co14 Co 0.2015 0.87113 0.71167 0.0
O15 O 0.17494 0.82264 0.69847 0.0
O16 O 0.19224 0.88684 0.68593 0.0
C17 C 0.25512 0.8307 0.72568 0.0
O18 O 0.23126 0.92742 0.72095 0.0
Co19 Co 0.20234 0.86998 0.75484 0.0
O20 O 0.24471 0.919 0.75134 0.0
C21 C 0.12597 0.90927 0.73468 0.0
C22 C 0.17796 0.84666 0.68372 0.0
C23 C 0.24815 0.94077 0.73632 0.0
O24 O 0.14211 0.89783 0.71887 0.0
O25 O 0.14376 0.89866 0.75012 0.0
O26 O 0.25939 0.84365 0.70872 0.0
O27 O 0.21666 0.83769 0.73283 0.0
Co28 Co 0.8658 0.79232 0.2892 0.0
O29 O 0.81168 0.81603 0.29876 0.0
O30 O 0.8688 0.79866 0.31617 0.0
C31 C 0.83388 0.74081 0.27121 0.0
O32 O 0.92685 0.766 0.28309 0.0
Co33 Co 0.88171 0.80346 0.247 0.0
O34 O 0.92831 0.75927 0.25207 0.0
C35 C 0.90218 0.8773 0.27199 0.0
C36 C 0.82829 0.8132 0.31516 0.0
C37 C 0.94512 0.75234 0.26795 0.0
O38 O 0.89032 0.85334 0.28577 0.0
O39 O 0.89901 0.86451 0.25518 0.0
O40 O 0.84028 0.73378 0.28867 0.0
O41 O 0.84227 0.78045 0.26557 0.0
Co42 Co 0.78397 0.12519 0.71069 0.0
O43 O 0.79969 0.17835 0.69758 0.0
O44 O 0.79476 0.11228 0.68478 0.0
C45 C 0.72473 0.15287 0.72591 0.0
O46 O 0.76618 0.06403 0.72005 0.0
Co47 Co 0.7898 0.1258 0.75366 0.0
O48 O 0.75526 0.0708 0.75072 0.0
C49 C 0.87052 0.10945 0.73184 0.0
C50 C 0.80182 0.15444 0.68277 0.0
C51 C 0.75275 0.04883 0.73573 0.0
O52 O 0.84807 0.1113 0.71674 0.0
O53 O 0.85393 0.11785 0.74773 0.0
O54 O 0.72148 0.14024 0.70885 0.0
O55 O 0.76454 0.15421 0.73231 0.0
Co56 Co 0.1365 0.28995 0.95759 0.0
O57 O 0.18785 0.31522 0.94594 0.0
O58 O 0.12368 0.30516 0.93205 0.0
C59 C 0.17196 0.23173 0.97068 0.0
O60 O 0.07741 0.26288 0.96515 0.0
Co61 Co 0.13358 0.28114 1.00066 0.0
O62 O 0.0836 0.24136 0.99482 0.0
C63 C 0.10672 0.36551 0.98269 0.0
C64 C 0.16479 0.31737 0.93089 0.0
C65 C 0.06261 0.24266 0.97956 0.0
O66 O 0.11417 0.34983 0.9664 0.0
O67 O 0.11591 0.34435 0.99754 0.0
O68 O 0.16022 0.23047 0.95345 0.0
O69 O 0.16664 0.26941 0.97864 0.0
Co70 Co 0.29626 0.85843 0.03314 0.0
O71 O 0.31822 0.80347 0.04268 0.0
O72 O 0.29944 0.86005 0.06018 0.0
C73 C 0.24601 0.82945 0.01366 0.0
O74 O 0.27082 0.91978 0.02724 0.0
Co75 Co 0.31147 0.87728 0.99137 0.0
O76 O 0.26548 0.92239 0.99619 0.0
C77 C 0.38228 0.89786 0.01796 0.0
C78 C 0.31342 0.81935 0.05914 0.0
C79 C 0.25735 0.93831 0.01215 0.0
O80 O 0.35794 0.88325 0.0312 0.0
O81 O 0.37069 0.89624 1.00096 0.0
O82 O 0.23725 0.83407 0.03109 0.0
O83 O 0.28661 0.83664 0.00903 0.0
Co84 Co 0.87798 0.7034 0.95796 0.0
O85 O 0.82245 0.67715 0.95141 0.0
O86 O 0.87737 0.68719 0.93185 0.0
C87 C 0.84813 0.76201 0.97303 0.0
O88 O 0.93942 0.73115 0.9602 0.0
Co89 Co 0.90096 0.7151 0.99981 0.0
O90 O 0.94523 0.75619 0.98941 0.0
C91 C 0.91406 0.62803 0.98153 0.0
C92 C 0.83673 0.67473 0.93459 0.0
C93 C 0.95935 0.7536 0.97285 0.0
O94 O 0.90345 0.64386 0.96556 0.0
O95 O 0.91151 0.65034 0.99653 0.0
O96 O 0.85218 0.76244 0.9552 0.0
O97 O 0.85805 0.72506 0.98083 0.0
Co98 Co 0.72273 0.12741 0.04362 0.0
O99 O 0.70302 0.1785 0.05728 0.0
O100 O 0.71714 0.11322 0.06965 0.0
C101 C 0.77572 0.16097 0.02701 0.0
O102 O 0.74561 0.06822 0.03372 0.0
Co103 Co 0.70998 0.12563 1.00107 0.0
O104 O 0.75143 0.07517 0.00286 0.0
C105 C 0.63632 0.09845 0.02508 0.0
C106 C 0.70536 0.15424 0.07199 0.0
C107 C 0.75811 0.05375 0.01777 0.0
O108 O 0.66014 0.10713 0.03933 0.0
O109 O 0.64933 0.10559 0.00852 0.0
O110 O 0.78287 0.14907 0.04397 0.0
O111 O 0.73516 0.15803 0.02152 0.0
Co112 Co 0.62239 0.70441 0.79587 0.0
O113 O 0.67488 0.6864 0.80886 0.0
O114 O 0.60917 0.69321 0.8218 0.0
C115 C 0.65347 0.76219 0.78108 0.0
O116 O 0.56162 0.72428 0.78643 0.0
Co117 Co 0.62329 0.70061 0.75278 0.0
O118 O 0.56842 0.73565 0.75579 0.0
C119 C 0.60905 0.61896 0.77421 0.0
C120 C 0.65109 0.68445 0.82368 0.0
C121 C 0.54632 0.73797 0.77077 0.0
O122 O 0.60782 0.64116 0.78937 0.0
O123 O 0.61873 0.63605 0.75855 0.0
O124 O 0.63988 0.76623 0.798 0.0
O125 O 0.65235 0.72261 0.77452 0.0
Co126 Co 0.70294 0.36831 0.2122 0.0
O127 O 0.68582 0.31133 0.20329 0.0
O128 O 0.69551 0.36924 0.1853 0.0
C129 C 0.75942 0.34426 0.23026 0.0
O130 O 0.72186 0.43182 0.21758 0.0
Co131 Co 0.69195 0.38208 0.2548 0.0
O132 O 0.72425 0.43691 0.2487 0.0
C133 C 0.61454 0.39217 0.23045 0.0
C134 C 0.68637 0.32731 0.18674 0.0
C135 C 0.72999 0.45324 0.23261 0.0
O136 O 0.63894 0.38647 0.21605 0.0
O137 O 0.62869 0.38747 0.247 0.0
O138 O 0.76501 0.35032 0.21269 0.0
O139 O 0.71902 0.34722 0.23577 0.0
Co140 Co 0.37531 0.28734 0.7934 0.0
O141 O 0.32509 0.3213 0.80133 0.0
O142 O 0.38027 0.30236 0.81958 0.0
C143 C 0.33626 0.23388 0.77892 0.0
O144 O 0.4318 0.25104 0.78951 0.0
Co145 Co 0.39069 0.27412 0.75089 0.0
O146 O 0.43 0.22655 0.76006 0.0
C147 C 0.42515 0.35422 0.76989 0.0
C148 C 0.3415 0.32068 0.81783 0.0
C149 C 0.44654 0.22663 0.77624 0.0
O150 O 0.40876 0.34224 0.78557 0.0
O151 O 0.41897 0.333 0.7548 0.0
O152 O 0.34194 0.23281 0.79666 0.0
O153 O 0.34963 0.26947 0.77093 0.0
Co154 Co 0.28808 0.6351 0.20552 0.0
O155 O 0.31369 0.6827 0.1914 0.0
O156 O 0.296 0.61745 0.17994 0.0
C157 C 0.23487 0.67535 0.2199 0.0
O158 O 0.25931 0.57943 0.21581 0.0
Co159 Co 0.29124 0.6398 0.24871 0.0
O160 O 0.24932 0.58998 0.24632 0.0
C161 C 0.36489 0.59758 0.22797 0.0
C162 C 0.31045 0.65732 0.17705 0.0
C163 C 0.24433 0.56714 0.23166 0.0
O164 O 0.34796 0.60886 0.21229 0.0
O165 O 0.34854 0.60914 0.24356 0.0
O166 O 0.22968 0.66198 0.20304 0.0
O167 O 0.2741 0.6697 0.22648 0.0
Co168 Co 0.62989 0.79539 0.45845 0.0
O169 O 0.68168 0.8174 0.44586 0.0
O170 O 0.61704 0.80569 0.43257 0.0
C171 C 0.66417 0.73921 0.47359 0.0
O172 O 0.57049 0.77043 0.46661 0.0
Co173 Co 0.62501 0.79524 0.50148 0.0
O174 O 0.57616 0.75331 0.49675 0.0
C175 C 0.6035 0.87729 0.48077 0.0
C176 C 0.65825 0.81704 0.43087 0.0
C177 C 0.55575 0.75178 0.48136 0.0
O178 O 0.60883 0.85749 0.46512 0.0
O179 O 0.61156 0.85879 0.49633 0.0
O180 O 0.6526 0.73493 0.45643 0.0
O181 O 0.65937 0.77841 0.48029 0.0
Co182 Co 0.78507 0.37119 0.54306 0.0
O183 O 0.80656 0.3159 0.55228 0.0
O184 O 0.7908 0.37277 0.5701 0.0
C185 C 0.73272 0.34298 0.52459 0.0
O186 O 0.76076 0.43321 0.53706 0.0
Co187 Co 0.79766 0.38741 0.50084 0.0
O188 O 0.75358 0.43416 0.50603 0.0
C189 C 0.87148 0.40508 0.52625 0.0
C190 C 0.80392 0.3318 0.56879 0.0
C191 C 0.74686 0.45122 0.5219 0.0
O192 O 0.84709 0.39379 0.54001 0.0
O193 O 0.85883 0.40232 0.50942 0.0
O194 O 0.72539 0.34834 0.54209 0.0
O195 O 0.77303 0.34899 0.51935 0.0
Co196 Co 0.37195 0.21204 0.45981 0.0
O197 O 0.31967 0.18753 0.44858 0.0
O198 O 0.38352 0.19673 0.43427 0.0
C199 C 0.33877 0.27176 0.47309 0.0
O200 O 0.43158 0.23838 0.46656 0.0
Co201 Co 0.37757 0.22035 0.5027 0.0
O202 O 0.42844 0.25862 0.49646 0.0
C203 C 0.4053 0.1367 0.48442 0.0
C204 C 0.34218 0.1853 0.43337 0.0
C205 C 0.4478 0.25787 0.48081 0.0
O206 O 0.39467 0.15179 0.46832 0.0
O207 O 0.39754 0.15783 0.49941 0.0
O208 O 0.34937 0.2719 0.45575 0.0
O209 O 0.34316 0.234 0.48117 0.0
Co210 Co 0.21818 0.63178 0.54443 0.0
O211 O 0.19362 0.6869 0.55254 0.0
O212 O 0.21024 0.63211 0.57134 0.0
C213 C 0.2709 0.66047 0.52618 0.0
O214 O 0.24587 0.57057 0.5399 0.0
Co215 Co 0.20961 0.61101 0.50232 0.0
O216 O 0.25319 0.56483 0.50888 0.0
C217 C 0.13448 0.59309 0.52698 0.0
C218 C 0.19567 0.6724 0.56931 0.0
C219 C 0.26025 0.55085 0.52522 0.0
O220 O 0.15747 0.60614 0.54088 0.0
O221 O 0.14825 0.59516 0.51028 0.0
O222 O 0.27689 0.6572 0.54386 0.0
O223 O 0.23132 0.65217 0.5205 0.0
H224 H 0.17482 0.36016 0.29101 0.0
H225 H 0.1638 0.28312 0.24073 0.0
H226 H 0.18067 0.35023 0.22228 0.0
H227 H 0.12507 0.45939 0.27409 0.0
H228 H 0.16199 0.49463 0.28685 0.0
H229 H 0.14847 0.4407 0.29562 0.0
H230 H 0.23172 0.42054 0.29715 0.0
H231 H 0.24548 0.47451 0.28856 0.0
H232 H 0.26524 0.42602 0.27671 0.0
H233 H 0.20213 0.42743 0.20974 0.0
H234 H 0.22649 0.50467 0.20468 0.0
H235 H 0.21957 0.52786 0.2638 0.0
C236 C 0.17578 0.35719 0.2761 0.0
C237 C 0.16805 0.3165 0.26727 0.0
C238 C 0.16976 0.3141 0.24775 0.0
C239 C 0.17916 0.35203 0.23719 0.0
C240 C 0.1865 0.39184 0.24644 0.0
C241 C 0.18486 0.39436 0.26549 0.0
C242 C 0.19486 0.44021 0.27238 0.0
C243 C 0.15522 0.45988 0.28284 0.0
C244 C 0.23681 0.4403 0.2844 0.0
C245 C 0.20237 0.46348 0.25426 0.0
C246 C 0.19766 0.43537 0.23937 0.0
C247 C 0.20547 0.44974 0.22133 0.0
C248 C 0.21918 0.49369 0.21858 0.0
C249 C 0.22471 0.52261 0.23381 0.0
C250 C 0.21527 0.5071 0.25176 0.0
H251 H 0.50911 0.77962 0.74124 0.0
H252 H 0.47866 0.73327 0.79651 0.0
H253 H 0.40019 0.75417 0.79172 0.0
H254 H 0.43251 0.87249 0.74046 0.0
H255 H 0.41966 0.86415 0.71641 0.0
H256 H 0.47329 0.84913 0.72516 0.0
H257 H 0.46262 0.76961 0.71266 0.0
H258 H 0.40881 0.7842 0.70407 0.0
H259 H 0.41496 0.73833 0.71973 0.0
H260 H 0.32308 0.77688 0.77949 0.0
H261 H 0.25709 0.80012 0.76157 0.0
H262 H 0.3408 0.82843 0.71446 0.0
C263 C 0.48627 0.77421 0.75251 0.0
C264 C 0.50023 0.75469 0.76928 0.0
C265 C 0.46892 0.7484 0.78358 0.0
C266 C 0.42424 0.76005 0.78095 0.0
C267 C 0.41155 0.77811 0.76398 0.0
C268 C 0.44197 0.78539 0.7501 0.0
C269 C 0.42041 0.80343 0.73285 0.0
C270 C 0.43748 0.85007 0.72847 0.0
C271 C 0.4271 0.77201 0.71637 0.0
C272 C 0.37279 0.80452 0.73896 0.0
C273 C 0.36806 0.79023 0.75699 0.0
C274 C 0.32661 0.78824 0.76539 0.0
C275 C 0.28931 0.80136 0.75511 0.0
C276 C 0.29377 0.81585 0.7366 0.0
C277 C 0.33615 0.81731 0.72854 0.0
H278 H 0.71602 0.51346 0.25929 0.0
H279 H 0.77503 0.49905 0.20504 0.0
H280 H 0.8024 0.57648 0.20703 0.0
H281 H 0.68422 0.62943 0.25555 0.0
H282 H 0.69721 0.6394 0.27949 0.0
H283 H 0.67831 0.58574 0.27228 0.0
H284 H 0.74827 0.54982 0.28659 0.0
H285 H 0.76734 0.60318 0.29382 0.0
H286 H 0.80202 0.56889 0.27952 0.0
H287 H 0.82866 0.65532 0.21722 0.0
H288 H 0.85214 0.72246 0.23449 0.0
H289 H 0.77614 0.67916 0.28176 0.0
C290 C 0.73438 0.52642 0.24765 0.0
C291 C 0.74378 0.5001 0.23207 0.0
C292 C 0.76742 0.51875 0.21712 0.0
C293 C 0.78301 0.56263 0.21815 0.0
C294 C 0.77401 0.58722 0.2341 0.0
C295 C 0.7499 0.56943 0.24849 0.0
C296 C 0.74684 0.60021 0.26477 0.0
C297 C 0.69879 0.61454 0.26821 0.0
C298 C 0.76736 0.57927 0.28218 0.0
C299 C 0.7742 0.63797 0.25771 0.0
C300 C 0.78915 0.63077 0.2399 0.0
C301 C 0.81668 0.66124 0.23109 0.0
C302 C 0.82976 0.69927 0.24093 0.0
C303 C 0.81592 0.7056 0.25941 0.0
C304 C 0.78721 0.675 0.26763 0.0
H305 H 0.52796 0.26121 0.78142 0.0
H306 H 0.45811 0.13868 0.77248 0.0
H307 H 0.52786 0.10228 0.76357 0.0
H308 H 0.58751 0.25727 0.74353 0.0
H309 H 0.63863 0.2797 0.75208 0.0
H310 H 0.58761 0.29319 0.7634 0.0
H311 H 0.61775 0.26403 0.79453 0.0
H312 H 0.66963 0.25146 0.78346 0.0
H313 H 0.64037 0.20901 0.79585 0.0
H314 H 0.59739 0.08569 0.74764 0.0
H315 H 0.66575 0.08677 0.7292 0.0
H316 H 0.69454 0.2186 0.74893 0.0
C317 C 0.52818 0.22598 0.77884 0.0
C318 C 0.48818 0.20216 0.77824 0.0
C319 C 0.48876 0.15687 0.77359 0.0
C320 C 0.52821 0.13609 0.7684 0.0
C321 C 0.56678 0.16111 0.76793 0.0
C322 C 0.56744 0.20487 0.77344 0.0
C323 C 0.61166 0.22599 0.76897 0.0
C324 C 0.60597 0.2664 0.75624 0.0
C325 C 0.63632 0.23834 0.78677 0.0
C326 C 0.63455 0.18823 0.75902 0.0
C327 C 0.60815 0.15099 0.7588 0.0
C328 C 0.61908 0.11398 0.74831 0.0
C329 C 0.65782 0.11497 0.73779 0.0
C330 C 0.68569 0.15234 0.73805 0.0
C331 C 0.67433 0.18917 0.74902 0.0
H332 H 0.20643 0.97431 0.98517 0.0
H333 H 0.26203 0.00275 0.03907 0.0
H334 H 0.24041 0.08131 0.03546 0.0
H335 H 0.24725 0.06473 0.96334 0.0
H336 H 0.20033 0.07438 0.94856 0.0
H337 H 0.2118 0.01959 0.95683 0.0
H338 H 0.13341 0.01433 0.97101 0.0
H339 H 0.12122 0.06884 0.96238 0.0
H340 H 0.11456 0.05679 0.9866 0.0
H341 H 0.22144 0.15869 0.02378 0.0
H342 H 0.20386 0.22633 0.00601 0.0
H343 H 0.16446 0.14591 0.95931 0.0
C344 C 0.21301 0.99673 0.99649 0.0
C345 C 0.2359 0.98237 0.01243 0.0
C346 C 0.24404 0.01286 0.02685 0.0
C347 C 0.2321 0.0576 0.02485 0.0
C348 C 0.21173 0.07102 0.00845 0.0
C349 C 0.20169 0.04118 0.99465 0.0
C350 C 0.1834 0.06397 0.97768 0.0
C351 C 0.21244 0.05514 0.96061 0.0
C352 C 0.13529 0.05017 0.97422 0.0
C353 C 0.18623 0.11162 0.98373 0.0
C354 C 0.20194 0.11513 0.00161 0.0
C355 C 0.20867 0.15617 0.00987 0.0
C356 C 0.19882 0.1944 0.99963 0.0
C357 C 0.18304 0.19135 0.98125 0.0
C358 C 0.17667 0.14934 0.97329 0.0
H359 H 0.16451 0.86451 0.01589 0.0
H360 H 0.24625 0.78057 0.98159 0.0
H361 H 0.18091 0.76267 0.96222 0.0
H362 H 0.07626 0.79901 0.01875 0.0
H363 H 0.03496 0.84192 0.01785 0.0
H364 H 0.08927 0.85433 0.02614 0.0
H365 H 0.09667 0.91633 0.00162 0.0
H366 H 0.04206 0.90394 0.99319 0.0
H367 H 0.08837 0.90361 0.97756 0.0
H368 H 0.10349 0.74301 0.95091 0.0
H369 H 0.02411 0.72385 0.94918 0.0
H370 H 0.99499 0.82436 0.98998 0.0
C371 C 0.16882 0.84325 0.00399 0.0
C372 C 0.21002 0.82362 1.00021 0.0
C373 C 0.21478 0.79604 0.98458 0.0
C374 C 0.1779 0.78587 0.97352 0.0
C375 C 0.13708 0.8047 0.97802 0.0
C376 C 0.13276 0.83357 0.99273 0.0
C377 C 0.08516 0.84624 0.99602 0.0
C378 C 0.07059 0.83463 0.01584 0.0
C379 C 0.07763 0.89545 0.99184 0.0
C380 C 0.06275 0.81741 0.98183 0.0
C381 C 0.09304 0.7944 0.97121 0.0
C382 C 0.07955 0.76177 0.95878 0.0
C383 C 0.03434 0.7512 0.9578 0.0
C384 C 0.00346 0.77282 0.96938 0.0
C385 C 0.01783 0.80767 0.98081 0.0
H386 H 0.83927 0.84626 0.96001 0.0
H387 H 0.83347 0.7686 0.01028 0.0
H388 H 0.81514 0.83599 0.02809 0.0
H389 H 0.88819 0.94431 0.98081 0.0
H390 H 0.8569 0.98153 0.96642 0.0
H391 H 0.87156 0.9275 0.95796 0.0
H392 H 0.78909 0.91077 0.95144 0.0
H393 H 0.77425 0.96476 0.95976 0.0
H394 H 0.74935 0.91643 0.96984 0.0
H395 H 0.79299 0.91233 0.04001 0.0
H396 H 0.76825 0.9896 0.04465 0.0
H397 H 0.79134 0.01586 0.98648 0.0
C398 C 0.83435 0.84341 0.97478 0.0
C399 C 0.83765 0.80222 0.98377 0.0
C400 C 0.83107 0.7999 0.00312 0.0
C401 C 0.82078 0.838 0.01335 0.0
C402 C 0.81763 0.87818 0.00404 0.0
C403 C 0.82443 0.88104 0.98518 0.0
C404 C 0.81798 0.92771 0.97829 0.0
C405 C 0.86124 0.94635 0.97041 0.0
C406 C 0.78043 0.93003 0.964 0.0
C407 C 0.8054 0.95053 0.99611 0.0
C408 C 0.80564 0.92169 0.01088 0.0
C409 C 0.79311 0.93529 0.02856 0.0
C410 C 0.7792 0.97927 0.03108 0.0
C411 C 0.77779 0.00899 0.01597 0.0
C412 C 0.79203 0.99427 0.9984 0.0
H413 H 0.8617 0.14084 0.03271 0.0
H414 H 0.77388 0.20321 0.99325 0.0
H415 H 0.83849 0.22287 0.97377 0.0
H416 H 0.94474 0.2178 0.03149 0.0
H417 H 0.98922 0.17846 0.03357 0.0
H418 H 0.93577 0.16554 0.0428 0.0
H419 H 0.93385 0.09389 0.02317 0.0
H420 H 0.98737 0.10681 0.01376 0.0
H421 H 0.94136 0.09715 0.99852 0.0
H422 H 0.91485 0.24295 0.96076 0.0
H423 H 0.99351 0.26231 0.95607 0.0
H424 H 0.02874 0.18323 0.00381 0.0
C425 C 0.85588 0.15823 0.01987 0.0
C426 C 0.81294 0.17089 0.01452 0.0
C427 C 0.80666 0.1933 0.99756 0.0
C428 C 0.84311 0.20439 0.98642 0.0
C429 C 0.88529 0.19192 0.99229 0.0
C430 C 0.89155 0.16887 0.00857 0.0
C431 C 0.93989 0.16134 0.01257 0.0
C432 C 0.95316 0.18204 0.03119 0.0
C433 C 0.95128 0.11186 0.01196 0.0
C434 C 0.96025 0.1856 0.99649 0.0
C435 C 0.92849 0.20251 0.98471 0.0
C436 C 0.93993 0.22917 0.96972 0.0
C437 C 0.98473 0.23986 0.9671 0.0
C438 C 0.01731 0.22427 0.97956 0.0
C439 C 0.00474 0.19557 0.99399 0.0
H440 H 0.64934 0.84888 0.79097 0.0
H441 H 0.68743 0.76241 0.74592 0.0
H442 H 0.71169 0.82733 0.72778 0.0
H443 H 0.60928 0.94013 0.76222 0.0
H444 H 0.62991 0.98139 0.77792 0.0
H445 H 0.61273 0.92837 0.78658 0.0
H446 H 0.68949 0.91721 0.80179 0.0
H447 H 0.7068 0.97015 0.79324 0.0
H448 H 0.7385 0.92143 0.78777 0.0
H449 H 0.73653 0.90259 0.71552 0.0
H450 H 0.76061 0.98003 0.71083 0.0
H451 H 0.70419 0.01513 0.76396 0.0
C452 C 0.6624 0.84356 0.77722 0.0
C453 C 0.66662 0.80068 0.76985 0.0
C454 C 0.68392 0.79509 0.75182 0.0
C455 C 0.69765 0.83175 0.7414 0.0
C456 C 0.69338 0.87369 0.74917 0.0
C457 C 0.67594 0.87964 0.76665 0.0
C458 C 0.67648 0.92763 0.77229 0.0
C459 C 0.62929 0.94542 0.7749 0.0
C460 C 0.7045 0.93448 0.7898 0.0
C461 C 0.69817 0.94771 0.7555 0.0
C462 C 0.70731 0.91639 0.74217 0.0
C463 C 0.72912 0.92744 0.72581 0.0
C464 C 0.74259 0.97147 0.72323 0.0
C465 C 0.73451 0.00361 0.73704 0.0
C466 C 0.71114 0.99142 0.75314 0.0
H467 H 0.01353 0.3278 0.25253 0.0
H468 H 0.98083 0.25319 0.30172 0.0
H469 H 0.90199 0.2734 0.29763 0.0
H470 H 0.92522 0.41497 0.25648 0.0
H471 H 0.9173 0.4147 0.23181 0.0
H472 H 0.97112 0.40346 0.24136 0.0
H473 H 0.97363 0.32963 0.22331 0.0
H474 H 0.91968 0.34005 0.214 0.0
H475 H 0.93018 0.28982 0.22662 0.0
H476 H 0.82484 0.29246 0.28486 0.0
H477 H 0.75945 0.30837 0.26522 0.0
H478 H 0.84499 0.36532 0.22365 0.0
C479 C 0.99008 0.31697 0.26287 0.0
C480 C 0.00339 0.28909 0.27751 0.0
C481 C 0.97155 0.27519 0.29058 0.0
C482 C 0.92663 0.28633 0.28827 0.0
C483 C 0.91433 0.31166 0.27294 0.0
C484 C 0.94549 0.32725 0.26062 0.0
C485 C 0.92422 0.34893 0.24402 0.0
C486 C 0.93511 0.39846 0.24339 0.0
C487 C 0.93773 0.32569 0.22594 0.0
C488 C 0.8761 0.34148 0.24841 0.0
C489 C 0.8707 0.32093 0.26532 0.0
C490 C 0.82885 0.30904 0.27172 0.0
C491 C 0.79192 0.31807 0.26049 0.0
C492 C 0.79729 0.33778 0.2429 0.0
C493 C 0.83989 0.35006 0.23701 0.0
H494 H 0.28534 0.97911 0.76667 0.0
H495 H 0.2541 0.00448 0.70909 0.0
H496 H 0.27678 0.08238 0.71315 0.0
H497 H 0.24106 0.07584 0.78391 0.0
H498 H 0.28218 0.08355 0.80161 0.0
H499 H 0.26958 0.02886 0.79354 0.0
H500 H 0.35189 0.01572 0.78527 0.0
H501 H 0.36492 0.07018 0.79362 0.0
H502 H 0.37995 0.05442 0.77045 0.0
H503 H 0.29772 0.15955 0.72458 0.0
H504 H 0.31616 0.22748 0.74204 0.0
H505 H 0.32948 0.14994 0.79211 0.0
C506 C 0.28404 1.00059 0.75473 0.0
C507 C 0.26799 0.98545 0.73752 0.0
C508 C 0.26657 0.0151 0.72238 0.0
C509 C 0.27927 0.05947 0.72458 0.0
C510 C 0.29338 0.07352 0.74196 0.0
C511 C 0.29612 0.04471 0.75671 0.0
C512 C 0.30936 0.06812 0.77429 0.0
C513 C 0.2734 0.06383 0.7892 0.0
C514 C 0.3542 0.0511 0.78131 0.0
C515 C 0.31277 0.11492 0.76729 0.0
C516 C 0.30401 0.11751 0.74858 0.0
C517 C 0.30481 0.15776 0.73921 0.0
C518 C 0.31512 0.19615 0.74924 0.0
C519 C 0.32389 0.19396 0.76843 0.0
C520 C 0.32257 0.15276 0.77748 0.0
H521 H 0.97968 0.69896 0.24162 0.0
H522 H 0.01285 0.76353 0.2932 0.0
H523 H 0.09193 0.74576 0.2879 0.0
H524 H 0.06734 0.61239 0.24231 0.0
H525 H 0.07502 0.61707 0.2177 0.0
H526 H 0.02144 0.62713 0.22769 0.0
H527 H 0.01974 0.70409 0.21203 0.0
H528 H 0.07362 0.69483 0.20238 0.0
H529 H 0.06362 0.7427 0.21658 0.0
H530 H 0.1692 0.72855 0.27433 0.0
H531 H 0.23458 0.71154 0.25486 0.0
H532 H 0.14803 0.66351 0.21166 0.0
C533 C 0.00331 0.70821 0.25215 0.0
C534 C 0.98999 0.73245 0.26789 0.0
C535 C 0.02213 0.74428 0.2812 0.0
C536 C 0.06718 0.73461 0.2782 0.0
C537 C 0.07933 0.71289 0.26191 0.0
C538 C 0.04799 0.69935 0.24926 0.0
C539 C 0.06897 0.68051 0.23201 0.0
C540 C 0.05752 0.63136 0.22981 0.0
C541 C 0.05569 0.70714 0.21475 0.0
C542 C 0.11719 0.68667 0.23656 0.0
C543 C 0.12285 0.7047 0.25395 0.0
C544 C 0.16493 0.71413 0.26078 0.0
C545 C 0.20186 0.7046 0.2496 0.0
C546 C 0.19638 0.68661 0.23168 0.0
C547 C 0.1534 0.67761 0.22521 0.0
H548 H 0.69182 0.48415 0.49577 0.0
H549 H 0.75762 0.51972 0.54679 0.0
H550 H 0.73761 0.59825 0.54143 0.0
H551 H 0.73183 0.56862 0.47009 0.0
H552 H 0.68299 0.57743 0.45634 0.0
H553 H 0.69387 0.52389 0.46604 0.0
H554 H 0.61783 0.52431 0.48245 0.0
H555 H 0.60614 0.57755 0.47243 0.0
H556 H 0.603 0.57016 0.49709 0.0
H557 H 0.71847 0.67446 0.52787 0.0
H558 H 0.70034 0.73929 0.50835 0.0
H559 H 0.65172 0.6519 0.46556 0.0
C560 C 0.70092 0.5082 0.50616 0.0
C561 C 0.72618 0.49575 0.52176 0.0
C562 C 0.73769 0.52834 0.5349 0.0
C563 C 0.7267 0.57307 0.53187 0.0
C564 C 0.70392 0.58442 0.51573 0.0
C565 C 0.69066 0.55261 0.50325 0.0
C566 C 0.67045 0.57299 0.48611 0.0
C567 C 0.69635 0.55996 0.46863 0.0
C568 C 0.62144 0.56052 0.48443 0.0
C569 C 0.67585 0.62145 0.49048 0.0
C570 C 0.69442 0.62761 0.50775 0.0
C571 C 0.70357 0.66984 0.51443 0.0
C572 C 0.69336 0.70646 0.50321 0.0
C573 C 0.67496 0.70061 0.48539 0.0
C574 C 0.66604 0.65748 0.47906 0.0
H575 H 0.64827 0.36796 0.5298 0.0
H576 H 0.73429 0.30239 0.4906 0.0
H577 H 0.66919 0.28364 0.47128 0.0
H578 H 0.56662 0.29314 0.53018 0.0
H579 H 0.52153 0.33186 0.53195 0.0
H580 H 0.57511 0.34675 0.5404 0.0
H581 H 0.57499 0.41614 0.51939 0.0
H582 H 0.5211 0.4014 0.51083 0.0
H583 H 0.566 0.41011 0.49492 0.0
H584 H 0.59319 0.26144 0.45953 0.0
H585 H 0.51517 0.2382 0.45664 0.0
H586 H 0.48081 0.32132 0.50326 0.0
C587 C 0.6535 0.35045 0.51693 0.0
C588 C 0.69593 0.33619 0.51167 0.0
C589 C 0.7018 0.31359 0.49476 0.0
C590 C 0.6651 0.30302 0.48372 0.0
C591 C 0.62325 0.31644 0.48963 0.0
C592 C 0.61756 0.34036 0.50574 0.0
C593 C 0.56939 0.34754 0.51015 0.0
C594 C 0.5575 0.32866 0.52929 0.0
C595 C 0.55716 0.39672 0.50873 0.0
C596 C 0.54859 0.3213 0.49474 0.0
C597 C 0.57991 0.30438 0.48275 0.0
C598 C 0.56836 0.27538 0.46857 0.0
C599 C 0.52398 0.26238 0.46701 0.0
C600 C 0.49208 0.27793 0.47976 0.0
C601 C 0.50448 0.30898 0.49329 0.0
H602 H 0.22792 0.46779 0.52989 0.0
H603 H 0.34756 0.54165 0.51976 0.0
H604 H 0.38409 0.47403 0.50838 0.0
H605 H 0.28576 0.35712 0.54207 0.0
H606 H 0.24279 0.32654 0.53059 0.0
H607 H 0.22987 0.37773 0.54214 0.0
H608 H 0.19552 0.40725 0.51185 0.0
H609 H 0.20946 0.35695 0.50001 0.0
H610 H 0.2287 0.40911 0.49118 0.0
H611 H 0.39983 0.40618 0.49052 0.0
H612 H 0.39986 0.33667 0.47278 0.0
H613 H 0.27331 0.30174 0.49645 0.0
C614 C 0.26272 0.46881 0.52649 0.0
C615 C 0.28558 0.50945 0.52631 0.0
C616 C 0.33019 0.51046 0.52062 0.0
C617 C 0.35099 0.47228 0.51395 0.0
C618 C 0.32682 0.43319 0.51322 0.0
C619 C 0.2841 0.43066 0.5199 0.0
C620 C 0.26414 0.38568 0.51575 0.0
C621 C 0.25512 0.36025 0.53371 0.0
C622 C 0.22198 0.39005 0.504 0.0
C623 C 0.30131 0.36438 0.50482 0.0
C624 C 0.33707 0.39254 0.50352 0.0
C625 C 0.37285 0.38311 0.49206 0.0
C626 C 0.37247 0.34368 0.48195 0.0
C627 C 0.33719 0.31346 0.48367 0.0
C628 C 0.30126 0.3238 0.49535 0.0
H629 H 0.52339 0.69415 0.50668 0.0
H630 H 0.48799 0.76347 0.45637 0.0
H631 H 0.41072 0.73831 0.45995 0.0
H632 H 0.44322 0.60034 0.50162 0.0
H633 H 0.43329 0.59967 0.52616 0.0
H634 H 0.48672 0.61532 0.51739 0.0
H635 H 0.48157 0.68912 0.53545 0.0
H636 H 0.42816 0.67403 0.54408 0.0
H637 H 0.43494 0.72512 0.53165 0.0
H638 H 0.33497 0.71435 0.47186 0.0
H639 H 0.26969 0.69461 0.49093 0.0
H640 H 0.35672 0.64407 0.5335 0.0
C641 C 0.49971 0.70314 0.49611 0.0
C642 C 0.51167 0.73083 0.48127 0.0
C643 C 0.47963 0.74195 0.46779 0.0
C644 C 0.43566 0.72781 0.46971 0.0
C645 C 0.4246 0.70209 0.48503 0.0
C646 C 0.45603 0.68943 0.49785 0.0
C647 C 0.43556 0.66594 0.51412 0.0
C648 C 0.45059 0.61744 0.51485 0.0
C649 C 0.44565 0.69002 0.53238 0.0
C650 C 0.38741 0.6695 0.50903 0.0
C651 C 0.38149 0.68936 0.49201 0.0
C652 C 0.33934 0.69821 0.48507 0.0
C653 C 0.30251 0.68703 0.49596 0.0
C654 C 0.30842 0.66827 0.51368 0.0
C655 C 0.35132 0.65867 0.52003 0.0
H656 H 0.25553 0.1985 0.4243 0.0
H657 H 0.38013 0.15201 0.40202 0.0
H658 H 0.345 0.14219 0.37144 0.0
H659 H 0.18115 0.12907 0.39588 0.0
H660 H 0.14146 0.17294 0.39294 0.0
H661 H 0.17446 0.17029 0.41363 0.0
H662 H 0.20187 0.24999 0.40775 0.0
H663 H 0.16909 0.25288 0.38706 0.0
H664 H 0.22761 0.26322 0.386 0.0
H665 H 0.29834 0.14234 0.3431 0.0
H666 H 0.24542 0.15703 0.31814 0.0
H667 H 0.15097 0.20761 0.35804 0.0
C668 C 0.27507 0.18509 0.41309 0.0
C669 C 0.3204 0.17518 0.41557 0.0
C670 C 0.34531 0.15929 0.40044 0.0
C671 C 0.32557 0.15351 0.38306 0.0
C672 C 0.28099 0.16427 0.38099 0.0
C673 C 0.25606 0.17998 0.39555 0.0
C674 C 0.21012 0.19338 0.38917 0.0
C675 C 0.1747 0.1647 0.39846 0.0
C676 C 0.2017 0.2428 0.39271 0.0
C677 C 0.21335 0.18351 0.36866 0.0
C678 C 0.25433 0.16603 0.36438 0.0
C679 C 0.26609 0.15573 0.34632 0.0
C680 C 0.23567 0.16432 0.33221 0.0
C681 C 0.19389 0.18351 0.33608 0.0
C682 C 0.18236 0.19248 0.35465 0.0
H683 H 0.19948 0.65678 0.60728 0.0
H684 H 0.16721 0.75719 0.56659 0.0
H685 H 0.15456 0.81102 0.59136 0.0
H686 H 0.11767 0.69408 0.64209 0.0
H687 H 0.15369 0.68233 0.66129 0.0
H688 H 0.15781 0.65021 0.6404 0.0
H689 H 0.24086 0.6695 0.63797 0.0
H690 H 0.23697 0.70168 0.65881 0.0
H691 H 0.25749 0.72662 0.63792 0.0
H692 H 0.15281 0.85672 0.6201 0.0
H693 H 0.15743 0.8893 0.65142 0.0
H694 H 0.18587 0.7597 0.67403 0.0
C695 C 0.18907 0.68987 0.60363 0.0
C696 C 0.18442 0.70252 0.5849 0.0
C697 C 0.17106 0.74639 0.58076 0.0
C698 C 0.16371 0.77743 0.59477 0.0
C699 C 0.16926 0.76428 0.61301 0.0
C700 C 0.18109 0.72146 0.61755 0.0
C701 C 0.18581 0.71662 0.63834 0.0
C702 C 0.15171 0.68386 0.64598 0.0
C703 C 0.23309 0.7028 0.64356 0.0
C704 C 0.17577 0.7635 0.64462 0.0
C705 C 0.16641 0.79048 0.62976 0.0
C706 C 0.15925 0.83577 0.63191 0.0
C707 C 0.16196 0.85405 0.64972 0.0
C708 C 0.17114 0.827 0.66517 0.0
C709 C 0.17761 0.78106 0.66253 0.0
H710 H 0.74427 0.80317 0.42044 0.0
H711 H 0.61755 0.84844 0.39987 0.0
H712 H 0.65014 0.85857 0.36883 0.0
H713 H 0.8152 0.87374 0.39159 0.0
H714 H 0.85553 0.83083 0.38779 0.0
H715 H 0.82384 0.83174 0.40887 0.0
H716 H 0.7975 0.75188 0.40257 0.0
H717 H 0.82907 0.75071 0.38151 0.0
H718 H 0.77072 0.73926 0.38098 0.0
H719 H 0.69494 0.86104 0.34008 0.0
H720 H 0.74686 0.85039 0.31447 0.0
H721 H 0.84496 0.79903 0.35265 0.0
C722 C 0.72368 0.81611 0.40946 0.0
C723 C 0.67848 0.82577 0.41259 0.0
C724 C 0.65224 0.84123 0.39779 0.0
C725 C 0.67054 0.8472 0.38015 0.0
C726 C 0.71503 0.83697 0.37747 0.0
C727 C 0.74125 0.82137 0.39164 0.0
C728 C 0.78706 0.80924 0.38461 0.0
C729 C 0.82251 0.83812 0.39376 0.0
C730 C 0.79663 0.75984 0.38759 0.0
C731 C 0.78236 0.82007 0.36421 0.0
C732 C 0.74066 0.83664 0.36055 0.0
C733 C 0.72767 0.8482 0.34279 0.0
C734 C 0.7576 0.84194 0.3283 0.0
C735 C 0.80018 0.82378 0.33145 0.0
C736 C 0.81289 0.81331 0.34977 0.0
H737 H 0.78717 0.2406 0.67282 0.0
H738 H 0.8326 0.11475 0.65131 0.0
H739 H 0.84357 0.14899 0.62062 0.0
H740 H 0.72497 0.27045 0.633 0.0
H741 H 0.73722 0.32856 0.63444 0.0
H742 H 0.73668 0.29537 0.65507 0.0
H743 H 0.81647 0.32013 0.66252 0.0
H744 H 0.81732 0.35333 0.64186 0.0
H745 H 0.85938 0.31207 0.64558 0.0
H746 H 0.84806 0.19587 0.59241 0.0
H747 H 0.84003 0.24997 0.56743 0.0
H748 H 0.78774 0.34596 0.60633 0.0
C749 C 0.80005 0.22041 0.6617 0.0
C750 C 0.80961 0.17504 0.66448 0.0
C751 C 0.82532 0.14951 0.6495 0.0
C752 C 0.83179 0.16876 0.63206 0.0
C753 C 0.8219 0.21349 0.62977 0.0
C754 C 0.80595 0.23895 0.64411 0.0
C755 C 0.79492 0.28545 0.63757 0.0
C756 C 0.74551 0.29553 0.64017 0.0
C757 C 0.82375 0.31977 0.64747 0.0
C758 C 0.80689 0.28208 0.61724 0.0
C759 C 0.82294 0.24036 0.6132 0.0
C760 C 0.83555 0.22859 0.59542 0.0
C761 C 0.8308 0.25976 0.58129 0.0
C762 C 0.81314 0.30241 0.58483 0.0
C763 C 0.80166 0.31388 0.60317 0.0
H764 H 0.25118 0.30568 0.92127 0.0
H765 H 0.12587 0.35295 0.90005 0.0
H766 H 0.16107 0.36782 0.86978 0.0
H767 H 0.32447 0.38002 0.89511 0.0
H768 H 0.36493 0.33738 0.89104 0.0
H769 H 0.33155 0.33606 0.91165 0.0
H770 H 0.30537 0.25712 0.90342 0.0
H771 H 0.33874 0.25812 0.88287 0.0
H772 H 0.28043 0.24708 0.88121 0.0
H773 H 0.20886 0.3739 0.84156 0.0
H774 H 0.26241 0.36326 0.8164 0.0
H775 H 0.35622 0.30724 0.85524 0.0
C776 C 0.2314 0.32015 0.91037 0.0
C777 C 0.18592 0.32899 0.91308 0.0
C778 C 0.16079 0.3464 0.89831 0.0
C779 C 0.18059 0.35509 0.88112 0.0
C780 C 0.22544 0.34565 0.87886 0.0
C781 C 0.25044 0.32809 0.89303 0.0
C782 C 0.29669 0.31651 0.88646 0.0
C783 C 0.33147 0.34415 0.89667 0.0
C784 C 0.30582 0.26676 0.88862 0.0
C785 C 0.2937 0.32966 0.86627 0.0
C786 C 0.25256 0.34722 0.86232 0.0
C787 C 0.24119 0.36039 0.84453 0.0
C788 C 0.27201 0.35423 0.83031 0.0
C789 C 0.31372 0.33447 0.83378 0.0
C790 C 0.32497 0.323 0.85214 0.0
H791 H 0.30539 0.74327 0.16547 0.0
H792 H 0.33209 0.61044 0.14599 0.0
H793 H 0.34114 0.63916 0.1142 0.0
H794 H 0.23925 0.77446 0.12723 0.0
H795 H 0.25782 0.83094 0.12661 0.0
H796 H 0.25813 0.80094 0.14808 0.0
H797 H 0.34139 0.81753 0.1521 0.0
H798 H 0.34135 0.84766 0.13064 0.0
H799 H 0.37947 0.80258 0.134 0.0
H800 H 0.34499 0.68159 0.08463 0.0
H801 H 0.33835 0.73318 0.05863 0.0
H802 H 0.3045 0.83904 0.09659 0.0
C803 C 0.31402 0.72037 0.15455 0.0
C804 C 0.31879 0.67463 0.15822 0.0
C805 C 0.32871 0.64556 0.1435 0.0
C806 C 0.33398 0.66163 0.12543 0.0
C807 C 0.32863 0.70681 0.12226 0.0
C808 C 0.31852 0.73577 0.13637 0.0
C809 C 0.31111 0.78222 0.12897 0.0
C810 C 0.26377 0.79805 0.13296 0.0
C811 C 0.34538 0.8144 0.1369 0.0
C812 C 0.31833 0.77482 0.10844 0.0
C813 C 0.32901 0.73115 0.10499 0.0
C814 C 0.33672 0.71583 0.08718 0.0
C815 C 0.33285 0.7456 0.07247 0.0
C816 C 0.32085 0.79037 0.07548 0.0
C817 C 0.31391 0.80518 0.0938 0.0
H818 H 0.8486 0.68418 0.89686 0.0
H819 H 0.75325 0.64276 0.93807 0.0
H820 H 0.69626 0.63661 0.91399 0.0
H821 H 0.77718 0.75092 0.8714 0.0
H822 H 0.79872 0.73657 0.84897 0.0
H823 H 0.83375 0.73318 0.869 0.0
H824 H 0.85063 0.65108 0.86178 0.0
H825 H 0.81599 0.65435 0.84159 0.0
H826 H 0.80564 0.61284 0.85888 0.0
H827 H 0.64685 0.64402 0.88616 0.0
H828 H 0.61105 0.65779 0.8559 0.0
H829 H 0.73849 0.69111 0.83248 0.0
C830 C 0.8161 0.67261 0.90071 0.0
C831 C 0.80558 0.66383 0.91939 0.0
C832 C 0.7623 0.64959 0.92388 0.0
C833 C 0.72954 0.64603 0.91028 0.0
C834 C 0.74047 0.65635 0.89213 0.0
C835 C 0.78288 0.66863 0.88724 0.0
C836 C 0.78529 0.67974 0.86683 0.0
C837 C 0.79957 0.72796 0.86389 0.0
C838 C 0.81622 0.64758 0.85667 0.0
C839 C 0.73755 0.67282 0.86118 0.0
C840 C 0.71217 0.65938 0.87597 0.0
C841 C 0.66655 0.65374 0.87438 0.0
C842 C 0.64643 0.6618 0.85719 0.0
C843 C 0.67196 0.67497 0.8418 0.0
C844 C 0.71813 0.68026 0.8439 0.0
H845 H 0.70879 0.24134 0.08223 0.0
H846 H 0.683 0.11007 0.10358 0.0
H847 H 0.66946 0.14181 0.13456 0.0
H848 H 0.76881 0.27871 0.12149 0.0
H849 H 0.74825 0.33456 0.12047 0.0
H850 H 0.75217 0.30217 0.09968 0.0
H851 H 0.66915 0.31576 0.09325 0.0
H852 H 0.66492 0.34809 0.11408 0.0
H853 H 0.62898 0.30148 0.11061 0.0
H854 H 0.66014 0.18703 0.16305 0.0
H855 H 0.66207 0.24128 0.1882 0.0
H856 H 0.69779 0.34412 0.14918 0.0
C857 C 0.69972 0.21936 0.09339 0.0
C858 C 0.69644 0.17321 0.09049 0.0
C859 C 0.68551 0.14545 0.1055 0.0
C860 C 0.67759 0.16323 0.1231 0.0
C861 C 0.6812 0.20881 0.12551 0.0
C862 C 0.69244 0.23652 0.11113 0.0
C863 C 0.69713 0.28392 0.11777 0.0
C864 C 0.7444 0.30082 0.11467 0.0
C865 C 0.66301 0.31409 0.10837 0.0
C866 C 0.68711 0.2785 0.13819 0.0
C867 C 0.67739 0.23493 0.14221 0.0
C868 C 0.66769 0.22121 0.16006 0.0
C869 C 0.66888 0.25247 0.17428 0.0
C870 C 0.68015 0.29715 0.17074 0.0
C871 C 0.68873 0.3104 0.15234 0.0
H872 H 0.93855 0.93636 0.24729 0.0
H873 H 0.91959 0.91279 0.30599 0.0
H874 H 0.96758 0.97587 0.31311 0.0
H875 H 0.05118 0.96564 0.24956 0.0
H876 H 0.04795 0.00865 0.2324 0.0
H877 H 0.01018 0.96287 0.23155 0.0
H878 H 0.94355 0.01669 0.2323 0.0
H879 H 0.98112 0.06267 0.23277 0.0
H880 H 0.93973 0.05714 0.2505 0.0
H881 H 0.02151 0.0377 0.31408 0.0
H882 H 0.07006 0.10145 0.30889 0.0
H883 H 0.05303 0.08662 0.24958 0.0
C884 C 0.94382 0.94484 0.26164 0.0
C885 C 0.92527 0.91932 0.27605 0.0
C886 C 0.9333 0.93164 0.29466 0.0
C887 C 0.96075 0.96735 0.29888 0.0
C888 C 0.97969 0.99072 0.28438 0.0
C889 C 0.97099 0.9806 0.26614 0.0
C890 C 0.99555 0.01131 0.25321 0.0
C891 C 0.02814 0.98556 0.24096 0.0
C892 C 0.96305 0.03858 0.24151 0.0
C893 C 0.01964 0.03998 0.26707 0.0
C894 C 0.01027 0.02722 0.28495 0.0
C895 C 0.02885 0.04829 0.30015 0.0
C896 C 0.05666 0.08437 0.29701 0.0
C897 C 0.06541 0.09934 0.27881 0.0
C898 C 0.04718 0.07612 0.26366 0.0
H899 H 0.907 0.04816 0.70787 0.0
H900 H 0.93623 0.12813 0.75608 0.0
H901 H 0.00559 0.08719 0.76057 0.0
H902 H 0.94348 0.94847 0.72581 0.0
H903 H 0.96842 0.92704 0.70505 0.0
H904 H 0.92377 0.96622 0.70351 0.0
H905 H 0.97203 0.01828 0.6837 0.0
H906 H 0.01665 0.97887 0.68485 0.0
H907 H 0.0254 0.03508 0.69214 0.0
H908 H 0.06428 0.03221 0.76302 0.0
H909 H 0.11726 0.97143 0.76104 0.0
H910 H 0.05532 0.92583 0.71038 0.0
C911 C 0.9289 0.05813 0.71892 0.0
C912 C 0.91627 0.09169 0.73157 0.0
C913 C 0.9452 0.1028 0.7462 0.0
C914 C 0.98467 0.07962 0.74889 0.0
C915 C 0.99513 0.04547 0.73677 0.0
C916 C 0.9688 0.03514 0.72183 0.0
C917 C 0.9872 0.99504 0.71162 0.0
C918 C 0.95371 0.95695 0.7115 0.0
C919 C 0.00115 0.00757 0.6919 0.0
C920 C 0.02713 0.98387 0.72353 0.0
C921 C 0.03059 0.01357 0.73796 0.0
C922 C 0.06242 0.00916 0.75162 0.0
C923 C 0.09213 0.97398 0.75045 0.0
C924 C 0.09052 0.94339 0.7356 0.0
C925 C 0.05755 0.94863 0.72185 0.0
H926 H 0.07738 0.42617 0.95599 0.0
H927 H 0.07424 0.39803 0.01495 0.0
H928 H 0.02016 0.45664 0.01945 0.0
H929 H 0.0694 0.54698 0.96234 0.0
H930 H 0.0358 0.55521 0.94208 0.0
H931 H 0.07449 0.50998 0.94294 0.0
H932 H 0.011 0.4556 0.9357 0.0
H933 H 0.97197 0.50061 0.9352 0.0
H934 H 0.96308 0.45445 0.95046 0.0
H935 H 0.96282 0.51248 0.01811 0.0
H936 H 0.91648 0.5773 0.01228 0.0
H937 H 0.95861 0.57824 0.95487 0.0
C938 C 0.06578 0.4328 0.96986 0.0
C939 C 0.08014 0.40668 0.98503 0.0
C940 C 0.06409 0.41691 0.00297 0.0
C941 C 0.03284 0.4501 0.00574 0.0
C942 C 0.01824 0.47389 0.99055 0.0
C943 C 0.03496 0.46701 0.97304 0.0
C944 C 0.01486 0.50001 0.95952 0.0
C945 C 0.05078 0.52982 0.95123 0.0
C946 C 0.98868 0.47623 0.94432 0.0
C947 C 0.98423 0.52593 0.97227 0.0
C948 C 0.98634 0.50924 0.98999 0.0
C949 C 0.96127 0.52642 0.00436 0.0
C950 C 0.93487 0.56327 1.00086 0.0
C951 C 0.93413 0.58337 0.98317 0.0
C952 C 0.95819 0.56354 0.9685 0.0
H953 H 0.43956 0.94016 0.99436 0.0
H954 H 0.41606 0.91409 0.05255 0.0
H955 H 0.47616 0.96531 0.06072 0.0
H956 H 0.55937 0.94909 0.99763 0.0
H957 H 0.56191 0.9925 0.98064 0.0
H958 H 0.51853 0.95204 0.97956 0.0
H959 H 0.46047 0.01505 0.98005 0.0
H960 H 0.50365 0.05566 0.98154 0.0
H961 H 0.46072 0.05429 0.99877 0.0
H962 H 0.53642 0.02261 0.06261 0.0
H963 H 0.59781 0.07478 0.05799 0.0
H964 H 0.58142 0.06345 0.99856 0.0
C965 C 0.44742 0.9445 0.00884 0.0
C966 C 0.42288 0.92286 0.02279 0.0
C967 C 0.43432 0.92999 0.04156 0.0
C968 C 0.46827 0.9593 0.04636 0.0
C969 C 0.49065 0.98119 0.03227 0.0
C970 C 0.48114 0.97363 0.01389 0.0
C971 C 0.50999 0.00145 0.00139 0.0
C972 C 0.53919 0.97201 0.98908 0.0
C973 C 0.48202 0.0335 0.98976 0.0
C974 C 0.53716 0.02597 0.01562 0.0
C975 C 0.52533 0.01403 0.03335 0.0
C976 C 0.54606 0.03207 0.04878 0.0
C977 C 0.58079 0.06196 0.04599 0.0
C978 C 0.59464 0.07348 0.0279 0.0
C979 C 0.57164 0.0558 0.01258 0.0
H980 H 0.43528 0.42636 0.7935 0.0
H981 H 0.49068 0.36313 0.7448 0.0
H982 H 0.54864 0.41909 0.74343 0.0
H983 H 0.45263 0.5368 0.77751 0.0
H984 H 0.46647 0.55898 0.79987 0.0
H985 H 0.43074 0.51176 0.79815 0.0
H986 H 0.48313 0.46792 0.81973 0.0
H987 H 0.51935 0.51493 0.82129 0.0
H988 H 0.54062 0.46235 0.81369 0.0
H989 H 0.59864 0.48197 0.7459 0.0
H990 H 0.63405 0.55422 0.75041 0.0
H991 H 0.54785 0.58004 0.7971 0.0
C992 C 0.45971 0.42436 0.78262 0.0
C993 C 0.45806 0.39038 0.76921 0.0
C994 C 0.4906 0.38905 0.75511 0.0
C995 C 0.52415 0.42045 0.7543 0.0
C996 C 0.52494 0.45338 0.76762 0.0
C997 C 0.49345 0.45612 0.7814 0.0
C998 C 0.50061 0.4972 0.79307 0.0
C999 C 0.46022 0.52801 0.79208 0.0
C1000 C 0.51158 0.48484 0.81314 0.0
C1001 C 0.54039 0.51722 0.78339 0.0
C1002 C 0.55416 0.49078 0.76896 0.0
C1003 C 0.58852 0.5029 0.75726 0.0
C1004 C 0.60846 0.54398 0.75993 0.0
C1005 C 0.59398 0.57257 0.77417 0.0
C1006 C 0.5603 0.55842 0.78637 0.0
H1007 H 0.58563 0.45698 0.2066 0.0
H1008 H 0.54274 0.37044 0.25078 0.0
H1009 H 0.47241 0.41114 0.25277 0.0
H1010 H 0.54572 0.55352 0.22576 0.0
H1011 H 0.52732 0.5794 0.20469 0.0
H1012 H 0.57141 0.53947 0.20407 0.0
H1013 H 0.52834 0.49256 0.1803 0.0
H1014 H 0.48434 0.53278 0.18056 0.0
H1015 H 0.47266 0.47562 0.18543 0.0
H1016 H 0.41343 0.46607 0.25362 0.0
H1017 H 0.36314 0.52923 0.25141 0.0
H1018 H 0.4403 0.58268 0.20609 0.0
C1019 C 0.56054 0.44554 0.2161 0.0
C1020 C 0.56925 0.41 0.22835 0.0
C1021 C 0.53648 0.39711 0.24115 0.0
C1022 C 0.49649 0.42014 0.2424 0.0
C1023 C 0.48965 0.45612 0.23076 0.0
C1024 C 0.52025 0.46856 0.21763 0.0
C1025 C 0.50562 0.5109 0.20796 0.0
C1026 C 0.53954 0.548 0.2108 0.0
C1027 C 0.49723 0.50245 0.18733 0.0
C1028 C 0.46274 0.52084 0.21813 0.0
C1029 C 0.45452 0.48851 0.23117 0.0
C1030 C 0.4191 0.49123 0.24328 0.0
C1031 C 0.39098 0.52766 0.24203 0.0
C1032 C 0.39789 0.56123 0.22868 0.0
C1033 C 0.43409 0.5575 0.21637 0.0
H1034 H 0.42686 0.07093 0.45822 0.0
H1035 H 0.45244 0.11314 0.51469 0.0
H1036 H 0.50954 0.05701 0.51765 0.0
H1037 H 0.44095 0.95263 0.46885 0.0
H1038 H 0.46653 0.93964 0.44703 0.0
H1039 H 0.4276 0.98456 0.44858 0.0
H1040 H 0.4861 0.03736 0.43486 0.0
H1041 H 0.52547 0.99271 0.43359 0.0
H1042 H 0.53906 0.04244 0.44601 0.0
H1043 H 0.56691 0.00157 0.5148 0.0
H1044 H 0.61174 0.9358 0.50878 0.0
H1045 H 0.54808 0.92003 0.45539 0.0
C1046 C 0.44414 0.06795 0.47125 0.0
C1047 C 0.43475 0.09715 0.48615 0.0
C1048 C 0.45829 0.09167 0.50298 0.0
C1049 C 0.49143 0.05996 0.50482 0.0
C1050 C 0.50066 0.0328 0.48989 0.0
C1051 C 0.47706 0.03516 0.4736 0.0
C1052 C 0.49256 0.99902 0.46037 0.0
C1053 C 0.45465 0.96706 0.45595 0.0
C1054 C 0.51194 0.0191 0.44265 0.0
C1055 C 0.5284 0.97653 0.47188 0.0
C1056 C 0.53282 0.99767 0.48867 0.0
C1057 C 0.56346 0.98425 0.50181 0.0
C1058 C 0.58895 0.94678 0.4982 0.0
C1059 C 0.58339 0.92223 0.48169 0.0
C1060 C 0.55349 0.93817 0.46807 0.0
H1061 H 0.93051 0.43956 0.50132 0.0
H1062 H 0.90747 0.42361 0.56019 0.0
H1063 H 0.97081 0.47206 0.56675 0.0
H1064 H 0.05119 0.44208 0.50394 0.0
H1065 H 0.05543 0.48262 0.4858 0.0
H1066 H 0.01006 0.44431 0.48596 0.0
H1067 H 0.95523 0.51014 0.48492 0.0
H1068 H 1.0004 0.54866 0.4852 0.0
H1069 H 0.9579 0.55206 0.50256 0.0
H1070 H 0.03345 0.52645 0.56689 0.0
H1071 H 0.09655 0.57548 0.56065 0.0
H1072 H 0.0782 0.55566 0.50169 0.0
C1073 C 0.93917 0.44546 0.51562 0.0
C1074 C 0.9138 0.42767 0.53022 0.0
C1075 C 0.92633 0.43664 0.54872 0.0
C1076 C 0.96214 0.46437 0.55262 0.0
C1077 C 0.98527 0.48268 0.53787 0.0
C1078 C 0.97477 0.473 0.51976 0.0
C1079 C 0.00456 0.49732 0.50643 0.0
C1080 C 0.03194 0.46463 0.49486 0.0
C1081 C 0.97792 0.52891 0.49405 0.0
C1082 C 0.03323 0.52248 0.51989 0.0
C1083 C 0.02146 0.51377 0.53796 0.0
C1084 C 0.04317 0.53331 0.5528 0.0
C1085 C 0.07883 0.56138 0.54908 0.0
C1086 C 0.09255 0.56953 0.53066 0.0
C1087 C 0.06865 0.55038 0.51593 0.0
loop_
_geom_bond_atom_site_label_1
_geom_bond_atom_site_label_2
_geom_bond_distance
_geom_bond_site_symmetry_2
_ccdc_geom_bond_type
Co0 O1 2.216 . S
Co0 O2 2.091 . S
Co0 O4 2.004 . S
Co0 O10 2.021 . S
Co0 O12 2.137 . S
Co0 O13 2.244 . S
O1 Co0 2.216 . S
O1 C8 1.247 . S
O2 Co0 2.091 . S
O2 C8 1.261 . S
C3 O12 1.247 . S
C3 O13 1.272 . S
O4 Co0 2.004 . S
O4 C9 1.259 . S
Co5 O6 2.061 . S
Co5 O11 2.052 . S
Co5 O13 2.135 . S
O6 Co5 2.061 . S
O6 C9 1.235 . S
C7 O10 1.238 . S
C7 O11 1.241 . S
C8 O1 1.247 . S
C8 O2 1.261 . S
C9 O4 1.259 . S
C9 O6 1.235 . S
O10 Co0 2.021 . S
O10 C7 1.238 . S
O11 Co5 2.052 . S
O11 C7 1.241 . S
O12 Co0 2.137 . S
O12 C3 1.247 . S
O13 Co0 2.244 . S
O13 C3 1.272 . S
O13 Co5 2.135 . S
Co14 O15 2.216 . S
Co14 O16 2.091 . S
Co14 O18 2.004 . S
Co14 O24 2.021 . S
Co14 O26 2.137 . S
Co14 O27 2.244 . S
O15 Co14 2.216 . S
O15 C22 1.247 . S
O16 Co14 2.091 . S
O16 C22 1.261 . S
C17 O26 1.247 . S
C17 O27 1.272 . S
O18 Co14 2.004 . S
O18 C23 1.259 . S
Co19 O20 2.061 . S
Co19 O25 2.052 . S
Co19 O27 2.135 . S
O20 Co19 2.061 . S
O20 C23 1.235 . S
C21 O24 1.238 . S
C21 O25 1.241 . S
C22 O15 1.247 . S
C22 O16 1.261 . S
C23 O18 1.259 . S
C23 O20 1.235 . S
O24 Co14 2.021 . S
O24 C21 1.238 . S
O25 Co19 2.052 . S
O25 C21 1.241 . S
O26 Co14 2.137 . S
O26 C17 1.247 . S
O27 Co14 2.244 . S
O27 C17 1.272 . S
O27 Co19 2.135 . S
Co28 O29 2.216 . S
Co28 O30 2.091 . S
Co28 O32 2.004 . S
Co28 O38 2.021 . S
Co28 O40 2.137 . S
Co28 O41 2.244 . S
O29 Co28 2.216 . S
O29 C36 1.247 . S
O30 Co28 2.091 . S
O30 C36 1.261 . S
C31 O40 1.247 . S
C31 O41 1.272 . S
O32 Co28 2.004 . S
O32 C37 1.259 . S
Co33 O34 2.061 . S
Co33 O39 2.052 . S
Co33 O41 2.135 . S
O34 Co33 2.061 . S
O34 C37 1.235 . S
C35 O38 1.238 . S
C35 O39 1.241 . S
C36 O29 1.247 . S
C36 O30 1.261 . S
C37 O32 1.259 . S
C37 O34 1.235 . S
O38 Co28 2.021 . S
O38 C35 1.238 . S
O39 Co33 2.052 . S
O39 C35 1.241 . S
O40 Co28 2.137 . S
O40 C31 1.247 . S
O41 Co28 2.244 . S
O41 C31 1.272 . S
O41 Co33 2.135 . S
Co42 O43 2.216 . S
Co42 O44 2.091 . S
Co42 O46 2.004 . S
Co42 O52 2.021 . S
Co42 O54 2.137 . S
Co42 O55 2.244 . S
O43 Co42 2.216 . S
O43 C50 1.247 . S
O44 Co42 2.091 . S
O44 C50 1.261 . S
C45 O54 1.247 . S
C45 O55 1.272 . S
O46 Co42 2.004 . S
O46 C51 1.259 . S
Co47 O48 2.061 . S
Co47 O53 2.052 . S
Co47 O55 2.135 . S
O48 Co47 2.061 . S
O48 C51 1.235 . S
C49 O52 1.238 . S
C49 O53 1.241 . S
C50 O43 1.247 . S
C50 O44 1.261 . S
C51 O46 1.259 . S
C51 O48 1.235 . S
O52 Co42 2.021 . S
O52 C49 1.238 . S
O53 Co47 2.052 . S
O53 C49 1.241 . S
O54 Co42 2.137 . S
O54 C45 1.247 . S
O55 Co42 2.244 . S
O55 C45 1.272 . S
O55 Co47 2.135 . S
Co56 O57 2.216 . S
Co56 O58 2.091 . S
Co56 O60 2.004 . S
Co56 O66 2.021 . S
Co56 O68 2.137 . S
Co56 O69 2.244 . S
O57 Co56 2.216 . S
O57 C64 1.247 . S
O58 Co56 2.091 . S
O58 C64 1.261 . S
C59 O68 1.247 . S
C59 O69 1.272 . S
O60 Co56 2.004 . S
O60 C65 1.259 . S
Co61 O62 2.061 1_554 S
Co61 O67 2.052 1_554 S
Co61 O69 2.135 1_554 S
O62 Co61 2.061 1_556 S
O62 C65 1.235 . S
C63 O66 1.238 . S
C63 O67 1.241 . S
C64 O57 1.247 . S
C64 O58 1.261 . S
C65 O60 1.259 . S
C65 O62 1.235 . S
O66 Co56 2.021 . S
O66 C63 1.238 . S
O67 Co61 2.052 1_556 S
O67 C63 1.241 . S
O68 Co56 2.137 . S
O68 C59 1.247 . S
O69 Co56 2.244 . S
O69 C59 1.272 . S
O69 Co61 2.135 1_556 S
Co70 O71 2.216 . S
Co70 O72 2.091 . S
Co70 O74 2.004 . S
Co70 O80 2.021 . S
Co70 O82 2.137 . S
Co70 O83 2.244 . S
O71 Co70 2.216 . S
O71 C78 1.247 . S
O72 Co70 2.091 . S
O72 C78 1.261 . S
C73 O82 1.247 . S
C73 O83 1.272 . S
O74 Co70 2.004 . S
O74 C79 1.259 . S
Co75 O76 2.061 1_556 S
Co75 O81 2.052 1_556 S
Co75 O83 2.135 1_556 S
O76 Co75 2.061 1_554 S
O76 C79 1.235 . S
C77 O80 1.238 . S
C77 O81 1.241 . S
C78 O71 1.247 . S
C78 O72 1.261 . S
C79 O74 1.259 . S
C79 O76 1.235 . S
O80 Co70 2.021 . S
O80 C77 1.238 . S
O81 Co75 2.052 1_554 S
O81 C77 1.241 . S
O82 Co70 2.137 . S
O82 C73 1.247 . S
O83 Co70 2.244 . S
O83 C73 1.272 . S
O83 Co75 2.135 1_554 S
Co84 O85 2.216 . S
Co84 O86 2.091 . S
Co84 O88 2.004 . S
Co84 O94 2.021 . S
Co84 O96 2.137 . S
Co84 O97 2.244 . S
O85 Co84 2.216 . S
O85 C92 1.247 . S
O86 Co84 2.091 . S
O86 C92 1.261 . S
C87 O96 1.247 . S
C87 O97 1.272 . S
O88 Co84 2.004 . S
O88 C93 1.259 . S
Co89 O90 2.061 1_554 S
Co89 O95 2.052 1_554 S
Co89 O97 2.135 1_554 S
O90 Co89 2.061 1_556 S
O90 C93 1.235 . S
C91 O94 1.238 . S
C91 O95 1.241 . S
C92 O85 1.247 . S
C92 O86 1.261 . S
C93 O88 1.259 . S
C93 O90 1.235 . S
O94 Co84 2.021 . S
O94 C91 1.238 . S
O95 Co89 2.052 1_556 S
O95 C91 1.241 . S
O96 Co84 2.137 . S
O96 C87 1.247 . S
O97 Co84 2.244 . S
O97 C87 1.272 . S
O97 Co89 2.135 1_556 S
Co98 O99 2.216 . S
Co98 O100 2.091 . S
Co98 O102 2.004 . S
Co98 O108 2.021 . S
Co98 O110 2.137 . S
Co98 O111 2.244 . S
O99 Co98 2.216 . S
O99 C106 1.247 . S
O100 Co98 2.091 . S
O100 C106 1.261 . S
C101 O110 1.247 . S
C101 O111 1.272 . S
O102 Co98 2.004 . S
O102 C107 1.259 . S
Co103 O104 2.061 1_556 S
Co103 O109 2.052 1_556 S
Co103 O111 2.135 1_556 S
O104 Co103 2.061 1_554 S
O104 C107 1.235 . S
C105 O108 1.238 . S
C105 O109 1.241 . S
C106 O99 1.247 . S
C106 O100 1.261 . S
C107 O102 1.259 . S
C107 O104 1.235 . S
O108 Co98 2.021 . S
O108 C105 1.238 . S
O109 Co103 2.052 1_554 S
O109 C105 1.241 . S
O110 Co98 2.137 . S
O110 C101 1.247 . S
O111 Co98 2.244 . S
O111 C101 1.272 . S
O111 Co103 2.135 1_554 S
Co112 O113 2.216 . S
Co112 O114 2.091 . S
Co112 O116 2.004 . S
Co112 O122 2.021 . S
Co112 O124 2.137 . S
Co112 O125 2.244 . S
O113 Co112 2.216 . S
O113 C120 1.247 . S
O114 Co112 2.091 . S
O114 C120 1.261 . S
C115 O124 1.247 . S
C115 O125 1.272 . S
O116 Co112 2.004 . S
O116 C121 1.259 . S
Co117 O118 2.061 . S
Co117 O123 2.052 . S
Co117 O125 2.135 . S
O118 Co117 2.061 . S
O118 C121 1.235 . S
C119 O122 1.238 . S
C119 O123 1.241 . S
C120 O113 1.247 . S
C120 O114 1.261 . S
C121 O116 1.259 . S
C121 O118 1.235 . S
O122 Co112 2.021 . S
O122 C119 1.238 . S
O123 Co117 2.052 . S
O123 C119 1.241 . S
O124 Co112 2.137 . S
O124 C115 1.247 . S
O125 Co112 2.244 . S
O125 C115 1.272 . S
O125 Co117 2.135 . S
Co126 O127 2.216 . S
Co126 O128 2.091 . S
Co126 O130 2.004 . S
Co126 O136 2.021 . S
Co126 O138 2.137 . S
Co126 O139 2.244 . S
O127 Co126 2.216 . S
O127 C134 1.247 . S
O128 Co126 2.091 . S
O128 C134 1.261 . S
C129 O138 1.247 . S
C129 O139 1.272 . S
O130 Co126 2.004 . S
O130 C135 1.259 . S
Co131 O132 2.061 . S
Co131 O137 2.052 . S
Co131 O139 2.135 . S
O132 Co131 2.061 . S
O132 C135 1.235 . S
C133 O136 1.238 . S
C133 O137 1.241 . S
C134 O127 1.247 . S
C134 O128 1.261 . S
C135 O130 1.259 . S
C135 O132 1.235 . S
O136 Co126 2.021 . S
O136 C133 1.238 . S
O137 Co131 2.052 . S
O137 C133 1.241 . S
O138 Co126 2.137 . S
O138 C129 1.247 . S
O139 Co126 2.244 . S
O139 C129 1.272 . S
O139 Co131 2.135 . S
Co140 O141 2.216 . S
Co140 O142 2.091 . S
Co140 O144 2.004 . S
Co140 O150 2.021 . S
Co140 O152 2.137 . S
Co140 O153 2.244 . S
O141 Co140 2.216 . S
O141 C148 1.247 . S
O142 Co140 2.091 . S
O142 C148 1.261 . S
C143 O152 1.247 . S
C143 O153 1.272 . S
O144 Co140 2.004 . S
O144 C149 1.259 . S
Co145 O146 2.061 . S
Co145 O151 2.052 . S
Co145 O153 2.135 . S
O146 Co145 2.061 . S
O146 C149 1.235 . S
C147 O150 1.238 . S
C147 O151 1.241 . S
C148 O141 1.247 . S
C148 O142 1.261 . S
C149 O144 1.259 . S
C149 O146 1.235 . S
O150 Co140 2.021 . S
O150 C147 1.238 . S
O151 Co145 2.052 . S
O151 C147 1.241 . S
O152 Co140 2.137 . S
O152 C143 1.247 . S
O153 Co140 2.244 . S
O153 C143 1.272 . S
O153 Co145 2.135 . S
Co154 O155 2.216 . S
Co154 O156 2.091 . S
Co154 O158 2.004 . S
Co154 O164 2.021 . S
Co154 O166 2.137 . S
Co154 O167 2.244 . S
O155 Co154 2.216 . S
O155 C162 1.247 . S
O156 Co154 2.091 . S
O156 C162 1.261 . S
C157 O166 1.247 . S
C157 O167 1.272 . S
O158 Co154 2.004 . S
O158 C163 1.259 . S
Co159 O160 2.061 . S
Co159 O165 2.052 . S
Co159 O167 2.135 . S
O160 Co159 2.061 . S
O160 C163 1.235 . S
C161 O164 1.238 . S
C161 O165 1.241 . S
C162 O155 1.247 . S
C162 O156 1.261 . S
C163 O158 1.259 . S
C163 O160 1.235 . S
O164 Co154 2.021 . S
O164 C161 1.238 . S
O165 Co159 2.052 . S
O165 C161 1.241 . S
O166 Co154 2.137 . S
O166 C157 1.247 . S
O167 Co154 2.244 . S
O167 C157 1.272 . S
O167 Co159 2.135 . S
Co168 O169 2.216 . S
Co168 O170 2.091 . S
Co168 O172 2.004 . S
Co168 O178 2.021 . S
Co168 O180 2.137 . S
Co168 O181 2.244 . S
O169 Co168 2.216 . S
O169 C176 1.247 . S
O170 Co168 2.091 . S
O170 C176 1.261 . S
C171 O180 1.247 . S
C171 O181 1.272 . S
O172 Co168 2.004 . S
O172 C177 1.259 . S
Co173 O174 2.061 . S
Co173 O179 2.052 . S
Co173 O181 2.135 . S
O174 Co173 2.061 . S
O174 C177 1.235 . S
C175 O178 1.238 . S
C175 O179 1.241 . S
C176 O169 1.247 . S
C176 O170 1.261 . S
C177 O172 1.259 . S
C177 O174 1.235 . S
O178 Co168 2.021 . S
O178 C175 1.238 . S
O179 Co173 2.052 . S
O179 C175 1.241 . S
O180 Co168 2.137 . S
O180 C171 1.247 . S
O181 Co168 2.244 . S
O181 C171 1.272 . S
O181 Co173 2.135 . S
Co182 O183 2.216 . S
Co182 O184 2.091 . S
Co182 O186 2.004 . S
Co182 O192 2.021 . S
Co182 O194 2.137 . S
Co182 O195 2.244 . S
O183 Co182 2.216 . S
O183 C190 1.247 . S
O184 Co182 2.091 . S
O184 C190 1.261 . S
C185 O194 1.247 . S
C185 O195 1.272 . S
O186 Co182 2.004 . S
O186 C191 1.259 . S
Co187 O188 2.061 . S
Co187 O193 2.052 . S
Co187 O195 2.135 . S
O188 Co187 2.061 . S
O188 C191 1.235 . S
C189 O192 1.238 . S
C189 O193 1.241 . S
C190 O183 1.247 . S
C190 O184 1.261 . S
C191 O186 1.259 . S
C191 O188 1.235 . S
O192 Co182 2.021 . S
O192 C189 1.238 . S
O193 Co187 2.052 . S
O193 C189 1.241 . S
O194 Co182 2.137 . S
O194 C185 1.247 . S
O195 Co182 2.244 . S
O195 C185 1.272 . S
O195 Co187 2.135 . S
Co196 O197 2.216 . S
Co196 O198 2.091 . S
Co196 O200 2.004 . S
Co196 O206 2.021 . S
Co196 O208 2.137 . S
Co196 O209 2.244 . S
O197 Co196 2.216 . S
O197 C204 1.247 . S
O198 Co196 2.091 . S
O198 C204 1.261 . S
C199 O208 1.247 . S
C199 O209 1.272 . S
O200 Co196 2.004 . S
O200 C205 1.259 . S
Co201 O202 2.061 . S
Co201 O207 2.052 . S
Co201 O209 2.135 . S
O202 Co201 2.061 . S
O202 C205 1.235 . S
C203 O206 1.238 . S
C203 O207 1.241 . S
C204 O197 1.247 . S
C204 O198 1.261 . S
C205 O200 1.259 . S
C205 O202 1.235 . S
O206 Co196 2.021 . S
O206 C203 1.238 . S
O207 Co201 2.052 . S
O207 C203 1.241 . S
O208 Co196 2.137 . S
O208 C199 1.247 . S
O209 Co196 2.244 . S
O209 C199 1.272 . S
O209 Co201 2.135 . S
Co210 O211 2.216 . S
Co210 O212 2.091 . S
Co210 O214 2.004 . S
Co210 O220 2.021 . S
Co210 O222 2.137 . S
Co210 O223 2.244 . S
O211 Co210 2.216 . S
O211 C218 1.247 . S
O212 Co210 2.091 . S
O212 C218 1.261 . S
C213 O222 1.247 . S
C213 O223 1.272 . S
O214 Co210 2.004 . S
O214 C219 1.259 . S
Co215 O216 2.061 . S
Co215 O221 2.052 . S
Co215 O223 2.135 . S
O216 Co215 2.061 . S
O216 C219 1.235 . S
C217 O220 1.238 . S
C217 O221 1.241 . S
C218 O211 1.247 . S
C218 O212 1.261 . S
C219 O214 1.259 . S
C219 O216 1.235 . S
O220 Co210 2.021 . S
O220 C217 1.238 . S
O221 Co215 2.052 . S
O221 C217 1.241 . S
O222 Co210 2.137 . S
O222 C213 1.247 . S
O223 Co210 2.244 . S
O223 C213 1.272 . S
O223 Co215 2.135 . S
H224 C236 0.930 . S
H225 C238 0.930 . S
H226 C239 0.930 . S
H227 C243 0.959 . S
H228 C243 0.959 . S
H229 C243 0.961 . S
H230 C244 0.960 . S
H231 C244 0.961 . S
H232 C244 0.959 . S
H233 C247 0.929 . S
H234 C248 0.931 . S
H235 C250 0.930 . S
C236 H224 0.930 . S
C236 C237 1.399 . S
C236 C241 1.399 . S
C237 C236 1.399 . S
C237 C238 1.376 . S
C238 H225 0.930 . S
C238 C237 1.376 . S
C238 C239 1.388 . S
C239 H226 0.930 . S
C239 C238 1.388 . S
C239 C240 1.390 . S
C240 C239 1.390 . S
C240 C241 1.394 . S
C240 C246 1.465 . S
C241 C236 1.399 . S
C241 C240 1.394 . S
C241 C242 1.516 . S
C242 C241 1.516 . S
C242 C243 1.502 . S
C242 C244 1.561 . S
C242 C245 1.526 . S
C243 H227 0.959 . S
C243 H228 0.959 . S
C243 H229 0.961 . S
C243 C242 1.502 . S
C244 H230 0.960 . S
C244 H231 0.961 . S
C244 H232 0.959 . S
C244 C242 1.561 . S
C245 C242 1.526 . S
C245 C246 1.396 . S
C245 C250 1.390 . S
C246 C240 1.465 . S
C246 C245 1.396 . S
C246 C247 1.399 . S
C247 H233 0.929 . S
C247 C246 1.399 . S
C247 C248 1.385 . S
C248 H234 0.931 . S
C248 C247 1.385 . S
C248 C249 1.389 . S
C249 C248 1.389 . S
C249 C250 1.387 . S
C250 H235 0.930 . S
C250 C245 1.390 . S
C250 C249 1.387 . S
H251 C263 0.930 . S
H252 C265 0.930 . S
H253 C266 0.930 . S
H254 C270 0.959 . S
H255 C270 0.959 . S
H256 C270 0.961 . S
H257 C271 0.960 . S
H258 C271 0.961 . S
H259 C271 0.959 . S
H260 C274 0.929 . S
H261 C275 0.931 . S
H262 C277 0.930 . S
C263 H251 0.930 . S
C263 C264 1.399 . S
C263 C268 1.399 . S
C264 C263 1.399 . S
C264 C265 1.376 . S
C265 H252 0.930 . S
C265 C264 1.376 . S
C265 C266 1.388 . S
C266 H253 0.930 . S
C266 C265 1.388 . S
C266 C267 1.390 . S
C267 C266 1.390 . S
C267 C268 1.394 . S
C267 C273 1.465 . S
C268 C263 1.399 . S
C268 C267 1.394 . S
C268 C269 1.516 . S
C269 C268 1.516 . S
C269 C270 1.502 . S
C269 C271 1.561 . S
C269 C272 1.526 . S
C270 H254 0.959 . S
C270 H255 0.959 . S
C270 H256 0.961 . S
C270 C269 1.502 . S
C271 H257 0.960 . S
C271 H258 0.961 . S
C271 H259 0.959 . S
C271 C269 1.561 . S
C272 C269 1.526 . S
C272 C273 1.396 . S
C272 C277 1.390 . S
C273 C267 1.465 . S
C273 C272 1.396 . S
C273 C274 1.399 . S
C274 H260 0.929 . S
C274 C273 1.399 . S
C274 C275 1.385 . S
C275 H261 0.931 . S
C275 C274 1.385 . S
C275 C276 1.389 . S
C276 C275 1.389 . S
C276 C277 1.387 . S
C277 H262 0.930 . S
C277 C272 1.390 . S
C277 C276 1.387 . S
H278 C290 0.930 . S
H279 C292 0.930 . S
H280 C293 0.930 . S
H281 C297 0.959 . S
H282 C297 0.959 . S
H283 C297 0.961 . S
H284 C298 0.960 . S
H285 C298 0.961 . S
H286 C298 0.959 . S
H287 C301 0.929 . S
H288 C302 0.931 . S
H289 C304 0.930 . S
C290 H278 0.930 . S
C290 C291 1.399 . S
C290 C295 1.399 . S
C291 C290 1.399 . S
C291 C292 1.376 . S
C292 H279 0.930 . S
C292 C291 1.376 . S
C292 C293 1.388 . S
C293 H280 0.930 . S
C293 C292 1.388 . S
C293 C294 1.390 . S
C294 C293 1.390 . S
C294 C295 1.394 . S
C294 C300 1.465 . S
C295 C290 1.399 . S
C295 C294 1.394 . S
C295 C296 1.516 . S
C296 C295 1.516 . S
C296 C297 1.502 . S
C296 C298 1.561 . S
C296 C299 1.526 . S
C297 H281 0.959 . S
C297 H282 0.959 . S
C297 H283 0.961 . S
C297 C296 1.502 . S
C298 H284 0.960 . S
C298 H285 0.961 . S
C298 H286 0.959 . S
C298 C296 1.561 . S
C299 C296 1.526 . S
C299 C300 1.396 . S
C299 C304 1.390 . S
C300 C294 1.465 . S
C300 C299 1.396 . S
C300 C301 1.399 . S
C301 H287 0.929 . S
C301 C300 1.399 . S
C301 C302 1.385 . S
C302 H288 0.931 . S
C302 C301 1.385 . S
C302 C303 1.389 . S
C303 C302 1.389 . S
C303 C304 1.387 . S
C304 H289 0.930 . S
C304 C299 1.390 . S
C304 C303 1.387 . S
H305 C317 0.930 . S
H306 C319 0.930 . S
H307 C320 0.930 . S
H308 C324 0.959 . S
H309 C324 0.959 . S
H310 C324 0.961 . S
H311 C325 0.960 . S
H312 C325 0.961 . S
H313 C325 0.959 . S
H314 C328 0.929 . S
H315 C329 0.931 . S
H316 C331 0.930 . S
C317 H305 0.930 . S
C317 C318 1.399 . S
C317 C322 1.399 . S
C318 C317 1.399 . S
C318 C319 1.376 . S
C319 H306 0.930 . S
C319 C318 1.376 . S
C319 C320 1.388 . S
C320 H307 0.930 . S
C320 C319 1.388 . S
C320 C321 1.390 . S
C321 C320 1.390 . S
C321 C322 1.394 . S
C321 C327 1.465 . S
C322 C317 1.399 . S
C322 C321 1.394 . S
C322 C323 1.516 . S
C323 C322 1.516 . S
C323 C324 1.502 . S
C323 C325 1.561 . S
C323 C326 1.526 . S
C324 H308 0.959 . S
C324 H309 0.959 . S
C324 H310 0.961 . S
C324 C323 1.502 . S
C325 H311 0.960 . S
C325 H312 0.961 . S
C325 H313 0.959 . S
C325 C323 1.561 . S
C326 C323 1.526 . S
C326 C327 1.396 . S
C326 C331 1.390 . S
C327 C321 1.465 . S
C327 C326 1.396 . S
C327 C328 1.399 . S
C328 H314 0.929 . S
C328 C327 1.399 . S
C328 C329 1.385 . S
C329 H315 0.931 . S
C329 C328 1.385 . S
C329 C330 1.389 . S
C330 C329 1.389 . S
C330 C331 1.387 . S
C331 H316 0.930 . S
C331 C326 1.390 . S
C331 C330 1.387 . S
H332 C344 0.930 1_556 S
H333 C346 0.930 . S
H334 C347 0.930 . S
H335 C351 0.959 . S
H336 C351 0.959 . S
H337 C351 0.961 . S
H338 C352 0.960 . S
H339 C352 0.961 . S
H340 C352 0.959 . S
H341 C355 0.929 . S
H342 C356 0.931 . S
H343 C358 0.930 . S
C344 H332 0.930 1_554 S
C344 C345 1.399 . S
C344 C349 1.399 . S
C345 C344 1.399 . S
C345 C346 1.376 . S
C346 H333 0.930 . S
C346 C345 1.376 . S
C346 C347 1.388 . S
C347 H334 0.930 . S
C347 C346 1.388 . S
C347 C348 1.390 . S
C348 C347 1.390 . S
C348 C349 1.394 . S
C348 C354 1.465 . S
C349 C344 1.399 . S
C349 C348 1.394 . S
C349 C350 1.516 1_554 S
C350 C349 1.516 1_556 S
C350 C351 1.502 . S
C350 C352 1.561 . S
C350 C353 1.526 . S
C351 H335 0.959 . S
C351 H336 0.959 . S
C351 H337 0.961 . S
C351 C350 1.502 . S
C352 H338 0.960 . S
C352 H339 0.961 . S
C352 H340 0.959 . S
C352 C350 1.561 . S
C353 C350 1.526 . S
C353 C354 1.396 1_556 S
C353 C358 1.390 . S
C354 C348 1.465 . S
C354 C353 1.396 1_554 S
C354 C355 1.399 . S
C355 H341 0.929 . S
C355 C354 1.399 . S
C355 C356 1.385 . S
C356 H342 0.931 . S
C356 C355 1.385 . S
C356 C357 1.389 1_554 S
C357 C356 1.389 1_556 S
C357 C358 1.387 . S
C358 H343 0.930 . S
C358 C353 1.390 . S
C358 C357 1.387 . S
H359 C371 0.930 . S
H360 C373 0.930 . S
H361 C374 0.930 . S
H362 C378 0.959 . S
H363 C378 0.959 . S
H364 C378 0.961 . S
H365 C379 0.960 . S
H366 C379 0.961 . S
H367 C379 0.959 . S
H368 C382 0.929 . S
H369 C383 0.931 . S
H370 C385 0.930 . S
C371 H359 0.930 . S
C371 C372 1.399 . S
C371 C376 1.399 . S
C372 C371 1.399 . S
C372 C373 1.376 . S
C373 H360 0.930 . S
C373 C372 1.376 . S
C373 C374 1.388 1_554 S
C374 H361 0.930 . S
C374 C373 1.388 1_556 S
C374 C375 1.390 . S
C375 C374 1.390 . S
C375 C376 1.394 1_556 S
C375 C381 1.465 . S
C376 C371 1.399 . S
C376 C375 1.394 1_554 S
C376 C377 1.516 1_554 S
C377 C376 1.516 1_556 S
C377 C378 1.502 1_556 S
C377 C379 1.561 . S
C377 C380 1.526 . S
C378 H362 0.959 . S
C378 H363 0.959 . S
C378 H364 0.961 . S
C378 C377 1.502 1_554 S
C379 H365 0.960 . S
C379 H366 0.961 . S
C379 H367 0.959 . S
C379 C377 1.561 . S
C380 C377 1.526 . S
C380 C381 1.396 . S
C380 C385 1.390 . S
C381 C375 1.465 . S
C381 C380 1.396 . S
C381 C382 1.399 . S
C382 H368 0.929 . S
C382 C381 1.399 . S
C382 C383 1.385 . S
C383 H369 0.931 . S
C383 C382 1.385 . S
C383 C384 1.389 . S
C384 C383 1.389 . S
C384 C385 1.387 . S
C385 H370 0.930 . S
C385 C380 1.390 . S
C385 C384 1.387 . S
H386 C398 0.930 . S
H387 C400 0.933 . S
H388 C401 0.930 . S
H389 C405 0.959 1_554 S
H390 C405 0.959 . S
H391 C405 0.961 . S
H392 C406 0.960 . S
H393 C406 0.961 . S
H394 C406 0.959 . S
H395 C409 0.929 . S
H396 C410 0.931 . S
H397 C412 0.930 . S
C398 H386 0.930 . S
C398 C399 1.399 . S
C398 C403 1.399 . S
C399 C398 1.399 . S
C399 C400 1.376 . S
C400 H387 0.933 . S
C400 C399 1.376 . S
C400 C401 1.388 1_556 S
C401 H388 0.930 . S
C401 C400 1.388 1_554 S
C401 C402 1.390 . S
C402 C401 1.390 . S
C402 C403 1.394 1_554 S
C402 C408 1.465 . S
C403 C398 1.399 . S
C403 C402 1.394 1_556 S
C403 C404 1.516 . S
C404 C403 1.516 . S
C404 C405 1.502 . S
C404 C406 1.561 . S
C404 C407 1.526 1_556 S
C405 H389 0.959 1_556 S
C405 H390 0.959 . S
C405 H391 0.961 . S
C405 C404 1.502 . S
C406 H392 0.960 . S
C406 H393 0.961 . S
C406 H394 0.959 . S
C406 C404 1.561 . S
C407 C404 1.526 1_554 S
C407 C408 1.396 . S
C407 C412 1.390 . S
C408 C402 1.465 . S
C408 C407 1.396 . S
C408 C409 1.399 . S
C409 H395 0.929 . S
C409 C408 1.399 . S
C409 C410 1.385 . S
C410 H396 0.931 . S
C410 C409 1.385 . S
C410 C411 1.389 . S
C411 C410 1.389 . S
C411 C412 1.387 . S
C412 H397 0.930 . S
C412 C407 1.390 . S
C412 C411 1.387 . S
H413 C425 0.929 1_556 S
H414 C427 0.930 . S
H415 C428 0.930 . S
H416 C432 0.959 . S
H417 C432 0.959 . S
H418 C432 0.961 . S
H419 C433 0.960 . S
H420 C433 0.961 . S
H421 C433 0.959 . S
H422 C436 0.929 1_554 S
H423 C437 0.931 . S
H424 C439 0.930 . S
C425 H413 0.929 1_554 S
C425 C426 1.400 . S
C425 C430 1.398 1_554 S
C426 C425 1.400 . S
C426 C427 1.376 . S
C427 H414 0.930 . S
C427 C426 1.376 . S
C427 C428 1.388 . S
C428 H415 0.930 . S
C428 C427 1.388 . S
C428 C429 1.427 . S
C429 C428 1.427 . S
C429 C430 1.375 1_554 S
C429 C435 1.445 1_554 S
C430 C425 1.398 1_556 S
C430 C429 1.375 1_556 S
C430 C431 1.516 . S
C431 C430 1.516 . S
C431 C432 1.502 . S
C431 C433 1.561 . S
C431 C434 1.526 . S
C432 H416 0.959 . S
C432 H417 0.959 . S
C432 H418 0.961 . S
C432 C431 1.502 . S
C433 H419 0.960 . S
C433 H420 0.961 . S
C433 H421 0.959 . S
C433 C431 1.561 . S
C434 C431 1.526 . S
C434 C435 1.396 . S
C434 C439 1.390 . S
C435 C429 1.445 1_556 S
C435 C434 1.396 . S
C435 C436 1.399 . S
C436 H422 0.929 1_556 S
C436 C435 1.399 . S
C436 C437 1.385 . S
C437 H423 0.931 . S
C437 C436 1.385 . S
C437 C438 1.389 . S
C438 C437 1.389 . S
C438 C439 1.387 . S
C439 H424 0.930 . S
C439 C434 1.390 . S
C439 C438 1.387 . S
H440 C452 0.930 . S
H441 C454 0.930 . S
H442 C455 0.930 . S
H443 C459 0.959 . S
H444 C459 0.959 . S
H445 C459 0.961 . S
H446 C460 0.960 . S
H447 C460 0.961 . S
H448 C460 0.959 . S
H449 C463 0.929 . S
H450 C464 0.931 . S
H451 C466 0.930 . S
C452 H440 0.930 . S
C452 C453 1.399 . S
C452 C457 1.399 . S
C453 C452 1.399 . S
C453 C454 1.376 . S
C454 H441 0.930 . S
C454 C453 1.376 . S
C454 C455 1.388 . S
C455 H442 0.930 . S
C455 C454 1.388 . S
C455 C456 1.390 . S
C456 C455 1.390 . S
C456 C457 1.394 . S
C456 C462 1.465 . S
C457 C452 1.399 . S
C457 C456 1.394 . S
C457 C458 1.516 . S
C458 C457 1.516 . S
C458 C459 1.502 . S
C458 C460 1.561 . S
C458 C461 1.526 . S
C459 H443 0.959 . S
C459 H444 0.959 . S
C459 H445 0.961 . S
C459 C458 1.502 . S
C460 H446 0.960 . S
C460 H447 0.961 . S
C460 H448 0.959 . S
C460 C458 1.561 . S
C461 C458 1.526 . S
C461 C462 1.396 . S
C461 C466 1.390 . S
C462 C456 1.465 . S
C462 C461 1.396 . S
C462 C463 1.399 . S
C463 H449 0.929 . S
C463 C462 1.399 . S
C463 C464 1.385 . S
C464 H450 0.931 . S
C464 C463 1.385 . S
C464 C465 1.389 . S
C465 C464 1.389 . S
C465 C466 1.387 . S
C466 H451 0.930 . S
C466 C461 1.390 . S
C466 C465 1.387 . S
H467 C479 0.930 . S
H468 C481 0.930 . S
H469 C482 0.930 . S
H470 C486 0.959 . S
H471 C486 0.959 . S
H472 C486 0.961 . S
H473 C487 0.960 . S
H474 C487 0.961 . S
H475 C487 0.959 . S
H476 C490 0.929 . S
H477 C491 0.931 . S
H478 C493 0.930 . S
C479 H467 0.930 . S
C479 C480 1.399 . S
C479 C484 1.399 . S
C480 C479 1.399 . S
C480 C481 1.376 . S
C481 H468 0.930 . S
C481 C480 1.376 . S
C481 C482 1.388 . S
C482 H469 0.930 . S
C482 C481 1.388 . S
C482 C483 1.390 . S
C483 C482 1.390 . S
C483 C484 1.394 . S
C483 C489 1.465 . S
C484 C479 1.399 . S
C484 C483 1.394 . S
C484 C485 1.516 . S
C485 C484 1.516 . S
C485 C486 1.502 . S
C485 C487 1.561 . S
C485 C488 1.526 . S
C486 H470 0.959 . S
C486 H471 0.959 . S
C486 H472 0.961 . S
C486 C485 1.502 . S
C487 H473 0.960 . S
C487 H474 0.961 . S
C487 H475 0.959 . S
C487 C485 1.561 . S
C488 C485 1.526 . S
C488 C489 1.396 . S
C488 C493 1.390 . S
C489 C483 1.465 . S
C489 C488 1.396 . S
C489 C490 1.399 . S
C490 H476 0.929 . S
C490 C489 1.399 . S
C490 C491 1.385 . S
C491 H477 0.931 . S
C491 C490 1.385 . S
C491 C492 1.389 . S
C492 C491 1.389 . S
C492 C493 1.387 . S
C493 H478 0.930 . S
C493 C488 1.390 . S
C493 C492 1.387 . S
H494 C506 0.930 . S
H495 C508 0.930 . S
H496 C509 0.930 . S
H497 C513 0.959 . S
H498 C513 0.959 . S
H499 C513 0.961 . S
H500 C514 0.960 . S
H501 C514 0.961 . S
H502 C514 0.959 . S
H503 C517 0.929 . S
H504 C518 0.931 . S
H505 C520 0.930 . S
C506 H494 0.930 . S
C506 C507 1.399 . S
C506 C511 1.399 . S
C507 C506 1.399 . S
C507 C508 1.376 . S
C508 H495 0.930 . S
C508 C507 1.376 . S
C508 C509 1.388 . S
C509 H496 0.930 . S
C509 C508 1.388 . S
C509 C510 1.390 . S
C510 C509 1.390 . S
C510 C511 1.394 . S
C510 C516 1.465 . S
C511 C506 1.399 . S
C511 C510 1.394 . S
C511 C512 1.516 . S
C512 C511 1.516 . S
C512 C513 1.502 . S
C512 C514 1.561 . S
C512 C515 1.526 . S
C513 H497 0.959 . S
C513 H498 0.959 . S
C513 H499 0.961 . S
C513 C512 1.502 . S
C514 H500 0.960 . S
C514 H501 0.961 . S
C514 H502 0.959 . S
C514 C512 1.561 . S
C515 C512 1.526 . S
C515 C516 1.396 . S
C515 C520 1.390 . S
C516 C510 1.465 . S
C516 C515 1.396 . S
C516 C517 1.399 . S
C517 H503 0.929 . S
C517 C516 1.399 . S
C517 C518 1.385 . S
C518 H504 0.931 . S
C518 C517 1.385 . S
C518 C519 1.389 . S
C519 C518 1.389 . S
C519 C520 1.387 . S
C520 H505 0.930 . S
C520 C515 1.390 . S
C520 C519 1.387 . S
H521 C533 0.930 . S
H522 C535 0.930 . S
H523 C536 0.930 . S
H524 C540 0.959 . S
H525 C540 0.959 . S
H526 C540 0.961 . S
H527 C541 0.960 . S
H528 C541 0.961 . S
H529 C541 0.959 . S
H530 C544 0.929 . S
H531 C545 0.931 . S
H532 C547 0.930 . S
C533 H521 0.930 . S
C533 C534 1.399 . S
C533 C538 1.399 . S
C534 C533 1.399 . S
C534 C535 1.376 . S
C535 H522 0.930 . S
C535 C534 1.376 . S
C535 C536 1.388 . S
C536 H523 0.930 . S
C536 C535 1.388 . S
C536 C537 1.390 . S
C537 C536 1.390 . S
C537 C538 1.394 . S
C537 C543 1.465 . S
C538 C533 1.399 . S
C538 C537 1.394 . S
C538 C539 1.516 . S
C539 C538 1.516 . S
C539 C540 1.502 . S
C539 C541 1.561 . S
C539 C542 1.526 . S
C540 H524 0.959 . S
C540 H525 0.959 . S
C540 H526 0.961 . S
C540 C539 1.502 . S
C541 H527 0.960 . S
C541 H528 0.961 . S
C541 H529 0.959 . S
C541 C539 1.561 . S
C542 C539 1.526 . S
C542 C543 1.396 . S
C542 C547 1.390 . S
C543 C537 1.465 . S
C543 C542 1.396 . S
C543 C544 1.399 . S
C544 H530 0.929 . S
C544 C543 1.399 . S
C544 C545 1.385 . S
C545 H531 0.931 . S
C545 C544 1.385 . S
C545 C546 1.389 . S
C546 C545 1.389 . S
C546 C547 1.387 . S
C547 H532 0.930 . S
C547 C542 1.390 . S
C547 C546 1.387 . S
H548 C560 0.930 . S
H549 C562 0.930 . S
H550 C563 0.930 . S
H551 C567 0.959 . S
H552 C567 0.959 . S
H553 C567 0.961 . S
H554 C568 0.960 . S
H555 C568 0.961 . S
H556 C568 0.959 . S
H557 C571 0.929 . S
H558 C572 0.931 . S
H559 C574 0.930 . S
C560 H548 0.930 . S
C560 C561 1.399 . S
C560 C565 1.399 . S
C561 C560 1.399 . S
C561 C562 1.376 . S
C562 H549 0.930 . S
C562 C561 1.376 . S
C562 C563 1.388 . S
C563 H550 0.930 . S
C563 C562 1.388 . S
C563 C564 1.390 . S
C564 C563 1.390 . S
C564 C565 1.394 . S
C564 C570 1.465 . S
C565 C560 1.399 . S
C565 C564 1.394 . S
C565 C566 1.516 . S
C566 C565 1.516 . S
C566 C567 1.502 . S
C566 C568 1.561 . S
C566 C569 1.526 . S
C567 H551 0.959 . S
C567 H552 0.959 . S
C567 H553 0.961 . S
C567 C566 1.502 . S
C568 H554 0.960 . S
C568 H555 0.961 . S
C568 H556 0.959 . S
C568 C566 1.561 . S
C569 C566 1.526 . S
C569 C570 1.396 . S
C569 C574 1.390 . S
C570 C564 1.465 . S
C570 C569 1.396 . S
C570 C571 1.399 . S
C571 H557 0.929 . S
C571 C570 1.399 . S
C571 C572 1.385 . S
C572 H558 0.931 . S
C572 C571 1.385 . S
C572 C573 1.389 . S
C573 C572 1.389 . S
C573 C574 1.387 . S
C574 H559 0.930 . S
C574 C569 1.390 . S
C574 C573 1.387 . S
H575 C587 0.930 . S
H576 C589 0.930 . S
H577 C590 0.930 . S
H578 C594 0.959 . S
H579 C594 0.959 . S
H580 C594 0.961 . S
H581 C595 0.960 . S
H582 C595 0.961 . S
H583 C595 0.959 . S
H584 C598 0.929 . S
H585 C599 0.931 . S
H586 C601 0.930 . S
C587 H575 0.930 . S
C587 C588 1.399 . S
C587 C592 1.399 . S
C588 C587 1.399 . S
C588 C589 1.376 . S
C589 H576 0.930 . S
C589 C588 1.376 . S
C589 C590 1.388 . S
C590 H577 0.930 . S
C590 C589 1.388 . S
C590 C591 1.390 . S
C591 C590 1.390 . S
C591 C592 1.394 . S
C591 C597 1.465 . S
C592 C587 1.399 . S
C592 C591 1.394 . S
C592 C593 1.516 . S
C593 C592 1.516 . S
C593 C594 1.502 . S
C593 C595 1.561 . S
C593 C596 1.526 . S
C594 H578 0.959 . S
C594 H579 0.959 . S
C594 H580 0.961 . S
C594 C593 1.502 . S
C595 H581 0.960 . S
C595 H582 0.961 . S
C595 H583 0.959 . S
C595 C593 1.561 . S
C596 C593 1.526 . S
C596 C597 1.396 . S
C596 C601 1.390 . S
C597 C591 1.465 . S
C597 C596 1.396 . S
C597 C598 1.399 . S
C598 H584 0.929 . S
C598 C597 1.399 . S
C598 C599 1.385 . S
C599 H585 0.931 . S
C599 C598 1.385 . S
C599 C600 1.389 . S
C600 C599 1.389 . S
C600 C601 1.387 . S
C601 H586 0.930 . S
C601 C596 1.390 . S
C601 C600 1.387 . S
H602 C614 0.930 . S
H603 C616 0.930 . S
H604 C617 0.930 . S
H605 C621 0.959 . S
H606 C621 0.959 . S
H607 C621 0.961 . S
H608 C622 0.960 . S
H609 C622 0.961 . S
H610 C622 0.959 . S
H611 C625 0.929 . S
H612 C626 0.931 . S
H613 C628 0.930 . S
C614 H602 0.930 . S
C614 C615 1.399 . S
C614 C619 1.399 . S
C615 C614 1.399 . S
C615 C616 1.376 . S
C616 H603 0.930 . S
C616 C615 1.376 . S
C616 C617 1.388 . S
C617 H604 0.930 . S
C617 C616 1.388 . S
C617 C618 1.390 . S
C618 C617 1.390 . S
C618 C619 1.394 . S
C618 C624 1.465 . S
C619 C614 1.399 . S
C619 C618 1.394 . S
C619 C620 1.516 . S
C620 C619 1.516 . S
C620 C621 1.502 . S
C620 C622 1.561 . S
C620 C623 1.526 . S
C621 H605 0.959 . S
C621 H606 0.959 . S
C621 H607 0.961 . S
C621 C620 1.502 . S
C622 H608 0.960 . S
C622 H609 0.961 . S
C622 H610 0.959 . S
C622 C620 1.561 . S
C623 C620 1.526 . S
C623 C624 1.396 . S
C623 C628 1.390 . S
C624 C618 1.465 . S
C624 C623 1.396 . S
C624 C625 1.399 . S
C625 H611 0.929 . S
C625 C624 1.399 . S
C625 C626 1.385 . S
C626 H612 0.931 . S
C626 C625 1.385 . S
C626 C627 1.389 . S
C627 C626 1.389 . S
C627 C628 1.387 . S
C628 H613 0.930 . S
C628 C623 1.390 . S
C628 C627 1.387 . S
H629 C641 0.930 . S
H630 C643 0.930 . S
H631 C644 0.930 . S
H632 C648 0.959 . S
H633 C648 0.959 . S
H634 C648 0.961 . S
H635 C649 0.960 . S
H636 C649 0.961 . S
H637 C649 0.959 . S
H638 C652 0.929 . S
H639 C653 0.931 . S
H640 C655 0.930 . S
C641 H629 0.930 . S
C641 C642 1.399 . S
C641 C646 1.399 . S
C642 C641 1.399 . S
C642 C643 1.376 . S
C643 H630 0.930 . S
C643 C642 1.376 . S
C643 C644 1.388 . S
C644 H631 0.930 . S
C644 C643 1.388 . S
C644 C645 1.390 . S
C645 C644 1.390 . S
C645 C646 1.394 . S
C645 C651 1.465 . S
C646 C641 1.399 . S
C646 C645 1.394 . S
C646 C647 1.516 . S
C647 C646 1.516 . S
C647 C648 1.502 . S
C647 C649 1.561 . S
C647 C650 1.526 . S
C648 H632 0.959 . S
C648 H633 0.959 . S
C648 H634 0.961 . S
C648 C647 1.502 . S
C649 H635 0.960 . S
C649 H636 0.961 . S
C649 H637 0.959 . S
C649 C647 1.561 . S
C650 C647 1.526 . S
C650 C651 1.396 . S
C650 C655 1.390 . S
C651 C645 1.465 . S
C651 C650 1.396 . S
C651 C652 1.399 . S
C652 H638 0.929 . S
C652 C651 1.399 . S
C652 C653 1.385 . S
C653 H639 0.931 . S
C653 C652 1.385 . S
C653 C654 1.389 . S
C654 C653 1.389 . S
C654 C655 1.387 . S
C655 H640 0.930 . S
C655 C650 1.390 . S
C655 C654 1.387 . S
H656 C668 0.930 . S
H657 C670 0.930 . S
H658 C671 0.930 . S
H659 C675 0.959 . S
H660 C675 0.959 . S
H661 C675 0.961 . S
H662 C676 0.960 . S
H663 C676 0.961 . S
H664 C676 0.959 . S
H665 C679 0.929 . S
H666 C680 0.931 . S
H667 C682 0.930 . S
C668 H656 0.930 . S
C668 C669 1.399 . S
C668 C673 1.399 . S
C669 C668 1.399 . S
C669 C670 1.376 . S
C670 H657 0.930 . S
C670 C669 1.376 . S
C670 C671 1.388 . S
C671 H658 0.930 . S
C671 C670 1.388 . S
C671 C672 1.390 . S
C672 C671 1.390 . S
C672 C673 1.394 . S
C672 C678 1.465 . S
C673 C668 1.399 . S
C673 C672 1.394 . S
C673 C674 1.516 . S
C674 C673 1.516 . S
C674 C675 1.502 . S
C674 C676 1.561 . S
C674 C677 1.526 . S
C675 H659 0.959 . S
C675 H660 0.959 . S
C675 H661 0.961 . S
C675 C674 1.502 . S
C676 H662 0.960 . S
C676 H663 0.961 . S
C676 H664 0.959 . S
C676 C674 1.561 . S
C677 C674 1.526 . S
C677 C678 1.396 . S
C677 C682 1.390 . S
C678 C672 1.465 . S
C678 C677 1.396 . S
C678 C679 1.399 . S
C679 H665 0.929 . S
C679 C678 1.399 . S
C679 C680 1.385 . S
C680 H666 0.931 . S
C680 C679 1.385 . S
C680 C681 1.389 . S
C681 C680 1.389 . S
C681 C682 1.387 . S
C682 H667 0.930 . S
C682 C677 1.390 . S
C682 C681 1.387 . S
H683 C695 0.930 . S
H684 C697 0.930 . S
H685 C698 0.930 . S
H686 C702 0.959 . S
H687 C702 0.959 . S
H688 C702 0.961 . S
H689 C703 0.960 . S
H690 C703 0.961 . S
H691 C703 0.959 . S
H692 C706 0.929 . S
H693 C707 0.931 . S
H694 C709 0.930 . S
C695 H683 0.930 . S
C695 C696 1.399 . S
C695 C700 1.399 . S
C696 C695 1.399 . S
C696 C697 1.376 . S
C697 H684 0.930 . S
C697 C696 1.376 . S
C697 C698 1.388 . S
C698 H685 0.930 . S
C698 C697 1.388 . S
C698 C699 1.390 . S
C699 C698 1.390 . S
C699 C700 1.394 . S
C699 C705 1.465 . S
C700 C695 1.399 . S
C700 C699 1.394 . S
C700 C701 1.516 . S
C701 C700 1.516 . S
C701 C702 1.502 . S
C701 C703 1.561 . S
C701 C704 1.526 . S
C702 H686 0.959 . S
C702 H687 0.959 . S
C702 H688 0.961 . S
C702 C701 1.502 . S
C703 H689 0.960 . S
C703 H690 0.961 . S
C703 H691 0.959 . S
C703 C701 1.561 . S
C704 C701 1.526 . S
C704 C705 1.396 . S
C704 C709 1.390 . S
C705 C699 1.465 . S
C705 C704 1.396 . S
C705 C706 1.399 . S
C706 H692 0.929 . S
C706 C705 1.399 . S
C706 C707 1.385 . S
C707 H693 0.931 . S
C707 C706 1.385 . S
C707 C708 1.389 . S
C708 C707 1.389 . S
C708 C709 1.387 . S
C709 H694 0.930 . S
C709 C704 1.390 . S
C709 C708 1.387 . S
H710 C722 0.930 . S
H711 C724 0.930 . S
H712 C725 0.930 . S
H713 C729 0.959 . S
H714 C729 0.959 . S
H715 C729 0.961 . S
H716 C730 0.960 . S
H717 C730 0.961 . S
H718 C730 0.959 . S
H719 C733 0.929 . S
H720 C734 0.931 . S
H721 C736 0.930 . S
C722 H710 0.930 . S
C722 C723 1.399 . S
C722 C727 1.399 . S
C723 C722 1.399 . S
C723 C724 1.376 . S
C724 H711 0.930 . S
C724 C723 1.376 . S
C724 C725 1.388 . S
C725 H712 0.930 . S
C725 C724 1.388 . S
C725 C726 1.390 . S
C726 C725 1.390 . S
C726 C727 1.394 . S
C726 C732 1.465 . S
C727 C722 1.399 . S
C727 C726 1.394 . S
C727 C728 1.516 . S
C728 C727 1.516 . S
C728 C729 1.502 . S
C728 C730 1.561 . S
C728 C731 1.526 . S
C729 H713 0.959 . S
C729 H714 0.959 . S
C729 H715 0.961 . S
C729 C728 1.502 . S
C730 H716 0.960 . S
C730 H717 0.961 . S
C730 H718 0.959 . S
C730 C728 1.561 . S
C731 C728 1.526 . S
C731 C732 1.396 . S
C731 C736 1.390 . S
C732 C726 1.465 . S
C732 C731 1.396 . S
C732 C733 1.399 . S
C733 H719 0.929 . S
C733 C732 1.399 . S
C733 C734 1.385 . S
C734 H720 0.931 . S
C734 C733 1.385 . S
C734 C735 1.389 . S
C735 C734 1.389 . S
C735 C736 1.387 . S
C736 H721 0.930 . S
C736 C731 1.390 . S
C736 C735 1.387 . S
H737 C749 0.930 . S
H738 C751 0.930 . S
H739 C752 0.930 . S
H740 C756 0.959 . S
H741 C756 0.959 . S
H742 C756 0.961 . S
H743 C757 0.960 . S
H744 C757 0.961 . S
H745 C757 0.959 . S
H746 C760 0.929 . S
H747 C761 0.931 . S
H748 C763 0.930 . S
C749 H737 0.930 . S
C749 C750 1.399 . S
C749 C754 1.399 . S
C750 C749 1.399 . S
C750 C751 1.376 . S
C751 H738 0.930 . S
C751 C750 1.376 . S
C751 C752 1.388 . S
C752 H739 0.930 . S
C752 C751 1.388 . S
C752 C753 1.390 . S
C753 C752 1.390 . S
C753 C754 1.394 . S
C753 C759 1.465 . S
C754 C749 1.399 . S
C754 C753 1.394 . S
C754 C755 1.516 . S
C755 C754 1.516 . S
C755 C756 1.502 . S
C755 C757 1.561 . S
C755 C758 1.526 . S
C756 H740 0.959 . S
C756 H741 0.959 . S
C756 H742 0.961 . S
C756 C755 1.502 . S
C757 H743 0.960 . S
C757 H744 0.961 . S
C757 H745 0.959 . S
C757 C755 1.561 . S
C758 C755 1.526 . S
C758 C759 1.396 . S
C758 C763 1.390 . S
C759 C753 1.465 . S
C759 C758 1.396 . S
C759 C760 1.399 . S
C760 H746 0.929 . S
C760 C759 1.399 . S
C760 C761 1.385 . S
C761 H747 0.931 . S
C761 C760 1.385 . S
C761 C762 1.389 . S
C762 C761 1.389 . S
C762 C763 1.387 . S
C763 H748 0.930 . S
C763 C758 1.390 . S
C763 C762 1.387 . S
H764 C776 0.930 . S
H765 C778 0.930 . S
H766 C779 0.930 . S
H767 C783 0.959 . S
H768 C783 0.959 . S
H769 C783 0.961 . S
H770 C784 0.960 . S
H771 C784 0.961 . S
H772 C784 0.959 . S
H773 C787 0.929 . S
H774 C788 0.931 . S
H775 C790 0.930 . S
C776 H764 0.930 . S
C776 C777 1.399 . S
C776 C781 1.399 . S
C777 C776 1.399 . S
C777 C778 1.376 . S
C778 H765 0.930 . S
C778 C777 1.376 . S
C778 C779 1.388 . S
C779 H766 0.930 . S
C779 C778 1.388 . S
C779 C780 1.390 . S
C780 C779 1.390 . S
C780 C781 1.394 . S
C780 C786 1.465 . S
C781 C776 1.399 . S
C781 C780 1.394 . S
C781 C782 1.516 . S
C782 C781 1.516 . S
C782 C783 1.502 . S
C782 C784 1.561 . S
C782 C785 1.526 . S
C783 H767 0.959 . S
C783 H768 0.959 . S
C783 H769 0.961 . S
C783 C782 1.502 . S
C784 H770 0.960 . S
C784 H771 0.961 . S
C784 H772 0.959 . S
C784 C782 1.561 . S
C785 C782 1.526 . S
C785 C786 1.396 . S
C785 C790 1.390 . S
C786 C780 1.465 . S
C786 C785 1.396 . S
C786 C787 1.399 . S
C787 H773 0.929 . S
C787 C786 1.399 . S
C787 C788 1.385 . S
C788 H774 0.931 . S
C788 C787 1.385 . S
C788 C789 1.389 . S
C789 C788 1.389 . S
C789 C790 1.387 . S
C790 H775 0.930 . S
C790 C785 1.390 . S
C790 C789 1.387 . S
H791 C803 0.930 . S
H792 C805 0.930 . S
H793 C806 0.930 . S
H794 C810 0.959 . S
H795 C810 0.959 . S
H796 C810 0.961 . S
H797 C811 0.960 . S
H798 C811 0.961 . S
H799 C811 0.959 . S
H800 C814 0.929 . S
H801 C815 0.931 . S
H802 C817 0.930 . S
C803 H791 0.930 . S
C803 C804 1.399 . S
C803 C808 1.399 . S
C804 C803 1.399 . S
C804 C805 1.376 . S
C805 H792 0.930 . S
C805 C804 1.376 . S
C805 C806 1.388 . S
C806 H793 0.930 . S
C806 C805 1.388 . S
C806 C807 1.390 . S
C807 C806 1.390 . S
C807 C808 1.394 . S
C807 C813 1.465 . S
C808 C803 1.399 . S
C808 C807 1.394 . S
C808 C809 1.516 . S
C809 C808 1.516 . S
C809 C810 1.502 . S
C809 C811 1.561 . S
C809 C812 1.526 . S
C810 H794 0.959 . S
C810 H795 0.959 . S
C810 H796 0.961 . S
C810 C809 1.502 . S
C811 H797 0.960 . S
C811 H798 0.961 . S
C811 H799 0.959 . S
C811 C809 1.561 . S
C812 C809 1.526 . S
C812 C813 1.396 . S
C812 C817 1.390 . S
C813 C807 1.465 . S
C813 C812 1.396 . S
C813 C814 1.399 . S
C814 H800 0.929 . S
C814 C813 1.399 . S
C814 C815 1.385 . S
C815 H801 0.931 . S
C815 C814 1.385 . S
C815 C816 1.389 . S
C816 C815 1.389 . S
C816 C817 1.387 . S
C817 H802 0.930 . S
C817 C812 1.390 . S
C817 C816 1.387 . S
H818 C830 0.930 . S
H819 C832 0.930 . S
H820 C833 0.930 . S
H821 C837 0.959 . S
H822 C837 0.959 . S
H823 C837 0.961 . S
H824 C838 0.960 . S
H825 C838 0.961 . S
H826 C838 0.959 . S
H827 C841 0.929 . S
H828 C842 0.931 . S
H829 C844 0.930 . S
C830 H818 0.930 . S
C830 C831 1.399 . S
C830 C835 1.399 . S
C831 C830 1.399 . S
C831 C832 1.376 . S
C832 H819 0.930 . S
C832 C831 1.376 . S
C832 C833 1.388 . S
C833 H820 0.930 . S
C833 C832 1.388 . S
C833 C834 1.390 . S
C834 C833 1.390 . S
C834 C835 1.394 . S
C834 C840 1.465 . S
C835 C830 1.399 . S
C835 C834 1.394 . S
C835 C836 1.516 . S
C836 C835 1.516 . S
C836 C837 1.502 . S
C836 C838 1.561 . S
C836 C839 1.526 . S
C837 H821 0.959 . S
C837 H822 0.959 . S
C837 H823 0.961 . S
C837 C836 1.502 . S
C838 H824 0.960 . S
C838 H825 0.961 . S
C838 H826 0.959 . S
C838 C836 1.561 . S
C839 C836 1.526 . S
C839 C840 1.396 . S
C839 C844 1.390 . S
C840 C834 1.465 . S
C840 C839 1.396 . S
C840 C841 1.399 . S
C841 H827 0.929 . S
C841 C840 1.399 . S
C841 C842 1.385 . S
C842 H828 0.931 . S
C842 C841 1.385 . S
C842 C843 1.389 . S
C843 C842 1.389 . S
C843 C844 1.387 . S
C844 H829 0.930 . S
C844 C839 1.390 . S
C844 C843 1.387 . S
H845 C857 0.930 . S
H846 C859 0.930 . S
H847 C860 0.930 . S
H848 C864 0.959 . S
H849 C864 0.959 . S
H850 C864 0.961 . S
H851 C865 0.960 . S
H852 C865 0.961 . S
H853 C865 0.959 . S
H854 C868 0.929 . S
H855 C869 0.931 . S
H856 C871 0.930 . S
C857 H845 0.930 . S
C857 C858 1.399 . S
C857 C862 1.399 . S
C858 C857 1.399 . S
C858 C859 1.376 . S
C859 H846 0.930 . S
C859 C858 1.376 . S
C859 C860 1.388 . S
C860 H847 0.930 . S
C860 C859 1.388 . S
C860 C861 1.390 . S
C861 C860 1.390 . S
C861 C862 1.394 . S
C861 C867 1.465 . S
C862 C857 1.399 . S
C862 C861 1.394 . S
C862 C863 1.516 . S
C863 C862 1.516 . S
C863 C864 1.502 . S
C863 C865 1.561 . S
C863 C866 1.526 . S
C864 H848 0.959 . S
C864 H849 0.959 . S
C864 H850 0.961 . S
C864 C863 1.502 . S
C865 H851 0.960 . S
C865 H852 0.961 . S
C865 H853 0.959 . S
C865 C863 1.561 . S
C866 C863 1.526 . S
C866 C867 1.396 . S
C866 C871 1.390 . S
C867 C861 1.465 . S
C867 C866 1.396 . S
C867 C868 1.399 . S
C868 H854 0.929 . S
C868 C867 1.399 . S
C868 C869 1.385 . S
C869 H855 0.931 . S
C869 C868 1.385 . S
C869 C870 1.389 . S
C870 C869 1.389 . S
C870 C871 1.387 . S
C871 H856 0.930 . S
C871 C866 1.390 . S
C871 C870 1.387 . S
H872 C884 0.930 . S
H873 C886 0.930 . S
H874 C887 0.930 . S
H875 C891 0.959 . S
H876 C891 0.959 . S
H877 C891 0.961 . S
H878 C892 0.960 1_655 S
H879 C892 0.961 1_545 S
H880 C892 0.959 1_645 S
H881 C895 0.929 . S
H882 C896 0.931 . S
H883 C898 0.930 . S
C884 H872 0.930 . S
C884 C885 1.399 . S
C884 C889 1.399 . S
C885 C884 1.399 . S
C885 C886 1.376 . S
C886 H873 0.930 . S
C886 C885 1.376 . S
C886 C887 1.388 . S
C887 H874 0.930 . S
C887 C886 1.388 . S
C887 C888 1.390 . S
C888 C887 1.390 . S
C888 C889 1.394 . S
C888 C894 1.474 1_565 S
C889 C884 1.399 . S
C889 C888 1.394 . S
C889 C890 1.516 1_655 S
C890 C889 1.516 1_455 S
C890 C891 1.502 . S
C890 C892 1.561 . S
C890 C893 1.526 1_565 S
C891 H875 0.959 . S
C891 H876 0.959 . S
C891 H877 0.961 . S
C891 C890 1.502 . S
C892 H878 0.960 1_455 S
C892 H879 0.961 1_565 S
C892 H880 0.959 1_465 S
C892 C890 1.561 . S
C893 C890 1.526 1_545 S
C893 C894 1.386 1_455 S
C893 C898 1.390 . S
C894 C888 1.474 1_545 S
C894 C893 1.386 1_655 S
C894 C895 1.399 . S
C895 H881 0.929 . S
C895 C894 1.399 . S
C895 C896 1.385 1_655 S
C896 H882 0.931 . S
C896 C895 1.385 1_455 S
C896 C897 1.389 . S
C897 C896 1.389 . S
C897 C898 1.387 . S
C898 H883 0.930 . S
C898 C893 1.390 . S
C898 C897 1.387 . S
H899 C911 0.930 . S
H900 C913 0.930 . S
H901 C914 0.930 . S
H902 C918 0.959 . S
H903 C918 0.959 . S
H904 C918 0.961 . S
H905 C919 0.960 1_655 S
H906 C919 0.961 1_565 S
H907 C919 0.959 . S
H908 C922 0.929 1_545 S
H909 C923 0.931 . S
H910 C925 0.930 . S
C911 H899 0.930 . S
C911 C912 1.399 . S
C911 C916 1.399 . S
C912 C911 1.399 . S
C912 C913 1.376 . S
C913 H900 0.930 . S
C913 C912 1.376 . S
C913 C914 1.388 . S
C914 H901 0.930 . S
C914 C913 1.388 . S
C914 C915 1.390 . S
C915 C914 1.390 . S
C915 C916 1.394 . S
C915 C921 1.465 1_645 S
C916 C911 1.399 . S
C916 C915 1.394 . S
C916 C917 1.516 1_545 S
C917 C916 1.516 1_565 S
C917 C918 1.502 . S
C917 C919 1.561 1_665 S
C917 C920 1.526 1_655 S
C918 H902 0.959 . S
C918 H903 0.959 . S
C918 H904 0.961 . S
C918 C917 1.502 . S
C919 H905 0.960 1_455 S
C919 H906 0.961 1_545 S
C919 H907 0.959 . S
C919 C917 1.561 1_445 S
C920 C917 1.526 1_455 S
C920 C921 1.396 . S
C920 C925 1.390 . S
C921 C915 1.465 1_465 S
C921 C920 1.396 . S
C921 C922 1.399 . S
C922 H908 0.929 1_565 S
C922 C921 1.399 . S
C922 C923 1.385 . S
C923 H909 0.931 . S
C923 C922 1.385 . S
C923 C924 1.389 . S
C924 C923 1.389 . S
C924 C925 1.387 . S
C925 H910 0.930 . S
C925 C920 1.390 . S
C925 C924 1.387 . S
H926 C938 0.930 . S
H927 C940 0.930 . S
H928 C941 0.930 1_554 S
H929 C945 0.959 . S
H930 C945 0.959 . S
H931 C945 0.961 . S
H932 C946 0.960 . S
H933 C946 0.961 . S
H934 C946 0.959 . S
H935 C949 0.929 1_554 S
H936 C950 0.931 . S
H937 C952 0.930 . S
C938 H926 0.930 . S
C938 C939 1.399 . S
C938 C943 1.399 . S
C939 C938 1.399 . S
C939 C940 1.376 . S
C940 H927 0.930 . S
C940 C939 1.376 . S
C940 C941 1.388 . S
C941 H928 0.930 1_556 S
C941 C940 1.388 . S
C941 C942 1.390 . S
C942 C941 1.390 . S
C942 C943 1.394 . S
C942 C948 1.465 1_455 S
C943 C938 1.399 . S
C943 C942 1.394 . S
C943 C944 1.516 . S
C944 C943 1.516 . S
C944 C945 1.502 . S
C944 C946 1.561 1_455 S
C944 C947 1.526 1_455 S
C945 H929 0.959 . S
C945 H930 0.959 . S
C945 H931 0.961 . S
C945 C944 1.502 . S
C946 H932 0.960 . S
C946 H933 0.961 . S
C946 H934 0.959 . S
C946 C944 1.561 1_655 S
C947 C944 1.526 1_655 S
C947 C948 1.396 . S
C947 C952 1.390 . S
C948 C942 1.465 1_655 S
C948 C947 1.396 . S
C948 C949 1.399 . S
C949 H935 0.929 1_556 S
C949 C948 1.399 . S
C949 C950 1.385 . S
C950 H936 0.931 . S
C950 C949 1.385 . S
C950 C951 1.389 . S
C951 C950 1.389 . S
C951 C952 1.387 . S
C952 H937 0.930 . S
C952 C947 1.390 . S
C952 C951 1.387 . S
H953 C965 0.930 . S
H954 C967 0.930 . S
H955 C968 0.930 . S
H956 C972 0.959 . S
H957 C972 0.959 . S
H958 C972 0.961 . S
H959 C973 0.960 . S
H960 C973 0.961 . S
H961 C973 0.960 . S
H962 C976 0.929 . S
H963 C977 0.931 . S
H964 C979 0.930 . S
C965 H953 0.930 . S
C965 C966 1.399 . S
C965 C970 1.399 . S
C966 C965 1.399 . S
C966 C967 1.376 . S
C967 H954 0.930 . S
C967 C966 1.376 . S
C967 C968 1.388 1_565 S
C968 H955 0.930 . S
C968 C967 1.388 1_545 S
C968 C969 1.390 . S
C969 C968 1.390 . S
C969 C970 1.394 1_545 S
C969 C975 1.465 . S
C970 C965 1.399 . S
C970 C969 1.394 1_565 S
C970 C971 1.516 . S
C971 C970 1.516 . S
C971 C972 1.502 . S
C971 C973 1.561 1_554 S
C971 C974 1.526 1_565 S
C972 H956 0.959 . S
C972 H957 0.959 . S
C972 H958 0.961 . S
C972 C971 1.502 . S
C973 H959 0.960 . S
C973 H960 0.961 . S
C973 H961 0.960 . S
C973 C971 1.561 1_556 S
C974 C971 1.526 1_545 S
C974 C975 1.396 . S
C974 C979 1.390 . S
C975 C969 1.465 . S
C975 C974 1.396 . S
C975 C976 1.399 . S
C976 H962 0.929 . S
C976 C975 1.399 . S
C976 C977 1.385 . S
C977 H963 0.931 . S
C977 C976 1.385 . S
C977 C978 1.389 . S
C978 C977 1.389 . S
C978 C979 1.387 . S
C979 H964 0.930 . S
C979 C974 1.390 . S
C979 C978 1.387 . S
H980 C992 0.930 . S
H981 C994 0.930 . S
H982 C995 0.930 . S
H983 C999 0.959 . S
H984 C999 0.959 . S
H985 C999 0.961 . S
H986 C1000 0.960 . S
H987 C1000 0.961 . S
H988 C1000 0.959 . S
H989 C1003 0.929 . S
H990 C1004 0.931 . S
H991 C1006 0.930 . S
C992 H980 0.930 . S
C992 C993 1.399 . S
C992 C997 1.399 . S
C993 C992 1.399 . S
C993 C994 1.376 . S
C994 H981 0.930 . S
C994 C993 1.376 . S
C994 C995 1.388 . S
C995 H982 0.930 . S
C995 C994 1.388 . S
C995 C996 1.390 . S
C996 C995 1.390 . S
C996 C997 1.394 . S
C996 C1002 1.465 . S
C997 C992 1.399 . S
C997 C996 1.394 . S
C997 C998 1.516 . S
C998 C997 1.516 . S
C998 C999 1.502 . S
C998 C1000 1.561 . S
C998 C1001 1.526 . S
C999 H983 0.959 . S
C999 H984 0.959 . S
C999 H985 0.961 . S
C999 C998 1.502 . S
C1000 H986 0.960 . S
C1000 H987 0.961 . S
C1000 H988 0.959 . S
C1000 C998 1.561 . S
C1001 C998 1.526 . S
C1001 C1002 1.396 . S
C1001 C1006 1.390 . S
C1002 C996 1.465 . S
C1002 C1001 1.396 . S
C1002 C1003 1.399 . S
C1003 H989 0.929 . S
C1003 C1002 1.399 . S
C1003 C1004 1.385 . S
C1004 H990 0.931 . S
C1004 C1003 1.385 . S
C1004 C1005 1.389 . S
C1005 C1004 1.389 . S
C1005 C1006 1.387 . S
C1006 H991 0.930 . S
C1006 C1001 1.390 . S
C1006 C1005 1.387 . S
H1007 C1019 0.930 . S
H1008 C1021 0.930 . S
H1009 C1022 0.930 . S
H1010 C1026 0.959 . S
H1011 C1026 0.959 . S
H1012 C1026 0.961 . S
H1013 C1027 0.960 . S
H1014 C1027 0.961 . S
H1015 C1027 0.959 . S
H1016 C1030 0.929 . S
H1017 C1031 0.931 . S
H1018 C1033 0.930 . S
C1019 H1007 0.930 . S
C1019 C1020 1.399 . S
C1019 C1024 1.399 . S
C1020 C1019 1.399 . S
C1020 C1021 1.376 . S
C1021 H1008 0.930 . S
C1021 C1020 1.376 . S
C1021 C1022 1.388 . S
C1022 H1009 0.930 . S
C1022 C1021 1.388 . S
C1022 C1023 1.390 . S
C1023 C1022 1.390 . S
C1023 C1024 1.394 . S
C1023 C1029 1.465 . S
C1024 C1019 1.399 . S
C1024 C1023 1.394 . S
C1024 C1025 1.516 . S
C1025 C1024 1.516 . S
C1025 C1026 1.502 . S
C1025 C1027 1.561 . S
C1025 C1028 1.526 . S
C1026 H1010 0.959 . S
C1026 H1011 0.959 . S
C1026 H1012 0.961 . S
C1026 C1025 1.502 . S
C1027 H1013 0.960 . S
C1027 H1014 0.961 . S
C1027 H1015 0.959 . S
C1027 C1025 1.561 . S
C1028 C1025 1.526 . S
C1028 C1029 1.396 . S
C1028 C1033 1.390 . S
C1029 C1023 1.465 . S
C1029 C1028 1.396 . S
C1029 C1030 1.399 . S
C1030 H1016 0.929 . S
C1030 C1029 1.399 . S
C1030 C1031 1.385 . S
C1031 H1017 0.931 . S
C1031 C1030 1.385 . S
C1031 C1032 1.389 . S
C1032 C1031 1.389 . S
C1032 C1033 1.387 . S
C1033 H1018 0.930 . S
C1033 C1028 1.390 . S
C1033 C1032 1.387 . S
H1034 C1046 0.930 . S
H1035 C1048 0.930 . S
H1036 C1049 0.930 . S
H1037 C1053 0.959 . S
H1038 C1053 0.959 . S
H1039 C1053 0.961 . S
H1040 C1054 0.960 . S
H1041 C1054 0.961 1_565 S
H1042 C1054 0.959 . S
H1043 C1057 0.929 . S
H1044 C1058 0.931 . S
H1045 C1060 0.930 . S
C1046 H1034 0.930 . S
C1046 C1047 1.399 . S
C1046 C1051 1.399 . S
C1047 C1046 1.399 . S
C1047 C1048 1.376 . S
C1048 H1035 0.930 . S
C1048 C1047 1.376 . S
C1048 C1049 1.388 . S
C1049 H1036 0.930 . S
C1049 C1048 1.388 . S
C1049 C1050 1.390 . S
C1050 C1049 1.390 . S
C1050 C1051 1.394 . S
C1050 C1056 1.465 1_545 S
C1051 C1046 1.399 . S
C1051 C1050 1.394 . S
C1051 C1052 1.516 1_545 S
C1052 C1051 1.516 1_565 S
C1052 C1053 1.502 . S
C1052 C1054 1.561 1_565 S
C1052 C1055 1.526 . S
C1053 H1037 0.959 . S
C1053 H1038 0.959 . S
C1053 H1039 0.961 . S
C1053 C1052 1.502 . S
C1054 H1040 0.960 . S
C1054 H1041 0.961 1_545 S
C1054 H1042 0.959 . S
C1054 C1052 1.561 1_545 S
C1055 C1052 1.526 . S
C1055 C1056 1.396 . S
C1055 C1060 1.390 . S
C1056 C1050 1.465 1_565 S
C1056 C1055 1.396 . S
C1056 C1057 1.399 . S
C1057 H1043 0.929 . S
C1057 C1056 1.399 . S
C1057 C1058 1.385 . S
C1058 H1044 0.931 . S
C1058 C1057 1.385 . S
C1058 C1059 1.389 . S
C1059 C1058 1.389 . S
C1059 C1060 1.387 . S
C1060 H1045 0.930 . S
C1060 C1055 1.390 . S
C1060 C1059 1.387 . S
H1061 C1073 0.930 . S
H1062 C1075 0.930 . S
H1063 C1076 0.930 . S
H1064 C1080 0.959 . S
H1065 C1080 0.959 . S
H1066 C1080 0.961 . S
H1067 C1081 0.960 . S
H1068 C1081 0.955 1_455 S
H1069 C1081 0.959 . S
H1070 C1084 0.929 . S
H1071 C1085 0.931 . S
H1072 C1087 0.930 . S
C1073 H1061 0.930 . S
C1073 C1074 1.399 . S
C1073 C1078 1.399 . S
C1074 C1073 1.399 . S
C1074 C1075 1.376 . S
C1075 H1062 0.930 . S
C1075 C1074 1.376 . S
C1075 C1076 1.388 . S
C1076 H1063 0.930 . S
C1076 C1075 1.388 . S
C1076 C1077 1.390 . S
C1077 C1076 1.390 . S
C1077 C1078 1.394 . S
C1077 C1083 1.465 1_655 S
C1078 C1073 1.399 . S
C1078 C1077 1.394 . S
C1078 C1079 1.516 1_655 S
C1079 C1078 1.516 1_455 S
C1079 C1080 1.502 . S
C1079 C1081 1.561 1_455 S
C1079 C1082 1.526 . S
C1080 H1064 0.959 . S
C1080 H1065 0.959 . S
C1080 H1066 0.961 . S
C1080 C1079 1.502 . S
C1081 H1067 0.960 . S
C1081 H1068 0.955 1_655 S
C1081 H1069 0.959 . S
C1081 C1079 1.561 1_655 S
C1082 C1079 1.526 . S
C1082 C1083 1.396 . S
C1082 C1087 1.390 . S
C1083 C1077 1.465 1_455 S
C1083 C1082 1.396 . S
C1083 C1084 1.399 . S
C1084 H1070 0.929 . S
C1084 C1083 1.399 . S
C1084 C1085 1.385 . S
C1085 H1071 0.931 . S
C1085 C1084 1.385 . S
C1085 C1086 1.389 . S
C1086 C1085 1.389 . S
C1086 C1087 1.387 . S
C1087 H1072 0.930 . S
C1087 C1082 1.390 . S
C1087 C1086 1.387 . S
C237 C3 1.163 . S
C249 C163 1.192 . S
C264 C121 1.139 . S
C276 C17 1.178 . S
C291 C135 1.171 . S
C303 C31 1.142 . S
C318 C149 1.186 . S
C330 C45 1.134 . S
C345 C79 1.207 1_545 S
C357 C59 1.187 . S
C372 C73 1.209 . S
C384 C93 1.185 1_455 S
C399 C87 1.202 . S
C411 C107 1.185 1_565 S
C426 C101 1.193 . S
C438 C65 1.151 1_655 S
C453 C115 1.204 . S
C465 C51 1.189 1_565 S
C480 C9 1.132 1_655 S
C492 C129 1.151 . S
C507 C23 1.200 1_545 S
C519 C143 1.175 . S
C534 C37 1.210 1_455 S
C546 C157 1.189 . S
C561 C191 1.208 . S
C573 C171 1.208 . S
C588 C185 1.152 . S
C600 C205 1.133 . S
C615 C219 1.134 . S
C627 C199 1.141 . S
C642 C177 1.200 . S
C654 C213 1.205 . S
C669 C204 1.566 . S
C681 C8 1.575 . S
C696 C218 1.565 . S
C708 C22 1.587 . S
C723 C176 1.596 . S
C735 C36 1.579 . S
C750 C50 1.594 . S
C762 C190 1.578 . S
C777 C64 1.596 . S
C789 C148 1.577 . S
C804 C162 1.596 . S
C816 C78 1.573 . S
C831 C92 1.564 . S
C843 C120 1.580 . S
C858 C106 1.581 . S
C870 C134 1.568 . S
C885 C35 1.255 . S
C897 C7 1.191 . S
C912 C49 1.231 . S
C924 C21 1.163 . S
C939 C63 1.164 . S
C951 C91 1.200 . S
C966 C77 1.167 . S
C978 C105 1.254 . S
C993 C147 1.158 . S
C1005 C119 1.217 . S
C1020 C133 1.224 . S
C1032 C161 1.168 . S
C1047 C203 1.163 . S
C1059 C175 1.201 . S
C1074 C189 1.200 . S
C1086 C217 1.240 . S
