# Generated by pormake.
# Topology unh, (4)-cn, num edge types: 1
# Building blocks:
#     Node 0, Type 0, BuildingBlock: MUDLON_clean_sbu_0, # of connection points: 4
#     Node 1, Type 0, BuildingBlock: MUDLON_clean_sbu_0, # of connection points: 4
#     Node 2, Type 0, BuildingBlock: MUDLON_clean_sbu_0, # of connection points: 4
#     Node 3, Type 0, BuildingBlock: MUDLON_clean_sbu_0, # of connection points: 4
#     Node 4, Type 0, BuildingBlock: MUDLON_clean_sbu_0, # of connection points: 4
#     Node 5, Type 0, BuildingBlock: MUDLON_clean_sbu_0, # of connection points: 4
#     Edge 6, Type (0, 0), BuildingBlock: ZUJKAS_clean_linker_0, # of connection points: 2
#     Edge 7, Type (0, 0), BuildingBlock: ZUJKAS_clean_linker_0, # of connection points: 2
#     Edge 8, Type (0, 0), BuildingBlock: ZUJKAS_clean_linker_0, # of connection points: 2
#     Edge 9, Type (0, 0), BuildingBlock: ZUJKAS_clean_linker_0, # of connection points: 2
#     Edge 10, Type (0, 0), BuildingBlock: ZUJKAS_clean_linker_0, # of connection points: 2
#     Edge 11, Type (0, 0), BuildingBlock: ZUJKAS_clean_linker_0, # of connection points: 2
#     Edge 12, Type (0, 0), BuildingBlock: ZUJKAS_clean_linker_0, # of connection points: 2
#     Edge 13, Type (0, 0), BuildingBlock: ZUJKAS_clean_linker_0, # of connection points: 2
#     Edge 14, Type (0, 0), BuildingBlock: ZUJKAS_clean_linker_0, # of connection points: 2
#     Edge 15, Type (0, 0), BuildingBlock: ZUJKAS_clean_linker_0, # of connection points: 2
#     Edge 16, Type (0, 0), BuildingBlock: ZUJKAS_clean_linker_0, # of connection points: 2
#     Edge 17, Type (0, 0), BuildingBlock: ZUJKAS_clean_linker_0, # of connection points: 2
# Relax obj value: 0.034
# Max RMSD: 0.245
# Mean RMSD: 0.245
data_MOF--net-unh--node1-MUDLON_clean_sbu_0--edge1-ZUJKAS_clean_linker_0
_symmetry_space_group_name_H-M    P1
_symmetry_Int_Tables_number       1
_symmetry_cell_setting            triclinic
loop_
_symmetry_equiv_pos_as_xyz
'x, y, z'
_cell_length_a     56.817802
_cell_length_b     56.776023
_cell_length_c     29.879872
_cell_angle_alpha  89.947307
_cell_angle_beta   89.96458
_cell_angle_gamma 119.99053
loop_
_atom_site_label
_atom_site_type_symbol
_atom_site_fract_x
_atom_site_fract_y
_atom_site_fract_z
_atom_type_partial_charge
Mg0 Mg 0.15175 0.57325 0.10171 0.0
C1 C 0.17294 0.62716 0.04915 0.0
O2 O 0.14759 0.61658 0.03596 0.0
C3 C 0.12314 0.58985 0.17462 0.0
O4 O 0.14386 0.61468 0.17095 0.0
C5 C 0.18659 0.57097 0.173 0.0
O6 O 0.17952 0.58814 0.18877 0.0
O7 O 0.17732 0.56002 0.13512 0.0
O8 O 0.17921 0.61403 0.07654 0.0
O9 O 0.12691 0.54641 0.04794 0.0
C10 C 0.13234 0.55105 1.00646 0.0
O11 O 0.15556 0.5721 0.99419 0.0
O12 O 0.12227 0.57098 0.15054 0.0
Mg13 Mg 0.5906 0.14594 0.26745 0.0
C14 C 0.56043 0.16593 0.20888 0.0
O15 O 0.55457 0.14365 0.18681 0.0
C16 C 0.54704 0.11393 0.34142 0.0
O17 O 0.53703 0.12981 0.33209 0.0
C18 C 0.62854 0.18331 0.33481 0.0
O19 O 0.60439 0.17499 0.35221 0.0
O20 O 0.63 0.17404 0.29676 0.0
O21 O 0.57372 0.17099 0.24526 0.0
O22 O 0.59271 0.12344 0.20963 0.0
C23 C 0.57803 0.09762 0.2096 0.0
O24 O 0.56347 0.08545 0.24528 0.0
O25 O 0.56765 0.11677 0.32001 0.0
Mg26 Mg 0.45982 0.58108 0.43076 0.0
C27 C 0.40276 0.57208 0.42143 0.0
O28 O 0.41081 0.5883 0.45634 0.0
C29 C 0.44674 0.53959 0.50861 0.0
O30 O 0.42196 0.53575 0.50723 0.0
C31 C 0.47305 0.62376 0.50171 0.0
O32 O 0.46915 0.60309 0.52675 0.0
O33 O 0.47163 0.62095 0.45935 0.0
O34 O 0.41854 0.5644 0.40531 0.0
O35 O 0.48569 0.58274 0.37533 0.0
C36 C 0.47435 0.56633 0.34297 0.0
O37 O 0.44778 0.55079 0.34319 0.0
O38 O 0.46455 0.55615 0.48137 0.0
Mg39 Mg 0.89228 0.45506 0.59985 0.0
C40 C 0.84309 0.39923 0.58533 0.0
O41 O 0.83489 0.40658 0.62107 0.0
C42 C 0.91634 0.4458 0.68614 0.0
O43 O 0.89078 0.43166 0.69866 0.0
C44 C 0.87106 0.48028 0.66845 0.0
O45 O 0.89545 0.48985 0.68561 0.0
O46 O 0.86506 0.46641 0.63258 0.0
O47 O 0.86688 0.41497 0.57036 0.0
O48 O 0.91585 0.48274 0.54586 0.0
C49 C 0.92183 0.47244 0.51302 0.0
O50 O 0.91257 0.44611 0.51285 0.0
O51 O 0.922 0.45648 0.64737 0.0
Mg52 Mg 0.44878 0.87978 0.77012 0.0
C53 C 0.44671 0.83693 0.71095 0.0
O54 O 0.42547 0.83862 0.69819 0.0
C55 C 0.49293 0.92917 0.81961 0.0
O56 O 0.49795 0.93943 0.77901 0.0
C57 C 0.40692 0.83926 0.83045 0.0
O58 O 0.42954 0.84092 0.84494 0.0
O59 O 0.4082 0.85404 0.79746 0.0
O60 O 0.46157 0.85248 0.74217 0.0
O61 O 0.44985 0.90668 0.71695 0.0
C62 C 0.46814 0.91344 0.68715 0.0
O63 O 0.48451 0.90339 0.68955 0.0
O64 O 0.47437 0.90455 0.82527 0.0
Mg65 Mg 0.58658 0.44364 0.93007 0.0
C66 C 0.64886 0.47094 0.9136 0.0
O67 O 0.65117 0.48131 0.95373 0.0
C68 C 0.59292 0.47109 1.02087 0.0
O69 O 0.59942 0.45295 0.03373 0.0
C70 C 0.59032 0.39934 0.97838 0.0
O71 O 0.61605 0.41811 0.97499 0.0
O72 O 0.57246 0.40414 0.96199 0.0
O73 O 0.62534 0.45567 0.89735 0.0
O74 O 0.55881 0.44192 0.87809 0.0
C75 C 0.56926 0.45854 0.84565 0.0
O76 O 0.59573 0.47482 0.84487 0.0
O77 O 0.58803 0.47245 0.9797 0.0
H78 H 0.1347 0.55887 0.91565 0.0
H79 H 0.09766 0.536 0.86165 0.0
H80 H 0.04498 0.48426 0.96648 0.0
H81 H 0.08171 0.50713 1.02081 0.0
H82 H 0.0643 0.48007 0.83664 0.0
H83 H 1.00475 0.52214 0.91638 0.0
H84 H 0.04021 0.53494 0.92854 0.0
H85 H 1.01467 0.50362 0.95322 0.0
C86 C 0.11534 0.54243 0.92719 0.0
C87 C 0.11112 0.53505 0.9727 0.0
C88 C 0.09419 0.52938 0.89624 0.0
C89 C 0.06844 0.50879 0.91022 0.0
C90 C 0.06454 0.50047 0.95515 0.0
H91 H 0.91191 0.42818 0.77287 0.0
H92 H 0.94863 0.44058 0.82695 0.0
C93 C 0.08564 0.5135 0.98612 0.0
C94 C 0.0454 0.49688 0.87822 0.0
H95 H 0.98412 0.49195 0.85614 0.0
C96 C 0.04673 0.4826 0.84088 0.0
C97 C 0.02249 0.5002 0.88388 0.0
C98 C 0.02041 0.51624 0.92242 0.0
C99 C 0.02565 0.47139 0.80916 0.0
C100 C 1.00291 0.47504 0.81451 0.0
C101 C 1.00148 0.48905 0.85216 0.0
C102 C 0.98089 0.46561 0.78064 0.0
C103 C 0.02779 0.45546 0.77054 0.0
C104 C 0.98679 0.4755 0.73659 0.0
C105 C 0.96588 0.4684 0.70559 0.0
C106 C 0.93855 0.45145 0.7181 0.0
C107 C 0.93271 0.44122 0.76207 0.0
C108 C 0.95367 0.44831 0.79305 0.0
H109 H 0.04162 0.44748 0.77846 0.0
H110 H 1.00756 0.43814 0.76141 0.0
H111 H 0.03619 0.46903 0.74099 0.0
H112 H 1.00753 0.48939 0.72647 0.0
H113 H 0.97114 0.47678 0.67212 0.0
H114 H 0.4842 0.91594 0.90872 0.0
H115 H 0.50432 0.94641 0.97274 0.0
H116 H 0.55344 1.01272 0.88321 0.0
H117 H 0.5332 0.98256 0.81898 0.0
H118 H 0.55873 0.97894 1.00117 0.0
H119 H 0.51231 0.04182 0.95622 0.0
H120 H 0.50172 1.00917 0.93093 0.0
H121 H 0.5326 0.03868 0.91306 0.0
C122 C 0.49941 0.93696 0.9026 0.0
C123 C 0.50688 0.94685 0.85864 0.0
C124 C 0.51091 0.95435 0.93926 0.0
C125 C 0.53001 0.98195 0.93271 0.0
C126 C 0.53831 0.99163 0.889 0.0
H127 H 0.59952 0.11611 0.12587 0.0
H128 H 0.5914 0.08897 0.05781 0.0
C129 C 0.52681 0.97429 0.85232 0.0
C130 C 0.5406 1.00067 0.9716 0.0
H131 H 0.54118 0.05569 1.01907 0.0
C132 C 0.55498 0.99578 1.00504 0.0
C133 C 0.53576 0.0227 0.97653 0.0
C134 C 0.51957 0.02837 0.94254 0.0
C135 C 0.56458 1.01226 0.04336 0.0
C136 C 0.55923 0.03391 0.04873 0.0
C137 C 0.54536 0.03916 1.01483 0.0
C138 C 0.56617 0.05025 0.09046 0.0
C139 C 0.58047 1.0064 0.07764 0.0
C140 C 0.55471 0.03753 0.13138 0.0
C141 C 0.5593 0.05292 0.17019 0.0
C142 C 0.57532 0.08146 0.16894 0.0
C143 C 0.58719 0.09418 0.12805 0.0
C144 C 0.58253 0.07871 0.08912 0.0
H145 H 0.58997 0.99526 0.06263 0.0
H146 H 0.59662 0.02544 0.09305 0.0
H147 H 0.56648 0.99345 0.10453 0.0
H148 H 0.54152 0.01568 0.13309 0.0
H149 H 0.54974 0.04243 0.20101 0.0
H150 H 0.45565 0.5352 0.26783 0.0
H151 H 0.48135 0.52434 0.21453 0.0
H152 H 0.55545 0.57689 0.28546 0.0
H153 H 0.52982 0.58818 0.33908 0.0
H154 H 0.56031 0.58052 0.18933 0.0
H155 H 0.51133 0.47406 0.2503 0.0
H156 H 0.48759 0.48465 0.23417 0.0
H157 H 0.50985 0.50068 0.28093 0.0
C158 C 0.47745 0.54468 0.27202 0.0
C159 C 0.49063 0.56235 0.30807 0.0
C160 C 0.49209 0.53835 0.24155 0.0
C161 C 0.5202 0.54937 0.24657 0.0
C162 C 0.53371 0.56802 0.2812 0.0
H163 H 0.6009 0.47281 0.11142 0.0
H164 H 0.58753 0.49517 0.16766 0.0
C165 C 0.51904 0.57445 0.31178 0.0
C166 C 0.53507 0.54042 0.21659 0.0
H167 H 0.53622 0.48369 0.18222 0.0
C168 C 0.55526 0.55941 0.18797 0.0
C169 C 0.52879 0.51297 0.21545 0.0
C170 C 0.5084 0.49193 0.24714 0.0
C171 C 0.56859 0.55141 0.15697 0.0
C172 C 0.56123 0.52366 0.15421 0.0
C173 C 0.54175 0.50493 0.18404 0.0
C174 C 0.57258 0.51319 0.11977 0.0
C175 C 0.59047 0.57277 0.12761 0.0
C176 C 0.56899 0.51616 0.07404 0.0
C177 C 0.57673 0.50349 0.04175 0.0
C178 C 0.58793 0.4873 0.05457 0.0
C179 C 0.5923 0.48508 0.10033 0.0
C180 C 0.58465 0.49784 0.13257 0.0
H181 H 0.59951 0.59328 0.14299 0.0
H182 H 0.60692 0.56805 0.12109 0.0
H183 H 0.58145 0.57348 0.09506 0.0
H184 H 0.55917 0.52735 0.06331 0.0
H185 H 0.57295 0.50555 1.00684 0.0
H186 H 0.93387 0.45556 0.43551 0.0
H187 H 0.96702 0.48325 0.37855 0.0
H188 H 0.98528 0.55599 0.45122 0.0
H189 H 0.95203 0.5283 0.50892 0.0
H190 H 0.97052 0.52744 0.32472 0.0
H191 H 0.05986 0.55897 0.43649 0.0
H192 H 0.02676 0.53057 0.44978 0.0
H193 H 0.03313 0.5647 0.45581 0.0
C194 C 0.94478 0.47745 0.43941 0.0
C195 C 0.94042 0.4897 0.47697 0.0
C196 C 0.96369 0.49325 0.40671 0.0
C197 C 0.97881 0.52162 0.41093 0.0
C198 C 0.97404 0.53408 0.44767 0.0
H199 H 0.11986 0.6233 0.23789 0.0
H200 H 0.0842 0.61094 0.2945 0.0
C201 C 0.95495 0.51824 0.48044 0.0
C202 C 1.00001 0.53767 0.37717 0.0
H203 H 0.06872 0.5715 0.36088 0.0
C204 C 0.992 0.53743 0.33268 0.0
C205 C 0.028 0.55082 0.38774 0.0
C206 C 0.03765 0.55129 0.43494 0.0
C207 C 1.01125 0.54915 0.29819 0.0
C208 C 0.03921 0.56091 0.30835 0.0
C209 C 0.04727 0.56242 0.35316 0.0
C210 C 0.0601 0.56916 0.27271 0.0
C211 C 1.00141 0.54843 0.25106 0.0
C212 C 0.05851 0.54975 0.24202 0.0
C213 C 0.07874 0.55668 0.20985 0.0
C214 C 0.10123 0.5832 0.20778 0.0
C215 C 0.10277 0.60273 0.23844 0.0
C216 C 0.08244 0.59571 0.27081 0.0
H217 H 0.98138 0.54744 0.25087 0.0
H218 H 1.01614 0.56655 0.23164 0.0
H219 H 0.99889 0.52997 0.23393 0.0
H220 H 0.04183 0.52897 0.24352 0.0
H221 H 0.07689 0.54106 0.18696 0.0
H222 H 0.56364 0.07863 0.36829 0.0
H223 H 0.54559 0.04564 0.42914 0.0
H224 H 0.486 0.06935 0.45824 0.0
H225 H 0.50389 0.10255 0.39683 0.0
H226 H 0.54264 0.05789 0.52074 0.0
H227 H 0.44101 0.98494 0.45049 0.0
H228 H 0.46856 1.00938 0.41597 0.0
H229 H 0.45041 0.02027 0.45165 0.0
C230 C 0.54658 0.07682 0.38734 0.0
C231 C 0.53522 0.0933 0.37761 0.0
C232 C 0.5363 0.05791 0.42218 0.0
C233 C 0.51434 0.05489 0.44797 0.0
C234 C 0.50272 0.0711 0.4383 0.0
H235 H 0.44022 0.94095 0.67423 0.0
H236 H 0.44974 0.97635 0.6182 0.0
C237 C 0.51306 0.09013 0.40334 0.0
C238 C 0.50458 0.03541 0.48593 0.0
H239 H 0.45193 0.97436 0.521 0.0
C240 C 0.52272 0.03974 0.52098 0.0
C241 C 0.47851 1.01186 0.48632 0.0
C242 C 0.45845 1.00608 0.44905 0.0
C243 C 0.51579 0.02083 0.55584 0.0
C244 C 0.49019 0.9967 0.55524 0.0
C245 C 0.47157 0.99284 0.52121 0.0
C246 C 0.48338 0.97452 0.58793 0.0
C247 C 0.53606 0.02672 0.59284 0.0
C248 C 0.4987 0.96137 0.58868 0.0
C249 C 0.49334 0.94123 0.6204 0.0
C250 C 0.47243 0.9337 0.65203 0.0
C251 C 0.45653 0.94635 0.65043 0.0
C252 C 0.46192 0.96655 0.61848 0.0
H253 H 0.55097 0.04881 0.59538 0.0
H254 H 0.52568 0.01944 0.62563 0.0
H255 H 0.54748 0.016 0.58571 0.0
H256 H 0.51502 0.96686 0.56485 0.0
H257 H 0.50587 0.93182 0.62038 0.0
H258 H 0.51357 0.43488 0.84316 0.0
H259 H 0.48619 0.44113 0.78578 0.0
H260 H 0.55902 0.49364 0.71148 0.0
H261 H 0.58638 0.48756 0.76816 0.0
H262 H 0.49185 0.49237 0.75841 0.0
H263 H 0.50792 0.43902 0.61687 0.0
H264 H 0.51384 0.43366 0.67442 0.0
H265 H 0.53885 0.463 0.64426 0.0
C266 C 0.5237 0.4475 0.81433 0.0
C267 C 0.55217 0.46069 0.81021 0.0
C268 C 0.50804 0.45108 0.78167 0.0
C269 C 0.52056 0.46755 0.74411 0.0
C270 C 0.5489 0.48045 0.73977 0.0
H271 H 0.49682 0.54521 0.52174 0.0
H272 H 0.5107 0.5245 0.57976 0.0
C273 C 0.56453 0.47706 0.7724 0.0
C274 C 0.50451 0.47271 0.71038 0.0
H275 H 0.49254 0.47015 0.59806 0.0
C276 C 0.4915 0.4871 0.72344 0.0
C277 C 0.50413 0.46577 0.66485 0.0
C278 C 0.51671 0.44928 0.64923 0.0
C279 C 0.47955 0.4962 0.69171 0.0
C280 C 0.48021 0.49027 0.64586 0.0
C281 C 0.49213 0.47478 0.63317 0.0
C282 C 0.47089 0.50194 0.61016 0.0
C283 C 0.46767 0.51337 0.70724 0.0
C284 C 0.44374 0.49587 0.60752 0.0
C285 C 0.43569 0.50784 0.5743 0.0
C286 C 0.45464 0.52593 0.54298 0.0
C287 C 0.48166 0.53144 0.54529 0.0
C288 C 0.48966 0.51957 0.57844 0.0
H289 H 0.47357 0.52053 0.74221 0.0
H290 H 0.47435 0.53135 0.68515 0.0
H291 H 0.44518 0.50112 0.70577 0.0
H292 H 0.4288 0.48192 0.63114 0.0
H293 H 0.4147 0.50303 0.57332 0.0
H294 H 0.21037 0.54103 0.1475 0.0
H295 H 0.2453 0.5362 0.18808 0.0
H296 H 0.24198 0.58494 0.29582 0.0
H297 H 0.20752 0.59008 0.25565 0.0
H298 H 0.29444 0.6025 0.26402 0.0
H299 H 0.23982 0.49156 0.30079 0.0
H300 H 0.23971 0.50097 0.24334 0.0
H301 H 0.2223 0.50947 0.2848 0.0
C302 C 0.21687 0.55044 0.18006 0.0
C303 C 0.20619 0.56601 0.19823 0.0
C304 C 0.23673 0.54755 0.20331 0.0
C305 C 0.24608 0.56003 0.24517 0.0
C306 C 0.23504 0.5751 0.26363 0.0
H307 H 0.36608 0.58771 0.44483 0.0
H308 H 0.32753 0.58271 0.4011 0.0
C309 C 0.21531 0.57801 0.24052 0.0
C310 C 0.26856 0.55908 0.26885 0.0
H311 H 0.28591 0.51682 0.32291 0.0
C312 C 0.29257 0.58375 0.27682 0.0
C313 C 0.26616 0.53457 0.28524 0.0
C314 C 0.24057 0.5076 0.27851 0.0
C315 C 0.31412 0.58465 0.3011 0.0
C316 C 0.31146 0.56028 0.31858 0.0
C317 C 0.28778 0.53548 0.30967 0.0
C318 C 0.33296 0.56054 0.34707 0.0
C319 C 0.33965 0.61173 0.30776 0.0
C320 C 0.34813 0.54876 0.33201 0.0
C321 C 0.37022 0.55152 0.35702 0.0
C322 C 0.37742 0.56603 0.39763 0.0
C323 C 0.36127 0.57658 0.4136 0.0
C324 C 0.33926 0.57384 0.38858 0.0
H325 H 0.34113 0.62718 0.28331 0.0
H326 H 0.33951 0.61934 0.3419 0.0
H327 H 0.35802 0.6097 0.30453 0.0
H328 H 0.34349 0.5383 0.30014 0.0
H329 H 0.38216 0.54306 0.3438 0.0
H330 H 0.68194 0.20873 0.30689 0.0
H331 H 0.72173 0.24443 0.34633 0.0
H332 H 0.67041 0.23979 0.45632 0.0
H333 H 0.63078 0.20457 0.41732 0.0
H334 H 0.70441 0.29262 0.42475 0.0
H335 H 0.76228 0.23911 0.45712 0.0
H336 H 0.75217 0.2392 0.40012 0.0
H337 H 0.72674 0.22122 0.44208 0.0
C338 C 0.6792 0.21516 0.33965 0.0
C339 C 0.65315 0.20382 0.35888 0.0
C340 C 0.70198 0.23546 0.36224 0.0
C341 C 0.69906 0.2446 0.40446 0.0
C342 C 0.67315 0.23302 0.42383 0.0
H343 H 0.7904 0.36265 0.60673 0.0
H344 H 0.75705 0.32498 0.56128 0.0
C345 C 0.65048 0.21285 0.4014 0.0
C346 C 0.72251 0.2672 0.4279 0.0
H347 H 0.78242 0.28484 0.48084 0.0
C348 C 0.7215 0.29094 0.43688 0.0
C349 C 0.74488 0.26503 0.44344 0.0
C350 C 0.74666 0.23973 0.43559 0.0
C351 C 0.74203 0.31242 0.46145 0.0
C352 C 0.76397 0.30995 0.4782 0.0
C353 C 0.76547 0.28658 0.46816 0.0
C354 C 0.78499 0.3312 0.50732 0.0
C355 C 0.74006 0.33764 0.46926 0.0
C356 C 0.81204 0.34653 0.49284 0.0
C357 C 0.83126 0.36812 0.51886 0.0
C358 C 0.82374 0.37462 0.55994 0.0
C359 C 0.79688 0.35837 0.57517 0.0
C360 C 0.77773 0.33687 0.54915 0.0
H361 H 0.72616 0.33928 0.44495 0.0
H362 H 0.732 0.33684 0.50341 0.0
H363 H 0.76036 0.35625 0.46675 0.0
H364 H 0.81808 0.34236 0.46075 0.0
H365 H 0.85179 0.38015 0.50619 0.0
H366 H 0.41764 0.80055 0.64537 0.0
H367 H 0.42626 0.76661 0.61104 0.0
H368 H 0.49764 0.79365 0.69288 0.0
H369 H 0.48924 0.82798 0.72755 0.0
H370 H 0.50428 0.78469 0.59867 0.0
H371 H 0.41448 0.69714 0.67697 0.0
H372 H 0.40719 0.72054 0.64814 0.0
H373 H 0.42842 0.73156 0.69703 0.0
C374 C 0.43522 0.79938 0.65617 0.0
C375 C 0.45265 0.81689 0.68951 0.0
C376 C 0.44006 0.77989 0.63653 0.0
C377 C 0.46237 0.77738 0.64982 0.0
C378 C 0.48023 0.7952 0.68231 0.0
H379 H 0.47721 0.63558 0.59085 0.0
H380 H 0.47768 0.67438 0.62687 0.0
C381 C 0.47536 0.81474 0.70214 0.0
C382 C 0.46663 0.75582 0.63008 0.0
H383 H 0.43681 0.68691 0.61948 0.0
C384 C 0.48966 0.76329 0.60339 0.0
C385 C 0.44765 0.72794 0.63669 0.0
C386 C 0.42315 0.7187 0.66658 0.0
C387 C 0.49383 0.74355 0.58215 0.0
C388 C 0.47432 0.71569 0.58751 0.0
C389 C 0.45166 0.70828 0.61511 0.0
C390 C 0.47682 0.69372 0.56499 0.0
C391 C 0.51915 0.75265 0.55452 0.0
C392 C 0.47645 0.69179 0.51809 0.0
C393 C 0.47619 0.66955 0.49726 0.0
C394 C 0.47613 0.64876 0.52302 0.0
C395 C 0.47721 0.65117 0.56994 0.0
C396 C 0.47747 0.67335 0.59065 0.0
H397 H 0.53515 0.7737 0.56304 0.0
H398 H 0.52748 0.73881 0.55937 0.0
H399 H 0.51408 0.75227 0.51858 0.0
H400 H 0.47542 0.707 0.4976 0.0
H401 H 0.47521 0.66826 0.46109 0.0
H402 H 0.70223 0.49899 0.94017 0.0
H403 H 0.74213 0.50523 0.89846 0.0
H404 H 0.69065 0.45961 0.78812 0.0
H405 H 0.65083 0.45351 0.82915 0.0
H406 H 0.7518 0.46451 0.86678 0.0
H407 H 0.75033 0.52766 0.72642 0.0
H408 H 0.73141 0.52275 0.7775 0.0
H409 H 0.71847 0.49697 0.73487 0.0
C410 C 0.69943 0.49051 0.90685 0.0
C411 C 0.67331 0.4758 0.888 0.0
C412 C 0.72225 0.49408 0.88309 0.0
C413 C 0.71943 0.48324 0.8399 0.0
C414 C 0.69341 0.46866 0.82097 0.0
H415 H 0.81791 0.46055 0.64467 0.0
H416 H 0.78251 0.46311 0.68733 0.0
C417 C 0.67062 0.46504 0.84467 0.0
C418 C 0.7434 0.48588 0.81542 0.0
H419 H 0.77865 0.50802 0.71717 0.0
C420 C 0.7579 0.4743 0.83431 0.0
C421 C 0.75125 0.49859 0.77299 0.0
C422 C 0.73723 0.51243 0.75188 0.0
C423 C 0.77944 0.47425 0.81124 0.0
C424 C 0.787 0.48656 0.76846 0.0
C425 C 0.7728 0.49855 0.74991 0.0
C426 C 0.809 0.48636 0.74183 0.0
C427 C 0.79324 0.46012 0.83216 0.0
C428 C 0.83581 0.49913 0.75779 0.0
C429 C 0.85612 0.49769 0.73349 0.0
C430 C 0.85004 0.48357 0.6926 0.0
C431 C 0.82332 0.47154 0.67605 0.0
C432 C 0.80304 0.47299 0.70039 0.0
H433 H 0.78098 0.44632 0.85982 0.0
H434 H 0.79707 0.44812 0.80683 0.0
H435 H 0.81311 0.4756 0.84616 0.0
H436 H 0.84098 0.51004 0.78925 0.0
H437 H 0.87649 0.50732 0.74712 0.0
H438 H 0.39882 0.80645 0.90229 0.0
H439 H 0.35591 0.77424 0.9377 0.0
H440 H 0.31252 0.79653 0.84431 0.0
H441 H 0.35559 0.82884 0.8081 0.0
H442 H 0.31648 0.78411 0.9779 0.0
H443 H 0.27429 0.7129 0.83374 0.0
H444 H 0.30978 0.73847 0.83738 0.0
H445 H 0.28503 0.74798 0.82265 0.0
C446 C 0.3802 0.80456 0.88911 0.0
C447 C 0.38066 0.82016 0.85216 0.0
C448 C 0.35567 0.78615 0.90952 0.0
C449 C 0.331 0.78277 0.89339 0.0
C450 C 0.3313 0.79853 0.85687 0.0
H451 H 0.16808 0.65819 0.98322 0.0
H452 H 0.20474 0.69844 0.9463 0.0
C453 C 0.35593 0.81706 0.83636 0.0
C454 C 0.30517 0.76263 0.91518 0.0
H455 H 0.24783 0.7011 0.89923 0.0
C456 C 0.30135 0.76606 0.96061 0.0
C457 C 0.28537 0.73919 0.89249 0.0
C458 C 0.28875 0.73415 0.84395 0.0
C459 C 0.27856 0.74643 0.98425 0.0
C460 C 0.25933 0.72244 0.96207 0.0
C461 C 0.26261 0.71948 0.9162 0.0
C462 C 0.23683 0.69932 0.98649 0.0
C463 C 0.27537 0.75152 0.03283 0.0
C464 C 0.24268 0.68645 1.02132 0.0
C465 C 0.22184 0.66354 0.04249 0.0
C466 C 0.19464 0.65281 0.02905 0.0
C467 C 0.18876 0.66597 0.99454 0.0
C468 C 0.20969 0.68894 0.97332 0.0
H469 H 0.28626 0.77362 0.04052 0.0
H470 H 0.25363 0.74276 0.042 0.0
H471 H 0.28422 0.74187 0.05407 0.0
H472 H 0.26349 0.69368 0.03139 0.0
H473 H 0.22716 0.65388 0.06875 0.0
H474 H 0.62427 0.38346 1.01429 0.0
H475 H 0.61224 0.34085 0.05215 0.0
H476 H 0.52719 0.31336 0.03291 0.0
H477 H 0.53906 0.35631 0.99499 0.0
H478 H 0.54079 0.30452 0.12105 0.0
H479 H 0.58295 0.2665 0.99089 0.0
H480 H 0.60665 0.30034 1.0093 0.0
H481 H 0.57614 0.29389 0.98073 0.0
C482 C 0.60297 0.3684 1.01791 0.0
C483 C 0.58262 0.37327 1.00131 0.0
C484 C 0.59614 0.34396 0.03944 0.0
C485 C 0.56885 0.32377 0.04473 0.0
C486 C 0.54839 0.32864 0.0289 0.0
H487 H 0.53374 0.16214 0.13065 0.0
H488 H 0.5308 0.19848 0.0917 0.0
C489 C 0.55522 0.35315 1.00717 0.0
C490 C 0.56198 0.29779 0.06727 0.0
H491 H 0.57404 0.24469 0.0623 0.0
C492 C 0.54774 0.29122 0.108 0.0
C493 C 0.57069 0.28025 0.04986 0.0
C494 C 0.58472 0.28541 1.00507 0.0
C495 C 0.54308 0.2682 0.13279 0.0
C496 C 0.55327 0.25158 0.11665 0.0
C497 C 0.56642 0.25753 0.07493 0.0
C498 C 0.55176 0.22866 0.14311 0.0
C499 C 0.52736 0.26196 0.17604 0.0
C500 C 0.56414 0.23337 0.18535 0.0
C501 C 0.56576 0.2126 0.20782 0.0
C502 C 0.55529 0.18673 0.18826 0.0
C503 C 0.54204 0.1818 0.14669 0.0
C504 C 0.54036 0.20257 0.12432 0.0
H505 H 0.51382 0.27084 0.17639 0.0
H506 H 0.51487 0.23969 0.18171 0.0
H507 H 0.54184 0.27098 0.20427 0.0
H508 H 0.57363 0.25346 0.20013 0.0
H509 H 0.57622 0.21716 0.23967 0.0
loop_
_geom_bond_atom_site_label_1
_geom_bond_atom_site_label_2
_geom_bond_distance
_geom_bond_site_symmetry_2
_ccdc_geom_bond_type
Mg0 O7 2.141 . S
Mg0 O8 2.048 . S
Mg0 O9 2.048 . S
Mg0 O12 2.141 . S
C1 O2 1.313 . S
C1 O8 1.195 . S
O2 C1 1.313 . S
C3 O4 1.245 . S
C3 O12 1.289 . S
O4 C3 1.245 . S
C5 O6 1.245 . S
C5 O7 1.289 . S
O6 C5 1.245 . S
O7 Mg0 2.141 . S
O7 C5 1.289 . S
O8 Mg0 2.048 . S
O8 C1 1.195 . S
O9 Mg0 2.048 . S
O9 C10 1.195 . S
C10 O9 1.195 . S
C10 O11 1.313 . S
O11 C10 1.313 . S
O12 Mg0 2.141 . S
O12 C3 1.289 . S
Mg13 O20 2.141 . S
Mg13 O21 2.048 . S
Mg13 O22 2.048 . S
Mg13 O25 2.141 . S
C14 O15 1.313 . S
C14 O21 1.195 . S
O15 C14 1.313 . S
C16 O17 1.245 . S
C16 O25 1.289 . S
O17 C16 1.245 . S
C18 O19 1.245 . S
C18 O20 1.289 . S
O19 C18 1.245 . S
O20 Mg13 2.141 . S
O20 C18 1.289 . S
O21 Mg13 2.048 . S
O21 C14 1.195 . S
O22 Mg13 2.048 . S
O22 C23 1.195 . S
C23 O22 1.195 . S
C23 O24 1.313 . S
O24 C23 1.313 . S
O25 Mg13 2.141 . S
O25 C16 1.289 . S
Mg26 O33 2.141 . S
Mg26 O34 2.048 . S
Mg26 O35 2.048 . S
Mg26 O38 2.141 . S
C27 O28 1.313 . S
C27 O34 1.195 . S
O28 C27 1.313 . S
C29 O30 1.245 . S
C29 O38 1.289 . S
O30 C29 1.245 . S
C31 O32 1.245 . S
C31 O33 1.289 . S
O32 C31 1.245 . S
O33 Mg26 2.141 . S
O33 C31 1.289 . S
O34 Mg26 2.048 . S
O34 C27 1.195 . S
O35 Mg26 2.048 . S
O35 C36 1.195 . S
C36 O35 1.195 . S
C36 O37 1.313 . S
O37 C36 1.313 . S
O38 Mg26 2.141 . S
O38 C29 1.289 . S
Mg39 O46 2.141 . S
Mg39 O47 2.048 . S
Mg39 O48 2.048 . S
Mg39 O51 2.141 . S
C40 O41 1.313 . S
C40 O47 1.195 . S
O41 C40 1.313 . S
C42 O43 1.245 . S
C42 O51 1.289 . S
O43 C42 1.245 . S
C44 O45 1.245 . S
C44 O46 1.289 . S
O45 C44 1.245 . S
O46 Mg39 2.141 . S
O46 C44 1.289 . S
O47 Mg39 2.048 . S
O47 C40 1.195 . S
O48 Mg39 2.048 . S
O48 C49 1.195 . S
C49 O48 1.195 . S
C49 O50 1.313 . S
O50 C49 1.313 . S
O51 Mg39 2.141 . S
O51 C42 1.289 . S
Mg52 O59 2.141 . S
Mg52 O60 2.048 . S
Mg52 O61 2.048 . S
Mg52 O64 2.141 . S
C53 O54 1.313 . S
C53 O60 1.195 . S
O54 C53 1.313 . S
C55 O56 1.245 . S
C55 O64 1.289 . S
O56 C55 1.245 . S
C57 O58 1.245 . S
C57 O59 1.289 . S
O58 C57 1.245 . S
O59 Mg52 2.141 . S
O59 C57 1.289 . S
O60 Mg52 2.048 . S
O60 C53 1.195 . S
O61 Mg52 2.048 . S
O61 C62 1.195 . S
C62 O61 1.195 . S
C62 O63 1.313 . S
O63 C62 1.313 . S
O64 Mg52 2.141 . S
O64 C55 1.289 . S
Mg65 O72 2.141 . S
Mg65 O73 2.048 . S
Mg65 O74 2.048 . S
Mg65 O77 2.141 . S
C66 O67 1.313 . S
C66 O73 1.195 . S
O67 C66 1.313 . S
C68 O69 1.245 . S
C68 O77 1.289 . S
O69 C68 1.245 . S
C70 O71 1.245 . S
C70 O72 1.289 . S
O71 C70 1.245 . S
O72 Mg65 2.141 . S
O72 C70 1.289 . S
O73 Mg65 2.048 . S
O73 C66 1.195 . S
O74 Mg65 2.048 . S
O74 C75 1.195 . S
C75 O74 1.195 . S
C75 O76 1.313 . S
O76 C75 1.313 . S
O77 Mg65 2.141 . S
O77 C68 1.289 . S
H78 C86 0.929 . S
H79 C88 0.930 . S
H80 C90 0.930 . S
H81 C93 0.929 1_554 S
H82 C96 0.930 . S
H83 C98 0.960 . S
H84 C98 0.960 1_455 S
H85 C98 0.960 . S
C86 H78 0.929 . S
C86 C87 1.377 . S
C86 C88 1.384 . S
C87 C86 1.377 . S
C87 C93 1.390 . S
C88 H79 0.930 . S
C88 C86 1.384 . S
C88 C89 1.372 . S
C89 C88 1.372 . S
C89 C90 1.400 . S
C89 C94 1.490 . S
C90 H80 0.930 . S
C90 C89 1.400 . S
C90 C93 1.386 . S
H91 C107 0.930 . S
H92 C108 0.931 . S
C93 H81 0.929 1_556 S
C93 C87 1.390 . S
C93 C90 1.386 . S
C94 C89 1.490 . S
C94 C96 1.395 . S
C94 C97 1.403 1_455 S
H95 C101 0.930 . S
C96 H82 0.930 . S
C96 C94 1.395 . S
C96 C99 1.403 . S
C97 C94 1.403 1_655 S
C97 C98 1.524 . S
C97 C101 1.400 . S
C98 H83 0.960 . S
C98 H84 0.960 1_655 S
C98 H85 0.960 . S
C98 C97 1.524 . S
C99 C96 1.403 . S
C99 C100 1.392 1_455 S
C99 C103 1.495 . S
C100 C99 1.392 1_655 S
C100 C101 1.385 . S
C100 C102 1.478 . S
C101 H95 0.930 . S
C101 C97 1.400 . S
C101 C100 1.385 . S
C102 C100 1.478 . S
C102 C104 1.381 . S
C102 C108 1.383 . S
C103 C99 1.495 . S
C103 H109 0.959 . S
C103 H110 0.961 . S
C103 H111 0.960 . S
C104 C102 1.381 . S
C104 C105 1.394 . S
C104 H112 0.930 . S
C105 C104 1.394 . S
C105 C106 1.383 . S
C105 H113 0.929 . S
C106 C105 1.383 . S
C106 C107 1.377 . S
C107 H91 0.930 . S
C107 C106 1.377 . S
C107 C108 1.379 . S
C108 H92 0.931 . S
C108 C102 1.383 . S
C108 C107 1.379 . S
H109 C103 0.959 . S
H110 C103 0.961 . S
H111 C103 0.960 . S
H112 C104 0.930 . S
H113 C105 0.929 . S
H114 C122 0.929 . S
H115 C124 0.930 . S
H116 C126 0.930 . S
H117 C129 0.929 . S
H118 C132 0.929 1_556 S
H119 C134 0.960 . S
H120 C134 0.960 1_565 S
H121 C134 0.960 . S
C122 H114 0.929 . S
C122 C123 1.377 . S
C122 C124 1.384 . S
C123 C122 1.377 . S
C123 C129 1.390 . S
C124 H115 0.930 . S
C124 C122 1.384 . S
C124 C125 1.372 . S
C125 C124 1.372 . S
C125 C126 1.400 . S
C125 C130 1.490 . S
C126 H116 0.930 . S
C126 C125 1.400 . S
C126 C129 1.386 . S
H127 C143 0.930 . S
H128 C144 0.931 . S
C129 H117 0.929 . S
C129 C123 1.390 . S
C129 C126 1.386 . S
C130 C125 1.490 . S
C130 C132 1.385 1_556 S
C130 C133 1.403 1_565 S
H131 C137 0.930 . S
C132 H118 0.929 1_554 S
C132 C130 1.385 1_554 S
C132 C135 1.414 . S
C133 C130 1.403 1_545 S
C133 C134 1.524 . S
C133 C137 1.400 1_556 S
C134 H119 0.960 . S
C134 H120 0.960 1_545 S
C134 H121 0.960 . S
C134 C133 1.524 . S
C135 C132 1.414 . S
C135 C136 1.392 1_565 S
C135 C139 1.495 . S
C136 C135 1.392 1_545 S
C136 C137 1.385 . S
C136 C138 1.478 . S
C137 H131 0.930 . S
C137 C133 1.400 1_554 S
C137 C136 1.385 . S
C138 C136 1.478 . S
C138 C140 1.381 . S
C138 C144 1.383 . S
C139 C135 1.495 . S
C139 H145 0.959 . S
C139 H146 0.950 1_565 S
C139 H147 0.960 . S
C140 C138 1.381 . S
C140 C141 1.394 . S
C140 H148 0.930 . S
C141 C140 1.394 . S
C141 C142 1.383 . S
C141 H149 0.929 . S
C142 C141 1.383 . S
C142 C143 1.377 . S
C143 H127 0.930 . S
C143 C142 1.377 . S
C143 C144 1.379 . S
C144 H128 0.931 . S
C144 C138 1.383 . S
C144 C143 1.379 . S
H145 C139 0.959 . S
H146 C139 0.950 1_545 S
H147 C139 0.960 . S
H148 C140 0.930 . S
H149 C141 0.929 . S
H150 C158 0.929 . S
H151 C160 0.930 . S
H152 C162 0.930 . S
H153 C165 0.929 . S
H154 C168 0.930 . S
H155 C170 0.960 . S
H156 C170 0.960 . S
H157 C170 0.960 . S
C158 H150 0.929 . S
C158 C159 1.377 . S
C158 C160 1.384 . S
C159 C158 1.377 . S
C159 C165 1.390 . S
C160 H151 0.930 . S
C160 C158 1.384 . S
C160 C161 1.372 . S
C161 C160 1.372 . S
C161 C162 1.400 . S
C161 C166 1.490 . S
C162 H152 0.930 . S
C162 C161 1.400 . S
C162 C165 1.386 . S
H163 C179 0.930 . S
H164 C180 0.931 . S
C165 H153 0.929 . S
C165 C159 1.390 . S
C165 C162 1.386 . S
C166 C161 1.490 . S
C166 C168 1.395 . S
C166 C169 1.403 . S
H167 C173 0.930 . S
C168 H154 0.930 . S
C168 C166 1.395 . S
C168 C171 1.403 . S
C169 C166 1.403 . S
C169 C170 1.524 . S
C169 C173 1.400 . S
C170 H155 0.960 . S
C170 H156 0.960 . S
C170 H157 0.960 . S
C170 C169 1.524 . S
C171 C168 1.403 . S
C171 C172 1.392 . S
C171 C175 1.495 . S
C172 C171 1.392 . S
C172 C173 1.385 . S
C172 C174 1.478 . S
C173 H167 0.930 . S
C173 C169 1.400 . S
C173 C172 1.385 . S
C174 C172 1.478 . S
C174 C176 1.381 . S
C174 C180 1.383 . S
C175 C171 1.495 . S
C175 H181 0.959 . S
C175 H182 0.961 . S
C175 H183 0.960 . S
C176 C174 1.381 . S
C176 C177 1.394 . S
C176 H184 0.930 . S
C177 C176 1.394 . S
C177 C178 1.383 . S
C177 H185 0.929 1_554 S
C178 C177 1.383 . S
C178 C179 1.377 . S
C179 H163 0.930 . S
C179 C178 1.377 . S
C179 C180 1.379 . S
C180 H164 0.931 . S
C180 C174 1.383 . S
C180 C179 1.379 . S
H181 C175 0.959 . S
H182 C175 0.961 . S
H183 C175 0.960 . S
H184 C176 0.930 . S
H185 C177 0.929 1_556 S
H186 C194 0.929 . S
H187 C196 0.930 . S
H188 C198 0.930 . S
H189 C201 0.929 . S
H190 C204 0.930 . S
H191 C206 0.960 . S
H192 C206 0.960 . S
H193 C206 0.960 . S
C194 H186 0.929 . S
C194 C195 1.377 . S
C194 C196 1.384 . S
C195 C194 1.377 . S
C195 C201 1.390 . S
C196 H187 0.930 . S
C196 C194 1.384 . S
C196 C197 1.372 . S
C197 C196 1.372 . S
C197 C198 1.400 . S
C197 C202 1.490 . S
C198 H188 0.930 . S
C198 C197 1.400 . S
C198 C201 1.386 . S
H199 C215 0.930 . S
H200 C216 0.931 . S
C201 H189 0.929 . S
C201 C195 1.390 . S
C201 C198 1.386 . S
C202 C197 1.490 . S
C202 C204 1.395 . S
C202 C205 1.403 1_655 S
H203 C209 0.930 . S
C204 H190 0.930 . S
C204 C202 1.395 . S
C204 C207 1.403 . S
C205 C202 1.403 1_455 S
C205 C206 1.524 . S
C205 C209 1.400 . S
C206 H191 0.960 . S
C206 H192 0.960 . S
C206 H193 0.960 . S
C206 C205 1.524 . S
C207 C204 1.403 . S
C207 C208 1.392 1_655 S
C207 C211 1.495 . S
C208 C207 1.392 1_455 S
C208 C209 1.385 . S
C208 C210 1.478 . S
C209 H203 0.930 . S
C209 C205 1.400 . S
C209 C208 1.385 . S
C210 C208 1.478 . S
C210 C212 1.381 . S
C210 C216 1.383 . S
C211 C207 1.495 . S
C211 H217 0.959 . S
C211 H218 0.961 . S
C211 H219 0.960 . S
C212 C210 1.381 . S
C212 C213 1.394 . S
C212 H220 0.930 . S
C213 C212 1.394 . S
C213 C214 1.383 . S
C213 H221 0.929 . S
C214 C213 1.383 . S
C214 C215 1.377 . S
C215 H199 0.930 . S
C215 C214 1.377 . S
C215 C216 1.379 . S
C216 H200 0.931 . S
C216 C210 1.383 . S
C216 C215 1.379 . S
H217 C211 0.959 . S
H218 C211 0.961 . S
H219 C211 0.960 . S
H220 C212 0.930 . S
H221 C213 0.929 . S
H222 C230 0.929 . S
H223 C232 0.930 . S
H224 C234 0.930 . S
H225 C237 0.929 . S
H226 C240 0.930 . S
H227 C242 0.953 1_565 S
H228 C242 0.944 1_565 S
H229 C242 1.005 . S
C230 H222 0.929 . S
C230 C231 1.377 . S
C230 C232 1.384 . S
C231 C230 1.377 . S
C231 C237 1.390 . S
C232 H223 0.930 . S
C232 C230 1.384 . S
C232 C233 1.372 . S
C233 C232 1.372 . S
C233 C234 1.400 . S
C233 C238 1.490 . S
C234 H224 0.930 . S
C234 C233 1.400 . S
C234 C237 1.386 . S
H235 C251 0.930 . S
H236 C252 0.931 . S
C237 H225 0.929 . S
C237 C231 1.390 . S
C237 C234 1.386 . S
C238 C233 1.490 . S
C238 C240 1.395 . S
C238 C241 1.403 . S
H239 C245 0.930 . S
C240 H226 0.930 . S
C240 C238 1.395 . S
C240 C243 1.403 1_545 S
C241 C238 1.403 . S
C241 C242 1.507 . S
C241 C245 1.396 1_545 S
C242 H227 0.953 1_545 S
C242 H228 0.944 1_545 S
C242 H229 1.005 . S
C242 C241 1.507 . S
C243 C240 1.403 1_565 S
C243 C244 1.392 . S
C243 C247 1.495 . S
C244 C243 1.392 . S
C244 C245 1.385 . S
C244 C246 1.478 . S
C245 H239 0.930 . S
C245 C241 1.396 1_565 S
C245 C244 1.385 . S
C246 C244 1.478 . S
C246 C248 1.381 . S
C246 C252 1.383 . S
C247 C243 1.495 . S
C247 H253 0.959 1_565 S
C247 H254 0.969 . S
C247 H255 0.960 . S
C248 C246 1.381 . S
C248 C249 1.394 . S
C248 H256 0.930 . S
C249 C248 1.394 . S
C249 C250 1.383 . S
C249 H257 0.929 . S
C250 C249 1.383 . S
C250 C251 1.377 . S
C251 H235 0.930 . S
C251 C250 1.377 . S
C251 C252 1.379 . S
C252 H236 0.931 . S
C252 C246 1.383 . S
C252 C251 1.379 . S
H253 C247 0.959 1_545 S
H254 C247 0.969 . S
H255 C247 0.960 . S
H256 C248 0.930 . S
H257 C249 0.929 . S
H258 C266 0.929 . S
H259 C268 0.930 . S
H260 C270 0.930 . S
H261 C273 0.929 . S
H262 C276 0.930 . S
H263 C278 0.960 . S
H264 C278 0.960 . S
H265 C278 0.960 . S
C266 H258 0.929 . S
C266 C267 1.377 . S
C266 C268 1.384 . S
C267 C266 1.377 . S
C267 C273 1.390 . S
C268 H259 0.930 . S
C268 C266 1.384 . S
C268 C269 1.372 . S
C269 C268 1.372 . S
C269 C270 1.400 . S
C269 C274 1.490 . S
C270 H260 0.930 . S
C270 C269 1.400 . S
C270 C273 1.386 . S
H271 C287 0.930 . S
H272 C288 0.931 . S
C273 H261 0.929 . S
C273 C267 1.390 . S
C273 C270 1.386 . S
C274 C269 1.490 . S
C274 C276 1.395 . S
C274 C277 1.403 . S
H275 C281 0.930 . S
C276 H262 0.930 . S
C276 C274 1.395 . S
C276 C279 1.403 . S
C277 C274 1.403 . S
C277 C278 1.524 . S
C277 C281 1.400 . S
C278 H263 0.960 . S
C278 H264 0.960 . S
C278 H265 0.960 . S
C278 C277 1.524 . S
C279 C276 1.403 . S
C279 C280 1.392 . S
C279 C283 1.495 . S
C280 C279 1.392 . S
C280 C281 1.385 . S
C280 C282 1.478 . S
C281 H275 0.930 . S
C281 C277 1.400 . S
C281 C280 1.385 . S
C282 C280 1.478 . S
C282 C284 1.381 . S
C282 C288 1.383 . S
C283 C279 1.495 . S
C283 H289 0.959 . S
C283 H290 0.961 . S
C283 H291 0.960 . S
C284 C282 1.381 . S
C284 C285 1.394 . S
C284 H292 0.930 . S
C285 C284 1.394 . S
C285 C286 1.383 . S
C285 H293 0.929 . S
C286 C285 1.383 . S
C286 C287 1.377 . S
C287 H271 0.930 . S
C287 C286 1.377 . S
C287 C288 1.379 . S
C288 H272 0.931 . S
C288 C282 1.383 . S
C288 C287 1.379 . S
H289 C283 0.959 . S
H290 C283 0.961 . S
H291 C283 0.960 . S
H292 C284 0.930 . S
H293 C285 0.929 . S
H294 C302 0.929 . S
H295 C304 0.930 . S
H296 C306 0.930 . S
H297 C309 0.929 . S
H298 C312 0.930 . S
H299 C314 0.960 . S
H300 C314 0.960 . S
H301 C314 0.960 . S
C302 H294 0.929 . S
C302 C303 1.377 . S
C302 C304 1.384 . S
C303 C302 1.377 . S
C303 C309 1.390 . S
C304 H295 0.930 . S
C304 C302 1.384 . S
C304 C305 1.372 . S
C305 C304 1.372 . S
C305 C306 1.400 . S
C305 C310 1.490 . S
C306 H296 0.930 . S
C306 C305 1.400 . S
C306 C309 1.386 . S
H307 C323 0.930 . S
H308 C324 0.931 . S
C309 H297 0.929 . S
C309 C303 1.390 . S
C309 C306 1.386 . S
C310 C305 1.490 . S
C310 C312 1.395 . S
C310 C313 1.403 . S
H311 C317 0.930 . S
C312 H298 0.930 . S
C312 C310 1.395 . S
C312 C315 1.403 . S
C313 C310 1.403 . S
C313 C314 1.524 . S
C313 C317 1.400 . S
C314 H299 0.960 . S
C314 H300 0.960 . S
C314 H301 0.960 . S
C314 C313 1.524 . S
C315 C312 1.403 . S
C315 C316 1.392 . S
C315 C319 1.495 . S
C316 C315 1.392 . S
C316 C317 1.385 . S
C316 C318 1.478 . S
C317 H311 0.930 . S
C317 C313 1.400 . S
C317 C316 1.385 . S
C318 C316 1.478 . S
C318 C320 1.381 . S
C318 C324 1.383 . S
C319 C315 1.495 . S
C319 H325 0.959 . S
C319 H326 0.961 . S
C319 H327 0.960 . S
C320 C318 1.381 . S
C320 C321 1.394 . S
C320 H328 0.930 . S
C321 C320 1.394 . S
C321 C322 1.383 . S
C321 H329 0.929 . S
C322 C321 1.383 . S
C322 C323 1.377 . S
C323 H307 0.930 . S
C323 C322 1.377 . S
C323 C324 1.379 . S
C324 H308 0.931 . S
C324 C318 1.383 . S
C324 C323 1.379 . S
H325 C319 0.959 . S
H326 C319 0.961 . S
H327 C319 0.960 . S
H328 C320 0.930 . S
H329 C321 0.929 . S
H330 C338 0.929 . S
H331 C340 0.930 . S
H332 C342 0.930 . S
H333 C345 0.929 . S
H334 C348 0.930 . S
H335 C350 0.960 . S
H336 C350 0.960 . S
H337 C350 0.960 . S
C338 H330 0.929 . S
C338 C339 1.377 . S
C338 C340 1.384 . S
C339 C338 1.377 . S
C339 C345 1.390 . S
C340 H331 0.930 . S
C340 C338 1.384 . S
C340 C341 1.372 . S
C341 C340 1.372 . S
C341 C342 1.400 . S
C341 C346 1.490 . S
C342 H332 0.930 . S
C342 C341 1.400 . S
C342 C345 1.386 . S
H343 C359 0.930 . S
H344 C360 0.931 . S
C345 H333 0.929 . S
C345 C339 1.390 . S
C345 C342 1.386 . S
C346 C341 1.490 . S
C346 C348 1.395 . S
C346 C349 1.403 . S
H347 C353 0.930 . S
C348 H334 0.930 . S
C348 C346 1.395 . S
C348 C351 1.403 . S
C349 C346 1.403 . S
C349 C350 1.524 . S
C349 C353 1.400 . S
C350 H335 0.960 . S
C350 H336 0.960 . S
C350 H337 0.960 . S
C350 C349 1.524 . S
C351 C348 1.403 . S
C351 C352 1.392 . S
C351 C355 1.495 . S
C352 C351 1.392 . S
C352 C353 1.385 . S
C352 C354 1.478 . S
C353 H347 0.930 . S
C353 C349 1.400 . S
C353 C352 1.385 . S
C354 C352 1.478 . S
C354 C356 1.381 . S
C354 C360 1.383 . S
C355 C351 1.495 . S
C355 H361 0.959 . S
C355 H362 0.961 . S
C355 H363 0.960 . S
C356 C354 1.381 . S
C356 C357 1.394 . S
C356 H364 0.930 . S
C357 C356 1.394 . S
C357 C358 1.383 . S
C357 H365 0.929 . S
C358 C357 1.383 . S
C358 C359 1.377 . S
C359 H343 0.930 . S
C359 C358 1.377 . S
C359 C360 1.379 . S
C360 H344 0.931 . S
C360 C354 1.383 . S
C360 C359 1.379 . S
H361 C355 0.959 . S
H362 C355 0.961 . S
H363 C355 0.960 . S
H364 C356 0.930 . S
H365 C357 0.929 . S
H366 C374 0.929 . S
H367 C376 0.930 . S
H368 C378 0.930 . S
H369 C381 0.929 . S
H370 C384 0.930 . S
H371 C386 0.960 . S
H372 C386 0.960 . S
H373 C386 0.960 . S
C374 H366 0.929 . S
C374 C375 1.377 . S
C374 C376 1.384 . S
C375 C374 1.377 . S
C375 C381 1.390 . S
C376 H367 0.930 . S
C376 C374 1.384 . S
C376 C377 1.372 . S
C377 C376 1.372 . S
C377 C378 1.400 . S
C377 C382 1.490 . S
C378 H368 0.930 . S
C378 C377 1.400 . S
C378 C381 1.386 . S
H379 C395 0.930 . S
H380 C396 0.931 . S
C381 H369 0.929 . S
C381 C375 1.390 . S
C381 C378 1.386 . S
C382 C377 1.490 . S
C382 C384 1.395 . S
C382 C385 1.403 . S
H383 C389 0.930 . S
C384 H370 0.930 . S
C384 C382 1.395 . S
C384 C387 1.403 . S
C385 C382 1.403 . S
C385 C386 1.524 . S
C385 C389 1.400 . S
C386 H371 0.960 . S
C386 H372 0.960 . S
C386 H373 0.960 . S
C386 C385 1.524 . S
C387 C384 1.403 . S
C387 C388 1.392 . S
C387 C391 1.495 . S
C388 C387 1.392 . S
C388 C389 1.385 . S
C388 C390 1.478 . S
C389 H383 0.930 . S
C389 C385 1.400 . S
C389 C388 1.385 . S
C390 C388 1.478 . S
C390 C392 1.381 . S
C390 C396 1.383 . S
C391 C387 1.495 . S
C391 H397 0.959 . S
C391 H398 0.961 . S
C391 H399 0.960 . S
C392 C390 1.381 . S
C392 C393 1.394 . S
C392 H400 0.930 . S
C393 C392 1.394 . S
C393 C394 1.383 . S
C393 H401 0.929 . S
C394 C393 1.383 . S
C394 C395 1.377 . S
C395 H379 0.930 . S
C395 C394 1.377 . S
C395 C396 1.379 . S
C396 H380 0.931 . S
C396 C390 1.383 . S
C396 C395 1.379 . S
H397 C391 0.959 . S
H398 C391 0.961 . S
H399 C391 0.960 . S
H400 C392 0.930 . S
H401 C393 0.929 . S
H402 C410 0.929 . S
H403 C412 0.930 . S
H404 C414 0.930 . S
H405 C417 0.929 . S
H406 C420 0.930 . S
H407 C422 0.960 . S
H408 C422 0.960 . S
H409 C422 0.960 . S
C410 H402 0.929 . S
C410 C411 1.377 . S
C410 C412 1.384 . S
C411 C410 1.377 . S
C411 C417 1.390 . S
C412 H403 0.930 . S
C412 C410 1.384 . S
C412 C413 1.372 . S
C413 C412 1.372 . S
C413 C414 1.400 . S
C413 C418 1.490 . S
C414 H404 0.930 . S
C414 C413 1.400 . S
C414 C417 1.386 . S
H415 C431 0.930 . S
H416 C432 0.931 . S
C417 H405 0.929 . S
C417 C411 1.390 . S
C417 C414 1.386 . S
C418 C413 1.490 . S
C418 C420 1.395 . S
C418 C421 1.403 . S
H419 C425 0.930 . S
C420 H406 0.930 . S
C420 C418 1.395 . S
C420 C423 1.403 . S
C421 C418 1.403 . S
C421 C422 1.524 . S
C421 C425 1.400 . S
C422 H407 0.960 . S
C422 H408 0.960 . S
C422 H409 0.960 . S
C422 C421 1.524 . S
C423 C420 1.403 . S
C423 C424 1.392 . S
C423 C427 1.495 . S
C424 C423 1.392 . S
C424 C425 1.385 . S
C424 C426 1.478 . S
C425 H419 0.930 . S
C425 C421 1.400 . S
C425 C424 1.385 . S
C426 C424 1.478 . S
C426 C428 1.381 . S
C426 C432 1.383 . S
C427 C423 1.495 . S
C427 H433 0.959 . S
C427 H434 0.961 . S
C427 H435 0.960 . S
C428 C426 1.381 . S
C428 C429 1.394 . S
C428 H436 0.930 . S
C429 C428 1.394 . S
C429 C430 1.383 . S
C429 H437 0.929 . S
C430 C429 1.383 . S
C430 C431 1.377 . S
C431 H415 0.930 . S
C431 C430 1.377 . S
C431 C432 1.379 . S
C432 H416 0.931 . S
C432 C426 1.383 . S
C432 C431 1.379 . S
H433 C427 0.959 . S
H434 C427 0.961 . S
H435 C427 0.960 . S
H436 C428 0.930 . S
H437 C429 0.929 . S
H438 C446 0.929 . S
H439 C448 0.930 . S
H440 C450 0.930 . S
H441 C453 0.929 . S
H442 C456 0.930 . S
H443 C458 0.960 . S
H444 C458 0.960 . S
H445 C458 0.960 . S
C446 H438 0.929 . S
C446 C447 1.377 . S
C446 C448 1.384 . S
C447 C446 1.377 . S
C447 C453 1.390 . S
C448 H439 0.930 . S
C448 C446 1.384 . S
C448 C449 1.372 . S
C449 C448 1.372 . S
C449 C450 1.400 . S
C449 C454 1.490 . S
C450 H440 0.930 . S
C450 C449 1.400 . S
C450 C453 1.386 . S
H451 C467 0.930 . S
H452 C468 0.931 . S
C453 H441 0.929 . S
C453 C447 1.390 . S
C453 C450 1.386 . S
C454 C449 1.490 . S
C454 C456 1.395 . S
C454 C457 1.403 . S
H455 C461 0.930 . S
C456 H442 0.930 . S
C456 C454 1.395 . S
C456 C459 1.403 . S
C457 C454 1.403 . S
C457 C458 1.524 . S
C457 C461 1.400 . S
C458 H443 0.960 . S
C458 H444 0.960 . S
C458 H445 0.960 . S
C458 C457 1.524 . S
C459 C456 1.403 . S
C459 C460 1.392 . S
C459 C463 1.495 . S
C460 C459 1.392 . S
C460 C461 1.385 . S
C460 C462 1.478 . S
C461 H455 0.930 . S
C461 C457 1.400 . S
C461 C460 1.385 . S
C462 C460 1.478 . S
C462 C464 1.381 . S
C462 C468 1.383 . S
C463 C459 1.495 . S
C463 H469 0.959 . S
C463 H470 0.961 1_556 S
C463 H471 0.960 . S
C464 C462 1.381 . S
C464 C465 1.394 . S
C464 H472 0.930 . S
C465 C464 1.394 . S
C465 C466 1.383 . S
C465 H473 0.929 . S
C466 C465 1.383 . S
C466 C467 1.377 1_556 S
C467 H451 0.930 . S
C467 C466 1.377 1_554 S
C467 C468 1.379 1_554 S
C468 H452 0.931 . S
C468 C462 1.383 . S
C468 C467 1.379 1_556 S
H469 C463 0.959 . S
H470 C463 0.961 1_554 S
H471 C463 0.960 . S
H472 C464 0.930 . S
H473 C465 0.929 . S
H474 C482 0.929 . S
H475 C484 0.930 . S
H476 C486 0.930 . S
H477 C489 0.929 1_556 S
H478 C492 0.930 . S
H479 C494 0.960 . S
H480 C494 0.960 . S
H481 C494 0.960 . S
C482 H474 0.929 . S
C482 C483 1.377 . S
C482 C484 1.384 . S
C483 C482 1.377 . S
C483 C489 1.390 . S
C484 H475 0.930 . S
C484 C482 1.384 . S
C484 C485 1.372 . S
C485 C484 1.372 . S
C485 C486 1.400 . S
C485 C490 1.490 . S
C486 H476 0.930 . S
C486 C485 1.400 . S
C486 C489 1.386 . S
H487 C503 0.930 . S
H488 C504 0.931 . S
C489 H477 0.929 1_554 S
C489 C483 1.390 . S
C489 C486 1.386 . S
C490 C485 1.490 . S
C490 C492 1.395 . S
C490 C493 1.403 . S
H491 C497 0.930 . S
C492 H478 0.930 . S
C492 C490 1.395 . S
C492 C495 1.403 . S
C493 C490 1.403 . S
C493 C494 1.524 1_554 S
C493 C497 1.400 . S
C494 H479 0.960 . S
C494 H480 0.960 . S
C494 H481 0.960 . S
C494 C493 1.524 1_556 S
C495 C492 1.403 . S
C495 C496 1.392 . S
C495 C499 1.495 . S
C496 C495 1.392 . S
C496 C497 1.385 . S
C496 C498 1.478 . S
C497 H491 0.930 . S
C497 C493 1.400 . S
C497 C496 1.385 . S
C498 C496 1.478 . S
C498 C500 1.381 . S
C498 C504 1.383 . S
C499 C495 1.495 . S
C499 H505 0.959 . S
C499 H506 0.961 . S
C499 H507 0.960 . S
C500 C498 1.381 . S
C500 C501 1.394 . S
C500 H508 0.930 . S
C501 C500 1.394 . S
C501 C502 1.383 . S
C501 H509 0.929 . S
C502 C501 1.383 . S
C502 C503 1.377 . S
C503 H487 0.930 . S
C503 C502 1.377 . S
C503 C504 1.379 . S
C504 H488 0.931 . S
C504 C498 1.383 . S
C504 C503 1.379 . S
H505 C499 0.959 . S
H506 C499 0.961 . S
H507 C499 0.960 . S
H508 C500 0.930 . S
H509 C501 0.929 . S
C87 C10 1.983 1_556 S
C106 C42 1.914 . S
C123 C55 1.926 . S
C142 C23 1.982 . S
C159 C36 1.983 . S
C178 C68 1.912 1_554 S
C195 C49 1.983 . S
C214 C3 1.919 . S
C231 C16 1.925 . S
C250 C62 1.982 . S
C267 C75 1.983 . S
C286 C29 1.915 . S
C303 C5 1.564 . S
C322 C27 1.533 . S
C339 C18 1.564 . S
C358 C40 1.531 . S
C375 C53 1.522 . S
C394 C31 1.564 . S
C411 C66 1.513 . S
C430 C44 1.562 . S
C447 C57 1.564 . S
C466 C1 1.516 1_556 S
C483 C70 1.564 1_554 S
C502 C14 1.500 . S
