# Generated by pormake.
# Topology snp, (6)-cn, num edge types: 1
# Building blocks:
#     Node 0, Type 0, BuildingBlock: KUMBUR_clean_sbu_0, # of connection points: 6
#     Node 1, Type 0, BuildingBlock: KUMBUR_clean_sbu_0, # of connection points: 6
#     Node 2, Type 0, BuildingBlock: KUMBUR_clean_sbu_0, # of connection points: 6
#     Node 3, Type 0, BuildingBlock: KUMBUR_clean_sbu_0, # of connection points: 6
#     Edge 4, Type (0, 0), BuildingBlock: TEMPAE_clean_linker_10, # of connection points: 2
#     Edge 5, Type (0, 0), BuildingBlock: TEMPAE_clean_linker_10, # of connection points: 2
#     Edge 6, Type (0, 0), BuildingBlock: TEMPAE_clean_linker_10, # of connection points: 2
#     Edge 7, Type (0, 0), BuildingBlock: TEMPAE_clean_linker_10, # of connection points: 2
#     Edge 8, Type (0, 0), BuildingBlock: TEMPAE_clean_linker_10, # of connection points: 2
#     Edge 9, Type (0, 0), BuildingBlock: TEMPAE_clean_linker_10, # of connection points: 2
#     Edge 10, Type (0, 0), BuildingBlock: TEMPAE_clean_linker_10, # of connection points: 2
#     Edge 11, Type (0, 0), BuildingBlock: TEMPAE_clean_linker_10, # of connection points: 2
#     Edge 12, Type (0, 0), BuildingBlock: TEMPAE_clean_linker_10, # of connection points: 2
#     Edge 13, Type (0, 0), BuildingBlock: TEMPAE_clean_linker_10, # of connection points: 2
#     Edge 14, Type (0, 0), BuildingBlock: TEMPAE_clean_linker_10, # of connection points: 2
#     Edge 15, Type (0, 0), BuildingBlock: TEMPAE_clean_linker_10, # of connection points: 2
# Relax obj value: 0.231
# Max RMSD: 0.259
# Mean RMSD: 0.234
data_MOF--net-snp--node1-KUMBUR_clean_sbu_0--edge1-TEMPAE_clean_linker_10
_symmetry_space_group_name_H-M    P1
_symmetry_Int_Tables_number       1
_symmetry_cell_setting            triclinic
loop_
_symmetry_equiv_pos_as_xyz
'x, y, z'
_cell_length_a     24.718792
_cell_length_b     26.30882
_cell_length_c     33.371942
_cell_angle_alpha  116.54654
_cell_angle_beta   97.900696
_cell_angle_gamma 94.605782
loop_
_atom_site_label
_atom_site_type_symbol
_atom_site_fract_x
_atom_site_fract_y
_atom_site_fract_z
_atom_type_partial_charge
Tb0 Tb 0.33235 0.1611 0.23374 0.0
C1 C 0.48505 1.00085 0.26307 0.0
C2 C 0.45764 0.90476 0.20016 0.0
C3 C 0.55341 0.93712 0.24023 0.0
C4 C 0.44478 0.95902 0.22884 0.0
C5 C 0.53992 0.99055 0.26929 0.0
C6 C 0.5123 0.89425 0.20573 0.0
C7 C 0.56385 0.08643 0.33241 0.0
N8 N 0.47026 0.05216 0.28997 0.0
C9 C 0.50892 0.09474 0.32484 0.0
C10 C 0.57949 0.03421 0.30447 0.0
Tb11 Tb 0.37866 0.06118 0.27401 0.0
N12 N 0.39259 0.97101 0.22454 0.0
C13 C 0.35047 0.9288 0.19418 0.0
C14 C 0.41498 0.86242 0.1674 0.0
C15 C 0.361 0.87429 0.16485 0.0
H16 H 0.49848 0.13594 0.34641 0.0
H17 H 0.32737 0.84144 0.14039 0.0
H18 H 0.52306 0.85296 0.18389 0.0
H19 H 0.5942 0.12054 0.35972 0.0
H20 H 0.30838 0.93666 0.19248 0.0
H21 H 0.47298 0.3476 0.36774 0.0
H22 H 0.42305 0.82016 0.1447 0.0
H23 H 0.19883 0.14599 0.1935 0.0
H24 H 0.44887 0.25232 0.30184 0.0
H25 H 0.12008 0.19717 0.2172 0.0
H26 H 0.59537 0.9284 0.24435 0.0
H27 H 0.39967 0.40272 0.39994 0.0
H28 H 0.29855 0.40944 0.39557 0.0
H29 H 0.62212 0.02805 0.31037 0.0
H30 H 0.20219 0.3676 0.35566 0.0
N31 N 0.36136 0.25153 0.29491 0.0
C32 C 0.41572 0.27515 0.31434 0.0
C33 C 0.38849 0.36063 0.37041 0.0
C34 C 0.33312 0.33713 0.34994 0.0
C35 C 0.42994 0.32968 0.35227 0.0
C36 C 0.32081 0.28203 0.31169 0.0
H37 H 0.13516 0.28858 0.28884 0.0
N38 N 0.25723 0.20649 0.25208 0.0
C39 C 0.16103 0.21458 0.23821 0.0
C40 C 0.2668 0.25843 0.28969 0.0
C41 C 0.20565 0.18581 0.22487 0.0
C42 C 0.16971 0.26617 0.27867 0.0
C43 C 0.22332 0.28942 0.30447 0.0
O44 O 0.29416 0.15964 0.17249 0.0
O45 O 0.35888 0.07875 0.21566 0.0
O46 O 0.44476 0.08154 0.2436 0.0
O47 O 0.42363 0.1636 0.23807 0.0
O48 O 0.29932 0.08274 0.16996 0.0
O49 O 0.37492 0.20889 0.20794 0.0
O50 O 0.38215 0.0662 0.33918 0.0
O51 O 0.34723 0.14097 0.28955 0.0
O52 O 0.26296 0.12004 0.24971 0.0
O53 O 0.29141 0.03396 0.23975 0.0
O54 O 0.40409 0.14133 0.33886 0.0
O55 O 0.3258 0.99958 0.28121 0.0
C56 C 0.33118 0.04884 0.17522 0.0
C57 C 0.31923 0.24292 0.16413 0.0
C58 C 0.30663 0.28677 0.11271 0.0
C59 C 0.31822 0.2397 0.12047 0.0
C60 C 0.29484 0.33604 0.14876 0.0
C61 C 0.30729 0.2928 0.19925 0.0
C62 C 0.29486 0.33879 0.19149 0.0
C63 C 0.45766 0.12601 0.23604 0.0
C64 C 0.33461 0.1953 0.17339 0.0
C65 C 0.23505 0.34337 0.34345 0.0
C66 C 0.2899 0.36722 0.36612 0.0
C67 C 0.37217 0.17253 0.33007 0.0
C68 C 0.35759 0.97941 0.34259 0.0
C69 C 0.32337 0.96724 0.36911 0.0
C70 C 0.33812 0.93131 0.38892 0.0
C71 C 0.38673 0.90722 0.38108 0.0
C72 C 0.40553 0.95421 0.33529 0.0
C73 C 0.4198 0.91827 0.35425 0.0
C74 C 0.25184 0.06447 0.23793 0.0
C75 C 0.34496 0.02068 0.32481 0.0
H76 H 0.3279 0.20159 0.09317 0.0
H77 H 0.28556 0.37264 0.1438 0.0
H78 H 0.30828 0.2966 0.2329 0.0
H79 H 0.2858 0.37709 0.21893 0.0
H80 H 0.28639 0.98676 0.37528 0.0
H81 H 0.39899 0.87938 0.39557 0.0
H82 H 0.43242 0.96295 0.31545 0.0
H83 H 0.45705 0.89926 0.34848 0.0
Tb84 Tb 0.07721 0.27198 0.58658 0.0
C85 C 0.20473 0.51046 0.68687 0.0
C86 C 0.27996 0.5058 0.64676 0.0
C87 C 0.23808 0.5926 0.67673 0.0
C88 C 0.24199 0.47958 0.66255 0.0
C89 C 0.20411 0.56819 0.69616 0.0
C90 C 0.27596 0.56134 0.65195 0.0
C91 C 0.144 0.57603 0.74922 0.0
N92 N 0.17324 0.48567 0.70559 0.0
C93 C 0.14619 0.51858 0.73898 0.0
C94 C 0.17177 0.60047 0.7267 0.0
Tb95 Tb 0.1742 0.38947 0.68142 0.0
N96 N 0.2457 0.42691 0.6598 0.0
C97 C 0.29197 0.40269 0.64832 0.0
C98 C 0.32311 0.47716 0.62923 0.0
C99 C 0.33018 0.42634 0.63147 0.0
H100 H 0.1244 0.49999 0.75641 0.0
H101 H 0.36527 0.4055 0.62049 0.0
H102 H 0.30405 0.58171 0.63923 0.0
H103 H 0.12074 0.60131 0.77433 0.0
H104 H 0.29998 0.36465 0.65113 0.0
H105 H 0.91184 0.2231 0.66021 0.0
H106 H 0.35311 0.49567 0.61665 0.0
H107 H 0.14288 0.18636 0.50908 0.0
H108 H 0.97122 0.28368 0.63906 0.0
H109 H 0.15015 0.08323 0.47045 0.0
H110 H 0.2374 0.63652 0.68264 0.0
H111 H 0.92325 0.12139 0.63562 0.0
H112 H 0.9695 0.03774 0.58944 0.0
H113 H 0.1701 0.64497 0.73475 0.0
H114 H 0.03404 0.99949 0.53668 0.0
N115 N 0.01869 0.21846 0.6061 0.0
C116 C 0.97721 0.23966 0.62884 0.0
C117 C 0.94981 0.14803 0.62676 0.0
C118 C 0.98884 0.1251 0.5997 0.0
C119 C 0.94319 0.20535 0.64061 0.0
C120 C 0.02252 0.16186 0.58951 0.0
H121 H 0.09798 0.01521 0.48916 0.0
N122 N 0.08741 0.17717 0.54983 0.0
C123 C 0.12408 0.09871 0.49561 0.0
C124 C 0.05764 0.14017 0.5596 0.0
C125 C 0.11962 0.15717 0.51748 0.0
C126 C 0.09489 0.06048 0.50653 0.0
C127 C 0.06103 0.08102 0.53887 0.0
O128 O 0.05272 0.24966 0.51708 0.0
O129 O 0.14874 0.33783 0.60853 0.0
O130 O 0.10872 0.42585 0.65683 0.0
O131 O 0.03684 0.34761 0.61634 0.0
O132 O 0.12517 0.28602 0.54106 0.0
O133 O 0.9967 0.28104 0.56424 0.0
O134 O 0.23561 0.43581 0.74152 0.0
O135 O 0.10705 0.31914 0.66002 0.0
O136 O 0.14525 0.23685 0.61004 0.0
O137 O 0.21578 0.31719 0.64693 0.0
O138 O 0.10455 0.39387 0.71652 0.0
O139 O 0.18891 0.3568 0.72875 0.0
C140 C 0.16128 0.32873 0.57042 0.0
C141 C 0.95702 0.21907 0.48637 0.0
C142 C 0.90132 0.18198 0.40966 0.0
C143 C 0.94607 0.21957 0.44413 0.0
C144 C 0.86745 0.14398 0.41848 0.0
C145 C 0.92339 0.18013 0.49413 0.0
C146 C 0.87873 0.14288 0.46027 0.0
C147 C 0.05685 0.40296 0.63545 0.0
C148 C 0.00286 0.26081 0.52186 0.0
C149 C 0.0303 0.04457 0.55093 0.0
C150 C 0.99406 0.06651 0.58126 0.0
C151 C 0.08018 0.34124 0.6918 0.0
C152 C 0.27438 0.38462 0.7798 0.0
C153 C 0.26633 0.36532 0.81226 0.0
C154 C 0.31096 0.35217 0.83551 0.0
C155 C 0.36377 0.35889 0.82534 0.0
C156 C 0.32728 0.38996 0.77011 0.0
C157 C 0.37159 0.3771 0.79279 0.0
C158 C 0.19771 0.26157 0.6287 0.0
C159 C 0.22683 0.39916 0.75703 0.0
H160 H 0.9731 0.24883 0.43803 0.0
H161 H 0.83204 0.11524 0.39314 0.0
H162 H 0.93124 0.17882 0.52634 0.0
H163 H 0.85259 0.1132 0.46651 0.0
H164 H 0.22515 0.36027 0.81907 0.0
H165 H 0.39951 0.35079 0.84298 0.0
H166 H 0.3344 0.40416 0.74514 0.0
H167 H 0.41245 0.38174 0.78539 0.0
Tb168 Tb 0.85086 0.09638 1.00981 0.0
C169 C 0.8475 0.84392 0.96861 0.0
C170 C 0.78363 0.79663 0.89604 0.0
C171 C 0.8512 0.74486 0.91522 0.0
C172 C 0.80428 0.84543 0.93855 0.0
C173 C 0.8697 0.79279 0.9583 0.0
C174 C 0.80849 0.74695 0.88394 0.0
C175 C 0.92048 0.83765 0.03602 0.0
N176 N 0.86451 0.89116 1.00966 0.0
C177 C 0.89903 0.88819 0.04396 0.0
C178 C 0.90728 0.79037 0.99256 0.0
Tb179 Tb 0.82116 0.96866 1.02241 0.0
N180 N 0.78018 0.89346 0.95234 0.0
C181 C 0.73258 0.89378 0.92612 0.0
C182 C 0.73729 0.79844 0.8678 0.0
C183 C 0.71125 0.84697 0.88321 0.0
H184 H 0.90964 0.92458 0.07765 0.0
H185 H 0.67446 0.84825 0.86217 0.0
H186 H 0.7935 0.70918 0.85129 0.0
H187 H 0.94729 0.83521 0.06338 0.0
H188 H 0.71137 0.93051 0.93726 0.0
H189 H 0.00619 0.23948 0.15839 0.0
H190 H 0.72026 0.76196 0.8348 0.0
H191 H 0.73687 0.1206 0.9606 0.0
H192 H 0.96904 0.15152 0.08649 0.0
H193 H 0.67825 0.19686 0.98002 0.0
H194 H 0.8683 0.7054 0.90636 0.0
H195 H 0.94949 0.31677 0.18833 0.0
H196 H 0.86188 0.35544 0.17683 0.0
H197 H 0.92445 0.7515 0.98639 0.0
H198 H 0.77288 0.34426 0.12791 0.0
N199 N 0.89115 0.17742 0.07587 0.0
C200 C 0.94377 0.18474 0.09878 0.0
C201 C 0.93287 0.2781 0.15665 0.0
C202 C 0.88034 0.2719 0.1316 0.0
C203 C 0.96506 0.23469 0.13976 0.0
C204 C 0.86066 0.2206 0.09072 0.0
H205 H 0.70434 0.28552 0.05404 0.0
N206 N 0.79503 0.16535 0.02333 0.0
C207 C 0.71545 0.20233 1.00379 0.0
C208 C 0.81107 0.21467 0.0632 0.0
C209 C 0.74884 0.15933 0.99281 0.0
C210 C 0.73025 0.25228 0.04565 0.0
C211 C 0.77898 0.25927 0.07575 0.0
O212 O 0.8484 0.11118 0.95246 0.0
O213 O 0.83617 1.00415 0.9769 0.0
O214 O 0.90204 0.96497 1.00469 0.0
O215 O 0.92792 0.06082 1.01976 0.0
O216 O 0.79509 0.04143 0.94417 0.0
O217 O 0.92526 0.128 0.9987 0.0
O218 O 0.81683 0.97559 0.08728 0.0
O219 O 0.8431 0.06127 0.05602 0.0
O220 O 0.77695 0.10145 0.0407 0.0
O221 O 0.74582 1.0044 1.01281 0.0
O222 O 0.88333 0.01841 0.08536 0.0
O223 O 0.75238 0.92251 0.02969 0.0
C224 C 0.80896 0.99281 0.93834 0.0
C225 C 0.91721 0.18446 0.95992 0.0
C226 C 0.95343 0.23376 0.91944 0.0
C227 C 0.93586 0.18239 0.9211 0.0
C228 C 0.95073 0.28678 0.95662 0.0
C229 C 0.9151 0.238 0.99637 0.0
C230 C 0.93154 0.28875 0.9946 0.0
C231 C 0.93961 1.0087 1.01196 0.0
C232 C 0.90117 0.13089 0.9626 0.0
C233 C 0.79711 0.30958 0.11741 0.0
C234 C 0.84773 0.31589 0.1453 0.0
C235 C 0.87839 0.06912 0.09017 0.0
C236 C 0.77854 0.88964 0.08501 0.0
C237 C 0.79838 0.90325 0.13107 0.0
C238 C 0.80547 0.85934 0.14379 0.0
C239 C 0.79282 0.80168 0.10965 0.0
C240 C 0.76631 0.83158 0.0518 0.0
C241 C 0.77355 0.78807 0.06414 0.0
C242 C 0.73828 0.05868 0.03321 0.0
C243 C 0.77354 0.93637 0.07196 0.0
H244 H 0.93779 0.14119 0.89284 0.0
H245 H 0.96312 0.32693 0.95616 0.0
H246 H 0.90112 0.24072 0.02637 0.0
H247 H 0.92965 0.32986 1.02292 0.0
H248 H 0.80792 0.94791 0.15695 0.0
H249 H 0.79844 0.76695 0.11809 0.0
H250 H 0.7518 0.81967 1.01615 0.0
H251 H 0.76438 0.74349 0.03823 0.0
Tb252 Tb 0.03624 0.85969 0.61498 0.0
C253 C 0.28159 0.8955 0.70007 0.0
C254 C 0.31954 0.82248 0.64123 0.0
C255 C 0.37904 0.9112 0.69757 0.0
C256 C 0.27422 0.84274 0.66176 0.0
C257 C 0.33408 0.93028 0.71867 0.0
C258 C 0.3718 0.85734 0.65894 0.0
C259 C 0.29404 0.99923 0.77834 0.0
N260 N 0.23692 0.91275 0.71908 0.0
C261 C 0.24282 0.96314 0.75871 0.0
C262 C 0.3398 0.98296 0.75807 0.0
Tb263 Tb 0.15557 0.84914 0.68549 0.0
N264 N 0.22316 0.81019 0.6459 0.0
C265 C 0.2155 0.75534 0.61097 0.0
C266 C 0.31132 0.76719 0.60439 0.0
C267 C 0.25928 0.73318 0.58967 0.0
H268 H 0.20785 0.97619 0.7748 0.0
H269 H 0.25269 0.68993 0.5617 0.0
H270 H 0.40703 0.84267 0.64346 0.0
H271 H 0.29821 0.03953 0.80917 0.0
H272 H 0.17569 0.72829 0.599 0.0
H273 H 0.96204 0.04746 0.73257 0.0
H274 H 0.34508 0.74994 0.58773 0.0
H275 H 0.96818 0.73429 0.53353 0.0
H276 H 0.0316 0.9935 0.6943 0.0
H277 H 0.8735 0.67938 0.51013 0.0
H278 H 0.41967 0.9374 0.71118 0.0
H279 H 0.86596 0.99914 0.71607 0.0
H280 H 0.79603 0.90857 0.6738 0.0
H281 H 0.37942 0.011 0.77337 0.0
H282 H 0.7725 0.80747 0.61481 0.0
N283 N 0.9768 0.91319 0.65738 0.0
C284 C 0.99041 0.9708 0.68708 0.0
C285 C 0.89682 0.9744 0.70005 0.0
C286 C 0.88276 0.91574 0.66934 0.0
C287 C 0.95089 1.00196 0.70908 0.0
C288 C 0.92409 0.88607 0.64806 0.0
H289 H 0.80104 0.72162 0.55337 0.0
N290 N 0.9502 0.80506 0.59122 0.0
C291 C 0.88338 0.72153 0.53957 0.0
C292 C 0.91045 0.82984 0.61403 0.0
C293 C 0.93682 0.75271 0.55285 0.0
C294 C 0.84267 0.74543 0.56417 0.0
C295 C 0.85556 0.80084 0.60115 0.0
O296 O 0.01426 0.83905 0.54527 0.0
O297 O 0.12041 0.84533 0.62079 0.0
O298 O 0.18092 0.91914 0.67272 0.0
O299 O 0.09547 0.94233 0.65324 0.0
O300 O 0.07198 0.7961 0.56041 0.0
O301 O 0.02673 0.92678 0.59772 0.0
O302 O 0.16807 0.85951 0.75269 0.0
O303 O 0.06991 0.8624 0.67914 0.0
O304 O 0.01587 0.78397 0.62464 0.0
O305 O 0.10442 0.7651 0.64151 0.0
O306 O 0.11933 0.9109 0.74091 0.0
O307 O 0.17593 0.77944 0.69643 0.0
C308 C 0.12332 0.81085 0.58028 0.0
C309 C 0.96064 0.90183 0.53032 0.0
C310 C 0.91101 0.91166 0.46546 0.0
C311 C 0.95853 0.89993 0.487 0.0
C312 C 0.86526 0.92263 0.48735 0.0
C313 C 0.91487 0.91506 0.55146 0.0
C314 C 0.86744 0.92466 0.52995 0.0
C315 C 0.15049 0.95447 0.66627 0.0
C316 C 0.01097 0.89204 0.55409 0.0
C317 C 0.81489 0.82904 0.62408 0.0
C318 C 0.82833 0.88659 0.65775 0.0
C319 C 0.06937 0.89986 0.71913 0.0
C320 C 0.24147 0.81356 0.76634 0.0
C321 C 0.25297 0.8404 0.81464 0.0
C322 C 0.30746 0.84962 0.83949 0.0
C323 C 0.34982 0.83136 0.81441 0.0
C324 C 0.28452 0.7936 0.7429 0.0
C325 C 0.33818 0.80294 0.76679 0.0
C326 C 0.0502 0.74907 0.62741 0.0
C327 C 0.18587 0.81052 0.74083 0.0
H328 H 0.99437 0.89125 0.47106 0.0
H329 H 0.8272 0.92943 0.4715 0.0
H330 H 0.9158 0.9188 0.58494 0.0
H331 H 0.83218 0.93407 0.54654 0.0
H332 H 0.21923 0.85397 0.83245 0.0
H333 H 0.3925 0.83947 0.83128 0.0
H334 H 0.2772 0.77179 0.70599 0.0
H335 H 0.37123 0.78875 0.74823 0.0
C336 C 0.00821 0.94994 1.02224 0.0
C337 C 0.99751 1.00221 0.02356 0.0
C338 C 0.05152 0.9492 0.05351 0.0
C339 C 0.088 1.00092 0.08294 0.0
C340 C 0.08521 0.04991 0.07576 0.0
C341 C 0.03871 0.0507 0.04699 0.0
C342 C 0.05347 0.89508 0.05858 0.0
C343 C 0.12865 0.103 0.10087 0.0
C344 C 0.15152 0.05447 0.20718 0.0
C345 C 0.20123 0.03273 0.20343 0.0
C346 C 0.11121 0.03828 0.16786 0.0
C347 C 0.1242 1.00601 0.12418 0.0
C348 C 0.17285 0.98126 0.12086 0.0
C349 C 0.20765 0.99048 0.16088 0.0
C350 C 0.05674 0.05936 0.17317 0.0
C351 C 0.19243 0.95064 0.07638 0.0
H352 H 0.97884 0.91093 1.00093 0.0
H353 H 0.03281 0.09044 0.04586 0.0
H354 H 0.02931 0.85671 0.02801 0.0
H355 H 0.09611 0.88635 0.06392 0.0
H356 H 0.03628 0.90041 0.089 0.0
H357 H 0.11628 0.13316 0.13271 0.0
H358 H 0.16967 0.09223 0.10966 0.0
H359 H 0.13252 0.1257 0.07995 0.0
H360 H 0.14536 0.08604 0.24021 0.0
H361 H 0.24421 0.97089 0.15824 0.0
H362 H 0.02257 0.02816 0.1456 0.0
H363 H 0.05972 0.10048 0.17142 0.0
H364 H 0.04677 0.06702 0.20664 0.0
H365 H 0.20525 0.90971 0.0731 0.0
H366 H 0.22917 0.97829 0.07703 0.0
H367 H 0.16154 0.94129 0.04563 0.0
C368 C 0.23824 1.0064 0.66493 0.0
C369 C 0.18102 1.00343 0.66464 0.0
C370 C 0.26764 0.04885 0.65859 0.0
C371 C 0.23907 0.08945 0.65196 0.0
C372 C 0.18124 0.08694 0.65207 0.0
C373 C 0.15304 0.04392 0.65848 0.0
C374 C 0.32903 0.05002 0.6595 0.0
C375 C 0.14842 0.12902 0.64483 0.0
C376 C 0.26243 0.23685 0.67689 0.0
C377 C 0.23807 0.22636 0.63303 0.0
C378 C 0.27829 0.19138 0.68402 0.0
C379 C 0.26841 0.136 0.64617 0.0
C380 C 0.26098 0.1307 0.60162 0.0
C381 C 0.24348 0.17612 0.59522 0.0
C382 C 0.29224 0.20017 0.73229 0.0
C383 C 0.26169 0.07501 0.56022 0.0
H384 H 0.26034 0.9746 0.66881 0.0
H385 H 0.10891 0.04146 0.6579 0.0
H386 H 0.34299 0.06565 0.63618 0.0
H387 H 0.35187 0.07952 0.69464 0.0
H388 H 0.34065 1.00675 0.65011 0.0
H389 H 0.10384 0.11973 0.64479 0.0
H390 H 0.16464 0.17318 0.67225 0.0
H391 H 0.15214 0.12756 0.61175 0.0
H392 H 0.26068 0.27712 0.706 0.0
H393 H 0.22887 0.17001 0.56104 0.0
H394 H 0.31387 0.16579 0.73423 0.0
H395 H 0.2535 0.20007 0.74566 0.0
H396 H 0.31876 0.24247 0.75456 0.0
H397 H 0.27145 0.04031 0.56887 0.0
H398 H 0.29325 0.08205 0.54178 0.0
H399 H 0.22119 0.06147 0.53649 0.0
C400 C 0.65119 0.0978 0.05404 0.0
C401 C 0.69612 0.0723 0.06203 0.0
C402 C 0.61199 0.11099 0.08275 0.0
C403 C 0.61947 0.10023 0.12115 0.0
C404 C 0.66632 0.07652 0.13001 0.0
C405 C 0.70317 0.06173 0.09979 0.0
C406 C 0.56178 0.13362 0.07001 0.0
C407 C 0.67773 0.06654 0.17141 0.0
C408 C 0.53687 0.16969 0.21534 0.0
C409 C 0.50197 0.12137 0.20962 0.0
C410 C 0.57587 0.16371 0.187 0.0
C411 C 0.57689 0.10889 0.15026 0.0
C412 C 0.53968 0.06069 0.14331 0.0
C413 C 0.5049 0.06705 0.17437 0.0
C414 C 0.61626 0.21569 0.19652 0.0
C415 C 0.53558 1.00245 0.1025 0.0
H416 H 0.64594 0.10614 0.02484 0.0
H417 H 0.73879 0.04339 0.10656 0.0
H418 H 0.53224 0.09704 0.04189 0.0
H419 H 0.54017 0.15513 0.09872 0.0
H420 H 0.57351 0.16438 0.05708 0.0
H421 H 0.72039 0.0575 0.17749 0.0
H422 H 0.67178 0.10462 0.20236 0.0
H423 H 0.64842 0.02925 0.16664 0.0
H424 H 0.53438 0.21171 0.2424 0.0
H425 H 0.47746 0.02952 0.16934 0.0
H426 H 0.61145 0.22364 0.16635 0.0
H427 H 0.65919 0.20751 0.20278 0.0
H428 H 0.61055 0.25506 0.22661 0.0
H429 H 0.5356 1.00712 0.07104 0.0
H430 H 0.49748 0.97297 0.09725 0.0
H431 H 0.57175 0.98204 0.10728 0.0
C432 C 0.99235 0.43151 0.58853 0.0
C433 C 0.01959 0.44172 0.63169 0.0
C434 C 0.97284 0.47656 0.58231 0.0
C435 C 0.98238 0.53227 0.61996 0.0
C436 C 1.00014 0.53943 0.66461 0.0
C437 C 0.01872 0.4936 0.66991 0.0
C438 C 0.94995 0.46654 0.53467 0.0
C439 C 0.00815 0.59758 0.70601 0.0
C440 C 0.06426 0.6498 0.60874 0.0
C441 C 0.02807 0.69003 0.61693 0.0
C442 C 0.04824 0.5966 0.60664 0.0
C443 C 0.99402 0.58276 0.61211 0.0
C444 C 0.95549 0.621 0.61613 0.0
C445 C 0.97318 0.67476 0.61886 0.0
C446 C 0.09092 0.55698 0.60156 0.0
C447 C 0.89675 0.60729 0.62025 0.0
H448 H 0.9915 0.39045 0.55905 0.0
H449 H 0.03653 0.49975 0.70354 0.0
H450 H 0.91906 0.4951 0.53513 0.0
H451 H 0.98411 0.47632 0.51957 0.0
H452 H 0.93041 0.42097 0.51239 0.0
H453 H 0.01301 0.59398 0.7382 0.0
H454 H 0.04595 0.62446 0.70722 0.0
H455 H 0.97259 0.62007 0.70413 0.0
H456 H 0.10629 0.66083 0.60595 0.0
H457 H 0.94483 0.70563 0.62475 0.0
H458 H 0.07606 0.51508 0.57063 0.0
H459 H 0.09768 0.54846 0.63139 0.0
H460 H 0.13148 0.5752 0.59868 0.0
H461 H 0.88285 0.56034 0.60594 0.0
H462 H 0.86817 0.62463 0.60253 0.0
H463 H 0.89361 0.62851 0.65682 0.0
C464 C 0.22053 0.37036 0.5345 0.0
C465 C 0.21484 0.33684 0.55711 0.0
C466 C 0.25391 0.35714 0.50099 0.0
C467 C 0.28059 0.3079 0.48853 0.0
C468 C 0.27892 0.27732 0.5142 0.0
C469 C 0.24647 0.29231 0.54794 0.0
C470 C 0.25657 0.39297 0.47633 0.0
C471 C 0.30584 0.22414 0.50246 0.0
C472 C 0.29054 0.20861 0.3655 0.0
C473 C 0.34782 0.21494 0.36733 0.0
C474 C 0.26784 0.24179 0.40374 0.0
C475 C 0.30315 0.28262 0.44518 0.0
C476 C 0.36074 0.29177 0.4462 0.0
C477 C 0.38244 0.25699 0.4077 0.0
C478 C 0.2062 0.23016 0.40061 0.0
C479 C 0.3999 0.33612 0.48873 0.0
H480 H 0.19517 0.40381 0.5401 0.0
H481 H 0.24073 0.2642 0.56302 0.0
H482 H 0.29824 0.39743 0.46829 0.0
H483 H 0.2261 0.37156 0.44367 0.0
H484 H 0.24659 0.43654 0.49688 0.0
H485 H 0.3062 0.20921 0.5288 0.0
H486 H 0.28277 0.18886 0.46935 0.0
H487 H 0.34903 0.23231 0.49862 0.0
H488 H 0.26349 0.17551 0.33498 0.0
H489 H 0.42681 0.26184 0.4095 0.0
H490 H 0.189 0.27095 0.41242 0.0
H491 H 0.19778 0.21107 0.42326 0.0
H492 H 0.18405 0.20025 0.36525 0.0
H493 H 0.38174 0.37598 0.5053 0.0
H494 H 0.44027 0.34725 0.48115 0.0
H495 H 0.40759 0.31897 0.51355 0.0
C496 C 0.074 0.26186 0.7144 0.0
C497 C 0.05535 0.31111 0.71494 0.0
C498 C 0.05712 0.2393 0.74273 0.0
C499 C 0.0201 0.26628 0.77179 0.0
C500 C 0.99902 0.31416 0.7704 0.0
C501 C 0.01748 0.33639 0.74256 0.0
C502 C 0.08021 0.18744 0.74175 0.0
C503 C 0.95878 0.34373 0.80003 0.0
C504 C 0.94502 0.20103 0.83486 0.0
C505 C 0.97494 0.23374 0.87975 0.0
C506 C 0.96094 0.20854 0.79855 0.0
C507 C 0.00775 0.24954 0.80741 0.0
C508 C 0.04059 0.27883 0.85194 0.0
C509 C 0.02361 0.27092 0.8875 0.0
C510 C 0.92677 0.1742 0.75102 0.0
C511 C 0.09281 0.32012 0.86236 0.0
H512 H 0.10349 0.24238 0.69321 0.0
H513 H 0.0032 0.37458 0.74311 0.0
H514 H 0.05749 0.14835 0.71099 0.0
H515 H 0.12455 0.19083 0.73926 0.0
H516 H 0.07648 0.18142 0.77213 0.0
H517 H 0.94225 0.37671 0.79181 0.0
H518 H 0.92359 0.31166 0.79585 0.0
H519 H 0.97976 0.36507 0.83646 0.0
H520 H 0.90775 0.1717 0.8285 0.0
H521 H 0.04779 0.29511 0.92187 0.0
H522 H 0.95379 0.15172 0.72682 0.0
H523 H 0.90779 0.2036 0.7397 0.0
H524 H 0.89344 0.14176 0.74908 0.0
H525 H 0.12028 0.29881 0.83819 0.0
H526 H 0.116 0.33594 0.89775 0.0
H527 H 0.0823 0.35771 0.85784 0.0
C528 C 0.93026 0.87267 0.38498 0.0
C529 C 0.90734 0.91223 0.42029 0.0
C530 C 0.92014 0.86839 0.34079 0.0
C531 C 0.88525 0.90351 0.33121 0.0
C532 C 0.86441 0.9454 0.36722 0.0
C533 C 0.87672 0.9501 0.41125 0.0
C534 C 0.94465 0.82431 0.30378 0.0
C535 C 0.82632 0.98314 0.35875 0.0
C536 C 0.87232 0.91408 0.21941 0.0
C537 C 0.82554 0.87264 0.19233 0.0
C538 C 0.89285 0.92426 0.26442 0.0
C539 C 0.86567 0.89262 0.28301 0.0
C540 C 0.81793 0.85144 0.25594 0.0
C541 C 0.79875 0.84181 0.21108 0.0
C542 C 0.94401 0.96828 0.29182 0.0
C543 C 0.78658 0.81778 0.27452 0.0
H544 H 0.95417 0.84327 0.3912 0.0
H545 H 0.86056 0.98256 0.43844 0.0
H546 H 0.91151 0.78839 0.27942 0.0
H547 H 0.96311 0.84363 0.28426 0.0
H548 H 0.97693 0.80635 0.31782 0.0
H549 H 0.81436 0.01435 0.39053 0.0
H550 H 0.8464 1.00721 0.34327 0.0
H551 H 0.7881 0.95599 0.33412 0.0
H552 H 0.89359 0.93767 0.20503 0.0
H553 H 0.76221 0.81022 0.19062 0.0
H554 H 0.97669 0.94741 0.30198 0.0
H555 H 0.93479 1.00221 0.32367 0.0
H556 H 0.96044 0.98908 0.27246 0.0
H557 H 0.8141 0.79234 0.28446 0.0
H558 H 0.74982 0.7879 0.24935 0.0
H559 H 0.77263 0.84778 0.30567 0.0
C560 C 0.36582 0.8667 0.9147 0.0
C561 C 0.32086 0.87866 0.89106 0.0
C562 C 0.37965 0.89425 0.96275 0.0
C563 C 0.34653 0.93319 0.98851 0.0
C564 C 0.30123 0.94573 0.96521 0.0
C565 C 0.2895 0.91902 0.91712 0.0
C566 C 0.43017 0.88208 0.98595 0.0
C567 C 0.2631 0.98538 0.99057 0.0
C568 C 0.33045 0.95501 0.1065 0.0
C569 C 0.3539 0.01294 0.13431 0.0
C570 C 0.3312 0.92715 0.05953 0.0
C571 C 0.35653 0.95778 0.03952 0.0
C572 C 0.38562 0.01422 0.06815 0.0
C573 C 0.38301 0.04137 0.11486 0.0
C574 C 0.29969 0.86683 0.03057 0.0
C575 C 0.41519 0.04793 0.04885 0.0
H576 H 0.39025 0.83507 0.89585 0.0
H577 H 0.2555 0.93021 0.90015 0.0
H578 H 0.46093 0.92211 1.00488 0.0
H579 H 0.41947 0.8685 1.0113 0.0
H580 H 0.44993 0.84826 0.96127 0.0
H581 H 0.24093 1.00323 0.9697 0.0
H582 H 0.23163 0.96038 0.9983 0.0
H583 H 0.28546 0.02173 1.0233 0.0
H584 H 0.30629 0.93251 0.11975 0.0
H585 H 0.39979 0.0867 0.13538 0.0
H586 H 0.32564 0.83858 1.00836 0.0
H587 H 0.26289 0.86783 1.00791 0.0
H588 H 0.2856 0.84734 0.05157 0.0
H589 H 0.43953 0.02064 0.02421 0.0
H590 H 0.44336 0.08664 0.07614 0.0
H591 H 0.38433 0.06213 0.03022 0.0
C592 C 0.81931 0.9715 0.85887 0.0
C593 C 0.83102 0.9595 0.89587 0.0
C594 C 0.85174 0.9558 0.82489 0.0
C595 C 0.89674 0.92635 0.8271 0.0
C596 C 0.90516 0.90897 0.86174 0.0
C597 C 0.87211 0.92541 0.89535 0.0
C598 C 0.8402 0.97451 0.7885 0.0
C599 C 0.95196 0.87697 0.86563 0.0
C600 C 0.97648 0.86376 0.7291 0.0
C601 C 0.02205 0.90753 0.74366 0.0
C602 C 0.93437 0.86981 0.75485 0.0
C603 C 0.9387 0.92007 0.79708 0.0
C604 C 0.98472 0.96433 0.81177 0.0
C605 C 0.02564 0.95743 0.78504 0.0
C606 C 0.88589 0.82185 0.73724 0.0
C607 C 0.99154 0.01862 0.85645 0.0
H608 H 0.78721 0.99702 0.85818 0.0
H609 H 0.88095 0.91415 0.92256 0.0
H610 H 0.87441 1.00831 0.79396 0.0
H611 H 0.83831 0.93751 0.75461 0.0
H612 H 0.80072 0.99193 0.78851 0.0
H613 H 0.94845 0.85979 0.8903 0.0
H614 H 0.95313 0.84075 0.83191 0.0
H615 H 0.99188 0.90658 0.87735 0.0
H616 H 0.97404 0.82432 0.69793 0.0
H617 H 0.06113 0.99105 0.79685 0.0
H618 H 0.84644 0.8392 0.73732 0.0
H619 H 0.88707 0.80148 0.76008 0.0
H620 H 0.88595 0.7882 0.70203 0.0
H621 H 0.95392 0.03913 0.85762 0.0
H622 H 0.02782 0.05035 0.86185 0.0
H623 H 0.99673 1.00783 0.88518 0.0
C624 C 0.32912 0.93032 0.46274 0.0
C625 C 0.30442 0.91853 0.41833 0.0
C626 C 0.30036 0.9133 0.48955 0.0
C627 C 0.24596 0.88186 0.4712 0.0
C628 C 0.22042 0.87075 0.42664 0.0
C629 C 0.24972 0.88962 0.40094 0.0
C630 C 0.32842 0.92862 0.53751 0.0
C631 C 0.16202 0.83895 0.40617 0.0
C632 C 0.19156 0.79288 0.52688 0.0
C633 C 0.15998 0.82955 0.55573 0.0
C634 C 0.22055 0.80963 0.49981 0.0
C635 C 0.21527 0.86291 0.49949 0.0
C636 C 0.18064 0.89818 0.52667 0.0
C637 C 0.1547 0.88162 0.55473 0.0
C638 C 0.25512 0.76933 0.47019 0.0
C639 C 0.16737 0.95231 0.52535 0.0
H640 H 0.37134 0.95276 0.47646 0.0
H641 H 0.2305 0.88008 0.36662 0.0
H642 H 0.30045 0.94777 0.56176 0.0
H643 H 0.33794 0.88902 0.53916 0.0
H644 H 0.36753 0.95945 0.54894 0.0
H645 H 0.1492 0.83022 0.37016 0.0
H646 H 0.15804 0.79745 0.40754 0.0
H647 H 0.13309 0.8648 0.42645 0.0
H648 H 0.19255 0.75061 0.52449 0.0
H649 H 0.1273 0.90852 0.57406 0.0
H650 H 0.29832 0.7915 0.47856 0.0
H651 H 0.23874 0.75664 0.43378 0.0
H652 H 0.25557 0.72986 0.4745 0.0
H653 H 0.18748 0.9623 0.50151 0.0
H654 H 0.17916 0.98901 0.56022 0.0
H655 H 0.1219 0.94781 0.51502 0.0
C656 C 0.33527 0.29345 0.87638 0.0
C657 C 0.30367 0.333 0.87104 0.0
C658 C 0.33393 0.27993 0.91265 0.0
C659 C 0.29942 0.30566 0.94438 0.0
C660 C 0.26502 0.34303 0.93777 0.0
C661 C 0.26764 0.35634 0.90143 0.0
C662 C 0.37138 0.23994 0.91812 0.0
C663 C 0.22671 0.37057 0.97009 0.0
C664 C 0.27248 0.24674 0.02772 0.0
C665 C 0.30829 0.28696 0.06816 0.0
C666 C 0.26914 0.25187 0.98705 0.0
C667 C 0.30309 0.29776 0.9866 0.0
C668 C 0.34065 0.33716 0.0271 0.0
C669 C 0.34238 0.33158 0.06725 0.0
C670 C 0.22802 0.20933 0.94502 0.0
C671 C 0.37839 0.38611 0.02832 0.0
H672 H 0.36203 0.27356 0.85251 0.0
H673 H 0.24294 0.3869 0.89803 0.0
H674 H 0.40319 0.2642 0.94981 0.0
H675 H 0.34741 0.20514 0.92161 0.0
H676 H 0.3927 0.2201 0.88884 0.0
H677 H 0.20185 0.39777 0.95995 0.0
H678 H 0.19811 0.33678 0.97131 0.0
H679 H 0.25099 0.39774 1.00515 0.0
H680 H 0.24554 0.21263 0.02838 0.0
H681 H 0.37012 0.36278 0.09842 0.0
H682 H 0.24892 0.18991 0.91551 0.0
H683 H 0.19624 0.23197 0.93604 0.0
H684 H 0.20691 0.1743 0.95003 0.0
H685 H 0.40349 0.36916 1.00138 0.0
H686 H 0.40683 0.4116 0.06188 0.0
H687 H 0.35337 0.41535 1.02117 0.0
C688 C 0.83887 0.14074 0.15339 0.0
C689 C 0.88468 0.11669 0.13688 0.0
C690 C 0.83892 0.16715 0.20054 0.0
C691 C 0.8866 0.17109 0.23125 0.0
C692 C 0.93594 0.15698 0.21497 0.0
C693 C 0.93389 0.12815 0.16777 0.0
C694 C 0.78683 0.1862 0.21718 0.0
C695 C 0.98934 0.16676 0.24718 0.0
C696 C 0.8998 0.23158 0.35996 0.0
C697 C 0.89155 0.18073 0.36406 0.0
C698 C 0.89537 0.23 0.3169 0.0
C699 C 0.88227 0.17624 0.27697 0.0
C700 C 0.87112 0.12508 0.28091 0.0
C701 C 0.87634 0.12795 0.32424 0.0
C702 C 0.90813 0.28579 0.31491 0.0
C703 C 0.85654 0.06662 0.23935 0.0
H704 H 0.80161 0.13448 0.1296 0.0
H705 H 0.9698 0.11162 0.15473 0.0
H706 H 0.77126 0.16012 0.23293 0.0
H707 H 0.79588 0.23172 0.24403 0.0
H708 H 0.75389 0.18205 0.18918 0.0
H709 H 0.02563 0.17055 0.23196 0.0
H710 H 0.99304 0.2066 0.27979 0.0
H711 H 0.99031 0.13006 0.25507 0.0
H712 H 0.9107 0.27279 0.39045 0.0
H713 H 0.87065 0.08834 0.32681 0.0
H714 H 0.89374 0.32135 0.34281 0.0
H715 H 0.8891 0.28304 0.28177 0.0
H716 H 0.95363 0.29713 0.31994 0.0
H717 H 0.82419 0.06726 0.21307 0.0
H718 H 0.84135 0.03245 0.24788 0.0
H719 H 0.89373 0.05505 0.22408 0.0
loop_
_geom_bond_atom_site_label_1
_geom_bond_atom_site_label_2
_geom_bond_distance
_geom_bond_site_symmetry_2
_ccdc_geom_bond_type
Tb0 N31 2.660 . S
Tb0 N38 2.600 . S
Tb0 O44 2.546 . S
Tb0 O45 2.610 1_545 S
Tb0 O47 2.320 . S
Tb0 O48 2.552 . S
Tb0 O49 2.413 . S
Tb0 O51 2.362 . S
Tb0 O52 2.421 . S
Tb0 C64 2.833 . S
C1 C4 1.432 . S
C1 C5 1.414 . S
C1 N8 1.359 . S
C2 C4 1.417 . S
C2 C6 1.432 . S
C2 C14 1.410 . S
C3 C5 1.444 . S
C3 C6 1.317 . S
C3 H26 0.929 . S
C4 C1 1.432 . S
C4 C2 1.417 . S
C4 N12 1.360 . S
C5 C1 1.414 . S
C5 C3 1.444 . S
C5 C10 1.385 . S
C6 C2 1.432 . S
C6 C3 1.317 . S
C6 H18 0.930 1_554 S
C7 C9 1.392 . S
C7 C10 1.370 . S
C7 H19 0.931 . S
N8 C1 1.359 . S
N8 C9 1.327 . S
N8 Tb11 2.600 . S
C9 C7 1.392 . S
C9 N8 1.327 . S
C9 H16 0.930 . S
C10 C5 1.385 . S
C10 C7 1.370 . S
C10 H29 0.930 . S
Tb11 N8 2.600 . S
Tb11 N12 2.660 . S
Tb11 O45 2.362 . S
Tb11 O46 2.421 . S
Tb11 O50 2.546 . S
Tb11 O51 2.610 1_565 S
Tb11 O53 2.320 . S
Tb11 O54 2.552 1_565 S
Tb11 O55 2.413 . S
Tb11 C75 2.833 . S
N12 C4 1.360 . S
N12 Tb11 2.660 . S
N12 C13 1.305 . S
C13 N12 1.305 . S
C13 C15 1.407 . S
C13 H20 0.930 . S
C14 C2 1.410 . S
C14 C15 1.345 . S
C14 H22 0.930 1_554 S
C15 C13 1.407 . S
C15 C14 1.345 . S
C15 H17 0.930 . S
H16 C9 0.930 . S
H17 C15 0.930 . S
H18 C6 0.930 1_556 S
H19 C7 0.931 . S
H20 C13 0.930 . S
H21 C35 0.930 . S
H22 C14 0.930 1_556 S
H23 C41 0.930 . S
H24 C32 0.930 . S
H25 C39 0.931 . S
H26 C3 0.929 . S
H27 C33 0.930 . S
H28 C66 0.930 . S
H29 C10 0.930 . S
H30 C65 0.929 . S
N31 Tb0 2.660 . S
N31 C32 1.305 . S
N31 C36 1.360 . S
C32 H24 0.930 . S
C32 N31 1.305 . S
C32 C35 1.407 . S
C33 H27 0.930 . S
C33 C34 1.410 . S
C33 C35 1.345 . S
C34 C33 1.410 . S
C34 C36 1.417 . S
C34 C66 1.432 . S
C35 H21 0.930 . S
C35 C32 1.407 . S
C35 C33 1.345 . S
C36 N31 1.360 . S
C36 C34 1.417 . S
C36 C40 1.432 . S
H37 C42 0.930 . S
N38 Tb0 2.600 . S
N38 C40 1.359 . S
N38 C41 1.327 . S
C39 H25 0.931 . S
C39 C41 1.392 . S
C39 C42 1.370 . S
C40 C36 1.432 . S
C40 N38 1.359 . S
C40 C43 1.414 . S
C41 H23 0.930 . S
C41 N38 1.327 . S
C41 C39 1.392 . S
C42 H37 0.930 . S
C42 C39 1.370 . S
C42 C43 1.385 . S
C43 C40 1.414 . S
C43 C42 1.385 . S
C43 C65 1.444 . S
O44 Tb0 2.546 . S
O44 C64 1.251 . S
O45 Tb0 2.610 1_565 S
O45 Tb11 2.362 . S
O45 C56 1.283 . S
O46 Tb11 2.421 . S
O46 C63 1.262 1_565 S
O47 Tb0 2.320 . S
O47 C63 1.260 . S
O48 Tb0 2.552 . S
O48 C56 1.243 1_545 S
O49 Tb0 2.413 . S
O49 C64 1.256 . S
O50 Tb11 2.546 . S
O50 C75 1.251 . S
O51 Tb0 2.362 . S
O51 Tb11 2.610 1_545 S
O51 C67 1.283 . S
O52 Tb0 2.421 . S
O52 C74 1.262 . S
O53 Tb11 2.320 . S
O53 C74 1.260 1_565 S
O54 Tb11 2.552 1_545 S
O54 C67 1.243 . S
O55 Tb11 2.413 . S
O55 C75 1.256 . S
C56 O45 1.283 . S
C56 O48 1.243 1_565 S
C57 C59 1.382 . S
C57 C61 1.393 . S
C57 C64 1.500 . S
C58 C59 1.400 . S
C58 C60 1.384 . S
C59 C57 1.382 . S
C59 C58 1.400 . S
C59 H76 0.930 . S
C60 C58 1.384 . S
C60 C62 1.392 . S
C60 H77 0.931 . S
C61 C57 1.393 . S
C61 C62 1.401 . S
C61 H78 0.930 . S
C62 C60 1.392 . S
C62 C61 1.401 . S
C62 H79 0.930 . S
C63 O46 1.262 1_545 S
C63 O47 1.260 . S
C64 Tb0 2.833 . S
C64 O44 1.251 . S
C64 O49 1.256 . S
C64 C57 1.500 . S
C65 H30 0.929 . S
C65 C43 1.444 . S
C65 C66 1.317 . S
C66 H28 0.930 . S
C66 C34 1.432 . S
C66 C65 1.317 . S
C67 O51 1.283 . S
C67 O54 1.243 . S
C68 C69 1.382 . S
C68 C72 1.393 . S
C68 C75 1.500 . S
C69 C68 1.382 . S
C69 C70 1.400 . S
C69 H80 0.930 . S
C70 C69 1.400 . S
C70 C71 1.384 . S
C71 C70 1.384 . S
C71 C73 1.392 . S
C71 H81 0.931 . S
C72 C68 1.393 . S
C72 C73 1.401 . S
C72 H82 0.930 . S
C73 C71 1.392 . S
C73 C72 1.401 . S
C73 H83 0.930 . S
C74 O52 1.262 . S
C74 O53 1.260 1_545 S
C75 Tb11 2.833 . S
C75 O50 1.251 . S
C75 O55 1.256 . S
C75 C68 1.500 . S
H76 C59 0.930 . S
H77 C60 0.931 . S
H78 C61 0.930 . S
H79 C62 0.930 . S
H80 C69 0.930 . S
H81 C71 0.931 . S
H82 C72 0.930 . S
H83 C73 0.930 . S
Tb84 N115 2.660 . S
Tb84 N122 2.600 . S
Tb84 O128 2.546 . S
Tb84 O129 2.610 . S
Tb84 O131 2.320 . S
Tb84 O132 2.552 . S
Tb84 O133 2.413 . S
Tb84 O135 2.362 . S
Tb84 O136 2.421 . S
Tb84 C148 2.833 . S
C85 C88 1.432 . S
C85 C89 1.414 . S
C85 N92 1.359 . S
C86 C88 1.417 . S
C86 C90 1.432 . S
C86 C98 1.410 . S
C87 C89 1.444 . S
C87 C90 1.317 . S
C87 H110 0.929 . S
C88 C85 1.432 . S
C88 C86 1.417 . S
C88 N96 1.360 . S
C89 C85 1.414 . S
C89 C87 1.444 . S
C89 C94 1.385 . S
C90 C86 1.432 . S
C90 C87 1.317 . S
C90 H102 0.930 . S
C91 C93 1.392 . S
C91 C94 1.370 . S
C91 H103 0.931 . S
N92 C85 1.359 . S
N92 C93 1.327 . S
N92 Tb95 2.600 . S
C93 C91 1.392 . S
C93 N92 1.327 . S
C93 H100 0.930 . S
C94 C89 1.385 . S
C94 C91 1.370 . S
C94 H113 0.930 . S
Tb95 N92 2.600 . S
Tb95 N96 2.660 . S
Tb95 O129 2.362 . S
Tb95 O130 2.421 . S
Tb95 O134 2.546 . S
Tb95 O135 2.610 . S
Tb95 O137 2.320 . S
Tb95 O138 2.552 . S
Tb95 O139 2.413 . S
Tb95 C159 2.833 . S
N96 C88 1.360 . S
N96 Tb95 2.660 . S
N96 C97 1.305 . S
C97 N96 1.305 . S
C97 C99 1.407 . S
C97 H104 0.930 . S
C98 C86 1.410 . S
C98 C99 1.345 . S
C98 H106 0.930 . S
C99 C97 1.407 . S
C99 C98 1.345 . S
C99 H101 0.930 . S
H100 C93 0.930 . S
H101 C99 0.930 . S
H102 C90 0.930 . S
H103 C91 0.931 . S
H104 C97 0.930 . S
H105 C119 0.930 . S
H106 C98 0.930 . S
H107 C125 0.930 . S
H108 C116 0.930 . S
H109 C123 0.931 . S
H110 C87 0.929 . S
H111 C117 0.930 . S
H112 C150 0.930 . S
H113 C94 0.930 . S
H114 C149 0.929 . S
N115 Tb84 2.660 . S
N115 C116 1.305 . S
N115 C120 1.360 1_455 S
C116 H108 0.930 . S
C116 N115 1.305 . S
C116 C119 1.407 . S
C117 H111 0.930 . S
C117 C118 1.410 . S
C117 C119 1.345 1_655 S
C118 C117 1.410 . S
C118 C120 1.417 . S
C118 C150 1.432 . S
C119 H105 0.930 . S
C119 C116 1.407 . S
C119 C117 1.345 1_455 S
C120 N115 1.360 1_655 S
C120 C118 1.417 . S
C120 C124 1.432 . S
H121 C126 0.930 . S
N122 Tb84 2.600 . S
N122 C124 1.359 1_455 S
N122 C125 1.327 . S
C123 H109 0.931 . S
C123 C125 1.392 1_655 S
C123 C126 1.370 . S
C124 C120 1.432 . S
C124 N122 1.359 1_655 S
C124 C127 1.414 . S
C125 H107 0.930 . S
C125 N122 1.327 . S
C125 C123 1.392 1_455 S
C126 H121 0.930 . S
C126 C123 1.370 . S
C126 C127 1.385 . S
C127 C124 1.414 . S
C127 C126 1.385 . S
C127 C149 1.444 . S
O128 Tb84 2.546 . S
O128 C148 1.251 . S
O129 Tb84 2.610 . S
O129 Tb95 2.362 . S
O129 C140 1.283 . S
O130 Tb95 2.421 . S
O130 C147 1.262 . S
O131 Tb84 2.320 . S
O131 C147 1.260 . S
O132 Tb84 2.552 . S
O132 C140 1.243 . S
O133 Tb84 2.413 . S
O133 C148 1.256 . S
O134 Tb95 2.546 . S
O134 C159 1.251 . S
O135 Tb84 2.362 . S
O135 Tb95 2.610 . S
O135 C151 1.283 . S
O136 Tb84 2.421 . S
O136 C158 1.262 . S
O137 Tb95 2.320 . S
O137 C158 1.260 . S
O138 Tb95 2.552 . S
O138 C151 1.243 . S
O139 Tb95 2.413 . S
O139 C159 1.256 . S
C140 O129 1.283 . S
C140 O132 1.243 . S
C141 C143 1.382 . S
C141 C145 1.393 1_455 S
C141 C148 1.500 . S
C142 C143 1.400 . S
C142 C144 1.384 1_455 S
C143 C141 1.382 . S
C143 C142 1.400 . S
C143 H160 0.930 . S
C144 C142 1.384 1_655 S
C144 C146 1.392 . S
C144 H161 0.931 . S
C145 C141 1.393 1_655 S
C145 C146 1.401 . S
C145 H162 0.930 . S
C146 C144 1.392 . S
C146 C145 1.401 . S
C146 H163 0.930 . S
C147 O130 1.262 . S
C147 O131 1.260 . S
C148 Tb84 2.833 . S
C148 O128 1.251 . S
C148 O133 1.256 . S
C148 C141 1.500 . S
C149 H114 0.929 . S
C149 C127 1.444 . S
C149 C150 1.317 . S
C150 H112 0.930 . S
C150 C118 1.432 . S
C150 C149 1.317 . S
C151 O135 1.283 . S
C151 O138 1.243 . S
C152 C153 1.382 . S
C152 C156 1.393 . S
C152 C159 1.500 . S
C153 C152 1.382 . S
C153 C154 1.400 . S
C153 H164 0.930 . S
C154 C153 1.400 . S
C154 C155 1.384 . S
C155 C154 1.384 . S
C155 C157 1.392 . S
C155 H165 0.931 . S
C156 C152 1.393 . S
C156 C157 1.401 . S
C156 H166 0.930 . S
C157 C155 1.392 . S
C157 C156 1.401 . S
C157 H167 0.930 . S
C158 O136 1.262 . S
C158 O137 1.260 . S
C159 Tb95 2.833 . S
C159 O134 1.251 . S
C159 O139 1.256 . S
C159 C152 1.500 . S
H160 C143 0.930 . S
H161 C144 0.931 . S
H162 C145 0.930 . S
H163 C146 0.930 . S
H164 C153 0.930 . S
H165 C155 0.931 . S
H166 C156 0.930 . S
H167 C157 0.930 . S
Tb168 N199 2.660 . S
Tb168 N206 2.600 . S
Tb168 O212 2.546 . S
Tb168 O213 2.610 . S
Tb168 O215 2.320 . S
Tb168 O216 2.552 1_554 S
Tb168 O217 2.413 . S
Tb168 O219 2.362 . S
Tb168 O220 2.421 . S
Tb168 C232 2.833 . S
C169 C172 1.432 . S
C169 C173 1.414 . S
C169 N176 1.359 1_556 S
C170 C172 1.417 . S
C170 C174 1.432 . S
C170 C182 1.410 . S
C171 C173 1.444 . S
C171 C174 1.317 . S
C171 H194 0.929 . S
C172 C169 1.432 . S
C172 C170 1.417 . S
C172 N180 1.360 1_556 S
C173 C169 1.414 . S
C173 C171 1.444 . S
C173 C178 1.385 . S
C174 C170 1.432 . S
C174 C171 1.317 . S
C174 H186 0.930 . S
C175 C177 1.402 . S
C175 C178 1.375 1_554 S
C175 H187 0.916 1_655 S
N176 C169 1.359 1_554 S
N176 C177 1.327 . S
N176 Tb179 2.600 1_565 S
C177 C175 1.402 . S
C177 N176 1.327 . S
C177 H184 0.930 . S
C178 C173 1.385 . S
C178 C175 1.375 1_556 S
C178 H197 0.930 . S
Tb179 N176 2.600 1_545 S
Tb179 N180 2.660 1_545 S
Tb179 O213 2.362 . S
Tb179 O214 2.421 . S
Tb179 O218 2.546 1_545 S
Tb179 O219 2.610 . S
Tb179 O221 2.320 . S
Tb179 O222 2.552 . S
Tb179 O223 2.413 1_545 S
Tb179 C243 2.833 1_545 S
N180 C172 1.360 1_554 S
N180 Tb179 2.660 1_565 S
N180 C181 1.305 1_554 S
C181 N180 1.305 1_556 S
C181 C183 1.407 . S
C181 H188 0.930 1_556 S
C182 C170 1.410 . S
C182 C183 1.345 . S
C182 H190 0.930 . S
C183 C181 1.407 . S
C183 C182 1.345 . S
C183 H185 0.930 . S
H184 C177 0.930 . S
H185 C183 0.930 . S
H186 C174 0.930 . S
H187 C175 0.916 1_455 S
H188 C181 0.930 1_554 S
H189 C203 0.930 . S
H190 C182 0.930 . S
H191 C209 0.930 . S
H192 C200 0.930 1_455 S
H193 C207 0.931 . S
H194 C171 0.929 . S
H195 C201 0.930 . S
H196 C234 0.930 . S
H197 C178 0.930 . S
H198 C233 0.929 . S
N199 Tb168 2.660 . S
N199 C200 1.305 . S
N199 C204 1.360 . S
C200 H192 0.930 1_655 S
C200 N199 1.305 . S
C200 C203 1.407 1_655 S
C201 H195 0.930 . S
C201 C202 1.410 1_455 S
C201 C203 1.345 . S
C202 C201 1.410 1_655 S
C202 C204 1.417 . S
C202 C234 1.432 . S
C203 H189 0.930 . S
C203 C200 1.407 1_455 S
C203 C201 1.345 . S
C204 N199 1.360 . S
C204 C202 1.417 . S
C204 C208 1.432 . S
H205 C210 0.930 . S
N206 Tb168 2.600 . S
N206 C208 1.359 . S
N206 C209 1.327 . S
C207 H193 0.931 . S
C207 C209 1.392 . S
C207 C210 1.370 . S
C208 C204 1.432 . S
C208 N206 1.359 . S
C208 C211 1.414 . S
C209 H191 0.930 . S
C209 N206 1.327 . S
C209 C207 1.392 . S
C210 H205 0.930 . S
C210 C207 1.370 . S
C210 C211 1.385 . S
C211 C208 1.414 . S
C211 C210 1.385 . S
C211 C233 1.444 . S
O212 Tb168 2.546 . S
O212 C232 1.251 . S
O213 Tb168 2.610 . S
O213 Tb179 2.362 . S
O213 C224 1.283 1_554 S
O214 Tb179 2.421 . S
O214 C231 1.262 . S
O215 Tb168 2.320 . S
O215 C231 1.260 . S
O216 Tb168 2.552 1_556 S
O216 C224 1.243 . S
O217 Tb168 2.413 . S
O217 C232 1.256 . S
O218 Tb179 2.546 1_565 S
O218 C243 1.251 . S
O219 Tb168 2.362 . S
O219 Tb179 2.610 . S
O219 C235 1.283 . S
O220 Tb168 2.421 . S
O220 C242 1.262 . S
O221 Tb179 2.320 . S
O221 C242 1.260 . S
O222 Tb179 2.552 . S
O222 C235 1.243 . S
O223 Tb179 2.413 1_565 S
O223 C243 1.256 . S
C224 O213 1.283 1_556 S
C224 O216 1.243 . S
C225 C227 1.382 . S
C225 C229 1.393 . S
C225 C232 1.500 1_556 S
C226 C227 1.400 . S
C226 C228 1.384 . S
C227 C225 1.382 . S
C227 C226 1.400 . S
C227 H244 0.930 . S
C228 C226 1.384 . S
C228 C230 1.392 . S
C228 H245 0.931 . S
C229 C225 1.393 . S
C229 C230 1.401 . S
C229 H246 0.930 . S
C230 C228 1.392 . S
C230 C229 1.401 . S
C230 H247 0.930 . S
C231 O214 1.262 . S
C231 O215 1.260 . S
C232 Tb168 2.833 . S
C232 O212 1.251 . S
C232 O217 1.256 . S
C232 C225 1.500 1_554 S
C233 H198 0.929 . S
C233 C211 1.444 . S
C233 C234 1.317 . S
C234 H196 0.930 . S
C234 C202 1.432 . S
C234 C233 1.317 . S
C235 O219 1.283 . S
C235 O222 1.243 . S
C236 C237 1.382 . S
C236 C240 1.393 . S
C236 C243 1.500 . S
C237 C236 1.382 . S
C237 C238 1.400 . S
C237 H248 0.930 . S
C238 C237 1.400 . S
C238 C239 1.384 . S
C239 C238 1.384 . S
C239 C241 1.392 . S
C239 H249 0.931 . S
C240 C236 1.393 . S
C240 C241 1.401 . S
C240 H250 0.930 . S
C241 C239 1.392 . S
C241 C240 1.401 . S
C241 H251 0.930 . S
C242 O220 1.262 . S
C242 O221 1.260 . S
C243 Tb179 2.833 1_565 S
C243 O218 1.251 . S
C243 O223 1.256 . S
C243 C236 1.500 . S
H244 C227 0.930 . S
H245 C228 0.931 . S
H246 C229 0.930 . S
H247 C230 0.930 . S
H248 C237 0.930 . S
H249 C239 0.931 . S
H250 C240 0.930 . S
H251 C241 0.930 . S
Tb252 N283 2.660 . S
Tb252 N290 2.600 . S
Tb252 O296 2.546 . S
Tb252 O297 2.610 1_655 S
Tb252 O299 2.320 . S
Tb252 O300 2.552 1_655 S
Tb252 O301 2.413 . S
Tb252 O303 2.362 . S
Tb252 O304 2.421 . S
Tb252 C316 2.833 . S
C253 C256 1.432 . S
C253 C257 1.414 . S
C253 N260 1.359 . S
C254 C256 1.417 . S
C254 C258 1.432 . S
C254 C266 1.410 . S
C255 C257 1.444 . S
C255 C258 1.317 . S
C255 H278 0.929 . S
C256 C253 1.432 . S
C256 C254 1.417 . S
C256 N264 1.360 . S
C257 C253 1.414 . S
C257 C255 1.444 . S
C257 C262 1.385 . S
C258 C254 1.432 . S
C258 C255 1.317 . S
C258 H270 0.930 . S
C259 C261 1.392 1_545 S
C259 C262 1.370 1_545 S
C259 H271 0.931 . S
N260 C253 1.359 . S
N260 C261 1.327 . S
N260 Tb263 2.600 . S
C261 C259 1.392 1_565 S
C261 N260 1.327 . S
C261 H268 0.930 . S
C262 C257 1.385 . S
C262 C259 1.370 1_565 S
C262 H281 0.930 1_565 S
Tb263 N260 2.600 . S
Tb263 N264 2.660 . S
Tb263 O297 2.362 . S
Tb263 O298 2.421 . S
Tb263 O302 2.546 . S
Tb263 O303 2.610 1_455 S
Tb263 O305 2.320 . S
Tb263 O306 2.552 . S
Tb263 O307 2.413 . S
Tb263 C327 2.833 . S
N264 C256 1.360 . S
N264 Tb263 2.660 . S
N264 C265 1.305 . S
C265 N264 1.305 . S
C265 C267 1.407 . S
C265 H272 0.930 . S
C266 C254 1.410 . S
C266 C267 1.345 . S
C266 H274 0.930 . S
C267 C265 1.407 . S
C267 C266 1.345 . S
C267 H269 0.930 . S
H268 C261 0.930 . S
H269 C267 0.930 . S
H270 C258 0.930 . S
H271 C259 0.931 . S
H272 C265 0.930 . S
H273 C287 0.930 . S
H274 C266 0.930 . S
H275 C293 0.930 . S
H276 C284 0.930 . S
H277 C291 0.931 . S
H278 C255 0.929 . S
H279 C285 0.930 . S
H280 C318 0.930 . S
H281 C262 0.930 1_545 S
H282 C317 0.929 . S
N283 Tb252 2.660 . S
N283 C284 1.305 . S
N283 C288 1.360 . S
C284 H276 0.930 . S
C284 N283 1.305 . S
C284 C287 1.407 . S
C285 H279 0.930 . S
C285 C286 1.410 . S
C285 C287 1.345 . S
C286 C285 1.410 . S
C286 C288 1.417 . S
C286 C318 1.432 . S
C287 H273 0.930 . S
C287 C284 1.407 . S
C287 C285 1.345 . S
C288 N283 1.360 . S
C288 C286 1.417 . S
C288 C292 1.432 . S
H289 C294 0.930 . S
N290 Tb252 2.600 . S
N290 C292 1.359 . S
N290 C293 1.327 . S
C291 H277 0.931 . S
C291 C293 1.392 . S
C291 C294 1.370 . S
C292 C288 1.432 . S
C292 N290 1.359 . S
C292 C295 1.414 . S
C293 H275 0.930 . S
C293 N290 1.327 . S
C293 C291 1.392 . S
C294 H289 0.930 . S
C294 C291 1.370 . S
C294 C295 1.385 . S
C295 C292 1.414 . S
C295 C294 1.385 . S
C295 C317 1.444 . S
O296 Tb252 2.546 . S
O296 C316 1.251 . S
O297 Tb252 2.610 1_455 S
O297 Tb263 2.362 . S
O297 C308 1.283 . S
O298 Tb263 2.421 . S
O298 C315 1.262 . S
O299 Tb252 2.320 . S
O299 C315 1.260 1_655 S
O300 Tb252 2.552 1_455 S
O300 C308 1.243 . S
O301 Tb252 2.413 . S
O301 C316 1.256 . S
O302 Tb263 2.546 . S
O302 C327 1.251 . S
O303 Tb252 2.362 . S
O303 Tb263 2.610 1_655 S
O303 C319 1.283 . S
O304 Tb252 2.421 . S
O304 C326 1.262 1_655 S
O305 Tb263 2.320 . S
O305 C326 1.260 . S
O306 Tb263 2.552 . S
O306 C319 1.243 1_455 S
O307 Tb263 2.413 . S
O307 C327 1.256 . S
C308 O297 1.283 . S
C308 O300 1.243 . S
C309 C311 1.382 . S
C309 C313 1.393 . S
C309 C316 1.500 . S
C310 C311 1.400 . S
C310 C312 1.384 . S
C311 C309 1.382 . S
C311 C310 1.400 . S
C311 H328 0.930 . S
C312 C310 1.384 . S
C312 C314 1.392 . S
C312 H329 0.931 . S
C313 C309 1.393 . S
C313 C314 1.401 . S
C313 H330 0.930 . S
C314 C312 1.392 . S
C314 C313 1.401 . S
C314 H331 0.930 . S
C315 O298 1.262 . S
C315 O299 1.260 1_455 S
C316 Tb252 2.833 . S
C316 O296 1.251 . S
C316 O301 1.256 . S
C316 C309 1.500 . S
C317 H282 0.929 . S
C317 C295 1.444 . S
C317 C318 1.317 . S
C318 H280 0.930 . S
C318 C286 1.432 . S
C318 C317 1.317 . S
C319 O303 1.283 . S
C319 O306 1.243 1_655 S
C320 C321 1.382 . S
C320 C324 1.393 . S
C320 C327 1.500 . S
C321 C320 1.382 . S
C321 C322 1.400 . S
C321 H332 0.930 . S
C322 C321 1.400 . S
C322 C323 1.384 . S
C323 C322 1.384 . S
C323 C325 1.392 . S
C323 H333 0.931 . S
C324 C320 1.393 . S
C324 C325 1.401 . S
C324 H334 0.930 . S
C325 C323 1.392 . S
C325 C324 1.401 . S
C325 H335 0.930 . S
C326 O304 1.262 1_455 S
C326 O305 1.260 . S
C327 Tb263 2.833 . S
C327 O302 1.251 . S
C327 O307 1.256 . S
C327 C320 1.500 . S
H328 C311 0.930 . S
H329 C312 0.931 . S
H330 C313 0.930 . S
H331 C314 0.930 . S
H332 C321 0.930 . S
H333 C323 0.931 . S
H334 C324 0.930 . S
H335 C325 0.930 . S
C336 C337 1.391 1_655 S
C336 C338 1.394 1_655 S
C336 H352 0.931 . S
C337 C336 1.391 1_455 S
C337 C341 1.376 . S
C338 C336 1.394 1_455 S
C338 C339 1.369 . S
C338 C342 1.531 . S
C339 C338 1.369 . S
C339 C340 1.410 . S
C339 C347 1.503 . S
C340 C339 1.410 . S
C340 C341 1.392 . S
C340 C343 1.511 . S
C341 C337 1.376 . S
C341 C340 1.392 . S
C341 H353 0.929 . S
C342 C338 1.531 . S
C342 H354 0.960 1_545 S
C342 H355 0.962 . S
C342 H356 0.960 1_445 S
C343 C340 1.511 . S
C343 H357 0.961 . S
C343 H358 0.961 . S
C343 H359 0.961 . S
C344 C345 1.370 . S
C344 C346 1.363 . S
C344 H360 0.931 . S
C345 C344 1.370 . S
C345 C349 1.408 1_545 S
C346 C344 1.363 . S
C346 C347 1.370 . S
C346 C350 1.524 . S
C347 C339 1.503 . S
C347 C346 1.370 . S
C347 C348 1.403 . S
C348 C347 1.403 . S
C348 C349 1.404 1_545 S
C348 C351 1.539 1_545 S
C349 C345 1.408 1_565 S
C349 C348 1.404 1_565 S
C349 H361 0.930 . S
C350 C346 1.524 . S
C350 H362 0.956 . S
C350 H363 0.961 . S
C350 H364 0.961 . S
C351 C348 1.539 1_565 S
C351 H365 0.958 . S
C351 H366 0.961 . S
C351 H367 0.960 . S
H352 C336 0.931 . S
H353 C341 0.929 . S
H354 C342 0.960 1_565 S
H355 C342 0.962 . S
H356 C342 0.960 1_665 S
H357 C343 0.961 . S
H358 C343 0.961 . S
H359 C343 0.961 . S
H360 C344 0.931 . S
H361 C349 0.930 . S
H362 C350 0.956 . S
H363 C350 0.961 . S
H364 C350 0.961 . S
H365 C351 0.958 . S
H366 C351 0.961 . S
H367 C351 0.960 . S
C368 C369 1.391 . S
C368 C370 1.394 . S
C368 H384 0.931 . S
C369 C368 1.391 . S
C369 C373 1.370 1_455 S
C370 C368 1.394 . S
C370 C371 1.369 1_565 S
C370 C374 1.531 . S
C371 C370 1.369 1_545 S
C371 C372 1.410 . S
C371 C379 1.503 . S
C372 C371 1.410 . S
C372 C373 1.387 1_445 S
C372 C375 1.511 . S
C373 C369 1.370 1_655 S
C373 C372 1.387 1_665 S
C373 H385 0.940 . S
C374 C370 1.531 . S
C374 H386 0.960 1_565 S
C374 H387 0.962 1_565 S
C374 H388 0.960 . S
C375 C372 1.511 . S
C375 H389 0.961 1_455 S
C375 H390 0.961 . S
C375 H391 0.961 1_455 S
C376 C377 1.370 . S
C376 C378 1.363 . S
C376 H392 0.931 . S
C377 C376 1.370 . S
C377 C381 1.408 . S
C378 C376 1.363 . S
C378 C379 1.370 . S
C378 C382 1.524 . S
C379 C371 1.503 . S
C379 C378 1.370 . S
C379 C380 1.403 . S
C380 C379 1.403 . S
C380 C381 1.404 . S
C380 C383 1.539 . S
C381 C377 1.408 . S
C381 C380 1.404 . S
C381 H393 0.930 . S
C382 C378 1.524 . S
C382 H394 0.956 . S
C382 H395 0.961 . S
C382 H396 0.961 . S
C383 C380 1.539 . S
C383 H397 0.958 . S
C383 H398 0.961 . S
C383 H399 0.960 . S
H384 C368 0.931 . S
H385 C373 0.940 . S
H386 C374 0.960 1_545 S
H387 C374 0.962 1_545 S
H388 C374 0.960 . S
H389 C375 0.961 1_655 S
H390 C375 0.961 . S
H391 C375 0.961 1_655 S
H392 C376 0.931 . S
H393 C381 0.930 . S
H394 C382 0.956 . S
H395 C382 0.961 . S
H396 C382 0.961 . S
H397 C383 0.958 . S
H398 C383 0.961 . S
H399 C383 0.960 . S
C400 C401 1.391 . S
C400 C402 1.394 . S
C400 H416 0.931 . S
C401 C400 1.391 . S
C401 C405 1.376 . S
C402 C400 1.394 . S
C402 C403 1.369 . S
C402 C406 1.531 . S
C403 C402 1.369 . S
C403 C404 1.410 . S
C403 C411 1.503 . S
C404 C403 1.410 . S
C404 C405 1.392 . S
C404 C407 1.511 . S
C405 C401 1.376 . S
C405 C404 1.392 . S
C405 H417 0.929 . S
C406 C402 1.531 . S
C406 H418 0.960 . S
C406 H419 0.962 . S
C406 H420 0.960 . S
C407 C404 1.511 . S
C407 H421 0.961 . S
C407 H422 0.961 . S
C407 H423 0.961 . S
C408 C409 1.370 . S
C408 C410 1.363 . S
C408 H424 0.931 . S
C409 C408 1.370 . S
C409 C413 1.408 1_545 S
C410 C408 1.363 . S
C410 C411 1.370 . S
C410 C414 1.524 . S
C411 C403 1.503 . S
C411 C410 1.370 . S
C411 C412 1.403 1_545 S
C412 C411 1.403 1_565 S
C412 C413 1.404 . S
C412 C415 1.539 . S
C413 C409 1.408 1_565 S
C413 C412 1.404 . S
C413 H425 0.930 . S
C414 C410 1.524 . S
C414 H426 0.956 . S
C414 H427 0.961 . S
C414 H428 0.961 . S
C415 C412 1.539 . S
C415 H429 0.958 . S
C415 H430 0.961 . S
C415 H431 0.960 . S
H416 C400 0.931 . S
H417 C405 0.929 . S
H418 C406 0.960 . S
H419 C406 0.962 . S
H420 C406 0.960 . S
H421 C407 0.961 . S
H422 C407 0.961 . S
H423 C407 0.961 . S
H424 C408 0.931 . S
H425 C413 0.930 . S
H426 C414 0.956 . S
H427 C414 0.961 . S
H428 C414 0.961 . S
H429 C415 0.958 . S
H430 C415 0.961 . S
H431 C415 0.960 . S
C432 C433 1.391 . S
C432 C434 1.394 . S
C432 H448 0.931 . S
C433 C432 1.391 . S
C433 C437 1.376 . S
C434 C432 1.394 . S
C434 C435 1.369 . S
C434 C438 1.531 . S
C435 C434 1.369 . S
C435 C436 1.410 . S
C435 C443 1.503 . S
C436 C435 1.410 . S
C436 C437 1.392 . S
C436 C439 1.511 . S
C437 C433 1.376 . S
C437 C436 1.392 . S
C437 H449 0.929 . S
C438 C434 1.531 . S
C438 H450 0.960 . S
C438 H451 0.962 . S
C438 H452 0.960 . S
C439 C436 1.511 . S
C439 H453 0.961 . S
C439 H454 0.961 . S
C439 H455 0.961 . S
C440 C441 1.370 . S
C440 C442 1.363 . S
C440 H456 0.931 . S
C441 C440 1.370 . S
C441 C445 1.408 1_455 S
C442 C440 1.363 . S
C442 C443 1.370 . S
C442 C446 1.524 . S
C443 C435 1.503 . S
C443 C442 1.370 . S
C443 C444 1.403 . S
C444 C443 1.403 . S
C444 C445 1.404 1_455 S
C444 C447 1.539 1_455 S
C445 C441 1.408 1_655 S
C445 C444 1.404 1_655 S
C445 H457 0.930 . S
C446 C442 1.524 . S
C446 H458 0.956 . S
C446 H459 0.961 . S
C446 H460 0.961 . S
C447 C444 1.539 1_655 S
C447 H461 0.958 . S
C447 H462 0.961 . S
C447 H463 0.960 1_655 S
H448 C432 0.931 . S
H449 C437 0.929 . S
H450 C438 0.960 . S
H451 C438 0.962 . S
H452 C438 0.960 . S
H453 C439 0.961 . S
H454 C439 0.961 . S
H455 C439 0.961 . S
H456 C440 0.931 . S
H457 C445 0.930 . S
H458 C446 0.956 . S
H459 C446 0.961 . S
H460 C446 0.961 . S
H461 C447 0.958 . S
H462 C447 0.961 . S
H463 C447 0.960 1_455 S
C464 C465 1.391 . S
C464 C466 1.394 . S
C464 H480 0.931 . S
C465 C464 1.391 . S
C465 C469 1.376 . S
C466 C464 1.394 . S
C466 C467 1.369 . S
C466 C470 1.531 . S
C467 C466 1.369 . S
C467 C468 1.410 . S
C467 C475 1.503 . S
C468 C467 1.410 . S
C468 C469 1.392 . S
C468 C471 1.511 . S
C469 C465 1.376 . S
C469 C468 1.392 . S
C469 H481 0.929 . S
C470 C466 1.531 . S
C470 H482 0.960 . S
C470 H483 0.962 . S
C470 H484 0.960 . S
C471 C468 1.511 . S
C471 H485 0.961 . S
C471 H486 0.961 . S
C471 H487 0.961 . S
C472 C473 1.370 . S
C472 C474 1.363 . S
C472 H488 0.931 . S
C473 C472 1.370 . S
C473 C477 1.408 . S
C474 C472 1.363 . S
C474 C475 1.370 . S
C474 C478 1.524 . S
C475 C467 1.503 . S
C475 C474 1.370 . S
C475 C476 1.403 . S
C476 C475 1.403 . S
C476 C477 1.404 . S
C476 C479 1.539 . S
C477 C473 1.408 . S
C477 C476 1.404 . S
C477 H489 0.930 . S
C478 C474 1.524 . S
C478 H490 0.956 . S
C478 H491 0.961 . S
C478 H492 0.961 . S
C479 C476 1.539 . S
C479 H493 0.958 . S
C479 H494 0.961 . S
C479 H495 0.960 . S
H480 C464 0.931 . S
H481 C469 0.929 . S
H482 C470 0.960 . S
H483 C470 0.962 . S
H484 C470 0.960 . S
H485 C471 0.961 . S
H486 C471 0.961 . S
H487 C471 0.961 . S
H488 C472 0.931 . S
H489 C477 0.930 . S
H490 C478 0.956 . S
H491 C478 0.961 . S
H492 C478 0.961 . S
H493 C479 0.958 . S
H494 C479 0.961 . S
H495 C479 0.960 . S
C496 C497 1.391 . S
C496 C498 1.394 . S
C496 H512 0.931 . S
C497 C496 1.391 . S
C497 C501 1.376 . S
C498 C496 1.394 . S
C498 C499 1.369 . S
C498 C502 1.531 . S
C499 C498 1.369 . S
C499 C500 1.410 . S
C499 C507 1.503 . S
C500 C499 1.410 . S
C500 C501 1.392 . S
C500 C503 1.511 . S
C501 C497 1.376 . S
C501 C500 1.392 . S
C501 H513 0.929 . S
C502 C498 1.531 . S
C502 H514 0.960 . S
C502 H515 0.962 . S
C502 H516 0.960 . S
C503 C500 1.511 . S
C503 H517 0.961 . S
C503 H518 0.961 . S
C503 H519 0.961 . S
C504 C505 1.370 . S
C504 C506 1.363 . S
C504 H520 0.931 . S
C505 C504 1.370 . S
C505 C509 1.408 1_655 S
C506 C504 1.363 . S
C506 C507 1.370 1_655 S
C506 C510 1.524 . S
C507 C499 1.503 . S
C507 C506 1.370 1_455 S
C507 C508 1.403 . S
C508 C507 1.403 . S
C508 C509 1.404 . S
C508 C511 1.539 . S
C509 C505 1.408 1_455 S
C509 C508 1.404 . S
C509 H521 0.930 . S
C510 C506 1.524 . S
C510 H522 0.956 . S
C510 H523 0.961 . S
C510 H524 0.961 . S
C511 C508 1.539 . S
C511 H525 0.958 . S
C511 H526 0.961 . S
C511 H527 0.960 . S
H512 C496 0.931 . S
H513 C501 0.929 . S
H514 C502 0.960 . S
H515 C502 0.962 . S
H516 C502 0.960 . S
H517 C503 0.961 . S
H518 C503 0.961 . S
H519 C503 0.961 . S
H520 C504 0.931 . S
H521 C509 0.930 . S
H522 C510 0.956 . S
H523 C510 0.961 . S
H524 C510 0.961 . S
H525 C511 0.958 . S
H526 C511 0.961 . S
H527 C511 0.960 . S
C528 C529 1.391 . S
C528 C530 1.394 . S
C528 H544 0.931 . S
C529 C528 1.391 . S
C529 C533 1.376 . S
C530 C528 1.394 . S
C530 C531 1.369 . S
C530 C534 1.531 . S
C531 C530 1.369 . S
C531 C532 1.410 . S
C531 C539 1.503 . S
C532 C531 1.410 . S
C532 C533 1.392 . S
C532 C535 1.511 . S
C533 C529 1.376 . S
C533 C532 1.392 . S
C533 H545 0.929 . S
C534 C530 1.531 . S
C534 H546 0.960 . S
C534 H547 0.962 . S
C534 H548 0.960 . S
C535 C532 1.511 . S
C535 H549 0.961 . S
C535 H550 0.961 . S
C535 H551 0.961 . S
C536 C537 1.370 . S
C536 C538 1.363 . S
C536 H552 0.931 1_565 S
C537 C536 1.370 . S
C537 C541 1.408 . S
C538 C536 1.363 . S
C538 C539 1.370 . S
C538 C542 1.524 . S
C539 C531 1.503 . S
C539 C538 1.370 . S
C539 C540 1.403 . S
C540 C539 1.403 . S
C540 C541 1.404 . S
C540 C543 1.539 . S
C541 C537 1.408 . S
C541 C540 1.404 . S
C541 H553 0.930 . S
C542 C538 1.524 . S
C542 H554 0.956 . S
C542 H555 0.961 . S
C542 H556 0.961 1_565 S
C543 C540 1.539 . S
C543 H557 0.958 . S
C543 H558 0.961 . S
C543 H559 0.960 . S
H544 C528 0.931 . S
H545 C533 0.929 . S
H546 C534 0.960 . S
H547 C534 0.962 . S
H548 C534 0.960 . S
H549 C535 0.961 . S
H550 C535 0.961 . S
H551 C535 0.961 . S
H552 C536 0.931 1_545 S
H553 C541 0.930 . S
H554 C542 0.956 . S
H555 C542 0.961 . S
H556 C542 0.961 1_545 S
H557 C543 0.958 . S
H558 C543 0.961 . S
H559 C543 0.960 . S
C560 C561 1.391 . S
C560 C562 1.394 . S
C560 H576 0.931 . S
C561 C560 1.391 . S
C561 C565 1.376 . S
C562 C560 1.394 . S
C562 C563 1.369 . S
C562 C566 1.531 . S
C563 C562 1.369 . S
C563 C564 1.410 . S
C563 C571 1.503 . S
C564 C563 1.410 . S
C564 C565 1.392 . S
C564 C567 1.511 . S
C565 C561 1.376 . S
C565 C564 1.392 . S
C565 H577 0.929 . S
C566 C562 1.531 . S
C566 H578 0.960 . S
C566 H579 0.962 . S
C566 H580 0.960 . S
C567 C564 1.511 . S
C567 H581 0.961 . S
C567 H582 0.961 . S
C567 H583 0.961 . S
C568 C569 1.370 . S
C568 C570 1.363 1_554 S
C568 H584 0.931 . S
C569 C568 1.370 . S
C569 C573 1.408 . S
C570 C568 1.363 1_556 S
C570 C571 1.370 . S
C570 C574 1.524 . S
C571 C563 1.503 . S
C571 C570 1.370 . S
C571 C572 1.403 . S
C572 C571 1.403 . S
C572 C573 1.404 1_556 S
C572 C575 1.539 1_565 S
C573 C569 1.408 . S
C573 C572 1.404 1_554 S
C573 H585 0.930 1_565 S
C574 C570 1.524 . S
C574 H586 0.956 . S
C574 H587 0.961 . S
C574 H588 0.961 . S
C575 C572 1.539 1_545 S
C575 H589 0.958 . S
C575 H590 0.954 1_556 S
C575 H591 0.960 1_545 S
H576 C560 0.931 . S
H577 C565 0.929 . S
H578 C566 0.960 . S
H579 C566 0.962 . S
H580 C566 0.960 . S
H581 C567 0.961 . S
H582 C567 0.961 . S
H583 C567 0.961 . S
H584 C568 0.931 . S
H585 C573 0.930 1_545 S
H586 C574 0.956 . S
H587 C574 0.961 . S
H588 C574 0.961 . S
H589 C575 0.958 . S
H590 C575 0.954 1_554 S
H591 C575 0.960 1_565 S
C592 C593 1.391 . S
C592 C594 1.394 1_545 S
C592 H608 0.931 . S
C593 C592 1.391 . S
C593 C597 1.376 1_545 S
C594 C592 1.394 1_565 S
C594 C595 1.369 . S
C594 C598 1.531 . S
C595 C594 1.369 . S
C595 C596 1.410 . S
C595 C603 1.503 . S
C596 C595 1.410 . S
C596 C597 1.392 . S
C596 C599 1.511 1_655 S
C597 C593 1.376 1_565 S
C597 C596 1.392 . S
C597 H609 0.929 1_565 S
C598 C594 1.531 . S
C598 H610 0.960 . S
C598 H611 0.962 . S
C598 H612 0.960 . S
C599 C596 1.511 1_455 S
C599 H613 0.961 . S
C599 H614 0.961 . S
C599 H615 0.961 . S
C600 C601 1.370 . S
C600 C602 1.363 . S
C600 H616 0.931 . S
C601 C600 1.370 . S
C601 C605 1.408 . S
C602 C600 1.363 . S
C602 C603 1.370 . S
C602 C606 1.524 . S
C603 C595 1.503 . S
C603 C602 1.370 . S
C603 C604 1.403 . S
C604 C603 1.403 . S
C604 C605 1.404 . S
C604 C607 1.539 1_565 S
C605 C601 1.408 . S
C605 C604 1.404 . S
C605 H617 0.930 . S
C606 C602 1.524 . S
C606 H618 0.956 . S
C606 H619 0.961 . S
C606 H620 0.961 . S
C607 C604 1.539 1_545 S
C607 H621 0.958 . S
C607 H622 0.961 . S
C607 H623 0.960 . S
H608 C592 0.931 . S
H609 C597 0.929 1_545 S
H610 C598 0.960 . S
H611 C598 0.962 . S
H612 C598 0.960 . S
H613 C599 0.961 . S
H614 C599 0.961 . S
H615 C599 0.961 . S
H616 C600 0.931 . S
H617 C605 0.930 . S
H618 C606 0.956 . S
H619 C606 0.961 . S
H620 C606 0.961 . S
H621 C607 0.958 . S
H622 C607 0.961 . S
H623 C607 0.960 . S
C624 C625 1.391 . S
C624 C626 1.394 . S
C624 H640 0.931 . S
C625 C624 1.391 . S
C625 C629 1.376 . S
C626 C624 1.394 . S
C626 C627 1.369 . S
C626 C630 1.531 . S
C627 C626 1.369 . S
C627 C628 1.410 . S
C627 C635 1.503 . S
C628 C627 1.410 . S
C628 C629 1.392 . S
C628 C631 1.511 . S
C629 C625 1.376 . S
C629 C628 1.392 . S
C629 H641 0.929 . S
C630 C626 1.531 . S
C630 H642 0.960 . S
C630 H643 0.962 . S
C630 H644 0.960 . S
C631 C628 1.511 . S
C631 H645 0.961 . S
C631 H646 0.961 . S
C631 H647 0.961 . S
C632 C633 1.370 . S
C632 C634 1.363 . S
C632 H648 0.931 . S
C633 C632 1.370 . S
C633 C637 1.408 . S
C634 C632 1.363 . S
C634 C635 1.370 . S
C634 C638 1.524 . S
C635 C627 1.503 . S
C635 C634 1.370 . S
C635 C636 1.403 . S
C636 C635 1.403 . S
C636 C637 1.404 . S
C636 C639 1.539 . S
C637 C633 1.408 . S
C637 C636 1.404 . S
C637 H649 0.930 . S
C638 C634 1.524 . S
C638 H650 0.956 . S
C638 H651 0.961 . S
C638 H652 0.961 . S
C639 C636 1.539 . S
C639 H653 0.958 . S
C639 H654 0.961 . S
C639 H655 0.960 . S
H640 C624 0.931 . S
H641 C629 0.929 . S
H642 C630 0.960 . S
H643 C630 0.962 . S
H644 C630 0.960 . S
H645 C631 0.961 . S
H646 C631 0.961 . S
H647 C631 0.961 . S
H648 C632 0.931 . S
H649 C637 0.930 . S
H650 C638 0.956 . S
H651 C638 0.961 . S
H652 C638 0.961 . S
H653 C639 0.958 . S
H654 C639 0.961 . S
H655 C639 0.960 . S
C656 C657 1.391 . S
C656 C658 1.394 . S
C656 H672 0.931 . S
C657 C656 1.391 . S
C657 C661 1.376 . S
C658 C656 1.394 . S
C658 C659 1.369 . S
C658 C662 1.531 . S
C659 C658 1.369 . S
C659 C660 1.410 . S
C659 C667 1.503 . S
C660 C659 1.410 . S
C660 C661 1.392 . S
C660 C663 1.511 . S
C661 C657 1.376 . S
C661 C660 1.392 . S
C661 H673 0.929 . S
C662 C658 1.531 . S
C662 H674 0.960 . S
C662 H675 0.962 . S
C662 H676 0.960 . S
C663 C660 1.511 . S
C663 H677 0.961 . S
C663 H678 0.961 . S
C663 H679 0.961 . S
C664 C665 1.370 1_556 S
C664 C666 1.363 . S
C664 H680 0.931 . S
C665 C664 1.370 1_554 S
C665 C669 1.408 . S
C666 C664 1.363 . S
C666 C667 1.370 . S
C666 C670 1.524 . S
C667 C659 1.503 . S
C667 C666 1.370 . S
C667 C668 1.403 1_556 S
C668 C667 1.403 1_554 S
C668 C669 1.404 . S
C668 C671 1.539 . S
C669 C665 1.408 . S
C669 C668 1.404 . S
C669 H681 0.930 . S
C670 C666 1.524 . S
C670 H682 0.956 . S
C670 H683 0.961 . S
C670 H684 0.961 . S
C671 C668 1.539 . S
C671 H685 0.958 . S
C671 H686 0.961 . S
C671 H687 0.960 1_554 S
H672 C656 0.931 . S
H673 C661 0.929 . S
H674 C662 0.960 . S
H675 C662 0.962 . S
H676 C662 0.960 . S
H677 C663 0.961 . S
H678 C663 0.961 . S
H679 C663 0.961 . S
H680 C664 0.931 . S
H681 C669 0.930 . S
H682 C670 0.956 . S
H683 C670 0.961 . S
H684 C670 0.961 . S
H685 C671 0.958 . S
H686 C671 0.961 . S
H687 C671 0.960 1_556 S
C688 C689 1.391 . S
C688 C690 1.394 . S
C688 H704 0.931 . S
C689 C688 1.391 . S
C689 C693 1.376 . S
C690 C688 1.394 . S
C690 C691 1.369 . S
C690 C694 1.531 . S
C691 C690 1.369 . S
C691 C692 1.410 . S
C691 C699 1.503 . S
C692 C691 1.410 . S
C692 C693 1.392 . S
C692 C695 1.511 1_655 S
C693 C689 1.376 . S
C693 C692 1.392 . S
C693 H705 0.929 . S
C694 C690 1.531 . S
C694 H706 0.960 . S
C694 H707 0.962 . S
C694 H708 0.960 . S
C695 C692 1.511 1_455 S
C695 H709 0.961 . S
C695 H710 0.961 . S
C695 H711 0.961 . S
C696 C697 1.366 1_655 S
C696 C698 1.366 . S
C696 H712 0.932 1_655 S
C697 C696 1.366 1_455 S
C697 C701 1.408 . S
C698 C696 1.366 . S
C698 C699 1.370 . S
C698 C702 1.524 . S
C699 C691 1.503 . S
C699 C698 1.370 . S
C699 C700 1.403 . S
C700 C699 1.403 . S
C700 C701 1.404 1_655 S
C700 C703 1.539 . S
C701 C697 1.408 . S
C701 C700 1.404 1_455 S
C701 H713 0.930 . S
C702 C698 1.524 . S
C702 H714 0.956 . S
C702 H715 0.961 . S
C702 H716 0.961 . S
C703 C700 1.539 . S
C703 H717 0.958 . S
C703 H718 0.961 1_655 S
C703 H719 0.960 . S
H704 C688 0.931 . S
H705 C693 0.929 . S
H706 C694 0.960 . S
H707 C694 0.962 . S
H708 C694 0.960 . S
H709 C695 0.961 . S
H710 C695 0.961 . S
H711 C695 0.961 . S
H712 C696 0.932 1_455 S
H713 C701 0.930 . S
H714 C702 0.956 . S
H715 C702 0.961 . S
H716 C702 0.961 . S
H717 C703 0.958 . S
H718 C703 0.961 1_455 S
H719 C703 0.960 . S
C337 C231 0.841 1_455 S
C345 C74 0.725 . S
C369 C315 0.607 . S
C377 C158 0.519 . S
C401 C242 1.234 . S
C409 C63 1.280 . S
C433 C147 1.300 . S
C441 C326 1.369 . S
C465 C140 1.956 . S
C473 C67 2.098 . S
C497 C151 2.045 . S
C505 C226 2.100 . S
C529 C310 1.072 . S
C537 C238 0.924 . S
C561 C322 0.695 . S
C569 C56 0.827 . S
C593 C224 2.059 . S
C601 C319 1.925 . S
C625 C70 2.112 . S
C633 C308 2.068 . S
C657 C154 1.085 . S
C665 C58 0.902 . S
C689 C235 0.782 . S
C697 C142 0.765 . S
