# Generated by pormake.
# Topology wje, (4)-cn, num edge types: 1
# Building blocks:
#     Node 0, Type 0, BuildingBlock: ICAMEG_clean_sbu_1, # of connection points: 4
#     Node 1, Type 0, BuildingBlock: ICAMEG_clean_sbu_1, # of connection points: 4
#     Node 2, Type 0, BuildingBlock: ICAMEG_clean_sbu_1, # of connection points: 4
#     Node 3, Type 0, BuildingBlock: ICAMEG_clean_sbu_1, # of connection points: 4
#     Node 4, Type 0, BuildingBlock: ICAMEG_clean_sbu_1, # of connection points: 4
#     Node 5, Type 0, BuildingBlock: ICAMEG_clean_sbu_1, # of connection points: 4
#     Node 6, Type 0, BuildingBlock: ICAMEG_clean_sbu_1, # of connection points: 4
#     Node 7, Type 0, BuildingBlock: ICAMEG_clean_sbu_1, # of connection points: 4
#     Node 8, Type 0, BuildingBlock: ICAMEG_clean_sbu_1, # of connection points: 4
#     Node 9, Type 0, BuildingBlock: ICAMEG_clean_sbu_1, # of connection points: 4
#     Node 10, Type 0, BuildingBlock: ICAMEG_clean_sbu_1, # of connection points: 4
#     Node 11, Type 0, BuildingBlock: ICAMEG_clean_sbu_1, # of connection points: 4
#     Edge 12, Type (0, 0), BuildingBlock: ZUJKAS_clean_linker_0, # of connection points: 2
#     Edge 13, Type (0, 0), BuildingBlock: ZUJKAS_clean_linker_0, # of connection points: 2
#     Edge 14, Type (0, 0), BuildingBlock: ZUJKAS_clean_linker_0, # of connection points: 2
#     Edge 15, Type (0, 0), BuildingBlock: ZUJKAS_clean_linker_0, # of connection points: 2
#     Edge 16, Type (0, 0), BuildingBlock: ZUJKAS_clean_linker_0, # of connection points: 2
#     Edge 17, Type (0, 0), BuildingBlock: ZUJKAS_clean_linker_0, # of connection points: 2
#     Edge 18, Type (0, 0), BuildingBlock: ZUJKAS_clean_linker_0, # of connection points: 2
#     Edge 19, Type (0, 0), BuildingBlock: ZUJKAS_clean_linker_0, # of connection points: 2
#     Edge 20, Type (0, 0), BuildingBlock: ZUJKAS_clean_linker_0, # of connection points: 2
#     Edge 21, Type (0, 0), BuildingBlock: ZUJKAS_clean_linker_0, # of connection points: 2
#     Edge 22, Type (0, 0), BuildingBlock: ZUJKAS_clean_linker_0, # of connection points: 2
#     Edge 23, Type (0, 0), BuildingBlock: ZUJKAS_clean_linker_0, # of connection points: 2
#     Edge 24, Type (0, 0), BuildingBlock: ZUJKAS_clean_linker_0, # of connection points: 2
#     Edge 25, Type (0, 0), BuildingBlock: ZUJKAS_clean_linker_0, # of connection points: 2
#     Edge 26, Type (0, 0), BuildingBlock: ZUJKAS_clean_linker_0, # of connection points: 2
#     Edge 27, Type (0, 0), BuildingBlock: ZUJKAS_clean_linker_0, # of connection points: 2
#     Edge 28, Type (0, 0), BuildingBlock: ZUJKAS_clean_linker_0, # of connection points: 2
#     Edge 29, Type (0, 0), BuildingBlock: ZUJKAS_clean_linker_0, # of connection points: 2
#     Edge 30, Type (0, 0), BuildingBlock: ZUJKAS_clean_linker_0, # of connection points: 2
#     Edge 31, Type (0, 0), BuildingBlock: ZUJKAS_clean_linker_0, # of connection points: 2
#     Edge 32, Type (0, 0), BuildingBlock: ZUJKAS_clean_linker_0, # of connection points: 2
#     Edge 33, Type (0, 0), BuildingBlock: ZUJKAS_clean_linker_0, # of connection points: 2
#     Edge 34, Type (0, 0), BuildingBlock: ZUJKAS_clean_linker_0, # of connection points: 2
#     Edge 35, Type (0, 0), BuildingBlock: ZUJKAS_clean_linker_0, # of connection points: 2
# Relax obj value: 0.132
# Max RMSD: 0.100
# Mean RMSD: 0.100
data_MOF--net-wje--node1-ICAMEG_clean_sbu_1--edge1-ZUJKAS_clean_linker_0
_symmetry_space_group_name_H-M    P1
_symmetry_Int_Tables_number       1
_symmetry_cell_setting            triclinic
loop_
_symmetry_equiv_pos_as_xyz
'x, y, z'
_cell_length_a     54.337397
_cell_length_b     54.322908
_cell_length_c     52.251347
_cell_angle_alpha  89.986491
_cell_angle_beta   89.985061
_cell_angle_gamma 119.9859
loop_
_atom_site_label
_atom_site_type_symbol
_atom_site_fract_x
_atom_site_fract_y
_atom_site_fract_z
_atom_type_partial_charge
Co0 Co 0.31723 0.99265 0.3181 0.0
Co1 Co 0.31255 0.05276 0.33064 0.0
O2 O 0.32884 0.03265 0.31232 0.0
C3 C 0.3796 0.01931 0.32728 0.0
O4 O 0.37841 0.03802 0.34238 0.0
C5 C 0.30362 0.06169 0.27595 0.0
O6 O 0.29448 0.0346 0.272 0.0
O7 O 0.27276 0.02156 0.324 0.0
O8 O 0.27669 0.98246 0.32089 0.0
H9 H 0.24754 0.06201 0.3934 0.0
H10 H 0.35283 0.02326 0.27338 0.0
O11 O 0.35751 1.00114 0.31533 0.0
H12 H 0.26581 0.9431 0.23722 0.0
H13 H 0.3189 0.90203 0.30214 0.0
H14 H 0.27709 0.94805 0.35361 0.0
H15 H 0.27212 0.94957 0.28394 0.0
H16 H 0.33296 0.95221 0.29474 0.0
O17 O 0.31191 0.07229 0.29817 0.0
H18 H 0.26805 0.03688 0.3703 0.0
H19 H 0.32326 0.11224 0.32941 0.0
H20 H 0.26218 0.89772 0.36146 0.0
H21 H 0.34759 0.01747 0.22651 0.0
H22 H 0.28316 0.8744 0.33563 0.0
H23 H 0.30377 0.97721 0.20815 0.0
O24 O 0.32187 0.99868 0.35593 0.0
H25 H 0.41347 0.123 0.30695 0.0
H26 H 0.34361 0.0851 0.37726 0.0
H27 H 0.39277 0.12274 0.38629 0.0
H28 H 0.42807 0.14199 0.35098 0.0
H29 H 0.36412 0.08516 0.29881 0.0
H30 H 0.3032 0.13813 0.35192 0.0
H31 H 0.26512 0.11301 0.38425 0.0
O32 O 0.3129 0.03417 0.36347 0.0
C33 C 0.2619 0.99467 0.32218 0.0
C34 C 0.26416 0.07321 0.3794 0.0
C35 C 0.29537 0.11592 0.35609 0.0
N36 N 0.29692 0.07311 0.34862 0.0
C37 C 0.2759 0.05911 0.3663 0.0
C38 C 0.3066 0.10113 0.34336 0.0
C39 C 0.27402 0.10181 0.37424 0.0
C40 C 0.33379 0.00558 0.26552 0.0
N41 N 0.31275 0.98681 0.28137 0.0
C42 C 0.33091 0.00246 0.23897 0.0
C43 C 0.3063 0.97989 0.22869 0.0
C44 C 0.28498 0.96077 0.24498 0.0
C45 C 0.28858 0.9646 0.27143 0.0
C46 C 0.30959 0.91195 0.31351 0.0
C47 C 0.28621 0.93801 0.3422 0.0
C48 C 0.31755 0.94039 0.30947 0.0
N49 N 0.30579 0.95303 0.32367 0.0
C50 C 0.27773 0.90952 0.34678 0.0
C51 C 0.28953 0.89646 0.33229 0.0
C52 C 0.31791 0.0148 0.37112 0.0
C53 C 0.39826 0.11484 0.32249 0.0
C54 C 0.35886 0.0933 0.3618 0.0
C55 C 0.38666 0.11466 0.36702 0.0
C56 C 0.40645 0.12546 0.3472 0.0
N57 N 0.35098 0.08305 0.33749 0.0
C58 C 0.37027 0.09349 0.31797 0.0
Co59 Co 0.32595 0.32007 0.65144 0.0
Co60 Co 0.26102 0.31462 0.66533 0.0
O61 O 0.29707 0.33118 0.64641 0.0
C62 C 0.36123 0.38239 0.66132 0.0
O63 O 0.34168 0.38062 0.67722 0.0
C64 C 0.24218 0.30496 0.61092 0.0
O65 O 0.26062 0.29652 0.60662 0.0
O66 O 0.25294 0.27495 0.65891 0.0
O67 O 0.29601 0.27928 0.65397 0.0
H68 H 0.18869 0.24976 0.72951 0.0
H69 H 0.32952 0.35581 0.60728 0.0
O70 O 0.35726 0.36061 0.64878 0.0
H71 H 0.32456 0.2702 0.56967 0.0
H72 H 0.41893 0.32375 0.63401 0.0
H73 H 0.33145 0.27983 0.686 0.0
H74 H 0.32485 0.27597 0.61651 0.0
H75 H 0.38216 0.33708 0.62748 0.0
O76 O 0.24 0.31319 0.63321 0.0
H77 H 0.23386 0.27063 0.70564 0.0
H78 H 0.21159 0.3243 0.66483 0.0
H79 H 0.36754 0.26564 0.69297 0.0
H80 H 0.32962 0.35113 0.56032 0.0
H81 H 0.41168 0.28768 0.66688 0.0
H82 H 0.327 0.30801 0.54123 0.0
O83 O 0.32495 0.32424 0.68941 0.0
H84 H 0.28963 0.4149 0.64098 0.0
H85 H 0.26015 0.34596 0.71191 0.0
H86 H 0.27101 0.39499 0.72067 0.0
H87 H 0.28582 0.42983 0.68504 0.0
H88 H 0.27879 0.36569 0.63311 0.0
H89 H 0.16607 0.30386 0.68811 0.0
H90 H 0.15442 0.26638 0.72078 0.0
O91 O 0.28081 0.31572 0.6978 0.0
C92 C 0.26908 0.26433 0.65608 0.0
C93 C 0.19354 0.26612 0.71535 0.0
C94 C 0.18083 0.29645 0.69209 0.0
N95 N 0.22541 0.29873 0.68394 0.0
C96 C 0.21911 0.27805 0.70181 0.0
C97 C 0.20661 0.30789 0.67892 0.0
C98 C 0.17431 0.27543 0.71043 0.0
C99 C 0.32853 0.33706 0.5991 0.0
N100 N 0.32699 0.31608 0.61461 0.0
C101 C 0.32853 0.3345 0.5725 0.0
C102 C 0.32703 0.31029 0.56181 0.0
C103 C 0.32561 0.28905 0.57775 0.0
C104 C 0.32561 0.29233 0.60426 0.0
C105 C 0.39978 0.31398 0.64548 0.0
C106 C 0.35053 0.2894 0.67447 0.0
C107 C 0.37893 0.32152 0.64194 0.0
N108 N 0.35463 0.30916 0.65627 0.0
C109 C 0.37092 0.28133 0.67855 0.0
C110 C 0.39569 0.29373 0.66392 0.0
C111 C 0.30527 0.32058 0.70497 0.0
C112 C 0.28313 0.39989 0.65665 0.0
C113 C 0.26665 0.36101 0.69631 0.0
C114 C 0.27272 0.38873 0.70138 0.0
C115 C 0.28101 0.40826 0.68138 0.0
N116 N 0.26869 0.35294 0.67198 0.0
C117 C 0.27687 0.37198 0.65229 0.0
Co118 Co 0.01366 0.3256 0.9837 0.0
Co119 Co 0.954 0.26068 0.99692 0.0
O120 O 0.97363 0.29703 0.9785 0.0
C121 C 0.98652 0.36067 0.99392 0.0
O122 O 0.9684 0.34061 0.00925 0.0
C123 C 0.94437 0.2428 0.94228 0.0
O124 O 0.97134 0.26092 0.93802 0.0
O125 O 0.98526 0.25235 0.98971 0.0
O126 O 0.0242 0.29541 0.98588 0.0
H127 H 0.94627 0.18676 0.05935 0.0
H128 H 0.98198 0.33033 0.93973 0.0
O129 O 0.00471 0.35715 0.98151 0.0
H130 H 0.06187 0.32429 0.90172 0.0
H131 H 0.10338 0.41839 0.96688 0.0
H132 H 0.05917 0.33035 0.01812 0.0
H133 H 0.05628 0.32403 0.94857 0.0
H134 H 0.05318 0.38198 0.96021 0.0
O135 O 0.93407 0.24039 0.96466 0.0
H136 H 0.97077 0.23237 0.03614 0.0
H137 H 0.89467 0.21167 0.99637 0.0
H138 H 0.10953 0.36606 0.02523 0.0
H139 H 0.98689 0.33098 0.89274 0.0
H140 H 0.13195 0.41048 0.99951 0.0
H141 H 0.02701 0.32782 0.87346 0.0
O142 O 0.00838 0.32417 0.02164 0.0
H143 H 0.88293 0.29073 0.97461 0.0
H144 H 0.9223 0.25929 0.04407 0.0
H145 H 0.88458 0.27052 0.0538 0.0
H146 H 0.8646 0.28632 0.01892 0.0
H147 H 0.92085 0.27951 0.96576 0.0
H148 H 0.8694 0.16573 0.01899 0.0
H149 H 0.89522 0.15307 0.05082 0.0
O150 O 0.97302 0.27976 0.02955 0.0
C151 C 0.01207 0.26841 0.98729 0.0
C152 C 0.93478 0.19205 0.04557 0.0
C153 C 0.89165 0.18024 0.0229 0.0
N154 N 0.93414 0.22474 0.01502 0.0
C155 C 0.94852 0.21788 0.03241 0.0
C156 C 0.90609 0.20625 0.01009 0.0
C157 C 0.90614 0.17315 0.04076 0.0
C158 C 0.9996 0.32914 0.93146 0.0
N159 N 0.01878 0.32704 0.94687 0.0
C160 C 1.00222 0.32943 0.90485 0.0
C161 C 0.02471 0.32763 0.89404 0.0
C162 C 0.04426 0.3256 0.90989 0.0
C163 C 0.04092 0.32532 0.93641 0.0
C164 C 0.09386 0.39912 0.97819 0.0
C165 C 0.06882 0.34955 0.00676 0.0
C166 C 0.06541 0.37847 0.97456 0.0
N167 N 0.05328 0.35401 0.98869 0.0
C168 C 0.09732 0.36973 0.01091 0.0
C169 C 0.10988 0.39465 0.99649 0.0
C170 C 0.99251 0.30416 0.03699 0.0
C171 C 0.89141 0.28379 0.98996 0.0
C172 C 0.91377 0.26622 0.02879 0.0
C173 C 0.89237 0.2725 0.03442 0.0
C174 C 0.88116 0.28135 0.01483 0.0
N175 N 0.92366 0.2686 0.00433 0.0
C176 C 0.91281 0.27731 0.98504 0.0
Co177 Co 0.6875 0.01054 0.31797 0.0
Co178 Co 0.69427 0.95166 0.33026 0.0
O179 O 0.67701 0.97088 0.31206 0.0
C180 C 0.62505 0.98272 0.32706 0.0
O181 O 0.6269 0.9649 0.34285 0.0
C182 C 0.70392 0.94258 0.27577 0.0
O183 O 0.71455 0.96995 0.27195 0.0
O184 O 0.73362 0.98345 0.32302 0.0
O185 O 0.72834 0.02183 0.32118 0.0
H186 H 0.7616 0.94493 0.39195 0.0
H187 H 0.65301 0.97964 0.27285 0.0
O188 O 0.64688 1.00087 0.31477 0.0
H189 H 0.73928 0.06166 0.2377 0.0
H190 H 0.68295 0.09966 0.30219 0.0
H191 H 0.72644 0.05543 0.35385 0.0
H192 H 0.73243 0.05465 0.28434 0.0
H193 H 0.67041 0.04993 0.29459 0.0
O194 O 0.69463 0.93197 0.29783 0.0
H195 H 0.73973 0.96893 0.36915 0.0
H196 H 0.6849 0.89266 0.32933 0.0
H197 H 0.73982 0.10533 0.3619 0.0
H198 H 0.65881 0.98595 0.22605 0.0
H199 H 0.71799 0.12776 0.33598 0.0
H200 H 0.70226 0.02716 0.2082 0.0
O201 O 0.68252 0.00412 0.35574 0.0
H202 H 0.59342 0.87951 0.30829 0.0
H203 H 0.66455 0.91948 0.37742 0.0
H204 H 0.61594 0.88115 0.38728 0.0
H205 H 0.58 0.86086 0.35257 0.0
H206 H 0.64224 0.91804 0.29931 0.0
H207 H 0.70634 0.86789 0.35155 0.0
H208 H 0.74491 0.89403 0.38319 0.0
O209 O 0.69407 0.97038 0.36308 0.0
C210 C 0.74378 0.01029 0.32185 0.0
C211 C 0.74476 0.93328 0.37826 0.0
C212 C 0.71377 0.89006 0.35555 0.0
N213 N 0.71095 0.93218 0.34805 0.0
C214 C 0.73224 0.94675 0.36534 0.0
C215 C 0.70176 0.90422 0.34299 0.0
C216 C 0.7354 0.90474 0.37331 0.0
C217 C 0.67189 0.99772 0.26521 0.0
N218 N 0.69239 0.01674 0.28131 0.0
C219 C 0.67509 1.00114 0.2387 0.0
C220 C 0.69949 0.02424 0.2287 0.0
C221 C 0.72028 0.04359 0.24524 0.0
C222 C 0.71636 0.03945 0.27164 0.0
C223 C 0.69263 0.09014 0.3136 0.0
C224 C 0.71696 0.06509 0.3424 0.0
C225 C 0.68554 0.06195 0.30944 0.0
N226 N 0.69777 0.04982 0.3237 0.0
C227 C 0.72457 0.09333 0.34709 0.0
C228 C 0.7123 0.10589 0.33255 0.0
C229 C 0.68775 0.98881 0.37083 0.0
C230 C 0.60891 0.88813 0.32357 0.0
C231 C 0.64902 0.91082 0.36221 0.0
C232 C 0.62154 0.88908 0.36791 0.0
C233 C 0.60139 0.8777 0.34842 0.0
N234 N 0.65626 0.92088 0.33777 0.0
C235 C 0.63661 0.90987 0.31858 0.0
Co236 Co 0.68014 0.68853 0.6536 0.0
Co237 Co 0.74527 0.69397 0.66557 0.0
O238 O 0.70881 0.67739 0.64731 0.0
C239 C 0.64444 0.62591 0.66154 0.0
O240 O 0.66405 0.6268 0.67684 0.0
C241 C 0.76318 0.70293 0.6109 0.0
O242 O 0.74527 0.71212 0.60693 0.0
O243 O 0.75351 0.73359 0.65861 0.0
O244 O 0.7102 0.72909 0.6574 0.0
H245 H 0.81961 0.76008 0.72765 0.0
H246 H 0.67563 0.6545 0.60783 0.0
O247 O 0.64859 0.64824 0.64984 0.0
H248 H 0.68267 0.74269 0.57437 0.0
H249 H 0.58769 0.68665 0.63823 0.0
H250 H 0.67488 0.72711 0.69045 0.0
H251 H 0.68252 0.73484 0.62086 0.0
H252 H 0.62419 0.67327 0.6301 0.0
O253 O 0.7654 0.69455 0.63311 0.0
H254 H 0.77383 0.73899 0.70476 0.0
H255 H 0.79427 0.68362 0.66451 0.0
H256 H 0.63906 0.7413 0.69906 0.0
H257 H 0.67541 0.66131 0.56115 0.0
H258 H 0.59508 0.721 0.67286 0.0
H259 H 0.67905 0.70572 0.54416 0.0
O260 O 0.68125 0.68261 0.6912 0.0
H261 H 0.71514 0.59301 0.64254 0.0
H262 H 0.74705 0.66338 0.71238 0.0
H263 H 0.73593 0.61438 0.72172 0.0
H264 H 0.7199 0.57882 0.68664 0.0
H265 H 0.72626 0.64221 0.63409 0.0
H266 H 0.84037 0.70427 0.6868 0.0
H267 H 0.85325 0.74272 0.7187 0.0
O268 O 0.72638 0.69365 0.6985 0.0
C269 C 0.7372 0.74418 0.65785 0.0
C270 C 0.81421 0.74328 0.71384 0.0
C271 C 0.82588 0.71199 0.69089 0.0
N272 N 0.78131 0.70998 0.68344 0.0
C273 C 0.78829 0.73121 0.70087 0.0
C274 C 0.79977 0.70043 0.67828 0.0
C275 C 0.83309 0.73355 0.7088 0.0
C276 C 0.67701 0.67378 0.60056 0.0
N277 N 0.67911 0.69426 0.61705 0.0
C278 C 0.67696 0.67756 0.57412 0.0
C279 C 0.67905 0.7025 0.5646 0.0
C280 C 0.68112 0.72326 0.58154 0.0
C281 C 0.68115 0.71877 0.60785 0.0
C282 C 0.60677 0.69565 0.64977 0.0
C283 C 0.65585 0.71828 0.67889 0.0
C284 C 0.62747 0.68808 0.64531 0.0
N285 N 0.65169 0.69947 0.65974 0.0
C286 C 0.63562 0.72636 0.68389 0.0
C287 C 0.61094 0.71494 0.66919 0.0
C288 C 0.70165 0.68735 0.70627 0.0
C289 C 0.72218 0.60833 0.65797 0.0
C290 C 0.74001 0.64801 0.69702 0.0
C291 C 0.7338 0.62031 0.70242 0.0
C292 C 0.72482 0.60038 0.68273 0.0
N293 N 0.73744 0.65567 0.67268 0.0
C294 C 0.7286 0.63624 0.65328 0.0
Co295 Co 0.99092 0.67588 0.98361 0.0
Co296 Co 0.05077 0.74142 0.99497 0.0
O297 O 0.03087 0.70443 0.97742 0.0
C298 C 0.01818 0.64087 0.9942 0.0
O299 O 0.03673 0.66117 0.00907 0.0
C300 C 0.06079 0.75622 0.93935 0.0
O301 O 0.0355 0.73473 0.93423 0.0
O302 O 0.01922 0.74927 0.98787 0.0
O303 O 0.98032 0.70607 0.98527 0.0
H304 H 0.05903 0.81651 0.05619 0.0
H305 H 0.02092 0.6687 0.9395 0.0
O306 O 0.99982 0.64428 0.98199 0.0
H307 H 0.94067 0.67453 0.90211 0.0
H308 H 0.90081 0.58261 0.96959 0.0
H309 H 0.94628 0.67211 0.01867 0.0
H310 H 0.94781 0.67701 0.94884 0.0
H311 H 0.9508 0.61882 0.96162 0.0
O312 O 0.06994 0.7614 0.96228 0.0
H313 H 0.03441 0.77036 0.03388 0.0
H314 H 0.1099 0.79079 0.99309 0.0
H315 H 0.89613 0.63659 0.02708 0.0
H316 H 0.01436 0.66567 0.89265 0.0
H317 H 0.87308 0.59145 1.00245 0.0
H318 H 0.97407 0.66874 0.87367 0.0
O319 O 0.99707 0.67846 0.02144 0.0
H320 H 0.1219 0.71157 0.97228 0.0
H321 H 0.08373 0.74435 0.0417 0.0
H322 H 0.12198 0.7338 0.05113 0.0
H323 H 0.14136 0.71734 0.01626 0.0
H324 H 0.08347 0.72214 0.96373 0.0
H325 H 0.13526 0.83726 0.0148 0.0
H326 H 0.10982 0.85033 0.04668 0.0
O327 O 0.03259 0.72308 0.02811 0.0
C328 C 0.99239 0.73309 0.98603 0.0
C329 C 0.07037 0.81103 0.04239 0.0
C330 C 0.11314 0.82269 0.01914 0.0
N331 N 0.07074 0.77781 0.01233 0.0
C332 C 0.05656 0.7849 0.02975 0.0
C333 C 0.09864 0.79637 0.00686 0.0
C334 C 0.09886 0.83001 0.03703 0.0
C335 C 1.0032 0.6698 0.93138 0.0
N336 N 0.98483 0.67316 0.94688 0.0
C337 C 0.99965 0.66818 0.90484 0.0
C338 C 0.97708 0.66995 0.8942 0.0
C339 C 0.95836 0.67326 0.91014 0.0
C340 C 0.9626 0.67483 0.93659 0.0
C341 C 0.91061 0.60221 0.98043 0.0
C342 C 0.93635 0.65258 0.00778 0.0
C343 C 0.93894 0.62275 0.97606 0.0
N344 N 0.95143 0.64761 0.9896 0.0
C345 C 0.90797 0.63252 0.01267 0.0
C346 C 0.89506 0.60718 0.99886 0.0
C347 C 0.01329 0.69892 0.03623 0.0
C348 C 0.11369 0.71881 0.98761 0.0
C349 C 0.092 0.73713 0.02643 0.0
C350 C 0.1137 0.73124 0.03188 0.0
C351 C 0.12457 0.72202 0.01231 0.0
N352 N 0.08151 0.73403 1.00214 0.0
C353 C 0.09201 0.72493 0.98286 0.0
Co354 Co 0.0109 0.68734 0.36278 0.0
Co355 Co 0.95227 0.69559 0.35295 0.0
O356 O 0.97147 0.67742 0.37011 0.0
C357 C 0.97886 0.62271 0.36712 0.0
O358 O 0.95447 0.62128 0.37188 0.0
C359 C 0.94445 0.70356 0.40829 0.0
O360 O 0.9712 0.71115 0.41214 0.0
O361 O 0.98469 0.73448 0.36017 0.0
O362 O 0.02256 0.72838 0.36076 0.0
H363 H 0.94604 0.76486 0.29331 0.0
H364 H 0.9809 0.6538 0.40935 0.0
O365 O 1.00145 0.64653 0.36388 0.0
H366 H 0.0673 0.73784 0.44131 0.0
H367 H 0.09988 0.68119 0.37314 0.0
H368 H 0.05459 0.7269 0.3263 0.0
H369 H 0.05744 0.73104 0.39507 0.0
H370 H 0.05064 0.66893 0.38296 0.0
O371 O 0.93376 0.69642 0.38597 0.0
H372 H 0.96963 0.74174 0.31474 0.0
H373 H 0.89379 0.68753 0.35547 0.0
H374 H 0.10397 0.73999 0.31606 0.0
H375 H 0.99009 0.65953 0.45564 0.0
H376 H 0.12693 0.71705 0.33955 0.0
H377 H 0.03355 0.70185 0.47199 0.0
O378 O 1.00297 0.68272 0.32535 0.0
H379 H 0.87723 0.59594 0.37554 0.0
H380 H 0.91899 0.6665 0.30605 0.0
H381 H 0.87908 0.61863 0.29656 0.0
H382 H 0.85785 0.58299 0.33146 0.0
H383 H 0.91745 0.64396 0.38413 0.0
H384 H 0.86946 0.71021 0.33463 0.0
H385 H 0.89559 0.74911 0.30323 0.0
O386 O 0.96976 0.69521 0.31939 0.0
C387 C 0.01144 0.74421 0.36091 0.0
C388 C 0.9344 0.74788 0.30691 0.0
C389 C 0.89143 0.71723 0.33012 0.0
N390 N 0.93306 0.71319 0.33622 0.0
C391 C 0.94762 0.73466 0.31905 0.0
C392 C 0.90535 0.70451 0.3419 0.0
C393 C 0.90611 0.73905 0.3125 0.0
C394 C 1.00007 0.672 0.41612 0.0
N395 N 0.01879 0.69179 0.39932 0.0
C396 C 0.00507 0.67526 0.44246 0.0
C397 C 0.02942 0.69904 0.45162 0.0
C398 C 0.04835 0.71924 0.43443 0.0
C399 C 0.04261 0.71529 0.40823 0.0
C400 C 0.09013 0.69137 0.3628 0.0
C401 C 0.0645 0.71697 0.33673 0.0
C402 C 0.06223 0.68447 0.36823 0.0
N403 N 0.04982 0.69736 0.35535 0.0
C404 C 0.09244 0.7244 0.33079 0.0
C405 C 0.10529 0.7115 0.34396 0.0
C406 C 0.98752 0.68835 0.3109 0.0
C407 C 0.88627 0.6113 0.36017 0.0
C408 C 0.91007 0.65104 0.32131 0.0
C409 C 0.88736 0.624 0.31583 0.0
C410 C 0.87544 0.60403 0.33543 0.0
N411 N 0.92059 0.65801 0.34563 0.0
C412 C 0.90898 0.63855 0.36494 0.0
Co413 Co 0.33155 0.01565 0.69676 0.0
Co414 Co 0.26433 0.95736 0.68787 0.0
O415 O 0.30192 0.97644 0.70455 0.0
C416 C 0.36508 0.98641 0.68804 0.0
O417 O 0.345 0.9682 0.67279 0.0
C418 C 0.25316 0.94096 0.74404 0.0
O419 O 0.28011 0.95718 0.74958 0.0
O420 O 0.25855 0.99017 0.69521 0.0
O421 O 0.3026 0.02782 0.69362 0.0
H422 H 0.18926 0.95232 0.62843 0.0
H423 H 0.33942 0.98862 0.7429 0.0
O424 O 0.36199 0.00524 0.69975 0.0
H425 H 0.33553 0.072 0.77484 0.0
H426 H 0.42684 0.10424 0.70753 0.0
H427 H 0.337 0.05882 0.65899 0.0
H428 H 0.3316 0.06135 0.7287 0.0
H429 H 0.38926 0.05538 0.7177 0.0
O430 O 0.24429 0.93915 0.72112 0.0
H431 H 0.23609 0.97523 0.64959 0.0
H432 H 0.2131 0.8994 0.69092 0.0
H433 H 0.37392 0.10783 0.64835 0.0
H434 H 0.34399 0.99877 0.7892 0.0
H435 H 0.41924 0.13086 0.67269 0.0
H436 H 0.34188 0.04064 0.80547 0.0
O437 O 0.32827 0.00702 0.65947 0.0
H438 H 0.2926 0.88402 0.70774 0.0
H439 H 0.25654 0.92248 0.64144 0.0
H440 H 0.26414 0.8826 0.63086 0.0
H441 H 0.28216 0.86297 0.66417 0.0
H442 H 0.28504 0.92403 0.71741 0.0
H443 H 0.16593 0.87575 0.67038 0.0
H444 H 0.1538 0.90222 0.6388 0.0
O445 O 0.28223 0.97446 0.65411 0.0
C446 C 0.27571 0.01691 0.69466 0.0
C447 C 0.19432 0.94054 0.6421 0.0
C448 C 0.18121 0.89758 0.66567 0.0
N449 N 0.2274 0.93863 0.67134 0.0
C450 C 0.22084 0.95337 0.65409 0.0
C451 C 0.20793 0.91111 0.67729 0.0
C452 C 0.17443 0.91244 0.64795 0.0
C453 C 0.33867 0.00698 0.74981 0.0
N454 N 0.33492 0.02418 0.73311 0.0
C455 C 0.34118 0.01257 0.77606 0.0
C456 C 0.33995 0.03604 0.78518 0.0
C457 C 0.33632 0.0536 0.76801 0.0
C458 C 0.33387 0.04733 0.7419 0.0
C459 C 0.40717 0.09445 0.6968 0.0
C460 C 0.3566 0.06874 0.66976 0.0
C461 C 0.38584 0.06675 0.70243 0.0
N462 N 0.36089 0.05429 0.68903 0.0
C463 C 0.37746 0.09648 0.66361 0.0
C464 C 0.40289 0.10938 0.67726 0.0
C465 C 0.3069 0.99163 0.6453 0.0
C466 C 0.28449 0.89222 0.69312 0.0
C467 C 0.26431 0.91406 0.6561 0.0
C468 C 0.26858 0.89145 0.64997 0.0
C469 C 0.2787 0.88046 0.66866 0.0
N470 N 0.26972 0.92531 0.68025 0.0
C471 C 0.27994 0.91481 0.69856 0.0
Co472 Co 0.31773 0.32487 0.03113 0.0
Co473 Co 0.31129 0.25945 0.01813 0.0
O474 O 0.32829 0.29569 0.03676 0.0
C475 C 0.38029 0.35935 0.02267 0.0
O476 O 0.37859 0.33957 0.00713 0.0
C477 C 0.30217 0.24124 0.07271 0.0
O478 O 0.29355 0.25957 0.07683 0.0
O479 O 0.27188 0.25179 0.02502 0.0
O480 O 0.2769 0.2953 0.02769 0.0
H481 H 0.24494 0.18648 0.95521 0.0
H482 H 0.35211 0.32826 0.07627 0.0
O483 O 0.3583 0.35584 0.03457 0.0
H484 H 0.26543 0.32313 0.11139 0.0
H485 H 0.32196 0.41826 0.04773 0.0
H486 H 0.27897 0.33116 0.99527 0.0
H487 H 0.27252 0.32348 0.06476 0.0
H488 H 0.33455 0.38105 0.05502 0.0
O489 O 0.3102 0.23878 0.05041 0.0
H490 H 0.26651 0.23199 0.97858 0.0
H491 H 0.32056 0.20975 0.01875 0.0
H492 H 0.26554 0.3677 0.98752 0.0
H493 H 0.34608 0.32828 0.12308 0.0
H494 H 0.28712 0.41165 0.01384 0.0
H495 H 0.30242 0.32558 0.14091 0.0
O496 O 0.32301 0.32393 0.99338 0.0
H497 H 0.41173 0.28771 0.04134 0.0
H498 H 0.34179 0.25768 0.97127 0.0
H499 H 0.39057 0.26811 0.96197 0.0
H500 H 0.42591 0.28319 0.99717 0.0
H501 H 0.36276 0.2773 0.04975 0.0
H502 H 0.29942 0.16389 0.99597 0.0
H503 H 0.26139 0.15206 0.96387 0.0
O504 O 0.31214 0.27894 0.98544 0.0
C505 C 0.26158 0.26833 0.02657 0.0
C506 C 0.26155 0.19142 0.96911 0.0
C507 C 0.29209 0.17873 0.99201 0.0
N508 N 0.29488 0.22359 0.9999 0.0
C509 C 0.27389 0.21719 0.98235 0.0
C510 C 0.30393 0.2047 0.0049 0.0
C511 C 0.27077 0.17211 0.97399 0.0
C512 C 0.33315 0.32728 0.08391 0.0
N513 N 0.31265 0.32579 0.0678 0.0
C514 C 0.32981 0.32722 0.11042 0.0
C515 C 0.30529 0.32566 0.12041 0.0
C516 C 0.28452 0.32425 0.10386 0.0
C517 C 0.28857 0.32431 0.07746 0.0
C518 C 0.31239 0.3992 0.03615 0.0
C519 C 0.28833 0.35016 0.0069 0.0
C520 C 0.31951 0.37809 0.04013 0.0
N521 N 0.30741 0.3539 0.02565 0.0
C522 C 0.2807 0.3708 1.00238 0.0
C523 C 0.29283 0.39547 0.01714 0.0
C524 C 0.31835 0.30377 0.97802 0.0
C525 C 0.3965 0.28108 0.02586 0.0
C526 C 0.35706 0.26431 0.98668 0.0
C527 C 0.38464 0.27013 0.9813 0.0
C528 C 0.40445 0.27857 1.00106 0.0
N529 N 0.34941 0.26674 0.01107 0.0
C530 C 0.36872 0.27506 0.03052 0.0
Co531 Co 0.99381 0.3189 0.36261 0.0
Co532 Co 0.05291 0.3113 0.35322 0.0
O533 O 0.03322 0.32903 0.37028 0.0
C534 C 0.02545 0.3835 0.3672 0.0
O535 O 0.04986 0.38505 0.37208 0.0
C536 C 0.05996 0.30269 0.40859 0.0
O537 O 0.03306 0.29467 0.41214 0.0
O538 O 0.02053 0.27219 0.35989 0.0
O539 O 0.98244 0.27794 0.3605 0.0
H540 H 0.06074 0.24327 0.2932 0.0
H541 H 0.02322 0.3522 0.40941 0.0
O542 O 1.00297 0.35963 0.3638 0.0
H543 H 0.93663 0.26781 0.44068 0.0
H544 H 0.90435 0.32435 0.37215 0.0
H545 H 0.95066 0.27936 0.32579 0.0
H546 H 0.94697 0.27493 0.39452 0.0
H547 H 0.95355 0.33686 0.38241 0.0
O548 O 0.07098 0.31021 0.38641 0.0
H549 H 0.0365 0.26577 0.31455 0.0
H550 H 0.1115 0.31976 0.35637 0.0
H551 H 0.90131 0.26601 0.31512 0.0
H552 H 0.01356 0.34616 0.45563 0.0
H553 H 0.87784 0.28859 0.33837 0.0
H554 H 0.97 0.30366 0.47163 0.0
O555 O 1.00215 0.3238 0.32524 0.0
H556 H 0.12709 0.41084 0.37705 0.0
H557 H 0.08682 0.34118 0.30679 0.0
H558 H 0.12665 0.3893 0.29793 0.0
H559 H 0.14713 0.4245 0.33322 0.0
H560 H 0.08696 0.36258 0.385 0.0
H561 H 0.13648 0.29769 0.33562 0.0
H562 H 0.1111 0.25922 0.30371 0.0
O563 O 0.0359 0.31201 0.31951 0.0
C564 C 0.99374 0.26228 0.36054 0.0
C565 C 0.07206 0.26006 0.30702 0.0
C566 C 0.11455 0.29058 0.33085 0.0
N567 N 0.07261 0.29416 0.33658 0.0
C568 C 0.05846 0.27293 0.31913 0.0
C569 C 0.10027 0.30295 0.34259 0.0
C570 C 0.1003 0.26901 0.31295 0.0
C571 C 0.00402 0.33392 0.41603 0.0
N572 N 0.98551 0.3142 0.39908 0.0
C573 C 0.99874 0.33049 0.44233 0.0
C574 C 0.97435 0.30661 0.4513 0.0
C575 C 0.95563 0.28649 0.43395 0.0
C576 C 0.96164 0.29061 0.4078 0.0
C577 C 0.91432 0.31432 0.36192 0.0
C578 C 0.94052 0.28913 0.33612 0.0
C579 C 0.94221 0.32137 0.36759 0.0
N580 N 0.9549 0.30868 0.35484 0.0
C581 C 0.91261 0.28155 0.32993 0.0
C582 C 0.89946 0.29425 0.34297 0.0
C583 C 0.01803 0.31864 0.3109 0.0
C584 C 0.11837 0.39568 0.36152 0.0
C585 C 0.09542 0.35644 0.32222 0.0
C586 C 0.11807 0.38362 0.3171 0.0
C587 C 0.12958 0.40335 0.33692 0.0
N588 N 0.08452 0.34908 0.3464 0.0
C589 C 0.09572 0.36829 0.36593 0.0
Co590 Co 0.68102 0.99257 0.69787 0.0
Co591 Co 0.74586 0.05253 0.68535 0.0
O592 O 0.70948 0.03252 0.70371 0.0
C593 C 0.64566 0.01964 0.68908 0.0
O594 O 0.66567 0.03835 0.67407 0.0
C595 C 0.76371 0.06155 0.74 0.0
O596 O 0.74578 0.03447 0.74399 0.0
O597 O 0.75437 0.02131 0.69217 0.0
O598 O 0.71129 0.98227 0.69481 0.0
H599 H 0.82015 0.06135 0.62285 0.0
H600 H 0.67617 0.02293 0.74285 0.0
O601 O 0.64935 1.00122 0.70089 0.0
H602 H 0.68314 0.94252 0.77836 0.0
H603 H 0.58866 0.90208 0.71379 0.0
H604 H 0.67632 0.94809 0.6621 0.0
H605 H 0.68321 0.9493 0.73169 0.0
H606 H 0.62489 0.95218 0.72129 0.0
O607 O 0.76601 0.07212 0.71777 0.0
H608 H 0.77449 0.03639 0.64594 0.0
H609 H 0.79462 0.11199 0.68636 0.0
H610 H 0.64077 0.89785 0.65413 0.0
H611 H 0.67571 0.01682 0.78968 0.0
H612 H 0.59656 0.87453 0.68008 0.0
H613 H 0.67932 0.97643 0.80771 0.0
O614 O 0.68227 0.99884 0.6601 0.0
H615 H 0.71522 0.12292 0.70867 0.0
H616 H 0.74721 0.08477 0.6386 0.0
H617 H 0.73572 0.12243 0.62938 0.0
H618 H 0.71965 0.1418 0.66458 0.0
H619 H 0.72671 0.08507 0.717 0.0
H620 H 0.8406 0.13772 0.66386 0.0
H621 H 0.85357 0.11239 0.63177 0.0
O622 O 0.72692 0.03388 0.65253 0.0
C623 C 0.73829 0.99442 0.69376 0.0
C624 C 0.81471 0.07264 0.63674 0.0
C625 C 0.8262 0.11549 0.65978 0.0
N626 N 0.78183 0.07276 0.66736 0.0
C627 C 0.78886 0.05864 0.64982 0.0
C628 C 0.80017 0.10079 0.6725 0.0
C629 C 0.83346 0.10127 0.64177 0.0
C630 C 0.67755 0.00519 0.75057 0.0
N631 N 0.67978 0.98652 0.73456 0.0
C632 C 0.67736 1.00189 0.77709 0.0
C633 C 0.67943 0.97925 0.78719 0.0
C634 C 0.68161 0.96023 0.77074 0.0
C635 C 0.68177 0.96424 0.74432 0.0
C636 C 0.60785 0.912 0.70238 0.0
C637 C 0.65719 0.93805 0.67355 0.0
C638 C 0.6284 0.94039 0.70648 0.0
N639 N 0.65275 0.95302 0.69221 0.0
C640 C 0.63712 0.90961 0.66892 0.0
C641 C 0.6123 0.89655 0.68346 0.0
C642 C 0.70241 0.0148 0.64491 0.0
C643 C 0.72228 0.11471 0.69319 0.0
C644 C 0.74015 0.09303 0.65401 0.0
C645 C 0.73374 0.1144 0.64868 0.0
C646 C 0.72473 0.12527 0.66844 0.0
N647 N 0.73777 0.08285 0.67835 0.0
C648 C 0.72891 0.09336 0.69781 0.0
Co649 Co 0.68914 0.67613 0.03284 0.0
Co650 Co 0.69358 0.74084 0.02067 0.0
O651 O 0.67752 0.70445 0.0389 0.0
C652 C 0.62676 0.64052 0.02399 0.0
O653 O 0.628 0.66042 0.00885 0.0
C654 C 0.70378 0.75957 0.07512 0.0
O655 O 0.71505 0.74334 0.07855 0.0
O656 O 0.73342 0.74954 0.02718 0.0
O657 O 0.72967 0.70654 0.02983 0.0
H658 H 0.75836 0.81561 0.95816 0.0
H659 H 0.65412 0.6714 0.07794 0.0
O660 O 0.64887 0.64436 0.03586 0.0
H661 H 0.74124 0.6776 0.11313 0.0
H662 H 0.68742 0.58371 0.04809 0.0
H663 H 0.72904 0.67178 0.99696 0.0
H664 H 0.73444 0.67781 0.06649 0.0
H665 H 0.67348 0.61985 0.05591 0.0
O666 O 0.69395 0.76065 0.05327 0.0
H667 H 0.738 0.76983 0.98101 0.0
H668 H 0.68262 0.78944 0.02227 0.0
H669 H 0.74382 0.63634 0.98869 0.0
H670 H 0.65985 0.67082 0.12475 0.0
H671 H 0.72293 0.5919 0.01434 0.0
H672 H 0.70373 0.67404 0.14262 0.0
O673 O 0.68412 0.67756 0.99508 0.0
H674 H 0.59253 0.70955 0.04442 0.0
H675 H 0.66245 0.74223 0.97414 0.0
H676 H 0.61323 0.73055 0.96515 0.0
H677 H 0.57789 0.71413 1.00045 0.0
H678 H 0.64193 0.72122 0.05252 0.0
H679 H 0.70253 0.83554 1.0 0.0
H680 H 0.74062 0.84883 0.96762 0.0
O681 O 0.69332 0.72213 0.98772 0.0
C682 C 0.74437 0.73357 0.02873 0.0
C683 C 0.74172 0.81003 0.97218 0.0
C684 C 0.71042 0.82123 0.99569 0.0
N685 N 0.70904 0.7769 0.00284 0.0
C686 C 0.73007 0.78411 0.98514 0.0
C687 C 0.69928 0.79513 0.00828 0.0
C688 C 0.73178 0.82867 0.97752 0.0
C689 C 0.6732 0.67266 0.08559 0.0
N690 N 0.69398 0.67475 0.06951 0.0
C691 C 0.67635 0.67238 0.1121 0.0
C692 C 0.70099 0.67422 0.12211 0.0
C693 C 0.72206 0.67625 0.10558 0.0
C694 C 0.71818 0.67651 0.07918 0.0
C695 C 0.69669 0.60299 0.0368 0.0
C696 C 0.71997 0.65257 0.0083 0.0
C697 C 0.68881 0.62349 0.04108 0.0
N698 N 0.70052 0.64796 0.02697 0.0
C699 C 0.72837 0.63255 0.00348 0.0
C700 C 0.71662 0.60761 0.01787 0.0
C701 C 0.6881 0.69772 0.97998 0.0
C702 C 0.60775 0.71675 0.02889 0.0
C703 C 0.64718 0.73502 0.98959 0.0
C704 C 0.61936 0.72849 0.98439 0.0
C705 C 0.59954 0.7193 0.00421 0.0
N706 N 0.65508 0.73254 0.01386 0.0
C707 C 0.63577 0.72349 0.03338 0.0
H708 H 0.29566 0.04964 0.22454 0.0
H709 H 0.29645 0.08055 0.18996 0.0
H710 H 0.31191 0.14584 0.24505 0.0
H711 H 0.31199 0.11555 0.27947 0.0
H712 H 0.26322 0.10309 0.18082 0.0
H713 H 0.37364 0.19094 0.19438 0.0
H714 H 0.3602 0.15696 0.20993 0.0
H715 H 0.35283 0.18329 0.22298 0.0
C716 C 0.2994 0.07065 0.22926 0.0
C717 C 0.30398 0.08016 0.25478 0.0
C718 C 0.29984 0.08831 0.20947 0.0
C719 C 0.30482 0.11581 0.21477 0.0
C720 C 0.30888 0.1251 0.2403 0.0
H721 H 0.29504 0.24572 0.12422 0.0
H722 H 0.29535 0.21514 0.15871 0.0
C723 C 0.30872 0.10761 0.26003 0.0
C724 C 0.30494 0.13448 0.19376 0.0
H725 H 0.3442 0.20057 0.1671 0.0
C726 C 0.28103 0.12431 0.17775 0.0
C727 C 0.3282 0.16224 0.18962 0.0
C728 C 0.35528 0.17391 0.20497 0.0
C729 C 0.27956 0.14126 0.15812 0.0
C730 C 0.30255 0.16909 0.15438 0.0
C731 C 0.32649 0.17929 0.17023 0.0
C732 C 0.30238 0.18763 0.13358 0.0
C733 C 0.25333 0.12952 0.14161 0.0
C734 C 0.30649 0.18241 0.1081 0.0
C735 C 0.30656 0.19991 0.08842 0.0
C736 C 0.30233 0.22294 0.09379 0.0
C737 C 0.29823 0.22812 0.1194 0.0
C738 C 0.29844 0.21072 0.13912 0.0
H739 H 0.23583 0.10908 0.14911 0.0
H740 H 0.24575 0.14505 0.14025 0.0
H741 H 0.25862 0.12589 0.12196 0.0
H742 H 0.30975 0.16481 0.10346 0.0
H743 H 0.30975 0.19524 0.06896 0.0
H744 H 0.19544 0.31117 0.61536 0.0
H745 H 0.16373 0.30954 0.58148 0.0
H746 H 0.21479 0.29719 0.52536 0.0
H747 H 0.24618 0.29789 0.55934 0.0
H748 H 0.17266 0.34272 0.54126 0.0
H749 H 0.13745 0.23378 0.50643 0.0
H750 H 0.15717 0.24737 0.53576 0.0
H751 H 0.17531 0.25626 0.50541 0.0
C752 C 0.19991 0.30798 0.59582 0.0
C753 C 0.22328 0.30445 0.59011 0.0
C754 C 0.18172 0.30707 0.57644 0.0
C755 C 0.18646 0.3027 0.55084 0.0
C756 C 0.21013 0.29975 0.545 0.0
H757 H 0.11312 0.30922 0.40592 0.0
H758 H 0.14273 0.30907 0.44102 0.0
C759 C 0.22821 0.30036 0.56445 0.0
C760 C 0.16698 0.30195 0.53034 0.0
H761 H 0.12501 0.26211 0.4806 0.0
C762 C 0.16209 0.32497 0.52815 0.0
C763 C 0.15298 0.27874 0.51323 0.0
C764 C 0.15573 0.25251 0.51544 0.0
C765 C 0.14418 0.32566 0.50908 0.0
C766 C 0.13074 0.30276 0.49173 0.0
C767 C 0.13543 0.27968 0.49392 0.0
C768 C 0.11239 0.30278 0.47067 0.0
C769 C 0.14015 0.35113 0.50719 0.0
C770 C 0.08535 0.29909 0.4757 0.0
C771 C 0.06817 0.29896 0.4556 0.0
C772 C 0.07783 0.3027 0.43013 0.0
C773 C 0.10498 0.3064 0.42527 0.0
C774 C 0.12197 0.30626 0.44531 0.0
H775 H 0.15498 0.36879 0.51985 0.0
H776 H 0.14335 0.35898 0.48715 0.0
H777 H 0.11806 0.34484 0.51277 0.0
H778 H 0.0775 0.29617 0.49516 0.0
H779 H 0.04741 0.29608 0.46002 0.0
H780 H 0.80887 0.11559 0.73637 0.0
H781 H 0.83933 0.14597 0.77084 0.0
H782 H 0.79047 0.08033 0.82588 0.0
H783 H 0.75985 0.04948 0.79142 0.0
H784 H 0.80425 0.14361 0.835 0.0
H785 H 0.89629 0.1281 0.81511 0.0
H786 H 0.8789 0.13395 0.78836 0.0
H787 H 0.86032 0.10181 0.80659 0.0
C788 C 0.80451 0.10752 0.75579 0.0
C789 C 0.7819 0.08001 0.7611 0.0
C790 C 0.82203 0.12493 0.77544 0.0
C791 C 0.81724 0.11532 0.80084 0.0
C792 C 0.79454 0.08806 0.80635 0.0
H793 H 0.89087 0.19689 0.94638 0.0
H794 H 0.86024 0.16638 0.91222 0.0
C795 C 0.77712 0.07047 0.78664 0.0
C796 C 0.83588 0.13396 0.82158 0.0
H797 H 0.90232 0.1612 0.84713 0.0
C798 C 0.82565 0.1474 0.83779 0.0
C799 C 0.86387 0.13911 0.82487 0.0
C800 C 0.87566 0.12496 0.80796 0.0
C801 C 0.84284 0.16619 0.8571 0.0
C802 C 0.87077 0.171 0.86077 0.0
C803 C 0.88096 0.15754 0.84441 0.0
C804 C 0.88964 0.18963 0.88161 0.0
C805 C 0.83111 0.18128 0.87285 0.0
C806 C 0.91691 0.21238 0.87602 0.0
C807 C 0.93477 0.22968 0.89565 0.0
C808 C 0.92569 0.2246 0.92129 0.0
C809 C 0.89846 0.20167 0.92683 0.0
C810 C 0.88078 0.18426 0.90726 0.0
H811 H 0.81377 0.18238 0.86262 0.0
H812 H 0.82214 0.16936 0.89091 0.0
H813 H 0.84794 0.20322 0.87774 0.0
H814 H 0.92434 0.21687 0.8564 0.0
H815 H 0.9556 0.24713 0.8907 0.0
H816 H 0.72539 0.7657 0.12375 0.0
H817 H 0.72477 0.79611 0.15815 0.0
H818 H 0.68029 0.8245 0.10886 0.0
H819 H 0.6806 0.79417 0.07454 0.0
H820 H 0.74778 0.85582 0.15792 0.0
H821 H 0.63123 0.79906 0.17397 0.0
H822 H 0.64875 0.7835 0.15648 0.0
H823 H 0.64164 0.80898 0.14126 0.0
C824 C 0.71533 0.77829 0.12027 0.0
C825 C 0.70297 0.77738 0.09636 0.0
C826 C 0.71505 0.79571 0.13994 0.0
C827 C 0.70218 0.81233 0.1362 0.0
C828 C 0.6899 0.8115 0.11236 0.0
H829 H 0.72433 0.95743 0.22668 0.0
H830 H 0.72422 0.92619 0.19276 0.0
C831 C 0.69023 0.7942 0.0927 0.0
C832 C 0.70211 0.83105 0.15696 0.0
H833 H 0.65816 0.84374 0.19459 0.0
C834 C 0.7282 0.85315 0.166 0.0
C835 C 0.67656 0.82739 0.16766 0.0
C836 C 0.64794 0.80331 0.15956 0.0
C837 C 0.7294 0.87194 0.18514 0.0
C838 C 0.70382 0.86876 0.19532 0.0
C839 C 0.67775 0.84637 0.18658 0.0
C840 C 0.70363 0.88787 0.21565 0.0
C841 C 0.75805 0.89474 0.19462 0.0
C842 C 0.69145 0.87666 0.23958 0.0
C843 C 0.69138 0.8944 0.25894 0.0
C844 C 0.70335 0.92381 0.25478 0.0
C845 C 0.71509 0.93494 0.23062 0.0
C846 C 0.71519 0.91713 0.21124 0.0
H847 H 0.77519 0.89017 0.18938 0.0
H848 H 0.76316 0.91537 0.18587 0.0
H849 H 0.75792 0.89699 0.21573 0.0
H850 H 0.68227 0.85415 0.24339 0.0
H851 H 0.68205 0.88501 0.27725 0.0
H852 H 0.89232 0.69932 0.40494 0.0
H853 H 0.86263 0.70007 0.43958 0.0
H854 H 0.92514 0.70771 0.49472 0.0
H855 H 0.95551 0.7079 0.45994 0.0
H856 H 0.83758 0.66481 0.47827 0.0
H857 H 0.91286 0.7711 0.51774 0.0
H858 H 0.91885 0.75888 0.48754 0.0
H859 H 0.92717 0.74767 0.51714 0.0
C860 C 0.89989 0.70129 0.42442 0.0
C861 C 0.92644 0.70373 0.42962 0.0
C862 C 0.88282 0.7017 0.44425 0.0
C863 C 0.89176 0.70445 0.46982 0.0
C864 C 0.91806 0.70638 0.47515 0.0
H865 H 0.80845 0.6942 0.61456 0.0
H866 H 0.83907 0.69448 0.58013 0.0
C867 C 0.93534 0.70629 0.45524 0.0
C868 C 0.8731 0.70453 0.49075 0.0
H869 H 0.87107 0.74253 0.54214 0.0
C870 C 0.84491 0.68192 0.49212 0.0
C871 C 0.88253 0.72688 0.50885 0.0
C872 C 0.91191 0.75264 0.50765 0.0
C873 C 0.82614 0.68087 0.51119 0.0
C874 C 0.83572 0.70299 0.52939 0.0
C875 C 0.86383 0.72556 0.52815 0.0
C876 C 0.81691 0.70285 0.55009 0.0
C877 C 0.79627 0.6559 0.51204 0.0
C878 C 0.79434 0.70765 0.54461 0.0
C879 C 0.77683 0.70771 0.56431 0.0
C880 C 0.78149 0.70279 0.58982 0.0
C881 C 0.80413 0.69794 0.59515 0.0
C882 C 0.82174 0.69816 0.57551 0.0
H883 H 0.79343 0.63849 0.49904 0.0
H884 H 0.7907 0.64742 0.53183 0.0
H885 H 0.78116 0.663 0.50622 0.0
H886 H 0.7904 0.71152 0.52511 0.0
H887 H 0.75961 0.71151 0.55953 0.0
H888 H 0.26338 0.91243 0.78148 0.0
H889 H 0.22984 0.87936 0.81296 0.0
H890 H 0.16514 0.89621 0.78433 0.0
H891 H 0.19806 0.92731 0.75139 0.0
H892 H 0.20528 0.88351 0.85078 0.0
H893 H 0.11847 0.81384 0.78541 0.0
H894 H 0.15252 0.84089 0.77367 0.0
H895 H 0.12567 0.84966 0.7825 0.0
C896 C 0.24191 0.90887 0.78186 0.0
C897 C 0.23323 0.92226 0.76395 0.0
C898 C 0.22268 0.88996 0.79988 0.0
C899 C 0.1945 0.88453 0.80085 0.0
C900 C 0.18622 0.89886 0.78347 0.0
H901 H 0.09492 0.81355 0.94042 0.0
H902 H 0.12615 0.84442 0.90659 0.0
C903 C 0.20518 0.917 0.76483 0.0
C904 C 0.17431 0.86469 0.82059 0.0
H905 H 0.10636 0.81023 0.82984 0.0
C906 C 0.18376 0.86729 0.84603 0.0
C907 C 0.14627 0.84294 0.81464 0.0
C908 C 0.13529 0.83646 0.78752 0.0
C909 C 0.16617 0.84918 0.86551 0.0
C910 C 0.13748 0.82887 0.85992 0.0
C911 C 0.1281 0.82601 0.83443 0.0
C912 C 0.117 0.81022 0.88004 0.0
C913 C 0.17911 0.85153 0.8916 0.0
C914 C 0.09971 0.78076 0.87599 0.0
C915 C 0.08075 0.76324 0.89494 0.0
C916 C 0.0792 0.77471 0.91855 0.0
C917 C 0.09606 0.80412 0.9225 0.0
C918 C 0.11422 0.82174 0.90325 0.0
H919 H 0.20235 0.85976 0.89019 0.0
H920 H 0.17612 0.86679 0.90344 0.0
H921 H 0.16927 0.83069 0.90155 0.0
H922 H 0.10115 0.77119 0.85829 0.0
H923 H 0.06796 0.7406 0.89145 0.0
H924 H 0.38565 0.97763 0.30413 0.0
H925 H 0.42682 0.97118 0.30435 0.0
H926 H 0.47435 0.04925 0.34668 0.0
H927 H 0.43259 0.05539 0.34735 0.0
H928 H 0.47804 1.0011 0.28504 0.0
H929 H 0.48737 0.99593 0.39031 0.0
H930 H 0.45708 0.9951 0.3753 0.0
H931 H 0.48951 0.02835 0.37969 0.0
C932 C 0.40481 0.99353 0.31352 0.0
C933 C 0.40568 0.01697 0.32589 0.0
C934 C 0.42841 0.98977 0.31362 0.0
C935 C 0.4536 0.00939 0.32595 0.0
C936 C 0.45493 0.03336 0.33764 0.0
H937 H 0.61651 0.02074 0.29988 0.0
H938 H 0.57471 0.02614 0.29956 0.0
C939 C 0.43111 0.037 0.3378 0.0
C940 C 0.47834 0.00464 0.32612 0.0
H941 H 0.5247 0.99743 0.36537 0.0
C942 C 0.48817 1.00024 0.30264 0.0
C943 C 0.49128 0.00293 0.34908 0.0
C944 C 0.48062 0.00553 0.37504 0.0
C945 C 0.51067 0.99454 0.30143 0.0
C946 C 0.52439 0.99403 0.3243 0.0
C947 C 0.51435 0.99803 0.34782 0.0
C948 C 0.5496 0.99006 0.32417 0.0
C949 C 0.51907 0.98851 0.27566 0.0
C950 C 0.5498 0.96831 0.33861 0.0
C951 C 0.574 0.96533 0.33912 0.0
C952 C 0.59848 0.98412 0.32524 0.0
C953 C 0.59803 0.0057 0.31065 0.0
C954 C 0.574 0.00876 0.31031 0.0
H955 H 0.50122 0.98062 0.26178 0.0
H956 H 0.5369 0.00845 0.2678 0.0
H957 H 0.52605 0.97253 0.27717 0.0
H958 H 0.53126 0.95369 0.34957 0.0
H959 H 0.57364 0.94859 0.35065 0.0
H960 H 0.59719 0.62034 0.6378 0.0
H961 H 0.54935 0.57956 0.63795 0.0
H962 H 0.57876 0.53134 0.68078 0.0
H963 H 0.62688 0.57274 0.68156 0.0
H964 H 0.52725 0.52822 0.61899 0.0
H965 H 0.51283 0.51953 0.72426 0.0
H966 H 0.54256 0.54949 0.70915 0.0
H967 H 0.54279 0.51676 0.71377 0.0
C968 C 0.59365 0.60112 0.64727 0.0
C969 C 0.61596 0.59997 0.65986 0.0
C970 C 0.56615 0.57773 0.64733 0.0
C971 C 0.56019 0.55248 0.65982 0.0
C972 C 0.58259 0.55083 0.67164 0.0
H973 H 0.4076 0.39052 0.6341 0.0
H974 H 0.45496 0.43204 0.63371 0.0
C975 C 0.61018 0.57443 0.67185 0.0
C976 C 0.53053 0.52802 0.66006 0.0
H977 H 0.47677 0.48225 0.69948 0.0
C978 C 0.51623 0.51824 0.63662 0.0
C979 C 0.51583 0.5153 0.68307 0.0
C980 C 0.52916 0.52597 0.709 0.0
C981 C 0.48791 0.49599 0.6355 0.0
C982 C 0.47363 0.48244 0.65841 0.0
C983 C 0.48775 0.49245 0.6819 0.0
C984 C 0.44436 0.45739 0.65837 0.0
C985 C 0.47343 0.48768 0.60975 0.0
C986 C 0.42255 0.45738 0.67289 0.0
C987 C 0.39528 0.43332 0.67347 0.0
C988 C 0.38934 0.40879 0.65955 0.0
C989 C 0.41122 0.40904 0.6449 0.0
C990 C 0.4384 0.43292 0.64451 0.0
H991 H 0.48348 0.50552 0.59587 0.0
H992 H 0.47537 0.46975 0.60189 0.0
H993 H 0.45052 0.48087 0.6113 0.0
H994 H 0.42667 0.47597 0.68387 0.0
H995 H 0.37901 0.43384 0.68504 0.0
H996 H 0.97796 0.59297 0.97016 0.0
H997 H 0.97252 0.54575 0.97062 0.0
H998 H 0.049 0.57715 0.01551 0.0
H999 H 0.05413 0.62466 0.01588 0.0
H1000 H 0.00446 0.52589 0.95254 0.0
H1001 H 0.99455 0.50956 0.05761 0.0
H1002 H 0.99354 0.53881 0.04232 0.0
H1003 H 0.027 0.5405 0.04807 0.0
C1004 C 0.99371 0.58999 0.98018 0.0
C1005 C 0.01642 0.61269 0.99315 0.0
C1006 C 0.99053 0.56285 0.98041 0.0
C1007 C 0.01001 0.55764 0.9935 0.0
C1008 C 0.03323 0.58041 0.00586 0.0
H1009 H 0.02589 0.40832 0.96886 0.0
H1010 H 0.03071 0.4553 0.96881 0.0
C1011 C 0.03631 0.60765 0.00585 0.0
C1012 C 0.00593 0.5284 0.9937 0.0
H1013 H 0.99797 0.47458 0.03303 0.0
C1014 C 1.00299 0.51468 0.97017 0.0
C1015 C 1.00343 0.51347 0.01668 0.0
C1016 C 0.0045 0.52619 0.04261 0.0
C1017 C 0.99797 0.48671 0.96894 0.0
C1018 C 0.99665 0.4722 0.99188 0.0
C1019 C 0.9992 0.48574 0.01544 0.0
C1020 C 0.99324 0.44324 0.9918 0.0
C1021 C 0.99352 0.4728 0.94304 0.0
C1022 C 0.97094 0.42077 0.00531 0.0
C1023 C 0.96829 0.39373 0.00568 0.0
C1024 C 0.98794 0.38867 0.99255 0.0
C1025 C 0.01016 0.41124 0.97899 0.0
C1026 C 0.0129 0.43821 0.97881 0.0
H1027 H 0.9861 0.48279 0.92872 0.0
H1028 H 0.01399 0.47541 0.93611 0.0
H1029 H 0.97778 0.44974 0.94401 0.0
H1030 H 0.95558 0.42417 0.01561 0.0
H1031 H 0.95102 0.37689 0.01641 0.0
H1032 H 0.01212 0.61211 0.33574 0.0
H1033 H 0.01871 0.57084 0.33572 0.0
H1034 H 0.95978 0.5349 0.39874 0.0
H1035 H 0.95163 0.57539 0.39743 0.0
H1036 H 0.04059 0.5533 0.36795 0.0
H1037 H 0.9296 0.4663 0.35645 0.0
H1038 H 0.93943 0.50309 0.35306 0.0
H1039 H 0.93361 0.48711 0.38437 0.0
C1040 C 1.00017 0.59509 0.34926 0.0
C1041 C 0.98111 0.59672 0.36639 0.0
C1042 C 0.00405 0.57155 0.34935 0.0
C1043 C 0.98949 0.54933 0.36699 0.0
C1044 C 0.97059 0.55112 0.38433 0.0
H1045 H 0.05266 0.4309 0.39738 0.0
H1046 H 0.04438 0.47131 0.39868 0.0
C1047 C 0.96603 0.57436 0.3837 0.0
C1048 C 0.99523 0.52514 0.3677 0.0
H1049 H 0.9634 0.45273 0.36825 0.0
C1050 C 0.02365 0.5313 0.36779 0.0
C1051 C 0.97327 0.49633 0.36725 0.0
C1052 C 0.94231 0.48781 0.365 0.0
C1053 C 0.03072 0.5097 0.36711 0.0
C1054 C 0.00877 0.48089 0.36774 0.0
C1055 C 0.98035 0.47473 0.36796 0.0
C1056 C 0.01451 0.4567 0.36708 0.0
C1057 C 0.06166 0.51821 0.3647 0.0
C1058 C 0.99988 0.43441 0.34955 0.0
C1059 C 0.00385 0.41091 0.34946 0.0
C1060 C 0.02303 0.4094 0.3665 0.0
C1061 C 0.03815 0.43183 0.38373 0.0
C1062 C 0.03353 0.45502 0.38434 0.0
H1063 H 0.07432 0.53967 0.35604 0.0
H1064 H 0.07048 0.51901 0.38403 0.0
H1065 H 0.06447 0.50287 0.35279 0.0
H1066 H 0.98514 0.43504 0.33597 0.0
H1067 H 0.99186 0.39385 0.336 0.0
H1068 H 0.62943 0.0563 0.6692 0.0
H1069 H 0.58188 0.05106 0.67029 0.0
H1070 H 0.55041 0.9726 0.7122 0.0
H1071 H 0.59763 0.97806 0.71195 0.0
H1072 H 0.53244 0.01006 0.65063 0.0
H1073 H 0.52073 0.0128 0.7556 0.0
H1074 H 0.55433 0.02267 0.74063 0.0
H1075 H 0.52865 0.98581 0.74612 0.0
C1076 C 0.61245 0.03814 0.67894 0.0
C1077 C 0.61748 0.01776 0.69067 0.0
C1078 C 0.58526 0.03511 0.67947 0.0
C1079 C 0.56261 0.01167 0.69172 0.0
C1080 C 0.56762 0.99127 0.70327 0.0
H1081 H 0.38188 0.95169 0.66472 0.0
H1082 H 0.42929 0.95663 0.66557 0.0
C1083 C 0.59473 0.9944 0.70297 0.0
C1084 C 0.53351 0.00787 0.69173 0.0
H1085 H 0.47833 0.99599 0.73097 0.0
C1086 C 0.52066 0.00717 0.6682 0.0
C1087 C 0.5182 0.00436 0.71466 0.0
C1088 C 0.53129 0.00674 0.74067 0.0
C1089 C 0.49286 0.00271 0.66696 0.0
C1090 C 0.47715 0.99805 0.68986 0.0
C1091 C 0.49015 0.9991 0.71338 0.0
C1092 C 0.44786 0.99377 0.69005 0.0
C1093 C 0.48091 0.00375 0.64118 0.0
C1094 C 0.44211 0.01213 0.70441 0.0
C1095 C 0.41503 0.00905 0.70434 0.0
C1096 C 0.39292 0.98755 0.68979 0.0
C1097 C 0.39843 0.96858 0.67599 0.0
C1098 C 0.42561 0.97157 0.67625 0.0
H1099 H 0.49797 0.01498 0.62674 0.0
H1100 H 0.46685 0.98174 0.63425 0.0
H1101 H 0.4682 0.01457 0.64244 0.0
H1102 H 0.4588 0.0293 0.71535 0.0
H1103 H 0.41165 0.024 0.71533 0.0
H1104 H 0.43241 0.37582 1.00091 0.0
H1105 H 0.47509 0.42306 1.00247 0.0
H1106 H 0.43041 0.45342 0.04928 0.0
H1107 H 0.38829 0.40647 0.04851 0.0
H1108 H 0.48302 0.47334 0.98532 0.0
H1109 H 0.50215 0.48117 0.08973 0.0
H1110 H 0.47765 0.44815 0.0743 0.0
H1111 H 0.46688 0.47367 0.0822 0.0
C1112 C 0.43183 0.39246 0.01184 0.0
C1113 C 0.40693 0.38721 0.02471 0.0
C1114 C 0.45621 0.41949 0.01263 0.0
C1115 C 0.45616 0.44174 0.02634 0.0
C1116 C 0.43131 0.43649 0.03915 0.0
H1117 H 0.57435 0.62339 1.00256 0.0
H1118 H 0.53256 0.57553 0.0031 0.0
C1119 C 0.4071 0.40954 0.03855 0.0
C1120 C 0.48157 0.47077 0.02646 0.0
H1121 H 0.52654 0.52456 0.06612 0.0
C1122 C 0.49268 0.48447 0.00298 0.0
C1123 C 0.49441 0.48524 0.04949 0.0
C1124 C 0.48485 0.47119 0.07533 0.0
C1125 C 0.51591 0.51234 1.0019 0.0
C1126 C 0.52793 0.52726 0.02497 0.0
C1127 C 0.51709 0.51336 0.04843 0.0
C1128 C 0.55265 0.55674 0.0253 0.0
C1129 C 0.52772 0.52524 0.97605 0.0
C1130 C 0.57743 0.56248 0.03851 0.0
C1131 C 0.60106 0.58983 0.03864 0.0
C1132 C 0.6006 0.6122 0.02545 0.0
C1133 C 0.57551 0.60664 0.01275 0.0
C1134 C 0.55169 0.57921 0.01283 0.0
H1135 H 0.52152 0.50868 0.96105 0.0
H1136 H 0.51916 0.53921 0.97041 0.0
H1137 H 0.55126 0.53825 0.97655 0.0
H1138 H 0.5787 0.54561 0.0484 0.0
H1139 H 0.61993 0.59322 0.04869 0.0
H1140 H 0.99946 0.78704 0.35072 0.0
H1141 H 0.03383 0.83798 0.34558 0.0
H1142 H 0.10217 0.82258 0.36461 0.0
H1143 H 0.06853 0.7723 0.36971 0.0
H1144 H 0.10537 0.87249 0.38833 0.0
H1145 H 0.08923 0.86698 0.28262 0.0
H1146 H 0.05883 0.85472 0.30334 0.0
H1147 H 0.07745 0.83527 0.30162 0.0
C1148 C 0.02177 0.7946 0.35418 0.0
C1149 C 0.03116 0.77544 0.36055 0.0
C1150 C 0.04136 0.82368 0.35112 0.0
C1151 C 0.07056 0.83399 0.35454 0.0
C1152 C 0.07974 0.81511 0.36193 0.0
H1153 H 0.23129 0.93934 0.30733 0.0
H1154 H 0.18122 0.90621 0.31425 0.0
C1155 C 0.06037 0.78623 0.36481 0.0
C1156 C 0.09229 0.8639 0.34896 0.0
H1157 H 0.12968 0.90679 0.29889 0.0
C1158 C 0.11026 0.8805 0.36889 0.0
C1159 C 0.09864 0.87411 0.32353 0.0
C1160 C 0.08019 0.85695 0.30141 0.0
C1161 C 0.13552 0.90605 0.36386 0.0
C1162 C 0.14286 0.91525 0.33824 0.0
C1163 C 0.12385 0.89973 0.31851 0.0
C1164 C 0.17227 0.93716 0.33128 0.0
C1165 C 0.15537 0.92177 0.38571 0.0
C1166 C 0.18381 0.96592 0.33792 0.0
C1167 C 0.21277 0.98526 0.33374 0.0
C1168 C 0.23056 0.97596 0.32313 0.0
C1169 C 0.21842 0.94737 0.31555 0.0
C1170 C 0.18966 0.9283 0.31947 0.0
H1171 H 0.14724 0.91082 0.40435 0.0
H1172 H 0.17655 0.92401 0.38212 0.0
H1173 H 0.1583 0.94345 0.38714 0.0
H1174 H 0.17065 0.9732 0.34694 0.0
H1175 H 0.22142 0.00709 0.33985 0.0
H1176 H 0.29093 0.23355 0.635 0.0
H1177 H 0.2755 0.18369 0.64168 0.0
H1178 H 0.20451 0.17388 0.68649 0.0
H1179 H 0.21982 0.22431 0.67959 0.0
H1180 H 0.24008 0.15651 0.71137 0.0
H1181 H 0.20921 0.10815 0.61528 0.0
H1182 H 0.2422 0.1412 0.6147 0.0
H1183 H 0.21002 0.14085 0.62361 0.0
C1184 C 0.27165 0.22079 0.64578 0.0
C1185 C 0.25667 0.23303 0.65678 0.0
C1186 C 0.26273 0.19212 0.64945 0.0
C1187 C 0.23866 0.17494 0.66432 0.0
C1188 C 0.22298 0.18672 0.6747 0.0
H1189 H 0.22065 0.00478 0.6859 0.0
H1190 H 0.2038 0.039 0.68129 0.0
C1191 C 0.23172 0.2155 0.67069 0.0
C1192 C 0.23257 0.14595 0.67133 0.0
H1193 H 0.2274 0.08618 0.6446 0.0
C1194 C 0.23643 0.14072 0.6969 0.0
C1195 C 0.22754 0.12521 0.65253 0.0
C1196 C 0.22171 0.12899 0.62503 0.0
C1197 C 0.23802 0.11654 0.70373 0.0
C1198 C 0.23583 0.09726 0.68447 0.0
C1199 C 0.22933 0.10112 0.65932 0.0
C1200 C 0.24471 0.07591 0.68921 0.0
C1201 C 0.24357 0.1126 0.73128 0.0
C1202 C 0.27323 0.08536 0.69501 0.0
C1203 C 0.28295 0.06609 0.69735 0.0
C1204 C 0.26433 0.03674 0.69411 0.0
C1205 C 0.23552 0.02718 0.68877 0.0
C1206 C 0.22585 0.04667 0.68608 0.0
H1207 H 0.23603 0.12349 0.74447 0.0
H1208 H 0.23301 0.08971 0.73639 0.0
H1209 H 0.26678 0.12197 0.73418 0.0
H1210 H 0.28828 0.10786 0.69697 0.0
H1211 H 0.3053 0.07443 0.70116 0.0
H1212 H 0.23204 0.2948 0.03972 0.0
H1213 H 0.18177 0.27782 0.03431 0.0
H1214 H 0.16924 0.19812 0.00516 0.0
H1215 H 0.22017 0.21498 0.01087 0.0
H1216 H 0.14774 0.22621 0.97332 0.0
H1217 H 0.1105 0.21836 0.07297 0.0
H1218 H 0.14303 0.25098 0.0673 0.0
H1219 H 0.1425 0.21766 0.06483 0.0
C1220 C 0.2187 0.27341 0.03269 0.0
C1221 C 0.23029 0.25624 0.02586 0.0
C1222 C 0.18979 0.26366 0.02971 0.0
C1223 C 0.17165 0.23655 0.01971 0.0
C1224 C 0.18286 0.21901 0.01322 0.0
H1225 H 1.00036 0.2161 0.00576 0.0
H1226 H 0.03426 0.19905 0.01156 0.0
C1227 C 0.21193 0.22866 0.01653 0.0
C1228 C 0.1418 0.22839 0.01384 0.0
H1229 H 0.0849 0.22907 0.04073 0.0
C1230 C 0.13358 0.22594 0.98809 0.0
C1231 C 0.12313 0.22764 0.03309 0.0
C1232 C 0.13011 0.2285 0.06112 0.0
C1233 C 0.10845 0.22559 0.98101 0.0
C1234 C 0.09135 0.22797 1.00016 0.0
C1235 C 0.09815 0.22754 0.02601 0.0
C1236 C 0.06948 0.23575 0.99383 0.0
C1237 C 0.1012 0.22418 0.953 0.0
C1238 C 0.078 0.26192 0.9819 0.0
C1239 C 0.05895 0.2718 0.97886 0.0
C1240 C 0.03075 0.25572 0.98757 0.0
C1241 C 0.02184 0.22892 0.99865 0.0
C1242 C 0.04117 0.21916 1.00202 0.0
H1243 H 0.10996 0.21283 0.94192 0.0
H1244 H 0.07786 0.21333 0.95003 0.0
H1245 H 0.11075 0.24609 0.94527 0.0
H1246 H 0.09987 0.27539 0.97595 0.0
H1247 H 0.0667 0.29255 0.97039 0.0
H1248 H 0.00591 0.21992 0.34879 0.0
H1249 H 0.97168 0.16902 0.34306 0.0
H1250 H 0.90335 0.18343 0.36467 0.0
H1251 H 0.93684 0.23368 0.37026 0.0
H1252 H 0.90152 0.13286 0.38698 0.0
H1253 H 0.91442 0.14151 0.28087 0.0
H1254 H 0.94545 0.15395 0.3008 0.0
H1255 H 0.92602 0.17261 0.30067 0.0
C1256 C 0.98365 0.21214 0.3527 0.0
C1257 C 0.97419 0.23102 0.35992 0.0
C1258 C 0.96413 0.18309 0.34932 0.0
C1259 C 0.93497 0.17253 0.3533 0.0
C1260 C 0.92575 0.19111 0.36155 0.0
H1261 H 0.77286 0.06651 0.30949 0.0
H1262 H 0.82287 0.10025 0.31586 0.0
C1263 C 0.94504 0.21996 0.36471 0.0
C1264 C 0.91328 0.1427 0.34741 0.0
H1265 H 0.87457 0.10108 0.29724 0.0
C1266 C 0.89607 0.1254 0.36742 0.0
C1267 C 0.90618 0.13322 0.32185 0.0
C1268 C 0.92382 0.15118 0.29967 0.0
C1269 C 0.87085 0.0998 0.36244 0.0
C1270 C 0.86274 0.0913 0.33679 0.0
C1271 C 0.88099 0.10758 0.31687 0.0
C1272 C 0.83326 0.06925 0.33029 0.0
C1273 C 0.85182 0.08321 0.38449 0.0
C1274 C 0.82252 0.0403 0.33569 0.0
C1275 C 0.7936 0.02061 0.33181 0.0
C1276 C 0.77504 0.0297 0.32272 0.0
C1277 C 0.78634 0.05858 0.31648 0.0
C1278 C 0.81505 0.07802 0.32009 0.0
H1279 H 0.86058 0.0935 0.40325 0.0
H1280 H 0.83049 0.08094 0.382 0.0
H1281 H 0.84905 0.06154 0.38483 0.0
H1282 H 0.83631 0.0331 0.34348 0.0
H1283 H 0.78561 0.99856 0.33688 0.0
H1284 H 0.79226 0.78576 0.6692 0.0
H1285 H 0.81012 0.83699 0.67449 0.0
H1286 H 0.72775 0.82428 0.6539 0.0
H1287 H 0.70983 0.77381 0.64879 0.0
H1288 H 0.77692 0.87368 0.63041 0.0
H1289 H 0.78246 0.86702 0.73661 0.0
H1290 H 0.8 0.85347 0.71656 0.0
H1291 H 0.76195 0.83553 0.71752 0.0
C1292 C 0.77811 0.79398 0.66545 0.0
C1293 C 0.74956 0.77553 0.65859 0.0
C1294 C 0.78832 0.82322 0.66857 0.0
C1295 C 0.77019 0.83436 0.66467 0.0
C1296 C 0.74214 0.81615 0.6569 0.0
H1297 H 0.71258 0.93839 0.70662 0.0
H1298 H 0.73025 0.90569 0.70081 0.0
C1299 C 0.73191 0.78716 0.65401 0.0
C1300 C 0.77902 0.86445 0.67011 0.0
H1301 H 0.78185 0.90668 0.71972 0.0
C1302 C 0.77903 0.88145 0.64987 0.0
C1303 C 0.78157 0.87434 0.69554 0.0
C1304 C 0.78147 0.85677 0.71794 0.0
C1305 C 0.77921 0.90702 0.65449 0.0
C1306 C 0.77949 0.91578 0.68002 0.0
C1307 C 0.78181 0.89995 0.70017 0.0
C1308 C 0.77126 0.93734 0.6862 0.0
C1309 C 0.7765 0.92317 0.6322 0.0
C1310 C 0.78876 0.96631 0.68047 0.0
C1311 C 0.77871 0.98541 0.684 0.0
C1312 C 0.75092 0.97567 0.69307 0.0
C1313 C 0.73405 0.9468 0.69962 0.0
C1314 C 0.74414 0.92796 0.69635 0.0
H1315 H 0.77531 0.9128 0.61356 0.0
H1316 H 0.75714 0.92497 0.63446 0.0
H1317 H 0.79509 0.94502 0.63179 0.0
H1318 H 0.80984 0.97398 0.67269 0.0
H1319 H 0.79225 0.00747 0.6787 0.0
H1320 H 0.77523 0.70914 0.04374 0.0
H1321 H 0.82545 0.7266 0.03743 0.0
H1322 H 0.83552 0.8038 0.00431 0.0
H1323 H 0.78459 0.78642 0.0109 0.0
H1324 H 0.85622 0.77465 0.97361 0.0
H1325 H 0.89807 0.78841 0.07202 0.0
H1326 H 0.86561 0.75523 0.06837 0.0
H1327 H 0.8654 0.78808 0.06458 0.0
C1328 C 0.78804 0.73013 0.03567 0.0
C1329 C 0.77574 0.74637 0.02791 0.0
C1330 C 0.81694 0.74018 0.03219 0.0
C1331 C 0.83437 0.76668 0.02075 0.0
C1332 C 0.82248 0.78341 0.01347 0.0
H1333 H 0.0049 0.78631 1.00251 0.0
H1334 H 0.97132 0.8037 0.00851 0.0
C1335 C 0.79341 0.77347 0.01729 0.0
C1336 C 0.864 0.77474 0.01405 0.0
H1337 H 0.92209 0.77549 0.03979 0.0
C1338 C 0.87106 0.77576 0.98808 0.0
C1339 C 0.88356 0.77657 0.03287 0.0
C1340 C 0.8779 0.77732 0.06103 0.0
C1341 C 0.89582 0.77568 0.9805 0.0
C1342 C 0.91376 0.7743 0.99936 0.0
C1343 C 0.90818 0.77622 0.02529 0.0
C1344 C 0.93528 0.76608 0.99288 0.0
C1345 C 0.90179 0.77552 0.95233 0.0
C1346 C 0.92617 0.73927 0.98208 0.0
C1347 C 0.94506 0.7292 0.97893 0.0
C1348 C 0.97366 0.74573 0.9864 0.0
C1349 C 0.98309 0.77311 0.99636 0.0
C1350 C 0.96394 0.78307 0.99984 0.0
H1351 H 0.89254 0.78626 0.94104 0.0
H1352 H 0.92498 0.78615 0.94852 0.0
H1353 H 0.89189 0.7532 0.94559 0.0
H1354 H 0.90404 0.72551 0.97711 0.0
H1355 H 0.93691 0.70799 0.97136 0.0
H1356 H 0.3033 0.03963 0.4091 0.0
H1357 H 0.30565 0.03459 0.45511 0.0
H1358 H 0.33836 0.97765 0.44345 0.0
H1359 H 0.33536 0.98195 0.39697 0.0
H1360 H 0.29817 0.95812 0.48005 0.0
H1361 H 0.37497 0.07096 0.49984 0.0
H1362 H 0.3447 0.06724 0.48275 0.0
H1363 H 0.36781 0.05658 0.46783 0.0
C1364 C 0.31112 0.02607 0.41617 0.0
C1365 C 0.31933 0.01134 0.3992 0.0
C1366 C 0.31266 0.02341 0.4426 0.0
C1367 C 0.32288 0.00634 0.45281 0.0
C1368 C 0.33068 0.99119 0.43601 0.0
H1369 H 0.35682 0.01676 0.61801 0.0
H1370 H 0.36261 0.01862 0.57145 0.0
C1371 C 0.32894 0.99367 0.40944 0.0
C1372 C 0.32435 0.00371 0.48103 0.0
H1373 H 0.3477 0.04299 0.53586 0.0
C1374 C 0.30931 0.97664 0.49224 0.0
C1375 C 0.33938 0.02778 0.497 0.0
C1376 C 0.35788 0.05722 0.48621 0.0
C1377 C 0.30776 0.97314 0.51896 0.0
C1378 C 0.32097 0.99744 0.53494 0.0
C1379 C 0.33715 0.02437 0.52369 0.0
C1380 C 0.31752 0.99556 0.56327 0.0
C1381 C 0.29205 0.94339 0.52972 0.0
C1382 C 0.29028 0.98237 0.57423 0.0
C1383 C 0.2869 0.98103 0.60079 0.0
C1384 C 0.31072 0.99336 0.61708 0.0
C1385 C 0.33801 0.00705 0.60607 0.0
C1386 C 0.34136 0.0081 0.57944 0.0
H1387 H 0.292 0.92775 0.516 0.0
H1388 H 0.3016 0.94182 0.548 0.0
H1389 H 0.2696 0.93738 0.53333 0.0
H1390 H 0.27154 0.97336 0.56223 0.0
H1391 H 0.26555 0.97056 0.60853 0.0
H1392 H 0.29994 0.26455 0.93953 0.0
H1393 H 0.30375 0.27291 0.8936 0.0
H1394 H 0.3461 0.36337 0.90658 0.0
H1395 H 0.34154 0.35514 0.95293 0.0
H1396 H 0.30756 0.34875 0.87016 0.0
H1397 H 0.37149 0.29818 0.8484 0.0
H1398 H 0.3396 0.27392 0.86502 0.0
H1399 H 0.36579 0.30593 0.88073 0.0
C1400 C 0.31019 0.28629 0.93273 0.0
C1401 C 0.32057 0.30919 0.95002 0.0
C1402 C 0.31259 0.29103 0.90636 0.0
C1403 C 0.32593 0.31879 0.89654 0.0
C1404 C 0.33599 0.34175 0.91369 0.0
H1405 H 0.35627 0.33943 0.72996 0.0
H1406 H 0.36449 0.34292 0.77633 0.0
C1407 C 0.33332 0.33701 0.94018 0.0
C1408 C 0.32801 0.32353 0.86837 0.0
H1409 H 0.34606 0.30332 0.81278 0.0
C1410 C 0.31636 0.33915 0.85765 0.0
C1411 C 0.3401 0.31165 0.85195 0.0
C1412 C 0.35523 0.29678 0.86216 0.0
C1413 C 0.31507 0.34187 0.83102 0.0
C1414 C 0.32492 0.32788 0.81459 0.0
C1415 C 0.33802 0.31362 0.82531 0.0
C1416 C 0.32033 0.32639 0.78643 0.0
C1417 C 0.30306 0.35969 0.82082 0.0
C1418 C 0.29277 0.31542 0.77666 0.0
C1419 C 0.28805 0.31362 0.75031 0.0
C1420 C 0.31073 0.32227 0.73296 0.0
C1421 C 0.33832 0.33264 0.74274 0.0
C1422 C 0.34305 0.33468 0.76924 0.0
H1423 H 0.30616 0.37652 0.83467 0.0
H1424 H 0.31307 0.36991 0.80235 0.0
H1425 H 0.27986 0.34594 0.81776 0.0
H1426 H 0.27474 0.30797 0.78944 0.0
H1427 H 0.26646 0.30521 0.74359 0.0
H1428 H 0.04038 0.2999 0.27393 0.0
H1429 H 0.03696 0.30268 0.22768 0.0
H1430 H 0.9882 0.3449 0.23729 0.0
H1431 H 0.99068 0.34134 0.28383 0.0
H1432 H 0.96507 0.30537 0.2018 0.0
H1433 H 0.07991 0.36917 0.18122 0.0
H1434 H 0.07191 0.3376 0.19863 0.0
H1435 H 0.06595 0.36419 0.21332 0.0
C1436 C 0.02901 0.30992 0.2663 0.0
C1437 C 0.01591 0.32051 0.2827 0.0
C1438 C 0.02731 0.31173 0.23976 0.0
C1439 C 0.01297 0.32467 0.22891 0.0
C1440 C 0.99963 0.33506 0.24519 0.0
H1441 H 0.02428 0.35486 0.06247 0.0
H1442 H 0.02874 0.3625 0.10891 0.0
C1443 C 1.00104 0.33297 0.27181 0.0
C1444 C 0.01076 0.326 0.20061 0.0
H1445 H 0.04984 0.3437 0.1455 0.0
C1446 C 0.98366 0.3141 0.18953 0.0
C1447 C 0.03498 0.33794 0.18448 0.0
C1448 C 0.06481 0.35323 0.19505 0.0
C1449 C 0.98004 0.31258 0.16285 0.0
C1450 C 0.00414 0.32248 0.14675 0.0
C1451 C 0.03132 0.33566 0.15779 0.0
C1452 C 1.00148 0.31814 0.11856 0.0
C1453 C 0.95038 0.30039 0.15224 0.0
C1454 C 0.9852 0.29065 0.10853 0.0
C1455 C 0.98242 0.28625 0.08213 0.0
C1456 C 0.99629 0.30921 0.06502 0.0
C1457 C 0.01326 0.33671 0.07507 0.0
C1458 C 0.01581 0.34112 0.10161 0.0
H1459 H 0.93625 0.30314 0.1659 0.0
H1460 H 0.95038 0.31055 0.1338 0.0
H1461 H 0.94123 0.27726 0.14898 0.0
H1462 H 0.97469 0.27246 0.12115 0.0
H1463 H 0.96945 0.26472 0.07518 0.0
H1464 H 0.66486 0.01665 0.39701 0.0
H1465 H 0.66211 0.02078 0.44352 0.0
H1466 H 0.70542 0.97325 0.45451 0.0
H1467 H 0.70742 0.96823 0.40844 0.0
H1468 H 0.66132 0.95495 0.48615 0.0
H1469 H 0.7252 0.07273 0.49091 0.0
H1470 H 0.69422 0.05936 0.47101 0.0
H1471 H 0.7227 0.05321 0.4622 0.0
C1472 C 0.67388 0.00718 0.40935 0.0
C1473 C 0.68645 0.9922 0.39892 0.0
C1474 C 0.67242 0.00967 0.43595 0.0
C1475 C 0.68392 0.99767 0.45257 0.0
C1476 C 0.69637 0.98269 0.44214 0.0
H1477 H 0.74205 0.03746 0.60686 0.0
H1478 H 0.73448 0.03239 0.56083 0.0
C1479 C 0.69756 0.97991 0.41569 0.0
C1480 C 0.68305 1.00033 0.48086 0.0
H1481 H 0.70619 0.04848 0.52975 0.0
C1482 C 0.67101 0.97541 0.4957 0.0
C1483 C 0.69591 0.02703 0.49332 0.0
C1484 C 0.71047 0.05463 0.4786 0.0
C1485 C 0.6721 0.97642 0.52257 0.0
C1486 C 0.68487 0.00312 0.53503 0.0
C1487 C 0.69625 0.02802 0.5202 0.0
C1488 C 0.68877 0.0059 0.56328 0.0
C1489 C 0.66075 0.94892 0.53725 0.0
C1490 C 0.66556 0.99278 0.58016 0.0
C1491 C 0.66986 0.99531 0.60671 0.0
C1492 C 0.69743 0.01144 0.61686 0.0
C1493 C 0.72051 0.02487 0.59983 0.0
C1494 C 0.71622 0.02206 0.57342 0.0
H1495 H 0.65826 0.93122 0.52482 0.0
H1496 H 0.675 0.95119 0.55341 0.0
H1497 H 0.63955 0.94296 0.54519 0.0
H1498 H 0.64411 0.98073 0.57283 0.0
H1499 H 0.65158 0.98494 0.61925 0.0
H1500 H 0.70429 0.73747 0.94209 0.0
H1501 H 0.7012 0.73008 0.89606 0.0
H1502 H 0.6644 0.63982 0.90758 0.0
H1503 H 0.6682 0.64711 0.95407 0.0
H1504 H 0.7038 0.65817 0.87099 0.0
H1505 H 0.63249 0.70091 0.85123 0.0
H1506 H 0.66351 0.72639 0.8682 0.0
H1507 H 0.63903 0.69314 0.88327 0.0
C1508 C 0.69541 0.71596 0.93497 0.0
C1509 C 0.68632 0.69285 0.9519 0.0
C1510 C 0.69343 0.71176 0.90854 0.0
C1511 C 0.68184 0.68432 0.89828 0.0
C1512 C 0.67313 0.66118 0.91505 0.0
H1513 H 0.65073 0.66476 0.73205 0.0
H1514 H 0.64323 0.66018 0.77849 0.0
C1515 C 0.67535 0.66538 0.94162 0.0
C1516 C 0.68009 0.68023 0.87005 0.0
H1517 H 0.65927 0.69895 0.81521 0.0
C1518 C 0.6937 0.66673 0.85882 0.0
C1519 C 0.66637 0.69078 0.85408 0.0
C1520 C 0.64926 0.70331 0.86485 0.0
C1521 C 0.69527 0.66487 0.8321 0.0
C1522 C 0.68362 0.67756 0.81615 0.0
C1523 C 0.66867 0.68967 0.82737 0.0
C1524 C 0.68791 0.67975 0.78792 0.0
C1525 C 0.70946 0.64931 0.82132 0.0
C1526 C 0.71549 0.69276 0.77775 0.0
C1527 C 0.71982 0.69519 0.75133 0.0
C1528 C 0.69667 0.68514 0.73435 0.0
C1529 C 0.66903 0.67271 0.74455 0.0
C1530 C 0.66471 0.67003 0.77109 0.0
H1531 H 0.70798 0.63284 0.83485 0.0
H1532 H 0.69982 0.63893 0.80281 0.0
H1533 H 0.73233 0.66464 0.81815 0.0
H1534 H 0.7338 0.70131 0.79028 0.0
H1535 H 0.74143 0.70519 0.74425 0.0
H1536 H 0.01391 0.66461 0.28393 0.0
H1537 H 0.01744 0.66205 0.2374 0.0
H1538 H 0.97128 0.70693 0.22762 0.0
H1539 H 0.96677 0.70869 0.27389 0.0
H1540 H 0.95241 0.66357 0.19523 0.0
H1541 H 0.07016 0.725 0.19063 0.0
H1542 H 0.05651 0.69379 0.21027 0.0
H1543 H 0.05081 0.72248 0.21947 0.0
C1544 C 0.00458 0.67401 0.27187 0.0
C1545 C 0.99018 0.68699 0.28271 0.0
C1546 C 0.00675 0.67266 0.24525 0.0
C1547 C 0.99506 0.68474 0.22895 0.0
C1548 C 0.98052 0.69749 0.23975 0.0
H1549 H 0.03713 0.73957 0.07333 0.0
H1550 H 0.03153 0.73354 0.11947 0.0
C1551 C 0.97803 0.69854 0.26629 0.0
C1552 C 0.9977 0.6841 0.20063 0.0
H1553 H 0.04592 0.70519 0.15185 0.0
C1554 C 0.97286 0.67262 0.18574 0.0
C1555 C 0.02441 0.69615 0.18821 0.0
C1556 C 0.05201 0.7103 0.20292 0.0
C1557 C 0.97397 0.67326 0.15885 0.0
C1558 C 1.00066 0.68497 0.14645 0.0
C1559 C 0.02546 0.69601 0.16135 0.0
C1560 C 0.00361 0.68796 0.11813 0.0
C1561 C 0.94662 0.66246 0.14407 0.0
C1562 C 0.98988 0.66429 0.10182 0.0
C1563 C 0.99274 0.66771 0.07518 0.0
C1564 C 0.00978 0.69483 0.06438 0.0
C1565 C 0.02382 0.71835 0.08086 0.0
C1566 C 0.0207 0.71495 0.10734 0.0
H1567 H 0.92923 0.6611 0.15627 0.0
H1568 H 0.94949 0.67641 0.12747 0.0
H1569 H 0.93985 0.64082 0.13677 0.0
H1570 H 0.97712 0.64315 0.10967 0.0
H1571 H 0.98185 0.6491 0.0631 0.0
loop_
_geom_bond_atom_site_label_1
_geom_bond_atom_site_label_2
_geom_bond_distance
_geom_bond_site_symmetry_2
_ccdc_geom_bond_type
Co0 O2 2.143 1_565 S
Co0 O8 2.074 . S
Co0 O11 2.093 1_565 S
Co0 O24 2.097 1_565 S
Co0 N41 2.151 . S
Co0 N49 2.214 . S
Co1 O2 2.160 . S
Co1 O7 2.058 . S
Co1 O17 2.057 . S
Co1 O32 2.037 . S
Co1 N36 2.145 . S
Co1 N57 2.257 . S
O2 Co0 2.143 1_545 S
O2 Co1 2.160 . S
C3 O4 1.278 . S
C3 O11 1.224 . S
O4 C3 1.278 . S
C5 O6 1.245 . S
C5 O17 1.232 . S
O6 C5 1.245 . S
O7 Co1 2.058 . S
O7 C33 1.269 1_545 S
O8 Co0 2.074 . S
O8 C33 1.257 . S
H9 C34 0.930 . S
H10 C40 0.944 . S
O11 Co0 2.093 1_545 S
O11 C3 1.224 . S
H12 C44 0.929 . S
H13 C46 0.930 . S
H14 C47 0.930 . S
H15 C45 0.929 . S
H16 C48 0.928 . S
O17 Co1 2.057 . S
O17 C5 1.232 . S
H18 C37 0.929 . S
H19 C38 0.929 . S
H20 C50 0.931 . S
H21 C42 0.929 . S
H22 C51 0.930 . S
H23 C43 0.931 . S
O24 Co0 2.097 1_545 S
O24 C52 1.214 . S
H25 C53 0.929 . S
H26 C54 0.929 . S
H27 C55 0.930 . S
H28 C56 0.929 . S
H29 C58 0.930 . S
H30 C35 0.930 . S
H31 C39 0.930 . S
O32 Co1 2.037 . S
O32 C52 1.234 . S
C33 O7 1.269 1_565 S
C33 O8 1.257 . S
C34 H9 0.930 . S
C34 C37 1.388 . S
C34 C39 1.418 . S
C35 H30 0.930 . S
C35 C38 1.404 . S
C35 C39 1.353 . S
N36 Co1 2.145 . S
N36 C37 1.397 . S
N36 C38 1.334 . S
C37 H18 0.929 . S
C37 C34 1.388 . S
C37 N36 1.397 . S
C38 H19 0.929 . S
C38 C35 1.404 . S
C38 N36 1.334 . S
C39 H31 0.930 . S
C39 C34 1.418 . S
C39 C35 1.353 . S
C40 H10 0.944 . S
C40 N41 1.330 . S
C40 C42 1.446 . S
N41 Co0 2.151 . S
N41 C40 1.330 . S
N41 C45 1.418 . S
C42 H21 0.929 . S
C42 C40 1.446 . S
C42 C43 1.332 . S
C43 H23 0.931 . S
C43 C42 1.332 . S
C43 C44 1.267 . S
C44 H12 0.929 . S
C44 C43 1.267 . S
C44 C45 1.251 . S
C45 H15 0.929 . S
C45 N41 1.418 . S
C45 C44 1.251 . S
C46 H13 0.930 . S
C46 C48 1.406 . S
C46 C51 1.261 . S
C47 H14 0.930 . S
C47 N49 1.325 . S
C47 C50 1.357 . S
C48 H16 0.928 . S
C48 C46 1.406 . S
C48 N49 1.261 . S
N49 Co0 2.214 . S
N49 C47 1.325 . S
N49 C48 1.261 . S
C50 H20 0.931 . S
C50 C47 1.357 . S
C50 C51 1.312 . S
C51 H22 0.930 . S
C51 C46 1.261 . S
C51 C50 1.312 . S
C52 O24 1.214 . S
C52 O32 1.234 . S
C53 H25 0.929 . S
C53 C56 1.391 . S
C53 C58 1.391 . S
C54 H26 0.929 . S
C54 C55 1.390 . S
C54 N57 1.391 . S
C55 H27 0.930 . S
C55 C54 1.390 . S
C55 C56 1.392 . S
C56 H28 0.929 . S
C56 C53 1.391 . S
C56 C55 1.392 . S
N57 Co1 2.257 . S
N57 C54 1.391 . S
N57 C58 1.388 . S
C58 H29 0.930 . S
C58 C53 1.391 . S
C58 N57 1.388 . S
Co59 O61 2.143 . S
Co59 O67 2.074 . S
Co59 O70 2.093 . S
Co59 O83 2.097 . S
Co59 N100 2.151 . S
Co59 N108 2.214 . S
Co60 O61 2.160 . S
Co60 O66 2.058 . S
Co60 O76 2.057 . S
Co60 O91 2.037 . S
Co60 N95 2.145 . S
Co60 N116 2.257 . S
O61 Co59 2.143 . S
O61 Co60 2.160 . S
C62 O63 1.278 . S
C62 O70 1.224 . S
O63 C62 1.278 . S
C64 O65 1.245 . S
C64 O76 1.232 . S
O65 C64 1.245 . S
O66 Co60 2.058 . S
O66 C92 1.269 . S
O67 Co59 2.074 . S
O67 C92 1.257 . S
H68 C93 0.930 . S
H69 C99 0.930 . S
O70 Co59 2.093 . S
O70 C62 1.224 . S
H71 C103 0.929 . S
H72 C105 0.930 . S
H73 C106 0.930 . S
H74 C104 0.929 . S
H75 C107 0.928 . S
O76 Co60 2.057 . S
O76 C64 1.232 . S
H77 C96 0.929 . S
H78 C97 0.929 . S
H79 C109 0.931 . S
H80 C101 0.929 . S
H81 C110 0.930 . S
H82 C102 0.931 . S
O83 Co59 2.097 . S
O83 C111 1.214 . S
H84 C112 0.929 . S
H85 C113 0.929 . S
H86 C114 0.930 . S
H87 C115 0.929 . S
H88 C117 0.930 . S
H89 C94 0.930 . S
H90 C98 0.930 . S
O91 Co60 2.037 . S
O91 C111 1.234 . S
C92 O66 1.269 . S
C92 O67 1.257 . S
C93 H68 0.930 . S
C93 C96 1.388 . S
C93 C98 1.418 . S
C94 H89 0.930 . S
C94 C97 1.404 . S
C94 C98 1.353 . S
N95 Co60 2.145 . S
N95 C96 1.397 . S
N95 C97 1.334 . S
C96 H77 0.929 . S
C96 C93 1.388 . S
C96 N95 1.397 . S
C97 H78 0.929 . S
C97 C94 1.404 . S
C97 N95 1.334 . S
C98 H90 0.930 . S
C98 C93 1.418 . S
C98 C94 1.353 . S
C99 H69 0.930 . S
C99 N100 1.330 . S
C99 C101 1.446 . S
N100 Co59 2.151 . S
N100 C99 1.330 . S
N100 C104 1.418 . S
C101 H80 0.929 . S
C101 C99 1.446 . S
C101 C102 1.332 . S
C102 H82 0.931 . S
C102 C101 1.332 . S
C102 C103 1.267 . S
C103 H71 0.929 . S
C103 C102 1.267 . S
C103 C104 1.251 . S
C104 H74 0.929 . S
C104 N100 1.418 . S
C104 C103 1.251 . S
C105 H72 0.930 . S
C105 C107 1.406 . S
C105 C110 1.261 . S
C106 H73 0.930 . S
C106 N108 1.325 . S
C106 C109 1.357 . S
C107 H75 0.928 . S
C107 C105 1.406 . S
C107 N108 1.261 . S
N108 Co59 2.214 . S
N108 C106 1.325 . S
N108 C107 1.261 . S
C109 H79 0.931 . S
C109 C106 1.357 . S
C109 C110 1.312 . S
C110 H81 0.930 . S
C110 C105 1.261 . S
C110 C109 1.312 . S
C111 O83 1.214 . S
C111 O91 1.234 . S
C112 H84 0.929 . S
C112 C115 1.391 . S
C112 C117 1.391 . S
C113 H85 0.929 . S
C113 C114 1.390 . S
C113 N116 1.391 . S
C114 H86 0.930 . S
C114 C113 1.390 . S
C114 C115 1.392 . S
C115 H87 0.929 . S
C115 C112 1.391 . S
C115 C114 1.392 . S
N116 Co60 2.257 . S
N116 C113 1.391 . S
N116 C117 1.388 . S
C117 H88 0.930 . S
C117 C112 1.391 . S
C117 N116 1.388 . S
Co118 O120 2.152 1_455 S
Co118 O126 2.073 1_556 S
Co118 O129 2.094 1_455 S
Co118 O142 2.078 1_456 S
Co118 N159 2.169 . S
Co118 N167 2.204 1_556 S
Co119 O120 2.160 . S
Co119 O125 2.058 . S
Co119 O135 2.057 . S
Co119 O150 2.037 1_556 S
Co119 N154 2.145 1_556 S
Co119 N175 2.257 1_556 S
O120 Co118 2.152 1_655 S
O120 Co119 2.160 . S
C121 O122 1.278 . S
C121 O129 1.224 . S
O122 C121 1.278 . S
C123 O124 1.245 . S
C123 O135 1.232 . S
O124 C123 1.245 . S
O125 Co119 2.058 . S
O125 C151 1.269 1_655 S
O126 Co118 2.073 1_554 S
O126 C151 1.248 1_554 S
H127 C152 0.930 . S
H128 C158 0.952 . S
O129 Co118 2.094 1_655 S
O129 C121 1.224 . S
H130 C162 0.929 . S
H131 C164 0.930 . S
H132 C165 0.930 . S
H133 C163 0.929 . S
H134 C166 0.928 . S
O135 Co119 2.057 . S
O135 C123 1.232 . S
H136 C155 0.929 . S
H137 C156 0.929 . S
H138 C168 0.931 . S
H139 C160 0.929 . S
H140 C169 0.930 . S
H141 C161 0.931 . S
O142 Co118 2.078 1_654 S
O142 C170 1.214 . S
H143 C171 0.934 . S
H144 C172 0.929 . S
H145 C173 0.930 . S
H146 C174 0.929 . S
H147 C176 0.930 . S
H148 C153 0.930 1_556 S
H149 C157 0.930 . S
O150 Co119 2.037 1_554 S
O150 C170 1.234 . S
C151 O125 1.269 1_455 S
C151 O126 1.248 1_556 S
C152 H127 0.930 . S
C152 C155 1.388 . S
C152 C157 1.418 . S
C153 H148 0.930 1_554 S
C153 C156 1.404 1_554 S
C153 C157 1.353 . S
N154 Co119 2.145 1_554 S
N154 C155 1.397 . S
N154 C156 1.334 1_554 S
C155 H136 0.929 . S
C155 C152 1.388 . S
C155 N154 1.397 . S
C156 H137 0.929 . S
C156 C153 1.404 1_556 S
C156 N154 1.334 1_556 S
C157 H149 0.930 . S
C157 C152 1.418 . S
C157 C153 1.353 . S
C158 H128 0.952 . S
C158 N159 1.330 . S
C158 C160 1.446 . S
N159 Co118 2.169 . S
N159 C158 1.330 . S
N159 C163 1.418 . S
C160 H139 0.929 . S
C160 C158 1.446 . S
C160 C161 1.332 . S
C161 H141 0.931 . S
C161 C160 1.332 . S
C161 C162 1.267 . S
C162 H130 0.929 . S
C162 C161 1.267 . S
C162 C163 1.251 . S
C163 H133 0.929 . S
C163 N159 1.418 . S
C163 C162 1.251 . S
C164 H131 0.930 . S
C164 C166 1.406 . S
C164 C169 1.261 . S
C165 H132 0.930 . S
C165 N167 1.325 . S
C165 C168 1.357 . S
C166 H134 0.928 . S
C166 C164 1.406 . S
C166 N167 1.261 . S
N167 Co118 2.204 1_554 S
N167 C165 1.325 . S
N167 C166 1.261 . S
C168 H138 0.931 . S
C168 C165 1.357 . S
C168 C169 1.312 . S
C169 H140 0.930 . S
C169 C164 1.261 . S
C169 C168 1.312 . S
C170 O142 1.214 . S
C170 O150 1.234 . S
C171 H143 0.934 . S
C171 C174 1.384 1_556 S
C171 C176 1.393 . S
C172 H144 0.929 . S
C172 C173 1.390 . S
C172 N175 1.391 . S
C173 H145 0.930 . S
C173 C172 1.390 . S
C173 C174 1.392 . S
C174 H146 0.929 . S
C174 C171 1.384 1_554 S
C174 C173 1.392 . S
N175 Co119 2.257 1_554 S
N175 C172 1.391 . S
N175 C176 1.388 1_554 S
C176 H147 0.930 . S
C176 C171 1.393 . S
C176 N175 1.388 1_556 S
Co177 O179 2.143 1_545 S
Co177 O185 2.074 . S
Co177 O188 2.093 1_545 S
Co177 O201 2.097 1_545 S
Co177 N218 2.151 . S
Co177 N226 2.214 . S
Co178 O179 2.160 . S
Co178 O184 2.058 . S
Co178 O194 2.057 . S
Co178 O209 2.037 . S
Co178 N213 2.145 . S
Co178 N234 2.257 . S
O179 Co177 2.143 1_565 S
O179 Co178 2.160 . S
C180 O181 1.278 . S
C180 O188 1.224 . S
O181 C180 1.278 . S
C182 O183 1.245 . S
C182 O194 1.232 . S
O183 C182 1.245 . S
O184 Co178 2.058 . S
O184 C210 1.269 1_565 S
O185 Co177 2.074 . S
O185 C210 1.257 . S
H186 C211 0.930 . S
H187 C217 0.944 . S
O188 Co177 2.093 1_565 S
O188 C180 1.224 . S
H189 C221 0.929 . S
H190 C223 0.930 . S
H191 C224 0.930 . S
H192 C222 0.929 . S
H193 C225 0.928 . S
O194 Co178 2.057 . S
O194 C182 1.232 . S
H195 C214 0.929 . S
H196 C215 0.929 . S
H197 C227 0.931 . S
H198 C219 0.929 . S
H199 C228 0.930 . S
H200 C220 0.931 . S
O201 Co177 2.097 1_565 S
O201 C229 1.214 . S
H202 C230 0.929 . S
H203 C231 0.929 . S
H204 C232 0.930 . S
H205 C233 0.929 . S
H206 C235 0.930 . S
H207 C212 0.930 . S
H208 C216 0.930 . S
O209 Co178 2.037 . S
O209 C229 1.234 . S
C210 O184 1.269 1_545 S
C210 O185 1.257 . S
C211 H186 0.930 . S
C211 C214 1.388 . S
C211 C216 1.418 . S
C212 H207 0.930 . S
C212 C215 1.404 . S
C212 C216 1.353 . S
N213 Co178 2.145 . S
N213 C214 1.397 . S
N213 C215 1.334 . S
C214 H195 0.929 . S
C214 C211 1.388 . S
C214 N213 1.397 . S
C215 H196 0.929 . S
C215 C212 1.404 . S
C215 N213 1.334 . S
C216 H208 0.930 . S
C216 C211 1.418 . S
C216 C212 1.353 . S
C217 H187 0.944 . S
C217 N218 1.330 . S
C217 C219 1.446 . S
N218 Co177 2.151 . S
N218 C217 1.330 . S
N218 C222 1.418 . S
C219 H198 0.929 . S
C219 C217 1.446 . S
C219 C220 1.332 . S
C220 H200 0.931 . S
C220 C219 1.332 . S
C220 C221 1.267 . S
C221 H189 0.929 . S
C221 C220 1.267 . S
C221 C222 1.251 . S
C222 H192 0.929 . S
C222 N218 1.418 . S
C222 C221 1.251 . S
C223 H190 0.930 . S
C223 C225 1.406 . S
C223 C228 1.261 . S
C224 H191 0.930 . S
C224 N226 1.325 . S
C224 C227 1.357 . S
C225 H193 0.928 . S
C225 C223 1.406 . S
C225 N226 1.261 . S
N226 Co177 2.214 . S
N226 C224 1.325 . S
N226 C225 1.261 . S
C227 H197 0.931 . S
C227 C224 1.357 . S
C227 C228 1.312 . S
C228 H199 0.930 . S
C228 C223 1.261 . S
C228 C227 1.312 . S
C229 O201 1.214 . S
C229 O209 1.234 . S
C230 H202 0.929 . S
C230 C233 1.391 . S
C230 C235 1.391 . S
C231 H203 0.929 . S
C231 C232 1.390 . S
C231 N234 1.391 . S
C232 H204 0.930 . S
C232 C231 1.390 . S
C232 C233 1.392 . S
C233 H205 0.929 . S
C233 C230 1.391 . S
C233 C232 1.392 . S
N234 Co178 2.257 . S
N234 C231 1.391 . S
N234 C235 1.388 . S
C235 H206 0.930 . S
C235 C230 1.391 . S
C235 N234 1.388 . S
Co236 O238 2.143 . S
Co236 O244 2.074 . S
Co236 O247 2.093 . S
Co236 O260 2.097 . S
Co236 N277 2.151 . S
Co236 N285 2.214 . S
Co237 O238 2.160 . S
Co237 O243 2.058 . S
Co237 O253 2.057 . S
Co237 O268 2.037 . S
Co237 N272 2.145 . S
Co237 N293 2.257 . S
O238 Co236 2.143 . S
O238 Co237 2.160 . S
C239 O240 1.278 . S
C239 O247 1.224 . S
O240 C239 1.278 . S
C241 O242 1.245 . S
C241 O253 1.232 . S
O242 C241 1.245 . S
O243 Co237 2.058 . S
O243 C269 1.269 . S
O244 Co236 2.074 . S
O244 C269 1.257 . S
H245 C270 0.930 . S
H246 C276 0.930 . S
O247 Co236 2.093 . S
O247 C239 1.224 . S
H248 C280 0.929 . S
H249 C282 0.930 . S
H250 C283 0.930 . S
H251 C281 0.929 . S
H252 C284 0.928 . S
O253 Co237 2.057 . S
O253 C241 1.232 . S
H254 C273 0.929 . S
H255 C274 0.929 . S
H256 C286 0.931 . S
H257 C278 0.929 . S
H258 C287 0.930 . S
H259 C279 0.931 . S
O260 Co236 2.097 . S
O260 C288 1.214 . S
H261 C289 0.929 . S
H262 C290 0.929 . S
H263 C291 0.930 . S
H264 C292 0.929 . S
H265 C294 0.930 . S
H266 C271 0.930 . S
H267 C275 0.930 . S
O268 Co237 2.037 . S
O268 C288 1.234 . S
C269 O243 1.269 . S
C269 O244 1.257 . S
C270 H245 0.930 . S
C270 C273 1.388 . S
C270 C275 1.418 . S
C271 H266 0.930 . S
C271 C274 1.404 . S
C271 C275 1.353 . S
N272 Co237 2.145 . S
N272 C273 1.397 . S
N272 C274 1.334 . S
C273 H254 0.929 . S
C273 C270 1.388 . S
C273 N272 1.397 . S
C274 H255 0.929 . S
C274 C271 1.404 . S
C274 N272 1.334 . S
C275 H267 0.930 . S
C275 C270 1.418 . S
C275 C271 1.353 . S
C276 H246 0.930 . S
C276 N277 1.330 . S
C276 C278 1.446 . S
N277 Co236 2.151 . S
N277 C276 1.330 . S
N277 C281 1.418 . S
C278 H257 0.929 . S
C278 C276 1.446 . S
C278 C279 1.332 . S
C279 H259 0.931 . S
C279 C278 1.332 . S
C279 C280 1.267 . S
C280 H248 0.929 . S
C280 C279 1.267 . S
C280 C281 1.251 . S
C281 H251 0.929 . S
C281 N277 1.418 . S
C281 C280 1.251 . S
C282 H249 0.930 . S
C282 C284 1.406 . S
C282 C287 1.261 . S
C283 H250 0.930 . S
C283 N285 1.325 . S
C283 C286 1.357 . S
C284 H252 0.928 . S
C284 C282 1.406 . S
C284 N285 1.261 . S
N285 Co236 2.214 . S
N285 C283 1.325 . S
N285 C284 1.261 . S
C286 H256 0.931 . S
C286 C283 1.357 . S
C286 C287 1.312 . S
C287 H258 0.930 . S
C287 C282 1.261 . S
C287 C286 1.312 . S
C288 O260 1.214 . S
C288 O268 1.234 . S
C289 H261 0.929 . S
C289 C292 1.391 . S
C289 C294 1.391 . S
C290 H262 0.929 . S
C290 C291 1.390 . S
C290 N293 1.391 . S
C291 H263 0.930 . S
C291 C290 1.390 . S
C291 C292 1.392 . S
C292 H264 0.929 . S
C292 C289 1.391 . S
C292 C291 1.392 . S
N293 Co237 2.257 . S
N293 C290 1.391 . S
N293 C294 1.388 . S
C294 H265 0.930 . S
C294 C289 1.391 . S
C294 N293 1.388 . S
Co295 O297 2.152 1_655 S
Co295 O303 2.073 1_556 S
Co295 O306 2.094 1_655 S
Co295 O319 2.078 1_656 S
Co295 N336 2.169 . S
Co295 N344 2.204 1_556 S
Co296 O297 2.160 . S
Co296 O302 2.058 . S
Co296 O312 2.057 . S
Co296 O327 2.037 1_556 S
Co296 N331 2.145 1_556 S
Co296 N352 2.257 1_556 S
O297 Co295 2.152 1_455 S
O297 Co296 2.160 . S
C298 O299 1.278 . S
C298 O306 1.224 . S
O299 C298 1.278 . S
C300 O301 1.245 . S
C300 O312 1.232 . S
O301 C300 1.245 . S
O302 Co296 2.058 . S
O302 C328 1.269 1_455 S
O303 Co295 2.073 1_554 S
O303 C328 1.248 1_554 S
H304 C329 0.930 . S
H305 C335 0.952 . S
O306 Co295 2.094 1_455 S
O306 C298 1.224 . S
H307 C339 0.929 . S
H308 C341 0.930 . S
H309 C342 0.930 . S
H310 C340 0.929 . S
H311 C343 0.928 . S
O312 Co296 2.057 . S
O312 C300 1.232 . S
H313 C332 0.929 . S
H314 C333 0.929 . S
H315 C345 0.931 . S
H316 C337 0.929 . S
H317 C346 0.930 . S
H318 C338 0.931 . S
O319 Co295 2.078 1_454 S
O319 C347 1.214 . S
H320 C348 0.934 . S
H321 C349 0.929 . S
H322 C350 0.930 . S
H323 C351 0.929 . S
H324 C353 0.930 . S
H325 C330 0.930 1_556 S
H326 C334 0.930 . S
O327 Co296 2.037 1_554 S
O327 C347 1.234 . S
C328 O302 1.269 1_655 S
C328 O303 1.248 1_556 S
C329 H304 0.930 . S
C329 C332 1.388 . S
C329 C334 1.418 . S
C330 H325 0.930 1_554 S
C330 C333 1.404 1_554 S
C330 C334 1.353 . S
N331 Co296 2.145 1_554 S
N331 C332 1.397 . S
N331 C333 1.334 1_554 S
C332 H313 0.929 . S
C332 C329 1.388 . S
C332 N331 1.397 . S
C333 H314 0.929 . S
C333 C330 1.404 1_556 S
C333 N331 1.334 1_556 S
C334 H326 0.930 . S
C334 C329 1.418 . S
C334 C330 1.353 . S
C335 H305 0.952 . S
C335 N336 1.330 . S
C335 C337 1.446 . S
N336 Co295 2.169 . S
N336 C335 1.330 . S
N336 C340 1.418 . S
C337 H316 0.929 . S
C337 C335 1.446 . S
C337 C338 1.332 . S
C338 H318 0.931 . S
C338 C337 1.332 . S
C338 C339 1.267 . S
C339 H307 0.929 . S
C339 C338 1.267 . S
C339 C340 1.251 . S
C340 H310 0.929 . S
C340 N336 1.418 . S
C340 C339 1.251 . S
C341 H308 0.930 . S
C341 C343 1.406 . S
C341 C346 1.261 . S
C342 H309 0.930 . S
C342 N344 1.325 . S
C342 C345 1.357 . S
C343 H311 0.928 . S
C343 C341 1.406 . S
C343 N344 1.261 . S
N344 Co295 2.204 1_554 S
N344 C342 1.325 . S
N344 C343 1.261 . S
C345 H315 0.931 . S
C345 C342 1.357 . S
C345 C346 1.312 . S
C346 H317 0.930 . S
C346 C341 1.261 . S
C346 C345 1.312 . S
C347 O319 1.214 . S
C347 O327 1.234 . S
C348 H320 0.934 . S
C348 C351 1.384 1_556 S
C348 C353 1.393 . S
C349 H321 0.929 . S
C349 C350 1.390 . S
C349 N352 1.391 . S
C350 H322 0.930 . S
C350 C349 1.390 . S
C350 C351 1.392 . S
C351 H323 0.929 . S
C351 C348 1.384 1_554 S
C351 C350 1.392 . S
N352 Co296 2.257 1_554 S
N352 C349 1.391 . S
N352 C353 1.388 1_554 S
C353 H324 0.930 . S
C353 C348 1.393 . S
C353 N352 1.388 1_556 S
Co354 O356 2.143 1_455 S
Co354 O362 2.074 . S
Co354 O365 2.093 1_455 S
Co354 O378 2.097 1_455 S
Co354 N395 2.151 . S
Co354 N403 2.214 . S
Co355 O356 2.160 . S
Co355 O361 2.058 . S
Co355 O371 2.057 . S
Co355 O386 2.037 . S
Co355 N390 2.145 . S
Co355 N411 2.257 . S
O356 Co354 2.143 1_655 S
O356 Co355 2.160 . S
C357 O358 1.278 . S
C357 O365 1.224 . S
O358 C357 1.278 . S
C359 O360 1.245 . S
C359 O371 1.232 . S
O360 C359 1.245 . S
O361 Co355 2.058 . S
O361 C387 1.269 1_655 S
O362 Co354 2.074 . S
O362 C387 1.257 . S
H363 C388 0.930 . S
H364 C394 0.944 . S
O365 Co354 2.093 1_655 S
O365 C357 1.224 . S
H366 C398 0.929 . S
H367 C400 0.930 . S
H368 C401 0.930 . S
H369 C399 0.929 . S
H370 C402 0.928 . S
O371 Co355 2.057 . S
O371 C359 1.232 . S
H372 C391 0.929 . S
H373 C392 0.929 . S
H374 C404 0.931 . S
H375 C396 0.929 . S
H376 C405 0.930 . S
H377 C397 0.931 . S
O378 Co354 2.097 1_655 S
O378 C406 1.214 . S
H379 C407 0.929 . S
H380 C408 0.929 . S
H381 C409 0.930 . S
H382 C410 0.929 . S
H383 C412 0.930 . S
H384 C389 0.930 . S
H385 C393 0.930 . S
O386 Co355 2.037 . S
O386 C406 1.234 . S
C387 O361 1.269 1_455 S
C387 O362 1.257 . S
C388 H363 0.930 . S
C388 C391 1.388 . S
C388 C393 1.418 . S
C389 H384 0.930 . S
C389 C392 1.404 . S
C389 C393 1.353 . S
N390 Co355 2.145 . S
N390 C391 1.397 . S
N390 C392 1.334 . S
C391 H372 0.929 . S
C391 C388 1.388 . S
C391 N390 1.397 . S
C392 H373 0.929 . S
C392 C389 1.404 . S
C392 N390 1.334 . S
C393 H385 0.930 . S
C393 C388 1.418 . S
C393 C389 1.353 . S
C394 H364 0.944 . S
C394 N395 1.330 . S
C394 C396 1.446 . S
N395 Co354 2.151 . S
N395 C394 1.330 . S
N395 C399 1.418 . S
C396 H375 0.929 . S
C396 C394 1.446 . S
C396 C397 1.332 . S
C397 H377 0.931 . S
C397 C396 1.332 . S
C397 C398 1.267 . S
C398 H366 0.929 . S
C398 C397 1.267 . S
C398 C399 1.251 . S
C399 H369 0.929 . S
C399 N395 1.418 . S
C399 C398 1.251 . S
C400 H367 0.930 . S
C400 C402 1.406 . S
C400 C405 1.261 . S
C401 H368 0.930 . S
C401 N403 1.325 . S
C401 C404 1.357 . S
C402 H370 0.928 . S
C402 C400 1.406 . S
C402 N403 1.261 . S
N403 Co354 2.214 . S
N403 C401 1.325 . S
N403 C402 1.261 . S
C404 H374 0.931 . S
C404 C401 1.357 . S
C404 C405 1.312 . S
C405 H376 0.930 . S
C405 C400 1.261 . S
C405 C404 1.312 . S
C406 O378 1.214 . S
C406 O386 1.234 . S
C407 H379 0.929 . S
C407 C410 1.391 . S
C407 C412 1.391 . S
C408 H380 0.929 . S
C408 C409 1.390 . S
C408 N411 1.391 . S
C409 H381 0.930 . S
C409 C408 1.390 . S
C409 C410 1.392 . S
C410 H382 0.929 . S
C410 C407 1.391 . S
C410 C409 1.392 . S
N411 Co355 2.257 . S
N411 C408 1.391 . S
N411 C412 1.388 . S
C412 H383 0.930 . S
C412 C407 1.391 . S
C412 N411 1.388 . S
Co413 O415 2.143 1_545 S
Co413 O421 2.074 . S
Co413 O424 2.093 1_545 S
Co413 O437 2.097 1_545 S
Co413 N454 2.151 . S
Co413 N462 2.214 . S
Co414 O415 2.160 . S
Co414 O420 2.058 . S
Co414 O430 2.057 . S
Co414 O445 2.037 . S
Co414 N449 2.145 . S
Co414 N470 2.257 . S
O415 Co413 2.143 1_565 S
O415 Co414 2.160 . S
C416 O417 1.278 . S
C416 O424 1.224 . S
O417 C416 1.278 . S
C418 O419 1.245 . S
C418 O430 1.232 . S
O419 C418 1.245 . S
O420 Co414 2.058 . S
O420 C446 1.269 1_565 S
O421 Co413 2.074 . S
O421 C446 1.257 . S
H422 C447 0.930 . S
H423 C453 0.952 . S
O424 Co413 2.093 1_565 S
O424 C416 1.224 . S
H425 C457 0.929 . S
H426 C459 0.930 . S
H427 C460 0.930 . S
H428 C458 0.929 . S
H429 C461 0.928 . S
O430 Co414 2.057 . S
O430 C418 1.232 . S
H431 C450 0.929 . S
H432 C451 0.929 . S
H433 C463 0.931 . S
H434 C455 0.929 . S
H435 C464 0.930 . S
H436 C456 0.931 . S
O437 Co413 2.097 1_565 S
O437 C465 1.214 . S
H438 C466 0.929 . S
H439 C467 0.929 . S
H440 C468 0.930 . S
H441 C469 0.929 . S
H442 C471 0.930 . S
H443 C448 0.930 . S
H444 C452 0.930 . S
O445 Co414 2.037 . S
O445 C465 1.234 . S
C446 O420 1.269 1_545 S
C446 O421 1.257 . S
C447 H422 0.930 . S
C447 C450 1.388 . S
C447 C452 1.418 . S
C448 H443 0.930 . S
C448 C451 1.404 . S
C448 C452 1.353 . S
N449 Co414 2.145 . S
N449 C450 1.397 . S
N449 C451 1.334 . S
C450 H431 0.929 . S
C450 C447 1.388 . S
C450 N449 1.397 . S
C451 H432 0.929 . S
C451 C448 1.404 . S
C451 N449 1.334 . S
C452 H444 0.930 . S
C452 C447 1.418 . S
C452 C448 1.353 . S
C453 H423 0.952 . S
C453 N454 1.330 . S
C453 C455 1.446 . S
N454 Co413 2.151 . S
N454 C453 1.330 . S
N454 C458 1.418 . S
C455 H434 0.929 . S
C455 C453 1.446 . S
C455 C456 1.332 . S
C456 H436 0.931 . S
C456 C455 1.332 . S
C456 C457 1.267 . S
C457 H425 0.929 . S
C457 C456 1.267 . S
C457 C458 1.251 . S
C458 H428 0.929 . S
C458 N454 1.418 . S
C458 C457 1.251 . S
C459 H426 0.930 . S
C459 C461 1.406 . S
C459 C464 1.261 . S
C460 H427 0.930 . S
C460 N462 1.325 . S
C460 C463 1.357 . S
C461 H429 0.928 . S
C461 C459 1.406 . S
C461 N462 1.261 . S
N462 Co413 2.214 . S
N462 C460 1.325 . S
N462 C461 1.261 . S
C463 H433 0.931 . S
C463 C460 1.357 . S
C463 C464 1.312 . S
C464 H435 0.930 . S
C464 C459 1.261 . S
C464 C463 1.312 . S
C465 O437 1.214 . S
C465 O445 1.234 . S
C466 H438 0.929 . S
C466 C469 1.391 . S
C466 C471 1.391 . S
C467 H439 0.929 . S
C467 C468 1.390 . S
C467 N470 1.391 . S
C468 H440 0.930 . S
C468 C467 1.390 . S
C468 C469 1.392 . S
C469 H441 0.929 . S
C469 C466 1.391 . S
C469 C468 1.392 . S
N470 Co414 2.257 . S
N470 C467 1.391 . S
N470 C471 1.388 . S
C471 H442 0.930 . S
C471 C466 1.391 . S
C471 N470 1.388 . S
Co472 O474 2.143 . S
Co472 O480 2.074 . S
Co472 O483 2.093 . S
Co472 O496 2.097 1_554 S
Co472 N513 2.151 . S
Co472 N521 2.214 1_554 S
Co473 O474 2.160 . S
Co473 O479 2.058 . S
Co473 O489 2.057 . S
Co473 O504 2.037 1_554 S
Co473 N508 2.145 . S
Co473 N529 2.257 . S
O474 Co472 2.143 . S
O474 Co473 2.160 . S
C475 O476 1.278 . S
C475 O483 1.224 . S
O476 C475 1.278 . S
C477 O478 1.245 . S
C477 O489 1.232 . S
O478 C477 1.245 . S
O479 Co473 2.058 . S
O479 C505 1.269 . S
O480 Co472 2.074 . S
O480 C505 1.257 . S
H481 C506 0.930 . S
H482 C512 0.930 . S
O483 Co472 2.093 . S
O483 C475 1.224 . S
H484 C516 0.929 . S
H485 C518 0.930 . S
H486 C519 0.930 . S
H487 C517 0.929 . S
H488 C520 0.928 1_554 S
O489 Co473 2.057 . S
O489 C477 1.232 . S
H490 C509 0.929 . S
H491 C510 0.929 . S
H492 C522 0.931 . S
H493 C514 0.929 . S
H494 C523 0.930 . S
H495 C515 0.931 . S
O496 Co472 2.097 1_556 S
O496 C524 1.214 . S
H497 C525 0.929 . S
H498 C526 0.929 . S
H499 C527 0.930 . S
H500 C528 0.929 . S
H501 C530 0.930 . S
H502 C507 0.930 . S
H503 C511 0.930 . S
O504 Co473 2.037 1_556 S
O504 C524 1.234 . S
C505 O479 1.269 . S
C505 O480 1.257 . S
C506 H481 0.930 . S
C506 C509 1.388 . S
C506 C511 1.418 . S
C507 H502 0.930 . S
C507 C510 1.404 . S
C507 C511 1.353 1_554 S
N508 Co473 2.145 . S
N508 C509 1.397 1_554 S
N508 C510 1.334 . S
C509 H490 0.929 . S
C509 C506 1.388 . S
C509 N508 1.397 1_556 S
C510 H491 0.929 . S
C510 C507 1.404 . S
C510 N508 1.334 . S
C511 H503 0.930 . S
C511 C506 1.418 . S
C511 C507 1.353 1_556 S
C512 H482 0.930 . S
C512 N513 1.330 . S
C512 C514 1.446 . S
N513 Co472 2.151 . S
N513 C512 1.330 . S
N513 C517 1.418 . S
C514 H493 0.929 . S
C514 C512 1.446 . S
C514 C515 1.332 . S
C515 H495 0.931 . S
C515 C514 1.332 . S
C515 C516 1.267 . S
C516 H484 0.929 . S
C516 C515 1.267 . S
C516 C517 1.251 . S
C517 H487 0.929 . S
C517 N513 1.418 . S
C517 C516 1.251 . S
C518 H485 0.930 . S
C518 C520 1.406 . S
C518 C523 1.261 . S
C519 H486 0.930 . S
C519 N521 1.325 . S
C519 C522 1.357 . S
C520 H488 0.928 1_556 S
C520 C518 1.406 . S
C520 N521 1.261 . S
N521 Co472 2.214 1_556 S
N521 C519 1.325 . S
N521 C520 1.261 . S
C522 H492 0.931 . S
C522 C519 1.357 . S
C522 C523 1.312 . S
C523 H494 0.930 . S
C523 C518 1.261 . S
C523 C522 1.312 . S
C524 O496 1.214 . S
C524 O504 1.234 . S
C525 H497 0.929 . S
C525 C528 1.391 1_554 S
C525 C530 1.391 . S
C526 H498 0.929 . S
C526 C527 1.390 . S
C526 N529 1.391 1_556 S
C527 H499 0.930 . S
C527 C526 1.390 . S
C527 C528 1.392 . S
C528 H500 0.929 . S
C528 C525 1.391 1_556 S
C528 C527 1.392 . S
N529 Co473 2.257 . S
N529 C526 1.391 1_554 S
N529 C530 1.388 . S
C530 H501 0.930 . S
C530 C525 1.391 . S
C530 N529 1.388 . S
Co531 O533 2.143 1_655 S
Co531 O539 2.074 . S
Co531 O542 2.093 1_655 S
Co531 O555 2.097 1_655 S
Co531 N572 2.151 . S
Co531 N580 2.214 . S
Co532 O533 2.160 . S
Co532 O538 2.058 . S
Co532 O548 2.057 . S
Co532 O563 2.037 . S
Co532 N567 2.145 . S
Co532 N588 2.257 . S
O533 Co531 2.143 1_455 S
O533 Co532 2.160 . S
C534 O535 1.278 . S
C534 O542 1.224 . S
O535 C534 1.278 . S
C536 O537 1.245 . S
C536 O548 1.232 . S
O537 C536 1.245 . S
O538 Co532 2.058 . S
O538 C564 1.269 1_455 S
O539 Co531 2.074 . S
O539 C564 1.257 . S
H540 C565 0.930 . S
H541 C571 0.944 . S
O542 Co531 2.093 1_455 S
O542 C534 1.224 . S
H543 C575 0.929 . S
H544 C577 0.930 . S
H545 C578 0.930 . S
H546 C576 0.929 . S
H547 C579 0.928 . S
O548 Co532 2.057 . S
O548 C536 1.232 . S
H549 C568 0.929 . S
H550 C569 0.929 . S
H551 C581 0.931 . S
H552 C573 0.929 . S
H553 C582 0.930 . S
H554 C574 0.931 . S
O555 Co531 2.097 1_455 S
O555 C583 1.214 . S
H556 C584 0.929 . S
H557 C585 0.929 . S
H558 C586 0.930 . S
H559 C587 0.929 . S
H560 C589 0.930 . S
H561 C566 0.930 . S
H562 C570 0.930 . S
O563 Co532 2.037 . S
O563 C583 1.234 . S
C564 O538 1.269 1_655 S
C564 O539 1.257 . S
C565 H540 0.930 . S
C565 C568 1.388 . S
C565 C570 1.418 . S
C566 H561 0.930 . S
C566 C569 1.404 . S
C566 C570 1.353 . S
N567 Co532 2.145 . S
N567 C568 1.397 . S
N567 C569 1.334 . S
C568 H549 0.929 . S
C568 C565 1.388 . S
C568 N567 1.397 . S
C569 H550 0.929 . S
C569 C566 1.404 . S
C569 N567 1.334 . S
C570 H562 0.930 . S
C570 C565 1.418 . S
C570 C566 1.353 . S
C571 H541 0.944 . S
C571 N572 1.330 . S
C571 C573 1.446 . S
N572 Co531 2.151 . S
N572 C571 1.330 . S
N572 C576 1.418 . S
C573 H552 0.929 . S
C573 C571 1.446 . S
C573 C574 1.332 . S
C574 H554 0.931 . S
C574 C573 1.332 . S
C574 C575 1.267 . S
C575 H543 0.929 . S
C575 C574 1.267 . S
C575 C576 1.251 . S
C576 H546 0.929 . S
C576 N572 1.418 . S
C576 C575 1.251 . S
C577 H544 0.930 . S
C577 C579 1.406 . S
C577 C582 1.261 . S
C578 H545 0.930 . S
C578 N580 1.325 . S
C578 C581 1.357 . S
C579 H547 0.928 . S
C579 C577 1.406 . S
C579 N580 1.261 . S
N580 Co531 2.214 . S
N580 C578 1.325 . S
N580 C579 1.261 . S
C581 H551 0.931 . S
C581 C578 1.357 . S
C581 C582 1.312 . S
C582 H553 0.930 . S
C582 C577 1.261 . S
C582 C581 1.312 . S
C583 O555 1.214 . S
C583 O563 1.234 . S
C584 H556 0.929 . S
C584 C587 1.391 . S
C584 C589 1.391 . S
C585 H557 0.929 . S
C585 C586 1.390 . S
C585 N588 1.391 . S
C586 H558 0.930 . S
C586 C585 1.390 . S
C586 C587 1.392 . S
C587 H559 0.929 . S
C587 C584 1.391 . S
C587 C586 1.392 . S
N588 Co532 2.257 . S
N588 C585 1.391 . S
N588 C589 1.388 . S
C589 H560 0.930 . S
C589 C584 1.391 . S
C589 N588 1.388 . S
Co590 O592 2.143 1_565 S
Co590 O598 2.074 . S
Co590 O601 2.093 1_565 S
Co590 O614 2.097 1_565 S
Co590 N631 2.151 . S
Co590 N639 2.214 . S
Co591 O592 2.160 . S
Co591 O597 2.058 . S
Co591 O607 2.057 . S
Co591 O622 2.037 . S
Co591 N626 2.145 . S
Co591 N647 2.257 . S
O592 Co590 2.143 1_545 S
O592 Co591 2.160 . S
C593 O594 1.278 . S
C593 O601 1.224 . S
O594 C593 1.278 . S
C595 O596 1.245 . S
C595 O607 1.232 . S
O596 C595 1.245 . S
O597 Co591 2.058 . S
O597 C623 1.269 1_545 S
O598 Co590 2.074 . S
O598 C623 1.257 . S
H599 C624 0.930 . S
H600 C630 0.952 . S
O601 Co590 2.093 1_545 S
O601 C593 1.224 . S
H602 C634 0.929 . S
H603 C636 0.930 . S
H604 C637 0.930 . S
H605 C635 0.929 . S
H606 C638 0.928 . S
O607 Co591 2.057 . S
O607 C595 1.232 . S
H608 C627 0.929 . S
H609 C628 0.929 . S
H610 C640 0.931 . S
H611 C632 0.929 . S
H612 C641 0.930 . S
H613 C633 0.931 . S
O614 Co590 2.097 1_545 S
O614 C642 1.214 . S
H615 C643 0.929 . S
H616 C644 0.929 . S
H617 C645 0.930 . S
H618 C646 0.929 . S
H619 C648 0.930 . S
H620 C625 0.930 . S
H621 C629 0.930 . S
O622 Co591 2.037 . S
O622 C642 1.234 . S
C623 O597 1.269 1_565 S
C623 O598 1.257 . S
C624 H599 0.930 . S
C624 C627 1.388 . S
C624 C629 1.418 . S
C625 H620 0.930 . S
C625 C628 1.404 . S
C625 C629 1.353 . S
N626 Co591 2.145 . S
N626 C627 1.397 . S
N626 C628 1.334 . S
C627 H608 0.929 . S
C627 C624 1.388 . S
C627 N626 1.397 . S
C628 H609 0.929 . S
C628 C625 1.404 . S
C628 N626 1.334 . S
C629 H621 0.930 . S
C629 C624 1.418 . S
C629 C625 1.353 . S
C630 H600 0.952 . S
C630 N631 1.330 . S
C630 C632 1.446 . S
N631 Co590 2.151 . S
N631 C630 1.330 . S
N631 C635 1.418 . S
C632 H611 0.929 . S
C632 C630 1.446 . S
C632 C633 1.332 . S
C633 H613 0.931 . S
C633 C632 1.332 . S
C633 C634 1.267 . S
C634 H602 0.929 . S
C634 C633 1.267 . S
C634 C635 1.251 . S
C635 H605 0.929 . S
C635 N631 1.418 . S
C635 C634 1.251 . S
C636 H603 0.930 . S
C636 C638 1.406 . S
C636 C641 1.261 . S
C637 H604 0.930 . S
C637 N639 1.325 . S
C637 C640 1.357 . S
C638 H606 0.928 . S
C638 C636 1.406 . S
C638 N639 1.261 . S
N639 Co590 2.214 . S
N639 C637 1.325 . S
N639 C638 1.261 . S
C640 H610 0.931 . S
C640 C637 1.357 . S
C640 C641 1.312 . S
C641 H612 0.930 . S
C641 C636 1.261 . S
C641 C640 1.312 . S
C642 O614 1.214 . S
C642 O622 1.234 . S
C643 H615 0.929 . S
C643 C646 1.391 . S
C643 C648 1.391 . S
C644 H616 0.929 . S
C644 C645 1.390 . S
C644 N647 1.391 . S
C645 H617 0.930 . S
C645 C644 1.390 . S
C645 C646 1.392 . S
C646 H618 0.929 . S
C646 C643 1.391 . S
C646 C645 1.392 . S
N647 Co591 2.257 . S
N647 C644 1.391 . S
N647 C648 1.388 . S
C648 H619 0.930 . S
C648 C643 1.391 . S
C648 N647 1.388 . S
Co649 O651 2.143 . S
Co649 O657 2.074 . S
Co649 O660 2.093 . S
Co649 O673 2.097 1_554 S
Co649 N690 2.151 . S
Co649 N698 2.214 1_554 S
Co650 O651 2.160 . S
Co650 O656 2.058 . S
Co650 O666 2.057 . S
Co650 O681 2.037 1_554 S
Co650 N685 2.145 . S
Co650 N706 2.257 . S
O651 Co649 2.143 . S
O651 Co650 2.160 . S
C652 O653 1.278 . S
C652 O660 1.224 . S
O653 C652 1.278 . S
C654 O655 1.245 . S
C654 O666 1.232 . S
O655 C654 1.245 . S
O656 Co650 2.058 . S
O656 C682 1.269 . S
O657 Co649 2.074 . S
O657 C682 1.257 . S
H658 C683 0.930 . S
H659 C689 0.930 . S
O660 Co649 2.093 . S
O660 C652 1.224 . S
H661 C693 0.929 . S
H662 C695 0.930 . S
H663 C696 0.930 . S
H664 C694 0.929 . S
H665 C697 0.928 1_554 S
O666 Co650 2.057 . S
O666 C654 1.232 . S
H667 C686 0.929 . S
H668 C687 0.929 . S
H669 C699 0.931 . S
H670 C691 0.929 . S
H671 C700 0.930 . S
H672 C692 0.931 . S
O673 Co649 2.097 1_556 S
O673 C701 1.214 . S
H674 C702 0.929 . S
H675 C703 0.929 . S
H676 C704 0.930 . S
H677 C705 0.929 . S
H678 C707 0.930 . S
H679 C684 0.930 . S
H680 C688 0.930 . S
O681 Co650 2.037 1_556 S
O681 C701 1.234 . S
C682 O656 1.269 . S
C682 O657 1.257 . S
C683 H658 0.930 . S
C683 C686 1.388 . S
C683 C688 1.418 . S
C684 H679 0.930 . S
C684 C687 1.404 . S
C684 C688 1.353 1_554 S
N685 Co650 2.145 . S
N685 C686 1.397 1_554 S
N685 C687 1.334 . S
C686 H667 0.929 . S
C686 C683 1.388 . S
C686 N685 1.397 1_556 S
C687 H668 0.929 . S
C687 C684 1.404 . S
C687 N685 1.334 . S
C688 H680 0.930 . S
C688 C683 1.418 . S
C688 C684 1.353 1_556 S
C689 H659 0.930 . S
C689 N690 1.330 . S
C689 C691 1.446 . S
N690 Co649 2.151 . S
N690 C689 1.330 . S
N690 C694 1.418 . S
C691 H670 0.929 . S
C691 C689 1.446 . S
C691 C692 1.332 . S
C692 H672 0.931 . S
C692 C691 1.332 . S
C692 C693 1.267 . S
C693 H661 0.929 . S
C693 C692 1.267 . S
C693 C694 1.251 . S
C694 H664 0.929 . S
C694 N690 1.418 . S
C694 C693 1.251 . S
C695 H662 0.930 . S
C695 C697 1.406 . S
C695 C700 1.261 . S
C696 H663 0.930 . S
C696 N698 1.325 . S
C696 C699 1.357 . S
C697 H665 0.928 1_556 S
C697 C695 1.406 . S
C697 N698 1.261 . S
N698 Co649 2.214 1_556 S
N698 C696 1.325 . S
N698 C697 1.261 . S
C699 H669 0.931 . S
C699 C696 1.357 . S
C699 C700 1.312 . S
C700 H671 0.930 . S
C700 C695 1.261 . S
C700 C699 1.312 . S
C701 O673 1.214 . S
C701 O681 1.234 . S
C702 H674 0.929 . S
C702 C705 1.391 1_554 S
C702 C707 1.391 . S
C703 H675 0.929 . S
C703 C704 1.390 . S
C703 N706 1.391 1_556 S
C704 H676 0.930 . S
C704 C703 1.390 . S
C704 C705 1.392 . S
C705 H677 0.929 . S
C705 C702 1.391 1_556 S
C705 C704 1.392 . S
N706 Co650 2.257 . S
N706 C703 1.391 1_554 S
N706 C707 1.388 . S
C707 H678 0.930 . S
C707 C702 1.391 . S
C707 N706 1.388 . S
H708 C716 0.929 . S
H709 C718 0.930 . S
H710 C720 0.930 . S
H711 C723 0.929 . S
H712 C726 0.930 . S
H713 C728 0.960 . S
H714 C728 0.960 . S
H715 C728 0.960 . S
C716 H708 0.929 . S
C716 C717 1.377 . S
C716 C718 1.384 . S
C717 C716 1.377 . S
C717 C723 1.390 . S
C718 H709 0.930 . S
C718 C716 1.384 . S
C718 C719 1.372 . S
C719 C718 1.372 . S
C719 C720 1.400 . S
C719 C724 1.490 . S
C720 H710 0.930 . S
C720 C719 1.400 . S
C720 C723 1.386 . S
H721 C737 0.930 . S
H722 C738 0.931 . S
C723 H711 0.929 . S
C723 C717 1.390 . S
C723 C720 1.386 . S
C724 C719 1.490 . S
C724 C726 1.395 . S
C724 C727 1.403 . S
H725 C731 0.930 . S
C726 H712 0.930 . S
C726 C724 1.395 . S
C726 C729 1.403 . S
C727 C724 1.403 . S
C727 C728 1.524 . S
C727 C731 1.400 . S
C728 H713 0.960 . S
C728 H714 0.960 . S
C728 H715 0.960 . S
C728 C727 1.524 . S
C729 C726 1.403 . S
C729 C730 1.392 . S
C729 C733 1.495 . S
C730 C729 1.392 . S
C730 C731 1.385 . S
C730 C732 1.478 . S
C731 H725 0.930 . S
C731 C727 1.400 . S
C731 C730 1.385 . S
C732 C730 1.478 . S
C732 C734 1.381 . S
C732 C738 1.383 . S
C733 C729 1.495 . S
C733 H739 0.959 . S
C733 H740 0.961 . S
C733 H741 0.960 . S
C734 C732 1.381 . S
C734 C735 1.394 . S
C734 H742 0.930 . S
C735 C734 1.394 . S
C735 C736 1.383 . S
C735 H743 0.929 . S
C736 C735 1.383 . S
C736 C737 1.377 . S
C737 H721 0.930 . S
C737 C736 1.377 . S
C737 C738 1.379 . S
C738 H722 0.931 . S
C738 C732 1.383 . S
C738 C737 1.379 . S
H739 C733 0.959 . S
H740 C733 0.961 . S
H741 C733 0.960 . S
H742 C734 0.930 . S
H743 C735 0.929 . S
H744 C752 0.929 . S
H745 C754 0.930 . S
H746 C756 0.930 . S
H747 C759 0.929 . S
H748 C762 0.930 . S
H749 C764 0.960 . S
H750 C764 0.960 . S
H751 C764 0.960 . S
C752 H744 0.929 . S
C752 C753 1.377 . S
C752 C754 1.384 . S
C753 C752 1.377 . S
C753 C759 1.390 . S
C754 H745 0.930 . S
C754 C752 1.384 . S
C754 C755 1.372 . S
C755 C754 1.372 . S
C755 C756 1.400 . S
C755 C760 1.490 . S
C756 H746 0.930 . S
C756 C755 1.400 . S
C756 C759 1.386 . S
H757 C773 0.930 . S
H758 C774 0.931 . S
C759 H747 0.929 . S
C759 C753 1.390 . S
C759 C756 1.386 . S
C760 C755 1.490 . S
C760 C762 1.395 . S
C760 C763 1.403 . S
H761 C767 0.930 . S
C762 H748 0.930 . S
C762 C760 1.395 . S
C762 C765 1.403 . S
C763 C760 1.403 . S
C763 C764 1.524 . S
C763 C767 1.400 . S
C764 H749 0.960 . S
C764 H750 0.960 . S
C764 H751 0.960 . S
C764 C763 1.524 . S
C765 C762 1.403 . S
C765 C766 1.392 . S
C765 C769 1.495 . S
C766 C765 1.392 . S
C766 C767 1.385 . S
C766 C768 1.478 . S
C767 H761 0.930 . S
C767 C763 1.400 . S
C767 C766 1.385 . S
C768 C766 1.478 . S
C768 C770 1.381 . S
C768 C774 1.383 . S
C769 C765 1.495 . S
C769 H775 0.959 . S
C769 H776 0.961 . S
C769 H777 0.960 . S
C770 C768 1.381 . S
C770 C771 1.394 . S
C770 H778 0.930 . S
C771 C770 1.394 . S
C771 C772 1.383 . S
C771 H779 0.929 . S
C772 C771 1.383 . S
C772 C773 1.377 . S
C773 H757 0.930 . S
C773 C772 1.377 . S
C773 C774 1.379 . S
C774 H758 0.931 . S
C774 C768 1.383 . S
C774 C773 1.379 . S
H775 C769 0.959 . S
H776 C769 0.961 . S
H777 C769 0.960 . S
H778 C770 0.930 . S
H779 C771 0.929 . S
H780 C788 0.929 . S
H781 C790 0.930 . S
H782 C792 0.930 . S
H783 C795 0.929 . S
H784 C798 0.930 . S
H785 C800 0.960 . S
H786 C800 0.960 . S
H787 C800 0.960 . S
C788 H780 0.929 . S
C788 C789 1.377 . S
C788 C790 1.384 . S
C789 C788 1.377 . S
C789 C795 1.390 . S
C790 H781 0.930 . S
C790 C788 1.384 . S
C790 C791 1.372 . S
C791 C790 1.372 . S
C791 C792 1.400 . S
C791 C796 1.490 . S
C792 H782 0.930 . S
C792 C791 1.400 . S
C792 C795 1.386 . S
H793 C809 0.930 . S
H794 C810 0.931 . S
C795 H783 0.929 . S
C795 C789 1.390 . S
C795 C792 1.386 . S
C796 C791 1.490 . S
C796 C798 1.395 . S
C796 C799 1.403 . S
H797 C803 0.930 . S
C798 H784 0.930 . S
C798 C796 1.395 . S
C798 C801 1.403 . S
C799 C796 1.403 . S
C799 C800 1.524 . S
C799 C803 1.400 . S
C800 H785 0.960 . S
C800 H786 0.960 . S
C800 H787 0.960 . S
C800 C799 1.524 . S
C801 C798 1.403 . S
C801 C802 1.392 . S
C801 C805 1.495 . S
C802 C801 1.392 . S
C802 C803 1.385 . S
C802 C804 1.478 . S
C803 H797 0.930 . S
C803 C799 1.400 . S
C803 C802 1.385 . S
C804 C802 1.478 . S
C804 C806 1.381 . S
C804 C810 1.383 . S
C805 C801 1.495 . S
C805 H811 0.959 . S
C805 H812 0.961 . S
C805 H813 0.960 . S
C806 C804 1.381 . S
C806 C807 1.394 . S
C806 H814 0.930 . S
C807 C806 1.394 . S
C807 C808 1.383 . S
C807 H815 0.929 . S
C808 C807 1.383 . S
C808 C809 1.377 . S
C809 H793 0.930 . S
C809 C808 1.377 . S
C809 C810 1.379 . S
C810 H794 0.931 . S
C810 C804 1.383 . S
C810 C809 1.379 . S
H811 C805 0.959 . S
H812 C805 0.961 . S
H813 C805 0.960 . S
H814 C806 0.930 . S
H815 C807 0.929 . S
H816 C824 0.929 . S
H817 C826 0.930 . S
H818 C828 0.930 . S
H819 C831 0.929 . S
H820 C834 0.930 . S
H821 C836 0.960 . S
H822 C836 0.960 . S
H823 C836 0.960 . S
C824 H816 0.929 . S
C824 C825 1.377 . S
C824 C826 1.384 . S
C825 C824 1.377 . S
C825 C831 1.390 . S
C826 H817 0.930 . S
C826 C824 1.384 . S
C826 C827 1.372 . S
C827 C826 1.372 . S
C827 C828 1.400 . S
C827 C832 1.490 . S
C828 H818 0.930 . S
C828 C827 1.400 . S
C828 C831 1.386 . S
H829 C845 0.930 . S
H830 C846 0.931 . S
C831 H819 0.929 . S
C831 C825 1.390 . S
C831 C828 1.386 . S
C832 C827 1.490 . S
C832 C834 1.395 . S
C832 C835 1.403 . S
H833 C839 0.930 . S
C834 H820 0.930 . S
C834 C832 1.395 . S
C834 C837 1.403 . S
C835 C832 1.403 . S
C835 C836 1.524 . S
C835 C839 1.400 . S
C836 H821 0.960 . S
C836 H822 0.960 . S
C836 H823 0.960 . S
C836 C835 1.524 . S
C837 C834 1.403 . S
C837 C838 1.392 . S
C837 C841 1.495 . S
C838 C837 1.392 . S
C838 C839 1.385 . S
C838 C840 1.478 . S
C839 H833 0.930 . S
C839 C835 1.400 . S
C839 C838 1.385 . S
C840 C838 1.478 . S
C840 C842 1.381 . S
C840 C846 1.383 . S
C841 C837 1.495 . S
C841 H847 0.959 . S
C841 H848 0.961 . S
C841 H849 0.960 . S
C842 C840 1.381 . S
C842 C843 1.394 . S
C842 H850 0.930 . S
C843 C842 1.394 . S
C843 C844 1.383 . S
C843 H851 0.929 . S
C844 C843 1.383 . S
C844 C845 1.377 . S
C845 H829 0.930 . S
C845 C844 1.377 . S
C845 C846 1.379 . S
C846 H830 0.931 . S
C846 C840 1.383 . S
C846 C845 1.379 . S
H847 C841 0.959 . S
H848 C841 0.961 . S
H849 C841 0.960 . S
H850 C842 0.930 . S
H851 C843 0.929 . S
H852 C860 0.929 . S
H853 C862 0.930 . S
H854 C864 0.930 . S
H855 C867 0.929 . S
H856 C870 0.930 . S
H857 C872 0.960 . S
H858 C872 0.960 . S
H859 C872 0.960 . S
C860 H852 0.929 . S
C860 C861 1.377 . S
C860 C862 1.384 . S
C861 C860 1.377 . S
C861 C867 1.390 . S
C862 H853 0.930 . S
C862 C860 1.384 . S
C862 C863 1.372 . S
C863 C862 1.372 . S
C863 C864 1.400 . S
C863 C868 1.490 . S
C864 H854 0.930 . S
C864 C863 1.400 . S
C864 C867 1.386 . S
H865 C881 0.930 . S
H866 C882 0.931 . S
C867 H855 0.929 . S
C867 C861 1.390 . S
C867 C864 1.386 . S
C868 C863 1.490 . S
C868 C870 1.395 . S
C868 C871 1.403 . S
H869 C875 0.930 . S
C870 H856 0.930 . S
C870 C868 1.395 . S
C870 C873 1.403 . S
C871 C868 1.403 . S
C871 C872 1.524 . S
C871 C875 1.400 . S
C872 H857 0.960 . S
C872 H858 0.960 . S
C872 H859 0.960 . S
C872 C871 1.524 . S
C873 C870 1.403 . S
C873 C874 1.392 . S
C873 C877 1.495 . S
C874 C873 1.392 . S
C874 C875 1.385 . S
C874 C876 1.478 . S
C875 H869 0.930 . S
C875 C871 1.400 . S
C875 C874 1.385 . S
C876 C874 1.478 . S
C876 C878 1.381 . S
C876 C882 1.383 . S
C877 C873 1.495 . S
C877 H883 0.959 . S
C877 H884 0.961 . S
C877 H885 0.960 . S
C878 C876 1.381 . S
C878 C879 1.394 . S
C878 H886 0.930 . S
C879 C878 1.394 . S
C879 C880 1.383 . S
C879 H887 0.929 . S
C880 C879 1.383 . S
C880 C881 1.377 . S
C881 H865 0.930 . S
C881 C880 1.377 . S
C881 C882 1.379 . S
C882 H866 0.931 . S
C882 C876 1.383 . S
C882 C881 1.379 . S
H883 C877 0.959 . S
H884 C877 0.961 . S
H885 C877 0.960 . S
H886 C878 0.930 . S
H887 C879 0.929 . S
H888 C896 0.929 . S
H889 C898 0.930 . S
H890 C900 0.930 . S
H891 C903 0.929 . S
H892 C906 0.930 . S
H893 C908 0.960 . S
H894 C908 0.960 . S
H895 C908 0.960 . S
C896 H888 0.929 . S
C896 C897 1.377 . S
C896 C898 1.384 . S
C897 C896 1.377 . S
C897 C903 1.390 . S
C898 H889 0.930 . S
C898 C896 1.384 . S
C898 C899 1.372 . S
C899 C898 1.372 . S
C899 C900 1.400 . S
C899 C904 1.490 . S
C900 H890 0.930 . S
C900 C899 1.400 . S
C900 C903 1.386 . S
H901 C917 0.930 . S
H902 C918 0.931 . S
C903 H891 0.929 . S
C903 C897 1.390 . S
C903 C900 1.386 . S
C904 C899 1.490 . S
C904 C906 1.395 . S
C904 C907 1.403 . S
H905 C911 0.930 . S
C906 H892 0.930 . S
C906 C904 1.395 . S
C906 C909 1.403 . S
C907 C904 1.403 . S
C907 C908 1.524 . S
C907 C911 1.400 . S
C908 H893 0.960 . S
C908 H894 0.960 . S
C908 H895 0.960 . S
C908 C907 1.524 . S
C909 C906 1.403 . S
C909 C910 1.392 . S
C909 C913 1.495 . S
C910 C909 1.392 . S
C910 C911 1.385 . S
C910 C912 1.478 . S
C911 H905 0.930 . S
C911 C907 1.400 . S
C911 C910 1.385 . S
C912 C910 1.478 . S
C912 C914 1.381 . S
C912 C918 1.383 . S
C913 C909 1.495 . S
C913 H919 0.959 . S
C913 H920 0.961 . S
C913 H921 0.960 . S
C914 C912 1.381 . S
C914 C915 1.394 . S
C914 H922 0.930 . S
C915 C914 1.394 . S
C915 C916 1.383 . S
C915 H923 0.929 . S
C916 C915 1.383 . S
C916 C917 1.377 . S
C917 H901 0.930 . S
C917 C916 1.377 . S
C917 C918 1.379 . S
C918 H902 0.931 . S
C918 C912 1.383 . S
C918 C917 1.379 . S
H919 C913 0.959 . S
H920 C913 0.961 . S
H921 C913 0.960 . S
H922 C914 0.930 . S
H923 C915 0.929 . S
H924 C932 0.929 . S
H925 C934 0.930 1_565 S
H926 C936 0.930 . S
H927 C939 0.929 . S
H928 C942 0.930 . S
H929 C944 0.960 . S
H930 C944 0.960 . S
H931 C944 0.960 . S
C932 H924 0.929 . S
C932 C933 1.377 . S
C932 C934 1.384 . S
C933 C932 1.377 . S
C933 C939 1.390 . S
C934 H925 0.930 1_545 S
C934 C932 1.384 . S
C934 C935 1.372 . S
C935 C934 1.372 . S
C935 C936 1.400 . S
C935 C940 1.490 . S
C936 H926 0.930 . S
C936 C935 1.400 . S
C936 C939 1.386 . S
H937 C953 0.930 . S
H938 C954 0.931 1_545 S
C939 H927 0.929 . S
C939 C933 1.390 . S
C939 C936 1.386 . S
C940 C935 1.490 . S
C940 C942 1.395 1_545 S
C940 C943 1.403 . S
H941 C947 0.930 . S
C942 H928 0.930 . S
C942 C940 1.395 1_565 S
C942 C945 1.403 . S
C943 C940 1.403 . S
C943 C944 1.524 . S
C943 C947 1.400 . S
C944 H929 0.960 . S
C944 H930 0.960 . S
C944 H931 0.960 . S
C944 C943 1.524 . S
C945 C942 1.403 . S
C945 C946 1.392 . S
C945 C949 1.495 . S
C946 C945 1.392 . S
C946 C947 1.385 1_565 S
C946 C948 1.478 . S
C947 H941 0.930 . S
C947 C943 1.400 . S
C947 C946 1.385 1_545 S
C948 C946 1.478 . S
C948 C950 1.381 . S
C948 C954 1.383 . S
C949 C945 1.495 . S
C949 H955 0.959 . S
C949 H956 0.961 . S
C949 H957 0.960 . S
C950 C948 1.381 . S
C950 C951 1.394 . S
C950 H958 0.930 . S
C951 C950 1.394 . S
C951 C952 1.383 . S
C951 H959 0.929 . S
C952 C951 1.383 . S
C952 C953 1.377 . S
C953 H937 0.930 . S
C953 C952 1.377 . S
C953 C954 1.379 . S
C954 H938 0.931 1_565 S
C954 C948 1.383 . S
C954 C953 1.379 . S
H955 C949 0.959 . S
H956 C949 0.961 . S
H957 C949 0.960 . S
H958 C950 0.930 . S
H959 C951 0.929 . S
H960 C968 0.929 . S
H961 C970 0.930 . S
H962 C972 0.930 . S
H963 C975 0.929 . S
H964 C978 0.930 . S
H965 C980 0.960 . S
H966 C980 0.960 . S
H967 C980 0.960 . S
C968 H960 0.929 . S
C968 C969 1.377 . S
C968 C970 1.384 . S
C969 C968 1.377 . S
C969 C975 1.390 . S
C970 H961 0.930 . S
C970 C968 1.384 . S
C970 C971 1.372 . S
C971 C970 1.372 . S
C971 C972 1.400 . S
C971 C976 1.490 . S
C972 H962 0.930 . S
C972 C971 1.400 . S
C972 C975 1.386 . S
H973 C989 0.930 . S
H974 C990 0.931 . S
C975 H963 0.929 . S
C975 C969 1.390 . S
C975 C972 1.386 . S
C976 C971 1.490 . S
C976 C978 1.395 . S
C976 C979 1.403 . S
H977 C983 0.930 . S
C978 H964 0.930 . S
C978 C976 1.395 . S
C978 C981 1.403 . S
C979 C976 1.403 . S
C979 C980 1.524 . S
C979 C983 1.400 . S
C980 H965 0.960 . S
C980 H966 0.960 . S
C980 H967 0.960 . S
C980 C979 1.524 . S
C981 C978 1.403 . S
C981 C982 1.392 . S
C981 C985 1.495 . S
C982 C981 1.392 . S
C982 C983 1.385 . S
C982 C984 1.478 . S
C983 H977 0.930 . S
C983 C979 1.400 . S
C983 C982 1.385 . S
C984 C982 1.478 . S
C984 C986 1.381 . S
C984 C990 1.383 . S
C985 C981 1.495 . S
C985 H991 0.959 . S
C985 H992 0.961 . S
C985 H993 0.960 . S
C986 C984 1.381 . S
C986 C987 1.394 . S
C986 H994 0.930 . S
C987 C986 1.394 . S
C987 C988 1.383 . S
C987 H995 0.929 . S
C988 C987 1.383 . S
C988 C989 1.377 . S
C989 H973 0.930 . S
C989 C988 1.377 . S
C989 C990 1.379 . S
C990 H974 0.931 . S
C990 C984 1.383 . S
C990 C989 1.379 . S
H991 C985 0.959 . S
H992 C985 0.961 . S
H993 C985 0.960 . S
H994 C986 0.930 . S
H995 C987 0.929 . S
H996 C1004 0.914 1_655 S
H997 C1006 0.930 . S
H998 C1008 0.931 . S
H999 C1011 0.935 . S
H1000 C1014 0.930 . S
H1001 C1016 0.960 . S
H1002 C1016 0.960 1_655 S
H1003 C1016 0.960 . S
C1004 H996 0.914 1_455 S
C1004 C1005 1.388 . S
C1004 C1006 1.388 1_455 S
C1005 C1004 1.388 . S
C1005 C1011 1.390 . S
C1006 H997 0.930 . S
C1006 C1004 1.388 1_655 S
C1006 C1007 1.372 1_655 S
C1007 C1006 1.372 1_455 S
C1007 C1008 1.400 . S
C1007 C1012 1.490 . S
C1008 H998 0.931 . S
C1008 C1007 1.400 . S
C1008 C1011 1.386 . S
H1009 C1025 0.914 1_455 S
H1010 C1026 0.931 . S
C1011 H999 0.935 . S
C1011 C1005 1.390 . S
C1011 C1008 1.386 . S
C1012 C1007 1.490 . S
C1012 C1014 1.395 1_455 S
C1012 C1015 1.403 1_556 S
H1013 C1019 0.930 . S
C1014 H1000 0.930 . S
C1014 C1012 1.395 1_655 S
C1014 C1017 1.403 . S
C1015 C1012 1.403 1_554 S
C1015 C1016 1.524 . S
C1015 C1019 1.400 1_455 S
C1016 H1001 0.960 . S
C1016 H1002 0.960 1_455 S
C1016 H1003 0.960 . S
C1016 C1015 1.524 . S
C1017 C1014 1.403 . S
C1017 C1018 1.392 . S
C1017 C1021 1.495 . S
C1018 C1017 1.392 . S
C1018 C1019 1.385 1_556 S
C1018 C1020 1.478 . S
C1019 H1013 0.930 . S
C1019 C1015 1.400 1_655 S
C1019 C1018 1.385 1_554 S
C1020 C1018 1.478 . S
C1020 C1022 1.381 . S
C1020 C1026 1.383 1_655 S
C1021 C1017 1.495 . S
C1021 H1027 0.959 . S
C1021 H1028 0.961 . S
C1021 H1029 0.960 . S
C1022 C1020 1.381 . S
C1022 C1023 1.394 . S
C1022 H1030 0.930 . S
C1023 C1022 1.394 . S
C1023 C1024 1.383 . S
C1023 H1031 0.929 . S
C1024 C1023 1.383 . S
C1024 C1025 1.387 . S
C1025 H1009 0.914 1_655 S
C1025 C1024 1.387 . S
C1025 C1026 1.384 1_655 S
C1026 H1010 0.931 . S
C1026 C1020 1.383 1_455 S
C1026 C1025 1.384 1_455 S
H1027 C1021 0.959 . S
H1028 C1021 0.961 . S
H1029 C1021 0.960 . S
H1030 C1022 0.930 . S
H1031 C1023 0.929 . S
H1032 C1040 0.929 . S
H1033 C1042 0.930 . S
H1034 C1044 0.930 . S
H1035 C1047 0.929 . S
H1036 C1050 0.930 . S
H1037 C1052 0.960 . S
H1038 C1052 0.960 . S
H1039 C1052 0.960 . S
C1040 H1032 0.929 . S
C1040 C1041 1.377 . S
C1040 C1042 1.384 . S
C1041 C1040 1.377 . S
C1041 C1047 1.390 . S
C1042 H1033 0.930 . S
C1042 C1040 1.384 . S
C1042 C1043 1.372 . S
C1043 C1042 1.372 . S
C1043 C1044 1.400 . S
C1043 C1048 1.490 . S
C1044 H1034 0.930 . S
C1044 C1043 1.400 . S
C1044 C1047 1.386 . S
H1045 C1061 0.930 . S
H1046 C1062 0.931 . S
C1047 H1035 0.929 . S
C1047 C1041 1.390 . S
C1047 C1044 1.386 . S
C1048 C1043 1.490 . S
C1048 C1050 1.395 1_655 S
C1048 C1051 1.403 . S
H1049 C1055 0.930 . S
C1050 H1036 0.930 . S
C1050 C1048 1.395 1_455 S
C1050 C1053 1.403 . S
C1051 C1048 1.403 . S
C1051 C1052 1.524 . S
C1051 C1055 1.400 . S
C1052 H1037 0.960 . S
C1052 H1038 0.960 . S
C1052 H1039 0.960 . S
C1052 C1051 1.524 . S
C1053 C1050 1.403 . S
C1053 C1054 1.392 . S
C1053 C1057 1.495 . S
C1054 C1053 1.392 . S
C1054 C1055 1.385 1_455 S
C1054 C1056 1.478 . S
C1055 H1049 0.930 . S
C1055 C1051 1.400 . S
C1055 C1054 1.385 1_655 S
C1056 C1054 1.478 . S
C1056 C1058 1.381 . S
C1056 C1062 1.383 . S
C1057 C1053 1.495 . S
C1057 H1063 0.959 . S
C1057 H1064 0.961 . S
C1057 H1065 0.960 . S
C1058 C1056 1.381 . S
C1058 C1059 1.394 . S
C1058 H1066 0.930 . S
C1059 C1058 1.394 . S
C1059 C1060 1.383 . S
C1059 H1067 0.929 . S
C1060 C1059 1.383 . S
C1060 C1061 1.377 . S
C1061 H1045 0.930 . S
C1061 C1060 1.377 . S
C1061 C1062 1.379 . S
C1062 H1046 0.931 . S
C1062 C1056 1.383 . S
C1062 C1061 1.379 . S
H1063 C1057 0.959 . S
H1064 C1057 0.961 . S
H1065 C1057 0.960 . S
H1066 C1058 0.930 . S
H1067 C1059 0.929 . S
H1068 C1076 0.929 . S
H1069 C1078 0.930 . S
H1070 C1080 0.936 . S
H1071 C1083 0.929 . S
H1072 C1086 0.930 . S
H1073 C1088 0.960 . S
H1074 C1088 0.960 . S
H1075 C1088 0.960 . S
C1076 H1068 0.929 . S
C1076 C1077 1.377 . S
C1076 C1078 1.384 . S
C1077 C1076 1.377 . S
C1077 C1083 1.390 . S
C1078 H1069 0.930 . S
C1078 C1076 1.384 . S
C1078 C1079 1.372 . S
C1079 C1078 1.372 . S
C1079 C1080 1.400 . S
C1079 C1084 1.490 . S
C1080 H1070 0.936 . S
C1080 C1079 1.400 . S
C1080 C1083 1.386 . S
H1081 C1097 0.930 . S
H1082 C1098 0.931 . S
C1083 H1071 0.929 . S
C1083 C1077 1.390 . S
C1083 C1080 1.386 . S
C1084 C1079 1.490 . S
C1084 C1086 1.395 . S
C1084 C1087 1.403 1_545 S
H1085 C1091 0.930 . S
C1086 H1072 0.930 . S
C1086 C1084 1.395 . S
C1086 C1089 1.403 . S
C1087 C1084 1.403 1_565 S
C1087 C1088 1.524 . S
C1087 C1091 1.400 . S
C1088 H1073 0.960 . S
C1088 H1074 0.960 . S
C1088 H1075 0.960 . S
C1088 C1087 1.524 . S
C1089 C1086 1.403 . S
C1089 C1090 1.392 1_545 S
C1089 C1093 1.495 . S
C1090 C1089 1.392 1_565 S
C1090 C1091 1.385 . S
C1090 C1092 1.478 . S
C1091 H1085 0.930 . S
C1091 C1087 1.400 . S
C1091 C1090 1.385 . S
C1092 C1090 1.478 . S
C1092 C1094 1.381 . S
C1092 C1098 1.383 . S
C1093 C1089 1.495 . S
C1093 H1099 0.959 . S
C1093 H1100 0.961 . S
C1093 H1101 0.960 . S
C1094 C1092 1.381 . S
C1094 C1095 1.394 . S
C1094 H1102 0.933 . S
C1095 C1094 1.394 . S
C1095 C1096 1.383 . S
C1095 H1103 0.929 . S
C1096 C1095 1.383 . S
C1096 C1097 1.377 . S
C1097 H1081 0.930 . S
C1097 C1096 1.377 . S
C1097 C1098 1.379 . S
C1098 H1082 0.931 . S
C1098 C1092 1.383 . S
C1098 C1097 1.379 . S
H1099 C1093 0.959 . S
H1100 C1093 0.961 . S
H1101 C1093 0.960 . S
H1102 C1094 0.933 . S
H1103 C1095 0.929 . S
H1104 C1112 0.929 . S
H1105 C1114 0.930 . S
H1106 C1116 0.930 . S
H1107 C1119 0.929 . S
H1108 C1122 0.930 . S
H1109 C1124 0.960 . S
H1110 C1124 0.960 . S
H1111 C1124 0.960 . S
C1112 H1104 0.929 . S
C1112 C1113 1.377 . S
C1112 C1114 1.384 . S
C1113 C1112 1.377 . S
C1113 C1119 1.390 . S
C1114 H1105 0.930 . S
C1114 C1112 1.384 . S
C1114 C1115 1.372 . S
C1115 C1114 1.372 . S
C1115 C1116 1.400 . S
C1115 C1120 1.490 . S
C1116 H1106 0.930 . S
C1116 C1115 1.400 . S
C1116 C1119 1.386 . S
H1117 C1133 0.930 . S
H1118 C1134 0.931 . S
C1119 H1107 0.929 . S
C1119 C1113 1.390 . S
C1119 C1116 1.386 . S
C1120 C1115 1.490 . S
C1120 C1122 1.395 . S
C1120 C1123 1.403 . S
H1121 C1127 0.930 . S
C1122 H1108 0.930 . S
C1122 C1120 1.395 . S
C1122 C1125 1.403 . S
C1123 C1120 1.403 . S
C1123 C1124 1.524 . S
C1123 C1127 1.400 . S
C1124 H1109 0.960 . S
C1124 H1110 0.960 . S
C1124 H1111 0.960 . S
C1124 C1123 1.524 . S
C1125 C1122 1.403 . S
C1125 C1126 1.392 . S
C1125 C1129 1.495 1_554 S
C1126 C1125 1.392 . S
C1126 C1127 1.385 . S
C1126 C1128 1.478 . S
C1127 H1121 0.930 . S
C1127 C1123 1.400 . S
C1127 C1126 1.385 . S
C1128 C1126 1.478 . S
C1128 C1130 1.381 . S
C1128 C1134 1.383 . S
C1129 C1125 1.495 1_556 S
C1129 H1135 0.959 . S
C1129 H1136 0.961 . S
C1129 H1137 0.960 1_556 S
C1130 C1128 1.381 . S
C1130 C1131 1.394 . S
C1130 H1138 0.930 . S
C1131 C1130 1.394 . S
C1131 C1132 1.383 . S
C1131 H1139 0.929 . S
C1132 C1131 1.383 . S
C1132 C1133 1.377 . S
C1133 H1117 0.930 . S
C1133 C1132 1.377 . S
C1133 C1134 1.379 . S
C1134 H1118 0.931 . S
C1134 C1128 1.383 . S
C1134 C1133 1.379 . S
H1135 C1129 0.959 . S
H1136 C1129 0.961 . S
H1137 C1129 0.960 1_554 S
H1138 C1130 0.930 . S
H1139 C1131 0.929 . S
H1140 C1148 0.929 . S
H1141 C1150 0.930 . S
H1142 C1152 0.930 . S
H1143 C1155 0.929 . S
H1144 C1158 0.930 . S
H1145 C1160 0.960 . S
H1146 C1160 0.960 . S
H1147 C1160 0.960 . S
C1148 H1140 0.929 . S
C1148 C1149 1.377 . S
C1148 C1150 1.384 . S
C1149 C1148 1.377 . S
C1149 C1155 1.390 . S
C1150 H1141 0.930 . S
C1150 C1148 1.384 . S
C1150 C1151 1.372 . S
C1151 C1150 1.372 . S
C1151 C1152 1.400 . S
C1151 C1156 1.490 . S
C1152 H1142 0.930 . S
C1152 C1151 1.400 . S
C1152 C1155 1.386 . S
H1153 C1169 0.930 . S
H1154 C1170 0.931 . S
C1155 H1143 0.929 . S
C1155 C1149 1.390 . S
C1155 C1152 1.386 . S
C1156 C1151 1.490 . S
C1156 C1158 1.395 . S
C1156 C1159 1.403 . S
H1157 C1163 0.930 . S
C1158 H1144 0.930 . S
C1158 C1156 1.395 . S
C1158 C1161 1.403 . S
C1159 C1156 1.403 . S
C1159 C1160 1.524 . S
C1159 C1163 1.400 . S
C1160 H1145 0.960 . S
C1160 H1146 0.960 . S
C1160 H1147 0.960 . S
C1160 C1159 1.524 . S
C1161 C1158 1.403 . S
C1161 C1162 1.392 . S
C1161 C1165 1.495 . S
C1162 C1161 1.392 . S
C1162 C1163 1.385 . S
C1162 C1164 1.478 . S
C1163 H1157 0.930 . S
C1163 C1159 1.400 . S
C1163 C1162 1.385 . S
C1164 C1162 1.478 . S
C1164 C1166 1.381 . S
C1164 C1170 1.383 . S
C1165 C1161 1.495 . S
C1165 H1171 0.959 . S
C1165 H1172 0.961 . S
C1165 H1173 0.960 . S
C1166 C1164 1.381 . S
C1166 C1167 1.394 . S
C1166 H1174 0.930 . S
C1167 C1166 1.394 . S
C1167 C1168 1.383 . S
C1167 H1175 0.929 . S
C1168 C1167 1.383 . S
C1168 C1169 1.377 . S
C1169 H1153 0.930 . S
C1169 C1168 1.377 . S
C1169 C1170 1.379 . S
C1170 H1154 0.931 . S
C1170 C1164 1.383 . S
C1170 C1169 1.379 . S
H1171 C1165 0.959 . S
H1172 C1165 0.961 . S
H1173 C1165 0.960 . S
H1174 C1166 0.930 . S
H1175 C1167 0.929 . S
H1176 C1184 0.929 . S
H1177 C1186 0.930 . S
H1178 C1188 0.930 . S
H1179 C1191 0.929 . S
H1180 C1194 0.930 . S
H1181 C1196 0.960 . S
H1182 C1196 0.960 . S
H1183 C1196 0.960 . S
C1184 H1176 0.929 . S
C1184 C1185 1.377 . S
C1184 C1186 1.384 . S
C1185 C1184 1.377 . S
C1185 C1191 1.390 . S
C1186 H1177 0.930 . S
C1186 C1184 1.384 . S
C1186 C1187 1.372 . S
C1187 C1186 1.372 . S
C1187 C1188 1.400 . S
C1187 C1192 1.490 . S
C1188 H1178 0.930 . S
C1188 C1187 1.400 . S
C1188 C1191 1.386 . S
H1189 C1205 0.930 . S
H1190 C1206 0.931 . S
C1191 H1179 0.929 . S
C1191 C1185 1.390 . S
C1191 C1188 1.386 . S
C1192 C1187 1.490 . S
C1192 C1194 1.395 . S
C1192 C1195 1.403 . S
H1193 C1199 0.930 . S
C1194 H1180 0.930 . S
C1194 C1192 1.395 . S
C1194 C1197 1.403 . S
C1195 C1192 1.403 . S
C1195 C1196 1.524 . S
C1195 C1199 1.400 . S
C1196 H1181 0.960 . S
C1196 H1182 0.960 . S
C1196 H1183 0.960 . S
C1196 C1195 1.524 . S
C1197 C1194 1.403 . S
C1197 C1198 1.392 . S
C1197 C1201 1.495 . S
C1198 C1197 1.392 . S
C1198 C1199 1.385 . S
C1198 C1200 1.478 . S
C1199 H1193 0.930 . S
C1199 C1195 1.400 . S
C1199 C1198 1.385 . S
C1200 C1198 1.478 . S
C1200 C1202 1.381 . S
C1200 C1206 1.383 . S
C1201 C1197 1.495 . S
C1201 H1207 0.959 . S
C1201 H1208 0.961 . S
C1201 H1209 0.960 . S
C1202 C1200 1.381 . S
C1202 C1203 1.394 . S
C1202 H1210 0.930 . S
C1203 C1202 1.394 . S
C1203 C1204 1.383 . S
C1203 H1211 0.929 . S
C1204 C1203 1.383 . S
C1204 C1205 1.377 . S
C1205 H1189 0.930 . S
C1205 C1204 1.377 . S
C1205 C1206 1.379 . S
C1206 H1190 0.931 . S
C1206 C1200 1.383 . S
C1206 C1205 1.379 . S
H1207 C1201 0.959 . S
H1208 C1201 0.961 . S
H1209 C1201 0.960 . S
H1210 C1202 0.930 . S
H1211 C1203 0.929 . S
H1212 C1220 0.929 . S
H1213 C1222 0.930 . S
H1214 C1224 0.930 . S
H1215 C1227 0.929 . S
H1216 C1230 0.930 . S
H1217 C1232 0.960 . S
H1218 C1232 0.960 . S
H1219 C1232 0.960 . S
C1220 H1212 0.929 . S
C1220 C1221 1.377 1_556 S
C1220 C1222 1.384 . S
C1221 C1220 1.377 1_554 S
C1221 C1227 1.390 . S
C1222 H1213 0.930 . S
C1222 C1220 1.384 . S
C1222 C1223 1.372 1_556 S
C1223 C1222 1.372 1_554 S
C1223 C1224 1.400 . S
C1223 C1228 1.490 . S
C1224 H1214 0.930 . S
C1224 C1223 1.400 . S
C1224 C1227 1.386 . S
H1225 C1241 0.930 . S
H1226 C1242 0.931 . S
C1227 H1215 0.929 . S
C1227 C1221 1.390 . S
C1227 C1224 1.386 . S
C1228 C1223 1.490 . S
C1228 C1230 1.395 1_554 S
C1228 C1231 1.403 . S
H1229 C1235 0.930 . S
C1230 H1216 0.930 . S
C1230 C1228 1.395 1_556 S
C1230 C1233 1.403 . S
C1231 C1228 1.403 . S
C1231 C1232 1.524 . S
C1231 C1235 1.400 . S
C1232 H1217 0.960 . S
C1232 H1218 0.960 . S
C1232 H1219 0.960 . S
C1232 C1231 1.524 . S
C1233 C1230 1.403 . S
C1233 C1234 1.392 . S
C1233 C1237 1.495 . S
C1234 C1233 1.392 . S
C1234 C1235 1.385 1_556 S
C1234 C1236 1.478 . S
C1235 H1229 0.930 . S
C1235 C1231 1.400 . S
C1235 C1234 1.385 1_554 S
C1236 C1234 1.478 . S
C1236 C1238 1.381 . S
C1236 C1242 1.383 1_556 S
C1237 C1233 1.495 . S
C1237 H1243 0.959 . S
C1237 H1244 0.961 . S
C1237 H1245 0.960 . S
C1238 C1236 1.381 . S
C1238 C1239 1.394 . S
C1238 H1246 0.930 . S
C1239 C1238 1.394 . S
C1239 C1240 1.383 . S
C1239 H1247 0.929 . S
C1240 C1239 1.383 . S
C1240 C1241 1.377 1_556 S
C1241 H1225 0.930 . S
C1241 C1240 1.377 1_554 S
C1241 C1242 1.379 . S
C1242 H1226 0.931 . S
C1242 C1236 1.383 1_554 S
C1242 C1241 1.379 . S
H1243 C1237 0.959 . S
H1244 C1237 0.961 . S
H1245 C1237 0.960 . S
H1246 C1238 0.930 . S
H1247 C1239 0.929 . S
H1248 C1256 0.929 . S
H1249 C1258 0.930 . S
H1250 C1260 0.930 . S
H1251 C1263 0.929 . S
H1252 C1266 0.930 . S
H1253 C1268 0.960 . S
H1254 C1268 0.960 . S
H1255 C1268 0.960 . S
C1256 H1248 0.929 . S
C1256 C1257 1.377 . S
C1256 C1258 1.384 . S
C1257 C1256 1.377 . S
C1257 C1263 1.390 . S
C1258 H1249 0.930 . S
C1258 C1256 1.384 . S
C1258 C1259 1.372 . S
C1259 C1258 1.372 . S
C1259 C1260 1.400 . S
C1259 C1264 1.490 . S
C1260 H1250 0.930 . S
C1260 C1259 1.400 . S
C1260 C1263 1.386 . S
H1261 C1277 0.930 . S
H1262 C1278 0.931 . S
C1263 H1251 0.929 . S
C1263 C1257 1.390 . S
C1263 C1260 1.386 . S
C1264 C1259 1.490 . S
C1264 C1266 1.395 . S
C1264 C1267 1.403 . S
H1265 C1271 0.930 . S
C1266 H1252 0.930 . S
C1266 C1264 1.395 . S
C1266 C1269 1.403 . S
C1267 C1264 1.403 . S
C1267 C1268 1.524 . S
C1267 C1271 1.400 . S
C1268 H1253 0.960 . S
C1268 H1254 0.960 . S
C1268 H1255 0.960 . S
C1268 C1267 1.524 . S
C1269 C1266 1.403 . S
C1269 C1270 1.392 . S
C1269 C1273 1.495 . S
C1270 C1269 1.392 . S
C1270 C1271 1.385 . S
C1270 C1272 1.478 . S
C1271 H1265 0.930 . S
C1271 C1267 1.400 . S
C1271 C1270 1.385 . S
C1272 C1270 1.478 . S
C1272 C1274 1.381 . S
C1272 C1278 1.383 . S
C1273 C1269 1.495 . S
C1273 H1279 0.959 . S
C1273 H1280 0.961 . S
C1273 H1281 0.960 . S
C1274 C1272 1.381 . S
C1274 C1275 1.394 . S
C1274 H1282 0.930 . S
C1275 C1274 1.394 . S
C1275 C1276 1.383 . S
C1275 H1283 0.929 . S
C1276 C1275 1.383 . S
C1276 C1277 1.377 . S
C1277 H1261 0.930 . S
C1277 C1276 1.377 . S
C1277 C1278 1.379 . S
C1278 H1262 0.931 . S
C1278 C1272 1.383 . S
C1278 C1277 1.379 . S
H1279 C1273 0.959 . S
H1280 C1273 0.961 . S
H1281 C1273 0.960 . S
H1282 C1274 0.930 . S
H1283 C1275 0.929 . S
H1284 C1292 0.929 . S
H1285 C1294 0.930 . S
H1286 C1296 0.930 . S
H1287 C1299 0.929 . S
H1288 C1302 0.930 . S
H1289 C1304 0.960 . S
H1290 C1304 0.960 . S
H1291 C1304 0.960 . S
C1292 H1284 0.929 . S
C1292 C1293 1.377 . S
C1292 C1294 1.384 . S
C1293 C1292 1.377 . S
C1293 C1299 1.390 . S
C1294 H1285 0.930 . S
C1294 C1292 1.384 . S
C1294 C1295 1.372 . S
C1295 C1294 1.372 . S
C1295 C1296 1.400 . S
C1295 C1300 1.490 . S
C1296 H1286 0.930 . S
C1296 C1295 1.400 . S
C1296 C1299 1.386 . S
H1297 C1313 0.930 . S
H1298 C1314 0.931 . S
C1299 H1287 0.929 . S
C1299 C1293 1.390 . S
C1299 C1296 1.386 . S
C1300 C1295 1.490 . S
C1300 C1302 1.395 . S
C1300 C1303 1.403 . S
H1301 C1307 0.930 . S
C1302 H1288 0.930 . S
C1302 C1300 1.395 . S
C1302 C1305 1.403 . S
C1303 C1300 1.403 . S
C1303 C1304 1.524 . S
C1303 C1307 1.400 . S
C1304 H1289 0.960 . S
C1304 H1290 0.960 . S
C1304 H1291 0.960 . S
C1304 C1303 1.524 . S
C1305 C1302 1.403 . S
C1305 C1306 1.392 . S
C1305 C1309 1.495 . S
C1306 C1305 1.392 . S
C1306 C1307 1.385 . S
C1306 C1308 1.478 . S
C1307 H1301 0.930 . S
C1307 C1303 1.400 . S
C1307 C1306 1.385 . S
C1308 C1306 1.478 . S
C1308 C1310 1.381 . S
C1308 C1314 1.383 . S
C1309 C1305 1.495 . S
C1309 H1315 0.959 . S
C1309 H1316 0.961 . S
C1309 H1317 0.960 . S
C1310 C1308 1.381 . S
C1310 C1311 1.394 . S
C1310 H1318 0.930 . S
C1311 C1310 1.394 . S
C1311 C1312 1.383 . S
C1311 H1319 0.929 . S
C1312 C1311 1.383 . S
C1312 C1313 1.377 . S
C1313 H1297 0.930 . S
C1313 C1312 1.377 . S
C1313 C1314 1.379 . S
C1314 H1298 0.931 . S
C1314 C1308 1.383 . S
C1314 C1313 1.379 . S
H1315 C1309 0.959 . S
H1316 C1309 0.961 . S
H1317 C1309 0.960 . S
H1318 C1310 0.930 . S
H1319 C1311 0.929 . S
H1320 C1328 0.929 . S
H1321 C1330 0.930 . S
H1322 C1332 0.930 . S
H1323 C1335 0.929 . S
H1324 C1338 0.930 . S
H1325 C1340 0.960 . S
H1326 C1340 0.960 . S
H1327 C1340 0.960 . S
C1328 H1320 0.929 . S
C1328 C1329 1.377 1_556 S
C1328 C1330 1.384 . S
C1329 C1328 1.377 1_554 S
C1329 C1335 1.390 . S
C1330 H1321 0.930 . S
C1330 C1328 1.384 . S
C1330 C1331 1.372 1_556 S
C1331 C1330 1.372 1_554 S
C1331 C1332 1.400 . S
C1331 C1336 1.490 . S
C1332 H1322 0.930 . S
C1332 C1331 1.400 . S
C1332 C1335 1.386 . S
H1333 C1349 0.930 . S
H1334 C1350 0.931 . S
C1335 H1323 0.929 . S
C1335 C1329 1.390 . S
C1335 C1332 1.386 . S
C1336 C1331 1.490 . S
C1336 C1338 1.395 1_554 S
C1336 C1339 1.403 . S
H1337 C1343 0.930 . S
C1338 H1324 0.930 . S
C1338 C1336 1.395 1_556 S
C1338 C1341 1.403 . S
C1339 C1336 1.403 . S
C1339 C1340 1.524 . S
C1339 C1343 1.400 . S
C1340 H1325 0.960 . S
C1340 H1326 0.960 . S
C1340 H1327 0.960 . S
C1340 C1339 1.524 . S
C1341 C1338 1.403 . S
C1341 C1342 1.410 . S
C1341 C1345 1.495 . S
C1342 C1341 1.410 . S
C1342 C1343 1.363 1_556 S
C1342 C1344 1.482 . S
C1343 H1337 0.930 . S
C1343 C1339 1.400 . S
C1343 C1342 1.363 1_554 S
C1344 C1342 1.482 . S
C1344 C1346 1.381 . S
C1344 C1350 1.383 1_556 S
C1345 C1341 1.495 . S
C1345 H1351 0.959 . S
C1345 H1352 0.961 . S
C1345 H1353 0.960 . S
C1346 C1344 1.381 . S
C1346 C1347 1.394 . S
C1346 H1354 0.930 . S
C1347 C1346 1.394 . S
C1347 C1348 1.383 . S
C1347 H1355 0.929 . S
C1348 C1347 1.383 . S
C1348 C1349 1.377 1_556 S
C1349 H1333 0.930 . S
C1349 C1348 1.377 1_554 S
C1349 C1350 1.379 . S
C1350 H1334 0.931 . S
C1350 C1344 1.383 1_554 S
C1350 C1349 1.379 . S
H1351 C1345 0.959 . S
H1352 C1345 0.961 . S
H1353 C1345 0.960 . S
H1354 C1346 0.930 . S
H1355 C1347 0.929 . S
H1356 C1364 0.929 . S
H1357 C1366 0.930 . S
H1358 C1368 0.930 1_565 S
H1359 C1371 0.929 . S
H1360 C1374 0.930 . S
H1361 C1376 0.960 . S
H1362 C1376 0.960 . S
H1363 C1376 0.960 . S
C1364 H1356 0.929 . S
C1364 C1365 1.377 . S
C1364 C1366 1.384 . S
C1365 C1364 1.377 . S
C1365 C1371 1.390 . S
C1366 H1357 0.930 . S
C1366 C1364 1.384 . S
C1366 C1367 1.372 . S
C1367 C1366 1.372 . S
C1367 C1368 1.400 . S
C1367 C1372 1.490 . S
C1368 H1358 0.930 1_545 S
C1368 C1367 1.400 . S
C1368 C1371 1.386 . S
H1369 C1385 0.930 . S
H1370 C1386 0.931 . S
C1371 H1359 0.929 . S
C1371 C1365 1.390 . S
C1371 C1368 1.386 . S
C1372 C1367 1.490 . S
C1372 C1374 1.395 1_545 S
C1372 C1375 1.403 . S
H1373 C1379 0.930 . S
C1374 H1360 0.930 . S
C1374 C1372 1.395 1_565 S
C1374 C1377 1.403 . S
C1375 C1372 1.403 . S
C1375 C1376 1.524 . S
C1375 C1379 1.400 . S
C1376 H1361 0.960 . S
C1376 H1362 0.960 . S
C1376 H1363 0.960 . S
C1376 C1375 1.524 . S
C1377 C1374 1.403 . S
C1377 C1378 1.392 . S
C1377 C1381 1.495 . S
C1378 C1377 1.392 . S
C1378 C1379 1.385 1_565 S
C1378 C1380 1.478 . S
C1379 H1373 0.930 . S
C1379 C1375 1.400 . S
C1379 C1378 1.385 1_545 S
C1380 C1378 1.478 . S
C1380 C1382 1.381 . S
C1380 C1386 1.383 . S
C1381 C1377 1.495 . S
C1381 H1387 0.959 . S
C1381 H1388 0.961 . S
C1381 H1389 0.960 . S
C1382 C1380 1.381 . S
C1382 C1383 1.394 . S
C1382 H1390 0.930 1_565 S
C1383 C1382 1.394 . S
C1383 C1384 1.383 . S
C1383 H1391 0.940 . S
C1384 C1383 1.383 . S
C1384 C1385 1.377 . S
C1385 H1369 0.930 . S
C1385 C1384 1.377 . S
C1385 C1386 1.379 . S
C1386 H1370 0.931 . S
C1386 C1380 1.383 . S
C1386 C1385 1.379 . S
H1387 C1381 0.959 . S
H1388 C1381 0.961 . S
H1389 C1381 0.960 . S
H1390 C1382 0.930 1_545 S
H1391 C1383 0.940 . S
H1392 C1400 0.929 . S
H1393 C1402 0.930 . S
H1394 C1404 0.930 . S
H1395 C1407 0.929 . S
H1396 C1410 0.930 . S
H1397 C1412 0.960 . S
H1398 C1412 0.960 . S
H1399 C1412 0.960 . S
C1400 H1392 0.929 . S
C1400 C1401 1.377 . S
C1400 C1402 1.384 . S
C1401 C1400 1.377 . S
C1401 C1407 1.390 . S
C1402 H1393 0.930 . S
C1402 C1400 1.384 . S
C1402 C1403 1.372 . S
C1403 C1402 1.372 . S
C1403 C1404 1.400 . S
C1403 C1408 1.490 . S
C1404 H1394 0.930 . S
C1404 C1403 1.400 . S
C1404 C1407 1.386 . S
H1405 C1421 0.930 . S
H1406 C1422 0.931 . S
C1407 H1395 0.929 . S
C1407 C1401 1.390 . S
C1407 C1404 1.386 . S
C1408 C1403 1.490 . S
C1408 C1410 1.395 . S
C1408 C1411 1.403 . S
H1409 C1415 0.930 . S
C1410 H1396 0.930 . S
C1410 C1408 1.395 . S
C1410 C1413 1.403 . S
C1411 C1408 1.403 . S
C1411 C1412 1.524 . S
C1411 C1415 1.400 . S
C1412 H1397 0.960 . S
C1412 H1398 0.960 . S
C1412 H1399 0.960 . S
C1412 C1411 1.524 . S
C1413 C1410 1.403 . S
C1413 C1414 1.392 . S
C1413 C1417 1.495 . S
C1414 C1413 1.392 . S
C1414 C1415 1.385 . S
C1414 C1416 1.478 . S
C1415 H1409 0.930 . S
C1415 C1411 1.400 . S
C1415 C1414 1.385 . S
C1416 C1414 1.478 . S
C1416 C1418 1.381 . S
C1416 C1422 1.383 . S
C1417 C1413 1.495 . S
C1417 H1423 0.959 . S
C1417 H1424 0.961 . S
C1417 H1425 0.960 . S
C1418 C1416 1.381 . S
C1418 C1419 1.394 . S
C1418 H1426 0.930 . S
C1419 C1418 1.394 . S
C1419 C1420 1.383 . S
C1419 H1427 0.929 . S
C1420 C1419 1.383 . S
C1420 C1421 1.377 . S
C1421 H1405 0.930 . S
C1421 C1420 1.377 . S
C1421 C1422 1.379 . S
C1422 H1406 0.931 . S
C1422 C1416 1.383 . S
C1422 C1421 1.379 . S
H1423 C1417 0.959 . S
H1424 C1417 0.961 . S
H1425 C1417 0.960 . S
H1426 C1418 0.930 . S
H1427 C1419 0.929 . S
H1428 C1436 0.929 . S
H1429 C1438 0.930 . S
H1430 C1440 0.930 . S
H1431 C1443 0.929 . S
H1432 C1446 0.930 . S
H1433 C1448 0.960 . S
H1434 C1448 0.960 . S
H1435 C1448 0.960 . S
C1436 H1428 0.929 . S
C1436 C1437 1.377 1_655 S
C1436 C1438 1.384 . S
C1437 C1436 1.377 1_455 S
C1437 C1443 1.390 . S
C1438 H1429 0.930 . S
C1438 C1436 1.384 . S
C1438 C1439 1.372 1_655 S
C1439 C1438 1.372 1_455 S
C1439 C1440 1.400 . S
C1439 C1444 1.490 . S
C1440 H1430 0.930 . S
C1440 C1439 1.400 . S
C1440 C1443 1.386 . S
H1441 C1457 0.930 . S
H1442 C1458 0.931 . S
C1443 H1431 0.929 . S
C1443 C1437 1.390 . S
C1443 C1440 1.386 . S
C1444 C1439 1.490 . S
C1444 C1446 1.395 1_455 S
C1444 C1447 1.403 . S
H1445 C1451 0.930 . S
C1446 H1432 0.930 . S
C1446 C1444 1.395 1_655 S
C1446 C1449 1.403 . S
C1447 C1444 1.403 . S
C1447 C1448 1.524 . S
C1447 C1451 1.400 . S
C1448 H1433 0.960 . S
C1448 H1434 0.960 . S
C1448 H1435 0.960 . S
C1448 C1447 1.524 . S
C1449 C1446 1.403 . S
C1449 C1450 1.392 . S
C1449 C1453 1.495 . S
C1450 C1449 1.392 . S
C1450 C1451 1.385 1_655 S
C1450 C1452 1.478 . S
C1451 H1445 0.930 . S
C1451 C1447 1.400 . S
C1451 C1450 1.385 1_455 S
C1452 C1450 1.478 . S
C1452 C1454 1.381 . S
C1452 C1458 1.383 1_655 S
C1453 C1449 1.495 . S
C1453 H1459 0.959 . S
C1453 H1460 0.961 . S
C1453 H1461 0.960 . S
C1454 C1452 1.381 . S
C1454 C1455 1.394 . S
C1454 H1462 0.930 . S
C1455 C1454 1.394 . S
C1455 C1456 1.383 . S
C1455 H1463 0.929 . S
C1456 C1455 1.383 . S
C1456 C1457 1.377 1_655 S
C1457 H1441 0.930 . S
C1457 C1456 1.377 1_455 S
C1457 C1458 1.379 . S
C1458 H1442 0.931 . S
C1458 C1452 1.383 1_455 S
C1458 C1457 1.379 . S
H1459 C1453 0.959 . S
H1460 C1453 0.961 . S
H1461 C1453 0.960 . S
H1462 C1454 0.930 . S
H1463 C1455 0.929 . S
H1464 C1472 0.929 . S
H1465 C1474 0.930 . S
H1466 C1476 0.930 . S
H1467 C1479 0.929 . S
H1468 C1482 0.930 . S
H1469 C1484 0.960 . S
H1470 C1484 0.960 . S
H1471 C1484 0.960 . S
C1472 H1464 0.929 . S
C1472 C1473 1.377 . S
C1472 C1474 1.384 . S
C1473 C1472 1.377 . S
C1473 C1479 1.390 1_565 S
C1474 H1465 0.930 . S
C1474 C1472 1.384 . S
C1474 C1475 1.372 . S
C1475 C1474 1.372 . S
C1475 C1476 1.400 1_565 S
C1475 C1480 1.490 . S
C1476 H1466 0.930 . S
C1476 C1475 1.400 1_545 S
C1476 C1479 1.386 . S
H1477 C1493 0.930 . S
H1478 C1494 0.931 . S
C1479 H1467 0.929 . S
C1479 C1473 1.390 1_545 S
C1479 C1476 1.386 . S
C1480 C1475 1.490 . S
C1480 C1482 1.395 . S
C1480 C1483 1.403 1_565 S
H1481 C1487 0.930 . S
C1482 H1468 0.930 . S
C1482 C1480 1.395 . S
C1482 C1485 1.403 . S
C1483 C1480 1.403 1_545 S
C1483 C1484 1.524 . S
C1483 C1487 1.400 . S
C1484 H1469 0.960 . S
C1484 H1470 0.960 . S
C1484 H1471 0.960 . S
C1484 C1483 1.524 . S
C1485 C1482 1.403 . S
C1485 C1486 1.425 . S
C1485 C1489 1.495 . S
C1486 C1485 1.425 . S
C1486 C1487 1.355 1_565 S
C1486 C1488 1.473 1_565 S
C1487 H1481 0.930 . S
C1487 C1483 1.400 . S
C1487 C1486 1.355 1_545 S
C1488 C1486 1.473 1_545 S
C1488 C1490 1.381 1_545 S
C1488 C1494 1.383 . S
C1489 C1485 1.495 . S
C1489 H1495 0.959 . S
C1489 H1496 0.961 . S
C1489 H1497 0.960 . S
C1490 C1488 1.381 1_565 S
C1490 C1491 1.394 . S
C1490 H1498 0.930 . S
C1491 C1490 1.394 . S
C1491 C1492 1.383 1_565 S
C1491 H1499 0.929 . S
C1492 C1491 1.383 1_545 S
C1492 C1493 1.377 . S
C1493 H1477 0.930 . S
C1493 C1492 1.377 . S
C1493 C1494 1.379 . S
C1494 H1478 0.931 . S
C1494 C1488 1.383 . S
C1494 C1493 1.379 . S
H1495 C1489 0.959 . S
H1496 C1489 0.961 . S
H1497 C1489 0.960 . S
H1498 C1490 0.930 . S
H1499 C1491 0.929 . S
H1500 C1508 0.929 . S
H1501 C1510 0.930 . S
H1502 C1512 0.930 . S
H1503 C1515 0.929 . S
H1504 C1518 0.930 . S
H1505 C1520 0.960 . S
H1506 C1520 0.960 . S
H1507 C1520 0.960 . S
C1508 H1500 0.929 . S
C1508 C1509 1.377 . S
C1508 C1510 1.384 . S
C1509 C1508 1.377 . S
C1509 C1515 1.390 . S
C1510 H1501 0.930 . S
C1510 C1508 1.384 . S
C1510 C1511 1.372 . S
C1511 C1510 1.372 . S
C1511 C1512 1.400 . S
C1511 C1516 1.490 . S
C1512 H1502 0.930 . S
C1512 C1511 1.400 . S
C1512 C1515 1.386 . S
H1513 C1529 0.930 . S
H1514 C1530 0.931 . S
C1515 H1503 0.929 . S
C1515 C1509 1.390 . S
C1515 C1512 1.386 . S
C1516 C1511 1.490 . S
C1516 C1518 1.395 . S
C1516 C1519 1.403 . S
H1517 C1523 0.930 . S
C1518 H1504 0.930 . S
C1518 C1516 1.395 . S
C1518 C1521 1.403 . S
C1519 C1516 1.403 . S
C1519 C1520 1.524 . S
C1519 C1523 1.400 . S
C1520 H1505 0.960 . S
C1520 H1506 0.960 . S
C1520 H1507 0.960 . S
C1520 C1519 1.524 . S
C1521 C1518 1.403 . S
C1521 C1522 1.392 . S
C1521 C1525 1.495 . S
C1522 C1521 1.392 . S
C1522 C1523 1.385 . S
C1522 C1524 1.478 . S
C1523 H1517 0.930 . S
C1523 C1519 1.400 . S
C1523 C1522 1.385 . S
C1524 C1522 1.478 . S
C1524 C1526 1.381 . S
C1524 C1530 1.383 . S
C1525 C1521 1.495 . S
C1525 H1531 0.959 . S
C1525 H1532 0.961 . S
C1525 H1533 0.960 . S
C1526 C1524 1.381 . S
C1526 C1527 1.394 . S
C1526 H1534 0.930 . S
C1527 C1526 1.394 . S
C1527 C1528 1.383 . S
C1527 H1535 0.929 . S
C1528 C1527 1.383 . S
C1528 C1529 1.377 . S
C1529 H1513 0.930 . S
C1529 C1528 1.377 . S
C1529 C1530 1.379 . S
C1530 H1514 0.931 . S
C1530 C1524 1.383 . S
C1530 C1529 1.379 . S
H1531 C1525 0.959 . S
H1532 C1525 0.961 . S
H1533 C1525 0.960 . S
H1534 C1526 0.930 . S
H1535 C1527 0.929 . S
H1536 C1544 0.929 . S
H1537 C1546 0.930 . S
H1538 C1548 0.930 . S
H1539 C1551 0.929 . S
H1540 C1554 0.930 . S
H1541 C1556 0.960 . S
H1542 C1556 0.960 . S
H1543 C1556 0.960 . S
C1544 H1536 0.929 . S
C1544 C1545 1.377 . S
C1544 C1546 1.384 . S
C1545 C1544 1.377 . S
C1545 C1551 1.390 1_655 S
C1546 H1537 0.930 . S
C1546 C1544 1.384 . S
C1546 C1547 1.372 . S
C1547 C1546 1.372 . S
C1547 C1548 1.400 1_655 S
C1547 C1552 1.490 . S
C1548 H1538 0.930 . S
C1548 C1547 1.400 1_455 S
C1548 C1551 1.386 . S
H1549 C1565 0.930 . S
H1550 C1566 0.931 . S
C1551 H1539 0.929 . S
C1551 C1545 1.390 1_455 S
C1551 C1548 1.386 . S
C1552 C1547 1.490 . S
C1552 C1554 1.395 . S
C1552 C1555 1.403 1_655 S
H1553 C1559 0.930 . S
C1554 H1540 0.930 . S
C1554 C1552 1.395 . S
C1554 C1557 1.403 . S
C1555 C1552 1.403 1_455 S
C1555 C1556 1.524 . S
C1555 C1559 1.400 . S
C1556 H1541 0.960 . S
C1556 H1542 0.960 . S
C1556 H1543 0.960 . S
C1556 C1555 1.524 . S
C1557 C1554 1.403 . S
C1557 C1558 1.430 . S
C1557 C1561 1.495 . S
C1558 C1557 1.430 . S
C1558 C1559 1.351 1_655 S
C1558 C1560 1.473 1_655 S
C1559 H1553 0.930 . S
C1559 C1555 1.400 . S
C1559 C1558 1.351 1_455 S
C1560 C1558 1.473 1_455 S
C1560 C1562 1.381 1_455 S
C1560 C1566 1.383 . S
C1561 C1557 1.495 . S
C1561 H1567 0.959 . S
C1561 H1568 0.961 . S
C1561 H1569 0.960 . S
C1562 C1560 1.381 1_655 S
C1562 C1563 1.394 . S
C1562 H1570 0.930 . S
C1563 C1562 1.394 . S
C1563 C1564 1.383 1_655 S
C1563 H1571 0.929 . S
C1564 C1563 1.383 1_455 S
C1564 C1565 1.377 . S
C1565 H1549 0.930 . S
C1565 C1564 1.377 . S
C1565 C1566 1.379 . S
C1566 H1550 0.931 . S
C1566 C1560 1.383 . S
C1566 C1565 1.379 . S
H1567 C1561 0.959 . S
H1568 C1561 0.961 . S
H1569 C1561 0.960 . S
H1570 C1562 0.930 . S
H1571 C1563 0.929 . S
C717 C5 1.746 . S
C736 C477 1.739 . S
C753 C64 1.745 . S
C772 C536 1.742 . S
C789 C595 1.746 . S
C808 C123 1.743 . S
C825 C654 1.746 . S
C844 C182 1.739 . S
C861 C359 1.745 . S
C880 C241 1.743 . S
C897 C418 1.746 . S
C916 C300 1.742 . S
C933 C3 1.839 . S
C952 C180 1.854 . S
C969 C239 1.839 . S
C988 C62 1.852 . S
C1005 C298 1.836 . S
C1024 C121 1.850 . S
C1041 C357 1.840 . S
C1060 C534 1.848 . S
C1077 C593 1.841 . S
C1096 C416 1.823 . S
C1113 C475 1.844 . S
C1132 C652 1.817 . S
C1149 C387 0.965 . S
C1168 C33 0.939 . S
C1185 C92 0.965 . S
C1204 C446 0.945 . S
C1221 C505 0.958 . S
C1240 C151 0.980 . S
C1257 C564 0.965 . S
C1276 C210 0.938 . S
C1293 C269 0.965 . S
C1312 C623 0.938 . S
C1329 C682 0.957 . S
C1348 C328 0.981 . S
C1365 C52 1.122 . S
C1384 C465 1.127 . S
C1401 C524 1.121 . S
C1420 C111 1.114 . S
C1437 C583 1.121 . S
C1456 C170 1.115 . S
C1473 C229 1.119 . S
C1492 C642 1.119 . S
C1509 C701 1.122 . S
C1528 C288 1.127 . S
C1545 C406 1.119 . S
C1564 C347 1.118 . S
