# Generated by pormake.
# Topology uox, (4)-cn, num edge types: 1
# Building blocks:
#     Node 0, Type 0, BuildingBlock: QUQFOY_clean_sbu_3, # of connection points: 4
#     Node 1, Type 0, BuildingBlock: QUQFOY_clean_sbu_3, # of connection points: 4
#     Node 2, Type 0, BuildingBlock: QUQFOY_clean_sbu_3, # of connection points: 4
#     Node 3, Type 0, BuildingBlock: QUQFOY_clean_sbu_3, # of connection points: 4
#     Node 4, Type 0, BuildingBlock: QUQFOY_clean_sbu_3, # of connection points: 4
#     Node 5, Type 0, BuildingBlock: QUQFOY_clean_sbu_3, # of connection points: 4
#     Node 6, Type 0, BuildingBlock: QUQFOY_clean_sbu_3, # of connection points: 4
#     Node 7, Type 0, BuildingBlock: QUQFOY_clean_sbu_3, # of connection points: 4
#     Node 8, Type 0, BuildingBlock: QUQFOY_clean_sbu_3, # of connection points: 4
#     Node 9, Type 0, BuildingBlock: QUQFOY_clean_sbu_3, # of connection points: 4
#     Node 10, Type 0, BuildingBlock: QUQFOY_clean_sbu_3, # of connection points: 4
#     Node 11, Type 0, BuildingBlock: QUQFOY_clean_sbu_3, # of connection points: 4
#     Node 12, Type 0, BuildingBlock: QUQFOY_clean_sbu_3, # of connection points: 4
#     Node 13, Type 0, BuildingBlock: QUQFOY_clean_sbu_3, # of connection points: 4
#     Node 14, Type 0, BuildingBlock: QUQFOY_clean_sbu_3, # of connection points: 4
#     Node 15, Type 0, BuildingBlock: QUQFOY_clean_sbu_3, # of connection points: 4
#     Node 16, Type 0, BuildingBlock: QUQFOY_clean_sbu_3, # of connection points: 4
#     Node 17, Type 0, BuildingBlock: QUQFOY_clean_sbu_3, # of connection points: 4
#     Node 18, Type 0, BuildingBlock: QUQFOY_clean_sbu_3, # of connection points: 4
#     Node 19, Type 0, BuildingBlock: QUQFOY_clean_sbu_3, # of connection points: 4
#     Node 20, Type 0, BuildingBlock: QUQFOY_clean_sbu_3, # of connection points: 4
#     Node 21, Type 0, BuildingBlock: QUQFOY_clean_sbu_3, # of connection points: 4
#     Node 22, Type 0, BuildingBlock: QUQFOY_clean_sbu_3, # of connection points: 4
#     Node 23, Type 0, BuildingBlock: QUQFOY_clean_sbu_3, # of connection points: 4
#     Node 24, Type 0, BuildingBlock: QUQFOY_clean_sbu_3, # of connection points: 4
#     Node 25, Type 0, BuildingBlock: QUQFOY_clean_sbu_3, # of connection points: 4
#     Node 26, Type 0, BuildingBlock: QUQFOY_clean_sbu_3, # of connection points: 4
#     Node 27, Type 0, BuildingBlock: QUQFOY_clean_sbu_3, # of connection points: 4
#     Node 28, Type 0, BuildingBlock: QUQFOY_clean_sbu_3, # of connection points: 4
#     Node 29, Type 0, BuildingBlock: QUQFOY_clean_sbu_3, # of connection points: 4
#     Node 30, Type 0, BuildingBlock: QUQFOY_clean_sbu_3, # of connection points: 4
#     Node 31, Type 0, BuildingBlock: QUQFOY_clean_sbu_3, # of connection points: 4
#     Edge 32, Type (0, 0), BuildingBlock: TEMPAE_clean_linker_10, # of connection points: 2
#     Edge 33, Type (0, 0), BuildingBlock: TEMPAE_clean_linker_10, # of connection points: 2
#     Edge 34, Type (0, 0), BuildingBlock: TEMPAE_clean_linker_10, # of connection points: 2
#     Edge 35, Type (0, 0), BuildingBlock: TEMPAE_clean_linker_10, # of connection points: 2
#     Edge 36, Type (0, 0), BuildingBlock: TEMPAE_clean_linker_10, # of connection points: 2
#     Edge 37, Type (0, 0), BuildingBlock: TEMPAE_clean_linker_10, # of connection points: 2
#     Edge 38, Type (0, 0), BuildingBlock: TEMPAE_clean_linker_10, # of connection points: 2
#     Edge 39, Type (0, 0), BuildingBlock: TEMPAE_clean_linker_10, # of connection points: 2
#     Edge 40, Type (0, 0), BuildingBlock: TEMPAE_clean_linker_10, # of connection points: 2
#     Edge 41, Type (0, 0), BuildingBlock: TEMPAE_clean_linker_10, # of connection points: 2
#     Edge 42, Type (0, 0), BuildingBlock: TEMPAE_clean_linker_10, # of connection points: 2
#     Edge 43, Type (0, 0), BuildingBlock: TEMPAE_clean_linker_10, # of connection points: 2
#     Edge 44, Type (0, 0), BuildingBlock: TEMPAE_clean_linker_10, # of connection points: 2
#     Edge 45, Type (0, 0), BuildingBlock: TEMPAE_clean_linker_10, # of connection points: 2
#     Edge 46, Type (0, 0), BuildingBlock: TEMPAE_clean_linker_10, # of connection points: 2
#     Edge 47, Type (0, 0), BuildingBlock: TEMPAE_clean_linker_10, # of connection points: 2
#     Edge 48, Type (0, 0), BuildingBlock: TEMPAE_clean_linker_10, # of connection points: 2
#     Edge 49, Type (0, 0), BuildingBlock: TEMPAE_clean_linker_10, # of connection points: 2
#     Edge 50, Type (0, 0), BuildingBlock: TEMPAE_clean_linker_10, # of connection points: 2
#     Edge 51, Type (0, 0), BuildingBlock: TEMPAE_clean_linker_10, # of connection points: 2
#     Edge 52, Type (0, 0), BuildingBlock: TEMPAE_clean_linker_10, # of connection points: 2
#     Edge 53, Type (0, 0), BuildingBlock: TEMPAE_clean_linker_10, # of connection points: 2
#     Edge 54, Type (0, 0), BuildingBlock: TEMPAE_clean_linker_10, # of connection points: 2
#     Edge 55, Type (0, 0), BuildingBlock: TEMPAE_clean_linker_10, # of connection points: 2
#     Edge 56, Type (0, 0), BuildingBlock: TEMPAE_clean_linker_10, # of connection points: 2
#     Edge 57, Type (0, 0), BuildingBlock: TEMPAE_clean_linker_10, # of connection points: 2
#     Edge 58, Type (0, 0), BuildingBlock: TEMPAE_clean_linker_10, # of connection points: 2
#     Edge 59, Type (0, 0), BuildingBlock: TEMPAE_clean_linker_10, # of connection points: 2
#     Edge 60, Type (0, 0), BuildingBlock: TEMPAE_clean_linker_10, # of connection points: 2
#     Edge 61, Type (0, 0), BuildingBlock: TEMPAE_clean_linker_10, # of connection points: 2
#     Edge 62, Type (0, 0), BuildingBlock: TEMPAE_clean_linker_10, # of connection points: 2
#     Edge 63, Type (0, 0), BuildingBlock: TEMPAE_clean_linker_10, # of connection points: 2
#     Edge 64, Type (0, 0), BuildingBlock: TEMPAE_clean_linker_10, # of connection points: 2
#     Edge 65, Type (0, 0), BuildingBlock: TEMPAE_clean_linker_10, # of connection points: 2
#     Edge 66, Type (0, 0), BuildingBlock: TEMPAE_clean_linker_10, # of connection points: 2
#     Edge 67, Type (0, 0), BuildingBlock: TEMPAE_clean_linker_10, # of connection points: 2
#     Edge 68, Type (0, 0), BuildingBlock: TEMPAE_clean_linker_10, # of connection points: 2
#     Edge 69, Type (0, 0), BuildingBlock: TEMPAE_clean_linker_10, # of connection points: 2
#     Edge 70, Type (0, 0), BuildingBlock: TEMPAE_clean_linker_10, # of connection points: 2
#     Edge 71, Type (0, 0), BuildingBlock: TEMPAE_clean_linker_10, # of connection points: 2
#     Edge 72, Type (0, 0), BuildingBlock: TEMPAE_clean_linker_10, # of connection points: 2
#     Edge 73, Type (0, 0), BuildingBlock: TEMPAE_clean_linker_10, # of connection points: 2
#     Edge 74, Type (0, 0), BuildingBlock: TEMPAE_clean_linker_10, # of connection points: 2
#     Edge 75, Type (0, 0), BuildingBlock: TEMPAE_clean_linker_10, # of connection points: 2
#     Edge 76, Type (0, 0), BuildingBlock: TEMPAE_clean_linker_10, # of connection points: 2
#     Edge 77, Type (0, 0), BuildingBlock: TEMPAE_clean_linker_10, # of connection points: 2
#     Edge 78, Type (0, 0), BuildingBlock: TEMPAE_clean_linker_10, # of connection points: 2
#     Edge 79, Type (0, 0), BuildingBlock: TEMPAE_clean_linker_10, # of connection points: 2
#     Edge 80, Type (0, 0), BuildingBlock: TEMPAE_clean_linker_10, # of connection points: 2
#     Edge 81, Type (0, 0), BuildingBlock: TEMPAE_clean_linker_10, # of connection points: 2
#     Edge 82, Type (0, 0), BuildingBlock: TEMPAE_clean_linker_10, # of connection points: 2
#     Edge 83, Type (0, 0), BuildingBlock: TEMPAE_clean_linker_10, # of connection points: 2
#     Edge 84, Type (0, 0), BuildingBlock: TEMPAE_clean_linker_10, # of connection points: 2
#     Edge 85, Type (0, 0), BuildingBlock: TEMPAE_clean_linker_10, # of connection points: 2
#     Edge 86, Type (0, 0), BuildingBlock: TEMPAE_clean_linker_10, # of connection points: 2
#     Edge 87, Type (0, 0), BuildingBlock: TEMPAE_clean_linker_10, # of connection points: 2
#     Edge 88, Type (0, 0), BuildingBlock: TEMPAE_clean_linker_10, # of connection points: 2
#     Edge 89, Type (0, 0), BuildingBlock: TEMPAE_clean_linker_10, # of connection points: 2
#     Edge 90, Type (0, 0), BuildingBlock: TEMPAE_clean_linker_10, # of connection points: 2
#     Edge 91, Type (0, 0), BuildingBlock: TEMPAE_clean_linker_10, # of connection points: 2
#     Edge 92, Type (0, 0), BuildingBlock: TEMPAE_clean_linker_10, # of connection points: 2
#     Edge 93, Type (0, 0), BuildingBlock: TEMPAE_clean_linker_10, # of connection points: 2
#     Edge 94, Type (0, 0), BuildingBlock: TEMPAE_clean_linker_10, # of connection points: 2
#     Edge 95, Type (0, 0), BuildingBlock: TEMPAE_clean_linker_10, # of connection points: 2
# Relax obj value: 0.059
# Max RMSD: 0.086
# Mean RMSD: 0.086
data_MOF--net-uox--node1-QUQFOY_clean_sbu_3--edge1-TEMPAE_clean_linker_10
_symmetry_space_group_name_H-M    P1
_symmetry_Int_Tables_number       1
_symmetry_cell_setting            triclinic
loop_
_symmetry_equiv_pos_as_xyz
'x, y, z'
_cell_length_a     47.255593
_cell_length_b     47.263579
_cell_length_c     81.659757
_cell_angle_alpha  90.001851
_cell_angle_beta   89.990946
_cell_angle_gamma 90.012243
loop_
_atom_site_label
_atom_site_type_symbol
_atom_site_fract_x
_atom_site_fract_y
_atom_site_fract_z
_atom_type_partial_charge
C0 C 0.49632 0.03407 0.12188 0.0
O1 O 0.48361 0.02282 0.10982 0.0
Cd2 Cd 0.43636 0.00356 0.1118 0.0
O3 O 0.48506 0.03414 0.13604 0.0
Cd4 Cd 0.44184 0.01682 0.14963 0.0
C5 C 0.4015 0.06134 0.12702 0.0
O6 O 0.43449 0.97221 0.13485 0.0
O7 O 0.39986 0.98725 0.14971 0.0
O8 O 0.46883 0.00051 0.17338 0.0
C9 C 0.41004 0.96783 0.14077 0.0
O10 O 0.40407 0.04378 0.11528 0.0
C11 C 0.45469 0.01472 0.18375 0.0
O12 O 0.41473 0.05773 0.14045 0.0
O13 O 0.43518 0.03045 0.17813 0.0
C14 C 0.20079 0.24779 0.37546 0.0
O15 O 0.21138 0.23517 0.36317 0.0
Cd16 Cd 0.2308 0.1879 0.36472 0.0
O17 O 0.20155 0.2365 0.3896 0.0
Cd18 Cd 0.21982 0.19336 0.40275 0.0
C19 C 0.17412 0.15289 0.38113 0.0
O20 O 0.26357 0.18611 0.3871 0.0
O21 O 0.24956 0.15148 0.40228 0.0
O22 O 0.23686 0.21999 0.42648 0.0
C23 C 0.26835 0.16167 0.39291 0.0
O24 O 0.19092 0.15536 0.36901 0.0
C25 C 0.22269 0.20578 0.43683 0.0
O26 O 0.17855 0.16624 0.39441 0.0
O27 O 0.20687 0.18635 0.43122 0.0
C28 C 0.99192 0.94784 0.62694 0.0
O29 O 0.00471 0.95921 0.61494 0.0
Cd30 Cd 0.05194 0.97842 0.61698 0.0
O31 O 0.00303 0.94768 0.64114 0.0
Cd32 Cd 0.04601 0.9655 0.65488 0.0
C33 C 0.08694 0.92095 0.63272 0.0
O34 O 0.05334 0.00991 0.6399 0.0
O35 O 0.08796 -0.00468 0.65489 0.0
O36 O 0.01818 0.98206 0.67825 0.0
C37 C 0.07778 0.01448 0.64578 0.0
O38 O 0.08434 0.93839 0.62091 0.0
C39 C 0.03224 0.96835 0.68887 0.0
O40 O 0.0735 0.92452 0.64608 0.0
O41 O 0.05215 0.95278 0.68358 0.0
C42 C 0.29109 0.74099 0.87471 0.0
O43 O 0.2802 0.75345 0.86246 0.0
Cd44 Cd 0.26073 0.80067 0.86426 0.0
O45 O 0.29051 0.7524 0.88882 0.0
Cd46 Cd 0.27195 0.7954 0.90195 0.0
C47 C 0.31719 0.83638 0.88049 0.0
O48 O 0.22782 0.80257 0.88658 0.0
O49 O 0.24252 0.83738 0.90143 0.0
O50 O 0.25428 0.76805 0.92517 0.0
C51 C 0.2233 0.82706 0.89241 0.0
O52 O 0.30022 0.83366 0.86847 0.0
C53 C 0.26783 0.78206 0.93588 0.0
O54 O 0.31321 0.82289 0.89378 0.0
O55 O 0.2838 0.80174 0.9307 0.0
C56 C 0.49449 0.95395 0.36639 0.0
O57 O 0.48155 0.96431 0.37864 0.0
Cd58 Cd 0.43446 0.98392 0.37691 0.0
O59 O 0.4836 0.95507 0.35214 0.0
Cd60 Cd 0.44068 0.97381 0.33877 0.0
C61 C 0.39988 0.92751 0.3598 0.0
O62 O 0.43307 0.01711 0.35476 0.0
O63 O 0.39854 0.00318 0.33948 0.0
O64 O 0.46761 0.9921 0.31542 0.0
C65 C 0.40861 0.02186 0.34896 0.0
O66 O 0.40223 0.94407 0.37204 0.0
C67 C 0.45362 0.97841 0.30475 0.0
O68 O 0.41339 0.93221 0.34659 0.0
O69 O 0.43426 0.96214 0.31001 0.0
C70 C 0.2847 0.24333 0.61849 0.0
O71 O 0.27497 0.23065 0.631 0.0
Cd72 Cd 0.25611 0.1831 0.62967 0.0
O73 O 0.28308 0.23203 0.60438 0.0
Cd74 Cd 0.26407 0.18891 0.59157 0.0
C75 C 0.31208 0.14909 0.6118 0.0
O76 O 0.22151 0.18077 0.60821 0.0
O77 O 0.2352 0.14649 0.59265 0.0
O78 O 0.24504 0.21593 0.5685 0.0
C79 C 0.21681 0.15628 0.60243 0.0
O80 O 0.29617 0.15126 0.62434 0.0
C81 C 0.25851 0.20204 0.55769 0.0
O82 O 0.30641 0.16241 0.59866 0.0
O83 O 0.27477 0.18253 0.56275 0.0
C84 C -0.00526 0.0343 0.87196 0.0
O85 O 0.0115 0.02887 0.8837 0.0
Cd86 Cd 0.05703 0.00623 0.88073 0.0
O87 O 0.00188 0.02945 0.85719 0.0
Cd88 Cd 0.04525 0.01336 0.84317 0.0
C89 C 0.08955 0.06055 0.86162 0.0
O90 O 0.05492 0.97093 0.85961 0.0
O91 O 0.08717 0.98373 0.84246 0.0
O92 O 0.01794 0.99393 0.82021 0.0
C93 C 0.07834 0.96558 0.85267 0.0
O94 O 0.09001 0.04395 0.87389 0.0
C95 C 0.03084 0.00824 0.80935 0.0
O96 O 0.07304 0.05591 0.84959 0.0
O97 O 0.04964 0.02537 0.81435 0.0
C98 C 0.20292 0.73718 0.11703 0.0
O99 O 0.21329 0.74959 0.12945 0.0
Cd100 Cd 0.2322 0.79712 0.12817 0.0
O101 O 0.20381 0.74882 0.10299 0.0
Cd102 Cd 0.22214 0.79232 0.09032 0.0
C103 C 0.17541 0.83179 0.11168 0.0
O104 O 0.26566 0.80028 0.10617 0.0
O105 O 0.25058 0.83491 0.0913 0.0
O106 O 0.24082 0.766 0.06694 0.0
C107 C 0.26976 0.82496 0.10049 0.0
O108 O 0.1921 0.82927 0.12385 0.0
C109 C 0.22713 0.78003 0.05629 0.0
O110 O 0.18012 0.81869 0.09834 0.0
O111 O 0.21066 0.79919 0.06158 0.0
C112 C 0.49253 0.95467 0.86554 0.0
O113 O 0.50539 0.96505 0.8778 0.0
Cd114 Cd 0.55274 0.98428 0.87572 0.0
O115 O 0.50348 0.95587 0.85132 0.0
Cd116 Cd 0.54617 0.97484 0.83805 0.0
C117 C 0.58679 0.92789 0.85844 0.0
O118 O 0.55477 0.01828 0.85389 0.0
O119 O 0.5888 0.00331 0.83853 0.0
O120 O 0.51902 0.99338 0.8149 0.0
C121 C 0.57919 0.02246 0.84787 0.0
O122 O 0.58488 0.94433 0.87076 0.0
C123 C 0.53266 0.97943 0.80419 0.0
O124 O 0.57302 0.93287 0.84537 0.0
O125 O 0.552 0.96306 0.80936 0.0
C126 C 0.78577 0.7425 0.61373 0.0
O127 O 0.77462 0.75459 0.62603 0.0
Cd128 Cd 0.75525 0.80186 0.62474 0.0
O129 O 0.78537 0.75427 0.59971 0.0
Cd130 Cd 0.76688 0.7975 0.58672 0.0
C131 C 0.81252 0.83707 0.60893 0.0
O132 O 0.72291 0.80445 0.60221 0.0
O133 O 0.73738 0.83949 0.58748 0.0
O134 O 0.7497 0.77026 0.5633 0.0
C135 C 0.71836 0.8291 0.59662 0.0
O136 O 0.79546 0.83409 0.6209 0.0
C137 C 0.76306 0.78465 0.55268 0.0
O138 O 0.80831 0.82432 0.59541 0.0
O139 O 0.77867 0.80452 0.55798 0.0
C140 C -0.00461 0.0394 0.36753 0.0
O141 O 0.98279 0.02881 0.37982 0.0
Cd142 Cd 0.93532 0.00988 0.37796 0.0
O143 O 0.98404 0.03867 0.35342 0.0
Cd144 Cd 0.94103 0.02023 0.3403 0.0
C145 C 0.90066 0.06657 0.36132 0.0
O146 O 0.93308 0.97645 0.35589 0.0
O147 O 0.89862 0.99147 0.34087 0.0
O148 O 0.96851 0.00185 0.31732 0.0
C149 C 0.90859 0.97219 0.34998 0.0
O150 O 0.90298 0.04982 0.37347 0.0
C151 C 0.95473 0.01529 0.30647 0.0
O152 O 0.91416 0.06205 0.34809 0.0
O153 O 0.93512 0.03151 0.31146 0.0
C154 C 0.70327 0.23944 0.11875 0.0
O155 O 0.7088 0.22301 0.13063 0.0
Cd156 Cd 0.73157 0.17749 0.12792 0.0
O157 O 0.70794 0.23191 0.10403 0.0
Cd158 Cd 0.72378 0.18847 0.09009 0.0
C159 C 0.67711 0.1444 0.10924 0.0
O160 O 0.76634 0.17971 0.10649 0.0
O161 O 0.75442 0.14718 0.08933 0.0
O162 O 0.74164 0.21618 0.06687 0.0
C163 C 0.77219 0.15632 0.09967 0.0
O164 O 0.6938 0.1443 0.12146 0.0
C165 C 0.72734 0.20281 0.0562 0.0
O166 O 0.68161 0.16059 0.09704 0.0
O167 O 0.7111 0.1834 0.06142 0.0
C168 C 0.49299 0.03812 0.6223 0.0
O169 O 0.50536 0.02739 0.60997 0.0
Cd170 Cd 0.55251 0.00753 0.61161 0.0
O171 O 0.5044 0.0372 0.6364 0.0
Cd172 Cd 0.54716 0.01837 0.64956 0.0
C173 C 0.58849 0.06352 0.62813 0.0
O174 O 0.55397 0.97453 0.63391 0.0
O175 O 0.58855 0.98804 0.6493 0.0
O176 O 0.51951 0.00167 0.67293 0.0
C177 C 0.57827 0.96942 0.63985 0.0
O178 O 0.58573 0.04683 0.61598 0.0
C179 C 0.53367 0.01544 0.68349 0.0
O180 O 0.57499 0.05928 0.64139 0.0
O181 O 0.55366 0.03085 0.67815 0.0
C182 C 0.69905 0.74466 0.3698 0.0
O183 O 0.70464 0.76115 0.35796 0.0
Cd184 Cd 0.72751 0.80664 0.36065 0.0
O185 O 0.70375 0.75212 0.38453 0.0
Cd186 Cd 0.71959 0.79595 0.39811 0.0
C187 C 0.6731 0.84006 0.379 0.0
O188 O 0.76253 0.80507 0.38195 0.0
O189 O 0.74935 0.83777 0.39871 0.0
O190 O 0.73856 0.76917 0.42136 0.0
C191 C 0.76777 0.82863 0.38876 0.0
O192 O 0.69003 0.84019 0.36688 0.0
C193 C 0.72406 0.78228 0.43205 0.0
O194 O 0.67727 0.8237 0.39116 0.0
O195 O 0.70703 0.80098 0.42682 0.0
C196 C -0.00307 0.94567 0.12548 0.0
O197 O 0.98441 0.95624 0.11316 0.0
Cd198 Cd 0.93727 0.97585 0.11476 0.0
O199 O 0.98566 0.94674 0.13963 0.0
Cd200 Cd 0.94282 0.96602 0.15266 0.0
C201 C 0.90182 0.91994 0.13189 0.0
O202 O 0.93553 0.00945 0.1367 0.0
O203 O 0.90073 -0.0047 0.15173 0.0
O204 O 0.97002 0.98464 0.17572 0.0
C205 C 0.911 0.01415 0.14243 0.0
O206 O 0.90452 0.93639 0.11962 0.0
C207 C 0.956 0.97136 0.18655 0.0
O208 O 0.91529 0.92451 0.14512 0.0
O209 O 0.93646 0.95511 0.1815 0.0
C210 C 0.79186 0.24681 0.87447 0.0
O211 O 0.78522 0.2325 0.86189 0.0
Cd212 Cd 0.76439 0.18619 0.86269 0.0
O213 O 0.78784 0.23699 0.88881 0.0
Cd214 Cd 0.76996 0.19259 0.90131 0.0
C215 C 0.8186 0.15163 0.88151 0.0
O216 O 0.72848 0.18492 0.88373 0.0
O217 O 0.73942 0.15147 0.90056 0.0
O218 O 0.75003 0.21841 0.92471 0.0
C219 C 0.72238 0.16106 0.88995 0.0
O220 O 0.80478 0.15574 0.86836 0.0
C221 C 0.76423 0.20493 0.93537 0.0
O222 O 0.81116 0.16319 0.89491 0.0
O223 O 0.78128 0.18629 0.93009 0.0
C224 C -0.00281 0.53891 0.62425 0.0
O225 O 0.98482 0.52791 0.61199 0.0
Cd226 Cd 0.93746 0.50871 0.61339 0.0
O227 O 0.98555 0.53869 0.63831 0.0
Cd228 Cd 0.94193 0.52077 0.65121 0.0
C229 C 0.90199 0.56586 0.62889 0.0
O230 O 0.93489 0.47647 0.63598 0.0
O231 O 0.89988 0.49133 0.65061 0.0
O232 O 0.96802 0.50376 0.67511 0.0
C233 C 0.91027 0.47205 0.64166 0.0
O234 O 0.90483 0.54866 0.61699 0.0
C235 C 0.95356 0.51781 0.68541 0.0
O236 O 0.91502 0.56193 0.64234 0.0
O237 O 0.93432 0.53375 0.67969 0.0
C238 C 0.69921 0.74841 0.87131 0.0
O239 O 0.71002 0.73542 0.85922 0.0
Cd240 Cd 0.72999 0.68846 0.86197 0.0
O241 O 0.70024 0.73781 0.88561 0.0
Cd242 Cd 0.71952 0.69597 0.89944 0.0
C243 C 0.67424 0.65322 0.87922 0.0
O244 O 0.76356 0.68809 0.88404 0.0
O245 O 0.74934 0.65438 0.89988 0.0
O246 O 0.7373 0.72481 0.92203 0.0
C247 C 0.76839 0.66416 0.89054 0.0
O248 O 0.69089 0.65535 0.86701 0.0
C249 C 0.72385 0.71136 0.93303 0.0
O250 O 0.67845 0.66754 0.89219 0.0
O251 O 0.70788 0.69138 0.92826 0.0
C252 C 0.49269 0.44511 0.11832 0.0
O253 O 0.50694 0.45038 0.1055 0.0
Cd254 Cd 0.55363 0.47041 0.10563 0.0
O255 O 0.50284 0.45006 0.13247 0.0
Cd256 Cd 0.54802 0.46774 0.14402 0.0
C257 C 0.58756 0.41689 0.12528 0.0
O258 O 0.5564 0.50812 0.1256 0.0
O259 O 0.59005 0.49664 0.1422 0.0
O260 O 0.52366 0.49012 0.1672 0.0
C261 C 0.58057 0.51371 0.13158 0.0
O262 O 0.58365 0.42996 0.11186 0.0
C263 C 0.53702 0.47619 0.17804 0.0
O264 O 0.57622 0.42542 0.13852 0.0
O265 O 0.55488 0.45817 0.17295 0.0
C266 C 0.78571 0.24463 0.37378 0.0
O267 O 0.77567 0.25705 0.36127 0.0
Cd268 Cd 0.75645 0.30445 0.36236 0.0
O269 O 0.78438 0.2562 0.38783 0.0
Cd270 Cd 0.7656 0.29963 0.40042 0.0
C271 C 0.81261 0.3394 0.37935 0.0
O272 O 0.72249 0.30685 0.38416 0.0
O273 O 0.7362 0.34169 0.39928 0.0
O274 O 0.74757 0.27321 0.42398 0.0
C275 C 0.71765 0.33142 0.38977 0.0
O276 O 0.79632 0.33687 0.367 0.0
C277 C 0.76122 0.28757 0.4345 0.0
O278 O 0.80749 0.32628 0.39263 0.0
O279 O 0.77717 0.30706 0.42905 0.0
C280 C -0.00054 0.45459 0.86522 0.0
O281 O 0.98927 0.46618 0.87794 0.0
Cd282 Cd 0.94124 0.48288 0.87847 0.0
O283 O 0.98555 0.45447 0.85187 0.0
Cd284 Cd 0.94097 0.47382 0.84056 0.0
C285 C 0.9049 0.4259 0.86294 0.0
O286 O 0.9343 0.51707 0.85692 0.0
O287 O 0.89871 0.50206 0.84275 0.0
O288 O 0.96575 0.49372 0.81697 0.0
C289 C 0.9092 0.52109 0.85184 0.0
O290 O 0.91178 0.44038 0.87548 0.0
C291 C 0.95162 0.48003 0.80638 0.0
O292 O 0.91311 0.43292 0.84868 0.0
O293 O 0.93295 0.46307 0.81176 0.0
C294 C 0.78744 0.74273 0.11514 0.0
O295 O 0.77551 0.72953 0.12679 0.0
Cd296 Cd 0.75614 0.68252 0.12304 0.0
O297 O 0.78763 0.73245 0.10074 0.0
Cd298 Cd 0.76944 0.69123 0.08581 0.0
C299 C 0.81379 0.64869 0.10678 0.0
O300 O 0.72452 0.68224 0.10004 0.0
O301 O 0.74036 0.64916 0.08427 0.0
O302 O 0.75292 0.72128 0.06348 0.0
C303 C 0.72056 0.65836 0.09328 0.0
O304 O 0.79624 0.65039 0.11859 0.0
C305 C 0.76691 0.70845 0.05247 0.0
O306 O 0.81032 0.66313 0.09377 0.0
O307 O 0.78261 0.68817 0.05711 0.0
C308 C 0.4911 0.53805 0.35907 0.0
O309 O 0.50219 0.52647 0.37154 0.0
Cd310 Cd 0.54994 0.5092 0.37154 0.0
O311 O 0.50411 0.53837 0.34539 0.0
Cd312 Cd 0.54832 0.51952 0.33308 0.0
C313 C 0.58583 0.56635 0.35567 0.0
O314 O 0.5546 0.47624 0.34929 0.0
O315 O 0.58986 0.48953 0.33436 0.0
O316 O 0.52269 0.50173 0.30918 0.0
C317 C 0.57934 0.47127 0.34395 0.0
O318 O 0.57952 0.55155 0.36818 0.0
C319 C 0.5371 0.51571 0.29883 0.0
O320 O 0.57682 0.55979 0.34149 0.0
O321 O 0.55629 0.53177 0.3045 0.0
C322 C 0.70478 0.24066 0.61605 0.0
O323 O 0.715 0.25281 0.6286 0.0
Cd324 Cd 0.73323 0.30066 0.62773 0.0
O325 O 0.70548 0.25276 0.60214 0.0
Cd326 Cd 0.72305 0.29685 0.58985 0.0
C327 C 0.67585 0.33495 0.61175 0.0
O328 O 0.76659 0.30476 0.60568 0.0
O329 O 0.75127 0.3396 0.59107 0.0
O330 O 0.74125 0.27137 0.56601 0.0
C331 C 0.77051 0.32959 0.60019 0.0
O332 O 0.6926 0.33239 0.62389 0.0
C333 C 0.72703 0.28556 0.55567 0.0
O334 O 0.6808 0.32234 0.59828 0.0
O335 O 0.71068 0.3045 0.56134 0.0
C336 C 0.992 0.4526 0.36768 0.0
O337 O 0.00436 0.46316 0.38006 0.0
Cd338 Cd 0.05177 0.48242 0.37848 0.0
O339 O 0.0035 0.45359 0.3536 0.0
Cd340 Cd 0.0464 0.47247 0.3406 0.0
C341 C 0.08684 0.42612 0.36163 0.0
O342 O 0.0541 0.51597 0.35649 0.0
O343 O 0.08849 0.50166 0.34117 0.0
O344 O 0.01883 0.4907 0.3176 0.0
C345 C 0.07854 0.52052 0.35058 0.0
O346 O 0.08424 0.44265 0.37386 0.0
C347 C 0.03267 0.47725 0.30677 0.0
O348 O 0.07353 0.43079 0.34835 0.0
O349 O 0.05241 0.46121 0.31179 0.0
C350 C 0.28436 0.23798 0.11448 0.0
O351 O 0.2736 0.24868 0.12731 0.0
Cd352 Cd 0.25649 0.29652 0.12795 0.0
O353 O 0.28374 0.25139 0.10096 0.0
Cd354 Cd 0.264 0.29587 0.0896 0.0
C355 C 0.31245 0.3329 0.11126 0.0
O356 O 0.22164 0.30233 0.1067 0.0
O357 O 0.23507 0.33779 0.09193 0.0
O358 O 0.24372 0.27129 0.06598 0.0
C359 C 0.21691 0.32727 0.10158 0.0
O360 O 0.29856 0.3263 0.12407 0.0
C361 C 0.25738 0.28549 0.05539 0.0
O362 O 0.3049 0.32416 0.09719 0.0
O363 O 0.27442 0.30406 0.0608 0.0
C364 C 0.49822 0.53505 0.86726 0.0
O365 O 0.4858 0.5246 0.87965 0.0
Cd366 Cd 0.43845 0.5052 0.8781 0.0
O367 O 0.48677 0.53391 0.85317 0.0
Cd368 Cd 0.44374 0.51506 0.84028 0.0
C369 C 0.40354 0.56158 0.86136 0.0
O370 O 0.43598 0.47151 0.85614 0.0
O371 O 0.40149 0.48611 0.84101 0.0
O372 O 0.47055 0.49681 0.81695 0.0
C373 C 0.41147 0.46709 0.85029 0.0
O374 O 0.40599 0.54503 0.8736 0.0
C375 C 0.45657 0.51057 0.80631 0.0
O376 O 0.41686 0.5568 0.8481 0.0
O377 O 0.43718 0.52679 0.81158 0.0
C378 C 0.20399 0.74513 0.61616 0.0
O379 O 0.21451 0.73246 0.62845 0.0
Cd380 Cd 0.23368 0.68514 0.62695 0.0
O381 O 0.20492 0.7339 0.602 0.0
Cd382 Cd 0.22379 0.69069 0.58901 0.0
C383 C 0.17703 0.65063 0.61009 0.0
O384 O 0.26716 0.68267 0.60497 0.0
O385 O 0.25234 0.6481 0.58999 0.0
O386 O 0.24286 0.71717 0.56574 0.0
C387 C 0.2714 0.65804 0.59926 0.0
O388 O 0.19363 0.65306 0.62231 0.0
C389 C 0.2293 0.70322 0.555 0.0
O390 O 0.18181 0.66391 0.59681 0.0
O391 O 0.21266 0.6841 0.56018 0.0
C392 C 0.99116 0.53462 0.12392 0.0
O393 O 0.00433 0.52342 0.11201 0.0
Cd394 Cd 0.05126 0.50355 0.11472 0.0
O395 O 0.00172 0.53435 0.13826 0.0
Cd396 Cd 0.04406 0.51633 0.15235 0.0
C397 C 0.08625 0.56052 0.13077 0.0
O398 O 0.05155 0.47173 0.13759 0.0
O399 O 0.08563 0.48624 0.15304 0.0
O400 O 0.01609 0.5002 0.17574 0.0
C401 C 0.07563 0.467 0.14391 0.0
O402 O 0.08414 0.54315 0.11889 0.0
C403 C 0.02989 0.5145 0.18622 0.0
O404 O 0.07214 0.55694 0.14388 0.0
O405 O 0.04964 0.53014 0.1808 0.0
C406 C 0.20137 0.24081 0.87266 0.0
O407 O 0.21256 0.25323 0.86048 0.0
Cd408 Cd 0.2324 0.3003 0.86211 0.0
O409 O 0.20162 0.25229 0.88676 0.0
Cd410 Cd 0.21956 0.29567 0.89992 0.0
C411 C 0.17524 0.33609 0.87726 0.0
O412 O 0.26419 0.30248 0.88498 0.0
O413 O 0.24929 0.33747 0.8996 0.0
O414 O 0.23581 0.26946 0.92398 0.0
C415 C 0.26866 0.32703 0.89074 0.0
O416 O 0.19264 0.33319 0.86546 0.0
C417 C 0.22157 0.28397 0.93417 0.0
O418 O 0.17887 0.32299 0.89072 0.0
O419 O 0.20588 0.30329 0.92831 0.0
C420 C 0.49583 0.44671 0.62489 0.0
O421 O 0.48338 0.45718 0.61251 0.0
Cd422 Cd 0.43615 0.47674 0.61401 0.0
O423 O 0.48442 0.44781 0.63899 0.0
Cd424 Cd 0.44142 0.46686 0.65189 0.0
C425 C 0.40061 0.42078 0.63087 0.0
O426 O 0.43438 0.51041 0.63596 0.0
O427 O 0.39963 0.49665 0.65115 0.0
O428 O 0.46881 0.48473 0.67508 0.0
C429 C 0.40996 0.51535 0.64178 0.0
O430 O 0.40324 0.43728 0.61863 0.0
C431 C 0.45466 0.47136 0.68582 0.0
O432 O 0.41404 0.42537 0.64411 0.0
O433 O 0.43485 0.45553 0.68066 0.0
C434 C 0.28715 0.74818 0.37318 0.0
O435 O 0.27525 0.73642 0.36101 0.0
Cd436 Cd 0.25619 0.68901 0.36226 0.0
O437 O 0.28773 0.73595 0.38706 0.0
Cd438 Cd 0.27032 0.69223 0.4 0.0
C439 C 0.31445 0.65338 0.37637 0.0
O440 O 0.22534 0.68541 0.38546 0.0
O441 O 0.24109 0.65011 0.39954 0.0
O442 O 0.25405 0.71868 0.42388 0.0
C443 C 0.22135 0.66062 0.39098 0.0
O444 O 0.29663 0.65676 0.36482 0.0
C445 C 0.26807 0.70426 0.43419 0.0
O446 O 0.31114 0.66567 0.39012 0.0
O447 O 0.28375 0.68476 0.4285 0.0
C448 C 0.47782 0.00266 0.28133 0.0
C449 C 0.45838 0.98245 0.28699 0.0
C450 C 0.4805 0.00847 0.26453 0.0
C451 C 0.46334 0.99371 0.25318 0.0
C452 C 0.44446 0.97257 0.25879 0.0
C453 C 0.44221 0.9672 0.27562 0.0
C454 C 0.50096 0.03106 0.25899 0.0
C455 C 0.42586 0.95628 0.24705 0.0
C456 C 0.44253 0.02683 0.21267 0.0
C457 C 0.45933 0.01164 0.20158 0.0
C458 C 0.44446 0.02196 0.22957 0.0
C459 C 0.46368 0.00142 0.23553 0.0
C460 C 0.48159 0.98691 0.22447 0.0
C461 C 0.47919 0.99218 0.2076 0.0
C462 C 0.42507 0.03797 0.24099 0.0
C463 C 0.50243 0.96497 0.23038 0.0
H464 H 0.49043 0.01449 0.29005 0.0
H465 H 0.42723 0.95148 0.27989 0.0
H466 H 0.51485 0.02281 0.24913 0.0
H467 H 0.48903 0.0492 0.25382 0.0
H468 H 0.51442 0.03891 0.26917 0.0
H469 H 0.41348 0.93945 0.25329 0.0
H470 H 0.41087 0.97098 0.24097 0.0
H471 H 0.43892 0.94639 0.23732 0.0
H472 H 0.42722 0.04199 0.20812 0.0
H473 H 0.49232 0.98043 0.1991 0.0
H474 H 0.43746 0.04803 0.25095 0.0
H475 H 0.40997 0.02305 0.24681 0.0
H476 H 0.41278 0.05463 0.23454 0.0
H477 H 0.51555 0.97363 0.24047 0.0
H478 H 0.51666 0.95755 0.22043 0.0
H479 H 0.49079 0.94646 0.23533 0.0
C480 C 0.26946 0.19113 0.52849 0.0
C481 C 0.25446 0.20726 0.53999 0.0
C482 C 0.26423 0.19398 0.51168 0.0
C483 C 0.2435 0.21344 0.50624 0.0
C484 C 0.22903 0.23056 0.51773 0.0
C485 C 0.23468 0.22725 0.5345 0.0
C486 C 0.28018 0.17538 0.49979 0.0
C487 C 0.2069 0.25163 0.51235 0.0
C488 C 0.24552 0.22979 0.46076 0.0
C489 C 0.22577 0.21029 0.45466 0.0
C490 C 0.2507 0.23199 0.47764 0.0
C491 C 0.23577 0.21426 0.48862 0.0
C492 C 0.21489 0.19549 0.48258 0.0
C493 C 0.21014 0.19374 0.46567 0.0
C494 C 0.27299 0.25238 0.48366 0.0
C495 C 0.19844 0.1763 0.49391 0.0
H496 H 0.28488 0.17574 0.53263 0.0
H497 H 0.22308 0.23985 0.54334 0.0
H498 H 0.2652 0.16082 0.49358 0.0
H499 H 0.29033 0.18848 0.49017 0.0
H500 H 0.29677 0.16254 0.50593 0.0
H501 H 0.19942 0.26508 0.52263 0.0
H502 H 0.21543 0.26551 0.50257 0.0
H503 H 0.18846 0.24022 0.50714 0.0
H504 H 0.25759 0.24274 0.45231 0.0
H505 H 0.19472 0.17875 0.46106 0.0
H506 H 0.29136 0.24035 0.48846 0.0
H507 H 0.26461 0.26538 0.49387 0.0
H508 H 0.28055 0.26671 0.4738 0.0
H509 H 0.21303 0.1608 0.49965 0.0
H510 H 0.18152 0.16447 0.48741 0.0
H511 H 0.18866 0.18877 0.50393 0.0
C512 C 0.04126 0.01942 0.7801 0.0
C513 C 0.0258 0.00381 0.79165 0.0
C514 C 0.03919 0.0135 0.76333 0.0
C515 C 0.02117 0.99145 0.75795 0.0
C516 C 0.00456 0.97641 0.76946 0.0
C517 C 0.0071 0.98276 0.7862 0.0
C518 C 0.05719 0.03011 0.75143 0.0
C519 C 0.98498 0.9529 0.76415 0.0
C520 C 0.00627 0.9907 0.71226 0.0
C521 C 0.02701 0.97183 0.70663 0.0
C522 C 0.00322 -0.00358 0.72905 0.0
C523 C 0.02141 0.983 0.74041 0.0
C524 C 0.04154 0.963 0.73484 0.0
C525 C 0.04407 0.95764 0.71802 0.0
C526 C 0.98139 0.01772 0.73454 0.0
C527 C 0.06129 0.94819 0.74659 0.0
H528 H 0.05566 0.03581 0.7842 0.0
H529 H -0.00497 0.97065 0.79506 0.0
H530 H 0.07287 0.01583 0.7456 0.0
H531 H 0.04384 0.03903 0.74153 0.0
H532 H 0.06876 0.0477 0.75748 0.0
H533 H 0.97154 0.94515 0.77437 0.0
H534 H 0.97107 0.96018 0.75405 0.0
H535 H -0.00238 0.9349 0.7594 0.0
H536 H 0.99292 0.00166 0.70353 0.0
H537 H 0.06006 0.94293 0.71377 0.0
H538 H 0.99217 0.03694 0.73923 0.0
H539 H 0.96854 0.00898 0.74473 0.0
H540 H 0.96699 0.02405 0.72444 0.0
H541 H 0.07568 0.9639 0.7523 0.0
H542 H 0.07434 0.93178 0.74043 0.0
H543 H 0.04908 0.93803 0.75659 0.0
C544 C 0.244 0.75704 0.95911 0.0
C545 C 0.26381 0.777 0.9536 0.0
C546 C 0.23793 0.75416 0.97585 0.0
C547 C 0.25201 0.77169 0.9873 0.0
C548 C 0.27287 0.79103 0.98186 0.0
C549 C 0.27851 0.79345 0.96507 0.0
C550 C 0.21566 0.73321 0.98122 0.0
C551 C 0.28842 0.81001 0.99372 0.0
C552 C 0.21654 0.79206 0.02718 0.0
C553 C 0.23146 0.77558 0.03855 0.0
C554 C 0.22235 0.79021 0.01039 0.0
C555 C 0.24361 0.77142 0.00483 0.0
C556 C 0.25796 0.75389 0.01615 0.0
C557 C 0.25172 0.75618 0.03291 0.0
C558 C 0.2065 0.80918 -0.00133 0.0
C559 C 0.28065 0.73351 0.01065 0.0
H560 H 0.23262 0.74419 0.9503 0.0
H561 H 0.29394 0.80882 0.96091 0.0
H562 H 0.22385 0.71972 0.99127 0.0
H563 H 0.197 0.74476 0.98605 0.0
H564 H 0.20859 0.71937 0.97101 0.0
H565 H 0.30532 0.82253 0.98764 0.0
H566 H 0.27327 0.82487 -0.00047 0.0
H567 H 0.29811 0.79725 0.00365 0.0
H568 H 0.20077 0.80699 0.03144 0.0
H569 H 0.26328 0.74332 0.04163 0.0
H570 H 0.19701 0.79647 0.98865 0.0
H571 H 0.22141 0.82441 0.99296 0.0
H572 H 0.18941 0.82131 0.00483 0.0
H573 H 0.27271 0.72004 0.00051 0.0
H574 H 0.28801 0.71962 0.02076 0.0
H575 H 0.29906 0.74552 0.00588 0.0
C576 C 0.50838 0.00369 0.78084 0.0
C577 C 0.5276 0.98328 0.78647 0.0
C578 C 0.50562 0.00942 0.76404 0.0
C579 C 0.52252 0.99436 0.75269 0.0
C580 C 0.54105 0.97291 0.75827 0.0
C581 C 0.54335 0.96763 0.77509 0.0
C582 C 0.48552 0.03232 0.75851 0.0
C583 C 0.55935 0.95631 0.74652 0.0
C584 C 0.50787 0.99335 0.70702 0.0
C585 C 0.52836 0.01238 0.70124 0.0
C586 C 0.50477 0.98816 0.72385 0.0
C587 C 0.52262 0.00231 0.7351 0.0
C588 C 0.54242 0.0225 0.72937 0.0
C589 C 0.54504 0.0273 0.71251 0.0
C590 C 0.48329 0.96664 0.72953 0.0
C591 C 0.56177 0.03811 0.74101 0.0
H592 H 0.49606 0.0158 0.78958 0.0
H593 H 0.55812 0.9517 0.77935 0.0
H594 H 0.49777 0.0505 0.75363 0.0
H595 H 0.47184 0.02448 0.74845 0.0
H596 H 0.47186 0.04001 0.76864 0.0
H597 H 0.57127 0.93913 0.75274 0.0
H598 H 0.54616 0.94683 0.73672 0.0
H599 H 0.57475 0.97072 0.74054 0.0
H600 H 0.49481 0.98185 0.69837 0.0
H601 H 0.56079 0.04217 0.70814 0.0
H602 H 0.47029 0.9754 0.73964 0.0
H603 H 0.4944 0.94773 0.73437 0.0
H604 H 0.46901 0.95981 0.71947 0.0
H605 H 0.54929 0.04828 0.75089 0.0
H606 H 0.57449 0.05462 0.73471 0.0
H607 H 0.57648 0.0229 0.74689 0.0
C608 C 0.71221 0.79302 0.46116 0.0
C609 C 0.72818 0.77755 0.44979 0.0
C610 C 0.71783 0.79122 0.47798 0.0
C611 C 0.73995 0.7735 0.48358 0.0
C612 C 0.75536 0.75689 0.47224 0.0
C613 C 0.74929 0.75912 0.45545 0.0
C614 C 0.70084 0.8092 0.4897 0.0
C615 C 0.77898 0.73763 0.47778 0.0
C616 C 0.77328 0.79694 0.52353 0.0
C617 C 0.75931 0.77967 0.53492 0.0
C618 C 0.76791 0.7944 0.50672 0.0
C619 C 0.74812 0.77406 0.50115 0.0
C620 C 0.73481 0.75577 0.51251 0.0
C621 C 0.74055 0.75882 0.52929 0.0
C622 C 0.78259 0.81425 0.49497 0.0
C623 C 0.71372 0.73374 0.507 0.0
H624 H 0.69577 0.80721 0.45689 0.0
H625 H 0.76167 0.74704 0.44673 0.0
H626 H 0.69193 0.79592 0.49964 0.0
H627 H 0.71484 0.82516 0.4955 0.0
H628 H 0.68319 0.82045 0.4835 0.0
H629 H 0.7871 0.72418 0.46766 0.0
H630 H 0.79674 0.75053 0.4826 0.0
H631 H 0.77165 0.72374 0.48787 0.0
H632 H 0.78789 0.81302 0.52779 0.0
H633 H 0.72975 0.74533 0.53802 0.0
H634 H 0.76674 0.82832 0.48911 0.0
H635 H 0.79309 0.80209 0.48506 0.0
H636 H 0.7987 0.82764 0.50115 0.0
H637 H 0.69457 0.74433 0.5021 0.0
H638 H 0.70723 0.7195 0.51715 0.0
H639 H 0.72275 0.72074 0.49697 0.0
C640 C 0.97987 0.99083 0.28351 0.0
C641 C 0.95993 0.01083 0.2888 0.0
C642 C 0.9828 0.98428 0.26683 0.0
C643 C 0.96534 -0.00194 0.25523 0.0
C644 C 0.94607 0.01915 0.26044 0.0
C645 C 0.94361 0.02528 0.27717 0.0
C646 C 0.00369 0.9618 0.2617 0.0
C647 C 0.92717 0.0344 0.24841 0.0
C648 C 0.98046 -0.00371 0.20959 0.0
C649 C 0.96084 0.97602 0.20423 0.0
C650 C 0.983 0.00297 0.22628 0.0
C651 C 0.9655 0.98905 0.23781 0.0
C652 C 0.94655 0.96772 0.23253 0.0
C653 C 0.94446 0.96146 0.2158 0.0
C654 C 0.00356 0.02572 0.23148 0.0
C655 C 0.92762 0.95231 0.24447 0.0
H656 H 0.99264 0.97965 0.29244 0.0
H657 H 0.92826 0.04087 0.28116 0.0
H658 H 0.99209 0.94297 0.25715 0.0
H659 H 0.01712 0.96958 0.2515 0.0
H660 H 0.0176 0.95513 0.27196 0.0
H661 H 0.91475 0.05157 0.25431 0.0
H662 H 0.93997 0.04368 0.23837 0.0
H663 H 0.9122 0.01914 0.24279 0.0
H664 H 0.99325 0.00756 0.20071 0.0
H665 H 0.92936 0.94567 0.21175 0.0
H666 H 0.01694 0.01811 0.24173 0.0
H667 H 0.99167 0.04441 0.23598 0.0
H668 H 0.01752 0.03255 0.22127 0.0
H669 H 0.94037 0.94314 0.25457 0.0
H670 H 0.91541 0.93504 0.23853 0.0
H671 H 0.91246 0.96744 0.25004 0.0
C672 C 0.73991 0.22884 0.95888 0.0
C673 C 0.76011 0.20948 0.95314 0.0
C674 C 0.73419 0.2314 0.9757 0.0
C675 C 0.74897 0.21411 0.98698 0.0
C676 C 0.77011 0.19532 0.98129 0.0
C677 C 0.77545 0.19326 0.96445 0.0
C678 C 0.71165 0.25181 0.98134 0.0
C679 C 0.78637 0.17653 0.99293 0.0
C680 C 0.75022 0.22825 0.03275 0.0
C681 C 0.73067 0.2082 0.03845 0.0
C682 C 0.75555 0.23137 0.01592 0.0
C683 C 0.74105 0.21393 0.0046 0.0
C684 C 0.72043 0.19453 0.01025 0.0
C685 C 0.71547 0.19193 0.0271 0.0
C686 C 0.77752 0.25245 0.01033 0.0
C687 C 0.70449 0.17558 -0.00145 0.0
H688 H 0.72805 0.24153 0.95021 0.0
H689 H 0.79118 0.17835 0.96012 0.0
H690 H 0.69334 0.23984 0.98628 0.0
H691 H 0.71983 0.26534 0.99138 0.0
H692 H 0.70405 0.26563 0.97125 0.0
H693 H 0.80326 0.16432 0.98664 0.0
H694 H 0.79617 0.18939 0.00277 0.0
H695 H 0.77165 0.16138 -0.00113 0.0
H696 H 0.76196 0.24099 0.04146 0.0
H697 H 0.70022 0.17649 0.0314 0.0
H698 H 0.76899 0.26579 0.0003 0.0
H699 H 0.79616 0.24101 0.00539 0.0
H700 H 0.78471 0.26642 0.02045 0.0
H701 H 0.69449 0.18834 0.98873 0.0
H702 H 0.68778 0.16305 0.00481 0.0
H703 H 0.71945 0.1607 0.99259 0.0
C704 C 0.97706 0.49464 0.70937 0.0
C705 C 0.95759 0.51439 0.70326 0.0
C706 C 0.97897 0.48916 0.72624 0.0
C707 C 0.96096 0.5038 0.73719 0.0
C708 C 0.94208 0.52457 0.73115 0.0
C709 C 0.94063 0.52961 0.71425 0.0
C710 C -0.00055 0.46697 0.73225 0.0
C711 C 0.92262 0.54072 0.74247 0.0
C712 C 0.93926 0.46963 0.77727 0.0
C713 C 0.95574 0.48459 0.78862 0.0
C714 C 0.94137 0.47517 0.76044 0.0
C715 C 0.9604 0.49618 0.75484 0.0
C716 C 0.97771 0.51078 0.76618 0.0
C717 C 0.97517 0.5048 0.78296 0.0
C718 C 0.92259 0.4591 0.74871 0.0
C719 C -0.0017 0.53326 0.76064 0.0
H720 H 0.9903 0.48284 0.70095 0.0
H721 H 0.92562 0.54499 0.70963 0.0
H722 H 0.01266 0.47556 0.74232 0.0
H723 H 0.98751 0.4487 0.73728 0.0
H724 H 0.01359 0.45921 0.72236 0.0
H725 H 0.91052 0.55743 0.73595 0.0
H726 H 0.90737 0.5259 0.74823 0.0
H727 H 0.93495 0.55073 0.75247 0.0
H728 H 0.92427 0.45392 0.78154 0.0
H729 H 0.98801 0.51641 0.79167 0.0
H730 H 0.93557 0.44897 0.73902 0.0
H731 H 0.90786 0.47397 0.74256 0.0
H732 H 0.90994 0.44248 0.75495 0.0
H733 H 0.01238 0.52478 0.75094 0.0
H734 H 0.01158 0.54128 0.77086 0.0
H735 H 0.98652 0.55131 0.75527 0.0
C736 C 0.74364 0.73567 0.0299 0.0
C737 C 0.76332 0.7152 0.03492 0.0
C738 C 0.73734 0.73952 0.01325 0.0
C739 C 0.75099 0.72243 0.00143 0.0
C740 C 0.77203 0.70289 0.00637 0.0
C741 C 0.77796 0.69953 0.02306 0.0
C742 C 0.715 0.76077 0.00842 0.0
C743 C 0.78719 0.68438 0.9941 0.0
C744 C 0.71366 0.70113 0.96237 0.0
C745 C 0.72822 0.71712 0.95063 0.0
C746 C 0.72003 0.70367 0.97906 0.0
C747 C 0.74145 0.7227 0.98411 0.0
C748 C 0.75517 0.74002 0.97242 0.0
C749 C 0.7484 0.737 0.95577 0.0
C750 C 0.70479 0.68492 0.99118 0.0
C751 C 0.77793 0.76073 0.97739 0.0
H752 H 0.73237 0.74798 0.03901 0.0
H753 H 0.79334 0.68383 0.02684 0.0
H754 H 0.72243 0.7739 -0.00199 0.0
H755 H 0.6957 0.74944 0.00431 0.0
H756 H 0.70917 0.77493 0.01874 0.0
H757 H 0.8046 0.67202 -0.00023 0.0
H758 H 0.77192 0.66937 0.98852 0.0
H759 H 0.7961 0.69743 0.98405 0.0
H760 H 0.6979 0.68587 0.9585 0.0
H761 H 0.75964 0.74953 0.94675 0.0
H762 H 0.69594 0.69779 0.00132 0.0
H763 H 0.71999 0.66971 -0.00335 0.0
H764 H 0.68731 0.67277 0.98542 0.0
H765 H 0.77079 0.77372 0.98792 0.0
H766 H 0.78397 0.77505 0.96719 0.0
H767 H 0.79703 0.74896 0.98137 0.0
C768 C 0.5503 0.52686 0.26993 0.0
C769 C 0.53289 0.51228 0.28098 0.0
C770 C 0.54844 0.52191 0.25303 0.0
C771 C 0.52866 0.50193 0.24705 0.0
C772 C 0.5102 0.48802 0.25808 0.0
C773 C 0.51257 0.49333 0.27494 0.0
C774 C 0.56847 0.53721 0.24165 0.0
C775 C 0.48873 0.4667 0.25213 0.0
C776 C 0.51457 0.5027 0.20123 0.0
C777 C 0.53307 0.48151 0.19574 0.0
C778 C 0.51228 0.50914 0.21797 0.0
C779 C 0.52893 0.49405 0.22943 0.0
C780 C 0.54704 0.47213 0.22399 0.0
C781 C 0.54886 0.46612 0.20722 0.0
C782 C 0.49266 0.53257 0.22335 0.0
C783 C 0.56512 0.45553 0.23584 0.0
H784 H 0.56597 0.54162 0.2745 0.0
H785 H 0.49895 0.48208 0.28341 0.0
H786 H 0.58315 0.52177 0.23593 0.0
H787 H 0.55652 0.54757 0.23161 0.0
H788 H 0.5812 0.55352 0.2481 0.0
H789 H 0.47426 0.45968 0.26206 0.0
H790 H 0.47591 0.47578 0.24204 0.0
H791 H 0.49982 0.44787 0.24717 0.0
H792 H 0.50226 0.51465 0.19242 0.0
H793 H 0.56314 0.44965 0.20309 0.0
H794 H 0.50518 0.5502 0.22864 0.0
H795 H 0.47821 0.52486 0.23309 0.0
H796 H 0.47977 0.54096 0.21306 0.0
H797 H 0.58037 0.46992 0.24196 0.0
H798 H 0.57718 0.43836 0.2297 0.0
H799 H 0.55171 0.44601 0.24554 0.0
C800 C 0.71464 0.29778 0.52683 0.0
C801 C 0.73043 0.28138 0.53784 0.0
C802 C 0.71935 0.29602 0.50992 0.0
C803 C 0.74036 0.27741 0.50387 0.0
C804 C 0.75562 0.25999 0.51486 0.0
C805 C 0.75047 0.26219 0.53174 0.0
C806 C 0.70256 0.31488 0.49858 0.0
C807 C 0.77811 0.23983 0.50883 0.0
C808 C 0.73824 0.26295 0.45816 0.0
C809 C 0.75769 0.28294 0.45228 0.0
C810 C 0.73303 0.26016 0.47501 0.0
C811 C 0.74762 0.27782 0.48618 0.0
C812 C 0.76801 0.2973 0.48035 0.0
C813 C 0.7728 0.29962 0.46347 0.0
C814 C 0.71124 0.23906 0.48082 0.0
C815 C 0.78406 0.31645 0.49189 0.0
H816 H 0.69902 0.31255 0.53145 0.0
H817 H 0.76269 0.24939 0.54019 0.0
H818 H 0.71695 0.33027 0.49258 0.0
H819 H 0.69256 0.30212 0.48876 0.0
H820 H 0.68577 0.32682 0.50513 0.0
H821 H 0.7863 0.22602 0.51877 0.0
H822 H 0.7696 0.22629 0.49889 0.0
H823 H 0.79606 0.25202 0.50364 0.0
H824 H 0.72655 0.24992 0.44958 0.0
H825 H 0.78796 0.31502 0.45902 0.0
H826 H 0.6929 0.25046 0.48616 0.0
H827 H 0.72021 0.22548 0.4906 0.0
H828 H 0.70349 0.22532 0.47073 0.0
H829 H 0.7691 0.33107 0.49806 0.0
H830 H 0.80037 0.32924 0.48548 0.0
H831 H 0.79457 0.30377 0.50157 0.0
C832 C 0.00705 0.50098 0.28372 0.0
C833 C 0.02725 0.48131 0.2891 0.0
C834 C 0.0037 0.5069 0.26698 0.0
C835 C 0.021 0.49283 0.25542 0.0
C836 C 0.04062 0.47215 0.26074 0.0
C837 C 0.0435 0.46664 0.27751 0.0
C838 C 0.98245 0.52895 0.26173 0.0
C839 C 0.0594 0.45661 0.24876 0.0
C840 C 0.00522 0.4916 0.20988 0.0
C841 C 0.02475 0.51151 0.20399 0.0
C842 C 0.00275 0.48616 0.22672 0.0
C843 C 0.02025 0.50099 0.23787 0.0
C844 C 0.03894 0.52212 0.23204 0.0
C845 C 0.04096 0.52713 0.21517 0.0
C846 C 0.98244 0.46362 0.23251 0.0
C847 C 0.05785 0.5385 0.24356 0.0
H848 H 0.99435 0.51233 0.29261 0.0
H849 H 0.05905 0.45131 0.28157 0.0
H850 H 0.99374 0.54769 0.25679 0.0
H851 H 0.96881 0.5206 0.25179 0.0
H852 H 0.96877 0.53595 0.27203 0.0
H853 H 0.0723 0.43996 0.25479 0.0
H854 H 0.04642 0.44662 0.23903 0.0
H855 H 0.07391 0.47183 0.24271 0.0
H856 H 0.99253 0.47953 0.2013 0.0
H857 H 0.05596 0.54268 0.21072 0.0
H858 H 0.9694 0.47162 0.24281 0.0
H859 H -0.00546 0.44514 0.2371 0.0
H860 H 0.96813 0.45634 0.22257 0.0
H861 H 0.0452 0.54789 0.25363 0.0
H862 H 0.06953 0.55572 0.23723 0.0
H863 H 0.07348 0.52395 0.24921 0.0
C864 C 0.23245 0.26234 0.03187 0.0
C865 C 0.25281 0.28154 0.03761 0.0
C866 C 0.22663 0.25989 0.01507 0.0
C867 C 0.24154 0.27706 0.00378 0.0
C868 C 0.26265 0.2959 0.00948 0.0
C869 C 0.26803 0.29791 0.02632 0.0
C870 C 0.20403 0.23952 0.00943 0.0
C871 C 0.27906 0.31451 -0.00219 0.0
C872 C 0.24394 0.26027 0.95833 0.0
C873 C 0.22451 0.27992 0.95205 0.0
C874 C 0.24898 0.25833 0.97524 0.0
C875 C 0.23425 0.27648 0.98608 0.0
C876 C 0.21379 0.29553 0.97986 0.0
C877 C 0.20917 0.29702 0.96292 0.0
C878 C 0.27086 0.23767 0.98144 0.0
C879 C 0.19757 0.31516 0.99104 0.0
H880 H 0.22064 0.24958 0.04054 0.0
H881 H 0.28385 0.31272 0.03065 0.0
H882 H 0.18622 0.25146 0.00389 0.0
H883 H 0.21256 0.22527 -0.00017 0.0
H884 H 0.19564 0.22642 0.01963 0.0
H885 H 0.29563 0.3271 0.00414 0.0
H886 H 0.2893 0.30143 0.98822 0.0
H887 H 0.26439 0.3293 0.99154 0.0
H888 H 0.25582 0.24693 0.95001 0.0
H889 H 0.19404 0.31217 0.95817 0.0
H890 H 0.26193 0.22458 0.99146 0.0
H891 H 0.28913 0.24945 0.98657 0.0
H892 H 0.27869 0.22342 0.97162 0.0
H893 H 0.18728 0.30297 0.001 0.0
H894 H 0.18107 0.32734 0.9844 0.0
H895 H 0.21239 0.33034 -0.00314 0.0
C896 C 0.48064 0.48632 0.78288 0.0
C897 C 0.4613 0.50659 0.78856 0.0
C898 C 0.4831 0.48037 0.7661 0.0
C899 C 0.46579 0.49504 0.75479 0.0
C900 C 0.44714 0.51637 0.7604 0.0
C901 C 0.44512 0.52188 0.77722 0.0
C902 C 0.50334 0.45759 0.76054 0.0
C903 C 0.42841 0.53257 0.7487 0.0
C904 C 0.48 0.49486 0.70905 0.0
C905 C 0.4598 0.4753 0.70353 0.0
C906 C 0.48303 0.50075 0.72581 0.0
C907 C 0.46542 0.48676 0.73725 0.0
C908 C 0.44584 0.46615 0.73179 0.0
C909 C 0.44327 0.46067 0.715 0.0
C910 C 0.50425 0.52274 0.7312 0.0
C911 C 0.42675 0.45069 0.74364 0.0
H912 H 0.49329 0.47449 0.79159 0.0
H913 H 0.43025 0.53768 0.78151 0.0
H914 H 0.49119 0.43924 0.7558 0.0
H915 H 0.51678 0.46546 0.75037 0.0
H916 H 0.51725 0.45016 0.77062 0.0
H917 H 0.4165 0.54977 0.75491 0.0
H918 H 0.44127 0.54196 0.73872 0.0
H919 H 0.41299 0.51791 0.74295 0.0
H920 H 0.49292 0.50617 0.70024 0.0
H921 H 0.42772 0.44542 0.71083 0.0
H922 H 0.51764 0.51435 0.74124 0.0
H923 H 0.49294 0.54152 0.73605 0.0
H924 H 0.51819 0.52967 0.721 0.0
H925 H 0.43946 0.44079 0.75352 0.0
H926 H 0.41401 0.43399 0.73754 0.0
H927 H 0.41207 0.46595 0.74952 0.0
C928 C 0.25457 0.72682 0.53175 0.0
C929 C 0.23392 0.70772 0.53727 0.0
C930 C 0.26087 0.7293 0.515 0.0
C931 C 0.24615 0.71229 0.50355 0.0
C932 C 0.22463 0.69371 0.50901 0.0
C933 C 0.21879 0.69165 0.5258 0.0
C934 C 0.28388 0.74941 0.50961 0.0
C935 C 0.20837 0.67531 0.49717 0.0
C936 C 0.2455 0.72865 0.45805 0.0
C937 C 0.26479 0.70863 0.45204 0.0
C938 C 0.23999 0.73089 0.47489 0.0
C939 C 0.25412 0.71267 0.48595 0.0
C940 C 0.2745 0.69326 0.48001 0.0
C941 C 0.2796 0.69147 0.46312 0.0
C942 C 0.21821 0.75193 0.48079 0.0
C943 C 0.29011 0.67356 0.49143 0.0
H944 H 0.26633 0.73933 0.54055 0.0
H945 H 0.20274 0.67692 0.52997 0.0
H946 H 0.30187 0.73724 0.50446 0.0
H947 H 0.27596 0.76355 0.49978 0.0
H948 H 0.29185 0.76264 0.51987 0.0
H949 H 0.19133 0.66305 0.5033 0.0
H950 H 0.19874 0.6885 0.48741 0.0
H951 H 0.22303 0.66022 0.49113 0.0
H952 H 0.23404 0.74205 0.44956 0.0
H953 H 0.29463 0.67604 0.45857 0.0
H954 H 0.22692 0.7649 0.49092 0.0
H955 H 0.19953 0.74046 0.48567 0.0
H956 H 0.21101 0.76628 0.47085 0.0
H957 H 0.30017 0.68572 0.50148 0.0
H958 H 0.30671 0.66115 0.48501 0.0
H959 H 0.27492 0.65858 0.49711 0.0
C960 C 0.40216 0.92433 0.12383 0.0
C961 C 0.39266 0.94323 0.13588 0.0
C962 C 0.38462 0.90244 0.11813 0.0
C963 C 0.35702 0.89947 0.12467 0.0
C964 C 0.34782 0.91776 0.13732 0.0
C965 C 0.36575 0.9394 0.14276 0.0
C966 C 0.39516 0.88327 0.10467 0.0
C967 C 0.31856 0.91523 0.14464 0.0
C968 C 0.2976 0.86963 0.09885 0.0
C969 C 0.29386 0.84272 0.10575 0.0
C970 C 0.31882 0.88786 0.1045 0.0
C971 C 0.33675 0.87899 0.1174 0.0
C972 C 0.33381 0.85146 0.12402 0.0
C973 C 0.31235 0.83359 0.1181 0.0
C974 C 0.32134 0.91704 0.09708 0.0
C975 C 0.35261 0.84129 0.13775 0.0
H976 H 0.42299 0.92711 0.11851 0.0
H977 H 0.35835 0.95379 0.15218 0.0
H978 H 0.39167 0.86078 0.10798 0.0
H979 H 0.38305 0.88742 0.09328 0.0
H980 H 0.41801 0.8865 0.10207 0.0
H981 H 0.31544 0.92972 0.15519 0.0
H982 H 0.30246 0.92025 0.13518 0.0
H983 H 0.31465 0.89322 0.14878 0.0
H984 H 0.28353 0.87675 0.08921 0.0
H985 H 0.30961 0.81278 0.12344 0.0
H986 H 0.34339 0.92096 0.09301 0.0
H987 H 0.31615 0.93325 0.10644 0.0
H988 H 0.30697 0.91999 0.08645 0.0
H989 H 0.3752 0.8447 0.1346 0.0
H990 H 0.34934 0.81851 0.14051 0.0
H991 H 0.34817 0.85369 0.14899 0.0
C992 C 0.29669 0.11723 0.39403 0.0
C993 C 0.29251 0.14424 0.38736 0.0
C994 C 0.31785 0.09928 0.38799 0.0
C995 C 0.33528 0.10858 0.37496 0.0
C996 C 0.33195 0.13625 0.36861 0.0
C997 C 0.31056 0.1538 0.3749 0.0
C998 C 0.32079 0.06994 0.39513 0.0
C999 C 0.35022 0.14689 0.35475 0.0
C1000 C 0.40081 0.06416 0.36691 0.0
C1001 C 0.39104 0.04581 0.35465 0.0
C1002 C 0.38325 0.08548 0.37327 0.0
C1003 C 0.35533 0.08841 0.36721 0.0
C1004 C 0.34576 0.07061 0.35442 0.0
C1005 C 0.36374 0.04955 0.34829 0.0
C1006 C 0.39419 0.10417 0.38686 0.0
C1007 C 0.31614 0.07309 0.34762 0.0
H1008 H 0.28296 0.10978 0.40375 0.0
H1009 H 0.3075 0.1747 0.36974 0.0
H1010 H 0.31523 0.05395 0.38571 0.0
H1011 H 0.34303 0.06599 0.39883 0.0
H1012 H 0.30691 0.06668 0.40595 0.0
H1013 H 0.34676 0.16974 0.35224 0.0
H1014 H 0.37292 0.14348 0.35759 0.0
H1015 H 0.34541 0.13479 0.34344 0.0
H1016 H 0.42194 0.06144 0.37183 0.0
H1017 H 0.3561 0.03557 0.33874 0.0
H1018 H 0.38242 0.09964 0.39832 0.0
H1019 H 0.39061 0.12677 0.38384 0.0
H1020 H 0.41712 0.10088 0.38918 0.0
H1021 H 0.30053 0.06778 0.3573 0.0
H1022 H 0.31257 0.05879 0.33701 0.0
H1023 H 0.31191 0.09515 0.3437 0.0
C1024 C 0.08539 0.05762 0.62849 0.0
C1025 C 0.09524 0.0388 0.64049 0.0
C1026 C 0.1029 0.07922 0.62239 0.0
C1027 C 0.13083 0.08198 0.62846 0.0
C1028 C 0.14044 0.06375 0.64103 0.0
C1029 C 0.12253 0.0424 0.64689 0.0
C1030 C 0.0919 0.09835 0.60903 0.0
C1031 C 0.17008 0.06605 0.64784 0.0
C1032 C 0.18896 0.11151 0.60149 0.0
C1033 C 0.1931 0.13848 0.60823 0.0
C1034 C 0.16808 0.09332 0.60762 0.0
C1035 C 0.15089 0.1023 0.62082 0.0
C1036 C 0.15425 0.12987 0.62732 0.0
C1037 C 0.17536 0.14768 0.62094 0.0
C1038 C 0.16511 0.06409 0.60032 0.0
C1039 C 0.13623 0.14018 0.64137 0.0
H1040 H 0.06428 0.05502 0.62353 0.0
H1041 H 0.13022 0.02807 0.65625 0.0
H1042 H 0.0956 0.12085 0.61226 0.0
H1043 H 0.10353 0.0941 0.59749 0.0
H1044 H 0.06893 0.09521 0.60675 0.0
H1045 H 0.17361 0.05155 0.65835 0.0
H1046 H 0.18566 0.06086 0.63812 0.0
H1047 H 0.17439 0.08803 0.65189 0.0
H1048 H 0.20246 0.10432 0.5916 0.0
H1049 H 0.1784 0.16854 0.62617 0.0
H1050 H 0.14286 0.06025 0.5966 0.0
H1051 H 0.17062 0.04794 0.60965 0.0
H1052 H 0.17899 0.06099 0.58949 0.0
H1053 H 0.11348 0.137 0.63858 0.0
H1054 H 0.13986 0.16292 0.64411 0.0
H1055 H 0.14108 0.12768 0.65252 0.0
C1056 C 0.08812 0.92361 0.87054 0.0
C1057 C 0.09637 0.94156 0.85772 0.0
C1058 C 0.10633 0.90231 0.87628 0.0
C1059 C 0.13335 0.89904 0.86904 0.0
C1060 C 0.14128 0.91637 0.85567 0.0
C1061 C 0.12268 0.93738 0.85017 0.0
C1062 C 0.09711 0.88409 0.89049 0.0
C1063 C 0.16993 0.91353 0.84761 0.0
C1064 C 0.19513 0.87155 0.89384 0.0
C1065 C 0.19862 0.84425 0.88743 0.0
C1066 C 0.17327 0.88918 0.88837 0.0
C1067 C 0.15439 0.87927 0.87621 0.0
C1068 C 0.15709 0.85134 0.87013 0.0
C1069 C 0.17924 0.83413 0.87582 0.0
C1070 C 0.1711 0.91884 0.89517 0.0
C1071 C 0.13722 0.84003 0.85722 0.0
H1072 H 0.06774 0.92664 0.87637 0.0
H1073 H 0.12912 0.95104 0.84017 0.0
H1074 H 0.1005 0.86139 0.88763 0.0
H1075 H 0.11013 0.88915 0.90141 0.0
H1076 H 0.07447 0.88735 0.89366 0.0
H1077 H 0.17206 0.92732 0.83666 0.0
H1078 H 0.18675 0.91929 0.85648 0.0
H1079 H 0.17366 0.89129 0.84386 0.0
H1080 H 0.20991 0.87945 0.9029 0.0
H1081 H 0.18176 0.81299 0.87087 0.0
H1082 H 0.14939 0.92285 0.89978 0.0
H1083 H 0.17528 0.93441 0.88529 0.0
H1084 H 0.18634 0.92268 0.90528 0.0
H1085 H 0.11491 0.8435 0.86094 0.0
H1086 H 0.14048 0.81709 0.85492 0.0
H1087 H 0.14057 0.85164 0.84558 0.0
C1088 C 0.68061 0.1535 0.87151 0.0
C1089 C 0.69815 0.14392 0.8842 0.0
C1090 C 0.65877 0.13633 0.86534 0.0
C1091 C 0.65455 0.109 0.87201 0.0
C1092 C 0.67162 0.09964 0.88517 0.0
C1093 C 0.69315 0.11722 0.89112 0.0
C1094 C 0.64085 0.14706 0.85136 0.0
C1095 C 0.66783 0.07061 0.89261 0.0
C1096 C 0.58793 0.06571 0.86493 0.0
C1097 C 0.59718 0.04651 0.85298 0.0
C1098 C 0.60597 0.08708 0.87077 0.0
C1099 C 0.63385 0.08916 0.86453 0.0
C1100 C 0.64286 0.07055 0.852 0.0
C1101 C 0.62441 0.04949 0.84637 0.0
C1102 C 0.59559 0.10669 0.88407 0.0
C1103 C 0.67244 0.07206 0.84503 0.0
H1104 H 0.68428 0.17416 0.86616 0.0
H1105 H 0.7065 0.10972 0.901 0.0
H1106 H 0.64518 0.13436 0.84021 0.0
H1107 H 0.61805 0.14455 0.85427 0.0
H1108 H 0.64509 0.16966 0.84855 0.0
H1109 H 0.68178 0.06718 0.90338 0.0
H1110 H 0.64554 0.06752 0.89648 0.0
H1111 H 0.67268 0.05417 0.88332 0.0
H1112 H 0.56686 0.0636 0.87002 0.0
H1113 H 0.63166 0.03487 0.83704 0.0
H1114 H 0.59994 0.12903 0.88075 0.0
H1115 H 0.60715 0.10223 0.89561 0.0
H1116 H 0.57256 0.10424 0.8864 0.0
H1117 H 0.67721 0.09388 0.84086 0.0
H1118 H 0.67547 0.05736 0.83456 0.0
H1119 H 0.68804 0.06663 0.85469 0.0
C1120 C 0.62234 0.94057 0.64122 0.0
C1121 C 0.59545 0.94501 0.63444 0.0
C1122 C 0.64017 0.91925 0.63527 0.0
C1123 C 0.63088 0.9019 0.62221 0.0
C1124 C 0.60329 0.90542 0.61577 0.0
C1125 C 0.58585 0.92698 0.62197 0.0
C1126 C 0.66943 0.91613 0.6425 0.0
C1127 C 0.59263 0.8872 0.6019 0.0
C1128 C 0.6903 0.87372 0.59576 0.0
C1129 C 0.69411 0.84644 0.60213 0.0
C1130 C 0.66903 0.89155 0.60177 0.0
C1131 C 0.65108 0.88187 0.61446 0.0
C1132 C 0.65402 0.85394 0.62049 0.0
C1133 C 0.67555 0.83651 0.61425 0.0
C1134 C 0.66653 0.92118 0.59498 0.0
C1135 C 0.63517 0.84287 0.63397 0.0
H1136 H 0.62982 0.95427 0.65095 0.0
H1137 H 0.56504 0.93022 0.61673 0.0
H1138 H 0.67326 0.89385 0.64615 0.0
H1139 H 0.68554 0.9217 0.63315 0.0
H1140 H 0.67264 0.92991 0.65336 0.0
H1141 H 0.56976 0.89061 0.59944 0.0
H1142 H 0.60466 0.89213 0.59059 0.0
H1143 H 0.59611 0.86449 0.60468 0.0
H1144 H 0.70442 0.88146 0.5863 0.0
H1145 H 0.67832 0.8154 0.61917 0.0
H1146 H 0.67177 0.93677 0.60468 0.0
H1147 H 0.64448 0.92539 0.59102 0.0
H1148 H 0.68088 0.92479 0.5844 0.0
H1149 H 0.63971 0.85441 0.64551 0.0
H1150 H 0.63831 0.81989 0.63617 0.0
H1151 H 0.6126 0.84665 0.63093 0.0
C1152 C 0.81031 0.83791 0.37123 0.0
C1153 C 0.79211 0.84639 0.38388 0.0
C1154 C 0.83194 0.85589 0.36565 0.0
C1155 C 0.83529 0.88291 0.37288 0.0
C1156 C 0.81771 0.89105 0.38609 0.0
C1157 C 0.79636 0.87269 0.39144 0.0
C1158 C 0.85042 0.84645 0.3516 0.0
C1159 C 0.82063 0.91969 0.39414 0.0
C1160 C 0.90076 0.92825 0.36657 0.0
C1161 C 0.89106 0.94769 0.35487 0.0
C1162 C 0.88323 0.90624 0.37213 0.0
C1163 C 0.85543 0.90375 0.36584 0.0
C1164 C 0.84595 0.92268 0.35359 0.0
C1165 C 0.86389 0.94439 0.34825 0.0
C1166 C 0.89408 0.88632 0.38514 0.0
C1167 C 0.81644 0.92071 0.34656 0.0
H1168 H 0.80722 0.81754 0.3654 0.0
H1169 H 0.78251 0.8793 0.4013 0.0
H1170 H 0.84572 0.85945 0.34062 0.0
H1171 H 0.87308 0.84968 0.35462 0.0
H1172 H 0.84705 0.82383 0.34845 0.0
H1173 H 0.80661 0.92199 0.40498 0.0
H1174 H 0.84282 0.92324 0.39805 0.0
H1175 H 0.81523 0.93654 0.38521 0.0
H1176 H 0.9218 0.93062 0.37168 0.0
H1177 H 0.85632 0.9592 0.33911 0.0
H1178 H 0.89049 0.86403 0.38142 0.0
H1179 H 0.88224 0.88981 0.3967 0.0
H1180 H 0.91699 0.88939 0.38761 0.0
H1181 H 0.81235 0.89902 0.34194 0.0
H1182 H 0.81298 0.93594 0.33639 0.0
H1183 H 0.80066 0.92506 0.3563 0.0
C1184 C 0.81381 0.14741 0.11794 0.0
C1185 C 0.79623 0.13863 0.10507 0.0
C1186 C 0.83507 0.12955 0.12407 0.0
C1187 C 0.83868 0.10231 0.11717 0.0
C1188 C 0.82174 0.09382 0.10375 0.0
C1189 C 0.80075 0.1121 0.09785 0.0
C1190 C 0.85288 0.13937 0.13832 0.0
C1191 C 0.82494 0.06492 0.09605 0.0
C1192 C 0.90386 0.05734 0.12511 0.0
C1193 C 0.89364 0.03837 0.13693 0.0
C1194 C 0.88655 0.07903 0.11895 0.0
C1195 C 0.85843 0.08167 0.12474 0.0
C1196 C 0.84839 0.0632 0.13708 0.0
C1197 C 0.86613 0.04182 0.14304 0.0
C1198 C 0.898 0.09848 0.10587 0.0
C1199 C 0.81852 0.06534 0.14358 0.0
H1200 H 0.81051 0.16796 0.12352 0.0
H1201 H 0.78737 0.10524 0.08783 0.0
H1202 H 0.84765 0.12666 0.14934 0.0
H1203 H 0.87567 0.13605 0.13568 0.0
H1204 H 0.84938 0.16207 0.14121 0.0
H1205 H 0.81145 0.06232 0.08501 0.0
H1206 H 0.84731 0.06119 0.09254 0.0
H1207 H 0.81906 0.04838 0.10507 0.0
H1208 H 0.92515 0.05486 0.1204 0.0
H1209 H 0.85814 0.02735 0.15225 0.0
H1210 H 0.89433 0.12089 0.10929 0.0
H1211 H 0.88663 0.09464 0.09419 0.0
H1212 H 0.921 0.09528 0.10375 0.0
H1213 H 0.8142 0.08716 0.14792 0.0
H1214 H 0.81453 0.0504 0.15383 0.0
H1215 H 0.80326 0.0607 0.13361 0.0
C1216 C 0.798 0.37453 0.59896 0.0
C1217 C 0.79452 0.34738 0.60557 0.0
C1218 C 0.81915 0.39273 0.60474 0.0
C1219 C 0.83729 0.38358 0.61747 0.0
C1220 C 0.8346 0.35582 0.6238 0.0
C1221 C 0.81321 0.33799 0.61776 0.0
C1222 C 0.82138 0.42217 0.59763 0.0
C1223 C 0.85362 0.34533 0.63735 0.0
C1224 C 0.9025 0.42909 0.62424 0.0
C1225 C 0.89299 0.44752 0.63652 0.0
C1226 C 0.88502 0.40732 0.61832 0.0
C1227 C 0.85749 0.40396 0.6249 0.0
C1228 C 0.84829 0.42176 0.63778 0.0
C1229 C 0.86614 0.44333 0.64342 0.0
C1230 C 0.89555 0.38868 0.6046 0.0
C1231 C 0.81912 0.4188 0.64515 0.0
H1232 H 0.78377 0.38186 0.58945 0.0
H1233 H 0.81068 0.31699 0.62288 0.0
H1234 H 0.81617 0.43803 0.60718 0.0
H1235 H 0.84337 0.42639 0.59354 0.0
H1236 H 0.80689 0.42535 0.58708 0.0
H1237 H 0.85052 0.32245 0.63989 0.0
H1238 H 0.87615 0.34899 0.63415 0.0
H1239 H 0.84924 0.35736 0.64874 0.0
H1240 H 0.92327 0.43217 0.6189 0.0
H1241 H 0.85874 0.45735 0.65301 0.0
H1242 H 0.88327 0.39311 0.59331 0.0
H1243 H 0.89228 0.36605 0.60768 0.0
H1244 H 0.91834 0.39217 0.60195 0.0
H1245 H 0.80289 0.42402 0.63581 0.0
H1246 H 0.816 0.43294 0.65587 0.0
H1247 H 0.81539 0.39664 0.64907 0.0
C1248 C 0.90212 0.56487 0.86873 0.0
C1249 C 0.89198 0.54558 0.85708 0.0
C1250 C 0.88487 0.58698 0.87448 0.0
C1251 C 0.85693 0.58971 0.86841 0.0
C1252 C 0.847 0.57086 0.85623 0.0
C1253 C 0.86464 0.54907 0.85072 0.0
C1254 C 0.89617 0.60679 0.88741 0.0
C1255 C 0.81734 0.57306 0.84944 0.0
C1256 C 0.79776 0.62078 0.89383 0.0
C1257 C 0.79326 0.64685 0.88606 0.0
C1258 C 0.81946 0.60263 0.88875 0.0
C1259 C 0.8371 0.61072 0.87555 0.0
C1260 C 0.83361 0.63762 0.86819 0.0
C1261 C 0.81168 0.65542 0.87354 0.0
C1262 C 0.82252 0.57414 0.89695 0.0
C1263 C 0.85212 0.647 0.85413 0.0
H1264 H 0.92328 0.56234 0.87364 0.0
H1265 H 0.85671 0.53437 0.84162 0.0
H1266 H 0.89268 0.62911 0.88373 0.0
H1267 H 0.88457 0.60338 0.89906 0.0
H1268 H 0.91911 0.60354 0.88971 0.0
H1269 H 0.81347 0.55777 0.83935 0.0
H1270 H 0.80174 0.56896 0.85932 0.0
H1271 H 0.81338 0.59474 0.84477 0.0
H1272 H 0.78379 0.61415 0.90364 0.0
H1273 H 0.8084 0.67562 0.86755 0.0
H1274 H 0.84482 0.57054 0.90064 0.0
H1275 H 0.81673 0.55716 0.88818 0.0
H1276 H 0.80884 0.57212 0.90795 0.0
H1277 H 0.87477 0.64344 0.85707 0.0
H1278 H 0.84901 0.6697 0.8511 0.0
H1279 H 0.84712 0.63422 0.84311 0.0
C1280 C 0.67608 0.64882 0.10906 0.0
C1281 C 0.69593 0.64034 0.09728 0.0
C1282 C 0.65433 0.63048 0.11407 0.0
C1283 C 0.65254 0.60308 0.10713 0.0
C1284 C 0.67166 0.59499 0.09465 0.0
C1285 C 0.69309 0.61372 0.08986 0.0
C1286 C 0.63418 0.63991 0.12733 0.0
C1287 C 0.67045 0.56595 0.08693 0.0
C1288 C 0.62467 0.54247 0.13274 0.0
C1289 C 0.59792 0.53778 0.12582 0.0
C1290 C 0.64226 0.56417 0.12703 0.0
C1291 C 0.63286 0.58172 0.1141 0.0
C1292 C 0.60558 0.57766 0.10733 0.0
C1293 C 0.58839 0.55565 0.11327 0.0
C1294 C 0.67125 0.56777 0.13456 0.0
C1295 C 0.59486 0.59608 0.09356 0.0
H1296 H 0.67804 0.66945 0.11476 0.0
H1297 H 0.70819 0.60711 0.08063 0.0
H1298 H 0.612 0.63536 0.12375 0.0
H1299 H 0.63855 0.6279 0.13873 0.0
H1300 H 0.6362 0.66286 0.13003 0.0
H1301 H 0.68515 0.5639 0.07638 0.0
H1302 H 0.67614 0.54974 0.09619 0.0
H1303 H 0.64867 0.5612 0.08269 0.0
H1304 H 0.63215 0.52885 0.14251 0.0
H1305 H 0.56769 0.55218 0.10791 0.0
H1306 H 0.67404 0.58979 0.13896 0.0
H1307 H 0.68776 0.56381 0.12518 0.0
H1308 H 0.67485 0.55312 0.145 0.0
H1309 H 0.59688 0.61875 0.09689 0.0
H1310 H 0.57241 0.59158 0.0905 0.0
H1311 H 0.60792 0.59259 0.08246 0.0
C1312 C 0.67561 0.33896 0.37157 0.0
C1313 C 0.69366 0.34883 0.38395 0.0
C1314 C 0.65437 0.35644 0.36504 0.0
C1315 C 0.65122 0.38436 0.37105 0.0
C1316 C 0.66865 0.39399 0.38399 0.0
C1317 C 0.68963 0.3761 0.39029 0.0
C1318 C 0.63609 0.34543 0.35129 0.0
C1319 C 0.66592 0.42361 0.39076 0.0
C1320 C 0.62374 0.44282 0.34366 0.0
C1321 C 0.59645 0.44719 0.34992 0.0
C1322 C 0.64135 0.42168 0.35003 0.0
C1323 C 0.63144 0.40445 0.36299 0.0
C1324 C 0.60352 0.40797 0.36895 0.0
C1325 C 0.58632 0.42936 0.36234 0.0
C1326 C 0.67097 0.41856 0.34331 0.0
C1327 C 0.59222 0.38989 0.38271 0.0
H1328 H 0.67854 0.31785 0.36667 0.0
H1329 H 0.70336 0.3838 0.39994 0.0
H1330 H 0.6134 0.34923 0.35401 0.0
H1331 H 0.64114 0.35698 0.33983 0.0
H1332 H 0.63929 0.32244 0.34912 0.0
H1333 H 0.67975 0.42715 0.40157 0.0
H1334 H 0.6717 0.4392 0.38116 0.0
H1335 H 0.6437 0.4279 0.39435 0.0
H1336 H 0.63165 0.45638 0.33398 0.0
H1337 H 0.56521 0.43257 0.36719 0.0
H1338 H 0.67495 0.39629 0.33968 0.0
H1339 H 0.6866 0.42405 0.35294 0.0
H1340 H 0.67478 0.43238 0.33253 0.0
H1341 H 0.59565 0.36715 0.37999 0.0
H1342 H 0.5693 0.39347 0.38489 0.0
H1343 H 0.60388 0.39474 0.39417 0.0
C1344 C 0.12275 0.54906 0.34866 0.0
C1345 C 0.09612 0.54477 0.35581 0.0
C1346 C 0.1409 0.57033 0.35432 0.0
C1347 C 0.13224 0.58777 0.36748 0.0
C1348 C 0.10494 0.58434 0.37434 0.0
C1349 C 0.08714 0.56284 0.36841 0.0
C1350 C 0.16983 0.57337 0.34663 0.0
C1351 C 0.09498 0.60262 0.38837 0.0
C1352 C 0.19317 0.61614 0.39265 0.0
C1353 C 0.19668 0.64333 0.38608 0.0
C1354 C 0.17146 0.59832 0.38718 0.0
C1355 C 0.15279 0.60789 0.37482 0.0
C1356 C 0.15545 0.63574 0.36862 0.0
C1357 C 0.1774 0.65318 0.37434 0.0
C1358 C 0.16928 0.56878 0.39415 0.0
C1359 C 0.13586 0.64668 0.35546 0.0
H1360 H 0.12973 0.53532 0.33882 0.0
H1361 H 0.06654 0.55969 0.37396 0.0
H1362 H 0.17348 0.59561 0.34282 0.0
H1363 H 0.18636 0.56793 0.35575 0.0
H1364 H 0.17255 0.55946 0.33578 0.0
H1365 H 0.07226 0.59916 0.39124 0.0
H1366 H 0.10762 0.59781 0.39947 0.0
H1367 H 0.09827 0.62532 0.38547 0.0
H1368 H 0.20784 0.60847 0.40184 0.0
H1369 H 0.17994 0.67422 0.36926 0.0
H1370 H 0.17412 0.55307 0.38445 0.0
H1371 H 0.14741 0.5646 0.39845 0.0
H1372 H 0.18409 0.56534 0.40453 0.0
H1373 H 0.13979 0.63507 0.34388 0.0
H1374 H 0.13886 0.66965 0.35315 0.0
H1375 H 0.11347 0.6429 0.35892 0.0
C1376 C 0.18851 0.37163 0.10121 0.0
C1377 C 0.19286 0.34441 0.10755 0.0
C1378 C 0.16717 0.38918 0.10737 0.0
C1379 C 0.14967 0.37929 0.12022 0.0
C1380 C 0.15329 0.35149 0.12634 0.0
C1381 C 0.1749 0.33433 0.11993 0.0
C1382 C 0.16398 0.41868 0.10049 0.0
C1383 C 0.13493 0.34024 0.14 0.0
C1384 C 0.11981 0.43846 0.14617 0.0
C1385 C 0.09301 0.44232 0.13915 0.0
C1386 C 0.13792 0.417 0.14067 0.0
C1387 C 0.129 0.39895 0.12785 0.0
C1388 C 0.10141 0.40178 0.12128 0.0
C1389 C 0.0837 0.42349 0.12702 0.0
C1390 C 0.16716 0.41463 0.14802 0.0
C1391 C 0.09113 0.3828 0.10766 0.0
H1392 H 0.20218 0.3795 0.09156 0.0
H1393 H 0.17811 0.31328 0.12485 0.0
H1394 H 0.14186 0.42226 0.09645 0.0
H1395 H 0.1687 0.4345 0.11015 0.0
H1396 H 0.17831 0.42259 0.08994 0.0
H1397 H 0.13881 0.31744 0.14241 0.0
H1398 H 0.13919 0.35227 0.1514 0.0
H1399 H 0.11223 0.34322 0.13699 0.0
H1400 H 0.12704 0.45276 0.15566 0.0
H1401 H 0.06294 0.42626 0.12162 0.0
H1402 H 0.18321 0.42056 0.13871 0.0
H1403 H 0.17152 0.39248 0.15173 0.0
H1404 H 0.1699 0.42857 0.15886 0.0
H1405 H 0.10288 0.38773 0.09624 0.0
H1406 H 0.06815 0.3855 0.10525 0.0
H1407 H 0.09528 0.36029 0.11066 0.0
C1408 C 0.3671 0.4388 0.84846 0.0
C1409 C 0.39389 0.4428 0.85547 0.0
C1410 C 0.34895 0.41748 0.85408 0.0
C1411 C 0.35779 0.3997 0.86705 0.0
C1412 C 0.38525 0.40283 0.87374 0.0
C1413 C 0.40303 0.42439 0.86786 0.0
C1414 C 0.31984 0.41478 0.84659 0.0
C1415 C 0.39541 0.38416 0.88753 0.0
C1416 C 0.29725 0.37122 0.89251 0.0
C1417 C 0.29336 0.34422 0.88577 0.0
C1418 C 0.31896 0.38901 0.88699 0.0
C1419 C 0.33726 0.37956 0.87441 0.0
C1420 C 0.33424 0.35187 0.86802 0.0
C1421 C 0.31228 0.33448 0.87379 0.0
C1422 C 0.32152 0.41838 0.89415 0.0
C1423 C 0.35344 0.34107 0.85464 0.0
H1424 H 0.35997 0.4528 0.83879 0.0
H1425 H 0.42376 0.42731 0.87328 0.0
H1426 H 0.31598 0.39265 0.84265 0.0
H1427 H 0.30354 0.42013 0.85587 0.0
H1428 H 0.31698 0.42894 0.83586 0.0
H1429 H 0.41822 0.38739 0.89025 0.0
H1430 H 0.38307 0.38881 0.89878 0.0
H1431 H 0.3919 0.36155 0.8845 0.0
H1432 H 0.28286 0.37881 0.90187 0.0
H1433 H 0.30945 0.31358 0.86858 0.0
H1434 H 0.3166 0.43433 0.88459 0.0
H1435 H 0.34351 0.4223 0.89832 0.0
H1436 H 0.30696 0.42171 0.90465 0.0
H1437 H 0.34931 0.35293 0.84316 0.0
H1438 H 0.35023 0.31816 0.8522 0.0
H1439 H 0.37593 0.34464 0.85794 0.0
C1440 C 0.36582 0.54414 0.64307 0.0
C1441 C 0.39282 0.53983 0.6364 0.0
C1442 C 0.34817 0.56571 0.63724 0.0
C1443 C 0.35774 0.58343 0.62441 0.0
C1444 C 0.3854 0.57995 0.61806 0.0
C1445 C 0.40266 0.55815 0.62414 0.0
C1446 C 0.31882 0.56876 0.64437 0.0
C1447 C 0.39635 0.59853 0.60443 0.0
C1448 C 0.29893 0.61312 0.59806 0.0
C1449 C 0.29534 0.64023 0.60472 0.0
C1450 C 0.31993 0.59486 0.60396 0.0
C1451 C 0.33781 0.60391 0.61683 0.0
C1452 C 0.33506 0.63165 0.62319 0.0
C1453 C 0.31381 0.64953 0.61704 0.0
C1454 C 0.32223 0.56545 0.59682 0.0
C1455 C 0.35383 0.64205 0.63688 0.0
H1456 H 0.35816 0.53021 0.65264 0.0
H1457 H 0.42356 0.555 0.61898 0.0
H1458 H 0.31511 0.59092 0.64829 0.0
H1459 H 0.30281 0.56369 0.63487 0.0
H1460 H 0.31534 0.55459 0.65503 0.0
H1461 H 0.41918 0.59494 0.60195 0.0
H1462 H 0.38431 0.59418 0.59304 0.0
H1463 H 0.39312 0.62118 0.60748 0.0
H1464 H 0.28488 0.60586 0.58845 0.0
H1465 H 0.3112 0.6705 0.62219 0.0
H1466 H 0.31672 0.54957 0.60631 0.0
H1467 H 0.34429 0.56117 0.59291 0.0
H1468 H 0.30798 0.56235 0.58615 0.0
H1469 H 0.3491 0.63007 0.64824 0.0
H1470 H 0.35081 0.66495 0.63938 0.0
H1471 H 0.37641 0.63825 0.63386 0.0
C1472 C 0.35998 0.08559 0.11428 0.0
C1473 C 0.38311 0.08638 0.12501 0.0
C1474 C 0.34229 0.10923 0.11235 0.0
C1475 C 0.3484 0.13443 0.12103 0.0
C1476 C 0.37189 0.13538 0.13179 0.0
C1477 C 0.38874 0.1112 0.13382 0.0
C1478 C 0.31703 0.10721 0.10109 0.0
C1479 C 0.37949 0.16207 0.14096 0.0
C1480 C 0.32108 0.20426 0.10442 0.0
C1481 C 0.29924 0.21052 0.11547 0.0
C1482 C 0.33708 0.17942 0.106 0.0
C1483 C 0.33061 0.16005 0.11868 0.0
C1484 C 0.30789 0.16575 0.12949 0.0
C1485 C 0.29271 0.19113 0.1279 0.0
C1486 C 0.36153 0.1744 0.09444 0.0
C1487 C 0.29991 0.14524 0.1429 0.0
H1488 H 0.35544 0.06633 0.10757 0.0
H1489 H 0.40673 0.11193 0.14204 0.0
H1490 H 0.29743 0.11268 0.10788 0.0
H1491 H 0.31918 0.12265 0.09094 0.0
H1492 H 0.31455 0.08572 0.09576 0.0
H1493 H 0.39872 0.15943 0.14863 0.0
H1494 H 0.38321 0.17958 0.13217 0.0
H1495 H 0.36169 0.16853 0.14898 0.0
H1496 H 0.32636 0.21931 0.09487 0.0
H1497 H 0.27571 0.19581 0.1364 0.0
H1498 H 0.35897 0.15379 0.08812 0.0
H1499 H 0.38159 0.17339 0.10148 0.0
H1500 H 0.36345 0.1913 0.08505 0.0
H1501 H 0.29657 0.12381 0.13771 0.0
H1502 H 0.2804 0.15179 0.14948 0.0
H1503 H 0.31741 0.14364 0.15191 0.0
C1504 C 0.12443 0.1409 0.38872 0.0
C1505 C 0.14889 0.13461 0.37972 0.0
C1506 C 0.0999 0.12444 0.38708 0.0
C1507 C 0.10014 0.10067 0.37653 0.0
C1508 C 0.12508 0.09369 0.36781 0.0
C1509 C 0.14907 0.11103 0.36932 0.0
C1510 C 0.07349 0.133 0.39625 0.0
C1511 C 0.12634 0.06809 0.35677 0.0
C1512 C 0.04103 0.04704 0.3825 0.0
C1513 C 0.02272 0.05413 0.36964 0.0
C1514 C 0.06676 0.0615 0.38465 0.0
C1515 C 0.07381 0.08405 0.37397 0.0
C1516 C 0.0553 0.09131 0.36101 0.0
C1517 C 0.03018 0.07601 0.35888 0.0
C1518 C 0.08634 0.05271 0.39834 0.0
C1519 C 0.06171 0.11568 0.34962 0.0
H1520 H 0.12421 0.15923 0.3967 0.0
H1521 H 0.16807 0.10596 0.36249 0.0
H1522 H 0.05631 0.13782 0.38741 0.0
H1523 H 0.06604 0.11531 0.40406 0.0
H1524 H 0.07695 0.15186 0.40412 0.0
H1525 H 0.14794 0.06438 0.35185 0.0
H1526 H 0.11946 0.04895 0.36357 0.0
H1527 H 0.1116 0.07086 0.34633 0.0
H1528 H 0.03538 0.03002 0.39077 0.0
H1529 H 0.01594 0.08173 0.34901 0.0
H1530 H 0.08873 0.07029 0.40722 0.0
H1531 H 0.10769 0.04802 0.39337 0.0
H1532 H 0.07849 0.03376 0.40498 0.0
H1533 H 0.06393 0.13552 0.35678 0.0
H1534 H 0.04493 0.11876 0.34026 0.0
H1535 H 0.0821 0.11201 0.34325 0.0
C1536 C 0.09964 0.87092 0.6392 0.0
C1537 C 0.10558 0.89608 0.6308 0.0
C1538 C 0.11649 0.84677 0.63699 0.0
C1539 C 0.14031 0.84811 0.62648 0.0
C1540 C 0.14688 0.87373 0.61834 0.0
C1541 C 0.12917 0.89731 0.62041 0.0
C1542 C 0.10837 0.81964 0.64555 0.0
C1543 C 0.1725 0.87618 0.60738 0.0
C1544 C 0.19536 0.7901 0.6316 0.0
C1545 C 0.18889 0.77224 0.61842 0.0
C1546 C 0.18024 0.81532 0.63413 0.0
C1547 C 0.15763 0.82234 0.6235 0.0
C1548 C 0.15105 0.80437 0.61016 0.0
C1549 C 0.16701 0.77974 0.60766 0.0
C1550 C 0.18834 0.83436 0.64822 0.0
C1551 C 0.12668 0.81075 0.59878 0.0
H1552 H 0.08131 0.86987 0.64717 0.0
H1553 H 0.13396 0.91684 0.61402 0.0
H1554 H 0.10415 0.80289 0.63635 0.0
H1555 H 0.12609 0.81216 0.65334 0.0
H1556 H 0.08928 0.82217 0.65335 0.0
H1557 H 0.1757 0.8981 0.60283 0.0
H1558 H 0.19177 0.86946 0.61411 0.0
H1559 H 0.17016 0.8619 0.5967 0.0
H1560 H 0.21236 0.78443 0.63989 0.0
H1561 H 0.16175 0.76585 0.59754 0.0
H1562 H 0.17063 0.83567 0.6571 0.0
H1563 H 0.1924 0.85613 0.64369 0.0
H1564 H 0.20748 0.82672 0.65476 0.0
H1565 H 0.10667 0.81192 0.60587 0.0
H1566 H 0.12424 0.79449 0.58906 0.0
H1567 H 0.12982 0.83164 0.59287 0.0
C1568 C 0.44762 0.94558 0.88101 0.0
C1569 C 0.46556 0.93933 0.86782 0.0
C1570 C 0.42241 0.93035 0.88341 0.0
C1571 C 0.41552 0.90786 0.87265 0.0
C1572 C 0.43364 0.90146 0.85936 0.0
C1573 C 0.45822 0.91753 0.85698 0.0
C1574 C 0.4032 0.93825 0.89745 0.0
C1575 C 0.42742 0.8772 0.84786 0.0
C1576 C 0.36688 0.84936 0.88758 0.0
C1577 C 0.34194 0.85527 0.87895 0.0
C1578 C 0.39094 0.86647 0.88576 0.0
C1579 C 0.38972 0.8905 0.87542 0.0
C1580 C 0.36428 0.89706 0.86709 0.0
C1581 C 0.3408 0.8791 0.86876 0.0
C1582 C 0.41791 0.85833 0.89449 0.0
C1583 C 0.36195 0.92291 0.85631 0.0
H1584 H 0.45318 0.96252 0.88935 0.0
H1585 H 0.47219 0.91243 0.84687 0.0
H1586 H 0.38152 0.94247 0.89284 0.0
H1587 H 0.40168 0.92039 0.90621 0.0
H1588 H 0.41082 0.95724 0.90415 0.0
H1589 H 0.44389 0.87479 0.83825 0.0
H1590 H 0.42602 0.85714 0.85488 0.0
H1591 H 0.40668 0.88047 0.8418 0.0
H1592 H 0.36783 0.83085 0.89541 0.0
H1593 H 0.32142 0.88386 0.86222 0.0
H1594 H 0.42523 0.876 0.90236 0.0
H1595 H 0.43484 0.85417 0.88539 0.0
H1596 H 0.41523 0.83919 0.90224 0.0
H1597 H 0.36863 0.94204 0.86318 0.0
H1598 H 0.34007 0.92621 0.85171 0.0
H1599 H 0.37632 0.92077 0.84564 0.0
C1600 C 0.32438 0.7826 0.38151 0.0
C1601 C 0.30182 0.77557 0.37113 0.0
C1602 C 0.33962 0.80776 0.37934 0.0
C1603 C 0.33164 0.82671 0.36675 0.0
C1604 C 0.30845 0.82007 0.35646 0.0
C1605 C 0.29403 0.79434 0.35863 0.0
C1606 C 0.36464 0.81376 0.39033 0.0
C1607 C 0.29893 0.8401 0.34316 0.0
C1608 C 0.35855 0.90189 0.37183 0.0
C1609 C 0.38164 0.90221 0.36106 0.0
C1610 C 0.34141 0.87778 0.37335 0.0
C1611 C 0.34805 0.85319 0.36422 0.0
C1612 C 0.37127 0.85347 0.35326 0.0
C1613 C 0.38757 0.87812 0.35165 0.0
C1614 C 0.31641 0.87849 0.38486 0.0
C1615 C 0.37944 0.82746 0.34361 0.0
H1616 H 0.33066 0.76802 0.39109 0.0
H1617 H 0.2765 0.78902 0.35064 0.0
H1618 H 0.38406 0.81628 0.38282 0.0
H1619 H 0.36132 0.83391 0.39702 0.0
H1620 H 0.36827 0.79665 0.39941 0.0
H1621 H 0.27968 0.83242 0.33673 0.0
H1622 H 0.29441 0.86125 0.34846 0.0
H1623 H 0.31607 0.84289 0.33402 0.0
H1624 H 0.35374 0.9206 0.37899 0.0
H1625 H 0.40552 0.87826 0.34338 0.0
H1626 H 0.31982 0.86338 0.39506 0.0
H1627 H 0.29693 0.87177 0.37834 0.0
H1628 H 0.31286 0.89988 0.39012 0.0
H1629 H 0.3849 0.81001 0.35214 0.0
H1630 H 0.39779 0.83132 0.33541 0.0
H1631 H 0.36132 0.82016 0.33608 0.0
C1632 C 0.33883 0.10784 0.62303 0.0
C1633 C 0.33772 0.13129 0.61255 0.0
C1634 C 0.36325 0.09102 0.62399 0.0
C1635 C 0.38735 0.09839 0.6146 0.0
C1636 C 0.38628 0.122 0.60395 0.0
C1637 C 0.36131 0.13793 0.60289 0.0
C1638 C 0.36338 0.06558 0.63518 0.0
C1639 C 0.41177 0.13097 0.59408 0.0
C1640 C 0.4587 0.07515 0.63098 0.0
C1641 C 0.46571 0.05298 0.62032 0.0
C1642 C 0.43338 0.09022 0.62914 0.0
C1643 C 0.41421 0.0824 0.61662 0.0
C1644 C 0.42092 0.05969 0.60599 0.0
C1645 C 0.44685 0.04548 0.60781 0.0
C1646 C 0.42735 0.11479 0.64045 0.0
C1647 C 0.40065 0.05032 0.59276 0.0
H1648 H 0.32049 0.10249 0.63039 0.0
H1649 H 0.36055 0.15616 0.59484 0.0
H1650 H 0.37025 0.0465 0.62833 0.0
H1651 H 0.37876 0.0689 0.64525 0.0
H1652 H 0.34224 0.06144 0.64062 0.0
H1653 H 0.40727 0.14951 0.58613 0.0
H1654 H 0.42943 0.13648 0.60245 0.0
H1655 H 0.41913 0.11326 0.58625 0.0
H1656 H 0.47339 0.08119 0.64057 0.0
H1657 H 0.45218 0.02823 0.59963 0.0
H1658 H 0.40761 0.11081 0.64743 0.0
H1659 H 0.42404 0.13435 0.63319 0.0
H1660 H 0.44481 0.11855 0.6493 0.0
H1661 H 0.37983 0.045 0.59825 0.0
H1662 H 0.40857 0.03161 0.58592 0.0
H1663 H 0.39709 0.06783 0.58396 0.0
C1664 C 0.10007 0.11011 0.85283 0.0
C1665 C 0.10787 0.0859 0.86166 0.0
C1666 C 0.11617 0.13502 0.8538 0.0
C1667 C 0.14098 0.13546 0.86352 0.0
C1668 C 0.14958 0.11069 0.8719 0.0
C1669 C 0.13272 0.08631 0.87103 0.0
C1670 C 0.106 0.16118 0.84496 0.0
C1671 C 0.17625 0.11014 0.88208 0.0
C1672 C 0.19303 0.19586 0.85709 0.0
C1673 C 0.18661 0.21349 0.8704 0.0
C1674 C 0.17863 0.17014 0.85479 0.0
C1675 C 0.15689 0.1623 0.86583 0.0
C1676 C 0.15022 0.18015 0.87921 0.0
C1677 C 0.16539 0.20534 0.88143 0.0
C1678 C 0.18674 0.15132 0.84061 0.0
C1679 C 0.12681 0.17281 0.89108 0.0
H1680 H 0.0808 0.1099 0.84563 0.0
H1681 H 0.13898 0.06753 0.87774 0.0
H1682 H 0.10078 0.17789 0.85402 0.0
H1683 H 0.12296 0.16964 0.83696 0.0
H1684 H 0.08695 0.157 0.83736 0.0
H1685 H 0.18131 0.08855 0.8866 0.0
H1686 H 0.19444 0.11806 0.87481 0.0
H1687 H 0.17383 0.12436 0.8928 0.0
H1688 H 0.20951 0.20202 0.84857 0.0
H1689 H 0.16014 0.21902 0.89165 0.0
H1690 H 0.16836 0.14837 0.83235 0.0
H1691 H 0.19283 0.13007 0.8452 0.0
H1692 H 0.20462 0.16012 0.83339 0.0
H1693 H 0.10659 0.17001 0.88436 0.0
H1694 H 0.1238 0.18935 0.90059 0.0
H1695 H 0.13159 0.15248 0.89726 0.0
C1696 C 0.12564 0.84355 0.10413 0.0
C1697 C 0.15008 0.8499 0.11313 0.0
C1698 C 0.10103 0.85988 0.10584 0.0
C1699 C 0.10119 0.88359 0.11643 0.0
C1700 C 0.1261 0.8906 0.12517 0.0
C1701 C 0.15015 0.87339 0.1236 0.0
C1702 C 0.07465 0.85129 0.09665 0.0
C1703 C 0.12729 0.91615 0.13625 0.0
C1704 C 0.04244 0.93758 0.11049 0.0
C1705 C 0.02409 0.93064 0.12337 0.0
C1706 C 0.06801 0.92289 0.1083 0.0
C1707 C 0.07487 0.90026 0.11895 0.0
C1708 C 0.0563 0.89311 0.13191 0.0
C1709 C 0.03133 0.90865 0.13409 0.0
C1710 C 0.08767 0.93158 0.09462 0.0
C1711 C 0.06251 0.86866 0.14327 0.0
H1712 H 0.1255 0.82528 0.0961 0.0
H1713 H 0.16914 0.8785 0.13043 0.0
H1714 H 0.05744 0.84649 0.10547 0.0
H1715 H 0.06723 0.86897 0.08882 0.0
H1716 H 0.07813 0.83242 0.0888 0.0
H1717 H 0.14884 0.91982 0.14125 0.0
H1718 H 0.1205 0.93533 0.12947 0.0
H1719 H 0.11244 0.91334 0.14665 0.0
H1720 H 0.03695 0.95468 0.10224 0.0
H1721 H 0.01705 0.90304 0.14396 0.0
H1722 H 0.09006 0.91394 0.08577 0.0
H1723 H 0.109 0.93626 0.09961 0.0
H1724 H 0.07988 0.9505 0.08793 0.0
H1725 H 0.06473 0.84885 0.13609 0.0
H1726 H 0.04564 0.86559 0.15258 0.0
H1727 H 0.08286 0.87223 0.14971 0.0
C1728 C 0.69128 0.79359 0.85592 0.0
C1729 C 0.68409 0.77541 0.86883 0.0
C1730 C 0.67686 0.8193 0.85366 0.0
C1731 C 0.65425 0.82646 0.86427 0.0
C1732 C 0.64671 0.80795 0.87718 0.0
C1733 C 0.66198 0.78286 0.87943 0.0
C1734 C 0.68591 0.83887 0.84002 0.0
C1735 C 0.62226 0.81446 0.88849 0.0
C1736 C 0.62855 0.90195 0.86968 0.0
C1737 C 0.60484 0.90244 0.85939 0.0
C1738 C 0.64556 0.8777 0.87086 0.0
C1739 C 0.63815 0.85315 0.8619 0.0
C1740 C 0.6143 0.85361 0.8514 0.0
C1741 C 0.59815 0.8784 0.85011 0.0
C1742 C 0.67124 0.87822 0.88186 0.0
C1743 C 0.60528 0.82763 0.84198 0.0
H1744 H 0.70848 0.78792 0.84777 0.0
H1745 H 0.65616 0.7687 0.88932 0.0
H1746 H 0.66821 0.84198 0.83129 0.0
H1747 H 0.69135 0.85996 0.84511 0.0
H1748 H 0.70448 0.83061 0.83318 0.0
H1749 H 0.61864 0.79743 0.89764 0.0
H1750 H 0.62628 0.83454 0.89513 0.0
H1751 H 0.60259 0.81738 0.88127 0.0
H1752 H 0.63393 0.92063 0.87673 0.0
H1753 H 0.57973 0.87869 0.8422 0.0
H1754 H 0.69021 0.87104 0.87501 0.0
H1755 H 0.66816 0.86338 0.89223 0.0
H1756 H 0.67544 0.89965 0.8869 0.0
H1757 H 0.62292 0.81991 0.83422 0.0
H1758 H 0.58665 0.83172 0.83403 0.0
H1759 H 0.59987 0.81039 0.85066 0.0
C1760 C 0.95666 0.91083 0.63445 0.0
C1761 C 0.96454 0.93343 0.62431 0.0
C1762 C 0.93151 0.89584 0.63169 0.0
C1763 C 0.91341 0.90415 0.61874 0.0
C1764 C 0.92088 0.92744 0.60872 0.0
C1765 C 0.94661 0.94157 0.61147 0.0
C1766 C 0.92463 0.87071 0.6424 0.0
C1767 C 0.90175 0.93737 0.59508 0.0
C1768 C 0.86254 0.8491 0.60202 0.0
C1769 C 0.83787 0.85504 0.61091 0.0
C1770 C 0.88724 0.86506 0.60437 0.0
C1771 C 0.88699 0.88799 0.61554 0.0
C1772 C 0.86185 0.89464 0.62414 0.0
C1773 C 0.83768 0.87781 0.62191 0.0
C1774 C 0.91383 0.85686 0.59527 0.0
C1775 C 0.86056 0.91938 0.63583 0.0
H1776 H 0.97061 0.90431 0.6443 0.0
H1777 H 0.95257 0.95915 0.60368 0.0
H1778 H 0.90408 0.87405 0.64867 0.0
H1779 H 0.92247 0.85143 0.63474 0.0
H1780 H 0.94113 0.86681 0.65183 0.0
H1781 H 0.90992 0.95672 0.58897 0.0
H1782 H 0.89947 0.92046 0.58576 0.0
H1783 H 0.8803 0.94187 0.59996 0.0
H1784 H 0.86279 0.83138 0.59359 0.0
H1785 H 0.81854 0.88261 0.62867 0.0
H1786 H 0.93068 0.85119 0.60415 0.0
H1787 H 0.92172 0.87502 0.58798 0.0
H1788 H 0.9104 0.83864 0.5869 0.0
H1789 H 0.87498 0.91562 0.64632 0.0
H1790 H 0.83887 0.92296 0.64064 0.0
H1791 H 0.86784 0.93894 0.62961 0.0
C1792 C 0.82211 0.21006 0.38303 0.0
C1793 C 0.8006 0.21732 0.37198 0.0
C1794 C 0.83771 0.18507 0.38109 0.0
C1795 C 0.83111 0.16649 0.36804 0.0
C1796 C 0.80888 0.17331 0.3571 0.0
C1797 C 0.79413 0.19891 0.35905 0.0
C1798 C 0.86172 0.1789 0.39277 0.0
C1799 C 0.80076 0.15364 0.34331 0.0
C1800 C 0.88877 0.1163 0.35378 0.0
C1801 C 0.88231 0.09175 0.36265 0.0
C1802 C 0.87216 0.14075 0.35535 0.0
C1803 C 0.84807 0.14032 0.36567 0.0
C1804 C 0.84097 0.11529 0.37426 0.0
C1805 C 0.85845 0.0914 0.37284 0.0
C1806 C 0.88086 0.16727 0.34633 0.0
C1807 C 0.81504 0.1138 0.38503 0.0
H1808 H 0.82736 0.22438 0.39295 0.0
H1809 H 0.77739 0.20441 0.35056 0.0
H1810 H 0.85805 0.15844 0.39907 0.0
H1811 H 0.88185 0.17695 0.38586 0.0
H1812 H 0.86426 0.19567 0.40219 0.0
H1813 H 0.78193 0.16126 0.33647 0.0
H1814 H 0.81866 0.1515 0.33461 0.0
H1815 H 0.79619 0.13223 0.34821 0.0
H1816 H 0.90731 0.11665 0.34596 0.0
H1817 H 0.85327 0.07232 0.37957 0.0
H1818 H 0.88514 0.18447 0.35525 0.0
H1819 H 0.86342 0.17455 0.33829 0.0
H1820 H 0.90007 0.16402 0.33872 0.0
H1821 H 0.81734 0.1286 0.39549 0.0
H1822 H 0.81138 0.09218 0.38994 0.0
H1823 H 0.79605 0.12047 0.37803 0.0
C1824 C 0.62746 0.13378 0.1007 0.0
C1825 C 0.65173 0.12614 0.10951 0.0
C1826 C 0.6025 0.1178 0.1019 0.0
C1827 C 0.60209 0.09325 0.11184 0.0
C1828 C 0.62692 0.08477 0.1202 0.0
C1829 C 0.65135 0.10153 0.1191 0.0
C1830 C 0.57628 0.12784 0.09308 0.0
C1831 C 0.62749 0.05837 0.13061 0.0
C1832 C 0.53223 0.06988 0.13023 0.0
C1833 C 0.52376 0.04848 0.1194 0.0
C1834 C 0.55754 0.08474 0.1278 0.0
C1835 C 0.57519 0.07757 0.11442 0.0
C1836 C 0.56704 0.05563 0.10359 0.0
C1837 C 0.5412 0.04155 0.1061 0.0
C1838 C 0.56521 0.10838 0.13944 0.0
C1839 C 0.58565 0.04699 0.08942 0.0
H1840 H 0.62764 0.15286 0.09333 0.0
H1841 H 0.67019 0.09539 0.1258 0.0
H1842 H 0.56763 0.1107 0.08527 0.0
H1843 H 0.5597 0.1334 0.10216 0.0
H1844 H 0.58044 0.14665 0.08528 0.0
H1845 H 0.64913 0.05331 0.13505 0.0
H1846 H 0.61346 0.06116 0.14138 0.0
H1847 H 0.61935 0.04005 0.12354 0.0
H1848 H 0.51869 0.07551 0.14045 0.0
H1849 H 0.53479 0.02492 0.09774 0.0
H1850 H 0.56804 0.12841 0.13254 0.0
H1851 H 0.5856 0.10363 0.14557 0.0
H1852 H 0.54882 0.11174 0.149 0.0
H1853 H 0.58858 0.0651 0.08096 0.0
H1854 H 0.57666 0.02895 0.08242 0.0
H1855 H 0.60692 0.04092 0.09398 0.0
C1856 C 0.66869 0.20595 0.60658 0.0
C1857 C 0.69018 0.21315 0.61767 0.0
C1858 C 0.65313 0.18092 0.60842 0.0
C1859 C 0.65973 0.16223 0.62141 0.0
C1860 C 0.68202 0.16892 0.63235 0.0
C1861 C 0.69674 0.19456 0.63049 0.0
C1862 C 0.62907 0.1749 0.59675 0.0
C1863 C 0.69013 0.14912 0.64607 0.0
C1864 C 0.60136 0.11296 0.63572 0.0
C1865 C 0.60732 0.08834 0.6268 0.0
C1866 C 0.61841 0.1371 0.63418 0.0
C1867 C 0.64246 0.13628 0.62385 0.0
C1868 C 0.64909 0.11116 0.61521 0.0
C1869 C 0.63116 0.08759 0.6166 0.0
C1870 C 0.61022 0.16373 0.64325 0.0
C1871 C 0.67497 0.10926 0.60442 0.0
H1872 H 0.66337 0.22039 0.59674 0.0
H1873 H 0.71346 0.2 0.63901 0.0
H1874 H 0.63249 0.15434 0.59052 0.0
H1875 H 0.60892 0.17325 0.60366 0.0
H1876 H 0.62673 0.19161 0.58727 0.0
H1877 H 0.70924 0.15645 0.65277 0.0
H1878 H 0.6724 0.1473 0.65491 0.0
H1879 H 0.69424 0.12762 0.64115 0.0
H1880 H 0.58284 0.11362 0.64355 0.0
H1881 H 0.63597 0.06844 0.60984 0.0
H1882 H 0.60612 0.18101 0.63436 0.0
H1883 H 0.62783 0.17073 0.65125 0.0
H1884 H 0.59101 0.16076 0.65091 0.0
H1885 H 0.67284 0.12402 0.59394 0.0
H1886 H 0.67831 0.08756 0.59956 0.0
H1887 H 0.69407 0.11572 0.61139 0.0
C1888 C 0.53886 0.94486 0.38235 0.0
C1889 C 0.52169 0.93903 0.36876 0.0
C1890 C 0.56435 0.93016 0.38482 0.0
C1891 C 0.57239 0.90868 0.37366 0.0
C1892 C 0.55503 0.90264 0.35997 0.0
C1893 C 0.53008 0.91813 0.35758 0.0
C1894 C 0.5827 0.93764 0.39932 0.0
C1895 C 0.56257 0.8795 0.34798 0.0
C1896 C 0.64829 0.88363 0.36943 0.0
C1897 C 0.64795 0.85861 0.37865 0.0
C1898 C 0.62416 0.90081 0.3683 0.0
C1899 C 0.5989 0.89233 0.37621 0.0
C1900 C 0.59856 0.8673 0.38575 0.0
C1901 C 0.62324 0.85091 0.38703 0.0
C1902 C 0.62554 0.9277 0.35835 0.0
C1903 C 0.57186 0.85725 0.39408 0.0
H1904 H 0.53251 0.9611 0.39097 0.0
H1905 H 0.51673 0.91334 0.34715 0.0
H1906 H 0.58493 0.91903 0.40749 0.0
H1907 H 0.60425 0.94344 0.39509 0.0
H1908 H 0.5739 0.95551 0.40654 0.0
H1909 H 0.54643 0.87703 0.33819 0.0
H1910 H 0.58326 0.88416 0.34215 0.0
H1911 H 0.56476 0.85905 0.35452 0.0
H1912 H 0.66747 0.8898 0.36307 0.0
H1913 H 0.62288 0.8315 0.3941 0.0
H1914 H 0.61757 0.94582 0.36566 0.0
H1915 H 0.61175 0.92576 0.34741 0.0
H1916 H 0.6474 0.93256 0.35418 0.0
H1917 H 0.56331 0.87407 0.40216 0.0
H1918 H 0.57539 0.83789 0.40153 0.0
H1919 H 0.55546 0.85261 0.38473 0.0
C1920 C 0.79476 0.7873 0.13124 0.0
C1921 C 0.80263 0.7695 0.11829 0.0
C1922 C 0.80937 0.81271 0.13417 0.0
C1923 C 0.83281 0.81995 0.1242 0.0
C1924 C 0.841 0.80183 0.11125 0.0
C1925 C 0.82558 0.77704 0.10832 0.0
C1926 C 0.79962 0.8319 0.14783 0.0
C1927 C 0.8663 0.80843 0.10059 0.0
C1928 C 0.85996 0.89513 0.11996 0.0
C1929 C 0.88317 0.89495 0.13064 0.0
C1930 C 0.84254 0.87124 0.11833 0.0
C1931 C 0.84903 0.84638 0.12724 0.0
C1932 C 0.87226 0.84621 0.13819 0.0
C1933 C 0.88884 0.87066 0.13992 0.0
C1934 C 0.81754 0.87244 0.10684 0.0
C1935 C 0.88028 0.81989 0.14759 0.0
H1936 H 0.77694 0.78156 0.13891 0.0
H1937 H 0.83192 0.76317 0.0984 0.0
H1938 H 0.81677 0.83454 0.15698 0.0
H1939 H 0.79472 0.85321 0.14288 0.0
H1940 H 0.78054 0.82359 0.15417 0.0
H1941 H 0.87037 0.79166 0.09135 0.0
H1942 H 0.86295 0.82875 0.09408 0.0
H1943 H 0.88547 0.8109 0.1083 0.0
H1944 H 0.85534 0.91401 0.11291 0.0
H1945 H 0.90686 0.87044 0.14814 0.0
H1946 H 0.7981 0.86515 0.1132 0.0
H1947 H 0.82113 0.85801 0.09633 0.0
H1948 H 0.81383 0.8941 0.10202 0.0
H1949 H 0.86196 0.81208 0.15478 0.0
H1950 H 0.89828 0.82358 0.15607 0.0
H1951 H 0.88625 0.80287 0.13888 0.0
C1952 C 0.96672 0.07116 0.8864 0.0
C1953 C 0.96769 0.04866 0.87526 0.0
C1954 C 0.94206 0.08739 0.88824 0.0
C1955 C 0.91757 0.08017 0.87916 0.0
C1956 C 0.91806 0.05647 0.86855 0.0
C1957 C 0.94336 0.04135 0.86645 0.0
C1958 C 0.9427 0.11309 0.89923 0.0
C1959 C 0.89208 0.04748 0.85913 0.0
C1960 C 0.84785 0.11249 0.89296 0.0
C1961 C 0.84387 0.1335 0.8811 0.0
C1962 C 0.87148 0.0945 0.89231 0.0
C1963 C 0.89206 0.09853 0.87991 0.0
C1964 C 0.88836 0.12025 0.86815 0.0
C1965 C 0.86396 0.13709 0.86869 0.0
C1966 C 0.87417 0.0709 0.90467 0.0
C1967 C 0.91029 0.1259 0.85509 0.0
H1968 H 0.98571 0.07697 0.89306 0.0
H1969 H 0.94417 0.02382 0.85789 0.0
H1970 H 0.93923 0.13243 0.89178 0.0
H1971 H 0.92538 0.11203 0.90836 0.0
H1972 H 0.96314 0.11525 0.90583 0.0
H1973 H 0.89506 0.02676 0.85294 0.0
H1974 H 0.87358 0.04597 0.86746 0.0
H1975 H 0.88699 0.06357 0.84969 0.0
H1976 H 0.83207 0.10965 0.90246 0.0
H1977 H 0.86085 0.15355 0.85961 0.0
H1978 H 0.89378 0.07363 0.91196 0.0
H1979 H 0.87586 0.05028 0.89825 0.0
H1980 H 0.85585 0.07007 0.91319 0.0
H1981 H 0.93127 0.12948 0.86084 0.0
H1982 H 0.90493 0.14461 0.84747 0.0
H1983 H 0.91231 0.10724 0.84695 0.0
C1984 C 0.79393 0.69689 0.62861 0.0
C1985 C 0.80085 0.71534 0.61579 0.0
C1986 C 0.80891 0.67151 0.63088 0.0
C1987 C 0.8318 0.66494 0.62035 0.0
C1988 C 0.83883 0.68352 0.60738 0.0
C1989 C 0.82302 0.70831 0.60513 0.0
C1990 C 0.80036 0.65183 0.64457 0.0
C1991 C 0.86351 0.67761 0.59613 0.0
C1992 C 0.88927 0.61566 0.63585 0.0
C1993 C 0.88354 0.59087 0.62703 0.0
C1994 C 0.87251 0.6399 0.63383 0.0
C1995 C 0.849 0.63904 0.62309 0.0
C1996 C 0.84266 0.6138 0.6145 0.0
C1997 C 0.86028 0.59012 0.61639 0.0
C1998 C 0.88038 0.66664 0.64288 0.0
C1999 C 0.81736 0.61187 0.60326 0.0
H2000 H 0.77669 0.7022 0.63681 0.0
H2001 H 0.82862 0.72265 0.59528 0.0
H2002 H 0.79638 0.6303 0.63966 0.0
H2003 H 0.81781 0.65005 0.65359 0.0
H2004 H 0.78105 0.65921 0.65106 0.0
H2005 H 0.86626 0.6943 0.58668 0.0
H2006 H 0.88331 0.67607 0.60338 0.0
H2007 H 0.86051 0.65701 0.58986 0.0
H2008 H 0.90735 0.61634 0.64401 0.0
H2009 H 0.85564 0.57086 0.60969 0.0
H2010 H 0.86246 0.67375 0.65062 0.0
H2011 H 0.88485 0.68381 0.63398 0.0
H2012 H 0.89927 0.66375 0.65081 0.0
H2013 H 0.79789 0.61825 0.60991 0.0
H2014 H 0.81431 0.59018 0.59832 0.0
H2015 H 0.81998 0.62668 0.59284 0.0
C2016 C 0.65029 0.61002 0.86832 0.0
C2017 C 0.64952 0.63416 0.87827 0.0
C2018 C 0.62676 0.59199 0.86714 0.0
C2019 C 0.60165 0.5988 0.87574 0.0
C2020 C 0.60084 0.62309 0.88588 0.0
C2021 C 0.62495 0.64027 0.88721 0.0
C2022 C 0.62866 0.56588 0.85654 0.0
C2023 C 0.57423 0.63146 0.89491 0.0
C2024 C 0.53243 0.57192 0.85819 0.0
C2025 C 0.5253 0.55032 0.86922 0.0
C2026 C 0.55718 0.58785 0.86022 0.0
C2027 C 0.57567 0.58154 0.87335 0.0
C2028 C 0.56899 0.55927 0.8843 0.0
C2029 C 0.54361 0.54416 0.88224 0.0
C2030 C 0.5632 0.61188 0.84852 0.0
C2031 C 0.58858 0.55148 0.89818 0.0
H2032 H 0.6694 0.60508 0.86154 0.0
H2033 H 0.62427 0.65901 0.89485 0.0
H2034 H 0.62202 0.54695 0.86361 0.0
H2035 H 0.61403 0.56789 0.84598 0.0
H2036 H 0.65039 0.56234 0.85178 0.0
H2037 H 0.57729 0.65065 0.90257 0.0
H2038 H 0.55702 0.63566 0.88599 0.0
H2039 H 0.56706 0.6139 0.90291 0.0
H2040 H 0.51819 0.57695 0.8482 0.0
H2041 H 0.53822 0.52737 0.89073 0.0
H2042 H 0.58371 0.60835 0.84225 0.0
H2043 H 0.56497 0.63205 0.85541 0.0
H2044 H 0.54644 0.61425 0.83908 0.0
H2045 H 0.61008 0.54703 0.89336 0.0
H2046 H 0.58104 0.53267 0.90508 0.0
H2047 H 0.59051 0.56949 0.90682 0.0
C2048 C 0.62551 0.3873 0.13774 0.0
C2049 C 0.60532 0.39134 0.12542 0.0
C2050 C 0.6432 0.36343 0.13763 0.0
C2051 C 0.63968 0.34268 0.12527 0.0
C2052 C 0.61876 0.34643 0.11304 0.0
C2053 C 0.60221 0.37105 0.11307 0.0
C2054 C 0.66596 0.36067 0.15049 0.0
C2055 C 0.61367 0.32435 0.09999 0.0
C2056 C 0.69716 0.29082 0.1131 0.0
C2057 C 0.6891 0.26663 0.12182 0.0
C2058 C 0.68218 0.31627 0.11485 0.0
C2059 C 0.65787 0.31705 0.12499 0.0
C2060 C 0.64992 0.2927 0.134 0.0
C2061 C 0.66601 0.26788 0.13254 0.0
C2062 C 0.69193 0.34208 0.10553 0.0
C2063 C 0.62359 0.29237 0.14448 0.0
H2064 H 0.62799 0.40322 0.14719 0.0
H2065 H 0.58639 0.37419 0.10363 0.0
H2066 H 0.66267 0.34112 0.15776 0.0
H2067 H 0.68698 0.35882 0.14451 0.0
H2068 H 0.66637 0.37903 0.15899 0.0
H2069 H 0.59545 0.32974 0.09199 0.0
H2070 H 0.63278 0.32207 0.09222 0.0
H2071 H 0.6096 0.30348 0.10577 0.0
H2072 H 0.71513 0.28977 0.10487 0.0
H2073 H 0.65965 0.24898 0.13911 0.0
H2074 H 0.69305 0.36066 0.11382 0.0
H2075 H 0.67649 0.34717 0.09575 0.0
H2076 H 0.71302 0.33889 0.0998 0.0
H2077 H 0.62417 0.30986 0.15352 0.0
H2078 H 0.62095 0.27207 0.15117 0.0
H2079 H 0.60471 0.29578 0.13664 0.0
C2080 C 0.83845 0.38095 0.36775 0.0
C2081 C 0.83802 0.35748 0.37823 0.0
C2082 C 0.8626 0.39813 0.36653 0.0
C2083 C 0.88711 0.39111 0.37563 0.0
C2084 C 0.88675 0.36741 0.38624 0.0
C2085 C 0.86205 0.35112 0.38758 0.0
C2086 C 0.86196 0.42364 0.35541 0.0
C2087 C 0.91271 0.35878 0.39581 0.0
C2088 C 0.95776 0.41562 0.35884 0.0
C2089 C 0.96475 0.43765 0.3696 0.0
C2090 C 0.93262 0.40024 0.36074 0.0
C2091 C 0.91361 0.40761 0.37343 0.0
C2092 C 0.92024 0.43026 0.38413 0.0
C2093 C 0.94599 0.44477 0.38224 0.0
C2094 C 0.92669 0.37576 0.34935 0.0
C2095 C 0.90012 0.43915 0.39754 0.0
H2096 H 0.81977 0.38607 0.36063 0.0
H2097 H 0.86182 0.33286 0.39563 0.0
H2098 H 0.8686 0.44281 0.36225 0.0
H2099 H 0.87718 0.42072 0.3452 0.0
H2100 H 0.84062 0.4274 0.35014 0.0
H2101 H 0.90881 0.34 0.40367 0.0
H2102 H 0.93024 0.35382 0.38724 0.0
H2103 H 0.9199 0.37649 0.40369 0.0
H2104 H 0.97237 0.40986 0.34915 0.0
H2105 H 0.95129 0.46191 0.39051 0.0
H2106 H 0.90664 0.37943 0.34262 0.0
H2107 H 0.92403 0.35601 0.35654 0.0
H2108 H 0.94392 0.37249 0.34028 0.0
H2109 H 0.87903 0.44398 0.39226 0.0
H2110 H 0.9078 0.45804 0.40431 0.0
H2111 H 0.89722 0.42157 0.40637 0.0
C2112 C 0.86301 0.39703 0.85521 0.0
C2113 C 0.88709 0.40065 0.86496 0.0
C2114 C 0.84579 0.37304 0.85699 0.0
C2115 C 0.85364 0.35169 0.86829 0.0
C2116 C 0.87818 0.35522 0.87805 0.0
C2117 C 0.8943 0.38001 0.87651 0.0
C2118 C 0.81923 0.37053 0.84682 0.0
C2119 C 0.88783 0.33249 0.88979 0.0
C2120 C 0.80096 0.29663 0.88318 0.0
C2121 C 0.80637 0.27418 0.87243 0.0
C2122 C 0.81553 0.32239 0.88163 0.0
C2123 C 0.83677 0.32522 0.86949 0.0
C2124 C 0.84238 0.30247 0.85869 0.0
C2125 C 0.8267 0.27739 0.8601 0.0
C2126 C 0.80824 0.34654 0.89297 0.0
C2127 C 0.8655 0.30429 0.84595 0.0
H2128 H 0.85741 0.41324 0.84639 0.0
H2129 H 0.9131 0.38289 0.88394 0.0
H2130 H 0.82108 0.35239 0.83828 0.0
H2131 H 0.80075 0.36637 0.85485 0.0
H2132 H 0.81501 0.38995 0.83955 0.0
H2133 H 0.90768 0.33833 0.89624 0.0
H2134 H 0.87119 0.32835 0.89905 0.0
H2135 H 0.8914 0.31243 0.88303 0.0
H2136 H 0.78511 0.29411 0.89267 0.0
H2137 H 0.8311 0.25986 0.85192 0.0
H2138 H 0.80338 0.36583 0.88575 0.0
H2139 H 0.82662 0.35155 0.9009 0.0
H2140 H 0.78981 0.3416 0.90093 0.0
H2141 H 0.8612 0.32197 0.83739 0.0
H2142 H 0.86756 0.28446 0.83874 0.0
H2143 H 0.88606 0.30877 0.85199 0.0
C2144 C 0.94683 0.54251 0.10773 0.0
C2145 C 0.96408 0.54946 0.1211 0.0
C2146 C 0.92137 0.55706 0.10488 0.0
C2147 C 0.91349 0.57955 0.1154 0.0
C2148 C 0.93093 0.58669 0.12887 0.0
C2149 C 0.95581 0.57133 0.13167 0.0
C2150 C 0.90294 0.54842 0.09063 0.0
C2151 C 0.9236 0.61095 0.14015 0.0
C2152 C 0.8638 0.63662 0.09988 0.0
C2153 C 0.8388 0.63015 0.10832 0.0
C2154 C 0.8882 0.62008 0.10189 0.0
C2155 C 0.8873 0.59607 0.11225 0.0
C2156 C 0.86179 0.58885 0.12033 0.0
C2157 C 0.83794 0.60623 0.11846 0.0
C2158 C 0.91518 0.62886 0.09337 0.0
C2159 C 0.85983 0.56301 0.13115 0.0
H2160 H 0.9531 0.52551 0.09959 0.0
H2161 H 0.96922 0.57696 0.14194 0.0
H2162 H 0.88126 0.54349 0.09501 0.0
H2163 H 0.90111 0.56617 0.08181 0.0
H2164 H 0.91143 0.52966 0.08407 0.0
H2165 H 0.93966 0.61403 0.14992 0.0
H2166 H 0.9218 0.63084 0.133 0.0
H2167 H 0.90277 0.60712 0.14601 0.0
H2168 H 0.86456 0.65519 0.0921 0.0
H2169 H 0.81852 0.601 0.12486 0.0
H2170 H 0.92337 0.61122 0.08577 0.0
H2171 H 0.93164 0.63385 0.10263 0.0
H2172 H 0.91215 0.64767 0.08541 0.0
H2173 H 0.86743 0.54406 0.12444 0.0
H2174 H 0.83788 0.55903 0.13545 0.0
H2175 H 0.87366 0.56572 0.14201 0.0
C2176 C 0.59895 0.61039 0.37054 0.0
C2177 C 0.60378 0.59157 0.35761 0.0
C2178 C 0.61515 0.63511 0.37215 0.0
C2179 C 0.63742 0.64043 0.36094 0.0
C2180 C 0.64289 0.62096 0.34814 0.0
C2181 C 0.62557 0.59702 0.34643 0.0
C2182 C 0.60803 0.65584 0.38561 0.0
C2183 C 0.66708 0.62536 0.33633 0.0
C2184 C 0.66248 0.71615 0.35545 0.0
C2185 C 0.68489 0.71747 0.36664 0.0
C2186 C 0.64681 0.69117 0.35347 0.0
C2187 C 0.65454 0.66669 0.36243 0.0
C2188 C 0.67799 0.66764 0.37322 0.0
C2189 C 0.69252 0.69326 0.37547 0.0
C2190 C 0.62136 0.69129 0.34229 0.0
C2191 C 0.68753 0.64172 0.3825 0.0
H2192 H 0.58191 0.60618 0.3791 0.0
H2193 H 0.62939 0.58223 0.33651 0.0
H2194 H 0.62639 0.65847 0.39392 0.0
H2195 H 0.60335 0.6769 0.38025 0.0
H2196 H 0.5895 0.64895 0.39298 0.0
H2197 H 0.66957 0.60733 0.32772 0.0
H2198 H 0.66359 0.6449 0.3291 0.0
H2199 H 0.68716 0.62817 0.34319 0.0
H2200 H 0.65641 0.73504 0.34879 0.0
H2201 H 0.70997 0.69435 0.38407 0.0
H2202 H 0.60206 0.68598 0.3494 0.0
H2203 H 0.62373 0.67492 0.33266 0.0
H2204 H 0.61815 0.71212 0.33627 0.0
H2205 H 0.67104 0.63538 0.39144 0.0
H2206 H 0.70763 0.64537 0.38923 0.0
H2207 H 0.69052 0.62373 0.37394 0.0
C2208 C 0.62595 0.34602 0.60418 0.0
C2209 C 0.65019 0.35255 0.61331 0.0
C2210 C 0.60111 0.362 0.60585 0.0
C2211 C 0.60081 0.38556 0.61656 0.0
C2212 C 0.62548 0.39269 0.62549 0.0
C2213 C 0.64978 0.37582 0.62395 0.0
C2214 C 0.575 0.35325 0.59646 0.0
C2215 C 0.62617 0.41807 0.63672 0.0
C2216 C 0.54174 0.43906 0.61023 0.0
C2217 C 0.52311 0.43186 0.62292 0.0
C2218 C 0.56751 0.42464 0.60825 0.0
C2219 C 0.5743 0.40199 0.61891 0.0
C2220 C 0.55544 0.39455 0.63167 0.0
C2221 C 0.53027 0.40985 0.63366 0.0
C2222 C 0.58746 0.43362 0.59478 0.0
C2223 C 0.56155 0.37006 0.64301 0.0
H2224 H 0.62618 0.32792 0.59602 0.0
H2225 H 0.66861 0.38106 0.6309 0.0
H2226 H 0.55761 0.34834 0.60514 0.0
H2227 H 0.56767 0.37089 0.58858 0.0
H2228 H 0.57878 0.33441 0.58863 0.0
H2229 H 0.64754 0.42179 0.64196 0.0
H2230 H 0.6195 0.43731 0.62995 0.0
H2231 H 0.61099 0.41505 0.64693 0.0
H2232 H 0.53632 0.45619 0.60199 0.0
H2233 H 0.51577 0.40404 0.64339 0.0
H2234 H 0.59025 0.41609 0.58589 0.0
H2235 H 0.60862 0.43843 0.59997 0.0
H2236 H 0.57971 0.45255 0.58808 0.0
H2237 H 0.5641 0.35032 0.6358 0.0
H2238 H 0.54447 0.36678 0.65217 0.0
H2239 H 0.58172 0.37373 0.64963 0.0
C2240 C 0.09899 0.37653 0.3539 0.0
C2241 C 0.10522 0.40096 0.36293 0.0
C2242 C 0.11548 0.35201 0.35555 0.0
C2243 C 0.13922 0.35226 0.36613 0.0
C2244 C 0.14616 0.37721 0.37485 0.0
C2245 C 0.1288 0.40115 0.37334 0.0
C2246 C 0.10696 0.3256 0.34638 0.0
C2247 C 0.17174 0.3785 0.38591 0.0
C2248 C 0.164 0.28249 0.38398 0.0
C2249 C 0.18598 0.27506 0.37329 0.0
C2250 C 0.14858 0.3075 0.38173 0.0
C2251 C 0.15584 0.32594 0.36874 0.0
C2252 C 0.1785 0.31892 0.35813 0.0
C2253 C 0.19306 0.2933 0.36039 0.0
C2254 C 0.12411 0.31389 0.39306 0.0
C2255 C 0.18731 0.33844 0.34441 0.0
H2256 H 0.08067 0.37629 0.34591 0.0
H2257 H 0.13382 0.42015 0.38019 0.0
H2258 H 0.12472 0.31811 0.33863 0.0
H2259 H 0.10203 0.30845 0.35521 0.0
H2260 H 0.08818 0.32906 0.33845 0.0
H2261 H 0.17547 0.40012 0.39079 0.0
H2262 H 0.1689 0.36382 0.39638 0.0
H2263 H 0.19089 0.37155 0.37915 0.0
H2264 H 0.15827 0.26829 0.39388 0.0
H2265 H 0.21016 0.28767 0.35217 0.0
H2266 H 0.10432 0.31609 0.38585 0.0
H2267 H 0.12772 0.33428 0.39944 0.0
H2268 H 0.12096 0.29711 0.40241 0.0
H2269 H 0.16973 0.34078 0.33552 0.0
H2270 H 0.20627 0.33058 0.33779 0.0
H2271 H 0.19197 0.35982 0.34935 0.0
C2272 C 0.35782 0.34556 0.12488 0.0
C2273 C 0.3377 0.35093 0.1127 0.0
C2274 C 0.38272 0.36168 0.12584 0.0
C2275 C 0.3869 0.38438 0.11476 0.0
C2276 C 0.36605 0.39049 0.10282 0.0
C2277 C 0.34194 0.37326 0.10171 0.0
C2278 C 0.40491 0.35386 0.13835 0.0
C2279 C 0.36924 0.41513 0.09119 0.0
C2280 C 0.4425 0.43849 0.12702 0.0
C2281 C 0.4651 0.43089 0.11684 0.0
C2282 C 0.41651 0.42416 0.12608 0.0
C2283 C 0.41363 0.40095 0.11523 0.0
C2284 C 0.43654 0.39313 0.10501 0.0
C2285 C 0.46184 0.40858 0.10572 0.0
C2286 C 0.3922 0.4338 0.1367 0.0
C2287 C 0.43466 0.36791 0.09369 0.0
H2288 H 0.35452 0.32812 0.13329 0.0
H2289 H 0.32614 0.3775 0.09239 0.0
H2290 H 0.42509 0.34869 0.13206 0.0
H2291 H 0.40913 0.37204 0.14657 0.0
H2292 H 0.3985 0.33543 0.14593 0.0
H2293 H 0.35004 0.41843 0.08358 0.0
H2294 H 0.37362 0.43482 0.09816 0.0
H2295 H 0.38751 0.41149 0.08293 0.0
H2296 H 0.44509 0.45585 0.13558 0.0
H2297 H 0.47951 0.40252 0.09801 0.0
H2298 H 0.38667 0.41701 0.14563 0.0
H2299 H 0.37318 0.43764 0.12905 0.0
H2300 H 0.39726 0.45346 0.14356 0.0
H2301 H 0.42961 0.34861 0.10086 0.0
H2302 H 0.45466 0.36425 0.08686 0.0
H2303 H 0.41731 0.37098 0.08473 0.0
C2304 C 0.29853 0.6953 0.85977 0.0
C2305 C 0.30581 0.71367 0.87257 0.0
C2306 C 0.31287 0.66953 0.85761 0.0
C2307 C 0.3355 0.66246 0.86823 0.0
C2308 C 0.34298 0.68103 0.88111 0.0
C2309 C 0.3278 0.70621 0.88326 0.0
C2310 C 0.30384 0.64988 0.844 0.0
C2311 C 0.36742 0.67459 0.89244 0.0
C2312 C 0.36189 0.58706 0.87309 0.0
C2313 C 0.38541 0.58692 0.86264 0.0
C2314 C 0.34476 0.61119 0.87455 0.0
C2315 C 0.35188 0.63597 0.86572 0.0
C2316 C 0.37558 0.63588 0.8551 0.0
C2317 C 0.39183 0.6112 0.85352 0.0
C2318 C 0.31922 0.61026 0.88565 0.0
C2319 C 0.38429 0.66211 0.84581 0.0
H2320 H 0.28142 0.70094 0.85155 0.0
H2321 H 0.33367 0.72049 0.89308 0.0
H2322 H 0.32138 0.64723 0.83511 0.0
H2323 H 0.29897 0.62864 0.84906 0.0
H2324 H 0.28495 0.65783 0.83735 0.0
H2325 H 0.37075 0.69147 0.90171 0.0
H2326 H 0.36365 0.65432 0.89892 0.0
H2327 H 0.38717 0.6721 0.88523 0.0
H2328 H 0.35672 0.56819 0.88003 0.0
H2329 H 0.41012 0.61119 0.8455 0.0
H2330 H 0.30009 0.61725 0.87889 0.0
H2331 H 0.32222 0.62507 0.89605 0.0
H2332 H 0.31535 0.58875 0.89066 0.0
H2333 H 0.36658 0.66964 0.83804 0.0
H2334 H 0.40303 0.65839 0.83788 0.0
H2335 H 0.38937 0.67933 0.85457 0.0
C2336 C 0.03209 0.57569 0.63261 0.0
C2337 C 0.02463 0.55346 0.6221 0.0
C2338 C 0.05729 0.59083 0.63034 0.0
C2339 C 0.07587 0.58305 0.61751 0.0
C2340 C 0.0688 0.56015 0.6071 0.0
C2341 C 0.04302 0.54586 0.60937 0.0
C2342 C 0.06373 0.61555 0.64146 0.0
C2343 C 0.08845 0.55079 0.59356 0.0
C2344 C 0.12733 0.63886 0.6023 0.0
C2345 C 0.15162 0.63258 0.61146 0.0
C2346 C 0.10258 0.62275 0.60405 0.0
C2347 C 0.1024 0.59934 0.61487 0.0
C2348 C 0.12718 0.59235 0.62374 0.0
C2349 C 0.15139 0.60932 0.62211 0.0
C2350 C 0.07637 0.6313 0.5947 0.0
C2351 C 0.12802 0.56711 0.63507 0.0
H2352 H 0.01779 0.58181 0.64238 0.0
H2353 H 0.03737 0.52857 0.60128 0.0
H2354 H 0.08401 0.61195 0.64797 0.0
H2355 H 0.06621 0.63512 0.63408 0.0
H2356 H 0.04685 0.6191 0.65071 0.0
H2357 H 0.0805 0.53172 0.58707 0.0
H2358 H 0.0911 0.56809 0.58452 0.0
H2359 H 0.1097 0.54605 0.59865 0.0
H2360 H 0.12741 0.65694 0.59413 0.0
H2361 H 0.17025 0.60426 0.62907 0.0
H2362 H 0.05917 0.63665 0.60342 0.0
H2363 H 0.06878 0.61342 0.58708 0.0
H2364 H 0.08014 0.64983 0.58661 0.0
H2365 H 0.1132 0.57042 0.64543 0.0
H2366 H 0.14952 0.56332 0.64012 0.0
H2367 H 0.12098 0.54782 0.62848 0.0
C2368 C 0.09877 0.61034 0.13778 0.0
C2369 C 0.10501 0.58538 0.12924 0.0
C2370 C 0.11574 0.63449 0.13601 0.0
C2371 C 0.13997 0.63338 0.12583 0.0
C2372 C 0.14686 0.60795 0.11758 0.0
C2373 C 0.12903 0.58434 0.11919 0.0
C2374 C 0.10728 0.66143 0.14468 0.0
C2375 C 0.17291 0.60575 0.10695 0.0
C2376 C 0.16666 0.70236 0.10786 0.0
C2377 C 0.18804 0.70987 0.11895 0.0
C2378 C 0.15094 0.67748 0.10995 0.0
C2379 C 0.15726 0.65926 0.12321 0.0
C2380 C 0.1794 0.66628 0.13417 0.0
C2381 C 0.19429 0.69175 0.13205 0.0
C2382 C 0.12706 0.6711 0.09822 0.0
C2383 C 0.18719 0.647 0.1482 0.0
H2384 H 0.0801 0.61123 0.14549 0.0
H2385 H 0.13406 0.56496 0.11272 0.0
H2386 H 0.12472 0.6688 0.1527 0.0
H2387 H 0.1033 0.67835 0.13555 0.0
H2388 H 0.08795 0.65869 0.15226 0.0
H2389 H 0.17637 0.58391 0.10233 0.0
H2390 H 0.17093 0.62018 0.0963 0.0
H2391 H 0.19189 0.61246 0.11395 0.0
H2392 H 0.16157 0.71644 0.0978 0.0
H2393 H 0.21093 0.69742 0.14058 0.0
H2394 H 0.1068 0.66968 0.10504 0.0
H2395 H 0.13057 0.65033 0.09224 0.0
H2396 H 0.12488 0.68749 0.08855 0.0
H2397 H 0.16922 0.64542 0.1569 0.0
H2398 H 0.20609 0.65461 0.15498 0.0
H2399 H 0.19149 0.62535 0.14357 0.0
C2400 C 0.15119 0.37761 0.86438 0.0
C2401 C 0.15039 0.35475 0.87531 0.0
C2402 C 0.12774 0.39557 0.86253 0.0
C2403 C 0.10271 0.39003 0.87151 0.0
C2404 C 0.10176 0.36684 0.88248 0.0
C2405 C 0.12575 0.34971 0.88441 0.0
C2406 C 0.12976 0.4205 0.85102 0.0
C2407 C 0.07524 0.35985 0.89198 0.0
C2408 C 0.04665 0.44639 0.87831 0.0
C2409 C 0.02686 0.43958 0.86614 0.0
C2410 C 0.07198 0.43108 0.87982 0.0
C2411 C 0.07722 0.408 0.86919 0.0
C2412 C 0.05745 0.40127 0.85676 0.0
C2413 C 0.03267 0.41737 0.85526 0.0
C2414 C 0.09291 0.43931 0.89295 0.0
C2415 C 0.06199 0.37644 0.84542 0.0
H2416 H 0.17031 0.38172 0.85744 0.0
H2417 H 0.12501 0.33193 0.89279 0.0
H2418 H 0.11406 0.41822 0.84101 0.0
H2419 H 0.12463 0.44033 0.85766 0.0
H2420 H 0.15114 0.42261 0.84551 0.0
H2421 H 0.07788 0.34086 0.89985 0.0
H2422 H 0.06918 0.37799 0.89986 0.0
H2423 H 0.05745 0.35602 0.88339 0.0
H2424 H 0.04231 0.46367 0.88667 0.0
H2425 H 0.01733 0.41189 0.84591 0.0
H2426 H 0.11424 0.44228 0.88753 0.0
H2427 H 0.09458 0.42211 0.90214 0.0
H2428 H 0.08671 0.4591 0.89936 0.0
H2429 H 0.08246 0.37862 0.8389 0.0
H2430 H 0.04484 0.37438 0.83619 0.0
H2431 H 0.063 0.35658 0.85265 0.0
C2432 C 0.2933 0.28893 0.63332 0.0
C2433 C 0.29968 0.27058 0.62035 0.0
C2434 C 0.30813 0.31448 0.6353 0.0
C2435 C 0.33038 0.32129 0.62436 0.0
C2436 C 0.3369 0.30276 0.61128 0.0
C2437 C 0.3212 0.27783 0.6093 0.0
C2438 C 0.30009 0.33412 0.64912 0.0
C2439 C 0.36093 0.30889 0.5996 0.0
C2440 C 0.35812 0.39623 0.61949 0.0
C2441 C 0.38203 0.39576 0.62964 0.0
C2442 C 0.34046 0.37246 0.61814 0.0
C2443 C 0.34743 0.3474 0.62675 0.0
C2444 C 0.37155 0.34685 0.63703 0.0
C2445 C 0.38833 0.3712 0.63854 0.0
C2446 C 0.31449 0.37407 0.60741 0.0
C2447 C 0.38012 0.32031 0.64605 0.0
H2448 H 0.27656 0.28343 0.64182 0.0
H2449 H 0.32638 0.26355 0.59935 0.0
H2450 H 0.318 0.33617 0.65782 0.0
H2451 H 0.29559 0.35557 0.64425 0.0
H2452 H 0.28124 0.32652 0.65596 0.0
H2453 H 0.36344 0.29212 0.59017 0.0
H2454 H 0.35731 0.32936 0.5933 0.0
H2455 H 0.38106 0.3108 0.60651 0.0
H2456 H 0.35306 0.41532 0.61274 0.0
H2457 H 0.40691 0.37076 0.64633 0.0
H2458 H 0.29551 0.3674 0.61442 0.0
H2459 H 0.31672 0.35934 0.59691 0.0
H2460 H 0.31088 0.39573 0.60256 0.0
H2461 H 0.36264 0.31307 0.65408 0.0
H2462 H 0.39933 0.32349 0.65368 0.0
H2463 H 0.38437 0.3031 0.63714 0.0
C2464 C 0.44457 0.54506 0.37308 0.0
C2465 C 0.46362 0.55272 0.36069 0.0
C2466 C 0.41918 0.55999 0.37533 0.0
C2467 C 0.41314 0.58358 0.36523 0.0
C2468 C 0.43216 0.59118 0.35258 0.0
C2469 C 0.45701 0.57542 0.35032 0.0
C2470 C 0.39905 0.55079 0.38867 0.0
C2471 C 0.42675 0.61656 0.34178 0.0
C2472 C 0.33847 0.61296 0.36234 0.0
C2473 C 0.33946 0.63519 0.37371 0.0
C2474 C 0.36211 0.59556 0.35971 0.0
C2475 C 0.38753 0.60104 0.36832 0.0
C2476 C 0.38867 0.62358 0.37973 0.0
C2477 C 0.36449 0.64014 0.38245 0.0
C2478 C 0.35988 0.57128 0.34776 0.0
C2479 C 0.41558 0.6305 0.38888 0.0
H2480 H 0.44952 0.52738 0.38104 0.0
H2481 H 0.4718 0.58155 0.34081 0.0
H2482 H 0.39764 0.56749 0.39818 0.0
H2483 H 0.37749 0.54782 0.38358 0.0
H2484 H 0.40583 0.53077 0.39462 0.0
H2485 H 0.44341 0.61934 0.33231 0.0
H2486 H 0.40599 0.61446 0.33558 0.0
H2487 H 0.42587 0.63599 0.3494 0.0
H2488 H 0.31906 0.60892 0.35567 0.0
H2489 H 0.36538 0.65744 0.39116 0.0
H2490 H 0.36565 0.55116 0.35392 0.0
H2491 H 0.37501 0.57438 0.33753 0.0
H2492 H 0.33825 0.56913 0.34258 0.0
H2493 H 0.42233 0.61205 0.39631 0.0
H2494 H 0.41307 0.64902 0.39713 0.0
H2495 H 0.43284 0.63506 0.38005 0.0
loop_
_geom_bond_atom_site_label_1
_geom_bond_atom_site_label_2
_geom_bond_distance
_geom_bond_site_symmetry_2
_ccdc_geom_bond_type
C0 O1 1.306 . S
C0 O3 1.160 . S
O1 C0 1.306 . S
O1 Cd2 2.228 . S
Cd2 O1 2.228 . S
Cd2 O6 2.273 . S
Cd2 O10 2.277 . S
O3 C0 1.160 . S
O3 Cd4 2.203 . S
Cd4 O3 2.203 . S
Cd4 O6 2.411 . S
Cd4 O7 2.333 . S
Cd4 O8 2.352 . S
Cd4 O12 2.277 . S
Cd4 O13 2.356 . S
C5 O10 1.209 . S
C5 O12 1.226 . S
O6 Cd2 2.273 . S
O6 Cd4 2.411 . S
O6 C9 1.320 . S
O7 Cd4 2.333 . S
O7 C9 1.214 . S
O8 Cd4 2.352 . S
O8 C11 1.258 . S
C9 O6 1.320 . S
C9 O7 1.214 . S
O10 Cd2 2.277 . S
O10 C5 1.209 . S
C11 O8 1.258 . S
C11 O13 1.282 . S
O12 Cd4 2.277 . S
O12 C5 1.226 . S
O13 Cd4 2.356 . S
O13 C11 1.282 . S
C14 O15 1.306 . S
C14 O17 1.160 . S
O15 C14 1.306 . S
O15 Cd16 2.228 . S
Cd16 O15 2.228 . S
Cd16 O20 2.273 . S
Cd16 O24 2.277 . S
O17 C14 1.160 . S
O17 Cd18 2.203 . S
Cd18 O17 2.203 . S
Cd18 O20 2.411 . S
Cd18 O21 2.333 . S
Cd18 O22 2.352 . S
Cd18 O26 2.277 . S
Cd18 O27 2.356 . S
C19 O24 1.209 . S
C19 O26 1.226 . S
O20 Cd16 2.273 . S
O20 Cd18 2.411 . S
O20 C23 1.320 . S
O21 Cd18 2.333 . S
O21 C23 1.214 . S
O22 Cd18 2.352 . S
O22 C25 1.258 . S
C23 O20 1.320 . S
C23 O21 1.214 . S
O24 Cd16 2.277 . S
O24 C19 1.209 . S
C25 O22 1.258 . S
C25 O27 1.282 . S
O26 Cd18 2.277 . S
O26 C19 1.226 . S
O27 Cd18 2.356 . S
O27 C25 1.282 . S
C28 O29 1.306 . S
C28 O31 1.160 . S
O29 C28 1.306 . S
O29 Cd30 2.228 . S
Cd30 O29 2.228 . S
Cd30 O34 2.273 . S
Cd30 O38 2.277 . S
O31 C28 1.160 . S
O31 Cd32 2.203 . S
Cd32 O31 2.203 . S
Cd32 O34 2.411 . S
Cd32 O35 2.333 . S
Cd32 O36 2.352 . S
Cd32 O40 2.277 . S
Cd32 O41 2.356 . S
C33 O38 1.209 . S
C33 O40 1.226 . S
O34 Cd30 2.273 . S
O34 Cd32 2.411 . S
O34 C37 1.320 . S
O35 Cd32 2.333 . S
O35 C37 1.214 . S
O36 Cd32 2.352 . S
O36 C39 1.258 . S
C37 O34 1.320 . S
C37 O35 1.214 . S
O38 Cd30 2.277 . S
O38 C33 1.209 . S
C39 O36 1.258 . S
C39 O41 1.282 . S
O40 Cd32 2.277 . S
O40 C33 1.226 . S
O41 Cd32 2.356 . S
O41 C39 1.282 . S
C42 O43 1.306 . S
C42 O45 1.160 . S
O43 C42 1.306 . S
O43 Cd44 2.228 . S
Cd44 O43 2.228 . S
Cd44 O48 2.273 . S
Cd44 O52 2.277 . S
O45 C42 1.160 . S
O45 Cd46 2.203 . S
Cd46 O45 2.203 . S
Cd46 O48 2.411 . S
Cd46 O49 2.333 . S
Cd46 O50 2.352 . S
Cd46 O54 2.277 . S
Cd46 O55 2.356 . S
C47 O52 1.209 . S
C47 O54 1.226 . S
O48 Cd44 2.273 . S
O48 Cd46 2.411 . S
O48 C51 1.320 . S
O49 Cd46 2.333 . S
O49 C51 1.214 . S
O50 Cd46 2.352 . S
O50 C53 1.258 . S
C51 O48 1.320 . S
C51 O49 1.214 . S
O52 Cd44 2.277 . S
O52 C47 1.209 . S
C53 O50 1.258 . S
C53 O55 1.282 . S
O54 Cd46 2.277 . S
O54 C47 1.226 . S
O55 Cd46 2.356 . S
O55 C53 1.282 . S
C56 O57 1.306 . S
C56 O59 1.160 . S
O57 C56 1.306 . S
O57 Cd58 2.228 . S
Cd58 O57 2.228 . S
Cd58 O62 2.273 . S
Cd58 O66 2.277 . S
O59 C56 1.160 . S
O59 Cd60 2.203 . S
Cd60 O59 2.203 . S
Cd60 O62 2.411 . S
Cd60 O63 2.333 . S
Cd60 O64 2.352 . S
Cd60 O68 2.277 . S
Cd60 O69 2.356 . S
C61 O66 1.209 . S
C61 O68 1.226 . S
O62 Cd58 2.273 . S
O62 Cd60 2.411 . S
O62 C65 1.320 . S
O63 Cd60 2.333 . S
O63 C65 1.214 . S
O64 Cd60 2.352 . S
O64 C67 1.258 . S
C65 O62 1.320 . S
C65 O63 1.214 . S
O66 Cd58 2.277 . S
O66 C61 1.209 . S
C67 O64 1.258 . S
C67 O69 1.282 . S
O68 Cd60 2.277 . S
O68 C61 1.226 . S
O69 Cd60 2.356 . S
O69 C67 1.282 . S
C70 O71 1.306 . S
C70 O73 1.160 . S
O71 C70 1.306 . S
O71 Cd72 2.228 . S
Cd72 O71 2.228 . S
Cd72 O76 2.273 . S
Cd72 O80 2.277 . S
O73 C70 1.160 . S
O73 Cd74 2.203 . S
Cd74 O73 2.203 . S
Cd74 O76 2.411 . S
Cd74 O77 2.333 . S
Cd74 O78 2.352 . S
Cd74 O82 2.277 . S
Cd74 O83 2.356 . S
C75 O80 1.209 . S
C75 O82 1.226 . S
O76 Cd72 2.273 . S
O76 Cd74 2.411 . S
O76 C79 1.320 . S
O77 Cd74 2.333 . S
O77 C79 1.214 . S
O78 Cd74 2.352 . S
O78 C81 1.258 . S
C79 O76 1.320 . S
C79 O77 1.214 . S
O80 Cd72 2.277 . S
O80 C75 1.209 . S
C81 O78 1.258 . S
C81 O83 1.282 . S
O82 Cd74 2.277 . S
O82 C75 1.226 . S
O83 Cd74 2.356 . S
O83 C81 1.282 . S
C84 O85 1.306 . S
C84 O87 1.160 . S
O85 C84 1.306 . S
O85 Cd86 2.228 . S
Cd86 O85 2.228 . S
Cd86 O90 2.273 . S
Cd86 O94 2.277 . S
O87 C84 1.160 . S
O87 Cd88 2.203 . S
Cd88 O87 2.203 . S
Cd88 O90 2.411 . S
Cd88 O91 2.333 . S
Cd88 O92 2.352 . S
Cd88 O96 2.277 . S
Cd88 O97 2.356 . S
C89 O94 1.209 . S
C89 O96 1.226 . S
O90 Cd86 2.273 . S
O90 Cd88 2.411 . S
O90 C93 1.320 . S
O91 Cd88 2.333 . S
O91 C93 1.214 . S
O92 Cd88 2.352 . S
O92 C95 1.258 . S
C93 O90 1.320 . S
C93 O91 1.214 . S
O94 Cd86 2.277 . S
O94 C89 1.209 . S
C95 O92 1.258 . S
C95 O97 1.282 . S
O96 Cd88 2.277 . S
O96 C89 1.226 . S
O97 Cd88 2.356 . S
O97 C95 1.282 . S
C98 O99 1.306 . S
C98 O101 1.160 . S
O99 C98 1.306 . S
O99 Cd100 2.228 . S
Cd100 O99 2.228 . S
Cd100 O104 2.273 . S
Cd100 O108 2.277 . S
O101 C98 1.160 . S
O101 Cd102 2.203 . S
Cd102 O101 2.203 . S
Cd102 O104 2.411 . S
Cd102 O105 2.333 . S
Cd102 O106 2.352 . S
Cd102 O110 2.277 . S
Cd102 O111 2.356 . S
C103 O108 1.209 . S
C103 O110 1.226 . S
O104 Cd100 2.273 . S
O104 Cd102 2.411 . S
O104 C107 1.320 . S
O105 Cd102 2.333 . S
O105 C107 1.214 . S
O106 Cd102 2.352 . S
O106 C109 1.258 . S
C107 O104 1.320 . S
C107 O105 1.214 . S
O108 Cd100 2.277 . S
O108 C103 1.209 . S
C109 O106 1.258 . S
C109 O111 1.282 . S
O110 Cd102 2.277 . S
O110 C103 1.226 . S
O111 Cd102 2.356 . S
O111 C109 1.282 . S
C112 O113 1.306 . S
C112 O115 1.160 . S
O113 C112 1.306 . S
O113 Cd114 2.228 . S
Cd114 O113 2.228 . S
Cd114 O118 2.273 . S
Cd114 O122 2.277 . S
O115 C112 1.160 . S
O115 Cd116 2.203 . S
Cd116 O115 2.203 . S
Cd116 O118 2.411 . S
Cd116 O119 2.333 . S
Cd116 O120 2.352 . S
Cd116 O124 2.277 . S
Cd116 O125 2.356 . S
C117 O122 1.209 . S
C117 O124 1.226 . S
O118 Cd114 2.273 . S
O118 Cd116 2.411 . S
O118 C121 1.320 . S
O119 Cd116 2.333 . S
O119 C121 1.214 . S
O120 Cd116 2.352 . S
O120 C123 1.258 . S
C121 O118 1.320 . S
C121 O119 1.214 . S
O122 Cd114 2.277 . S
O122 C117 1.209 . S
C123 O120 1.258 . S
C123 O125 1.282 . S
O124 Cd116 2.277 . S
O124 C117 1.226 . S
O125 Cd116 2.356 . S
O125 C123 1.282 . S
C126 O127 1.306 . S
C126 O129 1.160 . S
O127 C126 1.306 . S
O127 Cd128 2.228 . S
Cd128 O127 2.228 . S
Cd128 O132 2.273 . S
Cd128 O136 2.277 . S
O129 C126 1.160 . S
O129 Cd130 2.203 . S
Cd130 O129 2.203 . S
Cd130 O132 2.411 . S
Cd130 O133 2.333 . S
Cd130 O134 2.352 . S
Cd130 O138 2.277 . S
Cd130 O139 2.356 . S
C131 O136 1.209 . S
C131 O138 1.226 . S
O132 Cd128 2.273 . S
O132 Cd130 2.411 . S
O132 C135 1.320 . S
O133 Cd130 2.333 . S
O133 C135 1.214 . S
O134 Cd130 2.352 . S
O134 C137 1.258 . S
C135 O132 1.320 . S
C135 O133 1.214 . S
O136 Cd128 2.277 . S
O136 C131 1.209 . S
C137 O134 1.258 . S
C137 O139 1.282 . S
O138 Cd130 2.277 . S
O138 C131 1.226 . S
O139 Cd130 2.356 . S
O139 C137 1.282 . S
C140 O141 1.306 . S
C140 O143 1.160 . S
O141 C140 1.306 . S
O141 Cd142 2.228 . S
Cd142 O141 2.228 . S
Cd142 O146 2.273 . S
Cd142 O150 2.277 . S
O143 C140 1.160 . S
O143 Cd144 2.203 . S
Cd144 O143 2.203 . S
Cd144 O146 2.411 . S
Cd144 O147 2.333 . S
Cd144 O148 2.352 . S
Cd144 O152 2.277 . S
Cd144 O153 2.356 . S
C145 O150 1.209 . S
C145 O152 1.226 . S
O146 Cd142 2.273 . S
O146 Cd144 2.411 . S
O146 C149 1.320 . S
O147 Cd144 2.333 . S
O147 C149 1.214 . S
O148 Cd144 2.352 . S
O148 C151 1.258 . S
C149 O146 1.320 . S
C149 O147 1.214 . S
O150 Cd142 2.277 . S
O150 C145 1.209 . S
C151 O148 1.258 . S
C151 O153 1.282 . S
O152 Cd144 2.277 . S
O152 C145 1.226 . S
O153 Cd144 2.356 . S
O153 C151 1.282 . S
C154 O155 1.306 . S
C154 O157 1.160 . S
O155 C154 1.306 . S
O155 Cd156 2.228 . S
Cd156 O155 2.228 . S
Cd156 O160 2.273 . S
Cd156 O164 2.277 . S
O157 C154 1.160 . S
O157 Cd158 2.203 . S
Cd158 O157 2.203 . S
Cd158 O160 2.411 . S
Cd158 O161 2.333 . S
Cd158 O162 2.352 . S
Cd158 O166 2.277 . S
Cd158 O167 2.356 . S
C159 O164 1.209 . S
C159 O166 1.226 . S
O160 Cd156 2.273 . S
O160 Cd158 2.411 . S
O160 C163 1.320 . S
O161 Cd158 2.333 . S
O161 C163 1.214 . S
O162 Cd158 2.352 . S
O162 C165 1.258 . S
C163 O160 1.320 . S
C163 O161 1.214 . S
O164 Cd156 2.277 . S
O164 C159 1.209 . S
C165 O162 1.258 . S
C165 O167 1.282 . S
O166 Cd158 2.277 . S
O166 C159 1.226 . S
O167 Cd158 2.356 . S
O167 C165 1.282 . S
C168 O169 1.306 . S
C168 O171 1.160 . S
O169 C168 1.306 . S
O169 Cd170 2.228 . S
Cd170 O169 2.228 . S
Cd170 O174 2.273 . S
Cd170 O178 2.277 . S
O171 C168 1.160 . S
O171 Cd172 2.203 . S
Cd172 O171 2.203 . S
Cd172 O174 2.411 . S
Cd172 O175 2.333 . S
Cd172 O176 2.352 . S
Cd172 O180 2.277 . S
Cd172 O181 2.356 . S
C173 O178 1.209 . S
C173 O180 1.226 . S
O174 Cd170 2.273 . S
O174 Cd172 2.411 . S
O174 C177 1.320 . S
O175 Cd172 2.333 . S
O175 C177 1.214 . S
O176 Cd172 2.352 . S
O176 C179 1.258 . S
C177 O174 1.320 . S
C177 O175 1.214 . S
O178 Cd170 2.277 . S
O178 C173 1.209 . S
C179 O176 1.258 . S
C179 O181 1.282 . S
O180 Cd172 2.277 . S
O180 C173 1.226 . S
O181 Cd172 2.356 . S
O181 C179 1.282 . S
C182 O183 1.306 . S
C182 O185 1.160 . S
O183 C182 1.306 . S
O183 Cd184 2.228 . S
Cd184 O183 2.228 . S
Cd184 O188 2.273 . S
Cd184 O192 2.277 . S
O185 C182 1.160 . S
O185 Cd186 2.203 . S
Cd186 O185 2.203 . S
Cd186 O188 2.411 . S
Cd186 O189 2.333 . S
Cd186 O190 2.352 . S
Cd186 O194 2.277 . S
Cd186 O195 2.356 . S
C187 O192 1.209 . S
C187 O194 1.226 . S
O188 Cd184 2.273 . S
O188 Cd186 2.411 . S
O188 C191 1.320 . S
O189 Cd186 2.333 . S
O189 C191 1.214 . S
O190 Cd186 2.352 . S
O190 C193 1.258 . S
C191 O188 1.320 . S
C191 O189 1.214 . S
O192 Cd184 2.277 . S
O192 C187 1.209 . S
C193 O190 1.258 . S
C193 O195 1.282 . S
O194 Cd186 2.277 . S
O194 C187 1.226 . S
O195 Cd186 2.356 . S
O195 C193 1.282 . S
C196 O197 1.306 . S
C196 O199 1.160 . S
O197 C196 1.306 . S
O197 Cd198 2.228 . S
Cd198 O197 2.228 . S
Cd198 O202 2.273 . S
Cd198 O206 2.277 . S
O199 C196 1.160 . S
O199 Cd200 2.203 . S
Cd200 O199 2.203 . S
Cd200 O202 2.411 . S
Cd200 O203 2.333 . S
Cd200 O204 2.352 . S
Cd200 O208 2.277 . S
Cd200 O209 2.356 . S
C201 O206 1.209 . S
C201 O208 1.226 . S
O202 Cd198 2.273 . S
O202 Cd200 2.411 . S
O202 C205 1.320 . S
O203 Cd200 2.333 . S
O203 C205 1.214 . S
O204 Cd200 2.352 . S
O204 C207 1.258 . S
C205 O202 1.320 . S
C205 O203 1.214 . S
O206 Cd198 2.277 . S
O206 C201 1.209 . S
C207 O204 1.258 . S
C207 O209 1.282 . S
O208 Cd200 2.277 . S
O208 C201 1.226 . S
O209 Cd200 2.356 . S
O209 C207 1.282 . S
C210 O211 1.306 . S
C210 O213 1.160 . S
O211 C210 1.306 . S
O211 Cd212 2.228 . S
Cd212 O211 2.228 . S
Cd212 O216 2.273 . S
Cd212 O220 2.277 . S
O213 C210 1.160 . S
O213 Cd214 2.203 . S
Cd214 O213 2.203 . S
Cd214 O216 2.411 . S
Cd214 O217 2.333 . S
Cd214 O218 2.352 . S
Cd214 O222 2.277 . S
Cd214 O223 2.356 . S
C215 O220 1.209 . S
C215 O222 1.226 . S
O216 Cd212 2.273 . S
O216 Cd214 2.411 . S
O216 C219 1.320 . S
O217 Cd214 2.333 . S
O217 C219 1.214 . S
O218 Cd214 2.352 . S
O218 C221 1.258 . S
C219 O216 1.320 . S
C219 O217 1.214 . S
O220 Cd212 2.277 . S
O220 C215 1.209 . S
C221 O218 1.258 . S
C221 O223 1.282 . S
O222 Cd214 2.277 . S
O222 C215 1.226 . S
O223 Cd214 2.356 . S
O223 C221 1.282 . S
C224 O225 1.306 . S
C224 O227 1.160 . S
O225 C224 1.306 . S
O225 Cd226 2.228 . S
Cd226 O225 2.228 . S
Cd226 O230 2.273 . S
Cd226 O234 2.277 . S
O227 C224 1.160 . S
O227 Cd228 2.203 . S
Cd228 O227 2.203 . S
Cd228 O230 2.411 . S
Cd228 O231 2.333 . S
Cd228 O232 2.352 . S
Cd228 O236 2.277 . S
Cd228 O237 2.356 . S
C229 O234 1.209 . S
C229 O236 1.226 . S
O230 Cd226 2.273 . S
O230 Cd228 2.411 . S
O230 C233 1.320 . S
O231 Cd228 2.333 . S
O231 C233 1.214 . S
O232 Cd228 2.352 . S
O232 C235 1.258 . S
C233 O230 1.320 . S
C233 O231 1.214 . S
O234 Cd226 2.277 . S
O234 C229 1.209 . S
C235 O232 1.258 . S
C235 O237 1.282 . S
O236 Cd228 2.277 . S
O236 C229 1.226 . S
O237 Cd228 2.356 . S
O237 C235 1.282 . S
C238 O239 1.306 . S
C238 O241 1.160 . S
O239 C238 1.306 . S
O239 Cd240 2.228 . S
Cd240 O239 2.228 . S
Cd240 O244 2.273 . S
Cd240 O248 2.277 . S
O241 C238 1.160 . S
O241 Cd242 2.203 . S
Cd242 O241 2.203 . S
Cd242 O244 2.411 . S
Cd242 O245 2.333 . S
Cd242 O246 2.352 . S
Cd242 O250 2.277 . S
Cd242 O251 2.356 . S
C243 O248 1.209 . S
C243 O250 1.226 . S
O244 Cd240 2.273 . S
O244 Cd242 2.411 . S
O244 C247 1.320 . S
O245 Cd242 2.333 . S
O245 C247 1.214 . S
O246 Cd242 2.352 . S
O246 C249 1.258 . S
C247 O244 1.320 . S
C247 O245 1.214 . S
O248 Cd240 2.277 . S
O248 C243 1.209 . S
C249 O246 1.258 . S
C249 O251 1.282 . S
O250 Cd242 2.277 . S
O250 C243 1.226 . S
O251 Cd242 2.356 . S
O251 C249 1.282 . S
C252 O253 1.306 . S
C252 O255 1.160 . S
O253 C252 1.306 . S
O253 Cd254 2.228 . S
Cd254 O253 2.228 . S
Cd254 O258 2.273 . S
Cd254 O262 2.277 . S
O255 C252 1.160 . S
O255 Cd256 2.203 . S
Cd256 O255 2.203 . S
Cd256 O258 2.411 . S
Cd256 O259 2.333 . S
Cd256 O260 2.352 . S
Cd256 O264 2.277 . S
Cd256 O265 2.356 . S
C257 O262 1.209 . S
C257 O264 1.226 . S
O258 Cd254 2.273 . S
O258 Cd256 2.411 . S
O258 C261 1.320 . S
O259 Cd256 2.333 . S
O259 C261 1.214 . S
O260 Cd256 2.352 . S
O260 C263 1.258 . S
C261 O258 1.320 . S
C261 O259 1.214 . S
O262 Cd254 2.277 . S
O262 C257 1.209 . S
C263 O260 1.258 . S
C263 O265 1.282 . S
O264 Cd256 2.277 . S
O264 C257 1.226 . S
O265 Cd256 2.356 . S
O265 C263 1.282 . S
C266 O267 1.306 . S
C266 O269 1.160 . S
O267 C266 1.306 . S
O267 Cd268 2.228 . S
Cd268 O267 2.228 . S
Cd268 O272 2.273 . S
Cd268 O276 2.277 . S
O269 C266 1.160 . S
O269 Cd270 2.203 . S
Cd270 O269 2.203 . S
Cd270 O272 2.411 . S
Cd270 O273 2.333 . S
Cd270 O274 2.352 . S
Cd270 O278 2.277 . S
Cd270 O279 2.356 . S
C271 O276 1.209 . S
C271 O278 1.226 . S
O272 Cd268 2.273 . S
O272 Cd270 2.411 . S
O272 C275 1.320 . S
O273 Cd270 2.333 . S
O273 C275 1.214 . S
O274 Cd270 2.352 . S
O274 C277 1.258 . S
C275 O272 1.320 . S
C275 O273 1.214 . S
O276 Cd268 2.277 . S
O276 C271 1.209 . S
C277 O274 1.258 . S
C277 O279 1.282 . S
O278 Cd270 2.277 . S
O278 C271 1.226 . S
O279 Cd270 2.356 . S
O279 C277 1.282 . S
C280 O281 1.306 . S
C280 O283 1.160 . S
O281 C280 1.306 . S
O281 Cd282 2.228 . S
Cd282 O281 2.228 . S
Cd282 O286 2.273 . S
Cd282 O290 2.277 . S
O283 C280 1.160 . S
O283 Cd284 2.203 . S
Cd284 O283 2.203 . S
Cd284 O286 2.411 . S
Cd284 O287 2.333 . S
Cd284 O288 2.352 . S
Cd284 O292 2.277 . S
Cd284 O293 2.356 . S
C285 O290 1.209 . S
C285 O292 1.226 . S
O286 Cd282 2.273 . S
O286 Cd284 2.411 . S
O286 C289 1.320 . S
O287 Cd284 2.333 . S
O287 C289 1.214 . S
O288 Cd284 2.352 . S
O288 C291 1.258 . S
C289 O286 1.320 . S
C289 O287 1.214 . S
O290 Cd282 2.277 . S
O290 C285 1.209 . S
C291 O288 1.258 . S
C291 O293 1.282 . S
O292 Cd284 2.277 . S
O292 C285 1.226 . S
O293 Cd284 2.356 . S
O293 C291 1.282 . S
C294 O295 1.306 . S
C294 O297 1.160 . S
O295 C294 1.306 . S
O295 Cd296 2.228 . S
Cd296 O295 2.228 . S
Cd296 O300 2.273 . S
Cd296 O304 2.277 . S
O297 C294 1.160 . S
O297 Cd298 2.203 . S
Cd298 O297 2.203 . S
Cd298 O300 2.411 . S
Cd298 O301 2.333 . S
Cd298 O302 2.352 . S
Cd298 O306 2.277 . S
Cd298 O307 2.356 . S
C299 O304 1.209 . S
C299 O306 1.226 . S
O300 Cd296 2.273 . S
O300 Cd298 2.411 . S
O300 C303 1.320 . S
O301 Cd298 2.333 . S
O301 C303 1.214 . S
O302 Cd298 2.352 . S
O302 C305 1.258 . S
C303 O300 1.320 . S
C303 O301 1.214 . S
O304 Cd296 2.277 . S
O304 C299 1.209 . S
C305 O302 1.258 . S
C305 O307 1.282 . S
O306 Cd298 2.277 . S
O306 C299 1.226 . S
O307 Cd298 2.356 . S
O307 C305 1.282 . S
C308 O309 1.306 . S
C308 O311 1.160 . S
O309 C308 1.306 . S
O309 Cd310 2.228 . S
Cd310 O309 2.228 . S
Cd310 O314 2.273 . S
Cd310 O318 2.277 . S
O311 C308 1.160 . S
O311 Cd312 2.203 . S
Cd312 O311 2.203 . S
Cd312 O314 2.411 . S
Cd312 O315 2.333 . S
Cd312 O316 2.352 . S
Cd312 O320 2.277 . S
Cd312 O321 2.356 . S
C313 O318 1.209 . S
C313 O320 1.226 . S
O314 Cd310 2.273 . S
O314 Cd312 2.411 . S
O314 C317 1.320 . S
O315 Cd312 2.333 . S
O315 C317 1.214 . S
O316 Cd312 2.352 . S
O316 C319 1.258 . S
C317 O314 1.320 . S
C317 O315 1.214 . S
O318 Cd310 2.277 . S
O318 C313 1.209 . S
C319 O316 1.258 . S
C319 O321 1.282 . S
O320 Cd312 2.277 . S
O320 C313 1.226 . S
O321 Cd312 2.356 . S
O321 C319 1.282 . S
C322 O323 1.306 . S
C322 O325 1.160 . S
O323 C322 1.306 . S
O323 Cd324 2.228 . S
Cd324 O323 2.228 . S
Cd324 O328 2.273 . S
Cd324 O332 2.277 . S
O325 C322 1.160 . S
O325 Cd326 2.203 . S
Cd326 O325 2.203 . S
Cd326 O328 2.411 . S
Cd326 O329 2.333 . S
Cd326 O330 2.352 . S
Cd326 O334 2.277 . S
Cd326 O335 2.356 . S
C327 O332 1.209 . S
C327 O334 1.226 . S
O328 Cd324 2.273 . S
O328 Cd326 2.411 . S
O328 C331 1.320 . S
O329 Cd326 2.333 . S
O329 C331 1.214 . S
O330 Cd326 2.352 . S
O330 C333 1.258 . S
C331 O328 1.320 . S
C331 O329 1.214 . S
O332 Cd324 2.277 . S
O332 C327 1.209 . S
C333 O330 1.258 . S
C333 O335 1.282 . S
O334 Cd326 2.277 . S
O334 C327 1.226 . S
O335 Cd326 2.356 . S
O335 C333 1.282 . S
C336 O337 1.306 . S
C336 O339 1.160 . S
O337 C336 1.306 . S
O337 Cd338 2.228 . S
Cd338 O337 2.228 . S
Cd338 O342 2.273 . S
Cd338 O346 2.277 . S
O339 C336 1.160 . S
O339 Cd340 2.203 . S
Cd340 O339 2.203 . S
Cd340 O342 2.411 . S
Cd340 O343 2.333 . S
Cd340 O344 2.352 . S
Cd340 O348 2.277 . S
Cd340 O349 2.356 . S
C341 O346 1.209 . S
C341 O348 1.226 . S
O342 Cd338 2.273 . S
O342 Cd340 2.411 . S
O342 C345 1.320 . S
O343 Cd340 2.333 . S
O343 C345 1.214 . S
O344 Cd340 2.352 . S
O344 C347 1.258 . S
C345 O342 1.320 . S
C345 O343 1.214 . S
O346 Cd338 2.277 . S
O346 C341 1.209 . S
C347 O344 1.258 . S
C347 O349 1.282 . S
O348 Cd340 2.277 . S
O348 C341 1.226 . S
O349 Cd340 2.356 . S
O349 C347 1.282 . S
C350 O351 1.306 . S
C350 O353 1.160 . S
O351 C350 1.306 . S
O351 Cd352 2.228 . S
Cd352 O351 2.228 . S
Cd352 O356 2.273 . S
Cd352 O360 2.277 . S
O353 C350 1.160 . S
O353 Cd354 2.203 . S
Cd354 O353 2.203 . S
Cd354 O356 2.411 . S
Cd354 O357 2.333 . S
Cd354 O358 2.352 . S
Cd354 O362 2.277 . S
Cd354 O363 2.356 . S
C355 O360 1.209 . S
C355 O362 1.226 . S
O356 Cd352 2.273 . S
O356 Cd354 2.411 . S
O356 C359 1.320 . S
O357 Cd354 2.333 . S
O357 C359 1.214 . S
O358 Cd354 2.352 . S
O358 C361 1.258 . S
C359 O356 1.320 . S
C359 O357 1.214 . S
O360 Cd352 2.277 . S
O360 C355 1.209 . S
C361 O358 1.258 . S
C361 O363 1.282 . S
O362 Cd354 2.277 . S
O362 C355 1.226 . S
O363 Cd354 2.356 . S
O363 C361 1.282 . S
C364 O365 1.306 . S
C364 O367 1.160 . S
O365 C364 1.306 . S
O365 Cd366 2.228 . S
Cd366 O365 2.228 . S
Cd366 O370 2.273 . S
Cd366 O374 2.277 . S
O367 C364 1.160 . S
O367 Cd368 2.203 . S
Cd368 O367 2.203 . S
Cd368 O370 2.411 . S
Cd368 O371 2.333 . S
Cd368 O372 2.352 . S
Cd368 O376 2.277 . S
Cd368 O377 2.356 . S
C369 O374 1.209 . S
C369 O376 1.226 . S
O370 Cd366 2.273 . S
O370 Cd368 2.411 . S
O370 C373 1.320 . S
O371 Cd368 2.333 . S
O371 C373 1.214 . S
O372 Cd368 2.352 . S
O372 C375 1.258 . S
C373 O370 1.320 . S
C373 O371 1.214 . S
O374 Cd366 2.277 . S
O374 C369 1.209 . S
C375 O372 1.258 . S
C375 O377 1.282 . S
O376 Cd368 2.277 . S
O376 C369 1.226 . S
O377 Cd368 2.356 . S
O377 C375 1.282 . S
C378 O379 1.306 . S
C378 O381 1.160 . S
O379 C378 1.306 . S
O379 Cd380 2.228 . S
Cd380 O379 2.228 . S
Cd380 O384 2.273 . S
Cd380 O388 2.277 . S
O381 C378 1.160 . S
O381 Cd382 2.203 . S
Cd382 O381 2.203 . S
Cd382 O384 2.411 . S
Cd382 O385 2.333 . S
Cd382 O386 2.352 . S
Cd382 O390 2.277 . S
Cd382 O391 2.356 . S
C383 O388 1.209 . S
C383 O390 1.226 . S
O384 Cd380 2.273 . S
O384 Cd382 2.411 . S
O384 C387 1.320 . S
O385 Cd382 2.333 . S
O385 C387 1.214 . S
O386 Cd382 2.352 . S
O386 C389 1.258 . S
C387 O384 1.320 . S
C387 O385 1.214 . S
O388 Cd380 2.277 . S
O388 C383 1.209 . S
C389 O386 1.258 . S
C389 O391 1.282 . S
O390 Cd382 2.277 . S
O390 C383 1.226 . S
O391 Cd382 2.356 . S
O391 C389 1.282 . S
C392 O393 1.306 . S
C392 O395 1.160 . S
O393 C392 1.306 . S
O393 Cd394 2.228 . S
Cd394 O393 2.228 . S
Cd394 O398 2.273 . S
Cd394 O402 2.277 . S
O395 C392 1.160 . S
O395 Cd396 2.203 . S
Cd396 O395 2.203 . S
Cd396 O398 2.411 . S
Cd396 O399 2.333 . S
Cd396 O400 2.352 . S
Cd396 O404 2.277 . S
Cd396 O405 2.356 . S
C397 O402 1.209 . S
C397 O404 1.226 . S
O398 Cd394 2.273 . S
O398 Cd396 2.411 . S
O398 C401 1.320 . S
O399 Cd396 2.333 . S
O399 C401 1.214 . S
O400 Cd396 2.352 . S
O400 C403 1.258 . S
C401 O398 1.320 . S
C401 O399 1.214 . S
O402 Cd394 2.277 . S
O402 C397 1.209 . S
C403 O400 1.258 . S
C403 O405 1.282 . S
O404 Cd396 2.277 . S
O404 C397 1.226 . S
O405 Cd396 2.356 . S
O405 C403 1.282 . S
C406 O407 1.306 . S
C406 O409 1.160 . S
O407 C406 1.306 . S
O407 Cd408 2.228 . S
Cd408 O407 2.228 . S
Cd408 O412 2.273 . S
Cd408 O416 2.277 . S
O409 C406 1.160 . S
O409 Cd410 2.203 . S
Cd410 O409 2.203 . S
Cd410 O412 2.411 . S
Cd410 O413 2.333 . S
Cd410 O414 2.352 . S
Cd410 O418 2.277 . S
Cd410 O419 2.356 . S
C411 O416 1.209 . S
C411 O418 1.226 . S
O412 Cd408 2.273 . S
O412 Cd410 2.411 . S
O412 C415 1.320 . S
O413 Cd410 2.333 . S
O413 C415 1.214 . S
O414 Cd410 2.352 . S
O414 C417 1.258 . S
C415 O412 1.320 . S
C415 O413 1.214 . S
O416 Cd408 2.277 . S
O416 C411 1.209 . S
C417 O414 1.258 . S
C417 O419 1.282 . S
O418 Cd410 2.277 . S
O418 C411 1.226 . S
O419 Cd410 2.356 . S
O419 C417 1.282 . S
C420 O421 1.306 . S
C420 O423 1.160 . S
O421 C420 1.306 . S
O421 Cd422 2.228 . S
Cd422 O421 2.228 . S
Cd422 O426 2.273 . S
Cd422 O430 2.277 . S
O423 C420 1.160 . S
O423 Cd424 2.203 . S
Cd424 O423 2.203 . S
Cd424 O426 2.411 . S
Cd424 O427 2.333 . S
Cd424 O428 2.352 . S
Cd424 O432 2.277 . S
Cd424 O433 2.356 . S
C425 O430 1.209 . S
C425 O432 1.226 . S
O426 Cd422 2.273 . S
O426 Cd424 2.411 . S
O426 C429 1.320 . S
O427 Cd424 2.333 . S
O427 C429 1.214 . S
O428 Cd424 2.352 . S
O428 C431 1.258 . S
C429 O426 1.320 . S
C429 O427 1.214 . S
O430 Cd422 2.277 . S
O430 C425 1.209 . S
C431 O428 1.258 . S
C431 O433 1.282 . S
O432 Cd424 2.277 . S
O432 C425 1.226 . S
O433 Cd424 2.356 . S
O433 C431 1.282 . S
C434 O435 1.306 . S
C434 O437 1.160 . S
O435 C434 1.306 . S
O435 Cd436 2.228 . S
Cd436 O435 2.228 . S
Cd436 O440 2.273 . S
Cd436 O444 2.277 . S
O437 C434 1.160 . S
O437 Cd438 2.203 . S
Cd438 O437 2.203 . S
Cd438 O440 2.411 . S
Cd438 O441 2.333 . S
Cd438 O442 2.352 . S
Cd438 O446 2.277 . S
Cd438 O447 2.356 . S
C439 O444 1.209 . S
C439 O446 1.226 . S
O440 Cd436 2.273 . S
O440 Cd438 2.411 . S
O440 C443 1.320 . S
O441 Cd438 2.333 . S
O441 C443 1.214 . S
O442 Cd438 2.352 . S
O442 C445 1.258 . S
C443 O440 1.320 . S
C443 O441 1.214 . S
O444 Cd436 2.277 . S
O444 C439 1.209 . S
C445 O442 1.258 . S
C445 O447 1.282 . S
O446 Cd438 2.277 . S
O446 C439 1.226 . S
O447 Cd438 2.356 . S
O447 C445 1.282 . S
C448 C449 1.391 1_545 S
C448 C450 1.394 . S
C448 H464 0.931 . S
C449 C448 1.391 1_565 S
C449 C453 1.376 . S
C450 C448 1.394 . S
C450 C451 1.347 1_545 S
C450 C454 1.531 . S
C451 C450 1.347 1_565 S
C451 C452 1.442 . S
C451 C459 1.496 1_565 S
C452 C451 1.442 . S
C452 C453 1.392 . S
C452 C455 1.511 . S
C453 C449 1.376 . S
C453 C452 1.392 . S
C453 H465 0.929 . S
C454 C450 1.531 . S
C454 H466 0.960 . S
C454 H467 0.962 . S
C454 H468 0.960 . S
C455 C452 1.511 . S
C455 H469 0.961 . S
C455 H470 0.961 . S
C455 H471 0.961 . S
C456 C457 1.370 . S
C456 C458 1.363 1_545 S
C456 H472 0.941 . S
C457 C456 1.370 . S
C457 C461 1.408 . S
C458 C456 1.363 1_565 S
C458 C459 1.370 1_565 S
C458 C462 1.524 . S
C459 C451 1.496 1_545 S
C459 C458 1.370 1_545 S
C459 C460 1.403 . S
C460 C459 1.403 . S
C460 C461 1.404 . S
C460 C463 1.539 . S
C461 C457 1.408 . S
C461 C460 1.404 . S
C461 H473 0.930 . S
C462 C458 1.524 . S
C462 H474 0.956 . S
C462 H475 0.961 . S
C462 H476 0.961 . S
C463 C460 1.539 . S
C463 H477 0.958 . S
C463 H478 0.961 . S
C463 H479 0.960 . S
H464 C448 0.931 . S
H465 C453 0.929 . S
H466 C454 0.960 . S
H467 C454 0.962 . S
H468 C454 0.960 . S
H469 C455 0.961 . S
H470 C455 0.961 . S
H471 C455 0.961 . S
H472 C456 0.941 . S
H473 C461 0.930 . S
H474 C462 0.956 . S
H475 C462 0.961 . S
H476 C462 0.961 . S
H477 C463 0.958 . S
H478 C463 0.961 . S
H479 C463 0.960 . S
C480 C481 1.391 . S
C480 C482 1.394 . S
C480 H496 0.931 . S
C481 C480 1.391 . S
C481 C485 1.376 . S
C482 C480 1.394 . S
C482 C483 1.369 . S
C482 C486 1.531 . S
C483 C482 1.369 . S
C483 C484 1.410 . S
C483 C491 1.503 . S
C484 C483 1.410 . S
C484 C485 1.392 . S
C484 C487 1.511 . S
C485 C481 1.376 . S
C485 C484 1.392 . S
C485 H497 0.929 . S
C486 C482 1.531 . S
C486 H498 0.960 . S
C486 H499 0.962 . S
C486 H500 0.960 . S
C487 C484 1.511 . S
C487 H501 0.961 . S
C487 H502 0.961 . S
C487 H503 0.961 . S
C488 C489 1.370 . S
C488 C490 1.363 . S
C488 H504 0.931 . S
C489 C488 1.370 . S
C489 C493 1.408 . S
C490 C488 1.363 . S
C490 C491 1.370 . S
C490 C494 1.524 . S
C491 C483 1.503 . S
C491 C490 1.370 . S
C491 C492 1.403 . S
C492 C491 1.403 . S
C492 C493 1.404 . S
C492 C495 1.539 . S
C493 C489 1.408 . S
C493 C492 1.404 . S
C493 H505 0.930 . S
C494 C490 1.524 . S
C494 H506 0.956 . S
C494 H507 0.961 . S
C494 H508 0.961 . S
C495 C492 1.539 . S
C495 H509 0.958 . S
C495 H510 0.961 . S
C495 H511 0.960 . S
H496 C480 0.931 . S
H497 C485 0.929 . S
H498 C486 0.960 . S
H499 C486 0.962 . S
H500 C486 0.960 . S
H501 C487 0.961 . S
H502 C487 0.961 . S
H503 C487 0.961 . S
H504 C488 0.931 . S
H505 C493 0.930 . S
H506 C494 0.956 . S
H507 C494 0.961 . S
H508 C494 0.961 . S
H509 C495 0.958 . S
H510 C495 0.961 . S
H511 C495 0.960 . S
C512 C513 1.391 1_565 S
C512 C514 1.394 . S
C512 H528 0.931 . S
C513 C512 1.391 1_545 S
C513 C517 1.376 . S
C514 C512 1.394 . S
C514 C515 1.369 . S
C514 C518 1.531 . S
C515 C514 1.369 . S
C515 C516 1.410 1_565 S
C515 C523 1.503 . S
C516 C515 1.410 1_545 S
C516 C517 1.392 . S
C516 C519 1.511 . S
C517 C513 1.376 . S
C517 C516 1.392 . S
C517 H529 0.929 . S
C518 C514 1.531 . S
C518 H530 0.960 . S
C518 H531 0.962 . S
C518 H532 0.960 . S
C519 C516 1.511 . S
C519 H533 0.961 . S
C519 H534 0.961 . S
C519 H535 0.961 . S
C520 C521 1.370 1_545 S
C520 C522 1.363 . S
C520 H536 0.931 . S
C521 C520 1.370 1_565 S
C521 C525 1.408 . S
C522 C520 1.363 . S
C522 C523 1.370 1_545 S
C522 C526 1.524 . S
C523 C515 1.503 . S
C523 C522 1.370 1_565 S
C523 C524 1.403 . S
C524 C523 1.403 . S
C524 C525 1.404 . S
C524 C527 1.539 . S
C525 C521 1.408 . S
C525 C524 1.404 . S
C525 H537 0.930 . S
C526 C522 1.524 . S
C526 H538 0.956 . S
C526 H539 0.961 . S
C526 H540 0.961 . S
C527 C524 1.539 . S
C527 H541 0.958 . S
C527 H542 0.961 . S
C527 H543 0.960 . S
H528 C512 0.931 . S
H529 C517 0.929 . S
H530 C518 0.960 . S
H531 C518 0.962 . S
H532 C518 0.960 . S
H533 C519 0.961 . S
H534 C519 0.961 . S
H535 C519 0.961 . S
H536 C520 0.931 . S
H537 C525 0.930 . S
H538 C526 0.956 . S
H539 C526 0.961 . S
H540 C526 0.961 . S
H541 C527 0.958 . S
H542 C527 0.961 . S
H543 C527 0.960 . S
C544 C545 1.391 . S
C544 C546 1.394 . S
C544 H560 0.931 . S
C545 C544 1.391 . S
C545 C549 1.376 . S
C546 C544 1.394 . S
C546 C547 1.369 . S
C546 C550 1.531 . S
C547 C546 1.369 . S
C547 C548 1.410 . S
C547 C555 1.503 1_556 S
C548 C547 1.410 . S
C548 C549 1.392 . S
C548 C551 1.511 . S
C549 C545 1.376 . S
C549 C548 1.392 . S
C549 H561 0.929 . S
C550 C546 1.531 . S
C550 H562 0.960 . S
C550 H563 0.962 . S
C550 H564 0.960 . S
C551 C548 1.511 . S
C551 H565 0.961 . S
C551 H566 0.961 1_556 S
C551 H567 0.961 . S
C552 C553 1.370 . S
C552 C554 1.363 . S
C552 H568 0.931 . S
C553 C552 1.370 . S
C553 C557 1.408 . S
C554 C552 1.363 . S
C554 C555 1.370 . S
C554 C558 1.524 . S
C555 C547 1.503 1_554 S
C555 C554 1.370 . S
C555 C556 1.403 . S
C556 C555 1.403 . S
C556 C557 1.404 . S
C556 C559 1.539 . S
C557 C553 1.408 . S
C557 C556 1.404 . S
C557 H569 0.930 . S
C558 C554 1.524 . S
C558 H570 0.991 . S
C558 H571 0.961 . S
C558 H572 0.961 . S
C559 C556 1.539 . S
C559 H573 0.958 . S
C559 H574 0.961 . S
C559 H575 0.960 1_554 S
H560 C544 0.931 . S
H561 C549 0.929 . S
H562 C550 0.960 . S
H563 C550 0.962 . S
H564 C550 0.960 . S
H565 C551 0.961 . S
H566 C551 0.961 1_554 S
H567 C551 0.961 . S
H568 C552 0.931 . S
H569 C557 0.930 . S
H570 C558 0.991 . S
H571 C558 0.961 . S
H572 C558 0.961 . S
H573 C559 0.958 . S
H574 C559 0.961 . S
H575 C559 0.960 1_556 S
C576 C577 1.391 . S
C576 C578 1.394 1_565 S
C576 H592 0.928 1_565 S
C577 C576 1.391 . S
C577 C581 1.376 . S
C578 C576 1.394 1_545 S
C578 C579 1.369 . S
C578 C582 1.531 . S
C579 C578 1.369 . S
C579 C580 1.410 1_545 S
C579 C587 1.503 . S
C580 C579 1.410 1_565 S
C580 C581 1.392 . S
C580 C583 1.511 . S
C581 C577 1.376 . S
C581 C580 1.392 . S
C581 H593 0.929 . S
C582 C578 1.531 . S
C582 H594 0.960 . S
C582 H595 0.962 . S
C582 H596 0.960 . S
C583 C580 1.511 . S
C583 H597 0.961 . S
C583 H598 0.961 . S
C583 H599 0.961 1_565 S
C584 C585 1.370 1_565 S
C584 C586 1.363 . S
C584 H600 0.931 . S
C585 C584 1.370 1_545 S
C585 C589 1.408 . S
C586 C584 1.363 . S
C586 C587 1.370 1_565 S
C586 C590 1.524 . S
C587 C579 1.503 . S
C587 C586 1.370 1_545 S
C587 C588 1.403 . S
C588 C587 1.403 . S
C588 C589 1.404 . S
C588 C591 1.539 . S
C589 C585 1.408 . S
C589 C588 1.404 . S
C589 H601 0.930 . S
C590 C586 1.524 . S
C590 H602 0.956 . S
C590 H603 0.961 . S
C590 H604 0.961 . S
C591 C588 1.539 . S
C591 H605 0.958 . S
C591 H606 0.961 . S
C591 H607 0.960 . S
H592 C576 0.928 1_545 S
H593 C581 0.929 . S
H594 C582 0.960 . S
H595 C582 0.962 . S
H596 C582 0.960 . S
H597 C583 0.961 . S
H598 C583 0.961 . S
H599 C583 0.961 1_545 S
H600 C584 0.931 . S
H601 C589 0.930 . S
H602 C590 0.956 . S
H603 C590 0.961 . S
H604 C590 0.961 . S
H605 C591 0.958 . S
H606 C591 0.961 . S
H607 C591 0.960 . S
C608 C609 1.391 . S
C608 C610 1.394 . S
C608 H624 0.931 . S
C609 C608 1.391 . S
C609 C613 1.376 . S
C610 C608 1.394 . S
C610 C611 1.369 . S
C610 C614 1.531 . S
C611 C610 1.369 . S
C611 C612 1.410 . S
C611 C619 1.503 . S
C612 C611 1.410 . S
C612 C613 1.392 . S
C612 C615 1.511 . S
C613 C609 1.376 . S
C613 C612 1.392 . S
C613 H625 0.929 . S
C614 C610 1.531 . S
C614 H626 0.960 . S
C614 H627 0.962 . S
C614 H628 0.960 . S
C615 C612 1.511 . S
C615 H629 0.961 . S
C615 H630 0.961 . S
C615 H631 0.961 . S
C616 C617 1.370 . S
C616 C618 1.363 . S
C616 H632 0.931 . S
C617 C616 1.370 . S
C617 C621 1.408 . S
C618 C616 1.363 . S
C618 C619 1.370 . S
C618 C622 1.524 . S
C619 C611 1.503 . S
C619 C618 1.370 . S
C619 C620 1.403 . S
C620 C619 1.403 . S
C620 C621 1.404 . S
C620 C623 1.539 . S
C621 C617 1.408 . S
C621 C620 1.404 . S
C621 H633 0.930 . S
C622 C618 1.524 . S
C622 H634 0.956 . S
C622 H635 0.961 . S
C622 H636 0.961 . S
C623 C620 1.539 . S
C623 H637 0.958 . S
C623 H638 0.961 . S
C623 H639 0.960 . S
H624 C608 0.931 . S
H625 C613 0.929 . S
H626 C614 0.960 . S
H627 C614 0.962 . S
H628 C614 0.960 . S
H629 C615 0.961 . S
H630 C615 0.961 . S
H631 C615 0.961 . S
H632 C616 0.931 . S
H633 C621 0.930 . S
H634 C622 0.956 . S
H635 C622 0.961 . S
H636 C622 0.961 . S
H637 C623 0.958 . S
H638 C623 0.961 . S
H639 C623 0.960 . S
C640 C641 1.375 1_565 S
C640 C642 1.402 . S
C640 H656 0.939 . S
C641 C640 1.375 1_545 S
C641 C645 1.376 . S
C642 C640 1.402 . S
C642 C643 1.369 . S
C642 C646 1.531 . S
C643 C642 1.369 . S
C643 C644 1.410 1_565 S
C643 C651 1.503 . S
C644 C643 1.410 1_545 S
C644 C645 1.392 . S
C644 C647 1.511 . S
C645 C641 1.376 . S
C645 C644 1.392 . S
C645 H657 0.929 . S
C646 C642 1.531 . S
C646 H658 0.960 . S
C646 H659 0.962 . S
C646 H660 0.960 . S
C647 C644 1.511 . S
C647 H661 0.961 . S
C647 H662 0.961 . S
C647 H663 0.961 . S
C648 C649 1.370 1_545 S
C648 C650 1.363 . S
C648 H664 0.931 . S
C649 C648 1.370 1_565 S
C649 C653 1.408 . S
C650 C648 1.363 . S
C650 C651 1.370 1_545 S
C650 C654 1.524 . S
C651 C643 1.503 . S
C651 C650 1.370 1_565 S
C651 C652 1.403 . S
C652 C651 1.403 . S
C652 C653 1.404 . S
C652 C655 1.539 . S
C653 C649 1.408 . S
C653 C652 1.404 . S
C653 H665 0.930 . S
C654 C650 1.524 . S
C654 H666 0.956 . S
C654 H667 0.961 . S
C654 H668 0.961 . S
C655 C652 1.539 . S
C655 H669 0.958 . S
C655 H670 0.961 . S
C655 H671 0.960 . S
H656 C640 0.939 . S
H657 C645 0.929 . S
H658 C646 0.960 . S
H659 C646 0.962 . S
H660 C646 0.960 . S
H661 C647 0.961 . S
H662 C647 0.961 . S
H663 C647 0.961 . S
H664 C648 0.931 . S
H665 C653 0.930 . S
H666 C654 0.956 . S
H667 C654 0.961 . S
H668 C654 0.961 . S
H669 C655 0.958 . S
H670 C655 0.961 . S
H671 C655 0.960 . S
C672 C673 1.391 . S
C672 C674 1.394 . S
C672 H688 0.931 . S
C673 C672 1.391 . S
C673 C677 1.376 . S
C674 C672 1.394 . S
C674 C675 1.369 . S
C674 C678 1.531 . S
C675 C674 1.369 . S
C675 C676 1.410 . S
C675 C683 1.503 1_556 S
C676 C675 1.410 . S
C676 C677 1.392 . S
C676 C679 1.551 . S
C677 C673 1.376 . S
C677 C676 1.392 . S
C677 H689 0.929 . S
C678 C674 1.531 . S
C678 H690 0.960 . S
C678 H691 0.962 . S
C678 H692 0.960 . S
C679 C676 1.551 . S
C679 H693 0.986 . S
C679 H694 0.915 1_556 S
C679 H695 0.945 1_556 S
C680 C681 1.370 . S
C680 C682 1.363 . S
C680 H696 0.931 . S
C681 C680 1.370 . S
C681 C685 1.408 . S
C682 C680 1.363 . S
C682 C683 1.370 . S
C682 C686 1.524 . S
C683 C675 1.503 1_554 S
C683 C682 1.370 . S
C683 C684 1.403 . S
C684 C683 1.403 . S
C684 C685 1.404 . S
C684 C687 1.539 . S
C685 C681 1.408 . S
C685 C684 1.404 . S
C685 H697 0.930 . S
C686 C682 1.524 . S
C686 H698 0.956 1_554 S
C686 H699 0.961 1_554 S
C686 H700 0.961 . S
C687 C684 1.539 . S
C687 H701 0.958 . S
C687 H702 0.961 . S
C687 H703 0.960 . S
H688 C672 0.931 . S
H689 C677 0.929 . S
H690 C678 0.960 . S
H691 C678 0.962 . S
H692 C678 0.960 . S
H693 C679 0.986 . S
H694 C679 0.915 1_554 S
H695 C679 0.945 1_554 S
H696 C680 0.931 . S
H697 C685 0.930 . S
H698 C686 0.956 1_556 S
H699 C686 0.961 1_556 S
H700 C686 0.961 . S
H701 C687 0.958 . S
H702 C687 0.961 . S
H703 C687 0.960 . S
C704 C705 1.391 . S
C704 C706 1.394 . S
C704 H720 0.931 . S
C705 C704 1.391 . S
C705 C709 1.376 . S
C706 C704 1.394 . S
C706 C707 1.369 . S
C706 C710 1.531 . S
C707 C706 1.369 . S
C707 C708 1.410 . S
C707 C715 1.503 . S
C708 C707 1.410 . S
C708 C709 1.392 . S
C708 C711 1.511 . S
C709 C705 1.376 . S
C709 C708 1.392 . S
C709 H721 0.929 . S
C710 C706 1.531 . S
C710 H722 0.960 . S
C710 H723 0.962 . S
C710 H724 0.960 . S
C711 C708 1.511 . S
C711 H725 0.961 . S
C711 H726 0.961 . S
C711 H727 0.961 . S
C712 C713 1.370 . S
C712 C714 1.363 . S
C712 H728 0.931 . S
C713 C712 1.370 . S
C713 C717 1.408 . S
C714 C712 1.363 . S
C714 C715 1.370 . S
C714 C718 1.524 . S
C715 C707 1.503 . S
C715 C714 1.370 . S
C715 C716 1.403 . S
C716 C715 1.403 . S
C716 C717 1.404 . S
C716 C719 1.539 . S
C717 C713 1.408 . S
C717 C716 1.404 . S
C717 H729 0.930 . S
C718 C714 1.524 . S
C718 H730 0.956 . S
C718 H731 0.961 . S
C718 H732 0.961 . S
C719 C716 1.539 . S
C719 H733 0.958 . S
C719 H734 0.961 . S
C719 H735 0.960 . S
H720 C704 0.931 . S
H721 C709 0.929 . S
H722 C710 0.960 . S
H723 C710 0.962 . S
H724 C710 0.960 . S
H725 C711 0.961 . S
H726 C711 0.961 . S
H727 C711 0.961 . S
H728 C712 0.931 . S
H729 C717 0.930 . S
H730 C718 0.956 . S
H731 C718 0.961 . S
H732 C718 0.961 . S
H733 C719 0.958 . S
H734 C719 0.961 . S
H735 C719 0.960 . S
C736 C737 1.391 . S
C736 C738 1.394 . S
C736 H752 0.931 . S
C737 C736 1.391 . S
C737 C741 1.376 . S
C738 C736 1.394 . S
C738 C739 1.369 . S
C738 C742 1.531 . S
C739 C738 1.369 . S
C739 C740 1.410 . S
C739 C747 1.503 1_554 S
C740 C739 1.410 . S
C740 C741 1.392 . S
C740 C743 1.557 . S
C741 C737 1.376 . S
C741 C740 1.392 . S
C741 H753 0.929 . S
C742 C738 1.531 . S
C742 H754 0.960 . S
C742 H755 0.962 . S
C742 H756 0.960 . S
C743 C740 1.557 . S
C743 H757 0.991 . S
C743 H758 0.909 1_554 S
C743 H759 0.943 1_554 S
C744 C745 1.370 . S
C744 C746 1.363 . S
C744 H760 0.931 . S
C745 C744 1.370 . S
C745 C749 1.408 . S
C746 C744 1.363 . S
C746 C747 1.370 . S
C746 C750 1.524 . S
C747 C739 1.503 1_556 S
C747 C746 1.370 . S
C747 C748 1.403 . S
C748 C747 1.403 . S
C748 C749 1.404 . S
C748 C751 1.539 . S
C749 C745 1.408 . S
C749 C748 1.404 . S
C749 H761 0.930 . S
C750 C746 1.524 . S
C750 H762 0.956 1_556 S
C750 H763 0.961 1_556 S
C750 H764 0.961 . S
C751 C748 1.539 . S
C751 H765 0.958 . S
C751 H766 0.961 . S
C751 H767 0.960 . S
H752 C736 0.931 . S
H753 C741 0.929 . S
H754 C742 0.960 . S
H755 C742 0.962 . S
H756 C742 0.960 . S
H757 C743 0.991 . S
H758 C743 0.909 1_556 S
H759 C743 0.943 1_556 S
H760 C744 0.931 . S
H761 C749 0.930 . S
H762 C750 0.956 1_554 S
H763 C750 0.961 1_554 S
H764 C750 0.961 . S
H765 C751 0.958 . S
H766 C751 0.961 . S
H767 C751 0.960 . S
C768 C769 1.391 . S
C768 C770 1.394 . S
C768 H784 0.931 . S
C769 C768 1.391 . S
C769 C773 1.376 . S
C770 C768 1.394 . S
C770 C771 1.369 . S
C770 C774 1.531 . S
C771 C770 1.369 . S
C771 C772 1.410 . S
C771 C779 1.503 . S
C772 C771 1.410 . S
C772 C773 1.392 . S
C772 C775 1.511 . S
C773 C769 1.376 . S
C773 C772 1.392 . S
C773 H785 0.929 . S
C774 C770 1.531 . S
C774 H786 0.960 . S
C774 H787 0.962 . S
C774 H788 0.960 . S
C775 C772 1.511 . S
C775 H789 0.961 . S
C775 H790 0.961 . S
C775 H791 0.961 . S
C776 C777 1.370 . S
C776 C778 1.363 . S
C776 H792 0.931 . S
C777 C776 1.370 . S
C777 C781 1.408 . S
C778 C776 1.363 . S
C778 C779 1.370 . S
C778 C782 1.524 . S
C779 C771 1.503 . S
C779 C778 1.370 . S
C779 C780 1.403 . S
C780 C779 1.403 . S
C780 C781 1.404 . S
C780 C783 1.539 . S
C781 C777 1.408 . S
C781 C780 1.404 . S
C781 H793 0.930 . S
C782 C778 1.524 . S
C782 H794 0.956 . S
C782 H795 0.961 . S
C782 H796 0.961 . S
C783 C780 1.539 . S
C783 H797 0.958 . S
C783 H798 0.961 . S
C783 H799 0.960 . S
H784 C768 0.931 . S
H785 C773 0.929 . S
H786 C774 0.960 . S
H787 C774 0.962 . S
H788 C774 0.960 . S
H789 C775 0.961 . S
H790 C775 0.961 . S
H791 C775 0.961 . S
H792 C776 0.931 . S
H793 C781 0.930 . S
H794 C782 0.956 . S
H795 C782 0.961 . S
H796 C782 0.961 . S
H797 C783 0.958 . S
H798 C783 0.961 . S
H799 C783 0.960 . S
C800 C801 1.391 . S
C800 C802 1.394 . S
C800 H816 0.931 . S
C801 C800 1.391 . S
C801 C805 1.376 . S
C802 C800 1.394 . S
C802 C803 1.369 . S
C802 C806 1.531 . S
C803 C802 1.369 . S
C803 C804 1.410 . S
C803 C811 1.503 . S
C804 C803 1.410 . S
C804 C805 1.392 . S
C804 C807 1.511 . S
C805 C801 1.376 . S
C805 C804 1.392 . S
C805 H817 0.929 . S
C806 C802 1.531 . S
C806 H818 0.960 . S
C806 H819 0.962 . S
C806 H820 0.960 . S
C807 C804 1.511 . S
C807 H821 0.961 . S
C807 H822 0.961 . S
C807 H823 0.961 . S
C808 C809 1.370 . S
C808 C810 1.363 . S
C808 H824 0.931 . S
C809 C808 1.370 . S
C809 C813 1.408 . S
C810 C808 1.363 . S
C810 C811 1.370 . S
C810 C814 1.524 . S
C811 C803 1.503 . S
C811 C810 1.370 . S
C811 C812 1.403 . S
C812 C811 1.403 . S
C812 C813 1.404 . S
C812 C815 1.539 . S
C813 C809 1.408 . S
C813 C812 1.404 . S
C813 H825 0.930 . S
C814 C810 1.524 . S
C814 H826 0.956 . S
C814 H827 0.961 . S
C814 H828 0.961 . S
C815 C812 1.539 . S
C815 H829 0.958 . S
C815 H830 0.961 . S
C815 H831 0.960 . S
H816 C800 0.931 . S
H817 C805 0.929 . S
H818 C806 0.960 . S
H819 C806 0.962 . S
H820 C806 0.960 . S
H821 C807 0.961 . S
H822 C807 0.961 . S
H823 C807 0.961 . S
H824 C808 0.931 . S
H825 C813 0.930 . S
H826 C814 0.956 . S
H827 C814 0.961 . S
H828 C814 0.961 . S
H829 C815 0.958 . S
H830 C815 0.961 . S
H831 C815 0.960 . S
C832 C833 1.391 . S
C832 C834 1.394 . S
C832 H848 0.931 . S
C833 C832 1.391 . S
C833 C837 1.376 . S
C834 C832 1.394 . S
C834 C835 1.369 . S
C834 C838 1.531 . S
C835 C834 1.369 . S
C835 C836 1.410 . S
C835 C843 1.503 . S
C836 C835 1.410 . S
C836 C837 1.392 . S
C836 C839 1.511 . S
C837 C833 1.376 . S
C837 C836 1.392 . S
C837 H849 0.929 . S
C838 C834 1.531 . S
C838 H850 0.960 . S
C838 H851 0.962 . S
C838 H852 0.960 . S
C839 C836 1.511 . S
C839 H853 0.961 . S
C839 H854 0.961 . S
C839 H855 0.961 . S
C840 C841 1.370 . S
C840 C842 1.363 . S
C840 H856 0.931 . S
C841 C840 1.370 . S
C841 C845 1.408 . S
C842 C840 1.363 . S
C842 C843 1.370 . S
C842 C846 1.524 . S
C843 C835 1.503 . S
C843 C842 1.370 . S
C843 C844 1.403 . S
C844 C843 1.403 . S
C844 C845 1.404 . S
C844 C847 1.539 . S
C845 C841 1.408 . S
C845 C844 1.404 . S
C845 H857 0.930 . S
C846 C842 1.524 . S
C846 H858 0.956 . S
C846 H859 0.961 . S
C846 H860 0.961 . S
C847 C844 1.539 . S
C847 H861 0.958 . S
C847 H862 0.961 . S
C847 H863 0.960 . S
H848 C832 0.931 . S
H849 C837 0.929 . S
H850 C838 0.960 . S
H851 C838 0.962 . S
H852 C838 0.960 . S
H853 C839 0.961 . S
H854 C839 0.961 . S
H855 C839 0.961 . S
H856 C840 0.931 . S
H857 C845 0.930 . S
H858 C846 0.956 . S
H859 C846 0.961 . S
H860 C846 0.961 . S
H861 C847 0.958 . S
H862 C847 0.961 . S
H863 C847 0.960 . S
C864 C865 1.391 . S
C864 C866 1.394 . S
C864 H880 0.931 . S
C865 C864 1.391 . S
C865 C869 1.376 . S
C866 C864 1.394 . S
C866 C867 1.369 . S
C866 C870 1.531 . S
C867 C866 1.369 . S
C867 C868 1.410 . S
C867 C875 1.503 1_554 S
C868 C867 1.410 . S
C868 C869 1.392 . S
C868 C871 1.555 . S
C869 C865 1.376 . S
C869 C868 1.392 . S
C869 H881 0.929 . S
C870 C866 1.531 . S
C870 H882 0.960 . S
C870 H883 0.962 . S
C870 H884 0.960 . S
C871 C868 1.555 . S
C871 H885 0.989 . S
C871 H886 0.911 1_554 S
C871 H887 0.944 1_554 S
C872 C873 1.370 . S
C872 C874 1.363 . S
C872 H888 0.931 . S
C873 C872 1.370 . S
C873 C877 1.408 . S
C874 C872 1.363 . S
C874 C875 1.370 . S
C874 C878 1.524 . S
C875 C867 1.503 1_556 S
C875 C874 1.370 . S
C875 C876 1.403 . S
C876 C875 1.403 . S
C876 C877 1.404 . S
C876 C879 1.539 . S
C877 C873 1.408 . S
C877 C876 1.404 . S
C877 H889 0.930 . S
C878 C874 1.524 . S
C878 H890 0.956 1_556 S
C878 H891 0.961 1_556 S
C878 H892 0.961 . S
C879 C876 1.539 . S
C879 H893 0.958 . S
C879 H894 0.961 . S
C879 H895 0.960 . S
H880 C864 0.931 . S
H881 C869 0.929 . S
H882 C870 0.960 . S
H883 C870 0.962 . S
H884 C870 0.960 . S
H885 C871 0.989 . S
H886 C871 0.911 1_556 S
H887 C871 0.944 1_556 S
H888 C872 0.931 . S
H889 C877 0.930 . S
H890 C878 0.956 1_554 S
H891 C878 0.961 1_554 S
H892 C878 0.961 . S
H893 C879 0.958 . S
H894 C879 0.961 . S
H895 C879 0.960 . S
C896 C897 1.391 . S
C896 C898 1.394 . S
C896 H912 0.931 . S
C897 C896 1.391 . S
C897 C901 1.376 . S
C898 C896 1.394 . S
C898 C899 1.369 . S
C898 C902 1.531 . S
C899 C898 1.369 . S
C899 C900 1.410 . S
C899 C907 1.503 . S
C900 C899 1.410 . S
C900 C901 1.392 . S
C900 C903 1.511 . S
C901 C897 1.376 . S
C901 C900 1.392 . S
C901 H913 0.929 . S
C902 C898 1.531 . S
C902 H914 0.960 . S
C902 H915 0.962 . S
C902 H916 0.960 . S
C903 C900 1.511 . S
C903 H917 0.961 . S
C903 H918 0.961 . S
C903 H919 0.961 . S
C904 C905 1.370 . S
C904 C906 1.363 . S
C904 H920 0.931 . S
C905 C904 1.370 . S
C905 C909 1.408 . S
C906 C904 1.363 . S
C906 C907 1.370 . S
C906 C910 1.524 . S
C907 C899 1.503 . S
C907 C906 1.370 . S
C907 C908 1.403 . S
C908 C907 1.403 . S
C908 C909 1.404 . S
C908 C911 1.539 . S
C909 C905 1.408 . S
C909 C908 1.404 . S
C909 H921 0.930 . S
C910 C906 1.524 . S
C910 H922 0.956 . S
C910 H923 0.961 . S
C910 H924 0.961 . S
C911 C908 1.539 . S
C911 H925 0.958 . S
C911 H926 0.961 . S
C911 H927 0.960 . S
H912 C896 0.931 . S
H913 C901 0.929 . S
H914 C902 0.960 . S
H915 C902 0.962 . S
H916 C902 0.960 . S
H917 C903 0.961 . S
H918 C903 0.961 . S
H919 C903 0.961 . S
H920 C904 0.931 . S
H921 C909 0.930 . S
H922 C910 0.956 . S
H923 C910 0.961 . S
H924 C910 0.961 . S
H925 C911 0.958 . S
H926 C911 0.961 . S
H927 C911 0.960 . S
C928 C929 1.391 . S
C928 C930 1.394 . S
C928 H944 0.931 . S
C929 C928 1.391 . S
C929 C933 1.376 . S
C930 C928 1.394 . S
C930 C931 1.369 . S
C930 C934 1.531 . S
C931 C930 1.369 . S
C931 C932 1.410 . S
C931 C939 1.503 . S
C932 C931 1.410 . S
C932 C933 1.392 . S
C932 C935 1.511 . S
C933 C929 1.376 . S
C933 C932 1.392 . S
C933 H945 0.929 . S
C934 C930 1.531 . S
C934 H946 0.960 . S
C934 H947 0.962 . S
C934 H948 0.960 . S
C935 C932 1.511 . S
C935 H949 0.961 . S
C935 H950 0.961 . S
C935 H951 0.961 . S
C936 C937 1.370 . S
C936 C938 1.363 . S
C936 H952 0.931 . S
C937 C936 1.370 . S
C937 C941 1.408 . S
C938 C936 1.363 . S
C938 C939 1.370 . S
C938 C942 1.524 . S
C939 C931 1.503 . S
C939 C938 1.370 . S
C939 C940 1.403 . S
C940 C939 1.403 . S
C940 C941 1.404 . S
C940 C943 1.539 . S
C941 C937 1.408 . S
C941 C940 1.404 . S
C941 H953 0.930 . S
C942 C938 1.524 . S
C942 H954 0.956 . S
C942 H955 0.961 . S
C942 H956 0.961 . S
C943 C940 1.539 . S
C943 H957 0.958 . S
C943 H958 0.961 . S
C943 H959 0.960 . S
H944 C928 0.931 . S
H945 C933 0.929 . S
H946 C934 0.960 . S
H947 C934 0.962 . S
H948 C934 0.960 . S
H949 C935 0.961 . S
H950 C935 0.961 . S
H951 C935 0.961 . S
H952 C936 0.931 . S
H953 C941 0.930 . S
H954 C942 0.956 . S
H955 C942 0.961 . S
H956 C942 0.961 . S
H957 C943 0.958 . S
H958 C943 0.961 . S
H959 C943 0.960 . S
C960 C961 1.391 . S
C960 C962 1.394 . S
C960 H976 0.931 . S
C961 C960 1.391 . S
C961 C965 1.376 1_565 S
C962 C960 1.394 . S
C962 C963 1.369 . S
C962 C966 1.531 . S
C963 C962 1.369 . S
C963 C964 1.410 . S
C963 C971 1.503 . S
C964 C963 1.410 . S
C964 C965 1.392 1_565 S
C964 C967 1.511 . S
C965 C961 1.376 1_545 S
C965 C964 1.392 1_545 S
C965 H977 0.929 . S
C966 C962 1.531 . S
C966 H978 0.960 . S
C966 H979 0.962 . S
C966 H980 0.960 . S
C967 C964 1.511 . S
C967 H981 0.961 1_565 S
C967 H982 0.961 . S
C967 H983 0.961 . S
C968 C969 1.370 . S
C968 C970 1.363 . S
C968 H984 0.931 . S
C969 C968 1.370 . S
C969 C973 1.408 . S
C970 C968 1.363 . S
C970 C971 1.370 . S
C970 C974 1.524 . S
C971 C963 1.503 . S
C971 C970 1.370 . S
C971 C972 1.403 . S
C972 C971 1.403 . S
C972 C973 1.404 . S
C972 C975 1.539 . S
C973 C969 1.408 . S
C973 C972 1.404 . S
C973 H985 0.930 . S
C974 C970 1.524 . S
C974 H986 0.956 . S
C974 H987 0.961 . S
C974 H988 0.961 . S
C975 C972 1.539 . S
C975 H989 0.958 . S
C975 H990 0.961 . S
C975 H991 0.960 . S
H976 C960 0.931 . S
H977 C965 0.929 . S
H978 C966 0.960 . S
H979 C966 0.962 . S
H980 C966 0.960 . S
H981 C967 0.961 1_545 S
H982 C967 0.961 . S
H983 C967 0.961 . S
H984 C968 0.931 . S
H985 C973 0.930 . S
H986 C974 0.956 . S
H987 C974 0.961 . S
H988 C974 0.961 . S
H989 C975 0.958 . S
H990 C975 0.961 . S
H991 C975 0.960 . S
C992 C993 1.391 . S
C992 C994 1.394 . S
C992 H1008 0.931 . S
C993 C992 1.391 . S
C993 C997 1.376 . S
C994 C992 1.394 . S
C994 C995 1.369 . S
C994 C998 1.531 . S
C995 C994 1.369 . S
C995 C996 1.410 . S
C995 C1003 1.503 . S
C996 C995 1.410 . S
C996 C997 1.392 . S
C996 C999 1.511 . S
C997 C993 1.376 . S
C997 C996 1.392 . S
C997 H1009 0.929 . S
C998 C994 1.531 . S
C998 H1010 0.960 . S
C998 H1011 0.962 . S
C998 H1012 0.960 . S
C999 C996 1.511 . S
C999 H1013 0.961 . S
C999 H1014 0.961 . S
C999 H1015 0.961 . S
C1000 C1001 1.370 . S
C1000 C1002 1.363 . S
C1000 H1016 0.931 . S
C1001 C1000 1.370 . S
C1001 C1005 1.408 1_545 S
C1002 C1000 1.363 . S
C1002 C1003 1.370 . S
C1002 C1006 1.524 . S
C1003 C995 1.503 . S
C1003 C1002 1.370 . S
C1003 C1004 1.403 . S
C1004 C1003 1.403 . S
C1004 C1005 1.404 1_545 S
C1004 C1007 1.539 . S
C1005 C1001 1.408 1_565 S
C1005 C1004 1.404 1_565 S
C1005 H1017 0.930 . S
C1006 C1002 1.524 . S
C1006 H1018 0.956 . S
C1006 H1019 0.961 . S
C1006 H1020 0.961 . S
C1007 C1004 1.539 . S
C1007 H1021 0.958 . S
C1007 H1022 0.961 1_545 S
C1007 H1023 0.960 . S
H1008 C992 0.931 . S
H1009 C997 0.929 . S
H1010 C998 0.960 . S
H1011 C998 0.962 . S
H1012 C998 0.960 . S
H1013 C999 0.961 . S
H1014 C999 0.961 . S
H1015 C999 0.961 . S
H1016 C1000 0.931 . S
H1017 C1005 0.930 . S
H1018 C1006 0.956 . S
H1019 C1006 0.961 . S
H1020 C1006 0.961 . S
H1021 C1007 0.958 . S
H1022 C1007 0.961 1_565 S
H1023 C1007 0.960 . S
C1024 C1025 1.391 . S
C1024 C1026 1.394 . S
C1024 H1040 0.931 . S
C1025 C1024 1.391 . S
C1025 C1029 1.376 1_545 S
C1026 C1024 1.394 . S
C1026 C1027 1.369 . S
C1026 C1030 1.531 . S
C1027 C1026 1.369 . S
C1027 C1028 1.410 . S
C1027 C1035 1.503 . S
C1028 C1027 1.410 . S
C1028 C1029 1.392 1_545 S
C1028 C1031 1.511 . S
C1029 C1025 1.376 1_565 S
C1029 C1028 1.392 1_565 S
C1029 H1041 0.929 . S
C1030 C1026 1.531 . S
C1030 H1042 0.960 . S
C1030 H1043 0.962 . S
C1030 H1044 0.960 . S
C1031 C1028 1.511 . S
C1031 H1045 0.961 1_545 S
C1031 H1046 0.961 . S
C1031 H1047 0.961 . S
C1032 C1033 1.370 . S
C1032 C1034 1.363 . S
C1032 H1048 0.931 . S
C1033 C1032 1.370 . S
C1033 C1037 1.408 . S
C1034 C1032 1.363 . S
C1034 C1035 1.370 . S
C1034 C1038 1.524 . S
C1035 C1027 1.503 . S
C1035 C1034 1.370 . S
C1035 C1036 1.403 . S
C1036 C1035 1.403 . S
C1036 C1037 1.404 . S
C1036 C1039 1.539 . S
C1037 C1033 1.408 . S
C1037 C1036 1.404 . S
C1037 H1049 0.930 . S
C1038 C1034 1.524 . S
C1038 H1050 0.956 . S
C1038 H1051 0.961 . S
C1038 H1052 0.961 . S
C1039 C1036 1.539 . S
C1039 H1053 0.958 . S
C1039 H1054 0.961 . S
C1039 H1055 0.960 . S
H1040 C1024 0.931 . S
H1041 C1029 0.929 . S
H1042 C1030 0.960 . S
H1043 C1030 0.962 . S
H1044 C1030 0.960 . S
H1045 C1031 0.961 1_565 S
H1046 C1031 0.961 . S
H1047 C1031 0.961 . S
H1048 C1032 0.931 . S
H1049 C1037 0.930 . S
H1050 C1038 0.956 . S
H1051 C1038 0.961 . S
H1052 C1038 0.961 . S
H1053 C1039 0.958 . S
H1054 C1039 0.961 . S
H1055 C1039 0.960 . S
C1056 C1057 1.391 . S
C1056 C1058 1.394 . S
C1056 H1072 0.931 . S
C1057 C1056 1.391 . S
C1057 C1061 1.376 1_565 S
C1058 C1056 1.394 . S
C1058 C1059 1.369 . S
C1058 C1062 1.531 . S
C1059 C1058 1.369 . S
C1059 C1060 1.410 . S
C1059 C1067 1.503 . S
C1060 C1059 1.410 . S
C1060 C1061 1.392 1_565 S
C1060 C1063 1.511 . S
C1061 C1057 1.376 1_545 S
C1061 C1060 1.392 1_545 S
C1061 H1073 0.929 . S
C1062 C1058 1.531 . S
C1062 H1074 0.960 . S
C1062 H1075 0.962 . S
C1062 H1076 0.960 . S
C1063 C1060 1.511 . S
C1063 H1077 0.961 1_565 S
C1063 H1078 0.961 . S
C1063 H1079 0.961 . S
C1064 C1065 1.370 . S
C1064 C1066 1.363 . S
C1064 H1080 0.931 . S
C1065 C1064 1.370 . S
C1065 C1069 1.408 . S
C1066 C1064 1.363 . S
C1066 C1067 1.370 . S
C1066 C1070 1.524 . S
C1067 C1059 1.503 . S
C1067 C1066 1.370 . S
C1067 C1068 1.403 . S
C1068 C1067 1.403 . S
C1068 C1069 1.404 . S
C1068 C1071 1.539 . S
C1069 C1065 1.408 . S
C1069 C1068 1.404 . S
C1069 H1081 0.930 . S
C1070 C1066 1.524 . S
C1070 H1082 0.956 . S
C1070 H1083 0.961 . S
C1070 H1084 0.961 . S
C1071 C1068 1.539 . S
C1071 H1085 0.958 . S
C1071 H1086 0.961 . S
C1071 H1087 0.960 . S
H1072 C1056 0.931 . S
H1073 C1061 0.929 . S
H1074 C1062 0.960 . S
H1075 C1062 0.962 . S
H1076 C1062 0.960 . S
H1077 C1063 0.961 1_545 S
H1078 C1063 0.961 . S
H1079 C1063 0.961 . S
H1080 C1064 0.931 . S
H1081 C1069 0.930 . S
H1082 C1070 0.956 . S
H1083 C1070 0.961 . S
H1084 C1070 0.961 . S
H1085 C1071 0.958 . S
H1086 C1071 0.961 . S
H1087 C1071 0.960 . S
C1088 C1089 1.391 . S
C1088 C1090 1.394 . S
C1088 H1104 0.931 . S
C1089 C1088 1.391 . S
C1089 C1093 1.376 . S
C1090 C1088 1.394 . S
C1090 C1091 1.369 . S
C1090 C1094 1.531 . S
C1091 C1090 1.369 . S
C1091 C1092 1.410 . S
C1091 C1099 1.503 . S
C1092 C1091 1.410 . S
C1092 C1093 1.392 . S
C1092 C1095 1.511 . S
C1093 C1089 1.376 . S
C1093 C1092 1.392 . S
C1093 H1105 0.929 . S
C1094 C1090 1.531 . S
C1094 H1106 0.960 . S
C1094 H1107 0.962 . S
C1094 H1108 0.960 . S
C1095 C1092 1.511 . S
C1095 H1109 0.961 . S
C1095 H1110 0.961 . S
C1095 H1111 0.961 . S
C1096 C1097 1.370 . S
C1096 C1098 1.363 . S
C1096 H1112 0.931 1_545 S
C1097 C1096 1.370 . S
C1097 C1101 1.408 . S
C1098 C1096 1.363 . S
C1098 C1099 1.370 . S
C1098 C1102 1.524 . S
C1099 C1091 1.503 . S
C1099 C1098 1.370 . S
C1099 C1100 1.403 . S
C1100 C1099 1.403 . S
C1100 C1101 1.404 . S
C1100 C1103 1.539 . S
C1101 C1097 1.408 . S
C1101 C1100 1.404 . S
C1101 H1113 0.930 . S
C1102 C1098 1.524 . S
C1102 H1114 0.956 . S
C1102 H1115 0.961 . S
C1102 H1116 0.961 1_545 S
C1103 C1100 1.539 . S
C1103 H1117 0.958 . S
C1103 H1118 0.961 . S
C1103 H1119 0.960 . S
H1104 C1088 0.931 . S
H1105 C1093 0.929 . S
H1106 C1094 0.960 . S
H1107 C1094 0.962 . S
H1108 C1094 0.960 . S
H1109 C1095 0.961 . S
H1110 C1095 0.961 . S
H1111 C1095 0.961 . S
H1112 C1096 0.931 1_565 S
H1113 C1101 0.930 . S
H1114 C1102 0.956 . S
H1115 C1102 0.961 . S
H1116 C1102 0.961 1_565 S
H1117 C1103 0.958 . S
H1118 C1103 0.961 . S
H1119 C1103 0.960 . S
C1120 C1121 1.391 1_545 S
C1120 C1122 1.394 1_545 S
C1120 H1136 0.931 . S
C1121 C1120 1.391 1_565 S
C1121 C1125 1.376 . S
C1122 C1120 1.394 1_565 S
C1122 C1123 1.369 . S
C1122 C1126 1.531 . S
C1123 C1122 1.369 . S
C1123 C1124 1.410 . S
C1123 C1131 1.503 . S
C1124 C1123 1.410 . S
C1124 C1125 1.392 . S
C1124 C1127 1.511 . S
C1125 C1121 1.376 . S
C1125 C1124 1.392 . S
C1125 H1137 0.929 . S
C1126 C1122 1.531 . S
C1126 H1138 0.960 . S
C1126 H1139 0.962 . S
C1126 H1140 0.960 1_565 S
C1127 C1124 1.511 . S
C1127 H1141 0.961 . S
C1127 H1142 0.961 . S
C1127 H1143 0.961 . S
C1128 C1129 1.370 . S
C1128 C1130 1.363 . S
C1128 H1144 0.931 . S
C1129 C1128 1.370 . S
C1129 C1133 1.408 . S
C1130 C1128 1.363 . S
C1130 C1131 1.370 . S
C1130 C1134 1.524 . S
C1131 C1123 1.503 . S
C1131 C1130 1.370 . S
C1131 C1132 1.403 . S
C1132 C1131 1.403 . S
C1132 C1133 1.404 . S
C1132 C1135 1.539 . S
C1133 C1129 1.408 . S
C1133 C1132 1.404 . S
C1133 H1145 0.930 . S
C1134 C1130 1.524 . S
C1134 H1146 0.956 . S
C1134 H1147 0.961 . S
C1134 H1148 0.961 . S
C1135 C1132 1.539 . S
C1135 H1149 0.958 . S
C1135 H1150 0.961 . S
C1135 H1151 0.960 . S
H1136 C1120 0.931 . S
H1137 C1125 0.929 . S
H1138 C1126 0.960 . S
H1139 C1126 0.962 . S
H1140 C1126 0.960 1_545 S
H1141 C1127 0.961 . S
H1142 C1127 0.961 . S
H1143 C1127 0.961 . S
H1144 C1128 0.931 . S
H1145 C1133 0.930 . S
H1146 C1134 0.956 . S
H1147 C1134 0.961 . S
H1148 C1134 0.961 . S
H1149 C1135 0.958 . S
H1150 C1135 0.961 . S
H1151 C1135 0.960 . S
C1152 C1153 1.391 . S
C1152 C1154 1.394 . S
C1152 H1168 0.931 . S
C1153 C1152 1.391 . S
C1153 C1157 1.376 . S
C1154 C1152 1.394 . S
C1154 C1155 1.369 . S
C1154 C1158 1.531 . S
C1155 C1154 1.369 . S
C1155 C1156 1.410 . S
C1155 C1163 1.503 . S
C1156 C1155 1.410 . S
C1156 C1157 1.392 . S
C1156 C1159 1.511 . S
C1157 C1153 1.376 . S
C1157 C1156 1.392 . S
C1157 H1169 0.929 . S
C1158 C1154 1.531 . S
C1158 H1170 0.960 . S
C1158 H1171 0.962 . S
C1158 H1172 0.960 . S
C1159 C1156 1.511 . S
C1159 H1173 0.961 . S
C1159 H1174 0.961 . S
C1159 H1175 0.961 . S
C1160 C1161 1.370 . S
C1160 C1162 1.363 . S
C1160 H1176 0.931 . S
C1161 C1160 1.370 . S
C1161 C1165 1.408 . S
C1162 C1160 1.363 . S
C1162 C1163 1.370 . S
C1162 C1166 1.524 . S
C1163 C1155 1.503 . S
C1163 C1162 1.370 . S
C1163 C1164 1.403 . S
C1164 C1163 1.403 . S
C1164 C1165 1.404 . S
C1164 C1167 1.539 . S
C1165 C1161 1.408 . S
C1165 C1164 1.404 . S
C1165 H1177 0.930 . S
C1166 C1162 1.524 . S
C1166 H1178 0.956 . S
C1166 H1179 0.961 . S
C1166 H1180 0.961 . S
C1167 C1164 1.539 . S
C1167 H1181 0.958 . S
C1167 H1182 0.961 . S
C1167 H1183 0.960 . S
H1168 C1152 0.931 . S
H1169 C1157 0.929 . S
H1170 C1158 0.960 . S
H1171 C1158 0.962 . S
H1172 C1158 0.960 . S
H1173 C1159 0.961 . S
H1174 C1159 0.961 . S
H1175 C1159 0.961 . S
H1176 C1160 0.931 . S
H1177 C1165 0.930 . S
H1178 C1166 0.956 . S
H1179 C1166 0.961 . S
H1180 C1166 0.961 . S
H1181 C1167 0.958 . S
H1182 C1167 0.961 . S
H1183 C1167 0.960 . S
C1184 C1185 1.391 . S
C1184 C1186 1.394 . S
C1184 H1200 0.931 . S
C1185 C1184 1.391 . S
C1185 C1189 1.376 . S
C1186 C1184 1.394 . S
C1186 C1187 1.369 . S
C1186 C1190 1.531 . S
C1187 C1186 1.369 . S
C1187 C1188 1.410 . S
C1187 C1195 1.503 . S
C1188 C1187 1.410 . S
C1188 C1189 1.392 . S
C1188 C1191 1.511 . S
C1189 C1185 1.376 . S
C1189 C1188 1.392 . S
C1189 H1201 0.929 . S
C1190 C1186 1.531 . S
C1190 H1202 0.960 . S
C1190 H1203 0.962 . S
C1190 H1204 0.960 . S
C1191 C1188 1.511 . S
C1191 H1205 0.961 . S
C1191 H1206 0.961 . S
C1191 H1207 0.961 . S
C1192 C1193 1.370 . S
C1192 C1194 1.363 . S
C1192 H1208 0.931 . S
C1193 C1192 1.370 . S
C1193 C1197 1.408 . S
C1194 C1192 1.363 . S
C1194 C1195 1.370 . S
C1194 C1198 1.524 . S
C1195 C1187 1.503 . S
C1195 C1194 1.370 . S
C1195 C1196 1.403 . S
C1196 C1195 1.403 . S
C1196 C1197 1.404 . S
C1196 C1199 1.539 . S
C1197 C1193 1.408 . S
C1197 C1196 1.404 . S
C1197 H1209 0.930 . S
C1198 C1194 1.524 . S
C1198 H1210 0.956 . S
C1198 H1211 0.961 . S
C1198 H1212 0.961 . S
C1199 C1196 1.539 . S
C1199 H1213 0.958 . S
C1199 H1214 0.961 . S
C1199 H1215 0.960 . S
H1200 C1184 0.931 . S
H1201 C1189 0.929 . S
H1202 C1190 0.960 . S
H1203 C1190 0.962 . S
H1204 C1190 0.960 . S
H1205 C1191 0.961 . S
H1206 C1191 0.961 . S
H1207 C1191 0.961 . S
H1208 C1192 0.931 . S
H1209 C1197 0.930 . S
H1210 C1198 0.956 . S
H1211 C1198 0.961 . S
H1212 C1198 0.961 . S
H1213 C1199 0.958 . S
H1214 C1199 0.961 . S
H1215 C1199 0.960 . S
C1216 C1217 1.391 . S
C1216 C1218 1.394 . S
C1216 H1232 0.931 . S
C1217 C1216 1.391 . S
C1217 C1221 1.376 . S
C1218 C1216 1.394 . S
C1218 C1219 1.369 . S
C1218 C1222 1.531 . S
C1219 C1218 1.369 . S
C1219 C1220 1.410 . S
C1219 C1227 1.503 . S
C1220 C1219 1.410 . S
C1220 C1221 1.392 . S
C1220 C1223 1.511 . S
C1221 C1217 1.376 . S
C1221 C1220 1.392 . S
C1221 H1233 0.929 . S
C1222 C1218 1.531 . S
C1222 H1234 0.960 . S
C1222 H1235 0.962 . S
C1222 H1236 0.960 . S
C1223 C1220 1.511 . S
C1223 H1237 0.961 . S
C1223 H1238 0.961 . S
C1223 H1239 0.961 . S
C1224 C1225 1.370 . S
C1224 C1226 1.363 . S
C1224 H1240 0.931 . S
C1225 C1224 1.370 . S
C1225 C1229 1.408 . S
C1226 C1224 1.363 . S
C1226 C1227 1.370 . S
C1226 C1230 1.524 . S
C1227 C1219 1.503 . S
C1227 C1226 1.370 . S
C1227 C1228 1.403 . S
C1228 C1227 1.403 . S
C1228 C1229 1.404 . S
C1228 C1231 1.539 . S
C1229 C1225 1.408 . S
C1229 C1228 1.404 . S
C1229 H1241 0.930 . S
C1230 C1226 1.524 . S
C1230 H1242 0.956 . S
C1230 H1243 0.961 . S
C1230 H1244 0.961 . S
C1231 C1228 1.539 . S
C1231 H1245 0.958 . S
C1231 H1246 0.961 . S
C1231 H1247 0.960 . S
H1232 C1216 0.931 . S
H1233 C1221 0.929 . S
H1234 C1222 0.960 . S
H1235 C1222 0.962 . S
H1236 C1222 0.960 . S
H1237 C1223 0.961 . S
H1238 C1223 0.961 . S
H1239 C1223 0.961 . S
H1240 C1224 0.931 . S
H1241 C1229 0.930 . S
H1242 C1230 0.956 . S
H1243 C1230 0.961 . S
H1244 C1230 0.961 . S
H1245 C1231 0.958 . S
H1246 C1231 0.961 . S
H1247 C1231 0.960 . S
C1248 C1249 1.391 . S
C1248 C1250 1.394 . S
C1248 H1264 0.931 . S
C1249 C1248 1.391 . S
C1249 C1253 1.376 . S
C1250 C1248 1.394 . S
C1250 C1251 1.369 . S
C1250 C1254 1.531 . S
C1251 C1250 1.369 . S
C1251 C1252 1.410 . S
C1251 C1259 1.503 . S
C1252 C1251 1.410 . S
C1252 C1253 1.392 . S
C1252 C1255 1.511 . S
C1253 C1249 1.376 . S
C1253 C1252 1.392 . S
C1253 H1265 0.929 . S
C1254 C1250 1.531 . S
C1254 H1266 0.960 . S
C1254 H1267 0.962 . S
C1254 H1268 0.960 . S
C1255 C1252 1.511 . S
C1255 H1269 0.961 . S
C1255 H1270 0.961 . S
C1255 H1271 0.961 . S
C1256 C1257 1.370 . S
C1256 C1258 1.363 . S
C1256 H1272 0.931 . S
C1257 C1256 1.370 . S
C1257 C1261 1.408 . S
C1258 C1256 1.363 . S
C1258 C1259 1.370 . S
C1258 C1262 1.524 . S
C1259 C1251 1.503 . S
C1259 C1258 1.370 . S
C1259 C1260 1.403 . S
C1260 C1259 1.403 . S
C1260 C1261 1.404 . S
C1260 C1263 1.539 . S
C1261 C1257 1.408 . S
C1261 C1260 1.404 . S
C1261 H1273 0.930 . S
C1262 C1258 1.524 . S
C1262 H1274 0.956 . S
C1262 H1275 0.961 . S
C1262 H1276 0.961 . S
C1263 C1260 1.539 . S
C1263 H1277 0.958 . S
C1263 H1278 0.961 . S
C1263 H1279 0.960 . S
H1264 C1248 0.931 . S
H1265 C1253 0.929 . S
H1266 C1254 0.960 . S
H1267 C1254 0.962 . S
H1268 C1254 0.960 . S
H1269 C1255 0.961 . S
H1270 C1255 0.961 . S
H1271 C1255 0.961 . S
H1272 C1256 0.931 . S
H1273 C1261 0.930 . S
H1274 C1262 0.956 . S
H1275 C1262 0.961 . S
H1276 C1262 0.961 . S
H1277 C1263 0.958 . S
H1278 C1263 0.961 . S
H1279 C1263 0.960 . S
C1280 C1281 1.391 . S
C1280 C1282 1.394 . S
C1280 H1296 0.931 . S
C1281 C1280 1.391 . S
C1281 C1285 1.376 . S
C1282 C1280 1.394 . S
C1282 C1283 1.369 . S
C1282 C1286 1.531 . S
C1283 C1282 1.369 . S
C1283 C1284 1.410 . S
C1283 C1291 1.503 . S
C1284 C1283 1.410 . S
C1284 C1285 1.392 . S
C1284 C1287 1.511 . S
C1285 C1281 1.376 . S
C1285 C1284 1.392 . S
C1285 H1297 0.929 . S
C1286 C1282 1.531 . S
C1286 H1298 0.960 . S
C1286 H1299 0.962 . S
C1286 H1300 0.960 . S
C1287 C1284 1.511 . S
C1287 H1301 0.961 . S
C1287 H1302 0.961 . S
C1287 H1303 0.961 . S
C1288 C1289 1.370 . S
C1288 C1290 1.363 . S
C1288 H1304 0.931 . S
C1289 C1288 1.370 . S
C1289 C1293 1.408 . S
C1290 C1288 1.363 . S
C1290 C1291 1.370 . S
C1290 C1294 1.524 . S
C1291 C1283 1.503 . S
C1291 C1290 1.370 . S
C1291 C1292 1.403 . S
C1292 C1291 1.403 . S
C1292 C1293 1.404 . S
C1292 C1295 1.539 . S
C1293 C1289 1.408 . S
C1293 C1292 1.404 . S
C1293 H1305 0.930 . S
C1294 C1290 1.524 . S
C1294 H1306 0.956 . S
C1294 H1307 0.961 . S
C1294 H1308 0.961 . S
C1295 C1292 1.539 . S
C1295 H1309 0.958 . S
C1295 H1310 0.961 . S
C1295 H1311 0.960 . S
H1296 C1280 0.931 . S
H1297 C1285 0.929 . S
H1298 C1286 0.960 . S
H1299 C1286 0.962 . S
H1300 C1286 0.960 . S
H1301 C1287 0.961 . S
H1302 C1287 0.961 . S
H1303 C1287 0.961 . S
H1304 C1288 0.931 . S
H1305 C1293 0.930 . S
H1306 C1294 0.956 . S
H1307 C1294 0.961 . S
H1308 C1294 0.961 . S
H1309 C1295 0.958 . S
H1310 C1295 0.961 . S
H1311 C1295 0.960 . S
C1312 C1313 1.391 . S
C1312 C1314 1.394 . S
C1312 H1328 0.931 . S
C1313 C1312 1.391 . S
C1313 C1317 1.376 . S
C1314 C1312 1.394 . S
C1314 C1315 1.369 . S
C1314 C1318 1.531 . S
C1315 C1314 1.369 . S
C1315 C1316 1.410 . S
C1315 C1323 1.503 . S
C1316 C1315 1.410 . S
C1316 C1317 1.392 . S
C1316 C1319 1.511 . S
C1317 C1313 1.376 . S
C1317 C1316 1.392 . S
C1317 H1329 0.929 . S
C1318 C1314 1.531 . S
C1318 H1330 0.960 . S
C1318 H1331 0.962 . S
C1318 H1332 0.960 . S
C1319 C1316 1.511 . S
C1319 H1333 0.961 . S
C1319 H1334 0.961 . S
C1319 H1335 0.961 . S
C1320 C1321 1.370 . S
C1320 C1322 1.363 . S
C1320 H1336 0.931 . S
C1321 C1320 1.370 . S
C1321 C1325 1.408 . S
C1322 C1320 1.363 . S
C1322 C1323 1.370 . S
C1322 C1326 1.524 . S
C1323 C1315 1.503 . S
C1323 C1322 1.370 . S
C1323 C1324 1.403 . S
C1324 C1323 1.403 . S
C1324 C1325 1.404 . S
C1324 C1327 1.539 . S
C1325 C1321 1.408 . S
C1325 C1324 1.404 . S
C1325 H1337 0.930 . S
C1326 C1322 1.524 . S
C1326 H1338 0.956 . S
C1326 H1339 0.961 . S
C1326 H1340 0.961 . S
C1327 C1324 1.539 . S
C1327 H1341 0.958 . S
C1327 H1342 0.961 . S
C1327 H1343 0.960 . S
H1328 C1312 0.931 . S
H1329 C1317 0.929 . S
H1330 C1318 0.960 . S
H1331 C1318 0.962 . S
H1332 C1318 0.960 . S
H1333 C1319 0.961 . S
H1334 C1319 0.961 . S
H1335 C1319 0.961 . S
H1336 C1320 0.931 . S
H1337 C1325 0.930 . S
H1338 C1326 0.956 . S
H1339 C1326 0.961 . S
H1340 C1326 0.961 . S
H1341 C1327 0.958 . S
H1342 C1327 0.961 . S
H1343 C1327 0.960 . S
C1344 C1345 1.391 . S
C1344 C1346 1.394 . S
C1344 H1360 0.931 . S
C1345 C1344 1.391 . S
C1345 C1349 1.376 . S
C1346 C1344 1.394 . S
C1346 C1347 1.369 . S
C1346 C1350 1.531 . S
C1347 C1346 1.369 . S
C1347 C1348 1.410 . S
C1347 C1355 1.503 . S
C1348 C1347 1.410 . S
C1348 C1349 1.392 . S
C1348 C1351 1.511 . S
C1349 C1345 1.376 . S
C1349 C1348 1.392 . S
C1349 H1361 0.929 . S
C1350 C1346 1.531 . S
C1350 H1362 0.960 . S
C1350 H1363 0.962 . S
C1350 H1364 0.960 . S
C1351 C1348 1.511 . S
C1351 H1365 0.961 . S
C1351 H1366 0.961 . S
C1351 H1367 0.961 . S
C1352 C1353 1.370 . S
C1352 C1354 1.363 . S
C1352 H1368 0.931 . S
C1353 C1352 1.370 . S
C1353 C1357 1.408 . S
C1354 C1352 1.363 . S
C1354 C1355 1.370 . S
C1354 C1358 1.524 . S
C1355 C1347 1.503 . S
C1355 C1354 1.370 . S
C1355 C1356 1.403 . S
C1356 C1355 1.403 . S
C1356 C1357 1.404 . S
C1356 C1359 1.539 . S
C1357 C1353 1.408 . S
C1357 C1356 1.404 . S
C1357 H1369 0.930 . S
C1358 C1354 1.524 . S
C1358 H1370 0.956 . S
C1358 H1371 0.961 . S
C1358 H1372 0.961 . S
C1359 C1356 1.539 . S
C1359 H1373 0.958 . S
C1359 H1374 0.961 . S
C1359 H1375 0.960 . S
H1360 C1344 0.931 . S
H1361 C1349 0.929 . S
H1362 C1350 0.960 . S
H1363 C1350 0.962 . S
H1364 C1350 0.960 . S
H1365 C1351 0.961 . S
H1366 C1351 0.961 . S
H1367 C1351 0.961 . S
H1368 C1352 0.931 . S
H1369 C1357 0.930 . S
H1370 C1358 0.956 . S
H1371 C1358 0.961 . S
H1372 C1358 0.961 . S
H1373 C1359 0.958 . S
H1374 C1359 0.961 . S
H1375 C1359 0.960 . S
C1376 C1377 1.391 . S
C1376 C1378 1.394 . S
C1376 H1392 0.931 . S
C1377 C1376 1.391 . S
C1377 C1381 1.376 . S
C1378 C1376 1.394 . S
C1378 C1379 1.369 . S
C1378 C1382 1.531 . S
C1379 C1378 1.369 . S
C1379 C1380 1.410 . S
C1379 C1387 1.503 . S
C1380 C1379 1.410 . S
C1380 C1381 1.392 . S
C1380 C1383 1.511 . S
C1381 C1377 1.376 . S
C1381 C1380 1.392 . S
C1381 H1393 0.929 . S
C1382 C1378 1.531 . S
C1382 H1394 0.960 . S
C1382 H1395 0.962 . S
C1382 H1396 0.960 . S
C1383 C1380 1.511 . S
C1383 H1397 0.961 . S
C1383 H1398 0.961 . S
C1383 H1399 0.961 . S
C1384 C1385 1.370 . S
C1384 C1386 1.363 . S
C1384 H1400 0.931 . S
C1385 C1384 1.370 . S
C1385 C1389 1.408 . S
C1386 C1384 1.363 . S
C1386 C1387 1.370 . S
C1386 C1390 1.524 . S
C1387 C1379 1.503 . S
C1387 C1386 1.370 . S
C1387 C1388 1.403 . S
C1388 C1387 1.403 . S
C1388 C1389 1.404 . S
C1388 C1391 1.539 . S
C1389 C1385 1.408 . S
C1389 C1388 1.404 . S
C1389 H1401 0.930 . S
C1390 C1386 1.524 . S
C1390 H1402 0.956 . S
C1390 H1403 0.961 . S
C1390 H1404 0.961 . S
C1391 C1388 1.539 . S
C1391 H1405 0.958 . S
C1391 H1406 0.961 . S
C1391 H1407 0.960 . S
H1392 C1376 0.931 . S
H1393 C1381 0.929 . S
H1394 C1382 0.960 . S
H1395 C1382 0.962 . S
H1396 C1382 0.960 . S
H1397 C1383 0.961 . S
H1398 C1383 0.961 . S
H1399 C1383 0.961 . S
H1400 C1384 0.931 . S
H1401 C1389 0.930 . S
H1402 C1390 0.956 . S
H1403 C1390 0.961 . S
H1404 C1390 0.961 . S
H1405 C1391 0.958 . S
H1406 C1391 0.961 . S
H1407 C1391 0.960 . S
C1408 C1409 1.391 . S
C1408 C1410 1.394 . S
C1408 H1424 0.931 . S
C1409 C1408 1.391 . S
C1409 C1413 1.376 . S
C1410 C1408 1.394 . S
C1410 C1411 1.369 . S
C1410 C1414 1.531 . S
C1411 C1410 1.369 . S
C1411 C1412 1.410 . S
C1411 C1419 1.503 . S
C1412 C1411 1.410 . S
C1412 C1413 1.392 . S
C1412 C1415 1.511 . S
C1413 C1409 1.376 . S
C1413 C1412 1.392 . S
C1413 H1425 0.929 . S
C1414 C1410 1.531 . S
C1414 H1426 0.960 . S
C1414 H1427 0.962 . S
C1414 H1428 0.960 . S
C1415 C1412 1.511 . S
C1415 H1429 0.961 . S
C1415 H1430 0.961 . S
C1415 H1431 0.961 . S
C1416 C1417 1.370 . S
C1416 C1418 1.363 . S
C1416 H1432 0.931 . S
C1417 C1416 1.370 . S
C1417 C1421 1.408 . S
C1418 C1416 1.363 . S
C1418 C1419 1.370 . S
C1418 C1422 1.524 . S
C1419 C1411 1.503 . S
C1419 C1418 1.370 . S
C1419 C1420 1.403 . S
C1420 C1419 1.403 . S
C1420 C1421 1.404 . S
C1420 C1423 1.539 . S
C1421 C1417 1.408 . S
C1421 C1420 1.404 . S
C1421 H1433 0.930 . S
C1422 C1418 1.524 . S
C1422 H1434 0.956 . S
C1422 H1435 0.961 . S
C1422 H1436 0.961 . S
C1423 C1420 1.539 . S
C1423 H1437 0.958 . S
C1423 H1438 0.961 . S
C1423 H1439 0.960 . S
H1424 C1408 0.931 . S
H1425 C1413 0.929 . S
H1426 C1414 0.960 . S
H1427 C1414 0.962 . S
H1428 C1414 0.960 . S
H1429 C1415 0.961 . S
H1430 C1415 0.961 . S
H1431 C1415 0.961 . S
H1432 C1416 0.931 . S
H1433 C1421 0.930 . S
H1434 C1422 0.956 . S
H1435 C1422 0.961 . S
H1436 C1422 0.961 . S
H1437 C1423 0.958 . S
H1438 C1423 0.961 . S
H1439 C1423 0.960 . S
C1440 C1441 1.391 . S
C1440 C1442 1.394 . S
C1440 H1456 0.931 . S
C1441 C1440 1.391 . S
C1441 C1445 1.376 . S
C1442 C1440 1.394 . S
C1442 C1443 1.369 . S
C1442 C1446 1.531 . S
C1443 C1442 1.369 . S
C1443 C1444 1.410 . S
C1443 C1451 1.503 . S
C1444 C1443 1.410 . S
C1444 C1445 1.392 . S
C1444 C1447 1.511 . S
C1445 C1441 1.376 . S
C1445 C1444 1.392 . S
C1445 H1457 0.929 . S
C1446 C1442 1.531 . S
C1446 H1458 0.960 . S
C1446 H1459 0.962 . S
C1446 H1460 0.960 . S
C1447 C1444 1.511 . S
C1447 H1461 0.961 . S
C1447 H1462 0.961 . S
C1447 H1463 0.961 . S
C1448 C1449 1.370 . S
C1448 C1450 1.363 . S
C1448 H1464 0.931 . S
C1449 C1448 1.370 . S
C1449 C1453 1.408 . S
C1450 C1448 1.363 . S
C1450 C1451 1.370 . S
C1450 C1454 1.524 . S
C1451 C1443 1.503 . S
C1451 C1450 1.370 . S
C1451 C1452 1.403 . S
C1452 C1451 1.403 . S
C1452 C1453 1.404 . S
C1452 C1455 1.539 . S
C1453 C1449 1.408 . S
C1453 C1452 1.404 . S
C1453 H1465 0.930 . S
C1454 C1450 1.524 . S
C1454 H1466 0.956 . S
C1454 H1467 0.961 . S
C1454 H1468 0.961 . S
C1455 C1452 1.539 . S
C1455 H1469 0.958 . S
C1455 H1470 0.961 . S
C1455 H1471 0.960 . S
H1456 C1440 0.931 . S
H1457 C1445 0.929 . S
H1458 C1446 0.960 . S
H1459 C1446 0.962 . S
H1460 C1446 0.960 . S
H1461 C1447 0.961 . S
H1462 C1447 0.961 . S
H1463 C1447 0.961 . S
H1464 C1448 0.931 . S
H1465 C1453 0.930 . S
H1466 C1454 0.956 . S
H1467 C1454 0.961 . S
H1468 C1454 0.961 . S
H1469 C1455 0.958 . S
H1470 C1455 0.961 . S
H1471 C1455 0.960 . S
C1472 C1473 1.391 . S
C1472 C1474 1.394 . S
C1472 H1488 0.931 . S
C1473 C1472 1.391 . S
C1473 C1477 1.376 . S
C1474 C1472 1.394 . S
C1474 C1475 1.369 . S
C1474 C1478 1.531 . S
C1475 C1474 1.369 . S
C1475 C1476 1.410 . S
C1475 C1483 1.503 . S
C1476 C1475 1.410 . S
C1476 C1477 1.392 . S
C1476 C1479 1.511 . S
C1477 C1473 1.376 . S
C1477 C1476 1.392 . S
C1477 H1489 0.929 . S
C1478 C1474 1.531 . S
C1478 H1490 0.960 . S
C1478 H1491 0.962 . S
C1478 H1492 0.960 . S
C1479 C1476 1.511 . S
C1479 H1493 0.961 . S
C1479 H1494 0.961 . S
C1479 H1495 0.961 . S
C1480 C1481 1.370 . S
C1480 C1482 1.363 . S
C1480 H1496 0.931 . S
C1481 C1480 1.370 . S
C1481 C1485 1.408 . S
C1482 C1480 1.363 . S
C1482 C1483 1.370 . S
C1482 C1486 1.524 . S
C1483 C1475 1.503 . S
C1483 C1482 1.370 . S
C1483 C1484 1.403 . S
C1484 C1483 1.403 . S
C1484 C1485 1.404 . S
C1484 C1487 1.539 . S
C1485 C1481 1.408 . S
C1485 C1484 1.404 . S
C1485 H1497 0.930 . S
C1486 C1482 1.524 . S
C1486 H1498 0.956 . S
C1486 H1499 0.961 . S
C1486 H1500 0.961 . S
C1487 C1484 1.539 . S
C1487 H1501 0.958 . S
C1487 H1502 0.961 . S
C1487 H1503 0.960 . S
H1488 C1472 0.931 . S
H1489 C1477 0.929 . S
H1490 C1478 0.960 . S
H1491 C1478 0.962 . S
H1492 C1478 0.960 . S
H1493 C1479 0.961 . S
H1494 C1479 0.961 . S
H1495 C1479 0.961 . S
H1496 C1480 0.931 . S
H1497 C1485 0.930 . S
H1498 C1486 0.956 . S
H1499 C1486 0.961 . S
H1500 C1486 0.961 . S
H1501 C1487 0.958 . S
H1502 C1487 0.961 . S
H1503 C1487 0.960 . S
C1504 C1505 1.391 . S
C1504 C1506 1.394 . S
C1504 H1520 0.931 . S
C1505 C1504 1.391 . S
C1505 C1509 1.376 . S
C1506 C1504 1.394 . S
C1506 C1507 1.369 . S
C1506 C1510 1.531 . S
C1507 C1506 1.369 . S
C1507 C1508 1.410 . S
C1507 C1515 1.503 . S
C1508 C1507 1.410 . S
C1508 C1509 1.392 . S
C1508 C1511 1.511 . S
C1509 C1505 1.376 . S
C1509 C1508 1.392 . S
C1509 H1521 0.929 . S
C1510 C1506 1.531 . S
C1510 H1522 0.960 . S
C1510 H1523 0.962 . S
C1510 H1524 0.960 . S
C1511 C1508 1.511 . S
C1511 H1525 0.961 . S
C1511 H1526 0.961 . S
C1511 H1527 0.961 . S
C1512 C1513 1.370 1_455 S
C1512 C1514 1.363 . S
C1512 H1528 0.931 1_455 S
C1513 C1512 1.370 1_655 S
C1513 C1517 1.408 1_655 S
C1514 C1512 1.363 . S
C1514 C1515 1.370 . S
C1514 C1518 1.524 . S
C1515 C1507 1.503 . S
C1515 C1514 1.370 . S
C1515 C1516 1.403 . S
C1516 C1515 1.403 . S
C1516 C1517 1.404 . S
C1516 C1519 1.539 . S
C1517 C1513 1.408 1_455 S
C1517 C1516 1.404 . S
C1517 H1529 0.930 1_455 S
C1518 C1514 1.524 . S
C1518 H1530 0.956 . S
C1518 H1531 0.961 . S
C1518 H1532 0.961 . S
C1519 C1516 1.539 . S
C1519 H1533 0.958 . S
C1519 H1534 0.961 . S
C1519 H1535 0.960 . S
H1520 C1504 0.931 . S
H1521 C1509 0.929 . S
H1522 C1510 0.960 . S
H1523 C1510 0.962 . S
H1524 C1510 0.960 . S
H1525 C1511 0.961 . S
H1526 C1511 0.961 . S
H1527 C1511 0.961 . S
H1528 C1512 0.931 1_655 S
H1529 C1517 0.930 1_655 S
H1530 C1518 0.956 . S
H1531 C1518 0.961 . S
H1532 C1518 0.961 . S
H1533 C1519 0.958 . S
H1534 C1519 0.961 . S
H1535 C1519 0.960 . S
C1536 C1537 1.391 . S
C1536 C1538 1.394 . S
C1536 H1552 0.931 . S
C1537 C1536 1.391 . S
C1537 C1541 1.376 . S
C1538 C1536 1.394 . S
C1538 C1539 1.369 . S
C1538 C1542 1.531 . S
C1539 C1538 1.369 . S
C1539 C1540 1.410 . S
C1539 C1547 1.503 . S
C1540 C1539 1.410 . S
C1540 C1541 1.392 . S
C1540 C1543 1.511 . S
C1541 C1537 1.376 . S
C1541 C1540 1.392 . S
C1541 H1553 0.929 . S
C1542 C1538 1.531 . S
C1542 H1554 0.960 . S
C1542 H1555 0.962 . S
C1542 H1556 0.960 . S
C1543 C1540 1.511 . S
C1543 H1557 0.961 . S
C1543 H1558 0.961 . S
C1543 H1559 0.961 . S
C1544 C1545 1.370 . S
C1544 C1546 1.363 . S
C1544 H1560 0.931 . S
C1545 C1544 1.370 . S
C1545 C1549 1.408 . S
C1546 C1544 1.363 . S
C1546 C1547 1.370 . S
C1546 C1550 1.524 . S
C1547 C1539 1.503 . S
C1547 C1546 1.370 . S
C1547 C1548 1.403 . S
C1548 C1547 1.403 . S
C1548 C1549 1.404 . S
C1548 C1551 1.539 . S
C1549 C1545 1.408 . S
C1549 C1548 1.404 . S
C1549 H1561 0.930 . S
C1550 C1546 1.524 . S
C1550 H1562 0.956 . S
C1550 H1563 0.961 . S
C1550 H1564 0.961 . S
C1551 C1548 1.539 . S
C1551 H1565 0.958 . S
C1551 H1566 0.961 . S
C1551 H1567 0.960 . S
H1552 C1536 0.931 . S
H1553 C1541 0.929 . S
H1554 C1542 0.960 . S
H1555 C1542 0.962 . S
H1556 C1542 0.960 . S
H1557 C1543 0.961 . S
H1558 C1543 0.961 . S
H1559 C1543 0.961 . S
H1560 C1544 0.931 . S
H1561 C1549 0.930 . S
H1562 C1550 0.956 . S
H1563 C1550 0.961 . S
H1564 C1550 0.961 . S
H1565 C1551 0.958 . S
H1566 C1551 0.961 . S
H1567 C1551 0.960 . S
C1568 C1569 1.391 . S
C1568 C1570 1.394 . S
C1568 H1584 0.931 . S
C1569 C1568 1.391 . S
C1569 C1573 1.376 . S
C1570 C1568 1.394 . S
C1570 C1571 1.369 . S
C1570 C1574 1.531 . S
C1571 C1570 1.369 . S
C1571 C1572 1.410 . S
C1571 C1579 1.503 . S
C1572 C1571 1.410 . S
C1572 C1573 1.392 . S
C1572 C1575 1.511 . S
C1573 C1569 1.376 . S
C1573 C1572 1.392 . S
C1573 H1585 0.929 . S
C1574 C1570 1.531 . S
C1574 H1586 0.960 . S
C1574 H1587 0.962 . S
C1574 H1588 0.960 . S
C1575 C1572 1.511 . S
C1575 H1589 0.961 . S
C1575 H1590 0.961 . S
C1575 H1591 0.961 . S
C1576 C1577 1.370 . S
C1576 C1578 1.363 . S
C1576 H1592 0.931 . S
C1577 C1576 1.370 . S
C1577 C1581 1.408 . S
C1578 C1576 1.363 . S
C1578 C1579 1.370 . S
C1578 C1582 1.524 . S
C1579 C1571 1.503 . S
C1579 C1578 1.370 . S
C1579 C1580 1.403 . S
C1580 C1579 1.403 . S
C1580 C1581 1.404 . S
C1580 C1583 1.539 . S
C1581 C1577 1.408 . S
C1581 C1580 1.404 . S
C1581 H1593 0.930 . S
C1582 C1578 1.524 . S
C1582 H1594 0.956 . S
C1582 H1595 0.961 . S
C1582 H1596 0.961 . S
C1583 C1580 1.539 . S
C1583 H1597 0.958 . S
C1583 H1598 0.961 . S
C1583 H1599 0.960 . S
H1584 C1568 0.931 . S
H1585 C1573 0.929 . S
H1586 C1574 0.960 . S
H1587 C1574 0.962 . S
H1588 C1574 0.960 . S
H1589 C1575 0.961 . S
H1590 C1575 0.961 . S
H1591 C1575 0.961 . S
H1592 C1576 0.931 . S
H1593 C1581 0.930 . S
H1594 C1582 0.956 . S
H1595 C1582 0.961 . S
H1596 C1582 0.961 . S
H1597 C1583 0.958 . S
H1598 C1583 0.961 . S
H1599 C1583 0.960 . S
C1600 C1601 1.391 . S
C1600 C1602 1.394 . S
C1600 H1616 0.931 . S
C1601 C1600 1.391 . S
C1601 C1605 1.376 . S
C1602 C1600 1.394 . S
C1602 C1603 1.369 . S
C1602 C1606 1.531 . S
C1603 C1602 1.369 . S
C1603 C1604 1.410 . S
C1603 C1611 1.503 . S
C1604 C1603 1.410 . S
C1604 C1605 1.392 . S
C1604 C1607 1.511 . S
C1605 C1601 1.376 . S
C1605 C1604 1.392 . S
C1605 H1617 0.929 . S
C1606 C1602 1.531 . S
C1606 H1618 0.960 . S
C1606 H1619 0.962 . S
C1606 H1620 0.960 . S
C1607 C1604 1.511 . S
C1607 H1621 0.961 . S
C1607 H1622 0.961 . S
C1607 H1623 0.961 . S
C1608 C1609 1.370 . S
C1608 C1610 1.363 . S
C1608 H1624 0.931 . S
C1609 C1608 1.370 . S
C1609 C1613 1.408 . S
C1610 C1608 1.363 . S
C1610 C1611 1.370 . S
C1610 C1614 1.524 . S
C1611 C1603 1.503 . S
C1611 C1610 1.370 . S
C1611 C1612 1.403 . S
C1612 C1611 1.403 . S
C1612 C1613 1.404 . S
C1612 C1615 1.539 . S
C1613 C1609 1.408 . S
C1613 C1612 1.404 . S
C1613 H1625 0.930 . S
C1614 C1610 1.524 . S
C1614 H1626 0.956 . S
C1614 H1627 0.961 . S
C1614 H1628 0.961 . S
C1615 C1612 1.539 . S
C1615 H1629 0.958 . S
C1615 H1630 0.961 . S
C1615 H1631 0.960 . S
H1616 C1600 0.931 . S
H1617 C1605 0.929 . S
H1618 C1606 0.960 . S
H1619 C1606 0.962 . S
H1620 C1606 0.960 . S
H1621 C1607 0.961 . S
H1622 C1607 0.961 . S
H1623 C1607 0.961 . S
H1624 C1608 0.931 . S
H1625 C1613 0.930 . S
H1626 C1614 0.956 . S
H1627 C1614 0.961 . S
H1628 C1614 0.961 . S
H1629 C1615 0.958 . S
H1630 C1615 0.961 . S
H1631 C1615 0.960 . S
C1632 C1633 1.391 . S
C1632 C1634 1.394 . S
C1632 H1648 0.931 . S
C1633 C1632 1.391 . S
C1633 C1637 1.376 . S
C1634 C1632 1.394 . S
C1634 C1635 1.369 . S
C1634 C1638 1.531 . S
C1635 C1634 1.369 . S
C1635 C1636 1.410 . S
C1635 C1643 1.503 . S
C1636 C1635 1.410 . S
C1636 C1637 1.392 . S
C1636 C1639 1.511 . S
C1637 C1633 1.376 . S
C1637 C1636 1.392 . S
C1637 H1649 0.929 . S
C1638 C1634 1.531 . S
C1638 H1650 0.960 . S
C1638 H1651 0.962 . S
C1638 H1652 0.960 . S
C1639 C1636 1.511 . S
C1639 H1653 0.961 . S
C1639 H1654 0.961 . S
C1639 H1655 0.961 . S
C1640 C1641 1.370 . S
C1640 C1642 1.363 . S
C1640 H1656 0.931 . S
C1641 C1640 1.370 . S
C1641 C1645 1.408 . S
C1642 C1640 1.363 . S
C1642 C1643 1.370 . S
C1642 C1646 1.524 . S
C1643 C1635 1.503 . S
C1643 C1642 1.370 . S
C1643 C1644 1.403 . S
C1644 C1643 1.403 . S
C1644 C1645 1.404 . S
C1644 C1647 1.539 . S
C1645 C1641 1.408 . S
C1645 C1644 1.404 . S
C1645 H1657 0.930 . S
C1646 C1642 1.524 . S
C1646 H1658 0.956 . S
C1646 H1659 0.961 . S
C1646 H1660 0.961 . S
C1647 C1644 1.539 . S
C1647 H1661 0.958 . S
C1647 H1662 0.961 . S
C1647 H1663 0.960 . S
H1648 C1632 0.931 . S
H1649 C1637 0.929 . S
H1650 C1638 0.960 . S
H1651 C1638 0.962 . S
H1652 C1638 0.960 . S
H1653 C1639 0.961 . S
H1654 C1639 0.961 . S
H1655 C1639 0.961 . S
H1656 C1640 0.931 . S
H1657 C1645 0.930 . S
H1658 C1646 0.956 . S
H1659 C1646 0.961 . S
H1660 C1646 0.961 . S
H1661 C1647 0.958 . S
H1662 C1647 0.961 . S
H1663 C1647 0.960 . S
C1664 C1665 1.391 . S
C1664 C1666 1.394 . S
C1664 H1680 0.931 . S
C1665 C1664 1.391 . S
C1665 C1669 1.376 . S
C1666 C1664 1.394 . S
C1666 C1667 1.369 . S
C1666 C1670 1.531 . S
C1667 C1666 1.369 . S
C1667 C1668 1.410 . S
C1667 C1675 1.503 . S
C1668 C1667 1.410 . S
C1668 C1669 1.392 . S
C1668 C1671 1.511 . S
C1669 C1665 1.376 . S
C1669 C1668 1.392 . S
C1669 H1681 0.929 . S
C1670 C1666 1.531 . S
C1670 H1682 0.960 . S
C1670 H1683 0.962 . S
C1670 H1684 0.960 . S
C1671 C1668 1.511 . S
C1671 H1685 0.961 . S
C1671 H1686 0.961 . S
C1671 H1687 0.961 . S
C1672 C1673 1.370 . S
C1672 C1674 1.363 . S
C1672 H1688 0.931 . S
C1673 C1672 1.370 . S
C1673 C1677 1.408 . S
C1674 C1672 1.363 . S
C1674 C1675 1.370 . S
C1674 C1678 1.524 . S
C1675 C1667 1.503 . S
C1675 C1674 1.370 . S
C1675 C1676 1.403 . S
C1676 C1675 1.403 . S
C1676 C1677 1.404 . S
C1676 C1679 1.539 . S
C1677 C1673 1.408 . S
C1677 C1676 1.404 . S
C1677 H1689 0.930 . S
C1678 C1674 1.524 . S
C1678 H1690 0.956 . S
C1678 H1691 0.961 . S
C1678 H1692 0.961 . S
C1679 C1676 1.539 . S
C1679 H1693 0.958 . S
C1679 H1694 0.961 . S
C1679 H1695 0.960 . S
H1680 C1664 0.931 . S
H1681 C1669 0.929 . S
H1682 C1670 0.960 . S
H1683 C1670 0.962 . S
H1684 C1670 0.960 . S
H1685 C1671 0.961 . S
H1686 C1671 0.961 . S
H1687 C1671 0.961 . S
H1688 C1672 0.931 . S
H1689 C1677 0.930 . S
H1690 C1678 0.956 . S
H1691 C1678 0.961 . S
H1692 C1678 0.961 . S
H1693 C1679 0.958 . S
H1694 C1679 0.961 . S
H1695 C1679 0.960 . S
C1696 C1697 1.391 . S
C1696 C1698 1.394 . S
C1696 H1712 0.931 . S
C1697 C1696 1.391 . S
C1697 C1701 1.376 . S
C1698 C1696 1.394 . S
C1698 C1699 1.369 . S
C1698 C1702 1.531 . S
C1699 C1698 1.369 . S
C1699 C1700 1.410 . S
C1699 C1707 1.503 . S
C1700 C1699 1.410 . S
C1700 C1701 1.392 . S
C1700 C1703 1.511 . S
C1701 C1697 1.376 . S
C1701 C1700 1.392 . S
C1701 H1713 0.929 . S
C1702 C1698 1.531 . S
C1702 H1714 0.960 . S
C1702 H1715 0.962 . S
C1702 H1716 0.960 . S
C1703 C1700 1.511 . S
C1703 H1717 0.961 . S
C1703 H1718 0.961 . S
C1703 H1719 0.961 . S
C1704 C1705 1.370 1_455 S
C1704 C1706 1.363 . S
C1704 H1720 0.931 1_455 S
C1705 C1704 1.370 1_655 S
C1705 C1709 1.408 1_655 S
C1706 C1704 1.363 . S
C1706 C1707 1.370 . S
C1706 C1710 1.524 . S
C1707 C1699 1.503 . S
C1707 C1706 1.370 . S
C1707 C1708 1.403 . S
C1708 C1707 1.403 . S
C1708 C1709 1.404 . S
C1708 C1711 1.539 . S
C1709 C1705 1.408 1_455 S
C1709 C1708 1.404 . S
C1709 H1721 0.930 1_455 S
C1710 C1706 1.524 . S
C1710 H1722 0.956 . S
C1710 H1723 0.961 . S
C1710 H1724 0.961 . S
C1711 C1708 1.539 . S
C1711 H1725 0.958 . S
C1711 H1726 0.961 . S
C1711 H1727 0.960 . S
H1712 C1696 0.931 . S
H1713 C1701 0.929 . S
H1714 C1702 0.960 . S
H1715 C1702 0.962 . S
H1716 C1702 0.960 . S
H1717 C1703 0.961 . S
H1718 C1703 0.961 . S
H1719 C1703 0.961 . S
H1720 C1704 0.931 1_655 S
H1721 C1709 0.930 1_655 S
H1722 C1710 0.956 . S
H1723 C1710 0.961 . S
H1724 C1710 0.961 . S
H1725 C1711 0.958 . S
H1726 C1711 0.961 . S
H1727 C1711 0.960 . S
C1728 C1729 1.391 . S
C1728 C1730 1.394 . S
C1728 H1744 0.931 . S
C1729 C1728 1.391 . S
C1729 C1733 1.376 . S
C1730 C1728 1.394 . S
C1730 C1731 1.369 . S
C1730 C1734 1.531 . S
C1731 C1730 1.369 . S
C1731 C1732 1.410 . S
C1731 C1739 1.503 . S
C1732 C1731 1.410 . S
C1732 C1733 1.392 . S
C1732 C1735 1.511 . S
C1733 C1729 1.376 . S
C1733 C1732 1.392 . S
C1733 H1745 0.929 . S
C1734 C1730 1.531 . S
C1734 H1746 0.960 . S
C1734 H1747 0.962 . S
C1734 H1748 0.960 . S
C1735 C1732 1.511 . S
C1735 H1749 0.961 . S
C1735 H1750 0.961 . S
C1735 H1751 0.961 . S
C1736 C1737 1.370 . S
C1736 C1738 1.363 . S
C1736 H1752 0.931 . S
C1737 C1736 1.370 . S
C1737 C1741 1.408 . S
C1738 C1736 1.363 . S
C1738 C1739 1.370 . S
C1738 C1742 1.524 . S
C1739 C1731 1.503 . S
C1739 C1738 1.370 . S
C1739 C1740 1.403 . S
C1740 C1739 1.403 . S
C1740 C1741 1.404 . S
C1740 C1743 1.539 . S
C1741 C1737 1.408 . S
C1741 C1740 1.404 . S
C1741 H1753 0.930 . S
C1742 C1738 1.524 . S
C1742 H1754 0.956 . S
C1742 H1755 0.961 . S
C1742 H1756 0.961 . S
C1743 C1740 1.539 . S
C1743 H1757 0.958 . S
C1743 H1758 0.961 . S
C1743 H1759 0.960 . S
H1744 C1728 0.931 . S
H1745 C1733 0.929 . S
H1746 C1734 0.960 . S
H1747 C1734 0.962 . S
H1748 C1734 0.960 . S
H1749 C1735 0.961 . S
H1750 C1735 0.961 . S
H1751 C1735 0.961 . S
H1752 C1736 0.931 . S
H1753 C1741 0.930 . S
H1754 C1742 0.956 . S
H1755 C1742 0.961 . S
H1756 C1742 0.961 . S
H1757 C1743 0.958 . S
H1758 C1743 0.961 . S
H1759 C1743 0.960 . S
C1760 C1761 1.391 . S
C1760 C1762 1.394 1_455 S
C1760 H1776 0.931 . S
C1761 C1760 1.391 . S
C1761 C1765 1.376 1_455 S
C1762 C1760 1.394 1_655 S
C1762 C1763 1.369 . S
C1762 C1766 1.531 . S
C1763 C1762 1.369 . S
C1763 C1764 1.410 . S
C1763 C1771 1.503 . S
C1764 C1763 1.410 . S
C1764 C1765 1.392 . S
C1764 C1767 1.511 . S
C1765 C1761 1.376 1_655 S
C1765 C1764 1.392 . S
C1765 H1777 0.929 . S
C1766 C1762 1.531 . S
C1766 H1778 0.960 . S
C1766 H1779 0.962 . S
C1766 H1780 0.960 . S
C1767 C1764 1.511 . S
C1767 H1781 0.961 . S
C1767 H1782 0.961 . S
C1767 H1783 0.961 . S
C1768 C1769 1.370 . S
C1768 C1770 1.363 . S
C1768 H1784 0.931 . S
C1769 C1768 1.370 . S
C1769 C1773 1.408 . S
C1770 C1768 1.363 . S
C1770 C1771 1.370 . S
C1770 C1774 1.524 . S
C1771 C1763 1.503 . S
C1771 C1770 1.370 . S
C1771 C1772 1.403 . S
C1772 C1771 1.403 . S
C1772 C1773 1.404 . S
C1772 C1775 1.539 . S
C1773 C1769 1.408 . S
C1773 C1772 1.404 . S
C1773 H1785 0.930 . S
C1774 C1770 1.524 . S
C1774 H1786 0.956 . S
C1774 H1787 0.961 . S
C1774 H1788 0.961 . S
C1775 C1772 1.539 . S
C1775 H1789 0.958 . S
C1775 H1790 0.961 . S
C1775 H1791 0.960 . S
H1776 C1760 0.931 . S
H1777 C1765 0.929 . S
H1778 C1766 0.960 . S
H1779 C1766 0.962 . S
H1780 C1766 0.960 . S
H1781 C1767 0.961 . S
H1782 C1767 0.961 . S
H1783 C1767 0.961 . S
H1784 C1768 0.931 . S
H1785 C1773 0.930 . S
H1786 C1774 0.956 . S
H1787 C1774 0.961 . S
H1788 C1774 0.961 . S
H1789 C1775 0.958 . S
H1790 C1775 0.961 . S
H1791 C1775 0.960 . S
C1792 C1793 1.391 . S
C1792 C1794 1.394 . S
C1792 H1808 0.931 . S
C1793 C1792 1.391 . S
C1793 C1797 1.376 . S
C1794 C1792 1.394 . S
C1794 C1795 1.369 . S
C1794 C1798 1.531 . S
C1795 C1794 1.369 . S
C1795 C1796 1.410 . S
C1795 C1803 1.503 . S
C1796 C1795 1.410 . S
C1796 C1797 1.392 . S
C1796 C1799 1.511 . S
C1797 C1793 1.376 . S
C1797 C1796 1.392 . S
C1797 H1809 0.929 . S
C1798 C1794 1.531 . S
C1798 H1810 0.960 . S
C1798 H1811 0.962 . S
C1798 H1812 0.960 . S
C1799 C1796 1.511 . S
C1799 H1813 0.961 . S
C1799 H1814 0.961 . S
C1799 H1815 0.961 . S
C1800 C1801 1.370 . S
C1800 C1802 1.363 . S
C1800 H1816 0.931 . S
C1801 C1800 1.370 . S
C1801 C1805 1.408 . S
C1802 C1800 1.363 . S
C1802 C1803 1.370 . S
C1802 C1806 1.524 . S
C1803 C1795 1.503 . S
C1803 C1802 1.370 . S
C1803 C1804 1.403 . S
C1804 C1803 1.403 . S
C1804 C1805 1.404 . S
C1804 C1807 1.539 . S
C1805 C1801 1.408 . S
C1805 C1804 1.404 . S
C1805 H1817 0.930 . S
C1806 C1802 1.524 . S
C1806 H1818 0.956 . S
C1806 H1819 0.961 . S
C1806 H1820 0.961 . S
C1807 C1804 1.539 . S
C1807 H1821 0.958 . S
C1807 H1822 0.961 . S
C1807 H1823 0.960 . S
H1808 C1792 0.931 . S
H1809 C1797 0.929 . S
H1810 C1798 0.960 . S
H1811 C1798 0.962 . S
H1812 C1798 0.960 . S
H1813 C1799 0.961 . S
H1814 C1799 0.961 . S
H1815 C1799 0.961 . S
H1816 C1800 0.931 . S
H1817 C1805 0.930 . S
H1818 C1806 0.956 . S
H1819 C1806 0.961 . S
H1820 C1806 0.961 . S
H1821 C1807 0.958 . S
H1822 C1807 0.961 . S
H1823 C1807 0.960 . S
C1824 C1825 1.391 . S
C1824 C1826 1.394 . S
C1824 H1840 0.931 . S
C1825 C1824 1.391 . S
C1825 C1829 1.376 . S
C1826 C1824 1.394 . S
C1826 C1827 1.369 . S
C1826 C1830 1.531 . S
C1827 C1826 1.369 . S
C1827 C1828 1.410 . S
C1827 C1835 1.503 . S
C1828 C1827 1.410 . S
C1828 C1829 1.392 . S
C1828 C1831 1.511 . S
C1829 C1825 1.376 . S
C1829 C1828 1.392 . S
C1829 H1841 0.929 . S
C1830 C1826 1.531 . S
C1830 H1842 0.960 . S
C1830 H1843 0.962 . S
C1830 H1844 0.960 . S
C1831 C1828 1.511 . S
C1831 H1845 0.961 . S
C1831 H1846 0.961 . S
C1831 H1847 0.961 . S
C1832 C1833 1.370 . S
C1832 C1834 1.363 . S
C1832 H1848 0.931 . S
C1833 C1832 1.370 . S
C1833 C1837 1.408 . S
C1834 C1832 1.363 . S
C1834 C1835 1.370 . S
C1834 C1838 1.524 . S
C1835 C1827 1.503 . S
C1835 C1834 1.370 . S
C1835 C1836 1.403 . S
C1836 C1835 1.403 . S
C1836 C1837 1.404 . S
C1836 C1839 1.539 . S
C1837 C1833 1.408 . S
C1837 C1836 1.404 . S
C1837 H1849 0.930 . S
C1838 C1834 1.524 . S
C1838 H1850 0.956 . S
C1838 H1851 0.961 . S
C1838 H1852 0.961 . S
C1839 C1836 1.539 . S
C1839 H1853 0.958 . S
C1839 H1854 0.961 . S
C1839 H1855 0.960 . S
H1840 C1824 0.931 . S
H1841 C1829 0.929 . S
H1842 C1830 0.960 . S
H1843 C1830 0.962 . S
H1844 C1830 0.960 . S
H1845 C1831 0.961 . S
H1846 C1831 0.961 . S
H1847 C1831 0.961 . S
H1848 C1832 0.931 . S
H1849 C1837 0.930 . S
H1850 C1838 0.956 . S
H1851 C1838 0.961 . S
H1852 C1838 0.961 . S
H1853 C1839 0.958 . S
H1854 C1839 0.961 . S
H1855 C1839 0.960 . S
C1856 C1857 1.391 . S
C1856 C1858 1.394 . S
C1856 H1872 0.931 . S
C1857 C1856 1.391 . S
C1857 C1861 1.376 . S
C1858 C1856 1.394 . S
C1858 C1859 1.369 . S
C1858 C1862 1.531 . S
C1859 C1858 1.369 . S
C1859 C1860 1.410 . S
C1859 C1867 1.503 . S
C1860 C1859 1.410 . S
C1860 C1861 1.392 . S
C1860 C1863 1.511 . S
C1861 C1857 1.376 . S
C1861 C1860 1.392 . S
C1861 H1873 0.929 . S
C1862 C1858 1.531 . S
C1862 H1874 0.960 . S
C1862 H1875 0.962 . S
C1862 H1876 0.960 . S
C1863 C1860 1.511 . S
C1863 H1877 0.961 . S
C1863 H1878 0.961 . S
C1863 H1879 0.961 . S
C1864 C1865 1.370 . S
C1864 C1866 1.363 . S
C1864 H1880 0.931 . S
C1865 C1864 1.370 . S
C1865 C1869 1.408 . S
C1866 C1864 1.363 . S
C1866 C1867 1.370 . S
C1866 C1870 1.524 . S
C1867 C1859 1.503 . S
C1867 C1866 1.370 . S
C1867 C1868 1.403 . S
C1868 C1867 1.403 . S
C1868 C1869 1.404 . S
C1868 C1871 1.539 . S
C1869 C1865 1.408 . S
C1869 C1868 1.404 . S
C1869 H1881 0.930 . S
C1870 C1866 1.524 . S
C1870 H1882 0.956 . S
C1870 H1883 0.961 . S
C1870 H1884 0.961 . S
C1871 C1868 1.539 . S
C1871 H1885 0.958 . S
C1871 H1886 0.961 . S
C1871 H1887 0.960 . S
H1872 C1856 0.931 . S
H1873 C1861 0.929 . S
H1874 C1862 0.960 . S
H1875 C1862 0.962 . S
H1876 C1862 0.960 . S
H1877 C1863 0.961 . S
H1878 C1863 0.961 . S
H1879 C1863 0.961 . S
H1880 C1864 0.931 . S
H1881 C1869 0.930 . S
H1882 C1870 0.956 . S
H1883 C1870 0.961 . S
H1884 C1870 0.961 . S
H1885 C1871 0.958 . S
H1886 C1871 0.961 . S
H1887 C1871 0.960 . S
C1888 C1889 1.391 . S
C1888 C1890 1.394 . S
C1888 H1904 0.931 . S
C1889 C1888 1.391 . S
C1889 C1893 1.376 . S
C1890 C1888 1.394 . S
C1890 C1891 1.369 . S
C1890 C1894 1.531 . S
C1891 C1890 1.369 . S
C1891 C1892 1.410 . S
C1891 C1899 1.503 . S
C1892 C1891 1.410 . S
C1892 C1893 1.392 . S
C1892 C1895 1.511 . S
C1893 C1889 1.376 . S
C1893 C1892 1.392 . S
C1893 H1905 0.929 . S
C1894 C1890 1.531 . S
C1894 H1906 0.960 . S
C1894 H1907 0.962 . S
C1894 H1908 0.960 . S
C1895 C1892 1.511 . S
C1895 H1909 0.961 . S
C1895 H1910 0.961 . S
C1895 H1911 0.961 . S
C1896 C1897 1.370 . S
C1896 C1898 1.363 . S
C1896 H1912 0.931 . S
C1897 C1896 1.370 . S
C1897 C1901 1.408 . S
C1898 C1896 1.363 . S
C1898 C1899 1.370 . S
C1898 C1902 1.524 . S
C1899 C1891 1.503 . S
C1899 C1898 1.370 . S
C1899 C1900 1.403 . S
C1900 C1899 1.403 . S
C1900 C1901 1.404 . S
C1900 C1903 1.539 . S
C1901 C1897 1.408 . S
C1901 C1900 1.404 . S
C1901 H1913 0.930 . S
C1902 C1898 1.524 . S
C1902 H1914 0.956 . S
C1902 H1915 0.961 . S
C1902 H1916 0.961 . S
C1903 C1900 1.539 . S
C1903 H1917 0.958 . S
C1903 H1918 0.961 . S
C1903 H1919 0.960 . S
H1904 C1888 0.931 . S
H1905 C1893 0.929 . S
H1906 C1894 0.960 . S
H1907 C1894 0.962 . S
H1908 C1894 0.960 . S
H1909 C1895 0.961 . S
H1910 C1895 0.961 . S
H1911 C1895 0.961 . S
H1912 C1896 0.931 . S
H1913 C1901 0.930 . S
H1914 C1902 0.956 . S
H1915 C1902 0.961 . S
H1916 C1902 0.961 . S
H1917 C1903 0.958 . S
H1918 C1903 0.961 . S
H1919 C1903 0.960 . S
C1920 C1921 1.391 . S
C1920 C1922 1.394 . S
C1920 H1936 0.931 . S
C1921 C1920 1.391 . S
C1921 C1925 1.376 . S
C1922 C1920 1.394 . S
C1922 C1923 1.369 . S
C1922 C1926 1.531 . S
C1923 C1922 1.369 . S
C1923 C1924 1.410 . S
C1923 C1931 1.503 . S
C1924 C1923 1.410 . S
C1924 C1925 1.392 . S
C1924 C1927 1.511 . S
C1925 C1921 1.376 . S
C1925 C1924 1.392 . S
C1925 H1937 0.929 . S
C1926 C1922 1.531 . S
C1926 H1938 0.960 . S
C1926 H1939 0.962 . S
C1926 H1940 0.960 . S
C1927 C1924 1.511 . S
C1927 H1941 0.961 . S
C1927 H1942 0.961 . S
C1927 H1943 0.961 . S
C1928 C1929 1.370 . S
C1928 C1930 1.363 . S
C1928 H1944 0.931 . S
C1929 C1928 1.370 . S
C1929 C1933 1.408 . S
C1930 C1928 1.363 . S
C1930 C1931 1.370 . S
C1930 C1934 1.524 . S
C1931 C1923 1.503 . S
C1931 C1930 1.370 . S
C1931 C1932 1.403 . S
C1932 C1931 1.403 . S
C1932 C1933 1.404 . S
C1932 C1935 1.539 . S
C1933 C1929 1.408 . S
C1933 C1932 1.404 . S
C1933 H1945 0.930 . S
C1934 C1930 1.524 . S
C1934 H1946 0.956 . S
C1934 H1947 0.961 . S
C1934 H1948 0.961 . S
C1935 C1932 1.539 . S
C1935 H1949 0.958 . S
C1935 H1950 0.961 . S
C1935 H1951 0.960 . S
H1936 C1920 0.931 . S
H1937 C1925 0.929 . S
H1938 C1926 0.960 . S
H1939 C1926 0.962 . S
H1940 C1926 0.960 . S
H1941 C1927 0.961 . S
H1942 C1927 0.961 . S
H1943 C1927 0.961 . S
H1944 C1928 0.931 . S
H1945 C1933 0.930 . S
H1946 C1934 0.956 . S
H1947 C1934 0.961 . S
H1948 C1934 0.961 . S
H1949 C1935 0.958 . S
H1950 C1935 0.961 . S
H1951 C1935 0.960 . S
C1952 C1953 1.391 . S
C1952 C1954 1.394 1_455 S
C1952 H1968 0.931 . S
C1953 C1952 1.391 . S
C1953 C1957 1.376 1_455 S
C1954 C1952 1.394 1_655 S
C1954 C1955 1.369 . S
C1954 C1958 1.531 . S
C1955 C1954 1.369 . S
C1955 C1956 1.410 . S
C1955 C1963 1.503 . S
C1956 C1955 1.410 . S
C1956 C1957 1.392 . S
C1956 C1959 1.511 . S
C1957 C1953 1.376 1_655 S
C1957 C1956 1.392 . S
C1957 H1969 0.929 . S
C1958 C1954 1.531 . S
C1958 H1970 0.960 . S
C1958 H1971 0.962 . S
C1958 H1972 0.960 . S
C1959 C1956 1.511 . S
C1959 H1973 0.961 . S
C1959 H1974 0.961 . S
C1959 H1975 0.961 . S
C1960 C1961 1.370 . S
C1960 C1962 1.363 . S
C1960 H1976 0.931 . S
C1961 C1960 1.370 . S
C1961 C1965 1.408 . S
C1962 C1960 1.363 . S
C1962 C1963 1.370 . S
C1962 C1966 1.524 . S
C1963 C1955 1.503 . S
C1963 C1962 1.370 . S
C1963 C1964 1.403 . S
C1964 C1963 1.403 . S
C1964 C1965 1.404 . S
C1964 C1967 1.539 . S
C1965 C1961 1.408 . S
C1965 C1964 1.404 . S
C1965 H1977 0.930 . S
C1966 C1962 1.524 . S
C1966 H1978 0.956 . S
C1966 H1979 0.961 . S
C1966 H1980 0.961 . S
C1967 C1964 1.539 . S
C1967 H1981 0.958 . S
C1967 H1982 0.961 . S
C1967 H1983 0.960 . S
H1968 C1952 0.931 . S
H1969 C1957 0.929 . S
H1970 C1958 0.960 . S
H1971 C1958 0.962 . S
H1972 C1958 0.960 . S
H1973 C1959 0.961 . S
H1974 C1959 0.961 . S
H1975 C1959 0.961 . S
H1976 C1960 0.931 . S
H1977 C1965 0.930 . S
H1978 C1966 0.956 . S
H1979 C1966 0.961 . S
H1980 C1966 0.961 . S
H1981 C1967 0.958 . S
H1982 C1967 0.961 . S
H1983 C1967 0.960 . S
C1984 C1985 1.391 . S
C1984 C1986 1.394 . S
C1984 H2000 0.931 . S
C1985 C1984 1.391 . S
C1985 C1989 1.376 . S
C1986 C1984 1.394 . S
C1986 C1987 1.369 . S
C1986 C1990 1.531 . S
C1987 C1986 1.369 . S
C1987 C1988 1.410 . S
C1987 C1995 1.503 . S
C1988 C1987 1.410 . S
C1988 C1989 1.392 . S
C1988 C1991 1.511 . S
C1989 C1985 1.376 . S
C1989 C1988 1.392 . S
C1989 H2001 0.929 . S
C1990 C1986 1.531 . S
C1990 H2002 0.960 . S
C1990 H2003 0.962 . S
C1990 H2004 0.960 . S
C1991 C1988 1.511 . S
C1991 H2005 0.961 . S
C1991 H2006 0.961 . S
C1991 H2007 0.961 . S
C1992 C1993 1.370 . S
C1992 C1994 1.363 . S
C1992 H2008 0.931 . S
C1993 C1992 1.370 . S
C1993 C1997 1.408 . S
C1994 C1992 1.363 . S
C1994 C1995 1.370 . S
C1994 C1998 1.524 . S
C1995 C1987 1.503 . S
C1995 C1994 1.370 . S
C1995 C1996 1.403 . S
C1996 C1995 1.403 . S
C1996 C1997 1.404 . S
C1996 C1999 1.539 . S
C1997 C1993 1.408 . S
C1997 C1996 1.404 . S
C1997 H2009 0.930 . S
C1998 C1994 1.524 . S
C1998 H2010 0.956 . S
C1998 H2011 0.961 . S
C1998 H2012 0.961 . S
C1999 C1996 1.539 . S
C1999 H2013 0.958 . S
C1999 H2014 0.961 . S
C1999 H2015 0.960 . S
H2000 C1984 0.931 . S
H2001 C1989 0.929 . S
H2002 C1990 0.960 . S
H2003 C1990 0.962 . S
H2004 C1990 0.960 . S
H2005 C1991 0.961 . S
H2006 C1991 0.961 . S
H2007 C1991 0.961 . S
H2008 C1992 0.931 . S
H2009 C1997 0.930 . S
H2010 C1998 0.956 . S
H2011 C1998 0.961 . S
H2012 C1998 0.961 . S
H2013 C1999 0.958 . S
H2014 C1999 0.961 . S
H2015 C1999 0.960 . S
C2016 C2017 1.391 . S
C2016 C2018 1.394 . S
C2016 H2032 0.931 . S
C2017 C2016 1.391 . S
C2017 C2021 1.376 . S
C2018 C2016 1.394 . S
C2018 C2019 1.369 . S
C2018 C2022 1.531 . S
C2019 C2018 1.369 . S
C2019 C2020 1.410 . S
C2019 C2027 1.503 . S
C2020 C2019 1.410 . S
C2020 C2021 1.392 . S
C2020 C2023 1.511 . S
C2021 C2017 1.376 . S
C2021 C2020 1.392 . S
C2021 H2033 0.929 . S
C2022 C2018 1.531 . S
C2022 H2034 0.960 . S
C2022 H2035 0.962 . S
C2022 H2036 0.960 . S
C2023 C2020 1.511 . S
C2023 H2037 0.961 . S
C2023 H2038 0.961 . S
C2023 H2039 0.961 . S
C2024 C2025 1.370 . S
C2024 C2026 1.363 . S
C2024 H2040 0.931 . S
C2025 C2024 1.370 . S
C2025 C2029 1.408 . S
C2026 C2024 1.363 . S
C2026 C2027 1.370 . S
C2026 C2030 1.524 . S
C2027 C2019 1.503 . S
C2027 C2026 1.370 . S
C2027 C2028 1.403 . S
C2028 C2027 1.403 . S
C2028 C2029 1.404 . S
C2028 C2031 1.539 . S
C2029 C2025 1.408 . S
C2029 C2028 1.404 . S
C2029 H2041 0.930 . S
C2030 C2026 1.524 . S
C2030 H2042 0.956 . S
C2030 H2043 0.961 . S
C2030 H2044 0.961 . S
C2031 C2028 1.539 . S
C2031 H2045 0.958 . S
C2031 H2046 0.961 . S
C2031 H2047 0.960 . S
H2032 C2016 0.931 . S
H2033 C2021 0.929 . S
H2034 C2022 0.960 . S
H2035 C2022 0.962 . S
H2036 C2022 0.960 . S
H2037 C2023 0.961 . S
H2038 C2023 0.961 . S
H2039 C2023 0.961 . S
H2040 C2024 0.931 . S
H2041 C2029 0.930 . S
H2042 C2030 0.956 . S
H2043 C2030 0.961 . S
H2044 C2030 0.961 . S
H2045 C2031 0.958 . S
H2046 C2031 0.961 . S
H2047 C2031 0.960 . S
C2048 C2049 1.391 . S
C2048 C2050 1.394 . S
C2048 H2064 0.931 . S
C2049 C2048 1.391 . S
C2049 C2053 1.376 . S
C2050 C2048 1.394 . S
C2050 C2051 1.369 . S
C2050 C2054 1.531 . S
C2051 C2050 1.369 . S
C2051 C2052 1.410 . S
C2051 C2059 1.503 . S
C2052 C2051 1.410 . S
C2052 C2053 1.392 . S
C2052 C2055 1.511 . S
C2053 C2049 1.376 . S
C2053 C2052 1.392 . S
C2053 H2065 0.929 . S
C2054 C2050 1.531 . S
C2054 H2066 0.960 . S
C2054 H2067 0.962 . S
C2054 H2068 0.960 . S
C2055 C2052 1.511 . S
C2055 H2069 0.961 . S
C2055 H2070 0.961 . S
C2055 H2071 0.961 . S
C2056 C2057 1.370 . S
C2056 C2058 1.363 . S
C2056 H2072 0.931 . S
C2057 C2056 1.370 . S
C2057 C2061 1.408 . S
C2058 C2056 1.363 . S
C2058 C2059 1.370 . S
C2058 C2062 1.524 . S
C2059 C2051 1.503 . S
C2059 C2058 1.370 . S
C2059 C2060 1.403 . S
C2060 C2059 1.403 . S
C2060 C2061 1.404 . S
C2060 C2063 1.539 . S
C2061 C2057 1.408 . S
C2061 C2060 1.404 . S
C2061 H2073 0.930 . S
C2062 C2058 1.524 . S
C2062 H2074 0.956 . S
C2062 H2075 0.961 . S
C2062 H2076 0.961 . S
C2063 C2060 1.539 . S
C2063 H2077 0.958 . S
C2063 H2078 0.961 . S
C2063 H2079 0.960 . S
H2064 C2048 0.931 . S
H2065 C2053 0.929 . S
H2066 C2054 0.960 . S
H2067 C2054 0.962 . S
H2068 C2054 0.960 . S
H2069 C2055 0.961 . S
H2070 C2055 0.961 . S
H2071 C2055 0.961 . S
H2072 C2056 0.931 . S
H2073 C2061 0.930 . S
H2074 C2062 0.956 . S
H2075 C2062 0.961 . S
H2076 C2062 0.961 . S
H2077 C2063 0.958 . S
H2078 C2063 0.961 . S
H2079 C2063 0.960 . S
C2080 C2081 1.391 . S
C2080 C2082 1.394 . S
C2080 H2096 0.931 . S
C2081 C2080 1.391 . S
C2081 C2085 1.376 . S
C2082 C2080 1.394 . S
C2082 C2083 1.369 . S
C2082 C2086 1.531 . S
C2083 C2082 1.369 . S
C2083 C2084 1.410 . S
C2083 C2091 1.503 . S
C2084 C2083 1.410 . S
C2084 C2085 1.392 . S
C2084 C2087 1.511 . S
C2085 C2081 1.376 . S
C2085 C2084 1.392 . S
C2085 H2097 0.929 . S
C2086 C2082 1.531 . S
C2086 H2098 0.960 . S
C2086 H2099 0.962 . S
C2086 H2100 0.960 . S
C2087 C2084 1.511 . S
C2087 H2101 0.961 . S
C2087 H2102 0.961 . S
C2087 H2103 0.961 . S
C2088 C2089 1.370 1_655 S
C2088 C2090 1.363 . S
C2088 H2104 0.931 1_655 S
C2089 C2088 1.370 1_455 S
C2089 C2093 1.408 1_455 S
C2090 C2088 1.363 . S
C2090 C2091 1.370 . S
C2090 C2094 1.524 . S
C2091 C2083 1.503 . S
C2091 C2090 1.370 . S
C2091 C2092 1.403 . S
C2092 C2091 1.403 . S
C2092 C2093 1.404 . S
C2092 C2095 1.539 . S
C2093 C2089 1.408 1_655 S
C2093 C2092 1.404 . S
C2093 H2105 0.945 . S
C2094 C2090 1.524 . S
C2094 H2106 0.956 . S
C2094 H2107 0.961 . S
C2094 H2108 0.961 . S
C2095 C2092 1.539 . S
C2095 H2109 0.958 . S
C2095 H2110 0.961 . S
C2095 H2111 0.960 . S
H2096 C2080 0.931 . S
H2097 C2085 0.929 . S
H2098 C2086 0.960 . S
H2099 C2086 0.962 . S
H2100 C2086 0.960 . S
H2101 C2087 0.961 . S
H2102 C2087 0.961 . S
H2103 C2087 0.961 . S
H2104 C2088 0.931 1_455 S
H2105 C2093 0.945 . S
H2106 C2094 0.956 . S
H2107 C2094 0.961 . S
H2108 C2094 0.961 . S
H2109 C2095 0.958 . S
H2110 C2095 0.961 . S
H2111 C2095 0.960 . S
C2112 C2113 1.391 . S
C2112 C2114 1.394 . S
C2112 H2128 0.931 . S
C2113 C2112 1.391 . S
C2113 C2117 1.376 . S
C2114 C2112 1.394 . S
C2114 C2115 1.369 . S
C2114 C2118 1.531 . S
C2115 C2114 1.369 . S
C2115 C2116 1.410 . S
C2115 C2123 1.503 . S
C2116 C2115 1.410 . S
C2116 C2117 1.392 . S
C2116 C2119 1.511 . S
C2117 C2113 1.376 . S
C2117 C2116 1.392 . S
C2117 H2129 0.929 . S
C2118 C2114 1.531 . S
C2118 H2130 0.960 . S
C2118 H2131 0.962 . S
C2118 H2132 0.960 . S
C2119 C2116 1.511 . S
C2119 H2133 0.961 . S
C2119 H2134 0.961 . S
C2119 H2135 0.961 . S
C2120 C2121 1.370 . S
C2120 C2122 1.363 . S
C2120 H2136 0.931 . S
C2121 C2120 1.370 . S
C2121 C2125 1.408 . S
C2122 C2120 1.363 . S
C2122 C2123 1.370 . S
C2122 C2126 1.524 . S
C2123 C2115 1.503 . S
C2123 C2122 1.370 . S
C2123 C2124 1.403 . S
C2124 C2123 1.403 . S
C2124 C2125 1.404 . S
C2124 C2127 1.539 . S
C2125 C2121 1.408 . S
C2125 C2124 1.404 . S
C2125 H2137 0.930 . S
C2126 C2122 1.524 . S
C2126 H2138 0.956 . S
C2126 H2139 0.961 . S
C2126 H2140 0.961 . S
C2127 C2124 1.539 . S
C2127 H2141 0.958 . S
C2127 H2142 0.961 . S
C2127 H2143 0.960 . S
H2128 C2112 0.931 . S
H2129 C2117 0.929 . S
H2130 C2118 0.960 . S
H2131 C2118 0.962 . S
H2132 C2118 0.960 . S
H2133 C2119 0.961 . S
H2134 C2119 0.961 . S
H2135 C2119 0.961 . S
H2136 C2120 0.931 . S
H2137 C2125 0.930 . S
H2138 C2126 0.956 . S
H2139 C2126 0.961 . S
H2140 C2126 0.961 . S
H2141 C2127 0.958 . S
H2142 C2127 0.961 . S
H2143 C2127 0.960 . S
C2144 C2145 1.392 . S
C2144 C2146 1.390 1_455 S
C2144 H2160 0.934 . S
C2145 C2144 1.392 . S
C2145 C2149 1.376 1_455 S
C2146 C2144 1.390 1_655 S
C2146 C2147 1.369 . S
C2146 C2150 1.531 . S
C2147 C2146 1.369 . S
C2147 C2148 1.410 . S
C2147 C2155 1.503 . S
C2148 C2147 1.410 . S
C2148 C2149 1.392 . S
C2148 C2151 1.511 . S
C2149 C2145 1.376 1_655 S
C2149 C2148 1.392 . S
C2149 H2161 0.929 . S
C2150 C2146 1.531 . S
C2150 H2162 0.960 . S
C2150 H2163 0.962 . S
C2150 H2164 0.960 . S
C2151 C2148 1.511 . S
C2151 H2165 0.961 . S
C2151 H2166 0.961 . S
C2151 H2167 0.961 . S
C2152 C2153 1.370 . S
C2152 C2154 1.363 . S
C2152 H2168 0.931 . S
C2153 C2152 1.370 . S
C2153 C2157 1.408 . S
C2154 C2152 1.363 . S
C2154 C2155 1.370 . S
C2154 C2158 1.524 . S
C2155 C2147 1.503 . S
C2155 C2154 1.370 . S
C2155 C2156 1.403 . S
C2156 C2155 1.403 . S
C2156 C2157 1.404 . S
C2156 C2159 1.539 . S
C2157 C2153 1.408 . S
C2157 C2156 1.404 . S
C2157 H2169 0.930 . S
C2158 C2154 1.524 . S
C2158 H2170 0.956 . S
C2158 H2171 0.961 . S
C2158 H2172 0.961 . S
C2159 C2156 1.539 . S
C2159 H2173 0.958 . S
C2159 H2174 0.961 . S
C2159 H2175 0.960 . S
H2160 C2144 0.934 . S
H2161 C2149 0.929 . S
H2162 C2150 0.960 . S
H2163 C2150 0.962 . S
H2164 C2150 0.960 . S
H2165 C2151 0.961 . S
H2166 C2151 0.961 . S
H2167 C2151 0.961 . S
H2168 C2152 0.931 . S
H2169 C2157 0.930 . S
H2170 C2158 0.956 . S
H2171 C2158 0.961 . S
H2172 C2158 0.961 . S
H2173 C2159 0.958 . S
H2174 C2159 0.961 . S
H2175 C2159 0.960 . S
C2176 C2177 1.391 . S
C2176 C2178 1.394 . S
C2176 H2192 0.931 . S
C2177 C2176 1.391 . S
C2177 C2181 1.376 . S
C2178 C2176 1.394 . S
C2178 C2179 1.369 . S
C2178 C2182 1.531 . S
C2179 C2178 1.369 . S
C2179 C2180 1.410 . S
C2179 C2187 1.503 . S
C2180 C2179 1.410 . S
C2180 C2181 1.392 . S
C2180 C2183 1.511 . S
C2181 C2177 1.376 . S
C2181 C2180 1.392 . S
C2181 H2193 0.929 . S
C2182 C2178 1.531 . S
C2182 H2194 0.960 . S
C2182 H2195 0.962 . S
C2182 H2196 0.960 . S
C2183 C2180 1.511 . S
C2183 H2197 0.961 . S
C2183 H2198 0.961 . S
C2183 H2199 0.961 . S
C2184 C2185 1.370 . S
C2184 C2186 1.363 . S
C2184 H2200 0.931 . S
C2185 C2184 1.370 . S
C2185 C2189 1.408 . S
C2186 C2184 1.363 . S
C2186 C2187 1.370 . S
C2186 C2190 1.524 . S
C2187 C2179 1.503 . S
C2187 C2186 1.370 . S
C2187 C2188 1.403 . S
C2188 C2187 1.403 . S
C2188 C2189 1.404 . S
C2188 C2191 1.539 . S
C2189 C2185 1.408 . S
C2189 C2188 1.404 . S
C2189 H2201 0.930 . S
C2190 C2186 1.524 . S
C2190 H2202 0.956 . S
C2190 H2203 0.961 . S
C2190 H2204 0.961 . S
C2191 C2188 1.539 . S
C2191 H2205 0.958 . S
C2191 H2206 0.961 . S
C2191 H2207 0.960 . S
H2192 C2176 0.931 . S
H2193 C2181 0.929 . S
H2194 C2182 0.960 . S
H2195 C2182 0.962 . S
H2196 C2182 0.960 . S
H2197 C2183 0.961 . S
H2198 C2183 0.961 . S
H2199 C2183 0.961 . S
H2200 C2184 0.931 . S
H2201 C2189 0.930 . S
H2202 C2190 0.956 . S
H2203 C2190 0.961 . S
H2204 C2190 0.961 . S
H2205 C2191 0.958 . S
H2206 C2191 0.961 . S
H2207 C2191 0.960 . S
C2208 C2209 1.391 . S
C2208 C2210 1.394 . S
C2208 H2224 0.931 . S
C2209 C2208 1.391 . S
C2209 C2213 1.376 . S
C2210 C2208 1.394 . S
C2210 C2211 1.369 . S
C2210 C2214 1.531 . S
C2211 C2210 1.369 . S
C2211 C2212 1.410 . S
C2211 C2219 1.503 . S
C2212 C2211 1.410 . S
C2212 C2213 1.392 . S
C2212 C2215 1.511 . S
C2213 C2209 1.376 . S
C2213 C2212 1.392 . S
C2213 H2225 0.929 . S
C2214 C2210 1.531 . S
C2214 H2226 0.960 . S
C2214 H2227 0.962 . S
C2214 H2228 0.960 . S
C2215 C2212 1.511 . S
C2215 H2229 0.961 . S
C2215 H2230 0.961 . S
C2215 H2231 0.961 . S
C2216 C2217 1.370 . S
C2216 C2218 1.363 . S
C2216 H2232 0.931 . S
C2217 C2216 1.370 . S
C2217 C2221 1.408 . S
C2218 C2216 1.363 . S
C2218 C2219 1.370 . S
C2218 C2222 1.524 . S
C2219 C2211 1.503 . S
C2219 C2218 1.370 . S
C2219 C2220 1.403 . S
C2220 C2219 1.403 . S
C2220 C2221 1.404 . S
C2220 C2223 1.539 . S
C2221 C2217 1.408 . S
C2221 C2220 1.404 . S
C2221 H2233 0.930 . S
C2222 C2218 1.524 . S
C2222 H2234 0.956 . S
C2222 H2235 0.961 . S
C2222 H2236 0.961 . S
C2223 C2220 1.539 . S
C2223 H2237 0.958 . S
C2223 H2238 0.961 . S
C2223 H2239 0.960 . S
H2224 C2208 0.931 . S
H2225 C2213 0.929 . S
H2226 C2214 0.960 . S
H2227 C2214 0.962 . S
H2228 C2214 0.960 . S
H2229 C2215 0.961 . S
H2230 C2215 0.961 . S
H2231 C2215 0.961 . S
H2232 C2216 0.931 . S
H2233 C2221 0.930 . S
H2234 C2222 0.956 . S
H2235 C2222 0.961 . S
H2236 C2222 0.961 . S
H2237 C2223 0.958 . S
H2238 C2223 0.961 . S
H2239 C2223 0.960 . S
C2240 C2241 1.391 . S
C2240 C2242 1.394 . S
C2240 H2256 0.931 . S
C2241 C2240 1.391 . S
C2241 C2245 1.376 . S
C2242 C2240 1.394 . S
C2242 C2243 1.369 . S
C2242 C2246 1.531 . S
C2243 C2242 1.369 . S
C2243 C2244 1.410 . S
C2243 C2251 1.503 . S
C2244 C2243 1.410 . S
C2244 C2245 1.392 . S
C2244 C2247 1.511 . S
C2245 C2241 1.376 . S
C2245 C2244 1.392 . S
C2245 H2257 0.929 . S
C2246 C2242 1.531 . S
C2246 H2258 0.960 . S
C2246 H2259 0.962 . S
C2246 H2260 0.960 . S
C2247 C2244 1.511 . S
C2247 H2261 0.961 . S
C2247 H2262 0.961 . S
C2247 H2263 0.961 . S
C2248 C2249 1.370 . S
C2248 C2250 1.363 . S
C2248 H2264 0.931 . S
C2249 C2248 1.370 . S
C2249 C2253 1.408 . S
C2250 C2248 1.363 . S
C2250 C2251 1.370 . S
C2250 C2254 1.524 . S
C2251 C2243 1.503 . S
C2251 C2250 1.370 . S
C2251 C2252 1.403 . S
C2252 C2251 1.403 . S
C2252 C2253 1.404 . S
C2252 C2255 1.539 . S
C2253 C2249 1.408 . S
C2253 C2252 1.404 . S
C2253 H2265 0.930 . S
C2254 C2250 1.524 . S
C2254 H2266 0.956 . S
C2254 H2267 0.961 . S
C2254 H2268 0.961 . S
C2255 C2252 1.539 . S
C2255 H2269 0.958 . S
C2255 H2270 0.961 . S
C2255 H2271 0.960 . S
H2256 C2240 0.931 . S
H2257 C2245 0.929 . S
H2258 C2246 0.960 . S
H2259 C2246 0.962 . S
H2260 C2246 0.960 . S
H2261 C2247 0.961 . S
H2262 C2247 0.961 . S
H2263 C2247 0.961 . S
H2264 C2248 0.931 . S
H2265 C2253 0.930 . S
H2266 C2254 0.956 . S
H2267 C2254 0.961 . S
H2268 C2254 0.961 . S
H2269 C2255 0.958 . S
H2270 C2255 0.961 . S
H2271 C2255 0.960 . S
C2272 C2273 1.391 . S
C2272 C2274 1.394 . S
C2272 H2288 0.931 . S
C2273 C2272 1.391 . S
C2273 C2277 1.376 . S
C2274 C2272 1.394 . S
C2274 C2275 1.369 . S
C2274 C2278 1.531 . S
C2275 C2274 1.369 . S
C2275 C2276 1.410 . S
C2275 C2283 1.503 . S
C2276 C2275 1.410 . S
C2276 C2277 1.392 . S
C2276 C2279 1.511 . S
C2277 C2273 1.376 . S
C2277 C2276 1.392 . S
C2277 H2289 0.929 . S
C2278 C2274 1.531 . S
C2278 H2290 0.960 . S
C2278 H2291 0.962 . S
C2278 H2292 0.960 . S
C2279 C2276 1.511 . S
C2279 H2293 0.961 . S
C2279 H2294 0.961 . S
C2279 H2295 0.961 . S
C2280 C2281 1.370 . S
C2280 C2282 1.363 . S
C2280 H2296 0.931 . S
C2281 C2280 1.370 . S
C2281 C2285 1.408 . S
C2282 C2280 1.363 . S
C2282 C2283 1.370 . S
C2282 C2286 1.524 . S
C2283 C2275 1.503 . S
C2283 C2282 1.370 . S
C2283 C2284 1.403 . S
C2284 C2283 1.403 . S
C2284 C2285 1.404 . S
C2284 C2287 1.539 . S
C2285 C2281 1.408 . S
C2285 C2284 1.404 . S
C2285 H2297 0.930 . S
C2286 C2282 1.524 . S
C2286 H2298 0.956 . S
C2286 H2299 0.961 . S
C2286 H2300 0.961 . S
C2287 C2284 1.539 . S
C2287 H2301 0.958 . S
C2287 H2302 0.961 . S
C2287 H2303 0.960 . S
H2288 C2272 0.931 . S
H2289 C2277 0.929 . S
H2290 C2278 0.960 . S
H2291 C2278 0.962 . S
H2292 C2278 0.960 . S
H2293 C2279 0.961 . S
H2294 C2279 0.961 . S
H2295 C2279 0.961 . S
H2296 C2280 0.931 . S
H2297 C2285 0.930 . S
H2298 C2286 0.956 . S
H2299 C2286 0.961 . S
H2300 C2286 0.961 . S
H2301 C2287 0.958 . S
H2302 C2287 0.961 . S
H2303 C2287 0.960 . S
C2304 C2305 1.391 . S
C2304 C2306 1.394 . S
C2304 H2320 0.931 . S
C2305 C2304 1.391 . S
C2305 C2309 1.376 . S
C2306 C2304 1.394 . S
C2306 C2307 1.369 . S
C2306 C2310 1.531 . S
C2307 C2306 1.369 . S
C2307 C2308 1.410 . S
C2307 C2315 1.503 . S
C2308 C2307 1.410 . S
C2308 C2309 1.392 . S
C2308 C2311 1.511 . S
C2309 C2305 1.376 . S
C2309 C2308 1.392 . S
C2309 H2321 0.929 . S
C2310 C2306 1.531 . S
C2310 H2322 0.960 . S
C2310 H2323 0.962 . S
C2310 H2324 0.960 . S
C2311 C2308 1.511 . S
C2311 H2325 0.961 . S
C2311 H2326 0.961 . S
C2311 H2327 0.961 . S
C2312 C2313 1.370 . S
C2312 C2314 1.363 . S
C2312 H2328 0.931 . S
C2313 C2312 1.370 . S
C2313 C2317 1.408 . S
C2314 C2312 1.363 . S
C2314 C2315 1.370 . S
C2314 C2318 1.524 . S
C2315 C2307 1.503 . S
C2315 C2314 1.370 . S
C2315 C2316 1.403 . S
C2316 C2315 1.403 . S
C2316 C2317 1.404 . S
C2316 C2319 1.539 . S
C2317 C2313 1.408 . S
C2317 C2316 1.404 . S
C2317 H2329 0.930 . S
C2318 C2314 1.524 . S
C2318 H2330 0.956 . S
C2318 H2331 0.961 . S
C2318 H2332 0.961 . S
C2319 C2316 1.539 . S
C2319 H2333 0.958 . S
C2319 H2334 0.961 . S
C2319 H2335 0.960 . S
H2320 C2304 0.931 . S
H2321 C2309 0.929 . S
H2322 C2310 0.960 . S
H2323 C2310 0.962 . S
H2324 C2310 0.960 . S
H2325 C2311 0.961 . S
H2326 C2311 0.961 . S
H2327 C2311 0.961 . S
H2328 C2312 0.931 . S
H2329 C2317 0.930 . S
H2330 C2318 0.956 . S
H2331 C2318 0.961 . S
H2332 C2318 0.961 . S
H2333 C2319 0.958 . S
H2334 C2319 0.961 . S
H2335 C2319 0.960 . S
C2336 C2337 1.391 . S
C2336 C2338 1.394 1_655 S
C2336 H2352 0.931 . S
C2337 C2336 1.391 . S
C2337 C2341 1.376 1_655 S
C2338 C2336 1.394 1_455 S
C2338 C2339 1.369 . S
C2338 C2342 1.531 . S
C2339 C2338 1.369 . S
C2339 C2340 1.410 . S
C2339 C2347 1.503 . S
C2340 C2339 1.410 . S
C2340 C2341 1.392 . S
C2340 C2343 1.511 . S
C2341 C2337 1.376 1_455 S
C2341 C2340 1.392 . S
C2341 H2353 0.929 . S
C2342 C2338 1.531 . S
C2342 H2354 0.960 . S
C2342 H2355 0.962 . S
C2342 H2356 0.960 . S
C2343 C2340 1.511 . S
C2343 H2357 0.961 . S
C2343 H2358 0.961 . S
C2343 H2359 0.961 . S
C2344 C2345 1.370 . S
C2344 C2346 1.363 . S
C2344 H2360 0.931 . S
C2345 C2344 1.370 . S
C2345 C2349 1.408 . S
C2346 C2344 1.363 . S
C2346 C2347 1.370 . S
C2346 C2350 1.524 . S
C2347 C2339 1.503 . S
C2347 C2346 1.370 . S
C2347 C2348 1.403 . S
C2348 C2347 1.403 . S
C2348 C2349 1.404 . S
C2348 C2351 1.539 . S
C2349 C2345 1.408 . S
C2349 C2348 1.404 . S
C2349 H2361 0.930 . S
C2350 C2346 1.524 . S
C2350 H2362 0.956 . S
C2350 H2363 0.961 . S
C2350 H2364 0.961 . S
C2351 C2348 1.539 . S
C2351 H2365 0.958 . S
C2351 H2366 0.961 . S
C2351 H2367 0.960 . S
H2352 C2336 0.931 . S
H2353 C2341 0.929 . S
H2354 C2342 0.960 . S
H2355 C2342 0.962 . S
H2356 C2342 0.960 . S
H2357 C2343 0.961 . S
H2358 C2343 0.961 . S
H2359 C2343 0.961 . S
H2360 C2344 0.931 . S
H2361 C2349 0.930 . S
H2362 C2350 0.956 . S
H2363 C2350 0.961 . S
H2364 C2350 0.961 . S
H2365 C2351 0.958 . S
H2366 C2351 0.961 . S
H2367 C2351 0.960 . S
C2368 C2369 1.391 . S
C2368 C2370 1.394 . S
C2368 H2384 0.931 . S
C2369 C2368 1.391 . S
C2369 C2373 1.376 . S
C2370 C2368 1.394 . S
C2370 C2371 1.369 . S
C2370 C2374 1.531 . S
C2371 C2370 1.369 . S
C2371 C2372 1.410 . S
C2371 C2379 1.503 . S
C2372 C2371 1.410 . S
C2372 C2373 1.392 . S
C2372 C2375 1.511 . S
C2373 C2369 1.376 . S
C2373 C2372 1.392 . S
C2373 H2385 0.929 . S
C2374 C2370 1.531 . S
C2374 H2386 0.960 . S
C2374 H2387 0.962 . S
C2374 H2388 0.960 . S
C2375 C2372 1.511 . S
C2375 H2389 0.961 . S
C2375 H2390 0.961 . S
C2375 H2391 0.961 . S
C2376 C2377 1.370 . S
C2376 C2378 1.363 . S
C2376 H2392 0.931 . S
C2377 C2376 1.370 . S
C2377 C2381 1.408 . S
C2378 C2376 1.363 . S
C2378 C2379 1.370 . S
C2378 C2382 1.524 . S
C2379 C2371 1.503 . S
C2379 C2378 1.370 . S
C2379 C2380 1.403 . S
C2380 C2379 1.403 . S
C2380 C2381 1.404 . S
C2380 C2383 1.539 . S
C2381 C2377 1.408 . S
C2381 C2380 1.404 . S
C2381 H2393 0.930 . S
C2382 C2378 1.524 . S
C2382 H2394 0.956 . S
C2382 H2395 0.961 . S
C2382 H2396 0.961 . S
C2383 C2380 1.539 . S
C2383 H2397 0.958 . S
C2383 H2398 0.961 . S
C2383 H2399 0.960 . S
H2384 C2368 0.931 . S
H2385 C2373 0.929 . S
H2386 C2374 0.960 . S
H2387 C2374 0.962 . S
H2388 C2374 0.960 . S
H2389 C2375 0.961 . S
H2390 C2375 0.961 . S
H2391 C2375 0.961 . S
H2392 C2376 0.931 . S
H2393 C2381 0.930 . S
H2394 C2382 0.956 . S
H2395 C2382 0.961 . S
H2396 C2382 0.961 . S
H2397 C2383 0.958 . S
H2398 C2383 0.961 . S
H2399 C2383 0.960 . S
C2400 C2401 1.391 . S
C2400 C2402 1.394 . S
C2400 H2416 0.931 . S
C2401 C2400 1.391 . S
C2401 C2405 1.376 . S
C2402 C2400 1.394 . S
C2402 C2403 1.369 . S
C2402 C2406 1.531 . S
C2403 C2402 1.369 . S
C2403 C2404 1.410 . S
C2403 C2411 1.503 . S
C2404 C2403 1.410 . S
C2404 C2405 1.392 . S
C2404 C2407 1.511 . S
C2405 C2401 1.376 . S
C2405 C2404 1.392 . S
C2405 H2417 0.929 . S
C2406 C2402 1.531 . S
C2406 H2418 0.960 . S
C2406 H2419 0.962 . S
C2406 H2420 0.960 . S
C2407 C2404 1.511 . S
C2407 H2421 0.961 . S
C2407 H2422 0.961 . S
C2407 H2423 0.961 . S
C2408 C2409 1.370 1_455 S
C2408 C2410 1.363 . S
C2408 H2424 0.931 . S
C2409 C2408 1.370 1_655 S
C2409 C2413 1.408 . S
C2410 C2408 1.363 . S
C2410 C2411 1.370 . S
C2410 C2414 1.524 . S
C2411 C2403 1.503 . S
C2411 C2410 1.370 . S
C2411 C2412 1.403 . S
C2412 C2411 1.403 . S
C2412 C2413 1.404 1_455 S
C2412 C2415 1.539 . S
C2413 C2409 1.408 . S
C2413 C2412 1.404 1_655 S
C2413 H2425 0.930 . S
C2414 C2410 1.524 . S
C2414 H2426 0.956 . S
C2414 H2427 0.961 . S
C2414 H2428 0.961 . S
C2415 C2412 1.539 . S
C2415 H2429 0.958 . S
C2415 H2430 0.961 . S
C2415 H2431 0.960 . S
H2416 C2400 0.931 . S
H2417 C2405 0.929 . S
H2418 C2406 0.960 . S
H2419 C2406 0.962 . S
H2420 C2406 0.960 . S
H2421 C2407 0.961 . S
H2422 C2407 0.961 . S
H2423 C2407 0.961 . S
H2424 C2408 0.931 . S
H2425 C2413 0.930 . S
H2426 C2414 0.956 . S
H2427 C2414 0.961 . S
H2428 C2414 0.961 . S
H2429 C2415 0.958 . S
H2430 C2415 0.961 . S
H2431 C2415 0.960 . S
C2432 C2433 1.391 . S
C2432 C2434 1.394 . S
C2432 H2448 0.931 . S
C2433 C2432 1.391 . S
C2433 C2437 1.376 . S
C2434 C2432 1.394 . S
C2434 C2435 1.369 . S
C2434 C2438 1.531 . S
C2435 C2434 1.369 . S
C2435 C2436 1.410 . S
C2435 C2443 1.503 . S
C2436 C2435 1.410 . S
C2436 C2437 1.392 . S
C2436 C2439 1.511 . S
C2437 C2433 1.376 . S
C2437 C2436 1.392 . S
C2437 H2449 0.929 . S
C2438 C2434 1.531 . S
C2438 H2450 0.960 . S
C2438 H2451 0.962 . S
C2438 H2452 0.960 . S
C2439 C2436 1.511 . S
C2439 H2453 0.961 . S
C2439 H2454 0.961 . S
C2439 H2455 0.961 . S
C2440 C2441 1.370 . S
C2440 C2442 1.363 . S
C2440 H2456 0.931 . S
C2441 C2440 1.370 . S
C2441 C2445 1.408 . S
C2442 C2440 1.363 . S
C2442 C2443 1.370 . S
C2442 C2446 1.524 . S
C2443 C2435 1.503 . S
C2443 C2442 1.370 . S
C2443 C2444 1.403 . S
C2444 C2443 1.403 . S
C2444 C2445 1.404 . S
C2444 C2447 1.539 . S
C2445 C2441 1.408 . S
C2445 C2444 1.404 . S
C2445 H2457 0.930 . S
C2446 C2442 1.524 . S
C2446 H2458 0.956 . S
C2446 H2459 0.961 . S
C2446 H2460 0.961 . S
C2447 C2444 1.539 . S
C2447 H2461 0.958 . S
C2447 H2462 0.961 . S
C2447 H2463 0.960 . S
H2448 C2432 0.931 . S
H2449 C2437 0.929 . S
H2450 C2438 0.960 . S
H2451 C2438 0.962 . S
H2452 C2438 0.960 . S
H2453 C2439 0.961 . S
H2454 C2439 0.961 . S
H2455 C2439 0.961 . S
H2456 C2440 0.931 . S
H2457 C2445 0.930 . S
H2458 C2446 0.956 . S
H2459 C2446 0.961 . S
H2460 C2446 0.961 . S
H2461 C2447 0.958 . S
H2462 C2447 0.961 . S
H2463 C2447 0.960 . S
C2464 C2465 1.391 . S
C2464 C2466 1.394 . S
C2464 H2480 0.931 . S
C2465 C2464 1.391 . S
C2465 C2469 1.376 . S
C2466 C2464 1.394 . S
C2466 C2467 1.369 . S
C2466 C2470 1.531 . S
C2467 C2466 1.369 . S
C2467 C2468 1.410 . S
C2467 C2475 1.503 . S
C2468 C2467 1.410 . S
C2468 C2469 1.392 . S
C2468 C2471 1.511 . S
C2469 C2465 1.376 . S
C2469 C2468 1.392 . S
C2469 H2481 0.929 . S
C2470 C2466 1.531 . S
C2470 H2482 0.960 . S
C2470 H2483 0.962 . S
C2470 H2484 0.960 . S
C2471 C2468 1.511 . S
C2471 H2485 0.961 . S
C2471 H2486 0.961 . S
C2471 H2487 0.961 . S
C2472 C2473 1.370 . S
C2472 C2474 1.363 . S
C2472 H2488 0.931 . S
C2473 C2472 1.370 . S
C2473 C2477 1.408 . S
C2474 C2472 1.363 . S
C2474 C2475 1.370 . S
C2474 C2478 1.524 . S
C2475 C2467 1.503 . S
C2475 C2474 1.370 . S
C2475 C2476 1.403 . S
C2476 C2475 1.403 . S
C2476 C2477 1.404 . S
C2476 C2479 1.539 . S
C2477 C2473 1.408 . S
C2477 C2476 1.404 . S
C2477 H2489 0.930 . S
C2478 C2474 1.524 . S
C2478 H2490 0.956 . S
C2478 H2491 0.961 . S
C2478 H2492 0.961 . S
C2479 C2476 1.539 . S
C2479 H2493 0.958 . S
C2479 H2494 0.961 . S
C2479 H2495 0.960 . S
H2480 C2464 0.931 . S
H2481 C2469 0.929 . S
H2482 C2470 0.960 . S
H2483 C2470 0.962 . S
H2484 C2470 0.960 . S
H2485 C2471 0.961 . S
H2486 C2471 0.961 . S
H2487 C2471 0.961 . S
H2488 C2472 0.931 . S
H2489 C2477 0.930 . S
H2490 C2478 0.956 . S
H2491 C2478 0.961 . S
H2492 C2478 0.961 . S
H2493 C2479 0.958 . S
H2494 C2479 0.961 . S
H2495 C2479 0.960 . S
C449 C67 1.521 . S
C457 C11 1.515 . S
C481 C81 1.509 . S
C489 C25 1.506 . S
C513 C95 1.521 . S
C521 C39 1.512 . S
C545 C53 1.521 . S
C553 C109 1.516 . S
C577 C123 1.512 . S
C585 C179 1.506 . S
C609 C193 1.520 . S
C617 C137 1.514 . S
C641 C151 1.510 . S
C649 C207 1.506 . S
C673 C221 1.494 . S
C681 C165 1.510 . S
C705 C235 1.496 . S
C713 C291 1.513 . S
C737 C305 1.514 . S
C745 C249 1.517 . S
C769 C319 1.519 . S
C777 C263 1.510 . S
C801 C333 1.499 . S
C809 C277 1.506 . S
C833 C347 1.510 . S
C841 C403 1.506 . S
C865 C361 1.494 . S
C873 C417 1.510 . S
C897 C375 1.504 . S
C905 C431 1.506 . S
C929 C389 1.498 . S
C937 C445 1.507 . S
C961 C9 1.252 1_565 S
C969 C107 1.279 . S
C993 C23 1.255 . S
C1001 C65 1.275 1_545 S
C1025 C37 1.252 1_545 S
C1033 C79 1.277 . S
C1057 C93 1.252 1_565 S
C1065 C51 1.279 . S
C1089 C219 1.285 . S
C1097 C121 1.268 1_545 S
C1121 C177 1.254 1_565 S
C1129 C135 1.280 . S
C1153 C191 1.285 . S
C1161 C149 1.265 1_565 S
C1185 C163 1.285 . S
C1193 C205 1.265 1_545 S
C1217 C331 1.285 . S
C1225 C233 1.270 . S
C1249 C289 1.253 . S
C1257 C247 1.276 . S
C1281 C303 1.254 . S
C1289 C261 1.276 . S
C1313 C275 1.282 . S
C1321 C317 1.272 . S
C1345 C345 1.262 . S
C1353 C443 1.278 . S
C1377 C359 1.283 . S
C1385 C401 1.269 . S
C1409 C373 1.259 . S
C1417 C415 1.279 . S
C1441 C429 1.257 . S
C1449 C387 1.279 . S
C1473 C5 1.463 . S
C1481 C350 1.446 . S
C1505 C19 1.458 . S
C1513 C140 1.449 . S
C1537 C33 1.461 . S
C1545 C378 1.453 . S
C1569 C112 1.458 . S
C1577 C47 1.465 . S
C1601 C434 1.424 . S
C1609 C61 1.463 . S
C1633 C75 1.459 . S
C1641 C168 1.439 . S
C1665 C89 1.455 . S
C1673 C406 1.443 . S
C1697 C103 1.458 . S
C1705 C196 1.449 . S
C1729 C238 1.423 . S
C1737 C117 1.462 . S
C1761 C28 1.455 . S
C1769 C131 1.464 . S
C1793 C266 1.456 . S
C1801 C145 1.465 . S
C1825 C159 1.462 . S
C1833 C0 1.446 . S
C1857 C322 1.461 . S
C1865 C173 1.465 . S
C1889 C56 1.425 . S
C1897 C187 1.461 . S
C1921 C294 1.423 . S
C1929 C201 1.461 . S
C1953 C84 1.442 . S
C1961 C215 1.462 . S
C1985 C126 1.454 . S
C1993 C229 1.465 . S
C2017 C243 1.463 . S
C2025 C364 1.448 . S
C2049 C257 1.456 . S
C2057 C154 1.438 . S
C2081 C271 1.463 . S
C2089 C336 1.446 . S
C2113 C285 1.457 . S
C2121 C210 1.437 . S
C2145 C392 1.457 . S
C2153 C299 1.465 . S
C2177 C313 1.463 . S
C2185 C182 1.453 . S
C2209 C327 1.455 . S
C2217 C420 1.441 . S
C2241 C341 1.458 . S
C2249 C14 1.440 . S
C2273 C355 1.456 . S
C2281 C252 1.437 . S
C2305 C42 1.422 . S
C2313 C369 1.461 . S
C2337 C224 1.458 . S
C2345 C383 1.464 . S
C2369 C397 1.462 . S
C2377 C98 1.446 . S
C2401 C411 1.455 . S
C2409 C280 1.440 . S
C2433 C70 1.422 . S
C2441 C425 1.462 . S
C2465 C308 1.422 . S
C2473 C439 1.462 . S
