# Generated by pormake.
# Topology wna, (6)-cn, num edge types: 1
# Building blocks:
#     Node 0, Type 0, BuildingBlock: BETFAJ_clean_sbu_0, # of connection points: 6
#     Node 1, Type 0, BuildingBlock: BETFAJ_clean_sbu_0, # of connection points: 6
#     Node 2, Type 0, BuildingBlock: BETFAJ_clean_sbu_0, # of connection points: 6
#     Node 3, Type 0, BuildingBlock: BETFAJ_clean_sbu_0, # of connection points: 6
#     Node 4, Type 0, BuildingBlock: BETFAJ_clean_sbu_0, # of connection points: 6
#     Node 5, Type 0, BuildingBlock: BETFAJ_clean_sbu_0, # of connection points: 6
#     Node 6, Type 0, BuildingBlock: BETFAJ_clean_sbu_0, # of connection points: 6
#     Node 7, Type 0, BuildingBlock: BETFAJ_clean_sbu_0, # of connection points: 6
#     Node 8, Type 0, BuildingBlock: BETFAJ_clean_sbu_0, # of connection points: 6
#     Node 9, Type 0, BuildingBlock: BETFAJ_clean_sbu_0, # of connection points: 6
#     Node 10, Type 0, BuildingBlock: BETFAJ_clean_sbu_0, # of connection points: 6
#     Node 11, Type 0, BuildingBlock: BETFAJ_clean_sbu_0, # of connection points: 6
#     Node 12, Type 0, BuildingBlock: BETFAJ_clean_sbu_0, # of connection points: 6
#     Node 13, Type 0, BuildingBlock: BETFAJ_clean_sbu_0, # of connection points: 6
#     Node 14, Type 0, BuildingBlock: BETFAJ_clean_sbu_0, # of connection points: 6
#     Node 15, Type 0, BuildingBlock: BETFAJ_clean_sbu_0, # of connection points: 6
#     Node 16, Type 0, BuildingBlock: BETFAJ_clean_sbu_0, # of connection points: 6
#     Node 17, Type 0, BuildingBlock: BETFAJ_clean_sbu_0, # of connection points: 6
#     Node 18, Type 0, BuildingBlock: BETFAJ_clean_sbu_0, # of connection points: 6
#     Node 19, Type 0, BuildingBlock: BETFAJ_clean_sbu_0, # of connection points: 6
#     Node 20, Type 0, BuildingBlock: BETFAJ_clean_sbu_0, # of connection points: 6
#     Node 21, Type 0, BuildingBlock: BETFAJ_clean_sbu_0, # of connection points: 6
#     Node 22, Type 0, BuildingBlock: BETFAJ_clean_sbu_0, # of connection points: 6
#     Node 23, Type 0, BuildingBlock: BETFAJ_clean_sbu_0, # of connection points: 6
#     Node 24, Type 0, BuildingBlock: BETFAJ_clean_sbu_0, # of connection points: 6
#     Node 25, Type 0, BuildingBlock: BETFAJ_clean_sbu_0, # of connection points: 6
#     Node 26, Type 0, BuildingBlock: BETFAJ_clean_sbu_0, # of connection points: 6
#     Node 27, Type 0, BuildingBlock: BETFAJ_clean_sbu_0, # of connection points: 6
#     Node 28, Type 0, BuildingBlock: BETFAJ_clean_sbu_0, # of connection points: 6
#     Node 29, Type 0, BuildingBlock: BETFAJ_clean_sbu_0, # of connection points: 6
#     Node 30, Type 0, BuildingBlock: BETFAJ_clean_sbu_0, # of connection points: 6
#     Node 31, Type 0, BuildingBlock: BETFAJ_clean_sbu_0, # of connection points: 6
#     Node 32, Type 0, BuildingBlock: BETFAJ_clean_sbu_0, # of connection points: 6
#     Node 33, Type 0, BuildingBlock: BETFAJ_clean_sbu_0, # of connection points: 6
#     Node 34, Type 0, BuildingBlock: BETFAJ_clean_sbu_0, # of connection points: 6
#     Node 35, Type 0, BuildingBlock: BETFAJ_clean_sbu_0, # of connection points: 6
#     Edge 36, Type (0, 0), BuildingBlock: CIFDUS_clean_linker_0, # of connection points: 2
#     Edge 37, Type (0, 0), BuildingBlock: CIFDUS_clean_linker_0, # of connection points: 2
#     Edge 38, Type (0, 0), BuildingBlock: CIFDUS_clean_linker_0, # of connection points: 2
#     Edge 39, Type (0, 0), BuildingBlock: CIFDUS_clean_linker_0, # of connection points: 2
#     Edge 40, Type (0, 0), BuildingBlock: CIFDUS_clean_linker_0, # of connection points: 2
#     Edge 41, Type (0, 0), BuildingBlock: CIFDUS_clean_linker_0, # of connection points: 2
#     Edge 42, Type (0, 0), BuildingBlock: CIFDUS_clean_linker_0, # of connection points: 2
#     Edge 43, Type (0, 0), BuildingBlock: CIFDUS_clean_linker_0, # of connection points: 2
#     Edge 44, Type (0, 0), BuildingBlock: CIFDUS_clean_linker_0, # of connection points: 2
#     Edge 45, Type (0, 0), BuildingBlock: CIFDUS_clean_linker_0, # of connection points: 2
#     Edge 46, Type (0, 0), BuildingBlock: CIFDUS_clean_linker_0, # of connection points: 2
#     Edge 47, Type (0, 0), BuildingBlock: CIFDUS_clean_linker_0, # of connection points: 2
#     Edge 48, Type (0, 0), BuildingBlock: CIFDUS_clean_linker_0, # of connection points: 2
#     Edge 49, Type (0, 0), BuildingBlock: CIFDUS_clean_linker_0, # of connection points: 2
#     Edge 50, Type (0, 0), BuildingBlock: CIFDUS_clean_linker_0, # of connection points: 2
#     Edge 51, Type (0, 0), BuildingBlock: CIFDUS_clean_linker_0, # of connection points: 2
#     Edge 52, Type (0, 0), BuildingBlock: CIFDUS_clean_linker_0, # of connection points: 2
#     Edge 53, Type (0, 0), BuildingBlock: CIFDUS_clean_linker_0, # of connection points: 2
#     Edge 54, Type (0, 0), BuildingBlock: CIFDUS_clean_linker_0, # of connection points: 2
#     Edge 55, Type (0, 0), BuildingBlock: CIFDUS_clean_linker_0, # of connection points: 2
#     Edge 56, Type (0, 0), BuildingBlock: CIFDUS_clean_linker_0, # of connection points: 2
#     Edge 57, Type (0, 0), BuildingBlock: CIFDUS_clean_linker_0, # of connection points: 2
#     Edge 58, Type (0, 0), BuildingBlock: CIFDUS_clean_linker_0, # of connection points: 2
#     Edge 59, Type (0, 0), BuildingBlock: CIFDUS_clean_linker_0, # of connection points: 2
#     Edge 60, Type (0, 0), BuildingBlock: CIFDUS_clean_linker_0, # of connection points: 2
#     Edge 61, Type (0, 0), BuildingBlock: CIFDUS_clean_linker_0, # of connection points: 2
#     Edge 62, Type (0, 0), BuildingBlock: CIFDUS_clean_linker_0, # of connection points: 2
#     Edge 63, Type (0, 0), BuildingBlock: CIFDUS_clean_linker_0, # of connection points: 2
#     Edge 64, Type (0, 0), BuildingBlock: CIFDUS_clean_linker_0, # of connection points: 2
#     Edge 65, Type (0, 0), BuildingBlock: CIFDUS_clean_linker_0, # of connection points: 2
#     Edge 66, Type (0, 0), BuildingBlock: CIFDUS_clean_linker_0, # of connection points: 2
#     Edge 67, Type (0, 0), BuildingBlock: CIFDUS_clean_linker_0, # of connection points: 2
#     Edge 68, Type (0, 0), BuildingBlock: CIFDUS_clean_linker_0, # of connection points: 2
#     Edge 69, Type (0, 0), BuildingBlock: CIFDUS_clean_linker_0, # of connection points: 2
#     Edge 70, Type (0, 0), BuildingBlock: CIFDUS_clean_linker_0, # of connection points: 2
#     Edge 71, Type (0, 0), BuildingBlock: CIFDUS_clean_linker_0, # of connection points: 2
#     Edge 72, Type (0, 0), BuildingBlock: CIFDUS_clean_linker_0, # of connection points: 2
#     Edge 73, Type (0, 0), BuildingBlock: CIFDUS_clean_linker_0, # of connection points: 2
#     Edge 74, Type (0, 0), BuildingBlock: CIFDUS_clean_linker_0, # of connection points: 2
#     Edge 75, Type (0, 0), BuildingBlock: CIFDUS_clean_linker_0, # of connection points: 2
#     Edge 76, Type (0, 0), BuildingBlock: CIFDUS_clean_linker_0, # of connection points: 2
#     Edge 77, Type (0, 0), BuildingBlock: CIFDUS_clean_linker_0, # of connection points: 2
#     Edge 78, Type (0, 0), BuildingBlock: CIFDUS_clean_linker_0, # of connection points: 2
#     Edge 79, Type (0, 0), BuildingBlock: CIFDUS_clean_linker_0, # of connection points: 2
#     Edge 80, Type (0, 0), BuildingBlock: CIFDUS_clean_linker_0, # of connection points: 2
#     Edge 81, Type (0, 0), BuildingBlock: CIFDUS_clean_linker_0, # of connection points: 2
#     Edge 82, Type (0, 0), BuildingBlock: CIFDUS_clean_linker_0, # of connection points: 2
#     Edge 83, Type (0, 0), BuildingBlock: CIFDUS_clean_linker_0, # of connection points: 2
#     Edge 84, Type (0, 0), BuildingBlock: CIFDUS_clean_linker_0, # of connection points: 2
#     Edge 85, Type (0, 0), BuildingBlock: CIFDUS_clean_linker_0, # of connection points: 2
#     Edge 86, Type (0, 0), BuildingBlock: CIFDUS_clean_linker_0, # of connection points: 2
#     Edge 87, Type (0, 0), BuildingBlock: CIFDUS_clean_linker_0, # of connection points: 2
#     Edge 88, Type (0, 0), BuildingBlock: CIFDUS_clean_linker_0, # of connection points: 2
#     Edge 89, Type (0, 0), BuildingBlock: CIFDUS_clean_linker_0, # of connection points: 2
#     Edge 90, Type (0, 0), BuildingBlock: CIFDUS_clean_linker_0, # of connection points: 2
#     Edge 91, Type (0, 0), BuildingBlock: CIFDUS_clean_linker_0, # of connection points: 2
#     Edge 92, Type (0, 0), BuildingBlock: CIFDUS_clean_linker_0, # of connection points: 2
#     Edge 93, Type (0, 0), BuildingBlock: CIFDUS_clean_linker_0, # of connection points: 2
#     Edge 94, Type (0, 0), BuildingBlock: CIFDUS_clean_linker_0, # of connection points: 2
#     Edge 95, Type (0, 0), BuildingBlock: CIFDUS_clean_linker_0, # of connection points: 2
#     Edge 96, Type (0, 0), BuildingBlock: CIFDUS_clean_linker_0, # of connection points: 2
#     Edge 97, Type (0, 0), BuildingBlock: CIFDUS_clean_linker_0, # of connection points: 2
#     Edge 98, Type (0, 0), BuildingBlock: CIFDUS_clean_linker_0, # of connection points: 2
#     Edge 99, Type (0, 0), BuildingBlock: CIFDUS_clean_linker_0, # of connection points: 2
#     Edge 100, Type (0, 0), BuildingBlock: CIFDUS_clean_linker_0, # of connection points: 2
#     Edge 101, Type (0, 0), BuildingBlock: CIFDUS_clean_linker_0, # of connection points: 2
#     Edge 102, Type (0, 0), BuildingBlock: CIFDUS_clean_linker_0, # of connection points: 2
#     Edge 103, Type (0, 0), BuildingBlock: CIFDUS_clean_linker_0, # of connection points: 2
#     Edge 104, Type (0, 0), BuildingBlock: CIFDUS_clean_linker_0, # of connection points: 2
#     Edge 105, Type (0, 0), BuildingBlock: CIFDUS_clean_linker_0, # of connection points: 2
#     Edge 106, Type (0, 0), BuildingBlock: CIFDUS_clean_linker_0, # of connection points: 2
#     Edge 107, Type (0, 0), BuildingBlock: CIFDUS_clean_linker_0, # of connection points: 2
#     Edge 108, Type (0, 0), BuildingBlock: CIFDUS_clean_linker_0, # of connection points: 2
#     Edge 109, Type (0, 0), BuildingBlock: CIFDUS_clean_linker_0, # of connection points: 2
#     Edge 110, Type (0, 0), BuildingBlock: CIFDUS_clean_linker_0, # of connection points: 2
#     Edge 111, Type (0, 0), BuildingBlock: CIFDUS_clean_linker_0, # of connection points: 2
#     Edge 112, Type (0, 0), BuildingBlock: CIFDUS_clean_linker_0, # of connection points: 2
#     Edge 113, Type (0, 0), BuildingBlock: CIFDUS_clean_linker_0, # of connection points: 2
#     Edge 114, Type (0, 0), BuildingBlock: CIFDUS_clean_linker_0, # of connection points: 2
#     Edge 115, Type (0, 0), BuildingBlock: CIFDUS_clean_linker_0, # of connection points: 2
#     Edge 116, Type (0, 0), BuildingBlock: CIFDUS_clean_linker_0, # of connection points: 2
#     Edge 117, Type (0, 0), BuildingBlock: CIFDUS_clean_linker_0, # of connection points: 2
#     Edge 118, Type (0, 0), BuildingBlock: CIFDUS_clean_linker_0, # of connection points: 2
#     Edge 119, Type (0, 0), BuildingBlock: CIFDUS_clean_linker_0, # of connection points: 2
#     Edge 120, Type (0, 0), BuildingBlock: CIFDUS_clean_linker_0, # of connection points: 2
#     Edge 121, Type (0, 0), BuildingBlock: CIFDUS_clean_linker_0, # of connection points: 2
#     Edge 122, Type (0, 0), BuildingBlock: CIFDUS_clean_linker_0, # of connection points: 2
#     Edge 123, Type (0, 0), BuildingBlock: CIFDUS_clean_linker_0, # of connection points: 2
#     Edge 124, Type (0, 0), BuildingBlock: CIFDUS_clean_linker_0, # of connection points: 2
#     Edge 125, Type (0, 0), BuildingBlock: CIFDUS_clean_linker_0, # of connection points: 2
#     Edge 126, Type (0, 0), BuildingBlock: CIFDUS_clean_linker_0, # of connection points: 2
#     Edge 127, Type (0, 0), BuildingBlock: CIFDUS_clean_linker_0, # of connection points: 2
#     Edge 128, Type (0, 0), BuildingBlock: CIFDUS_clean_linker_0, # of connection points: 2
#     Edge 129, Type (0, 0), BuildingBlock: CIFDUS_clean_linker_0, # of connection points: 2
#     Edge 130, Type (0, 0), BuildingBlock: CIFDUS_clean_linker_0, # of connection points: 2
#     Edge 131, Type (0, 0), BuildingBlock: CIFDUS_clean_linker_0, # of connection points: 2
#     Edge 132, Type (0, 0), BuildingBlock: CIFDUS_clean_linker_0, # of connection points: 2
#     Edge 133, Type (0, 0), BuildingBlock: CIFDUS_clean_linker_0, # of connection points: 2
#     Edge 134, Type (0, 0), BuildingBlock: CIFDUS_clean_linker_0, # of connection points: 2
#     Edge 135, Type (0, 0), BuildingBlock: CIFDUS_clean_linker_0, # of connection points: 2
#     Edge 136, Type (0, 0), BuildingBlock: CIFDUS_clean_linker_0, # of connection points: 2
#     Edge 137, Type (0, 0), BuildingBlock: CIFDUS_clean_linker_0, # of connection points: 2
#     Edge 138, Type (0, 0), BuildingBlock: CIFDUS_clean_linker_0, # of connection points: 2
#     Edge 139, Type (0, 0), BuildingBlock: CIFDUS_clean_linker_0, # of connection points: 2
#     Edge 140, Type (0, 0), BuildingBlock: CIFDUS_clean_linker_0, # of connection points: 2
#     Edge 141, Type (0, 0), BuildingBlock: CIFDUS_clean_linker_0, # of connection points: 2
#     Edge 142, Type (0, 0), BuildingBlock: CIFDUS_clean_linker_0, # of connection points: 2
#     Edge 143, Type (0, 0), BuildingBlock: CIFDUS_clean_linker_0, # of connection points: 2
# Relax obj value: 0.156
# Max RMSD: 0.227
# Mean RMSD: 0.210
data_MOF--net-wna--node1-BETFAJ_clean_sbu_0--edge1-CIFDUS_clean_linker_0
_symmetry_space_group_name_H-M    P1
_symmetry_Int_Tables_number       1
_symmetry_cell_setting            triclinic
loop_
_symmetry_equiv_pos_as_xyz
'x, y, z'
_cell_length_a     36.138552
_cell_length_b     36.196112
_cell_length_c     142.15262
_cell_angle_alpha  90.000817
_cell_angle_beta   89.976696
_cell_angle_gamma 120.13763
loop_
_atom_site_label
_atom_site_type_symbol
_atom_site_fract_x
_atom_site_fract_y
_atom_site_fract_z
_atom_type_partial_charge
Sm0 Sm 0.11848 0.25163 0.17201 0.0
Sm1 Sm 0.12428 0.24834 0.19483 0.0
C2 C 0.11333 0.27573 0.15463 0.0
C3 C 0.13292 0.29324 0.14529 0.0
C4 C 0.15465 0.33747 0.14355 0.0
C5 C 0.16641 0.35331 0.13437 0.0
C6 C 0.15646 0.32535 0.12667 0.0
C7 C 0.13627 0.28121 0.12848 0.0
C8 C 0.12455 0.26539 0.13765 0.0
C9 C 0.13336 0.1892 0.17864 0.0
C10 C 0.21427 0.30636 0.18248 0.0
C11 C 0.1282 0.22901 0.21268 0.0
C12 C 0.10496 0.22106 0.22175 0.0
C13 C 0.06029 0.19448 0.22229 0.0
C14 C 0.03943 0.18424 0.23103 0.0
C15 C 0.06264 0.20038 0.23946 0.0
C16 C 0.1072 0.22804 0.23885 0.0
C17 C 0.12807 0.23813 0.23011 0.0
C18 C 0.08964 0.29893 0.18893 0.0
C19 C 0.036 0.17906 0.18386 0.0
O20 O 0.12418 0.30136 0.16192 0.0
O21 O 0.10426 0.23693 0.15683 0.0
O22 O 0.14772 0.22571 0.1824 0.0
O23 O 0.11561 0.18743 0.17056 0.0
O24 O 0.19164 0.2982 0.17457 0.0
O25 O 0.19597 0.29002 0.19074 0.0
O26 O 0.10942 0.20041 0.20603 0.0
O27 O 0.14872 0.26834 0.20947 0.0
O28 O 0.10155 0.27767 0.18419 0.0
O29 O 0.09698 0.29456 0.19767 0.0
O30 O 0.06148 0.18705 0.19119 0.0
O31 O 0.0481 0.20433 0.17634 0.0
H32 H 0.16126 0.35987 0.14923 0.0
H33 H 0.18247 0.38753 0.13328 0.0
H34 H 0.12752 0.25859 0.12276 0.0
H35 H 0.10719 0.23111 0.13869 0.0
H36 H 0.0415 0.18097 0.21598 0.0
H37 H 1.00504 0.1634 0.23119 0.0
H38 H 0.12623 0.24078 0.24516 0.0
H39 H 0.16253 0.25854 0.22989 0.0
Sm40 Sm 0.76781 0.86759 0.17014 0.0
Sm41 Sm 0.78172 0.88574 0.19294 0.0
C42 C 0.73848 0.82818 0.15371 0.0
C43 C 0.73282 0.83348 0.14347 0.0
C44 C 0.69216 0.82173 0.13981 0.0
C45 C 0.68546 0.82097 0.13005 0.0
C46 C 0.71916 0.83144 0.12367 0.0
C47 C 0.76009 0.84452 0.12736 0.0
C48 C 0.76681 0.84548 0.13709 0.0
C49 C 0.82733 0.95249 0.17334 0.0
C50 C 0.72299 0.91739 0.18099 0.0
C51 C 0.80663 0.9149 0.21032 0.0
C52 C 0.80971 0.9 0.21987 0.0
C53 C 0.8363 0.9299 0.22661 0.0
C54 C 0.83983 0.91687 0.2357 0.0
C55 C 0.81683 0.87344 0.2383 0.0
C56 C 0.79026 0.84348 0.23148 0.0
C57 C 0.78679 0.8566 0.22237 0.0
C58 C 0.72362 0.79871 0.189 0.0
C59 C 0.84861 0.86567 0.18124 0.0
O60 O 0.71423 0.8331 0.15987 0.0
O61 O 0.77736 0.84168 0.1568 0.0
O62 O 0.80758 0.92389 0.17951 0.0
O63 O 0.81467 0.93596 0.165 0.0
O64 O 0.72212 0.89456 0.17352 0.0
O65 O 0.74565 0.92088 0.18864 0.0
O66 O 0.83249 0.91463 0.20389 0.0
O67 O 0.76822 0.9028 0.20707 0.0
O68 O 0.74352 0.82909 0.18331 0.0
O69 O 0.73408 0.8149 0.19736 0.0
O70 O 0.84059 0.88125 0.18889 0.0
O71 O 0.82312 0.85363 0.17371 0.0
H72 H 0.6651 0.81169 0.14449 0.0
H73 H 0.65345 0.81037 0.12749 0.0
H74 H 0.78698 0.85341 0.12269 0.0
H75 H 0.79854 0.85444 0.13959 0.0
H76 H 0.85429 0.96357 0.22485 0.0
H77 H 0.8601 0.94105 0.24073 0.0
H78 H 0.77245 0.80973 0.23313 0.0
H79 H 0.76625 0.83286 0.21728 0.0
Sm80 Sm 0.1618 0.90505 0.17013 0.0
Sm81 Sm 0.13637 0.89926 0.19275 0.0
C82 C 0.20599 0.91537 0.15453 0.0
C83 C 0.20284 0.89842 0.14493 0.0
C84 C 0.23884 0.89936 0.14099 0.0
C85 C 0.23807 0.88637 0.13169 0.0
C86 C 0.20119 0.87213 0.12611 0.0
C87 C 0.16479 0.8705 0.13015 0.0
C88 C 0.16558 0.88345 0.13949 0.0
C89 C 0.07557 0.87937 0.17223 0.0
C90 C 0.11501 0.81115 0.18082 0.0
C91 C 0.10371 0.89671 0.20966 0.0
C92 C 0.11656 0.91868 0.21898 0.0
C93 C 0.09327 0.93662 0.2228 0.0
C94 C 0.10403 0.957 0.23159 0.0
C95 C 0.13843 0.96002 0.23688 0.0
C96 C 0.1616 0.9417 0.23308 0.0
C97 C 0.15089 0.92139 0.22424 0.0
C98 C 0.22446 0.9302 0.18979 0.0
C99 C 0.16638 0.98804 0.18076 0.0
O100 O 0.20542 0.89169 0.16158 0.0
O101 O 0.18511 0.93562 0.15624 0.0
O102 O 0.10267 0.88755 0.17872 0.0
O103 O 0.09434 0.88356 0.16415 0.0
O104 O 0.14002 0.83515 0.17386 0.0
O105 O 0.1056 0.82756 0.18824 0.0
O106 O 0.10113 0.91862 0.2026 0.0
O107 O 0.11906 0.87204 0.2072 0.0
O108 O 0.19493 0.91931 0.18391 0.0
O109 O 0.20679 0.92393 0.19802 0.0
O110 O 0.14496 0.9642 0.18808 0.0
O111 O 0.18187 0.97435 0.174 0.0
H112 H 0.26798 0.91104 0.14505 0.0
H113 H 0.26688 0.88868 0.1288 0.0
H114 H 0.13572 0.85926 0.1261 0.0
H115 H 0.13732 0.88231 0.1424 0.0
H116 H 0.06644 0.93474 0.21898 0.0
H117 H 0.08491 0.97 0.2343 0.0
H118 H 0.18852 0.94366 0.23687 0.0
H119 H 0.16959 0.90796 0.22152 0.0
Sm120 Sm 0.2661 0.1098 0.35679 0.0
Sm121 Sm 0.25157 0.11242 0.33448 0.0
C122 C 0.29528 0.10754 0.37385 0.0
C123 C 0.30619 0.12501 0.38355 0.0
C124 C 0.34124 0.12625 0.38811 0.0
C125 C 0.34865 0.13608 0.39771 0.0
C126 C 0.32107 0.14488 0.40303 0.0
C127 C 0.28696 0.14541 0.39833 0.0
C128 C 0.27955 0.13552 0.38871 0.0
C129 C 0.20106 0.1254 0.35187 0.0
C130 C 0.31797 0.20315 0.34573 0.0
C131 C 0.2227 0.11324 0.31729 0.0
C132 C 0.21504 0.09176 0.30798 0.0
C133 C 0.18296 0.08975 0.30207 0.0
C134 C 0.17515 0.07005 0.29321 0.0
C135 C 0.19925 0.05171 0.28999 0.0
C136 C 0.2314 0.05373 0.29598 0.0
C137 C 0.23917 0.07347 0.30486 0.0
C138 C 0.30724 0.08081 0.33792 0.0
C139 C 0.19172 0.02554 0.3468 0.0
O140 O 0.32058 0.1292 0.36686 0.0
O141 O 0.25483 0.08659 0.3715 0.0
O142 O 0.23564 0.13817 0.34741 0.0
O143 O 0.2027 0.10875 0.35984 0.0
O144 O 0.31425 0.18046 0.35337 0.0
O145 O 0.29541 0.18525 0.33794 0.0
O146 O 0.1978 0.09061 0.32425 0.0
O147 O 0.26256 0.13822 0.3199 0.0
O148 O 0.28916 0.09222 0.34388 0.0
O149 O 0.2963 0.08695 0.32966 0.0
O150 O 0.19264 0.04986 0.33974 0.0
O151 O 0.22346 0.0392 0.35292 0.0
H152 H 0.36199 0.11783 0.38432 0.0
H153 H 0.37491 0.1348 0.40105 0.0
H154 H 0.26543 0.15272 0.40212 0.0
H155 H 0.25223 0.1348 0.38538 0.0
H156 H 0.16377 0.10344 0.30432 0.0
H157 H 0.14967 0.06864 0.28894 0.0
H158 H 0.25103 0.04051 0.29377 0.0
H159 H 0.26413 0.07454 0.30927 0.0
Sm160 Sm 0.92077 0.15702 0.36004 0.0
Sm161 Sm 0.91476 0.14414 0.33735 0.0
C162 C 0.92471 0.18673 0.3773 0.0
C163 C 0.90474 0.17937 0.38673 0.0
C164 C 0.90297 0.213 0.39121 0.0
C165 C 0.89043 0.20954 0.40064 0.0
C166 C 0.87951 0.17234 0.40583 0.0
C167 C 0.87955 0.13793 0.40121 0.0
C168 C 0.89202 0.14139 0.39176 0.0
C169 C 0.90422 0.07792 0.35398 0.0
C170 C 0.82546 0.11666 0.34963 0.0
C171 C 0.91157 0.11789 0.31978 0.0
C172 C 0.93241 0.13355 0.31048 0.0
C173 C 0.94254 0.10753 0.30502 0.0
C174 C 0.96162 0.12103 0.29615 0.0
C175 C 0.97106 0.16101 0.29249 0.0
C176 C 0.96099 0.18714 0.29802 0.0
C177 C 0.94195 0.1736 0.30691 0.0
C178 C 0.94846 0.2304 0.34238 0.0
C179 C 1.00264 0.16624 0.34905 0.0
O180 O 0.90709 0.19565 0.37026 0.0
O181 O 0.94158 0.16347 0.37487 0.0
O182 O 0.89085 0.10037 0.35005 0.0
O183 O 0.92192 0.09454 0.36203 0.0
O184 O 0.84937 0.13327 0.35727 0.0
O185 O 0.84223 0.11482 0.3414 0.0
O186 O 0.93452 0.11363 0.32637 0.0
O187 O 0.88721 0.13247 0.32296 0.0
O188 O 0.93714 0.19837 0.3475 0.0
O189 O 0.94116 0.21684 0.33376 0.0
O190 O 0.97737 0.14535 0.34185 0.0
O191 O 0.99063 0.18376 0.35566 0.0
H192 H 0.91301 0.24274 0.38751 0.0
H193 H 0.89129 0.23686 0.40397 0.0
H194 H 0.87072 0.10857 0.40494 0.0
H195 H 0.89301 0.11487 0.38849 0.0
H196 H 0.93565 0.07657 0.30762 0.0
H197 H 0.96948 0.10029 0.29221 0.0
H198 H 0.9673 0.21789 0.29543 0.0
H199 H 0.93455 0.1944 0.31097 0.0
Sm200 Sm 0.8737 0.76483 0.35735 0.0
Sm201 Sm 0.88288 0.77333 0.33616 0.0
C202 C 0.84773 0.74047 0.37489 0.0
C203 C 0.85007 0.72342 0.38422 0.0
C204 C 0.81463 0.68548 0.38745 0.0
C205 C 0.8117 0.67322 0.39687 0.0
C206 C 0.84407 0.69874 0.40333 0.0
C207 C 0.88086 0.73531 0.39998 0.0
C208 C 0.88377 0.74764 0.39053 0.0
C209 C 0.95503 0.82542 0.3517 0.0
C210 C 0.90691 0.70712 0.34643 0.0
C211 C 0.89989 0.79571 0.31807 0.0
C212 C 0.88659 0.80748 0.30913 0.0
C213 C 0.90582 0.85061 0.30642 0.0
C214 C 0.89864 0.86203 0.29746 0.0
C215 C 0.87222 0.83069 0.29088 0.0
C216 C 0.85173 0.78756 0.29371 0.0
C217 C 0.85899 0.7761 0.30269 0.0
C218 C 0.80003 0.71687 0.34247 0.0
C219 C 0.86636 0.84138 0.3483 0.0
O220 O 0.83158 0.71459 0.36769 0.0
O221 O 0.87741 0.77914 0.37257 0.0
O222 O 0.93196 0.79005 0.34762 0.0
O223 O 0.93747 0.82736 0.3595 0.0
O224 O 0.88453 0.70883 0.3536 0.0
O225 O 0.91634 0.73361 0.3392 0.0
O226 O 0.91351 0.82308 0.32502 0.0
O227 O 0.87894 0.75606 0.32097 0.0
O228 O 0.82563 0.75287 0.34593 0.0
O229 O 0.81725 0.71031 0.33515 0.0
O230 O 0.88432 0.83612 0.34069 0.0
O231 O 0.85014 0.8117 0.35485 0.0
H232 H 0.78804 0.66635 0.38279 0.0
H233 H 0.78323 0.64449 0.39919 0.0
H234 H 0.90627 0.75578 0.40476 0.0
H235 H 0.91143 0.77724 0.38829 0.0
H236 H 0.92762 0.87566 0.31112 0.0
H237 H 0.91448 0.89559 0.29563 0.0
H238 H 0.83147 0.76245 0.28884 0.0
H239 H 0.84405 0.74252 0.30446 0.0
Sm240 Sm 0.90169 0.77187 0.83457 0.0
Sm241 Sm 0.90949 0.75927 0.85766 0.0
C242 C 0.89829 0.79838 0.81733 0.0
C243 C 0.91885 0.80464 0.80789 0.0
C244 C 0.96092 0.83815 0.80628 0.0
C245 C 0.97879 0.84628 0.79724 0.0
C246 C 0.95522 0.82124 0.7895 0.0
C247 C 0.91354 0.78699 0.79114 0.0
C248 C 0.89553 0.77895 0.8002 0.0
C249 C 0.93225 0.71553 0.83823 0.0
C250 C 0.99052 0.83578 0.8465 0.0
C251 C 0.91964 0.7315 0.87421 0.0
C252 C 0.90467 0.72298 0.88411 0.0
C253 C 0.90326 0.6883 0.88885 0.0
C254 C 0.89376 0.68199 0.89848 0.0
C255 C 0.88553 0.71036 0.90363 0.0
C256 C 0.88568 0.7444 0.89877 0.0
C257 C 0.89512 0.75064 0.88912 0.0
C258 C 0.88555 0.81993 0.85352 0.0
C259 C 0.81407 0.71059 0.84758 0.0
O260 O 0.92181 0.82388 0.82412 0.0
O261 O 0.87239 0.75917 0.82022 0.0
O262 O 0.92233 0.73521 0.84412 0.0
O263 O 0.92537 0.72556 0.82993 0.0
O264 O 0.96609 0.8313 0.83911 0.0
O265 O 0.9784 0.80676 0.85326 0.0
O266 O 0.89413 0.70578 0.86765 0.0
O267 O 0.94144 0.77155 0.87152 0.0
O268 O 0.89164 0.79612 0.8481 0.0
O269 O 0.89077 0.81058 0.86209 0.0
O270 O 0.83899 0.71134 0.85453 0.0
O271 O 0.82982 0.73298 0.83964 0.0
H272 H 0.98001 0.85875 0.81199 0.0
H273 H 1.01118 0.87251 0.79631 0.0
H274 H 0.89427 0.76723 0.78535 0.0
H275 H 0.86294 0.75315 0.80116 0.0
H276 H 0.9108 0.66671 0.88516 0.0
H277 H 0.89448 0.65576 0.90197 0.0
H278 H 0.87889 0.76654 0.90244 0.0
H279 H 0.89586 0.77761 0.88563 0.0
Sm280 Sm 0.25263 0.1332 0.83322 0.0
Sm281 Sm 0.25699 0.15293 0.85523 0.0
C282 C 0.23066 0.10167 0.81594 0.0
C283 C 0.22734 0.1161 0.80639 0.0
C284 C 0.20145 0.08589 0.79963 0.0
C285 C 0.19758 0.09874 0.79055 0.0
C286 C 0.21955 0.14225 0.788 0.0
C287 C 0.24545 0.17249 0.79484 0.0
C288 C 0.24923 0.15957 0.80393 0.0
C289 C 0.3059 0.22127 0.83636 0.0
C290 C 0.18548 0.15934 0.84306 0.0
C291 C 0.28143 0.18642 0.87228 0.0
C292 C 0.30024 0.18489 0.88143 0.0
C293 C 0.33487 0.22256 0.88499 0.0
C294 C 0.35005 0.22385 0.8941 0.0
C295 C 0.33084 0.18745 0.89991 0.0
C296 C 0.29694 0.1493 0.89623 0.0
C297 C 0.28179 0.14801 0.88708 0.0
C298 C 0.19332 0.07245 0.84995 0.0
C299 C 0.31214 0.10849 0.84698 0.0
O300 O 0.20311 0.09985 0.82219 0.0
O301 O 0.26924 0.11661 0.8194 0.0
O302 O 0.28565 0.19242 0.84236 0.0
O303 O 0.29884 0.20301 0.82822 0.0
O304 O 0.19143 0.13692 0.83645 0.0
O305 O 0.21286 0.17724 0.85007 0.0
O306 O 0.30656 0.20066 0.86491 0.0
O307 O 0.24274 0.15562 0.87029 0.0
O308 O 0.23033 0.09266 0.84636 0.0
O309 O 0.19079 0.09279 0.85724 0.0
O310 O 0.30393 0.12723 0.85406 0.0
O311 O 0.29501 0.10491 0.83848 0.0
H312 H 0.18424 0.05219 0.80137 0.0
H313 H 0.17783 0.07443 0.78549 0.0
H314 H 0.26241 0.20628 0.79321 0.0
H315 H 0.26916 0.18353 0.80905 0.0
H316 H 0.34932 0.25155 0.88082 0.0
H317 H 0.37578 0.25394 0.89672 0.0
H318 H 0.28176 0.12053 0.90046 0.0
H319 H 0.25499 0.11845 0.88454 0.0
Sm320 Sm 0.89386 0.11854 0.836 0.0
Sm321 Sm 0.87575 0.11977 0.85758 0.0
C322 C 0.9172 0.11156 0.81861 0.0
C323 C 0.90158 0.08903 0.80949 0.0
C324 C 0.92372 0.0707 0.8053 0.0
C325 C 0.91142 0.0509 0.79649 0.0
C326 C 0.87657 0.0489 0.79161 0.0
C327 C 0.8543 0.06729 0.79582 0.0
C328 C 0.86662 0.08708 0.80468 0.0
C329 C 0.81155 0.10258 0.84032 0.0
C330 C 0.86891 0.03254 0.849 0.0
C331 C 0.83708 0.11559 0.87373 0.0
C332 C 0.84351 0.13364 0.88336 0.0
C333 C 0.82055 0.15342 0.88631 0.0
C334 C 0.82191 0.16568 0.89571 0.0
C335 C 0.846 0.1581 0.90242 0.0
C336 C 0.86998 0.13942 0.89938 0.0
C337 C 0.86879 0.1274 0.88998 0.0
C338 C 0.96177 0.14513 0.85513 0.0
C339 C 0.92772 0.21087 0.84657 0.0
O340 O 0.91852 0.08943 0.82574 0.0
O341 O 0.90615 0.13957 0.82105 0.0
O342 O 0.83252 0.08915 0.84486 0.0
O343 O 0.83362 0.12363 0.83304 0.0
O344 O 0.88351 0.05236 0.84083 0.0
O345 O 0.85929 0.05019 0.85601 0.0
O346 O 0.83745 0.13888 0.8666 0.0
O347 O 0.85457 0.09238 0.87177 0.0
O348 O 0.9336 0.13495 0.84889 0.0
O349 O 0.94456 0.14287 0.8633 0.0
O350 O 0.89875 0.18947 0.85313 0.0
O351 O 0.93633 0.19065 0.83988 0.0
H352 H 0.95106 0.07216 0.8088 0.0
H353 H 0.92983 0.03781 0.79344 0.0
H354 H 0.82708 0.06601 0.79232 0.0
H355 H 0.84892 0.10098 0.80773 0.0
H356 H 0.80058 0.15838 0.88138 0.0
H357 H 0.80358 0.18059 0.89774 0.0
H358 H 0.88845 0.13248 0.90433 0.0
H359 H 0.88668 0.11196 0.88799 0.0
Sm360 Sm 0.77521 0.90239 0.6928 0.0
Sm361 Sm 0.77544 0.90779 0.67163 0.0
C362 C 0.7908 0.90432 0.71117 0.0
C363 C 0.80077 0.92895 0.72007 0.0
C364 C 0.83446 0.93278 0.72568 0.0
C365 C 0.84264 0.95243 0.73452 0.0
C366 C 0.81725 0.96877 0.738 0.0
C367 C 0.78405 0.96581 0.73226 0.0
C368 C 0.77581 0.94601 0.7234 0.0
C369 C 0.72099 0.92949 0.68543 0.0
C370 C 0.84865 0.99088 0.68271 0.0
C371 C 0.75436 0.91159 0.65388 0.0
C372 C 0.74085 0.89173 0.64442 0.0
C373 C 0.69752 0.87036 0.64175 0.0
C374 C 0.68562 0.85789 0.63238 0.0
C375 C 0.71678 0.86682 0.62541 0.0
C376 C 0.75998 0.88701 0.62817 0.0
C377 C 0.77183 0.89933 0.63752 0.0
C378 C 0.83637 0.89025 0.67795 0.0
C379 C 0.71892 0.81166 0.68174 0.0
O380 O 0.82066 0.91748 0.70474 0.0
O381 O 0.7524 0.88833 0.70761 0.0
O382 O 0.75831 0.94077 0.68273 0.0
O383 O 0.71128 0.90375 0.69252 0.0
O384 O 0.83807 0.96573 0.69014 0.0
O385 O 0.8248 0.97833 0.67502 0.0
O386 O 0.72661 0.89859 0.66081 0.0
O387 O 0.79329 0.92353 0.65666 0.0
O388 O 0.79941 0.87489 0.68158 0.0
O389 O 0.83971 0.9111 0.67027 0.0
O390 O 0.72505 0.83506 0.67406 0.0
O391 O 0.7382 0.83007 0.68971 0.0
H392 H 0.85412 0.91981 0.7233 0.0
H393 H 0.86895 0.95477 0.73863 0.0
H394 H 0.76365 0.97776 0.73472 0.0
H395 H 0.74949 0.9434 0.71924 0.0
H396 H 0.67283 0.86445 0.64684 0.0
H397 H 0.65199 0.84189 0.63056 0.0
H398 H 0.78502 0.8951 0.62303 0.0
H399 H 0.80557 0.91643 0.63926 0.0
Sm400 Sm 0.12113 0.87614 0.69176 0.0
Sm401 Sm 0.12542 0.87007 0.67046 0.0
C402 C 0.11099 0.88946 0.7098 0.0
C403 C 0.08497 0.87193 0.71852 0.0
C404 C 0.06464 0.8927 0.72248 0.0
C405 C 0.04405 0.88006 0.73123 0.0
C406 C 0.04332 0.8463 0.73632 0.0
C407 C 0.06286 0.82484 0.73224 0.0
C408 C 0.08351 0.83754 0.72348 0.0
C409 C 0.10021 0.7955 0.68497 0.0
C410 C 0.0366 0.85559 0.6793 0.0
C411 C 0.12798 0.84508 0.65302 0.0
C412 C 0.14777 0.84722 0.64372 0.0
C413 C 0.14673 0.81049 0.64019 0.0
C414 C 0.15791 0.80871 0.63083 0.0
C415 C 0.17036 0.84366 0.62472 0.0
C416 C 0.17301 0.88109 0.62838 0.0
C417 C 0.16179 0.88284 0.63776 0.0
C418 C 0.13638 0.94739 0.67615 0.0
C419 C 0.21617 0.913 0.6825 0.0
O420 O 0.09488 0.90049 0.70284 0.0
O421 O 0.13452 0.87353 0.70695 0.0
O422 O 0.08936 0.82053 0.6815 0.0
O423 O 0.12176 0.81202 0.69261 0.0
O424 O 0.05802 0.87234 0.68715 0.0
O425 O 0.05335 0.84436 0.67238 0.0
O426 O 0.13718 0.82931 0.66038 0.0
O427 O 0.11801 0.87419 0.65512 0.0
O428 O 0.15153 0.92723 0.68046 0.0
O429 O 0.11925 0.92911 0.66821 0.0
O430 O 0.19611 0.89227 0.67473 0.0
O431 O 0.19437 0.91577 0.68968 0.0
H432 H 0.06549 0.91952 0.71889 0.0
H433 H 0.02886 0.89697 0.73404 0.0
H434 H 0.06343 0.79901 0.73595 0.0
H435 H 0.09918 0.82103 0.7207 0.0
H436 H 0.13536 0.78231 0.64456 0.0
H437 H 0.15487 0.77912 0.62828 0.0
H438 H 0.18308 0.90888 0.62395 0.0
H439 H 0.16273 0.91159 0.64024 0.0
Sm440 Sm 0.14797 0.24623 0.69116 0.0
Sm441 Sm 0.15656 0.26176 0.66936 0.0
C442 C 0.13116 0.21969 0.70896 0.0
C443 C 0.14545 0.20825 0.71778 0.0
C444 C 0.12724 0.16508 0.72036 0.0
C445 C 0.13509 0.15359 0.72923 0.0
C446 C 0.16119 0.18494 0.73583 0.0
C447 C 0.18076 0.22815 0.73312 0.0
C448 C 0.17283 0.23968 0.72423 0.0
C449 C 0.22957 0.30597 0.68455 0.0
C450 C 0.16178 0.17963 0.67781 0.0
C451 C 0.19271 0.29364 0.65286 0.0
C452 C 0.18772 0.30708 0.64335 0.0
C453 C 0.22353 0.34054 0.6389 0.0
C454 C 0.22206 0.34937 0.62936 0.0
C455 C 0.18468 0.32477 0.62404 0.0
C456 C 0.14814 0.29258 0.62866 0.0
C457 C 0.14963 0.28381 0.63821 0.0
C458 C 0.07129 0.20558 0.67296 0.0
C459 C 0.1144 0.30712 0.68207 0.0
O460 O 0.12047 0.1938 0.70176 0.0
O461 O 0.14909 0.25988 0.70648 0.0
O462 O 0.20322 0.27102 0.68083 0.0
O463 O 0.21379 0.30989 0.69243 0.0
O464 O 0.15379 0.18843 0.68635 0.0
O465 O 0.16725 0.20442 0.67048 0.0
O466 O 0.19672 0.31794 0.66009 0.0
O467 O 0.17075 0.25269 0.65473 0.0
O468 O 0.10074 0.2218 0.6791 0.0
O469 O 0.08676 0.22027 0.66465 0.0
O470 O 0.13866 0.31162 0.67466 0.0
O471 O 0.10856 0.27963 0.68885 0.0
H472 H 0.10566 0.14003 0.71563 0.0
H473 H 0.11998 0.11998 0.73098 0.0
H474 H 0.20077 0.25321 0.73803 0.0
H475 H 0.18703 0.27327 0.72254 0.0
H476 H 0.25335 0.35865 0.6427 0.0
H477 H 0.25094 0.37407 0.62605 0.0
H478 H 0.11862 0.27345 0.62482 0.0
H479 H 0.12151 0.25782 0.64148 0.0
Sm480 Sm 0.79262 0.59121 0.50426 0.0
Sm481 Sm 0.78918 0.57896 0.52501 0.0
C482 C 0.79417 0.62066 0.48708 0.0
C483 C 0.81563 0.63908 0.47802 0.0
C484 C 0.80646 0.66777 0.47341 0.0
C485 C 0.81902 0.67954 0.46407 0.0
C486 C 0.84114 0.66288 0.45913 0.0
C487 C 0.85256 0.63607 0.46395 0.0
C488 C 0.83972 0.62408 0.4733 0.0
C489 C 0.80757 0.52618 0.50901 0.0
C490 C 0.88416 0.64094 0.51582 0.0
C491 C 0.78074 0.55459 0.54297 0.0
C492 C 0.75581 0.54566 0.55183 0.0
C493 C 0.74718 0.50944 0.55712 0.0
C494 C 0.72725 0.50186 0.56593 0.0
C495 C 0.7154 0.53038 0.56972 0.0
C496 C 0.7232 0.56623 0.56429 0.0
C497 C 0.74327 0.57385 0.55546 0.0
C498 C 0.76451 0.63733 0.519 0.0
C499 C 0.70608 0.51178 0.51244 0.0
O500 O 0.80407 0.64489 0.49458 0.0
O501 O 0.78367 0.5812 0.48892 0.0
O502 O 0.82162 0.5606 0.51368 0.0
O503 O 0.78937 0.52789 0.5013 0.0
O504 O 0.86329 0.64122 0.50819 0.0
O505 O 0.8629 0.61551 0.52295 0.0
O506 O 0.76377 0.52776 0.53598 0.0
O507 O 0.80365 0.59424 0.54019 0.0
O508 O 0.75446 0.60193 0.51532 0.0
O509 O 0.78764 0.64265 0.52638 0.0
O510 O 0.72769 0.5172 0.5203 0.0
O511 O 0.72146 0.54098 0.50574 0.0
H512 H 0.78773 0.67956 0.47689 0.0
H513 H 0.81033 0.70079 0.46062 0.0
H514 H 0.86946 0.6226 0.46033 0.0
H515 H 0.84701 0.60168 0.47669 0.0
H516 H 0.75662 0.48726 0.5545 0.0
H517 H 0.72115 0.47352 0.56978 0.0
H518 H 0.71486 0.5891 0.56698 0.0
H519 H 0.74965 0.60217 0.55156 0.0
Sm520 Sm 0.4378 0.19472 0.50421 0.0
Sm521 Sm 0.44663 0.21424 0.52645 0.0
C522 C 0.41143 0.16262 0.48706 0.0
C523 C 0.40073 0.16926 0.47735 0.0
C524 C 0.36645 0.1351 0.47266 0.0
C525 C 0.35905 0.13805 0.46308 0.0
C526 C 0.38587 0.17531 0.45792 0.0
C527 C 0.41926 0.21017 0.46275 0.0
C528 C 0.42664 0.20717 0.47234 0.0
C529 C 0.50336 0.27491 0.50924 0.0
C530 C 0.38588 0.24044 0.5135 0.0
C531 C 0.47238 0.24466 0.54374 0.0
C532 C 0.47762 0.23022 0.5532 0.0
C533 C 0.50842 0.25977 0.55942 0.0
C534 C 0.51415 0.24705 0.56839 0.0
C535 C 0.48922 0.20429 0.57138 0.0
C536 C 0.45828 0.17473 0.56509 0.0
C537 C 0.45259 0.18752 0.55611 0.0
C538 C 0.39063 0.12675 0.5232 0.0
C539 C 0.50727 0.18291 0.51575 0.0
O540 O 0.38497 0.15725 0.49393 0.0
O541 O 0.45165 0.1838 0.48961 0.0
O542 O 0.46733 0.25473 0.51325 0.0
O543 O 0.50354 0.25502 0.50164 0.0
O544 O 0.39175 0.22079 0.50626 0.0
O545 O 0.40503 0.24443 0.52177 0.0
O546 O 0.49846 0.24648 0.53711 0.0
O547 O 0.43323 0.23034 0.54069 0.0
O548 O 0.4107 0.15566 0.51721 0.0
O549 O 0.39924 0.14461 0.53141 0.0
O550 O 0.50554 0.20781 0.52237 0.0
O551 O 0.477 0.16484 0.50931 0.0
H552 H 0.34626 0.10537 0.47633 0.0
H553 H 0.33338 0.11033 0.45964 0.0
H554 H 0.44018 0.23965 0.45908 0.0
H555 H 0.45333 0.23408 0.47577 0.0
H556 H 0.5283 0.29285 0.55734 0.0
H557 H 0.53875 0.2707 0.57291 0.0
H558 H 0.43804 0.14166 0.56712 0.0
H559 H 0.42859 0.16401 0.55146 0.0
Sm560 Sm 0.82392 0.24279 0.50627 0.0
Sm561 Sm 0.81895 0.23326 0.52734 0.0
C562 C 0.8478 0.24938 0.48838 0.0
C563 C 0.84231 0.22938 0.47899 0.0
C564 C 0.87782 0.23087 0.47459 0.0
C565 C 0.87584 0.2189 0.46515 0.0
C566 C 0.83828 0.20533 0.45986 0.0
C567 C 0.8021 0.20205 0.46441 0.0
C568 C 0.80408 0.21396 0.47386 0.0
C569 C 0.74457 0.22199 0.51306 0.0
C570 C 0.78933 0.14616 0.51526 0.0
C571 C 0.80661 0.23376 0.54585 0.0
C572 C 0.82097 0.26087 0.55448 0.0
C573 C 0.8091 0.29185 0.55618 0.0
C574 C 0.81908 0.31411 0.56474 0.0
C575 C 0.84116 0.30606 0.57188 0.0
C576 C 0.85357 0.27551 0.57011 0.0
C577 C 0.8435 0.25317 0.56155 0.0
C578 C 0.90049 0.2624 0.51976 0.0
C579 C 0.83462 0.32366 0.51804 0.0
O580 O 0.8657 0.23917 0.49513 0.0
O581 O 0.81818 0.25719 0.49138 0.0
O582 O 0.76696 0.20671 0.51622 0.0
O583 O 0.76148 0.24432 0.50551 0.0
O584 O 0.80838 0.17237 0.50809 0.0
O585 O 0.78462 0.16119 0.5234 0.0
O586 O 0.78533 0.24171 0.53952 0.0
O587 O 0.83216 0.22197 0.54212 0.0
O588 O 0.87443 0.27425 0.51743 0.0
O589 O 0.88417 0.23473 0.52653 0.0
O590 O 0.81988 0.29732 0.5253 0.0
O591 O 0.84595 0.31242 0.51019 0.0
H592 H 0.90784 0.24313 0.47834 0.0
H593 H 0.90448 0.22234 0.46189 0.0
H594 H 0.77246 0.19115 0.4606 0.0
H595 H 0.77611 0.21247 0.47704 0.0
H596 H 0.79123 0.29834 0.55097 0.0
H597 H 0.80834 0.33684 0.56584 0.0
H598 H 0.87111 0.26875 0.57535 0.0
H599 H 0.85274 0.22924 0.56053 0.0
Sm600 Sm 0.9298 0.44604 0.69185 0.0
Sm601 Sm 0.91815 0.45096 0.66963 0.0
C602 C 0.95633 0.4428 0.70916 0.0
C603 C 0.96552 0.45907 0.71902 0.0
C604 C 1.00733 0.47694 0.72259 0.0
C605 C 1.01556 0.48577 0.73223 0.0
C606 C 0.98208 0.47658 0.73858 0.0
C607 C 0.94051 0.46034 0.73492 0.0
C608 C 0.93233 0.45166 0.72529 0.0
C609 C 0.86564 0.46271 0.68656 0.0
C610 C 0.98483 0.53988 0.68127 0.0
C611 C 0.89145 0.45398 0.65236 0.0
C612 C 0.88715 0.43367 0.64307 0.0
C613 C 0.86633 0.4417 0.63569 0.0
C614 C 0.86122 0.42215 0.62689 0.0
C615 C 0.87678 0.39398 0.62525 0.0
C616 C 0.89793 0.38629 0.63268 0.0
C617 C 0.90302 0.40588 0.64148 0.0
C618 C 0.97363 0.41936 0.67286 0.0
C619 C 0.85725 0.36293 0.68148 0.0
O620 O 0.98252 0.4655 0.70239 0.0
O621 O 0.91641 0.421 0.70643 0.0
O622 O 0.90099 0.47589 0.68244 0.0
O623 O 0.86558 0.44459 0.69445 0.0
O624 O 0.97965 0.51635 0.68884 0.0
O625 O 0.96282 0.52314 0.67338 0.0
O626 O 0.86598 0.42938 0.65904 0.0
O627 O 0.93045 0.47994 0.65535 0.0
O628 O 0.95535 0.42983 0.67902 0.0
O629 O 0.96294 0.42634 0.66466 0.0
O630 O 0.85854 0.38805 0.67457 0.0
O631 O 0.88875 0.37592 0.68762 0.0
H632 H 0.0335 0.48245 0.71798 0.0
H633 H 0.04788 0.49787 0.73476 0.0
H634 H 0.91401 0.45346 0.73955 0.0
H635 H 0.89967 0.43774 0.72282 0.0
H636 H 0.85366 0.46288 0.63677 0.0
H637 H 0.84425 0.42846 0.62143 0.0
H638 H 0.91085 0.36528 0.63168 0.0
H639 H 0.91922 0.39921 0.64706 0.0
Sm640 Sm 0.5816 0.49053 0.68967 0.0
Sm641 Sm 0.57562 0.47089 0.66772 0.0
C642 C 0.58617 0.52329 0.70666 0.0
C643 C 0.56738 0.51706 0.71623 0.0
C644 C 0.5348 0.52639 0.71821 0.0
C645 C 0.52188 0.52652 0.72751 0.0
C646 C 0.54141 0.51759 0.73506 0.0
C647 C 0.57296 0.50687 0.73303 0.0
C648 C 0.58583 0.50673 0.72375 0.0
C649 C 0.56358 0.40877 0.68514 0.0
C650 C 0.48641 0.44901 0.67951 0.0
C651 C 0.57113 0.43856 0.6507 0.0
C652 C 0.59147 0.45067 0.64125 0.0
C653 C 0.60331 0.42366 0.63675 0.0
C654 C 0.62235 0.43377 0.62783 0.0
C655 C 0.63007 0.47125 0.62313 0.0
C656 C 0.61784 0.4982 0.62762 0.0
C657 C 0.59888 0.48811 0.6366 0.0
C658 C 0.61038 0.5592 0.67038 0.0
C659 C 0.66337 0.496 0.67967 0.0
O660 O 0.56673 0.52927 0.69953 0.0
O661 O 0.60483 0.50153 0.7044 0.0
O662 O 0.55034 0.43024 0.68076 0.0
O663 O 0.58259 0.4283 0.69285 0.0
O664 O 0.51048 0.46803 0.68698 0.0
O665 O 0.50306 0.44388 0.67157 0.0
O666 O 0.59429 0.43636 0.65754 0.0
O667 O 0.54715 0.45437 0.65339 0.0
O668 O 0.5988 0.53085 0.67665 0.0
O669 O 0.60298 0.54045 0.66229 0.0
O670 O 0.63781 0.47241 0.67276 0.0
O671 O 0.65158 0.51625 0.6856 0.0
H672 H 0.52013 0.53488 0.7126 0.0
H673 H 0.49711 0.53441 0.72879 0.0
H674 H 0.58924 0.50047 0.73864 0.0
H675 H 0.61152 0.50011 0.72251 0.0
H676 H 0.59772 0.39448 0.64015 0.0
H677 H 0.63065 0.41186 0.62457 0.0
H678 H 0.62362 0.5275 0.62427 0.0
H679 H 0.59021 0.50968 0.6399 0.0
Sm680 Sm 0.53964 0.09688 0.69043 0.0
Sm681 Sm 0.55448 0.10842 0.66949 0.0
C682 C 0.51161 0.06987 0.70784 0.0
C683 C 0.51561 0.05357 0.71719 0.0
C684 C 0.48209 0.01435 0.72047 0.0
C685 C 0.48152 1.00126 0.72978 0.0
C686 C 0.51444 0.02714 0.73612 0.0
C687 C 0.54872 0.06588 0.73274 0.0
C688 C 0.54927 0.07895 0.72341 0.0
C689 C 0.62171 0.16 0.68572 0.0
C690 C 0.5792 0.04326 0.67994 0.0
C691 C 0.57416 0.13358 0.65159 0.0
C692 C 0.55983 0.14494 0.64272 0.0
C693 C 0.58236 0.18717 0.63937 0.0
C694 C 0.5722 0.19815 0.63067 0.0
C695 C 0.53922 0.1672 0.62498 0.0
C696 C 0.51646 0.12488 0.62837 0.0
C697 C 0.52663 0.11389 0.63711 0.0
C698 C 0.47153 0.04623 0.67435 0.0
C699 C 0.53148 0.17308 0.68134 0.0
O700 O 0.4987 0.04439 0.70053 0.0
O701 O 0.53874 0.10957 0.70566 0.0
O702 O 0.60047 0.12484 0.68149 0.0
O703 O 0.60185 0.16072 0.69324 0.0
O704 O 0.55458 0.04331 0.68682 0.0
O705 O 0.58992 0.07079 0.67286 0.0
O706 O 0.58548 0.16 0.65869 0.0
O707 O 0.55489 0.09365 0.65427 0.0
O708 O 0.49289 0.08215 0.67835 0.0
O709 O 0.49351 0.04332 0.66751 0.0
O710 O 0.55119 0.16884 0.67393 0.0
O711 O 0.51528 0.14328 0.68787 0.0
H712 H 0.45532 0.99443 0.71592 0.0
H713 H 0.45426 0.97154 0.7321 0.0
H714 H 0.57497 0.08642 0.73734 0.0
H715 H 0.57551 0.10955 0.72116 0.0
H716 H 0.60861 0.21174 0.64341 0.0
H717 H 0.59106 0.2309 0.62829 0.0
H718 H 0.49059 0.10017 0.62429 0.0
H719 H 0.50876 0.08093 0.6394 0.0
Sm720 Sm 0.57092 0.10381 0.16746 0.0
Sm721 Sm 0.5687 0.09351 0.18825 0.0
C722 C 0.5805 0.12837 0.14947 0.0
C723 C 0.6057 0.13608 0.14067 0.0
C724 C 0.61771 0.17348 0.13549 0.0
C725 C 0.63827 0.18033 0.12676 0.0
C726 C 0.64739 0.14987 0.12293 0.0
C727 C 0.63606 0.11271 0.12824 0.0
C728 C 0.61539 0.10585 0.13699 0.0
C729 C 0.58921 0.04042 0.17303 0.0
C730 C 0.65728 0.16616 0.17975 0.0
C731 C 0.56649 0.06757 0.20587 0.0
C732 C 0.54823 0.05444 0.21547 0.0
C733 C 0.55045 0.02107 0.21998 0.0
C734 C 0.54139 0.01314 0.22961 0.0
C735 C 0.52993 0.0385 0.235 0.0
C736 C 0.52559 0.07054 0.23035 0.0
C737 C 0.53473 0.07849 0.22071 0.0
C738 C 0.55661 0.16033 0.18276 0.0
C739 C 0.47635 0.04459 0.1771 0.0
O740 O 0.59825 0.15494 0.15646 0.0
O741 O 0.55595 0.08899 0.15226 0.0
O742 O 0.60292 0.07626 0.17703 0.0
O743 O 0.56549 0.03778 0.16596 0.0
O744 O 0.63508 0.16329 0.17213 0.0
O745 O 0.6408 0.13616 0.18623 0.0
O746 O 0.5514 0.04085 0.19878 0.0
O747 O 0.58193 0.10743 0.2034 0.0
O748 O 0.54101 0.12464 0.17863 0.0
O749 O 0.57525 0.15978 0.1905 0.0
O750 O 0.49796 0.04413 0.18457 0.0
O751 O 0.49706 0.06956 0.16984 0.0
H752 H 0.61054 0.19726 0.13813 0.0
H753 H 0.64709 0.20966 0.12301 0.0
H754 H 0.64216 0.08831 0.12553 0.0
H755 H 0.60638 0.07658 0.14078 0.0
H756 H 0.56133 1.00241 0.21614 0.0
H757 H 0.54557 0.98851 0.2329 0.0
H758 H 0.51609 0.09025 0.2342 0.0
H759 H 0.5328 0.10452 0.21745 0.0
Sm760 Sm 0.92052 0.47168 0.17023 0.0
Sm761 Sm 0.92297 0.47972 0.19131 0.0
C762 C 0.9026 0.45551 0.15199 0.0
C763 C 0.89406 0.47144 0.14312 0.0
C764 C 0.86464 0.44184 0.1367 0.0
C765 C 0.85731 0.45526 0.12802 0.0
C766 C 0.87931 0.49878 0.1255 0.0
C767 C 0.90833 0.52856 0.13204 0.0
C768 C 0.91568 0.51504 0.14075 0.0
C769 C 0.97474 0.5544 0.1769 0.0
C770 C 0.85006 0.48946 0.18106 0.0
C771 C 0.94397 0.50542 0.20894 0.0
C772 C 0.96218 0.50287 0.21802 0.0
C773 C 0.98698 0.54081 0.22304 0.0
C774 C 0.99943 0.53966 0.23228 0.0
C775 C 0.98738 0.50047 0.23669 0.0
C776 C 0.96446 0.46248 0.23149 0.0
C777 C 0.95173 0.46364 0.22222 0.0
C778 C 0.86221 0.39965 0.18521 0.0
C779 C 0.98253 0.44536 0.18166 0.0
O780 O 0.87333 0.44204 0.15855 0.0
O781 O 0.9415 0.47574 0.15537 0.0
O782 O 0.93797 0.52831 0.17991 0.0
O783 O 0.98376 0.53766 0.16984 0.0
O784 O 0.85719 0.47183 0.17363 0.0
O785 O 0.87745 0.50413 0.18808 0.0
O786 O 0.96993 0.52418 0.20186 0.0
O787 O 0.9068 0.47331 0.20646 0.0
O788 O 0.89911 0.42158 0.18162 0.0
O789 O 0.8585 0.41771 0.19276 0.0
O790 O 0.97888 0.46753 0.18861 0.0
O791 O 0.95886 0.43731 0.17397 0.0
H792 H 0.84752 0.40806 0.13838 0.0
H793 H 0.83416 0.43145 0.12328 0.0
H794 H 0.92608 0.56227 0.13034 0.0
H795 H 0.93859 0.53855 0.14558 0.0
H796 H 0.99533 0.57138 0.21994 0.0
H797 H 0.01765 0.56947 0.23606 0.0
H798 H 0.9547 0.43184 0.23472 0.0
H799 H 0.93252 0.43391 0.21848 0.0
Sm800 Sm 0.55051 0.45271 0.16621 0.0
Sm801 Sm 0.53868 0.45332 0.1871 0.0
C802 C 0.56917 0.44571 0.14835 0.0
C803 C 0.55333 0.42283 0.13927 0.0
C804 C 0.5817 0.41725 0.13351 0.0
C805 C 0.56909 0.39859 0.12459 0.0
C806 C 0.52763 0.38491 0.12116 0.0
C807 C 0.4989 0.38983 0.12704 0.0
C808 C 0.51164 0.40868 0.13599 0.0
C809 C 0.46804 0.43368 0.17139 0.0
C810 C 0.52788 0.3664 0.17841 0.0
C811 C 0.512 0.45456 0.2045 0.0
C812 C 0.52123 0.47307 0.21414 0.0
C813 C 0.496 0.48876 0.21802 0.0
C814 C 0.49817 0.49813 0.22766 0.0
C815 C 0.52523 0.49145 0.23366 0.0
C816 C 0.55208 0.47791 0.22968 0.0
C817 C 0.55021 0.46894 0.22005 0.0
C818 C 0.61808 0.46593 0.18233 0.0
C819 C 0.58527 0.54674 0.17613 0.0
O820 O 0.57491 0.42559 0.15533 0.0
O821 O 0.55494 0.47074 0.15112 0.0
O822 O 0.49004 0.42026 0.17548 0.0
O823 O 0.48896 0.45647 0.1642 0.0
O824 O 0.54694 0.38913 0.17082 0.0
O825 O 0.51304 0.38163 0.18491 0.0
O826 O 0.50646 0.47492 0.19751 0.0
O827 O 0.53027 0.43289 0.20193 0.0
O828 O 0.59872 0.48145 0.17793 0.0
O829 O 0.59835 0.4482 0.1901 0.0
O830 O 0.56233 0.52484 0.18352 0.0
O831 O 0.58998 0.52629 0.16889 0.0
H832 H 0.61403 0.42792 0.13587 0.0
H833 H 0.5919 0.39471 0.12038 0.0
H834 H 0.46682 0.38001 0.12465 0.0
H835 H 0.48912 0.41273 0.14027 0.0
H836 H 0.473 0.49176 0.21368 0.0
H837 H 0.47688 0.50828 0.2305 0.0
H838 H 0.5737 0.47299 0.23408 0.0
H839 H 0.57012 0.45686 0.21734 0.0
Sm840 Sm 0.44639 0.23621 0.02247 0.0
Sm841 Sm 0.43699 0.24068 1.00038 0.0
C842 C 0.46855 0.23838 0.04044 0.0
C843 C 0.47874 0.26285 0.04943 0.0
C844 C 0.51971 0.27949 0.05337 0.0
C845 C 0.52943 0.29967 0.06216 0.0
C846 C 0.4984 0.30374 0.06734 0.0
C847 C 0.45734 0.28724 0.06337 0.0
C848 C 0.44763 0.26705 0.05453 0.0
C849 C 0.38925 0.26169 0.01627 0.0
C850 C 0.51455 0.32419 1.01099 0.0
C851 C 0.40862 0.25012 0.9839 0.0
C852 C 0.39315 0.23117 0.97448 0.0
C853 C 0.35503 0.22745 0.97105 0.0
C854 C 0.34168 0.21397 0.96182 0.0
C855 C 0.36625 0.20399 0.95576 0.0
C856 C 0.40398 0.20674 0.95928 0.0
C857 C 0.41728 0.22015 0.96855 0.0
C858 C 0.4911 0.20865 1.00382 0.0
C859 C 0.38477 0.14822 1.01096 0.0
O860 O 0.4963 0.25445 0.03356 0.0
O861 O 0.4289 0.21837 0.03748 0.0
O862 O 0.42511 0.27191 1.0128 0.0
O863 O 0.38301 0.23837 0.02368 0.0
O864 O 0.50523 0.30234 0.01897 0.0
O865 O 0.49085 0.30881 1.00334 0.0
O866 O 0.38332 0.23177 0.99114 0.0
O867 O 0.44928 0.2656 0.98582 0.0
O868 O 0.47272 0.2193 1.00992 0.0
O869 O 0.47975 0.21371 0.99546 0.0
O870 O 0.38302 0.17315 1.00437 0.0
O871 O 0.41119 0.16454 0.01822 0.0
H872 H 0.54417 0.27616 0.0497 0.0
H873 H 0.56116 0.3112 0.06501 0.0
H874 H 0.43271 0.2901 0.06707 0.0
H875 H 0.4156 0.25436 0.05175 0.0
H876 H 0.3361 0.23617 0.97544 0.0
H877 H 0.31281 0.21284 0.95933 0.0
H878 H 0.4234 0.19881 0.95486 0.0
H879 H 0.44685 0.22268 0.971 0.0
Sm880 Sm 0.79239 0.21869 0.02474 0.0
Sm881 Sm 0.78335 0.20264 1.00306 0.0
C882 C 0.80489 0.23985 0.04287 0.0
C883 C 0.78226 0.22798 0.05213 0.0
C884 C 0.77304 0.25693 0.05666 0.0
C885 C 0.75275 0.24735 0.06546 0.0
C886 C 0.74119 0.20854 0.07004 0.0
C887 C 0.75087 0.17967 0.06556 0.0
C888 C 0.7711 0.18922 0.05671 0.0
C889 C 0.75375 0.13334 0.0191 0.0
C890 C 0.70357 0.19938 0.01493 0.0
C891 C 0.77145 0.16374 0.98657 0.0
C892 C 0.78184 0.17094 0.9764 0.0
C893 C 0.80716 0.15585 0.97231 0.0
C894 C 0.81387 0.15822 0.96258 0.0
C895 C 0.7951 0.17543 0.95667 0.0
C896 C 0.77062 0.19153 0.96079 0.0
C897 C 0.76405 0.18933 0.97054 0.0
C898 C 0.80591 0.28684 1.00564 0.0
C899 C 0.8809 0.25446 1.01171 0.0
O900 O 0.79218 0.25808 0.03672 0.0
O901 O 0.81555 0.21369 0.03897 0.0
O902 O 0.78563 0.16465 0.0153 0.0
O903 O 0.74236 0.14632 0.02646 0.0
O904 O 0.73065 0.21988 0.02183 0.0
O905 O 0.71414 0.18263 1.00784 0.0
O906 O 0.80236 0.17039 0.99236 0.0
O907 O 0.74502 0.17498 0.99008 0.0
O908 O 0.80054 0.26067 1.01219 0.0
O909 O 0.79956 0.26844 0.99749 0.0
O910 O 0.85662 0.23604 1.00425 0.0
O911 O 0.86429 0.25232 0.02017 0.0
H912 H 0.78177 0.28731 0.05341 0.0
H913 H 0.74663 0.27079 0.06872 0.0
H914 H 0.74223 0.14936 0.06883 0.0
H915 H 0.77792 0.16622 0.05347 0.0
H916 H 0.82083 0.14104 0.97663 0.0
H917 H 0.83241 0.145 0.95965 0.0
H918 H 0.75608 0.2054 0.95646 0.0
H919 H 0.74429 0.20119 0.97344 0.0
Sm920 Sm 0.81536 0.58459 0.02765 0.0
Sm921 Sm 0.82579 0.59115 1.00477 0.0
C922 C 0.79082 0.5627 0.04536 0.0
C923 C 0.80493 0.55365 0.0545 0.0
C924 C 0.78516 0.51143 0.05784 0.0
C925 C 0.79643 0.50199 0.06656 0.0
C926 C 0.82769 0.53453 0.07224 0.0
C927 C 0.8473 0.57693 0.06895 0.0
C928 C 0.83608 0.58639 0.06017 0.0
C929 C 0.9009 0.63679 0.02192 0.0
C930 C 0.83567 0.51774 0.01624 0.0
C931 C 0.85635 0.61778 0.98755 0.0
C932 C 0.85099 0.63049 0.97795 0.0
C933 C 0.88657 0.66384 0.97339 0.0
C934 C 0.8849 0.67199 0.96381 0.0
C935 C 0.84754 0.64685 0.95852 0.0
C936 C 0.81124 0.61471 0.96323 0.0
C937 C 0.81295 0.60657 0.97282 0.0
C938 C 0.74834 0.52705 1.01102 0.0
C939 C 0.7818 0.64199 0.01575 0.0
O940 O 0.78187 0.53492 0.03857 0.0
O941 O 0.80941 0.60235 0.04235 0.0
O942 O 0.86786 0.61582 0.01711 0.0
O943 O 0.88894 0.63121 0.03065 0.0
O944 O 0.81765 0.52445 0.02364 0.0
O945 O 0.84917 0.54396 1.00887 0.0
O946 O 0.86467 0.64418 0.99461 0.0
O947 O 0.83255 0.57756 0.98991 0.0
O948 O 0.77028 0.56294 0.01504 0.0
O949 O 0.76428 0.52726 1.00279 0.0
O950 O 0.79683 0.63536 1.00772 0.0
O951 O 0.78425 0.62521 0.02389 0.0
H952 H 0.76052 0.48556 0.05373 0.0
H953 H 0.78003 0.46908 0.06891 0.0
H954 H 0.87169 0.60278 0.07309 0.0
H955 H 0.85175 0.61935 0.05787 0.0
H956 H 0.91642 0.68243 0.97716 0.0
H957 H 0.91364 0.69668 0.96045 0.0
H958 H 0.78167 0.59516 0.95944 0.0
H959 H 0.78498 0.58062 0.97614 0.0
Sm960 Sm 0.45972 0.92312 0.83813 0.0
Sm961 Sm 0.4643 0.91997 0.86088 0.0
C962 C 0.45504 0.94703 0.82067 0.0
C963 C 0.47378 0.9651 0.8113 0.0
C964 C 0.47033 0.9995 0.80779 0.0
C965 C 0.48172 0.01342 0.79848 0.0
C966 C 0.49687 0.99326 0.79238 0.0
C967 C 0.50139 0.95944 0.79598 0.0
C968 C 0.48993 0.94549 0.80532 0.0
C969 C 0.47388 0.86025 0.84474 0.0
C970 C 0.55525 0.97756 0.84892 0.0
C971 C 0.46759 0.90042 0.87878 0.0
C972 C 0.44592 0.89375 0.88802 0.0
C973 C 0.44569 0.86371 0.8943 0.0
C974 C 0.42632 0.85703 0.90317 0.0
C975 C 0.40655 0.88026 0.90602 0.0
C976 C 0.40657 0.91023 0.89966 0.0
C977 C 0.42597 0.91685 0.89076 0.0
C978 C 0.42791 0.96914 0.85489 0.0
C979 C 0.37824 0.8483 0.84978 0.0
O980 O 0.46431 0.97248 0.82794 0.0
O981 O 0.44806 0.90895 0.82289 0.0
O982 O 0.48849 0.89675 0.8486 0.0
O983 O 0.45602 0.85878 0.83669 0.0
O984 O 0.53328 0.9691 0.84088 0.0
O985 O 0.53607 0.96186 0.85713 0.0
O986 O 0.44698 0.87173 0.87226 0.0
O987 O 0.48902 0.93951 0.87545 0.0
O988 O 0.44131 0.94909 0.85014 0.0
O989 O 0.43469 0.9643 0.86363 0.0
O990 O 0.40399 0.85747 0.85708 0.0
O991 O 0.38913 0.87368 0.84227 0.0
H992 H 0.45726 0.01474 0.81215 0.0
H993 H 0.47705 0.03904 0.79598 0.0
H994 H 0.51347 0.94346 0.79157 0.0
H995 H 0.49272 0.91866 0.80777 0.0
H996 H 0.46093 0.84555 0.89237 0.0
H997 H 0.42766 0.83419 0.90787 0.0
H998 H 0.39127 0.92838 0.90152 0.0
H999 H 0.42543 0.94005 0.88603 0.0
Sm1000 Sm 0.1049 0.54335 0.83948 0.0
Sm1001 Sm 0.11128 0.5501 0.86044 0.0
C1002 C 0.09461 0.51751 0.8216 0.0
C1003 C 0.08344 0.52255 0.81177 0.0
C1004 C 0.04102 0.50862 0.809 0.0
C1005 C 0.03081 0.50925 0.79948 0.0
C1006 C 0.0627 0.52365 0.79247 0.0
C1007 C 0.10515 0.53814 0.79531 0.0
C1008 C 0.1153 0.53752 0.80479 0.0
C1009 C 0.15515 0.62716 0.84505 0.0
C1010 C 0.05096 0.58197 0.84953 0.0
C1011 C 0.11615 0.56265 0.87903 0.0
C1012 C 0.12704 0.54863 0.88796 0.0
C1013 C 0.15623 0.57948 0.89424 0.0
C1014 C 0.16578 0.56752 0.9029 0.0
C1015 C 0.1463 0.52423 0.90556 0.0
C1016 C 0.11721 0.4933 0.8992 0.0
C1017 C 0.10771 0.50531 0.89053 0.0
C1018 C 0.06582 0.46655 0.85359 0.0
C1019 C 0.18266 0.53643 0.85058 0.0
O1020 O 0.06432 0.50029 0.82794 0.0
O1021 O 0.13096 0.54731 0.82506 0.0
O1022 O 0.15496 0.59541 0.84895 0.0
O1023 O 0.12905 0.61476 0.83794 0.0
O1024 O 0.05331 0.5624 0.84187 0.0
O1025 O 0.07318 0.58455 0.85715 0.0
O1026 O 0.1475 0.58579 0.87324 0.0
O1027 O 0.08098 0.53567 0.87464 0.0
O1028 O 0.06259 0.49782 0.8507 0.0
O1029 O 0.09322 0.47878 0.86041 0.0
O1030 O 0.17454 0.55256 0.85804 0.0
O1031 O 0.15692 0.52462 0.84314 0.0
H1032 H 1.01553 0.49648 0.81416 0.0
H1033 H 0.99785 0.49828 0.79761 0.0
H1034 H 0.13057 0.54875 0.79016 0.0
H1035 H 0.14813 0.5477 0.80665 0.0
H1036 H 0.17158 0.6131 0.89247 0.0
H1037 H 0.18884 0.59233 0.90747 0.0
H1038 H 0.10109 0.4597 0.90099 0.0
H1039 H 0.08494 0.48066 0.88588 0.0
Sm1040 Sm 0.48688 0.56529 0.83587 0.0
Sm1041 Sm 0.4716 0.56716 0.85902 0.0
C1042 C 0.52523 0.57121 0.8196 0.0
C1043 C 0.5192 0.55347 0.80995 0.0
C1044 C 0.54547 0.53774 0.80678 0.0
C1045 C 0.54387 0.52521 0.79741 0.0
C1046 C 0.51611 0.52835 0.79093 0.0
C1047 C 0.48903 0.54314 0.79417 0.0
C1048 C 0.49051 0.55552 0.80357 0.0
C1049 C 0.40293 0.54206 0.8396 0.0
C1050 C 0.43991 0.47417 0.84785 0.0
C1051 C 0.44543 0.56759 0.87647 0.0
C1052 C 0.45996 0.59083 0.88562 0.0
C1053 C 0.4373 0.60925 0.88954 0.0
C1054 C 0.44901 0.63002 0.89827 0.0
C1055 C 0.48376 0.63295 0.9034 0.0
C1056 C 0.50637 0.61426 0.89949 0.0
C1057 C 0.49468 0.59353 0.89071 0.0
C1058 C 0.55753 0.59672 0.85389 0.0
C1059 C 0.49635 0.65224 0.84616 0.0
O1060 O 0.52574 0.54793 0.82664 0.0
O1061 O 0.50685 0.59354 0.82169 0.0
O1062 O 0.43246 0.55202 0.8456 0.0
O1063 O 0.41793 0.54346 0.83118 0.0
O1064 O 0.46129 0.49472 0.84014 0.0
O1065 O 0.43722 0.49441 0.85544 0.0
O1066 O 0.43946 0.58761 0.86946 0.0
O1067 O 0.46141 0.54371 0.87379 0.0
O1068 O 0.52461 0.58242 0.84894 0.0
O1069 O 0.54502 0.59455 0.86253 0.0
O1070 O 0.47894 0.63107 0.85405 0.0
O1071 O 0.50741 0.6358 0.83906 0.0
H1072 H 0.56822 0.53629 0.81151 0.0
H1073 H 0.56557 0.5145 0.79515 0.0
H1074 H 0.46688 0.54547 0.78942 0.0
H1075 H 0.46982 0.56754 0.80578 0.0
H1076 H 0.4101 0.60726 0.88586 0.0
H1077 H 0.43027 0.64326 0.90107 0.0
H1078 H 0.53351 0.61614 0.90316 0.0
H1079 H 0.51283 0.5796 0.88793 0.0
Sm1080 Sm 0.59462 0.7775 0.0224 0.0
Sm1081 Sm 0.59254 0.79003 1.00143 0.0
C1082 C 0.61753 0.77109 0.0399 0.0
C1083 C 0.63007 0.78908 0.04959 0.0
C1084 C 0.67162 0.80284 0.05294 0.0
C1085 C 0.68207 0.8137 0.06245 0.0
C1086 C 0.65114 0.8108 0.06892 0.0
C1087 C 0.60985 0.79808 0.06549 0.0
C1088 C 0.59947 0.78736 0.05598 0.0
C1089 C 0.53142 0.79464 0.01716 0.0
C1090 C 0.64678 0.87703 0.01404 0.0
C1091 C 0.57366 0.79024 0.98325 0.0
C1092 C 0.5643 0.76625 0.97423 0.0
C1093 C 0.53119 0.76294 0.96847 0.0
C1094 C 0.52267 0.74246 0.95971 0.0
C1095 C 0.54709 0.72464 0.95641 0.0
C1096 C 0.58002 0.72756 0.96226 0.0
C1097 C 0.58856 0.74814 0.97105 0.0
C1098 C 0.65322 0.7682 1.00691 0.0
C1099 C 0.52251 0.69686 1.01094 0.0
O1100 O 0.64504 0.78776 0.03297 0.0
O1101 O 0.578 0.75668 0.03722 0.0
O1102 O 0.56834 0.81179 1.01357 0.0
O1103 O 0.52884 0.77191 0.02446 0.0
O1104 O 0.64293 0.85054 0.02092 0.0
O1105 O 0.62668 0.86181 1.00592 0.0
O1106 O 0.54486 0.77405 0.98989 0.0
O1107 O 0.61269 0.80873 0.98654 0.0
O1108 O 0.61561 0.75183 1.01016 0.0
O1109 O 0.65894 0.79598 1.00051 0.0
O1110 O 0.53146 0.72405 1.00392 0.0
O1111 O 0.54762 0.70767 0.01839 0.0
H1112 H 0.69584 0.80403 0.04825 0.0
H1113 H 0.71438 0.82397 0.06474 0.0
H1114 H 0.58485 0.79477 0.07021 0.0
H1115 H 0.56693 0.7763 0.05374 0.0
H1116 H 0.51198 0.77659 0.97074 0.0
H1117 H 0.49658 0.74032 0.95554 0.0
H1118 H 0.59983 0.71465 0.95998 0.0
H1119 H 0.61439 0.75024 0.97532 0.0
Sm1120 Sm 0.25157 0.82351 0.02522 0.0
Sm1121 Sm 0.24326 0.80638 1.00256 0.0
C1122 C 0.2569 0.85649 0.04215 0.0
C1123 C 0.23648 0.85277 0.0514 0.0
C1124 C 0.23522 0.88826 0.05497 0.0
C1125 C 0.22176 0.88826 0.06419 0.0
C1126 C 0.20932 0.85272 0.0701 0.0
C1127 C 0.20913 0.81653 0.0664 0.0
C1128 C 0.22257 0.81654 0.05715 0.0
C1129 C 0.23587 0.74387 0.01981 0.0
C1130 C 0.15552 0.78146 0.01522 0.0
C1131 C 0.23993 0.77767 0.98519 0.0
C1132 C 0.26143 0.79026 0.97582 0.0
C1133 C 0.28225 0.76917 0.97231 0.0
C1134 C 0.30017 0.77793 0.96328 0.0
C1135 C 0.29761 0.80792 0.9574 0.0
C1136 C 0.27755 0.82979 0.96098 0.0
C1137 C 0.25958 0.821 0.97007 0.0
C1138 C 0.27749 0.89321 1.00697 0.0
C1139 C 0.33282 0.83327 0.01406 0.0
O1140 O 0.24219 0.86695 0.03481 0.0
O1141 O 0.2702 0.82968 0.04021 0.0
O1142 O 0.2213 0.76499 0.0157 0.0
O1143 O 0.25476 0.76242 0.02763 0.0
O1144 O 0.18027 0.79961 0.02266 0.0
O1145 O 0.17119 0.77779 1.00697 0.0
O1146 O 0.26103 0.77236 0.99206 0.0
O1147 O 0.21707 0.79462 0.98799 0.0
O1148 O 0.26647 0.86184 1.01227 0.0
O1149 O 0.26939 0.8786 0.99845 0.0
O1150 O 0.30713 0.81048 1.00707 0.0
O1151 O 0.32091 0.85139 0.02053 0.0
H1152 H 0.24623 0.91676 0.05072 0.0
H1153 H 0.22291 0.91691 0.06681 0.0
H1154 H 0.1992 0.7884 0.07071 0.0
H1155 H 0.2232 0.78867 0.05459 0.0
H1156 H 0.28415 0.74524 0.97653 0.0
H1157 H 0.31597 0.76094 0.96088 0.0
H1158 H 0.27458 0.85283 0.95667 0.0
H1159 H 0.24362 0.83777 0.97251 0.0
Sm1160 Sm 0.20955 0.42942 0.0253 0.0
Sm1161 Sm 0.22346 0.44441 1.0033 0.0
C1162 C 0.1732 0.40091 0.04203 0.0
C1163 C 0.18043 0.39201 0.05188 0.0
C1164 C 0.16595 0.34973 0.05473 0.0
C1165 C 0.1684 0.34006 0.06417 0.0
C1166 C 0.18518 0.37239 0.07105 0.0
C1167 C 0.20026 0.41483 0.06818 0.0
C1168 C 0.19785 0.42452 0.05871 0.0
C1169 C 0.29518 0.48895 0.02204 0.0
C1170 C 0.24948 0.3783 0.01428 0.0
C1171 C 0.2424 0.45719 0.98505 0.0
C1172 C 0.2284 0.46819 0.97608 0.0
C1173 C 0.2475 0.5109 0.97304 0.0
C1174 C 0.2363 0.52131 0.96439 0.0
C1175 C 0.20579 0.48934 0.95845 0.0
C1176 C 0.18681 0.44656 0.96147 0.0
C1177 C 0.19799 0.43614 0.97014 0.0
C1178 C 0.1385 0.39993 1.00935 0.0
C1179 C 0.2081 0.51069 0.01561 0.0
O1180 O 0.17358 0.37608 0.03537 0.0
O1181 O 0.1897 0.44073 0.03934 0.0
O1182 O 0.26629 0.47056 0.0159 0.0
O1183 O 0.27905 0.47449 0.03031 0.0
O1184 O 0.23075 0.38117 0.022 0.0
O1185 O 0.25316 0.40092 1.00658 0.0
O1186 O 0.26067 0.48716 0.99144 0.0
O1187 O 0.21769 0.41931 0.98872 0.0
O1188 O 0.16891 0.39599 1.01256 0.0
O1189 O 0.1522 0.42632 1.00233 0.0
O1190 O 0.22787 0.50725 1.00812 0.0
O1191 O 0.19029 0.4799 0.02198 0.0
H1192 H 0.15161 0.3238 0.0497 0.0
H1193 H 0.15581 0.30694 0.06611 0.0
H1194 H 0.21378 0.44063 0.07325 0.0
H1195 H 0.20893 0.45741 0.0568 0.0
H1196 H 0.27164 0.53645 0.9773 0.0
H1197 H 0.25228 0.55454 0.96228 0.0
H1198 H 0.16294 0.42102 0.95717 0.0
H1199 H 0.18294 0.40284 0.97216 0.0
Sm1200 Sm 0.2429 0.43725 0.50018 0.0
Sm1201 Sm 0.25363 0.43479 0.52361 0.0
C1202 C 0.23548 0.45572 0.48241 0.0
C1203 C 0.25422 0.45971 0.47289 0.0
C1204 C 0.25286 0.48817 0.46638 0.0
C1205 C 0.26956 0.49227 0.45727 0.0
C1206 C 0.28821 0.468 0.45441 0.0
C1207 C 0.2898 0.43965 0.46101 0.0
C1208 C 0.27305 0.43559 0.47013 0.0
C1209 C 0.27676 0.38573 0.50607 0.0
C1210 C 0.33297 0.50795 0.51075 0.0
C1211 C 0.26707 0.4123 0.54043 0.0
C1212 C 0.25117 0.40379 0.55024 0.0
C1213 C 0.25048 0.36987 0.55516 0.0
C1214 C 0.23935 0.36327 0.56469 0.0
C1215 C 0.22876 0.39061 0.56955 0.0
C1216 C 0.22835 0.42395 0.56452 0.0
C1217 C 0.23937 0.43044 0.55496 0.0
C1218 C 0.22501 0.49004 0.51844 0.0
C1219 C 0.15732 0.37899 0.51384 0.0
O1220 O 0.25924 0.48468 0.48865 0.0
O1221 O 0.213 0.41726 0.48603 0.0
O1222 O 0.26625 0.40823 0.51078 0.0
O1223 O 0.26861 0.38956 0.49735 0.0
O1224 O 0.30729 0.49827 0.50336 0.0
O1225 O 0.32176 0.48448 0.51856 0.0
O1226 O 0.24356 0.38435 0.53398 0.0
O1227 O 0.28568 0.45201 0.53749 0.0
O1228 O 0.23288 0.46677 0.51316 0.0
O1229 O 0.23093 0.48298 0.52716 0.0
O1230 O 0.18273 0.38371 0.52107 0.0
O1231 O 0.17218 0.3989 0.50562 0.0
H1232 H 0.23846 0.5071 0.46832 0.0
H1233 H 0.26702 0.51395 0.45242 0.0
H1234 H 0.30435 0.4208 0.45916 0.0
H1235 H 0.27479 0.41358 0.47503 0.0
H1236 H 0.25969 0.34906 0.55168 0.0
H1237 H 0.24055 0.33762 0.56834 0.0
H1238 H 0.21984 0.44526 0.568 0.0
H1239 H 0.23944 0.45676 0.55132 0.0
Sm1240 Sm 0.59126 0.8073 0.50334 0.0
Sm1241 Sm 0.59322 0.81859 0.5253 0.0
C1242 C 0.57396 0.7898 0.48509 0.0
C1243 C 0.56286 0.80414 0.47621 0.0
C1244 C 0.52019 0.7838 0.47308 0.0
C1245 C 0.50959 0.79423 0.46437 0.0
C1246 C 0.54135 0.82522 0.45847 0.0
C1247 C 0.58409 0.84573 0.46161 0.0
C1248 C 0.59471 0.8353 0.47035 0.0
C1249 C 0.64655 0.88961 0.51013 0.0
C1250 C 0.5164 0.82148 0.51342 0.0
C1251 C 0.615 0.85414 0.54222 0.0
C1252 C 0.62311 0.84764 0.55218 0.0
C1253 C 0.66517 0.8651 0.55559 0.0
C1254 C 0.67297 0.86405 0.56523 0.0
C1255 C 0.6389 0.84597 0.5717 0.0
C1256 C 0.59684 0.82729 0.56825 0.0
C1257 C 0.58904 0.82815 0.55863 0.0
C1258 C 0.54191 0.73253 0.52154 0.0
C1259 C 0.64976 0.77976 0.51568 0.0
O1260 O 0.545 0.77369 0.49172 0.0
O1261 O 0.61279 0.8124 0.48844 0.0
O1262 O 0.6095 0.86381 0.51309 0.0
O1263 O 0.65508 0.87284 0.50299 0.0
O1264 O 0.53073 0.81258 0.50567 0.0
O1265 O 0.53654 0.82843 0.52159 0.0
O1266 O 0.64328 0.85928 0.53577 0.0
O1267 O 0.57546 0.83266 0.53917 0.0
O1268 O 0.56118 0.76173 0.51548 0.0
O1269 O 0.55073 0.7487 0.52995 0.0
O1270 O 0.64836 0.80446 0.52242 0.0
O1271 O 0.62603 0.77115 0.508 0.0
H1272 H 0.49489 0.75905 0.47729 0.0
H1273 H 0.47643 0.77709 0.46216 0.0
H1274 H 0.60944 0.87004 0.45734 0.0
H1275 H 0.628 0.85131 0.47245 0.0
H1276 H 0.69218 0.88089 0.55084 0.0
H1277 H 0.70577 0.87909 0.56766 0.0
H1278 H 0.56982 0.81262 0.57301 0.0
H1279 H 0.55622 0.81465 0.55631 0.0
Sm1280 Sm 0.22183 0.78124 0.50231 0.0
Sm1281 Sm 0.20452 0.78337 0.52372 0.0
C1282 C 0.244 0.77298 0.48486 0.0
C1283 C 0.22795 0.7566 0.47531 0.0
C1284 C 0.25703 0.75912 0.46845 0.0
C1285 C 0.24304 0.74279 0.45941 0.0
C1286 C 0.19947 0.72346 0.45697 0.0
C1287 C 0.17033 0.7212 0.46388 0.0
C1288 C 0.18445 0.73763 0.47297 0.0
C1289 C 0.13968 0.76551 0.50675 0.0
C1290 C 0.19999 0.69702 0.51522 0.0
C1291 C 0.16552 0.77947 0.53983 0.0
C1292 C 0.1705 0.79804 0.54937 0.0
C1293 C 0.1363 0.80063 0.55331 0.0
C1294 C 0.13779 0.81328 0.56267 0.0
C1295 C 0.17361 0.82367 0.56837 0.0
C1296 C 0.20839 0.82205 0.56432 0.0
C1297 C 0.20686 0.80939 0.55492 0.0
C1298 C 0.29023 0.80827 0.52174 0.0
C1299 C 0.25589 0.87409 0.5122 0.0
O1300 O 0.23496 0.74478 0.49151 0.0
O1301 O 0.24239 0.80643 0.48776 0.0
O1302 O 0.16074 0.75204 0.51121 0.0
O1303 O 0.16142 0.78649 0.49944 0.0
O1304 O 0.21661 0.71806 0.50731 0.0
O1305 O 0.18794 0.71337 0.52209 0.0
O1306 O 0.16483 0.80147 0.53256 0.0
O1307 O 0.18509 0.75799 0.53814 0.0
O1308 O 0.26341 0.7982 0.51514 0.0
O1309 O 0.27189 0.8062 0.52973 0.0
O1310 O 0.22781 0.85319 0.51898 0.0
O1311 O 0.26396 0.85322 0.50561 0.0
H1312 H 0.29071 0.77338 0.47013 0.0
H1313 H 0.26637 0.7445 0.45438 0.0
H1314 H 0.13662 0.70695 0.46226 0.0
H1315 H 0.16145 0.73532 0.47817 0.0
H1316 H 0.10772 0.79159 0.5492 0.0
H1317 H 0.11012 0.81349 0.56554 0.0
H1318 H 0.23673 0.83035 0.56843 0.0
H1319 H 0.23374 0.80764 0.55207 0.0
Sm1320 Sm 0.11085 0.57452 0.35815 0.0
Sm1321 Sm 0.10622 0.5786 0.33706 0.0
C1322 C 0.13044 0.57828 0.37635 0.0
C1323 C 0.14103 0.60399 0.38515 0.0
C1324 C 0.18363 0.62684 0.3883 0.0
C1325 C 0.19382 0.64769 0.39702 0.0
C1326 C 0.16168 0.64613 0.4029 0.0
C1327 C 0.11903 0.62355 0.39972 0.0
C1328 C 0.10882 0.6027 0.39096 0.0
C1329 C 0.05425 0.59995 0.35155 0.0
C1330 C 0.17852 0.66344 0.34703 0.0
C1331 C 0.08267 0.5806 0.3195 0.0
C1332 C 0.06346 0.55838 0.31053 0.0
C1333 C 0.02128 0.54735 0.3083 0.0
C1334 C 1.00559 0.53489 0.29917 0.0
C1335 C 0.03181 0.53345 0.29204 0.0
C1336 C 0.07308 0.5418 0.29441 0.0
C1337 C 0.08882 0.55432 0.30355 0.0
C1338 C 0.16841 0.56129 0.34292 0.0
C1339 C 0.04959 0.48467 0.34718 0.0
O1340 O 0.15889 0.59206 0.3696 0.0
O1341 O 0.09119 0.55984 0.37317 0.0
O1342 O 0.09111 0.61171 0.34848 0.0
O1343 O 0.04627 0.57469 0.35867 0.0
O1344 O 0.17287 0.63894 0.35444 0.0
O1345 O 0.15068 0.64933 0.34008 0.0
O1346 O 0.05761 0.57357 0.32677 0.0
O1347 O 0.12079 0.58777 0.3218 0.0
O1348 O 0.13183 0.54583 0.34668 0.0
O1349 O 0.17114 0.58271 0.33537 0.0
O1350 O 0.05206 0.50954 0.3401 0.0
O1351 O 0.07362 0.50153 0.35477 0.0
H1352 H 0.20914 0.6278 0.38411 0.0
H1353 H 0.22692 0.66405 0.39927 0.0
H1354 H 0.09344 0.62195 0.40399 0.0
H1355 H 0.07558 0.58499 0.38884 0.0
H1356 H 1.00103 0.55047 0.31349 0.0
H1357 H 0.97343 0.52806 0.2976 0.0
H1358 H 0.0942 0.54131 0.28907 0.0
H1359 H 0.12163 0.563 0.305 0.0
Sm1360 Sm 0.4531 0.54055 0.35609 0.0
Sm1361 Sm 0.45148 0.5349 0.33488 0.0
C1362 C 0.4479 0.55457 0.37438 0.0
C1363 C 0.4228 0.5409 0.38335 0.0
C1364 C 0.40039 0.56122 0.38637 0.0
C1365 C 0.38212 0.55369 0.39538 0.0
C1366 C 0.38585 0.52576 0.40171 0.0
C1367 C 0.40691 0.50417 0.39857 0.0
C1368 C 0.42533 0.51181 0.38953 0.0
C1369 C 0.42865 0.45921 0.34908 0.0
C1370 C 0.366 0.52113 0.34473 0.0
C1371 C 0.45045 0.51375 0.31689 0.0
C1372 C 0.46974 0.52389 0.30731 0.0
C1373 C 0.49788 0.51003 0.30431 0.0
C1374 C 0.51048 0.51389 0.29484 0.0
C1375 C 0.49495 0.53137 0.2881 0.0
C1376 C 0.46769 0.54618 0.2912 0.0
C1377 C 0.45528 0.54248 0.30063 0.0
C1378 C 0.46968 0.61444 0.34122 0.0
C1379 C 0.5438 0.56922 0.34556 0.0
O1380 O 0.43528 0.57033 0.36765 0.0
O1381 O 0.46522 0.53287 0.37118 0.0
O1382 O 0.41713 0.48441 0.34595 0.0
O1383 O 0.4528 0.47606 0.35638 0.0
O1384 O 0.38978 0.53909 0.35226 0.0
O1385 O 0.38023 0.50722 0.33784 0.0
O1386 O 0.46741 0.50199 0.32357 0.0
O1387 O 0.43339 0.53576 0.32004 0.0
O1388 O 0.48368 0.59207 0.34494 0.0
O1389 O 0.44992 0.59725 0.33343 0.0
O1390 O 0.5198 0.54796 0.33826 0.0
O1391 O 0.5263 0.57622 0.35305 0.0
H1392 H 0.39812 0.58416 0.38187 0.0
H1393 H 0.3656 0.57043 0.39744 0.0
H1394 H 0.41082 0.48272 0.40323 0.0
H1395 H 0.44282 0.49598 0.38753 0.0
H1396 H 0.50922 0.49504 0.30922 0.0
H1397 H 0.53195 0.50261 0.29278 0.0
H1398 H 0.45431 0.55909 0.28625 0.0
H1399 H 0.43288 0.55271 0.30262 0.0
Sm1400 Sm 0.48566 0.91246 0.35976 0.0
Sm1401 Sm 0.49445 0.92794 0.33629 0.0
C1402 C 0.46071 0.88586 0.37728 0.0
C1403 C 0.47621 0.88151 0.38665 0.0
C1404 C 0.44673 0.85277 0.39319 0.0
C1405 C 0.46013 0.84783 0.40213 0.0
C1406 C 0.50351 0.87154 0.40477 0.0
C1407 C 0.53307 0.90037 0.39815 0.0
C1408 C 0.51956 0.90531 0.38919 0.0
C1409 C 0.5697 0.97038 0.35395 0.0
C1410 C 0.50459 0.85024 0.34588 0.0
C1411 C 0.52669 0.95657 0.31929 0.0
C1412 C 0.51845 0.96549 0.30955 0.0
C1413 C 0.55082 1.00074 0.30471 0.0
C1414 C 0.54657 1.00683 0.29511 0.0
C1415 C 0.50977 0.97767 0.29009 0.0
C1416 C 0.47662 0.9432 0.29506 0.0
C1417 C 0.48092 0.93716 0.30467 0.0
C1418 C 0.41261 0.86683 0.34195 0.0
C1419 C 0.45033 0.97211 0.34901 0.0
O1420 O 0.46035 0.8609 0.37055 0.0
O1421 O 0.47212 0.92455 0.37435 0.0
O1422 O 0.53647 0.95059 0.34904 0.0
O1423 O 0.55848 0.96011 0.36266 0.0
O1424 O 0.48925 0.85431 0.35407 0.0
O1425 O 0.51603 0.87873 0.33899 0.0
O1426 O 0.52883 0.982 0.32613 0.0
O1427 O 0.50904 0.9164 0.32184 0.0
O1428 O 0.44529 0.88872 0.34689 0.0
O1429 O 0.42253 0.87821 0.33318 0.0
O1430 O 0.47058 0.97332 0.34109 0.0
O1431 O 0.44919 0.94933 0.35652 0.0
H1432 H 0.41314 0.83391 0.39138 0.0
H1433 H 0.43646 0.8248 0.40691 0.0
H1434 H 0.56665 0.91952 0.39992 0.0
H1435 H 0.54294 0.92771 0.38427 0.0
H1436 H 0.58025 0.02282 0.30828 0.0
H1437 H 0.573 0.03344 0.29155 0.0
H1438 H 0.44751 0.92045 0.2915 0.0
H1439 H 0.45537 0.90968 0.30822 0.0
H1440 H 0.16159 0.15072 0.16691 0.0
H1441 H 0.13257 0.15612 0.19607 0.0
H1442 H 0.14259 0.09523 0.19957 0.0
H1443 H 0.15349 0.0364 0.19387 0.0
H1444 H 0.18571 0.03475 0.16466 0.0
H1445 H 0.18111 0.09842 0.16168 0.0
C1446 C 0.15806 0.13892 0.17407 0.0
C1447 C 0.146 0.15752 0.18123 0.0
C1448 C 0.16427 0.10439 0.17599 0.0
C1449 C 0.14197 0.14236 0.19047 0.0
C1450 C 0.14744 0.10737 0.19244 0.0
C1451 C 0.16005 0.0503 0.18689 0.0
C1452 C 0.1695 0.03032 0.17949 0.0
C1453 C 0.15767 0.08749 0.18519 0.0
C1454 C 0.17835 0.04917 0.1705 0.0
C1455 C 0.17553 0.0856 0.16876 0.0
H1456 H 0.97724 0.14354 0.16961 0.0
H1457 H 1.00014 0.12156 0.19831 0.0
H1458 H 0.93624 0.05092 0.19801 0.0
H1459 H 0.87597 0.99221 0.18916 0.0
H1460 H 0.85481 0.01502 0.16041 0.0
H1461 H 0.91487 0.08767 0.16124 0.0
C1462 C 0.96803 0.12363 0.17585 0.0
C1463 C 0.99398 0.13818 0.18393 0.0
C1464 C 0.93126 0.08256 0.17563 0.0
C1465 C 0.98118 0.11149 0.19193 0.0
C1466 C 0.9445 0.07081 0.19178 0.0
C1467 C 0.8842 0.01337 0.18315 0.0
C1468 C 0.86094 0.99795 0.17472 0.0
C1469 C 0.9196 0.05553 0.18361 0.0
C1470 C 0.87224 0.02581 0.16698 0.0
C1471 C 0.90673 0.06753 0.16742 0.0
H1472 H 0.03179 0.88426 0.18779 0.0
H1473 H 0.01754 0.85382 0.15821 0.0
H1474 H 0.94598 0.84446 0.15832 0.0
H1475 H 0.88811 0.84892 0.16651 0.0
H1476 H 0.90217 0.87968 0.19611 0.0
H1477 H 0.97174 0.88452 0.19624 0.0
C1478 C 1.01278 0.87506 0.18141 0.0
C1479 C 0.03037 0.86992 0.17301 0.0
C1480 C 0.97118 0.86998 0.18147 0.0
C1481 C 1.00513 0.8582 0.1648 0.0
C1482 C 0.96399 0.85284 0.16483 0.0
C1483 C 0.90608 0.85618 0.17302 0.0
C1484 C 0.8894 0.86409 0.18125 0.0
C1485 C 0.94677 0.85925 0.17308 0.0
C1486 C 0.91375 0.8736 0.18959 0.0
C1487 C 0.95389 0.87645 0.18971 0.0
H1488 H 0.15162 0.13881 0.36406 0.0
H1489 H 0.17579 0.13722 0.33445 0.0
H1490 H 0.11657 0.14974 0.33076 0.0
H1491 H 0.05557 0.15857 0.33611 0.0
H1492 H 0.03795 0.16732 0.3659 0.0
H1493 H 0.09692 0.15521 0.36933 0.0
C1494 C 0.14404 0.14136 0.35679 0.0
C1495 C 0.16752 0.13624 0.34953 0.0
C1496 C 0.11105 0.15008 0.35476 0.0
C1497 C 0.15786 0.14051 0.34016 0.0
C1498 C 0.124 0.14774 0.33806 0.0
C1499 C 0.06503 0.15831 0.34334 0.0
C1500 C 0.04212 0.16385 0.35073 0.0
C1501 C 0.1 0.15219 0.34531 0.0
C1502 C 0.05503 0.16359 0.36005 0.0
C1503 C 0.08869 0.15635 0.36205 0.0
H1504 H 0.87039 0.90278 0.33603 0.0
H1505 H 0.87119 0.87441 0.36552 0.0
H1506 H 0.88293 0.9444 0.36975 0.0
H1507 H 0.89564 0.0147 0.36528 0.0
H1508 H 0.88832 0.04328 0.33618 0.0
H1509 H 0.87647 0.97262 0.33159 0.0
C1510 C 0.87279 0.91193 0.34337 0.0
C1511 C 0.86989 0.88322 0.35043 0.0
C1512 C 0.87866 0.95243 0.34583 0.0
C1513 C 0.87285 0.8955 0.35992 0.0
C1514 C 0.87984 0.93574 0.36237 0.0
C1515 C 0.89131 1.00545 0.35792 0.0
C1516 C 0.89365 0.0344 0.35105 0.0
C1517 C 0.88318 0.96455 0.35541 0.0
C1518 C 0.88714 0.02167 0.34158 0.0
C1519 C 0.88034 0.98125 0.33897 0.0
H1520 H 0.02094 0.87357 0.36334 0.0
H1521 H 0.98846 0.8494 0.33398 0.0
H1522 H 0.05939 0.90884 0.32967 0.0
H1523 H 0.12953 0.97094 0.33444 0.0
H1524 H 0.16286 0.98942 0.3639 0.0
H1525 H 0.09326 0.92888 0.36796 0.0
C1526 C 0.02957 0.88108 0.35599 0.0
C1527 C 0.99936 0.85761 0.34898 0.0
C1528 C 0.0707 0.91438 0.35359 0.0
C1529 C 1.01114 0.86718 0.33949 0.0
C1530 C 0.05166 0.90124 0.33704 0.0
C1531 C 0.1217 0.96128 0.34173 0.0
C1532 C 0.15146 0.98494 0.34885 0.0
C1533 C 0.08156 0.92556 0.34404 0.0
C1534 C 0.14086 0.97178 0.35826 0.0
C1535 C 0.10085 0.93724 0.36061 0.0
H1536 H 0.86441 0.86669 0.86487 0.0
H1537 H 0.89342 0.85515 0.83604 0.0
H1538 H 0.88988 0.919 0.83187 0.0
H1539 H 0.88168 0.98065 0.83667 0.0
H1540 H 0.84955 0.98895 0.86558 0.0
H1541 H 0.85075 0.92421 0.86938 0.0
C1542 C 0.86964 0.87796 0.85765 0.0
C1543 C 0.87963 0.85636 0.85078 0.0
C1544 C 0.86701 0.91443 0.85531 0.0
C1545 C 0.88594 0.87125 0.84146 0.0
C1546 C 0.88394 0.90787 0.83908 0.0
C1547 C 0.87453 0.9681 0.84378 0.0
C1548 C 0.86577 0.99027 0.85081 0.0
C1549 C 0.87498 0.93014 0.84598 0.0
C1550 C 0.85646 0.97306 0.85997 0.0
C1551 C 0.85724 0.93587 0.8622 0.0
H1552 H 0.13642 0.01315 0.86181 0.0
H1553 H 0.17571 0.03186 0.83279 0.0
H1554 H 0.11602 0.96044 0.82888 0.0
H1555 H 0.05033 0.89283 0.83384 0.0
H1556 H 0.01801 0.87357 0.86336 0.0
H1557 H 0.07715 0.94441 0.86694 0.0
C1558 C 0.13206 1.00154 0.85462 0.0
C1559 C 0.15992 0.02807 0.84756 0.0
C1560 C 0.09878 0.96006 0.85253 0.0
C1561 C 0.15437 0.01224 0.83833 0.0
C1562 C 0.12022 0.97136 0.83611 0.0
C1563 C 0.05661 0.90411 0.84105 0.0
C1564 C 0.02964 0.87774 0.84831 0.0
C1565 C 0.09184 0.945 0.84315 0.0
C1566 C 0.03838 0.89281 0.85763 0.0
C1567 C 0.07212 0.93355 0.8597 0.0
H1568 H 0.99794 0.13205 0.83938 0.0
H1569 H 0.02633 0.18007 0.86778 0.0
H1570 H 0.09886 0.19212 0.8663 0.0
H1571 H 0.15302 0.18498 0.85738 0.0
H1572 H 0.12449 0.13385 0.8292 0.0
H1573 H 0.05389 0.12742 0.83013 0.0
C1574 C 0.02022 0.14556 0.84519 0.0
C1575 C 1.00664 0.15508 0.85369 0.0
C1576 C 0.06199 0.15173 0.84435 0.0
C1577 C 0.03582 0.1723 0.86118 0.0
C1578 C 0.07739 0.17921 0.86034 0.0
C1579 C 0.13171 0.17299 0.85137 0.0
C1580 C 0.14444 0.16003 0.84322 0.0
C1581 C 0.09069 0.16849 0.85202 0.0
C1582 C 0.11585 0.14414 0.83557 0.0
C1583 C 0.07527 0.14032 0.8361 0.0
H1584 H 0.87854 0.86912 0.66551 0.0
H1585 H 0.86356 0.8802 0.69526 0.0
H1586 H 0.9233 0.86773 0.69848 0.0
H1587 H 0.9839 0.8602 0.69257 0.0
H1588 H 0.99539 0.8462 0.66271 0.0
H1589 H 0.93254 0.85272 0.65981 0.0
C1590 C 0.888 0.86822 0.67272 0.0
C1591 C 0.86716 0.87598 0.68015 0.0
C1592 C 0.92184 0.86068 0.67447 0.0
C1593 C 0.87922 0.87422 0.68944 0.0
C1594 C 0.91348 0.86736 0.69126 0.0
C1595 C 0.97228 0.85799 0.68544 0.0
C1596 C 0.99473 0.85315 0.67786 0.0
C1597 C 0.93569 0.86153 0.6838 0.0
C1598 C 0.97892 0.84991 0.66868 0.0
C1599 C 0.94302 0.85386 0.667 0.0
H1600 H 0.16463 0.1249 0.69089 0.0
H1601 H 0.15881 0.14271 0.66097 0.0
H1602 H 0.15188 0.07349 0.65796 0.0
H1603 H 0.14334 1.00625 0.66368 0.0
H1604 H 0.15202 0.98735 0.69334 0.0
H1605 H 0.16216 0.05865 0.6966 0.0
C1606 C 0.16222 0.11378 0.68371 0.0
C1607 C 0.16199 0.13913 0.67618 0.0
C1608 C 0.15853 0.07365 0.68198 0.0
C1609 C 0.15916 0.12421 0.66692 0.0
C1610 C 0.15501 0.08441 0.66517 0.0
C1611 C 0.14771 0.01779 0.67087 0.0
C1612 C 0.14653 0.99152 0.67828 0.0
C1613 C 0.154 0.05866 0.67263 0.0
C1614 C 0.15282 1.00709 0.68753 0.0
C1615 C 0.15845 0.04774 0.68938 0.0
H1616 H 0.8813 0.05328 0.66919 0.0
H1617 H 0.90869 0.023 0.69675 0.0
H1618 H 0.97854 0.08811 0.69665 0.0
H1619 H 0.03477 0.1519 0.68821 0.0
H1620 H 1.00649 0.1809 0.66062 0.0
H1621 H 0.93473 0.11898 0.66134 0.0
C1622 C 0.9023 0.06105 0.67522 0.0
C1623 C 0.88949 0.03285 0.68293 0.0
C1624 C 0.94276 0.09864 0.67512 0.0
C1625 C 0.91741 0.04384 0.69068 0.0
C1626 C 0.95761 0.08119 0.69064 0.0
C1627 C 1.01259 0.14498 0.68244 0.0
C1628 C 0.02618 0.17102 0.67436 0.0
C1629 C 0.97103 0.10861 0.68283 0.0
C1630 C 0.99707 0.16138 0.66692 0.0
C1631 C 0.9559 0.12581 0.6673 0.0
H1632 H 0.85266 0.38085 0.50385 0.0
H1633 H 0.81732 0.3598 0.53319 0.0
H1634 H 0.81048 0.4237 0.53337 0.0
H1635 H 0.80824 0.4825 0.52474 0.0
H1636 H 0.83954 0.49943 0.49521 0.0
H1637 H 0.85472 0.44103 0.4956 0.0
C1638 C 0.84404 0.39045 0.51034 0.0
C1639 C 0.83541 0.36524 0.51847 0.0
C1640 C 0.83928 0.42674 0.51035 0.0
C1641 C 0.82409 0.37838 0.52679 0.0
C1642 C 0.82007 0.41498 0.52691 0.0
C1643 C 0.81927 0.47384 0.51848 0.0
C1644 C 0.82292 0.49533 0.50997 0.0
C1645 C 0.82673 0.43902 0.51868 0.0
C1646 C 0.83648 0.48336 0.50184 0.0
C1647 C 0.84506 0.44985 0.50205 0.0
H1648 H 0.55891 0.33465 0.49714 0.0
H1649 H 0.52342 0.31498 0.52641 0.0
H1650 H 0.58301 0.38657 0.53016 0.0
H1651 H 0.64732 0.45438 0.52504 0.0
H1652 H 0.67686 0.47509 0.49542 0.0
H1653 H 0.61746 0.40406 0.49188 0.0
C1654 C 0.56412 0.34608 0.50434 0.0
C1655 C 0.5373 0.31923 0.51152 0.0
C1656 C 0.59742 0.38771 0.50637 0.0
C1657 C 0.54393 0.33483 0.52078 0.0
C1658 C 0.578 0.37581 0.52292 0.0
C1659 C 0.64041 0.44342 0.51781 0.0
C1660 C 0.66671 0.47015 0.51051 0.0
C1661 C 0.60528 0.40249 0.51577 0.0
C1662 C 0.65709 0.45551 0.50117 0.0
C1663 C 0.62321 0.41468 0.49914 0.0
H1664 H 0.57169 0.20203 0.5286 0.0
H1665 H 0.53281 0.15866 0.50009 0.0
H1666 H 0.60149 0.16402 0.49699 0.0
H1667 H 0.67529 0.18745 0.5018 0.0
H1668 H 0.71438 0.22705 0.53037 0.0
H1669 H 0.64325 0.21642 0.53405 0.0
C1670 C 0.57802 0.19313 0.52176 0.0
C1671 C 0.54694 0.18029 0.51458 0.0
C1672 C 0.61785 0.1958 0.52001 0.0
C1673 C 0.55578 0.16859 0.50578 0.0
C1674 C 0.59529 0.17185 0.50396 0.0
C1675 C 0.66786 0.19287 0.50889 0.0
C1676 C 0.69988 0.20789 0.51582 0.0
C1677 C 0.62689 0.1863 0.51094 0.0
C1678 C 0.69004 0.21492 0.52496 0.0
C1679 C 0.64946 0.2092 0.52703 0.0
H1680 H 0.80708 0.4673 0.69767 0.0
H1681 H 0.84799 0.47958 0.66883 0.0
H1682 H 0.78861 0.48976 0.6639 0.0
H1683 H 0.72326 0.49374 0.6679 0.0
H1684 H 0.68919 0.49004 0.69711 0.0
H1685 H 0.74741 0.47846 0.70177 0.0
C1686 C 0.80306 0.47231 0.6903 0.0
C1687 C 0.83141 0.47173 0.6836 0.0
C1688 C 0.76994 0.47992 0.68759 0.0
C1689 C 0.82624 0.47916 0.67411 0.0
C1690 C 0.7923 0.48512 0.6713 0.0
C1691 C 0.72893 0.49077 0.67527 0.0
C1692 C 0.70178 0.49281 0.68213 0.0
C1693 C 0.76365 0.48531 0.67798 0.0
C1694 C 0.70973 0.48908 0.69168 0.0
C1695 C 0.74295 0.48218 0.69437 0.0
H1696 H 0.53126 0.23134 0.66876 0.0
H1697 H 0.53753 0.20863 0.69836 0.0
H1698 H 0.54842 0.27901 0.70209 0.0
H1699 H 0.55906 0.34841 0.69705 0.0
H1700 H 0.54479 0.3698 0.66783 0.0
H1701 H 0.53422 0.29912 0.66383 0.0
C1702 C 0.53458 0.24173 0.67602 0.0
C1703 C 0.53358 0.21456 0.68326 0.0
C1704 C 0.53978 0.28228 0.67819 0.0
C1705 C 0.53773 0.22851 0.69264 0.0
C1706 C 0.54425 0.26899 0.6948 0.0
C1707 C 0.55347 0.33755 0.68981 0.0
C1708 C 0.55366 0.36473 0.68272 0.0
C1709 C 0.54577 0.29632 0.68764 0.0
C1710 C 0.54549 0.3498 0.67339 0.0
C1711 C 0.53934 0.30929 0.67112 0.0
H1712 H 0.79726 0.30645 0.66902 0.0
H1713 H 0.82555 0.32995 0.69863 0.0
H1714 H 0.75555 0.26959 0.70255 0.0
H1715 H 0.68455 0.21226 0.69766 0.0
H1716 H 0.65781 0.18267 0.66824 0.0
H1717 H 0.72853 0.24284 0.66413 0.0
C1718 C 0.78819 0.29792 0.67631 0.0
C1719 C 0.81664 0.32279 0.68351 0.0
C1720 C 0.74796 0.26223 0.67855 0.0
C1721 C 0.80453 0.31121 0.69294 0.0
C1722 C 0.76431 0.27681 0.6952 0.0
C1723 C 0.69437 0.21885 0.69035 0.0
C1724 C 0.66581 0.1936 0.68325 0.0
C1725 C 0.73554 0.25246 0.68808 0.0
C1726 C 0.67915 0.20194 0.67382 0.0
C1727 C 0.71959 0.23635 0.67147 0.0
H1728 H 0.5468 0.21357 0.19463 0.0
H1729 H 0.54626 0.18517 0.1652 0.0
H1730 H 0.53713 0.24606 0.16107 0.0
H1731 H 0.532 0.30972 0.16594 0.0
H1732 H 0.52597 0.33254 0.19555 0.0
H1733 H 0.53446 0.27175 0.19945 0.0
C1734 C 0.54443 0.22055 0.18731 0.0
C1735 C 0.54766 0.19509 0.18023 0.0
C1736 C 0.5379 0.2548 0.18501 0.0
C1737 C 0.54392 0.20426 0.17078 0.0
C1738 C 0.5388 0.23919 0.16843 0.0
C1739 C 0.53207 0.30106 0.17323 0.0
C1740 C 0.52835 0.32602 0.18042 0.0
C1741 C 0.5361 0.26503 0.17548 0.0
C1742 C 0.52837 0.31401 0.18984 0.0
C1743 C 0.53351 0.27925 0.19211 0.0
H1744 H 0.81022 0.335 0.19669 0.0
H1745 H 0.84098 0.36573 0.16743 0.0
H1746 H 0.78048 0.29573 0.16293 0.0
H1747 H 0.71555 0.22691 0.16748 0.0
H1748 H 0.69064 0.19582 0.19699 0.0
H1749 H 0.75205 0.26424 0.20119 0.0
C1750 C 0.80395 0.32618 0.18932 0.0
C1751 C 0.82964 0.35564 0.18239 0.0
C1752 C 0.76995 0.28566 0.18683 0.0
C1753 C 0.82155 0.34361 0.17289 0.0
C1754 C 0.78685 0.30362 0.17032 0.0
C1755 C 0.72396 0.23497 0.17482 0.0
C1756 C 0.69817 0.20609 0.18189 0.0
C1757 C 0.7603 0.27453 0.17724 0.0
C1758 C 0.7098 0.21705 0.19137 0.0
C1759 C 0.7449 0.25642 0.19381 0.0
H1760 H 0.79351 0.48712 0.1676 0.0
H1761 H 0.81347 0.48887 0.1976 0.0
H1762 H 0.74447 0.4825 0.20053 0.0
H1763 H 0.67715 0.47367 0.19481 0.0
H1764 H 0.65641 0.47689 0.16507 0.0
H1765 H 0.72673 0.48431 0.16179 0.0
C1766 C 0.78275 0.48638 0.17475 0.0
C1767 C 0.80879 0.48845 0.18235 0.0
C1768 C 0.7428 0.48351 0.17645 0.0
C1769 C 0.79446 0.48771 0.1916 0.0
C1770 C 0.75478 0.48385 0.19331 0.0
C1771 C 0.68812 0.47626 0.1876 0.0
C1772 C 0.66168 0.4744 0.18019 0.0
C1773 C 0.72858 0.48137 0.18582 0.0
C1774 C 0.67642 0.47832 0.17089 0.0
C1775 C 0.7165 0.48238 0.16903 0.0
H1776 H 0.64255 0.16977 1.00107 0.0
H1777 H 0.66956 0.22613 0.02877 0.0
H1778 H 0.60441 0.23055 0.02827 0.0
H1779 H 0.54189 0.22351 0.01943 0.0
H1780 H 0.51699 0.16934 0.99156 0.0
H1781 H 0.57824 0.1586 0.99273 0.0
C1782 C 0.634 0.18253 1.00706 0.0
C1783 C 0.66136 0.19773 0.01492 0.0
C1784 C 0.59656 0.18555 1.00669 0.0
C1785 C 0.64947 0.21428 0.02259 0.0
C1786 C 0.61207 0.2169 0.02231 0.0
C1787 C 0.5495 0.20867 1.0137 0.0
C1788 C 0.52483 0.19727 1.00542 0.0
C1789 C 0.58565 0.20334 0.01433 0.0
C1790 C 0.53545 0.17851 0.99801 0.0
C1791 C 0.57062 0.17243 0.99865 0.0
H1792 H 0.80956 0.33198 0.02166 0.0
H1793 H 0.82914 0.34448 0.99163 0.0
H1794 H 0.844 0.41781 0.99226 0.0
H1795 H 0.84668 0.47743 1.00108 0.0
H1796 H 0.82552 0.46533 0.03107 0.0
H1797 H 0.81667 0.39397 0.03071 0.0
C1798 C 0.81751 0.35097 0.0153 0.0
C1799 C 0.81792 0.33248 1.00661 0.0
C1800 C 0.82572 0.39354 0.01567 0.0
C1801 C 0.82824 0.35762 0.99842 0.0
C1802 C 0.83683 0.39976 0.99875 0.0
C1803 C 0.84091 0.45956 1.00756 0.0
C1804 C 0.83673 0.47702 0.01607 0.0
C1805 C 0.83503 0.41795 1.00731 0.0
C1806 C 0.82878 0.45289 0.02438 0.0
C1807 C 0.82356 0.41183 0.0242 0.0
H1808 H 0.57446 0.36958 0.0247 0.0
H1809 H 0.54375 0.37499 0.99552 0.0
H1810 H 0.61172 0.44 0.99333 0.0
H1811 H 0.68245 0.49168 0.99912 0.0
H1812 H 0.71508 0.48972 0.02815 0.0
H1813 H 0.64378 0.42752 0.03103 0.0
C1814 C 0.58242 0.38528 0.0179 0.0
C1815 C 0.55399 0.36676 1.01026 0.0
C1816 C 0.62203 0.42324 0.01665 0.0
C1817 C 0.56486 0.38793 1.00153 0.0
C1818 C 0.60389 0.42528 1.00024 0.0
C1819 C 0.67371 0.47799 1.00612 0.0
C1820 C 0.70386 0.49487 1.01341 0.0
C1821 C 0.63304 0.44258 1.00766 0.0
C1822 C 0.6922 0.47728 0.02246 0.0
C1823 C 0.65157 0.44155 0.02407 0.0
H1824 H 0.49647 0.81816 0.83267 0.0
H1825 H 0.47649 0.82843 0.86219 0.0
H1826 H 0.48387 0.76563 0.86543 0.0
H1827 H 0.48983 0.70406 0.85948 0.0
H1828 H 0.51202 0.6971 0.82983 0.0
H1829 H 0.51034 0.76251 0.82705 0.0
C1830 C 0.49433 0.80704 0.83984 0.0
C1831 C 0.48564 0.82766 0.84718 0.0
C1832 C 0.49875 0.77128 0.8416 0.0
C1833 C 0.48336 0.8132 0.85644 0.0
C1834 C 0.48728 0.77711 0.85826 0.0
C1835 C 0.49479 0.7171 0.85243 0.0
C1836 C 0.50061 0.69512 0.84486 0.0
C1837 C 0.49401 0.75527 0.85085 0.0
C1838 C 0.5074 0.71295 0.8358 0.0
C1839 C 0.5063 0.75042 0.83418 0.0
H1840 H 0.22616 0.65889 0.85625 0.0
H1841 H 0.16674 0.69587 0.83481 0.0
H1842 H 0.22979 0.76731 0.83417 0.0
H1843 H 0.30392 0.81925 0.8393 0.0
H1844 H 0.36155 0.78118 0.86102 0.0
H1845 H 0.29791 0.71124 0.86188 0.0
C1846 C 0.22682 0.68272 0.85151 0.0
C1847 C 0.19177 0.67179 0.84556 0.0
C1848 C 0.26333 0.72391 0.85115 0.0
C1849 C 0.19329 0.70323 0.83947 0.0
C1850 C 0.22949 0.74419 0.83906 0.0
C1851 C 0.30246 0.79568 0.84422 0.0
C1852 C 0.33781 0.80599 0.85007 0.0
C1853 C 0.26509 0.75487 0.84479 0.0
C1854 C 0.33501 0.77477 0.85645 0.0
C1855 C 0.29848 0.73439 0.85696 0.0
H1856 H 0.36758 0.55824 0.85522 0.0
H1857 H 0.33789 0.50434 0.82731 0.0
H1858 H 0.26668 0.49543 0.8283 0.0
H1859 H 0.21404 0.50761 0.83655 0.0
H1860 H 0.24309 0.56199 0.86444 0.0
H1861 H 0.31226 0.56573 0.86399 0.0
C1862 C 0.34521 0.54392 0.84944 0.0
C1863 C 0.35824 0.53219 0.84119 0.0
C1864 C 0.30396 0.53929 0.84999 0.0
C1865 C 0.32889 0.51393 0.83373 0.0
C1866 C 0.28802 0.50884 0.83427 0.0
C1867 C 0.23525 0.51988 0.84257 0.0
C1868 C 0.2231 0.53469 0.85047 0.0
C1869 C 0.27541 0.5222 0.84228 0.0
C1870 C 0.25131 0.55042 0.85821 0.0
C1871 C 0.29114 0.55267 0.85798 0.0
H1872 H 0.48142 0.8068 0.02935 0.0
H1873 H 0.50879 0.8093 0.99981 0.0
H1874 H 0.44974 0.82189 0.99601 0.0
H1875 H 0.38753 0.82867 1.00124 0.0
H1876 H 0.36653 0.83338 0.031 0.0
H1877 H 0.42591 0.82209 0.03456 0.0
C1878 C 0.47459 0.8104 0.02208 0.0
C1879 C 0.49881 0.80644 0.01485 0.0
C1880 C 0.4417 0.81905 0.02 0.0
C1881 C 0.49028 0.81194 1.00548 0.0
C1882 C 0.45651 0.81909 1.00332 0.0
C1883 C 0.39642 0.82776 1.00849 0.0
C1884 C 0.37252 0.83182 0.01583 0.0
C1885 C 0.43157 0.82219 1.01053 0.0
C1886 C 0.38453 0.83078 0.0252 0.0
C1887 C 0.41837 0.82401 0.02726 0.0
H1888 H 0.23296 0.68418 0.03155 0.0
H1889 H 0.21642 0.70513 1.00242 0.0
H1890 H 0.20709 0.63497 0.99834 0.0
H1891 H 0.20605 0.56805 1.00317 0.0
H1892 H 0.21514 0.54599 0.0327 0.0
H1893 H 0.22454 0.61577 0.03652 0.0
C1894 C 0.22715 0.67336 0.0243 0.0
C1895 C 0.22633 0.70019 0.01726 0.0
C1896 C 0.22036 0.63259 0.0221 0.0
C1897 C 0.21787 0.68534 1.00794 0.0
C1898 C 0.21246 0.64517 1.00562 0.0
C1899 C 0.20977 0.57853 1.01043 0.0
C1900 C 0.21003 0.55186 0.01764 0.0
C1901 C 0.21408 0.61861 1.01264 0.0
C1902 C 0.2145 0.56567 0.02702 0.0
C1903 C 0.22012 0.60572 0.02922 0.0
H1904 H 0.3333 0.53909 1.0063 0.0
H1905 H 0.35931 0.51584 0.03463 0.0
H1906 H 0.43235 0.5753 0.03348 0.0
H1907 H 0.48786 0.63719 0.02496 0.0
H1908 H 0.46273 0.66313 0.99678 0.0
H1909 H 0.39132 0.59981 0.99733 0.0
C1910 C 0.35519 0.54677 1.01216 0.0
C1911 C 0.34062 0.52292 0.02056 0.0
C1912 C 0.39757 0.58186 1.01151 0.0
C1913 C 0.36943 0.5336 0.0281 0.0
C1914 C 0.41137 0.56775 0.02746 0.0
C1915 C 0.46711 0.6288 0.01887 0.0
C1916 C 0.48106 0.65527 1.01085 0.0
C1917 C 0.42566 0.5926 0.01927 0.0
C1918 C 0.4532 0.6436 1.00307 0.0
C1919 C 0.4121 0.60731 1.00338 0.0
H1920 H 0.1947 0.52911 0.52951 0.0
H1921 H 0.23604 0.52836 0.50112 0.0
H1922 H 0.22997 0.59142 0.4974 0.0
H1923 H 0.21777 0.64993 0.50268 0.0
H1924 H 0.17579 0.64871 0.5312 0.0
H1925 H 0.17707 0.58331 0.53437 0.0
C1926 C 0.2019 0.54242 0.52247 0.0
C1927 C 0.21597 0.5242 0.51561 0.0
C1928 C 0.1985 0.57861 0.52043 0.0
C1929 C 0.22496 0.54167 0.50651 0.0
C1930 C 0.22174 0.5779 0.50441 0.0
C1931 C 0.20851 0.63518 0.50957 0.0
C1932 C 0.19701 0.65476 0.51671 0.0
C1933 C 0.20929 0.59717 0.51138 0.0
C1934 C 0.1849 0.63478 0.52556 0.0
C1935 C 0.18569 0.59726 0.5274 0.0
H1936 H 0.49195 0.69551 0.50583 0.0
H1937 H 0.51897 0.66738 0.53362 0.0
H1938 H 0.45914 0.59452 0.53248 0.0
H1939 H 0.39505 0.54061 0.52431 0.0
H1940 H 0.36557 0.56814 0.49668 0.0
H1941 H 0.42999 0.63857 0.49703 0.0
C1942 C 0.48518 0.67308 0.51153 0.0
C1943 C 0.5099 0.68693 0.51981 0.0
C1944 C 0.44977 0.63103 0.51093 0.0
C1945 C 0.5004 0.65762 0.52719 0.0
C1946 C 0.46603 0.61588 0.52656 0.0
C1947 C 0.40284 0.56168 0.5183 0.0
C1948 C 0.37498 0.54879 0.51052 0.0
C1949 C 0.4398 0.60251 0.51858 0.0
C1950 C 0.38609 0.5769 0.5028 0.0
C1951 C 0.42303 0.61743 0.50299 0.0
H1952 H 0.47758 0.84108 0.52751 0.0
H1953 H 0.46166 0.80189 0.49842 0.0
H1954 H 0.39151 0.79653 0.49811 0.0
H1955 H 0.33214 0.79908 0.50643 0.0
H1956 H 0.34929 0.83771 0.53556 0.0
H1957 H 0.42093 0.84731 0.53546 0.0
C1958 C 0.45904 0.83168 0.52106 0.0
C1959 C 0.47519 0.82179 0.51302 0.0
C1960 C 0.41848 0.82838 0.52093 0.0
C1961 C 0.45036 0.80976 0.50474 0.0
C1962 C 0.41001 0.80655 0.50456 0.0
C1963 C 0.35183 0.81006 0.51271 0.0
C1964 C 0.33517 0.8175 0.521 0.0
C1965 C 0.39338 0.81523 0.51265 0.0
C1966 C 0.3611 0.83156 0.52908 0.0
C1967 C 0.4022 0.83705 0.52905 0.0
H1968 H 0.21256 0.54214 0.33057 0.0
H1969 H 0.19514 0.55112 0.36027 0.0
H1970 H 0.25432 0.53805 0.36368 0.0
H1971 H 0.31451 0.5289 0.35797 0.0
H1972 H 0.32647 0.51468 0.32813 0.0
H1973 H 0.26581 0.52438 0.32504 0.0
C1974 C 0.22147 0.54079 0.33779 0.0
C1975 C 0.20005 0.54809 0.34516 0.0
C1976 C 0.25465 0.53235 0.33967 0.0
C1977 C 0.21134 0.54565 0.35449 0.0
C1978 C 0.24525 0.53835 0.35643 0.0
C1979 C 0.30342 0.52737 0.35081 0.0
C1980 C 0.32537 0.52133 0.3433 0.0
C1981 C 0.26769 0.53236 0.34905 0.0
C1982 C 0.31031 0.51911 0.33407 0.0
C1983 C 0.27565 0.52491 0.33227 0.0
H1984 H 0.48353 0.67866 0.32952 0.0
H1985 H 0.48376 0.64978 0.3589 0.0
H1986 H 0.49592 0.72096 0.36312 0.0
H1987 H 0.50196 0.79013 0.35831 0.0
H1988 H 0.50641 0.81867 0.32867 0.0
H1989 H 0.49751 0.74939 0.32474 0.0
C1990 C 0.48665 0.68808 0.33686 0.0
C1991 C 0.48226 0.65887 0.3439 0.0
C1992 C 0.49446 0.72913 0.33918 0.0
C1993 C 0.48697 0.67171 0.35336 0.0
C1994 C 0.49376 0.71235 0.35576 0.0
C1995 C 0.5015 0.78137 0.351 0.0
C1996 C 0.50465 0.80984 0.34382 0.0
C1997 C 0.4969 0.74119 0.34872 0.0
C1998 C 0.50428 0.79785 0.33438 0.0
C1999 C 0.49893 0.75796 0.33209 0.0
H2000 H 0.25042 0.70248 0.35834 0.0
H2001 H 0.1953 0.72086 0.33304 0.0
H2002 H 0.26179 0.78588 0.32958 0.0
H2003 H 0.33737 0.83493 0.3329 0.0
H2004 H 0.39381 0.81999 0.35823 0.0
H2005 H 0.32541 0.75683 0.36253 0.0
C2006 C 0.25278 0.72106 0.35215 0.0
C2007 C 0.21774 0.70616 0.34593 0.0
C2008 C 0.29159 0.75904 0.35015 0.0
C2009 C 0.22156 0.73095 0.33795 0.0
C2010 C 0.25975 0.76832 0.33592 0.0
C2011 C 0.33455 0.81809 0.33942 0.0
C2012 C 0.37056 0.83184 0.34521 0.0
C2013 C 0.29521 0.78215 0.34184 0.0
C2014 C 0.36644 0.81002 0.35367 0.0
C2015 C 0.32736 0.77379 0.3561 0.0
H2016 H 0.26688 0.35707 0.16814 0.0
H2017 H 0.27062 0.31007 0.19582 0.0
H2018 H 0.34833 0.34471 0.19495 0.0
H2019 H 0.41623 0.38696 0.18615 0.0
H2020 H 0.41279 0.43692 0.15884 0.0
H2021 H 0.33501 0.40296 0.15977 0.0
C2022 C 0.28464 0.35457 0.17401 0.0
C2023 C 0.26233 0.33066 0.18202 0.0
C2024 C 0.32988 0.37514 0.17353 0.0
C2025 C 0.28641 0.32822 0.18956 0.0
C2026 C 0.33113 0.34798 0.18906 0.0
C2027 C 0.39844 0.39052 0.18043 0.0
C2028 C 0.42061 0.41432 0.17241 0.0
C2029 C 0.35333 0.37129 0.18106 0.0
C2030 C 0.39685 0.41882 0.1651 0.0
C2031 C 0.35216 0.39928 0.16562 0.0
H2032 H 0.64857 0.0437 0.18589 0.0
H2033 H 0.57512 0.97417 0.16162 0.0
H2034 H 0.60912 0.93057 0.16174 0.0
H2035 H 0.66122 0.91225 0.16851 0.0
H2036 H 0.73282 0.98025 0.19314 0.0
H2037 H 0.69847 0.02335 0.19306 0.0
C2038 C 0.63984 0.01888 0.18066 0.0
C2039 C 0.60924 0.01269 0.17373 0.0
C2040 C 0.65947 0.99327 0.18079 0.0
C2041 C 0.59848 0.98005 0.16704 0.0
C2042 C 0.61806 0.95494 0.16708 0.0
C2043 C 0.66929 0.93639 0.17388 0.0
C2044 C 0.69992 0.94252 0.18081 0.0
C2045 C 0.64887 0.9613 0.17388 0.0
C2046 C 0.70944 0.97417 0.18771 0.0
C2047 C 0.68977 0.99918 0.18768 0.0
H2048 H 0.04703 0.74613 0.19055 0.0
H2049 H 0.13898 0.76858 0.16869 0.0
H2050 H 0.10529 0.69222 0.16581 0.0
H2051 H 0.04772 0.61847 0.16888 0.0
H2052 H 0.95489 0.59494 0.19053 0.0
H2053 H 0.99074 0.67141 0.19409 0.0
C2054 C 0.06001 0.73434 0.18523 0.0
C2055 C 0.09564 0.76366 0.17985 0.0
C2056 C 0.04005 0.68979 0.1835 0.0
C2057 C 0.11158 0.7473 0.17294 0.0
C2058 C 0.09227 0.70336 0.17126 0.0
C2059 C 0.03548 0.63003 0.17442 0.0
C2060 C 0.99846 0.60082 0.17939 0.0
C2061 C 0.05616 0.67426 0.1764 0.0
C2062 C 0.98319 0.61657 0.18655 0.0
C2063 C 1.00371 0.66043 0.1886 0.0
H2064 H 0.31559 0.2665 0.33529 0.0
H2065 H 0.38308 0.24738 0.35808 0.0
H2066 H 0.42421 0.32408 0.36082 0.0
H2067 H 0.43879 0.3969 0.35746 0.0
H2068 H 0.37086 0.41711 0.33499 0.0
H2069 H 0.33274 0.34052 0.33143 0.0
C2070 C 0.33972 0.27915 0.34076 0.0
C2071 C 0.34592 0.25073 0.34646 0.0
C2072 C 0.36316 0.32382 0.34244 0.0
C2073 C 0.3772 0.26807 0.35359 0.0
C2074 C 0.40087 0.31215 0.35519 0.0
C2075 C 0.41587 0.38463 0.35174 0.0
C2076 C 0.40766 0.4129 0.34654 0.0
C2077 C 0.39371 0.34035 0.34978 0.0
C2078 C 0.3778 0.39621 0.33914 0.0
C2079 C 0.35591 0.35229 0.3371 0.0
H2080 H 0.6347 0.02867 0.36441 0.0
H2081 H 0.60609 0.97583 0.33646 0.0
H2082 H 0.68257 0.01773 0.33232 0.0
H2083 H 0.75901 0.06651 0.33716 0.0
H2084 H 0.78366 0.11976 0.36523 0.0
H2085 H 0.70793 0.08107 0.36869 0.0
C2086 C 0.64507 0.02658 0.35737 0.0
C2087 C 0.61472 0.99893 0.35079 0.0
C2088 C 0.68879 0.05087 0.35505 0.0
C2089 C 0.62874 0.99693 0.34167 0.0
C2090 C 0.67257 0.02079 0.33932 0.0
C2091 C 0.74778 0.07007 0.34399 0.0
C2092 C 0.77783 0.09597 0.35093 0.0
C2093 C 0.70318 0.0475 0.34602 0.0
C2094 C 0.76208 0.1 0.35972 0.0
C2095 C 0.71843 0.07775 0.36176 0.0
H2096 H 0.97501 0.71115 0.33676 0.0
H2097 H 0.88294 0.64039 0.35851 0.0
H2098 H 0.91879 0.59995 0.36175 0.0
H2099 H 0.97908 0.58728 0.35917 0.0
H2100 H 0.07197 0.65847 0.33764 0.0
H2101 H 0.03326 0.69557 0.33358 0.0
C2102 C 0.96237 0.68642 0.3421 0.0
C2103 C 0.92619 0.67909 0.34737 0.0
C2104 C 0.98368 0.66343 0.34407 0.0
C2105 C 0.91071 0.64705 0.35434 0.0
C2106 C 0.93131 0.62384 0.35623 0.0
C2107 C 0.99067 0.61069 0.35355 0.0
C2108 C 0.02862 0.62019 0.34878 0.0
C2109 C 0.96829 0.63222 0.35127 0.0
C2110 C 0.04303 0.6506 0.34148 0.0
C2111 C 0.02085 0.6719 0.33915 0.0
H2112 H 0.62598 0.61233 0.86445 0.0
H2113 H 0.59133 0.62482 0.83616 0.0
H2114 H 0.66707 0.66065 0.83144 0.0
H2115 H 0.74465 0.69102 0.83565 0.0
H2116 H 0.77545 0.67393 0.86413 0.0
H2117 H 0.70071 0.63776 0.86834 0.0
C2118 C 0.63492 0.62265 0.85723 0.0
C2119 C 0.60293 0.61591 0.85069 0.0
C2120 C 0.67836 0.64277 0.85456 0.0
C2121 C 0.61521 0.62936 0.84134 0.0
C2122 C 0.65865 0.65006 0.83865 0.0
C2123 C 0.735 0.67914 0.84275 0.0
C2124 C 0.7666 0.68577 0.8495 0.0
C2125 C 0.69081 0.65735 0.84523 0.0
C2126 C 0.75275 0.66973 0.85867 0.0
C2127 C 0.7096 0.64887 0.86116 0.0
H2128 H 0.33051 0.05626 0.83575 0.0
H2129 H 0.35337 0.11355 0.86337 0.0
H2130 H 0.39084 0.07667 0.86801 0.0
H2131 H 0.41522 0.0259 0.86474 0.0
H2132 H 0.39525 0.96866 0.83729 0.0
H2133 H 0.35922 1.00751 0.83214 0.0
C2134 C 0.34403 0.06103 0.84275 0.0
C2135 C 0.33847 0.08784 0.84917 0.0
C2136 C 0.36614 0.03942 0.84547 0.0
C2137 C 0.3565 0.09324 0.85822 0.0
C2138 C 0.37811 0.07199 0.86093 0.0
C2139 C 0.40322 0.02205 0.8576 0.0
C2140 C 0.40807 0.99433 0.85142 0.0
C2141 C 0.38273 0.04464 0.85469 0.0
C2142 C 0.39235 0.98997 0.84219 0.0
C2143 C 0.37152 0.01212 0.83926 0.0
H2144 H 0.93193 0.28116 0.83773 0.0
H2145 H 0.99035 0.24458 0.85945 0.0
H2146 H 0.03867 0.31964 0.86338 0.0
H2147 H 0.06355 0.39595 0.861 0.0
H2148 H 1.00434 0.43392 0.83974 0.0
H2149 H 0.95763 0.3589 0.83528 0.0
C2150 C 0.95551 0.28982 0.84326 0.0
C2151 C 0.95774 0.25727 0.84826 0.0
C2152 C 0.98306 0.3335 0.8456 0.0
C2153 C 0.98812 0.26897 0.85548 0.0
C2154 C 1.01575 0.31195 0.85775 0.0
C2155 C 0.04052 0.3879 0.85537 0.0
C2156 C 0.03767 0.42083 0.85072 0.0
C2157 C 1.01339 0.34454 0.85291 0.0
C2158 C 1.00743 0.40947 0.84344 0.0
C2159 C 0.9806 0.36642 0.84089 0.0
H2160 H 0.63212 0.60927 0.68662 0.0
H2161 H 0.62902 0.61594 0.65635 0.0
H2162 H 0.65943 0.6929 0.65707 0.0
H2163 H 0.68954 0.75973 0.66613 0.0
H2164 H 0.69438 0.75473 0.69638 0.0
H2165 H 0.6609 0.67702 0.69581 0.0
C2166 C 0.63797 0.6276 0.6802 0.0
C2167 C 0.6282 0.60639 0.67144 0.0
C2168 C 0.65596 0.67269 0.68063 0.0
C2169 C 0.63616 0.631 0.66321 0.0
C2170 C 0.65363 0.6753 0.6636 0.0
C2171 C 0.68289 0.74172 0.67261 0.0
C2172 C 0.69467 0.76363 0.68128 0.0
C2173 C 0.66396 0.69669 0.67225 0.0
C2174 C 0.68588 0.7392 0.68958 0.0
C2175 C 0.66671 0.69448 0.68927 0.0
H2176 H 0.41533 0.04442 0.6878 0.0
H2177 H 0.42116 0.98145 0.66254 0.0
H2178 H 0.3439 0.93443 0.66287 0.0
H2179 H 0.27361 0.91195 0.66998 0.0
H2180 H 0.26711 0.9726 0.69556 0.0
H2181 H 0.34471 0.01883 0.69547 0.0
C2182 C 0.39965 0.02031 0.6824 0.0
C2183 C 0.42428 0.01693 0.67512 0.0
C2184 C 0.35469 0.99263 0.68267 0.0
C2185 C 0.40328 0.98512 0.66822 0.0
C2186 C 0.35888 0.95806 0.66839 0.0
C2187 C 0.28911 0.93505 0.67558 0.0
C2188 C 0.26408 0.93857 0.68274 0.0
C2189 C 0.33411 0.96164 0.67553 0.0
C2190 C 0.28517 0.9688 0.68994 0.0
C2191 C 0.32977 0.99554 0.68989 0.0
H2192 H 0.98871 0.38119 0.68832 0.0
H2193 H 0.03029 0.42474 0.65996 0.0
H2194 H 0.07903 0.39701 0.66046 0.0
H2195 H 0.10734 0.35652 0.66841 0.0
H2196 H 0.0652 0.30977 0.69655 0.0
H2197 H 0.02009 0.34237 0.69667 0.0
C2198 C 1.00886 0.385 0.68232 0.0
C2199 C 1.00559 0.40508 0.67411 0.0
C2200 C 0.03681 0.36803 0.68256 0.0
C2201 C 0.03179 0.40934 0.66637 0.0
C2202 C 0.05984 0.39342 0.66663 0.0
C2203 C 0.08873 0.35379 0.67463 0.0
C2204 C 0.08995 0.33053 0.68245 0.0
C2205 C 0.06222 0.3721 0.67461 0.0
C2206 C 0.06513 0.32735 0.6904 0.0
C2207 C 0.0391 0.34599 0.69047 0.0
H2208 H 0.94034 0.69784 0.50275 0.0
H2209 H 0.9372 0.63739 0.52913 0.0
H2210 H 1.015 0.6707 0.52887 0.0
H2211 H 0.08479 0.71499 0.52082 0.0
H2212 H 0.08772 0.77668 0.49466 0.0
H2213 H 1.01015 0.74533 0.49521 0.0
C2214 C 0.9566 0.69216 0.50849 0.0
C2215 C 0.93232 0.66478 0.51593 0.0
C2216 C 1.00181 0.71165 0.50833 0.0
C2217 C 0.95452 0.65817 0.52329 0.0
C2218 C 0.99928 0.67719 0.52315 0.0
C2219 C 0.06847 0.72176 0.51527 0.0
C2220 C 0.0924 0.74807 0.50767 0.0
C2221 C 0.02338 0.70366 0.51565 0.0
C2222 C 0.07045 0.75656 0.50059 0.0
C2223 C 0.02586 0.73853 0.50088 0.0
H2224 H 0.37388 0.29731 0.52466 0.0
H2225 H 0.33848 0.2315 0.49793 0.0
H2226 H 0.30188 0.26944 0.49353 0.0
H2227 H 0.28223 0.3238 0.49664 0.0
H2228 H 0.31389 0.38924 0.52327 0.0
H2229 H 0.34894 0.34922 0.52828 0.0
C2230 C 0.35775 0.2909 0.51792 0.0
C2231 C 0.3597 0.2615 0.51165 0.0
C2232 C 0.33605 0.3131 0.51534 0.0
C2233 C 0.33831 0.25394 0.50294 0.0
C2234 C 0.31715 0.27576 0.50037 0.0
C2235 C 0.29655 0.32915 0.50358 0.0
C2236 C 0.29548 0.35962 0.50955 0.0
C2237 C 0.31631 0.30583 0.50641 0.0
C2238 C 0.31403 0.36587 0.51853 0.0
C2239 C 0.33426 0.34304 0.52138 0.0
H2240 H 0.71576 0.95484 0.50115 0.0
H2241 H 0.63339 0.92875 0.52516 0.0
H2242 H 0.67149 1.00475 0.52926 0.0
H2243 H 0.72656 0.07974 0.52565 0.0
H2244 H 0.8066 0.10563 0.50118 0.0
H2245 H 0.77149 0.02936 0.49771 0.0
C2246 C 0.70633 0.96572 0.50732 0.0
C2247 C 0.67162 0.93585 0.51284 0.0
C2248 C 0.72804 1.00982 0.50956 0.0
C2249 C 0.65985 0.95082 0.52078 0.0
C2250 C 0.68167 0.99443 0.52313 0.0
C2251 C 0.7367 0.06871 0.51962 0.0
C2252 C 0.76952 0.09888 0.51372 0.0
C2253 C 0.71562 0.02441 0.51753 0.0
C2254 C 0.78158 0.08357 0.50587 0.0
C2255 C 0.7614 0.03975 0.50386 0.0
H2256 H 0.10618 0.73191 0.69397 0.0
H2257 H 0.0481 0.75557 0.66998 0.0
H2258 H 1.00955 0.67931 0.66622 0.0
H2259 H 0.98854 0.60469 0.67033 0.0
H2260 H 0.0463 0.58183 0.69455 0.0
H2261 H 0.08851 0.65824 0.69753 0.0
C2262 C 0.0854 0.72043 0.68787 0.0
C2263 C 0.07991 0.74952 0.68231 0.0
C2264 C 0.06292 0.67631 0.68578 0.0
C2265 C 0.05282 0.73395 0.67442 0.0
C2266 C 0.03067 0.69023 0.67226 0.0
C2267 C 1.0108 0.61644 0.67618 0.0
C2268 C 1.01382 0.58712 0.68221 0.0
C2269 C 0.03492 0.6609 0.67797 0.0
C2270 C 0.04281 0.60327 0.6898 0.0
C2271 C 0.06711 0.64717 0.69153 0.0
H2272 H 0.29475 0.37565 0.69339 0.0
H2273 H 0.26842 0.29413 0.66926 0.0
H2274 H 0.34445 0.33224 0.66509 0.0
H2275 H 0.41995 0.38665 0.66882 0.0
H2276 H 0.44506 0.46751 0.6931 0.0
H2277 H 0.36897 0.43232 0.69656 0.0
C2278 C 0.30557 0.36643 0.68718 0.0
C2279 C 0.27566 0.33177 0.6817 0.0
C2280 C 0.34962 0.38847 0.68483 0.0
C2281 C 0.29054 0.32049 0.67365 0.0
C2282 C 0.33419 0.34232 0.67126 0.0
C2283 C 0.40877 0.397 0.67479 0.0
C2284 C 0.43885 0.42983 0.68068 0.0
C2285 C 0.36429 0.37611 0.67686 0.0
C2286 C 0.42322 0.44232 0.68843 0.0
C2287 C 0.37942 0.4221 0.69045 0.0
H2288 H 0.64574 0.91842 0.69261 0.0
H2289 H 0.74264 0.99066 0.67189 0.0
H2290 H 0.70655 0.03047 0.66785 0.0
H2291 H 0.64896 0.04762 0.67078 0.0
H2292 H 0.55291 0.97528 0.69172 0.0
H2293 H 0.5867 0.93302 0.69498 0.0
C2294 C 0.65882 0.94267 0.68716 0.0
C2295 C 0.69708 0.95157 0.68261 0.0
C2296 C 0.63795 0.96573 0.6849 0.0
C2297 C 0.71339 0.98314 0.67555 0.0
C2298 C 0.69272 1.00601 0.67323 0.0
C2299 C 0.63509 0.02225 0.67596 0.0
C2300 C 0.59829 0.015 0.68099 0.0
C2301 C 0.65515 0.99799 0.67793 0.0
C2302 C 0.5812 0.98201 0.68774 0.0
C2303 C 0.60059 0.95768 0.68964 0.0
H2304 H 0.27336 0.96343 0.1735 0.0
H2305 H 0.28128 0.93482 0.20263 0.0
H2306 H 0.35821 0.96485 0.20118 0.0
H2307 H 0.42431 1.00213 0.19202 0.0
H2308 H 0.41923 0.0344 0.16304 0.0
H2309 H 0.3411 1.00023 0.16404 0.0
C2310 C 0.29194 0.96344 0.17948 0.0
C2311 C 0.27118 0.94665 0.18818 0.0
C2312 C 0.33708 0.98171 0.17865 0.0
C2313 C 0.29607 0.94743 0.19587 0.0
C2314 C 0.3403 0.9647 0.19505 0.0
C2315 C 0.40628 1.00147 0.18586 0.0
C2316 C 0.42819 0.02098 0.17745 0.0
C2317 C 0.36131 0.98235 0.18653 0.0
C2318 C 0.40367 0.01977 0.16962 0.0
C2319 C 0.35877 1.00021 0.17019 0.0
H2320 H 0.99254 0.38736 0.1706 0.0
H2321 H 0.03293 0.4569 0.19683 0.0
H2322 H 0.06959 0.41883 0.20115 0.0
H2323 H 0.08721 0.36288 0.19816 0.0
H2324 H 0.05105 0.29435 0.17191 0.0
H2325 H 1.01629 0.33471 0.16696 0.0
C2326 C 1.00984 0.3946 0.1772 0.0
C2327 C 1.0093 0.425 0.18338 0.0
C2328 C 0.03155 0.37242 0.17971 0.0
C2329 C 0.03217 0.43371 0.1919 0.0
C2330 C 0.05328 0.41179 0.19443 0.0
C2331 C 0.072 0.35697 0.19132 0.0
C2332 C 0.07156 0.32547 0.18545 0.0
C2333 C 0.05259 0.3806 0.1885 0.0
C2334 C 0.052 0.31851 0.17657 0.0
C2335 C 0.03196 0.34152 0.17375 0.0
H2336 H 0.59267 0.59921 0.19083 0.0
H2337 H 0.6354 0.60371 0.16232 0.0
H2338 H 0.67995 0.68163 0.16333 0.0
H2339 H 0.71005 0.74961 0.1727 0.0
H2340 H 0.66768 0.7422 0.20137 0.0
H2341 H 0.62031 0.66556 0.19985 0.0
C2342 C 0.61136 0.61708 0.18478 0.0
C2343 C 0.61025 0.59496 0.1765 0.0
C2344 C 0.63751 0.66205 0.18544 0.0
C2345 C 0.63524 0.61934 0.1688 0.0
C2346 C 0.66096 0.66418 0.16938 0.0
C2347 C 0.69009 0.73123 0.17856 0.0
C2348 C 0.69269 0.75218 0.18716 0.0
C2349 C 0.66283 0.6861 0.17771 0.0
C2350 C 0.66669 0.7274 0.19468 0.0
C2351 C 0.63942 0.68326 0.19383 0.0
H2352 H 0.28266 0.95735 0.99629 0.0
H2353 H 0.31409 0.93146 0.02381 0.0
H2354 H 0.34909 1.00781 0.02773 0.0
H2355 H 0.37368 0.08299 0.02295 0.0
H2356 H 0.33847 0.10629 0.99547 0.0
H2357 H 0.30209 0.03044 0.992 0.0
C2358 C 0.29693 0.96837 1.00317 0.0
C2359 C 0.29595 0.93879 1.00972 0.0
C2360 C 0.31651 0.01214 1.00539 0.0
C2361 C 0.31431 0.95356 0.01864 0.0
C2362 C 0.33447 0.99728 0.02087 0.0
C2363 C 0.35772 0.07144 0.01624 0.0
C2364 C 0.35926 0.10088 1.00949 0.0
C2365 C 0.3362 0.02707 0.01425 0.0
C2366 C 0.33809 0.08491 1.00085 0.0
C2367 C 0.31723 0.04129 0.99881 0.0
H2368 H 0.0709 0.37944 0.99787 0.0
H2369 H 0.10148 0.35516 0.02562 0.0
H2370 H 0.02495 0.30893 0.02906 0.0
H2371 H 0.94825 0.27516 0.02407 0.0
H2372 H 0.92031 0.29637 0.99572 0.0
H2373 H 0.99615 0.34345 0.99266 0.0
C2374 C 0.06089 0.36408 1.00469 0.0
C2375 C 0.09207 0.37111 1.0115 0.0
C2376 C 0.01691 0.33666 1.0065 0.0
C2377 C 0.07832 0.3504 0.02024 0.0
C2378 C 0.03444 0.32395 0.02221 0.0
C2379 C 0.95883 0.29002 0.01722 0.0
C2380 C 0.92817 0.28191 1.01014 0.0
C2381 C 1.00325 0.31676 0.01539 0.0
C2382 C 0.9428 0.30143 1.0013 0.0
C2383 C 0.98636 0.32867 0.99953 0.0
H2384 H 0.78129 0.69691 1.00232 0.0
H2385 H 0.72443 0.63762 0.02885 0.0
H2386 H 0.67964 0.67023 0.02853 0.0
H2387 H 0.65476 0.71489 0.02058 0.0
H2388 H 0.71485 0.77763 0.99457 0.0
H2389 H 0.75947 0.74476 0.99485 0.0
C2390 C 0.75926 0.69125 1.00805 0.0
C2391 C 0.75654 0.66462 0.01559 0.0
C2392 C 0.73369 0.71077 1.00792 0.0
C2393 C 0.72774 0.65806 0.02297 0.0
C2394 C 0.70178 0.67662 0.02279 0.0
C2395 C 0.67768 0.72138 0.015 0.0
C2396 C 0.68103 0.74856 1.00754 0.0
C2397 C 0.7042 0.7029 0.01528 0.0
C2398 C 0.71135 0.75689 1.00041 0.0
C2399 C 0.73699 0.738 1.00055 0.0
H2400 H 0.75622 0.05645 0.85472 0.0
H2401 H 0.75928 0.1065 0.82703 0.0
H2402 H 0.68146 0.07315 0.82709 0.0
H2403 H 0.61121 0.02763 0.83482 0.0
H2404 H 0.6088 0.98075 0.86286 0.0
H2405 H 0.68641 0.0147 0.86282 0.0
C2406 C 0.73986 0.06022 0.84872 0.0
C2407 C 0.76395 0.08387 0.84086 0.0
C2408 C 0.69466 0.04128 0.84883 0.0
C2409 C 0.74192 0.08854 0.83319 0.0
C2410 C 0.69716 0.06932 0.8332 0.0
C2411 C 0.62761 0.025 0.84094 0.0
C2412 C 0.60347 1.00131 0.84881 0.0
C2413 C 0.67298 0.04528 0.84095 0.0
C2414 C 0.6259 0.99871 0.85668 0.0
C2415 C 0.67063 0.01811 0.85667 0.0
H2416 H 0.96732 0.70032 0.85431 0.0
H2417 H 0.9345 0.66263 0.82533 0.0
H2418 H 0.96568 0.61699 0.8263 0.0
H2419 H 1.00587 0.59001 0.83492 0.0
H2420 H 0.04062 0.62724 0.86384 0.0
H2421 H 1.00542 0.66988 0.86333 0.0
C2422 C 0.96661 0.68171 0.84827 0.0
C2423 C 0.94853 0.68524 0.83975 0.0
C2424 C 0.98535 0.65532 0.84881 0.0
C2425 C 0.94824 0.66094 0.83198 0.0
C2426 C 0.96618 0.63466 0.8325 0.0
C2427 C 1.00549 0.60706 0.84116 0.0
C2428 C 0.02617 0.60515 0.84939 0.0
C2429 C 0.9854 0.63197 0.84082 0.0
C2430 C 0.02514 0.62785 0.85737 0.0
C2431 C 1.00498 0.65247 0.85709 0.0
H2432 H 0.31874 0.27167 0.8523 0.0
H2433 H 0.35873 0.27723 0.82348 0.0
H2434 H 0.40447 0.3542 0.82457 0.0
H2435 H 0.43169 0.42094 0.83331 0.0
H2436 H 0.39199 0.41822 0.86204 0.0
H2437 H 0.34843 0.34019 0.86138 0.0
C2438 C 0.33776 0.28976 0.84631 0.0
C2439 C 0.33506 0.26826 0.83781 0.0
C2440 C 0.36422 0.33495 0.84693 0.0
C2441 C 0.35986 0.29254 0.8301 0.0
C2442 C 0.3862 0.33683 0.83071 0.0
C2443 C 0.41386 0.40349 0.83949 0.0
C2444 C 0.4155 0.42606 0.84771 0.0
C2445 C 0.38841 0.35852 0.83904 0.0
C2446 C 0.39169 0.4022 0.85559 0.0
C2447 C 0.36655 0.35732 0.85521 0.0
H2448 H 0.68314 0.94665 1.0019 0.0
H2449 H 0.65714 0.91348 0.03127 0.0
H2450 H 0.68609 0.98832 0.03534 0.0
H2451 H 0.71795 0.06389 0.0307 0.0
H2452 H 0.75038 0.09917 1.00168 0.0
H2453 H 0.72017 0.02382 0.99737 0.0
C2454 C 0.68406 0.95584 1.00919 0.0
C2455 C 0.66775 0.92393 0.01624 0.0
C2456 C 0.7019 0.9997 1.01157 0.0
C2457 C 0.66958 0.93689 0.02566 0.0
C2458 C 0.68602 0.97991 0.02802 0.0
C2459 C 0.71842 0.0551 0.02343 0.0
C2460 C 0.73623 0.08737 0.01652 0.0
C2461 C 0.70209 0.01165 0.02105 0.0
C2462 C 0.73703 0.07523 1.00715 0.0
C2463 C 0.71961 0.03197 1.00468 0.0
H2464 H 0.96762 0.69877 0.03148 0.0
H2465 H 0.9348 0.63463 1.0047 0.0
H2466 H 1.01035 0.67493 0.99985 0.0
H2467 H 0.08725 0.72607 1.00375 0.0
H2468 H 0.11645 0.79133 0.03054 0.0
H2469 H 0.04149 0.7535 0.03473 0.0
C2470 C 0.97692 0.69382 0.02454 0.0
C2471 C 0.94569 0.66352 0.0185 0.0
C2472 C 0.02015 0.7174 0.02179 0.0
C2473 C 0.95824 0.6578 1.0095 0.0
C2474 C 1.00152 0.68079 1.00674 0.0
C2475 C 0.07715 0.73244 1.01044 0.0
C2476 C 0.10822 0.76139 0.01683 0.0
C2477 C 0.03305 0.71042 1.01288 0.0
C2478 C 0.09399 0.76905 0.02546 0.0
C2479 C 0.0508 0.74733 0.02792 0.0
H2480 H 0.31335 0.37883 1.00332 0.0
H2481 H 0.22783 0.31262 0.02643 0.0
H2482 H 0.26155 0.26975 0.02877 0.0
H2483 H 0.31813 0.2533 0.02502 0.0
H2484 H 0.40487 0.31916 1.00215 0.0
H2485 H 0.36806 0.35915 0.99896 0.0
C2486 C 0.30172 0.35462 1.00878 0.0
C2487 C 0.26805 0.34943 0.01471 0.0
C2488 C 0.3218 0.32995 1.0102 0.0
C2489 C 0.2538 0.3179 0.02178 0.0
C2490 C 0.27312 0.29317 0.02315 0.0
C2491 C 0.32877 0.27613 0.01928 0.0
C2492 C 0.36443 0.28328 0.01388 0.0
C2493 C 0.30762 0.29934 0.01753 0.0
C2494 C 0.37763 0.31303 1.00646 0.0
C2495 C 0.35658 0.33602 1.00463 0.0
H2496 H 0.09056 0.37933 0.50436 0.0
H2497 H 0.11683 0.31601 0.52691 0.0
H2498 H 0.04068 0.27354 0.53043 0.0
H2499 H 0.96613 0.25574 0.52764 0.0
H2500 H 0.93921 0.32058 0.50559 0.0
H2501 H 1.01521 0.36043 0.50137 0.0
C2502 C 0.07962 0.35592 0.50997 0.0
C2503 C 0.10992 0.35113 0.51533 0.0
C2504 C 0.03528 0.33178 0.51212 0.0
C2505 C 0.09471 0.32079 0.52266 0.0
C2506 C 0.05093 0.29633 0.5247 0.0
C2507 C 0.97682 0.27839 0.52187 0.0
C2508 C 0.94673 0.28503 0.51695 0.0
C2509 C 0.02087 0.30179 0.51956 0.0
C2510 C 0.96146 0.31476 0.50952 0.0
C2511 C 1.00507 0.33765 0.5071 0.0
H2512 H 0.65332 0.7182 0.5049 0.0
H2513 H 0.7071 0.79464 0.52986 0.0
H2514 H 0.74808 0.75906 0.53291 0.0
H2515 H 0.76733 0.70417 0.52886 0.0
H2516 H 0.71262 0.62688 0.5041 0.0
H2517 H 0.67396 0.66467 0.50063 0.0
C2518 C 0.67425 0.72742 0.51097 0.0
C2519 C 0.67683 0.75939 0.51711 0.0
C2520 C 0.69769 0.70637 0.51277 0.0
C2521 C 0.70414 0.77034 0.52497 0.0
C2522 C 0.72771 0.74988 0.52675 0.0
C2523 C 0.74715 0.69577 0.52268 0.0
C2524 C 0.74295 0.66249 0.51677 0.0
C2525 C 0.72453 0.71755 0.52075 0.0
C2526 C 0.71649 0.65215 0.5088 0.0
C2527 C 0.69427 0.67381 0.50681 0.0
H2528 H 0.25903 0.92828 0.52603 0.0
H2529 H 0.31009 0.92849 0.4986 0.0
H2530 H 0.35425 1.00641 0.49911 0.0
H2531 H 0.38139 0.07545 0.50776 0.0
H2532 H 0.33143 0.07289 0.53547 0.0
H2533 H 0.28422 0.99598 0.53438 0.0
C2534 C 0.27948 0.94525 0.52011 0.0
C2535 C 0.28091 0.92206 0.51229 0.0
C2536 C 0.3054 0.99021 0.5205 0.0
C2537 C 0.30811 0.94511 0.50474 0.0
C2538 C 0.33353 0.9899 0.50502 0.0
C2539 C 0.35979 0.05803 0.5135 0.0
C2540 C 0.36006 0.08022 0.52169 0.0
C2541 C 0.33288 0.01296 0.51292 0.0
C2542 C 0.33211 0.05689 0.52909 0.0
C2543 C 0.30499 0.0127 0.52848 0.0
H2544 H 0.03947 0.41921 0.35908 0.0
H2545 H 1.00252 0.44253 0.33179 0.0
H2546 H 0.96803 0.36702 0.32811 0.0
H2547 H 0.9513 0.29442 0.33205 0.0
H2548 H 0.98397 0.26799 0.35938 0.0
H2549 H 0.01673 0.34394 0.3636 0.0
C2550 C 0.02342 0.40772 0.35238 0.0
C2551 C 0.02419 0.4372 0.34573 0.0
C2552 C 1.003 0.36345 0.35025 0.0
C2553 C 1.00294 0.42122 0.33709 0.0
C2554 C 0.98313 0.37777 0.33492 0.0
C2555 C 0.96534 0.3052 0.33896 0.0
C2556 C 0.96547 0.27559 0.34536 0.0
C2557 C 0.98353 0.34869 0.34136 0.0
C2558 C 0.98345 0.29009 0.35432 0.0
C2559 C 1.00229 0.3336 0.35672 0.0
H2560 H 0.73801 0.64561 0.33363 0.0
H2561 H 0.75745 0.73047 0.35677 0.0
H2562 H 0.68065 0.69095 0.36023 0.0
H2563 H 0.60689 0.63409 0.35617 0.0
H2564 H 0.58825 0.55062 0.33274 0.0
H2565 H 0.66519 0.58734 0.33 0.0
C2566 C 0.7255 0.65532 0.33947 0.0
C2567 C 0.75359 0.69118 0.34489 0.0
C2568 C 0.68113 0.63259 0.34138 0.0
C2569 C 0.73666 0.70316 0.35244 0.0
C2570 C 0.69264 0.68052 0.35443 0.0
C2571 C 0.61967 0.62355 0.35054 0.0
C2572 C 0.59138 0.58944 0.34468 0.0
C2573 C 0.66438 0.6454 0.34888 0.0
C2574 C 0.60887 0.5767 0.33737 0.0
C2575 C 0.65306 0.5978 0.33577 0.0
H2576 H 0.3238 0.04665 0.35397 0.0
H2577 H 0.36168 0.0813 0.32504 0.0
H2578 H 0.4104 0.05369 0.32608 0.0
H2579 H 0.44011 0.01653 0.3347 0.0
H2580 H 0.4022 0.9782 0.36346 0.0
H2581 H 0.35645 1.01029 0.36299 0.0
C2582 C 0.34308 0.04848 0.34795 0.0
C2583 C 0.33883 0.06614 0.33943 0.0
C2584 C 0.37111 0.03159 0.34853 0.0
C2585 C 0.36394 0.06786 0.33168 0.0
C2586 C 0.39198 0.05201 0.33225 0.0
C2587 C 0.42225 0.01535 0.34093 0.0
C2588 C 0.42497 0.99474 0.3491 0.0
C2589 C 0.39548 0.03329 0.34057 0.0
C2590 C 0.40108 0.99377 0.35705 0.0
C2591 C 0.37468 0.0121 0.35678 0.0
H2592 H 0.16655 0.40562 0.08644 0.0
H2593 H 0.20427 0.3141 0.07855 0.0
H2594 H 0.20016 0.29253 0.09497 0.0
H2595 H 0.18389 0.29809 0.11157 0.0
H2596 H 0.14549 0.38922 0.11937 0.0
H2597 H 0.15315 0.41321 0.1031 0.0
C2598 C 0.17454 0.38142 0.08831 0.0
C2599 C 0.18547 0.36142 0.0812 0.0
C2600 C 0.17216 0.36911 0.0978 0.0
C2601 C 0.19508 0.32964 0.08381 0.0
C2602 C 0.19295 0.31739 0.09323 0.0
C2603 C 0.17713 0.32317 0.10972 0.0
C2604 C 0.16414 0.34173 0.11677 0.0
C2605 C 0.18104 0.33654 0.10028 0.0
C2606 C 0.15617 0.37467 0.1142 0.0
C2607 C 0.16018 0.38823 0.10484 0.0
H2608 H 0.70227 0.79196 0.07984 0.0
H2609 H 0.62264 0.84928 0.08141 0.0
H2610 H 0.63588 0.86018 0.09829 0.0
H2611 H 0.66987 0.85322 0.11279 0.0
H2612 H 0.75064 0.79728 0.11102 0.0
H2613 H 0.73792 0.78715 0.09412 0.0
C2614 C 0.68825 0.80745 0.08381 0.0
C2615 C 0.66124 0.81952 0.07924 0.0
C2616 C 0.69632 0.81406 0.09356 0.0
C2617 C 0.64294 0.83888 0.08466 0.0
C2618 C 0.65071 0.8454 0.09436 0.0
C2619 C 0.68461 0.83871 0.10872 0.0
C2620 C 0.71141 0.82627 0.11325 0.0
C2621 C 0.67714 0.83289 0.09891 0.0
C2622 C 0.73044 0.80785 0.10777 0.0
C2623 C 0.72296 0.80176 0.09808 0.0
H2624 H 0.16744 0.89135 0.11094 0.0
H2625 H 0.23613 0.82685 0.11861 0.0
H2626 H 0.24275 0.8133 0.10205 0.0
H2627 H 0.23299 0.82358 0.08535 0.0
H2628 H 0.16331 0.88701 0.07764 0.0
H2629 H 0.15293 0.89684 0.09423 0.0
C2630 C 0.1832 0.87367 0.10901 0.0
C2631 C 0.20157 0.86051 0.11605 0.0
C2632 C 0.187 0.86601 0.09945 0.0
C2633 C 0.22234 0.83806 0.11336 0.0
C2634 C 0.22599 0.83011 0.10388 0.0
C2635 C 0.2148 0.83882 0.08728 0.0
C2636 C 0.19921 0.85473 0.08021 0.0
C2637 C 0.20903 0.84451 0.09685 0.0
C2638 C 0.17627 0.875 0.0829 0.0
C2639 C 0.17018 0.88052 0.0924 0.0
H2640 H 0.31138 0.14199 0.44768 0.0
H2641 H 0.44874 0.21135 0.4445 0.0
H2642 H 0.44101 0.21024 0.42744 0.0
H2643 H 0.39547 0.18692 0.4133 0.0
H2644 H 0.25815 0.11505 0.41648 0.0
H2645 H 0.26582 0.12008 0.43354 0.0
C2646 C 0.33969 0.15679 0.44327 0.0
C2647 C 0.38062 0.17671 0.44747 0.0
C2648 C 0.33508 0.15561 0.4334 0.0
C2649 C 0.41679 0.19629 0.44156 0.0
C2650 C 0.41243 0.19538 0.43176 0.0
C2651 C 0.36715 0.17222 0.4177 0.0
C2652 C 0.32625 0.15061 0.4135 0.0
C2653 C 0.37175 0.17472 0.42758 0.0
C2654 C 0.29006 0.13246 0.41942 0.0
C2655 C 0.2944 0.13499 0.42922 0.0
H2656 H 0.83367 0.20207 0.41531 0.0
H2657 H 0.90726 0.13957 0.41969 0.0
H2658 H 0.89884 0.14177 0.43667 0.0
H2659 H 0.87404 0.16501 0.45038 0.0
H2660 H 0.80243 0.22958 0.44599 0.0
H2661 H 0.80645 0.22277 0.429 0.0
C2662 C 0.84787 0.18892 0.41997 0.0
C2663 C 0.87116 0.17077 0.41617 0.0
C2664 C 0.84333 0.19071 0.42978 0.0
C2665 C 0.88872 0.15328 0.42236 0.0
C2666 C 0.88422 0.15482 0.4321 0.0
C2667 C 0.85929 0.17759 0.44571 0.0
C2668 C 0.83802 0.19785 0.44952 0.0
C2669 C 0.86212 0.174 0.4359 0.0
C2670 C 0.81854 0.21334 0.44332 0.0
C2671 C 0.82112 0.20977 0.43357 0.0
H2672 H 0.90132 0.70172 0.41649 0.0
H2673 H 0.77163 0.67582 0.41336 0.0
H2674 H 0.75965 0.66268 0.43018 0.0
H2675 H 0.78563 0.659 0.44583 0.0
H2676 H 0.91476 0.68416 0.44931 0.0
H2677 H 0.9273 0.69705 0.43236 0.0
C2678 C 0.87049 0.69324 0.4195 0.0
C2679 C 0.83735 0.68946 0.41362 0.0
C2680 C 0.86371 0.68569 0.42926 0.0
C2681 C 0.79749 0.67819 0.41766 0.0
C2682 C 0.79066 0.67097 0.42731 0.0
C2683 C 0.8167 0.66774 0.4429 0.0
C2684 C 0.84935 0.67107 0.44885 0.0
C2685 C 0.82351 0.67475 0.43318 0.0
C2686 C 0.88906 0.68136 0.44489 0.0
C2687 C 0.89626 0.68883 0.4352 0.0
H2688 H 0.84029 0.63674 0.91391 0.0
H2689 H 0.91683 0.77362 0.91696 0.0
H2690 H 0.91009 0.76643 0.93403 0.0
H2691 H 0.88502 0.7212 0.94822 0.0
H2692 H 0.81047 0.58418 0.94515 0.0
H2693 H 0.81375 0.59166 0.92808 0.0
C2694 C 0.85563 0.66504 0.9183 0.0
C2695 C 0.87911 0.70568 0.91407 0.0
C2696 C 0.85198 0.6607 0.92817 0.0
C2697 C 0.89809 0.74194 0.91993 0.0
C2698 C 0.89453 0.73786 0.92974 0.0
C2699 C 0.86953 0.69292 0.94383 0.0
C2700 C 0.84749 0.65216 0.94805 0.0
C2701 C 0.87193 0.69738 0.93395 0.0
C2702 C 0.82713 0.61602 0.94217 0.0
C2703 C 0.82928 0.62023 0.93237 0.0
H2704 H 0.28077 0.15236 0.91546 0.0
H2705 H 0.41262 0.22931 0.90687 0.0
H2706 H 0.4353 0.23958 0.92331 0.0
H2707 H 0.41743 0.23022 0.94016 0.0
H2708 H 0.28566 0.1524 0.94874 0.0
H2709 H 0.26339 0.13881 0.93229 0.0
C2710 C 0.31454 0.17074 0.91716 0.0
C2711 C 0.34486 0.19022 0.9099 0.0
C2712 C 0.32742 0.17665 0.92665 0.0
C2713 C 0.38847 0.21446 0.91229 0.0
C2714 C 0.40152 0.22024 0.9217 0.0
C2715 C 0.38391 0.20966 0.93845 0.0
C2716 C 0.3533 0.19264 0.94572 0.0
C2717 C 0.37124 0.20201 0.92895 0.0
C2718 C 0.30991 0.16653 0.94332 0.0
C2719 C 0.29712 0.15858 0.9339 0.0
H2720 H 0.77724 0.14771 0.91262 0.0
H2721 H 0.91162 0.1895 0.91527 0.0
H2722 H 0.90803 0.19935 0.93216 0.0
H2723 H 0.86625 0.19408 0.94632 0.0
H2724 H 0.73221 0.15327 0.94355 0.0
H2725 H 0.7366 0.14642 0.92657 0.0
C2726 C 0.80601 0.15975 0.91683 0.0
C2727 C 0.84459 0.16753 0.91262 0.0
C2728 C 0.80384 0.16567 0.92656 0.0
C2729 C 0.88127 0.18246 0.9183 0.0
C2730 C 0.87933 0.18835 0.92798 0.0
C2731 C 0.83801 0.1837 0.942 0.0
C2732 C 0.79894 0.17415 0.94624 0.0
C2733 C 0.84066 0.17955 0.93221 0.0
C2734 C 0.76281 0.16131 0.9405 0.0
C2735 C 0.76521 0.15708 0.93077 0.0
H2736 H 0.69631 0.83187 0.58139 0.0
H2737 H 0.60002 0.86762 0.58532 0.0
H2738 H 0.61406 0.87523 0.60219 0.0
H2739 H 0.65575 0.87499 0.61578 0.0
H2740 H 0.75128 0.838 0.61204 0.0
H2741 H 0.73591 0.82834 0.59521 0.0
C2742 C 0.67845 0.84136 0.58594 0.0
C2743 C 0.64706 0.84905 0.58205 0.0
C2744 C 0.68672 0.84576 0.5957 0.0
C2745 C 0.62394 0.86092 0.5881 0.0
C2746 C 0.63213 0.86555 0.59776 0.0
C2747 C 0.67275 0.86406 0.61134 0.0
C2748 C 0.70484 0.85748 0.61525 0.0
C2749 C 0.66359 0.85829 0.60164 0.0
C2750 C 0.7269 0.84403 0.60927 0.0
C2751 C 0.718 0.83829 0.59962 0.0
H2752 H 0.20429 0.8 0.58348 0.0
H2753 H 0.14301 0.8723 0.57625 0.0
H2754 H 0.13792 0.88593 0.59287 0.0
H2755 H 0.14764 0.87458 0.60953 0.0
H2756 H 0.21069 0.80401 0.6168 0.0
H2757 H 0.2184 0.79278 0.60014 0.0
C2758 C 0.19044 0.81934 0.58551 0.0
C2759 C 0.17377 0.83474 0.57854 0.0
C2760 C 0.18765 0.82721 0.59513 0.0
C2761 C 0.15544 0.85929 0.5814 0.0
C2762 C 0.15269 0.86733 0.59093 0.0
C2763 C 0.16378 0.85738 0.6075 0.0
C2764 C 0.1783 0.84 0.6145 0.0
C2765 C 0.16821 0.85103 0.59787 0.0
C2766 C 0.19851 0.81722 0.61163 0.0
C2767 C 0.20313 0.81091 0.60208 0.0
H2768 H 0.18231 0.31663 0.57952 0.0
H2769 H 0.25691 0.45344 0.5829 0.0
H2770 H 0.24774 0.44549 0.59994 0.0
H2771 H 0.22171 0.39953 0.61399 0.0
H2772 H 0.14896 0.2626 0.61058 0.0
H2773 H 0.15401 0.27085 0.59353 0.0
C2774 C 0.19661 0.34473 0.58398 0.0
C2775 C 0.22042 0.38557 0.57989 0.0
C2776 C 0.19156 0.33993 0.59381 0.0
C2777 C 0.23806 0.42162 0.58581 0.0
C2778 C 0.23308 0.4171 0.59558 0.0
C2779 C 0.20694 0.37147 0.60952 0.0
C2780 C 0.18502 0.33049 0.61362 0.0
C2781 C 0.21038 0.37639 0.59967 0.0
C2782 C 0.16555 0.29457 0.60767 0.0
C2783 C 0.16872 0.29923 0.59789 0.0
H2784 H 0.04963 0.54108 0.74822 0.0
H2785 H 0.93228 0.42169 0.75247 0.0
H2786 H 0.94564 0.42645 0.76936 0.0
H2787 H 0.99217 0.46263 0.78295 0.0
H2788 H 0.1092 0.58247 0.77877 0.0
H2789 H 0.09474 0.57889 0.76194 0.0
C2790 C 0.02698 0.51606 0.75283 0.0
C2791 C 0.98989 0.48111 0.74899 0.0
C2792 C 0.03496 0.51883 0.76261 0.0
C2793 C 0.96077 0.44931 0.75516 0.0
C2794 C 0.96854 0.45183 0.76486 0.0
C2795 C 1.01427 0.48836 0.7784 0.0
C2796 C 0.05198 0.52262 0.78222 0.0
C2797 C 1.00566 0.48628 0.76867 0.0
C2798 C 0.08033 0.55525 0.7761 0.0
C2799 C 0.07198 0.55337 0.76643 0.0
H2800 H 0.53375 0.46742 0.75023 0.0
H2801 H 0.52701 0.57916 0.74243 0.0
H2802 H 0.51599 0.59069 0.75885 0.0
H2803 H 0.51305 0.57206 0.77557 0.0
H2804 H 0.52127 0.46129 0.78346 0.0
H2805 H 0.52776 0.44701 0.76692 0.0
C2806 C 0.52992 0.49434 0.75211 0.0
C2807 C 0.53129 0.52235 0.74504 0.0
C2808 C 0.52428 0.50129 0.76162 0.0
C2809 C 0.52553 0.55665 0.74765 0.0
C2810 C 0.51958 0.56354 0.75707 0.0
C2811 C 0.51557 0.54439 0.77368 0.0
C2812 C 0.51686 0.51794 0.78079 0.0
C2813 C 0.51944 0.5364 0.76413 0.0
C2814 C 0.52079 0.48257 0.77816 0.0
C2815 C 0.52434 0.47427 0.76869 0.0
H2816 H 0.53706 0.07831 0.75179 0.0
H2817 H 0.48588 0.94693 0.7434 0.0
H2818 H 0.47701 0.92514 0.75987 0.0
H2819 H 0.48097 0.94275 0.77673 0.0
H2820 H 0.53431 0.07446 0.78511 0.0
H2821 H 0.54519 0.09644 0.76865 0.0
C2822 C 0.5246 0.04497 0.75353 0.0
C2823 C 0.51195 0.0144 0.74626 0.0
C2824 C 0.51966 0.03253 0.76308 0.0
C2825 C 0.49525 0.97124 0.74877 0.0
C2826 C 0.49035 0.9587 0.75822 0.0
C2827 C 0.49563 0.97637 0.77499 0.0
C2828 C 0.50643 1.00674 0.78225 0.0
C2829 C 0.50202 0.98898 0.76545 0.0
C2830 C 0.52486 0.05011 0.77974 0.0
C2831 C 0.53135 0.06283 0.7703 0.0
H2832 H 0.49452 0.96462 0.24551 0.0
H2833 H 0.55664 0.10171 0.24829 0.0
H2834 H 0.55404 0.09506 0.26537 0.0
H2835 H 0.5369 0.05075 0.27963 0.0
H2836 H 0.47716 0.91386 0.27687 0.0
H2837 H 0.47604 0.92016 0.2598 0.0
C2838 C 0.5076 0.99311 0.24983 0.0
C2839 C 0.52569 0.03364 0.24551 0.0
C2840 C 0.50651 0.98915 0.25973 0.0
C2841 C 0.54186 0.07001 0.25132 0.0
C2842 C 0.54075 0.06629 0.26114 0.0
C2843 C 0.52373 0.02224 0.27531 0.0
C2844 C 0.50714 0.98186 0.27963 0.0
C2845 C 0.52356 0.02608 0.26543 0.0
C2846 C 0.48962 0.94535 0.27384 0.0
C2847 C 0.48926 0.94893 0.26403 0.0
H2848 H 0.04091 0.48516 0.27834 0.0
H2849 H 0.99259 0.57104 0.28321 0.0
H2850 H 0.97377 0.56733 0.26667 0.0
H2851 H 0.97316 0.54204 0.25072 0.0
H2852 H 0.021 0.45627 0.24546 0.0
H2853 H 0.03778 0.45745 0.26222 0.0
C2854 C 0.02617 0.50294 0.27576 0.0
C2855 C 0.01799 0.52816 0.28204 0.0
C2856 C 1.01552 0.50085 0.26617 0.0
C2857 C 0.99858 0.55078 0.2786 0.0
C2858 C 0.98811 0.54899 0.26911 0.0
C2859 C 0.98748 0.52377 0.25323 0.0
C2860 C 0.99638 0.49957 0.24685 0.0
C2861 C 0.9968 0.52451 0.26283 0.0
C2862 C 1.01393 0.4752 0.25024 0.0
C2863 C 0.02362 0.47599 0.25981 0.0
H2864 H 0.52394 0.55512 0.24389 0.0
H2865 H 0.52046 0.43485 0.24691 0.0
H2866 H 0.51275 0.43733 0.26392 0.0
H2867 H 0.50329 0.47163 0.27789 0.0
H2868 H 0.50932 0.59329 0.27505 0.0
H2869 H 0.51916 0.59191 0.2581 0.0
C2870 C 0.52159 0.52953 0.24828 0.0
C2871 C 0.52285 0.49489 0.24409 0.0
C2872 C 0.51728 0.53119 0.25812 0.0
C2873 C 0.52012 0.46217 0.24992 0.0
C2874 C 0.51545 0.46342 0.25967 0.0
C2875 C 0.50755 0.49831 0.27363 0.0
C2876 C 0.50509 0.53231 0.27784 0.0
C2877 C 0.51367 0.4976 0.26385 0.0
C2878 C 0.51012 0.56618 0.27206 0.0
C2879 C 0.516 0.56558 0.26233 0.0
H2880 H 0.95543 0.11331 0.27644 0.0
H2881 H 0.03328 0.24147 0.2871 0.0
H2882 H 0.06748 0.26509 0.27174 0.0
H2883 H 0.07635 0.24932 0.25527 0.0
H2884 H 0.99964 0.12065 0.24481 0.0
H2885 H 0.96435 0.09752 0.26005 0.0
C2886 C 0.98014 0.14636 0.27546 0.0
C2887 C 0.99161 0.17543 0.283 0.0
C2888 C 1.00001 0.15978 0.26659 0.0
C2889 C 0.02323 0.21833 0.28145 0.0
C2890 C 0.0431 0.23188 0.27266 0.0
C2891 C 0.05208 0.21616 0.25633 0.0
C2892 C 0.04072 0.18691 0.24882 0.0
C2893 C 0.03189 0.20288 0.26518 0.0
C2894 C 1.00871 0.14415 0.25035 0.0
C2895 C 0.98863 0.13076 0.25911 0.0
H2896 H 0.80061 0.7975 0.27954 0.0
H2897 H 0.93525 0.89152 0.27979 0.0
H2898 H 0.93014 0.91269 0.26379 0.0
H2899 H 0.88799 0.90456 0.24958 0.0
H2900 H 0.75319 0.81119 0.24923 0.0
H2901 H 0.75822 0.78928 0.26521 0.0
C2902 C 0.82891 0.82246 0.27609 0.0
C2903 C 0.86821 0.84305 0.281 0.0
C2904 C 0.82586 0.83454 0.26678 0.0
C2905 C 0.90436 0.87557 0.27634 0.0
C2906 C 0.90157 0.88756 0.26713 0.0
C2907 C 0.85952 0.87967 0.253 0.0
C2908 C 0.82024 0.85969 0.2481 0.0
C2909 C 0.8625 0.86741 0.26227 0.0
C2910 C 0.78405 0.82689 0.25269 0.0
C2911 C 0.78681 0.81448 0.26189 0.0
H2912 H 0.17742 0.07534 0.27343 0.0
H2913 H 0.20099 0.979 0.28511 0.0
H2914 H 0.18594 0.94329 0.26986 0.0
H2915 H 0.16391 0.93784 0.2532 0.0
H2916 H 0.13968 0.03398 0.24166 0.0
H2917 H 0.15617 0.07035 0.25682 0.0
C2918 C 0.17895 0.04633 0.2727 0.0
C2919 C 0.19046 0.03017 0.28053 0.0
C2920 C 0.1698 0.02552 0.26388 0.0
C2921 C 0.19291 0.99283 0.27927 0.0
C2922 C 0.18397 0.97208 0.27052 0.0
C2923 C 0.16259 0.96696 0.25396 0.0
C2924 C 0.15014 0.98273 0.24621 0.0
C2925 C 0.17225 0.98801 0.26277 0.0
C2926 C 0.14833 0.02041 0.24746 0.0
C2927 C 0.15804 0.0415 0.25615 0.0
H2928 H 0.95042 0.76701 0.77534 0.0
H2929 H 1.00131 0.90057 0.78162 0.0
H2930 H 0.03253 0.91984 0.76593 0.0
H2931 H 0.04639 0.89932 0.75043 0.0
H2932 H 0.99504 0.76594 0.74391 0.0
H2933 H 0.96342 0.74633 0.75961 0.0
C2934 C 0.96808 0.80032 0.77326 0.0
C2935 C 0.97362 0.83222 0.77976 0.0
C2936 C 0.98613 0.81135 0.76415 0.0
C2937 C 0.99704 0.87526 0.7769 0.0
C2938 C 1.01476 0.88637 0.76787 0.0
C2939 C 0.02787 0.86589 0.75238 0.0
C2940 C 0.02322 0.83426 0.7459 0.0
C2941 C 1.00964 0.85475 0.76144 0.0
C2942 C 0.99971 0.79114 0.74871 0.0
C2943 C 0.98135 0.77983 0.7577 0.0
H2944 H 0.23324 0.21856 0.74697 0.0
H2945 H 0.09898 0.12335 0.74692 0.0
H2946 H 0.10508 0.10197 0.76283 0.0
H2947 H 0.14803 0.11034 0.7769 0.0
H2948 H 0.28242 0.20502 0.77706 0.0
H2949 H 0.27643 0.227 0.76116 0.0
C2950 C 0.20525 0.19329 0.75045 0.0
C2951 C 0.16577 0.17242 0.74564 0.0
C2952 C 0.20889 0.18112 0.7597 0.0
C2953 C 0.12999 0.13951 0.75031 0.0
C2954 C 0.13335 0.1274 0.75947 0.0
C2955 C 0.17618 0.13553 0.77344 0.0
C2956 C 0.21564 0.15588 0.77826 0.0
C2957 C 0.17263 0.14785 0.76423 0.0
C2958 C 0.25146 0.18904 0.77365 0.0
C2959 C 0.24814 0.2015 0.7645 0.0
H2960 H 0.85143 0.07469 0.77586 0.0
H2961 H 0.87303 0.97482 0.78611 0.0
H2962 H 0.85654 0.94155 0.77061 0.0
H2963 H 0.83691 0.94091 0.75407 0.0
H2964 H 0.81522 0.04038 0.74364 0.0
H2965 H 0.82975 0.0729 0.75928 0.0
C2966 C 0.85206 0.04538 0.77474 0.0
C2967 C 0.8639 0.02763 0.78219 0.0
C2968 C 0.84241 0.02618 0.76575 0.0
C2969 C 0.86485 0.98977 0.78052 0.0
C2970 C 0.85518 0.97051 0.77164 0.0
C2971 C 0.83567 0.96991 0.75518 0.0
C2972 C 0.82519 0.9882 0.74762 0.0
C2973 C 0.84432 0.98862 0.76418 0.0
C2974 C 0.82285 0.0253 0.7493 0.0
C2975 C 0.8314 0.04409 0.75825 0.0
H2976 H 0.61109 0.50429 0.60763 0.0
H2977 H 0.69763 0.46292 0.61732 0.0
H2978 H 0.73126 0.47747 0.60185 0.0
H2979 H 0.73623 0.50148 0.58551 0.0
H2980 H 0.6498 0.54258 0.57563 0.0
H2981 H 0.61691 0.52955 0.59121 0.0
C2982 C 0.63756 0.49882 0.60639 0.0
C2983 C 0.65141 0.48211 0.61368 0.0
C2984 C 0.65698 0.50734 0.59741 0.0
C2985 C 0.68562 0.47497 0.61185 0.0
C2986 C 0.70512 0.48352 0.603 0.0
C2987 C 0.70994 0.50726 0.58671 0.0
C2988 C 0.69556 0.52289 0.57932 0.0
C2989 C 0.6909 0.4994 0.5957 0.0
C2990 C 0.66197 0.53097 0.58115 0.0
C2991 C 0.64291 0.52328 0.59008 0.0
H2992 H 0.51704 0.12159 0.60838 0.0
H2993 H 0.53844 0.2404 0.62031 0.0
H2994 H 0.52519 0.26213 0.60503 0.0
H2995 H 0.50763 0.24794 0.58819 0.0
H2996 H 0.48642 0.12931 0.57619 0.0
H2997 H 0.49829 0.10688 0.59154 0.0
C2998 C 0.51835 0.15205 0.60769 0.0
C2999 C 0.52911 0.17929 0.61559 0.0
C3000 C 0.51049 0.16448 0.59881 0.0
C3001 C 0.53106 0.2189 0.61441 0.0
C3002 C 0.5232 0.23134 0.60564 0.0
C3003 C 0.50589 0.21728 0.58888 0.0
C3004 C 0.49602 0.1905 0.58092 0.0
C3005 C 0.51314 0.20456 0.59777 0.0
C3006 C 0.49328 0.15055 0.58212 0.0
C3007 C 0.50039 0.13773 0.59093 0.0
H3008 H 0.88174 0.42669 0.60754 0.0
H3009 H 0.85634 0.3112 0.6219 0.0
H3010 H 0.84436 0.27456 0.60684 0.0
H3011 H 0.83885 0.27427 0.58957 0.0
H3012 H 0.8646 0.38983 0.57519 0.0
H3013 H 0.87748 0.42676 0.59023 0.0
C3014 C 0.8733 0.39342 0.6074 0.0
C3015 C 0.87008 0.37197 0.61593 0.0
C3016 C 0.86612 0.37225 0.59867 0.0
C3017 C 0.85972 0.32894 0.61551 0.0
C3018 C 0.85254 0.30776 0.60687 0.0
C3019 C 0.84781 0.30769 0.58968 0.0
C3020 C 0.8505 0.32895 0.58116 0.0
C3021 C 0.85554 0.32902 0.5984 0.0
C3022 C 0.86152 0.37219 0.58157 0.0
C3023 C 0.86919 0.39353 0.5902 0.0
H3024 H 0.75358 0.17032 0.08556 0.0
H3025 H 0.67762 0.22382 0.07561 0.0
H3026 H 0.64244 0.2106 0.09087 0.0
H3027 H 0.63301 0.18421 0.10712 0.0
H3028 H 0.70889 0.131 0.11726 0.0
H3029 H 0.74329 0.14282 0.10188 0.0
C3030 C 0.72905 0.17873 0.08669 0.0
C3031 C 0.71871 0.19844 0.07938 0.0
C3032 C 0.70867 0.17096 0.09556 0.0
C3033 C 0.68699 0.20937 0.08109 0.0
C3034 C 0.66658 0.20159 0.08983 0.0
C3035 C 0.65735 0.17551 0.10602 0.0
C3036 C 0.66823 0.15679 0.11344 0.0
C3037 C 0.67733 0.18269 0.09715 0.0
C3038 C 0.69933 0.14501 0.11173 0.0
C3039 C 0.71929 0.15201 0.10291 0.0
H3040 H 0.86914 0.45962 0.10848 0.0
H3041 H 0.87296 0.56954 0.1213 0.0
H3042 H 0.85917 0.59126 0.10602 0.0
H3043 H 0.84322 0.57759 0.08903 0.0
H3044 H 0.83908 0.46715 0.07639 0.0
H3045 H 0.8549 0.44685 0.09157 0.0
C3046 C 0.86664 0.48818 0.10797 0.0
C3047 C 0.87194 0.5127 0.1161 0.0
C3048 C 0.85833 0.50034 0.09916 0.0
C3049 C 0.86946 0.55014 0.11519 0.0
C3050 C 0.8613 0.56249 0.10644 0.0
C3051 C 0.84624 0.54934 0.08957 0.0
C3052 C 0.83956 0.52383 0.08153 0.0
C3053 C 0.85543 0.53772 0.09838 0.0
C3054 C 0.84325 0.48707 0.08244 0.0
C3055 C 0.85254 0.4755 0.09113 0.0
H3056 H 0.57512 0.4099 0.10496 0.0
H3057 H 0.45078 0.31668 0.11555 0.0
H3058 H 0.43021 0.28446 0.09993 0.0
H3059 H 0.44837 0.28098 0.08329 0.0
H3060 H 0.57287 0.37469 0.07282 0.0
H3061 H 0.59255 0.40763 0.08833 0.0
C3062 C 0.54359 0.38233 0.10389 0.0
C3063 C 0.5147 0.36578 0.11151 0.0
C3064 C 0.53198 0.36372 0.09487 0.0
C3065 C 0.47367 0.33051 0.10986 0.0
C3066 C 0.46192 0.31184 0.10091 0.0
C3067 C 0.47964 0.30891 0.08436 0.0
C3068 C 0.50912 0.32492 0.07682 0.0
C3069 C 0.49087 0.32802 0.09336 0.0
C3070 C 0.54968 0.36097 0.07845 0.0
C3071 C 0.56095 0.38009 0.08734 0.0
H3072 H 0.36029 0.80516 0.91576 0.0
H3073 H 0.40835 0.94064 0.91807 0.0
H3074 H 0.3783 0.93048 0.93389 0.0
H3075 H 0.34028 0.88335 0.9474 0.0
H3076 H 0.29257 0.74793 0.94493 0.0
H3077 H 0.32133 0.75815 0.92904 0.0
C3078 C 0.36454 0.83261 0.91972 0.0
C3079 C 0.38682 0.87368 0.91563 0.0
C3080 C 0.34746 0.82663 0.92889 0.0
C3081 C 0.39104 0.90856 0.9209 0.0
C3082 C 0.37406 0.90282 0.93002 0.0
C3083 C 0.33581 0.85599 0.94337 0.0
C3084 C 0.31453 0.81492 0.9475 0.0
C3085 C 0.35236 0.86201 0.93412 0.0
C3086 C 0.30951 0.78005 0.9421 0.0
C3087 C 0.32573 0.78579 0.93294 0.0
H3088 H 0.18947 0.44723 0.94146 0.0
H3089 H 0.19511 0.55762 0.95451 0.0
H3090 H 0.17776 0.57804 0.93952 0.0
H3091 H 0.16043 0.56473 0.92267 0.0
H3092 H 0.15521 0.4547 0.90953 0.0
H3093 H 0.1717 0.43369 0.92457 0.0
C3094 C 0.18651 0.47554 0.94107 0.0
C3095 C 0.19393 0.50084 0.9492 0.0
C3096 C 0.17629 0.4872 0.93237 0.0
C3097 C 0.19038 0.53775 0.94842 0.0
C3098 C 0.18015 0.5494 0.93983 0.0
C3099 C 0.16327 0.53634 0.92304 0.0
C3100 C 0.15642 0.51146 0.91487 0.0
C3101 C 0.1732 0.5245 0.93174 0.0
C3102 C 0.15959 0.47433 0.91565 0.0
C3103 C 0.16936 0.46236 0.92427 0.0
H3104 H 0.51029 0.61085 0.91957 0.0
H3105 H 0.48566 0.70711 0.90827 0.0
H3106 H 0.50288 0.74345 0.92343 0.0
H3107 H 0.52466 0.74826 0.93997 0.0
H3108 H 0.54905 0.65214 0.95144 0.0
H3109 H 0.53332 0.61639 0.93617 0.0
C3110 C 0.50908 0.64 0.92038 0.0
C3111 C 0.49623 0.65579 0.91271 0.0
C3112 C 0.51919 0.66106 0.92919 0.0
C3113 C 0.49457 0.69352 0.91402 0.0
C3114 C 0.5047 0.71459 0.9227 0.0
C3115 C 0.52623 0.71929 0.93919 0.0
C3116 C 0.53804 0.70311 0.94696 0.0
C3117 C 0.51676 0.69855 0.93037 0.0
C3118 C 0.54061 0.66587 0.94564 0.0
C3119 C 0.53132 0.64514 0.93689 0.0
H3120 H 0.33092 0.54006 0.44346 0.0
H3121 H 0.2837 0.40437 0.443 0.0
H3122 H 0.31002 0.41 0.42694 0.0
H3123 H 0.34518 0.45323 0.41273 0.0
H3124 H 0.39146 0.58875 0.41329 0.0
H3125 H 0.36599 0.58303 0.42939 0.0
C3126 C 0.32596 0.51155 0.43985 0.0
C3127 C 0.30518 0.47181 0.44456 0.0
C3128 C 0.34081 0.51488 0.43052 0.0
C3129 C 0.30002 0.43555 0.43971 0.0
C3130 C 0.31483 0.43867 0.43045 0.0
C3131 C 0.34993 0.48158 0.41638 0.0
C3132 C 0.36999 0.52133 0.41167 0.0
C3133 C 0.33522 0.47816 0.42575 0.0
C3134 C 0.37545 0.55754 0.41658 0.0
C3135 C 0.36112 0.55439 0.42586 0.0
H3136 H 0.46277 0.85964 0.42175 0.0
H3137 H 0.57648 0.86971 0.40934 0.0
H3138 H 0.59887 0.85796 0.42472 0.0
H3139 H 0.58502 0.84202 0.44168 0.0
H3140 H 0.47111 0.83192 0.45401 0.0
H3141 H 0.44977 0.84544 0.43871 0.0
C3142 C 0.49234 0.859 0.42237 0.0
C3143 C 0.51773 0.86554 0.4143 0.0
C3144 C 0.50496 0.85183 0.43126 0.0
C3145 C 0.55638 0.86534 0.41537 0.0
C3146 C 0.56913 0.8583 0.42419 0.0
C3147 C 0.55577 0.84326 0.44107 0.0
C3148 C 0.52968 0.83557 0.44907 0.0
C3149 C 0.5436 0.85128 0.43219 0.0
C3150 C 0.4916 0.83689 0.44802 0.0
C3151 C 0.47941 0.8449 0.43924 0.0
H3152 H 0.2389 0.75571 0.44004 0.0
H3153 H 0.12664 0.64888 0.45216 0.0
H3154 H 0.10414 0.61665 0.4366 0.0
H3155 H 0.11803 0.61686 0.41958 0.0
H3156 H 0.23072 0.72363 0.40756 0.0
H3157 H 0.25163 0.75703 0.42302 0.0
C3158 C 0.2096 0.72525 0.43931 0.0
C3159 C 0.18469 0.70484 0.44734 0.0
C3160 C 0.19702 0.70654 0.43032 0.0
C3161 C 0.14635 0.66573 0.44615 0.0
C3162 C 0.13356 0.64704 0.43723 0.0
C3163 C 0.14688 0.64771 0.42031 0.0
C3164 C 0.17283 0.66741 0.41235 0.0
C3165 C 0.15881 0.66696 0.42927 0.0
C3166 C 0.2104 0.70721 0.41353 0.0
C3167 C 0.22232 0.72653 0.42238 0.0
loop_
_geom_bond_atom_site_label_1
_geom_bond_atom_site_label_2
_geom_bond_distance
_geom_bond_site_symmetry_2
_ccdc_geom_bond_type
Sm0 C2 2.846 . S
Sm0 O20 2.543 . S
Sm0 O21 2.450 . S
Sm0 O22 2.681 . S
Sm0 O23 2.464 . S
Sm0 O24 2.396 . S
Sm0 O28 2.386 . S
Sm0 O31 2.408 . S
Sm1 C11 2.846 . S
Sm1 O22 2.386 . S
Sm1 O25 2.408 . S
Sm1 O26 2.543 . S
Sm1 O27 2.450 . S
Sm1 O28 2.681 . S
Sm1 O29 2.464 . S
Sm1 O30 2.396 . S
C2 Sm0 2.846 . S
C2 C3 1.506 . S
C2 O20 1.261 . S
C2 O21 1.242 . S
C3 C2 1.506 . S
C3 C4 1.358 . S
C3 C8 1.382 . S
C4 C3 1.358 . S
C4 C5 1.385 . S
C4 H32 0.930 . S
C5 C4 1.385 . S
C5 C6 1.395 . S
C5 H33 0.929 . S
C6 C5 1.395 . S
C6 C7 1.335 . S
C7 C6 1.335 . S
C7 C8 1.398 . S
C7 H34 0.930 . S
C8 C3 1.382 . S
C8 C7 1.398 . S
C8 H35 0.929 . S
C9 O22 1.271 . S
C9 O23 1.251 . S
C10 O24 1.252 . S
C10 O25 1.272 . S
C11 Sm1 2.846 . S
C11 C12 1.506 . S
C11 O26 1.261 . S
C11 O27 1.242 . S
C12 C11 1.506 . S
C12 C13 1.358 . S
C12 C17 1.382 . S
C13 C12 1.358 . S
C13 C14 1.385 . S
C13 H36 0.930 . S
C14 C13 1.385 . S
C14 C15 1.395 . S
C14 H37 0.929 . S
C15 C14 1.395 . S
C15 C16 1.335 . S
C16 C15 1.335 . S
C16 C17 1.398 . S
C16 H38 0.930 . S
C17 C12 1.382 . S
C17 C16 1.398 . S
C17 H39 0.929 . S
C18 O28 1.271 . S
C18 O29 1.251 . S
C19 O30 1.252 . S
C19 O31 1.272 . S
O20 Sm0 2.543 . S
O20 C2 1.261 . S
O21 Sm0 2.450 . S
O21 C2 1.242 . S
O22 Sm0 2.681 . S
O22 Sm1 2.386 . S
O22 C9 1.271 . S
O23 Sm0 2.464 . S
O23 C9 1.251 . S
O24 Sm0 2.396 . S
O24 C10 1.252 . S
O25 Sm1 2.408 . S
O25 C10 1.272 . S
O26 Sm1 2.543 . S
O26 C11 1.261 . S
O27 Sm1 2.450 . S
O27 C11 1.242 . S
O28 Sm0 2.386 . S
O28 Sm1 2.681 . S
O28 C18 1.271 . S
O29 Sm1 2.464 . S
O29 C18 1.251 . S
O30 Sm1 2.396 . S
O30 C19 1.252 . S
O31 Sm0 2.408 . S
O31 C19 1.272 . S
H32 C4 0.930 . S
H33 C5 0.929 . S
H34 C7 0.930 . S
H35 C8 0.929 . S
H36 C13 0.930 . S
H37 C14 0.929 . S
H38 C16 0.930 . S
H39 C17 0.929 . S
Sm40 C42 2.846 . S
Sm40 O60 2.543 . S
Sm40 O61 2.450 . S
Sm40 O62 2.681 . S
Sm40 O63 2.464 . S
Sm40 O64 2.396 . S
Sm40 O68 2.386 . S
Sm40 O71 2.408 . S
Sm41 C51 2.846 . S
Sm41 O62 2.386 . S
Sm41 O65 2.408 . S
Sm41 O66 2.543 . S
Sm41 O67 2.450 . S
Sm41 O68 2.681 . S
Sm41 O69 2.464 . S
Sm41 O70 2.396 . S
C42 Sm40 2.846 . S
C42 C43 1.506 . S
C42 O60 1.261 . S
C42 O61 1.242 . S
C43 C42 1.506 . S
C43 C44 1.358 . S
C43 C48 1.382 . S
C44 C43 1.358 . S
C44 C45 1.385 . S
C44 H72 0.930 . S
C45 C44 1.385 . S
C45 C46 1.395 . S
C45 H73 0.929 . S
C46 C45 1.395 . S
C46 C47 1.335 . S
C47 C46 1.335 . S
C47 C48 1.398 . S
C47 H74 0.930 . S
C48 C43 1.382 . S
C48 C47 1.398 . S
C48 H75 0.929 . S
C49 O62 1.271 . S
C49 O63 1.251 . S
C50 O64 1.252 . S
C50 O65 1.272 . S
C51 Sm41 2.846 . S
C51 C52 1.506 . S
C51 O66 1.261 . S
C51 O67 1.242 . S
C52 C51 1.506 . S
C52 C53 1.358 . S
C52 C57 1.382 . S
C53 C52 1.358 . S
C53 C54 1.385 . S
C53 H76 0.930 . S
C54 C53 1.385 . S
C54 C55 1.395 . S
C54 H77 0.929 . S
C55 C54 1.395 . S
C55 C56 1.335 . S
C56 C55 1.335 . S
C56 C57 1.398 . S
C56 H78 0.930 . S
C57 C52 1.382 . S
C57 C56 1.398 . S
C57 H79 0.929 . S
C58 O68 1.271 . S
C58 O69 1.251 . S
C59 O70 1.252 . S
C59 O71 1.272 . S
O60 Sm40 2.543 . S
O60 C42 1.261 . S
O61 Sm40 2.450 . S
O61 C42 1.242 . S
O62 Sm40 2.681 . S
O62 Sm41 2.386 . S
O62 C49 1.271 . S
O63 Sm40 2.464 . S
O63 C49 1.251 . S
O64 Sm40 2.396 . S
O64 C50 1.252 . S
O65 Sm41 2.408 . S
O65 C50 1.272 . S
O66 Sm41 2.543 . S
O66 C51 1.261 . S
O67 Sm41 2.450 . S
O67 C51 1.242 . S
O68 Sm40 2.386 . S
O68 Sm41 2.681 . S
O68 C58 1.271 . S
O69 Sm41 2.464 . S
O69 C58 1.251 . S
O70 Sm41 2.396 . S
O70 C59 1.252 . S
O71 Sm40 2.408 . S
O71 C59 1.272 . S
H72 C44 0.930 . S
H73 C45 0.929 . S
H74 C47 0.930 . S
H75 C48 0.929 . S
H76 C53 0.930 . S
H77 C54 0.929 . S
H78 C56 0.930 . S
H79 C57 0.929 . S
Sm80 C82 2.846 . S
Sm80 O100 2.543 . S
Sm80 O101 2.450 . S
Sm80 O102 2.681 . S
Sm80 O103 2.464 . S
Sm80 O104 2.396 . S
Sm80 O108 2.386 . S
Sm80 O111 2.408 . S
Sm81 C91 2.846 . S
Sm81 O102 2.386 . S
Sm81 O105 2.408 . S
Sm81 O106 2.543 . S
Sm81 O107 2.450 . S
Sm81 O108 2.681 . S
Sm81 O109 2.464 . S
Sm81 O110 2.396 . S
C82 Sm80 2.846 . S
C82 C83 1.506 . S
C82 O100 1.261 . S
C82 O101 1.242 . S
C83 C82 1.506 . S
C83 C84 1.358 . S
C83 C88 1.382 . S
C84 C83 1.358 . S
C84 C85 1.385 . S
C84 H112 0.930 . S
C85 C84 1.385 . S
C85 C86 1.395 . S
C85 H113 0.929 . S
C86 C85 1.395 . S
C86 C87 1.335 . S
C87 C86 1.335 . S
C87 C88 1.398 . S
C87 H114 0.930 . S
C88 C83 1.382 . S
C88 C87 1.398 . S
C88 H115 0.929 . S
C89 O102 1.271 . S
C89 O103 1.251 . S
C90 O104 1.252 . S
C90 O105 1.272 . S
C91 Sm81 2.846 . S
C91 C92 1.506 . S
C91 O106 1.261 . S
C91 O107 1.242 . S
C92 C91 1.506 . S
C92 C93 1.358 . S
C92 C97 1.382 . S
C93 C92 1.358 . S
C93 C94 1.385 . S
C93 H116 0.930 . S
C94 C93 1.385 . S
C94 C95 1.395 . S
C94 H117 0.929 . S
C95 C94 1.395 . S
C95 C96 1.335 . S
C96 C95 1.335 . S
C96 C97 1.398 . S
C96 H118 0.930 . S
C97 C92 1.382 . S
C97 C96 1.398 . S
C97 H119 0.929 . S
C98 O108 1.271 . S
C98 O109 1.251 . S
C99 O110 1.252 . S
C99 O111 1.272 . S
O100 Sm80 2.543 . S
O100 C82 1.261 . S
O101 Sm80 2.450 . S
O101 C82 1.242 . S
O102 Sm80 2.681 . S
O102 Sm81 2.386 . S
O102 C89 1.271 . S
O103 Sm80 2.464 . S
O103 C89 1.251 . S
O104 Sm80 2.396 . S
O104 C90 1.252 . S
O105 Sm81 2.408 . S
O105 C90 1.272 . S
O106 Sm81 2.543 . S
O106 C91 1.261 . S
O107 Sm81 2.450 . S
O107 C91 1.242 . S
O108 Sm80 2.386 . S
O108 Sm81 2.681 . S
O108 C98 1.271 . S
O109 Sm81 2.464 . S
O109 C98 1.251 . S
O110 Sm81 2.396 . S
O110 C99 1.252 . S
O111 Sm80 2.408 . S
O111 C99 1.272 . S
H112 C84 0.930 . S
H113 C85 0.929 . S
H114 C87 0.930 . S
H115 C88 0.929 . S
H116 C93 0.930 . S
H117 C94 0.929 . S
H118 C96 0.930 . S
H119 C97 0.929 . S
Sm120 C122 2.846 . S
Sm120 O140 2.543 . S
Sm120 O141 2.450 . S
Sm120 O142 2.681 . S
Sm120 O143 2.464 . S
Sm120 O144 2.396 . S
Sm120 O148 2.386 . S
Sm120 O151 2.408 . S
Sm121 C131 2.846 . S
Sm121 O142 2.386 . S
Sm121 O145 2.408 . S
Sm121 O146 2.543 . S
Sm121 O147 2.450 . S
Sm121 O148 2.681 . S
Sm121 O149 2.464 . S
Sm121 O150 2.396 . S
C122 Sm120 2.846 . S
C122 C123 1.506 . S
C122 O140 1.261 . S
C122 O141 1.242 . S
C123 C122 1.506 . S
C123 C124 1.358 . S
C123 C128 1.382 . S
C124 C123 1.358 . S
C124 C125 1.385 . S
C124 H152 0.930 . S
C125 C124 1.385 . S
C125 C126 1.395 . S
C125 H153 0.929 . S
C126 C125 1.395 . S
C126 C127 1.335 . S
C127 C126 1.335 . S
C127 C128 1.398 . S
C127 H154 0.930 . S
C128 C123 1.382 . S
C128 C127 1.398 . S
C128 H155 0.929 . S
C129 O142 1.271 . S
C129 O143 1.251 . S
C130 O144 1.252 . S
C130 O145 1.272 . S
C131 Sm121 2.846 . S
C131 C132 1.506 . S
C131 O146 1.261 . S
C131 O147 1.242 . S
C132 C131 1.506 . S
C132 C133 1.358 . S
C132 C137 1.382 . S
C133 C132 1.358 . S
C133 C134 1.385 . S
C133 H156 0.930 . S
C134 C133 1.385 . S
C134 C135 1.395 . S
C134 H157 0.929 . S
C135 C134 1.395 . S
C135 C136 1.335 . S
C136 C135 1.335 . S
C136 C137 1.398 . S
C136 H158 0.930 . S
C137 C132 1.382 . S
C137 C136 1.398 . S
C137 H159 0.929 . S
C138 O148 1.271 . S
C138 O149 1.251 . S
C139 O150 1.252 . S
C139 O151 1.272 . S
O140 Sm120 2.543 . S
O140 C122 1.261 . S
O141 Sm120 2.450 . S
O141 C122 1.242 . S
O142 Sm120 2.681 . S
O142 Sm121 2.386 . S
O142 C129 1.271 . S
O143 Sm120 2.464 . S
O143 C129 1.251 . S
O144 Sm120 2.396 . S
O144 C130 1.252 . S
O145 Sm121 2.408 . S
O145 C130 1.272 . S
O146 Sm121 2.543 . S
O146 C131 1.261 . S
O147 Sm121 2.450 . S
O147 C131 1.242 . S
O148 Sm120 2.386 . S
O148 Sm121 2.681 . S
O148 C138 1.271 . S
O149 Sm121 2.464 . S
O149 C138 1.251 . S
O150 Sm121 2.396 . S
O150 C139 1.252 . S
O151 Sm120 2.408 . S
O151 C139 1.272 . S
H152 C124 0.930 . S
H153 C125 0.929 . S
H154 C127 0.930 . S
H155 C128 0.929 . S
H156 C133 0.930 . S
H157 C134 0.929 . S
H158 C136 0.930 . S
H159 C137 0.929 . S
Sm160 C162 2.846 . S
Sm160 O180 2.543 . S
Sm160 O181 2.450 . S
Sm160 O182 2.681 . S
Sm160 O183 2.464 . S
Sm160 O184 2.396 . S
Sm160 O188 2.386 . S
Sm160 O191 2.408 . S
Sm161 C171 2.846 . S
Sm161 O182 2.386 . S
Sm161 O185 2.408 . S
Sm161 O186 2.543 . S
Sm161 O187 2.450 . S
Sm161 O188 2.681 . S
Sm161 O189 2.464 . S
Sm161 O190 2.396 . S
C162 Sm160 2.846 . S
C162 C163 1.506 . S
C162 O180 1.261 . S
C162 O181 1.242 . S
C163 C162 1.506 . S
C163 C164 1.358 . S
C163 C168 1.382 . S
C164 C163 1.358 . S
C164 C165 1.385 . S
C164 H192 0.930 . S
C165 C164 1.385 . S
C165 C166 1.395 . S
C165 H193 0.929 . S
C166 C165 1.395 . S
C166 C167 1.335 . S
C167 C166 1.335 . S
C167 C168 1.398 . S
C167 H194 0.930 . S
C168 C163 1.382 . S
C168 C167 1.398 . S
C168 H195 0.929 . S
C169 O182 1.271 . S
C169 O183 1.251 . S
C170 O184 1.252 . S
C170 O185 1.272 . S
C171 Sm161 2.846 . S
C171 C172 1.506 . S
C171 O186 1.261 . S
C171 O187 1.242 . S
C172 C171 1.506 . S
C172 C173 1.358 . S
C172 C177 1.382 . S
C173 C172 1.358 . S
C173 C174 1.385 . S
C173 H196 0.930 . S
C174 C173 1.385 . S
C174 C175 1.395 . S
C174 H197 0.929 . S
C175 C174 1.395 . S
C175 C176 1.335 . S
C176 C175 1.335 . S
C176 C177 1.398 . S
C176 H198 0.930 . S
C177 C172 1.382 . S
C177 C176 1.398 . S
C177 H199 0.929 . S
C178 O188 1.271 . S
C178 O189 1.251 . S
C179 O190 1.252 . S
C179 O191 1.272 . S
O180 Sm160 2.543 . S
O180 C162 1.261 . S
O181 Sm160 2.450 . S
O181 C162 1.242 . S
O182 Sm160 2.681 . S
O182 Sm161 2.386 . S
O182 C169 1.271 . S
O183 Sm160 2.464 . S
O183 C169 1.251 . S
O184 Sm160 2.396 . S
O184 C170 1.252 . S
O185 Sm161 2.408 . S
O185 C170 1.272 . S
O186 Sm161 2.543 . S
O186 C171 1.261 . S
O187 Sm161 2.450 . S
O187 C171 1.242 . S
O188 Sm160 2.386 . S
O188 Sm161 2.681 . S
O188 C178 1.271 . S
O189 Sm161 2.464 . S
O189 C178 1.251 . S
O190 Sm161 2.396 . S
O190 C179 1.252 . S
O191 Sm160 2.408 . S
O191 C179 1.272 . S
H192 C164 0.930 . S
H193 C165 0.929 . S
H194 C167 0.930 . S
H195 C168 0.929 . S
H196 C173 0.930 . S
H197 C174 0.929 . S
H198 C176 0.930 . S
H199 C177 0.929 . S
Sm200 C202 2.846 . S
Sm200 O220 2.543 . S
Sm200 O221 2.450 . S
Sm200 O222 2.681 . S
Sm200 O223 2.464 . S
Sm200 O224 2.396 . S
Sm200 O228 2.386 . S
Sm200 O231 2.408 . S
Sm201 C211 2.846 . S
Sm201 O222 2.386 . S
Sm201 O225 2.408 . S
Sm201 O226 2.543 . S
Sm201 O227 2.450 . S
Sm201 O228 2.681 . S
Sm201 O229 2.464 . S
Sm201 O230 2.396 . S
C202 Sm200 2.846 . S
C202 C203 1.506 . S
C202 O220 1.261 . S
C202 O221 1.242 . S
C203 C202 1.506 . S
C203 C204 1.358 . S
C203 C208 1.382 . S
C204 C203 1.358 . S
C204 C205 1.385 . S
C204 H232 0.930 . S
C205 C204 1.385 . S
C205 C206 1.395 . S
C205 H233 0.929 . S
C206 C205 1.395 . S
C206 C207 1.335 . S
C207 C206 1.335 . S
C207 C208 1.398 . S
C207 H234 0.930 . S
C208 C203 1.382 . S
C208 C207 1.398 . S
C208 H235 0.929 . S
C209 O222 1.271 . S
C209 O223 1.251 . S
C210 O224 1.252 . S
C210 O225 1.272 . S
C211 Sm201 2.846 . S
C211 C212 1.506 . S
C211 O226 1.261 . S
C211 O227 1.242 . S
C212 C211 1.506 . S
C212 C213 1.358 . S
C212 C217 1.382 . S
C213 C212 1.358 . S
C213 C214 1.385 . S
C213 H236 0.930 . S
C214 C213 1.385 . S
C214 C215 1.395 . S
C214 H237 0.929 . S
C215 C214 1.395 . S
C215 C216 1.335 . S
C216 C215 1.335 . S
C216 C217 1.398 . S
C216 H238 0.930 . S
C217 C212 1.382 . S
C217 C216 1.398 . S
C217 H239 0.929 . S
C218 O228 1.271 . S
C218 O229 1.251 . S
C219 O230 1.252 . S
C219 O231 1.272 . S
O220 Sm200 2.543 . S
O220 C202 1.261 . S
O221 Sm200 2.450 . S
O221 C202 1.242 . S
O222 Sm200 2.681 . S
O222 Sm201 2.386 . S
O222 C209 1.271 . S
O223 Sm200 2.464 . S
O223 C209 1.251 . S
O224 Sm200 2.396 . S
O224 C210 1.252 . S
O225 Sm201 2.408 . S
O225 C210 1.272 . S
O226 Sm201 2.543 . S
O226 C211 1.261 . S
O227 Sm201 2.450 . S
O227 C211 1.242 . S
O228 Sm200 2.386 . S
O228 Sm201 2.681 . S
O228 C218 1.271 . S
O229 Sm201 2.464 . S
O229 C218 1.251 . S
O230 Sm201 2.396 . S
O230 C219 1.252 . S
O231 Sm200 2.408 . S
O231 C219 1.272 . S
H232 C204 0.930 . S
H233 C205 0.929 . S
H234 C207 0.930 . S
H235 C208 0.929 . S
H236 C213 0.930 . S
H237 C214 0.929 . S
H238 C216 0.930 . S
H239 C217 0.929 . S
Sm240 C242 2.846 . S
Sm240 O260 2.543 . S
Sm240 O261 2.450 . S
Sm240 O262 2.681 . S
Sm240 O263 2.464 . S
Sm240 O264 2.396 . S
Sm240 O268 2.386 . S
Sm240 O271 2.408 . S
Sm241 C251 2.846 . S
Sm241 O262 2.386 . S
Sm241 O265 2.408 . S
Sm241 O266 2.543 . S
Sm241 O267 2.450 . S
Sm241 O268 2.681 . S
Sm241 O269 2.464 . S
Sm241 O270 2.396 . S
C242 Sm240 2.846 . S
C242 C243 1.506 . S
C242 O260 1.261 . S
C242 O261 1.242 . S
C243 C242 1.506 . S
C243 C244 1.358 . S
C243 C248 1.382 . S
C244 C243 1.358 . S
C244 C245 1.385 . S
C244 H272 0.930 . S
C245 C244 1.385 . S
C245 C246 1.395 . S
C245 H273 0.929 . S
C246 C245 1.395 . S
C246 C247 1.335 . S
C247 C246 1.335 . S
C247 C248 1.398 . S
C247 H274 0.930 . S
C248 C243 1.382 . S
C248 C247 1.398 . S
C248 H275 0.929 . S
C249 O262 1.271 . S
C249 O263 1.251 . S
C250 O264 1.252 . S
C250 O265 1.272 . S
C251 Sm241 2.846 . S
C251 C252 1.506 . S
C251 O266 1.261 . S
C251 O267 1.242 . S
C252 C251 1.506 . S
C252 C253 1.358 . S
C252 C257 1.382 . S
C253 C252 1.358 . S
C253 C254 1.385 . S
C253 H276 0.930 . S
C254 C253 1.385 . S
C254 C255 1.395 . S
C254 H277 0.929 . S
C255 C254 1.395 . S
C255 C256 1.335 . S
C256 C255 1.335 . S
C256 C257 1.398 . S
C256 H278 0.930 . S
C257 C252 1.382 . S
C257 C256 1.398 . S
C257 H279 0.929 . S
C258 O268 1.271 . S
C258 O269 1.251 . S
C259 O270 1.252 . S
C259 O271 1.272 . S
O260 Sm240 2.543 . S
O260 C242 1.261 . S
O261 Sm240 2.450 . S
O261 C242 1.242 . S
O262 Sm240 2.681 . S
O262 Sm241 2.386 . S
O262 C249 1.271 . S
O263 Sm240 2.464 . S
O263 C249 1.251 . S
O264 Sm240 2.396 . S
O264 C250 1.252 . S
O265 Sm241 2.408 . S
O265 C250 1.272 . S
O266 Sm241 2.543 . S
O266 C251 1.261 . S
O267 Sm241 2.450 . S
O267 C251 1.242 . S
O268 Sm240 2.386 . S
O268 Sm241 2.681 . S
O268 C258 1.271 . S
O269 Sm241 2.464 . S
O269 C258 1.251 . S
O270 Sm241 2.396 . S
O270 C259 1.252 . S
O271 Sm240 2.408 . S
O271 C259 1.272 . S
H272 C244 0.930 . S
H273 C245 0.929 . S
H274 C247 0.930 . S
H275 C248 0.929 . S
H276 C253 0.930 . S
H277 C254 0.929 . S
H278 C256 0.930 . S
H279 C257 0.929 . S
Sm280 C282 2.846 . S
Sm280 O300 2.543 . S
Sm280 O301 2.450 . S
Sm280 O302 2.681 . S
Sm280 O303 2.464 . S
Sm280 O304 2.396 . S
Sm280 O308 2.386 . S
Sm280 O311 2.408 . S
Sm281 C291 2.846 . S
Sm281 O302 2.386 . S
Sm281 O305 2.408 . S
Sm281 O306 2.543 . S
Sm281 O307 2.450 . S
Sm281 O308 2.681 . S
Sm281 O309 2.464 . S
Sm281 O310 2.396 . S
C282 Sm280 2.846 . S
C282 C283 1.506 . S
C282 O300 1.261 . S
C282 O301 1.242 . S
C283 C282 1.506 . S
C283 C284 1.358 . S
C283 C288 1.382 . S
C284 C283 1.358 . S
C284 C285 1.385 . S
C284 H312 0.930 . S
C285 C284 1.385 . S
C285 C286 1.395 . S
C285 H313 0.929 . S
C286 C285 1.395 . S
C286 C287 1.335 . S
C287 C286 1.335 . S
C287 C288 1.398 . S
C287 H314 0.930 . S
C288 C283 1.382 . S
C288 C287 1.398 . S
C288 H315 0.929 . S
C289 O302 1.271 . S
C289 O303 1.251 . S
C290 O304 1.252 . S
C290 O305 1.272 . S
C291 Sm281 2.846 . S
C291 C292 1.506 . S
C291 O306 1.261 . S
C291 O307 1.242 . S
C292 C291 1.506 . S
C292 C293 1.358 . S
C292 C297 1.382 . S
C293 C292 1.358 . S
C293 C294 1.385 . S
C293 H316 0.930 . S
C294 C293 1.385 . S
C294 C295 1.395 . S
C294 H317 0.929 . S
C295 C294 1.395 . S
C295 C296 1.335 . S
C296 C295 1.335 . S
C296 C297 1.398 . S
C296 H318 0.930 . S
C297 C292 1.382 . S
C297 C296 1.398 . S
C297 H319 0.929 . S
C298 O308 1.271 . S
C298 O309 1.251 . S
C299 O310 1.252 . S
C299 O311 1.272 . S
O300 Sm280 2.543 . S
O300 C282 1.261 . S
O301 Sm280 2.450 . S
O301 C282 1.242 . S
O302 Sm280 2.681 . S
O302 Sm281 2.386 . S
O302 C289 1.271 . S
O303 Sm280 2.464 . S
O303 C289 1.251 . S
O304 Sm280 2.396 . S
O304 C290 1.252 . S
O305 Sm281 2.408 . S
O305 C290 1.272 . S
O306 Sm281 2.543 . S
O306 C291 1.261 . S
O307 Sm281 2.450 . S
O307 C291 1.242 . S
O308 Sm280 2.386 . S
O308 Sm281 2.681 . S
O308 C298 1.271 . S
O309 Sm281 2.464 . S
O309 C298 1.251 . S
O310 Sm281 2.396 . S
O310 C299 1.252 . S
O311 Sm280 2.408 . S
O311 C299 1.272 . S
H312 C284 0.930 . S
H313 C285 0.929 . S
H314 C287 0.930 . S
H315 C288 0.929 . S
H316 C293 0.930 . S
H317 C294 0.929 . S
H318 C296 0.930 . S
H319 C297 0.929 . S
Sm320 C322 2.846 . S
Sm320 O340 2.543 . S
Sm320 O341 2.450 . S
Sm320 O342 2.681 . S
Sm320 O343 2.464 . S
Sm320 O344 2.396 . S
Sm320 O348 2.386 . S
Sm320 O351 2.408 . S
Sm321 C331 2.846 . S
Sm321 O342 2.386 . S
Sm321 O345 2.408 . S
Sm321 O346 2.543 . S
Sm321 O347 2.450 . S
Sm321 O348 2.681 . S
Sm321 O349 2.464 . S
Sm321 O350 2.396 . S
C322 Sm320 2.846 . S
C322 C323 1.506 . S
C322 O340 1.261 . S
C322 O341 1.242 . S
C323 C322 1.506 . S
C323 C324 1.358 . S
C323 C328 1.382 . S
C324 C323 1.358 . S
C324 C325 1.385 . S
C324 H352 0.930 . S
C325 C324 1.385 . S
C325 C326 1.395 . S
C325 H353 0.929 . S
C326 C325 1.395 . S
C326 C327 1.335 . S
C327 C326 1.335 . S
C327 C328 1.398 . S
C327 H354 0.930 . S
C328 C323 1.382 . S
C328 C327 1.398 . S
C328 H355 0.929 . S
C329 O342 1.271 . S
C329 O343 1.251 . S
C330 O344 1.252 . S
C330 O345 1.272 . S
C331 Sm321 2.846 . S
C331 C332 1.506 . S
C331 O346 1.261 . S
C331 O347 1.242 . S
C332 C331 1.506 . S
C332 C333 1.358 . S
C332 C337 1.382 . S
C333 C332 1.358 . S
C333 C334 1.385 . S
C333 H356 0.930 . S
C334 C333 1.385 . S
C334 C335 1.395 . S
C334 H357 0.929 . S
C335 C334 1.395 . S
C335 C336 1.335 . S
C336 C335 1.335 . S
C336 C337 1.398 . S
C336 H358 0.930 . S
C337 C332 1.382 . S
C337 C336 1.398 . S
C337 H359 0.929 . S
C338 O348 1.271 . S
C338 O349 1.251 . S
C339 O350 1.252 . S
C339 O351 1.272 . S
O340 Sm320 2.543 . S
O340 C322 1.261 . S
O341 Sm320 2.450 . S
O341 C322 1.242 . S
O342 Sm320 2.681 . S
O342 Sm321 2.386 . S
O342 C329 1.271 . S
O343 Sm320 2.464 . S
O343 C329 1.251 . S
O344 Sm320 2.396 . S
O344 C330 1.252 . S
O345 Sm321 2.408 . S
O345 C330 1.272 . S
O346 Sm321 2.543 . S
O346 C331 1.261 . S
O347 Sm321 2.450 . S
O347 C331 1.242 . S
O348 Sm320 2.386 . S
O348 Sm321 2.681 . S
O348 C338 1.271 . S
O349 Sm321 2.464 . S
O349 C338 1.251 . S
O350 Sm321 2.396 . S
O350 C339 1.252 . S
O351 Sm320 2.408 . S
O351 C339 1.272 . S
H352 C324 0.930 . S
H353 C325 0.929 . S
H354 C327 0.930 . S
H355 C328 0.929 . S
H356 C333 0.930 . S
H357 C334 0.929 . S
H358 C336 0.930 . S
H359 C337 0.929 . S
Sm360 C362 2.846 . S
Sm360 O380 2.543 . S
Sm360 O381 2.450 . S
Sm360 O382 2.681 . S
Sm360 O383 2.464 . S
Sm360 O384 2.396 . S
Sm360 O388 2.386 . S
Sm360 O391 2.408 . S
Sm361 C371 2.846 . S
Sm361 O382 2.386 . S
Sm361 O385 2.408 . S
Sm361 O386 2.543 . S
Sm361 O387 2.450 . S
Sm361 O388 2.681 . S
Sm361 O389 2.464 . S
Sm361 O390 2.396 . S
C362 Sm360 2.846 . S
C362 C363 1.506 . S
C362 O380 1.261 . S
C362 O381 1.242 . S
C363 C362 1.506 . S
C363 C364 1.358 . S
C363 C368 1.382 . S
C364 C363 1.358 . S
C364 C365 1.385 . S
C364 H392 0.930 . S
C365 C364 1.385 . S
C365 C366 1.395 . S
C365 H393 0.929 . S
C366 C365 1.395 . S
C366 C367 1.335 . S
C367 C366 1.335 . S
C367 C368 1.398 . S
C367 H394 0.930 . S
C368 C363 1.382 . S
C368 C367 1.398 . S
C368 H395 0.929 . S
C369 O382 1.271 . S
C369 O383 1.251 . S
C370 O384 1.252 . S
C370 O385 1.272 . S
C371 Sm361 2.846 . S
C371 C372 1.506 . S
C371 O386 1.261 . S
C371 O387 1.242 . S
C372 C371 1.506 . S
C372 C373 1.358 . S
C372 C377 1.382 . S
C373 C372 1.358 . S
C373 C374 1.385 . S
C373 H396 0.930 . S
C374 C373 1.385 . S
C374 C375 1.395 . S
C374 H397 0.929 . S
C375 C374 1.395 . S
C375 C376 1.335 . S
C376 C375 1.335 . S
C376 C377 1.398 . S
C376 H398 0.930 . S
C377 C372 1.382 . S
C377 C376 1.398 . S
C377 H399 0.929 . S
C378 O388 1.271 . S
C378 O389 1.251 . S
C379 O390 1.252 . S
C379 O391 1.272 . S
O380 Sm360 2.543 . S
O380 C362 1.261 . S
O381 Sm360 2.450 . S
O381 C362 1.242 . S
O382 Sm360 2.681 . S
O382 Sm361 2.386 . S
O382 C369 1.271 . S
O383 Sm360 2.464 . S
O383 C369 1.251 . S
O384 Sm360 2.396 . S
O384 C370 1.252 . S
O385 Sm361 2.408 . S
O385 C370 1.272 . S
O386 Sm361 2.543 . S
O386 C371 1.261 . S
O387 Sm361 2.450 . S
O387 C371 1.242 . S
O388 Sm360 2.386 . S
O388 Sm361 2.681 . S
O388 C378 1.271 . S
O389 Sm361 2.464 . S
O389 C378 1.251 . S
O390 Sm361 2.396 . S
O390 C379 1.252 . S
O391 Sm360 2.408 . S
O391 C379 1.272 . S
H392 C364 0.930 . S
H393 C365 0.929 . S
H394 C367 0.930 . S
H395 C368 0.929 . S
H396 C373 0.930 . S
H397 C374 0.929 . S
H398 C376 0.930 . S
H399 C377 0.929 . S
Sm400 C402 2.846 . S
Sm400 O420 2.543 . S
Sm400 O421 2.450 . S
Sm400 O422 2.681 . S
Sm400 O423 2.464 . S
Sm400 O424 2.396 . S
Sm400 O428 2.386 . S
Sm400 O431 2.408 . S
Sm401 C411 2.846 . S
Sm401 O422 2.386 . S
Sm401 O425 2.408 . S
Sm401 O426 2.543 . S
Sm401 O427 2.450 . S
Sm401 O428 2.681 . S
Sm401 O429 2.464 . S
Sm401 O430 2.396 . S
C402 Sm400 2.846 . S
C402 C403 1.506 . S
C402 O420 1.261 . S
C402 O421 1.242 . S
C403 C402 1.506 . S
C403 C404 1.358 . S
C403 C408 1.382 . S
C404 C403 1.358 . S
C404 C405 1.385 . S
C404 H432 0.930 . S
C405 C404 1.385 . S
C405 C406 1.395 . S
C405 H433 0.929 . S
C406 C405 1.395 . S
C406 C407 1.335 . S
C407 C406 1.335 . S
C407 C408 1.398 . S
C407 H434 0.930 . S
C408 C403 1.382 . S
C408 C407 1.398 . S
C408 H435 0.929 . S
C409 O422 1.271 . S
C409 O423 1.251 . S
C410 O424 1.252 . S
C410 O425 1.272 . S
C411 Sm401 2.846 . S
C411 C412 1.506 . S
C411 O426 1.261 . S
C411 O427 1.242 . S
C412 C411 1.506 . S
C412 C413 1.358 . S
C412 C417 1.382 . S
C413 C412 1.358 . S
C413 C414 1.385 . S
C413 H436 0.930 . S
C414 C413 1.385 . S
C414 C415 1.395 . S
C414 H437 0.929 . S
C415 C414 1.395 . S
C415 C416 1.335 . S
C416 C415 1.335 . S
C416 C417 1.398 . S
C416 H438 0.930 . S
C417 C412 1.382 . S
C417 C416 1.398 . S
C417 H439 0.929 . S
C418 O428 1.271 . S
C418 O429 1.251 . S
C419 O430 1.252 . S
C419 O431 1.272 . S
O420 Sm400 2.543 . S
O420 C402 1.261 . S
O421 Sm400 2.450 . S
O421 C402 1.242 . S
O422 Sm400 2.681 . S
O422 Sm401 2.386 . S
O422 C409 1.271 . S
O423 Sm400 2.464 . S
O423 C409 1.251 . S
O424 Sm400 2.396 . S
O424 C410 1.252 . S
O425 Sm401 2.408 . S
O425 C410 1.272 . S
O426 Sm401 2.543 . S
O426 C411 1.261 . S
O427 Sm401 2.450 . S
O427 C411 1.242 . S
O428 Sm400 2.386 . S
O428 Sm401 2.681 . S
O428 C418 1.271 . S
O429 Sm401 2.464 . S
O429 C418 1.251 . S
O430 Sm401 2.396 . S
O430 C419 1.252 . S
O431 Sm400 2.408 . S
O431 C419 1.272 . S
H432 C404 0.930 . S
H433 C405 0.929 . S
H434 C407 0.930 . S
H435 C408 0.929 . S
H436 C413 0.930 . S
H437 C414 0.929 . S
H438 C416 0.930 . S
H439 C417 0.929 . S
Sm440 C442 2.846 . S
Sm440 O460 2.543 . S
Sm440 O461 2.450 . S
Sm440 O462 2.681 . S
Sm440 O463 2.464 . S
Sm440 O464 2.396 . S
Sm440 O468 2.386 . S
Sm440 O471 2.408 . S
Sm441 C451 2.846 . S
Sm441 O462 2.386 . S
Sm441 O465 2.408 . S
Sm441 O466 2.543 . S
Sm441 O467 2.450 . S
Sm441 O468 2.681 . S
Sm441 O469 2.464 . S
Sm441 O470 2.396 . S
C442 Sm440 2.846 . S
C442 C443 1.506 . S
C442 O460 1.261 . S
C442 O461 1.242 . S
C443 C442 1.506 . S
C443 C444 1.358 . S
C443 C448 1.382 . S
C444 C443 1.358 . S
C444 C445 1.385 . S
C444 H472 0.930 . S
C445 C444 1.385 . S
C445 C446 1.395 . S
C445 H473 0.929 . S
C446 C445 1.395 . S
C446 C447 1.335 . S
C447 C446 1.335 . S
C447 C448 1.398 . S
C447 H474 0.930 . S
C448 C443 1.382 . S
C448 C447 1.398 . S
C448 H475 0.929 . S
C449 O462 1.271 . S
C449 O463 1.251 . S
C450 O464 1.252 . S
C450 O465 1.272 . S
C451 Sm441 2.846 . S
C451 C452 1.506 . S
C451 O466 1.261 . S
C451 O467 1.242 . S
C452 C451 1.506 . S
C452 C453 1.358 . S
C452 C457 1.382 . S
C453 C452 1.358 . S
C453 C454 1.385 . S
C453 H476 0.930 . S
C454 C453 1.385 . S
C454 C455 1.395 . S
C454 H477 0.929 . S
C455 C454 1.395 . S
C455 C456 1.335 . S
C456 C455 1.335 . S
C456 C457 1.398 . S
C456 H478 0.930 . S
C457 C452 1.382 . S
C457 C456 1.398 . S
C457 H479 0.929 . S
C458 O468 1.271 . S
C458 O469 1.251 . S
C459 O470 1.252 . S
C459 O471 1.272 . S
O460 Sm440 2.543 . S
O460 C442 1.261 . S
O461 Sm440 2.450 . S
O461 C442 1.242 . S
O462 Sm440 2.681 . S
O462 Sm441 2.386 . S
O462 C449 1.271 . S
O463 Sm440 2.464 . S
O463 C449 1.251 . S
O464 Sm440 2.396 . S
O464 C450 1.252 . S
O465 Sm441 2.408 . S
O465 C450 1.272 . S
O466 Sm441 2.543 . S
O466 C451 1.261 . S
O467 Sm441 2.450 . S
O467 C451 1.242 . S
O468 Sm440 2.386 . S
O468 Sm441 2.681 . S
O468 C458 1.271 . S
O469 Sm441 2.464 . S
O469 C458 1.251 . S
O470 Sm441 2.396 . S
O470 C459 1.252 . S
O471 Sm440 2.408 . S
O471 C459 1.272 . S
H472 C444 0.930 . S
H473 C445 0.929 . S
H474 C447 0.930 . S
H475 C448 0.929 . S
H476 C453 0.930 . S
H477 C454 0.929 . S
H478 C456 0.930 . S
H479 C457 0.929 . S
Sm480 C482 2.846 . S
Sm480 O500 2.543 . S
Sm480 O501 2.450 . S
Sm480 O502 2.681 . S
Sm480 O503 2.464 . S
Sm480 O504 2.396 . S
Sm480 O508 2.386 . S
Sm480 O511 2.408 . S
Sm481 C491 2.846 . S
Sm481 O502 2.386 . S
Sm481 O505 2.408 . S
Sm481 O506 2.543 . S
Sm481 O507 2.450 . S
Sm481 O508 2.681 . S
Sm481 O509 2.464 . S
Sm481 O510 2.396 . S
C482 Sm480 2.846 . S
C482 C483 1.506 . S
C482 O500 1.261 . S
C482 O501 1.242 . S
C483 C482 1.506 . S
C483 C484 1.358 . S
C483 C488 1.382 . S
C484 C483 1.358 . S
C484 C485 1.385 . S
C484 H512 0.930 . S
C485 C484 1.385 . S
C485 C486 1.395 . S
C485 H513 0.929 . S
C486 C485 1.395 . S
C486 C487 1.335 . S
C487 C486 1.335 . S
C487 C488 1.398 . S
C487 H514 0.930 . S
C488 C483 1.382 . S
C488 C487 1.398 . S
C488 H515 0.929 . S
C489 O502 1.271 . S
C489 O503 1.251 . S
C490 O504 1.252 . S
C490 O505 1.272 . S
C491 Sm481 2.846 . S
C491 C492 1.506 . S
C491 O506 1.261 . S
C491 O507 1.242 . S
C492 C491 1.506 . S
C492 C493 1.358 . S
C492 C497 1.382 . S
C493 C492 1.358 . S
C493 C494 1.385 . S
C493 H516 0.930 . S
C494 C493 1.385 . S
C494 C495 1.395 . S
C494 H517 0.929 . S
C495 C494 1.395 . S
C495 C496 1.335 . S
C496 C495 1.335 . S
C496 C497 1.398 . S
C496 H518 0.930 . S
C497 C492 1.382 . S
C497 C496 1.398 . S
C497 H519 0.929 . S
C498 O508 1.271 . S
C498 O509 1.251 . S
C499 O510 1.252 . S
C499 O511 1.272 . S
O500 Sm480 2.543 . S
O500 C482 1.261 . S
O501 Sm480 2.450 . S
O501 C482 1.242 . S
O502 Sm480 2.681 . S
O502 Sm481 2.386 . S
O502 C489 1.271 . S
O503 Sm480 2.464 . S
O503 C489 1.251 . S
O504 Sm480 2.396 . S
O504 C490 1.252 . S
O505 Sm481 2.408 . S
O505 C490 1.272 . S
O506 Sm481 2.543 . S
O506 C491 1.261 . S
O507 Sm481 2.450 . S
O507 C491 1.242 . S
O508 Sm480 2.386 . S
O508 Sm481 2.681 . S
O508 C498 1.271 . S
O509 Sm481 2.464 . S
O509 C498 1.251 . S
O510 Sm481 2.396 . S
O510 C499 1.252 . S
O511 Sm480 2.408 . S
O511 C499 1.272 . S
H512 C484 0.930 . S
H513 C485 0.929 . S
H514 C487 0.930 . S
H515 C488 0.929 . S
H516 C493 0.930 . S
H517 C494 0.929 . S
H518 C496 0.930 . S
H519 C497 0.929 . S
Sm520 C522 2.846 . S
Sm520 O540 2.543 . S
Sm520 O541 2.450 . S
Sm520 O542 2.681 . S
Sm520 O543 2.464 . S
Sm520 O544 2.396 . S
Sm520 O548 2.386 . S
Sm520 O551 2.408 . S
Sm521 C531 2.846 . S
Sm521 O542 2.386 . S
Sm521 O545 2.408 . S
Sm521 O546 2.543 . S
Sm521 O547 2.450 . S
Sm521 O548 2.681 . S
Sm521 O549 2.464 . S
Sm521 O550 2.396 . S
C522 Sm520 2.846 . S
C522 C523 1.506 . S
C522 O540 1.261 . S
C522 O541 1.242 . S
C523 C522 1.506 . S
C523 C524 1.358 . S
C523 C528 1.382 . S
C524 C523 1.358 . S
C524 C525 1.385 . S
C524 H552 0.930 . S
C525 C524 1.385 . S
C525 C526 1.395 . S
C525 H553 0.929 . S
C526 C525 1.395 . S
C526 C527 1.335 . S
C527 C526 1.335 . S
C527 C528 1.398 . S
C527 H554 0.930 . S
C528 C523 1.382 . S
C528 C527 1.398 . S
C528 H555 0.929 . S
C529 O542 1.271 . S
C529 O543 1.251 . S
C530 O544 1.252 . S
C530 O545 1.272 . S
C531 Sm521 2.846 . S
C531 C532 1.506 . S
C531 O546 1.261 . S
C531 O547 1.242 . S
C532 C531 1.506 . S
C532 C533 1.358 . S
C532 C537 1.382 . S
C533 C532 1.358 . S
C533 C534 1.385 . S
C533 H556 0.930 . S
C534 C533 1.385 . S
C534 C535 1.395 . S
C534 H557 0.929 . S
C535 C534 1.395 . S
C535 C536 1.335 . S
C536 C535 1.335 . S
C536 C537 1.398 . S
C536 H558 0.930 . S
C537 C532 1.382 . S
C537 C536 1.398 . S
C537 H559 0.929 . S
C538 O548 1.271 . S
C538 O549 1.251 . S
C539 O550 1.252 . S
C539 O551 1.272 . S
O540 Sm520 2.543 . S
O540 C522 1.261 . S
O541 Sm520 2.450 . S
O541 C522 1.242 . S
O542 Sm520 2.681 . S
O542 Sm521 2.386 . S
O542 C529 1.271 . S
O543 Sm520 2.464 . S
O543 C529 1.251 . S
O544 Sm520 2.396 . S
O544 C530 1.252 . S
O545 Sm521 2.408 . S
O545 C530 1.272 . S
O546 Sm521 2.543 . S
O546 C531 1.261 . S
O547 Sm521 2.450 . S
O547 C531 1.242 . S
O548 Sm520 2.386 . S
O548 Sm521 2.681 . S
O548 C538 1.271 . S
O549 Sm521 2.464 . S
O549 C538 1.251 . S
O550 Sm521 2.396 . S
O550 C539 1.252 . S
O551 Sm520 2.408 . S
O551 C539 1.272 . S
H552 C524 0.930 . S
H553 C525 0.929 . S
H554 C527 0.930 . S
H555 C528 0.929 . S
H556 C533 0.930 . S
H557 C534 0.929 . S
H558 C536 0.930 . S
H559 C537 0.929 . S
Sm560 C562 2.846 . S
Sm560 O580 2.543 . S
Sm560 O581 2.450 . S
Sm560 O582 2.681 . S
Sm560 O583 2.464 . S
Sm560 O584 2.396 . S
Sm560 O588 2.386 . S
Sm560 O591 2.408 . S
Sm561 C571 2.846 . S
Sm561 O582 2.386 . S
Sm561 O585 2.408 . S
Sm561 O586 2.543 . S
Sm561 O587 2.450 . S
Sm561 O588 2.681 . S
Sm561 O589 2.464 . S
Sm561 O590 2.396 . S
C562 Sm560 2.846 . S
C562 C563 1.506 . S
C562 O580 1.261 . S
C562 O581 1.242 . S
C563 C562 1.506 . S
C563 C564 1.358 . S
C563 C568 1.382 . S
C564 C563 1.358 . S
C564 C565 1.385 . S
C564 H592 0.930 . S
C565 C564 1.385 . S
C565 C566 1.395 . S
C565 H593 0.929 . S
C566 C565 1.395 . S
C566 C567 1.335 . S
C567 C566 1.335 . S
C567 C568 1.398 . S
C567 H594 0.930 . S
C568 C563 1.382 . S
C568 C567 1.398 . S
C568 H595 0.929 . S
C569 O582 1.271 . S
C569 O583 1.251 . S
C570 O584 1.252 . S
C570 O585 1.272 . S
C571 Sm561 2.846 . S
C571 C572 1.506 . S
C571 O586 1.261 . S
C571 O587 1.242 . S
C572 C571 1.506 . S
C572 C573 1.358 . S
C572 C577 1.382 . S
C573 C572 1.358 . S
C573 C574 1.385 . S
C573 H596 0.930 . S
C574 C573 1.385 . S
C574 C575 1.395 . S
C574 H597 0.929 . S
C575 C574 1.395 . S
C575 C576 1.335 . S
C576 C575 1.335 . S
C576 C577 1.398 . S
C576 H598 0.930 . S
C577 C572 1.382 . S
C577 C576 1.398 . S
C577 H599 0.929 . S
C578 O588 1.271 . S
C578 O589 1.251 . S
C579 O590 1.252 . S
C579 O591 1.272 . S
O580 Sm560 2.543 . S
O580 C562 1.261 . S
O581 Sm560 2.450 . S
O581 C562 1.242 . S
O582 Sm560 2.681 . S
O582 Sm561 2.386 . S
O582 C569 1.271 . S
O583 Sm560 2.464 . S
O583 C569 1.251 . S
O584 Sm560 2.396 . S
O584 C570 1.252 . S
O585 Sm561 2.408 . S
O585 C570 1.272 . S
O586 Sm561 2.543 . S
O586 C571 1.261 . S
O587 Sm561 2.450 . S
O587 C571 1.242 . S
O588 Sm560 2.386 . S
O588 Sm561 2.681 . S
O588 C578 1.271 . S
O589 Sm561 2.464 . S
O589 C578 1.251 . S
O590 Sm561 2.396 . S
O590 C579 1.252 . S
O591 Sm560 2.408 . S
O591 C579 1.272 . S
H592 C564 0.930 . S
H593 C565 0.929 . S
H594 C567 0.930 . S
H595 C568 0.929 . S
H596 C573 0.930 . S
H597 C574 0.929 . S
H598 C576 0.930 . S
H599 C577 0.929 . S
Sm600 C602 2.846 . S
Sm600 O620 2.543 . S
Sm600 O621 2.450 . S
Sm600 O622 2.681 . S
Sm600 O623 2.464 . S
Sm600 O624 2.396 . S
Sm600 O628 2.386 . S
Sm600 O631 2.408 . S
Sm601 C611 2.846 . S
Sm601 O622 2.386 . S
Sm601 O625 2.408 . S
Sm601 O626 2.543 . S
Sm601 O627 2.450 . S
Sm601 O628 2.681 . S
Sm601 O629 2.464 . S
Sm601 O630 2.396 . S
C602 Sm600 2.846 . S
C602 C603 1.506 . S
C602 O620 1.261 . S
C602 O621 1.242 . S
C603 C602 1.506 . S
C603 C604 1.358 1_655 S
C603 C608 1.382 . S
C604 C603 1.358 1_455 S
C604 C605 1.385 . S
C604 H632 0.930 . S
C605 C604 1.385 . S
C605 C606 1.395 1_455 S
C605 H633 0.929 . S
C606 C605 1.395 1_655 S
C606 C607 1.335 . S
C607 C606 1.335 . S
C607 C608 1.398 . S
C607 H634 0.930 . S
C608 C603 1.382 . S
C608 C607 1.398 . S
C608 H635 0.929 . S
C609 O622 1.271 . S
C609 O623 1.251 . S
C610 O624 1.252 . S
C610 O625 1.272 . S
C611 Sm601 2.846 . S
C611 C612 1.506 . S
C611 O626 1.261 . S
C611 O627 1.242 . S
C612 C611 1.506 . S
C612 C613 1.358 . S
C612 C617 1.382 . S
C613 C612 1.358 . S
C613 C614 1.385 . S
C613 H636 0.930 . S
C614 C613 1.385 . S
C614 C615 1.395 . S
C614 H637 0.929 . S
C615 C614 1.395 . S
C615 C616 1.335 . S
C616 C615 1.335 . S
C616 C617 1.398 . S
C616 H638 0.930 . S
C617 C612 1.382 . S
C617 C616 1.398 . S
C617 H639 0.929 . S
C618 O628 1.271 . S
C618 O629 1.251 . S
C619 O630 1.252 . S
C619 O631 1.272 . S
O620 Sm600 2.543 . S
O620 C602 1.261 . S
O621 Sm600 2.450 . S
O621 C602 1.242 . S
O622 Sm600 2.681 . S
O622 Sm601 2.386 . S
O622 C609 1.271 . S
O623 Sm600 2.464 . S
O623 C609 1.251 . S
O624 Sm600 2.396 . S
O624 C610 1.252 . S
O625 Sm601 2.408 . S
O625 C610 1.272 . S
O626 Sm601 2.543 . S
O626 C611 1.261 . S
O627 Sm601 2.450 . S
O627 C611 1.242 . S
O628 Sm600 2.386 . S
O628 Sm601 2.681 . S
O628 C618 1.271 . S
O629 Sm601 2.464 . S
O629 C618 1.251 . S
O630 Sm601 2.396 . S
O630 C619 1.252 . S
O631 Sm600 2.408 . S
O631 C619 1.272 . S
H632 C604 0.930 . S
H633 C605 0.929 . S
H634 C607 0.930 . S
H635 C608 0.929 . S
H636 C613 0.930 . S
H637 C614 0.929 . S
H638 C616 0.930 . S
H639 C617 0.929 . S
Sm640 C642 2.846 . S
Sm640 O660 2.543 . S
Sm640 O661 2.450 . S
Sm640 O662 2.681 . S
Sm640 O663 2.464 . S
Sm640 O664 2.396 . S
Sm640 O668 2.386 . S
Sm640 O671 2.408 . S
Sm641 C651 2.846 . S
Sm641 O662 2.386 . S
Sm641 O665 2.408 . S
Sm641 O666 2.543 . S
Sm641 O667 2.450 . S
Sm641 O668 2.681 . S
Sm641 O669 2.464 . S
Sm641 O670 2.396 . S
C642 Sm640 2.846 . S
C642 C643 1.506 . S
C642 O660 1.261 . S
C642 O661 1.242 . S
C643 C642 1.506 . S
C643 C644 1.358 . S
C643 C648 1.382 . S
C644 C643 1.358 . S
C644 C645 1.385 . S
C644 H672 0.930 . S
C645 C644 1.385 . S
C645 C646 1.395 . S
C645 H673 0.929 . S
C646 C645 1.395 . S
C646 C647 1.335 . S
C647 C646 1.335 . S
C647 C648 1.398 . S
C647 H674 0.930 . S
C648 C643 1.382 . S
C648 C647 1.398 . S
C648 H675 0.929 . S
C649 O662 1.271 . S
C649 O663 1.251 . S
C650 O664 1.252 . S
C650 O665 1.272 . S
C651 Sm641 2.846 . S
C651 C652 1.506 . S
C651 O666 1.261 . S
C651 O667 1.242 . S
C652 C651 1.506 . S
C652 C653 1.358 . S
C652 C657 1.382 . S
C653 C652 1.358 . S
C653 C654 1.385 . S
C653 H676 0.930 . S
C654 C653 1.385 . S
C654 C655 1.395 . S
C654 H677 0.929 . S
C655 C654 1.395 . S
C655 C656 1.335 . S
C656 C655 1.335 . S
C656 C657 1.398 . S
C656 H678 0.930 . S
C657 C652 1.382 . S
C657 C656 1.398 . S
C657 H679 0.929 . S
C658 O668 1.271 . S
C658 O669 1.251 . S
C659 O670 1.252 . S
C659 O671 1.272 . S
O660 Sm640 2.543 . S
O660 C642 1.261 . S
O661 Sm640 2.450 . S
O661 C642 1.242 . S
O662 Sm640 2.681 . S
O662 Sm641 2.386 . S
O662 C649 1.271 . S
O663 Sm640 2.464 . S
O663 C649 1.251 . S
O664 Sm640 2.396 . S
O664 C650 1.252 . S
O665 Sm641 2.408 . S
O665 C650 1.272 . S
O666 Sm641 2.543 . S
O666 C651 1.261 . S
O667 Sm641 2.450 . S
O667 C651 1.242 . S
O668 Sm640 2.386 . S
O668 Sm641 2.681 . S
O668 C658 1.271 . S
O669 Sm641 2.464 . S
O669 C658 1.251 . S
O670 Sm641 2.396 . S
O670 C659 1.252 . S
O671 Sm640 2.408 . S
O671 C659 1.272 . S
H672 C644 0.930 . S
H673 C645 0.929 . S
H674 C647 0.930 . S
H675 C648 0.929 . S
H676 C653 0.930 . S
H677 C654 0.929 . S
H678 C656 0.930 . S
H679 C657 0.929 . S
Sm680 C682 2.846 . S
Sm680 O700 2.543 . S
Sm680 O701 2.450 . S
Sm680 O702 2.681 . S
Sm680 O703 2.464 . S
Sm680 O704 2.396 . S
Sm680 O708 2.386 . S
Sm680 O711 2.408 . S
Sm681 C691 2.846 . S
Sm681 O702 2.386 . S
Sm681 O705 2.408 . S
Sm681 O706 2.543 . S
Sm681 O707 2.450 . S
Sm681 O708 2.681 . S
Sm681 O709 2.464 . S
Sm681 O710 2.396 . S
C682 Sm680 2.846 . S
C682 C683 1.506 . S
C682 O700 1.261 . S
C682 O701 1.242 . S
C683 C682 1.506 . S
C683 C684 1.358 1_545 S
C683 C688 1.382 . S
C684 C683 1.358 1_565 S
C684 C685 1.385 . S
C684 H712 0.930 . S
C685 C684 1.385 . S
C685 C686 1.395 1_565 S
C685 H713 0.929 . S
C686 C685 1.395 1_545 S
C686 C687 1.335 . S
C687 C686 1.335 . S
C687 C688 1.398 . S
C687 H714 0.930 . S
C688 C683 1.382 . S
C688 C687 1.398 . S
C688 H715 0.929 . S
C689 O702 1.271 . S
C689 O703 1.251 . S
C690 O704 1.252 . S
C690 O705 1.272 . S
C691 Sm681 2.846 . S
C691 C692 1.506 . S
C691 O706 1.261 . S
C691 O707 1.242 . S
C692 C691 1.506 . S
C692 C693 1.358 . S
C692 C697 1.382 . S
C693 C692 1.358 . S
C693 C694 1.385 . S
C693 H716 0.930 . S
C694 C693 1.385 . S
C694 C695 1.395 . S
C694 H717 0.929 . S
C695 C694 1.395 . S
C695 C696 1.335 . S
C696 C695 1.335 . S
C696 C697 1.398 . S
C696 H718 0.930 . S
C697 C692 1.382 . S
C697 C696 1.398 . S
C697 H719 0.929 . S
C698 O708 1.271 . S
C698 O709 1.251 . S
C699 O710 1.252 . S
C699 O711 1.272 . S
O700 Sm680 2.543 . S
O700 C682 1.261 . S
O701 Sm680 2.450 . S
O701 C682 1.242 . S
O702 Sm680 2.681 . S
O702 Sm681 2.386 . S
O702 C689 1.271 . S
O703 Sm680 2.464 . S
O703 C689 1.251 . S
O704 Sm680 2.396 . S
O704 C690 1.252 . S
O705 Sm681 2.408 . S
O705 C690 1.272 . S
O706 Sm681 2.543 . S
O706 C691 1.261 . S
O707 Sm681 2.450 . S
O707 C691 1.242 . S
O708 Sm680 2.386 . S
O708 Sm681 2.681 . S
O708 C698 1.271 . S
O709 Sm681 2.464 . S
O709 C698 1.251 . S
O710 Sm681 2.396 . S
O710 C699 1.252 . S
O711 Sm680 2.408 . S
O711 C699 1.272 . S
H712 C684 0.930 . S
H713 C685 0.929 . S
H714 C687 0.930 . S
H715 C688 0.929 . S
H716 C693 0.930 . S
H717 C694 0.929 . S
H718 C696 0.930 . S
H719 C697 0.929 . S
Sm720 C722 2.846 . S
Sm720 O740 2.543 . S
Sm720 O741 2.450 . S
Sm720 O742 2.681 . S
Sm720 O743 2.464 . S
Sm720 O744 2.396 . S
Sm720 O748 2.386 . S
Sm720 O751 2.408 . S
Sm721 C731 2.846 . S
Sm721 O742 2.386 . S
Sm721 O745 2.408 . S
Sm721 O746 2.543 . S
Sm721 O747 2.450 . S
Sm721 O748 2.681 . S
Sm721 O749 2.464 . S
Sm721 O750 2.396 . S
C722 Sm720 2.846 . S
C722 C723 1.506 . S
C722 O740 1.261 . S
C722 O741 1.242 . S
C723 C722 1.506 . S
C723 C724 1.358 . S
C723 C728 1.382 . S
C724 C723 1.358 . S
C724 C725 1.385 . S
C724 H752 0.930 . S
C725 C724 1.385 . S
C725 C726 1.395 . S
C725 H753 0.929 . S
C726 C725 1.395 . S
C726 C727 1.335 . S
C727 C726 1.335 . S
C727 C728 1.398 . S
C727 H754 0.930 . S
C728 C723 1.382 . S
C728 C727 1.398 . S
C728 H755 0.929 . S
C729 O742 1.271 . S
C729 O743 1.251 . S
C730 O744 1.252 . S
C730 O745 1.272 . S
C731 Sm721 2.846 . S
C731 C732 1.506 . S
C731 O746 1.261 . S
C731 O747 1.242 . S
C732 C731 1.506 . S
C732 C733 1.358 . S
C732 C737 1.382 . S
C733 C732 1.358 . S
C733 C734 1.385 1_545 S
C733 H756 0.930 1_545 S
C734 C733 1.385 1_565 S
C734 C735 1.395 1_565 S
C734 H757 0.929 . S
C735 C734 1.395 1_545 S
C735 C736 1.335 . S
C736 C735 1.335 . S
C736 C737 1.398 . S
C736 H758 0.930 . S
C737 C732 1.382 . S
C737 C736 1.398 . S
C737 H759 0.929 . S
C738 O748 1.271 . S
C738 O749 1.251 . S
C739 O750 1.252 . S
C739 O751 1.272 . S
O740 Sm720 2.543 . S
O740 C722 1.261 . S
O741 Sm720 2.450 . S
O741 C722 1.242 . S
O742 Sm720 2.681 . S
O742 Sm721 2.386 . S
O742 C729 1.271 . S
O743 Sm720 2.464 . S
O743 C729 1.251 . S
O744 Sm720 2.396 . S
O744 C730 1.252 . S
O745 Sm721 2.408 . S
O745 C730 1.272 . S
O746 Sm721 2.543 . S
O746 C731 1.261 . S
O747 Sm721 2.450 . S
O747 C731 1.242 . S
O748 Sm720 2.386 . S
O748 Sm721 2.681 . S
O748 C738 1.271 . S
O749 Sm721 2.464 . S
O749 C738 1.251 . S
O750 Sm721 2.396 . S
O750 C739 1.252 . S
O751 Sm720 2.408 . S
O751 C739 1.272 . S
H752 C724 0.930 . S
H753 C725 0.929 . S
H754 C727 0.930 . S
H755 C728 0.929 . S
H756 C733 0.930 1_565 S
H757 C734 0.929 . S
H758 C736 0.930 . S
H759 C737 0.929 . S
Sm760 C762 2.846 . S
Sm760 O780 2.543 . S
Sm760 O781 2.450 . S
Sm760 O782 2.681 . S
Sm760 O783 2.464 . S
Sm760 O784 2.396 . S
Sm760 O788 2.386 . S
Sm760 O791 2.408 . S
Sm761 C771 2.846 . S
Sm761 O782 2.386 . S
Sm761 O785 2.408 . S
Sm761 O786 2.543 . S
Sm761 O787 2.450 . S
Sm761 O788 2.681 . S
Sm761 O789 2.464 . S
Sm761 O790 2.396 . S
C762 Sm760 2.846 . S
C762 C763 1.506 . S
C762 O780 1.261 . S
C762 O781 1.242 . S
C763 C762 1.506 . S
C763 C764 1.358 . S
C763 C768 1.382 . S
C764 C763 1.358 . S
C764 C765 1.385 . S
C764 H792 0.930 . S
C765 C764 1.385 . S
C765 C766 1.395 . S
C765 H793 0.929 . S
C766 C765 1.395 . S
C766 C767 1.335 . S
C767 C766 1.335 . S
C767 C768 1.398 . S
C767 H794 0.930 . S
C768 C763 1.382 . S
C768 C767 1.398 . S
C768 H795 0.929 . S
C769 O782 1.271 . S
C769 O783 1.251 . S
C770 O784 1.252 . S
C770 O785 1.272 . S
C771 Sm761 2.846 . S
C771 C772 1.506 . S
C771 O786 1.261 . S
C771 O787 1.242 . S
C772 C771 1.506 . S
C772 C773 1.358 . S
C772 C777 1.382 . S
C773 C772 1.358 . S
C773 C774 1.385 1_655 S
C773 H796 0.930 1_655 S
C774 C773 1.385 1_455 S
C774 C775 1.395 1_455 S
C774 H797 0.929 . S
C775 C774 1.395 1_655 S
C775 C776 1.335 . S
C776 C775 1.335 . S
C776 C777 1.398 . S
C776 H798 0.930 . S
C777 C772 1.382 . S
C777 C776 1.398 . S
C777 H799 0.929 . S
C778 O788 1.271 . S
C778 O789 1.251 . S
C779 O790 1.252 . S
C779 O791 1.272 . S
O780 Sm760 2.543 . S
O780 C762 1.261 . S
O781 Sm760 2.450 . S
O781 C762 1.242 . S
O782 Sm760 2.681 . S
O782 Sm761 2.386 . S
O782 C769 1.271 . S
O783 Sm760 2.464 . S
O783 C769 1.251 . S
O784 Sm760 2.396 . S
O784 C770 1.252 . S
O785 Sm761 2.408 . S
O785 C770 1.272 . S
O786 Sm761 2.543 . S
O786 C771 1.261 . S
O787 Sm761 2.450 . S
O787 C771 1.242 . S
O788 Sm760 2.386 . S
O788 Sm761 2.681 . S
O788 C778 1.271 . S
O789 Sm761 2.464 . S
O789 C778 1.251 . S
O790 Sm761 2.396 . S
O790 C779 1.252 . S
O791 Sm760 2.408 . S
O791 C779 1.272 . S
H792 C764 0.930 . S
H793 C765 0.929 . S
H794 C767 0.930 . S
H795 C768 0.929 . S
H796 C773 0.930 1_455 S
H797 C774 0.929 . S
H798 C776 0.930 . S
H799 C777 0.929 . S
Sm800 C802 2.846 . S
Sm800 O820 2.543 . S
Sm800 O821 2.450 . S
Sm800 O822 2.681 . S
Sm800 O823 2.464 . S
Sm800 O824 2.396 . S
Sm800 O828 2.386 . S
Sm800 O831 2.408 . S
Sm801 C811 2.846 . S
Sm801 O822 2.386 . S
Sm801 O825 2.408 . S
Sm801 O826 2.543 . S
Sm801 O827 2.450 . S
Sm801 O828 2.681 . S
Sm801 O829 2.464 . S
Sm801 O830 2.396 . S
C802 Sm800 2.846 . S
C802 C803 1.506 . S
C802 O820 1.261 . S
C802 O821 1.242 . S
C803 C802 1.506 . S
C803 C804 1.358 . S
C803 C808 1.382 . S
C804 C803 1.358 . S
C804 C805 1.385 . S
C804 H832 0.930 . S
C805 C804 1.385 . S
C805 C806 1.395 . S
C805 H833 0.929 . S
C806 C805 1.395 . S
C806 C807 1.335 . S
C807 C806 1.335 . S
C807 C808 1.398 . S
C807 H834 0.930 . S
C808 C803 1.382 . S
C808 C807 1.398 . S
C808 H835 0.929 . S
C809 O822 1.271 . S
C809 O823 1.251 . S
C810 O824 1.252 . S
C810 O825 1.272 . S
C811 Sm801 2.846 . S
C811 C812 1.506 . S
C811 O826 1.261 . S
C811 O827 1.242 . S
C812 C811 1.506 . S
C812 C813 1.358 . S
C812 C817 1.382 . S
C813 C812 1.358 . S
C813 C814 1.385 . S
C813 H836 0.930 . S
C814 C813 1.385 . S
C814 C815 1.395 . S
C814 H837 0.929 . S
C815 C814 1.395 . S
C815 C816 1.335 . S
C816 C815 1.335 . S
C816 C817 1.398 . S
C816 H838 0.930 . S
C817 C812 1.382 . S
C817 C816 1.398 . S
C817 H839 0.929 . S
C818 O828 1.271 . S
C818 O829 1.251 . S
C819 O830 1.252 . S
C819 O831 1.272 . S
O820 Sm800 2.543 . S
O820 C802 1.261 . S
O821 Sm800 2.450 . S
O821 C802 1.242 . S
O822 Sm800 2.681 . S
O822 Sm801 2.386 . S
O822 C809 1.271 . S
O823 Sm800 2.464 . S
O823 C809 1.251 . S
O824 Sm800 2.396 . S
O824 C810 1.252 . S
O825 Sm801 2.408 . S
O825 C810 1.272 . S
O826 Sm801 2.543 . S
O826 C811 1.261 . S
O827 Sm801 2.450 . S
O827 C811 1.242 . S
O828 Sm800 2.386 . S
O828 Sm801 2.681 . S
O828 C818 1.271 . S
O829 Sm801 2.464 . S
O829 C818 1.251 . S
O830 Sm801 2.396 . S
O830 C819 1.252 . S
O831 Sm800 2.408 . S
O831 C819 1.272 . S
H832 C804 0.930 . S
H833 C805 0.929 . S
H834 C807 0.930 . S
H835 C808 0.929 . S
H836 C813 0.930 . S
H837 C814 0.929 . S
H838 C816 0.930 . S
H839 C817 0.929 . S
Sm840 C842 2.846 . S
Sm840 O860 2.543 . S
Sm840 O861 2.450 . S
Sm840 O862 2.681 1_554 S
Sm840 O863 2.464 . S
Sm840 O864 2.396 . S
Sm840 O868 2.386 . S
Sm840 O871 2.408 . S
Sm841 C851 2.846 . S
Sm841 O862 2.386 . S
Sm841 O865 2.408 . S
Sm841 O866 2.543 . S
Sm841 O867 2.450 . S
Sm841 O868 2.681 1_556 S
Sm841 O869 2.464 . S
Sm841 O870 2.396 . S
C842 Sm840 2.846 . S
C842 C843 1.506 . S
C842 O860 1.261 . S
C842 O861 1.242 . S
C843 C842 1.506 . S
C843 C844 1.358 . S
C843 C848 1.382 . S
C844 C843 1.358 . S
C844 C845 1.385 . S
C844 H872 0.930 . S
C845 C844 1.385 . S
C845 C846 1.395 . S
C845 H873 0.929 . S
C846 C845 1.395 . S
C846 C847 1.335 . S
C847 C846 1.335 . S
C847 C848 1.398 . S
C847 H874 0.930 . S
C848 C843 1.382 . S
C848 C847 1.398 . S
C848 H875 0.929 . S
C849 O862 1.271 1_554 S
C849 O863 1.251 . S
C850 O864 1.252 . S
C850 O865 1.272 1_554 S
C851 Sm841 2.846 . S
C851 C852 1.506 . S
C851 O866 1.261 . S
C851 O867 1.242 . S
C852 C851 1.506 . S
C852 C853 1.358 . S
C852 C857 1.382 . S
C853 C852 1.358 . S
C853 C854 1.385 . S
C853 H876 0.930 . S
C854 C853 1.385 . S
C854 C855 1.395 . S
C854 H877 0.929 . S
C855 C854 1.395 . S
C855 C856 1.335 . S
C856 C855 1.335 . S
C856 C857 1.398 . S
C856 H878 0.930 . S
C857 C852 1.382 . S
C857 C856 1.398 . S
C857 H879 0.929 . S
C858 O868 1.271 1_556 S
C858 O869 1.251 . S
C859 O870 1.252 . S
C859 O871 1.272 1_556 S
O860 Sm840 2.543 . S
O860 C842 1.261 . S
O861 Sm840 2.450 . S
O861 C842 1.242 . S
O862 Sm840 2.681 1_556 S
O862 Sm841 2.386 . S
O862 C849 1.271 1_556 S
O863 Sm840 2.464 . S
O863 C849 1.251 . S
O864 Sm840 2.396 . S
O864 C850 1.252 . S
O865 Sm841 2.408 . S
O865 C850 1.272 1_556 S
O866 Sm841 2.543 . S
O866 C851 1.261 . S
O867 Sm841 2.450 . S
O867 C851 1.242 . S
O868 Sm840 2.386 . S
O868 Sm841 2.681 1_554 S
O868 C858 1.271 1_554 S
O869 Sm841 2.464 . S
O869 C858 1.251 . S
O870 Sm841 2.396 . S
O870 C859 1.252 . S
O871 Sm840 2.408 . S
O871 C859 1.272 1_554 S
H872 C844 0.930 . S
H873 C845 0.929 . S
H874 C847 0.930 . S
H875 C848 0.929 . S
H876 C853 0.930 . S
H877 C854 0.929 . S
H878 C856 0.930 . S
H879 C857 0.929 . S
Sm880 C882 2.846 . S
Sm880 O900 2.543 . S
Sm880 O901 2.450 . S
Sm880 O902 2.681 1_554 S
Sm880 O903 2.464 . S
Sm880 O904 2.396 . S
Sm880 O908 2.386 . S
Sm880 O911 2.408 . S
Sm881 C891 2.846 . S
Sm881 O902 2.386 . S
Sm881 O905 2.408 . S
Sm881 O906 2.543 . S
Sm881 O907 2.450 . S
Sm881 O908 2.681 1_556 S
Sm881 O909 2.464 . S
Sm881 O910 2.396 . S
C882 Sm880 2.846 . S
C882 C883 1.506 . S
C882 O900 1.261 . S
C882 O901 1.242 . S
C883 C882 1.506 . S
C883 C884 1.358 . S
C883 C888 1.382 . S
C884 C883 1.358 . S
C884 C885 1.385 . S
C884 H912 0.930 . S
C885 C884 1.385 . S
C885 C886 1.395 . S
C885 H913 0.929 . S
C886 C885 1.395 . S
C886 C887 1.335 . S
C887 C886 1.335 . S
C887 C888 1.398 . S
C887 H914 0.930 . S
C888 C883 1.382 . S
C888 C887 1.398 . S
C888 H915 0.929 . S
C889 O902 1.271 1_554 S
C889 O903 1.251 . S
C890 O904 1.252 . S
C890 O905 1.272 1_554 S
C891 Sm881 2.846 . S
C891 C892 1.506 . S
C891 O906 1.261 . S
C891 O907 1.242 . S
C892 C891 1.506 . S
C892 C893 1.358 . S
C892 C897 1.382 . S
C893 C892 1.358 . S
C893 C894 1.385 . S
C893 H916 0.930 . S
C894 C893 1.385 . S
C894 C895 1.395 . S
C894 H917 0.929 . S
C895 C894 1.395 . S
C895 C896 1.335 . S
C896 C895 1.335 . S
C896 C897 1.398 . S
C896 H918 0.930 . S
C897 C892 1.382 . S
C897 C896 1.398 . S
C897 H919 0.929 . S
C898 O908 1.271 1_556 S
C898 O909 1.251 . S
C899 O910 1.252 . S
C899 O911 1.272 1_556 S
O900 Sm880 2.543 . S
O900 C882 1.261 . S
O901 Sm880 2.450 . S
O901 C882 1.242 . S
O902 Sm880 2.681 1_556 S
O902 Sm881 2.386 . S
O902 C889 1.271 1_556 S
O903 Sm880 2.464 . S
O903 C889 1.251 . S
O904 Sm880 2.396 . S
O904 C890 1.252 . S
O905 Sm881 2.408 . S
O905 C890 1.272 1_556 S
O906 Sm881 2.543 . S
O906 C891 1.261 . S
O907 Sm881 2.450 . S
O907 C891 1.242 . S
O908 Sm880 2.386 . S
O908 Sm881 2.681 1_554 S
O908 C898 1.271 1_554 S
O909 Sm881 2.464 . S
O909 C898 1.251 . S
O910 Sm881 2.396 . S
O910 C899 1.252 . S
O911 Sm880 2.408 . S
O911 C899 1.272 1_554 S
H912 C884 0.930 . S
H913 C885 0.929 . S
H914 C887 0.930 . S
H915 C888 0.929 . S
H916 C893 0.930 . S
H917 C894 0.929 . S
H918 C896 0.930 . S
H919 C897 0.929 . S
Sm920 C922 2.846 . S
Sm920 O940 2.543 . S
Sm920 O941 2.450 . S
Sm920 O942 2.681 1_554 S
Sm920 O943 2.464 . S
Sm920 O944 2.396 . S
Sm920 O948 2.386 . S
Sm920 O951 2.408 . S
Sm921 C931 2.846 . S
Sm921 O942 2.386 . S
Sm921 O945 2.408 . S
Sm921 O946 2.543 . S
Sm921 O947 2.450 . S
Sm921 O948 2.681 1_556 S
Sm921 O949 2.464 . S
Sm921 O950 2.396 . S
C922 Sm920 2.846 . S
C922 C923 1.506 . S
C922 O940 1.261 . S
C922 O941 1.242 . S
C923 C922 1.506 . S
C923 C924 1.358 . S
C923 C928 1.382 . S
C924 C923 1.358 . S
C924 C925 1.385 . S
C924 H952 0.930 . S
C925 C924 1.385 . S
C925 C926 1.395 . S
C925 H953 0.929 . S
C926 C925 1.395 . S
C926 C927 1.335 . S
C927 C926 1.335 . S
C927 C928 1.398 . S
C927 H954 0.930 . S
C928 C923 1.382 . S
C928 C927 1.398 . S
C928 H955 0.929 . S
C929 O942 1.271 1_554 S
C929 O943 1.251 . S
C930 O944 1.252 . S
C930 O945 1.272 1_554 S
C931 Sm921 2.846 . S
C931 C932 1.506 . S
C931 O946 1.261 . S
C931 O947 1.242 . S
C932 C931 1.506 . S
C932 C933 1.358 . S
C932 C937 1.382 . S
C933 C932 1.358 . S
C933 C934 1.385 . S
C933 H956 0.930 . S
C934 C933 1.385 . S
C934 C935 1.395 . S
C934 H957 0.929 . S
C935 C934 1.395 . S
C935 C936 1.335 . S
C936 C935 1.335 . S
C936 C937 1.398 . S
C936 H958 0.930 . S
C937 C932 1.382 . S
C937 C936 1.398 . S
C937 H959 0.929 . S
C938 O948 1.271 1_556 S
C938 O949 1.251 . S
C939 O950 1.252 . S
C939 O951 1.272 1_556 S
O940 Sm920 2.543 . S
O940 C922 1.261 . S
O941 Sm920 2.450 . S
O941 C922 1.242 . S
O942 Sm920 2.681 1_556 S
O942 Sm921 2.386 . S
O942 C929 1.271 1_556 S
O943 Sm920 2.464 . S
O943 C929 1.251 . S
O944 Sm920 2.396 . S
O944 C930 1.252 . S
O945 Sm921 2.408 . S
O945 C930 1.272 1_556 S
O946 Sm921 2.543 . S
O946 C931 1.261 . S
O947 Sm921 2.450 . S
O947 C931 1.242 . S
O948 Sm920 2.386 . S
O948 Sm921 2.681 1_554 S
O948 C938 1.271 1_554 S
O949 Sm921 2.464 . S
O949 C938 1.251 . S
O950 Sm921 2.396 . S
O950 C939 1.252 . S
O951 Sm920 2.408 . S
O951 C939 1.272 1_554 S
H952 C924 0.930 . S
H953 C925 0.929 . S
H954 C927 0.930 . S
H955 C928 0.929 . S
H956 C933 0.930 . S
H957 C934 0.929 . S
H958 C936 0.930 . S
H959 C937 0.929 . S
Sm960 C962 2.846 . S
Sm960 O980 2.543 . S
Sm960 O981 2.450 . S
Sm960 O982 2.681 . S
Sm960 O983 2.464 . S
Sm960 O984 2.396 . S
Sm960 O988 2.386 . S
Sm960 O991 2.408 . S
Sm961 C971 2.846 . S
Sm961 O982 2.386 . S
Sm961 O985 2.408 . S
Sm961 O986 2.543 . S
Sm961 O987 2.450 . S
Sm961 O988 2.681 . S
Sm961 O989 2.464 . S
Sm961 O990 2.396 . S
C962 Sm960 2.846 . S
C962 C963 1.506 . S
C962 O980 1.261 . S
C962 O981 1.242 . S
C963 C962 1.506 . S
C963 C964 1.358 . S
C963 C968 1.382 . S
C964 C963 1.358 . S
C964 C965 1.385 1_565 S
C964 H992 0.930 1_565 S
C965 C964 1.385 1_545 S
C965 C966 1.395 1_545 S
C965 H993 0.929 . S
C966 C965 1.395 1_565 S
C966 C967 1.335 . S
C967 C966 1.335 . S
C967 C968 1.398 . S
C967 H994 0.930 . S
C968 C963 1.382 . S
C968 C967 1.398 . S
C968 H995 0.929 . S
C969 O982 1.271 . S
C969 O983 1.251 . S
C970 O984 1.252 . S
C970 O985 1.272 . S
C971 Sm961 2.846 . S
C971 C972 1.506 . S
C971 O986 1.261 . S
C971 O987 1.242 . S
C972 C971 1.506 . S
C972 C973 1.358 . S
C972 C977 1.382 . S
C973 C972 1.358 . S
C973 C974 1.385 . S
C973 H996 0.930 . S
C974 C973 1.385 . S
C974 C975 1.395 . S
C974 H997 0.929 . S
C975 C974 1.395 . S
C975 C976 1.335 . S
C976 C975 1.335 . S
C976 C977 1.398 . S
C976 H998 0.930 . S
C977 C972 1.382 . S
C977 C976 1.398 . S
C977 H999 0.929 . S
C978 O988 1.271 . S
C978 O989 1.251 . S
C979 O990 1.252 . S
C979 O991 1.272 . S
O980 Sm960 2.543 . S
O980 C962 1.261 . S
O981 Sm960 2.450 . S
O981 C962 1.242 . S
O982 Sm960 2.681 . S
O982 Sm961 2.386 . S
O982 C969 1.271 . S
O983 Sm960 2.464 . S
O983 C969 1.251 . S
O984 Sm960 2.396 . S
O984 C970 1.252 . S
O985 Sm961 2.408 . S
O985 C970 1.272 . S
O986 Sm961 2.543 . S
O986 C971 1.261 . S
O987 Sm961 2.450 . S
O987 C971 1.242 . S
O988 Sm960 2.386 . S
O988 Sm961 2.681 . S
O988 C978 1.271 . S
O989 Sm961 2.464 . S
O989 C978 1.251 . S
O990 Sm961 2.396 . S
O990 C979 1.252 . S
O991 Sm960 2.408 . S
O991 C979 1.272 . S
H992 C964 0.930 1_545 S
H993 C965 0.929 . S
H994 C967 0.930 . S
H995 C968 0.929 . S
H996 C973 0.930 . S
H997 C974 0.929 . S
H998 C976 0.930 . S
H999 C977 0.929 . S
Sm1000 C1002 2.846 . S
Sm1000 O1020 2.543 . S
Sm1000 O1021 2.450 . S
Sm1000 O1022 2.681 . S
Sm1000 O1023 2.464 . S
Sm1000 O1024 2.396 . S
Sm1000 O1028 2.386 . S
Sm1000 O1031 2.408 . S
Sm1001 C1011 2.846 . S
Sm1001 O1022 2.386 . S
Sm1001 O1025 2.408 . S
Sm1001 O1026 2.543 . S
Sm1001 O1027 2.450 . S
Sm1001 O1028 2.681 . S
Sm1001 O1029 2.464 . S
Sm1001 O1030 2.396 . S
C1002 Sm1000 2.846 . S
C1002 C1003 1.506 . S
C1002 O1020 1.261 . S
C1002 O1021 1.242 . S
C1003 C1002 1.506 . S
C1003 C1004 1.358 . S
C1003 C1008 1.382 . S
C1004 C1003 1.358 . S
C1004 C1005 1.385 1_455 S
C1004 H1032 0.930 1_455 S
C1005 C1004 1.385 1_655 S
C1005 C1006 1.395 1_655 S
C1005 H1033 0.929 . S
C1006 C1005 1.395 1_455 S
C1006 C1007 1.335 . S
C1007 C1006 1.335 . S
C1007 C1008 1.398 . S
C1007 H1034 0.930 . S
C1008 C1003 1.382 . S
C1008 C1007 1.398 . S
C1008 H1035 0.929 . S
C1009 O1022 1.271 . S
C1009 O1023 1.251 . S
C1010 O1024 1.252 . S
C1010 O1025 1.272 . S
C1011 Sm1001 2.846 . S
C1011 C1012 1.506 . S
C1011 O1026 1.261 . S
C1011 O1027 1.242 . S
C1012 C1011 1.506 . S
C1012 C1013 1.358 . S
C1012 C1017 1.382 . S
C1013 C1012 1.358 . S
C1013 C1014 1.385 . S
C1013 H1036 0.930 . S
C1014 C1013 1.385 . S
C1014 C1015 1.395 . S
C1014 H1037 0.929 . S
C1015 C1014 1.395 . S
C1015 C1016 1.335 . S
C1016 C1015 1.335 . S
C1016 C1017 1.398 . S
C1016 H1038 0.930 . S
C1017 C1012 1.382 . S
C1017 C1016 1.398 . S
C1017 H1039 0.929 . S
C1018 O1028 1.271 . S
C1018 O1029 1.251 . S
C1019 O1030 1.252 . S
C1019 O1031 1.272 . S
O1020 Sm1000 2.543 . S
O1020 C1002 1.261 . S
O1021 Sm1000 2.450 . S
O1021 C1002 1.242 . S
O1022 Sm1000 2.681 . S
O1022 Sm1001 2.386 . S
O1022 C1009 1.271 . S
O1023 Sm1000 2.464 . S
O1023 C1009 1.251 . S
O1024 Sm1000 2.396 . S
O1024 C1010 1.252 . S
O1025 Sm1001 2.408 . S
O1025 C1010 1.272 . S
O1026 Sm1001 2.543 . S
O1026 C1011 1.261 . S
O1027 Sm1001 2.450 . S
O1027 C1011 1.242 . S
O1028 Sm1000 2.386 . S
O1028 Sm1001 2.681 . S
O1028 C1018 1.271 . S
O1029 Sm1001 2.464 . S
O1029 C1018 1.251 . S
O1030 Sm1001 2.396 . S
O1030 C1019 1.252 . S
O1031 Sm1000 2.408 . S
O1031 C1019 1.272 . S
H1032 C1004 0.930 1_655 S
H1033 C1005 0.929 . S
H1034 C1007 0.930 . S
H1035 C1008 0.929 . S
H1036 C1013 0.930 . S
H1037 C1014 0.929 . S
H1038 C1016 0.930 . S
H1039 C1017 0.929 . S
Sm1040 C1042 2.846 . S
Sm1040 O1060 2.543 . S
Sm1040 O1061 2.450 . S
Sm1040 O1062 2.681 . S
Sm1040 O1063 2.464 . S
Sm1040 O1064 2.396 . S
Sm1040 O1068 2.386 . S
Sm1040 O1071 2.408 . S
Sm1041 C1051 2.846 . S
Sm1041 O1062 2.386 . S
Sm1041 O1065 2.408 . S
Sm1041 O1066 2.543 . S
Sm1041 O1067 2.450 . S
Sm1041 O1068 2.681 . S
Sm1041 O1069 2.464 . S
Sm1041 O1070 2.396 . S
C1042 Sm1040 2.846 . S
C1042 C1043 1.506 . S
C1042 O1060 1.261 . S
C1042 O1061 1.242 . S
C1043 C1042 1.506 . S
C1043 C1044 1.358 . S
C1043 C1048 1.382 . S
C1044 C1043 1.358 . S
C1044 C1045 1.385 . S
C1044 H1072 0.930 . S
C1045 C1044 1.385 . S
C1045 C1046 1.395 . S
C1045 H1073 0.929 . S
C1046 C1045 1.395 . S
C1046 C1047 1.335 . S
C1047 C1046 1.335 . S
C1047 C1048 1.398 . S
C1047 H1074 0.930 . S
C1048 C1043 1.382 . S
C1048 C1047 1.398 . S
C1048 H1075 0.929 . S
C1049 O1062 1.271 . S
C1049 O1063 1.251 . S
C1050 O1064 1.252 . S
C1050 O1065 1.272 . S
C1051 Sm1041 2.846 . S
C1051 C1052 1.506 . S
C1051 O1066 1.261 . S
C1051 O1067 1.242 . S
C1052 C1051 1.506 . S
C1052 C1053 1.358 . S
C1052 C1057 1.382 . S
C1053 C1052 1.358 . S
C1053 C1054 1.385 . S
C1053 H1076 0.930 . S
C1054 C1053 1.385 . S
C1054 C1055 1.395 . S
C1054 H1077 0.929 . S
C1055 C1054 1.395 . S
C1055 C1056 1.335 . S
C1056 C1055 1.335 . S
C1056 C1057 1.398 . S
C1056 H1078 0.930 . S
C1057 C1052 1.382 . S
C1057 C1056 1.398 . S
C1057 H1079 0.929 . S
C1058 O1068 1.271 . S
C1058 O1069 1.251 . S
C1059 O1070 1.252 . S
C1059 O1071 1.272 . S
O1060 Sm1040 2.543 . S
O1060 C1042 1.261 . S
O1061 Sm1040 2.450 . S
O1061 C1042 1.242 . S
O1062 Sm1040 2.681 . S
O1062 Sm1041 2.386 . S
O1062 C1049 1.271 . S
O1063 Sm1040 2.464 . S
O1063 C1049 1.251 . S
O1064 Sm1040 2.396 . S
O1064 C1050 1.252 . S
O1065 Sm1041 2.408 . S
O1065 C1050 1.272 . S
O1066 Sm1041 2.543 . S
O1066 C1051 1.261 . S
O1067 Sm1041 2.450 . S
O1067 C1051 1.242 . S
O1068 Sm1040 2.386 . S
O1068 Sm1041 2.681 . S
O1068 C1058 1.271 . S
O1069 Sm1041 2.464 . S
O1069 C1058 1.251 . S
O1070 Sm1041 2.396 . S
O1070 C1059 1.252 . S
O1071 Sm1040 2.408 . S
O1071 C1059 1.272 . S
H1072 C1044 0.930 . S
H1073 C1045 0.929 . S
H1074 C1047 0.930 . S
H1075 C1048 0.929 . S
H1076 C1053 0.930 . S
H1077 C1054 0.929 . S
H1078 C1056 0.930 . S
H1079 C1057 0.929 . S
Sm1080 C1082 2.846 . S
Sm1080 O1100 2.543 . S
Sm1080 O1101 2.450 . S
Sm1080 O1102 2.681 1_554 S
Sm1080 O1103 2.464 . S
Sm1080 O1104 2.396 . S
Sm1080 O1108 2.386 . S
Sm1080 O1111 2.408 . S
Sm1081 C1091 2.846 . S
Sm1081 O1102 2.386 . S
Sm1081 O1105 2.408 . S
Sm1081 O1106 2.543 . S
Sm1081 O1107 2.450 . S
Sm1081 O1108 2.681 1_556 S
Sm1081 O1109 2.464 . S
Sm1081 O1110 2.396 . S
C1082 Sm1080 2.846 . S
C1082 C1083 1.506 . S
C1082 O1100 1.261 . S
C1082 O1101 1.242 . S
C1083 C1082 1.506 . S
C1083 C1084 1.358 . S
C1083 C1088 1.382 . S
C1084 C1083 1.358 . S
C1084 C1085 1.385 . S
C1084 H1112 0.930 . S
C1085 C1084 1.385 . S
C1085 C1086 1.395 . S
C1085 H1113 0.929 . S
C1086 C1085 1.395 . S
C1086 C1087 1.335 . S
C1087 C1086 1.335 . S
C1087 C1088 1.398 . S
C1087 H1114 0.930 . S
C1088 C1083 1.382 . S
C1088 C1087 1.398 . S
C1088 H1115 0.929 . S
C1089 O1102 1.271 1_554 S
C1089 O1103 1.251 . S
C1090 O1104 1.252 . S
C1090 O1105 1.272 1_554 S
C1091 Sm1081 2.846 . S
C1091 C1092 1.506 . S
C1091 O1106 1.261 . S
C1091 O1107 1.242 . S
C1092 C1091 1.506 . S
C1092 C1093 1.358 . S
C1092 C1097 1.382 . S
C1093 C1092 1.358 . S
C1093 C1094 1.385 . S
C1093 H1116 0.930 . S
C1094 C1093 1.385 . S
C1094 C1095 1.395 . S
C1094 H1117 0.929 . S
C1095 C1094 1.395 . S
C1095 C1096 1.335 . S
C1096 C1095 1.335 . S
C1096 C1097 1.398 . S
C1096 H1118 0.930 . S
C1097 C1092 1.382 . S
C1097 C1096 1.398 . S
C1097 H1119 0.929 . S
C1098 O1108 1.271 1_556 S
C1098 O1109 1.251 . S
C1099 O1110 1.252 . S
C1099 O1111 1.272 1_556 S
O1100 Sm1080 2.543 . S
O1100 C1082 1.261 . S
O1101 Sm1080 2.450 . S
O1101 C1082 1.242 . S
O1102 Sm1080 2.681 1_556 S
O1102 Sm1081 2.386 . S
O1102 C1089 1.271 1_556 S
O1103 Sm1080 2.464 . S
O1103 C1089 1.251 . S
O1104 Sm1080 2.396 . S
O1104 C1090 1.252 . S
O1105 Sm1081 2.408 . S
O1105 C1090 1.272 1_556 S
O1106 Sm1081 2.543 . S
O1106 C1091 1.261 . S
O1107 Sm1081 2.450 . S
O1107 C1091 1.242 . S
O1108 Sm1080 2.386 . S
O1108 Sm1081 2.681 1_554 S
O1108 C1098 1.271 1_554 S
O1109 Sm1081 2.464 . S
O1109 C1098 1.251 . S
O1110 Sm1081 2.396 . S
O1110 C1099 1.252 . S
O1111 Sm1080 2.408 . S
O1111 C1099 1.272 1_554 S
H1112 C1084 0.930 . S
H1113 C1085 0.929 . S
H1114 C1087 0.930 . S
H1115 C1088 0.929 . S
H1116 C1093 0.930 . S
H1117 C1094 0.929 . S
H1118 C1096 0.930 . S
H1119 C1097 0.929 . S
Sm1120 C1122 2.846 . S
Sm1120 O1140 2.543 . S
Sm1120 O1141 2.450 . S
Sm1120 O1142 2.681 1_554 S
Sm1120 O1143 2.464 . S
Sm1120 O1144 2.396 . S
Sm1120 O1148 2.386 . S
Sm1120 O1151 2.408 . S
Sm1121 C1131 2.846 . S
Sm1121 O1142 2.386 . S
Sm1121 O1145 2.408 . S
Sm1121 O1146 2.543 . S
Sm1121 O1147 2.450 . S
Sm1121 O1148 2.681 1_556 S
Sm1121 O1149 2.464 . S
Sm1121 O1150 2.396 . S
C1122 Sm1120 2.846 . S
C1122 C1123 1.506 . S
C1122 O1140 1.261 . S
C1122 O1141 1.242 . S
C1123 C1122 1.506 . S
C1123 C1124 1.358 . S
C1123 C1128 1.382 . S
C1124 C1123 1.358 . S
C1124 C1125 1.385 . S
C1124 H1152 0.930 . S
C1125 C1124 1.385 . S
C1125 C1126 1.395 . S
C1125 H1153 0.929 . S
C1126 C1125 1.395 . S
C1126 C1127 1.335 . S
C1127 C1126 1.335 . S
C1127 C1128 1.398 . S
C1127 H1154 0.930 . S
C1128 C1123 1.382 . S
C1128 C1127 1.398 . S
C1128 H1155 0.929 . S
C1129 O1142 1.271 1_554 S
C1129 O1143 1.251 . S
C1130 O1144 1.252 . S
C1130 O1145 1.272 1_554 S
C1131 Sm1121 2.846 . S
C1131 C1132 1.506 . S
C1131 O1146 1.261 . S
C1131 O1147 1.242 . S
C1132 C1131 1.506 . S
C1132 C1133 1.358 . S
C1132 C1137 1.382 . S
C1133 C1132 1.358 . S
C1133 C1134 1.385 . S
C1133 H1156 0.930 . S
C1134 C1133 1.385 . S
C1134 C1135 1.395 . S
C1134 H1157 0.929 . S
C1135 C1134 1.395 . S
C1135 C1136 1.335 . S
C1136 C1135 1.335 . S
C1136 C1137 1.398 . S
C1136 H1158 0.930 . S
C1137 C1132 1.382 . S
C1137 C1136 1.398 . S
C1137 H1159 0.929 . S
C1138 O1148 1.271 1_556 S
C1138 O1149 1.251 . S
C1139 O1150 1.252 . S
C1139 O1151 1.272 1_556 S
O1140 Sm1120 2.543 . S
O1140 C1122 1.261 . S
O1141 Sm1120 2.450 . S
O1141 C1122 1.242 . S
O1142 Sm1120 2.681 1_556 S
O1142 Sm1121 2.386 . S
O1142 C1129 1.271 1_556 S
O1143 Sm1120 2.464 . S
O1143 C1129 1.251 . S
O1144 Sm1120 2.396 . S
O1144 C1130 1.252 . S
O1145 Sm1121 2.408 . S
O1145 C1130 1.272 1_556 S
O1146 Sm1121 2.543 . S
O1146 C1131 1.261 . S
O1147 Sm1121 2.450 . S
O1147 C1131 1.242 . S
O1148 Sm1120 2.386 . S
O1148 Sm1121 2.681 1_554 S
O1148 C1138 1.271 1_554 S
O1149 Sm1121 2.464 . S
O1149 C1138 1.251 . S
O1150 Sm1121 2.396 . S
O1150 C1139 1.252 . S
O1151 Sm1120 2.408 . S
O1151 C1139 1.272 1_554 S
H1152 C1124 0.930 . S
H1153 C1125 0.929 . S
H1154 C1127 0.930 . S
H1155 C1128 0.929 . S
H1156 C1133 0.930 . S
H1157 C1134 0.929 . S
H1158 C1136 0.930 . S
H1159 C1137 0.929 . S
Sm1160 C1162 2.846 . S
Sm1160 O1180 2.543 . S
Sm1160 O1181 2.450 . S
Sm1160 O1182 2.681 1_554 S
Sm1160 O1183 2.464 . S
Sm1160 O1184 2.396 . S
Sm1160 O1188 2.386 . S
Sm1160 O1191 2.408 . S
Sm1161 C1171 2.846 . S
Sm1161 O1182 2.386 . S
Sm1161 O1185 2.408 . S
Sm1161 O1186 2.543 . S
Sm1161 O1187 2.450 . S
Sm1161 O1188 2.681 1_556 S
Sm1161 O1189 2.464 . S
Sm1161 O1190 2.396 . S
C1162 Sm1160 2.846 . S
C1162 C1163 1.506 . S
C1162 O1180 1.261 . S
C1162 O1181 1.242 . S
C1163 C1162 1.506 . S
C1163 C1164 1.358 . S
C1163 C1168 1.382 . S
C1164 C1163 1.358 . S
C1164 C1165 1.385 . S
C1164 H1192 0.930 . S
C1165 C1164 1.385 . S
C1165 C1166 1.395 . S
C1165 H1193 0.929 . S
C1166 C1165 1.395 . S
C1166 C1167 1.335 . S
C1167 C1166 1.335 . S
C1167 C1168 1.398 . S
C1167 H1194 0.930 . S
C1168 C1163 1.382 . S
C1168 C1167 1.398 . S
C1168 H1195 0.929 . S
C1169 O1182 1.271 1_554 S
C1169 O1183 1.251 . S
C1170 O1184 1.252 . S
C1170 O1185 1.272 1_554 S
C1171 Sm1161 2.846 . S
C1171 C1172 1.506 . S
C1171 O1186 1.261 . S
C1171 O1187 1.242 . S
C1172 C1171 1.506 . S
C1172 C1173 1.358 . S
C1172 C1177 1.382 . S
C1173 C1172 1.358 . S
C1173 C1174 1.385 . S
C1173 H1196 0.930 . S
C1174 C1173 1.385 . S
C1174 C1175 1.395 . S
C1174 H1197 0.929 . S
C1175 C1174 1.395 . S
C1175 C1176 1.335 . S
C1176 C1175 1.335 . S
C1176 C1177 1.398 . S
C1176 H1198 0.930 . S
C1177 C1172 1.382 . S
C1177 C1176 1.398 . S
C1177 H1199 0.929 . S
C1178 O1188 1.271 1_556 S
C1178 O1189 1.251 . S
C1179 O1190 1.252 . S
C1179 O1191 1.272 1_556 S
O1180 Sm1160 2.543 . S
O1180 C1162 1.261 . S
O1181 Sm1160 2.450 . S
O1181 C1162 1.242 . S
O1182 Sm1160 2.681 1_556 S
O1182 Sm1161 2.386 . S
O1182 C1169 1.271 1_556 S
O1183 Sm1160 2.464 . S
O1183 C1169 1.251 . S
O1184 Sm1160 2.396 . S
O1184 C1170 1.252 . S
O1185 Sm1161 2.408 . S
O1185 C1170 1.272 1_556 S
O1186 Sm1161 2.543 . S
O1186 C1171 1.261 . S
O1187 Sm1161 2.450 . S
O1187 C1171 1.242 . S
O1188 Sm1160 2.386 . S
O1188 Sm1161 2.681 1_554 S
O1188 C1178 1.271 1_554 S
O1189 Sm1161 2.464 . S
O1189 C1178 1.251 . S
O1190 Sm1161 2.396 . S
O1190 C1179 1.252 . S
O1191 Sm1160 2.408 . S
O1191 C1179 1.272 1_554 S
H1192 C1164 0.930 . S
H1193 C1165 0.929 . S
H1194 C1167 0.930 . S
H1195 C1168 0.929 . S
H1196 C1173 0.930 . S
H1197 C1174 0.929 . S
H1198 C1176 0.930 . S
H1199 C1177 0.929 . S
Sm1200 C1202 2.846 . S
Sm1200 O1220 2.543 . S
Sm1200 O1221 2.450 . S
Sm1200 O1222 2.681 . S
Sm1200 O1223 2.464 . S
Sm1200 O1224 2.396 . S
Sm1200 O1228 2.386 . S
Sm1200 O1231 2.408 . S
Sm1201 C1211 2.846 . S
Sm1201 O1222 2.386 . S
Sm1201 O1225 2.408 . S
Sm1201 O1226 2.543 . S
Sm1201 O1227 2.450 . S
Sm1201 O1228 2.681 . S
Sm1201 O1229 2.464 . S
Sm1201 O1230 2.396 . S
C1202 Sm1200 2.846 . S
C1202 C1203 1.506 . S
C1202 O1220 1.261 . S
C1202 O1221 1.242 . S
C1203 C1202 1.506 . S
C1203 C1204 1.358 . S
C1203 C1208 1.382 . S
C1204 C1203 1.358 . S
C1204 C1205 1.385 . S
C1204 H1232 0.930 . S
C1205 C1204 1.385 . S
C1205 C1206 1.395 . S
C1205 H1233 0.929 . S
C1206 C1205 1.395 . S
C1206 C1207 1.335 . S
C1207 C1206 1.335 . S
C1207 C1208 1.398 . S
C1207 H1234 0.930 . S
C1208 C1203 1.382 . S
C1208 C1207 1.398 . S
C1208 H1235 0.929 . S
C1209 O1222 1.271 . S
C1209 O1223 1.251 . S
C1210 O1224 1.252 . S
C1210 O1225 1.272 . S
C1211 Sm1201 2.846 . S
C1211 C1212 1.506 . S
C1211 O1226 1.261 . S
C1211 O1227 1.242 . S
C1212 C1211 1.506 . S
C1212 C1213 1.358 . S
C1212 C1217 1.382 . S
C1213 C1212 1.358 . S
C1213 C1214 1.385 . S
C1213 H1236 0.930 . S
C1214 C1213 1.385 . S
C1214 C1215 1.395 . S
C1214 H1237 0.929 . S
C1215 C1214 1.395 . S
C1215 C1216 1.335 . S
C1216 C1215 1.335 . S
C1216 C1217 1.398 . S
C1216 H1238 0.930 . S
C1217 C1212 1.382 . S
C1217 C1216 1.398 . S
C1217 H1239 0.929 . S
C1218 O1228 1.271 . S
C1218 O1229 1.251 . S
C1219 O1230 1.252 . S
C1219 O1231 1.272 . S
O1220 Sm1200 2.543 . S
O1220 C1202 1.261 . S
O1221 Sm1200 2.450 . S
O1221 C1202 1.242 . S
O1222 Sm1200 2.681 . S
O1222 Sm1201 2.386 . S
O1222 C1209 1.271 . S
O1223 Sm1200 2.464 . S
O1223 C1209 1.251 . S
O1224 Sm1200 2.396 . S
O1224 C1210 1.252 . S
O1225 Sm1201 2.408 . S
O1225 C1210 1.272 . S
O1226 Sm1201 2.543 . S
O1226 C1211 1.261 . S
O1227 Sm1201 2.450 . S
O1227 C1211 1.242 . S
O1228 Sm1200 2.386 . S
O1228 Sm1201 2.681 . S
O1228 C1218 1.271 . S
O1229 Sm1201 2.464 . S
O1229 C1218 1.251 . S
O1230 Sm1201 2.396 . S
O1230 C1219 1.252 . S
O1231 Sm1200 2.408 . S
O1231 C1219 1.272 . S
H1232 C1204 0.930 . S
H1233 C1205 0.929 . S
H1234 C1207 0.930 . S
H1235 C1208 0.929 . S
H1236 C1213 0.930 . S
H1237 C1214 0.929 . S
H1238 C1216 0.930 . S
H1239 C1217 0.929 . S
Sm1240 C1242 2.846 . S
Sm1240 O1260 2.543 . S
Sm1240 O1261 2.450 . S
Sm1240 O1262 2.681 . S
Sm1240 O1263 2.464 . S
Sm1240 O1264 2.396 . S
Sm1240 O1268 2.386 . S
Sm1240 O1271 2.408 . S
Sm1241 C1251 2.846 . S
Sm1241 O1262 2.386 . S
Sm1241 O1265 2.408 . S
Sm1241 O1266 2.543 . S
Sm1241 O1267 2.450 . S
Sm1241 O1268 2.681 . S
Sm1241 O1269 2.464 . S
Sm1241 O1270 2.396 . S
C1242 Sm1240 2.846 . S
C1242 C1243 1.506 . S
C1242 O1260 1.261 . S
C1242 O1261 1.242 . S
C1243 C1242 1.506 . S
C1243 C1244 1.358 . S
C1243 C1248 1.382 . S
C1244 C1243 1.358 . S
C1244 C1245 1.385 . S
C1244 H1272 0.930 . S
C1245 C1244 1.385 . S
C1245 C1246 1.395 . S
C1245 H1273 0.929 . S
C1246 C1245 1.395 . S
C1246 C1247 1.335 . S
C1247 C1246 1.335 . S
C1247 C1248 1.398 . S
C1247 H1274 0.930 . S
C1248 C1243 1.382 . S
C1248 C1247 1.398 . S
C1248 H1275 0.929 . S
C1249 O1262 1.271 . S
C1249 O1263 1.251 . S
C1250 O1264 1.252 . S
C1250 O1265 1.272 . S
C1251 Sm1241 2.846 . S
C1251 C1252 1.506 . S
C1251 O1266 1.261 . S
C1251 O1267 1.242 . S
C1252 C1251 1.506 . S
C1252 C1253 1.358 . S
C1252 C1257 1.382 . S
C1253 C1252 1.358 . S
C1253 C1254 1.385 . S
C1253 H1276 0.930 . S
C1254 C1253 1.385 . S
C1254 C1255 1.395 . S
C1254 H1277 0.929 . S
C1255 C1254 1.395 . S
C1255 C1256 1.335 . S
C1256 C1255 1.335 . S
C1256 C1257 1.398 . S
C1256 H1278 0.930 . S
C1257 C1252 1.382 . S
C1257 C1256 1.398 . S
C1257 H1279 0.929 . S
C1258 O1268 1.271 . S
C1258 O1269 1.251 . S
C1259 O1270 1.252 . S
C1259 O1271 1.272 . S
O1260 Sm1240 2.543 . S
O1260 C1242 1.261 . S
O1261 Sm1240 2.450 . S
O1261 C1242 1.242 . S
O1262 Sm1240 2.681 . S
O1262 Sm1241 2.386 . S
O1262 C1249 1.271 . S
O1263 Sm1240 2.464 . S
O1263 C1249 1.251 . S
O1264 Sm1240 2.396 . S
O1264 C1250 1.252 . S
O1265 Sm1241 2.408 . S
O1265 C1250 1.272 . S
O1266 Sm1241 2.543 . S
O1266 C1251 1.261 . S
O1267 Sm1241 2.450 . S
O1267 C1251 1.242 . S
O1268 Sm1240 2.386 . S
O1268 Sm1241 2.681 . S
O1268 C1258 1.271 . S
O1269 Sm1241 2.464 . S
O1269 C1258 1.251 . S
O1270 Sm1241 2.396 . S
O1270 C1259 1.252 . S
O1271 Sm1240 2.408 . S
O1271 C1259 1.272 . S
H1272 C1244 0.930 . S
H1273 C1245 0.929 . S
H1274 C1247 0.930 . S
H1275 C1248 0.929 . S
H1276 C1253 0.930 . S
H1277 C1254 0.929 . S
H1278 C1256 0.930 . S
H1279 C1257 0.929 . S
Sm1280 C1282 2.846 . S
Sm1280 O1300 2.543 . S
Sm1280 O1301 2.450 . S
Sm1280 O1302 2.681 . S
Sm1280 O1303 2.464 . S
Sm1280 O1304 2.396 . S
Sm1280 O1308 2.386 . S
Sm1280 O1311 2.408 . S
Sm1281 C1291 2.846 . S
Sm1281 O1302 2.386 . S
Sm1281 O1305 2.408 . S
Sm1281 O1306 2.543 . S
Sm1281 O1307 2.450 . S
Sm1281 O1308 2.681 . S
Sm1281 O1309 2.464 . S
Sm1281 O1310 2.396 . S
C1282 Sm1280 2.846 . S
C1282 C1283 1.506 . S
C1282 O1300 1.261 . S
C1282 O1301 1.242 . S
C1283 C1282 1.506 . S
C1283 C1284 1.358 . S
C1283 C1288 1.382 . S
C1284 C1283 1.358 . S
C1284 C1285 1.385 . S
C1284 H1312 0.930 . S
C1285 C1284 1.385 . S
C1285 C1286 1.395 . S
C1285 H1313 0.929 . S
C1286 C1285 1.395 . S
C1286 C1287 1.335 . S
C1287 C1286 1.335 . S
C1287 C1288 1.398 . S
C1287 H1314 0.930 . S
C1288 C1283 1.382 . S
C1288 C1287 1.398 . S
C1288 H1315 0.929 . S
C1289 O1302 1.271 . S
C1289 O1303 1.251 . S
C1290 O1304 1.252 . S
C1290 O1305 1.272 . S
C1291 Sm1281 2.846 . S
C1291 C1292 1.506 . S
C1291 O1306 1.261 . S
C1291 O1307 1.242 . S
C1292 C1291 1.506 . S
C1292 C1293 1.358 . S
C1292 C1297 1.382 . S
C1293 C1292 1.358 . S
C1293 C1294 1.385 . S
C1293 H1316 0.930 . S
C1294 C1293 1.385 . S
C1294 C1295 1.395 . S
C1294 H1317 0.929 . S
C1295 C1294 1.395 . S
C1295 C1296 1.335 . S
C1296 C1295 1.335 . S
C1296 C1297 1.398 . S
C1296 H1318 0.930 . S
C1297 C1292 1.382 . S
C1297 C1296 1.398 . S
C1297 H1319 0.929 . S
C1298 O1308 1.271 . S
C1298 O1309 1.251 . S
C1299 O1310 1.252 . S
C1299 O1311 1.272 . S
O1300 Sm1280 2.543 . S
O1300 C1282 1.261 . S
O1301 Sm1280 2.450 . S
O1301 C1282 1.242 . S
O1302 Sm1280 2.681 . S
O1302 Sm1281 2.386 . S
O1302 C1289 1.271 . S
O1303 Sm1280 2.464 . S
O1303 C1289 1.251 . S
O1304 Sm1280 2.396 . S
O1304 C1290 1.252 . S
O1305 Sm1281 2.408 . S
O1305 C1290 1.272 . S
O1306 Sm1281 2.543 . S
O1306 C1291 1.261 . S
O1307 Sm1281 2.450 . S
O1307 C1291 1.242 . S
O1308 Sm1280 2.386 . S
O1308 Sm1281 2.681 . S
O1308 C1298 1.271 . S
O1309 Sm1281 2.464 . S
O1309 C1298 1.251 . S
O1310 Sm1281 2.396 . S
O1310 C1299 1.252 . S
O1311 Sm1280 2.408 . S
O1311 C1299 1.272 . S
H1312 C1284 0.930 . S
H1313 C1285 0.929 . S
H1314 C1287 0.930 . S
H1315 C1288 0.929 . S
H1316 C1293 0.930 . S
H1317 C1294 0.929 . S
H1318 C1296 0.930 . S
H1319 C1297 0.929 . S
Sm1320 C1322 2.846 . S
Sm1320 O1340 2.543 . S
Sm1320 O1341 2.450 . S
Sm1320 O1342 2.681 . S
Sm1320 O1343 2.464 . S
Sm1320 O1344 2.396 . S
Sm1320 O1348 2.386 . S
Sm1320 O1351 2.408 . S
Sm1321 C1331 2.846 . S
Sm1321 O1342 2.386 . S
Sm1321 O1345 2.408 . S
Sm1321 O1346 2.543 . S
Sm1321 O1347 2.450 . S
Sm1321 O1348 2.681 . S
Sm1321 O1349 2.464 . S
Sm1321 O1350 2.396 . S
C1322 Sm1320 2.846 . S
C1322 C1323 1.506 . S
C1322 O1340 1.261 . S
C1322 O1341 1.242 . S
C1323 C1322 1.506 . S
C1323 C1324 1.358 . S
C1323 C1328 1.382 . S
C1324 C1323 1.358 . S
C1324 C1325 1.385 . S
C1324 H1352 0.930 . S
C1325 C1324 1.385 . S
C1325 C1326 1.395 . S
C1325 H1353 0.929 . S
C1326 C1325 1.395 . S
C1326 C1327 1.335 . S
C1327 C1326 1.335 . S
C1327 C1328 1.398 . S
C1327 H1354 0.930 . S
C1328 C1323 1.382 . S
C1328 C1327 1.398 . S
C1328 H1355 0.929 . S
C1329 O1342 1.271 . S
C1329 O1343 1.251 . S
C1330 O1344 1.252 . S
C1330 O1345 1.272 . S
C1331 Sm1321 2.846 . S
C1331 C1332 1.506 . S
C1331 O1346 1.261 . S
C1331 O1347 1.242 . S
C1332 C1331 1.506 . S
C1332 C1333 1.358 1_455 S
C1332 C1337 1.382 . S
C1333 C1332 1.358 1_655 S
C1333 C1334 1.385 . S
C1333 H1356 0.930 . S
C1334 C1333 1.385 . S
C1334 C1335 1.395 1_655 S
C1334 H1357 0.929 . S
C1335 C1334 1.395 1_455 S
C1335 C1336 1.335 . S
C1336 C1335 1.335 . S
C1336 C1337 1.398 . S
C1336 H1358 0.930 . S
C1337 C1332 1.382 . S
C1337 C1336 1.398 . S
C1337 H1359 0.929 . S
C1338 O1348 1.271 . S
C1338 O1349 1.251 . S
C1339 O1350 1.252 . S
C1339 O1351 1.272 . S
O1340 Sm1320 2.543 . S
O1340 C1322 1.261 . S
O1341 Sm1320 2.450 . S
O1341 C1322 1.242 . S
O1342 Sm1320 2.681 . S
O1342 Sm1321 2.386 . S
O1342 C1329 1.271 . S
O1343 Sm1320 2.464 . S
O1343 C1329 1.251 . S
O1344 Sm1320 2.396 . S
O1344 C1330 1.252 . S
O1345 Sm1321 2.408 . S
O1345 C1330 1.272 . S
O1346 Sm1321 2.543 . S
O1346 C1331 1.261 . S
O1347 Sm1321 2.450 . S
O1347 C1331 1.242 . S
O1348 Sm1320 2.386 . S
O1348 Sm1321 2.681 . S
O1348 C1338 1.271 . S
O1349 Sm1321 2.464 . S
O1349 C1338 1.251 . S
O1350 Sm1321 2.396 . S
O1350 C1339 1.252 . S
O1351 Sm1320 2.408 . S
O1351 C1339 1.272 . S
H1352 C1324 0.930 . S
H1353 C1325 0.929 . S
H1354 C1327 0.930 . S
H1355 C1328 0.929 . S
H1356 C1333 0.930 . S
H1357 C1334 0.929 . S
H1358 C1336 0.930 . S
H1359 C1337 0.929 . S
Sm1360 C1362 2.846 . S
Sm1360 O1380 2.543 . S
Sm1360 O1381 2.450 . S
Sm1360 O1382 2.681 . S
Sm1360 O1383 2.464 . S
Sm1360 O1384 2.396 . S
Sm1360 O1388 2.386 . S
Sm1360 O1391 2.408 . S
Sm1361 C1371 2.846 . S
Sm1361 O1382 2.386 . S
Sm1361 O1385 2.408 . S
Sm1361 O1386 2.543 . S
Sm1361 O1387 2.450 . S
Sm1361 O1388 2.681 . S
Sm1361 O1389 2.464 . S
Sm1361 O1390 2.396 . S
C1362 Sm1360 2.846 . S
C1362 C1363 1.506 . S
C1362 O1380 1.261 . S
C1362 O1381 1.242 . S
C1363 C1362 1.506 . S
C1363 C1364 1.358 . S
C1363 C1368 1.382 . S
C1364 C1363 1.358 . S
C1364 C1365 1.385 . S
C1364 H1392 0.930 . S
C1365 C1364 1.385 . S
C1365 C1366 1.395 . S
C1365 H1393 0.929 . S
C1366 C1365 1.395 . S
C1366 C1367 1.335 . S
C1367 C1366 1.335 . S
C1367 C1368 1.398 . S
C1367 H1394 0.930 . S
C1368 C1363 1.382 . S
C1368 C1367 1.398 . S
C1368 H1395 0.929 . S
C1369 O1382 1.271 . S
C1369 O1383 1.251 . S
C1370 O1384 1.252 . S
C1370 O1385 1.272 . S
C1371 Sm1361 2.846 . S
C1371 C1372 1.506 . S
C1371 O1386 1.261 . S
C1371 O1387 1.242 . S
C1372 C1371 1.506 . S
C1372 C1373 1.358 . S
C1372 C1377 1.382 . S
C1373 C1372 1.358 . S
C1373 C1374 1.385 . S
C1373 H1396 0.930 . S
C1374 C1373 1.385 . S
C1374 C1375 1.395 . S
C1374 H1397 0.929 . S
C1375 C1374 1.395 . S
C1375 C1376 1.335 . S
C1376 C1375 1.335 . S
C1376 C1377 1.398 . S
C1376 H1398 0.930 . S
C1377 C1372 1.382 . S
C1377 C1376 1.398 . S
C1377 H1399 0.929 . S
C1378 O1388 1.271 . S
C1378 O1389 1.251 . S
C1379 O1390 1.252 . S
C1379 O1391 1.272 . S
O1380 Sm1360 2.543 . S
O1380 C1362 1.261 . S
O1381 Sm1360 2.450 . S
O1381 C1362 1.242 . S
O1382 Sm1360 2.681 . S
O1382 Sm1361 2.386 . S
O1382 C1369 1.271 . S
O1383 Sm1360 2.464 . S
O1383 C1369 1.251 . S
O1384 Sm1360 2.396 . S
O1384 C1370 1.252 . S
O1385 Sm1361 2.408 . S
O1385 C1370 1.272 . S
O1386 Sm1361 2.543 . S
O1386 C1371 1.261 . S
O1387 Sm1361 2.450 . S
O1387 C1371 1.242 . S
O1388 Sm1360 2.386 . S
O1388 Sm1361 2.681 . S
O1388 C1378 1.271 . S
O1389 Sm1361 2.464 . S
O1389 C1378 1.251 . S
O1390 Sm1361 2.396 . S
O1390 C1379 1.252 . S
O1391 Sm1360 2.408 . S
O1391 C1379 1.272 . S
H1392 C1364 0.930 . S
H1393 C1365 0.929 . S
H1394 C1367 0.930 . S
H1395 C1368 0.929 . S
H1396 C1373 0.930 . S
H1397 C1374 0.929 . S
H1398 C1376 0.930 . S
H1399 C1377 0.929 . S
Sm1400 C1402 2.846 . S
Sm1400 O1420 2.543 . S
Sm1400 O1421 2.450 . S
Sm1400 O1422 2.681 . S
Sm1400 O1423 2.464 . S
Sm1400 O1424 2.396 . S
Sm1400 O1428 2.386 . S
Sm1400 O1431 2.408 . S
Sm1401 C1411 2.846 . S
Sm1401 O1422 2.386 . S
Sm1401 O1425 2.408 . S
Sm1401 O1426 2.543 . S
Sm1401 O1427 2.450 . S
Sm1401 O1428 2.681 . S
Sm1401 O1429 2.464 . S
Sm1401 O1430 2.396 . S
C1402 Sm1400 2.846 . S
C1402 C1403 1.506 . S
C1402 O1420 1.261 . S
C1402 O1421 1.242 . S
C1403 C1402 1.506 . S
C1403 C1404 1.358 . S
C1403 C1408 1.382 . S
C1404 C1403 1.358 . S
C1404 C1405 1.385 . S
C1404 H1432 0.930 . S
C1405 C1404 1.385 . S
C1405 C1406 1.395 . S
C1405 H1433 0.929 . S
C1406 C1405 1.395 . S
C1406 C1407 1.335 . S
C1407 C1406 1.335 . S
C1407 C1408 1.398 . S
C1407 H1434 0.930 . S
C1408 C1403 1.382 . S
C1408 C1407 1.398 . S
C1408 H1435 0.929 . S
C1409 O1422 1.271 . S
C1409 O1423 1.251 . S
C1410 O1424 1.252 . S
C1410 O1425 1.272 . S
C1411 Sm1401 2.846 . S
C1411 C1412 1.506 . S
C1411 O1426 1.261 . S
C1411 O1427 1.242 . S
C1412 C1411 1.506 . S
C1412 C1413 1.358 1_565 S
C1412 C1417 1.382 . S
C1413 C1412 1.358 1_545 S
C1413 C1414 1.385 . S
C1413 H1436 0.930 . S
C1414 C1413 1.385 . S
C1414 C1415 1.395 1_545 S
C1414 H1437 0.929 . S
C1415 C1414 1.395 1_565 S
C1415 C1416 1.335 . S
C1416 C1415 1.335 . S
C1416 C1417 1.398 . S
C1416 H1438 0.930 . S
C1417 C1412 1.382 . S
C1417 C1416 1.398 . S
C1417 H1439 0.929 . S
C1418 O1428 1.271 . S
C1418 O1429 1.251 . S
C1419 O1430 1.252 . S
C1419 O1431 1.272 . S
O1420 Sm1400 2.543 . S
O1420 C1402 1.261 . S
O1421 Sm1400 2.450 . S
O1421 C1402 1.242 . S
O1422 Sm1400 2.681 . S
O1422 Sm1401 2.386 . S
O1422 C1409 1.271 . S
O1423 Sm1400 2.464 . S
O1423 C1409 1.251 . S
O1424 Sm1400 2.396 . S
O1424 C1410 1.252 . S
O1425 Sm1401 2.408 . S
O1425 C1410 1.272 . S
O1426 Sm1401 2.543 . S
O1426 C1411 1.261 . S
O1427 Sm1401 2.450 . S
O1427 C1411 1.242 . S
O1428 Sm1400 2.386 . S
O1428 Sm1401 2.681 . S
O1428 C1418 1.271 . S
O1429 Sm1401 2.464 . S
O1429 C1418 1.251 . S
O1430 Sm1401 2.396 . S
O1430 C1419 1.252 . S
O1431 Sm1400 2.408 . S
O1431 C1419 1.272 . S
H1432 C1404 0.930 . S
H1433 C1405 0.929 . S
H1434 C1407 0.930 . S
H1435 C1408 0.929 . S
H1436 C1413 0.930 . S
H1437 C1414 0.929 . S
H1438 C1416 0.930 . S
H1439 C1417 0.929 . S
H1440 C1446 0.930 . S
H1441 C1449 0.930 . S
H1442 C1450 0.930 . S
H1443 C1451 0.930 . S
H1444 C1454 0.930 . S
H1445 C1455 0.930 . S
C1446 H1440 0.930 . S
C1446 C1447 1.355 . S
C1446 C1448 1.415 . S
C1447 C1446 1.355 . S
C1447 C1449 1.419 . S
C1448 C1446 1.415 . S
C1448 C1453 1.425 . S
C1448 C1455 1.409 . S
C1449 H1441 0.930 . S
C1449 C1447 1.419 . S
C1449 C1450 1.362 . S
C1450 H1442 0.930 . S
C1450 C1449 1.362 . S
C1450 C1453 1.409 . S
C1451 H1443 0.930 . S
C1451 C1452 1.355 1_545 S
C1451 C1453 1.415 . S
C1452 C1451 1.355 1_565 S
C1452 C1454 1.419 . S
C1453 C1448 1.425 . S
C1453 C1450 1.409 . S
C1453 C1451 1.415 . S
C1454 H1444 0.930 . S
C1454 C1452 1.419 . S
C1454 C1455 1.362 1_565 S
C1455 H1445 0.930 . S
C1455 C1448 1.409 . S
C1455 C1454 1.362 1_545 S
H1456 C1462 0.930 . S
H1457 C1465 0.930 . S
H1458 C1466 0.930 . S
H1459 C1467 0.943 . S
H1460 C1470 0.930 . S
H1461 C1471 0.930 . S
C1462 H1456 0.930 . S
C1462 C1463 1.355 1_655 S
C1462 C1464 1.415 . S
C1463 C1462 1.355 1_455 S
C1463 C1465 1.419 . S
C1464 C1462 1.415 . S
C1464 C1469 1.425 . S
C1464 C1471 1.409 . S
C1465 H1457 0.930 . S
C1465 C1463 1.419 . S
C1465 C1466 1.362 1_455 S
C1466 H1458 0.930 . S
C1466 C1465 1.362 1_655 S
C1466 C1469 1.409 . S
C1467 H1459 0.943 . S
C1467 C1468 1.355 . S
C1467 C1469 1.415 . S
C1468 C1467 1.355 . S
C1468 C1470 1.419 . S
C1469 C1464 1.425 . S
C1469 C1466 1.409 . S
C1469 C1467 1.415 . S
C1470 H1460 0.930 . S
C1470 C1468 1.419 . S
C1470 C1471 1.362 . S
C1471 H1461 0.930 . S
C1471 C1464 1.409 . S
C1471 C1470 1.362 . S
H1472 C1478 0.930 . S
H1473 C1481 0.930 . S
H1474 C1482 0.930 . S
H1475 C1483 0.930 . S
H1476 C1486 0.930 . S
H1477 C1487 0.930 . S
C1478 H1472 0.930 . S
C1478 C1479 1.355 . S
C1478 C1480 1.415 . S
C1479 C1478 1.355 . S
C1479 C1481 1.419 . S
C1480 C1478 1.415 . S
C1480 C1485 1.425 . S
C1480 C1487 1.409 . S
C1481 H1473 0.930 . S
C1481 C1479 1.419 . S
C1481 C1482 1.362 . S
C1482 H1474 0.930 . S
C1482 C1481 1.362 . S
C1482 C1485 1.409 . S
C1483 H1475 0.930 . S
C1483 C1484 1.355 . S
C1483 C1485 1.415 . S
C1484 C1483 1.355 . S
C1484 C1486 1.419 . S
C1485 C1480 1.425 . S
C1485 C1482 1.409 . S
C1485 C1483 1.415 . S
C1486 H1476 0.930 . S
C1486 C1484 1.419 . S
C1486 C1487 1.362 . S
C1487 H1477 0.930 . S
C1487 C1480 1.409 . S
C1487 C1486 1.362 . S
H1488 C1494 0.930 . S
H1489 C1497 0.930 . S
H1490 C1498 0.930 . S
H1491 C1499 0.930 . S
H1492 C1502 0.930 . S
H1493 C1503 0.930 . S
C1494 H1488 0.930 . S
C1494 C1495 1.355 . S
C1494 C1496 1.415 . S
C1495 C1494 1.355 . S
C1495 C1497 1.419 . S
C1496 C1494 1.415 . S
C1496 C1501 1.425 . S
C1496 C1503 1.409 . S
C1497 H1489 0.930 . S
C1497 C1495 1.419 . S
C1497 C1498 1.362 . S
C1498 H1490 0.930 . S
C1498 C1497 1.362 . S
C1498 C1501 1.409 . S
C1499 H1491 0.930 . S
C1499 C1500 1.355 1_455 S
C1499 C1501 1.415 . S
C1500 C1499 1.355 1_655 S
C1500 C1502 1.419 . S
C1501 C1496 1.425 . S
C1501 C1498 1.409 . S
C1501 C1499 1.415 . S
C1502 H1492 0.930 . S
C1502 C1500 1.419 . S
C1502 C1503 1.362 1_655 S
C1503 H1493 0.930 . S
C1503 C1496 1.409 . S
C1503 C1502 1.362 1_455 S
H1504 C1510 0.930 . S
H1505 C1513 0.930 . S
H1506 C1514 0.930 . S
H1507 C1515 0.930 . S
H1508 C1518 0.930 . S
H1509 C1519 0.930 . S
C1510 H1504 0.930 . S
C1510 C1511 1.355 . S
C1510 C1512 1.415 . S
C1511 C1510 1.355 . S
C1511 C1513 1.419 . S
C1512 C1510 1.415 . S
C1512 C1517 1.425 . S
C1512 C1519 1.409 . S
C1513 H1505 0.930 . S
C1513 C1511 1.419 . S
C1513 C1514 1.362 . S
C1514 H1506 0.930 . S
C1514 C1513 1.362 . S
C1514 C1517 1.409 . S
C1515 H1507 0.930 . S
C1515 C1516 1.355 . S
C1515 C1517 1.415 . S
C1516 C1515 1.355 . S
C1516 C1518 1.419 . S
C1517 C1512 1.425 . S
C1517 C1514 1.409 . S
C1517 C1515 1.415 . S
C1518 H1508 0.930 . S
C1518 C1516 1.419 . S
C1518 C1519 1.362 . S
C1519 H1509 0.930 . S
C1519 C1512 1.409 . S
C1519 C1518 1.362 . S
H1520 C1526 0.930 . S
H1521 C1529 0.930 1_655 S
H1522 C1530 0.930 . S
H1523 C1531 0.930 1_545 S
H1524 C1534 0.930 . S
H1525 C1535 0.930 . S
C1526 H1520 0.930 . S
C1526 C1527 1.355 . S
C1526 C1528 1.415 . S
C1527 C1526 1.355 . S
C1527 C1529 1.419 . S
C1528 C1526 1.415 . S
C1528 C1533 1.425 . S
C1528 C1535 1.409 . S
C1529 H1521 0.930 1_455 S
C1529 C1527 1.419 . S
C1529 C1530 1.362 . S
C1530 H1522 0.930 . S
C1530 C1529 1.362 . S
C1530 C1533 1.409 . S
C1531 H1523 0.930 1_565 S
C1531 C1532 1.355 1_565 S
C1531 C1533 1.415 . S
C1532 C1531 1.355 1_545 S
C1532 C1534 1.419 1_545 S
C1533 C1528 1.425 . S
C1533 C1530 1.409 . S
C1533 C1531 1.415 . S
C1534 H1524 0.930 . S
C1534 C1532 1.419 1_565 S
C1534 C1535 1.362 . S
C1535 H1525 0.930 . S
C1535 C1528 1.409 . S
C1535 C1534 1.362 . S
H1536 C1542 0.930 . S
H1537 C1545 0.930 . S
H1538 C1546 0.930 . S
H1539 C1547 0.930 1_545 S
H1540 C1550 0.930 1_545 S
H1541 C1551 0.930 . S
C1542 H1536 0.930 . S
C1542 C1543 1.355 . S
C1542 C1544 1.415 . S
C1543 C1542 1.355 . S
C1543 C1545 1.419 . S
C1544 C1542 1.415 . S
C1544 C1549 1.425 . S
C1544 C1551 1.409 . S
C1545 H1537 0.930 . S
C1545 C1543 1.419 . S
C1545 C1546 1.362 . S
C1546 H1538 0.930 . S
C1546 C1545 1.362 . S
C1546 C1549 1.409 . S
C1547 H1539 0.930 1_565 S
C1547 C1548 1.355 1_565 S
C1547 C1549 1.415 . S
C1548 C1547 1.355 1_545 S
C1548 C1550 1.419 1_545 S
C1549 C1544 1.425 . S
C1549 C1546 1.409 . S
C1549 C1547 1.415 . S
C1550 H1540 0.930 1_565 S
C1550 C1548 1.419 1_565 S
C1550 C1551 1.362 . S
C1551 H1541 0.930 . S
C1551 C1544 1.409 . S
C1551 C1550 1.362 . S
H1552 C1558 0.930 . S
H1553 C1561 0.930 . S
H1554 C1562 0.930 . S
H1555 C1563 0.930 . S
H1556 C1566 0.930 . S
H1557 C1567 0.930 . S
C1558 H1552 0.930 . S
C1558 C1559 1.355 . S
C1558 C1560 1.415 . S
C1559 C1558 1.355 . S
C1559 C1561 1.419 . S
C1560 C1558 1.415 . S
C1560 C1565 1.425 . S
C1560 C1567 1.409 . S
C1561 H1553 0.930 . S
C1561 C1559 1.419 . S
C1561 C1562 1.362 . S
C1562 H1554 0.930 . S
C1562 C1561 1.362 . S
C1562 C1565 1.409 . S
C1563 H1555 0.930 . S
C1563 C1564 1.355 1_455 S
C1563 C1565 1.415 . S
C1564 C1563 1.355 1_655 S
C1564 C1566 1.419 . S
C1565 C1560 1.425 . S
C1565 C1562 1.409 . S
C1565 C1563 1.415 . S
C1566 H1556 0.930 . S
C1566 C1564 1.419 . S
C1566 C1567 1.362 1_655 S
C1567 H1557 0.930 . S
C1567 C1560 1.409 . S
C1567 C1566 1.362 1_455 S
H1568 C1574 0.930 . S
H1569 C1577 0.930 . S
H1570 C1578 0.930 . S
H1571 C1579 0.930 . S
H1572 C1582 0.930 . S
H1573 C1583 0.930 . S
C1574 H1568 0.930 . S
C1574 C1575 1.355 . S
C1574 C1576 1.415 . S
C1575 C1574 1.355 . S
C1575 C1577 1.419 . S
C1576 C1574 1.415 . S
C1576 C1581 1.425 . S
C1576 C1583 1.409 . S
C1577 H1569 0.930 . S
C1577 C1575 1.419 . S
C1577 C1578 1.362 . S
C1578 H1570 0.930 . S
C1578 C1577 1.362 . S
C1578 C1581 1.409 . S
C1579 H1571 0.930 . S
C1579 C1580 1.355 . S
C1579 C1581 1.415 . S
C1580 C1579 1.355 . S
C1580 C1582 1.419 . S
C1581 C1576 1.425 . S
C1581 C1578 1.409 . S
C1581 C1579 1.415 . S
C1582 H1572 0.930 . S
C1582 C1580 1.419 . S
C1582 C1583 1.362 . S
C1583 H1573 0.930 . S
C1583 C1576 1.409 . S
C1583 C1582 1.362 . S
H1584 C1590 0.930 . S
H1585 C1593 0.930 . S
H1586 C1594 0.930 . S
H1587 C1595 0.930 1_455 S
H1588 C1598 0.930 1_455 S
H1589 C1599 0.930 . S
C1590 H1584 0.930 . S
C1590 C1591 1.355 . S
C1590 C1592 1.415 . S
C1591 C1590 1.355 . S
C1591 C1593 1.419 . S
C1592 C1590 1.415 . S
C1592 C1597 1.425 . S
C1592 C1599 1.409 . S
C1593 H1585 0.930 . S
C1593 C1591 1.419 . S
C1593 C1594 1.362 . S
C1594 H1586 0.930 . S
C1594 C1593 1.362 . S
C1594 C1597 1.409 . S
C1595 H1587 0.930 1_655 S
C1595 C1596 1.355 1_655 S
C1595 C1597 1.415 . S
C1596 C1595 1.355 1_455 S
C1596 C1598 1.419 1_455 S
C1597 C1592 1.425 . S
C1597 C1594 1.409 . S
C1597 C1595 1.415 . S
C1598 H1588 0.930 1_655 S
C1598 C1596 1.419 1_655 S
C1598 C1599 1.362 . S
C1599 H1589 0.930 . S
C1599 C1592 1.409 . S
C1599 C1598 1.362 . S
H1600 C1606 0.930 . S
H1601 C1609 0.930 . S
H1602 C1610 0.930 . S
H1603 C1611 0.930 . S
H1604 C1614 0.930 1_565 S
H1605 C1615 0.930 . S
C1606 H1600 0.930 . S
C1606 C1607 1.355 . S
C1606 C1608 1.415 . S
C1607 C1606 1.355 . S
C1607 C1609 1.419 . S
C1608 C1606 1.415 . S
C1608 C1613 1.425 . S
C1608 C1615 1.409 . S
C1609 H1601 0.930 . S
C1609 C1607 1.419 . S
C1609 C1610 1.362 . S
C1610 H1602 0.930 . S
C1610 C1609 1.362 . S
C1610 C1613 1.409 . S
C1611 H1603 0.930 . S
C1611 C1612 1.355 . S
C1611 C1613 1.415 . S
C1612 C1611 1.355 . S
C1612 C1614 1.419 . S
C1613 C1608 1.425 . S
C1613 C1610 1.409 . S
C1613 C1611 1.415 . S
C1614 H1604 0.930 1_545 S
C1614 C1612 1.419 . S
C1614 C1615 1.362 . S
C1615 H1605 0.930 . S
C1615 C1608 1.409 . S
C1615 C1614 1.362 . S
H1616 C1622 0.930 . S
H1617 C1625 0.930 . S
H1618 C1626 0.930 . S
H1619 C1627 0.930 . S
H1620 C1630 0.930 . S
H1621 C1631 0.930 . S
C1622 H1616 0.930 . S
C1622 C1623 1.355 1_545 S
C1622 C1624 1.415 . S
C1623 C1622 1.355 1_565 S
C1623 C1625 1.419 . S
C1624 C1622 1.415 . S
C1624 C1629 1.425 . S
C1624 C1631 1.409 . S
C1625 H1617 0.930 . S
C1625 C1623 1.419 . S
C1625 C1626 1.362 1_565 S
C1626 H1618 0.930 . S
C1626 C1625 1.362 1_545 S
C1626 C1629 1.409 . S
C1627 H1619 0.930 . S
C1627 C1628 1.355 . S
C1627 C1629 1.415 . S
C1628 C1627 1.355 . S
C1628 C1630 1.419 . S
C1629 C1624 1.425 . S
C1629 C1626 1.409 . S
C1629 C1627 1.415 . S
C1630 H1620 0.930 . S
C1630 C1628 1.419 . S
C1630 C1631 1.362 . S
C1631 H1621 0.930 . S
C1631 C1624 1.409 . S
C1631 C1630 1.362 . S
H1632 C1638 0.930 . S
H1633 C1641 0.930 . S
H1634 C1642 0.930 . S
H1635 C1643 0.930 . S
H1636 C1646 0.930 . S
H1637 C1647 0.930 . S
C1638 H1632 0.930 . S
C1638 C1639 1.355 . S
C1638 C1640 1.415 . S
C1639 C1638 1.355 . S
C1639 C1641 1.419 . S
C1640 C1638 1.415 . S
C1640 C1645 1.425 . S
C1640 C1647 1.409 . S
C1641 H1633 0.930 . S
C1641 C1639 1.419 . S
C1641 C1642 1.362 . S
C1642 H1634 0.930 . S
C1642 C1641 1.362 . S
C1642 C1645 1.409 . S
C1643 H1635 0.930 . S
C1643 C1644 1.355 . S
C1643 C1645 1.415 . S
C1644 C1643 1.355 . S
C1644 C1646 1.419 . S
C1645 C1640 1.425 . S
C1645 C1642 1.409 . S
C1645 C1643 1.415 . S
C1646 H1636 0.930 . S
C1646 C1644 1.419 . S
C1646 C1647 1.362 . S
C1647 H1637 0.930 . S
C1647 C1640 1.409 . S
C1647 C1646 1.362 . S
H1648 C1654 0.930 . S
H1649 C1657 0.930 . S
H1650 C1658 0.930 . S
H1651 C1659 0.930 . S
H1652 C1662 0.930 . S
H1653 C1663 0.930 . S
C1654 H1648 0.930 . S
C1654 C1655 1.355 . S
C1654 C1656 1.415 . S
C1655 C1654 1.355 . S
C1655 C1657 1.419 . S
C1656 C1654 1.415 . S
C1656 C1661 1.425 . S
C1656 C1663 1.409 . S
C1657 H1649 0.930 . S
C1657 C1655 1.419 . S
C1657 C1658 1.362 . S
C1658 H1650 0.930 . S
C1658 C1657 1.362 . S
C1658 C1661 1.409 . S
C1659 H1651 0.930 . S
C1659 C1660 1.355 . S
C1659 C1661 1.415 . S
C1660 C1659 1.355 . S
C1660 C1662 1.419 . S
C1661 C1656 1.425 . S
C1661 C1658 1.409 . S
C1661 C1659 1.415 . S
C1662 H1652 0.930 . S
C1662 C1660 1.419 . S
C1662 C1663 1.362 . S
C1663 H1653 0.930 . S
C1663 C1656 1.409 . S
C1663 C1662 1.362 . S
H1664 C1670 0.930 . S
H1665 C1673 0.930 . S
H1666 C1674 0.930 . S
H1667 C1675 0.930 . S
H1668 C1678 0.930 . S
H1669 C1679 0.930 . S
C1670 H1664 0.930 . S
C1670 C1671 1.355 . S
C1670 C1672 1.415 . S
C1671 C1670 1.355 . S
C1671 C1673 1.419 . S
C1672 C1670 1.415 . S
C1672 C1677 1.425 . S
C1672 C1679 1.409 . S
C1673 H1665 0.930 . S
C1673 C1671 1.419 . S
C1673 C1674 1.362 . S
C1674 H1666 0.930 . S
C1674 C1673 1.362 . S
C1674 C1677 1.409 . S
C1675 H1667 0.930 . S
C1675 C1676 1.355 . S
C1675 C1677 1.415 . S
C1676 C1675 1.355 . S
C1676 C1678 1.419 . S
C1677 C1672 1.425 . S
C1677 C1674 1.409 . S
C1677 C1675 1.415 . S
C1678 H1668 0.930 . S
C1678 C1676 1.419 . S
C1678 C1679 1.362 . S
C1679 H1669 0.930 . S
C1679 C1672 1.409 . S
C1679 C1678 1.362 . S
H1680 C1686 0.930 . S
H1681 C1689 0.930 . S
H1682 C1690 0.930 . S
H1683 C1691 0.930 . S
H1684 C1694 0.930 . S
H1685 C1695 0.930 . S
C1686 H1680 0.930 . S
C1686 C1687 1.355 . S
C1686 C1688 1.415 . S
C1687 C1686 1.355 . S
C1687 C1689 1.419 . S
C1688 C1686 1.415 . S
C1688 C1693 1.425 . S
C1688 C1695 1.409 . S
C1689 H1681 0.930 . S
C1689 C1687 1.419 . S
C1689 C1690 1.362 . S
C1690 H1682 0.930 . S
C1690 C1689 1.362 . S
C1690 C1693 1.409 . S
C1691 H1683 0.930 . S
C1691 C1692 1.355 . S
C1691 C1693 1.415 . S
C1692 C1691 1.355 . S
C1692 C1694 1.419 . S
C1693 C1688 1.425 . S
C1693 C1690 1.409 . S
C1693 C1691 1.415 . S
C1694 H1684 0.930 . S
C1694 C1692 1.419 . S
C1694 C1695 1.362 . S
C1695 H1685 0.930 . S
C1695 C1688 1.409 . S
C1695 C1694 1.362 . S
H1696 C1702 0.930 . S
H1697 C1705 0.930 . S
H1698 C1706 0.930 . S
H1699 C1707 0.930 . S
H1700 C1710 0.930 . S
H1701 C1711 0.930 . S
C1702 H1696 0.930 . S
C1702 C1703 1.355 . S
C1702 C1704 1.415 . S
C1703 C1702 1.355 . S
C1703 C1705 1.419 . S
C1704 C1702 1.415 . S
C1704 C1709 1.425 . S
C1704 C1711 1.409 . S
C1705 H1697 0.930 . S
C1705 C1703 1.419 . S
C1705 C1706 1.362 . S
C1706 H1698 0.930 . S
C1706 C1705 1.362 . S
C1706 C1709 1.409 . S
C1707 H1699 0.930 . S
C1707 C1708 1.355 . S
C1707 C1709 1.415 . S
C1708 C1707 1.355 . S
C1708 C1710 1.419 . S
C1709 C1704 1.425 . S
C1709 C1706 1.409 . S
C1709 C1707 1.415 . S
C1710 H1700 0.930 . S
C1710 C1708 1.419 . S
C1710 C1711 1.362 . S
C1711 H1701 0.930 . S
C1711 C1704 1.409 . S
C1711 C1710 1.362 . S
H1712 C1718 0.930 . S
H1713 C1721 0.930 . S
H1714 C1722 0.930 . S
H1715 C1723 0.930 . S
H1716 C1726 0.930 . S
H1717 C1727 0.930 . S
C1718 H1712 0.930 . S
C1718 C1719 1.355 . S
C1718 C1720 1.415 . S
C1719 C1718 1.355 . S
C1719 C1721 1.419 . S
C1720 C1718 1.415 . S
C1720 C1725 1.425 . S
C1720 C1727 1.409 . S
C1721 H1713 0.930 . S
C1721 C1719 1.419 . S
C1721 C1722 1.362 . S
C1722 H1714 0.930 . S
C1722 C1721 1.362 . S
C1722 C1725 1.409 . S
C1723 H1715 0.930 . S
C1723 C1724 1.355 . S
C1723 C1725 1.415 . S
C1724 C1723 1.355 . S
C1724 C1726 1.419 . S
C1725 C1720 1.425 . S
C1725 C1722 1.409 . S
C1725 C1723 1.415 . S
C1726 H1716 0.930 . S
C1726 C1724 1.419 . S
C1726 C1727 1.362 . S
C1727 H1717 0.930 . S
C1727 C1720 1.409 . S
C1727 C1726 1.362 . S
H1728 C1734 0.930 . S
H1729 C1737 0.930 . S
H1730 C1738 0.930 . S
H1731 C1739 0.930 . S
H1732 C1742 0.930 . S
H1733 C1743 0.930 . S
C1734 H1728 0.930 . S
C1734 C1735 1.355 . S
C1734 C1736 1.415 . S
C1735 C1734 1.355 . S
C1735 C1737 1.419 . S
C1736 C1734 1.415 . S
C1736 C1741 1.425 . S
C1736 C1743 1.409 . S
C1737 H1729 0.930 . S
C1737 C1735 1.419 . S
C1737 C1738 1.362 . S
C1738 H1730 0.930 . S
C1738 C1737 1.362 . S
C1738 C1741 1.409 . S
C1739 H1731 0.930 . S
C1739 C1740 1.355 . S
C1739 C1741 1.415 . S
C1740 C1739 1.355 . S
C1740 C1742 1.419 . S
C1741 C1736 1.425 . S
C1741 C1738 1.409 . S
C1741 C1739 1.415 . S
C1742 H1732 0.930 . S
C1742 C1740 1.419 . S
C1742 C1743 1.362 . S
C1743 H1733 0.930 . S
C1743 C1736 1.409 . S
C1743 C1742 1.362 . S
H1744 C1750 0.930 . S
H1745 C1753 0.930 . S
H1746 C1754 0.930 . S
H1747 C1755 0.930 . S
H1748 C1758 0.930 . S
H1749 C1759 0.930 . S
C1750 H1744 0.930 . S
C1750 C1751 1.355 . S
C1750 C1752 1.415 . S
C1751 C1750 1.355 . S
C1751 C1753 1.419 . S
C1752 C1750 1.415 . S
C1752 C1757 1.425 . S
C1752 C1759 1.409 . S
C1753 H1745 0.930 . S
C1753 C1751 1.419 . S
C1753 C1754 1.362 . S
C1754 H1746 0.930 . S
C1754 C1753 1.362 . S
C1754 C1757 1.409 . S
C1755 H1747 0.930 . S
C1755 C1756 1.355 . S
C1755 C1757 1.415 . S
C1756 C1755 1.355 . S
C1756 C1758 1.419 . S
C1757 C1752 1.425 . S
C1757 C1754 1.409 . S
C1757 C1755 1.415 . S
C1758 H1748 0.930 . S
C1758 C1756 1.419 . S
C1758 C1759 1.362 . S
C1759 H1749 0.930 . S
C1759 C1752 1.409 . S
C1759 C1758 1.362 . S
H1760 C1766 0.930 . S
H1761 C1769 0.930 . S
H1762 C1770 0.930 . S
H1763 C1771 0.930 . S
H1764 C1774 0.930 . S
H1765 C1775 0.930 . S
C1766 H1760 0.930 . S
C1766 C1767 1.355 . S
C1766 C1768 1.415 . S
C1767 C1766 1.355 . S
C1767 C1769 1.419 . S
C1768 C1766 1.415 . S
C1768 C1773 1.425 . S
C1768 C1775 1.409 . S
C1769 H1761 0.930 . S
C1769 C1767 1.419 . S
C1769 C1770 1.362 . S
C1770 H1762 0.930 . S
C1770 C1769 1.362 . S
C1770 C1773 1.409 . S
C1771 H1763 0.930 . S
C1771 C1772 1.355 . S
C1771 C1773 1.415 . S
C1772 C1771 1.355 . S
C1772 C1774 1.419 . S
C1773 C1768 1.425 . S
C1773 C1770 1.409 . S
C1773 C1771 1.415 . S
C1774 H1764 0.930 . S
C1774 C1772 1.419 . S
C1774 C1775 1.362 . S
C1775 H1765 0.930 . S
C1775 C1768 1.409 . S
C1775 C1774 1.362 . S
H1776 C1782 0.974 . S
H1777 C1785 0.930 . S
H1778 C1786 0.930 . S
H1779 C1787 0.930 . S
H1780 C1790 0.930 . S
H1781 C1791 0.930 . S
C1782 H1776 0.974 . S
C1782 C1783 1.318 1_556 S
C1782 C1784 1.413 . S
C1783 C1782 1.318 1_554 S
C1783 C1785 1.419 . S
C1784 C1782 1.413 . S
C1784 C1789 1.417 1_556 S
C1784 C1791 1.417 . S
C1785 H1777 0.930 . S
C1785 C1783 1.419 . S
C1785 C1786 1.362 . S
C1786 H1778 0.930 . S
C1786 C1785 1.362 . S
C1786 C1789 1.409 . S
C1787 H1779 0.930 . S
C1787 C1788 1.406 . S
C1787 C1789 1.415 . S
C1788 C1787 1.406 . S
C1788 C1790 1.370 1_554 S
C1789 C1784 1.417 1_554 S
C1789 C1786 1.409 . S
C1789 C1787 1.415 . S
C1790 H1780 0.930 . S
C1790 C1788 1.370 1_556 S
C1790 C1791 1.362 . S
C1791 H1781 0.930 . S
C1791 C1784 1.417 . S
C1791 C1790 1.362 . S
H1792 C1798 0.930 . S
H1793 C1801 0.930 . S
H1794 C1802 0.930 . S
H1795 C1803 0.930 . S
H1796 C1806 0.930 . S
H1797 C1807 0.930 . S
C1798 H1792 0.930 . S
C1798 C1799 1.359 . S
C1798 C1800 1.415 . S
C1799 C1798 1.359 . S
C1799 C1801 1.414 1_554 S
C1800 C1798 1.415 . S
C1800 C1805 1.425 1_554 S
C1800 C1807 1.409 . S
C1801 H1793 0.930 . S
C1801 C1799 1.414 1_556 S
C1801 C1802 1.362 . S
C1802 H1794 0.930 . S
C1802 C1801 1.362 . S
C1802 C1805 1.409 . S
C1803 H1795 0.930 . S
C1803 C1804 1.355 1_556 S
C1803 C1805 1.415 . S
C1804 C1803 1.355 1_554 S
C1804 C1806 1.419 . S
C1805 C1800 1.425 1_556 S
C1805 C1802 1.409 . S
C1805 C1803 1.415 . S
C1806 H1796 0.930 . S
C1806 C1804 1.419 . S
C1806 C1807 1.362 . S
C1807 H1797 0.930 . S
C1807 C1800 1.409 . S
C1807 C1806 1.362 . S
H1808 C1814 0.930 . S
H1809 C1817 0.930 . S
H1810 C1818 0.930 . S
H1811 C1819 0.930 . S
H1812 C1822 0.930 . S
H1813 C1823 0.930 . S
C1814 H1808 0.930 . S
C1814 C1815 1.355 . S
C1814 C1816 1.415 . S
C1815 C1814 1.355 . S
C1815 C1817 1.419 1_554 S
C1816 C1814 1.415 . S
C1816 C1821 1.425 1_554 S
C1816 C1823 1.409 . S
C1817 H1809 0.930 . S
C1817 C1815 1.419 1_556 S
C1817 C1818 1.362 . S
C1818 H1810 0.930 . S
C1818 C1817 1.362 . S
C1818 C1821 1.409 . S
C1819 H1811 0.930 . S
C1819 C1820 1.355 1_556 S
C1819 C1821 1.415 . S
C1820 C1819 1.355 1_554 S
C1820 C1822 1.419 . S
C1821 C1816 1.425 1_556 S
C1821 C1818 1.409 . S
C1821 C1819 1.415 . S
C1822 H1812 0.930 . S
C1822 C1820 1.419 . S
C1822 C1823 1.362 . S
C1823 H1813 0.930 . S
C1823 C1816 1.409 . S
C1823 C1822 1.362 . S
H1824 C1830 0.930 . S
H1825 C1833 0.930 . S
H1826 C1834 0.930 . S
H1827 C1835 0.930 . S
H1828 C1838 0.930 . S
H1829 C1839 0.930 . S
C1830 H1824 0.930 . S
C1830 C1831 1.355 . S
C1830 C1832 1.415 . S
C1831 C1830 1.355 . S
C1831 C1833 1.419 . S
C1832 C1830 1.415 . S
C1832 C1837 1.425 . S
C1832 C1839 1.409 . S
C1833 H1825 0.930 . S
C1833 C1831 1.419 . S
C1833 C1834 1.362 . S
C1834 H1826 0.930 . S
C1834 C1833 1.362 . S
C1834 C1837 1.409 . S
C1835 H1827 0.930 . S
C1835 C1836 1.355 . S
C1835 C1837 1.415 . S
C1836 C1835 1.355 . S
C1836 C1838 1.419 . S
C1837 C1832 1.425 . S
C1837 C1834 1.409 . S
C1837 C1835 1.415 . S
C1838 H1828 0.930 . S
C1838 C1836 1.419 . S
C1838 C1839 1.362 . S
C1839 H1829 0.930 . S
C1839 C1832 1.409 . S
C1839 C1838 1.362 . S
H1840 C1846 0.930 . S
H1841 C1849 0.930 . S
H1842 C1850 0.930 . S
H1843 C1851 0.930 . S
H1844 C1854 0.930 . S
H1845 C1855 0.930 . S
C1846 H1840 0.930 . S
C1846 C1847 1.355 . S
C1846 C1848 1.415 . S
C1847 C1846 1.355 . S
C1847 C1849 1.419 . S
C1848 C1846 1.415 . S
C1848 C1853 1.425 . S
C1848 C1855 1.409 . S
C1849 H1841 0.930 . S
C1849 C1847 1.419 . S
C1849 C1850 1.362 . S
C1850 H1842 0.930 . S
C1850 C1849 1.362 . S
C1850 C1853 1.409 . S
C1851 H1843 0.930 . S
C1851 C1852 1.355 . S
C1851 C1853 1.415 . S
C1852 C1851 1.355 . S
C1852 C1854 1.419 . S
C1853 C1848 1.425 . S
C1853 C1850 1.409 . S
C1853 C1851 1.415 . S
C1854 H1844 0.930 . S
C1854 C1852 1.419 . S
C1854 C1855 1.362 . S
C1855 H1845 0.930 . S
C1855 C1848 1.409 . S
C1855 C1854 1.362 . S
H1856 C1862 0.930 . S
H1857 C1865 0.930 . S
H1858 C1866 0.930 . S
H1859 C1867 0.930 . S
H1860 C1870 0.930 . S
H1861 C1871 0.930 . S
C1862 H1856 0.930 . S
C1862 C1863 1.355 . S
C1862 C1864 1.415 . S
C1863 C1862 1.355 . S
C1863 C1865 1.419 . S
C1864 C1862 1.415 . S
C1864 C1869 1.425 . S
C1864 C1871 1.409 . S
C1865 H1857 0.930 . S
C1865 C1863 1.419 . S
C1865 C1866 1.362 . S
C1866 H1858 0.930 . S
C1866 C1865 1.362 . S
C1866 C1869 1.409 . S
C1867 H1859 0.930 . S
C1867 C1868 1.355 . S
C1867 C1869 1.415 . S
C1868 C1867 1.355 . S
C1868 C1870 1.419 . S
C1869 C1864 1.425 . S
C1869 C1866 1.409 . S
C1869 C1867 1.415 . S
C1870 H1860 0.930 . S
C1870 C1868 1.419 . S
C1870 C1871 1.362 . S
C1871 H1861 0.930 . S
C1871 C1864 1.409 . S
C1871 C1870 1.362 . S
H1872 C1878 0.930 . S
H1873 C1881 0.930 . S
H1874 C1882 0.930 . S
H1875 C1883 0.935 1_554 S
H1876 C1886 0.930 . S
H1877 C1887 0.930 . S
C1878 H1872 0.930 . S
C1878 C1879 1.406 . S
C1878 C1880 1.415 . S
C1879 C1878 1.406 . S
C1879 C1881 1.374 1_556 S
C1880 C1878 1.415 . S
C1880 C1885 1.437 . S
C1880 C1887 1.409 . S
C1881 H1873 0.930 . S
C1881 C1879 1.374 1_554 S
C1881 C1882 1.362 . S
C1882 H1874 0.930 . S
C1882 C1881 1.362 . S
C1882 C1885 1.399 1_554 S
C1883 H1875 0.935 1_556 S
C1883 C1884 1.350 . S
C1883 C1885 1.414 . S
C1884 C1883 1.350 . S
C1884 C1886 1.419 . S
C1885 C1880 1.437 . S
C1885 C1882 1.399 1_556 S
C1885 C1883 1.414 . S
C1886 H1876 0.930 . S
C1886 C1884 1.419 . S
C1886 C1887 1.362 . S
C1887 H1877 0.930 . S
C1887 C1880 1.409 . S
C1887 C1886 1.362 . S
H1888 C1894 0.930 . S
H1889 C1897 0.930 . S
H1890 C1898 0.930 . S
H1891 C1899 0.930 . S
H1892 C1902 0.930 . S
H1893 C1903 0.930 . S
C1894 H1888 0.930 . S
C1894 C1895 1.355 1_554 S
C1894 C1896 1.415 . S
C1895 C1894 1.355 1_556 S
C1895 C1897 1.419 . S
C1896 C1894 1.415 . S
C1896 C1901 1.425 1_554 S
C1896 C1903 1.409 . S
C1897 H1889 0.930 . S
C1897 C1895 1.419 . S
C1897 C1898 1.362 . S
C1898 H1890 0.930 . S
C1898 C1897 1.362 . S
C1898 C1901 1.409 . S
C1899 H1891 0.930 . S
C1899 C1900 1.355 . S
C1899 C1901 1.415 . S
C1900 C1899 1.355 . S
C1900 C1902 1.419 1_556 S
C1901 C1896 1.425 1_556 S
C1901 C1898 1.409 . S
C1901 C1899 1.415 . S
C1902 H1892 0.930 . S
C1902 C1900 1.419 1_554 S
C1902 C1903 1.362 . S
C1903 H1893 0.930 . S
C1903 C1896 1.409 . S
C1903 C1902 1.362 . S
H1904 C1910 0.930 . S
H1905 C1913 0.930 . S
H1906 C1914 0.930 . S
H1907 C1915 0.930 . S
H1908 C1918 0.930 . S
H1909 C1919 0.930 . S
C1910 H1904 0.930 . S
C1910 C1911 1.356 . S
C1910 C1912 1.415 . S
C1911 C1910 1.356 . S
C1911 C1913 1.418 1_556 S
C1912 C1910 1.415 . S
C1912 C1917 1.425 1_556 S
C1912 C1919 1.409 . S
C1913 H1905 0.930 . S
C1913 C1911 1.418 1_554 S
C1913 C1914 1.362 . S
C1914 H1906 0.930 . S
C1914 C1913 1.362 . S
C1914 C1917 1.409 . S
C1915 H1907 0.930 . S
C1915 C1916 1.355 1_554 S
C1915 C1917 1.415 . S
C1916 C1915 1.355 1_556 S
C1916 C1918 1.419 . S
C1917 C1912 1.425 1_554 S
C1917 C1914 1.409 . S
C1917 C1915 1.415 . S
C1918 H1908 0.930 . S
C1918 C1916 1.419 . S
C1918 C1919 1.362 . S
C1919 H1909 0.930 . S
C1919 C1912 1.409 . S
C1919 C1918 1.362 . S
H1920 C1926 0.930 . S
H1921 C1929 0.930 . S
H1922 C1930 0.930 . S
H1923 C1931 0.930 . S
H1924 C1934 0.930 . S
H1925 C1935 0.930 . S
C1926 H1920 0.930 . S
C1926 C1927 1.355 . S
C1926 C1928 1.415 . S
C1927 C1926 1.355 . S
C1927 C1929 1.419 . S
C1928 C1926 1.415 . S
C1928 C1933 1.425 . S
C1928 C1935 1.409 . S
C1929 H1921 0.930 . S
C1929 C1927 1.419 . S
C1929 C1930 1.362 . S
C1930 H1922 0.930 . S
C1930 C1929 1.362 . S
C1930 C1933 1.409 . S
C1931 H1923 0.930 . S
C1931 C1932 1.355 . S
C1931 C1933 1.415 . S
C1932 C1931 1.355 . S
C1932 C1934 1.419 . S
C1933 C1928 1.425 . S
C1933 C1930 1.409 . S
C1933 C1931 1.415 . S
C1934 H1924 0.930 . S
C1934 C1932 1.419 . S
C1934 C1935 1.362 . S
C1935 H1925 0.930 . S
C1935 C1928 1.409 . S
C1935 C1934 1.362 . S
H1936 C1942 0.930 . S
H1937 C1945 0.930 . S
H1938 C1946 0.930 . S
H1939 C1947 0.930 . S
H1940 C1950 0.930 . S
H1941 C1951 0.930 . S
C1942 H1936 0.930 . S
C1942 C1943 1.355 . S
C1942 C1944 1.415 . S
C1943 C1942 1.355 . S
C1943 C1945 1.419 . S
C1944 C1942 1.415 . S
C1944 C1949 1.425 . S
C1944 C1951 1.409 . S
C1945 H1937 0.930 . S
C1945 C1943 1.419 . S
C1945 C1946 1.362 . S
C1946 H1938 0.930 . S
C1946 C1945 1.362 . S
C1946 C1949 1.409 . S
C1947 H1939 0.930 . S
C1947 C1948 1.355 . S
C1947 C1949 1.415 . S
C1948 C1947 1.355 . S
C1948 C1950 1.419 . S
C1949 C1944 1.425 . S
C1949 C1946 1.409 . S
C1949 C1947 1.415 . S
C1950 H1940 0.930 . S
C1950 C1948 1.419 . S
C1950 C1951 1.362 . S
C1951 H1941 0.930 . S
C1951 C1944 1.409 . S
C1951 C1950 1.362 . S
H1952 C1958 0.930 . S
H1953 C1961 0.930 . S
H1954 C1962 0.930 . S
H1955 C1963 0.930 . S
H1956 C1966 0.930 . S
H1957 C1967 0.930 . S
C1958 H1952 0.930 . S
C1958 C1959 1.355 . S
C1958 C1960 1.415 . S
C1959 C1958 1.355 . S
C1959 C1961 1.419 . S
C1960 C1958 1.415 . S
C1960 C1965 1.425 . S
C1960 C1967 1.409 . S
C1961 H1953 0.930 . S
C1961 C1959 1.419 . S
C1961 C1962 1.362 . S
C1962 H1954 0.930 . S
C1962 C1961 1.362 . S
C1962 C1965 1.409 . S
C1963 H1955 0.930 . S
C1963 C1964 1.355 . S
C1963 C1965 1.415 . S
C1964 C1963 1.355 . S
C1964 C1966 1.419 . S
C1965 C1960 1.425 . S
C1965 C1962 1.409 . S
C1965 C1963 1.415 . S
C1966 H1956 0.930 . S
C1966 C1964 1.419 . S
C1966 C1967 1.362 . S
C1967 H1957 0.930 . S
C1967 C1960 1.409 . S
C1967 C1966 1.362 . S
H1968 C1974 0.930 . S
H1969 C1977 0.930 . S
H1970 C1978 0.930 . S
H1971 C1979 0.930 . S
H1972 C1982 0.930 . S
H1973 C1983 0.930 . S
C1974 H1968 0.930 . S
C1974 C1975 1.355 . S
C1974 C1976 1.415 . S
C1975 C1974 1.355 . S
C1975 C1977 1.419 . S
C1976 C1974 1.415 . S
C1976 C1981 1.425 . S
C1976 C1983 1.409 . S
C1977 H1969 0.930 . S
C1977 C1975 1.419 . S
C1977 C1978 1.362 . S
C1978 H1970 0.930 . S
C1978 C1977 1.362 . S
C1978 C1981 1.409 . S
C1979 H1971 0.930 . S
C1979 C1980 1.355 . S
C1979 C1981 1.415 . S
C1980 C1979 1.355 . S
C1980 C1982 1.419 . S
C1981 C1976 1.425 . S
C1981 C1978 1.409 . S
C1981 C1979 1.415 . S
C1982 H1972 0.930 . S
C1982 C1980 1.419 . S
C1982 C1983 1.362 . S
C1983 H1973 0.930 . S
C1983 C1976 1.409 . S
C1983 C1982 1.362 . S
H1984 C1990 0.930 . S
H1985 C1993 0.930 . S
H1986 C1994 0.930 . S
H1987 C1995 0.930 . S
H1988 C1998 0.930 . S
H1989 C1999 0.930 . S
C1990 H1984 0.930 . S
C1990 C1991 1.355 . S
C1990 C1992 1.415 . S
C1991 C1990 1.355 . S
C1991 C1993 1.419 . S
C1992 C1990 1.415 . S
C1992 C1997 1.425 . S
C1992 C1999 1.409 . S
C1993 H1985 0.930 . S
C1993 C1991 1.419 . S
C1993 C1994 1.362 . S
C1994 H1986 0.930 . S
C1994 C1993 1.362 . S
C1994 C1997 1.409 . S
C1995 H1987 0.930 . S
C1995 C1996 1.355 . S
C1995 C1997 1.415 . S
C1996 C1995 1.355 . S
C1996 C1998 1.419 . S
C1997 C1992 1.425 . S
C1997 C1994 1.409 . S
C1997 C1995 1.415 . S
C1998 H1988 0.930 . S
C1998 C1996 1.419 . S
C1998 C1999 1.362 . S
C1999 H1989 0.930 . S
C1999 C1992 1.409 . S
C1999 C1998 1.362 . S
H2000 C2006 0.930 . S
H2001 C2009 0.930 . S
H2002 C2010 0.930 . S
H2003 C2011 0.930 . S
H2004 C2014 0.930 . S
H2005 C2015 0.930 . S
C2006 H2000 0.930 . S
C2006 C2007 1.355 . S
C2006 C2008 1.415 . S
C2007 C2006 1.355 . S
C2007 C2009 1.419 . S
C2008 C2006 1.415 . S
C2008 C2013 1.425 . S
C2008 C2015 1.409 . S
C2009 H2001 0.930 . S
C2009 C2007 1.419 . S
C2009 C2010 1.362 . S
C2010 H2002 0.930 . S
C2010 C2009 1.362 . S
C2010 C2013 1.409 . S
C2011 H2003 0.930 . S
C2011 C2012 1.355 . S
C2011 C2013 1.415 . S
C2012 C2011 1.355 . S
C2012 C2014 1.419 . S
C2013 C2008 1.425 . S
C2013 C2010 1.409 . S
C2013 C2011 1.415 . S
C2014 H2004 0.930 . S
C2014 C2012 1.419 . S
C2014 C2015 1.362 . S
C2015 H2005 0.930 . S
C2015 C2008 1.409 . S
C2015 C2014 1.362 . S
H2016 C2022 0.930 . S
H2017 C2025 0.930 . S
H2018 C2026 0.930 . S
H2019 C2027 0.930 . S
H2020 C2030 0.930 . S
H2021 C2031 0.930 . S
C2022 H2016 0.930 . S
C2022 C2023 1.355 . S
C2022 C2024 1.415 . S
C2023 C2022 1.355 . S
C2023 C2025 1.419 . S
C2024 C2022 1.415 . S
C2024 C2029 1.425 . S
C2024 C2031 1.409 . S
C2025 H2017 0.930 . S
C2025 C2023 1.419 . S
C2025 C2026 1.362 . S
C2026 H2018 0.930 . S
C2026 C2025 1.362 . S
C2026 C2029 1.409 . S
C2027 H2019 0.930 . S
C2027 C2028 1.355 . S
C2027 C2029 1.415 . S
C2028 C2027 1.355 . S
C2028 C2030 1.419 . S
C2029 C2024 1.425 . S
C2029 C2026 1.409 . S
C2029 C2027 1.415 . S
C2030 H2020 0.930 . S
C2030 C2028 1.419 . S
C2030 C2031 1.362 . S
C2031 H2021 0.930 . S
C2031 C2024 1.409 . S
C2031 C2030 1.362 . S
H2032 C2038 0.930 . S
H2033 C2041 0.930 . S
H2034 C2042 0.930 . S
H2035 C2043 0.930 . S
H2036 C2046 0.930 . S
H2037 C2047 0.930 . S
C2038 H2032 0.930 . S
C2038 C2039 1.355 1_565 S
C2038 C2040 1.415 . S
C2039 C2038 1.355 1_545 S
C2039 C2041 1.419 . S
C2040 C2038 1.415 . S
C2040 C2045 1.425 . S
C2040 C2047 1.409 . S
C2041 H2033 0.930 . S
C2041 C2039 1.419 . S
C2041 C2042 1.362 . S
C2042 H2034 0.930 . S
C2042 C2041 1.362 . S
C2042 C2045 1.409 1_545 S
C2043 H2035 0.930 . S
C2043 C2044 1.355 . S
C2043 C2045 1.415 . S
C2044 C2043 1.355 . S
C2044 C2046 1.419 . S
C2045 C2040 1.425 . S
C2045 C2042 1.409 1_565 S
C2045 C2043 1.415 . S
C2046 H2036 0.930 . S
C2046 C2044 1.419 . S
C2046 C2047 1.362 . S
C2047 H2037 0.930 . S
C2047 C2040 1.409 . S
C2047 C2046 1.362 . S
H2048 C2054 0.930 . S
H2049 C2057 0.930 . S
H2050 C2058 0.930 . S
H2051 C2059 0.930 . S
H2052 C2062 0.930 . S
H2053 C2063 0.930 . S
C2054 H2048 0.930 . S
C2054 C2055 1.355 . S
C2054 C2056 1.415 . S
C2055 C2054 1.355 . S
C2055 C2057 1.419 . S
C2056 C2054 1.415 . S
C2056 C2061 1.425 . S
C2056 C2063 1.409 1_455 S
C2057 H2049 0.930 . S
C2057 C2055 1.419 . S
C2057 C2058 1.362 . S
C2058 H2050 0.930 . S
C2058 C2057 1.362 . S
C2058 C2061 1.409 . S
C2059 H2051 0.930 . S
C2059 C2060 1.355 1_455 S
C2059 C2061 1.415 . S
C2060 C2059 1.355 1_655 S
C2060 C2062 1.419 . S
C2061 C2056 1.425 . S
C2061 C2058 1.409 . S
C2061 C2059 1.415 . S
C2062 H2052 0.930 . S
C2062 C2060 1.419 . S
C2062 C2063 1.362 . S
C2063 H2053 0.930 . S
C2063 C2056 1.409 1_655 S
C2063 C2062 1.362 . S
H2064 C2070 0.930 . S
H2065 C2073 0.930 . S
H2066 C2074 0.930 . S
H2067 C2075 0.930 . S
H2068 C2078 0.930 . S
H2069 C2079 0.930 . S
C2070 H2064 0.930 . S
C2070 C2071 1.355 . S
C2070 C2072 1.415 . S
C2071 C2070 1.355 . S
C2071 C2073 1.419 . S
C2072 C2070 1.415 . S
C2072 C2077 1.425 . S
C2072 C2079 1.409 . S
C2073 H2065 0.930 . S
C2073 C2071 1.419 . S
C2073 C2074 1.362 . S
C2074 H2066 0.930 . S
C2074 C2073 1.362 . S
C2074 C2077 1.409 . S
C2075 H2067 0.930 . S
C2075 C2076 1.355 . S
C2075 C2077 1.415 . S
C2076 C2075 1.355 . S
C2076 C2078 1.419 . S
C2077 C2072 1.425 . S
C2077 C2074 1.409 . S
C2077 C2075 1.415 . S
C2078 H2068 0.930 . S
C2078 C2076 1.419 . S
C2078 C2079 1.362 . S
C2079 H2069 0.930 . S
C2079 C2072 1.409 . S
C2079 C2078 1.362 . S
H2080 C2086 0.927 1_565 S
H2081 C2089 0.930 . S
H2082 C2090 0.930 . S
H2083 C2091 0.930 . S
H2084 C2094 0.930 . S
H2085 C2095 0.930 . S
C2086 H2080 0.927 1_545 S
C2086 C2087 1.358 . S
C2086 C2088 1.414 . S
C2087 C2086 1.358 . S
C2087 C2089 1.419 . S
C2088 C2086 1.414 . S
C2088 C2093 1.425 . S
C2088 C2095 1.409 . S
C2089 H2081 0.930 . S
C2089 C2087 1.419 . S
C2089 C2090 1.362 . S
C2090 H2082 0.930 . S
C2090 C2089 1.362 . S
C2090 C2093 1.409 . S
C2091 H2083 0.930 . S
C2091 C2092 1.355 . S
C2091 C2093 1.415 . S
C2092 C2091 1.355 . S
C2092 C2094 1.419 . S
C2093 C2088 1.425 . S
C2093 C2090 1.409 . S
C2093 C2091 1.415 . S
C2094 H2084 0.930 . S
C2094 C2092 1.419 . S
C2094 C2095 1.362 . S
C2095 H2085 0.930 . S
C2095 C2088 1.409 . S
C2095 C2094 1.362 . S
H2096 C2102 0.930 . S
H2097 C2105 0.930 . S
H2098 C2106 0.930 . S
H2099 C2107 0.930 . S
H2100 C2110 0.930 . S
H2101 C2111 0.930 . S
C2102 H2096 0.930 . S
C2102 C2103 1.355 . S
C2102 C2104 1.415 . S
C2103 C2102 1.355 . S
C2103 C2105 1.419 . S
C2104 C2102 1.415 . S
C2104 C2109 1.425 . S
C2104 C2111 1.409 1_655 S
C2105 H2097 0.930 . S
C2105 C2103 1.419 . S
C2105 C2106 1.362 . S
C2106 H2098 0.930 . S
C2106 C2105 1.362 . S
C2106 C2109 1.409 . S
C2107 H2099 0.930 . S
C2107 C2108 1.355 1_655 S
C2107 C2109 1.415 . S
C2108 C2107 1.355 1_455 S
C2108 C2110 1.419 . S
C2109 C2104 1.425 . S
C2109 C2106 1.409 . S
C2109 C2107 1.415 . S
C2110 H2100 0.930 . S
C2110 C2108 1.419 . S
C2110 C2111 1.362 . S
C2111 H2101 0.930 . S
C2111 C2104 1.409 1_455 S
C2111 C2110 1.362 . S
H2112 C2118 0.930 . S
H2113 C2121 0.930 . S
H2114 C2122 0.930 . S
H2115 C2123 0.930 . S
H2116 C2126 0.930 . S
H2117 C2127 0.930 . S
C2118 H2112 0.930 . S
C2118 C2119 1.355 . S
C2118 C2120 1.415 . S
C2119 C2118 1.355 . S
C2119 C2121 1.419 . S
C2120 C2118 1.415 . S
C2120 C2125 1.425 . S
C2120 C2127 1.409 . S
C2121 H2113 0.930 . S
C2121 C2119 1.419 . S
C2121 C2122 1.362 . S
C2122 H2114 0.930 . S
C2122 C2121 1.362 . S
C2122 C2125 1.409 . S
C2123 H2115 0.930 . S
C2123 C2124 1.355 . S
C2123 C2125 1.415 . S
C2124 C2123 1.355 . S
C2124 C2126 1.419 . S
C2125 C2120 1.425 . S
C2125 C2122 1.409 . S
C2125 C2123 1.415 . S
C2126 H2116 0.930 . S
C2126 C2124 1.419 . S
C2126 C2127 1.362 . S
C2127 H2117 0.930 . S
C2127 C2120 1.409 . S
C2127 C2126 1.362 . S
H2128 C2134 0.930 . S
H2129 C2137 0.928 . S
H2130 C2138 0.930 . S
H2131 C2139 0.930 . S
H2132 C2142 0.930 . S
H2133 C2143 0.930 . S
C2134 H2128 0.930 . S
C2134 C2135 1.355 . S
C2134 C2136 1.415 . S
C2135 C2134 1.355 . S
C2135 C2137 1.419 . S
C2136 C2134 1.415 . S
C2136 C2141 1.425 . S
C2136 C2143 1.409 . S
C2137 H2129 0.928 . S
C2137 C2135 1.419 . S
C2137 C2138 1.362 1_545 S
C2138 H2130 0.930 . S
C2138 C2137 1.362 1_565 S
C2138 C2141 1.409 1_565 S
C2139 H2131 0.930 . S
C2139 C2140 1.355 1_565 S
C2139 C2141 1.415 1_565 S
C2140 C2139 1.355 1_545 S
C2140 C2142 1.419 . S
C2141 C2136 1.425 . S
C2141 C2138 1.409 1_545 S
C2141 C2139 1.415 1_545 S
C2142 H2132 0.930 . S
C2142 C2140 1.419 . S
C2142 C2143 1.362 . S
C2143 H2133 0.930 . S
C2143 C2136 1.409 . S
C2143 C2142 1.362 . S
H2144 C2150 0.930 . S
H2145 C2153 0.930 . S
H2146 C2154 0.930 . S
H2147 C2155 0.930 . S
H2148 C2158 0.930 . S
H2149 C2159 0.930 . S
C2150 H2144 0.930 . S
C2150 C2151 1.355 . S
C2150 C2152 1.415 . S
C2151 C2150 1.355 . S
C2151 C2153 1.419 . S
C2152 C2150 1.415 . S
C2152 C2157 1.425 . S
C2152 C2159 1.409 . S
C2153 H2145 0.930 . S
C2153 C2151 1.419 . S
C2153 C2154 1.362 1_655 S
C2154 H2146 0.930 . S
C2154 C2153 1.362 1_455 S
C2154 C2157 1.409 1_455 S
C2155 H2147 0.930 . S
C2155 C2156 1.355 1_455 S
C2155 C2157 1.415 1_455 S
C2156 C2155 1.355 1_655 S
C2156 C2158 1.419 . S
C2157 C2152 1.425 . S
C2157 C2154 1.409 1_655 S
C2157 C2155 1.415 1_655 S
C2158 H2148 0.930 . S
C2158 C2156 1.419 . S
C2158 C2159 1.362 . S
C2159 H2149 0.930 . S
C2159 C2152 1.409 . S
C2159 C2158 1.362 . S
H2160 C2166 0.930 . S
H2161 C2169 0.930 . S
H2162 C2170 0.930 . S
H2163 C2171 0.930 . S
H2164 C2174 0.930 . S
H2165 C2175 0.930 . S
C2166 H2160 0.930 . S
C2166 C2167 1.355 . S
C2166 C2168 1.415 . S
C2167 C2166 1.355 . S
C2167 C2169 1.419 . S
C2168 C2166 1.415 . S
C2168 C2173 1.425 . S
C2168 C2175 1.409 . S
C2169 H2161 0.930 . S
C2169 C2167 1.419 . S
C2169 C2170 1.362 . S
C2170 H2162 0.930 . S
C2170 C2169 1.362 . S
C2170 C2173 1.409 . S
C2171 H2163 0.930 . S
C2171 C2172 1.355 . S
C2171 C2173 1.415 . S
C2172 C2171 1.355 . S
C2172 C2174 1.419 . S
C2173 C2168 1.425 . S
C2173 C2170 1.409 . S
C2173 C2171 1.415 . S
C2174 H2164 0.930 . S
C2174 C2172 1.419 . S
C2174 C2175 1.362 . S
C2175 H2165 0.930 . S
C2175 C2168 1.409 . S
C2175 C2174 1.362 . S
H2176 C2182 0.930 . S
H2177 C2185 0.930 . S
H2178 C2186 0.930 . S
H2179 C2187 0.930 . S
H2180 C2190 0.930 . S
H2181 C2191 0.930 . S
C2182 H2176 0.930 . S
C2182 C2183 1.355 1_565 S
C2182 C2184 1.415 . S
C2183 C2182 1.355 1_545 S
C2183 C2185 1.419 . S
C2184 C2182 1.415 . S
C2184 C2189 1.425 . S
C2184 C2191 1.409 . S
C2185 H2177 0.930 . S
C2185 C2183 1.419 . S
C2185 C2186 1.362 . S
C2186 H2178 0.930 . S
C2186 C2185 1.362 . S
C2186 C2189 1.409 1_545 S
C2187 H2179 0.930 . S
C2187 C2188 1.355 . S
C2187 C2189 1.415 . S
C2188 C2187 1.355 . S
C2188 C2190 1.419 . S
C2189 C2184 1.425 . S
C2189 C2186 1.409 1_565 S
C2189 C2187 1.415 . S
C2190 H2180 0.930 . S
C2190 C2188 1.419 . S
C2190 C2191 1.362 . S
C2191 H2181 0.930 . S
C2191 C2184 1.409 . S
C2191 C2190 1.362 . S
H2192 C2198 0.930 . S
H2193 C2201 0.930 . S
H2194 C2202 0.930 . S
H2195 C2203 0.930 . S
H2196 C2206 0.930 . S
H2197 C2207 0.930 . S
C2198 H2192 0.930 . S
C2198 C2199 1.355 1_655 S
C2198 C2200 1.415 1_655 S
C2199 C2198 1.355 1_455 S
C2199 C2201 1.419 . S
C2200 C2198 1.415 1_455 S
C2200 C2205 1.425 . S
C2200 C2207 1.409 1_455 S
C2201 H2193 0.930 . S
C2201 C2199 1.419 . S
C2201 C2202 1.362 . S
C2202 H2194 0.930 . S
C2202 C2201 1.362 . S
C2202 C2205 1.409 . S
C2203 H2195 0.930 . S
C2203 C2204 1.355 . S
C2203 C2205 1.415 . S
C2204 C2203 1.355 . S
C2204 C2206 1.419 . S
C2205 C2200 1.425 . S
C2205 C2202 1.409 . S
C2205 C2203 1.415 . S
C2206 H2196 0.930 . S
C2206 C2204 1.419 . S
C2206 C2207 1.362 1_455 S
C2207 H2197 0.930 . S
C2207 C2200 1.409 1_655 S
C2207 C2206 1.362 1_655 S
H2208 C2214 0.930 . S
H2209 C2217 0.930 . S
H2210 C2218 0.930 . S
H2211 C2219 0.930 . S
H2212 C2222 0.930 . S
H2213 C2223 0.930 . S
C2214 H2208 0.930 . S
C2214 C2215 1.355 . S
C2214 C2216 1.415 1_655 S
C2215 C2214 1.355 . S
C2215 C2217 1.419 . S
C2216 C2214 1.415 1_455 S
C2216 C2221 1.425 . S
C2216 C2223 1.409 . S
C2217 H2209 0.930 . S
C2217 C2215 1.419 . S
C2217 C2218 1.362 1_655 S
C2218 H2210 0.930 . S
C2218 C2217 1.362 1_455 S
C2218 C2221 1.409 . S
C2219 H2211 0.930 . S
C2219 C2220 1.355 . S
C2219 C2221 1.415 . S
C2220 C2219 1.355 . S
C2220 C2222 1.419 . S
C2221 C2216 1.425 . S
C2221 C2218 1.409 . S
C2221 C2219 1.415 . S
C2222 H2212 0.930 . S
C2222 C2220 1.419 . S
C2222 C2223 1.362 . S
C2223 H2213 0.930 . S
C2223 C2216 1.409 . S
C2223 C2222 1.362 . S
H2224 C2230 0.930 . S
H2225 C2233 0.930 . S
H2226 C2234 0.930 . S
H2227 C2235 0.930 . S
H2228 C2238 0.930 . S
H2229 C2239 0.930 . S
C2230 H2224 0.930 . S
C2230 C2231 1.355 . S
C2230 C2232 1.415 . S
C2231 C2230 1.355 . S
C2231 C2233 1.419 . S
C2232 C2230 1.415 . S
C2232 C2237 1.425 . S
C2232 C2239 1.409 . S
C2233 H2225 0.930 . S
C2233 C2231 1.419 . S
C2233 C2234 1.362 . S
C2234 H2226 0.930 . S
C2234 C2233 1.362 . S
C2234 C2237 1.409 . S
C2235 H2227 0.930 . S
C2235 C2236 1.355 . S
C2235 C2237 1.415 . S
C2236 C2235 1.355 . S
C2236 C2238 1.419 . S
C2237 C2232 1.425 . S
C2237 C2234 1.409 . S
C2237 C2235 1.415 . S
C2238 H2228 0.930 . S
C2238 C2236 1.419 . S
C2238 C2239 1.362 . S
C2239 H2229 0.930 . S
C2239 C2232 1.409 . S
C2239 C2238 1.362 . S
H2240 C2246 0.930 . S
H2241 C2249 0.930 . S
H2242 C2250 0.930 . S
H2243 C2251 0.930 . S
H2244 C2254 0.930 . S
H2245 C2255 0.930 1_565 S
C2246 H2240 0.930 . S
C2246 C2247 1.355 . S
C2246 C2248 1.415 . S
C2247 C2246 1.355 . S
C2247 C2249 1.419 . S
C2248 C2246 1.415 . S
C2248 C2253 1.425 . S
C2248 C2255 1.409 1_565 S
C2249 H2241 0.930 . S
C2249 C2247 1.419 . S
C2249 C2250 1.362 . S
C2250 H2242 0.930 . S
C2250 C2249 1.362 . S
C2250 C2253 1.409 . S
C2251 H2243 0.930 . S
C2251 C2252 1.355 . S
C2251 C2253 1.415 1_545 S
C2252 C2251 1.355 . S
C2252 C2254 1.419 . S
C2253 C2248 1.425 . S
C2253 C2250 1.409 . S
C2253 C2251 1.415 1_565 S
C2254 H2244 0.930 . S
C2254 C2252 1.419 . S
C2254 C2255 1.362 . S
C2255 H2245 0.930 1_545 S
C2255 C2248 1.409 1_545 S
C2255 C2254 1.362 . S
H2256 C2262 0.930 . S
H2257 C2265 0.930 . S
H2258 C2266 0.900 1_655 S
H2259 C2267 0.930 1_655 S
H2260 C2270 0.930 . S
H2261 C2271 0.930 . S
C2262 H2256 0.930 . S
C2262 C2263 1.355 . S
C2262 C2264 1.415 . S
C2263 C2262 1.355 . S
C2263 C2265 1.419 . S
C2264 C2262 1.415 . S
C2264 C2269 1.425 . S
C2264 C2271 1.409 . S
C2265 H2257 0.930 . S
C2265 C2263 1.419 . S
C2265 C2266 1.362 . S
C2266 H2258 0.900 1_455 S
C2266 C2265 1.362 . S
C2266 C2269 1.409 . S
C2267 H2259 0.930 1_455 S
C2267 C2268 1.355 . S
C2267 C2269 1.415 . S
C2268 C2267 1.355 . S
C2268 C2270 1.419 . S
C2269 C2264 1.425 . S
C2269 C2266 1.409 . S
C2269 C2267 1.415 . S
C2270 H2260 0.930 . S
C2270 C2268 1.419 . S
C2270 C2271 1.362 . S
C2271 H2261 0.930 . S
C2271 C2264 1.409 . S
C2271 C2270 1.362 . S
H2272 C2278 0.930 . S
H2273 C2281 0.930 . S
H2274 C2282 0.930 . S
H2275 C2283 0.930 . S
H2276 C2286 0.930 . S
H2277 C2287 0.930 . S
C2278 H2272 0.930 . S
C2278 C2279 1.355 . S
C2278 C2280 1.415 . S
C2279 C2278 1.355 . S
C2279 C2281 1.419 . S
C2280 C2278 1.415 . S
C2280 C2285 1.425 . S
C2280 C2287 1.409 . S
C2281 H2273 0.930 . S
C2281 C2279 1.419 . S
C2281 C2282 1.362 . S
C2282 H2274 0.930 . S
C2282 C2281 1.362 . S
C2282 C2285 1.409 . S
C2283 H2275 0.930 . S
C2283 C2284 1.355 . S
C2283 C2285 1.415 . S
C2284 C2283 1.355 . S
C2284 C2286 1.419 . S
C2285 C2280 1.425 . S
C2285 C2282 1.409 . S
C2285 C2283 1.415 . S
C2286 H2276 0.930 . S
C2286 C2284 1.419 . S
C2286 C2287 1.362 . S
C2287 H2277 0.930 . S
C2287 C2280 1.409 . S
C2287 C2286 1.362 . S
H2288 C2294 0.930 . S
H2289 C2297 0.930 . S
H2290 C2298 0.930 . S
H2291 C2299 0.930 1_545 S
H2292 C2302 0.930 . S
H2293 C2303 0.930 . S
C2294 H2288 0.930 . S
C2294 C2295 1.355 . S
C2294 C2296 1.415 . S
C2295 C2294 1.355 . S
C2295 C2297 1.419 . S
C2296 C2294 1.415 . S
C2296 C2301 1.425 . S
C2296 C2303 1.409 . S
C2297 H2289 0.930 . S
C2297 C2295 1.419 . S
C2297 C2298 1.362 . S
C2298 H2290 0.930 . S
C2298 C2297 1.362 . S
C2298 C2301 1.409 . S
C2299 H2291 0.930 1_565 S
C2299 C2300 1.355 . S
C2299 C2301 1.415 . S
C2300 C2299 1.355 . S
C2300 C2302 1.419 . S
C2301 C2296 1.425 . S
C2301 C2298 1.409 . S
C2301 C2299 1.415 . S
C2302 H2292 0.930 . S
C2302 C2300 1.419 . S
C2302 C2303 1.362 . S
C2303 H2293 0.930 . S
C2303 C2296 1.409 . S
C2303 C2302 1.362 . S
H2304 C2310 0.930 . S
H2305 C2313 0.930 . S
H2306 C2314 0.930 . S
H2307 C2315 0.930 . S
H2308 C2318 0.930 . S
H2309 C2319 0.930 1_545 S
C2310 H2304 0.930 . S
C2310 C2311 1.355 . S
C2310 C2312 1.415 . S
C2311 C2310 1.355 . S
C2311 C2313 1.419 . S
C2312 C2310 1.415 . S
C2312 C2317 1.425 . S
C2312 C2319 1.409 . S
C2313 H2305 0.930 . S
C2313 C2311 1.419 . S
C2313 C2314 1.362 . S
C2314 H2306 0.930 . S
C2314 C2313 1.362 . S
C2314 C2317 1.409 . S
C2315 H2307 0.930 . S
C2315 C2316 1.355 . S
C2315 C2317 1.415 . S
C2316 C2315 1.355 . S
C2316 C2318 1.419 1_565 S
C2317 C2312 1.425 . S
C2317 C2314 1.409 . S
C2317 C2315 1.415 . S
C2318 H2308 0.930 . S
C2318 C2316 1.419 1_545 S
C2318 C2319 1.362 1_545 S
C2319 H2309 0.930 1_565 S
C2319 C2312 1.409 . S
C2319 C2318 1.362 1_565 S
H2320 C2326 0.930 . S
H2321 C2329 0.930 1_655 S
H2322 C2330 0.930 . S
H2323 C2331 0.930 . S
H2324 C2334 0.930 . S
H2325 C2335 0.930 . S
C2326 H2320 0.930 . S
C2326 C2327 1.355 . S
C2326 C2328 1.415 . S
C2327 C2326 1.355 . S
C2327 C2329 1.419 . S
C2328 C2326 1.415 . S
C2328 C2333 1.425 . S
C2328 C2335 1.409 . S
C2329 H2321 0.930 1_455 S
C2329 C2327 1.419 . S
C2329 C2330 1.362 . S
C2330 H2322 0.930 . S
C2330 C2329 1.362 . S
C2330 C2333 1.409 . S
C2331 H2323 0.930 . S
C2331 C2332 1.355 . S
C2331 C2333 1.415 . S
C2332 C2331 1.355 . S
C2332 C2334 1.419 . S
C2333 C2328 1.425 . S
C2333 C2330 1.409 . S
C2333 C2331 1.415 . S
C2334 H2324 0.930 . S
C2334 C2332 1.419 . S
C2334 C2335 1.362 . S
C2335 H2325 0.930 . S
C2335 C2328 1.409 . S
C2335 C2334 1.362 . S
H2336 C2342 0.930 . S
H2337 C2345 0.930 . S
H2338 C2346 0.930 . S
H2339 C2347 0.930 . S
H2340 C2350 0.930 . S
H2341 C2351 0.930 . S
C2342 H2336 0.930 . S
C2342 C2343 1.355 . S
C2342 C2344 1.415 . S
C2343 C2342 1.355 . S
C2343 C2345 1.419 . S
C2344 C2342 1.415 . S
C2344 C2349 1.425 . S
C2344 C2351 1.409 . S
C2345 H2337 0.930 . S
C2345 C2343 1.419 . S
C2345 C2346 1.362 . S
C2346 H2338 0.930 . S
C2346 C2345 1.362 . S
C2346 C2349 1.409 . S
C2347 H2339 0.930 . S
C2347 C2348 1.355 . S
C2347 C2349 1.415 . S
C2348 C2347 1.355 . S
C2348 C2350 1.419 . S
C2349 C2344 1.425 . S
C2349 C2346 1.409 . S
C2349 C2347 1.415 . S
C2350 H2340 0.930 . S
C2350 C2348 1.419 . S
C2350 C2351 1.362 . S
C2351 H2341 0.930 . S
C2351 C2344 1.409 . S
C2351 C2350 1.362 . S
H2352 C2358 0.930 . S
H2353 C2361 0.930 . S
H2354 C2362 0.930 . S
H2355 C2363 0.930 . S
H2356 C2366 0.930 . S
H2357 C2367 0.930 . S
C2358 H2352 0.930 . S
C2358 C2359 1.284 1_556 S
C2358 C2360 1.415 . S
C2359 C2358 1.284 1_554 S
C2359 C2361 1.498 . S
C2360 C2358 1.415 . S
C2360 C2365 1.425 1_556 S
C2360 C2367 1.409 . S
C2361 H2353 0.930 . S
C2361 C2359 1.498 . S
C2361 C2362 1.362 . S
C2362 H2354 0.930 . S
C2362 C2361 1.362 . S
C2362 C2365 1.409 . S
C2363 H2355 0.930 . S
C2363 C2364 1.355 1_554 S
C2363 C2365 1.415 1_545 S
C2364 C2363 1.355 1_556 S
C2364 C2366 1.419 . S
C2365 C2360 1.425 1_554 S
C2365 C2362 1.409 . S
C2365 C2363 1.415 1_565 S
C2366 H2356 0.930 . S
C2366 C2364 1.419 . S
C2366 C2367 1.362 1_545 S
C2367 H2357 0.930 . S
C2367 C2360 1.409 . S
C2367 C2366 1.362 1_565 S
H2368 C2374 0.927 1_554 S
H2369 C2377 0.929 1_554 S
H2370 C2378 0.930 . S
H2371 C2379 0.930 . S
H2372 C2382 0.930 . S
H2373 C2383 0.930 . S
C2374 H2368 0.927 1_556 S
C2374 C2375 1.353 1_556 S
C2374 C2376 1.419 . S
C2375 C2374 1.353 1_554 S
C2375 C2377 1.418 1_554 S
C2376 C2374 1.419 . S
C2376 C2381 1.425 . S
C2376 C2383 1.409 . S
C2377 H2369 0.929 1_556 S
C2377 C2375 1.418 1_556 S
C2377 C2378 1.365 . S
C2378 H2370 0.930 . S
C2378 C2377 1.365 . S
C2378 C2381 1.409 . S
C2379 H2371 0.930 . S
C2379 C2380 1.355 . S
C2379 C2381 1.415 1_655 S
C2380 C2379 1.355 . S
C2380 C2382 1.419 . S
C2381 C2376 1.425 . S
C2381 C2378 1.409 . S
C2381 C2379 1.415 1_455 S
C2382 H2372 0.930 . S
C2382 C2380 1.419 . S
C2382 C2383 1.362 1_655 S
C2383 H2373 0.930 . S
C2383 C2376 1.409 . S
C2383 C2382 1.362 1_455 S
H2384 C2390 0.930 . S
H2385 C2393 0.930 . S
H2386 C2394 0.930 . S
H2387 C2395 0.930 . S
H2388 C2398 0.930 . S
H2389 C2399 0.930 . S
C2390 H2384 0.930 . S
C2390 C2391 1.355 . S
C2390 C2392 1.415 . S
C2391 C2390 1.355 . S
C2391 C2393 1.419 1_556 S
C2392 C2390 1.415 . S
C2392 C2397 1.367 1_556 S
C2392 C2399 1.409 . S
C2393 H2385 0.930 . S
C2393 C2391 1.419 1_554 S
C2393 C2394 1.362 . S
C2394 H2386 0.930 . S
C2394 C2393 1.362 . S
C2394 C2397 1.448 . S
C2395 H2387 0.930 . S
C2395 C2396 1.331 1_554 S
C2395 C2397 1.441 . S
C2396 C2395 1.331 1_556 S
C2396 C2398 1.459 . S
C2397 C2392 1.367 1_554 S
C2397 C2394 1.448 . S
C2397 C2395 1.441 . S
C2398 H2388 0.930 . S
C2398 C2396 1.459 . S
C2398 C2399 1.362 . S
C2399 H2389 0.930 . S
C2399 C2392 1.409 . S
C2399 C2398 1.362 . S
H2400 C2406 0.930 . S
H2401 C2409 0.930 . S
H2402 C2410 0.930 . S
H2403 C2411 0.930 1_565 S
H2404 C2414 0.930 . S
H2405 C2415 0.930 . S
C2406 H2400 0.930 . S
C2406 C2407 1.355 . S
C2406 C2408 1.415 . S
C2407 C2406 1.355 . S
C2407 C2409 1.419 . S
C2408 C2406 1.415 . S
C2408 C2413 1.425 . S
C2408 C2415 1.409 . S
C2409 H2401 0.930 . S
C2409 C2407 1.419 . S
C2409 C2410 1.362 . S
C2410 H2402 0.930 . S
C2410 C2409 1.362 . S
C2410 C2413 1.409 . S
C2411 H2403 0.930 1_545 S
C2411 C2412 1.355 . S
C2411 C2413 1.415 . S
C2412 C2411 1.355 . S
C2412 C2414 1.419 . S
C2413 C2408 1.425 . S
C2413 C2410 1.409 . S
C2413 C2411 1.415 . S
C2414 H2404 0.930 . S
C2414 C2412 1.419 . S
C2414 C2415 1.362 . S
C2415 H2405 0.930 . S
C2415 C2408 1.409 . S
C2415 C2414 1.362 . S
H2416 C2422 0.930 . S
H2417 C2425 0.930 . S
H2418 C2426 0.930 . S
H2419 C2427 0.930 . S
H2420 C2430 0.930 . S
H2421 C2431 0.930 1_455 S
C2422 H2416 0.930 . S
C2422 C2423 1.355 . S
C2422 C2424 1.415 . S
C2423 C2422 1.355 . S
C2423 C2425 1.419 . S
C2424 C2422 1.415 . S
C2424 C2429 1.425 . S
C2424 C2431 1.409 . S
C2425 H2417 0.930 . S
C2425 C2423 1.419 . S
C2425 C2426 1.362 . S
C2426 H2418 0.930 . S
C2426 C2425 1.362 . S
C2426 C2429 1.409 . S
C2427 H2419 0.930 . S
C2427 C2428 1.355 . S
C2427 C2429 1.415 . S
C2428 C2427 1.355 . S
C2428 C2430 1.419 1_655 S
C2429 C2424 1.425 . S
C2429 C2426 1.409 . S
C2429 C2427 1.415 . S
C2430 H2420 0.930 . S
C2430 C2428 1.419 1_455 S
C2430 C2431 1.362 1_455 S
C2431 H2421 0.930 1_655 S
C2431 C2424 1.409 . S
C2431 C2430 1.362 1_655 S
H2432 C2438 0.930 . S
H2433 C2441 0.930 . S
H2434 C2442 0.930 . S
H2435 C2443 0.930 . S
H2436 C2446 0.930 . S
H2437 C2447 0.930 . S
C2438 H2432 0.930 . S
C2438 C2439 1.355 . S
C2438 C2440 1.415 . S
C2439 C2438 1.355 . S
C2439 C2441 1.419 . S
C2440 C2438 1.415 . S
C2440 C2445 1.425 . S
C2440 C2447 1.409 . S
C2441 H2433 0.930 . S
C2441 C2439 1.419 . S
C2441 C2442 1.362 . S
C2442 H2434 0.930 . S
C2442 C2441 1.362 . S
C2442 C2445 1.409 . S
C2443 H2435 0.930 . S
C2443 C2444 1.355 . S
C2443 C2445 1.415 . S
C2444 C2443 1.355 . S
C2444 C2446 1.419 . S
C2445 C2440 1.425 . S
C2445 C2442 1.409 . S
C2445 C2443 1.415 . S
C2446 H2436 0.930 . S
C2446 C2444 1.419 . S
C2446 C2447 1.362 . S
C2447 H2437 0.930 . S
C2447 C2440 1.409 . S
C2447 C2446 1.362 . S
H2448 C2454 0.930 . S
H2449 C2457 0.930 . S
H2450 C2458 0.930 . S
H2451 C2459 0.929 . S
H2452 C2462 0.926 . S
H2453 C2463 0.930 . S
C2454 H2448 0.930 . S
C2454 C2455 1.355 . S
C2454 C2456 1.415 1_565 S
C2455 C2454 1.355 . S
C2455 C2457 1.419 . S
C2456 C2454 1.415 1_545 S
C2456 C2461 1.425 . S
C2456 C2463 1.427 . S
C2457 H2449 0.930 . S
C2457 C2455 1.419 . S
C2457 C2458 1.362 1_565 S
C2458 H2450 0.930 . S
C2458 C2457 1.362 1_545 S
C2458 C2461 1.409 . S
C2459 H2451 0.929 . S
C2459 C2460 1.349 1_554 S
C2459 C2461 1.431 . S
C2460 C2459 1.349 1_556 S
C2460 C2462 1.419 . S
C2461 C2456 1.425 . S
C2461 C2458 1.409 . S
C2461 C2459 1.431 . S
C2462 H2452 0.926 . S
C2462 C2460 1.419 . S
C2462 C2463 1.356 1_556 S
C2463 H2453 0.930 . S
C2463 C2456 1.427 . S
C2463 C2462 1.356 1_554 S
H2464 C2470 0.939 . S
H2465 C2473 0.928 . S
H2466 C2474 0.930 . S
H2467 C2475 0.930 . S
H2468 C2478 0.930 . S
H2469 C2479 0.930 . S
C2470 H2464 0.939 . S
C2470 C2471 1.358 . S
C2470 C2472 1.415 . S
C2471 C2470 1.358 . S
C2471 C2473 1.418 . S
C2472 C2470 1.415 . S
C2472 C2477 1.425 . S
C2472 C2479 1.409 . S
C2473 H2465 0.928 . S
C2473 C2471 1.418 . S
C2473 C2474 1.374 . S
C2474 H2466 0.930 . S
C2474 C2473 1.374 . S
C2474 C2477 1.409 . S
C2475 H2467 0.930 . S
C2475 C2476 1.355 . S
C2475 C2477 1.415 1_455 S
C2476 C2475 1.355 . S
C2476 C2478 1.419 . S
C2477 C2472 1.425 . S
C2477 C2474 1.409 . S
C2477 C2475 1.415 1_655 S
C2478 H2468 0.930 . S
C2478 C2476 1.419 . S
C2478 C2479 1.362 1_455 S
C2479 H2469 0.930 . S
C2479 C2472 1.409 . S
C2479 C2478 1.362 1_655 S
H2480 C2486 0.930 . S
H2481 C2489 0.930 . S
H2482 C2490 0.930 . S
H2483 C2491 0.930 . S
H2484 C2494 0.926 1_556 S
H2485 C2495 0.930 . S
C2486 H2480 0.930 . S
C2486 C2487 1.355 . S
C2486 C2488 1.415 . S
C2487 C2486 1.355 . S
C2487 C2489 1.419 . S
C2488 C2486 1.415 . S
C2488 C2493 1.425 . S
C2488 C2495 1.409 . S
C2489 H2481 0.930 . S
C2489 C2487 1.419 . S
C2489 C2490 1.362 . S
C2490 H2482 0.930 . S
C2490 C2489 1.362 . S
C2490 C2493 1.409 . S
C2491 H2483 0.930 . S
C2491 C2492 1.363 . S
C2491 C2493 1.415 . S
C2492 C2491 1.363 . S
C2492 C2494 1.419 . S
C2493 C2488 1.425 . S
C2493 C2490 1.409 . S
C2493 C2491 1.415 . S
C2494 H2484 0.926 1_554 S
C2494 C2492 1.419 . S
C2494 C2495 1.369 . S
C2495 H2485 0.930 . S
C2495 C2488 1.409 . S
C2495 C2494 1.369 . S
H2496 C2502 0.930 . S
H2497 C2505 0.930 . S
H2498 C2506 0.940 1_655 S
H2499 C2507 0.930 . S
H2500 C2510 0.930 . S
H2501 C2511 0.930 . S
C2502 H2496 0.930 . S
C2502 C2503 1.355 . S
C2502 C2504 1.415 1_455 S
C2503 C2502 1.355 . S
C2503 C2505 1.419 . S
C2504 C2502 1.415 1_655 S
C2504 C2509 1.425 . S
C2504 C2511 1.409 . S
C2505 H2497 0.930 . S
C2505 C2503 1.419 . S
C2505 C2506 1.362 . S
C2506 H2498 0.940 1_455 S
C2506 C2505 1.362 . S
C2506 C2509 1.409 1_455 S
C2507 H2499 0.930 . S
C2507 C2508 1.355 . S
C2507 C2509 1.415 . S
C2508 C2507 1.355 . S
C2508 C2510 1.419 . S
C2509 C2504 1.425 . S
C2509 C2506 1.409 1_655 S
C2509 C2507 1.415 . S
C2510 H2500 0.930 . S
C2510 C2508 1.419 . S
C2510 C2511 1.362 . S
C2511 H2501 0.930 . S
C2511 C2504 1.409 . S
C2511 C2510 1.362 . S
H2512 C2518 0.930 . S
H2513 C2521 0.930 . S
H2514 C2522 0.930 . S
H2515 C2523 0.930 . S
H2516 C2526 0.930 . S
H2517 C2527 0.930 . S
C2518 H2512 0.930 . S
C2518 C2519 1.355 . S
C2518 C2520 1.415 . S
C2519 C2518 1.355 . S
C2519 C2521 1.419 . S
C2520 C2518 1.415 . S
C2520 C2525 1.425 . S
C2520 C2527 1.409 . S
C2521 H2513 0.930 . S
C2521 C2519 1.419 . S
C2521 C2522 1.362 . S
C2522 H2514 0.930 . S
C2522 C2521 1.362 . S
C2522 C2525 1.409 . S
C2523 H2515 0.930 . S
C2523 C2524 1.355 . S
C2523 C2525 1.415 . S
C2524 C2523 1.355 . S
C2524 C2526 1.419 . S
C2525 C2520 1.425 . S
C2525 C2522 1.409 . S
C2525 C2523 1.415 . S
C2526 H2516 0.930 . S
C2526 C2524 1.419 . S
C2526 C2527 1.362 . S
C2527 H2517 0.930 . S
C2527 C2520 1.409 . S
C2527 C2526 1.362 . S
H2528 C2534 0.930 . S
H2529 C2537 0.930 . S
H2530 C2538 0.930 . S
H2531 C2539 0.930 . S
H2532 C2542 0.930 . S
H2533 C2543 0.930 . S
C2534 H2528 0.930 . S
C2534 C2535 1.355 . S
C2534 C2536 1.415 1_565 S
C2535 C2534 1.355 . S
C2535 C2537 1.419 . S
C2536 C2534 1.415 1_545 S
C2536 C2541 1.425 . S
C2536 C2543 1.409 . S
C2537 H2529 0.930 . S
C2537 C2535 1.419 . S
C2537 C2538 1.362 1_565 S
C2538 H2530 0.930 . S
C2538 C2537 1.362 1_545 S
C2538 C2541 1.409 . S
C2539 H2531 0.930 . S
C2539 C2540 1.355 . S
C2539 C2541 1.415 . S
C2540 C2539 1.355 . S
C2540 C2542 1.419 . S
C2541 C2536 1.425 . S
C2541 C2538 1.409 . S
C2541 C2539 1.415 . S
C2542 H2532 0.930 . S
C2542 C2540 1.419 . S
C2542 C2543 1.362 . S
C2543 H2533 0.930 . S
C2543 C2536 1.409 . S
C2543 C2542 1.362 . S
H2544 C2550 0.930 1_455 S
H2545 C2553 0.930 . S
H2546 C2554 0.930 . S
H2547 C2555 0.930 . S
H2548 C2558 0.930 . S
H2549 C2559 0.930 . S
C2550 H2544 0.930 1_655 S
C2550 C2551 1.355 . S
C2550 C2552 1.415 . S
C2551 C2550 1.355 . S
C2551 C2553 1.419 . S
C2552 C2550 1.415 . S
C2552 C2557 1.425 . S
C2552 C2559 1.409 . S
C2553 H2545 0.930 . S
C2553 C2551 1.419 . S
C2553 C2554 1.362 . S
C2554 H2546 0.930 . S
C2554 C2553 1.362 . S
C2554 C2557 1.409 . S
C2555 H2547 0.930 . S
C2555 C2556 1.355 . S
C2555 C2557 1.415 . S
C2556 C2555 1.355 . S
C2556 C2558 1.419 . S
C2557 C2552 1.425 . S
C2557 C2554 1.409 . S
C2557 C2555 1.415 . S
C2558 H2548 0.930 . S
C2558 C2556 1.419 . S
C2558 C2559 1.362 . S
C2559 H2549 0.930 . S
C2559 C2552 1.409 . S
C2559 C2558 1.362 . S
H2560 C2566 0.930 . S
H2561 C2569 0.930 . S
H2562 C2570 0.930 . S
H2563 C2571 0.930 . S
H2564 C2574 0.930 . S
H2565 C2575 0.930 . S
C2566 H2560 0.930 . S
C2566 C2567 1.355 . S
C2566 C2568 1.415 . S
C2567 C2566 1.355 . S
C2567 C2569 1.419 . S
C2568 C2566 1.415 . S
C2568 C2573 1.425 . S
C2568 C2575 1.409 . S
C2569 H2561 0.930 . S
C2569 C2567 1.419 . S
C2569 C2570 1.362 . S
C2570 H2562 0.930 . S
C2570 C2569 1.362 . S
C2570 C2573 1.409 . S
C2571 H2563 0.930 . S
C2571 C2572 1.355 . S
C2571 C2573 1.415 . S
C2572 C2571 1.355 . S
C2572 C2574 1.419 . S
C2573 C2568 1.425 . S
C2573 C2570 1.409 . S
C2573 C2571 1.415 . S
C2574 H2564 0.930 . S
C2574 C2572 1.419 . S
C2574 C2575 1.362 . S
C2575 H2565 0.930 . S
C2575 C2568 1.409 . S
C2575 C2574 1.362 . S
H2576 C2582 0.930 . S
H2577 C2585 0.930 . S
H2578 C2586 0.930 . S
H2579 C2587 0.930 . S
H2580 C2590 0.930 . S
H2581 C2591 0.930 1_565 S
C2582 H2576 0.930 . S
C2582 C2583 1.355 . S
C2582 C2584 1.415 . S
C2583 C2582 1.355 . S
C2583 C2585 1.419 . S
C2584 C2582 1.415 . S
C2584 C2589 1.425 . S
C2584 C2591 1.409 . S
C2585 H2577 0.930 . S
C2585 C2583 1.419 . S
C2585 C2586 1.362 . S
C2586 H2578 0.930 . S
C2586 C2585 1.362 . S
C2586 C2589 1.409 . S
C2587 H2579 0.930 . S
C2587 C2588 1.355 . S
C2587 C2589 1.415 . S
C2588 C2587 1.355 . S
C2588 C2590 1.419 1_545 S
C2589 C2584 1.425 . S
C2589 C2586 1.409 . S
C2589 C2587 1.415 . S
C2590 H2580 0.930 . S
C2590 C2588 1.419 1_565 S
C2590 C2591 1.362 1_565 S
C2591 H2581 0.930 1_545 S
C2591 C2584 1.409 . S
C2591 C2590 1.362 1_545 S
H2592 C2598 0.930 . S
H2593 C2601 0.930 . S
H2594 C2602 0.930 . S
H2595 C2603 0.930 . S
H2596 C2606 0.930 . S
H2597 C2607 0.930 . S
C2598 H2592 0.930 . S
C2598 C2599 1.355 . S
C2598 C2600 1.415 . S
C2599 C2598 1.355 . S
C2599 C2601 1.419 . S
C2600 C2598 1.415 . S
C2600 C2605 1.425 . S
C2600 C2607 1.409 . S
C2601 H2593 0.930 . S
C2601 C2599 1.419 . S
C2601 C2602 1.362 . S
C2602 H2594 0.930 . S
C2602 C2601 1.362 . S
C2602 C2605 1.409 . S
C2603 H2595 0.930 . S
C2603 C2604 1.355 . S
C2603 C2605 1.415 . S
C2604 C2603 1.355 . S
C2604 C2606 1.419 . S
C2605 C2600 1.425 . S
C2605 C2602 1.409 . S
C2605 C2603 1.415 . S
C2606 H2596 0.930 . S
C2606 C2604 1.419 . S
C2606 C2607 1.362 . S
C2607 H2597 0.930 . S
C2607 C2600 1.409 . S
C2607 C2606 1.362 . S
H2608 C2614 0.930 . S
H2609 C2617 0.930 . S
H2610 C2618 0.930 . S
H2611 C2619 0.930 . S
H2612 C2622 0.930 . S
H2613 C2623 0.930 . S
C2614 H2608 0.930 . S
C2614 C2615 1.355 . S
C2614 C2616 1.415 . S
C2615 C2614 1.355 . S
C2615 C2617 1.419 . S
C2616 C2614 1.415 . S
C2616 C2621 1.425 . S
C2616 C2623 1.409 . S
C2617 H2609 0.930 . S
C2617 C2615 1.419 . S
C2617 C2618 1.362 . S
C2618 H2610 0.930 . S
C2618 C2617 1.362 . S
C2618 C2621 1.409 . S
C2619 H2611 0.930 . S
C2619 C2620 1.355 . S
C2619 C2621 1.415 . S
C2620 C2619 1.355 . S
C2620 C2622 1.419 . S
C2621 C2616 1.425 . S
C2621 C2618 1.409 . S
C2621 C2619 1.415 . S
C2622 H2612 0.930 . S
C2622 C2620 1.419 . S
C2622 C2623 1.362 . S
C2623 H2613 0.930 . S
C2623 C2616 1.409 . S
C2623 C2622 1.362 . S
H2624 C2630 0.930 . S
H2625 C2633 0.930 . S
H2626 C2634 0.930 . S
H2627 C2635 0.930 . S
H2628 C2638 0.930 . S
H2629 C2639 0.930 . S
C2630 H2624 0.930 . S
C2630 C2631 1.355 . S
C2630 C2632 1.415 . S
C2631 C2630 1.355 . S
C2631 C2633 1.419 . S
C2632 C2630 1.415 . S
C2632 C2637 1.425 . S
C2632 C2639 1.409 . S
C2633 H2625 0.930 . S
C2633 C2631 1.419 . S
C2633 C2634 1.362 . S
C2634 H2626 0.930 . S
C2634 C2633 1.362 . S
C2634 C2637 1.409 . S
C2635 H2627 0.930 . S
C2635 C2636 1.355 . S
C2635 C2637 1.415 . S
C2636 C2635 1.355 . S
C2636 C2638 1.419 . S
C2637 C2632 1.425 . S
C2637 C2634 1.409 . S
C2637 C2635 1.415 . S
C2638 H2628 0.930 . S
C2638 C2636 1.419 . S
C2638 C2639 1.362 . S
C2639 H2629 0.930 . S
C2639 C2632 1.409 . S
C2639 C2638 1.362 . S
H2640 C2646 0.930 . S
H2641 C2649 0.930 . S
H2642 C2650 0.930 . S
H2643 C2651 0.930 . S
H2644 C2654 0.930 . S
H2645 C2655 0.930 . S
C2646 H2640 0.930 . S
C2646 C2647 1.355 . S
C2646 C2648 1.415 . S
C2647 C2646 1.355 . S
C2647 C2649 1.419 . S
C2648 C2646 1.415 . S
C2648 C2653 1.425 . S
C2648 C2655 1.409 . S
C2649 H2641 0.930 . S
C2649 C2647 1.419 . S
C2649 C2650 1.362 . S
C2650 H2642 0.930 . S
C2650 C2649 1.362 . S
C2650 C2653 1.409 . S
C2651 H2643 0.930 . S
C2651 C2652 1.355 . S
C2651 C2653 1.415 . S
C2652 C2651 1.355 . S
C2652 C2654 1.419 . S
C2653 C2648 1.425 . S
C2653 C2650 1.409 . S
C2653 C2651 1.415 . S
C2654 H2644 0.930 . S
C2654 C2652 1.419 . S
C2654 C2655 1.362 . S
C2655 H2645 0.930 . S
C2655 C2648 1.409 . S
C2655 C2654 1.362 . S
H2656 C2662 0.930 . S
H2657 C2665 0.930 . S
H2658 C2666 0.930 . S
H2659 C2667 0.930 . S
H2660 C2670 0.930 . S
H2661 C2671 0.930 . S
C2662 H2656 0.930 . S
C2662 C2663 1.355 . S
C2662 C2664 1.415 . S
C2663 C2662 1.355 . S
C2663 C2665 1.419 . S
C2664 C2662 1.415 . S
C2664 C2669 1.425 . S
C2664 C2671 1.409 . S
C2665 H2657 0.930 . S
C2665 C2663 1.419 . S
C2665 C2666 1.362 . S
C2666 H2658 0.930 . S
C2666 C2665 1.362 . S
C2666 C2669 1.409 . S
C2667 H2659 0.930 . S
C2667 C2668 1.355 . S
C2667 C2669 1.415 . S
C2668 C2667 1.355 . S
C2668 C2670 1.419 . S
C2669 C2664 1.425 . S
C2669 C2666 1.409 . S
C2669 C2667 1.415 . S
C2670 H2660 0.930 . S
C2670 C2668 1.419 . S
C2670 C2671 1.362 . S
C2671 H2661 0.930 . S
C2671 C2664 1.409 . S
C2671 C2670 1.362 . S
H2672 C2678 0.930 . S
H2673 C2681 0.930 . S
H2674 C2682 0.930 . S
H2675 C2683 0.930 . S
H2676 C2686 0.930 . S
H2677 C2687 0.930 . S
C2678 H2672 0.930 . S
C2678 C2679 1.355 . S
C2678 C2680 1.415 . S
C2679 C2678 1.355 . S
C2679 C2681 1.419 . S
C2680 C2678 1.415 . S
C2680 C2685 1.425 . S
C2680 C2687 1.409 . S
C2681 H2673 0.930 . S
C2681 C2679 1.419 . S
C2681 C2682 1.362 . S
C2682 H2674 0.930 . S
C2682 C2681 1.362 . S
C2682 C2685 1.409 . S
C2683 H2675 0.930 . S
C2683 C2684 1.355 . S
C2683 C2685 1.415 . S
C2684 C2683 1.355 . S
C2684 C2686 1.419 . S
C2685 C2680 1.425 . S
C2685 C2682 1.409 . S
C2685 C2683 1.415 . S
C2686 H2676 0.930 . S
C2686 C2684 1.419 . S
C2686 C2687 1.362 . S
C2687 H2677 0.930 . S
C2687 C2680 1.409 . S
C2687 C2686 1.362 . S
H2688 C2694 0.930 . S
H2689 C2697 0.930 . S
H2690 C2698 0.930 . S
H2691 C2699 0.930 . S
H2692 C2702 0.930 . S
H2693 C2703 0.930 . S
C2694 H2688 0.930 . S
C2694 C2695 1.355 . S
C2694 C2696 1.415 . S
C2695 C2694 1.355 . S
C2695 C2697 1.419 . S
C2696 C2694 1.415 . S
C2696 C2701 1.425 . S
C2696 C2703 1.409 . S
C2697 H2689 0.930 . S
C2697 C2695 1.419 . S
C2697 C2698 1.362 . S
C2698 H2690 0.930 . S
C2698 C2697 1.362 . S
C2698 C2701 1.409 . S
C2699 H2691 0.930 . S
C2699 C2700 1.355 . S
C2699 C2701 1.415 . S
C2700 C2699 1.355 . S
C2700 C2702 1.419 . S
C2701 C2696 1.425 . S
C2701 C2698 1.409 . S
C2701 C2699 1.415 . S
C2702 H2692 0.930 . S
C2702 C2700 1.419 . S
C2702 C2703 1.362 . S
C2703 H2693 0.930 . S
C2703 C2696 1.409 . S
C2703 C2702 1.362 . S
H2704 C2710 0.930 . S
H2705 C2713 0.930 . S
H2706 C2714 0.930 . S
H2707 C2715 0.930 . S
H2708 C2718 0.930 . S
H2709 C2719 0.930 . S
C2710 H2704 0.930 . S
C2710 C2711 1.355 . S
C2710 C2712 1.415 . S
C2711 C2710 1.355 . S
C2711 C2713 1.419 . S
C2712 C2710 1.415 . S
C2712 C2717 1.425 . S
C2712 C2719 1.409 . S
C2713 H2705 0.930 . S
C2713 C2711 1.419 . S
C2713 C2714 1.362 . S
C2714 H2706 0.930 . S
C2714 C2713 1.362 . S
C2714 C2717 1.409 . S
C2715 H2707 0.930 . S
C2715 C2716 1.355 . S
C2715 C2717 1.415 . S
C2716 C2715 1.355 . S
C2716 C2718 1.419 . S
C2717 C2712 1.425 . S
C2717 C2714 1.409 . S
C2717 C2715 1.415 . S
C2718 H2708 0.930 . S
C2718 C2716 1.419 . S
C2718 C2719 1.362 . S
C2719 H2709 0.930 . S
C2719 C2712 1.409 . S
C2719 C2718 1.362 . S
H2720 C2726 0.930 . S
H2721 C2729 0.930 . S
H2722 C2730 0.930 . S
H2723 C2731 0.930 . S
H2724 C2734 0.930 . S
H2725 C2735 0.930 . S
C2726 H2720 0.930 . S
C2726 C2727 1.355 . S
C2726 C2728 1.415 . S
C2727 C2726 1.355 . S
C2727 C2729 1.419 . S
C2728 C2726 1.415 . S
C2728 C2733 1.425 . S
C2728 C2735 1.409 . S
C2729 H2721 0.930 . S
C2729 C2727 1.419 . S
C2729 C2730 1.362 . S
C2730 H2722 0.930 . S
C2730 C2729 1.362 . S
C2730 C2733 1.409 . S
C2731 H2723 0.930 . S
C2731 C2732 1.355 . S
C2731 C2733 1.415 . S
C2732 C2731 1.355 . S
C2732 C2734 1.419 . S
C2733 C2728 1.425 . S
C2733 C2730 1.409 . S
C2733 C2731 1.415 . S
C2734 H2724 0.930 . S
C2734 C2732 1.419 . S
C2734 C2735 1.362 . S
C2735 H2725 0.930 . S
C2735 C2728 1.409 . S
C2735 C2734 1.362 . S
H2736 C2742 0.930 . S
H2737 C2745 0.930 . S
H2738 C2746 0.930 . S
H2739 C2747 0.930 . S
H2740 C2750 0.930 . S
H2741 C2751 0.930 . S
C2742 H2736 0.930 . S
C2742 C2743 1.355 . S
C2742 C2744 1.415 . S
C2743 C2742 1.355 . S
C2743 C2745 1.419 . S
C2744 C2742 1.415 . S
C2744 C2749 1.425 . S
C2744 C2751 1.409 . S
C2745 H2737 0.930 . S
C2745 C2743 1.419 . S
C2745 C2746 1.362 . S
C2746 H2738 0.930 . S
C2746 C2745 1.362 . S
C2746 C2749 1.409 . S
C2747 H2739 0.930 . S
C2747 C2748 1.355 . S
C2747 C2749 1.415 . S
C2748 C2747 1.355 . S
C2748 C2750 1.419 . S
C2749 C2744 1.425 . S
C2749 C2746 1.409 . S
C2749 C2747 1.415 . S
C2750 H2740 0.930 . S
C2750 C2748 1.419 . S
C2750 C2751 1.362 . S
C2751 H2741 0.930 . S
C2751 C2744 1.409 . S
C2751 C2750 1.362 . S
H2752 C2758 0.930 . S
H2753 C2761 0.930 . S
H2754 C2762 0.930 . S
H2755 C2763 0.930 . S
H2756 C2766 0.930 . S
H2757 C2767 0.930 . S
C2758 H2752 0.930 . S
C2758 C2759 1.355 . S
C2758 C2760 1.415 . S
C2759 C2758 1.355 . S
C2759 C2761 1.419 . S
C2760 C2758 1.415 . S
C2760 C2765 1.425 . S
C2760 C2767 1.409 . S
C2761 H2753 0.930 . S
C2761 C2759 1.419 . S
C2761 C2762 1.362 . S
C2762 H2754 0.930 . S
C2762 C2761 1.362 . S
C2762 C2765 1.409 . S
C2763 H2755 0.930 . S
C2763 C2764 1.355 . S
C2763 C2765 1.415 . S
C2764 C2763 1.355 . S
C2764 C2766 1.419 . S
C2765 C2760 1.425 . S
C2765 C2762 1.409 . S
C2765 C2763 1.415 . S
C2766 H2756 0.930 . S
C2766 C2764 1.419 . S
C2766 C2767 1.362 . S
C2767 H2757 0.930 . S
C2767 C2760 1.409 . S
C2767 C2766 1.362 . S
H2768 C2774 0.930 . S
H2769 C2777 0.930 . S
H2770 C2778 0.930 . S
H2771 C2779 0.930 . S
H2772 C2782 0.930 . S
H2773 C2783 0.930 . S
C2774 H2768 0.930 . S
C2774 C2775 1.355 . S
C2774 C2776 1.415 . S
C2775 C2774 1.355 . S
C2775 C2777 1.419 . S
C2776 C2774 1.415 . S
C2776 C2781 1.425 . S
C2776 C2783 1.409 . S
C2777 H2769 0.930 . S
C2777 C2775 1.419 . S
C2777 C2778 1.362 . S
C2778 H2770 0.930 . S
C2778 C2777 1.362 . S
C2778 C2781 1.409 . S
C2779 H2771 0.930 . S
C2779 C2780 1.355 . S
C2779 C2781 1.415 . S
C2780 C2779 1.355 . S
C2780 C2782 1.419 . S
C2781 C2776 1.425 . S
C2781 C2778 1.409 . S
C2781 C2779 1.415 . S
C2782 H2772 0.930 . S
C2782 C2780 1.419 . S
C2782 C2783 1.362 . S
C2783 H2773 0.930 . S
C2783 C2776 1.409 . S
C2783 C2782 1.362 . S
H2784 C2790 0.930 . S
H2785 C2793 0.930 . S
H2786 C2794 0.930 . S
H2787 C2795 0.930 . S
H2788 C2798 0.930 . S
H2789 C2799 0.930 . S
C2790 H2784 0.930 . S
C2790 C2791 1.355 . S
C2790 C2792 1.415 . S
C2791 C2790 1.355 . S
C2791 C2793 1.419 1_455 S
C2792 C2790 1.415 . S
C2792 C2797 1.425 1_455 S
C2792 C2799 1.409 . S
C2793 H2785 0.930 . S
C2793 C2791 1.419 1_655 S
C2793 C2794 1.362 . S
C2794 H2786 0.930 . S
C2794 C2793 1.362 . S
C2794 C2797 1.409 . S
C2795 H2787 0.930 . S
C2795 C2796 1.355 1_655 S
C2795 C2797 1.415 . S
C2796 C2795 1.355 1_455 S
C2796 C2798 1.419 . S
C2797 C2792 1.425 1_655 S
C2797 C2794 1.409 . S
C2797 C2795 1.415 . S
C2798 H2788 0.930 . S
C2798 C2796 1.419 . S
C2798 C2799 1.362 . S
C2799 H2789 0.930 . S
C2799 C2792 1.409 . S
C2799 C2798 1.362 . S
H2800 C2806 0.930 . S
H2801 C2809 0.930 . S
H2802 C2810 0.930 . S
H2803 C2811 0.930 . S
H2804 C2814 0.930 . S
H2805 C2815 0.930 . S
C2806 H2800 0.930 . S
C2806 C2807 1.355 . S
C2806 C2808 1.415 . S
C2807 C2806 1.355 . S
C2807 C2809 1.419 . S
C2808 C2806 1.415 . S
C2808 C2813 1.425 . S
C2808 C2815 1.409 . S
C2809 H2801 0.930 . S
C2809 C2807 1.419 . S
C2809 C2810 1.362 . S
C2810 H2802 0.930 . S
C2810 C2809 1.362 . S
C2810 C2813 1.409 . S
C2811 H2803 0.930 . S
C2811 C2812 1.355 . S
C2811 C2813 1.415 . S
C2812 C2811 1.355 . S
C2812 C2814 1.419 . S
C2813 C2808 1.425 . S
C2813 C2810 1.409 . S
C2813 C2811 1.415 . S
C2814 H2804 0.930 . S
C2814 C2812 1.419 . S
C2814 C2815 1.362 . S
C2815 H2805 0.930 . S
C2815 C2808 1.409 . S
C2815 C2814 1.362 . S
H2816 C2822 0.930 . S
H2817 C2825 0.930 . S
H2818 C2826 0.930 . S
H2819 C2827 0.930 . S
H2820 C2830 0.930 . S
H2821 C2831 0.930 . S
C2822 H2816 0.930 . S
C2822 C2823 1.355 1_545 S
C2822 C2824 1.415 . S
C2823 C2822 1.355 1_565 S
C2823 C2825 1.419 . S
C2824 C2822 1.415 . S
C2824 C2829 1.425 1_545 S
C2824 C2831 1.409 . S
C2825 H2817 0.930 . S
C2825 C2823 1.419 . S
C2825 C2826 1.362 . S
C2826 H2818 0.930 . S
C2826 C2825 1.362 . S
C2826 C2829 1.409 . S
C2827 H2819 0.930 . S
C2827 C2828 1.355 1_565 S
C2827 C2829 1.415 . S
C2828 C2827 1.355 1_545 S
C2828 C2830 1.419 . S
C2829 C2824 1.425 1_565 S
C2829 C2826 1.409 . S
C2829 C2827 1.415 . S
C2830 H2820 0.930 . S
C2830 C2828 1.419 . S
C2830 C2831 1.362 . S
C2831 H2821 0.930 . S
C2831 C2824 1.409 . S
C2831 C2830 1.362 . S
H2832 C2838 0.930 . S
H2833 C2841 0.930 . S
H2834 C2842 0.930 . S
H2835 C2843 0.930 . S
H2836 C2846 0.930 . S
H2837 C2847 0.930 . S
C2838 H2832 0.930 . S
C2838 C2839 1.355 1_565 S
C2838 C2840 1.415 . S
C2839 C2838 1.355 1_545 S
C2839 C2841 1.419 . S
C2840 C2838 1.415 . S
C2840 C2845 1.425 1_565 S
C2840 C2847 1.409 . S
C2841 H2833 0.930 . S
C2841 C2839 1.419 . S
C2841 C2842 1.362 . S
C2842 H2834 0.930 . S
C2842 C2841 1.362 . S
C2842 C2845 1.409 . S
C2843 H2835 0.930 . S
C2843 C2844 1.356 . S
C2843 C2845 1.415 . S
C2844 C2843 1.356 . S
C2844 C2846 1.417 1_545 S
C2845 C2840 1.425 1_545 S
C2845 C2842 1.409 . S
C2845 C2843 1.415 . S
C2846 H2836 0.930 . S
C2846 C2844 1.417 1_565 S
C2846 C2847 1.362 . S
C2847 H2837 0.930 . S
C2847 C2840 1.409 . S
C2847 C2846 1.362 . S
H2848 C2854 0.930 . S
H2849 C2857 0.928 . S
H2850 C2858 0.934 1_455 S
H2851 C2859 0.930 . S
H2852 C2862 0.930 . S
H2853 C2863 0.930 . S
C2854 H2848 0.930 . S
C2854 C2855 1.355 . S
C2854 C2856 1.415 . S
C2855 C2854 1.355 . S
C2855 C2857 1.419 . S
C2856 C2854 1.415 . S
C2856 C2861 1.425 . S
C2856 C2863 1.409 . S
C2857 H2849 0.928 . S
C2857 C2855 1.419 . S
C2857 C2858 1.362 . S
C2858 H2850 0.934 1_655 S
C2858 C2857 1.362 . S
C2858 C2861 1.406 . S
C2859 H2851 0.930 . S
C2859 C2860 1.355 . S
C2859 C2861 1.415 . S
C2860 C2859 1.355 . S
C2860 C2862 1.419 . S
C2861 C2856 1.425 . S
C2861 C2858 1.406 . S
C2861 C2859 1.415 . S
C2862 H2852 0.930 . S
C2862 C2860 1.419 . S
C2862 C2863 1.362 . S
C2863 H2853 0.930 . S
C2863 C2856 1.409 . S
C2863 C2862 1.362 . S
H2864 C2870 0.930 . S
H2865 C2873 0.930 . S
H2866 C2874 0.930 . S
H2867 C2875 0.930 . S
H2868 C2878 0.930 . S
H2869 C2879 0.930 . S
C2870 H2864 0.930 . S
C2870 C2871 1.355 . S
C2870 C2872 1.415 . S
C2871 C2870 1.355 . S
C2871 C2873 1.419 . S
C2872 C2870 1.415 . S
C2872 C2877 1.425 . S
C2872 C2879 1.409 . S
C2873 H2865 0.930 . S
C2873 C2871 1.419 . S
C2873 C2874 1.362 . S
C2874 H2866 0.930 . S
C2874 C2873 1.362 . S
C2874 C2877 1.409 . S
C2875 H2867 0.930 . S
C2875 C2876 1.355 . S
C2875 C2877 1.415 . S
C2876 C2875 1.355 . S
C2876 C2878 1.419 . S
C2877 C2872 1.425 . S
C2877 C2874 1.409 . S
C2877 C2875 1.415 . S
C2878 H2868 0.930 . S
C2878 C2876 1.419 . S
C2878 C2879 1.362 . S
C2879 H2869 0.930 . S
C2879 C2872 1.409 . S
C2879 C2878 1.362 . S
H2880 C2886 0.930 . S
H2881 C2889 0.930 . S
H2882 C2890 0.932 1_455 S
H2883 C2891 0.930 . S
H2884 C2894 0.930 . S
H2885 C2895 0.938 1_655 S
C2886 H2880 0.930 . S
C2886 C2887 1.355 . S
C2886 C2888 1.415 . S
C2887 C2886 1.355 . S
C2887 C2889 1.419 . S
C2888 C2886 1.415 . S
C2888 C2893 1.425 1_655 S
C2888 C2895 1.409 1_655 S
C2889 H2881 0.930 . S
C2889 C2887 1.419 . S
C2889 C2890 1.362 . S
C2890 H2882 0.932 1_655 S
C2890 C2889 1.362 . S
C2890 C2893 1.409 1_655 S
C2891 H2883 0.930 . S
C2891 C2892 1.355 . S
C2891 C2893 1.415 . S
C2892 C2891 1.355 . S
C2892 C2894 1.419 . S
C2893 C2888 1.425 1_455 S
C2893 C2890 1.409 1_455 S
C2893 C2891 1.415 . S
C2894 H2884 0.930 . S
C2894 C2892 1.419 . S
C2894 C2895 1.362 . S
C2895 H2885 0.938 1_455 S
C2895 C2888 1.409 1_455 S
C2895 C2894 1.362 . S
H2896 C2902 0.930 . S
H2897 C2905 0.930 . S
H2898 C2906 0.930 . S
H2899 C2907 0.930 . S
H2900 C2910 0.930 . S
H2901 C2911 0.930 . S
C2902 H2896 0.930 . S
C2902 C2903 1.355 . S
C2902 C2904 1.415 . S
C2903 C2902 1.355 . S
C2903 C2905 1.419 . S
C2904 C2902 1.415 . S
C2904 C2909 1.425 . S
C2904 C2911 1.409 . S
C2905 H2897 0.930 . S
C2905 C2903 1.419 . S
C2905 C2906 1.362 . S
C2906 H2898 0.930 . S
C2906 C2905 1.362 . S
C2906 C2909 1.409 . S
C2907 H2899 0.930 . S
C2907 C2908 1.355 . S
C2907 C2909 1.415 . S
C2908 C2907 1.355 . S
C2908 C2910 1.419 . S
C2909 C2904 1.425 . S
C2909 C2906 1.409 . S
C2909 C2907 1.415 . S
C2910 H2900 0.930 . S
C2910 C2908 1.419 . S
C2910 C2911 1.362 . S
C2911 H2901 0.930 . S
C2911 C2904 1.409 . S
C2911 C2910 1.362 . S
H2912 C2918 0.930 . S
H2913 C2921 0.930 . S
H2914 C2922 0.930 . S
H2915 C2923 0.930 . S
H2916 C2926 0.930 . S
H2917 C2927 0.930 . S
C2918 H2912 0.930 . S
C2918 C2919 1.355 . S
C2918 C2920 1.415 . S
C2919 C2918 1.355 . S
C2919 C2921 1.419 1_545 S
C2920 C2918 1.415 . S
C2920 C2925 1.425 1_545 S
C2920 C2927 1.409 . S
C2921 H2913 0.930 . S
C2921 C2919 1.419 1_565 S
C2921 C2922 1.362 . S
C2922 H2914 0.930 . S
C2922 C2921 1.362 . S
C2922 C2925 1.409 . S
C2923 H2915 0.930 . S
C2923 C2924 1.355 . S
C2923 C2925 1.415 . S
C2924 C2923 1.355 . S
C2924 C2926 1.419 1_565 S
C2925 C2920 1.425 1_565 S
C2925 C2922 1.409 . S
C2925 C2923 1.415 . S
C2926 H2916 0.930 . S
C2926 C2924 1.419 1_545 S
C2926 C2927 1.362 . S
C2927 H2917 0.930 . S
C2927 C2920 1.409 . S
C2927 C2926 1.362 . S
H2928 C2934 0.930 . S
H2929 C2937 0.930 . S
H2930 C2938 0.930 . S
H2931 C2939 0.930 . S
H2932 C2942 0.930 . S
H2933 C2943 0.930 . S
C2934 H2928 0.930 . S
C2934 C2935 1.355 . S
C2934 C2936 1.421 . S
C2935 C2934 1.355 . S
C2935 C2937 1.419 . S
C2936 C2934 1.421 . S
C2936 C2941 1.438 1_655 S
C2936 C2943 1.391 1_655 S
C2937 H2929 0.930 . S
C2937 C2935 1.419 . S
C2937 C2938 1.362 . S
C2938 H2930 0.930 . S
C2938 C2937 1.362 . S
C2938 C2941 1.409 1_655 S
C2939 H2931 0.930 . S
C2939 C2940 1.355 . S
C2939 C2941 1.415 . S
C2940 C2939 1.355 . S
C2940 C2942 1.419 . S
C2941 C2936 1.438 1_455 S
C2941 C2938 1.409 1_455 S
C2941 C2939 1.415 . S
C2942 H2932 0.930 . S
C2942 C2940 1.419 . S
C2942 C2943 1.362 . S
C2943 H2933 0.930 . S
C2943 C2936 1.391 1_455 S
C2943 C2942 1.362 . S
H2944 C2950 0.930 . S
H2945 C2953 0.930 . S
H2946 C2954 0.930 . S
H2947 C2955 0.930 . S
H2948 C2958 0.930 . S
H2949 C2959 0.930 . S
C2950 H2944 0.930 . S
C2950 C2951 1.355 . S
C2950 C2952 1.415 . S
C2951 C2950 1.355 . S
C2951 C2953 1.419 . S
C2952 C2950 1.415 . S
C2952 C2957 1.425 . S
C2952 C2959 1.409 . S
C2953 H2945 0.930 . S
C2953 C2951 1.419 . S
C2953 C2954 1.362 . S
C2954 H2946 0.930 . S
C2954 C2953 1.362 . S
C2954 C2957 1.409 . S
C2955 H2947 0.930 . S
C2955 C2956 1.355 . S
C2955 C2957 1.415 . S
C2956 C2955 1.355 . S
C2956 C2958 1.419 . S
C2957 C2952 1.425 . S
C2957 C2954 1.409 . S
C2957 C2955 1.415 . S
C2958 H2948 0.930 . S
C2958 C2956 1.419 . S
C2958 C2959 1.362 . S
C2959 H2949 0.930 . S
C2959 C2952 1.409 . S
C2959 C2958 1.362 . S
H2960 C2966 0.930 . S
H2961 C2969 0.930 . S
H2962 C2970 0.930 . S
H2963 C2971 0.930 . S
H2964 C2974 0.930 . S
H2965 C2975 0.930 . S
C2966 H2960 0.930 . S
C2966 C2967 1.355 . S
C2966 C2968 1.415 . S
C2967 C2966 1.355 . S
C2967 C2969 1.419 . S
C2968 C2966 1.415 . S
C2968 C2973 1.425 1_545 S
C2968 C2975 1.409 . S
C2969 H2961 0.930 . S
C2969 C2967 1.419 . S
C2969 C2970 1.362 1_545 S
C2970 H2962 0.930 . S
C2970 C2969 1.362 1_565 S
C2970 C2973 1.409 . S
C2971 H2963 0.930 . S
C2971 C2972 1.355 . S
C2971 C2973 1.415 . S
C2972 C2971 1.355 . S
C2972 C2974 1.419 . S
C2973 C2968 1.425 1_565 S
C2973 C2970 1.409 . S
C2973 C2971 1.415 . S
C2974 H2964 0.930 . S
C2974 C2972 1.419 . S
C2974 C2975 1.362 1_565 S
C2975 H2965 0.930 . S
C2975 C2968 1.409 . S
C2975 C2974 1.362 1_545 S
H2976 C2982 0.930 . S
H2977 C2985 0.930 . S
H2978 C2986 0.930 . S
H2979 C2987 0.930 . S
H2980 C2990 0.930 . S
H2981 C2991 0.930 . S
C2982 H2976 0.930 . S
C2982 C2983 1.355 . S
C2982 C2984 1.415 . S
C2983 C2982 1.355 . S
C2983 C2985 1.419 . S
C2984 C2982 1.415 . S
C2984 C2989 1.425 . S
C2984 C2991 1.409 . S
C2985 H2977 0.930 . S
C2985 C2983 1.419 . S
C2985 C2986 1.362 . S
C2986 H2978 0.930 . S
C2986 C2985 1.362 . S
C2986 C2989 1.409 . S
C2987 H2979 0.930 . S
C2987 C2988 1.355 . S
C2987 C2989 1.415 . S
C2988 C2987 1.355 . S
C2988 C2990 1.419 . S
C2989 C2984 1.425 . S
C2989 C2986 1.409 . S
C2989 C2987 1.415 . S
C2990 H2980 0.930 . S
C2990 C2988 1.419 . S
C2990 C2991 1.362 . S
C2991 H2981 0.930 . S
C2991 C2984 1.409 . S
C2991 C2990 1.362 . S
H2992 C2998 0.930 . S
H2993 C3001 0.930 . S
H2994 C3002 0.930 . S
H2995 C3003 0.930 . S
H2996 C3006 0.930 . S
H2997 C3007 0.930 . S
C2998 H2992 0.930 . S
C2998 C2999 1.355 . S
C2998 C3000 1.415 . S
C2999 C2998 1.355 . S
C2999 C3001 1.419 . S
C3000 C2998 1.415 . S
C3000 C3005 1.425 . S
C3000 C3007 1.409 . S
C3001 H2993 0.930 . S
C3001 C2999 1.419 . S
C3001 C3002 1.362 . S
C3002 H2994 0.930 . S
C3002 C3001 1.362 . S
C3002 C3005 1.409 . S
C3003 H2995 0.930 . S
C3003 C3004 1.355 . S
C3003 C3005 1.415 . S
C3004 C3003 1.355 . S
C3004 C3006 1.419 . S
C3005 C3000 1.425 . S
C3005 C3002 1.409 . S
C3005 C3003 1.415 . S
C3006 H2996 0.930 . S
C3006 C3004 1.419 . S
C3006 C3007 1.362 . S
C3007 H2997 0.930 . S
C3007 C3000 1.409 . S
C3007 C3006 1.362 . S
H3008 C3014 0.930 . S
H3009 C3017 0.930 . S
H3010 C3018 0.930 . S
H3011 C3019 0.930 . S
H3012 C3022 0.930 . S
H3013 C3023 0.930 . S
C3014 H3008 0.930 . S
C3014 C3015 1.355 . S
C3014 C3016 1.415 . S
C3015 C3014 1.355 . S
C3015 C3017 1.419 . S
C3016 C3014 1.415 . S
C3016 C3021 1.425 . S
C3016 C3023 1.409 . S
C3017 H3009 0.930 . S
C3017 C3015 1.419 . S
C3017 C3018 1.362 . S
C3018 H3010 0.930 . S
C3018 C3017 1.362 . S
C3018 C3021 1.409 . S
C3019 H3011 0.930 . S
C3019 C3020 1.355 . S
C3019 C3021 1.415 . S
C3020 C3019 1.355 . S
C3020 C3022 1.419 . S
C3021 C3016 1.425 . S
C3021 C3018 1.409 . S
C3021 C3019 1.415 . S
C3022 H3012 0.930 . S
C3022 C3020 1.419 . S
C3022 C3023 1.362 . S
C3023 H3013 0.930 . S
C3023 C3016 1.409 . S
C3023 C3022 1.362 . S
H3024 C3030 0.930 . S
H3025 C3033 0.930 . S
H3026 C3034 0.930 . S
H3027 C3035 0.930 . S
H3028 C3038 0.930 . S
H3029 C3039 0.930 . S
C3030 H3024 0.930 . S
C3030 C3031 1.355 . S
C3030 C3032 1.415 . S
C3031 C3030 1.355 . S
C3031 C3033 1.419 . S
C3032 C3030 1.415 . S
C3032 C3037 1.425 . S
C3032 C3039 1.409 . S
C3033 H3025 0.930 . S
C3033 C3031 1.419 . S
C3033 C3034 1.362 . S
C3034 H3026 0.930 . S
C3034 C3033 1.362 . S
C3034 C3037 1.409 . S
C3035 H3027 0.930 . S
C3035 C3036 1.355 . S
C3035 C3037 1.415 . S
C3036 C3035 1.355 . S
C3036 C3038 1.419 . S
C3037 C3032 1.425 . S
C3037 C3034 1.409 . S
C3037 C3035 1.415 . S
C3038 H3028 0.930 . S
C3038 C3036 1.419 . S
C3038 C3039 1.362 . S
C3039 H3029 0.930 . S
C3039 C3032 1.409 . S
C3039 C3038 1.362 . S
H3040 C3046 0.930 . S
H3041 C3049 0.930 . S
H3042 C3050 0.930 . S
H3043 C3051 0.930 . S
H3044 C3054 0.930 . S
H3045 C3055 0.930 . S
C3046 H3040 0.930 . S
C3046 C3047 1.355 . S
C3046 C3048 1.415 . S
C3047 C3046 1.355 . S
C3047 C3049 1.419 . S
C3048 C3046 1.415 . S
C3048 C3053 1.425 . S
C3048 C3055 1.409 . S
C3049 H3041 0.930 . S
C3049 C3047 1.419 . S
C3049 C3050 1.362 . S
C3050 H3042 0.930 . S
C3050 C3049 1.362 . S
C3050 C3053 1.409 . S
C3051 H3043 0.930 . S
C3051 C3052 1.355 . S
C3051 C3053 1.415 . S
C3052 C3051 1.355 . S
C3052 C3054 1.419 . S
C3053 C3048 1.425 . S
C3053 C3050 1.409 . S
C3053 C3051 1.415 . S
C3054 H3044 0.930 . S
C3054 C3052 1.419 . S
C3054 C3055 1.362 . S
C3055 H3045 0.930 . S
C3055 C3048 1.409 . S
C3055 C3054 1.362 . S
H3056 C3062 0.930 . S
H3057 C3065 0.930 . S
H3058 C3066 0.930 . S
H3059 C3067 0.930 . S
H3060 C3070 0.930 . S
H3061 C3071 0.930 . S
C3062 H3056 0.930 . S
C3062 C3063 1.355 . S
C3062 C3064 1.415 . S
C3063 C3062 1.355 . S
C3063 C3065 1.419 . S
C3064 C3062 1.415 . S
C3064 C3069 1.425 . S
C3064 C3071 1.409 . S
C3065 H3057 0.930 . S
C3065 C3063 1.419 . S
C3065 C3066 1.362 . S
C3066 H3058 0.930 . S
C3066 C3065 1.362 . S
C3066 C3069 1.409 . S
C3067 H3059 0.930 . S
C3067 C3068 1.355 . S
C3067 C3069 1.415 . S
C3068 C3067 1.355 . S
C3068 C3070 1.419 . S
C3069 C3064 1.425 . S
C3069 C3066 1.409 . S
C3069 C3067 1.415 . S
C3070 H3060 0.930 . S
C3070 C3068 1.419 . S
C3070 C3071 1.362 . S
C3071 H3061 0.930 . S
C3071 C3064 1.409 . S
C3071 C3070 1.362 . S
H3072 C3078 0.930 . S
H3073 C3081 0.930 . S
H3074 C3082 0.930 . S
H3075 C3083 0.930 . S
H3076 C3086 0.930 . S
H3077 C3087 0.930 . S
C3078 H3072 0.930 . S
C3078 C3079 1.355 . S
C3078 C3080 1.415 . S
C3079 C3078 1.355 . S
C3079 C3081 1.419 . S
C3080 C3078 1.415 . S
C3080 C3085 1.425 . S
C3080 C3087 1.409 . S
C3081 H3073 0.930 . S
C3081 C3079 1.419 . S
C3081 C3082 1.362 . S
C3082 H3074 0.930 . S
C3082 C3081 1.362 . S
C3082 C3085 1.409 . S
C3083 H3075 0.930 . S
C3083 C3084 1.355 . S
C3083 C3085 1.415 . S
C3084 C3083 1.355 . S
C3084 C3086 1.419 . S
C3085 C3080 1.425 . S
C3085 C3082 1.409 . S
C3085 C3083 1.415 . S
C3086 H3076 0.930 . S
C3086 C3084 1.419 . S
C3086 C3087 1.362 . S
C3087 H3077 0.930 . S
C3087 C3080 1.409 . S
C3087 C3086 1.362 . S
H3088 C3094 0.930 . S
H3089 C3097 0.930 . S
H3090 C3098 0.930 . S
H3091 C3099 0.930 . S
H3092 C3102 0.930 . S
H3093 C3103 0.930 . S
C3094 H3088 0.930 . S
C3094 C3095 1.355 . S
C3094 C3096 1.415 . S
C3095 C3094 1.355 . S
C3095 C3097 1.419 . S
C3096 C3094 1.415 . S
C3096 C3101 1.425 . S
C3096 C3103 1.409 . S
C3097 H3089 0.930 . S
C3097 C3095 1.419 . S
C3097 C3098 1.362 . S
C3098 H3090 0.930 . S
C3098 C3097 1.362 . S
C3098 C3101 1.409 . S
C3099 H3091 0.930 . S
C3099 C3100 1.355 . S
C3099 C3101 1.415 . S
C3100 C3099 1.355 . S
C3100 C3102 1.419 . S
C3101 C3096 1.425 . S
C3101 C3098 1.409 . S
C3101 C3099 1.415 . S
C3102 H3092 0.930 . S
C3102 C3100 1.419 . S
C3102 C3103 1.362 . S
C3103 H3093 0.930 . S
C3103 C3096 1.409 . S
C3103 C3102 1.362 . S
H3104 C3110 0.930 . S
H3105 C3113 0.930 . S
H3106 C3114 0.930 . S
H3107 C3115 0.930 . S
H3108 C3118 0.930 . S
H3109 C3119 0.930 . S
C3110 H3104 0.930 . S
C3110 C3111 1.355 . S
C3110 C3112 1.415 . S
C3111 C3110 1.355 . S
C3111 C3113 1.419 . S
C3112 C3110 1.415 . S
C3112 C3117 1.425 . S
C3112 C3119 1.409 . S
C3113 H3105 0.930 . S
C3113 C3111 1.419 . S
C3113 C3114 1.362 . S
C3114 H3106 0.930 . S
C3114 C3113 1.362 . S
C3114 C3117 1.409 . S
C3115 H3107 0.930 . S
C3115 C3116 1.355 . S
C3115 C3117 1.415 . S
C3116 C3115 1.355 . S
C3116 C3118 1.419 . S
C3117 C3112 1.425 . S
C3117 C3114 1.409 . S
C3117 C3115 1.415 . S
C3118 H3108 0.930 . S
C3118 C3116 1.419 . S
C3118 C3119 1.362 . S
C3119 H3109 0.930 . S
C3119 C3112 1.409 . S
C3119 C3118 1.362 . S
H3120 C3126 0.930 . S
H3121 C3129 0.930 . S
H3122 C3130 0.930 . S
H3123 C3131 0.930 . S
H3124 C3134 0.930 . S
H3125 C3135 0.930 . S
C3126 H3120 0.930 . S
C3126 C3127 1.355 . S
C3126 C3128 1.415 . S
C3127 C3126 1.355 . S
C3127 C3129 1.419 . S
C3128 C3126 1.415 . S
C3128 C3133 1.425 . S
C3128 C3135 1.409 . S
C3129 H3121 0.930 . S
C3129 C3127 1.419 . S
C3129 C3130 1.362 . S
C3130 H3122 0.930 . S
C3130 C3129 1.362 . S
C3130 C3133 1.409 . S
C3131 H3123 0.930 . S
C3131 C3132 1.355 . S
C3131 C3133 1.415 . S
C3132 C3131 1.355 . S
C3132 C3134 1.419 . S
C3133 C3128 1.425 . S
C3133 C3130 1.409 . S
C3133 C3131 1.415 . S
C3134 H3124 0.930 . S
C3134 C3132 1.419 . S
C3134 C3135 1.362 . S
C3135 H3125 0.930 . S
C3135 C3128 1.409 . S
C3135 C3134 1.362 . S
H3136 C3142 0.930 . S
H3137 C3145 0.930 . S
H3138 C3146 0.930 . S
H3139 C3147 0.930 . S
H3140 C3150 0.930 . S
H3141 C3151 0.930 . S
C3142 H3136 0.930 . S
C3142 C3143 1.355 . S
C3142 C3144 1.415 . S
C3143 C3142 1.355 . S
C3143 C3145 1.419 . S
C3144 C3142 1.415 . S
C3144 C3149 1.425 . S
C3144 C3151 1.409 . S
C3145 H3137 0.930 . S
C3145 C3143 1.419 . S
C3145 C3146 1.362 . S
C3146 H3138 0.930 . S
C3146 C3145 1.362 . S
C3146 C3149 1.409 . S
C3147 H3139 0.930 . S
C3147 C3148 1.355 . S
C3147 C3149 1.415 . S
C3148 C3147 1.355 . S
C3148 C3150 1.419 . S
C3149 C3144 1.425 . S
C3149 C3146 1.409 . S
C3149 C3147 1.415 . S
C3150 H3140 0.930 . S
C3150 C3148 1.419 . S
C3150 C3151 1.362 . S
C3151 H3141 0.930 . S
C3151 C3144 1.409 . S
C3151 C3150 1.362 . S
H3152 C3158 0.930 . S
H3153 C3161 0.930 . S
H3154 C3162 0.930 . S
H3155 C3163 0.930 . S
H3156 C3166 0.930 . S
H3157 C3167 0.930 . S
C3158 H3152 0.930 . S
C3158 C3159 1.355 . S
C3158 C3160 1.415 . S
C3159 C3158 1.355 . S
C3159 C3161 1.419 . S
C3160 C3158 1.415 . S
C3160 C3165 1.425 . S
C3160 C3167 1.409 . S
C3161 H3153 0.930 . S
C3161 C3159 1.419 . S
C3161 C3162 1.362 . S
C3162 H3154 0.930 . S
C3162 C3161 1.362 . S
C3162 C3165 1.409 . S
C3163 H3155 0.930 . S
C3163 C3164 1.355 . S
C3163 C3165 1.415 . S
C3164 C3163 1.355 . S
C3164 C3166 1.419 . S
C3165 C3160 1.425 . S
C3165 C3162 1.409 . S
C3165 C3163 1.415 . S
C3166 H3156 0.930 . S
C3166 C3164 1.419 . S
C3166 C3167 1.362 . S
C3167 H3157 0.930 . S
C3167 C3160 1.409 . S
C3167 C3166 1.362 . S
C1447 C9 1.774 . S
C1452 C99 1.812 . S
C1463 C19 1.829 . S
C1468 C49 1.745 1_545 S
C1479 C89 1.738 1_655 S
C1484 C59 1.831 . S
C1495 C129 1.844 . S
C1500 C179 1.880 . S
C1511 C219 1.890 . S
C1516 C169 1.835 1_565 S
C1527 C209 1.784 1_455 S
C1532 C139 1.874 . S
C1543 C258 1.754 . S
C1548 C330 1.785 . S
C1559 C298 1.771 1_565 S
C1564 C250 1.815 . S
C1575 C338 1.737 1_455 S
C1580 C290 1.831 . S
C1591 C378 1.826 . S
C1596 C410 1.856 . S
C1607 C450 1.880 . S
C1612 C418 1.780 1_545 S
C1623 C370 1.890 . S
C1628 C458 1.833 1_655 S
C1639 C579 1.882 . S
C1644 C489 1.818 . S
C1655 C529 1.785 . S
C1660 C499 1.854 . S
C1671 C539 1.858 . S
C1676 C569 1.780 . S
C1687 C609 1.843 . S
C1692 C659 1.874 . S
C1703 C699 1.906 . S
C1708 C649 1.852 . S
C1719 C619 1.897 . S
C1724 C689 1.861 . S
C1735 C738 1.777 . S
C1740 C810 1.859 . S
C1751 C778 1.765 . S
C1756 C730 1.819 . S
C1767 C770 1.815 . S
C1772 C818 1.784 . S
C1783 C890 1.749 . S
C1788 C858 1.676 1_554 S
C1799 C898 1.662 1_554 S
C1804 C930 1.757 . S
C1815 C850 1.713 . S
C1820 C938 1.694 1_554 S
C1831 C969 1.809 . S
C1836 C1059 1.830 . S
C1847 C1009 1.741 . S
C1852 C979 1.857 . S
C1863 C1049 1.799 . S
C1868 C1019 1.846 . S
C1879 C1089 1.675 1_556 S
C1884 C1139 1.747 . S
C1895 C1129 1.714 1_556 S
C1900 C1179 1.720 . S
C1911 C1169 1.656 1_556 S
C1916 C1099 1.755 . S
C1927 C1218 1.827 . S
C1932 C1290 1.847 . S
C1943 C1258 1.774 . S
C1948 C1210 1.888 . S
C1959 C1250 1.880 . S
C1964 C1298 1.824 . S
C1975 C1338 1.848 . S
C1980 C1370 1.909 . S
C1991 C1378 1.848 . S
C1996 C1410 1.909 . S
C2007 C1330 1.876 . S
C2012 C1418 1.827 . S
C2023 C10 1.821 . S
C2028 C809 1.777 . S
C2039 C729 1.785 . S
C2044 C50 1.837 . S
C2055 C90 1.840 . S
C2060 C769 1.790 . S
C2071 C130 1.738 . S
C2076 C1369 1.677 . S
C2087 C1409 1.735 1_545 S
C2092 C170 1.722 . S
C2103 C210 1.741 . S
C2108 C1329 1.679 . S
C2119 C1058 1.831 . S
C2124 C259 1.825 . S
C2135 C299 1.796 . S
C2140 C978 1.811 1_545 S
C2151 C339 1.802 . S
C2156 C1018 1.822 1_655 S
C2167 C658 1.730 . S
C2172 C379 1.714 . S
C2183 C698 1.673 . S
C2188 C419 1.724 . S
C2199 C618 1.722 1_455 S
C2204 C459 1.707 . S
C2215 C490 1.760 . S
C2220 C1289 1.730 . S
C2231 C530 1.781 . S
C2236 C1209 1.784 . S
C2247 C1249 1.746 . S
C2252 C570 1.798 . S
C2263 C409 1.735 . S
C2268 C610 1.789 1_455 S
C2279 C449 1.735 . S
C2284 C650 1.789 . S
C2295 C369 1.756 . S
C2300 C690 1.790 1_565 S
C2311 C98 1.806 . S
C2316 C739 1.791 1_565 S
C2327 C779 1.816 1_455 S
C2332 C18 1.827 . S
C2343 C819 1.790 . S
C2348 C58 1.800 . S
C2359 C1138 1.767 1_554 S
C2364 C859 1.819 . S
C2375 C1178 1.784 1_554 S
C2380 C899 1.777 . S
C2391 C939 1.810 . S
C2396 C1098 1.744 . S
C2407 C329 1.782 . S
C2412 C970 1.832 1_545 S
C2423 C249 1.795 . S
C2428 C1010 1.790 1_655 S
C2439 C289 1.802 . S
C2444 C1050 1.790 . S
C2455 C1090 1.780 . S
C2460 C889 1.784 1_556 S
C2471 C929 1.771 . S
C2476 C1130 1.765 . S
C2487 C1170 1.809 . S
C2492 C849 1.744 . S
C2503 C1219 1.798 . S
C2508 C578 1.763 . S
C2519 C1259 1.799 . S
C2524 C498 1.760 . S
C2535 C1299 1.751 . S
C2540 C538 1.764 . S
C2551 C1339 1.790 1_655 S
C2556 C178 1.753 . S
C2567 C218 1.721 . S
C2572 C1379 1.780 . S
C2583 C138 1.752 . S
C2588 C1419 1.741 1_545 S
C2599 C1166 2.283 . S
C2604 C6 2.249 . S
C2615 C1086 2.268 . S
C2620 C46 2.237 . S
C2631 C86 2.288 . S
C2636 C1126 2.273 . S
C2647 C526 2.457 . S
C2652 C126 2.460 . S
C2663 C166 2.459 . S
C2668 C566 2.458 . S
C2679 C206 2.460 . S
C2684 C486 2.485 . S
C2695 C255 2.269 . S
C2700 C935 2.231 . S
C2711 C295 2.286 . S
C2716 C855 2.274 . S
C2727 C335 2.272 . S
C2732 C895 2.232 . S
C2743 C1255 2.457 . S
C2748 C375 2.461 . S
C2759 C1295 2.478 . S
C2764 C415 2.492 . S
C2775 C1215 2.470 . S
C2780 C455 2.453 . S
C2791 C606 2.501 1_455 S
C2796 C1006 2.524 . S
C2807 C646 2.527 . S
C2812 C1046 2.539 . S
C2823 C686 2.531 1_565 S
C2828 C966 2.538 1_545 S
C2839 C735 2.511 . S
C2844 C1415 2.500 1_545 S
C2855 C1335 2.502 1_655 S
C2860 C775 2.527 . S
C2871 C815 2.503 . S
C2876 C1375 2.513 . S
C2887 C175 1.171 . S
C2892 C15 1.200 . S
C2903 C215 1.181 . S
C2908 C55 1.176 . S
C2919 C135 1.186 . S
C2924 C95 1.194 . S
C2935 C246 1.200 . S
C2940 C406 1.170 . S
C2951 C446 1.188 . S
C2956 C286 1.172 . S
C2967 C326 1.200 . S
C2972 C366 1.174 . S
C2983 C655 1.275 . S
C2988 C495 1.253 . S
C2999 C695 1.272 . S
C3004 C535 1.245 . S
C3015 C615 1.264 . S
C3020 C575 1.269 . S
C3031 C886 1.522 . S
C3036 C726 1.529 . S
C3047 C766 1.519 . S
C3052 C926 1.534 . S
C3063 C806 1.508 . S
C3068 C846 1.533 . S
C3079 C975 1.506 . S
C3084 C1135 1.532 . S
C3095 C1175 1.522 . S
C3100 C1015 1.525 . S
C3111 C1055 1.524 . S
C3116 C1095 1.499 . S
C3127 C1206 1.253 . S
C3132 C1366 1.252 . S
C3143 C1406 1.249 . S
C3148 C1246 1.276 . S
C3159 C1286 1.254 . S
C3164 C1326 1.275 . S
