# Generated by pormake.
# Topology xfx, (5)-cn, num edge types: 1
# Building blocks:
#     Node 0, Type 0, BuildingBlock: BEQFEK_clean_sbu_0, # of connection points: 5
#     Node 1, Type 0, BuildingBlock: BEQFEK_clean_sbu_0, # of connection points: 5
#     Node 2, Type 0, BuildingBlock: BEQFEK_clean_sbu_0, # of connection points: 5
#     Node 3, Type 0, BuildingBlock: BEQFEK_clean_sbu_0, # of connection points: 5
#     Node 4, Type 0, BuildingBlock: BEQFEK_clean_sbu_0, # of connection points: 5
#     Node 5, Type 0, BuildingBlock: BEQFEK_clean_sbu_0, # of connection points: 5
#     Node 6, Type 0, BuildingBlock: BEQFEK_clean_sbu_0, # of connection points: 5
#     Node 7, Type 0, BuildingBlock: BEQFEK_clean_sbu_0, # of connection points: 5
#     Edge 8, Type (0, 0), BuildingBlock: EZIPEK_clean_linker_0, # of connection points: 2
#     Edge 9, Type (0, 0), BuildingBlock: EZIPEK_clean_linker_0, # of connection points: 2
#     Edge 10, Type (0, 0), BuildingBlock: EZIPEK_clean_linker_0, # of connection points: 2
#     Edge 11, Type (0, 0), BuildingBlock: EZIPEK_clean_linker_0, # of connection points: 2
#     Edge 12, Type (0, 0), BuildingBlock: EZIPEK_clean_linker_0, # of connection points: 2
#     Edge 13, Type (0, 0), BuildingBlock: EZIPEK_clean_linker_0, # of connection points: 2
#     Edge 14, Type (0, 0), BuildingBlock: EZIPEK_clean_linker_0, # of connection points: 2
#     Edge 15, Type (0, 0), BuildingBlock: EZIPEK_clean_linker_0, # of connection points: 2
#     Edge 16, Type (0, 0), BuildingBlock: EZIPEK_clean_linker_0, # of connection points: 2
#     Edge 17, Type (0, 0), BuildingBlock: EZIPEK_clean_linker_0, # of connection points: 2
#     Edge 18, Type (0, 0), BuildingBlock: EZIPEK_clean_linker_0, # of connection points: 2
#     Edge 19, Type (0, 0), BuildingBlock: EZIPEK_clean_linker_0, # of connection points: 2
#     Edge 20, Type (0, 0), BuildingBlock: EZIPEK_clean_linker_0, # of connection points: 2
#     Edge 21, Type (0, 0), BuildingBlock: EZIPEK_clean_linker_0, # of connection points: 2
#     Edge 22, Type (0, 0), BuildingBlock: EZIPEK_clean_linker_0, # of connection points: 2
#     Edge 23, Type (0, 0), BuildingBlock: EZIPEK_clean_linker_0, # of connection points: 2
#     Edge 24, Type (0, 0), BuildingBlock: EZIPEK_clean_linker_0, # of connection points: 2
#     Edge 25, Type (0, 0), BuildingBlock: EZIPEK_clean_linker_0, # of connection points: 2
#     Edge 26, Type (0, 0), BuildingBlock: EZIPEK_clean_linker_0, # of connection points: 2
#     Edge 27, Type (0, 0), BuildingBlock: EZIPEK_clean_linker_0, # of connection points: 2
# Relax obj value: 0.400
# Max RMSD: 0.224
# Mean RMSD: 0.224
data_MOF--net-xfx--node1-BEQFEK_clean_sbu_0--edge1-EZIPEK_clean_linker_0
_symmetry_space_group_name_H-M    P1
_symmetry_Int_Tables_number       1
_symmetry_cell_setting            triclinic
loop_
_symmetry_equiv_pos_as_xyz
'x, y, z'
_cell_length_a     29.504647
_cell_length_b     29.86372
_cell_length_c     25.942653
_cell_angle_alpha  89.738277
_cell_angle_beta   89.679367
_cell_angle_gamma 74.499744
loop_
_atom_site_label
_atom_site_type_symbol
_atom_site_fract_x
_atom_site_fract_y
_atom_site_fract_z
_atom_type_partial_charge
Co0 Co 0.36224 0.06789 0.37471 0.0
Co1 Co 0.36281 0.97877 0.44059 0.0
C2 C 0.38506 0.97325 0.32672 0.0
O3 O 0.37869 0.01696 0.32335 0.0
O4 O 0.37873 0.95435 0.36921 0.0
C5 C 0.32459 0.13682 0.29858 0.0
O6 O 0.29227 0.11424 0.29377 0.0
C7 C 0.32899 0.89578 0.45952 0.0
C8 C 0.32562 0.89265 0.54433 0.0
C9 C 0.31325 0.87303 0.49995 0.0
N10 N 0.34835 0.92826 0.47896 0.0
N11 N 0.3471 0.92539 0.52981 0.0
C12 C 0.32332 0.88844 0.40313 0.0
H13 H 0.35858 0.877 0.38484 0.0
H14 H 0.30396 0.92172 0.38497 0.0
H15 H 0.30442 0.86158 0.39598 0.0
C16 C 0.27091 0.10384 0.42548 0.0
N17 N 0.30907 0.06882 0.41481 0.0
N18 N 0.30763 0.03189 0.442 0.0
C19 C 0.2668 0.04235 0.46931 0.0
C20 C 0.24215 0.08813 0.45912 0.0
C21 C 0.2656 0.15344 0.411 0.0
H22 H 0.30074 0.16011 0.40913 0.0
H23 H 0.24805 0.16064 0.37305 0.0
H24 H 0.2437 0.17741 0.43961 0.0
O25 O 0.41578 0.06099 0.41995 0.0
O26 O 0.42225 0.99622 0.46578 0.0
H27 H 0.27442 0.00843 0.54255 0.0
H28 H 0.21506 0.02324 0.51772 0.0
C29 C 0.25286 0.01073 0.50726 0.0
H30 H 0.26008 0.97581 0.49088 0.0
H31 H 0.35842 0.94755 0.55463 0.0
O32 O 0.3554 0.12505 0.33363 0.0
C33 C 0.43762 0.03106 0.45251 0.0
Co34 Co 0.9792 0.70586 0.58755 0.0
Co35 Co 0.07747 0.70636 0.53957 0.0
C36 C 0.06354 0.6821 0.6528 0.0
O37 O 0.01857 0.69255 0.65108 0.0
O38 O 0.08813 0.68626 0.61329 0.0
C39 C 0.88209 0.71074 0.63325 0.0
O40 O 0.83671 0.72562 0.62461 0.0
C41 C 0.15981 0.74432 0.53158 0.0
C42 C 0.1943 0.71187 0.46022 0.0
C43 C 0.19749 0.74272 0.49889 0.0
N44 N 0.13512 0.71603 0.5131 0.0
N45 N 0.15641 0.69619 0.47081 0.0
C46 C 0.14725 0.77288 0.57931 0.0
H47 H 0.11073 0.77472 0.59168 0.0
H48 H 0.15138 0.80833 0.57271 0.0
H49 H 0.17182 0.7566 0.61051 0.0
C50 C 0.9537 0.80017 0.54416 0.0
N51 N 0.98601 0.75948 0.55252 0.0
N52 N 0.02653 0.76131 0.53251 0.0
C53 C 0.02104 0.80387 0.51092 0.0
C54 C 0.97463 0.82982 0.51785 0.0
C55 C 0.90292 0.80998 0.5594 0.0
H56 H 0.88705 0.78497 0.53979 0.0
H57 H 0.90022 0.80558 0.60168 0.0
H58 H 0.8823 0.84543 0.54844 0.0
O59 O 1.00013 0.64856 0.54637 0.0
O60 O 0.06455 0.65182 0.50358 0.0
H61 H 0.08067 0.79075 0.46045 0.0
H62 H 0.04449 0.85036 0.45942 0.0
C63 C 0.05911 0.81952 0.48412 0.0
H64 H 0.08192 0.82941 0.51323 0.0
H65 H 0.14439 0.67283 0.44838 0.0
O66 O 0.91043 0.71637 0.59845 0.0
C67 C 0.03336 0.6309 0.51513 0.0
Co68 Co 0.70064 1.00695 0.40002 0.0
Co69 Co 0.70615 0.09671 0.457 0.0
C70 C 0.68204 0.10134 0.3466 0.0
O71 O 0.68377 0.05834 0.34829 0.0
O72 O 0.69328 0.12164 0.38557 0.0
C73 C 0.72193 0.94432 0.31757 0.0
O74 O 0.74453 0.97372 0.30026 0.0
C75 C 0.74561 0.17451 0.4788 0.0
C76 C 0.72709 0.19154 0.5602 0.0
C77 C 0.75054 0.20397 0.5183 0.0
N78 N 0.72032 0.14609 0.49616 0.0
N79 N 0.70903 0.1567 0.54486 0.0
C80 C 0.76482 0.17328 0.42512 0.0
H81 H 0.73718 0.19481 0.39981 0.0
H82 H 0.77435 0.13721 0.41017 0.0
H83 H 0.79587 0.18751 0.4234 0.0
C84 C 0.7943 0.96942 0.4417 0.0
N85 N 0.75547 1.00456 0.43523 0.0
N86 N 0.76024 0.04211 0.45829 0.0
C87 C 0.80415 0.03202 0.47845 0.0
C88 C 0.82699 0.98545 0.46881 0.0
C89 C 0.79919 0.9207 0.42391 0.0
H90 H 0.76532 0.91171 0.42879 0.0
H91 H 0.80885 0.9181 0.38244 0.0
H92 H 0.82679 0.89532 0.4458 0.0
O93 O 0.64902 0.01373 0.4477 0.0
O94 O 0.643 0.08392 0.47966 0.0
H95 H 0.80072 0.08373 0.53578 0.0
H96 H 0.86004 0.04999 0.52018 0.0
C97 C 0.82462 0.06649 0.50437 0.0
H98 H 0.82777 0.09318 0.47582 0.0
H99 H 0.68984 0.13957 0.56794 0.0
O100 O 0.70391 0.9498 0.36228 0.0
C101 C 0.62646 0.04864 0.4734 0.0
Co102 Co 0.08927 0.35842 0.59966 0.0
Co103 Co 0.99038 0.36183 0.55617 0.0
C104 C 1.00102 0.37953 0.66694 0.0
O105 O 0.04492 0.37403 0.65953 0.0
O106 O 0.97455 0.37378 0.63037 0.0
C107 C 0.16773 0.32352 0.66589 0.0
O108 O 0.13923 0.30222 0.68828 0.0
C109 C 0.90729 0.32722 0.54146 0.0
C110 C 0.88075 0.35438 0.46507 0.0
C111 C 0.87266 0.3271 0.50563 0.0
N112 N 0.93465 0.35335 0.52333 0.0
N113 N 0.91826 0.3699 0.47774 0.0
C114 C 0.91463 0.30222 0.59208 0.0
H115 H 0.95174 0.29582 0.60449 0.0
H116 H 0.90504 0.26881 0.58975 0.0
H117 H 0.89157 0.32414 0.6214 0.0
C118 C 0.11652 0.26813 0.55118 0.0
N119 N 0.0838 0.30711 0.56401 0.0
N120 N 0.04246 0.30595 0.54634 0.0
C121 C 0.0478 0.26407 0.52346 0.0
C122 C 0.09497 0.23893 0.52595 0.0
C123 C 0.1683 0.26023 0.55942 0.0
H124 H 0.17823 0.29322 0.55432 0.0
H125 H 0.17731 0.24691 0.59907 0.0
H126 H 0.18906 0.23438 0.5318 0.0
O127 O 0.08007 0.41015 0.55197 0.0
O128 O 1.00461 0.42286 0.53276 0.0
H129 H 0.98968 0.27515 0.47252 0.0
H130 H 0.02217 0.2146 0.47957 0.0
C131 C 1.00889 0.2482 0.4999 0.0
H132 H 0.98435 0.24363 0.53063 0.0
H133 H 0.93337 0.39082 0.45467 0.0
O134 O 0.15264 0.34921 0.62722 0.0
C135 C 0.04242 0.43631 0.53382 0.0
Co136 Co 0.89482 0.56226 0.90647 0.0
Co137 Co 0.87432 0.47546 0.96089 0.0
C138 C 0.9126 0.46753 0.85503 0.0
O139 O 0.91211 0.51011 0.85731 0.0
O140 O 0.89758 0.44783 0.89249 0.0
C141 C 0.88115 0.61719 0.82035 0.0
O142 O 0.85605 0.58802 0.81025 0.0
C143 C 0.8275 0.40164 0.97688 0.0
C144 C 0.83751 0.38507 0.0597 0.0
C145 C 0.81769 0.37318 0.01523 0.0
N146 N 0.85211 0.42912 -0.00267 0.0
N147 N 0.85818 0.41888 0.04692 0.0
C148 C 0.81402 0.40245 0.92135 0.0
H149 H 0.81033 0.43753 0.90476 0.0
H150 H 0.78075 0.39237 0.91644 0.0
H151 H 0.84218 0.37709 0.90007 0.0
C152 C 0.79707 0.60615 0.93798 0.0
N153 N 0.83457 0.56895 0.93447 0.0
N154 N 0.82424 0.53243 0.95481 0.0
C155 C 0.77874 0.54534 0.97042 0.0
C156 C 0.7601 0.59265 0.96066 0.0
C157 C 0.79755 0.65425 0.92221 0.0
H158 H 0.8327 0.65963 0.92962 0.0
H159 H 0.79032 0.65862 0.8803 0.0
H160 H 0.77033 0.6808 0.94332 0.0
O161 O 0.94293 0.55 0.95977 0.0
O162 O 0.93229 0.4859 -0.00403 0.0
H163 H 0.77272 0.49577 0.02797 0.0
H164 H 0.71679 0.53147 0.00485 0.0
C165 C 0.75333 0.51307 -0.00633 0.0
H166 H 0.75204 0.48607 0.96504 0.0
H167 H 0.87608 0.43521 0.07213 0.0
O168 O 0.90008 0.61592 0.86433 0.0
C169 C 0.95546 0.51642 0.99148 0.0
Co170 Co 0.49639 0.20192 0.10386 0.0
Co171 Co 0.58927 0.20238 0.04566 0.0
C172 C 0.58821 0.18364 0.15984 0.0
O173 O 0.5439 0.1888 0.16045 0.0
O174 O 0.60956 0.1893 0.11857 0.0
C175 C 0.41634 0.23103 0.1721 0.0
O176 O 0.4422 0.25376 0.19639 0.0
C177 C 0.66747 0.24285 0.02964 0.0
C178 C 0.6947 0.219 0.95231 0.0
C179 C 0.70112 0.24603 -0.00648 0.0
N180 N 0.64214 0.21525 0.01106 0.0
N181 N 0.65884 0.20072 0.96489 0.0
C182 C 0.65897 0.26641 0.08095 0.0
H183 H 0.68148 0.24375 0.11009 0.0
H184 H 0.62167 0.27215 0.09281 0.0
H185 H 0.66829 0.30003 0.07994 0.0
C186 C 0.46175 0.2923 0.05275 0.0
N187 N 0.49648 0.25415 0.06395 0.0
N188 N 0.53545 0.2563 0.04045 0.0
C189 C 0.52686 0.29762 0.01536 0.0
C190 C 0.47973 0.32162 0.02218 0.0
C191 C 0.41124 0.29898 0.06753 0.0
H192 H 0.40169 0.26574 0.06365 0.0
H193 H 0.40608 0.31062 0.10818 0.0
H194 H 0.38739 0.32537 0.04284 0.0
O195 O 0.50852 0.14752 0.06052 0.0
O196 O 0.57621 0.14199 0.01982 0.0
H197 H 0.58181 0.2871 0.95904 0.0
H198 H 0.54717 0.347 0.96495 0.0
C199 C 0.563 0.31435 0.98629 0.0
H200 H 0.58872 0.32123 0.01399 0.0
H201 H 0.6452 0.17914 0.94155 0.0
O202 O 0.43406 0.20684 0.13332 0.0
C203 C 0.54123 0.12577 0.03079 0.0
Co204 Co 0.20996 0.48559 0.87301 0.0
Co205 Co 0.20915 0.57803 0.93007 0.0
C206 C 0.17346 0.58022 0.82271 0.0
O207 O 0.18213 0.53618 0.82295 0.0
O208 O 0.18461 0.60158 0.86083 0.0
C209 C 0.25073 0.41736 0.79776 0.0
O210 O 0.28291 0.44033 0.7949 0.0
C211 C 0.2386 0.66408 0.94228 0.0
C212 C 0.25269 0.66476 0.02554 0.0
C213 C 0.25901 0.68589 0.97929 0.0
N214 N 0.22303 0.6302 0.96504 0.0
N215 N 0.23028 0.63189 0.01517 0.0
C216 C 0.23727 0.67311 0.88551 0.0
H217 H 0.20029 0.68173 0.87216 0.0
H218 H 0.25731 0.64117 0.86547 0.0
H219 H 0.2524 0.7023 0.87548 0.0
C220 C 0.30357 0.45438 0.91619 0.0
N221 N 0.26535 0.48891 0.90449 0.0
N222 N 0.2672 0.52728 0.9281 0.0
C223 C 0.30905 0.51834 0.9532 0.0
C224 C 0.33329 0.47188 0.94603 0.0
C225 C 0.30688 0.40387 0.90949 0.0
H226 H 0.27115 0.39856 0.90912 0.0
H227 H 0.32556 0.39138 0.87296 0.0
H228 H 0.32704 0.38284 0.94137 0.0
O229 O 0.165 0.48646 0.92801 0.0
O230 O 0.15361 0.55677 0.96144 0.0
H231 H 0.30471 0.55487 0.02438 0.0
H232 H 0.36249 0.53981 -0.00466 0.0
C233 C 0.32421 0.55167 0.98735 0.0
H234 H 0.31585 0.5861 0.96908 0.0
H235 H 0.22305 0.60843 0.04185 0.0
O236 O 0.21844 0.42855 0.83164 0.0
C237 C 0.1414 0.51871 0.95673 0.0
Co238 Co 0.57238 0.86089 0.0953 0.0
Co239 Co 0.48441 0.85689 0.0319 0.0
C240 C 0.47608 0.87823 0.1444 0.0
O241 O 0.51977 0.8755 0.14605 0.0
O242 O 0.45735 0.86897 0.10314 0.0
C243 C 0.63316 0.84444 0.17991 0.0
O244 O 0.60216 0.82424 0.19858 0.0
C245 C 0.4086 0.81539 0.00752 0.0
C246 C 0.38598 0.84155 0.92959 0.0
C247 C 0.37689 0.81365 0.96906 0.0
N248 N 0.43513 0.84328 0.9921 0.0
N249 N 0.4212 0.85915 0.94553 0.0
C250 C 0.41445 0.78975 0.05775 0.0
H251 H 0.45067 0.78475 0.07263 0.0
H252 H 0.4067 0.75559 0.05337 0.0
H253 H 0.38923 0.81043 0.08618 0.0
C254 C 0.61326 0.77092 0.04892 0.0
N255 N 0.57648 0.80788 0.05694 0.0
N256 N 0.54024 0.80429 0.02961 0.0
C257 C 0.553 0.76327 0.00404 0.0
C258 C 0.59993 0.74097 0.01535 0.0
C259 C 0.66128 0.76608 0.07065 0.0
H260 H 0.67114 0.79913 0.06534 0.0
H261 H 0.66066 0.75883 0.11259 0.0
H262 H 0.68836 0.73776 0.05185 0.0
O263 O 0.56445 0.91409 0.05033 0.0
O264 O 0.49724 0.91882 0.00972 0.0
H265 H 0.50379 0.77316 0.94205 0.0
H266 H 0.54044 0.714 0.94869 0.0
C267 C 0.52109 0.74562 0.96982 0.0
H268 H 0.49334 0.73693 -0.00629 0.0
H269 H 0.43609 0.88147 0.92438 0.0
O270 O 0.62998 0.85794 0.13341 0.0
C271 C 0.53175 0.9356 0.02067 0.0
C272 C 0.55281 0.05736 0.42625 0.0
C273 C 0.57485 0.05355 0.47498 0.0
C274 C 0.50525 0.03485 0.51322 0.0
C275 C 0.487 0.03261 0.46291 0.0
N276 N 0.50342 0.02612 0.37141 0.0
N277 N 0.57443 0.03406 0.56489 0.0
C278 C 0.51385 0.03921 0.41941 0.0
C279 C 0.55173 0.04097 0.51873 0.0
N280 N 0.56979 0.07769 0.38594 0.0
N281 N 0.47816 0.03222 0.55528 0.0
H282 H 0.60739 0.04015 0.56974 0.0
H283 H 0.56161 0.02044 0.59716 0.0
H284 H 0.44464 0.02716 0.55209 0.0
H285 H 0.48778 0.03784 0.59277 0.0
H286 H 0.55286 0.08433 0.35044 0.0
H287 H 0.59765 0.09261 0.39023 0.0
H288 H 0.52452 0.02675 0.33919 0.0
H289 H 0.47719 0.00927 0.36505 0.0
C290 C 1.01272 0.56071 0.47785 0.0
C291 C 0.04335 0.57997 0.50717 0.0
C292 C 0.06941 0.50754 0.55532 0.0
C293 C 0.04229 0.48587 0.52306 0.0
N294 N 0.9962 0.49048 0.44553 0.0
N295 N 0.11144 0.56603 0.56256 0.0
C296 C 0.01624 0.51203 0.48177 0.0
C297 C 0.0757 0.55121 0.5413 0.0
N298 N 0.97993 0.58901 0.44689 0.0
N299 N 0.08598 0.489 0.6021 0.0
H300 H 0.1175 0.59811 0.55461 0.0
H301 H 0.13835 0.5441 0.58385 0.0
H302 H 0.07967 0.45925 0.61783 0.0
H303 H 0.10097 0.50669 0.62884 0.0
H304 H 0.95313 0.57826 0.42896 0.0
H305 H 0.97841 0.62404 0.44142 0.0
H306 H 0.98017 0.50716 0.41241 0.0
H307 H 0.99977 0.4548 0.44589 0.0
C308 C 0.02261 0.54279 0.02829 0.0
C309 C 1.00505 0.50625 0.00938 0.0
C310 C 0.07607 0.47693 0.95986 0.0
C311 C 0.09599 0.5125 0.97925 0.0
N312 N 0.09229 0.56735 0.04907 0.0
N313 N 0.02693 0.42659 0.98172 0.0
C314 C 0.07074 0.54177 0.01917 0.0
C315 C 0.03675 0.46853 0.98529 0.0
N316 N 0.99294 0.57891 0.05359 0.0
N317 N 0.0896 0.45509 0.91389 0.0
H318 H 0.99859 0.41956 0.00125 0.0
H319 H 0.05048 0.39769 0.96527 0.0
H320 H 0.10732 0.46823 0.88524 0.0
H321 H 0.07503 0.4294 0.89982 0.0
H322 H 1.00225 0.60906 0.06351 0.0
H323 H 0.95837 0.57884 0.06244 0.0
H324 H 0.07552 0.58705 0.08018 0.0
H325 H 0.12834 0.56389 0.04737 0.0
C326 C 0.53791 1.00829 0.97166 0.0
C327 C 0.52714 0.98639 0.01712 0.0
C328 C 0.53823 0.05064 0.06876 0.0
C329 C 0.54325 0.07574 0.0235 0.0
N330 N 0.54324 0.08054 0.93086 0.0
N331 N 0.5036 0.99378 0.10659 0.0
C332 C 0.54186 0.05517 0.9744 0.0
C333 C 0.52273 0.01012 0.06478 0.0
N334 N 0.54522 0.98409 0.92656 0.0
N335 N 0.54979 0.06476 0.11583 0.0
H336 H 0.49057 0.96465 0.10471 0.0
H337 H 0.49598 0.01203 0.14113 0.0
H338 H 0.56389 0.09302 0.12031 0.0
H339 H 0.55052 0.04532 0.14943 0.0
H340 H 0.55762 0.99626 0.89309 0.0
H341 H 0.54087 0.95062 0.92374 0.0
H342 H 0.53798 0.06917 0.89404 0.0
H343 H 0.54711 0.11425 0.93216 0.0
C344 C 0.14581 0.16041 0.5465 0.0
C345 C 0.11951 0.191 0.50895 0.0
C346 C 0.16151 0.1388 0.44183 0.0
C347 C 0.19569 0.11639 0.47855 0.0
N348 N 0.2229 0.11153 0.56674 0.0
N349 N 0.1051 0.2109 0.41904 0.0
C350 C 0.18816 0.12777 0.53149 0.0
C351 C 0.12722 0.18018 0.45595 0.0
N352 N 0.13161 0.16455 0.59681 0.0
N353 N 0.16279 0.12127 0.39318 0.0
H354 H 0.08075 0.24226 0.42768 0.0
H355 H 0.11374 0.20676 0.38002 0.0
H356 H 0.18737 0.09065 0.3821 0.0
H357 H 0.13667 0.13439 0.366 0.0
H358 H 0.14791 0.14115 0.62533 0.0
H359 H 0.10063 0.18862 0.60845 0.0
H360 H 0.22033 0.12274 0.60489 0.0
H361 H 0.25611 0.09084 0.55681 0.0
C362 C 0.30087 0.79458 0.52217 0.0
C363 C 0.28438 0.83867 0.49776 0.0
C364 C 0.21389 0.81673 0.46912 0.0
C365 C 0.22805 0.77503 0.49805 0.0
N366 N 0.2818 0.72632 0.55761 0.0
N367 N 0.21998 0.89475 0.45639 0.0
C368 C 0.27059 0.76459 0.52631 0.0
C369 C 0.23954 0.85052 0.4734 0.0
N370 N 0.34617 0.78047 0.53941 0.0
N371 N 0.17618 0.82402 0.43673 0.0
H372 H 0.2373 0.92062 0.45724 0.0
H373 H 0.18497 0.90687 0.44516 0.0
H374 H 0.15543 0.80095 0.43326 0.0
H375 H 0.16789 0.85099 0.40988 0.0
H376 H 0.36176 0.74701 0.55282 0.0
H377 H 0.36979 0.8008 0.53579 0.0
H378 H 0.30954 0.71959 0.58366 0.0
H379 H 0.26115 0.70296 0.56028 0.0
C380 C 0.88905 0.94577 0.53362 0.0
C381 C 0.87552 0.95725 0.48177 0.0
C382 C 0.9381 0.89088 0.45148 0.0
C383 C 0.95074 0.87876 0.50333 0.0
N384 N 0.95046 0.9038 0.59128 0.0
N385 N 0.89826 0.95159 0.39229 0.0
C386 C 0.93081 0.91003 0.5434 0.0
C387 C 0.90441 0.93373 0.44106 0.0
N388 N 0.86021 0.9655 0.57341 0.0
N389 N 0.95498 0.86014 0.41266 0.0
H390 H 0.87377 0.98313 0.38408 0.0
H391 H 0.92049 0.93766 0.36166 0.0
H392 H 0.97898 0.82798 0.41879 0.0
H393 H 0.94254 0.86526 0.37499 0.0
H394 H 0.86618 0.95434 0.61149 0.0
H395 H 0.82833 0.9904 0.56808 0.0
H396 H 0.93942 0.92741 0.62122 0.0
H397 H 0.98092 0.87741 0.59902 0.0
C398 C 0.76073 0.28569 0.51863 0.0
C399 C 0.78074 0.2368 0.51818 0.0
C400 C 0.85788 0.24866 0.49957 0.0
C401 C 0.83958 0.29714 0.50626 0.0
N402 N 0.77418 0.36214 0.52795 0.0
N403 N 0.8506 0.17302 0.52418 0.0
C404 C 0.79104 0.31588 0.51746 0.0
C405 C 0.83005 0.21867 0.51348 0.0
N406 N 0.71297 0.3032 0.51877 0.0
N407 N 0.90121 0.23128 0.47794 0.0
H408 H 0.83139 0.15122 0.53888 0.0
H409 H 0.88694 0.15884 0.52494 0.0
H410 H 0.92053 0.25289 0.46299 0.0
H411 H 0.91477 0.19628 0.46878 0.0
H412 H 0.69624 0.33833 0.51371 0.0
H413 H 0.68998 0.28207 0.52038 0.0
H414 H 0.74027 0.37703 0.54163 0.0
H415 H 0.79526 0.38515 0.52624 0.0
C416 C 0.64794 0.68986 0.94582 0.0
C417 C 0.63115 0.69569 -0.00261 0.0
C418 C 0.6962 0.63036 0.02483 0.0
C419 C 0.71237 0.6235 0.97304 0.0
N420 N 0.69476 0.63739 0.8828 0.0
N421 N 0.63013 0.66217 0.08175 0.0
C422 C 0.68507 0.65008 0.93301 0.0
C423 C 0.65199 0.66229 0.03525 0.0
N424 N 0.63097 0.72359 0.90983 0.0
N425 N 0.72436 0.60955 0.06456 0.0
H426 H 0.59756 0.68525 0.09011 0.0
H427 H 0.64188 0.63633 0.10943 0.0
H428 H 0.75812 0.58792 0.0592 0.0
H429 H 0.71594 0.61741 0.10312 0.0
H430 H 0.6459 0.72341 0.87331 0.0
H431 H 0.60431 0.75357 0.91767 0.0
H432 H 0.67354 0.65323 0.85229 0.0
H433 H 0.72122 0.60794 0.87233 0.0
C434 C 0.80946 0.29111 0.01351 0.0
C435 C 0.78846 0.33976 0.01079 0.0
C436 C 0.71347 0.32549 0.98689 0.0
C437 C 0.73269 0.27731 -0.00446 0.0
N438 N 0.79757 0.21402 0.02272 0.0
N439 N 0.71785 0.40302 0.00733 0.0
C440 C 0.78039 0.25996 0.01043 0.0
C441 C 0.73965 0.3569 0.00109 0.0
N442 N 0.8572 0.27467 0.01747 0.0
N443 N 0.67072 0.34118 0.96365 0.0
H444 H 0.73557 0.42662 0.02035 0.0
H445 H 0.68151 0.41672 0.00528 0.0
H446 H 0.65187 0.31871 0.9502 0.0
H447 H 0.65677 0.37564 0.95241 0.0
H448 H 0.87502 0.23964 0.01414 0.0
H449 H 0.87946 0.29644 0.02016 0.0
H450 H 0.83044 0.20024 0.0393 0.0
H451 H 0.7776 0.19014 0.01948 0.0
C452 C 0.42641 0.40089 0.03768 0.0
C453 C 0.45238 0.36782 0.00205 0.0
C454 C 0.41262 0.41764 0.93176 0.0
C455 C 0.37896 0.44348 0.96718 0.0
N456 N 0.35039 0.45351 0.05512 0.0
N457 N 0.46508 0.34229 0.91347 0.0
C458 C 0.38526 0.43426 0.02074 0.0
C459 C 0.44489 0.37584 0.94842 0.0
N460 N 0.44005 0.39918 0.08799 0.0
N461 N 0.4126 0.43226 0.88182 0.0
H462 H 0.48704 0.31009 0.92389 0.0
H463 H 0.45648 0.34489 0.87446 0.0
H464 H 0.38938 0.463 0.86876 0.0
H465 H 0.43859 0.41652 0.8553 0.0
H466 H 0.42409 0.42451 0.11476 0.0
H467 H 0.47033 0.37512 0.10123 0.0
H468 H 0.35187 0.44402 0.09391 0.0
H469 H 0.31796 0.47501 0.04408 0.0
C470 C 0.33181 0.70716 0.94618 0.0
C471 C 0.28735 0.72033 0.97193 0.0
C472 C 0.299 0.79773 0.98873 0.0
C473 C 0.34486 0.78278 0.96726 0.0
N474 N 0.40717 0.72265 0.92957 0.0
N475 N 0.22869 0.77768 0.01879 0.0
C476 C 0.36169 0.73746 0.94678 0.0
C477 C 0.27098 0.76559 -0.00654 0.0
N478 N 0.34559 0.66593 0.92039 0.0
N479 N 0.28202 0.84303 0.00362 0.0
H480 H 0.20551 0.75674 0.01946 0.0
H481 H 0.21708 0.80756 0.0409 0.0
H482 H 0.30197 0.86704 0.00137 0.0
H483 H 0.2474 0.85793 0.01489 0.0
H484 H 0.37415 0.65737 0.89518 0.0
H485 H 0.32666 0.64135 0.92048 0.0
H486 H 0.42423 0.68809 0.92169 0.0
H487 H 0.42928 0.7445 0.92613 0.0
C488 C 0.33727 0.15967 0.20724 0.0
C489 C 0.3297 0.17185 0.26009 0.0
C490 C 0.35731 0.24139 0.24524 0.0
C491 C 0.3725 0.22388 0.1957 0.0
N492 N 0.34875 0.18757 0.12177 0.0
N493 N 0.31567 0.23209 0.32411 0.0
C494 C 0.35275 0.19015 0.17395 0.0
C495 C 0.33414 0.21558 0.27742 0.0
N496 N 0.3339 0.11772 0.18935 0.0
N497 N 0.36454 0.28256 0.26062 0.0
H498 H 0.29577 0.21493 0.34592 0.0
H499 H 0.31648 0.264 0.33935 0.0
H500 H 0.37461 0.30486 0.23453 0.0
H501 H 0.35906 0.29546 0.29796 0.0
H502 H 0.34469 0.10581 0.15238 0.0
H503 H 0.32387 0.09315 0.212 0.0
H504 H 0.33168 0.16541 0.10403 0.0
H505 H 0.35703 0.21205 0.0972 0.0
C506 C 0.07845 0.61841 0.72011 0.0
C507 C 0.08889 0.65871 0.69938 0.0
C508 C 0.15875 0.64372 0.75473 0.0
C509 C 0.14471 0.60729 0.77999 0.0
N510 N 0.08279 0.56927 0.79502 0.0
N511 N 0.13385 0.71509 0.70534 0.0
C512 C 0.10205 0.59737 0.76521 0.0
C513 C 0.1275 0.67304 0.71933 0.0
N514 N 0.04838 0.5981 0.69528 0.0
N515 N 0.20284 0.64883 0.76223 0.0
H516 H 0.11056 0.73815 0.68115 0.0
H517 H 0.15909 0.729 0.72207 0.0
H518 H 0.2277 0.62591 0.78493 0.0
H519 H 0.21635 0.67229 0.74138 0.0
H520 H 0.04406 0.56586 0.70624 0.0
H521 H 0.03214 0.61022 0.66048 0.0
H522 H 0.04959 0.5646 0.78791 0.0
H523 H 0.09716 0.55502 0.82996 0.0
C524 C 0.65506 0.9402 0.26231 0.0
C525 C 0.70107 0.91877 0.28046 0.0
C526 C 0.70157 0.84672 0.23552 0.0
C527 C 0.65659 0.86902 0.21547 0.0
N528 N 0.59224 0.93815 0.20399 0.0
N529 N 0.77076 0.85468 0.28131 0.0
C530 C 0.63382 0.91608 0.22725 0.0
C531 C 0.72521 0.87282 0.26613 0.0
N532 N 0.63104 0.98327 0.27975 0.0
N533 N 0.72107 0.8006 0.2258 0.0
H534 H 0.78851 0.873 0.30431 0.0
H535 H 0.79202 0.82293 0.26873 0.0
H536 H 0.70477 0.78107 0.20263 0.0
H537 H 0.75182 0.7809 0.24284 0.0
H538 H 0.5952 0.99783 0.27422 0.0
H539 H 0.64607 1.00387 0.30268 0.0
H540 H 0.5774 0.9739 0.20516 0.0
H541 H 0.57346 0.92143 0.18055 0.0
C542 C 0.99532 0.4343 0.74197 0.0
C543 C 0.97961 0.39878 0.71733 0.0
C544 C 0.91692 0.40904 0.78252 0.0
C545 C 0.93676 0.44018 0.81009 0.0
N546 N 1.00531 0.46865 0.82342 0.0
N547 N 0.93253 0.344 0.72352 0.0
C548 C 0.97949 0.44812 0.79234 0.0
C549 C 0.9425 0.38349 0.74043 0.0
N550 N 0.02221 0.45781 0.71614 0.0
N551 N 0.8729 0.40552 0.79436 0.0
H552 H 0.95259 0.32282 0.69529 0.0
H553 H 0.90815 0.32961 0.74178 0.0
H554 H 0.85199 0.42579 0.8226 0.0
H555 H 0.85545 0.38628 0.77233 0.0
H556 H 0.0324 0.48558 0.73209 0.0
H557 H 0.02785 0.45448 0.67665 0.0
H558 H 0.03833 0.47213 0.81274 0.0
H559 H 0.99653 0.4769 0.86188 0.0
C560 C 0.6233 0.16767 0.30143 0.0
C561 C 0.663 0.12809 0.2991 0.0
C562 C 0.65389 0.1252 0.20532 0.0
C563 C 0.6161 0.16641 0.20715 0.0
N564 N 0.57306 0.23311 0.25548 0.0
N565 N 0.72367 0.07814 0.24732 0.0
C566 C 0.60342 0.18962 0.2548 0.0
C567 C 0.6807 0.1098 0.25048 0.0
N568 N 0.6025 0.18286 0.34766 0.0
N569 N 0.66255 0.09884 0.16158 0.0
H570 H 0.7449 0.06734 0.27951 0.0
H571 H 0.74032 0.06673 0.21241 0.0
H572 H 0.64302 0.10731 0.12793 0.0
H573 H 0.68617 0.06594 0.16037 0.0
H574 H 0.57025 0.20774 0.35066 0.0
H575 H 0.61495 0.16815 0.383 0.0
H576 H 0.5662 0.25366 0.28845 0.0
H577 H 0.5585 0.25053 0.22204 0.0
C578 C 0.2212 0.3121 0.74323 0.0
C579 C 0.21094 0.32836 0.69226 0.0
C580 C 0.24705 0.39142 0.7058 0.0
C581 C 0.24878 0.38127 0.75953 0.0
N582 N 0.25457 0.32356 0.82611 0.0
N583 N 0.24202 0.36125 0.62009 0.0
C584 C 0.24162 0.33847 0.77721 0.0
C585 C 0.2338 0.36038 0.67181 0.0
N586 N 0.21165 0.27172 0.75829 0.0
N587 N 0.2534 0.43223 0.68727 0.0
H588 H 0.23417 0.33683 0.59541 0.0
H589 H 0.26151 0.38195 0.60331 0.0
H590 H 0.26182 0.45735 0.71006 0.0
H591 H 0.24672 0.44278 0.64906 0.0
H592 H 0.21392 0.25944 0.796 0.0
H593 H 0.20302 0.24934 0.73154 0.0
H594 H 0.2511 0.29261 0.84195 0.0
H595 H 0.27225 0.34117 0.84989 0.0
C596 C 0.38246 0.95606 0.23198 0.0
C597 C 0.40368 0.94385 0.28083 0.0
C598 C 0.46241 0.87943 0.24001 0.0
C599 C 0.4466 0.89703 0.19052 0.0
N600 N 0.39475 0.95807 0.14001 0.0
N601 N 0.47008 0.8981 0.32943 0.0
C602 C 0.40709 0.93665 0.18648 0.0
C603 C 0.44507 0.90629 0.28458 0.0
N604 N 0.33842 0.98582 0.22898 0.0
N605 N 0.49385 0.83676 0.24451 0.0
H606 H 0.4607 0.91819 0.36247 0.0
H607 H 0.50304 0.87434 0.33215 0.0
H608 H 0.50616 0.81565 0.2127 0.0
H609 H 0.50347 0.8204 0.27989 0.0
H610 H 0.31948 0.99258 0.19473 0.0
H611 H 0.31888 0.99978 0.26153 0.0
H612 H 0.36993 0.99012 0.13643 0.0
H613 H 0.41204 0.9466 0.10553 0.0
C614 C 0.91748 0.64014 0.68623 0.0
C615 C 0.89803 0.68885 0.68329 0.0
C616 C 0.87912 0.69238 0.7754 0.0
C617 C 0.89501 0.64329 0.77734 0.0
N618 N 0.94328 0.57227 0.74125 0.0
N619 N 0.87449 0.76274 0.72591 0.0
C620 C 0.9191 0.61781 0.73482 0.0
C621 C 0.88379 0.71545 0.72846 0.0
N622 N 0.93133 0.615 0.64228 0.0
N623 N 0.85716 0.7165 0.81722 0.0
H624 H 0.87826 0.78002 0.69173 0.0
H625 H 0.86741 0.78431 0.75802 0.0
H626 H 0.85471 0.70067 0.85262 0.0
H627 H 0.83968 0.75173 0.81638 0.0
H628 H 0.94059 0.57886 0.64097 0.0
H629 H 0.93145 0.63039 0.60619 0.0
H630 H 0.96404 0.55236 0.71271 0.0
H631 H 0.94604 0.55562 0.77699 0.0
loop_
_geom_bond_atom_site_label_1
_geom_bond_atom_site_label_2
_geom_bond_distance
_geom_bond_site_symmetry_2
_ccdc_geom_bond_type
Co0 O3 1.973 . S
Co0 N17 1.989 . S
Co0 O25 1.967 . S
Co0 O32 1.920 . S
Co1 O4 1.966 . S
Co1 N10 2.022 . S
Co1 N18 1.993 1_565 S
Co1 O26 1.941 . S
C2 O3 1.255 1_565 S
C2 O4 1.263 . S
O3 Co0 1.973 . S
O3 C2 1.255 1_545 S
O4 Co1 1.966 . S
O4 C2 1.263 . S
C5 O6 1.235 . S
C5 O32 1.289 . S
O6 C5 1.235 . S
C7 C9 1.400 . S
C7 N10 1.351 . S
C7 C12 1.501 . S
C8 C9 1.387 . S
C8 N11 1.341 . S
C9 C7 1.400 . S
C9 C8 1.387 . S
N10 Co1 2.022 . S
N10 C7 1.351 . S
N10 N11 1.365 . S
N11 C8 1.341 . S
N11 N10 1.365 . S
N11 H31 0.862 . S
C12 C7 1.501 . S
C12 H13 0.961 . S
C12 H14 0.961 . S
C12 H15 0.960 . S
H13 C12 0.961 . S
H14 C12 0.961 . S
H15 C12 0.960 . S
C16 N17 1.342 . S
C16 C20 1.401 . S
C16 C21 1.499 . S
N17 Co0 1.989 . S
N17 C16 1.342 . S
N17 N18 1.388 . S
N18 Co1 1.993 1_545 S
N18 N17 1.388 . S
N18 C19 1.346 . S
C19 N18 1.346 . S
C19 C20 1.396 . S
C19 C29 1.510 . S
C20 C16 1.401 . S
C20 C19 1.396 . S
C21 C16 1.499 . S
C21 H22 0.959 . S
C21 H23 0.960 . S
C21 H24 0.961 . S
H22 C21 0.959 . S
H23 C21 0.960 . S
H24 C21 0.961 . S
O25 Co0 1.967 . S
O25 C33 1.258 1_545 S
O26 Co1 1.941 . S
O26 C33 1.266 . S
H27 C29 0.959 . S
H28 C29 0.961 . S
C29 C19 1.510 . S
C29 H27 0.959 . S
C29 H28 0.961 . S
C29 H30 0.960 . S
H30 C29 0.960 . S
H31 N11 0.862 . S
O32 Co0 1.920 . S
O32 C5 1.289 . S
C33 O25 1.258 1_565 S
C33 O26 1.266 . S
Co34 O37 1.970 1_655 S
Co34 N51 1.989 . S
Co34 O59 1.967 1_655 S
Co34 O66 1.920 . S
Co35 O38 1.966 . S
Co35 N44 2.022 . S
Co35 N52 1.993 . S
Co35 O60 1.941 . S
C36 O37 1.258 . S
C36 O38 1.263 . S
O37 Co34 1.970 1_455 S
O37 C36 1.258 . S
O38 Co35 1.966 . S
O38 C36 1.263 . S
C39 O40 1.235 . S
C39 O66 1.289 . S
O40 C39 1.235 . S
C41 C43 1.400 . S
C41 N44 1.351 . S
C41 C46 1.501 . S
C42 C43 1.387 . S
C42 N45 1.341 . S
C43 C41 1.400 . S
C43 C42 1.387 . S
N44 Co35 2.022 . S
N44 C41 1.351 . S
N44 N45 1.365 . S
N45 C42 1.341 . S
N45 N44 1.365 . S
N45 H65 0.862 . S
C46 C41 1.501 . S
C46 H47 0.961 . S
C46 H48 0.961 . S
C46 H49 0.960 . S
H47 C46 0.961 . S
H48 C46 0.961 . S
H49 C46 0.960 . S
C50 N51 1.342 . S
C50 C54 1.401 . S
C50 C55 1.499 . S
N51 Co34 1.989 . S
N51 C50 1.342 . S
N51 N52 1.388 1_655 S
N52 Co35 1.993 . S
N52 N51 1.388 1_455 S
N52 C53 1.346 1_455 S
C53 N52 1.346 1_655 S
C53 C54 1.396 . S
C53 C63 1.510 1_655 S
C54 C50 1.401 . S
C54 C53 1.396 . S
C55 C50 1.499 . S
C55 H56 0.959 . S
C55 H57 0.960 . S
C55 H58 0.961 . S
H56 C55 0.959 . S
H57 C55 0.960 . S
H58 C55 0.961 . S
O59 Co34 1.967 1_455 S
O59 C67 1.258 . S
O60 Co35 1.941 . S
O60 C67 1.266 . S
H61 C63 0.959 . S
H62 C63 0.961 . S
C63 C53 1.510 1_455 S
C63 H61 0.959 . S
C63 H62 0.961 . S
C63 H64 0.960 . S
H64 C63 0.960 . S
H65 N45 0.862 . S
O66 Co34 1.920 . S
O66 C39 1.289 . S
C67 O59 1.258 . S
C67 O60 1.266 . S
Co68 O71 1.970 1_565 S
Co68 N85 1.989 . S
Co68 O93 1.967 1_565 S
Co68 O100 1.920 . S
Co69 O72 1.966 . S
Co69 N78 2.022 . S
Co69 N86 1.993 . S
Co69 O94 1.941 . S
C70 O71 1.258 . S
C70 O72 1.263 . S
O71 Co68 1.970 1_545 S
O71 C70 1.258 . S
O72 Co69 1.966 . S
O72 C70 1.263 . S
C73 O74 1.235 . S
C73 O100 1.289 . S
O74 C73 1.235 . S
C75 C77 1.400 . S
C75 N78 1.351 . S
C75 C80 1.501 . S
C76 C77 1.387 . S
C76 N79 1.341 . S
C77 C75 1.400 . S
C77 C76 1.387 . S
N78 Co69 2.022 . S
N78 C75 1.351 . S
N78 N79 1.365 . S
N79 C76 1.341 . S
N79 N78 1.365 . S
N79 H99 0.862 . S
C80 C75 1.501 . S
C80 H81 0.961 . S
C80 H82 0.961 . S
C80 H83 0.960 . S
H81 C80 0.961 . S
H82 C80 0.961 . S
H83 C80 0.960 . S
C84 N85 1.342 . S
C84 C88 1.401 . S
C84 C89 1.499 . S
N85 Co68 1.989 . S
N85 C84 1.342 . S
N85 N86 1.388 1_565 S
N86 Co69 1.993 . S
N86 N85 1.388 1_545 S
N86 C87 1.346 1_545 S
C87 N86 1.346 1_565 S
C87 C88 1.396 . S
C87 C97 1.510 1_565 S
C88 C84 1.401 . S
C88 C87 1.396 . S
C89 C84 1.499 . S
C89 H90 0.959 . S
C89 H91 0.960 . S
C89 H92 0.961 . S
H90 C89 0.959 . S
H91 C89 0.960 . S
H92 C89 0.961 . S
O93 Co68 1.967 1_545 S
O93 C101 1.258 . S
O94 Co69 1.941 . S
O94 C101 1.266 . S
H95 C97 0.959 . S
H96 C97 0.961 . S
C97 C87 1.510 1_545 S
C97 H95 0.959 . S
C97 H96 0.961 . S
C97 H98 0.960 . S
H98 C97 0.960 . S
H99 N79 0.862 . S
O100 Co68 1.920 . S
O100 C73 1.289 . S
C101 O93 1.258 . S
C101 O94 1.266 . S
Co102 O105 1.973 . S
Co102 N119 1.989 . S
Co102 O127 1.967 . S
Co102 O134 1.920 . S
Co103 O106 1.966 . S
Co103 N112 2.022 . S
Co103 N120 1.993 1_655 S
Co103 O128 1.941 . S
C104 O105 1.255 1_655 S
C104 O106 1.263 . S
O105 Co102 1.973 . S
O105 C104 1.255 1_455 S
O106 Co103 1.966 . S
O106 C104 1.263 . S
C107 O108 1.235 . S
C107 O134 1.289 . S
O108 C107 1.235 . S
C109 C111 1.400 . S
C109 N112 1.351 . S
C109 C114 1.501 . S
C110 C111 1.387 . S
C110 N113 1.341 . S
C111 C109 1.400 . S
C111 C110 1.387 . S
N112 Co103 2.022 . S
N112 C109 1.351 . S
N112 N113 1.365 . S
N113 C110 1.341 . S
N113 N112 1.365 . S
N113 H133 0.862 . S
C114 C109 1.501 . S
C114 H115 0.961 . S
C114 H116 0.961 . S
C114 H117 0.960 . S
H115 C114 0.961 . S
H116 C114 0.961 . S
H117 C114 0.960 . S
C118 N119 1.342 . S
C118 C122 1.401 . S
C118 C123 1.499 . S
N119 Co102 1.989 . S
N119 C118 1.342 . S
N119 N120 1.388 . S
N120 Co103 1.993 1_455 S
N120 N119 1.388 . S
N120 C121 1.346 . S
C121 N120 1.346 . S
C121 C122 1.396 . S
C121 C131 1.510 . S
C122 C118 1.401 . S
C122 C121 1.396 . S
C123 C118 1.499 . S
C123 H124 0.959 . S
C123 H125 0.960 . S
C123 H126 0.961 . S
H124 C123 0.959 . S
H125 C123 0.960 . S
H126 C123 0.961 . S
O127 Co102 1.967 . S
O127 C135 1.258 1_455 S
O128 Co103 1.941 . S
O128 C135 1.266 . S
H129 C131 0.959 . S
H130 C131 0.961 . S
C131 C121 1.510 . S
C131 H129 0.959 . S
C131 H130 0.961 . S
C131 H132 0.960 . S
H132 C131 0.960 . S
H133 N113 0.862 . S
O134 Co102 1.920 . S
O134 C107 1.289 . S
C135 O127 1.258 1_655 S
C135 O128 1.266 . S
Co136 O139 1.970 . S
Co136 N153 1.989 . S
Co136 O161 1.967 . S
Co136 O168 1.920 . S
Co137 O140 1.966 . S
Co137 N146 2.022 1_556 S
Co137 N154 1.993 . S
Co137 O162 1.941 . S
C138 O139 1.258 . S
C138 O140 1.263 . S
O139 Co136 1.970 . S
O139 C138 1.258 . S
O140 Co137 1.966 . S
O140 C138 1.263 . S
C141 O142 1.235 . S
C141 O168 1.289 . S
O142 C141 1.235 . S
C143 C145 1.400 1_556 S
C143 N146 1.351 1_556 S
C143 C148 1.501 . S
C144 C145 1.387 . S
C144 N147 1.341 . S
C145 C143 1.400 1_554 S
C145 C144 1.387 . S
N146 Co137 2.022 1_554 S
N146 C143 1.351 1_554 S
N146 N147 1.365 . S
N147 C144 1.341 . S
N147 N146 1.365 . S
N147 H167 0.862 . S
C148 C143 1.501 . S
C148 H149 0.961 . S
C148 H150 0.961 . S
C148 H151 0.960 . S
H149 C148 0.961 . S
H150 C148 0.961 . S
H151 C148 0.960 . S
C152 N153 1.342 . S
C152 C156 1.401 . S
C152 C157 1.499 . S
N153 Co136 1.989 . S
N153 C152 1.342 . S
N153 N154 1.388 . S
N154 Co137 1.993 . S
N154 N153 1.388 . S
N154 C155 1.346 . S
C155 N154 1.346 . S
C155 C156 1.396 . S
C155 C165 1.510 1_556 S
C156 C152 1.401 . S
C156 C155 1.396 . S
C157 C152 1.499 . S
C157 H158 0.959 . S
C157 H159 0.960 . S
C157 H160 0.961 . S
H158 C157 0.959 . S
H159 C157 0.960 . S
H160 C157 0.961 . S
O161 Co136 1.967 . S
O161 C169 1.258 . S
O162 Co137 1.941 . S
O162 C169 1.266 . S
H163 C165 0.959 . S
H164 C165 0.961 1_556 S
C165 C155 1.510 1_554 S
C165 H163 0.959 . S
C165 H164 0.961 1_554 S
C165 H166 0.960 . S
H166 C165 0.960 . S
H167 N147 0.862 . S
O168 Co136 1.920 . S
O168 C141 1.289 . S
C169 O161 1.258 . S
C169 O162 1.266 . S
Co170 O173 1.970 . S
Co170 N187 1.989 . S
Co170 O195 1.967 . S
Co170 O202 1.920 . S
Co171 O174 1.966 . S
Co171 N180 2.022 1_554 S
Co171 N188 1.993 . S
Co171 O196 1.941 . S
C172 O173 1.258 . S
C172 O174 1.263 . S
O173 Co170 1.970 . S
O173 C172 1.258 . S
O174 Co171 1.966 . S
O174 C172 1.263 . S
C175 O176 1.235 . S
C175 O202 1.289 . S
O176 C175 1.235 . S
C177 C179 1.400 1_554 S
C177 N180 1.351 1_554 S
C177 C182 1.501 . S
C178 C179 1.387 . S
C178 N181 1.341 . S
C179 C177 1.400 1_556 S
C179 C178 1.387 . S
N180 Co171 2.022 1_556 S
N180 C177 1.351 1_556 S
N180 N181 1.365 . S
N181 C178 1.341 . S
N181 N180 1.365 . S
N181 H201 0.862 . S
C182 C177 1.501 . S
C182 H183 0.961 . S
C182 H184 0.961 . S
C182 H185 0.960 . S
H183 C182 0.961 . S
H184 C182 0.961 . S
H185 C182 0.960 . S
C186 N187 1.342 . S
C186 C190 1.401 . S
C186 C191 1.499 . S
N187 Co170 1.989 . S
N187 C186 1.342 . S
N187 N188 1.388 . S
N188 Co171 1.993 . S
N188 N187 1.388 . S
N188 C189 1.346 . S
C189 N188 1.346 . S
C189 C190 1.396 . S
C189 C199 1.510 1_554 S
C190 C186 1.401 . S
C190 C189 1.396 . S
C191 C186 1.499 . S
C191 H192 0.959 . S
C191 H193 0.960 . S
C191 H194 0.961 . S
H192 C191 0.959 . S
H193 C191 0.960 . S
H194 C191 0.961 . S
O195 Co170 1.967 . S
O195 C203 1.258 . S
O196 Co171 1.941 . S
O196 C203 1.266 . S
H197 C199 0.959 . S
H198 C199 0.961 1_554 S
C199 C189 1.510 1_556 S
C199 H197 0.959 . S
C199 H198 0.961 1_556 S
C199 H200 0.960 . S
H200 C199 0.960 . S
H201 N181 0.862 . S
O202 Co170 1.920 . S
O202 C175 1.289 . S
C203 O195 1.258 . S
C203 O196 1.266 . S
Co204 O207 1.970 . S
Co204 N221 1.989 . S
Co204 O229 1.967 . S
Co204 O236 1.920 . S
Co205 O208 1.966 . S
Co205 N214 2.022 1_556 S
Co205 N222 1.993 . S
Co205 O230 1.941 . S
C206 O207 1.258 . S
C206 O208 1.263 . S
O207 Co204 1.970 . S
O207 C206 1.258 . S
O208 Co205 1.966 . S
O208 C206 1.263 . S
C209 O210 1.235 . S
C209 O236 1.289 . S
O210 C209 1.235 . S
C211 C213 1.400 1_556 S
C211 N214 1.351 1_556 S
C211 C216 1.501 . S
C212 C213 1.387 . S
C212 N215 1.341 . S
C213 C211 1.400 1_554 S
C213 C212 1.387 . S
N214 Co205 2.022 1_554 S
N214 C211 1.351 1_554 S
N214 N215 1.365 . S
N215 C212 1.341 . S
N215 N214 1.365 . S
N215 H235 0.862 . S
C216 C211 1.501 . S
C216 H217 0.961 . S
C216 H218 0.961 . S
C216 H219 0.960 . S
H217 C216 0.961 . S
H218 C216 0.961 . S
H219 C216 0.960 . S
C220 N221 1.342 . S
C220 C224 1.401 . S
C220 C225 1.499 . S
N221 Co204 1.989 . S
N221 C220 1.342 . S
N221 N222 1.388 . S
N222 Co205 1.993 . S
N222 N221 1.388 . S
N222 C223 1.346 . S
C223 N222 1.346 . S
C223 C224 1.396 . S
C223 C233 1.510 1_556 S
C224 C220 1.401 . S
C224 C223 1.396 . S
C225 C220 1.499 . S
C225 H226 0.959 . S
C225 H227 0.960 . S
C225 H228 0.961 . S
H226 C225 0.959 . S
H227 C225 0.960 . S
H228 C225 0.961 . S
O229 Co204 1.967 . S
O229 C237 1.258 . S
O230 Co205 1.941 . S
O230 C237 1.266 . S
H231 C233 0.959 . S
H232 C233 0.961 1_556 S
C233 C223 1.510 1_554 S
C233 H231 0.959 . S
C233 H232 0.961 1_554 S
C233 H234 0.960 . S
H234 C233 0.960 . S
H235 N215 0.862 . S
O236 Co204 1.920 . S
O236 C209 1.289 . S
C237 O229 1.258 . S
C237 O230 1.266 . S
Co238 O241 1.970 . S
Co238 N255 1.989 . S
Co238 O263 1.967 . S
Co238 O270 1.920 . S
Co239 O242 1.966 . S
Co239 N248 2.022 1_554 S
Co239 N256 1.993 . S
Co239 O264 1.941 . S
C240 O241 1.258 . S
C240 O242 1.263 . S
O241 Co238 1.970 . S
O241 C240 1.258 . S
O242 Co239 1.966 . S
O242 C240 1.263 . S
C243 O244 1.235 . S
C243 O270 1.289 . S
O244 C243 1.235 . S
C245 C247 1.400 1_554 S
C245 N248 1.351 1_554 S
C245 C250 1.501 . S
C246 C247 1.387 . S
C246 N249 1.341 . S
C247 C245 1.400 1_556 S
C247 C246 1.387 . S
N248 Co239 2.022 1_556 S
N248 C245 1.351 1_556 S
N248 N249 1.365 . S
N249 C246 1.341 . S
N249 N248 1.365 . S
N249 H269 0.862 . S
C250 C245 1.501 . S
C250 H251 0.961 . S
C250 H252 0.961 . S
C250 H253 0.960 . S
H251 C250 0.961 . S
H252 C250 0.961 . S
H253 C250 0.960 . S
C254 N255 1.342 . S
C254 C258 1.401 . S
C254 C259 1.499 . S
N255 Co238 1.989 . S
N255 C254 1.342 . S
N255 N256 1.388 . S
N256 Co239 1.993 . S
N256 N255 1.388 . S
N256 C257 1.346 . S
C257 N256 1.346 . S
C257 C258 1.396 . S
C257 C267 1.510 1_554 S
C258 C254 1.401 . S
C258 C257 1.396 . S
C259 C254 1.499 . S
C259 H260 0.959 . S
C259 H261 0.960 . S
C259 H262 0.961 . S
H260 C259 0.959 . S
H261 C259 0.960 . S
H262 C259 0.961 . S
O263 Co238 1.967 . S
O263 C271 1.258 . S
O264 Co239 1.941 . S
O264 C271 1.266 . S
H265 C267 0.959 . S
H266 C267 0.961 1_554 S
C267 C257 1.510 1_556 S
C267 H265 0.959 . S
C267 H266 0.961 1_556 S
C267 H268 0.960 . S
H268 C267 0.960 . S
H269 N249 0.862 . S
O270 Co238 1.920 . S
O270 C243 1.289 . S
C271 O263 1.258 . S
C271 O264 1.266 . S
C272 C273 1.363 . S
C272 C278 1.379 . S
C272 N280 1.356 . S
C273 C272 1.363 . S
C273 C279 1.363 . S
C274 C275 1.363 1_565 S
C274 C279 1.379 1_565 S
C274 N281 1.356 . S
C275 C274 1.363 1_545 S
C275 C278 1.363 . S
N276 C278 1.356 . S
N276 H288 0.984 . S
N276 H289 0.985 . S
N277 C279 1.356 . S
N277 H282 0.984 . S
N277 H283 0.985 1_545 S
C278 C272 1.379 . S
C278 C275 1.363 . S
C278 N276 1.356 . S
C279 C273 1.363 . S
C279 C274 1.379 1_545 S
C279 N277 1.356 . S
N280 C272 1.356 . S
N280 H286 0.984 . S
N280 H287 0.984 . S
N281 C274 1.356 . S
N281 H284 0.984 . S
N281 H285 0.985 . S
H282 N277 0.984 . S
H283 N277 0.985 1_565 S
H284 N281 0.984 . S
H285 N281 0.985 . S
H286 N280 0.984 . S
H287 N280 0.984 . S
H288 N276 0.984 . S
H289 N276 0.985 . S
C290 C291 1.363 . S
C290 C296 1.379 1_455 S
C290 N298 1.356 . S
C291 C290 1.363 . S
C291 C297 1.363 . S
C292 C293 1.363 . S
C292 C297 1.379 . S
C292 N299 1.356 . S
C293 C292 1.363 . S
C293 C296 1.363 1_455 S
N294 C296 1.356 . S
N294 H306 0.984 . S
N294 H307 0.985 . S
N295 C297 1.356 . S
N295 H300 0.984 . S
N295 H301 0.985 . S
C296 C290 1.379 1_655 S
C296 C293 1.363 1_655 S
C296 N294 1.356 . S
C297 C291 1.363 . S
C297 C292 1.379 . S
C297 N295 1.356 . S
N298 C290 1.356 . S
N298 H304 0.984 1_455 S
N298 H305 0.984 . S
N299 C292 1.356 . S
N299 H302 0.984 . S
N299 H303 0.985 . S
H300 N295 0.984 . S
H301 N295 0.985 . S
H302 N299 0.984 . S
H303 N299 0.985 . S
H304 N298 0.984 1_655 S
H305 N298 0.984 . S
H306 N294 0.984 . S
H307 N294 0.985 . S
C308 C309 1.363 1_554 S
C308 C314 1.379 1_655 S
C308 N316 1.356 . S
C309 C308 1.363 1_556 S
C309 C315 1.363 1_655 S
C310 C311 1.363 . S
C310 C315 1.379 . S
C310 N317 1.356 . S
C311 C310 1.363 . S
C311 C314 1.363 1_556 S
N312 C314 1.356 . S
N312 H324 0.984 . S
N312 H325 0.985 . S
N313 C315 1.356 . S
N313 H318 0.984 1_455 S
N313 H319 0.985 . S
C314 C308 1.379 1_455 S
C314 C311 1.363 1_554 S
C314 N312 1.356 . S
C315 C309 1.363 1_455 S
C315 C310 1.379 . S
C315 N313 1.356 . S
N316 C308 1.356 . S
N316 H322 0.984 . S
N316 H323 0.984 . S
N317 C310 1.356 . S
N317 H320 0.984 . S
N317 H321 0.985 . S
H318 N313 0.984 1_655 S
H319 N313 0.985 . S
H320 N317 0.984 . S
H321 N317 0.985 . S
H322 N316 0.984 . S
H323 N316 0.984 . S
H324 N312 0.984 . S
H325 N312 0.985 . S
C326 C327 1.363 1_556 S
C326 C332 1.379 1_565 S
C326 N334 1.356 . S
C327 C326 1.363 1_554 S
C327 C333 1.363 1_565 S
C328 C329 1.363 . S
C328 C333 1.379 . S
C328 N335 1.356 . S
C329 C328 1.363 . S
C329 C332 1.363 1_554 S
N330 C332 1.356 . S
N330 H342 0.984 . S
N330 H343 0.985 . S
N331 C333 1.356 . S
N331 H336 0.984 1_545 S
N331 H337 0.985 . S
C332 C326 1.379 1_545 S
C332 C329 1.363 1_556 S
C332 N330 1.356 . S
C333 C327 1.363 1_545 S
C333 C328 1.379 . S
C333 N331 1.356 . S
N334 C326 1.356 . S
N334 H340 0.984 . S
N334 H341 0.984 . S
N335 C328 1.356 . S
N335 H338 0.984 . S
N335 H339 0.985 . S
H336 N331 0.984 1_565 S
H337 N331 0.985 . S
H338 N335 0.984 . S
H339 N335 0.985 . S
H340 N334 0.984 . S
H341 N334 0.984 . S
H342 N330 0.984 . S
H343 N330 0.985 . S
C344 C345 1.363 . S
C344 C350 1.379 . S
C344 N352 1.356 . S
C345 C344 1.363 . S
C345 C351 1.363 . S
C346 C347 1.363 . S
C346 C351 1.379 . S
C346 N353 1.356 . S
C347 C346 1.363 . S
C347 C350 1.363 . S
N348 C350 1.356 . S
N348 H360 0.984 . S
N348 H361 0.985 . S
N349 C351 1.356 . S
N349 H354 0.984 . S
N349 H355 0.985 . S
C350 C344 1.379 . S
C350 C347 1.363 . S
C350 N348 1.356 . S
C351 C345 1.363 . S
C351 C346 1.379 . S
C351 N349 1.356 . S
N352 C344 1.356 . S
N352 H358 0.984 . S
N352 H359 0.984 . S
N353 C346 1.356 . S
N353 H356 0.984 . S
N353 H357 0.985 . S
H354 N349 0.984 . S
H355 N349 0.985 . S
H356 N353 0.984 . S
H357 N353 0.985 . S
H358 N352 0.984 . S
H359 N352 0.984 . S
H360 N348 0.984 . S
H361 N348 0.985 . S
C362 C363 1.363 . S
C362 C368 1.379 . S
C362 N370 1.356 . S
C363 C362 1.363 . S
C363 C369 1.363 . S
C364 C365 1.363 . S
C364 C369 1.379 . S
C364 N371 1.356 . S
C365 C364 1.363 . S
C365 C368 1.363 . S
N366 C368 1.356 . S
N366 H378 0.984 . S
N366 H379 0.985 . S
N367 C369 1.356 . S
N367 H372 0.984 . S
N367 H373 0.985 . S
C368 C362 1.379 . S
C368 C365 1.363 . S
C368 N366 1.356 . S
C369 C363 1.363 . S
C369 C364 1.379 . S
C369 N367 1.356 . S
N370 C362 1.356 . S
N370 H376 0.984 . S
N370 H377 0.984 . S
N371 C364 1.356 . S
N371 H374 0.984 . S
N371 H375 0.985 . S
H372 N367 0.984 . S
H373 N367 0.985 . S
H374 N371 0.984 . S
H375 N371 0.985 . S
H376 N370 0.984 . S
H377 N370 0.984 . S
H378 N366 0.984 . S
H379 N366 0.985 . S
C380 C381 1.363 . S
C380 C386 1.379 . S
C380 N388 1.356 . S
C381 C380 1.363 . S
C381 C387 1.363 . S
C382 C383 1.363 . S
C382 C387 1.379 . S
C382 N389 1.356 . S
C383 C382 1.363 . S
C383 C386 1.363 . S
N384 C386 1.356 . S
N384 H396 0.984 . S
N384 H397 0.985 . S
N385 C387 1.356 . S
N385 H390 0.984 . S
N385 H391 0.985 . S
C386 C380 1.379 . S
C386 C383 1.363 . S
C386 N384 1.356 . S
C387 C381 1.363 . S
C387 C382 1.379 . S
C387 N385 1.356 . S
N388 C380 1.356 . S
N388 H394 0.984 . S
N388 H395 0.984 . S
N389 C382 1.356 . S
N389 H392 0.984 . S
N389 H393 0.985 . S
H390 N385 0.984 . S
H391 N385 0.985 . S
H392 N389 0.984 . S
H393 N389 0.985 . S
H394 N388 0.984 . S
H395 N388 0.984 . S
H396 N384 0.984 . S
H397 N384 0.985 . S
C398 C399 1.363 . S
C398 C404 1.379 . S
C398 N406 1.356 . S
C399 C398 1.363 . S
C399 C405 1.363 . S
C400 C401 1.363 . S
C400 C405 1.379 . S
C400 N407 1.356 . S
C401 C400 1.363 . S
C401 C404 1.363 . S
N402 C404 1.356 . S
N402 H414 0.984 . S
N402 H415 0.985 . S
N403 C405 1.356 . S
N403 H408 0.984 . S
N403 H409 0.985 . S
C404 C398 1.379 . S
C404 C401 1.363 . S
C404 N402 1.356 . S
C405 C399 1.363 . S
C405 C400 1.379 . S
C405 N403 1.356 . S
N406 C398 1.356 . S
N406 H412 0.984 . S
N406 H413 0.984 . S
N407 C400 1.356 . S
N407 H410 0.984 . S
N407 H411 0.985 . S
H408 N403 0.984 . S
H409 N403 0.985 . S
H410 N407 0.984 . S
H411 N407 0.985 . S
H412 N406 0.984 . S
H413 N406 0.984 . S
H414 N402 0.984 . S
H415 N402 0.985 . S
C416 C417 1.363 1_556 S
C416 C422 1.379 . S
C416 N424 1.356 . S
C417 C416 1.363 1_554 S
C417 C423 1.363 . S
C418 C419 1.363 1_554 S
C418 C423 1.379 . S
C418 N425 1.356 . S
C419 C418 1.363 1_556 S
C419 C422 1.363 . S
N420 C422 1.356 . S
N420 H432 0.984 . S
N420 H433 0.985 . S
N421 C423 1.356 . S
N421 H426 0.984 . S
N421 H427 0.985 . S
C422 C416 1.379 . S
C422 C419 1.363 . S
C422 N420 1.356 . S
C423 C417 1.363 . S
C423 C418 1.379 . S
C423 N421 1.356 . S
N424 C416 1.356 . S
N424 H430 0.984 . S
N424 H431 0.984 . S
N425 C418 1.356 . S
N425 H428 0.984 . S
N425 H429 0.985 . S
H426 N421 0.984 . S
H427 N421 0.985 . S
H428 N425 0.984 . S
H429 N425 0.985 . S
H430 N424 0.984 . S
H431 N424 0.984 . S
H432 N420 0.984 . S
H433 N420 0.985 . S
C434 C435 1.361 1_556 S
C434 C440 1.380 . S
C434 N442 1.356 1_556 S
C435 C434 1.361 1_554 S
C435 C441 1.363 . S
C436 C437 1.361 1_554 S
C436 C441 1.380 . S
C436 N443 1.356 1_554 S
C437 C436 1.361 1_556 S
C437 C440 1.363 . S
N438 C440 1.356 . S
N438 H450 0.984 . S
N438 H451 0.985 . S
N439 C441 1.356 . S
N439 H444 0.984 . S
N439 H445 0.985 . S
C440 C434 1.380 . S
C440 C437 1.363 . S
C440 N438 1.356 . S
C441 C435 1.363 . S
C441 C436 1.380 . S
C441 N439 1.356 . S
N442 C434 1.356 1_554 S
N442 H448 0.984 1_554 S
N442 H449 0.984 . S
N443 C436 1.356 1_556 S
N443 H446 0.984 . S
N443 H447 0.985 1_556 S
H444 N439 0.984 . S
H445 N439 0.985 . S
H446 N443 0.984 . S
H447 N443 0.985 1_554 S
H448 N442 0.984 1_556 S
H449 N442 0.984 . S
H450 N438 0.984 . S
H451 N438 0.985 . S
C452 C453 1.363 . S
C452 C458 1.379 . S
C452 N460 1.356 . S
C453 C452 1.363 . S
C453 C459 1.363 1_554 S
C454 C455 1.363 . S
C454 C459 1.379 . S
C454 N461 1.356 . S
C455 C454 1.363 . S
C455 C458 1.363 1_556 S
N456 C458 1.356 . S
N456 H468 0.984 . S
N456 H469 0.985 . S
N457 C459 1.356 . S
N457 H462 0.984 . S
N457 H463 0.985 . S
C458 C452 1.379 . S
C458 C455 1.363 1_554 S
C458 N456 1.356 . S
C459 C453 1.363 1_556 S
C459 C454 1.379 . S
C459 N457 1.356 . S
N460 C452 1.356 . S
N460 H466 0.984 . S
N460 H467 0.984 . S
N461 C454 1.356 . S
N461 H464 0.984 . S
N461 H465 0.985 . S
H462 N457 0.984 . S
H463 N457 0.985 . S
H464 N461 0.984 . S
H465 N461 0.985 . S
H466 N460 0.984 . S
H467 N460 0.984 . S
H468 N456 0.984 . S
H469 N456 0.985 . S
C470 C471 1.363 1_556 S
C470 C476 1.379 . S
C470 N478 1.356 . S
C471 C470 1.363 1_554 S
C471 C477 1.363 . S
C472 C473 1.363 1_554 S
C472 C477 1.379 . S
C472 N479 1.356 . S
C473 C472 1.363 1_556 S
C473 C476 1.363 . S
N474 C476 1.356 . S
N474 H486 0.984 . S
N474 H487 0.985 . S
N475 C477 1.356 . S
N475 H480 0.984 . S
N475 H481 0.985 . S
C476 C470 1.379 . S
C476 C473 1.363 . S
C476 N474 1.356 . S
C477 C471 1.363 . S
C477 C472 1.379 . S
C477 N475 1.356 . S
N478 C470 1.356 . S
N478 H484 0.984 . S
N478 H485 0.982 1_556 S
N479 C472 1.356 . S
N479 H482 0.982 1_554 S
N479 H483 0.985 . S
H480 N475 0.984 . S
H481 N475 0.985 . S
H482 N479 0.982 1_556 S
H483 N479 0.985 . S
H484 N478 0.984 . S
H485 N478 0.982 1_554 S
H486 N474 0.984 . S
H487 N474 0.985 . S
C488 C489 1.363 . S
C488 C494 1.379 . S
C488 N496 1.356 . S
C489 C488 1.363 . S
C489 C495 1.363 . S
C490 C491 1.363 . S
C490 C495 1.379 . S
C490 N497 1.356 . S
C491 C490 1.363 . S
C491 C494 1.363 . S
N492 C494 1.356 . S
N492 H504 0.984 . S
N492 H505 0.985 . S
N493 C495 1.356 . S
N493 H498 0.984 . S
N493 H499 0.985 . S
C494 C488 1.379 . S
C494 C491 1.363 . S
C494 N492 1.356 . S
C495 C489 1.363 . S
C495 C490 1.379 . S
C495 N493 1.356 . S
N496 C488 1.356 . S
N496 H502 0.984 . S
N496 H503 0.984 . S
N497 C490 1.356 . S
N497 H500 0.984 . S
N497 H501 0.985 . S
H498 N493 0.984 . S
H499 N493 0.985 . S
H500 N497 0.984 . S
H501 N497 0.985 . S
H502 N496 0.984 . S
H503 N496 0.984 . S
H504 N492 0.984 . S
H505 N492 0.985 . S
C506 C507 1.363 . S
C506 C512 1.379 . S
C506 N514 1.356 . S
C507 C506 1.363 . S
C507 C513 1.363 . S
C508 C509 1.363 . S
C508 C513 1.379 . S
C508 N515 1.356 . S
C509 C508 1.363 . S
C509 C512 1.363 . S
N510 C512 1.356 . S
N510 H522 0.984 . S
N510 H523 0.985 . S
N511 C513 1.356 . S
N511 H516 0.984 . S
N511 H517 0.985 . S
C512 C506 1.379 . S
C512 C509 1.363 . S
C512 N510 1.356 . S
C513 C507 1.363 . S
C513 C508 1.379 . S
C513 N511 1.356 . S
N514 C506 1.356 . S
N514 H520 0.984 . S
N514 H521 0.984 . S
N515 C508 1.356 . S
N515 H518 0.984 . S
N515 H519 0.985 . S
H516 N511 0.984 . S
H517 N511 0.985 . S
H518 N515 0.984 . S
H519 N515 0.985 . S
H520 N514 0.984 . S
H521 N514 0.984 . S
H522 N510 0.984 . S
H523 N510 0.985 . S
C524 C525 1.363 . S
C524 C530 1.379 . S
C524 N532 1.356 . S
C525 C524 1.363 . S
C525 C531 1.363 . S
C526 C527 1.363 . S
C526 C531 1.379 . S
C526 N533 1.356 . S
C527 C526 1.363 . S
C527 C530 1.363 . S
N528 C530 1.356 . S
N528 H540 0.984 . S
N528 H541 0.985 . S
N529 C531 1.356 . S
N529 H534 0.984 . S
N529 H535 0.985 . S
C530 C524 1.379 . S
C530 C527 1.363 . S
C530 N528 1.356 . S
C531 C525 1.363 . S
C531 C526 1.379 . S
C531 N529 1.356 . S
N532 C524 1.356 . S
N532 H538 0.984 . S
N532 H539 0.984 . S
N533 C526 1.356 . S
N533 H536 0.984 . S
N533 H537 0.985 . S
H534 N529 0.984 . S
H535 N529 0.985 . S
H536 N533 0.984 . S
H537 N533 0.985 . S
H538 N532 0.984 . S
H539 N532 0.984 . S
H540 N528 0.984 . S
H541 N528 0.985 . S
C542 C543 1.363 . S
C542 C548 1.379 . S
C542 N550 1.356 . S
C543 C542 1.363 . S
C543 C549 1.363 . S
C544 C545 1.363 . S
C544 C549 1.379 . S
C544 N551 1.356 . S
C545 C544 1.363 . S
C545 C548 1.363 . S
N546 C548 1.356 . S
N546 H558 0.984 . S
N546 H559 0.985 . S
N547 C549 1.356 . S
N547 H552 0.984 . S
N547 H553 0.985 . S
C548 C542 1.379 . S
C548 C545 1.363 . S
C548 N546 1.356 . S
C549 C543 1.363 . S
C549 C544 1.379 . S
C549 N547 1.356 . S
N550 C542 1.356 . S
N550 H556 0.984 . S
N550 H557 0.984 . S
N551 C544 1.356 . S
N551 H554 0.984 . S
N551 H555 0.985 . S
H552 N547 0.984 . S
H553 N547 0.985 . S
H554 N551 0.984 . S
H555 N551 0.985 . S
H556 N550 0.984 . S
H557 N550 0.984 . S
H558 N546 0.984 . S
H559 N546 0.985 . S
C560 C561 1.363 . S
C560 C566 1.379 . S
C560 N568 1.356 . S
C561 C560 1.363 . S
C561 C567 1.363 . S
C562 C563 1.363 . S
C562 C567 1.379 . S
C562 N569 1.356 . S
C563 C562 1.363 . S
C563 C566 1.363 . S
N564 C566 1.356 . S
N564 H576 0.984 . S
N564 H577 0.985 . S
N565 C567 1.356 . S
N565 H570 0.984 . S
N565 H571 0.985 . S
C566 C560 1.379 . S
C566 C563 1.363 . S
C566 N564 1.356 . S
C567 C561 1.363 . S
C567 C562 1.379 . S
C567 N565 1.356 . S
N568 C560 1.356 . S
N568 H574 0.984 . S
N568 H575 0.984 . S
N569 C562 1.356 . S
N569 H572 0.984 . S
N569 H573 0.985 . S
H570 N565 0.984 . S
H571 N565 0.985 . S
H572 N569 0.984 . S
H573 N569 0.985 . S
H574 N568 0.984 . S
H575 N568 0.984 . S
H576 N564 0.984 . S
H577 N564 0.985 . S
C578 C579 1.363 . S
C578 C584 1.379 . S
C578 N586 1.356 . S
C579 C578 1.363 . S
C579 C585 1.363 . S
C580 C581 1.363 . S
C580 C585 1.379 . S
C580 N587 1.356 . S
C581 C580 1.363 . S
C581 C584 1.363 . S
N582 C584 1.356 . S
N582 H594 0.984 . S
N582 H595 0.985 . S
N583 C585 1.356 . S
N583 H588 0.984 . S
N583 H589 0.985 . S
C584 C578 1.379 . S
C584 C581 1.363 . S
C584 N582 1.356 . S
C585 C579 1.363 . S
C585 C580 1.379 . S
C585 N583 1.356 . S
N586 C578 1.356 . S
N586 H592 0.984 . S
N586 H593 0.984 . S
N587 C580 1.356 . S
N587 H590 0.984 . S
N587 H591 0.985 . S
H588 N583 0.984 . S
H589 N583 0.985 . S
H590 N587 0.984 . S
H591 N587 0.985 . S
H592 N586 0.984 . S
H593 N586 0.984 . S
H594 N582 0.984 . S
H595 N582 0.985 . S
C596 C597 1.363 . S
C596 C602 1.379 . S
C596 N604 1.365 . S
C597 C596 1.363 . S
C597 C603 1.363 . S
C598 C599 1.363 . S
C598 C603 1.379 . S
C598 N605 1.356 . S
C599 C598 1.363 . S
C599 C602 1.363 . S
N600 C602 1.356 . S
N600 H612 0.984 . S
N600 H613 0.985 . S
N601 C603 1.356 . S
N601 H606 0.984 . S
N601 H607 0.985 . S
C602 C596 1.379 . S
C602 C599 1.363 . S
C602 N600 1.356 . S
C603 C597 1.363 . S
C603 C598 1.379 . S
C603 N601 1.356 . S
N604 C596 1.365 . S
N604 H610 0.975 1_565 S
N604 H611 0.985 1_565 S
N605 C598 1.356 . S
N605 H608 0.984 . S
N605 H609 0.985 . S
H606 N601 0.984 . S
H607 N601 0.985 . S
H608 N605 0.984 . S
H609 N605 0.985 . S
H610 N604 0.975 1_545 S
H611 N604 0.985 1_545 S
H612 N600 0.984 . S
H613 N600 0.985 . S
C614 C615 1.363 . S
C614 C620 1.379 . S
C614 N622 1.356 . S
C615 C614 1.363 . S
C615 C621 1.363 . S
C616 C617 1.363 . S
C616 C621 1.379 . S
C616 N623 1.356 . S
C617 C616 1.363 . S
C617 C620 1.363 . S
N618 C620 1.356 . S
N618 H630 0.984 . S
N618 H631 0.985 . S
N619 C621 1.356 . S
N619 H624 0.984 . S
N619 H625 0.985 . S
C620 C614 1.379 . S
C620 C617 1.363 . S
C620 N618 1.356 . S
C621 C615 1.363 . S
C621 C616 1.379 . S
C621 N619 1.356 . S
N622 C614 1.356 . S
N622 H628 0.984 . S
N622 H629 0.984 . S
N623 C616 1.356 . S
N623 H626 0.984 . S
N623 H627 0.985 . S
H624 N619 0.984 . S
H625 N619 0.985 . S
H626 N623 0.984 . S
H627 N623 0.985 . S
H628 N622 0.984 . S
H629 N622 0.984 . S
H630 N618 0.984 . S
H631 N618 0.985 . S
C273 C101 1.406 . S
C275 C33 1.406 1_545 S
C291 C67 1.406 . S
C293 C135 1.406 1_455 S
C309 C169 1.405 . S
C311 C237 1.405 . S
C327 C271 1.406 . S
C329 C203 1.406 . S
C345 C122 1.554 . S
C347 C20 1.554 . S
C363 C9 1.921 . S
C365 C43 1.921 . S
C381 C88 1.553 . S
C383 C54 1.553 . S
C399 C77 1.921 . S
C401 C111 1.921 . S
C417 C258 1.554 . S
C419 C156 1.554 . S
C435 C145 1.921 . S
C437 C179 1.921 . S
C453 C190 1.553 . S
C455 C224 1.553 . S
C471 C213 1.921 . S
C473 C247 1.921 . S
C489 C5 0.768 . S
C491 C175 0.768 . S
C507 C36 1.549 . S
C509 C206 1.549 . S
C525 C73 0.768 . S
C527 C243 0.768 . S
C543 C104 1.549 . S
C545 C138 1.549 . S
C561 C70 1.549 . S
C563 C172 1.549 . S
C579 C107 0.768 . S
C581 C209 0.768 . S
C597 C2 1.549 . S
C599 C240 1.549 . S
C615 C39 0.768 . S
C617 C141 0.768 . S
