# Generated by pormake.
# Topology wmc, (6)-cn, num edge types: 1
# Building blocks:
#     Node 0, Type 0, BuildingBlock: FUNLAD_clean_sbu_0, # of connection points: 6
#     Node 1, Type 0, BuildingBlock: FUNLAD_clean_sbu_0, # of connection points: 6
#     Node 2, Type 0, BuildingBlock: FUNLAD_clean_sbu_0, # of connection points: 6
#     Node 3, Type 0, BuildingBlock: FUNLAD_clean_sbu_0, # of connection points: 6
#     Node 4, Type 0, BuildingBlock: FUNLAD_clean_sbu_0, # of connection points: 6
#     Node 5, Type 0, BuildingBlock: FUNLAD_clean_sbu_0, # of connection points: 6
#     Node 6, Type 0, BuildingBlock: FUNLAD_clean_sbu_0, # of connection points: 6
#     Node 7, Type 0, BuildingBlock: FUNLAD_clean_sbu_0, # of connection points: 6
#     Node 8, Type 0, BuildingBlock: FUNLAD_clean_sbu_0, # of connection points: 6
#     Node 9, Type 0, BuildingBlock: FUNLAD_clean_sbu_0, # of connection points: 6
#     Node 10, Type 0, BuildingBlock: FUNLAD_clean_sbu_0, # of connection points: 6
#     Node 11, Type 0, BuildingBlock: FUNLAD_clean_sbu_0, # of connection points: 6
#     Node 12, Type 0, BuildingBlock: FUNLAD_clean_sbu_0, # of connection points: 6
#     Node 13, Type 0, BuildingBlock: FUNLAD_clean_sbu_0, # of connection points: 6
#     Node 14, Type 0, BuildingBlock: FUNLAD_clean_sbu_0, # of connection points: 6
#     Node 15, Type 0, BuildingBlock: FUNLAD_clean_sbu_0, # of connection points: 6
#     Node 16, Type 0, BuildingBlock: FUNLAD_clean_sbu_0, # of connection points: 6
#     Node 17, Type 0, BuildingBlock: FUNLAD_clean_sbu_0, # of connection points: 6
#     Edge 18, Type (0, 0), BuildingBlock: CIFDUS_clean_linker_0, # of connection points: 2
#     Edge 19, Type (0, 0), BuildingBlock: CIFDUS_clean_linker_0, # of connection points: 2
#     Edge 20, Type (0, 0), BuildingBlock: CIFDUS_clean_linker_0, # of connection points: 2
#     Edge 21, Type (0, 0), BuildingBlock: CIFDUS_clean_linker_0, # of connection points: 2
#     Edge 22, Type (0, 0), BuildingBlock: CIFDUS_clean_linker_0, # of connection points: 2
#     Edge 23, Type (0, 0), BuildingBlock: CIFDUS_clean_linker_0, # of connection points: 2
#     Edge 24, Type (0, 0), BuildingBlock: CIFDUS_clean_linker_0, # of connection points: 2
#     Edge 25, Type (0, 0), BuildingBlock: CIFDUS_clean_linker_0, # of connection points: 2
#     Edge 26, Type (0, 0), BuildingBlock: CIFDUS_clean_linker_0, # of connection points: 2
#     Edge 27, Type (0, 0), BuildingBlock: CIFDUS_clean_linker_0, # of connection points: 2
#     Edge 28, Type (0, 0), BuildingBlock: CIFDUS_clean_linker_0, # of connection points: 2
#     Edge 29, Type (0, 0), BuildingBlock: CIFDUS_clean_linker_0, # of connection points: 2
#     Edge 30, Type (0, 0), BuildingBlock: CIFDUS_clean_linker_0, # of connection points: 2
#     Edge 31, Type (0, 0), BuildingBlock: CIFDUS_clean_linker_0, # of connection points: 2
#     Edge 32, Type (0, 0), BuildingBlock: CIFDUS_clean_linker_0, # of connection points: 2
#     Edge 33, Type (0, 0), BuildingBlock: CIFDUS_clean_linker_0, # of connection points: 2
#     Edge 34, Type (0, 0), BuildingBlock: CIFDUS_clean_linker_0, # of connection points: 2
#     Edge 35, Type (0, 0), BuildingBlock: CIFDUS_clean_linker_0, # of connection points: 2
#     Edge 36, Type (0, 0), BuildingBlock: CIFDUS_clean_linker_0, # of connection points: 2
#     Edge 37, Type (0, 0), BuildingBlock: CIFDUS_clean_linker_0, # of connection points: 2
#     Edge 38, Type (0, 0), BuildingBlock: CIFDUS_clean_linker_0, # of connection points: 2
#     Edge 39, Type (0, 0), BuildingBlock: CIFDUS_clean_linker_0, # of connection points: 2
#     Edge 40, Type (0, 0), BuildingBlock: CIFDUS_clean_linker_0, # of connection points: 2
#     Edge 41, Type (0, 0), BuildingBlock: CIFDUS_clean_linker_0, # of connection points: 2
#     Edge 42, Type (0, 0), BuildingBlock: CIFDUS_clean_linker_0, # of connection points: 2
#     Edge 43, Type (0, 0), BuildingBlock: CIFDUS_clean_linker_0, # of connection points: 2
#     Edge 44, Type (0, 0), BuildingBlock: CIFDUS_clean_linker_0, # of connection points: 2
#     Edge 45, Type (0, 0), BuildingBlock: CIFDUS_clean_linker_0, # of connection points: 2
#     Edge 46, Type (0, 0), BuildingBlock: CIFDUS_clean_linker_0, # of connection points: 2
#     Edge 47, Type (0, 0), BuildingBlock: CIFDUS_clean_linker_0, # of connection points: 2
#     Edge 48, Type (0, 0), BuildingBlock: CIFDUS_clean_linker_0, # of connection points: 2
#     Edge 49, Type (0, 0), BuildingBlock: CIFDUS_clean_linker_0, # of connection points: 2
#     Edge 50, Type (0, 0), BuildingBlock: CIFDUS_clean_linker_0, # of connection points: 2
#     Edge 51, Type (0, 0), BuildingBlock: CIFDUS_clean_linker_0, # of connection points: 2
#     Edge 52, Type (0, 0), BuildingBlock: CIFDUS_clean_linker_0, # of connection points: 2
#     Edge 53, Type (0, 0), BuildingBlock: CIFDUS_clean_linker_0, # of connection points: 2
#     Edge 54, Type (0, 0), BuildingBlock: CIFDUS_clean_linker_0, # of connection points: 2
#     Edge 55, Type (0, 0), BuildingBlock: CIFDUS_clean_linker_0, # of connection points: 2
#     Edge 56, Type (0, 0), BuildingBlock: CIFDUS_clean_linker_0, # of connection points: 2
#     Edge 57, Type (0, 0), BuildingBlock: CIFDUS_clean_linker_0, # of connection points: 2
#     Edge 58, Type (0, 0), BuildingBlock: CIFDUS_clean_linker_0, # of connection points: 2
#     Edge 59, Type (0, 0), BuildingBlock: CIFDUS_clean_linker_0, # of connection points: 2
#     Edge 60, Type (0, 0), BuildingBlock: CIFDUS_clean_linker_0, # of connection points: 2
#     Edge 61, Type (0, 0), BuildingBlock: CIFDUS_clean_linker_0, # of connection points: 2
#     Edge 62, Type (0, 0), BuildingBlock: CIFDUS_clean_linker_0, # of connection points: 2
#     Edge 63, Type (0, 0), BuildingBlock: CIFDUS_clean_linker_0, # of connection points: 2
#     Edge 64, Type (0, 0), BuildingBlock: CIFDUS_clean_linker_0, # of connection points: 2
#     Edge 65, Type (0, 0), BuildingBlock: CIFDUS_clean_linker_0, # of connection points: 2
#     Edge 66, Type (0, 0), BuildingBlock: CIFDUS_clean_linker_0, # of connection points: 2
#     Edge 67, Type (0, 0), BuildingBlock: CIFDUS_clean_linker_0, # of connection points: 2
#     Edge 68, Type (0, 0), BuildingBlock: CIFDUS_clean_linker_0, # of connection points: 2
#     Edge 69, Type (0, 0), BuildingBlock: CIFDUS_clean_linker_0, # of connection points: 2
#     Edge 70, Type (0, 0), BuildingBlock: CIFDUS_clean_linker_0, # of connection points: 2
#     Edge 71, Type (0, 0), BuildingBlock: CIFDUS_clean_linker_0, # of connection points: 2
# Relax obj value: 0.578
# Max RMSD: 0.258
# Mean RMSD: 0.258
data_MOF--net-wmc--node1-FUNLAD_clean_sbu_0--edge1-CIFDUS_clean_linker_0
_symmetry_space_group_name_H-M    P1
_symmetry_Int_Tables_number       1
_symmetry_cell_setting            triclinic
loop_
_symmetry_equiv_pos_as_xyz
'x, y, z'
_cell_length_a     48.52486
_cell_length_b     48.517974
_cell_length_c     24.940357
_cell_angle_alpha  90.013459
_cell_angle_beta   89.879126
_cell_angle_gamma 120.08191
loop_
_atom_site_label
_atom_site_type_symbol
_atom_site_fract_x
_atom_site_fract_y
_atom_site_fract_z
_atom_type_partial_charge
C0 C 0.59018 0.12519 0.11464 0.0
N1 N 0.66322 0.19704 0.01826 0.0
C2 C 0.66431 0.22117 0.04769 0.0
C3 C 0.6926 0.25053 0.05078 0.0
C4 C 0.71999 0.25502 0.02344 0.0
C5 C 0.71805 0.22964 -0.00643 0.0
C6 C 0.68939 0.20087 -0.00858 0.0
Zn7 Zn 0.6231 0.15307 0.01241 0.0
C8 C 0.64628 0.10596 0.03509 0.0
N9 N 0.54465 0.05752 -0.00634 0.0
C10 C 0.51758 0.05553 0.01396 0.0
C11 C 0.54272 0.03571 0.95729 0.0
C12 C 0.51299 0.01236 0.93736 0.0
C13 C 0.48476 0.01176 0.95371 0.0
C14 C 0.48752 0.03311 -0.00569 0.0
Zn15 Zn 0.58632 0.1014 0.00435 0.0
O16 O 0.61221 0.15162 0.09604 0.0
C17 C 0.56706 0.15332 0.98709 0.0
O18 O 0.57627 0.10102 0.0845 0.0
H19 H 0.5643 0.03766 0.94095 0.0
H20 H 0.64325 0.21765 0.06868 0.0
H21 H 0.51927 0.07318 0.04229 0.0
O22 O 0.59586 0.17277 -0.00233 0.0
O23 O 0.55708 0.12349 0.98613 0.0
H24 H 0.68819 0.18142 0.96841 0.0
O25 O 0.59661 0.10207 0.92361 0.0
O26 O 0.63089 0.1533 0.92839 0.0
O27 O 0.61842 0.08241 0.02529 0.0
O28 O 0.65113 0.13388 0.02917 0.0
C29 C 0.61588 0.12803 0.9008 0.0
H30 H 0.69291 0.26961 0.07378 0.0
H31 H 0.73859 0.23179 0.97253 0.0
H32 H 0.51245 0.99583 0.90768 0.0
H33 H 0.46699 0.03416 0.00851 0.0
C34 C 0.89316 0.47564 0.10852 0.0
N35 N 0.83187 0.48741 0.00366 0.0
C36 C 0.80667 0.46244 0.02813 0.0
C37 C 0.77603 0.4573 0.02062 0.0
C38 C 0.77142 0.47823 0.98812 0.0
C39 C 0.79795 0.50508 0.9665 0.0
C40 C 0.82824 0.50914 0.97456 0.0
Zn41 Zn 0.8745 0.48891 0.00312 0.0
C42 C 0.92636 0.55503 0.02812 0.0
N43 N 0.96445 0.49106 -0.00357 0.0
C44 C 0.96331 0.46404 0.015 0.0
C45 C 0.98844 0.51119 0.96322 0.0
C46 C 1.01076 0.50316 0.94417 0.0
C47 C 1.00822 0.47379 0.95838 0.0
C48 C 0.98482 0.45488 -0.00369 0.0
Zn49 Zn 0.92253 0.49316 0.00248 0.0
O50 O 0.87149 0.47921 0.08653 0.0
C51 C 0.86658 0.42677 0.9815 0.0
O52 O 0.91752 0.4807 0.08176 0.0
H53 H 0.989 0.53241 0.94834 0.0
H54 H 0.81011 0.44556 0.05127 0.0
H55 H 0.94397 0.44801 0.04093 0.0
O56 O 0.85122 0.44103 0.98925 0.0
O57 O 0.89687 0.4424 0.98207 0.0
H58 H 0.84864 0.52877 0.95536 0.0
O59 O 0.92671 0.50516 0.92186 0.0
O60 O 0.87788 0.49674 0.91985 0.0
O61 O 0.94546 0.54399 0.02607 0.0
O62 O 0.89714 0.53687 0.01793 0.0
C63 C 0.90351 0.50334 0.89573 0.0
H64 H 0.75599 0.43649 0.03831 0.0
H65 H 0.79512 0.52161 0.94113 0.0
H66 H 0.02896 0.51927 0.91654 0.0
H67 H 0.98159 0.43208 0.00877 0.0
C68 C 0.54831 0.42464 0.10395 0.0
N69 N 0.53126 0.34741 0.00364 0.0
C70 C 0.55288 0.34467 0.03437 0.0
C71 C 0.55132 0.31529 0.03962 0.0
C72 C 0.52745 0.28853 0.01267 0.0
C73 C 0.50573 0.29208 0.98065 0.0
C74 C 0.50795 0.32186 0.97697 0.0
Zn75 Zn 0.53261 0.39013 -0.00097 0.0
C76 C 0.46764 0.37904 0.0264 0.0
N77 N 0.53358 0.47949 0.98975 0.0
C78 C 0.5607 0.50521 0.00846 0.0
C79 C 0.51357 0.48359 0.95689 0.0
C80 C 0.52166 0.51412 0.93874 0.0
C81 C 0.5509 0.54087 0.95374 0.0
C82 C 0.56984 0.53609 -0.00911 0.0
Zn83 Zn 0.52993 0.43495 -0.0024 0.0
O84 O 0.54487 0.39947 0.08173 0.0
C85 C 0.59483 0.44235 0.97246 0.0
O86 O 0.54242 0.44345 0.0776 0.0
H87 H 0.49228 0.46303 0.94194 0.0
H88 H 0.57131 0.36527 0.05501 0.0
H89 H 0.57663 0.50167 0.03404 0.0
O90 O 0.57975 0.41255 0.97997 0.0
O91 O 0.58028 0.45796 0.97685 0.0
H92 H 0.49082 0.32448 0.95311 0.0
O93 O 0.51825 0.42632 0.91655 0.0
O94 O 0.5225 0.38334 0.91621 0.0
O95 O 0.4791 0.40908 0.02032 0.0
O96 O 0.48513 0.367 0.01861 0.0
C97 C 0.51801 0.40355 0.89121 0.0
H98 H 0.56886 0.3136 0.06403 0.0
H99 H 0.48695 0.27197 0.95941 0.0
H100 H 0.50567 0.51648 0.91141 0.0
H101 H 0.59257 0.55566 0.0037 0.0
C102 C 0.9036 0.41694 0.39689 0.0
N103 N 0.96891 0.48566 0.50242 0.0
C104 C 0.98896 0.493 0.45956 0.0
C105 C 1.01189 0.52482 0.44829 0.0
C106 C 0.01484 0.54936 0.48203 0.0
C107 C 0.99547 0.54096 0.5278 0.0
C108 C 0.97238 0.50909 0.53684 0.0
Zn109 Zn 0.9251 0.4426 0.50516 0.0
C110 C 0.87286 0.4597 0.48755 0.0
N111 N 0.83058 0.36282 0.50303 0.0
C112 C 0.82623 0.33712 0.47409 0.0
C113 C 0.80583 0.36313 0.52808 0.0
C114 C 0.77503 0.3374 0.52261 0.0
C115 C 0.76981 0.31109 0.49154 0.0
C116 C 0.79587 0.31069 0.46818 0.0
Zn117 Zn 0.87452 0.40243 0.50429 0.0
O118 O 0.9277 0.43709 0.42297 0.0
C119 C 0.92248 0.38129 0.52313 0.0
O120 O 0.87782 0.39867 0.42125 0.0
H121 H 0.80984 0.38375 0.55096 0.0
H122 H 0.98607 0.47456 0.43199 0.0
H123 H 0.84619 0.33753 0.45403 0.0
O124 O 0.94474 0.41054 0.52099 0.0
O125 O 0.8939 0.37458 0.51745 0.0
H126 H 0.95581 0.5037 0.56946 0.0
O127 O 0.87113 0.40786 0.58738 0.0
O128 O 0.92072 0.44718 0.58691 0.0
O129 O 0.85483 0.42997 0.49143 0.0
O130 O 0.90293 0.47183 0.49092 0.0
C131 C 0.89472 0.43021 0.61178 0.0
H132 H 0.0267 0.53026 0.41287 0.0
H133 H 0.99685 0.55912 0.55477 0.0
H134 H 0.75539 0.33831 0.54153 0.0
H135 H 0.7926 0.29085 0.44364 0.0
C136 C 0.61064 0.4935 0.39266 0.0
N137 N 0.54243 0.48934 0.50094 0.0
C138 C 0.53561 0.50344 0.45967 0.0
C139 C 0.50406 0.49582 0.44959 0.0
C140 C 0.47933 0.47408 0.48298 0.0
C141 C 0.48719 0.46147 0.52698 0.0
C142 C 0.51874 0.46897 0.53473 0.0
Zn143 Zn 0.58502 0.48777 0.50225 0.0
C144 C 0.56557 0.41765 0.47618 0.0
N145 N 0.6633 0.47108 0.49752 0.0
C146 C 0.68881 0.49468 0.47101 0.0
C147 C 0.66611 0.44915 0.5273 0.0
C148 C 0.69573 0.45112 0.53254 0.0
C149 C 0.72264 0.47593 0.50697 0.0
C150 C 0.71876 0.49754 0.47518 0.0
Zn151 Zn 0.62262 0.47384 0.49813 0.0
O152 O 0.59124 0.49799 0.42013 0.0
C153 C 0.64577 0.54326 0.5285 0.0
O154 O 0.62819 0.48465 0.4157 0.0
H155 H 0.6456 0.4307 0.54827 0.0
H156 H 0.55424 0.51927 0.4325 0.0
H157 H 0.68629 0.51224 0.44824 0.0
O158 O 0.61755 0.5388 0.52305 0.0
O159 O 0.65042 0.52038 0.51885 0.0
H160 H 0.52359 0.45658 0.56586 0.0
O161 O 0.6146 0.46085 0.58069 0.0
O162 O 0.57929 0.47649 0.58328 0.0
O163 O 0.59507 0.42729 0.4785 0.0
O164 O 0.55539 0.43695 0.48439 0.0
C165 C 0.59358 0.4639 0.60627 0.0
H166 H 0.49897 0.50635 0.41549 0.0
H167 H 0.4688 0.44452 0.55355 0.0
H168 H 0.6976 0.43361 0.55676 0.0
H169 H 0.73886 0.51718 0.45524 0.0
C170 C 0.52151 0.12356 0.4022 0.0
N171 N 0.53706 0.06277 0.4999 0.0
C172 C 0.51608 0.03822 0.46859 0.0
C173 C 0.52331 0.01523 0.45012 0.0
C174 C 0.55268 0.01748 0.46311 0.0
C175 C 0.57286 0.04186 0.49848 0.0
C176 C 0.56457 0.06423 0.51641 0.0
Zn177 Zn 0.53247 0.10328 0.50922 0.0
C178 C 0.59614 0.16265 0.48656 0.0
N179 N 0.52925 0.1897 0.51619 0.0
C180 C 0.50585 0.19084 0.48793 0.0
C181 C 0.54961 0.21438 0.54782 0.0
C182 C 0.54695 0.24165 0.55162 0.0
C183 C 0.52331 0.24359 0.5222 0.0
C184 C 0.50257 0.21777 0.49011 0.0
Zn185 Zn 0.53248 0.14946 0.51101 0.0
O186 O 0.52177 0.10103 0.42766 0.0
C187 C 0.46833 0.09425 0.53533 0.0
O188 O 0.52394 0.14723 0.42794 0.0
H189 H 0.56805 0.21299 0.56986 0.0
H190 H 0.49448 0.03742 0.45532 0.0
H191 H 0.48965 0.17082 0.4635 0.0
O192 O 0.48103 0.07664 0.53157 0.0
O193 O 0.48515 0.12382 0.52716 0.0
H194 H 0.58124 0.08399 0.54086 0.0
O195 O 0.54335 0.15165 0.59433 0.0
O196 O 0.54462 0.10702 0.58925 0.0
O197 O 0.57965 0.17578 0.49477 0.0
O198 O 0.58301 0.13243 0.48948 0.0
C199 C 0.5486 0.13098 0.61611 0.0
H200 H 0.50641 0.99648 0.42421 0.0
H201 H 0.59573 0.04485 0.50974 0.0
H202 H 0.5637 0.26135 0.57621 0.0
H203 H 0.484 0.21839 0.46703 0.0
C204 C 0.26497 0.46836 0.45211 0.0
N205 N 0.33699 0.52857 0.34152 0.0
C206 C 0.356 0.53942 0.38554 0.0
C207 C 0.38616 0.56667 0.38242 0.0
C208 C 0.39766 0.58245 0.33294 0.0
C209 C 0.37729 0.57043 0.28827 0.0
C210 C 0.34685 0.54409 0.29378 0.0
Zn211 Zn 0.2952 0.48547 0.34414 0.0
C212 C 0.3119 0.43524 0.37214 0.0
N213 N 0.20926 0.39336 0.34751 0.0
C214 C 0.18362 0.39378 0.36929 0.0
C215 C 0.20511 0.36798 0.31786 0.0
C216 C 0.17438 0.34232 0.30809 0.0
C217 C 0.14755 0.34305 0.32785 0.0
C218 C 0.15252 0.36903 0.35938 0.0
Zn219 Zn 0.25276 0.43614 0.34809 0.0
O220 O 0.28731 0.49155 0.42652 0.0
C221 C 0.23918 0.48961 0.32356 0.0
O222 O 0.24851 0.44163 0.42911 0.0
H223 H 0.22553 0.36818 0.29994 0.0
H224 H 0.34807 0.52666 0.4231 0.0
H225 H 0.18709 0.41405 0.39264 0.0
O226 O 0.26922 0.50687 0.32299 0.0
O227 O 0.22629 0.46003 0.33355 0.0
H228 H 0.33152 0.53565 0.25913 0.0
O229 O 0.25646 0.43181 0.26582 0.0
O230 O 0.30013 0.47822 0.26191 0.0
O231 O 0.28243 0.41463 0.36513 0.0
O232 O 0.32149 0.46455 0.36591 0.0
C233 C 0.27838 0.4539 0.23825 0.0
H234 H 0.40009 0.57507 0.41871 0.0
H235 H 0.38463 0.58066 0.24872 0.0
H236 H 0.17154 0.32255 0.28383 0.0
H237 H 0.13253 0.37022 0.37614 0.0
C238 C 0.55763 0.80161 0.44507 0.0
N239 N 0.49852 0.81618 0.33729 0.0
C240 C 0.47201 0.78994 0.35594 0.0
C241 C 0.44202 0.78634 0.34718 0.0
C242 C 0.4394 0.81016 0.31965 0.0
C243 C 0.46713 0.83778 0.30351 0.0
C244 C 0.49666 0.84019 0.31236 0.0
Zn245 Zn 0.54143 0.81806 0.33981 0.0
C246 C 0.59147 0.88423 0.37077 0.0
N247 N 0.63287 0.82303 0.33827 0.0
C248 C 0.63186 0.79592 0.35606 0.0
C249 C 0.6591 0.84584 0.31215 0.0
C250 C 0.68516 0.84147 0.30218 0.0
C251 C 0.68414 0.81312 0.31829 0.0
C252 C 0.6571 0.79036 0.34606 0.0
Zn253 Zn 0.59017 0.82379 0.34026 0.0
O254 O 0.53556 0.80445 0.42272 0.0
C255 C 0.53603 0.75812 0.30934 0.0
O256 O 0.58298 0.80907 0.41926 0.0
H257 H 0.65938 0.86692 0.29727 0.0
H258 H 0.47403 0.77121 0.37578 0.0
H259 H 0.61084 0.77783 0.37643 0.0
O260 O 0.51984 0.77139 0.31859 0.0
O261 O 0.56615 0.77377 0.31487 0.0
H262 H 0.51799 0.86073 0.29737 0.0
O263 O 0.59648 0.83748 0.25979 0.0
O264 O 0.54767 0.82919 0.25704 0.0
O265 O 0.61153 0.8744 0.36711 0.0
O266 O 0.56247 0.86523 0.36053 0.0
C267 C 0.57338 0.83565 0.23316 0.0
H268 H 0.42099 0.76479 0.3605 0.0
H269 H 0.46588 0.85649 0.2819 0.0
H270 H 0.70555 0.85971 0.28057 0.0
H271 H 0.65548 0.76844 0.35994 0.0
C272 C 0.21891 0.75937 0.43859 0.0
N273 N 0.20547 0.68691 0.32849 0.0
C274 C 0.18545 0.66096 0.3583 0.0
C275 C 0.18356 0.63163 0.34911 0.0
C276 C 0.20306 0.62913 0.30977 0.0
C277 C 0.22422 0.6567 0.28112 0.0
C278 C 0.22458 0.68511 0.29035 0.0
Zn279 Zn 0.20452 0.72853 0.33265 0.0
C280 C 0.13883 0.71449 0.35948 0.0
N281 N 0.203 0.81671 0.33048 0.0
C282 C 0.22976 0.84213 0.35088 0.0
C283 C 0.18347 0.82131 0.29723 0.0
C284 C 0.19205 0.85204 0.27962 0.0
C285 C 0.22124 0.87845 0.29572 0.0
C286 C 0.23935 0.87323 0.33396 0.0
Zn287 Zn 0.20076 0.77268 0.33302 0.0
O288 O 0.21558 0.73435 0.4158 0.0
C289 C 0.26652 0.78322 0.30816 0.0
O290 O 0.21328 0.77853 0.41268 0.0
H291 H 0.16247 0.80099 0.28092 0.0
H292 H 0.17024 0.66271 0.38823 0.0
H293 H 0.24535 0.8382 0.37666 0.0
O294 O 0.25202 0.75358 0.31639 0.0
O295 O 0.25135 0.79823 0.3117 0.0
H296 H 0.23979 0.70558 0.2659 0.0
O297 O 0.18897 0.76643 0.25218 0.0
O298 O 0.19542 0.72483 0.24977 0.0
O299 O 0.14989 0.74461 0.35617 0.0
O300 O 0.15675 0.70316 0.34966 0.0
C301 C 0.19002 0.74468 0.22579 0.0
H302 H 0.16657 0.61114 0.372 0.0
H303 H 0.24056 0.65661 0.25162 0.0
H304 H 0.17671 0.85483 0.25137 0.0
H305 H 0.26197 0.89259 0.34768 0.0
C306 C 0.57097 0.74252 0.7329 0.0
N307 N 0.63312 0.81646 0.83535 0.0
C308 C 0.65403 0.82394 0.79375 0.0
C309 C 0.67641 0.85589 0.78203 0.0
C310 C 0.67778 0.88044 0.81394 0.0
C311 C 0.65716 0.87198 0.85806 0.0
C312 C 0.63477 0.83999 0.86759 0.0
Zn313 Zn 0.59096 0.772 0.84014 0.0
C314 C 0.53588 0.7828 0.81588 0.0
N315 N 0.49943 0.68697 0.84235 0.0
C316 C 0.49648 0.66052 0.81779 0.0
C317 C 0.47375 0.68714 0.86392 0.0
C318 C 0.44343 0.6606 0.85861 0.0
C319 C 0.4396 0.63354 0.83153 0.0
C320 C 0.46656 0.63323 0.81231 0.0
Zn321 Zn 0.54239 0.72825 0.84134 0.0
O322 O 0.59402 0.76475 0.75823 0.0
C323 C 0.59389 0.71348 0.86598 0.0
O324 O 0.54619 0.7225 0.75811 0.0
H325 H 0.47662 0.70831 0.88349 0.0
H326 H 0.65242 0.80537 0.76773 0.0
H327 H 0.51717 0.66095 0.80061 0.0
O328 O 0.61364 0.74342 0.86092 0.0
O329 O 0.56445 0.70295 0.85935 0.0
H330 H 0.61743 0.83446 0.89898 0.0
O331 O 0.53846 0.73632 0.92484 0.0
O332 O 0.5863 0.77845 0.92105 0.0
O333 O 0.52034 0.75301 0.82278 0.0
O334 O 0.56601 0.79774 0.82131 0.0
C335 C 0.56116 0.76067 0.9474 0.0
H336 H 0.69217 0.86138 0.74791 0.0
H337 H 0.65723 0.89012 0.88351 0.0
H338 H 0.42303 0.66151 0.87411 0.0
H339 H 0.46433 0.61278 0.79089 0.0
C340 C 0.27979 0.82965 0.72618 0.0
N341 N 0.20862 0.82107 0.83133 0.0
C342 C 0.20073 0.83396 0.78957 0.0
C343 C 0.16864 0.82388 0.77834 0.0
C344 C 0.14435 0.80074 0.81087 0.0
C345 C 0.15326 0.78935 0.85539 0.0
C346 C 0.18539 0.79948 0.86449 0.0
Zn347 Zn 0.25289 0.82288 0.83409 0.0
C348 C 0.23909 0.75482 0.8147 0.0
N349 N 0.33598 0.81378 0.832 0.0
C350 C 0.36153 0.83736 0.80547 0.0
C351 C 0.33682 0.7884 0.85318 0.0
C352 C 0.36358 0.78526 0.84565 0.0
C353 C 0.38974 0.80873 0.81691 0.0
C354 C 0.38899 0.83544 0.79791 0.0
Zn355 Zn 0.29498 0.8155 0.83392 0.0
O356 O 0.25895 0.83248 0.75234 0.0
C357 C 0.31216 0.88343 0.85652 0.0
O358 O 0.29872 0.82309 0.75049 0.0
H359 H 0.31632 0.77004 0.87427 0.0
H360 H 0.21904 0.85072 0.76286 0.0
H361 H 0.36025 0.85716 0.78837 0.0
O362 O 0.28236 0.87412 0.8536 0.0
O363 O 0.32148 0.86364 0.84873 0.0
H364 H 0.19125 0.78813 0.89611 0.0
O365 O 0.28915 0.80576 0.91766 0.0
O366 O 0.24779 0.81272 0.91474 0.0
O367 O 0.26887 0.76753 0.81992 0.0
O368 O 0.22601 0.77189 0.81763 0.0
C369 C 0.26546 0.8052 0.94077 0.0
H370 H 0.16287 0.83364 0.74395 0.0
H371 H 0.13538 0.77136 0.88138 0.0
H372 H 0.3636 0.76437 0.86095 0.0
H373 H 0.40874 0.85378 0.77522 0.0
C374 C 0.19231 0.45683 0.73823 0.0
N375 N 0.1995 0.39013 0.8356 0.0
C376 C 0.18764 0.37075 0.79185 0.0
C377 C 0.19697 0.34821 0.78019 0.0
C378 C 0.21829 0.34506 0.81428 0.0
C379 C 0.22904 0.36433 0.86011 0.0
C380 C 0.21976 0.38695 0.8696 0.0
Zn381 Zn 0.19666 0.43191 0.84392 0.0
C382 C 0.26429 0.489 0.83094 0.0
N383 N 0.20251 0.52297 0.85499 0.0
C384 C 0.18056 0.52635 0.82622 0.0
C385 C 0.22407 0.54692 0.88656 0.0
C386 C 0.22417 0.57571 0.88979 0.0
C387 C 0.20191 0.57992 0.86018 0.0
C388 C 0.17986 0.55474 0.82818 0.0
Zn389 Zn 0.20226 0.48079 0.8495 0.0
O390 O 0.19025 0.43275 0.76183 0.0
C391 C 0.13452 0.42787 0.86391 0.0
O392 O 0.19693 0.48098 0.76517 0.0
H393 H 0.24136 0.54377 0.90896 0.0
H394 H 0.17203 0.37362 0.76443 0.0
H395 H 0.16351 0.50698 0.80153 0.0
O396 O 0.14456 0.40808 0.85822 0.0
O397 O 0.15399 0.45743 0.86081 0.0
H398 H 0.23036 0.40311 0.90287 0.0
O399 O 0.20949 0.48004 0.93431 0.0
O400 O 0.20275 0.43188 0.92522 0.0
O401 O 0.24988 0.50435 0.83805 0.0
O402 O 0.24866 0.45861 0.83205 0.0
C403 C 0.20823 0.45534 0.95456 0.0
H404 H 0.18785 0.33358 0.74462 0.0
H405 H 0.24568 0.36292 0.88728 0.0
H406 H 0.24192 0.59471 0.91436 0.0
H407 H 0.16213 0.55688 0.80512 0.0
C408 C 0.92984 0.78658 0.78485 0.0
N409 N 1.00867 0.8568 0.69588 0.0
C410 C 1.01029 0.88031 0.72775 0.0
C411 C 0.03894 0.90906 0.73281 0.0
C412 C 0.06607 0.91361 0.7047 0.0
C413 C 0.06382 0.88867 0.67309 0.0
C414 C 0.03478 0.86036 0.66924 0.0
Zn415 Zn 0.96669 0.81552 0.68423 0.0
C416 C 0.9792 0.76142 0.69614 0.0
N417 N 0.87957 0.7272 0.65721 0.0
C418 C 0.85264 0.72527 0.67809 0.0
C419 C 0.87763 0.70495 0.62185 0.0
C420 C 0.8479 0.67984 0.60598 0.0
C421 C 0.81968 0.6775 0.62633 0.0
C422 C 0.8224 0.70066 0.66299 0.0
Zn423 Zn 0.92289 0.76812 0.67203 0.0
O424 O 0.95441 0.81171 0.76792 0.0
C425 C 0.9148 0.8266 0.66334 0.0
O426 O 0.91287 0.76424 0.75275 0.0
H427 H 0.89916 0.70711 0.60484 0.0
H428 H 0.98922 0.87699 0.74841 0.0
H429 H 0.8545 0.74329 0.70575 0.0
O430 O 0.9444 0.84047 0.67184 0.0
O431 O 0.89886 0.79623 0.66169 0.0
H432 H 0.03303 0.84134 0.64425 0.0
O433 O 0.93304 0.77197 0.59066 0.0
O434 O 0.9763 0.8186 0.60016 0.0
O435 O 0.9498 0.74279 0.68467 0.0
O436 O 0.99019 0.79112 0.69754 0.0
C437 C 0.95693 0.79596 0.57027 0.0
H438 H 0.03957 0.92788 0.75709 0.0
H439 H 0.08423 0.8911 0.65124 0.0
H440 H 0.84703 0.66267 0.57726 0.0
H441 H 0.8014 0.6996 0.68028 0.0
C442 C 0.22771 0.13864 0.78476 0.0
N443 N 0.16447 0.14853 0.67994 0.0
C444 C 0.13817 0.12298 0.70082 0.0
C445 C 0.10824 0.11998 0.69416 0.0
C446 C 0.10557 0.14376 0.66659 0.0
C447 C 0.13316 0.17068 0.6481 0.0
C448 C 0.16253 0.17245 0.65476 0.0
Zn449 Zn 0.20728 0.15007 0.67924 0.0
C450 C 0.25868 0.21772 0.70214 0.0
N451 N 0.29895 0.15585 0.67079 0.0
C452 C 0.29896 0.13005 0.69259 0.0
C453 C 0.3216 0.17451 0.63434 0.0
C454 C 0.34344 0.16588 0.61517 0.0
C455 C 0.34189 0.13752 0.63299 0.0
C456 C 0.32018 0.12042 0.6742 0.0
Zn457 Zn 0.25663 0.15713 0.67711 0.0
O458 O 0.20452 0.13953 0.76261 0.0
C459 C 0.20188 0.08942 0.65765 0.0
O460 O 0.25287 0.14637 0.75805 0.0
H461 H 0.32124 0.19474 0.61693 0.0
H462 H 0.14023 0.1043 0.72078 0.0
H463 H 0.28059 0.11508 0.72091 0.0
O464 O 0.18495 0.1022 0.66386 0.0
O465 O 0.23204 0.10634 0.66011 0.0
H466 H 0.18364 0.19237 0.63778 0.0
O467 O 0.25924 0.16689 0.59559 0.0
O468 O 0.21034 0.15832 0.59537 0.0
O469 O 0.27896 0.20836 0.69613 0.0
O470 O 0.22933 0.19815 0.69618 0.0
C471 C 0.23558 0.16451 0.57022 0.0
H472 H 0.08728 0.09889 0.70899 0.0
H473 H 0.13181 0.18925 0.62619 0.0
H474 H 0.36035 0.18052 0.58461 0.0
H475 H 0.31786 0.09846 0.6894 0.0
C476 C 0.88084 0.10223 0.78355 0.0
N477 N 0.87621 0.02415 0.69653 0.0
C478 C 0.90235 0.02624 0.7204 0.0
C479 C 0.90759 1.00047 0.71848 0.0
C480 C 0.88565 0.97237 0.69196 0.0
C481 C 0.85778 0.97007 0.67124 0.0
C482 C 0.85361 0.99647 0.67369 0.0
Zn483 Zn 0.87276 0.0639 0.68431 0.0
C484 C 0.80503 0.04699 0.69982 0.0
N485 N 0.86462 0.14689 0.65346 0.0
C486 C 0.88499 0.17443 0.67943 0.0
C487 C 0.84895 0.14763 0.60888 0.0
C488 C 0.85522 0.17664 0.58666 0.0
C489 C 0.87681 0.20579 0.61154 0.0
C490 C 0.89097 0.20404 0.65975 0.0
Zn491 Zn 0.86577 0.10552 0.67087 0.0
O492 O 0.88353 0.07878 0.76696 0.0
C493 C 0.93348 0.11863 0.65724 0.0
O494 O 0.8722 0.11674 0.75156 0.0
H495 H 0.83292 0.12577 0.58829 0.0
H496 H 0.92 0.04844 0.73831 0.0
H497 H 0.89793 0.17373 0.71415 0.0
O498 O 0.91959 0.08908 0.66643 0.0
O499 O 0.91758 0.13304 0.65835 0.0
H500 H 0.83314 0.99537 0.65443 0.0
O501 O 0.85966 0.09392 0.58983 0.0
O502 O 0.86415 0.05158 0.60103 0.0
O503 O 0.81385 0.07552 0.68495 0.0
O504 O 0.82525 0.03791 0.70268 0.0
C505 C 0.86016 0.07013 0.5703 0.0
H506 H 0.92927 1.00297 0.73542 0.0
H507 H 0.84048 0.94892 0.65012 0.0
H508 H 0.84398 0.17571 0.54886 0.0
H509 H 0.90714 0.22522 0.68182 0.0
C510 C 0.24188 0.07758 0.07016 0.0
N511 N 0.30089 0.15172 0.17394 0.0
C512 C 0.32261 0.15958 0.13356 0.0
C513 C 0.34428 0.19166 0.1216 0.0
C514 C 0.34419 0.21594 0.15216 0.0
C515 C 0.3229 0.20721 0.19534 0.0
C516 C 0.30112 0.17502 0.20502 0.0
Zn517 Zn 0.26012 0.10625 0.17824 0.0
C518 C 0.20244 0.11344 0.15395 0.0
N519 N 0.17146 0.01825 0.17901 0.0
C520 C 0.16995 0.9941 0.14888 0.0
C521 C 0.14668 0.01372 0.21068 0.0
C522 C 0.11908 0.98391 0.21311 0.0
C523 C 0.11686 0.95873 0.18207 0.0
C524 C 0.14259 0.96406 0.14942 0.0
Zn525 Zn 0.21251 0.06137 0.1777 0.0
O526 O 0.26444 0.09961 0.09659 0.0
C527 C 0.26645 0.04999 0.20283 0.0
O528 O 0.21687 0.05709 0.09427 0.0
H529 H 0.1483 0.03323 0.23413 0.0
H530 H 0.32218 0.14116 0.10862 0.0
H531 H 0.19007 0.99806 0.12451 0.0
O532 O 0.28517 0.08022 0.19996 0.0
O533 O 0.23703 0.03837 0.19415 0.0
H534 H 0.28319 0.16901 0.23555 0.0
O535 O 0.20819 0.06812 0.26149 0.0
O536 O 0.25449 0.11226 0.25866 0.0
O537 O 0.18776 0.08362 0.16095 0.0
O538 O 0.23264 0.12932 0.15874 0.0
C539 C 0.22968 0.09308 0.28452 0.0
H540 H 0.36063 0.19744 0.08826 0.0
H541 H 0.32197 0.22521 0.21974 0.0
H542 H 0.09943 0.98069 0.23822 0.0
H543 H 0.14166 0.94512 0.12507 0.0
C544 C 0.94999 0.16835 0.07152 0.0
N545 N 0.87662 0.15401 0.17652 0.0
C546 C 0.87446 0.17691 0.14845 0.0
C547 C 0.84458 0.17277 0.13478 0.0
C548 C 0.81651 0.14461 0.14937 0.0
C549 C 0.81943 0.12189 0.17972 0.0
C550 C 0.84974 0.12719 0.19324 0.0
Zn551 Zn 0.91921 0.15335 0.17908 0.0
C552 C 0.90639 0.08914 0.13952 0.0
N553 N 1.00163 0.14365 0.17261 0.0
C554 C 0.02875 0.16861 0.15227 0.0
C555 C 1.00029 0.11593 0.18662 0.0
C556 C 0.02652 0.11205 0.17803 0.0
C557 C 0.05438 0.13705 0.15534 0.0
C558 C 0.05568 0.16589 0.14363 0.0
Zn559 Zn 0.96159 0.14702 0.17542 0.0
O560 O 0.92752 0.16792 0.0984 0.0
C561 C 0.97874 0.21105 0.21794 0.0
O562 O 0.97026 0.1636 0.09556 0.0
H563 H 0.97852 0.09646 0.20283 0.0
H564 H 0.89589 0.19768 0.1343 0.0
H565 H 0.02919 0.19034 0.14096 0.0
O566 O 0.94971 0.20354 0.20917 0.0
O567 O 0.98768 0.19151 0.20565 0.0
H568 H 0.85171 0.10893 0.21483 0.0
O569 O 0.95091 0.12829 0.25531 0.0
O570 O 0.91047 0.1368 0.25808 0.0
O571 O 0.93616 0.10247 0.14549 0.0
O572 O 0.89206 0.10418 0.15171 0.0
C573 C 0.92706 0.1264 0.2802 0.0
H574 H 0.8435 0.19096 0.11125 0.0
H575 H 0.7985 0.10012 0.19255 0.0
H576 H 0.02489 0.08957 0.18814 0.0
H577 H 0.07676 0.18557 0.12588 0.0
C578 C 0.86313 0.78919 0.07187 0.0
N579 N 0.87386 0.72968 0.17918 0.0
C580 C 0.85212 0.7057 0.14783 0.0
C581 C 0.85833 0.68229 0.12809 0.0
C582 C 0.88745 0.68369 0.13988 0.0
C583 C 0.90783 0.70681 0.1768 0.0
C584 C 0.90049 0.72952 0.19618 0.0
Zn585 Zn 0.87499 0.77319 0.18072 0.0
C586 C 0.94196 0.82417 0.14447 0.0
N587 N 0.88709 0.86596 0.16977 0.0
C588 C 0.86083 0.86574 0.1499 0.0
C589 C 0.91442 0.89373 0.17988 0.0
C590 C 0.91635 0.92275 0.16788 0.0
C591 C 0.88977 0.92293 0.14607 0.0
C592 C 0.86155 0.8941 0.13828 0.0
Zn593 Zn 0.88475 0.82308 0.17509 0.0
O594 O 0.8622 0.7668 0.09947 0.0
C595 C 0.81844 0.77622 0.21574 0.0
O596 O 0.869 0.81478 0.09512 0.0
H597 H 0.93501 0.89334 0.19543 0.0
H598 H 0.83122 0.70621 0.13423 0.0
H599 H 0.83953 0.84348 0.14084 0.0
O600 O 0.82444 0.75367 0.20721 0.0
O601 O 0.83954 0.80443 0.20461 0.0
H602 H 0.91777 0.74888 0.22063 0.0
O603 O 0.90245 0.83147 0.25513 0.0
O604 O 0.8898 0.78111 0.26024 0.0
O605 O 0.93043 0.84241 0.14672 0.0
O606 O 0.9248 0.79498 0.15716 0.0
C607 C 0.90195 0.80864 0.28127 0.0
H608 H 0.84123 0.66434 0.10128 0.0
H609 H 0.93048 0.70903 0.18741 0.0
H610 H 0.93847 0.94477 0.1747 0.0
H611 H 0.84075 0.89346 0.1211 0.0
H612 H 0.54711 0.17386 0.06845 0.0
H613 H 0.54289 0.1646 0.89666 0.0
H614 H 0.52533 0.20395 0.88977 0.0
H615 H 0.52129 0.24785 0.93222 0.0
H616 H 0.5303 0.2595 0.10395 0.0
H617 H 0.53591 0.2124 0.11166 0.0
C618 C 0.54095 0.17953 0.02977 0.0
C619 C 0.54562 0.16621 0.98319 0.0
C620 C 0.53268 0.20328 0.02621 0.0
C621 C 0.53861 0.17414 0.933 0.0
C622 C 0.52914 0.19701 0.92913 0.0
C623 C 0.52371 0.23957 0.97136 0.0
C624 C 0.52592 0.25735 0.01741 0.0
C625 C 0.52763 0.21283 0.97533 0.0
C626 C 0.52919 0.24652 0.06791 0.0
C627 C 0.53225 0.21954 0.07235 0.0
H628 H 0.76217 0.28585 0.94192 0.0
H629 H 0.74634 0.29364 0.11036 0.0
H630 H 0.79433 0.34596 0.11343 0.0
H631 H 0.83744 0.39147 0.06652 0.0
H632 H 0.85265 0.38538 0.89791 0.0
H633 H 0.80898 0.3297 0.89685 0.0
C634 C 0.76953 0.29871 0.97956 0.0
C635 C 0.75038 0.28596 0.02573 0.0
C636 C 0.79722 0.32885 0.98104 0.0
C637 C 0.76016 0.30316 0.07398 0.0
C638 C 0.78776 0.33296 0.07591 0.0
C639 C 0.83181 0.37745 0.03003 0.0
C640 C 0.84834 0.39192 0.98258 0.0
C641 C 0.80604 0.34625 0.0295 0.0
C642 C 0.84061 0.37422 0.93506 0.0
C643 C 0.81537 0.34266 0.93441 0.0
H644 H 0.62677 0.41509 0.93344 0.0
H645 H 0.64049 0.5044 -0.00621 0.0
H646 H 0.69816 0.52522 -0.00113 0.0
H647 H 0.74339 0.51474 -0.00219 0.0
H648 H 0.72704 0.42334 0.9434 0.0
H649 H 0.67151 0.40641 0.92467 0.0
C650 C 0.64242 0.43932 0.94698 0.0
C651 C 0.6295 0.45805 0.96401 0.0
C652 C 0.67496 0.45046 0.95174 0.0
C653 C 0.64999 0.48955 0.98051 0.0
C654 C 0.68287 0.5013 0.98394 0.0
C655 C 0.72762 0.49133 0.98124 0.0
C656 C 0.73887 0.47001 0.97283 0.0
C657 C 0.69544 0.48149 0.97159 0.0
C658 C 0.71852 0.43979 0.95112 0.0
C659 C 0.68691 0.43018 0.94019 0.0
H660 H 0.76857 0.49095 0.43095 0.0
H661 H 0.74882 0.46963 0.59945 0.0
H662 H 0.79939 0.47093 0.61047 0.0
H663 H 0.84491 0.47027 0.56975 0.0
H664 H 0.86297 0.48742 0.40062 0.0
H665 H 0.81832 0.4974 0.39251 0.0
C666 C 0.77564 0.48723 0.47029 0.0
C667 C 0.75466 0.47956 0.51412 0.0
C668 C 0.80469 0.48779 0.47625 0.0
C669 C 0.76412 0.47469 0.56479 0.0
C670 C 0.79316 0.47575 0.57125 0.0
C671 C 0.83989 0.47773 0.5317 0.0
C672 C 0.85732 0.47882 0.48603 0.0
C673 C 0.81313 0.48133 0.52699 0.0
C674 C 0.85028 0.48739 0.43644 0.0
C675 C 0.82436 0.49238 0.43172 0.0
H676 H 0.51982 0.2759 0.43644 0.0
H677 H 0.52369 0.27772 0.60922 0.0
H678 H 0.52939 0.33074 0.60965 0.0
H679 H 0.5423 0.37948 0.56048 0.0
H680 H 0.54464 0.37993 0.38799 0.0
H681 H 0.52622 0.32272 0.38733 0.0
C682 C 0.52108 0.28762 0.47415 0.0
C683 C 0.5217 0.27323 0.52272 0.0
C684 C 0.5253 0.31842 0.47393 0.0
C685 C 0.52366 0.28867 0.57137 0.0
C686 C 0.52681 0.31887 0.57162 0.0
C687 C 0.53733 0.36656 0.52287 0.0
C688 C 0.544 0.38329 0.47434 0.0
C689 C 0.52884 0.3344 0.52311 0.0
C690 C 0.53879 0.36704 0.42564 0.0
C691 C 0.52879 0.33455 0.42539 0.0
H692 H 0.62429 0.22225 0.44946 0.0
H693 H 0.64502 0.1503 0.50438 0.0
H694 H 0.70215 0.19008 0.50643 0.0
H695 H 0.74505 0.24697 0.50294 0.0
H696 H 0.72161 0.3181 0.45419 0.0
H697 H 0.66636 0.27695 0.4401 0.0
C698 C 0.64131 0.21509 0.46136 0.0
C699 C 0.63056 0.18359 0.4775 0.0
C700 C 0.67347 0.23809 0.46446 0.0
C701 C 0.65284 0.17449 0.49179 0.0
C702 C 0.68538 0.19728 0.49348 0.0
C703 C 0.72778 0.25322 0.48874 0.0
C704 C 0.73705 0.28542 0.48039 0.0
C705 C 0.69582 0.2294 0.48162 0.0
C706 C 0.71472 0.29348 0.46186 0.0
C707 C 0.68325 0.27 0.4535 0.0
H708 H 0.18981 0.58082 0.38081 0.0
H709 H 0.21407 0.60754 0.21457 0.0
H710 H 0.22419 0.56376 0.20201 0.0
H711 H 0.23369 0.52282 0.24199 0.0
H712 H 0.2045 0.49284 0.40487 0.0
H713 H 0.18733 0.53222 0.41433 0.0
C714 C 0.19631 0.57669 0.34128 0.0
C715 C 0.20254 0.59859 0.29948 0.0
C716 C 0.20109 0.55075 0.33362 0.0
C717 C 0.21075 0.59228 0.24851 0.0
C718 C 0.21619 0.56694 0.24093 0.0
C719 C 0.22246 0.52426 0.27875 0.0
C720 C 0.22025 0.50532 0.32269 0.0
C721 C 0.21267 0.54683 0.28378 0.0
C722 C 0.20596 0.50716 0.37045 0.0
C723 C 0.19654 0.52988 0.37602 0.0
H724 H 0.53162 0.70731 0.3627 0.0
H725 H 0.49888 0.73464 0.223 0.0
H726 H 0.45335 0.68093 0.21546 0.0
H727 H 0.4182 0.63096 0.25914 0.0
H728 H 0.45139 0.6006 0.39552 0.0
H729 H 0.5009 0.6514 0.39493 0.0
C730 C 0.51531 0.70092 0.32921 0.0
C731 C 0.51844 0.72461 0.2933 0.0
C732 C 0.48854 0.67009 0.32606 0.0
C733 C 0.49691 0.71651 0.25069 0.0
C734 C 0.47063 0.68598 0.24691 0.0
C735 C 0.43635 0.6344 0.2878 0.0
C736 C 0.43 0.61166 0.32827 0.0
C737 C 0.46538 0.66315 0.28606 0.0
C738 C 0.45445 0.61785 0.3652 0.0
C739 C 0.48321 0.64685 0.36448 0.0
H740 H 0.41384 0.84817 0.33912 0.0
H741 H 0.39456 0.76005 0.2645 0.0
H742 H 0.34034 0.74745 0.2443 0.0
H743 H 0.29704 0.75797 0.2578 0.0
H744 H 0.31319 0.84311 0.33932 0.0
H745 H 0.37038 0.86124 0.34508 0.0
C746 C 0.39775 0.82648 0.31786 0.0
C747 C 0.40776 0.80472 0.30406 0.0
C748 C 0.36626 0.81903 0.30746 0.0
C749 C 0.38699 0.77674 0.27634 0.0
C750 C 0.35613 0.76963 0.26455 0.0
C751 C 0.3132 0.78083 0.27592 0.0
C752 C 0.30108 0.79904 0.29873 0.0
C753 C 0.3453 0.7901 0.28136 0.0
C754 C 0.32214 0.82879 0.32135 0.0
C755 C 0.35469 0.83888 0.32527 0.0
H756 H 0.4819 0.75832 0.76079 0.0
H757 H 0.54824 0.84218 0.84824 0.0
H758 H 0.50897 0.8601 0.85088 0.0
H759 H 0.45257 0.84682 0.84069 0.0
H760 H 0.38601 0.75956 0.76122 0.0
H761 H 0.42841 0.74766 0.74345 0.0
C762 C 0.48799 0.78088 0.77953 0.0
C763 C 0.51754 0.79875 0.80496 0.0
C764 C 0.46495 0.78991 0.78331 0.0
C765 C 0.52554 0.82813 0.82834 0.0
C766 C 0.50295 0.83808 0.83046 0.0
C767 C 0.44768 0.82549 0.81893 0.0
C768 C 0.41637 0.80374 0.80291 0.0
C769 C 0.47209 0.81839 0.81016 0.0
C770 C 0.40996 0.77621 0.77459 0.0
C771 C 0.43414 0.76952 0.76424 0.0
H772 H 0.19598 0.61239 0.776 0.0
H773 H 0.20906 0.61672 0.94757 0.0
H774 H 0.21601 0.67015 0.9491 0.0
H775 H 0.22498 0.71782 0.90043 0.0
H776 H 0.21508 0.71514 0.72879 0.0
H777 H 0.19909 0.65841 0.72837 0.0
C778 C 0.19965 0.62475 0.81386 0.0
C779 C 0.20244 0.61078 0.86154 0.0
C780 C 0.20396 0.65563 0.81433 0.0
C781 C 0.20748 0.62722 0.91021 0.0
C782 C 0.21126 0.65768 0.91116 0.0
C783 C 0.21812 0.70434 0.86327 0.0
C784 C 0.22044 0.72003 0.81484 0.0
C785 C 0.21041 0.6724 0.86334 0.0
C786 C 0.21259 0.70304 0.76655 0.0
C787 C 0.20394 0.67084 0.76634 0.0
H788 H 0.29534 0.54453 0.78012 0.0
H789 H 0.31072 0.47583 0.86417 0.0
H790 H 0.3683 0.51424 0.86719 0.0
H791 H 0.41287 0.57025 0.85623 0.0
H792 H 0.39438 0.63862 0.77797 0.0
H793 H 0.33923 0.59754 0.76257 0.0
C794 C 0.31137 0.53775 0.79842 0.0
C795 C 0.29898 0.50769 0.82249 0.0
C796 C 0.34375 0.56015 0.80178 0.0
C797 C 0.31988 0.4989 0.84527 0.0
C798 C 0.35266 0.52098 0.84751 0.0
C799 C 0.39671 0.57584 0.83529 0.0
C800 C 0.40729 0.60737 0.81891 0.0
C801 C 0.36468 0.55211 0.82761 0.0
C802 C 0.38643 0.61457 0.79164 0.0
C803 C 0.35502 0.59112 0.78266 0.0
H804 H 0.84803 0.90755 0.70275 0.0
H805 H 0.94127 0.98145 0.65193 0.0
H806 H 0.95611 0.94171 0.63061 0.0
H807 H 0.94433 0.88716 0.6316 0.0
H808 H 0.85333 0.81209 0.68792 0.0
H809 H 0.8352 0.8509 0.69968 0.0
C810 C 0.87151 0.91478 0.68688 0.0
C811 C 0.89379 0.94742 0.67993 0.0
C812 C 0.88007 0.89166 0.67503 0.0
C813 C 0.92406 0.95658 0.65899 0.0
C814 C 0.93245 0.93387 0.64624 0.0
C815 C 0.92033 0.8791 0.64595 0.0
C816 C 0.90027 0.84692 0.65941 0.0
C817 C 0.91086 0.90151 0.65484 0.0
C818 C 0.86913 0.83676 0.67706 0.0
C819 C 0.85898 0.85901 0.68442 0.0
H820 H 0.1785 0.05291 0.7437 0.0
H821 H 0.18696 0.04935 0.57235 0.0
H822 H 0.14707 0.99228 0.57271 0.0
H823 H 0.10461 0.94607 0.62075 0.0
H824 H 0.09454 0.95114 0.79192 0.0
H825 H 0.14023 1.00519 0.79294 0.0
C826 C 0.17228 0.03921 0.7068 0.0
C827 C 0.1857 0.05469 0.6582 0.0
C828 C 0.1486 1.00706 0.7073 0.0
C829 C 0.17721 0.03741 0.61021 0.0
C830 C 0.15418 1.00502 0.61046 0.0
C831 C 0.11288 0.95873 0.65844 0.0
C832 C 0.09602 0.94478 0.70615 0.0
C833 C 0.13891 0.98993 0.65857 0.0
C834 C 0.10678 0.96161 0.75458 0.0
C835 C 0.13297 0.99241 0.75522 0.0
H836 H 0.96378 0.09434 0.60422 0.0
H837 H 0.98025 0.17791 0.69138 0.0
H838 H 0.03733 0.19535 0.69741 0.0
H839 H 0.08048 0.18181 0.68964 0.0
H840 H 0.06038 0.0946 0.61057 0.0
H841 H 1.00653 0.08315 0.5902 0.0
C842 C 0.98002 0.11676 0.62358 0.0
C843 C 0.96803 0.13473 0.64778 0.0
C844 C 1.01192 0.12542 0.62946 0.0
C845 C 0.98913 0.16385 0.67219 0.0
C846 C 0.02159 0.17349 0.67632 0.0
C847 C 0.06425 0.16053 0.66753 0.0
C848 C 0.07392 0.13872 0.65229 0.0
C849 C 0.03294 0.1537 0.65713 0.0
C850 C 0.05304 0.11129 0.62346 0.0
C851 C 0.02241 0.10487 0.61154 0.0
H852 H 0.14774 0.0876 0.10034 0.0
H853 H 0.21361 0.17233 0.18638 0.0
H854 H 0.17369 0.18936 0.18941 0.0
H855 H 0.11718 0.17533 0.17956 0.0
H856 H 0.05138 0.08806 0.09909 0.0
H857 H 0.09407 0.0765 0.08234 0.0
C858 C 0.15356 0.11013 0.11888 0.0
C859 C 0.1832 0.12853 0.14379 0.0
C860 C 0.13026 0.11884 0.12245 0.0
C861 C 0.19084 0.15787 0.16689 0.0
C862 C 0.1679 0.16734 0.1692 0.0
C863 C 0.11246 0.15408 0.15772 0.0
C864 C 0.08121 0.1322 0.14143 0.0
C865 C 0.13708 0.14729 0.14909 0.0
C866 C 0.07518 0.10478 0.11299 0.0
C867 C 0.09956 0.09828 0.10313 0.0
H868 H 0.85009 0.94506 0.17278 0.0
H869 H 0.93394 0.96734 0.08015 0.0
H870 H 0.94066 0.01921 0.0567 0.0
H871 H 0.92788 0.06065 0.07449 0.0
H872 H 0.84861 0.0419 0.17664 0.0
H873 H 0.83349 0.98552 0.18192 0.0
C874 C 0.8695 0.96121 0.14685 0.0
C875 C 0.89193 0.95297 0.12898 0.0
C876 C 0.87368 0.99131 0.13479 0.0
C877 C 0.91692 0.97373 0.09524 0.0
C878 C 0.92059 1.00317 0.08151 0.0
C879 C 0.90668 0.04394 0.09654 0.0
C880 C 0.88962 0.0552 0.12583 0.0
C881 C 0.8998 0.01257 0.10265 0.0
C882 C 0.862 0.03357 0.1537 0.0
C883 C 0.85378 1.00155 0.15753 0.0
H884 H 0.08199 0.92539 0.09635 0.0
H885 H 0.08543 0.92265 0.26886 0.0
H886 H 0.03285 0.87457 0.27066 0.0
H887 H 0.98306 0.83873 0.22419 0.0
H888 H 0.97691 0.84571 0.05312 0.0
H889 H 0.0337 0.88594 0.04894 0.0
C890 C 0.07143 0.91376 0.13413 0.0
C891 C 0.08724 0.92747 0.18244 0.0
C892 C 0.04081 0.88682 0.13486 0.0
C893 C 0.07338 0.91256 0.2313 0.0
C894 C 0.04343 0.8851 0.2323 0.0
C895 C 0.99466 0.84819 0.18588 0.0
C896 C 0.97645 0.83903 0.13885 0.0
C897 C 0.02653 0.87267 0.18449 0.0
C898 C 0.99097 0.85207 0.08948 0.0
C899 C 0.02321 0.87534 0.08731 0.0
H900 H 0.52657 0.08105 0.33968 0.0
H901 H 0.53088 0.17209 0.33425 0.0
H902 H 0.55471 0.18188 0.2447 0.0
H903 H 0.57813 0.166 0.17073 0.0
H904 H 0.57461 0.07552 0.17977 0.0
H905 H 0.54786 0.06467 0.26646 0.0
C906 C 0.53214 0.10284 0.3187 0.0
C907 C 0.52713 0.12586 0.3438 0.0
C908 C 0.54709 0.10892 0.26872 0.0
C909 C 0.53441 0.15388 0.31575 0.0
C910 C 0.54849 0.15972 0.2649 0.0
C911 C 0.572 0.14428 0.19243 0.0
C912 C 0.57878 0.12183 0.16991 0.0
C913 C 0.5559 0.13785 0.24178 0.0
C914 C 0.56993 0.09326 0.19711 0.0
C915 C 0.55435 0.0869 0.24623 0.0
H916 H 0.85635 0.4143 0.33808 0.0
H917 H 0.95195 0.43007 0.32806 0.0
H918 H 0.95669 0.44944 0.23604 0.0
H919 H 0.93565 0.46655 0.16324 0.0
H920 H 0.84134 0.45446 0.17482 0.0
H921 H 0.83431 0.42961 0.26296 0.0
C922 C 0.8778 0.42105 0.31499 0.0
C923 C 0.90365 0.42046 0.33888 0.0
C924 C 0.88091 0.43373 0.2636 0.0
C925 C 0.93172 0.43007 0.30969 0.0
C926 C 0.93453 0.44146 0.2576 0.0
C927 C 0.91351 0.45856 0.18494 0.0
C928 C 0.88916 0.46263 0.16292 0.0
C929 C 0.90967 0.44434 0.23501 0.0
C930 C 0.86059 0.45197 0.1914 0.0
C931 C 0.85646 0.43751 0.24143 0.0
H932 H 0.61203 0.44882 0.33155 0.0
H933 H 0.59664 0.52892 0.3255 0.0
H934 H 0.57619 0.51456 0.23397 0.0
H935 H 0.55835 0.4766 0.15992 0.0
H936 H 0.56991 0.39403 0.16875 0.0
H937 H 0.59559 0.4116 0.25612 0.0
C938 C 0.60513 0.46368 0.30947 0.0
C939 C 0.60629 0.49019 0.33446 0.0
C940 C 0.59181 0.45424 0.25838 0.0
C941 C 0.59634 0.50871 0.30641 0.0
C942 C 0.58431 0.50026 0.25454 0.0
C943 C 0.5664 0.46234 0.18092 0.0
C944 C 0.56197 0.43388 0.15812 0.0
C945 C 0.58106 0.47254 0.2309 0.0
C946 C 0.57271 0.41583 0.18575 0.0
C947 C 0.58763 0.426 0.23543 0.0
H948 H 0.85609 0.45944 0.83621 0.0
H949 H 0.95266 0.53779 0.82777 0.0
H950 H 0.95842 0.52133 0.73766 0.0
H951 H 0.93788 0.48172 0.66664 0.0
H952 H 0.84224 0.40128 0.67685 0.0
H953 H 0.83452 0.42096 0.76256 0.0
C954 C 0.87796 0.47352 0.81372 0.0
C955 C 0.9038 0.50001 0.83766 0.0
C956 C 0.88164 0.46282 0.76363 0.0
C957 C 0.9324 0.51761 0.80929 0.0
C958 C 0.93582 0.50791 0.75837 0.0
C959 C 0.91535 0.46832 0.68761 0.0
C960 C 0.8908 0.43987 0.66581 0.0
C961 C 0.91098 0.47992 0.73615 0.0
C962 C 0.86167 0.42302 0.69326 0.0
C963 C 0.85712 0.43443 0.74187 0.0
H964 H 0.54303 0.45837 0.66092 0.0
H965 H 0.61818 0.43545 0.67022 0.0
H966 H 0.597 0.40869 0.75623 0.0
H967 H 0.55934 0.39537 0.83123 0.0
H968 H 0.4863 0.42106 0.82264 0.0
H969 H 0.5036 0.44199 0.73206 0.0
C970 C 0.55493 0.44761 0.68163 0.0
C971 C 0.58246 0.44935 0.65961 0.0
C972 C 0.54249 0.43209 0.73037 0.0
C973 C 0.59723 0.43487 0.68676 0.0
C974 C 0.58497 0.41932 0.73562 0.0
C975 C 0.54651 0.40447 0.8086 0.0
C976 C 0.52132 0.40634 0.83283 0.0
C977 C 0.55773 0.418 0.75792 0.0
C978 C 0.50543 0.41904 0.80412 0.0
C979 C 0.51564 0.43141 0.75285 0.0
H980 H 0.60827 0.17133 0.8467 0.0
H981 H 0.61491 0.08659 0.82691 0.0
H982 H 0.59485 0.08048 0.73518 0.0
H983 H 0.5702 0.09594 0.66536 0.0
H984 H 0.55984 0.17864 0.687 0.0
H985 H 0.58594 0.18848 0.77437 0.0
C986 C 0.60642 0.15225 0.82144 0.0
C987 C 0.61357 0.12975 0.84262 0.0
C988 C 0.59315 0.14791 0.77018 0.0
C989 C 0.61005 0.10443 0.81065 0.0
C990 C 0.59815 0.1007 0.75871 0.0
C991 C 0.57351 0.1161 0.68916 0.0
C992 C 0.56268 0.13627 0.67008 0.0
C993 C 0.58857 0.12165 0.73891 0.0
C994 C 0.5676 0.16251 0.70114 0.0
C995 C 0.58274 0.16831 0.75082 0.0
H996 H 0.21072 0.42797 0.50348 0.0
H997 H 0.29638 0.5194 0.52003 0.0
H998 H 0.278 0.52653 0.60785 0.0
H999 H 0.23933 0.50453 0.68236 0.0
H1000 H 0.15577 0.41172 0.66617 0.0
H1001 H 0.17101 0.4078 0.57422 0.0
C1002 C 0.22556 0.44947 0.52624 0.0
C1003 C 0.25517 0.47287 0.50581 0.0
C1004 C 0.21482 0.45339 0.57603 0.0
C1005 C 0.2737 0.50084 0.53536 0.0
C1006 C 0.2631 0.50501 0.58528 0.0
C1007 C 0.22398 0.48403 0.6578 0.0
C1008 C 0.19625 0.45863 0.68007 0.0
C1009 C 0.23382 0.48127 0.60618 0.0
C1010 C 0.17693 0.43166 0.64905 0.0
C1011 C 0.18587 0.42926 0.59698 0.0
H1012 H 0.6003 0.79178 0.4982 0.0
H1013 H 0.50577 0.77878 0.51236 0.0
H1014 H 0.49961 0.75375 0.60027 0.0
H1015 H 0.52272 0.73897 0.67516 0.0
H1016 H 0.61862 0.75596 0.66229 0.0
H1017 H 0.62226 0.77505 0.5703 0.0
C1018 C 0.57826 0.78352 0.52033 0.0
C1019 C 0.55363 0.78749 0.499 0.0
C1020 C 0.57497 0.76929 0.57043 0.0
C1021 C 0.52522 0.77637 0.52819 0.0
C1022 C 0.52162 0.76185 0.5782 0.0
C1023 C 0.54396 0.74584 0.65139 0.0
C1024 C 0.57019 0.74553 0.67459 0.0
C1025 C 0.54644 0.75841 0.59982 0.0
C1026 C 0.59805 0.75553 0.64452 0.0
C1027 C 0.60023 0.7668 0.59239 0.0
H1028 H 0.28081 0.78388 0.6679 0.0
H1029 H 0.26775 0.8653 0.6569 0.0
H1030 H 0.24791 0.85041 0.56523 0.0
H1031 H 0.22976 0.81181 0.49293 0.0
H1032 H 0.23901 0.72798 0.50532 0.0
H1033 H 0.26425 0.74585 0.59317 0.0
C1034 C 0.27459 0.79886 0.64461 0.0
C1035 C 0.27618 0.82592 0.66814 0.0
C1036 C 0.26159 0.78915 0.59338 0.0
C1037 C 0.26711 0.84468 0.63878 0.0
C1038 C 0.25542 0.83594 0.58689 0.0
C1039 C 0.2372 0.7973 0.51471 0.0
C1040 C 0.23225 0.76843 0.49291 0.0
C1041 C 0.25164 0.80771 0.56462 0.0
C1042 C 0.24224 0.75011 0.5216 0.0
C1043 C 0.25689 0.76045 0.5715 0.0
H1044 H 0.60493 0.81243 0.00148 0.0
H1045 H 0.50915 0.73252 0.01422 0.0
H1046 H 0.5028 0.75238 0.10095 0.0
H1047 H 0.5255 0.7911 0.17452 0.0
H1048 H 0.6224 0.86861 0.16368 0.0
H1049 H 0.62685 0.85178 0.07306 0.0
C1050 C 0.58261 0.79921 0.02312 0.0
C1051 C 0.55762 0.77083 0.00159 0.0
C1052 C 0.57911 0.81082 0.07247 0.0
C1053 C 0.52888 0.7542 0.03019 0.0
C1054 C 0.52514 0.76571 0.07948 0.0
C1055 C 0.54721 0.80488 0.15152 0.0
C1056 C 0.57343 0.83142 0.17495 0.0
C1057 C 0.55013 0.79397 0.10095 0.0
C1058 C 0.60181 0.84849 0.14577 0.0
C1059 C 0.60447 0.83859 0.09445 0.0
H1060 H 0.21523 0.79994 -0.00435 0.0
H1061 H 0.2921 0.77956 0.00662 0.0
H1062 H 0.27141 0.75334 0.09318 0.0
H1063 H 0.23298 0.73877 0.16703 0.0
H1064 H 0.15832 0.76218 0.15705 0.0
H1065 H 0.17584 0.78344 0.06664 0.0
C1066 C 0.22763 0.78987 0.01685 0.0
C1067 C 0.25537 0.79198 -0.00496 0.0
C1068 C 0.21547 0.77465 0.06578 0.0
C1069 C 0.27096 0.77863 0.023 0.0
C1070 C 0.25895 0.76335 0.07209 0.0
C1071 C 0.21992 0.74753 0.14418 0.0
C1072 C 0.19411 0.74853 0.16776 0.0
C1073 C 0.23124 0.76128 0.09379 0.0
C1074 C 0.17792 0.76082 0.13891 0.0
C1075 C 0.18822 0.77335 0.08779 0.0
H1076 H 0.26296 0.49429 0.00605 0.0
H1077 H 0.17054 0.41063 0.0254 0.0
H1078 H 0.18611 0.40007 0.11273 0.0
H1079 H 0.2258 0.41423 0.18225 0.0
H1080 H 0.31851 0.4983 0.16525 0.0
H1081 H 0.30363 0.50828 0.07672 0.0
C1082 C 0.24612 0.47433 0.03036 0.0
C1083 C 0.21543 0.45372 0.01076 0.0
C1084 C 0.25565 0.46784 0.07959 0.0
C1085 C 0.194 0.42714 0.04092 0.0
C1086 C 0.20305 0.42086 0.09023 0.0
C1087 C 0.24309 0.43445 0.15892 0.0
C1088 C 0.27324 0.45546 0.18035 0.0
C1089 C 0.23392 0.4408 0.10953 0.0
C1090 C 0.29519 0.48161 0.1495 0.0
C1091 C 0.28654 0.48761 0.09928 0.0
H1092 H 0.91643 0.82671 0.83831 0.0
H1093 H 0.916 0.73799 0.85218 0.0
H1094 H 0.89002 0.72819 0.93989 0.0
H1095 H 0.86895 0.74558 0.01293 0.0
H1096 H 0.86882 0.83427 -0.00028 0.0
H1097 H 0.89199 0.8426 0.91001 0.0
C1098 C 0.91113 0.80561 0.86128 0.0
C1099 C 0.91884 0.78352 0.84025 0.0
C1100 C 0.89521 0.79965 0.91067 0.0
C1101 C 0.91084 0.75558 0.86875 0.0
C1102 C 0.89567 0.74981 0.91835 0.0
C1103 C 0.87324 0.76639 -0.00994 0.0
C1104 C 0.86734 0.78936 0.01321 0.0
C1105 C 0.88765 0.77163 0.93956 0.0
C1106 C 0.87309 0.81617 0.98282 0.0
C1107 C 0.8868 0.82121 0.93185 0.0
H1108 H 0.27222 0.13189 0.8385 0.0
H1109 H 0.17575 0.1138 0.85152 0.0
H1110 H 0.16994 0.08774 0.93815 0.0
H1111 H 0.19339 0.0728 0.01189 0.0
H1112 H 0.2909 0.09439 0.00076 0.0
H1113 H 0.29483 0.11531 0.91003 0.0
C1114 C 0.24989 0.12238 0.86025 0.0
C1115 C 0.22456 0.12513 0.83889 0.0
C1116 C 0.24671 0.10739 0.90956 0.0
C1117 C 0.19576 0.1124 0.86746 0.0
C1118 C 0.19233 0.09723 0.91668 0.0
C1119 C 0.21511 0.08109 0.98873 0.0
C1120 C 0.24166 0.08155 0.01205 0.0
C1121 C 0.21769 0.09468 0.9381 0.0
C1122 C 0.27007 0.09335 0.98283 0.0
C1123 C 0.27243 0.10569 0.93147 0.0
H1124 H 0.93346 0.11337 0.83897 0.0
H1125 H 0.84886 0.12106 0.84829 0.0
H1126 H 0.86562 0.14741 0.93533 0.0
H1127 H 0.90306 0.16625 0.00984 0.0
H1128 H 0.98822 0.1592 0.00134 0.0
H1129 H 0.97331 0.1361 0.91175 0.0
C1130 C 0.91859 0.12043 0.86066 0.0
C1131 C 0.88963 0.11464 0.83833 0.0
C1132 C 0.92888 0.13648 0.90993 0.0
C1133 C 0.87098 0.12483 0.86551 0.0
C1134 C 0.88069 0.14016 0.91488 0.0
C1135 C 0.91882 0.16039 0.98803 0.0
C1136 C 0.9466 0.16426 0.01263 0.0
C1137 C 0.90959 0.14611 0.93744 0.0
C1138 C 0.9667 0.15657 0.98345 0.0
C1139 C 0.95796 0.14288 0.93249 0.0
H1140 H 0.26943 0.14702 0.33762 0.0
H1141 H 0.17858 0.06032 0.35202 0.0
H1142 H 0.1699 0.07808 0.43913 0.0
H1143 H 0.18977 0.11698 0.513 0.0
H1144 H 0.28202 0.20161 0.49976 0.0
H1145 H 0.28801 0.18656 0.40867 0.0
C1146 C 0.24769 0.13186 0.3597 0.0
C1147 C 0.22483 0.10219 0.33865 0.0
C1148 C 0.24283 0.14227 0.40916 0.0
C1149 C 0.19673 0.08307 0.3677 0.0
C1150 C 0.19164 0.09334 0.4172 0.0
C1151 C 0.21062 0.13261 0.48925 0.0
C1152 C 0.23518 0.16067 0.51206 0.0
C1153 C 0.21459 0.12286 0.43833 0.0
C1154 C 0.26266 0.18026 0.48216 0.0
C1155 C 0.26624 0.1714 0.43061 0.0
H1156 H 0.871 0.10708 0.33065 0.0
H1157 H 0.96087 0.10995 0.34829 0.0
H1158 H 0.94481 0.08604 0.43761 0.0
H1159 H 0.90751 0.07002 0.51426 0.0
H1160 H 0.81965 0.07094 0.49728 0.0
H1161 H 0.83207 0.08664 0.40325 0.0
C1162 C 0.88712 0.10244 0.3539 0.0
C1163 C 0.91736 0.11088 0.33332 0.0
C1164 C 0.87779 0.08886 0.40496 0.0
C1165 C 0.93763 0.10406 0.36354 0.0
C1166 C 0.9284 0.09028 0.41449 0.0
C1167 C 0.89059 0.07241 0.48914 0.0
C1168 C 0.86245 0.0688 0.51189 0.0
C1169 C 0.89877 0.08314 0.436 0.0
C1170 C 0.84112 0.07304 0.47994 0.0
C1171 C 0.84846 0.08246 0.42656 0.0
H1172 H 0.91852 0.77006 0.33169 0.0
H1173 H 0.921 0.85982 0.34859 0.0
H1174 H 0.94503 0.86699 0.43758 0.0
H1175 H 0.95954 0.84448 0.51412 0.0
H1176 H 0.95319 0.75306 0.49765 0.0
H1177 H 0.93747 0.75021 0.40386 0.0
C1178 C 0.92429 0.79125 0.35474 0.0
C1179 C 0.91732 0.81404 0.33421 0.0
C1180 C 0.93792 0.7951 0.40547 0.0
C1181 C 0.92572 0.84171 0.36398 0.0
C1182 C 0.93956 0.84587 0.41468 0.0
C1183 C 0.9559 0.82461 0.48915 0.0
C1184 C 0.9579 0.7992 0.51193 0.0
C1185 C 0.94518 0.82239 0.43623 0.0
C1186 C 0.95221 0.77302 0.48024 0.0
C1187 C 0.94281 0.77121 0.42703 0.0
H1188 H 0.36737 0.92099 0.80634 0.0
H1189 H 0.31461 0.9152 0.94889 0.0
H1190 H 0.36396 0.95527 -0.00754 0.0
H1191 H 0.42303 0.98571 -0.00608 0.0
H1192 H 0.4748 0.99143 0.84895 0.0
H1193 H 0.42511 0.95677 0.80354 0.0
C1194 C 0.36649 0.92955 0.84617 0.0
C1195 C 0.33723 0.91555 0.87394 0.0
C1196 C 0.39507 0.95152 0.8715 0.0
C1197 C 0.33658 0.92623 0.92602 0.0
C1198 C 0.36499 0.94863 0.95134 0.0
C1199 C 0.42368 0.97997 0.95214 0.0
C1200 C 0.45337 0.99091 0.92592 0.0
C1201 C 0.39458 0.96047 0.92516 0.0
C1202 C 0.45294 0.98266 0.87158 0.0
C1203 C 0.4243 0.96313 0.84495 0.0
H1204 H 0.03118 0.43553 -0.00191 0.0
H1205 H 0.02891 0.48402 0.85417 0.0
H1206 H 0.06245 0.46754 0.80849 0.0
H1207 H 0.09715 0.44451 0.81154 0.0
H1208 H 0.10113 0.39673 0.95406 0.0
H1209 H 0.06078 0.40595 -0.00327 0.0
C1210 C 0.03754 0.44216 0.95651 0.0
C1211 C 0.02797 0.46199 0.93055 0.0
C1212 C 0.05668 0.43204 0.92959 0.0
C1213 C 0.03672 0.47003 0.87642 0.0
C1214 C 0.0556 0.46013 0.84971 0.0
C1215 C 0.08801 0.43474 0.85103 0.0
C1216 C 0.10166 0.41934 0.8791 0.0
C1217 C 0.06621 0.4417 0.87612 0.0
C1218 C 0.09034 0.40772 0.93087 0.0
C1219 C 0.06783 0.41377 0.95576 0.0
H1220 H 0.5798 0.66061 0.81214 0.0
H1221 H 0.62271 0.71047 0.95856 0.0
H1222 H 0.6143 0.66069 -0.00072 0.0
H1223 H 0.58674 0.60142 -0.00284 0.0
H1224 H 0.54252 0.55259 0.84966 0.0
H1225 H 0.55858 0.60322 0.80624 0.0
C1226 C 0.58863 0.66082 0.8522 0.0
C1227 C 0.60244 0.68933 0.8819 0.0
C1228 C 0.58211 0.63191 0.87601 0.0
C1229 C 0.61292 0.68912 0.93427 0.0
C1230 C 0.60737 0.66043 0.95793 0.0
C1231 C 0.58097 0.6018 0.95532 0.0
C1232 C 0.56251 0.57274 0.92748 0.0
C1233 C 0.59067 0.63139 0.92992 0.0
C1234 C 0.55551 0.57414 0.8731 0.0
C1235 C 0.56513 0.60324 0.84778 0.0
H1236 H 0.02007 0.58112 0.38848 0.0
H1237 H 0.05938 0.59466 0.54752 0.0
H1238 H 0.0973 0.6505 0.52695 0.0
H1239 H 0.12324 0.69365 0.46045 0.0
H1240 H 0.08509 0.68021 0.30094 0.0
H1241 H 0.04208 0.62682 0.32525 0.0
C1242 C 0.03691 0.59638 0.41859 0.0
C1243 C 0.03727 0.58359 0.46922 0.0
C1244 C 0.05843 0.62872 0.40666 0.0
C1245 C 0.05878 0.60382 0.5082 0.0
C1246 C 0.0804 0.6358 0.49649 0.0
C1247 C 0.10448 0.67964 0.43194 0.0
C1248 C 0.10675 0.69131 0.37944 0.0
C1249 C 0.08078 0.6484 0.44562 0.0
C1250 C 0.08318 0.6723 0.34211 0.0
C1251 C 0.05904 0.64143 0.35571 0.0
H1252 H 0.44503 0.44679 0.39188 0.0
H1253 H 0.43723 0.47781 0.55027 0.0
H1254 H 0.38161 0.46211 0.5333 0.0
H1255 H 0.33695 0.44456 0.47035 0.0
H1256 H 0.34411 0.41376 0.3118 0.0
H1257 H 0.39761 0.42312 0.33219 0.0
C1258 C 0.43104 0.45001 0.42258 0.0
C1259 C 0.44537 0.46397 0.47198 0.0
C1260 C 0.39876 0.44034 0.41282 0.0
C1261 C 0.42683 0.46742 0.51184 0.0
C1262 C 0.39499 0.45831 0.50221 0.0
C1263 C 0.34967 0.43846 0.44121 0.0
C1264 C 0.33621 0.42752 0.3902 0.0
C1265 C 0.38082 0.44513 0.45266 0.0
C1266 C 0.35346 0.42102 0.35195 0.0
C1267 C 0.38435 0.4271 0.36329 0.0
H1268 H 0.57505 0.92239 0.32047 0.0
H1269 H 0.62113 0.91631 0.46352 0.0
H1270 H 0.61439 0.95859 0.50511 0.0
H1271 H 0.58835 0.99191 0.50457 0.0
H1272 H 0.54138 0.99569 0.36002 0.0
H1273 H 0.55479 0.95931 0.3161 0.0
C1274 C 0.58473 0.93118 0.36007 0.0
C1275 C 0.59909 0.91657 0.38844 0.0
C1276 C 0.57944 0.95431 0.38431 0.0
C1277 C 0.61082 0.9277 0.44016 0.0
C1278 C 0.60631 0.95144 0.46432 0.0
C1279 C 0.58136 0.98512 0.46327 0.0
C1280 C 0.56293 0.99614 0.4365 0.0
C1281 C 0.58951 0.96408 0.43748 0.0
C1282 C 0.5544 0.98693 0.38275 0.0
C1283 C 0.56247 0.96635 0.35711 0.0
H1284 H 0.09707 0.34474 0.2803 0.0
H1285 H 0.12446 0.28103 0.35157 0.0
H1286 H 0.07203 0.23565 0.33192 0.0
H1287 H 0.02068 0.21356 0.28877 0.0
H1288 H 0.99319 0.27439 0.2075 0.0
H1289 H 0.04273 0.32159 0.2384 0.0
C1290 C 0.0913 0.32089 0.29183 0.0
C1291 C 0.11473 0.31619 0.31721 0.0
C1292 C 0.06106 0.29455 0.27897 0.0
C1293 C 0.10705 0.28521 0.33169 0.0
C1294 C 0.07702 0.2593 0.32064 0.0
C1295 C 0.02518 0.23719 0.27831 0.0
C1296 C 1.00319 0.24039 0.24572 0.0
C1297 C 0.05416 0.26364 0.29356 0.0
C1298 C 1.00939 0.27118 0.233 0.0
C1299 C 0.03799 0.2981 0.25006 0.0
H1300 H 0.68365 0.76021 0.27544 0.0
H1301 H 0.74646 0.8545 0.33732 0.0
H1302 H 0.79243 0.84869 0.31739 0.0
H1303 H 0.81516 0.81907 0.27806 0.0
H1304 H 0.75513 0.72641 0.20866 0.0
H1305 H 0.70758 0.72872 0.23755 0.0
C1306 C 0.70743 0.77931 0.2849 0.0
C1307 C 0.71158 0.80798 0.30751 0.0
C1308 C 0.73414 0.77598 0.27233 0.0
C1309 C 0.74255 0.8325 0.31931 0.0
C1310 C 0.76886 0.8291 0.30818 0.0
C1311 C 0.79168 0.79907 0.2694 0.0
C1312 C 0.78881 0.77264 0.24077 0.0
C1313 C 0.76496 0.80126 0.28403 0.0
C1314 C 0.75814 0.74692 0.23087 0.0
C1315 C 0.73099 0.74849 0.24688 0.0
H1316 H 0.25639 0.93901 0.33926 0.0
H1317 H 0.21605 0.88989 0.19025 0.0
H1318 H 0.23411 0.94047 0.14518 0.0
H1319 H 0.25551 0.99787 0.14972 0.0
H1320 H 0.29365 0.04796 0.29787 0.0
H1321 H 0.28422 0.99833 0.34064 0.0
C1322 C 0.25188 0.93934 0.2968 0.0
C1323 C 0.23392 0.91026 0.26883 0.0
C1324 C 0.26262 0.96889 0.27055 0.0
C1325 C 0.22861 0.91152 0.21362 0.0
C1326 C 0.23939 0.94057 0.18742 0.0
C1327 C 0.26317 0.99819 0.19071 0.0
C1328 C 0.27579 0.02668 0.22027 0.0
C1329 C 0.25577 0.96931 0.21565 0.0
C1330 C 0.28478 0.02661 0.27375 0.0
C1331 C 0.27857 0.99799 0.29855 0.0
H1332 H 0.78473 0.02541 0.79886 0.0
H1333 H 0.75448 0.01187 0.63426 0.0
H1334 H 0.71111 0.95795 0.65525 0.0
H1335 H 0.68679 0.91199 0.71841 0.0
H1336 H 0.71873 0.92611 0.88256 0.0
H1337 H 0.75657 0.98213 0.86392 0.0
C1338 C 0.76761 0.01119 0.76822 0.0
C1339 C 0.77225 0.02296 0.7154 0.0
C1340 C 0.74378 0.97978 0.78021 0.0
C1341 C 0.75072 1.00383 0.67555 0.0
C1342 C 0.7264 0.97268 0.68738 0.0
C1343 C 0.70202 0.92742 0.75001 0.0
C1344 C 0.70027 0.91473 0.80168 0.0
C1345 C 0.72359 0.95991 0.7391 0.0
C1346 C 0.71971 0.93518 0.84248 0.0
C1347 C 0.7413 0.96726 0.83187 0.0
H1348 H 0.99853 0.75918 0.79535 0.0
H1349 H 0.01423 0.74645 0.62968 0.0
H1350 H 0.06806 0.75725 0.65095 0.0
H1351 H 0.11348 0.77874 0.71475 0.0
H1352 H 0.09756 0.79344 0.87985 0.0
H1353 H 0.0414 0.77397 0.86089 0.0
C1354 C 1.01315 0.75705 0.76447 0.0
C1355 C 1.002 0.75107 0.71125 0.0
C1356 C 0.04465 0.76509 0.77666 0.0
C1357 C 0.02173 0.74979 0.67121 0.0
C1358 C 0.05287 0.75684 0.68323 0.0
C1359 C 0.09765 0.77759 0.74653 0.0
C1360 C 0.1099 0.78803 0.79855 0.0
C1361 C 0.0651 0.76603 0.73538 0.0
C1362 C 0.08888 0.78574 0.83949 0.0
C1363 C 0.0567 0.7745 0.82869 0.0
H1364 H 0.25239 0.23522 0.80107 0.0
H1365 H 0.27733 0.27007 0.6395 0.0
H1366 H 0.2671 0.31362 0.65996 0.0
H1367 H 0.24407 0.33746 0.72109 0.0
H1368 H 0.21825 0.30122 0.88225 0.0
H1369 H 0.23538 0.26251 0.86481 0.0
C1370 C 0.25712 0.25333 0.77117 0.0
C1371 C 0.26667 0.25004 0.71934 0.0
C1372 C 0.2498 0.27739 0.78273 0.0
C1373 C 0.27124 0.27279 0.68022 0.0
C1374 C 0.26463 0.29726 0.69166 0.0
C1375 C 0.24229 0.3211 0.75233 0.0
C1376 C 0.22945 0.32197 0.80276 0.0
C1377 C 0.25266 0.29904 0.74219 0.0
C1378 C 0.22786 0.30099 0.84311 0.0
C1379 C 0.23776 0.27889 0.83319 0.0
H1380 H 0.69959 0.54745 0.56441 0.0
H1381 H 0.65668 0.6058 0.53979 0.0
H1382 H 0.70674 0.6529 0.56969 0.0
H1383 H 0.76397 0.67725 0.59959 0.0
H1384 H 0.80361 0.61562 0.62025 0.0
H1385 H 0.75333 0.56994 0.5939 0.0
C1386 C 0.70074 0.57036 0.56499 0.0
C1387 C 0.67417 0.57291 0.54895 0.0
C1388 C 0.72927 0.59683 0.58119 0.0
C1389 C 0.67658 0.60298 0.5516 0.0
C1390 C 0.7053 0.62989 0.56854 0.0
C1391 C 0.76143 0.65375 0.59856 0.0
C1392 C 0.78789 0.65004 0.61133 0.0
C1393 C 0.732 0.62712 0.58298 0.0
C1394 C 0.78412 0.61941 0.60969 0.0
C1395 C 0.75524 0.59318 0.59495 0.0
H1396 H 0.36929 0.10413 0.67616 0.0
H1397 H 0.35566 0.14029 0.52622 0.0
H1398 H 0.38759 0.12197 0.47996 0.0
H1399 H 0.42467 0.10184 0.48325 0.0
H1400 H 0.44126 0.06784 0.63208 0.0
H1401 H 0.40146 0.07712 0.67667 0.0
C1402 C 0.3729 0.10765 0.63326 0.0
C1403 C 0.36061 0.12458 0.60534 0.0
C1404 C 0.39134 0.09671 0.60629 0.0
C1405 C 0.36565 0.1286 0.54955 0.0
C1406 C 0.38359 0.11765 0.52267 0.0
C1407 C 0.41836 0.09493 0.52485 0.0
C1408 C 0.43552 0.08361 0.554 0.0
C1409 C 0.39712 0.10235 0.55075 0.0
C1410 C 0.42779 0.07566 0.60827 0.0
C1411 C 0.40562 0.08184 0.63408 0.0
H1412 H 0.88499 0.32279 0.48646 0.0
H1413 H 0.9681 0.37632 0.58479 0.0
H1414 H 0.9628 0.3259 0.61808 0.0
H1415 H 0.93037 0.26655 0.62569 0.0
H1416 H 0.84005 0.21778 0.54173 0.0
H1417 H 0.85226 0.26638 0.49727 0.0
C1418 C 0.90225 0.3237 0.51503 0.0
C1419 C 0.92676 0.35342 0.53338 0.0
C1420 C 0.89731 0.29518 0.53731 0.0
C1421 C 0.94917 0.35389 0.56951 0.0
C1422 C 0.94571 0.325 0.58923 0.0
C1423 C 0.91298 0.2663 0.59833 0.0
C1424 C 0.88446 0.23729 0.58676 0.0
C1425 C 0.91906 0.29543 0.57486 0.0
C1426 C 0.86284 0.23848 0.55042 0.0
C1427 C 0.86958 0.26669 0.52504 0.0
H1428 H 0.3498 0.24613 0.05688 0.0
H1429 H 0.38629 0.26277 0.2182 0.0
H1430 H 0.42364 0.3186 0.1963 0.0
H1431 H 0.45041 0.36065 0.12813 0.0
H1432 H 0.41478 0.34408 0.96661 0.0
H1433 H 0.37183 0.29093 -0.0081 0.0
C1434 C 0.36585 0.26211 0.08721 0.0
C1435 C 0.36572 0.25022 0.13885 0.0
C1436 C 0.38698 0.29439 0.07448 0.0
C1437 C 0.38615 0.27128 0.1781 0.0
C1438 C 0.40743 0.30323 0.16562 0.0
C1439 C 0.43215 0.34603 0.09928 0.0
C1440 C 0.43522 0.35669 0.04591 0.0
C1441 C 0.40848 0.31492 0.11369 0.0
C1442 C 0.41226 0.33693 0.00831 0.0
C1443 C 0.38817 0.30619 0.02254 0.0
H1444 H 0.7648 0.0911 0.10569 0.0
H1445 H 0.79618 0.18704 0.15907 0.0
H1446 H 0.74565 0.18168 0.13186 0.0
H1447 H 0.69425 0.15156 0.0912 0.0
H1448 H 0.66061 0.05638 0.03198 0.0
H1449 H 0.71009 0.05924 0.06467 0.0
C1450 C 0.76037 0.11068 0.11165 0.0
C1451 C 0.78454 0.13967 0.1341 0.0
C1452 C 0.73095 0.10753 0.09512 0.0
C1453 C 0.77841 0.16479 0.14131 0.0
C1454 C 0.74941 0.16166 0.12598 0.0
C1455 C 0.69741 0.13118 0.08489 0.0
C1456 C 0.67366 0.10387 0.05819 0.0
C1457 C 0.7258 0.1334 0.1024 0.0
C1458 C 0.67833 0.0777 0.05215 0.0
C1459 C 0.70676 0.0795 0.07061 0.0
H1460 H 0.91083 0.59516 0.98253 0.0
H1461 H 0.95726 0.58447 0.12121 0.0
H1462 H 0.95034 0.62497 0.16886 0.0
H1463 H 0.92339 0.65716 0.17508 0.0
H1464 H 0.87603 0.66576 0.03484 0.0
H1465 H 0.89014 0.63175 0.98471 0.0
C1466 C 0.92062 0.60268 0.02246 0.0
C1467 C 0.93494 0.58715 0.04799 0.0
C1468 C 0.91507 0.62463 0.05024 0.0
C1469 C 0.94692 0.59662 0.10011 0.0
C1470 C 0.94225 0.61927 0.12776 0.0
C1471 C 0.91645 0.65194 0.1334 0.0
C1472 C 0.89766 0.66346 0.10966 0.0
C1473 C 0.92509 0.63242 0.10398 0.0
C1474 C 0.88924 0.65638 0.0553 0.0
C1475 C 0.89775 0.63724 0.02608 0.0
loop_
_geom_bond_atom_site_label_1
_geom_bond_atom_site_label_2
_geom_bond_distance
_geom_bond_site_symmetry_2
_ccdc_geom_bond_type
C0 O16 1.251 . S
C0 O18 1.254 . S
N1 C2 1.333 . S
N1 C6 1.307 1_554 S
N1 Zn7 2.020 . S
C2 N1 1.333 . S
C2 C3 1.379 . S
C2 H20 0.952 . S
C3 C2 1.379 . S
C3 C4 1.390 . S
C3 H30 0.949 . S
C4 C3 1.390 . S
C4 C5 1.357 1_554 S
C5 C4 1.357 1_556 S
C5 C6 1.370 . S
C5 H31 0.950 . S
C6 N1 1.307 1_556 S
C6 C5 1.370 . S
C6 H24 0.948 . S
Zn7 N1 2.020 . S
Zn7 O16 2.039 . S
Zn7 O22 2.034 . S
Zn7 O26 2.025 1_554 S
Zn7 O28 2.024 . S
C8 O27 1.246 . S
C8 O28 1.249 . S
N9 C10 1.307 . S
N9 C11 1.333 1_554 S
N9 Zn15 2.020 . S
C10 N9 1.307 . S
C10 C14 1.370 . S
C10 H21 0.948 . S
C11 N9 1.333 1_556 S
C11 C12 1.379 . S
C11 H19 0.952 . S
C12 C11 1.379 . S
C12 C13 1.390 . S
C12 H32 0.949 . S
C13 C12 1.390 . S
C13 C14 1.357 1_556 S
C14 C10 1.370 . S
C14 C13 1.357 1_554 S
C14 H33 0.950 . S
Zn15 N9 2.020 . S
Zn15 O18 2.025 . S
Zn15 O23 2.024 . S
Zn15 O25 2.039 1_554 S
Zn15 O27 2.034 . S
O16 C0 1.251 . S
O16 Zn7 2.039 . S
C17 O22 1.248 . S
C17 O23 1.250 . S
O18 C0 1.254 . S
O18 Zn15 2.025 . S
H19 C11 0.952 . S
H20 C2 0.952 . S
H21 C10 0.948 . S
O22 Zn7 2.034 . S
O22 C17 1.248 . S
O23 Zn15 2.024 . S
O23 C17 1.250 . S
H24 C6 0.948 . S
O25 Zn15 2.039 1_556 S
O25 C29 1.251 . S
O26 Zn7 2.025 1_556 S
O26 C29 1.254 . S
O27 C8 1.246 . S
O27 Zn15 2.034 . S
O28 Zn7 2.024 . S
O28 C8 1.249 . S
C29 O25 1.251 . S
C29 O26 1.254 . S
H30 C3 0.949 . S
H31 C5 0.950 . S
H32 C12 0.949 . S
H33 C14 0.950 . S
C34 O50 1.251 . S
C34 O52 1.254 . S
N35 C36 1.333 . S
N35 C40 1.307 1_554 S
N35 Zn41 2.020 . S
C36 N35 1.333 . S
C36 C37 1.379 . S
C36 H54 0.952 . S
C37 C36 1.379 . S
C37 C38 1.390 . S
C37 H64 0.949 . S
C38 C37 1.390 . S
C38 C39 1.357 1_554 S
C39 C38 1.357 1_556 S
C39 C40 1.370 . S
C39 H65 0.950 . S
C40 N35 1.307 1_556 S
C40 C39 1.370 . S
C40 H58 0.948 . S
Zn41 N35 2.020 . S
Zn41 O50 2.039 . S
Zn41 O56 2.034 . S
Zn41 O60 2.025 1_554 S
Zn41 O62 2.024 . S
C42 O61 1.246 . S
C42 O62 1.249 . S
N43 C44 1.307 . S
N43 C45 1.333 1_554 S
N43 Zn49 2.020 . S
C44 N43 1.307 . S
C44 C48 1.370 . S
C44 H55 0.948 . S
C45 N43 1.333 1_556 S
C45 C46 1.379 . S
C45 H53 0.952 . S
C46 C45 1.379 . S
C46 C47 1.390 . S
C46 H66 0.949 . S
C47 C46 1.390 . S
C47 C48 1.357 1_556 S
C48 C44 1.370 . S
C48 C47 1.357 1_554 S
C48 H67 0.950 . S
Zn49 N43 2.020 . S
Zn49 O52 2.025 . S
Zn49 O57 2.024 . S
Zn49 O59 2.039 1_554 S
Zn49 O61 2.034 . S
O50 C34 1.251 . S
O50 Zn41 2.039 . S
C51 O56 1.248 . S
C51 O57 1.250 . S
O52 C34 1.254 . S
O52 Zn49 2.025 . S
H53 C45 0.952 . S
H54 C36 0.952 . S
H55 C44 0.948 . S
O56 Zn41 2.034 . S
O56 C51 1.248 . S
O57 Zn49 2.024 . S
O57 C51 1.250 . S
H58 C40 0.948 . S
O59 Zn49 2.039 1_556 S
O59 C63 1.251 . S
O60 Zn41 2.025 1_556 S
O60 C63 1.254 . S
O61 C42 1.246 . S
O61 Zn49 2.034 . S
O62 Zn41 2.024 . S
O62 C42 1.249 . S
C63 O59 1.251 . S
C63 O60 1.254 . S
H64 C37 0.949 . S
H65 C39 0.950 . S
H66 C46 0.949 . S
H67 C48 0.950 . S
C68 O84 1.251 . S
C68 O86 1.254 . S
N69 C70 1.333 . S
N69 C74 1.307 1_554 S
N69 Zn75 2.020 . S
C70 N69 1.333 . S
C70 C71 1.379 . S
C70 H88 0.952 . S
C71 C70 1.379 . S
C71 C72 1.390 . S
C71 H98 0.949 . S
C72 C71 1.390 . S
C72 C73 1.357 1_554 S
C73 C72 1.357 1_556 S
C73 C74 1.370 . S
C73 H99 0.950 . S
C74 N69 1.307 1_556 S
C74 C73 1.370 . S
C74 H92 0.948 . S
Zn75 N69 2.020 . S
Zn75 O84 2.039 . S
Zn75 O90 2.034 . S
Zn75 O94 2.025 1_554 S
Zn75 O96 2.024 . S
C76 O95 1.246 . S
C76 O96 1.249 . S
N77 C78 1.307 . S
N77 C79 1.333 1_554 S
N77 Zn83 2.020 . S
C78 N77 1.307 . S
C78 C82 1.370 . S
C78 H89 0.948 . S
C79 N77 1.333 1_556 S
C79 C80 1.379 . S
C79 H87 0.952 . S
C80 C79 1.379 . S
C80 C81 1.390 . S
C80 H100 0.949 . S
C81 C80 1.390 . S
C81 C82 1.357 1_556 S
C82 C78 1.370 . S
C82 C81 1.357 1_554 S
C82 H101 0.950 . S
Zn83 N77 2.020 . S
Zn83 O86 2.025 . S
Zn83 O91 2.024 . S
Zn83 O93 2.039 1_554 S
Zn83 O95 2.034 . S
O84 C68 1.251 . S
O84 Zn75 2.039 . S
C85 O90 1.248 . S
C85 O91 1.250 . S
O86 C68 1.254 . S
O86 Zn83 2.025 . S
H87 C79 0.952 . S
H88 C70 0.952 . S
H89 C78 0.948 . S
O90 Zn75 2.034 . S
O90 C85 1.248 . S
O91 Zn83 2.024 . S
O91 C85 1.250 . S
H92 C74 0.948 . S
O93 Zn83 2.039 1_556 S
O93 C97 1.251 . S
O94 Zn75 2.025 1_556 S
O94 C97 1.254 . S
O95 C76 1.246 . S
O95 Zn83 2.034 . S
O96 Zn75 2.024 . S
O96 C76 1.249 . S
C97 O93 1.251 . S
C97 O94 1.254 . S
H98 C71 0.949 . S
H99 C73 0.950 . S
H100 C80 0.949 . S
H101 C82 0.950 . S
C102 O118 1.251 . S
C102 O120 1.254 . S
N103 C104 1.333 . S
N103 C108 1.307 . S
N103 Zn109 2.020 . S
C104 N103 1.333 . S
C104 C105 1.379 . S
C104 H122 0.952 . S
C105 C104 1.379 . S
C105 C106 1.390 . S
C105 H132 0.949 . S
C106 C105 1.390 . S
C106 C107 1.357 . S
C107 C106 1.357 . S
C107 C108 1.370 . S
C107 H133 0.950 . S
C108 N103 1.307 . S
C108 C107 1.370 . S
C108 H126 0.948 . S
Zn109 N103 2.020 . S
Zn109 O118 2.039 . S
Zn109 O124 2.034 . S
Zn109 O128 2.025 . S
Zn109 O130 2.024 . S
C110 O129 1.246 . S
C110 O130 1.249 . S
N111 C112 1.307 . S
N111 C113 1.333 . S
N111 Zn117 2.020 . S
C112 N111 1.307 . S
C112 C116 1.370 . S
C112 H123 0.948 . S
C113 N111 1.333 . S
C113 C114 1.379 . S
C113 H121 0.952 . S
C114 C113 1.379 . S
C114 C115 1.390 . S
C114 H134 0.949 . S
C115 C114 1.390 . S
C115 C116 1.357 . S
C116 C112 1.370 . S
C116 C115 1.357 . S
C116 H135 0.950 . S
Zn117 N111 2.020 . S
Zn117 O120 2.025 . S
Zn117 O125 2.024 . S
Zn117 O127 2.039 . S
Zn117 O129 2.034 . S
O118 C102 1.251 . S
O118 Zn109 2.039 . S
C119 O124 1.246 . S
C119 O125 1.249 . S
O120 C102 1.254 . S
O120 Zn117 2.025 . S
H121 C113 0.952 . S
H122 C104 0.952 . S
H123 C112 0.948 . S
O124 Zn109 2.034 . S
O124 C119 1.246 . S
O125 Zn117 2.024 . S
O125 C119 1.249 . S
H126 C108 0.948 . S
O127 Zn117 2.039 . S
O127 C131 1.251 . S
O128 Zn109 2.025 . S
O128 C131 1.254 . S
O129 C110 1.246 . S
O129 Zn117 2.034 . S
O130 Zn109 2.024 . S
O130 C110 1.249 . S
C131 O127 1.251 . S
C131 O128 1.254 . S
H132 C105 0.949 . S
H133 C107 0.950 . S
H134 C114 0.949 . S
H135 C116 0.950 . S
C136 O152 1.251 . S
C136 O154 1.254 . S
N137 C138 1.333 . S
N137 C142 1.307 . S
N137 Zn143 2.020 . S
C138 N137 1.333 . S
C138 C139 1.379 . S
C138 H156 0.952 . S
C139 C138 1.379 . S
C139 C140 1.390 . S
C139 H166 0.949 . S
C140 C139 1.390 . S
C140 C141 1.357 . S
C141 C140 1.357 . S
C141 C142 1.370 . S
C141 H167 0.950 . S
C142 N137 1.307 . S
C142 C141 1.370 . S
C142 H160 0.948 . S
Zn143 N137 2.020 . S
Zn143 O152 2.039 . S
Zn143 O158 2.034 . S
Zn143 O162 2.025 . S
Zn143 O164 2.024 . S
C144 O163 1.246 . S
C144 O164 1.249 . S
N145 C146 1.307 . S
N145 C147 1.333 . S
N145 Zn151 2.020 . S
C146 N145 1.307 . S
C146 C150 1.370 . S
C146 H157 0.948 . S
C147 N145 1.333 . S
C147 C148 1.379 . S
C147 H155 0.952 . S
C148 C147 1.379 . S
C148 C149 1.390 . S
C148 H168 0.949 . S
C149 C148 1.390 . S
C149 C150 1.357 . S
C150 C146 1.370 . S
C150 C149 1.357 . S
C150 H169 0.950 . S
Zn151 N145 2.020 . S
Zn151 O154 2.025 . S
Zn151 O159 2.024 . S
Zn151 O161 2.039 . S
Zn151 O163 2.034 . S
O152 C136 1.251 . S
O152 Zn143 2.039 . S
C153 O158 1.246 . S
C153 O159 1.249 . S
O154 C136 1.254 . S
O154 Zn151 2.025 . S
H155 C147 0.952 . S
H156 C138 0.952 . S
H157 C146 0.948 . S
O158 Zn143 2.034 . S
O158 C153 1.246 . S
O159 Zn151 2.024 . S
O159 C153 1.249 . S
H160 C142 0.948 . S
O161 Zn151 2.039 . S
O161 C165 1.251 . S
O162 Zn143 2.025 . S
O162 C165 1.254 . S
O163 C144 1.246 . S
O163 Zn151 2.034 . S
O164 Zn143 2.024 . S
O164 C144 1.249 . S
C165 O161 1.251 . S
C165 O162 1.254 . S
H166 C139 0.949 . S
H167 C141 0.950 . S
H168 C148 0.949 . S
H169 C150 0.950 . S
C170 O186 1.251 . S
C170 O188 1.254 . S
N171 C172 1.333 . S
N171 C176 1.307 . S
N171 Zn177 2.020 . S
C172 N171 1.333 . S
C172 C173 1.379 . S
C172 H190 0.952 . S
C173 C172 1.379 . S
C173 C174 1.390 . S
C173 H200 0.949 . S
C174 C173 1.390 . S
C174 C175 1.357 . S
C175 C174 1.357 . S
C175 C176 1.370 . S
C175 H201 0.950 . S
C176 N171 1.307 . S
C176 C175 1.370 . S
C176 H194 0.948 . S
Zn177 N171 2.020 . S
Zn177 O186 2.039 . S
Zn177 O192 2.034 . S
Zn177 O196 2.025 . S
Zn177 O198 2.024 . S
C178 O197 1.246 . S
C178 O198 1.249 . S
N179 C180 1.307 . S
N179 C181 1.333 . S
N179 Zn185 2.020 . S
C180 N179 1.307 . S
C180 C184 1.370 . S
C180 H191 0.948 . S
C181 N179 1.333 . S
C181 C182 1.379 . S
C181 H189 0.952 . S
C182 C181 1.379 . S
C182 C183 1.390 . S
C182 H202 0.949 . S
C183 C182 1.390 . S
C183 C184 1.357 . S
C184 C180 1.370 . S
C184 C183 1.357 . S
C184 H203 0.950 . S
Zn185 N179 2.020 . S
Zn185 O188 2.025 . S
Zn185 O193 2.024 . S
Zn185 O195 2.039 . S
Zn185 O197 2.034 . S
O186 C170 1.251 . S
O186 Zn177 2.039 . S
C187 O192 1.246 . S
C187 O193 1.249 . S
O188 C170 1.254 . S
O188 Zn185 2.025 . S
H189 C181 0.952 . S
H190 C172 0.952 . S
H191 C180 0.948 . S
O192 Zn177 2.034 . S
O192 C187 1.246 . S
O193 Zn185 2.024 . S
O193 C187 1.249 . S
H194 C176 0.948 . S
O195 Zn185 2.039 . S
O195 C199 1.251 . S
O196 Zn177 2.025 . S
O196 C199 1.254 . S
O197 C178 1.246 . S
O197 Zn185 2.034 . S
O198 Zn177 2.024 . S
O198 C178 1.249 . S
C199 O195 1.251 . S
C199 O196 1.254 . S
H200 C173 0.949 . S
H201 C175 0.950 . S
H202 C182 0.949 . S
H203 C184 0.950 . S
C204 O220 1.251 . S
C204 O222 1.254 . S
N205 C206 1.333 . S
N205 C210 1.307 . S
N205 Zn211 2.020 . S
C206 N205 1.333 . S
C206 C207 1.379 . S
C206 H224 0.952 . S
C207 C206 1.379 . S
C207 C208 1.390 . S
C207 H234 0.949 . S
C208 C207 1.390 . S
C208 C209 1.357 . S
C209 C208 1.357 . S
C209 C210 1.370 . S
C209 H235 0.950 . S
C210 N205 1.307 . S
C210 C209 1.370 . S
C210 H228 0.948 . S
Zn211 N205 2.020 . S
Zn211 O220 2.039 . S
Zn211 O226 2.034 . S
Zn211 O230 2.025 . S
Zn211 O232 2.024 . S
C212 O231 1.246 . S
C212 O232 1.249 . S
N213 C214 1.307 . S
N213 C215 1.333 . S
N213 Zn219 2.020 . S
C214 N213 1.307 . S
C214 C218 1.370 . S
C214 H225 0.948 . S
C215 N213 1.333 . S
C215 C216 1.379 . S
C215 H223 0.952 . S
C216 C215 1.379 . S
C216 C217 1.390 . S
C216 H236 0.949 . S
C217 C216 1.390 . S
C217 C218 1.357 . S
C218 C214 1.370 . S
C218 C217 1.357 . S
C218 H237 0.950 . S
Zn219 N213 2.020 . S
Zn219 O222 2.025 . S
Zn219 O227 2.024 . S
Zn219 O229 2.039 . S
Zn219 O231 2.034 . S
O220 C204 1.251 . S
O220 Zn211 2.039 . S
C221 O226 1.246 . S
C221 O227 1.249 . S
O222 C204 1.254 . S
O222 Zn219 2.025 . S
H223 C215 0.952 . S
H224 C206 0.952 . S
H225 C214 0.948 . S
O226 Zn211 2.034 . S
O226 C221 1.246 . S
O227 Zn219 2.024 . S
O227 C221 1.249 . S
H228 C210 0.948 . S
O229 Zn219 2.039 . S
O229 C233 1.251 . S
O230 Zn211 2.025 . S
O230 C233 1.254 . S
O231 C212 1.246 . S
O231 Zn219 2.034 . S
O232 Zn211 2.024 . S
O232 C212 1.249 . S
C233 O229 1.251 . S
C233 O230 1.254 . S
H234 C207 0.949 . S
H235 C209 0.950 . S
H236 C216 0.949 . S
H237 C218 0.950 . S
C238 O254 1.251 . S
C238 O256 1.254 . S
N239 C240 1.333 . S
N239 C244 1.307 . S
N239 Zn245 2.020 . S
C240 N239 1.333 . S
C240 C241 1.379 . S
C240 H258 0.952 . S
C241 C240 1.379 . S
C241 C242 1.390 . S
C241 H268 0.949 . S
C242 C241 1.390 . S
C242 C243 1.357 . S
C243 C242 1.357 . S
C243 C244 1.370 . S
C243 H269 0.950 . S
C244 N239 1.307 . S
C244 C243 1.370 . S
C244 H262 0.948 . S
Zn245 N239 2.020 . S
Zn245 O254 2.039 . S
Zn245 O260 2.034 . S
Zn245 O264 2.025 . S
Zn245 O266 2.024 . S
C246 O265 1.246 . S
C246 O266 1.249 . S
N247 C248 1.307 . S
N247 C249 1.333 . S
N247 Zn253 2.020 . S
C248 N247 1.307 . S
C248 C252 1.370 . S
C248 H259 0.948 . S
C249 N247 1.333 . S
C249 C250 1.379 . S
C249 H257 0.952 . S
C250 C249 1.379 . S
C250 C251 1.390 . S
C250 H270 0.949 . S
C251 C250 1.390 . S
C251 C252 1.357 . S
C252 C248 1.370 . S
C252 C251 1.357 . S
C252 H271 0.950 . S
Zn253 N247 2.020 . S
Zn253 O256 2.025 . S
Zn253 O261 2.024 . S
Zn253 O263 2.039 . S
Zn253 O265 2.034 . S
O254 C238 1.251 . S
O254 Zn245 2.039 . S
C255 O260 1.246 . S
C255 O261 1.249 . S
O256 C238 1.254 . S
O256 Zn253 2.025 . S
H257 C249 0.952 . S
H258 C240 0.952 . S
H259 C248 0.948 . S
O260 Zn245 2.034 . S
O260 C255 1.246 . S
O261 Zn253 2.024 . S
O261 C255 1.249 . S
H262 C244 0.948 . S
O263 Zn253 2.039 . S
O263 C267 1.251 . S
O264 Zn245 2.025 . S
O264 C267 1.254 . S
O265 C246 1.246 . S
O265 Zn253 2.034 . S
O266 Zn245 2.024 . S
O266 C246 1.249 . S
C267 O263 1.251 . S
C267 O264 1.254 . S
H268 C241 0.949 . S
H269 C243 0.950 . S
H270 C250 0.949 . S
H271 C252 0.950 . S
C272 O288 1.251 . S
C272 O290 1.254 . S
N273 C274 1.333 . S
N273 C278 1.307 . S
N273 Zn279 2.020 . S
C274 N273 1.333 . S
C274 C275 1.379 . S
C274 H292 0.952 . S
C275 C274 1.379 . S
C275 C276 1.390 . S
C275 H302 0.949 . S
C276 C275 1.390 . S
C276 C277 1.357 . S
C277 C276 1.357 . S
C277 C278 1.370 . S
C277 H303 0.950 . S
C278 N273 1.307 . S
C278 C277 1.370 . S
C278 H296 0.948 . S
Zn279 N273 2.020 . S
Zn279 O288 2.039 . S
Zn279 O294 2.034 . S
Zn279 O298 2.025 . S
Zn279 O300 2.024 . S
C280 O299 1.246 . S
C280 O300 1.249 . S
N281 C282 1.307 . S
N281 C283 1.333 . S
N281 Zn287 2.020 . S
C282 N281 1.307 . S
C282 C286 1.370 . S
C282 H293 0.948 . S
C283 N281 1.333 . S
C283 C284 1.379 . S
C283 H291 0.952 . S
C284 C283 1.379 . S
C284 C285 1.390 . S
C284 H304 0.949 . S
C285 C284 1.390 . S
C285 C286 1.357 . S
C286 C282 1.370 . S
C286 C285 1.357 . S
C286 H305 0.950 . S
Zn287 N281 2.020 . S
Zn287 O290 2.025 . S
Zn287 O295 2.024 . S
Zn287 O297 2.039 . S
Zn287 O299 2.034 . S
O288 C272 1.251 . S
O288 Zn279 2.039 . S
C289 O294 1.246 . S
C289 O295 1.249 . S
O290 C272 1.254 . S
O290 Zn287 2.025 . S
H291 C283 0.952 . S
H292 C274 0.952 . S
H293 C282 0.948 . S
O294 Zn279 2.034 . S
O294 C289 1.246 . S
O295 Zn287 2.024 . S
O295 C289 1.249 . S
H296 C278 0.948 . S
O297 Zn287 2.039 . S
O297 C301 1.251 . S
O298 Zn279 2.025 . S
O298 C301 1.254 . S
O299 C280 1.246 . S
O299 Zn287 2.034 . S
O300 Zn279 2.024 . S
O300 C280 1.249 . S
C301 O297 1.251 . S
C301 O298 1.254 . S
H302 C275 0.949 . S
H303 C277 0.950 . S
H304 C284 0.949 . S
H305 C286 0.950 . S
C306 O322 1.251 . S
C306 O324 1.254 . S
N307 C308 1.333 . S
N307 C312 1.307 . S
N307 Zn313 2.020 . S
C308 N307 1.333 . S
C308 C309 1.379 . S
C308 H326 0.952 . S
C309 C308 1.379 . S
C309 C310 1.390 . S
C309 H336 0.949 . S
C310 C309 1.390 . S
C310 C311 1.357 . S
C311 C310 1.357 . S
C311 C312 1.370 . S
C311 H337 0.950 . S
C312 N307 1.307 . S
C312 C311 1.370 . S
C312 H330 0.948 . S
Zn313 N307 2.020 . S
Zn313 O322 2.039 . S
Zn313 O328 2.034 . S
Zn313 O332 2.025 . S
Zn313 O334 2.024 . S
C314 O333 1.246 . S
C314 O334 1.249 . S
N315 C316 1.307 . S
N315 C317 1.333 . S
N315 Zn321 2.020 . S
C316 N315 1.307 . S
C316 C320 1.370 . S
C316 H327 0.948 . S
C317 N315 1.333 . S
C317 C318 1.379 . S
C317 H325 0.952 . S
C318 C317 1.379 . S
C318 C319 1.390 . S
C318 H338 0.949 . S
C319 C318 1.390 . S
C319 C320 1.357 . S
C320 C316 1.370 . S
C320 C319 1.357 . S
C320 H339 0.950 . S
Zn321 N315 2.020 . S
Zn321 O324 2.025 . S
Zn321 O329 2.024 . S
Zn321 O331 2.039 . S
Zn321 O333 2.034 . S
O322 C306 1.251 . S
O322 Zn313 2.039 . S
C323 O328 1.246 . S
C323 O329 1.249 . S
O324 C306 1.254 . S
O324 Zn321 2.025 . S
H325 C317 0.952 . S
H326 C308 0.952 . S
H327 C316 0.948 . S
O328 Zn313 2.034 . S
O328 C323 1.246 . S
O329 Zn321 2.024 . S
O329 C323 1.249 . S
H330 C312 0.948 . S
O331 Zn321 2.039 . S
O331 C335 1.251 . S
O332 Zn313 2.025 . S
O332 C335 1.254 . S
O333 C314 1.246 . S
O333 Zn321 2.034 . S
O334 Zn313 2.024 . S
O334 C314 1.249 . S
C335 O331 1.251 . S
C335 O332 1.254 . S
H336 C309 0.949 . S
H337 C311 0.950 . S
H338 C318 0.949 . S
H339 C320 0.950 . S
C340 O356 1.251 . S
C340 O358 1.254 . S
N341 C342 1.333 . S
N341 C346 1.307 . S
N341 Zn347 2.020 . S
C342 N341 1.333 . S
C342 C343 1.379 . S
C342 H360 0.952 . S
C343 C342 1.379 . S
C343 C344 1.390 . S
C343 H370 0.949 . S
C344 C343 1.390 . S
C344 C345 1.357 . S
C345 C344 1.357 . S
C345 C346 1.370 . S
C345 H371 0.950 . S
C346 N341 1.307 . S
C346 C345 1.370 . S
C346 H364 0.948 . S
Zn347 N341 2.020 . S
Zn347 O356 2.039 . S
Zn347 O362 2.034 . S
Zn347 O366 2.025 . S
Zn347 O368 2.024 . S
C348 O367 1.246 . S
C348 O368 1.249 . S
N349 C350 1.307 . S
N349 C351 1.333 . S
N349 Zn355 2.020 . S
C350 N349 1.307 . S
C350 C354 1.370 . S
C350 H361 0.948 . S
C351 N349 1.333 . S
C351 C352 1.379 . S
C351 H359 0.952 . S
C352 C351 1.379 . S
C352 C353 1.390 . S
C352 H372 0.949 . S
C353 C352 1.390 . S
C353 C354 1.357 . S
C354 C350 1.370 . S
C354 C353 1.357 . S
C354 H373 0.950 . S
Zn355 N349 2.020 . S
Zn355 O358 2.025 . S
Zn355 O363 2.024 . S
Zn355 O365 2.039 . S
Zn355 O367 2.034 . S
O356 C340 1.251 . S
O356 Zn347 2.039 . S
C357 O362 1.246 . S
C357 O363 1.249 . S
O358 C340 1.254 . S
O358 Zn355 2.025 . S
H359 C351 0.952 . S
H360 C342 0.952 . S
H361 C350 0.948 . S
O362 Zn347 2.034 . S
O362 C357 1.246 . S
O363 Zn355 2.024 . S
O363 C357 1.249 . S
H364 C346 0.948 . S
O365 Zn355 2.039 . S
O365 C369 1.251 . S
O366 Zn347 2.025 . S
O366 C369 1.254 . S
O367 C348 1.246 . S
O367 Zn355 2.034 . S
O368 Zn347 2.024 . S
O368 C348 1.249 . S
C369 O365 1.251 . S
C369 O366 1.254 . S
H370 C343 0.949 . S
H371 C345 0.950 . S
H372 C352 0.949 . S
H373 C354 0.950 . S
C374 O390 1.251 . S
C374 O392 1.254 . S
N375 C376 1.333 . S
N375 C380 1.307 . S
N375 Zn381 2.020 . S
C376 N375 1.333 . S
C376 C377 1.379 . S
C376 H394 0.952 . S
C377 C376 1.379 . S
C377 C378 1.390 . S
C377 H404 0.949 . S
C378 C377 1.390 . S
C378 C379 1.357 . S
C379 C378 1.357 . S
C379 C380 1.370 . S
C379 H405 0.950 . S
C380 N375 1.307 . S
C380 C379 1.370 . S
C380 H398 0.948 . S
Zn381 N375 2.020 . S
Zn381 O390 2.039 . S
Zn381 O396 2.034 . S
Zn381 O400 2.025 . S
Zn381 O402 2.024 . S
C382 O401 1.246 . S
C382 O402 1.249 . S
N383 C384 1.307 . S
N383 C385 1.333 . S
N383 Zn389 2.020 . S
C384 N383 1.307 . S
C384 C388 1.370 . S
C384 H395 0.948 . S
C385 N383 1.333 . S
C385 C386 1.379 . S
C385 H393 0.952 . S
C386 C385 1.379 . S
C386 C387 1.390 . S
C386 H406 0.949 . S
C387 C386 1.390 . S
C387 C388 1.357 . S
C388 C384 1.370 . S
C388 C387 1.357 . S
C388 H407 0.950 . S
Zn389 N383 2.020 . S
Zn389 O392 2.025 . S
Zn389 O397 2.024 . S
Zn389 O399 2.039 . S
Zn389 O401 2.034 . S
O390 C374 1.251 . S
O390 Zn381 2.039 . S
C391 O396 1.246 . S
C391 O397 1.249 . S
O392 C374 1.254 . S
O392 Zn389 2.025 . S
H393 C385 0.952 . S
H394 C376 0.952 . S
H395 C384 0.948 . S
O396 Zn381 2.034 . S
O396 C391 1.246 . S
O397 Zn389 2.024 . S
O397 C391 1.249 . S
H398 C380 0.948 . S
O399 Zn389 2.039 . S
O399 C403 1.251 . S
O400 Zn381 2.025 . S
O400 C403 1.254 . S
O401 C382 1.246 . S
O401 Zn389 2.034 . S
O402 Zn381 2.024 . S
O402 C382 1.249 . S
C403 O399 1.251 . S
C403 O400 1.254 . S
H404 C377 0.949 . S
H405 C379 0.950 . S
H406 C386 0.949 . S
H407 C388 0.950 . S
C408 O424 1.251 . S
C408 O426 1.254 . S
N409 C410 1.333 1_655 S
N409 C414 1.307 1_655 S
N409 Zn415 2.020 . S
C410 N409 1.333 1_455 S
C410 C411 1.379 . S
C410 H428 0.952 1_455 S
C411 C410 1.379 . S
C411 C412 1.390 . S
C411 H438 0.949 . S
C412 C411 1.390 . S
C412 C413 1.357 . S
C413 C412 1.357 . S
C413 C414 1.370 . S
C413 H439 0.950 . S
C414 N409 1.307 1_455 S
C414 C413 1.370 . S
C414 H432 0.948 . S
Zn415 N409 2.020 . S
Zn415 O424 2.039 . S
Zn415 O430 2.034 . S
Zn415 O434 2.025 . S
Zn415 O436 2.024 . S
C416 O435 1.246 . S
C416 O436 1.249 . S
N417 C418 1.307 . S
N417 C419 1.333 . S
N417 Zn423 2.020 . S
C418 N417 1.307 . S
C418 C422 1.370 . S
C418 H429 0.948 . S
C419 N417 1.333 . S
C419 C420 1.379 . S
C419 H427 0.952 . S
C420 C419 1.379 . S
C420 C421 1.390 . S
C420 H440 0.949 . S
C421 C420 1.390 . S
C421 C422 1.357 . S
C422 C418 1.370 . S
C422 C421 1.357 . S
C422 H441 0.950 . S
Zn423 N417 2.020 . S
Zn423 O426 2.025 . S
Zn423 O431 2.024 . S
Zn423 O433 2.039 . S
Zn423 O435 2.034 . S
O424 C408 1.251 . S
O424 Zn415 2.039 . S
C425 O430 1.246 . S
C425 O431 1.249 . S
O426 C408 1.254 . S
O426 Zn423 2.025 . S
H427 C419 0.952 . S
H428 C410 0.952 1_655 S
H429 C418 0.948 . S
O430 Zn415 2.034 . S
O430 C425 1.246 . S
O431 Zn423 2.024 . S
O431 C425 1.249 . S
H432 C414 0.948 . S
O433 Zn423 2.039 . S
O433 C437 1.251 . S
O434 Zn415 2.025 . S
O434 C437 1.254 . S
O435 C416 1.246 . S
O435 Zn423 2.034 . S
O436 Zn415 2.024 . S
O436 C416 1.249 . S
C437 O433 1.251 . S
C437 O434 1.254 . S
H438 C411 0.949 . S
H439 C413 0.950 . S
H440 C420 0.949 . S
H441 C422 0.950 . S
C442 O458 1.251 . S
C442 O460 1.254 . S
N443 C444 1.333 . S
N443 C448 1.307 . S
N443 Zn449 2.020 . S
C444 N443 1.333 . S
C444 C445 1.379 . S
C444 H462 0.952 . S
C445 C444 1.379 . S
C445 C446 1.390 . S
C445 H472 0.949 . S
C446 C445 1.390 . S
C446 C447 1.357 . S
C447 C446 1.357 . S
C447 C448 1.370 . S
C447 H473 0.950 . S
C448 N443 1.307 . S
C448 C447 1.370 . S
C448 H466 0.948 . S
Zn449 N443 2.020 . S
Zn449 O458 2.039 . S
Zn449 O464 2.034 . S
Zn449 O468 2.025 . S
Zn449 O470 2.024 . S
C450 O469 1.246 . S
C450 O470 1.249 . S
N451 C452 1.307 . S
N451 C453 1.333 . S
N451 Zn457 2.020 . S
C452 N451 1.307 . S
C452 C456 1.370 . S
C452 H463 0.948 . S
C453 N451 1.333 . S
C453 C454 1.379 . S
C453 H461 0.952 . S
C454 C453 1.379 . S
C454 C455 1.390 . S
C454 H474 0.949 . S
C455 C454 1.390 . S
C455 C456 1.357 . S
C456 C452 1.370 . S
C456 C455 1.357 . S
C456 H475 0.950 . S
Zn457 N451 2.020 . S
Zn457 O460 2.025 . S
Zn457 O465 2.024 . S
Zn457 O467 2.039 . S
Zn457 O469 2.034 . S
O458 C442 1.251 . S
O458 Zn449 2.039 . S
C459 O464 1.246 . S
C459 O465 1.249 . S
O460 C442 1.254 . S
O460 Zn457 2.025 . S
H461 C453 0.952 . S
H462 C444 0.952 . S
H463 C452 0.948 . S
O464 Zn449 2.034 . S
O464 C459 1.246 . S
O465 Zn457 2.024 . S
O465 C459 1.249 . S
H466 C448 0.948 . S
O467 Zn457 2.039 . S
O467 C471 1.251 . S
O468 Zn449 2.025 . S
O468 C471 1.254 . S
O469 C450 1.246 . S
O469 Zn457 2.034 . S
O470 Zn449 2.024 . S
O470 C450 1.249 . S
C471 O467 1.251 . S
C471 O468 1.254 . S
H472 C445 0.949 . S
H473 C447 0.950 . S
H474 C454 0.949 . S
H475 C456 0.950 . S
C476 O492 1.251 . S
C476 O494 1.254 . S
N477 C478 1.333 1_545 S
N477 C482 1.307 1_545 S
N477 Zn483 2.020 . S
C478 N477 1.333 1_565 S
C478 C479 1.379 . S
C478 H496 0.952 1_565 S
C479 C478 1.379 . S
C479 C480 1.390 . S
C479 H506 0.949 . S
C480 C479 1.390 . S
C480 C481 1.357 . S
C481 C480 1.357 . S
C481 C482 1.370 . S
C481 H507 0.950 . S
C482 N477 1.307 1_565 S
C482 C481 1.370 . S
C482 H500 0.948 . S
Zn483 N477 2.020 . S
Zn483 O492 2.039 . S
Zn483 O498 2.034 . S
Zn483 O502 2.025 . S
Zn483 O504 2.024 . S
C484 O503 1.246 . S
C484 O504 1.249 . S
N485 C486 1.307 . S
N485 C487 1.333 . S
N485 Zn491 2.020 . S
C486 N485 1.307 . S
C486 C490 1.370 . S
C486 H497 0.948 . S
C487 N485 1.333 . S
C487 C488 1.379 . S
C487 H495 0.952 . S
C488 C487 1.379 . S
C488 C489 1.390 . S
C488 H508 0.949 . S
C489 C488 1.390 . S
C489 C490 1.357 . S
C490 C486 1.370 . S
C490 C489 1.357 . S
C490 H509 0.950 . S
Zn491 N485 2.020 . S
Zn491 O494 2.025 . S
Zn491 O499 2.024 . S
Zn491 O501 2.039 . S
Zn491 O503 2.034 . S
O492 C476 1.251 . S
O492 Zn483 2.039 . S
C493 O498 1.246 . S
C493 O499 1.249 . S
O494 C476 1.254 . S
O494 Zn491 2.025 . S
H495 C487 0.952 . S
H496 C478 0.952 1_545 S
H497 C486 0.948 . S
O498 Zn483 2.034 . S
O498 C493 1.246 . S
O499 Zn491 2.024 . S
O499 C493 1.249 . S
H500 C482 0.948 . S
O501 Zn491 2.039 . S
O501 C505 1.251 . S
O502 Zn483 2.025 . S
O502 C505 1.254 . S
O503 C484 1.246 . S
O503 Zn491 2.034 . S
O504 Zn483 2.024 . S
O504 C484 1.249 . S
C505 O501 1.251 . S
C505 O502 1.254 . S
H506 C479 0.949 . S
H507 C481 0.950 . S
H508 C488 0.949 . S
H509 C490 0.950 . S
C510 O526 1.251 . S
C510 O528 1.254 . S
N511 C512 1.333 . S
N511 C516 1.307 . S
N511 Zn517 2.020 . S
C512 N511 1.333 . S
C512 C513 1.379 . S
C512 H530 0.952 . S
C513 C512 1.379 . S
C513 C514 1.390 . S
C513 H540 0.949 . S
C514 C513 1.390 . S
C514 C515 1.357 . S
C515 C514 1.357 . S
C515 C516 1.370 . S
C515 H541 0.950 . S
C516 N511 1.307 . S
C516 C515 1.370 . S
C516 H534 0.948 . S
Zn517 N511 2.020 . S
Zn517 O526 2.039 . S
Zn517 O532 2.034 . S
Zn517 O536 2.025 . S
Zn517 O538 2.024 . S
C518 O537 1.246 . S
C518 O538 1.249 . S
N519 C520 1.307 1_545 S
N519 C521 1.333 1_545 S
N519 Zn525 2.020 . S
C520 N519 1.307 1_565 S
C520 C524 1.370 . S
C520 H531 0.948 . S
C521 N519 1.333 1_565 S
C521 C522 1.379 . S
C521 H529 0.952 1_565 S
C522 C521 1.379 . S
C522 C523 1.390 . S
C522 H542 0.949 . S
C523 C522 1.390 . S
C523 C524 1.357 . S
C524 C520 1.370 . S
C524 C523 1.357 . S
C524 H543 0.950 . S
Zn525 N519 2.020 . S
Zn525 O528 2.025 . S
Zn525 O533 2.024 . S
Zn525 O535 2.039 . S
Zn525 O537 2.034 . S
O526 C510 1.251 . S
O526 Zn517 2.039 . S
C527 O532 1.246 . S
C527 O533 1.249 . S
O528 C510 1.254 . S
O528 Zn525 2.025 . S
H529 C521 0.952 1_545 S
H530 C512 0.952 . S
H531 C520 0.948 . S
O532 Zn517 2.034 . S
O532 C527 1.246 . S
O533 Zn525 2.024 . S
O533 C527 1.249 . S
H534 C516 0.948 . S
O535 Zn525 2.039 . S
O535 C539 1.251 . S
O536 Zn517 2.025 . S
O536 C539 1.254 . S
O537 C518 1.246 . S
O537 Zn525 2.034 . S
O538 Zn517 2.024 . S
O538 C518 1.249 . S
C539 O535 1.251 . S
C539 O536 1.254 . S
H540 C513 0.949 . S
H541 C515 0.950 . S
H542 C522 0.949 . S
H543 C524 0.950 . S
C544 O560 1.251 . S
C544 O562 1.254 . S
N545 C546 1.333 . S
N545 C550 1.307 . S
N545 Zn551 2.020 . S
C546 N545 1.333 . S
C546 C547 1.379 . S
C546 H564 0.952 . S
C547 C546 1.379 . S
C547 C548 1.390 . S
C547 H574 0.949 . S
C548 C547 1.390 . S
C548 C549 1.357 . S
C549 C548 1.357 . S
C549 C550 1.370 . S
C549 H575 0.950 . S
C550 N545 1.307 . S
C550 C549 1.370 . S
C550 H568 0.948 . S
Zn551 N545 2.020 . S
Zn551 O560 2.039 . S
Zn551 O566 2.034 . S
Zn551 O570 2.025 . S
Zn551 O572 2.024 . S
C552 O571 1.246 . S
C552 O572 1.249 . S
N553 C554 1.307 1_655 S
N553 C555 1.333 1_655 S
N553 Zn559 2.020 . S
C554 N553 1.307 1_455 S
C554 C558 1.370 . S
C554 H565 0.948 . S
C555 N553 1.333 1_455 S
C555 C556 1.379 . S
C555 H563 0.952 1_455 S
C556 C555 1.379 . S
C556 C557 1.390 . S
C556 H576 0.949 . S
C557 C556 1.390 . S
C557 C558 1.357 . S
C558 C554 1.370 . S
C558 C557 1.357 . S
C558 H577 0.950 . S
Zn559 N553 2.020 . S
Zn559 O562 2.025 . S
Zn559 O567 2.024 . S
Zn559 O569 2.039 . S
Zn559 O571 2.034 . S
O560 C544 1.251 . S
O560 Zn551 2.039 . S
C561 O566 1.246 . S
C561 O567 1.249 . S
O562 C544 1.254 . S
O562 Zn559 2.025 . S
H563 C555 0.952 1_655 S
H564 C546 0.952 . S
H565 C554 0.948 . S
O566 Zn551 2.034 . S
O566 C561 1.246 . S
O567 Zn559 2.024 . S
O567 C561 1.249 . S
H568 C550 0.948 . S
O569 Zn559 2.039 . S
O569 C573 1.251 . S
O570 Zn551 2.025 . S
O570 C573 1.254 . S
O571 C552 1.246 . S
O571 Zn559 2.034 . S
O572 Zn551 2.024 . S
O572 C552 1.249 . S
C573 O569 1.251 . S
C573 O570 1.254 . S
H574 C547 0.949 . S
H575 C549 0.950 . S
H576 C556 0.949 . S
H577 C558 0.950 . S
C578 O594 1.251 . S
C578 O596 1.254 . S
N579 C580 1.333 . S
N579 C584 1.307 . S
N579 Zn585 2.020 . S
C580 N579 1.333 . S
C580 C581 1.379 . S
C580 H598 0.952 . S
C581 C580 1.379 . S
C581 C582 1.390 . S
C581 H608 0.949 . S
C582 C581 1.390 . S
C582 C583 1.357 . S
C583 C582 1.357 . S
C583 C584 1.370 . S
C583 H609 0.950 . S
C584 N579 1.307 . S
C584 C583 1.370 . S
C584 H602 0.948 . S
Zn585 N579 2.020 . S
Zn585 O594 2.039 . S
Zn585 O600 2.034 . S
Zn585 O604 2.025 . S
Zn585 O606 2.024 . S
C586 O605 1.246 . S
C586 O606 1.249 . S
N587 C588 1.307 . S
N587 C589 1.333 . S
N587 Zn593 2.020 . S
C588 N587 1.307 . S
C588 C592 1.370 . S
C588 H599 0.948 . S
C589 N587 1.333 . S
C589 C590 1.379 . S
C589 H597 0.952 . S
C590 C589 1.379 . S
C590 C591 1.390 . S
C590 H610 0.949 . S
C591 C590 1.390 . S
C591 C592 1.357 . S
C592 C588 1.370 . S
C592 C591 1.357 . S
C592 H611 0.950 . S
Zn593 N587 2.020 . S
Zn593 O596 2.025 . S
Zn593 O601 2.024 . S
Zn593 O603 2.039 . S
Zn593 O605 2.034 . S
O594 C578 1.251 . S
O594 Zn585 2.039 . S
C595 O600 1.246 . S
C595 O601 1.249 . S
O596 C578 1.254 . S
O596 Zn593 2.025 . S
H597 C589 0.952 . S
H598 C580 0.952 . S
H599 C588 0.948 . S
O600 Zn585 2.034 . S
O600 C595 1.246 . S
O601 Zn593 2.024 . S
O601 C595 1.249 . S
H602 C584 0.948 . S
O603 Zn593 2.039 . S
O603 C607 1.251 . S
O604 Zn585 2.025 . S
O604 C607 1.254 . S
O605 C586 1.246 . S
O605 Zn593 2.034 . S
O606 Zn585 2.024 . S
O606 C586 1.249 . S
C607 O603 1.251 . S
C607 O604 1.254 . S
H608 C581 0.949 . S
H609 C583 0.950 . S
H610 C590 0.949 . S
H611 C592 0.950 . S
H612 C618 0.930 . S
H613 C621 0.930 . S
H614 C622 0.930 . S
H615 C623 0.930 . S
H616 C626 0.930 . S
H617 C627 0.930 . S
C618 H612 0.930 . S
C618 C619 1.355 1_554 S
C618 C620 1.415 . S
C619 C618 1.355 1_556 S
C619 C621 1.419 . S
C620 C618 1.415 . S
C620 C625 1.425 . S
C620 C627 1.409 . S
C621 H613 0.930 . S
C621 C619 1.419 . S
C621 C622 1.362 . S
C622 H614 0.930 . S
C622 C621 1.362 . S
C622 C625 1.409 1_556 S
C623 H615 0.930 . S
C623 C624 1.355 . S
C623 C625 1.415 . S
C624 C623 1.355 . S
C624 C626 1.419 . S
C625 C620 1.425 . S
C625 C622 1.409 1_554 S
C625 C623 1.415 . S
C626 H616 0.930 . S
C626 C624 1.419 . S
C626 C627 1.362 . S
C627 H617 0.930 . S
C627 C620 1.409 . S
C627 C626 1.362 . S
H628 C634 0.930 . S
H629 C637 0.930 . S
H630 C638 0.930 . S
H631 C639 0.930 . S
H632 C642 0.930 . S
H633 C643 0.930 . S
C634 H628 0.930 . S
C634 C635 1.355 . S
C634 C636 1.415 . S
C635 C634 1.355 . S
C635 C637 1.419 . S
C636 C634 1.415 . S
C636 C641 1.425 . S
C636 C643 1.409 . S
C637 H629 0.930 . S
C637 C635 1.419 . S
C637 C638 1.362 . S
C638 H630 0.930 . S
C638 C637 1.362 . S
C638 C641 1.409 . S
C639 H631 0.930 . S
C639 C640 1.355 1_554 S
C639 C641 1.415 . S
C640 C639 1.355 1_556 S
C640 C642 1.419 . S
C641 C636 1.425 . S
C641 C638 1.409 . S
C641 C639 1.415 . S
C642 H632 0.930 . S
C642 C640 1.419 . S
C642 C643 1.362 1_556 S
C643 H633 0.930 . S
C643 C636 1.409 . S
C643 C642 1.362 1_554 S
H644 C650 0.930 . S
H645 C653 0.930 . S
H646 C654 0.930 . S
H647 C655 0.930 . S
H648 C658 0.930 . S
H649 C659 0.930 . S
C650 H644 0.930 . S
C650 C651 1.355 . S
C650 C652 1.415 . S
C651 C650 1.355 . S
C651 C653 1.419 1_556 S
C652 C650 1.415 . S
C652 C657 1.425 1_556 S
C652 C659 1.409 . S
C653 H645 0.930 . S
C653 C651 1.419 1_554 S
C653 C654 1.362 . S
C654 H646 0.930 . S
C654 C653 1.362 . S
C654 C657 1.409 . S
C655 H647 0.930 . S
C655 C656 1.355 . S
C655 C657 1.415 . S
C656 C655 1.355 . S
C656 C658 1.419 1_554 S
C657 C652 1.425 1_554 S
C657 C654 1.409 . S
C657 C655 1.415 . S
C658 H648 0.930 . S
C658 C656 1.419 1_556 S
C658 C659 1.362 . S
C659 H649 0.930 . S
C659 C652 1.409 . S
C659 C658 1.362 . S
H660 C666 0.930 . S
H661 C669 0.930 . S
H662 C670 0.930 . S
H663 C671 0.930 . S
H664 C674 0.930 . S
H665 C675 0.930 . S
C666 H660 0.930 . S
C666 C667 1.355 . S
C666 C668 1.415 . S
C667 C666 1.355 . S
C667 C669 1.419 . S
C668 C666 1.415 . S
C668 C673 1.425 . S
C668 C675 1.409 . S
C669 H661 0.930 . S
C669 C667 1.419 . S
C669 C670 1.362 . S
C670 H662 0.930 . S
C670 C669 1.362 . S
C670 C673 1.409 . S
C671 H663 0.930 . S
C671 C672 1.355 . S
C671 C673 1.415 . S
C672 C671 1.355 . S
C672 C674 1.419 . S
C673 C668 1.425 . S
C673 C670 1.409 . S
C673 C671 1.415 . S
C674 H664 0.930 . S
C674 C672 1.419 . S
C674 C675 1.362 . S
C675 H665 0.930 . S
C675 C668 1.409 . S
C675 C674 1.362 . S
H676 C682 0.930 . S
H677 C685 0.930 . S
H678 C686 0.930 . S
H679 C687 0.930 . S
H680 C690 0.930 . S
H681 C691 0.930 . S
C682 H676 0.930 . S
C682 C683 1.355 . S
C682 C684 1.415 . S
C683 C682 1.355 . S
C683 C685 1.419 . S
C684 C682 1.415 . S
C684 C689 1.425 . S
C684 C691 1.409 . S
C685 H677 0.930 . S
C685 C683 1.419 . S
C685 C686 1.362 . S
C686 H678 0.930 . S
C686 C685 1.362 . S
C686 C689 1.409 . S
C687 H679 0.930 . S
C687 C688 1.355 . S
C687 C689 1.415 . S
C688 C687 1.355 . S
C688 C690 1.419 . S
C689 C684 1.425 . S
C689 C686 1.409 . S
C689 C687 1.415 . S
C690 H680 0.930 . S
C690 C688 1.419 . S
C690 C691 1.362 . S
C691 H681 0.930 . S
C691 C684 1.409 . S
C691 C690 1.362 . S
H692 C698 0.930 . S
H693 C701 0.930 . S
H694 C702 0.930 . S
H695 C703 0.930 . S
H696 C706 0.930 . S
H697 C707 0.930 . S
C698 H692 0.930 . S
C698 C699 1.355 . S
C698 C700 1.415 . S
C699 C698 1.355 . S
C699 C701 1.419 . S
C700 C698 1.415 . S
C700 C705 1.425 . S
C700 C707 1.409 . S
C701 H693 0.930 . S
C701 C699 1.419 . S
C701 C702 1.362 . S
C702 H694 0.930 . S
C702 C701 1.362 . S
C702 C705 1.409 . S
C703 H695 0.930 . S
C703 C704 1.355 . S
C703 C705 1.415 . S
C704 C703 1.355 . S
C704 C706 1.419 . S
C705 C700 1.425 . S
C705 C702 1.409 . S
C705 C703 1.415 . S
C706 H696 0.930 . S
C706 C704 1.419 . S
C706 C707 1.362 . S
C707 H697 0.930 . S
C707 C700 1.409 . S
C707 C706 1.362 . S
H708 C714 0.930 . S
H709 C717 0.930 . S
H710 C718 0.930 . S
H711 C719 0.930 . S
H712 C722 0.930 . S
H713 C723 0.930 . S
C714 H708 0.930 . S
C714 C715 1.355 . S
C714 C716 1.415 . S
C715 C714 1.355 . S
C715 C717 1.419 . S
C716 C714 1.415 . S
C716 C721 1.425 . S
C716 C723 1.409 . S
C717 H709 0.930 . S
C717 C715 1.419 . S
C717 C718 1.362 . S
C718 H710 0.930 . S
C718 C717 1.362 . S
C718 C721 1.409 . S
C719 H711 0.930 . S
C719 C720 1.355 . S
C719 C721 1.415 . S
C720 C719 1.355 . S
C720 C722 1.419 . S
C721 C716 1.425 . S
C721 C718 1.409 . S
C721 C719 1.415 . S
C722 H712 0.930 . S
C722 C720 1.419 . S
C722 C723 1.362 . S
C723 H713 0.930 . S
C723 C716 1.409 . S
C723 C722 1.362 . S
H724 C730 0.930 . S
H725 C733 0.930 . S
H726 C734 0.930 . S
H727 C735 0.930 . S
H728 C738 0.930 . S
H729 C739 0.930 . S
C730 H724 0.930 . S
C730 C731 1.355 . S
C730 C732 1.415 . S
C731 C730 1.355 . S
C731 C733 1.419 . S
C732 C730 1.415 . S
C732 C737 1.425 . S
C732 C739 1.409 . S
C733 H725 0.930 . S
C733 C731 1.419 . S
C733 C734 1.362 . S
C734 H726 0.930 . S
C734 C733 1.362 . S
C734 C737 1.409 . S
C735 H727 0.930 . S
C735 C736 1.355 . S
C735 C737 1.415 . S
C736 C735 1.355 . S
C736 C738 1.419 . S
C737 C732 1.425 . S
C737 C734 1.409 . S
C737 C735 1.415 . S
C738 H728 0.930 . S
C738 C736 1.419 . S
C738 C739 1.362 . S
C739 H729 0.930 . S
C739 C732 1.409 . S
C739 C738 1.362 . S
H740 C746 0.930 . S
H741 C749 0.930 . S
H742 C750 0.930 . S
H743 C751 0.930 . S
H744 C754 0.930 . S
H745 C755 0.930 . S
C746 H740 0.930 . S
C746 C747 1.355 . S
C746 C748 1.415 . S
C747 C746 1.355 . S
C747 C749 1.419 . S
C748 C746 1.415 . S
C748 C753 1.425 . S
C748 C755 1.409 . S
C749 H741 0.930 . S
C749 C747 1.419 . S
C749 C750 1.362 . S
C750 H742 0.930 . S
C750 C749 1.362 . S
C750 C753 1.409 . S
C751 H743 0.930 . S
C751 C752 1.355 . S
C751 C753 1.415 . S
C752 C751 1.355 . S
C752 C754 1.419 . S
C753 C748 1.425 . S
C753 C750 1.409 . S
C753 C751 1.415 . S
C754 H744 0.930 . S
C754 C752 1.419 . S
C754 C755 1.362 . S
C755 H745 0.930 . S
C755 C748 1.409 . S
C755 C754 1.362 . S
H756 C762 0.930 . S
H757 C765 0.930 . S
H758 C766 0.930 . S
H759 C767 0.930 . S
H760 C770 0.930 . S
H761 C771 0.930 . S
C762 H756 0.930 . S
C762 C763 1.355 . S
C762 C764 1.415 . S
C763 C762 1.355 . S
C763 C765 1.419 . S
C764 C762 1.415 . S
C764 C769 1.425 . S
C764 C771 1.409 . S
C765 H757 0.930 . S
C765 C763 1.419 . S
C765 C766 1.362 . S
C766 H758 0.930 . S
C766 C765 1.362 . S
C766 C769 1.409 . S
C767 H759 0.930 . S
C767 C768 1.355 . S
C767 C769 1.415 . S
C768 C767 1.355 . S
C768 C770 1.419 . S
C769 C764 1.425 . S
C769 C766 1.409 . S
C769 C767 1.415 . S
C770 H760 0.930 . S
C770 C768 1.419 . S
C770 C771 1.362 . S
C771 H761 0.930 . S
C771 C764 1.409 . S
C771 C770 1.362 . S
H772 C778 0.930 . S
H773 C781 0.930 . S
H774 C782 0.930 . S
H775 C783 0.930 . S
H776 C786 0.930 . S
H777 C787 0.930 . S
C778 H772 0.930 . S
C778 C779 1.355 . S
C778 C780 1.415 . S
C779 C778 1.355 . S
C779 C781 1.419 . S
C780 C778 1.415 . S
C780 C785 1.425 . S
C780 C787 1.409 . S
C781 H773 0.930 . S
C781 C779 1.419 . S
C781 C782 1.362 . S
C782 H774 0.930 . S
C782 C781 1.362 . S
C782 C785 1.409 . S
C783 H775 0.930 . S
C783 C784 1.355 . S
C783 C785 1.415 . S
C784 C783 1.355 . S
C784 C786 1.419 . S
C785 C780 1.425 . S
C785 C782 1.409 . S
C785 C783 1.415 . S
C786 H776 0.930 . S
C786 C784 1.419 . S
C786 C787 1.362 . S
C787 H777 0.930 . S
C787 C780 1.409 . S
C787 C786 1.362 . S
H788 C794 0.930 . S
H789 C797 0.930 . S
H790 C798 0.930 . S
H791 C799 0.930 . S
H792 C802 0.930 . S
H793 C803 0.930 . S
C794 H788 0.930 . S
C794 C795 1.355 . S
C794 C796 1.415 . S
C795 C794 1.355 . S
C795 C797 1.419 . S
C796 C794 1.415 . S
C796 C801 1.425 . S
C796 C803 1.409 . S
C797 H789 0.930 . S
C797 C795 1.419 . S
C797 C798 1.362 . S
C798 H790 0.930 . S
C798 C797 1.362 . S
C798 C801 1.409 . S
C799 H791 0.930 . S
C799 C800 1.355 . S
C799 C801 1.415 . S
C800 C799 1.355 . S
C800 C802 1.419 . S
C801 C796 1.425 . S
C801 C798 1.409 . S
C801 C799 1.415 . S
C802 H792 0.930 . S
C802 C800 1.419 . S
C802 C803 1.362 . S
C803 H793 0.930 . S
C803 C796 1.409 . S
C803 C802 1.362 . S
H804 C810 0.930 . S
H805 C813 0.930 . S
H806 C814 0.930 . S
H807 C815 0.930 . S
H808 C818 0.930 . S
H809 C819 0.930 . S
C810 H804 0.930 . S
C810 C811 1.355 . S
C810 C812 1.415 . S
C811 C810 1.355 . S
C811 C813 1.419 . S
C812 C810 1.415 . S
C812 C817 1.425 . S
C812 C819 1.409 . S
C813 H805 0.930 . S
C813 C811 1.419 . S
C813 C814 1.362 . S
C814 H806 0.930 . S
C814 C813 1.362 . S
C814 C817 1.409 . S
C815 H807 0.930 . S
C815 C816 1.355 . S
C815 C817 1.415 . S
C816 C815 1.355 . S
C816 C818 1.419 . S
C817 C812 1.425 . S
C817 C814 1.409 . S
C817 C815 1.415 . S
C818 H808 0.930 . S
C818 C816 1.419 . S
C818 C819 1.362 . S
C819 H809 0.930 . S
C819 C812 1.409 . S
C819 C818 1.362 . S
H820 C826 0.930 . S
H821 C829 0.930 . S
H822 C830 0.930 . S
H823 C831 0.930 . S
H824 C834 0.930 . S
H825 C835 0.930 . S
C826 H820 0.930 . S
C826 C827 1.355 . S
C826 C828 1.415 . S
C827 C826 1.355 . S
C827 C829 1.419 . S
C828 C826 1.415 . S
C828 C833 1.420 . S
C828 C835 1.409 1_545 S
C829 H821 0.930 . S
C829 C827 1.419 . S
C829 C830 1.362 . S
C830 H822 0.930 . S
C830 C829 1.362 . S
C830 C833 1.420 . S
C831 H823 0.930 . S
C831 C832 1.355 . S
C831 C833 1.409 1_565 S
C832 C831 1.355 . S
C832 C834 1.419 . S
C833 C828 1.420 . S
C833 C830 1.420 . S
C833 C831 1.409 1_545 S
C834 H824 0.930 . S
C834 C832 1.419 . S
C834 C835 1.362 . S
C835 H825 0.930 . S
C835 C828 1.409 1_565 S
C835 C834 1.362 . S
H836 C842 0.930 . S
H837 C845 0.930 . S
H838 C846 0.930 . S
H839 C847 0.930 . S
H840 C850 0.930 . S
H841 C851 0.930 . S
C842 H836 0.930 . S
C842 C843 1.355 . S
C842 C844 1.415 . S
C843 C842 1.355 . S
C843 C845 1.419 . S
C844 C842 1.415 . S
C844 C849 1.425 1_655 S
C844 C851 1.409 1_655 S
C845 H837 0.930 . S
C845 C843 1.419 . S
C845 C846 1.362 . S
C846 H838 0.930 . S
C846 C845 1.362 . S
C846 C849 1.409 1_655 S
C847 H839 0.930 . S
C847 C848 1.355 . S
C847 C849 1.415 . S
C848 C847 1.355 . S
C848 C850 1.419 . S
C849 C844 1.425 1_455 S
C849 C846 1.409 1_455 S
C849 C847 1.415 . S
C850 H840 0.930 . S
C850 C848 1.419 . S
C850 C851 1.362 . S
C851 H841 0.930 . S
C851 C844 1.409 1_455 S
C851 C850 1.362 . S
H852 C858 0.930 . S
H853 C861 0.930 . S
H854 C862 0.930 . S
H855 C863 0.930 . S
H856 C866 0.930 . S
H857 C867 0.930 . S
C858 H852 0.930 . S
C858 C859 1.355 . S
C858 C860 1.415 . S
C859 C858 1.355 . S
C859 C861 1.419 . S
C860 C858 1.415 . S
C860 C865 1.425 . S
C860 C867 1.409 . S
C861 H853 0.930 . S
C861 C859 1.419 . S
C861 C862 1.362 . S
C862 H854 0.930 . S
C862 C861 1.362 . S
C862 C865 1.409 . S
C863 H855 0.930 . S
C863 C864 1.355 . S
C863 C865 1.415 . S
C864 C863 1.355 . S
C864 C866 1.419 . S
C865 C860 1.425 . S
C865 C862 1.409 . S
C865 C863 1.415 . S
C866 H856 0.930 . S
C866 C864 1.419 . S
C866 C867 1.362 . S
C867 H857 0.930 . S
C867 C860 1.409 . S
C867 C866 1.362 . S
H868 C874 0.930 . S
H869 C877 0.930 . S
H870 C878 0.930 . S
H871 C879 0.930 . S
H872 C882 0.930 . S
H873 C883 0.930 . S
C874 H868 0.930 . S
C874 C875 1.355 . S
C874 C876 1.415 . S
C875 C874 1.355 . S
C875 C877 1.419 . S
C876 C874 1.415 . S
C876 C881 1.425 1_565 S
C876 C883 1.409 1_565 S
C877 H869 0.930 . S
C877 C875 1.419 . S
C877 C878 1.362 . S
C878 H870 0.930 . S
C878 C877 1.362 . S
C878 C881 1.409 1_565 S
C879 H871 0.930 . S
C879 C880 1.355 . S
C879 C881 1.415 . S
C880 C879 1.355 . S
C880 C882 1.419 . S
C881 C876 1.425 1_545 S
C881 C878 1.409 1_545 S
C881 C879 1.415 . S
C882 H872 0.930 . S
C882 C880 1.419 . S
C882 C883 1.362 . S
C883 H873 0.930 . S
C883 C876 1.409 1_545 S
C883 C882 1.362 . S
H884 C890 0.930 . S
H885 C893 0.930 . S
H886 C894 0.930 . S
H887 C895 0.930 . S
H888 C898 0.930 . S
H889 C899 0.930 . S
C890 H884 0.930 . S
C890 C891 1.355 . S
C890 C892 1.415 . S
C891 C890 1.355 . S
C891 C893 1.419 . S
C892 C890 1.415 . S
C892 C897 1.425 1_455 S
C892 C899 1.409 1_455 S
C893 H885 0.930 . S
C893 C891 1.419 . S
C893 C894 1.362 . S
C894 H886 0.930 . S
C894 C893 1.362 . S
C894 C897 1.409 1_455 S
C895 H887 0.930 . S
C895 C896 1.355 . S
C895 C897 1.415 . S
C896 C895 1.355 . S
C896 C898 1.419 . S
C897 C892 1.425 1_655 S
C897 C894 1.409 1_655 S
C897 C895 1.415 . S
C898 H888 0.930 . S
C898 C896 1.419 . S
C898 C899 1.362 . S
C899 H889 0.930 . S
C899 C892 1.409 1_655 S
C899 C898 1.362 . S
H900 C906 0.930 . S
H901 C909 0.930 . S
H902 C910 0.930 . S
H903 C911 0.930 . S
H904 C914 0.930 . S
H905 C915 0.930 . S
C906 H900 0.930 . S
C906 C907 1.355 . S
C906 C908 1.415 . S
C907 C906 1.355 . S
C907 C909 1.419 . S
C908 C906 1.415 . S
C908 C913 1.425 . S
C908 C915 1.409 . S
C909 H901 0.930 . S
C909 C907 1.419 . S
C909 C910 1.362 . S
C910 H902 0.930 . S
C910 C909 1.362 . S
C910 C913 1.409 . S
C911 H903 0.930 . S
C911 C912 1.355 . S
C911 C913 1.415 . S
C912 C911 1.355 . S
C912 C914 1.419 . S
C913 C908 1.425 . S
C913 C910 1.409 . S
C913 C911 1.415 . S
C914 H904 0.930 . S
C914 C912 1.419 . S
C914 C915 1.362 . S
C915 H905 0.930 . S
C915 C908 1.409 . S
C915 C914 1.362 . S
H916 C922 0.930 . S
H917 C925 0.930 . S
H918 C926 0.930 . S
H919 C927 0.930 . S
H920 C930 0.930 . S
H921 C931 0.930 . S
C922 H916 0.930 . S
C922 C923 1.355 . S
C922 C924 1.415 . S
C923 C922 1.355 . S
C923 C925 1.419 . S
C924 C922 1.415 . S
C924 C929 1.425 . S
C924 C931 1.409 . S
C925 H917 0.930 . S
C925 C923 1.419 . S
C925 C926 1.362 . S
C926 H918 0.930 . S
C926 C925 1.362 . S
C926 C929 1.409 . S
C927 H919 0.930 . S
C927 C928 1.355 . S
C927 C929 1.415 . S
C928 C927 1.355 . S
C928 C930 1.419 . S
C929 C924 1.425 . S
C929 C926 1.409 . S
C929 C927 1.415 . S
C930 H920 0.930 . S
C930 C928 1.419 . S
C930 C931 1.362 . S
C931 H921 0.930 . S
C931 C924 1.409 . S
C931 C930 1.362 . S
H932 C938 0.930 . S
H933 C941 0.930 . S
H934 C942 0.930 . S
H935 C943 0.930 . S
H936 C946 0.930 . S
H937 C947 0.930 . S
C938 H932 0.930 . S
C938 C939 1.355 . S
C938 C940 1.415 . S
C939 C938 1.355 . S
C939 C941 1.419 . S
C940 C938 1.415 . S
C940 C945 1.425 . S
C940 C947 1.409 . S
C941 H933 0.930 . S
C941 C939 1.419 . S
C941 C942 1.362 . S
C942 H934 0.930 . S
C942 C941 1.362 . S
C942 C945 1.409 . S
C943 H935 0.930 . S
C943 C944 1.355 . S
C943 C945 1.415 . S
C944 C943 1.355 . S
C944 C946 1.419 . S
C945 C940 1.425 . S
C945 C942 1.409 . S
C945 C943 1.415 . S
C946 H936 0.930 . S
C946 C944 1.419 . S
C946 C947 1.362 . S
C947 H937 0.930 . S
C947 C940 1.409 . S
C947 C946 1.362 . S
H948 C954 0.930 . S
H949 C957 0.930 . S
H950 C958 0.930 . S
H951 C959 0.930 . S
H952 C962 0.930 . S
H953 C963 0.930 . S
C954 H948 0.930 . S
C954 C955 1.355 . S
C954 C956 1.415 . S
C955 C954 1.355 . S
C955 C957 1.419 . S
C956 C954 1.415 . S
C956 C961 1.425 . S
C956 C963 1.409 . S
C957 H949 0.930 . S
C957 C955 1.419 . S
C957 C958 1.362 . S
C958 H950 0.930 . S
C958 C957 1.362 . S
C958 C961 1.409 . S
C959 H951 0.930 . S
C959 C960 1.355 . S
C959 C961 1.415 . S
C960 C959 1.355 . S
C960 C962 1.419 . S
C961 C956 1.425 . S
C961 C958 1.409 . S
C961 C959 1.415 . S
C962 H952 0.930 . S
C962 C960 1.419 . S
C962 C963 1.362 . S
C963 H953 0.930 . S
C963 C956 1.409 . S
C963 C962 1.362 . S
H964 C970 0.930 . S
H965 C973 0.930 . S
H966 C974 0.930 . S
H967 C975 0.930 . S
H968 C978 0.930 . S
H969 C979 0.930 . S
C970 H964 0.930 . S
C970 C971 1.355 . S
C970 C972 1.415 . S
C971 C970 1.355 . S
C971 C973 1.419 . S
C972 C970 1.415 . S
C972 C977 1.425 . S
C972 C979 1.409 . S
C973 H965 0.930 . S
C973 C971 1.419 . S
C973 C974 1.362 . S
C974 H966 0.930 . S
C974 C973 1.362 . S
C974 C977 1.409 . S
C975 H967 0.930 . S
C975 C976 1.355 . S
C975 C977 1.415 . S
C976 C975 1.355 . S
C976 C978 1.419 . S
C977 C972 1.425 . S
C977 C974 1.409 . S
C977 C975 1.415 . S
C978 H968 0.930 . S
C978 C976 1.419 . S
C978 C979 1.362 . S
C979 H969 0.930 . S
C979 C972 1.409 . S
C979 C978 1.362 . S
H980 C986 0.930 . S
H981 C989 0.930 . S
H982 C990 0.930 . S
H983 C991 0.930 . S
H984 C994 0.930 . S
H985 C995 0.930 . S
C986 H980 0.930 . S
C986 C987 1.355 . S
C986 C988 1.415 . S
C987 C986 1.355 . S
C987 C989 1.419 . S
C988 C986 1.415 . S
C988 C993 1.425 . S
C988 C995 1.409 . S
C989 H981 0.930 . S
C989 C987 1.419 . S
C989 C990 1.362 . S
C990 H982 0.930 . S
C990 C989 1.362 . S
C990 C993 1.409 . S
C991 H983 0.930 . S
C991 C992 1.355 . S
C991 C993 1.415 . S
C992 C991 1.355 . S
C992 C994 1.419 . S
C993 C988 1.425 . S
C993 C990 1.409 . S
C993 C991 1.415 . S
C994 H984 0.930 . S
C994 C992 1.419 . S
C994 C995 1.362 . S
C995 H985 0.930 . S
C995 C988 1.409 . S
C995 C994 1.362 . S
H996 C1002 0.930 . S
H997 C1005 0.930 . S
H998 C1006 0.930 . S
H999 C1007 0.930 . S
H1000 C1010 0.930 . S
H1001 C1011 0.930 . S
C1002 H996 0.930 . S
C1002 C1003 1.355 . S
C1002 C1004 1.415 . S
C1003 C1002 1.355 . S
C1003 C1005 1.419 . S
C1004 C1002 1.415 . S
C1004 C1009 1.425 . S
C1004 C1011 1.409 . S
C1005 H997 0.930 . S
C1005 C1003 1.419 . S
C1005 C1006 1.362 . S
C1006 H998 0.930 . S
C1006 C1005 1.362 . S
C1006 C1009 1.409 . S
C1007 H999 0.930 . S
C1007 C1008 1.355 . S
C1007 C1009 1.415 . S
C1008 C1007 1.355 . S
C1008 C1010 1.419 . S
C1009 C1004 1.425 . S
C1009 C1006 1.409 . S
C1009 C1007 1.415 . S
C1010 H1000 0.930 . S
C1010 C1008 1.419 . S
C1010 C1011 1.362 . S
C1011 H1001 0.930 . S
C1011 C1004 1.409 . S
C1011 C1010 1.362 . S
H1012 C1018 0.930 . S
H1013 C1021 0.930 . S
H1014 C1022 0.930 . S
H1015 C1023 0.930 . S
H1016 C1026 0.930 . S
H1017 C1027 0.930 . S
C1018 H1012 0.930 . S
C1018 C1019 1.355 . S
C1018 C1020 1.415 . S
C1019 C1018 1.355 . S
C1019 C1021 1.419 . S
C1020 C1018 1.415 . S
C1020 C1025 1.425 . S
C1020 C1027 1.409 . S
C1021 H1013 0.930 . S
C1021 C1019 1.419 . S
C1021 C1022 1.362 . S
C1022 H1014 0.930 . S
C1022 C1021 1.362 . S
C1022 C1025 1.409 . S
C1023 H1015 0.930 . S
C1023 C1024 1.355 . S
C1023 C1025 1.415 . S
C1024 C1023 1.355 . S
C1024 C1026 1.419 . S
C1025 C1020 1.425 . S
C1025 C1022 1.409 . S
C1025 C1023 1.415 . S
C1026 H1016 0.930 . S
C1026 C1024 1.419 . S
C1026 C1027 1.362 . S
C1027 H1017 0.930 . S
C1027 C1020 1.409 . S
C1027 C1026 1.362 . S
H1028 C1034 0.930 . S
H1029 C1037 0.930 . S
H1030 C1038 0.930 . S
H1031 C1039 0.930 . S
H1032 C1042 0.930 . S
H1033 C1043 0.930 . S
C1034 H1028 0.930 . S
C1034 C1035 1.355 . S
C1034 C1036 1.415 . S
C1035 C1034 1.355 . S
C1035 C1037 1.419 . S
C1036 C1034 1.415 . S
C1036 C1041 1.425 . S
C1036 C1043 1.409 . S
C1037 H1029 0.930 . S
C1037 C1035 1.419 . S
C1037 C1038 1.362 . S
C1038 H1030 0.930 . S
C1038 C1037 1.362 . S
C1038 C1041 1.409 . S
C1039 H1031 0.930 . S
C1039 C1040 1.355 . S
C1039 C1041 1.415 . S
C1040 C1039 1.355 . S
C1040 C1042 1.419 . S
C1041 C1036 1.425 . S
C1041 C1038 1.409 . S
C1041 C1039 1.415 . S
C1042 H1032 0.930 . S
C1042 C1040 1.419 . S
C1042 C1043 1.362 . S
C1043 H1033 0.930 . S
C1043 C1036 1.409 . S
C1043 C1042 1.362 . S
H1044 C1050 0.930 1_556 S
H1045 C1053 0.930 . S
H1046 C1054 0.930 . S
H1047 C1055 0.930 . S
H1048 C1058 0.930 . S
H1049 C1059 0.930 . S
C1050 H1044 0.930 1_554 S
C1050 C1051 1.355 . S
C1050 C1052 1.415 . S
C1051 C1050 1.355 . S
C1051 C1053 1.419 . S
C1052 C1050 1.415 . S
C1052 C1057 1.425 . S
C1052 C1059 1.409 . S
C1053 H1045 0.930 . S
C1053 C1051 1.419 . S
C1053 C1054 1.362 . S
C1054 H1046 0.930 . S
C1054 C1053 1.362 . S
C1054 C1057 1.409 . S
C1055 H1047 0.930 . S
C1055 C1056 1.355 . S
C1055 C1057 1.415 . S
C1056 C1055 1.355 . S
C1056 C1058 1.419 . S
C1057 C1052 1.425 . S
C1057 C1054 1.409 . S
C1057 C1055 1.415 . S
C1058 H1048 0.930 . S
C1058 C1056 1.419 . S
C1058 C1059 1.362 . S
C1059 H1049 0.930 . S
C1059 C1052 1.409 . S
C1059 C1058 1.362 . S
H1060 C1066 0.930 . S
H1061 C1069 0.930 . S
H1062 C1070 0.930 . S
H1063 C1071 0.930 . S
H1064 C1074 0.930 . S
H1065 C1075 0.930 . S
C1066 H1060 0.930 . S
C1066 C1067 1.355 1_554 S
C1066 C1068 1.415 . S
C1067 C1066 1.355 1_556 S
C1067 C1069 1.419 . S
C1068 C1066 1.415 . S
C1068 C1073 1.425 . S
C1068 C1075 1.409 . S
C1069 H1061 0.930 . S
C1069 C1067 1.419 . S
C1069 C1070 1.362 1_556 S
C1070 H1062 0.930 . S
C1070 C1069 1.362 1_554 S
C1070 C1073 1.409 . S
C1071 H1063 0.930 . S
C1071 C1072 1.355 . S
C1071 C1073 1.415 . S
C1072 C1071 1.355 . S
C1072 C1074 1.419 . S
C1073 C1068 1.425 . S
C1073 C1070 1.409 . S
C1073 C1071 1.415 . S
C1074 H1064 0.930 . S
C1074 C1072 1.419 . S
C1074 C1075 1.362 . S
C1075 H1065 0.930 . S
C1075 C1068 1.409 . S
C1075 C1074 1.362 . S
H1076 C1082 0.930 1_556 S
H1077 C1085 0.930 . S
H1078 C1086 0.930 . S
H1079 C1087 0.930 . S
H1080 C1090 0.930 . S
H1081 C1091 0.930 . S
C1082 H1076 0.930 1_554 S
C1082 C1083 1.355 . S
C1082 C1084 1.415 . S
C1083 C1082 1.355 . S
C1083 C1085 1.419 . S
C1084 C1082 1.415 . S
C1084 C1089 1.425 . S
C1084 C1091 1.409 . S
C1085 H1077 0.930 . S
C1085 C1083 1.419 . S
C1085 C1086 1.362 . S
C1086 H1078 0.930 . S
C1086 C1085 1.362 . S
C1086 C1089 1.409 . S
C1087 H1079 0.930 . S
C1087 C1088 1.355 . S
C1087 C1089 1.415 . S
C1088 C1087 1.355 . S
C1088 C1090 1.419 . S
C1089 C1084 1.425 . S
C1089 C1086 1.409 . S
C1089 C1087 1.415 . S
C1090 H1080 0.930 . S
C1090 C1088 1.419 . S
C1090 C1091 1.362 . S
C1091 H1081 0.930 . S
C1091 C1084 1.409 . S
C1091 C1090 1.362 . S
H1092 C1098 0.930 . S
H1093 C1101 0.930 . S
H1094 C1102 0.930 . S
H1095 C1103 0.930 1_554 S
H1096 C1106 0.930 . S
H1097 C1107 0.930 . S
C1098 H1092 0.930 . S
C1098 C1099 1.355 . S
C1098 C1100 1.415 . S
C1099 C1098 1.355 . S
C1099 C1101 1.419 . S
C1100 C1098 1.415 . S
C1100 C1105 1.425 . S
C1100 C1107 1.409 . S
C1101 H1093 0.930 . S
C1101 C1099 1.419 . S
C1101 C1102 1.362 . S
C1102 H1094 0.930 . S
C1102 C1101 1.362 . S
C1102 C1105 1.409 . S
C1103 H1095 0.930 1_556 S
C1103 C1104 1.355 1_556 S
C1103 C1105 1.415 . S
C1104 C1103 1.355 1_554 S
C1104 C1106 1.419 1_554 S
C1105 C1100 1.425 . S
C1105 C1102 1.409 . S
C1105 C1103 1.415 . S
C1106 H1096 0.930 . S
C1106 C1104 1.419 1_556 S
C1106 C1107 1.362 . S
C1107 H1097 0.930 . S
C1107 C1100 1.409 . S
C1107 C1106 1.362 . S
H1108 C1114 0.930 . S
H1109 C1117 0.930 . S
H1110 C1118 0.930 . S
H1111 C1119 0.930 . S
H1112 C1122 0.930 . S
H1113 C1123 0.930 . S
C1114 H1108 0.930 . S
C1114 C1115 1.355 . S
C1114 C1116 1.415 . S
C1115 C1114 1.355 . S
C1115 C1117 1.419 . S
C1116 C1114 1.415 . S
C1116 C1121 1.425 . S
C1116 C1123 1.409 . S
C1117 H1109 0.930 . S
C1117 C1115 1.419 . S
C1117 C1118 1.362 . S
C1118 H1110 0.930 . S
C1118 C1117 1.362 . S
C1118 C1121 1.409 . S
C1119 H1111 0.930 . S
C1119 C1120 1.355 1_556 S
C1119 C1121 1.415 . S
C1120 C1119 1.355 1_554 S
C1120 C1122 1.419 . S
C1121 C1116 1.425 . S
C1121 C1118 1.409 . S
C1121 C1119 1.415 . S
C1122 H1112 0.930 . S
C1122 C1120 1.419 . S
C1122 C1123 1.362 1_554 S
C1123 H1113 0.930 . S
C1123 C1116 1.409 . S
C1123 C1122 1.362 1_556 S
H1124 C1130 0.930 . S
H1125 C1133 0.930 . S
H1126 C1134 0.930 . S
H1127 C1135 0.930 . S
H1128 C1138 0.930 . S
H1129 C1139 0.930 . S
C1130 H1124 0.930 . S
C1130 C1131 1.355 . S
C1130 C1132 1.415 . S
C1131 C1130 1.355 . S
C1131 C1133 1.419 . S
C1132 C1130 1.415 . S
C1132 C1137 1.425 . S
C1132 C1139 1.409 . S
C1133 H1125 0.930 . S
C1133 C1131 1.419 . S
C1133 C1134 1.362 . S
C1134 H1126 0.930 . S
C1134 C1133 1.362 . S
C1134 C1137 1.409 . S
C1135 H1127 0.930 . S
C1135 C1136 1.355 1_556 S
C1135 C1137 1.415 . S
C1136 C1135 1.355 1_554 S
C1136 C1138 1.419 . S
C1137 C1132 1.425 . S
C1137 C1134 1.409 . S
C1137 C1135 1.415 . S
C1138 H1128 0.930 . S
C1138 C1136 1.419 . S
C1138 C1139 1.362 1_554 S
C1139 H1129 0.930 . S
C1139 C1132 1.409 . S
C1139 C1138 1.362 1_556 S
H1140 C1146 0.930 . S
H1141 C1149 0.930 . S
H1142 C1150 0.930 . S
H1143 C1151 0.930 . S
H1144 C1154 0.930 . S
H1145 C1155 0.930 . S
C1146 H1140 0.930 . S
C1146 C1147 1.355 . S
C1146 C1148 1.415 . S
C1147 C1146 1.355 . S
C1147 C1149 1.419 . S
C1148 C1146 1.415 . S
C1148 C1153 1.425 . S
C1148 C1155 1.409 . S
C1149 H1141 0.930 . S
C1149 C1147 1.419 . S
C1149 C1150 1.362 . S
C1150 H1142 0.930 . S
C1150 C1149 1.362 . S
C1150 C1153 1.409 . S
C1151 H1143 0.930 . S
C1151 C1152 1.355 . S
C1151 C1153 1.415 . S
C1152 C1151 1.355 . S
C1152 C1154 1.419 . S
C1153 C1148 1.425 . S
C1153 C1150 1.409 . S
C1153 C1151 1.415 . S
C1154 H1144 0.930 . S
C1154 C1152 1.419 . S
C1154 C1155 1.362 . S
C1155 H1145 0.930 . S
C1155 C1148 1.409 . S
C1155 C1154 1.362 . S
H1156 C1162 0.930 . S
H1157 C1165 0.930 . S
H1158 C1166 0.930 . S
H1159 C1167 0.930 . S
H1160 C1170 0.930 . S
H1161 C1171 0.930 . S
C1162 H1156 0.930 . S
C1162 C1163 1.355 . S
C1162 C1164 1.415 . S
C1163 C1162 1.355 . S
C1163 C1165 1.419 . S
C1164 C1162 1.415 . S
C1164 C1169 1.425 . S
C1164 C1171 1.409 . S
C1165 H1157 0.930 . S
C1165 C1163 1.419 . S
C1165 C1166 1.362 . S
C1166 H1158 0.930 . S
C1166 C1165 1.362 . S
C1166 C1169 1.409 . S
C1167 H1159 0.930 . S
C1167 C1168 1.355 . S
C1167 C1169 1.415 . S
C1168 C1167 1.355 . S
C1168 C1170 1.419 . S
C1169 C1164 1.425 . S
C1169 C1166 1.409 . S
C1169 C1167 1.415 . S
C1170 H1160 0.930 . S
C1170 C1168 1.419 . S
C1170 C1171 1.362 . S
C1171 H1161 0.930 . S
C1171 C1164 1.409 . S
C1171 C1170 1.362 . S
H1172 C1178 0.930 . S
H1173 C1181 0.930 . S
H1174 C1182 0.930 . S
H1175 C1183 0.930 . S
H1176 C1186 0.930 . S
H1177 C1187 0.930 . S
C1178 H1172 0.930 . S
C1178 C1179 1.355 . S
C1178 C1180 1.415 . S
C1179 C1178 1.355 . S
C1179 C1181 1.419 . S
C1180 C1178 1.415 . S
C1180 C1185 1.425 . S
C1180 C1187 1.409 . S
C1181 H1173 0.930 . S
C1181 C1179 1.419 . S
C1181 C1182 1.362 . S
C1182 H1174 0.930 . S
C1182 C1181 1.362 . S
C1182 C1185 1.409 . S
C1183 H1175 0.930 . S
C1183 C1184 1.355 . S
C1183 C1185 1.415 . S
C1184 C1183 1.355 . S
C1184 C1186 1.419 . S
C1185 C1180 1.425 . S
C1185 C1182 1.409 . S
C1185 C1183 1.415 . S
C1186 H1176 0.930 . S
C1186 C1184 1.419 . S
C1186 C1187 1.362 . S
C1187 H1177 0.930 . S
C1187 C1180 1.409 . S
C1187 C1186 1.362 . S
H1188 C1194 0.930 . S
H1189 C1197 0.930 . S
H1190 C1198 0.930 1_554 S
H1191 C1199 0.930 1_554 S
H1192 C1202 0.930 . S
H1193 C1203 0.930 . S
C1194 H1188 0.930 . S
C1194 C1195 1.355 . S
C1194 C1196 1.415 . S
C1195 C1194 1.355 . S
C1195 C1197 1.419 . S
C1196 C1194 1.415 . S
C1196 C1201 1.425 . S
C1196 C1203 1.409 . S
C1197 H1189 0.930 . S
C1197 C1195 1.419 . S
C1197 C1198 1.362 . S
C1198 H1190 0.930 1_556 S
C1198 C1197 1.362 . S
C1198 C1201 1.409 . S
C1199 H1191 0.930 1_556 S
C1199 C1200 1.355 . S
C1199 C1201 1.415 . S
C1200 C1199 1.355 . S
C1200 C1202 1.419 . S
C1201 C1196 1.425 . S
C1201 C1198 1.409 . S
C1201 C1199 1.415 . S
C1202 H1192 0.930 . S
C1202 C1200 1.419 . S
C1202 C1203 1.362 . S
C1203 H1193 0.930 . S
C1203 C1196 1.409 . S
C1203 C1202 1.362 . S
H1204 C1210 0.930 1_554 S
H1205 C1213 0.930 . S
H1206 C1214 0.930 . S
H1207 C1215 0.930 . S
H1208 C1218 0.930 . S
H1209 C1219 0.930 1_554 S
C1210 H1204 0.930 1_556 S
C1210 C1211 1.355 . S
C1210 C1212 1.415 . S
C1211 C1210 1.355 . S
C1211 C1213 1.419 . S
C1212 C1210 1.415 . S
C1212 C1217 1.425 . S
C1212 C1219 1.409 . S
C1213 H1205 0.930 . S
C1213 C1211 1.419 . S
C1213 C1214 1.362 . S
C1214 H1206 0.930 . S
C1214 C1213 1.362 . S
C1214 C1217 1.409 . S
C1215 H1207 0.930 . S
C1215 C1216 1.355 . S
C1215 C1217 1.415 . S
C1216 C1215 1.355 . S
C1216 C1218 1.419 . S
C1217 C1212 1.425 . S
C1217 C1214 1.409 . S
C1217 C1215 1.415 . S
C1218 H1208 0.930 . S
C1218 C1216 1.419 . S
C1218 C1219 1.362 . S
C1219 H1209 0.930 1_556 S
C1219 C1212 1.409 . S
C1219 C1218 1.362 . S
H1220 C1226 0.930 . S
H1221 C1229 0.930 . S
H1222 C1230 0.930 . S
H1223 C1231 0.930 . S
H1224 C1234 0.930 . S
H1225 C1235 0.930 . S
C1226 H1220 0.930 . S
C1226 C1227 1.355 . S
C1226 C1228 1.415 . S
C1227 C1226 1.355 . S
C1227 C1229 1.419 . S
C1228 C1226 1.415 . S
C1228 C1233 1.425 . S
C1228 C1235 1.409 . S
C1229 H1221 0.930 . S
C1229 C1227 1.419 . S
C1229 C1230 1.362 . S
C1230 H1222 0.930 . S
C1230 C1229 1.362 . S
C1230 C1233 1.409 . S
C1231 H1223 0.930 . S
C1231 C1232 1.355 . S
C1231 C1233 1.415 . S
C1232 C1231 1.355 . S
C1232 C1234 1.419 . S
C1233 C1228 1.425 . S
C1233 C1230 1.409 . S
C1233 C1231 1.415 . S
C1234 H1224 0.930 . S
C1234 C1232 1.419 . S
C1234 C1235 1.362 . S
C1235 H1225 0.930 . S
C1235 C1228 1.409 . S
C1235 C1234 1.362 . S
H1236 C1242 0.930 . S
H1237 C1245 0.930 1_655 S
H1238 C1246 0.930 . S
H1239 C1247 0.930 . S
H1240 C1250 0.930 . S
H1241 C1251 0.930 . S
C1242 H1236 0.930 . S
C1242 C1243 1.355 . S
C1242 C1244 1.415 . S
C1243 C1242 1.355 . S
C1243 C1245 1.419 . S
C1244 C1242 1.415 . S
C1244 C1249 1.425 . S
C1244 C1251 1.409 . S
C1245 H1237 0.930 1_455 S
C1245 C1243 1.419 . S
C1245 C1246 1.362 . S
C1246 H1238 0.930 . S
C1246 C1245 1.362 . S
C1246 C1249 1.409 . S
C1247 H1239 0.930 . S
C1247 C1248 1.355 . S
C1247 C1249 1.415 . S
C1248 C1247 1.355 . S
C1248 C1250 1.419 . S
C1249 C1244 1.425 . S
C1249 C1246 1.409 . S
C1249 C1247 1.415 . S
C1250 H1240 0.930 . S
C1250 C1248 1.419 . S
C1250 C1251 1.362 . S
C1251 H1241 0.930 . S
C1251 C1244 1.409 . S
C1251 C1250 1.362 . S
H1252 C1258 0.930 . S
H1253 C1261 0.930 . S
H1254 C1262 0.930 . S
H1255 C1263 0.930 . S
H1256 C1266 0.930 . S
H1257 C1267 0.930 . S
C1258 H1252 0.930 . S
C1258 C1259 1.355 . S
C1258 C1260 1.415 . S
C1259 C1258 1.355 . S
C1259 C1261 1.419 . S
C1260 C1258 1.415 . S
C1260 C1265 1.425 . S
C1260 C1267 1.409 . S
C1261 H1253 0.930 . S
C1261 C1259 1.419 . S
C1261 C1262 1.362 . S
C1262 H1254 0.930 . S
C1262 C1261 1.362 . S
C1262 C1265 1.409 . S
C1263 H1255 0.930 . S
C1263 C1264 1.355 . S
C1263 C1265 1.415 . S
C1264 C1263 1.355 . S
C1264 C1266 1.419 . S
C1265 C1260 1.425 . S
C1265 C1262 1.409 . S
C1265 C1263 1.415 . S
C1266 H1256 0.930 . S
C1266 C1264 1.419 . S
C1266 C1267 1.362 . S
C1267 H1257 0.930 . S
C1267 C1260 1.409 . S
C1267 C1266 1.362 . S
H1268 C1274 0.930 . S
H1269 C1277 0.930 . S
H1270 C1278 0.930 . S
H1271 C1279 0.930 . S
H1272 C1282 0.930 1_545 S
H1273 C1283 0.930 . S
C1274 H1268 0.930 . S
C1274 C1275 1.355 . S
C1274 C1276 1.415 . S
C1275 C1274 1.355 . S
C1275 C1277 1.419 . S
C1276 C1274 1.415 . S
C1276 C1281 1.425 . S
C1276 C1283 1.409 . S
C1277 H1269 0.930 . S
C1277 C1275 1.419 . S
C1277 C1278 1.362 . S
C1278 H1270 0.930 . S
C1278 C1277 1.362 . S
C1278 C1281 1.409 . S
C1279 H1271 0.930 . S
C1279 C1280 1.355 . S
C1279 C1281 1.415 . S
C1280 C1279 1.355 . S
C1280 C1282 1.419 . S
C1281 C1276 1.425 . S
C1281 C1278 1.409 . S
C1281 C1279 1.415 . S
C1282 H1272 0.930 1_565 S
C1282 C1280 1.419 . S
C1282 C1283 1.362 . S
C1283 H1273 0.930 . S
C1283 C1276 1.409 . S
C1283 C1282 1.362 . S
H1284 C1290 0.930 . S
H1285 C1293 0.930 . S
H1286 C1294 0.930 . S
H1287 C1295 0.930 . S
H1288 C1298 0.930 . S
H1289 C1299 0.930 . S
C1290 H1284 0.930 . S
C1290 C1291 1.355 . S
C1290 C1292 1.415 . S
C1291 C1290 1.355 . S
C1291 C1293 1.419 . S
C1292 C1290 1.415 . S
C1292 C1297 1.425 . S
C1292 C1299 1.409 . S
C1293 H1285 0.930 . S
C1293 C1291 1.419 . S
C1293 C1294 1.362 . S
C1294 H1286 0.930 . S
C1294 C1293 1.362 . S
C1294 C1297 1.409 . S
C1295 H1287 0.930 . S
C1295 C1296 1.355 . S
C1295 C1297 1.415 . S
C1296 C1295 1.355 . S
C1296 C1298 1.419 1_455 S
C1297 C1292 1.425 . S
C1297 C1294 1.409 . S
C1297 C1295 1.415 . S
C1298 H1288 0.930 . S
C1298 C1296 1.419 1_655 S
C1298 C1299 1.362 1_655 S
C1299 H1289 0.930 . S
C1299 C1292 1.409 . S
C1299 C1298 1.362 1_455 S
H1300 C1306 0.930 . S
H1301 C1309 0.930 . S
H1302 C1310 0.930 . S
H1303 C1311 0.930 . S
H1304 C1314 0.930 . S
H1305 C1315 0.930 . S
C1306 H1300 0.930 . S
C1306 C1307 1.355 . S
C1306 C1308 1.415 . S
C1307 C1306 1.355 . S
C1307 C1309 1.419 . S
C1308 C1306 1.415 . S
C1308 C1313 1.425 . S
C1308 C1315 1.409 . S
C1309 H1301 0.930 . S
C1309 C1307 1.419 . S
C1309 C1310 1.362 . S
C1310 H1302 0.930 . S
C1310 C1309 1.362 . S
C1310 C1313 1.409 . S
C1311 H1303 0.930 . S
C1311 C1312 1.355 . S
C1311 C1313 1.415 . S
C1312 C1311 1.355 . S
C1312 C1314 1.419 . S
C1313 C1308 1.425 . S
C1313 C1310 1.409 . S
C1313 C1311 1.415 . S
C1314 H1304 0.930 . S
C1314 C1312 1.419 . S
C1314 C1315 1.362 . S
C1315 H1305 0.930 . S
C1315 C1308 1.409 . S
C1315 C1314 1.362 . S
H1316 C1322 0.930 . S
H1317 C1325 0.930 . S
H1318 C1326 0.930 . S
H1319 C1327 0.930 . S
H1320 C1330 0.930 . S
H1321 C1331 0.930 . S
C1322 H1316 0.930 . S
C1322 C1323 1.355 . S
C1322 C1324 1.415 . S
C1323 C1322 1.355 . S
C1323 C1325 1.419 . S
C1324 C1322 1.415 . S
C1324 C1329 1.425 . S
C1324 C1331 1.409 . S
C1325 H1317 0.930 . S
C1325 C1323 1.419 . S
C1325 C1326 1.362 . S
C1326 H1318 0.930 . S
C1326 C1325 1.362 . S
C1326 C1329 1.409 . S
C1327 H1319 0.930 . S
C1327 C1328 1.355 . S
C1327 C1329 1.415 . S
C1328 C1327 1.355 . S
C1328 C1330 1.419 . S
C1329 C1324 1.425 . S
C1329 C1326 1.409 . S
C1329 C1327 1.415 . S
C1330 H1320 0.930 . S
C1330 C1328 1.419 . S
C1330 C1331 1.362 . S
C1331 H1321 0.930 . S
C1331 C1324 1.409 . S
C1331 C1330 1.362 . S
H1332 C1338 0.930 1_545 S
H1333 C1341 0.930 . S
H1334 C1342 0.930 . S
H1335 C1343 0.930 . S
H1336 C1346 0.930 . S
H1337 C1347 0.930 . S
C1338 H1332 0.930 1_565 S
C1338 C1339 1.355 . S
C1338 C1340 1.415 . S
C1339 C1338 1.355 . S
C1339 C1341 1.419 . S
C1340 C1338 1.415 . S
C1340 C1345 1.425 . S
C1340 C1347 1.409 . S
C1341 H1333 0.930 . S
C1341 C1339 1.419 . S
C1341 C1342 1.362 . S
C1342 H1334 0.930 . S
C1342 C1341 1.362 . S
C1342 C1345 1.409 . S
C1343 H1335 0.930 . S
C1343 C1344 1.355 . S
C1343 C1345 1.415 . S
C1344 C1343 1.355 . S
C1344 C1346 1.419 . S
C1345 C1340 1.425 . S
C1345 C1342 1.409 . S
C1345 C1343 1.415 . S
C1346 H1336 0.930 . S
C1346 C1344 1.419 . S
C1346 C1347 1.362 . S
C1347 H1337 0.930 . S
C1347 C1340 1.409 . S
C1347 C1346 1.362 . S
H1348 C1354 0.930 1_655 S
H1349 C1357 0.930 . S
H1350 C1358 0.930 . S
H1351 C1359 0.930 . S
H1352 C1362 0.930 . S
H1353 C1363 0.930 . S
C1354 H1348 0.930 1_455 S
C1354 C1355 1.355 . S
C1354 C1356 1.415 . S
C1355 C1354 1.355 . S
C1355 C1357 1.419 . S
C1356 C1354 1.415 . S
C1356 C1361 1.425 . S
C1356 C1363 1.409 . S
C1357 H1349 0.930 . S
C1357 C1355 1.419 . S
C1357 C1358 1.362 . S
C1358 H1350 0.930 . S
C1358 C1357 1.362 . S
C1358 C1361 1.409 . S
C1359 H1351 0.930 . S
C1359 C1360 1.355 . S
C1359 C1361 1.415 . S
C1360 C1359 1.355 . S
C1360 C1362 1.419 . S
C1361 C1356 1.425 . S
C1361 C1358 1.409 . S
C1361 C1359 1.415 . S
C1362 H1352 0.930 . S
C1362 C1360 1.419 . S
C1362 C1363 1.362 . S
C1363 H1353 0.930 . S
C1363 C1356 1.409 . S
C1363 C1362 1.362 . S
H1364 C1370 0.930 . S
H1365 C1373 0.930 . S
H1366 C1374 0.930 . S
H1367 C1375 0.930 . S
H1368 C1378 0.930 . S
H1369 C1379 0.930 . S
C1370 H1364 0.930 . S
C1370 C1371 1.355 . S
C1370 C1372 1.415 . S
C1371 C1370 1.355 . S
C1371 C1373 1.419 . S
C1372 C1370 1.415 . S
C1372 C1377 1.425 . S
C1372 C1379 1.409 . S
C1373 H1365 0.930 . S
C1373 C1371 1.419 . S
C1373 C1374 1.362 . S
C1374 H1366 0.930 . S
C1374 C1373 1.362 . S
C1374 C1377 1.409 . S
C1375 H1367 0.930 . S
C1375 C1376 1.355 . S
C1375 C1377 1.415 . S
C1376 C1375 1.355 . S
C1376 C1378 1.419 . S
C1377 C1372 1.425 . S
C1377 C1374 1.409 . S
C1377 C1375 1.415 . S
C1378 H1368 0.930 . S
C1378 C1376 1.419 . S
C1378 C1379 1.362 . S
C1379 H1369 0.930 . S
C1379 C1372 1.409 . S
C1379 C1378 1.362 . S
H1380 C1386 0.930 . S
H1381 C1389 0.930 . S
H1382 C1390 0.930 . S
H1383 C1391 0.930 . S
H1384 C1394 0.930 . S
H1385 C1395 0.930 . S
C1386 H1380 0.930 . S
C1386 C1387 1.355 . S
C1386 C1388 1.415 . S
C1387 C1386 1.355 . S
C1387 C1389 1.419 . S
C1388 C1386 1.415 . S
C1388 C1393 1.425 . S
C1388 C1395 1.409 . S
C1389 H1381 0.930 . S
C1389 C1387 1.419 . S
C1389 C1390 1.362 . S
C1390 H1382 0.930 . S
C1390 C1389 1.362 . S
C1390 C1393 1.409 . S
C1391 H1383 0.930 . S
C1391 C1392 1.355 . S
C1391 C1393 1.415 . S
C1392 C1391 1.355 . S
C1392 C1394 1.419 . S
C1393 C1388 1.425 . S
C1393 C1390 1.409 . S
C1393 C1391 1.415 . S
C1394 H1384 0.930 . S
C1394 C1392 1.419 . S
C1394 C1395 1.362 . S
C1395 H1385 0.930 . S
C1395 C1388 1.409 . S
C1395 C1394 1.362 . S
H1396 C1402 0.930 . S
H1397 C1405 0.930 . S
H1398 C1406 0.930 . S
H1399 C1407 0.930 . S
H1400 C1410 0.930 . S
H1401 C1411 0.930 . S
C1402 H1396 0.930 . S
C1402 C1403 1.355 . S
C1402 C1404 1.415 . S
C1403 C1402 1.355 . S
C1403 C1405 1.419 . S
C1404 C1402 1.415 . S
C1404 C1409 1.425 . S
C1404 C1411 1.409 . S
C1405 H1397 0.930 . S
C1405 C1403 1.419 . S
C1405 C1406 1.362 . S
C1406 H1398 0.930 . S
C1406 C1405 1.362 . S
C1406 C1409 1.409 . S
C1407 H1399 0.930 . S
C1407 C1408 1.355 . S
C1407 C1409 1.415 . S
C1408 C1407 1.355 . S
C1408 C1410 1.419 . S
C1409 C1404 1.425 . S
C1409 C1406 1.409 . S
C1409 C1407 1.415 . S
C1410 H1400 0.930 . S
C1410 C1408 1.419 . S
C1410 C1411 1.362 . S
C1411 H1401 0.930 . S
C1411 C1404 1.409 . S
C1411 C1410 1.362 . S
H1412 C1418 0.930 . S
H1413 C1421 0.930 . S
H1414 C1422 0.930 . S
H1415 C1423 0.930 . S
H1416 C1426 0.930 . S
H1417 C1427 0.930 . S
C1418 H1412 0.930 . S
C1418 C1419 1.355 . S
C1418 C1420 1.415 . S
C1419 C1418 1.355 . S
C1419 C1421 1.419 . S
C1420 C1418 1.415 . S
C1420 C1425 1.425 . S
C1420 C1427 1.409 . S
C1421 H1413 0.930 . S
C1421 C1419 1.419 . S
C1421 C1422 1.362 . S
C1422 H1414 0.930 . S
C1422 C1421 1.362 . S
C1422 C1425 1.409 . S
C1423 H1415 0.930 . S
C1423 C1424 1.355 . S
C1423 C1425 1.415 . S
C1424 C1423 1.355 . S
C1424 C1426 1.419 . S
C1425 C1420 1.425 . S
C1425 C1422 1.409 . S
C1425 C1423 1.415 . S
C1426 H1416 0.930 . S
C1426 C1424 1.419 . S
C1426 C1427 1.362 . S
C1427 H1417 0.930 . S
C1427 C1420 1.409 . S
C1427 C1426 1.362 . S
H1428 C1434 0.930 . S
H1429 C1437 0.930 . S
H1430 C1438 0.930 . S
H1431 C1439 0.930 . S
H1432 C1442 0.930 1_556 S
H1433 C1443 0.930 1_556 S
C1434 H1428 0.930 . S
C1434 C1435 1.355 . S
C1434 C1436 1.415 . S
C1435 C1434 1.355 . S
C1435 C1437 1.419 . S
C1436 C1434 1.415 . S
C1436 C1441 1.425 . S
C1436 C1443 1.409 . S
C1437 H1429 0.930 . S
C1437 C1435 1.419 . S
C1437 C1438 1.362 . S
C1438 H1430 0.930 . S
C1438 C1437 1.362 . S
C1438 C1441 1.409 . S
C1439 H1431 0.930 . S
C1439 C1440 1.355 . S
C1439 C1441 1.415 . S
C1440 C1439 1.355 . S
C1440 C1442 1.419 . S
C1441 C1436 1.425 . S
C1441 C1438 1.409 . S
C1441 C1439 1.415 . S
C1442 H1432 0.930 1_554 S
C1442 C1440 1.419 . S
C1442 C1443 1.362 . S
C1443 H1433 0.930 1_554 S
C1443 C1436 1.409 . S
C1443 C1442 1.362 . S
H1444 C1450 0.930 . S
H1445 C1453 0.930 . S
H1446 C1454 0.930 . S
H1447 C1455 0.930 . S
H1448 C1458 0.930 1_556 S
H1449 C1459 0.930 . S
C1450 H1444 0.930 . S
C1450 C1451 1.355 . S
C1450 C1452 1.415 . S
C1451 C1450 1.355 . S
C1451 C1453 1.419 . S
C1452 C1450 1.415 . S
C1452 C1457 1.425 . S
C1452 C1459 1.409 . S
C1453 H1445 0.930 . S
C1453 C1451 1.419 . S
C1453 C1454 1.362 . S
C1454 H1446 0.930 . S
C1454 C1453 1.362 . S
C1454 C1457 1.409 . S
C1455 H1447 0.930 . S
C1455 C1456 1.355 . S
C1455 C1457 1.415 . S
C1456 C1455 1.355 . S
C1456 C1458 1.419 . S
C1457 C1452 1.425 . S
C1457 C1454 1.409 . S
C1457 C1455 1.415 . S
C1458 H1448 0.930 1_554 S
C1458 C1456 1.419 . S
C1458 C1459 1.362 . S
C1459 H1449 0.930 . S
C1459 C1452 1.409 . S
C1459 C1458 1.362 . S
H1460 C1466 0.921 1_556 S
H1461 C1469 0.930 . S
H1462 C1470 0.930 . S
H1463 C1471 0.930 . S
H1464 C1474 0.930 . S
H1465 C1475 0.930 . S
C1466 H1460 0.921 1_554 S
C1466 C1467 1.355 . S
C1466 C1468 1.415 . S
C1467 C1466 1.355 . S
C1467 C1469 1.419 . S
C1468 C1466 1.415 . S
C1468 C1473 1.425 . S
C1468 C1475 1.409 . S
C1469 H1461 0.930 . S
C1469 C1467 1.419 . S
C1469 C1470 1.362 . S
C1470 H1462 0.930 . S
C1470 C1469 1.362 . S
C1470 C1473 1.409 . S
C1471 H1463 0.930 . S
C1471 C1472 1.355 . S
C1471 C1473 1.415 . S
C1472 C1471 1.355 . S
C1472 C1474 1.419 . S
C1473 C1468 1.425 . S
C1473 C1470 1.409 . S
C1473 C1471 1.415 . S
C1474 H1464 0.930 . S
C1474 C1472 1.419 . S
C1474 C1475 1.362 . S
C1475 H1465 0.930 . S
C1475 C1468 1.409 . S
C1475 C1474 1.362 . S
C619 C17 0.579 1_556 S
C624 C72 0.596 . S
C635 C4 0.528 . S
C640 C51 0.493 1_556 S
C651 C85 0.521 1_556 S
C656 C38 0.484 . S
C667 C149 0.632 . S
C672 C110 0.687 . S
C683 C183 0.563 . S
C688 C144 0.537 . S
C699 C178 0.705 . S
C704 C115 0.626 . S
C715 C276 0.503 . S
C720 C221 0.488 . S
C731 C255 0.571 . S
C736 C208 0.586 . S
C747 C242 0.491 . S
C752 C289 0.555 . S
C763 C314 0.700 . S
C768 C353 0.597 . S
C779 C387 0.574 . S
C784 C348 0.552 . S
C795 C382 0.598 . S
C800 C319 0.510 . S
C811 C480 0.625 . S
C816 C425 0.705 . S
C827 C459 0.631 . S
C832 C412 0.618 . S
C843 C493 0.519 . S
C848 C446 0.484 . S
C859 C518 0.547 . S
C864 C557 0.489 . S
C875 C591 0.487 . S
C880 C552 0.538 . S
C891 C523 0.630 . S
C896 C586 0.668 . S
C907 C170 1.334 . S
C912 C0 1.333 . S
C923 C102 1.296 . S
C928 C34 1.295 . S
C939 C136 1.276 . S
C944 C68 1.275 . S
C955 C63 1.272 . S
C960 C131 1.271 . S
C971 C165 1.271 . S
C976 C97 1.272 . S
C987 C29 1.273 . S
C992 C199 1.271 . S
C1003 C204 1.305 . S
C1008 C374 1.306 . S
C1019 C238 1.271 . S
C1024 C306 1.273 . S
C1035 C340 1.288 . S
C1040 C272 1.287 . S
C1051 C335 1.335 1_554 S
C1056 C267 1.335 . S
C1067 C369 1.289 . S
C1072 C301 1.291 . S
C1083 C403 1.332 1_554 S
C1088 C233 1.333 . S
C1099 C408 1.336 . S
C1104 C578 1.336 . S
C1115 C442 1.271 . S
C1120 C510 1.273 . S
C1131 C476 1.288 . S
C1136 C544 1.289 . S
C1147 C539 1.287 . S
C1152 C471 1.288 . S
C1163 C573 1.286 . S
C1168 C505 1.287 . S
C1179 C607 1.338 . S
C1184 C437 1.339 . S
C1195 C357 2.024 . S
C1200 C13 2.112 1_565 S
C1211 C47 2.119 1_455 S
C1216 C391 2.042 . S
C1227 C323 2.010 . S
C1232 C81 2.115 . S
C1243 C106 2.121 1_455 S
C1248 C280 2.017 . S
C1259 C140 2.133 . S
C1264 C212 2.038 . S
C1275 C246 2.029 . S
C1280 C174 2.114 1_565 S
C1291 C217 2.139 . S
C1296 C561 2.072 1_455 S
C1307 C251 2.133 . S
C1312 C595 2.067 . S
C1323 C285 2.111 . S
C1328 C527 2.010 1_565 S
C1339 C484 2.011 1_565 S
C1344 C310 2.116 . S
C1355 C416 2.029 1_455 S
C1360 C344 2.128 . S
C1371 C450 2.043 . S
C1376 C378 2.135 . S
C1387 C153 2.063 . S
C1392 C421 2.130 . S
C1403 C455 2.129 . S
C1408 C187 2.062 . S
C1419 C119 2.071 . S
C1424 C489 2.137 . S
C1435 C514 2.141 . S
C1440 C76 2.068 . S
C1451 C548 2.141 . S
C1456 C8 2.071 . S
C1467 C42 2.030 . S
C1472 C582 2.114 . S
