# Generated by pormake.
# Topology ukr, (4)-cn, num edge types: 1
# Building blocks:
#     Node 0, Type 0, BuildingBlock: CEKHIL_clean_sbu_0, # of connection points: 4
#     Node 1, Type 0, BuildingBlock: CEKHIL_clean_sbu_0, # of connection points: 4
#     Node 2, Type 0, BuildingBlock: CEKHIL_clean_sbu_0, # of connection points: 4
#     Node 3, Type 0, BuildingBlock: CEKHIL_clean_sbu_0, # of connection points: 4
#     Node 4, Type 0, BuildingBlock: CEKHIL_clean_sbu_0, # of connection points: 4
#     Node 5, Type 0, BuildingBlock: CEKHIL_clean_sbu_0, # of connection points: 4
#     Node 6, Type 0, BuildingBlock: CEKHIL_clean_sbu_0, # of connection points: 4
#     Node 7, Type 0, BuildingBlock: CEKHIL_clean_sbu_0, # of connection points: 4
#     Node 8, Type 0, BuildingBlock: CEKHIL_clean_sbu_0, # of connection points: 4
#     Node 9, Type 0, BuildingBlock: CEKHIL_clean_sbu_0, # of connection points: 4
#     Node 10, Type 0, BuildingBlock: CEKHIL_clean_sbu_0, # of connection points: 4
#     Node 11, Type 0, BuildingBlock: CEKHIL_clean_sbu_0, # of connection points: 4
#     Node 12, Type 0, BuildingBlock: CEKHIL_clean_sbu_0, # of connection points: 4
#     Node 13, Type 0, BuildingBlock: CEKHIL_clean_sbu_0, # of connection points: 4
#     Node 14, Type 0, BuildingBlock: CEKHIL_clean_sbu_0, # of connection points: 4
#     Node 15, Type 0, BuildingBlock: CEKHIL_clean_sbu_0, # of connection points: 4
#     Node 16, Type 0, BuildingBlock: CEKHIL_clean_sbu_0, # of connection points: 4
#     Node 17, Type 0, BuildingBlock: CEKHIL_clean_sbu_0, # of connection points: 4
#     Node 18, Type 0, BuildingBlock: CEKHIL_clean_sbu_0, # of connection points: 4
#     Node 19, Type 0, BuildingBlock: CEKHIL_clean_sbu_0, # of connection points: 4
#     Node 20, Type 0, BuildingBlock: CEKHIL_clean_sbu_0, # of connection points: 4
#     Node 21, Type 0, BuildingBlock: CEKHIL_clean_sbu_0, # of connection points: 4
#     Node 22, Type 0, BuildingBlock: CEKHIL_clean_sbu_0, # of connection points: 4
#     Node 23, Type 0, BuildingBlock: CEKHIL_clean_sbu_0, # of connection points: 4
#     Node 24, Type 0, BuildingBlock: CEKHIL_clean_sbu_0, # of connection points: 4
#     Node 25, Type 0, BuildingBlock: CEKHIL_clean_sbu_0, # of connection points: 4
#     Node 26, Type 0, BuildingBlock: CEKHIL_clean_sbu_0, # of connection points: 4
#     Node 27, Type 0, BuildingBlock: CEKHIL_clean_sbu_0, # of connection points: 4
#     Node 28, Type 0, BuildingBlock: CEKHIL_clean_sbu_0, # of connection points: 4
#     Node 29, Type 0, BuildingBlock: CEKHIL_clean_sbu_0, # of connection points: 4
#     Node 30, Type 0, BuildingBlock: CEKHIL_clean_sbu_0, # of connection points: 4
#     Node 31, Type 0, BuildingBlock: CEKHIL_clean_sbu_0, # of connection points: 4
#     Node 32, Type 0, BuildingBlock: CEKHIL_clean_sbu_0, # of connection points: 4
#     Node 33, Type 0, BuildingBlock: CEKHIL_clean_sbu_0, # of connection points: 4
#     Node 34, Type 0, BuildingBlock: CEKHIL_clean_sbu_0, # of connection points: 4
#     Node 35, Type 0, BuildingBlock: CEKHIL_clean_sbu_0, # of connection points: 4
#     Node 36, Type 0, BuildingBlock: CEKHIL_clean_sbu_0, # of connection points: 4
#     Node 37, Type 0, BuildingBlock: CEKHIL_clean_sbu_0, # of connection points: 4
#     Node 38, Type 0, BuildingBlock: CEKHIL_clean_sbu_0, # of connection points: 4
#     Node 39, Type 0, BuildingBlock: CEKHIL_clean_sbu_0, # of connection points: 4
#     Node 40, Type 0, BuildingBlock: CEKHIL_clean_sbu_0, # of connection points: 4
#     Node 41, Type 0, BuildingBlock: CEKHIL_clean_sbu_0, # of connection points: 4
#     Node 42, Type 0, BuildingBlock: CEKHIL_clean_sbu_0, # of connection points: 4
#     Node 43, Type 0, BuildingBlock: CEKHIL_clean_sbu_0, # of connection points: 4
#     Node 44, Type 0, BuildingBlock: CEKHIL_clean_sbu_0, # of connection points: 4
#     Node 45, Type 0, BuildingBlock: CEKHIL_clean_sbu_0, # of connection points: 4
#     Node 46, Type 0, BuildingBlock: CEKHIL_clean_sbu_0, # of connection points: 4
#     Node 47, Type 0, BuildingBlock: CEKHIL_clean_sbu_0, # of connection points: 4
#     Edge 48, Type (0, 0), BuildingBlock: EZIPEK_clean_linker_0, # of connection points: 2
#     Edge 49, Type (0, 0), BuildingBlock: EZIPEK_clean_linker_0, # of connection points: 2
#     Edge 50, Type (0, 0), BuildingBlock: EZIPEK_clean_linker_0, # of connection points: 2
#     Edge 51, Type (0, 0), BuildingBlock: EZIPEK_clean_linker_0, # of connection points: 2
#     Edge 52, Type (0, 0), BuildingBlock: EZIPEK_clean_linker_0, # of connection points: 2
#     Edge 53, Type (0, 0), BuildingBlock: EZIPEK_clean_linker_0, # of connection points: 2
#     Edge 54, Type (0, 0), BuildingBlock: EZIPEK_clean_linker_0, # of connection points: 2
#     Edge 55, Type (0, 0), BuildingBlock: EZIPEK_clean_linker_0, # of connection points: 2
#     Edge 56, Type (0, 0), BuildingBlock: EZIPEK_clean_linker_0, # of connection points: 2
#     Edge 57, Type (0, 0), BuildingBlock: EZIPEK_clean_linker_0, # of connection points: 2
#     Edge 58, Type (0, 0), BuildingBlock: EZIPEK_clean_linker_0, # of connection points: 2
#     Edge 59, Type (0, 0), BuildingBlock: EZIPEK_clean_linker_0, # of connection points: 2
#     Edge 60, Type (0, 0), BuildingBlock: EZIPEK_clean_linker_0, # of connection points: 2
#     Edge 61, Type (0, 0), BuildingBlock: EZIPEK_clean_linker_0, # of connection points: 2
#     Edge 62, Type (0, 0), BuildingBlock: EZIPEK_clean_linker_0, # of connection points: 2
#     Edge 63, Type (0, 0), BuildingBlock: EZIPEK_clean_linker_0, # of connection points: 2
#     Edge 64, Type (0, 0), BuildingBlock: EZIPEK_clean_linker_0, # of connection points: 2
#     Edge 65, Type (0, 0), BuildingBlock: EZIPEK_clean_linker_0, # of connection points: 2
#     Edge 66, Type (0, 0), BuildingBlock: EZIPEK_clean_linker_0, # of connection points: 2
#     Edge 67, Type (0, 0), BuildingBlock: EZIPEK_clean_linker_0, # of connection points: 2
#     Edge 68, Type (0, 0), BuildingBlock: EZIPEK_clean_linker_0, # of connection points: 2
#     Edge 69, Type (0, 0), BuildingBlock: EZIPEK_clean_linker_0, # of connection points: 2
#     Edge 70, Type (0, 0), BuildingBlock: EZIPEK_clean_linker_0, # of connection points: 2
#     Edge 71, Type (0, 0), BuildingBlock: EZIPEK_clean_linker_0, # of connection points: 2
#     Edge 72, Type (0, 0), BuildingBlock: EZIPEK_clean_linker_0, # of connection points: 2
#     Edge 73, Type (0, 0), BuildingBlock: EZIPEK_clean_linker_0, # of connection points: 2
#     Edge 74, Type (0, 0), BuildingBlock: EZIPEK_clean_linker_0, # of connection points: 2
#     Edge 75, Type (0, 0), BuildingBlock: EZIPEK_clean_linker_0, # of connection points: 2
#     Edge 76, Type (0, 0), BuildingBlock: EZIPEK_clean_linker_0, # of connection points: 2
#     Edge 77, Type (0, 0), BuildingBlock: EZIPEK_clean_linker_0, # of connection points: 2
#     Edge 78, Type (0, 0), BuildingBlock: EZIPEK_clean_linker_0, # of connection points: 2
#     Edge 79, Type (0, 0), BuildingBlock: EZIPEK_clean_linker_0, # of connection points: 2
#     Edge 80, Type (0, 0), BuildingBlock: EZIPEK_clean_linker_0, # of connection points: 2
#     Edge 81, Type (0, 0), BuildingBlock: EZIPEK_clean_linker_0, # of connection points: 2
#     Edge 82, Type (0, 0), BuildingBlock: EZIPEK_clean_linker_0, # of connection points: 2
#     Edge 83, Type (0, 0), BuildingBlock: EZIPEK_clean_linker_0, # of connection points: 2
#     Edge 84, Type (0, 0), BuildingBlock: EZIPEK_clean_linker_0, # of connection points: 2
#     Edge 85, Type (0, 0), BuildingBlock: EZIPEK_clean_linker_0, # of connection points: 2
#     Edge 86, Type (0, 0), BuildingBlock: EZIPEK_clean_linker_0, # of connection points: 2
#     Edge 87, Type (0, 0), BuildingBlock: EZIPEK_clean_linker_0, # of connection points: 2
#     Edge 88, Type (0, 0), BuildingBlock: EZIPEK_clean_linker_0, # of connection points: 2
#     Edge 89, Type (0, 0), BuildingBlock: EZIPEK_clean_linker_0, # of connection points: 2
#     Edge 90, Type (0, 0), BuildingBlock: EZIPEK_clean_linker_0, # of connection points: 2
#     Edge 91, Type (0, 0), BuildingBlock: EZIPEK_clean_linker_0, # of connection points: 2
#     Edge 92, Type (0, 0), BuildingBlock: EZIPEK_clean_linker_0, # of connection points: 2
#     Edge 93, Type (0, 0), BuildingBlock: EZIPEK_clean_linker_0, # of connection points: 2
#     Edge 94, Type (0, 0), BuildingBlock: EZIPEK_clean_linker_0, # of connection points: 2
#     Edge 95, Type (0, 0), BuildingBlock: EZIPEK_clean_linker_0, # of connection points: 2
#     Edge 96, Type (0, 0), BuildingBlock: EZIPEK_clean_linker_0, # of connection points: 2
#     Edge 97, Type (0, 0), BuildingBlock: EZIPEK_clean_linker_0, # of connection points: 2
#     Edge 98, Type (0, 0), BuildingBlock: EZIPEK_clean_linker_0, # of connection points: 2
#     Edge 99, Type (0, 0), BuildingBlock: EZIPEK_clean_linker_0, # of connection points: 2
#     Edge 100, Type (0, 0), BuildingBlock: EZIPEK_clean_linker_0, # of connection points: 2
#     Edge 101, Type (0, 0), BuildingBlock: EZIPEK_clean_linker_0, # of connection points: 2
#     Edge 102, Type (0, 0), BuildingBlock: EZIPEK_clean_linker_0, # of connection points: 2
#     Edge 103, Type (0, 0), BuildingBlock: EZIPEK_clean_linker_0, # of connection points: 2
#     Edge 104, Type (0, 0), BuildingBlock: EZIPEK_clean_linker_0, # of connection points: 2
#     Edge 105, Type (0, 0), BuildingBlock: EZIPEK_clean_linker_0, # of connection points: 2
#     Edge 106, Type (0, 0), BuildingBlock: EZIPEK_clean_linker_0, # of connection points: 2
#     Edge 107, Type (0, 0), BuildingBlock: EZIPEK_clean_linker_0, # of connection points: 2
#     Edge 108, Type (0, 0), BuildingBlock: EZIPEK_clean_linker_0, # of connection points: 2
#     Edge 109, Type (0, 0), BuildingBlock: EZIPEK_clean_linker_0, # of connection points: 2
#     Edge 110, Type (0, 0), BuildingBlock: EZIPEK_clean_linker_0, # of connection points: 2
#     Edge 111, Type (0, 0), BuildingBlock: EZIPEK_clean_linker_0, # of connection points: 2
#     Edge 112, Type (0, 0), BuildingBlock: EZIPEK_clean_linker_0, # of connection points: 2
#     Edge 113, Type (0, 0), BuildingBlock: EZIPEK_clean_linker_0, # of connection points: 2
#     Edge 114, Type (0, 0), BuildingBlock: EZIPEK_clean_linker_0, # of connection points: 2
#     Edge 115, Type (0, 0), BuildingBlock: EZIPEK_clean_linker_0, # of connection points: 2
#     Edge 116, Type (0, 0), BuildingBlock: EZIPEK_clean_linker_0, # of connection points: 2
#     Edge 117, Type (0, 0), BuildingBlock: EZIPEK_clean_linker_0, # of connection points: 2
#     Edge 118, Type (0, 0), BuildingBlock: EZIPEK_clean_linker_0, # of connection points: 2
#     Edge 119, Type (0, 0), BuildingBlock: EZIPEK_clean_linker_0, # of connection points: 2
#     Edge 120, Type (0, 0), BuildingBlock: EZIPEK_clean_linker_0, # of connection points: 2
#     Edge 121, Type (0, 0), BuildingBlock: EZIPEK_clean_linker_0, # of connection points: 2
#     Edge 122, Type (0, 0), BuildingBlock: EZIPEK_clean_linker_0, # of connection points: 2
#     Edge 123, Type (0, 0), BuildingBlock: EZIPEK_clean_linker_0, # of connection points: 2
#     Edge 124, Type (0, 0), BuildingBlock: EZIPEK_clean_linker_0, # of connection points: 2
#     Edge 125, Type (0, 0), BuildingBlock: EZIPEK_clean_linker_0, # of connection points: 2
#     Edge 126, Type (0, 0), BuildingBlock: EZIPEK_clean_linker_0, # of connection points: 2
#     Edge 127, Type (0, 0), BuildingBlock: EZIPEK_clean_linker_0, # of connection points: 2
#     Edge 128, Type (0, 0), BuildingBlock: EZIPEK_clean_linker_0, # of connection points: 2
#     Edge 129, Type (0, 0), BuildingBlock: EZIPEK_clean_linker_0, # of connection points: 2
#     Edge 130, Type (0, 0), BuildingBlock: EZIPEK_clean_linker_0, # of connection points: 2
#     Edge 131, Type (0, 0), BuildingBlock: EZIPEK_clean_linker_0, # of connection points: 2
#     Edge 132, Type (0, 0), BuildingBlock: EZIPEK_clean_linker_0, # of connection points: 2
#     Edge 133, Type (0, 0), BuildingBlock: EZIPEK_clean_linker_0, # of connection points: 2
#     Edge 134, Type (0, 0), BuildingBlock: EZIPEK_clean_linker_0, # of connection points: 2
#     Edge 135, Type (0, 0), BuildingBlock: EZIPEK_clean_linker_0, # of connection points: 2
#     Edge 136, Type (0, 0), BuildingBlock: EZIPEK_clean_linker_0, # of connection points: 2
#     Edge 137, Type (0, 0), BuildingBlock: EZIPEK_clean_linker_0, # of connection points: 2
#     Edge 138, Type (0, 0), BuildingBlock: EZIPEK_clean_linker_0, # of connection points: 2
#     Edge 139, Type (0, 0), BuildingBlock: EZIPEK_clean_linker_0, # of connection points: 2
#     Edge 140, Type (0, 0), BuildingBlock: EZIPEK_clean_linker_0, # of connection points: 2
#     Edge 141, Type (0, 0), BuildingBlock: EZIPEK_clean_linker_0, # of connection points: 2
#     Edge 142, Type (0, 0), BuildingBlock: EZIPEK_clean_linker_0, # of connection points: 2
#     Edge 143, Type (0, 0), BuildingBlock: EZIPEK_clean_linker_0, # of connection points: 2
# Relax obj value: 0.463
# Max RMSD: 0.183
# Mean RMSD: 0.183
data_MOF--net-ukr--node1-CEKHIL_clean_sbu_0--edge1-EZIPEK_clean_linker_0
_symmetry_space_group_name_H-M    P1
_symmetry_Int_Tables_number       1
_symmetry_cell_setting            triclinic
loop_
_symmetry_equiv_pos_as_xyz
'x, y, z'
_cell_length_a     49.934725
_cell_length_b     49.840278
_cell_length_c     49.901827
_cell_angle_alpha  90.022058
_cell_angle_beta   89.953769
_cell_angle_gamma 89.965603
loop_
_atom_site_label
_atom_site_type_symbol
_atom_site_fract_x
_atom_site_fract_y
_atom_site_fract_z
_atom_type_partial_charge
Co0 Co 0.08687 0.26807 0.20144 0.0
O1 O 0.05191 0.27409 0.21604 0.0
O2 O 0.06333 0.27906 0.17318 0.0
C3 C 0.09453 0.22883 0.22331 0.0
O4 O 0.11959 0.26277 0.17816 0.0
Co5 Co 0.13807 0.2648 0.2364 0.0
O6 O 0.1561 0.25329 0.2027 0.0
C7 C 0.10919 0.31619 0.22918 0.0
C8 C 0.045 0.27992 0.1916 0.0
C9 C 0.14419 0.25576 0.18026 0.0
O10 O 0.09653 0.30641 0.20905 0.0
O11 O 0.12443 0.30197 0.2442 0.0
O12 O 0.08067 0.22923 0.20126 0.0
O13 O 0.10174 0.25217 0.23175 0.0
Co14 Co 0.23253 0.59638 0.70127 0.0
O15 O 0.2288 0.56181 0.71739 0.0
O16 O 0.22364 0.57079 0.67393 0.0
C17 C 0.27089 0.60756 0.72279 0.0
O18 O 0.23619 0.62861 0.67688 0.0
Co19 Co 0.23238 0.64912 0.73465 0.0
O20 O 0.24577 0.66558 0.70094 0.0
C21 C 0.18289 0.61709 0.72766 0.0
C22 C 0.22389 0.55335 0.69325 0.0
C23 C 0.2437 0.65315 0.67873 0.0
O24 O 0.19355 0.60371 0.70841 0.0
O25 O 0.19587 0.634 0.74197 0.0
O26 O 0.27151 0.59277 0.70132 0.0
O27 O 0.24715 0.61345 0.73102 0.0
Co28 Co 0.89464 0.73322 0.20159 0.0
O29 O 0.92707 0.73343 0.22219 0.0
O30 O 0.92453 0.72584 0.17832 0.0
C31 C 0.87766 0.77114 0.2195 0.0
O32 O 0.86534 0.73322 0.17291 0.0
Co33 Co 0.83828 0.72955 0.2279 0.0
O34 O 0.82597 0.74278 0.19255 0.0
C35 C 0.8749 0.68272 0.22734 0.0
C36 C 0.93915 0.72853 0.19967 0.0
C37 C 0.84064 0.74061 0.17177 0.0
O38 O 0.89001 0.69378 0.20965 0.0
O39 O 0.85496 0.69454 0.23836 0.0
O40 O 0.89525 0.77241 0.20036 0.0
O41 O 0.87263 0.74741 0.22841 0.0
Co42 Co 0.76183 0.40633 0.69818 0.0
O43 O 0.76587 0.4422 0.71123 0.0
O44 O 0.777 0.42828 0.67033 0.0
C45 C 0.71982 0.40061 0.71421 0.0
O46 O 0.75954 0.37185 0.67673 0.0
Co47 Co 0.75177 0.35767 0.73579 0.0
O48 O 0.74549 0.33731 0.70211 0.0
C49 C 0.8053 0.38323 0.73296 0.0
C50 C 0.77481 0.44781 0.68744 0.0
C51 C 0.75187 0.34744 0.67957 0.0
O52 O 0.79852 0.39662 0.712 0.0
O53 O 0.78873 0.36909 0.74656 0.0
O54 O 0.72365 0.41282 0.69152 0.0
O55 O 0.74131 0.39389 0.72679 0.0
Co56 Co 0.09308 0.72423 0.78997 0.0
O57 O 0.05727 0.72014 0.77676 0.0
O58 O 0.07058 0.71216 0.81863 0.0
C59 C 0.10085 0.76473 0.77059 0.0
O60 O 0.12686 0.72721 0.81201 0.0
Co61 Co 0.14306 0.72939 0.75326 0.0
O62 O 0.16217 0.73925 0.78681 0.0
C63 C 0.11406 0.67771 0.75849 0.0
C64 C 0.05138 0.71319 0.80118 0.0
C65 C 0.15122 0.73485 0.80945 0.0
O66 O 0.10149 0.68623 0.77929 0.0
O67 O 0.12917 0.69272 0.74412 0.0
O68 O 0.0879 0.76306 0.79315 0.0
O69 O 0.10705 0.74191 0.76016 0.0
Co70 Co 0.76879 0.60534 0.29069 0.0
O71 O 0.77025 0.57701 0.26439 0.0
O72 O 0.77149 0.5713 0.30856 0.0
C73 C 0.73462 0.62757 0.27012 0.0
O74 O 0.76586 0.62832 0.32435 0.0
Co75 Co 0.77773 0.6656 0.2775 0.0
O76 O 0.76125 0.67173 0.313 0.0
C77 C 0.82299 0.62679 0.27706 0.0
C78 C 0.77145 0.56082 0.28475 0.0
C79 C 0.76007 0.6528 0.33004 0.0
O80 O 0.80901 0.6087 0.28892 0.0
O81 O 0.81354 0.64942 0.2694 0.0
O82 O 0.72996 0.60764 0.2863 0.0
O83 O 0.75964 0.63292 0.26696 0.0
Co84 Co 0.89192 0.26129 0.78991 0.0
O85 O 0.92614 0.26509 0.77281 0.0
O86 O 0.91781 0.27272 0.81596 0.0
C87 C 0.88156 0.22119 0.77106 0.0
O88 O 0.86051 0.25808 0.81544 0.0
Co89 Co 0.83835 0.25737 0.7584 0.0
O90 O 0.82342 0.24529 0.79329 0.0
C91 C 0.86641 0.3095 0.76382 0.0
C92 C 0.93498 0.27153 0.79644 0.0
C93 C 0.83629 0.24951 0.8149 0.0
O94 O 0.88285 0.29968 0.78104 0.0
O95 O 0.84908 0.29545 0.75116 0.0
O96 O 0.8969 0.22237 0.79207 0.0
O97 O 0.87466 0.2442 0.76149 0.0
Co98 Co 0.22886 0.39914 0.27476 0.0
O99 O 0.22681 0.43502 0.26124 0.0
O100 O 0.21997 0.42287 0.30367 0.0
C101 C 0.26758 0.38734 0.25402 0.0
O102 O 0.23073 0.36514 0.29683 0.0
Co103 Co 0.22713 0.34925 0.23744 0.0
O104 O 0.24021 0.33014 0.26994 0.0
C105 C 0.1785 0.3818 0.24672 0.0
C106 C 0.22153 0.44176 0.28585 0.0
C107 C 0.23801 0.34074 0.29307 0.0
O108 O 0.18985 0.39357 0.26658 0.0
O109 O 0.1909 0.36554 0.23114 0.0
O110 O 0.26788 0.40132 0.27603 0.0
O111 O 0.24395 0.3835 0.24433 0.0
Co112 Co 0.19862 0.09902 0.26594 0.0
O113 O 0.21821 0.06608 0.26657 0.0
O114 O 0.1748 0.07051 0.2761 0.0
C115 C 0.21479 0.11341 0.22635 0.0
O116 O 0.17119 0.12934 0.26604 0.0
Co117 Co 0.22745 0.15429 0.26536 0.0
O118 O 0.19174 0.16757 0.25387 0.0
C119 C 0.22733 0.12038 0.31412 0.0
C120 C 0.1956 0.05509 0.27318 0.0
C121 C 0.1706 0.1538 0.25783 0.0
O122 O 0.20867 0.10552 0.30449 0.0
O123 O 0.23885 0.13906 0.30079 0.0
O124 O 0.1951 0.09641 0.22702 0.0
O125 O 0.22527 0.11915 0.24923 0.0
Co126 Co 0.40464 0.70592 0.76199 0.0
O127 O 0.44053 0.71794 0.76765 0.0
O128 O 0.42545 0.67666 0.77591 0.0
C129 C 0.3997 0.72427 0.72088 0.0
O130 O 0.36992 0.68545 0.75746 0.0
Co131 Co 0.35722 0.74536 0.75389 0.0
O132 O 0.33719 0.71272 0.74266 0.0
C133 C 0.38299 0.73941 0.80703 0.0
C134 C 0.44524 0.69355 0.77551 0.0
C135 C 0.34638 0.68946 0.74796 0.0
O136 O 0.39468 0.71782 0.79919 0.0
O137 O 0.36944 0.75441 0.79116 0.0
O138 O 0.41167 0.70126 0.72371 0.0
O139 O 0.39317 0.7359 0.74301 0.0
Co140 Co 0.79 0.90531 0.27597 0.0
O141 O 0.78146 0.9411 0.28707 0.0
O142 O 0.81958 0.92018 0.29601 0.0
C143 C 0.77685 0.9084 0.23274 0.0
O144 O 0.80628 0.86916 0.26631 0.0
Co145 Co 0.74426 0.86693 0.25894 0.0
O146 O 0.77389 0.84133 0.25169 0.0
C147 C 0.7501 0.88158 0.31531 0.0
C148 C 0.80511 0.94179 0.29785 0.0
C149 C 0.79843 0.84676 0.25614 0.0
O150 O 0.77362 0.89061 0.30998 0.0
O151 O 0.73381 0.87428 0.29693 0.0
O152 O 0.79987 0.91785 0.24021 0.0
O153 O 0.76142 0.90114 0.25225 0.0
Co154 Co 0.60241 0.28588 0.76075 0.0
O155 O 0.57319 0.26118 0.76448 0.0
O156 O 0.56988 0.30567 0.76672 0.0
C157 C 0.62081 0.26563 0.72446 0.0
O158 O 0.62749 0.31777 0.75629 0.0
Co159 Co 0.66164 0.26697 0.76586 0.0
O160 O 0.66958 0.30262 0.7501 0.0
C161 C 0.6262 0.26961 0.81335 0.0
C162 C 0.55832 0.28234 0.76755 0.0
C163 C 0.65217 0.3213 0.74982 0.0
O164 O 0.60894 0.28366 0.80047 0.0
O165 O 0.64701 0.25919 0.8025 0.0
O166 O 0.60104 0.28236 0.72179 0.0
O167 O 0.6274 0.26069 0.74895 0.0
Co168 Co 0.20423 0.89588 0.7298 0.0
O169 O 0.22148 0.93015 0.72862 0.0
O170 O 0.17867 0.92251 0.71868 0.0
C171 C 0.22127 0.88394 0.76991 0.0
O172 O 0.17873 0.864 0.73045 0.0
Co173 Co 0.23599 0.84227 0.73279 0.0
O174 O 0.20101 0.82746 0.74468 0.0
C175 C 0.2347 0.87432 0.68269 0.0
C176 C 0.19825 0.93942 0.72151 0.0
C177 C 0.17931 0.83998 0.73984 0.0
O178 O 0.21534 0.88883 0.69159 0.0
O179 O 0.24682 0.85666 0.69687 0.0
O180 O 0.2002 0.89916 0.76861 0.0
O181 O 0.23194 0.87802 0.74716 0.0
Co182 Co 0.59503 0.71983 0.23376 0.0
O183 O 0.55777 0.72761 0.22926 0.0
O184 O 0.57892 0.69264 0.21139 0.0
C185 C 0.59611 0.72633 0.27856 0.0
O186 O 0.63263 0.70394 0.23534 0.0
Co187 Co 0.63549 0.76164 0.25537 0.0
O188 O 0.65783 0.72931 0.26271 0.0
C189 C 0.6143 0.76674 0.20009 0.0
C190 C 0.55668 0.70554 0.21548 0.0
C191 C 0.65354 0.70756 0.24998 0.0
O192 O 0.60429 0.74296 0.20178 0.0
O193 O 0.62589 0.77819 0.21995 0.0
O194 O 0.58759 0.7038 0.26869 0.0
O195 O 0.60113 0.74464 0.26099 0.0
Co196 Co 0.77541 0.09031 0.74006 0.0
O197 O 0.75906 0.05565 0.73657 0.0
O198 O 0.80259 0.06427 0.73198 0.0
C199 C 0.75408 0.10235 0.77826 0.0
O200 O 0.79992 0.12255 0.74343 0.0
Co201 Co 0.74202 0.14297 0.7386 0.0
O202 O 0.77591 0.16012 0.75058 0.0
C203 C 0.75277 0.11288 0.68855 0.0
C204 C 0.7832 0.04692 0.73229 0.0
C205 C 0.79811 0.14759 0.74919 0.0
O206 O 0.7695 0.09762 0.70082 0.0
O207 O 0.73824 0.13033 0.7006 0.0
O208 O 0.77516 0.0871 0.77896 0.0
O209 O 0.74559 0.10778 0.75445 0.0
Co210 Co 0.39788 0.28315 0.22521 0.0
O211 O 0.43383 0.27172 0.21873 0.0
O212 O 0.41787 0.31272 0.21086 0.0
C213 C 0.39455 0.26443 0.26647 0.0
O214 O 0.36304 0.30314 0.23035 0.0
Co215 Co 0.35106 0.24348 0.23398 0.0
O216 O 0.32977 0.27587 0.24368 0.0
C217 C 0.37515 0.25025 0.1801 0.0
C218 C 0.438 0.29623 0.21092 0.0
C219 C 0.33908 0.29911 0.23861 0.0
O220 O 0.38735 0.27141 0.18819 0.0
O221 O 0.36167 0.23516 0.19595 0.0
O222 O 0.40576 0.28774 0.26329 0.0
O223 O 0.38722 0.25291 0.24449 0.0
Co224 Co 0.25565 0.20551 0.09145 0.0
O225 O 0.26088 0.21476 0.05461 0.0
O226 O 0.26557 0.17378 0.07168 0.0
C227 C 0.21673 0.22825 0.09763 0.0
O228 O 0.25075 0.188 0.12765 0.0
Co229 Co 0.25517 0.24919 0.13601 0.0
O230 O 0.24444 0.21909 0.15984 0.0
C231 C 0.30573 0.23418 0.10946 0.0
C232 C 0.26621 0.18951 0.05093 0.0
C233 C 0.2453 0.19481 0.15185 0.0
O234 O 0.29439 0.21347 0.09918 0.0
O235 O 0.29274 0.25231 0.12222 0.0
O236 O 0.21679 0.2046 0.08661 0.0
O237 O 0.24028 0.23793 0.10203 0.0
Co238 Co 0.26266 0.78287 0.89858 0.0
O239 O 0.26912 0.77083 0.93435 0.0
O240 O 0.27174 0.81321 0.92035 0.0
C241 C 0.22471 0.75889 0.89177 0.0
O242 O 0.25631 0.80355 0.86447 0.0
Co243 Co 0.26136 0.7445 0.84945 0.0
O244 O 0.24705 0.77616 0.82987 0.0
C245 C 0.31284 0.7589 0.87522 0.0
C246 C 0.27333 0.796 0.93978 0.0
C247 C 0.24885 0.79941 0.84028 0.0
O248 O 0.3014 0.77711 0.88937 0.0
O249 O 0.3 0.7425 0.86021 0.0
O250 O 0.224 0.78166 0.90452 0.0
O251 O 0.24845 0.75085 0.8855 0.0
Co252 Co 0.69789 0.75643 0.41001 0.0
O253 O 0.71072 0.76614 0.44483 0.0
O254 O 0.66863 0.77029 0.43057 0.0
C255 C 0.71901 0.71641 0.40784 0.0
O256 O 0.67606 0.74791 0.37711 0.0
Co257 Co 0.73404 0.74596 0.36066 0.0
O258 O 0.701 0.73247 0.34301 0.0
C259 C 0.72411 0.80161 0.37937 0.0
C260 C 0.686 0.77287 0.44969 0.0
C261 C 0.67843 0.73763 0.35372 0.0
O262 O 0.70658 0.79341 0.39637 0.0
O263 O 0.73836 0.78578 0.36501 0.0
O264 O 0.69635 0.7186 0.42053 0.0
O265 O 0.72862 0.7385 0.39844 0.0
Co266 Co 0.7249 0.20815 0.90836 0.0
O267 O 0.72242 0.22145 0.94432 0.0
O268 O 0.71242 0.17991 0.93126 0.0
C269 C 0.76574 0.22591 0.89962 0.0
O270 O 0.72646 0.1862 0.87425 0.0
Co271 Co 0.73028 0.24523 0.85858 0.0
O272 O 0.73861 0.21149 0.83895 0.0
C273 C 0.67902 0.24119 0.88832 0.0
C274 C 0.71508 0.19722 0.95052 0.0
C275 C 0.7337 0.18886 0.84973 0.0
O276 O 0.68715 0.22012 0.90075 0.0
O277 O 0.69424 0.25534 0.87322 0.0
O278 O 0.76359 0.20333 0.91249 0.0
O279 O 0.74328 0.23738 0.89418 0.0
Co280 Co 0.28825 0.23132 0.39577 0.0
O281 O 0.26541 0.23178 0.42671 0.0
O282 O 0.30958 0.22565 0.42728 0.0
C283 C 0.2708 0.26809 0.37615 0.0
O284 O 0.31868 0.23085 0.36847 0.0
Co285 Co 0.26513 0.22533 0.33786 0.0
O286 O 0.30172 0.23623 0.32704 0.0
C287 C 0.26564 0.17949 0.37571 0.0
C288 C 0.28722 0.22806 0.44039 0.0
C289 C 0.32143 0.23529 0.34323 0.0
O290 O 0.28189 0.19158 0.39161 0.0
O291 O 0.25511 0.19048 0.35506 0.0
O292 O 0.28831 0.27063 0.39523 0.0
O293 O 0.26284 0.24397 0.37157 0.0
Co294 Co 0.72988 0.81396 0.0966 0.0
O295 O 0.71964 0.7967 0.06379 0.0
O296 O 0.71981 0.84071 0.07059 0.0
C297 C 0.76742 0.7888 0.10293 0.0
O298 O 0.74032 0.83956 0.12654 0.0
Co299 Co 0.73531 0.78264 0.15055 0.0
O300 O 0.75064 0.81672 0.16405 0.0
C301 C 0.68183 0.79635 0.12873 0.0
C302 C 0.71649 0.82073 0.0542 0.0
C303 C 0.74901 0.83843 0.15072 0.0
O304 O 0.69196 0.81169 0.11061 0.0
O305 O 0.69574 0.78154 0.14439 0.0
O306 O 0.76778 0.80931 0.08688 0.0
O307 O 0.74427 0.78347 0.11299 0.0
Co308 Co 0.72007 0.22876 0.59148 0.0
O309 O 0.73104 0.2235 0.55496 0.0
O310 O 0.68998 0.21661 0.5708 0.0
C311 C 0.73979 0.26929 0.59779 0.0
O312 O 0.70051 0.23332 0.62673 0.0
Co313 Co 0.76075 0.23327 0.63829 0.0
O314 O 0.72913 0.24549 0.65936 0.0
C315 C 0.74924 0.18038 0.61397 0.0
C316 C 0.70622 0.21702 0.55048 0.0
C317 C 0.70549 0.2416 0.65056 0.0
O318 O 0.72981 0.19067 0.6006 0.0
O319 O 0.76528 0.19451 0.62821 0.0
O320 O 0.71688 0.26731 0.58558 0.0
O321 O 0.75088 0.24652 0.60321 0.0
Co322 Co 0.29733 0.76469 0.59113 0.0
O323 O 0.2828 0.76992 0.55608 0.0
O324 O 0.3255 0.7758 0.56746 0.0
C325 C 0.27617 0.72524 0.59862 0.0
O326 O 0.32057 0.75977 0.62395 0.0
Co327 Co 0.26259 0.75976 0.64261 0.0
O328 O 0.29615 0.74654 0.65943 0.0
C329 C 0.26989 0.8123 0.61548 0.0
C330 C 0.30723 0.77549 0.54898 0.0
C331 C 0.31851 0.75063 0.64786 0.0
O332 O 0.2889 0.80303 0.60075 0.0
O333 O 0.25577 0.79773 0.63123 0.0
O334 O 0.29842 0.72587 0.58507 0.0
O335 O 0.26721 0.74836 0.60587 0.0
Co336 Co 0.90026 0.72951 0.79153 0.0
O337 O 0.93537 0.71982 0.77967 0.0
O338 O 0.92095 0.71793 0.82178 0.0
C339 C 0.89805 0.76776 0.76748 0.0
O340 O 0.8665 0.73916 0.81217 0.0
Co341 Co 0.85184 0.73567 0.75328 0.0
O342 O 0.83265 0.75073 0.78483 0.0
C343 C 0.87779 0.68302 0.76259 0.0
C344 C 0.94036 0.71487 0.80475 0.0
C345 C 0.84286 0.74848 0.8081 0.0
O346 O 0.88794 0.69188 0.78448 0.0
O347 O 0.86502 0.69816 0.74622 0.0
O348 O 0.91033 0.76744 0.79044 0.0
O349 O 0.88899 0.7449 0.75956 0.0
Co350 Co 0.75432 0.40213 0.28697 0.0
O351 O 0.76159 0.43051 0.26178 0.0
O352 O 0.76164 0.43477 0.30612 0.0
C353 C 0.71795 0.38635 0.26499 0.0
O354 O 0.74649 0.37867 0.31952 0.0
Co355 Co 0.75329 0.34157 0.27103 0.0
O356 O 0.73637 0.33661 0.30663 0.0
C357 C 0.80456 0.37151 0.2753 0.0
C358 C 0.76407 0.44583 0.28269 0.0
C359 C 0.73783 0.35488 0.3244 0.0
O360 O 0.79331 0.39165 0.28689 0.0
O361 O 0.79179 0.35139 0.26578 0.0
O362 O 0.71582 0.40664 0.28122 0.0
O363 O 0.74191 0.37738 0.26193 0.0
Co364 Co 0.09112 0.26157 0.78425 0.0
O365 O 0.05729 0.27124 0.76871 0.0
O366 O 0.06623 0.26996 0.81236 0.0
C367 C 0.09756 0.22491 0.75812 0.0
O368 O 0.12214 0.25133 0.80833 0.0
Co369 Co 0.14442 0.2576 0.75212 0.0
O370 O 0.15865 0.23963 0.78466 0.0
C371 C 0.1226 0.31068 0.7686 0.0
C372 C 0.04889 0.27333 0.79329 0.0
C373 C 0.14586 0.24159 0.80665 0.0
O374 O 0.10383 0.29986 0.78256 0.0
O375 O 0.13892 0.29741 0.75385 0.0
O376 O 0.0826 0.2236 0.77939 0.0
O377 O 0.10682 0.24846 0.75284 0.0
Co378 Co 0.23168 0.59717 0.27926 0.0
O379 O 0.22842 0.5619 0.26457 0.0
O380 O 0.22147 0.5729 0.30733 0.0
C381 C 0.2711 0.60722 0.25925 0.0
O382 O 0.23446 0.63059 0.30218 0.0
Co383 Co 0.23279 0.6479 0.24323 0.0
O384 O 0.24389 0.66662 0.27667 0.0
C385 C 0.18283 0.61674 0.25026 0.0
C386 C 0.22247 0.55459 0.28883 0.0
C387 C 0.24119 0.65529 0.2994 0.0
O388 O 0.19308 0.60449 0.27042 0.0
O389 O 0.19635 0.63269 0.23532 0.0
O390 O 0.27052 0.59329 0.28125 0.0
O391 O 0.24785 0.61268 0.2494 0.0
Co392 Co 0.89674 0.26339 0.20986 0.0
O393 O 0.9329 0.2714 0.21945 0.0
O394 O 0.91377 0.28157 0.18052 0.0
C395 C 0.8966 0.22041 0.22459 0.0
O396 O 0.86097 0.25702 0.19171 0.0
Co397 Co 0.85379 0.24858 0.25208 0.0
O398 O 0.83328 0.23582 0.22027 0.0
C399 C 0.87463 0.30403 0.24868 0.0
C400 C 0.93498 0.28149 0.19552 0.0
C401 C 0.83962 0.24358 0.19677 0.0
O402 O 0.88472 0.2986 0.22562 0.0
O403 O 0.8635 0.28609 0.26336 0.0
O404 O 0.9067 0.22645 0.20134 0.0
O405 O 0.88939 0.24086 0.23874 0.0
Co406 Co 0.23882 0.40195 0.71954 0.0
O407 O 0.2353 0.43906 0.72874 0.0
O408 O 0.22287 0.42073 0.68997 0.0
C409 C 0.28146 0.39699 0.73409 0.0
O410 O 0.24044 0.36548 0.70193 0.0
Co411 Co 0.24907 0.35762 0.76182 0.0
O412 O 0.25571 0.33396 0.7303 0.0
C413 C 0.19522 0.38212 0.75683 0.0
C414 C 0.22562 0.44199 0.70476 0.0
C415 C 0.24861 0.34163 0.70701 0.0
O416 O 0.20248 0.3939 0.7351 0.0
O417 O 0.21162 0.36885 0.7715 0.0
O418 O 0.27655 0.40728 0.71068 0.0
O419 O 0.26046 0.39228 0.74847 0.0
Co420 Co 0.09787 0.73653 0.21186 0.0
O421 O 0.06386 0.73516 0.22983 0.0
O422 O 0.0701 0.73056 0.18589 0.0
C423 C 0.11359 0.77334 0.2334 0.0
O424 O 0.129 0.73818 0.18573 0.0
Co425 Co 0.15199 0.73109 0.24239 0.0
O426 O 0.16806 0.74263 0.20781 0.0
C427 C 0.11663 0.68405 0.23457 0.0
C428 C 0.05377 0.73148 0.20613 0.0
C429 C 0.15434 0.7425 0.18629 0.0
O430 O 0.10259 0.69678 0.21715 0.0
O431 O 0.13512 0.69511 0.24852 0.0
O432 O 0.09757 0.7757 0.21302 0.0
O433 O 0.11771 0.74897 0.24095 0.0
Co434 Co 0.7647 0.60195 0.70217 0.0
O435 O 0.76874 0.56589 0.71477 0.0
O436 O 0.77423 0.57923 0.67253 0.0
C437 C 0.72624 0.61075 0.72441 0.0
O438 O 0.76083 0.63657 0.68104 0.0
Co439 Co 0.76401 0.65115 0.74054 0.0
O440 O 0.75142 0.6712 0.70848 0.0
C441 C 0.81301 0.61869 0.73242 0.0
C442 C 0.77409 0.55992 0.68999 0.0
C443 C 0.75354 0.66096 0.68517 0.0
O444 O 0.80341 0.60895 0.71061 0.0
O445 O 0.79928 0.63348 0.74833 0.0
O446 O 0.72569 0.59804 0.70162 0.0
O447 O 0.74987 0.6158 0.73331 0.0
Co448 Co 0.79735 0.88791 0.72245 0.0
O449 O 0.7736 0.91794 0.72727 0.0
O450 O 0.81775 0.92046 0.72156 0.0
C451 C 0.78004 0.86235 0.7559 0.0
O452 O 0.82907 0.86285 0.71885 0.0
Co453 Co 0.77944 0.83272 0.70469 0.0
O454 O 0.81734 0.8212 0.70778 0.0
C455 C 0.77325 0.87828 0.66909 0.0
C456 C 0.79504 0.93259 0.72513 0.0
C457 C 0.83505 0.83833 0.71422 0.0
O458 O 0.79143 0.89043 0.68252 0.0
O459 O 0.76327 0.85592 0.67654 0.0
O460 O 0.79766 0.88091 0.7608 0.0
O461 O 0.77218 0.86073 0.7312 0.0
Co462 Co 0.588 0.28423 0.22675 0.0
O463 O 0.55167 0.27304 0.22207 0.0
O464 O 0.56857 0.31231 0.20908 0.0
C465 C 0.592 0.27061 0.26993 0.0
O466 O 0.62311 0.30428 0.22938 0.0
Co467 Co 0.6346 0.24542 0.24051 0.0
O468 O 0.65448 0.2789 0.24938 0.0
C469 C 0.60854 0.24423 0.18717 0.0
C470 C 0.54803 0.29657 0.21141 0.0
C471 C 0.64589 0.30139 0.24084 0.0
O472 O 0.59784 0.26731 0.19141 0.0
O473 O 0.62152 0.23132 0.20518 0.0
O474 O 0.58072 0.29345 0.26421 0.0
O475 O 0.5985 0.25644 0.24935 0.0
Co476 Co 0.20396 0.09797 0.72013 0.0
O477 O 0.22214 0.06409 0.71979 0.0
O478 O 0.17802 0.06985 0.71629 0.0
C479 C 0.22701 0.11494 0.75565 0.0
O480 O 0.17766 0.12891 0.72112 0.0
Co481 Co 0.23356 0.15189 0.71118 0.0
O482 O 0.19938 0.16838 0.72314 0.0
C483 C 0.22614 0.1131 0.66681 0.0
C484 C 0.19841 0.05373 0.71731 0.0
C485 C 0.17805 0.15444 0.72444 0.0
O486 O 0.2081 0.10057 0.68016 0.0
O487 O 0.24023 0.13216 0.67672 0.0
O488 O 0.20638 0.09938 0.75911 0.0
O489 O 0.23342 0.1185 0.7309 0.0
Co490 Co 0.40384 0.70866 0.22504 0.0
O491 O 0.43928 0.72274 0.22089 0.0
O492 O 0.42787 0.67979 0.21628 0.0
C493 C 0.39344 0.73087 0.26334 0.0
O494 O 0.37024 0.68635 0.22888 0.0
Co495 Co 0.35349 0.74558 0.22418 0.0
O496 O 0.33428 0.7127 0.23605 0.0
C497 C 0.3834 0.73398 0.17432 0.0
C498 C 0.44635 0.69811 0.21605 0.0
C499 C 0.34544 0.68974 0.23469 0.0
O500 O 0.39649 0.71515 0.18599 0.0
O501 O 0.36761 0.74997 0.18679 0.0
O502 O 0.40744 0.70887 0.26404 0.0
O503 O 0.38848 0.73954 0.23952 0.0
Co504 Co 0.80047 0.08553 0.26708 0.0
O505 O 0.78639 0.05333 0.28278 0.0
O506 O 0.8276 0.06874 0.28884 0.0
C507 C 0.78406 0.07748 0.22558 0.0
O508 O 0.823 0.11659 0.25375 0.0
Co509 Co 0.76446 0.12909 0.24003 0.0
O510 O 0.79909 0.14602 0.2293 0.0
C511 C 0.76461 0.12145 0.29774 0.0
C512 C 0.81026 0.04968 0.29249 0.0
C513 C 0.82112 0.1378 0.23929 0.0
O514 O 0.78707 0.10868 0.29757 0.0
O515 O 0.74956 0.12249 0.27702 0.0
O516 O 0.80647 0.06632 0.23289 0.0
O517 O 0.77228 0.09143 0.24368 0.0
Co518 Co 0.39928 0.27659 0.76534 0.0
O519 O 0.42972 0.25353 0.77046 0.0
O520 O 0.43028 0.29805 0.77299 0.0
C521 C 0.38482 0.25604 0.7275 0.0
O522 O 0.37298 0.30728 0.76021 0.0
Co523 Co 0.34063 0.25516 0.76451 0.0
O524 O 0.33161 0.29162 0.75148 0.0
C525 C 0.37034 0.26092 0.8158 0.0
C526 C 0.44339 0.27552 0.77321 0.0
C527 C 0.34843 0.31071 0.75339 0.0
O528 O 0.38973 0.2736 0.80449 0.0
O529 O 0.35075 0.25037 0.80305 0.0
O530 O 0.4036 0.27398 0.7265 0.0
O531 O 0.3766 0.25025 0.75131 0.0
Co532 Co 0.22179 0.8997 0.26262 0.0
O533 O 0.23472 0.93589 0.26415 0.0
O534 O 0.19257 0.92301 0.27129 0.0
C535 C 0.24272 0.88779 0.22415 0.0
O536 O 0.20017 0.86548 0.2614 0.0
Co537 Co 0.25911 0.84994 0.26478 0.0
O538 O 0.22645 0.82954 0.2542 0.0
C539 C 0.25035 0.88356 0.31287 0.0
C540 C 0.21002 0.94221 0.26955 0.0
C541 C 0.20347 0.84052 0.25611 0.0
O542 O 0.23013 0.89476 0.30163 0.0
O543 O 0.266 0.86737 0.30045 0.0
O544 O 0.22037 0.90124 0.22363 0.0
O545 O 0.25239 0.88421 0.24783 0.0
Co546 Co 0.59772 0.70939 0.77137 0.0
O547 O 0.56147 0.72064 0.77688 0.0
O548 O 0.57609 0.67847 0.77843 0.0
C549 C 0.60571 0.73508 0.7347 0.0
O550 O 0.63217 0.68925 0.76525 0.0
Co551 Co 0.64654 0.74796 0.77338 0.0
O552 O 0.66647 0.71732 0.75727 0.0
C553 C 0.61829 0.73196 0.82318 0.0
C554 C 0.55625 0.69522 0.77969 0.0
C555 C 0.65627 0.69391 0.75788 0.0
O556 O 0.6054 0.71358 0.81064 0.0
O557 O 0.63349 0.74902 0.81144 0.0
O558 O 0.59322 0.71226 0.73264 0.0
O559 O 0.61104 0.74212 0.75898 0.0
Co560 Co 0.72985 0.79005 0.90251 0.0
O561 O 0.72976 0.78366 0.94034 0.0
O562 O 0.7133 0.82008 0.92063 0.0
C563 C 0.77279 0.77791 0.89408 0.0
O564 O 0.72779 0.80386 0.86412 0.0
Co565 Co 0.7382 0.74241 0.86331 0.0
O566 O 0.7481 0.77251 0.839 0.0
C567 C 0.68639 0.74881 0.89088 0.0
C568 C 0.71817 0.80686 0.94257 0.0
C569 C 0.73979 0.79649 0.84251 0.0
O570 O 0.69389 0.77204 0.89911 0.0
O571 O 0.70206 0.73293 0.87812 0.0
O572 O 0.76729 0.80152 0.90363 0.0
O573 O 0.75261 0.7617 0.8936 0.0
Co574 Co 0.72678 0.18112 0.10749 0.0
O575 O 0.7196 0.20397 0.07737 0.0
O576 O 0.71986 0.15931 0.07665 0.0
C577 C 0.76257 0.2052 0.12159 0.0
O578 O 0.73495 0.15035 0.133 0.0
Co579 Co 0.72647 0.20066 0.16657 0.0
O580 O 0.74498 0.16624 0.17393 0.0
C581 C 0.67662 0.19782 0.13427 0.0
C582 C 0.7173 0.18182 0.06383 0.0
C583 C 0.74427 0.14735 0.15677 0.0
O584 O 0.68769 0.18214 0.11708 0.0
O585 O 0.68928 0.20887 0.15366 0.0
O586 O 0.76519 0.18715 0.10294 0.0
O587 O 0.73853 0.20811 0.13046 0.0
Co588 Co 0.27502 0.23118 0.59962 0.0
O589 O 0.25696 0.23408 0.56586 0.0
O590 O 0.30053 0.22607 0.57127 0.0
C591 C 0.25593 0.26771 0.61895 0.0
O592 O 0.30101 0.22853 0.6308 0.0
Co593 Co 0.24369 0.22151 0.65255 0.0
O594 O 0.27837 0.23052 0.66983 0.0
C595 C 0.24819 0.17885 0.61168 0.0
C596 C 0.28031 0.22957 0.55529 0.0
C597 C 0.30009 0.23091 0.65643 0.0
O598 O 0.26732 0.1916 0.60021 0.0
O599 O 0.23455 0.18866 0.63112 0.0
O600 O 0.27632 0.27007 0.60288 0.0
O601 O 0.24681 0.24358 0.62081 0.0
Co602 Co 0.26605 0.78442 0.09244 0.0
O603 O 0.26789 0.77288 0.05598 0.0
O604 O 0.27854 0.81368 0.0708 0.0
C605 C 0.22524 0.76679 0.1015 0.0
O606 O 0.26551 0.80447 0.12758 0.0
Co607 Co 0.2626 0.74461 0.14001 0.0
O608 O 0.25439 0.7772 0.1617 0.0
C609 C 0.31297 0.75055 0.10926 0.0
C610 C 0.27593 0.79715 0.05087 0.0
C611 C 0.25898 0.80043 0.15209 0.0
O612 O 0.30385 0.77202 0.0984 0.0
O613 O 0.29864 0.73551 0.12439 0.0
O614 O 0.22742 0.78983 0.08945 0.0
O615 O 0.24769 0.75465 0.10562 0.0
Co616 Co 0.6991 0.7772 0.59988 0.0
O617 O 0.70924 0.78008 0.56313 0.0
O618 O 0.66844 0.7879 0.57933 0.0
C619 C 0.72005 0.73757 0.6076 0.0
O620 O 0.68033 0.77483 0.63578 0.0
Co621 Co 0.74056 0.77605 0.64602 0.0
O622 O 0.70961 0.76432 0.66836 0.0
C623 C 0.73224 0.82473 0.613 0.0
C624 C 0.68442 0.78668 0.55885 0.0
C625 C 0.68577 0.76737 0.65978 0.0
O626 O 0.70946 0.81571 0.60534 0.0
O627 O 0.74862 0.81082 0.62709 0.0
O628 O 0.69644 0.73822 0.59661 0.0
O629 O 0.73045 0.76086 0.61179 0.0
Co630 Co 0.25706 0.20163 0.89993 0.0
O631 O 0.25871 0.21083 0.93706 0.0
O632 O 0.27232 0.17202 0.91968 0.0
C633 C 0.21471 0.21601 0.89266 0.0
O634 O 0.25717 0.1847 0.86287 0.0
Co635 Co 0.24923 0.24582 0.85671 0.0
O636 O 0.24121 0.21464 0.83307 0.0
C637 C 0.30138 0.24004 0.88413 0.0
C638 C 0.26874 0.18708 0.94067 0.0
C639 C 0.24815 0.19088 0.83952 0.0
O640 O 0.29373 0.21751 0.89403 0.0
O641 O 0.28562 0.25542 0.87088 0.0
O642 O 0.2191 0.19258 0.90319 0.0
O643 O 0.23585 0.23058 0.88967 0.0
Co644 Co 0.2909 0.7646 0.39454 0.0
O645 O 0.27798 0.76779 0.43052 0.0
O646 O 0.3204 0.77311 0.4176 0.0
C647 C 0.26871 0.7264 0.38413 0.0
O648 O 0.31223 0.76173 0.36018 0.0
Co649 Co 0.25297 0.76678 0.3454 0.0
O650 O 0.28516 0.75522 0.32476 0.0
C651 C 0.26334 0.81528 0.37792 0.0
C652 C 0.30275 0.77283 0.43672 0.0
C653 C 0.30836 0.75639 0.33534 0.0
O654 O 0.28365 0.80373 0.3886 0.0
O655 O 0.24707 0.80296 0.36233 0.0
O656 O 0.2912 0.72555 0.39725 0.0
O657 O 0.25975 0.75029 0.37984 0.0
Co658 Co 0.69881 0.2426 0.40076 0.0
O659 O 0.71577 0.2322 0.43363 0.0
O660 O 0.67442 0.22117 0.42163 0.0
C661 C 0.71188 0.28612 0.40235 0.0
O662 O 0.67369 0.25018 0.36979 0.0
Co663 Co 0.73067 0.26553 0.35225 0.0
O664 O 0.69465 0.27135 0.33592 0.0
C665 C 0.73525 0.20917 0.36735 0.0
C666 C 0.69313 0.22087 0.43968 0.0
C667 C 0.67364 0.26175 0.34682 0.0
O668 O 0.71355 0.21017 0.38132 0.0
O669 O 0.74834 0.23026 0.36085 0.0
O670 O 0.69085 0.27846 0.41573 0.0
O671 O 0.72464 0.26725 0.39034 0.0
C672 C 0.97405 0.27479 0.16562 0.0
C673 C 0.96134 0.29026 0.1857 0.0
C674 C 0.00465 0.30776 0.19996 0.0
C675 C 0.01711 0.28688 0.18528 0.0
N676 N 0.01399 0.25028 0.15348 0.0
N677 N 0.96331 0.32484 0.21914 0.0
C678 C 0.00208 0.2708 0.16726 0.0
C679 C 0.97632 0.30824 0.20166 0.0
N680 N 0.95936 0.2634 0.14555 0.0
N681 N 0.01999 0.32688 0.21218 0.0
H682 H 0.94246 0.32645 0.21942 0.0
H683 H 0.97295 0.33634 0.23363 0.0
H684 H 0.04084 0.32706 0.21065 0.0
H685 H 0.01213 0.34376 0.22162 0.0
H686 H 0.96795 0.25371 0.12917 0.0
H687 H 0.93883 0.26642 0.14355 0.0
H688 H 0.00327 0.23593 0.14276 0.0
H689 H 0.03442 0.24621 0.15422 0.0
C690 C 0.24028 0.50949 0.67571 0.0
C691 C 0.2198 0.52465 0.68829 0.0
C692 C 0.19861 0.48397 0.70515 0.0
C693 C 0.22014 0.46896 0.69433 0.0
N694 N 0.25683 0.46553 0.66302 0.0
N695 N 0.1756 0.52689 0.70723 0.0
C696 C 0.23926 0.4811 0.6772 0.0
C697 C 0.19755 0.51198 0.70038 0.0
N698 N 0.26165 0.5222 0.66419 0.0
N699 N 0.17991 0.47155 0.72081 0.0
H700 H 0.17449 0.54748 0.70352 0.0
H701 H 0.15775 0.51866 0.71418 0.0
H702 H 0.17972 0.45083 0.7237 0.0
H703 H 0.16532 0.48171 0.73172 0.0
H704 H 0.2789 0.51236 0.65781 0.0
H705 H 0.26286 0.54299 0.66222 0.0
H706 H 0.26956 0.47304 0.6483 0.0
H707 H 0.25711 0.44467 0.66425 0.0
C708 C 0.01166 0.70544 0.19841 0.0
C709 C 0.02461 0.73049 0.20215 0.0
C710 C 0.9818 0.754 0.19851 0.0
C711 C 0.96856 0.72888 0.19817 0.0
N712 N 0.96978 0.68059 0.19879 0.0
N713 N 0.02262 0.77859 0.20742 0.0
C714 C 0.98318 0.7045 0.19813 0.0
C715 C 0.00986 0.75479 0.20259 0.0
N716 N 0.02662 0.68269 0.19506 0.0
N717 N 0.96758 0.77705 0.19409 0.0
H718 H 0.04336 0.78025 0.20914 0.0
H719 H 0.01262 0.79649 0.21135 0.0
H720 H 0.94699 0.77716 0.19073 0.0
H721 H 0.97639 0.79576 0.19126 0.0
H722 H 0.0186 0.66422 0.18958 0.0
H723 H 0.04749 0.68262 0.19601 0.0
H724 H 0.97906 0.66212 0.2017 0.0
H725 H 0.94894 0.6793 0.19786 0.0
C726 C 0.76223 0.48979 0.66366 0.0
C727 C 0.78058 0.47583 0.68022 0.0
C728 C 0.80096 0.5182 0.69397 0.0
C729 C 0.77907 0.5319 0.68223 0.0
N730 N 0.73879 0.53152 0.65546 0.0
N731 N 0.81933 0.47559 0.70879 0.0
C732 C 0.76006 0.51805 0.66628 0.0
C733 C 0.80084 0.48974 0.69436 0.0
N734 N 0.74647 0.476 0.64602 0.0
N735 N 0.82173 0.53257 0.70455 0.0
H736 H 0.82061 0.45469 0.70792 0.0
H737 H 0.83283 0.48431 0.72205 0.0
H738 H 0.82228 0.5535 0.70406 0.0
H739 H 0.83933 0.52396 0.71167 0.0
H740 H 0.73459 0.48526 0.63159 0.0
H741 H 0.7471 0.45521 0.64402 0.0
H742 H 0.72245 0.52206 0.64662 0.0
H743 H 0.7365 0.55227 0.6567 0.0
C744 C 0.98097 0.68686 0.79872 0.0
C745 C 0.96771 0.70754 0.81299 0.0
C746 C 0.01031 0.72761 0.82566 0.0
C747 C 0.02347 0.70858 0.80912 0.0
N748 N 0.02329 0.66587 0.78666 0.0
N749 N 0.96949 0.74047 0.84847 0.0
C750 C 0.00938 0.68665 0.79793 0.0
C751 C 0.9823 0.7254 0.82952 0.0
N752 N 0.96617 0.66809 0.78536 0.0
N753 N 0.02413 0.74893 0.836 0.0
H754 H 0.94906 0.73906 0.85224 0.0
H755 H 0.97952 0.75208 0.86261 0.0
H756 H 0.04474 0.75134 0.83387 0.0
H757 H 0.01493 0.76529 0.84518 0.0
H758 H 0.97418 0.65407 0.77214 0.0
H759 H 0.94537 0.66692 0.78737 0.0
H760 H 0.01443 0.64831 0.77971 0.0
H761 H 0.04419 0.66536 0.7862 0.0
C762 C 0.79387 0.51597 0.28583 0.0
C763 C 0.77052 0.53149 0.28122 0.0
C764 C 0.74455 0.49076 0.27256 0.0
C765 C 0.7671 0.47515 0.28009 0.0
N766 N 0.81296 0.47201 0.29473 0.0
N767 N 0.72305 0.53434 0.27282 0.0
C768 C 0.79176 0.48751 0.2869 0.0
C769 C 0.74575 0.5191 0.27499 0.0
N770 N 0.81807 0.52852 0.28854 0.0
N771 N 0.72192 0.47849 0.26316 0.0
H772 H 0.72312 0.55522 0.27391 0.0
H773 H 0.70382 0.52635 0.27185 0.0
H774 H 0.71966 0.45774 0.2622 0.0
H775 H 0.70603 0.4888 0.25443 0.0
H776 H 0.83631 0.51846 0.28939 0.0
H777 H 0.82015 0.54935 0.28788 0.0
H778 H 0.83055 0.47971 0.30281 0.0
H779 H 0.81251 0.45108 0.2943 0.0
C780 C 0.00656 0.25447 0.81225 0.0
C781 C 0.02006 0.27583 0.79909 0.0
C782 C 0.97724 0.29706 0.7882 0.0
C783 C 0.96384 0.2755 0.80097 0.0
N784 N 0.96527 0.23764 0.8312 0.0
N785 N 0.01929 0.32035 0.78048 0.0
C786 C 0.97837 0.2557 0.81526 0.0
C787 C 0.00567 0.29811 0.78892 0.0
N788 N 0.02025 0.23193 0.81987 0.0
N789 N 0.96272 0.31622 0.77503 0.0
H790 H 0.04015 0.32167 0.78121 0.0
H791 H 0.01006 0.33825 0.77501 0.0
H792 H 0.94184 0.31698 0.7757 0.0
H793 H 0.97119 0.33075 0.76268 0.0
H794 H 0.01092 0.2144 0.82631 0.0
H795 H 0.04085 0.2296 0.81773 0.0
H796 H 0.97509 0.225 0.84461 0.0
H797 H 0.94451 0.23669 0.83288 0.0
C798 C 0.23852 0.48323 0.30787 0.0
C799 C 0.2181 0.4701 0.29312 0.0
C800 C 0.19578 0.51292 0.28472 0.0
C801 C 0.21861 0.52612 0.29505 0.0
N802 N 0.26144 0.52505 0.31731 0.0
N803 N 0.17594 0.47105 0.26973 0.0
C804 C 0.23962 0.51166 0.30752 0.0
C805 C 0.19608 0.48454 0.28249 0.0
N806 N 0.25712 0.46854 0.32164 0.0
N807 N 0.17392 0.52768 0.2773 0.0
H808 H 0.1748 0.45014 0.26939 0.0
H809 H 0.16073 0.48034 0.25893 0.0
H810 H 0.17333 0.54854 0.27912 0.0
H811 H 0.15572 0.51942 0.27144 0.0
H812 H 0.27076 0.47686 0.33503 0.0
H813 H 0.25776 0.44765 0.32135 0.0
H814 H 0.279 0.51568 0.32349 0.0
H815 H 0.26261 0.54592 0.3181 0.0
C816 C 0.21193 0.985 0.29533 0.0
C817 C 0.20202 0.97035 0.27307 0.0
C818 C 0.18267 0.01105 0.25376 0.0
C819 C 0.19366 0.02584 0.27537 0.0
N820 N 0.21297 0.02741 0.31944 0.0
N821 N 0.17357 0.96758 0.23401 0.0
C822 C 0.20647 0.0129 0.29709 0.0
C823 C 0.18572 0.98276 0.25335 0.0
N824 N 0.22686 0.97224 0.31445 0.0
N825 N 0.17089 0.02427 0.23282 0.0
H826 H 0.17673 0.94704 0.23179 0.0
H827 H 0.15898 0.97492 0.22106 0.0
H828 H 0.16749 0.04492 0.23279 0.0
H829 H 0.1656 0.01518 0.21482 0.0
H830 H 0.23719 0.98208 0.32963 0.0
H831 H 0.22971 0.9515 0.31468 0.0
H832 H 0.22045 0.01907 0.337 0.0
H833 H 0.20881 0.04787 0.32118 0.0
C834 C 0.51581 0.67042 0.76373 0.0
C835 C 0.52852 0.68614 0.78374 0.0
C836 C 0.48532 0.6959 0.8046 0.0
C837 C 0.47272 0.68521 0.7816 0.0
N838 N 0.47451 0.66019 0.7403 0.0
N839 N 0.52698 0.7091 0.8261 0.0
C840 C 0.48748 0.67108 0.76186 0.0
C841 C 0.5137 0.6971 0.80536 0.0
N842 N 0.53071 0.65549 0.7462 0.0
N843 N 0.46991 0.70505 0.82533 0.0
H844 H 0.54781 0.70848 0.82782 0.0
H845 H 0.51774 0.71961 0.84155 0.0
H846 H 0.44905 0.70388 0.82498 0.0
H847 H 0.47743 0.71213 0.84342 0.0
H848 H 0.52256 0.64155 0.73301 0.0
H849 H 0.55153 0.6552 0.74615 0.0
H850 H 0.48415 0.65281 0.72334 0.0
H851 H 0.45371 0.65944 0.73879 0.0
C852 C 0.79966 0.01179 0.32299 0.0
C853 C 0.81751 0.02332 0.30418 0.0
C854 C 0.83814 0.97923 0.29739 0.0
C855 C 0.81523 0.96742 0.30903 0.0
N856 N 0.77773 0.97117 0.33879 0.0
N857 N 0.85584 0.01806 0.27461 0.0
C858 C 0.79742 0.98339 0.32427 0.0
C859 C 0.83799 0.00727 0.29236 0.0
N860 N 0.78468 0.02818 0.33902 0.0
N861 N 0.85968 0.9637 0.2908 0.0
H862 H 0.85742 0.03847 0.27071 0.0
H863 H 0.86843 0.00646 0.26265 0.0
H864 H 0.86065 0.94338 0.29555 0.0
H865 H 0.87776 0.97158 0.28399 0.0
H866 H 0.77224 0.0213 0.35427 0.0
H867 H 0.78663 0.04903 0.33837 0.0
H868 H 0.76219 0.98136 0.34827 0.0
H869 H 0.777 0.95032 0.34091 0.0
C870 C 0.51588 0.28681 0.79392 0.0
C871 C 0.52905 0.27988 0.76971 0.0
C872 C 0.48654 0.26626 0.74958 0.0
C873 C 0.47295 0.27534 0.77295 0.0
N874 N 0.47386 0.29569 0.81681 0.0
N875 N 0.52716 0.26715 0.72312 0.0
C876 C 0.4874 0.28611 0.79497 0.0
C877 C 0.5145 0.27049 0.74725 0.0
N878 N 0.53069 0.2931 0.8161 0.0
N879 N 0.47281 0.2538 0.72939 0.0
H880 H 0.54763 0.27019 0.7204 0.0
H881 H 0.51715 0.26369 0.70516 0.0
H882 H 0.45207 0.25226 0.72867 0.0
H883 H 0.48215 0.24335 0.71391 0.0
H884 H 0.52258 0.2957 0.83514 0.0
H885 H 0.55157 0.29384 0.81593 0.0
H886 H 0.48282 0.3067 0.83209 0.0
H887 H 0.4532 0.29369 0.81914 0.0
C888 C 0.1949 0.01145 0.74325 0.0
C889 C 0.19469 0.02458 0.71809 0.0
C890 C 0.19345 0.98149 0.69466 0.0
C891 C 0.19382 0.96846 0.71988 0.0
N892 N 0.18783 0.97016 0.76777 0.0
N893 N 0.18857 0.02337 0.67021 0.0
C894 C 0.19236 0.98321 0.74409 0.0
C895 C 0.19218 0.00997 0.69384 0.0
N896 N 0.1982 0.02595 0.7663 0.0
N897 N 0.19538 0.96665 0.67169 0.0
H898 H 0.18815 0.04427 0.669 0.0
H899 H 0.18409 0.01396 0.65215 0.0
H900 H 0.19555 0.94571 0.67171 0.0
H901 H 0.19813 0.97493 0.65274 0.0
H902 H 0.202 0.01731 0.78491 0.0
H903 H 0.1987 0.04685 0.76669 0.0
H904 H 0.18392 0.97993 0.78579 0.0
H905 H 0.18536 0.94944 0.76897 0.0
C906 C 0.48717 0.70258 0.18794 0.0
C907 C 0.4746 0.69154 0.21089 0.0
C908 C 0.51801 0.67765 0.22864 0.0
C909 C 0.5304 0.69388 0.20901 0.0
N910 N 0.52884 0.7166 0.16684 0.0
N911 N 0.47706 0.66662 0.25229 0.0
C912 C 0.51555 0.70443 0.18739 0.0
C913 C 0.48967 0.67775 0.23066 0.0
N914 N 0.4718 0.7113 0.16702 0.0
N915 N 0.53352 0.66271 0.24555 0.0
H916 H 0.45629 0.66595 0.25425 0.0
H917 H 0.48706 0.6591 0.26896 0.0
H918 H 0.55436 0.66245 0.2442 0.0
H919 H 0.5259 0.64877 0.25907 0.0
H920 H 0.47943 0.71879 0.14913 0.0
H921 H 0.45098 0.70945 0.16696 0.0
H922 H 0.51969 0.72697 0.15126 0.0
H923 H 0.54963 0.71567 0.16544 0.0
C924 C 0.80018 0.00383 0.75107 0.0
C925 C 0.78847 0.01806 0.72942 0.0
C926 C 0.78187 0.97631 0.70453 0.0
C927 C 0.79366 0.96206 0.72616 0.0
N928 N 0.81808 0.96184 0.76787 0.0
N929 N 0.77258 0.01949 0.68392 0.0
C930 C 0.80422 0.97574 0.74872 0.0
C931 C 0.78051 0.00475 0.70566 0.0
N932 N 0.80622 0.01702 0.77436 0.0
N933 N 0.77202 0.96256 0.68296 0.0
H934 H 0.77153 0.0404 0.68415 0.0
H935 H 0.76894 0.01141 0.66506 0.0
H936 H 0.77471 0.94198 0.68042 0.0
H937 H 0.76033 0.97118 0.66802 0.0
H938 H 0.81181 0.00742 0.79201 0.0
H939 H 0.80403 0.03769 0.77673 0.0
H940 H 0.82911 0.97096 0.78302 0.0
H941 H 0.82006 0.94102 0.76777 0.0
C942 C 0.50721 0.29057 0.18383 0.0
C943 C 0.52101 0.30521 0.20377 0.0
C944 C 0.47909 0.3223 0.22206 0.0
C945 C 0.46524 0.305 0.20425 0.0
N946 N 0.46443 0.27985 0.1632 0.0
N947 N 0.52149 0.34204 0.23511 0.0
C948 C 0.47885 0.29165 0.18326 0.0
C949 C 0.50738 0.32375 0.22039 0.0
N950 N 0.52135 0.27495 0.1663 0.0
N951 N 0.46554 0.33543 0.24197 0.0
H952 H 0.5423 0.34326 0.23467 0.0
H953 H 0.51259 0.35766 0.24574 0.0
H954 H 0.44475 0.33541 0.2436 0.0
H955 H 0.47488 0.34535 0.25776 0.0
H956 H 0.51264 0.26155 0.15291 0.0
H957 H 0.54225 0.27521 0.16556 0.0
H958 H 0.47293 0.27115 0.14626 0.0
H959 H 0.44356 0.28079 0.16259 0.0
C960 C 0.29507 0.19154 0.01071 0.0
C961 C 0.27299 0.1797 0.02392 0.0
C962 C 0.25738 0.16087 0.98147 0.0
C963 C 0.27533 0.17821 0.96801 0.0
N964 N 0.31351 0.20756 0.9687 0.0
N965 N 0.23419 0.15089 0.02303 0.0
C966 C 0.2953 0.19234 0.98233 0.0
C967 C 0.25488 0.16298 0.00977 0.0
N968 N 0.31551 0.20214 0.0255 0.0
N969 N 0.24226 0.14316 0.96708 0.0
H970 H 0.2321 0.15155 0.04379 0.0
H971 H 0.21845 0.14111 0.01348 0.0
H972 H 0.24365 0.14159 0.94629 0.0
H973 H 0.23029 0.12845 0.97576 0.0
H974 H 0.33322 0.20941 0.01725 0.0
H975 H 0.31565 0.20133 0.04641 0.0
H976 H 0.32672 0.22087 0.97783 0.0
H977 H 0.31473 0.20739 0.94783 0.0
C978 C 0.30163 0.79142 0.0087 0.0
C979 C 0.28148 0.80521 0.02315 0.0
C980 C 0.26064 0.8204 0.9817 0.0
C981 C 0.27925 0.80437 0.96733 0.0
N982 N 0.3222 0.78265 0.96545 0.0
N983 N 0.24799 0.84009 0.02432 0.0
C984 C 0.30146 0.7926 0.98035 0.0
C985 C 0.26325 0.82245 0.00991 0.0
N986 N 0.32019 0.77644 0.02216 0.0
N987 N 0.23931 0.83179 0.96881 0.0
H988 H 0.24904 0.84165 0.0451 0.0
H989 H 0.23623 0.85494 0.01556 0.0
H990 H 0.23669 0.83102 0.94813 0.0
H991 H 0.22328 0.84076 0.97872 0.0
H992 H 0.33357 0.7634 0.01286 0.0
H993 H 0.3216 0.77655 0.04303 0.0
H994 H 0.34001 0.77558 0.97365 0.0
H995 H 0.32249 0.78384 0.94456 0.0
C996 C 0.657 0.77347 0.51959 0.0
C997 C 0.67529 0.79163 0.53131 0.0
C998 C 0.69073 0.80536 0.48702 0.0
C999 C 0.67802 0.78235 0.47635 0.0
N1000 N 0.64808 0.74455 0.48178 0.0
N1001 N 0.70564 0.82872 0.52706 0.0
C1002 C 0.66019 0.76684 0.49219 0.0
C1003 C 0.69057 0.8092 0.51515 0.0
N1004 N 0.63715 0.76221 0.53468 0.0
N1005 N 0.70286 0.82324 0.47017 0.0
H1006 H 0.70428 0.83277 0.54756 0.0
H1007 H 0.71962 0.84045 0.51698 0.0
H1008 H 0.70273 0.82085 0.44938 0.0
H1009 H 0.71102 0.8414 0.47641 0.0
H1010 H 0.62189 0.7505 0.5266 0.0
H1011 H 0.63404 0.76715 0.55471 0.0
H1012 H 0.63762 0.73069 0.49337 0.0
H1013 H 0.6499 0.73872 0.46182 0.0
C1014 C 0.73514 0.17141 0.01836 0.0
C1015 C 0.71445 0.18235 0.03453 0.0
C1016 C 0.69206 0.20041 0.99485 0.0
C1017 C 0.71262 0.1892 0.97875 0.0
N1018 N 0.75025 0.15897 0.97405 0.0
N1019 N 0.67053 0.20198 0.03849 0.0
C1020 C 0.73285 0.17281 0.99013 0.0
C1021 C 0.69203 0.19528 0.02285 0.0
N1022 N 0.758 0.16158 0.0299 0.0
N1023 N 0.67284 0.2162 0.98334 0.0
H1024 H 0.66985 0.19807 0.05902 0.0
H1025 H 0.65253 0.20927 0.03092 0.0
H1026 H 0.67133 0.21887 0.96266 0.0
H1027 H 0.65912 0.22753 0.99424 0.0
H1028 H 0.77509 0.15647 0.01907 0.0
H1029 H 0.76107 0.1607 0.05053 0.0
H1030 H 0.76309 0.14414 0.9812 0.0
H1031 H 0.75054 0.16058 0.95325 0.0
C1032 C 0.28888 0.20462 0.5127 0.0
C1033 C 0.28374 0.22921 0.52606 0.0
C1034 C 0.2807 0.25286 0.48328 0.0
C1035 C 0.28676 0.22846 0.46987 0.0
N1036 N 0.30007 0.18194 0.47113 0.0
N1037 N 0.27976 0.27739 0.52523 0.0
C1038 C 0.29208 0.20459 0.4844 0.0
C1039 C 0.28099 0.25353 0.51167 0.0
N1040 N 0.28944 0.18119 0.52698 0.0
N1041 N 0.27454 0.27538 0.46885 0.0
H1042 H 0.28004 0.27866 0.5461 0.0
H1043 H 0.28075 0.29608 0.516 0.0
H1044 H 0.27605 0.27642 0.44806 0.0
H1045 H 0.26652 0.2927 0.47731 0.0
H1046 H 0.2901 0.16224 0.51825 0.0
H1047 H 0.2874 0.1805 0.54776 0.0
H1048 H 0.30722 0.16482 0.48068 0.0
H1049 H 0.30112 0.18069 0.45029 0.0
C1050 C 0.72891 0.83991 0.009 0.0
C1051 C 0.71119 0.82454 0.02526 0.0
C1052 C 0.6927 0.80285 0.98547 0.0
C1053 C 0.71119 0.81723 0.9694 0.0
N1054 N 0.74029 0.85544 0.96436 0.0
N1055 N 0.6704 0.79911 0.02853 0.0
C1056 C 0.72679 0.83806 0.98066 0.0
C1057 C 0.69104 0.80863 0.01325 0.0
N1058 N 0.74928 0.85433 0.02029 0.0
N1059 N 0.67758 0.78288 0.97441 0.0
H1060 H 0.66859 0.80363 0.04888 0.0
H1061 H 0.65384 0.78923 0.02057 0.0
H1062 H 0.67773 0.77871 0.95394 0.0
H1063 H 0.66606 0.76959 0.98564 0.0
H1064 H 0.76471 0.86293 0.00919 0.0
H1065 H 0.75215 0.85624 0.04083 0.0
H1066 H 0.74981 0.87264 0.9714 0.0
H1067 H 0.73973 0.85416 0.94352 0.0
C1068 C 0.67671 0.22874 0.51152 0.0
C1069 C 0.69675 0.21203 0.52293 0.0
C1070 C 0.70691 0.19316 0.47884 0.0
C1071 C 0.68845 0.21137 0.46735 0.0
N1072 N 0.64841 0.23787 0.47324 0.0
N1073 N 0.72471 0.17283 0.51936 0.0
C1074 C 0.67067 0.22605 0.4839 0.0
C1075 C 0.7098 0.19231 0.50715 0.0
N1076 N 0.66506 0.24871 0.5263 0.0
N1077 N 0.72202 0.17729 0.46244 0.0
H1078 H 0.72659 0.1716 0.54016 0.0
H1079 H 0.73321 0.15667 0.50925 0.0
H1080 H 0.71844 0.17623 0.44187 0.0
H1081 H 0.73809 0.16571 0.46897 0.0
H1082 H 0.6529 0.26351 0.51798 0.0
H1083 H 0.66915 0.25207 0.54648 0.0
H1084 H 0.63355 0.2468 0.48489 0.0
H1085 H 0.64307 0.23594 0.45319 0.0
C1086 C 0.32582 0.75809 0.47849 0.0
C1087 C 0.31038 0.77755 0.46471 0.0
C1088 C 0.30001 0.80058 0.50663 0.0
C1089 C 0.31363 0.77994 0.52057 0.0
N1090 N 0.34629 0.7441 0.52017 0.0
N1091 N 0.28937 0.821 0.46374 0.0
C1092 C 0.32907 0.76054 0.50661 0.0
C1093 C 0.29965 0.80011 0.47822 0.0
N1094 N 0.33559 0.73621 0.46509 0.0
N1095 N 0.28689 0.82011 0.52074 0.0
H1096 H 0.28916 0.8211 0.44284 0.0
H1097 H 0.28309 0.83905 0.47213 0.0
H1098 H 0.28855 0.82196 0.54152 0.0
H1099 H 0.27394 0.83402 0.51215 0.0
H1100 H 0.34393 0.71958 0.47455 0.0
H1101 H 0.33389 0.73372 0.44443 0.0
H1102 H 0.3601 0.73161 0.51074 0.0
H1103 H 0.34868 0.74457 0.54087 0.0
C1104 C 0.13894 0.38072 0.21707 0.0
C1105 C 0.14906 0.38318 0.24342 0.0
C1106 C 0.11373 0.35453 0.26037 0.0
C1107 C 0.10984 0.34558 0.23374 0.0
N1108 N 0.10572 0.35995 0.18797 0.0
N1109 N 0.1369 0.38576 0.28991 0.0
C1110 C 0.11774 0.36236 0.21236 0.0
C1111 C 0.13294 0.37494 0.26515 0.0
N1112 N 0.15135 0.39416 0.19679 0.0
N1113 N 0.10066 0.34179 0.2807 0.0
H1114 H 0.15017 0.40165 0.29285 0.0
H1115 H 0.12539 0.38096 0.30662 0.0
H1116 H 0.0862 0.32716 0.27672 0.0
H1117 H 0.10421 0.34539 0.30093 0.0
H1118 H 0.14683 0.39158 0.1766 0.0
H1119 H 0.16666 0.40788 0.20078 0.0
H1120 H 0.11021 0.37211 0.17163 0.0
H1121 H 0.08918 0.34748 0.18516 0.0
C1122 C 0.11504 0.64258 0.72404 0.0
C1123 C 0.1143 0.64881 0.75165 0.0
C1124 C 0.14658 0.6136 0.76075 0.0
C1125 C 0.15392 0.61489 0.7334 0.0
N1126 N 0.13931 0.62033 0.6879 0.0
N1127 N 0.11852 0.63189 0.79641 0.0
C1128 C 0.13562 0.62533 0.71451 0.0
C1129 C 0.12599 0.63091 0.77015 0.0
N1130 N 0.09749 0.6552 0.70735 0.0
N1131 N 0.161 0.59751 0.77748 0.0
H1132 H 0.10254 0.64381 0.80275 0.0
H1133 H 0.12674 0.61995 0.81138 0.0
H1134 H 0.176 0.58491 0.77001 0.0
H1135 H 0.15789 0.59608 0.79804 0.0
H1136 H 0.0967 0.6523 0.68672 0.0
H1137 H 0.08279 0.66805 0.71499 0.0
H1138 H 0.12759 0.62847 0.67273 0.0
H1139 H 0.15373 0.60675 0.6812 0.0
C1140 C 0.85274 0.61545 0.24072 0.0
C1141 C 0.85055 0.62103 0.26832 0.0
C1142 C 0.88671 0.65334 0.2645 0.0
C1143 C 0.88044 0.65533 0.23698 0.0
N1144 N 0.865 0.63369 0.19709 0.0
N1145 N 0.87182 0.63681 0.30805 0.0
C1146 C 0.86674 0.63407 0.22432 0.0
C1147 C 0.87067 0.63637 0.28079 0.0
N1148 N 0.83886 0.59431 0.23045 0.0
N1149 N 0.90596 0.6697 0.27483 0.0
H1150 H 0.85932 0.62445 0.31947 0.0
H1151 H 0.88472 0.64897 0.31902 0.0
H1152 H 0.91692 0.68253 0.2624 0.0
H1153 H 0.91196 0.66943 0.29479 0.0
H1154 H 0.83968 0.58852 0.21042 0.0
H1155 H 0.82787 0.58163 0.243 0.0
H1156 H 0.85342 0.62004 0.18638 0.0
H1157 H 0.87546 0.64757 0.18541 0.0
C1158 C 0.86788 0.34679 0.73128 0.0
C1159 C 0.86592 0.33865 0.7584 0.0
C1160 C 0.83903 0.37816 0.76839 0.0
C1161 C 0.83384 0.38043 0.74069 0.0
N1162 N 0.85188 0.377 0.69629 0.0
N1163 N 0.85609 0.34999 0.80427 0.0
C1164 C 0.85164 0.36843 0.72223 0.0
C1165 C 0.85441 0.35607 0.77766 0.0
N1166 N 0.88398 0.33253 0.71434 0.0
N1167 N 0.82743 0.39617 0.78539 0.0
H1168 H 0.86802 0.33438 0.81138 0.0
H1169 H 0.8458 0.36025 0.81924 0.0
H1170 H 0.81574 0.41193 0.77801 0.0
H1171 H 0.83084 0.39672 0.80595 0.0
H1172 H 0.88582 0.3362 0.69392 0.0
H1173 H 0.89619 0.31704 0.72142 0.0
H1174 H 0.86379 0.36877 0.68129 0.0
H1175 H 0.8412 0.39395 0.69029 0.0
C1176 C 0.23166 0.14534 0.38202 0.0
C1177 C 0.25921 0.15094 0.37948 0.0
C1178 C 0.26372 0.11529 0.34669 0.0
C1179 C 0.23584 0.11747 0.3423 0.0
N1180 N 0.19231 0.12557 0.36094 0.0
N1181 N 0.30285 0.13472 0.36862 0.0
C1182 C 0.21937 0.12878 0.36237 0.0
C1183 C 0.2758 0.13277 0.36563 0.0
N1184 N 0.21745 0.1583 0.40143 0.0
N1185 N 0.27827 0.0983 0.33097 0.0
H1186 H 0.31116 0.148 0.38252 0.0
H1187 H 0.31669 0.12324 0.35804 0.0
H1188 H 0.26886 0.08595 0.3169 0.0
H1189 H 0.29885 0.09554 0.33263 0.0
H1190 H 0.19709 0.15552 0.40487 0.0
H1191 H 0.22707 0.17106 0.41499 0.0
H1192 H 0.17875 0.13473 0.37387 0.0
H1193 H 0.18359 0.1129 0.34677 0.0
C1194 C 0.35633 0.77926 0.86178 0.0
C1195 C 0.34238 0.75755 0.87358 0.0
C1196 C 0.37458 0.72595 0.85469 0.0
C1197 C 0.38139 0.74614 0.83601 0.0
N1198 N 0.39065 0.79275 0.82963 0.0
N1199 N 0.34357 0.71245 0.88996 0.0
C1200 C 0.37662 0.77328 0.84273 0.0
C1201 C 0.35399 0.73165 0.8735 0.0
N1202 N 0.34874 0.80499 0.86725 0.0
N1203 N 0.3873 0.70176 0.85394 0.0
H1204 H 0.32881 0.7172 0.90406 0.0
H1205 H 0.34929 0.69238 0.88977 0.0
H1206 H 0.40372 0.6984 0.84148 0.0
H1207 H 0.38349 0.68613 0.86721 0.0
H1208 H 0.35636 0.82179 0.85754 0.0
H1209 H 0.33523 0.80953 0.88252 0.0
H1210 H 0.38875 0.8132 0.83332 0.0
H1211 H 0.40558 0.78775 0.81579 0.0
C1212 C 0.70788 0.84705 0.36449 0.0
C1213 C 0.72855 0.83075 0.37536 0.0
C1214 C 0.76212 0.86344 0.36076 0.0
C1215 C 0.74265 0.87423 0.34332 0.0
N1216 N 0.69682 0.8873 0.33896 0.0
N1217 N 0.7742 0.8265 0.39017 0.0
C1218 C 0.71529 0.86982 0.34901 0.0
C1219 C 0.75531 0.84037 0.37604 0.0
N1220 N 0.68168 0.83965 0.36704 0.0
N1221 N 0.7865 0.87556 0.36299 0.0
H1222 H 0.7691 0.81051 0.4027 0.0
H1223 H 0.79465 0.83038 0.38914 0.0
H1224 H 0.79047 0.894 0.35394 0.0
H1225 H 0.8014 0.86931 0.37615 0.0
H1226 H 0.66597 0.84887 0.3569 0.0
H1227 H 0.67545 0.82402 0.37936 0.0
H1228 H 0.67644 0.88655 0.34323 0.0
H1229 H 0.70272 0.90415 0.32798 0.0
C1230 C 0.64406 0.27517 0.88444 0.0
C1231 C 0.65015 0.24767 0.88695 0.0
C1232 C 0.6203 0.23719 0.85014 0.0
C1233 C 0.6225 0.26436 0.84217 0.0
N1234 N 0.62875 0.31054 0.85449 0.0
N1235 N 0.63305 0.20308 0.88286 0.0
C1236 C 0.63097 0.28401 0.86078 0.0
C1237 C 0.63384 0.22883 0.87373 0.0
N1238 N 0.65352 0.29243 0.90337 0.0
N1239 N 0.60718 0.21954 0.8339 0.0
H1240 H 0.64279 0.19762 0.90054 0.0
H1241 H 0.62151 0.18798 0.87429 0.0
H1242 H 0.59693 0.22608 0.81685 0.0
H1243 H 0.60622 0.19897 0.83725 0.0
H1244 H 0.64975 0.31296 0.90345 0.0
H1245 H 0.66401 0.28522 0.92001 0.0
H1246 H 0.63647 0.32599 0.86618 0.0
H1247 H 0.6188 0.31693 0.83725 0.0
C1248 C 0.23709 0.84884 0.61449 0.0
C1249 C 0.26431 0.84137 0.61659 0.0
C1250 C 0.27129 0.87622 0.64991 0.0
C1251 C 0.24334 0.8761 0.65438 0.0
N1252 N 0.19932 0.87147 0.63568 0.0
N1253 N 0.3091 0.8537 0.62876 0.0
C1254 C 0.22607 0.86612 0.63432 0.0
C1255 C 0.28219 0.85775 0.63116 0.0
N1256 N 0.22192 0.83748 0.59481 0.0
N1257 N 0.28694 0.89254 0.66524 0.0
H1258 H 0.31701 0.8408 0.61431 0.0
H1259 H 0.32342 0.86319 0.64055 0.0
H1260 H 0.27841 0.90563 0.67922 0.0
H1261 H 0.30758 0.89436 0.66304 0.0
H1262 H 0.20181 0.84182 0.59154 0.0
H1263 H 0.23051 0.82453 0.58074 0.0
H1264 H 0.18509 0.86322 0.62291 0.0
H1265 H 0.19156 0.88511 0.64951 0.0
C1266 C 0.64272 0.8159 0.15178 0.0
C1267 C 0.65279 0.7963 0.13397 0.0
C1268 C 0.61918 0.76464 0.14978 0.0
C1269 C 0.61689 0.78024 0.17335 0.0
N1270 N 0.61544 0.82494 0.19135 0.0
N1271 N 0.64651 0.75474 0.11072 0.0
C1272 C 0.62471 0.80761 0.1723 0.0
C1273 C 0.63904 0.77177 0.13077 0.0
N1274 N 0.65159 0.84167 0.14962 0.0
N1275 N 0.6022 0.74373 0.14554 0.0
H1276 H 0.66056 0.76045 0.09627 0.0
H1277 H 0.6394 0.73518 0.10893 0.0
H1278 H 0.58598 0.74041 0.1582 0.0
H1279 H 0.60201 0.73237 0.12802 0.0
H1280 H 0.64562 0.85731 0.16206 0.0
H1281 H 0.66424 0.8475 0.13401 0.0
H1282 H 0.62133 0.84487 0.19307 0.0
H1283 H 0.60081 0.81908 0.20514 0.0
C1284 C 0.72745 0.11917 0.6462 0.0
C1285 C 0.75223 0.11365 0.65882 0.0
C1286 C 0.77578 0.13949 0.62487 0.0
C1287 C 0.75082 0.15077 0.61751 0.0
N1288 N 0.70473 0.14006 0.60848 0.0
N1289 N 0.79918 0.10576 0.65127 0.0
C1290 C 0.72712 0.13656 0.6237 0.0
C1291 C 0.77628 0.11923 0.6449 0.0
N1292 N 0.70444 0.10921 0.65705 0.0
N1293 N 0.79865 0.14956 0.61386 0.0
H1294 H 0.79914 0.0897 0.66464 0.0
H1295 H 0.81728 0.10839 0.64127 0.0
H1296 H 0.79792 0.16368 0.5984 0.0
H1297 H 0.81785 0.14437 0.6201 0.0
H1298 H 0.68535 0.11474 0.65076 0.0
H1299 H 0.70494 0.09564 0.67301 0.0
H1300 H 0.68701 0.12948 0.61153 0.0
H1301 H 0.70513 0.15121 0.5908 0.0
C1302 C 0.347 0.26144 0.11341 0.0
C1303 C 0.33536 0.23567 0.11122 0.0
C1304 C 0.36757 0.21771 0.14288 0.0
C1305 C 0.37295 0.24445 0.1509 0.0
N1306 N 0.38127 0.28909 0.13427 0.0
N1307 N 0.34482 0.1884 0.11114 0.0
C1308 C 0.36741 0.26558 0.13276 0.0
C1309 C 0.34939 0.21331 0.12146 0.0
N1310 N 0.33693 0.28191 0.09834 0.0
N1311 N 0.37877 0.19702 0.15682 0.0
H1312 H 0.33287 0.18563 0.09422 0.0
H1313 H 0.35487 0.1712 0.11734 0.0
H1314 H 0.39315 0.2005 0.17162 0.0
H1315 H 0.37387 0.17694 0.15394 0.0
H1316 H 0.34236 0.30193 0.10066 0.0
H1317 H 0.3225 0.27833 0.08361 0.0
H1318 H 0.37858 0.30499 0.12103 0.0
H1319 H 0.39774 0.29135 0.14687 0.0
C1320 C 0.86022 0.62676 0.71986 0.0
C1321 C 0.84188 0.61639 0.73866 0.0
C1322 C 0.86789 0.63554 0.7752 0.0
C1323 C 0.87809 0.65395 0.75626 0.0
N1324 N 0.89448 0.66061 0.71162 0.0
N1325 N 0.83495 0.60029 0.78322 0.0
C1326 C 0.87839 0.64673 0.7288 0.0
C1327 C 0.84879 0.61651 0.76613 0.0
N1328 N 0.85902 0.61851 0.69386 0.0
N1329 N 0.87565 0.63713 0.80133 0.0
H1330 H 0.82096 0.58651 0.77591 0.0
H1331 H 0.83726 0.60033 0.80393 0.0
H1332 H 0.89092 0.65002 0.80742 0.0
H1333 H 0.86886 0.62429 0.81629 0.0
H1334 H 0.87183 0.62529 0.67887 0.0
H1335 H 0.84625 0.60302 0.68798 0.0
H1336 H 0.89468 0.65789 0.69095 0.0
H1337 H 0.908 0.67493 0.71875 0.0
C1338 C 0.86485 0.35268 0.23911 0.0
C1339 C 0.87185 0.33245 0.25771 0.0
C1340 C 0.84786 0.35632 0.29303 0.0
C1341 C 0.83385 0.37006 0.27268 0.0
N1342 N 0.83281 0.38784 0.22815 0.0
N1343 N 0.88191 0.32287 0.30365 0.0
C1344 C 0.84433 0.37103 0.24638 0.0
C1345 C 0.86764 0.3373 0.28535 0.0
N1346 N 0.87771 0.35423 0.21505 0.0
N1347 N 0.84029 0.35981 0.31907 0.0
H1348 H 0.89675 0.30937 0.29756 0.0
H1349 H 0.88042 0.32539 0.32429 0.0
H1350 H 0.82605 0.37423 0.32438 0.0
H1351 H 0.84803 0.34897 0.3351 0.0
H1352 H 0.87408 0.3692 0.20097 0.0
H1353 H 0.89435 0.34237 0.21069 0.0
H1354 H 0.83728 0.38772 0.20778 0.0
H1355 H 0.81813 0.40165 0.23389 0.0
C1356 C 0.14013 0.35046 0.79311 0.0
C1357 C 0.12745 0.33987 0.77002 0.0
C1358 C 0.14745 0.37509 0.74253 0.0
C1359 C 0.16618 0.37924 0.76337 0.0
N1360 N 0.17205 0.38302 0.81077 0.0
N1361 N 0.1127 0.34588 0.72472 0.0
C1362 C 0.15931 0.37123 0.78966 0.0
C1363 C 0.12848 0.35407 0.74549 0.0
N1364 N 0.1356 0.33906 0.81756 0.0
N1365 N 0.14787 0.39112 0.72041 0.0
H1366 H 0.09813 0.33106 0.72729 0.0
H1367 H 0.11426 0.35322 0.70527 0.0
H1368 H 0.16022 0.40792 0.71927 0.0
H1369 H 0.13413 0.38976 0.70481 0.0
H1370 H 0.14629 0.3438 0.8348 0.0
H1371 H 0.12086 0.32456 0.8205 0.0
H1372 H 0.16762 0.37915 0.83077 0.0
H1373 H 0.18588 0.39846 0.80775 0.0
C1374 C 0.14446 0.62031 0.21914 0.0
C1375 C 0.15346 0.61617 0.24569 0.0
C1376 C 0.11729 0.64374 0.26283 0.0
C1377 C 0.11478 0.65455 0.23677 0.0
N1378 N 0.11395 0.64472 0.18977 0.0
N1379 N 0.1392 0.61072 0.29136 0.0
C1380 C 0.12383 0.63941 0.21466 0.0
C1381 C 0.13636 0.62307 0.26718 0.0
N1382 N 0.15739 0.60762 0.19866 0.0
N1383 N 0.10343 0.65537 0.28331 0.0
H1384 H 0.1523 0.59461 0.29392 0.0
H1385 H 0.12691 0.6145 0.30779 0.0
H1386 H 0.08943 0.67052 0.27958 0.0
H1387 H 0.10596 0.65042 0.30341 0.0
H1388 H 0.15344 0.61092 0.17846 0.0
H1389 H 0.17231 0.59342 0.20252 0.0
H1390 H 0.1196 0.63439 0.17255 0.0
H1391 H 0.09831 0.65833 0.18699 0.0
C1392 C 0.77971 0.87737 0.6212 0.0
C1393 C 0.76477 0.888 0.64261 0.0
C1394 C 0.72362 0.87271 0.62168 0.0
C1395 C 0.73939 0.8532 0.60863 0.0
N1396 N 0.78036 0.84378 0.58561 0.0
N1397 N 0.72314 0.90679 0.65678 0.0
C1398 C 0.7668 0.85866 0.60408 0.0
C1399 C 0.73676 0.89043 0.63967 0.0
N1400 N 0.80637 0.88282 0.61971 0.0
N1401 N 0.69658 0.8728 0.61811 0.0
H1402 H 0.73339 0.91876 0.67055 0.0
H1403 H 0.70237 0.90837 0.65741 0.0
H1404 H 0.68748 0.85998 0.60431 0.0
H1405 H 0.68374 0.88663 0.62701 0.0
H1406 H 0.81893 0.87558 0.60471 0.0
H1407 H 0.81531 0.89598 0.63335 0.0
H1408 H 0.80084 0.84538 0.58209 0.0
H1409 H 0.77031 0.82989 0.57358 0.0
C1410 C 0.62293 0.24672 0.13972 0.0
C1411 C 0.60925 0.23246 0.15991 0.0
C1412 C 0.62878 0.1904 0.14454 0.0
C1413 C 0.6484 0.2058 0.13125 0.0
N1414 N 0.66025 0.24624 0.1082 0.0
N1415 N 0.58864 0.19112 0.17246 0.0
C1416 C 0.64353 0.23318 0.12544 0.0
C1417 C 0.60814 0.20417 0.15849 0.0
N1418 N 0.61693 0.27305 0.13542 0.0
N1419 N 0.63164 0.16322 0.14576 0.0
H1420 H 0.57403 0.20185 0.18299 0.0
H1421 H 0.58601 0.17041 0.17233 0.0
H1422 H 0.64683 0.15339 0.13523 0.0
H1423 H 0.61917 0.15063 0.15674 0.0
H1424 H 0.62602 0.28489 0.12086 0.0
H1425 H 0.60099 0.28234 0.14528 0.0
H1426 H 0.65946 0.26672 0.1043 0.0
H1427 H 0.67511 0.23593 0.09763 0.0
C1428 C 0.21583 0.14242 0.60538 0.0
C1429 C 0.24298 0.15044 0.60495 0.0
C1430 C 0.2554 0.10957 0.62815 0.0
C1431 C 0.22886 0.10876 0.63771 0.0
N1432 N 0.18281 0.11232 0.62539 0.0
N1433 N 0.28881 0.13582 0.604 0.0
C1434 C 0.2086 0.12048 0.62201 0.0
C1435 C 0.26296 0.13147 0.61158 0.0
N1436 N 0.19738 0.15766 0.59225 0.0
N1437 N 0.27328 0.09134 0.6378 0.0
H1438 H 0.29386 0.1515 0.59111 0.0
H1439 H 0.30475 0.12352 0.60938 0.0
H1440 H 0.26699 0.07616 0.65082 0.0
H1441 H 0.29338 0.09065 0.63237 0.0
H1442 H 0.17687 0.15402 0.59255 0.0
H1443 H 0.20337 0.17395 0.58048 0.0
H1444 H 0.16662 0.12029 0.61495 0.0
H1445 H 0.17822 0.09629 0.63807 0.0
C1446 C 0.35033 0.71783 0.11302 0.0
C1447 C 0.34215 0.74462 0.10834 0.0
C1448 C 0.38033 0.76127 0.13329 0.0
C1449 C 0.38262 0.73544 0.14473 0.0
N1450 N 0.38174 0.68814 0.13581 0.0
N1451 N 0.3584 0.78928 0.09994 0.0
C1452 C 0.37199 0.71319 0.13084 0.0
C1453 C 0.36049 0.76561 0.11343 0.0
N1454 N 0.336 0.69739 0.10189 0.0
N1455 N 0.39543 0.78166 0.14343 0.0
H1456 H 0.34492 0.79173 0.08418 0.0
H1457 H 0.37175 0.80514 0.10228 0.0
H1458 H 0.41019 0.77795 0.15781 0.0
H1459 H 0.39309 0.80171 0.13808 0.0
H1460 H 0.33921 0.67718 0.10601 0.0
H1461 H 0.32059 0.70126 0.08826 0.0
H1462 H 0.37505 0.67089 0.12616 0.0
H1463 H 0.39841 0.68518 0.14805 0.0
C1464 C 0.74305 0.18859 0.32302 0.0
C1465 C 0.74144 0.185 0.35112 0.0
C1466 C 0.75524 0.13792 0.34531 0.0
C1467 C 0.75979 0.14303 0.31769 0.0
N1468 N 0.76678 0.17634 0.28314 0.0
N1469 N 0.74936 0.15722 0.3898 0.0
C1470 C 0.75644 0.16935 0.3075 0.0
C1471 C 0.74842 0.15985 0.36262 0.0
N1472 N 0.73111 0.21008 0.31086 0.0
N1473 N 0.75682 0.11229 0.35478 0.0
H1474 H 0.74473 0.17306 0.40264 0.0
H1475 H 0.75655 0.14014 0.39942 0.0
H1476 H 0.7622 0.09616 0.34257 0.0
H1477 H 0.75123 0.1069 0.37416 0.0
H1478 H 0.72983 0.21199 0.29008 0.0
H1479 H 0.71984 0.22428 0.32125 0.0
H1480 H 0.76684 0.19602 0.27605 0.0
H1481 H 0.77815 0.16318 0.27165 0.0
C1482 C 0.33714 0.27425 0.87902 0.0
C1483 C 0.33039 0.24706 0.88345 0.0
C1484 C 0.36805 0.23274 0.85609 0.0
C1485 C 0.36877 0.2589 0.84521 0.0
N1486 N 0.36196 0.30609 0.85146 0.0
N1487 N 0.34878 0.20287 0.88949 0.0
C1488 C 0.3566 0.28039 0.85914 0.0
C1489 C 0.34925 0.227 0.87667 0.0
N1490 N 0.32363 0.29363 0.89281 0.0
N1491 N 0.38363 0.21326 0.84487 0.0
H1492 H 0.33618 0.19938 0.90577 0.0
H1493 H 0.36262 0.18763 0.88605 0.0
H1494 H 0.39775 0.21788 0.8301 0.0
H1495 H 0.38232 0.19299 0.84969 0.0
H1496 H 0.32725 0.3141 0.89099 0.0
H1497 H 0.30949 0.28854 0.90741 0.0
H1498 H 0.35251 0.32294 0.85934 0.0
H1499 H 0.37659 0.31033 0.83713 0.0
C1500 C 0.23449 0.85566 0.37613 0.0
C1501 C 0.26047 0.84485 0.37955 0.0
C1502 C 0.27943 0.88058 0.35269 0.0
C1503 C 0.25344 0.88485 0.34235 0.0
N1504 N 0.20727 0.89008 0.35463 0.0
N1505 N 0.30686 0.85649 0.38508 0.0
C1506 C 0.23118 0.87738 0.35807 0.0
C1507 C 0.28284 0.86088 0.37292 0.0
N1508 N 0.21332 0.84351 0.38835 0.0
N1509 N 0.30054 0.89346 0.34113 0.0
H1510 H 0.30875 0.84295 0.4009 0.0
H1511 H 0.32388 0.86797 0.38145 0.0
H1512 H 0.29746 0.90801 0.32636 0.0
H1513 H 0.32049 0.88962 0.34578 0.0
H1514 H 0.19341 0.84865 0.38493 0.0
H1515 H 0.21627 0.82781 0.40192 0.0
H1516 H 0.19025 0.88589 0.36593 0.0
H1517 H 0.20554 0.90671 0.34203 0.0
C1518 C 0.61945 0.75779 0.86524 0.0
C1519 C 0.61874 0.73233 0.85281 0.0
C1520 C 0.65021 0.7149 0.88553 0.0
C1521 C 0.65737 0.74181 0.89107 0.0
N1522 N 0.63899 0.78551 0.90025 0.0
N1523 N 0.62175 0.68474 0.85962 0.0
C1524 C 0.63837 0.76223 0.88595 0.0
C1525 C 0.62982 0.71 0.86628 0.0
N1526 N 0.60375 0.77787 0.85536 0.0
N1527 N 0.66425 0.6947 0.89745 0.0
H1528 H 0.60583 0.68149 0.84651 0.0
H1529 H 0.62917 0.66737 0.86845 0.0
H1530 H 0.67868 0.69886 0.91203 0.0
H1531 H 0.66151 0.67442 0.89339 0.0
H1532 H 0.60498 0.79779 0.86151 0.0
H1533 H 0.58961 0.77407 0.8404 0.0
H1534 H 0.62507 0.80089 0.89799 0.0
H1535 H 0.65194 0.78801 0.91642 0.0
C1536 C 0.10847 0.17921 0.22284 0.0
C1537 C 0.10525 0.20404 0.23655 0.0
C1538 C 0.13852 0.19045 0.26987 0.0
C1539 C 0.14451 0.16757 0.25418 0.0
N1540 N 0.12776 0.13446 0.22324 0.0
N1541 N 0.10594 0.22495 0.28008 0.0
C1542 C 0.12708 0.16003 0.23303 0.0
C1543 C 0.11668 0.20698 0.26242 0.0
N1544 N 0.09422 0.17388 0.20014 0.0
N1545 N 0.15391 0.19659 0.29164 0.0
H1546 H 0.08847 0.23562 0.27575 0.0
H1547 H 0.1122 0.22671 0.29991 0.0
H1548 H 0.16881 0.18379 0.29885 0.0
H1549 H 0.15254 0.2148 0.30183 0.0
H1550 H 0.0993 0.15869 0.18673 0.0
H1551 H 0.07681 0.18413 0.19507 0.0
H1552 H 0.11401 0.12699 0.20947 0.0
H1553 H 0.14054 0.1198 0.2308 0.0
C1554 C 0.30761 0.6607 0.76143 0.0
C1555 C 0.32914 0.66577 0.74363 0.0
C1556 C 0.31861 0.62465 0.71866 0.0
C1557 C 0.29461 0.62231 0.73361 0.0
N1558 N 0.27445 0.62878 0.77692 0.0
N1559 N 0.35564 0.65298 0.70523 0.0
C1560 C 0.29148 0.63762 0.75738 0.0
C1561 C 0.33502 0.64764 0.72242 0.0
N1562 N 0.30222 0.67823 0.78183 0.0
N1563 N 0.32678 0.60402 0.70259 0.0
H1564 H 0.36868 0.66902 0.70797 0.0
H1565 H 0.35874 0.64266 0.68735 0.0
H1566 H 0.31726 0.58542 0.70261 0.0
H1567 H 0.345 0.60373 0.69246 0.0
H1568 H 0.28481 0.6775 0.79331 0.0
H1569 H 0.31441 0.69461 0.78632 0.0
H1570 H 0.27261 0.63777 0.79567 0.0
H1571 H 0.26475 0.61028 0.77562 0.0
C1572 C 0.83822 0.81709 0.26588 0.0
C1573 C 0.81917 0.82726 0.24733 0.0
C1574 C 0.8449 0.80792 0.21029 0.0
C1575 C 0.86151 0.79437 0.22875 0.0
N1576 N 0.87476 0.78596 0.27438 0.0
N1577 N 0.80132 0.82624 0.20212 0.0
C1578 C 0.85843 0.79903 0.25669 0.0
C1579 C 0.82153 0.82083 0.21967 0.0
N1580 N 0.83672 0.82431 0.29228 0.0
N1581 N 0.85158 0.8093 0.1838 0.0
H1582 H 0.78379 0.83619 0.20725 0.0
H1583 H 0.80097 0.81833 0.18278 0.0
H1584 H 0.86953 0.80202 0.17624 0.0
H1585 H 0.8411 0.82101 0.17003 0.0
H1586 H 0.8517 0.82028 0.3062 0.0
H1587 H 0.82081 0.83532 0.30019 0.0
H1588 H 0.87162 0.78565 0.295 0.0
H1589 H 0.89125 0.77465 0.26823 0.0
C1590 C 0.67499 0.36434 0.76108 0.0
C1591 C 0.6613 0.34837 0.74203 0.0
C1592 C 0.67484 0.37899 0.70609 0.0
C1593 C 0.69353 0.39051 0.72395 0.0
N1594 N 0.70303 0.40348 0.7692 0.0
N1595 N 0.64519 0.34152 0.69706 0.0
C1596 C 0.69068 0.38625 0.75186 0.0
C1597 C 0.65981 0.35638 0.71478 0.0
N1598 N 0.67402 0.35755 0.7876 0.0
N1599 N 0.67077 0.39021 0.6815 0.0
H1600 H 0.63284 0.32583 0.70322 0.0
H1601 H 0.64607 0.34406 0.67637 0.0
H1602 H 0.67972 0.40822 0.67588 0.0
H1603 H 0.65621 0.38367 0.66809 0.0
H1604 H 0.68552 0.36661 0.80243 0.0
H1605 H 0.66173 0.34222 0.79479 0.0
H1606 H 0.70112 0.4027 0.78993 0.0
H1607 H 0.71359 0.42022 0.76234 0.0
C1608 C 0.12356 0.78882 0.73317 0.0
C1609 C 0.1127 0.79001 0.75943 0.0
C1610 C 0.13776 0.83168 0.76704 0.0
C1611 C 0.15376 0.8256 0.74429 0.0
N1612 N 0.16086 0.79966 0.70414 0.0
N1613 N 0.10393 0.81708 0.79871 0.0
C1614 C 0.14618 0.80469 0.72672 0.0
C1615 C 0.11783 0.81301 0.77551 0.0
N1616 N 0.11152 0.77316 0.71422 0.0
N1617 N 0.14125 0.85553 0.78006 0.0
H1618 H 0.0857 0.80778 0.80267 0.0
H1619 H 0.10996 0.83036 0.81363 0.0
H1620 H 0.1552 0.86974 0.77387 0.0
H1621 H 0.12891 0.86236 0.79543 0.0
H1622 H 0.1173 0.77291 0.69416 0.0
H1623 H 0.09359 0.76307 0.71802 0.0
H1624 H 0.15815 0.78265 0.69232 0.0
H1625 H 0.17667 0.81189 0.69799 0.0
C1626 C 0.70031 0.69008 0.24269 0.0
C1627 C 0.6737 0.68563 0.2517 0.0
C1628 C 0.6856 0.6393 0.26376 0.0
C1629 C 0.71292 0.6452 0.25884 0.0
N1630 N 0.74242 0.67003 0.22957 0.0
N1631 N 0.64108 0.6562 0.27212 0.0
C1632 C 0.71939 0.66893 0.24435 0.0
C1633 C 0.66628 0.66019 0.26229 0.0
N1634 N 0.70742 0.71452 0.23248 0.0
N1635 N 0.67768 0.61327 0.26713 0.0
H1636 H 0.62594 0.67041 0.27062 0.0
H1637 H 0.63574 0.63958 0.28358 0.0
H1638 H 0.69057 0.59713 0.26401 0.0
H1639 H 0.65773 0.6074 0.26866 0.0
H1640 H 0.72723 0.72026 0.22935 0.0
H1641 H 0.69365 0.7297 0.22839 0.0
H1642 H 0.74749 0.68602 0.21716 0.0
H1643 H 0.75435 0.65323 0.2261 0.0
C1644 C 0.85461 0.19693 0.73653 0.0
C1645 C 0.8675 0.19639 0.76183 0.0
C1646 C 0.83888 0.1593 0.77612 0.0
C1647 C 0.82318 0.16289 0.75267 0.0
N1648 N 0.81673 0.18323 0.70929 0.0
N1649 N 0.88132 0.16768 0.7981 0.0
C1650 C 0.83145 0.18093 0.73229 0.0
C1651 C 0.8626 0.17468 0.77945 0.0
N1652 N 0.86562 0.21172 0.71627 0.0
N1653 N 0.83041 0.14222 0.79581 0.0
H1654 H 0.90028 0.17638 0.79862 0.0
H1655 H 0.87964 0.15085 0.81034 0.0
H1656 H 0.81337 0.1303 0.79391 0.0
H1657 H 0.83917 0.1413 0.81472 0.0
H1658 H 0.85856 0.21186 0.69667 0.0
H1659 H 0.88388 0.22166 0.71853 0.0
H1660 H 0.81968 0.19818 0.69505 0.0
H1661 H 0.80059 0.17072 0.70484 0.0
C1662 C 0.32726 0.34186 0.26194 0.0
C1663 C 0.32169 0.32291 0.24146 0.0
C1664 C 0.2874 0.3528 0.22302 0.0
C1665 C 0.29048 0.36984 0.24559 0.0
N1666 N 0.32227 0.38775 0.27711 0.0
N1667 N 0.29659 0.3097 0.20233 0.0
C1668 C 0.31313 0.36659 0.26235 0.0
C1669 C 0.30188 0.32826 0.22182 0.0
N1670 N 0.34519 0.3357 0.2817 0.0
N1671 N 0.27228 0.36127 0.20184 0.0
H1672 H 0.30756 0.29203 0.20008 0.0
H1673 H 0.28026 0.31091 0.18943 0.0
H1674 H 0.26419 0.38057 0.20103 0.0
H1675 H 0.27059 0.35088 0.18383 0.0
H1676 H 0.34783 0.3474 0.2988 0.0
H1677 H 0.35573 0.31763 0.28222 0.0
H1678 H 0.33983 0.38717 0.28833 0.0
H1679 H 0.31443 0.40702 0.27498 0.0
C1680 C 0.25776 0.1546 0.17938 0.0
C1681 C 0.23807 0.17316 0.17064 0.0
C1682 C 0.20287 0.14484 0.18926 0.0
C1683 C 0.22244 0.12906 0.20228 0.0
N1684 N 0.26879 0.11741 0.20886 0.0
N1685 N 0.19221 0.18849 0.1717 0.0
C1686 C 0.25005 0.13343 0.19693 0.0
C1687 C 0.21074 0.16908 0.17695 0.0
N1688 N 0.28371 0.15732 0.17103 0.0
N1689 N 0.17698 0.13633 0.18753 0.0
H1690 H 0.19716 0.20667 0.16275 0.0
H1691 H 0.17263 0.18761 0.17892 0.0
H1692 H 0.17103 0.11725 0.19345 0.0
H1693 H 0.16242 0.14651 0.17655 0.0
H1694 H 0.29846 0.14293 0.1743 0.0
H1695 H 0.29029 0.17353 0.15955 0.0
H1696 H 0.28925 0.12136 0.20859 0.0
H1697 H 0.26361 0.10028 0.21971 0.0
C1698 C 0.35635 0.72017 0.66032 0.0
C1699 C 0.34347 0.74547 0.66271 0.0
C1700 C 0.37785 0.76035 0.6942 0.0
C1701 C 0.38754 0.73367 0.69532 0.0
N1702 N 0.39633 0.69403 0.66928 0.0
N1703 N 0.3428 0.79081 0.67956 0.0
C1704 C 0.38003 0.71521 0.67521 0.0
C1705 C 0.35478 0.76614 0.6786 0.0
N1706 N 0.34537 0.7006 0.64464 0.0
N1707 N 0.39153 0.78004 0.70743 0.0
H1708 H 0.32632 0.79588 0.66774 0.0
H1709 H 0.34832 0.80596 0.69278 0.0
H1710 H 0.40947 0.77606 0.71741 0.0
H1711 H 0.38688 0.80036 0.70635 0.0
H1712 H 0.3519 0.68075 0.64471 0.0
H1713 H 0.32859 0.70394 0.63272 0.0
H1714 H 0.39277 0.68076 0.65356 0.0
H1715 H 0.41526 0.69192 0.6778 0.0
C1716 C 0.79021 0.8906 0.18653 0.0
C1717 C 0.77036 0.90059 0.20454 0.0
C1718 C 0.73538 0.87668 0.18007 0.0
C1719 C 0.75544 0.86368 0.1648 0.0
N1720 N 0.79993 0.86411 0.14659 0.0
N1721 N 0.72436 0.91358 0.20981 0.0
C1722 C 0.78223 0.87284 0.16559 0.0
C1723 C 0.74296 0.89714 0.19826 0.0
N1724 N 0.81656 0.89697 0.18996 0.0
N1725 N 0.70936 0.8685 0.17819 0.0
H1726 H 0.72991 0.92933 0.22245 0.0
H1727 H 0.70416 0.91352 0.20463 0.0
H1728 H 0.70316 0.85402 0.16445 0.0
H1729 H 0.69428 0.87507 0.19104 0.0
H1730 H 0.83221 0.88647 0.181 0.0
H1731 H 0.82286 0.91339 0.20114 0.0
H1732 H 0.81943 0.8712 0.14468 0.0
H1733 H 0.79426 0.85103 0.13128 0.0
C1734 C 0.65412 0.23268 0.70614 0.0
C1735 C 0.63771 0.25558 0.7018 0.0
C1736 C 0.6644 0.26764 0.66251 0.0
C1737 C 0.68241 0.24643 0.66844 0.0
N1738 N 0.69497 0.20839 0.69551 0.0
N1739 N 0.61975 0.28537 0.66805 0.0
C1740 C 0.67735 0.22871 0.6901 0.0
C1741 C 0.64053 0.27041 0.6777 0.0
N1742 N 0.64606 0.21366 0.72417 0.0
N1743 N 0.67063 0.28588 0.64303 0.0
H1744 H 0.6006 0.28472 0.67622 0.0
H1745 H 0.62021 0.29505 0.64957 0.0
H1746 H 0.68783 0.28447 0.63129 0.0
H1747 H 0.66005 0.30368 0.64019 0.0
H1748 H 0.65582 0.19548 0.72725 0.0
H1749 H 0.62757 0.21466 0.73388 0.0
H1750 H 0.69437 0.19679 0.71283 0.0
H1751 H 0.71131 0.20388 0.68327 0.0
C1752 C 0.25694 0.86075 0.79609 0.0
C1753 C 0.22984 0.86925 0.79433 0.0
C1754 C 0.21582 0.83296 0.82371 0.0
C1755 C 0.24246 0.82318 0.82407 0.0
N1756 N 0.28952 0.83032 0.81587 0.0
N1757 N 0.18762 0.87183 0.81764 0.0
C1758 C 0.26349 0.838 0.81199 0.0
C1759 C 0.21042 0.85801 0.81157 0.0
N1760 N 0.27619 0.87455 0.78233 0.0
N1761 N 0.19558 0.81812 0.83457 0.0
H1762 H 0.18461 0.89163 0.81171 0.0
H1763 H 0.17364 0.86515 0.83164 0.0
H1764 H 0.19896 0.79983 0.84403 0.0
H1765 H 0.1754 0.82292 0.83212 0.0
H1766 H 0.29582 0.86801 0.77988 0.0
H1767 H 0.2722 0.89296 0.77317 0.0
H1768 H 0.30601 0.84144 0.80965 0.0
H1769 H 0.29484 0.81316 0.8266 0.0
C1770 C 0.6189 0.70575 0.31851 0.0
C1771 C 0.60818 0.72859 0.30569 0.0
C1772 C 0.6395 0.75759 0.32953 0.0
C1773 C 0.6537 0.73432 0.33794 0.0
N1774 N 0.65707 0.68611 0.34105 0.0
N1775 N 0.59915 0.7756 0.30905 0.0
C1776 C 0.64329 0.7083 0.33288 0.0
C1777 C 0.61556 0.75441 0.31462 0.0
N1778 N 0.60486 0.68228 0.3184 0.0
N1779 N 0.6499 0.78256 0.33412 0.0
H1780 H 0.58098 0.77296 0.29902 0.0
H1781 H 0.60191 0.79486 0.31664 0.0
H1782 H 0.66783 0.78576 0.34432 0.0
H1783 H 0.64189 0.80012 0.32618 0.0
H1784 H 0.61066 0.66529 0.32906 0.0
H1785 H 0.58562 0.68103 0.31037 0.0
H1786 H 0.65204 0.66668 0.33526 0.0
H1787 H 0.67468 0.68734 0.35216 0.0
C1788 C 0.72039 0.13308 0.79947 0.0
C1789 C 0.74458 0.11833 0.80174 0.0
C1790 C 0.75914 0.14713 0.8385 0.0
C1791 C 0.73686 0.16417 0.83368 0.0
N1792 N 0.69534 0.17334 0.81083 0.0
N1793 N 0.77833 0.10294 0.83266 0.0
C1794 C 0.717 0.15698 0.8147 0.0
C1795 C 0.76149 0.12274 0.82405 0.0
N1796 N 0.70013 0.12305 0.78403 0.0
N1797 N 0.77867 0.15478 0.85608 0.0
H1798 H 0.77755 0.0835 0.82503 0.0
H1799 H 0.78993 0.10444 0.84992 0.0
H1800 H 0.77737 0.17221 0.8675 0.0
H1801 H 0.79702 0.14497 0.85776 0.0
H1802 H 0.68116 0.13157 0.78267 0.0
H1803 H 0.70143 0.10423 0.77493 0.0
H1804 H 0.68163 0.17093 0.79533 0.0
H1805 H 0.6917 0.19034 0.82248 0.0
C1806 C 0.3772 0.22619 0.29347 0.0
C1807 C 0.38632 0.25309 0.29297 0.0
C1808 C 0.36447 0.26054 0.33633 0.0
C1809 C 0.34852 0.23757 0.33136 0.0
N1810 N 0.34287 0.19538 0.3086 0.0
N1811 N 0.39619 0.29295 0.31879 0.0
C1812 C 0.35621 0.21915 0.3112 0.0
C1813 C 0.38265 0.26934 0.31612 0.0
N1814 N 0.38908 0.20751 0.27736 0.0
N1815 N 0.36277 0.27325 0.36049 0.0
H1816 H 0.41324 0.29739 0.30763 0.0
H1817 H 0.39109 0.30769 0.33267 0.0
H1818 H 0.35083 0.26602 0.37602 0.0
H1819 H 0.375 0.28916 0.36617 0.0
H1820 H 0.38455 0.18713 0.27803 0.0
H1821 H 0.40577 0.21217 0.26562 0.0
H1822 H 0.34536 0.18252 0.29233 0.0
H1823 H 0.32863 0.18901 0.32255 0.0
C1824 C 0.19533 0.26489 0.12463 0.0
C1825 C 0.19272 0.23996 0.11128 0.0
C1826 C 0.15326 0.22932 0.13836 0.0
C1827 C 0.15945 0.25149 0.15523 0.0
N1828 N 0.1846 0.29198 0.16354 0.0
N1829 N 0.16118 0.20693 0.09585 0.0
C1830 C 0.17978 0.26996 0.14792 0.0
C1831 C 0.16913 0.22466 0.11511 0.0
N1832 N 0.21143 0.28425 0.11385 0.0
N1833 N 0.13358 0.21167 0.1456 0.0
H1834 H 0.17073 0.20572 0.0773 0.0
H1835 H 0.14322 0.19637 0.09656 0.0
H1836 H 0.1217 0.21422 0.1626 0.0
H1837 H 0.13041 0.19339 0.13602 0.0
H1838 H 0.21289 0.30369 0.12133 0.0
H1839 H 0.22074 0.28173 0.09528 0.0
H1840 H 0.20125 0.30433 0.16122 0.0
H1841 H 0.17252 0.29731 0.17976 0.0
C1842 C 0.17659 0.76149 0.87623 0.0
C1843 C 0.20085 0.74701 0.8782 0.0
C1844 C 0.18831 0.71958 0.83952 0.0
C1845 C 0.16721 0.73788 0.83414 0.0
N1846 N 0.14042 0.77609 0.84738 0.0
N1847 N 0.22156 0.70407 0.87147 0.0
C1848 C 0.16066 0.75843 0.85283 0.0
C1849 C 0.20423 0.7234 0.86277 0.0
N1850 N 0.16828 0.77705 0.89715 0.0
N1851 N 0.19344 0.69898 0.82214 0.0
H1852 H 0.23131 0.70558 0.88991 0.0
H1853 H 0.22383 0.68542 0.86236 0.0
H1854 H 0.18117 0.69456 0.80582 0.0
H1855 H 0.21047 0.68697 0.82315 0.0
H1856 H 0.14982 0.78677 0.89771 0.0
H1857 H 0.17824 0.77707 0.91551 0.0
H1858 H 0.1368 0.7933 0.85865 0.0
H1859 H 0.12847 0.77475 0.83033 0.0
C1860 C 0.75939 0.69061 0.39508 0.0
C1861 C 0.73143 0.69058 0.3996 0.0
C1862 C 0.7255 0.65521 0.36638 0.0
C1863 C 0.75218 0.65988 0.35769 0.0
N1864 N 0.79645 0.67652 0.36662 0.0
N1865 N 0.69144 0.66382 0.40027 0.0
C1866 C 0.76995 0.67543 0.37341 0.0
C1867 C 0.71556 0.66973 0.38886 0.0
N1868 N 0.77534 0.70563 0.41148 0.0
N1869 N 0.70936 0.63828 0.35216 0.0
H1870 H 0.68508 0.67285 0.418 0.0
H1871 H 0.67932 0.64797 0.39421 0.0
H1872 H 0.71638 0.62689 0.33611 0.0
H1873 H 0.68895 0.63603 0.35567 0.0
H1874 H 0.7961 0.70651 0.41018 0.0
H1875 H 0.76743 0.71601 0.42788 0.0
H1876 H 0.81044 0.68891 0.37582 0.0
H1877 H 0.80454 0.66461 0.35141 0.0
C1878 C 0.79082 0.26119 0.87462 0.0
C1879 C 0.79061 0.23507 0.88581 0.0
C1880 C 0.82601 0.22114 0.85504 0.0
C1881 C 0.82245 0.24549 0.84069 0.0
N1882 N 0.8033 0.28977 0.83729 0.0
N1883 N 0.81779 0.19659 0.89622 0.0
C1884 C 0.80571 0.26607 0.85089 0.0
C1885 C 0.81125 0.21684 0.87902 0.0
N1886 N 0.77763 0.28141 0.8876 0.0
N1887 N 0.84264 0.20174 0.84515 0.0
H1888 H 0.80951 0.19519 0.91535 0.0
H1889 H 0.83379 0.18354 0.89319 0.0
H1890 H 0.85461 0.20478 0.82831 0.0
H1891 H 0.84346 0.18228 0.85267 0.0
H1892 H 0.77832 0.30145 0.88179 0.0
H1893 H 0.76839 0.27839 0.90613 0.0
H1894 H 0.7891 0.30437 0.84187 0.0
H1895 H 0.81476 0.29439 0.82042 0.0
C1896 C 0.23452 0.29073 0.35035 0.0
C1897 C 0.26177 0.2904 0.35862 0.0
C1898 C 0.27087 0.32809 0.32853 0.0
C1899 C 0.24529 0.32467 0.31677 0.0
N1900 N 0.20271 0.30202 0.31545 0.0
N1901 N 0.30692 0.30755 0.35295 0.0
C1902 C 0.22704 0.30578 0.32739 0.0
C1903 C 0.28022 0.30897 0.34731 0.0
N1904 N 0.21562 0.27746 0.36509 0.0
N1905 N 0.28625 0.34977 0.32201 0.0
H1906 H 0.31506 0.29459 0.36695 0.0
H1907 H 0.32143 0.31801 0.34216 0.0
H1908 H 0.28006 0.36428 0.30842 0.0
H1909 H 0.30382 0.3548 0.33208 0.0
H1910 H 0.19515 0.27883 0.36136 0.0
H1911 H 0.22016 0.26756 0.38294 0.0
H1912 H 0.18984 0.28636 0.32045 0.0
H1913 H 0.19613 0.31356 0.29929 0.0
C1914 C 0.81718 0.78405 0.11534 0.0
C1915 C 0.79135 0.77265 0.11112 0.0
C1916 C 0.80365 0.73385 0.13864 0.0
C1917 C 0.82787 0.74681 0.14556 0.0
N1918 N 0.86273 0.77664 0.13055 0.0
N1919 N 0.76646 0.73139 0.10757 0.0
C1920 C 0.83639 0.76939 0.13057 0.0
C1921 C 0.78674 0.74569 0.1191 0.0
N1922 N 0.82327 0.8091 0.10614 0.0
N1923 N 0.79656 0.7106 0.15124 0.0
H1924 H 0.75488 0.73923 0.09201 0.0
H1925 H 0.76322 0.71106 0.11116 0.0
H1926 H 0.80954 0.70049 0.16417 0.0
H1927 H 0.77764 0.70195 0.14956 0.0
H1928 H 0.84 0.81978 0.11258 0.0
H1929 H 0.81161 0.81964 0.09254 0.0
H1930 H 0.87051 0.79144 0.11804 0.0
H1931 H 0.87734 0.76596 0.14092 0.0
C1932 C 0.77198 0.31083 0.65169 0.0
C1933 C 0.75147 0.33018 0.65549 0.0
C1934 C 0.73086 0.31688 0.61296 0.0
C1935 C 0.7481 0.29434 0.6121 0.0
N1936 N 0.79267 0.27876 0.62143 0.0
N1937 N 0.71139 0.35228 0.63994 0.0
C1938 C 0.77108 0.29392 0.62876 0.0
C1939 C 0.73114 0.33373 0.63593 0.0
N1940 N 0.7919 0.30821 0.6703 0.0
N1941 N 0.71559 0.32309 0.59114 0.0
H1942 H 0.71132 0.36538 0.65621 0.0
H1943 H 0.6942 0.35346 0.62819 0.0
H1944 H 0.71765 0.31293 0.57298 0.0
H1945 H 0.70393 0.34035 0.58974 0.0
H1946 H 0.80555 0.29241 0.67042 0.0
H1947 H 0.79401 0.32116 0.68659 0.0
H1948 H 0.81089 0.27884 0.63153 0.0
H1949 H 0.7934 0.26869 0.6031 0.0
C1950 C 0.23094 0.68657 0.64372 0.0
C1951 C 0.24969 0.66771 0.65374 0.0
C1952 C 0.28035 0.67805 0.6168 0.0
C1953 C 0.26432 0.70056 0.61059 0.0
N1954 N 0.21964 0.71816 0.60839 0.0
N1955 N 0.29214 0.64473 0.65006 0.0
C1956 C 0.23798 0.70226 0.62105 0.0
C1957 C 0.27418 0.66283 0.64005 0.0
N1958 N 0.20695 0.69008 0.6565 0.0
N1959 N 0.30038 0.67042 0.59981 0.0
H1960 H 0.28816 0.63289 0.66681 0.0
H1961 H 0.31164 0.64276 0.6429 0.0
H1962 H 0.30315 0.67941 0.58117 0.0
H1963 H 0.31167 0.65304 0.60238 0.0
H1964 H 0.19364 0.70556 0.65218 0.0
H1965 H 0.20071 0.67802 0.67241 0.0
H1966 H 0.1995 0.71926 0.61363 0.0
H1967 H 0.22421 0.72821 0.5906 0.0
C1968 C 0.87238 0.80516 0.70847 0.0
C1969 C 0.86227 0.82833 0.72129 0.0
C1970 C 0.8871 0.81761 0.76203 0.0
C1971 C 0.89324 0.79209 0.75084 0.0
N1972 N 0.90411 0.76832 0.71018 0.0
N1973 N 0.87415 0.86345 0.75239 0.0
C1974 C 0.89009 0.78818 0.72281 0.0
C1975 C 0.87425 0.83694 0.74556 0.0
N1976 N 0.86434 0.79916 0.68304 0.0
N1977 N 0.89228 0.82333 0.78826 0.0
H1978 H 0.86777 0.87833 0.73919 0.0
H1979 H 0.88413 0.87094 0.76912 0.0
H1980 H 0.9041 0.81145 0.80058 0.0
H1981 H 0.88429 0.84004 0.79796 0.0
H1982 H 0.86835 0.78093 0.67365 0.0
H1983 H 0.85304 0.81262 0.67165 0.0
H1984 H 0.90391 0.7654 0.68952 0.0
H1985 H 0.91824 0.75664 0.72029 0.0
C1986 C 0.6844 0.33059 0.22748 0.0
C1987 C 0.66237 0.3257 0.24466 0.0
C1988 C 0.67064 0.3682 0.26819 0.0
C1989 C 0.69503 0.37072 0.25396 0.0
N1990 N 0.71851 0.36201 0.2128 0.0
N1991 N 0.63423 0.33918 0.28163 0.0
C1992 C 0.69992 0.35415 0.23132 0.0
C1993 C 0.6552 0.34451 0.26488 0.0
N1994 N 0.69092 0.31232 0.20807 0.0
N1995 N 0.66127 0.38904 0.28333 0.0
H1996 H 0.62169 0.32277 0.27898 0.0
H1997 H 0.63034 0.34993 0.2991 0.0
H1998 H 0.67008 0.40794 0.2832 0.0
H1999 H 0.64269 0.38904 0.29279 0.0
H2000 H 0.70853 0.31303 0.19693 0.0
H2001 H 0.67932 0.29539 0.20403 0.0
H2002 H 0.7219 0.35216 0.19473 0.0
H2003 H 0.7285 0.38036 0.21424 0.0
C2004 C 0.13773 0.16253 0.75345 0.0
C2005 C 0.15244 0.16832 0.72975 0.0
C2006 C 0.12123 0.20457 0.71887 0.0
C2007 C 0.10912 0.201 0.74436 0.0
N2008 N 0.09572 0.16822 0.77713 0.0
N2009 N 0.15399 0.18904 0.68616 0.0
C2010 C 0.11399 0.17719 0.75887 0.0
C2011 C 0.14276 0.18752 0.71113 0.0
N2012 N 0.14714 0.14422 0.77153 0.0
N2013 N 0.11195 0.22439 0.70238 0.0
H2014 H 0.16931 0.17624 0.6799 0.0
H2015 H 0.1473 0.20167 0.671 0.0
H2016 H 0.09432 0.23485 0.70662 0.0
H2017 H 0.12118 0.23032 0.68466 0.0
H2018 H 0.13848 0.14122 0.79028 0.0
H2019 H 0.16482 0.13347 0.76878 0.0
H2020 H 0.09754 0.14996 0.78711 0.0
H2021 H 0.07692 0.17707 0.77922 0.0
C2022 C 0.31035 0.65748 0.2193 0.0
C2023 C 0.32903 0.66556 0.23913 0.0
C2024 C 0.3175 0.6264 0.26642 0.0
C2025 C 0.29542 0.62154 0.24932 0.0
N2026 N 0.2792 0.6233 0.20406 0.0
N2027 N 0.35025 0.65855 0.28202 0.0
C2028 C 0.29432 0.6344 0.22401 0.0
C2029 C 0.33286 0.65004 0.26267 0.0
N2030 N 0.30756 0.67222 0.19635 0.0
N2031 N 0.32495 0.60763 0.28489 0.0
H2032 H 0.36219 0.67555 0.27983 0.0
H2033 H 0.35132 0.64997 0.30102 0.0
H2034 H 0.31646 0.58855 0.28547 0.0
H2035 H 0.34202 0.60933 0.29674 0.0
H2036 H 0.29221 0.66938 0.18255 0.0
H2037 H 0.31999 0.68834 0.19157 0.0
H2038 H 0.27868 0.63036 0.18446 0.0
H2039 H 0.26952 0.6049 0.20647 0.0
C2040 C 0.86007 0.156 0.21292 0.0
C2041 C 0.84511 0.15511 0.2371 0.0
C2042 C 0.87488 0.18879 0.25684 0.0
C2043 C 0.88616 0.19312 0.23121 0.0
N2044 N 0.90071 0.17112 0.19089 0.0
N2045 N 0.83903 0.16924 0.28307 0.0
C2046 C 0.8823 0.17368 0.21096 0.0
C2047 C 0.85312 0.17067 0.2596 0.0
N2048 N 0.85253 0.14057 0.19166 0.0
N2049 N 0.88601 0.20117 0.27857 0.0
H2050 H 0.82355 0.15561 0.2863 0.0
H2051 H 0.84167 0.1825 0.29897 0.0
H2052 H 0.90329 0.21285 0.27688 0.0
H2053 H 0.88029 0.19751 0.29828 0.0
H2054 H 0.86075 0.14238 0.17257 0.0
H2055 H 0.8368 0.12695 0.19291 0.0
H2056 H 0.89999 0.15614 0.17637 0.0
H2057 H 0.91865 0.18183 0.19098 0.0
C2058 C 0.32539 0.37554 0.72101 0.0
C2059 C 0.30749 0.38421 0.7412 0.0
C2060 C 0.32576 0.3511 0.77229 0.0
C2061 C 0.33839 0.33834 0.75021 0.0
N2062 N 0.3529 0.33912 0.70416 0.0
N2063 N 0.30079 0.38985 0.78841 0.0
C2064 C 0.33949 0.35107 0.72482 0.0
C2065 C 0.31107 0.37506 0.76777 0.0
N2066 N 0.32973 0.39122 0.69903 0.0
N2067 N 0.32671 0.33949 0.79709 0.0
H2068 H 0.29136 0.40826 0.78506 0.0
H2069 H 0.30383 0.38551 0.80857 0.0
H2070 H 0.3381 0.32241 0.8011 0.0
H2071 H 0.31566 0.34612 0.81349 0.0
H2072 H 0.34375 0.38672 0.68425 0.0
H2073 H 0.32178 0.41051 0.69749 0.0
H2074 H 0.35166 0.3456 0.68436 0.0
H2075 H 0.36437 0.32183 0.70678 0.0
C2076 C 0.16254 0.8304 0.22924 0.0
C2077 C 0.17908 0.82439 0.2516 0.0
C2078 C 0.14634 0.79123 0.26708 0.0
C2079 C 0.13145 0.79532 0.24318 0.0
N2080 N 0.11805 0.8282 0.21039 0.0
N2081 N 0.18711 0.79965 0.29232 0.0
C2082 C 0.13727 0.81772 0.22679 0.0
C2083 C 0.17101 0.80505 0.27082 0.0
N2084 N 0.17149 0.84734 0.20966 0.0
N2085 N 0.13568 0.77564 0.28694 0.0
H2086 H 0.20458 0.81035 0.2964 0.0
H2087 H 0.18406 0.78373 0.30544 0.0
H2088 H 0.11635 0.7678 0.28568 0.0
H2089 H 0.14434 0.77294 0.30569 0.0
H2090 H 0.1617 0.84988 0.19141 0.0
H2091 H 0.19 0.8569 0.21057 0.0
H2092 H 0.12072 0.84572 0.19933 0.0
H2093 H 0.09817 0.82194 0.21108 0.0
C2094 C 0.68056 0.63228 0.72047 0.0
C2095 C 0.70291 0.62516 0.73628 0.0
C2096 C 0.69189 0.66048 0.76867 0.0
C2097 C 0.67264 0.6705 0.75038 0.0
N2098 N 0.64901 0.66707 0.70831 0.0
N2099 N 0.72134 0.62363 0.7807 0.0
C2100 C 0.66681 0.65653 0.72625 0.0
C2101 C 0.70602 0.63664 0.7621 0.0
N2102 N 0.67139 0.61507 0.70129 0.0
N2103 N 0.69709 0.67408 0.7919 0.0
H2104 H 0.72985 0.60488 0.77683 0.0
H2105 H 0.72313 0.62961 0.8006 0.0
H2106 H 0.68638 0.69104 0.79786 0.0
H2107 H 0.71301 0.6696 0.80458 0.0
H2108 H 0.65395 0.61834 0.69033 0.0
H2109 H 0.67906 0.59575 0.69907 0.0
H2110 H 0.64634 0.6595 0.68905 0.0
H2111 H 0.63851 0.68479 0.71188 0.0
C2112 C 0.7546 0.84249 0.82529 0.0
C2113 C 0.74477 0.81607 0.82048 0.0
C2114 C 0.75911 0.81956 0.77397 0.0
C2115 C 0.76694 0.84667 0.77789 0.0
N2116 N 0.7617 0.88621 0.80566 0.0
N2117 N 0.72819 0.78491 0.78734 0.0
C2118 C 0.76148 0.85893 0.80304 0.0
C2119 C 0.74368 0.80654 0.79379 0.0
N2120 N 0.75884 0.85177 0.85068 0.0
N2121 N 0.76832 0.8052 0.7527 0.0
H2122 H 0.71556 0.77569 0.80124 0.0
H2123 H 0.72557 0.77847 0.76762 0.0
H2124 H 0.7834 0.81252 0.74055 0.0
H2125 H 0.76437 0.78482 0.75011 0.0
H2126 H 0.76867 0.86983 0.85448 0.0
H2127 H 0.7551 0.84073 0.86791 0.0
H2128 H 0.75572 0.89588 0.8232 0.0
H2129 H 0.76426 0.89916 0.78947 0.0
C2130 C 0.61811 0.23991 0.29971 0.0
C2131 C 0.60449 0.26461 0.29645 0.0
C2132 C 0.63091 0.28438 0.3325 0.0
C2133 C 0.64826 0.2618 0.33152 0.0
N2134 N 0.65731 0.21666 0.31649 0.0
N2135 N 0.58798 0.30347 0.31959 0.0
C2136 C 0.64126 0.23889 0.31617 0.0
C2137 C 0.60771 0.28485 0.316 0.0
N2138 N 0.60797 0.21733 0.28799 0.0
N2139 N 0.63712 0.3056 0.34857 0.0
H2140 H 0.56968 0.30213 0.30962 0.0
H2141 H 0.58824 0.31798 0.33459 0.0
H2142 H 0.65338 0.30511 0.36156 0.0
H2143 H 0.62704 0.32388 0.34817 0.0
H2144 H 0.6157 0.19816 0.29092 0.0
H2145 H 0.58973 0.21755 0.27777 0.0
H2146 H 0.65528 0.20072 0.30317 0.0
H2147 H 0.67357 0.21463 0.32942 0.0
C2148 C 0.25663 0.15288 0.77368 0.0
C2149 C 0.23919 0.13066 0.77828 0.0
C2150 C 0.23096 0.14613 0.82402 0.0
C2151 C 0.24636 0.1695 0.81893 0.0
N2152 N 0.27958 0.19189 0.79197 0.0
N2153 N 0.22342 0.09986 0.81198 0.0
C2154 C 0.26082 0.17203 0.79454 0.0
C2155 C 0.23049 0.12532 0.80475 0.0
N2156 N 0.26998 0.15521 0.74991 0.0
N2157 N 0.21581 0.14411 0.84673 0.0
H2158 H 0.22611 0.0835 0.79921 0.0
H2159 H 0.21886 0.09446 0.83164 0.0
H2160 H 0.21541 0.15882 0.86151 0.0
H2161 H 0.20187 0.12884 0.84971 0.0
H2162 H 0.27854 0.17297 0.74309 0.0
H2163 H 0.27371 0.13882 0.73752 0.0
H2164 H 0.29244 0.19386 0.77569 0.0
H2165 H 0.28385 0.20555 0.80722 0.0
C2166 C 0.3483 0.72842 0.32359 0.0
C2167 C 0.33227 0.75142 0.31858 0.0
C2168 C 0.36381 0.76599 0.28389 0.0
C2169 C 0.37772 0.7413 0.28665 0.0
N2170 N 0.39165 0.70741 0.31811 0.0
N2171 N 0.32455 0.79273 0.2946 0.0
C2172 C 0.37259 0.72491 0.30923 0.0
C2173 C 0.34008 0.77055 0.29902 0.0
N2174 N 0.33968 0.7092 0.34112 0.0
N2175 N 0.37457 0.7857 0.26818 0.0
H2176 H 0.30789 0.79749 0.30629 0.0
H2177 H 0.32724 0.80575 0.27852 0.0
H2178 H 0.39337 0.78367 0.25925 0.0
H2179 H 0.36672 0.80496 0.26648 0.0
H2180 H 0.34887 0.69053 0.34308 0.0
H2181 H 0.32194 0.71091 0.35198 0.0
H2182 H 0.3897 0.69624 0.33564 0.0
H2183 H 0.41102 0.70717 0.31034 0.0
C2184 C 0.78102 0.1136 0.16285 0.0
C2185 C 0.75352 0.12052 0.16527 0.0
C2186 C 0.74628 0.08222 0.19481 0.0
C2187 C 0.77433 0.08009 0.19768 0.0
N2188 N 0.81653 0.08227 0.17531 0.0
N2189 N 0.70868 0.10856 0.17836 0.0
C2190 C 0.79118 0.09191 0.17842 0.0
C2191 C 0.73555 0.10339 0.17907 0.0
N2192 N 0.79741 0.12865 0.1469 0.0
N2193 N 0.73042 0.06469 0.20857 0.0
H2194 H 0.70051 0.12363 0.16636 0.0
H2195 H 0.69448 0.09823 0.18958 0.0
H2196 H 0.73881 0.04935 0.22013 0.0
H2197 H 0.70964 0.06412 0.20731 0.0
H2198 H 0.81805 0.12607 0.14575 0.0
H2199 H 0.79014 0.14421 0.13495 0.0
H2200 H 0.82968 0.08879 0.16049 0.0
H2201 H 0.82332 0.0658 0.18629 0.0
C2202 C 0.36418 0.26296 0.68192 0.0
C2203 C 0.37017 0.24569 0.70361 0.0
C2204 C 0.33528 0.21451 0.68822 0.0
C2205 C 0.32548 0.23494 0.67105 0.0
N2206 N 0.32948 0.27965 0.65271 0.0
N2207 N 0.36622 0.20197 0.72369 0.0
C2208 C 0.33979 0.25933 0.66793 0.0
C2209 C 0.35725 0.22034 0.70544 0.0
N2210 N 0.38206 0.28203 0.67387 0.0
N2211 N 0.32379 0.18961 0.68764 0.0
H2212 H 0.38428 0.20447 0.73393 0.0
H2213 H 0.35611 0.18444 0.7287 0.0
H2214 H 0.30783 0.18485 0.67501 0.0
H2215 H 0.33092 0.17313 0.69822 0.0
H2216 H 0.37916 0.29393 0.65695 0.0
H2217 H 0.40142 0.28324 0.68148 0.0
H2218 H 0.33752 0.29894 0.65251 0.0
H2219 H 0.31159 0.27795 0.64214 0.0
C2220 C 0.23567 0.86799 0.17818 0.0
C2221 C 0.25182 0.8707 0.20126 0.0
C2222 C 0.27576 0.82927 0.18967 0.0
C2223 C 0.25646 0.82432 0.16942 0.0
N2224 N 0.21665 0.83781 0.14547 0.0
N2225 N 0.29514 0.86171 0.2203 0.0
C2226 C 0.2362 0.84352 0.16373 0.0
C2227 C 0.27429 0.85355 0.20457 0.0
N2228 N 0.2213 0.88942 0.16901 0.0
N2229 N 0.29517 0.81063 0.1949 0.0
H2230 H 0.29588 0.88091 0.22861 0.0
H2231 H 0.31302 0.85118 0.22231 0.0
H2232 H 0.29774 0.79329 0.18348 0.0
H2233 H 0.30777 0.81149 0.21148 0.0
H2234 H 0.21063 0.88925 0.15109 0.0
H2235 H 0.22338 0.90854 0.17724 0.0
H2236 H 0.19962 0.8496 0.1429 0.0
H2237 H 0.21621 0.81998 0.13458 0.0
C2238 C 0.64603 0.7391 0.67139 0.0
C2239 C 0.66295 0.76115 0.67765 0.0
C2240 C 0.63446 0.77215 0.71611 0.0
C2241 C 0.61989 0.7481 0.71171 0.0
N2242 N 0.60265 0.7185 0.67774 0.0
N2243 N 0.67355 0.79917 0.70559 0.0
C2244 C 0.62281 0.73445 0.68706 0.0
C2245 C 0.65713 0.778 0.69982 0.0
N2246 N 0.65292 0.72162 0.65144 0.0
N2247 N 0.62523 0.79026 0.7345 0.0
H2248 H 0.68947 0.80487 0.6933 0.0
H2249 H 0.6724 0.81023 0.72324 0.0
H2250 H 0.60694 0.7877 0.7443 0.0
H2251 H 0.63363 0.80909 0.73764 0.0
H2252 H 0.64306 0.70349 0.6482 0.0
H2253 H 0.67006 0.72394 0.6398 0.0
H2254 H 0.60291 0.70955 0.65888 0.0
H2255 H 0.58398 0.71765 0.68708 0.0
C2256 C 0.81804 0.73664 0.85014 0.0
C2257 C 0.82694 0.75656 0.83185 0.0
C2258 C 0.80915 0.79188 0.86123 0.0
C2259 C 0.7971 0.77186 0.87754 0.0
N2260 N 0.7986 0.72655 0.89366 0.0
N2261 N 0.82947 0.80302 0.8185 0.0
C2262 C 0.80419 0.74458 0.87379 0.0
C2263 C 0.82211 0.78417 0.837 0.0
N2264 N 0.82137 0.71008 0.84403 0.0
N2265 N 0.81006 0.8179 0.86976 0.0
H2266 H 0.84018 0.7984 0.80115 0.0
H2267 H 0.82326 0.82296 0.81931 0.0
H2268 H 0.80452 0.82365 0.88902 0.0
H2269 H 0.82001 0.8331 0.8595 0.0
H2270 H 0.81276 0.69449 0.85489 0.0
H2271 H 0.83112 0.70348 0.82675 0.0
H2272 H 0.80503 0.7067 0.8936 0.0
H2273 H 0.78991 0.7324 0.91178 0.0
C2274 C 0.79667 0.25005 0.17173 0.0
C2275 C 0.82168 0.23688 0.17414 0.0
C2276 C 0.81182 0.20997 0.134 0.0
C2277 C 0.78524 0.21991 0.13455 0.0
N2278 N 0.7579 0.25863 0.14386 0.0
N2279 N 0.85395 0.20494 0.1574 0.0
C2280 C 0.77923 0.24276 0.1505 0.0
C2281 C 0.82967 0.21728 0.15498 0.0
N2282 N 0.78936 0.26914 0.19002 0.0
N2283 N 0.8207 0.19548 0.1125 0.0
H2284 H 0.86819 0.2109 0.17134 0.0
H2285 H 0.85949 0.1879 0.14668 0.0
H2286 H 0.80966 0.19343 0.09496 0.0
H2287 H 0.84038 0.18905 0.11011 0.0
H2288 H 0.77008 0.27701 0.19138 0.0
H2289 H 0.80224 0.27615 0.20491 0.0
H2290 H 0.7535 0.27675 0.15326 0.0
H2291 H 0.74667 0.25541 0.12653 0.0
C2292 C 0.23047 0.30124 0.683 0.0
C2293 C 0.24932 0.32253 0.68435 0.0
C2294 C 0.26297 0.31374 0.63815 0.0
C2295 C 0.24847 0.28936 0.6385 0.0
N2296 N 0.21136 0.26459 0.65719 0.0
N2297 N 0.28557 0.34748 0.6643 0.0
C2298 C 0.23008 0.28439 0.65982 0.0
C2299 C 0.2661 0.32836 0.6622 0.0
N2300 N 0.2123 0.29801 0.70332 0.0
N2301 N 0.27204 0.324 0.61446 0.0
H2302 H 0.28855 0.35865 0.68168 0.0
H2303 H 0.30025 0.35038 0.64974 0.0
H2304 H 0.26677 0.31569 0.59601 0.0
H2305 H 0.28109 0.34277 0.61285 0.0
H2306 H 0.197 0.2839 0.70342 0.0
H2307 H 0.21187 0.31023 0.72028 0.0
H2308 H 0.19985 0.25702 0.67282 0.0
H2309 H 0.20621 0.25661 0.63859 0.0
C2310 C 0.18021 0.77619 0.123 0.0
C2311 C 0.20049 0.75773 0.11568 0.0
C2312 C 0.18453 0.72613 0.14974 0.0
C2313 C 0.16832 0.74685 0.16057 0.0
N2314 N 0.15015 0.79167 0.15781 0.0
N2315 N 0.21255 0.7112 0.11276 0.0
C2316 C 0.16561 0.77177 0.14703 0.0
C2317 C 0.19977 0.73135 0.12625 0.0
N2318 N 0.17376 0.79683 0.10623 0.0
N2319 N 0.18594 0.70183 0.16241 0.0
H2320 H 0.22176 0.71446 0.09425 0.0
H2321 H 0.21156 0.69105 0.11807 0.0
H2322 H 0.17396 0.69691 0.17884 0.0
H2323 H 0.19966 0.68692 0.15746 0.0
H2324 H 0.15791 0.80997 0.1097 0.0
H2325 H 0.18169 0.79838 0.08697 0.0
H2326 H 0.15021 0.81134 0.15079 0.0
H2327 H 0.13859 0.78894 0.17499 0.0
C2328 C 0.72262 0.67343 0.64759 0.0
C2329 C 0.747 0.67774 0.66162 0.0
C2330 C 0.75812 0.71454 0.63112 0.0
C2331 C 0.73188 0.71308 0.62032 0.0
N2332 N 0.69639 0.68284 0.60787 0.0
N2333 N 0.78873 0.70152 0.66656 0.0
C2334 C 0.71613 0.69002 0.62537 0.0
C2335 C 0.76515 0.69788 0.65313 0.0
N2336 N 0.70509 0.65426 0.65623 0.0
N2337 N 0.77676 0.73048 0.61895 0.0
H2338 H 0.79512 0.68883 0.6819 0.0
H2339 H 0.8013 0.7179 0.66352 0.0
H2340 H 0.77276 0.7405 0.60103 0.0
H2341 H 0.79685 0.73113 0.62442 0.0
H2342 H 0.6855 0.65263 0.64927 0.0
H2343 H 0.70956 0.64105 0.67174 0.0
H2344 H 0.68534 0.66522 0.60953 0.0
H2345 H 0.69383 0.69237 0.58947 0.0
C2346 C 0.17221 0.25641 0.84642 0.0
C2347 C 0.15984 0.23531 0.83189 0.0
C2348 C 0.17327 0.20311 0.86646 0.0
C2349 C 0.18971 0.22317 0.87798 0.0
N2350 N 0.19489 0.27008 0.88726 0.0
N2351 N 0.14809 0.18861 0.82755 0.0
C2352 C 0.18601 0.2503 0.87052 0.0
C2353 C 0.15996 0.20867 0.84191 0.0
N2354 N 0.17197 0.28196 0.8364 0.0
N2355 N 0.16886 0.17967 0.87987 0.0
H2356 H 0.13742 0.19221 0.80996 0.0
H2357 H 0.15032 0.16835 0.83209 0.0
H2358 H 0.17549 0.17665 0.89943 0.0
H2359 H 0.15566 0.1649 0.87332 0.0
H2360 H 0.18307 0.29769 0.84443 0.0
H2361 H 0.1619 0.28721 0.81887 0.0
H2362 H 0.19119 0.29041 0.88437 0.0
H2363 H 0.20351 0.26569 0.90582 0.0
C2364 C 0.23261 0.70598 0.35574 0.0
C2365 C 0.25759 0.70307 0.36895 0.0
C2366 C 0.26919 0.66553 0.33972 0.0
C2367 C 0.24615 0.67105 0.32397 0.0
N2368 N 0.20507 0.69555 0.31702 0.0
N2369 N 0.29119 0.67118 0.38255 0.0
C2370 C 0.22741 0.69083 0.33215 0.0
C2371 C 0.27346 0.68013 0.36375 0.0
N2372 N 0.2133 0.72185 0.36697 0.0
N2373 N 0.28771 0.64728 0.33105 0.0
H2374 H 0.29194 0.67921 0.40182 0.0
H2375 H 0.30205 0.65345 0.3806 0.0
H2376 H 0.28518 0.63591 0.31374 0.0
H2377 H 0.30649 0.645 0.33984 0.0
H2378 H 0.1939 0.72362 0.35961 0.0
H2379 H 0.21584 0.73079 0.38572 0.0
H2380 H 0.19229 0.71178 0.31999 0.0
H2381 H 0.19994 0.6839 0.30043 0.0
C2382 C 0.70525 0.34664 0.36182 0.0
C2383 C 0.73206 0.34705 0.35238 0.0
C2384 C 0.74615 0.31955 0.39034 0.0
C2385 C 0.71885 0.31431 0.39573 0.0
N2386 N 0.67503 0.33359 0.39792 0.0
N2387 N 0.77903 0.34007 0.36067 0.0
C2388 C 0.69911 0.33153 0.38524 0.0
C2389 C 0.75299 0.336 0.36809 0.0
N2390 N 0.68569 0.35947 0.34766 0.0
N2391 N 0.76508 0.30757 0.40604 0.0
H2392 H 0.78428 0.35245 0.34466 0.0
H2393 H 0.79548 0.33173 0.37033 0.0
H2394 H 0.75963 0.29597 0.42262 0.0
H2395 H 0.78563 0.30991 0.40372 0.0
H2396 H 0.66537 0.3578 0.35199 0.0
H2397 H 0.69 0.37131 0.33095 0.0
H2398 H 0.66021 0.34718 0.39232 0.0
H2399 H 0.67117 0.32337 0.41576 0.0
loop_
_geom_bond_atom_site_label_1
_geom_bond_atom_site_label_2
_geom_bond_distance
_geom_bond_site_symmetry_2
_ccdc_geom_bond_type
Co0 O1 2.216 . S
Co0 O2 2.091 . S
Co0 O4 2.004 . S
Co0 O10 2.021 . S
Co0 O12 2.137 . S
Co0 O13 2.244 . S
O1 Co0 2.216 . S
O1 C8 1.247 . S
O2 Co0 2.091 . S
O2 C8 1.261 . S
C3 O12 1.247 . S
C3 O13 1.272 . S
O4 Co0 2.004 . S
O4 C9 1.259 . S
Co5 O6 2.061 . S
Co5 O11 2.052 . S
Co5 O13 2.135 . S
O6 Co5 2.061 . S
O6 C9 1.235 . S
C7 O10 1.238 . S
C7 O11 1.241 . S
C8 O1 1.247 . S
C8 O2 1.261 . S
C9 O4 1.259 . S
C9 O6 1.235 . S
O10 Co0 2.021 . S
O10 C7 1.238 . S
O11 Co5 2.052 . S
O11 C7 1.241 . S
O12 Co0 2.137 . S
O12 C3 1.247 . S
O13 Co0 2.244 . S
O13 C3 1.272 . S
O13 Co5 2.135 . S
Co14 O15 2.216 . S
Co14 O16 2.091 . S
Co14 O18 2.004 . S
Co14 O24 2.021 . S
Co14 O26 2.137 . S
Co14 O27 2.244 . S
O15 Co14 2.216 . S
O15 C22 1.247 . S
O16 Co14 2.091 . S
O16 C22 1.261 . S
C17 O26 1.247 . S
C17 O27 1.272 . S
O18 Co14 2.004 . S
O18 C23 1.259 . S
Co19 O20 2.061 . S
Co19 O25 2.052 . S
Co19 O27 2.135 . S
O20 Co19 2.061 . S
O20 C23 1.235 . S
C21 O24 1.238 . S
C21 O25 1.241 . S
C22 O15 1.247 . S
C22 O16 1.261 . S
C23 O18 1.259 . S
C23 O20 1.235 . S
O24 Co14 2.021 . S
O24 C21 1.238 . S
O25 Co19 2.052 . S
O25 C21 1.241 . S
O26 Co14 2.137 . S
O26 C17 1.247 . S
O27 Co14 2.244 . S
O27 C17 1.272 . S
O27 Co19 2.135 . S
Co28 O29 2.216 . S
Co28 O30 2.091 . S
Co28 O32 2.004 . S
Co28 O38 2.021 . S
Co28 O40 2.137 . S
Co28 O41 2.244 . S
O29 Co28 2.216 . S
O29 C36 1.247 . S
O30 Co28 2.091 . S
O30 C36 1.261 . S
C31 O40 1.247 . S
C31 O41 1.272 . S
O32 Co28 2.004 . S
O32 C37 1.259 . S
Co33 O34 2.061 . S
Co33 O39 2.052 . S
Co33 O41 2.135 . S
O34 Co33 2.061 . S
O34 C37 1.235 . S
C35 O38 1.238 . S
C35 O39 1.241 . S
C36 O29 1.247 . S
C36 O30 1.261 . S
C37 O32 1.259 . S
C37 O34 1.235 . S
O38 Co28 2.021 . S
O38 C35 1.238 . S
O39 Co33 2.052 . S
O39 C35 1.241 . S
O40 Co28 2.137 . S
O40 C31 1.247 . S
O41 Co28 2.244 . S
O41 C31 1.272 . S
O41 Co33 2.135 . S
Co42 O43 2.216 . S
Co42 O44 2.091 . S
Co42 O46 2.004 . S
Co42 O52 2.021 . S
Co42 O54 2.137 . S
Co42 O55 2.244 . S
O43 Co42 2.216 . S
O43 C50 1.247 . S
O44 Co42 2.091 . S
O44 C50 1.261 . S
C45 O54 1.247 . S
C45 O55 1.272 . S
O46 Co42 2.004 . S
O46 C51 1.259 . S
Co47 O48 2.061 . S
Co47 O53 2.052 . S
Co47 O55 2.135 . S
O48 Co47 2.061 . S
O48 C51 1.235 . S
C49 O52 1.238 . S
C49 O53 1.241 . S
C50 O43 1.247 . S
C50 O44 1.261 . S
C51 O46 1.259 . S
C51 O48 1.235 . S
O52 Co42 2.021 . S
O52 C49 1.238 . S
O53 Co47 2.052 . S
O53 C49 1.241 . S
O54 Co42 2.137 . S
O54 C45 1.247 . S
O55 Co42 2.244 . S
O55 C45 1.272 . S
O55 Co47 2.135 . S
Co56 O57 2.216 . S
Co56 O58 2.091 . S
Co56 O60 2.004 . S
Co56 O66 2.021 . S
Co56 O68 2.137 . S
Co56 O69 2.244 . S
O57 Co56 2.216 . S
O57 C64 1.247 . S
O58 Co56 2.091 . S
O58 C64 1.261 . S
C59 O68 1.247 . S
C59 O69 1.272 . S
O60 Co56 2.004 . S
O60 C65 1.259 . S
Co61 O62 2.061 . S
Co61 O67 2.052 . S
Co61 O69 2.135 . S
O62 Co61 2.061 . S
O62 C65 1.235 . S
C63 O66 1.238 . S
C63 O67 1.241 . S
C64 O57 1.247 . S
C64 O58 1.261 . S
C65 O60 1.259 . S
C65 O62 1.235 . S
O66 Co56 2.021 . S
O66 C63 1.238 . S
O67 Co61 2.052 . S
O67 C63 1.241 . S
O68 Co56 2.137 . S
O68 C59 1.247 . S
O69 Co56 2.244 . S
O69 C59 1.272 . S
O69 Co61 2.135 . S
Co70 O71 2.216 . S
Co70 O72 2.091 . S
Co70 O74 2.004 . S
Co70 O80 2.021 . S
Co70 O82 2.137 . S
Co70 O83 2.244 . S
O71 Co70 2.216 . S
O71 C78 1.247 . S
O72 Co70 2.091 . S
O72 C78 1.261 . S
C73 O82 1.247 . S
C73 O83 1.272 . S
O74 Co70 2.004 . S
O74 C79 1.259 . S
Co75 O76 2.061 . S
Co75 O81 2.052 . S
Co75 O83 2.135 . S
O76 Co75 2.061 . S
O76 C79 1.235 . S
C77 O80 1.238 . S
C77 O81 1.241 . S
C78 O71 1.247 . S
C78 O72 1.261 . S
C79 O74 1.259 . S
C79 O76 1.235 . S
O80 Co70 2.021 . S
O80 C77 1.238 . S
O81 Co75 2.052 . S
O81 C77 1.241 . S
O82 Co70 2.137 . S
O82 C73 1.247 . S
O83 Co70 2.244 . S
O83 C73 1.272 . S
O83 Co75 2.135 . S
Co84 O85 2.216 . S
Co84 O86 2.091 . S
Co84 O88 2.004 . S
Co84 O94 2.021 . S
Co84 O96 2.137 . S
Co84 O97 2.244 . S
O85 Co84 2.216 . S
O85 C92 1.247 . S
O86 Co84 2.091 . S
O86 C92 1.261 . S
C87 O96 1.247 . S
C87 O97 1.272 . S
O88 Co84 2.004 . S
O88 C93 1.259 . S
Co89 O90 2.061 . S
Co89 O95 2.052 . S
Co89 O97 2.135 . S
O90 Co89 2.061 . S
O90 C93 1.235 . S
C91 O94 1.238 . S
C91 O95 1.241 . S
C92 O85 1.247 . S
C92 O86 1.261 . S
C93 O88 1.259 . S
C93 O90 1.235 . S
O94 Co84 2.021 . S
O94 C91 1.238 . S
O95 Co89 2.052 . S
O95 C91 1.241 . S
O96 Co84 2.137 . S
O96 C87 1.247 . S
O97 Co84 2.244 . S
O97 C87 1.272 . S
O97 Co89 2.135 . S
Co98 O99 2.216 . S
Co98 O100 2.091 . S
Co98 O102 2.004 . S
Co98 O108 2.021 . S
Co98 O110 2.137 . S
Co98 O111 2.244 . S
O99 Co98 2.216 . S
O99 C106 1.247 . S
O100 Co98 2.091 . S
O100 C106 1.261 . S
C101 O110 1.247 . S
C101 O111 1.272 . S
O102 Co98 2.004 . S
O102 C107 1.259 . S
Co103 O104 2.061 . S
Co103 O109 2.052 . S
Co103 O111 2.135 . S
O104 Co103 2.061 . S
O104 C107 1.235 . S
C105 O108 1.238 . S
C105 O109 1.241 . S
C106 O99 1.247 . S
C106 O100 1.261 . S
C107 O102 1.259 . S
C107 O104 1.235 . S
O108 Co98 2.021 . S
O108 C105 1.238 . S
O109 Co103 2.052 . S
O109 C105 1.241 . S
O110 Co98 2.137 . S
O110 C101 1.247 . S
O111 Co98 2.244 . S
O111 C101 1.272 . S
O111 Co103 2.135 . S
Co112 O113 2.216 . S
Co112 O114 2.091 . S
Co112 O116 2.004 . S
Co112 O122 2.021 . S
Co112 O124 2.137 . S
Co112 O125 2.244 . S
O113 Co112 2.216 . S
O113 C120 1.247 . S
O114 Co112 2.091 . S
O114 C120 1.261 . S
C115 O124 1.247 . S
C115 O125 1.272 . S
O116 Co112 2.004 . S
O116 C121 1.259 . S
Co117 O118 2.061 . S
Co117 O123 2.052 . S
Co117 O125 2.135 . S
O118 Co117 2.061 . S
O118 C121 1.235 . S
C119 O122 1.238 . S
C119 O123 1.241 . S
C120 O113 1.247 . S
C120 O114 1.261 . S
C121 O116 1.259 . S
C121 O118 1.235 . S
O122 Co112 2.021 . S
O122 C119 1.238 . S
O123 Co117 2.052 . S
O123 C119 1.241 . S
O124 Co112 2.137 . S
O124 C115 1.247 . S
O125 Co112 2.244 . S
O125 C115 1.272 . S
O125 Co117 2.135 . S
Co126 O127 2.216 . S
Co126 O128 2.091 . S
Co126 O130 2.004 . S
Co126 O136 2.021 . S
Co126 O138 2.137 . S
Co126 O139 2.244 . S
O127 Co126 2.216 . S
O127 C134 1.247 . S
O128 Co126 2.091 . S
O128 C134 1.261 . S
C129 O138 1.247 . S
C129 O139 1.272 . S
O130 Co126 2.004 . S
O130 C135 1.259 . S
Co131 O132 2.061 . S
Co131 O137 2.052 . S
Co131 O139 2.135 . S
O132 Co131 2.061 . S
O132 C135 1.235 . S
C133 O136 1.238 . S
C133 O137 1.241 . S
C134 O127 1.247 . S
C134 O128 1.261 . S
C135 O130 1.259 . S
C135 O132 1.235 . S
O136 Co126 2.021 . S
O136 C133 1.238 . S
O137 Co131 2.052 . S
O137 C133 1.241 . S
O138 Co126 2.137 . S
O138 C129 1.247 . S
O139 Co126 2.244 . S
O139 C129 1.272 . S
O139 Co131 2.135 . S
Co140 O141 2.216 . S
Co140 O142 2.091 . S
Co140 O144 2.004 . S
Co140 O150 2.021 . S
Co140 O152 2.137 . S
Co140 O153 2.244 . S
O141 Co140 2.216 . S
O141 C148 1.247 . S
O142 Co140 2.091 . S
O142 C148 1.261 . S
C143 O152 1.247 . S
C143 O153 1.272 . S
O144 Co140 2.004 . S
O144 C149 1.259 . S
Co145 O146 2.061 . S
Co145 O151 2.052 . S
Co145 O153 2.135 . S
O146 Co145 2.061 . S
O146 C149 1.235 . S
C147 O150 1.238 . S
C147 O151 1.241 . S
C148 O141 1.247 . S
C148 O142 1.261 . S
C149 O144 1.259 . S
C149 O146 1.235 . S
O150 Co140 2.021 . S
O150 C147 1.238 . S
O151 Co145 2.052 . S
O151 C147 1.241 . S
O152 Co140 2.137 . S
O152 C143 1.247 . S
O153 Co140 2.244 . S
O153 C143 1.272 . S
O153 Co145 2.135 . S
Co154 O155 2.216 . S
Co154 O156 2.091 . S
Co154 O158 2.004 . S
Co154 O164 2.021 . S
Co154 O166 2.137 . S
Co154 O167 2.244 . S
O155 Co154 2.216 . S
O155 C162 1.247 . S
O156 Co154 2.091 . S
O156 C162 1.261 . S
C157 O166 1.247 . S
C157 O167 1.272 . S
O158 Co154 2.004 . S
O158 C163 1.259 . S
Co159 O160 2.061 . S
Co159 O165 2.052 . S
Co159 O167 2.135 . S
O160 Co159 2.061 . S
O160 C163 1.235 . S
C161 O164 1.238 . S
C161 O165 1.241 . S
C162 O155 1.247 . S
C162 O156 1.261 . S
C163 O158 1.259 . S
C163 O160 1.235 . S
O164 Co154 2.021 . S
O164 C161 1.238 . S
O165 Co159 2.052 . S
O165 C161 1.241 . S
O166 Co154 2.137 . S
O166 C157 1.247 . S
O167 Co154 2.244 . S
O167 C157 1.272 . S
O167 Co159 2.135 . S
Co168 O169 2.216 . S
Co168 O170 2.091 . S
Co168 O172 2.004 . S
Co168 O178 2.021 . S
Co168 O180 2.137 . S
Co168 O181 2.244 . S
O169 Co168 2.216 . S
O169 C176 1.247 . S
O170 Co168 2.091 . S
O170 C176 1.261 . S
C171 O180 1.247 . S
C171 O181 1.272 . S
O172 Co168 2.004 . S
O172 C177 1.259 . S
Co173 O174 2.061 . S
Co173 O179 2.052 . S
Co173 O181 2.135 . S
O174 Co173 2.061 . S
O174 C177 1.235 . S
C175 O178 1.238 . S
C175 O179 1.241 . S
C176 O169 1.247 . S
C176 O170 1.261 . S
C177 O172 1.259 . S
C177 O174 1.235 . S
O178 Co168 2.021 . S
O178 C175 1.238 . S
O179 Co173 2.052 . S
O179 C175 1.241 . S
O180 Co168 2.137 . S
O180 C171 1.247 . S
O181 Co168 2.244 . S
O181 C171 1.272 . S
O181 Co173 2.135 . S
Co182 O183 2.216 . S
Co182 O184 2.091 . S
Co182 O186 2.004 . S
Co182 O192 2.021 . S
Co182 O194 2.137 . S
Co182 O195 2.244 . S
O183 Co182 2.216 . S
O183 C190 1.247 . S
O184 Co182 2.091 . S
O184 C190 1.261 . S
C185 O194 1.247 . S
C185 O195 1.272 . S
O186 Co182 2.004 . S
O186 C191 1.259 . S
Co187 O188 2.061 . S
Co187 O193 2.052 . S
Co187 O195 2.135 . S
O188 Co187 2.061 . S
O188 C191 1.235 . S
C189 O192 1.238 . S
C189 O193 1.241 . S
C190 O183 1.247 . S
C190 O184 1.261 . S
C191 O186 1.259 . S
C191 O188 1.235 . S
O192 Co182 2.021 . S
O192 C189 1.238 . S
O193 Co187 2.052 . S
O193 C189 1.241 . S
O194 Co182 2.137 . S
O194 C185 1.247 . S
O195 Co182 2.244 . S
O195 C185 1.272 . S
O195 Co187 2.135 . S
Co196 O197 2.216 . S
Co196 O198 2.091 . S
Co196 O200 2.004 . S
Co196 O206 2.021 . S
Co196 O208 2.137 . S
Co196 O209 2.244 . S
O197 Co196 2.216 . S
O197 C204 1.247 . S
O198 Co196 2.091 . S
O198 C204 1.261 . S
C199 O208 1.247 . S
C199 O209 1.272 . S
O200 Co196 2.004 . S
O200 C205 1.259 . S
Co201 O202 2.061 . S
Co201 O207 2.052 . S
Co201 O209 2.135 . S
O202 Co201 2.061 . S
O202 C205 1.235 . S
C203 O206 1.238 . S
C203 O207 1.241 . S
C204 O197 1.247 . S
C204 O198 1.261 . S
C205 O200 1.259 . S
C205 O202 1.235 . S
O206 Co196 2.021 . S
O206 C203 1.238 . S
O207 Co201 2.052 . S
O207 C203 1.241 . S
O208 Co196 2.137 . S
O208 C199 1.247 . S
O209 Co196 2.244 . S
O209 C199 1.272 . S
O209 Co201 2.135 . S
Co210 O211 2.216 . S
Co210 O212 2.091 . S
Co210 O214 2.004 . S
Co210 O220 2.021 . S
Co210 O222 2.137 . S
Co210 O223 2.244 . S
O211 Co210 2.216 . S
O211 C218 1.247 . S
O212 Co210 2.091 . S
O212 C218 1.261 . S
C213 O222 1.247 . S
C213 O223 1.272 . S
O214 Co210 2.004 . S
O214 C219 1.259 . S
Co215 O216 2.061 . S
Co215 O221 2.052 . S
Co215 O223 2.135 . S
O216 Co215 2.061 . S
O216 C219 1.235 . S
C217 O220 1.238 . S
C217 O221 1.241 . S
C218 O211 1.247 . S
C218 O212 1.261 . S
C219 O214 1.259 . S
C219 O216 1.235 . S
O220 Co210 2.021 . S
O220 C217 1.238 . S
O221 Co215 2.052 . S
O221 C217 1.241 . S
O222 Co210 2.137 . S
O222 C213 1.247 . S
O223 Co210 2.244 . S
O223 C213 1.272 . S
O223 Co215 2.135 . S
Co224 O225 2.216 . S
Co224 O226 2.091 . S
Co224 O228 2.004 . S
Co224 O234 2.021 . S
Co224 O236 2.137 . S
Co224 O237 2.244 . S
O225 Co224 2.216 . S
O225 C232 1.247 . S
O226 Co224 2.091 . S
O226 C232 1.261 . S
C227 O236 1.247 . S
C227 O237 1.272 . S
O228 Co224 2.004 . S
O228 C233 1.259 . S
Co229 O230 2.061 . S
Co229 O235 2.052 . S
Co229 O237 2.135 . S
O230 Co229 2.061 . S
O230 C233 1.235 . S
C231 O234 1.238 . S
C231 O235 1.241 . S
C232 O225 1.247 . S
C232 O226 1.261 . S
C233 O228 1.259 . S
C233 O230 1.235 . S
O234 Co224 2.021 . S
O234 C231 1.238 . S
O235 Co229 2.052 . S
O235 C231 1.241 . S
O236 Co224 2.137 . S
O236 C227 1.247 . S
O237 Co224 2.244 . S
O237 C227 1.272 . S
O237 Co229 2.135 . S
Co238 O239 2.216 . S
Co238 O240 2.091 . S
Co238 O242 2.004 . S
Co238 O248 2.021 . S
Co238 O250 2.137 . S
Co238 O251 2.244 . S
O239 Co238 2.216 . S
O239 C246 1.247 . S
O240 Co238 2.091 . S
O240 C246 1.261 . S
C241 O250 1.247 . S
C241 O251 1.272 . S
O242 Co238 2.004 . S
O242 C247 1.259 . S
Co243 O244 2.061 . S
Co243 O249 2.052 . S
Co243 O251 2.135 . S
O244 Co243 2.061 . S
O244 C247 1.235 . S
C245 O248 1.238 . S
C245 O249 1.241 . S
C246 O239 1.247 . S
C246 O240 1.261 . S
C247 O242 1.259 . S
C247 O244 1.235 . S
O248 Co238 2.021 . S
O248 C245 1.238 . S
O249 Co243 2.052 . S
O249 C245 1.241 . S
O250 Co238 2.137 . S
O250 C241 1.247 . S
O251 Co238 2.244 . S
O251 C241 1.272 . S
O251 Co243 2.135 . S
Co252 O253 2.216 . S
Co252 O254 2.091 . S
Co252 O256 2.004 . S
Co252 O262 2.021 . S
Co252 O264 2.137 . S
Co252 O265 2.244 . S
O253 Co252 2.216 . S
O253 C260 1.247 . S
O254 Co252 2.091 . S
O254 C260 1.261 . S
C255 O264 1.247 . S
C255 O265 1.272 . S
O256 Co252 2.004 . S
O256 C261 1.259 . S
Co257 O258 2.061 . S
Co257 O263 2.052 . S
Co257 O265 2.135 . S
O258 Co257 2.061 . S
O258 C261 1.235 . S
C259 O262 1.238 . S
C259 O263 1.241 . S
C260 O253 1.247 . S
C260 O254 1.261 . S
C261 O256 1.259 . S
C261 O258 1.235 . S
O262 Co252 2.021 . S
O262 C259 1.238 . S
O263 Co257 2.052 . S
O263 C259 1.241 . S
O264 Co252 2.137 . S
O264 C255 1.247 . S
O265 Co252 2.244 . S
O265 C255 1.272 . S
O265 Co257 2.135 . S
Co266 O267 2.216 . S
Co266 O268 2.091 . S
Co266 O270 2.004 . S
Co266 O276 2.021 . S
Co266 O278 2.137 . S
Co266 O279 2.244 . S
O267 Co266 2.216 . S
O267 C274 1.247 . S
O268 Co266 2.091 . S
O268 C274 1.261 . S
C269 O278 1.247 . S
C269 O279 1.272 . S
O270 Co266 2.004 . S
O270 C275 1.259 . S
Co271 O272 2.061 . S
Co271 O277 2.052 . S
Co271 O279 2.135 . S
O272 Co271 2.061 . S
O272 C275 1.235 . S
C273 O276 1.238 . S
C273 O277 1.241 . S
C274 O267 1.247 . S
C274 O268 1.261 . S
C275 O270 1.259 . S
C275 O272 1.235 . S
O276 Co266 2.021 . S
O276 C273 1.238 . S
O277 Co271 2.052 . S
O277 C273 1.241 . S
O278 Co266 2.137 . S
O278 C269 1.247 . S
O279 Co266 2.244 . S
O279 C269 1.272 . S
O279 Co271 2.135 . S
Co280 O281 2.216 . S
Co280 O282 2.091 . S
Co280 O284 2.004 . S
Co280 O290 2.021 . S
Co280 O292 2.137 . S
Co280 O293 2.244 . S
O281 Co280 2.216 . S
O281 C288 1.247 . S
O282 Co280 2.091 . S
O282 C288 1.261 . S
C283 O292 1.247 . S
C283 O293 1.272 . S
O284 Co280 2.004 . S
O284 C289 1.259 . S
Co285 O286 2.061 . S
Co285 O291 2.052 . S
Co285 O293 2.135 . S
O286 Co285 2.061 . S
O286 C289 1.235 . S
C287 O290 1.238 . S
C287 O291 1.241 . S
C288 O281 1.247 . S
C288 O282 1.261 . S
C289 O284 1.259 . S
C289 O286 1.235 . S
O290 Co280 2.021 . S
O290 C287 1.238 . S
O291 Co285 2.052 . S
O291 C287 1.241 . S
O292 Co280 2.137 . S
O292 C283 1.247 . S
O293 Co280 2.244 . S
O293 C283 1.272 . S
O293 Co285 2.135 . S
Co294 O295 2.216 . S
Co294 O296 2.091 . S
Co294 O298 2.004 . S
Co294 O304 2.021 . S
Co294 O306 2.137 . S
Co294 O307 2.244 . S
O295 Co294 2.216 . S
O295 C302 1.247 . S
O296 Co294 2.091 . S
O296 C302 1.261 . S
C297 O306 1.247 . S
C297 O307 1.272 . S
O298 Co294 2.004 . S
O298 C303 1.259 . S
Co299 O300 2.061 . S
Co299 O305 2.052 . S
Co299 O307 2.135 . S
O300 Co299 2.061 . S
O300 C303 1.235 . S
C301 O304 1.238 . S
C301 O305 1.241 . S
C302 O295 1.247 . S
C302 O296 1.261 . S
C303 O298 1.259 . S
C303 O300 1.235 . S
O304 Co294 2.021 . S
O304 C301 1.238 . S
O305 Co299 2.052 . S
O305 C301 1.241 . S
O306 Co294 2.137 . S
O306 C297 1.247 . S
O307 Co294 2.244 . S
O307 C297 1.272 . S
O307 Co299 2.135 . S
Co308 O309 2.216 . S
Co308 O310 2.091 . S
Co308 O312 2.004 . S
Co308 O318 2.021 . S
Co308 O320 2.137 . S
Co308 O321 2.244 . S
O309 Co308 2.216 . S
O309 C316 1.247 . S
O310 Co308 2.091 . S
O310 C316 1.261 . S
C311 O320 1.247 . S
C311 O321 1.272 . S
O312 Co308 2.004 . S
O312 C317 1.259 . S
Co313 O314 2.061 . S
Co313 O319 2.052 . S
Co313 O321 2.135 . S
O314 Co313 2.061 . S
O314 C317 1.235 . S
C315 O318 1.238 . S
C315 O319 1.241 . S
C316 O309 1.247 . S
C316 O310 1.261 . S
C317 O312 1.259 . S
C317 O314 1.235 . S
O318 Co308 2.021 . S
O318 C315 1.238 . S
O319 Co313 2.052 . S
O319 C315 1.241 . S
O320 Co308 2.137 . S
O320 C311 1.247 . S
O321 Co308 2.244 . S
O321 C311 1.272 . S
O321 Co313 2.135 . S
Co322 O323 2.216 . S
Co322 O324 2.091 . S
Co322 O326 2.004 . S
Co322 O332 2.021 . S
Co322 O334 2.137 . S
Co322 O335 2.244 . S
O323 Co322 2.216 . S
O323 C330 1.247 . S
O324 Co322 2.091 . S
O324 C330 1.261 . S
C325 O334 1.247 . S
C325 O335 1.272 . S
O326 Co322 2.004 . S
O326 C331 1.259 . S
Co327 O328 2.061 . S
Co327 O333 2.052 . S
Co327 O335 2.135 . S
O328 Co327 2.061 . S
O328 C331 1.235 . S
C329 O332 1.238 . S
C329 O333 1.241 . S
C330 O323 1.247 . S
C330 O324 1.261 . S
C331 O326 1.259 . S
C331 O328 1.235 . S
O332 Co322 2.021 . S
O332 C329 1.238 . S
O333 Co327 2.052 . S
O333 C329 1.241 . S
O334 Co322 2.137 . S
O334 C325 1.247 . S
O335 Co322 2.244 . S
O335 C325 1.272 . S
O335 Co327 2.135 . S
Co336 O337 2.216 . S
Co336 O338 2.091 . S
Co336 O340 2.004 . S
Co336 O346 2.021 . S
Co336 O348 2.137 . S
Co336 O349 2.244 . S
O337 Co336 2.216 . S
O337 C344 1.247 . S
O338 Co336 2.091 . S
O338 C344 1.261 . S
C339 O348 1.247 . S
C339 O349 1.272 . S
O340 Co336 2.004 . S
O340 C345 1.259 . S
Co341 O342 2.061 . S
Co341 O347 2.052 . S
Co341 O349 2.135 . S
O342 Co341 2.061 . S
O342 C345 1.235 . S
C343 O346 1.238 . S
C343 O347 1.241 . S
C344 O337 1.247 . S
C344 O338 1.261 . S
C345 O340 1.259 . S
C345 O342 1.235 . S
O346 Co336 2.021 . S
O346 C343 1.238 . S
O347 Co341 2.052 . S
O347 C343 1.241 . S
O348 Co336 2.137 . S
O348 C339 1.247 . S
O349 Co336 2.244 . S
O349 C339 1.272 . S
O349 Co341 2.135 . S
Co350 O351 2.216 . S
Co350 O352 2.091 . S
Co350 O354 2.004 . S
Co350 O360 2.021 . S
Co350 O362 2.137 . S
Co350 O363 2.244 . S
O351 Co350 2.216 . S
O351 C358 1.247 . S
O352 Co350 2.091 . S
O352 C358 1.261 . S
C353 O362 1.247 . S
C353 O363 1.272 . S
O354 Co350 2.004 . S
O354 C359 1.259 . S
Co355 O356 2.061 . S
Co355 O361 2.052 . S
Co355 O363 2.135 . S
O356 Co355 2.061 . S
O356 C359 1.235 . S
C357 O360 1.238 . S
C357 O361 1.241 . S
C358 O351 1.247 . S
C358 O352 1.261 . S
C359 O354 1.259 . S
C359 O356 1.235 . S
O360 Co350 2.021 . S
O360 C357 1.238 . S
O361 Co355 2.052 . S
O361 C357 1.241 . S
O362 Co350 2.137 . S
O362 C353 1.247 . S
O363 Co350 2.244 . S
O363 C353 1.272 . S
O363 Co355 2.135 . S
Co364 O365 2.216 . S
Co364 O366 2.091 . S
Co364 O368 2.004 . S
Co364 O374 2.021 . S
Co364 O376 2.137 . S
Co364 O377 2.244 . S
O365 Co364 2.216 . S
O365 C372 1.247 . S
O366 Co364 2.091 . S
O366 C372 1.261 . S
C367 O376 1.247 . S
C367 O377 1.272 . S
O368 Co364 2.004 . S
O368 C373 1.259 . S
Co369 O370 2.061 . S
Co369 O375 2.052 . S
Co369 O377 2.135 . S
O370 Co369 2.061 . S
O370 C373 1.235 . S
C371 O374 1.238 . S
C371 O375 1.241 . S
C372 O365 1.247 . S
C372 O366 1.261 . S
C373 O368 1.259 . S
C373 O370 1.235 . S
O374 Co364 2.021 . S
O374 C371 1.238 . S
O375 Co369 2.052 . S
O375 C371 1.241 . S
O376 Co364 2.137 . S
O376 C367 1.247 . S
O377 Co364 2.244 . S
O377 C367 1.272 . S
O377 Co369 2.135 . S
Co378 O379 2.216 . S
Co378 O380 2.091 . S
Co378 O382 2.004 . S
Co378 O388 2.021 . S
Co378 O390 2.137 . S
Co378 O391 2.244 . S
O379 Co378 2.216 . S
O379 C386 1.247 . S
O380 Co378 2.091 . S
O380 C386 1.261 . S
C381 O390 1.247 . S
C381 O391 1.272 . S
O382 Co378 2.004 . S
O382 C387 1.259 . S
Co383 O384 2.061 . S
Co383 O389 2.052 . S
Co383 O391 2.135 . S
O384 Co383 2.061 . S
O384 C387 1.235 . S
C385 O388 1.238 . S
C385 O389 1.241 . S
C386 O379 1.247 . S
C386 O380 1.261 . S
C387 O382 1.259 . S
C387 O384 1.235 . S
O388 Co378 2.021 . S
O388 C385 1.238 . S
O389 Co383 2.052 . S
O389 C385 1.241 . S
O390 Co378 2.137 . S
O390 C381 1.247 . S
O391 Co378 2.244 . S
O391 C381 1.272 . S
O391 Co383 2.135 . S
Co392 O393 2.216 . S
Co392 O394 2.091 . S
Co392 O396 2.004 . S
Co392 O402 2.021 . S
Co392 O404 2.137 . S
Co392 O405 2.244 . S
O393 Co392 2.216 . S
O393 C400 1.247 . S
O394 Co392 2.091 . S
O394 C400 1.261 . S
C395 O404 1.247 . S
C395 O405 1.272 . S
O396 Co392 2.004 . S
O396 C401 1.259 . S
Co397 O398 2.061 . S
Co397 O403 2.052 . S
Co397 O405 2.135 . S
O398 Co397 2.061 . S
O398 C401 1.235 . S
C399 O402 1.238 . S
C399 O403 1.241 . S
C400 O393 1.247 . S
C400 O394 1.261 . S
C401 O396 1.259 . S
C401 O398 1.235 . S
O402 Co392 2.021 . S
O402 C399 1.238 . S
O403 Co397 2.052 . S
O403 C399 1.241 . S
O404 Co392 2.137 . S
O404 C395 1.247 . S
O405 Co392 2.244 . S
O405 C395 1.272 . S
O405 Co397 2.135 . S
Co406 O407 2.216 . S
Co406 O408 2.091 . S
Co406 O410 2.004 . S
Co406 O416 2.021 . S
Co406 O418 2.137 . S
Co406 O419 2.244 . S
O407 Co406 2.216 . S
O407 C414 1.247 . S
O408 Co406 2.091 . S
O408 C414 1.261 . S
C409 O418 1.247 . S
C409 O419 1.272 . S
O410 Co406 2.004 . S
O410 C415 1.259 . S
Co411 O412 2.061 . S
Co411 O417 2.052 . S
Co411 O419 2.135 . S
O412 Co411 2.061 . S
O412 C415 1.235 . S
C413 O416 1.238 . S
C413 O417 1.241 . S
C414 O407 1.247 . S
C414 O408 1.261 . S
C415 O410 1.259 . S
C415 O412 1.235 . S
O416 Co406 2.021 . S
O416 C413 1.238 . S
O417 Co411 2.052 . S
O417 C413 1.241 . S
O418 Co406 2.137 . S
O418 C409 1.247 . S
O419 Co406 2.244 . S
O419 C409 1.272 . S
O419 Co411 2.135 . S
Co420 O421 2.216 . S
Co420 O422 2.091 . S
Co420 O424 2.004 . S
Co420 O430 2.021 . S
Co420 O432 2.137 . S
Co420 O433 2.244 . S
O421 Co420 2.216 . S
O421 C428 1.247 . S
O422 Co420 2.091 . S
O422 C428 1.261 . S
C423 O432 1.247 . S
C423 O433 1.272 . S
O424 Co420 2.004 . S
O424 C429 1.259 . S
Co425 O426 2.061 . S
Co425 O431 2.052 . S
Co425 O433 2.135 . S
O426 Co425 2.061 . S
O426 C429 1.235 . S
C427 O430 1.238 . S
C427 O431 1.241 . S
C428 O421 1.247 . S
C428 O422 1.261 . S
C429 O424 1.259 . S
C429 O426 1.235 . S
O430 Co420 2.021 . S
O430 C427 1.238 . S
O431 Co425 2.052 . S
O431 C427 1.241 . S
O432 Co420 2.137 . S
O432 C423 1.247 . S
O433 Co420 2.244 . S
O433 C423 1.272 . S
O433 Co425 2.135 . S
Co434 O435 2.216 . S
Co434 O436 2.091 . S
Co434 O438 2.004 . S
Co434 O444 2.021 . S
Co434 O446 2.137 . S
Co434 O447 2.244 . S
O435 Co434 2.216 . S
O435 C442 1.247 . S
O436 Co434 2.091 . S
O436 C442 1.261 . S
C437 O446 1.247 . S
C437 O447 1.272 . S
O438 Co434 2.004 . S
O438 C443 1.259 . S
Co439 O440 2.061 . S
Co439 O445 2.052 . S
Co439 O447 2.135 . S
O440 Co439 2.061 . S
O440 C443 1.235 . S
C441 O444 1.238 . S
C441 O445 1.241 . S
C442 O435 1.247 . S
C442 O436 1.261 . S
C443 O438 1.259 . S
C443 O440 1.235 . S
O444 Co434 2.021 . S
O444 C441 1.238 . S
O445 Co439 2.052 . S
O445 C441 1.241 . S
O446 Co434 2.137 . S
O446 C437 1.247 . S
O447 Co434 2.244 . S
O447 C437 1.272 . S
O447 Co439 2.135 . S
Co448 O449 2.216 . S
Co448 O450 2.091 . S
Co448 O452 2.004 . S
Co448 O458 2.021 . S
Co448 O460 2.137 . S
Co448 O461 2.244 . S
O449 Co448 2.216 . S
O449 C456 1.247 . S
O450 Co448 2.091 . S
O450 C456 1.261 . S
C451 O460 1.247 . S
C451 O461 1.272 . S
O452 Co448 2.004 . S
O452 C457 1.259 . S
Co453 O454 2.061 . S
Co453 O459 2.052 . S
Co453 O461 2.135 . S
O454 Co453 2.061 . S
O454 C457 1.235 . S
C455 O458 1.238 . S
C455 O459 1.241 . S
C456 O449 1.247 . S
C456 O450 1.261 . S
C457 O452 1.259 . S
C457 O454 1.235 . S
O458 Co448 2.021 . S
O458 C455 1.238 . S
O459 Co453 2.052 . S
O459 C455 1.241 . S
O460 Co448 2.137 . S
O460 C451 1.247 . S
O461 Co448 2.244 . S
O461 C451 1.272 . S
O461 Co453 2.135 . S
Co462 O463 2.216 . S
Co462 O464 2.091 . S
Co462 O466 2.004 . S
Co462 O472 2.021 . S
Co462 O474 2.137 . S
Co462 O475 2.244 . S
O463 Co462 2.216 . S
O463 C470 1.247 . S
O464 Co462 2.091 . S
O464 C470 1.261 . S
C465 O474 1.247 . S
C465 O475 1.272 . S
O466 Co462 2.004 . S
O466 C471 1.259 . S
Co467 O468 2.061 . S
Co467 O473 2.052 . S
Co467 O475 2.135 . S
O468 Co467 2.061 . S
O468 C471 1.235 . S
C469 O472 1.238 . S
C469 O473 1.241 . S
C470 O463 1.247 . S
C470 O464 1.261 . S
C471 O466 1.259 . S
C471 O468 1.235 . S
O472 Co462 2.021 . S
O472 C469 1.238 . S
O473 Co467 2.052 . S
O473 C469 1.241 . S
O474 Co462 2.137 . S
O474 C465 1.247 . S
O475 Co462 2.244 . S
O475 C465 1.272 . S
O475 Co467 2.135 . S
Co476 O477 2.216 . S
Co476 O478 2.091 . S
Co476 O480 2.004 . S
Co476 O486 2.021 . S
Co476 O488 2.137 . S
Co476 O489 2.244 . S
O477 Co476 2.216 . S
O477 C484 1.247 . S
O478 Co476 2.091 . S
O478 C484 1.261 . S
C479 O488 1.247 . S
C479 O489 1.272 . S
O480 Co476 2.004 . S
O480 C485 1.259 . S
Co481 O482 2.061 . S
Co481 O487 2.052 . S
Co481 O489 2.135 . S
O482 Co481 2.061 . S
O482 C485 1.235 . S
C483 O486 1.238 . S
C483 O487 1.241 . S
C484 O477 1.247 . S
C484 O478 1.261 . S
C485 O480 1.259 . S
C485 O482 1.235 . S
O486 Co476 2.021 . S
O486 C483 1.238 . S
O487 Co481 2.052 . S
O487 C483 1.241 . S
O488 Co476 2.137 . S
O488 C479 1.247 . S
O489 Co476 2.244 . S
O489 C479 1.272 . S
O489 Co481 2.135 . S
Co490 O491 2.216 . S
Co490 O492 2.091 . S
Co490 O494 2.004 . S
Co490 O500 2.021 . S
Co490 O502 2.137 . S
Co490 O503 2.244 . S
O491 Co490 2.216 . S
O491 C498 1.247 . S
O492 Co490 2.091 . S
O492 C498 1.261 . S
C493 O502 1.247 . S
C493 O503 1.272 . S
O494 Co490 2.004 . S
O494 C499 1.259 . S
Co495 O496 2.061 . S
Co495 O501 2.052 . S
Co495 O503 2.135 . S
O496 Co495 2.061 . S
O496 C499 1.235 . S
C497 O500 1.238 . S
C497 O501 1.241 . S
C498 O491 1.247 . S
C498 O492 1.261 . S
C499 O494 1.259 . S
C499 O496 1.235 . S
O500 Co490 2.021 . S
O500 C497 1.238 . S
O501 Co495 2.052 . S
O501 C497 1.241 . S
O502 Co490 2.137 . S
O502 C493 1.247 . S
O503 Co490 2.244 . S
O503 C493 1.272 . S
O503 Co495 2.135 . S
Co504 O505 2.216 . S
Co504 O506 2.091 . S
Co504 O508 2.004 . S
Co504 O514 2.021 . S
Co504 O516 2.137 . S
Co504 O517 2.244 . S
O505 Co504 2.216 . S
O505 C512 1.247 . S
O506 Co504 2.091 . S
O506 C512 1.261 . S
C507 O516 1.247 . S
C507 O517 1.272 . S
O508 Co504 2.004 . S
O508 C513 1.259 . S
Co509 O510 2.061 . S
Co509 O515 2.052 . S
Co509 O517 2.135 . S
O510 Co509 2.061 . S
O510 C513 1.235 . S
C511 O514 1.238 . S
C511 O515 1.241 . S
C512 O505 1.247 . S
C512 O506 1.261 . S
C513 O508 1.259 . S
C513 O510 1.235 . S
O514 Co504 2.021 . S
O514 C511 1.238 . S
O515 Co509 2.052 . S
O515 C511 1.241 . S
O516 Co504 2.137 . S
O516 C507 1.247 . S
O517 Co504 2.244 . S
O517 C507 1.272 . S
O517 Co509 2.135 . S
Co518 O519 2.216 . S
Co518 O520 2.091 . S
Co518 O522 2.004 . S
Co518 O528 2.021 . S
Co518 O530 2.137 . S
Co518 O531 2.244 . S
O519 Co518 2.216 . S
O519 C526 1.247 . S
O520 Co518 2.091 . S
O520 C526 1.261 . S
C521 O530 1.247 . S
C521 O531 1.272 . S
O522 Co518 2.004 . S
O522 C527 1.259 . S
Co523 O524 2.061 . S
Co523 O529 2.052 . S
Co523 O531 2.135 . S
O524 Co523 2.061 . S
O524 C527 1.235 . S
C525 O528 1.238 . S
C525 O529 1.241 . S
C526 O519 1.247 . S
C526 O520 1.261 . S
C527 O522 1.259 . S
C527 O524 1.235 . S
O528 Co518 2.021 . S
O528 C525 1.238 . S
O529 Co523 2.052 . S
O529 C525 1.241 . S
O530 Co518 2.137 . S
O530 C521 1.247 . S
O531 Co518 2.244 . S
O531 C521 1.272 . S
O531 Co523 2.135 . S
Co532 O533 2.216 . S
Co532 O534 2.091 . S
Co532 O536 2.004 . S
Co532 O542 2.021 . S
Co532 O544 2.137 . S
Co532 O545 2.244 . S
O533 Co532 2.216 . S
O533 C540 1.247 . S
O534 Co532 2.091 . S
O534 C540 1.261 . S
C535 O544 1.247 . S
C535 O545 1.272 . S
O536 Co532 2.004 . S
O536 C541 1.259 . S
Co537 O538 2.061 . S
Co537 O543 2.052 . S
Co537 O545 2.135 . S
O538 Co537 2.061 . S
O538 C541 1.235 . S
C539 O542 1.238 . S
C539 O543 1.241 . S
C540 O533 1.247 . S
C540 O534 1.261 . S
C541 O536 1.259 . S
C541 O538 1.235 . S
O542 Co532 2.021 . S
O542 C539 1.238 . S
O543 Co537 2.052 . S
O543 C539 1.241 . S
O544 Co532 2.137 . S
O544 C535 1.247 . S
O545 Co532 2.244 . S
O545 C535 1.272 . S
O545 Co537 2.135 . S
Co546 O547 2.216 . S
Co546 O548 2.091 . S
Co546 O550 2.004 . S
Co546 O556 2.021 . S
Co546 O558 2.137 . S
Co546 O559 2.244 . S
O547 Co546 2.216 . S
O547 C554 1.247 . S
O548 Co546 2.091 . S
O548 C554 1.261 . S
C549 O558 1.247 . S
C549 O559 1.272 . S
O550 Co546 2.004 . S
O550 C555 1.259 . S
Co551 O552 2.061 . S
Co551 O557 2.052 . S
Co551 O559 2.135 . S
O552 Co551 2.061 . S
O552 C555 1.235 . S
C553 O556 1.238 . S
C553 O557 1.241 . S
C554 O547 1.247 . S
C554 O548 1.261 . S
C555 O550 1.259 . S
C555 O552 1.235 . S
O556 Co546 2.021 . S
O556 C553 1.238 . S
O557 Co551 2.052 . S
O557 C553 1.241 . S
O558 Co546 2.137 . S
O558 C549 1.247 . S
O559 Co546 2.244 . S
O559 C549 1.272 . S
O559 Co551 2.135 . S
Co560 O561 2.216 . S
Co560 O562 2.091 . S
Co560 O564 2.004 . S
Co560 O570 2.021 . S
Co560 O572 2.137 . S
Co560 O573 2.244 . S
O561 Co560 2.216 . S
O561 C568 1.247 . S
O562 Co560 2.091 . S
O562 C568 1.261 . S
C563 O572 1.247 . S
C563 O573 1.272 . S
O564 Co560 2.004 . S
O564 C569 1.259 . S
Co565 O566 2.061 . S
Co565 O571 2.052 . S
Co565 O573 2.135 . S
O566 Co565 2.061 . S
O566 C569 1.235 . S
C567 O570 1.238 . S
C567 O571 1.241 . S
C568 O561 1.247 . S
C568 O562 1.261 . S
C569 O564 1.259 . S
C569 O566 1.235 . S
O570 Co560 2.021 . S
O570 C567 1.238 . S
O571 Co565 2.052 . S
O571 C567 1.241 . S
O572 Co560 2.137 . S
O572 C563 1.247 . S
O573 Co560 2.244 . S
O573 C563 1.272 . S
O573 Co565 2.135 . S
Co574 O575 2.216 . S
Co574 O576 2.091 . S
Co574 O578 2.004 . S
Co574 O584 2.021 . S
Co574 O586 2.137 . S
Co574 O587 2.244 . S
O575 Co574 2.216 . S
O575 C582 1.247 . S
O576 Co574 2.091 . S
O576 C582 1.261 . S
C577 O586 1.247 . S
C577 O587 1.272 . S
O578 Co574 2.004 . S
O578 C583 1.259 . S
Co579 O580 2.061 . S
Co579 O585 2.052 . S
Co579 O587 2.135 . S
O580 Co579 2.061 . S
O580 C583 1.235 . S
C581 O584 1.238 . S
C581 O585 1.241 . S
C582 O575 1.247 . S
C582 O576 1.261 . S
C583 O578 1.259 . S
C583 O580 1.235 . S
O584 Co574 2.021 . S
O584 C581 1.238 . S
O585 Co579 2.052 . S
O585 C581 1.241 . S
O586 Co574 2.137 . S
O586 C577 1.247 . S
O587 Co574 2.244 . S
O587 C577 1.272 . S
O587 Co579 2.135 . S
Co588 O589 2.216 . S
Co588 O590 2.091 . S
Co588 O592 2.004 . S
Co588 O598 2.021 . S
Co588 O600 2.137 . S
Co588 O601 2.244 . S
O589 Co588 2.216 . S
O589 C596 1.247 . S
O590 Co588 2.091 . S
O590 C596 1.261 . S
C591 O600 1.247 . S
C591 O601 1.272 . S
O592 Co588 2.004 . S
O592 C597 1.259 . S
Co593 O594 2.061 . S
Co593 O599 2.052 . S
Co593 O601 2.135 . S
O594 Co593 2.061 . S
O594 C597 1.235 . S
C595 O598 1.238 . S
C595 O599 1.241 . S
C596 O589 1.247 . S
C596 O590 1.261 . S
C597 O592 1.259 . S
C597 O594 1.235 . S
O598 Co588 2.021 . S
O598 C595 1.238 . S
O599 Co593 2.052 . S
O599 C595 1.241 . S
O600 Co588 2.137 . S
O600 C591 1.247 . S
O601 Co588 2.244 . S
O601 C591 1.272 . S
O601 Co593 2.135 . S
Co602 O603 2.216 . S
Co602 O604 2.091 . S
Co602 O606 2.004 . S
Co602 O612 2.021 . S
Co602 O614 2.137 . S
Co602 O615 2.244 . S
O603 Co602 2.216 . S
O603 C610 1.247 . S
O604 Co602 2.091 . S
O604 C610 1.261 . S
C605 O614 1.247 . S
C605 O615 1.272 . S
O606 Co602 2.004 . S
O606 C611 1.259 . S
Co607 O608 2.061 . S
Co607 O613 2.052 . S
Co607 O615 2.135 . S
O608 Co607 2.061 . S
O608 C611 1.235 . S
C609 O612 1.238 . S
C609 O613 1.241 . S
C610 O603 1.247 . S
C610 O604 1.261 . S
C611 O606 1.259 . S
C611 O608 1.235 . S
O612 Co602 2.021 . S
O612 C609 1.238 . S
O613 Co607 2.052 . S
O613 C609 1.241 . S
O614 Co602 2.137 . S
O614 C605 1.247 . S
O615 Co602 2.244 . S
O615 C605 1.272 . S
O615 Co607 2.135 . S
Co616 O617 2.216 . S
Co616 O618 2.091 . S
Co616 O620 2.004 . S
Co616 O626 2.021 . S
Co616 O628 2.137 . S
Co616 O629 2.244 . S
O617 Co616 2.216 . S
O617 C624 1.247 . S
O618 Co616 2.091 . S
O618 C624 1.261 . S
C619 O628 1.247 . S
C619 O629 1.272 . S
O620 Co616 2.004 . S
O620 C625 1.259 . S
Co621 O622 2.061 . S
Co621 O627 2.052 . S
Co621 O629 2.135 . S
O622 Co621 2.061 . S
O622 C625 1.235 . S
C623 O626 1.238 . S
C623 O627 1.241 . S
C624 O617 1.247 . S
C624 O618 1.261 . S
C625 O620 1.259 . S
C625 O622 1.235 . S
O626 Co616 2.021 . S
O626 C623 1.238 . S
O627 Co621 2.052 . S
O627 C623 1.241 . S
O628 Co616 2.137 . S
O628 C619 1.247 . S
O629 Co616 2.244 . S
O629 C619 1.272 . S
O629 Co621 2.135 . S
Co630 O631 2.216 . S
Co630 O632 2.091 . S
Co630 O634 2.004 . S
Co630 O640 2.021 . S
Co630 O642 2.137 . S
Co630 O643 2.244 . S
O631 Co630 2.216 . S
O631 C638 1.247 . S
O632 Co630 2.091 . S
O632 C638 1.261 . S
C633 O642 1.247 . S
C633 O643 1.272 . S
O634 Co630 2.004 . S
O634 C639 1.259 . S
Co635 O636 2.061 . S
Co635 O641 2.052 . S
Co635 O643 2.135 . S
O636 Co635 2.061 . S
O636 C639 1.235 . S
C637 O640 1.238 . S
C637 O641 1.241 . S
C638 O631 1.247 . S
C638 O632 1.261 . S
C639 O634 1.259 . S
C639 O636 1.235 . S
O640 Co630 2.021 . S
O640 C637 1.238 . S
O641 Co635 2.052 . S
O641 C637 1.241 . S
O642 Co630 2.137 . S
O642 C633 1.247 . S
O643 Co630 2.244 . S
O643 C633 1.272 . S
O643 Co635 2.135 . S
Co644 O645 2.216 . S
Co644 O646 2.091 . S
Co644 O648 2.004 . S
Co644 O654 2.021 . S
Co644 O656 2.137 . S
Co644 O657 2.244 . S
O645 Co644 2.216 . S
O645 C652 1.247 . S
O646 Co644 2.091 . S
O646 C652 1.261 . S
C647 O656 1.247 . S
C647 O657 1.272 . S
O648 Co644 2.004 . S
O648 C653 1.259 . S
Co649 O650 2.061 . S
Co649 O655 2.052 . S
Co649 O657 2.135 . S
O650 Co649 2.061 . S
O650 C653 1.235 . S
C651 O654 1.238 . S
C651 O655 1.241 . S
C652 O645 1.247 . S
C652 O646 1.261 . S
C653 O648 1.259 . S
C653 O650 1.235 . S
O654 Co644 2.021 . S
O654 C651 1.238 . S
O655 Co649 2.052 . S
O655 C651 1.241 . S
O656 Co644 2.137 . S
O656 C647 1.247 . S
O657 Co644 2.244 . S
O657 C647 1.272 . S
O657 Co649 2.135 . S
Co658 O659 2.216 . S
Co658 O660 2.091 . S
Co658 O662 2.004 . S
Co658 O668 2.021 . S
Co658 O670 2.137 . S
Co658 O671 2.244 . S
O659 Co658 2.216 . S
O659 C666 1.247 . S
O660 Co658 2.091 . S
O660 C666 1.261 . S
C661 O670 1.247 . S
C661 O671 1.272 . S
O662 Co658 2.004 . S
O662 C667 1.259 . S
Co663 O664 2.061 . S
Co663 O669 2.052 . S
Co663 O671 2.135 . S
O664 Co663 2.061 . S
O664 C667 1.235 . S
C665 O668 1.238 . S
C665 O669 1.241 . S
C666 O659 1.247 . S
C666 O660 1.261 . S
C667 O662 1.259 . S
C667 O664 1.235 . S
O668 Co658 2.021 . S
O668 C665 1.238 . S
O669 Co663 2.052 . S
O669 C665 1.241 . S
O670 Co658 2.137 . S
O670 C661 1.247 . S
O671 Co658 2.244 . S
O671 C661 1.272 . S
O671 Co663 2.135 . S
C672 C673 1.363 . S
C672 C678 1.379 1_655 S
C672 N680 1.356 . S
C673 C672 1.363 . S
C673 C679 1.363 . S
C674 C675 1.363 . S
C674 C679 1.379 1_455 S
C674 N681 1.356 . S
C675 C674 1.363 . S
C675 C678 1.363 . S
N676 C678 1.356 . S
N676 H688 0.984 . S
N676 H689 0.985 . S
N677 C679 1.356 . S
N677 H682 0.984 . S
N677 H683 0.985 . S
C678 C672 1.379 1_455 S
C678 C675 1.363 . S
C678 N676 1.356 . S
C679 C673 1.363 . S
C679 C674 1.379 1_655 S
C679 N677 1.356 . S
N680 C672 1.356 . S
N680 H686 0.984 . S
N680 H687 0.984 . S
N681 C674 1.356 . S
N681 H684 0.984 . S
N681 H685 0.985 . S
H682 N677 0.984 . S
H683 N677 0.985 . S
H684 N681 0.984 . S
H685 N681 0.985 . S
H686 N680 0.984 . S
H687 N680 0.984 . S
H688 N676 0.984 . S
H689 N676 0.985 . S
C690 C691 1.363 . S
C690 C696 1.379 . S
C690 N698 1.356 . S
C691 C690 1.363 . S
C691 C697 1.363 . S
C692 C693 1.363 . S
C692 C697 1.379 . S
C692 N699 1.356 . S
C693 C692 1.363 . S
C693 C696 1.363 . S
N694 C696 1.356 . S
N694 H706 0.984 . S
N694 H707 0.985 . S
N695 C697 1.356 . S
N695 H700 0.984 . S
N695 H701 0.985 . S
C696 C690 1.379 . S
C696 C693 1.363 . S
C696 N694 1.356 . S
C697 C691 1.363 . S
C697 C692 1.379 . S
C697 N695 1.356 . S
N698 C690 1.356 . S
N698 H704 0.984 . S
N698 H705 0.984 . S
N699 C692 1.356 . S
N699 H702 0.984 . S
N699 H703 0.985 . S
H700 N695 0.984 . S
H701 N695 0.985 . S
H702 N699 0.984 . S
H703 N699 0.985 . S
H704 N698 0.984 . S
H705 N698 0.984 . S
H706 N694 0.984 . S
H707 N694 0.985 . S
C708 C709 1.363 . S
C708 C714 1.379 1_455 S
C708 N716 1.356 . S
C709 C708 1.363 . S
C709 C715 1.363 . S
C710 C711 1.363 . S
C710 C715 1.379 1_655 S
C710 N717 1.356 . S
C711 C710 1.363 . S
C711 C714 1.363 . S
N712 C714 1.356 . S
N712 H724 0.984 . S
N712 H725 0.985 . S
N713 C715 1.356 . S
N713 H718 0.984 . S
N713 H719 0.985 . S
C714 C708 1.379 1_655 S
C714 C711 1.363 . S
C714 N712 1.356 . S
C715 C709 1.363 . S
C715 C710 1.379 1_455 S
C715 N713 1.356 . S
N716 C708 1.356 . S
N716 H722 0.984 . S
N716 H723 0.984 . S
N717 C710 1.356 . S
N717 H720 0.984 . S
N717 H721 0.985 . S
H718 N713 0.984 . S
H719 N713 0.985 . S
H720 N717 0.984 . S
H721 N717 0.985 . S
H722 N716 0.984 . S
H723 N716 0.984 . S
H724 N712 0.984 . S
H725 N712 0.985 . S
C726 C727 1.363 . S
C726 C732 1.379 . S
C726 N734 1.356 . S
C727 C726 1.363 . S
C727 C733 1.363 . S
C728 C729 1.363 . S
C728 C733 1.379 . S
C728 N735 1.356 . S
C729 C728 1.363 . S
C729 C732 1.363 . S
N730 C732 1.356 . S
N730 H742 0.984 . S
N730 H743 0.985 . S
N731 C733 1.356 . S
N731 H736 0.984 . S
N731 H737 0.985 . S
C732 C726 1.379 . S
C732 C729 1.363 . S
C732 N730 1.356 . S
C733 C727 1.363 . S
C733 C728 1.379 . S
C733 N731 1.356 . S
N734 C726 1.356 . S
N734 H740 0.984 . S
N734 H741 0.984 . S
N735 C728 1.356 . S
N735 H738 0.984 . S
N735 H739 0.985 . S
H736 N731 0.984 . S
H737 N731 0.985 . S
H738 N735 0.984 . S
H739 N735 0.985 . S
H740 N734 0.984 . S
H741 N734 0.984 . S
H742 N730 0.984 . S
H743 N730 0.985 . S
C744 C745 1.363 . S
C744 C750 1.379 1_655 S
C744 N752 1.356 . S
C745 C744 1.363 . S
C745 C751 1.363 . S
C746 C747 1.363 . S
C746 C751 1.379 1_455 S
C746 N753 1.356 . S
C747 C746 1.363 . S
C747 C750 1.363 . S
N748 C750 1.356 . S
N748 H760 0.984 . S
N748 H761 0.985 . S
N749 C751 1.356 . S
N749 H754 0.984 . S
N749 H755 0.985 . S
C750 C744 1.379 1_455 S
C750 C747 1.363 . S
C750 N748 1.356 . S
C751 C745 1.363 . S
C751 C746 1.379 1_655 S
C751 N749 1.356 . S
N752 C744 1.356 . S
N752 H758 0.984 . S
N752 H759 0.984 . S
N753 C746 1.356 . S
N753 H756 0.984 . S
N753 H757 0.985 . S
H754 N749 0.984 . S
H755 N749 0.985 . S
H756 N753 0.984 . S
H757 N753 0.985 . S
H758 N752 0.984 . S
H759 N752 0.984 . S
H760 N748 0.984 . S
H761 N748 0.985 . S
C762 C763 1.363 . S
C762 C768 1.379 . S
C762 N770 1.356 . S
C763 C762 1.363 . S
C763 C769 1.363 . S
C764 C765 1.363 . S
C764 C769 1.379 . S
C764 N771 1.356 . S
C765 C764 1.363 . S
C765 C768 1.363 . S
N766 C768 1.356 . S
N766 H778 0.984 . S
N766 H779 0.985 . S
N767 C769 1.356 . S
N767 H772 0.984 . S
N767 H773 0.985 . S
C768 C762 1.379 . S
C768 C765 1.363 . S
C768 N766 1.356 . S
C769 C763 1.363 . S
C769 C764 1.379 . S
C769 N767 1.356 . S
N770 C762 1.356 . S
N770 H776 0.984 . S
N770 H777 0.984 . S
N771 C764 1.356 . S
N771 H774 0.984 . S
N771 H775 0.985 . S
H772 N767 0.984 . S
H773 N767 0.985 . S
H774 N771 0.984 . S
H775 N771 0.985 . S
H776 N770 0.984 . S
H777 N770 0.984 . S
H778 N766 0.984 . S
H779 N766 0.985 . S
C780 C781 1.363 . S
C780 C786 1.379 1_455 S
C780 N788 1.356 . S
C781 C780 1.363 . S
C781 C787 1.363 . S
C782 C783 1.363 . S
C782 C787 1.379 1_655 S
C782 N789 1.356 . S
C783 C782 1.363 . S
C783 C786 1.363 . S
N784 C786 1.356 . S
N784 H796 0.984 . S
N784 H797 0.985 . S
N785 C787 1.356 . S
N785 H790 0.984 . S
N785 H791 0.985 . S
C786 C780 1.379 1_655 S
C786 C783 1.363 . S
C786 N784 1.356 . S
C787 C781 1.363 . S
C787 C782 1.379 1_455 S
C787 N785 1.356 . S
N788 C780 1.356 . S
N788 H794 0.984 . S
N788 H795 0.984 . S
N789 C782 1.356 . S
N789 H792 0.984 . S
N789 H793 0.985 . S
H790 N785 0.984 . S
H791 N785 0.985 . S
H792 N789 0.984 . S
H793 N789 0.985 . S
H794 N788 0.984 . S
H795 N788 0.984 . S
H796 N784 0.984 . S
H797 N784 0.985 . S
C798 C799 1.363 . S
C798 C804 1.379 . S
C798 N806 1.356 . S
C799 C798 1.363 . S
C799 C805 1.363 . S
C800 C801 1.363 . S
C800 C805 1.379 . S
C800 N807 1.356 . S
C801 C800 1.363 . S
C801 C804 1.363 . S
N802 C804 1.356 . S
N802 H814 0.984 . S
N802 H815 0.985 . S
N803 C805 1.356 . S
N803 H808 0.984 . S
N803 H809 0.985 . S
C804 C798 1.379 . S
C804 C801 1.363 . S
C804 N802 1.356 . S
C805 C799 1.363 . S
C805 C800 1.379 . S
C805 N803 1.356 . S
N806 C798 1.356 . S
N806 H812 0.984 . S
N806 H813 0.984 . S
N807 C800 1.356 . S
N807 H810 0.984 . S
N807 H811 0.985 . S
H808 N803 0.984 . S
H809 N803 0.985 . S
H810 N807 0.984 . S
H811 N807 0.985 . S
H812 N806 0.984 . S
H813 N806 0.984 . S
H814 N802 0.984 . S
H815 N802 0.985 . S
C816 C817 1.363 . S
C816 C822 1.379 1_565 S
C816 N824 1.356 . S
C817 C816 1.363 . S
C817 C823 1.363 . S
C818 C819 1.363 . S
C818 C823 1.379 1_545 S
C818 N825 1.356 . S
C819 C818 1.363 . S
C819 C822 1.363 . S
N820 C822 1.356 . S
N820 H832 0.984 . S
N820 H833 0.985 . S
N821 C823 1.356 . S
N821 H826 0.984 . S
N821 H827 0.985 . S
C822 C816 1.379 1_545 S
C822 C819 1.363 . S
C822 N820 1.356 . S
C823 C817 1.363 . S
C823 C818 1.379 1_565 S
C823 N821 1.356 . S
N824 C816 1.356 . S
N824 H830 0.984 . S
N824 H831 0.984 . S
N825 C818 1.356 . S
N825 H828 0.984 . S
N825 H829 0.985 . S
H826 N821 0.984 . S
H827 N821 0.985 . S
H828 N825 0.984 . S
H829 N825 0.985 . S
H830 N824 0.984 . S
H831 N824 0.984 . S
H832 N820 0.984 . S
H833 N820 0.985 . S
C834 C835 1.363 . S
C834 C840 1.379 . S
C834 N842 1.356 . S
C835 C834 1.363 . S
C835 C841 1.363 . S
C836 C837 1.363 . S
C836 C841 1.379 . S
C836 N843 1.356 . S
C837 C836 1.363 . S
C837 C840 1.363 . S
N838 C840 1.356 . S
N838 H850 0.984 . S
N838 H851 0.985 . S
N839 C841 1.356 . S
N839 H844 0.984 . S
N839 H845 0.985 . S
C840 C834 1.379 . S
C840 C837 1.363 . S
C840 N838 1.356 . S
C841 C835 1.363 . S
C841 C836 1.379 . S
C841 N839 1.356 . S
N842 C834 1.356 . S
N842 H848 0.984 . S
N842 H849 0.984 . S
N843 C836 1.356 . S
N843 H846 0.984 . S
N843 H847 0.985 . S
H844 N839 0.984 . S
H845 N839 0.985 . S
H846 N843 0.984 . S
H847 N843 0.985 . S
H848 N842 0.984 . S
H849 N842 0.984 . S
H850 N838 0.984 . S
H851 N838 0.985 . S
C852 C853 1.363 . S
C852 C858 1.379 1_545 S
C852 N860 1.356 . S
C853 C852 1.363 . S
C853 C859 1.363 . S
C854 C855 1.363 . S
C854 C859 1.379 1_565 S
C854 N861 1.356 . S
C855 C854 1.363 . S
C855 C858 1.363 . S
N856 C858 1.356 . S
N856 H868 0.984 . S
N856 H869 0.985 . S
N857 C859 1.356 . S
N857 H862 0.984 . S
N857 H863 0.985 . S
C858 C852 1.379 1_565 S
C858 C855 1.363 . S
C858 N856 1.356 . S
C859 C853 1.363 . S
C859 C854 1.379 1_545 S
C859 N857 1.356 . S
N860 C852 1.356 . S
N860 H866 0.984 . S
N860 H867 0.984 . S
N861 C854 1.356 . S
N861 H864 0.984 . S
N861 H865 0.985 . S
H862 N857 0.984 . S
H863 N857 0.985 . S
H864 N861 0.984 . S
H865 N861 0.985 . S
H866 N860 0.984 . S
H867 N860 0.984 . S
H868 N856 0.984 . S
H869 N856 0.985 . S
C870 C871 1.363 . S
C870 C876 1.379 . S
C870 N878 1.356 . S
C871 C870 1.363 . S
C871 C877 1.363 . S
C872 C873 1.363 . S
C872 C877 1.379 . S
C872 N879 1.356 . S
C873 C872 1.363 . S
C873 C876 1.363 . S
N874 C876 1.356 . S
N874 H886 0.984 . S
N874 H887 0.985 . S
N875 C877 1.356 . S
N875 H880 0.984 . S
N875 H881 0.985 . S
C876 C870 1.379 . S
C876 C873 1.363 . S
C876 N874 1.356 . S
C877 C871 1.363 . S
C877 C872 1.379 . S
C877 N875 1.356 . S
N878 C870 1.356 . S
N878 H884 0.984 . S
N878 H885 0.984 . S
N879 C872 1.356 . S
N879 H882 0.984 . S
N879 H883 0.985 . S
H880 N875 0.984 . S
H881 N875 0.985 . S
H882 N879 0.984 . S
H883 N879 0.985 . S
H884 N878 0.984 . S
H885 N878 0.984 . S
H886 N874 0.984 . S
H887 N874 0.985 . S
C888 C889 1.363 . S
C888 C894 1.379 1_545 S
C888 N896 1.356 . S
C889 C888 1.363 . S
C889 C895 1.363 . S
C890 C891 1.363 . S
C890 C895 1.379 1_565 S
C890 N897 1.356 . S
C891 C890 1.363 . S
C891 C894 1.363 . S
N892 C894 1.356 . S
N892 H904 0.984 . S
N892 H905 0.985 . S
N893 C895 1.356 . S
N893 H898 0.984 . S
N893 H899 0.985 . S
C894 C888 1.379 1_565 S
C894 C891 1.363 . S
C894 N892 1.356 . S
C895 C889 1.363 . S
C895 C890 1.379 1_545 S
C895 N893 1.356 . S
N896 C888 1.356 . S
N896 H902 0.984 . S
N896 H903 0.984 . S
N897 C890 1.356 . S
N897 H900 0.984 . S
N897 H901 0.985 . S
H898 N893 0.984 . S
H899 N893 0.985 . S
H900 N897 0.984 . S
H901 N897 0.985 . S
H902 N896 0.984 . S
H903 N896 0.984 . S
H904 N892 0.984 . S
H905 N892 0.985 . S
C906 C907 1.363 . S
C906 C912 1.379 . S
C906 N914 1.356 . S
C907 C906 1.363 . S
C907 C913 1.363 . S
C908 C909 1.363 . S
C908 C913 1.379 . S
C908 N915 1.356 . S
C909 C908 1.363 . S
C909 C912 1.363 . S
N910 C912 1.356 . S
N910 H922 0.984 . S
N910 H923 0.985 . S
N911 C913 1.356 . S
N911 H916 0.984 . S
N911 H917 0.985 . S
C912 C906 1.379 . S
C912 C909 1.363 . S
C912 N910 1.356 . S
C913 C907 1.363 . S
C913 C908 1.379 . S
C913 N911 1.356 . S
N914 C906 1.356 . S
N914 H920 0.984 . S
N914 H921 0.984 . S
N915 C908 1.356 . S
N915 H918 0.984 . S
N915 H919 0.985 . S
H916 N911 0.984 . S
H917 N911 0.985 . S
H918 N915 0.984 . S
H919 N915 0.985 . S
H920 N914 0.984 . S
H921 N914 0.984 . S
H922 N910 0.984 . S
H923 N910 0.985 . S
C924 C925 1.363 . S
C924 C930 1.379 1_545 S
C924 N932 1.356 . S
C925 C924 1.363 . S
C925 C931 1.363 . S
C926 C927 1.363 . S
C926 C931 1.379 1_565 S
C926 N933 1.356 . S
C927 C926 1.363 . S
C927 C930 1.363 . S
N928 C930 1.356 . S
N928 H940 0.984 . S
N928 H941 0.985 . S
N929 C931 1.356 . S
N929 H934 0.984 . S
N929 H935 0.985 . S
C930 C924 1.379 1_565 S
C930 C927 1.363 . S
C930 N928 1.356 . S
C931 C925 1.363 . S
C931 C926 1.379 1_545 S
C931 N929 1.356 . S
N932 C924 1.356 . S
N932 H938 0.984 . S
N932 H939 0.984 . S
N933 C926 1.356 . S
N933 H936 0.984 . S
N933 H937 0.985 . S
H934 N929 0.984 . S
H935 N929 0.985 . S
H936 N933 0.984 . S
H937 N933 0.985 . S
H938 N932 0.984 . S
H939 N932 0.984 . S
H940 N928 0.984 . S
H941 N928 0.985 . S
C942 C943 1.363 . S
C942 C948 1.379 . S
C942 N950 1.356 . S
C943 C942 1.363 . S
C943 C949 1.363 . S
C944 C945 1.363 . S
C944 C949 1.379 . S
C944 N951 1.356 . S
C945 C944 1.363 . S
C945 C948 1.363 . S
N946 C948 1.356 . S
N946 H958 0.984 . S
N946 H959 0.985 . S
N947 C949 1.356 . S
N947 H952 0.984 . S
N947 H953 0.985 . S
C948 C942 1.379 . S
C948 C945 1.363 . S
C948 N946 1.356 . S
C949 C943 1.363 . S
C949 C944 1.379 . S
C949 N947 1.356 . S
N950 C942 1.356 . S
N950 H956 0.984 . S
N950 H957 0.984 . S
N951 C944 1.356 . S
N951 H954 0.984 . S
N951 H955 0.985 . S
H952 N947 0.984 . S
H953 N947 0.985 . S
H954 N951 0.984 . S
H955 N951 0.985 . S
H956 N950 0.984 . S
H957 N950 0.984 . S
H958 N946 0.984 . S
H959 N946 0.985 . S
C960 C961 1.363 . S
C960 C966 1.379 1_554 S
C960 N968 1.356 . S
C961 C960 1.363 . S
C961 C967 1.363 . S
C962 C963 1.363 . S
C962 C967 1.379 1_556 S
C962 N969 1.356 . S
C963 C962 1.363 . S
C963 C966 1.363 . S
N964 C966 1.356 . S
N964 H976 0.984 . S
N964 H977 0.985 . S
N965 C967 1.356 . S
N965 H970 0.984 . S
N965 H971 0.985 . S
C966 C960 1.379 1_556 S
C966 C963 1.363 . S
C966 N964 1.356 . S
C967 C961 1.363 . S
C967 C962 1.379 1_554 S
C967 N965 1.356 . S
N968 C960 1.356 . S
N968 H974 0.984 . S
N968 H975 0.984 . S
N969 C962 1.356 . S
N969 H972 0.984 . S
N969 H973 0.985 . S
H970 N965 0.984 . S
H971 N965 0.985 . S
H972 N969 0.984 . S
H973 N969 0.985 . S
H974 N968 0.984 . S
H975 N968 0.984 . S
H976 N964 0.984 . S
H977 N964 0.985 . S
C978 C979 1.363 . S
C978 C984 1.379 1_554 S
C978 N986 1.356 . S
C979 C978 1.363 . S
C979 C985 1.363 . S
C980 C981 1.363 . S
C980 C985 1.379 1_556 S
C980 N987 1.356 . S
C981 C980 1.363 . S
C981 C984 1.363 . S
N982 C984 1.356 . S
N982 H994 0.984 . S
N982 H995 0.985 . S
N983 C985 1.356 . S
N983 H988 0.984 . S
N983 H989 0.985 . S
C984 C978 1.379 1_556 S
C984 C981 1.363 . S
C984 N982 1.356 . S
C985 C979 1.363 . S
C985 C980 1.379 1_554 S
C985 N983 1.356 . S
N986 C978 1.356 . S
N986 H992 0.984 . S
N986 H993 0.984 . S
N987 C980 1.356 . S
N987 H990 0.984 . S
N987 H991 0.985 . S
H988 N983 0.984 . S
H989 N983 0.985 . S
H990 N987 0.984 . S
H991 N987 0.985 . S
H992 N986 0.984 . S
H993 N986 0.984 . S
H994 N982 0.984 . S
H995 N982 0.985 . S
C996 C997 1.363 . S
C996 C1002 1.379 . S
C996 N1004 1.356 . S
C997 C996 1.363 . S
C997 C1003 1.363 . S
C998 C999 1.363 . S
C998 C1003 1.379 . S
C998 N1005 1.356 . S
C999 C998 1.363 . S
C999 C1002 1.363 . S
N1000 C1002 1.356 . S
N1000 H1012 0.984 . S
N1000 H1013 0.985 . S
N1001 C1003 1.356 . S
N1001 H1006 0.984 . S
N1001 H1007 0.985 . S
C1002 C996 1.379 . S
C1002 C999 1.363 . S
C1002 N1000 1.356 . S
C1003 C997 1.363 . S
C1003 C998 1.379 . S
C1003 N1001 1.356 . S
N1004 C996 1.356 . S
N1004 H1010 0.984 . S
N1004 H1011 0.984 . S
N1005 C998 1.356 . S
N1005 H1008 0.984 . S
N1005 H1009 0.985 . S
H1006 N1001 0.984 . S
H1007 N1001 0.985 . S
H1008 N1005 0.984 . S
H1009 N1005 0.985 . S
H1010 N1004 0.984 . S
H1011 N1004 0.984 . S
H1012 N1000 0.984 . S
H1013 N1000 0.985 . S
C1014 C1015 1.363 . S
C1014 C1020 1.379 1_554 S
C1014 N1022 1.356 . S
C1015 C1014 1.363 . S
C1015 C1021 1.363 . S
C1016 C1017 1.363 . S
C1016 C1021 1.379 1_556 S
C1016 N1023 1.356 . S
C1017 C1016 1.363 . S
C1017 C1020 1.363 . S
N1018 C1020 1.356 . S
N1018 H1030 0.984 . S
N1018 H1031 0.985 . S
N1019 C1021 1.356 . S
N1019 H1024 0.984 . S
N1019 H1025 0.985 . S
C1020 C1014 1.379 1_556 S
C1020 C1017 1.363 . S
C1020 N1018 1.356 . S
C1021 C1015 1.363 . S
C1021 C1016 1.379 1_554 S
C1021 N1019 1.356 . S
N1022 C1014 1.356 . S
N1022 H1028 0.984 . S
N1022 H1029 0.984 . S
N1023 C1016 1.356 . S
N1023 H1026 0.984 . S
N1023 H1027 0.985 . S
H1024 N1019 0.984 . S
H1025 N1019 0.985 . S
H1026 N1023 0.984 . S
H1027 N1023 0.985 . S
H1028 N1022 0.984 . S
H1029 N1022 0.984 . S
H1030 N1018 0.984 . S
H1031 N1018 0.985 . S
C1032 C1033 1.363 . S
C1032 C1038 1.379 . S
C1032 N1040 1.356 . S
C1033 C1032 1.363 . S
C1033 C1039 1.363 . S
C1034 C1035 1.363 . S
C1034 C1039 1.379 . S
C1034 N1041 1.356 . S
C1035 C1034 1.363 . S
C1035 C1038 1.363 . S
N1036 C1038 1.356 . S
N1036 H1048 0.984 . S
N1036 H1049 0.985 . S
N1037 C1039 1.356 . S
N1037 H1042 0.984 . S
N1037 H1043 0.985 . S
C1038 C1032 1.379 . S
C1038 C1035 1.363 . S
C1038 N1036 1.356 . S
C1039 C1033 1.363 . S
C1039 C1034 1.379 . S
C1039 N1037 1.356 . S
N1040 C1032 1.356 . S
N1040 H1046 0.984 . S
N1040 H1047 0.984 . S
N1041 C1034 1.356 . S
N1041 H1044 0.984 . S
N1041 H1045 0.985 . S
H1042 N1037 0.984 . S
H1043 N1037 0.985 . S
H1044 N1041 0.984 . S
H1045 N1041 0.985 . S
H1046 N1040 0.984 . S
H1047 N1040 0.984 . S
H1048 N1036 0.984 . S
H1049 N1036 0.985 . S
C1050 C1051 1.363 . S
C1050 C1056 1.379 1_554 S
C1050 N1058 1.356 . S
C1051 C1050 1.363 . S
C1051 C1057 1.363 . S
C1052 C1053 1.363 . S
C1052 C1057 1.379 1_556 S
C1052 N1059 1.356 . S
C1053 C1052 1.363 . S
C1053 C1056 1.363 . S
N1054 C1056 1.356 . S
N1054 H1066 0.984 . S
N1054 H1067 0.985 . S
N1055 C1057 1.356 . S
N1055 H1060 0.984 . S
N1055 H1061 0.985 . S
C1056 C1050 1.379 1_556 S
C1056 C1053 1.363 . S
C1056 N1054 1.356 . S
C1057 C1051 1.363 . S
C1057 C1052 1.379 1_554 S
C1057 N1055 1.356 . S
N1058 C1050 1.356 . S
N1058 H1064 0.984 . S
N1058 H1065 0.984 . S
N1059 C1052 1.356 . S
N1059 H1062 0.984 . S
N1059 H1063 0.985 . S
H1060 N1055 0.984 . S
H1061 N1055 0.985 . S
H1062 N1059 0.984 . S
H1063 N1059 0.985 . S
H1064 N1058 0.984 . S
H1065 N1058 0.984 . S
H1066 N1054 0.984 . S
H1067 N1054 0.985 . S
C1068 C1069 1.363 . S
C1068 C1074 1.379 . S
C1068 N1076 1.356 . S
C1069 C1068 1.363 . S
C1069 C1075 1.363 . S
C1070 C1071 1.363 . S
C1070 C1075 1.379 . S
C1070 N1077 1.356 . S
C1071 C1070 1.363 . S
C1071 C1074 1.363 . S
N1072 C1074 1.356 . S
N1072 H1084 0.984 . S
N1072 H1085 0.985 . S
N1073 C1075 1.356 . S
N1073 H1078 0.984 . S
N1073 H1079 0.985 . S
C1074 C1068 1.379 . S
C1074 C1071 1.363 . S
C1074 N1072 1.356 . S
C1075 C1069 1.363 . S
C1075 C1070 1.379 . S
C1075 N1073 1.356 . S
N1076 C1068 1.356 . S
N1076 H1082 0.984 . S
N1076 H1083 0.984 . S
N1077 C1070 1.356 . S
N1077 H1080 0.984 . S
N1077 H1081 0.985 . S
H1078 N1073 0.984 . S
H1079 N1073 0.985 . S
H1080 N1077 0.984 . S
H1081 N1077 0.985 . S
H1082 N1076 0.984 . S
H1083 N1076 0.984 . S
H1084 N1072 0.984 . S
H1085 N1072 0.985 . S
C1086 C1087 1.363 . S
C1086 C1092 1.379 . S
C1086 N1094 1.356 . S
C1087 C1086 1.363 . S
C1087 C1093 1.363 . S
C1088 C1089 1.363 . S
C1088 C1093 1.379 . S
C1088 N1095 1.356 . S
C1089 C1088 1.363 . S
C1089 C1092 1.363 . S
N1090 C1092 1.356 . S
N1090 H1102 0.984 . S
N1090 H1103 0.985 . S
N1091 C1093 1.356 . S
N1091 H1096 0.984 . S
N1091 H1097 0.985 . S
C1092 C1086 1.379 . S
C1092 C1089 1.363 . S
C1092 N1090 1.356 . S
C1093 C1087 1.363 . S
C1093 C1088 1.379 . S
C1093 N1091 1.356 . S
N1094 C1086 1.356 . S
N1094 H1100 0.984 . S
N1094 H1101 0.984 . S
N1095 C1088 1.356 . S
N1095 H1098 0.984 . S
N1095 H1099 0.985 . S
H1096 N1091 0.984 . S
H1097 N1091 0.985 . S
H1098 N1095 0.984 . S
H1099 N1095 0.985 . S
H1100 N1094 0.984 . S
H1101 N1094 0.984 . S
H1102 N1090 0.984 . S
H1103 N1090 0.985 . S
C1104 C1105 1.363 . S
C1104 C1110 1.379 . S
C1104 N1112 1.356 . S
C1105 C1104 1.363 . S
C1105 C1111 1.363 . S
C1106 C1107 1.363 . S
C1106 C1111 1.379 . S
C1106 N1113 1.356 . S
C1107 C1106 1.363 . S
C1107 C1110 1.363 . S
N1108 C1110 1.356 . S
N1108 H1120 0.984 . S
N1108 H1121 0.985 . S
N1109 C1111 1.356 . S
N1109 H1114 0.984 . S
N1109 H1115 0.985 . S
C1110 C1104 1.379 . S
C1110 C1107 1.363 . S
C1110 N1108 1.356 . S
C1111 C1105 1.363 . S
C1111 C1106 1.379 . S
C1111 N1109 1.356 . S
N1112 C1104 1.356 . S
N1112 H1118 0.984 . S
N1112 H1119 0.984 . S
N1113 C1106 1.356 . S
N1113 H1116 0.984 . S
N1113 H1117 0.985 . S
H1114 N1109 0.984 . S
H1115 N1109 0.985 . S
H1116 N1113 0.984 . S
H1117 N1113 0.985 . S
H1118 N1112 0.984 . S
H1119 N1112 0.984 . S
H1120 N1108 0.984 . S
H1121 N1108 0.985 . S
C1122 C1123 1.363 . S
C1122 C1128 1.379 . S
C1122 N1130 1.356 . S
C1123 C1122 1.363 . S
C1123 C1129 1.363 . S
C1124 C1125 1.363 . S
C1124 C1129 1.379 . S
C1124 N1131 1.356 . S
C1125 C1124 1.363 . S
C1125 C1128 1.363 . S
N1126 C1128 1.356 . S
N1126 H1138 0.984 . S
N1126 H1139 0.985 . S
N1127 C1129 1.356 . S
N1127 H1132 0.984 . S
N1127 H1133 0.985 . S
C1128 C1122 1.379 . S
C1128 C1125 1.363 . S
C1128 N1126 1.356 . S
C1129 C1123 1.363 . S
C1129 C1124 1.379 . S
C1129 N1127 1.356 . S
N1130 C1122 1.356 . S
N1130 H1136 0.984 . S
N1130 H1137 0.984 . S
N1131 C1124 1.356 . S
N1131 H1134 0.984 . S
N1131 H1135 0.985 . S
H1132 N1127 0.984 . S
H1133 N1127 0.985 . S
H1134 N1131 0.984 . S
H1135 N1131 0.985 . S
H1136 N1130 0.984 . S
H1137 N1130 0.984 . S
H1138 N1126 0.984 . S
H1139 N1126 0.985 . S
C1140 C1141 1.363 . S
C1140 C1146 1.379 . S
C1140 N1148 1.356 . S
C1141 C1140 1.363 . S
C1141 C1147 1.363 . S
C1142 C1143 1.363 . S
C1142 C1147 1.379 . S
C1142 N1149 1.356 . S
C1143 C1142 1.363 . S
C1143 C1146 1.363 . S
N1144 C1146 1.356 . S
N1144 H1156 0.984 . S
N1144 H1157 0.985 . S
N1145 C1147 1.356 . S
N1145 H1150 0.984 . S
N1145 H1151 0.985 . S
C1146 C1140 1.379 . S
C1146 C1143 1.363 . S
C1146 N1144 1.356 . S
C1147 C1141 1.363 . S
C1147 C1142 1.379 . S
C1147 N1145 1.356 . S
N1148 C1140 1.356 . S
N1148 H1154 0.984 . S
N1148 H1155 0.984 . S
N1149 C1142 1.356 . S
N1149 H1152 0.984 . S
N1149 H1153 0.985 . S
H1150 N1145 0.984 . S
H1151 N1145 0.985 . S
H1152 N1149 0.984 . S
H1153 N1149 0.985 . S
H1154 N1148 0.984 . S
H1155 N1148 0.984 . S
H1156 N1144 0.984 . S
H1157 N1144 0.985 . S
C1158 C1159 1.363 . S
C1158 C1164 1.379 . S
C1158 N1166 1.356 . S
C1159 C1158 1.363 . S
C1159 C1165 1.363 . S
C1160 C1161 1.363 . S
C1160 C1165 1.379 . S
C1160 N1167 1.356 . S
C1161 C1160 1.363 . S
C1161 C1164 1.363 . S
N1162 C1164 1.356 . S
N1162 H1174 0.984 . S
N1162 H1175 0.985 . S
N1163 C1165 1.356 . S
N1163 H1168 0.984 . S
N1163 H1169 0.985 . S
C1164 C1158 1.379 . S
C1164 C1161 1.363 . S
C1164 N1162 1.356 . S
C1165 C1159 1.363 . S
C1165 C1160 1.379 . S
C1165 N1163 1.356 . S
N1166 C1158 1.356 . S
N1166 H1172 0.984 . S
N1166 H1173 0.984 . S
N1167 C1160 1.356 . S
N1167 H1170 0.984 . S
N1167 H1171 0.985 . S
H1168 N1163 0.984 . S
H1169 N1163 0.985 . S
H1170 N1167 0.984 . S
H1171 N1167 0.985 . S
H1172 N1166 0.984 . S
H1173 N1166 0.984 . S
H1174 N1162 0.984 . S
H1175 N1162 0.985 . S
C1176 C1177 1.363 . S
C1176 C1182 1.379 . S
C1176 N1184 1.356 . S
C1177 C1176 1.363 . S
C1177 C1183 1.363 . S
C1178 C1179 1.363 . S
C1178 C1183 1.379 . S
C1178 N1185 1.356 . S
C1179 C1178 1.363 . S
C1179 C1182 1.363 . S
N1180 C1182 1.356 . S
N1180 H1192 0.984 . S
N1180 H1193 0.985 . S
N1181 C1183 1.356 . S
N1181 H1186 0.984 . S
N1181 H1187 0.985 . S
C1182 C1176 1.379 . S
C1182 C1179 1.363 . S
C1182 N1180 1.356 . S
C1183 C1177 1.363 . S
C1183 C1178 1.379 . S
C1183 N1181 1.356 . S
N1184 C1176 1.356 . S
N1184 H1190 0.984 . S
N1184 H1191 0.984 . S
N1185 C1178 1.356 . S
N1185 H1188 0.984 . S
N1185 H1189 0.985 . S
H1186 N1181 0.984 . S
H1187 N1181 0.985 . S
H1188 N1185 0.984 . S
H1189 N1185 0.985 . S
H1190 N1184 0.984 . S
H1191 N1184 0.984 . S
H1192 N1180 0.984 . S
H1193 N1180 0.985 . S
C1194 C1195 1.363 . S
C1194 C1200 1.379 . S
C1194 N1202 1.356 . S
C1195 C1194 1.363 . S
C1195 C1201 1.363 . S
C1196 C1197 1.363 . S
C1196 C1201 1.379 . S
C1196 N1203 1.356 . S
C1197 C1196 1.363 . S
C1197 C1200 1.363 . S
N1198 C1200 1.356 . S
N1198 H1210 0.984 . S
N1198 H1211 0.985 . S
N1199 C1201 1.356 . S
N1199 H1204 0.984 . S
N1199 H1205 0.985 . S
C1200 C1194 1.379 . S
C1200 C1197 1.363 . S
C1200 N1198 1.356 . S
C1201 C1195 1.363 . S
C1201 C1196 1.379 . S
C1201 N1199 1.356 . S
N1202 C1194 1.356 . S
N1202 H1208 0.984 . S
N1202 H1209 0.984 . S
N1203 C1196 1.356 . S
N1203 H1206 0.984 . S
N1203 H1207 0.985 . S
H1204 N1199 0.984 . S
H1205 N1199 0.985 . S
H1206 N1203 0.984 . S
H1207 N1203 0.985 . S
H1208 N1202 0.984 . S
H1209 N1202 0.984 . S
H1210 N1198 0.984 . S
H1211 N1198 0.985 . S
C1212 C1213 1.363 . S
C1212 C1218 1.379 . S
C1212 N1220 1.356 . S
C1213 C1212 1.363 . S
C1213 C1219 1.363 . S
C1214 C1215 1.363 . S
C1214 C1219 1.379 . S
C1214 N1221 1.356 . S
C1215 C1214 1.363 . S
C1215 C1218 1.363 . S
N1216 C1218 1.356 . S
N1216 H1228 0.984 . S
N1216 H1229 0.985 . S
N1217 C1219 1.356 . S
N1217 H1222 0.984 . S
N1217 H1223 0.985 . S
C1218 C1212 1.379 . S
C1218 C1215 1.363 . S
C1218 N1216 1.356 . S
C1219 C1213 1.363 . S
C1219 C1214 1.379 . S
C1219 N1217 1.356 . S
N1220 C1212 1.356 . S
N1220 H1226 0.984 . S
N1220 H1227 0.984 . S
N1221 C1214 1.356 . S
N1221 H1224 0.984 . S
N1221 H1225 0.985 . S
H1222 N1217 0.984 . S
H1223 N1217 0.985 . S
H1224 N1221 0.984 . S
H1225 N1221 0.985 . S
H1226 N1220 0.984 . S
H1227 N1220 0.984 . S
H1228 N1216 0.984 . S
H1229 N1216 0.985 . S
C1230 C1231 1.363 . S
C1230 C1236 1.379 . S
C1230 N1238 1.356 . S
C1231 C1230 1.363 . S
C1231 C1237 1.363 . S
C1232 C1233 1.363 . S
C1232 C1237 1.379 . S
C1232 N1239 1.356 . S
C1233 C1232 1.363 . S
C1233 C1236 1.363 . S
N1234 C1236 1.356 . S
N1234 H1246 0.984 . S
N1234 H1247 0.985 . S
N1235 C1237 1.356 . S
N1235 H1240 0.984 . S
N1235 H1241 0.985 . S
C1236 C1230 1.379 . S
C1236 C1233 1.363 . S
C1236 N1234 1.356 . S
C1237 C1231 1.363 . S
C1237 C1232 1.379 . S
C1237 N1235 1.356 . S
N1238 C1230 1.356 . S
N1238 H1244 0.984 . S
N1238 H1245 0.984 . S
N1239 C1232 1.356 . S
N1239 H1242 0.984 . S
N1239 H1243 0.985 . S
H1240 N1235 0.984 . S
H1241 N1235 0.985 . S
H1242 N1239 0.984 . S
H1243 N1239 0.985 . S
H1244 N1238 0.984 . S
H1245 N1238 0.984 . S
H1246 N1234 0.984 . S
H1247 N1234 0.985 . S
C1248 C1249 1.363 . S
C1248 C1254 1.379 . S
C1248 N1256 1.356 . S
C1249 C1248 1.363 . S
C1249 C1255 1.363 . S
C1250 C1251 1.363 . S
C1250 C1255 1.379 . S
C1250 N1257 1.356 . S
C1251 C1250 1.363 . S
C1251 C1254 1.363 . S
N1252 C1254 1.356 . S
N1252 H1264 0.984 . S
N1252 H1265 0.985 . S
N1253 C1255 1.356 . S
N1253 H1258 0.984 . S
N1253 H1259 0.985 . S
C1254 C1248 1.379 . S
C1254 C1251 1.363 . S
C1254 N1252 1.356 . S
C1255 C1249 1.363 . S
C1255 C1250 1.379 . S
C1255 N1253 1.356 . S
N1256 C1248 1.356 . S
N1256 H1262 0.984 . S
N1256 H1263 0.984 . S
N1257 C1250 1.356 . S
N1257 H1260 0.984 . S
N1257 H1261 0.985 . S
H1258 N1253 0.984 . S
H1259 N1253 0.985 . S
H1260 N1257 0.984 . S
H1261 N1257 0.985 . S
H1262 N1256 0.984 . S
H1263 N1256 0.984 . S
H1264 N1252 0.984 . S
H1265 N1252 0.985 . S
C1266 C1267 1.363 . S
C1266 C1272 1.379 . S
C1266 N1274 1.356 . S
C1267 C1266 1.363 . S
C1267 C1273 1.363 . S
C1268 C1269 1.363 . S
C1268 C1273 1.379 . S
C1268 N1275 1.356 . S
C1269 C1268 1.363 . S
C1269 C1272 1.363 . S
N1270 C1272 1.356 . S
N1270 H1282 0.984 . S
N1270 H1283 0.985 . S
N1271 C1273 1.356 . S
N1271 H1276 0.984 . S
N1271 H1277 0.985 . S
C1272 C1266 1.379 . S
C1272 C1269 1.363 . S
C1272 N1270 1.356 . S
C1273 C1267 1.363 . S
C1273 C1268 1.379 . S
C1273 N1271 1.356 . S
N1274 C1266 1.356 . S
N1274 H1280 0.984 . S
N1274 H1281 0.984 . S
N1275 C1268 1.356 . S
N1275 H1278 0.984 . S
N1275 H1279 0.985 . S
H1276 N1271 0.984 . S
H1277 N1271 0.985 . S
H1278 N1275 0.984 . S
H1279 N1275 0.985 . S
H1280 N1274 0.984 . S
H1281 N1274 0.984 . S
H1282 N1270 0.984 . S
H1283 N1270 0.985 . S
C1284 C1285 1.363 . S
C1284 C1290 1.379 . S
C1284 N1292 1.356 . S
C1285 C1284 1.363 . S
C1285 C1291 1.363 . S
C1286 C1287 1.363 . S
C1286 C1291 1.379 . S
C1286 N1293 1.356 . S
C1287 C1286 1.363 . S
C1287 C1290 1.363 . S
N1288 C1290 1.356 . S
N1288 H1300 0.984 . S
N1288 H1301 0.985 . S
N1289 C1291 1.356 . S
N1289 H1294 0.984 . S
N1289 H1295 0.985 . S
C1290 C1284 1.379 . S
C1290 C1287 1.363 . S
C1290 N1288 1.356 . S
C1291 C1285 1.363 . S
C1291 C1286 1.379 . S
C1291 N1289 1.356 . S
N1292 C1284 1.356 . S
N1292 H1298 0.984 . S
N1292 H1299 0.984 . S
N1293 C1286 1.356 . S
N1293 H1296 0.984 . S
N1293 H1297 0.985 . S
H1294 N1289 0.984 . S
H1295 N1289 0.985 . S
H1296 N1293 0.984 . S
H1297 N1293 0.985 . S
H1298 N1292 0.984 . S
H1299 N1292 0.984 . S
H1300 N1288 0.984 . S
H1301 N1288 0.985 . S
C1302 C1303 1.363 . S
C1302 C1308 1.379 . S
C1302 N1310 1.356 . S
C1303 C1302 1.363 . S
C1303 C1309 1.363 . S
C1304 C1305 1.363 . S
C1304 C1309 1.379 . S
C1304 N1311 1.356 . S
C1305 C1304 1.363 . S
C1305 C1308 1.363 . S
N1306 C1308 1.356 . S
N1306 H1318 0.984 . S
N1306 H1319 0.985 . S
N1307 C1309 1.356 . S
N1307 H1312 0.984 . S
N1307 H1313 0.985 . S
C1308 C1302 1.379 . S
C1308 C1305 1.363 . S
C1308 N1306 1.356 . S
C1309 C1303 1.363 . S
C1309 C1304 1.379 . S
C1309 N1307 1.356 . S
N1310 C1302 1.356 . S
N1310 H1316 0.984 . S
N1310 H1317 0.984 . S
N1311 C1304 1.356 . S
N1311 H1314 0.984 . S
N1311 H1315 0.985 . S
H1312 N1307 0.984 . S
H1313 N1307 0.985 . S
H1314 N1311 0.984 . S
H1315 N1311 0.985 . S
H1316 N1310 0.984 . S
H1317 N1310 0.984 . S
H1318 N1306 0.984 . S
H1319 N1306 0.985 . S
C1320 C1321 1.363 . S
C1320 C1326 1.379 . S
C1320 N1328 1.356 . S
C1321 C1320 1.363 . S
C1321 C1327 1.363 . S
C1322 C1323 1.363 . S
C1322 C1327 1.379 . S
C1322 N1329 1.356 . S
C1323 C1322 1.363 . S
C1323 C1326 1.363 . S
N1324 C1326 1.356 . S
N1324 H1336 0.984 . S
N1324 H1337 0.985 . S
N1325 C1327 1.356 . S
N1325 H1330 0.984 . S
N1325 H1331 0.985 . S
C1326 C1320 1.379 . S
C1326 C1323 1.363 . S
C1326 N1324 1.356 . S
C1327 C1321 1.363 . S
C1327 C1322 1.379 . S
C1327 N1325 1.356 . S
N1328 C1320 1.356 . S
N1328 H1334 0.984 . S
N1328 H1335 0.984 . S
N1329 C1322 1.356 . S
N1329 H1332 0.984 . S
N1329 H1333 0.985 . S
H1330 N1325 0.984 . S
H1331 N1325 0.985 . S
H1332 N1329 0.984 . S
H1333 N1329 0.985 . S
H1334 N1328 0.984 . S
H1335 N1328 0.984 . S
H1336 N1324 0.984 . S
H1337 N1324 0.985 . S
C1338 C1339 1.363 . S
C1338 C1344 1.379 . S
C1338 N1346 1.356 . S
C1339 C1338 1.363 . S
C1339 C1345 1.363 . S
C1340 C1341 1.363 . S
C1340 C1345 1.379 . S
C1340 N1347 1.356 . S
C1341 C1340 1.363 . S
C1341 C1344 1.363 . S
N1342 C1344 1.356 . S
N1342 H1354 0.984 . S
N1342 H1355 0.985 . S
N1343 C1345 1.356 . S
N1343 H1348 0.984 . S
N1343 H1349 0.985 . S
C1344 C1338 1.379 . S
C1344 C1341 1.363 . S
C1344 N1342 1.356 . S
C1345 C1339 1.363 . S
C1345 C1340 1.379 . S
C1345 N1343 1.356 . S
N1346 C1338 1.356 . S
N1346 H1352 0.984 . S
N1346 H1353 0.984 . S
N1347 C1340 1.356 . S
N1347 H1350 0.984 . S
N1347 H1351 0.985 . S
H1348 N1343 0.984 . S
H1349 N1343 0.985 . S
H1350 N1347 0.984 . S
H1351 N1347 0.985 . S
H1352 N1346 0.984 . S
H1353 N1346 0.984 . S
H1354 N1342 0.984 . S
H1355 N1342 0.985 . S
C1356 C1357 1.363 . S
C1356 C1362 1.379 . S
C1356 N1364 1.356 . S
C1357 C1356 1.363 . S
C1357 C1363 1.363 . S
C1358 C1359 1.363 . S
C1358 C1363 1.379 . S
C1358 N1365 1.356 . S
C1359 C1358 1.363 . S
C1359 C1362 1.363 . S
N1360 C1362 1.356 . S
N1360 H1372 0.984 . S
N1360 H1373 0.985 . S
N1361 C1363 1.356 . S
N1361 H1366 0.984 . S
N1361 H1367 0.985 . S
C1362 C1356 1.379 . S
C1362 C1359 1.363 . S
C1362 N1360 1.356 . S
C1363 C1357 1.363 . S
C1363 C1358 1.379 . S
C1363 N1361 1.356 . S
N1364 C1356 1.356 . S
N1364 H1370 0.984 . S
N1364 H1371 0.984 . S
N1365 C1358 1.356 . S
N1365 H1368 0.984 . S
N1365 H1369 0.985 . S
H1366 N1361 0.984 . S
H1367 N1361 0.985 . S
H1368 N1365 0.984 . S
H1369 N1365 0.985 . S
H1370 N1364 0.984 . S
H1371 N1364 0.984 . S
H1372 N1360 0.984 . S
H1373 N1360 0.985 . S
C1374 C1375 1.363 . S
C1374 C1380 1.379 . S
C1374 N1382 1.356 . S
C1375 C1374 1.363 . S
C1375 C1381 1.363 . S
C1376 C1377 1.363 . S
C1376 C1381 1.379 . S
C1376 N1383 1.356 . S
C1377 C1376 1.363 . S
C1377 C1380 1.363 . S
N1378 C1380 1.356 . S
N1378 H1390 0.984 . S
N1378 H1391 0.985 . S
N1379 C1381 1.356 . S
N1379 H1384 0.984 . S
N1379 H1385 0.985 . S
C1380 C1374 1.379 . S
C1380 C1377 1.363 . S
C1380 N1378 1.356 . S
C1381 C1375 1.363 . S
C1381 C1376 1.379 . S
C1381 N1379 1.356 . S
N1382 C1374 1.356 . S
N1382 H1388 0.984 . S
N1382 H1389 0.984 . S
N1383 C1376 1.356 . S
N1383 H1386 0.984 . S
N1383 H1387 0.985 . S
H1384 N1379 0.984 . S
H1385 N1379 0.985 . S
H1386 N1383 0.984 . S
H1387 N1383 0.985 . S
H1388 N1382 0.984 . S
H1389 N1382 0.984 . S
H1390 N1378 0.984 . S
H1391 N1378 0.985 . S
C1392 C1393 1.363 . S
C1392 C1398 1.379 . S
C1392 N1400 1.356 . S
C1393 C1392 1.363 . S
C1393 C1399 1.363 . S
C1394 C1395 1.363 . S
C1394 C1399 1.379 . S
C1394 N1401 1.356 . S
C1395 C1394 1.363 . S
C1395 C1398 1.363 . S
N1396 C1398 1.356 . S
N1396 H1408 0.984 . S
N1396 H1409 0.985 . S
N1397 C1399 1.356 . S
N1397 H1402 0.984 . S
N1397 H1403 0.985 . S
C1398 C1392 1.379 . S
C1398 C1395 1.363 . S
C1398 N1396 1.356 . S
C1399 C1393 1.363 . S
C1399 C1394 1.379 . S
C1399 N1397 1.356 . S
N1400 C1392 1.356 . S
N1400 H1406 0.984 . S
N1400 H1407 0.984 . S
N1401 C1394 1.356 . S
N1401 H1404 0.984 . S
N1401 H1405 0.985 . S
H1402 N1397 0.984 . S
H1403 N1397 0.985 . S
H1404 N1401 0.984 . S
H1405 N1401 0.985 . S
H1406 N1400 0.984 . S
H1407 N1400 0.984 . S
H1408 N1396 0.984 . S
H1409 N1396 0.985 . S
C1410 C1411 1.363 . S
C1410 C1416 1.379 . S
C1410 N1418 1.356 . S
C1411 C1410 1.363 . S
C1411 C1417 1.363 . S
C1412 C1413 1.363 . S
C1412 C1417 1.379 . S
C1412 N1419 1.356 . S
C1413 C1412 1.363 . S
C1413 C1416 1.363 . S
N1414 C1416 1.356 . S
N1414 H1426 0.984 . S
N1414 H1427 0.985 . S
N1415 C1417 1.356 . S
N1415 H1420 0.984 . S
N1415 H1421 0.985 . S
C1416 C1410 1.379 . S
C1416 C1413 1.363 . S
C1416 N1414 1.356 . S
C1417 C1411 1.363 . S
C1417 C1412 1.379 . S
C1417 N1415 1.356 . S
N1418 C1410 1.356 . S
N1418 H1424 0.984 . S
N1418 H1425 0.984 . S
N1419 C1412 1.356 . S
N1419 H1422 0.984 . S
N1419 H1423 0.985 . S
H1420 N1415 0.984 . S
H1421 N1415 0.985 . S
H1422 N1419 0.984 . S
H1423 N1419 0.985 . S
H1424 N1418 0.984 . S
H1425 N1418 0.984 . S
H1426 N1414 0.984 . S
H1427 N1414 0.985 . S
C1428 C1429 1.363 . S
C1428 C1434 1.379 . S
C1428 N1436 1.356 . S
C1429 C1428 1.363 . S
C1429 C1435 1.363 . S
C1430 C1431 1.363 . S
C1430 C1435 1.379 . S
C1430 N1437 1.356 . S
C1431 C1430 1.363 . S
C1431 C1434 1.363 . S
N1432 C1434 1.356 . S
N1432 H1444 0.984 . S
N1432 H1445 0.985 . S
N1433 C1435 1.356 . S
N1433 H1438 0.984 . S
N1433 H1439 0.985 . S
C1434 C1428 1.379 . S
C1434 C1431 1.363 . S
C1434 N1432 1.356 . S
C1435 C1429 1.363 . S
C1435 C1430 1.379 . S
C1435 N1433 1.356 . S
N1436 C1428 1.356 . S
N1436 H1442 0.984 . S
N1436 H1443 0.984 . S
N1437 C1430 1.356 . S
N1437 H1440 0.984 . S
N1437 H1441 0.985 . S
H1438 N1433 0.984 . S
H1439 N1433 0.985 . S
H1440 N1437 0.984 . S
H1441 N1437 0.985 . S
H1442 N1436 0.984 . S
H1443 N1436 0.984 . S
H1444 N1432 0.984 . S
H1445 N1432 0.985 . S
C1446 C1447 1.363 . S
C1446 C1452 1.379 . S
C1446 N1454 1.356 . S
C1447 C1446 1.363 . S
C1447 C1453 1.363 . S
C1448 C1449 1.363 . S
C1448 C1453 1.379 . S
C1448 N1455 1.356 . S
C1449 C1448 1.363 . S
C1449 C1452 1.363 . S
N1450 C1452 1.356 . S
N1450 H1462 0.984 . S
N1450 H1463 0.985 . S
N1451 C1453 1.356 . S
N1451 H1456 0.984 . S
N1451 H1457 0.985 . S
C1452 C1446 1.379 . S
C1452 C1449 1.363 . S
C1452 N1450 1.356 . S
C1453 C1447 1.363 . S
C1453 C1448 1.379 . S
C1453 N1451 1.356 . S
N1454 C1446 1.356 . S
N1454 H1460 0.984 . S
N1454 H1461 0.984 . S
N1455 C1448 1.356 . S
N1455 H1458 0.984 . S
N1455 H1459 0.985 . S
H1456 N1451 0.984 . S
H1457 N1451 0.985 . S
H1458 N1455 0.984 . S
H1459 N1455 0.985 . S
H1460 N1454 0.984 . S
H1461 N1454 0.984 . S
H1462 N1450 0.984 . S
H1463 N1450 0.985 . S
C1464 C1465 1.363 . S
C1464 C1470 1.379 . S
C1464 N1472 1.356 . S
C1465 C1464 1.363 . S
C1465 C1471 1.363 . S
C1466 C1467 1.363 . S
C1466 C1471 1.379 . S
C1466 N1473 1.356 . S
C1467 C1466 1.363 . S
C1467 C1470 1.363 . S
N1468 C1470 1.356 . S
N1468 H1480 0.984 . S
N1468 H1481 0.985 . S
N1469 C1471 1.356 . S
N1469 H1474 0.984 . S
N1469 H1475 0.985 . S
C1470 C1464 1.379 . S
C1470 C1467 1.363 . S
C1470 N1468 1.356 . S
C1471 C1465 1.363 . S
C1471 C1466 1.379 . S
C1471 N1469 1.356 . S
N1472 C1464 1.356 . S
N1472 H1478 0.984 . S
N1472 H1479 0.984 . S
N1473 C1466 1.356 . S
N1473 H1476 0.984 . S
N1473 H1477 0.985 . S
H1474 N1469 0.984 . S
H1475 N1469 0.985 . S
H1476 N1473 0.984 . S
H1477 N1473 0.985 . S
H1478 N1472 0.984 . S
H1479 N1472 0.984 . S
H1480 N1468 0.984 . S
H1481 N1468 0.985 . S
C1482 C1483 1.363 . S
C1482 C1488 1.379 . S
C1482 N1490 1.356 . S
C1483 C1482 1.363 . S
C1483 C1489 1.363 . S
C1484 C1485 1.363 . S
C1484 C1489 1.379 . S
C1484 N1491 1.356 . S
C1485 C1484 1.363 . S
C1485 C1488 1.363 . S
N1486 C1488 1.356 . S
N1486 H1498 0.984 . S
N1486 H1499 0.985 . S
N1487 C1489 1.356 . S
N1487 H1492 0.984 . S
N1487 H1493 0.985 . S
C1488 C1482 1.379 . S
C1488 C1485 1.363 . S
C1488 N1486 1.356 . S
C1489 C1483 1.363 . S
C1489 C1484 1.379 . S
C1489 N1487 1.356 . S
N1490 C1482 1.356 . S
N1490 H1496 0.984 . S
N1490 H1497 0.984 . S
N1491 C1484 1.356 . S
N1491 H1494 0.984 . S
N1491 H1495 0.985 . S
H1492 N1487 0.984 . S
H1493 N1487 0.985 . S
H1494 N1491 0.984 . S
H1495 N1491 0.985 . S
H1496 N1490 0.984 . S
H1497 N1490 0.984 . S
H1498 N1486 0.984 . S
H1499 N1486 0.985 . S
C1500 C1501 1.363 . S
C1500 C1506 1.379 . S
C1500 N1508 1.356 . S
C1501 C1500 1.363 . S
C1501 C1507 1.363 . S
C1502 C1503 1.363 . S
C1502 C1507 1.379 . S
C1502 N1509 1.356 . S
C1503 C1502 1.363 . S
C1503 C1506 1.363 . S
N1504 C1506 1.356 . S
N1504 H1516 0.984 . S
N1504 H1517 0.985 . S
N1505 C1507 1.356 . S
N1505 H1510 0.984 . S
N1505 H1511 0.985 . S
C1506 C1500 1.379 . S
C1506 C1503 1.363 . S
C1506 N1504 1.356 . S
C1507 C1501 1.363 . S
C1507 C1502 1.379 . S
C1507 N1505 1.356 . S
N1508 C1500 1.356 . S
N1508 H1514 0.984 . S
N1508 H1515 0.984 . S
N1509 C1502 1.356 . S
N1509 H1512 0.984 . S
N1509 H1513 0.985 . S
H1510 N1505 0.984 . S
H1511 N1505 0.985 . S
H1512 N1509 0.984 . S
H1513 N1509 0.985 . S
H1514 N1508 0.984 . S
H1515 N1508 0.984 . S
H1516 N1504 0.984 . S
H1517 N1504 0.985 . S
C1518 C1519 1.363 . S
C1518 C1524 1.379 . S
C1518 N1526 1.356 . S
C1519 C1518 1.363 . S
C1519 C1525 1.363 . S
C1520 C1521 1.363 . S
C1520 C1525 1.379 . S
C1520 N1527 1.356 . S
C1521 C1520 1.363 . S
C1521 C1524 1.363 . S
N1522 C1524 1.356 . S
N1522 H1534 0.984 . S
N1522 H1535 0.985 . S
N1523 C1525 1.356 . S
N1523 H1528 0.984 . S
N1523 H1529 0.985 . S
C1524 C1518 1.379 . S
C1524 C1521 1.363 . S
C1524 N1522 1.356 . S
C1525 C1519 1.363 . S
C1525 C1520 1.379 . S
C1525 N1523 1.356 . S
N1526 C1518 1.356 . S
N1526 H1532 0.984 . S
N1526 H1533 0.984 . S
N1527 C1520 1.356 . S
N1527 H1530 0.984 . S
N1527 H1531 0.985 . S
H1528 N1523 0.984 . S
H1529 N1523 0.985 . S
H1530 N1527 0.984 . S
H1531 N1527 0.985 . S
H1532 N1526 0.984 . S
H1533 N1526 0.984 . S
H1534 N1522 0.984 . S
H1535 N1522 0.985 . S
C1536 C1537 1.363 . S
C1536 C1542 1.379 . S
C1536 N1544 1.356 . S
C1537 C1536 1.363 . S
C1537 C1543 1.363 . S
C1538 C1539 1.363 . S
C1538 C1543 1.379 . S
C1538 N1545 1.356 . S
C1539 C1538 1.363 . S
C1539 C1542 1.363 . S
N1540 C1542 1.356 . S
N1540 H1552 0.984 . S
N1540 H1553 0.985 . S
N1541 C1543 1.356 . S
N1541 H1546 0.984 . S
N1541 H1547 0.985 . S
C1542 C1536 1.379 . S
C1542 C1539 1.363 . S
C1542 N1540 1.356 . S
C1543 C1537 1.363 . S
C1543 C1538 1.379 . S
C1543 N1541 1.356 . S
N1544 C1536 1.356 . S
N1544 H1550 0.984 . S
N1544 H1551 0.984 . S
N1545 C1538 1.356 . S
N1545 H1548 0.984 . S
N1545 H1549 0.985 . S
H1546 N1541 0.984 . S
H1547 N1541 0.985 . S
H1548 N1545 0.984 . S
H1549 N1545 0.985 . S
H1550 N1544 0.984 . S
H1551 N1544 0.984 . S
H1552 N1540 0.984 . S
H1553 N1540 0.985 . S
C1554 C1555 1.363 . S
C1554 C1560 1.379 . S
C1554 N1562 1.356 . S
C1555 C1554 1.363 . S
C1555 C1561 1.363 . S
C1556 C1557 1.363 . S
C1556 C1561 1.379 . S
C1556 N1563 1.356 . S
C1557 C1556 1.363 . S
C1557 C1560 1.363 . S
N1558 C1560 1.356 . S
N1558 H1570 0.984 . S
N1558 H1571 0.985 . S
N1559 C1561 1.356 . S
N1559 H1564 0.984 . S
N1559 H1565 0.985 . S
C1560 C1554 1.379 . S
C1560 C1557 1.363 . S
C1560 N1558 1.356 . S
C1561 C1555 1.363 . S
C1561 C1556 1.379 . S
C1561 N1559 1.356 . S
N1562 C1554 1.356 . S
N1562 H1568 0.984 . S
N1562 H1569 0.984 . S
N1563 C1556 1.356 . S
N1563 H1566 0.984 . S
N1563 H1567 0.985 . S
H1564 N1559 0.984 . S
H1565 N1559 0.985 . S
H1566 N1563 0.984 . S
H1567 N1563 0.985 . S
H1568 N1562 0.984 . S
H1569 N1562 0.984 . S
H1570 N1558 0.984 . S
H1571 N1558 0.985 . S
C1572 C1573 1.363 . S
C1572 C1578 1.379 . S
C1572 N1580 1.356 . S
C1573 C1572 1.363 . S
C1573 C1579 1.363 . S
C1574 C1575 1.363 . S
C1574 C1579 1.379 . S
C1574 N1581 1.356 . S
C1575 C1574 1.363 . S
C1575 C1578 1.363 . S
N1576 C1578 1.356 . S
N1576 H1588 0.984 . S
N1576 H1589 0.985 . S
N1577 C1579 1.356 . S
N1577 H1582 0.984 . S
N1577 H1583 0.985 . S
C1578 C1572 1.379 . S
C1578 C1575 1.363 . S
C1578 N1576 1.356 . S
C1579 C1573 1.363 . S
C1579 C1574 1.379 . S
C1579 N1577 1.356 . S
N1580 C1572 1.356 . S
N1580 H1586 0.984 . S
N1580 H1587 0.984 . S
N1581 C1574 1.356 . S
N1581 H1584 0.984 . S
N1581 H1585 0.985 . S
H1582 N1577 0.984 . S
H1583 N1577 0.985 . S
H1584 N1581 0.984 . S
H1585 N1581 0.985 . S
H1586 N1580 0.984 . S
H1587 N1580 0.984 . S
H1588 N1576 0.984 . S
H1589 N1576 0.985 . S
C1590 C1591 1.363 . S
C1590 C1596 1.379 . S
C1590 N1598 1.356 . S
C1591 C1590 1.363 . S
C1591 C1597 1.363 . S
C1592 C1593 1.363 . S
C1592 C1597 1.379 . S
C1592 N1599 1.356 . S
C1593 C1592 1.363 . S
C1593 C1596 1.363 . S
N1594 C1596 1.356 . S
N1594 H1606 0.984 . S
N1594 H1607 0.985 . S
N1595 C1597 1.356 . S
N1595 H1600 0.984 . S
N1595 H1601 0.985 . S
C1596 C1590 1.379 . S
C1596 C1593 1.363 . S
C1596 N1594 1.356 . S
C1597 C1591 1.363 . S
C1597 C1592 1.379 . S
C1597 N1595 1.356 . S
N1598 C1590 1.356 . S
N1598 H1604 0.984 . S
N1598 H1605 0.984 . S
N1599 C1592 1.356 . S
N1599 H1602 0.984 . S
N1599 H1603 0.985 . S
H1600 N1595 0.984 . S
H1601 N1595 0.985 . S
H1602 N1599 0.984 . S
H1603 N1599 0.985 . S
H1604 N1598 0.984 . S
H1605 N1598 0.984 . S
H1606 N1594 0.984 . S
H1607 N1594 0.985 . S
C1608 C1609 1.363 . S
C1608 C1614 1.379 . S
C1608 N1616 1.356 . S
C1609 C1608 1.363 . S
C1609 C1615 1.363 . S
C1610 C1611 1.363 . S
C1610 C1615 1.379 . S
C1610 N1617 1.356 . S
C1611 C1610 1.363 . S
C1611 C1614 1.363 . S
N1612 C1614 1.356 . S
N1612 H1624 0.984 . S
N1612 H1625 0.985 . S
N1613 C1615 1.356 . S
N1613 H1618 0.984 . S
N1613 H1619 0.985 . S
C1614 C1608 1.379 . S
C1614 C1611 1.363 . S
C1614 N1612 1.356 . S
C1615 C1609 1.363 . S
C1615 C1610 1.379 . S
C1615 N1613 1.356 . S
N1616 C1608 1.356 . S
N1616 H1622 0.984 . S
N1616 H1623 0.984 . S
N1617 C1610 1.356 . S
N1617 H1620 0.984 . S
N1617 H1621 0.985 . S
H1618 N1613 0.984 . S
H1619 N1613 0.985 . S
H1620 N1617 0.984 . S
H1621 N1617 0.985 . S
H1622 N1616 0.984 . S
H1623 N1616 0.984 . S
H1624 N1612 0.984 . S
H1625 N1612 0.985 . S
C1626 C1627 1.363 . S
C1626 C1632 1.379 . S
C1626 N1634 1.356 . S
C1627 C1626 1.363 . S
C1627 C1633 1.363 . S
C1628 C1629 1.363 . S
C1628 C1633 1.379 . S
C1628 N1635 1.356 . S
C1629 C1628 1.363 . S
C1629 C1632 1.363 . S
N1630 C1632 1.356 . S
N1630 H1642 0.984 . S
N1630 H1643 0.985 . S
N1631 C1633 1.356 . S
N1631 H1636 0.984 . S
N1631 H1637 0.985 . S
C1632 C1626 1.379 . S
C1632 C1629 1.363 . S
C1632 N1630 1.356 . S
C1633 C1627 1.363 . S
C1633 C1628 1.379 . S
C1633 N1631 1.356 . S
N1634 C1626 1.356 . S
N1634 H1640 0.984 . S
N1634 H1641 0.984 . S
N1635 C1628 1.356 . S
N1635 H1638 0.984 . S
N1635 H1639 0.985 . S
H1636 N1631 0.984 . S
H1637 N1631 0.985 . S
H1638 N1635 0.984 . S
H1639 N1635 0.985 . S
H1640 N1634 0.984 . S
H1641 N1634 0.984 . S
H1642 N1630 0.984 . S
H1643 N1630 0.985 . S
C1644 C1645 1.363 . S
C1644 C1650 1.379 . S
C1644 N1652 1.356 . S
C1645 C1644 1.363 . S
C1645 C1651 1.363 . S
C1646 C1647 1.363 . S
C1646 C1651 1.379 . S
C1646 N1653 1.356 . S
C1647 C1646 1.363 . S
C1647 C1650 1.363 . S
N1648 C1650 1.356 . S
N1648 H1660 0.984 . S
N1648 H1661 0.985 . S
N1649 C1651 1.356 . S
N1649 H1654 0.984 . S
N1649 H1655 0.985 . S
C1650 C1644 1.379 . S
C1650 C1647 1.363 . S
C1650 N1648 1.356 . S
C1651 C1645 1.363 . S
C1651 C1646 1.379 . S
C1651 N1649 1.356 . S
N1652 C1644 1.356 . S
N1652 H1658 0.984 . S
N1652 H1659 0.984 . S
N1653 C1646 1.356 . S
N1653 H1656 0.984 . S
N1653 H1657 0.985 . S
H1654 N1649 0.984 . S
H1655 N1649 0.985 . S
H1656 N1653 0.984 . S
H1657 N1653 0.985 . S
H1658 N1652 0.984 . S
H1659 N1652 0.984 . S
H1660 N1648 0.984 . S
H1661 N1648 0.985 . S
C1662 C1663 1.363 . S
C1662 C1668 1.379 . S
C1662 N1670 1.356 . S
C1663 C1662 1.363 . S
C1663 C1669 1.363 . S
C1664 C1665 1.363 . S
C1664 C1669 1.379 . S
C1664 N1671 1.356 . S
C1665 C1664 1.363 . S
C1665 C1668 1.363 . S
N1666 C1668 1.356 . S
N1666 H1678 0.984 . S
N1666 H1679 0.985 . S
N1667 C1669 1.356 . S
N1667 H1672 0.984 . S
N1667 H1673 0.985 . S
C1668 C1662 1.379 . S
C1668 C1665 1.363 . S
C1668 N1666 1.356 . S
C1669 C1663 1.363 . S
C1669 C1664 1.379 . S
C1669 N1667 1.356 . S
N1670 C1662 1.356 . S
N1670 H1676 0.984 . S
N1670 H1677 0.984 . S
N1671 C1664 1.356 . S
N1671 H1674 0.984 . S
N1671 H1675 0.985 . S
H1672 N1667 0.984 . S
H1673 N1667 0.985 . S
H1674 N1671 0.984 . S
H1675 N1671 0.985 . S
H1676 N1670 0.984 . S
H1677 N1670 0.984 . S
H1678 N1666 0.984 . S
H1679 N1666 0.985 . S
C1680 C1681 1.363 . S
C1680 C1686 1.379 . S
C1680 N1688 1.356 . S
C1681 C1680 1.363 . S
C1681 C1687 1.363 . S
C1682 C1683 1.363 . S
C1682 C1687 1.379 . S
C1682 N1689 1.356 . S
C1683 C1682 1.363 . S
C1683 C1686 1.363 . S
N1684 C1686 1.356 . S
N1684 H1696 0.984 . S
N1684 H1697 0.985 . S
N1685 C1687 1.356 . S
N1685 H1690 0.984 . S
N1685 H1691 0.985 . S
C1686 C1680 1.379 . S
C1686 C1683 1.363 . S
C1686 N1684 1.356 . S
C1687 C1681 1.363 . S
C1687 C1682 1.379 . S
C1687 N1685 1.356 . S
N1688 C1680 1.356 . S
N1688 H1694 0.984 . S
N1688 H1695 0.984 . S
N1689 C1682 1.356 . S
N1689 H1692 0.984 . S
N1689 H1693 0.985 . S
H1690 N1685 0.984 . S
H1691 N1685 0.985 . S
H1692 N1689 0.984 . S
H1693 N1689 0.985 . S
H1694 N1688 0.984 . S
H1695 N1688 0.984 . S
H1696 N1684 0.984 . S
H1697 N1684 0.985 . S
C1698 C1699 1.363 . S
C1698 C1704 1.379 . S
C1698 N1706 1.356 . S
C1699 C1698 1.363 . S
C1699 C1705 1.363 . S
C1700 C1701 1.363 . S
C1700 C1705 1.379 . S
C1700 N1707 1.356 . S
C1701 C1700 1.363 . S
C1701 C1704 1.363 . S
N1702 C1704 1.356 . S
N1702 H1714 0.984 . S
N1702 H1715 0.985 . S
N1703 C1705 1.356 . S
N1703 H1708 0.984 . S
N1703 H1709 0.985 . S
C1704 C1698 1.379 . S
C1704 C1701 1.363 . S
C1704 N1702 1.356 . S
C1705 C1699 1.363 . S
C1705 C1700 1.379 . S
C1705 N1703 1.356 . S
N1706 C1698 1.356 . S
N1706 H1712 0.984 . S
N1706 H1713 0.984 . S
N1707 C1700 1.356 . S
N1707 H1710 0.984 . S
N1707 H1711 0.985 . S
H1708 N1703 0.984 . S
H1709 N1703 0.985 . S
H1710 N1707 0.984 . S
H1711 N1707 0.985 . S
H1712 N1706 0.984 . S
H1713 N1706 0.984 . S
H1714 N1702 0.984 . S
H1715 N1702 0.985 . S
C1716 C1717 1.363 . S
C1716 C1722 1.379 . S
C1716 N1724 1.356 . S
C1717 C1716 1.363 . S
C1717 C1723 1.363 . S
C1718 C1719 1.363 . S
C1718 C1723 1.379 . S
C1718 N1725 1.356 . S
C1719 C1718 1.363 . S
C1719 C1722 1.363 . S
N1720 C1722 1.356 . S
N1720 H1732 0.984 . S
N1720 H1733 0.985 . S
N1721 C1723 1.356 . S
N1721 H1726 0.984 . S
N1721 H1727 0.985 . S
C1722 C1716 1.379 . S
C1722 C1719 1.363 . S
C1722 N1720 1.356 . S
C1723 C1717 1.363 . S
C1723 C1718 1.379 . S
C1723 N1721 1.356 . S
N1724 C1716 1.356 . S
N1724 H1730 0.984 . S
N1724 H1731 0.984 . S
N1725 C1718 1.356 . S
N1725 H1728 0.984 . S
N1725 H1729 0.985 . S
H1726 N1721 0.984 . S
H1727 N1721 0.985 . S
H1728 N1725 0.984 . S
H1729 N1725 0.985 . S
H1730 N1724 0.984 . S
H1731 N1724 0.984 . S
H1732 N1720 0.984 . S
H1733 N1720 0.985 . S
C1734 C1735 1.363 . S
C1734 C1740 1.379 . S
C1734 N1742 1.356 . S
C1735 C1734 1.363 . S
C1735 C1741 1.363 . S
C1736 C1737 1.363 . S
C1736 C1741 1.379 . S
C1736 N1743 1.356 . S
C1737 C1736 1.363 . S
C1737 C1740 1.363 . S
N1738 C1740 1.356 . S
N1738 H1750 0.984 . S
N1738 H1751 0.985 . S
N1739 C1741 1.356 . S
N1739 H1744 0.984 . S
N1739 H1745 0.985 . S
C1740 C1734 1.379 . S
C1740 C1737 1.363 . S
C1740 N1738 1.356 . S
C1741 C1735 1.363 . S
C1741 C1736 1.379 . S
C1741 N1739 1.356 . S
N1742 C1734 1.356 . S
N1742 H1748 0.984 . S
N1742 H1749 0.984 . S
N1743 C1736 1.356 . S
N1743 H1746 0.984 . S
N1743 H1747 0.985 . S
H1744 N1739 0.984 . S
H1745 N1739 0.985 . S
H1746 N1743 0.984 . S
H1747 N1743 0.985 . S
H1748 N1742 0.984 . S
H1749 N1742 0.984 . S
H1750 N1738 0.984 . S
H1751 N1738 0.985 . S
C1752 C1753 1.363 . S
C1752 C1758 1.379 . S
C1752 N1760 1.356 . S
C1753 C1752 1.363 . S
C1753 C1759 1.363 . S
C1754 C1755 1.363 . S
C1754 C1759 1.379 . S
C1754 N1761 1.356 . S
C1755 C1754 1.363 . S
C1755 C1758 1.363 . S
N1756 C1758 1.356 . S
N1756 H1768 0.984 . S
N1756 H1769 0.985 . S
N1757 C1759 1.356 . S
N1757 H1762 0.984 . S
N1757 H1763 0.985 . S
C1758 C1752 1.379 . S
C1758 C1755 1.363 . S
C1758 N1756 1.356 . S
C1759 C1753 1.363 . S
C1759 C1754 1.379 . S
C1759 N1757 1.356 . S
N1760 C1752 1.356 . S
N1760 H1766 0.984 . S
N1760 H1767 0.984 . S
N1761 C1754 1.356 . S
N1761 H1764 0.984 . S
N1761 H1765 0.985 . S
H1762 N1757 0.984 . S
H1763 N1757 0.985 . S
H1764 N1761 0.984 . S
H1765 N1761 0.985 . S
H1766 N1760 0.984 . S
H1767 N1760 0.984 . S
H1768 N1756 0.984 . S
H1769 N1756 0.985 . S
C1770 C1771 1.363 . S
C1770 C1776 1.379 . S
C1770 N1778 1.356 . S
C1771 C1770 1.363 . S
C1771 C1777 1.363 . S
C1772 C1773 1.363 . S
C1772 C1777 1.379 . S
C1772 N1779 1.356 . S
C1773 C1772 1.363 . S
C1773 C1776 1.363 . S
N1774 C1776 1.356 . S
N1774 H1786 0.984 . S
N1774 H1787 0.985 . S
N1775 C1777 1.356 . S
N1775 H1780 0.984 . S
N1775 H1781 0.985 . S
C1776 C1770 1.379 . S
C1776 C1773 1.363 . S
C1776 N1774 1.356 . S
C1777 C1771 1.363 . S
C1777 C1772 1.379 . S
C1777 N1775 1.356 . S
N1778 C1770 1.356 . S
N1778 H1784 0.984 . S
N1778 H1785 0.984 . S
N1779 C1772 1.356 . S
N1779 H1782 0.984 . S
N1779 H1783 0.985 . S
H1780 N1775 0.984 . S
H1781 N1775 0.985 . S
H1782 N1779 0.984 . S
H1783 N1779 0.985 . S
H1784 N1778 0.984 . S
H1785 N1778 0.984 . S
H1786 N1774 0.984 . S
H1787 N1774 0.985 . S
C1788 C1789 1.363 . S
C1788 C1794 1.379 . S
C1788 N1796 1.356 . S
C1789 C1788 1.363 . S
C1789 C1795 1.363 . S
C1790 C1791 1.363 . S
C1790 C1795 1.379 . S
C1790 N1797 1.356 . S
C1791 C1790 1.363 . S
C1791 C1794 1.363 . S
N1792 C1794 1.356 . S
N1792 H1804 0.984 . S
N1792 H1805 0.985 . S
N1793 C1795 1.356 . S
N1793 H1798 0.984 . S
N1793 H1799 0.985 . S
C1794 C1788 1.379 . S
C1794 C1791 1.363 . S
C1794 N1792 1.356 . S
C1795 C1789 1.363 . S
C1795 C1790 1.379 . S
C1795 N1793 1.356 . S
N1796 C1788 1.356 . S
N1796 H1802 0.984 . S
N1796 H1803 0.984 . S
N1797 C1790 1.356 . S
N1797 H1800 0.984 . S
N1797 H1801 0.985 . S
H1798 N1793 0.984 . S
H1799 N1793 0.985 . S
H1800 N1797 0.984 . S
H1801 N1797 0.985 . S
H1802 N1796 0.984 . S
H1803 N1796 0.984 . S
H1804 N1792 0.984 . S
H1805 N1792 0.985 . S
C1806 C1807 1.363 . S
C1806 C1812 1.379 . S
C1806 N1814 1.356 . S
C1807 C1806 1.363 . S
C1807 C1813 1.363 . S
C1808 C1809 1.363 . S
C1808 C1813 1.379 . S
C1808 N1815 1.356 . S
C1809 C1808 1.363 . S
C1809 C1812 1.363 . S
N1810 C1812 1.356 . S
N1810 H1822 0.984 . S
N1810 H1823 0.985 . S
N1811 C1813 1.356 . S
N1811 H1816 0.984 . S
N1811 H1817 0.985 . S
C1812 C1806 1.379 . S
C1812 C1809 1.363 . S
C1812 N1810 1.356 . S
C1813 C1807 1.363 . S
C1813 C1808 1.379 . S
C1813 N1811 1.356 . S
N1814 C1806 1.356 . S
N1814 H1820 0.984 . S
N1814 H1821 0.984 . S
N1815 C1808 1.356 . S
N1815 H1818 0.984 . S
N1815 H1819 0.985 . S
H1816 N1811 0.984 . S
H1817 N1811 0.985 . S
H1818 N1815 0.984 . S
H1819 N1815 0.985 . S
H1820 N1814 0.984 . S
H1821 N1814 0.984 . S
H1822 N1810 0.984 . S
H1823 N1810 0.985 . S
C1824 C1825 1.363 . S
C1824 C1830 1.379 . S
C1824 N1832 1.356 . S
C1825 C1824 1.363 . S
C1825 C1831 1.363 . S
C1826 C1827 1.363 . S
C1826 C1831 1.379 . S
C1826 N1833 1.356 . S
C1827 C1826 1.363 . S
C1827 C1830 1.363 . S
N1828 C1830 1.356 . S
N1828 H1840 0.984 . S
N1828 H1841 0.985 . S
N1829 C1831 1.356 . S
N1829 H1834 0.984 . S
N1829 H1835 0.985 . S
C1830 C1824 1.379 . S
C1830 C1827 1.363 . S
C1830 N1828 1.356 . S
C1831 C1825 1.363 . S
C1831 C1826 1.379 . S
C1831 N1829 1.356 . S
N1832 C1824 1.356 . S
N1832 H1838 0.984 . S
N1832 H1839 0.984 . S
N1833 C1826 1.356 . S
N1833 H1836 0.984 . S
N1833 H1837 0.985 . S
H1834 N1829 0.984 . S
H1835 N1829 0.985 . S
H1836 N1833 0.984 . S
H1837 N1833 0.985 . S
H1838 N1832 0.984 . S
H1839 N1832 0.984 . S
H1840 N1828 0.984 . S
H1841 N1828 0.985 . S
C1842 C1843 1.363 . S
C1842 C1848 1.379 . S
C1842 N1850 1.356 . S
C1843 C1842 1.363 . S
C1843 C1849 1.363 . S
C1844 C1845 1.363 . S
C1844 C1849 1.379 . S
C1844 N1851 1.356 . S
C1845 C1844 1.363 . S
C1845 C1848 1.363 . S
N1846 C1848 1.356 . S
N1846 H1858 0.984 . S
N1846 H1859 0.985 . S
N1847 C1849 1.356 . S
N1847 H1852 0.984 . S
N1847 H1853 0.985 . S
C1848 C1842 1.379 . S
C1848 C1845 1.363 . S
C1848 N1846 1.356 . S
C1849 C1843 1.363 . S
C1849 C1844 1.379 . S
C1849 N1847 1.356 . S
N1850 C1842 1.356 . S
N1850 H1856 0.984 . S
N1850 H1857 0.984 . S
N1851 C1844 1.356 . S
N1851 H1854 0.984 . S
N1851 H1855 0.985 . S
H1852 N1847 0.984 . S
H1853 N1847 0.985 . S
H1854 N1851 0.984 . S
H1855 N1851 0.985 . S
H1856 N1850 0.984 . S
H1857 N1850 0.984 . S
H1858 N1846 0.984 . S
H1859 N1846 0.985 . S
C1860 C1861 1.363 . S
C1860 C1866 1.379 . S
C1860 N1868 1.356 . S
C1861 C1860 1.363 . S
C1861 C1867 1.363 . S
C1862 C1863 1.363 . S
C1862 C1867 1.379 . S
C1862 N1869 1.356 . S
C1863 C1862 1.363 . S
C1863 C1866 1.363 . S
N1864 C1866 1.356 . S
N1864 H1876 0.984 . S
N1864 H1877 0.985 . S
N1865 C1867 1.356 . S
N1865 H1870 0.984 . S
N1865 H1871 0.985 . S
C1866 C1860 1.379 . S
C1866 C1863 1.363 . S
C1866 N1864 1.356 . S
C1867 C1861 1.363 . S
C1867 C1862 1.379 . S
C1867 N1865 1.356 . S
N1868 C1860 1.356 . S
N1868 H1874 0.984 . S
N1868 H1875 0.984 . S
N1869 C1862 1.356 . S
N1869 H1872 0.984 . S
N1869 H1873 0.985 . S
H1870 N1865 0.984 . S
H1871 N1865 0.985 . S
H1872 N1869 0.984 . S
H1873 N1869 0.985 . S
H1874 N1868 0.984 . S
H1875 N1868 0.984 . S
H1876 N1864 0.984 . S
H1877 N1864 0.985 . S
C1878 C1879 1.363 . S
C1878 C1884 1.379 . S
C1878 N1886 1.356 . S
C1879 C1878 1.363 . S
C1879 C1885 1.363 . S
C1880 C1881 1.363 . S
C1880 C1885 1.379 . S
C1880 N1887 1.356 . S
C1881 C1880 1.363 . S
C1881 C1884 1.363 . S
N1882 C1884 1.356 . S
N1882 H1894 0.984 . S
N1882 H1895 0.985 . S
N1883 C1885 1.356 . S
N1883 H1888 0.984 . S
N1883 H1889 0.985 . S
C1884 C1878 1.379 . S
C1884 C1881 1.363 . S
C1884 N1882 1.356 . S
C1885 C1879 1.363 . S
C1885 C1880 1.379 . S
C1885 N1883 1.356 . S
N1886 C1878 1.356 . S
N1886 H1892 0.984 . S
N1886 H1893 0.984 . S
N1887 C1880 1.356 . S
N1887 H1890 0.984 . S
N1887 H1891 0.985 . S
H1888 N1883 0.984 . S
H1889 N1883 0.985 . S
H1890 N1887 0.984 . S
H1891 N1887 0.985 . S
H1892 N1886 0.984 . S
H1893 N1886 0.984 . S
H1894 N1882 0.984 . S
H1895 N1882 0.985 . S
C1896 C1897 1.363 . S
C1896 C1902 1.379 . S
C1896 N1904 1.356 . S
C1897 C1896 1.363 . S
C1897 C1903 1.363 . S
C1898 C1899 1.363 . S
C1898 C1903 1.379 . S
C1898 N1905 1.356 . S
C1899 C1898 1.363 . S
C1899 C1902 1.363 . S
N1900 C1902 1.356 . S
N1900 H1912 0.984 . S
N1900 H1913 0.985 . S
N1901 C1903 1.356 . S
N1901 H1906 0.984 . S
N1901 H1907 0.985 . S
C1902 C1896 1.379 . S
C1902 C1899 1.363 . S
C1902 N1900 1.356 . S
C1903 C1897 1.363 . S
C1903 C1898 1.379 . S
C1903 N1901 1.356 . S
N1904 C1896 1.356 . S
N1904 H1910 0.984 . S
N1904 H1911 0.984 . S
N1905 C1898 1.356 . S
N1905 H1908 0.984 . S
N1905 H1909 0.985 . S
H1906 N1901 0.984 . S
H1907 N1901 0.985 . S
H1908 N1905 0.984 . S
H1909 N1905 0.985 . S
H1910 N1904 0.984 . S
H1911 N1904 0.984 . S
H1912 N1900 0.984 . S
H1913 N1900 0.985 . S
C1914 C1915 1.363 . S
C1914 C1920 1.379 . S
C1914 N1922 1.356 . S
C1915 C1914 1.363 . S
C1915 C1921 1.363 . S
C1916 C1917 1.363 . S
C1916 C1921 1.379 . S
C1916 N1923 1.356 . S
C1917 C1916 1.363 . S
C1917 C1920 1.363 . S
N1918 C1920 1.356 . S
N1918 H1930 0.984 . S
N1918 H1931 0.985 . S
N1919 C1921 1.356 . S
N1919 H1924 0.984 . S
N1919 H1925 0.985 . S
C1920 C1914 1.379 . S
C1920 C1917 1.363 . S
C1920 N1918 1.356 . S
C1921 C1915 1.363 . S
C1921 C1916 1.379 . S
C1921 N1919 1.356 . S
N1922 C1914 1.356 . S
N1922 H1928 0.984 . S
N1922 H1929 0.984 . S
N1923 C1916 1.356 . S
N1923 H1926 0.984 . S
N1923 H1927 0.985 . S
H1924 N1919 0.984 . S
H1925 N1919 0.985 . S
H1926 N1923 0.984 . S
H1927 N1923 0.985 . S
H1928 N1922 0.984 . S
H1929 N1922 0.984 . S
H1930 N1918 0.984 . S
H1931 N1918 0.985 . S
C1932 C1933 1.363 . S
C1932 C1938 1.379 . S
C1932 N1940 1.356 . S
C1933 C1932 1.363 . S
C1933 C1939 1.363 . S
C1934 C1935 1.363 . S
C1934 C1939 1.379 . S
C1934 N1941 1.356 . S
C1935 C1934 1.363 . S
C1935 C1938 1.363 . S
N1936 C1938 1.356 . S
N1936 H1948 0.984 . S
N1936 H1949 0.985 . S
N1937 C1939 1.356 . S
N1937 H1942 0.984 . S
N1937 H1943 0.985 . S
C1938 C1932 1.379 . S
C1938 C1935 1.363 . S
C1938 N1936 1.356 . S
C1939 C1933 1.363 . S
C1939 C1934 1.379 . S
C1939 N1937 1.356 . S
N1940 C1932 1.356 . S
N1940 H1946 0.984 . S
N1940 H1947 0.984 . S
N1941 C1934 1.356 . S
N1941 H1944 0.984 . S
N1941 H1945 0.985 . S
H1942 N1937 0.984 . S
H1943 N1937 0.985 . S
H1944 N1941 0.984 . S
H1945 N1941 0.985 . S
H1946 N1940 0.984 . S
H1947 N1940 0.984 . S
H1948 N1936 0.984 . S
H1949 N1936 0.985 . S
C1950 C1951 1.363 . S
C1950 C1956 1.379 . S
C1950 N1958 1.356 . S
C1951 C1950 1.363 . S
C1951 C1957 1.363 . S
C1952 C1953 1.363 . S
C1952 C1957 1.379 . S
C1952 N1959 1.356 . S
C1953 C1952 1.363 . S
C1953 C1956 1.363 . S
N1954 C1956 1.356 . S
N1954 H1966 0.984 . S
N1954 H1967 0.985 . S
N1955 C1957 1.356 . S
N1955 H1960 0.984 . S
N1955 H1961 0.985 . S
C1956 C1950 1.379 . S
C1956 C1953 1.363 . S
C1956 N1954 1.356 . S
C1957 C1951 1.363 . S
C1957 C1952 1.379 . S
C1957 N1955 1.356 . S
N1958 C1950 1.356 . S
N1958 H1964 0.984 . S
N1958 H1965 0.984 . S
N1959 C1952 1.356 . S
N1959 H1962 0.984 . S
N1959 H1963 0.985 . S
H1960 N1955 0.984 . S
H1961 N1955 0.985 . S
H1962 N1959 0.984 . S
H1963 N1959 0.985 . S
H1964 N1958 0.984 . S
H1965 N1958 0.984 . S
H1966 N1954 0.984 . S
H1967 N1954 0.985 . S
C1968 C1969 1.363 . S
C1968 C1974 1.379 . S
C1968 N1976 1.356 . S
C1969 C1968 1.363 . S
C1969 C1975 1.363 . S
C1970 C1971 1.363 . S
C1970 C1975 1.379 . S
C1970 N1977 1.356 . S
C1971 C1970 1.363 . S
C1971 C1974 1.363 . S
N1972 C1974 1.356 . S
N1972 H1984 0.984 . S
N1972 H1985 0.985 . S
N1973 C1975 1.356 . S
N1973 H1978 0.984 . S
N1973 H1979 0.985 . S
C1974 C1968 1.379 . S
C1974 C1971 1.363 . S
C1974 N1972 1.356 . S
C1975 C1969 1.363 . S
C1975 C1970 1.379 . S
C1975 N1973 1.356 . S
N1976 C1968 1.356 . S
N1976 H1982 0.984 . S
N1976 H1983 0.984 . S
N1977 C1970 1.356 . S
N1977 H1980 0.984 . S
N1977 H1981 0.985 . S
H1978 N1973 0.984 . S
H1979 N1973 0.985 . S
H1980 N1977 0.984 . S
H1981 N1977 0.985 . S
H1982 N1976 0.984 . S
H1983 N1976 0.984 . S
H1984 N1972 0.984 . S
H1985 N1972 0.985 . S
C1986 C1987 1.363 . S
C1986 C1992 1.379 . S
C1986 N1994 1.356 . S
C1987 C1986 1.363 . S
C1987 C1993 1.363 . S
C1988 C1989 1.363 . S
C1988 C1993 1.379 . S
C1988 N1995 1.356 . S
C1989 C1988 1.363 . S
C1989 C1992 1.363 . S
N1990 C1992 1.356 . S
N1990 H2002 0.984 . S
N1990 H2003 0.985 . S
N1991 C1993 1.356 . S
N1991 H1996 0.984 . S
N1991 H1997 0.985 . S
C1992 C1986 1.379 . S
C1992 C1989 1.363 . S
C1992 N1990 1.356 . S
C1993 C1987 1.363 . S
C1993 C1988 1.379 . S
C1993 N1991 1.356 . S
N1994 C1986 1.356 . S
N1994 H2000 0.984 . S
N1994 H2001 0.984 . S
N1995 C1988 1.356 . S
N1995 H1998 0.984 . S
N1995 H1999 0.985 . S
H1996 N1991 0.984 . S
H1997 N1991 0.985 . S
H1998 N1995 0.984 . S
H1999 N1995 0.985 . S
H2000 N1994 0.984 . S
H2001 N1994 0.984 . S
H2002 N1990 0.984 . S
H2003 N1990 0.985 . S
C2004 C2005 1.363 . S
C2004 C2010 1.379 . S
C2004 N2012 1.356 . S
C2005 C2004 1.363 . S
C2005 C2011 1.363 . S
C2006 C2007 1.363 . S
C2006 C2011 1.379 . S
C2006 N2013 1.356 . S
C2007 C2006 1.363 . S
C2007 C2010 1.363 . S
N2008 C2010 1.356 . S
N2008 H2020 0.984 . S
N2008 H2021 0.985 . S
N2009 C2011 1.356 . S
N2009 H2014 0.984 . S
N2009 H2015 0.985 . S
C2010 C2004 1.379 . S
C2010 C2007 1.363 . S
C2010 N2008 1.356 . S
C2011 C2005 1.363 . S
C2011 C2006 1.379 . S
C2011 N2009 1.356 . S
N2012 C2004 1.356 . S
N2012 H2018 0.984 . S
N2012 H2019 0.984 . S
N2013 C2006 1.356 . S
N2013 H2016 0.984 . S
N2013 H2017 0.985 . S
H2014 N2009 0.984 . S
H2015 N2009 0.985 . S
H2016 N2013 0.984 . S
H2017 N2013 0.985 . S
H2018 N2012 0.984 . S
H2019 N2012 0.984 . S
H2020 N2008 0.984 . S
H2021 N2008 0.985 . S
C2022 C2023 1.363 . S
C2022 C2028 1.379 . S
C2022 N2030 1.356 . S
C2023 C2022 1.363 . S
C2023 C2029 1.363 . S
C2024 C2025 1.363 . S
C2024 C2029 1.379 . S
C2024 N2031 1.356 . S
C2025 C2024 1.363 . S
C2025 C2028 1.363 . S
N2026 C2028 1.356 . S
N2026 H2038 0.984 . S
N2026 H2039 0.985 . S
N2027 C2029 1.356 . S
N2027 H2032 0.984 . S
N2027 H2033 0.985 . S
C2028 C2022 1.379 . S
C2028 C2025 1.363 . S
C2028 N2026 1.356 . S
C2029 C2023 1.363 . S
C2029 C2024 1.379 . S
C2029 N2027 1.356 . S
N2030 C2022 1.356 . S
N2030 H2036 0.984 . S
N2030 H2037 0.984 . S
N2031 C2024 1.356 . S
N2031 H2034 0.984 . S
N2031 H2035 0.985 . S
H2032 N2027 0.984 . S
H2033 N2027 0.985 . S
H2034 N2031 0.984 . S
H2035 N2031 0.985 . S
H2036 N2030 0.984 . S
H2037 N2030 0.984 . S
H2038 N2026 0.984 . S
H2039 N2026 0.985 . S
C2040 C2041 1.363 . S
C2040 C2046 1.379 . S
C2040 N2048 1.356 . S
C2041 C2040 1.363 . S
C2041 C2047 1.363 . S
C2042 C2043 1.363 . S
C2042 C2047 1.379 . S
C2042 N2049 1.356 . S
C2043 C2042 1.363 . S
C2043 C2046 1.363 . S
N2044 C2046 1.356 . S
N2044 H2056 0.984 . S
N2044 H2057 0.985 . S
N2045 C2047 1.356 . S
N2045 H2050 0.984 . S
N2045 H2051 0.985 . S
C2046 C2040 1.379 . S
C2046 C2043 1.363 . S
C2046 N2044 1.356 . S
C2047 C2041 1.363 . S
C2047 C2042 1.379 . S
C2047 N2045 1.356 . S
N2048 C2040 1.356 . S
N2048 H2054 0.984 . S
N2048 H2055 0.984 . S
N2049 C2042 1.356 . S
N2049 H2052 0.984 . S
N2049 H2053 0.985 . S
H2050 N2045 0.984 . S
H2051 N2045 0.985 . S
H2052 N2049 0.984 . S
H2053 N2049 0.985 . S
H2054 N2048 0.984 . S
H2055 N2048 0.984 . S
H2056 N2044 0.984 . S
H2057 N2044 0.985 . S
C2058 C2059 1.363 . S
C2058 C2064 1.379 . S
C2058 N2066 1.356 . S
C2059 C2058 1.363 . S
C2059 C2065 1.363 . S
C2060 C2061 1.363 . S
C2060 C2065 1.379 . S
C2060 N2067 1.356 . S
C2061 C2060 1.363 . S
C2061 C2064 1.363 . S
N2062 C2064 1.356 . S
N2062 H2074 0.984 . S
N2062 H2075 0.985 . S
N2063 C2065 1.356 . S
N2063 H2068 0.984 . S
N2063 H2069 0.985 . S
C2064 C2058 1.379 . S
C2064 C2061 1.363 . S
C2064 N2062 1.356 . S
C2065 C2059 1.363 . S
C2065 C2060 1.379 . S
C2065 N2063 1.356 . S
N2066 C2058 1.356 . S
N2066 H2072 0.984 . S
N2066 H2073 0.984 . S
N2067 C2060 1.356 . S
N2067 H2070 0.984 . S
N2067 H2071 0.985 . S
H2068 N2063 0.984 . S
H2069 N2063 0.985 . S
H2070 N2067 0.984 . S
H2071 N2067 0.985 . S
H2072 N2066 0.984 . S
H2073 N2066 0.984 . S
H2074 N2062 0.984 . S
H2075 N2062 0.985 . S
C2076 C2077 1.363 . S
C2076 C2082 1.379 . S
C2076 N2084 1.356 . S
C2077 C2076 1.363 . S
C2077 C2083 1.363 . S
C2078 C2079 1.363 . S
C2078 C2083 1.379 . S
C2078 N2085 1.356 . S
C2079 C2078 1.363 . S
C2079 C2082 1.363 . S
N2080 C2082 1.356 . S
N2080 H2092 0.984 . S
N2080 H2093 0.985 . S
N2081 C2083 1.356 . S
N2081 H2086 0.984 . S
N2081 H2087 0.985 . S
C2082 C2076 1.379 . S
C2082 C2079 1.363 . S
C2082 N2080 1.356 . S
C2083 C2077 1.363 . S
C2083 C2078 1.379 . S
C2083 N2081 1.356 . S
N2084 C2076 1.356 . S
N2084 H2090 0.984 . S
N2084 H2091 0.984 . S
N2085 C2078 1.356 . S
N2085 H2088 0.984 . S
N2085 H2089 0.985 . S
H2086 N2081 0.984 . S
H2087 N2081 0.985 . S
H2088 N2085 0.984 . S
H2089 N2085 0.985 . S
H2090 N2084 0.984 . S
H2091 N2084 0.984 . S
H2092 N2080 0.984 . S
H2093 N2080 0.985 . S
C2094 C2095 1.363 . S
C2094 C2100 1.379 . S
C2094 N2102 1.356 . S
C2095 C2094 1.363 . S
C2095 C2101 1.363 . S
C2096 C2097 1.363 . S
C2096 C2101 1.379 . S
C2096 N2103 1.356 . S
C2097 C2096 1.363 . S
C2097 C2100 1.363 . S
N2098 C2100 1.356 . S
N2098 H2110 0.984 . S
N2098 H2111 0.985 . S
N2099 C2101 1.356 . S
N2099 H2104 0.984 . S
N2099 H2105 0.985 . S
C2100 C2094 1.379 . S
C2100 C2097 1.363 . S
C2100 N2098 1.356 . S
C2101 C2095 1.363 . S
C2101 C2096 1.379 . S
C2101 N2099 1.356 . S
N2102 C2094 1.356 . S
N2102 H2108 0.984 . S
N2102 H2109 0.984 . S
N2103 C2096 1.356 . S
N2103 H2106 0.984 . S
N2103 H2107 0.985 . S
H2104 N2099 0.984 . S
H2105 N2099 0.985 . S
H2106 N2103 0.984 . S
H2107 N2103 0.985 . S
H2108 N2102 0.984 . S
H2109 N2102 0.984 . S
H2110 N2098 0.984 . S
H2111 N2098 0.985 . S
C2112 C2113 1.363 . S
C2112 C2118 1.379 . S
C2112 N2120 1.356 . S
C2113 C2112 1.363 . S
C2113 C2119 1.363 . S
C2114 C2115 1.363 . S
C2114 C2119 1.379 . S
C2114 N2121 1.356 . S
C2115 C2114 1.363 . S
C2115 C2118 1.363 . S
N2116 C2118 1.356 . S
N2116 H2128 0.984 . S
N2116 H2129 0.985 . S
N2117 C2119 1.356 . S
N2117 H2122 0.984 . S
N2117 H2123 0.985 . S
C2118 C2112 1.379 . S
C2118 C2115 1.363 . S
C2118 N2116 1.356 . S
C2119 C2113 1.363 . S
C2119 C2114 1.379 . S
C2119 N2117 1.356 . S
N2120 C2112 1.356 . S
N2120 H2126 0.984 . S
N2120 H2127 0.984 . S
N2121 C2114 1.356 . S
N2121 H2124 0.984 . S
N2121 H2125 0.985 . S
H2122 N2117 0.984 . S
H2123 N2117 0.985 . S
H2124 N2121 0.984 . S
H2125 N2121 0.985 . S
H2126 N2120 0.984 . S
H2127 N2120 0.984 . S
H2128 N2116 0.984 . S
H2129 N2116 0.985 . S
C2130 C2131 1.363 . S
C2130 C2136 1.379 . S
C2130 N2138 1.356 . S
C2131 C2130 1.363 . S
C2131 C2137 1.363 . S
C2132 C2133 1.363 . S
C2132 C2137 1.379 . S
C2132 N2139 1.356 . S
C2133 C2132 1.363 . S
C2133 C2136 1.363 . S
N2134 C2136 1.356 . S
N2134 H2146 0.984 . S
N2134 H2147 0.985 . S
N2135 C2137 1.356 . S
N2135 H2140 0.984 . S
N2135 H2141 0.985 . S
C2136 C2130 1.379 . S
C2136 C2133 1.363 . S
C2136 N2134 1.356 . S
C2137 C2131 1.363 . S
C2137 C2132 1.379 . S
C2137 N2135 1.356 . S
N2138 C2130 1.356 . S
N2138 H2144 0.984 . S
N2138 H2145 0.984 . S
N2139 C2132 1.356 . S
N2139 H2142 0.984 . S
N2139 H2143 0.985 . S
H2140 N2135 0.984 . S
H2141 N2135 0.985 . S
H2142 N2139 0.984 . S
H2143 N2139 0.985 . S
H2144 N2138 0.984 . S
H2145 N2138 0.984 . S
H2146 N2134 0.984 . S
H2147 N2134 0.985 . S
C2148 C2149 1.363 . S
C2148 C2154 1.379 . S
C2148 N2156 1.356 . S
C2149 C2148 1.363 . S
C2149 C2155 1.363 . S
C2150 C2151 1.363 . S
C2150 C2155 1.379 . S
C2150 N2157 1.356 . S
C2151 C2150 1.363 . S
C2151 C2154 1.363 . S
N2152 C2154 1.356 . S
N2152 H2164 0.984 . S
N2152 H2165 0.985 . S
N2153 C2155 1.356 . S
N2153 H2158 0.984 . S
N2153 H2159 0.985 . S
C2154 C2148 1.379 . S
C2154 C2151 1.363 . S
C2154 N2152 1.356 . S
C2155 C2149 1.363 . S
C2155 C2150 1.379 . S
C2155 N2153 1.356 . S
N2156 C2148 1.356 . S
N2156 H2162 0.984 . S
N2156 H2163 0.984 . S
N2157 C2150 1.356 . S
N2157 H2160 0.984 . S
N2157 H2161 0.985 . S
H2158 N2153 0.984 . S
H2159 N2153 0.985 . S
H2160 N2157 0.984 . S
H2161 N2157 0.985 . S
H2162 N2156 0.984 . S
H2163 N2156 0.984 . S
H2164 N2152 0.984 . S
H2165 N2152 0.985 . S
C2166 C2167 1.363 . S
C2166 C2172 1.379 . S
C2166 N2174 1.356 . S
C2167 C2166 1.363 . S
C2167 C2173 1.363 . S
C2168 C2169 1.363 . S
C2168 C2173 1.379 . S
C2168 N2175 1.356 . S
C2169 C2168 1.363 . S
C2169 C2172 1.363 . S
N2170 C2172 1.356 . S
N2170 H2182 0.984 . S
N2170 H2183 0.985 . S
N2171 C2173 1.356 . S
N2171 H2176 0.984 . S
N2171 H2177 0.985 . S
C2172 C2166 1.379 . S
C2172 C2169 1.363 . S
C2172 N2170 1.356 . S
C2173 C2167 1.363 . S
C2173 C2168 1.379 . S
C2173 N2171 1.356 . S
N2174 C2166 1.356 . S
N2174 H2180 0.984 . S
N2174 H2181 0.984 . S
N2175 C2168 1.356 . S
N2175 H2178 0.984 . S
N2175 H2179 0.985 . S
H2176 N2171 0.984 . S
H2177 N2171 0.985 . S
H2178 N2175 0.984 . S
H2179 N2175 0.985 . S
H2180 N2174 0.984 . S
H2181 N2174 0.984 . S
H2182 N2170 0.984 . S
H2183 N2170 0.985 . S
C2184 C2185 1.363 . S
C2184 C2190 1.379 . S
C2184 N2192 1.356 . S
C2185 C2184 1.363 . S
C2185 C2191 1.363 . S
C2186 C2187 1.363 . S
C2186 C2191 1.379 . S
C2186 N2193 1.356 . S
C2187 C2186 1.363 . S
C2187 C2190 1.363 . S
N2188 C2190 1.356 . S
N2188 H2200 0.984 . S
N2188 H2201 0.985 . S
N2189 C2191 1.356 . S
N2189 H2194 0.984 . S
N2189 H2195 0.985 . S
C2190 C2184 1.379 . S
C2190 C2187 1.363 . S
C2190 N2188 1.356 . S
C2191 C2185 1.363 . S
C2191 C2186 1.379 . S
C2191 N2189 1.356 . S
N2192 C2184 1.356 . S
N2192 H2198 0.984 . S
N2192 H2199 0.984 . S
N2193 C2186 1.356 . S
N2193 H2196 0.984 . S
N2193 H2197 0.985 . S
H2194 N2189 0.984 . S
H2195 N2189 0.985 . S
H2196 N2193 0.984 . S
H2197 N2193 0.985 . S
H2198 N2192 0.984 . S
H2199 N2192 0.984 . S
H2200 N2188 0.984 . S
H2201 N2188 0.985 . S
C2202 C2203 1.363 . S
C2202 C2208 1.379 . S
C2202 N2210 1.356 . S
C2203 C2202 1.363 . S
C2203 C2209 1.363 . S
C2204 C2205 1.363 . S
C2204 C2209 1.379 . S
C2204 N2211 1.356 . S
C2205 C2204 1.363 . S
C2205 C2208 1.363 . S
N2206 C2208 1.356 . S
N2206 H2218 0.984 . S
N2206 H2219 0.985 . S
N2207 C2209 1.356 . S
N2207 H2212 0.984 . S
N2207 H2213 0.985 . S
C2208 C2202 1.379 . S
C2208 C2205 1.363 . S
C2208 N2206 1.356 . S
C2209 C2203 1.363 . S
C2209 C2204 1.379 . S
C2209 N2207 1.356 . S
N2210 C2202 1.356 . S
N2210 H2216 0.984 . S
N2210 H2217 0.984 . S
N2211 C2204 1.356 . S
N2211 H2214 0.984 . S
N2211 H2215 0.985 . S
H2212 N2207 0.984 . S
H2213 N2207 0.985 . S
H2214 N2211 0.984 . S
H2215 N2211 0.985 . S
H2216 N2210 0.984 . S
H2217 N2210 0.984 . S
H2218 N2206 0.984 . S
H2219 N2206 0.985 . S
C2220 C2221 1.363 . S
C2220 C2226 1.379 . S
C2220 N2228 1.356 . S
C2221 C2220 1.363 . S
C2221 C2227 1.363 . S
C2222 C2223 1.363 . S
C2222 C2227 1.379 . S
C2222 N2229 1.356 . S
C2223 C2222 1.363 . S
C2223 C2226 1.363 . S
N2224 C2226 1.356 . S
N2224 H2236 0.984 . S
N2224 H2237 0.985 . S
N2225 C2227 1.356 . S
N2225 H2230 0.984 . S
N2225 H2231 0.985 . S
C2226 C2220 1.379 . S
C2226 C2223 1.363 . S
C2226 N2224 1.356 . S
C2227 C2221 1.363 . S
C2227 C2222 1.379 . S
C2227 N2225 1.356 . S
N2228 C2220 1.356 . S
N2228 H2234 0.984 . S
N2228 H2235 0.984 . S
N2229 C2222 1.356 . S
N2229 H2232 0.984 . S
N2229 H2233 0.985 . S
H2230 N2225 0.984 . S
H2231 N2225 0.985 . S
H2232 N2229 0.984 . S
H2233 N2229 0.985 . S
H2234 N2228 0.984 . S
H2235 N2228 0.984 . S
H2236 N2224 0.984 . S
H2237 N2224 0.985 . S
C2238 C2239 1.363 . S
C2238 C2244 1.379 . S
C2238 N2246 1.356 . S
C2239 C2238 1.363 . S
C2239 C2245 1.363 . S
C2240 C2241 1.363 . S
C2240 C2245 1.379 . S
C2240 N2247 1.356 . S
C2241 C2240 1.363 . S
C2241 C2244 1.363 . S
N2242 C2244 1.356 . S
N2242 H2254 0.984 . S
N2242 H2255 0.985 . S
N2243 C2245 1.356 . S
N2243 H2248 0.984 . S
N2243 H2249 0.985 . S
C2244 C2238 1.379 . S
C2244 C2241 1.363 . S
C2244 N2242 1.356 . S
C2245 C2239 1.363 . S
C2245 C2240 1.379 . S
C2245 N2243 1.356 . S
N2246 C2238 1.356 . S
N2246 H2252 0.984 . S
N2246 H2253 0.984 . S
N2247 C2240 1.356 . S
N2247 H2250 0.984 . S
N2247 H2251 0.985 . S
H2248 N2243 0.984 . S
H2249 N2243 0.985 . S
H2250 N2247 0.984 . S
H2251 N2247 0.985 . S
H2252 N2246 0.984 . S
H2253 N2246 0.984 . S
H2254 N2242 0.984 . S
H2255 N2242 0.985 . S
C2256 C2257 1.363 . S
C2256 C2262 1.379 . S
C2256 N2264 1.356 . S
C2257 C2256 1.363 . S
C2257 C2263 1.363 . S
C2258 C2259 1.363 . S
C2258 C2263 1.379 . S
C2258 N2265 1.356 . S
C2259 C2258 1.363 . S
C2259 C2262 1.363 . S
N2260 C2262 1.356 . S
N2260 H2272 0.984 . S
N2260 H2273 0.985 . S
N2261 C2263 1.356 . S
N2261 H2266 0.984 . S
N2261 H2267 0.985 . S
C2262 C2256 1.379 . S
C2262 C2259 1.363 . S
C2262 N2260 1.356 . S
C2263 C2257 1.363 . S
C2263 C2258 1.379 . S
C2263 N2261 1.356 . S
N2264 C2256 1.356 . S
N2264 H2270 0.984 . S
N2264 H2271 0.984 . S
N2265 C2258 1.356 . S
N2265 H2268 0.984 . S
N2265 H2269 0.985 . S
H2266 N2261 0.984 . S
H2267 N2261 0.985 . S
H2268 N2265 0.984 . S
H2269 N2265 0.985 . S
H2270 N2264 0.984 . S
H2271 N2264 0.984 . S
H2272 N2260 0.984 . S
H2273 N2260 0.985 . S
C2274 C2275 1.363 . S
C2274 C2280 1.379 . S
C2274 N2282 1.356 . S
C2275 C2274 1.363 . S
C2275 C2281 1.363 . S
C2276 C2277 1.363 . S
C2276 C2281 1.379 . S
C2276 N2283 1.356 . S
C2277 C2276 1.363 . S
C2277 C2280 1.363 . S
N2278 C2280 1.356 . S
N2278 H2290 0.984 . S
N2278 H2291 0.985 . S
N2279 C2281 1.356 . S
N2279 H2284 0.984 . S
N2279 H2285 0.985 . S
C2280 C2274 1.379 . S
C2280 C2277 1.363 . S
C2280 N2278 1.356 . S
C2281 C2275 1.363 . S
C2281 C2276 1.379 . S
C2281 N2279 1.356 . S
N2282 C2274 1.356 . S
N2282 H2288 0.984 . S
N2282 H2289 0.984 . S
N2283 C2276 1.356 . S
N2283 H2286 0.984 . S
N2283 H2287 0.985 . S
H2284 N2279 0.984 . S
H2285 N2279 0.985 . S
H2286 N2283 0.984 . S
H2287 N2283 0.985 . S
H2288 N2282 0.984 . S
H2289 N2282 0.984 . S
H2290 N2278 0.984 . S
H2291 N2278 0.985 . S
C2292 C2293 1.363 . S
C2292 C2298 1.379 . S
C2292 N2300 1.356 . S
C2293 C2292 1.363 . S
C2293 C2299 1.363 . S
C2294 C2295 1.363 . S
C2294 C2299 1.379 . S
C2294 N2301 1.356 . S
C2295 C2294 1.363 . S
C2295 C2298 1.363 . S
N2296 C2298 1.356 . S
N2296 H2308 0.984 . S
N2296 H2309 0.985 . S
N2297 C2299 1.356 . S
N2297 H2302 0.984 . S
N2297 H2303 0.985 . S
C2298 C2292 1.379 . S
C2298 C2295 1.363 . S
C2298 N2296 1.356 . S
C2299 C2293 1.363 . S
C2299 C2294 1.379 . S
C2299 N2297 1.356 . S
N2300 C2292 1.356 . S
N2300 H2306 0.984 . S
N2300 H2307 0.984 . S
N2301 C2294 1.356 . S
N2301 H2304 0.984 . S
N2301 H2305 0.985 . S
H2302 N2297 0.984 . S
H2303 N2297 0.985 . S
H2304 N2301 0.984 . S
H2305 N2301 0.985 . S
H2306 N2300 0.984 . S
H2307 N2300 0.984 . S
H2308 N2296 0.984 . S
H2309 N2296 0.985 . S
C2310 C2311 1.363 . S
C2310 C2316 1.379 . S
C2310 N2318 1.356 . S
C2311 C2310 1.363 . S
C2311 C2317 1.363 . S
C2312 C2313 1.363 . S
C2312 C2317 1.379 . S
C2312 N2319 1.356 . S
C2313 C2312 1.363 . S
C2313 C2316 1.363 . S
N2314 C2316 1.356 . S
N2314 H2326 0.984 . S
N2314 H2327 0.985 . S
N2315 C2317 1.356 . S
N2315 H2320 0.984 . S
N2315 H2321 0.985 . S
C2316 C2310 1.379 . S
C2316 C2313 1.363 . S
C2316 N2314 1.356 . S
C2317 C2311 1.363 . S
C2317 C2312 1.379 . S
C2317 N2315 1.356 . S
N2318 C2310 1.356 . S
N2318 H2324 0.984 . S
N2318 H2325 0.984 . S
N2319 C2312 1.356 . S
N2319 H2322 0.984 . S
N2319 H2323 0.985 . S
H2320 N2315 0.984 . S
H2321 N2315 0.985 . S
H2322 N2319 0.984 . S
H2323 N2319 0.985 . S
H2324 N2318 0.984 . S
H2325 N2318 0.984 . S
H2326 N2314 0.984 . S
H2327 N2314 0.985 . S
C2328 C2329 1.363 . S
C2328 C2334 1.379 . S
C2328 N2336 1.356 . S
C2329 C2328 1.363 . S
C2329 C2335 1.363 . S
C2330 C2331 1.363 . S
C2330 C2335 1.379 . S
C2330 N2337 1.356 . S
C2331 C2330 1.363 . S
C2331 C2334 1.363 . S
N2332 C2334 1.356 . S
N2332 H2344 0.984 . S
N2332 H2345 0.985 . S
N2333 C2335 1.356 . S
N2333 H2338 0.984 . S
N2333 H2339 0.985 . S
C2334 C2328 1.379 . S
C2334 C2331 1.363 . S
C2334 N2332 1.356 . S
C2335 C2329 1.363 . S
C2335 C2330 1.379 . S
C2335 N2333 1.356 . S
N2336 C2328 1.356 . S
N2336 H2342 0.984 . S
N2336 H2343 0.984 . S
N2337 C2330 1.356 . S
N2337 H2340 0.984 . S
N2337 H2341 0.985 . S
H2338 N2333 0.984 . S
H2339 N2333 0.985 . S
H2340 N2337 0.984 . S
H2341 N2337 0.985 . S
H2342 N2336 0.984 . S
H2343 N2336 0.984 . S
H2344 N2332 0.984 . S
H2345 N2332 0.985 . S
C2346 C2347 1.363 . S
C2346 C2352 1.379 . S
C2346 N2354 1.356 . S
C2347 C2346 1.363 . S
C2347 C2353 1.363 . S
C2348 C2349 1.363 . S
C2348 C2353 1.379 . S
C2348 N2355 1.356 . S
C2349 C2348 1.363 . S
C2349 C2352 1.363 . S
N2350 C2352 1.356 . S
N2350 H2362 0.984 . S
N2350 H2363 0.985 . S
N2351 C2353 1.356 . S
N2351 H2356 0.984 . S
N2351 H2357 0.985 . S
C2352 C2346 1.379 . S
C2352 C2349 1.363 . S
C2352 N2350 1.356 . S
C2353 C2347 1.363 . S
C2353 C2348 1.379 . S
C2353 N2351 1.356 . S
N2354 C2346 1.356 . S
N2354 H2360 0.984 . S
N2354 H2361 0.984 . S
N2355 C2348 1.356 . S
N2355 H2358 0.984 . S
N2355 H2359 0.985 . S
H2356 N2351 0.984 . S
H2357 N2351 0.985 . S
H2358 N2355 0.984 . S
H2359 N2355 0.985 . S
H2360 N2354 0.984 . S
H2361 N2354 0.984 . S
H2362 N2350 0.984 . S
H2363 N2350 0.985 . S
C2364 C2365 1.363 . S
C2364 C2370 1.379 . S
C2364 N2372 1.356 . S
C2365 C2364 1.363 . S
C2365 C2371 1.363 . S
C2366 C2367 1.363 . S
C2366 C2371 1.379 . S
C2366 N2373 1.356 . S
C2367 C2366 1.363 . S
C2367 C2370 1.363 . S
N2368 C2370 1.356 . S
N2368 H2380 0.984 . S
N2368 H2381 0.985 . S
N2369 C2371 1.356 . S
N2369 H2374 0.984 . S
N2369 H2375 0.985 . S
C2370 C2364 1.379 . S
C2370 C2367 1.363 . S
C2370 N2368 1.356 . S
C2371 C2365 1.363 . S
C2371 C2366 1.379 . S
C2371 N2369 1.356 . S
N2372 C2364 1.356 . S
N2372 H2378 0.984 . S
N2372 H2379 0.984 . S
N2373 C2366 1.356 . S
N2373 H2376 0.984 . S
N2373 H2377 0.985 . S
H2374 N2369 0.984 . S
H2375 N2369 0.985 . S
H2376 N2373 0.984 . S
H2377 N2373 0.985 . S
H2378 N2372 0.984 . S
H2379 N2372 0.984 . S
H2380 N2368 0.984 . S
H2381 N2368 0.985 . S
C2382 C2383 1.363 . S
C2382 C2388 1.379 . S
C2382 N2390 1.356 . S
C2383 C2382 1.363 . S
C2383 C2389 1.363 . S
C2384 C2385 1.363 . S
C2384 C2389 1.379 . S
C2384 N2391 1.356 . S
C2385 C2384 1.363 . S
C2385 C2388 1.363 . S
N2386 C2388 1.356 . S
N2386 H2398 0.984 . S
N2386 H2399 0.985 . S
N2387 C2389 1.356 . S
N2387 H2392 0.984 . S
N2387 H2393 0.985 . S
C2388 C2382 1.379 . S
C2388 C2385 1.363 . S
C2388 N2386 1.356 . S
C2389 C2383 1.363 . S
C2389 C2384 1.379 . S
C2389 N2387 1.356 . S
N2390 C2382 1.356 . S
N2390 H2396 0.984 . S
N2390 H2397 0.984 . S
N2391 C2384 1.356 . S
N2391 H2394 0.984 . S
N2391 H2395 0.985 . S
H2392 N2387 0.984 . S
H2393 N2387 0.985 . S
H2394 N2391 0.984 . S
H2395 N2391 0.985 . S
H2396 N2390 0.984 . S
H2397 N2390 0.984 . S
H2398 N2386 0.984 . S
H2399 N2386 0.985 . S
C673 C400 1.196 . S
C675 C8 1.196 . S
C691 C22 1.196 . S
C693 C414 1.196 . S
C709 C428 1.196 . S
C711 C36 1.196 . S
C727 C50 1.196 . S
C729 C442 1.196 . S
C745 C344 1.196 . S
C747 C64 1.196 . S
C763 C78 1.196 . S
C765 C358 1.196 . S
C781 C372 1.196 . S
C783 C92 1.196 . S
C799 C106 1.196 . S
C801 C386 1.196 . S
C817 C540 1.196 . S
C819 C120 1.196 . S
C835 C554 1.196 . S
C837 C134 1.196 . S
C853 C512 1.196 . S
C855 C148 1.196 . S
C871 C162 1.196 . S
C873 C526 1.196 . S
C889 C484 1.196 . S
C891 C176 1.196 . S
C907 C498 1.196 . S
C909 C190 1.196 . S
C925 C204 1.196 . S
C927 C456 1.196 . S
C943 C470 1.196 . S
C945 C218 1.196 . S
C961 C232 1.196 . S
C963 C638 1.196 . S
C979 C610 1.196 . S
C981 C246 1.196 . S
C997 C624 1.196 . S
C999 C260 1.196 . S
C1015 C582 1.196 . S
C1017 C274 1.196 . S
C1033 C596 1.196 . S
C1035 C288 1.196 . S
C1051 C302 1.196 . S
C1053 C568 1.196 . S
C1069 C316 1.196 . S
C1071 C666 1.196 . S
C1087 C652 1.196 . S
C1089 C330 1.196 . S
C1105 C105 1.442 . S
C1107 C7 1.442 . S
C1123 C63 1.442 . S
C1125 C21 1.442 . S
C1141 C77 1.442 . S
C1143 C35 1.442 . S
C1159 C91 1.442 . S
C1161 C49 1.442 . S
C1177 C287 1.442 . S
C1179 C119 1.442 . S
C1195 C245 1.442 . S
C1197 C133 1.442 . S
C1213 C259 1.442 . S
C1215 C147 1.442 . S
C1231 C273 1.442 . S
C1233 C161 1.442 . S
C1249 C329 1.442 . S
C1251 C175 1.442 . S
C1267 C301 1.442 . S
C1269 C189 1.442 . S
C1285 C203 1.442 . S
C1287 C315 1.442 . S
C1303 C231 1.442 . S
C1305 C217 1.442 . S
C1321 C441 1.442 . S
C1323 C343 1.442 . S
C1339 C399 1.442 . S
C1341 C357 1.442 . S
C1357 C371 1.442 . S
C1359 C413 1.442 . S
C1375 C385 1.442 . S
C1377 C427 1.442 . S
C1393 C455 1.442 . S
C1395 C623 1.442 . S
C1411 C469 1.442 . S
C1413 C581 1.442 . S
C1429 C595 1.442 . S
C1431 C483 1.442 . S
C1447 C609 1.442 . S
C1449 C497 1.442 . S
C1465 C665 1.442 . S
C1467 C511 1.442 . S
C1483 C637 1.442 . S
C1485 C525 1.442 . S
C1501 C651 1.442 . S
C1503 C539 1.442 . S
C1519 C553 1.442 . S
C1521 C567 1.442 . S
C1537 C3 1.347 . S
C1539 C121 1.255 . S
C1555 C135 1.255 . S
C1557 C17 1.347 . S
C1573 C149 1.255 . S
C1575 C31 1.347 . S
C1591 C163 1.255 . S
C1593 C45 1.347 . S
C1609 C59 1.347 . S
C1611 C177 1.255 . S
C1627 C191 1.255 . S
C1629 C73 1.347 . S
C1645 C87 1.347 . S
C1647 C205 1.255 . S
C1663 C219 1.255 . S
C1665 C101 1.347 . S
C1681 C233 1.255 . S
C1683 C115 1.347 . S
C1699 C331 1.255 . S
C1701 C129 1.347 . S
C1717 C143 1.347 . S
C1719 C303 1.255 . S
C1735 C157 1.347 . S
C1737 C317 1.255 . S
C1753 C171 1.347 . S
C1755 C247 1.255 . S
C1771 C185 1.347 . S
C1773 C261 1.255 . S
C1789 C199 1.347 . S
C1791 C275 1.255 . S
C1807 C213 1.347 . S
C1809 C289 1.255 . S
C1825 C227 1.347 . S
C1827 C9 1.255 . S
C1843 C241 1.347 . S
C1845 C65 1.255 . S
C1861 C255 1.347 . S
C1863 C79 1.255 . S
C1879 C269 1.347 . S
C1881 C93 1.255 . S
C1897 C283 1.347 . S
C1899 C107 1.255 . S
C1915 C297 1.347 . S
C1917 C37 1.255 . S
C1933 C51 1.255 . S
C1935 C311 1.347 . S
C1951 C23 1.255 . S
C1953 C325 1.347 . S
C1969 C457 1.255 . S
C1971 C339 1.347 . S
C1987 C471 1.255 . S
C1989 C353 1.347 . S
C2005 C485 1.255 . S
C2007 C367 1.347 . S
C2023 C499 1.255 . S
C2025 C381 1.347 . S
C2041 C513 1.255 . S
C2043 C395 1.347 . S
C2059 C409 1.347 . S
C2061 C527 1.255 . S
C2077 C541 1.255 . S
C2079 C423 1.347 . S
C2095 C437 1.347 . S
C2097 C555 1.255 . S
C2113 C569 1.255 . S
C2115 C451 1.347 . S
C2131 C465 1.347 . S
C2133 C667 1.255 . S
C2149 C479 1.347 . S
C2151 C639 1.255 . S
C2167 C653 1.255 . S
C2169 C493 1.347 . S
C2185 C583 1.255 . S
C2187 C507 1.347 . S
C2203 C521 1.347 . S
C2205 C597 1.255 . S
C2221 C535 1.347 . S
C2223 C611 1.255 . S
C2239 C625 1.255 . S
C2241 C549 1.347 . S
C2257 C345 1.255 . S
C2259 C563 1.347 . S
C2275 C401 1.255 . S
C2277 C577 1.347 . S
C2293 C415 1.255 . S
C2295 C591 1.347 . S
C2311 C605 1.347 . S
C2313 C429 1.255 . S
C2329 C443 1.255 . S
C2331 C619 1.347 . S
C2347 C373 1.255 . S
C2349 C633 1.347 . S
C2365 C647 1.347 . S
C2367 C387 1.255 . S
C2383 C359 1.255 . S
C2385 C661 1.347 . S
