# Generated by pormake.
# Topology unm, (4)-cn, num edge types: 1
# Building blocks:
#     Node 0, Type 0, BuildingBlock: QUQFOY_clean_sbu_1, # of connection points: 4
#     Node 1, Type 0, BuildingBlock: QUQFOY_clean_sbu_1, # of connection points: 4
#     Node 2, Type 0, BuildingBlock: QUQFOY_clean_sbu_1, # of connection points: 4
#     Node 3, Type 0, BuildingBlock: QUQFOY_clean_sbu_1, # of connection points: 4
#     Node 4, Type 0, BuildingBlock: QUQFOY_clean_sbu_1, # of connection points: 4
#     Node 5, Type 0, BuildingBlock: QUQFOY_clean_sbu_1, # of connection points: 4
#     Node 6, Type 0, BuildingBlock: QUQFOY_clean_sbu_1, # of connection points: 4
#     Node 7, Type 0, BuildingBlock: QUQFOY_clean_sbu_1, # of connection points: 4
#     Edge 8, Type (0, 0), BuildingBlock: FUNLAD_clean_linker_1, # of connection points: 2
#     Edge 9, Type (0, 0), BuildingBlock: FUNLAD_clean_linker_1, # of connection points: 2
#     Edge 10, Type (0, 0), BuildingBlock: FUNLAD_clean_linker_1, # of connection points: 2
#     Edge 11, Type (0, 0), BuildingBlock: FUNLAD_clean_linker_1, # of connection points: 2
#     Edge 12, Type (0, 0), BuildingBlock: FUNLAD_clean_linker_1, # of connection points: 2
#     Edge 13, Type (0, 0), BuildingBlock: FUNLAD_clean_linker_1, # of connection points: 2
#     Edge 14, Type (0, 0), BuildingBlock: FUNLAD_clean_linker_1, # of connection points: 2
#     Edge 15, Type (0, 0), BuildingBlock: FUNLAD_clean_linker_1, # of connection points: 2
#     Edge 16, Type (0, 0), BuildingBlock: FUNLAD_clean_linker_1, # of connection points: 2
#     Edge 17, Type (0, 0), BuildingBlock: FUNLAD_clean_linker_1, # of connection points: 2
#     Edge 18, Type (0, 0), BuildingBlock: FUNLAD_clean_linker_1, # of connection points: 2
#     Edge 19, Type (0, 0), BuildingBlock: FUNLAD_clean_linker_1, # of connection points: 2
#     Edge 20, Type (0, 0), BuildingBlock: FUNLAD_clean_linker_1, # of connection points: 2
#     Edge 21, Type (0, 0), BuildingBlock: FUNLAD_clean_linker_1, # of connection points: 2
#     Edge 22, Type (0, 0), BuildingBlock: FUNLAD_clean_linker_1, # of connection points: 2
#     Edge 23, Type (0, 0), BuildingBlock: FUNLAD_clean_linker_1, # of connection points: 2
# Relax obj value: 0.173
# Max RMSD: 0.173
# Mean RMSD: 0.173
data_MOF--net-unm--node1-QUQFOY_clean_sbu_1--edge1-FUNLAD_clean_linker_1
_symmetry_space_group_name_H-M    P1
_symmetry_Int_Tables_number       1
_symmetry_cell_setting            triclinic
loop_
_symmetry_equiv_pos_as_xyz
'x, y, z'
_cell_length_a     28.82258
_cell_length_b     28.843103
_cell_length_c     45.939427
_cell_angle_alpha  89.930633
_cell_angle_beta   89.961339
_cell_angle_gamma 90.012859
loop_
_atom_site_label
_atom_site_type_symbol
_atom_site_fract_x
_atom_site_fract_y
_atom_site_fract_z
_atom_type_partial_charge
O0 O 0.20027 0.26187 0.11929 0.0
Cd1 Cd 0.20284 0.29747 0.15822 0.0
Cd2 Cd 0.10523 0.25841 0.15673 0.0
O3 O 0.12955 0.23147 0.118 0.0
O4 O 0.26805 0.32097 0.15772 0.0
O5 O 0.24134 0.27473 0.19223 0.0
C6 C 0.27527 0.2984 0.18141 0.0
C7 C 0.05097 0.21877 0.1854 0.0
C8 C 0.16917 0.23822 0.10651 0.0
C9 C 0.12131 0.36296 0.16085 0.0
O10 O 0.09432 0.32845 0.15828 0.0
O11 O 0.165 0.35786 0.16196 0.0
O12 O 0.04005 0.23554 0.16034 0.0
O13 O 0.09374 0.22161 0.19352 0.0
O14 O 0.22722 0.70157 0.61733 0.0
Cd15 Cd 0.19497 0.69883 0.6574 0.0
Cd16 Cd 0.23776 0.60471 0.65339 0.0
O17 O 0.26598 0.6351 0.61674 0.0
O18 O 0.16782 0.76192 0.6627 0.0
O19 O 0.22313 0.73402 0.69109 0.0
C20 C 0.19533 0.76749 0.68442 0.0
C21 C 0.27711 0.54672 0.67903 0.0
C22 C 0.25506 0.67359 0.60502 0.0
C23 C 0.13297 0.61471 0.6577 0.0
O24 O 0.16834 0.5898 0.65271 0.0
O25 O 0.13659 0.65806 0.66168 0.0
O26 O 0.26382 0.54065 0.65262 0.0
O27 O 0.2714 0.58721 0.69047 0.0
O28 O 0.81836 0.74762 0.11838 0.0
Cd29 Cd 0.81836 0.70869 0.15602 0.0
Cd30 Cd 0.90728 0.75307 0.16044 0.0
O31 O 0.88275 0.78836 0.12447 0.0
O32 O 0.75327 0.68663 0.16091 0.0
O33 O 0.78857 0.73233 0.19266 0.0
C34 C 0.75207 0.7094 0.18502 0.0
C35 C 0.95602 0.7888 0.1942 0.0
C36 C 0.84667 0.77861 0.10981 0.0
C37 C 0.90178 0.64793 0.15564 0.0
O38 O 0.92582 0.68479 0.15551 0.0
O39 O 0.85787 0.64946 0.15684 0.0
O40 O 0.96945 0.78058 0.16798 0.0
O41 O 0.9134 0.77996 0.20083 0.0
O42 O 0.75621 0.30251 0.61985 0.0
Cd43 Cd 0.79048 0.3075 0.65911 0.0
Cd44 Cd 0.74698 0.39455 0.65867 0.0
O45 O 0.71233 0.36497 0.62409 0.0
O46 O 0.80756 0.24308 0.67065 0.0
O47 O 0.76082 0.2878 0.69671 0.0
C48 C 0.78189 0.24863 0.69339 0.0
C49 C 0.70906 0.44802 0.68841 0.0
C50 C 0.72444 0.32893 0.6102 0.0
C51 C 0.85196 0.38967 0.65523 0.0
O52 O 0.81509 0.41338 0.65251 0.0
O53 O 0.85026 0.34629 0.65968 0.0
O54 O 0.71582 0.45607 0.66123 0.0
O55 O 0.72141 0.40826 0.69874 0.0
O56 O 0.70122 0.22109 0.37864 0.0
Cd57 Cd 0.68444 0.19344 0.33838 0.0
Cd58 Cd 0.60756 0.24651 0.3491 0.0
O59 O 0.64734 0.2754 0.38131 0.0
O60 O 0.74399 0.16791 0.32286 0.0
O61 O 0.70579 0.2255 0.30182 0.0
C62 C 0.74145 0.19839 0.30236 0.0
C63 C 0.55739 0.28745 0.31906 0.0
C64 C 0.68307 0.25549 0.39163 0.0
C65 C 0.59556 0.14399 0.34891 0.0
O66 O 0.58057 0.18256 0.35808 0.0
O67 O 0.63546 0.14083 0.33721 0.0
O68 O 0.55062 0.28522 0.34672 0.0
O69 O 0.59522 0.27007 0.30861 0.0
O70 O 0.25419 0.20079 0.88361 0.0
Cd71 Cd 0.29451 0.19918 0.8459 0.0
Cd72 Cd 0.24786 0.11735 0.84414 0.0
O73 O 0.20108 0.14975 0.87074 0.0
O74 O 0.3248 0.26142 0.84413 0.0
O75 O 0.27521 0.23665 0.81084 0.0
C76 C 0.30232 0.26892 0.82039 0.0
C77 C 0.22755 0.06954 0.80551 0.0
C78 C 0.21551 0.18064 0.88813 0.0
C79 C 0.34708 0.11284 0.85511 0.0
O80 O 0.30861 0.09596 0.86315 0.0
O81 O 0.34871 0.15228 0.84287 0.0
O82 O 0.21897 0.05786 0.83206 0.0
O83 O 0.24458 0.11024 0.80063 0.0
O84 O 0.32127 0.74777 0.38133 0.0
Cd85 Cd 0.32659 0.78564 0.3432 0.0
Cd86 Cd 0.40515 0.73307 0.33899 0.0
O87 O 0.37638 0.69627 0.37288 0.0
O88 O 0.26325 0.80962 0.33428 0.0
O89 O 0.3013 0.76073 0.30568 0.0
C90 C 0.26451 0.78495 0.31087 0.0
C91 C 0.44607 0.69806 0.30133 0.0
C92 C 0.34359 0.71152 0.38865 0.0
C93 C 0.41552 0.83624 0.34671 0.0
O94 O 0.43387 0.79643 0.34841 0.0
O95 O 0.3722 0.84071 0.34248 0.0
O96 O 0.46169 0.69825 0.32759 0.0
O97 O 0.40497 0.7143 0.29674 0.0
O98 O 0.71503 0.80649 0.88322 0.0
Cd99 Cd 0.69139 0.81239 0.84067 0.0
Cd100 Cd 0.73271 0.89723 0.84895 0.0
O101 O 0.76311 0.86619 0.88422 0.0
O102 O 0.66982 0.74894 0.83003 0.0
O103 O 0.72989 0.78327 0.80903 0.0
C104 C 0.70321 0.74749 0.81139 0.0
C105 C 0.77116 0.94601 0.81673 0.0
C106 C 0.74628 0.83002 0.89599 0.0
C107 C 0.63061 0.89531 0.84147 0.0
O108 O 0.66461 0.91589 0.85323 0.0
O109 O 0.6353 0.85473 0.83128 0.0
O110 O 0.76281 0.95854 0.84315 0.0
O111 O 0.76117 0.90403 0.80922 0.0
H112 H 0.21441 0.22625 0.06879 0.0
C113 C 0.17904 0.2223 0.0767 0.0
H114 H 0.10973 0.20761 0.06499 0.0
H115 H 0.149 0.27267 0.93508 0.0
H116 H 0.09139 0.32846 0.95119 0.0
H117 H 0.06302 0.32802 0.00187 0.0
H118 H 0.09191 0.27184 0.03672 0.0
C119 C 0.14572 0.20911 0.05801 0.0
C120 C 0.15676 0.20419 0.02648 0.0
C121 C 0.13867 0.23675 0.00626 0.0
C122 C 0.15505 0.23713 0.97703 0.0
C123 C 0.1375 0.27077 0.95747 0.0
C124 C 0.10451 0.30302 0.96645 0.0
C125 C 0.08854 0.30277 0.99499 0.0
C126 C 0.10541 0.27025 0.01478 0.0
H127 H 0.15585 0.17258 0.91794 0.0
C128 C 0.18996 0.18822 0.91554 0.0
H129 H 0.2456 0.22109 0.93714 0.0
H130 H 0.19152 0.13171 0.05811 0.0
H131 H 0.24793 0.07493 0.04166 0.0
H132 H 0.27829 0.07716 0.99144 0.0
H133 H 0.25215 0.13587 0.95731 0.0
C134 C 0.21033 0.20798 0.93868 0.0
C135 C 0.18931 0.20495 0.96815 0.0
C136 C 0.20541 0.17074 0.98789 0.0
C137 C 0.18864 0.16998 0.01698 0.0
C138 C 0.20426 0.13465 0.03602 0.0
C139 C 0.23634 0.10166 0.0268 0.0
C140 C 0.25337 0.10288 0.99851 0.0
C141 C 0.23816 0.13685 0.97917 0.0
H142 H 0.26258 0.71903 0.56682 0.0
C143 C 0.27185 0.68525 0.57562 0.0
H144 H 0.30138 0.61984 0.56641 0.0
H145 H 0.25487 0.63987 0.432 0.0
H146 H 0.2064 0.57485 0.44618 0.0
H147 H 0.20119 0.55042 0.49756 0.0
H148 H 0.24437 0.59077 0.53505 0.0
C149 C 0.2939 0.65457 0.55852 0.0
C150 C 0.30217 0.66532 0.52725 0.0
C151 C 0.2774 0.64061 0.50555 0.0
C152 C 0.28044 0.65459 0.4759 0.0
C153 C 0.25422 0.63035 0.45477 0.0
C154 C 0.22614 0.59306 0.46263 0.0
C155 C 0.2232 0.57931 0.49156 0.0
C156 C 0.24827 0.60278 0.51287 0.0
H157 H 0.35279 0.65726 0.42217 0.0
C158 C 0.33469 0.68932 0.41703 0.0
H159 H 0.29321 0.74376 0.43338 0.0
H160 H 0.36034 0.71468 0.56268 0.0
H161 H 0.40985 0.77886 0.54834 0.0
H162 H 0.4134 0.80459 0.49715 0.0
H163 H 0.36779 0.76609 0.45997 0.0
C164 C 0.30921 0.71032 0.43764 0.0
C165 C 0.30844 0.69301 0.46808 0.0
C166 C 0.33482 0.71636 0.48958 0.0
C167 C 0.33214 0.70213 0.51915 0.0
C168 C 0.36 0.72505 0.54004 0.0
C169 C 0.38885 0.7617 0.53207 0.0
C170 C 0.39089 0.77614 0.50324 0.0
C171 C 0.3644 0.7538 0.48214 0.0
H172 H 0.86371 0.82827 0.07468 0.0
C173 C 0.83985 0.80101 0.08127 0.0
H174 H 0.78554 0.75654 0.06804 0.0
H175 H 0.75848 0.91438 0.96616 0.0
H176 H 0.73036 0.96406 0.00487 0.0
H177 H 0.73668 0.94008 0.05628 0.0
H178 H 0.77121 0.8662 0.06927 0.0
C179 C 0.80796 0.78546 0.06233 0.0
C180 C 0.80692 0.80183 0.0317 0.0
C181 C 0.78713 0.84532 0.02455 0.0
C182 C 0.7834 0.85904 0.9949 0.0
C183 C 0.76252 0.90226 0.9883 0.0
C184 C 0.74613 0.93112 0.01032 0.0
C185 C 0.7497 0.91763 0.03926 0.0
C186 C 0.76975 0.87519 0.04643 0.0
H187 H 0.74504 0.78515 0.93479 0.0
C188 C 0.76082 0.81603 0.92544 0.0
H189 H 0.80506 0.8732 0.933 0.0
H190 H 0.8491 0.71737 0.03827 0.0
H191 H 0.87998 0.6689 0.99974 0.0
H192 H 0.87582 0.69386 0.94842 0.0
H193 H 0.84036 0.76725 0.93533 0.0
C194 C 0.7904 0.84126 0.94155 0.0
C195 C 0.79923 0.82906 0.97253 0.0
C196 C 0.82117 0.7866 0.97983 0.0
C197 C 0.82442 0.77269 0.00943 0.0
C198 C 0.84571 0.72969 0.01612 0.0
C199 C 0.86372 0.70157 0.99422 0.0
C200 C 0.86132 0.71559 0.96533 0.0
C201 C 0.84051 0.75764 0.9581 0.0
H202 H 0.73154 0.2505 0.42854 0.0
C203 C 0.70064 0.26813 0.42066 0.0
H204 H 0.64396 0.31091 0.43188 0.0
H205 H 0.64774 0.24925 0.5637 0.0
H206 H 0.57564 0.21522 0.54689 0.0
H207 H 0.55411 0.21804 0.49496 0.0
H208 H 0.60447 0.2548 0.45956 0.0
C209 C 0.67633 0.29519 0.43893 0.0
C210 C 0.68807 0.29691 0.47044 0.0
C211 C 0.65769 0.27595 0.49094 0.0
C212 C 0.66992 0.27453 0.52092 0.0
C213 C 0.63972 0.25209 0.54077 0.0
C214 C 0.59833 0.23218 0.53139 0.0
C215 C 0.58623 0.23374 0.50216 0.0
C216 C 0.61547 0.25512 0.48206 0.0
H217 H 0.67563 0.34251 0.5742 0.0
C218 C 0.70475 0.32113 0.58102 0.0
H219 H 0.75655 0.27405 0.56753 0.0
H220 H 0.75157 0.34405 0.43736 0.0
H221 H 0.8236 0.37821 0.45423 0.0
H222 H 0.84559 0.37441 0.50606 0.0
H223 H 0.79562 0.33667 0.54134 0.0
C224 C 0.72554 0.29327 0.56158 0.0
C225 C 0.71224 0.29445 0.53034 0.0
C226 C 0.74232 0.31593 0.50992 0.0
C227 C 0.73001 0.31758 0.47997 0.0
C228 C 0.75986 0.3407 0.46022 0.0
C229 C 0.80116 0.36075 0.46965 0.0
C230 C 0.81352 0.35866 0.49883 0.0
C231 C 0.78453 0.33674 0.51885 0.0
H232 H 0.3493 0.3168 0.18296 0.0
C233 C 0.32145 0.30027 0.19512 0.0
H234 H 0.30282 0.26646 0.23415 0.0
H235 H 0.50389 0.20162 0.2688 0.0
H236 H 0.46582 0.12849 0.2592 0.0
H237 H 0.38756 0.12614 0.23759 0.0
H238 H 0.34661 0.19713 0.22588 0.0
C239 C 0.33005 0.28382 0.22192 0.0
C240 C 0.37766 0.28582 0.23463 0.0
C241 C 0.40159 0.24398 0.24075 0.0
C242 C 0.4472 0.24534 0.25258 0.0
C243 C 0.46961 0.20288 0.25929 0.0
C244 C 0.44811 0.1605 0.25394 0.0
C245 C 0.40402 0.1592 0.24183 0.0
C246 C 0.38088 0.20028 0.23525 0.0
H247 H 0.48937 0.31902 0.31079 0.0
C248 C 0.51914 0.3031 0.30022 0.0
H249 H 0.54377 0.27045 0.26224 0.0
H250 H 0.33975 0.37275 0.22922 0.0
H251 H 0.37886 0.44597 0.23732 0.0
H252 H 0.4603 0.44812 0.25376 0.0
H253 H 0.50276 0.37687 0.26279 0.0
C254 C 0.51542 0.28929 0.27241 0.0
C255 C 0.46913 0.28859 0.25793 0.0
C256 C 0.44553 0.33043 0.25138 0.0
C257 C 0.39934 0.32911 0.24046 0.0
C258 C 0.37558 0.37155 0.23612 0.0
C259 C 0.3975 0.4139 0.24094 0.0
C260 C 0.44328 0.41512 0.25032 0.0
C261 C 0.46717 0.37398 0.25555 0.0
H262 H 0.16028 0.82887 0.70217 0.0
C263 C 0.1933 0.81072 0.70133 0.0
H264 H 0.26389 0.8115 0.71291 0.0
H265 H 0.16523 0.02112 0.73827 0.0
H266 H 0.14732 0.02317 0.68676 0.0
H267 H 0.16947 0.95832 0.65465 0.0
H268 H 0.20794 0.89031 0.67415 0.0
C269 C 0.23076 0.82938 0.71415 0.0
C270 C 0.2274 0.87298 0.73163 0.0
C271 C 0.20848 0.91417 0.71938 0.0
C272 C 0.19928 0.95324 0.73742 0.0
C273 C 0.17573 0.99174 0.72526 0.0
C274 C 0.16488 0.99321 0.69573 0.0
C275 C 0.17708 0.9566 0.67769 0.0
C276 C 0.19868 0.91751 0.68924 0.0
H277 H 0.24194 0.04211 0.76159 0.0
C278 C 0.22392 0.03506 0.78191 0.0
H279 H 0.18746 0.98631 0.80719 0.0
H280 H 0.26688 0.80096 0.76192 0.0
H281 H 0.29342 0.80249 0.81183 0.0
H282 H 0.28546 0.87311 0.84159 0.0
H283 H 0.25018 0.94233 0.82176 0.0
C284 C 0.20452 0.99325 0.78653 0.0
C285 C 0.21324 0.95282 0.76703 0.0
C286 C 0.23569 0.91302 0.77864 0.0
C287 C 0.2419 0.87281 0.76113 0.0
C288 C 0.26229 0.83291 0.77385 0.0
C289 C 0.27765 0.83322 0.80258 0.0
C290 C 0.27308 0.87292 0.81935 0.0
C291 C 0.25243 0.91241 0.80767 0.0
H292 H 0.46307 0.68757 0.2548 0.0
C293 C 0.4768 0.68591 0.2768 0.0
H294 H 0.53677 0.67911 0.30294 0.0
H295 H 0.67369 0.59827 0.2102 0.0
H296 H 0.65303 0.52701 0.23515 0.0
H297 H 0.58779 0.52498 0.26992 0.0
H298 H 0.54288 0.59437 0.28005 0.0
C299 C 0.52267 0.68062 0.28103 0.0
C300 C 0.55675 0.68042 0.25672 0.0
C301 C 0.58208 0.63951 0.25062 0.0
C302 C 0.61933 0.6406 0.23031 0.0
C303 C 0.64474 0.59937 0.22518 0.0
C304 C 0.63329 0.55821 0.23939 0.0
C305 C 0.5966 0.55707 0.259 0.0
C306 C 0.5712 0.59715 0.26466 0.0
H307 H 0.71078 0.7291 0.22358 0.0
C308 C 0.71029 0.70904 0.20356 0.0
H309 H 0.67195 0.66295 0.17709 0.0
H310 H 0.51644 0.7661 0.26399 0.0
H311 H 0.53429 0.83602 0.23709 0.0
H312 H 0.59506 0.83627 0.19927 0.0
H313 H 0.63904 0.76665 0.18863 0.0
C314 C 0.67229 0.68435 0.19654 0.0
C315 C 0.6311 0.68266 0.21609 0.0
C316 C 0.60413 0.72303 0.221 0.0
C317 C 0.5676 0.72225 0.24184 0.0
C318 C 0.54337 0.76398 0.24768 0.0
C319 C 0.55341 0.80457 0.23247 0.0
C320 C 0.58773 0.80476 0.21125 0.0
C321 C 0.61291 0.7646 0.2055 0.0
H322 H 0.75963 0.21944 0.73565 0.0
C323 C 0.77705 0.21143 0.71528 0.0
H324 H 0.81127 0.16046 0.69033 0.0
H325 H 0.87236 0.0293 0.79235 0.0
H326 H 0.94644 0.05548 0.77326 0.0
H327 H 0.9501 0.11683 0.73587 0.0
H328 H 0.8799 0.15229 0.71728 0.0
C329 C 0.79325 0.16833 0.71052 0.0
C330 C 0.79051 0.13106 0.73303 0.0
C331 C 0.83205 0.11063 0.74365 0.0
C332 C 0.83006 0.0754 0.76534 0.0
C333 C 0.87198 0.05598 0.77578 0.0
C334 C 0.91472 0.07076 0.76506 0.0
C335 C 0.91677 0.10529 0.744 0.0
C336 C 0.87611 0.12524 0.73343 0.0
H337 H 0.79399 0.96824 0.77289 0.0
C338 C 0.78633 0.98022 0.79479 0.0
H339 H 0.77368 0.03828 0.82166 0.0
H340 H 0.70375 0.15648 0.714 0.0
H341 H 0.63014 0.13048 0.73349 0.0
H342 H 0.62709 0.07286 0.77314 0.0
H343 H 0.69774 0.0406 0.79335 0.0
C344 C 0.7841 0.02597 0.80028 0.0
C345 C 0.78666 0.06091 0.77653 0.0
C346 C 0.74509 0.08079 0.76572 0.0
C347 C 0.74691 0.11515 0.7435 0.0
C348 C 0.70466 0.13203 0.73182 0.0
C349 C 0.66204 0.117 0.74261 0.0
C350 C 0.66031 0.08451 0.7649 0.0
C351 C 0.70119 0.06635 0.77633 0.0
H352 H 0.77394 0.22753 0.26273 0.0
C353 C 0.77899 0.20339 0.28063 0.0
H354 H 0.82483 0.15642 0.30104 0.0
H355 H 0.95664 0.11914 0.19446 0.0
H356 H 0.92067 0.04371 0.20117 0.0
H357 H 0.85587 0.03342 0.2357 0.0
H358 H 0.82665 0.09832 0.26377 0.0
C359 C 0.81979 0.18104 0.2834 0.0
C360 C 0.85884 0.1877 0.2624 0.0
C361 C 0.87555 0.1493 0.24614 0.0
C362 C 0.91276 0.15522 0.22605 0.0
C363 C 0.9285 0.11645 0.20998 0.0
C364 C 0.90815 0.07301 0.21361 0.0
C365 C 0.87169 0.06721 0.23307 0.0
C366 C 0.85534 0.10478 0.24913 0.0
H367 H 0.02543 0.18747 0.22645 0.0
C368 C 0.01484 0.20113 0.20543 0.0
H369 H 0.95854 0.22244 0.17916 0.0
H370 H 0.84149 0.26706 0.29364 0.0
H371 H 0.87734 0.3421 0.28654 0.0
H372 H 0.93847 0.35316 0.24958 0.0
H373 H 0.96463 0.28887 0.21985 0.0
C374 C 0.96945 0.20688 0.19958 0.0
C375 C 0.93304 0.19948 0.22211 0.0
C376 C 0.91699 0.2377 0.23867 0.0
C377 C 0.88056 0.23167 0.25926 0.0
C378 C 0.86739 0.26995 0.27672 0.0
C379 C 0.88806 0.31323 0.27309 0.0
C380 C 0.92255 0.31944 0.25233 0.0
C381 C 0.93714 0.28222 0.23536 0.0
H382 H 0.29698 0.47374 0.68445 0.0
C383 C 0.29271 0.50628 0.69608 0.0
H384 H 0.28657 0.5378 0.73725 0.0
H385 H 0.20573 0.35737 0.79619 0.0
H386 H 0.14114 0.41096 0.79936 0.0
H387 H 0.145 0.48777 0.77584 0.0
H388 H 0.2135 0.51166 0.74928 0.0
C389 C 0.29354 0.50604 0.72531 0.0
C390 C 0.2933 0.46112 0.74152 0.0
C391 C 0.25277 0.44767 0.75697 0.0
C392 C 0.25017 0.40304 0.77012 0.0
C393 C 0.20938 0.39062 0.78551 0.0
C394 C 0.17203 0.42106 0.78753 0.0
C395 C 0.17423 0.46432 0.77433 0.0
C396 C 0.21394 0.47762 0.75916 0.0
H397 H 0.33142 0.33901 0.81457 0.0
C398 C 0.30777 0.31373 0.80521 0.0
H399 H 0.25901 0.30062 0.77196 0.0
H400 H 0.37806 0.47802 0.71691 0.0
H401 H 0.44212 0.42374 0.71287 0.0
H402 H 0.43588 0.34476 0.73318 0.0
H403 H 0.36589 0.31977 0.758 0.0
C404 C 0.28414 0.32471 0.78099 0.0
C405 C 0.28792 0.37178 0.76774 0.0
C406 C 0.32871 0.38544 0.75268 0.0
C407 C 0.33169 0.43043 0.74 0.0
C408 C 0.37342 0.44374 0.72604 0.0
C409 C 0.41054 0.41303 0.72373 0.0
C410 C 0.40708 0.36861 0.73525 0.0
C411 C 0.36675 0.35478 0.74957 0.0
H412 H 0.22973 0.76733 0.26953 0.0
C413 C 0.22497 0.78415 0.29048 0.0
H414 H 0.17867 0.81967 0.3182 0.0
H415 H 0.03988 0.88934 0.22196 0.0
H416 H 0.06925 0.96166 0.24174 0.0
H417 H 0.13318 0.96178 0.27742 0.0
H418 H 0.16804 0.88979 0.29363 0.0
C419 C 0.18341 0.80239 0.29741 0.0
C420 C 0.14355 0.80194 0.27666 0.0
C421 C 0.12348 0.84451 0.26748 0.0
C422 C 0.08683 0.84459 0.24671 0.0
C423 C 0.06774 0.88746 0.23769 0.0
C424 C 0.0843 0.92918 0.24884 0.0
C425 C 0.12028 0.92923 0.26895 0.0
C426 C 0.13989 0.88757 0.27815 0.0
H427 H 0.97755 0.8077 0.2389 0.0
C428 C 0.98981 0.80248 0.21677 0.0
H429 H 0.04825 0.79441 0.18945 0.0
H430 H 0.16663 0.7137 0.29407 0.0
H431 H 0.13759 0.64187 0.27377 0.0
H432 H 0.07842 0.64253 0.23503 0.0
H433 H 0.04682 0.71491 0.21706 0.0
C434 C 0.03564 0.80193 0.21123 0.0
C435 C 0.07063 0.80224 0.23497 0.0
C436 C 0.08971 0.75965 0.24468 0.0
C437 C 0.12535 0.75939 0.26608 0.0
C438 C 0.1414 0.71615 0.27674 0.0
C439 C 0.12462 0.67456 0.26551 0.0
C440 C 0.09115 0.67489 0.2438 0.0
C441 C 0.0735 0.71677 0.23358 0.0
H442 H 0.66716 0.50985 0.69785 0.0
C443 C 0.69209 0.48569 0.70708 0.0
H444 H 0.74052 0.47366 0.74064 0.0
H445 H 0.6944 0.70173 0.7379 0.0
H446 H 0.72633 0.70067 0.68915 0.0
H447 H 0.75339 0.62753 0.66714 0.0
H448 H 0.74665 0.55494 0.69327 0.0
C449 C 0.71424 0.49677 0.73183 0.0
C450 C 0.70595 0.54188 0.74687 0.0
C451 C 0.71412 0.58457 0.7322 0.0
C452 C 0.70275 0.62728 0.74593 0.0
C453 C 0.70588 0.66872 0.72945 0.0
C454 C 0.72367 0.66856 0.70126 0.0
C455 C 0.73859 0.62737 0.6888 0.0
C456 C 0.73399 0.5858 0.70397 0.0
H457 H 0.74511 0.70164 0.78329 0.0
C458 C 0.7116 0.7055 0.79387 0.0
H459 H 0.64577 0.67633 0.80177 0.0
H460 H 0.68752 0.46673 0.78138 0.0
H461 H 0.6625 0.46814 0.83176 0.0
H462 H 0.65032 0.54233 0.85728 0.0
H463 H 0.66238 0.61547 0.83254 0.0
C464 C 0.67909 0.67228 0.79098 0.0
C465 C 0.68818 0.62769 0.77548 0.0
C466 C 0.68206 0.58507 0.79056 0.0
C467 C 0.69029 0.5422 0.77611 0.0
C468 C 0.68253 0.50026 0.79143 0.0
C469 C 0.66811 0.50054 0.82037 0.0
C470 C 0.66118 0.5423 0.83472 0.0
C471 C 0.66807 0.58413 0.82015 0.0
H472 H 0.90398 0.57149 0.1538 0.0
C473 C 0.92515 0.60265 0.15488 0.0
H474 H 0.99321 0.62972 0.15841 0.0
H475 H 0.06844 0.44267 0.21382 0.0
H476 H 0.06695 0.49234 0.25635 0.0
H477 H 0.03252 0.57053 0.25392 0.0
H478 H 0.99944 0.59956 0.20888 0.0
C479 C 0.97156 0.59908 0.15614 0.0
C480 C 0.99447 0.55316 0.15695 0.0
C481 C 0.0148 0.5374 0.18323 0.0
C482 C 0.03507 0.49257 0.18456 0.0
C483 C 0.0535 0.47684 0.21139 0.0
C484 C 0.05265 0.50491 0.23604 0.0
C485 C 0.03323 0.54892 0.23467 0.0
C486 C 0.01441 0.56515 0.20866 0.0
H487 H 0.12492 0.43942 0.16356 0.0
C488 C 0.10153 0.40995 0.16203 0.0
H489 H 0.03179 0.38786 0.15817 0.0
H490 H 0.96224 0.57495 0.10247 0.0
H491 H 0.96372 0.52531 0.05991 0.0
H492 H 0.99804 0.44705 0.06234 0.0
H493 H 0.03128 0.4181 0.10732 0.0
C494 C 0.05551 0.41689 0.16063 0.0
C495 C 0.03554 0.46412 0.15942 0.0
C496 C 0.01572 0.48014 0.13305 0.0
C497 C 0.99546 0.52494 0.13173 0.0
C498 C 0.97711 0.54074 0.10489 0.0
C499 C 0.97798 0.5127 0.08022 0.0
C500 C 0.99734 0.46867 0.08159 0.0
C501 C 0.01618 0.45244 0.10759 0.0
H502 H 0.92852 0.39186 0.6556 0.0
C503 C 0.89733 0.41289 0.65394 0.0
H504 H 0.8701 0.48092 0.65119 0.0
H505 H 0.0518 0.56402 0.70947 0.0
H506 H 0.99791 0.56872 0.74985 0.0
H507 H 0.91966 0.53451 0.74626 0.0
H508 H 0.89513 0.4949 0.70234 0.0
C509 C 0.90088 0.45918 0.65173 0.0
C510 C 0.94669 0.48236 0.65285 0.0
C511 C 0.95984 0.50663 0.67833 0.0
C512 C 0.00446 0.52734 0.68012 0.0
C513 C 0.01772 0.54913 0.70646 0.0
C514 C 0.98723 0.55175 0.72994 0.0
C515 C 0.94322 0.53241 0.72795 0.0
C516 C 0.92956 0.50986 0.70257 0.0
H517 H 0.05641 0.61526 0.66009 0.0
C518 C 0.08678 0.59304 0.65853 0.0
H519 H 0.11168 0.52433 0.65515 0.0
H520 H 0.93058 0.44102 0.60014 0.0
H521 H 0.98399 0.43703 0.5594 0.0
H522 H 0.06134 0.47339 0.56227 0.0
H523 H 0.08567 0.51398 0.60584 0.0
C524 C 0.0816 0.5468 0.6573 0.0
C525 C 0.0351 0.52493 0.65599 0.0
C526 C 0.02171 0.50095 0.6304 0.0
C527 C 0.97732 0.47976 0.62879 0.0
C528 C 0.96429 0.45698 0.60274 0.0
C529 C 0.99451 0.45464 0.57912 0.0
C530 C 0.03803 0.47513 0.58073 0.0
C531 C 0.05161 0.49821 0.60595 0.0
H532 H 0.53267 0.1081 0.36362 0.0
C533 C 0.56484 0.10361 0.35153 0.0
H534 H 0.604 0.05813 0.32513 0.0
H535 H 0.45189 0.92708 0.39889 0.0
H536 H 0.49846 0.94528 0.44135 0.0
H537 H 0.56484 0.99902 0.43769 0.0
H538 H 0.5845 0.03543 0.39167 0.0
C539 C 0.5734 0.06289 0.33863 0.0
C540 C 0.53806 0.02549 0.34 0.0
C541 C 0.52836 0.00306 0.36681 0.0
C542 C 0.49148 0.97052 0.36863 0.0
C543 C 0.48079 0.95059 0.39602 0.0
C544 C 0.50701 0.96101 0.42062 0.0
C545 C 0.54427 0.99138 0.41858 0.0
C546 C 0.55499 0.01226 0.39206 0.0
H547 H 0.4828 0.87044 0.35275 0.0
C548 C 0.44617 0.87679 0.34862 0.0
H549 H 0.39563 0.92747 0.33869 0.0
H550 H 0.54709 0.06313 0.28552 0.0
H551 H 0.50151 0.04372 0.24286 0.0
H552 H 0.43953 0.98488 0.24553 0.0
H553 H 0.42246 0.94537 0.29093 0.0
C554 C 0.43161 0.92035 0.34415 0.0
C555 C 0.46592 0.9588 0.3433 0.0
C556 C 0.47555 0.9813 0.31652 0.0
C557 C 0.51168 0.01475 0.31488 0.0
C558 C 0.52031 0.03712 0.28794 0.0
C559 C 0.49441 0.02631 0.26327 0.0
C560 C 0.45949 0.99321 0.26478 0.0
C561 C 0.45006 0.97079 0.29101 0.0
H562 H 0.39089 0.06073 0.8766 0.0
C563 C 0.38894 0.08447 0.85823 0.0
H564 H 0.41858 0.10546 0.81836 0.0
H565 H 0.62068 0.03142 0.84185 0.0
H566 H 0.63377 0.11314 0.83313 0.0
H567 H 0.568 0.16715 0.82769 0.0
H568 H 0.48875 0.13952 0.83043 0.0
C569 C 0.42114 0.08264 0.83714 0.0
C570 C 0.46071 0.04958 0.83883 0.0
C571 C 0.50679 0.06662 0.83791 0.0
C572 C 0.54464 0.03573 0.84202 0.0
C573 C 0.59046 0.05342 0.83985 0.0
C574 C 0.59854 0.10032 0.8347 0.0
C575 C 0.56153 0.13068 0.83155 0.0
C576 C 0.51615 0.11428 0.83315 0.0
H577 H 0.56258 0.90879 0.82108 0.0
C578 C 0.5864 0.92012 0.83797 0.0
H579 H 0.60067 0.96853 0.87105 0.0
H580 H 0.37813 0.00301 0.83265 0.0
H581 H 0.36426 0.92183 0.84324 0.0
H582 H 0.42832 0.87083 0.85886 0.0
H583 H 0.50678 0.90028 0.86265 0.0
C584 C 0.5764 0.95737 0.85435 0.0
C585 C 0.53625 0.98818 0.84814 0.0
C586 C 0.4901 0.971 0.8486 0.0
C587 C 0.45256 0.0013 0.8423 0.0
C588 C 0.40742 0.9823 0.83952 0.0
C589 C 0.39904 0.93562 0.84522 0.0
C590 C 0.43515 0.90687 0.85382 0.0
C591 C 0.48019 0.92417 0.8556 0.0
loop_
_geom_bond_atom_site_label_1
_geom_bond_atom_site_label_2
_geom_bond_distance
_geom_bond_site_symmetry_2
_ccdc_geom_bond_type
O0 Cd1 2.223 . S
O0 C8 1.315 . S
Cd1 O0 2.223 . S
Cd1 O4 2.297 . S
Cd1 O5 2.439 . S
Cd1 O11 2.240 . S
Cd2 O3 2.240 . S
Cd2 O10 2.223 . S
Cd2 O12 2.297 . S
Cd2 O13 2.439 . S
O3 Cd2 2.240 . S
O3 C8 1.279 . S
O4 Cd1 2.297 . S
O4 C6 1.247 . S
O5 Cd1 2.439 . S
O5 C6 1.208 . S
C6 O4 1.247 . S
C6 O5 1.208 . S
C7 O12 1.247 . S
C7 O13 1.208 . S
C8 O0 1.315 . S
C8 O3 1.279 . S
C9 O10 1.315 . S
C9 O11 1.279 . S
O10 Cd2 2.223 . S
O10 C9 1.315 . S
O11 Cd1 2.240 . S
O11 C9 1.279 . S
O12 Cd2 2.297 . S
O12 C7 1.247 . S
O13 Cd2 2.439 . S
O13 C7 1.208 . S
O14 Cd15 2.223 . S
O14 C22 1.315 . S
Cd15 O14 2.223 . S
Cd15 O18 2.297 . S
Cd15 O19 2.439 . S
Cd15 O25 2.240 . S
Cd16 O17 2.240 . S
Cd16 O24 2.223 . S
Cd16 O26 2.297 . S
Cd16 O27 2.439 . S
O17 Cd16 2.240 . S
O17 C22 1.279 . S
O18 Cd15 2.297 . S
O18 C20 1.247 . S
O19 Cd15 2.439 . S
O19 C20 1.208 . S
C20 O18 1.247 . S
C20 O19 1.208 . S
C21 O26 1.247 . S
C21 O27 1.208 . S
C22 O14 1.315 . S
C22 O17 1.279 . S
C23 O24 1.315 . S
C23 O25 1.279 . S
O24 Cd16 2.223 . S
O24 C23 1.315 . S
O25 Cd15 2.240 . S
O25 C23 1.279 . S
O26 Cd16 2.297 . S
O26 C21 1.247 . S
O27 Cd16 2.439 . S
O27 C21 1.208 . S
O28 Cd29 2.223 . S
O28 C36 1.315 . S
Cd29 O28 2.223 . S
Cd29 O32 2.297 . S
Cd29 O33 2.439 . S
Cd29 O39 2.240 . S
Cd30 O31 2.240 . S
Cd30 O38 2.223 . S
Cd30 O40 2.297 . S
Cd30 O41 2.439 . S
O31 Cd30 2.240 . S
O31 C36 1.279 . S
O32 Cd29 2.297 . S
O32 C34 1.247 . S
O33 Cd29 2.439 . S
O33 C34 1.208 . S
C34 O32 1.247 . S
C34 O33 1.208 . S
C35 O40 1.247 . S
C35 O41 1.208 . S
C36 O28 1.315 . S
C36 O31 1.279 . S
C37 O38 1.315 . S
C37 O39 1.279 . S
O38 Cd30 2.223 . S
O38 C37 1.315 . S
O39 Cd29 2.240 . S
O39 C37 1.279 . S
O40 Cd30 2.297 . S
O40 C35 1.247 . S
O41 Cd30 2.439 . S
O41 C35 1.208 . S
O42 Cd43 2.223 . S
O42 C50 1.315 . S
Cd43 O42 2.223 . S
Cd43 O46 2.297 . S
Cd43 O47 2.439 . S
Cd43 O53 2.240 . S
Cd44 O45 2.240 . S
Cd44 O52 2.223 . S
Cd44 O54 2.297 . S
Cd44 O55 2.439 . S
O45 Cd44 2.240 . S
O45 C50 1.279 . S
O46 Cd43 2.297 . S
O46 C48 1.247 . S
O47 Cd43 2.439 . S
O47 C48 1.208 . S
C48 O46 1.247 . S
C48 O47 1.208 . S
C49 O54 1.247 . S
C49 O55 1.208 . S
C50 O42 1.315 . S
C50 O45 1.279 . S
C51 O52 1.315 . S
C51 O53 1.279 . S
O52 Cd44 2.223 . S
O52 C51 1.315 . S
O53 Cd43 2.240 . S
O53 C51 1.279 . S
O54 Cd44 2.297 . S
O54 C49 1.247 . S
O55 Cd44 2.439 . S
O55 C49 1.208 . S
O56 Cd57 2.223 . S
O56 C64 1.315 . S
Cd57 O56 2.223 . S
Cd57 O60 2.297 . S
Cd57 O61 2.439 . S
Cd57 O67 2.240 . S
Cd58 O59 2.240 . S
Cd58 O66 2.223 . S
Cd58 O68 2.297 . S
Cd58 O69 2.439 . S
O59 Cd58 2.240 . S
O59 C64 1.279 . S
O60 Cd57 2.297 . S
O60 C62 1.247 . S
O61 Cd57 2.439 . S
O61 C62 1.208 . S
C62 O60 1.247 . S
C62 O61 1.208 . S
C63 O68 1.247 . S
C63 O69 1.208 . S
C64 O56 1.315 . S
C64 O59 1.279 . S
C65 O66 1.315 . S
C65 O67 1.279 . S
O66 Cd58 2.223 . S
O66 C65 1.315 . S
O67 Cd57 2.240 . S
O67 C65 1.279 . S
O68 Cd58 2.297 . S
O68 C63 1.247 . S
O69 Cd58 2.439 . S
O69 C63 1.208 . S
O70 Cd71 2.223 . S
O70 C78 1.315 . S
Cd71 O70 2.223 . S
Cd71 O74 2.297 . S
Cd71 O75 2.439 . S
Cd71 O81 2.240 . S
Cd72 O73 2.240 . S
Cd72 O80 2.223 . S
Cd72 O82 2.297 . S
Cd72 O83 2.439 . S
O73 Cd72 2.240 . S
O73 C78 1.279 . S
O74 Cd71 2.297 . S
O74 C76 1.247 . S
O75 Cd71 2.439 . S
O75 C76 1.208 . S
C76 O74 1.247 . S
C76 O75 1.208 . S
C77 O82 1.247 . S
C77 O83 1.208 . S
C78 O70 1.315 . S
C78 O73 1.279 . S
C79 O80 1.315 . S
C79 O81 1.279 . S
O80 Cd72 2.223 . S
O80 C79 1.315 . S
O81 Cd71 2.240 . S
O81 C79 1.279 . S
O82 Cd72 2.297 . S
O82 C77 1.247 . S
O83 Cd72 2.439 . S
O83 C77 1.208 . S
O84 Cd85 2.223 . S
O84 C92 1.315 . S
Cd85 O84 2.223 . S
Cd85 O88 2.297 . S
Cd85 O89 2.439 . S
Cd85 O95 2.240 . S
Cd86 O87 2.240 . S
Cd86 O94 2.223 . S
Cd86 O96 2.297 . S
Cd86 O97 2.439 . S
O87 Cd86 2.240 . S
O87 C92 1.279 . S
O88 Cd85 2.297 . S
O88 C90 1.247 . S
O89 Cd85 2.439 . S
O89 C90 1.208 . S
C90 O88 1.247 . S
C90 O89 1.208 . S
C91 O96 1.247 . S
C91 O97 1.208 . S
C92 O84 1.315 . S
C92 O87 1.279 . S
C93 O94 1.315 . S
C93 O95 1.279 . S
O94 Cd86 2.223 . S
O94 C93 1.315 . S
O95 Cd85 2.240 . S
O95 C93 1.279 . S
O96 Cd86 2.297 . S
O96 C91 1.247 . S
O97 Cd86 2.439 . S
O97 C91 1.208 . S
O98 Cd99 2.223 . S
O98 C106 1.315 . S
Cd99 O98 2.223 . S
Cd99 O102 2.297 . S
Cd99 O103 2.439 . S
Cd99 O109 2.240 . S
Cd100 O101 2.240 . S
Cd100 O108 2.223 . S
Cd100 O110 2.297 . S
Cd100 O111 2.439 . S
O101 Cd100 2.240 . S
O101 C106 1.279 . S
O102 Cd99 2.297 . S
O102 C104 1.247 . S
O103 Cd99 2.439 . S
O103 C104 1.208 . S
C104 O102 1.247 . S
C104 O103 1.208 . S
C105 O110 1.247 . S
C105 O111 1.208 . S
C106 O98 1.315 . S
C106 O101 1.279 . S
C107 O108 1.315 . S
C107 O109 1.279 . S
O108 Cd100 2.223 . S
O108 C107 1.315 . S
O109 Cd99 2.240 . S
O109 C107 1.279 . S
O110 Cd100 2.297 . S
O110 C105 1.247 . S
O111 Cd100 2.439 . S
O111 C105 1.208 . S
H112 C113 0.951 . S
C113 H112 0.951 . S
C113 C119 1.265 . S
H114 C119 0.950 . S
H115 C123 0.949 . S
H116 C124 0.950 . S
H117 C125 0.951 . S
H118 C126 0.951 1_554 S
C119 C113 1.265 . S
C119 H114 0.950 . S
C119 C120 1.478 . S
C120 C119 1.478 . S
C120 C121 1.397 1_554 S
C120 C137 1.394 . S
C121 C120 1.397 1_556 S
C121 C122 1.438 . S
C121 C126 1.429 . S
C122 C121 1.438 . S
C122 C123 1.428 . S
C122 C135 1.394 . S
C123 H115 0.949 . S
C123 C122 1.428 . S
C123 C124 1.345 . S
C124 H116 0.950 . S
C124 C123 1.345 . S
C124 C125 1.424 . S
C125 H117 0.951 . S
C125 C124 1.424 . S
C125 C126 1.347 . S
C126 H118 0.951 1_556 S
C126 C121 1.429 . S
C126 C125 1.347 . S
H127 C128 0.951 . S
C128 H127 0.951 . S
C128 C134 1.265 . S
H129 C134 0.950 . S
H130 C138 0.949 . S
H131 C139 0.950 . S
H132 C140 0.951 . S
H133 C141 0.951 1_556 S
C134 C128 1.265 . S
C134 H129 0.950 . S
C134 C135 1.478 . S
C135 C122 1.394 . S
C135 C134 1.478 . S
C135 C136 1.397 1_556 S
C136 C135 1.397 1_554 S
C136 C137 1.438 . S
C136 C141 1.429 . S
C137 C120 1.394 . S
C137 C136 1.438 . S
C137 C138 1.428 . S
C138 H130 0.949 . S
C138 C137 1.428 . S
C138 C139 1.345 . S
C139 H131 0.950 . S
C139 C138 1.345 . S
C139 C140 1.424 . S
C140 H132 0.951 . S
C140 C139 1.424 . S
C140 C141 1.347 . S
C141 H133 0.951 1_554 S
C141 C136 1.429 . S
C141 C140 1.347 . S
H142 C143 0.951 . S
C143 H142 0.951 . S
C143 C149 1.265 . S
H144 C149 0.950 . S
H145 C153 0.949 . S
H146 C154 0.950 . S
H147 C155 0.951 . S
H148 C156 0.951 . S
C149 C143 1.265 . S
C149 H144 0.950 . S
C149 C150 1.478 . S
C150 C149 1.478 . S
C150 C151 1.397 . S
C150 C167 1.394 . S
C151 C150 1.397 . S
C151 C152 1.438 . S
C151 C156 1.429 . S
C152 C151 1.438 . S
C152 C153 1.428 . S
C152 C165 1.394 . S
C153 H145 0.949 . S
C153 C152 1.428 . S
C153 C154 1.345 . S
C154 H146 0.950 . S
C154 C153 1.345 . S
C154 C155 1.424 . S
C155 H147 0.951 . S
C155 C154 1.424 . S
C155 C156 1.347 . S
C156 H148 0.951 . S
C156 C151 1.429 . S
C156 C155 1.347 . S
H157 C158 0.951 . S
C158 H157 0.951 . S
C158 C164 1.265 . S
H159 C164 0.950 . S
H160 C168 0.949 . S
H161 C169 0.950 . S
H162 C170 0.951 . S
H163 C171 0.951 . S
C164 C158 1.265 . S
C164 H159 0.950 . S
C164 C165 1.478 . S
C165 C152 1.394 . S
C165 C164 1.478 . S
C165 C166 1.397 . S
C166 C165 1.397 . S
C166 C167 1.438 . S
C166 C171 1.429 . S
C167 C150 1.394 . S
C167 C166 1.438 . S
C167 C168 1.428 . S
C168 H160 0.949 . S
C168 C167 1.428 . S
C168 C169 1.345 . S
C169 H161 0.950 . S
C169 C168 1.345 . S
C169 C170 1.424 . S
C170 H162 0.951 . S
C170 C169 1.424 . S
C170 C171 1.347 . S
C171 H163 0.951 . S
C171 C166 1.429 . S
C171 C170 1.347 . S
H172 C173 0.951 . S
C173 H172 0.951 . S
C173 C179 1.265 . S
H174 C179 0.950 . S
H175 C183 0.949 . S
H176 C184 0.950 . S
H177 C185 0.951 . S
H178 C186 0.951 . S
C179 C173 1.265 . S
C179 H174 0.950 . S
C179 C180 1.478 . S
C180 C179 1.478 . S
C180 C181 1.397 . S
C180 C197 1.394 . S
C181 C180 1.397 . S
C181 C182 1.438 1_554 S
C181 C186 1.429 . S
C182 C181 1.438 1_556 S
C182 C183 1.428 . S
C182 C195 1.394 . S
C183 H175 0.949 . S
C183 C182 1.428 . S
C183 C184 1.345 1_556 S
C184 H176 0.950 . S
C184 C183 1.345 1_554 S
C184 C185 1.424 . S
C185 H177 0.951 . S
C185 C184 1.424 . S
C185 C186 1.347 . S
C186 H178 0.951 . S
C186 C181 1.429 . S
C186 C185 1.347 . S
H187 C188 0.951 . S
C188 H187 0.951 . S
C188 C194 1.265 . S
H189 C194 0.950 . S
H190 C198 0.949 . S
H191 C199 0.950 . S
H192 C200 0.951 . S
H193 C201 0.951 . S
C194 C188 1.265 . S
C194 H189 0.950 . S
C194 C195 1.478 . S
C195 C182 1.394 . S
C195 C194 1.478 . S
C195 C196 1.397 . S
C196 C195 1.397 . S
C196 C197 1.438 1_556 S
C196 C201 1.429 . S
C197 C180 1.394 . S
C197 C196 1.438 1_554 S
C197 C198 1.428 . S
C198 H190 0.949 . S
C198 C197 1.428 . S
C198 C199 1.345 1_554 S
C199 H191 0.950 . S
C199 C198 1.345 1_556 S
C199 C200 1.424 . S
C200 H192 0.951 . S
C200 C199 1.424 . S
C200 C201 1.347 . S
C201 H193 0.951 . S
C201 C196 1.429 . S
C201 C200 1.347 . S
H202 C203 0.951 . S
C203 H202 0.951 . S
C203 C209 1.265 . S
H204 C209 0.950 . S
H205 C213 0.949 . S
H206 C214 0.950 . S
H207 C215 0.951 . S
H208 C216 0.951 . S
C209 C203 1.265 . S
C209 H204 0.950 . S
C209 C210 1.478 . S
C210 C209 1.478 . S
C210 C211 1.397 . S
C210 C227 1.394 . S
C211 C210 1.397 . S
C211 C212 1.438 . S
C211 C216 1.429 . S
C212 C211 1.438 . S
C212 C213 1.428 . S
C212 C225 1.394 . S
C213 H205 0.949 . S
C213 C212 1.428 . S
C213 C214 1.345 . S
C214 H206 0.950 . S
C214 C213 1.345 . S
C214 C215 1.424 . S
C215 H207 0.951 . S
C215 C214 1.424 . S
C215 C216 1.347 . S
C216 H208 0.951 . S
C216 C211 1.429 . S
C216 C215 1.347 . S
H217 C218 0.951 . S
C218 H217 0.951 . S
C218 C224 1.265 . S
H219 C224 0.950 . S
H220 C228 0.949 . S
H221 C229 0.950 . S
H222 C230 0.951 . S
H223 C231 0.951 . S
C224 C218 1.265 . S
C224 H219 0.950 . S
C224 C225 1.478 . S
C225 C212 1.394 . S
C225 C224 1.478 . S
C225 C226 1.397 . S
C226 C225 1.397 . S
C226 C227 1.438 . S
C226 C231 1.429 . S
C227 C210 1.394 . S
C227 C226 1.438 . S
C227 C228 1.428 . S
C228 H220 0.949 . S
C228 C227 1.428 . S
C228 C229 1.345 . S
C229 H221 0.950 . S
C229 C228 1.345 . S
C229 C230 1.424 . S
C230 H222 0.951 . S
C230 C229 1.424 . S
C230 C231 1.347 . S
C231 H223 0.951 . S
C231 C226 1.429 . S
C231 C230 1.347 . S
H232 C233 0.951 . S
C233 H232 0.951 . S
C233 C239 1.265 . S
H234 C239 0.950 . S
H235 C243 0.949 . S
H236 C244 0.950 . S
H237 C245 0.951 . S
H238 C246 0.951 . S
C239 C233 1.265 . S
C239 H234 0.950 . S
C239 C240 1.478 . S
C240 C239 1.478 . S
C240 C241 1.397 . S
C240 C257 1.394 . S
C241 C240 1.397 . S
C241 C242 1.438 . S
C241 C246 1.429 . S
C242 C241 1.438 . S
C242 C243 1.428 . S
C242 C255 1.394 . S
C243 H235 0.949 . S
C243 C242 1.428 . S
C243 C244 1.345 . S
C244 H236 0.950 . S
C244 C243 1.345 . S
C244 C245 1.424 . S
C245 H237 0.951 . S
C245 C244 1.424 . S
C245 C246 1.347 . S
C246 H238 0.951 . S
C246 C241 1.429 . S
C246 C245 1.347 . S
H247 C248 0.951 . S
C248 H247 0.951 . S
C248 C254 1.265 . S
H249 C254 0.950 . S
H250 C258 0.949 . S
H251 C259 0.950 . S
H252 C260 0.951 . S
H253 C261 0.951 . S
C254 C248 1.265 . S
C254 H249 0.950 . S
C254 C255 1.478 . S
C255 C242 1.394 . S
C255 C254 1.478 . S
C255 C256 1.397 . S
C256 C255 1.397 . S
C256 C257 1.438 . S
C256 C261 1.429 . S
C257 C240 1.394 . S
C257 C256 1.438 . S
C257 C258 1.428 . S
C258 H250 0.949 . S
C258 C257 1.428 . S
C258 C259 1.345 . S
C259 H251 0.950 . S
C259 C258 1.345 . S
C259 C260 1.424 . S
C260 H252 0.951 . S
C260 C259 1.424 . S
C260 C261 1.347 . S
C261 H253 0.951 . S
C261 C256 1.429 . S
C261 C260 1.347 . S
H262 C263 0.951 . S
C263 H262 0.951 . S
C263 C269 1.265 . S
H264 C269 0.950 . S
H265 C273 0.949 1_545 S
H266 C274 0.950 1_545 S
H267 C275 0.951 . S
H268 C276 0.951 . S
C269 C263 1.265 . S
C269 H264 0.950 . S
C269 C270 1.478 . S
C270 C269 1.478 . S
C270 C271 1.397 . S
C270 C287 1.394 . S
C271 C270 1.397 . S
C271 C272 1.438 . S
C271 C276 1.429 . S
C272 C271 1.438 . S
C272 C273 1.428 . S
C272 C285 1.394 . S
C273 H265 0.949 1_565 S
C273 C272 1.428 . S
C273 C274 1.345 . S
C274 H266 0.950 1_565 S
C274 C273 1.345 . S
C274 C275 1.424 . S
C275 H267 0.951 . S
C275 C274 1.424 . S
C275 C276 1.347 . S
C276 H268 0.951 . S
C276 C271 1.429 . S
C276 C275 1.347 . S
H277 C278 0.955 . S
C278 H277 0.955 . S
C278 C284 1.265 1_545 S
H279 C284 0.950 . S
H280 C288 0.949 . S
H281 C289 0.950 . S
H282 C290 0.951 . S
H283 C291 0.951 . S
C284 C278 1.265 1_565 S
C284 H279 0.950 . S
C284 C285 1.478 . S
C285 C272 1.394 . S
C285 C284 1.478 . S
C285 C286 1.397 . S
C286 C285 1.397 . S
C286 C287 1.438 . S
C286 C291 1.429 . S
C287 C270 1.394 . S
C287 C286 1.438 . S
C287 C288 1.428 . S
C288 H280 0.949 . S
C288 C287 1.428 . S
C288 C289 1.345 . S
C289 H281 0.950 . S
C289 C288 1.345 . S
C289 C290 1.424 . S
C290 H282 0.951 . S
C290 C289 1.424 . S
C290 C291 1.347 . S
C291 H283 0.951 . S
C291 C286 1.429 . S
C291 C290 1.347 . S
H292 C293 0.951 . S
C293 H292 0.951 . S
C293 C299 1.265 . S
H294 C299 0.950 . S
H295 C303 0.949 . S
H296 C304 0.950 . S
H297 C305 0.951 . S
H298 C306 0.951 . S
C299 C293 1.265 . S
C299 H294 0.950 . S
C299 C300 1.478 . S
C300 C299 1.478 . S
C300 C301 1.397 . S
C300 C317 1.394 . S
C301 C300 1.397 . S
C301 C302 1.438 . S
C301 C306 1.429 . S
C302 C301 1.438 . S
C302 C303 1.428 . S
C302 C315 1.394 . S
C303 H295 0.949 . S
C303 C302 1.428 . S
C303 C304 1.345 . S
C304 H296 0.950 . S
C304 C303 1.345 . S
C304 C305 1.424 . S
C305 H297 0.951 . S
C305 C304 1.424 . S
C305 C306 1.347 . S
C306 H298 0.951 . S
C306 C301 1.429 . S
C306 C305 1.347 . S
H307 C308 0.951 . S
C308 H307 0.951 . S
C308 C314 1.265 . S
H309 C314 0.950 . S
H310 C318 0.949 . S
H311 C319 0.950 . S
H312 C320 0.951 . S
H313 C321 0.951 . S
C314 C308 1.265 . S
C314 H309 0.950 . S
C314 C315 1.478 . S
C315 C302 1.394 . S
C315 C314 1.478 . S
C315 C316 1.397 . S
C316 C315 1.397 . S
C316 C317 1.438 . S
C316 C321 1.429 . S
C317 C300 1.394 . S
C317 C316 1.438 . S
C317 C318 1.428 . S
C318 H310 0.949 . S
C318 C317 1.428 . S
C318 C319 1.345 . S
C319 H311 0.950 . S
C319 C318 1.345 . S
C319 C320 1.424 . S
C320 H312 0.951 . S
C320 C319 1.424 . S
C320 C321 1.347 . S
C321 H313 0.951 . S
C321 C316 1.429 . S
C321 C320 1.347 . S
H322 C323 0.951 . S
C323 H322 0.951 . S
C323 C329 1.265 . S
H324 C329 0.950 . S
H325 C333 0.949 1_565 S
H326 C334 0.950 1_565 S
H327 C335 0.951 . S
H328 C336 0.951 . S
C329 C323 1.265 . S
C329 H324 0.950 . S
C329 C330 1.478 . S
C330 C329 1.478 . S
C330 C331 1.397 . S
C330 C347 1.394 . S
C331 C330 1.397 . S
C331 C332 1.438 . S
C331 C336 1.429 . S
C332 C331 1.438 . S
C332 C333 1.428 . S
C332 C345 1.394 . S
C333 H325 0.949 1_545 S
C333 C332 1.428 . S
C333 C334 1.345 . S
C334 H326 0.950 1_545 S
C334 C333 1.345 . S
C334 C335 1.424 . S
C335 H327 0.951 . S
C335 C334 1.424 . S
C335 C336 1.347 . S
C336 H328 0.951 . S
C336 C331 1.429 . S
C336 C335 1.347 . S
H337 C338 0.951 . S
C338 H337 0.951 . S
C338 C344 1.265 1_565 S
H339 C344 0.950 . S
H340 C348 0.949 . S
H341 C349 0.950 . S
H342 C350 0.951 . S
H343 C351 0.951 . S
C344 C338 1.265 1_545 S
C344 H339 0.950 . S
C344 C345 1.478 . S
C345 C332 1.394 . S
C345 C344 1.478 . S
C345 C346 1.397 . S
C346 C345 1.397 . S
C346 C347 1.438 . S
C346 C351 1.429 . S
C347 C330 1.394 . S
C347 C346 1.438 . S
C347 C348 1.428 . S
C348 H340 0.949 . S
C348 C347 1.428 . S
C348 C349 1.345 . S
C349 H341 0.950 . S
C349 C348 1.345 . S
C349 C350 1.424 . S
C350 H342 0.951 . S
C350 C349 1.424 . S
C350 C351 1.347 . S
C351 H343 0.951 . S
C351 C346 1.429 . S
C351 C350 1.347 . S
H352 C353 0.951 . S
C353 H352 0.951 . S
C353 C359 1.265 . S
H354 C359 0.950 . S
H355 C363 0.949 . S
H356 C364 0.950 . S
H357 C365 0.951 . S
H358 C366 0.951 . S
C359 C353 1.265 . S
C359 H354 0.950 . S
C359 C360 1.478 . S
C360 C359 1.478 . S
C360 C361 1.397 . S
C360 C377 1.394 . S
C361 C360 1.397 . S
C361 C362 1.438 . S
C361 C366 1.429 . S
C362 C361 1.438 . S
C362 C363 1.428 . S
C362 C375 1.394 . S
C363 H355 0.949 . S
C363 C362 1.428 . S
C363 C364 1.345 . S
C364 H356 0.950 . S
C364 C363 1.345 . S
C364 C365 1.424 . S
C365 H357 0.951 . S
C365 C364 1.424 . S
C365 C366 1.347 . S
C366 H358 0.951 . S
C366 C361 1.429 . S
C366 C365 1.347 . S
H367 C368 0.951 . S
C368 H367 0.951 . S
C368 C374 1.265 1_455 S
H369 C374 0.950 . S
H370 C378 0.949 . S
H371 C379 0.950 . S
H372 C380 0.951 . S
H373 C381 0.951 . S
C374 C368 1.265 1_655 S
C374 H369 0.950 . S
C374 C375 1.478 . S
C375 C362 1.394 . S
C375 C374 1.478 . S
C375 C376 1.397 . S
C376 C375 1.397 . S
C376 C377 1.438 . S
C376 C381 1.429 . S
C377 C360 1.394 . S
C377 C376 1.438 . S
C377 C378 1.428 . S
C378 H370 0.949 . S
C378 C377 1.428 . S
C378 C379 1.345 . S
C379 H371 0.950 . S
C379 C378 1.345 . S
C379 C380 1.424 . S
C380 H372 0.951 . S
C380 C379 1.424 . S
C380 C381 1.347 . S
C381 H373 0.951 . S
C381 C376 1.429 . S
C381 C380 1.347 . S
H382 C383 0.951 . S
C383 H382 0.951 . S
C383 C389 1.265 . S
H384 C389 0.950 . S
H385 C393 0.949 . S
H386 C394 0.950 . S
H387 C395 0.951 . S
H388 C396 0.951 . S
C389 C383 1.265 . S
C389 H384 0.950 . S
C389 C390 1.478 . S
C390 C389 1.478 . S
C390 C391 1.397 . S
C390 C407 1.394 . S
C391 C390 1.397 . S
C391 C392 1.438 . S
C391 C396 1.429 . S
C392 C391 1.438 . S
C392 C393 1.428 . S
C392 C405 1.394 . S
C393 H385 0.949 . S
C393 C392 1.428 . S
C393 C394 1.345 . S
C394 H386 0.950 . S
C394 C393 1.345 . S
C394 C395 1.424 . S
C395 H387 0.951 . S
C395 C394 1.424 . S
C395 C396 1.347 . S
C396 H388 0.951 . S
C396 C391 1.429 . S
C396 C395 1.347 . S
H397 C398 0.951 . S
C398 H397 0.951 . S
C398 C404 1.265 . S
H399 C404 0.950 . S
H400 C408 0.949 . S
H401 C409 0.950 . S
H402 C410 0.951 . S
H403 C411 0.951 . S
C404 C398 1.265 . S
C404 H399 0.950 . S
C404 C405 1.478 . S
C405 C392 1.394 . S
C405 C404 1.478 . S
C405 C406 1.397 . S
C406 C405 1.397 . S
C406 C407 1.438 . S
C406 C411 1.429 . S
C407 C390 1.394 . S
C407 C406 1.438 . S
C407 C408 1.428 . S
C408 H400 0.949 . S
C408 C407 1.428 . S
C408 C409 1.345 . S
C409 H401 0.950 . S
C409 C408 1.345 . S
C409 C410 1.424 . S
C410 H402 0.951 . S
C410 C409 1.424 . S
C410 C411 1.347 . S
C411 H403 0.951 . S
C411 C406 1.429 . S
C411 C410 1.347 . S
H412 C413 0.951 . S
C413 H412 0.951 . S
C413 C419 1.265 . S
H414 C419 0.950 . S
H415 C423 0.949 . S
H416 C424 0.950 1_655 S
H417 C425 0.951 . S
H418 C426 0.951 . S
C419 C413 1.265 . S
C419 H414 0.950 . S
C419 C420 1.478 . S
C420 C419 1.478 . S
C420 C421 1.397 . S
C420 C437 1.394 . S
C421 C420 1.397 . S
C421 C422 1.438 . S
C421 C426 1.429 . S
C422 C421 1.438 . S
C422 C423 1.428 . S
C422 C435 1.394 . S
C423 H415 0.949 . S
C423 C422 1.428 . S
C423 C424 1.345 . S
C424 H416 0.950 1_455 S
C424 C423 1.345 . S
C424 C425 1.424 . S
C425 H417 0.951 . S
C425 C424 1.424 . S
C425 C426 1.347 . S
C426 H418 0.951 . S
C426 C421 1.429 . S
C426 C425 1.347 . S
H427 C428 0.951 . S
C428 H427 0.951 . S
C428 C434 1.265 1_655 S
H429 C434 0.950 . S
H430 C438 0.949 . S
H431 C439 0.950 . S
H432 C440 0.951 . S
H433 C441 0.951 . S
C434 C428 1.265 1_455 S
C434 H429 0.950 . S
C434 C435 1.478 . S
C435 C422 1.394 . S
C435 C434 1.478 . S
C435 C436 1.397 . S
C436 C435 1.397 . S
C436 C437 1.438 . S
C436 C441 1.429 . S
C437 C420 1.394 . S
C437 C436 1.438 . S
C437 C438 1.428 . S
C438 H430 0.949 . S
C438 C437 1.428 . S
C438 C439 1.345 . S
C439 H431 0.950 . S
C439 C438 1.345 . S
C439 C440 1.424 . S
C440 H432 0.951 . S
C440 C439 1.424 . S
C440 C441 1.347 . S
C441 H433 0.951 . S
C441 C436 1.429 . S
C441 C440 1.347 . S
H442 C443 0.951 . S
C443 H442 0.951 . S
C443 C449 1.265 . S
H444 C449 0.950 . S
H445 C453 0.949 . S
H446 C454 0.950 . S
H447 C455 0.951 . S
H448 C456 0.951 . S
C449 C443 1.265 . S
C449 H444 0.950 . S
C449 C450 1.478 . S
C450 C449 1.478 . S
C450 C451 1.397 . S
C450 C467 1.394 . S
C451 C450 1.397 . S
C451 C452 1.438 . S
C451 C456 1.429 . S
C452 C451 1.438 . S
C452 C453 1.428 . S
C452 C465 1.394 . S
C453 H445 0.949 . S
C453 C452 1.428 . S
C453 C454 1.345 . S
C454 H446 0.950 . S
C454 C453 1.345 . S
C454 C455 1.424 . S
C455 H447 0.951 . S
C455 C454 1.424 . S
C455 C456 1.347 . S
C456 H448 0.951 . S
C456 C451 1.429 . S
C456 C455 1.347 . S
H457 C458 0.951 . S
C458 H457 0.951 . S
C458 C464 1.265 . S
H459 C464 0.950 . S
H460 C468 0.949 . S
H461 C469 0.950 . S
H462 C470 0.951 . S
H463 C471 0.951 . S
C464 C458 1.265 . S
C464 H459 0.950 . S
C464 C465 1.478 . S
C465 C452 1.394 . S
C465 C464 1.478 . S
C465 C466 1.397 . S
C466 C465 1.397 . S
C466 C467 1.438 . S
C466 C471 1.429 . S
C467 C450 1.394 . S
C467 C466 1.438 . S
C467 C468 1.428 . S
C468 H460 0.949 . S
C468 C467 1.428 . S
C468 C469 1.345 . S
C469 H461 0.950 . S
C469 C468 1.345 . S
C469 C470 1.424 . S
C470 H462 0.951 . S
C470 C469 1.424 . S
C470 C471 1.347 . S
C471 H463 0.951 . S
C471 C466 1.429 . S
C471 C470 1.347 . S
H472 C473 0.951 . S
C473 H472 0.951 . S
C473 C479 1.265 . S
H474 C479 0.950 . S
H475 C483 0.949 . S
H476 C484 0.950 . S
H477 C485 0.951 . S
H478 C486 0.951 . S
C479 C473 1.265 . S
C479 H474 0.950 . S
C479 C480 1.478 . S
C480 C479 1.478 . S
C480 C481 1.397 1_655 S
C480 C497 1.394 . S
C481 C480 1.397 1_455 S
C481 C482 1.438 . S
C481 C486 1.429 . S
C482 C481 1.438 . S
C482 C483 1.428 . S
C482 C495 1.394 . S
C483 H475 0.949 . S
C483 C482 1.428 . S
C483 C484 1.345 . S
C484 H476 0.950 . S
C484 C483 1.345 . S
C484 C485 1.424 . S
C485 H477 0.951 . S
C485 C484 1.424 . S
C485 C486 1.347 . S
C486 H478 0.951 . S
C486 C481 1.429 . S
C486 C485 1.347 . S
H487 C488 0.951 . S
C488 H487 0.951 . S
C488 C494 1.265 . S
H489 C494 0.950 . S
H490 C498 0.949 . S
H491 C499 0.950 . S
H492 C500 0.951 . S
H493 C501 0.951 . S
C494 C488 1.265 . S
C494 H489 0.950 . S
C494 C495 1.478 . S
C495 C482 1.394 . S
C495 C494 1.478 . S
C495 C496 1.397 1_455 S
C496 C495 1.397 1_655 S
C496 C497 1.438 . S
C496 C501 1.429 . S
C497 C480 1.394 . S
C497 C496 1.438 . S
C497 C498 1.428 . S
C498 H490 0.949 . S
C498 C497 1.428 . S
C498 C499 1.345 . S
C499 H491 0.950 . S
C499 C498 1.345 . S
C499 C500 1.424 . S
C500 H492 0.951 . S
C500 C499 1.424 . S
C500 C501 1.347 . S
C501 H493 0.951 . S
C501 C496 1.429 . S
C501 C500 1.347 . S
H502 C503 0.951 . S
C503 H502 0.951 . S
C503 C509 1.265 . S
H504 C509 0.950 . S
H505 C513 0.949 . S
H506 C514 0.950 . S
H507 C515 0.951 . S
H508 C516 0.951 . S
C509 C503 1.265 . S
C509 H504 0.950 . S
C509 C510 1.478 . S
C510 C509 1.478 . S
C510 C511 1.397 . S
C510 C527 1.394 . S
C511 C510 1.397 . S
C511 C512 1.438 1_655 S
C511 C516 1.429 . S
C512 C511 1.438 1_455 S
C512 C513 1.428 . S
C512 C525 1.394 . S
C513 H505 0.949 . S
C513 C512 1.428 . S
C513 C514 1.345 1_455 S
C514 H506 0.950 . S
C514 C513 1.345 1_655 S
C514 C515 1.424 . S
C515 H507 0.951 . S
C515 C514 1.424 . S
C515 C516 1.347 . S
C516 H508 0.951 . S
C516 C511 1.429 . S
C516 C515 1.347 . S
H517 C518 0.951 . S
C518 H517 0.951 . S
C518 C524 1.265 . S
H519 C524 0.950 . S
H520 C528 0.949 . S
H521 C529 0.950 . S
H522 C530 0.951 . S
H523 C531 0.951 . S
C524 C518 1.265 . S
C524 H519 0.950 . S
C524 C525 1.478 . S
C525 C512 1.394 . S
C525 C524 1.478 . S
C525 C526 1.397 . S
C526 C525 1.397 . S
C526 C527 1.438 1_455 S
C526 C531 1.429 . S
C527 C510 1.394 . S
C527 C526 1.438 1_655 S
C527 C528 1.428 . S
C528 H520 0.949 . S
C528 C527 1.428 . S
C528 C529 1.345 1_655 S
C529 H521 0.950 . S
C529 C528 1.345 1_455 S
C529 C530 1.424 . S
C530 H522 0.951 . S
C530 C529 1.424 . S
C530 C531 1.347 . S
C531 H523 0.951 . S
C531 C526 1.429 . S
C531 C530 1.347 . S
H532 C533 0.951 . S
C533 H532 0.951 . S
C533 C539 1.265 . S
H534 C539 0.950 . S
H535 C543 0.949 . S
H536 C544 0.950 . S
H537 C545 0.951 . S
H538 C546 0.951 1_545 S
C539 C533 1.265 . S
C539 H534 0.950 . S
C539 C540 1.478 . S
C540 C539 1.478 . S
C540 C541 1.397 1_545 S
C540 C557 1.394 . S
C541 C540 1.397 1_565 S
C541 C542 1.438 . S
C541 C546 1.429 . S
C542 C541 1.438 . S
C542 C543 1.428 . S
C542 C555 1.394 . S
C543 H535 0.949 . S
C543 C542 1.428 . S
C543 C544 1.345 . S
C544 H536 0.950 . S
C544 C543 1.345 . S
C544 C545 1.424 . S
C545 H537 0.951 . S
C545 C544 1.424 . S
C545 C546 1.347 . S
C546 H538 0.951 1_565 S
C546 C541 1.429 . S
C546 C545 1.347 . S
H547 C548 0.951 . S
C548 H547 0.951 . S
C548 C554 1.265 . S
H549 C554 0.950 . S
H550 C558 0.949 . S
H551 C559 0.950 . S
H552 C560 0.951 . S
H553 C561 0.951 1_565 S
C554 C548 1.265 . S
C554 H549 0.950 . S
C554 C555 1.478 . S
C555 C542 1.394 . S
C555 C554 1.478 . S
C555 C556 1.397 1_565 S
C556 C555 1.397 1_545 S
C556 C557 1.438 . S
C556 C561 1.429 . S
C557 C540 1.394 . S
C557 C556 1.438 . S
C557 C558 1.428 . S
C558 H550 0.949 . S
C558 C557 1.428 . S
C558 C559 1.345 . S
C559 H551 0.950 . S
C559 C558 1.345 . S
C559 C560 1.424 . S
C560 H552 0.951 . S
C560 C559 1.424 . S
C560 C561 1.347 . S
C561 H553 0.951 1_545 S
C561 C556 1.429 . S
C561 C560 1.347 . S
H562 C563 0.951 . S
C563 H562 0.951 . S
C563 C569 1.265 . S
H564 C569 0.950 . S
H565 C573 0.949 . S
H566 C574 0.950 . S
H567 C575 0.951 . S
H568 C576 0.951 . S
C569 C563 1.265 . S
C569 H564 0.950 . S
C569 C570 1.478 . S
C570 C569 1.478 . S
C570 C571 1.397 . S
C570 C587 1.394 . S
C571 C570 1.397 . S
C571 C572 1.438 1_545 S
C571 C576 1.429 . S
C572 C571 1.438 1_565 S
C572 C573 1.428 . S
C572 C585 1.394 . S
C573 H565 0.949 . S
C573 C572 1.428 . S
C573 C574 1.345 1_565 S
C574 H566 0.950 . S
C574 C573 1.345 1_545 S
C574 C575 1.424 . S
C575 H567 0.951 . S
C575 C574 1.424 . S
C575 C576 1.347 . S
C576 H568 0.951 . S
C576 C571 1.429 . S
C576 C575 1.347 . S
H577 C578 0.951 . S
C578 H577 0.951 . S
C578 C584 1.265 . S
H579 C584 0.950 . S
H580 C588 0.949 . S
H581 C589 0.950 . S
H582 C590 0.951 . S
H583 C591 0.951 . S
C584 C578 1.265 . S
C584 H579 0.950 . S
C584 C585 1.478 . S
C585 C572 1.394 . S
C585 C584 1.478 . S
C585 C586 1.397 . S
C586 C585 1.397 . S
C586 C587 1.438 1_565 S
C586 C591 1.429 . S
C587 C570 1.394 . S
C587 C586 1.438 1_545 S
C587 C588 1.428 . S
C588 H580 0.949 . S
C588 C587 1.428 . S
C588 C589 1.345 1_545 S
C589 H581 0.950 . S
C589 C588 1.345 1_565 S
C589 C590 1.424 . S
C590 H582 0.951 . S
C590 C589 1.424 . S
C590 C591 1.347 . S
C591 H583 0.951 . S
C591 C586 1.429 . S
C591 C590 1.347 . S
C113 C8 1.472 . S
C128 C78 1.504 . S
C143 C22 1.477 . S
C158 C92 1.515 . S
C173 C36 1.535 . S
C188 C106 1.509 . S
C203 C64 1.478 . S
C218 C50 1.516 . S
C233 C6 1.462 . S
C248 C63 1.442 . S
C263 C20 1.427 . S
C278 C77 1.469 . S
C293 C91 1.513 . S
C308 C34 1.487 . S
C323 C48 1.450 . S
C338 C105 1.503 . S
C353 C62 1.481 . S
C368 C7 1.513 . S
C383 C21 1.449 . S
C398 C76 1.434 . S
C413 C90 1.467 . S
C428 C35 1.511 . S
C443 C49 1.478 . S
C458 C104 1.507 . S
C473 C37 1.023 . S
C488 C9 1.040 . S
C503 C51 1.032 . S
C518 C23 1.035 . S
C533 C65 0.877 . S
C548 C93 0.875 . S
C563 C79 0.877 . S
C578 C107 0.875 . S
