# Generated by pormake.
# Topology whk, (6)-cn, num edge types: 1
# Building blocks:
#     Node 0, Type 0, BuildingBlock: MIFKUJ_clean_sbu_0, # of connection points: 6
#     Node 1, Type 0, BuildingBlock: MIFKUJ_clean_sbu_0, # of connection points: 6
#     Node 2, Type 0, BuildingBlock: MIFKUJ_clean_sbu_0, # of connection points: 6
#     Node 3, Type 0, BuildingBlock: MIFKUJ_clean_sbu_0, # of connection points: 6
#     Node 4, Type 0, BuildingBlock: MIFKUJ_clean_sbu_0, # of connection points: 6
#     Node 5, Type 0, BuildingBlock: MIFKUJ_clean_sbu_0, # of connection points: 6
#     Node 6, Type 0, BuildingBlock: MIFKUJ_clean_sbu_0, # of connection points: 6
#     Node 7, Type 0, BuildingBlock: MIFKUJ_clean_sbu_0, # of connection points: 6
#     Node 8, Type 0, BuildingBlock: MIFKUJ_clean_sbu_0, # of connection points: 6
#     Node 9, Type 0, BuildingBlock: MIFKUJ_clean_sbu_0, # of connection points: 6
#     Node 10, Type 0, BuildingBlock: MIFKUJ_clean_sbu_0, # of connection points: 6
#     Node 11, Type 0, BuildingBlock: MIFKUJ_clean_sbu_0, # of connection points: 6
#     Node 12, Type 0, BuildingBlock: MIFKUJ_clean_sbu_0, # of connection points: 6
#     Node 13, Type 0, BuildingBlock: MIFKUJ_clean_sbu_0, # of connection points: 6
#     Node 14, Type 0, BuildingBlock: MIFKUJ_clean_sbu_0, # of connection points: 6
#     Node 15, Type 0, BuildingBlock: MIFKUJ_clean_sbu_0, # of connection points: 6
#     Edge 16, Type (0, 0), BuildingBlock: UVAHIK_clean_linker_0, # of connection points: 2
#     Edge 17, Type (0, 0), BuildingBlock: UVAHIK_clean_linker_0, # of connection points: 2
#     Edge 18, Type (0, 0), BuildingBlock: UVAHIK_clean_linker_0, # of connection points: 2
#     Edge 19, Type (0, 0), BuildingBlock: UVAHIK_clean_linker_0, # of connection points: 2
#     Edge 20, Type (0, 0), BuildingBlock: UVAHIK_clean_linker_0, # of connection points: 2
#     Edge 21, Type (0, 0), BuildingBlock: UVAHIK_clean_linker_0, # of connection points: 2
#     Edge 22, Type (0, 0), BuildingBlock: UVAHIK_clean_linker_0, # of connection points: 2
#     Edge 23, Type (0, 0), BuildingBlock: UVAHIK_clean_linker_0, # of connection points: 2
#     Edge 24, Type (0, 0), BuildingBlock: UVAHIK_clean_linker_0, # of connection points: 2
#     Edge 25, Type (0, 0), BuildingBlock: UVAHIK_clean_linker_0, # of connection points: 2
#     Edge 26, Type (0, 0), BuildingBlock: UVAHIK_clean_linker_0, # of connection points: 2
#     Edge 27, Type (0, 0), BuildingBlock: UVAHIK_clean_linker_0, # of connection points: 2
#     Edge 28, Type (0, 0), BuildingBlock: UVAHIK_clean_linker_0, # of connection points: 2
#     Edge 29, Type (0, 0), BuildingBlock: UVAHIK_clean_linker_0, # of connection points: 2
#     Edge 30, Type (0, 0), BuildingBlock: UVAHIK_clean_linker_0, # of connection points: 2
#     Edge 31, Type (0, 0), BuildingBlock: UVAHIK_clean_linker_0, # of connection points: 2
#     Edge 32, Type (0, 0), BuildingBlock: UVAHIK_clean_linker_0, # of connection points: 2
#     Edge 33, Type (0, 0), BuildingBlock: UVAHIK_clean_linker_0, # of connection points: 2
#     Edge 34, Type (0, 0), BuildingBlock: UVAHIK_clean_linker_0, # of connection points: 2
#     Edge 35, Type (0, 0), BuildingBlock: UVAHIK_clean_linker_0, # of connection points: 2
#     Edge 36, Type (0, 0), BuildingBlock: UVAHIK_clean_linker_0, # of connection points: 2
#     Edge 37, Type (0, 0), BuildingBlock: UVAHIK_clean_linker_0, # of connection points: 2
#     Edge 38, Type (0, 0), BuildingBlock: UVAHIK_clean_linker_0, # of connection points: 2
#     Edge 39, Type (0, 0), BuildingBlock: UVAHIK_clean_linker_0, # of connection points: 2
#     Edge 40, Type (0, 0), BuildingBlock: UVAHIK_clean_linker_0, # of connection points: 2
#     Edge 41, Type (0, 0), BuildingBlock: UVAHIK_clean_linker_0, # of connection points: 2
#     Edge 42, Type (0, 0), BuildingBlock: UVAHIK_clean_linker_0, # of connection points: 2
#     Edge 43, Type (0, 0), BuildingBlock: UVAHIK_clean_linker_0, # of connection points: 2
#     Edge 44, Type (0, 0), BuildingBlock: UVAHIK_clean_linker_0, # of connection points: 2
#     Edge 45, Type (0, 0), BuildingBlock: UVAHIK_clean_linker_0, # of connection points: 2
#     Edge 46, Type (0, 0), BuildingBlock: UVAHIK_clean_linker_0, # of connection points: 2
#     Edge 47, Type (0, 0), BuildingBlock: UVAHIK_clean_linker_0, # of connection points: 2
#     Edge 48, Type (0, 0), BuildingBlock: UVAHIK_clean_linker_0, # of connection points: 2
#     Edge 49, Type (0, 0), BuildingBlock: UVAHIK_clean_linker_0, # of connection points: 2
#     Edge 50, Type (0, 0), BuildingBlock: UVAHIK_clean_linker_0, # of connection points: 2
#     Edge 51, Type (0, 0), BuildingBlock: UVAHIK_clean_linker_0, # of connection points: 2
#     Edge 52, Type (0, 0), BuildingBlock: UVAHIK_clean_linker_0, # of connection points: 2
#     Edge 53, Type (0, 0), BuildingBlock: UVAHIK_clean_linker_0, # of connection points: 2
#     Edge 54, Type (0, 0), BuildingBlock: UVAHIK_clean_linker_0, # of connection points: 2
#     Edge 55, Type (0, 0), BuildingBlock: UVAHIK_clean_linker_0, # of connection points: 2
#     Edge 56, Type (0, 0), BuildingBlock: UVAHIK_clean_linker_0, # of connection points: 2
#     Edge 57, Type (0, 0), BuildingBlock: UVAHIK_clean_linker_0, # of connection points: 2
#     Edge 58, Type (0, 0), BuildingBlock: UVAHIK_clean_linker_0, # of connection points: 2
#     Edge 59, Type (0, 0), BuildingBlock: UVAHIK_clean_linker_0, # of connection points: 2
#     Edge 60, Type (0, 0), BuildingBlock: UVAHIK_clean_linker_0, # of connection points: 2
#     Edge 61, Type (0, 0), BuildingBlock: UVAHIK_clean_linker_0, # of connection points: 2
#     Edge 62, Type (0, 0), BuildingBlock: UVAHIK_clean_linker_0, # of connection points: 2
#     Edge 63, Type (0, 0), BuildingBlock: UVAHIK_clean_linker_0, # of connection points: 2
# Relax obj value: 0.388
# Max RMSD: 0.269
# Mean RMSD: 0.269
data_MOF--net-whk--node1-MIFKUJ_clean_sbu_0--edge1-UVAHIK_clean_linker_0
_symmetry_space_group_name_H-M    P1
_symmetry_Int_Tables_number       1
_symmetry_cell_setting            triclinic
loop_
_symmetry_equiv_pos_as_xyz
'x, y, z'
_cell_length_a     50.234794
_cell_length_b     50.166691
_cell_length_c     56.141173
_cell_angle_alpha  90.092743
_cell_angle_beta   90.086286
_cell_angle_gamma 90.081893
loop_
_atom_site_label
_atom_site_type_symbol
_atom_site_fract_x
_atom_site_fract_y
_atom_site_fract_z
_atom_type_partial_charge
Zn0 Zn 0.51983 0.16804 0.41608 0.0
Zn1 Zn 0.56868 0.19724 0.40556 0.0
C2 C 0.48542 0.21154 0.41461 0.0
O3 O 0.4786 0.19893 0.43418 0.0
C4 C 0.60872 0.15798 0.41473 0.0
O5 O 0.61626 0.16647 0.39366 0.0
O6 O 0.48796 0.14364 0.42092 0.0
O7 O 0.54323 0.14808 0.39175 0.0
O8 O 0.55398 0.18541 0.37422 0.0
C9 C 0.47683 0.13768 0.4012 0.0
O10 O 0.48721 0.147 0.38142 0.0
O11 O 0.50327 0.20127 0.40139 0.0
C12 C 0.61202 0.22847 0.41721 0.0
O13 O 0.60201 0.22303 0.43826 0.0
O14 O 0.59929 0.2212 0.39875 0.0
O15 O 0.54523 0.21778 0.42734 0.0
O16 O 0.53596 0.18186 0.44793 0.0
O17 O 0.58696 0.16675 0.42338 0.0
C18 C 0.55025 0.16049 0.37304 0.0
C19 C 0.5404 0.20693 0.44724 0.0
Zn20 Zn 0.33779 0.51623 0.399 0.0
Zn21 Zn 0.30808 0.57101 0.39176 0.0
C22 C 0.29393 0.48151 0.40135 0.0
O23 O 0.30691 0.47617 0.42112 0.0
C24 C 0.34395 0.61297 0.40317 0.0
O25 O 0.33363 0.62139 0.38302 0.0
O26 O 0.36257 0.48539 0.40616 0.0
O27 O 0.35561 0.53743 0.37184 0.0
O28 O 0.32126 0.56113 0.35971 0.0
C29 C 0.37194 0.47301 0.38822 0.0
O30 O 0.36609 0.48163 0.36676 0.0
O31 O 0.304 0.49824 0.38688 0.0
C32 C 0.27293 0.61033 0.40644 0.0
O33 O 0.2792 0.59915 0.42682 0.0
O34 O 0.28135 0.59983 0.3873 0.0
O35 O 0.28991 0.5429 0.41063 0.0
O36 O 0.32642 0.53492 0.43039 0.0
O37 O 0.3374 0.58991 0.41072 0.0
C38 C 0.34413 0.55138 0.3559 0.0
C39 C 0.30141 0.53916 0.4304 0.0
Zn40 Zn 0.98639 0.33747 0.3918 0.0
Zn41 Zn 0.92402 0.3094 0.38778 0.0
C42 C 0.01974 0.29303 0.39798 0.0
O43 O 0.02387 0.30681 0.41758 0.0
C44 C 0.88034 0.34029 0.40411 0.0
O45 O 0.87103 0.33016 0.38417 0.0
O46 O 0.01741 0.36244 0.39822 0.0
O47 O 0.96582 0.35291 0.36298 0.0
O48 O 0.93044 0.3272 0.35686 0.0
C49 C 0.03004 0.37095 0.38011 0.0
O50 O 0.02144 0.36443 0.35876 0.0
O51 O 0.00429 0.30266 0.38218 0.0
C52 C 0.89014 0.26809 0.40098 0.0
O53 O 0.90186 0.27365 0.4213 0.0
O54 O 0.89787 0.28006 0.38233 0.0
O55 O 0.95583 0.29298 0.40294 0.0
O56 O 0.96706 0.32821 0.42329 0.0
O57 O 0.90435 0.33519 0.40997 0.0
C58 C 0.9461 0.34558 0.35015 0.0
C59 C 0.96052 0.30369 0.42291 0.0
Zn60 Zn 0.17154 0.98893 0.40016 0.0
Zn61 Zn 0.19805 0.9236 0.39752 0.0
C62 C 0.22225 0.00728 0.37559 0.0
O63 O 0.21615 0.99346 0.35644 0.0
C64 C 0.16932 0.87974 0.4153 0.0
O65 O 0.17775 0.87117 0.3945 0.0
O66 O 0.1458 0.01947 0.40556 0.0
O67 O 0.15753 0.96785 0.37081 0.0
O68 O 0.17701 0.9283 0.36805 0.0
C69 C 0.13869 0.03205 0.38692 0.0
O70 O 0.14726 0.02369 0.36611 0.0
O71 O 0.20631 0.00772 0.39313 0.0
C72 C 0.24004 0.88978 0.4087 0.0
O73 O 0.2352 0.90066 0.42953 0.0
O74 O 0.22764 0.89844 0.39059 0.0
O75 O 0.21404 0.95688 0.41041 0.0
O76 O 0.18045 0.96974 0.43186 0.0
O77 O 0.1748 0.90362 0.42145 0.0
C78 C 0.16121 0.94579 0.35993 0.0
C79 C 0.20453 0.96196 0.43072 0.0
Zn80 Zn 0.02257 0.83411 0.09901 0.0
Zn81 Zn 0.0765 0.80622 0.10608 0.0
C82 C 0.98501 0.79451 0.12054 0.0
O83 O 0.96827 0.81431 0.12351 0.0
C84 C 0.11423 0.84759 0.09504 0.0
O85 O 0.1199 0.84409 0.11767 0.0
O86 O 0.98981 0.85708 0.09285 0.0
O87 O 0.0453 0.85458 0.12378 0.0
O88 O 0.06583 0.81951 0.1381 0.0
C89 C 0.98139 0.87189 0.10969 0.0
O90 O 0.99473 0.87257 0.12982 0.0
O91 O 0.00833 0.79929 0.11284 0.0
C92 C 0.11667 0.77157 0.09271 0.0
O93 O 0.10552 0.7767 0.07204 0.0
O94 O 0.1062 0.78097 0.11148 0.0
O95 O 0.04988 0.78605 0.08699 0.0
O96 O 0.03909 0.8218 0.06696 0.0
O97 O 0.0946 0.83496 0.08606 0.0
C98 C 0.05761 0.84319 0.14077 0.0
C99 C 0.04408 0.79686 0.0673 0.0
Zn100 Zn 0.67176 0.0147 0.11624 0.0
Zn101 Zn 0.69534 0.08004 0.11744 0.0
C102 C 0.71652 0.98236 0.10813 0.0
O103 O 0.70118 0.97693 0.08977 0.0
C104 C 0.65379 0.11524 0.10208 0.0
O105 O 0.65333 0.11987 0.12512 0.0
O106 O 0.64734 0.98273 0.11219 0.0
O107 O 0.65734 0.03501 0.1456 0.0
O108 O 0.67798 0.07404 0.14855 0.0
C109 C 0.64884 0.96634 0.12945 0.0
O110 O 0.66467 0.97207 0.1474 0.0
O111 O 0.70794 0.99842 0.12395 0.0
C112 C 0.73356 0.11667 0.10296 0.0
O113 O 0.72816 0.10451 0.0828 0.0
O114 O 0.7228 0.10821 0.12195 0.0
O115 O 0.71318 0.04813 0.10392 0.0
O116 O 0.67866 0.03383 0.08417 0.0
O117 O 0.6693 0.09725 0.09412 0.0
C118 C 0.66239 0.05651 0.15693 0.0
C119 C 0.70264 0.0421 0.08418 0.0
Zn120 Zn 0.48894 0.66929 0.10068 0.0
Zn121 Zn 0.43637 0.69779 0.10897 0.0
C122 C 0.52483 0.70761 0.12664 0.0
O123 O 0.54042 0.68744 0.13184 0.0
C124 C 0.39912 0.65592 0.09884 0.0
O125 O 0.39422 0.6595 0.1216 0.0
O126 O 0.52159 0.64683 0.09353 0.0
O127 O 0.46654 0.64841 0.12501 0.0
O128 O 0.44753 0.68375 0.14057 0.0
C129 C 0.53049 0.63126 0.10957 0.0
O130 O 0.51765 0.62942 0.12986 0.0
O131 O 0.50309 0.70342 0.11564 0.0
C132 C 0.39595 0.73219 0.09615 0.0
O133 O 0.40699 0.72704 0.07546 0.0
O134 O 0.40659 0.72287 0.11489 0.0
O135 O 0.46264 0.71798 0.08951 0.0
O136 O 0.47176 0.68207 0.06908 0.0
O137 O 0.41805 0.66896 0.08925 0.0
C138 C 0.4545 0.65956 0.14229 0.0
C139 C 0.46726 0.70709 0.06959 0.0
Zn140 Zn 0.83826 0.48802 0.08915 0.0
Zn141 Zn 0.80897 0.43866 0.10036 0.0
C142 C 0.79453 0.52237 0.0889 0.0
O143 O 0.80781 0.52912 0.06968 0.0
C144 C 0.84779 0.39799 0.09325 0.0
O145 O 0.83826 0.39129 0.11419 0.0
O146 O 0.86222 0.5204 0.08405 0.0
O147 O 0.8576 0.46597 0.11485 0.0
O148 O 0.82007 0.45425 0.13156 0.0
C149 C 0.86349 0.53476 0.10279 0.0
O150 O 0.85103 0.52657 0.12201 0.0
O151 O 0.80424 0.50447 0.10242 0.0
C152 C 0.77704 0.39567 0.08886 0.0
O153 O 0.78302 0.40526 0.06777 0.0
O154 O 0.78444 0.40843 0.10727 0.0
O155 O 0.78922 0.46171 0.07766 0.0
O156 O 0.82551 0.47038 0.05747 0.0
O157 O 0.83979 0.41962 0.08375 0.0
C158 C 0.84481 0.45875 0.13329 0.0
C159 C 0.80048 0.46579 0.05783 0.0
Zn160 Zn 0.42999 0.80345 0.60544 0.0
Zn161 Zn 0.48352 0.83307 0.6001 0.0
C162 C 0.38832 0.83935 0.5938 0.0
O163 O 0.3803 0.8299 0.6144 0.0
C164 C 0.52096 0.79339 0.62121 0.0
O165 O 0.53859 0.81271 0.62192 0.0
O166 O 0.4011 0.77692 0.60987 0.0
O167 O 0.45778 0.78468 0.58664 0.0
O168 O 0.46837 0.82096 0.56731 0.0
C169 C 0.39016 0.76895 0.59074 0.0
O170 O 0.40137 0.77496 0.57031 0.0
O171 O 0.41115 0.83238 0.58606 0.0
C172 C 0.52353 0.87101 0.61344 0.0
O173 O 0.50951 0.87007 0.63314 0.0
O174 O 0.51613 0.85694 0.59569 0.0
O175 O 0.45905 0.85273 0.62384 0.0
O176 O 0.43913 0.817 0.63773 0.0
O177 O 0.49725 0.79843 0.61466 0.0
C178 C 0.46368 0.79595 0.5672 0.0
C179 C 0.44592 0.84118 0.64025 0.0
Zn180 Zn 0.6966 0.43684 0.61368 0.0
Zn181 Zn 0.66688 0.48657 0.60353 0.0
C182 C 0.65808 0.39573 0.6062 0.0
O183 O 0.66877 0.38801 0.62641 0.0
C184 C 0.71088 0.5207 0.6017 0.0
O185 O 0.6975 0.52649 0.58226 0.0
O186 O 0.7216 0.40683 0.61949 0.0
O187 O 0.71553 0.4607 0.59107 0.0
O188 O 0.67854 0.46862 0.57171 0.0
C189 C 0.72865 0.39474 0.60065 0.0
O190 O 0.72207 0.40494 0.57993 0.0
O191 O 0.66534 0.41798 0.59736 0.0
C192 C 0.64178 0.53368 0.6164 0.0
O193 O 0.65524 0.52675 0.63549 0.0
O194 O 0.64246 0.51842 0.59823 0.0
O195 O 0.64843 0.46456 0.6298 0.0
O196 O 0.68608 0.45125 0.64538 0.0
O197 O 0.70115 0.50356 0.61598 0.0
C198 C 0.70359 0.46426 0.57145 0.0
C199 C 0.66145 0.45595 0.64768 0.0
Zn200 Zn 0.08073 0.69567 0.61298 0.0
Zn201 Zn 0.01727 0.66628 0.61027 0.0
C202 C 0.12525 0.66806 0.59494 0.0
O203 O 0.13405 0.67708 0.61548 0.0
C204 C 0.98321 0.70977 0.6046 0.0
O205 O 0.97924 0.69575 0.58511 0.0
O206 O 0.10511 0.72599 0.62025 0.0
O207 O 0.04733 0.71068 0.59948 0.0
O208 O 0.03587 0.67595 0.57861 0.0
C209 C 0.11201 0.73989 0.60243 0.0
O210 O 0.10008 0.7357 0.58196 0.0
O211 O 0.10123 0.67298 0.58904 0.0
C212 C 0.97459 0.63156 0.6222 0.0
O213 O 0.98348 0.63755 0.64357 0.0
O214 O 0.98673 0.6408 0.60412 0.0
O215 O 0.03907 0.6509 0.63823 0.0
O216 O 0.07665 0.67387 0.64212 0.0
O217 O 0.99899 0.70061 0.62035 0.0
C218 C 0.04272 0.70036 0.57934 0.0
C219 C 0.06062 0.65608 0.64939 0.0
Zn220 Zn 0.80956 0.08251 0.6097 0.0
Zn221 Zn 0.83139 0.01387 0.60604 0.0
C222 C 0.83733 0.12611 0.59052 0.0
O223 O 0.83088 0.1344 0.61196 0.0
C224 C 0.77934 1.00108 0.63036 0.0
O225 O 0.78302 0.02155 0.64461 0.0
O226 O 0.78136 0.10795 0.61963 0.0
O227 O 0.79111 0.04994 0.59787 0.0
O228 O 0.82113 0.03277 0.57464 0.0
C229 C 0.76644 0.11613 0.60292 0.0
O230 O 0.76869 0.10509 0.5818 0.0
O231 O 0.83079 0.1025 0.58436 0.0
C232 C 0.86472 0.97071 0.61779 0.0
O233 O 0.85746 0.97915 0.63897 0.0
O234 O 0.85653 0.98325 0.59949 0.0
O235 O 0.84777 0.03481 0.63441 0.0
O236 O 0.83336 0.07653 0.63722 0.0
O237 O 0.79709 0.99518 0.61512 0.0
C238 C 0.79843 0.0436 0.57712 0.0
C239 C 0.84753 0.05745 0.64484 0.0
Zn240 Zn 0.92118 0.19714 0.89874 0.0
Zn241 Zn 0.98778 0.17374 0.90328 0.0
C242 C 0.87725 0.16879 0.91675 0.0
O243 O 0.86906 0.17592 0.89546 0.0
C244 C 0.00322 0.22502 0.87823 0.0
O245 O 0.9873 0.21915 0.86038 0.0
O246 O 0.89585 0.22575 0.88954 0.0
O247 O 0.95324 0.21514 0.91217 0.0
O248 O 0.96823 0.18307 0.93453 0.0
C249 C 0.88776 0.24029 0.90656 0.0
O250 O 0.89912 0.23778 0.92752 0.0
O251 O 0.9008 0.17508 0.92316 0.0
C252 C 0.03423 0.14675 0.8916 0.0
O253 O 0.02848 0.16 0.87209 0.0
O254 O 0.01862 0.14875 0.90936 0.0
O255 O 0.96794 0.15772 0.87431 0.0
O256 O 0.92724 0.1743 0.87051 0.0
O257 O 0.00573 0.20878 0.89542 0.0
C258 C 0.95902 0.2066 0.9327 0.0
C259 C 0.94581 0.15927 0.86322 0.0
Zn260 Zn 0.30293 0.92858 0.89569 0.0
Zn261 Zn 0.33455 0.98524 0.89982 0.0
C262 C 0.33613 0.88477 0.90817 0.0
O263 O 0.32467 0.87568 0.88873 0.0
C264 C 0.29166 0.02134 0.90329 0.0
O265 O 0.30677 0.02879 0.92124 0.0
O266 O 0.27403 0.90163 0.89149 0.0
O267 O 0.28751 0.9585 0.9147 0.0
O268 O 0.32577 0.96667 0.93175 0.0
C269 C 0.26233 0.89347 0.91014 0.0
O270 O 0.267 0.9057 0.9304 0.0
O271 O 0.33098 0.90849 0.91489 0.0
C272 C 0.36239 0.03171 0.88705 0.0
O273 O 0.34958 0.02562 0.86734 0.0
O274 O 0.35992 0.01637 0.90497 0.0
O275 O 0.35006 0.96404 0.87175 0.0
O276 O 0.31724 0.93616 0.86331 0.0
O277 O 0.29974 0.00262 0.88978 0.0
C278 C 0.3008 0.96261 0.93352 0.0
C279 C 0.33881 0.94766 0.85755 0.0
Zn280 Zn 0.56841 0.30418 0.89507 0.0
Zn281 Zn 0.51878 0.33545 0.90407 0.0
C282 C 0.61146 0.34056 0.90304 0.0
O283 O 0.61903 0.32915 0.88309 0.0
C284 C 0.4821 0.29256 0.90389 0.0
O285 O 0.4739 0.30675 0.92214 0.0
O286 O 0.59721 0.2777 0.88945 0.0
O287 O 0.5432 0.28645 0.91763 0.0
O288 O 0.53662 0.32448 0.93578 0.0
C289 C 0.60868 0.2697 0.90829 0.0
O290 O 0.59818 0.27586 0.92898 0.0
O291 O 0.58872 0.33455 0.91159 0.0
C292 C 0.47325 0.36458 0.89174 0.0
O293 O 0.47998 0.35328 0.87149 0.0
O294 O 0.48781 0.36055 0.90997 0.0
O295 O 0.54098 0.3535 0.87795 0.0
O296 O 0.55535 0.31578 0.86305 0.0
O297 O 0.50147 0.30131 0.89152 0.0
C298 C 0.53989 0.2993 0.93683 0.0
C299 C 0.55032 0.34036 0.86045 0.0
Zn300 Zn 0.20138 0.57034 0.90174 0.0
Zn301 Zn 0.17076 0.52042 0.91014 0.0
C302 C 0.16292 0.611 0.90845 0.0
O303 O 0.17349 0.61785 0.88795 0.0
C304 C 0.21315 0.48367 0.90865 0.0
O305 O 0.19871 0.47451 0.92634 0.0
O306 O 0.22656 0.6006 0.89684 0.0
O307 O 0.2197 0.5453 0.92409 0.0
O308 O 0.182 0.53716 0.94224 0.0
C309 C 0.23308 0.61261 0.91591 0.0
O310 O 0.22667 0.6018 0.93641 0.0
O311 O 0.17028 0.58919 0.91804 0.0
C312 C 0.13851 0.47807 0.89523 0.0
O313 O 0.14722 0.48808 0.87508 0.0
O314 O 0.14563 0.48909 0.91469 0.0
O315 O 0.15262 0.54352 0.88482 0.0
O316 O 0.19029 0.5573 0.86956 0.0
O317 O 0.2047 0.50377 0.89706 0.0
C318 C 0.2071 0.54088 0.94321 0.0
C319 C 0.16568 0.55234 0.86711 0.0
C320 C 0.56435 0.11937 0.3506 0.0
C321 C 0.55645 0.14624 0.35059 0.0
C322 C 0.57318 0.10718 0.32952 0.0
C323 C 0.6015 0.12619 0.27094 0.0
H324 H 0.59299 0.05126 0.2557 0.0
C325 C 0.6625 0.07984 0.19613 0.0
C326 C 0.64998 0.06196 0.1804 0.0
C327 C 0.65024 0.08746 0.21731 0.0
C328 C 0.59534 0.07227 0.25959 0.0
H329 H 0.54977 0.1808 0.32828 0.0
H330 H 0.56401 0.15945 0.29161 0.0
H331 H 0.57127 0.06973 0.29108 0.0
H332 H 0.61512 0.03716 0.17511 0.0
H333 H 0.59313 0.05113 0.21211 0.0
H334 H 0.6248 0.12916 0.23936 0.0
C335 C 0.56452 0.14795 0.3079 0.0
C336 C 0.58313 0.08282 0.28003 0.0
C337 C 0.55615 0.16019 0.32894 0.0
C338 C 0.62525 0.051 0.18687 0.0
C339 C 0.61271 0.05896 0.2081 0.0
C340 C 0.61347 0.11577 0.25057 0.0
C341 C 0.57396 0.12155 0.30798 0.0
C342 C 0.58613 0.10995 0.286 0.0
C343 C 0.62483 0.07782 0.2233 0.0
C344 C 0.61089 0.08862 0.24472 0.0
H345 H 0.56484 0.10814 0.36705 0.0
H346 H 0.58042 0.08689 0.33035 0.0
H347 H 0.60475 0.14704 0.27503 0.0
H348 H 0.68179 0.08829 0.19193 0.0
H349 H 0.66062 0.10131 0.22888 0.0
C350 C 0.42518 0.65388 0.17776 0.0
C351 C 0.446 0.64413 0.16349 0.0
C352 C 0.41606 0.63937 0.19728 0.0
C353 C 0.43363 0.59299 0.24327 0.0
H354 H 0.35762 0.57993 0.2464 0.0
C355 C 0.38186 0.54574 0.32646 0.0
C356 C 0.35753 0.55757 0.33296 0.0
C357 C 0.39409 0.55224 0.30472 0.0
C358 C 0.37887 0.58354 0.24595 0.0
H359 H 0.4739 0.6116 0.15889 0.0
H360 H 0.45829 0.58644 0.19383 0.0
H361 H 0.37683 0.59913 0.21051 0.0
H362 H 0.32734 0.58587 0.32176 0.0
H363 H 0.34865 0.59743 0.28466 0.0
H364 H 0.43548 0.57874 0.27926 0.0
C365 C 0.44898 0.60527 0.18949 0.0
C366 C 0.38986 0.59436 0.2253 0.0
C367 C 0.45782 0.61962 0.16952 0.0
C368 C 0.34588 0.57606 0.31733 0.0
C369 C 0.35807 0.58259 0.29583 0.0
C370 C 0.42255 0.58243 0.26418 0.0
C371 C 0.42777 0.61493 0.20333 0.0
C372 C 0.41721 0.59982 0.22395 0.0
C373 C 0.38224 0.5707 0.28908 0.0
C374 C 0.39487 0.57832 0.26601 0.0
H375 H 0.4155 0.67259 0.17362 0.0
H376 H 0.39981 0.64734 0.20777 0.0
H377 H 0.45479 0.59711 0.24266 0.0
H378 H 0.39138 0.53142 0.33809 0.0
H379 H 0.41266 0.54262 0.30007 0.0
C380 C 0.95012 0.38432 0.32155 0.0
C381 C 0.94048 0.35869 0.32697 0.0
C382 C 0.94227 0.39715 0.30044 0.0
C383 C 0.88755 0.3948 0.256 0.0
H384 H 0.93311 0.44019 0.21786 0.0
C385 C 0.84382 0.45225 0.17734 0.0
C386 C 0.85851 0.45287 0.15609 0.0
C387 C 0.85558 0.44393 0.19861 0.0
C388 C 0.92017 0.42745 0.22825 0.0
H389 H 0.91656 0.32581 0.31367 0.0
H390 H 0.90367 0.34763 0.277 0.0
H391 H 0.95108 0.41847 0.25347 0.0
H392 H 0.89745 0.44623 0.14067 0.0
H393 H 0.91793 0.43084 0.17779 0.0
H394 H 0.85695 0.40272 0.23066 0.0
C395 C 0.91643 0.35836 0.28928 0.0
C396 C 0.93041 0.41523 0.24881 0.0
C397 C 0.92398 0.34575 0.31033 0.0
C398 C 0.88563 0.44601 0.15679 0.0
C399 C 0.89737 0.43727 0.1781 0.0
C400 C 0.87742 0.40683 0.23553 0.0
C401 C 0.92482 0.3845 0.28429 0.0
C402 C 0.91424 0.39852 0.26282 0.0
C403 C 0.88228 0.4355 0.19919 0.0
C404 C 0.89351 0.42333 0.22131 0.0
H405 H 0.9629 0.3948 0.33399 0.0
H406 H 0.94911 0.4173 0.29719 0.0
H407 H 0.8743 0.38252 0.26652 0.0
H408 H 0.82298 0.4578 0.17748 0.0
H409 H 0.84349 0.44363 0.21456 0.0
C410 C 0.13287 0.95892 0.32438 0.0
C411 C 0.14636 0.93934 0.33767 0.0
C412 C 0.11934 0.95204 0.30327 0.0
C413 C 0.089 0.89395 0.27289 0.0
H414 H 0.10224 0.93137 0.2137 0.0
C415 C 0.07446 0.84316 0.18271 0.0
C416 C 0.06343 0.85735 0.16351 0.0
C417 C 0.08077 0.856 0.20405 0.0
C418 C 0.09793 0.92098 0.23015 0.0
H419 H 0.15583 0.89713 0.33916 0.0
H420 H 0.13237 0.88536 0.30294 0.0
H421 H 0.12005 0.94921 0.25121 0.0
H422 H 0.05039 0.8964 0.15184 0.0
H423 H 0.06164 0.91901 0.1894 0.0
H424 H 0.06751 0.86541 0.25204 0.0
C425 C 0.1321 0.90598 0.30871 0.0
C426 C 0.10814 0.93121 0.25162 0.0
C427 C 0.14577 0.91283 0.32946 0.0
C428 C 0.0588 0.88486 0.16629 0.0
C429 C 0.06536 0.89783 0.18774 0.0
C430 C 0.07881 0.88381 0.25156 0.0
C431 C 0.11867 0.92539 0.29534 0.0
C432 C 0.10449 0.9173 0.27312 0.0
C433 C 0.07635 0.88347 0.20691 0.0
C434 C 0.08386 0.89669 0.2298 0.0
H435 H 0.13296 0.97953 0.33016 0.0
H436 H 0.10914 0.96744 0.29332 0.0
H437 H 0.08534 0.88305 0.28921 0.0
H438 H 0.07839 0.822 0.18129 0.0
H439 H 0.08964 0.84438 0.21823 0.0
C440 C 0.37373 0.95438 0.82562 0.0
C441 C 0.35108 0.94094 0.83418 0.0
C442 C 0.38499 0.94742 0.80356 0.0
C443 C 0.36871 0.91099 0.74733 0.0
H444 H 0.44522 0.90527 0.73982 0.0
C445 C 0.41608 0.8453 0.67564 0.0
C446 C 0.43668 0.85599 0.66164 0.0
C447 C 0.40657 0.859 0.69552 0.0
C448 C 0.42383 0.90713 0.74157 0.0
H449 H 0.32284 0.9093 0.82625 0.0
H450 H 0.34252 0.89702 0.78852 0.0
H451 H 0.42678 0.92322 0.77693 0.0
H452 H 0.46363 0.88951 0.65784 0.0
H453 H 0.44727 0.91332 0.69322 0.0
H454 H 0.36572 0.89394 0.71244 0.0
C455 C 0.35133 0.91339 0.79838 0.0
C456 C 0.41324 0.91746 0.7628 0.0
C457 C 0.34009 0.92036 0.82022 0.0
C458 C 0.44775 0.88072 0.66823 0.0
C459 C 0.43846 0.89431 0.6885 0.0
C460 C 0.37926 0.90048 0.72632 0.0
C461 C 0.37383 0.92686 0.78961 0.0
C462 C 0.38549 0.91888 0.76618 0.0
C463 C 0.41757 0.88366 0.70219 0.0
C464 C 0.40689 0.89785 0.7234 0.0
H465 H 0.38271 0.97033 0.83589 0.0
H466 H 0.40223 0.95833 0.79733 0.0
H467 H 0.34729 0.91248 0.74894 0.0
H468 H 0.40697 0.82637 0.67109 0.0
H469 H 0.39067 0.85014 0.70586 0.0
C470 C 0.56717 0.33864 0.81849 0.0
C471 C 0.55761 0.35377 0.83776 0.0
C472 C 0.57611 0.35105 0.79772 0.0
C473 C 0.57562 0.41444 0.76356 0.0
H474 H 0.64051 0.3854 0.73677 0.0
C475 C 0.66321 0.44085 0.69012 0.0
C476 C 0.64795 0.44846 0.67025 0.0
C477 C 0.65101 0.4313 0.71074 0.0
C478 C 0.6225 0.39396 0.74408 0.0
H479 H 0.54916 0.39394 0.84989 0.0
H480 H 0.5651 0.41569 0.8136 0.0
H481 H 0.62124 0.36507 0.77196 0.0
H482 H 0.60767 0.45287 0.65692 0.0
H483 H 0.58627 0.43586 0.69302 0.0
H484 H 0.57734 0.4437 0.73571 0.0
C485 C 0.56545 0.39414 0.81455 0.0
C486 C 0.61121 0.38204 0.76413 0.0
C487 C 0.55642 0.38167 0.8354 0.0
C488 C 0.62003 0.4472 0.67189 0.0
C489 C 0.60776 0.43751 0.69262 0.0
C490 C 0.58694 0.4264 0.74336 0.0
C491 C 0.57588 0.37898 0.79561 0.0
C492 C 0.5876 0.39204 0.77416 0.0
C493 C 0.62317 0.42892 0.71212 0.0
C494 C 0.61062 0.41636 0.73344 0.0
H495 H 0.56816 0.31711 0.81953 0.0
H496 H 0.58345 0.33869 0.78333 0.0
H497 H 0.55733 0.42257 0.77071 0.0
H498 H 0.68475 0.44182 0.68963 0.0
H499 H 0.66351 0.42548 0.72559 0.0
C500 C 0.04934 0.6262 0.68422 0.0
C501 C 0.06815 0.64076 0.67098 0.0
C502 C 0.05706 0.61258 0.70496 0.0
C503 C 0.11626 0.58422 0.73463 0.0
H504 H 0.07891 0.59662 0.794 0.0
C505 C 0.16692 0.56858 0.82498 0.0
C506 C 0.15223 0.55825 0.84415 0.0
C507 C 0.15443 0.57498 0.80351 0.0
C508 C 0.08932 0.59253 0.77751 0.0
H509 H 0.1099 0.65186 0.66893 0.0
H510 H 0.12318 0.62812 0.70458 0.0
H511 H 0.06053 0.61394 0.75669 0.0
H512 H 0.11276 0.54629 0.85561 0.0
H513 H 0.0909 0.5574 0.81791 0.0
H514 H 0.14526 0.56326 0.75525 0.0
C515 C 0.10252 0.62718 0.69908 0.0
C516 C 0.07876 0.60246 0.75615 0.0
C517 C 0.09481 0.64099 0.67869 0.0
C518 C 0.12468 0.55426 0.84121 0.0
C519 C 0.11212 0.56074 0.81965 0.0
C520 C 0.12671 0.57423 0.75587 0.0
C521 C 0.0838 0.61288 0.71252 0.0
C522 C 0.09256 0.59906 0.7346 0.0
C523 C 0.12688 0.5712 0.80053 0.0
C524 C 0.11382 0.57892 0.77769 0.0
H525 H 0.02866 0.62566 0.67877 0.0
H526 H 0.04222 0.60167 0.71498 0.0
H527 H 0.12709 0.58085 0.71823 0.0
H528 H 0.18814 0.57204 0.82658 0.0
H529 H 0.16637 0.58346 0.78936 0.0
C530 C 0.8719 0.08862 0.67189 0.0
C531 C 0.86422 0.06238 0.66626 0.0
C532 C 0.88604 0.09419 0.69273 0.0
C533 C 0.89435 0.07088 0.75337 0.0
H534 H 0.95068 0.12387 0.75545 0.0
C535 C 0.91439 0.13743 0.83467 0.0
C536 C 0.94078 0.14287 0.84161 0.0
C537 C 0.90896 0.12294 0.81399 0.0
C538 C 0.93527 0.10875 0.75519 0.0
H539 H 0.86593 0.02127 0.67794 0.0
H540 H 0.89026 0.03118 0.71497 0.0
H541 H 0.93503 0.10687 0.71702 0.0
H542 H 0.9822 0.13694 0.83231 0.0
H543 H 0.9726 0.11199 0.79553 0.0
H544 H 0.89377 0.07363 0.79148 0.0
C545 C 0.88541 0.04735 0.70297 0.0
C546 C 0.92618 0.09915 0.73318 0.0
C547 C 0.8716 0.04167 0.68177 0.0
C548 C 0.96168 0.13307 0.82745 0.0
C549 C 0.95619 0.11888 0.8064 0.0
C550 C 0.90322 0.08071 0.77535 0.0
C551 C 0.8926 0.07374 0.70874 0.0
C552 C 0.90516 0.08061 0.732 0.0
C553 C 0.92973 0.11373 0.79944 0.0
C554 C 0.92331 0.10026 0.77648 0.0
H555 H 0.86671 0.10503 0.66026 0.0
H556 H 0.89097 0.11474 0.69675 0.0
H557 H 0.87804 0.05673 0.75306 0.0
H558 H 0.89779 0.1445 0.84522 0.0
H559 H 0.88838 0.11964 0.809 0.0
C560 C 0.43704 0.11597 0.42048 0.0
C561 C 0.45202 0.1217 0.39999 0.0
C562 C 0.41271 0.10235 0.4186 0.0
C563 C 0.37339 0.0589 0.3782 0.0
H564 H 0.31262 0.08688 0.41249 0.0
C565 C 0.26575 0.02337 0.35853 0.0
C566 C 0.24857 0.02046 0.37808 0.0
C567 C 0.29081 0.0353 0.36143 0.0
C568 C 0.32942 0.07855 0.40301 0.0
H569 H 0.45352 0.117 0.36156 0.0
H570 H 0.41142 0.09341 0.35837 0.0
H571 H 0.35628 0.10716 0.41813 0.0
H572 H 0.24447 0.02743 0.41609 0.0
H573 H 0.28802 0.04759 0.42115 0.0
H574 H 0.34662 0.03023 0.36311 0.0
C575 C 0.4184 0.09926 0.37588 0.0
C576 C 0.35448 0.09019 0.40628 0.0
C577 C 0.4425 0.11296 0.37773 0.0
C578 C 0.25702 0.02965 0.40054 0.0
C579 C 0.28204 0.04135 0.40346 0.0
C580 C 0.34836 0.04716 0.37501 0.0
C581 C 0.40306 0.094 0.39623 0.0
C582 C 0.37673 0.08062 0.39381 0.0
C583 C 0.29929 0.0444 0.38396 0.0
C584 C 0.326 0.0569 0.38729 0.0
H585 H 0.44382 0.12244 0.43788 0.0
H586 H 0.40145 0.09838 0.43464 0.0
H587 H 0.3902 0.05086 0.36852 0.0
H588 H 0.25983 0.01653 0.341 0.0
H589 H 0.30342 0.03762 0.34594 0.0
C590 C 0.40066 0.4369 0.37143 0.0
C591 C 0.38746 0.44813 0.39109 0.0
C592 C 0.41369 0.41241 0.37343 0.0
C593 C 0.43936 0.36346 0.41768 0.0
H594 H 0.43239 0.31372 0.36503 0.0
C595 C 0.4597 0.2514 0.42782 0.0
C596 C 0.47491 0.23866 0.41015 0.0
C597 C 0.45087 0.27751 0.42472 0.0
C598 C 0.43479 0.32751 0.37975 0.0
H599 H 0.37799 0.44264 0.42841 0.0
H600 H 0.40019 0.39962 0.43182 0.0
H601 H 0.41377 0.35842 0.36154 0.0
H602 H 0.49249 0.24333 0.37517 0.0
H603 H 0.47654 0.28912 0.36953 0.0
H604 H 0.45969 0.33215 0.43611 0.0
C605 C 0.40095 0.40995 0.41492 0.0
C606 C 0.42418 0.35319 0.37777 0.0
C607 C 0.3881 0.4346 0.41296 0.0
C608 C 0.48074 0.25257 0.38907 0.0
C609 C 0.47161 0.27873 0.38584 0.0
C610 C 0.44976 0.33773 0.41972 0.0
C611 C 0.41367 0.39837 0.39509 0.0
C612 C 0.4261 0.37145 0.3968 0.0
C613 C 0.45681 0.29154 0.40378 0.0
C614 C 0.44734 0.31939 0.40088 0.0
H615 H 0.40074 0.44692 0.35435 0.0
H616 H 0.42372 0.40444 0.35791 0.0
H617 H 0.44174 0.37709 0.43251 0.0
H618 H 0.45486 0.24136 0.44433 0.0
H619 H 0.43919 0.28668 0.4387 0.0
C620 C 0.0669 0.39829 0.36277 0.0
C621 C 0.05534 0.38594 0.38269 0.0
C622 C 0.09182 0.41058 0.36448 0.0
C623 C 0.14194 0.43583 0.40805 0.0
H624 H 0.19065 0.42632 0.35515 0.0
C625 C 0.25439 0.45632 0.41625 0.0
C626 C 0.26676 0.47062 0.39778 0.0
C627 C 0.22824 0.44726 0.41385 0.0
C628 C 0.17718 0.42941 0.36995 0.0
H629 H 0.06068 0.37726 0.4202 0.0
H630 H 0.10442 0.39819 0.42313 0.0
H631 H 0.14556 0.40853 0.35247 0.0
H632 H 0.26139 0.48628 0.36213 0.0
H633 H 0.21559 0.47002 0.3578 0.0
H634 H 0.17392 0.45612 0.42571 0.0
C635 C 0.09405 0.39885 0.40623 0.0
C636 C 0.15127 0.41927 0.36842 0.0
C637 C 0.06897 0.38674 0.40455 0.0
C638 C 0.25246 0.47526 0.37665 0.0
C639 C 0.22627 0.46592 0.37416 0.0
C640 C 0.16791 0.44576 0.40963 0.0
C641 C 0.10596 0.41064 0.38612 0.0
C642 C 0.13331 0.42222 0.3875 0.0
C643 C 0.21381 0.45206 0.39286 0.0
C644 C 0.18588 0.44251 0.39067 0.0
H645 H 0.05683 0.39823 0.3457 0.0
H646 H 0.10002 0.41995 0.34876 0.0
H647 H 0.12859 0.43895 0.42291 0.0
H648 H 0.26476 0.45241 0.4328 0.0
H649 H 0.21935 0.43631 0.42844 0.0
C650 C 0.11966 0.07051 0.41008 0.0
C651 C 0.12285 0.05691 0.38838 0.0
C652 C 0.10671 0.09522 0.41079 0.0
C653 C 0.08808 0.15179 0.3714 0.0
H654 H 0.04534 0.17327 0.42553 0.0
C655 C 0.02868 0.25117 0.37447 0.0
C656 C 0.03097 0.26583 0.39574 0.0
C657 C 0.03877 0.22517 0.37299 0.0
C658 C 0.05734 0.16759 0.41033 0.0
H659 H 0.11392 0.05804 0.35058 0.0
H660 H 0.09077 0.10054 0.35192 0.0
H661 H 0.06424 0.12854 0.4243 0.0
H662 H 0.04558 0.26459 0.43214 0.0
H663 H 0.06299 0.21948 0.42953 0.0
H664 H 0.08097 0.19089 0.35743 0.0
C665 C 0.09891 0.09263 0.36831 0.0
C666 C 0.06826 0.14196 0.40966 0.0
C667 C 0.11204 0.06811 0.36758 0.0
C668 C 0.04352 0.25394 0.41544 0.0
C669 C 0.05333 0.22796 0.41404 0.0
C670 C 0.07697 0.17734 0.372 0.0
C671 C 0.09646 0.10678 0.38984 0.0
C672 C 0.08398 0.13377 0.39027 0.0
C673 C 0.05104 0.21324 0.39284 0.0
C674 C 0.06169 0.18562 0.39158 0.0
H675 H 0.12789 0.06248 0.4264 0.0
H676 H 0.1055 0.10561 0.42767 0.0
H677 H 0.10045 0.14644 0.35636 0.0
H678 H 0.01905 0.25973 0.359 0.0
H679 H 0.0366 0.21425 0.35645 0.0
C680 C 0.93808 0.88144 0.08878 0.0
C681 C 0.95556 0.88602 0.10793 0.0
C682 C 0.91278 0.89317 0.08847 0.0
C683 C 0.86262 0.9223 0.1292 0.0
H684 H 0.83052 0.94827 0.07089 0.0
C685 C 0.76151 0.97818 0.12761 0.0
C686 C 0.7439 0.97142 0.10908 0.0
C687 C 0.78768 0.96852 0.12762 0.0
C688 C 0.83912 0.94089 0.0873 0.0
H689 H 0.96052 0.90737 0.14131 0.0
H690 H 0.9168 0.92807 0.14054 0.0
H691 H 0.87566 0.93045 0.07007 0.0
H692 H 0.73993 0.94897 0.07616 0.0
H693 H 0.78523 0.93206 0.07634 0.0
H694 H 0.82604 0.93268 0.14641 0.0
C695 C 0.92231 0.91497 0.12602 0.0
C696 C 0.865 0.93065 0.08682 0.0
C697 C 0.94749 0.90322 0.12636 0.0
C698 C 0.75295 0.95465 0.09071 0.0
C699 C 0.77903 0.94509 0.09069 0.0
C700 C 0.83676 0.93258 0.12969 0.0
C701 C 0.90445 0.90979 0.10728 0.0
C702 C 0.87706 0.92114 0.10775 0.0
C703 C 0.79679 0.952 0.10905 0.0
C704 C 0.82463 0.94187 0.10872 0.0
H705 H 0.94363 0.86822 0.07436 0.0
H706 H 0.89946 0.88857 0.07384 0.0
H707 H 0.87109 0.91474 0.1456 0.0
H708 H 0.7552 0.99115 0.14196 0.0
H709 H 0.80092 0.97439 0.14194 0.0
C710 C 0.52123 0.75655 0.11842 0.0
C711 C 0.53421 0.7354 0.13008 0.0
C712 C 0.53163 0.78237 0.11931 0.0
C713 C 0.57578 0.8269 0.15301 0.0
H714 H 0.58557 0.86308 0.09264 0.0
C715 C 0.64102 0.92073 0.14566 0.0
C716 C 0.63401 0.94079 0.12939 0.0
C717 C 0.62741 0.89648 0.146 0.0
C718 C 0.58258 0.85356 0.10972 0.0
H719 H 0.56773 0.72509 0.1526 0.0
H720 H 0.58562 0.77043 0.15455 0.0
H721 H 0.56387 0.81959 0.09359 0.0
H722 H 0.60702 0.95117 0.10075 0.0
H723 H 0.58256 0.90899 0.10177 0.0
H724 H 0.59398 0.86087 0.16929 0.0
C725 C 0.56747 0.76687 0.14459 0.0
C726 C 0.57022 0.82855 0.11023 0.0
C727 C 0.55726 0.74091 0.14343 0.0
C728 C 0.61295 0.93605 0.11344 0.0
C729 C 0.59904 0.9118 0.11397 0.0
C730 C 0.5878 0.85205 0.15256 0.0
C731 C 0.55503 0.78775 0.13216 0.0
C732 C 0.56698 0.81484 0.13185 0.0
C733 C 0.6061 0.89167 0.13029 0.0
C734 C 0.59174 0.86559 0.13086 0.0
H735 H 0.50345 0.75306 0.10792 0.0
H736 H 0.52149 0.79814 0.10977 0.0
H737 H 0.57321 0.81694 0.16996 0.0
H738 H 0.65734 0.92359 0.15804 0.0
H739 H 0.63395 0.88134 0.15841 0.0
C740 C 0.56511 0.59933 0.12407 0.0
C741 C 0.55622 0.61727 0.10657 0.0
C742 C 0.59017 0.58745 0.12231 0.0
C743 C 0.64494 0.57334 0.0799 0.0
H744 H 0.68773 0.56819 0.13731 0.0
C745 C 0.75708 0.55194 0.0766 0.0
C746 C 0.76755 0.53338 0.09284 0.0
C747 C 0.73102 0.56111 0.07888 0.0
C748 C 0.67591 0.56919 0.12119 0.0
H749 H 0.56655 0.63644 0.07325 0.0
H750 H 0.61045 0.61599 0.0703 0.0
H751 H 0.64255 0.58582 0.1396 0.0
H752 H 0.75894 0.51029 0.12452 0.0
H753 H 0.71319 0.52654 0.12859 0.0
H754 H 0.67847 0.5571 0.06146 0.0
C755 C 0.59789 0.6108 0.08526 0.0
C756 C 0.64999 0.57927 0.12247 0.0
C757 C 0.57275 0.62262 0.08698 0.0
C758 C 0.75149 0.52465 0.11177 0.0
C759 C 0.72532 0.53397 0.11412 0.0
C760 C 0.67086 0.56337 0.07862 0.0
C761 C 0.60703 0.59328 0.10304 0.0
C762 C 0.63426 0.58166 0.10181 0.0
C763 C 0.71472 0.55204 0.09747 0.0
C764 C 0.68673 0.56142 0.0992 0.0
H765 H 0.55282 0.59462 0.13933 0.0
H766 H 0.59635 0.5737 0.1361 0.0
H767 H 0.63324 0.57441 0.06372 0.0
H768 H 0.76889 0.55919 0.06184 0.0
H769 H 0.72363 0.5754 0.06603 0.0
C770 C 0.98908 0.74618 0.10966 0.0
C771 C 0.97528 0.76659 0.1216 0.0
C772 C 0.97807 0.72064 0.10759 0.0
C773 C 0.91258 0.68575 0.11173 0.0
H774 H 0.95601 0.62199 0.10835 0.0
C775 C 0.86986 0.57982 0.12059 0.0
C776 C 0.87707 0.561 0.10318 0.0
C777 C 0.88235 0.60464 0.12166 0.0
C778 C 0.9437 0.63969 0.10901 0.0
H779 H 0.93982 0.77572 0.1419 0.0
H780 H 0.92121 0.73095 0.13939 0.0
H781 H 0.97725 0.66532 0.11452 0.0
H782 H 0.90323 0.55342 0.07329 0.0
H783 H 0.92577 0.59697 0.07559 0.0
H784 H 0.87901 0.65984 0.10714 0.0
C785 C 0.94005 0.73484 0.13072 0.0
C786 C 0.95583 0.66458 0.11253 0.0
C787 C 0.95086 0.76051 0.13244 0.0
C788 C 0.89722 0.56755 0.08684 0.0
C789 C 0.91017 0.59235 0.08823 0.0
C790 C 0.9005 0.66088 0.10862 0.0
C791 C 0.95315 0.71469 0.11773 0.0
C792 C 0.94042 0.68799 0.11407 0.0
C793 C 0.9027 0.61116 0.1056 0.0
C794 C 0.91589 0.6376 0.10733 0.0
H795 H 0.00787 0.7502 0.10096 0.0
H796 H 0.98872 0.70591 0.09723 0.0
H797 H 0.9 0.70324 0.11211 0.0
H798 H 0.85433 0.57548 0.13338 0.0
H799 H 0.87633 0.61866 0.13532 0.0
C800 C 0.733 0.99299 0.64584 0.0
C801 C 0.75345 0.98678 0.62971 0.0
C802 C 0.70805 0.98061 0.64397 0.0
C803 C 0.67365 0.92233 0.61632 0.0
H804 H 0.61017 0.96443 0.62729 0.0
C805 C 0.56791 0.88232 0.59521 0.0
C806 C 0.54879 0.88635 0.6131 0.0
C807 C 0.59263 0.89528 0.59638 0.0
C808 C 0.62772 0.95237 0.62429 0.0
H809 H 0.76366 0.96244 0.59904 0.0
H810 H 0.72033 0.94136 0.59557 0.0
H811 H 0.65391 0.98497 0.63195 0.0
H812 H 0.54033 0.9078 0.64583 0.0
H813 H 0.58318 0.93037 0.64774 0.0
H814 H 0.64737 0.8898 0.60847 0.0
C815 C 0.72357 0.95539 0.60997 0.0
C816 C 0.65282 0.9641 0.62709 0.0
C817 C 0.74847 0.96763 0.61191 0.0
C818 C 0.55461 0.9042 0.63175 0.0
C819 C 0.57915 0.91728 0.6328 0.0
C820 C 0.64854 0.91066 0.61338 0.0
C821 C 0.70294 0.9618 0.62586 0.0
C822 C 0.67615 0.94922 0.6232 0.0
C823 C 0.59861 0.91273 0.61532 0.0
C824 C 0.62528 0.9255 0.61742 0.0
H825 H 0.73616 0.00761 0.65978 0.0
H826 H 0.69279 0.98576 0.65677 0.0
H827 H 0.69112 0.91011 0.61353 0.0
H828 H 0.56407 0.86867 0.58064 0.0
H829 H 0.60712 0.89157 0.5825 0.0
C830 C 0.60619 0.5644 0.60059 0.0
C831 C 0.62742 0.55944 0.61626 0.0
C832 C 0.5923 0.58865 0.60166 0.0
C833 C 0.58233 0.64771 0.64179 0.0
H834 H 0.55494 0.68102 0.58456 0.0
C835 C 0.55421 0.75936 0.63472 0.0
C836 C 0.52969 0.76534 0.62392 0.0
C837 C 0.56382 0.73319 0.63492 0.0
C838 C 0.5623 0.67179 0.6007 0.0
H839 H 0.65145 0.57637 0.64463 0.0
H840 H 0.62837 0.61864 0.64577 0.0
H841 H 0.57654 0.63753 0.5819 0.0
H842 H 0.49583 0.74839 0.60516 0.0
H843 H 0.51297 0.70282 0.60508 0.0
H844 H 0.56909 0.68265 0.66032 0.0
C845 C 0.62143 0.60365 0.63333 0.0
C846 C 0.57458 0.64679 0.59923 0.0
C847 C 0.6349 0.57938 0.63254 0.0
C848 C 0.51473 0.74447 0.61375 0.0
C849 C 0.5246 0.7184 0.61353 0.0
C850 C 0.5705 0.67286 0.64316 0.0
C851 C 0.59967 0.60858 0.61818 0.0
C852 C 0.58508 0.63451 0.61973 0.0
C853 C 0.54935 0.71256 0.62392 0.0
C854 C 0.56056 0.68524 0.62262 0.0
H855 H 0.59994 0.54935 0.5879 0.0
H856 H 0.57553 0.59153 0.58982 0.0
H857 H 0.5894 0.63868 0.65811 0.0
H858 H 0.56622 0.77498 0.64265 0.0
H859 H 0.58302 0.72923 0.64297 0.0
C860 C 0.93765 0.60412 0.63936 0.0
C861 C 0.94926 0.61669 0.61955 0.0
C862 C 0.91255 0.59221 0.63758 0.0
C863 C 0.85072 0.59713 0.60349 0.0
H864 H 0.83382 0.52833 0.63106 0.0
C865 C 0.74984 0.54654 0.58671 0.0
C866 C 0.73793 0.53186 0.60515 0.0
C867 C 0.77569 0.55633 0.58907 0.0
C868 C 0.83809 0.54775 0.62358 0.0
H869 H 0.94393 0.62592 0.58212 0.0
H870 H 0.89998 0.60522 0.57905 0.0
H871 H 0.87931 0.54551 0.63344 0.0
H872 H 0.74387 0.51606 0.64066 0.0
H873 H 0.789 0.53387 0.64512 0.0
H874 H 0.80962 0.59982 0.59403 0.0
C875 C 0.91031 0.60472 0.59599 0.0
C876 C 0.86419 0.55751 0.62484 0.0
C877 C 0.93555 0.6164 0.59771 0.0
C878 C 0.75249 0.52733 0.62615 0.0
C879 C 0.77842 0.53737 0.6286 0.0
C880 C 0.82464 0.58753 0.60242 0.0
C881 C 0.89839 0.59283 0.61599 0.0
C882 C 0.87081 0.58221 0.61463 0.0
C883 C 0.79035 0.55198 0.61005 0.0
C884 C 0.81799 0.5626 0.61225 0.0
H885 H 0.94772 0.60394 0.65644 0.0
H886 H 0.90382 0.58333 0.65332 0.0
H887 H 0.85508 0.61649 0.5959 0.0
H888 H 0.73935 0.55015 0.57016 0.0
H889 H 0.78434 0.56695 0.57419 0.0
C890 C 0.88234 0.93243 0.59361 0.0
C891 C 0.88022 0.94574 0.61556 0.0
C892 C 0.89486 0.90757 0.59221 0.0
C893 C 0.94138 0.86258 0.62346 0.0
H894 H 0.90344 0.80681 0.58962 0.0
C895 C 0.97367 0.75166 0.62782 0.0
C896 C 0.9714 0.7367 0.60674 0.0
C897 C 0.96298 0.77742 0.62918 0.0
C898 C 0.91454 0.82219 0.59888 0.0
H899 H 0.89054 0.94389 0.65308 0.0
H900 H 0.91252 0.90071 0.65056 0.0
H901 H 0.88539 0.8518 0.59043 0.0
H902 H 0.95648 0.73724 0.57043 0.0
H903 H 0.93853 0.78199 0.5726 0.0
H904 H 0.97071 0.83305 0.63172 0.0
C905 C 0.90448 0.90943 0.63445 0.0
C906 C 0.90415 0.848 0.59933 0.0
C907 C 0.89175 0.93413 0.63589 0.0
C908 C 0.95834 0.74805 0.58707 0.0
C909 C 0.94789 0.77376 0.58835 0.0
C910 C 0.95192 0.83677 0.62286 0.0
C911 C 0.90577 0.89566 0.61269 0.0
C912 C 0.91743 0.86848 0.61163 0.0
C913 C 0.94997 0.7888 0.60941 0.0
C914 C 0.93863 0.81623 0.61054 0.0
H915 H 0.87367 0.94084 0.57763 0.0
H916 H 0.89583 0.89754 0.57514 0.0
H917 H 0.95216 0.87801 0.63296 0.0
H918 H 0.98363 0.74348 0.64328 0.0
H919 H 0.96469 0.78829 0.64579 0.0
C920 C 0.06518 0.11519 0.91279 0.0
C921 C 0.05904 0.13083 0.89279 0.0
C922 C 0.0891 0.10087 0.91378 0.0
C923 C 0.14791 0.08696 0.91758 0.0
H924 H 0.17849 0.05693 0.86011 0.0
C925 C 0.25791 0.05601 0.91342 0.0
C926 C 0.2648 0.03303 0.90051 0.0
C927 C 0.23214 0.0663 0.91228 0.0
C928 C 0.17015 0.0649 0.8764 0.0
H929 H 0.07318 0.14359 0.85811 0.0
H930 H 0.11483 0.11934 0.86007 0.0
H931 H 0.13411 0.07627 0.85886 0.0
H932 H 0.25006 0.00288 0.87612 0.0
H933 H 0.20481 0.02062 0.87439 0.0
H934 H 0.18368 0.07505 0.93525 0.0
C935 C 0.10106 0.11753 0.8748 0.0
C936 C 0.14479 0.07632 0.87562 0.0
C937 C 0.07718 0.13165 0.87376 0.0
C938 C 0.24541 0.02075 0.88613 0.0
C939 C 0.21948 0.03096 0.88513 0.0
C940 C 0.1732 0.07538 0.91839 0.0
C941 C 0.10743 0.102 0.89483 0.0
C942 C 0.1335 0.0879 0.89611 0.0
C943 C 0.21246 0.05375 0.89837 0.0
C944 C 0.18485 0.06459 0.89773 0.0
H945 H 0.05157 0.11405 0.9277 0.0
H946 H 0.09317 0.08886 0.92937 0.0
H947 H 0.14002 0.09583 0.93367 0.0
H948 H 0.27242 0.06606 0.92456 0.0
H949 H 0.2277 0.08423 0.92227 0.0
C950 C 0.39233 0.06383 0.90899 0.0
C951 C 0.37794 0.05686 0.88841 0.0
C952 C 0.40597 0.0882 0.91027 0.0
C953 C 0.43091 0.1444 0.87266 0.0
H954 H 0.42801 0.18379 0.93201 0.0
C955 C 0.44699 0.25831 0.91134 0.0
C956 C 0.47065 0.26569 0.89978 0.0
C957 C 0.43707 0.23238 0.90942 0.0
C958 C 0.42884 0.17319 0.91521 0.0
H959 H 0.36684 0.07002 0.85295 0.0
H960 H 0.38992 0.11244 0.85538 0.0
H961 H 0.40852 0.13949 0.92979 0.0
H962 H 0.50232 0.25165 0.87681 0.0
H963 H 0.4852 0.20611 0.87369 0.0
H964 H 0.45027 0.17862 0.85784 0.0
C965 C 0.39126 0.09898 0.87039 0.0
C966 C 0.418 0.14752 0.91405 0.0
C967 C 0.3778 0.07464 0.86907 0.0
C968 C 0.48392 0.24664 0.88578 0.0
C969 C 0.47407 0.22053 0.884 0.0
C970 C 0.44163 0.17016 0.87379 0.0
C971 C 0.40541 0.10622 0.89104 0.0
C972 C 0.41861 0.13287 0.89269 0.0
C973 C 0.45067 0.21298 0.89607 0.0
C974 C 0.44044 0.18504 0.89501 0.0
H975 H 0.39294 0.05055 0.92417 0.0
H976 H 0.41695 0.0929 0.92635 0.0
H977 H 0.43214 0.1336 0.85599 0.0
H978 H 0.43615 0.27255 0.92212 0.0
H979 H 0.41866 0.22757 0.91848 0.0
C980 C 0.44082 0.39323 0.9144 0.0
C981 C 0.44828 0.38023 0.89325 0.0
C982 C 0.41658 0.40694 0.91577 0.0
C983 C 0.36173 0.43471 0.87819 0.0
H984 H 0.32064 0.42755 0.93618 0.0
C985 C 0.24695 0.44793 0.91473 0.0
C986 C 0.23998 0.47244 0.90442 0.0
C987 C 0.27286 0.43814 0.91286 0.0
C988 C 0.33173 0.42959 0.91975 0.0
H989 H 0.43619 0.37172 0.85689 0.0
H990 H 0.39395 0.39491 0.85945 0.0
H991 H 0.36488 0.40821 0.93402 0.0
H992 H 0.25467 0.50578 0.88373 0.0
H993 H 0.30018 0.48887 0.88073 0.0
H994 H 0.32805 0.45512 0.86361 0.0
C995 C 0.40694 0.3951 0.87486 0.0
C996 C 0.35735 0.41883 0.91865 0.0
C997 C 0.43116 0.38158 0.87345 0.0
C998 C 0.25939 0.48671 0.8917 0.0
C999 C 0.28547 0.47699 0.88998 0.0
C1000 C 0.33601 0.44534 0.87925 0.0
C1001 C 0.39919 0.40784 0.89607 0.0
C1002 C 0.37261 0.42097 0.89777 0.0
C1003 C 0.29262 0.45272 0.90084 0.0
C1004 C 0.32052 0.44261 0.89994 0.0
H1005 H 0.4536 0.39268 0.92994 0.0
H1006 H 0.41147 0.41683 0.9323 0.0
H1007 H 0.37302 0.43714 0.86192 0.0
H1008 H 0.23242 0.43633 0.9245 0.0
H1009 H 0.27739 0.41907 0.92092 0.0
C1010 C 0.11771 0.4385 0.91554 0.0
C1011 C 0.12194 0.45362 0.89484 0.0
C1012 C 0.10361 0.4144 0.91441 0.0
C1013 C 0.05614 0.37602 0.87727 0.0
H1014 H 0.08698 0.31446 0.90844 0.0
C1015 C 0.01727 0.26878 0.86021 0.0
C1016 C 0.01663 0.25133 0.87975 0.0
C1017 C 0.02962 0.29377 0.86219 0.0
C1018 C 0.07783 0.33148 0.89988 0.0
H1019 H 0.11399 0.45569 0.85687 0.0
H1020 H 0.0894 0.41393 0.85499 0.0
H1021 H 0.10822 0.35789 0.91266 0.0
H1022 H 0.02802 0.2467 0.91684 0.0
H1023 H 0.04887 0.29015 0.92039 0.0
H1024 H 0.02564 0.34972 0.8646 0.0
C1025 C 0.0969 0.42063 0.87208 0.0
C1026 C 0.09005 0.3564 0.90233 0.0
C1027 C 0.11115 0.44452 0.87316 0.0
C1028 C 0.02844 0.25947 0.9013 0.0
C1029 C 0.04054 0.28443 0.90333 0.0
C1030 C 0.04379 0.35112 0.87495 0.0
C1031 C 0.09322 0.40512 0.89262 0.0
C1032 C 0.07943 0.37893 0.89097 0.0
C1033 C 0.0414 0.30192 0.88381 0.0
C1034 C 0.05453 0.32849 0.88616 0.0
H1035 H 0.12579 0.44496 0.9325 0.0
H1036 H 0.10088 0.40298 0.93059 0.0
H1037 H 0.04732 0.39307 0.86848 0.0
H1038 H 0.00838 0.2631 0.84336 0.0
H1039 H 0.03018 0.30656 0.84669 0.0
C1040 C 0.65203 0.23924 0.39268 0.0
C1041 C 0.64012 0.23652 0.41517 0.0
C1042 C 0.67958 0.24184 0.39072 0.0
C1043 C 0.74077 0.25606 0.42525 0.0
H1044 H 0.77456 0.21333 0.37619 0.0
C1045 C 0.85327 0.24569 0.42274 0.0
C1046 C 0.86429 0.25423 0.40106 0.0
C1047 C 0.82635 0.23915 0.4241 0.0
C1048 C 0.76532 0.2253 0.38995 0.0
H1049 H 0.6475 0.23598 0.45328 0.0
H1050 H 0.69547 0.24014 0.44983 0.0
H1051 H 0.72604 0.21412 0.37912 0.0
H1052 H 0.85664 0.25963 0.36331 0.0
H1053 H 0.80961 0.24805 0.36573 0.0
H1054 H 0.78002 0.26711 0.43615 0.0
C1055 C 0.6836 0.24048 0.43371 0.0
C1056 C 0.73761 0.22599 0.39152 0.0
C1057 C 0.65607 0.23805 0.43568 0.0
C1058 C 0.84863 0.25336 0.3803 0.0
C1059 C 0.82172 0.24668 0.38166 0.0
C1060 C 0.76842 0.25519 0.42381 0.0
C1061 C 0.6957 0.24168 0.41119 0.0
C1062 C 0.72506 0.24147 0.40914 0.0
C1063 C 0.81014 0.24081 0.40378 0.0
C1064 C 0.78093 0.23985 0.40614 0.0
H1065 H 0.64021 0.23829 0.37655 0.0
H1066 H 0.68832 0.24336 0.37314 0.0
H1067 H 0.7317 0.26847 0.43879 0.0
H1068 H 0.86493 0.24578 0.43899 0.0
H1069 H 0.8179 0.23416 0.44127 0.0
C1070 C 0.26073 0.65177 0.38453 0.0
C1071 C 0.26321 0.63799 0.40617 0.0
C1072 C 0.25771 0.67939 0.38443 0.0
C1073 C 0.24362 0.73796 0.42259 0.0
H1074 H 0.29017 0.77426 0.37799 0.0
C1075 C 0.25946 0.85007 0.42874 0.0
C1076 C 0.25279 0.8634 0.40757 0.0
C1077 C 0.26437 0.82274 0.42845 0.0
C1078 C 0.2771 0.76433 0.3905 0.0
H1079 H 0.26209 0.64195 0.44468 0.0
H1080 H 0.25719 0.69008 0.44449 0.0
H1081 H 0.28717 0.72569 0.37727 0.0
H1082 H 0.24922 0.85936 0.36919 0.0
H1083 H 0.25805 0.81165 0.36873 0.0
H1084 H 0.23375 0.77662 0.43592 0.0
C1085 C 0.25752 0.67964 0.42759 0.0
C1086 C 0.27515 0.7366 0.38996 0.0
C1087 C 0.26039 0.65202 0.42769 0.0
C1088 C 0.25404 0.84955 0.38582 0.0
C1089 C 0.25913 0.82224 0.38553 0.0
C1090 C 0.24572 0.76564 0.42323 0.0
C1091 C 0.25717 0.69369 0.40597 0.0
C1092 C 0.25831 0.72315 0.40595 0.0
C1093 C 0.26302 0.80844 0.40698 0.0
C1094 C 0.26247 0.77905 0.40719 0.0
H1095 H 0.26255 0.64145 0.36765 0.0
H1096 H 0.25678 0.68966 0.36749 0.0
H1097 H 0.23027 0.72819 0.43495 0.0
H1098 H 0.25899 0.86027 0.44576 0.0
H1099 H 0.26787 0.81253 0.44516 0.0
C1100 C 0.35495 0.74809 0.07577 0.0
C1101 C 0.36874 0.74292 0.09704 0.0
C1102 C 0.32762 0.7527 0.07612 0.0
C1103 C 0.26977 0.73572 0.11252 0.0
H1104 H 0.23258 0.78273 0.06903 0.0
C1105 C 0.15708 0.75819 0.11558 0.0
C1106 C 0.14391 0.76089 0.09362 0.0
C1107 C 0.18444 0.7537 0.11628 0.0
C1108 C 0.24276 0.76927 0.08105 0.0
H1109 H 0.3653 0.741 0.13554 0.0
H1110 H 0.31759 0.74968 0.13616 0.0
H1111 H 0.28106 0.78379 0.07074 0.0
H1112 H 0.14854 0.75863 0.05521 0.0
H1113 H 0.19636 0.75072 0.05652 0.0
H1114 H 0.23133 0.72142 0.12295 0.0
C1115 C 0.3278 0.74936 0.11918 0.0
C1116 C 0.27045 0.76998 0.08211 0.0
C1117 C 0.35514 0.74463 0.11883 0.0
C1118 C 0.15817 0.7569 0.07242 0.0
C1119 C 0.18555 0.75256 0.07313 0.0
C1120 C 0.24205 0.73514 0.11155 0.0
C1121 C 0.31364 0.75242 0.09777 0.0
C1122 C 0.28424 0.75312 0.09777 0.0
C1123 C 0.19902 0.75192 0.09503 0.0
C1124 C 0.22834 0.75178 0.09569 0.0
H1125 H 0.36492 0.74704 0.05869 0.0
H1126 H 0.31726 0.75491 0.05931 0.0
H1127 H 0.27988 0.7221 0.12442 0.0
H1128 H 0.14655 0.761 0.13222 0.0
H1129 H 0.1944 0.75325 0.1334 0.0
C1130 C 0.76551 0.35589 0.11351 0.0
C1131 C 0.76783 0.3679 0.09102 0.0
C1132 C 0.76171 0.32842 0.11538 0.0
C1133 C 0.74353 0.26807 0.08095 0.0
H1134 H 0.78779 0.23214 0.12762 0.0
C1135 C 0.75295 0.15497 0.08077 0.0
C1136 C 0.7462 0.14316 0.10262 0.0
C1137 C 0.7589 0.18208 0.07967 0.0
C1138 C 0.77533 0.24197 0.11456 0.0
H1139 H 0.76628 0.36087 0.05288 0.0
H1140 H 0.76003 0.31305 0.05615 0.0
H1141 H 0.78813 0.28077 0.12548 0.0
H1142 H 0.7431 0.14975 0.14075 0.0
H1143 H 0.75367 0.19712 0.13877 0.0
H1144 H 0.73094 0.22927 0.06989 0.0
C1145 C 0.76096 0.32477 0.07235 0.0
C1146 C 0.77531 0.26976 0.11345 0.0
C1147 C 0.76462 0.35221 0.07048 0.0
C1148 C 0.748 0.15836 0.12362 0.0
C1149 C 0.7541 0.18546 0.12251 0.0
C1150 C 0.74371 0.24033 0.08194 0.0
C1151 C 0.76021 0.31249 0.09481 0.0
C1152 C 0.75938 0.28308 0.09664 0.0
C1153 C 0.75844 0.19773 0.10041 0.0
C1154 C 0.75962 0.22705 0.09873 0.0
H1155 H 0.76775 0.3675 0.12968 0.0
H1156 H 0.76061 0.31957 0.13294 0.0
H1157 H 0.73077 0.27775 0.06804 0.0
H1158 H 0.75208 0.1437 0.0643 0.0
H1159 H 0.76271 0.19106 0.06247 0.0
C1160 C 0.14871 0.76353 0.58151 0.0
C1161 C 0.13772 0.75399 0.60287 0.0
C1162 C 0.17575 0.76954 0.58022 0.0
C1163 C 0.23767 0.77864 0.61462 0.0
H1164 H 0.26889 0.73622 0.56399 0.0
C1165 C 0.34923 0.75669 0.61323 0.0
C1166 C 0.36202 0.76079 0.59132 0.0
C1167 C 0.32154 0.75538 0.61434 0.0
C1168 C 0.2605 0.7484 0.57804 0.0
H1169 H 0.14552 0.74664 0.64033 0.0
H1170 H 0.19271 0.75726 0.63804 0.0
H1171 H 0.22072 0.74073 0.56639 0.0
H1172 H 0.35607 0.76452 0.55316 0.0
H1173 H 0.30782 0.76249 0.55513 0.0
H1174 H 0.27746 0.78628 0.62631 0.0
C1175 C 0.18053 0.75979 0.62227 0.0
C1176 C 0.23296 0.75112 0.57934 0.0
C1177 C 0.1535 0.75365 0.62356 0.0
C1178 C 0.34679 0.76139 0.57033 0.0
C1179 C 0.3191 0.76023 0.57145 0.0
C1180 C 0.26526 0.77606 0.61324 0.0
C1181 C 0.1921 0.76637 0.6003 0.0
C1182 C 0.2213 0.76611 0.59773 0.0
C1183 C 0.3062 0.7582 0.59356 0.0
C1184 C 0.27693 0.76069 0.59507 0.0
H1185 H 0.13695 0.76439 0.56533 0.0
H1186 H 0.18419 0.77512 0.56319 0.0
H1187 H 0.22912 0.79034 0.62892 0.0
H1188 H 0.36049 0.7559 0.62969 0.0
H1189 H 0.31213 0.75305 0.63155 0.0
C1190 C 0.74302 0.15486 0.58498 0.0
C1191 C 0.75298 0.14202 0.60534 0.0
C1192 C 0.73723 0.18199 0.58567 0.0
C1193 C 0.72741 0.24077 0.62337 0.0
H1194 H 0.77015 0.27635 0.5754 0.0
C1195 C 0.74096 0.35433 0.62411 0.0
C1196 C 0.73766 0.36689 0.60196 0.0
C1197 C 0.74417 0.32675 0.62533 0.0
C1198 C 0.75789 0.26676 0.58874 0.0
H1199 H 0.76143 0.14656 0.64307 0.0
H1200 H 0.75099 0.194 0.64424 0.0
H1201 H 0.76763 0.22791 0.57581 0.0
H1202 H 0.73697 0.36074 0.56367 0.0
H1203 H 0.74204 0.31279 0.56582 0.0
H1204 H 0.71726 0.27963 0.63607 0.0
C1205 C 0.74807 0.18314 0.62774 0.0
C1206 C 0.75638 0.23906 0.58891 0.0
C1207 C 0.75409 0.15603 0.62703 0.0
C1208 C 0.73941 0.35165 0.58103 0.0
C1209 C 0.74241 0.32411 0.58226 0.0
C1210 C 0.72866 0.26856 0.62303 0.0
C1211 C 0.74096 0.19654 0.60677 0.0
C1212 C 0.74106 0.22587 0.60615 0.0
C1213 C 0.74403 0.31129 0.60444 0.0
C1214 C 0.74389 0.28183 0.60567 0.0
H1215 H 0.7416 0.14452 0.56807 0.0
H1216 H 0.7313 0.19193 0.56938 0.0
H1217 H 0.71557 0.23093 0.63687 0.0
H1218 H 0.73988 0.36561 0.64055 0.0
H1219 H 0.74601 0.31747 0.64266 0.0
C1220 C 0.84755 0.25275 0.883 0.0
C1221 C 0.86156 0.25323 0.90469 0.0
C1222 C 0.8203 0.25796 0.88255 0.0
C1223 C 0.76475 0.24625 0.92119 0.0
H1224 H 0.72309 0.2854 0.87483 0.0
C1225 C 0.65148 0.2588 0.92829 0.0
C1226 C 0.63657 0.26084 0.9072 0.0
C1227 C 0.67909 0.25664 0.92736 0.0
C1228 C 0.73448 0.27399 0.88764 0.0
H1229 H 0.85881 0.2627 0.94236 0.0
H1230 H 0.81118 0.27165 0.94151 0.0
H1231 H 0.77161 0.28899 0.8744 0.0
H1232 H 0.63855 0.25973 0.8686 0.0
H1233 H 0.6868 0.25507 0.867 0.0
H1234 H 0.72795 0.23062 0.93409 0.0
C1235 C 0.82123 0.26681 0.925 0.0
C1236 C 0.76217 0.27632 0.88752 0.0
C1237 C 0.84849 0.26182 0.92542 0.0
C1238 C 0.64956 0.25843 0.88516 0.0
C1239 C 0.6772 0.25608 0.88424 0.0
C1240 C 0.73715 0.24369 0.92115 0.0
C1241 C 0.80675 0.26363 0.90379 0.0
C1242 C 0.77746 0.2626 0.90441 0.0
C1243 C 0.6923 0.25617 0.90533 0.0
C1244 C 0.7217 0.25762 0.90445 0.0
H1245 H 0.85718 0.24646 0.86668 0.0
H1246 H 0.80952 0.25549 0.86597 0.0
H1247 H 0.77621 0.23495 0.93403 0.0
H1248 H 0.64206 0.26052 0.94557 0.0
H1249 H 0.69012 0.25688 0.94395 0.0
C1250 C 0.2439 0.85434 0.93191 0.0
C1251 C 0.25005 0.86678 0.91018 0.0
C1252 C 0.23882 0.82702 0.93263 0.0
C1253 C 0.22475 0.76714 0.89659 0.0
H1254 H 0.27126 0.73229 0.94214 0.0
C1255 C 0.2425 0.65433 0.89317 0.0
C1256 C 0.24083 0.64093 0.91508 0.0
C1257 C 0.24432 0.68207 0.89255 0.0
C1258 C 0.25795 0.74169 0.9295 0.0
H1259 H 0.25286 0.86102 0.87194 0.0
H1260 H 0.24383 0.81335 0.87326 0.0
H1261 H 0.26828 0.78073 0.94173 0.0
H1262 H 0.24162 0.64592 0.95349 0.0
H1263 H 0.24452 0.69422 0.95238 0.0
H1264 H 0.21435 0.72809 0.8844 0.0
C1265 C 0.24317 0.82465 0.88971 0.0
C1266 C 0.25615 0.76941 0.92934 0.0
C1267 C 0.24841 0.85194 0.88897 0.0
C1268 C 0.24281 0.65565 0.93631 0.0
C1269 C 0.24453 0.68337 0.93568 0.0
C1270 C 0.22642 0.73938 0.89685 0.0
C1271 C 0.23955 0.81178 0.91165 0.0
C1272 C 0.23961 0.78238 0.91284 0.0
C1273 C 0.24448 0.69691 0.9138 0.0
C1274 C 0.24316 0.72638 0.91322 0.0
H1275 H 0.24474 0.86528 0.94854 0.0
H1276 H 0.23555 0.81759 0.94973 0.0
H1277 H 0.21179 0.77669 0.88375 0.0
H1278 H 0.24116 0.64352 0.87649 0.0
H1279 H 0.24489 0.69195 0.87541 0.0
C1280 C 0.65294 0.13577 0.42078 0.0
C1281 C 0.6273 0.1417 0.42935 0.0
C1282 C 0.67165 0.12293 0.43526 0.0
C1283 C 0.68669 0.11051 0.49902 0.0
H1284 H 0.7384 0.06033 0.47412 0.0
C1285 C 0.75269 0.05007 0.56159 0.0
C1286 C 0.7802 0.04954 0.55703 0.0
C1287 C 0.73483 0.05945 0.54457 0.0
C1288 C 0.72424 0.0745 0.48125 0.0
H1289 H 0.60098 0.13783 0.45969 0.0
H1290 H 0.63333 0.11483 0.48477 0.0
H1291 H 0.70484 0.07948 0.4475 0.0
H1292 H 0.81043 0.05697 0.53042 0.0
H1293 H 0.77883 0.07338 0.50016 0.0
H1294 H 0.70584 0.10538 0.53275 0.0
C1295 C 0.63924 0.12067 0.46699 0.0
C1296 C 0.70497 0.0855 0.46603 0.0
C1297 C 0.62055 0.13365 0.45253 0.0
C1298 C 0.78934 0.05712 0.53438 0.0
C1299 C 0.77127 0.06656 0.51715 0.0
C1300 C 0.70576 0.09943 0.51419 0.0
C1301 C 0.66523 0.11555 0.45871 0.0
C1302 C 0.68579 0.10354 0.47476 0.0
C1303 C 0.74389 0.06855 0.52239 0.0
C1304 C 0.72463 0.08111 0.50558 0.0
H1305 H 0.65894 0.14176 0.40305 0.0
H1306 H 0.69146 0.11965 0.42828 0.0
H1307 H 0.67282 0.12485 0.50634 0.0
H1308 H 0.74496 0.04397 0.57875 0.0
H1309 H 0.71385 0.06008 0.54898 0.0
C1310 C 0.46563 0.75245 0.5464 0.0
C1311 C 0.4603 0.77992 0.54522 0.0
C1312 C 0.45639 0.73514 0.52878 0.0
C1313 C 0.42891 0.72873 0.46825 0.0
H1314 H 0.391 0.66874 0.49563 0.0
C1315 C 0.36245 0.65849 0.41139 0.0
C1316 C 0.36046 0.63144 0.41777 0.0
C1317 C 0.3764 0.67659 0.42571 0.0
C1318 C 0.40188 0.68502 0.48755 0.0
H1319 H 0.44253 0.81104 0.52382 0.0
H1320 H 0.42651 0.78055 0.49249 0.0
H1321 H 0.41297 0.70072 0.5216 0.0
H1322 H 0.37223 0.60214 0.44403 0.0
H1323 H 0.39735 0.6335 0.46869 0.0
H1324 H 0.41811 0.71282 0.43414 0.0
C1325 C 0.43792 0.77254 0.50721 0.0
C1326 C 0.4144 0.70349 0.50251 0.0
C1327 C 0.44724 0.79002 0.52502 0.0
C1328 C 0.3733 0.62283 0.43862 0.0
C1329 C 0.38753 0.64093 0.45286 0.0
C1330 C 0.41658 0.71003 0.4532 0.0
C1331 C 0.44151 0.74478 0.50946 0.0
C1332 C 0.42814 0.72553 0.49308 0.0
C1333 C 0.38902 0.66818 0.44677 0.0
C1334 C 0.40286 0.68787 0.46265 0.0
H1335 H 0.47576 0.7441 0.56171 0.0
H1336 H 0.46001 0.71397 0.53078 0.0
H1337 H 0.43945 0.74541 0.46046 0.0
H1338 H 0.35263 0.66593 0.39556 0.0
H1339 H 0.37661 0.69737 0.42054 0.0
C1340 C 0.87192 0.36945 0.44005 0.0
C1341 C 0.86235 0.35599 0.4198 0.0
C1342 C 0.85443 0.38369 0.45482 0.0
C1343 C 0.78529 0.41212 0.45695 0.0
H1344 H 0.79798 0.4116 0.52502 0.0
C1345 C 0.70837 0.44569 0.52984 0.0
C1346 C 0.7191 0.45955 0.5494 0.0
C1347 C 0.72525 0.43559 0.51199 0.0
C1348 C 0.79427 0.41218 0.50601 0.0
H1349 H 0.82676 0.34683 0.39938 0.0
H1350 H 0.79645 0.3708 0.42528 0.0
H1351 H 0.82881 0.38877 0.49864 0.0
H1352 H 0.75544 0.47559 0.56462 0.0
H1353 H 0.78453 0.45842 0.53361 0.0
H1354 H 0.75021 0.43504 0.46468 0.0
C1355 C 0.81747 0.37111 0.42954 0.0
C1356 C 0.81207 0.39915 0.49082 0.0
C1357 C 0.83493 0.35714 0.41471 0.0
C1358 C 0.7466 0.46478 0.54985 0.0
C1359 C 0.76333 0.45475 0.53219 0.0
C1360 C 0.7673 0.42497 0.47223 0.0
C1361 C 0.82689 0.3846 0.44987 0.0
C1362 C 0.80796 0.39896 0.46602 0.0
C1363 C 0.75305 0.43917 0.51352 0.0
C1364 C 0.77168 0.4253 0.49695 0.0
H1365 H 0.89291 0.36904 0.44446 0.0
H1366 H 0.8626 0.39412 0.47007 0.0
H1367 H 0.78155 0.41281 0.43797 0.0
H1368 H 0.68731 0.44109 0.52918 0.0
H1369 H 0.71673 0.42368 0.49778 0.0
C1370 C 0.0635 0.70543 0.53868 0.0
C1371 C 0.04939 0.71623 0.55799 0.0
C1372 C 0.07467 0.72237 0.52141 0.0
C1373 C 0.10058 0.79054 0.51686 0.0
H1374 H 0.09788 0.78059 0.44847 0.0
C1375 C 0.14234 0.87014 0.4522 0.0
C1376 C 0.15476 0.86119 0.43127 0.0
C1377 C 0.12871 0.85219 0.46698 0.0
C1378 C 0.09918 0.78352 0.46754 0.0
H1379 H 0.03407 0.75271 0.57345 0.0
H1380 H 0.05325 0.78198 0.54347 0.0
H1381 H 0.07527 0.74885 0.47454 0.0
H1382 H 0.16296 0.82619 0.40972 0.0
H1383 H 0.14002 0.79506 0.4356 0.0
H1384 H 0.12488 0.82473 0.51017 0.0
C1385 C 0.05622 0.76068 0.54178 0.0
C1386 C 0.08612 0.76531 0.48245 0.0
C1387 C 0.04506 0.74389 0.55883 0.0
C1388 C 0.1534 0.83389 0.42558 0.0
C1389 C 0.14003 0.81597 0.4404 0.0
C1390 C 0.11383 0.80856 0.50203 0.0
C1391 C 0.0719 0.75025 0.52334 0.0
C1392 C 0.08647 0.76878 0.50726 0.0
C1393 C 0.12739 0.82481 0.46129 0.0
C1394 C 0.11321 0.80546 0.47712 0.0
H1395 H 0.06732 0.68421 0.53775 0.0
H1396 H 0.08664 0.71379 0.50733 0.0
H1397 H 0.1016 0.79349 0.53596 0.0
H1398 H 0.14297 0.89103 0.45709 0.0
H1399 H 0.11894 0.85989 0.48272 0.0
C1400 C 0.26229 0.96852 0.96048 0.0
C1401 C 0.28741 0.95716 0.95639 0.0
C1402 C 0.24581 0.95884 0.97854 0.0
C1403 C 0.22961 0.89675 0.00788 0.0
H1404 H 0.18756 0.94063 0.05053 0.0
C1405 C 0.1344 0.85807 0.05513 0.0
C1406 C 0.13283 0.86299 0.07976 0.0
C1407 C 0.15414 0.87035 0.0413 0.0
C1408 C 0.19922 0.9281 0.03879 0.0
H1409 H 0.31533 0.92716 0.96824 0.0
H1410 H 0.28618 0.90976 0.9998 0.0
H1411 H 0.22221 0.96119 0.02596 0.0
H1412 H 0.15027 0.8853 0.10899 0.0
H1413 H 0.18416 0.90728 0.08472 0.0
H1414 H 0.20613 0.86377 0.02019 0.0
C1415 C 0.27948 0.92649 0.98921 0.0
C1416 C 0.21902 0.93987 0.02472 0.0
C1417 C 0.29631 0.93666 0.97142 0.0
C1418 C 0.15089 0.88112 0.09006 0.0
C1419 C 0.1703 0.89374 0.07617 0.0
C1420 C 0.2095 0.88504 0.02165 0.0
C1421 C 0.2538 0.9371 0.99256 0.0
C1422 C 0.23439 0.92434 0.00905 0.0
C1423 C 0.17245 0.88817 0.0517 0.0
C1424 C 0.19398 0.9006 0.03719 0.0
H1425 H 0.25485 0.98406 0.94885 0.0
H1426 H 0.22611 0.9673 0.98054 0.0
H1427 H 0.24088 0.88432 0.99575 0.0
H1428 H 0.12096 0.84404 0.04667 0.0
H1429 H 0.15513 0.86585 0.02244 0.0
C1430 C 0.61795 0.1489 0.0946 0.0
C1431 C 0.63877 0.133 0.08576 0.0
C1432 C 0.60529 0.16759 0.07999 0.0
C1433 C 0.61652 0.20945 0.02744 0.0
H1434 H 0.53961 0.21596 0.02577 0.0
C1435 C 0.56366 0.29439 0.97587 0.0
C1436 C 0.54485 0.28495 0.95935 0.0
C1437 C 0.5735 0.27744 0.9937 0.0
C1438 C 0.56112 0.21448 0.02617 0.0
H1439 H 0.66243 0.12412 0.05448 0.0
H1440 H 0.64047 0.15707 0.02898 0.0
H1441 H 0.56031 0.18191 0.05087 0.0
H1442 H 0.5205 0.25115 0.94921 0.0
H1443 H 0.53674 0.22203 0.98084 0.0
H1444 H 0.61731 0.24193 1.00263 0.0
C1445 C 0.63395 0.15497 0.04727 0.0
C1446 C 0.57297 0.19502 0.04056 0.0
C1447 C 0.64635 0.13593 0.0618 0.0
C1448 C 0.53477 0.25899 0.96193 0.0
C1449 C 0.54413 0.2423 0.97999 0.0
C1450 C 0.60468 0.22917 0.01332 0.0
C1451 C 0.61341 0.17117 0.05626 0.0
C1452 C 0.60081 0.19208 0.04117 0.0
C1453 C 0.56425 0.251 0.99559 0.0
C1454 C 0.57683 0.23174 0.01234 0.0
H1455 H 0.61164 0.14717 0.11297 0.0
H1456 H 0.58965 0.17983 0.08749 0.0
H1457 H 0.63803 0.20787 0.02772 0.0
H1458 H 0.57215 0.31414 0.97394 0.0
H1459 H 0.58892 0.28471 0.00556 0.0
C1460 C 0.24718 0.53414 0.96825 0.0
C1461 C 0.22162 0.54509 0.96576 0.0
C1462 C 0.26442 0.54323 0.98606 0.0
C1463 C 0.28053 0.60446 0.01675 0.0
H1464 H 0.3269 0.56063 0.05569 0.0
C1465 C 0.37746 0.6448 0.05971 0.0
C1466 C 0.38042 0.63986 0.08421 0.0
C1467 C 0.35744 0.63194 0.04659 0.0
C1468 C 0.31403 0.57311 0.04497 0.0
H1469 H 0.19364 0.57354 0.98027 0.0
H1470 H 0.22408 0.58991 0.01136 0.0
H1471 H 0.29126 0.5397 0.0323 0.0
H1472 H 0.36535 0.61684 0.11394 0.0
H1473 H 0.33095 0.59382 0.09084 0.0
H1474 H 0.30377 0.63776 0.02882 0.0
C1475 C 0.23057 0.57397 0.99971 0.0
C1476 C 0.29367 0.56115 0.0316 0.0
C1477 C 0.21305 0.56438 0.98217 0.0
C1478 C 0.36359 0.62105 0.09508 0.0
C1479 C 0.34392 0.60784 0.08187 0.0
C1480 C 0.30117 0.61635 0.02978 0.0
C1481 C 0.25669 0.56396 1.00139 0.0
C1482 C 0.27675 0.57669 0.01729 0.0
C1483 C 0.34029 0.61352 0.05759 0.0
C1484 C 0.31823 0.6008 0.04394 0.0
H1485 H 0.25434 0.51951 0.95556 0.0
H1486 H 0.28444 0.53527 0.98679 0.0
H1487 H 0.26805 0.61691 0.00565 0.0
H1488 H 0.38997 0.65932 0.05084 0.0
H1489 H 0.35526 0.63652 0.02784 0.0
C1490 C 0.87465 0.38491 0.05715 0.0
C1491 C 0.86452 0.37871 0.07981 0.0
C1492 C 0.88844 0.36567 0.04386 0.0
C1493 C 0.89468 0.29288 0.03668 0.0
H1494 H 0.95763 0.31074 1.00022 0.0
C1495 C 0.94723 0.21487 0.97595 0.0
C1496 C 0.95436 0.22447 0.95335 0.0
C1497 C 0.93948 0.23273 0.99401 0.0
C1498 C 0.93996 0.3054 0.01016 0.0
H1499 H 0.86144 0.34744 0.10638 0.0
H1500 H 0.8853 0.31409 0.08321 0.0
H1501 H 0.93745 0.34424 0.02598 0.0
H1502 H 0.96032 0.26024 0.93236 0.0
H1503 H 0.94676 0.29092 0.9633 0.0
H1504 H 0.89661 0.25432 0.02028 0.0
C1505 C 0.8825 0.33375 0.07566 0.0
C1506 C 0.9284 0.32466 0.02493 0.0
C1507 C 0.86896 0.353 0.08901 0.0
C1508 C 0.95481 0.25216 0.94956 0.0
C1509 C 0.94721 0.26986 0.96745 0.0
C1510 C 0.90611 0.27364 0.02173 0.0
C1511 C 0.89219 0.33973 0.05282 0.0
C1512 C 0.9054 0.31878 0.03813 0.0
C1513 C 0.939 0.26048 0.98983 0.0
C1514 C 0.92866 0.27978 0.00793 0.0
H1515 H 0.8715 0.40445 0.04948 0.0
H1516 H 0.89546 0.37088 0.02624 0.0
H1517 H 0.87683 0.28773 0.04646 0.0
H1518 H 0.94663 0.19363 0.97935 0.0
H1519 H 0.93355 0.2248 0.01113 0.0
C1520 C 0.34295 0.85832 0.58619 0.0
C1521 C 0.36957 0.85514 0.57893 0.0
C1522 C 0.32448 0.87143 0.57168 0.0
C1523 C 0.31339 0.89162 0.50871 0.0
H1524 H 0.25678 0.93476 0.53557 0.0
C1525 C 0.24884 0.95774 0.4496 0.0
C1526 C 0.22106 0.95526 0.45175 0.0
C1527 C 0.26583 0.94703 0.46672 0.0
C1528 C 0.27234 0.92257 0.52786 0.0
H1529 H 0.3977 0.86389 0.5508 0.0
H1530 H 0.36572 0.88747 0.52572 0.0
H1531 H 0.28944 0.9138 0.56195 0.0
H1532 H 0.18923 0.94098 0.47434 0.0
H1533 H 0.21927 0.92239 0.50489 0.0
H1534 H 0.29656 0.90078 0.47465 0.0
C1535 C 0.35891 0.87926 0.54246 0.0
C1536 C 0.29109 0.9105 0.54294 0.0
C1537 C 0.37738 0.86593 0.55694 0.0
C1538 C 0.21054 0.94333 0.47233 0.0
C1539 C 0.22773 0.93259 0.48969 0.0
C1540 C 0.29484 0.90384 0.4937 0.0
C1541 C 0.33209 0.88194 0.5495 0.0
C1542 C 0.31201 0.89496 0.53356 0.0
C1543 C 0.25557 0.9336 0.48659 0.0
C1544 C 0.27423 0.91965 0.50304 0.0
H1545 H 0.3361 0.85009 0.60293 0.0
H1546 H 0.30403 0.87264 0.57764 0.0
H1547 H 0.32867 0.87929 0.50076 0.0
H1548 H 0.25754 0.96709 0.43405 0.0
H1549 H 0.28712 0.94869 0.46407 0.0
C1550 C 0.63853 0.35028 0.59985 0.0
C1551 C 0.64075 0.37704 0.59263 0.0
C1552 C 0.62427 0.3318 0.58615 0.0
C1553 C 0.5988 0.32158 0.52453 0.0
H1554 H 0.56195 0.26148 0.55288 0.0
C1555 C 0.53709 0.25109 0.46681 0.0
C1556 C 0.54315 0.22383 0.46874 0.0
C1557 C 0.54557 0.26918 0.48411 0.0
C1558 C 0.57226 0.2781 0.54474 0.0
H1559 H 0.62886 0.40552 0.5657 0.0
H1560 H 0.60317 0.37357 0.54219 0.0
H1561 H 0.58275 0.29508 0.57852 0.0
H1562 H 0.56128 0.19386 0.49118 0.0
H1563 H 0.57601 0.22571 0.52191 0.0
H1564 H 0.58807 0.30478 0.49082 0.0
C1565 C 0.6131 0.3666 0.55813 0.0
C1566 C 0.58429 0.29737 0.55941 0.0
C1567 C 0.62765 0.38505 0.57172 0.0
C1568 C 0.5561 0.21471 0.48937 0.0
C1569 C 0.56464 0.23296 0.50685 0.0
C1570 C 0.58656 0.30255 0.50996 0.0
C1571 C 0.61157 0.33957 0.56492 0.0
C1572 C 0.59781 0.3194 0.5495 0.0
C1573 C 0.56038 0.26053 0.50386 0.0
C1574 C 0.57313 0.28058 0.51984 0.0
H1575 H 0.64852 0.3433 0.61576 0.0
H1576 H 0.62401 0.31121 0.59187 0.0
H1577 H 0.60955 0.33772 0.5161 0.0
H1578 H 0.52694 0.25867 0.45117 0.0
H1579 H 0.54144 0.29017 0.48154 0.0
C1580 C 0.25825 0.54046 0.45161 0.0
C1581 C 0.28588 0.54486 0.45219 0.0
C1582 C 0.24171 0.55141 0.46895 0.0
C1583 C 0.23792 0.58217 0.52829 0.0
H1584 H 0.17842 0.62048 0.5006 0.0
C1585 C 0.17084 0.65176 0.58448 0.0
C1586 C 0.14351 0.65302 0.57908 0.0
C1587 C 0.18842 0.63775 0.5698 0.0
C1588 C 0.19461 0.60956 0.50875 0.0
H1589 H 0.3181 0.56268 0.47235 0.0
H1590 H 0.28897 0.58171 0.50321 0.0
H1591 H 0.20903 0.59643 0.47487 0.0
H1592 H 0.11323 0.64036 0.55397 0.0
H1593 H 0.14376 0.61529 0.5286 0.0
H1594 H 0.2233 0.59498 0.56223 0.0
C1595 C 0.28022 0.56977 0.48913 0.0
C1596 C 0.21226 0.59583 0.49395 0.0
C1597 C 0.29691 0.55875 0.47161 0.0
C1598 C 0.13416 0.63986 0.5586 0.0
C1599 C 0.15175 0.6256 0.54398 0.0
C1600 C 0.22007 0.59573 0.54318 0.0
C1601 C 0.25235 0.56705 0.4874 0.0
C1602 C 0.23406 0.58187 0.50352 0.0
C1603 C 0.17917 0.62439 0.54936 0.0
C1604 C 0.19812 0.60962 0.53361 0.0
H1605 H 0.24921 0.52963 0.43695 0.0
H1606 H 0.22041 0.54843 0.46742 0.0
H1607 H 0.25444 0.57147 0.53618 0.0
H1608 H 0.17882 0.66185 0.6 0.0
H1609 H 0.20937 0.6378 0.57434 0.0
C1610 C 0.85363 0.17175 0.57999 0.0
C1611 C 0.85124 0.1446 0.57403 0.0
C1612 C 0.8666 0.18958 0.56481 0.0
C1613 C 0.88964 0.19731 0.5022 0.0
H1614 H 0.93147 0.25536 0.52871 0.0
C1615 C 0.95788 0.26018 0.44345 0.0
C1616 C 0.95441 0.28795 0.44449 0.0
C1617 C 0.94696 0.24366 0.46081 0.0
C1618 C 0.91969 0.23938 0.52109 0.0
H1619 H 0.86077 0.1149 0.54734 0.0
H1620 H 0.88411 0.14585 0.52103 0.0
H1621 H 0.90923 0.22393 0.55534 0.0
H1622 H 0.93835 0.32041 0.46544 0.0
H1623 H 0.9195 0.29126 0.49645 0.0
H1624 H 0.9006 0.2125 0.46796 0.0
C1625 C 0.87544 0.15353 0.53729 0.0
C1626 C 0.90684 0.22135 0.53631 0.0
C1627 C 0.86219 0.13569 0.55243 0.0
C1628 C 0.94149 0.29909 0.46433 0.0
C1629 C 0.93058 0.2824 0.48193 0.0
C1630 C 0.90268 0.21513 0.48703 0.0
C1631 C 0.87782 0.18077 0.54326 0.0
C1632 C 0.89167 0.19999 0.52708 0.0
C1633 C 0.9324 0.25446 0.47981 0.0
C1634 C 0.91797 0.23627 0.49628 0.0
H1635 H 0.84521 0.17941 0.59638 0.0
H1636 H 0.86746 0.21039 0.56987 0.0
H1637 H 0.87769 0.18161 0.49434 0.0
H1638 H 0.96798 0.25106 0.42846 0.0
H1639 H 0.94921 0.22227 0.45897 0.0
C1640 C 0.86744 0.14369 0.95461 0.0
C1641 C 0.8587 0.15453 0.93292 0.0
C1642 C 0.84956 0.13034 0.96961 0.0
C1643 C 0.78238 0.09804 0.97025 0.0
H1644 H 0.79043 0.10537 0.03859 0.0
C1645 C 0.70593 0.06113 0.04265 0.0
C1646 C 0.71775 0.04863 0.06239 0.0
C1647 C 0.722 0.07263 0.0249 0.0
C1648 C 0.78801 0.10301 0.01952 0.0
H1649 H 0.82418 0.16013 0.91017 0.0
H1650 H 0.79311 0.13757 0.93644 0.0
H1651 H 0.82088 0.1288 0.01221 0.0
H1652 H 0.75521 0.03642 0.07812 0.0
H1653 H 0.78292 0.05612 0.04734 0.0
H1654 H 0.74906 0.07249 0.97787 0.0
C1655 C 0.81383 0.1387 0.9417 0.0
C1656 C 0.80558 0.11634 0.00437 0.0
C1657 C 0.8317 0.15183 0.92666 0.0
C1658 C 0.74559 0.04616 0.0632 0.0
C1659 C 0.76149 0.05761 0.04568 0.0
C1660 C 0.7646 0.08486 0.98547 0.0
C1661 C 0.82247 0.12771 0.96339 0.0
C1662 C 0.80326 0.11383 0.9795 0.0
C1663 C 0.74998 0.0718 0.02679 0.0
C1664 C 0.7675 0.08691 0.01028 0.0
H1665 H 0.88811 0.14535 0.95994 0.0
H1666 H 0.8571 0.12181 0.98599 0.0
H1667 H 0.78007 0.09537 0.95122 0.0
H1668 H 0.68453 0.06354 0.04175 0.0
H1669 H 0.71263 0.08342 0.01046 0.0
C1670 C 0.35518 0.83961 0.91666 0.0
C1671 C 0.3531 0.86676 0.92269 0.0
C1672 C 0.36996 0.82207 0.93078 0.0
C1673 C 0.3978 0.81527 0.99182 0.0
H1674 H 0.43678 0.75618 0.96406 0.0
C1675 C 0.46578 0.75093 0.04935 0.0
C1676 C 0.46194 0.72321 0.04803 0.0
C1677 C 0.45514 0.76778 0.03208 0.0
C1678 C 0.42584 0.77249 0.97205 0.0
H1679 H 0.36546 0.89684 0.94816 0.0
H1680 H 0.39186 0.86643 0.97251 0.0
H1681 H 0.41336 0.78756 0.93814 0.0
H1682 H 0.44534 0.69124 0.0267 0.0
H1683 H 0.42682 0.72092 0.99604 0.0
H1684 H 0.41044 0.80037 0.02566 0.0
C1685 C 0.38156 0.85851 0.95709 0.0
C1686 C 0.41235 0.79049 0.95723 0.0
C1687 C 0.36658 0.87605 0.94302 0.0
C1688 C 0.44887 0.71249 0.02803 0.0
C1689 C 0.43814 0.72951 0.01059 0.0
C1690 C 0.41142 0.79747 0.00655 0.0
C1691 C 0.38326 0.8312 0.9513 0.0
C1692 C 0.39814 0.81218 0.96692 0.0
C1693 C 0.44032 0.75741 0.01298 0.0
C1694 C 0.42571 0.77593 0.99688 0.0
H1695 H 0.34493 0.83167 0.9012 0.0
H1696 H 0.37036 0.80119 0.92589 0.0
H1697 H 0.38659 0.83123 1.00005 0.0
H1698 H 0.47591 0.75976 0.06449 0.0
H1699 H 0.45771 0.78911 0.03416 0.0
C1700 C 0.79329 0.44692 0.01663 0.0
C1701 C 0.78406 0.46178 0.03618 0.0
C1702 C 0.77519 0.43709 0.99956 0.0
C1703 C 0.70535 0.4159 0.997 0.0
H1704 H 0.71381 0.41399 0.92847 0.0
C1705 C 0.62271 0.37211 0.93665 0.0
C1706 C 0.63058 0.35763 0.91643 0.0
C1707 C 0.64139 0.38689 0.94981 0.0
C1708 C 0.71124 0.41402 0.94761 0.0
H1709 H 0.74923 0.47989 0.05213 0.0
H1710 H 0.71803 0.4632 0.02244 0.0
H1711 H 0.74741 0.43621 0.9531 0.0
H1712 H 0.66439 0.34741 0.89421 0.0
H1713 H 0.69683 0.3723 0.91736 0.0
H1714 H 0.66984 0.39312 0.99193 0.0
C1715 C 0.73897 0.45859 0.02042 0.0
C1716 C 0.73052 0.42686 0.96169 0.0
C1717 C 0.7569 0.46835 0.03731 0.0
C1718 C 0.6575 0.35852 0.90956 0.0
C1719 C 0.67619 0.373 0.92283 0.0
C1720 C 0.6863 0.40283 0.98302 0.0
C1721 C 0.74767 0.44195 1.00189 0.0
C1722 C 0.72768 0.42812 0.98655 0.0
C1723 C 0.66851 0.38729 0.94328 0.0
C1724 C 0.68882 0.40175 0.95808 0.0
H1725 H 0.81405 0.44125 0.01551 0.0
H1726 H 0.7825 0.42432 0.98544 0.0
H1727 H 0.70282 0.41603 0.01616 0.0
H1728 H 0.60213 0.37194 0.9424 0.0
H1729 H 0.63449 0.398 0.96515 0.0
C1730 C 0.0571 0.79106 0.02415 0.0
C1731 C 0.04732 0.78042 0.04554 0.0
C1732 C 0.06528 0.774 0.00565 0.0
C1733 C 0.0637 0.70235 0.98577 0.0
H1734 H 0.13163 0.71955 0.95698 0.0
C1735 C 0.13291 0.62326 0.94273 0.0
C1736 C 0.14547 0.63014 0.92124 0.0
C1737 C 0.11803 0.64222 0.95537 0.0
C1738 C 0.11249 0.71456 0.96464 0.0
H1739 H 0.03688 0.74379 0.06374 0.0
H1740 H 0.05107 0.71445 0.03206 0.0
H1741 H 0.10969 0.75225 0.9824 0.0
H1742 H 0.15195 0.66237 0.89611 0.0
H1743 H 0.1263 0.69527 0.91823 0.0
H1744 H 0.06715 0.66421 0.96874 0.0
C1745 C 0.05238 0.73573 0.02914 0.0
C1746 C 0.09979 0.73341 0.97913 0.0
C1747 C 0.04434 0.75264 0.04747 0.0
C1748 C 0.1425 0.65629 0.91256 0.0
C1749 C 0.12793 0.67526 0.92531 0.0
C1750 C 0.07654 0.68342 0.97151 0.0
C1751 C 0.06364 0.74604 0.00819 0.0
C1752 C 0.07542 0.72741 0.99025 0.0
C1753 C 0.11568 0.66855 0.94695 0.0
C1754 C 0.10126 0.68916 0.96104 0.0
H1755 H 0.05984 0.81237 0.02223 0.0
H1756 H 0.07355 0.78269 0.98963 0.0
H1757 H 0.04471 0.69714 0.9936 0.0
H1758 H 0.13487 0.60335 0.94995 0.0
H1759 H 0.109 0.63648 0.97211 0.0
loop_
_geom_bond_atom_site_label_1
_geom_bond_atom_site_label_2
_geom_bond_distance
_geom_bond_site_symmetry_2
_ccdc_geom_bond_type
Zn0 O6 1.969 . S
Zn0 O7 1.965 . S
Zn0 O11 2.024 . S
Zn0 O16 1.969 . S
Zn1 O8 1.969 . S
Zn1 O14 1.969 . S
Zn1 O15 1.965 . S
Zn1 O17 2.024 . S
C2 O3 1.229 . S
C2 O11 1.058 . S
O3 C2 1.229 . S
C4 O5 1.229 . S
C4 O17 1.058 . S
O5 C4 1.229 . S
O6 Zn0 1.969 . S
O6 C9 1.267 . S
O7 Zn0 1.965 . S
O7 C18 1.260 . S
O8 Zn1 1.969 . S
O8 C18 1.258 . S
C9 O6 1.267 . S
C9 O10 1.228 . S
O10 C9 1.228 . S
O11 Zn0 2.024 . S
O11 C2 1.058 . S
C12 O13 1.228 . S
C12 O14 1.267 . S
O13 C12 1.228 . S
O14 Zn1 1.969 . S
O14 C12 1.267 . S
O15 Zn1 1.965 . S
O15 C19 1.260 . S
O16 Zn0 1.969 . S
O16 C19 1.258 . S
O17 Zn1 2.024 . S
O17 C4 1.058 . S
C18 O7 1.260 . S
C18 O8 1.258 . S
C19 O15 1.260 . S
C19 O16 1.258 . S
Zn20 O26 1.969 . S
Zn20 O27 1.965 . S
Zn20 O31 2.024 . S
Zn20 O36 1.969 . S
Zn21 O28 1.969 . S
Zn21 O34 1.969 . S
Zn21 O35 1.965 . S
Zn21 O37 2.024 . S
C22 O23 1.229 . S
C22 O31 1.058 . S
O23 C22 1.229 . S
C24 O25 1.229 . S
C24 O37 1.058 . S
O25 C24 1.229 . S
O26 Zn20 1.969 . S
O26 C29 1.267 . S
O27 Zn20 1.965 . S
O27 C38 1.260 . S
O28 Zn21 1.969 . S
O28 C38 1.258 . S
C29 O26 1.267 . S
C29 O30 1.228 . S
O30 C29 1.228 . S
O31 Zn20 2.024 . S
O31 C22 1.058 . S
C32 O33 1.228 . S
C32 O34 1.267 . S
O33 C32 1.228 . S
O34 Zn21 1.969 . S
O34 C32 1.267 . S
O35 Zn21 1.965 . S
O35 C39 1.260 . S
O36 Zn20 1.969 . S
O36 C39 1.258 . S
O37 Zn21 2.024 . S
O37 C24 1.058 . S
C38 O27 1.260 . S
C38 O28 1.258 . S
C39 O35 1.260 . S
C39 O36 1.258 . S
Zn40 O46 1.969 1_655 S
Zn40 O47 1.965 . S
Zn40 O51 2.024 . S
Zn40 O56 1.969 . S
Zn41 O48 1.969 . S
Zn41 O54 1.969 . S
Zn41 O55 1.965 . S
Zn41 O57 2.024 . S
C42 O43 1.229 . S
C42 O51 1.058 1_455 S
O43 C42 1.229 . S
C44 O45 1.229 . S
C44 O57 1.058 . S
O45 C44 1.229 . S
O46 Zn40 1.969 1_455 S
O46 C49 1.267 . S
O47 Zn40 1.965 . S
O47 C58 1.260 . S
O48 Zn41 1.969 . S
O48 C58 1.258 . S
C49 O46 1.267 . S
C49 O50 1.228 . S
O50 C49 1.228 . S
O51 Zn40 2.024 . S
O51 C42 1.058 1_655 S
C52 O53 1.228 . S
C52 O54 1.267 . S
O53 C52 1.228 . S
O54 Zn41 1.969 . S
O54 C52 1.267 . S
O55 Zn41 1.965 . S
O55 C59 1.260 . S
O56 Zn40 1.969 . S
O56 C59 1.258 . S
O57 Zn41 2.024 . S
O57 C44 1.058 . S
C58 O47 1.260 . S
C58 O48 1.258 . S
C59 O55 1.260 . S
C59 O56 1.258 . S
Zn60 O66 1.969 1_565 S
Zn60 O67 1.965 . S
Zn60 O71 2.024 . S
Zn60 O76 1.969 . S
Zn61 O68 1.969 . S
Zn61 O74 1.969 . S
Zn61 O75 1.965 . S
Zn61 O77 2.024 . S
C62 O63 1.229 . S
C62 O71 1.058 1_545 S
O63 C62 1.229 . S
C64 O65 1.229 . S
C64 O77 1.058 . S
O65 C64 1.229 . S
O66 Zn60 1.969 1_545 S
O66 C69 1.267 . S
O67 Zn60 1.965 . S
O67 C78 1.260 . S
O68 Zn61 1.969 . S
O68 C78 1.258 . S
C69 O66 1.267 . S
C69 O70 1.228 . S
O70 C69 1.228 . S
O71 Zn60 2.024 . S
O71 C62 1.058 1_565 S
C72 O73 1.228 . S
C72 O74 1.267 . S
O73 C72 1.228 . S
O74 Zn61 1.969 . S
O74 C72 1.267 . S
O75 Zn61 1.965 . S
O75 C79 1.260 . S
O76 Zn60 1.969 . S
O76 C79 1.258 . S
O77 Zn61 2.024 . S
O77 C64 1.058 . S
C78 O67 1.260 . S
C78 O68 1.258 . S
C79 O75 1.260 . S
C79 O76 1.258 . S
Zn80 O86 1.969 1_455 S
Zn80 O87 1.965 . S
Zn80 O91 2.024 . S
Zn80 O96 1.969 . S
Zn81 O88 1.969 . S
Zn81 O94 1.969 . S
Zn81 O95 1.965 . S
Zn81 O97 2.024 . S
C82 O83 1.229 . S
C82 O91 1.058 1_655 S
O83 C82 1.229 . S
C84 O85 1.229 . S
C84 O97 1.058 . S
O85 C84 1.229 . S
O86 Zn80 1.969 1_655 S
O86 C89 1.267 . S
O87 Zn80 1.965 . S
O87 C98 1.260 . S
O88 Zn81 1.969 . S
O88 C98 1.258 . S
C89 O86 1.267 . S
C89 O90 1.228 . S
O90 C89 1.228 . S
O91 Zn80 2.024 . S
O91 C82 1.058 1_455 S
C92 O93 1.228 . S
C92 O94 1.267 . S
O93 C92 1.228 . S
O94 Zn81 1.969 . S
O94 C92 1.267 . S
O95 Zn81 1.965 . S
O95 C99 1.260 . S
O96 Zn80 1.969 . S
O96 C99 1.258 . S
O97 Zn81 2.024 . S
O97 C84 1.058 . S
C98 O87 1.260 . S
C98 O88 1.258 . S
C99 O95 1.260 . S
C99 O96 1.258 . S
Zn100 O106 1.969 1_545 S
Zn100 O107 1.965 . S
Zn100 O111 2.024 . S
Zn100 O116 1.969 . S
Zn101 O108 1.969 . S
Zn101 O114 1.969 . S
Zn101 O115 1.965 . S
Zn101 O117 2.024 . S
C102 O103 1.229 . S
C102 O111 1.058 1_565 S
O103 C102 1.229 . S
C104 O105 1.229 . S
C104 O117 1.058 . S
O105 C104 1.229 . S
O106 Zn100 1.969 1_565 S
O106 C109 1.267 . S
O107 Zn100 1.965 . S
O107 C118 1.260 . S
O108 Zn101 1.969 . S
O108 C118 1.258 . S
C109 O106 1.267 . S
C109 O110 1.228 . S
O110 C109 1.228 . S
O111 Zn100 2.024 . S
O111 C102 1.058 1_545 S
C112 O113 1.228 . S
C112 O114 1.267 . S
O113 C112 1.228 . S
O114 Zn101 1.969 . S
O114 C112 1.267 . S
O115 Zn101 1.965 . S
O115 C119 1.260 . S
O116 Zn100 1.969 . S
O116 C119 1.258 . S
O117 Zn101 2.024 . S
O117 C104 1.058 . S
C118 O107 1.260 . S
C118 O108 1.258 . S
C119 O115 1.260 . S
C119 O116 1.258 . S
Zn120 O126 1.969 . S
Zn120 O127 1.965 . S
Zn120 O131 2.024 . S
Zn120 O136 1.969 . S
Zn121 O128 1.969 . S
Zn121 O134 1.969 . S
Zn121 O135 1.965 . S
Zn121 O137 2.024 . S
C122 O123 1.229 . S
C122 O131 1.058 . S
O123 C122 1.229 . S
C124 O125 1.229 . S
C124 O137 1.058 . S
O125 C124 1.229 . S
O126 Zn120 1.969 . S
O126 C129 1.267 . S
O127 Zn120 1.965 . S
O127 C138 1.260 . S
O128 Zn121 1.969 . S
O128 C138 1.258 . S
C129 O126 1.267 . S
C129 O130 1.228 . S
O130 C129 1.228 . S
O131 Zn120 2.024 . S
O131 C122 1.058 . S
C132 O133 1.228 . S
C132 O134 1.267 . S
O133 C132 1.228 . S
O134 Zn121 1.969 . S
O134 C132 1.267 . S
O135 Zn121 1.965 . S
O135 C139 1.260 . S
O136 Zn120 1.969 . S
O136 C139 1.258 . S
O137 Zn121 2.024 . S
O137 C124 1.058 . S
C138 O127 1.260 . S
C138 O128 1.258 . S
C139 O135 1.260 . S
C139 O136 1.258 . S
Zn140 O146 1.969 . S
Zn140 O147 1.965 . S
Zn140 O151 2.024 . S
Zn140 O156 1.969 . S
Zn141 O148 1.969 . S
Zn141 O154 1.969 . S
Zn141 O155 1.965 . S
Zn141 O157 2.024 . S
C142 O143 1.229 . S
C142 O151 1.058 . S
O143 C142 1.229 . S
C144 O145 1.229 . S
C144 O157 1.058 . S
O145 C144 1.229 . S
O146 Zn140 1.969 . S
O146 C149 1.267 . S
O147 Zn140 1.965 . S
O147 C158 1.260 . S
O148 Zn141 1.969 . S
O148 C158 1.258 . S
C149 O146 1.267 . S
C149 O150 1.228 . S
O150 C149 1.228 . S
O151 Zn140 2.024 . S
O151 C142 1.058 . S
C152 O153 1.228 . S
C152 O154 1.267 . S
O153 C152 1.228 . S
O154 Zn141 1.969 . S
O154 C152 1.267 . S
O155 Zn141 1.965 . S
O155 C159 1.260 . S
O156 Zn140 1.969 . S
O156 C159 1.258 . S
O157 Zn141 2.024 . S
O157 C144 1.058 . S
C158 O147 1.260 . S
C158 O148 1.258 . S
C159 O155 1.260 . S
C159 O156 1.258 . S
Zn160 O166 1.969 . S
Zn160 O167 1.965 . S
Zn160 O171 2.024 . S
Zn160 O176 1.969 . S
Zn161 O168 1.969 . S
Zn161 O174 1.969 . S
Zn161 O175 1.965 . S
Zn161 O177 2.024 . S
C162 O163 1.229 . S
C162 O171 1.058 . S
O163 C162 1.229 . S
C164 O165 1.229 . S
C164 O177 1.058 . S
O165 C164 1.229 . S
O166 Zn160 1.969 . S
O166 C169 1.267 . S
O167 Zn160 1.965 . S
O167 C178 1.260 . S
O168 Zn161 1.969 . S
O168 C178 1.258 . S
C169 O166 1.267 . S
C169 O170 1.228 . S
O170 C169 1.228 . S
O171 Zn160 2.024 . S
O171 C162 1.058 . S
C172 O173 1.228 . S
C172 O174 1.267 . S
O173 C172 1.228 . S
O174 Zn161 1.969 . S
O174 C172 1.267 . S
O175 Zn161 1.965 . S
O175 C179 1.260 . S
O176 Zn160 1.969 . S
O176 C179 1.258 . S
O177 Zn161 2.024 . S
O177 C164 1.058 . S
C178 O167 1.260 . S
C178 O168 1.258 . S
C179 O175 1.260 . S
C179 O176 1.258 . S
Zn180 O186 1.969 . S
Zn180 O187 1.965 . S
Zn180 O191 2.024 . S
Zn180 O196 1.969 . S
Zn181 O188 1.969 . S
Zn181 O194 1.969 . S
Zn181 O195 1.965 . S
Zn181 O197 2.024 . S
C182 O183 1.229 . S
C182 O191 1.058 . S
O183 C182 1.229 . S
C184 O185 1.229 . S
C184 O197 1.058 . S
O185 C184 1.229 . S
O186 Zn180 1.969 . S
O186 C189 1.267 . S
O187 Zn180 1.965 . S
O187 C198 1.260 . S
O188 Zn181 1.969 . S
O188 C198 1.258 . S
C189 O186 1.267 . S
C189 O190 1.228 . S
O190 C189 1.228 . S
O191 Zn180 2.024 . S
O191 C182 1.058 . S
C192 O193 1.228 . S
C192 O194 1.267 . S
O193 C192 1.228 . S
O194 Zn181 1.969 . S
O194 C192 1.267 . S
O195 Zn181 1.965 . S
O195 C199 1.260 . S
O196 Zn180 1.969 . S
O196 C199 1.258 . S
O197 Zn181 2.024 . S
O197 C184 1.058 . S
C198 O187 1.260 . S
C198 O188 1.258 . S
C199 O195 1.260 . S
C199 O196 1.258 . S
Zn200 O206 1.969 . S
Zn200 O207 1.965 . S
Zn200 O211 2.024 . S
Zn200 O216 1.969 . S
Zn201 O208 1.969 . S
Zn201 O214 1.969 1_455 S
Zn201 O215 1.965 . S
Zn201 O217 2.024 . S
C202 O203 1.229 . S
C202 O211 1.058 . S
O203 C202 1.229 . S
C204 O205 1.229 . S
C204 O217 1.058 1_655 S
O205 C204 1.229 . S
O206 Zn200 1.969 . S
O206 C209 1.267 . S
O207 Zn200 1.965 . S
O207 C218 1.260 . S
O208 Zn201 1.969 . S
O208 C218 1.258 . S
C209 O206 1.267 . S
C209 O210 1.228 . S
O210 C209 1.228 . S
O211 Zn200 2.024 . S
O211 C202 1.058 . S
C212 O213 1.228 . S
C212 O214 1.267 . S
O213 C212 1.228 . S
O214 Zn201 1.969 1_655 S
O214 C212 1.267 . S
O215 Zn201 1.965 . S
O215 C219 1.260 . S
O216 Zn200 1.969 . S
O216 C219 1.258 . S
O217 Zn201 2.024 . S
O217 C204 1.058 1_455 S
C218 O207 1.260 . S
C218 O208 1.258 . S
C219 O215 1.260 . S
C219 O216 1.258 . S
Zn220 O226 1.969 . S
Zn220 O227 1.965 . S
Zn220 O231 2.024 . S
Zn220 O236 1.969 . S
Zn221 O228 1.969 . S
Zn221 O234 1.969 1_545 S
Zn221 O235 1.965 . S
Zn221 O237 2.024 . S
C222 O223 1.229 . S
C222 O231 1.058 . S
O223 C222 1.229 . S
C224 O225 1.229 . S
C224 O237 1.058 1_565 S
O225 C224 1.229 . S
O226 Zn220 1.969 . S
O226 C229 1.267 . S
O227 Zn220 1.965 . S
O227 C238 1.260 . S
O228 Zn221 1.969 . S
O228 C238 1.258 . S
C229 O226 1.267 . S
C229 O230 1.228 . S
O230 C229 1.228 . S
O231 Zn220 2.024 . S
O231 C222 1.058 . S
C232 O233 1.228 . S
C232 O234 1.267 . S
O233 C232 1.228 . S
O234 Zn221 1.969 1_565 S
O234 C232 1.267 . S
O235 Zn221 1.965 . S
O235 C239 1.260 . S
O236 Zn220 1.969 . S
O236 C239 1.258 . S
O237 Zn221 2.024 . S
O237 C224 1.058 1_545 S
C238 O227 1.260 . S
C238 O228 1.258 . S
C239 O235 1.260 . S
C239 O236 1.258 . S
Zn240 O246 1.969 . S
Zn240 O247 1.965 . S
Zn240 O251 2.024 . S
Zn240 O256 1.969 . S
Zn241 O248 1.969 . S
Zn241 O254 1.969 1_655 S
Zn241 O255 1.965 . S
Zn241 O257 2.024 . S
C242 O243 1.229 . S
C242 O251 1.058 . S
O243 C242 1.229 . S
C244 O245 1.229 . S
C244 O257 1.058 1_455 S
O245 C244 1.229 . S
O246 Zn240 1.969 . S
O246 C249 1.267 . S
O247 Zn240 1.965 . S
O247 C258 1.260 . S
O248 Zn241 1.969 . S
O248 C258 1.258 . S
C249 O246 1.267 . S
C249 O250 1.228 . S
O250 C249 1.228 . S
O251 Zn240 2.024 . S
O251 C242 1.058 . S
C252 O253 1.228 . S
C252 O254 1.267 . S
O253 C252 1.228 . S
O254 Zn241 1.969 1_455 S
O254 C252 1.267 . S
O255 Zn241 1.965 . S
O255 C259 1.260 . S
O256 Zn240 1.969 . S
O256 C259 1.258 . S
O257 Zn241 2.024 . S
O257 C244 1.058 1_655 S
C258 O247 1.260 . S
C258 O248 1.258 . S
C259 O255 1.260 . S
C259 O256 1.258 . S
Zn260 O266 1.969 . S
Zn260 O267 1.965 . S
Zn260 O271 2.024 . S
Zn260 O276 1.969 . S
Zn261 O268 1.969 . S
Zn261 O274 1.969 1_565 S
Zn261 O275 1.965 . S
Zn261 O277 2.024 . S
C262 O263 1.229 . S
C262 O271 1.058 . S
O263 C262 1.229 . S
C264 O265 1.229 . S
C264 O277 1.058 1_545 S
O265 C264 1.229 . S
O266 Zn260 1.969 . S
O266 C269 1.267 . S
O267 Zn260 1.965 . S
O267 C278 1.260 . S
O268 Zn261 1.969 . S
O268 C278 1.258 . S
C269 O266 1.267 . S
C269 O270 1.228 . S
O270 C269 1.228 . S
O271 Zn260 2.024 . S
O271 C262 1.058 . S
C272 O273 1.228 . S
C272 O274 1.267 . S
O273 C272 1.228 . S
O274 Zn261 1.969 1_545 S
O274 C272 1.267 . S
O275 Zn261 1.965 . S
O275 C279 1.260 . S
O276 Zn260 1.969 . S
O276 C279 1.258 . S
O277 Zn261 2.024 . S
O277 C264 1.058 1_565 S
C278 O267 1.260 . S
C278 O268 1.258 . S
C279 O275 1.260 . S
C279 O276 1.258 . S
Zn280 O286 1.969 . S
Zn280 O287 1.965 . S
Zn280 O291 2.024 . S
Zn280 O296 1.969 . S
Zn281 O288 1.969 . S
Zn281 O294 1.969 . S
Zn281 O295 1.965 . S
Zn281 O297 2.024 . S
C282 O283 1.229 . S
C282 O291 1.058 . S
O283 C282 1.229 . S
C284 O285 1.229 . S
C284 O297 1.058 . S
O285 C284 1.229 . S
O286 Zn280 1.969 . S
O286 C289 1.267 . S
O287 Zn280 1.965 . S
O287 C298 1.260 . S
O288 Zn281 1.969 . S
O288 C298 1.258 . S
C289 O286 1.267 . S
C289 O290 1.228 . S
O290 C289 1.228 . S
O291 Zn280 2.024 . S
O291 C282 1.058 . S
C292 O293 1.228 . S
C292 O294 1.267 . S
O293 C292 1.228 . S
O294 Zn281 1.969 . S
O294 C292 1.267 . S
O295 Zn281 1.965 . S
O295 C299 1.260 . S
O296 Zn280 1.969 . S
O296 C299 1.258 . S
O297 Zn281 2.024 . S
O297 C284 1.058 . S
C298 O287 1.260 . S
C298 O288 1.258 . S
C299 O295 1.260 . S
C299 O296 1.258 . S
Zn300 O306 1.969 . S
Zn300 O307 1.965 . S
Zn300 O311 2.024 . S
Zn300 O316 1.969 . S
Zn301 O308 1.969 . S
Zn301 O314 1.969 . S
Zn301 O315 1.965 . S
Zn301 O317 2.024 . S
C302 O303 1.229 . S
C302 O311 1.058 . S
O303 C302 1.229 . S
C304 O305 1.229 . S
C304 O317 1.058 . S
O305 C304 1.229 . S
O306 Zn300 1.969 . S
O306 C309 1.267 . S
O307 Zn300 1.965 . S
O307 C318 1.260 . S
O308 Zn301 1.969 . S
O308 C318 1.258 . S
C309 O306 1.267 . S
C309 O310 1.228 . S
O310 C309 1.228 . S
O311 Zn300 2.024 . S
O311 C302 1.058 . S
C312 O313 1.228 . S
C312 O314 1.267 . S
O313 C312 1.228 . S
O314 Zn301 1.969 . S
O314 C312 1.267 . S
O315 Zn301 1.965 . S
O315 C319 1.260 . S
O316 Zn300 1.969 . S
O316 C319 1.258 . S
O317 Zn301 2.024 . S
O317 C304 1.058 . S
C318 O307 1.260 . S
C318 O308 1.258 . S
C319 O315 1.260 . S
C319 O316 1.258 . S
C320 C321 1.349 . S
C320 C322 1.327 . S
C320 H345 0.950 . S
C321 C320 1.349 . S
C321 C337 1.349 . S
C322 C320 1.327 . S
C322 C341 1.429 . S
C322 H346 0.950 . S
C323 C340 1.574 . S
C323 C342 1.368 . S
C323 H347 0.949 . S
H324 C328 0.949 . S
C325 C326 1.349 . S
C325 C327 1.327 . S
C325 H348 0.950 . S
C326 C325 1.349 . S
C326 C338 1.349 . S
C327 C325 1.327 . S
C327 C343 1.429 . S
C327 H349 0.950 . S
C328 H324 0.949 . S
C328 C336 1.574 . S
C328 C344 1.368 . S
H329 C337 0.950 . S
H330 C335 0.950 . S
H331 C336 0.949 . S
H332 C338 0.950 . S
H333 C339 0.950 . S
H334 C340 0.949 . S
C335 H330 0.950 . S
C335 C337 1.327 . S
C335 C341 1.429 . S
C336 C328 1.574 . S
C336 H331 0.949 . S
C336 C342 1.368 . S
C337 C321 1.349 . S
C337 H329 0.950 . S
C337 C335 1.327 . S
C338 C326 1.349 . S
C338 H332 0.950 . S
C338 C339 1.327 . S
C339 H333 0.950 . S
C339 C338 1.327 . S
C339 C343 1.429 . S
C340 C323 1.574 . S
C340 H334 0.949 . S
C340 C344 1.368 . S
C341 C322 1.429 . S
C341 C335 1.429 . S
C341 C342 1.523 . S
C342 C323 1.368 . S
C342 C336 1.368 . S
C342 C341 1.523 . S
C343 C327 1.429 . S
C343 C339 1.429 . S
C343 C344 1.523 . S
C344 C328 1.368 . S
C344 C340 1.368 . S
C344 C343 1.523 . S
H345 C320 0.950 . S
H346 C322 0.950 . S
H347 C323 0.949 . S
H348 C325 0.950 . S
H349 C327 0.950 . S
C350 C351 1.349 . S
C350 C352 1.327 . S
C350 H375 0.950 . S
C351 C350 1.349 . S
C351 C367 1.349 . S
C352 C350 1.327 . S
C352 C371 1.429 . S
C352 H376 0.950 . S
C353 C370 1.574 . S
C353 C372 1.368 . S
C353 H377 0.949 . S
H354 C358 0.949 . S
C355 C356 1.349 . S
C355 C357 1.327 . S
C355 H378 0.950 . S
C356 C355 1.349 . S
C356 C368 1.349 . S
C357 C355 1.327 . S
C357 C373 1.429 . S
C357 H379 0.950 . S
C358 H354 0.949 . S
C358 C366 1.574 . S
C358 C374 1.368 . S
H359 C367 0.950 . S
H360 C365 0.950 . S
H361 C366 0.949 . S
H362 C368 0.950 . S
H363 C369 0.950 . S
H364 C370 0.949 . S
C365 H360 0.950 . S
C365 C367 1.327 . S
C365 C371 1.429 . S
C366 C358 1.574 . S
C366 H361 0.949 . S
C366 C372 1.368 . S
C367 C351 1.349 . S
C367 H359 0.950 . S
C367 C365 1.327 . S
C368 C356 1.349 . S
C368 H362 0.950 . S
C368 C369 1.327 . S
C369 H363 0.950 . S
C369 C368 1.327 . S
C369 C373 1.429 . S
C370 C353 1.574 . S
C370 H364 0.949 . S
C370 C374 1.368 . S
C371 C352 1.429 . S
C371 C365 1.429 . S
C371 C372 1.523 . S
C372 C353 1.368 . S
C372 C366 1.368 . S
C372 C371 1.523 . S
C373 C357 1.429 . S
C373 C369 1.429 . S
C373 C374 1.523 . S
C374 C358 1.368 . S
C374 C370 1.368 . S
C374 C373 1.523 . S
H375 C350 0.950 . S
H376 C352 0.950 . S
H377 C353 0.949 . S
H378 C355 0.950 . S
H379 C357 0.950 . S
C380 C381 1.349 . S
C380 C382 1.327 . S
C380 H405 0.950 . S
C381 C380 1.349 . S
C381 C397 1.349 . S
C382 C380 1.327 . S
C382 C401 1.429 . S
C382 H406 0.950 . S
C383 C400 1.574 . S
C383 C402 1.368 . S
C383 H407 0.949 . S
H384 C388 0.949 . S
C385 C386 1.349 . S
C385 C387 1.327 . S
C385 H408 0.950 . S
C386 C385 1.349 . S
C386 C398 1.349 . S
C387 C385 1.327 . S
C387 C403 1.429 . S
C387 H409 0.950 . S
C388 H384 0.949 . S
C388 C396 1.574 . S
C388 C404 1.368 . S
H389 C397 0.950 . S
H390 C395 0.950 . S
H391 C396 0.949 . S
H392 C398 0.950 . S
H393 C399 0.950 . S
H394 C400 0.949 . S
C395 H390 0.950 . S
C395 C397 1.327 . S
C395 C401 1.429 . S
C396 C388 1.574 . S
C396 H391 0.949 . S
C396 C402 1.368 . S
C397 C381 1.349 . S
C397 H389 0.950 . S
C397 C395 1.327 . S
C398 C386 1.349 . S
C398 H392 0.950 . S
C398 C399 1.327 . S
C399 H393 0.950 . S
C399 C398 1.327 . S
C399 C403 1.429 . S
C400 C383 1.574 . S
C400 H394 0.949 . S
C400 C404 1.368 . S
C401 C382 1.429 . S
C401 C395 1.429 . S
C401 C402 1.523 . S
C402 C383 1.368 . S
C402 C396 1.368 . S
C402 C401 1.523 . S
C403 C387 1.429 . S
C403 C399 1.429 . S
C403 C404 1.523 . S
C404 C388 1.368 . S
C404 C400 1.368 . S
C404 C403 1.523 . S
H405 C380 0.950 . S
H406 C382 0.950 . S
H407 C383 0.949 . S
H408 C385 0.950 . S
H409 C387 0.950 . S
C410 C411 1.349 . S
C410 C412 1.327 . S
C410 H435 0.950 . S
C411 C410 1.349 . S
C411 C427 1.349 . S
C412 C410 1.327 . S
C412 C431 1.429 . S
C412 H436 0.950 . S
C413 C430 1.574 . S
C413 C432 1.368 . S
C413 H437 0.949 . S
H414 C418 0.949 . S
C415 C416 1.349 . S
C415 C417 1.327 . S
C415 H438 0.950 . S
C416 C415 1.349 . S
C416 C428 1.349 . S
C417 C415 1.327 . S
C417 C433 1.429 . S
C417 H439 0.950 . S
C418 H414 0.949 . S
C418 C426 1.574 . S
C418 C434 1.368 . S
H419 C427 0.950 . S
H420 C425 0.950 . S
H421 C426 0.949 . S
H422 C428 0.950 . S
H423 C429 0.950 . S
H424 C430 0.949 . S
C425 H420 0.950 . S
C425 C427 1.327 . S
C425 C431 1.429 . S
C426 C418 1.574 . S
C426 H421 0.949 . S
C426 C432 1.368 . S
C427 C411 1.349 . S
C427 H419 0.950 . S
C427 C425 1.327 . S
C428 C416 1.349 . S
C428 H422 0.950 . S
C428 C429 1.327 . S
C429 H423 0.950 . S
C429 C428 1.327 . S
C429 C433 1.429 . S
C430 C413 1.574 . S
C430 H424 0.949 . S
C430 C434 1.368 . S
C431 C412 1.429 . S
C431 C425 1.429 . S
C431 C432 1.523 . S
C432 C413 1.368 . S
C432 C426 1.368 . S
C432 C431 1.523 . S
C433 C417 1.429 . S
C433 C429 1.429 . S
C433 C434 1.523 . S
C434 C418 1.368 . S
C434 C430 1.368 . S
C434 C433 1.523 . S
H435 C410 0.950 . S
H436 C412 0.950 . S
H437 C413 0.949 . S
H438 C415 0.950 . S
H439 C417 0.950 . S
C440 C441 1.349 . S
C440 C442 1.327 . S
C440 H465 0.950 . S
C441 C440 1.349 . S
C441 C457 1.349 . S
C442 C440 1.327 . S
C442 C461 1.429 . S
C442 H466 0.950 . S
C443 C460 1.574 . S
C443 C462 1.368 . S
C443 H467 0.949 . S
H444 C448 0.949 . S
C445 C446 1.349 . S
C445 C447 1.327 . S
C445 H468 0.950 . S
C446 C445 1.349 . S
C446 C458 1.349 . S
C447 C445 1.327 . S
C447 C463 1.429 . S
C447 H469 0.950 . S
C448 H444 0.949 . S
C448 C456 1.574 . S
C448 C464 1.368 . S
H449 C457 0.950 . S
H450 C455 0.950 . S
H451 C456 0.949 . S
H452 C458 0.950 . S
H453 C459 0.950 . S
H454 C460 0.949 . S
C455 H450 0.950 . S
C455 C457 1.327 . S
C455 C461 1.429 . S
C456 C448 1.574 . S
C456 H451 0.949 . S
C456 C462 1.368 . S
C457 C441 1.349 . S
C457 H449 0.950 . S
C457 C455 1.327 . S
C458 C446 1.349 . S
C458 H452 0.950 . S
C458 C459 1.327 . S
C459 H453 0.950 . S
C459 C458 1.327 . S
C459 C463 1.429 . S
C460 C443 1.574 . S
C460 H454 0.949 . S
C460 C464 1.368 . S
C461 C442 1.429 . S
C461 C455 1.429 . S
C461 C462 1.523 . S
C462 C443 1.368 . S
C462 C456 1.368 . S
C462 C461 1.523 . S
C463 C447 1.429 . S
C463 C459 1.429 . S
C463 C464 1.523 . S
C464 C448 1.368 . S
C464 C460 1.368 . S
C464 C463 1.523 . S
H465 C440 0.950 . S
H466 C442 0.950 . S
H467 C443 0.949 . S
H468 C445 0.950 . S
H469 C447 0.950 . S
C470 C471 1.349 . S
C470 C472 1.327 . S
C470 H495 0.950 . S
C471 C470 1.349 . S
C471 C487 1.349 . S
C472 C470 1.327 . S
C472 C491 1.429 . S
C472 H496 0.950 . S
C473 C490 1.574 . S
C473 C492 1.368 . S
C473 H497 0.949 . S
H474 C478 0.949 . S
C475 C476 1.349 . S
C475 C477 1.327 . S
C475 H498 0.950 . S
C476 C475 1.349 . S
C476 C488 1.349 . S
C477 C475 1.327 . S
C477 C493 1.429 . S
C477 H499 0.950 . S
C478 H474 0.949 . S
C478 C486 1.574 . S
C478 C494 1.368 . S
H479 C487 0.950 . S
H480 C485 0.950 . S
H481 C486 0.949 . S
H482 C488 0.950 . S
H483 C489 0.950 . S
H484 C490 0.949 . S
C485 H480 0.950 . S
C485 C487 1.327 . S
C485 C491 1.429 . S
C486 C478 1.574 . S
C486 H481 0.949 . S
C486 C492 1.368 . S
C487 C471 1.349 . S
C487 H479 0.950 . S
C487 C485 1.327 . S
C488 C476 1.349 . S
C488 H482 0.950 . S
C488 C489 1.327 . S
C489 H483 0.950 . S
C489 C488 1.327 . S
C489 C493 1.429 . S
C490 C473 1.574 . S
C490 H484 0.949 . S
C490 C494 1.368 . S
C491 C472 1.429 . S
C491 C485 1.429 . S
C491 C492 1.523 . S
C492 C473 1.368 . S
C492 C486 1.368 . S
C492 C491 1.523 . S
C493 C477 1.429 . S
C493 C489 1.429 . S
C493 C494 1.523 . S
C494 C478 1.368 . S
C494 C490 1.368 . S
C494 C493 1.523 . S
H495 C470 0.950 . S
H496 C472 0.950 . S
H497 C473 0.949 . S
H498 C475 0.950 . S
H499 C477 0.950 . S
C500 C501 1.349 . S
C500 C502 1.327 . S
C500 H525 0.950 . S
C501 C500 1.349 . S
C501 C517 1.349 . S
C502 C500 1.327 . S
C502 C521 1.429 . S
C502 H526 0.950 . S
C503 C520 1.574 . S
C503 C522 1.368 . S
C503 H527 0.949 . S
H504 C508 0.949 . S
C505 C506 1.349 . S
C505 C507 1.327 . S
C505 H528 0.950 . S
C506 C505 1.349 . S
C506 C518 1.349 . S
C507 C505 1.327 . S
C507 C523 1.429 . S
C507 H529 0.950 . S
C508 H504 0.949 . S
C508 C516 1.574 . S
C508 C524 1.368 . S
H509 C517 0.950 . S
H510 C515 0.950 . S
H511 C516 0.949 . S
H512 C518 0.950 . S
H513 C519 0.950 . S
H514 C520 0.949 . S
C515 H510 0.950 . S
C515 C517 1.327 . S
C515 C521 1.429 . S
C516 C508 1.574 . S
C516 H511 0.949 . S
C516 C522 1.368 . S
C517 C501 1.349 . S
C517 H509 0.950 . S
C517 C515 1.327 . S
C518 C506 1.349 . S
C518 H512 0.950 . S
C518 C519 1.327 . S
C519 H513 0.950 . S
C519 C518 1.327 . S
C519 C523 1.429 . S
C520 C503 1.574 . S
C520 H514 0.949 . S
C520 C524 1.368 . S
C521 C502 1.429 . S
C521 C515 1.429 . S
C521 C522 1.523 . S
C522 C503 1.368 . S
C522 C516 1.368 . S
C522 C521 1.523 . S
C523 C507 1.429 . S
C523 C519 1.429 . S
C523 C524 1.523 . S
C524 C508 1.368 . S
C524 C520 1.368 . S
C524 C523 1.523 . S
H525 C500 0.950 . S
H526 C502 0.950 . S
H527 C503 0.949 . S
H528 C505 0.950 . S
H529 C507 0.950 . S
C530 C531 1.349 . S
C530 C532 1.327 . S
C530 H555 0.950 . S
C531 C530 1.349 . S
C531 C547 1.349 . S
C532 C530 1.327 . S
C532 C551 1.429 . S
C532 H556 0.950 . S
C533 C550 1.574 . S
C533 C552 1.368 . S
C533 H557 0.949 . S
H534 C538 0.949 . S
C535 C536 1.349 . S
C535 C537 1.327 . S
C535 H558 0.950 . S
C536 C535 1.349 . S
C536 C548 1.349 . S
C537 C535 1.327 . S
C537 C553 1.429 . S
C537 H559 0.950 . S
C538 H534 0.949 . S
C538 C546 1.574 . S
C538 C554 1.368 . S
H539 C547 0.950 . S
H540 C545 0.950 . S
H541 C546 0.949 . S
H542 C548 0.950 . S
H543 C549 0.950 . S
H544 C550 0.949 . S
C545 H540 0.950 . S
C545 C547 1.327 . S
C545 C551 1.429 . S
C546 C538 1.574 . S
C546 H541 0.949 . S
C546 C552 1.368 . S
C547 C531 1.349 . S
C547 H539 0.950 . S
C547 C545 1.327 . S
C548 C536 1.349 . S
C548 H542 0.950 . S
C548 C549 1.327 . S
C549 H543 0.950 . S
C549 C548 1.327 . S
C549 C553 1.429 . S
C550 C533 1.574 . S
C550 H544 0.949 . S
C550 C554 1.368 . S
C551 C532 1.429 . S
C551 C545 1.429 . S
C551 C552 1.523 . S
C552 C533 1.368 . S
C552 C546 1.368 . S
C552 C551 1.523 . S
C553 C537 1.429 . S
C553 C549 1.429 . S
C553 C554 1.523 . S
C554 C538 1.368 . S
C554 C550 1.368 . S
C554 C553 1.523 . S
H555 C530 0.950 . S
H556 C532 0.950 . S
H557 C533 0.949 . S
H558 C535 0.950 . S
H559 C537 0.950 . S
C560 C561 1.349 . S
C560 C562 1.327 . S
C560 H585 0.950 . S
C561 C560 1.349 . S
C561 C577 1.349 . S
C562 C560 1.327 . S
C562 C581 1.429 . S
C562 H586 0.950 . S
C563 C580 1.574 . S
C563 C582 1.368 . S
C563 H587 0.949 . S
H564 C568 0.949 . S
C565 C566 1.349 . S
C565 C567 1.327 . S
C565 H588 0.950 . S
C566 C565 1.349 . S
C566 C578 1.349 . S
C567 C565 1.327 . S
C567 C583 1.429 . S
C567 H589 0.950 . S
C568 H564 0.949 . S
C568 C576 1.574 . S
C568 C584 1.368 . S
H569 C577 0.950 . S
H570 C575 0.950 . S
H571 C576 0.949 . S
H572 C578 0.950 . S
H573 C579 0.950 . S
H574 C580 0.949 . S
C575 H570 0.950 . S
C575 C577 1.327 . S
C575 C581 1.429 . S
C576 C568 1.574 . S
C576 H571 0.949 . S
C576 C582 1.368 . S
C577 C561 1.349 . S
C577 H569 0.950 . S
C577 C575 1.327 . S
C578 C566 1.349 . S
C578 H572 0.950 . S
C578 C579 1.327 . S
C579 H573 0.950 . S
C579 C578 1.327 . S
C579 C583 1.429 . S
C580 C563 1.574 . S
C580 H574 0.949 . S
C580 C584 1.368 . S
C581 C562 1.429 . S
C581 C575 1.429 . S
C581 C582 1.523 . S
C582 C563 1.368 . S
C582 C576 1.368 . S
C582 C581 1.523 . S
C583 C567 1.429 . S
C583 C579 1.429 . S
C583 C584 1.523 . S
C584 C568 1.368 . S
C584 C580 1.368 . S
C584 C583 1.523 . S
H585 C560 0.950 . S
H586 C562 0.950 . S
H587 C563 0.949 . S
H588 C565 0.950 . S
H589 C567 0.950 . S
C590 C591 1.349 . S
C590 C592 1.327 . S
C590 H615 0.950 . S
C591 C590 1.349 . S
C591 C607 1.349 . S
C592 C590 1.327 . S
C592 C611 1.429 . S
C592 H616 0.950 . S
C593 C610 1.574 . S
C593 C612 1.368 . S
C593 H617 0.949 . S
H594 C598 0.949 . S
C595 C596 1.349 . S
C595 C597 1.327 . S
C595 H618 0.950 . S
C596 C595 1.349 . S
C596 C608 1.349 . S
C597 C595 1.327 . S
C597 C613 1.429 . S
C597 H619 0.950 . S
C598 H594 0.949 . S
C598 C606 1.574 . S
C598 C614 1.368 . S
H599 C607 0.950 . S
H600 C605 0.950 . S
H601 C606 0.949 . S
H602 C608 0.950 . S
H603 C609 0.950 . S
H604 C610 0.949 . S
C605 H600 0.950 . S
C605 C607 1.327 . S
C605 C611 1.429 . S
C606 C598 1.574 . S
C606 H601 0.949 . S
C606 C612 1.368 . S
C607 C591 1.349 . S
C607 H599 0.950 . S
C607 C605 1.327 . S
C608 C596 1.349 . S
C608 H602 0.950 . S
C608 C609 1.327 . S
C609 H603 0.950 . S
C609 C608 1.327 . S
C609 C613 1.429 . S
C610 C593 1.574 . S
C610 H604 0.949 . S
C610 C614 1.368 . S
C611 C592 1.429 . S
C611 C605 1.429 . S
C611 C612 1.523 . S
C612 C593 1.368 . S
C612 C606 1.368 . S
C612 C611 1.523 . S
C613 C597 1.429 . S
C613 C609 1.429 . S
C613 C614 1.523 . S
C614 C598 1.368 . S
C614 C610 1.368 . S
C614 C613 1.523 . S
H615 C590 0.950 . S
H616 C592 0.950 . S
H617 C593 0.949 . S
H618 C595 0.950 . S
H619 C597 0.950 . S
C620 C621 1.349 . S
C620 C622 1.327 . S
C620 H645 0.950 . S
C621 C620 1.349 . S
C621 C637 1.349 . S
C622 C620 1.327 . S
C622 C641 1.429 . S
C622 H646 0.950 . S
C623 C640 1.574 . S
C623 C642 1.368 . S
C623 H647 0.949 . S
H624 C628 0.949 . S
C625 C626 1.349 . S
C625 C627 1.327 . S
C625 H648 0.950 . S
C626 C625 1.349 . S
C626 C638 1.349 . S
C627 C625 1.327 . S
C627 C643 1.429 . S
C627 H649 0.950 . S
C628 H624 0.949 . S
C628 C636 1.574 . S
C628 C644 1.368 . S
H629 C637 0.950 . S
H630 C635 0.950 . S
H631 C636 0.949 . S
H632 C638 0.950 . S
H633 C639 0.950 . S
H634 C640 0.949 . S
C635 H630 0.950 . S
C635 C637 1.327 . S
C635 C641 1.429 . S
C636 C628 1.574 . S
C636 H631 0.949 . S
C636 C642 1.368 . S
C637 C621 1.349 . S
C637 H629 0.950 . S
C637 C635 1.327 . S
C638 C626 1.349 . S
C638 H632 0.950 . S
C638 C639 1.327 . S
C639 H633 0.950 . S
C639 C638 1.327 . S
C639 C643 1.429 . S
C640 C623 1.574 . S
C640 H634 0.949 . S
C640 C644 1.368 . S
C641 C622 1.429 . S
C641 C635 1.429 . S
C641 C642 1.523 . S
C642 C623 1.368 . S
C642 C636 1.368 . S
C642 C641 1.523 . S
C643 C627 1.429 . S
C643 C639 1.429 . S
C643 C644 1.523 . S
C644 C628 1.368 . S
C644 C640 1.368 . S
C644 C643 1.523 . S
H645 C620 0.950 . S
H646 C622 0.950 . S
H647 C623 0.949 . S
H648 C625 0.950 . S
H649 C627 0.950 . S
C650 C651 1.349 . S
C650 C652 1.327 . S
C650 H675 0.950 . S
C651 C650 1.349 . S
C651 C667 1.349 . S
C652 C650 1.327 . S
C652 C671 1.429 . S
C652 H676 0.950 . S
C653 C670 1.574 . S
C653 C672 1.368 . S
C653 H677 0.949 . S
H654 C658 0.949 . S
C655 C656 1.349 . S
C655 C657 1.327 . S
C655 H678 0.951 1_455 S
C656 C655 1.349 . S
C656 C668 1.349 . S
C657 C655 1.327 . S
C657 C673 1.429 . S
C657 H679 0.950 . S
C658 H654 0.949 . S
C658 C666 1.574 . S
C658 C674 1.368 . S
H659 C667 0.950 . S
H660 C665 0.950 . S
H661 C666 0.949 . S
H662 C668 0.950 . S
H663 C669 0.950 . S
H664 C670 0.949 . S
C665 H660 0.950 . S
C665 C667 1.327 . S
C665 C671 1.429 . S
C666 C658 1.574 . S
C666 H661 0.949 . S
C666 C672 1.368 . S
C667 C651 1.349 . S
C667 H659 0.950 . S
C667 C665 1.327 . S
C668 C656 1.349 . S
C668 H662 0.950 . S
C668 C669 1.327 . S
C669 H663 0.950 . S
C669 C668 1.327 . S
C669 C673 1.429 . S
C670 C653 1.574 . S
C670 H664 0.949 . S
C670 C674 1.368 . S
C671 C652 1.429 . S
C671 C665 1.429 . S
C671 C672 1.523 . S
C672 C653 1.368 . S
C672 C666 1.368 . S
C672 C671 1.523 . S
C673 C657 1.429 . S
C673 C669 1.429 . S
C673 C674 1.523 . S
C674 C658 1.368 . S
C674 C670 1.368 . S
C674 C673 1.523 . S
H675 C650 0.950 . S
H676 C652 0.950 . S
H677 C653 0.949 . S
H678 C655 0.951 1_655 S
H679 C657 0.950 . S
C680 C681 1.349 . S
C680 C682 1.327 . S
C680 H705 0.950 . S
C681 C680 1.349 . S
C681 C697 1.349 . S
C682 C680 1.327 . S
C682 C701 1.429 . S
C682 H706 0.950 . S
C683 C700 1.574 . S
C683 C702 1.368 . S
C683 H707 0.949 . S
H684 C688 0.949 . S
C685 C686 1.349 . S
C685 C687 1.327 . S
C685 H708 0.950 . S
C686 C685 1.349 . S
C686 C698 1.349 . S
C687 C685 1.327 . S
C687 C703 1.429 . S
C687 H709 0.950 . S
C688 H684 0.949 . S
C688 C696 1.574 . S
C688 C704 1.368 . S
H689 C697 0.950 . S
H690 C695 0.950 . S
H691 C696 0.949 . S
H692 C698 0.950 . S
H693 C699 0.950 . S
H694 C700 0.949 . S
C695 H690 0.950 . S
C695 C697 1.327 . S
C695 C701 1.429 . S
C696 C688 1.574 . S
C696 H691 0.949 . S
C696 C702 1.368 . S
C697 C681 1.349 . S
C697 H689 0.950 . S
C697 C695 1.327 . S
C698 C686 1.349 . S
C698 H692 0.950 . S
C698 C699 1.327 . S
C699 H693 0.950 . S
C699 C698 1.327 . S
C699 C703 1.429 . S
C700 C683 1.574 . S
C700 H694 0.949 . S
C700 C704 1.368 . S
C701 C682 1.429 . S
C701 C695 1.429 . S
C701 C702 1.523 . S
C702 C683 1.368 . S
C702 C696 1.368 . S
C702 C701 1.523 . S
C703 C687 1.429 . S
C703 C699 1.429 . S
C703 C704 1.523 . S
C704 C688 1.368 . S
C704 C700 1.368 . S
C704 C703 1.523 . S
H705 C680 0.950 . S
H706 C682 0.950 . S
H707 C683 0.949 . S
H708 C685 0.950 . S
H709 C687 0.950 . S
C710 C711 1.349 . S
C710 C712 1.327 . S
C710 H735 0.950 . S
C711 C710 1.349 . S
C711 C727 1.349 . S
C712 C710 1.327 . S
C712 C731 1.429 . S
C712 H736 0.950 . S
C713 C730 1.574 . S
C713 C732 1.368 . S
C713 H737 0.949 . S
H714 C718 0.949 . S
C715 C716 1.349 . S
C715 C717 1.327 . S
C715 H738 0.950 . S
C716 C715 1.349 . S
C716 C728 1.349 . S
C717 C715 1.327 . S
C717 C733 1.429 . S
C717 H739 0.950 . S
C718 H714 0.949 . S
C718 C726 1.574 . S
C718 C734 1.368 . S
H719 C727 0.950 . S
H720 C725 0.950 . S
H721 C726 0.949 . S
H722 C728 0.950 . S
H723 C729 0.950 . S
H724 C730 0.949 . S
C725 H720 0.950 . S
C725 C727 1.327 . S
C725 C731 1.429 . S
C726 C718 1.574 . S
C726 H721 0.949 . S
C726 C732 1.368 . S
C727 C711 1.349 . S
C727 H719 0.950 . S
C727 C725 1.327 . S
C728 C716 1.349 . S
C728 H722 0.950 . S
C728 C729 1.327 . S
C729 H723 0.950 . S
C729 C728 1.327 . S
C729 C733 1.429 . S
C730 C713 1.574 . S
C730 H724 0.949 . S
C730 C734 1.368 . S
C731 C712 1.429 . S
C731 C725 1.429 . S
C731 C732 1.523 . S
C732 C713 1.368 . S
C732 C726 1.368 . S
C732 C731 1.523 . S
C733 C717 1.429 . S
C733 C729 1.429 . S
C733 C734 1.523 . S
C734 C718 1.368 . S
C734 C730 1.368 . S
C734 C733 1.523 . S
H735 C710 0.950 . S
H736 C712 0.950 . S
H737 C713 0.949 . S
H738 C715 0.950 . S
H739 C717 0.950 . S
C740 C741 1.349 . S
C740 C742 1.327 . S
C740 H765 0.950 . S
C741 C740 1.349 . S
C741 C757 1.349 . S
C742 C740 1.327 . S
C742 C761 1.429 . S
C742 H766 0.950 . S
C743 C760 1.574 . S
C743 C762 1.368 . S
C743 H767 0.949 . S
H744 C748 0.949 . S
C745 C746 1.349 . S
C745 C747 1.327 . S
C745 H768 0.950 . S
C746 C745 1.349 . S
C746 C758 1.349 . S
C747 C745 1.327 . S
C747 C763 1.429 . S
C747 H769 0.950 . S
C748 H744 0.949 . S
C748 C756 1.574 . S
C748 C764 1.368 . S
H749 C757 0.950 . S
H750 C755 0.950 . S
H751 C756 0.949 . S
H752 C758 0.950 . S
H753 C759 0.950 . S
H754 C760 0.949 . S
C755 H750 0.950 . S
C755 C757 1.327 . S
C755 C761 1.429 . S
C756 C748 1.574 . S
C756 H751 0.949 . S
C756 C762 1.368 . S
C757 C741 1.349 . S
C757 H749 0.950 . S
C757 C755 1.327 . S
C758 C746 1.349 . S
C758 H752 0.950 . S
C758 C759 1.327 . S
C759 H753 0.950 . S
C759 C758 1.327 . S
C759 C763 1.429 . S
C760 C743 1.574 . S
C760 H754 0.949 . S
C760 C764 1.368 . S
C761 C742 1.429 . S
C761 C755 1.429 . S
C761 C762 1.523 . S
C762 C743 1.368 . S
C762 C756 1.368 . S
C762 C761 1.523 . S
C763 C747 1.429 . S
C763 C759 1.429 . S
C763 C764 1.523 . S
C764 C748 1.368 . S
C764 C760 1.368 . S
C764 C763 1.523 . S
H765 C740 0.950 . S
H766 C742 0.950 . S
H767 C743 0.949 . S
H768 C745 0.950 . S
H769 C747 0.950 . S
C770 C771 1.349 . S
C770 C772 1.327 . S
C770 H795 0.950 1_655 S
C771 C770 1.349 . S
C771 C787 1.349 . S
C772 C770 1.327 . S
C772 C791 1.429 . S
C772 H796 0.950 . S
C773 C790 1.574 . S
C773 C792 1.368 . S
C773 H797 0.949 . S
H774 C778 0.949 . S
C775 C776 1.349 . S
C775 C777 1.327 . S
C775 H798 0.950 . S
C776 C775 1.349 . S
C776 C788 1.349 . S
C777 C775 1.327 . S
C777 C793 1.429 . S
C777 H799 0.950 . S
C778 H774 0.949 . S
C778 C786 1.574 . S
C778 C794 1.368 . S
H779 C787 0.950 . S
H780 C785 0.950 . S
H781 C786 0.949 . S
H782 C788 0.950 . S
H783 C789 0.950 . S
H784 C790 0.949 . S
C785 H780 0.950 . S
C785 C787 1.327 . S
C785 C791 1.429 . S
C786 C778 1.574 . S
C786 H781 0.949 . S
C786 C792 1.368 . S
C787 C771 1.349 . S
C787 H779 0.950 . S
C787 C785 1.327 . S
C788 C776 1.349 . S
C788 H782 0.950 . S
C788 C789 1.327 . S
C789 H783 0.950 . S
C789 C788 1.327 . S
C789 C793 1.429 . S
C790 C773 1.574 . S
C790 H784 0.949 . S
C790 C794 1.368 . S
C791 C772 1.429 . S
C791 C785 1.429 . S
C791 C792 1.523 . S
C792 C773 1.368 . S
C792 C786 1.368 . S
C792 C791 1.523 . S
C793 C777 1.429 . S
C793 C789 1.429 . S
C793 C794 1.523 . S
C794 C778 1.368 . S
C794 C790 1.368 . S
C794 C793 1.523 . S
H795 C770 0.950 1_455 S
H796 C772 0.950 . S
H797 C773 0.949 . S
H798 C775 0.950 . S
H799 C777 0.950 . S
C800 C801 1.349 . S
C800 C802 1.327 . S
C800 H825 0.950 . S
C801 C800 1.349 . S
C801 C817 1.349 . S
C802 C800 1.327 . S
C802 C821 1.429 . S
C802 H826 0.950 . S
C803 C820 1.574 . S
C803 C822 1.368 . S
C803 H827 0.949 . S
H804 C808 0.949 . S
C805 C806 1.349 . S
C805 C807 1.327 . S
C805 H828 0.950 . S
C806 C805 1.349 . S
C806 C818 1.349 . S
C807 C805 1.327 . S
C807 C823 1.429 . S
C807 H829 0.950 . S
C808 H804 0.949 . S
C808 C816 1.574 . S
C808 C824 1.368 . S
H809 C817 0.950 . S
H810 C815 0.950 . S
H811 C816 0.949 . S
H812 C818 0.950 . S
H813 C819 0.950 . S
H814 C820 0.949 . S
C815 H810 0.950 . S
C815 C817 1.327 . S
C815 C821 1.429 . S
C816 C808 1.574 . S
C816 H811 0.949 . S
C816 C822 1.368 . S
C817 C801 1.349 . S
C817 H809 0.950 . S
C817 C815 1.327 . S
C818 C806 1.349 . S
C818 H812 0.950 . S
C818 C819 1.327 . S
C819 H813 0.950 . S
C819 C818 1.327 . S
C819 C823 1.429 . S
C820 C803 1.574 . S
C820 H814 0.949 . S
C820 C824 1.368 . S
C821 C802 1.429 . S
C821 C815 1.429 . S
C821 C822 1.523 . S
C822 C803 1.368 . S
C822 C816 1.368 . S
C822 C821 1.523 . S
C823 C807 1.429 . S
C823 C819 1.429 . S
C823 C824 1.523 . S
C824 C808 1.368 . S
C824 C820 1.368 . S
C824 C823 1.523 . S
H825 C800 0.950 . S
H826 C802 0.950 . S
H827 C803 0.949 . S
H828 C805 0.950 . S
H829 C807 0.950 . S
C830 C831 1.349 . S
C830 C832 1.327 . S
C830 H855 0.950 . S
C831 C830 1.349 . S
C831 C847 1.349 . S
C832 C830 1.327 . S
C832 C851 1.429 . S
C832 H856 0.950 . S
C833 C850 1.574 . S
C833 C852 1.368 . S
C833 H857 0.949 . S
H834 C838 0.949 . S
C835 C836 1.349 . S
C835 C837 1.327 . S
C835 H858 0.950 . S
C836 C835 1.349 . S
C836 C848 1.349 . S
C837 C835 1.327 . S
C837 C853 1.429 . S
C837 H859 0.950 . S
C838 H834 0.949 . S
C838 C846 1.574 . S
C838 C854 1.368 . S
H839 C847 0.950 . S
H840 C845 0.950 . S
H841 C846 0.949 . S
H842 C848 0.950 . S
H843 C849 0.950 . S
H844 C850 0.949 . S
C845 H840 0.950 . S
C845 C847 1.327 . S
C845 C851 1.429 . S
C846 C838 1.574 . S
C846 H841 0.949 . S
C846 C852 1.368 . S
C847 C831 1.349 . S
C847 H839 0.950 . S
C847 C845 1.327 . S
C848 C836 1.349 . S
C848 H842 0.950 . S
C848 C849 1.327 . S
C849 H843 0.950 . S
C849 C848 1.327 . S
C849 C853 1.429 . S
C850 C833 1.574 . S
C850 H844 0.949 . S
C850 C854 1.368 . S
C851 C832 1.429 . S
C851 C845 1.429 . S
C851 C852 1.523 . S
C852 C833 1.368 . S
C852 C846 1.368 . S
C852 C851 1.523 . S
C853 C837 1.429 . S
C853 C849 1.429 . S
C853 C854 1.523 . S
C854 C838 1.368 . S
C854 C850 1.368 . S
C854 C853 1.523 . S
H855 C830 0.950 . S
H856 C832 0.950 . S
H857 C833 0.949 . S
H858 C835 0.950 . S
H859 C837 0.950 . S
C860 C861 1.349 . S
C860 C862 1.327 . S
C860 H885 0.950 . S
C861 C860 1.349 . S
C861 C877 1.349 . S
C862 C860 1.327 . S
C862 C881 1.429 . S
C862 H886 0.950 . S
C863 C880 1.574 . S
C863 C882 1.368 . S
C863 H887 0.949 . S
H864 C868 0.949 . S
C865 C866 1.349 . S
C865 C867 1.327 . S
C865 H888 0.950 . S
C866 C865 1.349 . S
C866 C878 1.349 . S
C867 C865 1.327 . S
C867 C883 1.429 . S
C867 H889 0.950 . S
C868 H864 0.949 . S
C868 C876 1.574 . S
C868 C884 1.368 . S
H869 C877 0.950 . S
H870 C875 0.950 . S
H871 C876 0.949 . S
H872 C878 0.950 . S
H873 C879 0.950 . S
H874 C880 0.949 . S
C875 H870 0.950 . S
C875 C877 1.327 . S
C875 C881 1.429 . S
C876 C868 1.574 . S
C876 H871 0.949 . S
C876 C882 1.368 . S
C877 C861 1.349 . S
C877 H869 0.950 . S
C877 C875 1.327 . S
C878 C866 1.349 . S
C878 H872 0.950 . S
C878 C879 1.327 . S
C879 H873 0.950 . S
C879 C878 1.327 . S
C879 C883 1.429 . S
C880 C863 1.574 . S
C880 H874 0.949 . S
C880 C884 1.368 . S
C881 C862 1.429 . S
C881 C875 1.429 . S
C881 C882 1.523 . S
C882 C863 1.368 . S
C882 C876 1.368 . S
C882 C881 1.523 . S
C883 C867 1.429 . S
C883 C879 1.429 . S
C883 C884 1.523 . S
C884 C868 1.368 . S
C884 C880 1.368 . S
C884 C883 1.523 . S
H885 C860 0.950 . S
H886 C862 0.950 . S
H887 C863 0.949 . S
H888 C865 0.950 . S
H889 C867 0.950 . S
C890 C891 1.349 . S
C890 C892 1.327 . S
C890 H915 0.950 . S
C891 C890 1.349 . S
C891 C907 1.349 . S
C892 C890 1.327 . S
C892 C911 1.429 . S
C892 H916 0.950 . S
C893 C910 1.574 . S
C893 C912 1.368 . S
C893 H917 0.949 . S
H894 C898 0.949 . S
C895 C896 1.349 . S
C895 C897 1.327 . S
C895 H918 0.950 . S
C896 C895 1.349 . S
C896 C908 1.349 . S
C897 C895 1.327 . S
C897 C913 1.429 . S
C897 H919 0.950 . S
C898 H894 0.949 . S
C898 C906 1.574 . S
C898 C914 1.368 . S
H899 C907 0.950 . S
H900 C905 0.950 . S
H901 C906 0.949 . S
H902 C908 0.950 . S
H903 C909 0.950 . S
H904 C910 0.949 . S
C905 H900 0.950 . S
C905 C907 1.327 . S
C905 C911 1.429 . S
C906 C898 1.574 . S
C906 H901 0.949 . S
C906 C912 1.368 . S
C907 C891 1.349 . S
C907 H899 0.950 . S
C907 C905 1.327 . S
C908 C896 1.349 . S
C908 H902 0.950 . S
C908 C909 1.327 . S
C909 H903 0.950 . S
C909 C908 1.327 . S
C909 C913 1.429 . S
C910 C893 1.574 . S
C910 H904 0.949 . S
C910 C914 1.368 . S
C911 C892 1.429 . S
C911 C905 1.429 . S
C911 C912 1.523 . S
C912 C893 1.368 . S
C912 C906 1.368 . S
C912 C911 1.523 . S
C913 C897 1.429 . S
C913 C909 1.429 . S
C913 C914 1.523 . S
C914 C898 1.368 . S
C914 C910 1.368 . S
C914 C913 1.523 . S
H915 C890 0.950 . S
H916 C892 0.950 . S
H917 C893 0.949 . S
H918 C895 0.950 . S
H919 C897 0.950 . S
C920 C921 1.349 . S
C920 C922 1.327 . S
C920 H945 0.950 . S
C921 C920 1.349 . S
C921 C937 1.349 . S
C922 C920 1.327 . S
C922 C941 1.429 . S
C922 H946 0.950 . S
C923 C940 1.574 . S
C923 C942 1.368 . S
C923 H947 0.949 . S
H924 C928 0.949 . S
C925 C926 1.349 . S
C925 C927 1.327 . S
C925 H948 0.950 . S
C926 C925 1.349 . S
C926 C938 1.349 . S
C927 C925 1.327 . S
C927 C943 1.429 . S
C927 H949 0.950 . S
C928 H924 0.949 . S
C928 C936 1.574 . S
C928 C944 1.368 . S
H929 C937 0.950 . S
H930 C935 0.950 . S
H931 C936 0.949 . S
H932 C938 0.950 1_565 S
H933 C939 0.950 . S
H934 C940 0.949 . S
C935 H930 0.950 . S
C935 C937 1.327 . S
C935 C941 1.429 . S
C936 C928 1.574 . S
C936 H931 0.949 . S
C936 C942 1.368 . S
C937 C921 1.349 . S
C937 H929 0.950 . S
C937 C935 1.327 . S
C938 C926 1.349 . S
C938 H932 0.950 1_545 S
C938 C939 1.327 . S
C939 H933 0.950 . S
C939 C938 1.327 . S
C939 C943 1.429 . S
C940 C923 1.574 . S
C940 H934 0.949 . S
C940 C944 1.368 . S
C941 C922 1.429 . S
C941 C935 1.429 . S
C941 C942 1.523 . S
C942 C923 1.368 . S
C942 C936 1.368 . S
C942 C941 1.523 . S
C943 C927 1.429 . S
C943 C939 1.429 . S
C943 C944 1.523 . S
C944 C928 1.368 . S
C944 C940 1.368 . S
C944 C943 1.523 . S
H945 C920 0.950 . S
H946 C922 0.950 . S
H947 C923 0.949 . S
H948 C925 0.950 . S
H949 C927 0.950 . S
C950 C951 1.349 . S
C950 C952 1.327 . S
C950 H975 0.950 . S
C951 C950 1.349 . S
C951 C967 1.349 . S
C952 C950 1.327 . S
C952 C971 1.429 . S
C952 H976 0.950 . S
C953 C970 1.574 . S
C953 C972 1.368 . S
C953 H977 0.949 . S
H954 C958 0.949 . S
C955 C956 1.349 . S
C955 C957 1.327 . S
C955 H978 0.950 . S
C956 C955 1.349 . S
C956 C968 1.349 . S
C957 C955 1.327 . S
C957 C973 1.429 . S
C957 H979 0.950 . S
C958 H954 0.949 . S
C958 C966 1.574 . S
C958 C974 1.368 . S
H959 C967 0.950 . S
H960 C965 0.950 . S
H961 C966 0.949 . S
H962 C968 0.950 . S
H963 C969 0.950 . S
H964 C970 0.949 . S
C965 H960 0.950 . S
C965 C967 1.327 . S
C965 C971 1.429 . S
C966 C958 1.574 . S
C966 H961 0.949 . S
C966 C972 1.368 . S
C967 C951 1.349 . S
C967 H959 0.950 . S
C967 C965 1.327 . S
C968 C956 1.349 . S
C968 H962 0.950 . S
C968 C969 1.327 . S
C969 H963 0.950 . S
C969 C968 1.327 . S
C969 C973 1.429 . S
C970 C953 1.574 . S
C970 H964 0.949 . S
C970 C974 1.368 . S
C971 C952 1.429 . S
C971 C965 1.429 . S
C971 C972 1.523 . S
C972 C953 1.368 . S
C972 C966 1.368 . S
C972 C971 1.523 . S
C973 C957 1.429 . S
C973 C969 1.429 . S
C973 C974 1.523 . S
C974 C958 1.368 . S
C974 C970 1.368 . S
C974 C973 1.523 . S
H975 C950 0.950 . S
H976 C952 0.950 . S
H977 C953 0.949 . S
H978 C955 0.950 . S
H979 C957 0.950 . S
C980 C981 1.349 . S
C980 C982 1.327 . S
C980 H1005 0.950 . S
C981 C980 1.349 . S
C981 C997 1.349 . S
C982 C980 1.327 . S
C982 C1001 1.429 . S
C982 H1006 0.950 . S
C983 C1000 1.574 . S
C983 C1002 1.368 . S
C983 H1007 0.949 . S
H984 C988 0.949 . S
C985 C986 1.349 . S
C985 C987 1.327 . S
C985 H1008 0.950 . S
C986 C985 1.349 . S
C986 C998 1.349 . S
C987 C985 1.327 . S
C987 C1003 1.429 . S
C987 H1009 0.950 . S
C988 H984 0.949 . S
C988 C996 1.574 . S
C988 C1004 1.368 . S
H989 C997 0.950 . S
H990 C995 0.950 . S
H991 C996 0.949 . S
H992 C998 0.950 . S
H993 C999 0.950 . S
H994 C1000 0.949 . S
C995 H990 0.950 . S
C995 C997 1.327 . S
C995 C1001 1.429 . S
C996 C988 1.574 . S
C996 H991 0.949 . S
C996 C1002 1.368 . S
C997 C981 1.349 . S
C997 H989 0.950 . S
C997 C995 1.327 . S
C998 C986 1.349 . S
C998 H992 0.950 . S
C998 C999 1.327 . S
C999 H993 0.950 . S
C999 C998 1.327 . S
C999 C1003 1.429 . S
C1000 C983 1.574 . S
C1000 H994 0.949 . S
C1000 C1004 1.368 . S
C1001 C982 1.429 . S
C1001 C995 1.429 . S
C1001 C1002 1.523 . S
C1002 C983 1.368 . S
C1002 C996 1.368 . S
C1002 C1001 1.523 . S
C1003 C987 1.429 . S
C1003 C999 1.429 . S
C1003 C1004 1.523 . S
C1004 C988 1.368 . S
C1004 C1000 1.368 . S
C1004 C1003 1.523 . S
H1005 C980 0.950 . S
H1006 C982 0.950 . S
H1007 C983 0.949 . S
H1008 C985 0.950 . S
H1009 C987 0.950 . S
C1010 C1011 1.349 . S
C1010 C1012 1.327 . S
C1010 H1035 0.950 . S
C1011 C1010 1.349 . S
C1011 C1027 1.349 . S
C1012 C1010 1.327 . S
C1012 C1031 1.429 . S
C1012 H1036 0.950 . S
C1013 C1030 1.574 . S
C1013 C1032 1.368 . S
C1013 H1037 0.949 . S
H1014 C1018 0.949 . S
C1015 C1016 1.349 . S
C1015 C1017 1.327 . S
C1015 H1038 0.950 . S
C1016 C1015 1.349 . S
C1016 C1028 1.349 . S
C1017 C1015 1.327 . S
C1017 C1033 1.429 . S
C1017 H1039 0.950 . S
C1018 H1014 0.949 . S
C1018 C1026 1.574 . S
C1018 C1034 1.368 . S
H1019 C1027 0.950 . S
H1020 C1025 0.950 . S
H1021 C1026 0.949 . S
H1022 C1028 0.950 . S
H1023 C1029 0.950 . S
H1024 C1030 0.949 . S
C1025 H1020 0.950 . S
C1025 C1027 1.327 . S
C1025 C1031 1.429 . S
C1026 C1018 1.574 . S
C1026 H1021 0.949 . S
C1026 C1032 1.368 . S
C1027 C1011 1.349 . S
C1027 H1019 0.950 . S
C1027 C1025 1.327 . S
C1028 C1016 1.349 . S
C1028 H1022 0.950 . S
C1028 C1029 1.327 . S
C1029 H1023 0.950 . S
C1029 C1028 1.327 . S
C1029 C1033 1.429 . S
C1030 C1013 1.574 . S
C1030 H1024 0.949 . S
C1030 C1034 1.368 . S
C1031 C1012 1.429 . S
C1031 C1025 1.429 . S
C1031 C1032 1.523 . S
C1032 C1013 1.368 . S
C1032 C1026 1.368 . S
C1032 C1031 1.523 . S
C1033 C1017 1.429 . S
C1033 C1029 1.429 . S
C1033 C1034 1.523 . S
C1034 C1018 1.368 . S
C1034 C1030 1.368 . S
C1034 C1033 1.523 . S
H1035 C1010 0.950 . S
H1036 C1012 0.950 . S
H1037 C1013 0.949 . S
H1038 C1015 0.950 . S
H1039 C1017 0.950 . S
C1040 C1041 1.349 . S
C1040 C1042 1.327 . S
C1040 H1065 0.950 . S
C1041 C1040 1.349 . S
C1041 C1057 1.349 . S
C1042 C1040 1.327 . S
C1042 C1061 1.429 . S
C1042 H1066 0.950 . S
C1043 C1060 1.574 . S
C1043 C1062 1.368 . S
C1043 H1067 0.949 . S
H1044 C1048 0.949 . S
C1045 C1046 1.349 . S
C1045 C1047 1.327 . S
C1045 H1068 0.950 . S
C1046 C1045 1.349 . S
C1046 C1058 1.349 . S
C1047 C1045 1.327 . S
C1047 C1063 1.429 . S
C1047 H1069 0.950 . S
C1048 H1044 0.949 . S
C1048 C1056 1.574 . S
C1048 C1064 1.368 . S
H1049 C1057 0.950 . S
H1050 C1055 0.950 . S
H1051 C1056 0.949 . S
H1052 C1058 0.950 . S
H1053 C1059 0.950 . S
H1054 C1060 0.949 . S
C1055 H1050 0.950 . S
C1055 C1057 1.327 . S
C1055 C1061 1.429 . S
C1056 C1048 1.574 . S
C1056 H1051 0.949 . S
C1056 C1062 1.368 . S
C1057 C1041 1.349 . S
C1057 H1049 0.950 . S
C1057 C1055 1.327 . S
C1058 C1046 1.349 . S
C1058 H1052 0.950 . S
C1058 C1059 1.327 . S
C1059 H1053 0.950 . S
C1059 C1058 1.327 . S
C1059 C1063 1.429 . S
C1060 C1043 1.574 . S
C1060 H1054 0.949 . S
C1060 C1064 1.368 . S
C1061 C1042 1.429 . S
C1061 C1055 1.429 . S
C1061 C1062 1.523 . S
C1062 C1043 1.368 . S
C1062 C1056 1.368 . S
C1062 C1061 1.523 . S
C1063 C1047 1.429 . S
C1063 C1059 1.429 . S
C1063 C1064 1.523 . S
C1064 C1048 1.368 . S
C1064 C1060 1.368 . S
C1064 C1063 1.523 . S
H1065 C1040 0.950 . S
H1066 C1042 0.950 . S
H1067 C1043 0.949 . S
H1068 C1045 0.950 . S
H1069 C1047 0.950 . S
C1070 C1071 1.349 . S
C1070 C1072 1.327 . S
C1070 H1095 0.950 . S
C1071 C1070 1.349 . S
C1071 C1087 1.349 . S
C1072 C1070 1.327 . S
C1072 C1091 1.429 . S
C1072 H1096 0.950 . S
C1073 C1090 1.574 . S
C1073 C1092 1.368 . S
C1073 H1097 0.949 . S
H1074 C1078 0.949 . S
C1075 C1076 1.349 . S
C1075 C1077 1.327 . S
C1075 H1098 0.950 . S
C1076 C1075 1.349 . S
C1076 C1088 1.349 . S
C1077 C1075 1.327 . S
C1077 C1093 1.429 . S
C1077 H1099 0.950 . S
C1078 H1074 0.949 . S
C1078 C1086 1.574 . S
C1078 C1094 1.368 . S
H1079 C1087 0.950 . S
H1080 C1085 0.950 . S
H1081 C1086 0.949 . S
H1082 C1088 0.950 . S
H1083 C1089 0.950 . S
H1084 C1090 0.949 . S
C1085 H1080 0.950 . S
C1085 C1087 1.327 . S
C1085 C1091 1.429 . S
C1086 C1078 1.574 . S
C1086 H1081 0.949 . S
C1086 C1092 1.368 . S
C1087 C1071 1.349 . S
C1087 H1079 0.950 . S
C1087 C1085 1.327 . S
C1088 C1076 1.349 . S
C1088 H1082 0.950 . S
C1088 C1089 1.327 . S
C1089 H1083 0.950 . S
C1089 C1088 1.327 . S
C1089 C1093 1.429 . S
C1090 C1073 1.574 . S
C1090 H1084 0.949 . S
C1090 C1094 1.368 . S
C1091 C1072 1.429 . S
C1091 C1085 1.429 . S
C1091 C1092 1.523 . S
C1092 C1073 1.368 . S
C1092 C1086 1.368 . S
C1092 C1091 1.523 . S
C1093 C1077 1.429 . S
C1093 C1089 1.429 . S
C1093 C1094 1.523 . S
C1094 C1078 1.368 . S
C1094 C1090 1.368 . S
C1094 C1093 1.523 . S
H1095 C1070 0.950 . S
H1096 C1072 0.950 . S
H1097 C1073 0.949 . S
H1098 C1075 0.950 . S
H1099 C1077 0.950 . S
C1100 C1101 1.349 . S
C1100 C1102 1.327 . S
C1100 H1125 0.950 . S
C1101 C1100 1.349 . S
C1101 C1117 1.349 . S
C1102 C1100 1.327 . S
C1102 C1121 1.429 . S
C1102 H1126 0.950 . S
C1103 C1120 1.574 . S
C1103 C1122 1.368 . S
C1103 H1127 0.949 . S
H1104 C1108 0.949 . S
C1105 C1106 1.349 . S
C1105 C1107 1.327 . S
C1105 H1128 0.950 . S
C1106 C1105 1.349 . S
C1106 C1118 1.349 . S
C1107 C1105 1.327 . S
C1107 C1123 1.429 . S
C1107 H1129 0.950 . S
C1108 H1104 0.949 . S
C1108 C1116 1.574 . S
C1108 C1124 1.368 . S
H1109 C1117 0.950 . S
H1110 C1115 0.950 . S
H1111 C1116 0.949 . S
H1112 C1118 0.950 . S
H1113 C1119 0.950 . S
H1114 C1120 0.949 . S
C1115 H1110 0.950 . S
C1115 C1117 1.327 . S
C1115 C1121 1.429 . S
C1116 C1108 1.574 . S
C1116 H1111 0.949 . S
C1116 C1122 1.368 . S
C1117 C1101 1.349 . S
C1117 H1109 0.950 . S
C1117 C1115 1.327 . S
C1118 C1106 1.349 . S
C1118 H1112 0.950 . S
C1118 C1119 1.327 . S
C1119 H1113 0.950 . S
C1119 C1118 1.327 . S
C1119 C1123 1.429 . S
C1120 C1103 1.574 . S
C1120 H1114 0.949 . S
C1120 C1124 1.368 . S
C1121 C1102 1.429 . S
C1121 C1115 1.429 . S
C1121 C1122 1.523 . S
C1122 C1103 1.368 . S
C1122 C1116 1.368 . S
C1122 C1121 1.523 . S
C1123 C1107 1.429 . S
C1123 C1119 1.429 . S
C1123 C1124 1.523 . S
C1124 C1108 1.368 . S
C1124 C1120 1.368 . S
C1124 C1123 1.523 . S
H1125 C1100 0.950 . S
H1126 C1102 0.950 . S
H1127 C1103 0.949 . S
H1128 C1105 0.950 . S
H1129 C1107 0.950 . S
C1130 C1131 1.349 . S
C1130 C1132 1.327 . S
C1130 H1155 0.950 . S
C1131 C1130 1.349 . S
C1131 C1147 1.349 . S
C1132 C1130 1.327 . S
C1132 C1151 1.429 . S
C1132 H1156 0.950 . S
C1133 C1150 1.574 . S
C1133 C1152 1.368 . S
C1133 H1157 0.949 . S
H1134 C1138 0.949 . S
C1135 C1136 1.349 . S
C1135 C1137 1.327 . S
C1135 H1158 0.950 . S
C1136 C1135 1.349 . S
C1136 C1148 1.349 . S
C1137 C1135 1.327 . S
C1137 C1153 1.429 . S
C1137 H1159 0.950 . S
C1138 H1134 0.949 . S
C1138 C1146 1.574 . S
C1138 C1154 1.368 . S
H1139 C1147 0.950 . S
H1140 C1145 0.950 . S
H1141 C1146 0.949 . S
H1142 C1148 0.950 . S
H1143 C1149 0.950 . S
H1144 C1150 0.949 . S
C1145 H1140 0.950 . S
C1145 C1147 1.327 . S
C1145 C1151 1.429 . S
C1146 C1138 1.574 . S
C1146 H1141 0.949 . S
C1146 C1152 1.368 . S
C1147 C1131 1.349 . S
C1147 H1139 0.950 . S
C1147 C1145 1.327 . S
C1148 C1136 1.349 . S
C1148 H1142 0.950 . S
C1148 C1149 1.327 . S
C1149 H1143 0.950 . S
C1149 C1148 1.327 . S
C1149 C1153 1.429 . S
C1150 C1133 1.574 . S
C1150 H1144 0.949 . S
C1150 C1154 1.368 . S
C1151 C1132 1.429 . S
C1151 C1145 1.429 . S
C1151 C1152 1.523 . S
C1152 C1133 1.368 . S
C1152 C1146 1.368 . S
C1152 C1151 1.523 . S
C1153 C1137 1.429 . S
C1153 C1149 1.429 . S
C1153 C1154 1.523 . S
C1154 C1138 1.368 . S
C1154 C1150 1.368 . S
C1154 C1153 1.523 . S
H1155 C1130 0.950 . S
H1156 C1132 0.950 . S
H1157 C1133 0.949 . S
H1158 C1135 0.950 . S
H1159 C1137 0.950 . S
C1160 C1161 1.349 . S
C1160 C1162 1.327 . S
C1160 H1185 0.950 . S
C1161 C1160 1.349 . S
C1161 C1177 1.349 . S
C1162 C1160 1.327 . S
C1162 C1181 1.429 . S
C1162 H1186 0.950 . S
C1163 C1180 1.574 . S
C1163 C1182 1.368 . S
C1163 H1187 0.949 . S
H1164 C1168 0.949 . S
C1165 C1166 1.349 . S
C1165 C1167 1.327 . S
C1165 H1188 0.950 . S
C1166 C1165 1.349 . S
C1166 C1178 1.349 . S
C1167 C1165 1.327 . S
C1167 C1183 1.429 . S
C1167 H1189 0.950 . S
C1168 H1164 0.949 . S
C1168 C1176 1.574 . S
C1168 C1184 1.368 . S
H1169 C1177 0.950 . S
H1170 C1175 0.950 . S
H1171 C1176 0.949 . S
H1172 C1178 0.950 . S
H1173 C1179 0.950 . S
H1174 C1180 0.949 . S
C1175 H1170 0.950 . S
C1175 C1177 1.327 . S
C1175 C1181 1.429 . S
C1176 C1168 1.574 . S
C1176 H1171 0.949 . S
C1176 C1182 1.368 . S
C1177 C1161 1.349 . S
C1177 H1169 0.950 . S
C1177 C1175 1.327 . S
C1178 C1166 1.349 . S
C1178 H1172 0.950 . S
C1178 C1179 1.327 . S
C1179 H1173 0.950 . S
C1179 C1178 1.327 . S
C1179 C1183 1.429 . S
C1180 C1163 1.574 . S
C1180 H1174 0.949 . S
C1180 C1184 1.368 . S
C1181 C1162 1.429 . S
C1181 C1175 1.429 . S
C1181 C1182 1.523 . S
C1182 C1163 1.368 . S
C1182 C1176 1.368 . S
C1182 C1181 1.523 . S
C1183 C1167 1.429 . S
C1183 C1179 1.429 . S
C1183 C1184 1.523 . S
C1184 C1168 1.368 . S
C1184 C1180 1.368 . S
C1184 C1183 1.523 . S
H1185 C1160 0.950 . S
H1186 C1162 0.950 . S
H1187 C1163 0.949 . S
H1188 C1165 0.950 . S
H1189 C1167 0.950 . S
C1190 C1191 1.349 . S
C1190 C1192 1.327 . S
C1190 H1215 0.950 . S
C1191 C1190 1.349 . S
C1191 C1207 1.349 . S
C1192 C1190 1.327 . S
C1192 C1211 1.429 . S
C1192 H1216 0.950 . S
C1193 C1210 1.574 . S
C1193 C1212 1.368 . S
C1193 H1217 0.949 . S
H1194 C1198 0.949 . S
C1195 C1196 1.349 . S
C1195 C1197 1.327 . S
C1195 H1218 0.950 . S
C1196 C1195 1.349 . S
C1196 C1208 1.349 . S
C1197 C1195 1.327 . S
C1197 C1213 1.429 . S
C1197 H1219 0.950 . S
C1198 H1194 0.949 . S
C1198 C1206 1.574 . S
C1198 C1214 1.368 . S
H1199 C1207 0.950 . S
H1200 C1205 0.950 . S
H1201 C1206 0.949 . S
H1202 C1208 0.950 . S
H1203 C1209 0.950 . S
H1204 C1210 0.949 . S
C1205 H1200 0.950 . S
C1205 C1207 1.327 . S
C1205 C1211 1.429 . S
C1206 C1198 1.574 . S
C1206 H1201 0.949 . S
C1206 C1212 1.368 . S
C1207 C1191 1.349 . S
C1207 H1199 0.950 . S
C1207 C1205 1.327 . S
C1208 C1196 1.349 . S
C1208 H1202 0.950 . S
C1208 C1209 1.327 . S
C1209 H1203 0.950 . S
C1209 C1208 1.327 . S
C1209 C1213 1.429 . S
C1210 C1193 1.574 . S
C1210 H1204 0.949 . S
C1210 C1214 1.368 . S
C1211 C1192 1.429 . S
C1211 C1205 1.429 . S
C1211 C1212 1.523 . S
C1212 C1193 1.368 . S
C1212 C1206 1.368 . S
C1212 C1211 1.523 . S
C1213 C1197 1.429 . S
C1213 C1209 1.429 . S
C1213 C1214 1.523 . S
C1214 C1198 1.368 . S
C1214 C1210 1.368 . S
C1214 C1213 1.523 . S
H1215 C1190 0.950 . S
H1216 C1192 0.950 . S
H1217 C1193 0.949 . S
H1218 C1195 0.950 . S
H1219 C1197 0.950 . S
C1220 C1221 1.349 . S
C1220 C1222 1.327 . S
C1220 H1245 0.950 . S
C1221 C1220 1.349 . S
C1221 C1237 1.349 . S
C1222 C1220 1.327 . S
C1222 C1241 1.429 . S
C1222 H1246 0.950 . S
C1223 C1240 1.574 . S
C1223 C1242 1.368 . S
C1223 H1247 0.949 . S
H1224 C1228 0.949 . S
C1225 C1226 1.349 . S
C1225 C1227 1.327 . S
C1225 H1248 0.950 . S
C1226 C1225 1.349 . S
C1226 C1238 1.349 . S
C1227 C1225 1.327 . S
C1227 C1243 1.429 . S
C1227 H1249 0.950 . S
C1228 H1224 0.949 . S
C1228 C1236 1.574 . S
C1228 C1244 1.368 . S
H1229 C1237 0.950 . S
H1230 C1235 0.950 . S
H1231 C1236 0.949 . S
H1232 C1238 0.950 . S
H1233 C1239 0.950 . S
H1234 C1240 0.949 . S
C1235 H1230 0.950 . S
C1235 C1237 1.327 . S
C1235 C1241 1.429 . S
C1236 C1228 1.574 . S
C1236 H1231 0.949 . S
C1236 C1242 1.368 . S
C1237 C1221 1.349 . S
C1237 H1229 0.950 . S
C1237 C1235 1.327 . S
C1238 C1226 1.349 . S
C1238 H1232 0.950 . S
C1238 C1239 1.327 . S
C1239 H1233 0.950 . S
C1239 C1238 1.327 . S
C1239 C1243 1.429 . S
C1240 C1223 1.574 . S
C1240 H1234 0.949 . S
C1240 C1244 1.368 . S
C1241 C1222 1.429 . S
C1241 C1235 1.429 . S
C1241 C1242 1.523 . S
C1242 C1223 1.368 . S
C1242 C1236 1.368 . S
C1242 C1241 1.523 . S
C1243 C1227 1.429 . S
C1243 C1239 1.429 . S
C1243 C1244 1.523 . S
C1244 C1228 1.368 . S
C1244 C1240 1.368 . S
C1244 C1243 1.523 . S
H1245 C1220 0.950 . S
H1246 C1222 0.950 . S
H1247 C1223 0.949 . S
H1248 C1225 0.950 . S
H1249 C1227 0.950 . S
C1250 C1251 1.349 . S
C1250 C1252 1.327 . S
C1250 H1275 0.950 . S
C1251 C1250 1.349 . S
C1251 C1267 1.349 . S
C1252 C1250 1.327 . S
C1252 C1271 1.429 . S
C1252 H1276 0.950 . S
C1253 C1270 1.574 . S
C1253 C1272 1.368 . S
C1253 H1277 0.949 . S
H1254 C1258 0.949 . S
C1255 C1256 1.349 . S
C1255 C1257 1.327 . S
C1255 H1278 0.950 . S
C1256 C1255 1.349 . S
C1256 C1268 1.349 . S
C1257 C1255 1.327 . S
C1257 C1273 1.429 . S
C1257 H1279 0.950 . S
C1258 H1254 0.949 . S
C1258 C1266 1.574 . S
C1258 C1274 1.368 . S
H1259 C1267 0.950 . S
H1260 C1265 0.950 . S
H1261 C1266 0.949 . S
H1262 C1268 0.950 . S
H1263 C1269 0.950 . S
H1264 C1270 0.949 . S
C1265 H1260 0.950 . S
C1265 C1267 1.327 . S
C1265 C1271 1.429 . S
C1266 C1258 1.574 . S
C1266 H1261 0.949 . S
C1266 C1272 1.368 . S
C1267 C1251 1.349 . S
C1267 H1259 0.950 . S
C1267 C1265 1.327 . S
C1268 C1256 1.349 . S
C1268 H1262 0.950 . S
C1268 C1269 1.327 . S
C1269 H1263 0.950 . S
C1269 C1268 1.327 . S
C1269 C1273 1.429 . S
C1270 C1253 1.574 . S
C1270 H1264 0.949 . S
C1270 C1274 1.368 . S
C1271 C1252 1.429 . S
C1271 C1265 1.429 . S
C1271 C1272 1.523 . S
C1272 C1253 1.368 . S
C1272 C1266 1.368 . S
C1272 C1271 1.523 . S
C1273 C1257 1.429 . S
C1273 C1269 1.429 . S
C1273 C1274 1.523 . S
C1274 C1258 1.368 . S
C1274 C1270 1.368 . S
C1274 C1273 1.523 . S
H1275 C1250 0.950 . S
H1276 C1252 0.950 . S
H1277 C1253 0.949 . S
H1278 C1255 0.950 . S
H1279 C1257 0.950 . S
C1280 C1281 1.349 . S
C1280 C1282 1.327 . S
C1280 H1305 0.950 . S
C1281 C1280 1.349 . S
C1281 C1297 1.349 . S
C1282 C1280 1.327 . S
C1282 C1301 1.429 . S
C1282 H1306 0.950 . S
C1283 C1300 1.574 . S
C1283 C1302 1.368 . S
C1283 H1307 0.949 . S
H1284 C1288 0.949 . S
C1285 C1286 1.349 . S
C1285 C1287 1.327 . S
C1285 H1308 0.950 . S
C1286 C1285 1.349 . S
C1286 C1298 1.349 . S
C1287 C1285 1.327 . S
C1287 C1303 1.429 . S
C1287 H1309 0.950 . S
C1288 H1284 0.949 . S
C1288 C1296 1.574 . S
C1288 C1304 1.368 . S
H1289 C1297 0.950 . S
H1290 C1295 0.950 . S
H1291 C1296 0.949 . S
H1292 C1298 0.950 . S
H1293 C1299 0.950 . S
H1294 C1300 0.949 . S
C1295 H1290 0.950 . S
C1295 C1297 1.327 . S
C1295 C1301 1.429 . S
C1296 C1288 1.574 . S
C1296 H1291 0.949 . S
C1296 C1302 1.368 . S
C1297 C1281 1.349 . S
C1297 H1289 0.950 . S
C1297 C1295 1.327 . S
C1298 C1286 1.349 . S
C1298 H1292 0.950 . S
C1298 C1299 1.327 . S
C1299 H1293 0.950 . S
C1299 C1298 1.327 . S
C1299 C1303 1.429 . S
C1300 C1283 1.574 . S
C1300 H1294 0.949 . S
C1300 C1304 1.368 . S
C1301 C1282 1.429 . S
C1301 C1295 1.429 . S
C1301 C1302 1.523 . S
C1302 C1283 1.368 . S
C1302 C1296 1.368 . S
C1302 C1301 1.523 . S
C1303 C1287 1.429 . S
C1303 C1299 1.429 . S
C1303 C1304 1.523 . S
C1304 C1288 1.368 . S
C1304 C1300 1.368 . S
C1304 C1303 1.523 . S
H1305 C1280 0.950 . S
H1306 C1282 0.950 . S
H1307 C1283 0.949 . S
H1308 C1285 0.950 . S
H1309 C1287 0.950 . S
C1310 C1311 1.349 . S
C1310 C1312 1.327 . S
C1310 H1335 0.950 . S
C1311 C1310 1.349 . S
C1311 C1327 1.349 . S
C1312 C1310 1.327 . S
C1312 C1331 1.429 . S
C1312 H1336 0.950 . S
C1313 C1330 1.574 . S
C1313 C1332 1.368 . S
C1313 H1337 0.949 . S
H1314 C1318 0.949 . S
C1315 C1316 1.349 . S
C1315 C1317 1.327 . S
C1315 H1338 0.950 . S
C1316 C1315 1.349 . S
C1316 C1328 1.349 . S
C1317 C1315 1.327 . S
C1317 C1333 1.429 . S
C1317 H1339 0.950 . S
C1318 H1314 0.949 . S
C1318 C1326 1.574 . S
C1318 C1334 1.368 . S
H1319 C1327 0.950 . S
H1320 C1325 0.950 . S
H1321 C1326 0.949 . S
H1322 C1328 0.950 . S
H1323 C1329 0.950 . S
H1324 C1330 0.949 . S
C1325 H1320 0.950 . S
C1325 C1327 1.327 . S
C1325 C1331 1.429 . S
C1326 C1318 1.574 . S
C1326 H1321 0.949 . S
C1326 C1332 1.368 . S
C1327 C1311 1.349 . S
C1327 H1319 0.950 . S
C1327 C1325 1.327 . S
C1328 C1316 1.349 . S
C1328 H1322 0.950 . S
C1328 C1329 1.327 . S
C1329 H1323 0.950 . S
C1329 C1328 1.327 . S
C1329 C1333 1.429 . S
C1330 C1313 1.574 . S
C1330 H1324 0.949 . S
C1330 C1334 1.368 . S
C1331 C1312 1.429 . S
C1331 C1325 1.429 . S
C1331 C1332 1.523 . S
C1332 C1313 1.368 . S
C1332 C1326 1.368 . S
C1332 C1331 1.523 . S
C1333 C1317 1.429 . S
C1333 C1329 1.429 . S
C1333 C1334 1.523 . S
C1334 C1318 1.368 . S
C1334 C1330 1.368 . S
C1334 C1333 1.523 . S
H1335 C1310 0.950 . S
H1336 C1312 0.950 . S
H1337 C1313 0.949 . S
H1338 C1315 0.950 . S
H1339 C1317 0.950 . S
C1340 C1341 1.349 . S
C1340 C1342 1.327 . S
C1340 H1365 0.950 . S
C1341 C1340 1.349 . S
C1341 C1357 1.349 . S
C1342 C1340 1.327 . S
C1342 C1361 1.429 . S
C1342 H1366 0.950 . S
C1343 C1360 1.574 . S
C1343 C1362 1.368 . S
C1343 H1367 0.949 . S
H1344 C1348 0.949 . S
C1345 C1346 1.349 . S
C1345 C1347 1.327 . S
C1345 H1368 0.950 . S
C1346 C1345 1.349 . S
C1346 C1358 1.349 . S
C1347 C1345 1.327 . S
C1347 C1363 1.429 . S
C1347 H1369 0.950 . S
C1348 H1344 0.949 . S
C1348 C1356 1.574 . S
C1348 C1364 1.368 . S
H1349 C1357 0.950 . S
H1350 C1355 0.950 . S
H1351 C1356 0.949 . S
H1352 C1358 0.950 . S
H1353 C1359 0.950 . S
H1354 C1360 0.949 . S
C1355 H1350 0.950 . S
C1355 C1357 1.327 . S
C1355 C1361 1.429 . S
C1356 C1348 1.574 . S
C1356 H1351 0.949 . S
C1356 C1362 1.368 . S
C1357 C1341 1.349 . S
C1357 H1349 0.950 . S
C1357 C1355 1.327 . S
C1358 C1346 1.349 . S
C1358 H1352 0.950 . S
C1358 C1359 1.327 . S
C1359 H1353 0.950 . S
C1359 C1358 1.327 . S
C1359 C1363 1.429 . S
C1360 C1343 1.574 . S
C1360 H1354 0.949 . S
C1360 C1364 1.368 . S
C1361 C1342 1.429 . S
C1361 C1355 1.429 . S
C1361 C1362 1.523 . S
C1362 C1343 1.368 . S
C1362 C1356 1.368 . S
C1362 C1361 1.523 . S
C1363 C1347 1.429 . S
C1363 C1359 1.429 . S
C1363 C1364 1.523 . S
C1364 C1348 1.368 . S
C1364 C1360 1.368 . S
C1364 C1363 1.523 . S
H1365 C1340 0.950 . S
H1366 C1342 0.950 . S
H1367 C1343 0.949 . S
H1368 C1345 0.950 . S
H1369 C1347 0.950 . S
C1370 C1371 1.349 . S
C1370 C1372 1.327 . S
C1370 H1395 0.950 . S
C1371 C1370 1.349 . S
C1371 C1387 1.349 . S
C1372 C1370 1.327 . S
C1372 C1391 1.429 . S
C1372 H1396 0.950 . S
C1373 C1390 1.574 . S
C1373 C1392 1.368 . S
C1373 H1397 0.949 . S
H1374 C1378 0.949 . S
C1375 C1376 1.349 . S
C1375 C1377 1.327 . S
C1375 H1398 0.950 . S
C1376 C1375 1.349 . S
C1376 C1388 1.349 . S
C1377 C1375 1.327 . S
C1377 C1393 1.429 . S
C1377 H1399 0.950 . S
C1378 H1374 0.949 . S
C1378 C1386 1.574 . S
C1378 C1394 1.368 . S
H1379 C1387 0.950 . S
H1380 C1385 0.950 . S
H1381 C1386 0.949 . S
H1382 C1388 0.950 . S
H1383 C1389 0.950 . S
H1384 C1390 0.949 . S
C1385 H1380 0.950 . S
C1385 C1387 1.327 . S
C1385 C1391 1.429 . S
C1386 C1378 1.574 . S
C1386 H1381 0.949 . S
C1386 C1392 1.368 . S
C1387 C1371 1.349 . S
C1387 H1379 0.950 . S
C1387 C1385 1.327 . S
C1388 C1376 1.349 . S
C1388 H1382 0.950 . S
C1388 C1389 1.327 . S
C1389 H1383 0.950 . S
C1389 C1388 1.327 . S
C1389 C1393 1.429 . S
C1390 C1373 1.574 . S
C1390 H1384 0.949 . S
C1390 C1394 1.368 . S
C1391 C1372 1.429 . S
C1391 C1385 1.429 . S
C1391 C1392 1.523 . S
C1392 C1373 1.368 . S
C1392 C1386 1.368 . S
C1392 C1391 1.523 . S
C1393 C1377 1.429 . S
C1393 C1389 1.429 . S
C1393 C1394 1.523 . S
C1394 C1378 1.368 . S
C1394 C1390 1.368 . S
C1394 C1393 1.523 . S
H1395 C1370 0.950 . S
H1396 C1372 0.950 . S
H1397 C1373 0.949 . S
H1398 C1375 0.950 . S
H1399 C1377 0.950 . S
C1400 C1401 1.349 . S
C1400 C1402 1.327 . S
C1400 H1425 0.950 . S
C1401 C1400 1.349 . S
C1401 C1417 1.349 . S
C1402 C1400 1.327 . S
C1402 C1421 1.429 . S
C1402 H1426 0.950 . S
C1403 C1420 1.574 1_556 S
C1403 C1422 1.368 . S
C1403 H1427 0.949 . S
H1404 C1408 0.949 . S
C1405 C1406 1.349 . S
C1405 C1407 1.327 . S
C1405 H1428 0.950 . S
C1406 C1405 1.349 . S
C1406 C1418 1.349 . S
C1407 C1405 1.327 . S
C1407 C1423 1.429 . S
C1407 H1429 0.950 . S
C1408 H1404 0.949 . S
C1408 C1416 1.574 1_554 S
C1408 C1424 1.368 . S
H1409 C1417 0.950 . S
H1410 C1415 0.950 . S
H1411 C1416 0.949 . S
H1412 C1418 0.950 . S
H1413 C1419 0.950 . S
H1414 C1420 0.949 . S
C1415 H1410 0.950 . S
C1415 C1417 1.327 . S
C1415 C1421 1.429 . S
C1416 C1408 1.574 1_556 S
C1416 H1411 0.949 . S
C1416 C1422 1.368 . S
C1417 C1401 1.349 . S
C1417 H1409 0.950 . S
C1417 C1415 1.327 . S
C1418 C1406 1.349 . S
C1418 H1412 0.950 . S
C1418 C1419 1.327 . S
C1419 H1413 0.950 . S
C1419 C1418 1.327 . S
C1419 C1423 1.429 . S
C1420 C1403 1.574 1_554 S
C1420 H1414 0.949 . S
C1420 C1424 1.368 . S
C1421 C1402 1.429 . S
C1421 C1415 1.429 . S
C1421 C1422 1.523 . S
C1422 C1403 1.368 . S
C1422 C1416 1.368 . S
C1422 C1421 1.523 . S
C1423 C1407 1.429 . S
C1423 C1419 1.429 . S
C1423 C1424 1.523 . S
C1424 C1408 1.368 . S
C1424 C1420 1.368 . S
C1424 C1423 1.523 . S
H1425 C1400 0.950 . S
H1426 C1402 0.950 . S
H1427 C1403 0.949 . S
H1428 C1405 0.950 . S
H1429 C1407 0.950 . S
C1430 C1431 1.349 . S
C1430 C1432 1.327 . S
C1430 H1455 0.950 . S
C1431 C1430 1.349 . S
C1431 C1447 1.349 . S
C1432 C1430 1.327 . S
C1432 C1451 1.429 . S
C1432 H1456 0.950 . S
C1433 C1450 1.574 1_554 S
C1433 C1452 1.368 . S
C1433 H1457 0.949 . S
H1434 C1438 0.951 . S
C1435 C1436 1.349 . S
C1435 C1437 1.327 . S
C1435 H1458 0.950 . S
C1436 C1435 1.349 . S
C1436 C1448 1.349 . S
C1437 C1435 1.327 . S
C1437 C1453 1.429 . S
C1437 H1459 0.950 . S
C1438 H1434 0.951 . S
C1438 C1446 1.569 1_556 S
C1438 C1454 1.371 . S
H1439 C1447 0.950 . S
H1440 C1445 0.950 . S
H1441 C1446 0.949 . S
H1442 C1448 0.950 . S
H1443 C1449 0.950 . S
H1444 C1450 0.949 . S
C1445 H1440 0.950 . S
C1445 C1447 1.327 . S
C1445 C1451 1.429 . S
C1446 C1438 1.569 1_554 S
C1446 H1441 0.949 . S
C1446 C1452 1.368 . S
C1447 C1431 1.349 . S
C1447 H1439 0.950 . S
C1447 C1445 1.327 . S
C1448 C1436 1.349 . S
C1448 H1442 0.950 . S
C1448 C1449 1.327 . S
C1449 H1443 0.950 . S
C1449 C1448 1.327 . S
C1449 C1453 1.429 . S
C1450 C1433 1.574 1_556 S
C1450 H1444 0.949 . S
C1450 C1454 1.368 . S
C1451 C1432 1.429 . S
C1451 C1445 1.429 . S
C1451 C1452 1.523 . S
C1452 C1433 1.368 . S
C1452 C1446 1.368 . S
C1452 C1451 1.523 . S
C1453 C1437 1.429 . S
C1453 C1449 1.429 . S
C1453 C1454 1.523 . S
C1454 C1438 1.371 . S
C1454 C1450 1.368 . S
C1454 C1453 1.523 . S
H1455 C1430 0.950 . S
H1456 C1432 0.950 . S
H1457 C1433 0.949 . S
H1458 C1435 0.950 . S
H1459 C1437 0.950 . S
C1460 C1461 1.349 . S
C1460 C1462 1.327 . S
C1460 H1485 0.950 . S
C1461 C1460 1.349 . S
C1461 C1477 1.349 . S
C1462 C1460 1.327 . S
C1462 C1481 1.429 . S
C1462 H1486 0.950 . S
C1463 C1480 1.574 1_556 S
C1463 C1482 1.368 . S
C1463 H1487 0.949 . S
H1464 C1468 0.949 . S
C1465 C1466 1.349 . S
C1465 C1467 1.327 . S
C1465 H1488 0.950 . S
C1466 C1465 1.349 . S
C1466 C1478 1.349 . S
C1467 C1465 1.327 . S
C1467 C1483 1.429 . S
C1467 H1489 0.950 . S
C1468 H1464 0.949 . S
C1468 C1476 1.574 1_554 S
C1468 C1484 1.368 . S
H1469 C1477 0.950 . S
H1470 C1475 0.950 . S
H1471 C1476 0.949 . S
H1472 C1478 0.950 . S
H1473 C1479 0.950 . S
H1474 C1480 0.949 . S
C1475 H1470 0.950 . S
C1475 C1477 1.327 . S
C1475 C1481 1.429 . S
C1476 C1468 1.574 1_556 S
C1476 H1471 0.949 . S
C1476 C1482 1.368 . S
C1477 C1461 1.349 . S
C1477 H1469 0.950 . S
C1477 C1475 1.327 . S
C1478 C1466 1.349 . S
C1478 H1472 0.950 . S
C1478 C1479 1.327 . S
C1479 H1473 0.950 . S
C1479 C1478 1.327 . S
C1479 C1483 1.429 . S
C1480 C1463 1.574 1_554 S
C1480 H1474 0.949 . S
C1480 C1484 1.368 . S
C1481 C1462 1.429 . S
C1481 C1475 1.429 . S
C1481 C1482 1.523 . S
C1482 C1463 1.368 . S
C1482 C1476 1.368 . S
C1482 C1481 1.523 . S
C1483 C1467 1.429 . S
C1483 C1479 1.429 . S
C1483 C1484 1.523 . S
C1484 C1468 1.368 . S
C1484 C1480 1.368 . S
C1484 C1483 1.523 . S
H1485 C1460 0.950 . S
H1486 C1462 0.950 . S
H1487 C1463 0.949 . S
H1488 C1465 0.950 . S
H1489 C1467 0.950 . S
C1490 C1491 1.349 . S
C1490 C1492 1.327 . S
C1490 H1515 0.950 . S
C1491 C1490 1.349 . S
C1491 C1507 1.349 . S
C1492 C1490 1.327 . S
C1492 C1511 1.429 . S
C1492 H1516 0.950 . S
C1493 C1510 1.574 . S
C1493 C1512 1.368 . S
C1493 H1517 0.949 . S
H1494 C1498 0.949 . S
C1495 C1496 1.349 . S
C1495 C1497 1.327 . S
C1495 H1518 0.950 . S
C1496 C1495 1.349 . S
C1496 C1508 1.349 . S
C1497 C1495 1.327 . S
C1497 C1513 1.429 . S
C1497 H1519 0.950 . S
C1498 H1494 0.949 . S
C1498 C1506 1.584 . S
C1498 C1514 1.368 . S
H1499 C1507 0.950 . S
H1500 C1505 0.950 . S
H1501 C1506 0.952 . S
H1502 C1508 0.950 . S
H1503 C1509 0.950 . S
H1504 C1510 0.949 . S
C1505 H1500 0.950 . S
C1505 C1507 1.327 . S
C1505 C1511 1.429 . S
C1506 C1498 1.584 . S
C1506 H1501 0.952 . S
C1506 C1512 1.355 1_556 S
C1507 C1491 1.349 . S
C1507 H1499 0.950 . S
C1507 C1505 1.327 . S
C1508 C1496 1.349 . S
C1508 H1502 0.950 . S
C1508 C1509 1.327 . S
C1509 H1503 0.950 . S
C1509 C1508 1.327 . S
C1509 C1513 1.429 . S
C1510 C1493 1.574 . S
C1510 H1504 0.949 . S
C1510 C1514 1.368 1_554 S
C1511 C1492 1.429 . S
C1511 C1505 1.429 . S
C1511 C1512 1.523 . S
C1512 C1493 1.368 . S
C1512 C1506 1.355 1_554 S
C1512 C1511 1.523 . S
C1513 C1497 1.429 . S
C1513 C1509 1.429 . S
C1513 C1514 1.523 . S
C1514 C1498 1.368 . S
C1514 C1510 1.368 1_556 S
C1514 C1513 1.523 . S
H1515 C1490 0.950 . S
H1516 C1492 0.950 . S
H1517 C1493 0.949 . S
H1518 C1495 0.950 . S
H1519 C1497 0.950 . S
C1520 C1521 1.349 . S
C1520 C1522 1.327 . S
C1520 H1545 0.950 . S
C1521 C1520 1.349 . S
C1521 C1537 1.349 . S
C1522 C1520 1.327 . S
C1522 C1541 1.429 . S
C1522 H1546 0.950 . S
C1523 C1540 1.574 . S
C1523 C1542 1.368 . S
C1523 H1547 0.949 . S
H1524 C1528 0.949 . S
C1525 C1526 1.349 . S
C1525 C1527 1.327 . S
C1525 H1548 0.950 . S
C1526 C1525 1.349 . S
C1526 C1538 1.349 . S
C1527 C1525 1.327 . S
C1527 C1543 1.429 . S
C1527 H1549 0.950 . S
C1528 H1524 0.949 . S
C1528 C1536 1.574 . S
C1528 C1544 1.368 . S
H1529 C1537 0.950 . S
H1530 C1535 0.950 . S
H1531 C1536 0.949 . S
H1532 C1538 0.950 . S
H1533 C1539 0.950 . S
H1534 C1540 0.949 . S
C1535 H1530 0.950 . S
C1535 C1537 1.327 . S
C1535 C1541 1.429 . S
C1536 C1528 1.574 . S
C1536 H1531 0.949 . S
C1536 C1542 1.368 . S
C1537 C1521 1.349 . S
C1537 H1529 0.950 . S
C1537 C1535 1.327 . S
C1538 C1526 1.349 . S
C1538 H1532 0.950 . S
C1538 C1539 1.327 . S
C1539 H1533 0.950 . S
C1539 C1538 1.327 . S
C1539 C1543 1.429 . S
C1540 C1523 1.574 . S
C1540 H1534 0.949 . S
C1540 C1544 1.368 . S
C1541 C1522 1.429 . S
C1541 C1535 1.429 . S
C1541 C1542 1.523 . S
C1542 C1523 1.368 . S
C1542 C1536 1.368 . S
C1542 C1541 1.523 . S
C1543 C1527 1.429 . S
C1543 C1539 1.429 . S
C1543 C1544 1.523 . S
C1544 C1528 1.368 . S
C1544 C1540 1.368 . S
C1544 C1543 1.523 . S
H1545 C1520 0.950 . S
H1546 C1522 0.950 . S
H1547 C1523 0.949 . S
H1548 C1525 0.950 . S
H1549 C1527 0.950 . S
C1550 C1551 1.349 . S
C1550 C1552 1.327 . S
C1550 H1575 0.950 . S
C1551 C1550 1.349 . S
C1551 C1567 1.349 . S
C1552 C1550 1.327 . S
C1552 C1571 1.429 . S
C1552 H1576 0.950 . S
C1553 C1570 1.574 . S
C1553 C1572 1.368 . S
C1553 H1577 0.949 . S
H1554 C1558 0.949 . S
C1555 C1556 1.349 . S
C1555 C1557 1.327 . S
C1555 H1578 0.950 . S
C1556 C1555 1.349 . S
C1556 C1568 1.349 . S
C1557 C1555 1.327 . S
C1557 C1573 1.429 . S
C1557 H1579 0.950 . S
C1558 H1554 0.949 . S
C1558 C1566 1.574 . S
C1558 C1574 1.368 . S
H1559 C1567 0.950 . S
H1560 C1565 0.950 . S
H1561 C1566 0.949 . S
H1562 C1568 0.950 . S
H1563 C1569 0.950 . S
H1564 C1570 0.949 . S
C1565 H1560 0.950 . S
C1565 C1567 1.327 . S
C1565 C1571 1.429 . S
C1566 C1558 1.574 . S
C1566 H1561 0.949 . S
C1566 C1572 1.368 . S
C1567 C1551 1.349 . S
C1567 H1559 0.950 . S
C1567 C1565 1.327 . S
C1568 C1556 1.349 . S
C1568 H1562 0.950 . S
C1568 C1569 1.327 . S
C1569 H1563 0.950 . S
C1569 C1568 1.327 . S
C1569 C1573 1.429 . S
C1570 C1553 1.574 . S
C1570 H1564 0.949 . S
C1570 C1574 1.368 . S
C1571 C1552 1.429 . S
C1571 C1565 1.429 . S
C1571 C1572 1.523 . S
C1572 C1553 1.368 . S
C1572 C1566 1.368 . S
C1572 C1571 1.523 . S
C1573 C1557 1.429 . S
C1573 C1569 1.429 . S
C1573 C1574 1.523 . S
C1574 C1558 1.368 . S
C1574 C1570 1.368 . S
C1574 C1573 1.523 . S
H1575 C1550 0.950 . S
H1576 C1552 0.950 . S
H1577 C1553 0.949 . S
H1578 C1555 0.950 . S
H1579 C1557 0.950 . S
C1580 C1581 1.349 . S
C1580 C1582 1.327 . S
C1580 H1605 0.950 . S
C1581 C1580 1.349 . S
C1581 C1597 1.349 . S
C1582 C1580 1.327 . S
C1582 C1601 1.429 . S
C1582 H1606 0.950 . S
C1583 C1600 1.574 . S
C1583 C1602 1.368 . S
C1583 H1607 0.949 . S
H1584 C1588 0.949 . S
C1585 C1586 1.349 . S
C1585 C1587 1.327 . S
C1585 H1608 0.950 . S
C1586 C1585 1.349 . S
C1586 C1598 1.349 . S
C1587 C1585 1.327 . S
C1587 C1603 1.429 . S
C1587 H1609 0.950 . S
C1588 H1584 0.949 . S
C1588 C1596 1.574 . S
C1588 C1604 1.368 . S
H1589 C1597 0.950 . S
H1590 C1595 0.950 . S
H1591 C1596 0.949 . S
H1592 C1598 0.950 . S
H1593 C1599 0.950 . S
H1594 C1600 0.949 . S
C1595 H1590 0.950 . S
C1595 C1597 1.327 . S
C1595 C1601 1.429 . S
C1596 C1588 1.574 . S
C1596 H1591 0.949 . S
C1596 C1602 1.368 . S
C1597 C1581 1.349 . S
C1597 H1589 0.950 . S
C1597 C1595 1.327 . S
C1598 C1586 1.349 . S
C1598 H1592 0.950 . S
C1598 C1599 1.327 . S
C1599 H1593 0.950 . S
C1599 C1598 1.327 . S
C1599 C1603 1.429 . S
C1600 C1583 1.574 . S
C1600 H1594 0.949 . S
C1600 C1604 1.368 . S
C1601 C1582 1.429 . S
C1601 C1595 1.429 . S
C1601 C1602 1.523 . S
C1602 C1583 1.368 . S
C1602 C1596 1.368 . S
C1602 C1601 1.523 . S
C1603 C1587 1.429 . S
C1603 C1599 1.429 . S
C1603 C1604 1.523 . S
C1604 C1588 1.368 . S
C1604 C1600 1.368 . S
C1604 C1603 1.523 . S
H1605 C1580 0.950 . S
H1606 C1582 0.950 . S
H1607 C1583 0.949 . S
H1608 C1585 0.950 . S
H1609 C1587 0.950 . S
C1610 C1611 1.349 . S
C1610 C1612 1.327 . S
C1610 H1635 0.950 . S
C1611 C1610 1.349 . S
C1611 C1627 1.349 . S
C1612 C1610 1.327 . S
C1612 C1631 1.429 . S
C1612 H1636 0.950 . S
C1613 C1630 1.574 . S
C1613 C1632 1.368 . S
C1613 H1637 0.949 . S
H1614 C1618 0.949 . S
C1615 C1616 1.349 . S
C1615 C1617 1.327 . S
C1615 H1638 0.950 . S
C1616 C1615 1.349 . S
C1616 C1628 1.349 . S
C1617 C1615 1.327 . S
C1617 C1633 1.429 . S
C1617 H1639 0.950 . S
C1618 H1614 0.949 . S
C1618 C1626 1.574 . S
C1618 C1634 1.368 . S
H1619 C1627 0.950 . S
H1620 C1625 0.950 . S
H1621 C1626 0.949 . S
H1622 C1628 0.950 . S
H1623 C1629 0.950 . S
H1624 C1630 0.949 . S
C1625 H1620 0.950 . S
C1625 C1627 1.327 . S
C1625 C1631 1.429 . S
C1626 C1618 1.574 . S
C1626 H1621 0.949 . S
C1626 C1632 1.368 . S
C1627 C1611 1.349 . S
C1627 H1619 0.950 . S
C1627 C1625 1.327 . S
C1628 C1616 1.349 . S
C1628 H1622 0.950 . S
C1628 C1629 1.327 . S
C1629 H1623 0.950 . S
C1629 C1628 1.327 . S
C1629 C1633 1.429 . S
C1630 C1613 1.574 . S
C1630 H1624 0.949 . S
C1630 C1634 1.368 . S
C1631 C1612 1.429 . S
C1631 C1625 1.429 . S
C1631 C1632 1.523 . S
C1632 C1613 1.368 . S
C1632 C1626 1.368 . S
C1632 C1631 1.523 . S
C1633 C1617 1.429 . S
C1633 C1629 1.429 . S
C1633 C1634 1.523 . S
C1634 C1618 1.368 . S
C1634 C1630 1.368 . S
C1634 C1633 1.523 . S
H1635 C1610 0.950 . S
H1636 C1612 0.950 . S
H1637 C1613 0.949 . S
H1638 C1615 0.950 . S
H1639 C1617 0.950 . S
C1640 C1641 1.349 . S
C1640 C1642 1.327 . S
C1640 H1665 0.950 . S
C1641 C1640 1.349 . S
C1641 C1657 1.349 . S
C1642 C1640 1.327 . S
C1642 C1661 1.429 . S
C1642 H1666 0.950 . S
C1643 C1660 1.574 . S
C1643 C1662 1.368 . S
C1643 H1667 0.949 . S
H1644 C1648 0.949 . S
C1645 C1646 1.349 . S
C1645 C1647 1.327 . S
C1645 H1668 0.950 . S
C1646 C1645 1.349 . S
C1646 C1658 1.349 . S
C1647 C1645 1.327 . S
C1647 C1663 1.429 . S
C1647 H1669 0.950 . S
C1648 H1644 0.949 . S
C1648 C1656 1.574 1_554 S
C1648 C1664 1.368 . S
H1649 C1657 0.950 . S
H1650 C1655 0.950 . S
H1651 C1656 0.949 . S
H1652 C1658 0.950 . S
H1653 C1659 0.950 . S
H1654 C1660 0.949 . S
C1655 H1650 0.950 . S
C1655 C1657 1.327 . S
C1655 C1661 1.429 . S
C1656 C1648 1.574 1_556 S
C1656 H1651 0.949 . S
C1656 C1662 1.368 . S
C1657 C1641 1.349 . S
C1657 H1649 0.950 . S
C1657 C1655 1.327 . S
C1658 C1646 1.349 . S
C1658 H1652 0.950 . S
C1658 C1659 1.327 . S
C1659 H1653 0.950 . S
C1659 C1658 1.327 . S
C1659 C1663 1.429 . S
C1660 C1643 1.574 . S
C1660 H1654 0.949 . S
C1660 C1664 1.368 1_556 S
C1661 C1642 1.429 . S
C1661 C1655 1.429 . S
C1661 C1662 1.523 . S
C1662 C1643 1.368 . S
C1662 C1656 1.368 . S
C1662 C1661 1.523 . S
C1663 C1647 1.429 . S
C1663 C1659 1.429 . S
C1663 C1664 1.523 . S
C1664 C1648 1.368 . S
C1664 C1660 1.368 1_554 S
C1664 C1663 1.523 . S
H1665 C1640 0.950 . S
H1666 C1642 0.950 . S
H1667 C1643 0.949 . S
H1668 C1645 0.950 . S
H1669 C1647 0.950 . S
C1670 C1671 1.349 . S
C1670 C1672 1.327 . S
C1670 H1695 0.950 . S
C1671 C1670 1.349 . S
C1671 C1687 1.349 . S
C1672 C1670 1.327 . S
C1672 C1691 1.429 . S
C1672 H1696 0.950 . S
C1673 C1690 1.574 . S
C1673 C1692 1.368 1_554 S
C1673 H1697 0.949 . S
H1674 C1678 0.949 . S
C1675 C1676 1.349 . S
C1675 C1677 1.327 . S
C1675 H1698 0.950 . S
C1676 C1675 1.349 . S
C1676 C1688 1.349 . S
C1677 C1675 1.327 . S
C1677 C1693 1.429 . S
C1677 H1699 0.950 . S
C1678 H1674 0.949 . S
C1678 C1686 1.574 . S
C1678 C1694 1.368 1_556 S
H1679 C1687 0.950 . S
H1680 C1685 0.950 . S
H1681 C1686 0.949 . S
H1682 C1688 0.950 . S
H1683 C1689 0.950 . S
H1684 C1690 0.949 . S
C1685 H1680 0.950 . S
C1685 C1687 1.327 . S
C1685 C1691 1.429 . S
C1686 C1678 1.574 . S
C1686 H1681 0.949 . S
C1686 C1692 1.368 . S
C1687 C1671 1.349 . S
C1687 H1679 0.950 . S
C1687 C1685 1.327 . S
C1688 C1676 1.349 . S
C1688 H1682 0.950 . S
C1688 C1689 1.327 . S
C1689 H1683 0.950 . S
C1689 C1688 1.327 . S
C1689 C1693 1.429 . S
C1690 C1673 1.574 . S
C1690 H1684 0.949 . S
C1690 C1694 1.368 . S
C1691 C1672 1.429 . S
C1691 C1685 1.429 . S
C1691 C1692 1.523 . S
C1692 C1673 1.368 1_556 S
C1692 C1686 1.368 . S
C1692 C1691 1.523 . S
C1693 C1677 1.429 . S
C1693 C1689 1.429 . S
C1693 C1694 1.523 . S
C1694 C1678 1.368 1_554 S
C1694 C1690 1.368 . S
C1694 C1693 1.523 . S
H1695 C1670 0.950 . S
H1696 C1672 0.950 . S
H1697 C1673 0.949 . S
H1698 C1675 0.950 . S
H1699 C1677 0.950 . S
C1700 C1701 1.349 . S
C1700 C1702 1.327 . S
C1700 H1725 0.950 . S
C1701 C1700 1.349 . S
C1701 C1717 1.349 . S
C1702 C1700 1.327 . S
C1702 C1721 1.429 . S
C1702 H1726 0.950 . S
C1703 C1720 1.574 1_554 S
C1703 C1722 1.368 . S
C1703 H1727 0.949 . S
H1704 C1708 0.949 . S
C1705 C1706 1.349 . S
C1705 C1707 1.327 . S
C1705 H1728 0.950 . S
C1706 C1705 1.349 . S
C1706 C1718 1.349 . S
C1707 C1705 1.327 . S
C1707 C1723 1.429 . S
C1707 H1729 0.950 . S
C1708 H1704 0.949 . S
C1708 C1716 1.574 . S
C1708 C1724 1.368 . S
H1709 C1717 0.950 . S
H1710 C1715 0.950 . S
H1711 C1716 0.949 . S
H1712 C1718 0.950 . S
H1713 C1719 0.950 . S
H1714 C1720 0.949 . S
C1715 H1710 0.950 . S
C1715 C1717 1.327 . S
C1715 C1721 1.429 . S
C1716 C1708 1.574 . S
C1716 H1711 0.949 . S
C1716 C1722 1.368 1_556 S
C1717 C1701 1.349 . S
C1717 H1709 0.950 . S
C1717 C1715 1.327 . S
C1718 C1706 1.349 . S
C1718 H1712 0.950 . S
C1718 C1719 1.327 . S
C1719 H1713 0.950 . S
C1719 C1718 1.327 . S
C1719 C1723 1.429 . S
C1720 C1703 1.574 1_556 S
C1720 H1714 0.949 . S
C1720 C1724 1.368 . S
C1721 C1702 1.429 . S
C1721 C1715 1.429 . S
C1721 C1722 1.523 . S
C1722 C1703 1.368 . S
C1722 C1716 1.368 1_554 S
C1722 C1721 1.523 . S
C1723 C1707 1.429 . S
C1723 C1719 1.429 . S
C1723 C1724 1.523 . S
C1724 C1708 1.368 . S
C1724 C1720 1.368 . S
C1724 C1723 1.523 . S
H1725 C1700 0.950 . S
H1726 C1702 0.950 . S
H1727 C1703 0.949 . S
H1728 C1705 0.950 . S
H1729 C1707 0.950 . S
C1730 C1731 1.349 . S
C1730 C1732 1.327 . S
C1730 H1755 0.950 . S
C1731 C1730 1.349 . S
C1731 C1747 1.349 . S
C1732 C1730 1.327 . S
C1732 C1751 1.429 . S
C1732 H1756 0.950 . S
C1733 C1750 1.574 . S
C1733 C1752 1.368 . S
C1733 H1757 0.949 . S
H1734 C1738 0.949 . S
C1735 C1736 1.349 . S
C1735 C1737 1.327 . S
C1735 H1758 0.950 . S
C1736 C1735 1.349 . S
C1736 C1748 1.349 . S
C1737 C1735 1.327 . S
C1737 C1753 1.429 . S
C1737 H1759 0.950 . S
C1738 H1734 0.949 . S
C1738 C1746 1.574 . S
C1738 C1754 1.368 . S
H1739 C1747 0.950 . S
H1740 C1745 0.950 . S
H1741 C1746 0.949 . S
H1742 C1748 0.950 . S
H1743 C1749 0.950 . S
H1744 C1750 0.949 . S
C1745 H1740 0.950 . S
C1745 C1747 1.327 . S
C1745 C1751 1.429 . S
C1746 C1738 1.574 . S
C1746 H1741 0.949 . S
C1746 C1752 1.368 1_556 S
C1747 C1731 1.349 . S
C1747 H1739 0.950 . S
C1747 C1745 1.327 . S
C1748 C1736 1.349 . S
C1748 H1742 0.950 . S
C1748 C1749 1.327 . S
C1749 H1743 0.950 . S
C1749 C1748 1.327 . S
C1749 C1753 1.429 . S
C1750 C1733 1.574 . S
C1750 H1744 0.949 . S
C1750 C1754 1.368 1_554 S
C1751 C1732 1.429 . S
C1751 C1745 1.429 . S
C1751 C1752 1.523 . S
C1752 C1733 1.368 . S
C1752 C1746 1.368 1_554 S
C1752 C1751 1.523 . S
C1753 C1737 1.429 . S
C1753 C1749 1.429 . S
C1753 C1754 1.523 . S
C1754 C1738 1.368 . S
C1754 C1750 1.368 1_556 S
C1754 C1753 1.523 . S
H1755 C1730 0.950 . S
H1756 C1732 0.950 . S
H1757 C1733 0.949 . S
H1758 C1735 0.950 . S
H1759 C1737 0.950 . S
C321 C18 1.947 . S
C326 C118 1.947 . S
C351 C138 1.947 . S
C356 C38 1.947 . S
C381 C58 1.947 . S
C386 C158 1.947 . S
C411 C78 1.947 . S
C416 C98 1.947 . S
C441 C279 1.947 . S
C446 C179 1.947 . S
C471 C299 1.947 . S
C476 C199 1.947 . S
C501 C219 1.947 . S
C506 C319 1.947 . S
C531 C239 1.947 . S
C536 C259 1.947 . S
C561 C9 1.732 . S
C566 C62 1.631 . S
C591 C29 1.731 . S
C596 C2 1.630 . S
C621 C49 1.732 . S
C626 C22 1.631 . S
C651 C69 1.731 . S
C656 C42 1.631 . S
C681 C89 1.731 . S
C686 C102 1.631 . S
C711 C122 1.631 . S
C716 C109 1.732 . S
C741 C129 1.731 . S
C746 C142 1.630 . S
C771 C82 1.631 . S
C776 C149 1.732 . S
C801 C224 1.631 . S
C806 C172 1.732 . S
C831 C192 1.731 . S
C836 C164 1.631 . S
C861 C212 1.732 . S
C866 C184 1.631 . S
C891 C232 1.731 . S
C896 C204 1.631 . S
C921 C252 1.731 . S
C926 C264 1.631 . S
C951 C272 1.732 . S
C956 C284 1.631 . S
C981 C292 1.731 . S
C986 C304 1.631 . S
C1011 C312 1.732 . S
C1016 C244 1.631 . S
C1041 C12 0.492 . S
C1046 C52 0.492 . S
C1071 C32 0.491 . S
C1076 C72 0.491 . S
C1101 C132 0.491 . S
C1106 C92 0.491 . S
C1131 C152 0.492 . S
C1136 C112 0.492 . S
C1161 C209 0.492 . S
C1166 C169 0.492 . S
C1191 C229 0.491 . S
C1196 C189 0.491 . S
C1221 C249 0.491 . S
C1226 C289 0.491 . S
C1251 C269 0.492 . S
C1256 C309 0.492 . S
C1281 C4 1.070 . S
C1286 C238 1.122 . S
C1311 C178 1.122 . S
C1316 C24 1.070 . S
C1341 C44 1.070 . S
C1346 C198 1.122 . S
C1371 C218 1.122 . S
C1376 C64 1.070 . S
C1401 C278 1.122 . S
C1406 C84 1.070 . S
C1431 C104 1.070 . S
C1436 C298 1.122 . S
C1461 C318 1.122 . S
C1466 C124 1.070 . S
C1491 C144 1.070 . S
C1496 C258 1.122 . S
C1521 C162 1.070 . S
C1526 C79 1.122 . S
C1551 C182 1.070 . S
C1556 C19 1.122 . S
C1581 C39 1.122 . S
C1586 C202 1.070 . S
C1611 C222 1.070 . S
C1616 C59 1.122 . S
C1641 C242 1.070 . S
C1646 C119 1.122 . S
C1671 C262 1.070 . S
C1676 C139 1.122 . S
C1701 C159 1.122 . S
C1706 C282 1.070 . S
C1731 C99 1.122 . S
C1736 C302 1.070 . S
