# Generated by pormake.
# Topology rkf, (6)-cn, num edge types: 1
# Building blocks:
#     Node 0, Type 0, BuildingBlock: BETDAH_clean_sbu_0, # of connection points: 6
#     Node 1, Type 0, BuildingBlock: BETDAH_clean_sbu_0, # of connection points: 6
#     Node 2, Type 0, BuildingBlock: BETDAH_clean_sbu_0, # of connection points: 6
#     Node 3, Type 0, BuildingBlock: BETDAH_clean_sbu_0, # of connection points: 6
#     Node 4, Type 0, BuildingBlock: BETDAH_clean_sbu_0, # of connection points: 6
#     Node 5, Type 0, BuildingBlock: BETDAH_clean_sbu_0, # of connection points: 6
#     Edge 6, Type (0, 0), BuildingBlock: KIFKEQ_clean_linker_1, # of connection points: 2
#     Edge 7, Type (0, 0), BuildingBlock: KIFKEQ_clean_linker_1, # of connection points: 2
#     Edge 8, Type (0, 0), BuildingBlock: KIFKEQ_clean_linker_1, # of connection points: 2
#     Edge 9, Type (0, 0), BuildingBlock: KIFKEQ_clean_linker_1, # of connection points: 2
#     Edge 10, Type (0, 0), BuildingBlock: KIFKEQ_clean_linker_1, # of connection points: 2
#     Edge 11, Type (0, 0), BuildingBlock: KIFKEQ_clean_linker_1, # of connection points: 2
#     Edge 12, Type (0, 0), BuildingBlock: KIFKEQ_clean_linker_1, # of connection points: 2
#     Edge 13, Type (0, 0), BuildingBlock: KIFKEQ_clean_linker_1, # of connection points: 2
#     Edge 14, Type (0, 0), BuildingBlock: KIFKEQ_clean_linker_1, # of connection points: 2
#     Edge 15, Type (0, 0), BuildingBlock: KIFKEQ_clean_linker_1, # of connection points: 2
#     Edge 16, Type (0, 0), BuildingBlock: KIFKEQ_clean_linker_1, # of connection points: 2
#     Edge 17, Type (0, 0), BuildingBlock: KIFKEQ_clean_linker_1, # of connection points: 2
#     Edge 18, Type (0, 0), BuildingBlock: KIFKEQ_clean_linker_1, # of connection points: 2
#     Edge 19, Type (0, 0), BuildingBlock: KIFKEQ_clean_linker_1, # of connection points: 2
#     Edge 20, Type (0, 0), BuildingBlock: KIFKEQ_clean_linker_1, # of connection points: 2
#     Edge 21, Type (0, 0), BuildingBlock: KIFKEQ_clean_linker_1, # of connection points: 2
#     Edge 22, Type (0, 0), BuildingBlock: KIFKEQ_clean_linker_1, # of connection points: 2
#     Edge 23, Type (0, 0), BuildingBlock: KIFKEQ_clean_linker_1, # of connection points: 2
# Relax obj value: 0.695
# Max RMSD: 0.248
# Mean RMSD: 0.248
data_MOF--net-rkf--node1-BETDAH_clean_sbu_0--edge1-KIFKEQ_clean_linker_1
_symmetry_space_group_name_H-M    P1
_symmetry_Int_Tables_number       1
_symmetry_cell_setting            triclinic
loop_
_symmetry_equiv_pos_as_xyz
'x, y, z'
_cell_length_a     25.924375
_cell_length_b     25.751308
_cell_length_c     44.206491
_cell_angle_alpha  90.166777
_cell_angle_beta   90.165927
_cell_angle_gamma 118.93688
loop_
_atom_site_label
_atom_site_type_symbol
_atom_site_fract_x
_atom_site_fract_y
_atom_site_fract_z
_atom_type_partial_charge
Ho0 Ho 0.2928 0.02792 0.17739 0.0
Ho1 Ho 0.36028 0.15985 1.15812 0.0
C2 C 0.32639 0.13206 0.22916 0.0
C3 C 0.26978 0.92296 0.19395 0.0
C4 C 0.25834 0.88248 0.21924 0.0
C5 C 0.2583 0.82885 0.21374 0.0
C6 C 0.23962 0.78535 0.23604 0.0
C7 C 0.22086 0.79508 0.26421 0.0
C8 C 0.22418 0.85044 0.27018 0.0
C9 C 0.24274 0.89388 0.24778 0.0
C10 C 0.2271 0.07721 0.16208 0.0
C11 C 0.29537 0.05591 1.10588 0.0
C12 C 0.4022 0.26798 1.13994 0.0
C13 C 0.44589 0.31294 1.11967 0.0
C14 C 0.44137 0.30569 1.08817 0.0
C15 C 0.47569 0.35349 1.06938 0.0
C16 C 0.51519 0.40953 1.08171 0.0
C17 C 0.52327 0.41502 1.11323 0.0
C18 C 0.48871 0.36719 1.13202 0.0
C19 C 0.42492 0.10431 0.16707 0.0
O20 O 0.31452 0.07609 0.22391 0.0
O21 O 0.33613 0.16882 0.20624 0.0
O22 O 0.22907 0.93771 0.18784 0.0
O23 O 0.32353 0.96704 0.1912 0.0
O24 O 0.20936 0.02093 1.15835 0.0
O25 O 0.27439 0.1018 0.1768 0.0
O26 O 0.31894 0.11345 1.11296 0.0
O27 O 0.28972 0.0161 1.12653 0.0
O28 O 0.42291 0.25289 0.16329 0.0
O29 O 0.35558 0.2232 1.12786 0.0
O30 O 0.44421 0.15973 0.17323 0.0
O31 O 0.37562 0.0838 1.1547 0.0
H32 H 0.27047 0.81964 0.19173 0.0
H33 H 0.23784 0.74336 0.23091 0.0
H34 H 0.20918 0.85893 0.29153 0.0
H35 H 0.24253 0.93516 0.2523 0.0
H36 H 0.40894 0.26428 1.078 0.0
H37 H 0.46748 0.34751 1.04526 0.0
H38 H 0.55371 0.45724 1.12343 0.0
H39 H 0.49312 0.37368 1.15632 0.0
Ho40 Ho 0.3427 0.33053 0.50886 0.0
Ho41 Ho 0.2373 0.34109 0.48689 0.0
C42 C 0.24862 0.3306 0.55814 0.0
C43 C 0.44657 0.34577 0.52174 0.0
C44 C 0.47345 0.32591 0.5451 0.0
C45 C 0.5165 0.31047 0.53678 0.0
C46 C 0.53796 0.28517 0.5579 0.0
C47 C 0.51695 0.27545 0.58773 0.0
C48 C 0.47524 0.29293 0.59618 0.0
C49 C 0.45347 0.31767 0.57503 0.0
C50 C 0.24237 0.22674 0.50953 0.0
C51 C 0.3083 0.30535 0.43706 0.0
C52 C 0.15633 0.35489 0.46124 0.0
C53 C 0.11012 0.36276 0.44626 0.0
C54 C 0.10911 0.36584 0.41471 0.0
C55 C 0.06963 0.38004 0.40036 0.0
C56 C 0.03124 0.39305 0.41731 0.0
C57 C 0.03285 0.39024 0.44909 0.0
C58 C 0.07166 0.37476 0.46341 0.0
C59 C 0.33302 0.44219 0.50476 0.0
O60 O 0.30513 0.34647 0.55295 0.0
O61 O 0.21054 0.31565 0.53537 0.0
O62 O 0.40938 0.30391 0.50379 0.0
O63 O 0.42795 0.38268 0.53018 0.0
O64 O 0.28357 0.24263 0.52986 0.0
O65 O 0.25686 0.26705 0.49016 0.0
O66 O 0.25932 0.30743 0.44367 0.0
O67 O 0.34954 0.31786 0.45808 0.0
O68 O 0.21139 0.38397 0.45269 0.0
O69 O 0.14459 0.31548 0.48266 0.0
O70 O 0.28006 0.42894 0.51205 0.0
O71 O 0.33232 0.40163 0.4889 0.0
H72 H 0.53216 0.31627 0.51368 0.0
H73 H 0.56995 0.27205 0.55077 0.0
H74 H 0.45717 0.28482 0.61881 0.0
H75 H 0.41965 0.32849 0.58184 0.0
H76 H 0.13898 0.35731 0.40113 0.0
H77 H 0.06875 0.37978 0.37587 0.0
H78 H 0.00463 0.40054 0.46297 0.0
H79 H 0.07299 0.37405 0.4879 0.0
Ho80 Ho 0.13051 0.34352 0.84543 0.0
Ho81 Ho -0.00074 0.29201 0.82791 0.0
C82 C 0.02783 0.27539 0.89702 0.0
C83 C 0.23773 0.4102 0.86333 0.0
C84 C 0.27528 0.44799 0.88801 0.0
C85 C 0.32494 0.50192 0.8806 0.0
C86 C 0.36677 0.53494 0.90269 0.0
C87 C 0.35959 0.51443 0.93259 0.0
C88 C 0.30764 0.46227 0.94031 0.0
C89 C 0.26579 0.4293 0.91819 0.0
C90 C 0.0819 0.23743 0.81855 0.0
C91 C 0.09856 0.33639 0.774 0.0
C92 C 0.88955 0.245 0.81299 0.0
C93 C 0.83942 0.21486 0.79239 0.0
C94 C 0.84668 0.20852 0.76152 0.0
C95 C 0.79716 0.18039 0.7427 0.0
C96 C 0.73988 0.15845 0.75455 0.0
C97 C 0.73324 0.16538 0.78553 0.0
C98 C 0.78267 0.19341 0.80426 0.0
C99 C 0.05292 0.4005 0.85445 0.0
O100 O 0.08411 0.31505 0.89168 0.0
O101 O -0.01121 0.25416 0.87468 0.0
O102 O 0.2089 0.35262 0.86755 0.0
O103 O 0.2074 0.43008 0.84834 0.0
O104 O 0.13765 0.27522 0.81701 0.0
O105 O 0.05689 0.25455 0.83733 0.0
O106 O 0.04186 0.30286 0.78121 0.0
O107 O 0.13944 0.36373 0.79522 0.0
O108 O 0.92798 0.30034 0.8074 0.0
O109 O 0.9129 0.21447 0.82471 0.0
O110 O -0.00076 0.36071 0.85959 0.0
O111 O 0.07416 0.38172 0.83458 0.0
H112 H 0.33273 0.51722 0.8574 0.0
H113 H 0.40589 0.57518 0.89612 0.0
H114 H 0.30098 0.44473 0.96305 0.0
H115 H 0.22755 0.38798 0.92444 0.0
H116 H 0.89033 0.22491 0.75209 0.0
H117 H 0.80367 0.17454 0.719 0.0
H118 H 0.68989 0.14917 0.79529 0.0
H119 H 0.77657 0.19843 0.82813 0.0
Ho120 Ho 0.80246 0.09375 0.17169 0.0
Ho121 Ho 0.83204 -0.00389 1.15466 0.0
C122 C 0.80969 0.0046 0.22481 0.0
C123 C 0.74678 0.15019 0.18723 0.0
C124 C 0.74416 0.18077 0.21474 0.0
C125 C 0.73709 0.23129 0.21242 0.0
C126 C 0.74478 0.26681 0.23788 0.0
C127 C 0.75949 0.25205 0.26601 0.0
C128 C 0.76345 0.19954 0.26839 0.0
C129 C 0.75604 0.16437 0.243 0.0
C130 C 0.91734 0.12823 0.17583 0.0
C131 C 0.8606 0.10054 1.10653 0.0
C132 C 0.86005 0.91922 1.1342 0.0
C133 C 0.82402 0.85822 1.12229 0.0
C134 C 0.81841 0.8488 1.09092 0.0
C135 C 0.78317 0.79217 1.07911 0.0
C136 C 0.75294 0.7432 1.09832 0.0
C137 C 0.75872 0.75228 1.12976 0.0
C138 C 0.79374 0.80938 1.14167 0.0
C139 C 0.71762 0.96966 1.14926 0.0
O140 O 0.78924 0.04175 0.21697 0.0
O141 O 0.8371 -0.01138 0.20474 0.0
O142 O 0.798 0.1752 0.17386 0.0
O143 O 0.72357 0.09238 0.1887 0.0
O144 O 0.89732 0.16507 0.17153 0.0
O145 O 0.87543 0.07766 0.18187 0.0
O146 O 0.87874 0.06483 1.11827 0.0
O147 O 0.82057 0.1097 1.12095 0.0
O148 O 0.8556 0.92741 0.16304 0.0
O149 O 0.86097 0.96166 1.11768 0.0
O150 O 0.73374 0.93354 1.16041 0.0
O151 O 0.76222 0.0165 1.14198 0.0
H152 H 0.72826 0.24471 0.19066 0.0
H153 H 0.74128 0.30682 0.23535 0.0
H154 H 0.77601 0.18739 0.28949 0.0
H155 H 0.76249 0.12601 0.2452 0.0
H156 H 0.84154 0.88529 1.0754 0.0
H157 H 0.78132 0.78653 1.05476 0.0
H158 H 0.73654 0.71528 1.14508 0.0
H159 H 0.79721 0.81511 0.166 0.0
Ho160 Ho 0.79783 0.86784 0.50988 0.0
Ho161 Ho 0.83062 0.77174 0.49347 0.0
C162 C 0.85642 0.8213 0.56185 0.0
C163 C 0.74257 0.92249 0.52826 0.0
C164 C 0.70185 0.91852 0.55229 0.0
C165 C 0.64935 0.91829 0.54423 0.0
C166 C 0.61171 0.91922 0.56648 0.0
C167 C 0.62625 0.92086 0.59723 0.0
C168 C 0.67742 0.91771 0.60515 0.0
C169 C 0.71477 0.91633 0.58289 0.0
C170 C 0.90432 0.90684 0.48518 0.0
C171 C 0.79795 0.83926 0.43918 0.0
C172 C 0.86156 0.69415 0.47756 0.0
C173 C 0.88415 0.67175 0.45351 0.0
C174 C 0.89526 0.69638 0.42454 0.0
C175 C 0.92075 0.67653 0.40278 0.0
C176 C 0.9356 0.63199 0.40979 0.0
C177 C 0.92231 0.60609 0.43859 0.0
C178 C 0.89666 0.62584 0.46026 0.0
C179 C 0.72745 0.73663 0.52223 0.0
O180 O 0.81992 0.84314 0.55638 0.0
O181 O 0.87371 0.79866 0.53957 0.0
O182 O 0.79755 0.93933 0.53563 0.0
O183 O 0.72082 0.87895 0.50867 0.0
O184 O 0.87406 0.93463 0.48241 0.0
O185 O 0.8803 0.86554 0.50374 0.0
O186 O 0.82539 0.80839 0.4465 0.0
O187 O 0.77584 0.85912 0.46032 0.0
O188 O 0.80804 0.68617 0.47418 0.0
O189 O 0.8982 0.74609 0.4891 0.0
O190 O 0.76194 0.71459 0.52729 0.0
O191 O 0.74754 0.77327 0.50109 0.0
H192 H 0.63827 0.91913 0.52064 0.0
H193 H 0.57243 0.92093 0.5596 0.0
H194 H 0.69073 0.9199 0.62856 0.0
H195 H 0.75463 0.91565 0.58966 0.0
H196 H 0.8858 0.73192 0.41907 0.0
H197 H 0.93151 0.69816 0.38095 0.0
H198 H 0.93313 0.57171 0.44457 0.0
H199 H 0.88796 0.60626 0.4826 0.0
Ho200 Ho 0.01968 0.80138 0.84482 0.0
Ho201 Ho 0.13356 0.91187 0.82288 0.0
C202 C 0.11335 0.89858 0.8946 0.0
C203 C 0.94732 0.69648 0.86477 0.0
C204 C 0.91313 0.66641 0.89168 0.0
C205 C 0.86195 0.6114 0.88835 0.0
C206 C 0.82679 0.5832 0.9134 0.0
C207 C 0.84263 0.60957 0.94219 0.0
C208 C 0.89478 0.66428 0.94544 0.0
C209 C 0.92966 0.69253 0.92038 0.0
C210 C 0.00711 0.89671 0.83551 0.0
C211 C 0.0292 0.83631 0.77367 0.0
C212 C 0.22134 0.00285 0.79894 0.0
C213 C 0.27007 0.01009 0.77889 0.0
C214 C 0.26531 0.01488 0.74753 0.0
C215 C 0.31142 0.02312 0.72849 0.0
C216 C 0.36375 0.02705 0.74027 0.0
C217 C 0.36819 0.02119 0.77162 0.0
C218 C 0.32185 0.01281 0.79074 0.0
C219 C 0.13789 0.80958 0.82833 0.0
O220 O 0.07093 0.84271 0.88944 0.0
O221 O 0.13582 0.93665 0.87194 0.0
O222 O 0.93055 0.73015 0.85047 0.0
O223 O 0.00471 0.72058 0.86696 0.0
O224 O -0.03698 0.84314 0.83592 0.0
O225 O 0.05271 0.89689 0.84567 0.0
O226 O 0.07629 0.88743 0.78073 0.0
O227 O 0.00481 0.79231 0.79364 0.0
O228 O 0.22221 -0.01503 0.82647 0.0
O229 O 0.16827 -0.02277 0.78718 0.0
O230 O 0.1819 0.86095 0.8344 0.0
O231 O 0.09613 0.81579 0.8184 0.0
H232 H 0.84864 0.59074 0.86624 0.0
H233 H 0.78693 0.54123 0.9102 0.0
H234 H 0.9075 0.6865 0.96719 0.0
H235 H -0.0312 0.73524 0.92331 0.0
H236 H 0.22629 0.01339 0.73768 0.0
H237 H 0.30689 0.02908 0.70457 0.0
H238 H 0.40785 0.02411 0.78143 0.0
H239 H 0.32702 0.0093 0.81484 0.0
H240 H 0.95176 0.04587 0.17051 0.0
H241 H 0.00619 0.22986 1.15172 0.0
H242 H 0.03905 0.05579 1.14629 0.0
H243 H 0.09673 0.24071 1.12802 0.0
H244 H 0.24276 0.18628 0.17593 0.0
H245 H 0.17826 0.22497 1.15965 0.0
H246 H 0.09808 0.08409 1.09359 0.0
H247 H 0.16103 0.0438 1.11071 0.0
C248 C -0.01745 0.0885 1.16106 0.0
C249 C -0.02714 0.13721 0.16317 0.0
C250 C 0.03193 0.09394 1.1465 0.0
C251 C 0.07359 0.14868 1.13438 0.0
C252 C 0.06423 0.19782 1.13648 0.0
C253 C 0.01346 0.19187 1.15053 0.0
C254 C 0.21273 0.16489 1.15719 0.0
C255 C 0.20306 0.10996 1.14597 0.0
C256 C 0.177 0.18797 1.14728 0.0
C257 C 0.1313 0.15518 1.12667 0.0
C258 C 0.13205 0.10876 1.11027 0.0
C259 C 0.16664 0.08473 1.12066 0.0
H260 H 0.95925 -0.01118 0.44179 0.0
H261 H -0.01682 0.87231 0.50341 0.0
H262 H 0.06499 0.04918 0.43743 0.0
H263 H 0.08978 0.93328 0.49936 0.0
H264 H 0.23315 0.18449 0.45247 0.0
H265 H 0.17136 0.0833 0.4351 0.0
H266 H 0.12012 0.02856 0.52757 0.0
H267 H 0.18382 0.12992 0.54495 0.0
C268 C -0.01261 -0.02504 0.45341 0.0
C269 C -0.03591 0.92859 0.47422 0.0
C270 C 0.04807 0.00886 0.4506 0.0
C271 C 0.08536 -0.00282 0.46925 0.0
C272 C 0.06169 0.94384 0.48542 0.0
C273 C 0.00083 0.90947 0.48796 0.0
C274 C 0.20933 0.15059 0.46912 0.0
C275 C 0.21036 0.16486 0.49991 0.0
C276 C 0.1751 0.09255 0.45918 0.0
C277 C 0.14021 0.04843 0.47982 0.0
C278 C 0.14676 0.06163 0.51105 0.0
C279 C 0.18194 0.11973 0.52104 0.0
H280 H 0.10038 0.00337 0.82358 0.0
H281 H 0.9186 0.88777 0.79872 0.0
H282 H 0.1036 0.07867 0.79022 0.0
H283 H 0.92073 0.96502 0.76579 0.0
H284 H -0.03213 0.1502 0.82029 0.0
H285 H 0.92921 0.05571 0.79441 0.0
H286 H 0.0868 0.12337 0.74049 0.0
H287 H 0.12547 0.21889 0.76616 0.0
C288 C 0.06138 -0.00612 0.81049 0.0
C289 C 0.00887 0.94099 0.81438 0.0
C290 C 0.06336 0.03645 0.79073 0.0
C291 C 0.01205 0.0278 0.77534 0.0
C292 C -0.0392 0.97259 0.77724 0.0
C293 C 0.95925 0.92931 0.79668 0.0
C294 C -0.00693 0.14574 0.80196 0.0
C295 C 0.05124 0.18943 0.79672 0.0
C296 C -0.02957 0.09196 0.78651 0.0
C297 C 0.00787 0.08122 0.76763 0.0
C298 C 0.05867 0.13007 0.75631 0.0
C299 C 0.08164 0.184 0.77174 0.0
H300 H 0.52348 0.51722 1.09546 0.0
H301 H 0.55658 0.42339 1.02355 0.0
H302 H 0.51692 0.58359 1.05875 0.0
H303 H 0.54585 0.48683 0.98675 0.0
H304 H 0.47676 0.55452 0.92196 0.0
H305 H 0.55103 0.56852 0.95963 0.0
H306 H 0.42742 0.54565 1.03059 0.0
H307 H 0.35469 0.53472 0.99304 0.0
C308 C 0.53186 0.5121 1.07197 0.0
C309 C 0.53741 0.46294 1.06221 0.0
C310 C 0.52747 0.54999 1.05083 0.0
C311 C 0.52755 0.53858 1.01973 0.0
C312 C 0.54424 0.49648 1.01047 0.0
C313 C 0.54972 0.45934 1.03162 0.0
C314 C 0.4664 0.55534 0.94561 0.0
C315 C 0.40912 0.54146 0.95459 0.0
C316 C 0.50898 0.563 0.96722 0.0
C317 C 0.49474 0.55618 0.99813 0.0
C318 C 0.44025 0.55089 1.00704 0.0
C319 C 0.39791 0.54365 0.98546 0.0
H320 H 0.04321 0.45172 0.3637 0.0
H321 H 0.91828 0.3624 0.43525 0.0
H322 H -0.03606 0.43942 0.33072 0.0
H323 H 0.83953 0.35648 0.40342 0.0
H324 H 0.82844 0.37324 0.26502 0.0
H325 H 0.88405 0.43575 0.30746 0.0
H326 H 0.7926 0.28633 0.36758 0.0
H327 H 0.73432 0.22644 0.32579 0.0
C328 C -0.00109 0.43074 0.3727 0.0
C329 C -0.01317 0.4044 0.40147 0.0
C330 C 0.95309 0.42481 0.35387 0.0
C331 C 0.89417 0.39363 0.36371 0.0
C332 C 0.8838 0.37758 0.39441 0.0
C333 C 0.92943 0.38178 0.41294 0.0
C334 C 0.81837 0.3547 0.28756 0.0
C335 C 0.77862 0.29416 0.29195 0.0
C336 C 0.85097 0.39039 0.31195 0.0
C337 C 0.84541 0.36575 0.34096 0.0
C338 C 0.79938 0.30755 0.34578 0.0
C339 C 0.76614 0.27242 0.32158 0.0
H340 H 0.72209 0.18518 0.69714 0.0
H341 H 0.63872 0.05574 0.76771 0.0
H342 H 0.65242 0.11722 0.66071 0.0
H343 H 0.56639 -0.01187 0.73142 0.0
H344 H 0.5812 -0.0025 0.59283 0.0
H345 H 0.56726 0.04978 0.63496 0.0
H346 H 0.59008 0.93327 0.6972 0.0
H347 H 0.59952 0.87844 0.65514 0.0
C348 C 0.68761 0.14271 0.70501 0.0
C349 C 0.68759 0.1247 0.7349 0.0
C350 C 0.64663 0.10379 0.68418 0.0
C351 C 0.60487 0.04588 0.69286 0.0
C352 C 0.5992 0.0316 0.72379 0.0
C353 C 0.6406 0.07051 0.74463 0.0
C354 C 0.57997 -0.01916 0.61542 0.0
C355 C 0.59469 0.93574 0.62077 0.0
C356 C 0.57237 0.0113 0.63967 0.0
C357 C 0.58111 -0.0018 0.66946 0.0
C358 C 0.58448 0.94596 0.67462 0.0
C359 C 0.59092 0.91481 0.6504 0.0
H360 H 0.67776 0.70519 1.04988 0.0
H361 H 0.75829 0.64407 1.11622 0.0
H362 H 0.6688 0.62876 1.01525 0.0
H363 H 0.74551 0.56409 1.08229 0.0
H364 H 0.87235 0.59913 1.00017 0.0
H365 H 0.81516 0.59032 1.04462 0.0
H366 H 0.66337 0.54976 0.98825 0.0
H367 H 0.72245 0.56197 0.94352 0.0
C368 C 0.69102 0.67345 1.05757 0.0
C369 C 0.72221 0.68283 1.08485 0.0
C370 C 0.6853 0.62876 1.03776 0.0
C371 C 0.71049 0.59265 1.04512 0.0
C372 C 0.72886 0.59347 1.07523 0.0
C373 C 0.73572 0.63908 1.09487 0.0
C374 C 0.82632 0.58691 0.99733 0.0
C375 C 0.80272 0.584 0.96841 0.0
C376 C 0.79277 0.58077 1.02298 0.0
C377 C 0.73474 0.57164 1.02022 0.0
C378 C 0.70839 0.55887 0.99131 0.0
C379 C 0.74227 0.56558 0.96556 0.0
H380 H 0.92019 0.61384 0.34878 0.0
H381 H 0.03315 0.62133 0.42258 0.0
H382 H -0.00397 0.62644 0.31292 0.0
H383 H 0.10863 0.63209 0.38659 0.0
H384 H 0.13789 0.68091 0.25154 0.0
H385 H 0.06926 0.60896 0.28728 0.0
H386 H 0.16503 0.72718 0.36117 0.0
H387 H 0.23436 0.79795 0.32557 0.0
C388 C 0.96043 0.61595 0.35723 0.0
C389 C -0.02833 0.61885 0.38842 0.0
C390 C 0.00377 0.62239 0.33667 0.0
C391 C 0.05912 0.63205 0.34702 0.0
C392 C 0.06687 0.62605 0.37803 0.0
C393 C 0.02346 0.61962 0.39863 0.0
C394 C 0.14577 0.69034 0.27551 0.0
C395 C 0.19056 0.74569 0.28581 0.0
C396 C 0.10626 0.64917 0.29595 0.0
C397 C 0.11088 0.66283 0.32696 0.0
C398 C 0.16008 0.71502 0.33745 0.0
C399 C 0.19949 0.75611 0.31703 0.0
H400 H 0.36499 -0.01122 0.68255 0.0
H401 H 0.48011 0.106 0.75207 0.0
H402 H 0.43623 0.04647 0.64447 0.0
H403 H 0.55384 0.16156 0.71407 0.0
H404 H 0.54616 0.29981 0.64732 0.0
H405 H 0.53974 0.22965 0.68525 0.0
H406 H 0.51853 0.10347 0.61491 0.0
H407 H 0.52262 0.17363 0.57696 0.0
C408 C 0.40665 0.02559 0.68981 0.0
C409 C 0.41532 0.04505 0.72004 0.0
C410 C 0.44828 0.05845 0.66792 0.0
C411 C 0.49956 0.11111 0.676 0.0
C412 C 0.51339 0.12302 0.70694 0.0
C413 C 0.47119 0.09071 0.72883 0.0
C414 C 0.54178 0.25769 0.63996 0.0
C415 C 0.53273 0.24139 0.60933 0.0
C416 C 0.53893 0.21738 0.66175 0.0
C417 C 0.52679 0.1597 0.65334 0.0
C418 C 0.52643 0.1468 0.62233 0.0
C419 C 0.52907 0.18722 0.6005 0.0
H420 H 0.39978 0.00113 1.13908 0.0
H421 H 0.526 0.13542 0.19917 0.0
H422 H 0.4599 0.95178 1.13799 0.0
H423 H 0.58588 0.08505 0.19835 0.0
H424 H 0.65823 -0.00656 1.10699 0.0
H425 H 0.57637 0.01342 1.11533 0.0
H426 H 0.57107 0.96653 0.20936 0.0
H427 H 0.65196 0.94386 0.20059 0.0
C428 C 0.43979 0.01938 1.15254 0.0
C429 C 0.45874 0.07229 0.16903 0.0
C430 C 0.47381 -0.00906 1.15201 0.0
C431 C 0.52678 0.01446 0.16833 0.0
C432 C 0.54449 0.06576 0.18602 0.0
C433 C 0.51076 0.0948 0.18622 0.0
C434 C 0.63784 -0.01495 1.1291 0.0
C435 C 0.66027 0.96644 1.15306 0.0
C436 C 0.59141 -0.00333 1.1339 0.0
C437 C 0.56797 -0.00849 0.16295 0.0
C438 C 0.58858 0.97038 0.18677 0.0
C439 C 0.63411 0.95692 0.18171 0.0
H440 H 0.343 0.53068 0.54298 0.0
H441 H 0.44392 0.46919 0.49081 0.0
H442 H 0.43561 0.61656 0.56057 0.0
H443 H 0.53473 0.55227 0.50922 0.0
H444 H 0.67918 0.65549 0.56682 0.0
H445 H 0.57379 0.59215 0.57493 0.0
H446 H 0.53627 0.69924 0.51332 0.0
H447 H 0.64158 0.76236 0.50479 0.0
C448 C 0.38481 0.53522 0.53564 0.0
C449 C 0.3868 0.49335 0.51587 0.0
C450 C 0.43724 0.58375 0.54581 0.0
C451 C 0.49141 0.58949 0.53665 0.0
C452 C 0.49306 0.54755 0.51701 0.0
C453 C 0.44124 0.50026 0.50646 0.0
C454 C 0.64851 0.66701 0.55604 0.0
C455 C 0.66783 0.71216 0.53438 0.0
C456 C 0.58845 0.63144 0.5611 0.0
C457 C 0.54767 0.64104 0.54454 0.0
C458 C 0.56734 0.6917 0.52649 0.0
C459 C 0.62747 0.72722 0.52133 0.0
H460 H -0.0003 0.45055 0.88713 0.0
H461 H 0.15793 0.4922 0.83711 0.0
H462 H 0.02774 0.55593 0.88814 0.0
H463 H 0.18685 0.59728 0.83937 0.0
H464 H 0.21411 0.78971 0.8629 0.0
H465 H 0.20099 0.6926 0.87899 0.0
H466 H 0.03615 0.60556 0.82998 0.0
H467 H 0.05014 0.70137 0.81295 0.0
C468 C 0.04149 0.48235 0.87745 0.0
C469 C 0.07646 0.46346 0.86175 0.0
C470 C 0.05756 0.54238 0.87821 0.0
C471 C 0.10927 0.58393 0.86383 0.0
C472 C 0.14718 0.56574 0.85091 0.0
C473 C 0.13057 0.50567 0.84962 0.0
C474 C 0.17536 0.74964 0.85553 0.0
C475 C 0.13277 0.75254 0.83698 0.0
C476 C 0.16769 0.69459 0.86494 0.0
C477 C 0.11691 0.64249 0.85628 0.0
C478 C 0.07486 0.64557 0.8375 0.0
C479 C 0.08315 0.70014 0.82759 0.0
H480 H 0.32999 0.08653 0.28621 0.0
H481 H 0.31553 0.22956 0.24369 0.0
H482 H 0.3269 0.12758 0.33626 0.0
H483 H 0.31205 0.26959 0.29293 0.0
H484 H 0.24393 0.2924 0.38517 0.0
H485 H 0.24731 0.24837 0.3367 0.0
H486 H 0.38508 0.21611 0.37099 0.0
H487 H 0.38202 0.2608 0.41962 0.0
C488 C 0.32596 0.12642 0.28738 0.0
C489 C 0.32314 0.15437 0.2605 0.0
C490 C 0.32453 0.1503 0.31617 0.0
C491 C 0.31901 0.20219 0.319 0.0
C492 C 0.31563 0.22942 0.29206 0.0
C493 C 0.31802 0.20632 0.26354 0.0
C494 C 0.27537 0.27642 0.38245 0.0
C495 C 0.31312 0.28112 0.40658 0.0
C496 C 0.27736 0.25101 0.35445 0.0
C497 C 0.31651 0.22829 0.34951 0.0
C498 C 0.35396 0.23247 0.37374 0.0
C499 C 0.35263 0.25883 0.40166 0.0
H500 H 0.30935 0.35525 0.61292 0.0
H501 H 0.13788 0.30768 0.57607 0.0
H502 H 0.27309 0.3567 0.66379 0.0
H503 H 0.10212 0.31077 0.62647 0.0
H504 H 0.03541 0.26905 0.72442 0.0
H505 H 0.07117 0.26648 0.67366 0.0
H506 H 0.24441 0.40554 0.69909 0.0
H507 H 0.20891 0.40674 0.74989 0.0
C508 C 0.26394 0.34521 0.61553 0.0
C509 C 0.2269 0.33113 0.58993 0.0
C510 C 0.24297 0.34648 0.64492 0.0
C511 C 0.18409 0.3339 0.64995 0.0
C512 C 0.14726 0.3198 0.62421 0.0
C513 C 0.16814 0.31838 0.59494 0.0
C514 C 0.081 0.29961 0.71915 0.0
C515 C 0.11879 0.33838 0.74166 0.0
C516 C 0.10181 0.29823 0.68976 0.0
C517 C 0.16131 0.3357 0.68157 0.0
C518 C 0.19873 0.375 0.7041 0.0
C519 C 0.178 0.37618 0.73346 0.0
H520 H 0.91336 0.21124 0.91623 0.0
H521 H 0.09156 0.28919 0.95031 0.0
H522 H 0.87552 0.1734 0.9663 0.0
H523 H 0.05324 0.25087 1.00094 0.0
H524 H -0.0387 0.1141 1.07895 0.0
H525 H 0.00299 0.15879 1.0302 0.0
H526 H 0.86217 0.20058 1.0172 0.0
H527 H 0.82035 0.15568 1.06619 0.0
C528 C 0.94483 0.22059 0.93438 0.0
C529 C 0.00598 0.25355 0.92871 0.0
C530 C 0.92279 0.19901 0.96343 0.0
C531 C -0.03917 0.20878 0.98819 0.0
C532 C 0.02215 0.24175 0.98263 0.0
C533 C 0.04432 0.26412 0.95347 0.0
C534 C 0.93901 0.13282 1.0658 0.0
C535 C 0.88682 0.13055 1.07678 0.0
C536 C -0.03657 0.15907 1.03773 0.0
C537 C 0.9363 0.18353 1.01922 0.0
C538 C 0.88435 0.18179 1.03036 0.0
C539 C 0.86033 0.15621 1.0587 0.0
H540 H 0.77875 0.03821 0.27947 0.0
H541 H 0.82917 0.91406 0.24268 0.0
H542 H 0.77585 -0.00173 0.33023 0.0
H543 H 0.82441 0.87327 0.29237 0.0
H544 H 0.86391 0.84078 0.38927 0.0
H545 H 0.86687 0.88183 0.3391 0.0
H546 H 0.7302 0.9227 0.36555 0.0
H547 H 0.72896 0.88366 0.41571 0.0
C548 C 0.7888 0.00223 0.28203 0.0
C549 C 0.80464 -0.01982 0.25653 0.0
C550 C 0.78691 -0.02119 0.31131 0.0
C551 C 0.80036 0.93213 0.31618 0.0
C552 C 0.81516 0.90984 0.29042 0.0
C553 C 0.81745 0.93335 0.26146 0.0
C554 C 0.83399 0.85787 0.3843 0.0
C555 C 0.79603 0.85822 0.40693 0.0
C556 C 0.83553 0.88167 0.35526 0.0
C557 C 0.79881 0.90641 0.34753 0.0
C558 C 0.7602 0.90562 0.37017 0.0
C559 C 0.75903 0.88232 0.39917 0.0
H560 H 0.81277 0.83264 0.61746 0.0
H561 H 0.95466 0.81344 0.57805 0.0
H562 H 0.85223 0.83324 0.66827 0.0
H563 H -0.00562 0.81529 0.62843 0.0
H564 H 0.0847 0.89322 0.72153 0.0
H565 H 0.04221 0.88886 0.67151 0.0
H566 H 0.87021 0.76408 0.70486 0.0
H567 H 0.91321 0.76734 0.75501 0.0
C568 C 0.85241 0.82877 0.61951 0.0
C569 C 0.88023 0.82296 0.59332 0.0
C570 C 0.87492 0.82875 0.64875 0.0
C571 C 0.92677 0.82435 0.65274 0.0
C572 C 0.95472 0.81915 0.6265 0.0
C573 C 0.93162 0.81787 0.59744 0.0
C574 C 0.03786 0.86429 0.71825 0.0
C575 C 0.00274 0.83012 0.74251 0.0
C576 C 0.01339 0.86178 0.68941 0.0
C577 C 0.95251 0.82617 0.68383 0.0
C578 C 0.91714 0.79228 0.70815 0.0
C579 C 0.94196 0.79369 0.73692 0.0
H580 H 0.08123 0.83938 0.94996 0.0
H581 H 0.20098 0.0092 0.91141 0.0
H582 H 0.12362 0.87709 1.00017 0.0
H583 H 0.24408 0.04609 0.96085 0.0
H584 H 0.24935 0.94261 1.08241 0.0
H585 H 0.20453 0.90496 1.03306 0.0
H586 H 0.23647 0.0802 1.00858 0.0
H587 H 0.28271 0.11804 1.05783 0.0
C588 C 0.11648 0.8847 0.95205 0.0
C589 C 0.13706 0.92085 0.92617 0.0
C590 C 0.1414 0.90648 0.98101 0.0
C591 C 0.18794 0.96524 0.98523 0.0
C592 C 0.20797 0.00116 0.95925 0.0
C593 C 0.18312 -0.02046 0.93048 0.0
C594 C 0.24738 -0.02652 1.06649 0.0
C595 C 0.27068 0.03391 1.07446 0.0
C596 C 0.2208 0.95151 1.038 0.0
C597 C 0.21612 -0.01108 1.01616 0.0
C598 C 0.23961 0.04951 1.02416 0.0
C599 C 0.26633 0.07152 1.05268 0.0
loop_
_geom_bond_atom_site_label_1
_geom_bond_atom_site_label_2
_geom_bond_distance
_geom_bond_site_symmetry_2
_ccdc_geom_bond_type
Ho0 C3 2.811 . S
Ho0 O20 2.322 . S
Ho0 O22 2.378 . S
Ho0 O23 2.524 . S
Ho0 O24 2.381 . S
Ho0 O25 2.660 1_554 S
Ho0 O27 2.346 1_554 S
Ho0 O31 2.305 . S
Ho1 C12 2.811 . S
Ho1 O21 2.346 1_556 S
Ho1 O25 2.309 . S
Ho1 O26 2.322 . S
Ho1 O28 2.378 . S
Ho1 O29 2.524 . S
Ho1 O30 2.381 . S
Ho1 O31 2.669 1_556 S
C2 O20 1.259 . S
C2 O21 1.268 . S
C3 Ho0 2.811 . S
C3 C4 1.488 . S
C3 O22 1.215 . S
C3 O23 1.289 . S
C4 C3 1.488 . S
C4 C5 1.348 . S
C4 C9 1.413 . S
C5 C4 1.348 . S
C5 C6 1.442 . S
C5 H32 0.930 . S
C6 C5 1.442 . S
C6 C7 1.381 . S
C6 H33 0.931 . S
C7 C6 1.381 . S
C7 C8 1.321 1_545 S
C8 C7 1.321 1_565 S
C8 C9 1.403 1_565 S
C8 H34 0.934 . S
C9 C4 1.413 . S
C9 C8 1.403 1_545 S
C9 H35 0.930 . S
C10 O24 1.275 . S
C10 O25 1.251 1_554 S
C11 O26 1.259 . S
C11 O27 1.268 . S
C12 Ho1 2.811 . S
C12 C13 1.488 . S
C12 O28 1.215 . S
C12 O29 1.289 . S
C13 C12 1.488 . S
C13 C14 1.348 . S
C13 C18 1.413 . S
C14 C13 1.348 . S
C14 C15 1.442 . S
C14 H36 0.930 . S
C15 C14 1.442 . S
C15 C16 1.381 . S
C15 H37 0.931 . S
C16 C15 1.381 . S
C16 C17 1.321 . S
C17 C16 1.321 . S
C17 C18 1.403 . S
C17 H38 0.934 . S
C18 C13 1.413 . S
C18 C17 1.403 . S
C18 H39 0.930 . S
C19 O30 1.275 1_554 S
C19 O31 1.256 . S
O20 Ho0 2.322 . S
O20 C2 1.259 . S
O21 Ho1 2.346 1_554 S
O21 C2 1.268 . S
O22 Ho0 2.378 . S
O22 C3 1.215 . S
O23 Ho0 2.524 . S
O23 C3 1.289 . S
O24 Ho0 2.381 . S
O24 C10 1.275 . S
O25 Ho0 2.660 1_556 S
O25 Ho1 2.309 . S
O25 C10 1.251 1_556 S
O26 Ho1 2.322 . S
O26 C11 1.259 . S
O27 Ho0 2.346 1_556 S
O27 C11 1.268 . S
O28 Ho1 2.378 . S
O28 C12 1.215 . S
O29 Ho1 2.524 . S
O29 C12 1.289 . S
O30 Ho1 2.381 . S
O30 C19 1.275 1_556 S
O31 Ho0 2.305 . S
O31 Ho1 2.669 1_554 S
O31 C19 1.256 . S
H32 C5 0.930 . S
H33 C6 0.931 . S
H34 C8 0.934 . S
H35 C9 0.930 . S
H36 C14 0.930 . S
H37 C15 0.931 . S
H38 C17 0.934 . S
H39 C18 0.930 . S
Ho40 C43 2.811 . S
Ho40 O60 2.322 . S
Ho40 O62 2.378 . S
Ho40 O63 2.524 . S
Ho40 O64 2.381 . S
Ho40 O65 2.669 . S
Ho40 O67 2.346 . S
Ho40 O71 2.305 . S
Ho41 C52 2.811 . S
Ho41 O61 2.346 . S
Ho41 O65 2.305 . S
Ho41 O66 2.322 . S
Ho41 O68 2.378 . S
Ho41 O69 2.524 . S
Ho41 O70 2.381 . S
Ho41 O71 2.669 . S
C42 O60 1.259 . S
C42 O61 1.268 . S
C43 Ho40 2.811 . S
C43 C44 1.488 . S
C43 O62 1.215 . S
C43 O63 1.289 . S
C44 C43 1.488 . S
C44 C45 1.348 . S
C44 C49 1.413 . S
C45 C44 1.348 . S
C45 C46 1.442 . S
C45 H72 0.930 . S
C46 C45 1.442 . S
C46 C47 1.381 . S
C46 H73 0.931 . S
C47 C46 1.381 . S
C47 C48 1.321 . S
C48 C47 1.321 . S
C48 C49 1.403 . S
C48 H74 0.934 . S
C49 C44 1.413 . S
C49 C48 1.403 . S
C49 H75 0.930 . S
C50 O64 1.275 . S
C50 O65 1.256 . S
C51 O66 1.259 . S
C51 O67 1.268 . S
C52 Ho41 2.811 . S
C52 C53 1.488 . S
C52 O68 1.215 . S
C52 O69 1.289 . S
C53 C52 1.488 . S
C53 C54 1.348 . S
C53 C58 1.413 . S
C54 C53 1.348 . S
C54 C55 1.442 . S
C54 H76 0.930 . S
C55 C54 1.442 . S
C55 C56 1.381 . S
C55 H77 0.931 . S
C56 C55 1.381 . S
C56 C57 1.321 . S
C57 C56 1.321 . S
C57 C58 1.403 . S
C57 H78 0.934 . S
C58 C53 1.413 . S
C58 C57 1.403 . S
C58 H79 0.930 . S
C59 O70 1.275 . S
C59 O71 1.256 . S
O60 Ho40 2.322 . S
O60 C42 1.259 . S
O61 Ho41 2.346 . S
O61 C42 1.268 . S
O62 Ho40 2.378 . S
O62 C43 1.215 . S
O63 Ho40 2.524 . S
O63 C43 1.289 . S
O64 Ho40 2.381 . S
O64 C50 1.275 . S
O65 Ho40 2.669 . S
O65 Ho41 2.305 . S
O65 C50 1.256 . S
O66 Ho41 2.322 . S
O66 C51 1.259 . S
O67 Ho40 2.346 . S
O67 C51 1.268 . S
O68 Ho41 2.378 . S
O68 C52 1.215 . S
O69 Ho41 2.524 . S
O69 C52 1.289 . S
O70 Ho41 2.381 . S
O70 C59 1.275 . S
O71 Ho40 2.305 . S
O71 Ho41 2.669 . S
O71 C59 1.256 . S
H72 C45 0.930 . S
H73 C46 0.931 . S
H74 C48 0.934 . S
H75 C49 0.930 . S
H76 C54 0.930 . S
H77 C55 0.931 . S
H78 C57 0.934 . S
H79 C58 0.930 . S
Ho80 C83 2.811 . S
Ho80 O100 2.327 . S
Ho80 O102 2.378 . S
Ho80 O103 2.524 . S
Ho80 O104 2.381 . S
Ho80 O105 2.669 1_455 S
Ho80 O107 2.346 . S
Ho80 O111 2.305 . S
Ho81 C92 2.811 . S
Ho81 O101 2.346 . S
Ho81 O105 2.305 . S
Ho81 O106 2.322 1_655 S
Ho81 O108 2.378 . S
Ho81 O109 2.524 . S
Ho81 O110 2.381 . S
Ho81 O111 2.669 1_655 S
C82 O100 1.250 1_655 S
C82 O101 1.268 . S
C83 Ho80 2.811 . S
C83 C84 1.488 . S
C83 O102 1.215 . S
C83 O103 1.289 . S
C84 C83 1.488 . S
C84 C85 1.348 . S
C84 C89 1.413 . S
C85 C84 1.348 . S
C85 C86 1.442 . S
C85 H112 0.930 . S
C86 C85 1.442 . S
C86 C87 1.381 . S
C86 H113 0.931 . S
C87 C86 1.381 . S
C87 C88 1.321 . S
C88 C87 1.321 . S
C88 C89 1.403 . S
C88 H114 0.934 . S
C89 C84 1.413 . S
C89 C88 1.403 . S
C89 H115 0.930 . S
C90 O104 1.275 . S
C90 O105 1.256 1_455 S
C91 O106 1.259 . S
C91 O107 1.268 . S
C92 Ho81 2.811 . S
C92 C93 1.488 . S
C92 O108 1.215 . S
C92 O109 1.289 . S
C93 C92 1.488 . S
C93 C94 1.348 . S
C93 C98 1.413 . S
C94 C93 1.348 . S
C94 C95 1.442 . S
C94 H116 0.930 . S
C95 C94 1.442 . S
C95 C96 1.381 . S
C95 H117 0.931 . S
C96 C95 1.381 . S
C96 C97 1.321 . S
C97 C96 1.321 . S
C97 C98 1.403 . S
C97 H118 0.934 . S
C98 C93 1.413 . S
C98 C97 1.403 . S
C98 H119 0.930 . S
C99 O110 1.275 . S
C99 O111 1.256 1_655 S
O100 Ho80 2.327 . S
O100 C82 1.250 1_455 S
O101 Ho81 2.346 . S
O101 C82 1.268 . S
O102 Ho80 2.378 . S
O102 C83 1.215 . S
O103 Ho80 2.524 . S
O103 C83 1.289 . S
O104 Ho80 2.381 . S
O104 C90 1.275 . S
O105 Ho80 2.669 1_655 S
O105 Ho81 2.305 . S
O105 C90 1.256 1_655 S
O106 Ho81 2.322 1_455 S
O106 C91 1.259 . S
O107 Ho80 2.346 . S
O107 C91 1.268 . S
O108 Ho81 2.378 . S
O108 C92 1.215 . S
O109 Ho81 2.524 . S
O109 C92 1.289 . S
O110 Ho81 2.381 . S
O110 C99 1.275 . S
O111 Ho80 2.305 . S
O111 Ho81 2.669 1_455 S
O111 C99 1.256 1_455 S
H112 C85 0.930 . S
H113 C86 0.931 . S
H114 C88 0.934 . S
H115 C89 0.930 . S
H116 C94 0.930 . S
H117 C95 0.931 . S
H118 C97 0.934 . S
H119 C98 0.930 . S
Ho120 C123 2.811 . S
Ho120 O140 2.322 1_545 S
Ho120 O142 2.378 . S
Ho120 O143 2.524 . S
Ho120 O144 2.381 . S
Ho120 O145 2.660 1_544 S
Ho120 O147 2.346 1_554 S
Ho120 O151 2.305 . S
Ho121 C132 2.811 . S
Ho121 O141 2.346 1_556 S
Ho121 O145 2.309 . S
Ho121 O146 2.322 1_565 S
Ho121 O148 2.378 . S
Ho121 O149 2.524 . S
Ho121 O150 2.381 . S
Ho121 O151 2.669 1_566 S
C122 O140 1.259 . S
C122 O141 1.268 . S
C123 Ho120 2.811 . S
C123 C124 1.488 . S
C123 O142 1.215 . S
C123 O143 1.289 . S
C124 C123 1.488 . S
C124 C125 1.348 . S
C124 C129 1.413 . S
C125 C124 1.348 . S
C125 C126 1.442 . S
C125 H152 0.930 . S
C126 C125 1.442 . S
C126 C127 1.381 . S
C126 H153 0.931 . S
C127 C126 1.381 . S
C127 C128 1.321 . S
C128 C127 1.321 . S
C128 C129 1.403 . S
C128 H154 0.934 . S
C129 C124 1.413 . S
C129 C128 1.403 . S
C129 H155 0.930 . S
C130 O144 1.275 . S
C130 O145 1.251 1_544 S
C131 O146 1.259 . S
C131 O147 1.268 . S
C132 Ho121 2.811 . S
C132 C133 1.488 . S
C132 O148 1.215 . S
C132 O149 1.289 . S
C133 C132 1.488 . S
C133 C134 1.348 . S
C133 C138 1.413 . S
C134 C133 1.348 . S
C134 C135 1.442 . S
C134 H156 0.930 . S
C135 C134 1.442 . S
C135 C136 1.381 . S
C135 H157 0.931 . S
C136 C135 1.381 . S
C136 C137 1.321 . S
C137 C136 1.321 . S
C137 C138 1.403 . S
C137 H158 0.934 . S
C138 C133 1.413 . S
C138 C137 1.403 . S
C138 H159 0.930 . S
C139 O150 1.275 1_554 S
C139 O151 1.256 1_565 S
O140 Ho120 2.322 1_565 S
O140 C122 1.259 . S
O141 Ho121 2.346 1_554 S
O141 C122 1.268 . S
O142 Ho120 2.378 . S
O142 C123 1.215 . S
O143 Ho120 2.524 . S
O143 C123 1.289 . S
O144 Ho120 2.381 . S
O144 C130 1.275 . S
O145 Ho120 2.660 1_566 S
O145 Ho121 2.309 . S
O145 C130 1.251 1_566 S
O146 Ho121 2.322 1_545 S
O146 C131 1.259 . S
O147 Ho120 2.346 1_556 S
O147 C131 1.268 . S
O148 Ho121 2.378 . S
O148 C132 1.215 . S
O149 Ho121 2.524 . S
O149 C132 1.289 . S
O150 Ho121 2.381 . S
O150 C139 1.275 1_556 S
O151 Ho120 2.305 . S
O151 Ho121 2.669 1_544 S
O151 C139 1.256 1_545 S
H152 C125 0.930 . S
H153 C126 0.931 . S
H154 C128 0.934 . S
H155 C129 0.930 . S
H156 C134 0.930 . S
H157 C135 0.931 . S
H158 C137 0.934 . S
H159 C138 0.930 . S
Ho160 C163 2.811 . S
Ho160 O180 2.322 . S
Ho160 O182 2.378 . S
Ho160 O183 2.524 . S
Ho160 O184 2.381 . S
Ho160 O185 2.669 . S
Ho160 O187 2.346 . S
Ho160 O191 2.305 . S
Ho161 C172 2.811 . S
Ho161 O181 2.346 . S
Ho161 O185 2.305 . S
Ho161 O186 2.322 . S
Ho161 O188 2.378 . S
Ho161 O189 2.524 1_655 S
Ho161 O190 2.381 . S
Ho161 O191 2.669 . S
C162 O180 1.259 . S
C162 O181 1.268 . S
C163 Ho160 2.811 . S
C163 C164 1.488 . S
C163 O182 1.215 . S
C163 O183 1.289 . S
C164 C163 1.488 . S
C164 C165 1.348 . S
C164 C169 1.413 . S
C165 C164 1.348 . S
C165 C166 1.442 . S
C165 H192 0.930 . S
C166 C165 1.442 . S
C166 C167 1.381 . S
C166 H193 0.931 . S
C167 C166 1.381 . S
C167 C168 1.321 . S
C168 C167 1.321 . S
C168 C169 1.403 . S
C168 H194 0.934 . S
C169 C164 1.413 . S
C169 C168 1.403 . S
C169 H195 0.930 . S
C170 O184 1.275 1_455 S
C170 O185 1.256 1_455 S
C171 O186 1.259 . S
C171 O187 1.268 . S
C172 Ho161 2.811 . S
C172 C173 1.488 1_655 S
C172 O188 1.215 . S
C172 O189 1.289 1_655 S
C173 C172 1.488 1_455 S
C173 C174 1.348 . S
C173 C178 1.413 1_455 S
C174 C173 1.348 . S
C174 C175 1.442 . S
C174 H196 0.930 . S
C175 C174 1.442 . S
C175 C176 1.381 . S
C175 H197 0.931 . S
C176 C175 1.381 . S
C176 C177 1.321 . S
C177 C176 1.321 . S
C177 C178 1.403 1_455 S
C177 H198 0.934 1_455 S
C178 C173 1.413 1_655 S
C178 C177 1.403 1_655 S
C178 H199 0.930 . S
C179 O190 1.275 . S
C179 O191 1.256 . S
O180 Ho160 2.322 . S
O180 C162 1.259 . S
O181 Ho161 2.346 . S
O181 C162 1.268 . S
O182 Ho160 2.378 . S
O182 C163 1.215 . S
O183 Ho160 2.524 . S
O183 C163 1.289 . S
O184 Ho160 2.381 . S
O184 C170 1.275 1_655 S
O185 Ho160 2.669 . S
O185 Ho161 2.305 . S
O185 C170 1.256 1_655 S
O186 Ho161 2.322 . S
O186 C171 1.259 . S
O187 Ho160 2.346 . S
O187 C171 1.268 . S
O188 Ho161 2.378 . S
O188 C172 1.215 . S
O189 Ho161 2.524 1_455 S
O189 C172 1.289 1_455 S
O190 Ho161 2.381 . S
O190 C179 1.275 . S
O191 Ho160 2.305 . S
O191 Ho161 2.669 . S
O191 C179 1.256 . S
H192 C165 0.930 . S
H193 C166 0.931 . S
H194 C168 0.934 . S
H195 C169 0.930 . S
H196 C174 0.930 . S
H197 C175 0.931 . S
H198 C177 0.934 1_655 S
H199 C178 0.930 . S
Ho200 C203 2.811 . S
Ho200 O220 2.322 . S
Ho200 O222 2.378 . S
Ho200 O223 2.524 . S
Ho200 O224 2.381 . S
Ho200 O225 2.669 . S
Ho200 O227 2.346 . S
Ho200 O231 2.305 . S
Ho201 C212 2.811 . S
Ho201 O221 2.346 . S
Ho201 O225 2.305 . S
Ho201 O226 2.322 . S
Ho201 O228 2.378 . S
Ho201 O229 2.524 1_565 S
Ho201 O230 2.381 . S
Ho201 O231 2.669 . S
C202 O220 1.259 . S
C202 O221 1.268 . S
C203 Ho200 2.811 . S
C203 C204 1.488 . S
C203 O222 1.215 . S
C203 O223 1.289 . S
C204 C203 1.488 . S
C204 C205 1.348 . S
C204 C209 1.413 . S
C205 C204 1.348 . S
C205 C206 1.442 . S
C205 H232 0.930 . S
C206 C205 1.442 . S
C206 C207 1.381 . S
C206 H233 0.931 . S
C207 C206 1.381 . S
C207 C208 1.321 1_455 S
C208 C207 1.321 1_655 S
C208 C209 1.403 1_655 S
C208 H234 0.934 . S
C209 C204 1.413 . S
C209 C208 1.403 1_455 S
C209 H235 0.930 . S
C210 O224 1.273 1_545 S
C210 O225 1.242 1_545 S
C211 O226 1.259 . S
C211 O227 1.268 . S
C212 Ho201 2.811 . S
C212 C213 1.488 1_565 S
C212 O228 1.215 . S
C212 O229 1.289 1_565 S
C213 C212 1.488 1_545 S
C213 C214 1.348 . S
C213 C218 1.413 1_545 S
C214 C213 1.348 . S
C214 C215 1.442 . S
C214 H236 0.930 . S
C215 C214 1.442 . S
C215 C216 1.381 . S
C215 H237 0.931 . S
C216 C215 1.381 . S
C216 C217 1.328 . S
C217 C216 1.328 . S
C217 C218 1.402 1_545 S
C217 H238 0.929 1_545 S
C218 C213 1.413 1_565 S
C218 C217 1.402 1_565 S
C218 H239 0.930 . S
C219 O230 1.275 . S
C219 O231 1.256 . S
O220 Ho200 2.322 . S
O220 C202 1.259 . S
O221 Ho201 2.346 . S
O221 C202 1.268 . S
O222 Ho200 2.378 . S
O222 C203 1.215 . S
O223 Ho200 2.524 . S
O223 C203 1.289 . S
O224 Ho200 2.381 . S
O224 C210 1.273 1_565 S
O225 Ho200 2.669 . S
O225 Ho201 2.305 . S
O225 C210 1.242 1_565 S
O226 Ho201 2.322 . S
O226 C211 1.259 . S
O227 Ho200 2.346 . S
O227 C211 1.268 . S
O228 Ho201 2.378 . S
O228 C212 1.215 . S
O229 Ho201 2.524 1_545 S
O229 C212 1.289 1_545 S
O230 Ho201 2.381 . S
O230 C219 1.275 . S
O231 Ho200 2.305 . S
O231 Ho201 2.669 . S
O231 C219 1.256 . S
H232 C205 0.930 . S
H233 C206 0.931 . S
H234 C208 0.934 . S
H235 C209 0.930 . S
H236 C214 0.930 . S
H237 C215 0.931 . S
H238 C217 0.929 1_565 S
H239 C218 0.930 . S
H240 C248 0.950 . S
H241 C253 0.950 . S
H242 C250 0.950 1_565 S
H243 C252 0.950 . S
H244 C254 0.950 . S
H245 C256 0.950 . S
H246 C258 0.956 . S
H247 C259 0.960 . S
C248 H240 0.950 . S
C248 C249 1.386 1_566 S
C248 C250 1.391 1_665 S
C249 C248 1.386 1_544 S
C249 C253 1.393 . S
C250 H242 0.950 1_545 S
C250 C248 1.391 1_445 S
C250 C251 1.400 1_556 S
C251 C250 1.400 1_554 S
C251 C252 1.398 . S
C251 C257 1.491 . S
C252 H243 0.950 . S
C252 C251 1.398 . S
C252 C253 1.391 1_455 S
C253 H241 0.950 . S
C253 C249 1.393 . S
C253 C252 1.391 1_655 S
C254 H244 0.950 . S
C254 C255 1.386 . S
C254 C256 1.391 . S
C255 C254 1.386 . S
C255 C259 1.385 1_554 S
C256 H245 0.950 . S
C256 C254 1.391 . S
C256 C257 1.400 . S
C257 C251 1.491 . S
C257 C256 1.400 . S
C257 C258 1.393 1_554 S
C258 H246 0.956 . S
C258 C257 1.393 1_556 S
C258 C259 1.391 . S
C259 H247 0.960 . S
C259 C255 1.385 1_556 S
C259 C258 1.391 . S
H260 C268 0.950 . S
H261 C273 0.950 . S
H262 C270 0.950 1_655 S
H263 C272 0.950 . S
H264 C274 0.950 . S
H265 C276 0.950 . S
H266 C278 0.950 . S
H267 C279 0.950 . S
C268 H260 0.950 . S
C268 C269 1.386 1_655 S
C268 C270 1.391 1_665 S
C269 C268 1.386 1_455 S
C269 C273 1.393 . S
C270 H262 0.950 1_455 S
C270 C268 1.391 1_445 S
C270 C271 1.400 . S
C271 C270 1.400 . S
C271 C272 1.398 . S
C271 C277 1.491 . S
C272 H263 0.950 . S
C272 C271 1.398 . S
C272 C273 1.391 1_545 S
C273 H261 0.950 . S
C273 C269 1.393 . S
C273 C272 1.391 1_565 S
C274 H264 0.950 . S
C274 C275 1.386 . S
C274 C276 1.391 . S
C275 C274 1.386 . S
C275 C279 1.393 . S
C276 H265 0.950 . S
C276 C274 1.391 . S
C276 C277 1.400 . S
C277 C271 1.491 . S
C277 C276 1.400 . S
C277 C278 1.398 . S
C278 H266 0.950 . S
C278 C277 1.398 . S
C278 C279 1.391 . S
C279 H267 0.950 . S
C279 C275 1.393 . S
C279 C278 1.391 . S
H280 C288 0.950 . S
H281 C293 0.950 . S
H282 C290 0.950 . S
H283 C292 0.950 1_565 S
H284 C294 0.950 . S
H285 C296 0.950 1_655 S
H286 C298 0.950 . S
H287 C299 0.950 . S
C288 H280 0.950 . S
C288 C289 1.386 . S
C288 C290 1.391 . S
C289 C288 1.386 . S
C289 C293 1.393 1_545 S
C290 H282 0.950 . S
C290 C288 1.391 . S
C290 C291 1.400 . S
C291 C290 1.400 . S
C291 C292 1.398 . S
C291 C297 1.491 . S
C292 H283 0.950 1_545 S
C292 C291 1.398 . S
C292 C293 1.391 1_545 S
C293 H281 0.950 . S
C293 C289 1.393 1_565 S
C293 C292 1.391 1_565 S
C294 H284 0.950 . S
C294 C295 1.386 1_655 S
C294 C296 1.391 1_655 S
C295 C294 1.386 1_455 S
C295 C299 1.393 . S
C296 H285 0.950 1_455 S
C296 C294 1.391 1_455 S
C296 C297 1.400 . S
C297 C291 1.491 . S
C297 C296 1.400 . S
C297 C298 1.398 . S
C298 H286 0.950 . S
C298 C297 1.398 . S
C298 C299 1.391 . S
C299 H287 0.950 . S
C299 C295 1.393 . S
C299 C298 1.391 . S
H300 C308 0.950 . S
H301 C313 0.950 . S
H302 C310 0.950 . S
H303 C312 0.950 . S
H304 C314 0.950 . S
H305 C316 0.950 . S
H306 C318 0.950 . S
H307 C319 0.950 . S
C308 H300 0.950 . S
C308 C309 1.386 . S
C308 C310 1.391 . S
C309 C308 1.386 . S
C309 C313 1.393 . S
C310 H302 0.950 . S
C310 C308 1.391 . S
C310 C311 1.400 . S
C311 C310 1.400 . S
C311 C312 1.398 . S
C311 C317 1.491 . S
C312 H303 0.950 . S
C312 C311 1.398 . S
C312 C313 1.391 . S
C313 H301 0.950 . S
C313 C309 1.393 . S
C313 C312 1.391 . S
C314 H304 0.950 . S
C314 C315 1.386 . S
C314 C316 1.391 . S
C315 C314 1.386 . S
C315 C319 1.393 . S
C316 H305 0.950 . S
C316 C314 1.391 . S
C316 C317 1.400 . S
C317 C311 1.491 . S
C317 C316 1.400 . S
C317 C318 1.398 . S
C318 H306 0.950 . S
C318 C317 1.398 . S
C318 C319 1.391 . S
C319 H307 0.950 . S
C319 C315 1.393 . S
C319 C318 1.391 . S
H320 C328 0.950 . S
H321 C333 0.950 . S
H322 C330 0.950 . S
H323 C332 0.950 . S
H324 C334 0.950 . S
H325 C336 0.950 . S
H326 C338 0.950 1_455 S
H327 C339 0.950 . S
C328 H320 0.950 . S
C328 C329 1.386 . S
C328 C330 1.391 . S
C329 C328 1.386 . S
C329 C333 1.393 . S
C330 H322 0.950 . S
C330 C328 1.391 . S
C330 C331 1.400 . S
C331 C330 1.400 . S
C331 C332 1.398 . S
C331 C337 1.491 1_455 S
C332 H323 0.950 . S
C332 C331 1.398 . S
C332 C333 1.391 . S
C333 H321 0.950 . S
C333 C329 1.393 . S
C333 C332 1.391 . S
C334 H324 0.950 . S
C334 C335 1.386 . S
C334 C336 1.391 . S
C335 C334 1.386 . S
C335 C339 1.393 . S
C336 H325 0.950 . S
C336 C334 1.391 . S
C336 C337 1.400 . S
C337 C331 1.491 1_655 S
C337 C336 1.400 . S
C337 C338 1.398 . S
C338 H326 0.950 1_655 S
C338 C337 1.398 . S
C338 C339 1.391 . S
C339 H327 0.950 . S
C339 C335 1.393 . S
C339 C338 1.391 . S
H340 C348 0.950 . S
H341 C353 0.950 . S
H342 C350 0.950 . S
H343 C352 0.950 . S
H344 C354 0.950 . S
H345 C356 0.950 . S
H346 C358 0.950 1_545 S
H347 C359 0.950 . S
C348 H340 0.950 . S
C348 C349 1.386 . S
C348 C350 1.391 . S
C349 C348 1.386 . S
C349 C353 1.393 . S
C350 H342 0.950 . S
C350 C348 1.391 . S
C350 C351 1.400 . S
C351 C350 1.400 . S
C351 C352 1.398 . S
C351 C357 1.491 1_545 S
C352 H343 0.950 . S
C352 C351 1.398 . S
C352 C353 1.391 . S
C353 H341 0.950 . S
C353 C349 1.393 . S
C353 C352 1.391 . S
C354 H344 0.950 . S
C354 C355 1.386 . S
C354 C356 1.391 . S
C355 C354 1.386 . S
C355 C359 1.393 . S
C356 H345 0.950 . S
C356 C354 1.391 . S
C356 C357 1.400 . S
C357 C351 1.491 1_565 S
C357 C356 1.400 . S
C357 C358 1.398 . S
C358 H346 0.950 1_565 S
C358 C357 1.398 . S
C358 C359 1.391 . S
C359 H347 0.950 . S
C359 C355 1.393 . S
C359 C358 1.391 . S
H360 C368 0.950 . S
H361 C373 0.950 . S
H362 C370 0.950 . S
H363 C372 0.950 . S
H364 C374 0.950 1_455 S
H365 C376 0.950 . S
H366 C378 0.950 . S
H367 C379 0.950 . S
C368 H360 0.950 . S
C368 C369 1.386 . S
C368 C370 1.391 . S
C369 C368 1.386 . S
C369 C373 1.393 . S
C370 H362 0.950 . S
C370 C368 1.391 . S
C370 C371 1.400 . S
C371 C370 1.400 . S
C371 C372 1.398 . S
C371 C377 1.491 . S
C372 H363 0.950 . S
C372 C371 1.398 . S
C372 C373 1.391 . S
C373 H361 0.950 . S
C373 C369 1.393 . S
C373 C372 1.391 . S
C374 H364 0.950 1_655 S
C374 C375 1.385 1_655 S
C374 C376 1.391 . S
C375 C374 1.385 1_455 S
C375 C379 1.388 1_455 S
C376 H365 0.950 . S
C376 C374 1.391 . S
C376 C377 1.400 . S
C377 C371 1.491 . S
C377 C376 1.400 . S
C377 C378 1.398 . S
C378 H366 0.950 . S
C378 C377 1.398 . S
C378 C379 1.391 . S
C379 H367 0.950 . S
C379 C375 1.388 1_655 S
C379 C378 1.391 . S
H380 C388 0.950 . S
H381 C393 0.950 . S
H382 C390 0.950 . S
H383 C392 0.950 . S
H384 C394 0.950 . S
H385 C396 0.950 . S
H386 C398 0.950 . S
H387 C399 0.950 . S
C388 H380 0.950 . S
C388 C389 1.386 . S
C388 C390 1.391 . S
C389 C388 1.386 . S
C389 C393 1.393 . S
C390 H382 0.950 . S
C390 C388 1.391 . S
C390 C391 1.400 . S
C391 C390 1.400 . S
C391 C392 1.398 . S
C391 C397 1.491 . S
C392 H383 0.950 . S
C392 C391 1.398 . S
C392 C393 1.391 . S
C393 H381 0.950 . S
C393 C389 1.393 . S
C393 C392 1.391 . S
C394 H384 0.950 . S
C394 C395 1.392 . S
C394 C396 1.391 . S
C395 C394 1.392 . S
C395 C399 1.389 1_565 S
C396 H385 0.950 . S
C396 C394 1.391 . S
C396 C397 1.400 . S
C397 C391 1.491 . S
C397 C396 1.400 . S
C397 C398 1.398 . S
C398 H386 0.950 . S
C398 C397 1.398 . S
C398 C399 1.391 1_565 S
C399 H387 0.950 . S
C399 C395 1.389 1_545 S
C399 C398 1.391 1_545 S
H400 C408 0.950 . S
H401 C413 0.950 . S
H402 C410 0.950 . S
H403 C412 0.950 . S
H404 C414 0.950 . S
H405 C416 0.950 . S
H406 C418 0.950 . S
H407 C419 0.950 . S
C408 H400 0.950 . S
C408 C409 1.386 . S
C408 C410 1.391 . S
C409 C408 1.386 . S
C409 C413 1.393 . S
C410 H402 0.950 . S
C410 C408 1.391 . S
C410 C411 1.400 . S
C411 C410 1.400 . S
C411 C412 1.398 . S
C411 C417 1.491 . S
C412 H403 0.950 . S
C412 C411 1.398 . S
C412 C413 1.391 . S
C413 H401 0.950 . S
C413 C409 1.393 . S
C413 C412 1.391 . S
C414 H404 0.950 . S
C414 C415 1.386 . S
C414 C416 1.391 . S
C415 C414 1.386 . S
C415 C419 1.393 . S
C416 H405 0.950 . S
C416 C414 1.391 . S
C416 C417 1.400 . S
C417 C411 1.491 . S
C417 C416 1.400 . S
C417 C418 1.398 . S
C418 H406 0.950 . S
C418 C417 1.398 . S
C418 C419 1.391 . S
C419 H407 0.950 . S
C419 C415 1.393 . S
C419 C418 1.391 . S
H420 C428 0.950 . S
H421 C433 0.950 . S
H422 C430 0.950 . S
H423 C432 0.959 . S
H424 C434 0.950 . S
H425 C436 0.950 . S
H426 C438 0.950 1_565 S
H427 C439 0.950 . S
C428 H420 0.950 . S
C428 C429 1.386 . S
C428 C430 1.391 . S
C429 C428 1.386 . S
C429 C433 1.393 . S
C430 H422 0.950 . S
C430 C428 1.391 . S
C430 C431 1.400 . S
C431 C430 1.400 . S
C431 C432 1.398 . S
C431 C437 1.491 . S
C432 H423 0.959 . S
C432 C431 1.398 . S
C432 C433 1.391 . S
C433 H421 0.950 . S
C433 C429 1.393 . S
C433 C432 1.391 . S
C434 H424 0.950 . S
C434 C435 1.385 1_545 S
C434 C436 1.391 . S
C435 C434 1.385 1_565 S
C435 C439 1.393 . S
C436 H425 0.950 . S
C436 C434 1.391 . S
C436 C437 1.400 . S
C437 C431 1.491 . S
C437 C436 1.400 . S
C437 C438 1.398 . S
C438 H426 0.950 1_545 S
C438 C437 1.398 . S
C438 C439 1.391 1_545 S
C439 H427 0.950 . S
C439 C435 1.393 . S
C439 C438 1.391 1_565 S
H440 C448 0.950 . S
H441 C453 0.950 . S
H442 C450 0.950 . S
H443 C452 0.950 . S
H444 C454 0.950 . S
H445 C456 0.950 . S
H446 C458 0.950 . S
H447 C459 0.950 . S
C448 H440 0.950 . S
C448 C449 1.386 . S
C448 C450 1.391 . S
C449 C448 1.386 . S
C449 C453 1.393 . S
C450 H442 0.950 . S
C450 C448 1.391 . S
C450 C451 1.400 . S
C451 C450 1.400 . S
C451 C452 1.398 . S
C451 C457 1.491 . S
C452 H443 0.950 . S
C452 C451 1.398 . S
C452 C453 1.391 . S
C453 H441 0.950 . S
C453 C449 1.393 . S
C453 C452 1.391 . S
C454 H444 0.950 . S
C454 C455 1.386 . S
C454 C456 1.391 . S
C455 C454 1.386 . S
C455 C459 1.393 . S
C456 H445 0.950 . S
C456 C454 1.391 . S
C456 C457 1.400 . S
C457 C451 1.491 . S
C457 C456 1.400 . S
C457 C458 1.398 . S
C458 H446 0.950 . S
C458 C457 1.398 . S
C458 C459 1.391 . S
C459 H447 0.950 . S
C459 C455 1.393 . S
C459 C458 1.391 . S
H460 C468 0.950 . S
H461 C473 0.950 . S
H462 C470 0.950 . S
H463 C472 0.950 . S
H464 C474 0.950 . S
H465 C476 0.950 . S
H466 C478 0.950 . S
H467 C479 0.950 . S
C468 H460 0.950 . S
C468 C469 1.386 1_655 S
C468 C470 1.391 1_655 S
C469 C468 1.386 1_455 S
C469 C473 1.393 . S
C470 H462 0.950 . S
C470 C468 1.391 1_455 S
C470 C471 1.400 . S
C471 C470 1.400 . S
C471 C472 1.398 . S
C471 C477 1.491 . S
C472 H463 0.950 . S
C472 C471 1.398 . S
C472 C473 1.391 . S
C473 H461 0.950 . S
C473 C469 1.393 . S
C473 C472 1.391 . S
C474 H464 0.950 . S
C474 C475 1.386 . S
C474 C476 1.391 . S
C475 C474 1.386 . S
C475 C479 1.393 . S
C476 H465 0.950 . S
C476 C474 1.391 . S
C476 C477 1.400 . S
C477 C471 1.491 . S
C477 C476 1.400 . S
C477 C478 1.398 . S
C478 H466 0.950 . S
C478 C477 1.398 . S
C478 C479 1.391 . S
C479 H467 0.950 . S
C479 C475 1.393 . S
C479 C478 1.391 . S
H480 C488 0.950 . S
H481 C493 0.950 . S
H482 C490 0.950 . S
H483 C492 0.950 . S
H484 C494 0.950 . S
H485 C496 0.950 . S
H486 C498 0.950 . S
H487 C499 0.950 . S
C488 H480 0.950 . S
C488 C489 1.386 . S
C488 C490 1.391 . S
C489 C488 1.386 . S
C489 C493 1.393 . S
C490 H482 0.950 . S
C490 C488 1.391 . S
C490 C491 1.400 . S
C491 C490 1.400 . S
C491 C492 1.398 . S
C491 C497 1.491 . S
C492 H483 0.950 . S
C492 C491 1.398 . S
C492 C493 1.391 . S
C493 H481 0.950 . S
C493 C489 1.393 . S
C493 C492 1.391 . S
C494 H484 0.950 . S
C494 C495 1.386 . S
C494 C496 1.391 . S
C495 C494 1.386 . S
C495 C499 1.393 . S
C496 H485 0.950 . S
C496 C494 1.391 . S
C496 C497 1.400 . S
C497 C491 1.491 . S
C497 C496 1.400 . S
C497 C498 1.398 . S
C498 H486 0.950 . S
C498 C497 1.398 . S
C498 C499 1.391 . S
C499 H487 0.950 . S
C499 C495 1.393 . S
C499 C498 1.391 . S
H500 C508 0.950 . S
H501 C513 0.950 . S
H502 C510 0.950 . S
H503 C512 0.950 . S
H504 C514 0.950 . S
H505 C516 0.950 . S
H506 C518 0.950 . S
H507 C519 0.950 . S
C508 H500 0.950 . S
C508 C509 1.386 . S
C508 C510 1.391 . S
C509 C508 1.386 . S
C509 C513 1.393 . S
C510 H502 0.950 . S
C510 C508 1.391 . S
C510 C511 1.400 . S
C511 C510 1.400 . S
C511 C512 1.398 . S
C511 C517 1.491 . S
C512 H503 0.950 . S
C512 C511 1.398 . S
C512 C513 1.391 . S
C513 H501 0.950 . S
C513 C509 1.393 . S
C513 C512 1.391 . S
C514 H504 0.950 . S
C514 C515 1.386 . S
C514 C516 1.391 . S
C515 C514 1.386 . S
C515 C519 1.393 . S
C516 H505 0.950 . S
C516 C514 1.391 . S
C516 C517 1.400 . S
C517 C511 1.491 . S
C517 C516 1.400 . S
C517 C518 1.398 . S
C518 H506 0.950 . S
C518 C517 1.398 . S
C518 C519 1.391 . S
C519 H507 0.950 . S
C519 C515 1.393 . S
C519 C518 1.391 . S
H520 C528 0.950 . S
H521 C533 0.950 . S
H522 C530 0.950 . S
H523 C532 0.950 . S
H524 C534 0.950 . S
H525 C536 0.950 . S
H526 C538 0.950 . S
H527 C539 0.950 . S
C528 H520 0.950 . S
C528 C529 1.386 . S
C528 C530 1.391 . S
C529 C528 1.386 . S
C529 C533 1.393 . S
C530 H522 0.950 . S
C530 C528 1.391 . S
C530 C531 1.400 . S
C531 C530 1.400 . S
C531 C532 1.398 . S
C531 C537 1.491 . S
C532 H523 0.950 . S
C532 C531 1.398 . S
C532 C533 1.391 . S
C533 H521 0.950 . S
C533 C529 1.393 . S
C533 C532 1.391 . S
C534 H524 0.950 . S
C534 C535 1.386 . S
C534 C536 1.391 . S
C535 C534 1.386 . S
C535 C539 1.393 . S
C536 H525 0.950 . S
C536 C534 1.391 . S
C536 C537 1.400 . S
C537 C531 1.491 . S
C537 C536 1.400 . S
C537 C538 1.398 . S
C538 H526 0.950 . S
C538 C537 1.398 . S
C538 C539 1.391 . S
C539 H527 0.950 . S
C539 C535 1.393 . S
C539 C538 1.391 . S
H540 C548 0.950 . S
H541 C553 0.950 . S
H542 C550 0.950 . S
H543 C552 0.950 . S
H544 C554 0.950 . S
H545 C556 0.950 . S
H546 C558 0.950 . S
H547 C559 0.950 . S
C548 H540 0.950 . S
C548 C549 1.386 . S
C548 C550 1.391 . S
C549 C548 1.386 . S
C549 C553 1.393 . S
C550 H542 0.950 . S
C550 C548 1.391 . S
C550 C551 1.400 . S
C551 C550 1.400 . S
C551 C552 1.398 . S
C551 C557 1.491 . S
C552 H543 0.950 . S
C552 C551 1.398 . S
C552 C553 1.391 . S
C553 H541 0.950 . S
C553 C549 1.393 . S
C553 C552 1.391 . S
C554 H544 0.950 . S
C554 C555 1.386 . S
C554 C556 1.391 . S
C555 C554 1.386 . S
C555 C559 1.393 . S
C556 H545 0.950 . S
C556 C554 1.391 . S
C556 C557 1.400 . S
C557 C551 1.491 . S
C557 C556 1.400 . S
C557 C558 1.398 . S
C558 H546 0.950 . S
C558 C557 1.398 . S
C558 C559 1.391 . S
C559 H547 0.950 . S
C559 C555 1.393 . S
C559 C558 1.391 . S
H560 C568 0.950 . S
H561 C573 0.950 . S
H562 C570 0.950 . S
H563 C572 0.950 . S
H564 C574 0.950 . S
H565 C576 0.950 . S
H566 C578 0.950 1_655 S
H567 C579 0.950 1_655 S
C568 H560 0.950 . S
C568 C569 1.386 . S
C568 C570 1.391 . S
C569 C568 1.386 . S
C569 C573 1.393 1_655 S
C570 H562 0.950 . S
C570 C568 1.391 . S
C570 C571 1.400 1_655 S
C571 C570 1.400 1_455 S
C571 C572 1.398 . S
C571 C577 1.491 . S
C572 H563 0.950 . S
C572 C571 1.398 . S
C572 C573 1.391 . S
C573 H561 0.950 . S
C573 C569 1.393 1_455 S
C573 C572 1.391 . S
C574 H564 0.950 . S
C574 C575 1.386 . S
C574 C576 1.391 . S
C575 C574 1.386 . S
C575 C579 1.393 . S
C576 H565 0.950 . S
C576 C574 1.391 . S
C576 C577 1.400 . S
C577 C571 1.491 . S
C577 C576 1.400 . S
C577 C578 1.398 . S
C578 H566 0.950 1_455 S
C578 C577 1.398 . S
C578 C579 1.391 . S
C579 H567 0.950 1_455 S
C579 C575 1.393 . S
C579 C578 1.391 . S
H580 C588 0.950 . S
H581 C593 0.950 . S
H582 C590 0.950 . S
H583 C592 0.950 . S
H584 C594 0.950 . S
H585 C596 0.950 . S
H586 C598 0.950 . S
H587 C599 0.950 . S
C588 H580 0.950 . S
C588 C589 1.386 1_545 S
C588 C590 1.391 . S
C589 C588 1.386 1_565 S
C589 C593 1.393 . S
C590 H582 0.950 . S
C590 C588 1.391 . S
C590 C591 1.400 . S
C591 C590 1.400 . S
C591 C592 1.398 . S
C591 C597 1.491 . S
C592 H583 0.950 . S
C592 C591 1.398 . S
C592 C593 1.391 1_545 S
C593 H581 0.950 . S
C593 C589 1.393 . S
C593 C592 1.391 1_565 S
C594 H584 0.950 . S
C594 C595 1.386 . S
C594 C596 1.391 . S
C595 C594 1.386 . S
C595 C599 1.393 . S
C596 H585 0.950 . S
C596 C594 1.391 . S
C596 C597 1.400 . S
C597 C591 1.491 . S
C597 C596 1.400 . S
C597 C598 1.398 . S
C598 H586 0.950 . S
C598 C597 1.398 . S
C598 C599 1.391 . S
C599 H587 0.950 . S
C599 C595 1.393 . S
C599 C598 1.391 . S
C249 C130 0.611 . S
C255 C10 0.578 . S
C269 C170 0.590 . S
C275 C50 0.624 . S
C289 C210 0.627 . S
C295 C90 0.584 . S
C309 C16 0.776 . S
C315 C87 0.744 . S
C329 C56 0.713 . S
C335 C127 0.697 . S
C349 C96 0.706 . S
C355 C167 0.697 . S
C369 C136 0.707 . S
C375 C207 0.740 . S
C389 C176 0.713 . S
C395 C7 0.694 1_565 S
C409 C216 0.713 . S
C415 C47 0.746 . S
C429 C19 1.214 . S
C435 C139 1.231 . S
C449 C59 1.221 . S
C455 C179 1.209 . S
C469 C99 1.224 1_455 S
C475 C219 1.213 . S
C489 C2 4.065 . S
C495 C51 4.122 . S
C509 C42 4.066 . S
C515 C91 4.122 . S
C529 C82 4.062 . S
C535 C131 4.121 . S
C549 C122 4.066 . S
C555 C171 4.122 . S
C569 C162 4.065 . S
C575 C211 4.122 . S
C589 C202 4.064 . S
C595 C11 4.119 . S
