# Generated by pormake.
# Topology uov, (4)-cn, num edge types: 1
# Building blocks:
#     Node 0, Type 0, BuildingBlock: QUQFOY_clean_sbu_1, # of connection points: 4
#     Node 1, Type 0, BuildingBlock: QUQFOY_clean_sbu_1, # of connection points: 4
#     Node 2, Type 0, BuildingBlock: QUQFOY_clean_sbu_1, # of connection points: 4
#     Node 3, Type 0, BuildingBlock: QUQFOY_clean_sbu_1, # of connection points: 4
#     Node 4, Type 0, BuildingBlock: QUQFOY_clean_sbu_1, # of connection points: 4
#     Node 5, Type 0, BuildingBlock: QUQFOY_clean_sbu_1, # of connection points: 4
#     Node 6, Type 0, BuildingBlock: QUQFOY_clean_sbu_1, # of connection points: 4
#     Node 7, Type 0, BuildingBlock: QUQFOY_clean_sbu_1, # of connection points: 4
#     Edge 8, Type (0, 0), BuildingBlock: FUNLAD_clean_linker_1, # of connection points: 2
#     Edge 9, Type (0, 0), BuildingBlock: FUNLAD_clean_linker_1, # of connection points: 2
#     Edge 10, Type (0, 0), BuildingBlock: FUNLAD_clean_linker_1, # of connection points: 2
#     Edge 11, Type (0, 0), BuildingBlock: FUNLAD_clean_linker_1, # of connection points: 2
#     Edge 12, Type (0, 0), BuildingBlock: FUNLAD_clean_linker_1, # of connection points: 2
#     Edge 13, Type (0, 0), BuildingBlock: FUNLAD_clean_linker_1, # of connection points: 2
#     Edge 14, Type (0, 0), BuildingBlock: FUNLAD_clean_linker_1, # of connection points: 2
#     Edge 15, Type (0, 0), BuildingBlock: FUNLAD_clean_linker_1, # of connection points: 2
#     Edge 16, Type (0, 0), BuildingBlock: FUNLAD_clean_linker_1, # of connection points: 2
#     Edge 17, Type (0, 0), BuildingBlock: FUNLAD_clean_linker_1, # of connection points: 2
#     Edge 18, Type (0, 0), BuildingBlock: FUNLAD_clean_linker_1, # of connection points: 2
#     Edge 19, Type (0, 0), BuildingBlock: FUNLAD_clean_linker_1, # of connection points: 2
#     Edge 20, Type (0, 0), BuildingBlock: FUNLAD_clean_linker_1, # of connection points: 2
#     Edge 21, Type (0, 0), BuildingBlock: FUNLAD_clean_linker_1, # of connection points: 2
#     Edge 22, Type (0, 0), BuildingBlock: FUNLAD_clean_linker_1, # of connection points: 2
#     Edge 23, Type (0, 0), BuildingBlock: FUNLAD_clean_linker_1, # of connection points: 2
# Relax obj value: 0.031
# Max RMSD: 0.047
# Mean RMSD: 0.047
data_MOF--net-uov--node1-QUQFOY_clean_sbu_1--edge1-FUNLAD_clean_linker_1
_symmetry_space_group_name_H-M    P1
_symmetry_Int_Tables_number       1
_symmetry_cell_setting            triclinic
loop_
_symmetry_equiv_pos_as_xyz
'x, y, z'
_cell_length_a     33.242307
_cell_length_b     33.136267
_cell_length_c     46.889623
_cell_angle_alpha  90.122534
_cell_angle_beta   90.03931
_cell_angle_gamma 90.015343
loop_
_atom_site_label
_atom_site_type_symbol
_atom_site_fract_x
_atom_site_fract_y
_atom_site_fract_z
_atom_type_partial_charge
O0 O 0.97084 0.25499 0.57668 0.0
Cd1 Cd 0.02342 0.28622 0.58345 0.0
Cd2 Cd 0.04297 0.21714 0.61171 0.0
O3 O 0.98235 0.20489 0.60657 0.0
O4 O 0.01129 0.3431 0.57287 0.0
O5 O 0.02519 0.32432 0.61709 0.0
C6 C 0.0153 0.35241 0.5994 0.0
C7 C 0.07418 0.20258 0.65524 0.0
C8 C 0.95927 0.22307 0.58923 0.0
C9 C 0.08586 0.23539 0.55622 0.0
O10 O 0.07802 0.2099 0.57569 0.0
O11 O 0.06986 0.27016 0.55662 0.0
O12 O 0.06285 0.17434 0.6381 0.0
O13 O 0.06717 0.23948 0.64797 0.0
O14 O 0.25679 0.0275 0.42851 0.0
Cd15 Cd 0.28103 0.97086 0.4239 0.0
Cd16 Cd 0.20848 0.95962 0.39622 0.0
O17 O 0.19966 0.02025 0.40501 0.0
O18 O 0.33689 0.98142 0.43722 0.0
O19 O 0.32333 0.95711 0.39434 0.0
C20 C 0.34952 0.96959 0.41266 0.0
C21 C 0.1952 0.93268 0.35107 0.0
C22 C 0.22361 0.04175 0.41979 0.0
C23 C 0.22369 0.91306 0.45073 0.0
O24 O 0.19985 0.92154 0.43038 0.0
O25 O 0.25865 0.92843 0.45186 0.0
O26 O 0.16649 0.94359 0.36787 0.0
O27 O 0.23179 0.93809 0.35955 0.0
O28 O 0.00288 0.74596 0.57485 0.0
Cd29 Cd 0.94905 0.72495 0.58995 0.0
Cd30 Cd 0.95159 0.79694 0.62017 0.0
O31 O 0.00995 0.79751 0.60444 0.0
O32 O 0.94764 0.66693 0.57882 0.0
O33 O 0.95196 0.68748 0.62371 0.0
C34 C 0.95148 0.65826 0.60545 0.0
C35 C 0.93765 0.82219 0.66585 0.0
C36 C 0.02341 0.77528 0.58443 0.0
C37 C 0.88978 0.78722 0.57293 0.0
O38 O 0.90731 0.80999 0.59085 0.0
O39 O 0.8995 0.75028 0.57047 0.0
O40 O 0.95021 0.84525 0.64573 0.0
O41 O 0.93449 0.78404 0.66063 0.0
O42 O 0.75457 0.97967 0.42406 0.0
Cd43 Cd 0.7264 0.0342 0.41907 0.0
Cd44 Cd 0.79835 0.04807 0.38659 0.0
O45 O 0.80904 0.98846 0.39779 0.0
O46 O 0.67176 0.0215 0.43383 0.0
O47 O 0.68243 0.04403 0.39009 0.0
C48 C 0.65763 0.03138 0.40925 0.0
C49 C 0.824 0.07126 0.34298 0.0
C50 C 0.78768 0.96671 0.41416 0.0
C51 C 0.78096 0.09859 0.44019 0.0
O52 O 0.80288 0.0904 0.41878 0.0
O53 O 0.74814 0.07996 0.44455 0.0
O54 O 0.84715 0.06237 0.36398 0.0
O55 O 0.7858 0.06586 0.34612 0.0
O56 O 0.0274 0.25184 0.07466 0.0
Cd57 Cd 0.97628 0.28503 0.08233 0.0
Cd58 Cd 0.95337 0.21162 0.10873 0.0
O59 O 0.01325 0.19847 0.10109 0.0
O60 O 0.99082 0.34146 0.07194 0.0
O61 O 0.97624 0.32311 0.11609 0.0
C62 C 0.98702 0.3509 0.09844 0.0
C63 C 0.9241 0.18273 0.14945 0.0
C64 C 0.03721 0.21782 0.08503 0.0
C65 C 0.9104 0.2391 0.05437 0.0
O66 O 0.91652 0.21229 0.07325 0.0
O67 O 0.9292 0.27241 0.05515 0.0
O68 O 0.9335 0.1614 0.12755 0.0
O69 O 0.93172 0.22092 0.14872 0.0
O70 O 0.24837 0.9728 0.92117 0.0
Cd71 Cd 0.27317 0.02873 0.91501 0.0
Cd72 Cd 0.20281 0.03602 0.88097 0.0
O73 O 0.19661 0.97563 0.89172 0.0
O74 O 0.32792 0.02039 0.93108 0.0
O75 O 0.31746 0.0392 0.88643 0.0
C76 C 0.34228 0.0292 0.90638 0.0
C77 C 0.18043 0.05759 0.83609 0.0
C78 C 0.21767 0.95656 0.90986 0.0
C79 C 0.21265 0.08884 0.93414 0.0
O80 O 0.19163 0.07733 0.91301 0.0
O81 O 0.24745 0.07433 0.93868 0.0
O82 O 0.15587 0.04458 0.8551 0.0
O83 O 0.21839 0.05723 0.84195 0.0
O84 O 0.99916 0.74644 0.07363 0.0
Cd85 Cd 0.05258 0.72415 0.08873 0.0
Cd86 Cd 0.05231 0.7969 0.11847 0.0
O87 O 0.99415 0.79911 0.10243 0.0
O88 O 0.05271 0.66615 0.07746 0.0
O89 O 0.04921 0.68649 0.12241 0.0
C90 C 0.04913 0.65737 0.10408 0.0
C91 C 0.06633 0.82214 0.16418 0.0
C92 C 0.97978 0.77679 0.08277 0.0
C93 C 0.11387 0.78457 0.07147 0.0
O94 O 0.09721 0.80814 0.08928 0.0
O95 O 0.10277 0.748 0.06917 0.0
O96 O 0.05488 0.84539 0.14382 0.0
O97 O 0.06844 0.78387 0.15913 0.0
O98 O 0.74272 0.03228 0.92641 0.0
Cd99 Cd 0.71991 0.97486 0.92327 0.0
Cd100 Cd 0.79242 0.9644 0.89514 0.0
O101 O 0.79985 0.02553 0.9029 0.0
O102 O 0.66407 0.98471 0.93683 0.0
O103 O 0.67744 0.95909 0.8943 0.0
C104 C 0.65131 0.9718 0.91256 0.0
C105 C 0.80592 0.93638 0.85037 0.0
C106 C 0.77542 0.04704 0.91724 0.0
C107 C 0.77909 0.91909 0.95043 0.0
O108 O 0.80231 0.9274 0.92971 0.0
O109 O 0.74392 0.93395 0.95176 0.0
O110 O 0.83452 0.94848 0.86689 0.0
O111 O 0.76929 0.94127 0.85887 0.0
H112 H 0.98681 0.61189 0.62754 0.0
C113 C 0.96077 0.61657 0.61395 0.0
H114 H 0.91583 0.59118 0.5884 0.0
H115 H 0.9953 0.4352 0.54279 0.0
H116 H 0.9739 0.46977 0.5002 0.0
H117 H 0.94829 0.53948 0.50249 0.0
H118 H 0.94271 0.57438 0.54743 0.0
C119 C 0.94201 0.58512 0.60161 0.0
C120 C 0.95989 0.54363 0.60073 0.0
C121 C 0.96534 0.52451 0.57383 0.0
C122 C 0.98267 0.48529 0.57226 0.0
C123 C 0.98447 0.46574 0.54531 0.0
C124 C 0.97196 0.48513 0.52055 0.0
C125 C 0.95738 0.52427 0.52186 0.0
C126 C 0.95407 0.54386 0.54803 0.0
H127 H 0.98367 0.39626 0.62665 0.0
C128 C 0.00493 0.39331 0.6092 0.0
H129 H 0.03882 0.42151 0.57741 0.0
H130 H 0.94552 0.56597 0.6562 0.0
H131 H 0.97382 0.53495 0.69851 0.0
H132 H 0.01697 0.47461 0.69468 0.0
H133 H 0.03024 0.44379 0.64872 0.0
C134 C 0.01729 0.42587 0.59459 0.0
C135 C 0.99772 0.46639 0.59728 0.0
C136 C 0.99379 0.48625 0.62403 0.0
C137 C 0.97253 0.52352 0.62594 0.0
C138 C 0.96431 0.53966 0.6533 0.0
C139 C 0.97997 0.52187 0.67779 0.0
C140 C 0.00401 0.48774 0.67566 0.0
C141 C 0.01099 0.47004 0.64915 0.0
H142 H 0.60003 0.05097 0.39002 0.0
C143 C 0.61412 0.02853 0.40361 0.0
H144 H 0.60719 0.97679 0.42892 0.0
H145 H 0.43146 0.99128 0.47083 0.0
H146 H 0.4696 0.9929 0.51472 0.0
H147 H 0.54351 0.99895 0.514 0.0
H148 H 0.57967 0.00255 0.46941 0.0
C149 C 0.5921 0.99921 0.41581 0.0
C150 C 0.5472 0.99871 0.41549 0.0
C151 C 0.52632 0.9983 0.4419 0.0
C152 C 0.48359 0.99668 0.44235 0.0
C153 C 0.46377 0.99407 0.46909 0.0
C154 C 0.48532 0.99473 0.49455 0.0
C155 C 0.5269 0.99799 0.49414 0.0
C156 C 0.54731 0.9998 0.46826 0.0
H157 H 0.40529 0.94744 0.39204 0.0
C158 C 0.39285 0.97038 0.40607 0.0
H159 H 0.40324 0.02161 0.43149 0.0
H160 H 0.5771 0.99129 0.36116 0.0
H161 H 0.53897 0.99514 0.31719 0.0
H162 H 0.46522 0.00328 0.31806 0.0
H163 H 0.42911 0.00604 0.36287 0.0
C164 C 0.41667 0.99871 0.41784 0.0
C165 C 0.4615 0.99756 0.41643 0.0
C166 C 0.48231 0.99904 0.39 0.0
C167 C 0.52516 0.99772 0.38952 0.0
C168 C 0.5449 0.99505 0.36283 0.0
C169 C 0.52332 0.99681 0.3374 0.0
C170 C 0.48178 1.00116 0.33789 0.0
C171 C 0.46136 0.00231 0.3638 0.0
H172 H 0.01867 0.39458 0.12598 0.0
C173 C 0.99794 0.39171 0.10818 0.0
H174 H 0.96521 0.42002 0.07579 0.0
H175 H 0.05431 0.56594 0.15548 0.0
H176 H 0.02475 0.53514 0.19741 0.0
H177 H 0.98266 0.47408 0.19314 0.0
H178 H 0.97169 0.44237 0.14718 0.0
C179 C 0.98625 0.42429 0.09331 0.0
C180 C 0.00582 0.46478 0.09623 0.0
C181 C 0.00849 0.48503 0.12292 0.0
C182 C 0.02917 0.52263 0.125 0.0
C183 C 0.03603 0.53931 0.15239 0.0
C184 C 0.01963 0.52166 0.17668 0.0
C185 C 0.99619 0.48712 0.1743 0.0
C186 C 0.99054 0.46893 0.14779 0.0
H187 H 0.01331 0.61074 0.1255 0.0
C188 C 0.0399 0.61565 0.11253 0.0
H189 H 0.08638 0.59068 0.08824 0.0
H190 H 0.01094 0.43274 0.04212 0.0
H191 H 0.03392 0.46682 0.99974 0.0
H192 H 0.05877 0.53683 1.00204 0.0
H193 H 0.06198 0.57253 0.04679 0.0
C194 C 0.0597 0.58436 0.10085 0.0
C195 C 0.04258 0.54254 0.09991 0.0
C196 C 0.03864 0.52288 0.07307 0.0
C197 C 0.0218 0.48344 0.07143 0.0
C198 C 0.02137 0.46343 0.04462 0.0
C199 C 0.0348 0.48254 0.02 0.0
C200 C 0.04895 0.52184 0.02132 0.0
C201 C 0.05089 0.54191 0.04739 0.0
H202 H 0.3995 0.04912 0.88674 0.0
C203 C 0.38599 0.02763 0.90133 0.0
H204 H 0.39431 0.97861 0.92905 0.0
H205 H 0.57151 0.00368 0.86151 0.0
H206 H 0.53527 0.99602 0.817 0.0
H207 H 0.46159 0.98712 0.81664 0.0
H208 H 0.42366 0.98744 0.86073 0.0
C209 C 0.40879 1.00018 0.91493 0.0
C210 C 0.45368 1.00065 0.91453 0.0
C211 C 0.47563 0.9972 0.88865 0.0
C212 C 0.51847 0.99891 0.88901 0.0
C213 C 0.53929 0.99972 0.86268 0.0
C214 C 0.5188 0.99575 0.83691 0.0
C215 C 0.4773 0.99099 0.83669 0.0
C216 C 0.45582 0.99164 0.86218 0.0
H217 H 0.59535 0.94786 0.89317 0.0
C218 C 0.60792 0.97196 0.90614 0.0
H219 H 0.59788 0.02539 0.92923 0.0
H220 H 0.42135 0.01009 0.96809 0.0
H221 H 0.45768 0.01164 0.01273 0.0
H222 H 0.53163 0.00623 0.01371 0.0
H223 H 0.56965 1.00009 0.97001 0.0
C224 C 0.58425 1.00133 0.91671 0.0
C225 C 0.5394 1.00021 0.91542 0.0
C226 C 0.51741 1.00204 0.94134 0.0
C227 C 0.47466 0.0033 0.94086 0.0
C228 C 0.45374 0.00748 0.96708 0.0
C229 C 0.47423 0.00865 0.99296 0.0
C230 C 0.51584 0.00575 0.99351 0.0
C231 C 0.53732 0.00247 0.96814 0.0
H232 H 0.22989 0.09347 0.44843 0.0
C233 C 0.21058 0.08061 0.43201 0.0
H234 H 0.15373 0.08256 0.41243 0.0
H235 H 0.06649 0.13516 0.52586 0.0
H236 H 0.02997 0.07536 0.51128 0.0
H237 H 0.05093 0.03645 0.46897 0.0
H238 H 0.10813 0.05714 0.44092 0.0
C239 C 0.17349 0.09583 0.42833 0.0
C240 C 0.15633 0.12354 0.45038 0.0
C241 C 0.12272 0.11063 0.46668 0.0
C242 C 0.11129 0.13242 0.49155 0.0
C243 C 0.07725 0.11921 0.50721 0.0
C244 C 0.05582 0.085 0.49901 0.0
C245 C 0.0676 0.06312 0.4752 0.0
C246 C 0.10064 0.07551 0.45921 0.0
H247 H 0.10746 0.24185 0.51193 0.0
C248 C 0.10836 0.2225 0.53062 0.0
H249 H 0.12396 0.16557 0.54705 0.0
H250 H 0.2147 0.16223 0.41998 0.0
H251 H 0.25193 0.22193 0.43474 0.0
H252 H 0.23678 0.25572 0.48044 0.0
H253 H 0.18376 0.2308 0.51124 0.0
C254 C 0.12433 0.18535 0.52858 0.0
C255 C 0.13397 0.16647 0.50053 0.0
C256 C 0.16606 0.18074 0.48337 0.0
C257 C 0.17634 0.15995 0.45779 0.0
C258 C 0.20704 0.17592 0.44024 0.0
C259 C 0.22838 0.21026 0.44836 0.0
C260 C 0.21973 0.22937 0.47404 0.0
C261 C 0.18903 0.21488 0.49146 0.0
H262 H 0.22704 0.8888 0.49452 0.0
C263 C 0.20881 0.88958 0.47526 0.0
H264 H 0.15274 0.87601 0.45659 0.0
H265 H 0.14229 0.77308 0.57847 0.0
H266 H 0.20032 0.73485 0.56219 0.0
H267 H 0.23563 0.75361 0.51788 0.0
H268 H 0.21371 0.81103 0.48991 0.0
C269 C 0.17148 0.87405 0.47555 0.0
C270 C 0.15131 0.86215 0.50257 0.0
C271 C 0.16402 0.82782 0.51817 0.0
C272 C 0.1426 0.81591 0.54304 0.0
C273 C 0.15668 0.78246 0.55888 0.0
C274 C 0.19004 0.76045 0.54987 0.0
C275 C 0.21001 0.7711 0.52497 0.0
C276 C 0.19724 0.8043 0.50919 0.0
H277 H 0.06823 0.76804 0.55051 0.0
C278 C 0.06042 0.78623 0.56904 0.0
H279 H 0.07195 0.84006 0.59165 0.0
H280 H 0.12176 0.9322 0.47947 0.0
H281 H 0.06288 0.96909 0.49509 0.0
H282 H 0.02323 0.94594 0.53635 0.0
H283 H 0.04262 0.8862 0.56252 0.0
C284 C 0.08047 0.82073 0.57391 0.0
C285 C 0.10753 0.8372 0.55146 0.0
C286 C 0.09563 0.87231 0.5364 0.0
C287 C 0.11779 0.885 0.51211 0.0
C288 C 0.10553 0.92051 0.49766 0.0
C289 C 0.07183 0.94216 0.50646 0.0
C290 C 0.04958 0.92917 0.52972 0.0
C291 C 0.06115 0.89473 0.54458 0.0
H292 H 0.83206 0.91692 0.41599 0.0
C293 C 0.80428 0.92842 0.42513 0.0
H294 H 0.76174 0.92312 0.4584 0.0
H295 H 0.79826 0.75374 0.50806 0.0
H296 H 0.7345 0.74069 0.48435 0.0
H297 H 0.70536 0.79055 0.45123 0.0
H298 H 0.7396 0.85386 0.44171 0.0
C299 C 0.78948 0.91176 0.44911 0.0
C300 C 0.81056 0.87937 0.46521 0.0
C301 C 0.79067 0.84209 0.47 0.0
C302 C 0.80763 0.81311 0.48884 0.0
C303 C 0.78665 0.77665 0.49384 0.0
C304 C 0.75011 0.76879 0.48036 0.0
C305 C 0.73369 0.79688 0.46172 0.0
C306 C 0.75358 0.83315 0.45652 0.0
H307 H 0.85019 0.83568 0.5579 0.0
C308 C 0.86243 0.80627 0.5523 0.0
H309 H 0.87332 0.76511 0.51856 0.0
H310 H 0.85573 0.94935 0.46349 0.0
H311 H 0.92138 0.95963 0.48432 0.0
H312 H 0.95424 0.90579 0.51213 0.0
H313 H 0.92065 0.84185 0.52004 0.0
C314 C 0.86005 0.79363 0.52509 0.0
C315 C 0.84459 0.8213 0.50264 0.0
C316 C 0.86603 0.8572 0.4962 0.0
C317 C 0.84832 0.88703 0.47843 0.0
C318 C 0.86856 0.92444 0.47516 0.0
C319 C 0.90628 0.93099 0.48729 0.0
C320 C 0.92468 0.90079 0.50307 0.0
C321 C 0.90491 0.86433 0.5076 0.0
H322 H 0.82355 0.14436 0.45531 0.0
C323 C 0.79717 0.12696 0.46143 0.0
H324 H 0.76072 0.10848 0.49612 0.0
H325 H 0.94287 0.14765 0.54598 0.0
H326 H 0.95584 0.07998 0.52925 0.0
H327 H 0.90292 0.04058 0.50498 0.0
H328 H 0.83683 0.06944 0.49678 0.0
C329 C 0.78592 0.12666 0.48892 0.0
C330 C 0.81256 0.1459 0.51049 0.0
C331 C 0.84995 0.12758 0.51708 0.0
C332 C 0.87961 0.14948 0.53252 0.0
C333 C 0.9182 0.13187 0.53597 0.0
C334 C 0.92631 0.09301 0.52614 0.0
C335 C 0.89659 0.07089 0.51238 0.0
C336 C 0.85887 0.08788 0.50773 0.0
H337 H 0.9113 0.17708 0.59231 0.0
C338 C 0.92115 0.20369 0.58073 0.0
H339 H 0.91223 0.24045 0.54452 0.0
H340 H 0.74209 0.18701 0.50429 0.0
H341 H 0.7267 0.25348 0.52357 0.0
H342 H 0.77671 0.29052 0.55245 0.0
H343 H 0.84247 0.26155 0.56211 0.0
C344 C 0.90261 0.21395 0.55631 0.0
C345 C 0.87058 0.18874 0.54307 0.0
C346 C 0.83198 0.20568 0.53825 0.0
C347 C 0.80298 0.18425 0.52183 0.0
C348 C 0.76509 0.2022 0.51666 0.0
C349 C 0.75589 0.2402 0.52764 0.0
C350 C 0.78406 0.26106 0.5439 0.0
C351 C 0.82171 0.24416 0.54922 0.0
H352 H 0.7675 0.10016 0.94434 0.0
C353 C 0.78744 0.08679 0.92854 0.0
H354 H 0.84501 0.08834 0.91007 0.0
H355 H 0.81303 0.24015 0.00562 0.0
H356 H 0.76253 0.26539 0.97277 0.0
H357 H 0.7488 0.23014 0.92738 0.0
H358 H 0.78502 0.16881 0.91486 0.0
C359 C 0.82455 0.10211 0.92527 0.0
C360 C 0.84088 0.13005 0.94749 0.0
C361 C 0.82125 0.16707 0.95375 0.0
C362 C 0.83047 0.18839 0.97933 0.0
C363 C 0.80825 0.22356 0.98603 0.0
C364 C 0.77905 0.23827 0.96741 0.0
C365 C 0.77122 0.21835 0.94189 0.0
C366 C 0.79197 0.18312 0.93504 0.0
H367 H 0.89048 0.24763 0.00985 0.0
C368 C 0.88717 0.22854 0.02853 0.0
H369 H 0.86648 0.17312 0.04466 0.0
H370 H 0.88802 0.06234 0.94049 0.0
H371 H 0.94222 0.0406 0.97106 0.0
H372 H 0.96079 0.07973 0.01386 0.0
H373 H 0.92513 0.14093 0.02626 0.0
C374 C 0.86862 0.19266 0.02612 0.0
C375 C 0.86075 0.17363 0.99787 0.0
C376 C 0.88308 0.13875 0.99018 0.0
C377 C 0.87294 0.11671 0.96513 0.0
C378 C 0.89458 0.08086 0.95888 0.0
C379 C 0.92589 0.06787 0.97633 0.0
C380 C 0.93637 0.08989 1.00041 0.0
C381 C 0.9154 0.1249 0.00734 0.0
H382 H 0.16543 0.13028 0.94859 0.0
C383 C 0.1938 0.11644 0.95477 0.0
H384 H 0.23425 0.10614 0.98897 0.0
H385 H 0.15392 0.25505 0.05657 0.0
H386 H 0.22035 0.28238 0.04699 0.0
H387 H 0.26891 0.24481 0.0173 0.0
H388 H 0.25142 0.17944 0.99716 0.0
C389 C 0.20637 0.12001 0.9819 0.0
C390 C 0.17991 0.1399 0.0033 0.0
C391 C 0.19069 0.17774 0.01505 0.0
C392 C 0.16249 0.19955 0.03189 0.0
C393 C 0.174 0.23742 0.04334 0.0
C394 C 0.21206 0.25339 0.03807 0.0
C395 C 0.23941 0.23222 0.02136 0.0
C396 C 0.229 0.19482 0.0099 0.0
H397 H 0.08354 0.17005 0.0859 0.0
C398 C 0.07438 0.19778 0.07538 0.0
H399 H 0.08358 0.23652 0.04025 0.0
H400 H 0.15382 0.06378 0.99001 0.0
H401 H 0.08705 0.03663 0.99819 0.0
H402 H 0.03519 0.0774 0.02236 0.0
H403 H 0.04993 0.14474 0.03911 0.0
C404 C 0.0926 0.20898 0.05105 0.0
C405 C 0.1235 0.18358 0.03671 0.0
C406 C 0.11321 0.1449 0.02568 0.0
C407 C 0.14213 0.12244 0.01 0.0
C408 C 0.13224 0.08288 1.0008 0.0
C409 C 0.09413 0.06682 0.0055 0.0
C410 C 0.06501 0.08971 0.01922 0.0
C411 C 0.07415 0.12833 0.02908 0.0
H412 H 0.1541 0.83204 0.0557 0.0
C413 C 0.14187 0.80239 0.05073 0.0
H414 H 0.13191 0.7594 0.01795 0.0
H415 H 0.14785 0.93936 0.95694 0.0
H416 H 0.08083 0.9488 0.97559 0.0
H417 H 0.04833 0.89598 0.00454 0.0
H418 H 0.08355 0.83394 0.01572 0.0
C419 C 0.14512 0.78819 0.02395 0.0
C420 C 0.161 0.81476 1.001 0.0
C421 C 0.13882 0.84941 0.99273 0.0
C422 C 0.15655 0.87858 0.97445 0.0
C423 C 0.13525 0.91492 0.9692 0.0
C424 C 0.0967 0.92098 0.98004 0.0
C425 C 0.07849 0.89137 0.99646 0.0
C426 C 0.09917 0.856 1.00285 0.0
H427 H 0.17648 0.90407 0.91129 0.0
C428 C 0.20271 0.91781 0.9212 0.0
H429 H 0.24249 0.91716 0.95639 0.0
H430 H 0.20912 0.74935 0.01014 0.0
H431 H 0.27477 0.73712 0.98897 0.0
H432 H 0.30432 0.78582 0.9552 0.0
H433 H 0.2686 0.84715 0.94246 0.0
C434 C 0.21631 0.90359 0.9463 0.0
C435 C 0.19535 0.87145 0.96271 0.0
C436 C 0.21619 0.83532 0.96941 0.0
C437 C 0.19903 0.80701 0.98867 0.0
C438 C 0.22087 0.77171 0.99555 0.0
C439 C 0.25849 0.76433 0.98354 0.0
C440 C 0.27514 0.79177 0.96453 0.0
C441 C 0.25439 0.8269 0.95747 0.0
H442 H 0.77747 0.89594 0.99459 0.0
C443 C 0.79481 0.89605 0.97494 0.0
H444 H 0.84949 0.88065 0.95502 0.0
H445 H 0.96551 0.88654 0.05811 0.0
H446 H 0.98678 0.9445 0.03071 0.0
H447 H 0.94645 0.96874 0.99008 0.0
H448 H 0.8849 0.9348 0.97636 0.0
C449 C 0.83173 0.87953 0.97446 0.0
C450 C 0.85281 0.86694 1.00101 0.0
C451 C 0.88796 0.88818 0.00947 0.0
C452 C 0.91059 0.87491 0.0334 0.0
C453 C 0.94658 0.89564 0.0405 0.0
C454 C 0.95925 0.92903 0.02492 0.0
C455 C 0.9366 0.94264 1.00202 0.0
C456 C 0.90137 0.92266 0.9943 0.0
H457 H 0.93426 0.77015 0.04916 0.0
C458 C 0.94306 0.78865 0.06731 0.0
H459 H 0.93405 0.84371 0.089 0.0
H460 H 0.78777 0.81828 0.9901 0.0
H461 H 0.76443 0.76256 0.01917 0.0
H462 H 0.80069 0.74318 0.06298 0.0
H463 H 0.86107 0.779 0.07765 0.0
C464 C 0.92445 0.82408 0.07169 0.0
C465 C 0.89758 0.84088 0.04922 0.0
C466 C 0.86122 0.82107 0.04176 0.0
C467 C 0.83929 0.83348 0.01721 0.0
C468 C 0.80469 0.81127 0.00915 0.0
C469 C 0.7911 0.77903 0.02556 0.0
C470 C 0.81159 0.76802 0.05017 0.0
C471 C 0.8463 0.78865 0.05826 0.0
H472 H 0.10688 0.21773 0.69501 0.0
C473 C 0.09531 0.19301 0.68213 0.0
H474 H 0.09016 0.12991 0.67738 0.0
H475 H 0.23129 0.06961 0.75298 0.0
H476 H 0.25514 0.05261 0.70559 0.0
H477 H 0.22006 0.0778 0.66282 0.0
H478 H 0.1607 0.11985 0.66715 0.0
C479 C 0.10076 0.15463 0.69069 0.0
C480 C 0.12418 0.14376 0.71674 0.0
C481 C 0.15949 0.11997 0.71388 0.0
C482 C 0.18021 0.10604 0.73855 0.0
C483 C 0.21465 0.08138 0.73499 0.0
C484 C 0.22868 0.07137 0.7079 0.0
C485 C 0.2089 0.08551 0.68382 0.0
C486 C 0.17473 0.10952 0.68663 0.0
H487 H 0.13298 0.06725 0.8042 0.0
C488 C 0.16436 0.07356 0.80907 0.0
H489 H 0.21665 0.10492 0.79631 0.0
H490 H 0.05579 0.18621 0.73046 0.0
H491 H 0.03521 0.20747 0.77764 0.0
H492 H 0.07548 0.18956 0.81997 0.0
H493 H 0.13597 0.14923 0.81533 0.0
C494 C 0.18526 0.0982 0.79186 0.0
C495 C 0.16596 0.1163 0.76609 0.0
C496 C 0.13219 0.14227 0.76894 0.0
C497 C 0.11045 0.15485 0.74434 0.0
C498 C 0.07477 0.17761 0.74814 0.0
C499 C 0.06237 0.18978 0.77519 0.0
C500 C 0.08492 0.17953 0.79903 0.0
C501 C 0.11941 0.15607 0.79608 0.0
H502 H 0.06962 0.87123 0.19574 0.0
C503 C 0.07811 0.84003 0.19178 0.0
H504 H 0.11083 0.78989 0.20702 0.0
H505 H 0.17974 0.95472 0.27536 0.0
H506 H 0.20309 0.97652 0.229 0.0
H507 H 0.18934 0.93584 0.18597 0.0
H508 H 0.15115 0.87371 0.18901 0.0
C509 C 0.10195 0.82104 0.21063 0.0
C510 C 0.11636 0.84196 0.23701 0.0
C511 C 0.14104 0.8769 0.23513 0.0
C512 C 0.15124 0.899 0.26021 0.0
C513 C 0.17292 0.93557 0.25731 0.0
C514 C 0.18627 0.94865 0.23075 0.0
C515 C 0.17837 0.92586 0.20651 0.0
C516 C 0.15607 0.8904 0.20854 0.0
H517 H 0.21169 0.90216 0.3107 0.0
C518 C 0.18657 0.91317 0.32333 0.0
H519 H 0.12349 0.91757 0.32699 0.0
H520 H 0.0708 0.77513 0.24839 0.0
H521 H 0.05142 0.75058 0.29507 0.0
H522 H 0.07256 0.78642 0.33873 0.0
H523 H 0.11289 0.84721 0.336 0.0
C524 C 0.14866 0.90771 0.31393 0.0
C525 C 0.1391 0.88463 0.28738 0.0
C526 C 0.11615 0.84857 0.28932 0.0
C527 C 0.10459 0.82741 0.26415 0.0
C528 C 0.08085 0.79211 0.26679 0.0
C529 C 0.06946 0.77768 0.29347 0.0
C530 C 0.08131 0.79789 0.31804 0.0
C531 C 0.10437 0.83288 0.31614 0.0
H532 H 0.93462 0.87129 0.69741 0.0
C533 C 0.92563 0.84025 0.69333 0.0
H534 H 0.89148 0.79079 0.70812 0.0
H535 H 0.88749 0.8501 0.83682 0.0
H536 H 0.92719 0.789 0.84054 0.0
H537 H 0.94883 0.75217 0.79743 0.0
H538 H 0.9306 0.77606 0.75032 0.0
C539 C 0.90089 0.82176 0.71182 0.0
C540 C 0.88601 0.84313 0.73787 0.0
C541 C 0.89704 0.82893 0.76525 0.0
C542 C 0.88515 0.85062 0.79011 0.0
C543 C 0.89626 0.83533 0.81719 0.0
C544 C 0.91895 0.80017 0.81966 0.0
C545 C 0.93109 0.77941 0.79539 0.0
C546 C 0.92038 0.79346 0.76847 0.0
H547 H 0.78977 0.90473 0.81034 0.0
C548 C 0.81477 0.91616 0.82293 0.0
H549 H 0.87783 0.9207 0.82686 0.0
H550 H 0.85274 0.87442 0.68916 0.0
H551 H 0.81494 0.93668 0.68516 0.0
H552 H 0.8003 0.97801 0.72772 0.0
H553 H 0.82239 0.95678 0.77455 0.0
C554 C 0.85276 0.9105 0.81381 0.0
C555 C 0.86254 0.8868 0.78759 0.0
C556 C 0.85103 0.90076 0.76017 0.0
C557 C 0.86165 0.87821 0.73539 0.0
C558 C 0.84739 0.89141 0.70851 0.0
C559 C 0.82534 0.92694 0.70592 0.0
C560 C 0.81694 0.95011 0.72989 0.0
C561 C 0.82958 0.93736 0.75672 0.0
H562 H 0.87351 0.09618 0.3176 0.0
C563 C 0.84168 0.08866 0.31693 0.0
H564 H 0.78862 0.08969 0.29228 0.0
H565 H 0.8426 0.22954 0.20958 0.0
H566 H 0.78317 0.25759 0.23196 0.0
H567 H 0.7496 0.2221 0.27152 0.0
H568 H 0.77487 0.15805 0.28867 0.0
C569 C 0.82065 0.0961 0.29303 0.0
C570 C 0.84006 0.11651 0.26814 0.0
C571 C 0.8253 0.15438 0.25867 0.0
C572 C 0.84529 0.17539 0.23629 0.0
C573 C 0.82915 0.21259 0.22681 0.0
C574 C 0.79497 0.22905 0.23944 0.0
C575 C 0.77604 0.20905 0.26168 0.0
C576 C 0.79088 0.17219 0.27129 0.0
H577 H 0.89418 0.13225 0.17105 0.0
C578 C 0.90465 0.16307 0.17401 0.0
H579 H 0.91032 0.21166 0.20285 0.0
H580 H 0.8717 0.04099 0.27654 0.0
H581 H 0.93383 0.01498 0.25669 0.0
H582 H 0.97414 0.05592 0.22338 0.0
H583 H 0.9517 0.12234 0.20892 0.0
C584 C 0.90056 0.18067 0.19968 0.0
C585 C 0.8806 0.15903 0.22381 0.0
C586 C 0.89591 0.12158 0.2338 0.0
C587 C 0.87452 0.09944 0.25488 0.0
C588 C 0.88821 0.06028 0.26213 0.0
C589 C 0.92363 0.04479 0.25066 0.0
C590 C 0.94618 0.06773 0.23179 0.0
C591 C 0.93268 0.10568 0.22341 0.0
loop_
_geom_bond_atom_site_label_1
_geom_bond_atom_site_label_2
_geom_bond_distance
_geom_bond_site_symmetry_2
_ccdc_geom_bond_type
O0 Cd1 2.223 . S
O0 C8 1.315 . S
Cd1 O0 2.223 . S
Cd1 O4 2.297 . S
Cd1 O5 2.439 . S
Cd1 O11 2.240 . S
Cd2 O3 2.240 . S
Cd2 O10 2.223 . S
Cd2 O12 2.297 . S
Cd2 O13 2.439 . S
O3 Cd2 2.240 . S
O3 C8 1.279 . S
O4 Cd1 2.297 . S
O4 C6 1.247 . S
O5 Cd1 2.439 . S
O5 C6 1.208 . S
C6 O4 1.247 . S
C6 O5 1.208 . S
C7 O12 1.247 . S
C7 O13 1.208 . S
C8 O0 1.315 . S
C8 O3 1.279 . S
C9 O10 1.315 . S
C9 O11 1.279 . S
O10 Cd2 2.223 . S
O10 C9 1.315 . S
O11 Cd1 2.240 . S
O11 C9 1.279 . S
O12 Cd2 2.297 . S
O12 C7 1.247 . S
O13 Cd2 2.439 . S
O13 C7 1.208 . S
O14 Cd15 2.223 . S
O14 C22 1.315 . S
Cd15 O14 2.223 . S
Cd15 O18 2.297 . S
Cd15 O19 2.439 . S
Cd15 O25 2.240 . S
Cd16 O17 2.240 . S
Cd16 O24 2.223 . S
Cd16 O26 2.297 . S
Cd16 O27 2.439 . S
O17 Cd16 2.240 . S
O17 C22 1.279 . S
O18 Cd15 2.297 . S
O18 C20 1.247 . S
O19 Cd15 2.439 . S
O19 C20 1.208 . S
C20 O18 1.247 . S
C20 O19 1.208 . S
C21 O26 1.247 . S
C21 O27 1.208 . S
C22 O14 1.315 . S
C22 O17 1.279 . S
C23 O24 1.315 . S
C23 O25 1.279 . S
O24 Cd16 2.223 . S
O24 C23 1.315 . S
O25 Cd15 2.240 . S
O25 C23 1.279 . S
O26 Cd16 2.297 . S
O26 C21 1.247 . S
O27 Cd16 2.439 . S
O27 C21 1.208 . S
O28 Cd29 2.223 . S
O28 C36 1.315 . S
Cd29 O28 2.223 . S
Cd29 O32 2.297 . S
Cd29 O33 2.439 . S
Cd29 O39 2.240 . S
Cd30 O31 2.240 . S
Cd30 O38 2.223 . S
Cd30 O40 2.297 . S
Cd30 O41 2.439 . S
O31 Cd30 2.240 . S
O31 C36 1.279 . S
O32 Cd29 2.297 . S
O32 C34 1.247 . S
O33 Cd29 2.439 . S
O33 C34 1.208 . S
C34 O32 1.247 . S
C34 O33 1.208 . S
C35 O40 1.247 . S
C35 O41 1.208 . S
C36 O28 1.315 . S
C36 O31 1.279 . S
C37 O38 1.315 . S
C37 O39 1.279 . S
O38 Cd30 2.223 . S
O38 C37 1.315 . S
O39 Cd29 2.240 . S
O39 C37 1.279 . S
O40 Cd30 2.297 . S
O40 C35 1.247 . S
O41 Cd30 2.439 . S
O41 C35 1.208 . S
O42 Cd43 2.223 . S
O42 C50 1.315 . S
Cd43 O42 2.223 . S
Cd43 O46 2.297 . S
Cd43 O47 2.439 . S
Cd43 O53 2.240 . S
Cd44 O45 2.240 . S
Cd44 O52 2.223 . S
Cd44 O54 2.297 . S
Cd44 O55 2.439 . S
O45 Cd44 2.240 . S
O45 C50 1.279 . S
O46 Cd43 2.297 . S
O46 C48 1.247 . S
O47 Cd43 2.439 . S
O47 C48 1.208 . S
C48 O46 1.247 . S
C48 O47 1.208 . S
C49 O54 1.247 . S
C49 O55 1.208 . S
C50 O42 1.315 . S
C50 O45 1.279 . S
C51 O52 1.315 . S
C51 O53 1.279 . S
O52 Cd44 2.223 . S
O52 C51 1.315 . S
O53 Cd43 2.240 . S
O53 C51 1.279 . S
O54 Cd44 2.297 . S
O54 C49 1.247 . S
O55 Cd44 2.439 . S
O55 C49 1.208 . S
O56 Cd57 2.223 . S
O56 C64 1.315 . S
Cd57 O56 2.223 . S
Cd57 O60 2.297 . S
Cd57 O61 2.439 . S
Cd57 O67 2.240 . S
Cd58 O59 2.240 . S
Cd58 O66 2.223 . S
Cd58 O68 2.297 . S
Cd58 O69 2.439 . S
O59 Cd58 2.240 . S
O59 C64 1.279 . S
O60 Cd57 2.297 . S
O60 C62 1.247 . S
O61 Cd57 2.439 . S
O61 C62 1.208 . S
C62 O60 1.247 . S
C62 O61 1.208 . S
C63 O68 1.247 . S
C63 O69 1.208 . S
C64 O56 1.315 . S
C64 O59 1.279 . S
C65 O66 1.315 . S
C65 O67 1.279 . S
O66 Cd58 2.223 . S
O66 C65 1.315 . S
O67 Cd57 2.240 . S
O67 C65 1.279 . S
O68 Cd58 2.297 . S
O68 C63 1.247 . S
O69 Cd58 2.439 . S
O69 C63 1.208 . S
O70 Cd71 2.223 . S
O70 C78 1.315 . S
Cd71 O70 2.223 . S
Cd71 O74 2.297 . S
Cd71 O75 2.439 . S
Cd71 O81 2.240 . S
Cd72 O73 2.240 . S
Cd72 O80 2.223 . S
Cd72 O82 2.297 . S
Cd72 O83 2.439 . S
O73 Cd72 2.240 . S
O73 C78 1.279 . S
O74 Cd71 2.297 . S
O74 C76 1.247 . S
O75 Cd71 2.439 . S
O75 C76 1.208 . S
C76 O74 1.247 . S
C76 O75 1.208 . S
C77 O82 1.247 . S
C77 O83 1.208 . S
C78 O70 1.315 . S
C78 O73 1.279 . S
C79 O80 1.315 . S
C79 O81 1.279 . S
O80 Cd72 2.223 . S
O80 C79 1.315 . S
O81 Cd71 2.240 . S
O81 C79 1.279 . S
O82 Cd72 2.297 . S
O82 C77 1.247 . S
O83 Cd72 2.439 . S
O83 C77 1.208 . S
O84 Cd85 2.223 . S
O84 C92 1.315 . S
Cd85 O84 2.223 . S
Cd85 O88 2.297 . S
Cd85 O89 2.439 . S
Cd85 O95 2.240 . S
Cd86 O87 2.240 . S
Cd86 O94 2.223 . S
Cd86 O96 2.297 . S
Cd86 O97 2.439 . S
O87 Cd86 2.240 . S
O87 C92 1.279 . S
O88 Cd85 2.297 . S
O88 C90 1.247 . S
O89 Cd85 2.439 . S
O89 C90 1.208 . S
C90 O88 1.247 . S
C90 O89 1.208 . S
C91 O96 1.247 . S
C91 O97 1.208 . S
C92 O84 1.315 . S
C92 O87 1.279 . S
C93 O94 1.315 . S
C93 O95 1.279 . S
O94 Cd86 2.223 . S
O94 C93 1.315 . S
O95 Cd85 2.240 . S
O95 C93 1.279 . S
O96 Cd86 2.297 . S
O96 C91 1.247 . S
O97 Cd86 2.439 . S
O97 C91 1.208 . S
O98 Cd99 2.223 . S
O98 C106 1.315 . S
Cd99 O98 2.223 . S
Cd99 O102 2.297 . S
Cd99 O103 2.439 . S
Cd99 O109 2.240 . S
Cd100 O101 2.240 . S
Cd100 O108 2.223 . S
Cd100 O110 2.297 . S
Cd100 O111 2.439 . S
O101 Cd100 2.240 . S
O101 C106 1.279 . S
O102 Cd99 2.297 . S
O102 C104 1.247 . S
O103 Cd99 2.439 . S
O103 C104 1.208 . S
C104 O102 1.247 . S
C104 O103 1.208 . S
C105 O110 1.247 . S
C105 O111 1.208 . S
C106 O98 1.315 . S
C106 O101 1.279 . S
C107 O108 1.315 . S
C107 O109 1.279 . S
O108 Cd100 2.223 . S
O108 C107 1.315 . S
O109 Cd99 2.240 . S
O109 C107 1.279 . S
O110 Cd100 2.297 . S
O110 C105 1.247 . S
O111 Cd100 2.439 . S
O111 C105 1.208 . S
H112 C113 0.951 . S
C113 H112 0.951 . S
C113 C119 1.265 . S
H114 C119 0.950 . S
H115 C123 0.949 . S
H116 C124 0.950 . S
H117 C125 0.951 . S
H118 C126 0.951 . S
C119 C113 1.265 . S
C119 H114 0.950 . S
C119 C120 1.478 . S
C120 C119 1.478 . S
C120 C121 1.397 . S
C120 C137 1.394 . S
C121 C120 1.397 . S
C121 C122 1.438 1_655 S
C121 C126 1.429 . S
C122 C121 1.438 1_455 S
C122 C123 1.428 . S
C122 C135 1.394 . S
C123 H115 0.949 . S
C123 C122 1.428 . S
C123 C124 1.345 1_455 S
C124 H116 0.950 . S
C124 C123 1.345 1_655 S
C124 C125 1.424 . S
C125 H117 0.951 . S
C125 C124 1.424 . S
C125 C126 1.347 . S
C126 H118 0.951 . S
C126 C121 1.429 . S
C126 C125 1.347 . S
H127 C128 0.951 . S
C128 H127 0.951 . S
C128 C134 1.265 . S
H129 C134 0.950 . S
H130 C138 0.949 . S
H131 C139 0.950 . S
H132 C140 0.951 . S
H133 C141 0.951 . S
C134 C128 1.265 . S
C134 H129 0.950 . S
C134 C135 1.478 . S
C135 C122 1.394 . S
C135 C134 1.478 . S
C135 C136 1.397 . S
C136 C135 1.397 . S
C136 C137 1.438 1_455 S
C136 C141 1.429 . S
C137 C120 1.394 . S
C137 C136 1.438 1_655 S
C137 C138 1.428 . S
C138 H130 0.949 . S
C138 C137 1.428 . S
C138 C139 1.345 1_655 S
C139 H131 0.950 . S
C139 C138 1.345 1_455 S
C139 C140 1.424 . S
C140 H132 0.951 . S
C140 C139 1.424 . S
C140 C141 1.347 . S
C141 H133 0.951 . S
C141 C136 1.429 . S
C141 C140 1.347 . S
H142 C143 0.951 . S
C143 H142 0.951 . S
C143 C149 1.265 . S
H144 C149 0.950 . S
H145 C153 0.949 . S
H146 C154 0.950 . S
H147 C155 0.951 . S
H148 C156 0.951 . S
C149 C143 1.265 . S
C149 H144 0.950 . S
C149 C150 1.478 . S
C150 C149 1.478 . S
C150 C151 1.397 1_545 S
C150 C167 1.394 . S
C151 C150 1.397 1_565 S
C151 C152 1.438 . S
C151 C156 1.429 . S
C152 C151 1.438 . S
C152 C153 1.428 . S
C152 C165 1.394 . S
C153 H145 0.949 . S
C153 C152 1.428 . S
C153 C154 1.345 . S
C154 H146 0.950 . S
C154 C153 1.345 . S
C154 C155 1.424 . S
C155 H147 0.951 . S
C155 C154 1.424 . S
C155 C156 1.347 . S
C156 H148 0.951 . S
C156 C151 1.429 . S
C156 C155 1.347 . S
H157 C158 0.951 . S
C158 H157 0.951 . S
C158 C164 1.265 . S
H159 C164 0.950 . S
H160 C168 0.949 . S
H161 C169 0.950 . S
H162 C170 0.951 . S
H163 C171 0.951 . S
C164 C158 1.265 . S
C164 H159 0.950 . S
C164 C165 1.478 . S
C165 C152 1.394 . S
C165 C164 1.478 . S
C165 C166 1.397 1_565 S
C166 C165 1.397 1_545 S
C166 C167 1.438 . S
C166 C171 1.429 . S
C167 C150 1.394 . S
C167 C166 1.438 . S
C167 C168 1.428 . S
C168 H160 0.949 . S
C168 C167 1.428 . S
C168 C169 1.345 . S
C169 H161 0.950 . S
C169 C168 1.345 . S
C169 C170 1.424 . S
C170 H162 0.951 . S
C170 C169 1.424 . S
C170 C171 1.347 . S
C171 H163 0.951 . S
C171 C166 1.429 . S
C171 C170 1.347 . S
H172 C173 0.951 . S
C173 H172 0.951 . S
C173 C179 1.265 . S
H174 C179 0.950 . S
H175 C183 0.953 . S
H176 C184 0.950 . S
H177 C185 0.951 . S
H178 C186 0.951 . S
C179 C173 1.265 . S
C179 H174 0.950 . S
C179 C180 1.478 . S
C180 C179 1.478 . S
C180 C181 1.397 . S
C180 C197 1.408 . S
C181 C180 1.397 . S
C181 C182 1.424 1_655 S
C181 C186 1.429 . S
C182 C181 1.424 1_455 S
C182 C183 1.428 . S
C182 C195 1.408 . S
C183 H175 0.953 . S
C183 C182 1.428 . S
C183 C184 1.341 1_455 S
C184 H176 0.950 . S
C184 C183 1.341 1_655 S
C184 C185 1.424 . S
C185 H177 0.951 . S
C185 C184 1.424 . S
C185 C186 1.347 . S
C186 H178 0.951 . S
C186 C181 1.429 . S
C186 C185 1.347 . S
H187 C188 0.951 . S
C188 H187 0.951 . S
C188 C194 1.265 . S
H189 C194 0.950 . S
H190 C198 0.953 . S
H191 C199 0.950 1_556 S
H192 C200 0.951 1_556 S
H193 C201 0.951 . S
C194 C188 1.265 . S
C194 H189 0.950 . S
C194 C195 1.478 . S
C195 C182 1.408 . S
C195 C194 1.478 . S
C195 C196 1.397 . S
C196 C195 1.397 . S
C196 C197 1.424 1_455 S
C196 C201 1.429 . S
C197 C180 1.408 . S
C197 C196 1.424 1_655 S
C197 C198 1.428 . S
C198 H190 0.953 . S
C198 C197 1.428 . S
C198 C199 1.341 1_655 S
C199 H191 0.950 1_554 S
C199 C198 1.341 1_455 S
C199 C200 1.424 . S
C200 H192 0.951 1_554 S
C200 C199 1.424 . S
C200 C201 1.347 . S
C201 H193 0.951 . S
C201 C196 1.429 . S
C201 C200 1.347 . S
H202 C203 0.951 . S
C203 H202 0.951 . S
C203 C209 1.265 . S
H204 C209 0.950 . S
H205 C213 0.949 . S
H206 C214 0.950 . S
H207 C215 0.951 . S
H208 C216 0.951 . S
C209 C203 1.265 . S
C209 H204 0.950 . S
C209 C210 1.478 . S
C210 C209 1.478 . S
C210 C211 1.397 1_545 S
C210 C227 1.394 . S
C211 C210 1.397 1_565 S
C211 C212 1.438 . S
C211 C216 1.429 . S
C212 C211 1.438 . S
C212 C213 1.428 . S
C212 C225 1.394 . S
C213 H205 0.949 . S
C213 C212 1.428 . S
C213 C214 1.345 . S
C214 H206 0.950 . S
C214 C213 1.345 . S
C214 C215 1.424 . S
C215 H207 0.951 . S
C215 C214 1.424 . S
C215 C216 1.347 . S
C216 H208 0.951 . S
C216 C211 1.429 . S
C216 C215 1.347 . S
H217 C218 0.951 . S
C218 H217 0.951 . S
C218 C224 1.265 . S
H219 C224 0.950 . S
H220 C228 0.949 . S
H221 C229 0.950 1_554 S
H222 C230 0.951 1_554 S
H223 C231 0.951 . S
C224 C218 1.265 . S
C224 H219 0.950 . S
C224 C225 1.478 . S
C225 C212 1.394 . S
C225 C224 1.478 . S
C225 C226 1.397 1_565 S
C226 C225 1.397 1_545 S
C226 C227 1.438 . S
C226 C231 1.429 . S
C227 C210 1.394 . S
C227 C226 1.438 . S
C227 C228 1.428 . S
C228 H220 0.949 . S
C228 C227 1.428 . S
C228 C229 1.345 . S
C229 H221 0.950 1_556 S
C229 C228 1.345 . S
C229 C230 1.424 . S
C230 H222 0.951 1_556 S
C230 C229 1.424 . S
C230 C231 1.347 . S
C231 H223 0.951 . S
C231 C226 1.429 . S
C231 C230 1.347 . S
H232 C233 0.959 . S
C233 H232 0.959 . S
C233 C239 1.269 . S
H234 C239 0.950 1_565 S
H235 C243 0.949 . S
H236 C244 0.950 . S
H237 C245 0.951 1_565 S
H238 C246 0.951 1_565 S
C239 C233 1.269 . S
C239 H234 0.950 1_545 S
C239 C240 1.478 . S
C240 C239 1.478 . S
C240 C241 1.397 . S
C240 C257 1.394 . S
C241 C240 1.397 . S
C241 C242 1.438 . S
C241 C246 1.429 . S
C242 C241 1.438 . S
C242 C243 1.428 . S
C242 C255 1.394 . S
C243 H235 0.949 . S
C243 C242 1.428 . S
C243 C244 1.345 . S
C244 H236 0.950 . S
C244 C243 1.345 . S
C244 C245 1.424 . S
C245 H237 0.951 1_545 S
C245 C244 1.424 . S
C245 C246 1.347 . S
C246 H238 0.951 1_545 S
C246 C241 1.429 . S
C246 C245 1.347 . S
H247 C248 0.951 . S
C248 H247 0.951 . S
C248 C254 1.265 . S
H249 C254 0.950 . S
H250 C258 0.949 . S
H251 C259 0.950 . S
H252 C260 0.951 . S
H253 C261 0.951 . S
C254 C248 1.265 . S
C254 H249 0.950 . S
C254 C255 1.478 . S
C255 C242 1.394 . S
C255 C254 1.478 . S
C255 C256 1.397 . S
C256 C255 1.397 . S
C256 C257 1.438 . S
C256 C261 1.429 . S
C257 C240 1.394 . S
C257 C256 1.438 . S
C257 C258 1.428 . S
C258 H250 0.949 . S
C258 C257 1.428 . S
C258 C259 1.345 . S
C259 H251 0.950 . S
C259 C258 1.345 . S
C259 C260 1.424 . S
C260 H252 0.951 . S
C260 C259 1.424 . S
C260 C261 1.347 . S
C261 H253 0.951 . S
C261 C256 1.429 . S
C261 C260 1.347 . S
H262 C263 0.951 . S
C263 H262 0.951 . S
C263 C269 1.265 . S
H264 C269 0.950 . S
H265 C273 0.949 . S
H266 C274 0.950 . S
H267 C275 0.951 . S
H268 C276 0.951 . S
C269 C263 1.265 . S
C269 H264 0.950 . S
C269 C270 1.478 . S
C270 C269 1.478 . S
C270 C271 1.397 . S
C270 C287 1.394 . S
C271 C270 1.397 . S
C271 C272 1.438 . S
C271 C276 1.429 . S
C272 C271 1.438 . S
C272 C273 1.428 . S
C272 C285 1.394 . S
C273 H265 0.949 . S
C273 C272 1.428 . S
C273 C274 1.345 . S
C274 H266 0.950 . S
C274 C273 1.345 . S
C274 C275 1.424 . S
C275 H267 0.951 . S
C275 C274 1.424 . S
C275 C276 1.347 . S
C276 H268 0.951 . S
C276 C271 1.429 . S
C276 C275 1.347 . S
H277 C278 0.945 1_455 S
C278 H277 0.945 1_655 S
C278 C284 1.260 1_655 S
H279 C284 0.956 . S
H280 C288 0.949 . S
H281 C289 0.950 . S
H282 C290 0.951 1_655 S
H283 C291 0.951 1_655 S
C284 C278 1.260 1_455 S
C284 H279 0.956 . S
C284 C285 1.478 . S
C285 C272 1.394 . S
C285 C284 1.478 . S
C285 C286 1.397 . S
C286 C285 1.397 . S
C286 C287 1.438 . S
C286 C291 1.429 . S
C287 C270 1.394 . S
C287 C286 1.438 . S
C287 C288 1.428 . S
C288 H280 0.949 . S
C288 C287 1.428 . S
C288 C289 1.345 . S
C289 H281 0.950 . S
C289 C288 1.345 . S
C289 C290 1.424 . S
C290 H282 0.951 1_455 S
C290 C289 1.424 . S
C290 C291 1.347 . S
C291 H283 0.951 1_455 S
C291 C286 1.429 . S
C291 C290 1.347 . S
H292 C293 0.951 . S
C293 H292 0.951 . S
C293 C299 1.265 . S
H294 C299 0.950 1_545 S
H295 C303 0.949 . S
H296 C304 0.950 . S
H297 C305 0.951 . S
H298 C306 0.951 . S
C299 C293 1.265 . S
C299 H294 0.950 1_565 S
C299 C300 1.478 . S
C300 C299 1.478 . S
C300 C301 1.397 . S
C300 C317 1.394 . S
C301 C300 1.397 . S
C301 C302 1.438 . S
C301 C306 1.429 . S
C302 C301 1.438 . S
C302 C303 1.428 . S
C302 C315 1.394 . S
C303 H295 0.949 . S
C303 C302 1.428 . S
C303 C304 1.345 . S
C304 H296 0.950 . S
C304 C303 1.345 . S
C304 C305 1.424 . S
C305 H297 0.951 . S
C305 C304 1.424 . S
C305 C306 1.347 . S
C306 H298 0.951 . S
C306 C301 1.429 . S
C306 C305 1.347 . S
H307 C308 0.951 . S
C308 H307 0.951 . S
C308 C314 1.265 . S
H309 C314 0.950 . S
H310 C318 0.949 . S
H311 C319 0.950 . S
H312 C320 0.951 . S
H313 C321 0.951 . S
C314 C308 1.265 . S
C314 H309 0.950 . S
C314 C315 1.478 . S
C315 C302 1.394 . S
C315 C314 1.478 . S
C315 C316 1.397 . S
C316 C315 1.397 . S
C316 C317 1.438 . S
C316 C321 1.429 . S
C317 C300 1.394 . S
C317 C316 1.438 . S
C317 C318 1.428 . S
C318 H310 0.949 . S
C318 C317 1.428 . S
C318 C319 1.345 . S
C319 H311 0.950 . S
C319 C318 1.345 . S
C319 C320 1.424 . S
C320 H312 0.951 . S
C320 C319 1.424 . S
C320 C321 1.347 . S
C321 H313 0.951 . S
C321 C316 1.429 . S
C321 C320 1.347 . S
H322 C323 0.951 . S
C323 H322 0.951 . S
C323 C329 1.265 . S
H324 C329 0.950 . S
H325 C333 0.949 . S
H326 C334 0.950 . S
H327 C335 0.951 . S
H328 C336 0.951 . S
C329 C323 1.265 . S
C329 H324 0.950 . S
C329 C330 1.478 . S
C330 C329 1.478 . S
C330 C331 1.397 . S
C330 C347 1.394 . S
C331 C330 1.397 . S
C331 C332 1.438 . S
C331 C336 1.429 . S
C332 C331 1.438 . S
C332 C333 1.428 . S
C332 C345 1.394 . S
C333 H325 0.949 . S
C333 C332 1.428 . S
C333 C334 1.345 . S
C334 H326 0.950 . S
C334 C333 1.345 . S
C334 C335 1.424 . S
C335 H327 0.951 . S
C335 C334 1.424 . S
C335 C336 1.347 . S
C336 H328 0.951 . S
C336 C331 1.429 . S
C336 C335 1.347 . S
H337 C338 0.967 . S
C338 H337 0.967 . S
C338 C344 1.272 . S
H339 C344 0.950 1_455 S
H340 C348 0.949 . S
H341 C349 0.950 . S
H342 C350 0.951 . S
H343 C351 0.951 . S
C344 C338 1.272 . S
C344 H339 0.950 1_655 S
C344 C345 1.478 . S
C345 C332 1.394 . S
C345 C344 1.478 . S
C345 C346 1.397 . S
C346 C345 1.397 . S
C346 C347 1.438 . S
C346 C351 1.429 . S
C347 C330 1.394 . S
C347 C346 1.438 . S
C347 C348 1.428 . S
C348 H340 0.949 . S
C348 C347 1.428 . S
C348 C349 1.345 . S
C349 H341 0.950 . S
C349 C348 1.345 . S
C349 C350 1.424 . S
C350 H342 0.951 . S
C350 C349 1.424 . S
C350 C351 1.347 . S
C351 H343 0.951 . S
C351 C346 1.429 . S
C351 C350 1.347 . S
H352 C353 0.951 1_545 S
C353 H352 0.951 1_565 S
C353 C359 1.265 1_565 S
H354 C359 0.950 . S
H355 C363 0.949 . S
H356 C364 0.950 . S
H357 C365 0.951 . S
H358 C366 0.951 . S
C359 C353 1.265 1_545 S
C359 H354 0.950 . S
C359 C360 1.478 . S
C360 C359 1.478 . S
C360 C361 1.397 . S
C360 C377 1.394 1_556 S
C361 C360 1.397 . S
C361 C362 1.438 . S
C361 C366 1.429 . S
C362 C361 1.438 . S
C362 C363 1.428 . S
C362 C375 1.394 1_556 S
C363 H355 0.949 . S
C363 C362 1.428 . S
C363 C364 1.345 . S
C364 H356 0.950 . S
C364 C363 1.345 . S
C364 C365 1.424 . S
C365 H357 0.951 . S
C365 C364 1.424 . S
C365 C366 1.347 . S
C366 H358 0.951 . S
C366 C361 1.429 . S
C366 C365 1.347 . S
H367 C368 0.951 . S
C368 H367 0.951 . S
C368 C374 1.265 . S
H369 C374 0.950 . S
H370 C378 0.949 1_565 S
H371 C379 0.950 1_565 S
H372 C380 0.951 . S
H373 C381 0.951 . S
C374 C368 1.265 . S
C374 H369 0.950 . S
C374 C375 1.478 . S
C375 C362 1.394 1_554 S
C375 C374 1.478 . S
C375 C376 1.397 . S
C376 C375 1.397 . S
C376 C377 1.438 . S
C376 C381 1.429 . S
C377 C360 1.394 1_554 S
C377 C376 1.438 . S
C377 C378 1.428 . S
C378 H370 0.949 1_545 S
C378 C377 1.428 . S
C378 C379 1.345 . S
C379 H371 0.950 1_545 S
C379 C378 1.345 . S
C379 C380 1.424 . S
C380 H372 0.951 . S
C380 C379 1.424 . S
C380 C381 1.347 . S
C381 H373 0.951 . S
C381 C376 1.429 . S
C381 C380 1.347 . S
H382 C383 0.951 . S
C383 H382 0.951 . S
C383 C389 1.265 . S
H384 C389 0.950 . S
H385 C393 0.949 . S
H386 C394 0.948 1_554 S
H387 C395 0.951 . S
H388 C396 0.951 . S
C389 C383 1.265 . S
C389 H384 0.950 . S
C389 C390 1.478 . S
C390 C389 1.478 . S
C390 C391 1.397 . S
C390 C407 1.394 . S
C391 C390 1.397 . S
C391 C392 1.438 1_556 S
C391 C396 1.429 . S
C392 C391 1.438 1_554 S
C392 C393 1.428 . S
C392 C405 1.394 . S
C393 H385 0.949 . S
C393 C392 1.428 . S
C393 C394 1.343 1_554 S
C394 H386 0.948 1_556 S
C394 C393 1.343 1_556 S
C394 C395 1.427 . S
C395 H387 0.951 . S
C395 C394 1.427 . S
C395 C396 1.347 . S
C396 H388 0.951 . S
C396 C391 1.429 . S
C396 C395 1.347 . S
H397 C398 0.951 . S
C398 H397 0.951 . S
C398 C404 1.265 . S
H399 C404 0.950 1_655 S
H400 C408 0.949 . S
H401 C409 0.950 . S
H402 C410 0.951 . S
H403 C411 0.951 . S
C404 C398 1.265 . S
C404 H399 0.950 1_455 S
C404 C405 1.478 . S
C405 C392 1.394 . S
C405 C404 1.478 . S
C405 C406 1.397 . S
C406 C405 1.397 . S
C406 C407 1.438 1_554 S
C406 C411 1.429 . S
C407 C390 1.394 . S
C407 C406 1.438 1_556 S
C407 C408 1.428 . S
C408 H400 0.949 . S
C408 C407 1.428 . S
C408 C409 1.345 . S
C409 H401 0.950 . S
C409 C408 1.345 . S
C409 C410 1.424 1_556 S
C410 H402 0.951 . S
C410 C409 1.424 1_554 S
C410 C411 1.347 . S
C411 H403 0.951 . S
C411 C406 1.429 . S
C411 C410 1.347 . S
H412 C413 0.951 . S
C413 H412 0.951 . S
C413 C419 1.265 . S
H414 C419 0.950 . S
H415 C423 0.949 . S
H416 C424 0.950 . S
H417 C425 0.951 . S
H418 C426 0.951 . S
C419 C413 1.265 . S
C419 H414 0.950 . S
C419 C420 1.478 . S
C420 C419 1.478 . S
C420 C421 1.397 1_554 S
C420 C437 1.394 . S
C421 C420 1.397 1_556 S
C421 C422 1.438 . S
C421 C426 1.429 . S
C422 C421 1.438 . S
C422 C423 1.428 . S
C422 C435 1.394 . S
C423 H415 0.949 . S
C423 C422 1.428 . S
C423 C424 1.345 . S
C424 H416 0.950 . S
C424 C423 1.345 . S
C424 C425 1.424 . S
C425 H417 0.951 . S
C425 C424 1.424 . S
C425 C426 1.347 . S
C426 H418 0.951 . S
C426 C421 1.429 . S
C426 C425 1.347 . S
H427 C428 0.951 . S
C428 H427 0.951 . S
C428 C434 1.265 . S
H429 C434 0.950 1_545 S
H430 C438 0.949 . S
H431 C439 0.950 . S
H432 C440 0.951 . S
H433 C441 0.951 . S
C434 C428 1.265 . S
C434 H429 0.950 1_565 S
C434 C435 1.478 . S
C435 C422 1.394 . S
C435 C434 1.478 . S
C435 C436 1.397 1_556 S
C436 C435 1.397 1_554 S
C436 C437 1.438 . S
C436 C441 1.429 . S
C437 C420 1.394 . S
C437 C436 1.438 . S
C437 C438 1.428 . S
C438 H430 0.949 . S
C438 C437 1.428 . S
C438 C439 1.345 . S
C439 H431 0.950 . S
C439 C438 1.345 . S
C439 C440 1.424 . S
C440 H432 0.951 . S
C440 C439 1.424 . S
C440 C441 1.347 . S
C441 H433 0.951 . S
C441 C436 1.429 . S
C441 C440 1.347 . S
H442 C443 0.951 . S
C443 H442 0.951 . S
C443 C449 1.265 . S
H444 C449 0.950 . S
H445 C453 0.949 1_455 S
H446 C454 0.950 1_455 S
H447 C455 0.951 . S
H448 C456 0.951 . S
C449 C443 1.265 . S
C449 H444 0.950 . S
C449 C450 1.478 . S
C450 C449 1.478 . S
C450 C451 1.397 . S
C450 C467 1.394 1_556 S
C451 C450 1.397 . S
C451 C452 1.438 . S
C451 C456 1.429 . S
C452 C451 1.438 . S
C452 C453 1.428 . S
C452 C465 1.394 1_556 S
C453 H445 0.949 1_655 S
C453 C452 1.428 . S
C453 C454 1.345 . S
C454 H446 0.950 1_655 S
C454 C453 1.345 . S
C454 C455 1.424 . S
C455 H447 0.951 . S
C455 C454 1.424 . S
C455 C456 1.347 . S
C456 H448 0.951 . S
C456 C451 1.429 . S
C456 C455 1.347 . S
H457 C458 0.951 1_655 S
C458 H457 0.951 1_455 S
C458 C464 1.265 1_455 S
H459 C464 0.950 . S
H460 C468 0.949 . S
H461 C469 0.950 . S
H462 C470 0.951 . S
H463 C471 0.951 . S
C464 C458 1.265 1_655 S
C464 H459 0.950 . S
C464 C465 1.478 . S
C465 C452 1.394 1_554 S
C465 C464 1.478 . S
C465 C466 1.397 . S
C466 C465 1.397 . S
C466 C467 1.438 . S
C466 C471 1.429 . S
C467 C450 1.394 1_554 S
C467 C466 1.438 . S
C467 C468 1.428 . S
C468 H460 0.949 . S
C468 C467 1.428 . S
C468 C469 1.345 . S
C469 H461 0.950 . S
C469 C468 1.345 . S
C469 C470 1.424 . S
C470 H462 0.951 . S
C470 C469 1.424 . S
C470 C471 1.347 . S
C471 H463 0.951 . S
C471 C466 1.429 . S
C471 C470 1.347 . S
H472 C473 0.951 . S
C473 H472 0.951 . S
C473 C479 1.265 . S
H474 C479 0.950 . S
H475 C483 0.949 . S
H476 C484 0.950 . S
H477 C485 0.951 . S
H478 C486 0.951 . S
C479 C473 1.265 . S
C479 H474 0.950 . S
C479 C480 1.478 . S
C480 C479 1.478 . S
C480 C481 1.397 . S
C480 C497 1.394 . S
C481 C480 1.397 . S
C481 C482 1.438 . S
C481 C486 1.429 . S
C482 C481 1.438 . S
C482 C483 1.428 . S
C482 C495 1.394 . S
C483 H475 0.949 . S
C483 C482 1.428 . S
C483 C484 1.345 . S
C484 H476 0.950 . S
C484 C483 1.345 . S
C484 C485 1.424 . S
C485 H477 0.951 . S
C485 C484 1.424 . S
C485 C486 1.347 . S
C486 H478 0.951 . S
C486 C481 1.429 . S
C486 C485 1.347 . S
H487 C488 0.951 . S
C488 H487 0.951 . S
C488 C494 1.265 . S
H489 C494 0.950 . S
H490 C498 0.949 . S
H491 C499 0.950 . S
H492 C500 0.951 . S
H493 C501 0.951 . S
C494 C488 1.265 . S
C494 H489 0.950 . S
C494 C495 1.478 . S
C495 C482 1.394 . S
C495 C494 1.478 . S
C495 C496 1.397 . S
C496 C495 1.397 . S
C496 C497 1.438 . S
C496 C501 1.429 . S
C497 C480 1.394 . S
C497 C496 1.438 . S
C497 C498 1.428 . S
C498 H490 0.949 . S
C498 C497 1.428 . S
C498 C499 1.345 . S
C499 H491 0.950 . S
C499 C498 1.345 . S
C499 C500 1.424 . S
C500 H492 0.951 . S
C500 C499 1.424 . S
C500 C501 1.347 . S
C501 H493 0.951 . S
C501 C496 1.429 . S
C501 C500 1.347 . S
H502 C503 0.951 . S
C503 H502 0.951 . S
C503 C509 1.265 . S
H504 C509 0.950 . S
H505 C513 0.949 . S
H506 C514 0.950 . S
H507 C515 0.951 . S
H508 C516 0.951 . S
C509 C503 1.265 . S
C509 H504 0.950 . S
C509 C510 1.478 . S
C510 C509 1.478 . S
C510 C511 1.397 . S
C510 C527 1.394 . S
C511 C510 1.397 . S
C511 C512 1.438 . S
C511 C516 1.429 . S
C512 C511 1.438 . S
C512 C513 1.428 . S
C512 C525 1.394 . S
C513 H505 0.949 . S
C513 C512 1.428 . S
C513 C514 1.345 . S
C514 H506 0.950 . S
C514 C513 1.345 . S
C514 C515 1.424 . S
C515 H507 0.951 . S
C515 C514 1.424 . S
C515 C516 1.347 . S
C516 H508 0.951 . S
C516 C511 1.429 . S
C516 C515 1.347 . S
H517 C518 0.951 . S
C518 H517 0.951 . S
C518 C524 1.265 . S
H519 C524 0.950 . S
H520 C528 0.949 . S
H521 C529 0.950 . S
H522 C530 0.951 . S
H523 C531 0.951 . S
C524 C518 1.265 . S
C524 H519 0.950 . S
C524 C525 1.478 . S
C525 C512 1.394 . S
C525 C524 1.478 . S
C525 C526 1.397 . S
C526 C525 1.397 . S
C526 C527 1.438 . S
C526 C531 1.429 . S
C527 C510 1.394 . S
C527 C526 1.438 . S
C527 C528 1.428 . S
C528 H520 0.949 . S
C528 C527 1.428 . S
C528 C529 1.345 . S
C529 H521 0.950 . S
C529 C528 1.345 . S
C529 C530 1.424 . S
C530 H522 0.951 . S
C530 C529 1.424 . S
C530 C531 1.347 . S
C531 H523 0.951 . S
C531 C526 1.429 . S
C531 C530 1.347 . S
H532 C533 0.951 . S
C533 H532 0.951 . S
C533 C539 1.265 . S
H534 C539 0.950 . S
H535 C543 0.949 . S
H536 C544 0.950 . S
H537 C545 0.951 . S
H538 C546 0.951 . S
C539 C533 1.265 . S
C539 H534 0.950 . S
C539 C540 1.478 . S
C540 C539 1.478 . S
C540 C541 1.397 . S
C540 C557 1.394 . S
C541 C540 1.397 . S
C541 C542 1.438 . S
C541 C546 1.429 . S
C542 C541 1.438 . S
C542 C543 1.428 . S
C542 C555 1.394 . S
C543 H535 0.949 . S
C543 C542 1.428 . S
C543 C544 1.345 . S
C544 H536 0.950 . S
C544 C543 1.345 . S
C544 C545 1.424 . S
C545 H537 0.951 . S
C545 C544 1.424 . S
C545 C546 1.347 . S
C546 H538 0.951 . S
C546 C541 1.429 . S
C546 C545 1.347 . S
H547 C548 0.951 . S
C548 H547 0.951 . S
C548 C554 1.265 . S
H549 C554 0.950 . S
H550 C558 0.949 . S
H551 C559 0.950 . S
H552 C560 0.951 . S
H553 C561 0.951 . S
C554 C548 1.265 . S
C554 H549 0.950 . S
C554 C555 1.478 . S
C555 C542 1.394 . S
C555 C554 1.478 . S
C555 C556 1.397 . S
C556 C555 1.397 . S
C556 C557 1.438 . S
C556 C561 1.429 . S
C557 C540 1.394 . S
C557 C556 1.438 . S
C557 C558 1.428 . S
C558 H550 0.949 . S
C558 C557 1.428 . S
C558 C559 1.345 . S
C559 H551 0.950 . S
C559 C558 1.345 . S
C559 C560 1.424 . S
C560 H552 0.951 . S
C560 C559 1.424 . S
C560 C561 1.347 . S
C561 H553 0.951 . S
C561 C556 1.429 . S
C561 C560 1.347 . S
H562 C563 0.951 . S
C563 H562 0.951 . S
C563 C569 1.265 . S
H564 C569 0.950 . S
H565 C573 0.949 . S
H566 C574 0.950 . S
H567 C575 0.951 . S
H568 C576 0.951 . S
C569 C563 1.265 . S
C569 H564 0.950 . S
C569 C570 1.478 . S
C570 C569 1.478 . S
C570 C571 1.397 . S
C570 C587 1.394 . S
C571 C570 1.397 . S
C571 C572 1.438 . S
C571 C576 1.429 . S
C572 C571 1.438 . S
C572 C573 1.428 . S
C572 C585 1.394 . S
C573 H565 0.949 . S
C573 C572 1.428 . S
C573 C574 1.345 . S
C574 H566 0.950 . S
C574 C573 1.345 . S
C574 C575 1.424 . S
C575 H567 0.951 . S
C575 C574 1.424 . S
C575 C576 1.347 . S
C576 H568 0.951 . S
C576 C571 1.429 . S
C576 C575 1.347 . S
H577 C578 0.951 . S
C578 H577 0.951 . S
C578 C584 1.265 . S
H579 C584 0.950 . S
H580 C588 0.949 . S
H581 C589 0.950 . S
H582 C590 0.951 . S
H583 C591 0.951 . S
C584 C578 1.265 . S
C584 H579 0.950 . S
C584 C585 1.478 . S
C585 C572 1.394 . S
C585 C584 1.478 . S
C585 C586 1.397 . S
C586 C585 1.397 . S
C586 C587 1.438 . S
C586 C591 1.429 . S
C587 C570 1.394 . S
C587 C586 1.438 . S
C587 C588 1.428 . S
C588 H580 0.949 . S
C588 C587 1.428 . S
C588 C589 1.345 . S
C589 H581 0.950 . S
C589 C588 1.345 . S
C589 C590 1.424 . S
C590 H582 0.951 . S
C590 C589 1.424 . S
C590 C591 1.347 . S
C591 H583 0.951 . S
C591 C586 1.429 . S
C591 C590 1.347 . S
C113 C34 1.394 . S
C128 C6 1.394 . S
C143 C48 1.427 . S
C158 C20 1.422 . S
C173 C62 1.397 . S
C188 C90 1.392 . S
C203 C76 1.424 . S
C218 C104 1.425 . S
C233 C22 1.388 1_545 S
C248 C9 1.322 . S
C263 C23 1.337 . S
C278 C36 1.401 . S
C293 C50 1.415 1_565 S
C308 C37 1.314 . S
C323 C51 1.323 . S
C338 C8 1.407 1_655 S
C353 C106 1.386 . S
C368 C65 1.361 . S
C383 C79 1.316 . S
C398 C64 1.419 1_455 S
C413 C93 1.314 . S
C428 C78 1.414 1_565 S
C443 C107 1.353 . S
C458 C92 1.387 . S
C473 C7 1.613 . S
C488 C77 1.550 . S
C503 C91 1.562 . S
C518 C21 1.612 . S
C533 C35 1.545 . S
C548 C105 1.622 . S
C563 C49 1.571 . S
C578 C63 1.589 . S
