# Generated by pormake.
# Topology snk, (6)-cn, num edge types: 1
# Building blocks:
#     Node 0, Type 0, BuildingBlock: KUMBOL_clean_sbu_0, # of connection points: 6
#     Node 1, Type 0, BuildingBlock: KUMBOL_clean_sbu_0, # of connection points: 6
#     Node 2, Type 0, BuildingBlock: KUMBOL_clean_sbu_0, # of connection points: 6
#     Node 3, Type 0, BuildingBlock: KUMBOL_clean_sbu_0, # of connection points: 6
#     Node 4, Type 0, BuildingBlock: KUMBOL_clean_sbu_0, # of connection points: 6
#     Node 5, Type 0, BuildingBlock: KUMBOL_clean_sbu_0, # of connection points: 6
#     Node 6, Type 0, BuildingBlock: KUMBOL_clean_sbu_0, # of connection points: 6
#     Node 7, Type 0, BuildingBlock: KUMBOL_clean_sbu_0, # of connection points: 6
#     Edge 8, Type (0, 0), BuildingBlock: ZUJKAS_clean_linker_0, # of connection points: 2
#     Edge 9, Type (0, 0), BuildingBlock: ZUJKAS_clean_linker_0, # of connection points: 2
#     Edge 10, Type (0, 0), BuildingBlock: ZUJKAS_clean_linker_0, # of connection points: 2
#     Edge 11, Type (0, 0), BuildingBlock: ZUJKAS_clean_linker_0, # of connection points: 2
#     Edge 12, Type (0, 0), BuildingBlock: ZUJKAS_clean_linker_0, # of connection points: 2
#     Edge 13, Type (0, 0), BuildingBlock: ZUJKAS_clean_linker_0, # of connection points: 2
#     Edge 14, Type (0, 0), BuildingBlock: ZUJKAS_clean_linker_0, # of connection points: 2
#     Edge 15, Type (0, 0), BuildingBlock: ZUJKAS_clean_linker_0, # of connection points: 2
#     Edge 16, Type (0, 0), BuildingBlock: ZUJKAS_clean_linker_0, # of connection points: 2
#     Edge 17, Type (0, 0), BuildingBlock: ZUJKAS_clean_linker_0, # of connection points: 2
#     Edge 18, Type (0, 0), BuildingBlock: ZUJKAS_clean_linker_0, # of connection points: 2
#     Edge 19, Type (0, 0), BuildingBlock: ZUJKAS_clean_linker_0, # of connection points: 2
#     Edge 20, Type (0, 0), BuildingBlock: ZUJKAS_clean_linker_0, # of connection points: 2
#     Edge 21, Type (0, 0), BuildingBlock: ZUJKAS_clean_linker_0, # of connection points: 2
#     Edge 22, Type (0, 0), BuildingBlock: ZUJKAS_clean_linker_0, # of connection points: 2
#     Edge 23, Type (0, 0), BuildingBlock: ZUJKAS_clean_linker_0, # of connection points: 2
#     Edge 24, Type (0, 0), BuildingBlock: ZUJKAS_clean_linker_0, # of connection points: 2
#     Edge 25, Type (0, 0), BuildingBlock: ZUJKAS_clean_linker_0, # of connection points: 2
#     Edge 26, Type (0, 0), BuildingBlock: ZUJKAS_clean_linker_0, # of connection points: 2
#     Edge 27, Type (0, 0), BuildingBlock: ZUJKAS_clean_linker_0, # of connection points: 2
#     Edge 28, Type (0, 0), BuildingBlock: ZUJKAS_clean_linker_0, # of connection points: 2
#     Edge 29, Type (0, 0), BuildingBlock: ZUJKAS_clean_linker_0, # of connection points: 2
#     Edge 30, Type (0, 0), BuildingBlock: ZUJKAS_clean_linker_0, # of connection points: 2
#     Edge 31, Type (0, 0), BuildingBlock: ZUJKAS_clean_linker_0, # of connection points: 2
# Relax obj value: 0.014
# Max RMSD: 0.072
# Mean RMSD: 0.068
data_MOF--net-snk--node1-KUMBOL_clean_sbu_0--edge1-ZUJKAS_clean_linker_0
_symmetry_space_group_name_H-M    P1
_symmetry_Int_Tables_number       1
_symmetry_cell_setting            triclinic
loop_
_symmetry_equiv_pos_as_xyz
'x, y, z'
_cell_length_a     50.023447
_cell_length_b     50.027483
_cell_length_c     29.15968
_cell_angle_alpha  87.763589
_cell_angle_beta   87.960714
_cell_angle_gamma 90.017502
loop_
_atom_site_label
_atom_site_type_symbol
_atom_site_fract_x
_atom_site_fract_y
_atom_site_fract_z
_atom_type_partial_charge
Gd0 Gd 0.00806 0.02687 0.56687 0.0
Gd1 Gd 1.00255 0.98355 0.46742 0.0
C2 C 0.95295 0.90676 0.47437 0.0
C3 C 0.98732 0.8725 0.47076 0.0
C4 C 0.99965 0.91956 0.468 0.0
C5 C 0.97301 0.92664 0.47235 0.0
C6 C 0.00711 0.89244 0.46613 0.0
C7 C 0.96028 0.87965 0.47478 0.0
C8 C 0.92616 0.91473 0.47436 0.0
C9 C 0.91996 0.94193 0.47115 0.0
N10 N 0.96663 0.95303 0.47144 0.0
C11 C 0.94054 0.9609 0.46931 0.0
H12 H 0.93534 0.9818 0.46695 0.0
C13 C 0.04431 0.93348 0.45193 0.0
N14 N 0.01815 0.93934 0.46252 0.0
C15 C 0.05274 0.90687 0.45035 0.0
C16 C 0.03411 0.88624 0.45806 0.0
H17 H 0.05879 0.94939 0.44617 0.0
H18 H 0.94516 0.86409 0.47692 0.0
H19 H 0.07549 0.02847 0.56394 0.0
H20 H 0.91018 0.90008 0.4757 0.0
H21 H 0.89933 0.94834 0.47011 0.0
H22 H 0.99266 0.85153 0.46985 0.0
H23 H 0.95423 0.06156 0.59942 0.0
H24 H 0.10121 0.1098 0.54795 0.0
H25 H 0.11175 0.06158 0.55544 0.0
H26 H 0.0194 0.15904 0.56166 0.0
H27 H 0.07359 0.90231 0.44318 0.0
H28 H 0.04066 0.86564 0.45649 0.0
H29 H 0.06648 0.1461 0.54875 0.0
H30 H 0.93985 0.10875 0.60364 0.0
N31 N 0.04426 0.05732 0.55983 0.0
C32 C 0.0851 0.0953 0.55151 0.0
C33 C 0.09112 0.06812 0.55593 0.0
C34 C 0.05838 0.10349 0.55361 0.0
C35 C 0.03819 0.08376 0.55833 0.0
C36 C 0.07038 0.04934 0.56076 0.0
N37 N 0.99359 0.07137 0.57447 0.0
C38 C 0.01188 0.09104 0.56569 0.0
C39 C 0.96013 0.10407 0.59257 0.0
C40 C 0.97833 0.1246 0.58081 0.0
C41 C 0.96832 0.07742 0.59018 0.0
C42 C 1.00477 0.11823 0.56829 0.0
H43 H 0.97205 0.14524 0.58316 0.0
O44 O 0.99039 0.02545 0.63629 0.0
O45 O 0.9903 0.9899 0.54023 0.0
O46 O 0.96993 0.01523 0.4677 0.0
O47 O 0.98242 0.04914 0.51605 0.0
O48 O 0.96609 0.01133 0.58379 0.0
O49 O 0.03238 0.01707 0.62551 0.0
O50 O 0.0217 0.98366 0.39919 0.0
O51 O 0.01961 0.02121 0.49319 0.0
O52 O 0.04095 0.99535 0.56287 0.0
O53 O 0.02316 0.96024 0.52368 0.0
O54 O 0.04473 0.99871 0.45258 0.0
O55 O 0.97946 0.99238 0.40698 0.0
C56 C 0.96741 0.99014 0.56013 0.0
C57 C 0.0245 0.13803 0.5604 0.0
C58 C 0.05129 0.13066 0.55309 0.0
C59 C 0.01305 0.02082 0.65569 0.0
C60 C 0.01931 0.03793 0.694 0.0
C61 C 0.02838 0.06418 0.68499 0.0
C62 C 0.01639 0.02808 0.73986 0.0
C63 C 0.02272 0.04439 0.77647 0.0
C64 C 0.03443 0.08046 0.7209 0.0
C65 C 0.03164 0.07072 0.76627 0.0
C66 C 0.96753 0.03959 0.48378 0.0
C67 C 0.04272 0.02063 0.47413 0.0
C68 C 0.99949 0.98832 0.37821 0.0
C69 C 0.99401 0.97121 0.33951 0.0
C70 C 0.98601 0.94457 0.34785 0.0
C71 C 0.99646 0.98153 0.29388 0.0
C72 C 0.99068 0.9653 0.25688 0.0
C73 C 0.98049 0.92838 0.31156 0.0
C74 C 0.98277 0.9386 0.26642 0.0
C75 C 0.04047 0.96983 0.55211 0.0
H76 H 0.03085 0.07211 0.65023 0.0
H77 H 0.00962 0.0077 0.74689 0.0
H78 H 0.0413 0.10075 0.71352 0.0
H79 H 0.03618 0.08397 0.79346 0.0
H80 H 0.98397 0.93626 0.38236 0.0
H81 H 1.00243 1.00219 0.28731 0.0
H82 H 0.97442 0.9078 0.31845 0.0
H83 H 0.97865 0.92544 0.23888 0.0
Gd84 Gd 0.2326 0.75896 0.82476 0.0
Gd85 Gd 0.27551 0.75131 0.71929 0.0
C86 C 0.34701 0.69486 0.71317 0.0
C87 C 0.38442 0.7259 0.70451 0.0
C88 C 0.33886 0.74258 0.71115 0.0
C89 C 0.32925 0.71666 0.716 0.0
C90 C 0.36652 0.74751 0.70476 0.0
C91 C 0.37467 0.69963 0.70829 0.0
C92 C 0.33639 0.66897 0.71351 0.0
C93 C 0.30872 0.66535 0.71581 0.0
N94 N 0.30239 0.71278 0.71926 0.0
C95 C 0.29192 0.68761 0.71804 0.0
H96 H 0.27057 0.68449 0.71924 0.0
C97 C 0.32921 0.78857 0.69924 0.0
N98 N 0.32095 0.7629 0.70945 0.0
C99 C 0.35648 0.79454 0.69378 0.0
C100 C 0.37525 0.77395 0.69697 0.0
H101 H 0.31473 0.80453 0.69662 0.0
H102 H 0.38864 0.68313 0.70636 0.0
H103 H 0.23756 0.82584 0.82475 0.0
H104 H 0.34934 0.65169 0.71112 0.0
H105 H 0.3003 0.64543 0.71553 0.0
H106 H 0.40576 0.72927 0.69982 0.0
H107 H 0.19327 0.70586 0.84757 0.0
H108 H 0.15881 0.85873 0.83123 0.0
H109 H 0.20786 0.86493 0.82762 0.0
H110 H 0.10231 0.78121 0.84254 0.0
H111 H 0.36299 0.81498 0.68687 0.0
H112 H 0.39634 0.77858 0.69211 0.0
H113 H 0.11948 0.82733 0.83557 0.0
H114 H 0.14497 0.69549 0.85709 0.0
N115 N 0.20576 0.79755 0.82457 0.0
C116 C 0.17176 0.84143 0.82925 0.0
C117 C 0.19943 0.84501 0.82743 0.0
C118 C 0.16112 0.81554 0.8297 0.0
C119 C 0.17888 0.79371 0.82747 0.0
C120 C 0.21623 0.82273 0.82571 0.0
N121 N 0.18712 0.74747 0.83442 0.0
C122 C 0.16924 0.76781 0.83241 0.0
C123 C 0.15152 0.7159 0.85002 0.0
C124 C 0.13278 0.73651 0.84644 0.0
C125 C 0.17881 0.72183 0.84471 0.0
C126 C 0.14156 0.76292 0.83847 0.0
H127 H 0.11167 0.73192 0.85113 0.0
O128 O 0.23161 0.73933 0.89271 0.0
O129 O 0.26719 0.73852 0.79207 0.0
O130 O 0.24045 0.72232 0.72474 0.0
O131 O 0.20759 0.74241 0.77048 0.0
O132 O 0.24387 0.71524 0.83678 0.0
O133 O 0.2436 0.78086 0.88416 0.0
O134 O 0.27643 0.77092 0.65133 0.0
O135 O 0.24103 0.7718 0.75205 0.0
O136 O 0.26755 0.78805 0.81925 0.0
O137 O 0.30048 0.76807 0.77344 0.0
O138 O 0.26421 0.795 0.70708 0.0
O139 O 0.26443 0.7294 0.65994 0.0
C140 C 0.26509 0.7154 0.81041 0.0
C141 C 0.12367 0.78454 0.83815 0.0
C142 C 0.13345 0.81081 0.83412 0.0
C143 C 0.2379 0.76103 0.91328 0.0
C144 C 0.22103 0.7675 0.95387 0.0
C145 C 0.19557 0.77859 0.94839 0.0
C146 C 0.23023 0.76247 0.99845 0.0
C147 C 0.2139 0.76834 0.03727 0.0
C148 C 0.17939 0.78451 0.98649 0.0
C149 C 0.18842 0.77944 0.03064 0.0
C150 C 0.21516 0.72584 0.73834 0.0
C151 C 0.24305 0.79489 0.73358 0.0
C152 C 0.27008 0.74923 0.6308 0.0
C153 C 0.28688 0.74276 0.59012 0.0
C154 C 0.31236 0.73169 0.59545 0.0
C155 C 0.27758 0.74774 0.54558 0.0
C156 C 0.29384 0.74187 0.50669 0.0
C157 C 0.32847 0.72575 0.55728 0.0
C158 C 0.31935 0.73078 0.51319 0.0
C159 C 0.2928 0.78493 0.80505 0.0
H160 H 0.18819 0.78278 0.91475 0.0
H161 H 0.24985 0.75376 1.00286 0.0
H162 H 0.1598 0.79317 0.98177 0.0
H163 H 0.17558 0.78461 0.05964 0.0
H164 H 0.31982 0.72754 0.62904 0.0
H165 H 0.25794 0.75643 0.54128 0.0
H166 H 0.34807 0.71711 0.5619 0.0
H167 H 0.33214 0.72561 0.48413 0.0
Gd168 Gd 0.50092 0.02719 0.96716 0.0
Gd169 Gd 0.50918 0.98447 0.07323 0.0
C170 C 0.56549 0.91287 0.07883 0.0
C171 C 0.53438 0.87551 0.08761 0.0
C172 C 0.51777 0.92111 0.08114 0.0
C173 C 0.54372 0.93069 0.07622 0.0
C174 C 0.5128 0.89345 0.08751 0.0
C175 C 0.56067 0.88521 0.0837 0.0
C176 C 0.59142 0.92342 0.07826 0.0
C177 C 0.59511 0.95109 0.07593 0.0
N178 N 0.54767 0.95756 0.07293 0.0
C179 C 0.57289 0.96796 0.07389 0.0
H180 H 0.57607 0.98929 0.07261 0.0
C181 C 0.47182 0.93082 0.09339 0.0
N182 N 0.49747 0.93905 0.08299 0.0
C183 C 0.46582 0.90355 0.09882 0.0
C184 C 0.48638 0.88475 0.09544 0.0
H185 H 0.45592 0.94533 0.09615 0.0
H186 H 0.57714 0.8712 0.0855 0.0
H187 H 0.43384 0.0214 0.97133 0.0
H188 H 0.60868 0.91042 0.08047 0.0
H189 H 0.61507 0.95944 0.07601 0.0
H190 H 0.53099 0.85417 0.09228 0.0
H191 H 0.5517 0.06669 0.9327 0.0
H192 H 0.39972 0.09955 0.96574 0.0
H193 H 0.39433 0.05043 0.97069 0.0
H194 H 0.4761 0.15704 0.94462 0.0
H195 H 0.4454 0.89706 0.10586 0.0
H196 H 0.48173 0.86366 0.10028 0.0
H197 H 0.43045 0.13933 0.95723 0.0
H198 H 0.56122 0.11496 0.91911 0.0
N199 N 0.46184 0.05359 0.96928 0.0
C200 C 0.41727 0.08689 0.96682 0.0
C201 C 0.41415 0.05918 0.96937 0.0
C202 C 0.44301 0.09792 0.96407 0.0
C203 C 0.46517 0.08051 0.96527 0.0
C204 C 0.43674 0.04275 0.96982 0.0
N205 N 0.51108 0.07275 0.95342 0.0
C206 C 0.49072 0.09044 0.95734 0.0
C207 C 0.54133 0.10837 0.93013 0.0
C208 C 0.52088 0.12701 0.93636 0.0
C209 C 0.53589 0.08111 0.93784 0.0
C210 C 0.49502 0.11809 0.94888 0.0
H211 H 0.52502 0.14809 0.92967 0.0
O212 O 0.51924 0.02746 0.89825 0.0
O213 O 0.52149 0.99277 1.00033 0.0
O214 O 0.53814 0.01935 0.06903 0.0
O215 O 0.52231 0.05208 1.01675 0.0
O216 O 0.54431 0.01537 0.9538 0.0
O217 O 0.47831 0.01438 0.90968 0.0
O218 O 0.48984 0.98277 0.14135 0.0
O219 O 0.48932 0.01975 0.04094 0.0
O220 O 0.47164 0.99244 0.97475 0.0
O221 O 0.49237 0.95944 1.01931 0.0
O222 O 0.46577 0.99622 0.08528 0.0
O223 O 0.53125 0.99518 0.13259 0.0
C224 C 0.54441 0.99453 0.98118 0.0
C225 C 0.4732 0.13571 0.95072 0.0
C226 C 0.44721 0.12562 0.95793 0.0
C227 C 0.49734 0.02024 0.87924 0.0
C228 C 0.48941 0.03642 0.8386 0.0
C229 C 0.47754 0.06152 0.84396 0.0
C230 C 0.49328 0.02671 0.79418 0.0
C231 C 0.4851 0.04201 0.75543 0.0
C232 C 0.46968 0.07685 0.80591 0.0
C233 C 0.4734 0.06722 0.76194 0.0
C234 C 0.53747 0.04405 0.05091 0.0
C235 C 0.4663 0.0178 0.05966 0.0
C236 C 0.51157 0.98925 0.1618 0.0
C237 C 0.51847 0.97251 0.20243 0.0
C238 C 0.52859 0.94666 0.19718 0.0
C239 C 0.51545 0.9825 0.24679 0.0
C240 C 0.52282 0.96675 0.28555 0.0
C241 C 0.53572 0.93094 0.23527 0.0
C242 C 0.53291 0.94086 0.27917 0.0
C243 C 0.4751 0.96714 0.98832 0.0
H244 H 0.47422 0.06928 0.87753 0.0
H245 H 0.50218 0.00717 0.78992 0.0
H246 H 0.46063 0.09626 0.81052 0.0
H247 H 0.46735 0.07969 0.73292 0.0
H248 H 0.53111 0.93862 0.16372 0.0
H249 H 0.50784 1.00257 0.25101 0.0
H250 H 0.54346 0.91097 0.23074 0.0
H251 H 0.53834 0.92811 0.30824 0.0
Gd252 Gd 0.23413 0.25192 0.22373 0.0
Gd253 Gd 0.27705 0.25817 0.32369 0.0
C254 C 0.35365 0.30799 0.31666 0.0
C255 C 0.38801 0.27374 0.32125 0.0
C256 C 0.341 0.26125 0.32371 0.0
C257 C 0.33383 0.28787 0.3188 0.0
C258 C 0.36813 0.2539 0.326 0.0
C259 C 0.38078 0.30075 0.31668 0.0
C260 C 0.34558 0.33476 0.31614 0.0
C261 C 0.31836 0.34088 0.31895 0.0
N262 N 0.30742 0.29417 0.31932 0.0
C263 C 0.29946 0.32024 0.32091 0.0
H264 H 0.27853 0.32534 0.32295 0.0
C265 C 0.32719 0.21659 0.34038 0.0
N266 N 0.32127 0.24269 0.32929 0.0
C267 C 0.35382 0.20825 0.34237 0.0
C268 C 0.37441 0.22693 0.33458 0.0
H269 H 0.31132 0.20208 0.34621 0.0
H270 H 0.39629 0.31592 0.31446 0.0
H271 H 0.233 0.18443 0.22826 0.0
H272 H 0.36018 0.3508 0.31468 0.0
H273 H 0.31188 0.3615 0.31959 0.0
H274 H 0.40899 0.26848 0.32247 0.0
H275 H 0.19932 0.30509 0.18834 0.0
H276 H 0.1518 0.1582 0.24324 0.0
H277 H 0.20012 0.14797 0.23697 0.0
H278 H 0.10208 0.23955 0.22573 0.0
H279 H 0.35845 0.18745 0.34993 0.0
H280 H 0.39502 0.22046 0.33647 0.0
H281 H 0.11528 0.19266 0.24039 0.0
H282 H 0.1521 0.31904 0.1821 0.0
N283 N 0.20391 0.21549 0.23098 0.0
C284 C 0.16619 0.17439 0.23947 0.0
C285 C 0.19343 0.16855 0.23577 0.0
C286 C 0.15783 0.20105 0.23644 0.0
C287 C 0.17743 0.22137 0.23169 0.0
C288 C 0.21208 0.18941 0.23085 0.0
N289 N 0.18961 0.26592 0.21451 0.0
C290 C 0.17002 0.24756 0.22338 0.0
C291 C 0.15683 0.29891 0.19409 0.0
C292 C 0.13635 0.28069 0.20606 0.0
C293 C 0.18351 0.29095 0.1976 0.0
C294 C 0.14282 0.25443 0.21976 0.0
H295 H 0.1157 0.2868 0.20289 0.0
O296 O 0.23604 0.26929 0.15402 0.0
O297 O 0.27086 0.27012 0.2506 0.0
O298 O 0.24502 0.29048 0.32256 0.0
O299 O 0.21142 0.27767 0.27364 0.0
O300 O 0.2493 0.29399 0.20643 0.0
O301 O 0.2443 0.22731 0.16583 0.0
O302 O 0.27678 0.23928 0.39222 0.0
O303 O 0.23957 0.24086 0.29773 0.0
O304 O 0.26585 0.21923 0.22899 0.0
O305 O 0.30068 0.23766 0.26804 0.0
O306 O 0.26191 0.21601 0.33936 0.0
O307 O 0.26844 0.28161 0.38361 0.0
C308 C 0.27044 0.29296 0.23038 0.0
C309 C 0.12311 0.23463 0.22774 0.0
C310 C 0.13062 0.20794 0.23606 0.0
C311 C 0.24071 0.24652 0.1352 0.0
C312 C 0.22377 0.24011 0.09671 0.0
C313 C 0.19761 0.23069 0.10541 0.0
C314 C 0.23366 0.24329 0.05099 0.0
C315 C 0.2175 0.2369 1.01417 0.0
C316 C 0.18147 0.22459 0.06929 0.0
C317 C 0.19126 0.22766 0.02402 0.0
C318 C 0.22068 0.29264 0.30611 0.0
C319 C 0.24006 0.21788 0.31741 0.0
C320 C 0.27233 0.26164 0.41274 0.0
C321 C 0.28945 0.26709 0.45148 0.0
C322 C 0.31608 0.27514 0.44328 0.0
C323 C 0.27914 0.26451 0.49703 0.0
C324 C 0.29537 0.27021 0.53412 0.0
C325 C 0.33228 0.28057 0.47969 0.0
C326 C 0.32206 0.27815 0.52477 0.0
C327 C 0.29135 0.22009 0.23991 0.0
H328 H 0.18966 0.22799 0.14008 0.0
H329 H 0.25397 0.25032 0.04421 0.0
H330 H 0.16125 0.21747 0.07641 0.0
H331 H 0.17813 0.22306 0.99665 0.0
H332 H 0.32438 0.2773 0.40882 0.0
H333 H 0.25848 0.25852 0.50347 0.0
H334 H 0.35285 0.28667 0.47293 0.0
H335 H 0.3352 0.28221 0.55241 0.0
Gd336 Gd 0.73564 0.26229 0.3228 0.0
Gd337 Gd 0.7791 0.25345 0.21863 0.0
C338 C 0.8505 0.19673 0.22201 0.0
C339 C 0.88807 0.22768 0.21722 0.0
C340 C 0.8425 0.24446 0.21609 0.0
C341 C 0.83274 0.2186 0.22016 0.0
C342 C 0.87027 0.24931 0.21352 0.0
C343 C 0.8782 0.20143 0.2215 0.0
C344 C 0.83988 0.17081 0.22336 0.0
C345 C 0.81226 0.16725 0.2214 0.0
N346 N 0.80587 0.2148 0.22027 0.0
C347 C 0.79548 0.1896 0.21924 0.0
H348 H 0.77417 0.18657 0.21803 0.0
C349 C 0.83338 0.29043 0.20238 0.0
N350 N 0.82474 0.26483 0.21212 0.0
C351 C 0.86075 0.29629 0.19996 0.0
C352 C 0.87929 0.27568 0.2061 0.0
H353 H 0.81907 0.30641 0.19791 0.0
H354 H 0.89215 0.1849 0.22335 0.0
H355 H 0.74227 0.33008 0.32028 0.0
H356 H 0.85283 0.15347 0.22505 0.0
H357 H 0.80387 0.1473 0.22175 0.0
H358 H 0.9095 0.23099 0.21577 0.0
H359 H 0.69424 0.20962 0.3483 0.0
H360 H 0.66405 0.36378 0.31813 0.0
H361 H 0.71312 0.36935 0.31725 0.0
H362 H 0.60617 0.28781 0.33615 0.0
H363 H 0.86752 0.31667 0.19342 0.0
H364 H 0.90048 0.28025 0.20401 0.0
H365 H 0.62439 0.33326 0.32431 0.0
H366 H 0.64588 0.20142 0.35909 0.0
N367 N 0.71024 0.30182 0.32098 0.0
C368 C 0.67677 0.34626 0.3193 0.0
C369 C 0.70446 0.34949 0.31888 0.0
C370 C 0.6658 0.32051 0.32274 0.0
C371 C 0.68323 0.29831 0.32413 0.0
C372 C 0.72098 0.32698 0.3205 0.0
N373 N 0.69002 0.25148 0.33398 0.0
C374 C 0.67288 0.27253 0.33079 0.0
C375 C 0.6532 0.22149 0.35113 0.0
C376 C 0.63526 0.24264 0.34585 0.0
C377 C 0.68066 0.2263 0.34553 0.0
C378 C 0.64497 0.26855 0.33611 0.0
H379 H 0.61398 0.23881 0.35016 0.0
O380 O 0.75927 0.25168 0.38229 0.0
O381 O 0.76894 0.23995 0.29075 0.0
O382 O 0.74357 0.22518 0.22065 0.0
O383 O 0.71105 0.24184 0.27184 0.0
O384 O 0.74276 0.21772 0.33321 0.0
O385 O 0.72441 0.27615 0.39079 0.0
O386 O 0.78081 0.27336 0.15108 0.0
O387 O 0.74445 0.27449 0.24989 0.0
O388 O 0.76956 0.29224 0.3149 0.0
O389 O 0.80301 0.26976 0.27468 0.0
O390 O 0.76809 0.29706 0.20453 0.0
O391 O 0.77039 0.23131 0.15822 0.0
C392 C 0.76466 0.21677 0.30824 0.0
C393 C 0.62765 0.29055 0.33264 0.0
C394 C 0.63802 0.31644 0.32592 0.0
C395 C 0.74303 0.26281 0.41146 0.0
C396 C 0.73429 0.2461 0.452 0.0
C397 C 0.72135 0.22165 0.44627 0.0
C398 C 0.73856 0.25454 0.49667 0.0
C399 C 0.72935 0.23881 0.53525 0.0
C400 C 0.71214 0.2061 0.48425 0.0
C401 C 0.71597 0.21463 0.52846 0.0
C402 C 0.7187 0.22654 0.23783 0.0
C403 C 0.74661 0.29725 0.23024 0.0
C404 C 0.77572 0.25157 0.12979 0.0
C405 C 0.79338 0.24622 0.08971 0.0
C406 C 0.82021 0.2393 0.09559 0.0
C407 C 0.78352 0.24837 0.04512 0.0
C408 C 0.80044 0.24362 1.00651 0.0
C409 C 0.83711 0.23476 0.05768 0.0
C410 C 0.82739 0.23696 1.01346 0.0
C411 C 0.79506 0.28737 0.30482 0.0
H412 H 0.71846 0.21448 0.41248 0.0
H413 H 0.74875 0.2733 0.50137 0.0
H414 H 0.70214 0.18728 0.4794 0.0
H415 H 0.70899 0.20199 0.55746 0.0
H416 H 0.82816 0.23749 0.12937 0.0
H417 H 0.76268 0.25339 0.04066 0.0
H418 H 0.85785 0.22961 0.06259 0.0
H419 H 0.84111 0.23371 0.98466 0.0
Gd420 Gd 0.73393 0.75365 0.72158 0.0
Gd421 Gd 0.77668 0.75838 0.82171 0.0
C422 C 0.8521 0.81051 0.81496 0.0
C423 C 0.88734 0.77736 0.82201 0.0
C424 C 0.8407 0.76354 0.82262 0.0
C425 C 0.83289 0.78981 0.81617 0.0
C426 C 0.86797 0.75704 0.82687 0.0
C427 C 0.8794 0.8041 0.8164 0.0
C428 C 0.84323 0.83703 0.81487 0.0
C429 C 0.81589 0.84234 0.81656 0.0
N430 N 0.80631 0.79526 0.81625 0.0
C431 C 0.79765 0.82114 0.81786 0.0
H432 H 0.77667 0.8258 0.81952 0.0
C433 C 0.82781 0.71938 0.84479 0.0
N434 N 0.82139 0.7447 0.82965 0.0
C435 C 0.85457 0.71174 0.84825 0.0
C436 C 0.87479 0.73057 0.8385 0.0
H437 H 0.81217 0.70487 0.85287 0.0
H438 H 0.89446 0.81971 0.81492 0.0
H439 H 0.73203 0.68648 0.72093 0.0
H440 H 0.85728 0.85351 0.81487 0.0
H441 H 0.80882 0.86277 0.8172 0.0
H442 H 0.9084 0.77275 0.82474 0.0
H443 H 0.69995 0.80998 0.69953 0.0
H444 H 0.65023 0.66149 0.72964 0.0
H445 H 0.69845 0.65051 0.72421 0.0
H446 H 0.60191 0.74411 0.72297 0.0
H447 H 0.85956 0.69142 0.85881 0.0
H448 H 0.8955 0.72474 0.84198 0.0
H449 H 0.61434 0.69658 0.73046 0.0
H450 H 0.6529 0.82489 0.69596 0.0
N451 N 0.70334 0.7178 0.72538 0.0
C452 C 0.66493 0.67744 0.72829 0.0
C453 C 0.69211 0.67117 0.72514 0.0
C454 C 0.65702 0.70426 0.72819 0.0
C455 C 0.67696 0.72425 0.72622 0.0
C456 C 0.71113 0.6917 0.72324 0.0
N457 N 0.68978 0.76939 0.71616 0.0
C458 C 0.66994 0.75093 0.72165 0.0
C459 C 0.65741 0.80404 0.70337 0.0
C460 C 0.63673 0.78547 0.71109 0.0
C461 C 0.684 0.79555 0.70528 0.0
C462 C 0.64285 0.75845 0.71948 0.0
H463 H 0.61615 0.79207 0.70927 0.0
O464 O 0.73403 0.77295 0.65336 0.0
O465 O 0.7716 0.77048 0.74808 0.0
O466 O 0.74484 0.791 0.81825 0.0
O467 O 0.71013 0.77373 0.77748 0.0
O468 O 0.74926 0.79594 0.70769 0.0
O469 O 0.74256 0.73064 0.66117 0.0
O470 O 0.77589 0.73997 0.8907 0.0
O471 O 0.73985 0.74073 0.79438 0.0
O472 O 0.76573 0.72113 0.72148 0.0
O473 O 0.79938 0.73344 0.77057 0.0
O474 O 0.7615 0.71613 0.83716 0.0
O475 O 0.76601 0.78173 0.88096 0.0
C476 C 0.77112 0.79376 0.72955 0.0
C477 C 0.62286 0.73872 0.7241 0.0
C478 C 0.62993 0.71165 0.72837 0.0
C479 C 0.73847 0.75073 0.63241 0.0
C480 C 0.72116 0.74536 0.59387 0.0
C481 C 0.69446 0.73766 0.60238 0.0
C482 C 0.73138 0.74752 0.54823 0.0
C483 C 0.71498 0.74175 0.51142 0.0
C484 C 0.6781 0.73215 0.56625 0.0
C485 C 0.68822 0.73414 0.52109 0.0
C486 C 0.71947 0.79072 0.80659 0.0
C487 C 0.74022 0.71762 0.8136 0.0
C488 C 0.77048 0.76225 0.91066 0.0
C489 C 0.78739 0.76876 0.94915 0.0
C490 C 0.81354 0.77814 0.94044 0.0
C491 C 0.77744 0.76582 0.99487 0.0
C492 C 0.79357 0.77244 0.0316 0.0
C493 C 0.82966 0.78445 0.97646 0.0
C494 C 0.81983 0.78163 0.02171 0.0
C495 C 0.79008 0.71878 0.73776 0.0
H496 H 0.68623 0.73581 0.63688 0.0
H497 H 0.75209 0.75324 0.54151 0.0
H498 H 0.65748 0.72631 0.57328 0.0
H499 H 0.67497 0.73003 0.49364 0.0
H500 H 0.82153 0.78067 0.90584 0.0
H501 H 0.75712 0.75884 1.00171 0.0
H502 H 0.84988 0.79155 0.96927 0.0
H503 H 0.83293 0.78637 0.04904 0.0
Gd504 Gd 0.5064 0.52742 0.07266 0.0
Gd505 Gd 0.50379 0.48421 0.97366 0.0
C506 C 0.45491 0.40698 0.97593 0.0
C507 C 0.48961 0.37307 0.97216 0.0
C508 C 0.50151 0.42019 0.97269 0.0
C509 C 0.47477 0.42698 0.9765 0.0
C510 C 0.50924 0.3932 0.96945 0.0
C511 C 0.46247 0.37996 0.97515 0.0
C512 C 0.42812 0.41479 0.9739 0.0
C513 C 0.42168 0.44191 0.97241 0.0
N514 N 0.46816 0.45331 0.97622 0.0
C515 C 0.44205 0.46098 0.97307 0.0
H516 H 0.43665 0.48181 0.97146 0.0
C517 C 0.54608 0.43472 0.95776 0.0
N518 N 0.51983 0.44019 0.96828 0.0
C519 C 0.55479 0.40825 0.95503 0.0
C520 C 0.53634 0.38737 0.96151 0.0
H521 H 0.56042 0.45081 0.95276 0.0
H522 H 0.44749 0.3643 0.97538 0.0
H523 H 0.57358 0.52836 0.07627 0.0
H524 H 0.41231 0.4001 0.97228 0.0
H525 H 0.40103 0.44815 0.97037 0.0
H526 H 0.49515 0.3522 0.97016 0.0
H527 H 0.45035 0.56222 0.09112 0.0
H528 H 0.59963 0.6096 0.0731 0.0
H529 H 0.60987 0.56132 0.07686 0.0
H530 H 0.51783 0.65929 0.07153 0.0
H531 H 0.5757 0.40398 0.94785 0.0
H532 H 0.54309 0.36689 0.95889 0.0
H533 H 0.56523 0.64611 0.06818 0.0
H534 H 0.43602 0.6095 0.09342 0.0
N535 N 0.5427 0.55749 0.07013 0.0
C536 C 0.58352 0.59521 0.07178 0.0
C537 C 0.58937 0.56797 0.07429 0.0
C538 C 0.55691 0.60356 0.06905 0.0
C539 C 0.53665 0.58396 0.06882 0.0
C540 C 0.56862 0.54929 0.07392 0.0
N541 N 0.49124 0.57182 0.07623 0.0
C542 C 0.51003 0.59137 0.07156 0.0
C543 C 0.45688 0.60469 0.08708 0.0
C544 C 0.47583 0.6251 0.08024 0.0
C545 C 0.46504 0.57799 0.08586 0.0
C546 C 0.50286 0.61858 0.07344 0.0
H547 H 0.46951 0.64577 0.08174 0.0
O548 O 0.48585 0.52727 0.13968 0.0
O549 O 0.48994 0.48987 0.04592 0.0
O550 O 0.47043 0.5154 0.97426 0.0
O551 O 0.48637 0.55053 1.01563 0.0
O552 O 0.46388 0.5121 0.08482 0.0
O553 O 0.5283 0.51912 0.13468 0.0
O554 O 0.52378 0.48559 0.90608 0.0
O555 O 0.52032 0.52169 1.00053 0.0
O556 O 0.53908 0.49556 0.07352 0.0
O557 O 0.52406 0.46077 0.03016 0.0
O558 O 0.54632 0.49955 0.96157 0.0
O559 O 0.48122 0.49275 0.91246 0.0
C560 C 0.46639 0.49027 0.06307 0.0
C561 C 0.52294 0.63826 0.07054 0.0
C562 C 0.54992 0.63076 0.06862 0.0
C563 C 0.50764 0.52312 0.16211 0.0
C564 C 0.51193 0.54067 0.20068 0.0
C565 C 0.51943 0.56745 0.19222 0.0
C566 C 0.50835 0.53076 0.24634 0.0
C567 C 0.51199 0.54768 0.28328 0.0
C568 C 0.52315 0.58423 0.22847 0.0
C569 C 0.51946 0.57449 0.27368 0.0
C570 C 0.46996 0.54078 0.98588 0.0
C571 C 0.5439 0.52131 0.98351 0.0
C572 C 0.50171 0.48947 0.88434 0.0
C573 C 0.49746 0.47218 0.84541 0.0
C574 C 0.48975 0.44542 0.85339 0.0
C575 C 0.50128 0.48228 0.79989 0.0
C576 C 0.49767 0.46557 0.76266 0.0
C577 C 0.48606 0.42884 0.81685 0.0
C578 C 0.49001 0.43877 0.77179 0.0
C579 C 0.53971 0.47026 0.06142 0.0
H580 H 0.52245 0.57541 0.15769 0.0
H581 H 0.50242 0.5101 0.25304 0.0
H582 H 0.52901 0.60486 0.22147 0.0
H583 H 0.52284 0.58788 0.30121 0.0
H584 H 0.4865 0.43732 0.88778 0.0
H585 H 0.50736 0.50293 0.79354 0.0
H586 H 0.48004 0.40823 0.82349 0.0
H587 H 0.48664 0.42554 0.74403 0.0
Gd588 Gd 0.99685 0.52522 0.46953 0.0
Gd589 Gd 0.01456 0.48632 0.57613 0.0
C590 C 0.07356 0.41669 0.57671 0.0
C591 C 0.04449 0.37868 0.59613 0.0
C592 C 0.02609 0.42361 0.59019 0.0
C593 C 0.05118 0.4338 0.57847 0.0
C594 C 0.02249 0.396 0.59997 0.0
C595 C 0.06999 0.38902 0.58459 0.0
C596 C 0.09893 0.42799 0.56837 0.0
C597 C 0.10155 0.45573 0.56313 0.0
N598 N 0.05392 0.46066 0.57135 0.0
C599 C 0.07875 0.47187 0.56521 0.0
H600 H 0.08113 0.49325 0.56109 0.0
C601 C 0.98085 0.43225 0.6107 0.0
N602 N 1.00539 0.44094 0.59415 0.0
C603 C 0.9762 0.40501 0.6204 0.0
C604 C 0.99705 0.38675 0.61451 0.0
H605 H 0.96466 0.44631 0.61512 0.0
H606 H 0.08691 0.37553 0.58288 0.0
H607 H 0.93023 0.51797 0.48525 0.0
H608 H 0.11663 0.41553 0.56689 0.0
H609 H 0.12112 0.46472 0.55745 0.0
H610 H 0.0421 0.35737 0.60314 0.0
H611 H 0.04615 0.56557 0.4294 0.0
H612 H 0.89461 0.59562 0.48422 0.0
H613 H 0.89027 0.54639 0.49188 0.0
H614 H 0.96862 0.6542 0.44589 0.0
H615 H 0.95657 0.39813 0.6324 0.0
H616 H 0.99344 0.36567 0.62228 0.0
H617 H 0.92408 0.6358 0.46755 0.0
H618 H 0.05392 0.61387 0.41263 0.0
N619 N 0.95733 0.55068 0.47519 0.0
C620 C 0.9123 0.58322 0.48124 0.0
C621 C 0.90976 0.55545 0.4855 0.0
C622 C 0.93755 0.59463 0.47197 0.0
C623 C 0.95994 0.57758 0.46879 0.0
C624 C 0.93256 0.53937 0.48172 0.0
N625 N 0.00561 0.5707 0.45168 0.0
C626 C 0.98489 0.58792 0.45658 0.0
C627 C 0.03443 0.60685 0.42516 0.0
C628 C 0.0136 0.62501 0.43211 0.0
C629 C 0.02996 0.57955 0.43455 0.0
C630 C 0.98833 0.6156 0.44733 0.0
H631 H 0.01707 0.64614 0.42467 0.0
O632 O 0.01152 0.52394 0.39841 0.0
O633 O 0.02107 0.49252 0.50061 0.0
O634 O 0.04203 0.5218 0.5594 0.0
O635 O 0.01758 0.55263 0.51572 0.0
O636 O 0.03969 0.51517 0.44851 0.0
O637 O 0.97126 0.51073 0.41718 0.0
O638 O 0.99993 0.48761 0.64728 0.0
O639 O 0.99045 0.51896 0.54498 0.0
O640 O 0.96945 0.48975 0.48631 0.0
O641 O 0.99397 0.45887 0.52974 0.0
O642 O 0.97178 0.49656 0.59724 0.0
O643 O 0.04011 0.50101 0.62837 0.0
C644 C 0.04243 0.49492 0.47656 0.0
C645 C 0.96635 0.63283 0.45243 0.0
C646 C 0.94099 0.62236 0.46475 0.0
C647 C 0.98867 0.51599 0.38361 0.0
C648 C 0.97868 0.53081 0.34288 0.0
C649 C 0.96256 0.55348 0.34825 0.0
C650 C 0.98516 0.52234 0.29827 0.0
C651 C 0.97533 0.53633 0.25933 0.0
C652 C 0.95306 0.56756 0.31003 0.0
C653 C 0.95935 0.55911 0.26593 0.0
C654 C 0.03697 0.5465 0.54389 0.0
C655 C 0.96911 0.51676 0.56908 0.0
C656 C 0.02274 0.49574 0.662 0.0
C657 C 0.03284 0.48111 0.70285 0.0
C658 C 0.04921 0.4586 0.69767 0.0
C659 C 0.02627 0.48965 0.74739 0.0
C660 C 0.03625 0.47588 0.78644 0.0
C661 C 0.05883 0.44472 0.736 0.0
C662 C 0.05245 0.45323 0.78001 0.0
C663 C 0.97442 0.46506 0.50193 0.0
H664 H 0.9572 0.5603 0.38196 0.0
H665 H 0.99743 0.5047 0.29399 0.0
H666 H 0.94074 0.58511 0.3146 0.0
H667 H 0.95189 0.57064 0.23689 0.0
H668 H 0.05469 0.45176 0.66405 0.0
H669 H 0.01383 0.50719 0.75153 0.0
H670 H 0.07134 0.42729 0.73156 0.0
H671 H 0.06001 0.44186 0.80913 0.0
H672 H 0.02919 0.07384 0.45911 0.0
H673 H 0.05902 0.11063 0.4308 0.0
H674 H 0.12559 0.05594 0.42804 0.0
H675 H 0.096 0.01945 0.456 0.0
H676 H 0.10639 0.13232 0.46596 0.0
H677 H 0.12807 0.08852 0.29744 0.0
H678 H 0.10082 0.07697 0.3354 0.0
H679 H 0.1344 0.06558 0.34465 0.0
C680 C 0.05026 0.06984 0.45296 0.0
C681 C 0.06037 0.04385 0.46061 0.0
C682 C 0.06728 0.09083 0.43652 0.0
C683 C 0.0946 0.0861 0.42654 0.0
C684 C 0.10459 0.06015 0.43459 0.0
H685 H 0.24097 0.16462 0.33668 0.0
H686 H 0.20396 0.13507 0.36258 0.0
C687 C 0.08768 0.03929 0.45089 0.0
C688 C 0.11288 0.10792 0.40748 0.0
H689 H 0.15754 0.12322 0.31853 0.0
C690 C 0.11735 0.13049 0.43348 0.0
C691 C 0.12711 0.10581 0.36484 0.0
C692 C 0.12219 0.08306 0.33371 0.0
C693 C 0.13659 0.15011 0.41926 0.0
C694 C 0.15155 0.1474 0.37744 0.0
C695 C 0.14633 0.12533 0.35071 0.0
C696 C 0.17386 0.16611 0.36202 0.0
C697 C 0.14157 0.17294 0.45013 0.0
C698 C 0.16949 0.19359 0.35272 0.0
C699 C 0.19077 0.21058 0.33756 0.0
C700 C 0.21676 0.20034 0.33082 0.0
C701 C 0.2211 0.173 0.3408 0.0
C702 C 0.19992 0.15609 0.35566 0.0
H703 H 0.13263 0.16915 0.48521 0.0
H704 H 0.16336 0.17654 0.45282 0.0
H705 H 0.13249 0.19143 0.43535 0.0
H706 H 0.14959 0.20188 0.35662 0.0
H707 H 0.18692 0.23168 0.33117 0.0
H708 H 0.08643 0.98291 0.59444 0.0
H709 H 0.11998 0.95256 0.62608 0.0
H710 H 0.07411 0.8848 0.58651 0.0
H711 H 0.04026 0.91499 0.55497 0.0
H712 H 0.09243 0.88304 0.68086 0.0
H713 H 0.17405 0.90583 0.55107 0.0
H714 H 0.15804 0.93435 0.57573 0.0
H715 H 0.13933 0.91293 0.54067 0.0
C716 C 0.08343 0.96157 0.59231 0.0
C717 C 0.06073 0.95143 0.5717 0.0
C718 C 0.10274 0.94425 0.6102 0.0
C719 C 0.09972 0.91646 0.60803 0.0
C720 C 0.07693 0.9062 0.58815 0.0
H721 H 0.19114 0.78107 0.71908 0.0
H722 H 0.1557 0.80998 0.6906 0.0
C723 C 0.05766 0.92351 0.56998 0.0
C724 C 0.12 0.89813 0.62783 0.0
H725 H 0.18531 0.87907 0.61612 0.0
C726 C 0.11274 0.88202 0.66669 0.0
C727 C 0.14644 0.89697 0.6093 0.0
C728 C 0.15501 0.91325 0.56667 0.0
C729 C 0.13142 0.86528 0.68839 0.0
C730 C 0.15805 0.86409 0.67007 0.0
C731 C 0.16509 0.88004 0.63066 0.0
C732 C 0.17898 0.84652 0.69075 0.0
C733 C 0.12255 0.84993 0.73172 0.0
C734 C 0.20431 0.85703 0.69954 0.0
C735 C 0.22485 0.8403 0.71496 0.0
C736 C 0.22035 0.8128 0.723 0.0
C737 C 0.19496 0.8023 0.71492 0.0
C738 C 0.17458 0.81892 0.69864 0.0
H739 H 0.10508 0.85949 0.74902 0.0
H740 H 0.11654 0.82941 0.72325 0.0
H741 H 0.13898 0.84856 0.756 0.0
H742 H 0.20839 0.87817 0.6936 0.0
H743 H 0.24438 0.8488 0.72018 0.0
H744 H 0.28541 0.8284 0.85765 0.0
H745 H 0.31998 0.8562 0.88886 0.0
H746 H 0.38119 0.80611 0.8296 0.0
H747 H 0.34686 0.77802 0.79844 0.0
H748 H 0.36269 0.83948 0.94867 0.0
H749 H 0.39844 0.8838 0.77914 0.0
H750 H 0.36647 0.86718 0.78725 0.0
H751 H 0.39667 0.84789 0.78453 0.0
C752 C 0.3062 0.82324 0.85131 0.0
C753 C 0.31345 0.8013 0.82497 0.0
C754 C 0.32587 0.8391 0.86918 0.0
C755 C 0.35295 0.83326 0.86089 0.0
C756 C 0.3603 0.81106 0.83559 0.0
H757 H 0.48238 0.9131 0.99419 0.0
H758 H 0.4543 0.8788 0.96295 0.0
C759 C 0.34067 0.79514 0.81775 0.0
C760 C 0.37343 0.85075 0.87843 0.0
H761 H 0.42005 0.89781 0.84461 0.0
C762 C 0.37542 0.85212 0.92608 0.0
C763 C 0.38974 0.86714 0.84847 0.0
C764 C 0.38774 0.86669 0.79697 0.0
C765 C 0.39316 0.86999 0.9448 0.0
C766 C 0.40927 0.88657 0.91485 0.0
C767 C 0.40762 0.88486 0.86719 0.0
C768 C 0.42675 0.90705 0.93244 0.0
C769 C 0.39391 0.87169 0.99632 0.0
C770 C 0.42066 0.93413 0.92462 0.0
C771 C 0.43651 0.95377 0.94255 0.0
C772 C 0.45867 0.94651 0.96848 0.0
C773 C 0.46507 0.9193 0.97523 0.0
C774 C 0.44917 0.89969 0.95733 0.0
H775 H 0.37699 0.86076 1.01423 0.0
H776 H 0.41286 0.86282 1.0084 0.0
H777 H 0.39333 0.89288 1.00631 0.0
H778 H 0.40338 0.94003 0.90525 0.0
H779 H 0.43117 0.97456 0.93655 0.0
H780 H 0.41283 0.01656 0.07737 0.0
H781 H 0.38418 0.05273 0.10469 0.0
H782 H 0.4525 0.10559 0.10109 0.0
H783 H 0.48072 0.06984 0.07133 0.0
H784 H 0.38489 0.07651 0.18085 0.0
H785 H 0.40159 0.15557 0.04432 0.0
H786 H 0.41234 0.12159 0.03796 0.0
H787 H 0.43212 0.14431 0.06904 0.0
C788 C 0.42151 0.03613 0.08141 0.0
C789 C 0.4488 0.04059 0.07124 0.0
C790 C 0.40519 0.05678 0.09724 0.0
C791 C 0.41593 0.08222 0.10443 0.0
C792 C 0.44336 0.0866 0.09445 0.0
H793 H 0.34614 0.22134 0.23698 0.0
H794 H 0.37693 0.18779 0.20651 0.0
C795 C 0.45957 0.06607 0.07761 0.0
C796 C 0.3987 0.10331 0.12527 0.0
H797 H 0.37837 0.16843 0.11219 0.0
C798 C 0.3834 0.09652 0.1655 0.0
C799 C 0.39682 0.12968 0.10588 0.0
C800 C 0.41143 0.13824 0.06171 0.0
C801 C 0.36633 0.11513 0.18644 0.0
C802 C 0.36439 0.14126 0.16673 0.0
C803 C 0.37997 0.14833 0.12722 0.0
C804 C 0.34572 0.16135 0.18588 0.0
C805 C 0.35062 0.1068 0.22978 0.0
C806 C 0.31797 0.15774 0.18386 0.0
C807 C 0.30031 0.17689 0.2011 0.0
C808 C 0.31007 0.19998 0.22093 0.0
C809 C 0.33792 0.20362 0.22254 0.0
C810 C 0.35557 0.18453 0.20499 0.0
H811 H 0.35849 0.08806 0.24592 0.0
H812 H 0.35099 0.12282 0.25507 0.0
H813 H 0.32946 0.10334 0.22142 0.0
H814 H 0.30998 0.14017 0.1686 0.0
H815 H 0.27903 0.17346 0.19913 0.0
H816 H 0.97933 0.93622 0.57014 0.0
H817 H 0.94847 0.89951 0.59361 0.0
H818 H 0.88393 0.95625 0.6056 0.0
H819 H 0.91429 0.99238 0.57956 0.0
H820 H 0.92155 0.88778 0.66806 0.0
H821 H 0.8458 0.90295 0.53741 0.0
H822 H 0.87705 0.92084 0.53395 0.0
H823 H 0.84923 0.93298 0.56812 0.0
C824 C 0.95836 0.94065 0.57631 0.0
C825 C 0.94902 0.96708 0.571 0.0
C826 C 0.94071 0.91967 0.59035 0.0
C827 C 0.91338 0.92468 0.60023 0.0
C828 C 0.90443 0.95133 0.59637 0.0
H829 H 0.7707 0.84738 0.71437 0.0
H830 H 0.80695 0.87665 0.68472 0.0
C831 C 0.92193 0.97212 0.58181 0.0
C832 C 0.89455 0.90261 0.61722 0.0
H833 H 0.83132 0.87795 0.60596 0.0
C834 C 0.90193 0.88547 0.65406 0.0
C835 C 0.8689 0.89903 0.59898 0.0
C836 C 0.85993 0.91476 0.55712 0.0
C837 C 0.88412 0.86617 0.67457 0.0
C838 C 0.85791 0.86365 0.65795 0.0
C839 C 0.85102 0.88002 0.61982 0.0
C840 C 0.83672 0.84535 0.68016 0.0
C841 C 0.89348 0.84943 0.71489 0.0
C842 C 0.84099 0.81771 0.68857 0.0
C843 C 0.82018 0.80093 0.70674 0.0
C844 C 0.79452 0.81132 0.71633 0.0
C845 C 0.7903 0.83881 0.70787 0.0
C846 C 0.81109 0.85557 0.69062 0.0
H847 H 0.91029 0.85906 0.73194 0.0
H848 H 0.877 0.84582 0.74051 0.0
H849 H 0.90059 0.82982 0.70281 0.0
H850 H 0.86013 0.80886 0.67982 0.0
H851 H 0.82391 0.77971 0.71175 0.0
H852 H 0.92767 0.0654 0.52994 0.0
H853 H 0.89293 0.09412 0.49769 0.0
H854 H 0.92625 0.08234 0.36136 0.0
H855 H 0.9603 0.05261 0.3938 0.0
H856 H 0.89445 0.13927 0.45388 0.0
H857 H 0.85056 0.06753 0.3381 0.0
H858 H 0.87481 0.05753 0.37964 0.0
H859 H 0.88547 0.07267 0.3249 0.0
C860 C 0.92761 0.0691 0.49317 0.0
C861 C 0.94672 0.05706 0.46434 0.0
C862 C 0.90765 0.08539 0.47464 0.0
C863 C 0.90654 0.09016 0.42688 0.0
C864 C 0.92601 0.07838 0.39812 0.0
H865 H 0.818 0.227 0.31636 0.0
H866 H 0.85259 0.19609 0.34151 0.0
C867 C 0.94563 0.06161 0.41665 0.0
C868 C 0.88556 0.10816 0.40766 0.0
H869 H 0.83755 0.11319 0.32714 0.0
C870 C 0.8819 0.13342 0.42637 0.0
C871 C 0.86878 0.10054 0.37219 0.0
C872 C 0.86989 0.07298 0.35292 0.0
C873 C 0.8622 0.15121 0.41069 0.0
C874 C 0.84637 0.14415 0.37363 0.0
C875 C 0.84986 0.11883 0.35508 0.0
C876 C 0.8257 0.16246 0.35438 0.0
C877 C 0.85811 0.17702 0.43519 0.0
C878 C 0.7992 0.15363 0.35054 0.0
C879 C 0.77953 0.17112 0.33415 0.0
C880 C 0.786 0.1977 0.32102 0.0
C881 C 0.81249 0.20647 0.32483 0.0
C882 C 0.83224 0.18889 0.34023 0.0
H883 H 0.86515 0.17532 0.4709 0.0
H884 H 0.86988 0.19316 0.41678 0.0
H885 H 0.83672 0.18297 0.43653 0.0
H886 H 0.79358 0.13336 0.36119 0.0
H887 H 0.75916 0.16398 0.33234 0.0
H888 H 0.66449 0.22985 0.24988 0.0
H889 H 0.63104 0.19919 0.22313 0.0
H890 H 0.6932 0.15463 0.15393 0.0
H891 H 0.72696 0.18438 0.18236 0.0
H892 H 0.6185 0.18754 0.13625 0.0
H893 H 0.65363 0.09675 0.23084 0.0
H894 H 0.6648 0.12994 0.24309 0.0
H895 H 0.67965 0.1126 0.19563 0.0
C896 C 0.67112 0.21323 0.22972 0.0
C897 C 0.69842 0.20908 0.21929 0.0
C898 C 0.65196 0.19592 0.21412 0.0
C899 C 0.6598 0.17436 0.18757 0.0
C900 C 0.68691 0.17077 0.17553 0.0
H901 H 0.56948 0.08184 1.00782 0.0
H902 H 0.59676 0.11509 0.04367 0.0
C903 C 0.70612 0.18792 0.19146 0.0
C904 C 0.63959 0.15584 0.17166 0.0
H905 H 0.62323 0.0898 0.17096 0.0
C906 C 0.61932 0.16619 0.14414 0.0
C907 C 0.64047 0.12814 0.18297 0.0
C908 C 0.66064 0.11622 0.21516 0.0
C909 C 0.60039 0.14931 0.12603 0.0
C910 C 0.60237 0.12141 0.13487 0.0
C911 C 0.62202 0.11121 0.16384 0.0
C912 C 0.58488 0.10229 0.11326 0.0
C913 C 0.57848 0.16151 0.09777 0.0
C914 C 0.56984 0.08367 0.14055 0.0
C915 C 0.55447 0.06457 0.12002 0.0
C916 C 0.55386 0.06402 0.07202 0.0
C917 C 0.56897 0.08253 0.04478 0.0
C918 C 0.58455 0.10147 0.06526 0.0
H919 H 0.57467 0.18262 0.1065 0.0
H920 H 0.58466 0.16135 0.06086 0.0
H921 H 0.55952 0.15005 0.10293 0.0
H922 H 0.57007 0.0839 0.17767 0.0
H923 H 0.54285 0.05044 0.14163 0.0
H924 H 0.66466 0.79071 0.80767 0.0
H925 H 0.63431 0.82476 0.83774 0.0
H926 H 0.7018 0.87023 0.87973 0.0
H927 H 0.73228 0.83648 0.84961 0.0
H928 H 0.63182 0.84325 0.93216 0.0
H929 H 0.65609 0.92447 0.80198 0.0
H930 H 0.66295 0.88966 0.79215 0.0
H931 H 0.68426 0.90821 0.82763 0.0
C932 C 0.67309 0.80807 0.8229 0.0
C933 C 0.70097 0.81098 0.82568 0.0
C934 C 0.65569 0.82745 0.84022 0.0
C935 C 0.66584 0.8502 0.8603 0.0
C936 C 0.69359 0.85304 0.86364 0.0
H937 H 0.59833 0.99557 0.96846 0.0
H938 H 0.62758 0.95935 0.94287 0.0
C939 C 0.71098 0.83361 0.84661 0.0
C940 C 0.64743 0.87061 0.87919 0.0
H941 H 0.62883 0.93601 0.86604 0.0
C942 C 0.63101 0.86353 0.91768 0.0
C943 C 0.64655 0.89701 0.86026 0.0
C944 C 0.66322 0.90538 0.81799 0.0
C945 C 0.61424 0.88237 0.93867 0.0
C946 C 0.61333 0.90897 0.91998 0.0
C947 C 0.62958 0.91582 0.88088 0.0
C948 C 0.59579 0.93008 0.93999 0.0
C949 C 0.59859 0.87368 0.98174 0.0
C950 C 0.56816 0.92585 0.94754 0.0
C951 C 0.5516 0.94636 0.96335 0.0
C952 C 0.56222 0.97171 0.97124 0.0
C953 C 0.58975 0.97606 0.96344 0.0
C954 C 0.60641 0.95539 0.94856 0.0
H955 H 0.60793 0.8562 0.99952 0.0
H956 H 0.59719 0.89019 1.00573 0.0
H957 H 0.57809 0.86777 0.97287 0.0
H958 H 0.55913 0.907 0.93962 0.0
H959 H 0.53034 0.94267 0.96724 0.0
H960 H 0.59769 0.52113 0.97076 0.0
H961 H 0.62706 0.55739 0.94122 0.0
H962 H 0.55918 0.61034 0.93359 0.0
H963 H 0.52988 0.57409 0.96481 0.0
H964 H 0.62788 0.58173 0.8608 0.0
H965 H 0.60978 0.66039 0.98714 0.0
H966 H 0.59713 0.62687 0.99623 0.0
H967 H 0.58036 0.6502 0.95888 0.0
C968 C 0.58911 0.54069 0.96372 0.0
C969 C 0.56153 0.54481 0.97109 0.0
C970 C 0.60593 0.56147 0.94655 0.0
C971 C 0.59569 0.58702 0.93532 0.0
C972 C 0.56801 0.59124 0.9429 0.0
H973 H 0.68634 0.7297 0.82429 0.0
H974 H 0.64966 0.69891 0.84833 0.0
C975 C 0.55115 0.57042 0.96074 0.0
C976 C 0.61399 0.60817 0.91304 0.0
H977 H 0.63834 0.67171 0.92318 0.0
C978 C 0.6301 0.60139 0.87467 0.0
C979 C 0.61668 0.6343 0.92978 0.0
C980 C 0.60022 0.64343 0.97045 0.0
C981 C 0.64896 0.61934 0.85359 0.0
C982 C 0.65273 0.6449 0.87192 0.0
C983 C 0.63589 0.65216 0.90909 0.0
C984 C 0.67476 0.66374 0.85467 0.0
C985 C 0.66432 0.61056 0.81134 0.0
C986 C 0.70136 0.65472 0.85044 0.0
C987 C 0.72213 0.67217 0.83559 0.0
C988 C 0.71712 0.69931 0.82484 0.0
C989 C 0.69074 0.70871 0.83046 0.0
C990 C 0.66978 0.6911 0.84481 0.0
H991 H 0.65233 0.59649 0.79182 0.0
H992 H 0.67016 0.62779 0.78814 0.0
H993 H 0.68267 0.59985 0.82187 0.0
H994 H 0.70627 0.63418 0.85959 0.0
H995 H 0.74235 0.66446 0.83308 0.0
H996 H 0.6936 0.28432 0.22569 0.0
H997 H 0.65704 0.31364 0.20145 0.0
H998 H 0.71259 0.37926 0.18074 0.0
H999 H 0.74919 0.35008 0.20601 0.0
H1000 H 0.64226 0.37032 0.23891 0.0
H1001 H 0.67268 0.36551 0.0538 0.0
H1002 H 0.68141 0.33972 0.09573 0.0
H1003 H 0.69848 0.37128 0.09386 0.0
C1004 C 0.69791 0.30512 0.21697 0.0
C1005 C 0.72409 0.31516 0.2189 0.0
C1006 C 0.67705 0.3218 0.20286 0.0
C1007 C 0.68216 0.34858 0.18941 0.0
C1008 C 0.70828 0.35864 0.19114 0.0
H1009 H 0.57991 0.48281 0.11859 0.0
H1010 H 0.61323 0.45271 0.15176 0.0
C1011 C 0.72911 0.34201 0.20555 0.0
C1012 C 0.66041 0.36576 0.17168 0.0
H1013 H 0.63683 0.39418 0.07268 0.0
C1014 C 0.64104 0.3756 0.20263 0.0
C1015 C 0.65877 0.37228 0.12427 0.0
C1016 C 0.67879 0.3616 0.0897 0.0
C1017 C 0.62029 0.39231 0.18734 0.0
C1018 C 0.61893 0.39923 0.13998 0.0
C1019 C 0.63802 0.38894 0.10899 0.0
C1020 C 0.59789 0.41721 0.12178 0.0
C1021 C 0.5998 0.40232 0.22174 0.0
C1022 C 0.57821 0.40721 0.09394 0.0
C1023 C 0.55898 0.42431 0.07518 0.0
C1024 C 0.55938 0.45189 0.08309 0.0
C1025 C 0.579 0.46175 0.11151 0.0
C1026 C 0.59805 0.44457 0.13066 0.0
H1027 H 0.60089 0.39148 0.25562 0.0
H1028 H 0.60332 0.4239 0.22668 0.0
H1029 H 0.57931 0.40013 0.20889 0.0
H1030 H 0.57772 0.38613 0.08676 0.0
H1031 H 0.54383 0.41585 0.05447 0.0
H1032 H 0.92846 0.46989 0.45502 0.0
H1033 H 0.90171 0.43401 0.42594 0.0
H1034 H 0.95518 0.37534 0.48422 0.0
H1035 H 0.98245 0.41114 0.51329 0.0
H1036 H 0.92472 0.39241 0.36496 0.0
H1037 H 0.87564 0.35369 0.52913 0.0
H1038 H 0.88891 0.38727 0.52275 0.0
H1039 H 0.91126 0.35937 0.52686 0.0
C1040 C 0.93453 0.4494 0.46197 0.0
C1041 C 0.9575 0.44335 0.48667 0.0
C1042 C 0.91922 0.42897 0.44532 0.0
C1043 C 0.92655 0.40224 0.45327 0.0
C1044 C 0.94921 0.39597 0.47831 0.0
H1045 H 0.84859 0.27716 0.3047 0.0
H1046 H 0.88292 0.30211 0.34234 0.0
C1047 C 0.96465 0.41643 0.49494 0.0
C1048 C 0.91068 0.38118 0.43364 0.0
H1049 H 0.8619 0.33517 0.4608 0.0
C1050 C 0.91123 0.37956 0.38577 0.0
C1051 C 0.89322 0.36472 0.46131 0.0
C1052 C 0.89197 0.36624 0.51291 0.0
C1053 C 0.89387 0.36243 0.36446 0.0
C1054 C 0.87582 0.34653 0.39206 0.0
C1055 C 0.87592 0.34746 0.44004 0.0
C1056 C 0.85518 0.33052 0.37143 0.0
C1057 C 0.89403 0.3624 0.31267 0.0
C1058 C 0.8283 0.33812 0.37624 0.0
C1059 C 0.80863 0.32405 0.35463 0.0
C1060 C 0.81566 0.3022 0.32795 0.0
C1061 C 0.84261 0.29428 0.32418 0.0
C1062 C 0.86224 0.30837 0.3458 0.0
H1063 H 0.90629 0.37897 0.29651 0.0
H1064 H 0.90243 0.3432 0.30095 0.0
H1065 H 0.87334 0.36415 0.30027 0.0
H1066 H 0.82263 0.35524 0.39603 0.0
H1067 H 0.78804 0.3305 0.35847 0.0
H1068 H 0.80105 0.71117 0.64721 0.0
H1069 H 0.83168 0.67834 0.61367 0.0
H1070 H 0.84876 0.64721 0.74963 0.0
H1071 H 0.81884 0.68045 0.78286 0.0
H1072 H 0.89312 0.65191 0.70093 0.0
H1073 H 0.81988 0.60095 0.59604 0.0
H1074 H 0.82271 0.63599 0.58134 0.0
H1075 H 0.80992 0.62515 0.63754 0.0
C1076 C 0.81136 0.69722 0.66977 0.0
C1077 C 0.80795 0.69855 0.71763 0.0
C1078 C 0.8287 0.67834 0.65062 0.0
C1079 C 0.84231 0.65992 0.67901 0.0
C1080 C 0.83864 0.6612 0.7269 0.0
H1081 H 0.91789 0.51191 0.60121 0.0
H1082 H 0.88771 0.54749 0.6263 0.0
C1083 C 0.82169 0.68036 0.74598 0.0
C1084 C 0.86091 0.63972 0.6593 0.0
H1085 H 0.86551 0.58901 0.5841 0.0
C1086 C 0.88701 0.63811 0.67548 0.0
C1087 C 0.85296 0.62146 0.62638 0.0
C1088 C 0.82477 0.62075 0.60965 0.0
C1089 C 0.90523 0.61875 0.66014 0.0
C1090 C 0.89754 0.60103 0.62623 0.0
C1091 C 0.87152 0.60274 0.60974 0.0
C1092 C 0.91568 0.5797 0.60914 0.0
C1093 C 0.93217 0.61694 0.68182 0.0
C1094 C 0.94137 0.58587 0.59062 0.0
C1095 C 0.95874 0.56551 0.577 0.0
C1096 C 0.95039 0.53866 0.57993 0.0
C1097 C 0.92462 0.53251 0.59786 0.0
C1098 C 0.90738 0.55283 0.61208 0.0
H1099 H 0.93188 0.62629 0.71579 0.0
H1100 H 0.93868 0.59583 0.68653 0.0
H1101 H 0.94724 0.62777 0.65926 0.0
H1102 H 0.9481 0.60644 0.58695 0.0
H1103 H 0.97872 0.57082 0.5646 0.0
H1104 H 0.32447 0.28143 0.22093 0.0
H1105 H 0.36095 0.31251 0.19722 0.0
H1106 H 0.30371 0.37657 0.18386 0.0
H1107 H 0.26781 0.346 0.21009 0.0
H1108 H 0.37252 0.33942 0.12232 0.0
H1109 H 0.35664 0.41523 0.25221 0.0
H1110 H 0.3391 0.38379 0.2559 0.0
H1111 H 0.32664 0.41142 0.2214 0.0
C1112 C 0.31988 0.30235 0.2144 0.0
C1113 C 0.29337 0.31149 0.21937 0.0
C1114 C 0.34072 0.32012 0.20021 0.0
C1115 C 0.3355 0.34738 0.18988 0.0
C1116 C 0.30879 0.35613 0.19342 0.0
H1117 H 0.41256 0.49042 0.07533 0.0
H1118 H 0.38314 0.45405 0.10413 0.0
C1119 C 0.28812 0.33851 0.20811 0.0
C1120 C 0.35744 0.36636 0.17285 0.0
H1121 H 0.38163 0.42979 0.18381 0.0
C1122 C 0.37466 0.35907 0.13619 0.0
C1123 C 0.3608 0.39206 0.19091 0.0
C1124 C 0.34498 0.40093 0.23259 0.0
C1125 C 0.39387 0.37701 0.11574 0.0
C1126 C 0.39619 0.40324 0.13222 0.0
C1127 C 0.3797 0.41006 0.17009 0.0
C1128 C 0.41453 0.42445 0.11026 0.0
C1129 C 0.41077 0.36777 0.07564 0.0
C1130 C 0.44225 0.42029 0.10298 0.0
C1131 C 0.45912 0.44116 0.08544 0.0
C1132 C 0.44874 0.46679 0.07525 0.0
C1133 C 0.42113 0.47086 0.08232 0.0
C1134 C 0.40429 0.45001 0.09908 0.0
H1135 H 0.40124 0.35094 0.0585 0.0
H1136 H 0.4144 0.3843 0.05001 0.0
H1137 H 0.43036 0.36071 0.08801 0.0
H1138 H 0.45107 0.40118 0.11227 0.0
H1139 H 0.4804 0.43752 0.08151 0.0
H1140 H 0.46923 0.59555 0.98363 0.0
H1141 H 0.43473 0.62528 0.95309 0.0
H1142 H 0.39022 0.55698 0.91188 0.0
H1143 H 0.42446 0.52707 0.94264 0.0
H1144 H 0.41631 0.62772 0.85935 0.0
H1145 H 0.33516 0.60175 0.98842 0.0
H1146 H 0.37002 0.59516 0.9985 0.0
H1147 H 0.35174 0.57394 0.96245 0.0
C1148 C 0.452 0.5868 0.96844 0.0
C1149 C 0.44949 0.55887 0.96608 0.0
C1150 C 0.43235 0.60385 0.95086 0.0
C1151 C 0.40972 0.59332 0.93088 0.0
C1152 C 0.40731 0.5655 0.92789 0.0
H1153 H 0.26379 0.66141 0.82314 0.0
H1154 H 0.29993 0.63187 0.84857 0.0
C1155 C 0.42702 0.54843 0.94522 0.0
C1156 C 0.38905 0.61145 0.91181 0.0
H1157 H 0.32352 0.62956 0.92493 0.0
C1158 C 0.39601 0.62825 0.87368 0.0
C1159 C 0.36262 0.61199 0.93055 0.0
C1160 C 0.35435 0.59493 0.97247 0.0
C1161 C 0.37709 0.64511 0.85293 0.0
C1162 C 0.35048 0.64575 0.87152 0.0
C1163 C 0.34371 0.62905 0.91017 0.0
C1164 C 0.32932 0.66351 0.85191 0.0
C1165 C 0.38575 0.66121 0.81028 0.0
C1166 C 0.33362 0.69118 0.84474 0.0
C1167 C 0.31316 0.70789 0.82898 0.0
C1168 C 0.28777 0.69743 0.82085 0.0
C1169 C 0.28332 0.66989 0.82841 0.0
C1170 C 0.30395 0.65306 0.84318 0.0
H1171 H 0.40308 0.65192 0.79212 0.0
H1172 H 0.36917 0.66308 0.78639 0.0
H1173 H 0.39191 0.68151 0.81977 0.0
H1174 H 0.3525 0.7001 0.85281 0.0
H1175 H 0.31695 0.72915 0.82516 0.0
H1176 H 0.22183 0.68505 0.67953 0.0
H1177 H 0.1869 0.66076 0.64216 0.0
H1178 H 0.12652 0.70901 0.70819 0.0
H1179 H 0.1612 0.73359 0.74556 0.0
H1180 H 0.11777 0.65359 0.71785 0.0
H1181 H 0.13917 0.68616 0.53636 0.0
H1182 H 0.1683 0.67452 0.56535 0.0
H1183 H 0.15131 0.70404 0.58414 0.0
C1184 C 0.20115 0.69063 0.68593 0.0
C1185 C 0.19426 0.71106 0.71582 0.0
C1186 C 0.18127 0.67688 0.66429 0.0
C1187 C 0.15431 0.68349 0.67199 0.0
C1188 C 0.14731 0.70385 0.7017 0.0
H1189 H 0.02872 0.60028 0.53142 0.0
H1190 H 0.05481 0.63643 0.56195 0.0
C1191 C 0.16716 0.71767 0.72328 0.0
C1192 C 0.13341 0.66772 0.65147 0.0
H1193 H 0.11293 0.64605 0.54909 0.0
C1194 C 0.11635 0.65224 0.68097 0.0
C1195 C 0.13147 0.66645 0.6034 0.0
C1196 C 0.14836 0.68389 0.57043 0.0
C1197 C 0.09842 0.63413 0.6635 0.0
C1198 C 0.09793 0.63142 0.61555 0.0
C1199 C 0.11375 0.64808 0.58592 0.0
C1200 C 0.08267 0.60993 0.59586 0.0
C1201 C 0.08068 0.6175 0.69641 0.0
C1202 C 0.09028 0.5833 0.60418 0.0
C1203 C 0.07571 0.56265 0.58648 0.0
C1204 C 0.05332 0.56838 0.5601 0.0
C1205 C 0.04606 0.59521 0.55115 0.0
C1206 C 0.06077 0.61587 0.56873 0.0
H1207 H 0.07843 0.62669 0.73041 0.0
H1208 H 0.06054 0.61486 0.68239 0.0
H1209 H 0.08972 0.5974 0.70166 0.0
H1210 H 0.10746 0.57852 0.62458 0.0
H1211 H 0.0819 0.54223 0.59386 0.0
H1212 H 0.2128 0.30326 0.39636 0.0
H1213 H 0.18205 0.33599 0.42987 0.0
H1214 H 0.15871 0.36146 0.294 0.0
H1215 H 0.18899 0.32854 0.26086 0.0
H1216 H 0.17996 0.3885 0.42277 0.0
H1217 H 0.0867 0.34914 0.35455 0.0
H1218 H 0.11781 0.33099 0.35159 0.0
H1219 H 0.11101 0.3572 0.30949 0.0
C1220 C 0.20094 0.31578 0.37378 0.0
C1221 C 0.20267 0.31287 0.32605 0.0
C1222 C 0.18337 0.33445 0.3929 0.0
C1223 C 0.16742 0.35075 0.36459 0.0
C1224 C 0.16992 0.34844 0.31676 0.0
H1225 H 0.09309 0.50047 0.44182 0.0
H1226 H 0.12362 0.46532 0.41672 0.0
C1227 C 0.1872 0.32954 0.29774 0.0
C1228 C 0.14882 0.3707 0.38491 0.0
H1229 H 0.08434 0.39303 0.38395 0.0
C1230 C 0.15897 0.38932 0.41466 0.0
C1231 C 0.12131 0.37157 0.37505 0.0
C1232 C 0.10851 0.35097 0.34633 0.0
C1233 C 0.14262 0.40914 0.43387 0.0
C1234 C 0.11542 0.41099 0.42192 0.0
C1235 C 0.10517 0.39193 0.39298 0.0
C1236 C 0.09722 0.43252 0.43844 0.0
C1237 C 0.15483 0.42755 0.46718 0.0
C1238 C 0.0716 0.42611 0.45718 0.0
C1239 C 0.05384 0.44628 0.47017 0.0
C1240 C 0.06156 0.47328 0.46605 0.0
C1241 C 0.08697 0.47976 0.44677 0.0
C1242 C 0.10453 0.45963 0.43282 0.0
H1243 H 0.1714 0.41755 0.48554 0.0
H1244 H 0.16336 0.44532 0.44793 0.0
H1245 H 0.13985 0.43439 0.49301 0.0
H1246 H 0.0652 0.40544 0.46143 0.0
H1247 H 0.034 0.4407 0.48301 0.0
H1248 H 0.9822 0.01411 0.81831 0.0
H1249 H 0.97656 1.00099 0.90007 0.0
H1250 H 0.05141 0.0391 0.92676 0.0
H1251 H 0.05728 0.0521 0.84542 0.0
H1252 H 0.00958 0.97043 0.95873 0.0
H1253 H 0.99874 0.07433 1.01681 0.0
H1254 H 0.99625 0.06598 0.95744 0.0
H1255 H 0.02848 0.06871 0.98224 0.0
C1256 C 0.99759 0.01944 0.84151 0.0
C1257 C 0.02003 0.03446 0.82534 0.0
C1258 C 0.99427 0.01206 0.88827 0.0
C1259 C 0.01326 0.01961 0.91972 0.0
C1260 C 0.03613 0.0337 0.90339 0.0
H1261 H 0.03043 0.99663 0.21531 0.0
H1262 H 0.03569 0.01013 0.13363 0.0
C1263 C 0.03946 0.04109 0.8568 0.0
C1264 C 0.0093 0.01272 0.96959 0.0
H1265 H 1.00283 0.04019 0.075 0.0
C1266 C 0.00795 0.98567 0.98414 0.0
C1267 C 0.00728 0.03264 1.00276 0.0
C1268 C 0.00751 0.06205 0.98913 0.0
C1269 C 1.00515 0.97798 0.03097 0.0
C1270 C 1.00311 0.9979 0.06415 0.0
C1271 C 1.00445 0.02495 0.04959 0.0
C1272 C 0.99924 0.99099 0.11404 0.0
C1273 C 1.00503 0.94856 0.04456 0.0
C1274 C 0.9766 0.97653 0.13041 0.0
C1275 C 0.97353 0.96889 0.17692 0.0
C1276 C 0.99295 0.97568 0.20827 0.0
C1277 C 0.01507 0.99116 0.19215 0.0
C1278 C 0.01817 0.99876 0.14545 0.0
H1279 H 0.01396 0.93635 1.01693 0.0
H1280 H 0.01622 0.94467 0.07635 0.0
H1281 H 0.98408 0.94178 0.05123 0.0
H1282 H 0.96135 0.97096 0.1071 0.0
H1283 H 0.95595 0.95748 0.18833 0.0
H1284 H 0.24455 0.73097 0.47327 0.0
H1285 H 0.23099 0.7354 0.39327 0.0
H1286 H 0.30844 0.76814 0.35309 0.0
H1287 H 0.32208 0.76386 0.43267 0.0
H1288 H 0.22914 0.78029 0.3317 0.0
H1289 H 0.30163 0.70479 0.2692 0.0
H1290 H 0.29348 0.70846 0.32944 0.0
H1291 H 0.31644 0.73128 0.29954 0.0
C1292 C 0.25856 0.73941 0.44746 0.0
C1293 C 0.2845 0.74677 0.45922 0.0
C1294 C 0.25084 0.74179 0.40176 0.0
C1295 C 0.26893 0.7515 0.36709 0.0
C1296 C 0.29441 0.7599 0.37907 0.0
H1297 H 0.26315 0.77915 0.07092 0.0
H1298 H 0.27661 0.77465 0.15096 0.0
C1299 C 0.30215 0.75749 0.4246 0.0
C1300 C 0.26129 0.75279 0.31832 0.0
H1301 H 0.27836 0.72975 0.21241 0.0
C1302 C 0.23979 0.76914 0.30564 0.0
C1303 C 0.27528 0.73827 0.28436 0.0
C1304 C 0.29784 0.71951 0.29625 0.0
C1305 C 0.23221 0.77177 0.25974 0.0
C1306 C 0.24621 0.75725 0.22578 0.0
C1307 C 0.26771 0.7409 0.23847 0.0
C1308 C 0.23861 0.7586 0.17699 0.0
C1309 C 0.20966 0.79054 0.24786 0.0
C1310 C 0.21313 0.75025 0.1649 0.0
C1311 C 0.20545 0.7527 0.11934 0.0
C1312 C 0.22316 0.76341 0.08479 0.0
C1313 C 0.2491 0.77072 0.09666 0.0
C1314 C 0.25676 0.7683 0.14239 0.0
H1315 H 0.20586 0.80524 0.27492 0.0
H1316 H 0.21404 0.80161 0.21469 0.0
H1317 H 0.19107 0.77878 0.24452 0.0
H1318 H 0.19907 0.74202 0.19082 0.0
H1319 H 0.18552 0.74637 0.11118 0.0
H1320 H 0.52881 0.01692 0.71703 0.0
H1321 H 0.53562 1.00427 0.63697 0.0
H1322 H 0.45638 0.03223 0.60703 0.0
H1323 H 0.44937 0.04475 0.6867 0.0
H1324 H 0.50591 0.96951 0.58306 0.0
H1325 H 0.50437 0.07404 0.51191 0.0
H1326 H 0.50824 0.066 0.57221 0.0
H1327 H 0.47573 0.06486 0.548 0.0
C1328 C 0.51274 0.02008 0.6935 0.0
C1329 C 0.48868 0.03215 0.7081 0.0
C1330 C 0.51671 0.01298 0.64775 0.0
C1331 C 0.49673 0.0179 0.61584 0.0
C1332 C 0.47233 0.02893 0.63077 0.0
H1333 H 0.48037 0.99352 0.32433 0.0
H1334 H 0.47439 0.00626 0.40447 0.0
C1335 C 0.46836 0.03604 0.67635 0.0
C1336 C 0.5013 0.01155 0.56688 0.0
H1337 H 0.50409 0.03967 0.45808 0.0
C1338 C 0.50568 0.98484 0.55572 0.0
C1339 C 0.50088 0.0316 0.53128 0.0
C1340 C 0.49729 0.06078 0.54132 0.0
C1341 C 0.50911 0.97756 0.50983 0.0
C1342 C 0.50869 0.99762 0.47421 0.0
C1343 C 0.50436 0.02433 0.4854 0.0
C1344 C 0.51288 0.99124 0.42515 0.0
C1345 C 0.51248 0.94835 0.49988 0.0
C1346 C 0.53682 0.97939 0.40988 0.0
C1347 C 0.54028 0.97215 0.36427 0.0
C1348 C 0.51995 0.97681 0.33281 0.0
C1349 C 0.49643 0.98976 0.34767 0.0
C1350 C 0.49294 0.99692 0.39347 0.0
H1351 H 0.50514 0.93517 0.52921 0.0
H1352 H 0.50163 0.94319 0.46884 0.0
H1353 H 0.53403 0.94405 0.49357 0.0
H1354 H 0.55279 0.97553 0.43337 0.0
H1355 H 0.55885 0.96271 0.35365 0.0
H1356 H 0.21024 0.20255 0.94492 0.0
H1357 H 0.22365 0.20873 0.86381 0.0
H1358 H 0.26073 0.28394 0.89152 0.0
H1359 H 0.24722 0.27798 0.97293 0.0
H1360 H 0.209 0.2504 0.80362 0.0
H1361 H 0.31934 0.24579 0.81747 0.0
H1362 H 0.29656 0.23465 0.86373 0.0
H1363 H 0.30304 0.26974 0.85326 0.0
C1364 C 0.22127 0.22043 0.93384 0.0
C1365 C 0.22756 0.23983 0.96548 0.0
C1366 C 0.22899 0.22387 0.88744 0.0
C1367 C 0.24336 0.24668 0.87159 0.0
C1368 C 0.25007 0.26594 0.9031 0.0
H1369 H 0.30323 0.30466 0.60291 0.0
H1370 H 0.28935 0.29915 0.68393 0.0
C1371 C 0.24235 0.26249 0.94965 0.0
C1372 C 0.25035 0.25066 0.82178 0.0
H1373 H 0.30296 0.25818 0.74442 0.0
C1374 C 0.22955 0.25202 0.79063 0.0
C1375 C 0.27715 0.2528 0.80489 0.0
C1376 C 0.30036 0.25045 0.83645 0.0
C1377 C 0.2348 0.25587 0.74314 0.0
C1378 C 0.26162 0.25794 0.72622 0.0
C1379 C 0.28241 0.25661 0.7574 0.0
C1380 C 0.26865 0.2617 0.67638 0.0
C1381 C 0.21157 0.2583 0.71164 0.0
C1382 C 0.26152 0.24253 0.64498 0.0
C1383 C 0.26945 0.24563 0.59848 0.0
C1384 C 0.28492 0.26782 0.58261 0.0
C1385 C 0.29163 0.28716 0.61408 0.0
C1386 C 0.28365 0.28409 0.66041 0.0
H1387 H 0.19272 0.26343 0.7306 0.0
H1388 H 0.21554 0.2738 0.68391 0.0
H1389 H 0.20851 0.23888 0.69544 0.0
H1390 H 0.25041 0.22482 0.65663 0.0
H1391 H 0.26425 0.23021 0.57529 0.0
H1392 H 0.81228 0.21073 0.9359 0.0
H1393 H 0.79808 0.21491 0.85686 0.0
H1394 H 0.75043 0.28376 0.89033 0.0
H1395 H 0.76556 0.28043 0.9694 0.0
H1396 H 0.74883 0.21205 0.8232 0.0
H1397 H 0.79339 0.31168 0.77755 0.0
H1398 H 0.80155 0.29268 0.82904 0.0
H1399 H 0.77069 0.311 0.82672 0.0
C1400 C 0.79906 0.22701 0.92644 0.0
C1401 C 0.79035 0.24544 0.95899 0.0
C1402 C 0.7908 0.22926 0.88123 0.0
C1403 C 0.77357 0.24993 0.86736 0.0
C1404 C 0.76422 0.268 0.89994 0.0
H1405 H 0.69318 0.24059 0.60721 0.0
H1406 H 0.70237 0.24649 0.68808 0.0
C1407 C 0.77259 0.26584 0.94531 0.0
C1408 C 0.76516 0.25191 0.81895 0.0
H1409 H 0.76751 0.29208 0.72125 0.0
C1410 C 0.75282 0.2296 0.80098 0.0
C1411 C 0.77068 0.2747 0.7898 0.0
C1412 C 0.78502 0.29881 0.8065 0.0
C1413 C 0.74608 0.22929 0.7547 0.0
C1414 C 0.75116 0.25224 0.72569 0.0
C1415 C 0.76338 0.27464 0.74364 0.0
C1416 C 0.7449 0.25272 0.67622 0.0
C1417 C 0.73444 0.20398 0.737 0.0
C1418 C 0.76547 0.25592 0.64234 0.0
C1419 C 0.76018 0.25296 0.59595 0.0
C1420 C 0.73424 0.24662 0.58281 0.0
C1421 C 0.71342 0.24507 0.6165 0.0
C1422 C 0.71867 0.24831 0.6627 0.0
H1423 H 0.73831 0.18633 0.76013 0.0
H1424 H 0.71245 0.20623 0.73483 0.0
H1425 H 0.74284 0.19993 0.7022 0.0
H1426 H 0.78585 0.25949 0.65197 0.0
H1427 H 0.7766 0.25418 0.57071 0.0
H1428 H 0.74631 0.78122 0.46915 0.0
H1429 H 0.75964 0.78604 0.38743 0.0
H1430 H 0.72027 0.7116 0.36245 0.0
H1431 H 0.70691 0.70665 0.44376 0.0
H1432 H 0.78951 0.7528 0.32968 0.0
H1433 H 0.68555 0.76391 0.2714 0.0
H1434 H 0.694 0.76641 0.33075 0.0
H1435 H 0.69101 0.73416 0.30623 0.0
C1436 C 0.74076 0.76575 0.44632 0.0
C1437 C 0.72526 0.74373 0.46285 0.0
C1438 C 0.74827 0.76859 0.39961 0.0
C1439 C 0.74039 0.7495 0.36865 0.0
C1440 C 0.72591 0.72696 0.38544 0.0
H1441 H 0.76381 0.73158 0.0735 0.0
H1442 H 0.75062 0.72597 0.1552 0.0
C1443 C 0.71835 0.72414 0.43197 0.0
C1444 C 0.7472 0.75312 0.31877 0.0
H1445 H 0.71954 0.75938 0.21332 0.0
C1446 C 0.77423 0.75438 0.30425 0.0
C1447 C 0.7272 0.7551 0.28559 0.0
C1448 C 0.69781 0.75508 0.29917 0.0
C1449 C 0.78183 0.7571 0.25743 0.0
C1450 C 0.76184 0.75908 0.22428 0.0
C1451 C 0.73481 0.75778 0.23877 0.0
C1452 C 0.76865 0.76302 0.17448 0.0
C1453 C 0.81121 0.75733 0.24377 0.0
C1454 C 0.78239 0.78608 0.15804 0.0
C1455 C 0.78979 0.7894 0.11152 0.0
C1456 C 0.78353 0.76976 0.08029 0.0
C1457 C 0.76884 0.74713 0.09656 0.0
C1458 C 0.76142 0.74383 0.14325 0.0
H1459 H 0.82358 0.74875 0.27161 0.0
H1460 H 0.81507 0.74588 0.21235 0.0
H1461 H 0.81781 0.77828 0.23634 0.0
H1462 H 0.78755 0.80149 0.1813 0.0
H1463 H 0.80056 0.80736 0.1 0.0
H1464 H 0.52348 0.441 0.69174 0.0
H1465 H 0.52618 0.45556 0.61071 0.0
H1466 H 0.48267 0.5273 0.64247 0.0
H1467 H 0.47995 0.51285 0.72382 0.0
H1468 H 0.48385 0.4648 0.55426 0.0
H1469 H 0.54561 0.55651 0.56325 0.0
H1470 H 0.54271 0.5318 0.60997 0.0
H1471 H 0.51644 0.55576 0.60099 0.0
C1472 C 0.5146 0.45996 0.68153 0.0
C1473 C 0.50143 0.47575 0.71422 0.0
C1474 C 0.51621 0.46827 0.63521 0.0
C1475 C 0.50482 0.4926 0.62051 0.0
C1476 C 0.49207 0.50869 0.65312 0.0
H1477 H 0.48639 0.57247 0.35418 0.0
H1478 H 0.4838 0.55808 0.4353 0.0
C1479 C 0.49053 0.50042 0.69961 0.0
C1480 C 0.50519 0.50036 0.57076 0.0
H1481 H 0.52611 0.54888 0.49192 0.0
C1482 C 0.49319 0.48313 0.54057 0.0
C1483 C 0.51733 0.5243 0.55297 0.0
C1484 C 0.53148 0.54307 0.58335 0.0
C1485 C 0.49262 0.48938 0.49321 0.0
C1486 C 0.50477 0.51331 0.47542 0.0
C1487 C 0.51676 0.53055 0.50561 0.0
C1488 C 0.50518 0.52103 0.42566 0.0
C1489 C 0.47846 0.47061 0.46284 0.0
C1490 C 0.51793 0.5049 0.39312 0.0
C1491 C 0.51941 0.51307 0.34659 0.0
C1492 C 0.50844 0.53769 0.33186 0.0
C1493 C 0.49532 0.55355 0.36448 0.0
C1494 C 0.49377 0.54534 0.41085 0.0
H1495 H 0.46431 0.4572 0.48294 0.0
H1496 H 0.46725 0.48188 0.4362 0.0
H1497 H 0.49349 0.4579 0.44523 0.0
H1498 H 0.52735 0.48631 0.40385 0.0
H1499 H 0.52996 0.50059 0.32243 0.0
H1500 H 0.98804 0.49269 0.82341 0.0
H1501 H 0.97747 0.50336 0.90342 0.0
H1502 H 0.05962 0.48917 0.93709 0.0
H1503 H 0.07031 0.47858 0.85746 0.0
H1504 H 0.02386 0.46282 0.99758 0.0
H1505 H 0.99552 0.56958 0.97377 0.0
H1506 H 0.97765 0.54723 0.93908 0.0
H1507 H 0.01312 0.55153 0.92961 0.0
C1508 C 1.00394 0.49231 0.84768 0.0
C1509 C 0.03 0.48466 0.83398 0.0
C1510 C 0.99788 0.4984 0.89345 0.0
C1511 C 0.0178 0.49725 0.92632 0.0
C1512 C 0.04389 0.49013 0.91248 0.0
H1513 H 0.02343 0.51931 0.22228 0.0
H1514 H 0.03394 0.50871 0.14223 0.0
C1515 C 0.04995 0.48401 0.86689 0.0
C1516 C 0.01138 0.50231 0.97552 0.0
H1517 H 0.98757 0.54953 0.04803 0.0
C1518 C 0.01602 0.48182 1.00864 0.0
C1519 C 1.00113 0.52708 0.98998 0.0
C1520 C 0.99676 0.55023 0.95637 0.0
C1521 C 0.01028 0.48525 0.05563 0.0
C1522 C 1.00005 0.51003 0.07011 0.0
C1523 C 0.9954 0.53052 0.03698 0.0
C1524 C 0.99366 0.51511 0.11932 0.0
C1525 C 0.01463 0.46208 0.08921 0.0
C1526 C 0.96761 0.5224 0.13317 0.0
C1527 C 0.9616 0.5285 0.17878 0.0
C1528 C 0.98153 0.52764 0.21172 0.0
C1529 C 0.00754 0.51984 0.198 0.0
C1530 C 0.01357 0.51378 0.1522 0.0
H1531 H 0.01573 0.44273 0.07181 0.0
H1532 H 0.03381 0.46499 0.10634 0.0
H1533 H 0.99834 0.46085 0.11609 0.0
H1534 H 0.9519 0.5235 0.10855 0.0
H1535 H 0.94127 0.53406 0.18822 0.0
loop_
_geom_bond_atom_site_label_1
_geom_bond_atom_site_label_2
_geom_bond_distance
_geom_bond_site_symmetry_2
_ccdc_geom_bond_type
Gd0 N31 2.657 . S
Gd0 N37 2.601 . S
Gd0 O44 2.547 1_455 S
Gd0 O45 2.607 1_445 S
Gd0 O47 2.432 1_455 S
Gd0 O48 2.547 1_445 S
Gd0 O49 2.411 . S
Gd0 O51 2.360 . S
Gd0 O52 2.321 1_545 S
Gd0 C59 2.829 1_455 S
Gd1 N10 2.657 1_455 S
Gd1 N14 2.601 1_455 S
Gd1 O45 2.360 1_455 S
Gd1 O46 2.321 1_465 S
Gd1 O50 2.547 . S
Gd1 O51 2.607 1_565 S
Gd1 O53 2.432 . S
Gd1 O54 2.547 1_565 S
Gd1 O55 2.411 1_455 S
Gd1 C68 2.829 . S
C2 C5 1.417 . S
C2 C7 1.431 . S
C2 C8 1.412 . S
C3 C6 1.437 . S
C3 C7 1.317 . S
C3 H22 0.929 . S
C4 C5 1.426 . S
C4 C6 1.413 . S
C4 N14 1.359 . S
C5 C2 1.417 . S
C5 C4 1.426 . S
C5 N10 1.350 . S
C6 C3 1.437 . S
C6 C4 1.413 . S
C6 C16 1.420 . S
C7 C2 1.431 . S
C7 C3 1.317 . S
C7 H18 0.930 . S
C8 C2 1.412 . S
C8 C9 1.355 . S
C8 H20 0.930 . S
C9 C8 1.355 . S
C9 C11 1.402 . S
C9 H21 0.930 . S
N10 Gd1 2.657 1_655 S
N10 C5 1.350 . S
N10 C11 1.307 . S
C11 C9 1.402 . S
C11 N10 1.307 . S
C11 H12 0.930 . S
H12 C11 0.930 . S
C13 N14 1.334 1_455 S
C13 C15 1.394 . S
C13 H17 0.930 . S
N14 Gd1 2.601 1_655 S
N14 C4 1.359 . S
N14 C13 1.334 1_655 S
C15 C13 1.394 . S
C15 C16 1.331 1_455 S
C15 H27 0.930 . S
C16 C6 1.420 . S
C16 C15 1.331 1_655 S
C16 H28 0.929 . S
H17 C13 0.930 . S
H18 C7 0.930 . S
H19 C36 0.930 . S
H20 C8 0.930 . S
H21 C9 0.930 . S
H22 C3 0.929 . S
H23 C41 0.930 . S
H24 C32 0.930 . S
H25 C33 0.930 . S
H26 C57 0.929 . S
H27 C15 0.930 . S
H28 C16 0.929 . S
H29 C58 0.930 . S
H30 C39 0.930 . S
N31 Gd0 2.657 . S
N31 C35 1.350 . S
N31 C36 1.307 . S
C32 H24 0.930 . S
C32 C33 1.355 . S
C32 C34 1.412 . S
C33 H25 0.930 . S
C33 C32 1.355 . S
C33 C36 1.402 . S
C34 C32 1.412 . S
C34 C35 1.417 . S
C34 C58 1.431 . S
C35 N31 1.350 . S
C35 C34 1.417 . S
C35 C38 1.426 . S
C36 H19 0.930 . S
C36 N31 1.307 . S
C36 C33 1.402 . S
N37 Gd0 2.601 . S
N37 C38 1.359 . S
N37 C41 1.334 1_455 S
C38 C35 1.426 . S
C38 N37 1.359 . S
C38 C42 1.413 . S
C39 H30 0.930 . S
C39 C40 1.322 1_655 S
C39 C41 1.394 . S
C40 C39 1.322 1_455 S
C40 C42 1.429 . S
C40 H43 0.929 . S
C41 H23 0.930 . S
C41 N37 1.334 1_655 S
C41 C39 1.394 . S
C42 C38 1.413 . S
C42 C40 1.429 . S
C42 C57 1.437 . S
H43 C40 0.929 . S
O44 Gd0 2.547 1_655 S
O44 C59 1.258 . S
O45 Gd0 2.607 1_665 S
O45 Gd1 2.360 1_655 S
O45 C56 1.284 . S
O46 Gd1 2.321 1_645 S
O46 C66 1.254 . S
O47 Gd0 2.432 1_655 S
O47 C66 1.268 . S
O48 Gd0 2.547 1_665 S
O48 C56 1.250 . S
O49 Gd0 2.411 . S
O49 C59 1.252 1_455 S
O50 Gd1 2.547 . S
O50 C68 1.258 . S
O51 Gd0 2.360 . S
O51 Gd1 2.607 1_545 S
O51 C67 1.284 . S
O52 Gd0 2.321 1_565 S
O52 C75 1.254 . S
O53 Gd1 2.432 . S
O53 C75 1.268 . S
O54 Gd1 2.547 1_545 S
O54 C67 1.250 . S
O55 Gd1 2.411 1_655 S
O55 C68 1.252 1_655 S
C56 O45 1.284 . S
C56 O48 1.250 . S
C57 H26 0.929 . S
C57 C42 1.437 . S
C57 C58 1.317 . S
C58 H29 0.930 . S
C58 C34 1.431 . S
C58 C57 1.317 . S
C59 Gd0 2.829 1_655 S
C59 O44 1.258 . S
C59 O49 1.252 1_655 S
C59 C60 1.497 . S
C60 C59 1.497 . S
C60 C61 1.395 . S
C60 C62 1.380 . S
C61 C60 1.395 . S
C61 C64 1.398 . S
C61 H76 0.930 . S
C62 C60 1.380 . S
C62 C63 1.391 . S
C62 H77 0.930 1_645 S
C63 C62 1.391 . S
C63 C65 1.387 . S
C64 C61 1.398 . S
C64 C65 1.380 . S
C64 H78 0.930 . S
C65 C63 1.387 . S
C65 C64 1.380 . S
C65 H79 0.930 . S
C66 O46 1.254 . S
C66 O47 1.268 . S
C67 O51 1.284 . S
C67 O54 1.250 . S
C68 Gd1 2.829 . S
C68 O50 1.258 . S
C68 O55 1.252 1_455 S
C68 C69 1.497 . S
C69 C68 1.497 . S
C69 C70 1.395 . S
C69 C71 1.380 . S
C70 C69 1.395 . S
C70 C73 1.398 . S
C70 H80 0.930 . S
C71 C69 1.380 . S
C71 C72 1.391 . S
C71 H81 0.930 1_465 S
C72 C71 1.391 . S
C72 C74 1.387 . S
C73 C70 1.398 . S
C73 C74 1.380 . S
C73 H82 0.930 . S
C74 C72 1.387 . S
C74 C73 1.380 . S
C74 H83 0.930 . S
C75 O52 1.254 . S
C75 O53 1.268 . S
H76 C61 0.930 . S
H77 C62 0.930 1_465 S
H78 C64 0.930 . S
H79 C65 0.930 . S
H80 C70 0.930 . S
H81 C71 0.930 1_645 S
H82 C73 0.930 . S
H83 C74 0.930 . S
Gd84 N115 2.661 . S
Gd84 N121 2.601 . S
Gd84 O128 2.545 . S
Gd84 O129 2.606 . S
Gd84 O131 2.429 . S
Gd84 O132 2.545 . S
Gd84 O133 2.412 . S
Gd84 O135 2.362 . S
Gd84 O136 2.324 . S
Gd84 C143 2.828 . S
Gd85 N94 2.661 . S
Gd85 N98 2.601 . S
Gd85 O129 2.362 . S
Gd85 O130 2.324 . S
Gd85 O134 2.545 . S
Gd85 O135 2.606 . S
Gd85 O137 2.429 . S
Gd85 O138 2.545 . S
Gd85 O139 2.412 . S
Gd85 C152 2.828 . S
C86 C89 1.417 . S
C86 C91 1.431 . S
C86 C92 1.412 . S
C87 C90 1.437 . S
C87 C91 1.317 . S
C87 H106 0.929 . S
C88 C89 1.426 . S
C88 C90 1.413 . S
C88 N98 1.359 . S
C89 C86 1.417 . S
C89 C88 1.426 . S
C89 N94 1.350 . S
C90 C87 1.437 . S
C90 C88 1.413 . S
C90 C100 1.391 . S
C91 C86 1.431 . S
C91 C87 1.317 . S
C91 H102 0.930 . S
C92 C86 1.412 . S
C92 C93 1.355 . S
C92 H104 0.930 . S
C93 C92 1.355 . S
C93 C95 1.402 . S
C93 H105 0.930 . S
N94 Gd85 2.661 . S
N94 C89 1.350 . S
N94 C95 1.307 . S
C95 C93 1.402 . S
C95 N94 1.307 . S
C95 H96 0.930 . S
H96 C95 0.930 . S
C97 N98 1.334 . S
C97 C99 1.394 . S
C97 H101 0.930 . S
N98 Gd85 2.601 . S
N98 C88 1.359 . S
N98 C97 1.334 . S
C99 C97 1.394 . S
C99 C100 1.359 . S
C99 H111 0.930 . S
C100 C90 1.391 . S
C100 C99 1.359 . S
C100 H112 0.929 . S
H101 C97 0.930 . S
H102 C91 0.930 . S
H103 C120 0.930 . S
H104 C92 0.930 . S
H105 C93 0.930 . S
H106 C87 0.929 . S
H107 C125 0.930 . S
H108 C116 0.930 . S
H109 C117 0.930 . S
H110 C141 0.929 . S
H111 C99 0.930 . S
H112 C100 0.929 . S
H113 C142 0.930 . S
H114 C123 0.930 . S
N115 Gd84 2.661 . S
N115 C119 1.350 . S
N115 C120 1.307 . S
C116 H108 0.930 . S
C116 C117 1.355 . S
C116 C118 1.412 . S
C117 H109 0.930 . S
C117 C116 1.355 . S
C117 C120 1.402 . S
C118 C116 1.412 . S
C118 C119 1.417 . S
C118 C142 1.431 . S
C119 N115 1.350 . S
C119 C118 1.417 . S
C119 C122 1.426 . S
C120 H103 0.930 . S
C120 N115 1.307 . S
C120 C117 1.402 . S
N121 Gd84 2.601 . S
N121 C122 1.359 . S
N121 C125 1.334 . S
C122 C119 1.426 . S
C122 N121 1.359 . S
C122 C126 1.413 . S
C123 H114 0.930 . S
C123 C124 1.359 . S
C123 C125 1.394 . S
C124 C123 1.359 . S
C124 C126 1.391 . S
C124 H127 0.929 . S
C125 H107 0.930 . S
C125 N121 1.334 . S
C125 C123 1.394 . S
C126 C122 1.413 . S
C126 C124 1.391 . S
C126 C141 1.437 . S
H127 C124 0.929 . S
O128 Gd84 2.545 . S
O128 C143 1.258 . S
O129 Gd84 2.606 . S
O129 Gd85 2.362 . S
O129 C140 1.284 . S
O130 Gd85 2.324 . S
O130 C150 1.254 . S
O131 Gd84 2.429 . S
O131 C150 1.268 . S
O132 Gd84 2.545 . S
O132 C140 1.250 . S
O133 Gd84 2.412 . S
O133 C143 1.252 . S
O134 Gd85 2.545 . S
O134 C152 1.258 . S
O135 Gd84 2.362 . S
O135 Gd85 2.606 . S
O135 C151 1.284 . S
O136 Gd84 2.324 . S
O136 C159 1.254 . S
O137 Gd85 2.429 . S
O137 C159 1.268 . S
O138 Gd85 2.545 . S
O138 C151 1.250 . S
O139 Gd85 2.412 . S
O139 C152 1.252 . S
C140 O129 1.284 . S
C140 O132 1.250 . S
C141 H110 0.929 . S
C141 C126 1.437 . S
C141 C142 1.317 . S
C142 H113 0.930 . S
C142 C118 1.431 . S
C142 C141 1.317 . S
C143 Gd84 2.828 . S
C143 O128 1.258 . S
C143 O133 1.252 . S
C143 C144 1.497 . S
C144 C143 1.497 . S
C144 C145 1.395 . S
C144 C146 1.380 . S
C145 C144 1.395 . S
C145 C148 1.398 1_556 S
C145 H160 0.930 . S
C146 C144 1.380 . S
C146 C147 1.391 1_556 S
C146 H161 0.930 . S
C147 C146 1.391 1_554 S
C147 C149 1.387 . S
C148 C145 1.398 1_554 S
C148 C149 1.380 . S
C148 H162 0.930 . S
C149 C147 1.387 . S
C149 C148 1.380 . S
C149 H163 0.930 . S
C150 O130 1.254 . S
C150 O131 1.268 . S
C151 O135 1.284 . S
C151 O138 1.250 . S
C152 Gd85 2.828 . S
C152 O134 1.258 . S
C152 O139 1.252 . S
C152 C153 1.497 . S
C153 C152 1.497 . S
C153 C154 1.395 . S
C153 C155 1.380 . S
C154 C153 1.395 . S
C154 C157 1.398 . S
C154 H164 0.930 . S
C155 C153 1.380 . S
C155 C156 1.391 . S
C155 H165 0.930 . S
C156 C155 1.391 . S
C156 C158 1.387 . S
C157 C154 1.398 . S
C157 C158 1.380 . S
C157 H166 0.930 . S
C158 C156 1.387 . S
C158 C157 1.380 . S
C158 H167 0.930 . S
C159 O136 1.254 . S
C159 O137 1.268 . S
H160 C145 0.930 . S
H161 C146 0.930 . S
H162 C148 0.930 . S
H163 C149 0.930 . S
H164 C154 0.930 . S
H165 C155 0.930 . S
H166 C157 0.930 . S
H167 C158 0.930 . S
Gd168 N199 2.661 . S
Gd168 N205 2.601 . S
Gd168 O212 2.545 . S
Gd168 O213 2.606 1_545 S
Gd168 O215 2.429 . S
Gd168 O216 2.545 1_545 S
Gd168 O217 2.412 . S
Gd168 O219 2.362 1_556 S
Gd168 O220 2.324 1_545 S
Gd168 C227 2.828 . S
Gd169 N178 2.661 . S
Gd169 N182 2.601 . S
Gd169 O213 2.362 1_554 S
Gd169 O214 2.324 1_565 S
Gd169 O218 2.545 . S
Gd169 O219 2.606 1_565 S
Gd169 O221 2.429 . S
Gd169 O222 2.545 1_565 S
Gd169 O223 2.412 . S
Gd169 C236 2.828 . S
C170 C173 1.417 . S
C170 C175 1.431 . S
C170 C176 1.412 . S
C171 C174 1.437 . S
C171 C175 1.317 . S
C171 H190 0.929 . S
C172 C173 1.426 . S
C172 C174 1.413 . S
C172 N182 1.359 . S
C173 C170 1.417 . S
C173 C172 1.426 . S
C173 N178 1.350 . S
C174 C171 1.437 . S
C174 C172 1.413 . S
C174 C184 1.391 . S
C175 C170 1.431 . S
C175 C171 1.317 . S
C175 H186 0.930 . S
C176 C170 1.412 . S
C176 C177 1.355 . S
C176 H188 0.930 . S
C177 C176 1.355 . S
C177 C179 1.402 . S
C177 H189 0.930 . S
N178 Gd169 2.661 . S
N178 C173 1.350 . S
N178 C179 1.307 . S
C179 C177 1.402 . S
C179 N178 1.307 . S
C179 H180 0.930 . S
H180 C179 0.930 . S
C181 N182 1.334 . S
C181 C183 1.394 . S
C181 H185 0.930 . S
N182 Gd169 2.601 . S
N182 C172 1.359 . S
N182 C181 1.334 . S
C183 C181 1.394 . S
C183 C184 1.359 . S
C183 H195 0.930 . S
C184 C174 1.391 . S
C184 C183 1.359 . S
C184 H196 0.929 . S
H185 C181 0.930 . S
H186 C175 0.930 . S
H187 C204 0.930 . S
H188 C176 0.930 . S
H189 C177 0.930 . S
H190 C171 0.929 . S
H191 C209 0.930 . S
H192 C200 0.930 . S
H193 C201 0.930 . S
H194 C225 0.929 . S
H195 C183 0.930 . S
H196 C184 0.929 . S
H197 C226 0.930 . S
H198 C207 0.930 . S
N199 Gd168 2.661 . S
N199 C203 1.350 . S
N199 C204 1.307 . S
C200 H192 0.930 . S
C200 C201 1.355 . S
C200 C202 1.412 . S
C201 H193 0.930 . S
C201 C200 1.355 . S
C201 C204 1.402 . S
C202 C200 1.412 . S
C202 C203 1.417 . S
C202 C226 1.431 . S
C203 N199 1.350 . S
C203 C202 1.417 . S
C203 C206 1.426 . S
C204 H187 0.930 . S
C204 N199 1.307 . S
C204 C201 1.402 . S
N205 Gd168 2.601 . S
N205 C206 1.359 . S
N205 C209 1.334 . S
C206 C203 1.426 . S
C206 N205 1.359 . S
C206 C210 1.413 . S
C207 H198 0.930 . S
C207 C208 1.359 . S
C207 C209 1.394 . S
C208 C207 1.359 . S
C208 C210 1.391 . S
C208 H211 0.929 . S
C209 H191 0.930 . S
C209 N205 1.334 . S
C209 C207 1.394 . S
C210 C206 1.413 . S
C210 C208 1.391 . S
C210 C225 1.437 . S
H211 C208 0.929 . S
O212 Gd168 2.545 . S
O212 C227 1.258 . S
O213 Gd168 2.606 1_565 S
O213 Gd169 2.362 1_556 S
O213 C224 1.284 . S
O214 Gd169 2.324 1_545 S
O214 C234 1.254 . S
O215 Gd168 2.429 . S
O215 C234 1.268 1_556 S
O216 Gd168 2.545 1_565 S
O216 C224 1.250 . S
O217 Gd168 2.412 . S
O217 C227 1.252 . S
O218 Gd169 2.545 . S
O218 C236 1.258 . S
O219 Gd168 2.362 1_554 S
O219 Gd169 2.606 1_545 S
O219 C235 1.284 . S
O220 Gd168 2.324 1_565 S
O220 C243 1.254 . S
O221 Gd169 2.429 . S
O221 C243 1.268 1_554 S
O222 Gd169 2.545 1_545 S
O222 C235 1.250 . S
O223 Gd169 2.412 . S
O223 C236 1.252 . S
C224 O213 1.284 . S
C224 O216 1.250 . S
C225 H194 0.929 . S
C225 C210 1.437 . S
C225 C226 1.317 . S
C226 H197 0.930 . S
C226 C202 1.431 . S
C226 C225 1.317 . S
C227 Gd168 2.828 . S
C227 O212 1.258 . S
C227 O217 1.252 . S
C227 C228 1.497 . S
C228 C227 1.497 . S
C228 C229 1.395 . S
C228 C230 1.380 . S
C229 C228 1.395 . S
C229 C232 1.398 . S
C229 H244 0.930 . S
C230 C228 1.380 . S
C230 C231 1.391 . S
C230 H245 0.930 1_545 S
C231 C230 1.391 . S
C231 C233 1.387 . S
C232 C229 1.398 . S
C232 C233 1.380 . S
C232 H246 0.930 . S
C233 C231 1.387 . S
C233 C232 1.380 . S
C233 H247 0.930 . S
C234 O214 1.254 . S
C234 O215 1.268 1_554 S
C235 O219 1.284 . S
C235 O222 1.250 . S
C236 Gd169 2.828 . S
C236 O218 1.258 . S
C236 O223 1.252 . S
C236 C237 1.497 . S
C237 C236 1.497 . S
C237 C238 1.395 . S
C237 C239 1.380 . S
C238 C237 1.395 . S
C238 C241 1.398 . S
C238 H248 0.930 . S
C239 C237 1.380 . S
C239 C240 1.391 . S
C239 H249 0.930 1_565 S
C240 C239 1.391 . S
C240 C242 1.387 . S
C241 C238 1.398 . S
C241 C242 1.380 . S
C241 H250 0.930 . S
C242 C240 1.387 . S
C242 C241 1.380 . S
C242 H251 0.930 . S
C243 O220 1.254 . S
C243 O221 1.268 1_556 S
H244 C229 0.930 . S
H245 C230 0.930 1_565 S
H246 C232 0.930 . S
H247 C233 0.930 . S
H248 C238 0.930 . S
H249 C239 0.930 1_545 S
H250 C241 0.930 . S
H251 C242 0.930 . S
Gd252 N283 2.661 . S
Gd252 N289 2.601 . S
Gd252 O296 2.545 . S
Gd252 O297 2.606 . S
Gd252 O299 2.429 . S
Gd252 O300 2.545 . S
Gd252 O301 2.412 . S
Gd252 O303 2.362 . S
Gd252 O304 2.324 . S
Gd252 C311 2.828 . S
Gd253 N262 2.661 . S
Gd253 N266 2.601 . S
Gd253 O297 2.362 . S
Gd253 O298 2.324 . S
Gd253 O302 2.545 . S
Gd253 O303 2.606 . S
Gd253 O305 2.429 . S
Gd253 O306 2.545 . S
Gd253 O307 2.412 . S
Gd253 C320 2.828 . S
C254 C257 1.417 . S
C254 C259 1.431 . S
C254 C260 1.412 . S
C255 C258 1.437 . S
C255 C259 1.317 . S
C255 H274 0.929 . S
C256 C257 1.426 . S
C256 C258 1.413 . S
C256 N266 1.359 . S
C257 C254 1.417 . S
C257 C256 1.426 . S
C257 N262 1.350 . S
C258 C255 1.437 . S
C258 C256 1.413 . S
C258 C268 1.391 . S
C259 C254 1.431 . S
C259 C255 1.317 . S
C259 H270 0.930 . S
C260 C254 1.412 . S
C260 C261 1.355 . S
C260 H272 0.930 . S
C261 C260 1.355 . S
C261 C263 1.402 . S
C261 H273 0.930 . S
N262 Gd253 2.661 . S
N262 C257 1.350 . S
N262 C263 1.307 . S
C263 C261 1.402 . S
C263 N262 1.307 . S
C263 H264 0.930 . S
H264 C263 0.930 . S
C265 N266 1.334 . S
C265 C267 1.394 . S
C265 H269 0.930 . S
N266 Gd253 2.601 . S
N266 C256 1.359 . S
N266 C265 1.334 . S
C267 C265 1.394 . S
C267 C268 1.359 . S
C267 H279 0.930 . S
C268 C258 1.391 . S
C268 C267 1.359 . S
C268 H280 0.929 . S
H269 C265 0.930 . S
H270 C259 0.930 . S
H271 C288 0.930 . S
H272 C260 0.930 . S
H273 C261 0.930 . S
H274 C255 0.929 . S
H275 C293 0.930 . S
H276 C284 0.930 . S
H277 C285 0.930 . S
H278 C309 0.929 . S
H279 C267 0.930 . S
H280 C268 0.929 . S
H281 C310 0.930 . S
H282 C291 0.930 . S
N283 Gd252 2.661 . S
N283 C287 1.350 . S
N283 C288 1.307 . S
C284 H276 0.930 . S
C284 C285 1.355 . S
C284 C286 1.412 . S
C285 H277 0.930 . S
C285 C284 1.355 . S
C285 C288 1.402 . S
C286 C284 1.412 . S
C286 C287 1.417 . S
C286 C310 1.431 . S
C287 N283 1.350 . S
C287 C286 1.417 . S
C287 C290 1.426 . S
C288 H271 0.930 . S
C288 N283 1.307 . S
C288 C285 1.402 . S
N289 Gd252 2.601 . S
N289 C290 1.359 . S
N289 C293 1.334 . S
C290 C287 1.426 . S
C290 N289 1.359 . S
C290 C294 1.413 . S
C291 H282 0.930 . S
C291 C292 1.359 . S
C291 C293 1.394 . S
C292 C291 1.359 . S
C292 C294 1.391 . S
C292 H295 0.929 . S
C293 H275 0.930 . S
C293 N289 1.334 . S
C293 C291 1.394 . S
C294 C290 1.413 . S
C294 C292 1.391 . S
C294 C309 1.437 . S
H295 C292 0.929 . S
O296 Gd252 2.545 . S
O296 C311 1.258 . S
O297 Gd252 2.606 . S
O297 Gd253 2.362 . S
O297 C308 1.284 . S
O298 Gd253 2.324 . S
O298 C318 1.254 . S
O299 Gd252 2.429 . S
O299 C318 1.268 . S
O300 Gd252 2.545 . S
O300 C308 1.250 . S
O301 Gd252 2.412 . S
O301 C311 1.252 . S
O302 Gd253 2.545 . S
O302 C320 1.258 . S
O303 Gd252 2.362 . S
O303 Gd253 2.606 . S
O303 C319 1.284 . S
O304 Gd252 2.324 . S
O304 C327 1.254 . S
O305 Gd253 2.429 . S
O305 C327 1.268 . S
O306 Gd253 2.545 . S
O306 C319 1.250 . S
O307 Gd253 2.412 . S
O307 C320 1.252 . S
C308 O297 1.284 . S
C308 O300 1.250 . S
C309 H278 0.929 . S
C309 C294 1.437 . S
C309 C310 1.317 . S
C310 H281 0.930 . S
C310 C286 1.431 . S
C310 C309 1.317 . S
C311 Gd252 2.828 . S
C311 O296 1.258 . S
C311 O301 1.252 . S
C311 C312 1.497 . S
C312 C311 1.497 . S
C312 C313 1.395 . S
C312 C314 1.380 . S
C313 C312 1.395 . S
C313 C316 1.398 1_554 S
C313 H328 0.930 . S
C314 C312 1.380 . S
C314 C315 1.391 1_554 S
C314 H329 0.930 . S
C315 C314 1.391 1_556 S
C315 C317 1.387 . S
C316 C313 1.398 1_556 S
C316 C317 1.380 . S
C316 H330 0.930 . S
C317 C315 1.387 . S
C317 C316 1.380 . S
C317 H331 0.930 . S
C318 O298 1.254 . S
C318 O299 1.268 . S
C319 O303 1.284 . S
C319 O306 1.250 . S
C320 Gd253 2.828 . S
C320 O302 1.258 . S
C320 O307 1.252 . S
C320 C321 1.497 . S
C321 C320 1.497 . S
C321 C322 1.395 . S
C321 C323 1.380 . S
C322 C321 1.395 . S
C322 C325 1.398 . S
C322 H332 0.930 . S
C323 C321 1.380 . S
C323 C324 1.391 . S
C323 H333 0.930 . S
C324 C323 1.391 . S
C324 C326 1.387 . S
C325 C322 1.398 . S
C325 C326 1.380 . S
C325 H334 0.930 . S
C326 C324 1.387 . S
C326 C325 1.380 . S
C326 H335 0.930 . S
C327 O304 1.254 . S
C327 O305 1.268 . S
H328 C313 0.930 . S
H329 C314 0.930 . S
H330 C316 0.930 . S
H331 C317 0.930 . S
H332 C322 0.930 . S
H333 C323 0.930 . S
H334 C325 0.930 . S
H335 C326 0.930 . S
Gd336 N367 2.661 . S
Gd336 N373 2.601 . S
Gd336 O380 2.545 . S
Gd336 O381 2.606 . S
Gd336 O383 2.429 . S
Gd336 O384 2.545 . S
Gd336 O385 2.412 . S
Gd336 O387 2.362 . S
Gd336 O388 2.324 . S
Gd336 C395 2.828 . S
Gd337 N346 2.661 . S
Gd337 N350 2.601 . S
Gd337 O381 2.362 . S
Gd337 O382 2.324 . S
Gd337 O386 2.545 . S
Gd337 O387 2.606 . S
Gd337 O389 2.429 . S
Gd337 O390 2.545 . S
Gd337 O391 2.412 . S
Gd337 C404 2.828 . S
C338 C341 1.417 . S
C338 C343 1.431 . S
C338 C344 1.412 . S
C339 C342 1.437 . S
C339 C343 1.317 . S
C339 H358 0.929 . S
C340 C341 1.426 . S
C340 C342 1.413 . S
C340 N350 1.359 . S
C341 C338 1.417 . S
C341 C340 1.426 . S
C341 N346 1.350 . S
C342 C339 1.437 . S
C342 C340 1.413 . S
C342 C352 1.391 . S
C343 C338 1.431 . S
C343 C339 1.317 . S
C343 H354 0.930 . S
C344 C338 1.412 . S
C344 C345 1.355 . S
C344 H356 0.930 . S
C345 C344 1.355 . S
C345 C347 1.402 . S
C345 H357 0.930 . S
N346 Gd337 2.661 . S
N346 C341 1.350 . S
N346 C347 1.307 . S
C347 C345 1.402 . S
C347 N346 1.307 . S
C347 H348 0.930 . S
H348 C347 0.930 . S
C349 N350 1.334 . S
C349 C351 1.394 . S
C349 H353 0.930 . S
N350 Gd337 2.601 . S
N350 C340 1.359 . S
N350 C349 1.334 . S
C351 C349 1.394 . S
C351 C352 1.359 . S
C351 H363 0.930 . S
C352 C342 1.391 . S
C352 C351 1.359 . S
C352 H364 0.929 . S
H353 C349 0.930 . S
H354 C343 0.930 . S
H355 C372 0.930 . S
H356 C344 0.930 . S
H357 C345 0.930 . S
H358 C339 0.929 . S
H359 C377 0.930 . S
H360 C368 0.930 . S
H361 C369 0.930 . S
H362 C393 0.929 . S
H363 C351 0.930 . S
H364 C352 0.929 . S
H365 C394 0.930 . S
H366 C375 0.930 . S
N367 Gd336 2.661 . S
N367 C371 1.350 . S
N367 C372 1.307 . S
C368 H360 0.930 . S
C368 C369 1.355 . S
C368 C370 1.412 . S
C369 H361 0.930 . S
C369 C368 1.355 . S
C369 C372 1.402 . S
C370 C368 1.412 . S
C370 C371 1.417 . S
C370 C394 1.431 . S
C371 N367 1.350 . S
C371 C370 1.417 . S
C371 C374 1.426 . S
C372 H355 0.930 . S
C372 N367 1.307 . S
C372 C369 1.402 . S
N373 Gd336 2.601 . S
N373 C374 1.359 . S
N373 C377 1.334 . S
C374 C371 1.426 . S
C374 N373 1.359 . S
C374 C378 1.413 . S
C375 H366 0.930 . S
C375 C376 1.359 . S
C375 C377 1.394 . S
C376 C375 1.359 . S
C376 C378 1.391 . S
C376 H379 0.929 . S
C377 H359 0.930 . S
C377 N373 1.334 . S
C377 C375 1.394 . S
C378 C374 1.413 . S
C378 C376 1.391 . S
C378 C393 1.437 . S
H379 C376 0.929 . S
O380 Gd336 2.545 . S
O380 C395 1.258 . S
O381 Gd336 2.606 . S
O381 Gd337 2.362 . S
O381 C392 1.284 . S
O382 Gd337 2.324 . S
O382 C402 1.254 . S
O383 Gd336 2.429 . S
O383 C402 1.268 . S
O384 Gd336 2.545 . S
O384 C392 1.250 . S
O385 Gd336 2.412 . S
O385 C395 1.252 . S
O386 Gd337 2.545 . S
O386 C404 1.258 . S
O387 Gd336 2.362 . S
O387 Gd337 2.606 . S
O387 C403 1.284 . S
O388 Gd336 2.324 . S
O388 C411 1.254 . S
O389 Gd337 2.429 . S
O389 C411 1.268 . S
O390 Gd337 2.545 . S
O390 C403 1.250 . S
O391 Gd337 2.412 . S
O391 C404 1.252 . S
C392 O381 1.284 . S
C392 O384 1.250 . S
C393 H362 0.929 . S
C393 C378 1.437 . S
C393 C394 1.317 . S
C394 H365 0.930 . S
C394 C370 1.431 . S
C394 C393 1.317 . S
C395 Gd336 2.828 . S
C395 O380 1.258 . S
C395 O385 1.252 . S
C395 C396 1.497 . S
C396 C395 1.497 . S
C396 C397 1.395 . S
C396 C398 1.380 . S
C397 C396 1.395 . S
C397 C400 1.398 . S
C397 H412 0.930 . S
C398 C396 1.380 . S
C398 C399 1.391 . S
C398 H413 0.930 . S
C399 C398 1.391 . S
C399 C401 1.387 . S
C400 C397 1.398 . S
C400 C401 1.380 . S
C400 H414 0.930 . S
C401 C399 1.387 . S
C401 C400 1.380 . S
C401 H415 0.930 . S
C402 O382 1.254 . S
C402 O383 1.268 . S
C403 O387 1.284 . S
C403 O390 1.250 . S
C404 Gd337 2.828 . S
C404 O386 1.258 . S
C404 O391 1.252 . S
C404 C405 1.497 . S
C405 C404 1.497 . S
C405 C406 1.395 . S
C405 C407 1.380 . S
C406 C405 1.395 . S
C406 C409 1.398 1_554 S
C406 H416 0.930 . S
C407 C405 1.380 . S
C407 C408 1.391 1_554 S
C407 H417 0.930 . S
C408 C407 1.391 1_556 S
C408 C410 1.387 . S
C409 C406 1.398 1_556 S
C409 C410 1.380 . S
C409 H418 0.930 . S
C410 C408 1.387 . S
C410 C409 1.380 . S
C410 H419 0.930 . S
C411 O388 1.254 . S
C411 O389 1.268 . S
H412 C397 0.930 . S
H413 C398 0.930 . S
H414 C400 0.930 . S
H415 C401 0.930 . S
H416 C406 0.930 . S
H417 C407 0.930 . S
H418 C409 0.930 . S
H419 C410 0.930 . S
Gd420 N451 2.661 . S
Gd420 N457 2.601 . S
Gd420 O464 2.545 . S
Gd420 O465 2.606 . S
Gd420 O467 2.429 . S
Gd420 O468 2.545 . S
Gd420 O469 2.412 . S
Gd420 O471 2.362 . S
Gd420 O472 2.324 . S
Gd420 C479 2.828 . S
Gd421 N430 2.661 . S
Gd421 N434 2.601 . S
Gd421 O465 2.362 . S
Gd421 O466 2.324 . S
Gd421 O470 2.545 . S
Gd421 O471 2.606 . S
Gd421 O473 2.429 . S
Gd421 O474 2.545 . S
Gd421 O475 2.412 . S
Gd421 C488 2.828 . S
C422 C425 1.417 . S
C422 C427 1.431 . S
C422 C428 1.412 . S
C423 C426 1.437 . S
C423 C427 1.317 . S
C423 H442 0.929 . S
C424 C425 1.426 . S
C424 C426 1.413 . S
C424 N434 1.359 . S
C425 C422 1.417 . S
C425 C424 1.426 . S
C425 N430 1.350 . S
C426 C423 1.437 . S
C426 C424 1.413 . S
C426 C436 1.391 . S
C427 C422 1.431 . S
C427 C423 1.317 . S
C427 H438 0.930 . S
C428 C422 1.412 . S
C428 C429 1.355 . S
C428 H440 0.930 . S
C429 C428 1.355 . S
C429 C431 1.402 . S
C429 H441 0.930 . S
N430 Gd421 2.661 . S
N430 C425 1.350 . S
N430 C431 1.307 . S
C431 C429 1.402 . S
C431 N430 1.307 . S
C431 H432 0.930 . S
H432 C431 0.930 . S
C433 N434 1.334 . S
C433 C435 1.394 . S
C433 H437 0.930 . S
N434 Gd421 2.601 . S
N434 C424 1.359 . S
N434 C433 1.334 . S
C435 C433 1.394 . S
C435 C436 1.359 . S
C435 H447 0.930 . S
C436 C426 1.391 . S
C436 C435 1.359 . S
C436 H448 0.929 . S
H437 C433 0.930 . S
H438 C427 0.930 . S
H439 C456 0.930 . S
H440 C428 0.930 . S
H441 C429 0.930 . S
H442 C423 0.929 . S
H443 C461 0.930 . S
H444 C452 0.930 . S
H445 C453 0.930 . S
H446 C477 0.929 . S
H447 C435 0.930 . S
H448 C436 0.929 . S
H449 C478 0.930 . S
H450 C459 0.930 . S
N451 Gd420 2.661 . S
N451 C455 1.350 . S
N451 C456 1.307 . S
C452 H444 0.930 . S
C452 C453 1.355 . S
C452 C454 1.412 . S
C453 H445 0.930 . S
C453 C452 1.355 . S
C453 C456 1.402 . S
C454 C452 1.412 . S
C454 C455 1.417 . S
C454 C478 1.431 . S
C455 N451 1.350 . S
C455 C454 1.417 . S
C455 C458 1.426 . S
C456 H439 0.930 . S
C456 N451 1.307 . S
C456 C453 1.402 . S
N457 Gd420 2.601 . S
N457 C458 1.359 . S
N457 C461 1.334 . S
C458 C455 1.426 . S
C458 N457 1.359 . S
C458 C462 1.413 . S
C459 H450 0.930 . S
C459 C460 1.359 . S
C459 C461 1.394 . S
C460 C459 1.359 . S
C460 C462 1.391 . S
C460 H463 0.929 . S
C461 H443 0.930 . S
C461 N457 1.334 . S
C461 C459 1.394 . S
C462 C458 1.413 . S
C462 C460 1.391 . S
C462 C477 1.437 . S
H463 C460 0.929 . S
O464 Gd420 2.545 . S
O464 C479 1.258 . S
O465 Gd420 2.606 . S
O465 Gd421 2.362 . S
O465 C476 1.284 . S
O466 Gd421 2.324 . S
O466 C486 1.254 . S
O467 Gd420 2.429 . S
O467 C486 1.268 . S
O468 Gd420 2.545 . S
O468 C476 1.250 . S
O469 Gd420 2.412 . S
O469 C479 1.252 . S
O470 Gd421 2.545 . S
O470 C488 1.258 . S
O471 Gd420 2.362 . S
O471 Gd421 2.606 . S
O471 C487 1.284 . S
O472 Gd420 2.324 . S
O472 C495 1.254 . S
O473 Gd421 2.429 . S
O473 C495 1.268 . S
O474 Gd421 2.545 . S
O474 C487 1.250 . S
O475 Gd421 2.412 . S
O475 C488 1.252 . S
C476 O465 1.284 . S
C476 O468 1.250 . S
C477 H446 0.929 . S
C477 C462 1.437 . S
C477 C478 1.317 . S
C478 H449 0.930 . S
C478 C454 1.431 . S
C478 C477 1.317 . S
C479 Gd420 2.828 . S
C479 O464 1.258 . S
C479 O469 1.252 . S
C479 C480 1.497 . S
C480 C479 1.497 . S
C480 C481 1.395 . S
C480 C482 1.380 . S
C481 C480 1.395 . S
C481 C484 1.398 . S
C481 H496 0.930 . S
C482 C480 1.380 . S
C482 C483 1.391 . S
C482 H497 0.930 . S
C483 C482 1.391 . S
C483 C485 1.387 . S
C484 C481 1.398 . S
C484 C485 1.380 . S
C484 H498 0.930 . S
C485 C483 1.387 . S
C485 C484 1.380 . S
C485 H499 0.930 . S
C486 O466 1.254 . S
C486 O467 1.268 . S
C487 O471 1.284 . S
C487 O474 1.250 . S
C488 Gd421 2.828 . S
C488 O470 1.258 . S
C488 O475 1.252 . S
C488 C489 1.497 . S
C489 C488 1.497 . S
C489 C490 1.395 . S
C489 C491 1.380 . S
C490 C489 1.395 . S
C490 C493 1.398 1_556 S
C490 H500 0.930 . S
C491 C489 1.380 . S
C491 C492 1.391 1_556 S
C491 H501 0.930 . S
C492 C491 1.391 1_554 S
C492 C494 1.387 . S
C493 C490 1.398 1_554 S
C493 C494 1.380 . S
C493 H502 0.930 . S
C494 C492 1.387 . S
C494 C493 1.380 . S
C494 H503 0.930 . S
C495 O472 1.254 . S
C495 O473 1.268 . S
H496 C481 0.930 . S
H497 C482 0.930 . S
H498 C484 0.930 . S
H499 C485 0.930 . S
H500 C490 0.930 . S
H501 C491 0.930 . S
H502 C493 0.930 . S
H503 C494 0.930 . S
Gd504 N535 2.661 . S
Gd504 N541 2.601 . S
Gd504 O548 2.545 . S
Gd504 O549 2.606 . S
Gd504 O551 2.429 . S
Gd504 O552 2.545 . S
Gd504 O553 2.412 . S
Gd504 O555 2.362 1_554 S
Gd504 O556 2.324 . S
Gd504 C563 2.828 . S
Gd505 N514 2.661 . S
Gd505 N518 2.601 . S
Gd505 O549 2.362 1_556 S
Gd505 O550 2.324 . S
Gd505 O554 2.545 . S
Gd505 O555 2.606 . S
Gd505 O557 2.429 . S
Gd505 O558 2.545 . S
Gd505 O559 2.412 . S
Gd505 C572 2.828 . S
C506 C509 1.417 . S
C506 C511 1.431 . S
C506 C512 1.412 . S
C507 C510 1.437 . S
C507 C511 1.317 . S
C507 H526 0.929 . S
C508 C509 1.426 . S
C508 C510 1.413 . S
C508 N518 1.359 . S
C509 C506 1.417 . S
C509 C508 1.426 . S
C509 N514 1.350 . S
C510 C507 1.437 . S
C510 C508 1.413 . S
C510 C520 1.391 . S
C511 C506 1.431 . S
C511 C507 1.317 . S
C511 H522 0.930 . S
C512 C506 1.412 . S
C512 C513 1.355 . S
C512 H524 0.930 . S
C513 C512 1.355 . S
C513 C515 1.402 . S
C513 H525 0.930 . S
N514 Gd505 2.661 . S
N514 C509 1.350 . S
N514 C515 1.307 . S
C515 C513 1.402 . S
C515 N514 1.307 . S
C515 H516 0.930 . S
H516 C515 0.930 . S
C517 N518 1.334 . S
C517 C519 1.394 . S
C517 H521 0.930 . S
N518 Gd505 2.601 . S
N518 C508 1.359 . S
N518 C517 1.334 . S
C519 C517 1.394 . S
C519 C520 1.359 . S
C519 H531 0.930 . S
C520 C510 1.391 . S
C520 C519 1.359 . S
C520 H532 0.929 . S
H521 C517 0.930 . S
H522 C511 0.930 . S
H523 C540 0.930 . S
H524 C512 0.930 . S
H525 C513 0.930 . S
H526 C507 0.929 . S
H527 C545 0.930 . S
H528 C536 0.930 . S
H529 C537 0.930 . S
H530 C561 0.929 . S
H531 C519 0.930 . S
H532 C520 0.929 . S
H533 C562 0.930 . S
H534 C543 0.930 . S
N535 Gd504 2.661 . S
N535 C539 1.350 . S
N535 C540 1.307 . S
C536 H528 0.930 . S
C536 C537 1.355 . S
C536 C538 1.412 . S
C537 H529 0.930 . S
C537 C536 1.355 . S
C537 C540 1.402 . S
C538 C536 1.412 . S
C538 C539 1.417 . S
C538 C562 1.431 . S
C539 N535 1.350 . S
C539 C538 1.417 . S
C539 C542 1.426 . S
C540 H523 0.930 . S
C540 N535 1.307 . S
C540 C537 1.402 . S
N541 Gd504 2.601 . S
N541 C542 1.359 . S
N541 C545 1.334 . S
C542 C539 1.426 . S
C542 N541 1.359 . S
C542 C546 1.413 . S
C543 H534 0.930 . S
C543 C544 1.359 . S
C543 C545 1.394 . S
C544 C543 1.359 . S
C544 C546 1.391 . S
C544 H547 0.929 . S
C545 H527 0.930 . S
C545 N541 1.334 . S
C545 C543 1.394 . S
C546 C542 1.413 . S
C546 C544 1.391 . S
C546 C561 1.437 . S
H547 C544 0.929 . S
O548 Gd504 2.545 . S
O548 C563 1.258 . S
O549 Gd504 2.606 . S
O549 Gd505 2.362 1_554 S
O549 C560 1.284 . S
O550 Gd505 2.324 . S
O550 C570 1.254 . S
O551 Gd504 2.429 . S
O551 C570 1.268 1_554 S
O552 Gd504 2.545 . S
O552 C560 1.250 . S
O553 Gd504 2.412 . S
O553 C563 1.252 . S
O554 Gd505 2.545 . S
O554 C572 1.258 . S
O555 Gd504 2.362 1_556 S
O555 Gd505 2.606 . S
O555 C571 1.284 . S
O556 Gd504 2.324 . S
O556 C579 1.254 . S
O557 Gd505 2.429 . S
O557 C579 1.268 1_556 S
O558 Gd505 2.545 . S
O558 C571 1.250 . S
O559 Gd505 2.412 . S
O559 C572 1.252 . S
C560 O549 1.284 . S
C560 O552 1.250 . S
C561 H530 0.929 . S
C561 C546 1.437 . S
C561 C562 1.317 . S
C562 H533 0.930 . S
C562 C538 1.431 . S
C562 C561 1.317 . S
C563 Gd504 2.828 . S
C563 O548 1.258 . S
C563 O553 1.252 . S
C563 C564 1.497 . S
C564 C563 1.497 . S
C564 C565 1.395 . S
C564 C566 1.380 . S
C565 C564 1.395 . S
C565 C568 1.398 . S
C565 H580 0.930 . S
C566 C564 1.380 . S
C566 C567 1.391 . S
C566 H581 0.930 . S
C567 C566 1.391 . S
C567 C569 1.387 . S
C568 C565 1.398 . S
C568 C569 1.380 . S
C568 H582 0.930 . S
C569 C567 1.387 . S
C569 C568 1.380 . S
C569 H583 0.930 . S
C570 O550 1.254 . S
C570 O551 1.268 1_556 S
C571 O555 1.284 . S
C571 O558 1.250 . S
C572 Gd505 2.828 . S
C572 O554 1.258 . S
C572 O559 1.252 . S
C572 C573 1.497 . S
C573 C572 1.497 . S
C573 C574 1.395 . S
C573 C575 1.380 . S
C574 C573 1.395 . S
C574 C577 1.398 . S
C574 H584 0.930 . S
C575 C573 1.380 . S
C575 C576 1.391 . S
C575 H585 0.930 . S
C576 C575 1.391 . S
C576 C578 1.387 . S
C577 C574 1.398 . S
C577 C578 1.380 . S
C577 H586 0.930 . S
C578 C576 1.387 . S
C578 C577 1.380 . S
C578 H587 0.930 . S
C579 O556 1.254 . S
C579 O557 1.268 1_554 S
H580 C565 0.930 . S
H581 C566 0.930 . S
H582 C568 0.930 . S
H583 C569 0.930 . S
H584 C574 0.930 . S
H585 C575 0.930 . S
H586 C577 0.930 . S
H587 C578 0.930 . S
Gd588 N619 2.657 1_455 S
Gd588 N625 2.601 1_455 S
Gd588 O632 2.547 . S
Gd588 O633 2.607 . S
Gd588 O635 2.432 . S
Gd588 O636 2.547 . S
Gd588 O637 2.411 1_455 S
Gd588 O639 2.360 1_455 S
Gd588 O640 2.321 1_455 S
Gd588 C647 2.829 . S
Gd589 N598 2.657 . S
Gd589 N602 2.601 . S
Gd589 O633 2.360 . S
Gd589 O634 2.321 . S
Gd589 O638 2.547 1_455 S
Gd589 O639 2.607 1_455 S
Gd589 O641 2.432 1_455 S
Gd589 O642 2.547 1_455 S
Gd589 O643 2.411 . S
Gd589 C656 2.829 1_455 S
C590 C593 1.417 . S
C590 C595 1.431 . S
C590 C596 1.412 . S
C591 C594 1.437 . S
C591 C595 1.317 . S
C591 H610 0.929 . S
C592 C593 1.426 . S
C592 C594 1.413 . S
C592 N602 1.359 . S
C593 C590 1.417 . S
C593 C592 1.426 . S
C593 N598 1.350 . S
C594 C591 1.437 . S
C594 C592 1.413 . S
C594 C604 1.430 . S
C595 C590 1.431 . S
C595 C591 1.317 . S
C595 H606 0.930 . S
C596 C590 1.412 . S
C596 C597 1.355 . S
C596 H608 0.930 . S
C597 C596 1.355 . S
C597 C599 1.402 . S
C597 H609 0.930 . S
N598 Gd589 2.657 . S
N598 C593 1.350 . S
N598 C599 1.307 . S
C599 C597 1.402 . S
C599 N598 1.307 . S
C599 H600 0.930 . S
H600 C599 0.930 . S
C601 N602 1.334 1_655 S
C601 C603 1.394 . S
C601 H605 0.930 . S
N602 Gd589 2.601 . S
N602 C592 1.359 . S
N602 C601 1.334 1_455 S
C603 C601 1.394 . S
C603 C604 1.322 1_655 S
C603 H615 0.930 . S
C604 C594 1.430 . S
C604 C603 1.322 1_455 S
C604 H616 0.929 . S
H605 C601 0.930 . S
H606 C595 0.930 . S
H607 C624 0.930 . S
H608 C596 0.930 . S
H609 C597 0.930 . S
H610 C591 0.929 . S
H611 C629 0.930 . S
H612 C620 0.930 . S
H613 C621 0.930 . S
H614 C645 0.929 . S
H615 C603 0.930 . S
H616 C604 0.929 . S
H617 C646 0.930 . S
H618 C627 0.930 . S
N619 Gd588 2.657 1_655 S
N619 C623 1.350 . S
N619 C624 1.307 . S
C620 H612 0.930 . S
C620 C621 1.355 . S
C620 C622 1.412 . S
C621 H613 0.930 . S
C621 C620 1.355 . S
C621 C624 1.402 . S
C622 C620 1.412 . S
C622 C623 1.417 . S
C622 C646 1.431 . S
C623 N619 1.350 . S
C623 C622 1.417 . S
C623 C626 1.426 . S
C624 H607 0.930 . S
C624 N619 1.307 . S
C624 C621 1.402 . S
N625 Gd588 2.601 1_655 S
N625 C626 1.359 . S
N625 C629 1.334 1_655 S
C626 C623 1.426 . S
C626 N625 1.359 . S
C626 C630 1.413 . S
C627 H618 0.930 . S
C627 C628 1.330 1_455 S
C627 C629 1.394 . S
C628 C627 1.330 1_655 S
C628 C630 1.421 . S
C628 H631 0.929 . S
C629 H611 0.930 . S
C629 N625 1.334 1_455 S
C629 C627 1.394 . S
C630 C626 1.413 . S
C630 C628 1.421 . S
C630 C645 1.437 . S
H631 C628 0.929 . S
O632 Gd588 2.547 . S
O632 C647 1.258 . S
O633 Gd588 2.607 . S
O633 Gd589 2.360 . S
O633 C644 1.284 . S
O634 Gd589 2.321 . S
O634 C654 1.254 . S
O635 Gd588 2.432 . S
O635 C654 1.268 . S
O636 Gd588 2.547 . S
O636 C644 1.250 . S
O637 Gd588 2.411 1_655 S
O637 C647 1.252 1_655 S
O638 Gd589 2.547 1_655 S
O638 C656 1.258 . S
O639 Gd588 2.360 1_655 S
O639 Gd589 2.607 1_655 S
O639 C655 1.284 . S
O640 Gd588 2.321 1_655 S
O640 C663 1.254 . S
O641 Gd589 2.432 1_655 S
O641 C663 1.268 . S
O642 Gd589 2.547 1_655 S
O642 C655 1.250 . S
O643 Gd589 2.411 . S
O643 C656 1.252 1_455 S
C644 O633 1.284 . S
C644 O636 1.250 . S
C645 H614 0.929 . S
C645 C630 1.437 . S
C645 C646 1.317 . S
C646 H617 0.930 . S
C646 C622 1.431 . S
C646 C645 1.317 . S
C647 Gd588 2.829 . S
C647 O632 1.258 . S
C647 O637 1.252 1_455 S
C647 C648 1.497 . S
C648 C647 1.497 . S
C648 C649 1.395 . S
C648 C650 1.380 . S
C649 C648 1.395 . S
C649 C652 1.398 . S
C649 H664 0.930 . S
C650 C648 1.380 . S
C650 C651 1.391 . S
C650 H665 0.930 1_455 S
C651 C650 1.391 . S
C651 C653 1.387 . S
C652 C649 1.398 . S
C652 C653 1.380 . S
C652 H666 0.930 . S
C653 C651 1.387 . S
C653 C652 1.380 . S
C653 H667 0.930 . S
C654 O634 1.254 . S
C654 O635 1.268 . S
C655 O639 1.284 . S
C655 O642 1.250 . S
C656 Gd589 2.829 1_655 S
C656 O638 1.258 . S
C656 O643 1.252 1_655 S
C656 C657 1.497 . S
C657 C656 1.497 . S
C657 C658 1.395 . S
C657 C659 1.380 . S
C658 C657 1.395 . S
C658 C661 1.398 . S
C658 H668 0.930 . S
C659 C657 1.380 . S
C659 C660 1.391 . S
C659 H669 0.930 1_655 S
C660 C659 1.391 . S
C660 C662 1.387 . S
C661 C658 1.398 . S
C661 C662 1.380 . S
C661 H670 0.930 . S
C662 C660 1.387 . S
C662 C661 1.380 . S
C662 H671 0.930 . S
C663 O640 1.254 . S
C663 O641 1.268 . S
H664 C649 0.930 . S
H665 C650 0.930 1_655 S
H666 C652 0.930 . S
H667 C653 0.930 . S
H668 C658 0.930 . S
H669 C659 0.930 1_455 S
H670 C661 0.930 . S
H671 C662 0.930 . S
H672 C680 0.929 . S
H673 C682 0.930 . S
H674 C684 0.930 . S
H675 C687 0.929 . S
H676 C690 0.930 . S
H677 C692 0.960 . S
H678 C692 0.960 . S
H679 C692 0.960 . S
C680 H672 0.929 . S
C680 C681 1.377 . S
C680 C682 1.384 . S
C681 C680 1.377 . S
C681 C687 1.390 . S
C682 H673 0.930 . S
C682 C680 1.384 . S
C682 C683 1.372 . S
C683 C682 1.372 . S
C683 C684 1.400 . S
C683 C688 1.490 . S
C684 H674 0.930 . S
C684 C683 1.400 . S
C684 C687 1.386 . S
H685 C701 0.930 . S
H686 C702 0.931 . S
C687 H675 0.929 . S
C687 C681 1.390 . S
C687 C684 1.386 . S
C688 C683 1.490 . S
C688 C690 1.395 . S
C688 C691 1.403 . S
H689 C695 0.930 . S
C690 H676 0.930 . S
C690 C688 1.395 . S
C690 C693 1.403 . S
C691 C688 1.403 . S
C691 C692 1.524 . S
C691 C695 1.400 . S
C692 H677 0.960 . S
C692 H678 0.960 . S
C692 H679 0.960 . S
C692 C691 1.524 . S
C693 C690 1.403 . S
C693 C694 1.392 . S
C693 C697 1.495 . S
C694 C693 1.392 . S
C694 C695 1.385 . S
C694 C696 1.478 . S
C695 H689 0.930 . S
C695 C691 1.400 . S
C695 C694 1.385 . S
C696 C694 1.478 . S
C696 C698 1.381 . S
C696 C702 1.383 . S
C697 C693 1.495 . S
C697 H703 0.959 . S
C697 H704 0.961 . S
C697 H705 0.960 . S
C698 C696 1.381 . S
C698 C699 1.394 . S
C698 H706 0.930 . S
C699 C698 1.394 . S
C699 C700 1.383 . S
C699 H707 0.929 . S
C700 C699 1.383 . S
C700 C701 1.377 . S
C701 H685 0.930 . S
C701 C700 1.377 . S
C701 C702 1.379 . S
C702 H686 0.931 . S
C702 C696 1.383 . S
C702 C701 1.379 . S
H703 C697 0.959 . S
H704 C697 0.961 . S
H705 C697 0.960 . S
H706 C698 0.930 . S
H707 C699 0.929 . S
H708 C716 0.929 . S
H709 C718 0.930 . S
H710 C720 0.930 . S
H711 C723 0.929 . S
H712 C726 0.930 . S
H713 C728 0.960 . S
H714 C728 0.960 . S
H715 C728 0.960 . S
C716 H708 0.929 . S
C716 C717 1.377 . S
C716 C718 1.384 . S
C717 C716 1.377 . S
C717 C723 1.390 . S
C718 H709 0.930 . S
C718 C716 1.384 . S
C718 C719 1.372 . S
C719 C718 1.372 . S
C719 C720 1.400 . S
C719 C724 1.490 . S
C720 H710 0.930 . S
C720 C719 1.400 . S
C720 C723 1.386 . S
H721 C737 0.930 . S
H722 C738 0.931 . S
C723 H711 0.929 . S
C723 C717 1.390 . S
C723 C720 1.386 . S
C724 C719 1.490 . S
C724 C726 1.395 . S
C724 C727 1.403 . S
H725 C731 0.930 . S
C726 H712 0.930 . S
C726 C724 1.395 . S
C726 C729 1.403 . S
C727 C724 1.403 . S
C727 C728 1.524 . S
C727 C731 1.400 . S
C728 H713 0.960 . S
C728 H714 0.960 . S
C728 H715 0.960 . S
C728 C727 1.524 . S
C729 C726 1.403 . S
C729 C730 1.392 . S
C729 C733 1.495 . S
C730 C729 1.392 . S
C730 C731 1.385 . S
C730 C732 1.478 . S
C731 H725 0.930 . S
C731 C727 1.400 . S
C731 C730 1.385 . S
C732 C730 1.478 . S
C732 C734 1.381 . S
C732 C738 1.383 . S
C733 C729 1.495 . S
C733 H739 0.959 . S
C733 H740 0.961 . S
C733 H741 0.960 . S
C734 C732 1.381 . S
C734 C735 1.394 . S
C734 H742 0.930 . S
C735 C734 1.394 . S
C735 C736 1.383 . S
C735 H743 0.929 . S
C736 C735 1.383 . S
C736 C737 1.377 . S
C737 H721 0.930 . S
C737 C736 1.377 . S
C737 C738 1.379 . S
C738 H722 0.931 . S
C738 C732 1.383 . S
C738 C737 1.379 . S
H739 C733 0.959 . S
H740 C733 0.961 . S
H741 C733 0.960 . S
H742 C734 0.930 . S
H743 C735 0.929 . S
H744 C752 0.929 . S
H745 C754 0.930 . S
H746 C756 0.930 . S
H747 C759 0.929 . S
H748 C762 0.930 . S
H749 C764 0.960 . S
H750 C764 0.960 . S
H751 C764 0.960 . S
C752 H744 0.929 . S
C752 C753 1.377 . S
C752 C754 1.384 . S
C753 C752 1.377 . S
C753 C759 1.390 . S
C754 H745 0.930 . S
C754 C752 1.384 . S
C754 C755 1.372 . S
C755 C754 1.372 . S
C755 C756 1.400 . S
C755 C760 1.490 . S
C756 H746 0.930 . S
C756 C755 1.400 . S
C756 C759 1.386 . S
H757 C773 0.930 . S
H758 C774 0.931 . S
C759 H747 0.929 . S
C759 C753 1.390 . S
C759 C756 1.386 . S
C760 C755 1.490 . S
C760 C762 1.395 . S
C760 C763 1.403 . S
H761 C767 0.930 . S
C762 H748 0.930 . S
C762 C760 1.395 . S
C762 C765 1.403 . S
C763 C760 1.403 . S
C763 C764 1.524 . S
C763 C767 1.400 . S
C764 H749 0.960 . S
C764 H750 0.960 . S
C764 H751 0.960 . S
C764 C763 1.524 . S
C765 C762 1.403 . S
C765 C766 1.392 . S
C765 C769 1.495 . S
C766 C765 1.392 . S
C766 C767 1.385 . S
C766 C768 1.478 . S
C767 H761 0.930 . S
C767 C763 1.400 . S
C767 C766 1.385 . S
C768 C766 1.478 . S
C768 C770 1.381 . S
C768 C774 1.383 . S
C769 C765 1.495 . S
C769 H775 0.959 . S
C769 H776 0.961 . S
C769 H777 0.960 . S
C770 C768 1.381 . S
C770 C771 1.394 . S
C770 H778 0.930 . S
C771 C770 1.394 . S
C771 C772 1.383 . S
C771 H779 0.929 . S
C772 C771 1.383 . S
C772 C773 1.377 . S
C773 H757 0.930 . S
C773 C772 1.377 . S
C773 C774 1.379 . S
C774 H758 0.931 . S
C774 C768 1.383 . S
C774 C773 1.379 . S
H775 C769 0.959 . S
H776 C769 0.961 . S
H777 C769 0.960 . S
H778 C770 0.930 . S
H779 C771 0.929 . S
H780 C788 0.929 . S
H781 C790 0.930 . S
H782 C792 0.930 . S
H783 C795 0.929 . S
H784 C798 0.930 . S
H785 C800 0.960 . S
H786 C800 0.960 . S
H787 C800 0.960 . S
C788 H780 0.929 . S
C788 C789 1.377 . S
C788 C790 1.384 . S
C789 C788 1.377 . S
C789 C795 1.390 . S
C790 H781 0.930 . S
C790 C788 1.384 . S
C790 C791 1.372 . S
C791 C790 1.372 . S
C791 C792 1.400 . S
C791 C796 1.490 . S
C792 H782 0.930 . S
C792 C791 1.400 . S
C792 C795 1.386 . S
H793 C809 0.930 . S
H794 C810 0.931 . S
C795 H783 0.929 . S
C795 C789 1.390 . S
C795 C792 1.386 . S
C796 C791 1.490 . S
C796 C798 1.395 . S
C796 C799 1.403 . S
H797 C803 0.930 . S
C798 H784 0.930 . S
C798 C796 1.395 . S
C798 C801 1.403 . S
C799 C796 1.403 . S
C799 C800 1.524 . S
C799 C803 1.400 . S
C800 H785 0.960 . S
C800 H786 0.960 . S
C800 H787 0.960 . S
C800 C799 1.524 . S
C801 C798 1.403 . S
C801 C802 1.392 . S
C801 C805 1.495 . S
C802 C801 1.392 . S
C802 C803 1.385 . S
C802 C804 1.478 . S
C803 H797 0.930 . S
C803 C799 1.400 . S
C803 C802 1.385 . S
C804 C802 1.478 . S
C804 C806 1.381 . S
C804 C810 1.383 . S
C805 C801 1.495 . S
C805 H811 0.959 . S
C805 H812 0.961 . S
C805 H813 0.960 . S
C806 C804 1.381 . S
C806 C807 1.394 . S
C806 H814 0.930 . S
C807 C806 1.394 . S
C807 C808 1.383 . S
C807 H815 0.929 . S
C808 C807 1.383 . S
C808 C809 1.377 . S
C809 H793 0.930 . S
C809 C808 1.377 . S
C809 C810 1.379 . S
C810 H794 0.931 . S
C810 C804 1.383 . S
C810 C809 1.379 . S
H811 C805 0.959 . S
H812 C805 0.961 . S
H813 C805 0.960 . S
H814 C806 0.930 . S
H815 C807 0.929 . S
H816 C824 0.929 . S
H817 C826 0.930 . S
H818 C828 0.930 . S
H819 C831 0.929 . S
H820 C834 0.930 . S
H821 C836 0.960 . S
H822 C836 0.960 . S
H823 C836 0.960 . S
C824 H816 0.929 . S
C824 C825 1.377 . S
C824 C826 1.384 . S
C825 C824 1.377 . S
C825 C831 1.390 . S
C826 H817 0.930 . S
C826 C824 1.384 . S
C826 C827 1.372 . S
C827 C826 1.372 . S
C827 C828 1.400 . S
C827 C832 1.490 . S
C828 H818 0.930 . S
C828 C827 1.400 . S
C828 C831 1.386 . S
H829 C845 0.930 . S
H830 C846 0.931 . S
C831 H819 0.929 . S
C831 C825 1.390 . S
C831 C828 1.386 . S
C832 C827 1.490 . S
C832 C834 1.395 . S
C832 C835 1.403 . S
H833 C839 0.930 . S
C834 H820 0.930 . S
C834 C832 1.395 . S
C834 C837 1.403 . S
C835 C832 1.403 . S
C835 C836 1.524 . S
C835 C839 1.400 . S
C836 H821 0.960 . S
C836 H822 0.960 . S
C836 H823 0.960 . S
C836 C835 1.524 . S
C837 C834 1.403 . S
C837 C838 1.392 . S
C837 C841 1.495 . S
C838 C837 1.392 . S
C838 C839 1.385 . S
C838 C840 1.478 . S
C839 H833 0.930 . S
C839 C835 1.400 . S
C839 C838 1.385 . S
C840 C838 1.478 . S
C840 C842 1.381 . S
C840 C846 1.383 . S
C841 C837 1.495 . S
C841 H847 0.959 . S
C841 H848 0.961 . S
C841 H849 0.960 . S
C842 C840 1.381 . S
C842 C843 1.394 . S
C842 H850 0.930 . S
C843 C842 1.394 . S
C843 C844 1.383 . S
C843 H851 0.929 . S
C844 C843 1.383 . S
C844 C845 1.377 . S
C845 H829 0.930 . S
C845 C844 1.377 . S
C845 C846 1.379 . S
C846 H830 0.931 . S
C846 C840 1.383 . S
C846 C845 1.379 . S
H847 C841 0.959 . S
H848 C841 0.961 . S
H849 C841 0.960 . S
H850 C842 0.930 . S
H851 C843 0.929 . S
H852 C860 0.929 . S
H853 C862 0.930 . S
H854 C864 0.930 . S
H855 C867 0.929 . S
H856 C870 0.930 . S
H857 C872 0.960 . S
H858 C872 0.960 . S
H859 C872 0.960 . S
C860 H852 0.929 . S
C860 C861 1.377 . S
C860 C862 1.384 . S
C861 C860 1.377 . S
C861 C867 1.390 . S
C862 H853 0.930 . S
C862 C860 1.384 . S
C862 C863 1.372 . S
C863 C862 1.372 . S
C863 C864 1.400 . S
C863 C868 1.490 . S
C864 H854 0.930 . S
C864 C863 1.400 . S
C864 C867 1.386 . S
H865 C881 0.930 . S
H866 C882 0.931 . S
C867 H855 0.929 . S
C867 C861 1.390 . S
C867 C864 1.386 . S
C868 C863 1.490 . S
C868 C870 1.395 . S
C868 C871 1.403 . S
H869 C875 0.930 . S
C870 H856 0.930 . S
C870 C868 1.395 . S
C870 C873 1.403 . S
C871 C868 1.403 . S
C871 C872 1.524 . S
C871 C875 1.400 . S
C872 H857 0.960 . S
C872 H858 0.960 . S
C872 H859 0.960 . S
C872 C871 1.524 . S
C873 C870 1.403 . S
C873 C874 1.392 . S
C873 C877 1.495 . S
C874 C873 1.392 . S
C874 C875 1.385 . S
C874 C876 1.478 . S
C875 H869 0.930 . S
C875 C871 1.400 . S
C875 C874 1.385 . S
C876 C874 1.478 . S
C876 C878 1.381 . S
C876 C882 1.383 . S
C877 C873 1.495 . S
C877 H883 0.959 . S
C877 H884 0.961 . S
C877 H885 0.960 . S
C878 C876 1.381 . S
C878 C879 1.394 . S
C878 H886 0.930 . S
C879 C878 1.394 . S
C879 C880 1.383 . S
C879 H887 0.929 . S
C880 C879 1.383 . S
C880 C881 1.377 . S
C881 H865 0.930 . S
C881 C880 1.377 . S
C881 C882 1.379 . S
C882 H866 0.931 . S
C882 C876 1.383 . S
C882 C881 1.379 . S
H883 C877 0.959 . S
H884 C877 0.961 . S
H885 C877 0.960 . S
H886 C878 0.930 . S
H887 C879 0.929 . S
H888 C896 0.929 . S
H889 C898 0.930 . S
H890 C900 0.930 . S
H891 C903 0.929 . S
H892 C906 0.930 . S
H893 C908 0.960 . S
H894 C908 0.960 . S
H895 C908 0.960 . S
C896 H888 0.929 . S
C896 C897 1.377 . S
C896 C898 1.384 . S
C897 C896 1.377 . S
C897 C903 1.390 . S
C898 H889 0.930 . S
C898 C896 1.384 . S
C898 C899 1.372 . S
C899 C898 1.372 . S
C899 C900 1.400 . S
C899 C904 1.490 . S
C900 H890 0.930 . S
C900 C899 1.400 . S
C900 C903 1.386 . S
H901 C917 0.930 . S
H902 C918 0.931 . S
C903 H891 0.929 . S
C903 C897 1.390 . S
C903 C900 1.386 . S
C904 C899 1.490 . S
C904 C906 1.395 . S
C904 C907 1.403 . S
H905 C911 0.930 . S
C906 H892 0.930 . S
C906 C904 1.395 . S
C906 C909 1.403 . S
C907 C904 1.403 . S
C907 C908 1.524 . S
C907 C911 1.400 . S
C908 H893 0.960 . S
C908 H894 0.960 . S
C908 H895 0.960 . S
C908 C907 1.524 . S
C909 C906 1.403 . S
C909 C910 1.392 . S
C909 C913 1.495 . S
C910 C909 1.392 . S
C910 C911 1.385 . S
C910 C912 1.478 . S
C911 H905 0.930 . S
C911 C907 1.400 . S
C911 C910 1.385 . S
C912 C910 1.478 . S
C912 C914 1.381 . S
C912 C918 1.383 . S
C913 C909 1.495 . S
C913 H919 0.959 . S
C913 H920 0.961 . S
C913 H921 0.960 . S
C914 C912 1.381 . S
C914 C915 1.394 . S
C914 H922 0.930 . S
C915 C914 1.394 . S
C915 C916 1.383 . S
C915 H923 0.929 . S
C916 C915 1.383 . S
C916 C917 1.377 . S
C917 H901 0.930 . S
C917 C916 1.377 . S
C917 C918 1.379 . S
C918 H902 0.931 . S
C918 C912 1.383 . S
C918 C917 1.379 . S
H919 C913 0.959 . S
H920 C913 0.961 . S
H921 C913 0.960 . S
H922 C914 0.930 . S
H923 C915 0.929 . S
H924 C932 0.929 . S
H925 C934 0.930 . S
H926 C936 0.930 . S
H927 C939 0.929 . S
H928 C942 0.930 . S
H929 C944 0.960 . S
H930 C944 0.960 . S
H931 C944 0.960 . S
C932 H924 0.929 . S
C932 C933 1.377 . S
C932 C934 1.384 . S
C933 C932 1.377 . S
C933 C939 1.390 . S
C934 H925 0.930 . S
C934 C932 1.384 . S
C934 C935 1.372 . S
C935 C934 1.372 . S
C935 C936 1.400 . S
C935 C940 1.490 . S
C936 H926 0.930 . S
C936 C935 1.400 . S
C936 C939 1.386 . S
H937 C953 0.951 . S
H938 C954 0.931 . S
C939 H927 0.929 . S
C939 C933 1.390 . S
C939 C936 1.386 . S
C940 C935 1.490 . S
C940 C942 1.395 . S
C940 C943 1.403 . S
H941 C947 0.930 . S
C942 H928 0.930 . S
C942 C940 1.395 . S
C942 C945 1.403 . S
C943 C940 1.403 . S
C943 C944 1.524 . S
C943 C947 1.400 . S
C944 H929 0.960 . S
C944 H930 0.960 . S
C944 H931 0.960 . S
C944 C943 1.524 . S
C945 C942 1.403 . S
C945 C946 1.392 . S
C945 C949 1.495 . S
C946 C945 1.392 . S
C946 C947 1.385 . S
C946 C948 1.478 . S
C947 H941 0.930 . S
C947 C943 1.400 . S
C947 C946 1.385 . S
C948 C946 1.478 . S
C948 C950 1.381 . S
C948 C954 1.383 . S
C949 C945 1.495 . S
C949 H955 0.959 . S
C949 H956 0.961 . S
C949 H957 0.960 . S
C950 C948 1.381 . S
C950 C951 1.394 . S
C950 H958 0.930 . S
C951 C950 1.394 . S
C951 C952 1.383 . S
C951 H959 0.929 . S
C952 C951 1.383 . S
C952 C953 1.377 . S
C953 H937 0.951 . S
C953 C952 1.377 . S
C953 C954 1.379 . S
C954 H938 0.931 . S
C954 C948 1.383 . S
C954 C953 1.379 . S
H955 C949 0.959 . S
H956 C949 0.961 . S
H957 C949 0.960 . S
H958 C950 0.930 . S
H959 C951 0.929 . S
H960 C968 0.939 . S
H961 C970 0.930 . S
H962 C972 0.930 . S
H963 C975 0.929 . S
H964 C978 0.930 . S
H965 C980 0.960 . S
H966 C980 0.960 . S
H967 C980 0.960 . S
C968 H960 0.939 . S
C968 C969 1.377 . S
C968 C970 1.384 . S
C969 C968 1.377 . S
C969 C975 1.390 . S
C970 H961 0.930 . S
C970 C968 1.384 . S
C970 C971 1.372 . S
C971 C970 1.372 . S
C971 C972 1.400 . S
C971 C976 1.490 . S
C972 H962 0.930 . S
C972 C971 1.400 . S
C972 C975 1.386 . S
H973 C989 0.930 . S
H974 C990 0.931 . S
C975 H963 0.929 . S
C975 C969 1.390 . S
C975 C972 1.386 . S
C976 C971 1.490 . S
C976 C978 1.395 . S
C976 C979 1.403 . S
H977 C983 0.930 . S
C978 H964 0.930 . S
C978 C976 1.395 . S
C978 C981 1.403 . S
C979 C976 1.403 . S
C979 C980 1.524 . S
C979 C983 1.400 . S
C980 H965 0.960 . S
C980 H966 0.960 . S
C980 H967 0.960 . S
C980 C979 1.524 . S
C981 C978 1.403 . S
C981 C982 1.392 . S
C981 C985 1.495 . S
C982 C981 1.392 . S
C982 C983 1.385 . S
C982 C984 1.478 . S
C983 H977 0.930 . S
C983 C979 1.400 . S
C983 C982 1.385 . S
C984 C982 1.478 . S
C984 C986 1.381 . S
C984 C990 1.383 . S
C985 C981 1.495 . S
C985 H991 0.959 . S
C985 H992 0.961 . S
C985 H993 0.960 . S
C986 C984 1.381 . S
C986 C987 1.394 . S
C986 H994 0.930 . S
C987 C986 1.394 . S
C987 C988 1.383 . S
C987 H995 0.929 . S
C988 C987 1.383 . S
C988 C989 1.377 . S
C989 H973 0.930 . S
C989 C988 1.377 . S
C989 C990 1.379 . S
C990 H974 0.931 . S
C990 C984 1.383 . S
C990 C989 1.379 . S
H991 C985 0.959 . S
H992 C985 0.961 . S
H993 C985 0.960 . S
H994 C986 0.930 . S
H995 C987 0.929 . S
H996 C1004 0.929 . S
H997 C1006 0.930 . S
H998 C1008 0.930 . S
H999 C1011 0.929 . S
H1000 C1014 0.930 . S
H1001 C1016 0.960 . S
H1002 C1016 0.960 . S
H1003 C1016 0.960 . S
C1004 H996 0.929 . S
C1004 C1005 1.377 . S
C1004 C1006 1.384 . S
C1005 C1004 1.377 . S
C1005 C1011 1.390 . S
C1006 H997 0.930 . S
C1006 C1004 1.384 . S
C1006 C1007 1.372 . S
C1007 C1006 1.372 . S
C1007 C1008 1.400 . S
C1007 C1012 1.490 . S
C1008 H998 0.930 . S
C1008 C1007 1.400 . S
C1008 C1011 1.386 . S
H1009 C1025 0.930 . S
H1010 C1026 0.931 . S
C1011 H999 0.929 . S
C1011 C1005 1.390 . S
C1011 C1008 1.386 . S
C1012 C1007 1.490 . S
C1012 C1014 1.395 . S
C1012 C1015 1.403 . S
H1013 C1019 0.930 . S
C1014 H1000 0.930 . S
C1014 C1012 1.395 . S
C1014 C1017 1.403 . S
C1015 C1012 1.403 . S
C1015 C1016 1.524 . S
C1015 C1019 1.400 . S
C1016 H1001 0.960 . S
C1016 H1002 0.960 . S
C1016 H1003 0.960 . S
C1016 C1015 1.524 . S
C1017 C1014 1.403 . S
C1017 C1018 1.392 . S
C1017 C1021 1.495 . S
C1018 C1017 1.392 . S
C1018 C1019 1.385 . S
C1018 C1020 1.478 . S
C1019 H1013 0.930 . S
C1019 C1015 1.400 . S
C1019 C1018 1.385 . S
C1020 C1018 1.478 . S
C1020 C1022 1.381 . S
C1020 C1026 1.383 . S
C1021 C1017 1.495 . S
C1021 H1027 0.959 . S
C1021 H1028 0.961 . S
C1021 H1029 0.960 . S
C1022 C1020 1.381 . S
C1022 C1023 1.394 . S
C1022 H1030 0.930 . S
C1023 C1022 1.394 . S
C1023 C1024 1.383 . S
C1023 H1031 0.929 . S
C1024 C1023 1.383 . S
C1024 C1025 1.377 . S
C1025 H1009 0.930 . S
C1025 C1024 1.377 . S
C1025 C1026 1.379 . S
C1026 H1010 0.931 . S
C1026 C1020 1.383 . S
C1026 C1025 1.379 . S
H1027 C1021 0.959 . S
H1028 C1021 0.961 . S
H1029 C1021 0.960 . S
H1030 C1022 0.930 . S
H1031 C1023 0.929 . S
H1032 C1040 0.929 . S
H1033 C1042 0.930 . S
H1034 C1044 0.930 . S
H1035 C1047 0.929 . S
H1036 C1050 0.930 . S
H1037 C1052 0.960 . S
H1038 C1052 0.960 . S
H1039 C1052 0.960 . S
C1040 H1032 0.929 . S
C1040 C1041 1.377 . S
C1040 C1042 1.384 . S
C1041 C1040 1.377 . S
C1041 C1047 1.390 . S
C1042 H1033 0.930 . S
C1042 C1040 1.384 . S
C1042 C1043 1.372 . S
C1043 C1042 1.372 . S
C1043 C1044 1.400 . S
C1043 C1048 1.490 . S
C1044 H1034 0.930 . S
C1044 C1043 1.400 . S
C1044 C1047 1.386 . S
H1045 C1061 0.930 . S
H1046 C1062 0.931 . S
C1047 H1035 0.929 . S
C1047 C1041 1.390 . S
C1047 C1044 1.386 . S
C1048 C1043 1.490 . S
C1048 C1050 1.395 . S
C1048 C1051 1.403 . S
H1049 C1055 0.930 . S
C1050 H1036 0.930 . S
C1050 C1048 1.395 . S
C1050 C1053 1.403 . S
C1051 C1048 1.403 . S
C1051 C1052 1.524 . S
C1051 C1055 1.400 . S
C1052 H1037 0.960 . S
C1052 H1038 0.960 . S
C1052 H1039 0.960 . S
C1052 C1051 1.524 . S
C1053 C1050 1.403 . S
C1053 C1054 1.392 . S
C1053 C1057 1.495 . S
C1054 C1053 1.392 . S
C1054 C1055 1.385 . S
C1054 C1056 1.478 . S
C1055 H1049 0.930 . S
C1055 C1051 1.400 . S
C1055 C1054 1.385 . S
C1056 C1054 1.478 . S
C1056 C1058 1.381 . S
C1056 C1062 1.383 . S
C1057 C1053 1.495 . S
C1057 H1063 0.959 . S
C1057 H1064 0.961 . S
C1057 H1065 0.960 . S
C1058 C1056 1.381 . S
C1058 C1059 1.394 . S
C1058 H1066 0.930 . S
C1059 C1058 1.394 . S
C1059 C1060 1.383 . S
C1059 H1067 0.929 . S
C1060 C1059 1.383 . S
C1060 C1061 1.377 . S
C1061 H1045 0.930 . S
C1061 C1060 1.377 . S
C1061 C1062 1.379 . S
C1062 H1046 0.931 . S
C1062 C1056 1.383 . S
C1062 C1061 1.379 . S
H1063 C1057 0.959 . S
H1064 C1057 0.961 . S
H1065 C1057 0.960 . S
H1066 C1058 0.930 . S
H1067 C1059 0.929 . S
H1068 C1076 0.929 . S
H1069 C1078 0.930 . S
H1070 C1080 0.930 . S
H1071 C1083 0.929 . S
H1072 C1086 0.930 . S
H1073 C1088 0.960 . S
H1074 C1088 0.960 . S
H1075 C1088 0.960 . S
C1076 H1068 0.929 . S
C1076 C1077 1.377 . S
C1076 C1078 1.384 . S
C1077 C1076 1.377 . S
C1077 C1083 1.390 . S
C1078 H1069 0.930 . S
C1078 C1076 1.384 . S
C1078 C1079 1.372 . S
C1079 C1078 1.372 . S
C1079 C1080 1.400 . S
C1079 C1084 1.490 . S
C1080 H1070 0.930 . S
C1080 C1079 1.400 . S
C1080 C1083 1.386 . S
H1081 C1097 0.930 . S
H1082 C1098 0.931 . S
C1083 H1071 0.929 . S
C1083 C1077 1.390 . S
C1083 C1080 1.386 . S
C1084 C1079 1.490 . S
C1084 C1086 1.395 . S
C1084 C1087 1.403 . S
H1085 C1091 0.930 . S
C1086 H1072 0.930 . S
C1086 C1084 1.395 . S
C1086 C1089 1.403 . S
C1087 C1084 1.403 . S
C1087 C1088 1.524 . S
C1087 C1091 1.400 . S
C1088 H1073 0.960 . S
C1088 H1074 0.960 . S
C1088 H1075 0.960 . S
C1088 C1087 1.524 . S
C1089 C1086 1.403 . S
C1089 C1090 1.392 . S
C1089 C1093 1.495 . S
C1090 C1089 1.392 . S
C1090 C1091 1.385 . S
C1090 C1092 1.478 . S
C1091 H1085 0.930 . S
C1091 C1087 1.400 . S
C1091 C1090 1.385 . S
C1092 C1090 1.478 . S
C1092 C1094 1.381 . S
C1092 C1098 1.383 . S
C1093 C1089 1.495 . S
C1093 H1099 0.959 . S
C1093 H1100 0.961 . S
C1093 H1101 0.960 . S
C1094 C1092 1.381 . S
C1094 C1095 1.394 . S
C1094 H1102 0.930 . S
C1095 C1094 1.394 . S
C1095 C1096 1.383 . S
C1095 H1103 0.929 . S
C1096 C1095 1.383 . S
C1096 C1097 1.377 . S
C1097 H1081 0.930 . S
C1097 C1096 1.377 . S
C1097 C1098 1.379 . S
C1098 H1082 0.931 . S
C1098 C1092 1.383 . S
C1098 C1097 1.379 . S
H1099 C1093 0.959 . S
H1100 C1093 0.961 . S
H1101 C1093 0.960 . S
H1102 C1094 0.930 . S
H1103 C1095 0.929 . S
H1104 C1112 0.929 . S
H1105 C1114 0.930 . S
H1106 C1116 0.930 . S
H1107 C1119 0.929 . S
H1108 C1122 0.930 . S
H1109 C1124 0.960 . S
H1110 C1124 0.960 . S
H1111 C1124 0.960 . S
C1112 H1104 0.929 . S
C1112 C1113 1.377 . S
C1112 C1114 1.384 . S
C1113 C1112 1.377 . S
C1113 C1119 1.390 . S
C1114 H1105 0.930 . S
C1114 C1112 1.384 . S
C1114 C1115 1.372 . S
C1115 C1114 1.372 . S
C1115 C1116 1.400 . S
C1115 C1120 1.490 . S
C1116 H1106 0.930 . S
C1116 C1115 1.400 . S
C1116 C1119 1.386 . S
H1117 C1133 0.930 . S
H1118 C1134 0.931 . S
C1119 H1107 0.929 . S
C1119 C1113 1.390 . S
C1119 C1116 1.386 . S
C1120 C1115 1.490 . S
C1120 C1122 1.395 . S
C1120 C1123 1.403 . S
H1121 C1127 0.930 . S
C1122 H1108 0.930 . S
C1122 C1120 1.395 . S
C1122 C1125 1.403 . S
C1123 C1120 1.403 . S
C1123 C1124 1.524 . S
C1123 C1127 1.400 . S
C1124 H1109 0.960 . S
C1124 H1110 0.960 . S
C1124 H1111 0.960 . S
C1124 C1123 1.524 . S
C1125 C1122 1.403 . S
C1125 C1126 1.392 . S
C1125 C1129 1.495 . S
C1126 C1125 1.392 . S
C1126 C1127 1.385 . S
C1126 C1128 1.478 . S
C1127 H1121 0.930 . S
C1127 C1123 1.400 . S
C1127 C1126 1.385 . S
C1128 C1126 1.478 . S
C1128 C1130 1.381 . S
C1128 C1134 1.383 . S
C1129 C1125 1.495 . S
C1129 H1135 0.959 . S
C1129 H1136 0.961 . S
C1129 H1137 0.960 . S
C1130 C1128 1.381 . S
C1130 C1131 1.394 . S
C1130 H1138 0.930 . S
C1131 C1130 1.394 . S
C1131 C1132 1.383 . S
C1131 H1139 0.929 . S
C1132 C1131 1.383 . S
C1132 C1133 1.377 . S
C1133 H1117 0.930 . S
C1133 C1132 1.377 . S
C1133 C1134 1.379 . S
C1134 H1118 0.931 . S
C1134 C1128 1.383 . S
C1134 C1133 1.379 . S
H1135 C1129 0.959 . S
H1136 C1129 0.961 . S
H1137 C1129 0.960 . S
H1138 C1130 0.930 . S
H1139 C1131 0.929 . S
H1140 C1148 0.929 . S
H1141 C1150 0.930 . S
H1142 C1152 0.930 . S
H1143 C1155 0.929 . S
H1144 C1158 0.930 . S
H1145 C1160 0.960 . S
H1146 C1160 0.960 . S
H1147 C1160 0.960 . S
C1148 H1140 0.929 . S
C1148 C1149 1.377 . S
C1148 C1150 1.384 . S
C1149 C1148 1.377 . S
C1149 C1155 1.390 . S
C1150 H1141 0.930 . S
C1150 C1148 1.384 . S
C1150 C1151 1.372 . S
C1151 C1150 1.372 . S
C1151 C1152 1.400 . S
C1151 C1156 1.490 . S
C1152 H1142 0.930 . S
C1152 C1151 1.400 . S
C1152 C1155 1.386 . S
H1153 C1169 0.930 . S
H1154 C1170 0.931 . S
C1155 H1143 0.929 . S
C1155 C1149 1.390 . S
C1155 C1152 1.386 . S
C1156 C1151 1.490 . S
C1156 C1158 1.395 . S
C1156 C1159 1.403 . S
H1157 C1163 0.930 . S
C1158 H1144 0.930 . S
C1158 C1156 1.395 . S
C1158 C1161 1.403 . S
C1159 C1156 1.403 . S
C1159 C1160 1.524 . S
C1159 C1163 1.400 . S
C1160 H1145 0.960 . S
C1160 H1146 0.960 . S
C1160 H1147 0.960 . S
C1160 C1159 1.524 . S
C1161 C1158 1.403 . S
C1161 C1162 1.392 . S
C1161 C1165 1.495 . S
C1162 C1161 1.392 . S
C1162 C1163 1.385 . S
C1162 C1164 1.478 . S
C1163 H1157 0.930 . S
C1163 C1159 1.400 . S
C1163 C1162 1.385 . S
C1164 C1162 1.478 . S
C1164 C1166 1.381 . S
C1164 C1170 1.383 . S
C1165 C1161 1.495 . S
C1165 H1171 0.959 . S
C1165 H1172 0.961 . S
C1165 H1173 0.960 . S
C1166 C1164 1.381 . S
C1166 C1167 1.394 . S
C1166 H1174 0.930 . S
C1167 C1166 1.394 . S
C1167 C1168 1.383 . S
C1167 H1175 0.929 . S
C1168 C1167 1.383 . S
C1168 C1169 1.377 . S
C1169 H1153 0.930 . S
C1169 C1168 1.377 . S
C1169 C1170 1.379 . S
C1170 H1154 0.931 . S
C1170 C1164 1.383 . S
C1170 C1169 1.379 . S
H1171 C1165 0.959 . S
H1172 C1165 0.961 . S
H1173 C1165 0.960 . S
H1174 C1166 0.930 . S
H1175 C1167 0.929 . S
H1176 C1184 0.929 . S
H1177 C1186 0.930 . S
H1178 C1188 0.930 . S
H1179 C1191 0.929 . S
H1180 C1194 0.930 . S
H1181 C1196 0.960 . S
H1182 C1196 0.960 . S
H1183 C1196 0.960 . S
C1184 H1176 0.929 . S
C1184 C1185 1.377 . S
C1184 C1186 1.384 . S
C1185 C1184 1.377 . S
C1185 C1191 1.390 . S
C1186 H1177 0.930 . S
C1186 C1184 1.384 . S
C1186 C1187 1.372 . S
C1187 C1186 1.372 . S
C1187 C1188 1.400 . S
C1187 C1192 1.490 . S
C1188 H1178 0.930 . S
C1188 C1187 1.400 . S
C1188 C1191 1.386 . S
H1189 C1205 0.930 . S
H1190 C1206 0.931 . S
C1191 H1179 0.929 . S
C1191 C1185 1.390 . S
C1191 C1188 1.386 . S
C1192 C1187 1.490 . S
C1192 C1194 1.395 . S
C1192 C1195 1.403 . S
H1193 C1199 0.930 . S
C1194 H1180 0.930 . S
C1194 C1192 1.395 . S
C1194 C1197 1.403 . S
C1195 C1192 1.403 . S
C1195 C1196 1.524 . S
C1195 C1199 1.400 . S
C1196 H1181 0.960 . S
C1196 H1182 0.960 . S
C1196 H1183 0.960 . S
C1196 C1195 1.524 . S
C1197 C1194 1.403 . S
C1197 C1198 1.392 . S
C1197 C1201 1.495 . S
C1198 C1197 1.392 . S
C1198 C1199 1.385 . S
C1198 C1200 1.478 . S
C1199 H1193 0.930 . S
C1199 C1195 1.400 . S
C1199 C1198 1.385 . S
C1200 C1198 1.478 . S
C1200 C1202 1.381 . S
C1200 C1206 1.383 . S
C1201 C1197 1.495 . S
C1201 H1207 0.959 . S
C1201 H1208 0.961 . S
C1201 H1209 0.960 . S
C1202 C1200 1.381 . S
C1202 C1203 1.394 . S
C1202 H1210 0.930 . S
C1203 C1202 1.394 . S
C1203 C1204 1.383 . S
C1203 H1211 0.929 . S
C1204 C1203 1.383 . S
C1204 C1205 1.377 . S
C1205 H1189 0.930 . S
C1205 C1204 1.377 . S
C1205 C1206 1.379 . S
C1206 H1190 0.931 . S
C1206 C1200 1.383 . S
C1206 C1205 1.379 . S
H1207 C1201 0.959 . S
H1208 C1201 0.961 . S
H1209 C1201 0.960 . S
H1210 C1202 0.930 . S
H1211 C1203 0.929 . S
H1212 C1220 0.929 . S
H1213 C1222 0.930 . S
H1214 C1224 0.930 . S
H1215 C1227 0.929 . S
H1216 C1230 0.930 . S
H1217 C1232 0.960 . S
H1218 C1232 0.960 . S
H1219 C1232 0.960 . S
C1220 H1212 0.929 . S
C1220 C1221 1.377 . S
C1220 C1222 1.384 . S
C1221 C1220 1.377 . S
C1221 C1227 1.390 . S
C1222 H1213 0.930 . S
C1222 C1220 1.384 . S
C1222 C1223 1.372 . S
C1223 C1222 1.372 . S
C1223 C1224 1.400 . S
C1223 C1228 1.490 . S
C1224 H1214 0.930 . S
C1224 C1223 1.400 . S
C1224 C1227 1.386 . S
H1225 C1241 0.930 . S
H1226 C1242 0.931 . S
C1227 H1215 0.929 . S
C1227 C1221 1.390 . S
C1227 C1224 1.386 . S
C1228 C1223 1.490 . S
C1228 C1230 1.395 . S
C1228 C1231 1.403 . S
H1229 C1235 0.930 . S
C1230 H1216 0.930 . S
C1230 C1228 1.395 . S
C1230 C1233 1.403 . S
C1231 C1228 1.403 . S
C1231 C1232 1.524 . S
C1231 C1235 1.400 . S
C1232 H1217 0.960 . S
C1232 H1218 0.960 . S
C1232 H1219 0.960 . S
C1232 C1231 1.524 . S
C1233 C1230 1.403 . S
C1233 C1234 1.392 . S
C1233 C1237 1.495 . S
C1234 C1233 1.392 . S
C1234 C1235 1.385 . S
C1234 C1236 1.478 . S
C1235 H1229 0.930 . S
C1235 C1231 1.400 . S
C1235 C1234 1.385 . S
C1236 C1234 1.478 . S
C1236 C1238 1.381 . S
C1236 C1242 1.383 . S
C1237 C1233 1.495 . S
C1237 H1243 0.959 . S
C1237 H1244 0.961 . S
C1237 H1245 0.960 . S
C1238 C1236 1.381 . S
C1238 C1239 1.394 . S
C1238 H1246 0.930 . S
C1239 C1238 1.394 . S
C1239 C1240 1.383 . S
C1239 H1247 0.929 . S
C1240 C1239 1.383 . S
C1240 C1241 1.377 . S
C1241 H1225 0.930 . S
C1241 C1240 1.377 . S
C1241 C1242 1.379 . S
C1242 H1226 0.931 . S
C1242 C1236 1.383 . S
C1242 C1241 1.379 . S
H1243 C1237 0.959 . S
H1244 C1237 0.961 . S
H1245 C1237 0.960 . S
H1246 C1238 0.930 . S
H1247 C1239 0.929 . S
H1248 C1256 0.929 . S
H1249 C1258 0.930 . S
H1250 C1260 0.930 . S
H1251 C1263 0.929 . S
H1252 C1266 0.930 . S
H1253 C1268 0.960 . S
H1254 C1268 0.960 . S
H1255 C1268 0.960 . S
C1256 H1248 0.929 . S
C1256 C1257 1.377 . S
C1256 C1258 1.384 . S
C1257 C1256 1.377 . S
C1257 C1263 1.390 1_665 S
C1258 H1249 0.930 . S
C1258 C1256 1.384 . S
C1258 C1259 1.372 . S
C1259 C1258 1.372 . S
C1259 C1260 1.400 1_665 S
C1259 C1264 1.490 . S
C1260 H1250 0.930 . S
C1260 C1259 1.400 1_445 S
C1260 C1263 1.386 . S
H1261 C1277 0.930 . S
H1262 C1278 0.931 . S
C1263 H1251 0.929 . S
C1263 C1257 1.390 1_445 S
C1263 C1260 1.386 . S
C1264 C1259 1.490 . S
C1264 C1266 1.395 1_655 S
C1264 C1267 1.403 1_565 S
H1265 C1271 0.930 . S
C1266 H1252 0.930 . S
C1266 C1264 1.395 1_455 S
C1266 C1269 1.403 1_556 S
C1267 C1264 1.403 1_545 S
C1267 C1268 1.524 . S
C1267 C1271 1.400 1_556 S
C1268 H1253 0.960 . S
C1268 H1254 0.960 . S
C1268 H1255 0.960 . S
C1268 C1267 1.524 . S
C1269 C1266 1.403 1_554 S
C1269 C1270 1.392 . S
C1269 C1273 1.495 . S
C1270 C1269 1.392 . S
C1270 C1271 1.385 1_465 S
C1270 C1272 1.478 . S
C1271 H1265 0.930 . S
C1271 C1267 1.400 1_554 S
C1271 C1270 1.385 1_645 S
C1272 C1270 1.478 . S
C1272 C1274 1.381 1_455 S
C1272 C1278 1.383 1_565 S
C1273 C1269 1.495 . S
C1273 H1279 0.959 . S
C1273 H1280 0.961 . S
C1273 H1281 0.960 . S
C1274 C1272 1.381 1_655 S
C1274 C1275 1.394 . S
C1274 H1282 0.930 . S
C1275 C1274 1.394 . S
C1275 C1276 1.383 1_665 S
C1275 H1283 0.929 . S
C1276 C1275 1.383 1_445 S
C1276 C1277 1.377 . S
C1277 H1261 0.930 . S
C1277 C1276 1.377 . S
C1277 C1278 1.379 . S
C1278 H1262 0.931 . S
C1278 C1272 1.383 1_545 S
C1278 C1277 1.379 . S
H1279 C1273 0.959 . S
H1280 C1273 0.961 . S
H1281 C1273 0.960 . S
H1282 C1274 0.930 . S
H1283 C1275 0.929 . S
H1284 C1292 0.929 . S
H1285 C1294 0.930 . S
H1286 C1296 0.930 . S
H1287 C1299 0.929 . S
H1288 C1302 0.930 . S
H1289 C1304 0.960 . S
H1290 C1304 0.960 . S
H1291 C1304 0.960 . S
C1292 H1284 0.929 . S
C1292 C1293 1.377 . S
C1292 C1294 1.384 . S
C1293 C1292 1.377 . S
C1293 C1299 1.390 . S
C1294 H1285 0.930 . S
C1294 C1292 1.384 . S
C1294 C1295 1.372 . S
C1295 C1294 1.372 . S
C1295 C1296 1.400 . S
C1295 C1300 1.490 . S
C1296 H1286 0.930 . S
C1296 C1295 1.400 . S
C1296 C1299 1.386 . S
H1297 C1313 0.930 . S
H1298 C1314 0.931 . S
C1299 H1287 0.929 . S
C1299 C1293 1.390 . S
C1299 C1296 1.386 . S
C1300 C1295 1.490 . S
C1300 C1302 1.395 . S
C1300 C1303 1.403 . S
H1301 C1307 0.930 . S
C1302 H1288 0.930 . S
C1302 C1300 1.395 . S
C1302 C1305 1.403 . S
C1303 C1300 1.403 . S
C1303 C1304 1.524 . S
C1303 C1307 1.400 . S
C1304 H1289 0.960 . S
C1304 H1290 0.960 . S
C1304 H1291 0.960 . S
C1304 C1303 1.524 . S
C1305 C1302 1.403 . S
C1305 C1306 1.392 . S
C1305 C1309 1.495 . S
C1306 C1305 1.392 . S
C1306 C1307 1.385 . S
C1306 C1308 1.478 . S
C1307 H1301 0.930 . S
C1307 C1303 1.400 . S
C1307 C1306 1.385 . S
C1308 C1306 1.478 . S
C1308 C1310 1.381 . S
C1308 C1314 1.383 . S
C1309 C1305 1.495 . S
C1309 H1315 0.959 . S
C1309 H1316 0.961 . S
C1309 H1317 0.960 . S
C1310 C1308 1.381 . S
C1310 C1311 1.394 . S
C1310 H1318 0.930 . S
C1311 C1310 1.394 . S
C1311 C1312 1.383 . S
C1311 H1319 0.929 . S
C1312 C1311 1.383 . S
C1312 C1313 1.377 . S
C1313 H1297 0.930 . S
C1313 C1312 1.377 . S
C1313 C1314 1.379 . S
C1314 H1298 0.931 . S
C1314 C1308 1.383 . S
C1314 C1313 1.379 . S
H1315 C1309 0.959 . S
H1316 C1309 0.961 . S
H1317 C1309 0.960 . S
H1318 C1310 0.930 . S
H1319 C1311 0.929 . S
H1320 C1328 0.929 . S
H1321 C1330 0.930 . S
H1322 C1332 0.930 . S
H1323 C1335 0.929 . S
H1324 C1338 0.930 . S
H1325 C1340 0.960 . S
H1326 C1340 0.960 . S
H1327 C1340 0.960 . S
C1328 H1320 0.929 . S
C1328 C1329 1.377 . S
C1328 C1330 1.384 . S
C1329 C1328 1.377 . S
C1329 C1335 1.390 . S
C1330 H1321 0.930 . S
C1330 C1328 1.384 . S
C1330 C1331 1.372 . S
C1331 C1330 1.372 . S
C1331 C1332 1.400 . S
C1331 C1336 1.490 . S
C1332 H1322 0.930 . S
C1332 C1331 1.400 . S
C1332 C1335 1.386 . S
H1333 C1349 0.929 1_565 S
H1334 C1350 0.931 . S
C1335 H1323 0.929 . S
C1335 C1329 1.390 . S
C1335 C1332 1.386 . S
C1336 C1331 1.490 . S
C1336 C1338 1.395 . S
C1336 C1339 1.403 1_565 S
H1337 C1343 0.930 . S
C1338 H1324 0.930 . S
C1338 C1336 1.395 . S
C1338 C1341 1.403 . S
C1339 C1336 1.403 1_545 S
C1339 C1340 1.524 . S
C1339 C1343 1.400 . S
C1340 H1325 0.960 . S
C1340 H1326 0.960 . S
C1340 H1327 0.960 . S
C1340 C1339 1.524 . S
C1341 C1338 1.403 . S
C1341 C1342 1.392 . S
C1341 C1345 1.495 . S
C1342 C1341 1.392 . S
C1342 C1343 1.385 1_565 S
C1342 C1344 1.478 . S
C1343 H1337 0.930 . S
C1343 C1339 1.400 . S
C1343 C1342 1.385 1_545 S
C1344 C1342 1.478 . S
C1344 C1346 1.381 1_565 S
C1344 C1350 1.383 . S
C1345 C1341 1.495 . S
C1345 H1351 0.959 . S
C1345 H1352 0.961 . S
C1345 H1353 0.960 . S
C1346 C1344 1.381 1_545 S
C1346 C1347 1.394 . S
C1346 H1354 0.930 . S
C1347 C1346 1.394 . S
C1347 C1348 1.383 . S
C1347 H1355 0.929 . S
C1348 C1347 1.383 . S
C1348 C1349 1.382 . S
C1349 H1333 0.929 1_545 S
C1349 C1348 1.382 . S
C1349 C1350 1.376 1_545 S
C1350 H1334 0.931 . S
C1350 C1344 1.383 . S
C1350 C1349 1.376 1_565 S
H1351 C1345 0.959 . S
H1352 C1345 0.961 . S
H1353 C1345 0.960 . S
H1354 C1346 0.930 . S
H1355 C1347 0.929 . S
H1356 C1364 0.929 . S
H1357 C1366 0.930 . S
H1358 C1368 0.930 . S
H1359 C1371 0.929 . S
H1360 C1374 0.930 . S
H1361 C1376 0.960 . S
H1362 C1376 0.960 . S
H1363 C1376 0.960 . S
C1364 H1356 0.929 . S
C1364 C1365 1.377 . S
C1364 C1366 1.384 . S
C1365 C1364 1.377 . S
C1365 C1371 1.390 . S
C1366 H1357 0.930 . S
C1366 C1364 1.384 . S
C1366 C1367 1.372 . S
C1367 C1366 1.372 . S
C1367 C1368 1.400 . S
C1367 C1372 1.490 . S
C1368 H1358 0.930 . S
C1368 C1367 1.400 . S
C1368 C1371 1.386 . S
H1369 C1385 0.930 . S
H1370 C1386 0.931 . S
C1371 H1359 0.929 . S
C1371 C1365 1.390 . S
C1371 C1368 1.386 . S
C1372 C1367 1.490 . S
C1372 C1374 1.395 . S
C1372 C1375 1.403 . S
H1373 C1379 0.930 . S
C1374 H1360 0.930 . S
C1374 C1372 1.395 . S
C1374 C1377 1.403 . S
C1375 C1372 1.403 . S
C1375 C1376 1.524 . S
C1375 C1379 1.400 . S
C1376 H1361 0.960 . S
C1376 H1362 0.960 . S
C1376 H1363 0.960 . S
C1376 C1375 1.524 . S
C1377 C1374 1.403 . S
C1377 C1378 1.392 . S
C1377 C1381 1.495 . S
C1378 C1377 1.392 . S
C1378 C1379 1.385 . S
C1378 C1380 1.478 . S
C1379 H1373 0.930 . S
C1379 C1375 1.400 . S
C1379 C1378 1.385 . S
C1380 C1378 1.478 . S
C1380 C1382 1.381 . S
C1380 C1386 1.383 . S
C1381 C1377 1.495 . S
C1381 H1387 0.959 . S
C1381 H1388 0.961 . S
C1381 H1389 0.960 . S
C1382 C1380 1.381 . S
C1382 C1383 1.394 . S
C1382 H1390 0.930 . S
C1383 C1382 1.394 . S
C1383 C1384 1.383 . S
C1383 H1391 0.929 . S
C1384 C1383 1.383 . S
C1384 C1385 1.377 . S
C1385 H1369 0.930 . S
C1385 C1384 1.377 . S
C1385 C1386 1.379 . S
C1386 H1370 0.931 . S
C1386 C1380 1.383 . S
C1386 C1385 1.379 . S
H1387 C1381 0.959 . S
H1388 C1381 0.961 . S
H1389 C1381 0.960 . S
H1390 C1382 0.930 . S
H1391 C1383 0.929 . S
H1392 C1400 0.929 . S
H1393 C1402 0.930 . S
H1394 C1404 0.930 . S
H1395 C1407 0.929 . S
H1396 C1410 0.930 . S
H1397 C1412 0.960 . S
H1398 C1412 0.960 . S
H1399 C1412 0.960 . S
C1400 H1392 0.929 . S
C1400 C1401 1.377 . S
C1400 C1402 1.384 . S
C1401 C1400 1.377 . S
C1401 C1407 1.390 . S
C1402 H1393 0.930 . S
C1402 C1400 1.384 . S
C1402 C1403 1.372 . S
C1403 C1402 1.372 . S
C1403 C1404 1.400 . S
C1403 C1408 1.490 . S
C1404 H1394 0.930 . S
C1404 C1403 1.400 . S
C1404 C1407 1.386 . S
H1405 C1421 0.930 . S
H1406 C1422 0.931 . S
C1407 H1395 0.929 . S
C1407 C1401 1.390 . S
C1407 C1404 1.386 . S
C1408 C1403 1.490 . S
C1408 C1410 1.395 . S
C1408 C1411 1.403 . S
H1409 C1415 0.930 . S
C1410 H1396 0.930 . S
C1410 C1408 1.395 . S
C1410 C1413 1.403 . S
C1411 C1408 1.403 . S
C1411 C1412 1.524 . S
C1411 C1415 1.400 . S
C1412 H1397 0.960 . S
C1412 H1398 0.960 . S
C1412 H1399 0.960 . S
C1412 C1411 1.524 . S
C1413 C1410 1.403 . S
C1413 C1414 1.392 . S
C1413 C1417 1.495 . S
C1414 C1413 1.392 . S
C1414 C1415 1.385 . S
C1414 C1416 1.478 . S
C1415 H1409 0.930 . S
C1415 C1411 1.400 . S
C1415 C1414 1.385 . S
C1416 C1414 1.478 . S
C1416 C1418 1.381 . S
C1416 C1422 1.383 . S
C1417 C1413 1.495 . S
C1417 H1423 0.959 . S
C1417 H1424 0.961 . S
C1417 H1425 0.960 . S
C1418 C1416 1.381 . S
C1418 C1419 1.394 . S
C1418 H1426 0.930 . S
C1419 C1418 1.394 . S
C1419 C1420 1.383 . S
C1419 H1427 0.929 . S
C1420 C1419 1.383 . S
C1420 C1421 1.377 . S
C1421 H1405 0.930 . S
C1421 C1420 1.377 . S
C1421 C1422 1.379 . S
C1422 H1406 0.931 . S
C1422 C1416 1.383 . S
C1422 C1421 1.379 . S
H1423 C1417 0.959 . S
H1424 C1417 0.961 . S
H1425 C1417 0.960 . S
H1426 C1418 0.930 . S
H1427 C1419 0.929 . S
H1428 C1436 0.929 . S
H1429 C1438 0.930 . S
H1430 C1440 0.930 . S
H1431 C1443 0.929 . S
H1432 C1446 0.930 . S
H1433 C1448 0.960 . S
H1434 C1448 0.960 . S
H1435 C1448 0.960 . S
C1436 H1428 0.929 . S
C1436 C1437 1.377 . S
C1436 C1438 1.384 . S
C1437 C1436 1.377 . S
C1437 C1443 1.390 . S
C1438 H1429 0.930 . S
C1438 C1436 1.384 . S
C1438 C1439 1.372 . S
C1439 C1438 1.372 . S
C1439 C1440 1.400 . S
C1439 C1444 1.490 . S
C1440 H1430 0.930 . S
C1440 C1439 1.400 . S
C1440 C1443 1.386 . S
H1441 C1457 0.930 . S
H1442 C1458 0.931 . S
C1443 H1431 0.929 . S
C1443 C1437 1.390 . S
C1443 C1440 1.386 . S
C1444 C1439 1.490 . S
C1444 C1446 1.395 . S
C1444 C1447 1.403 . S
H1445 C1451 0.930 . S
C1446 H1432 0.930 . S
C1446 C1444 1.395 . S
C1446 C1449 1.403 . S
C1447 C1444 1.403 . S
C1447 C1448 1.524 . S
C1447 C1451 1.400 . S
C1448 H1433 0.960 . S
C1448 H1434 0.960 . S
C1448 H1435 0.960 . S
C1448 C1447 1.524 . S
C1449 C1446 1.403 . S
C1449 C1450 1.392 . S
C1449 C1453 1.495 . S
C1450 C1449 1.392 . S
C1450 C1451 1.385 . S
C1450 C1452 1.478 . S
C1451 H1445 0.930 . S
C1451 C1447 1.400 . S
C1451 C1450 1.385 . S
C1452 C1450 1.478 . S
C1452 C1454 1.381 . S
C1452 C1458 1.383 . S
C1453 C1449 1.495 . S
C1453 H1459 0.959 . S
C1453 H1460 0.961 . S
C1453 H1461 0.960 . S
C1454 C1452 1.381 . S
C1454 C1455 1.394 . S
C1454 H1462 0.930 . S
C1455 C1454 1.394 . S
C1455 C1456 1.383 . S
C1455 H1463 0.929 . S
C1456 C1455 1.383 . S
C1456 C1457 1.377 . S
C1457 H1441 0.930 . S
C1457 C1456 1.377 . S
C1457 C1458 1.379 . S
C1458 H1442 0.931 . S
C1458 C1452 1.383 . S
C1458 C1457 1.379 . S
H1459 C1453 0.959 . S
H1460 C1453 0.961 . S
H1461 C1453 0.960 . S
H1462 C1454 0.930 . S
H1463 C1455 0.929 . S
H1464 C1472 0.929 . S
H1465 C1474 0.930 . S
H1466 C1476 0.930 . S
H1467 C1479 0.929 . S
H1468 C1482 0.930 . S
H1469 C1484 0.960 . S
H1470 C1484 0.960 . S
H1471 C1484 0.960 . S
C1472 H1464 0.929 . S
C1472 C1473 1.377 . S
C1472 C1474 1.384 . S
C1473 C1472 1.377 . S
C1473 C1479 1.390 . S
C1474 H1465 0.930 . S
C1474 C1472 1.384 . S
C1474 C1475 1.372 . S
C1475 C1474 1.372 . S
C1475 C1476 1.400 . S
C1475 C1480 1.490 . S
C1476 H1466 0.930 . S
C1476 C1475 1.400 . S
C1476 C1479 1.386 . S
H1477 C1493 0.930 . S
H1478 C1494 0.931 . S
C1479 H1467 0.929 . S
C1479 C1473 1.390 . S
C1479 C1476 1.386 . S
C1480 C1475 1.490 . S
C1480 C1482 1.395 . S
C1480 C1483 1.403 . S
H1481 C1487 0.930 . S
C1482 H1468 0.930 . S
C1482 C1480 1.395 . S
C1482 C1485 1.403 . S
C1483 C1480 1.403 . S
C1483 C1484 1.524 . S
C1483 C1487 1.400 . S
C1484 H1469 0.960 . S
C1484 H1470 0.960 . S
C1484 H1471 0.960 . S
C1484 C1483 1.524 . S
C1485 C1482 1.403 . S
C1485 C1486 1.392 . S
C1485 C1489 1.495 . S
C1486 C1485 1.392 . S
C1486 C1487 1.385 . S
C1486 C1488 1.478 . S
C1487 H1481 0.930 . S
C1487 C1483 1.400 . S
C1487 C1486 1.385 . S
C1488 C1486 1.478 . S
C1488 C1490 1.381 . S
C1488 C1494 1.383 . S
C1489 C1485 1.495 . S
C1489 H1495 0.959 . S
C1489 H1496 0.961 . S
C1489 H1497 0.960 . S
C1490 C1488 1.381 . S
C1490 C1491 1.394 . S
C1490 H1498 0.930 . S
C1491 C1490 1.394 . S
C1491 C1492 1.383 . S
C1491 H1499 0.929 . S
C1492 C1491 1.383 . S
C1492 C1493 1.377 . S
C1493 H1477 0.930 . S
C1493 C1492 1.377 . S
C1493 C1494 1.379 . S
C1494 H1478 0.931 . S
C1494 C1488 1.383 . S
C1494 C1493 1.379 . S
H1495 C1489 0.959 . S
H1496 C1489 0.961 . S
H1497 C1489 0.960 . S
H1498 C1490 0.930 . S
H1499 C1491 0.929 . S
H1500 C1508 0.929 . S
H1501 C1510 0.930 . S
H1502 C1512 0.930 . S
H1503 C1515 0.929 . S
H1504 C1518 0.930 . S
H1505 C1520 0.960 . S
H1506 C1520 0.960 . S
H1507 C1520 0.960 . S
C1508 H1500 0.929 . S
C1508 C1509 1.377 . S
C1508 C1510 1.384 . S
C1509 C1508 1.377 . S
C1509 C1515 1.390 1_655 S
C1510 H1501 0.930 . S
C1510 C1508 1.384 . S
C1510 C1511 1.372 . S
C1511 C1510 1.372 . S
C1511 C1512 1.400 1_655 S
C1511 C1516 1.490 . S
C1512 H1502 0.930 . S
C1512 C1511 1.400 1_455 S
C1512 C1515 1.386 . S
H1513 C1529 0.930 . S
H1514 C1530 0.931 . S
C1515 H1503 0.929 . S
C1515 C1509 1.390 1_455 S
C1515 C1512 1.386 . S
C1516 C1511 1.490 . S
C1516 C1518 1.395 1_655 S
C1516 C1519 1.403 . S
H1517 C1523 0.930 . S
C1518 H1504 0.930 . S
C1518 C1516 1.395 1_455 S
C1518 C1521 1.403 1_556 S
C1519 C1516 1.403 . S
C1519 C1520 1.524 . S
C1519 C1523 1.400 1_556 S
C1520 H1505 0.960 . S
C1520 H1506 0.960 . S
C1520 H1507 0.960 . S
C1520 C1519 1.524 . S
C1521 C1518 1.403 1_554 S
C1521 C1522 1.392 . S
C1521 C1525 1.495 . S
C1522 C1521 1.392 . S
C1522 C1523 1.385 1_455 S
C1522 C1524 1.478 . S
C1523 H1517 0.930 . S
C1523 C1519 1.400 1_554 S
C1523 C1522 1.385 1_655 S
C1524 C1522 1.478 . S
C1524 C1526 1.381 1_455 S
C1524 C1530 1.383 . S
C1525 C1521 1.495 . S
C1525 H1531 0.959 . S
C1525 H1532 0.961 . S
C1525 H1533 0.960 . S
C1526 C1524 1.381 1_655 S
C1526 C1527 1.394 . S
C1526 H1534 0.930 . S
C1527 C1526 1.394 . S
C1527 C1528 1.383 1_655 S
C1527 H1535 0.929 . S
C1528 C1527 1.383 1_455 S
C1528 C1529 1.377 . S
C1529 H1513 0.930 . S
C1529 C1528 1.377 . S
C1529 C1530 1.379 . S
C1530 H1514 0.931 . S
C1530 C1524 1.383 . S
C1530 C1529 1.379 . S
H1531 C1525 0.959 . S
H1532 C1525 0.961 . S
H1533 C1525 0.960 . S
H1534 C1526 0.930 . S
H1535 C1527 0.929 . S
C681 C67 1.613 . S
C700 C319 1.594 . S
C717 C75 1.469 . S
C736 C151 1.477 . S
C753 C159 1.307 . S
C772 C243 1.287 . S
C789 C235 1.461 . S
C808 C327 1.445 . S
C825 C56 1.616 . S
C844 C476 1.633 . S
C861 C66 1.466 . S
C880 C392 1.454 . S
C897 C402 1.306 . S
C916 C234 1.323 . S
C933 C486 1.466 . S
C952 C224 1.472 . S
C969 C571 1.619 . S
C988 C487 1.593 . S
C1005 C403 1.453 . S
C1024 C579 1.489 . S
C1041 C663 1.305 . S
C1060 C411 1.296 . S
C1077 C495 1.471 . S
C1096 C655 1.475 . S
C1113 C308 1.617 . S
C1132 C560 1.631 . S
C1149 C570 1.467 . S
C1168 C140 1.474 . S
C1185 C150 1.308 . S
C1204 C654 1.322 . S
C1221 C318 1.476 . S
C1240 C644 1.451 . S
C1257 C63 1.536 1_565 S
C1276 C72 1.494 1_545 S
C1293 C156 1.537 . S
C1312 C147 1.495 . S
C1329 C231 1.529 1_565 S
C1348 C240 1.501 1_545 S
C1365 C315 1.538 . S
C1384 C324 1.572 . S
C1401 C408 1.529 . S
C1420 C399 1.530 . S
C1437 C483 1.538 . S
C1456 C492 1.496 . S
C1473 C576 1.543 . S
C1492 C567 1.578 . S
C1509 C660 1.535 . S
C1528 C651 1.568 . S
