# Generated by pormake.
# Topology bcg, (8)-cn, num edge types: 1
# Building blocks:
#     Node 0, Type 0, BuildingBlock: NUHRAL_clean_sbu_3, # of connection points: 8
#     Node 1, Type 0, BuildingBlock: NUHRAL_clean_sbu_3, # of connection points: 8
#     Node 2, Type 0, BuildingBlock: NUHRAL_clean_sbu_3, # of connection points: 8
#     Node 3, Type 0, BuildingBlock: NUHRAL_clean_sbu_3, # of connection points: 8
#     Edge 4, Type (0, 0), BuildingBlock: AJUNOK_clean_linker_0, # of connection points: 2
#     Edge 5, Type (0, 0), BuildingBlock: AJUNOK_clean_linker_0, # of connection points: 2
#     Edge 6, Type (0, 0), BuildingBlock: AJUNOK_clean_linker_0, # of connection points: 2
#     Edge 7, Type (0, 0), BuildingBlock: AJUNOK_clean_linker_0, # of connection points: 2
#     Edge 8, Type (0, 0), BuildingBlock: AJUNOK_clean_linker_0, # of connection points: 2
#     Edge 9, Type (0, 0), BuildingBlock: AJUNOK_clean_linker_0, # of connection points: 2
#     Edge 10, Type (0, 0), BuildingBlock: AJUNOK_clean_linker_0, # of connection points: 2
#     Edge 11, Type (0, 0), BuildingBlock: AJUNOK_clean_linker_0, # of connection points: 2
#     Edge 12, Type (0, 0), BuildingBlock: AJUNOK_clean_linker_0, # of connection points: 2
#     Edge 13, Type (0, 0), BuildingBlock: AJUNOK_clean_linker_0, # of connection points: 2
#     Edge 14, Type (0, 0), BuildingBlock: AJUNOK_clean_linker_0, # of connection points: 2
#     Edge 15, Type (0, 0), BuildingBlock: AJUNOK_clean_linker_0, # of connection points: 2
#     Edge 16, Type (0, 0), BuildingBlock: AJUNOK_clean_linker_0, # of connection points: 2
#     Edge 17, Type (0, 0), BuildingBlock: AJUNOK_clean_linker_0, # of connection points: 2
#     Edge 18, Type (0, 0), BuildingBlock: AJUNOK_clean_linker_0, # of connection points: 2
#     Edge 19, Type (0, 0), BuildingBlock: AJUNOK_clean_linker_0, # of connection points: 2
# Relax obj value: 0.196
# Max RMSD: 0.287
# Mean RMSD: 0.287
data_MOF--net-bcg--node1-NUHRAL_clean_sbu_3--edge1-AJUNOK_clean_linker_0
_symmetry_space_group_name_H-M    P1
_symmetry_Int_Tables_number       1
_symmetry_cell_setting            triclinic
loop_
_symmetry_equiv_pos_as_xyz
'x, y, z'
_cell_length_a     17.107264
_cell_length_b     12.1027
_cell_length_c     26.106393
_cell_angle_alpha  77.175233
_cell_angle_beta   90.709245
_cell_angle_gamma 90.20561
loop_
_atom_site_label
_atom_site_type_symbol
_atom_site_fract_x
_atom_site_fract_y
_atom_site_fract_z
_atom_type_partial_charge
C0 C 0.10544 0.18351 0.07879 0.0
C1 C 1.03766 0.16081 0.05249 0.0
C2 C 0.96524 0.15546 0.07738 0.0
C3 C 0.96194 0.17264 0.12865 0.0
C4 C 1.03042 0.1895 0.15652 0.0
C5 C 0.10252 0.18946 0.13166 0.0
O6 O 0.24825 0.01786 0.96591 0.0
Tb7 Tb 0.25309 0.19212 0.97316 0.0
O8 O 0.18865 0.24221 0.90046 0.0
O9 O 0.26426 -0.06833 0.05114 0.0
Eu10 Eu 0.37888 0.02418 0.05113 0.0
O11 O 0.1697 0.28512 1.00291 0.0
C12 C 0.47234 -0.00475 0.97787 0.0
O13 O 0.23244 0.14302 0.0539 0.0
O14 O 0.38306 0.20808 0.05277 0.0
O15 O 0.36501 0.27894 0.96631 0.0
C16 C 0.17722 0.21901 0.05017 0.0
C17 C 0.37777 0.02684 0.16802 0.0
O18 O 0.30691 0.05955 0.15173 0.0
C19 C 0.22535 -0.0588 1.0066 0.0
C20 C 0.40403 0.27925 1.00986 0.0
O21 O 0.42571 -0.00235 0.13421 0.0
C22 C 0.54614 0.04205 0.95354 0.0
C23 C 0.6345 0.07115 0.87801 0.0
C24 C 0.55866 0.04978 0.89938 0.0
C25 C 0.60632 0.07241 0.98473 0.0
C26 C 0.68169 0.08977 0.96459 0.0
C27 C 0.69565 0.07536 0.91389 0.0
C28 C 0.23018 0.25705 0.85785 0.0
O29 O 0.30639 0.24507 0.86289 0.0
O30 O 0.47659 -0.06433 0.02676 0.0
O31 O 0.41116 0.06208 0.96845 0.0
H32 H 1.04113 0.15188 1.01217 0.0
H33 H 0.90504 0.17892 0.14555 0.0
H34 H 0.15618 0.20125 0.15221 0.0
H35 H 0.50956 0.03561 0.87521 0.0
H36 H 0.59567 0.07563 0.02523 0.0
H37 H 0.75571 0.066 0.90351 0.0
C38 C 0.59126 0.73808 0.08413 0.0
C39 C 0.53485 0.68754 0.05737 0.0
C40 C 0.464 0.65112 0.08124 0.0
C41 C 0.45145 0.66004 0.1329 0.0
C42 C 0.50492 0.7149 0.16013 0.0
C43 C 0.57595 0.75375 0.13521 0.0
O44 O 0.73102 0.5602 0.97735 0.0
Tb45 Tb 0.73932 0.7366 0.98148 0.0
O46 O 0.67482 0.7626 0.90754 0.0
O47 O 0.74569 0.47708 0.06319 0.0
Eu48 Eu 0.86237 0.56313 0.06355 0.0
O49 O 0.65908 0.83763 1.00946 0.0
C50 C 0.96164 0.50582 0.99962 0.0
O51 O 0.71938 0.69801 0.0626 0.0
O52 O 0.87429 0.7496 0.05794 0.0
O53 O 0.85502 0.81175 0.97106 0.0
C54 C 0.66516 0.77625 0.05783 0.0
C55 C 0.86083 0.57621 0.18039 0.0
O56 O 0.80804 0.65309 0.16092 0.0
C57 C 0.70918 0.48361 0.01818 0.0
C58 C 0.89784 0.8114 1.01318 0.0
O59 O 0.89488 0.52021 0.149 0.0
C60 C 1.03623 0.5403 0.97222 0.0
C61 C 0.11021 0.58363 0.89041 0.0
C62 C 1.03907 0.55729 0.91688 0.0
C63 C 0.10514 0.55239 1.00059 0.0
C64 C 0.17673 0.57575 0.97451 0.0
C65 C 0.17852 0.58785 0.91997 0.0
C66 C 0.71046 0.72338 0.87097 0.0
O67 O 0.78376 0.69187 0.87977 0.0
O68 O 0.96379 0.46495 0.05083 0.0
O69 O 0.90015 0.56944 0.9835 0.0
H70 H 0.54518 0.67941 0.01745 0.0
H71 H 0.39681 0.6288 0.15104 0.0
H72 H 0.6182 0.79827 0.15439 0.0
H73 H 0.98612 0.55088 0.89451 0.0
H74 H 0.10302 0.54404 0.04273 0.0
H75 H 0.23418 0.60125 0.90008 0.0
C76 C 0.06726 0.54916 0.47051 0.0
C77 C 1.00647 0.58832 0.49747 0.0
C78 C 0.93279 0.61028 0.47354 0.0
C79 C 0.92088 0.59336 0.42289 0.0
C80 C 0.98236 0.5646 0.3937 0.0
C81 C 0.05586 0.53995 0.41802 0.0
O82 O 0.22125 0.75882 0.55822 0.0
Tb83 Tb 0.22505 0.57659 0.56629 0.0
O84 O 0.16653 0.56368 0.64136 0.0
O85 O 0.23549 0.83016 0.47162 0.0
Eu86 Eu 0.35384 0.74465 0.48034 0.0
O87 O 0.14179 0.46633 0.54637 0.0
C88 C 0.4403 0.78243 0.55706 0.0
O89 O 0.19615 0.59964 0.48646 0.0
O90 O 0.35073 0.5579 0.48512 0.0
O91 O 0.33943 0.4957 0.57272 0.0
C92 C 0.14305 0.51954 0.49647 0.0
C93 C 0.38443 0.73017 0.36635 0.0
O94 O 0.31423 0.68592 0.37486 0.0
C95 C 0.19521 0.82454 0.51469 0.0
C96 C 0.37575 0.49222 0.52893 0.0
O97 O 0.41861 0.76955 0.40391 0.0
C98 C 0.51426 0.74286 0.58443 0.0
C99 C 0.59562 0.70793 0.66414 0.0
C100 C 0.52222 0.73344 0.63921 0.0
C101 C 0.57815 0.71813 0.55568 0.0
C102 C 0.65213 0.69896 0.57952 0.0
C103 C 0.66044 0.70119 0.63259 0.0
C104 C 0.19693 0.62196 0.67376 0.0
O105 O 0.26319 0.67536 0.66065 0.0
O106 O 0.44503 0.84211 0.50837 0.0
O107 O 0.38161 0.71116 0.56432 0.0
H108 H 1.01595 0.59912 0.53722 0.0
H109 H 0.86253 0.60237 0.40573 0.0
H110 H 0.10391 0.51521 0.39633 0.0
H111 H 0.4718 0.74609 0.66194 0.0
H112 H 0.57021 0.71616 0.51467 0.0
H113 H 0.71871 0.69637 0.64968 0.0
C114 C 0.55411 0.07149 0.45339 0.0
C115 C 0.49547 0.11572 0.4801 0.0
C116 C 0.421 0.13951 0.45707 0.0
C117 C 0.40872 0.12923 0.40515 0.0
C118 C 0.46477 0.07916 0.37855 0.0
C119 C 0.53818 0.05136 0.40312 0.0
O120 O 0.71386 0.2442 0.55885 0.0
Tb121 Tb 0.72073 0.07102 0.54982 0.0
O122 O 0.67443 0.03287 0.6286 0.0
O123 O 0.72733 0.33607 0.4747 0.0
Eu124 Eu 0.84705 0.25893 0.47968 0.0
O125 O 0.62855 -0.02285 0.52805 0.0
C126 C 0.93056 0.28938 0.55916 0.0
O127 O 0.68708 0.11135 0.47026 0.0
O128 O 0.86057 0.08117 0.4691 0.0
O129 O 0.83444 -0.01133 0.5524 0.0
C130 C 0.63 0.03645 0.47907 0.0
C131 C 0.87748 0.29702 0.36149 0.0
O132 O 0.8058 0.25707 0.36477 0.0
C133 C 0.68997 0.3229 0.51912 0.0
C134 C 0.87798 0.00121 0.51025 0.0
O135 O 0.91089 0.31523 0.40428 0.0
C136 C 1.00855 0.25743 0.58168 0.0
C137 C 0.10336 0.24719 0.6531 0.0
C138 C 1.02756 0.27214 0.63245 0.0
C139 C 0.06568 0.21832 0.5516 0.0
C140 C 0.14099 0.19198 0.5725 0.0
C141 C 0.15771 0.20336 0.62355 0.0
C142 C 0.72466 0.04654 0.66505 0.0
O143 O 0.79843 0.06096 0.65183 0.0
O144 O 0.92922 0.36017 0.51305 0.0
O145 O 0.8795 0.20683 0.56271 0.0
H146 H 0.50711 0.12773 0.51941 0.0
H147 H 0.35314 0.15545 0.38634 0.0
H148 H 0.5823 0.01144 0.38392 0.0
H149 H 0.98448 0.30609 0.65491 0.0
H150 H 0.05201 0.21066 0.51186 0.0
H151 H 0.2157 0.18339 0.63981 0.0
C152 C 0.76369 0.05281 0.047 0.0
C153 C 0.74874 0.11668 0.99599 0.0
C154 C 0.8341 0.06567 0.07306 0.0
C155 C 0.8918 0.1423 0.0488 0.0
H156 H 0.72214 -0.00986 0.06626 0.0
H157 H 0.84426 0.01343 0.11199 0.0
S158 S 0.87604 0.33877 0.91793 0.0
N159 N 0.79268 0.26861 0.92479 0.0
N160 N 0.92683 0.28746 0.97209 0.0
C161 C 0.87614 0.20915 0.9985 0.0
C162 C 0.80393 0.19821 0.97271 0.0
C163 C 0.30152 0.68017 0.98054 0.0
C164 C 0.25072 0.59079 1.00263 0.0
C165 C 0.37352 0.69422 1.00414 0.0
C166 C 0.39746 0.61967 0.05085 0.0
H167 H 0.28479 0.74145 0.9452 0.0
H168 H 0.409 0.7668 0.98687 0.0
S169 S 0.29031 0.36817 0.12289 0.0
N170 N 0.23132 0.42564 0.07369 0.0
N171 N 0.36862 0.44928 0.11637 0.0
C172 C 0.34895 0.52803 0.07238 0.0
C173 C 0.27489 0.51486 0.04899 0.0
C174 C 0.77724 0.59546 0.57589 0.0
C175 C 0.72233 0.67669 0.55051 0.0
C176 C 0.84753 0.57883 0.55208 0.0
C177 C 0.86525 0.64195 0.50174 0.0
H178 H 0.76558 0.54336 0.61447 0.0
H179 H 0.88699 0.51374 0.57265 0.0
S180 S 0.74285 0.86482 0.41803 0.0
N181 N 0.69068 0.81837 0.47123 0.0
N182 N 0.8249 0.79185 0.42789 0.0
C183 C 0.81183 0.72445 0.47614 0.0
C184 C 0.73954 0.73977 0.4999 0.0
C185 C 0.22188 0.23997 0.49145 0.0
C186 C 0.20696 0.16761 0.54042 0.0
C187 C 0.29296 0.23488 0.4659 0.0
C188 C 0.35203 0.15767 0.48849 0.0
H189 H 0.17956 0.3036 0.47352 0.0
H190 H 0.30184 0.29232 0.42823 0.0
S191 S 0.34094 -0.04979 0.61668 0.0
N192 N 0.25494 0.01266 0.6093 0.0
N193 N 0.39065 0.0102 0.56403 0.0
C194 C 0.33766 0.0858 0.53776 0.0
C195 C 0.2644 0.08802 0.56266 0.0
C196 C 0.59099 0.38568 0.06081 0.0
C197 C 0.63446 0.42419 1.01509 0.0
C198 C 0.51582 0.34163 0.05824 0.0
C199 C 0.48085 0.33517 1.00986 0.0
H200 H 0.61428 0.39189 0.09885 0.0
H201 H 0.48502 0.31209 0.09473 0.0
S202 S 0.57376 0.4137 0.87914 0.0
N203 N 0.63985 0.44535 0.92024 0.0
N204 N 0.49783 0.36351 0.91547 0.0
C205 C 0.52435 0.37107 0.96387 0.0
C206 C 0.60136 0.41515 0.96651 0.0
C207 C 0.56381 0.39772 0.47735 0.0
C208 C 0.61242 0.37315 0.52206 0.0
C209 C 0.48642 0.43187 0.48077 0.0
C210 C 0.45495 0.44393 0.52889 0.0
H211 H 0.58482 0.38727 0.43973 0.0
H212 H 0.45099 0.44922 0.44519 0.0
S213 S 0.56081 0.39708 0.6568 0.0
N214 N 0.62541 0.36661 0.61556 0.0
N215 N 0.48025 0.43356 0.62174 0.0
C216 C 0.50353 0.42122 0.57378 0.0
C217 C 0.58228 0.38555 0.57036 0.0
C218 C 0.10501 0.86394 0.05468 0.0
C219 C 0.14388 -0.10049 1.00674 0.0
C220 C 1.025 0.83979 0.05602 0.0
C221 C 0.98045 0.84904 1.0095 0.0
H222 H 0.13593 0.85768 0.09168 0.0
H223 H 0.99802 0.81327 0.09412 0.0
S224 S 0.0547 -0.06461 0.87355 0.0
N225 N 0.13215 -0.05935 0.9113 0.0
N226 N 0.98158 0.89436 0.91399 0.0
C227 C 1.01861 0.8834 0.9612 0.0
C228 C 0.10033 -0.0917 0.9598 0.0
C229 C 0.99522 -0.05669 0.46589 0.0
C230 C 0.95659 -0.05139 0.51269 0.0
C231 C 0.07302 -0.09401 0.46648 0.0
C232 C 0.1154 0.87321 0.51391 0.0
H233 H 0.96519 -0.0312 0.42835 0.0
H234 H 0.09965 -0.09846 0.42957 0.0
S235 S 1.0432 0.87961 0.64703 0.0
N236 N 0.96804 -0.07746 0.60751 0.0
N237 N 0.11364 0.85349 0.60879 0.0
C238 C 0.07764 0.87947 0.56092 0.0
C239 C 0.99841 -0.08342 0.56031 0.0
C240 C 0.50007 0.06623 0.28584 0.0
C241 C 0.44438 0.05337 0.32624 0.0
C242 C 0.47939 0.05265 0.23516 0.0
C243 C 0.40182 0.02898 0.22259 0.0
H244 H 0.55954 0.09062 0.29277 0.0
H245 H 0.52366 0.06566 0.20509 0.0
S246 S 0.23638 -0.03185 0.31525 0.0
N247 N 0.31082 -0.00482 0.3513 0.0
N248 N 0.27059 -0.01589 0.25528 0.0
C249 C 0.34622 0.01267 0.26273 0.0
C250 C 0.36786 0.02075 0.31469 0.0
C251 C 0.40059 0.75185 0.22076 0.0
C252 C 0.4807 0.7345 0.21262 0.0
C253 C 0.37113 0.74893 0.27049 0.0
C254 C 0.42058 0.73852 0.31437 0.0
H255 H 0.35887 0.76554 0.18845 0.0
H256 H 0.3085 0.75633 0.27434 0.0
S257 S 0.63588 0.70304 0.3158 0.0
N258 N 0.60989 0.70952 0.25399 0.0
N259 N 0.55453 0.71788 0.34709 0.0
C260 C 0.50154 0.72977 0.30707 0.0
C261 C 0.53165 0.72587 0.25631 0.0
C262 C 0.57312 0.7601 0.75208 0.0
C263 C 0.60901 0.69111 0.72222 0.0
C264 C 0.6021 0.76412 0.80256 0.0
C265 C 0.66949 0.70342 0.82335 0.0
H266 H 0.52539 0.81555 0.73551 0.0
H267 H 0.57411 0.81871 0.82436 0.0
S268 S 0.76291 0.47661 0.77073 0.0
N269 N 0.69697 0.53175 0.72591 0.0
N270 N 0.75641 0.5488 0.81708 0.0
C271 C 0.69833 0.62288 0.79712 0.0
C272 C 0.66657 0.61434 0.74753 0.0
C273 C 0.60092 0.04124 0.78612 0.0
C274 C 0.65288 0.0817 0.82036 0.0
C275 C 0.62335 0.03304 0.73537 0.0
C276 C 0.69899 0.06275 0.71699 0.0
H277 H 0.54315 0.01157 0.79849 0.0
H278 H 0.58176 0.00033 0.7109 0.0
S279 S 0.84723 0.21411 0.78066 0.0
N280 N 0.77468 0.18837 0.82254 0.0
N281 N 0.81954 0.15848 0.7313 0.0
C282 C 0.74839 0.11495 0.74786 0.0
C283 C 0.72447 0.12862 0.79824 0.0
C284 C 0.92218 0.65633 0.30791 0.0
C285 C 0.96543 0.56427 0.33798 0.0
C286 C 0.88686 0.65723 0.2589 0.0
C287 C 0.8894 0.56489 0.23472 0.0
H288 H 0.91416 0.73142 0.32346 0.0
H289 H 0.85725 0.7342 0.23913 0.0
S290 S 1.04998 0.23192 0.31191 0.0
N291 N 1.03412 0.36729 0.34392 0.0
N292 N 0.94215 0.36034 0.23724 0.0
C293 C 0.92834 0.46855 0.2607 0.0
C294 C 0.97758 0.46889 0.31732 0.0
C295 C 0.90691 0.18345 0.28982 0.0
C296 C 0.9253 0.28759 0.31478 0.0
C297 C 0.95508 0.15886 0.24301 0.0
C298 C 1.02351 0.22379 0.20773 0.0
H299 H 0.86118 0.12453 0.30617 0.0
H300 H 0.9346 0.08274 0.23177 0.0
S301 S 0.15191 0.49458 0.20274 0.0
N302 N 0.09755 0.49538 0.25503 0.0
N303 N 0.12685 0.38282 0.17862 0.0
C304 C 0.07158 0.33298 0.21264 0.0
C305 C 0.05363 0.40072 0.25535 0.0
C306 C 0.11627 0.23253 0.79995 0.0
C307 C 0.19274 0.27213 0.80567 0.0
C308 C 0.08529 0.23022 0.75006 0.0
C309 C 0.12967 0.26849 0.70454 0.0
H310 H 0.08163 0.19815 0.83426 0.0
H311 H 1.02811 0.19308 0.74739 0.0
S312 S 0.32842 0.39648 0.69894 0.0
N313 N 0.30828 0.36176 0.76199 0.0
N314 N 0.25084 0.35932 0.66859 0.0
C315 C 0.2042 0.31554 0.71 0.0
C316 C 0.2355 0.31695 0.76047 0.0
C317 C 0.10923 0.53966 0.75018 0.0
C318 C 0.16148 0.62442 0.72528 0.0
C319 C 0.08794 0.53003 0.80304 0.0
C320 C 0.11659 0.60705 0.83204 0.0
H321 H 0.08787 0.4771 0.72966 0.0
H322 H 0.05258 0.45855 0.82204 0.0
S323 S 0.23544 0.86389 0.77991 0.0
N324 N 0.22796 0.79973 0.73052 0.0
N325 N 0.18646 0.7838 0.82844 0.0
C326 C 0.16104 0.69973 0.80538 0.0
C327 C 0.18371 0.70815 0.75234 0.0
loop_
_geom_bond_atom_site_label_1
_geom_bond_atom_site_label_2
_geom_bond_distance
_geom_bond_site_symmetry_2
_ccdc_geom_bond_type
C0 C1 1.387 1_455 S
C0 C5 1.380 . S
C0 C16 1.494 . S
C1 C0 1.387 1_655 S
C1 C2 1.386 . S
C1 H32 0.930 . S
C2 C1 1.386 . S
C2 C3 1.397 . S
C3 C2 1.397 . S
C3 C4 1.393 . S
C3 H33 0.930 . S
C4 C3 1.393 . S
C4 C5 1.395 1_655 S
C5 C0 1.380 . S
C5 C4 1.395 1_455 S
C5 H34 0.930 . S
O6 Tb7 2.295 . S
O6 C19 1.242 1_556 S
Tb7 O6 2.295 . S
Tb7 O8 2.312 . S
Tb7 O11 2.438 . S
Tb7 O13 2.472 1_556 S
Tb7 O15 2.308 . S
Tb7 C16 2.821 1_556 S
O8 Tb7 2.312 . S
O8 C28 1.264 . S
O9 Eu10 2.308 1_565 S
O9 C19 1.243 1_565 S
Eu10 O9 2.308 1_545 S
Eu10 C12 2.821 1_554 S
Eu10 O14 2.295 . S
Eu10 O21 2.312 . S
Eu10 O30 2.438 . S
Eu10 O31 2.472 1_554 S
O11 Tb7 2.438 . S
O11 C16 1.263 1_556 S
C12 Eu10 2.821 1_556 S
C12 C22 1.494 . S
C12 O30 1.263 1_556 S
C12 O31 1.264 . S
O13 Tb7 2.472 1_554 S
O13 C16 1.264 . S
O14 Eu10 2.295 . S
O14 C20 1.242 . S
O15 Tb7 2.308 . S
O15 C20 1.243 1_556 S
C16 C0 1.494 . S
C16 Tb7 2.821 1_554 S
C16 O11 1.263 1_554 S
C16 O13 1.264 . S
C17 O18 1.260 . S
C17 O21 1.264 . S
O18 C17 1.260 . S
C19 O6 1.242 1_554 S
C19 O9 1.243 1_545 S
C20 O14 1.242 . S
C20 O15 1.243 1_554 S
O21 Eu10 2.312 . S
O21 C17 1.264 . S
C22 C12 1.494 . S
C22 C24 1.380 . S
C22 C25 1.387 . S
C23 C24 1.395 . S
C23 C27 1.393 . S
C24 C22 1.380 . S
C24 C23 1.395 . S
C24 H35 0.930 . S
C25 C22 1.387 . S
C25 C26 1.386 . S
C25 H36 0.930 . S
C26 C25 1.386 . S
C26 C27 1.397 . S
C27 C23 1.393 . S
C27 C26 1.397 . S
C27 H37 0.930 . S
C28 O8 1.264 . S
C28 O29 1.260 . S
O29 C28 1.260 . S
O30 Eu10 2.438 . S
O30 C12 1.263 1_554 S
O31 Eu10 2.472 1_556 S
O31 C12 1.264 . S
H32 C1 0.930 . S
H33 C3 0.930 . S
H34 C5 0.930 . S
H35 C24 0.930 . S
H36 C25 0.930 . S
H37 C27 0.930 . S
C38 C39 1.387 . S
C38 C43 1.380 . S
C38 C54 1.494 . S
C39 C38 1.387 . S
C39 C40 1.386 . S
C39 H70 0.930 . S
C40 C39 1.386 . S
C40 C41 1.397 . S
C41 C40 1.397 . S
C41 C42 1.393 . S
C41 H71 0.930 . S
C42 C41 1.393 . S
C42 C43 1.395 . S
C43 C38 1.380 . S
C43 C42 1.395 . S
C43 H72 0.930 . S
O44 Tb45 2.295 . S
O44 C57 1.242 1_556 S
Tb45 O44 2.295 . S
Tb45 O46 2.312 . S
Tb45 O49 2.438 . S
Tb45 O51 2.472 1_556 S
Tb45 O53 2.308 1_565 S
Tb45 C54 2.821 1_556 S
O46 Tb45 2.312 . S
O46 C66 1.264 . S
O47 Eu48 2.308 . S
O47 C57 1.243 . S
Eu48 O47 2.308 . S
Eu48 C50 2.821 1_554 S
Eu48 O52 2.295 . S
Eu48 O59 2.312 . S
Eu48 O68 2.438 . S
Eu48 O69 2.472 1_554 S
O49 Tb45 2.438 . S
O49 C54 1.263 1_556 S
C50 Eu48 2.821 1_556 S
C50 C60 1.494 . S
C50 O68 1.263 1_556 S
C50 O69 1.264 . S
O51 Tb45 2.472 1_554 S
O51 C54 1.264 . S
O52 Eu48 2.295 . S
O52 C58 1.242 . S
O53 Tb45 2.308 1_545 S
O53 C58 1.243 1_546 S
C54 C38 1.494 . S
C54 Tb45 2.821 1_554 S
C54 O49 1.263 1_554 S
C54 O51 1.264 . S
C55 O56 1.260 . S
C55 O59 1.264 . S
O56 C55 1.260 . S
C57 O44 1.242 1_554 S
C57 O47 1.243 . S
C58 O52 1.242 . S
C58 O53 1.243 1_564 S
O59 Eu48 2.312 . S
O59 C55 1.264 . S
C60 C50 1.494 . S
C60 C62 1.380 . S
C60 C63 1.387 1_655 S
C61 C62 1.395 1_455 S
C61 C65 1.393 . S
C62 C60 1.380 . S
C62 C61 1.395 1_655 S
C62 H73 0.930 . S
C63 C60 1.387 1_455 S
C63 C64 1.386 . S
C63 H74 0.930 . S
C64 C63 1.386 . S
C64 C65 1.397 . S
C65 C61 1.393 . S
C65 C64 1.397 . S
C65 H75 0.930 . S
C66 O46 1.264 . S
C66 O67 1.260 . S
O67 C66 1.260 . S
O68 Eu48 2.438 . S
O68 C50 1.263 1_554 S
O69 Eu48 2.472 1_556 S
O69 C50 1.264 . S
H70 C39 0.930 . S
H71 C41 0.930 . S
H72 C43 0.930 . S
H73 C62 0.930 . S
H74 C63 0.930 . S
H75 C65 0.930 . S
C76 C77 1.387 1_455 S
C76 C81 1.380 . S
C76 C92 1.494 . S
C77 C76 1.387 1_655 S
C77 C78 1.386 . S
C77 H108 0.930 . S
C78 C77 1.386 . S
C78 C79 1.397 . S
C79 C78 1.397 . S
C79 C80 1.393 . S
C79 H109 0.930 . S
C80 C79 1.393 . S
C80 C81 1.395 1_655 S
C81 C76 1.380 . S
C81 C80 1.395 1_455 S
C81 H110 0.930 . S
O82 Tb83 2.295 . S
O82 C95 1.242 . S
Tb83 O82 2.295 . S
Tb83 O84 2.312 . S
Tb83 O87 2.438 . S
Tb83 O89 2.472 . S
Tb83 O91 2.308 . S
Tb83 C92 2.821 . S
O84 Tb83 2.312 . S
O84 C104 1.264 . S
O85 Eu86 2.308 1_545 S
O85 C95 1.243 1_545 S
Eu86 O85 2.308 1_565 S
Eu86 C88 2.821 . S
Eu86 O90 2.295 . S
Eu86 O97 2.312 . S
Eu86 O106 2.438 . S
Eu86 O107 2.472 . S
O87 Tb83 2.438 . S
O87 C92 1.263 . S
C88 Eu86 2.821 . S
C88 C98 1.494 . S
C88 O106 1.263 . S
C88 O107 1.264 . S
O89 Tb83 2.472 . S
O89 C92 1.264 . S
O90 Eu86 2.295 . S
O90 C96 1.242 . S
O91 Tb83 2.308 . S
O91 C96 1.243 . S
C92 C76 1.494 . S
C92 Tb83 2.821 . S
C92 O87 1.263 . S
C92 O89 1.264 . S
C93 O94 1.260 . S
C93 O97 1.264 . S
O94 C93 1.260 . S
C95 O82 1.242 . S
C95 O85 1.243 1_565 S
C96 O90 1.242 . S
C96 O91 1.243 . S
O97 Eu86 2.312 . S
O97 C93 1.264 . S
C98 C88 1.494 . S
C98 C100 1.380 . S
C98 C101 1.387 . S
C99 C100 1.395 . S
C99 C103 1.393 . S
C100 C98 1.380 . S
C100 C99 1.395 . S
C100 H111 0.930 . S
C101 C98 1.387 . S
C101 C102 1.386 . S
C101 H112 0.930 . S
C102 C101 1.386 . S
C102 C103 1.397 . S
C103 C99 1.393 . S
C103 C102 1.397 . S
C103 H113 0.930 . S
C104 O84 1.264 . S
C104 O105 1.260 . S
O105 C104 1.260 . S
O106 Eu86 2.438 . S
O106 C88 1.263 . S
O107 Eu86 2.472 . S
O107 C88 1.264 . S
H108 C77 0.930 . S
H109 C79 0.930 . S
H110 C81 0.930 . S
H111 C100 0.930 . S
H112 C101 0.930 . S
H113 C103 0.930 . S
C114 C115 1.387 . S
C114 C119 1.380 . S
C114 C130 1.494 . S
C115 C114 1.387 . S
C115 C116 1.386 . S
C115 H146 0.930 . S
C116 C115 1.386 . S
C116 C117 1.397 . S
C117 C116 1.397 . S
C117 C118 1.393 . S
C117 H147 0.930 . S
C118 C117 1.393 . S
C118 C119 1.395 . S
C119 C114 1.380 . S
C119 C118 1.395 . S
C119 H148 0.930 . S
O120 Tb121 2.295 . S
O120 C133 1.242 . S
Tb121 O120 2.295 . S
Tb121 O122 2.312 . S
Tb121 O125 2.438 . S
Tb121 O127 2.472 . S
Tb121 O129 2.308 1_545 S
Tb121 C130 2.821 . S
O122 Tb121 2.312 . S
O122 C142 1.264 . S
O123 Eu124 2.308 . S
O123 C133 1.243 . S
Eu124 O123 2.308 . S
Eu124 C126 2.821 . S
Eu124 O128 2.295 . S
Eu124 O135 2.312 . S
Eu124 O144 2.438 . S
Eu124 O145 2.472 . S
O125 Tb121 2.438 . S
O125 C130 1.263 . S
C126 Eu124 2.821 . S
C126 C136 1.494 . S
C126 O144 1.263 . S
C126 O145 1.264 . S
O127 Tb121 2.472 . S
O127 C130 1.264 . S
O128 Eu124 2.295 . S
O128 C134 1.242 . S
O129 Tb121 2.308 1_565 S
O129 C134 1.243 1_565 S
C130 C114 1.494 . S
C130 Tb121 2.821 . S
C130 O125 1.263 . S
C130 O127 1.264 . S
C131 O132 1.260 . S
C131 O135 1.264 . S
O132 C131 1.260 . S
C133 O120 1.242 . S
C133 O123 1.243 . S
C134 O128 1.242 . S
C134 O129 1.243 1_545 S
O135 Eu124 2.312 . S
O135 C131 1.264 . S
C136 C126 1.494 . S
C136 C138 1.380 . S
C136 C139 1.387 1_655 S
C137 C138 1.395 1_455 S
C137 C141 1.393 . S
C138 C136 1.380 . S
C138 C137 1.395 1_655 S
C138 H149 0.930 . S
C139 C136 1.387 1_455 S
C139 C140 1.386 . S
C139 H150 0.930 . S
C140 C139 1.386 . S
C140 C141 1.397 . S
C141 C137 1.393 . S
C141 C140 1.397 . S
C141 H151 0.930 . S
C142 O122 1.264 . S
C142 O143 1.260 . S
O143 C142 1.260 . S
O144 Eu124 2.438 . S
O144 C126 1.263 . S
O145 Eu124 2.472 . S
O145 C126 1.264 . S
H146 C115 0.930 . S
H147 C117 0.930 . S
H148 C119 0.930 . S
H149 C138 0.930 . S
H150 C139 0.930 . S
H151 C141 0.930 . S
C152 C153 1.369 1_554 S
C152 C154 1.419 . S
C152 H156 0.930 . S
C153 C152 1.369 1_556 S
C153 C162 1.429 . S
C154 C152 1.419 . S
C154 C155 1.363 . S
C154 H157 0.929 . S
C155 C154 1.363 . S
C155 C161 1.428 1_554 S
H156 C152 0.930 . S
H157 C154 0.929 . S
S158 N159 1.613 . S
S158 N160 1.610 . S
N159 S158 1.613 . S
N159 C162 1.350 . S
N160 S158 1.610 . S
N160 C161 1.351 . S
C161 C155 1.428 1_556 S
C161 N160 1.351 . S
C161 C162 1.434 . S
C162 C153 1.429 . S
C162 N159 1.350 . S
C162 C161 1.434 . S
C163 C164 1.369 . S
C163 C165 1.419 . S
C163 H167 0.930 . S
C164 C163 1.369 . S
C164 C173 1.429 1_556 S
C165 C163 1.419 . S
C165 C166 1.363 1_556 S
C165 H168 0.929 . S
C166 C165 1.363 1_554 S
C166 C172 1.428 . S
H167 C163 0.930 . S
H168 C165 0.929 . S
S169 N170 1.613 . S
S169 N171 1.610 . S
N170 S169 1.613 . S
N170 C173 1.350 . S
N171 S169 1.610 . S
N171 C172 1.351 . S
C172 C166 1.428 . S
C172 N171 1.351 . S
C172 C173 1.434 . S
C173 C164 1.429 1_554 S
C173 N170 1.350 . S
C173 C172 1.434 . S
C174 C175 1.369 . S
C174 C176 1.419 . S
C174 H178 0.930 . S
C175 C174 1.369 . S
C175 C184 1.429 . S
C176 C174 1.419 . S
C176 C177 1.363 . S
C176 H179 0.929 . S
C177 C176 1.363 . S
C177 C183 1.428 . S
H178 C174 0.930 . S
H179 C176 0.929 . S
S180 N181 1.613 . S
S180 N182 1.610 . S
N181 S180 1.613 . S
N181 C184 1.350 . S
N182 S180 1.610 . S
N182 C183 1.351 . S
C183 C177 1.428 . S
C183 N182 1.351 . S
C183 C184 1.434 . S
C184 C175 1.429 . S
C184 N181 1.350 . S
C184 C183 1.434 . S
C185 C186 1.369 . S
C185 C187 1.419 . S
C185 H189 0.930 . S
C186 C185 1.369 . S
C186 C195 1.429 . S
C187 C185 1.419 . S
C187 C188 1.363 . S
C187 H190 0.929 . S
C188 C187 1.363 . S
C188 C194 1.428 . S
H189 C185 0.930 . S
H190 C187 0.929 . S
S191 N192 1.613 . S
S191 N193 1.610 . S
N192 S191 1.613 . S
N192 C195 1.350 . S
N193 S191 1.610 . S
N193 C194 1.351 . S
C194 C188 1.428 . S
C194 N193 1.351 . S
C194 C195 1.434 . S
C195 C186 1.429 . S
C195 N192 1.350 . S
C195 C194 1.434 . S
C196 C197 1.369 . S
C196 C198 1.419 . S
C196 H200 0.930 . S
C197 C196 1.369 . S
C197 C206 1.429 1_554 S
C198 C196 1.419 . S
C198 C199 1.363 . S
C198 H201 0.929 . S
C199 C198 1.363 . S
C199 C205 1.428 1_554 S
H200 C196 0.930 . S
H201 C198 0.929 . S
S202 N203 1.613 . S
S202 N204 1.610 . S
N203 S202 1.613 . S
N203 C206 1.350 . S
N204 S202 1.610 . S
N204 C205 1.351 . S
C205 C199 1.428 1_556 S
C205 N204 1.351 . S
C205 C206 1.434 . S
C206 C197 1.429 1_556 S
C206 N203 1.350 . S
C206 C205 1.434 . S
C207 C208 1.369 . S
C207 C209 1.419 . S
C207 H211 0.930 . S
C208 C207 1.369 . S
C208 C217 1.429 . S
C209 C207 1.419 . S
C209 C210 1.363 . S
C209 H212 0.929 . S
C210 C209 1.363 . S
C210 C216 1.428 . S
H211 C207 0.930 . S
H212 C209 0.929 . S
S213 N214 1.613 . S
S213 N215 1.610 . S
N214 S213 1.613 . S
N214 C217 1.350 . S
N215 S213 1.610 . S
N215 C216 1.351 . S
C216 C210 1.428 . S
C216 N215 1.351 . S
C216 C217 1.434 . S
C217 C208 1.429 . S
C217 N214 1.350 . S
C217 C216 1.434 . S
C218 C219 1.369 1_565 S
C218 C220 1.419 1_455 S
C218 H222 0.930 . S
C219 C218 1.369 1_545 S
C219 C228 1.429 1_554 S
C220 C218 1.419 1_655 S
C220 C221 1.363 . S
C220 H223 0.929 . S
C221 C220 1.363 . S
C221 C227 1.428 1_564 S
H222 C218 0.930 . S
H223 C220 0.929 . S
S224 N225 1.613 1_655 S
S224 N226 1.610 . S
N225 S224 1.613 1_455 S
N225 C228 1.350 . S
N226 S224 1.610 . S
N226 C227 1.351 . S
C227 C221 1.428 1_546 S
C227 N226 1.351 . S
C227 C228 1.434 1_655 S
C228 C219 1.429 1_556 S
C228 N225 1.350 . S
C228 C227 1.434 1_455 S
C229 C230 1.369 . S
C229 C231 1.419 1_655 S
C229 H233 0.930 . S
C230 C229 1.369 . S
C230 C239 1.428 . S
C231 C229 1.419 1_455 S
C231 C232 1.363 1_545 S
C231 H234 0.929 . S
C232 C231 1.363 1_565 S
C232 C238 1.428 . S
H233 C229 0.930 . S
H234 C231 0.929 . S
S235 N236 1.613 1_465 S
S235 N237 1.610 . S
N236 S235 1.613 1_645 S
N236 C239 1.350 . S
N237 S235 1.610 . S
N237 C238 1.351 . S
C238 C232 1.428 . S
C238 N237 1.351 . S
C238 C239 1.434 1_465 S
C239 C230 1.428 . S
C239 N236 1.350 . S
C239 C238 1.434 1_645 S
C240 C241 1.369 . S
C240 C242 1.419 . S
C240 H244 0.930 . S
C241 C240 1.369 . S
C241 C250 1.429 . S
C242 C240 1.419 . S
C242 C243 1.363 . S
C242 H245 0.929 . S
C243 C242 1.363 . S
C243 C249 1.428 . S
H244 C240 0.930 . S
H245 C242 0.929 . S
S246 N247 1.613 . S
S246 N248 1.610 . S
N247 S246 1.613 . S
N247 C250 1.350 . S
N248 S246 1.610 . S
N248 C249 1.351 . S
C249 C243 1.428 . S
C249 N248 1.351 . S
C249 C250 1.434 . S
C250 C241 1.429 . S
C250 N247 1.350 . S
C250 C249 1.434 . S
C251 C252 1.369 . S
C251 C253 1.419 . S
C251 H255 0.930 . S
C252 C251 1.369 . S
C252 C261 1.429 . S
C253 C251 1.419 . S
C253 C254 1.363 . S
C253 H256 0.929 . S
C254 C253 1.363 . S
C254 C260 1.428 . S
H255 C251 0.930 . S
H256 C253 0.929 . S
S257 N258 1.613 . S
S257 N259 1.610 . S
N258 S257 1.613 . S
N258 C261 1.350 . S
N259 S257 1.610 . S
N259 C260 1.351 . S
C260 C254 1.428 . S
C260 N259 1.351 . S
C260 C261 1.434 . S
C261 C252 1.429 . S
C261 N258 1.350 . S
C261 C260 1.434 . S
C262 C263 1.369 . S
C262 C264 1.419 . S
C262 H266 0.930 . S
C263 C262 1.369 . S
C263 C272 1.429 . S
C264 C262 1.419 . S
C264 C265 1.363 . S
C264 H267 0.929 . S
C265 C264 1.363 . S
C265 C271 1.428 . S
H266 C262 0.930 . S
H267 C264 0.929 . S
S268 N269 1.613 . S
S268 N270 1.610 . S
N269 S268 1.613 . S
N269 C272 1.350 . S
N270 S268 1.610 . S
N270 C271 1.351 . S
C271 C265 1.428 . S
C271 N270 1.351 . S
C271 C272 1.434 . S
C272 C263 1.429 . S
C272 N269 1.350 . S
C272 C271 1.434 . S
C273 C274 1.369 . S
C273 C275 1.419 . S
C273 H277 0.930 . S
C274 C273 1.369 . S
C274 C283 1.429 . S
C275 C273 1.419 . S
C275 C276 1.363 . S
C275 H278 0.929 . S
C276 C275 1.363 . S
C276 C282 1.428 . S
H277 C273 0.930 . S
H278 C275 0.929 . S
S279 N280 1.613 . S
S279 N281 1.610 . S
N280 S279 1.613 . S
N280 C283 1.350 . S
N281 S279 1.610 . S
N281 C282 1.351 . S
C282 C276 1.428 . S
C282 N281 1.351 . S
C282 C283 1.434 . S
C283 C274 1.429 . S
C283 N280 1.350 . S
C283 C282 1.434 . S
C284 C285 1.369 . S
C284 C286 1.419 . S
C284 H288 0.930 . S
C285 C284 1.369 . S
C285 C294 1.429 . S
C286 C284 1.419 . S
C286 C287 1.363 . S
C286 H289 0.929 . S
C287 C286 1.363 . S
C287 C293 1.428 . S
H288 C284 0.930 . S
H289 C286 0.929 . S
S290 N291 1.613 . S
S290 N292 1.610 . S
N291 S290 1.613 . S
N291 C294 1.350 . S
N292 S290 1.610 . S
N292 C293 1.351 . S
C293 C287 1.428 . S
C293 N292 1.351 . S
C293 C294 1.434 . S
C294 C285 1.429 . S
C294 N291 1.350 . S
C294 C293 1.434 . S
C295 C296 1.369 . S
C295 C297 1.419 . S
C295 H299 0.930 . S
C296 C295 1.369 . S
C296 C305 1.429 . S
C297 C295 1.419 . S
C297 C298 1.363 . S
C297 H300 0.929 . S
C298 C297 1.363 . S
C298 C304 1.428 1_655 S
H299 C295 0.930 . S
H300 C297 0.929 . S
S301 N302 1.613 . S
S301 N303 1.610 . S
N302 S301 1.613 . S
N302 C305 1.350 1_455 S
N303 S301 1.610 . S
N303 C304 1.351 . S
C304 C298 1.428 1_455 S
C304 N303 1.351 . S
C304 C305 1.434 1_455 S
C305 C296 1.429 . S
C305 N302 1.350 1_655 S
C305 C304 1.434 1_655 S
C306 C307 1.369 . S
C306 C308 1.419 1_455 S
C306 H310 0.930 1_455 S
C307 C306 1.369 . S
C307 C316 1.429 . S
C308 C306 1.419 1_655 S
C308 C309 1.363 1_655 S
C308 H311 0.929 . S
C309 C308 1.363 1_455 S
C309 C315 1.428 . S
H310 C306 0.930 1_655 S
H311 C308 0.929 . S
S312 N313 1.613 . S
S312 N314 1.610 . S
N313 S312 1.613 . S
N313 C316 1.350 . S
N314 S312 1.610 . S
N314 C315 1.351 . S
C315 C309 1.428 . S
C315 N314 1.351 . S
C315 C316 1.434 . S
C316 C307 1.429 . S
C316 N313 1.350 . S
C316 C315 1.434 . S
C317 C318 1.369 . S
C317 C319 1.419 . S
C317 H321 0.930 . S
C318 C317 1.369 . S
C318 C327 1.429 . S
C319 C317 1.419 . S
C319 C320 1.363 . S
C319 H322 0.929 . S
C320 C319 1.363 . S
C320 C326 1.428 . S
H321 C317 0.930 . S
H322 C319 0.929 . S
S323 N324 1.613 1_545 S
S323 N325 1.610 1_545 S
N324 S323 1.613 1_565 S
N324 C327 1.350 . S
N325 S323 1.610 1_565 S
N325 C326 1.351 . S
C326 C320 1.428 . S
C326 N325 1.351 . S
C326 C327 1.434 . S
C327 C318 1.429 . S
C327 N324 1.350 . S
C327 C326 1.434 . S
C153 C26 2.577 . S
C155 C2 2.574 . S
C164 C64 2.574 . S
C166 C40 2.576 . S
C175 C102 2.572 . S
C177 C78 2.577 . S
C186 C140 2.578 . S
C188 C116 2.573 . S
C197 C57 1.866 . S
C199 C20 1.867 . S
C208 C133 1.870 . S
C210 C96 1.864 . S
C219 C19 1.864 . S
C221 C58 1.869 . S
C230 C134 1.864 . S
C232 C95 1.869 . S
C241 C118 1.299 . S
C243 C17 1.330 . S
C252 C42 1.311 . S
C254 C93 1.338 . S
C263 C99 1.299 . S
C265 C66 1.332 . S
C274 C23 1.299 . S
C276 C142 1.332 . S
C285 C80 1.307 . S
C287 C55 1.333 . S
C296 C131 1.334 . S
C298 C4 1.308 . S
C307 C28 1.328 . S
C309 C137 1.300 . S
C318 C104 1.335 . S
C320 C61 1.303 . S
