# Generated by pormake.
# Topology lta, (4)-cn, num edge types: 1
# Building blocks:
#     Node 0, Type 0, BuildingBlock: CEKHIL_clean_sbu_0, # of connection points: 4
#     Node 1, Type 0, BuildingBlock: CEKHIL_clean_sbu_0, # of connection points: 4
#     Node 2, Type 0, BuildingBlock: CEKHIL_clean_sbu_0, # of connection points: 4
#     Node 3, Type 0, BuildingBlock: CEKHIL_clean_sbu_0, # of connection points: 4
#     Node 4, Type 0, BuildingBlock: CEKHIL_clean_sbu_0, # of connection points: 4
#     Node 5, Type 0, BuildingBlock: CEKHIL_clean_sbu_0, # of connection points: 4
#     Node 6, Type 0, BuildingBlock: CEKHIL_clean_sbu_0, # of connection points: 4
#     Node 7, Type 0, BuildingBlock: CEKHIL_clean_sbu_0, # of connection points: 4
#     Node 8, Type 0, BuildingBlock: CEKHIL_clean_sbu_0, # of connection points: 4
#     Node 9, Type 0, BuildingBlock: CEKHIL_clean_sbu_0, # of connection points: 4
#     Node 10, Type 0, BuildingBlock: CEKHIL_clean_sbu_0, # of connection points: 4
#     Node 11, Type 0, BuildingBlock: CEKHIL_clean_sbu_0, # of connection points: 4
#     Node 12, Type 0, BuildingBlock: CEKHIL_clean_sbu_0, # of connection points: 4
#     Node 13, Type 0, BuildingBlock: CEKHIL_clean_sbu_0, # of connection points: 4
#     Node 14, Type 0, BuildingBlock: CEKHIL_clean_sbu_0, # of connection points: 4
#     Node 15, Type 0, BuildingBlock: CEKHIL_clean_sbu_0, # of connection points: 4
#     Node 16, Type 0, BuildingBlock: CEKHIL_clean_sbu_0, # of connection points: 4
#     Node 17, Type 0, BuildingBlock: CEKHIL_clean_sbu_0, # of connection points: 4
#     Node 18, Type 0, BuildingBlock: CEKHIL_clean_sbu_0, # of connection points: 4
#     Node 19, Type 0, BuildingBlock: CEKHIL_clean_sbu_0, # of connection points: 4
#     Node 20, Type 0, BuildingBlock: CEKHIL_clean_sbu_0, # of connection points: 4
#     Node 21, Type 0, BuildingBlock: CEKHIL_clean_sbu_0, # of connection points: 4
#     Node 22, Type 0, BuildingBlock: CEKHIL_clean_sbu_0, # of connection points: 4
#     Node 23, Type 0, BuildingBlock: CEKHIL_clean_sbu_0, # of connection points: 4
#     Edge 24, Type (0, 0), BuildingBlock: AJUNOK_clean_linker_0, # of connection points: 2
#     Edge 25, Type (0, 0), BuildingBlock: AJUNOK_clean_linker_0, # of connection points: 2
#     Edge 26, Type (0, 0), BuildingBlock: AJUNOK_clean_linker_0, # of connection points: 2
#     Edge 27, Type (0, 0), BuildingBlock: AJUNOK_clean_linker_0, # of connection points: 2
#     Edge 28, Type (0, 0), BuildingBlock: AJUNOK_clean_linker_0, # of connection points: 2
#     Edge 29, Type (0, 0), BuildingBlock: AJUNOK_clean_linker_0, # of connection points: 2
#     Edge 30, Type (0, 0), BuildingBlock: AJUNOK_clean_linker_0, # of connection points: 2
#     Edge 31, Type (0, 0), BuildingBlock: AJUNOK_clean_linker_0, # of connection points: 2
#     Edge 32, Type (0, 0), BuildingBlock: AJUNOK_clean_linker_0, # of connection points: 2
#     Edge 33, Type (0, 0), BuildingBlock: AJUNOK_clean_linker_0, # of connection points: 2
#     Edge 34, Type (0, 0), BuildingBlock: AJUNOK_clean_linker_0, # of connection points: 2
#     Edge 35, Type (0, 0), BuildingBlock: AJUNOK_clean_linker_0, # of connection points: 2
#     Edge 36, Type (0, 0), BuildingBlock: AJUNOK_clean_linker_0, # of connection points: 2
#     Edge 37, Type (0, 0), BuildingBlock: AJUNOK_clean_linker_0, # of connection points: 2
#     Edge 38, Type (0, 0), BuildingBlock: AJUNOK_clean_linker_0, # of connection points: 2
#     Edge 39, Type (0, 0), BuildingBlock: AJUNOK_clean_linker_0, # of connection points: 2
#     Edge 40, Type (0, 0), BuildingBlock: AJUNOK_clean_linker_0, # of connection points: 2
#     Edge 41, Type (0, 0), BuildingBlock: AJUNOK_clean_linker_0, # of connection points: 2
#     Edge 42, Type (0, 0), BuildingBlock: AJUNOK_clean_linker_0, # of connection points: 2
#     Edge 43, Type (0, 0), BuildingBlock: AJUNOK_clean_linker_0, # of connection points: 2
#     Edge 44, Type (0, 0), BuildingBlock: AJUNOK_clean_linker_0, # of connection points: 2
#     Edge 45, Type (0, 0), BuildingBlock: AJUNOK_clean_linker_0, # of connection points: 2
#     Edge 46, Type (0, 0), BuildingBlock: AJUNOK_clean_linker_0, # of connection points: 2
#     Edge 47, Type (0, 0), BuildingBlock: AJUNOK_clean_linker_0, # of connection points: 2
#     Edge 48, Type (0, 0), BuildingBlock: AJUNOK_clean_linker_0, # of connection points: 2
#     Edge 49, Type (0, 0), BuildingBlock: AJUNOK_clean_linker_0, # of connection points: 2
#     Edge 50, Type (0, 0), BuildingBlock: AJUNOK_clean_linker_0, # of connection points: 2
#     Edge 51, Type (0, 0), BuildingBlock: AJUNOK_clean_linker_0, # of connection points: 2
#     Edge 52, Type (0, 0), BuildingBlock: AJUNOK_clean_linker_0, # of connection points: 2
#     Edge 53, Type (0, 0), BuildingBlock: AJUNOK_clean_linker_0, # of connection points: 2
#     Edge 54, Type (0, 0), BuildingBlock: AJUNOK_clean_linker_0, # of connection points: 2
#     Edge 55, Type (0, 0), BuildingBlock: AJUNOK_clean_linker_0, # of connection points: 2
#     Edge 56, Type (0, 0), BuildingBlock: AJUNOK_clean_linker_0, # of connection points: 2
#     Edge 57, Type (0, 0), BuildingBlock: AJUNOK_clean_linker_0, # of connection points: 2
#     Edge 58, Type (0, 0), BuildingBlock: AJUNOK_clean_linker_0, # of connection points: 2
#     Edge 59, Type (0, 0), BuildingBlock: AJUNOK_clean_linker_0, # of connection points: 2
#     Edge 60, Type (0, 0), BuildingBlock: AJUNOK_clean_linker_0, # of connection points: 2
#     Edge 61, Type (0, 0), BuildingBlock: AJUNOK_clean_linker_0, # of connection points: 2
#     Edge 62, Type (0, 0), BuildingBlock: AJUNOK_clean_linker_0, # of connection points: 2
#     Edge 63, Type (0, 0), BuildingBlock: AJUNOK_clean_linker_0, # of connection points: 2
#     Edge 64, Type (0, 0), BuildingBlock: AJUNOK_clean_linker_0, # of connection points: 2
#     Edge 65, Type (0, 0), BuildingBlock: AJUNOK_clean_linker_0, # of connection points: 2
#     Edge 66, Type (0, 0), BuildingBlock: AJUNOK_clean_linker_0, # of connection points: 2
#     Edge 67, Type (0, 0), BuildingBlock: AJUNOK_clean_linker_0, # of connection points: 2
#     Edge 68, Type (0, 0), BuildingBlock: AJUNOK_clean_linker_0, # of connection points: 2
#     Edge 69, Type (0, 0), BuildingBlock: AJUNOK_clean_linker_0, # of connection points: 2
#     Edge 70, Type (0, 0), BuildingBlock: AJUNOK_clean_linker_0, # of connection points: 2
#     Edge 71, Type (0, 0), BuildingBlock: AJUNOK_clean_linker_0, # of connection points: 2
# Relax obj value: 0.288
# Max RMSD: 0.168
# Mean RMSD: 0.168
data_MOF--net-lta--node1-CEKHIL_clean_sbu_0--edge1-AJUNOK_clean_linker_0
_symmetry_space_group_name_H-M    P1
_symmetry_Int_Tables_number       1
_symmetry_cell_setting            triclinic
loop_
_symmetry_equiv_pos_as_xyz
'x, y, z'
_cell_length_a     41.165896
_cell_length_b     41.18175
_cell_length_c     41.165715
_cell_angle_alpha  89.969853
_cell_angle_beta   89.97443
_cell_angle_gamma 90.014191
loop_
_atom_site_label
_atom_site_type_symbol
_atom_site_fract_x
_atom_site_fract_y
_atom_site_fract_z
_atom_type_partial_charge
Co0 Co 0.14552 0.32115 0.49406 0.0
O1 O 0.19137 0.31238 0.49203 0.0
O2 O 0.15462 0.27689 0.50815 0.0
C3 C 0.14423 0.34436 0.4442 0.0
O4 O 0.0959 0.32113 0.49874 0.0
Co5 Co 0.11858 0.39184 0.48822 0.0
O6 O 0.07564 0.37044 0.4863 0.0
C7 C 0.14715 0.36847 0.55033 0.0
C8 C 0.18496 0.28314 0.50172 0.0
C9 C 0.07195 0.34073 0.49402 0.0
O10 O 0.14988 0.33904 0.53986 0.0
O11 O 0.13796 0.39241 0.53276 0.0
O12 O 0.14208 0.31302 0.44691 0.0
O13 O 0.1481 0.36012 0.47083 0.0
Co14 Co 0.68598 0.14372 0.49551 0.0
O15 O 0.69516 0.18948 0.49445 0.0
O16 O 0.73094 0.15198 0.50786 0.0
C17 C 0.66076 0.14436 0.44664 0.0
O18 O 0.68574 0.09401 0.49876 0.0
Co19 Co 0.61522 0.11703 0.49164 0.0
O20 O 0.63635 0.07436 0.48588 0.0
C21 C 0.64197 0.14088 0.55455 0.0
C22 C 0.72477 0.18253 0.50247 0.0
C23 C 0.66611 0.07028 0.49311 0.0
O24 O 0.67025 0.14664 0.54222 0.0
O25 O 0.61747 0.13109 0.53811 0.0
O26 O 0.69214 0.14167 0.44806 0.0
O27 O 0.64601 0.14745 0.474 0.0
Co28 Co 0.86375 0.6843 0.49665 0.0
O29 O 0.81817 0.695 0.49806 0.0
O30 O 0.85779 0.72945 0.50885 0.0
C31 C 0.85951 0.65845 0.44833 0.0
O32 O 0.91351 0.68307 0.49719 0.0
Co33 Co 0.89001 0.61376 0.49143 0.0
O34 O 0.93155 0.63476 0.47949 0.0
C35 C 0.8695 0.64078 0.55556 0.0
C36 C 0.8268 0.72444 0.5052 0.0
C37 C 0.93655 0.66402 0.48801 0.0
O38 O 0.86294 0.669 0.54354 0.0
O39 O 0.87869 0.61636 0.53866 0.0
O40 O 0.8633 0.68975 0.44906 0.0
O41 O 0.85797 0.64412 0.47605 0.0
Co42 Co 0.32254 0.86425 0.49677 0.0
O43 O 0.31142 0.8188 0.49665 0.0
O44 O 0.27749 0.8583 0.50949 0.0
C45 C 0.34758 0.86205 0.44788 0.0
O46 O 0.32463 0.91392 0.49913 0.0
Co47 Co 0.39433 0.88822 0.49216 0.0
O48 O 0.37493 0.93185 0.48721 0.0
C49 C 0.36717 0.86522 0.55521 0.0
C50 C 0.28223 0.82742 0.50476 0.0
C51 C 0.34517 0.93694 0.49385 0.0
O52 O 0.33838 0.86142 0.54339 0.0
O53 O 0.39202 0.87336 0.53837 0.0
O54 O 0.31631 0.8659 0.44931 0.0
O55 O 0.36225 0.85877 0.47524 0.0
Co56 Co 0.14434 0.6877 0.51643 0.0
O57 O 0.18986 0.69855 0.5176 0.0
O58 O 0.15104 0.73209 0.50196 0.0
C59 C 0.14483 0.66475 0.56637 0.0
O60 O 0.09477 0.68583 0.51244 0.0
Co61 Co 0.11921 0.6166 0.5234 0.0
O62 O 0.07596 0.63698 0.52816 0.0
C63 C 0.14556 0.64037 0.46026 0.0
C64 C 0.18172 0.72741 0.50796 0.0
C65 C 0.07136 0.66617 0.51914 0.0
O66 O 0.14865 0.66977 0.4707 0.0
O67 O 0.13667 0.61642 0.478 0.0
O68 O 0.14132 0.69596 0.56354 0.0
O69 O 0.14873 0.64892 0.53975 0.0
Co70 Co 0.32552 0.14559 0.51281 0.0
O71 O 0.31585 0.19128 0.51181 0.0
O72 O 0.2803 0.15273 0.50077 0.0
C73 C 0.35151 0.14879 0.56119 0.0
O74 O 0.32626 0.09578 0.51189 0.0
Co75 Co 0.39633 0.11946 0.51698 0.0
O76 O 0.37519 0.07784 0.52823 0.0
C77 C 0.36888 0.14103 0.45352 0.0
C78 C 0.28626 0.18358 0.50436 0.0
C79 C 0.34577 0.07276 0.52024 0.0
O80 O 0.34061 0.14673 0.46584 0.0
O81 O 0.39362 0.13206 0.47009 0.0
O82 O 0.32014 0.14558 0.56043 0.0
O83 O 0.36576 0.15071 0.53345 0.0
Co84 Co 0.86389 0.32136 0.51317 0.0
O85 O 0.81814 0.31223 0.51058 0.0
O86 O 0.85664 0.27612 0.50135 0.0
C87 C 0.85865 0.3479 0.56105 0.0
O88 O 0.91374 0.32146 0.51395 0.0
Co89 Co 0.89135 0.3915 0.51832 0.0
O90 O 0.93214 0.3698 0.53128 0.0
C91 C 0.87181 0.36424 0.45403 0.0
C92 C 0.82576 0.28247 0.5038 0.0
C93 C 0.93693 0.3404 0.52312 0.0
O94 O 0.86467 0.33618 0.46612 0.0
O95 O 0.88091 0.38869 0.47093 0.0
O96 O 0.86185 0.31653 0.56085 0.0
O97 O 0.85841 0.36183 0.5331 0.0
Co98 Co 0.68691 0.86237 0.51516 0.0
O99 O 0.69746 0.81677 0.51431 0.0
O100 O 0.732 0.85612 0.50266 0.0
C101 C 0.66151 0.85903 0.5638 0.0
O102 O 0.68559 0.91212 0.51396 0.0
Co103 Co 0.61593 0.88799 0.52039 0.0
O104 O 0.6368 0.93001 0.53071 0.0
C105 C 0.64281 0.86662 0.45654 0.0
C106 C 0.72687 0.8252 0.50677 0.0
C107 C 0.66609 0.93515 0.52227 0.0
O108 O 0.67128 0.86096 0.46842 0.0
O109 O 0.61828 0.87548 0.47348 0.0
O110 O 0.69282 0.86266 0.56269 0.0
O111 O 0.64695 0.85688 0.53627 0.0
Co112 Co 0.49557 0.14473 0.32022 0.0
O113 O 0.49612 0.19032 0.30955 0.0
O114 O 0.50929 0.15106 0.27551 0.0
C115 C 0.44616 0.1473 0.34428 0.0
O116 O 0.4975 0.0951 0.32153 0.0
Co117 Co 0.48855 0.11884 0.39106 0.0
O118 O 0.48166 0.07612 0.37025 0.0
C119 C 0.55294 0.141 0.3661 0.0
C120 C 0.50458 0.18191 0.28038 0.0
C121 C 0.49012 0.07166 0.34086 0.0
O122 O 0.54186 0.14667 0.33728 0.0
O123 O 0.53534 0.13195 0.3901 0.0
O124 O 0.44819 0.14378 0.31301 0.0
O125 O 0.47325 0.14981 0.35958 0.0
Co126 Co 0.8652 0.4929 0.32255 0.0
O127 O 0.81975 0.49134 0.31143 0.0
O128 O 0.85867 0.5068 0.27789 0.0
C129 C 0.86496 0.44318 0.34607 0.0
O130 O 0.91477 0.49718 0.32485 0.0
Co131 Co 0.889 0.48718 0.39431 0.0
O132 O 0.93287 0.48458 0.37491 0.0
C133 C 0.86329 0.54988 0.36907 0.0
C134 C 0.82797 0.50074 0.28251 0.0
C135 C 0.93787 0.49226 0.34539 0.0
O136 O 0.86057 0.53889 0.33983 0.0
O137 O 0.87171 0.53258 0.39349 0.0
O138 O 0.86868 0.44574 0.31486 0.0
O139 O 0.86053 0.46992 0.36154 0.0
Co140 Co 0.51475 0.86365 0.32432 0.0
O141 O 0.51433 0.81771 0.31588 0.0
O142 O 0.50105 0.85515 0.2799 0.0
C143 C 0.56417 0.86218 0.3483 0.0
O144 O 0.51281 0.91339 0.32368 0.0
Co145 Co 0.52138 0.89195 0.39418 0.0
O146 O 0.5301 0.93334 0.37149 0.0
C147 C 0.45705 0.86936 0.36968 0.0
C148 C 0.50572 0.82456 0.28639 0.0
C149 C 0.52105 0.93723 0.3422 0.0
O150 O 0.46847 0.86221 0.34135 0.0
O151 O 0.47436 0.87959 0.39339 0.0
O152 O 0.56207 0.86435 0.31691 0.0
O153 O 0.53712 0.86016 0.3638 0.0
Co154 Co 0.14545 0.51282 0.32466 0.0
O155 O 0.19087 0.51101 0.31347 0.0
O156 O 0.15083 0.5017 0.27907 0.0
C157 C 0.15064 0.56051 0.35153 0.0
O158 O 0.09569 0.51301 0.32669 0.0
Co159 Co 0.12086 0.51663 0.39606 0.0
O160 O 0.07907 0.52927 0.37607 0.0
C161 C 0.1395 0.45294 0.36689 0.0
C162 C 0.18192 0.50477 0.28394 0.0
C163 C 0.07324 0.52176 0.34666 0.0
O164 O 0.14569 0.46556 0.33883 0.0
O165 O 0.13124 0.46935 0.39197 0.0
O166 O 0.14646 0.56051 0.32027 0.0
O167 O 0.15214 0.53246 0.36517 0.0
Co168 Co 0.49477 0.86319 0.68794 0.0
O169 O 0.49453 0.81728 0.69663 0.0
O170 O 0.50808 0.85466 0.73252 0.0
C171 C 0.44559 0.86204 0.66355 0.0
O172 O 0.49736 0.91297 0.68824 0.0
Co173 Co 0.48906 0.89145 0.61807 0.0
O174 O 0.47958 0.93279 0.64056 0.0
C175 C 0.5526 0.86686 0.64267 0.0
C176 C 0.50312 0.82409 0.72612 0.0
C177 C 0.48877 0.93676 0.66978 0.0
O178 O 0.54109 0.86086 0.67122 0.0
O179 O 0.53553 0.8771 0.61878 0.0
O180 O 0.44741 0.86444 0.69494 0.0
O181 O 0.47276 0.85975 0.64831 0.0
Co182 Co 0.14582 0.49622 0.68584 0.0
O183 O 0.19105 0.49863 0.69751 0.0
O184 O 0.15056 0.50758 0.73148 0.0
C185 C 0.15177 0.44854 0.65904 0.0
O186 O 0.09604 0.49523 0.68313 0.0
Co187 Co 0.12295 0.49254 0.61384 0.0
O188 O 0.08099 0.47936 0.63313 0.0
C189 C 0.14065 0.55616 0.64344 0.0
C190 C 0.18175 0.50501 0.72691 0.0
C191 C 0.07426 0.48627 0.66251 0.0
O192 O 0.14583 0.5435 0.67168 0.0
O193 O 0.13331 0.53978 0.61807 0.0
O194 O 0.14725 0.44851 0.69026 0.0
O195 O 0.15337 0.47663 0.64549 0.0
Co196 Co 0.51591 0.1446 0.6887 0.0
O197 O 0.51632 0.19029 0.69909 0.0
O198 O 0.50242 0.1515 0.7334 0.0
C199 C 0.56519 0.14629 0.66433 0.0
O200 O 0.51296 0.09491 0.68787 0.0
Co201 Co 0.52224 0.11746 0.61843 0.0
O202 O 0.53003 0.0752 0.63993 0.0
C203 C 0.45884 0.14307 0.6426 0.0
C204 C 0.50766 0.18223 0.72831 0.0
C205 C 0.52083 0.07113 0.66915 0.0
O206 O 0.46972 0.14765 0.67167 0.0
O207 O 0.47632 0.13348 0.61873 0.0
O208 O 0.56332 0.14291 0.69565 0.0
O209 O 0.53804 0.14892 0.64917 0.0
Co210 Co 0.86551 0.51244 0.68755 0.0
O211 O 0.82021 0.51409 0.6991 0.0
O212 O 0.85933 0.49863 0.73234 0.0
C213 C 0.86493 0.5621 0.66388 0.0
O214 O 0.91512 0.50814 0.68466 0.0
Co215 Co 0.88797 0.51792 0.61527 0.0
O216 O 0.93227 0.51865 0.63372 0.0
C217 C 0.86029 0.4562 0.6407 0.0
C218 C 0.82861 0.5047 0.72794 0.0
C219 C 0.93782 0.51179 0.66336 0.0
O220 O 0.86041 0.46646 0.67033 0.0
O221 O 0.86737 0.47394 0.61615 0.0
O222 O 0.86909 0.55969 0.69506 0.0
O223 O 0.86034 0.53529 0.64864 0.0
Co224 Co 0.32229 0.49483 0.14633 0.0
O225 O 0.31144 0.49569 0.19185 0.0
O226 O 0.27731 0.50797 0.15241 0.0
C227 C 0.34692 0.44582 0.14981 0.0
O228 O 0.3241 0.49608 0.09656 0.0
Co229 Co 0.39345 0.48868 0.12139 0.0
O230 O 0.37289 0.47885 0.07911 0.0
C231 C 0.36742 0.55277 0.14287 0.0
C232 C 0.28219 0.50365 0.18336 0.0
C233 C 0.34375 0.48762 0.0737 0.0
O234 O 0.33866 0.54133 0.14799 0.0
O235 O 0.39181 0.5355 0.1343 0.0
O236 O 0.31567 0.44739 0.14593 0.0
O237 O 0.36185 0.47314 0.15212 0.0
Co238 Co 0.32114 0.51629 0.86545 0.0
O239 O 0.31011 0.51786 0.82 0.0
O240 O 0.27639 0.50268 0.85887 0.0
C241 C 0.34505 0.56579 0.86511 0.0
O242 O 0.32324 0.51215 0.91505 0.0
Co243 Co 0.39287 0.52167 0.88958 0.0
O244 O 0.37332 0.52439 0.93337 0.0
C245 C 0.36771 0.45954 0.86255 0.0
C246 C 0.28111 0.50866 0.82818 0.0
C247 C 0.3437 0.51701 0.93823 0.0
O248 O 0.33829 0.47026 0.86077 0.0
O249 O 0.39214 0.47692 0.87074 0.0
O250 O 0.3138 0.56354 0.86882 0.0
O251 O 0.36029 0.5389 0.86086 0.0
Co252 Co 0.49538 0.32465 0.86362 0.0
O253 O 0.49769 0.31277 0.81844 0.0
O254 O 0.50683 0.27898 0.85903 0.0
C255 C 0.44754 0.35118 0.8576 0.0
O256 O 0.49461 0.32788 0.91341 0.0
Co257 Co 0.49164 0.39701 0.88546 0.0
O258 O 0.47969 0.37832 0.92804 0.0
C259 C 0.55524 0.36725 0.86794 0.0
C260 C 0.50417 0.28345 0.82782 0.0
C261 C 0.48659 0.34901 0.93511 0.0
O262 O 0.54263 0.3389 0.86342 0.0
O263 O 0.53882 0.39275 0.87472 0.0
O264 O 0.44767 0.32002 0.86239 0.0
O265 O 0.47558 0.36481 0.85576 0.0
Co266 Co 0.68823 0.49334 0.86537 0.0
O267 O 0.69933 0.49243 0.81989 0.0
O268 O 0.73293 0.50712 0.85904 0.0
C269 C 0.66451 0.44375 0.8645 0.0
O270 O 0.68616 0.49686 0.91494 0.0
Co271 Co 0.61661 0.48743 0.88962 0.0
O272 O 0.63624 0.48407 0.93332 0.0
C273 C 0.64174 0.55033 0.86424 0.0
C274 C 0.72831 0.5015 0.82828 0.0
C275 C 0.66583 0.49161 0.93814 0.0
O276 O 0.67103 0.53943 0.86145 0.0
O277 O 0.61736 0.5329 0.87251 0.0
O278 O 0.69575 0.44608 0.86811 0.0
O279 O 0.64913 0.47062 0.86056 0.0
Co280 Co 0.51401 0.68516 0.86533 0.0
O281 O 0.51285 0.69377 0.81938 0.0
O282 O 0.50204 0.73013 0.85721 0.0
C283 C 0.56226 0.65893 0.86236 0.0
O284 O 0.51312 0.68588 0.91512 0.0
Co285 Co 0.51854 0.61558 0.89423 0.0
O286 O 0.53 0.638 0.93508 0.0
C287 C 0.45465 0.64248 0.87292 0.0
C288 C 0.50559 0.72356 0.82649 0.0
C289 C 0.52173 0.66749 0.93892 0.0
O290 O 0.46705 0.67016 0.86496 0.0
O291 O 0.47124 0.61828 0.88321 0.0
O292 O 0.56163 0.69035 0.86479 0.0
O293 O 0.53448 0.64467 0.86127 0.0
Co294 Co 0.68731 0.51469 0.14579 0.0
O295 O 0.69816 0.51309 0.19132 0.0
O296 O 0.73207 0.50095 0.15159 0.0
C297 C 0.66323 0.56395 0.14962 0.0
O298 O 0.6856 0.51395 0.09605 0.0
Co299 Co 0.61626 0.52213 0.12068 0.0
O300 O 0.63709 0.53178 0.07847 0.0
C301 C 0.64185 0.45718 0.1403 0.0
C302 C 0.72729 0.50489 0.18259 0.0
C303 C 0.66613 0.52264 0.07315 0.0
O304 O 0.67044 0.46837 0.14675 0.0
O305 O 0.61777 0.47478 0.13152 0.0
O306 O 0.69449 0.56204 0.14588 0.0
O307 O 0.64796 0.5368 0.15167 0.0
Co308 Co 0.49565 0.68606 0.14696 0.0
O309 O 0.49533 0.69467 0.1929 0.0
O310 O 0.50855 0.73069 0.15545 0.0
C311 C 0.44663 0.66119 0.14789 0.0
O312 O 0.49835 0.68662 0.09723 0.0
Co313 Co 0.49056 0.61629 0.1184 0.0
O314 O 0.48204 0.6387 0.0768 0.0
C315 C 0.55417 0.64178 0.14205 0.0
C316 C 0.5037 0.72422 0.18602 0.0
C317 C 0.49068 0.66813 0.07319 0.0
O318 O 0.54217 0.66987 0.14912 0.0
O319 O 0.5374 0.61786 0.13141 0.0
O320 O 0.44824 0.6926 0.14561 0.0
O321 O 0.47392 0.64617 0.15025 0.0
Co322 Co 0.51412 0.32329 0.14368 0.0
O323 O 0.51542 0.31137 0.18887 0.0
O324 O 0.50145 0.27805 0.14928 0.0
C325 C 0.56318 0.34812 0.14492 0.0
O326 O 0.51046 0.32687 0.09406 0.0
Co327 Co 0.51763 0.39644 0.12333 0.0
O328 O 0.51696 0.37905 0.07859 0.0
C329 C 0.45578 0.36812 0.14737 0.0
C330 C 0.50695 0.28238 0.18014 0.0
C331 C 0.51204 0.34921 0.07213 0.0
O332 O 0.46753 0.33906 0.14806 0.0
O333 O 0.47253 0.39353 0.14106 0.0
O334 O 0.56154 0.31696 0.14052 0.0
O335 O 0.53599 0.36263 0.14971 0.0
C336 C 0.17151 0.40489 0.38272 0.0
C337 C 0.1417 0.4177 0.37222 0.0
C338 C 0.17247 0.37754 0.40308 0.0
C339 C 0.14373 0.36207 0.4132 0.0
H340 H 0.19379 0.41825 0.37847 0.0
H341 H 0.19556 0.37055 0.41363 0.0
S342 S 0.06005 0.3834 0.38851 0.0
N343 N 0.08317 0.41072 0.37027 0.0
N344 N 0.08516 0.35905 0.4082 0.0
C345 C 0.11418 0.37242 0.39994 0.0
C346 C 0.11315 0.40035 0.3794 0.0
C347 C 0.62538 0.17393 0.40825 0.0
C348 C 0.64208 0.14522 0.41623 0.0
C349 C 0.59869 0.17344 0.38705 0.0
C350 C 0.58774 0.14415 0.37348 0.0
H351 H 0.63115 0.19637 0.42073 0.0
H352 H 0.58445 0.19539 0.38418 0.0
S353 S 0.62517 0.06301 0.38437 0.0
N354 N 0.64784 0.08744 0.40671 0.0
N355 N 0.59736 0.08633 0.36721 0.0
C356 C 0.60609 0.11587 0.37901 0.0
C357 C 0.63338 0.11642 0.40041 0.0
C358 C 0.88376 0.63253 0.39931 0.0
C359 C 0.85628 0.63921 0.41839 0.0
C360 C 0.8843 0.60535 0.3786 0.0
C361 C 0.85739 0.58432 0.37641 0.0
H362 H 0.90594 0.64625 0.40289 0.0
H363 H 0.907 0.59886 0.367 0.0
S364 S 0.77836 0.59426 0.41802 0.0
N365 N 0.80048 0.6251 0.43104 0.0
N366 N 0.80158 0.57422 0.39216 0.0
C367 C 0.82883 0.59283 0.39284 0.0
C368 C 0.8283 0.62026 0.41392 0.0
C369 C 0.38352 0.8343 0.40869 0.0
C370 C 0.36654 0.86255 0.41765 0.0
C371 C 0.41085 0.83592 0.38835 0.0
C372 C 0.42222 0.86593 0.37684 0.0
H373 H 0.37742 0.81124 0.41983 0.0
H374 H 0.42513 0.81413 0.38462 0.0
S375 S 0.38444 0.94639 0.39092 0.0
N376 N 0.36098 0.92076 0.41102 0.0
N377 N 0.4129 0.92404 0.37354 0.0
C378 C 0.40376 0.8939 0.38337 0.0
C379 C 0.37571 0.89216 0.40368 0.0
C380 C 0.11438 0.60824 0.63012 0.0
C381 C 0.14303 0.59141 0.63826 0.0
C382 C 0.11526 0.63577 0.60998 0.0
C383 C 0.14484 0.64715 0.59742 0.0
H384 H 0.09094 0.59792 0.63625 0.0
H385 H 0.09255 0.64588 0.60134 0.0
S386 S 0.22675 0.61452 0.61518 0.0
N387 N 0.20182 0.59044 0.63545 0.0
N388 N 0.20355 0.64208 0.59749 0.0
C389 C 0.17377 0.63267 0.60822 0.0
C390 C 0.17287 0.6048 0.62881 0.0
C391 C 0.37664 0.12374 0.61028 0.0
C392 C 0.37075 0.15139 0.5912 0.0
C393 C 0.40339 0.12268 0.63155 0.0
C394 C 0.42464 0.14935 0.63448 0.0
H395 H 0.36263 0.10181 0.60634 0.0
H396 H 0.40939 0.09982 0.64311 0.0
S397 S 0.41686 0.22861 0.59284 0.0
N398 N 0.38603 0.20698 0.57902 0.0
N399 N 0.43591 0.20504 0.61915 0.0
C400 C 0.41691 0.17808 0.61795 0.0
C401 C 0.39004 0.17906 0.59617 0.0
C402 C 0.82721 0.41658 0.61107 0.0
C403 C 0.85285 0.42213 0.63284 0.0
C404 C 0.82756 0.38985 0.59013 0.0
C405 C 0.8534 0.36758 0.59045 0.0
H406 H 0.80865 0.43493 0.60762 0.0
H407 H 0.80895 0.38822 0.57158 0.0
S408 S 0.92329 0.3679 0.64686 0.0
N409 N 0.90247 0.40083 0.65661 0.0
N410 N 0.90282 0.35007 0.61729 0.0
C411 C 0.87717 0.37061 0.61464 0.0
C412 C 0.87693 0.39809 0.63595 0.0
C413 C 0.60704 0.88887 0.63012 0.0
C414 C 0.58714 0.86153 0.63534 0.0
C415 C 0.63444 0.8871 0.60981 0.0
C416 C 0.6424 0.85801 0.59396 0.0
H417 H 0.59952 0.91244 0.63909 0.0
H418 H 0.64731 0.90928 0.60384 0.0
S419 S 0.60032 0.77897 0.60255 0.0
N420 N 0.57925 0.80401 0.62578 0.0
N421 N 0.63041 0.80072 0.58728 0.0
C422 C 0.62445 0.82997 0.60134 0.0
C423 C 0.59685 0.8317 0.62222 0.0
C424 C 0.38752 0.17462 0.40762 0.0
C425 C 0.37483 0.1449 0.41851 0.0
C426 C 0.40774 0.17594 0.3802 0.0
C427 C 0.41554 0.14769 0.36267 0.0
H428 H 0.38493 0.19622 0.42242 0.0
H429 H 0.41989 0.19862 0.3746 0.0
S430 S 0.38492 0.0648 0.37882 0.0
N431 N 0.36867 0.08727 0.40784 0.0
N432 N 0.40616 0.08998 0.35586 0.0
C433 C 0.40019 0.11855 0.37122 0.0
C434 C 0.37987 0.11712 0.39932 0.0
C435 C 0.83891 0.38138 0.40706 0.0
C436 C 0.86895 0.37052 0.41898 0.0
C437 C 0.8374 0.40221 0.3801 0.0
C438 C 0.86581 0.41234 0.36404 0.0
H439 H 0.81691 0.37696 0.42085 0.0
H440 H 0.8142 0.41291 0.37376 0.0
S441 S 0.94985 0.38696 0.38305 0.0
N442 N 0.92729 0.36849 0.41068 0.0
N443 N 0.92429 0.40708 0.35954 0.0
C444 C 0.89554 0.39881 0.3735 0.0
C445 C 0.89713 0.37791 0.40114 0.0
C446 C 0.60312 0.83295 0.38318 0.0
C447 C 0.59493 0.86155 0.36639 0.0
C448 C 0.62376 0.83379 0.41029 0.0
C449 C 0.63647 0.86334 0.42157 0.0
H450 H 0.59102 0.81034 0.37728 0.0
H451 H 0.62667 0.8119 0.42461 0.0
S452 S 0.6253 0.94425 0.38376 0.0
N453 N 0.60387 0.91944 0.36062 0.0
N454 N 0.64212 0.92123 0.41203 0.0
C455 C 0.63098 0.89151 0.40305 0.0
C456 C 0.61023 0.89058 0.37529 0.0
C457 C 0.12589 0.63074 0.40423 0.0
C458 C 0.15214 0.63221 0.42613 0.0
C459 C 0.12677 0.60997 0.37709 0.0
C460 C 0.15384 0.59 0.37144 0.0
H461 H 0.10337 0.6431 0.40991 0.0
H462 H 0.10504 0.60714 0.36252 0.0
S463 S 0.23005 0.58799 0.41919 0.0
N464 N 0.20698 0.61467 0.4383 0.0
N465 N 0.20863 0.57555 0.38763 0.0
C466 C 0.18122 0.59355 0.39144 0.0
C467 C 0.1804 0.61477 0.41874 0.0
C468 C 0.3784 0.88917 0.60893 0.0
C469 C 0.37344 0.86105 0.59009 0.0
C470 C 0.39891 0.88867 0.63622 0.0
C471 C 0.415 0.86002 0.64527 0.0
H472 H 0.36935 0.91238 0.60044 0.0
H473 H 0.40488 0.9114 0.64805 0.0
S474 S 0.40674 0.77928 0.6066 0.0
N475 N 0.38334 0.80332 0.58457 0.0
N476 N 0.42188 0.80231 0.63575 0.0
C477 C 0.40761 0.8312 0.62864 0.0
C478 C 0.3867 0.83171 0.60104 0.0
C479 C 0.18154 0.41691 0.61778 0.0
C480 C 0.15488 0.41908 0.63902 0.0
C481 C 0.18104 0.39592 0.59103 0.0
C482 C 0.15373 0.3766 0.58447 0.0
H483 H 0.2018 0.43353 0.62032 0.0
H484 H 0.20065 0.39739 0.57351 0.0
S485 S 0.07909 0.37099 0.63448 0.0
N486 N 0.10182 0.39798 0.65363 0.0
N487 N 0.10059 0.35878 0.60284 0.0
C488 C 0.12817 0.37638 0.60714 0.0
C489 C 0.12879 0.39764 0.63462 0.0
C490 C 0.61032 0.11813 0.63609 0.0
C491 C 0.59571 0.14735 0.64578 0.0
C492 C 0.6301 0.11698 0.60827 0.0
C493 C 0.63591 0.14503 0.58952 0.0
H494 H 0.60362 0.09555 0.64786 0.0
H495 H 0.63798 0.09348 0.59944 0.0
S496 S 0.60657 0.22799 0.6074 0.0
N497 N 0.59109 0.20538 0.63675 0.0
N498 N 0.62842 0.20318 0.58465 0.0
C499 C 0.6242 0.17482 0.601 0.0
C500 C 0.60396 0.17597 0.62912 0.0
C501 C 0.89367 0.60689 0.63564 0.0
C502 C 0.8643 0.5929 0.64583 0.0
C503 C 0.89461 0.62731 0.6083 0.0
C504 C 0.86621 0.6344 0.59056 0.0
H505 H 0.91636 0.59926 0.64657 0.0
H506 H 0.91809 0.63469 0.59892 0.0
S507 S 0.7829 0.60711 0.61029 0.0
N508 N 0.80589 0.59023 0.63852 0.0
N509 N 0.8077 0.6288 0.58734 0.0
C510 C 0.8364 0.62334 0.60269 0.0
C511 C 0.83546 0.60241 0.6303 0.0
C512 C 0.38341 0.40965 0.18049 0.0
C513 C 0.36551 0.41541 0.15199 0.0
C514 C 0.4106 0.38916 0.18031 0.0
C515 C 0.42081 0.37397 0.15155 0.0
H516 H 0.37828 0.42352 0.20227 0.0
H517 H 0.42579 0.38821 0.20179 0.0
S518 S 0.38008 0.37847 0.07143 0.0
N519 N 0.35776 0.40186 0.09522 0.0
N520 N 0.40914 0.36348 0.09472 0.0
C521 C 0.40117 0.37696 0.12377 0.0
C522 C 0.37339 0.39777 0.12399 0.0
C523 C 0.40752 0.62616 0.83964 0.0
C524 C 0.41957 0.63647 0.86982 0.0
C525 C 0.37995 0.60618 0.83788 0.0
C526 C 0.36343 0.59636 0.86615 0.0
H527 H 0.42153 0.63036 0.81774 0.0
H528 H 0.37346 0.59577 0.81459 0.0
S529 S 0.38269 0.62066 0.95044 0.0
N530 N 0.41099 0.63842 0.92814 0.0
N531 N 0.35875 0.6014 0.92462 0.0
C532 C 0.37312 0.60942 0.896 0.0
C533 C 0.40137 0.62944 0.89787 0.0
C534 C 0.3975 0.37624 0.88095 0.0
C535 C 0.41795 0.37095 0.85415 0.0
C536 C 0.37656 0.40326 0.88174 0.0
C537 C 0.37538 0.42537 0.85564 0.0
H538 H 0.40013 0.36153 0.90262 0.0
H539 H 0.36395 0.40878 0.90418 0.0
S540 S 0.42061 0.41914 0.77821 0.0
N541 N 0.43296 0.38753 0.79961 0.0
N542 N 0.39351 0.43794 0.80105 0.0
C543 C 0.39318 0.41821 0.82753 0.0
C544 C 0.41459 0.39106 0.82683 0.0
C545 C 0.63077 0.40364 0.83558 0.0
C546 C 0.6464 0.41298 0.86448 0.0
C547 C 0.60331 0.38346 0.83621 0.0
C548 C 0.59052 0.37233 0.86581 0.0
H549 H 0.63779 0.41464 0.81271 0.0
H550 H 0.58986 0.37981 0.81388 0.0
S551 S 0.62505 0.3866 0.94769 0.0
N552 N 0.64951 0.40666 0.92294 0.0
N553 N 0.59757 0.36906 0.92427 0.0
C554 C 0.60796 0.37875 0.89446 0.0
C555 C 0.63603 0.39912 0.89378 0.0
C556 C 0.63214 0.60543 0.88607 0.0
C557 C 0.6343 0.58483 0.85883 0.0
C558 C 0.61135 0.63257 0.88602 0.0
C559 C 0.59212 0.63962 0.85875 0.0
H560 H 0.64381 0.59856 0.90864 0.0
H561 H 0.60786 0.64597 0.9084 0.0
S562 S 0.59205 0.5957 0.78027 0.0
N563 N 0.61816 0.57543 0.80303 0.0
N564 N 0.57912 0.62621 0.80288 0.0
C565 C 0.59646 0.62106 0.83049 0.0
C566 C 0.61764 0.59369 0.83051 0.0
C567 C 0.63514 0.60815 0.12009 0.0
C568 C 0.6448 0.5945 0.14979 0.0
C569 C 0.60752 0.62809 0.11834 0.0
C570 C 0.58902 0.63512 0.14624 0.0
H571 H 0.64679 0.60063 0.09771 0.0
H572 H 0.59869 0.6352 0.09459 0.0
S573 S 0.60711 0.60879 0.23022 0.0
N574 N 0.63609 0.59209 0.20803 0.0
N575 N 0.58445 0.62994 0.20472 0.0
C576 C 0.60053 0.62443 0.17642 0.0
C577 C 0.62841 0.60391 0.17818 0.0
C578 C 0.38757 0.59835 0.17598 0.0
C579 C 0.3743 0.58762 0.14647 0.0
C580 C 0.40833 0.62536 0.17693 0.0
C581 C 0.41615 0.6426 0.14849 0.0
H582 H 0.38486 0.58373 0.19772 0.0
H583 H 0.42072 0.63091 0.19949 0.0
S584 S 0.38468 0.62649 0.06592 0.0
N585 N 0.368 0.59799 0.08876 0.0
N586 N 0.40656 0.64918 0.09077 0.0
C587 C 0.40049 0.63413 0.11951 0.0
C588 C 0.37958 0.60647 0.11847 0.0
C589 C 0.62392 0.40971 0.17226 0.0
C590 C 0.63485 0.42224 0.14248 0.0
C591 C 0.60333 0.38255 0.17319 0.0
C592 C 0.59348 0.36694 0.14444 0.0
H593 H 0.62828 0.42302 0.19454 0.0
H594 H 0.5927 0.37555 0.19625 0.0
S595 S 0.61841 0.38819 0.06079 0.0
N596 N 0.63673 0.41538 0.08394 0.0
N597 N 0.59856 0.36392 0.08587 0.0
C598 C 0.60682 0.37725 0.11491 0.0
C599 C 0.62748 0.40506 0.1139 0.0
C600 C 0.02769 0.33858 0.53453 0.0
C601 C 0.03881 0.33083 0.50318 0.0
C602 C 0.9944 0.3387 0.54186 0.0
C603 C 0.97114 0.3306 0.51821 0.0
H604 H 0.04467 0.34699 0.55281 0.0
H605 H 0.9867 0.34718 0.56557 0.0
S606 S 0.98814 0.30675 0.433 0.0
N607 N 0.0244 0.31362 0.44877 0.0
N608 N 0.96176 0.31286 0.46266 0.0
C609 C 0.98217 0.32058 0.48742 0.0
C610 C 0.01608 0.32104 0.47983 0.0
C611 C 0.66839 0.02592 0.53338 0.0
C612 C 0.67568 0.03698 0.50189 0.0
C613 C 0.66803 0.99266 0.5407 0.0
C614 C 0.67552 0.96936 0.51691 0.0
H615 H 0.66055 0.04297 0.55184 0.0
H616 H 0.65999 0.98502 0.56458 0.0
S617 S 0.6983 0.98615 0.43135 0.0
N618 N 0.69187 0.02246 0.44718 0.0
N619 N 0.69239 0.95983 0.46111 0.0
C620 C 0.6851 0.98029 0.48594 0.0
C621 C 0.6848 0.01418 0.47834 0.0
C622 C 0.98101 0.68062 0.52542 0.0
C623 C 0.97064 0.67358 0.49358 0.0
C624 C 0.01422 0.6807 0.53347 0.0
C625 C 0.03796 0.67477 0.50969 0.0
H626 H 0.96333 0.68338 0.54473 0.0
H627 H 0.02125 0.68359 0.55866 0.0
S628 S 0.0235 0.65829 0.42242 0.0
N629 N 0.98673 0.66245 0.43799 0.0
N630 N 0.04908 0.66406 0.45279 0.0
C631 C 0.02795 0.67011 0.47742 0.0
C632 C 0.99425 0.66918 0.46942 0.0
C633 C 0.34362 0.01564 0.53977 0.0
C634 C 0.33622 0.03849 0.51551 0.0
C635 C 0.34337 0.98225 0.53309 0.0
C636 C 0.33625 0.97062 0.5018 0.0
H637 H 0.35149 0.02372 0.56355 0.0
H638 H 0.35103 0.96553 0.55194 0.0
S639 S 0.31416 0.02016 0.43013 0.0
N640 N 0.31989 0.04703 0.4594 0.0
N641 N 0.32038 0.98415 0.44673 0.0
C642 C 0.32726 0.99298 0.47775 0.0
C643 C 0.32693 0.02702 0.48468 0.0
C644 C 0.53862 0.99471 0.33656 0.0
C645 C 0.5146 0.97092 0.33188 0.0
C646 C 0.53077 0.02784 0.33604 0.0
C647 C 0.49854 0.0382 0.33165 0.0
H648 H 0.56324 0.9876 0.34261 0.0
H649 H 0.54959 0.04534 0.3416 0.0
S650 S 0.42715 0.98586 0.31635 0.0
N651 N 0.45773 0.96013 0.32021 0.0
N652 N 0.44287 0.02253 0.3207 0.0
C653 C 0.47463 0.01487 0.32524 0.0
C654 C 0.48273 0.98113 0.32492 0.0
C655 C 0.99432 0.47948 0.32663 0.0
C656 C 0.97121 0.50227 0.3371 0.0
C657 C 0.02766 0.48719 0.32653 0.0
C658 C 0.03875 0.51761 0.33765 0.0
H659 H 0.98681 0.45505 0.32039 0.0
H660 H 0.04495 0.46835 0.3203 0.0
S661 S 0.98744 0.58622 0.36506 0.0
N662 N 0.9613 0.55707 0.35631 0.0
N663 N 0.02379 0.57119 0.35707 0.0
C664 C 0.01562 0.54104 0.34643 0.0
C665 C 0.98185 0.53342 0.34596 0.0
C666 C 0.52864 0.98053 0.68099 0.0
C667 C 0.496 0.97041 0.67962 0.0
C668 C 0.53682 0.01367 0.68011 0.0
C669 C 0.51258 0.03765 0.67887 0.0
H670 H 0.54799 0.96273 0.67991 0.0
H671 H 0.56219 0.02051 0.67855 0.0
S672 S 0.42365 0.02375 0.67744 0.0
N673 N 0.43946 0.98687 0.67839 0.0
N674 N 0.45473 0.04914 0.67838 0.0
C675 C 0.4799 0.02785 0.67992 0.0
C676 C 0.47161 0.99417 0.67987 0.0
C677 C 0.99331 0.52318 0.68613 0.0
C678 C 0.97131 0.50177 0.67119 0.0
C679 C 0.02691 0.51648 0.68623 0.0
C680 C 0.03935 0.48843 0.67098 0.0
H681 H 0.98479 0.54608 0.69587 0.0
H682 H 0.04337 0.53457 0.69593 0.0
S683 S 0.99112 0.42327 0.63198 0.0
N684 N 0.96382 0.45022 0.64371 0.0
N685 N 0.02661 0.43783 0.64362 0.0
C686 C 0.0172 0.46595 0.6581 0.0
C687 C 0.98325 0.47262 0.65821 0.0
C688 C 0.34248 0.47679 0.98279 0.0
C689 C 0.33482 0.50816 0.97174 0.0
C690 C 0.34268 0.46941 0.01606 0.0
C691 C 0.33473 0.49305 0.03937 0.0
H692 H 0.35053 0.45843 0.96573 0.0
H693 H 0.35087 0.44559 0.02371 0.0
S694 S 0.31124 0.57837 0.02259 0.0
N695 N 0.31794 0.56264 0.98628 0.0
N696 N 0.31735 0.54866 0.04891 0.0
C697 C 0.32496 0.52394 0.02844 0.0
C698 C 0.32533 0.53157 0.99454 0.0
C699 C 0.46861 0.35714 0.9922 0.0
C700 C 0.48932 0.34118 0.97021 0.0
C701 C 0.47521 0.35749 0.02554 0.0
C702 C 0.50269 0.3418 0.03832 0.0
H703 H 0.44809 0.37106 0.98337 0.0
H704 H 0.45954 0.3716 0.04131 0.0
S705 S 0.56352 0.29474 0.9918 0.0
N706 N 0.53757 0.3076 0.96398 0.0
N707 N 0.54976 0.30826 0.02702 0.0
C708 C 0.5225 0.32396 0.01712 0.0
C709 C 0.51581 0.32358 0.98293 0.0
C710 C 0.66738 0.53232 0.98214 0.0
C711 C 0.67465 0.50071 0.97154 0.0
C712 C 0.66733 0.54014 0.01529 0.0
C713 C 0.6751 0.51673 0.0389 0.0
H714 H 0.65952 0.55054 0.96483 0.0
H715 H 0.6594 0.56413 0.02262 0.0
S716 S 0.69784 0.43099 0.02327 0.0
N717 N 0.69108 0.44627 0.98676 0.0
N718 N 0.69207 0.4611 0.04918 0.0
C719 C 0.68456 0.4856 0.02839 0.0
C720 C 0.68398 0.47751 0.99462 0.0
C721 C 0.48256 0.68036 0.98283 0.0
C722 C 0.51508 0.67785 0.97252 0.0
C723 C 0.47455 0.68 0.01602 0.0
C724 C 0.49891 0.67821 0.03985 0.0
H725 H 0.46306 0.67969 0.96515 0.0
H726 H 0.44919 0.67911 0.02303 0.0
S727 S 0.58766 0.67392 0.0254 0.0
N728 N 0.57166 0.67503 0.98861 0.0
N729 N 0.55679 0.67606 0.05099 0.0
C730 C 0.53155 0.67821 0.02983 0.0
C731 C 0.53962 0.6776 0.99611 0.0
C732 C 0.20314 0.22477 0.5059 0.0
C733 C 0.21095 0.25798 0.50313 0.0
C734 C 0.22745 0.20069 0.50537 0.0
C735 C 0.26054 0.20892 0.50235 0.0
H736 H 0.17803 0.21725 0.50819 0.0
H737 H 0.22028 0.17551 0.50787 0.0
S738 S 0.294 0.2923 0.49397 0.0
N739 N 0.2544 0.29764 0.497 0.0
N740 N 0.2997 0.25271 0.49607 0.0
C741 C 0.26862 0.24202 0.49948 0.0
C742 C 0.24397 0.26643 0.49987 0.0
C743 C 0.78339 0.20001 0.50687 0.0
C744 C 0.75036 0.20817 0.5031 0.0
C745 C 0.80785 0.22395 0.50604 0.0
C746 C 0.80019 0.25699 0.50161 0.0
H747 H 0.79048 0.17493 0.51038 0.0
H748 H 0.83285 0.21655 0.50954 0.0
S749 S 0.71761 0.29122 0.48941 0.0
N750 N 0.71157 0.25189 0.49399 0.0
N751 N 0.75722 0.29644 0.49241 0.0
C752 C 0.76732 0.2654 0.49745 0.0
C753 C 0.74251 0.24115 0.49822 0.0
C754 C 0.76902 0.74315 0.50553 0.0
C755 C 0.80229 0.75099 0.50662 0.0
C756 C 0.74507 0.76733 0.50505 0.0
C757 C 0.75324 0.80052 0.50533 0.0
H758 H 0.76125 0.71802 0.50501 0.0
H759 H 0.71986 0.75981 0.50444 0.0
S760 S 0.83682 0.83429 0.50817 0.0
N761 N 0.84219 0.79455 0.50807 0.0
N762 N 0.79713 0.84003 0.50696 0.0
C763 C 0.78641 0.80883 0.50631 0.0
C764 C 0.8109 0.7841 0.50708 0.0
C765 C 0.23958 0.7457 0.50742 0.0
C766 C 0.20638 0.75374 0.50608 0.0
C767 C 0.26368 0.76973 0.50741 0.0
C768 C 0.25572 0.80295 0.50647 0.0
H769 H 0.24716 0.72053 0.50844 0.0
H770 H 0.28885 0.76208 0.50823 0.0
S771 S 0.17239 0.83718 0.5029 0.0
N772 N 0.16674 0.79748 0.50373 0.0
N773 N 0.21211 0.8427 0.50404 0.0
C774 C 0.22262 0.81146 0.50528 0.0
C775 C 0.19797 0.78687 0.50492 0.0
C776 C 0.50567 0.23969 0.26191 0.0
C777 C 0.50634 0.20649 0.25391 0.0
C778 C 0.50541 0.26375 0.23784 0.0
C779 C 0.50546 0.25578 0.20459 0.0
H780 H 0.50532 0.24732 0.28709 0.0
H781 H 0.50509 0.28891 0.24551 0.0
S782 S 0.50709 0.17244 0.17039 0.0
N783 N 0.50711 0.16682 0.21012 0.0
N784 N 0.50636 0.21216 0.16483 0.0
C785 C 0.50601 0.22268 0.1961 0.0
C786 C 0.50661 0.19805 0.22073 0.0
C787 C 0.77009 0.502 0.26429 0.0
C788 C 0.80331 0.50256 0.25616 0.0
C789 C 0.74594 0.50221 0.24031 0.0
C790 C 0.75383 0.50259 0.20704 0.0
H791 H 0.76254 0.50151 0.2895 0.0
H792 H 0.72078 0.50209 0.24804 0.0
S793 S 0.83721 0.50367 0.17259 0.0
N794 N 0.84289 0.50332 0.2123 0.0
N795 N 0.79745 0.50339 0.16716 0.0
C796 C 0.78696 0.50289 0.19845 0.0
C797 C 0.81167 0.50303 0.22299 0.0
C798 C 0.50442 0.78276 0.20366 0.0
C799 C 0.50523 0.74954 0.21177 0.0
C800 C 0.50368 0.80691 0.22785 0.0
C801 C 0.50403 0.79878 0.2611 0.0
H802 H 0.50392 0.79022 0.17843 0.0
H803 H 0.50328 0.83213 0.22039 0.0
S804 S 0.50643 0.71526 0.29527 0.0
N805 N 0.50654 0.70986 0.25557 0.0
N806 N 0.50524 0.75493 0.30074 0.0
C807 C 0.50492 0.76562 0.26948 0.0
C808 C 0.50552 0.74111 0.24493 0.0
C809 C 0.23951 0.50116 0.26518 0.0
C810 C 0.20634 0.50353 0.25729 0.0
C811 C 0.26359 0.50179 0.24113 0.0
C812 C 0.25571 0.50509 0.208 0.0
H813 H 0.24709 0.49875 0.29026 0.0
H814 H 0.28868 0.49957 0.24873 0.0
S815 S 0.17245 0.51302 0.17426 0.0
N816 N 0.16679 0.50977 0.21386 0.0
N817 N 0.21213 0.51112 0.16857 0.0
C818 C 0.22263 0.50773 0.19967 0.0
C819 C 0.19796 0.50683 0.22428 0.0
C820 C 0.50524 0.78215 0.80885 0.0
C821 C 0.50389 0.74894 0.80076 0.0
C822 C 0.5058 0.80634 0.78466 0.0
C823 C 0.50475 0.79826 0.75142 0.0
H824 H 0.50629 0.78958 0.83407 0.0
H825 H 0.50666 0.83154 0.79211 0.0
S826 S 0.5008 0.71482 0.71728 0.0
N827 N 0.50134 0.70936 0.75698 0.0
N828 N 0.50232 0.75447 0.71181 0.0
C829 C 0.50331 0.76512 0.74305 0.0
C830 C 0.50288 0.74058 0.76761 0.0
C831 C 0.26314 0.50689 0.7703 0.0
C832 C 0.25483 0.5069 0.80345 0.0
C833 C 0.23931 0.50679 0.74602 0.0
C834 C 0.20597 0.50701 0.7537 0.0
H835 H 0.2884 0.50685 0.76288 0.0
H836 H 0.24725 0.50648 0.72093 0.0
S837 S 0.17106 0.50793 0.83687 0.0
N838 N 0.21075 0.50759 0.84279 0.0
N839 N 0.16584 0.50763 0.79709 0.0
C840 C 0.19719 0.5073 0.78678 0.0
C841 C 0.2216 0.50711 0.81163 0.0
C842 C 0.5078 0.24017 0.7464 0.0
C843 C 0.50598 0.20704 0.75459 0.0
C844 C 0.50776 0.26438 0.77031 0.0
C845 C 0.50622 0.25665 0.80361 0.0
H846 H 0.5092 0.24763 0.7212 0.0
H847 H 0.50892 0.28947 0.76248 0.0
S848 S 0.50151 0.17355 0.83826 0.0
N849 N 0.50278 0.1677 0.79859 0.0
N850 N 0.50293 0.21328 0.84358 0.0
C851 C 0.50463 0.22361 0.81228 0.0
C852 C 0.50439 0.19883 0.78779 0.0
C853 C 0.74675 0.50425 0.77055 0.0
C854 C 0.75478 0.50331 0.80375 0.0
C855 C 0.77082 0.50427 0.74647 0.0
C856 C 0.80405 0.50293 0.75443 0.0
H857 H 0.72157 0.50506 0.76296 0.0
H858 H 0.76317 0.5053 0.72131 0.0
S859 S 0.83818 0.49958 0.83781 0.0
N860 N 0.79847 0.50079 0.84342 0.0
N861 N 0.84377 0.50047 0.79808 0.0
C862 C 0.81252 0.50174 0.78754 0.0
C863 C 0.78791 0.50211 0.81219 0.0
loop_
_geom_bond_atom_site_label_1
_geom_bond_atom_site_label_2
_geom_bond_distance
_geom_bond_site_symmetry_2
_ccdc_geom_bond_type
Co0 O1 2.216 . S
Co0 O2 2.091 . S
Co0 O4 2.004 . S
Co0 O10 2.021 . S
Co0 O12 2.137 . S
Co0 O13 2.244 . S
O1 Co0 2.216 . S
O1 C8 1.247 . S
O2 Co0 2.091 . S
O2 C8 1.261 . S
C3 O12 1.247 . S
C3 O13 1.272 . S
O4 Co0 2.004 . S
O4 C9 1.259 . S
Co5 O6 2.061 . S
Co5 O11 2.052 . S
Co5 O13 2.135 . S
O6 Co5 2.061 . S
O6 C9 1.235 . S
C7 O10 1.238 . S
C7 O11 1.241 . S
C8 O1 1.247 . S
C8 O2 1.261 . S
C9 O4 1.259 . S
C9 O6 1.235 . S
O10 Co0 2.021 . S
O10 C7 1.238 . S
O11 Co5 2.052 . S
O11 C7 1.241 . S
O12 Co0 2.137 . S
O12 C3 1.247 . S
O13 Co0 2.244 . S
O13 C3 1.272 . S
O13 Co5 2.135 . S
Co14 O15 2.216 . S
Co14 O16 2.091 . S
Co14 O18 2.004 . S
Co14 O24 2.021 . S
Co14 O26 2.137 . S
Co14 O27 2.244 . S
O15 Co14 2.216 . S
O15 C22 1.247 . S
O16 Co14 2.091 . S
O16 C22 1.261 . S
C17 O26 1.247 . S
C17 O27 1.272 . S
O18 Co14 2.004 . S
O18 C23 1.259 . S
Co19 O20 2.061 . S
Co19 O25 2.052 . S
Co19 O27 2.135 . S
O20 Co19 2.061 . S
O20 C23 1.235 . S
C21 O24 1.238 . S
C21 O25 1.241 . S
C22 O15 1.247 . S
C22 O16 1.261 . S
C23 O18 1.259 . S
C23 O20 1.235 . S
O24 Co14 2.021 . S
O24 C21 1.238 . S
O25 Co19 2.052 . S
O25 C21 1.241 . S
O26 Co14 2.137 . S
O26 C17 1.247 . S
O27 Co14 2.244 . S
O27 C17 1.272 . S
O27 Co19 2.135 . S
Co28 O29 2.216 . S
Co28 O30 2.091 . S
Co28 O32 2.004 . S
Co28 O38 2.021 . S
Co28 O40 2.137 . S
Co28 O41 2.244 . S
O29 Co28 2.216 . S
O29 C36 1.247 . S
O30 Co28 2.091 . S
O30 C36 1.261 . S
C31 O40 1.247 . S
C31 O41 1.272 . S
O32 Co28 2.004 . S
O32 C37 1.259 . S
Co33 O34 2.061 . S
Co33 O39 2.052 . S
Co33 O41 2.135 . S
O34 Co33 2.061 . S
O34 C37 1.235 . S
C35 O38 1.238 . S
C35 O39 1.241 . S
C36 O29 1.247 . S
C36 O30 1.261 . S
C37 O32 1.259 . S
C37 O34 1.235 . S
O38 Co28 2.021 . S
O38 C35 1.238 . S
O39 Co33 2.052 . S
O39 C35 1.241 . S
O40 Co28 2.137 . S
O40 C31 1.247 . S
O41 Co28 2.244 . S
O41 C31 1.272 . S
O41 Co33 2.135 . S
Co42 O43 2.216 . S
Co42 O44 2.091 . S
Co42 O46 2.004 . S
Co42 O52 2.021 . S
Co42 O54 2.137 . S
Co42 O55 2.244 . S
O43 Co42 2.216 . S
O43 C50 1.247 . S
O44 Co42 2.091 . S
O44 C50 1.261 . S
C45 O54 1.247 . S
C45 O55 1.272 . S
O46 Co42 2.004 . S
O46 C51 1.259 . S
Co47 O48 2.061 . S
Co47 O53 2.052 . S
Co47 O55 2.135 . S
O48 Co47 2.061 . S
O48 C51 1.235 . S
C49 O52 1.238 . S
C49 O53 1.241 . S
C50 O43 1.247 . S
C50 O44 1.261 . S
C51 O46 1.259 . S
C51 O48 1.235 . S
O52 Co42 2.021 . S
O52 C49 1.238 . S
O53 Co47 2.052 . S
O53 C49 1.241 . S
O54 Co42 2.137 . S
O54 C45 1.247 . S
O55 Co42 2.244 . S
O55 C45 1.272 . S
O55 Co47 2.135 . S
Co56 O57 2.216 . S
Co56 O58 2.091 . S
Co56 O60 2.004 . S
Co56 O66 2.021 . S
Co56 O68 2.137 . S
Co56 O69 2.244 . S
O57 Co56 2.216 . S
O57 C64 1.247 . S
O58 Co56 2.091 . S
O58 C64 1.261 . S
C59 O68 1.247 . S
C59 O69 1.272 . S
O60 Co56 2.004 . S
O60 C65 1.259 . S
Co61 O62 2.061 . S
Co61 O67 2.052 . S
Co61 O69 2.135 . S
O62 Co61 2.061 . S
O62 C65 1.235 . S
C63 O66 1.238 . S
C63 O67 1.241 . S
C64 O57 1.247 . S
C64 O58 1.261 . S
C65 O60 1.259 . S
C65 O62 1.235 . S
O66 Co56 2.021 . S
O66 C63 1.238 . S
O67 Co61 2.052 . S
O67 C63 1.241 . S
O68 Co56 2.137 . S
O68 C59 1.247 . S
O69 Co56 2.244 . S
O69 C59 1.272 . S
O69 Co61 2.135 . S
Co70 O71 2.216 . S
Co70 O72 2.091 . S
Co70 O74 2.004 . S
Co70 O80 2.021 . S
Co70 O82 2.137 . S
Co70 O83 2.244 . S
O71 Co70 2.216 . S
O71 C78 1.247 . S
O72 Co70 2.091 . S
O72 C78 1.261 . S
C73 O82 1.247 . S
C73 O83 1.272 . S
O74 Co70 2.004 . S
O74 C79 1.259 . S
Co75 O76 2.061 . S
Co75 O81 2.052 . S
Co75 O83 2.135 . S
O76 Co75 2.061 . S
O76 C79 1.235 . S
C77 O80 1.238 . S
C77 O81 1.241 . S
C78 O71 1.247 . S
C78 O72 1.261 . S
C79 O74 1.259 . S
C79 O76 1.235 . S
O80 Co70 2.021 . S
O80 C77 1.238 . S
O81 Co75 2.052 . S
O81 C77 1.241 . S
O82 Co70 2.137 . S
O82 C73 1.247 . S
O83 Co70 2.244 . S
O83 C73 1.272 . S
O83 Co75 2.135 . S
Co84 O85 2.216 . S
Co84 O86 2.091 . S
Co84 O88 2.004 . S
Co84 O94 2.021 . S
Co84 O96 2.137 . S
Co84 O97 2.244 . S
O85 Co84 2.216 . S
O85 C92 1.247 . S
O86 Co84 2.091 . S
O86 C92 1.261 . S
C87 O96 1.247 . S
C87 O97 1.272 . S
O88 Co84 2.004 . S
O88 C93 1.259 . S
Co89 O90 2.061 . S
Co89 O95 2.052 . S
Co89 O97 2.135 . S
O90 Co89 2.061 . S
O90 C93 1.235 . S
C91 O94 1.238 . S
C91 O95 1.241 . S
C92 O85 1.247 . S
C92 O86 1.261 . S
C93 O88 1.259 . S
C93 O90 1.235 . S
O94 Co84 2.021 . S
O94 C91 1.238 . S
O95 Co89 2.052 . S
O95 C91 1.241 . S
O96 Co84 2.137 . S
O96 C87 1.247 . S
O97 Co84 2.244 . S
O97 C87 1.272 . S
O97 Co89 2.135 . S
Co98 O99 2.216 . S
Co98 O100 2.091 . S
Co98 O102 2.004 . S
Co98 O108 2.021 . S
Co98 O110 2.137 . S
Co98 O111 2.244 . S
O99 Co98 2.216 . S
O99 C106 1.247 . S
O100 Co98 2.091 . S
O100 C106 1.261 . S
C101 O110 1.247 . S
C101 O111 1.272 . S
O102 Co98 2.004 . S
O102 C107 1.259 . S
Co103 O104 2.061 . S
Co103 O109 2.052 . S
Co103 O111 2.135 . S
O104 Co103 2.061 . S
O104 C107 1.235 . S
C105 O108 1.238 . S
C105 O109 1.241 . S
C106 O99 1.247 . S
C106 O100 1.261 . S
C107 O102 1.259 . S
C107 O104 1.235 . S
O108 Co98 2.021 . S
O108 C105 1.238 . S
O109 Co103 2.052 . S
O109 C105 1.241 . S
O110 Co98 2.137 . S
O110 C101 1.247 . S
O111 Co98 2.244 . S
O111 C101 1.272 . S
O111 Co103 2.135 . S
Co112 O113 2.216 . S
Co112 O114 2.091 . S
Co112 O116 2.004 . S
Co112 O122 2.021 . S
Co112 O124 2.137 . S
Co112 O125 2.244 . S
O113 Co112 2.216 . S
O113 C120 1.247 . S
O114 Co112 2.091 . S
O114 C120 1.261 . S
C115 O124 1.247 . S
C115 O125 1.272 . S
O116 Co112 2.004 . S
O116 C121 1.259 . S
Co117 O118 2.061 . S
Co117 O123 2.052 . S
Co117 O125 2.135 . S
O118 Co117 2.061 . S
O118 C121 1.235 . S
C119 O122 1.238 . S
C119 O123 1.241 . S
C120 O113 1.247 . S
C120 O114 1.261 . S
C121 O116 1.259 . S
C121 O118 1.235 . S
O122 Co112 2.021 . S
O122 C119 1.238 . S
O123 Co117 2.052 . S
O123 C119 1.241 . S
O124 Co112 2.137 . S
O124 C115 1.247 . S
O125 Co112 2.244 . S
O125 C115 1.272 . S
O125 Co117 2.135 . S
Co126 O127 2.216 . S
Co126 O128 2.091 . S
Co126 O130 2.004 . S
Co126 O136 2.021 . S
Co126 O138 2.137 . S
Co126 O139 2.244 . S
O127 Co126 2.216 . S
O127 C134 1.247 . S
O128 Co126 2.091 . S
O128 C134 1.261 . S
C129 O138 1.247 . S
C129 O139 1.272 . S
O130 Co126 2.004 . S
O130 C135 1.259 . S
Co131 O132 2.061 . S
Co131 O137 2.052 . S
Co131 O139 2.135 . S
O132 Co131 2.061 . S
O132 C135 1.235 . S
C133 O136 1.238 . S
C133 O137 1.241 . S
C134 O127 1.247 . S
C134 O128 1.261 . S
C135 O130 1.259 . S
C135 O132 1.235 . S
O136 Co126 2.021 . S
O136 C133 1.238 . S
O137 Co131 2.052 . S
O137 C133 1.241 . S
O138 Co126 2.137 . S
O138 C129 1.247 . S
O139 Co126 2.244 . S
O139 C129 1.272 . S
O139 Co131 2.135 . S
Co140 O141 2.216 . S
Co140 O142 2.091 . S
Co140 O144 2.004 . S
Co140 O150 2.021 . S
Co140 O152 2.137 . S
Co140 O153 2.244 . S
O141 Co140 2.216 . S
O141 C148 1.247 . S
O142 Co140 2.091 . S
O142 C148 1.261 . S
C143 O152 1.247 . S
C143 O153 1.272 . S
O144 Co140 2.004 . S
O144 C149 1.259 . S
Co145 O146 2.061 . S
Co145 O151 2.052 . S
Co145 O153 2.135 . S
O146 Co145 2.061 . S
O146 C149 1.235 . S
C147 O150 1.238 . S
C147 O151 1.241 . S
C148 O141 1.247 . S
C148 O142 1.261 . S
C149 O144 1.259 . S
C149 O146 1.235 . S
O150 Co140 2.021 . S
O150 C147 1.238 . S
O151 Co145 2.052 . S
O151 C147 1.241 . S
O152 Co140 2.137 . S
O152 C143 1.247 . S
O153 Co140 2.244 . S
O153 C143 1.272 . S
O153 Co145 2.135 . S
Co154 O155 2.216 . S
Co154 O156 2.091 . S
Co154 O158 2.004 . S
Co154 O164 2.021 . S
Co154 O166 2.137 . S
Co154 O167 2.244 . S
O155 Co154 2.216 . S
O155 C162 1.247 . S
O156 Co154 2.091 . S
O156 C162 1.261 . S
C157 O166 1.247 . S
C157 O167 1.272 . S
O158 Co154 2.004 . S
O158 C163 1.259 . S
Co159 O160 2.061 . S
Co159 O165 2.052 . S
Co159 O167 2.135 . S
O160 Co159 2.061 . S
O160 C163 1.235 . S
C161 O164 1.238 . S
C161 O165 1.241 . S
C162 O155 1.247 . S
C162 O156 1.261 . S
C163 O158 1.259 . S
C163 O160 1.235 . S
O164 Co154 2.021 . S
O164 C161 1.238 . S
O165 Co159 2.052 . S
O165 C161 1.241 . S
O166 Co154 2.137 . S
O166 C157 1.247 . S
O167 Co154 2.244 . S
O167 C157 1.272 . S
O167 Co159 2.135 . S
Co168 O169 2.216 . S
Co168 O170 2.091 . S
Co168 O172 2.004 . S
Co168 O178 2.021 . S
Co168 O180 2.137 . S
Co168 O181 2.244 . S
O169 Co168 2.216 . S
O169 C176 1.247 . S
O170 Co168 2.091 . S
O170 C176 1.261 . S
C171 O180 1.247 . S
C171 O181 1.272 . S
O172 Co168 2.004 . S
O172 C177 1.259 . S
Co173 O174 2.061 . S
Co173 O179 2.052 . S
Co173 O181 2.135 . S
O174 Co173 2.061 . S
O174 C177 1.235 . S
C175 O178 1.238 . S
C175 O179 1.241 . S
C176 O169 1.247 . S
C176 O170 1.261 . S
C177 O172 1.259 . S
C177 O174 1.235 . S
O178 Co168 2.021 . S
O178 C175 1.238 . S
O179 Co173 2.052 . S
O179 C175 1.241 . S
O180 Co168 2.137 . S
O180 C171 1.247 . S
O181 Co168 2.244 . S
O181 C171 1.272 . S
O181 Co173 2.135 . S
Co182 O183 2.216 . S
Co182 O184 2.091 . S
Co182 O186 2.004 . S
Co182 O192 2.021 . S
Co182 O194 2.137 . S
Co182 O195 2.244 . S
O183 Co182 2.216 . S
O183 C190 1.247 . S
O184 Co182 2.091 . S
O184 C190 1.261 . S
C185 O194 1.247 . S
C185 O195 1.272 . S
O186 Co182 2.004 . S
O186 C191 1.259 . S
Co187 O188 2.061 . S
Co187 O193 2.052 . S
Co187 O195 2.135 . S
O188 Co187 2.061 . S
O188 C191 1.235 . S
C189 O192 1.238 . S
C189 O193 1.241 . S
C190 O183 1.247 . S
C190 O184 1.261 . S
C191 O186 1.259 . S
C191 O188 1.235 . S
O192 Co182 2.021 . S
O192 C189 1.238 . S
O193 Co187 2.052 . S
O193 C189 1.241 . S
O194 Co182 2.137 . S
O194 C185 1.247 . S
O195 Co182 2.244 . S
O195 C185 1.272 . S
O195 Co187 2.135 . S
Co196 O197 2.216 . S
Co196 O198 2.091 . S
Co196 O200 2.004 . S
Co196 O206 2.021 . S
Co196 O208 2.137 . S
Co196 O209 2.244 . S
O197 Co196 2.216 . S
O197 C204 1.247 . S
O198 Co196 2.091 . S
O198 C204 1.261 . S
C199 O208 1.247 . S
C199 O209 1.272 . S
O200 Co196 2.004 . S
O200 C205 1.259 . S
Co201 O202 2.061 . S
Co201 O207 2.052 . S
Co201 O209 2.135 . S
O202 Co201 2.061 . S
O202 C205 1.235 . S
C203 O206 1.238 . S
C203 O207 1.241 . S
C204 O197 1.247 . S
C204 O198 1.261 . S
C205 O200 1.259 . S
C205 O202 1.235 . S
O206 Co196 2.021 . S
O206 C203 1.238 . S
O207 Co201 2.052 . S
O207 C203 1.241 . S
O208 Co196 2.137 . S
O208 C199 1.247 . S
O209 Co196 2.244 . S
O209 C199 1.272 . S
O209 Co201 2.135 . S
Co210 O211 2.216 . S
Co210 O212 2.091 . S
Co210 O214 2.004 . S
Co210 O220 2.021 . S
Co210 O222 2.137 . S
Co210 O223 2.244 . S
O211 Co210 2.216 . S
O211 C218 1.247 . S
O212 Co210 2.091 . S
O212 C218 1.261 . S
C213 O222 1.247 . S
C213 O223 1.272 . S
O214 Co210 2.004 . S
O214 C219 1.259 . S
Co215 O216 2.061 . S
Co215 O221 2.052 . S
Co215 O223 2.135 . S
O216 Co215 2.061 . S
O216 C219 1.235 . S
C217 O220 1.238 . S
C217 O221 1.241 . S
C218 O211 1.247 . S
C218 O212 1.261 . S
C219 O214 1.259 . S
C219 O216 1.235 . S
O220 Co210 2.021 . S
O220 C217 1.238 . S
O221 Co215 2.052 . S
O221 C217 1.241 . S
O222 Co210 2.137 . S
O222 C213 1.247 . S
O223 Co210 2.244 . S
O223 C213 1.272 . S
O223 Co215 2.135 . S
Co224 O225 2.216 . S
Co224 O226 2.091 . S
Co224 O228 2.004 . S
Co224 O234 2.021 . S
Co224 O236 2.137 . S
Co224 O237 2.244 . S
O225 Co224 2.216 . S
O225 C232 1.247 . S
O226 Co224 2.091 . S
O226 C232 1.261 . S
C227 O236 1.247 . S
C227 O237 1.272 . S
O228 Co224 2.004 . S
O228 C233 1.259 . S
Co229 O230 2.061 . S
Co229 O235 2.052 . S
Co229 O237 2.135 . S
O230 Co229 2.061 . S
O230 C233 1.235 . S
C231 O234 1.238 . S
C231 O235 1.241 . S
C232 O225 1.247 . S
C232 O226 1.261 . S
C233 O228 1.259 . S
C233 O230 1.235 . S
O234 Co224 2.021 . S
O234 C231 1.238 . S
O235 Co229 2.052 . S
O235 C231 1.241 . S
O236 Co224 2.137 . S
O236 C227 1.247 . S
O237 Co224 2.244 . S
O237 C227 1.272 . S
O237 Co229 2.135 . S
Co238 O239 2.216 . S
Co238 O240 2.091 . S
Co238 O242 2.004 . S
Co238 O248 2.021 . S
Co238 O250 2.137 . S
Co238 O251 2.244 . S
O239 Co238 2.216 . S
O239 C246 1.247 . S
O240 Co238 2.091 . S
O240 C246 1.261 . S
C241 O250 1.247 . S
C241 O251 1.272 . S
O242 Co238 2.004 . S
O242 C247 1.259 . S
Co243 O244 2.061 . S
Co243 O249 2.052 . S
Co243 O251 2.135 . S
O244 Co243 2.061 . S
O244 C247 1.235 . S
C245 O248 1.238 . S
C245 O249 1.241 . S
C246 O239 1.247 . S
C246 O240 1.261 . S
C247 O242 1.259 . S
C247 O244 1.235 . S
O248 Co238 2.021 . S
O248 C245 1.238 . S
O249 Co243 2.052 . S
O249 C245 1.241 . S
O250 Co238 2.137 . S
O250 C241 1.247 . S
O251 Co238 2.244 . S
O251 C241 1.272 . S
O251 Co243 2.135 . S
Co252 O253 2.216 . S
Co252 O254 2.091 . S
Co252 O256 2.004 . S
Co252 O262 2.021 . S
Co252 O264 2.137 . S
Co252 O265 2.244 . S
O253 Co252 2.216 . S
O253 C260 1.247 . S
O254 Co252 2.091 . S
O254 C260 1.261 . S
C255 O264 1.247 . S
C255 O265 1.272 . S
O256 Co252 2.004 . S
O256 C261 1.259 . S
Co257 O258 2.061 . S
Co257 O263 2.052 . S
Co257 O265 2.135 . S
O258 Co257 2.061 . S
O258 C261 1.235 . S
C259 O262 1.238 . S
C259 O263 1.241 . S
C260 O253 1.247 . S
C260 O254 1.261 . S
C261 O256 1.259 . S
C261 O258 1.235 . S
O262 Co252 2.021 . S
O262 C259 1.238 . S
O263 Co257 2.052 . S
O263 C259 1.241 . S
O264 Co252 2.137 . S
O264 C255 1.247 . S
O265 Co252 2.244 . S
O265 C255 1.272 . S
O265 Co257 2.135 . S
Co266 O267 2.216 . S
Co266 O268 2.091 . S
Co266 O270 2.004 . S
Co266 O276 2.021 . S
Co266 O278 2.137 . S
Co266 O279 2.244 . S
O267 Co266 2.216 . S
O267 C274 1.247 . S
O268 Co266 2.091 . S
O268 C274 1.261 . S
C269 O278 1.247 . S
C269 O279 1.272 . S
O270 Co266 2.004 . S
O270 C275 1.259 . S
Co271 O272 2.061 . S
Co271 O277 2.052 . S
Co271 O279 2.135 . S
O272 Co271 2.061 . S
O272 C275 1.235 . S
C273 O276 1.238 . S
C273 O277 1.241 . S
C274 O267 1.247 . S
C274 O268 1.261 . S
C275 O270 1.259 . S
C275 O272 1.235 . S
O276 Co266 2.021 . S
O276 C273 1.238 . S
O277 Co271 2.052 . S
O277 C273 1.241 . S
O278 Co266 2.137 . S
O278 C269 1.247 . S
O279 Co266 2.244 . S
O279 C269 1.272 . S
O279 Co271 2.135 . S
Co280 O281 2.216 . S
Co280 O282 2.091 . S
Co280 O284 2.004 . S
Co280 O290 2.021 . S
Co280 O292 2.137 . S
Co280 O293 2.244 . S
O281 Co280 2.216 . S
O281 C288 1.247 . S
O282 Co280 2.091 . S
O282 C288 1.261 . S
C283 O292 1.247 . S
C283 O293 1.272 . S
O284 Co280 2.004 . S
O284 C289 1.259 . S
Co285 O286 2.061 . S
Co285 O291 2.052 . S
Co285 O293 2.135 . S
O286 Co285 2.061 . S
O286 C289 1.235 . S
C287 O290 1.238 . S
C287 O291 1.241 . S
C288 O281 1.247 . S
C288 O282 1.261 . S
C289 O284 1.259 . S
C289 O286 1.235 . S
O290 Co280 2.021 . S
O290 C287 1.238 . S
O291 Co285 2.052 . S
O291 C287 1.241 . S
O292 Co280 2.137 . S
O292 C283 1.247 . S
O293 Co280 2.244 . S
O293 C283 1.272 . S
O293 Co285 2.135 . S
Co294 O295 2.216 . S
Co294 O296 2.091 . S
Co294 O298 2.004 . S
Co294 O304 2.021 . S
Co294 O306 2.137 . S
Co294 O307 2.244 . S
O295 Co294 2.216 . S
O295 C302 1.247 . S
O296 Co294 2.091 . S
O296 C302 1.261 . S
C297 O306 1.247 . S
C297 O307 1.272 . S
O298 Co294 2.004 . S
O298 C303 1.259 . S
Co299 O300 2.061 . S
Co299 O305 2.052 . S
Co299 O307 2.135 . S
O300 Co299 2.061 . S
O300 C303 1.235 . S
C301 O304 1.238 . S
C301 O305 1.241 . S
C302 O295 1.247 . S
C302 O296 1.261 . S
C303 O298 1.259 . S
C303 O300 1.235 . S
O304 Co294 2.021 . S
O304 C301 1.238 . S
O305 Co299 2.052 . S
O305 C301 1.241 . S
O306 Co294 2.137 . S
O306 C297 1.247 . S
O307 Co294 2.244 . S
O307 C297 1.272 . S
O307 Co299 2.135 . S
Co308 O309 2.216 . S
Co308 O310 2.091 . S
Co308 O312 2.004 . S
Co308 O318 2.021 . S
Co308 O320 2.137 . S
Co308 O321 2.244 . S
O309 Co308 2.216 . S
O309 C316 1.247 . S
O310 Co308 2.091 . S
O310 C316 1.261 . S
C311 O320 1.247 . S
C311 O321 1.272 . S
O312 Co308 2.004 . S
O312 C317 1.259 . S
Co313 O314 2.061 . S
Co313 O319 2.052 . S
Co313 O321 2.135 . S
O314 Co313 2.061 . S
O314 C317 1.235 . S
C315 O318 1.238 . S
C315 O319 1.241 . S
C316 O309 1.247 . S
C316 O310 1.261 . S
C317 O312 1.259 . S
C317 O314 1.235 . S
O318 Co308 2.021 . S
O318 C315 1.238 . S
O319 Co313 2.052 . S
O319 C315 1.241 . S
O320 Co308 2.137 . S
O320 C311 1.247 . S
O321 Co308 2.244 . S
O321 C311 1.272 . S
O321 Co313 2.135 . S
Co322 O323 2.216 . S
Co322 O324 2.091 . S
Co322 O326 2.004 . S
Co322 O332 2.021 . S
Co322 O334 2.137 . S
Co322 O335 2.244 . S
O323 Co322 2.216 . S
O323 C330 1.247 . S
O324 Co322 2.091 . S
O324 C330 1.261 . S
C325 O334 1.247 . S
C325 O335 1.272 . S
O326 Co322 2.004 . S
O326 C331 1.259 . S
Co327 O328 2.061 . S
Co327 O333 2.052 . S
Co327 O335 2.135 . S
O328 Co327 2.061 . S
O328 C331 1.235 . S
C329 O332 1.238 . S
C329 O333 1.241 . S
C330 O323 1.247 . S
C330 O324 1.261 . S
C331 O326 1.259 . S
C331 O328 1.235 . S
O332 Co322 2.021 . S
O332 C329 1.238 . S
O333 Co327 2.052 . S
O333 C329 1.241 . S
O334 Co322 2.137 . S
O334 C325 1.247 . S
O335 Co322 2.244 . S
O335 C325 1.272 . S
O335 Co327 2.135 . S
C336 C337 1.369 . S
C336 C338 1.419 . S
C336 H340 0.930 . S
C337 C336 1.369 . S
C337 C346 1.429 . S
C338 C336 1.419 . S
C338 C339 1.363 . S
C338 H341 0.929 . S
C339 C338 1.363 . S
C339 C345 1.428 . S
H340 C336 0.930 . S
H341 C338 0.929 . S
S342 N343 1.613 . S
S342 N344 1.610 . S
N343 S342 1.613 . S
N343 C346 1.350 . S
N344 S342 1.610 . S
N344 C345 1.351 . S
C345 C339 1.428 . S
C345 N344 1.351 . S
C345 C346 1.434 . S
C346 C337 1.429 . S
C346 N343 1.350 . S
C346 C345 1.434 . S
C347 C348 1.369 . S
C347 C349 1.419 . S
C347 H351 0.930 . S
C348 C347 1.369 . S
C348 C357 1.429 . S
C349 C347 1.419 . S
C349 C350 1.363 . S
C349 H352 0.929 . S
C350 C349 1.363 . S
C350 C356 1.428 . S
H351 C347 0.930 . S
H352 C349 0.929 . S
S353 N354 1.613 . S
S353 N355 1.610 . S
N354 S353 1.613 . S
N354 C357 1.350 . S
N355 S353 1.610 . S
N355 C356 1.351 . S
C356 C350 1.428 . S
C356 N355 1.351 . S
C356 C357 1.434 . S
C357 C348 1.429 . S
C357 N354 1.350 . S
C357 C356 1.434 . S
C358 C359 1.369 . S
C358 C360 1.419 . S
C358 H362 0.930 . S
C359 C358 1.369 . S
C359 C368 1.429 . S
C360 C358 1.419 . S
C360 C361 1.363 . S
C360 H363 0.929 . S
C361 C360 1.363 . S
C361 C367 1.428 . S
H362 C358 0.930 . S
H363 C360 0.929 . S
S364 N365 1.613 . S
S364 N366 1.610 . S
N365 S364 1.613 . S
N365 C368 1.350 . S
N366 S364 1.610 . S
N366 C367 1.351 . S
C367 C361 1.428 . S
C367 N366 1.351 . S
C367 C368 1.434 . S
C368 C359 1.429 . S
C368 N365 1.350 . S
C368 C367 1.434 . S
C369 C370 1.369 . S
C369 C371 1.419 . S
C369 H373 0.930 . S
C370 C369 1.369 . S
C370 C379 1.429 . S
C371 C369 1.419 . S
C371 C372 1.363 . S
C371 H374 0.929 . S
C372 C371 1.363 . S
C372 C378 1.428 . S
H373 C369 0.930 . S
H374 C371 0.929 . S
S375 N376 1.613 . S
S375 N377 1.610 . S
N376 S375 1.613 . S
N376 C379 1.350 . S
N377 S375 1.610 . S
N377 C378 1.351 . S
C378 C372 1.428 . S
C378 N377 1.351 . S
C378 C379 1.434 . S
C379 C370 1.429 . S
C379 N376 1.350 . S
C379 C378 1.434 . S
C380 C381 1.369 . S
C380 C382 1.419 . S
C380 H384 0.930 . S
C381 C380 1.369 . S
C381 C390 1.429 . S
C382 C380 1.419 . S
C382 C383 1.363 . S
C382 H385 0.929 . S
C383 C382 1.363 . S
C383 C389 1.428 . S
H384 C380 0.930 . S
H385 C382 0.929 . S
S386 N387 1.613 . S
S386 N388 1.610 . S
N387 S386 1.613 . S
N387 C390 1.350 . S
N388 S386 1.610 . S
N388 C389 1.351 . S
C389 C383 1.428 . S
C389 N388 1.351 . S
C389 C390 1.434 . S
C390 C381 1.429 . S
C390 N387 1.350 . S
C390 C389 1.434 . S
C391 C392 1.369 . S
C391 C393 1.419 . S
C391 H395 0.930 . S
C392 C391 1.369 . S
C392 C401 1.429 . S
C393 C391 1.419 . S
C393 C394 1.363 . S
C393 H396 0.929 . S
C394 C393 1.363 . S
C394 C400 1.428 . S
H395 C391 0.930 . S
H396 C393 0.929 . S
S397 N398 1.613 . S
S397 N399 1.610 . S
N398 S397 1.613 . S
N398 C401 1.350 . S
N399 S397 1.610 . S
N399 C400 1.351 . S
C400 C394 1.428 . S
C400 N399 1.351 . S
C400 C401 1.434 . S
C401 C392 1.429 . S
C401 N398 1.350 . S
C401 C400 1.434 . S
C402 C403 1.369 . S
C402 C404 1.419 . S
C402 H406 0.930 . S
C403 C402 1.369 . S
C403 C412 1.429 . S
C404 C402 1.419 . S
C404 C405 1.363 . S
C404 H407 0.929 . S
C405 C404 1.363 . S
C405 C411 1.428 . S
H406 C402 0.930 . S
H407 C404 0.929 . S
S408 N409 1.613 . S
S408 N410 1.610 . S
N409 S408 1.613 . S
N409 C412 1.350 . S
N410 S408 1.610 . S
N410 C411 1.351 . S
C411 C405 1.428 . S
C411 N410 1.351 . S
C411 C412 1.434 . S
C412 C403 1.429 . S
C412 N409 1.350 . S
C412 C411 1.434 . S
C413 C414 1.369 . S
C413 C415 1.419 . S
C413 H417 0.930 . S
C414 C413 1.369 . S
C414 C423 1.429 . S
C415 C413 1.419 . S
C415 C416 1.363 . S
C415 H418 0.929 . S
C416 C415 1.363 . S
C416 C422 1.428 . S
H417 C413 0.930 . S
H418 C415 0.929 . S
S419 N420 1.613 . S
S419 N421 1.610 . S
N420 S419 1.613 . S
N420 C423 1.350 . S
N421 S419 1.610 . S
N421 C422 1.351 . S
C422 C416 1.428 . S
C422 N421 1.351 . S
C422 C423 1.434 . S
C423 C414 1.429 . S
C423 N420 1.350 . S
C423 C422 1.434 . S
C424 C425 1.369 . S
C424 C426 1.419 . S
C424 H428 0.930 . S
C425 C424 1.369 . S
C425 C434 1.429 . S
C426 C424 1.419 . S
C426 C427 1.363 . S
C426 H429 0.929 . S
C427 C426 1.363 . S
C427 C433 1.428 . S
H428 C424 0.930 . S
H429 C426 0.929 . S
S430 N431 1.613 . S
S430 N432 1.610 . S
N431 S430 1.613 . S
N431 C434 1.350 . S
N432 S430 1.610 . S
N432 C433 1.351 . S
C433 C427 1.428 . S
C433 N432 1.351 . S
C433 C434 1.434 . S
C434 C425 1.429 . S
C434 N431 1.350 . S
C434 C433 1.434 . S
C435 C436 1.369 . S
C435 C437 1.419 . S
C435 H439 0.930 . S
C436 C435 1.369 . S
C436 C445 1.429 . S
C437 C435 1.419 . S
C437 C438 1.363 . S
C437 H440 0.929 . S
C438 C437 1.363 . S
C438 C444 1.428 . S
H439 C435 0.930 . S
H440 C437 0.929 . S
S441 N442 1.613 . S
S441 N443 1.610 . S
N442 S441 1.613 . S
N442 C445 1.350 . S
N443 S441 1.610 . S
N443 C444 1.351 . S
C444 C438 1.428 . S
C444 N443 1.351 . S
C444 C445 1.434 . S
C445 C436 1.429 . S
C445 N442 1.350 . S
C445 C444 1.434 . S
C446 C447 1.369 . S
C446 C448 1.419 . S
C446 H450 0.930 . S
C447 C446 1.369 . S
C447 C456 1.429 . S
C448 C446 1.419 . S
C448 C449 1.363 . S
C448 H451 0.929 . S
C449 C448 1.363 . S
C449 C455 1.428 . S
H450 C446 0.930 . S
H451 C448 0.929 . S
S452 N453 1.613 . S
S452 N454 1.610 . S
N453 S452 1.613 . S
N453 C456 1.350 . S
N454 S452 1.610 . S
N454 C455 1.351 . S
C455 C449 1.428 . S
C455 N454 1.351 . S
C455 C456 1.434 . S
C456 C447 1.429 . S
C456 N453 1.350 . S
C456 C455 1.434 . S
C457 C458 1.369 . S
C457 C459 1.419 . S
C457 H461 0.930 . S
C458 C457 1.369 . S
C458 C467 1.429 . S
C459 C457 1.419 . S
C459 C460 1.363 . S
C459 H462 0.929 . S
C460 C459 1.363 . S
C460 C466 1.428 . S
H461 C457 0.930 . S
H462 C459 0.929 . S
S463 N464 1.613 . S
S463 N465 1.610 . S
N464 S463 1.613 . S
N464 C467 1.350 . S
N465 S463 1.610 . S
N465 C466 1.351 . S
C466 C460 1.428 . S
C466 N465 1.351 . S
C466 C467 1.434 . S
C467 C458 1.429 . S
C467 N464 1.350 . S
C467 C466 1.434 . S
C468 C469 1.369 . S
C468 C470 1.419 . S
C468 H472 0.930 . S
C469 C468 1.369 . S
C469 C478 1.429 . S
C470 C468 1.419 . S
C470 C471 1.363 . S
C470 H473 0.929 . S
C471 C470 1.363 . S
C471 C477 1.428 . S
H472 C468 0.930 . S
H473 C470 0.929 . S
S474 N475 1.613 . S
S474 N476 1.610 . S
N475 S474 1.613 . S
N475 C478 1.350 . S
N476 S474 1.610 . S
N476 C477 1.351 . S
C477 C471 1.428 . S
C477 N476 1.351 . S
C477 C478 1.434 . S
C478 C469 1.429 . S
C478 N475 1.350 . S
C478 C477 1.434 . S
C479 C480 1.369 . S
C479 C481 1.419 . S
C479 H483 0.930 . S
C480 C479 1.369 . S
C480 C489 1.429 . S
C481 C479 1.419 . S
C481 C482 1.363 . S
C481 H484 0.929 . S
C482 C481 1.363 . S
C482 C488 1.428 . S
H483 C479 0.930 . S
H484 C481 0.929 . S
S485 N486 1.613 . S
S485 N487 1.610 . S
N486 S485 1.613 . S
N486 C489 1.350 . S
N487 S485 1.610 . S
N487 C488 1.351 . S
C488 C482 1.428 . S
C488 N487 1.351 . S
C488 C489 1.434 . S
C489 C480 1.429 . S
C489 N486 1.350 . S
C489 C488 1.434 . S
C490 C491 1.369 . S
C490 C492 1.419 . S
C490 H494 0.930 . S
C491 C490 1.369 . S
C491 C500 1.429 . S
C492 C490 1.419 . S
C492 C493 1.363 . S
C492 H495 0.929 . S
C493 C492 1.363 . S
C493 C499 1.428 . S
H494 C490 0.930 . S
H495 C492 0.929 . S
S496 N497 1.613 . S
S496 N498 1.610 . S
N497 S496 1.613 . S
N497 C500 1.350 . S
N498 S496 1.610 . S
N498 C499 1.351 . S
C499 C493 1.428 . S
C499 N498 1.351 . S
C499 C500 1.434 . S
C500 C491 1.429 . S
C500 N497 1.350 . S
C500 C499 1.434 . S
C501 C502 1.369 . S
C501 C503 1.419 . S
C501 H505 0.930 . S
C502 C501 1.369 . S
C502 C511 1.429 . S
C503 C501 1.419 . S
C503 C504 1.363 . S
C503 H506 0.929 . S
C504 C503 1.363 . S
C504 C510 1.428 . S
H505 C501 0.930 . S
H506 C503 0.929 . S
S507 N508 1.613 . S
S507 N509 1.610 . S
N508 S507 1.613 . S
N508 C511 1.350 . S
N509 S507 1.610 . S
N509 C510 1.351 . S
C510 C504 1.428 . S
C510 N509 1.351 . S
C510 C511 1.434 . S
C511 C502 1.429 . S
C511 N508 1.350 . S
C511 C510 1.434 . S
C512 C513 1.369 . S
C512 C514 1.419 . S
C512 H516 0.930 . S
C513 C512 1.369 . S
C513 C522 1.429 . S
C514 C512 1.419 . S
C514 C515 1.363 . S
C514 H517 0.929 . S
C515 C514 1.363 . S
C515 C521 1.428 . S
H516 C512 0.930 . S
H517 C514 0.929 . S
S518 N519 1.613 . S
S518 N520 1.610 . S
N519 S518 1.613 . S
N519 C522 1.350 . S
N520 S518 1.610 . S
N520 C521 1.351 . S
C521 C515 1.428 . S
C521 N520 1.351 . S
C521 C522 1.434 . S
C522 C513 1.429 . S
C522 N519 1.350 . S
C522 C521 1.434 . S
C523 C524 1.369 . S
C523 C525 1.419 . S
C523 H527 0.930 . S
C524 C523 1.369 . S
C524 C533 1.429 . S
C525 C523 1.419 . S
C525 C526 1.363 . S
C525 H528 0.929 . S
C526 C525 1.363 . S
C526 C532 1.428 . S
H527 C523 0.930 . S
H528 C525 0.929 . S
S529 N530 1.613 . S
S529 N531 1.610 . S
N530 S529 1.613 . S
N530 C533 1.350 . S
N531 S529 1.610 . S
N531 C532 1.351 . S
C532 C526 1.428 . S
C532 N531 1.351 . S
C532 C533 1.434 . S
C533 C524 1.429 . S
C533 N530 1.350 . S
C533 C532 1.434 . S
C534 C535 1.369 . S
C534 C536 1.419 . S
C534 H538 0.930 . S
C535 C534 1.369 . S
C535 C544 1.429 . S
C536 C534 1.419 . S
C536 C537 1.363 . S
C536 H539 0.929 . S
C537 C536 1.363 . S
C537 C543 1.428 . S
H538 C534 0.930 . S
H539 C536 0.929 . S
S540 N541 1.613 . S
S540 N542 1.610 . S
N541 S540 1.613 . S
N541 C544 1.350 . S
N542 S540 1.610 . S
N542 C543 1.351 . S
C543 C537 1.428 . S
C543 N542 1.351 . S
C543 C544 1.434 . S
C544 C535 1.429 . S
C544 N541 1.350 . S
C544 C543 1.434 . S
C545 C546 1.369 . S
C545 C547 1.419 . S
C545 H549 0.930 . S
C546 C545 1.369 . S
C546 C555 1.429 . S
C547 C545 1.419 . S
C547 C548 1.363 . S
C547 H550 0.929 . S
C548 C547 1.363 . S
C548 C554 1.428 . S
H549 C545 0.930 . S
H550 C547 0.929 . S
S551 N552 1.613 . S
S551 N553 1.610 . S
N552 S551 1.613 . S
N552 C555 1.350 . S
N553 S551 1.610 . S
N553 C554 1.351 . S
C554 C548 1.428 . S
C554 N553 1.351 . S
C554 C555 1.434 . S
C555 C546 1.429 . S
C555 N552 1.350 . S
C555 C554 1.434 . S
C556 C557 1.369 . S
C556 C558 1.419 . S
C556 H560 0.930 . S
C557 C556 1.369 . S
C557 C566 1.429 . S
C558 C556 1.419 . S
C558 C559 1.363 . S
C558 H561 0.929 . S
C559 C558 1.363 . S
C559 C565 1.428 . S
H560 C556 0.930 . S
H561 C558 0.929 . S
S562 N563 1.613 . S
S562 N564 1.610 . S
N563 S562 1.613 . S
N563 C566 1.350 . S
N564 S562 1.610 . S
N564 C565 1.351 . S
C565 C559 1.428 . S
C565 N564 1.351 . S
C565 C566 1.434 . S
C566 C557 1.429 . S
C566 N563 1.350 . S
C566 C565 1.434 . S
C567 C568 1.369 . S
C567 C569 1.419 . S
C567 H571 0.930 . S
C568 C567 1.369 . S
C568 C577 1.429 . S
C569 C567 1.419 . S
C569 C570 1.363 . S
C569 H572 0.929 . S
C570 C569 1.363 . S
C570 C576 1.428 . S
H571 C567 0.930 . S
H572 C569 0.929 . S
S573 N574 1.613 . S
S573 N575 1.610 . S
N574 S573 1.613 . S
N574 C577 1.350 . S
N575 S573 1.610 . S
N575 C576 1.351 . S
C576 C570 1.428 . S
C576 N575 1.351 . S
C576 C577 1.434 . S
C577 C568 1.429 . S
C577 N574 1.350 . S
C577 C576 1.434 . S
C578 C579 1.369 . S
C578 C580 1.419 . S
C578 H582 0.930 . S
C579 C578 1.369 . S
C579 C588 1.429 . S
C580 C578 1.419 . S
C580 C581 1.363 . S
C580 H583 0.929 . S
C581 C580 1.363 . S
C581 C587 1.428 . S
H582 C578 0.930 . S
H583 C580 0.929 . S
S584 N585 1.613 . S
S584 N586 1.610 . S
N585 S584 1.613 . S
N585 C588 1.350 . S
N586 S584 1.610 . S
N586 C587 1.351 . S
C587 C581 1.428 . S
C587 N586 1.351 . S
C587 C588 1.434 . S
C588 C579 1.429 . S
C588 N585 1.350 . S
C588 C587 1.434 . S
C589 C590 1.369 . S
C589 C591 1.419 . S
C589 H593 0.930 . S
C590 C589 1.369 . S
C590 C599 1.429 . S
C591 C589 1.419 . S
C591 C592 1.363 . S
C591 H594 0.929 . S
C592 C591 1.363 . S
C592 C598 1.428 . S
H593 C589 0.930 . S
H594 C591 0.929 . S
S595 N596 1.613 . S
S595 N597 1.610 . S
N596 S595 1.613 . S
N596 C599 1.350 . S
N597 S595 1.610 . S
N597 C598 1.351 . S
C598 C592 1.428 . S
C598 N597 1.351 . S
C598 C599 1.434 . S
C599 C590 1.429 . S
C599 N596 1.350 . S
C599 C598 1.434 . S
C600 C601 1.369 . S
C600 C602 1.419 1_455 S
C600 H604 0.930 . S
C601 C600 1.369 . S
C601 C610 1.429 . S
C602 C600 1.419 1_655 S
C602 C603 1.363 . S
C602 H605 0.929 . S
C603 C602 1.363 . S
C603 C609 1.428 . S
H604 C600 0.930 . S
H605 C602 0.929 . S
S606 N607 1.613 1_655 S
S606 N608 1.610 . S
N607 S606 1.613 1_455 S
N607 C610 1.350 . S
N608 S606 1.610 . S
N608 C609 1.351 . S
C609 C603 1.428 . S
C609 N608 1.351 . S
C609 C610 1.434 1_655 S
C610 C601 1.429 . S
C610 N607 1.350 . S
C610 C609 1.434 1_455 S
C611 C612 1.369 . S
C611 C613 1.419 1_545 S
C611 H615 0.930 . S
C612 C611 1.369 . S
C612 C621 1.429 . S
C613 C611 1.419 1_565 S
C613 C614 1.363 . S
C613 H616 0.929 . S
C614 C613 1.363 . S
C614 C620 1.428 . S
H615 C611 0.930 . S
H616 C613 0.929 . S
S617 N618 1.613 1_565 S
S617 N619 1.610 . S
N618 S617 1.613 1_545 S
N618 C621 1.350 . S
N619 S617 1.610 . S
N619 C620 1.351 . S
C620 C614 1.428 . S
C620 N619 1.351 . S
C620 C621 1.434 1_565 S
C621 C612 1.429 . S
C621 N618 1.350 . S
C621 C620 1.434 1_545 S
C622 C623 1.369 . S
C622 C624 1.419 1_655 S
C622 H626 0.930 . S
C623 C622 1.369 . S
C623 C632 1.429 . S
C624 C622 1.419 1_455 S
C624 C625 1.363 . S
C624 H627 0.929 . S
C625 C624 1.363 . S
C625 C631 1.428 . S
H626 C622 0.930 . S
H627 C624 0.929 . S
S628 N629 1.613 1_455 S
S628 N630 1.610 . S
N629 S628 1.613 1_655 S
N629 C632 1.350 . S
N630 S628 1.610 . S
N630 C631 1.351 . S
C631 C625 1.428 . S
C631 N630 1.351 . S
C631 C632 1.434 1_455 S
C632 C623 1.429 . S
C632 N629 1.350 . S
C632 C631 1.434 1_655 S
C633 C634 1.369 . S
C633 C635 1.419 1_545 S
C633 H637 0.930 . S
C634 C633 1.369 . S
C634 C643 1.429 . S
C635 C633 1.419 1_565 S
C635 C636 1.363 . S
C635 H638 0.929 . S
C636 C635 1.363 . S
C636 C642 1.428 . S
H637 C633 0.930 . S
H638 C635 0.929 . S
S639 N640 1.613 . S
S639 N641 1.610 1_545 S
N640 S639 1.613 . S
N640 C643 1.350 . S
N641 S639 1.610 1_565 S
N641 C642 1.351 . S
C642 C636 1.428 . S
C642 N641 1.351 . S
C642 C643 1.434 1_565 S
C643 C634 1.429 . S
C643 N640 1.350 . S
C643 C642 1.434 1_545 S
C644 C645 1.369 . S
C644 C646 1.419 1_565 S
C644 H648 0.930 . S
C645 C644 1.369 . S
C645 C654 1.429 . S
C646 C644 1.419 1_545 S
C646 C647 1.363 . S
C646 H649 0.929 . S
C647 C646 1.363 . S
C647 C653 1.428 . S
H648 C644 0.930 . S
H649 C646 0.929 . S
S650 N651 1.613 . S
S650 N652 1.610 1_565 S
N651 S650 1.613 . S
N651 C654 1.350 . S
N652 S650 1.610 1_545 S
N652 C653 1.351 . S
C653 C647 1.428 . S
C653 N652 1.351 . S
C653 C654 1.434 1_545 S
C654 C645 1.429 . S
C654 N651 1.350 . S
C654 C653 1.434 1_565 S
C655 C656 1.369 . S
C655 C657 1.419 1_655 S
C655 H659 0.930 . S
C656 C655 1.369 . S
C656 C665 1.429 . S
C657 C655 1.419 1_455 S
C657 C658 1.363 . S
C657 H660 0.929 . S
C658 C657 1.363 . S
C658 C664 1.428 . S
H659 C655 0.930 . S
H660 C657 0.929 . S
S661 N662 1.613 . S
S661 N663 1.610 1_655 S
N662 S661 1.613 . S
N662 C665 1.350 . S
N663 S661 1.610 1_455 S
N663 C664 1.351 . S
C664 C658 1.428 . S
C664 N663 1.351 . S
C664 C665 1.434 1_455 S
C665 C656 1.429 . S
C665 N662 1.350 . S
C665 C664 1.434 1_655 S
C666 C667 1.369 . S
C666 C668 1.419 1_565 S
C666 H670 0.930 . S
C667 C666 1.369 . S
C667 C676 1.429 . S
C668 C666 1.419 1_545 S
C668 C669 1.363 . S
C668 H671 0.929 . S
C669 C668 1.363 . S
C669 C675 1.428 . S
H670 C666 0.930 . S
H671 C668 0.929 . S
S672 N673 1.613 1_545 S
S672 N674 1.610 . S
N673 S672 1.613 1_565 S
N673 C676 1.350 . S
N674 S672 1.610 . S
N674 C675 1.351 . S
C675 C669 1.428 . S
C675 N674 1.351 . S
C675 C676 1.434 1_545 S
C676 C667 1.429 . S
C676 N673 1.350 . S
C676 C675 1.434 1_565 S
C677 C678 1.369 . S
C677 C679 1.419 1_655 S
C677 H681 0.930 . S
C678 C677 1.369 . S
C678 C687 1.429 . S
C679 C677 1.419 1_455 S
C679 C680 1.363 . S
C679 H682 0.929 . S
C680 C679 1.363 . S
C680 C686 1.428 . S
H681 C677 0.930 . S
H682 C679 0.929 . S
S683 N684 1.613 . S
S683 N685 1.610 1_655 S
N684 S683 1.613 . S
N684 C687 1.350 . S
N685 S683 1.610 1_455 S
N685 C686 1.351 . S
C686 C680 1.428 . S
C686 N685 1.351 . S
C686 C687 1.434 1_455 S
C687 C678 1.429 . S
C687 N684 1.350 . S
C687 C686 1.434 1_655 S
C688 C689 1.369 . S
C688 C690 1.419 1_556 S
C688 H692 0.930 . S
C689 C688 1.369 . S
C689 C698 1.429 . S
C690 C688 1.419 1_554 S
C690 C691 1.363 . S
C690 H693 0.929 . S
C691 C690 1.363 . S
C691 C697 1.428 . S
H692 C688 0.930 . S
H693 C690 0.929 . S
S694 N695 1.613 1_554 S
S694 N696 1.610 . S
N695 S694 1.613 1_556 S
N695 C698 1.350 . S
N696 S694 1.610 . S
N696 C697 1.351 . S
C697 C691 1.428 . S
C697 N696 1.351 . S
C697 C698 1.434 1_554 S
C698 C689 1.429 . S
C698 N695 1.350 . S
C698 C697 1.434 1_556 S
C699 C700 1.369 . S
C699 C701 1.419 1_556 S
C699 H703 0.930 . S
C700 C699 1.369 . S
C700 C709 1.429 . S
C701 C699 1.419 1_554 S
C701 C702 1.363 . S
C701 H704 0.929 . S
C702 C701 1.363 . S
C702 C708 1.428 . S
H703 C699 0.930 . S
H704 C701 0.929 . S
S705 N706 1.637 . S
S705 N707 1.586 1_556 S
N706 S705 1.637 . S
N706 C709 1.350 . S
N707 S705 1.586 1_554 S
N707 C708 1.351 . S
C708 C702 1.428 . S
C708 N707 1.351 . S
C708 C709 1.434 1_554 S
C709 C700 1.429 . S
C709 N706 1.350 . S
C709 C708 1.434 1_556 S
C710 C711 1.369 . S
C710 C712 1.419 1_556 S
C710 H714 0.930 . S
C711 C710 1.369 . S
C711 C720 1.429 . S
C712 C710 1.419 1_554 S
C712 C713 1.363 . S
C712 H715 0.929 . S
C713 C712 1.363 . S
C713 C719 1.428 . S
H714 C710 0.930 . S
H715 C712 0.929 . S
S716 N717 1.613 1_554 S
S716 N718 1.610 . S
N717 S716 1.613 1_556 S
N717 C720 1.350 . S
N718 S716 1.610 . S
N718 C719 1.351 . S
C719 C713 1.428 . S
C719 N718 1.351 . S
C719 C720 1.434 1_554 S
C720 C711 1.429 . S
C720 N717 1.350 . S
C720 C719 1.434 1_556 S
C721 C722 1.369 . S
C721 C723 1.419 1_556 S
C721 H725 0.930 . S
C722 C721 1.369 . S
C722 C731 1.429 . S
C723 C721 1.419 1_554 S
C723 C724 1.363 . S
C723 H726 0.929 . S
C724 C723 1.363 . S
C724 C730 1.428 . S
H725 C721 0.930 . S
H726 C723 0.929 . S
S727 N728 1.613 1_554 S
S727 N729 1.610 . S
N728 S727 1.613 1_556 S
N728 C731 1.350 . S
N729 S727 1.610 . S
N729 C730 1.351 . S
C730 C724 1.428 . S
C730 N729 1.351 . S
C730 C731 1.434 1_554 S
C731 C722 1.429 . S
C731 N728 1.350 . S
C731 C730 1.434 1_556 S
C732 C733 1.369 . S
C732 C734 1.419 . S
C732 H736 0.930 . S
C733 C732 1.369 . S
C733 C742 1.429 . S
C734 C732 1.419 . S
C734 C735 1.363 . S
C734 H737 0.929 . S
C735 C734 1.363 . S
C735 C741 1.428 . S
H736 C732 0.930 . S
H737 C734 0.929 . S
S738 N739 1.613 . S
S738 N740 1.610 . S
N739 S738 1.613 . S
N739 C742 1.350 . S
N740 S738 1.610 . S
N740 C741 1.351 . S
C741 C735 1.428 . S
C741 N740 1.351 . S
C741 C742 1.434 . S
C742 C733 1.429 . S
C742 N739 1.350 . S
C742 C741 1.434 . S
C743 C744 1.369 . S
C743 C745 1.419 . S
C743 H747 0.930 . S
C744 C743 1.369 . S
C744 C753 1.429 . S
C745 C743 1.419 . S
C745 C746 1.363 . S
C745 H748 0.929 . S
C746 C745 1.363 . S
C746 C752 1.428 . S
H747 C743 0.930 . S
H748 C745 0.929 . S
S749 N750 1.613 . S
S749 N751 1.610 . S
N750 S749 1.613 . S
N750 C753 1.350 . S
N751 S749 1.610 . S
N751 C752 1.351 . S
C752 C746 1.428 . S
C752 N751 1.351 . S
C752 C753 1.434 . S
C753 C744 1.429 . S
C753 N750 1.350 . S
C753 C752 1.434 . S
C754 C755 1.369 . S
C754 C756 1.419 . S
C754 H758 0.930 . S
C755 C754 1.369 . S
C755 C764 1.429 . S
C756 C754 1.419 . S
C756 C757 1.363 . S
C756 H759 0.929 . S
C757 C756 1.363 . S
C757 C763 1.428 . S
H758 C754 0.930 . S
H759 C756 0.929 . S
S760 N761 1.613 . S
S760 N762 1.610 . S
N761 S760 1.613 . S
N761 C764 1.350 . S
N762 S760 1.610 . S
N762 C763 1.351 . S
C763 C757 1.428 . S
C763 N762 1.351 . S
C763 C764 1.434 . S
C764 C755 1.429 . S
C764 N761 1.350 . S
C764 C763 1.434 . S
C765 C766 1.369 . S
C765 C767 1.419 . S
C765 H769 0.930 . S
C766 C765 1.369 . S
C766 C775 1.429 . S
C767 C765 1.419 . S
C767 C768 1.363 . S
C767 H770 0.929 . S
C768 C767 1.363 . S
C768 C774 1.428 . S
H769 C765 0.930 . S
H770 C767 0.929 . S
S771 N772 1.613 . S
S771 N773 1.610 . S
N772 S771 1.613 . S
N772 C775 1.350 . S
N773 S771 1.610 . S
N773 C774 1.351 . S
C774 C768 1.428 . S
C774 N773 1.351 . S
C774 C775 1.434 . S
C775 C766 1.429 . S
C775 N772 1.350 . S
C775 C774 1.434 . S
C776 C777 1.369 . S
C776 C778 1.419 . S
C776 H780 0.930 . S
C777 C776 1.369 . S
C777 C786 1.429 . S
C778 C776 1.419 . S
C778 C779 1.363 . S
C778 H781 0.929 . S
C779 C778 1.363 . S
C779 C785 1.428 . S
H780 C776 0.930 . S
H781 C778 0.929 . S
S782 N783 1.613 . S
S782 N784 1.610 . S
N783 S782 1.613 . S
N783 C786 1.350 . S
N784 S782 1.610 . S
N784 C785 1.351 . S
C785 C779 1.428 . S
C785 N784 1.351 . S
C785 C786 1.434 . S
C786 C777 1.429 . S
C786 N783 1.350 . S
C786 C785 1.434 . S
C787 C788 1.369 . S
C787 C789 1.419 . S
C787 H791 0.930 . S
C788 C787 1.369 . S
C788 C797 1.429 . S
C789 C787 1.419 . S
C789 C790 1.363 . S
C789 H792 0.929 . S
C790 C789 1.363 . S
C790 C796 1.428 . S
H791 C787 0.930 . S
H792 C789 0.929 . S
S793 N794 1.613 . S
S793 N795 1.610 . S
N794 S793 1.613 . S
N794 C797 1.350 . S
N795 S793 1.610 . S
N795 C796 1.351 . S
C796 C790 1.428 . S
C796 N795 1.351 . S
C796 C797 1.434 . S
C797 C788 1.429 . S
C797 N794 1.350 . S
C797 C796 1.434 . S
C798 C799 1.369 . S
C798 C800 1.419 . S
C798 H802 0.930 . S
C799 C798 1.369 . S
C799 C808 1.429 . S
C800 C798 1.419 . S
C800 C801 1.363 . S
C800 H803 0.929 . S
C801 C800 1.363 . S
C801 C807 1.428 . S
H802 C798 0.930 . S
H803 C800 0.929 . S
S804 N805 1.613 . S
S804 N806 1.610 . S
N805 S804 1.613 . S
N805 C808 1.350 . S
N806 S804 1.610 . S
N806 C807 1.351 . S
C807 C801 1.428 . S
C807 N806 1.351 . S
C807 C808 1.434 . S
C808 C799 1.429 . S
C808 N805 1.350 . S
C808 C807 1.434 . S
C809 C810 1.369 . S
C809 C811 1.419 . S
C809 H813 0.930 . S
C810 C809 1.369 . S
C810 C819 1.429 . S
C811 C809 1.419 . S
C811 C812 1.363 . S
C811 H814 0.929 . S
C812 C811 1.363 . S
C812 C818 1.428 . S
H813 C809 0.930 . S
H814 C811 0.929 . S
S815 N816 1.613 . S
S815 N817 1.610 . S
N816 S815 1.613 . S
N816 C819 1.350 . S
N817 S815 1.610 . S
N817 C818 1.351 . S
C818 C812 1.428 . S
C818 N817 1.351 . S
C818 C819 1.434 . S
C819 C810 1.429 . S
C819 N816 1.350 . S
C819 C818 1.434 . S
C820 C821 1.369 . S
C820 C822 1.419 . S
C820 H824 0.930 . S
C821 C820 1.369 . S
C821 C830 1.429 . S
C822 C820 1.419 . S
C822 C823 1.363 . S
C822 H825 0.929 . S
C823 C822 1.363 . S
C823 C829 1.428 . S
H824 C820 0.930 . S
H825 C822 0.929 . S
S826 N827 1.613 . S
S826 N828 1.610 . S
N827 S826 1.613 . S
N827 C830 1.350 . S
N828 S826 1.610 . S
N828 C829 1.351 . S
C829 C823 1.428 . S
C829 N828 1.351 . S
C829 C830 1.434 . S
C830 C821 1.429 . S
C830 N827 1.350 . S
C830 C829 1.434 . S
C831 C832 1.369 . S
C831 C833 1.419 . S
C831 H835 0.930 . S
C832 C831 1.369 . S
C832 C841 1.429 . S
C833 C831 1.419 . S
C833 C834 1.363 . S
C833 H836 0.929 . S
C834 C833 1.363 . S
C834 C840 1.428 . S
H835 C831 0.930 . S
H836 C833 0.929 . S
S837 N838 1.613 . S
S837 N839 1.610 . S
N838 S837 1.613 . S
N838 C841 1.350 . S
N839 S837 1.610 . S
N839 C840 1.351 . S
C840 C834 1.428 . S
C840 N839 1.351 . S
C840 C841 1.434 . S
C841 C832 1.429 . S
C841 N838 1.350 . S
C841 C840 1.434 . S
C842 C843 1.369 . S
C842 C844 1.419 . S
C842 H846 0.930 . S
C843 C842 1.369 . S
C843 C852 1.429 . S
C844 C842 1.419 . S
C844 C845 1.363 . S
C844 H847 0.929 . S
C845 C844 1.363 . S
C845 C851 1.428 . S
H846 C842 0.930 . S
H847 C844 0.929 . S
S848 N849 1.613 . S
S848 N850 1.610 . S
N849 S848 1.613 . S
N849 C852 1.350 . S
N850 S848 1.610 . S
N850 C851 1.351 . S
C851 C845 1.428 . S
C851 N850 1.351 . S
C851 C852 1.434 . S
C852 C843 1.429 . S
C852 N849 1.350 . S
C852 C851 1.434 . S
C853 C854 1.369 . S
C853 C855 1.419 . S
C853 H857 0.930 . S
C854 C853 1.369 . S
C854 C863 1.429 . S
C855 C853 1.419 . S
C855 C856 1.363 . S
C855 H858 0.929 . S
C856 C855 1.363 . S
C856 C862 1.428 . S
H857 C853 0.930 . S
H858 C855 0.929 . S
S859 N860 1.613 . S
S859 N861 1.610 . S
N860 S859 1.613 . S
N860 C863 1.350 . S
N861 S859 1.610 . S
N861 C862 1.351 . S
C862 C856 1.428 . S
C862 N861 1.351 . S
C862 C863 1.434 . S
C863 C854 1.429 . S
C863 N860 1.350 . S
C863 C862 1.434 . S
C337 C161 1.409 . S
C339 C3 1.503 . S
C348 C17 1.501 . S
C350 C119 1.405 . S
C359 C31 1.501 . S
C361 C133 1.406 . S
C370 C45 1.501 . S
C372 C147 1.406 . S
C381 C189 1.416 . S
C383 C59 1.505 . S
C392 C73 1.501 . S
C394 C203 1.405 . S
C403 C217 1.412 . S
C405 C87 1.504 . S
C414 C175 1.414 . S
C416 C101 1.504 . S
C425 C77 1.409 . S
C427 C115 1.503 . S
C436 C91 1.404 . S
C438 C129 1.502 . S
C447 C143 1.502 . S
C449 C105 1.407 . S
C458 C63 1.406 . S
C460 C157 1.502 . S
C469 C49 1.411 . S
C471 C171 1.503 . S
C480 C185 1.505 . S
C482 C7 1.415 . S
C491 C199 1.503 . S
C493 C21 1.411 . S
C502 C213 1.502 . S
C504 C35 1.409 . S
C513 C227 1.504 . S
C515 C329 1.410 . S
C524 C287 1.404 . S
C526 C241 1.502 . S
C535 C255 1.501 . S
C537 C245 1.405 . S
C546 C269 1.501 . S
C548 C259 1.405 . S
C557 C273 1.408 . S
C559 C283 1.502 . S
C568 C297 1.504 . S
C570 C315 1.414 . S
C579 C231 1.404 . S
C581 C311 1.501 . S
C590 C301 1.404 . S
C592 C325 1.501 . S
C601 C9 1.510 . S
C603 C93 1.510 . S
C612 C23 1.508 . S
C614 C107 1.508 . S
C623 C37 1.509 . S
C625 C65 1.509 . S
C634 C79 1.511 . S
C636 C51 1.510 . S
C645 C149 1.507 . S
C647 C121 1.508 . S
C656 C135 1.509 . S
C658 C163 1.509 . S
C667 C177 1.508 . S
C669 C205 1.509 . S
C678 C219 1.509 . S
C680 C191 1.509 . S
C689 C247 1.509 . S
C691 C233 1.510 . S
C700 C261 1.513 . S
C702 C331 1.512 . S
C711 C275 1.507 . S
C713 C303 1.508 . S
C722 C289 1.509 . S
C724 C317 1.509 . S
C733 C8 1.165 . S
C735 C78 1.166 . S
C744 C22 1.165 . S
C746 C92 1.166 . S
C755 C36 1.166 . S
C757 C106 1.165 . S
C766 C64 1.165 . S
C768 C50 1.164 . S
C777 C120 1.166 . S
C779 C330 1.165 . S
C788 C134 1.164 . S
C790 C302 1.165 . S
C799 C316 1.167 . S
C801 C148 1.167 . S
C810 C162 1.164 . S
C812 C232 1.166 . S
C821 C288 1.167 . S
C823 C176 1.167 . S
C832 C246 1.164 . S
C834 C190 1.166 . S
C843 C204 1.164 . S
C845 C260 1.165 . S
C854 C274 1.164 . S
C856 C218 1.165 . S
