# Generated by pormake.
# Topology why, (6)-cn, num edge types: 1
# Building blocks:
#     Node 0, Type 0, BuildingBlock: CUKXOW_clean_sbu_0, # of connection points: 6
#     Node 1, Type 0, BuildingBlock: CUKXOW_clean_sbu_0, # of connection points: 6
#     Node 2, Type 0, BuildingBlock: CUKXOW_clean_sbu_0, # of connection points: 6
#     Node 3, Type 0, BuildingBlock: CUKXOW_clean_sbu_0, # of connection points: 6
#     Node 4, Type 0, BuildingBlock: CUKXOW_clean_sbu_0, # of connection points: 6
#     Node 5, Type 0, BuildingBlock: CUKXOW_clean_sbu_0, # of connection points: 6
#     Node 6, Type 0, BuildingBlock: CUKXOW_clean_sbu_0, # of connection points: 6
#     Node 7, Type 0, BuildingBlock: CUKXOW_clean_sbu_0, # of connection points: 6
#     Node 8, Type 0, BuildingBlock: CUKXOW_clean_sbu_0, # of connection points: 6
#     Node 9, Type 0, BuildingBlock: CUKXOW_clean_sbu_0, # of connection points: 6
#     Node 10, Type 0, BuildingBlock: CUKXOW_clean_sbu_0, # of connection points: 6
#     Node 11, Type 0, BuildingBlock: CUKXOW_clean_sbu_0, # of connection points: 6
#     Node 12, Type 0, BuildingBlock: CUKXOW_clean_sbu_0, # of connection points: 6
#     Node 13, Type 0, BuildingBlock: CUKXOW_clean_sbu_0, # of connection points: 6
#     Node 14, Type 0, BuildingBlock: CUKXOW_clean_sbu_0, # of connection points: 6
#     Node 15, Type 0, BuildingBlock: CUKXOW_clean_sbu_0, # of connection points: 6
#     Edge 16, Type (0, 0), BuildingBlock: UVAHIK_clean_linker_0, # of connection points: 2
#     Edge 17, Type (0, 0), BuildingBlock: UVAHIK_clean_linker_0, # of connection points: 2
#     Edge 18, Type (0, 0), BuildingBlock: UVAHIK_clean_linker_0, # of connection points: 2
#     Edge 19, Type (0, 0), BuildingBlock: UVAHIK_clean_linker_0, # of connection points: 2
#     Edge 20, Type (0, 0), BuildingBlock: UVAHIK_clean_linker_0, # of connection points: 2
#     Edge 21, Type (0, 0), BuildingBlock: UVAHIK_clean_linker_0, # of connection points: 2
#     Edge 22, Type (0, 0), BuildingBlock: UVAHIK_clean_linker_0, # of connection points: 2
#     Edge 23, Type (0, 0), BuildingBlock: UVAHIK_clean_linker_0, # of connection points: 2
#     Edge 24, Type (0, 0), BuildingBlock: UVAHIK_clean_linker_0, # of connection points: 2
#     Edge 25, Type (0, 0), BuildingBlock: UVAHIK_clean_linker_0, # of connection points: 2
#     Edge 26, Type (0, 0), BuildingBlock: UVAHIK_clean_linker_0, # of connection points: 2
#     Edge 27, Type (0, 0), BuildingBlock: UVAHIK_clean_linker_0, # of connection points: 2
#     Edge 28, Type (0, 0), BuildingBlock: UVAHIK_clean_linker_0, # of connection points: 2
#     Edge 29, Type (0, 0), BuildingBlock: UVAHIK_clean_linker_0, # of connection points: 2
#     Edge 30, Type (0, 0), BuildingBlock: UVAHIK_clean_linker_0, # of connection points: 2
#     Edge 31, Type (0, 0), BuildingBlock: UVAHIK_clean_linker_0, # of connection points: 2
#     Edge 32, Type (0, 0), BuildingBlock: UVAHIK_clean_linker_0, # of connection points: 2
#     Edge 33, Type (0, 0), BuildingBlock: UVAHIK_clean_linker_0, # of connection points: 2
#     Edge 34, Type (0, 0), BuildingBlock: UVAHIK_clean_linker_0, # of connection points: 2
#     Edge 35, Type (0, 0), BuildingBlock: UVAHIK_clean_linker_0, # of connection points: 2
#     Edge 36, Type (0, 0), BuildingBlock: UVAHIK_clean_linker_0, # of connection points: 2
#     Edge 37, Type (0, 0), BuildingBlock: UVAHIK_clean_linker_0, # of connection points: 2
#     Edge 38, Type (0, 0), BuildingBlock: UVAHIK_clean_linker_0, # of connection points: 2
#     Edge 39, Type (0, 0), BuildingBlock: UVAHIK_clean_linker_0, # of connection points: 2
#     Edge 40, Type (0, 0), BuildingBlock: UVAHIK_clean_linker_0, # of connection points: 2
#     Edge 41, Type (0, 0), BuildingBlock: UVAHIK_clean_linker_0, # of connection points: 2
#     Edge 42, Type (0, 0), BuildingBlock: UVAHIK_clean_linker_0, # of connection points: 2
#     Edge 43, Type (0, 0), BuildingBlock: UVAHIK_clean_linker_0, # of connection points: 2
#     Edge 44, Type (0, 0), BuildingBlock: UVAHIK_clean_linker_0, # of connection points: 2
#     Edge 45, Type (0, 0), BuildingBlock: UVAHIK_clean_linker_0, # of connection points: 2
#     Edge 46, Type (0, 0), BuildingBlock: UVAHIK_clean_linker_0, # of connection points: 2
#     Edge 47, Type (0, 0), BuildingBlock: UVAHIK_clean_linker_0, # of connection points: 2
#     Edge 48, Type (0, 0), BuildingBlock: UVAHIK_clean_linker_0, # of connection points: 2
#     Edge 49, Type (0, 0), BuildingBlock: UVAHIK_clean_linker_0, # of connection points: 2
#     Edge 50, Type (0, 0), BuildingBlock: UVAHIK_clean_linker_0, # of connection points: 2
#     Edge 51, Type (0, 0), BuildingBlock: UVAHIK_clean_linker_0, # of connection points: 2
#     Edge 52, Type (0, 0), BuildingBlock: UVAHIK_clean_linker_0, # of connection points: 2
#     Edge 53, Type (0, 0), BuildingBlock: UVAHIK_clean_linker_0, # of connection points: 2
#     Edge 54, Type (0, 0), BuildingBlock: UVAHIK_clean_linker_0, # of connection points: 2
#     Edge 55, Type (0, 0), BuildingBlock: UVAHIK_clean_linker_0, # of connection points: 2
#     Edge 56, Type (0, 0), BuildingBlock: UVAHIK_clean_linker_0, # of connection points: 2
#     Edge 57, Type (0, 0), BuildingBlock: UVAHIK_clean_linker_0, # of connection points: 2
#     Edge 58, Type (0, 0), BuildingBlock: UVAHIK_clean_linker_0, # of connection points: 2
#     Edge 59, Type (0, 0), BuildingBlock: UVAHIK_clean_linker_0, # of connection points: 2
#     Edge 60, Type (0, 0), BuildingBlock: UVAHIK_clean_linker_0, # of connection points: 2
#     Edge 61, Type (0, 0), BuildingBlock: UVAHIK_clean_linker_0, # of connection points: 2
#     Edge 62, Type (0, 0), BuildingBlock: UVAHIK_clean_linker_0, # of connection points: 2
#     Edge 63, Type (0, 0), BuildingBlock: UVAHIK_clean_linker_0, # of connection points: 2
# Relax obj value: 0.197
# Max RMSD: 0.188
# Mean RMSD: 0.188
data_MOF--net-why--node1-CUKXOW_clean_sbu_0--edge1-UVAHIK_clean_linker_0
_symmetry_space_group_name_H-M    P1
_symmetry_Int_Tables_number       1
_symmetry_cell_setting            triclinic
loop_
_symmetry_equiv_pos_as_xyz
'x, y, z'
_cell_length_a     65.287065
_cell_length_b     65.256438
_cell_length_c     31.175333
_cell_angle_alpha  90.006228
_cell_angle_beta   89.941813
_cell_angle_gamma 90.021032
loop_
_atom_site_label
_atom_site_type_symbol
_atom_site_fract_x
_atom_site_fract_y
_atom_site_fract_z
_atom_type_partial_charge
Tb0 Tb 0.36467 0.20009 0.10031 0.0
C1 C 0.34884 0.1572 0.12966 0.0
Tb2 Tb 0.32304 0.18192 0.06063 0.0
O3 O 0.35067 0.21819 0.15199 0.0
O4 O 0.33285 0.20085 0.11182 0.0
O5 O 0.36518 0.16875 0.12232 0.0
C6 C 0.28539 0.16737 0.04779 0.0
O7 O 0.33023 0.16152 0.11461 0.0
C8 C 0.35629 0.1693 1.01912 0.0
C9 C 0.34174 0.22362 1.02421 0.0
O10 O 0.30216 0.15682 0.04763 0.0
O11 O 0.28964 0.18655 0.05558 0.0
O12 O 0.33773 0.16479 1.00758 0.0
O13 O 0.35462 0.18085 0.05109 0.0
O14 O 0.3259 0.21058 1.02374 0.0
O15 O 0.35794 0.22189 0.04975 0.0
C16 C 0.40334 0.21074 0.11241 0.0
O17 O 0.39321 0.21314 0.07695 0.0
O18 O 0.39177 0.202 0.14099 0.0
C19 C 0.33197 0.21276 0.14362 0.0
Tb20 Tb 0.55357 0.61238 0.35056 0.0
C21 C 0.59627 0.5938 0.37546 0.0
Tb22 Tb 0.56916 0.57347 0.30261 0.0
O23 O 0.54016 0.5974 0.40703 0.0
O24 O 0.55265 0.58044 0.35838 0.0
O25 O 0.58436 0.61023 0.37552 0.0
C26 C 0.57772 0.536 0.27365 0.0
O27 O 0.59219 0.57682 0.35332 0.0
C28 C 0.58519 0.6085 0.27806 0.0
C29 C 0.52686 0.59399 0.27481 0.0
O30 O 0.57826 0.55271 0.25107 0.0
O31 O 0.57173 0.54031 0.3124 0.0
O32 O 0.59458 0.591 0.27575 0.0
O33 O 0.56693 0.60552 0.29002 0.0
O34 O 0.53904 0.57763 0.27156 0.0
O35 O 0.5307 0.60966 0.30065 0.0
C36 C 0.54282 0.64961 0.3748 0.0
O37 O 0.53084 0.63381 0.37359 0.0
O38 O 0.56105 0.64468 0.36138 0.0
C39 C 0.54368 0.57892 0.39398 0.0
Tb40 Tb 0.13496 0.804 0.59557 0.0
C41 C 0.15094 0.84676 0.62486 0.0
Tb42 Tb 0.17697 0.82164 0.5568 0.0
O43 O 0.14851 0.78626 0.64844 0.0
O44 O 0.16665 0.80312 0.6081 0.0
O45 O 0.13453 0.83557 0.61596 0.0
C46 C 0.21551 0.83403 0.54524 0.0
O47 O 0.16969 0.84199 0.61104 0.0
C48 C 0.14414 0.83435 0.51386 0.0
C49 C 0.15839 0.77947 0.52183 0.0
O50 O 0.19952 0.84575 0.54699 0.0
O51 O 0.20989 0.81501 0.5503 0.0
O52 O 0.16285 0.83889 0.50316 0.0
O53 O 0.14549 0.82282 0.54591 0.0
O54 O 0.1742 0.79254 0.52117 0.0
O55 O 0.14194 0.78155 0.54656 0.0
C56 C 0.09617 0.79376 0.60716 0.0
O57 O 0.10643 0.79116 0.57188 0.0
O58 O 0.10767 0.80247 0.63583 0.0
C59 C 0.1673 0.79148 0.64029 0.0
Tb60 Tb 0.94719 0.3872 0.85079 0.0
C61 C 0.90423 0.40405 0.87835 0.0
Tb62 Tb 0.93069 0.42736 0.80934 0.0
O63 O 0.96499 0.40052 0.90357 0.0
O64 O 0.94905 0.41902 0.86199 0.0
O65 O 0.91583 0.38761 0.87322 0.0
C66 C 0.92121 0.46566 0.78715 0.0
O67 O 0.90857 0.42213 0.86096 0.0
C68 C 0.91407 0.39317 0.78073 0.0
C69 C 0.97458 0.40948 0.7816 0.0
O70 O 0.92327 0.45902 0.82617 0.0
O71 O 0.92514 0.45086 0.7605 0.0
O72 O 0.90505 0.41088 0.77966 0.0
O73 O 0.93228 0.39582 0.79302 0.0
O74 O 0.96104 0.42476 0.77814 0.0
O75 O 0.97209 0.39346 0.80718 0.0
C76 C 0.95667 0.34822 0.86417 0.0
O77 O 0.95882 0.35791 0.82818 0.0
O78 O 0.9489 0.36042 0.8927 0.0
C79 C 0.96045 0.41939 0.89466 0.0
Tb80 Tb 0.67606 0.81854 0.99248 0.0
C81 C 0.65282 0.77931 1.02529 0.0
Tb82 Tb 0.63603 0.80516 0.94621 0.0
O83 O 0.65824 0.82512 0.05021 0.0
O84 O 0.64503 0.82842 0.98972 0.0
O85 O 0.671 0.78863 1.02318 0.0
C86 C 0.59652 0.80099 0.92936 0.0
O87 O 0.63703 0.7846 1.00092 0.0
C88 C 0.66795 0.78655 0.91117 0.0
C89 C 0.65828 0.84501 0.91457 0.0
O90 O 0.60455 0.80102 0.96742 0.0
O91 O 0.61075 0.80319 0.90062 0.0
O92 O 0.64909 0.78352 0.89959 0.0
O93 O 0.66756 0.79901 0.94204 0.0
O94 O 0.6411 0.83422 0.91494 0.0
O95 O 0.67431 0.84076 0.93943 0.0
C96 C 0.71286 0.83252 1.01564 0.0
O97 O 0.6955 0.84155 1.02238 0.0
O98 O 0.70962 0.81524 0.99586 0.0
C99 C 0.64147 0.82913 0.02946 0.0
Tb100 Tb 0.43203 0.42517 0.7453 0.0
C101 C 0.47392 0.40495 0.77619 0.0
Tb102 Tb 0.44815 0.38586 0.69999 0.0
O103 O 0.40613 0.40819 0.77111 0.0
O104 O 0.43384 0.3931 0.7596 0.0
O105 O 0.46186 0.42143 0.77769 0.0
C106 C 0.46055 0.34898 0.67676 0.0
O107 O 0.47018 0.3889 0.75138 0.0
C108 C 0.45837 0.41903 0.65562 0.0
C109 C 0.4058 0.40406 0.67197 0.0
O110 O 0.47203 0.36508 0.67982 0.0
O111 O 0.44182 0.35338 0.68786 0.0
O112 O 0.46189 0.40045 0.64323 0.0
O113 O 0.44919 0.41766 0.69096 0.0
O114 O 0.41745 0.38746 0.67454 0.0
O115 O 0.41005 0.42148 0.6925 0.0
C116 C 0.42342 0.46278 0.77355 0.0
O117 O 0.42253 0.44612 0.79619 0.0
O118 O 0.42969 0.45836 0.73505 0.0
C119 C 0.41532 0.39055 0.77043 0.0
Tb120 Tb 0.82512 0.1806 0.4959 0.0
C121 C 0.84603 0.21995 0.53913 0.0
Tb122 Tb 0.86459 0.19885 0.45571 0.0
O123 O 0.84226 0.15505 0.52384 0.0
O124 O 0.8567 0.18276 0.51251 0.0
O125 O 0.82957 0.20771 0.53796 0.0
C126 C 0.90248 0.20851 0.43425 0.0
O127 O 0.86164 0.21817 0.51202 0.0
C128 C 0.83196 0.21091 0.41147 0.0
C129 C 0.84598 0.15903 0.41687 0.0
O130 O 0.88721 0.22117 0.43556 0.0
O131 O 0.89666 0.19033 0.44618 0.0
O132 O 0.85063 0.2161 0.40277 0.0
O133 O 0.83272 0.19948 0.44395 0.0
O134 O 0.86299 0.16934 0.42483 0.0
O135 O 0.82817 0.16362 0.43538 0.0
C136 C 0.78737 0.1693 0.51933 0.0
O137 O 0.80276 0.15723 0.51296 0.0
O138 O 0.79315 0.18813 0.51295 0.0
C139 C 0.85976 0.16436 0.52286 0.0
Tb140 Tb 0.06969 0.5765 0.24318 0.0
C141 C 0.02789 0.59663 0.27189 0.0
Tb142 Tb 0.05504 0.61614 0.19772 0.0
O143 O 0.07476 0.5942 0.30187 0.0
O144 O 0.07815 0.60796 0.24213 0.0
O145 O 0.03919 0.57961 0.2723 0.0
C146 C 0.04953 0.65572 0.18365 0.0
O147 O 0.03241 0.61293 0.24833 0.0
C148 C 0.03845 0.58392 0.1599 0.0
C149 C 0.09606 0.59601 0.16666 0.0
O150 O 0.04984 0.64709 0.22117 0.0
O151 O 0.0522 0.64205 0.15391 0.0
O152 O 0.035 0.60279 0.14874 0.0
O153 O 0.05049 0.58435 0.19157 0.0
O154 O 0.08452 0.61268 0.16745 0.0
O155 O 0.09227 0.57956 0.19079 0.0
C156 C 0.08446 0.53989 0.26581 0.0
O157 O 0.09319 0.55741 0.27265 0.0
O158 O 0.06714 0.54288 0.24614 0.0
C159 C 0.07825 0.61132 0.28194 0.0
Tb160 Tb 0.86472 0.69625 0.60295 0.0
C161 C 0.8441 0.6556 0.63402 0.0
Tb162 Tb 0.82457 0.68214 0.55828 0.0
O163 O 0.85154 0.71601 0.65295 0.0
O164 O 0.83302 0.70078 0.61014 0.0
O165 O 0.86119 0.66641 0.63131 0.0
C166 C 0.78765 0.6678 0.53742 0.0
O167 O 0.82725 0.6602 0.61191 0.0
C168 C 0.85898 0.67358 0.51792 0.0
C169 C 0.84526 0.72394 0.53018 0.0
O170 O 0.80452 0.65736 0.53754 0.0
O171 O 0.79147 0.68659 0.54897 0.0
O172 O 0.84162 0.67676 0.49878 0.0
O173 O 0.85594 0.67359 0.55782 0.0
O174 O 0.82808 0.71284 0.52998 0.0
O175 O 0.86167 0.71913 0.55305 0.0
C176 C 0.90418 0.70071 0.61909 0.0
O177 O 0.89009 0.69834 0.64804 0.0
O178 O 0.89605 0.70079 0.58108 0.0
C179 C 0.83265 0.71253 0.64219 0.0
Tb180 Tb 0.05395 0.11641 0.8565 0.0
C181 C 0.09374 0.09589 0.89263 0.0
Tb182 Tb 0.06922 0.07606 0.81416 0.0
O183 O 0.0319 0.1032 0.90243 0.0
O184 O 0.04872 0.08478 0.86246 0.0
O185 O 0.0829 0.1129 0.88866 0.0
C186 C 0.08367 0.03903 0.7942 0.0
O187 O 0.08992 0.07902 0.86982 0.0
C188 C 0.07946 0.11032 0.77516 0.0
C189 C 0.03017 0.0982 0.77658 0.0
O190 O 0.09351 0.05618 0.7905 0.0
O191 O 0.06541 0.04262 0.80926 0.0
O192 O 0.07646 0.09301 0.7556 0.0
O193 O 0.07817 0.10741 0.81508 0.0
O194 O 0.03975 0.08023 0.78078 0.0
O195 O 0.03465 0.11448 0.80022 0.0
C196 C 0.04889 0.15575 0.87372 0.0
O197 O 0.0494 0.14788 0.83549 0.0
O198 O 0.05104 0.14147 0.9023 0.0
C199 C 0.03578 0.0843 0.89237 0.0
Tb200 Tb 0.63599 0.30499 0.10826 0.0
C201 C 0.65843 0.34494 0.13815 0.0
Tb202 Tb 0.67643 0.3175 0.06216 0.0
O203 O 0.64866 0.28449 0.1574 0.0
O204 O 0.66751 0.29913 0.11417 0.0
O205 O 0.64097 0.33462 0.13706 0.0
C206 C 0.71367 0.33065 0.04043 0.0
O207 O 0.67483 0.33972 0.11519 0.0
C208 C 0.64216 0.32728 1.02296 0.0
C209 C 0.654 0.27675 0.0342 0.0
O210 O 0.69715 0.34163 0.04107 0.0
O211 O 0.70932 0.31196 0.05188 0.0
O212 O 0.65925 0.32347 1.00317 0.0
O213 O 0.64542 0.32719 0.06276 0.0
O214 O 0.67166 0.28704 0.03397 0.0
O215 O 0.63791 0.28225 0.0576 0.0
C216 C 0.5964 0.30177 0.12477 0.0
O217 O 0.6106 0.30365 0.15361 0.0
O218 O 0.60449 0.30152 0.08671 0.0
C219 C 0.6676 0.2872 0.14595 0.0
Tb220 Tb 0.45144 0.88663 0.34738 0.0
C221 C 0.40927 0.90087 0.38166 0.0
Tb222 Tb 0.43207 0.92592 0.30985 0.0
O223 O 0.46588 0.89967 0.40485 0.0
O224 O 0.44999 0.91807 0.36333 0.0
O225 O 0.42064 0.88484 0.37159 0.0
C226 C 0.42025 0.96409 0.291 0.0
O227 O 0.41358 0.91962 0.36744 0.0
C228 C 0.41852 0.89154 0.27564 0.0
C229 C 0.47418 0.90949 0.2711 0.0
O230 O 0.40829 0.94896 0.3005 0.0
O231 O 0.43914 0.95783 0.29204 0.0
O232 O 0.409 0.90892 0.27359 0.0
O233 O 0.43631 0.89497 0.2896 0.0
O234 O 0.46045 0.92464 0.27119 0.0
O235 O 0.47264 0.89299 0.29565 0.0
C236 C 0.4641 0.84889 0.36294 0.0
O237 O 0.47586 0.86431 0.35413 0.0
O238 O 0.44504 0.85457 0.36235 0.0
C239 C 0.46031 0.91835 0.39739 0.0
Tb240 Tb 0.1755 0.31994 0.49767 0.0
C241 C 0.15703 0.27792 0.52822 0.0
Tb242 Tb 0.13629 0.30405 0.45411 0.0
O243 O 0.15849 0.32419 0.55759 0.0
O244 O 0.14373 0.32726 0.49895 0.0
O245 O 0.17383 0.28947 0.52719 0.0
C246 C 0.09754 0.29469 0.43954 0.0
O247 O 0.14035 0.28213 0.50575 0.0
C248 C 0.16847 0.28871 0.41382 0.0
C249 C 0.15371 0.34641 0.42437 0.0
O250 O 0.10691 0.29231 0.47589 0.0
O251 O 0.10988 0.3027 0.4115 0.0
O252 O 0.14961 0.28493 0.40358 0.0
O253 O 0.16817 0.30059 0.44576 0.0
O254 O 0.13739 0.3344 0.42679 0.0
O255 O 0.1709 0.34262 0.44602 0.0
C256 C 0.212 0.33563 0.51783 0.0
O257 O 0.19442 0.34409 0.52537 0.0
O258 O 0.20914 0.3181 0.49889 0.0
C259 C 0.14095 0.32707 0.53895 0.0
Tb260 Tb 0.92987 0.92856 0.24421 0.0
C261 C 0.96992 0.90882 0.28179 0.0
Tb262 Tb 0.94644 0.88819 0.20408 0.0
O263 O 0.9236 0.91223 0.30415 0.0
O264 O 0.92219 0.89687 0.2456 0.0
O265 O 0.95978 0.92635 0.27631 0.0
C266 C 0.95537 0.84907 0.19156 0.0
O267 O 0.96563 0.89183 0.26038 0.0
C268 C 0.96316 0.92042 0.16554 0.0
C269 C 0.9052 0.9061 0.16886 0.0
O270 O 0.95528 0.85827 0.22848 0.0
O271 O 0.95015 0.86187 0.16161 0.0
O272 O 0.96752 0.90154 0.15638 0.0
O273 O 0.95043 0.91989 0.19586 0.0
O274 O 0.9169 0.88963 0.17318 0.0
O275 O 0.90859 0.92349 0.19024 0.0
C276 C 0.91492 0.96581 0.26094 0.0
O277 O 0.9058 0.94858 0.26888 0.0
O278 O 0.93267 0.96214 0.24357 0.0
C279 C 0.92117 0.89454 0.28568 0.0
Tb280 Tb 0.32524 0.6831 0.98949 0.0
C281 C 0.34417 0.72518 1.01834 0.0
Tb282 Tb 0.36451 0.69851 0.94407 0.0
O283 O 0.34266 0.67915 0.0488 0.0
O284 O 0.35693 0.67559 0.98949 0.0
O285 O 0.32743 0.71354 1.01867 0.0
C286 C 0.40362 0.70725 0.93101 0.0
O287 O 0.36052 0.72117 0.99456 0.0
C288 C 0.33208 0.7141 0.90525 0.0
C289 C 0.34639 0.65606 0.91594 0.0
O290 O 0.39455 0.70709 0.96808 0.0
O291 O 0.39071 0.70216 0.90118 0.0
O292 O 0.35089 0.71772 0.89411 0.0
O293 O 0.3326 0.70225 0.93728 0.0
O294 O 0.36256 0.66835 0.91565 0.0
O295 O 0.32971 0.65967 0.93947 0.0
C296 C 0.28863 0.66795 1.01099 0.0
O297 O 0.30619 0.65997 1.02064 0.0
O298 O 0.29158 0.6847 0.98919 0.0
C299 C 0.36 0.67602 0.0294 0.0
Tb300 Tb 0.56935 0.07341 0.74832 0.0
C301 C 0.52975 0.09375 0.78912 0.0
Tb302 Tb 0.5517 0.11348 0.70907 0.0
O303 O 0.59568 0.0902 0.77418 0.0
O304 O 0.56783 0.10495 0.76521 0.0
O305 O 0.54006 0.07633 0.78336 0.0
C306 C 0.5406 0.15141 0.69119 0.0
O307 O 0.53383 0.11074 0.76744 0.0
C308 C 0.53852 0.08127 0.66495 0.0
C309 C 0.5937 0.09627 0.67495 0.0
O310 O 0.52825 0.13665 0.70144 0.0
O311 O 0.55946 0.14499 0.69173 0.0
O312 O 0.53404 0.1001 0.65611 0.0
O313 O 0.54997 0.0817 0.6974 0.0
O314 O 0.58166 0.11248 0.67933 0.0
O315 O 0.59037 0.07847 0.6946 0.0
C316 C 0.57876 0.03542 0.77265 0.0
O317 O 0.5732 0.04075 0.73421 0.0
O318 O 0.57849 0.05139 0.79747 0.0
C319 C 0.58635 0.10775 0.77486 0.0
C320 C 0.43157 0.21988 0.16253 0.0
C321 C 0.42333 0.21999 0.12097 0.0
C322 C 0.4492 0.23118 0.17162 0.0
C323 C 0.47819 0.27534 0.13126 0.0
H324 H 0.52472 0.25123 0.18961 0.0
C325 C 0.56057 0.29846 0.09997 0.0
C326 C 0.57468 0.29839 0.13376 0.0
C327 C 0.54033 0.2928 0.10731 0.0
C328 C 0.51167 0.25837 0.17425 0.0
H329 H 0.42727 0.23105 0.05592 0.0
H330 H 0.45818 0.25051 0.07157 0.0
H331 H 0.49263 0.23214 0.18502 0.0
H332 H 0.57882 0.29351 0.20198 0.0
H333 H 0.54324 0.28323 0.21479 0.0
H334 H 0.49749 0.30114 0.11872 0.0
C335 C 0.45084 0.24212 0.09734 0.0
C336 C 0.49336 0.24742 0.17149 0.0
C337 C 0.43331 0.23082 0.08827 0.0
C338 C 0.56812 0.29359 0.17544 0.0
C339 C 0.54787 0.28769 0.18275 0.0
C340 C 0.49645 0.28626 0.13398 0.0
C341 C 0.45867 0.24277 0.13925 0.0
C342 C 0.47677 0.25551 0.1485 0.0
C343 C 0.53395 0.28683 0.14852 0.0
C344 C 0.51356 0.27753 0.15406 0.0
H345 H 0.42403 0.21164 0.18825 0.0
H346 H 0.45505 0.23138 0.20413 0.0
H347 H 0.4654 0.28209 0.11423 0.0
H348 H 0.56533 0.30222 0.0676 0.0
H349 H 0.52996 0.29201 0.08025 0.0
C350 C 0.51656 0.67209 0.40674 0.0
C351 C 0.5361 0.66993 0.38854 0.0
C352 C 0.50889 0.69144 0.41602 0.0
C353 C 0.52164 0.74605 0.42673 0.0
H354 H 0.46866 0.75381 0.37279 0.0
C355 C 0.49255 0.82426 0.37158 0.0
C356 C 0.47156 0.82851 0.37434 0.0
C357 C 0.49992 0.80499 0.38258 0.0
C358 C 0.48321 0.75186 0.38893 0.0
H359 H 0.56352 0.68584 0.36802 0.0
H360 H 0.54986 0.72003 0.38352 0.0
H361 H 0.4832 0.71968 0.37714 0.0
H362 H 0.44175 0.81648 0.39168 0.0
H363 H 0.45467 0.78262 0.41149 0.0
H364 H 0.52181 0.77842 0.43755 0.0
C365 C 0.54062 0.70672 0.39104 0.0
C366 C 0.49156 0.73231 0.39135 0.0
C367 C 0.54836 0.68725 0.38189 0.0
C368 C 0.45801 0.8134 0.38895 0.0
C369 C 0.4654 0.7941 0.40026 0.0
C370 C 0.51321 0.76565 0.42456 0.0
C371 C 0.52058 0.70893 0.40699 0.0
C372 C 0.51102 0.72931 0.40944 0.0
C373 C 0.48642 0.78967 0.39679 0.0
C374 C 0.49413 0.76878 0.40469 0.0
H375 H 0.50694 0.65886 0.41272 0.0
H376 H 0.49352 0.69276 0.42888 0.0
H377 H 0.53659 0.74402 0.4412 0.0
H378 H 0.50328 0.83576 0.36041 0.0
H379 H 0.51613 0.80192 0.37875 0.0
C380 C 0.06795 0.7845 0.65726 0.0
C381 C 0.07617 0.78452 0.61565 0.0
C382 C 0.05043 0.77301 0.66637 0.0
C383 C 0.02201 0.72858 0.62583 0.0
H384 H 0.97517 0.75198 0.68461 0.0
C385 C 0.93992 0.70483 0.59414 0.0
C386 C 0.92582 0.70449 0.62799 0.0
C387 C 0.96009 0.71069 0.60158 0.0
C388 C 0.98832 0.74504 0.66913 0.0
H389 H 0.07228 0.77358 0.55051 0.0
H390 H 0.04154 0.75383 0.56619 0.0
H391 H 0.00702 0.77147 0.68012 0.0
H392 H 0.92161 0.70888 0.69637 0.0
H393 H 0.95706 0.71953 0.70933 0.0
H394 H 0.00302 0.70259 0.61302 0.0
C395 C 0.04883 0.76223 0.59198 0.0
C396 C 0.00648 0.75622 0.66644 0.0
C397 C 0.06624 0.7737 0.5829 0.0
C398 C 0.93231 0.70913 0.66978 0.0
C399 C 0.95248 0.71522 0.67718 0.0
C400 C 0.00388 0.71744 0.62848 0.0
C401 C 0.04106 0.7614 0.63396 0.0
C402 C 0.02316 0.7484 0.64326 0.0
C403 C 0.96639 0.71645 0.64294 0.0
C404 C 0.98667 0.72593 0.64869 0.0
H405 H 0.07545 0.79272 0.68302 0.0
H406 H 0.04462 0.77267 0.69893 0.0
H407 H 0.03488 0.72204 0.60867 0.0
H408 H 0.93522 0.70121 0.56169 0.0
H409 H 0.97046 0.71177 0.57451 0.0
C410 C 0.96596 0.32028 0.91498 0.0
C411 C 0.96553 0.32808 0.87303 0.0
C412 C 0.97718 0.30259 0.9241 0.0
C413 C 0.02079 0.27352 0.88281 0.0
H414 H 0.99729 0.22668 0.94145 0.0
C415 C 0.04447 0.19158 0.8496 0.0
C416 C 0.04481 0.17731 0.88311 0.0
C417 C 0.03849 0.21169 0.85747 0.0
C418 C 0.00426 0.23983 0.92601 0.0
H419 H 0.9754 0.32326 0.80739 0.0
H420 H 0.99477 0.29232 0.82319 0.0
H421 H 0.97802 0.25873 0.93773 0.0
H422 H 0.04023 0.17272 0.95132 0.0
H423 H 0.0294 0.20807 0.96507 0.0
H424 H 0.04661 0.25443 0.8694 0.0
C425 C 0.98685 0.30002 0.84914 0.0
C426 C 0.99321 0.25809 0.92376 0.0
C427 C 0.97561 0.31756 0.84004 0.0
C428 C 0.03998 0.18355 0.92499 0.0
C429 C 0.03379 0.20367 0.93284 0.0
C430 C 0.03182 0.25533 0.8851 0.0
C431 C 0.98814 0.29269 0.89138 0.0
C432 C 0.00106 0.27475 0.90058 0.0
C433 C 0.03263 0.21777 0.89894 0.0
C434 C 0.02329 0.23809 0.90518 0.0
H435 H 0.95828 0.32824 0.94091 0.0
H436 H 0.97787 0.29708 0.95685 0.0
H437 H 0.02732 0.28639 0.86559 0.0
H438 H 0.04822 0.18707 0.81708 0.0
H439 H 0.03745 0.22219 0.83064 0.0
C440 C 0.56834 0.79271 0.87847 0.0
C441 C 0.5749 0.79692 0.9204 0.0
C442 C 0.54825 0.78625 0.87106 0.0
C443 C 0.49718 0.78203 0.92181 0.0
H444 H 0.49356 0.73046 0.86021 0.0
C445 C 0.43505 0.72392 0.95816 0.0
C446 C 0.42398 0.71595 0.92348 0.0
C447 C 0.4528 0.7352 0.95097 0.0
C448 C 0.49429 0.74503 0.87683 0.0
H449 H 0.56571 0.79898 0.98704 0.0
H450 H 0.53075 0.78768 0.9743 0.0
H451 H 0.52543 0.75011 0.85833 0.0
H452 H 0.42313 0.71241 0.85436 0.0
H453 H 0.45467 0.73198 0.84177 0.0
H454 H 0.46639 0.77643 0.94204 0.0
C455 C 0.54091 0.78942 0.94706 0.0
C456 C 0.51244 0.75632 0.87562 0.0
C457 C 0.56095 0.79573 0.95445 0.0
C458 C 0.43149 0.71844 0.88158 0.0
C459 C 0.44941 0.72963 0.87438 0.0
C460 C 0.47912 0.77072 0.92319 0.0
C461 C 0.53451 0.78414 0.90547 0.0
C462 C 0.51425 0.77455 0.89938 0.0
C463 C 0.45983 0.73858 0.909 0.0
C464 C 0.4778 0.75179 0.90198 0.0
H465 H 0.5789 0.79361 0.85172 0.0
H466 H 0.54362 0.78241 0.83869 0.0
H467 H 0.49807 0.79622 0.93975 0.0
H468 H 0.42959 0.72213 0.99078 0.0
H469 H 0.46087 0.74159 0.97823 0.0
C470 C 0.48815 0.32774 0.64611 0.0
C471 C 0.4682 0.32905 0.6626 0.0
C472 C 0.49655 0.3088 0.63591 0.0
C473 C 0.48524 0.25406 0.61984 0.0
H474 H 0.53745 0.24641 0.67705 0.0
C475 C 0.51285 0.17644 0.67924 0.0
C476 C 0.53379 0.17181 0.67814 0.0
C477 C 0.50597 0.19565 0.66654 0.0
C478 C 0.52315 0.24836 0.65993 0.0
H479 H 0.44084 0.31205 0.67926 0.0
H480 H 0.45577 0.27855 0.66229 0.0
H481 H 0.52256 0.28042 0.67308 0.0
H482 H 0.56405 0.18311 0.66213 0.0
H483 H 0.55198 0.21699 0.63969 0.0
H484 H 0.48557 0.22178 0.60804 0.0
C485 C 0.46479 0.29223 0.65672 0.0
C486 C 0.51459 0.26784 0.65773 0.0
C487 C 0.45631 0.31129 0.66675 0.0
C488 C 0.54782 0.1865 0.66354 0.0
C489 C 0.54092 0.20578 0.65068 0.0
C490 C 0.49387 0.23455 0.62186 0.0
C491 C 0.48518 0.29085 0.64231 0.0
C492 C 0.4953 0.27076 0.63875 0.0
C493 C 0.51993 0.21055 0.65237 0.0
C494 C 0.51259 0.23146 0.64316 0.0
H495 H 0.49751 0.34132 0.64204 0.0
H496 H 0.51218 0.30814 0.62427 0.0
H497 H 0.47048 0.25602 0.60453 0.0
H498 H 0.50174 0.1653 0.69034 0.0
H499 H 0.48977 0.19901 0.66911 0.0
C500 C 0.92528 0.2306 0.39135 0.0
C501 C 0.92297 0.21417 0.41984 0.0
C502 C 0.94473 0.23746 0.38018 0.0
C503 C 1.0005 0.22633 0.39306 0.0
H504 H 0.00412 0.28569 0.3965 0.0
C505 C 0.0687 0.27166 0.45723 0.0
C506 C 0.07736 0.28626 0.42967 0.0
C507 C 0.0505 0.26196 0.44614 0.0
C508 C 0.00327 0.26912 0.39466 0.0
H509 H 0.93867 0.19128 0.45767 0.0
H510 H 0.97284 0.20404 0.44054 0.0
H511 H 0.9707 0.26939 0.39384 0.0
H512 H 0.0739 0.30266 0.36966 0.0
H513 H 0.04122 0.28619 0.35112 0.0
H514 H 0.03325 0.22639 0.39767 0.0
C515 C 0.95977 0.21126 0.42543 0.0
C516 C 0.98416 0.25971 0.39289 0.0
C517 C 0.94025 0.20403 0.43566 0.0
C518 C 0.06737 0.29145 0.39136 0.0
C519 C 0.04887 0.28203 0.38068 0.0
C520 C 0.0196 0.23578 0.39571 0.0
C521 C 0.96219 0.22841 0.39841 0.0
C522 C 0.98252 0.23819 0.39325 0.0
C523 C 0.04056 0.26702 0.40776 0.0
C524 C 0.02099 0.25719 0.39758 0.0
H525 H 0.91203 0.23835 0.37818 0.0
H526 H 0.94603 0.2503 0.35832 0.0
H527 H 0.9998 0.20975 0.3924 0.0
H528 H 0.07625 0.26735 0.48683 0.0
H529 H 0.04407 0.25062 0.4677 0.0
C530 C 0.0434 0.69073 0.21118 0.0
C531 C 0.04495 0.67736 0.17619 0.0
C532 C 0.03682 0.71079 0.20507 0.0
C533 C 0.00381 0.74013 0.13509 0.0
H534 H 0.02385 0.78551 0.20357 0.0
C535 C 0.96636 0.8211 0.14232 0.0
C536 C 0.96397 0.82867 0.18418 0.0
C537 C 0.97741 0.8031 0.13517 0.0
C538 C 0.01814 0.77295 0.18422 0.0
H539 H 0.04191 0.67441 0.10724 0.0
H540 H 0.03022 0.70971 0.09648 0.0
H541 H 0.04352 0.75378 0.20032 0.0
H542 H 0.97015 0.8231 0.25148 0.0
H543 H 0.98931 0.79162 0.23904 0.0
H544 H 0.9781 0.75922 0.12008 0.0
C545 C 0.03401 0.70461 0.12857 0.0
C546 C 0.02939 0.75488 0.18227 0.0
C547 C 0.04073 0.68452 0.1347 0.0
C548 C 0.97188 0.81759 0.2189 0.0
C549 C 0.98299 0.79973 0.21176 0.0
C550 C 0.99258 0.75829 0.13691 0.0
C551 C 0.03163 0.71778 0.16386 0.0
C552 C 0.02196 0.73806 0.15894 0.0
C553 C 0.98627 0.79263 0.16981 0.0
C554 C 0.99932 0.77454 0.16274 0.0
H555 H 0.04664 0.68552 0.24346 0.0
H556 H 0.03487 0.72051 0.23295 0.0
H557 H 0.99766 0.72732 0.11713 0.0
H558 H 0.96037 0.82947 0.11507 0.0
H559 H 0.97969 0.79781 0.10257 0.0
C560 C 0.12931 0.08472 0.91322 0.0
C561 C 0.11213 0.09723 0.92019 0.0
C562 C 0.14796 0.08923 0.93345 0.0
C563 C 0.17189 0.12292 1.01741 0.0
H564 H 0.21898 0.12034 0.9418 0.0
C565 C 0.24699 0.16969 0.04244 0.0
C566 C 0.26518 0.15845 0.03791 0.0
C567 C 0.22811 0.1607 0.03197 0.0
C568 C 0.20599 0.12102 0.9634 0.0
H569 H 0.10056 0.12314 0.95659 0.0
H570 H 0.13276 0.13117 0.99063 0.0
H571 H 0.18655 0.10562 0.91874 0.0
H572 H 0.278 0.12909 1.01927 0.0
H573 H 0.24529 0.11366 1.00046 0.0
H574 H 0.19136 0.13915 0.06126 0.0
C575 C 0.13209 0.11782 0.97005 0.0
C576 C 0.18742 0.1124 0.95038 0.0
C577 C 0.11356 0.1133 0.95011 0.0
C578 C 0.26421 0.13815 1.02303 0.0
C579 C 0.24551 0.12931 1.01208 0.0
C580 C 0.19042 0.1318 0.03016 0.0
C581 C 0.14974 0.1063 0.96096 0.0
C582 C 0.17004 0.1134 0.97701 0.0
C583 C 0.22728 0.14048 1.01625 0.0
C584 C 0.2076 0.13104 1.00314 0.0
H585 H 0.12868 0.07222 0.89041 0.0
H586 H 0.16115 0.07975 0.92639 0.0
H587 H 0.15896 0.1237 0.03912 0.0
H588 H 0.24735 0.18535 0.05392 0.0
H589 H 0.21424 0.16966 0.03525 0.0
C590 C 0.64561 0.36672 0.19776 0.0
C591 C 0.65807 0.36462 0.16127 0.0
C592 C 0.64072 0.3861 0.21362 0.0
C593 C 0.63072 0.43648 0.17194 0.0
H594 H 0.62642 0.45274 0.29121 0.0
C595 C 0.59746 0.51497 0.22134 0.0
C596 C 0.5863 0.51619 0.25975 0.0
C597 C 0.60771 0.49696 0.21024 0.0
C598 C 0.62724 0.44834 0.25777 0.0
H599 H 0.67621 0.381 0.11422 0.0
H600 H 0.66736 0.41509 0.14167 0.0
H601 H 0.64384 0.42086 0.27252 0.0
H602 H 0.57649 0.49944 0.31606 0.0
H603 H 0.59361 0.46758 0.29587 0.0
H604 H 0.61333 0.46324 0.157 0.0
C605 C 0.66152 0.40167 0.15807 0.0
C606 C 0.63742 0.43018 0.24712 0.0
C607 C 0.66674 0.3822 0.14267 0.0
C608 C 0.58501 0.49887 0.28625 0.0
C609 C 0.59505 0.48072 0.27488 0.0
C610 C 0.62029 0.45446 0.18259 0.0
C611 C 0.6479 0.40378 0.19279 0.0
C612 C 0.63917 0.42403 0.20411 0.0
C613 C 0.60682 0.47962 0.23703 0.0
C614 C 0.61827 0.46059 0.22568 0.0
H615 H 0.6387 0.35338 0.21258 0.0
H616 H 0.63012 0.38727 0.24028 0.0
H617 H 0.63147 0.43189 0.13858 0.0
H618 H 0.59887 0.52819 0.20051 0.0
H619 H 0.61682 0.49687 0.1812 0.0
C620 C 0.37425 0.91067 0.40912 0.0
C621 C 0.39082 0.89692 0.40804 0.0
C622 C 0.35581 0.90504 0.42916 0.0
C623 C 0.32672 0.85855 0.45443 0.0
H624 H 0.29393 0.89329 0.52823 0.0
C625 C 0.25312 0.82808 0.53446 0.0
C626 C 0.23634 0.84147 0.53561 0.0
C627 C 0.27255 0.83535 0.52289 0.0
C628 C 0.30281 0.88346 0.50732 0.0
H629 H 0.40151 0.86716 0.42988 0.0
H630 H 0.36967 0.85757 0.4645 0.0
H631 H 0.32659 0.90596 0.50031 0.0
H632 H 0.22664 0.87293 0.52634 0.0
H633 H 0.26022 0.88546 0.50518 0.0
H634 H 0.30294 0.83625 0.46023 0.0
C635 C 0.37068 0.87245 0.44921 0.0
C636 C 0.32151 0.89074 0.49141 0.0
C637 C 0.38897 0.87803 0.42942 0.0
C638 C 0.23935 0.86226 0.52583 0.0
C639 C 0.25867 0.86949 0.51399 0.0
C640 C 0.30801 0.85135 0.46998 0.0
C641 C 0.35371 0.8856 0.44826 0.0
C642 C 0.33369 0.87831 0.46496 0.0
C643 C 0.27551 0.85611 0.51194 0.0
C644 C 0.29579 0.86366 0.4967 0.0
H645 H 0.3752 0.92531 0.39291 0.0
H646 H 0.34294 0.91549 0.42799 0.0
H647 H 0.33562 0.84874 0.43348 0.0
H648 H 0.2512 0.812 0.54208 0.0
H649 H 0.28523 0.82466 0.52237 0.0
C650 C 0.83317 0.6194 0.65033 0.0
C651 C 0.8452 0.63664 0.65991 0.0
C652 C 0.83754 0.60041 0.66942 0.0
C653 C 0.86955 0.57591 0.7553 0.0
H654 H 0.87027 0.52979 0.67707 0.0
C655 C 0.90208 0.49736 0.80651 0.0
C656 C 0.91217 0.48557 0.77537 0.0
C657 C 0.89156 0.51516 0.79491 0.0
C658 C 0.8704 0.54256 0.69926 0.0
H659 H 0.87013 0.64791 0.69942 0.0
H660 H 0.87794 0.61524 0.73158 0.0
H661 H 0.85485 0.56193 0.65456 0.0
H662 H 0.91972 0.4833 0.70793 0.0
H663 H 0.90237 0.51498 0.68779 0.0
H664 H 0.88636 0.55716 0.79883 0.0
C665 C 0.86503 0.61606 0.70987 0.0
C666 C 0.86114 0.56092 0.68661 0.0
C667 C 0.86065 0.63488 0.69102 0.0
C668 C 0.91204 0.49215 0.73255 0.0
C669 C 0.90183 0.51017 0.721 0.0
C670 C 0.8791 0.5577 0.76766 0.0
C671 C 0.85397 0.59841 0.69848 0.0
C672 C 0.86097 0.57799 0.71415 0.0
C673 C 0.8912 0.5218 0.75194 0.0
C674 C 0.87998 0.54085 0.73956 0.0
H675 H 0.82117 0.62029 0.62643 0.0
H676 H 0.82848 0.5872 0.66042 0.0
H677 H 0.86939 0.58857 0.77775 0.0
H678 H 0.90173 0.49248 0.83972 0.0
H679 H 0.88332 0.5234 0.81962 0.0
C680 C 0.73342 0.86004 0.04994 0.0
C681 C 0.73285 0.8413 0.02781 0.0
C682 C 0.75207 0.8689 0.06136 0.0
C683 C 0.80719 0.86907 0.03555 0.0
H684 H 0.81255 0.89221 0.1496 0.0
C685 C 0.88485 0.8872 0.11403 0.0
C686 C 0.88637 0.90367 0.14296 0.0
C687 C 0.86616 0.88222 0.09511 0.0
C688 C 0.81122 0.88621 0.11733 0.0
H689 H 0.75127 0.81713 1.00001 0.0
H690 H 0.78414 0.8326 1.02032 0.0
H691 H 0.78006 0.87732 0.12745 0.0
H692 H 0.86968 0.92866 0.17256 0.0
H693 H 0.8369 0.92008 0.13897 0.0
H694 H 0.83848 0.87775 1.02567 0.0
C695 C 0.77008 0.8405 0.0285 0.0
C696 C 0.7926 0.87756 0.1047 0.0
C697 C 0.75132 0.83157 1.01714 0.0
C698 C 0.86901 0.91588 0.15043 0.0
C699 C 0.8502 0.91083 0.13153 0.0
C700 C 0.82583 0.87777 0.04816 0.0
C701 C 0.77064 0.85926 0.05087 0.0
C702 C 0.79041 0.86873 0.06381 0.0
C703 C 0.84846 0.89357 0.10462 0.0
C704 C 0.82813 0.88625 0.08939 0.0
H705 H 0.71939 0.86794 0.0584 0.0
H706 H 0.75193 0.88347 0.07802 0.0
H707 H 0.80589 0.8627 1.00359 0.0
H708 H 0.89797 0.87755 0.10731 0.0
H709 H 0.86541 0.86876 0.07485 0.0
C710 C 0.3619 0.63459 0.85831 0.0
C711 C 0.34855 0.63624 0.89352 0.0
C712 C 0.36727 0.6154 0.84201 0.0
C713 C 0.3757 0.56387 0.8797 0.0
H714 H 0.37972 0.54939 0.75938 0.0
C715 C 0.40432 0.48433 0.82592 0.0
C716 C 0.41553 0.48285 0.78764 0.0
C717 C 0.39514 0.5028 0.83779 0.0
C718 C 0.37901 0.55329 0.7931 0.0
H719 H 0.32957 0.61918 0.93805 0.0
H720 H 0.33927 0.58549 0.90991 0.0
H721 H 0.36391 0.58183 0.78014 0.0
H722 H 0.42646 0.49957 0.73219 0.0
H723 H 0.41123 0.53219 0.75374 0.0
H724 H 0.39156 0.53598 0.89297 0.0
C725 C 0.34546 0.59911 0.89486 0.0
C726 C 0.36976 0.57179 0.80493 0.0
C727 C 0.33978 0.61837 0.91068 0.0
C728 C 0.41786 0.50032 0.76189 0.0
C729 C 0.40892 0.51894 0.77406 0.0
C730 C 0.38523 0.54555 0.86791 0.0
C731 C 0.35965 0.59746 0.86108 0.0
C732 C 0.36803 0.57724 0.84834 0.0
C733 C 0.39721 0.52037 0.81196 0.0
C734 C 0.38705 0.53998 0.82443 0.0
H735 H 0.36887 0.64813 0.84444 0.0
H736 H 0.3783 0.61456 0.81609 0.0
H737 H 0.37494 0.56789 0.91338 0.0
H738 H 0.4021 0.47102 0.84618 0.0
H739 H 0.38598 0.50311 0.86676 0.0
C740 C 0.63143 0.09164 0.66695 0.0
C741 C 0.61291 0.09939 0.651 0.0
C742 C 0.6501 0.09819 0.64963 0.0
C743 C 0.67173 0.14137 0.58538 0.0
H744 H 0.72057 0.10779 0.58833 0.0
C745 C 0.7523 0.17501 0.55029 0.0
C746 C 0.76674 0.16204 0.53104 0.0
C747 C 0.73328 0.16723 0.56349 0.0
C748 C 0.70706 0.11737 0.58656 0.0
H749 H 0.59917 0.11889 0.60281 0.0
H750 H 0.63155 0.12928 0.57068 0.0
H751 H 0.68809 0.09318 0.61008 0.0
H752 H 0.7725 0.13114 0.50867 0.0
H753 H 0.73923 0.11787 0.52932 0.0
H754 H 0.69054 0.16524 0.5598 0.0
C755 C 0.6319 0.11893 0.59779 0.0
C756 C 0.68839 0.10903 0.59983 0.0
C757 C 0.61329 0.11275 0.61576 0.0
C758 C 0.76169 0.14143 0.52395 0.0
C759 C 0.74264 0.13377 0.53622 0.0
C760 C 0.69034 0.1496 0.57134 0.0
C761 C 0.65061 0.11232 0.61542 0.0
C762 C 0.67044 0.12092 0.59964 0.0
C763 C 0.72825 0.14642 0.5569 0.0
C764 C 0.70831 0.13774 0.57183 0.0
H765 H 0.63154 0.08159 0.69461 0.0
H766 H 0.66409 0.0929 0.66456 0.0
H767 H 0.65841 0.15124 0.58555 0.0
H768 H 0.75591 0.19096 0.55623 0.0
H769 H 0.72276 0.17743 0.57973 0.0
C770 C 0.16396 0.38277 0.40779 0.0
C771 C 0.15145 0.36568 0.39972 0.0
C772 C 0.15947 0.40176 0.38894 0.0
C773 C 0.12806 0.42661 0.3035 0.0
H774 H 0.12831 0.47314 0.38076 0.0
C775 C 0.08346 0.50146 0.26834 0.0
C776 C 0.09328 0.51997 0.27846 0.0
C777 C 0.09217 0.48273 0.2806 0.0
C778 C 0.12838 0.46037 0.35857 0.0
H779 H 0.12521 0.35482 0.36348 0.0
H780 H 0.1174 0.38765 0.33119 0.0
H781 H 0.14202 0.4404 0.40486 0.0
H782 H 0.11987 0.5335 0.30897 0.0
H783 H 0.13503 0.50094 0.33023 0.0
H784 H 0.11397 0.44652 0.25756 0.0
C785 C 0.13069 0.38655 0.35181 0.0
C786 C 0.13634 0.44161 0.37233 0.0
C787 C 0.13511 0.3677 0.37066 0.0
C788 C 0.11192 0.51945 0.30089 0.0
C789 C 0.12056 0.5008 0.31325 0.0
C790 C 0.12004 0.44536 0.28979 0.0
C791 C 0.14249 0.40395 0.36145 0.0
C792 C 0.13605 0.42441 0.34517 0.0
C793 C 0.11079 0.48221 0.30336 0.0
C794 C 0.1199 0.46241 0.31732 0.0
H795 H 0.17664 0.38172 0.43004 0.0
H796 H 0.16903 0.41482 0.39659 0.0
H797 H 0.12786 0.41376 0.28152 0.0
H798 H 0.06908 0.50146 0.25106 0.0
H799 H 0.08415 0.46868 0.27289 0.0
C800 C 0.61618 0.60533 0.43878 0.0
C801 C 0.61578 0.59561 0.39869 0.0
C802 C 0.63479 0.6108 0.45758 0.0
C803 C 0.69173 0.60562 0.44663 0.0
H804 H 0.69084 0.6573 0.50796 0.0
C805 C 0.76477 0.63798 0.52492 0.0
C806 C 0.76757 0.65929 0.52542 0.0
C807 C 0.74611 0.62952 0.51214 0.0
C808 C 0.69149 0.64298 0.49048 0.0
H809 H 0.63429 0.58346 0.34707 0.0
H810 H 0.66686 0.59374 0.37877 0.0
H811 H 0.65921 0.64319 0.48041 0.0
H812 H 0.75323 0.68857 0.51304 0.0
H813 H 0.72084 0.67389 0.48867 0.0
H814 H 0.72422 0.60614 0.45415 0.0
C815 C 0.65295 0.59659 0.39669 0.0
C816 C 0.67318 0.6346 0.47534 0.0
C817 C 0.63429 0.59065 0.3784 0.0
C818 C 0.75136 0.67207 0.51315 0.0
C819 C 0.73277 0.6636 0.49946 0.0
C820 C 0.71011 0.6142 0.46106 0.0
C821 C 0.65342 0.60725 0.43605 0.0
C822 C 0.673 0.61576 0.45328 0.0
C823 C 0.7299 0.64217 0.49861 0.0
C824 C 0.71026 0.633 0.48328 0.0
H825 H 0.60203 0.60925 0.45503 0.0
H826 H 0.63446 0.61834 0.4885 0.0
H827 H 0.69229 0.591 0.43025 0.0
H828 H 0.77701 0.62779 0.53463 0.0
H829 H 0.74443 0.61303 0.51309 0.0
C830 C 0.11225 0.01772 0.76602 0.0
C831 C 0.09219 0.01891 0.78214 0.0
C832 C 0.12048 0.99895 0.75331 0.0
C833 C 0.11413 0.94294 0.76459 0.0
H834 H 0.14424 0.94109 0.65731 0.0
C835 C 0.12903 0.86822 0.67257 0.0
C836 C 0.14757 0.86567 0.65019 0.0
C837 C 0.12452 0.88662 0.69315 0.0
C838 C 0.13622 0.94139 0.68773 0.0
H839 H 0.06505 0.00145 0.79824 0.0
H840 H 0.07939 0.96846 0.77561 0.0
H841 H 0.13141 0.97376 0.68395 0.0
H842 H 0.17629 0.88027 0.63325 0.0
H843 H 0.16839 0.91265 0.66956 0.0
H844 H 0.11866 0.91049 0.76795 0.0
C845 C 0.08883 0.98206 0.77319 0.0
C846 C 0.12879 0.96011 0.70296 0.0
C847 C 0.08056 1.00092 0.78591 0.0
C848 C 0.16188 0.88176 0.65022 0.0
C849 C 0.15729 0.90033 0.67073 0.0
C850 C 0.12158 0.92421 0.74937 0.0
C851 C 0.10884 0.9809 0.75644 0.0
C852 C 0.11744 0.96108 0.7413 0.0
C853 C 0.13841 0.90304 0.6919 0.0
C854 C 0.13246 0.92317 0.71044 0.0
H855 H 0.1216 0.03136 0.76297 0.0
H856 H 0.13603 0.99857 0.74116 0.0
H857 H 0.10577 0.94321 0.79461 0.0
H858 H 0.11769 0.85611 0.67349 0.0
H859 H 0.10976 0.88823 0.70866 0.0
C860 C 0.74947 0.32552 1.01357 0.0
C861 C 0.73394 0.33862 0.02827 0.0
C862 C 0.76816 0.33364 0.99943 0.0
C863 C 0.80337 0.37574 1.01189 0.0
H864 H 0.81935 0.36695 0.89336 0.0
C865 C 0.8842 0.38851 0.9378 0.0
C866 C 0.8848 0.4012 0.90145 0.0
C867 C 0.86549 0.38296 0.95608 0.0
C868 C 0.81497 0.36957 0.92645 0.0
H869 H 0.7258 0.37024 0.04116 0.0
H870 H 0.75874 0.38429 1.018 0.0
H871 H 0.78764 0.35148 0.92075 0.0
H872 H 0.86654 0.41832 0.85592 0.0
H873 H 0.83354 0.40796 0.88726 0.0
H874 H 0.83107 0.39327 1.01792 0.0
C875 C 0.75635 0.36786 1.01677 0.0
C876 C 0.79702 0.3606 0.94213 0.0
C877 C 0.73755 0.35983 0.02985 0.0
C878 C 0.86642 0.40876 0.88434 0.0
C879 C 0.84763 0.40274 0.90197 0.0
C880 C 0.82158 0.3843 0.99647 0.0
C881 C 0.77169 0.35488 1.00093 0.0
C882 C 0.79107 0.36368 0.98491 0.0
C883 C 0.84707 0.38956 0.93758 0.0
C884 C 0.82743 0.38137 0.95358 0.0
H885 H 0.74698 0.30913 1.01196 0.0
H886 H 0.77987 0.32338 0.98736 0.0
H887 H 0.799 0.37831 0.04498 0.0
H888 H 0.89822 0.38243 0.95134 0.0
H889 H 0.86536 0.37269 0.9834 0.0
C890 C 0.42561 0.99833 0.25656 0.0
C891 C 0.41301 0.98468 0.27913 0.0
C892 C 0.41791 0.01724 0.24276 0.0
C893 C 0.36834 0.04456 0.2243 0.0
H894 H 0.40393 0.09187 0.21602 0.0
C895 C 0.34333 0.11964 0.14003 0.0
C896 C 0.35222 0.13808 0.15366 0.0
C897 C 0.34961 0.101 0.158 0.0
C898 C 0.3936 0.07896 0.21878 0.0
H899 H 0.38284 0.98019 0.30649 0.0
H900 H 0.3697 0.01342 0.28456 0.0
H901 H 0.41744 0.05989 0.2433 0.0
H902 H 0.37346 0.15185 0.19849 0.0
H903 H 0.38344 0.11966 0.23175 0.0
H904 H 0.34425 0.06392 0.20173 0.0
C905 C 0.38524 0.00942 0.27579 0.0
C906 C 0.40152 0.0604 0.23371 0.0
C907 C 0.39283 0.99042 0.2888 0.0
C908 C 0.3665 0.13776 0.18723 0.0
C909 C 0.3724 0.11926 0.20587 0.0
C910 C 0.36033 0.06323 0.21008 0.0
C911 C 0.39754 0.02299 0.25198 0.0
C912 C 0.38904 0.0429 0.23652 0.0
C913 C 0.3646 0.10053 0.19053 0.0
C914 C 0.37286 0.0807 0.20696 0.0
H915 H 0.4412 0.99415 0.24848 0.0
H916 H 0.4278 0.02708 0.22399 0.0
H917 H 0.35828 0.03139 0.22519 0.0
H918 H 0.33247 0.11951 0.11378 0.0
H919 H 0.34336 0.08697 0.14493 0.0
C920 C 0.25038 0.33505 0.51888 0.0
C921 C 0.23189 0.34483 0.52923 0.0
C922 C 0.26911 0.34399 0.53023 0.0
C923 C 0.29164 0.38066 0.60673 0.0
H924 H 0.33806 0.37944 0.52916 0.0
C925 C 0.36976 0.41506 0.65515 0.0
C926 C 0.38654 0.40211 0.64732 0.0
C927 C 0.35072 0.41097 0.63626 0.0
C928 C 0.32525 0.37985 0.55125 0.0
H929 H 0.21837 0.37163 0.55902 0.0
H930 H 0.25096 0.38722 0.57872 0.0
H931 H 0.30511 0.36579 0.50572 0.0
H932 H 0.39683 0.37549 0.61147 0.0
H933 H 0.36388 0.36836 0.57909 0.0
H934 H 0.31185 0.39422 0.65265 0.0
C935 C 0.25108 0.3726 0.56226 0.0
C936 C 0.3064 0.37198 0.53784 0.0
C937 C 0.23242 0.36371 0.55081 0.0
C938 C 0.38418 0.38572 0.61847 0.0
C939 C 0.36528 0.3817 0.59955 0.0
C940 C 0.3105 0.38848 0.62018 0.0
C941 C 0.26964 0.36282 0.55226 0.0
C942 C 0.28945 0.37205 0.56564 0.0
C943 C 0.34818 0.39395 0.60896 0.0
C944 C 0.32762 0.38789 0.59284 0.0
H945 H 0.25036 0.32048 0.50223 0.0
H946 H 0.28315 0.33596 0.52249 0.0
H947 H 0.27893 0.38075 0.62909 0.0
H948 H 0.37109 0.42779 0.67727 0.0
H949 H 0.33788 0.42085 0.64374 0.0
C950 C 0.86399 0.14011 0.35888 0.0
C951 C 0.84788 0.14091 0.38874 0.0
C952 C 0.86907 0.12176 0.33865 0.0
C953 C 0.85274 0.06842 0.31695 0.0
H954 H 0.91116 0.05785 0.32222 0.0
C955 C 0.88742 0.98773 0.29208 0.0
C956 C 0.90631 0.98617 0.27076 0.0
C957 C 0.87927 0.00689 0.30245 0.0
C958 C 0.89485 0.06063 0.31975 0.0
H959 H 0.82354 0.12345 0.41868 0.0
H960 H 0.83253 0.0911 0.38333 0.0
H961 H 0.89791 0.09074 0.34577 0.0
H962 H 0.93133 0.00334 0.24268 0.0
H963 H 0.91699 0.03694 0.2602 0.0
H964 H 0.84974 0.03813 0.29118 0.0
C965 C 0.84115 0.10478 0.37544 0.0
C966 C 0.88722 0.07952 0.33332 0.0
C967 C 0.83596 0.12329 0.39561 0.0
C968 C 0.9168 0.00413 0.25938 0.0
C969 C 0.9086 0.02334 0.26961 0.0
C970 C 0.8604 0.04948 0.30316 0.0
C971 C 0.85828 0.10369 0.34801 0.0
C972 C 0.86609 0.08367 0.33214 0.0
C973 C 0.8898 0.02496 0.29159 0.0
C974 C 0.88156 0.04533 0.30455 0.0
H975 H 0.8733 0.15352 0.35251 0.0
H976 H 0.882 0.12156 0.31684 0.0
H977 H 0.8364 0.0712 0.3154 0.0
H978 H 0.87902 0.97409 0.30128 0.0
H979 H 0.86493 0.0075 0.31991 0.0
C980 C 0.13315 0.58754 0.15418 0.0
C981 C 0.11505 0.59732 0.14097 0.0
C982 C 0.15196 0.59277 0.13529 0.0
C983 C 0.17543 0.63735 0.08334 0.0
H984 H 0.22039 0.60081 0.05637 0.0
C985 C 0.2503 0.66756 1.00802 0.0
C986 C 0.26866 0.65902 1.02289 0.0
C987 C 0.23148 0.65884 1.01951 0.0
C988 C 0.20804 0.61125 0.06415 0.0
H989 H 0.10212 0.61866 0.09506 0.0
H990 H 0.13467 0.62743 0.06188 0.0
H991 H 0.18772 0.58661 0.08082 0.0
H992 H 0.2819 0.63472 0.0613 0.0
H993 H 0.24917 0.61982 0.08223 0.0
H994 H 0.19565 0.662 0.06787 0.0
C995 C 0.13453 0.61622 0.0875 0.0
C996 C 0.18933 0.60307 0.07805 0.0
C997 C 0.11586 0.61109 0.10636 0.0
C998 C 0.26794 0.6416 0.0493 0.0
C999 C 0.24917 0.63295 0.061 0.0
C1000 C 0.1941 0.64551 0.06976 0.0
C1001 C 0.15287 0.60778 0.10289 0.0
C1002 C 0.1728 0.61606 0.08761 0.0
C1003 C 0.23068 0.64147 0.04634 0.0
C1004 C 0.21066 0.63259 0.05993 0.0
H1005 H 0.13298 0.57695 0.18093 0.0
H1006 H 0.16587 0.58599 0.14779 0.0
H1007 H 0.16313 0.64781 0.09138 0.0
H1008 H 0.25047 0.68091 0.98738 0.0
H1009 H 0.21757 0.66563 1.0071 0.0
C1010 C 0.58657 0.99882 0.75574 0.0
C1011 C 0.58717 0.01529 0.78466 0.0
C1012 C 0.59615 0.98028 0.7659 0.0
C1013 C 0.63739 0.9587 0.8316 0.0
H1014 H 0.60822 0.90738 0.81846 0.0
C1015 C 0.66406 0.88264 0.90888 0.0
C1016 C 0.65785 0.86419 0.88983 0.0
C1017 C 0.65824 0.9014 0.89084 0.0
C1018 C 0.61685 0.92148 0.82143 0.0
H1019 H 0.59798 0.02536 0.84691 0.0
H1020 H 0.61482 0.993 0.86454 0.0
H1021 H 0.59168 0.93925 0.79793 0.0
H1022 H 0.64256 0.85065 0.83517 0.0
H1023 H 0.63349 0.88325 0.80225 0.0
H1024 H 0.66263 0.94098 0.85486 0.0
C1025 C 0.60703 0.99443 0.83402 0.0
C1026 C 0.60725 0.93977 0.8099 0.0
C1027 C 0.59724 0.01286 0.8241 0.0
C1028 C 0.64743 0.86473 0.85053 0.0
C1029 C 0.64199 0.88342 0.83205 0.0
C1030 C 0.64713 0.94035 0.84266 0.0
C1031 C 0.60672 0.97802 0.80489 0.0
C1032 C 0.61732 0.95857 0.81534 0.0
C1033 C 0.64638 0.90198 0.85309 0.0
C1034 C 0.6369 0.92149 0.83812 0.0
H1035 H 0.57897 1.00036 0.72504 0.0
H1036 H 0.59572 0.96786 0.74284 0.0
H1037 H 0.64559 0.973 0.83563 0.0
H1038 H 0.67187 0.88259 0.93952 0.0
H1039 H 0.66184 0.91532 0.90815 0.0
C1040 C 0.37287 0.14483 0.96912 0.0
C1041 C 0.37501 0.16046 0.99973 0.0
C1042 C 0.39002 0.13557 0.95075 0.0
C1043 C 0.44665 0.12933 0.96304 0.0
H1044 H 0.44267 0.11212 0.84423 0.0
C1045 C 0.51568 0.11215 0.85201 0.0
C1046 C 0.51422 0.09565 0.82325 0.0
C1047 C 0.49929 0.11724 0.87877 0.0
C1048 C 0.44393 0.11651 0.87764 0.0
H1049 H 0.39685 0.17852 0.03552 0.0
H1050 H 0.42708 0.16309 1.00189 0.0
H1051 H 0.41336 0.12803 0.87881 0.0
H1052 H 0.4948 0.07109 0.80061 0.0
H1053 H 0.46572 0.08019 0.8472 0.0
H1054 H 0.47774 0.11863 0.96061 0.0
C1055 C 0.41207 0.15759 0.99273 0.0
C1056 C 0.42708 0.12567 0.89764 0.0
C1057 C 0.39476 0.16666 1.01173 0.0
C1058 C 0.49637 0.08369 0.823 0.0
C1059 C 0.47972 0.08903 0.8493 0.0
C1060 C 0.46364 0.12043 0.94272 0.0
C1061 C 0.40992 0.14191 0.96182 0.0
C1062 C 0.42813 0.13223 0.94069 0.0
C1063 C 0.48087 0.10619 0.87671 0.0
C1064 C 0.46245 0.11393 0.89977 0.0
H1065 H 0.35782 0.13948 0.95965 0.0
H1066 H 0.38757 0.12322 0.92815 0.0
H1067 H 0.44805 0.13381 0.99633 0.0
H1068 H 0.52926 0.12172 0.85242 0.0
H1069 H 0.50061 0.13062 0.89916 0.0
C1070 C 0.58124 0.64474 0.25166 0.0
C1071 C 0.59377 0.62784 0.26091 0.0
C1072 C 0.58945 0.66214 0.2315 0.0
C1073 C 0.63407 0.67809 0.16441 0.0
H1074 H 0.61283 0.7326 0.18549 0.0
C1075 C 0.66444 0.75087 0.07521 0.0
C1076 C 0.64881 0.76312 0.0578 0.0
C1077 C 0.65966 0.73508 0.10434 0.0
C1078 C 0.61894 0.71746 0.17924 0.0
H1079 H 0.62484 0.61627 0.25849 0.0
H1080 H 0.63925 0.64666 0.22464 0.0
H1081 H 0.60056 0.70392 0.2286 0.0
H1082 H 0.61603 0.76887 0.05883 0.0
H1083 H 0.60791 0.7418 0.10913 0.0
H1084 H 0.65235 0.69174 0.1148 0.0
C1085 C 0.62299 0.64639 0.23153 0.0
C1086 C 0.6118 0.70097 0.20382 0.0
C1087 C 0.61476 0.629 0.25127 0.0
C1088 C 0.62849 0.75963 0.07113 0.0
C1089 C 0.6238 0.74419 0.10043 0.0
C1090 C 0.64131 0.69463 0.14003 0.0
C1091 C 0.61041 0.66308 0.22052 0.0
C1092 C 0.61899 0.68096 0.1963 0.0
C1093 C 0.63924 0.73158 0.11721 0.0
C1094 C 0.63354 0.71445 0.14659 0.0
H1095 H 0.56499 0.64425 0.2587 0.0
H1096 H 0.57919 0.67456 0.22325 0.0
H1097 H 0.63981 0.66292 0.15711 0.0
H1098 H 0.68023 0.75318 0.06563 0.0
H1099 H 0.67192 0.72564 0.11685 0.0
C1100 C 0.00422 0.91819 0.31259 0.0
C1101 C 0.98596 0.9069 0.31491 0.0
C1102 C 0.02105 0.91273 0.33825 0.0
C1103 C 0.03706 0.88255 0.43368 0.0
H1104 H 0.08725 0.87378 0.36994 0.0
C1105 C 0.1057 0.83713 0.50578 0.0
C1106 C 0.12554 0.843 0.49349 0.0
C1107 C 0.08848 0.84595 0.486 0.0
C1108 C 0.07355 0.87645 0.3887 0.0
H1109 H 0.97053 0.88181 0.34686 0.0
H1110 H 0.99952 0.87273 0.39243 0.0
H1111 H 0.05795 0.88929 0.33454 0.0
H1112 H 0.1429 0.86311 0.45179 0.0
H1113 H 0.11326 0.87892 0.41874 0.0
H1114 H 0.05264 0.8699 0.48801 0.0
C1115 C 0.00101 0.88569 0.37096 0.0
C1116 C 0.05669 0.88538 0.36821 0.0
C1117 C 0.98441 0.89089 0.34487 0.0
C1118 C 0.1278 0.85804 0.46161 0.0
C1119 C 0.11071 0.86703 0.44235 0.0
C1120 C 0.05403 0.87386 0.45442 0.0
C1121 C 0.01975 0.89611 0.36707 0.0
C1122 C 0.03818 0.8884 0.3903 0.0
C1123 C 0.09073 0.86105 0.45388 0.0
C1124 C 0.07253 0.87053 0.43216 0.0
H1125 H 0.00588 0.93036 0.28922 0.0
H1126 H 0.03527 0.92111 0.3347 0.0
H1127 H 0.02302 0.88473 0.45165 0.0
H1128 H 0.10349 0.82574 0.53051 0.0
H1129 H 0.07342 0.8407 0.49558 0.0
C1130 C 0.86883 0.23766 0.59089 0.0
C1131 C 0.84898 0.23497 0.57433 0.0
C1132 C 0.87315 0.25335 0.61986 0.0
C1133 C 0.85621 0.30474 0.65074 0.0
H1134 H 0.89599 0.29756 0.74186 0.0
C1135 C 0.884 0.37306 0.75454 0.0
C1136 C 0.90503 0.37393 0.76392 0.0
C1137 C 0.87533 0.35544 0.7364 0.0
C1138 C 0.88499 0.2999 0.71636 0.0
H1139 H 0.81787 0.24633 0.57632 0.0
H1140 H 0.82546 0.27424 0.62727 0.0
H1141 H 0.88323 0.26775 0.70302 0.0
H1142 H 0.93347 0.35696 0.76181 0.0
H1143 H 0.91848 0.32619 0.72997 0.0
H1144 H 0.85838 0.33694 0.66324 0.0
C1145 C 0.83769 0.26403 0.61756 0.0
C1146 C 0.87758 0.28277 0.69418 0.0
C1147 C 0.83327 0.24798 0.58874 0.0
C1148 C 0.91718 0.35665 0.75547 0.0
C1149 C 0.90853 0.339 0.73723 0.0
C1150 C 0.86366 0.32191 0.67289 0.0
C1151 C 0.85779 0.26704 0.63301 0.0
C1152 C 0.8634 0.28498 0.66048 0.0
C1153 C 0.88749 0.3382 0.72703 0.0
C1154 C 0.87845 0.31978 0.70551 0.0
H1155 H 0.88128 0.22783 0.58059 0.0
H1156 H 0.88882 0.25527 0.63051 0.0
H1157 H 0.84552 0.30707 0.62466 0.0
H1158 H 0.8742 0.38611 0.76095 0.0
H1159 H 0.85906 0.35535 0.72973 0.0
C1160 C 0.60653 0.84543 1.02504 0.0
C1161 C 0.62276 0.83759 0.04969 0.0
C1162 C 0.58948 0.85446 0.04506 0.0
C1163 C 0.56293 0.85703 0.15061 0.0
H1164 H 0.53961 0.90777 0.10797 0.0
C1165 C 0.51104 0.9041 0.25799 0.0
C1166 C 0.49181 0.9095 0.24142 0.0
C1167 C 0.52676 0.89765 0.23088 0.0
C1168 C 0.54588 0.89352 0.12001 0.0
H1169 H 0.6338 0.83287 0.11442 0.0
H1170 H 0.60445 0.84865 0.14915 0.0
H1171 H 0.56695 0.89064 0.06736 0.0
H1172 H 0.47425 0.91357 0.18323 0.0
H1173 H 0.50205 0.90235 0.13515 0.0
H1174 H 0.54228 0.85997 0.20345 0.0
C1175 C 0.60457 0.84767 0.11448 0.0
C1176 C 0.56148 0.88365 0.09671 0.0
C1177 C 0.62151 0.8387 0.09455 0.0
C1178 C 0.48907 0.90985 0.19672 0.0
C1179 C 0.50492 0.90327 0.16931 0.0
C1180 C 0.54754 0.8669 0.17385 0.0
C1181 C 0.58832 0.85572 0.09011 0.0
C1182 C 0.57048 0.86547 0.11223 0.0
C1183 C 0.5236 0.89621 0.18641 0.0
C1184 C 0.5391 0.88547 0.15938 0.0
H1185 H 0.60713 0.84483 0.99033 0.0
H1186 H 0.57718 0.86033 1.02529 0.0
H1187 H 0.56903 0.84278 0.16301 0.0
H1188 H 0.51351 0.9036 0.29236 0.0
H1189 H 0.54111 0.89276 0.24499 0.0
C1190 C 0.41758 0.35397 0.79684 0.0
C1191 C 0.40597 0.37159 0.78789 0.0
C1192 C 0.40848 0.33706 0.81738 0.0
C1193 C 0.38229 0.29989 0.84634 0.0
H1194 H 0.34661 0.31417 0.94132 0.0
C1195 C 0.3398 0.23847 0.94982 0.0
C1196 C 0.34249 0.24116 0.99417 0.0
C1197 C 0.34528 0.25417 0.92106 0.0
C1198 C 0.35646 0.30989 0.91482 0.0
H1199 H 0.37557 0.38485 0.79112 0.0
H1200 H 0.35981 0.35556 0.82625 0.0
H1201 H 0.36167 0.34116 0.89766 0.0
H1202 H 0.35213 0.26252 0.04332 0.0
H1203 H 0.36103 0.28992 0.99374 0.0
H1204 H 0.37737 0.26851 0.86458 0.0
C1205 C 0.37597 0.35483 0.81846 0.0
C1206 C 0.36502 0.32538 0.88953 0.0
C1207 C 0.38501 0.37161 0.79809 0.0
C1208 C 0.34969 0.26011 1.0093 0.0
C1209 C 0.35482 0.27581 0.98084 0.0
C1210 C 0.37357 0.28432 0.87158 0.0
C1211 C 0.38764 0.3375 0.82934 0.0
C1212 C 0.37819 0.32065 0.85515 0.0
C1213 C 0.35319 0.27291 0.9363 0.0
C1214 C 0.36075 0.28916 0.9065 0.0
H1215 H 0.43376 0.35352 0.78921 0.0
H1216 H 0.41794 0.32398 0.82537 0.0
H1217 H 0.39223 0.29569 0.81995 0.0
H1218 H 0.33464 0.22387 0.93729 0.0
H1219 H 0.34372 0.25152 0.88693 0.0
C1220 C 0.00151 0.08576 0.72816 0.0
C1221 C 0.01455 0.10144 0.74264 0.0
C1222 C 0.98574 0.09017 0.69876 0.0
C1223 C 0.96862 0.12952 0.61964 0.0
H1224 H 0.91383 0.11094 0.64735 0.0
C1225 C 0.89596 0.16815 0.54958 0.0
C1226 C 0.87886 0.15575 0.54105 0.0
C1227 C 0.91332 0.15987 0.56967 0.0
C1228 C 0.92905 0.11603 0.63859 0.0
H1229 H 0.02193 0.13373 0.73588 0.0
H1230 H 0.99489 0.14124 0.68526 0.0
H1231 H 0.94286 0.0984 0.68893 0.0
H1232 H 0.86679 0.12489 0.54527 0.0
H1233 H 0.89703 0.11042 0.57947 0.0
H1234 H 0.95486 0.14739 0.56976 0.0
C1235 C 0.99661 0.1256 0.69634 0.0
C1236 C 0.94572 0.10878 0.66248 0.0
C1237 C 0.01204 0.12129 0.72583 0.0
C1238 C 0.87968 0.13487 0.55181 0.0
C1239 C 0.89699 0.12659 0.5717 0.0
C1240 C 0.95198 0.13673 0.59569 0.0
C1241 C 0.98305 0.11023 0.68277 0.0
C1242 C 0.96568 0.11574 0.65386 0.0
C1243 C 0.91396 0.13901 0.58153 0.0
C1244 C 0.9319 0.13036 0.60527 0.0
H1245 H 0.00307 0.07033 0.74052 0.0
H1246 H 0.9756 0.07795 0.68873 0.0
H1247 H 0.98383 0.13498 0.61171 0.0
H1248 H 0.89572 0.18432 0.54172 0.0
H1249 H 0.92598 0.16999 0.57706 0.0
C1250 C 0.15121 0.74258 0.51043 0.0
C1251 C 0.15808 0.76129 0.49345 0.0
C1252 C 0.14614 0.72626 0.48354 0.0
C1253 C 0.12692 0.71599 0.3751 0.0
H1254 H 0.13554 0.65943 0.4086 0.0
C1255 C 0.09509 0.64602 0.27821 0.0
C1256 C 0.08732 0.62967 0.30269 0.0
C1257 C 0.10523 0.66244 0.29817 0.0
C1258 C 0.13284 0.67514 0.3989 0.0
H1259 H 0.16562 0.77744 0.43494 0.0
H1260 H 0.15673 0.74867 0.38731 0.0
H1261 H 0.15247 0.68678 0.44817 0.0
H1262 H 0.08345 0.61803 0.36725 0.0
H1263 H 0.10087 0.64658 0.40199 0.0
H1264 H 0.10693 0.70425 0.32627 0.0
C1265 C 0.15532 0.74669 0.42168 0.0
C1266 C 0.14264 0.69084 0.42153 0.0
C1267 C 0.16069 0.76306 0.44887 0.0
C1268 C 0.08938 0.63034 0.34748 0.0
C1269 C 0.09954 0.64664 0.36737 0.0
C1270 C 0.11709 0.70022 0.35237 0.0
C1271 C 0.14755 0.72823 0.43872 0.0
C1272 C 0.13946 0.71151 0.41061 0.0
C1273 C 0.10791 0.66277 0.34301 0.0
C1274 C 0.11955 0.6796 0.36464 0.0
H1275 H 0.14885 0.74088 0.54467 0.0
H1276 H 0.14 0.71245 0.49792 0.0
H1277 H 0.12394 0.73173 0.36605 0.0
H1278 H 0.09376 0.64591 0.24358 0.0
H1279 H 0.1115 0.67456 0.27838 0.0
C1280 C 0.87832 0.66501 0.45122 0.0
C1281 C 0.87734 0.66515 0.49618 0.0
C1282 C 0.89464 0.65554 0.42995 0.0
C1283 C 0.94762 0.63547 0.44422 0.0
H1284 H 0.93481 0.60699 0.3384 0.0
C1285 C 0.00932 0.59243 0.34232 0.0
C1286 C 0.00934 0.59841 0.29902 0.0
C1287 C 0.99287 0.5978 0.36927 0.0
C1288 C 0.93866 0.61485 0.36791 0.0
H1289 H 0.89302 0.65599 0.5543 0.0
H1290 H 0.92153 0.63918 0.51715 0.0
H1291 H 0.90737 0.62253 0.38008 0.0
H1292 H 0.9919 0.6138 0.24954 0.0
H1293 H 0.96317 0.62258 0.29579 0.0
H1294 H 0.97903 0.62772 0.43156 0.0
C1295 C 0.90974 0.64653 0.49822 0.0
C1296 C 0.92293 0.62392 0.39174 0.0
C1297 C 0.89338 0.65613 0.51956 0.0
C1298 C 0.99225 0.60891 0.28275 0.0
C1299 C 0.97576 0.61391 0.30927 0.0
C1300 C 0.96339 0.62623 0.42043 0.0
C1301 C 0.91041 0.64581 0.45304 0.0
C1302 C 0.92719 0.6348 0.42971 0.0
C1303 C 0.97601 0.60885 0.35307 0.0
C1304 C 0.95914 0.61621 0.38148 0.0
H1305 H 0.86628 0.672 0.43233 0.0
H1306 H 0.89484 0.65584 0.39522 0.0
H1307 H 0.95156 0.64377 0.47313 0.0
H1308 H 0.02243 0.58457 0.3558 0.0
H1309 H 0.99346 0.59361 0.40286 0.0
C1310 C 0.09673 0.14488 0.77779 0.0
C1311 C 0.08819 0.12869 0.75401 0.0
C1312 C 0.10662 0.16121 0.75686 0.0
C1313 C 0.13111 0.17378 0.65195 0.0
H1314 H 0.12567 0.2303 0.68849 0.0
C1315 C 0.14601 0.24198 0.54013 0.0
C1316 C 0.15582 0.25957 0.55597 0.0
C1317 C 0.14117 0.22568 0.5673 0.0
C1318 C 0.12763 0.21455 0.67833 0.0
H1319 H 0.08245 0.11736 0.68985 0.0
H1320 H 0.09913 0.1458 0.6535 0.0
H1321 H 0.1094 0.20302 0.73034 0.0
H1322 H 0.16859 0.27381 0.61265 0.0
H1323 H 0.15984 0.24517 0.66085 0.0
H1324 H 0.14872 0.18533 0.59923 0.0
C1325 C 0.09884 0.14576 0.68823 0.0
C1326 C 0.11826 0.19889 0.70228 0.0
C1327 C 0.08908 0.1295 0.70907 0.0
C1328 C 0.16132 0.26027 0.59952 0.0
C1329 C 0.15609 0.24402 0.6271 0.0
C1330 C 0.14032 0.18938 0.62798 0.0
C1331 C 0.10814 0.16165 0.71174 0.0
C1332 C 0.11948 0.17832 0.68881 0.0
C1333 C 0.14569 0.22665 0.61132 0.0
C1334 C 0.13834 0.21 0.64031 0.0
H1335 H 0.09625 0.14465 0.81252 0.0
H1336 H 0.11359 0.17314 0.77607 0.0
H1337 H 0.13292 0.15811 0.64118 0.0
H1338 H 0.14145 0.24111 0.50676 0.0
H1339 H 0.13299 0.21269 0.55412 0.0
C1340 C 0.49132 0.40714 0.84827 0.0
C1341 C 0.49218 0.40315 0.80401 0.0
C1342 C 0.50726 0.40053 0.87535 0.0
C1343 C 0.54732 0.36039 0.87654 0.0
H1344 H 0.56985 0.38929 0.97432 0.0
C1345 C 0.62205 0.33463 0.95681 0.0
C1346 C 0.62352 0.33525 1.00169 0.0
C1347 C 0.60514 0.34307 0.93584 0.0
C1348 C 0.56351 0.38092 0.94742 0.0
H1349 H 0.51091 0.39069 0.75294 0.0
H1350 H 0.53876 0.37992 0.79938 0.0
H1351 H 0.54256 0.40521 0.93172 0.0
H1352 H 0.60833 0.34507 0.05999 0.0
H1353 H 0.57855 0.35986 1.02319 0.0
H1354 H 0.5682 0.33623 0.89166 0.0
C1355 C 0.52565 0.38746 0.81373 0.0
C1356 C 0.5479 0.39007 0.92298 0.0
C1357 C 0.50979 0.39384 0.787 0.0
C1358 C 0.60756 0.34433 1.02532 0.0
C1359 C 0.59061 0.35293 1.00424 0.0
C1360 C 0.56284 0.35132 0.90076 0.0
C1361 C 0.52426 0.38989 0.85844 0.0
C1362 C 0.53992 0.38006 0.88666 0.0
C1363 C 0.58922 0.35242 0.95918 0.0
C1364 C 0.57144 0.36159 0.93602 0.0
H1365 H 0.4778 0.41409 0.86223 0.0
H1366 H 0.50572 0.4027 0.90964 0.0
H1367 H 0.54113 0.35192 0.84962 0.0
H1368 H 0.63414 0.32779 0.93775 0.0
H1369 H 0.60474 0.34261 0.90112 0.0
C1370 C 0.35296 0.76176 0.03083 0.0
C1371 C 0.34584 0.74302 0.04724 0.0
C1372 C 0.35853 0.7777 0.05843 0.0
C1373 C 0.38148 0.78687 0.16144 0.0
H1374 H 0.36215 0.84263 0.14818 0.0
C1375 C 0.41176 0.85381 0.26832 0.0
C1376 C 0.41216 0.87349 0.25032 0.0
C1377 C 0.40296 0.83738 0.24573 0.0
C1378 C 0.36808 0.82725 0.15197 0.0
H1379 H 0.33895 0.72616 0.10525 0.0
H1380 H 0.34928 0.75403 0.15396 0.0
H1381 H 0.34705 0.81538 0.10528 0.0
H1382 H 0.40456 0.89142 0.19423 0.0
H1383 H 0.39056 0.86285 0.15376 0.0
H1384 H 0.40328 0.79871 0.20632 0.0
C1385 C 0.35009 0.75645 0.11962 0.0
C1386 C 0.35917 0.81159 0.12763 0.0
C1387 C 0.34397 0.74064 0.09185 0.0
C1388 C 0.40436 0.87636 0.20888 0.0
C1389 C 0.39604 0.85995 0.18594 0.0
C1390 C 0.39072 0.80262 0.18523 0.0
C1391 C 0.35769 0.77503 0.10311 0.0
C1392 C 0.36587 0.79128 0.13185 0.0
C1393 C 0.39468 0.84027 0.20433 0.0
C1394 C 0.38434 0.82314 0.18048 0.0
H1395 H 0.35484 0.76382 0.99656 0.0
H1396 H 0.36446 0.79178 0.04484 0.0
H1397 H 0.38709 0.77134 0.16497 0.0
H1398 H 0.41733 0.85131 0.30056 0.0
H1399 H 0.40208 0.82261 0.26142 0.0
C1400 C 0.10642 0.34414 0.53734 0.0
C1401 C 0.12292 0.33609 0.56088 0.0
C1402 C 0.09041 0.35448 0.55821 0.0
C1403 C 0.07893 0.38153 0.66064 0.0
H1404 H 0.02218 0.37502 0.62683 0.0
C1405 C 0.01136 0.40103 0.77162 0.0
C1406 C 0.99314 0.40892 0.7543 0.0
C1407 C 0.02775 0.39569 0.74508 0.0
C1408 C 0.03798 0.37732 0.6362 0.0
H1409 H 0.13516 0.33181 0.62477 0.0
H1410 H 0.10719 0.3494 0.66121 0.0
H1411 H 0.04907 0.35742 0.58657 0.0
H1412 H 0.97804 0.41811 0.69563 0.0
H1413 H 0.00688 0.40872 0.64872 0.0
H1414 H 0.06783 0.40099 0.71087 0.0
C1415 C 0.10677 0.34826 0.62657 0.0
C1416 C 0.05343 0.36716 0.61316 0.0
C1417 C 0.12274 0.33798 0.60573 0.0
C1418 C 0.99203 0.41235 0.70988 0.0
C1419 C 0.00842 0.4067 0.68305 0.0
C1420 C 0.06352 0.39161 0.68367 0.0
C1421 C 0.09054 0.35699 0.60311 0.0
C1422 C 0.07409 0.3688 0.62562 0.0
C1423 C 0.0263 0.39784 0.70032 0.0
C1424 C 0.04281 0.38934 0.67229 0.0
H1425 H 0.10615 0.34293 0.50268 0.0
H1426 H 0.07824 0.36103 0.53903 0.0
H1427 H 0.09468 0.38363 0.67055 0.0
H1428 H 0.01258 0.39806 0.80573 0.0
H1429 H 0.04113 0.38876 0.75956 0.0
C1430 C 0.91359 0.87516 0.35285 0.0
C1431 C 0.91369 0.87591 0.30786 0.0
C1432 C 0.90543 0.85823 0.37441 0.0
C1433 C 0.86903 0.81538 0.36298 0.0
H1434 H 0.89755 0.79416 0.46244 0.0
C1435 C 0.84312 0.74253 0.45956 0.0
C1436 C 0.84714 0.74268 0.50381 0.0
C1437 C 0.84972 0.75889 0.43354 0.0
C1438 C 0.88916 0.80005 0.43515 0.0
H1439 H 0.90557 0.85941 0.25002 0.0
H1440 H 0.89114 0.82971 0.28784 0.0
H1441 H 0.91281 0.82171 0.42091 0.0
H1442 H 0.85976 0.7605 0.55603 0.0
H1443 H 0.87032 0.78921 0.51153 0.0
H1444 H 0.8452 0.79377 0.37776 0.0
C1445 C 0.8973 0.84231 0.3064 0.0
C1446 C 0.89802 0.81583 0.41118 0.0
C1447 C 0.90569 0.85923 0.28477 0.0
C1448 C 0.85654 0.75997 0.52195 0.0
C1449 C 0.86284 0.77631 0.49627 0.0
C1450 C 0.86006 0.79959 0.38724 0.0
C1451 C 0.89703 0.84165 0.35154 0.0
C1452 C 0.88798 0.8239 0.37512 0.0
C1453 C 0.86032 0.77568 0.45148 0.0
C1454 C 0.86988 0.79193 0.42409 0.0
H1455 H 0.91964 0.8878 0.37149 0.0
H1456 H 0.90531 0.85833 0.40916 0.0
H1457 H 0.86084 0.82133 0.33548 0.0
H1458 H 0.83615 0.72924 0.44474 0.0
H1459 H 0.84749 0.75785 0.3992 0.0
C1460 C 0.3947 0.65923 0.0277 0.0
C1461 C 0.37855 0.66811 0.05111 0.0
C1462 C 0.41139 0.65028 0.049 0.0
C1463 C 0.43819 0.65005 0.15378 0.0
H1464 H 0.45838 0.59662 0.11929 0.0
C1465 C 0.49102 0.60549 0.26501 0.0
C1466 C 0.50852 0.59627 0.24735 0.0
C1467 C 0.47518 0.61241 0.23876 0.0
C1468 C 0.45306 0.61163 0.12906 0.0
H1469 H 0.36744 0.67498 0.11497 0.0
H1470 H 0.39644 0.65958 0.15203 0.0
H1471 H 0.43149 0.61344 0.07717 0.0
H1472 H 0.52273 0.58606 0.18837 0.0
H1473 H 0.49489 0.59836 0.14187 0.0
H1474 H 0.45958 0.64844 0.20544 0.0
C1475 C 0.39635 0.65952 0.11729 0.0
C1476 C 0.43768 0.62129 0.10489 0.0
C1477 C 0.37966 0.6683 0.09606 0.0
C1478 C 0.50928 0.5929 0.20285 0.0
C1479 C 0.49339 0.60006 0.17628 0.0
C1480 C 0.4535 0.64047 0.17775 0.0
C1481 C 0.41237 0.65024 0.09413 0.0
C1482 C 0.42981 0.64049 0.11743 0.0
C1483 C 0.4765 0.6106 0.19391 0.0
C1484 C 0.4609 0.62095 0.1663 0.0
H1485 H 0.39423 0.65884 0.99297 0.0
H1486 H 0.42356 0.64346 0.03018 0.0
H1487 H 0.43287 0.66502 0.16385 0.0
H1488 H 0.48996 0.60818 0.29925 0.0
H1489 H 0.46216 0.61985 0.25365 0.0
C1490 C 0.66081 0.25692 0.96606 0.0
C1491 C 0.65116 0.25858 1.00624 0.0
C1492 C 0.65528 0.24116 0.93752 0.0
C1493 C 0.64615 0.2006 0.89008 0.0
H1494 H 0.58852 0.18617 0.89101 0.0
C1495 C 0.61491 0.1267 0.81049 0.0
C1496 C 0.59494 0.12669 0.7938 0.0
C1497 C 0.62262 0.14395 0.83173 0.0
C1498 C 0.60461 0.19013 0.88968 0.0
H1499 H 0.62928 0.24424 0.04915 0.0
H1500 H 0.62023 0.21669 1.00054 0.0
H1501 H 0.60074 0.2136 0.93672 0.0
H1502 H 0.56767 0.14502 0.78443 0.0
H1503 H 0.58125 0.17538 0.82047 0.0
H1504 H 0.64986 0.17731 0.84221 0.0
C1505 C 0.63145 0.22785 0.99006 0.0
C1506 C 0.61172 0.20571 0.91657 0.0
C1507 C 0.63679 0.24359 1.01817 0.0
C1508 C 0.58308 0.14455 0.79725 0.0
C1509 C 0.59085 0.16189 0.81822 0.0
C1510 C 0.63899 0.18502 0.86291 0.0
C1511 C 0.64011 0.22673 0.94882 0.0
C1512 C 0.63264 0.21093 0.91781 0.0
C1513 C 0.6106 0.1617 0.83654 0.0
C1514 C 0.61814 0.17937 0.86277 0.0
H1515 H 0.67185 0.26832 0.95588 0.0
H1516 H 0.66228 0.24079 0.90603 0.0
H1517 H 0.66235 0.20418 0.89012 0.0
H1518 H 0.62442 0.11314 0.80825 0.0
H1519 H 0.63776 0.14304 0.84574 0.0
C1520 C 0.31741 0.23542 0.19954 0.0
C1521 C 0.31404 0.2202 0.1684 0.0
C1522 C 0.30158 0.24228 0.22587 0.0
C1523 C 0.24537 0.24531 0.23646 0.0
H1524 H 0.25815 0.25568 0.35611 0.0
C1525 C 0.18235 0.2651 0.35875 0.0
C1526 C 0.18617 0.28028 0.38973 0.0
C1527 C 0.19804 0.25752 0.33285 0.0
C1528 C 0.25436 0.25313 0.32273 0.0
H1529 H 0.29119 0.20038 0.14009 0.0
H1530 H 0.26309 0.21248 0.18651 0.0
H1531 H 0.28452 0.24224 0.30835 0.0
H1532 H 0.20967 0.29921 0.41836 0.0
H1533 H 0.23745 0.28598 0.3726 0.0
H1534 H 0.21524 0.25629 0.25076 0.0
C1535 C 0.27817 0.21915 0.19022 0.0
C1536 C 0.26948 0.24534 0.29526 0.0
C1537 C 0.2942 0.2122 0.16361 0.0
C1538 C 0.2063 0.28745 0.39492 0.0
C1539 C 0.22216 0.27983 0.36869 0.0
C1540 C 0.23025 0.25311 0.26393 0.0
C1541 C 0.28177 0.23412 0.22211 0.0
C1542 C 0.26524 0.24141 0.25167 0.0
C1543 C 0.21813 0.26494 0.33686 0.0
C1544 C 0.23452 0.25713 0.30748 0.0
H1545 H 0.33249 0.24204 0.20394 0.0
H1546 H 0.3049 0.25413 0.24917 0.0
H1547 H 0.24161 0.24278 0.20305 0.0
H1548 H 0.16704 0.25909 0.35412 0.0
H1549 H 0.19436 0.24574 0.30962 0.0
C1550 C 0.53448 0.5414 0.40137 0.0
C1551 C 0.53863 0.56058 0.41976 0.0
C1552 C 0.52628 0.52552 0.42672 0.0
C1553 C 0.51769 0.50963 0.54074 0.0
H1554 H 0.47154 0.47965 0.4943 0.0
C1555 C 0.46742 0.45651 0.64738 0.0
C1556 C 0.46341 0.43722 0.62939 0.0
C1557 C 0.47564 0.47229 0.62179 0.0
C1558 C 0.48447 0.48781 0.50775 0.0
H1559 H 0.53841 0.57794 0.47906 0.0
H1560 H 0.52443 0.55063 0.52268 0.0
H1561 H 0.49002 0.50385 0.44887 0.0
H1562 H 0.46391 0.41953 0.57053 0.0
H1563 H 0.47788 0.44671 0.52642 0.0
H1564 H 0.51211 0.49362 0.59964 0.0
C1565 C 0.52744 0.54754 0.48913 0.0
C1566 C 0.49518 0.50158 0.48153 0.0
C1567 C 0.5354 0.56329 0.46396 0.0
C1568 C 0.4668 0.43428 0.58531 0.0
C1569 C 0.47475 0.44993 0.55987 0.0
C1570 C 0.50697 0.49588 0.56696 0.0
C1571 C 0.52234 0.52857 0.47084 0.0
C1572 C 0.51191 0.51272 0.49769 0.0
C1573 C 0.47973 0.46902 0.57781 0.0
C1574 C 0.49022 0.48476 0.55082 0.0
H1575 H 0.53663 0.539 0.36729 0.0
H1576 H 0.52269 0.511 0.41167 0.0
H1577 H 0.53064 0.51776 0.5542 0.0
H1578 H 0.46515 0.45909 0.68137 0.0
H1579 H 0.47913 0.4869 0.63655 0.0
C1580 C 0.18155 0.76946 0.69775 0.0
C1581 C 0.18512 0.78407 0.66545 0.0
C1582 C 0.19743 0.76242 0.72375 0.0
C1583 C 0.25375 0.75771 0.73106 0.0
H1584 H 0.24225 0.74834 0.85168 0.0
C1585 C 0.31788 0.73759 0.85033 0.0
C1586 C 0.31421 0.72263 0.88187 0.0
C1587 C 0.302 0.74526 0.82511 0.0
C1588 C 0.24567 0.75061 0.81801 0.0
H1589 H 0.20833 0.80272 0.63495 0.0
H1590 H 0.23646 0.79036 0.68074 0.0
H1591 H 0.2156 0.76213 0.80513 0.0
H1592 H 0.29077 0.70418 0.91211 0.0
H1593 H 0.26265 0.71761 0.86766 0.0
H1594 H 0.28381 0.74616 0.74392 0.0
C1595 C 0.22122 0.78425 0.68562 0.0
C1596 C 0.23039 0.75858 0.79122 0.0
C1597 C 0.20515 0.79137 0.65937 0.0
C1598 C 0.29404 0.71578 0.88827 0.0
C1599 C 0.27799 0.7235 0.86277 0.0
C1600 C 0.26904 0.74974 0.75786 0.0
C1601 C 0.21748 0.76979 0.71848 0.0
C1602 C 0.23417 0.76218 0.7473 0.0
C1603 C 0.28186 0.73817 0.83039 0.0
C1604 C 0.26524 0.74609 0.80175 0.0
H1605 H 0.16632 0.7634 0.7032 0.0
H1606 H 0.19396 0.75099 0.74786 0.0
H1607 H 0.25717 0.75993 0.69738 0.0
H1608 H 0.33322 0.74335 0.84472 0.0
H1609 H 0.30558 0.75685 0.80139 0.0
C1610 C 0.01486 0.56966 0.10513 0.0
C1611 C 0.02973 0.56604 0.13683 0.0
C1612 C 0.00707 0.55368 0.08026 0.0
C1613 C 0.01912 0.5014 0.04207 0.0
H1614 H 0.96208 0.50159 1.0072 0.0
C1615 C 0.98243 0.43332 0.95264 0.0
C1616 C 0.96828 0.43713 0.91961 0.0
C1617 C 0.98988 0.44919 0.97825 0.0
C1618 C 0.97811 0.50145 1.01611 0.0
H1619 H 0.04797 0.54262 0.1676 0.0
H1620 H 0.03415 0.51432 0.12419 0.0
H1621 H 0.97464 0.52783 0.0563 0.0
H1622 H 0.95095 0.46079 0.88743 0.0
H1623 H 0.96402 0.48887 0.93247 0.0
H1624 H 0.02256 0.47497 1.00198 0.0
C1625 C 0.02864 0.52972 0.11843 0.0
C1626 C 0.98534 0.51648 0.04447 0.0
C1627 C 0.03645 0.54586 0.1436 0.0
C1628 C 0.96181 0.45737 0.91257 0.0
C1629 C 0.96924 0.4734 0.93857 0.0
C1630 C 0.01188 0.48635 1.01379 0.0
C1631 C 0.0139 0.53347 0.0862 0.0
C1632 C 0.00597 0.51673 0.05779 0.0
C1633 C 0.98341 0.46947 0.9718 0.0
C1634 C 0.99126 0.48614 1.00042 0.0
H1635 H 0.00938 0.58504 0.09893 0.0
H1636 H 0.99607 0.55733 0.05546 0.0
H1637 H 0.03517 0.50127 0.05086 0.0
H1638 H 0.98772 0.41789 0.95911 0.0
H1639 H 1.00045 0.44544 1.00383 0.0
C1640 C 0.70579 0.7854 0.89334 0.0
C1641 C 0.68582 0.77779 0.88821 0.0
C1642 C 0.72182 0.77809 0.86725 0.0
C1643 C 0.73046 0.75216 0.76218 0.0
H1644 H 0.78508 0.74247 0.80599 0.0
C1645 C 0.79483 0.71309 0.66051 0.0
C1646 C 0.81478 0.72064 0.66619 0.0
C1647 C 0.77877 0.72003 0.68697 0.0
C1648 C 0.76997 0.74531 0.79301 0.0
H1649 H 0.66713 0.75612 0.85294 0.0
H1650 H 0.69483 0.74326 0.80846 0.0
H1651 H 0.7584 0.75479 0.85429 0.0
H1652 H 0.83342 0.74185 0.70282 0.0
H1653 H 0.80568 0.75414 0.74776 0.0
H1654 H 0.74204 0.74275 0.70087 0.0
C1655 C 0.69822 0.75512 0.83169 0.0
C1656 C 0.75465 0.7524 0.82083 0.0
C1657 C 0.68234 0.76239 0.85755 0.0
C1658 C 0.81823 0.7356 0.69781 0.0
C1659 C 0.80232 0.74254 0.72395 0.0
C1660 C 0.74579 0.74509 0.73434 0.0
C1661 C 0.71812 0.76309 0.83552 0.0
C1662 C 0.73466 0.75591 0.80584 0.0
C1663 C 0.78241 0.73465 0.71953 0.0
C1664 C 0.76579 0.74162 0.7493 0.0
H1665 H 0.70888 0.79742 0.91638 0.0
H1666 H 0.73694 0.78466 0.87099 0.0
H1667 H 0.71534 0.75499 0.74924 0.0
H1668 H 0.79176 0.70146 0.63657 0.0
H1669 H 0.76365 0.71353 0.68271 0.0
C1670 C 0.68139 0.26323 0.2005 0.0
C1671 C 0.68526 0.27802 0.16872 0.0
C1672 C 0.69724 0.25527 0.2254 0.0
C1673 C 0.74919 0.26743 0.26407 0.0
H1674 H 0.74941 0.21037 0.29919 0.0
C1675 C 0.81755 0.2319 0.35272 0.0
C1676 C 0.81406 0.21792 0.38622 0.0
C1677 C 0.80152 0.23886 0.32713 0.0
C1678 C 0.74941 0.2264 0.2902 0.0
H1679 H 0.70891 0.29583 0.13752 0.0
H1680 H 0.73698 0.28174 0.18109 0.0
H1681 H 0.72314 0.22269 0.24981 0.0
H1682 H 0.7909 0.20014 0.41916 0.0
H1683 H 0.76243 0.21247 0.37405 0.0
H1684 H 0.77542 0.27116 0.3044 0.0
C1685 C 0.72151 0.27644 0.1869 0.0
C1686 C 0.73439 0.23347 0.26169 0.0
C1687 C 0.70552 0.28439 0.16167 0.0
C1688 C 0.79401 0.21097 0.39364 0.0
C1689 C 0.77779 0.21795 0.36766 0.0
C1690 C 0.76418 0.26036 0.29253 0.0
C1691 C 0.71751 0.26188 0.21938 0.0
C1692 C 0.73408 0.25409 0.24819 0.0
C1693 C 0.78139 0.23208 0.33414 0.0
C1694 C 0.76457 0.23973 0.30585 0.0
H1695 H 0.66591 0.25803 0.20681 0.0
H1696 H 0.69346 0.24436 0.25036 0.0
H1697 H 0.74921 0.28347 0.25519 0.0
H1698 H 0.83284 0.2375 0.34594 0.0
H1699 H 0.80502 0.24937 0.30123 0.0
C1700 C 0.01115 0.06949 0.94472 0.0
C1701 C 0.0273 0.06635 0.91561 0.0
C1702 C 0.00396 0.05355 0.97058 0.0
C1703 C 0.01981 0.00407 1.01773 0.0
H1704 H 0.96203 0.99908 0.04497 0.0
C1705 C 0.98733 0.93518 0.11225 0.0
C1706 C 0.97118 0.93831 0.14138 0.0
C1707 C 0.99431 0.95105 0.08596 0.0
C1708 C 0.97825 1.00042 0.03826 0.0
H1709 H 0.04845 0.04386 0.89039 0.0
H1710 H 0.03575 0.01567 0.93549 0.0
H1711 H 0.97341 0.02507 0.99405 0.0
H1712 H 0.94974 0.96068 0.16593 0.0
H1713 H 0.96214 0.98877 0.12022 0.0
H1714 H 0.02466 0.97946 0.062 0.0
C1715 C 0.02871 0.03063 0.93844 0.0
C1716 C 0.9848 0.01531 1.00883 0.0
C1717 C 0.03587 0.04668 0.91225 0.0
C1718 C 0.96235 0.95788 0.14417 0.0
C1719 C 0.96932 0.97387 0.11758 0.0
C1720 C 0.01326 0.9892 0.04718 0.0
C1721 C 0.01276 0.03392 0.9683 0.0
C1722 C 0.00568 0.01737 0.99815 0.0
C1723 C 0.98533 0.9706 0.08784 0.0
C1724 C 0.99238 0.98712 0.05786 0.0
H1725 H 0.00427 0.08451 0.94825 0.0
H1726 H 0.9919 0.05683 0.99344 0.0
H1727 H 0.03603 0.00543 1.01103 0.0
H1728 H 0.99441 0.92024 0.10912 0.0
H1729 H 0.0064 0.94776 0.06317 0.0
C1730 C 0.53388 0.04317 0.65137 0.0
C1731 C 0.53149 0.06367 0.63873 0.0
C1732 C 0.52607 0.02724 0.62563 0.0
C1733 C 0.50815 0.01639 0.51409 0.0
H1734 H 0.47956 0.97079 0.56649 0.0
C1735 C 0.46298 0.95637 0.413 0.0
C1736 C 0.46596 0.93588 0.42515 0.0
C1737 C 0.47011 0.97236 0.43942 0.0
C1738 C 0.48762 0.98335 0.55128 0.0
H1739 H 0.51912 0.08354 0.58931 0.0
H1740 H 0.5056 0.05618 0.54527 0.0
H1741 H 0.4952 0.99693 0.61187 0.0
H1742 H 0.47827 0.91606 0.47467 0.0
H1743 H 0.49056 0.94355 0.52003 0.0
H1744 H 0.50061 0.00281 0.45351 0.0
C1745 C 0.51366 0.05215 0.57441 0.0
C1746 C 0.49668 0.9983 0.57739 0.0
C1747 C 0.52133 0.0679 0.59997 0.0
C1748 C 0.47569 0.9317 0.46438 0.0
C1749 C 0.48265 0.94752 0.49066 0.0
C1750 C 0.49909 0.00145 0.48799 0.0
C1751 C 0.51586 0.03159 0.58674 0.0
C1752 C 0.50705 0.01505 0.55916 0.0
C1753 C 0.48016 0.96808 0.47852 0.0
C1754 C 0.48874 0.98469 0.50621 0.0
H1755 H 0.54145 0.03947 0.68121 0.0
H1756 H 0.52811 0.01154 0.63603 0.0
H1757 H 0.51625 0.02892 0.49885 0.0
H1758 H 0.45555 0.96001 0.3829 0.0
H1759 H 0.46779 0.98805 0.42923 0.0
loop_
_geom_bond_atom_site_label_1
_geom_bond_atom_site_label_2
_geom_bond_distance
_geom_bond_site_symmetry_2
_ccdc_geom_bond_type
Tb0 O3 2.453 . S
Tb0 O4 2.596 . S
Tb0 O5 2.374 . S
Tb0 O13 2.343 . S
Tb0 O15 2.353 . S
Tb0 O17 2.427 . S
Tb0 O18 2.513 . S
C1 O5 1.251 . S
C1 O7 1.263 . S
Tb2 O4 2.343 . S
Tb2 O7 2.353 . S
Tb2 O10 2.427 . S
Tb2 O11 2.513 . S
Tb2 O12 2.453 1_554 S
Tb2 O13 2.596 . S
Tb2 O14 2.374 . S
O3 Tb0 2.453 . S
O3 C19 1.245 . S
O4 Tb0 2.596 . S
O4 Tb2 2.343 . S
O4 C19 1.259 . S
O5 Tb0 2.374 . S
O5 C1 1.251 . S
C6 O10 1.275 . S
C6 O11 1.246 . S
O7 C1 1.263 . S
O7 Tb2 2.353 . S
C8 O12 1.245 1_554 S
C8 O13 1.259 . S
C9 O14 1.250 . S
C9 O15 1.263 . S
O10 Tb2 2.427 . S
O10 C6 1.275 . S
O11 Tb2 2.513 . S
O11 C6 1.246 . S
O12 Tb2 2.453 1_556 S
O12 C8 1.245 1_556 S
O13 Tb0 2.343 . S
O13 Tb2 2.596 . S
O13 C8 1.259 . S
O14 Tb2 2.374 . S
O14 C9 1.250 . S
O15 Tb0 2.353 . S
O15 C9 1.263 . S
C16 O17 1.275 . S
C16 O18 1.246 . S
O17 Tb0 2.427 . S
O17 C16 1.275 . S
O18 Tb0 2.513 . S
O18 C16 1.246 . S
C19 O3 1.245 . S
C19 O4 1.259 . S
Tb20 O23 2.453 . S
Tb20 O24 2.596 . S
Tb20 O25 2.374 . S
Tb20 O33 2.343 . S
Tb20 O35 2.353 . S
Tb20 O37 2.427 . S
Tb20 O38 2.513 . S
C21 O25 1.251 . S
C21 O27 1.263 . S
Tb22 O24 2.343 . S
Tb22 O27 2.353 . S
Tb22 O30 2.427 . S
Tb22 O31 2.513 . S
Tb22 O32 2.453 . S
Tb22 O33 2.596 . S
Tb22 O34 2.374 . S
O23 Tb20 2.453 . S
O23 C39 1.245 . S
O24 Tb20 2.596 . S
O24 Tb22 2.343 . S
O24 C39 1.259 . S
O25 Tb20 2.374 . S
O25 C21 1.251 . S
C26 O30 1.275 . S
C26 O31 1.246 . S
O27 C21 1.263 . S
O27 Tb22 2.353 . S
C28 O32 1.245 . S
C28 O33 1.259 . S
C29 O34 1.250 . S
C29 O35 1.263 . S
O30 Tb22 2.427 . S
O30 C26 1.275 . S
O31 Tb22 2.513 . S
O31 C26 1.246 . S
O32 Tb22 2.453 . S
O32 C28 1.245 . S
O33 Tb20 2.343 . S
O33 Tb22 2.596 . S
O33 C28 1.259 . S
O34 Tb22 2.374 . S
O34 C29 1.250 . S
O35 Tb20 2.353 . S
O35 C29 1.263 . S
C36 O37 1.275 . S
C36 O38 1.246 . S
O37 Tb20 2.427 . S
O37 C36 1.275 . S
O38 Tb20 2.513 . S
O38 C36 1.246 . S
C39 O23 1.245 . S
C39 O24 1.259 . S
Tb40 O43 2.453 . S
Tb40 O44 2.596 . S
Tb40 O45 2.374 . S
Tb40 O53 2.343 . S
Tb40 O55 2.353 . S
Tb40 O57 2.427 . S
Tb40 O58 2.513 . S
C41 O45 1.251 . S
C41 O47 1.263 . S
Tb42 O44 2.343 . S
Tb42 O47 2.353 . S
Tb42 O50 2.427 . S
Tb42 O51 2.513 . S
Tb42 O52 2.453 . S
Tb42 O53 2.596 . S
Tb42 O54 2.374 . S
O43 Tb40 2.453 . S
O43 C59 1.245 . S
O44 Tb40 2.596 . S
O44 Tb42 2.343 . S
O44 C59 1.259 . S
O45 Tb40 2.374 . S
O45 C41 1.251 . S
C46 O50 1.275 . S
C46 O51 1.246 . S
O47 C41 1.263 . S
O47 Tb42 2.353 . S
C48 O52 1.245 . S
C48 O53 1.259 . S
C49 O54 1.250 . S
C49 O55 1.263 . S
O50 Tb42 2.427 . S
O50 C46 1.275 . S
O51 Tb42 2.513 . S
O51 C46 1.246 . S
O52 Tb42 2.453 . S
O52 C48 1.245 . S
O53 Tb40 2.343 . S
O53 Tb42 2.596 . S
O53 C48 1.259 . S
O54 Tb42 2.374 . S
O54 C49 1.250 . S
O55 Tb40 2.353 . S
O55 C49 1.263 . S
C56 O57 1.275 . S
C56 O58 1.246 . S
O57 Tb40 2.427 . S
O57 C56 1.275 . S
O58 Tb40 2.513 . S
O58 C56 1.246 . S
C59 O43 1.245 . S
C59 O44 1.259 . S
Tb60 O63 2.453 . S
Tb60 O64 2.596 . S
Tb60 O65 2.374 . S
Tb60 O73 2.343 . S
Tb60 O75 2.353 . S
Tb60 O77 2.427 . S
Tb60 O78 2.513 . S
C61 O65 1.251 . S
C61 O67 1.263 . S
Tb62 O64 2.343 . S
Tb62 O67 2.353 . S
Tb62 O70 2.427 . S
Tb62 O71 2.513 . S
Tb62 O72 2.453 . S
Tb62 O73 2.596 . S
Tb62 O74 2.374 . S
O63 Tb60 2.453 . S
O63 C79 1.245 . S
O64 Tb60 2.596 . S
O64 Tb62 2.343 . S
O64 C79 1.259 . S
O65 Tb60 2.374 . S
O65 C61 1.251 . S
C66 O70 1.275 . S
C66 O71 1.246 . S
O67 C61 1.263 . S
O67 Tb62 2.353 . S
C68 O72 1.245 . S
C68 O73 1.259 . S
C69 O74 1.250 . S
C69 O75 1.263 . S
O70 Tb62 2.427 . S
O70 C66 1.275 . S
O71 Tb62 2.513 . S
O71 C66 1.246 . S
O72 Tb62 2.453 . S
O72 C68 1.245 . S
O73 Tb60 2.343 . S
O73 Tb62 2.596 . S
O73 C68 1.259 . S
O74 Tb62 2.374 . S
O74 C69 1.250 . S
O75 Tb60 2.353 . S
O75 C69 1.263 . S
C76 O77 1.275 . S
C76 O78 1.246 . S
O77 Tb60 2.427 . S
O77 C76 1.275 . S
O78 Tb60 2.513 . S
O78 C76 1.246 . S
C79 O63 1.245 . S
C79 O64 1.259 . S
Tb80 O83 2.453 1_556 S
Tb80 O84 2.596 . S
Tb80 O85 2.374 . S
Tb80 O93 2.343 . S
Tb80 O95 2.353 . S
Tb80 O97 2.427 . S
Tb80 O98 2.513 . S
C81 O85 1.251 . S
C81 O87 1.263 . S
Tb82 O84 2.343 . S
Tb82 O87 2.353 . S
Tb82 O90 2.427 . S
Tb82 O91 2.513 . S
Tb82 O92 2.453 . S
Tb82 O93 2.596 . S
Tb82 O94 2.374 . S
O83 Tb80 2.453 1_554 S
O83 C99 1.245 1_554 S
O84 Tb80 2.596 . S
O84 Tb82 2.343 . S
O84 C99 1.259 . S
O85 Tb80 2.374 . S
O85 C81 1.251 . S
C86 O90 1.275 . S
C86 O91 1.246 . S
O87 C81 1.263 . S
O87 Tb82 2.353 . S
C88 O92 1.245 . S
C88 O93 1.259 . S
C89 O94 1.250 . S
C89 O95 1.263 . S
O90 Tb82 2.427 . S
O90 C86 1.275 . S
O91 Tb82 2.513 . S
O91 C86 1.246 . S
O92 Tb82 2.453 . S
O92 C88 1.245 . S
O93 Tb80 2.343 . S
O93 Tb82 2.596 . S
O93 C88 1.259 . S
O94 Tb82 2.374 . S
O94 C89 1.250 . S
O95 Tb80 2.353 . S
O95 C89 1.263 . S
C96 O97 1.275 . S
C96 O98 1.246 . S
O97 Tb80 2.427 . S
O97 C96 1.275 . S
O98 Tb80 2.513 . S
O98 C96 1.246 . S
C99 O83 1.245 1_556 S
C99 O84 1.259 . S
Tb100 O103 2.453 . S
Tb100 O104 2.596 . S
Tb100 O105 2.374 . S
Tb100 O113 2.343 . S
Tb100 O115 2.353 . S
Tb100 O117 2.427 . S
Tb100 O118 2.513 . S
C101 O105 1.251 . S
C101 O107 1.263 . S
Tb102 O104 2.343 . S
Tb102 O107 2.353 . S
Tb102 O110 2.427 . S
Tb102 O111 2.513 . S
Tb102 O112 2.453 . S
Tb102 O113 2.596 . S
Tb102 O114 2.374 . S
O103 Tb100 2.453 . S
O103 C119 1.245 . S
O104 Tb100 2.596 . S
O104 Tb102 2.343 . S
O104 C119 1.259 . S
O105 Tb100 2.374 . S
O105 C101 1.251 . S
C106 O110 1.275 . S
C106 O111 1.246 . S
O107 C101 1.263 . S
O107 Tb102 2.353 . S
C108 O112 1.245 . S
C108 O113 1.259 . S
C109 O114 1.250 . S
C109 O115 1.263 . S
O110 Tb102 2.427 . S
O110 C106 1.275 . S
O111 Tb102 2.513 . S
O111 C106 1.246 . S
O112 Tb102 2.453 . S
O112 C108 1.245 . S
O113 Tb100 2.343 . S
O113 Tb102 2.596 . S
O113 C108 1.259 . S
O114 Tb102 2.374 . S
O114 C109 1.250 . S
O115 Tb100 2.353 . S
O115 C109 1.263 . S
C116 O117 1.275 . S
C116 O118 1.246 . S
O117 Tb100 2.427 . S
O117 C116 1.275 . S
O118 Tb100 2.513 . S
O118 C116 1.246 . S
C119 O103 1.245 . S
C119 O104 1.259 . S
Tb120 O123 2.453 . S
Tb120 O124 2.596 . S
Tb120 O125 2.374 . S
Tb120 O133 2.343 . S
Tb120 O135 2.353 . S
Tb120 O137 2.427 . S
Tb120 O138 2.513 . S
C121 O125 1.251 . S
C121 O127 1.263 . S
Tb122 O124 2.343 . S
Tb122 O127 2.353 . S
Tb122 O130 2.427 . S
Tb122 O131 2.513 . S
Tb122 O132 2.453 . S
Tb122 O133 2.596 . S
Tb122 O134 2.374 . S
O123 Tb120 2.453 . S
O123 C139 1.245 . S
O124 Tb120 2.596 . S
O124 Tb122 2.343 . S
O124 C139 1.259 . S
O125 Tb120 2.374 . S
O125 C121 1.251 . S
C126 O130 1.275 . S
C126 O131 1.246 . S
O127 C121 1.263 . S
O127 Tb122 2.353 . S
C128 O132 1.245 . S
C128 O133 1.259 . S
C129 O134 1.250 . S
C129 O135 1.263 . S
O130 Tb122 2.427 . S
O130 C126 1.275 . S
O131 Tb122 2.513 . S
O131 C126 1.246 . S
O132 Tb122 2.453 . S
O132 C128 1.245 . S
O133 Tb120 2.343 . S
O133 Tb122 2.596 . S
O133 C128 1.259 . S
O134 Tb122 2.374 . S
O134 C129 1.250 . S
O135 Tb120 2.353 . S
O135 C129 1.263 . S
C136 O137 1.275 . S
C136 O138 1.246 . S
O137 Tb120 2.427 . S
O137 C136 1.275 . S
O138 Tb120 2.513 . S
O138 C136 1.246 . S
C139 O123 1.245 . S
C139 O124 1.259 . S
Tb140 O143 2.453 . S
Tb140 O144 2.596 . S
Tb140 O145 2.374 . S
Tb140 O153 2.343 . S
Tb140 O155 2.353 . S
Tb140 O157 2.427 . S
Tb140 O158 2.513 . S
C141 O145 1.251 . S
C141 O147 1.263 . S
Tb142 O144 2.343 . S
Tb142 O147 2.353 . S
Tb142 O150 2.427 . S
Tb142 O151 2.513 . S
Tb142 O152 2.453 . S
Tb142 O153 2.596 . S
Tb142 O154 2.374 . S
O143 Tb140 2.453 . S
O143 C159 1.245 . S
O144 Tb140 2.596 . S
O144 Tb142 2.343 . S
O144 C159 1.259 . S
O145 Tb140 2.374 . S
O145 C141 1.251 . S
C146 O150 1.275 . S
C146 O151 1.246 . S
O147 C141 1.263 . S
O147 Tb142 2.353 . S
C148 O152 1.245 . S
C148 O153 1.259 . S
C149 O154 1.250 . S
C149 O155 1.263 . S
O150 Tb142 2.427 . S
O150 C146 1.275 . S
O151 Tb142 2.513 . S
O151 C146 1.246 . S
O152 Tb142 2.453 . S
O152 C148 1.245 . S
O153 Tb140 2.343 . S
O153 Tb142 2.596 . S
O153 C148 1.259 . S
O154 Tb142 2.374 . S
O154 C149 1.250 . S
O155 Tb140 2.353 . S
O155 C149 1.263 . S
C156 O157 1.275 . S
C156 O158 1.246 . S
O157 Tb140 2.427 . S
O157 C156 1.275 . S
O158 Tb140 2.513 . S
O158 C156 1.246 . S
C159 O143 1.245 . S
C159 O144 1.259 . S
Tb160 O163 2.453 . S
Tb160 O164 2.596 . S
Tb160 O165 2.374 . S
Tb160 O173 2.343 . S
Tb160 O175 2.353 . S
Tb160 O177 2.427 . S
Tb160 O178 2.513 . S
C161 O165 1.251 . S
C161 O167 1.263 . S
Tb162 O164 2.343 . S
Tb162 O167 2.353 . S
Tb162 O170 2.427 . S
Tb162 O171 2.513 . S
Tb162 O172 2.453 . S
Tb162 O173 2.596 . S
Tb162 O174 2.374 . S
O163 Tb160 2.453 . S
O163 C179 1.245 . S
O164 Tb160 2.596 . S
O164 Tb162 2.343 . S
O164 C179 1.259 . S
O165 Tb160 2.374 . S
O165 C161 1.251 . S
C166 O170 1.275 . S
C166 O171 1.246 . S
O167 C161 1.263 . S
O167 Tb162 2.353 . S
C168 O172 1.245 . S
C168 O173 1.259 . S
C169 O174 1.250 . S
C169 O175 1.263 . S
O170 Tb162 2.427 . S
O170 C166 1.275 . S
O171 Tb162 2.513 . S
O171 C166 1.246 . S
O172 Tb162 2.453 . S
O172 C168 1.245 . S
O173 Tb160 2.343 . S
O173 Tb162 2.596 . S
O173 C168 1.259 . S
O174 Tb162 2.374 . S
O174 C169 1.250 . S
O175 Tb160 2.353 . S
O175 C169 1.263 . S
C176 O177 1.275 . S
C176 O178 1.246 . S
O177 Tb160 2.427 . S
O177 C176 1.275 . S
O178 Tb160 2.513 . S
O178 C176 1.246 . S
C179 O163 1.245 . S
C179 O164 1.259 . S
Tb180 O183 2.453 . S
Tb180 O184 2.596 . S
Tb180 O185 2.374 . S
Tb180 O193 2.343 . S
Tb180 O195 2.353 . S
Tb180 O197 2.427 . S
Tb180 O198 2.513 . S
C181 O185 1.251 . S
C181 O187 1.263 . S
Tb182 O184 2.343 . S
Tb182 O187 2.353 . S
Tb182 O190 2.427 . S
Tb182 O191 2.513 . S
Tb182 O192 2.453 . S
Tb182 O193 2.596 . S
Tb182 O194 2.374 . S
O183 Tb180 2.453 . S
O183 C199 1.245 . S
O184 Tb180 2.596 . S
O184 Tb182 2.343 . S
O184 C199 1.259 . S
O185 Tb180 2.374 . S
O185 C181 1.251 . S
C186 O190 1.275 . S
C186 O191 1.246 . S
O187 C181 1.263 . S
O187 Tb182 2.353 . S
C188 O192 1.245 . S
C188 O193 1.259 . S
C189 O194 1.250 . S
C189 O195 1.263 . S
O190 Tb182 2.427 . S
O190 C186 1.275 . S
O191 Tb182 2.513 . S
O191 C186 1.246 . S
O192 Tb182 2.453 . S
O192 C188 1.245 . S
O193 Tb180 2.343 . S
O193 Tb182 2.596 . S
O193 C188 1.259 . S
O194 Tb182 2.374 . S
O194 C189 1.250 . S
O195 Tb180 2.353 . S
O195 C189 1.263 . S
C196 O197 1.275 . S
C196 O198 1.246 . S
O197 Tb180 2.427 . S
O197 C196 1.275 . S
O198 Tb180 2.513 . S
O198 C196 1.246 . S
C199 O183 1.245 . S
C199 O184 1.259 . S
Tb200 O203 2.453 . S
Tb200 O204 2.596 . S
Tb200 O205 2.374 . S
Tb200 O213 2.343 . S
Tb200 O215 2.353 . S
Tb200 O217 2.427 . S
Tb200 O218 2.513 . S
C201 O205 1.251 . S
C201 O207 1.263 . S
Tb202 O204 2.343 . S
Tb202 O207 2.353 . S
Tb202 O210 2.427 . S
Tb202 O211 2.513 . S
Tb202 O212 2.453 1_554 S
Tb202 O213 2.596 . S
Tb202 O214 2.374 . S
O203 Tb200 2.453 . S
O203 C219 1.245 . S
O204 Tb200 2.596 . S
O204 Tb202 2.343 . S
O204 C219 1.259 . S
O205 Tb200 2.374 . S
O205 C201 1.251 . S
C206 O210 1.275 . S
C206 O211 1.246 . S
O207 C201 1.263 . S
O207 Tb202 2.353 . S
C208 O212 1.245 1_554 S
C208 O213 1.259 . S
C209 O214 1.250 . S
C209 O215 1.263 . S
O210 Tb202 2.427 . S
O210 C206 1.275 . S
O211 Tb202 2.513 . S
O211 C206 1.246 . S
O212 Tb202 2.453 1_556 S
O212 C208 1.245 1_556 S
O213 Tb200 2.343 . S
O213 Tb202 2.596 . S
O213 C208 1.259 . S
O214 Tb202 2.374 . S
O214 C209 1.250 . S
O215 Tb200 2.353 . S
O215 C209 1.263 . S
C216 O217 1.275 . S
C216 O218 1.246 . S
O217 Tb200 2.427 . S
O217 C216 1.275 . S
O218 Tb200 2.513 . S
O218 C216 1.246 . S
C219 O203 1.245 . S
C219 O204 1.259 . S
Tb220 O223 2.453 . S
Tb220 O224 2.596 . S
Tb220 O225 2.374 . S
Tb220 O233 2.343 . S
Tb220 O235 2.353 . S
Tb220 O237 2.427 . S
Tb220 O238 2.513 . S
C221 O225 1.251 . S
C221 O227 1.263 . S
Tb222 O224 2.343 . S
Tb222 O227 2.353 . S
Tb222 O230 2.427 . S
Tb222 O231 2.513 . S
Tb222 O232 2.453 . S
Tb222 O233 2.596 . S
Tb222 O234 2.374 . S
O223 Tb220 2.453 . S
O223 C239 1.245 . S
O224 Tb220 2.596 . S
O224 Tb222 2.343 . S
O224 C239 1.259 . S
O225 Tb220 2.374 . S
O225 C221 1.251 . S
C226 O230 1.275 . S
C226 O231 1.246 . S
O227 C221 1.263 . S
O227 Tb222 2.353 . S
C228 O232 1.245 . S
C228 O233 1.259 . S
C229 O234 1.250 . S
C229 O235 1.263 . S
O230 Tb222 2.427 . S
O230 C226 1.275 . S
O231 Tb222 2.513 . S
O231 C226 1.246 . S
O232 Tb222 2.453 . S
O232 C228 1.245 . S
O233 Tb220 2.343 . S
O233 Tb222 2.596 . S
O233 C228 1.259 . S
O234 Tb222 2.374 . S
O234 C229 1.250 . S
O235 Tb220 2.353 . S
O235 C229 1.263 . S
C236 O237 1.275 . S
C236 O238 1.246 . S
O237 Tb220 2.427 . S
O237 C236 1.275 . S
O238 Tb220 2.513 . S
O238 C236 1.246 . S
C239 O223 1.245 . S
C239 O224 1.259 . S
Tb240 O243 2.453 . S
Tb240 O244 2.596 . S
Tb240 O245 2.374 . S
Tb240 O253 2.343 . S
Tb240 O255 2.353 . S
Tb240 O257 2.427 . S
Tb240 O258 2.513 . S
C241 O245 1.251 . S
C241 O247 1.263 . S
Tb242 O244 2.343 . S
Tb242 O247 2.353 . S
Tb242 O250 2.427 . S
Tb242 O251 2.513 . S
Tb242 O252 2.453 . S
Tb242 O253 2.596 . S
Tb242 O254 2.374 . S
O243 Tb240 2.453 . S
O243 C259 1.245 . S
O244 Tb240 2.596 . S
O244 Tb242 2.343 . S
O244 C259 1.259 . S
O245 Tb240 2.374 . S
O245 C241 1.251 . S
C246 O250 1.275 . S
C246 O251 1.246 . S
O247 C241 1.263 . S
O247 Tb242 2.353 . S
C248 O252 1.245 . S
C248 O253 1.259 . S
C249 O254 1.250 . S
C249 O255 1.263 . S
O250 Tb242 2.427 . S
O250 C246 1.275 . S
O251 Tb242 2.513 . S
O251 C246 1.246 . S
O252 Tb242 2.453 . S
O252 C248 1.245 . S
O253 Tb240 2.343 . S
O253 Tb242 2.596 . S
O253 C248 1.259 . S
O254 Tb242 2.374 . S
O254 C249 1.250 . S
O255 Tb240 2.353 . S
O255 C249 1.263 . S
C256 O257 1.275 . S
C256 O258 1.246 . S
O257 Tb240 2.427 . S
O257 C256 1.275 . S
O258 Tb240 2.513 . S
O258 C256 1.246 . S
C259 O243 1.245 . S
C259 O244 1.259 . S
Tb260 O263 2.453 . S
Tb260 O264 2.596 . S
Tb260 O265 2.374 . S
Tb260 O273 2.343 . S
Tb260 O275 2.353 . S
Tb260 O277 2.427 . S
Tb260 O278 2.513 . S
C261 O265 1.251 . S
C261 O267 1.263 . S
Tb262 O264 2.343 . S
Tb262 O267 2.353 . S
Tb262 O270 2.427 . S
Tb262 O271 2.513 . S
Tb262 O272 2.453 . S
Tb262 O273 2.596 . S
Tb262 O274 2.374 . S
O263 Tb260 2.453 . S
O263 C279 1.245 . S
O264 Tb260 2.596 . S
O264 Tb262 2.343 . S
O264 C279 1.259 . S
O265 Tb260 2.374 . S
O265 C261 1.251 . S
C266 O270 1.275 . S
C266 O271 1.246 . S
O267 C261 1.263 . S
O267 Tb262 2.353 . S
C268 O272 1.245 . S
C268 O273 1.259 . S
C269 O274 1.250 . S
C269 O275 1.263 . S
O270 Tb262 2.427 . S
O270 C266 1.275 . S
O271 Tb262 2.513 . S
O271 C266 1.246 . S
O272 Tb262 2.453 . S
O272 C268 1.245 . S
O273 Tb260 2.343 . S
O273 Tb262 2.596 . S
O273 C268 1.259 . S
O274 Tb262 2.374 . S
O274 C269 1.250 . S
O275 Tb260 2.353 . S
O275 C269 1.263 . S
C276 O277 1.275 . S
C276 O278 1.246 . S
O277 Tb260 2.427 . S
O277 C276 1.275 . S
O278 Tb260 2.513 . S
O278 C276 1.246 . S
C279 O263 1.245 . S
C279 O264 1.259 . S
Tb280 O283 2.453 1_556 S
Tb280 O284 2.596 . S
Tb280 O285 2.374 . S
Tb280 O293 2.343 . S
Tb280 O295 2.353 . S
Tb280 O297 2.427 . S
Tb280 O298 2.513 . S
C281 O285 1.251 . S
C281 O287 1.263 . S
Tb282 O284 2.343 . S
Tb282 O287 2.353 . S
Tb282 O290 2.427 . S
Tb282 O291 2.513 . S
Tb282 O292 2.453 . S
Tb282 O293 2.596 . S
Tb282 O294 2.374 . S
O283 Tb280 2.453 1_554 S
O283 C299 1.245 1_554 S
O284 Tb280 2.596 . S
O284 Tb282 2.343 . S
O284 C299 1.259 . S
O285 Tb280 2.374 . S
O285 C281 1.251 . S
C286 O290 1.275 . S
C286 O291 1.246 . S
O287 C281 1.263 . S
O287 Tb282 2.353 . S
C288 O292 1.245 . S
C288 O293 1.259 . S
C289 O294 1.250 . S
C289 O295 1.263 . S
O290 Tb282 2.427 . S
O290 C286 1.275 . S
O291 Tb282 2.513 . S
O291 C286 1.246 . S
O292 Tb282 2.453 . S
O292 C288 1.245 . S
O293 Tb280 2.343 . S
O293 Tb282 2.596 . S
O293 C288 1.259 . S
O294 Tb282 2.374 . S
O294 C289 1.250 . S
O295 Tb280 2.353 . S
O295 C289 1.263 . S
C296 O297 1.275 . S
C296 O298 1.246 . S
O297 Tb280 2.427 . S
O297 C296 1.275 . S
O298 Tb280 2.513 . S
O298 C296 1.246 . S
C299 O283 1.245 1_556 S
C299 O284 1.259 . S
Tb300 O303 2.453 . S
Tb300 O304 2.596 . S
Tb300 O305 2.374 . S
Tb300 O313 2.343 . S
Tb300 O315 2.353 . S
Tb300 O317 2.427 . S
Tb300 O318 2.513 . S
C301 O305 1.251 . S
C301 O307 1.263 . S
Tb302 O304 2.343 . S
Tb302 O307 2.353 . S
Tb302 O310 2.427 . S
Tb302 O311 2.513 . S
Tb302 O312 2.453 . S
Tb302 O313 2.596 . S
Tb302 O314 2.374 . S
O303 Tb300 2.453 . S
O303 C319 1.245 . S
O304 Tb300 2.596 . S
O304 Tb302 2.343 . S
O304 C319 1.259 . S
O305 Tb300 2.374 . S
O305 C301 1.251 . S
C306 O310 1.275 . S
C306 O311 1.246 . S
O307 C301 1.263 . S
O307 Tb302 2.353 . S
C308 O312 1.245 . S
C308 O313 1.259 . S
C309 O314 1.250 . S
C309 O315 1.263 . S
O310 Tb302 2.427 . S
O310 C306 1.275 . S
O311 Tb302 2.513 . S
O311 C306 1.246 . S
O312 Tb302 2.453 . S
O312 C308 1.245 . S
O313 Tb300 2.343 . S
O313 Tb302 2.596 . S
O313 C308 1.259 . S
O314 Tb302 2.374 . S
O314 C309 1.250 . S
O315 Tb300 2.353 . S
O315 C309 1.263 . S
C316 O317 1.275 . S
C316 O318 1.246 . S
O317 Tb300 2.427 . S
O317 C316 1.275 . S
O318 Tb300 2.513 . S
O318 C316 1.246 . S
C319 O303 1.245 . S
C319 O304 1.259 . S
C320 C321 1.349 . S
C320 C322 1.327 . S
C320 H345 0.950 . S
C321 C320 1.349 . S
C321 C337 1.349 . S
C322 C320 1.327 . S
C322 C341 1.429 . S
C322 H346 0.950 . S
C323 C340 1.574 . S
C323 C342 1.368 . S
C323 H347 0.949 . S
H324 C328 0.949 . S
C325 C326 1.349 . S
C325 C327 1.327 . S
C325 H348 0.950 . S
C326 C325 1.349 . S
C326 C338 1.349 . S
C327 C325 1.327 . S
C327 C343 1.429 . S
C327 H349 0.950 . S
C328 H324 0.949 . S
C328 C336 1.574 . S
C328 C344 1.368 . S
H329 C337 0.950 . S
H330 C335 0.950 . S
H331 C336 0.949 . S
H332 C338 0.950 . S
H333 C339 0.950 . S
H334 C340 0.949 . S
C335 H330 0.950 . S
C335 C337 1.327 . S
C335 C341 1.429 . S
C336 C328 1.574 . S
C336 H331 0.949 . S
C336 C342 1.368 . S
C337 C321 1.349 . S
C337 H329 0.950 . S
C337 C335 1.327 . S
C338 C326 1.349 . S
C338 H332 0.950 . S
C338 C339 1.327 . S
C339 H333 0.950 . S
C339 C338 1.327 . S
C339 C343 1.429 . S
C340 C323 1.574 . S
C340 H334 0.949 . S
C340 C344 1.368 . S
C341 C322 1.429 . S
C341 C335 1.429 . S
C341 C342 1.523 . S
C342 C323 1.368 . S
C342 C336 1.368 . S
C342 C341 1.523 . S
C343 C327 1.429 . S
C343 C339 1.429 . S
C343 C344 1.523 . S
C344 C328 1.368 . S
C344 C340 1.368 . S
C344 C343 1.523 . S
H345 C320 0.950 . S
H346 C322 0.950 . S
H347 C323 0.949 . S
H348 C325 0.950 . S
H349 C327 0.950 . S
C350 C351 1.349 . S
C350 C352 1.327 . S
C350 H375 0.950 . S
C351 C350 1.349 . S
C351 C367 1.349 . S
C352 C350 1.327 . S
C352 C371 1.429 . S
C352 H376 0.950 . S
C353 C370 1.574 . S
C353 C372 1.368 . S
C353 H377 0.949 . S
H354 C358 0.949 . S
C355 C356 1.349 . S
C355 C357 1.327 . S
C355 H378 0.950 . S
C356 C355 1.349 . S
C356 C368 1.349 . S
C357 C355 1.327 . S
C357 C373 1.429 . S
C357 H379 0.950 . S
C358 H354 0.949 . S
C358 C366 1.574 . S
C358 C374 1.368 . S
H359 C367 0.950 . S
H360 C365 0.950 . S
H361 C366 0.949 . S
H362 C368 0.950 . S
H363 C369 0.950 . S
H364 C370 0.949 . S
C365 H360 0.950 . S
C365 C367 1.327 . S
C365 C371 1.429 . S
C366 C358 1.574 . S
C366 H361 0.949 . S
C366 C372 1.368 . S
C367 C351 1.349 . S
C367 H359 0.950 . S
C367 C365 1.327 . S
C368 C356 1.349 . S
C368 H362 0.950 . S
C368 C369 1.327 . S
C369 H363 0.950 . S
C369 C368 1.327 . S
C369 C373 1.429 . S
C370 C353 1.574 . S
C370 H364 0.949 . S
C370 C374 1.368 . S
C371 C352 1.429 . S
C371 C365 1.429 . S
C371 C372 1.523 . S
C372 C353 1.368 . S
C372 C366 1.368 . S
C372 C371 1.523 . S
C373 C357 1.429 . S
C373 C369 1.429 . S
C373 C374 1.523 . S
C374 C358 1.368 . S
C374 C370 1.368 . S
C374 C373 1.523 . S
H375 C350 0.950 . S
H376 C352 0.950 . S
H377 C353 0.949 . S
H378 C355 0.950 . S
H379 C357 0.950 . S
C380 C381 1.349 . S
C380 C382 1.327 . S
C380 H405 0.950 . S
C381 C380 1.349 . S
C381 C397 1.349 . S
C382 C380 1.327 . S
C382 C401 1.429 . S
C382 H406 0.950 . S
C383 C400 1.574 1_455 S
C383 C402 1.368 . S
C383 H407 0.949 . S
H384 C388 0.949 . S
C385 C386 1.349 . S
C385 C387 1.327 . S
C385 H408 0.950 . S
C386 C385 1.349 . S
C386 C398 1.349 . S
C387 C385 1.327 . S
C387 C403 1.429 . S
C387 H409 0.950 . S
C388 H384 0.949 . S
C388 C396 1.574 1_655 S
C388 C404 1.368 . S
H389 C397 0.950 . S
H390 C395 0.950 . S
H391 C396 0.949 . S
H392 C398 0.950 . S
H393 C399 0.950 . S
H394 C400 0.949 . S
C395 H390 0.950 . S
C395 C397 1.327 . S
C395 C401 1.429 . S
C396 C388 1.574 1_455 S
C396 H391 0.949 . S
C396 C402 1.368 . S
C397 C381 1.349 . S
C397 H389 0.950 . S
C397 C395 1.327 . S
C398 C386 1.349 . S
C398 H392 0.950 . S
C398 C399 1.327 . S
C399 H393 0.950 . S
C399 C398 1.327 . S
C399 C403 1.429 . S
C400 C383 1.574 1_655 S
C400 H394 0.949 . S
C400 C404 1.368 . S
C401 C382 1.429 . S
C401 C395 1.429 . S
C401 C402 1.523 . S
C402 C383 1.368 . S
C402 C396 1.368 . S
C402 C401 1.523 . S
C403 C387 1.429 . S
C403 C399 1.429 . S
C403 C404 1.523 . S
C404 C388 1.368 . S
C404 C400 1.368 . S
C404 C403 1.523 . S
H405 C380 0.950 . S
H406 C382 0.950 . S
H407 C383 0.949 . S
H408 C385 0.950 . S
H409 C387 0.950 . S
C410 C411 1.349 . S
C410 C412 1.327 . S
C410 H435 0.950 . S
C411 C410 1.349 . S
C411 C427 1.349 . S
C412 C410 1.327 . S
C412 C431 1.429 . S
C412 H436 0.950 . S
C413 C430 1.574 . S
C413 C432 1.368 1_455 S
C413 H437 0.949 . S
H414 C418 0.949 . S
C415 C416 1.349 . S
C415 C417 1.327 . S
C415 H438 0.950 . S
C416 C415 1.349 . S
C416 C428 1.349 . S
C417 C415 1.327 . S
C417 C433 1.429 . S
C417 H439 0.950 . S
C418 H414 0.949 . S
C418 C426 1.574 . S
C418 C434 1.368 1_655 S
H419 C427 0.950 . S
H420 C425 0.950 . S
H421 C426 0.949 . S
H422 C428 0.950 . S
H423 C429 0.950 . S
H424 C430 0.949 . S
C425 H420 0.950 . S
C425 C427 1.327 . S
C425 C431 1.429 . S
C426 C418 1.574 . S
C426 H421 0.949 . S
C426 C432 1.368 . S
C427 C411 1.349 . S
C427 H419 0.950 . S
C427 C425 1.327 . S
C428 C416 1.349 . S
C428 H422 0.950 . S
C428 C429 1.327 . S
C429 H423 0.950 . S
C429 C428 1.327 . S
C429 C433 1.429 . S
C430 C413 1.574 . S
C430 H424 0.949 . S
C430 C434 1.368 . S
C431 C412 1.429 . S
C431 C425 1.429 . S
C431 C432 1.523 . S
C432 C413 1.368 1_655 S
C432 C426 1.368 . S
C432 C431 1.523 . S
C433 C417 1.429 . S
C433 C429 1.429 . S
C433 C434 1.523 . S
C434 C418 1.368 1_455 S
C434 C430 1.368 . S
C434 C433 1.523 . S
H435 C410 0.950 . S
H436 C412 0.950 . S
H437 C413 0.949 . S
H438 C415 0.950 . S
H439 C417 0.950 . S
C440 C441 1.349 . S
C440 C442 1.327 . S
C440 H465 0.950 . S
C441 C440 1.349 . S
C441 C457 1.349 . S
C442 C440 1.327 . S
C442 C461 1.429 . S
C442 H466 0.950 . S
C443 C460 1.574 . S
C443 C462 1.368 . S
C443 H467 0.949 . S
H444 C448 0.949 . S
C445 C446 1.349 . S
C445 C447 1.327 . S
C445 H468 0.950 . S
C446 C445 1.349 . S
C446 C458 1.349 . S
C447 C445 1.327 . S
C447 C463 1.429 . S
C447 H469 0.950 . S
C448 H444 0.949 . S
C448 C456 1.574 . S
C448 C464 1.368 . S
H449 C457 0.950 . S
H450 C455 0.950 . S
H451 C456 0.949 . S
H452 C458 0.950 . S
H453 C459 0.950 . S
H454 C460 0.949 . S
C455 H450 0.950 . S
C455 C457 1.327 . S
C455 C461 1.429 . S
C456 C448 1.574 . S
C456 H451 0.949 . S
C456 C462 1.368 . S
C457 C441 1.349 . S
C457 H449 0.950 . S
C457 C455 1.327 . S
C458 C446 1.349 . S
C458 H452 0.950 . S
C458 C459 1.327 . S
C459 H453 0.950 . S
C459 C458 1.327 . S
C459 C463 1.429 . S
C460 C443 1.574 . S
C460 H454 0.949 . S
C460 C464 1.368 . S
C461 C442 1.429 . S
C461 C455 1.429 . S
C461 C462 1.523 . S
C462 C443 1.368 . S
C462 C456 1.368 . S
C462 C461 1.523 . S
C463 C447 1.429 . S
C463 C459 1.429 . S
C463 C464 1.523 . S
C464 C448 1.368 . S
C464 C460 1.368 . S
C464 C463 1.523 . S
H465 C440 0.950 . S
H466 C442 0.950 . S
H467 C443 0.949 . S
H468 C445 0.950 . S
H469 C447 0.950 . S
C470 C471 1.349 . S
C470 C472 1.327 . S
C470 H495 0.950 . S
C471 C470 1.349 . S
C471 C487 1.349 . S
C472 C470 1.327 . S
C472 C491 1.429 . S
C472 H496 0.950 . S
C473 C490 1.574 . S
C473 C492 1.368 . S
C473 H497 0.949 . S
H474 C478 0.949 . S
C475 C476 1.349 . S
C475 C477 1.327 . S
C475 H498 0.950 . S
C476 C475 1.349 . S
C476 C488 1.349 . S
C477 C475 1.327 . S
C477 C493 1.429 . S
C477 H499 0.950 . S
C478 H474 0.949 . S
C478 C486 1.574 . S
C478 C494 1.368 . S
H479 C487 0.950 . S
H480 C485 0.950 . S
H481 C486 0.949 . S
H482 C488 0.950 . S
H483 C489 0.950 . S
H484 C490 0.949 . S
C485 H480 0.950 . S
C485 C487 1.327 . S
C485 C491 1.429 . S
C486 C478 1.574 . S
C486 H481 0.949 . S
C486 C492 1.368 . S
C487 C471 1.349 . S
C487 H479 0.950 . S
C487 C485 1.327 . S
C488 C476 1.349 . S
C488 H482 0.950 . S
C488 C489 1.327 . S
C489 H483 0.950 . S
C489 C488 1.327 . S
C489 C493 1.429 . S
C490 C473 1.574 . S
C490 H484 0.949 . S
C490 C494 1.368 . S
C491 C472 1.429 . S
C491 C485 1.429 . S
C491 C492 1.523 . S
C492 C473 1.368 . S
C492 C486 1.368 . S
C492 C491 1.523 . S
C493 C477 1.429 . S
C493 C489 1.429 . S
C493 C494 1.523 . S
C494 C478 1.368 . S
C494 C490 1.368 . S
C494 C493 1.523 . S
H495 C470 0.950 . S
H496 C472 0.950 . S
H497 C473 0.949 . S
H498 C475 0.950 . S
H499 C477 0.950 . S
C500 C501 1.349 . S
C500 C502 1.327 . S
C500 H525 0.950 . S
C501 C500 1.349 . S
C501 C517 1.349 . S
C502 C500 1.327 . S
C502 C521 1.429 . S
C502 H526 0.950 . S
C503 C520 1.574 1_655 S
C503 C522 1.368 . S
C503 H527 0.949 . S
H504 C508 0.949 . S
C505 C506 1.349 . S
C505 C507 1.327 . S
C505 H528 0.950 . S
C506 C505 1.349 . S
C506 C518 1.349 . S
C507 C505 1.327 . S
C507 C523 1.429 . S
C507 H529 0.950 . S
C508 H504 0.949 . S
C508 C516 1.574 1_455 S
C508 C524 1.368 . S
H509 C517 0.950 . S
H510 C515 0.950 . S
H511 C516 0.949 . S
H512 C518 0.950 . S
H513 C519 0.950 . S
H514 C520 0.949 . S
C515 H510 0.950 . S
C515 C517 1.327 . S
C515 C521 1.429 . S
C516 C508 1.574 1_655 S
C516 H511 0.949 . S
C516 C522 1.368 . S
C517 C501 1.349 . S
C517 H509 0.950 . S
C517 C515 1.327 . S
C518 C506 1.349 . S
C518 H512 0.950 . S
C518 C519 1.327 . S
C519 H513 0.950 . S
C519 C518 1.327 . S
C519 C523 1.429 . S
C520 C503 1.574 1_455 S
C520 H514 0.949 . S
C520 C524 1.368 . S
C521 C502 1.429 . S
C521 C515 1.429 . S
C521 C522 1.523 . S
C522 C503 1.368 . S
C522 C516 1.368 . S
C522 C521 1.523 . S
C523 C507 1.429 . S
C523 C519 1.429 . S
C523 C524 1.523 . S
C524 C508 1.368 . S
C524 C520 1.368 . S
C524 C523 1.523 . S
H525 C500 0.950 . S
H526 C502 0.950 . S
H527 C503 0.949 . S
H528 C505 0.950 . S
H529 C507 0.950 . S
C530 C531 1.349 . S
C530 C532 1.327 . S
C530 H555 0.950 . S
C531 C530 1.349 . S
C531 C547 1.349 . S
C532 C530 1.327 . S
C532 C551 1.429 . S
C532 H556 0.950 . S
C533 C550 1.574 . S
C533 C552 1.368 1_655 S
C533 H557 0.949 . S
H534 C538 0.949 . S
C535 C536 1.349 . S
C535 C537 1.327 . S
C535 H558 0.950 . S
C536 C535 1.349 . S
C536 C548 1.349 . S
C537 C535 1.327 . S
C537 C553 1.429 . S
C537 H559 0.950 . S
C538 H534 0.949 . S
C538 C546 1.574 . S
C538 C554 1.368 1_455 S
H539 C547 0.950 . S
H540 C545 0.950 . S
H541 C546 0.949 . S
H542 C548 0.950 . S
H543 C549 0.950 . S
H544 C550 0.949 . S
C545 H540 0.950 . S
C545 C547 1.327 . S
C545 C551 1.429 . S
C546 C538 1.574 . S
C546 H541 0.949 . S
C546 C552 1.368 . S
C547 C531 1.349 . S
C547 H539 0.950 . S
C547 C545 1.327 . S
C548 C536 1.349 . S
C548 H542 0.950 . S
C548 C549 1.327 . S
C549 H543 0.950 . S
C549 C548 1.327 . S
C549 C553 1.429 . S
C550 C533 1.574 . S
C550 H544 0.949 . S
C550 C554 1.368 . S
C551 C532 1.429 . S
C551 C545 1.429 . S
C551 C552 1.523 . S
C552 C533 1.368 1_455 S
C552 C546 1.368 . S
C552 C551 1.523 . S
C553 C537 1.429 . S
C553 C549 1.429 . S
C553 C554 1.523 . S
C554 C538 1.368 1_655 S
C554 C550 1.368 . S
C554 C553 1.523 . S
H555 C530 0.950 . S
H556 C532 0.950 . S
H557 C533 0.949 . S
H558 C535 0.950 . S
H559 C537 0.950 . S
C560 C561 1.349 . S
C560 C562 1.327 . S
C560 H585 0.950 . S
C561 C560 1.349 . S
C561 C577 1.349 . S
C562 C560 1.327 . S
C562 C581 1.429 . S
C562 H586 0.950 . S
C563 C580 1.574 . S
C563 C582 1.368 . S
C563 H587 0.949 . S
H564 C568 0.949 . S
C565 C566 1.349 . S
C565 C567 1.327 . S
C565 H588 0.950 . S
C566 C565 1.349 . S
C566 C578 1.349 . S
C567 C565 1.327 . S
C567 C583 1.429 1_554 S
C567 H589 0.950 . S
C568 H564 0.949 . S
C568 C576 1.574 . S
C568 C584 1.368 . S
H569 C577 0.950 . S
H570 C575 0.950 . S
H571 C576 0.949 . S
H572 C578 0.950 . S
H573 C579 0.946 1_556 S
H574 C580 0.949 . S
C575 H570 0.950 . S
C575 C577 1.327 . S
C575 C581 1.429 . S
C576 C568 1.574 . S
C576 H571 0.949 . S
C576 C582 1.368 . S
C577 C561 1.349 . S
C577 H569 0.950 . S
C577 C575 1.327 . S
C578 C566 1.349 . S
C578 H572 0.950 . S
C578 C579 1.331 . S
C579 H573 0.946 1_554 S
C579 C578 1.331 . S
C579 C583 1.428 1_554 S
C580 C563 1.574 . S
C580 H574 0.949 . S
C580 C584 1.368 . S
C581 C562 1.429 . S
C581 C575 1.429 . S
C581 C582 1.523 . S
C582 C563 1.368 . S
C582 C576 1.368 . S
C582 C581 1.523 . S
C583 C567 1.429 1_556 S
C583 C579 1.428 1_556 S
C583 C584 1.523 . S
C584 C568 1.368 . S
C584 C580 1.368 . S
C584 C583 1.523 . S
H585 C560 0.950 . S
H586 C562 0.950 . S
H587 C563 0.949 . S
H588 C565 0.950 . S
H589 C567 0.950 . S
C590 C591 1.349 . S
C590 C592 1.327 . S
C590 H615 0.950 . S
C591 C590 1.349 . S
C591 C607 1.349 . S
C592 C590 1.327 . S
C592 C611 1.429 . S
C592 H616 0.950 . S
C593 C610 1.574 . S
C593 C612 1.368 . S
C593 H617 0.949 . S
H594 C598 0.949 . S
C595 C596 1.349 . S
C595 C597 1.327 . S
C595 H618 0.950 . S
C596 C595 1.349 . S
C596 C608 1.349 . S
C597 C595 1.327 . S
C597 C613 1.429 . S
C597 H619 0.950 . S
C598 H594 0.949 . S
C598 C606 1.574 . S
C598 C614 1.368 . S
H599 C607 0.950 . S
H600 C605 0.950 . S
H601 C606 0.949 . S
H602 C608 0.950 . S
H603 C609 0.950 . S
H604 C610 0.949 . S
C605 H600 0.950 . S
C605 C607 1.327 . S
C605 C611 1.429 . S
C606 C598 1.574 . S
C606 H601 0.949 . S
C606 C612 1.368 . S
C607 C591 1.349 . S
C607 H599 0.950 . S
C607 C605 1.327 . S
C608 C596 1.349 . S
C608 H602 0.950 . S
C608 C609 1.327 . S
C609 H603 0.950 . S
C609 C608 1.327 . S
C609 C613 1.429 . S
C610 C593 1.574 . S
C610 H604 0.949 . S
C610 C614 1.368 . S
C611 C592 1.429 . S
C611 C605 1.429 . S
C611 C612 1.523 . S
C612 C593 1.368 . S
C612 C606 1.368 . S
C612 C611 1.523 . S
C613 C597 1.429 . S
C613 C609 1.429 . S
C613 C614 1.523 . S
C614 C598 1.368 . S
C614 C610 1.368 . S
C614 C613 1.523 . S
H615 C590 0.950 . S
H616 C592 0.950 . S
H617 C593 0.949 . S
H618 C595 0.950 . S
H619 C597 0.950 . S
C620 C621 1.349 . S
C620 C622 1.327 . S
C620 H645 0.950 . S
C621 C620 1.349 . S
C621 C637 1.349 . S
C622 C620 1.327 . S
C622 C641 1.429 . S
C622 H646 0.950 . S
C623 C640 1.574 . S
C623 C642 1.368 . S
C623 H647 0.949 . S
H624 C628 0.949 . S
C625 C626 1.349 . S
C625 C627 1.327 . S
C625 H648 0.950 . S
C626 C625 1.349 . S
C626 C638 1.349 . S
C627 C625 1.327 . S
C627 C643 1.429 . S
C627 H649 0.950 . S
C628 H624 0.949 . S
C628 C636 1.574 . S
C628 C644 1.368 . S
H629 C637 0.950 . S
H630 C635 0.950 . S
H631 C636 0.949 . S
H632 C638 0.950 . S
H633 C639 0.950 . S
H634 C640 0.949 . S
C635 H630 0.950 . S
C635 C637 1.327 . S
C635 C641 1.429 . S
C636 C628 1.574 . S
C636 H631 0.949 . S
C636 C642 1.368 . S
C637 C621 1.349 . S
C637 H629 0.950 . S
C637 C635 1.327 . S
C638 C626 1.349 . S
C638 H632 0.950 . S
C638 C639 1.327 . S
C639 H633 0.950 . S
C639 C638 1.327 . S
C639 C643 1.429 . S
C640 C623 1.574 . S
C640 H634 0.949 . S
C640 C644 1.368 . S
C641 C622 1.429 . S
C641 C635 1.429 . S
C641 C642 1.523 . S
C642 C623 1.368 . S
C642 C636 1.368 . S
C642 C641 1.523 . S
C643 C627 1.429 . S
C643 C639 1.429 . S
C643 C644 1.523 . S
C644 C628 1.368 . S
C644 C640 1.368 . S
C644 C643 1.523 . S
H645 C620 0.950 . S
H646 C622 0.950 . S
H647 C623 0.949 . S
H648 C625 0.950 . S
H649 C627 0.950 . S
C650 C651 1.349 . S
C650 C652 1.327 . S
C650 H675 0.950 . S
C651 C650 1.349 . S
C651 C667 1.349 . S
C652 C650 1.327 . S
C652 C671 1.429 . S
C652 H676 0.950 . S
C653 C670 1.574 . S
C653 C672 1.368 . S
C653 H677 0.949 . S
H654 C658 0.949 . S
C655 C656 1.349 . S
C655 C657 1.327 . S
C655 H678 0.950 . S
C656 C655 1.349 . S
C656 C668 1.349 . S
C657 C655 1.327 . S
C657 C673 1.429 . S
C657 H679 0.950 . S
C658 H654 0.949 . S
C658 C666 1.574 . S
C658 C674 1.368 . S
H659 C667 0.950 . S
H660 C665 0.950 . S
H661 C666 0.949 . S
H662 C668 0.950 . S
H663 C669 0.950 . S
H664 C670 0.949 . S
C665 H660 0.950 . S
C665 C667 1.327 . S
C665 C671 1.429 . S
C666 C658 1.574 . S
C666 H661 0.949 . S
C666 C672 1.368 . S
C667 C651 1.349 . S
C667 H659 0.950 . S
C667 C665 1.327 . S
C668 C656 1.349 . S
C668 H662 0.950 . S
C668 C669 1.327 . S
C669 H663 0.950 . S
C669 C668 1.327 . S
C669 C673 1.429 . S
C670 C653 1.574 . S
C670 H664 0.949 . S
C670 C674 1.368 . S
C671 C652 1.429 . S
C671 C665 1.429 . S
C671 C672 1.523 . S
C672 C653 1.368 . S
C672 C666 1.368 . S
C672 C671 1.523 . S
C673 C657 1.429 . S
C673 C669 1.429 . S
C673 C674 1.523 . S
C674 C658 1.368 . S
C674 C670 1.368 . S
C674 C673 1.523 . S
H675 C650 0.950 . S
H676 C652 0.950 . S
H677 C653 0.949 . S
H678 C655 0.950 . S
H679 C657 0.950 . S
C680 C681 1.349 1_554 S
C680 C682 1.327 . S
C680 H705 0.950 . S
C681 C680 1.349 1_556 S
C681 C697 1.349 . S
C682 C680 1.327 . S
C682 C701 1.429 . S
C682 H706 0.950 . S
C683 C700 1.574 1_556 S
C683 C702 1.368 1_556 S
C683 H707 0.949 . S
H684 C688 0.949 . S
C685 C686 1.349 . S
C685 C687 1.327 . S
C685 H708 0.950 . S
C686 C685 1.349 . S
C686 C698 1.349 . S
C687 C685 1.327 . S
C687 C703 1.429 . S
C687 H709 0.950 . S
C688 H684 0.949 . S
C688 C696 1.574 . S
C688 C704 1.368 . S
H689 C697 0.950 . S
H690 C695 0.950 . S
H691 C696 0.949 . S
H692 C698 0.950 . S
H693 C699 0.950 . S
H694 C700 0.949 1_556 S
C695 H690 0.950 . S
C695 C697 1.327 . S
C695 C701 1.429 1_556 S
C696 C688 1.574 . S
C696 H691 0.949 . S
C696 C702 1.368 . S
C697 C681 1.349 . S
C697 H689 0.950 . S
C697 C695 1.327 . S
C698 C686 1.349 . S
C698 H692 0.950 . S
C698 C699 1.327 . S
C699 H693 0.950 . S
C699 C698 1.327 . S
C699 C703 1.429 . S
C700 C683 1.574 1_554 S
C700 H694 0.949 1_554 S
C700 C704 1.368 . S
C701 C682 1.429 . S
C701 C695 1.429 1_554 S
C701 C702 1.523 . S
C702 C683 1.368 1_554 S
C702 C696 1.368 . S
C702 C701 1.523 . S
C703 C687 1.429 . S
C703 C699 1.429 . S
C703 C704 1.523 . S
C704 C688 1.368 . S
C704 C700 1.368 . S
C704 C703 1.523 . S
H705 C680 0.950 . S
H706 C682 0.950 . S
H707 C683 0.949 . S
H708 C685 0.950 . S
H709 C687 0.950 . S
C710 C711 1.349 . S
C710 C712 1.327 . S
C710 H735 0.950 . S
C711 C710 1.349 . S
C711 C727 1.349 . S
C712 C710 1.327 . S
C712 C731 1.429 . S
C712 H736 0.950 . S
C713 C730 1.574 . S
C713 C732 1.368 . S
C713 H737 0.949 . S
H714 C718 0.949 . S
C715 C716 1.349 . S
C715 C717 1.327 . S
C715 H738 0.950 . S
C716 C715 1.349 . S
C716 C728 1.349 . S
C717 C715 1.327 . S
C717 C733 1.429 . S
C717 H739 0.950 . S
C718 H714 0.949 . S
C718 C726 1.574 . S
C718 C734 1.368 . S
H719 C727 0.950 . S
H720 C725 0.950 . S
H721 C726 0.949 . S
H722 C728 0.950 . S
H723 C729 0.950 . S
H724 C730 0.949 . S
C725 H720 0.950 . S
C725 C727 1.327 . S
C725 C731 1.429 . S
C726 C718 1.574 . S
C726 H721 0.949 . S
C726 C732 1.368 . S
C727 C711 1.349 . S
C727 H719 0.950 . S
C727 C725 1.327 . S
C728 C716 1.349 . S
C728 H722 0.950 . S
C728 C729 1.327 . S
C729 H723 0.950 . S
C729 C728 1.327 . S
C729 C733 1.429 . S
C730 C713 1.574 . S
C730 H724 0.949 . S
C730 C734 1.368 . S
C731 C712 1.429 . S
C731 C725 1.429 . S
C731 C732 1.523 . S
C732 C713 1.368 . S
C732 C726 1.368 . S
C732 C731 1.523 . S
C733 C717 1.429 . S
C733 C729 1.429 . S
C733 C734 1.523 . S
C734 C718 1.368 . S
C734 C730 1.368 . S
C734 C733 1.523 . S
H735 C710 0.950 . S
H736 C712 0.950 . S
H737 C713 0.949 . S
H738 C715 0.950 . S
H739 C717 0.950 . S
C740 C741 1.349 . S
C740 C742 1.327 . S
C740 H765 0.950 . S
C741 C740 1.349 . S
C741 C757 1.349 . S
C742 C740 1.327 . S
C742 C761 1.429 . S
C742 H766 0.950 . S
C743 C760 1.574 . S
C743 C762 1.368 . S
C743 H767 0.949 . S
H744 C748 0.949 . S
C745 C746 1.349 . S
C745 C747 1.327 . S
C745 H768 0.950 . S
C746 C745 1.349 . S
C746 C758 1.349 . S
C747 C745 1.327 . S
C747 C763 1.429 . S
C747 H769 0.950 . S
C748 H744 0.949 . S
C748 C756 1.574 . S
C748 C764 1.368 . S
H749 C757 0.950 . S
H750 C755 0.950 . S
H751 C756 0.949 . S
H752 C758 0.950 . S
H753 C759 0.950 . S
H754 C760 0.949 . S
C755 H750 0.950 . S
C755 C757 1.327 . S
C755 C761 1.429 . S
C756 C748 1.574 . S
C756 H751 0.949 . S
C756 C762 1.368 . S
C757 C741 1.349 . S
C757 H749 0.950 . S
C757 C755 1.327 . S
C758 C746 1.349 . S
C758 H752 0.950 . S
C758 C759 1.327 . S
C759 H753 0.950 . S
C759 C758 1.327 . S
C759 C763 1.429 . S
C760 C743 1.574 . S
C760 H754 0.949 . S
C760 C764 1.368 . S
C761 C742 1.429 . S
C761 C755 1.429 . S
C761 C762 1.523 . S
C762 C743 1.368 . S
C762 C756 1.368 . S
C762 C761 1.523 . S
C763 C747 1.429 . S
C763 C759 1.429 . S
C763 C764 1.523 . S
C764 C748 1.368 . S
C764 C760 1.368 . S
C764 C763 1.523 . S
H765 C740 0.950 . S
H766 C742 0.950 . S
H767 C743 0.949 . S
H768 C745 0.950 . S
H769 C747 0.950 . S
C770 C771 1.349 . S
C770 C772 1.327 . S
C770 H795 0.950 . S
C771 C770 1.349 . S
C771 C787 1.349 . S
C772 C770 1.327 . S
C772 C791 1.429 . S
C772 H796 0.950 . S
C773 C790 1.574 . S
C773 C792 1.368 . S
C773 H797 0.949 . S
H774 C778 0.949 . S
C775 C776 1.349 . S
C775 C777 1.327 . S
C775 H798 0.950 . S
C776 C775 1.349 . S
C776 C788 1.349 . S
C777 C775 1.327 . S
C777 C793 1.429 . S
C777 H799 0.950 . S
C778 H774 0.949 . S
C778 C786 1.574 . S
C778 C794 1.368 . S
H779 C787 0.950 . S
H780 C785 0.950 . S
H781 C786 0.949 . S
H782 C788 0.950 . S
H783 C789 0.950 . S
H784 C790 0.949 . S
C785 H780 0.950 . S
C785 C787 1.327 . S
C785 C791 1.429 . S
C786 C778 1.574 . S
C786 H781 0.949 . S
C786 C792 1.368 . S
C787 C771 1.349 . S
C787 H779 0.950 . S
C787 C785 1.327 . S
C788 C776 1.349 . S
C788 H782 0.950 . S
C788 C789 1.327 . S
C789 H783 0.950 . S
C789 C788 1.327 . S
C789 C793 1.429 . S
C790 C773 1.574 . S
C790 H784 0.949 . S
C790 C794 1.368 . S
C791 C772 1.429 . S
C791 C785 1.429 . S
C791 C792 1.523 . S
C792 C773 1.368 . S
C792 C786 1.368 . S
C792 C791 1.523 . S
C793 C777 1.429 . S
C793 C789 1.429 . S
C793 C794 1.523 . S
C794 C778 1.368 . S
C794 C790 1.368 . S
C794 C793 1.523 . S
H795 C770 0.950 . S
H796 C772 0.950 . S
H797 C773 0.949 . S
H798 C775 0.950 . S
H799 C777 0.950 . S
C800 C801 1.349 . S
C800 C802 1.327 . S
C800 H825 0.950 . S
C801 C800 1.349 . S
C801 C817 1.349 . S
C802 C800 1.327 . S
C802 C821 1.429 . S
C802 H826 0.950 . S
C803 C820 1.574 . S
C803 C822 1.368 . S
C803 H827 0.949 . S
H804 C808 0.949 . S
C805 C806 1.349 . S
C805 C807 1.327 . S
C805 H828 0.950 . S
C806 C805 1.349 . S
C806 C818 1.349 . S
C807 C805 1.327 . S
C807 C823 1.429 . S
C807 H829 0.950 . S
C808 H804 0.949 . S
C808 C816 1.574 . S
C808 C824 1.368 . S
H809 C817 0.950 . S
H810 C815 0.950 . S
H811 C816 0.949 . S
H812 C818 0.950 . S
H813 C819 0.950 . S
H814 C820 0.949 . S
C815 H810 0.950 . S
C815 C817 1.327 . S
C815 C821 1.429 . S
C816 C808 1.574 . S
C816 H811 0.949 . S
C816 C822 1.368 . S
C817 C801 1.349 . S
C817 H809 0.950 . S
C817 C815 1.327 . S
C818 C806 1.349 . S
C818 H812 0.950 . S
C818 C819 1.327 . S
C819 H813 0.950 . S
C819 C818 1.327 . S
C819 C823 1.429 . S
C820 C803 1.574 . S
C820 H814 0.949 . S
C820 C824 1.368 . S
C821 C802 1.429 . S
C821 C815 1.429 . S
C821 C822 1.523 . S
C822 C803 1.368 . S
C822 C816 1.368 . S
C822 C821 1.523 . S
C823 C807 1.429 . S
C823 C819 1.429 . S
C823 C824 1.523 . S
C824 C808 1.368 . S
C824 C820 1.368 . S
C824 C823 1.523 . S
H825 C800 0.950 . S
H826 C802 0.950 . S
H827 C803 0.949 . S
H828 C805 0.950 . S
H829 C807 0.950 . S
C830 C831 1.349 . S
C830 C832 1.327 . S
C830 H855 0.950 . S
C831 C830 1.349 . S
C831 C847 1.349 . S
C832 C830 1.327 . S
C832 C851 1.429 1_545 S
C832 H856 0.950 . S
C833 C850 1.574 . S
C833 C852 1.368 . S
C833 H857 0.949 . S
H834 C838 0.949 . S
C835 C836 1.349 . S
C835 C837 1.327 . S
C835 H858 0.950 . S
C836 C835 1.349 . S
C836 C848 1.349 . S
C837 C835 1.327 . S
C837 C853 1.429 . S
C837 H859 0.950 . S
C838 H834 0.949 . S
C838 C846 1.574 . S
C838 C854 1.368 . S
H839 C847 0.950 . S
H840 C845 0.950 . S
H841 C846 0.949 . S
H842 C848 0.950 . S
H843 C849 0.950 . S
H844 C850 0.949 . S
C845 H840 0.950 . S
C845 C847 1.327 1_565 S
C845 C851 1.429 . S
C846 C838 1.574 . S
C846 H841 0.949 . S
C846 C852 1.368 . S
C847 C831 1.349 . S
C847 H839 0.950 . S
C847 C845 1.327 1_545 S
C848 C836 1.349 . S
C848 H842 0.950 . S
C848 C849 1.327 . S
C849 H843 0.950 . S
C849 C848 1.327 . S
C849 C853 1.429 . S
C850 C833 1.574 . S
C850 H844 0.949 . S
C850 C854 1.368 . S
C851 C832 1.429 1_565 S
C851 C845 1.429 . S
C851 C852 1.523 . S
C852 C833 1.368 . S
C852 C846 1.368 . S
C852 C851 1.523 . S
C853 C837 1.429 . S
C853 C849 1.429 . S
C853 C854 1.523 . S
C854 C838 1.368 . S
C854 C850 1.368 . S
C854 C853 1.523 . S
H855 C830 0.950 . S
H856 C832 0.950 . S
H857 C833 0.949 . S
H858 C835 0.950 . S
H859 C837 0.950 . S
C860 C861 1.349 1_556 S
C860 C862 1.327 . S
C860 H885 0.950 . S
C861 C860 1.349 1_554 S
C861 C877 1.349 . S
C862 C860 1.327 . S
C862 C881 1.429 . S
C862 H886 0.950 . S
C863 C880 1.574 1_554 S
C863 C882 1.368 1_554 S
C863 H887 0.949 . S
H864 C868 0.949 . S
C865 C866 1.349 . S
C865 C867 1.327 . S
C865 H888 0.950 . S
C866 C865 1.349 . S
C866 C878 1.349 . S
C867 C865 1.327 . S
C867 C883 1.429 . S
C867 H889 0.950 . S
C868 H864 0.949 . S
C868 C876 1.574 . S
C868 C884 1.368 . S
H869 C877 0.950 . S
H870 C875 0.950 . S
H871 C876 0.949 . S
H872 C878 0.950 . S
H873 C879 0.950 . S
H874 C880 0.949 1_554 S
C875 H870 0.950 . S
C875 C877 1.327 . S
C875 C881 1.429 1_554 S
C876 C868 1.574 . S
C876 H871 0.949 . S
C876 C882 1.368 . S
C877 C861 1.349 . S
C877 H869 0.950 . S
C877 C875 1.327 . S
C878 C866 1.349 . S
C878 H872 0.950 . S
C878 C879 1.327 . S
C879 H873 0.950 . S
C879 C878 1.327 . S
C879 C883 1.429 . S
C880 C863 1.574 1_556 S
C880 H874 0.949 1_556 S
C880 C884 1.368 . S
C881 C862 1.429 . S
C881 C875 1.429 1_556 S
C881 C882 1.523 . S
C882 C863 1.368 1_556 S
C882 C876 1.368 . S
C882 C881 1.523 . S
C883 C867 1.429 . S
C883 C879 1.429 . S
C883 C884 1.523 . S
C884 C868 1.368 . S
C884 C880 1.368 . S
C884 C883 1.523 . S
H885 C860 0.950 . S
H886 C862 0.950 . S
H887 C863 0.949 . S
H888 C865 0.950 . S
H889 C867 0.950 . S
C890 C891 1.349 . S
C890 C892 1.327 1_565 S
C890 H915 0.950 . S
C891 C890 1.349 . S
C891 C907 1.349 . S
C892 C890 1.327 1_545 S
C892 C911 1.429 . S
C892 H916 0.950 . S
C893 C910 1.574 . S
C893 C912 1.368 . S
C893 H917 0.949 . S
H894 C898 0.949 . S
C895 C896 1.349 . S
C895 C897 1.327 . S
C895 H918 0.950 . S
C896 C895 1.349 . S
C896 C908 1.349 . S
C897 C895 1.327 . S
C897 C913 1.429 . S
C897 H919 0.950 . S
C898 H894 0.949 . S
C898 C906 1.574 . S
C898 C914 1.368 . S
H899 C907 0.950 . S
H900 C905 0.954 . S
H901 C906 0.949 . S
H902 C908 0.950 . S
H903 C909 0.950 . S
H904 C910 0.949 . S
C905 H900 0.954 . S
C905 C907 1.327 . S
C905 C911 1.429 1_565 S
C906 C898 1.574 . S
C906 H901 0.949 . S
C906 C912 1.368 . S
C907 C891 1.349 . S
C907 H899 0.950 . S
C907 C905 1.327 . S
C908 C896 1.349 . S
C908 H902 0.950 . S
C908 C909 1.327 . S
C909 H903 0.950 . S
C909 C908 1.327 . S
C909 C913 1.429 . S
C910 C893 1.574 . S
C910 H904 0.949 . S
C910 C914 1.368 . S
C911 C892 1.429 . S
C911 C905 1.429 1_545 S
C911 C912 1.523 . S
C912 C893 1.368 . S
C912 C906 1.368 . S
C912 C911 1.523 . S
C913 C897 1.429 . S
C913 C909 1.429 . S
C913 C914 1.523 . S
C914 C898 1.368 . S
C914 C910 1.368 . S
C914 C913 1.523 . S
H915 C890 0.950 . S
H916 C892 0.950 . S
H917 C893 0.949 . S
H918 C895 0.950 . S
H919 C897 0.950 . S
C920 C921 1.349 . S
C920 C922 1.327 . S
C920 H945 0.950 . S
C921 C920 1.349 . S
C921 C937 1.349 . S
C922 C920 1.327 . S
C922 C941 1.429 . S
C922 H946 0.950 . S
C923 C940 1.574 . S
C923 C942 1.368 . S
C923 H947 0.949 . S
H924 C928 0.949 . S
C925 C926 1.349 . S
C925 C927 1.327 . S
C925 H948 0.950 . S
C926 C925 1.349 . S
C926 C938 1.349 . S
C927 C925 1.327 . S
C927 C943 1.429 . S
C927 H949 0.950 . S
C928 H924 0.949 . S
C928 C936 1.574 . S
C928 C944 1.368 . S
H929 C937 0.950 . S
H930 C935 0.950 . S
H931 C936 0.949 . S
H932 C938 0.950 . S
H933 C939 0.950 . S
H934 C940 0.949 . S
C935 H930 0.950 . S
C935 C937 1.327 . S
C935 C941 1.429 . S
C936 C928 1.574 . S
C936 H931 0.949 . S
C936 C942 1.368 . S
C937 C921 1.349 . S
C937 H929 0.950 . S
C937 C935 1.327 . S
C938 C926 1.349 . S
C938 H932 0.950 . S
C938 C939 1.327 . S
C939 H933 0.950 . S
C939 C938 1.327 . S
C939 C943 1.429 . S
C940 C923 1.574 . S
C940 H934 0.949 . S
C940 C944 1.368 . S
C941 C922 1.429 . S
C941 C935 1.429 . S
C941 C942 1.523 . S
C942 C923 1.368 . S
C942 C936 1.368 . S
C942 C941 1.523 . S
C943 C927 1.429 . S
C943 C939 1.429 . S
C943 C944 1.523 . S
C944 C928 1.368 . S
C944 C940 1.368 . S
C944 C943 1.523 . S
H945 C920 0.950 . S
H946 C922 0.950 . S
H947 C923 0.949 . S
H948 C925 0.950 . S
H949 C927 0.950 . S
C950 C951 1.349 . S
C950 C952 1.327 . S
C950 H975 0.950 . S
C951 C950 1.349 . S
C951 C967 1.349 . S
C952 C950 1.327 . S
C952 C971 1.429 . S
C952 H976 0.950 . S
C953 C970 1.574 . S
C953 C972 1.368 . S
C953 H977 0.949 . S
H954 C958 0.949 . S
C955 C956 1.349 . S
C955 C957 1.327 . S
C955 H978 0.950 . S
C956 C955 1.349 . S
C956 C968 1.349 . S
C957 C955 1.327 . S
C957 C973 1.429 1_565 S
C957 H979 0.950 1_565 S
C958 H954 0.949 . S
C958 C966 1.574 . S
C958 C974 1.368 . S
H959 C967 0.950 . S
H960 C965 0.950 . S
H961 C966 0.949 . S
H962 C968 0.950 . S
H963 C969 0.950 . S
H964 C970 0.949 . S
C965 H960 0.950 . S
C965 C967 1.327 . S
C965 C971 1.429 . S
C966 C958 1.574 . S
C966 H961 0.949 . S
C966 C972 1.368 . S
C967 C951 1.349 . S
C967 H959 0.950 . S
C967 C965 1.327 . S
C968 C956 1.349 . S
C968 H962 0.950 . S
C968 C969 1.327 1_565 S
C969 H963 0.950 . S
C969 C968 1.327 1_545 S
C969 C973 1.429 . S
C970 C953 1.574 . S
C970 H964 0.949 . S
C970 C974 1.368 . S
C971 C952 1.429 . S
C971 C965 1.429 . S
C971 C972 1.523 . S
C972 C953 1.368 . S
C972 C966 1.368 . S
C972 C971 1.523 . S
C973 C957 1.429 1_545 S
C973 C969 1.429 . S
C973 C974 1.523 . S
C974 C958 1.368 . S
C974 C970 1.368 . S
C974 C973 1.523 . S
H975 C950 0.950 . S
H976 C952 0.950 . S
H977 C953 0.949 . S
H978 C955 0.950 . S
H979 C957 0.950 1_545 S
C980 C981 1.349 . S
C980 C982 1.327 . S
C980 H1005 0.950 . S
C981 C980 1.349 . S
C981 C997 1.349 . S
C982 C980 1.327 . S
C982 C1001 1.429 . S
C982 H1006 0.950 . S
C983 C1000 1.574 . S
C983 C1002 1.368 . S
C983 H1007 0.949 . S
H984 C988 0.949 1_556 S
C985 C986 1.349 . S
C985 C987 1.327 1_556 S
C985 H1008 0.943 1_556 S
C986 C985 1.349 . S
C986 C998 1.349 . S
C987 C985 1.327 1_554 S
C987 C1003 1.429 . S
C987 H1009 0.950 . S
C988 H984 0.949 1_554 S
C988 C996 1.574 . S
C988 C1004 1.368 . S
H989 C997 0.950 . S
H990 C995 0.950 . S
H991 C996 0.949 . S
H992 C998 0.950 . S
H993 C999 0.950 . S
H994 C1000 0.949 . S
C995 H990 0.950 . S
C995 C997 1.327 . S
C995 C1001 1.429 . S
C996 C988 1.574 . S
C996 H991 0.949 . S
C996 C1002 1.368 . S
C997 C981 1.349 . S
C997 H989 0.950 . S
C997 C995 1.327 . S
C998 C986 1.349 . S
C998 H992 0.950 . S
C998 C999 1.327 . S
C999 H993 0.950 . S
C999 C998 1.327 . S
C999 C1003 1.429 1_556 S
C1000 C983 1.574 . S
C1000 H994 0.949 . S
C1000 C1004 1.368 . S
C1001 C982 1.429 . S
C1001 C995 1.429 . S
C1001 C1002 1.523 . S
C1002 C983 1.368 . S
C1002 C996 1.368 . S
C1002 C1001 1.523 . S
C1003 C987 1.429 . S
C1003 C999 1.429 1_554 S
C1003 C1004 1.523 . S
C1004 C988 1.368 . S
C1004 C1000 1.368 . S
C1004 C1003 1.523 . S
H1005 C980 0.950 . S
H1006 C982 0.950 . S
H1007 C983 0.949 . S
H1008 C985 0.943 1_554 S
H1009 C987 0.950 . S
C1010 C1011 1.349 . S
C1010 C1012 1.327 1_545 S
C1010 H1035 0.950 . S
C1011 C1010 1.349 . S
C1011 C1027 1.349 . S
C1012 C1010 1.327 1_565 S
C1012 C1031 1.429 . S
C1012 H1036 0.950 . S
C1013 C1030 1.574 . S
C1013 C1032 1.368 . S
C1013 H1037 0.949 . S
H1014 C1018 0.949 . S
C1015 C1016 1.349 . S
C1015 C1017 1.327 . S
C1015 H1038 0.950 . S
C1016 C1015 1.349 . S
C1016 C1028 1.349 . S
C1017 C1015 1.327 . S
C1017 C1033 1.429 . S
C1017 H1039 0.950 . S
C1018 H1014 0.949 . S
C1018 C1026 1.574 . S
C1018 C1034 1.368 . S
H1019 C1027 0.950 . S
H1020 C1025 0.950 . S
H1021 C1026 0.949 . S
H1022 C1028 0.950 . S
H1023 C1029 0.950 . S
H1024 C1030 0.949 . S
C1025 H1020 0.950 . S
C1025 C1027 1.327 1_565 S
C1025 C1031 1.429 . S
C1026 C1018 1.574 . S
C1026 H1021 0.949 . S
C1026 C1032 1.368 . S
C1027 C1011 1.349 . S
C1027 H1019 0.950 . S
C1027 C1025 1.327 1_545 S
C1028 C1016 1.349 . S
C1028 H1022 0.950 . S
C1028 C1029 1.327 . S
C1029 H1023 0.950 . S
C1029 C1028 1.327 . S
C1029 C1033 1.429 . S
C1030 C1013 1.574 . S
C1030 H1024 0.949 . S
C1030 C1034 1.368 . S
C1031 C1012 1.429 . S
C1031 C1025 1.429 . S
C1031 C1032 1.523 . S
C1032 C1013 1.368 . S
C1032 C1026 1.368 . S
C1032 C1031 1.523 . S
C1033 C1017 1.429 . S
C1033 C1029 1.429 . S
C1033 C1034 1.523 . S
C1034 C1018 1.368 . S
C1034 C1030 1.368 . S
C1034 C1033 1.523 . S
H1035 C1010 0.950 . S
H1036 C1012 0.950 . S
H1037 C1013 0.949 . S
H1038 C1015 0.950 . S
H1039 C1017 0.950 . S
C1040 C1041 1.349 . S
C1040 C1042 1.327 . S
C1040 H1065 0.950 . S
C1041 C1040 1.349 . S
C1041 C1057 1.349 . S
C1042 C1040 1.327 . S
C1042 C1061 1.429 . S
C1042 H1066 0.950 . S
C1043 C1060 1.574 . S
C1043 C1062 1.368 . S
C1043 H1067 0.949 . S
H1044 C1048 0.949 . S
C1045 C1046 1.349 . S
C1045 C1047 1.327 . S
C1045 H1068 0.950 . S
C1046 C1045 1.349 . S
C1046 C1058 1.349 . S
C1047 C1045 1.327 . S
C1047 C1063 1.429 . S
C1047 H1069 0.950 . S
C1048 H1044 0.949 . S
C1048 C1056 1.574 . S
C1048 C1064 1.368 . S
H1049 C1057 0.950 1_554 S
H1050 C1055 0.950 . S
H1051 C1056 0.949 . S
H1052 C1058 0.950 . S
H1053 C1059 0.950 . S
H1054 C1060 0.949 . S
C1055 H1050 0.950 . S
C1055 C1057 1.327 . S
C1055 C1061 1.429 . S
C1056 C1048 1.574 . S
C1056 H1051 0.949 . S
C1056 C1062 1.368 . S
C1057 C1041 1.349 . S
C1057 H1049 0.950 1_556 S
C1057 C1055 1.327 . S
C1058 C1046 1.349 . S
C1058 H1052 0.950 . S
C1058 C1059 1.327 . S
C1059 H1053 0.950 . S
C1059 C1058 1.327 . S
C1059 C1063 1.429 . S
C1060 C1043 1.574 . S
C1060 H1054 0.949 . S
C1060 C1064 1.368 . S
C1061 C1042 1.429 . S
C1061 C1055 1.429 . S
C1061 C1062 1.523 . S
C1062 C1043 1.368 . S
C1062 C1056 1.368 . S
C1062 C1061 1.523 . S
C1063 C1047 1.429 . S
C1063 C1059 1.429 . S
C1063 C1064 1.523 . S
C1064 C1048 1.368 . S
C1064 C1060 1.368 . S
C1064 C1063 1.523 . S
H1065 C1040 0.950 . S
H1066 C1042 0.950 . S
H1067 C1043 0.949 . S
H1068 C1045 0.950 . S
H1069 C1047 0.950 . S
C1070 C1071 1.349 . S
C1070 C1072 1.327 . S
C1070 H1095 0.950 . S
C1071 C1070 1.349 . S
C1071 C1087 1.349 . S
C1072 C1070 1.327 . S
C1072 C1091 1.429 . S
C1072 H1096 0.950 . S
C1073 C1090 1.574 . S
C1073 C1092 1.368 . S
C1073 H1097 0.949 . S
H1074 C1078 0.949 . S
C1075 C1076 1.349 . S
C1075 C1077 1.327 . S
C1075 H1098 0.950 . S
C1076 C1075 1.349 . S
C1076 C1088 1.349 . S
C1077 C1075 1.327 . S
C1077 C1093 1.429 . S
C1077 H1099 0.950 . S
C1078 H1074 0.949 . S
C1078 C1086 1.574 . S
C1078 C1094 1.368 . S
H1079 C1087 0.950 . S
H1080 C1085 0.950 . S
H1081 C1086 0.949 . S
H1082 C1088 0.950 . S
H1083 C1089 0.950 . S
H1084 C1090 0.949 . S
C1085 H1080 0.950 . S
C1085 C1087 1.327 . S
C1085 C1091 1.429 . S
C1086 C1078 1.574 . S
C1086 H1081 0.949 . S
C1086 C1092 1.368 . S
C1087 C1071 1.349 . S
C1087 H1079 0.950 . S
C1087 C1085 1.327 . S
C1088 C1076 1.349 . S
C1088 H1082 0.950 . S
C1088 C1089 1.327 . S
C1089 H1083 0.950 . S
C1089 C1088 1.327 . S
C1089 C1093 1.429 . S
C1090 C1073 1.574 . S
C1090 H1084 0.949 . S
C1090 C1094 1.368 . S
C1091 C1072 1.429 . S
C1091 C1085 1.429 . S
C1091 C1092 1.523 . S
C1092 C1073 1.368 . S
C1092 C1086 1.368 . S
C1092 C1091 1.523 . S
C1093 C1077 1.429 . S
C1093 C1089 1.429 . S
C1093 C1094 1.523 . S
C1094 C1078 1.368 . S
C1094 C1090 1.368 . S
C1094 C1093 1.523 . S
H1095 C1070 0.950 . S
H1096 C1072 0.950 . S
H1097 C1073 0.949 . S
H1098 C1075 0.950 . S
H1099 C1077 0.950 . S
C1100 C1101 1.349 . S
C1100 C1102 1.327 1_655 S
C1100 H1125 0.950 . S
C1101 C1100 1.349 . S
C1101 C1117 1.349 . S
C1102 C1100 1.327 1_455 S
C1102 C1121 1.429 . S
C1102 H1126 0.950 . S
C1103 C1120 1.574 . S
C1103 C1122 1.368 . S
C1103 H1127 0.949 . S
H1104 C1108 0.949 . S
C1105 C1106 1.349 . S
C1105 C1107 1.327 . S
C1105 H1128 0.950 . S
C1106 C1105 1.349 . S
C1106 C1118 1.349 . S
C1107 C1105 1.327 . S
C1107 C1123 1.429 . S
C1107 H1129 0.950 . S
C1108 H1104 0.949 . S
C1108 C1116 1.574 . S
C1108 C1124 1.368 . S
H1109 C1117 0.950 . S
H1110 C1115 0.951 . S
H1111 C1116 0.949 . S
H1112 C1118 0.950 . S
H1113 C1119 0.950 . S
H1114 C1120 0.949 . S
C1115 H1110 0.951 . S
C1115 C1117 1.327 . S
C1115 C1121 1.429 1_655 S
C1116 C1108 1.574 . S
C1116 H1111 0.949 . S
C1116 C1122 1.368 . S
C1117 C1101 1.349 . S
C1117 H1109 0.950 . S
C1117 C1115 1.327 . S
C1118 C1106 1.349 . S
C1118 H1112 0.950 . S
C1118 C1119 1.327 . S
C1119 H1113 0.950 . S
C1119 C1118 1.327 . S
C1119 C1123 1.429 . S
C1120 C1103 1.574 . S
C1120 H1114 0.949 . S
C1120 C1124 1.368 . S
C1121 C1102 1.429 . S
C1121 C1115 1.429 1_455 S
C1121 C1122 1.523 . S
C1122 C1103 1.368 . S
C1122 C1116 1.368 . S
C1122 C1121 1.523 . S
C1123 C1107 1.429 . S
C1123 C1119 1.429 . S
C1123 C1124 1.523 . S
C1124 C1108 1.368 . S
C1124 C1120 1.368 . S
C1124 C1123 1.523 . S
H1125 C1100 0.950 . S
H1126 C1102 0.950 . S
H1127 C1103 0.949 . S
H1128 C1105 0.950 . S
H1129 C1107 0.950 . S
C1130 C1131 1.349 . S
C1130 C1132 1.327 . S
C1130 H1155 0.950 . S
C1131 C1130 1.349 . S
C1131 C1147 1.349 . S
C1132 C1130 1.327 . S
C1132 C1151 1.429 . S
C1132 H1156 0.950 . S
C1133 C1150 1.574 . S
C1133 C1152 1.368 . S
C1133 H1157 0.949 . S
H1134 C1138 0.949 . S
C1135 C1136 1.349 . S
C1135 C1137 1.327 . S
C1135 H1158 0.950 . S
C1136 C1135 1.349 . S
C1136 C1148 1.349 . S
C1137 C1135 1.327 . S
C1137 C1153 1.429 . S
C1137 H1159 0.950 . S
C1138 H1134 0.949 . S
C1138 C1146 1.574 . S
C1138 C1154 1.368 . S
H1139 C1147 0.950 . S
H1140 C1145 0.950 . S
H1141 C1146 0.949 . S
H1142 C1148 0.950 . S
H1143 C1149 0.950 . S
H1144 C1150 0.949 . S
C1145 H1140 0.950 . S
C1145 C1147 1.327 . S
C1145 C1151 1.429 . S
C1146 C1138 1.574 . S
C1146 H1141 0.949 . S
C1146 C1152 1.368 . S
C1147 C1131 1.349 . S
C1147 H1139 0.950 . S
C1147 C1145 1.327 . S
C1148 C1136 1.349 . S
C1148 H1142 0.950 . S
C1148 C1149 1.327 . S
C1149 H1143 0.950 . S
C1149 C1148 1.327 . S
C1149 C1153 1.429 . S
C1150 C1133 1.574 . S
C1150 H1144 0.949 . S
C1150 C1154 1.368 . S
C1151 C1132 1.429 . S
C1151 C1145 1.429 . S
C1151 C1152 1.523 . S
C1152 C1133 1.368 . S
C1152 C1146 1.368 . S
C1152 C1151 1.523 . S
C1153 C1137 1.429 . S
C1153 C1149 1.429 . S
C1153 C1154 1.523 . S
C1154 C1138 1.368 . S
C1154 C1150 1.368 . S
C1154 C1153 1.523 . S
H1155 C1130 0.950 . S
H1156 C1132 0.950 . S
H1157 C1133 0.949 . S
H1158 C1135 0.950 . S
H1159 C1137 0.950 . S
C1160 C1161 1.349 1_556 S
C1160 C1162 1.327 1_556 S
C1160 H1185 0.950 . S
C1161 C1160 1.349 1_554 S
C1161 C1177 1.349 . S
C1162 C1160 1.327 1_554 S
C1162 C1181 1.429 . S
C1162 H1186 0.950 . S
C1163 C1180 1.574 . S
C1163 C1182 1.368 . S
C1163 H1187 0.949 . S
H1164 C1168 0.949 . S
C1165 C1166 1.349 . S
C1165 C1167 1.327 . S
C1165 H1188 0.950 . S
C1166 C1165 1.349 . S
C1166 C1178 1.349 . S
C1167 C1165 1.327 . S
C1167 C1183 1.429 . S
C1167 H1189 0.950 . S
C1168 H1164 0.949 . S
C1168 C1176 1.574 . S
C1168 C1184 1.368 . S
H1169 C1177 0.950 . S
H1170 C1175 0.950 . S
H1171 C1176 0.949 . S
H1172 C1178 0.950 . S
H1173 C1179 0.950 . S
H1174 C1180 0.949 . S
C1175 H1170 0.950 . S
C1175 C1177 1.327 . S
C1175 C1181 1.429 . S
C1176 C1168 1.574 . S
C1176 H1171 0.949 . S
C1176 C1182 1.368 . S
C1177 C1161 1.349 . S
C1177 H1169 0.950 . S
C1177 C1175 1.327 . S
C1178 C1166 1.349 . S
C1178 H1172 0.950 . S
C1178 C1179 1.327 . S
C1179 H1173 0.950 . S
C1179 C1178 1.327 . S
C1179 C1183 1.429 . S
C1180 C1163 1.574 . S
C1180 H1174 0.949 . S
C1180 C1184 1.368 . S
C1181 C1162 1.429 . S
C1181 C1175 1.429 . S
C1181 C1182 1.523 . S
C1182 C1163 1.368 . S
C1182 C1176 1.368 . S
C1182 C1181 1.523 . S
C1183 C1167 1.429 . S
C1183 C1179 1.429 . S
C1183 C1184 1.523 . S
C1184 C1168 1.368 . S
C1184 C1180 1.368 . S
C1184 C1183 1.523 . S
H1185 C1160 0.950 . S
H1186 C1162 0.950 . S
H1187 C1163 0.949 . S
H1188 C1165 0.950 . S
H1189 C1167 0.950 . S
C1190 C1191 1.349 . S
C1190 C1192 1.327 . S
C1190 H1215 0.950 . S
C1191 C1190 1.349 . S
C1191 C1207 1.349 . S
C1192 C1190 1.327 . S
C1192 C1211 1.429 . S
C1192 H1216 0.950 . S
C1193 C1210 1.574 . S
C1193 C1212 1.368 . S
C1193 H1217 0.949 . S
H1194 C1198 0.949 . S
C1195 C1196 1.349 . S
C1195 C1197 1.327 . S
C1195 H1218 0.950 . S
C1196 C1195 1.349 . S
C1196 C1208 1.352 . S
C1197 C1195 1.327 . S
C1197 C1213 1.429 . S
C1197 H1219 0.950 . S
C1198 H1194 0.949 . S
C1198 C1206 1.574 . S
C1198 C1214 1.368 . S
H1199 C1207 0.950 . S
H1200 C1205 0.950 . S
H1201 C1206 0.949 . S
H1202 C1208 0.940 1_554 S
H1203 C1209 0.950 . S
H1204 C1210 0.949 . S
C1205 H1200 0.950 . S
C1205 C1207 1.327 . S
C1205 C1211 1.429 . S
C1206 C1198 1.574 . S
C1206 H1201 0.949 . S
C1206 C1212 1.368 . S
C1207 C1191 1.349 . S
C1207 H1199 0.950 . S
C1207 C1205 1.327 . S
C1208 C1196 1.352 . S
C1208 H1202 0.940 1_556 S
C1208 C1209 1.334 . S
C1209 H1203 0.950 . S
C1209 C1208 1.334 . S
C1209 C1213 1.429 . S
C1210 C1193 1.574 . S
C1210 H1204 0.949 . S
C1210 C1214 1.368 . S
C1211 C1192 1.429 . S
C1211 C1205 1.429 . S
C1211 C1212 1.523 . S
C1212 C1193 1.368 . S
C1212 C1206 1.368 . S
C1212 C1211 1.523 . S
C1213 C1197 1.429 . S
C1213 C1209 1.429 . S
C1213 C1214 1.523 . S
C1214 C1198 1.368 . S
C1214 C1210 1.368 . S
C1214 C1213 1.523 . S
H1215 C1190 0.950 . S
H1216 C1192 0.950 . S
H1217 C1193 0.949 . S
H1218 C1195 0.950 . S
H1219 C1197 0.950 . S
C1220 C1221 1.349 . S
C1220 C1222 1.327 1_455 S
C1220 H1245 0.948 1_455 S
C1221 C1220 1.349 . S
C1221 C1237 1.349 . S
C1222 C1220 1.327 1_655 S
C1222 C1241 1.429 . S
C1222 H1246 0.950 . S
C1223 C1240 1.574 . S
C1223 C1242 1.368 . S
C1223 H1247 0.949 . S
H1224 C1228 0.949 . S
C1225 C1226 1.349 . S
C1225 C1227 1.327 . S
C1225 H1248 0.950 . S
C1226 C1225 1.349 . S
C1226 C1238 1.349 . S
C1227 C1225 1.327 . S
C1227 C1243 1.429 . S
C1227 H1249 0.950 . S
C1228 H1224 0.949 . S
C1228 C1236 1.574 . S
C1228 C1244 1.368 . S
H1229 C1237 0.950 . S
H1230 C1235 0.950 . S
H1231 C1236 0.949 . S
H1232 C1238 0.950 . S
H1233 C1239 0.950 . S
H1234 C1240 0.949 . S
C1235 H1230 0.950 . S
C1235 C1237 1.327 . S
C1235 C1241 1.429 1_455 S
C1236 C1228 1.574 . S
C1236 H1231 0.949 . S
C1236 C1242 1.368 . S
C1237 C1221 1.349 . S
C1237 H1229 0.950 . S
C1237 C1235 1.327 . S
C1238 C1226 1.349 . S
C1238 H1232 0.950 . S
C1238 C1239 1.327 . S
C1239 H1233 0.950 . S
C1239 C1238 1.327 . S
C1239 C1243 1.429 . S
C1240 C1223 1.574 . S
C1240 H1234 0.949 . S
C1240 C1244 1.368 . S
C1241 C1222 1.429 . S
C1241 C1235 1.429 1_655 S
C1241 C1242 1.523 . S
C1242 C1223 1.368 . S
C1242 C1236 1.368 . S
C1242 C1241 1.523 . S
C1243 C1227 1.429 . S
C1243 C1239 1.429 . S
C1243 C1244 1.523 . S
C1244 C1228 1.368 . S
C1244 C1240 1.368 . S
C1244 C1243 1.523 . S
H1245 C1220 0.948 1_655 S
H1246 C1222 0.950 . S
H1247 C1223 0.949 . S
H1248 C1225 0.950 . S
H1249 C1227 0.950 . S
C1250 C1251 1.349 . S
C1250 C1252 1.327 . S
C1250 H1275 0.950 . S
C1251 C1250 1.349 . S
C1251 C1267 1.349 . S
C1252 C1250 1.327 . S
C1252 C1271 1.429 . S
C1252 H1276 0.950 . S
C1253 C1270 1.574 . S
C1253 C1272 1.368 . S
C1253 H1277 0.949 . S
H1254 C1258 0.949 . S
C1255 C1256 1.349 . S
C1255 C1257 1.327 . S
C1255 H1278 0.950 . S
C1256 C1255 1.349 . S
C1256 C1268 1.349 . S
C1257 C1255 1.327 . S
C1257 C1273 1.429 . S
C1257 H1279 0.950 . S
C1258 H1254 0.949 . S
C1258 C1266 1.574 . S
C1258 C1274 1.368 . S
H1259 C1267 0.950 . S
H1260 C1265 0.950 . S
H1261 C1266 0.949 . S
H1262 C1268 0.950 . S
H1263 C1269 0.950 . S
H1264 C1270 0.949 . S
C1265 H1260 0.950 . S
C1265 C1267 1.327 . S
C1265 C1271 1.429 . S
C1266 C1258 1.574 . S
C1266 H1261 0.949 . S
C1266 C1272 1.368 . S
C1267 C1251 1.349 . S
C1267 H1259 0.950 . S
C1267 C1265 1.327 . S
C1268 C1256 1.349 . S
C1268 H1262 0.950 . S
C1268 C1269 1.327 . S
C1269 H1263 0.950 . S
C1269 C1268 1.327 . S
C1269 C1273 1.429 . S
C1270 C1253 1.574 . S
C1270 H1264 0.949 . S
C1270 C1274 1.368 . S
C1271 C1252 1.429 . S
C1271 C1265 1.429 . S
C1271 C1272 1.523 . S
C1272 C1253 1.368 . S
C1272 C1266 1.368 . S
C1272 C1271 1.523 . S
C1273 C1257 1.429 . S
C1273 C1269 1.429 . S
C1273 C1274 1.523 . S
C1274 C1258 1.368 . S
C1274 C1270 1.368 . S
C1274 C1273 1.523 . S
H1275 C1250 0.950 . S
H1276 C1252 0.950 . S
H1277 C1253 0.949 . S
H1278 C1255 0.950 . S
H1279 C1257 0.950 . S
C1280 C1281 1.349 . S
C1280 C1282 1.327 . S
C1280 H1305 0.950 . S
C1281 C1280 1.349 . S
C1281 C1297 1.349 . S
C1282 C1280 1.327 . S
C1282 C1301 1.429 . S
C1282 H1306 0.950 . S
C1283 C1300 1.574 . S
C1283 C1302 1.368 . S
C1283 H1307 0.949 . S
H1284 C1288 0.949 . S
C1285 C1286 1.349 . S
C1285 C1287 1.327 . S
C1285 H1308 0.950 . S
C1286 C1285 1.349 . S
C1286 C1298 1.362 . S
C1287 C1285 1.327 . S
C1287 C1303 1.429 1_455 S
C1287 H1309 0.950 . S
C1288 H1284 0.949 . S
C1288 C1296 1.574 . S
C1288 C1304 1.368 . S
H1289 C1297 0.950 . S
H1290 C1295 0.950 . S
H1291 C1296 0.949 . S
H1292 C1298 0.947 1_655 S
H1293 C1299 0.950 . S
H1294 C1300 0.949 . S
C1295 H1290 0.950 . S
C1295 C1297 1.327 . S
C1295 C1301 1.429 . S
C1296 C1288 1.574 . S
C1296 H1291 0.949 . S
C1296 C1302 1.368 . S
C1297 C1281 1.349 . S
C1297 H1289 0.950 . S
C1297 C1295 1.327 . S
C1298 C1286 1.362 . S
C1298 H1292 0.947 1_455 S
C1298 C1299 1.316 1_455 S
C1299 H1293 0.950 . S
C1299 C1298 1.316 1_655 S
C1299 C1303 1.429 . S
C1300 C1283 1.574 . S
C1300 H1294 0.949 . S
C1300 C1304 1.368 . S
C1301 C1282 1.429 . S
C1301 C1295 1.429 . S
C1301 C1302 1.523 . S
C1302 C1283 1.368 . S
C1302 C1296 1.368 . S
C1302 C1301 1.523 . S
C1303 C1287 1.429 1_655 S
C1303 C1299 1.429 . S
C1303 C1304 1.523 . S
C1304 C1288 1.368 . S
C1304 C1300 1.368 . S
C1304 C1303 1.523 . S
H1305 C1280 0.950 . S
H1306 C1282 0.950 . S
H1307 C1283 0.949 . S
H1308 C1285 0.950 . S
H1309 C1287 0.950 . S
C1310 C1311 1.349 . S
C1310 C1312 1.327 . S
C1310 H1335 0.950 . S
C1311 C1310 1.349 . S
C1311 C1327 1.349 . S
C1312 C1310 1.327 . S
C1312 C1331 1.429 . S
C1312 H1336 0.950 . S
C1313 C1330 1.574 . S
C1313 C1332 1.368 . S
C1313 H1337 0.949 . S
H1314 C1318 0.949 . S
C1315 C1316 1.349 . S
C1315 C1317 1.327 . S
C1315 H1338 0.950 . S
C1316 C1315 1.349 . S
C1316 C1328 1.349 . S
C1317 C1315 1.327 . S
C1317 C1333 1.429 . S
C1317 H1339 0.950 . S
C1318 H1314 0.949 . S
C1318 C1326 1.574 . S
C1318 C1334 1.368 . S
H1319 C1327 0.950 . S
H1320 C1325 0.950 . S
H1321 C1326 0.949 . S
H1322 C1328 0.950 . S
H1323 C1329 0.950 . S
H1324 C1330 0.949 . S
C1325 H1320 0.950 . S
C1325 C1327 1.327 . S
C1325 C1331 1.429 . S
C1326 C1318 1.574 . S
C1326 H1321 0.949 . S
C1326 C1332 1.368 . S
C1327 C1311 1.349 . S
C1327 H1319 0.950 . S
C1327 C1325 1.327 . S
C1328 C1316 1.349 . S
C1328 H1322 0.950 . S
C1328 C1329 1.327 . S
C1329 H1323 0.950 . S
C1329 C1328 1.327 . S
C1329 C1333 1.429 . S
C1330 C1313 1.574 . S
C1330 H1324 0.949 . S
C1330 C1334 1.368 . S
C1331 C1312 1.429 . S
C1331 C1325 1.429 . S
C1331 C1332 1.523 . S
C1332 C1313 1.368 . S
C1332 C1326 1.368 . S
C1332 C1331 1.523 . S
C1333 C1317 1.429 . S
C1333 C1329 1.429 . S
C1333 C1334 1.523 . S
C1334 C1318 1.368 . S
C1334 C1330 1.368 . S
C1334 C1333 1.523 . S
H1335 C1310 0.950 . S
H1336 C1312 0.950 . S
H1337 C1313 0.949 . S
H1338 C1315 0.950 . S
H1339 C1317 0.950 . S
C1340 C1341 1.349 . S
C1340 C1342 1.327 . S
C1340 H1365 0.950 . S
C1341 C1340 1.349 . S
C1341 C1357 1.349 . S
C1342 C1340 1.327 . S
C1342 C1361 1.429 . S
C1342 H1366 0.950 . S
C1343 C1360 1.574 . S
C1343 C1362 1.368 . S
C1343 H1367 0.949 . S
H1344 C1348 0.949 . S
C1345 C1346 1.349 . S
C1345 C1347 1.327 . S
C1345 H1368 0.950 . S
C1346 C1345 1.349 . S
C1346 C1358 1.349 . S
C1347 C1345 1.327 . S
C1347 C1363 1.429 . S
C1347 H1369 0.950 . S
C1348 H1344 0.949 . S
C1348 C1356 1.574 . S
C1348 C1364 1.368 . S
H1349 C1357 0.950 . S
H1350 C1355 0.950 . S
H1351 C1356 0.949 . S
H1352 C1358 0.950 1_554 S
H1353 C1359 0.950 . S
H1354 C1360 0.949 . S
C1355 H1350 0.950 . S
C1355 C1357 1.327 . S
C1355 C1361 1.429 . S
C1356 C1348 1.574 . S
C1356 H1351 0.949 . S
C1356 C1362 1.368 . S
C1357 C1341 1.349 . S
C1357 H1349 0.950 . S
C1357 C1355 1.327 . S
C1358 C1346 1.349 . S
C1358 H1352 0.950 1_556 S
C1358 C1359 1.327 . S
C1359 H1353 0.950 . S
C1359 C1358 1.327 . S
C1359 C1363 1.429 . S
C1360 C1343 1.574 . S
C1360 H1354 0.949 . S
C1360 C1364 1.368 . S
C1361 C1342 1.429 . S
C1361 C1355 1.429 . S
C1361 C1362 1.523 . S
C1362 C1343 1.368 . S
C1362 C1356 1.368 . S
C1362 C1361 1.523 . S
C1363 C1347 1.429 . S
C1363 C1359 1.429 . S
C1363 C1364 1.523 . S
C1364 C1348 1.368 . S
C1364 C1360 1.368 . S
C1364 C1363 1.523 . S
H1365 C1340 0.950 . S
H1366 C1342 0.950 . S
H1367 C1343 0.949 . S
H1368 C1345 0.950 . S
H1369 C1347 0.950 . S
C1370 C1371 1.349 . S
C1370 C1372 1.327 . S
C1370 H1395 0.950 1_554 S
C1371 C1370 1.349 . S
C1371 C1387 1.349 . S
C1372 C1370 1.327 . S
C1372 C1391 1.429 . S
C1372 H1396 0.950 . S
C1373 C1390 1.574 . S
C1373 C1392 1.368 . S
C1373 H1397 0.949 . S
H1374 C1378 0.949 . S
C1375 C1376 1.349 . S
C1375 C1377 1.327 . S
C1375 H1398 0.950 . S
C1376 C1375 1.349 . S
C1376 C1388 1.349 . S
C1377 C1375 1.327 . S
C1377 C1393 1.429 . S
C1377 H1399 0.950 . S
C1378 H1374 0.949 . S
C1378 C1386 1.574 . S
C1378 C1394 1.368 . S
H1379 C1387 0.950 . S
H1380 C1385 0.950 . S
H1381 C1386 0.949 . S
H1382 C1388 0.950 . S
H1383 C1389 0.950 . S
H1384 C1390 0.949 . S
C1385 H1380 0.950 . S
C1385 C1387 1.327 . S
C1385 C1391 1.429 . S
C1386 C1378 1.574 . S
C1386 H1381 0.949 . S
C1386 C1392 1.368 . S
C1387 C1371 1.349 . S
C1387 H1379 0.950 . S
C1387 C1385 1.327 . S
C1388 C1376 1.349 . S
C1388 H1382 0.950 . S
C1388 C1389 1.327 . S
C1389 H1383 0.950 . S
C1389 C1388 1.327 . S
C1389 C1393 1.429 . S
C1390 C1373 1.574 . S
C1390 H1384 0.949 . S
C1390 C1394 1.368 . S
C1391 C1372 1.429 . S
C1391 C1385 1.429 . S
C1391 C1392 1.523 . S
C1392 C1373 1.368 . S
C1392 C1386 1.368 . S
C1392 C1391 1.523 . S
C1393 C1377 1.429 . S
C1393 C1389 1.429 . S
C1393 C1394 1.523 . S
C1394 C1378 1.368 . S
C1394 C1390 1.368 . S
C1394 C1393 1.523 . S
H1395 C1370 0.950 1_556 S
H1396 C1372 0.950 . S
H1397 C1373 0.949 . S
H1398 C1375 0.950 . S
H1399 C1377 0.950 . S
C1400 C1401 1.349 . S
C1400 C1402 1.327 . S
C1400 H1425 0.950 . S
C1401 C1400 1.349 . S
C1401 C1417 1.349 . S
C1402 C1400 1.327 . S
C1402 C1421 1.429 . S
C1402 H1426 0.950 . S
C1403 C1420 1.574 . S
C1403 C1422 1.368 . S
C1403 H1427 0.949 . S
H1404 C1408 0.949 . S
C1405 C1406 1.349 . S
C1405 C1407 1.327 1_655 S
C1405 H1428 0.950 . S
C1406 C1405 1.349 . S
C1406 C1418 1.349 . S
C1407 C1405 1.327 1_455 S
C1407 C1423 1.429 . S
C1407 H1429 0.950 . S
C1408 H1404 0.949 . S
C1408 C1416 1.574 . S
C1408 C1424 1.368 . S
H1409 C1417 0.950 . S
H1410 C1415 0.950 . S
H1411 C1416 0.949 . S
H1412 C1418 0.950 . S
H1413 C1419 0.950 . S
H1414 C1420 0.949 . S
C1415 H1410 0.950 . S
C1415 C1417 1.327 . S
C1415 C1421 1.429 . S
C1416 C1408 1.574 . S
C1416 H1411 0.949 . S
C1416 C1422 1.368 . S
C1417 C1401 1.349 . S
C1417 H1409 0.950 . S
C1417 C1415 1.327 . S
C1418 C1406 1.349 . S
C1418 H1412 0.950 . S
C1418 C1419 1.327 . S
C1419 H1413 0.950 . S
C1419 C1418 1.327 . S
C1419 C1423 1.429 1_655 S
C1420 C1403 1.574 . S
C1420 H1414 0.949 . S
C1420 C1424 1.368 . S
C1421 C1402 1.429 . S
C1421 C1415 1.429 . S
C1421 C1422 1.523 . S
C1422 C1403 1.368 . S
C1422 C1416 1.368 . S
C1422 C1421 1.523 . S
C1423 C1407 1.429 . S
C1423 C1419 1.429 1_455 S
C1423 C1424 1.523 . S
C1424 C1408 1.368 . S
C1424 C1420 1.368 . S
C1424 C1423 1.523 . S
H1425 C1400 0.950 . S
H1426 C1402 0.950 . S
H1427 C1403 0.949 . S
H1428 C1405 0.950 . S
H1429 C1407 0.950 . S
C1430 C1431 1.349 . S
C1430 C1432 1.327 . S
C1430 H1455 0.950 . S
C1431 C1430 1.349 . S
C1431 C1447 1.349 . S
C1432 C1430 1.327 . S
C1432 C1451 1.429 . S
C1432 H1456 0.950 . S
C1433 C1450 1.574 . S
C1433 C1452 1.368 . S
C1433 H1457 0.949 . S
H1434 C1438 0.949 . S
C1435 C1436 1.349 . S
C1435 C1437 1.327 . S
C1435 H1458 0.950 . S
C1436 C1435 1.349 . S
C1436 C1448 1.349 . S
C1437 C1435 1.327 . S
C1437 C1453 1.429 . S
C1437 H1459 0.950 . S
C1438 H1434 0.949 . S
C1438 C1446 1.574 . S
C1438 C1454 1.368 . S
H1439 C1447 0.950 . S
H1440 C1445 0.950 . S
H1441 C1446 0.949 . S
H1442 C1448 0.950 . S
H1443 C1449 0.950 . S
H1444 C1450 0.949 . S
C1445 H1440 0.950 . S
C1445 C1447 1.327 . S
C1445 C1451 1.429 . S
C1446 C1438 1.574 . S
C1446 H1441 0.949 . S
C1446 C1452 1.368 . S
C1447 C1431 1.349 . S
C1447 H1439 0.950 . S
C1447 C1445 1.327 . S
C1448 C1436 1.349 . S
C1448 H1442 0.950 . S
C1448 C1449 1.327 . S
C1449 H1443 0.950 . S
C1449 C1448 1.327 . S
C1449 C1453 1.429 . S
C1450 C1433 1.574 . S
C1450 H1444 0.949 . S
C1450 C1454 1.368 . S
C1451 C1432 1.429 . S
C1451 C1445 1.429 . S
C1451 C1452 1.523 . S
C1452 C1433 1.368 . S
C1452 C1446 1.368 . S
C1452 C1451 1.523 . S
C1453 C1437 1.429 . S
C1453 C1449 1.429 . S
C1453 C1454 1.523 . S
C1454 C1438 1.368 . S
C1454 C1450 1.368 . S
C1454 C1453 1.523 . S
H1455 C1430 0.950 . S
H1456 C1432 0.950 . S
H1457 C1433 0.949 . S
H1458 C1435 0.950 . S
H1459 C1437 0.950 . S
C1460 C1461 1.349 1_556 S
C1460 C1462 1.327 1_556 S
C1460 H1485 0.950 . S
C1461 C1460 1.349 1_554 S
C1461 C1477 1.349 . S
C1462 C1460 1.327 1_554 S
C1462 C1481 1.429 . S
C1462 H1486 0.950 . S
C1463 C1480 1.574 . S
C1463 C1482 1.368 . S
C1463 H1487 0.949 . S
H1464 C1468 0.949 . S
C1465 C1466 1.349 . S
C1465 C1467 1.327 . S
C1465 H1488 0.950 . S
C1466 C1465 1.349 . S
C1466 C1478 1.349 . S
C1467 C1465 1.327 . S
C1467 C1483 1.429 . S
C1467 H1489 0.950 . S
C1468 H1464 0.949 . S
C1468 C1476 1.574 . S
C1468 C1484 1.368 . S
H1469 C1477 0.950 . S
H1470 C1475 0.950 . S
H1471 C1476 0.949 . S
H1472 C1478 0.950 . S
H1473 C1479 0.950 . S
H1474 C1480 0.949 . S
C1475 H1470 0.950 . S
C1475 C1477 1.327 . S
C1475 C1481 1.429 . S
C1476 C1468 1.574 . S
C1476 H1471 0.949 . S
C1476 C1482 1.368 . S
C1477 C1461 1.349 . S
C1477 H1469 0.950 . S
C1477 C1475 1.327 . S
C1478 C1466 1.349 . S
C1478 H1472 0.950 . S
C1478 C1479 1.327 . S
C1479 H1473 0.950 . S
C1479 C1478 1.327 . S
C1479 C1483 1.429 . S
C1480 C1463 1.574 . S
C1480 H1474 0.949 . S
C1480 C1484 1.368 . S
C1481 C1462 1.429 . S
C1481 C1475 1.429 . S
C1481 C1482 1.523 . S
C1482 C1463 1.368 . S
C1482 C1476 1.368 . S
C1482 C1481 1.523 . S
C1483 C1467 1.429 . S
C1483 C1479 1.429 . S
C1483 C1484 1.523 . S
C1484 C1468 1.368 . S
C1484 C1480 1.368 . S
C1484 C1483 1.523 . S
H1485 C1460 0.950 . S
H1486 C1462 0.950 . S
H1487 C1463 0.949 . S
H1488 C1465 0.950 . S
H1489 C1467 0.950 . S
C1490 C1491 1.349 . S
C1490 C1492 1.327 . S
C1490 H1515 0.950 . S
C1491 C1490 1.349 . S
C1491 C1507 1.349 . S
C1492 C1490 1.327 . S
C1492 C1511 1.429 . S
C1492 H1516 0.950 . S
C1493 C1510 1.574 . S
C1493 C1512 1.368 . S
C1493 H1517 0.949 . S
H1494 C1498 0.949 . S
C1495 C1496 1.349 . S
C1495 C1497 1.327 . S
C1495 H1518 0.950 . S
C1496 C1495 1.349 . S
C1496 C1508 1.349 . S
C1497 C1495 1.327 . S
C1497 C1513 1.429 . S
C1497 H1519 0.950 . S
C1498 H1494 0.949 . S
C1498 C1506 1.574 . S
C1498 C1514 1.368 . S
H1499 C1507 0.950 1_554 S
H1500 C1505 0.950 . S
H1501 C1506 0.949 . S
H1502 C1508 0.950 . S
H1503 C1509 0.950 . S
H1504 C1510 0.949 . S
C1505 H1500 0.950 . S
C1505 C1507 1.327 . S
C1505 C1511 1.429 . S
C1506 C1498 1.574 . S
C1506 H1501 0.949 . S
C1506 C1512 1.368 . S
C1507 C1491 1.349 . S
C1507 H1499 0.950 1_556 S
C1507 C1505 1.327 . S
C1508 C1496 1.349 . S
C1508 H1502 0.950 . S
C1508 C1509 1.327 . S
C1509 H1503 0.950 . S
C1509 C1508 1.327 . S
C1509 C1513 1.429 . S
C1510 C1493 1.574 . S
C1510 H1504 0.949 . S
C1510 C1514 1.368 . S
C1511 C1492 1.429 . S
C1511 C1505 1.429 . S
C1511 C1512 1.523 . S
C1512 C1493 1.368 . S
C1512 C1506 1.368 . S
C1512 C1511 1.523 . S
C1513 C1497 1.429 . S
C1513 C1509 1.429 . S
C1513 C1514 1.523 . S
C1514 C1498 1.368 . S
C1514 C1510 1.368 . S
C1514 C1513 1.523 . S
H1515 C1490 0.950 . S
H1516 C1492 0.950 . S
H1517 C1493 0.949 . S
H1518 C1495 0.950 . S
H1519 C1497 0.950 . S
C1520 C1521 1.349 . S
C1520 C1522 1.327 . S
C1520 H1545 0.950 . S
C1521 C1520 1.349 . S
C1521 C1537 1.349 . S
C1522 C1520 1.327 . S
C1522 C1541 1.429 . S
C1522 H1546 0.950 . S
C1523 C1540 1.574 . S
C1523 C1542 1.368 . S
C1523 H1547 0.949 . S
H1524 C1528 0.949 . S
C1525 C1526 1.349 . S
C1525 C1527 1.327 . S
C1525 H1548 0.950 . S
C1526 C1525 1.349 . S
C1526 C1538 1.349 . S
C1527 C1525 1.327 . S
C1527 C1543 1.429 . S
C1527 H1549 0.950 . S
C1528 H1524 0.949 . S
C1528 C1536 1.574 . S
C1528 C1544 1.368 . S
H1529 C1537 0.950 . S
H1530 C1535 0.950 . S
H1531 C1536 0.949 . S
H1532 C1538 0.950 . S
H1533 C1539 0.950 . S
H1534 C1540 0.949 . S
C1535 H1530 0.950 . S
C1535 C1537 1.327 . S
C1535 C1541 1.429 . S
C1536 C1528 1.574 . S
C1536 H1531 0.949 . S
C1536 C1542 1.368 . S
C1537 C1521 1.349 . S
C1537 H1529 0.950 . S
C1537 C1535 1.327 . S
C1538 C1526 1.349 . S
C1538 H1532 0.950 . S
C1538 C1539 1.327 . S
C1539 H1533 0.950 . S
C1539 C1538 1.327 . S
C1539 C1543 1.429 . S
C1540 C1523 1.574 . S
C1540 H1534 0.949 . S
C1540 C1544 1.368 . S
C1541 C1522 1.429 . S
C1541 C1535 1.429 . S
C1541 C1542 1.523 . S
C1542 C1523 1.368 . S
C1542 C1536 1.368 . S
C1542 C1541 1.523 . S
C1543 C1527 1.429 . S
C1543 C1539 1.429 . S
C1543 C1544 1.523 . S
C1544 C1528 1.368 . S
C1544 C1540 1.368 . S
C1544 C1543 1.523 . S
H1545 C1520 0.950 . S
H1546 C1522 0.950 . S
H1547 C1523 0.949 . S
H1548 C1525 0.950 . S
H1549 C1527 0.950 . S
C1550 C1551 1.349 . S
C1550 C1552 1.327 . S
C1550 H1575 0.950 . S
C1551 C1550 1.349 . S
C1551 C1567 1.349 . S
C1552 C1550 1.327 . S
C1552 C1571 1.429 . S
C1552 H1576 0.950 . S
C1553 C1570 1.574 . S
C1553 C1572 1.368 . S
C1553 H1577 0.949 . S
H1554 C1558 0.949 . S
C1555 C1556 1.349 . S
C1555 C1557 1.327 . S
C1555 H1578 0.950 . S
C1556 C1555 1.349 . S
C1556 C1568 1.349 . S
C1557 C1555 1.327 . S
C1557 C1573 1.429 . S
C1557 H1579 0.950 . S
C1558 H1554 0.949 . S
C1558 C1566 1.574 . S
C1558 C1574 1.368 . S
H1559 C1567 0.950 . S
H1560 C1565 0.950 . S
H1561 C1566 0.949 . S
H1562 C1568 0.950 . S
H1563 C1569 0.950 . S
H1564 C1570 0.949 . S
C1565 H1560 0.950 . S
C1565 C1567 1.327 . S
C1565 C1571 1.429 . S
C1566 C1558 1.574 . S
C1566 H1561 0.949 . S
C1566 C1572 1.368 . S
C1567 C1551 1.349 . S
C1567 H1559 0.950 . S
C1567 C1565 1.327 . S
C1568 C1556 1.349 . S
C1568 H1562 0.950 . S
C1568 C1569 1.327 . S
C1569 H1563 0.950 . S
C1569 C1568 1.327 . S
C1569 C1573 1.429 . S
C1570 C1553 1.574 . S
C1570 H1564 0.949 . S
C1570 C1574 1.368 . S
C1571 C1552 1.429 . S
C1571 C1565 1.429 . S
C1571 C1572 1.523 . S
C1572 C1553 1.368 . S
C1572 C1566 1.368 . S
C1572 C1571 1.523 . S
C1573 C1557 1.429 . S
C1573 C1569 1.429 . S
C1573 C1574 1.523 . S
C1574 C1558 1.368 . S
C1574 C1570 1.368 . S
C1574 C1573 1.523 . S
H1575 C1550 0.950 . S
H1576 C1552 0.950 . S
H1577 C1553 0.949 . S
H1578 C1555 0.950 . S
H1579 C1557 0.950 . S
C1580 C1581 1.349 . S
C1580 C1582 1.327 . S
C1580 H1605 0.950 . S
C1581 C1580 1.349 . S
C1581 C1597 1.349 . S
C1582 C1580 1.327 . S
C1582 C1601 1.429 . S
C1582 H1606 0.950 . S
C1583 C1600 1.574 . S
C1583 C1602 1.368 . S
C1583 H1607 0.949 . S
H1584 C1588 0.949 . S
C1585 C1586 1.349 . S
C1585 C1587 1.327 . S
C1585 H1608 0.950 . S
C1586 C1585 1.349 . S
C1586 C1598 1.349 . S
C1587 C1585 1.327 . S
C1587 C1603 1.429 . S
C1587 H1609 0.950 . S
C1588 H1584 0.949 . S
C1588 C1596 1.574 . S
C1588 C1604 1.368 . S
H1589 C1597 0.950 . S
H1590 C1595 0.950 . S
H1591 C1596 0.949 . S
H1592 C1598 0.950 . S
H1593 C1599 0.950 . S
H1594 C1600 0.949 . S
C1595 H1590 0.950 . S
C1595 C1597 1.327 . S
C1595 C1601 1.429 . S
C1596 C1588 1.574 . S
C1596 H1591 0.949 . S
C1596 C1602 1.368 . S
C1597 C1581 1.349 . S
C1597 H1589 0.950 . S
C1597 C1595 1.327 . S
C1598 C1586 1.349 . S
C1598 H1592 0.950 . S
C1598 C1599 1.327 . S
C1599 H1593 0.950 . S
C1599 C1598 1.327 . S
C1599 C1603 1.429 . S
C1600 C1583 1.574 . S
C1600 H1594 0.949 . S
C1600 C1604 1.368 . S
C1601 C1582 1.429 . S
C1601 C1595 1.429 . S
C1601 C1602 1.523 . S
C1602 C1583 1.368 . S
C1602 C1596 1.368 . S
C1602 C1601 1.523 . S
C1603 C1587 1.429 . S
C1603 C1599 1.429 . S
C1603 C1604 1.523 . S
C1604 C1588 1.368 . S
C1604 C1600 1.368 . S
C1604 C1603 1.523 . S
H1605 C1580 0.950 . S
H1606 C1582 0.950 . S
H1607 C1583 0.949 . S
H1608 C1585 0.950 . S
H1609 C1587 0.950 . S
C1610 C1611 1.349 . S
C1610 C1612 1.327 . S
C1610 H1635 0.950 . S
C1611 C1610 1.349 . S
C1611 C1627 1.349 . S
C1612 C1610 1.327 . S
C1612 C1631 1.429 . S
C1612 H1636 0.950 . S
C1613 C1630 1.574 1_455 S
C1613 C1632 1.368 . S
C1613 H1637 0.949 . S
H1614 C1618 0.949 . S
C1615 C1616 1.349 . S
C1615 C1617 1.327 . S
C1615 H1638 0.950 . S
C1616 C1615 1.349 . S
C1616 C1628 1.349 . S
C1617 C1615 1.327 . S
C1617 C1633 1.429 . S
C1617 H1639 0.950 . S
C1618 H1614 0.949 . S
C1618 C1626 1.574 1_655 S
C1618 C1634 1.368 . S
H1619 C1627 0.950 . S
H1620 C1625 0.950 . S
H1621 C1626 0.949 . S
H1622 C1628 0.950 . S
H1623 C1629 0.950 . S
H1624 C1630 0.949 . S
C1625 H1620 0.950 . S
C1625 C1627 1.327 . S
C1625 C1631 1.429 . S
C1626 C1618 1.574 1_455 S
C1626 H1621 0.949 . S
C1626 C1632 1.368 1_556 S
C1627 C1611 1.349 . S
C1627 H1619 0.950 . S
C1627 C1625 1.327 . S
C1628 C1616 1.349 . S
C1628 H1622 0.950 . S
C1628 C1629 1.327 . S
C1629 H1623 0.950 . S
C1629 C1628 1.327 . S
C1629 C1633 1.429 . S
C1630 C1613 1.574 1_655 S
C1630 H1624 0.949 . S
C1630 C1634 1.368 1_554 S
C1631 C1612 1.429 . S
C1631 C1625 1.429 . S
C1631 C1632 1.523 . S
C1632 C1613 1.368 . S
C1632 C1626 1.368 1_554 S
C1632 C1631 1.523 . S
C1633 C1617 1.429 . S
C1633 C1629 1.429 . S
C1633 C1634 1.523 . S
C1634 C1618 1.368 . S
C1634 C1630 1.368 1_556 S
C1634 C1633 1.523 . S
H1635 C1610 0.950 . S
H1636 C1612 0.950 . S
H1637 C1613 0.949 . S
H1638 C1615 0.950 . S
H1639 C1617 0.950 . S
C1640 C1641 1.349 . S
C1640 C1642 1.327 . S
C1640 H1665 0.950 . S
C1641 C1640 1.349 . S
C1641 C1657 1.349 . S
C1642 C1640 1.327 . S
C1642 C1661 1.429 . S
C1642 H1666 0.950 . S
C1643 C1660 1.574 . S
C1643 C1662 1.368 . S
C1643 H1667 0.949 . S
H1644 C1648 0.949 . S
C1645 C1646 1.349 . S
C1645 C1647 1.327 . S
C1645 H1668 0.950 . S
C1646 C1645 1.349 . S
C1646 C1658 1.349 . S
C1647 C1645 1.327 . S
C1647 C1663 1.429 . S
C1647 H1669 0.950 . S
C1648 H1644 0.949 . S
C1648 C1656 1.574 . S
C1648 C1664 1.368 . S
H1649 C1657 0.950 . S
H1650 C1655 0.950 . S
H1651 C1656 0.949 . S
H1652 C1658 0.950 . S
H1653 C1659 0.950 . S
H1654 C1660 0.949 . S
C1655 H1650 0.950 . S
C1655 C1657 1.327 . S
C1655 C1661 1.429 . S
C1656 C1648 1.574 . S
C1656 H1651 0.949 . S
C1656 C1662 1.368 . S
C1657 C1641 1.349 . S
C1657 H1649 0.950 . S
C1657 C1655 1.327 . S
C1658 C1646 1.349 . S
C1658 H1652 0.950 . S
C1658 C1659 1.327 . S
C1659 H1653 0.950 . S
C1659 C1658 1.327 . S
C1659 C1663 1.429 . S
C1660 C1643 1.574 . S
C1660 H1654 0.949 . S
C1660 C1664 1.368 . S
C1661 C1642 1.429 . S
C1661 C1655 1.429 . S
C1661 C1662 1.523 . S
C1662 C1643 1.368 . S
C1662 C1656 1.368 . S
C1662 C1661 1.523 . S
C1663 C1647 1.429 . S
C1663 C1659 1.429 . S
C1663 C1664 1.523 . S
C1664 C1648 1.368 . S
C1664 C1660 1.368 . S
C1664 C1663 1.523 . S
H1665 C1640 0.950 . S
H1666 C1642 0.950 . S
H1667 C1643 0.949 . S
H1668 C1645 0.950 . S
H1669 C1647 0.950 . S
C1670 C1671 1.349 . S
C1670 C1672 1.327 . S
C1670 H1695 0.950 . S
C1671 C1670 1.349 . S
C1671 C1687 1.349 . S
C1672 C1670 1.327 . S
C1672 C1691 1.429 . S
C1672 H1696 0.950 . S
C1673 C1690 1.574 . S
C1673 C1692 1.368 . S
C1673 H1697 0.949 . S
H1674 C1678 0.949 . S
C1675 C1676 1.349 . S
C1675 C1677 1.327 . S
C1675 H1698 0.950 . S
C1676 C1675 1.349 . S
C1676 C1688 1.349 . S
C1677 C1675 1.327 . S
C1677 C1693 1.429 . S
C1677 H1699 0.950 . S
C1678 H1674 0.949 . S
C1678 C1686 1.574 . S
C1678 C1694 1.368 . S
H1679 C1687 0.950 . S
H1680 C1685 0.950 . S
H1681 C1686 0.949 . S
H1682 C1688 0.950 . S
H1683 C1689 0.950 . S
H1684 C1690 0.949 . S
C1685 H1680 0.950 . S
C1685 C1687 1.327 . S
C1685 C1691 1.429 . S
C1686 C1678 1.574 . S
C1686 H1681 0.949 . S
C1686 C1692 1.368 . S
C1687 C1671 1.349 . S
C1687 H1679 0.950 . S
C1687 C1685 1.327 . S
C1688 C1676 1.349 . S
C1688 H1682 0.950 . S
C1688 C1689 1.327 . S
C1689 H1683 0.950 . S
C1689 C1688 1.327 . S
C1689 C1693 1.429 . S
C1690 C1673 1.574 . S
C1690 H1684 0.949 . S
C1690 C1694 1.368 . S
C1691 C1672 1.429 . S
C1691 C1685 1.429 . S
C1691 C1692 1.523 . S
C1692 C1673 1.368 . S
C1692 C1686 1.368 . S
C1692 C1691 1.523 . S
C1693 C1677 1.429 . S
C1693 C1689 1.429 . S
C1693 C1694 1.523 . S
C1694 C1678 1.368 . S
C1694 C1690 1.368 . S
C1694 C1693 1.523 . S
H1695 C1670 0.950 . S
H1696 C1672 0.950 . S
H1697 C1673 0.949 . S
H1698 C1675 0.950 . S
H1699 C1677 0.950 . S
C1700 C1701 1.349 . S
C1700 C1702 1.327 . S
C1700 H1725 0.950 . S
C1701 C1700 1.349 . S
C1701 C1717 1.349 . S
C1702 C1700 1.327 . S
C1702 C1721 1.429 . S
C1702 H1726 0.950 . S
C1703 C1720 1.574 1_455 S
C1703 C1722 1.368 1_565 S
C1703 H1727 0.949 . S
H1704 C1708 0.949 . S
C1705 C1706 1.349 . S
C1705 C1707 1.327 . S
C1705 H1728 0.950 . S
C1706 C1705 1.349 . S
C1706 C1718 1.349 . S
C1707 C1705 1.327 . S
C1707 C1723 1.429 . S
C1707 H1729 0.950 . S
C1708 H1704 0.949 . S
C1708 C1716 1.574 1_655 S
C1708 C1724 1.368 1_545 S
H1709 C1717 0.950 . S
H1710 C1715 0.950 . S
H1711 C1716 0.949 . S
H1712 C1718 0.950 . S
H1713 C1719 0.950 . S
H1714 C1720 0.949 . S
C1715 H1710 0.950 . S
C1715 C1717 1.327 . S
C1715 C1721 1.429 . S
C1716 C1708 1.574 1_455 S
C1716 H1711 0.949 . S
C1716 C1722 1.368 1_554 S
C1717 C1701 1.349 . S
C1717 H1709 0.950 . S
C1717 C1715 1.327 . S
C1718 C1706 1.349 . S
C1718 H1712 0.950 . S
C1718 C1719 1.327 . S
C1719 H1713 0.950 . S
C1719 C1718 1.327 . S
C1719 C1723 1.429 . S
C1720 C1703 1.574 1_655 S
C1720 H1714 0.949 . S
C1720 C1724 1.368 1_556 S
C1721 C1702 1.429 . S
C1721 C1715 1.429 . S
C1721 C1722 1.523 . S
C1722 C1703 1.368 1_545 S
C1722 C1716 1.368 1_556 S
C1722 C1721 1.523 . S
C1723 C1707 1.429 . S
C1723 C1719 1.429 . S
C1723 C1724 1.523 . S
C1724 C1708 1.368 1_565 S
C1724 C1720 1.368 1_554 S
C1724 C1723 1.523 . S
H1725 C1700 0.950 . S
H1726 C1702 0.950 . S
H1727 C1703 0.949 . S
H1728 C1705 0.950 . S
H1729 C1707 0.950 . S
C1730 C1731 1.349 . S
C1730 C1732 1.327 . S
C1730 H1755 0.950 . S
C1731 C1730 1.349 . S
C1731 C1747 1.349 . S
C1732 C1730 1.327 . S
C1732 C1751 1.429 . S
C1732 H1756 0.950 . S
C1733 C1750 1.574 1_545 S
C1733 C1752 1.368 . S
C1733 H1757 0.949 . S
H1734 C1738 0.949 . S
C1735 C1736 1.349 . S
C1735 C1737 1.327 . S
C1735 H1758 0.950 . S
C1736 C1735 1.349 . S
C1736 C1748 1.349 . S
C1737 C1735 1.327 . S
C1737 C1753 1.429 . S
C1737 H1759 0.950 . S
C1738 H1734 0.949 . S
C1738 C1746 1.574 1_565 S
C1738 C1754 1.368 . S
H1739 C1747 0.950 . S
H1740 C1745 0.950 . S
H1741 C1746 0.949 . S
H1742 C1748 0.950 . S
H1743 C1749 0.950 . S
H1744 C1750 0.949 . S
C1745 H1740 0.950 . S
C1745 C1747 1.327 . S
C1745 C1751 1.429 . S
C1746 C1738 1.574 1_545 S
C1746 H1741 0.949 . S
C1746 C1752 1.368 . S
C1747 C1731 1.349 . S
C1747 H1739 0.950 . S
C1747 C1745 1.327 . S
C1748 C1736 1.349 . S
C1748 H1742 0.950 . S
C1748 C1749 1.327 . S
C1749 H1743 0.950 . S
C1749 C1748 1.327 . S
C1749 C1753 1.429 . S
C1750 C1733 1.574 1_565 S
C1750 H1744 0.949 . S
C1750 C1754 1.368 . S
C1751 C1732 1.429 . S
C1751 C1745 1.429 . S
C1751 C1752 1.523 . S
C1752 C1733 1.368 . S
C1752 C1746 1.368 . S
C1752 C1751 1.523 . S
C1753 C1737 1.429 . S
C1753 C1749 1.429 . S
C1753 C1754 1.523 . S
C1754 C1738 1.368 . S
C1754 C1750 1.368 . S
C1754 C1753 1.523 . S
H1755 C1730 0.950 . S
H1756 C1732 0.950 . S
H1757 C1733 0.949 . S
H1758 C1735 0.950 . S
H1759 C1737 0.950 . S
C321 C16 0.633 . S
C326 C216 0.633 . S
C351 C36 0.633 . S
C356 C236 0.633 . S
C381 C56 0.633 . S
C386 C176 0.633 . S
C411 C76 0.633 . S
C416 C196 0.633 . S
C441 C86 0.633 . S
C446 C286 0.633 . S
C471 C106 0.633 . S
C476 C306 0.633 . S
C501 C126 0.633 . S
C506 C246 0.633 . S
C531 C146 0.633 . S
C536 C266 0.633 . S
C561 C181 1.821 . S
C566 C6 1.846 . S
C591 C201 1.821 . S
C596 C26 1.846 . S
C621 C221 1.821 . S
C626 C46 1.846 . S
C651 C161 1.821 . S
C656 C66 1.846 . S
C681 C96 1.846 . S
C686 C269 1.821 . S
C711 C289 1.821 . S
C716 C116 1.846 . S
C741 C309 1.821 . S
C746 C136 1.846 . S
C771 C249 1.821 . S
C776 C156 1.846 . S
C801 C21 1.821 . S
C806 C166 1.846 . S
C831 C186 1.846 . S
C836 C41 1.821 . S
C861 C206 1.846 . S
C866 C61 1.821 . S
C891 C226 1.846 . S
C896 C1 1.821 . S
C921 C256 1.846 . S
C926 C109 1.821 . S
C951 C129 1.821 . S
C956 C276 1.846 . S
C981 C149 1.821 . S
C986 C296 1.846 . S
C1011 C316 1.846 . S
C1016 C89 1.821 . S
C1041 C8 1.389 1_556 S
C1046 C301 1.483 . S
C1071 C28 1.389 . S
C1076 C81 1.482 1_554 S
C1101 C261 1.483 . S
C1106 C48 1.389 . S
C1131 C121 1.482 . S
C1136 C68 1.389 . S
C1161 C99 1.389 1_554 S
C1166 C229 1.483 . S
C1191 C119 1.389 . S
C1196 C9 1.482 1_556 S
C1221 C189 1.483 . S
C1226 C139 1.389 . S
C1251 C49 1.482 . S
C1256 C159 1.389 . S
C1281 C168 1.389 . S
C1286 C141 1.483 . S
C1311 C188 1.389 . S
C1316 C241 1.482 . S
C1341 C101 1.483 . S
C1346 C208 1.389 1_556 S
C1371 C281 1.482 1_554 S
C1376 C228 1.389 . S
C1401 C259 1.389 . S
C1406 C69 1.483 . S
C1431 C279 1.389 . S
C1436 C169 1.482 . S
C1461 C299 1.389 1_554 S
C1466 C29 1.483 . S
C1491 C209 1.482 1_556 S
C1496 C319 1.389 . S
C1521 C19 2.180 . S
C1526 C248 2.180 . S
C1551 C39 2.180 . S
C1556 C108 2.180 . S
C1581 C59 2.180 . S
C1586 C288 2.180 . S
C1611 C148 2.180 . S
C1616 C79 2.180 . S
C1641 C88 2.180 . S
C1646 C179 2.180 . S
C1671 C219 2.180 . S
C1676 C128 2.180 . S
C1701 C199 2.180 . S
C1706 C268 2.180 . S
C1731 C308 2.180 . S
C1736 C239 2.180 . S
