# Generated by pormake.
# Topology uoj, (4)-cn, num edge types: 1
# Building blocks:
#     Node 0, Type 0, BuildingBlock: QUQFOY_clean_sbu_3, # of connection points: 4
#     Node 1, Type 0, BuildingBlock: QUQFOY_clean_sbu_3, # of connection points: 4
#     Node 2, Type 0, BuildingBlock: QUQFOY_clean_sbu_3, # of connection points: 4
#     Node 3, Type 0, BuildingBlock: QUQFOY_clean_sbu_3, # of connection points: 4
#     Node 4, Type 0, BuildingBlock: QUQFOY_clean_sbu_3, # of connection points: 4
#     Node 5, Type 0, BuildingBlock: QUQFOY_clean_sbu_3, # of connection points: 4
#     Node 6, Type 0, BuildingBlock: QUQFOY_clean_sbu_3, # of connection points: 4
#     Node 7, Type 0, BuildingBlock: QUQFOY_clean_sbu_3, # of connection points: 4
#     Edge 8, Type (0, 0), BuildingBlock: ZUJKAS_clean_linker_0, # of connection points: 2
#     Edge 9, Type (0, 0), BuildingBlock: ZUJKAS_clean_linker_0, # of connection points: 2
#     Edge 10, Type (0, 0), BuildingBlock: ZUJKAS_clean_linker_0, # of connection points: 2
#     Edge 11, Type (0, 0), BuildingBlock: ZUJKAS_clean_linker_0, # of connection points: 2
#     Edge 12, Type (0, 0), BuildingBlock: ZUJKAS_clean_linker_0, # of connection points: 2
#     Edge 13, Type (0, 0), BuildingBlock: ZUJKAS_clean_linker_0, # of connection points: 2
#     Edge 14, Type (0, 0), BuildingBlock: ZUJKAS_clean_linker_0, # of connection points: 2
#     Edge 15, Type (0, 0), BuildingBlock: ZUJKAS_clean_linker_0, # of connection points: 2
#     Edge 16, Type (0, 0), BuildingBlock: ZUJKAS_clean_linker_0, # of connection points: 2
#     Edge 17, Type (0, 0), BuildingBlock: ZUJKAS_clean_linker_0, # of connection points: 2
#     Edge 18, Type (0, 0), BuildingBlock: ZUJKAS_clean_linker_0, # of connection points: 2
#     Edge 19, Type (0, 0), BuildingBlock: ZUJKAS_clean_linker_0, # of connection points: 2
#     Edge 20, Type (0, 0), BuildingBlock: ZUJKAS_clean_linker_0, # of connection points: 2
#     Edge 21, Type (0, 0), BuildingBlock: ZUJKAS_clean_linker_0, # of connection points: 2
#     Edge 22, Type (0, 0), BuildingBlock: ZUJKAS_clean_linker_0, # of connection points: 2
#     Edge 23, Type (0, 0), BuildingBlock: ZUJKAS_clean_linker_0, # of connection points: 2
# Relax obj value: 0.110
# Max RMSD: 0.139
# Mean RMSD: 0.138
data_MOF--net-uoj--node1-QUQFOY_clean_sbu_3--edge1-ZUJKAS_clean_linker_0
_symmetry_space_group_name_H-M    P1
_symmetry_Int_Tables_number       1
_symmetry_cell_setting            triclinic
loop_
_symmetry_equiv_pos_as_xyz
'x, y, z'
_cell_length_a     44.03094
_cell_length_b     44.136986
_cell_length_c     46.492167
_cell_angle_alpha  89.956727
_cell_angle_beta   90.113528
_cell_angle_gamma 91.619589
loop_
_atom_site_label
_atom_site_type_symbol
_atom_site_fract_x
_atom_site_fract_y
_atom_site_fract_z
_atom_type_partial_charge
C0 C 0.05904 0.28486 0.36842 0.0
O1 O 0.03063 0.27902 0.36816 0.0
Cd2 Cd 0.00081 0.2652 0.40919 0.0
O3 O 0.07432 0.28266 0.39166 0.0
Cd4 Cd 0.06493 0.2673 0.44271 0.0
C5 C 0.01923 0.32639 0.45284 0.0
O6 O 0.0281 0.22688 0.43257 0.0
O7 O 0.03072 0.24055 0.47684 0.0
O8 O 0.11167 0.23989 0.43888 0.0
C9 C 0.01934 0.22264 0.45818 0.0
O10 O -0.00054 0.31064 0.43892 0.0
C11 C 0.12183 0.24687 0.46363 0.0
O12 O 0.04636 0.31744 0.45577 0.0
O13 O 0.10625 0.26501 0.47839 0.0
C14 C 0.23993 0.8954 0.4971 0.0
O15 O 0.25341 0.90537 0.47469 0.0
Cd16 Cd 0.30172 0.93219 0.47283 0.0
O17 O 0.25187 0.89881 0.52194 0.0
Cd18 Cd 0.29821 0.9209 0.54461 0.0
C19 C 0.28431 -0.00832 0.51769 0.0
O20 O 0.33171 0.90579 0.50622 0.0
O21 O 0.35319 0.92982 0.54129 0.0
O22 O 0.29562 0.87911 0.57917 0.0
C23 C 0.35574 0.91752 0.51685 0.0
O24 O 0.29136 0.98166 0.49295 0.0
C25 C 0.29902 0.89587 0.60122 0.0
O26 O 0.28344 0.97424 0.53961 0.0
O27 O 0.30109 0.92429 0.59691 0.0
C28 C 0.90884 0.67689 0.37071 0.0
O29 O 0.93767 0.67875 0.37078 0.0
Cd30 Cd 0.96828 0.69171 0.4116 0.0
O31 O 0.89385 0.68207 0.39357 0.0
Cd32 Cd 0.90502 0.6965 0.44455 0.0
C33 C 0.94509 0.63333 0.4561 0.0
O34 O 0.94468 0.73382 0.43306 0.0
O35 O 0.94108 0.72225 0.47783 0.0
O36 O 0.85963 0.72626 0.44049 0.0
C37 C 0.95349 0.73868 0.45858 0.0
O38 O 0.9663 0.64692 0.44217 0.0
C39 C 0.84969 0.72048 0.46556 0.0
O40 O 0.91906 0.64501 0.45858 0.0
O41 O 0.8648 0.70223 0.48069 0.0
C42 C 0.73008 0.07284 0.49845 0.0
O43 O 0.7162 0.06352 0.47598 0.0
Cd44 Cd 0.66772 0.03715 0.47415 0.0
O45 O 0.71834 0.06922 0.52332 0.0
Cd46 Cd 0.67182 0.04769 0.54603 0.0
C47 C 0.68615 0.97737 0.51852 0.0
O48 O 0.63812 0.0633 0.50788 0.0
O49 O 0.61686 0.03857 0.54259 0.0
O50 O 0.67492 0.08941 0.58058 0.0
C51 C 0.61415 0.05136 0.51838 0.0
O52 O 0.6789 -0.01235 0.4939 0.0
C53 C 0.6714 0.07266 0.60264 0.0
O54 O 0.68679 -0.00552 0.54066 0.0
O55 O 0.66904 0.04425 0.59834 0.0
C56 C 0.3997 0.73901 0.97982 0.0
O57 O 0.40909 0.75218 0.00261 0.0
Cd58 Cd 0.43509 0.80082 0.00539 0.0
O59 O 0.40303 0.7516 0.95529 0.0
Cd60 Cd 0.42394 0.79881 0.93357 0.0
C61 C 0.49488 0.78467 0.96025 0.0
O62 O 0.40841 0.83131 0.97259 0.0
O63 O 0.43244 0.85358 0.93797 0.0
O64 O 0.38183 0.79603 0.89922 0.0
C65 C 0.42001 0.85556 0.96241 0.0
O66 O 0.48471 0.79097 0.98511 0.0
C67 C 0.39841 0.8001 0.87713 0.0
O68 O 0.47752 0.78447 0.93821 0.0
O69 O 0.4269 0.80274 0.88131 0.0
C70 C 0.78727 0.55883 0.10778 0.0
O71 O 0.7839 0.53016 0.10772 0.0
Cd72 Cd 0.7701 0.50021 0.06666 0.0
O73 O 0.78344 0.57407 0.08479 0.0
Cd74 Cd 0.76979 0.56398 0.03351 0.0
C75 C 0.83058 0.52018 0.02325 0.0
O76 O 0.73021 0.52615 0.04381 0.0
O77 O 0.74308 0.52972 -0.00063 0.0
O78 O 0.74231 0.61071 0.03709 0.0
C79 C 0.72571 0.51772 0.01812 0.0
O80 O 0.8153 0.49974 0.03667 0.0
C81 C 0.74925 0.62059 0.01225 0.0
O82 O 0.82083 0.54701 0.02088 0.0
O83 O 0.76713 0.60475 -0.00252 0.0
C84 C 0.57407 0.22964 0.98149 0.0
O85 O 0.56499 0.21627 0.00428 0.0
Cd86 Cd 0.53874 0.16775 0.00682 0.0
O87 O 0.57031 0.21729 0.95691 0.0
Cd88 Cd 0.54895 0.17036 0.93503 0.0
C89 C 0.47851 0.1849 0.96231 0.0
O90 O 0.56475 0.13725 0.97364 0.0
O91 O 0.53977 0.11569 0.93913 0.0
O92 O 0.59081 0.17303 0.90057 0.0
C93 C 0.55268 0.11326 0.96335 0.0
O94 O 0.48896 0.17825 0.98704 0.0
C95 C 0.57406 0.16924 0.8785 0.0
O96 O 0.49557 0.18516 0.94013 0.0
O97 O 0.54559 0.16686 0.88274 0.0
C98 C 0.18329 0.41217 0.10851 0.0
O99 O 0.18777 0.44072 0.10849 0.0
Cd100 Cd 0.20016 0.47018 0.06684 0.0
O101 O 0.18635 0.39689 0.08545 0.0
Cd102 Cd 0.20154 0.40632 0.03439 0.0
C103 C 0.13958 0.4483 0.02369 0.0
O104 O 0.24059 0.44484 0.04434 0.0
O105 O 0.22743 0.44076 -5e-05 0.0
O106 O 0.23006 0.36028 0.03891 0.0
C107 C 0.24485 0.45304 0.01856 0.0
O108 O 0.15407 0.469 0.03755 0.0
C109 C 0.22336 0.34986 0.0142 0.0
O110 O 0.15053 0.42204 0.02076 0.0
O111 O 0.20513 0.36506 -0.0009 0.0
H112 H 0.16574 0.35253 0.1162 0.0
H113 H 0.14677 0.32853 0.16045 0.0
H114 H 0.16063 0.41284 0.20603 0.0
H115 H 0.17914 0.43712 0.16204 0.0
H116 H 0.1734 0.32209 0.21563 0.0
H117 H 0.07036 0.3916 0.21901 0.0
H118 H 0.09406 0.38935 0.1875 0.0
H119 H 0.10531 0.41347 0.21704 0.0
C120 C 0.16486 0.36594 0.13566 0.0
C121 C 0.17363 0.39684 0.13548 0.0
C122 C 0.15407 0.35217 0.16091 0.0
C123 C 0.15183 0.36908 0.18633 0.0
C124 C 0.16161 0.39958 0.18647 0.0
H125 H 0.11776 0.30611 0.36117 0.0
H126 H 0.14137 0.32485 0.3167 0.0
C127 C 0.17227 0.41337 0.16129 0.0
C128 C 0.13852 0.35516 0.21258 0.0
H129 H 0.08016 0.36158 0.26013 0.0
C130 C 0.15295 0.33059 0.22536 0.0
C131 C 0.11164 0.36611 0.22494 0.0
C132 C 0.09423 0.39139 0.21131 0.0
C133 C 0.14146 0.31698 0.25057 0.0
C134 C 0.11513 0.3286 0.26344 0.0
C135 C 0.1005 0.35288 0.25036 0.0
C136 C 0.10176 0.31564 0.29012 0.0
C137 C 0.15726 0.29 0.26291 0.0
C138 C 0.07157 0.30465 0.29001 0.0
C139 C 0.05794 0.29428 0.31536 0.0
C140 C 0.07421 0.29471 0.34144 0.0
C141 C 0.10464 0.30534 0.34144 0.0
C142 C 0.11824 0.31587 0.31601 0.0
H143 H 0.17196 0.27916 0.24671 0.0
H144 H 0.17188 0.29757 0.28115 0.0
H145 H 0.14055 0.27279 0.2711 0.0
H146 H 0.05843 0.30436 0.27028 0.0
H147 H 0.0345 0.28617 0.31451 0.0
H148 H 0.29114 0.83659 0.61759 0.0
H149 H 0.30082 0.81473 0.66504 0.0
H150 H 0.32576 0.90355 0.69751 0.0
H151 H 0.31527 0.9256 0.65054 0.0
H152 H 0.35318 0.81355 0.69305 0.0
H153 H 0.2711 0.87327 0.76065 0.0
H154 H 0.26911 0.87361 0.72188 0.0
H155 H 0.29439 0.89968 0.74063 0.0
C156 C 0.29818 0.85151 0.63499 0.0
C157 C 0.30233 0.88284 0.63035 0.0
C158 C 0.30375 0.83898 0.66208 0.0
C159 C 0.31357 0.85753 0.685 0.0
C160 C 0.31738 0.88886 0.68044 0.0
H161 H 0.42747 0.81759 0.82784 0.0
H162 H 0.40482 0.82753 0.78097 0.0
C163 C 0.31157 0.90143 0.65348 0.0
C164 C 0.32216 0.84403 0.71301 0.0
H165 H 0.31372 0.85201 0.78554 0.0
C166 C 0.34419 0.82163 0.71327 0.0
C167 C 0.31005 0.85407 0.7394 0.0
C168 C 0.28461 0.87623 0.74063 0.0
C169 C 0.35554 0.81015 0.73919 0.0
C170 C 0.34519 0.822 0.76557 0.0
C171 C 0.32203 0.84324 0.76532 0.0
C172 C 0.3591 0.81395 0.79357 0.0
C173 C 0.37856 0.7855 0.73796 0.0
C174 C 0.34089 0.80358 0.81652 0.0
C175 C 0.35375 0.79833 0.84354 0.0
C176 C 0.38507 0.80335 0.8481 0.0
C177 C 0.40332 0.81322 0.82496 0.0
C178 C 0.39042 0.81871 0.79806 0.0
H179 H 0.37596 0.77189 0.71797 0.0
H180 H 0.40177 0.79598 0.73792 0.0
H181 H 0.37647 0.77003 0.75674 0.0
H182 H 0.31665 0.79992 0.81361 0.0
H183 H 0.33908 0.79078 0.86096 0.0
H184 H 0.93332 0.65378 0.3219 0.0
H185 H 0.90728 0.63955 0.27749 0.0
H186 H 0.82216 0.66721 0.31338 0.0
H187 H 0.84803 0.68073 0.35852 0.0
H188 H 0.81551 0.61417 0.28701 0.0
H189 H 0.87759 0.69275 0.21421 0.0
H190 H 0.90358 0.67002 0.23385 0.0
H191 H 0.88 0.69605 0.25284 0.0
C192 C 0.90908 0.65706 0.32037 0.0
C193 C 0.89277 0.66856 0.34373 0.0
C194 C 0.89426 0.64913 0.29481 0.0
C195 C 0.8629 0.65306 0.2918 0.0
C196 C 0.84644 0.6643 0.31514 0.0
H197 H 0.78602 0.61966 0.1197 0.0
H198 H 0.80004 0.64495 0.16491 0.0
C199 C 0.86124 0.67196 0.34091 0.0
C200 C 0.84731 0.64381 0.26475 0.0
H201 H 0.85292 0.64921 0.19171 0.0
C202 C 0.82336 0.6222 0.26618 0.0
C203 C 0.857 0.65479 0.23756 0.0
C204 C 0.88072 0.67994 0.23453 0.0
C205 C 0.81008 0.60998 0.24114 0.0
C206 C 0.82169 0.61896 0.21397 0.0
C207 C 0.84438 0.64188 0.21253 0.0
C208 C 0.8119 0.60369 0.18694 0.0
C209 C 0.78384 0.58746 0.24415 0.0
C210 C 0.81432 0.5722 0.18416 0.0
C211 C 0.80608 0.5577 0.15855 0.0
C212 C 0.7958 0.57447 0.1349 0.0
C213 C 0.79385 0.6061 0.13752 0.0
C214 C 0.8018 0.62057 0.16334 0.0
H215 H 0.77101 0.59132 0.26431 0.0
H216 H 0.76791 0.58875 0.22567 0.0
H217 H 0.79274 0.56421 0.24516 0.0
H218 H 0.82303 0.55879 0.20171 0.0
H219 H 0.80822 0.53336 0.15717 0.0
H220 H 0.63337 0.178 0.86226 0.0
H221 H 0.65546 0.16868 0.81489 0.0
H222 H 0.56684 0.14216 0.7823 0.0
H223 H 0.54454 0.15227 0.8292 0.0
H224 H 0.65763 0.11656 0.7869 0.0
H225 H 0.59609 0.19742 0.7192 0.0
H226 H 0.59576 0.1993 0.75798 0.0
H227 H 0.5701 0.17363 0.73919 0.0
C228 C 0.61853 0.17066 0.84485 0.0
C229 C 0.58719 0.16598 0.84943 0.0
C230 C 0.63119 0.16531 0.81781 0.0
C231 C 0.61276 0.15517 0.79488 0.0
C232 C 0.58142 0.15079 0.79939 0.0
H233 H 0.65492 0.04304 0.65194 0.0
H234 H 0.64475 0.06517 0.69888 0.0
C235 C 0.56871 0.15638 0.8263 0.0
C236 C 0.62645 0.14694 0.76689 0.0
H237 H 0.61832 0.15551 0.69436 0.0
C238 C 0.64935 0.12543 0.76668 0.0
C239 C 0.61615 0.15892 0.74049 0.0
C240 C 0.59342 0.18384 0.73922 0.0
C241 C 0.66111 0.11446 0.74078 0.0
C242 C 0.64904 0.12466 0.71437 0.0
C243 C 0.62727 0.14731 0.71458 0.0
C244 C 0.6574 0.11108 0.68637 0.0
C245 C 0.68629 0.09201 0.74205 0.0
C246 C 0.66738 0.12955 0.66346 0.0
C247 C 0.67277 0.11698 0.63639 0.0
C248 C 0.66827 0.08569 0.63176 0.0
C249 C 0.65888 0.06718 0.65487 0.0
C250 C 0.65325 0.07979 0.68182 0.0
H251 H 0.69989 0.0948 0.76208 0.0
H252 H 0.67625 0.06867 0.74204 0.0
H253 H 0.70176 0.09448 0.72331 0.0
H254 H 0.67057 0.15378 0.66641 0.0
H255 H 0.67994 0.13185 0.61899 0.0
H256 H 0.28588 0.0348 0.47568 0.0
H257 H 0.26748 0.08605 0.47802 0.0
H258 H 0.2451 0.07345 0.56759 0.0
H259 H 0.26305 0.02139 0.56533 0.0
H260 H 0.19823 0.09442 0.5374 0.0
H261 H 0.29962 0.16478 0.5107 0.0
H262 H 0.29436 0.13516 0.48468 0.0
H263 H 0.30209 0.12565 0.52166 0.0
C264 C 0.27748 0.04292 0.49607 0.0
C265 C 0.27582 0.02384 0.5203 0.0
C266 C 0.26728 0.07249 0.49744 0.0
C267 C 0.25549 0.08389 0.52313 0.0
C268 C 0.25446 0.06522 0.54763 0.0
H269 H 0.1397 0.24406 0.52004 0.0
H270 H 0.1765 0.20933 0.54064 0.0
C271 C 0.26467 0.03547 0.54628 0.0
C272 C 0.24096 0.11381 0.52297 0.0
H273 H 0.25074 0.186 0.49742 0.0
C274 C 0.2099 0.11473 0.52951 0.0
C275 C 0.25623 0.14034 0.51276 0.0
C276 C 0.29 0.1415 0.50737 0.0
C277 C 0.19316 0.14063 0.52378 0.0
C278 C 0.20799 0.16634 0.51144 0.0
C279 C 0.23943 0.16618 0.50675 0.0
C280 C 0.19038 0.19151 0.49954 0.0
C281 C 0.1593 0.13957 0.52895 0.0
C282 C 0.18717 0.19392 0.46963 0.0
C283 C 0.16623 0.21358 0.45784 0.0
C284 C 0.14826 0.23134 0.47578 0.0
C285 C 0.15323 0.23064 0.50568 0.0
C286 C 0.17411 0.21075 0.51749 0.0
H287 H 0.15085 0.11677 0.53591 0.0
H288 H 0.15369 0.15613 0.54595 0.0
H289 H 0.14701 0.14599 0.50908 0.0
H290 H 0.19958 0.17927 0.45544 0.0
H291 H 0.16306 0.21374 0.43473 0.0
H292 H 0.20509 0.86978 0.53988 0.0
H293 H 0.1556 0.8437 0.53504 0.0
H294 H 0.15704 0.86003 0.4436 0.0
H295 H 0.20663 0.88578 0.44805 0.0
H296 H 0.10098 0.86596 0.51303 0.0
H297 H 0.1407 0.76836 0.44952 0.0
H298 H 0.16643 0.79365 0.4688 0.0
H299 H 0.15132 0.8046 0.43448 0.0
C300 C 0.19496 0.86775 0.51871 0.0
C301 C 0.20993 0.87971 0.49432 0.0
C302 C 0.16667 0.85289 0.51602 0.0
C303 C 0.15295 0.8496 0.48893 0.0
C304 C 0.16758 0.86184 0.46461 0.0
H305 H -0.01293 0.77204 0.42023 0.0
H306 H 0.03448 0.80053 0.42931 0.0
C307 C 0.19586 0.87665 0.46725 0.0
C308 C 0.12313 0.83369 0.48605 0.0
H309 H 0.08726 0.77377 0.45286 0.0
C310 C 0.09794 0.84568 0.50006 0.0
C311 C 0.1194 0.8072 0.46919 0.0
C312 C 0.14593 0.79248 0.45485 0.0
C313 C 0.06882 0.83231 0.49692 0.0
C314 C 0.06505 0.80617 0.47961 0.0
C315 C 0.0903 0.79396 0.46597 0.0
C316 C 0.03505 0.79117 0.47498 0.0
C317 C 0.04222 0.84662 0.51149 0.0
C318 C 0.01961 0.77674 0.49776 0.0
C319 C -0.00752 0.7604 0.49266 0.0
C320 C 0.98054 0.75815 0.46465 0.0
C321 C -0.00429 0.77332 0.44204 0.0
C322 C 0.02279 0.78958 0.44716 0.0
H323 H 0.04788 0.87002 0.51896 0.0
H324 H 0.02241 0.84733 0.49671 0.0
H325 H 0.03543 0.83281 0.53049 0.0
H326 H 0.02901 0.77736 0.51931 0.0
H327 H 0.98133 0.7489 0.51049 0.0
H328 H 0.70406 0.94609 0.56669 0.0
H329 H 0.72349 0.89457 0.56854 0.0
H330 H 0.70959 0.8855 0.47706 0.0
H331 H 0.68956 0.93619 0.47508 0.0
H332 H 0.69338 0.83339 0.50621 0.0
H333 H 0.80819 0.87652 0.53996 0.0
H334 H 0.77722 0.88527 0.56333 0.0
H335 H 0.77908 0.9015 0.5279 0.0
C336 C 0.70488 0.93299 0.54703 0.0
C337 C 0.69558 0.94546 0.52068 0.0
C338 C 0.71611 0.90361 0.54812 0.0
C339 C 0.71848 0.88641 0.52285 0.0
C340 C 0.70802 0.89837 0.49682 0.0
H341 H 0.80778 0.75212 0.43578 0.0
H342 H 0.77111 0.78702 0.45536 0.0
C343 C 0.69668 0.92749 0.49573 0.0
C344 C 0.73345 0.85673 0.52258 0.0
H345 H 0.80314 0.82522 0.52803 0.0
C346 C 0.71726 0.83144 0.51147 0.0
C347 C 0.7646 0.85419 0.52951 0.0
C348 C 0.78346 0.88079 0.54065 0.0
C349 C 0.73177 0.8042 0.50571 0.0
C350 C 0.76323 0.80229 0.5111 0.0
C351 C 0.77897 0.82681 0.524 0.0
C352 C 0.78121 0.77705 0.49989 0.0
C353 C 0.71358 0.77802 0.49299 0.0
C354 C 0.79876 0.75954 0.51846 0.0
C355 C 0.81969 0.73939 0.50728 0.0
C356 C 0.82377 0.73696 0.47738 0.0
C357 C 0.80514 0.75349 0.4589 0.0
C358 C 0.78403 0.77331 0.47007 0.0
H359 H 0.68908 0.7794 0.49836 0.0
H360 H 0.71575 0.77864 0.46922 0.0
H361 H 0.72204 0.75599 0.50074 0.0
H362 H 0.79709 0.76236 0.54154 0.0
H363 H 0.83386 0.72707 0.52205 0.0
H364 H 0.76344 0.0816 0.44946 0.0
H365 H 0.81418 0.10493 0.44517 0.0
H366 H 0.81636 0.12104 0.53664 0.0
H367 H 0.76576 0.09733 0.5413 0.0
H368 H 0.83251 0.16366 0.46006 0.0
H369 H 0.89652 0.07864 0.5221 0.0
H370 H 0.85831 0.07134 0.50921 0.0
H371 H 0.86482 0.09416 0.54074 0.0
C372 C 0.7747 0.09001 0.46871 0.0
C373 C 0.76057 0.08749 0.49575 0.0
C374 C 0.8037 0.1033 0.46621 0.0
C375 C 0.81915 0.11422 0.49065 0.0
C376 C 0.80505 0.11212 0.51762 0.0
H377 H -0.00913 0.21436 0.50998 0.0
H378 H 0.9427 0.18675 0.51886 0.0
C379 C 0.77605 0.09875 0.52018 0.0
C380 C 0.8496 0.12878 0.48761 0.0
H381 H 0.92399 0.12295 0.50727 0.0
C382 C 0.85253 0.15473 0.47031 0.0
C383 C 0.87559 0.11707 0.50115 0.0
C384 C 0.87384 0.08862 0.51916 0.0
C385 C 0.8808 0.16942 0.46624 0.0
C386 C 0.9068 0.15756 0.47952 0.0
C387 C 0.90391 0.13185 0.49712 0.0
C388 C 0.93723 0.17152 0.4749 0.0
C389 C 0.88261 0.19772 0.44799 0.0
C390 C 0.95038 0.17113 0.44749 0.0
C391 C 0.97779 0.18678 0.44235 0.0
C392 C -0.00752 0.20306 0.46459 0.0
C393 C 0.97998 0.20215 0.4924 0.0
C394 C 0.95253 0.18642 0.49752 0.0
H395 H 0.85994 0.20761 0.44473 0.0
H396 H 0.89799 0.21512 0.45796 0.0
H397 H 0.89193 0.19204 0.42656 0.0
H398 H 0.93903 0.15933 0.4299 0.0
H399 H -0.01304 0.18687 0.42075 0.0
H400 H 0.2794 0.48733 0.05555 0.0
H401 H 0.30827 0.53402 0.04478 0.0
H402 H 0.28455 0.52514 0.95507 0.0
H403 H 0.25515 0.47855 0.9657 0.0
H404 H 0.35698 0.54629 0.00707 0.0
H405 H 0.25386 0.60912 0.97682 0.0
H406 H 0.25182 0.57307 0.99514 0.0
H407 H 0.25955 0.57468 0.95724 0.0
C408 C 0.28048 0.49517 0.03348 0.0
C409 C 0.26473 0.47947 0.0115 0.0
C410 C 0.29701 0.52182 0.02738 0.0
C411 C 0.29805 0.53324 -0.00076 0.0
C412 C 0.28348 0.51696 0.97702 0.0
H413 H 0.37484 0.70497 0.93607 0.0
H414 H 0.35164 0.65408 0.93921 0.0
C415 C 0.26685 0.4903 0.98311 0.0
C416 C 0.31363 0.56272 0.99355 0.0
H417 H 0.30093 0.63562 0.97329 0.0
C418 C 0.3448 0.56581 -0.00044 0.0
C419 C 0.29757 0.58808 0.98379 0.0
C420 C 0.26381 0.5863 0.97807 0.0
C421 C 0.36038 0.59374 -0.00381 0.0
C422 C 0.34419 0.6192 0.98697 0.0
C423 C 0.31319 0.61597 0.98035 0.0
C424 C 0.35875 0.64969 0.98505 0.0
C425 C 0.39401 0.59577 0.00243 0.0
C426 C 0.36996 0.66413 0.00989 0.0
C427 C 0.38314 0.69322 0.00824 0.0
C428 C 0.38523 0.7084 0.98168 0.0
C429 C 0.37368 0.6939 0.95685 0.0
C430 C 0.36044 0.66483 0.95857 0.0
H431 H 0.40439 0.57312 0.00189 0.0
H432 H 0.40597 0.61083 0.98672 0.0
H433 H 0.39766 0.60542 0.02424 0.0
H434 H 0.36828 0.653 0.03062 0.0
H435 H 0.39171 0.70374 0.02779 0.0
H436 H 0.74454 0.63702 0.95568 0.0
H437 H 0.71075 0.67492 0.93558 0.0
H438 H 0.68551 0.70138 0.02135 0.0
H439 H 0.71895 0.66367 0.0415 0.0
H440 H 0.64816 0.67008 0.94743 0.0
H441 H 0.69408 0.78306 0.97908 0.0
H442 H 0.71731 0.74997 0.97743 0.0
H443 H 0.69388 0.75653 0.00836 0.0
C444 C 0.73249 0.65157 0.97023 0.0
C445 C 0.73423 0.64729 0.00016 0.0
C446 C 0.71319 0.67316 0.95871 0.0
C447 C 0.69586 0.69114 0.97697 0.0
C448 C 0.69911 0.68818 0.00686 0.0
H449 H 0.5366 0.78032 0.00333 0.0
H450 H 0.58769 0.76119 0.00045 0.0
C451 C 0.71808 0.66644 0.01836 0.0
C452 C 0.67096 0.70946 0.96541 0.0
H453 H 0.63965 0.77895 0.97145 0.0
C454 C 0.64653 0.6941 0.95189 0.0
C455 C 0.669 0.74073 0.97133 0.0
C456 C 0.69512 0.75861 0.9846 0.0
C457 C 0.61911 0.70853 0.94644 0.0
C458 C 0.61642 0.73938 0.95412 0.0
C459 C 0.6417 0.7553 0.96567 0.0
C460 C 0.58654 0.75406 0.95441 0.0
C461 C 0.59256 0.68998 0.93469 0.0
C462 C 0.56907 0.75713 0.92932 0.0
C463 C 0.53945 0.76782 0.93091 0.0
C464 C 0.52701 0.77588 0.95761 0.0
C465 C 0.54525 0.77415 0.98241 0.0
C466 C 0.57462 0.76333 0.98081 0.0
H467 H 0.59702 0.66532 0.93454 0.0
H468 H 0.5718 0.69367 0.94759 0.0
H469 H 0.58795 0.69708 0.91224 0.0
H470 H 0.57807 0.75065 0.90863 0.0
H471 H 0.52613 0.76917 0.91137 0.0
H472 H 0.6918 0.48354 0.05564 0.0
H473 H 0.66351 0.43633 0.04555 0.0
H474 H 0.68621 0.44452 0.95563 0.0
H475 H 0.71505 0.49163 0.96558 0.0
H476 H 0.6147 0.42261 0.0084 0.0
H477 H 0.71867 0.36147 0.97811 0.0
H478 H 0.72023 0.39779 0.99594 0.0
H479 H 0.71213 0.39552 0.9581 0.0
C480 C 0.6906 0.47545 0.03366 0.0
C481 C 0.70594 0.49109 0.01144 0.0
C482 C 0.6744 0.4485 0.02795 0.0
C483 C 0.67328 0.43672 -4e-05 0.0
C484 C 0.68737 0.45297 0.97748 0.0
H485 H 0.59828 0.26402 0.93773 0.0
H486 H 0.62104 0.3151 0.94089 0.0
C487 C 0.70368 0.47993 0.98318 0.0
C488 C 0.6582 0.4069 0.99469 0.0
H489 H 0.672 0.33416 0.97481 0.0
C490 C 0.62716 0.40327 0.00095 0.0
C491 C 0.67462 0.38177 0.98504 0.0
C492 C 0.70831 0.38411 0.97911 0.0
C493 C 0.61204 0.37507 -0.00214 0.0
C494 C 0.62858 0.34987 0.98865 0.0
C495 C 0.65947 0.35361 0.98185 0.0
C496 C 0.61448 0.31918 0.98679 0.0
C497 C 0.57851 0.37246 0.00434 0.0
C498 C 0.60376 0.30448 0.01168 0.0
C499 C 0.59083 0.27529 0.01002 0.0
C500 C 0.5885 0.26025 0.98341 0.0
C501 C 0.59963 0.27498 0.95856 0.0
C502 C 0.61263 0.30415 0.96028 0.0
H503 H 0.56774 0.39492 0.00393 0.0
H504 H 0.56662 0.35728 0.98867 0.0
H505 H 0.57528 0.36264 0.02614 0.0
H506 H 0.60557 0.31554 0.03243 0.0
H507 H 0.58259 0.2646 0.02958 0.0
H508 H 0.4467 0.20104 0.91382 0.0
H509 H 0.39491 0.22005 0.91168 0.0
H510 H 0.38657 0.20906 0.00354 0.0
H511 H 0.43751 0.18943 0.00583 0.0
H512 H 0.33415 0.19183 0.97514 0.0
H513 H 0.37679 0.30533 0.93796 0.0
H514 H 0.38537 0.27368 0.91543 0.0
H515 H 0.40204 0.27676 0.95064 0.0
C516 C 0.4337 0.2024 0.93351 0.0
C517 C 0.44645 0.19405 0.96004 0.0
C518 C 0.40417 0.21339 0.93225 0.0
C519 C 0.3871 0.21646 0.95752 0.0
C520 C 0.39933 0.20693 0.98376 0.0
H521 H 0.25466 0.30793 0.04421 0.0
H522 H 0.28862 0.27037 0.02473 0.0
C523 C 0.42861 0.19582 0.98503 0.0
C524 C 0.3573 0.23131 0.95755 0.0
H525 H 0.32563 0.30066 0.95074 0.0
C526 C 0.33211 0.21549 0.9693 0.0
C527 C 0.35463 0.26217 0.94984 0.0
C528 C 0.38112 0.28065 0.93795 0.0
C529 C 0.30488 0.23012 0.97501 0.0
C530 C 0.3029 0.26136 0.96892 0.0
C531 C 0.32727 0.27665 0.95532 0.0
C532 C 0.27792 0.27968 0.98019 0.0
C533 C 0.27884 0.21235 0.98846 0.0
C534 C 0.26026 0.29706 0.9616 0.0
C535 C 0.24065 0.31852 0.97274 0.0
C536 C 0.23893 0.3233 0.00259 0.0
C537 C 0.25551 0.30477 0.02113 0.0
C538 C 0.27478 0.28314 0.01002 0.0
H539 H 0.28001 0.1878 0.98343 0.0
H540 H 0.28 0.21493 0.01219 0.0
H541 H 0.25662 0.22074 0.98099 0.0
H542 H 0.26262 0.2949 0.93851 0.0
H543 H 0.22828 0.3326 0.95793 0.0
H544 H 0.9029 0.5898 0.47252 0.0
H545 H 0.91233 0.53658 0.48375 0.0
H546 H 0.00876 0.55415 0.47568 0.0
H547 H -0.00035 0.6071 0.46454 0.0
H548 H 0.94222 0.50053 0.4429 0.0
H549 H 0.0026 0.4996 0.5476 0.0
H550 H 0.97961 0.53073 0.5362 0.0
H551 H 0.01754 0.52723 0.52259 0.0
C552 C 0.92613 0.58249 0.47386 0.0
C553 C 0.95051 0.60259 0.46739 0.0
C554 C 0.93147 0.55211 0.48028 0.0
C555 C 0.96125 0.54154 0.48083 0.0
C556 C -0.01435 0.56195 0.47591 0.0
H557 H 0.05628 0.37586 0.46432 0.0
H558 H 0.04032 0.42742 0.47508 0.0
C559 C 0.98036 0.59217 0.46927 0.0
C560 C 0.96682 0.50867 0.48228 0.0
H561 H 0.00705 0.45537 0.51811 0.0
C562 C 0.95591 0.49048 0.45961 0.0
C563 C 0.98508 0.49585 0.5039 0.0
C564 C -0.00331 0.51428 0.52911 0.0
C565 C 0.9638 0.46005 0.45724 0.0
C566 C 0.98241 0.44722 0.47866 0.0
C567 C -0.00726 0.46523 0.50177 0.0
C568 C -0.00769 0.41549 0.47652 0.0
C569 C 0.95333 0.44243 0.43102 0.0
C570 C 0.97074 0.39156 0.475 0.0
C571 C 0.97973 0.36231 0.46843 0.0
C572 C 0.01054 0.35632 0.46388 0.0
C573 C 0.03237 0.37984 0.46763 0.0
C574 C 0.02329 0.40927 0.47379 0.0
H575 H 0.9461 0.45762 0.41337 0.0
H576 H 0.97163 0.42797 0.4228 0.0
H577 H 0.93358 0.42753 0.43685 0.0
H578 H 0.94681 0.39572 0.47781 0.0
H579 H 0.96243 0.34452 0.46617 0.0
H580 H 0.60971 0.04193 0.46038 0.0
H581 H 0.56483 0.0216 0.43454 0.0
H582 H 0.51187 0.02838 0.51211 0.0
H583 H 0.55657 0.04765 0.53804 0.0
H584 H 0.5369 0.96549 0.45724 0.0
H585 H 0.45347 0.0559 0.44658 0.0
H586 H 0.49406 0.06357 0.44801 0.0
H587 H 0.47276 0.05748 0.48063 0.0
C588 C 0.58821 0.03995 0.47158 0.0
C589 C 0.58646 0.04613 0.50119 0.0
C590 C 0.56268 0.02838 0.45681 0.0
C591 C 0.53504 0.02387 0.47135 0.0
C592 C 0.53287 0.03225 0.50037 0.0
H593 H 0.41347 0.92026 0.53637 0.0
H594 H 0.45804 0.94026 0.51084 0.0
C595 C 0.55841 0.04306 0.51523 0.0
C596 C 0.5099 0.00546 0.45875 0.0
H597 H 0.43264 0.00507 0.45797 0.0
C598 C 0.51413 0.97419 0.45604 0.0
C599 C 0.48035 0.01685 0.45674 0.0
C600 C 0.47489 0.05038 0.45784 0.0
C601 C 0.48918 0.95376 0.45578 0.0
C602 C 0.45963 0.96507 0.45822 0.0
C603 C 0.4554 -0.00358 0.45645 0.0
C604 C 0.43458 0.94623 0.47033 0.0
C605 C 0.49464 0.92021 0.45586 0.0
C606 C 0.40682 0.94229 0.45577 0.0
C607 C 0.38136 0.9303 0.4703 0.0
C608 C 0.38332 0.92311 0.4997 0.0
C609 C 0.41148 0.9256 0.5137 0.0
C610 C 0.43695 0.93684 0.49907 0.0
H611 H 0.51598 0.91509 0.44436 0.0
H612 H 0.49695 0.91233 0.47842 0.0
H613 H 0.4754 0.90736 0.44571 0.0
H614 H 0.40452 0.94985 0.43373 0.0
H615 H 0.35977 0.92879 0.45914 0.0
H616 H 0.54217 0.1092 0.02119 0.0
H617 H 0.52186 0.06436 0.04693 0.0
H618 H 0.53098 0.01104 0.96986 0.0
H619 H 0.55027 0.05566 0.94405 0.0
H620 H 0.46662 0.03591 0.02398 0.0
H621 H 0.55748 0.95317 0.03557 0.0
H622 H 0.56506 -0.00633 0.03392 0.0
H623 H 0.55938 0.97208 0.0014 0.0
C624 C 0.54075 0.08762 0.01012 0.0
C625 C 0.54761 0.08572 0.98066 0.0
C626 C 0.52918 0.06212 0.02482 0.0
C627 C 0.52531 0.03437 0.01038 0.0
C628 C 0.53437 0.0321 0.98156 0.0
H629 H 0.42198 0.91346 0.9438 0.0
H630 H 0.44157 0.95773 0.96996 0.0
C631 C 0.54519 0.0576 0.96676 0.0
C632 C 0.50684 0.00918 0.02274 0.0
H633 H 0.50679 0.9321 0.02317 0.0
C634 C 0.47544 0.01323 0.02515 0.0
C635 C 0.51835 0.97973 0.02477 0.0
C636 C 0.552 0.97442 0.02408 0.0
C637 C 0.45507 -0.01175 0.02509 0.0
C638 C 0.46655 0.95884 0.0226 0.0
C639 C 0.49798 0.95475 0.02469 0.0
C640 C 0.4479 0.93381 0.01013 0.0
C641 C 0.42142 -0.00643 0.02477 0.0
C642 C 0.4443 0.90585 0.02427 0.0
C643 C 0.43255 0.88054 0.00937 0.0
C644 C 0.42526 0.88287 0.98 0.0
C645 C 0.4274 0.91119 0.96643 0.0
C646 C 0.4384 0.93649 0.98143 0.0
H647 H 0.41609 0.01464 0.03658 0.0
H648 H 0.41373 -0.00374 0.00218 0.0
H649 H 0.40848 0.97417 0.03448 0.0
H650 H 0.45195 0.90331 0.04627 0.0
H651 H 0.43134 0.85881 0.02019 0.0
H652 H 0.09561 0.40748 0.00535 0.0
H653 H 0.04253 0.41788 0.99399 0.0
H654 H 0.06074 0.51343 0.00668 0.0
H655 H 0.11362 0.50337 0.01798 0.0
H656 H 0.00581 0.44637 0.03565 0.0
H657 H 0.00773 0.51071 0.9331 0.0
H658 H 0.03835 0.48686 0.94418 0.0
H659 H 0.03495 0.52404 0.95936 0.0
C660 C 0.08848 0.43076 0.00508 0.0
C661 C 0.10877 0.45457 0.0128 0.0
C662 C 0.05818 0.43665 -0.00144 0.0
C663 C 0.04784 0.46644 -0.0008 0.0
C664 C 0.06839 0.49035 0.00553 0.0
H665 H 0.87953 0.55866 0.01408 0.0
H666 H 0.9319 0.54428 0.00424 0.0
C667 C 0.09856 0.48449 0.01225 0.0
C668 C 0.01499 0.47228 -0.00272 0.0
H669 H 0.96233 0.51313 0.96114 0.0
C670 C -0.00385 0.46055 0.01911 0.0
C671 C 0.00268 0.49117 0.97591 0.0
C672 C 0.02189 0.50376 0.95164 0.0
C673 C 0.96551 0.46804 0.02079 0.0
C674 C 0.95313 0.48711 -0.00048 0.0
C675 C 0.97185 0.49844 0.97734 0.0
C676 C 0.92105 0.49628 0.00083 0.0
C677 C 0.94709 0.45655 0.04614 0.0
C678 C 0.89749 0.47423 0.00086 0.0
C679 C 0.86777 0.4823 0.00689 0.0
C680 C 0.86096 0.51268 0.01238 0.0
C681 C 0.88414 0.53508 0.01 0.0
C682 C 0.91404 0.52689 0.00439 0.0
H683 H 0.96182 0.44909 0.06408 0.0
H684 H 0.93198 0.47429 0.05435 0.0
H685 H 0.93273 0.43678 0.03931 0.0
H686 H 0.90229 0.45058 -0.00261 0.0
H687 H 0.85027 0.4646 0.0081 0.0
loop_
_geom_bond_atom_site_label_1
_geom_bond_atom_site_label_2
_geom_bond_distance
_geom_bond_site_symmetry_2
_ccdc_geom_bond_type
C0 O1 1.306 . S
C0 O3 1.160 . S
O1 C0 1.306 . S
O1 Cd2 2.228 . S
Cd2 O1 2.228 . S
Cd2 O6 2.273 . S
Cd2 O10 2.277 . S
O3 C0 1.160 . S
O3 Cd4 2.203 . S
Cd4 O3 2.203 . S
Cd4 O6 2.411 . S
Cd4 O7 2.333 . S
Cd4 O8 2.352 . S
Cd4 O12 2.277 . S
Cd4 O13 2.356 . S
C5 O10 1.209 . S
C5 O12 1.226 . S
O6 Cd2 2.273 . S
O6 Cd4 2.411 . S
O6 C9 1.320 . S
O7 Cd4 2.333 . S
O7 C9 1.214 . S
O8 Cd4 2.352 . S
O8 C11 1.258 . S
C9 O6 1.320 . S
C9 O7 1.214 . S
O10 Cd2 2.277 . S
O10 C5 1.209 . S
C11 O8 1.258 . S
C11 O13 1.282 . S
O12 Cd4 2.277 . S
O12 C5 1.226 . S
O13 Cd4 2.356 . S
O13 C11 1.282 . S
C14 O15 1.306 . S
C14 O17 1.160 . S
O15 C14 1.306 . S
O15 Cd16 2.228 . S
Cd16 O15 2.228 . S
Cd16 O20 2.273 . S
Cd16 O24 2.277 . S
O17 C14 1.160 . S
O17 Cd18 2.203 . S
Cd18 O17 2.203 . S
Cd18 O20 2.411 . S
Cd18 O21 2.333 . S
Cd18 O22 2.352 . S
Cd18 O26 2.277 . S
Cd18 O27 2.356 . S
C19 O24 1.209 . S
C19 O26 1.226 . S
O20 Cd16 2.273 . S
O20 Cd18 2.411 . S
O20 C23 1.320 . S
O21 Cd18 2.333 . S
O21 C23 1.214 . S
O22 Cd18 2.352 . S
O22 C25 1.258 . S
C23 O20 1.320 . S
C23 O21 1.214 . S
O24 Cd16 2.277 . S
O24 C19 1.209 . S
C25 O22 1.258 . S
C25 O27 1.282 . S
O26 Cd18 2.277 . S
O26 C19 1.226 . S
O27 Cd18 2.356 . S
O27 C25 1.282 . S
C28 O29 1.306 . S
C28 O31 1.160 . S
O29 C28 1.306 . S
O29 Cd30 2.228 . S
Cd30 O29 2.228 . S
Cd30 O34 2.273 . S
Cd30 O38 2.277 . S
O31 C28 1.160 . S
O31 Cd32 2.203 . S
Cd32 O31 2.203 . S
Cd32 O34 2.411 . S
Cd32 O35 2.333 . S
Cd32 O36 2.352 . S
Cd32 O40 2.277 . S
Cd32 O41 2.356 . S
C33 O38 1.209 . S
C33 O40 1.226 . S
O34 Cd30 2.273 . S
O34 Cd32 2.411 . S
O34 C37 1.320 . S
O35 Cd32 2.333 . S
O35 C37 1.214 . S
O36 Cd32 2.352 . S
O36 C39 1.258 . S
C37 O34 1.320 . S
C37 O35 1.214 . S
O38 Cd30 2.277 . S
O38 C33 1.209 . S
C39 O36 1.258 . S
C39 O41 1.282 . S
O40 Cd32 2.277 . S
O40 C33 1.226 . S
O41 Cd32 2.356 . S
O41 C39 1.282 . S
C42 O43 1.306 . S
C42 O45 1.160 . S
O43 C42 1.306 . S
O43 Cd44 2.228 . S
Cd44 O43 2.228 . S
Cd44 O48 2.273 . S
Cd44 O52 2.277 . S
O45 C42 1.160 . S
O45 Cd46 2.203 . S
Cd46 O45 2.203 . S
Cd46 O48 2.411 . S
Cd46 O49 2.333 . S
Cd46 O50 2.352 . S
Cd46 O54 2.277 . S
Cd46 O55 2.356 . S
C47 O52 1.209 . S
C47 O54 1.226 . S
O48 Cd44 2.273 . S
O48 Cd46 2.411 . S
O48 C51 1.320 . S
O49 Cd46 2.333 . S
O49 C51 1.214 . S
O50 Cd46 2.352 . S
O50 C53 1.258 . S
C51 O48 1.320 . S
C51 O49 1.214 . S
O52 Cd44 2.277 . S
O52 C47 1.209 . S
C53 O50 1.258 . S
C53 O55 1.282 . S
O54 Cd46 2.277 . S
O54 C47 1.226 . S
O55 Cd46 2.356 . S
O55 C53 1.282 . S
C56 O57 1.306 . S
C56 O59 1.160 . S
O57 C56 1.306 . S
O57 Cd58 2.228 1_556 S
Cd58 O57 2.228 1_554 S
Cd58 O62 2.273 1_554 S
Cd58 O66 2.277 1_554 S
O59 C56 1.160 . S
O59 Cd60 2.203 . S
Cd60 O59 2.203 . S
Cd60 O62 2.411 . S
Cd60 O63 2.333 . S
Cd60 O64 2.352 . S
Cd60 O68 2.277 . S
Cd60 O69 2.356 . S
C61 O66 1.209 . S
C61 O68 1.226 . S
O62 Cd58 2.273 1_556 S
O62 Cd60 2.411 . S
O62 C65 1.320 . S
O63 Cd60 2.333 . S
O63 C65 1.214 . S
O64 Cd60 2.352 . S
O64 C67 1.258 . S
C65 O62 1.320 . S
C65 O63 1.214 . S
O66 Cd58 2.277 1_556 S
O66 C61 1.209 . S
C67 O64 1.258 . S
C67 O69 1.282 . S
O68 Cd60 2.277 . S
O68 C61 1.226 . S
O69 Cd60 2.356 . S
O69 C67 1.282 . S
C70 O71 1.306 . S
C70 O73 1.160 . S
O71 C70 1.306 . S
O71 Cd72 2.228 . S
Cd72 O71 2.228 . S
Cd72 O76 2.273 . S
Cd72 O80 2.277 . S
O73 C70 1.160 . S
O73 Cd74 2.203 . S
Cd74 O73 2.203 . S
Cd74 O76 2.411 . S
Cd74 O77 2.333 . S
Cd74 O78 2.352 . S
Cd74 O82 2.277 . S
Cd74 O83 2.356 . S
C75 O80 1.209 . S
C75 O82 1.226 . S
O76 Cd72 2.273 . S
O76 Cd74 2.411 . S
O76 C79 1.320 . S
O77 Cd74 2.333 . S
O77 C79 1.214 . S
O78 Cd74 2.352 . S
O78 C81 1.258 . S
C79 O76 1.320 . S
C79 O77 1.214 . S
O80 Cd72 2.277 . S
O80 C75 1.209 . S
C81 O78 1.258 . S
C81 O83 1.282 . S
O82 Cd74 2.277 . S
O82 C75 1.226 . S
O83 Cd74 2.356 . S
O83 C81 1.282 . S
C84 O85 1.306 . S
C84 O87 1.160 . S
O85 C84 1.306 . S
O85 Cd86 2.228 1_556 S
Cd86 O85 2.228 1_554 S
Cd86 O90 2.273 1_554 S
Cd86 O94 2.277 1_554 S
O87 C84 1.160 . S
O87 Cd88 2.203 . S
Cd88 O87 2.203 . S
Cd88 O90 2.411 . S
Cd88 O91 2.333 . S
Cd88 O92 2.352 . S
Cd88 O96 2.277 . S
Cd88 O97 2.356 . S
C89 O94 1.209 . S
C89 O96 1.226 . S
O90 Cd86 2.273 1_556 S
O90 Cd88 2.411 . S
O90 C93 1.320 . S
O91 Cd88 2.333 . S
O91 C93 1.214 . S
O92 Cd88 2.352 . S
O92 C95 1.258 . S
C93 O90 1.320 . S
C93 O91 1.214 . S
O94 Cd86 2.277 1_556 S
O94 C89 1.209 . S
C95 O92 1.258 . S
C95 O97 1.282 . S
O96 Cd88 2.277 . S
O96 C89 1.226 . S
O97 Cd88 2.356 . S
O97 C95 1.282 . S
C98 O99 1.306 . S
C98 O101 1.160 . S
O99 C98 1.306 . S
O99 Cd100 2.228 . S
Cd100 O99 2.228 . S
Cd100 O104 2.273 . S
Cd100 O108 2.277 . S
O101 C98 1.160 . S
O101 Cd102 2.203 . S
Cd102 O101 2.203 . S
Cd102 O104 2.411 . S
Cd102 O105 2.333 . S
Cd102 O106 2.352 . S
Cd102 O110 2.277 . S
Cd102 O111 2.356 . S
C103 O108 1.209 . S
C103 O110 1.226 . S
O104 Cd100 2.273 . S
O104 Cd102 2.411 . S
O104 C107 1.320 . S
O105 Cd102 2.333 . S
O105 C107 1.214 . S
O106 Cd102 2.352 . S
O106 C109 1.258 . S
C107 O104 1.320 . S
C107 O105 1.214 . S
O108 Cd100 2.277 . S
O108 C103 1.209 . S
C109 O106 1.258 . S
C109 O111 1.282 . S
O110 Cd102 2.277 . S
O110 C103 1.226 . S
O111 Cd102 2.356 . S
O111 C109 1.282 . S
H112 C120 0.929 . S
H113 C122 0.930 . S
H114 C124 0.930 . S
H115 C127 0.929 . S
H116 C130 0.930 . S
H117 C132 0.960 . S
H118 C132 0.960 . S
H119 C132 0.960 . S
C120 H112 0.929 . S
C120 C121 1.377 . S
C120 C122 1.384 . S
C121 C120 1.377 . S
C121 C127 1.390 . S
C122 H113 0.930 . S
C122 C120 1.384 . S
C122 C123 1.372 . S
C123 C122 1.372 . S
C123 C124 1.400 . S
C123 C128 1.490 . S
C124 H114 0.930 . S
C124 C123 1.400 . S
C124 C127 1.386 . S
H125 C141 0.930 . S
H126 C142 0.931 . S
C127 H115 0.929 . S
C127 C121 1.390 . S
C127 C124 1.386 . S
C128 C123 1.490 . S
C128 C130 1.395 . S
C128 C131 1.403 . S
H129 C135 0.930 . S
C130 H116 0.930 . S
C130 C128 1.395 . S
C130 C133 1.403 . S
C131 C128 1.403 . S
C131 C132 1.524 . S
C131 C135 1.400 . S
C132 H117 0.960 . S
C132 H118 0.960 . S
C132 H119 0.960 . S
C132 C131 1.524 . S
C133 C130 1.403 . S
C133 C134 1.392 . S
C133 C137 1.495 . S
C134 C133 1.392 . S
C134 C135 1.385 . S
C134 C136 1.478 . S
C135 H129 0.930 . S
C135 C131 1.400 . S
C135 C134 1.385 . S
C136 C134 1.478 . S
C136 C138 1.381 . S
C136 C142 1.383 . S
C137 C133 1.495 . S
C137 H143 0.959 . S
C137 H144 0.961 . S
C137 H145 0.960 . S
C138 C136 1.381 . S
C138 C139 1.394 . S
C138 H146 0.930 . S
C139 C138 1.394 . S
C139 C140 1.383 . S
C139 H147 0.929 . S
C140 C139 1.383 . S
C140 C141 1.377 . S
C141 H125 0.930 . S
C141 C140 1.377 . S
C141 C142 1.379 . S
C142 H126 0.931 . S
C142 C136 1.383 . S
C142 C141 1.379 . S
H143 C137 0.959 . S
H144 C137 0.961 . S
H145 C137 0.960 . S
H146 C138 0.930 . S
H147 C139 0.929 . S
H148 C156 0.929 . S
H149 C158 0.930 . S
H150 C160 0.930 . S
H151 C163 0.929 . S
H152 C166 0.930 . S
H153 C168 0.960 . S
H154 C168 0.960 . S
H155 C168 0.960 . S
C156 H148 0.929 . S
C156 C157 1.377 . S
C156 C158 1.384 . S
C157 C156 1.377 . S
C157 C163 1.390 . S
C158 H149 0.930 . S
C158 C156 1.384 . S
C158 C159 1.372 . S
C159 C158 1.372 . S
C159 C160 1.400 . S
C159 C164 1.490 . S
C160 H150 0.930 . S
C160 C159 1.400 . S
C160 C163 1.386 . S
H161 C177 0.930 . S
H162 C178 0.931 . S
C163 H151 0.929 . S
C163 C157 1.390 . S
C163 C160 1.386 . S
C164 C159 1.490 . S
C164 C166 1.395 . S
C164 C167 1.403 . S
H165 C171 0.930 . S
C166 H152 0.930 . S
C166 C164 1.395 . S
C166 C169 1.403 . S
C167 C164 1.403 . S
C167 C168 1.524 . S
C167 C171 1.400 . S
C168 H153 0.960 . S
C168 H154 0.960 . S
C168 H155 0.960 . S
C168 C167 1.524 . S
C169 C166 1.403 . S
C169 C170 1.392 . S
C169 C173 1.495 . S
C170 C169 1.392 . S
C170 C171 1.385 . S
C170 C172 1.478 . S
C171 H165 0.930 . S
C171 C167 1.400 . S
C171 C170 1.385 . S
C172 C170 1.478 . S
C172 C174 1.381 . S
C172 C178 1.383 . S
C173 C169 1.495 . S
C173 H179 0.959 . S
C173 H180 0.961 . S
C173 H181 0.960 . S
C174 C172 1.381 . S
C174 C175 1.394 . S
C174 H182 0.930 . S
C175 C174 1.394 . S
C175 C176 1.383 . S
C175 H183 0.929 . S
C176 C175 1.383 . S
C176 C177 1.377 . S
C177 H161 0.930 . S
C177 C176 1.377 . S
C177 C178 1.379 . S
C178 H162 0.931 . S
C178 C172 1.383 . S
C178 C177 1.379 . S
H179 C173 0.959 . S
H180 C173 0.961 . S
H181 C173 0.960 . S
H182 C174 0.930 . S
H183 C175 0.929 . S
H184 C192 0.929 . S
H185 C194 0.930 . S
H186 C196 0.930 . S
H187 C199 0.929 . S
H188 C202 0.930 . S
H189 C204 0.960 . S
H190 C204 0.960 . S
H191 C204 0.960 . S
C192 H184 0.929 . S
C192 C193 1.377 . S
C192 C194 1.384 . S
C193 C192 1.377 . S
C193 C199 1.390 . S
C194 H185 0.930 . S
C194 C192 1.384 . S
C194 C195 1.372 . S
C195 C194 1.372 . S
C195 C196 1.400 . S
C195 C200 1.490 . S
C196 H186 0.930 . S
C196 C195 1.400 . S
C196 C199 1.386 . S
H197 C213 0.930 . S
H198 C214 0.931 . S
C199 H187 0.929 . S
C199 C193 1.390 . S
C199 C196 1.386 . S
C200 C195 1.490 . S
C200 C202 1.395 . S
C200 C203 1.403 . S
H201 C207 0.930 . S
C202 H188 0.930 . S
C202 C200 1.395 . S
C202 C205 1.403 . S
C203 C200 1.403 . S
C203 C204 1.524 . S
C203 C207 1.400 . S
C204 H189 0.960 . S
C204 H190 0.960 . S
C204 H191 0.960 . S
C204 C203 1.524 . S
C205 C202 1.403 . S
C205 C206 1.392 . S
C205 C209 1.495 . S
C206 C205 1.392 . S
C206 C207 1.385 . S
C206 C208 1.478 . S
C207 H201 0.930 . S
C207 C203 1.400 . S
C207 C206 1.385 . S
C208 C206 1.478 . S
C208 C210 1.381 . S
C208 C214 1.383 . S
C209 C205 1.495 . S
C209 H215 0.959 . S
C209 H216 0.961 . S
C209 H217 0.960 . S
C210 C208 1.381 . S
C210 C211 1.394 . S
C210 H218 0.930 . S
C211 C210 1.394 . S
C211 C212 1.383 . S
C211 H219 0.929 . S
C212 C211 1.383 . S
C212 C213 1.377 . S
C213 H197 0.930 . S
C213 C212 1.377 . S
C213 C214 1.379 . S
C214 H198 0.931 . S
C214 C208 1.383 . S
C214 C213 1.379 . S
H215 C209 0.959 . S
H216 C209 0.961 . S
H217 C209 0.960 . S
H218 C210 0.930 . S
H219 C211 0.929 . S
H220 C228 0.929 . S
H221 C230 0.930 . S
H222 C232 0.930 . S
H223 C235 0.929 . S
H224 C238 0.930 . S
H225 C240 0.960 . S
H226 C240 0.960 . S
H227 C240 0.960 . S
C228 H220 0.929 . S
C228 C229 1.377 . S
C228 C230 1.384 . S
C229 C228 1.377 . S
C229 C235 1.390 . S
C230 H221 0.930 . S
C230 C228 1.384 . S
C230 C231 1.372 . S
C231 C230 1.372 . S
C231 C232 1.400 . S
C231 C236 1.490 . S
C232 H222 0.930 . S
C232 C231 1.400 . S
C232 C235 1.386 . S
H233 C249 0.930 . S
H234 C250 0.931 . S
C235 H223 0.929 . S
C235 C229 1.390 . S
C235 C232 1.386 . S
C236 C231 1.490 . S
C236 C238 1.395 . S
C236 C239 1.403 . S
H237 C243 0.930 . S
C238 H224 0.930 . S
C238 C236 1.395 . S
C238 C241 1.403 . S
C239 C236 1.403 . S
C239 C240 1.524 . S
C239 C243 1.400 . S
C240 H225 0.960 . S
C240 H226 0.960 . S
C240 H227 0.960 . S
C240 C239 1.524 . S
C241 C238 1.403 . S
C241 C242 1.392 . S
C241 C245 1.495 . S
C242 C241 1.392 . S
C242 C243 1.385 . S
C242 C244 1.478 . S
C243 H237 0.930 . S
C243 C239 1.400 . S
C243 C242 1.385 . S
C244 C242 1.478 . S
C244 C246 1.381 . S
C244 C250 1.383 . S
C245 C241 1.495 . S
C245 H251 0.959 . S
C245 H252 0.961 . S
C245 H253 0.960 . S
C246 C244 1.381 . S
C246 C247 1.394 . S
C246 H254 0.930 . S
C247 C246 1.394 . S
C247 C248 1.383 . S
C247 H255 0.929 . S
C248 C247 1.383 . S
C248 C249 1.377 . S
C249 H233 0.930 . S
C249 C248 1.377 . S
C249 C250 1.379 . S
C250 H234 0.931 . S
C250 C244 1.383 . S
C250 C249 1.379 . S
H251 C245 0.959 . S
H252 C245 0.961 . S
H253 C245 0.960 . S
H254 C246 0.930 . S
H255 C247 0.929 . S
H256 C264 0.929 1_565 S
H257 C266 0.930 . S
H258 C268 0.930 . S
H259 C271 0.929 . S
H260 C274 0.930 . S
H261 C276 0.960 . S
H262 C276 0.960 . S
H263 C276 0.960 . S
C264 H256 0.929 1_545 S
C264 C265 1.377 . S
C264 C266 1.384 . S
C265 C264 1.377 . S
C265 C271 1.390 . S
C266 H257 0.930 . S
C266 C264 1.384 . S
C266 C267 1.372 . S
C267 C266 1.372 . S
C267 C268 1.400 . S
C267 C272 1.490 . S
C268 H258 0.930 . S
C268 C267 1.400 . S
C268 C271 1.386 . S
H269 C285 0.930 . S
H270 C286 0.931 . S
C271 H259 0.929 . S
C271 C265 1.390 . S
C271 C268 1.386 . S
C272 C267 1.490 . S
C272 C274 1.395 . S
C272 C275 1.403 . S
H273 C279 0.930 . S
C274 H260 0.930 . S
C274 C272 1.395 . S
C274 C277 1.403 . S
C275 C272 1.403 . S
C275 C276 1.524 . S
C275 C279 1.400 . S
C276 H261 0.960 . S
C276 H262 0.960 . S
C276 H263 0.960 . S
C276 C275 1.524 . S
C277 C274 1.403 . S
C277 C278 1.392 . S
C277 C281 1.495 . S
C278 C277 1.392 . S
C278 C279 1.385 . S
C278 C280 1.478 . S
C279 H273 0.930 . S
C279 C275 1.400 . S
C279 C278 1.385 . S
C280 C278 1.478 . S
C280 C282 1.381 . S
C280 C286 1.383 . S
C281 C277 1.495 . S
C281 H287 0.959 . S
C281 H288 0.961 . S
C281 H289 0.960 . S
C282 C280 1.381 . S
C282 C283 1.394 . S
C282 H290 0.930 . S
C283 C282 1.394 . S
C283 C284 1.383 . S
C283 H291 0.929 . S
C284 C283 1.383 . S
C284 C285 1.377 . S
C285 H269 0.930 . S
C285 C284 1.377 . S
C285 C286 1.379 . S
C286 H270 0.931 . S
C286 C280 1.383 . S
C286 C285 1.379 . S
H287 C281 0.959 . S
H288 C281 0.961 . S
H289 C281 0.960 . S
H290 C282 0.930 . S
H291 C283 0.929 . S
H292 C300 0.929 . S
H293 C302 0.930 . S
H294 C304 0.930 . S
H295 C307 0.929 . S
H296 C310 0.930 . S
H297 C312 0.960 . S
H298 C312 0.960 . S
H299 C312 0.960 . S
C300 H292 0.929 . S
C300 C301 1.377 . S
C300 C302 1.384 . S
C301 C300 1.377 . S
C301 C307 1.390 . S
C302 H293 0.930 . S
C302 C300 1.384 . S
C302 C303 1.372 . S
C303 C302 1.372 . S
C303 C304 1.400 . S
C303 C308 1.490 . S
C304 H294 0.930 . S
C304 C303 1.400 . S
C304 C307 1.386 . S
H305 C321 0.930 1_655 S
H306 C322 0.931 . S
C307 H295 0.929 . S
C307 C301 1.390 . S
C307 C304 1.386 . S
C308 C303 1.490 . S
C308 C310 1.395 . S
C308 C311 1.403 . S
H309 C315 0.930 . S
C310 H296 0.930 . S
C310 C308 1.395 . S
C310 C313 1.403 . S
C311 C308 1.403 . S
C311 C312 1.524 . S
C311 C315 1.400 . S
C312 H297 0.960 . S
C312 H298 0.960 . S
C312 H299 0.960 . S
C312 C311 1.524 . S
C313 C310 1.403 . S
C313 C314 1.392 . S
C313 C317 1.495 . S
C314 C313 1.392 . S
C314 C315 1.385 . S
C314 C316 1.478 . S
C315 H309 0.930 . S
C315 C311 1.400 . S
C315 C314 1.385 . S
C316 C314 1.478 . S
C316 C318 1.381 . S
C316 C322 1.383 . S
C317 C313 1.495 . S
C317 H323 0.959 . S
C317 H324 0.961 . S
C317 H325 0.960 . S
C318 C316 1.381 . S
C318 C319 1.394 . S
C318 H326 0.930 . S
C319 C318 1.394 . S
C319 C320 1.383 . S
C319 H327 0.929 . S
C320 C319 1.383 . S
C320 C321 1.377 . S
C321 H305 0.930 1_455 S
C321 C320 1.377 . S
C321 C322 1.379 . S
C322 H306 0.931 . S
C322 C316 1.383 . S
C322 C321 1.379 . S
H323 C317 0.959 . S
H324 C317 0.961 . S
H325 C317 0.960 . S
H326 C318 0.930 . S
H327 C319 0.929 . S
H328 C336 0.929 . S
H329 C338 0.930 . S
H330 C340 0.930 . S
H331 C343 0.929 1_545 S
H332 C346 0.930 . S
H333 C348 0.960 . S
H334 C348 0.960 . S
H335 C348 0.960 . S
C336 H328 0.929 . S
C336 C337 1.377 . S
C336 C338 1.384 . S
C337 C336 1.377 . S
C337 C343 1.390 . S
C338 H329 0.930 . S
C338 C336 1.384 . S
C338 C339 1.372 . S
C339 C338 1.372 . S
C339 C340 1.400 . S
C339 C344 1.490 . S
C340 H330 0.930 . S
C340 C339 1.400 . S
C340 C343 1.386 . S
H341 C357 0.930 . S
H342 C358 0.931 . S
C343 H331 0.929 1_565 S
C343 C337 1.390 . S
C343 C340 1.386 . S
C344 C339 1.490 . S
C344 C346 1.395 . S
C344 C347 1.403 . S
H345 C351 0.930 . S
C346 H332 0.930 . S
C346 C344 1.395 . S
C346 C349 1.403 . S
C347 C344 1.403 . S
C347 C348 1.524 . S
C347 C351 1.400 . S
C348 H333 0.960 . S
C348 H334 0.960 . S
C348 H335 0.960 . S
C348 C347 1.524 . S
C349 C346 1.403 . S
C349 C350 1.392 . S
C349 C353 1.495 . S
C350 C349 1.392 . S
C350 C351 1.385 . S
C350 C352 1.478 . S
C351 H345 0.930 . S
C351 C347 1.400 . S
C351 C350 1.385 . S
C352 C350 1.478 . S
C352 C354 1.381 . S
C352 C358 1.383 . S
C353 C349 1.495 . S
C353 H359 0.959 . S
C353 H360 0.961 . S
C353 H361 0.960 . S
C354 C352 1.381 . S
C354 C355 1.394 . S
C354 H362 0.930 . S
C355 C354 1.394 . S
C355 C356 1.383 . S
C355 H363 0.929 . S
C356 C355 1.383 . S
C356 C357 1.377 . S
C357 H341 0.930 . S
C357 C356 1.377 . S
C357 C358 1.379 . S
C358 H342 0.931 . S
C358 C352 1.383 . S
C358 C357 1.379 . S
H359 C353 0.959 . S
H360 C353 0.961 . S
H361 C353 0.960 . S
H362 C354 0.930 . S
H363 C355 0.929 . S
H364 C372 0.929 . S
H365 C374 0.930 . S
H366 C376 0.930 . S
H367 C379 0.929 . S
H368 C382 0.930 . S
H369 C384 0.960 . S
H370 C384 0.960 . S
H371 C384 0.960 . S
C372 H364 0.929 . S
C372 C373 1.377 . S
C372 C374 1.384 . S
C373 C372 1.377 . S
C373 C379 1.390 . S
C374 H365 0.930 . S
C374 C372 1.384 . S
C374 C375 1.372 . S
C375 C374 1.372 . S
C375 C376 1.400 . S
C375 C380 1.490 . S
C376 H366 0.930 . S
C376 C375 1.400 . S
C376 C379 1.386 . S
H377 C393 0.930 1_455 S
H378 C394 0.931 . S
C379 H367 0.929 . S
C379 C373 1.390 . S
C379 C376 1.386 . S
C380 C375 1.490 . S
C380 C382 1.395 . S
C380 C383 1.403 . S
H381 C387 0.930 . S
C382 H368 0.930 . S
C382 C380 1.395 . S
C382 C385 1.403 . S
C383 C380 1.403 . S
C383 C384 1.524 . S
C383 C387 1.400 . S
C384 H369 0.960 . S
C384 H370 0.960 . S
C384 H371 0.960 . S
C384 C383 1.524 . S
C385 C382 1.403 . S
C385 C386 1.392 . S
C385 C389 1.495 . S
C386 C385 1.392 . S
C386 C387 1.385 . S
C386 C388 1.478 . S
C387 H381 0.930 . S
C387 C383 1.400 . S
C387 C386 1.385 . S
C388 C386 1.478 . S
C388 C390 1.381 . S
C388 C394 1.383 . S
C389 C385 1.495 . S
C389 H395 0.959 . S
C389 H396 0.961 . S
C389 H397 0.960 . S
C390 C388 1.381 . S
C390 C391 1.394 . S
C390 H398 0.930 . S
C391 C390 1.394 . S
C391 C392 1.383 . S
C391 H399 0.929 . S
C392 C391 1.383 . S
C392 C393 1.377 . S
C393 H377 0.930 1_655 S
C393 C392 1.377 . S
C393 C394 1.379 . S
C394 H378 0.931 . S
C394 C388 1.383 . S
C394 C393 1.379 . S
H395 C389 0.959 . S
H396 C389 0.961 . S
H397 C389 0.960 . S
H398 C390 0.930 . S
H399 C391 0.929 . S
H400 C408 0.929 . S
H401 C410 0.930 . S
H402 C412 0.930 . S
H403 C415 0.932 . S
H404 C418 0.930 . S
H405 C420 0.960 . S
H406 C420 0.960 . S
H407 C420 0.960 . S
C408 H400 0.929 . S
C408 C409 1.377 . S
C408 C410 1.384 . S
C409 C408 1.377 . S
C409 C415 1.386 1_554 S
C410 H401 0.930 . S
C410 C408 1.384 . S
C410 C411 1.372 . S
C411 C410 1.372 . S
C411 C412 1.400 1_554 S
C411 C416 1.490 . S
C412 H402 0.930 . S
C412 C411 1.400 1_556 S
C412 C415 1.386 . S
H413 C429 0.930 . S
H414 C430 0.931 . S
C415 H403 0.932 . S
C415 C409 1.386 1_556 S
C415 C412 1.386 . S
C416 C411 1.490 . S
C416 C418 1.395 . S
C416 C419 1.403 . S
H417 C423 0.930 . S
C418 H404 0.930 . S
C418 C416 1.395 . S
C418 C421 1.403 1_554 S
C419 C416 1.403 . S
C419 C420 1.524 . S
C419 C423 1.400 . S
C420 H405 0.960 . S
C420 H406 0.960 . S
C420 H407 0.960 . S
C420 C419 1.524 . S
C421 C418 1.403 1_556 S
C421 C422 1.392 . S
C421 C425 1.495 . S
C422 C421 1.392 . S
C422 C423 1.385 1_556 S
C422 C424 1.478 . S
C423 H417 0.930 . S
C423 C419 1.400 . S
C423 C422 1.385 1_554 S
C424 C422 1.478 . S
C424 C426 1.381 1_556 S
C424 C430 1.383 . S
C425 C421 1.495 . S
C425 H431 0.959 . S
C425 H432 0.961 . S
C425 H433 0.960 1_556 S
C426 C424 1.381 1_554 S
C426 C427 1.394 . S
C426 H434 0.930 . S
C427 C426 1.394 . S
C427 C428 1.383 1_554 S
C427 H435 0.929 . S
C428 C427 1.383 1_556 S
C428 C429 1.377 . S
C429 H413 0.930 . S
C429 C428 1.377 . S
C429 C430 1.379 . S
C430 H414 0.931 . S
C430 C424 1.383 . S
C430 C429 1.379 . S
H431 C425 0.959 . S
H432 C425 0.961 . S
H433 C425 0.960 1_554 S
H434 C426 0.930 . S
H435 C427 0.929 . S
H436 C444 0.929 . S
H437 C446 0.930 . S
H438 C448 0.930 . S
H439 C451 0.929 . S
H440 C454 0.930 . S
H441 C456 0.960 . S
H442 C456 0.960 . S
H443 C456 0.960 . S
C444 H436 0.929 . S
C444 C445 1.377 1_556 S
C444 C446 1.384 . S
C445 C444 1.377 1_554 S
C445 C451 1.390 . S
C446 H437 0.930 . S
C446 C444 1.384 . S
C446 C447 1.372 1_556 S
C447 C446 1.372 1_554 S
C447 C448 1.400 . S
C447 C452 1.490 1_554 S
C448 H438 0.930 . S
C448 C447 1.400 . S
C448 C451 1.386 . S
H449 C465 0.930 1_554 S
H450 C466 0.923 1_554 S
C451 H439 0.929 . S
C451 C445 1.390 . S
C451 C448 1.386 . S
C452 C447 1.490 1_556 S
C452 C454 1.395 . S
C452 C455 1.403 1_556 S
H453 C459 0.930 . S
C454 H440 0.930 . S
C454 C452 1.395 . S
C454 C457 1.403 . S
C455 C452 1.403 1_554 S
C455 C456 1.524 . S
C455 C459 1.400 . S
C456 H441 0.960 . S
C456 H442 0.960 . S
C456 H443 0.960 . S
C456 C455 1.524 . S
C457 C454 1.403 . S
C457 C458 1.392 . S
C457 C461 1.495 . S
C458 C457 1.392 . S
C458 C459 1.385 1_556 S
C458 C460 1.478 . S
C459 H453 0.930 . S
C459 C455 1.400 . S
C459 C458 1.385 1_554 S
C460 C458 1.478 . S
C460 C462 1.381 . S
C460 C466 1.390 . S
C461 C457 1.495 . S
C461 H467 0.959 . S
C461 H468 0.961 . S
C461 H469 0.960 . S
C462 C460 1.381 . S
C462 C463 1.394 . S
C462 H470 0.930 . S
C463 C462 1.394 . S
C463 C464 1.383 . S
C463 H471 0.929 . S
C464 C463 1.383 . S
C464 C465 1.377 . S
C465 H449 0.930 1_556 S
C465 C464 1.377 . S
C465 C466 1.381 . S
C466 H450 0.923 1_556 S
C466 C460 1.390 . S
C466 C465 1.381 . S
H467 C461 0.959 . S
H468 C461 0.961 . S
H469 C461 0.960 . S
H470 C462 0.930 . S
H471 C463 0.929 . S
H472 C480 0.929 . S
H473 C482 0.930 . S
H474 C484 0.930 . S
H475 C487 0.929 1_556 S
H476 C490 0.935 . S
H477 C492 0.960 . S
H478 C492 0.960 . S
H479 C492 0.960 . S
C480 H472 0.929 . S
C480 C481 1.377 . S
C480 C482 1.384 . S
C481 C480 1.377 . S
C481 C487 1.390 . S
C482 H473 0.930 . S
C482 C480 1.384 . S
C482 C483 1.372 . S
C483 C482 1.372 . S
C483 C484 1.400 1_554 S
C483 C488 1.490 . S
C484 H474 0.930 . S
C484 C483 1.400 1_556 S
C484 C487 1.386 1_556 S
H485 C501 0.930 . S
H486 C502 0.931 . S
C487 H475 0.929 1_554 S
C487 C481 1.390 . S
C487 C484 1.386 1_554 S
C488 C483 1.490 . S
C488 C490 1.383 1_554 S
C488 C491 1.403 . S
H489 C495 0.930 . S
C490 H476 0.935 . S
C490 C488 1.383 1_556 S
C490 C493 1.412 . S
C491 C488 1.403 . S
C491 C492 1.524 . S
C491 C495 1.400 . S
C492 H477 0.960 . S
C492 H478 0.960 . S
C492 H479 0.960 . S
C492 C491 1.524 . S
C493 C490 1.412 . S
C493 C494 1.392 . S
C493 C497 1.495 . S
C494 C493 1.392 . S
C494 C495 1.385 1_556 S
C494 C496 1.478 . S
C495 H489 0.930 . S
C495 C491 1.400 . S
C495 C494 1.385 1_554 S
C496 C494 1.478 . S
C496 C498 1.381 1_556 S
C496 C502 1.383 . S
C497 C493 1.495 . S
C497 H503 0.959 . S
C497 H504 0.961 . S
C497 H505 0.960 . S
C498 C496 1.381 1_554 S
C498 C499 1.394 . S
C498 H506 0.930 . S
C499 C498 1.394 . S
C499 C500 1.383 1_554 S
C499 H507 0.929 . S
C500 C499 1.383 1_556 S
C500 C501 1.377 . S
C501 H485 0.930 . S
C501 C500 1.377 . S
C501 C502 1.379 . S
C502 H486 0.931 . S
C502 C496 1.383 . S
C502 C501 1.379 . S
H503 C497 0.959 . S
H504 C497 0.961 . S
H505 C497 0.960 . S
H506 C498 0.930 . S
H507 C499 0.929 . S
H508 C516 0.929 . S
H509 C518 0.930 . S
H510 C520 0.930 . S
H511 C523 0.929 . S
H512 C526 0.930 . S
H513 C528 0.960 1_554 S
H514 C528 0.960 . S
H515 C528 0.960 1_554 S
C516 H508 0.929 . S
C516 C517 1.377 . S
C516 C518 1.384 . S
C517 C516 1.377 . S
C517 C523 1.390 1_556 S
C518 H509 0.930 . S
C518 C516 1.384 . S
C518 C519 1.372 . S
C519 C518 1.372 . S
C519 C520 1.400 1_556 S
C519 C524 1.490 . S
C520 H510 0.930 . S
C520 C519 1.400 1_554 S
C520 C523 1.386 . S
H521 C537 0.930 . S
H522 C538 0.931 . S
C523 H511 0.929 . S
C523 C517 1.390 1_554 S
C523 C520 1.386 . S
C524 C519 1.490 . S
C524 C526 1.395 . S
C524 C527 1.403 . S
H525 C531 0.933 . S
C526 H512 0.930 . S
C526 C524 1.395 . S
C526 C529 1.403 . S
C527 C524 1.403 . S
C527 C528 1.524 . S
C527 C531 1.398 1_556 S
C528 H513 0.960 1_556 S
C528 H514 0.960 . S
C528 H515 0.960 1_556 S
C528 C527 1.524 . S
C529 C526 1.403 . S
C529 C530 1.392 . S
C529 C533 1.495 . S
C530 C529 1.392 . S
C530 C531 1.384 1_556 S
C530 C532 1.478 1_556 S
C531 H525 0.933 . S
C531 C527 1.398 1_554 S
C531 C530 1.384 1_554 S
C532 C530 1.478 1_554 S
C532 C534 1.381 1_554 S
C532 C538 1.383 . S
C533 C529 1.495 . S
C533 H539 0.959 . S
C533 H540 0.961 1_556 S
C533 H541 0.960 . S
C534 C532 1.381 1_556 S
C534 C535 1.394 . S
C534 H542 0.930 . S
C535 C534 1.394 . S
C535 C536 1.383 1_556 S
C535 H543 0.929 . S
C536 C535 1.383 1_554 S
C536 C537 1.377 . S
C537 H521 0.930 . S
C537 C536 1.377 . S
C537 C538 1.379 . S
C538 H522 0.931 . S
C538 C532 1.383 . S
C538 C537 1.379 . S
H539 C533 0.959 . S
H540 C533 0.961 1_554 S
H541 C533 0.960 . S
H542 C534 0.930 . S
H543 C535 0.929 . S
H544 C552 0.929 . S
H545 C554 0.930 . S
H546 C556 0.930 1_455 S
H547 C559 0.929 . S
H548 C562 0.930 . S
H549 C564 0.960 . S
H550 C564 0.960 . S
H551 C564 0.960 . S
C552 H544 0.929 . S
C552 C553 1.377 . S
C552 C554 1.384 . S
C553 C552 1.377 . S
C553 C559 1.390 . S
C554 H545 0.930 . S
C554 C552 1.384 . S
C554 C555 1.372 . S
C555 C554 1.372 . S
C555 C556 1.400 . S
C555 C560 1.490 . S
C556 H546 0.930 1_655 S
C556 C555 1.400 . S
C556 C559 1.386 . S
H557 C573 0.930 . S
H558 C574 0.931 . S
C559 H547 0.929 . S
C559 C553 1.390 . S
C559 C556 1.386 . S
C560 C555 1.490 . S
C560 C562 1.395 . S
C560 C563 1.403 1_655 S
H561 C567 0.930 . S
C562 H548 0.930 . S
C562 C560 1.395 . S
C562 C565 1.403 . S
C563 C560 1.403 1_455 S
C563 C564 1.524 . S
C563 C567 1.400 . S
C564 H549 0.960 . S
C564 H550 0.960 . S
C564 H551 0.960 . S
C564 C563 1.524 . S
C565 C562 1.403 . S
C565 C566 1.392 1_655 S
C565 C569 1.495 . S
C566 C565 1.392 1_455 S
C566 C567 1.385 . S
C566 C568 1.478 . S
C567 H561 0.930 . S
C567 C563 1.400 . S
C567 C566 1.385 . S
C568 C566 1.478 . S
C568 C570 1.381 . S
C568 C574 1.383 . S
C569 C565 1.495 . S
C569 H575 0.959 . S
C569 H576 0.961 . S
C569 H577 0.960 . S
C570 C568 1.381 . S
C570 C571 1.394 . S
C570 H578 0.930 1_455 S
C571 C570 1.394 . S
C571 C572 1.383 . S
C571 H579 0.929 . S
C572 C571 1.383 . S
C572 C573 1.377 . S
C573 H557 0.930 . S
C573 C572 1.377 . S
C573 C574 1.379 . S
C574 H558 0.931 . S
C574 C568 1.383 . S
C574 C573 1.379 . S
H575 C569 0.959 . S
H576 C569 0.961 . S
H577 C569 0.960 . S
H578 C570 0.930 1_655 S
H579 C571 0.929 . S
H580 C588 0.929 . S
H581 C590 0.930 . S
H582 C592 0.930 . S
H583 C595 0.929 . S
H584 C598 0.930 . S
H585 C600 0.960 . S
H586 C600 0.960 . S
H587 C600 0.960 . S
C588 H580 0.929 . S
C588 C589 1.377 . S
C588 C590 1.384 . S
C589 C588 1.377 . S
C589 C595 1.390 . S
C590 H581 0.930 . S
C590 C588 1.384 . S
C590 C591 1.372 . S
C591 C590 1.372 . S
C591 C592 1.400 . S
C591 C596 1.490 . S
C592 H582 0.930 . S
C592 C591 1.400 . S
C592 C595 1.386 . S
H593 C609 0.930 . S
H594 C610 0.931 . S
C595 H583 0.929 . S
C595 C589 1.390 . S
C595 C592 1.386 . S
C596 C591 1.490 . S
C596 C598 1.395 1_545 S
C596 C599 1.403 . S
H597 C603 0.930 . S
C598 H584 0.930 . S
C598 C596 1.395 1_565 S
C598 C601 1.403 . S
C599 C596 1.403 . S
C599 C600 1.524 . S
C599 C603 1.400 . S
C600 H585 0.960 . S
C600 H586 0.960 . S
C600 H587 0.960 . S
C600 C599 1.524 . S
C601 C598 1.403 . S
C601 C602 1.392 . S
C601 C605 1.495 . S
C602 C601 1.392 . S
C602 C603 1.385 1_565 S
C602 C604 1.478 . S
C603 H597 0.930 . S
C603 C599 1.400 . S
C603 C602 1.385 1_545 S
C604 C602 1.478 . S
C604 C606 1.381 . S
C604 C610 1.383 . S
C605 C601 1.495 . S
C605 H611 0.959 . S
C605 H612 0.961 . S
C605 H613 0.960 . S
C606 C604 1.381 . S
C606 C607 1.394 . S
C606 H614 0.930 . S
C607 C606 1.394 . S
C607 C608 1.383 . S
C607 H615 0.929 . S
C608 C607 1.383 . S
C608 C609 1.377 . S
C609 H593 0.930 . S
C609 C608 1.377 . S
C609 C610 1.379 . S
C610 H594 0.931 . S
C610 C604 1.383 . S
C610 C609 1.379 . S
H611 C605 0.959 . S
H612 C605 0.961 . S
H613 C605 0.960 . S
H614 C606 0.930 . S
H615 C607 0.929 . S
H616 C624 0.929 1_554 S
H617 C626 0.930 1_554 S
H618 C628 0.930 . S
H619 C631 0.929 . S
H620 C634 0.905 1_554 S
H621 C636 0.960 1_565 S
H622 C636 0.960 . S
H623 C636 0.960 . S
C624 H616 0.929 1_556 S
C624 C625 1.377 . S
C624 C626 1.384 . S
C625 C624 1.377 . S
C625 C631 1.390 . S
C626 H617 0.930 1_556 S
C626 C624 1.384 . S
C626 C627 1.372 . S
C627 C626 1.372 . S
C627 C628 1.400 . S
C627 C632 1.490 . S
C628 H618 0.930 . S
C628 C627 1.400 . S
C628 C631 1.386 . S
H629 C645 0.930 . S
H630 C646 0.931 . S
C631 H619 0.929 . S
C631 C625 1.390 . S
C631 C628 1.386 . S
C632 C627 1.490 . S
C632 C634 1.422 . S
C632 C635 1.403 . S
H633 C639 0.930 . S
C634 H620 0.905 1_556 S
C634 C632 1.422 . S
C634 C637 1.402 1_546 S
C635 C632 1.403 . S
C635 C636 1.524 . S
C635 C639 1.400 1_545 S
C636 H621 0.960 1_545 S
C636 H622 0.960 . S
C636 H623 0.960 . S
C636 C635 1.524 . S
C637 C634 1.402 1_564 S
C637 C638 1.392 1_554 S
C637 C641 1.495 . S
C638 C637 1.392 1_556 S
C638 C639 1.385 . S
C638 C640 1.478 . S
C639 H633 0.930 . S
C639 C635 1.400 1_565 S
C639 C638 1.385 . S
C640 C638 1.478 . S
C640 C642 1.381 . S
C640 C646 1.383 . S
C641 C637 1.495 . S
C641 H647 0.959 1_565 S
C641 H648 0.961 . S
C641 H649 0.960 . S
C642 C640 1.381 . S
C642 C643 1.394 . S
C642 H650 0.930 1_556 S
C643 C642 1.394 . S
C643 C644 1.383 . S
C643 H651 0.929 1_556 S
C644 C643 1.383 . S
C644 C645 1.377 . S
C645 H629 0.930 . S
C645 C644 1.377 . S
C645 C646 1.379 . S
C646 H630 0.931 . S
C646 C640 1.383 . S
C646 C645 1.379 . S
H647 C641 0.959 1_545 S
H648 C641 0.961 . S
H649 C641 0.960 . S
H650 C642 0.930 1_554 S
H651 C643 0.929 1_554 S
H652 C660 0.929 1_556 S
H653 C662 0.930 1_556 S
H654 C664 0.930 . S
H655 C667 0.929 . S
H656 C670 0.930 . S
H657 C672 0.960 . S
H658 C672 0.960 . S
H659 C672 0.960 1_554 S
C660 H652 0.929 1_554 S
C660 C661 1.377 . S
C660 C662 1.384 . S
C661 C660 1.377 . S
C661 C667 1.390 . S
C662 H653 0.930 1_554 S
C662 C660 1.384 . S
C662 C663 1.372 . S
C663 C662 1.372 . S
C663 C664 1.400 . S
C663 C668 1.490 . S
C664 H654 0.930 . S
C664 C663 1.400 . S
C664 C667 1.386 . S
H665 C681 0.930 . S
H666 C682 0.931 . S
C667 H655 0.929 . S
C667 C661 1.390 . S
C667 C664 1.386 . S
C668 C663 1.490 . S
C668 C670 1.395 . S
C668 C671 1.403 . S
H669 C675 0.930 . S
C670 H656 0.930 . S
C670 C668 1.395 . S
C670 C673 1.403 1_455 S
C671 C668 1.403 . S
C671 C672 1.524 1_554 S
C671 C675 1.400 1_455 S
C672 H657 0.960 . S
C672 H658 0.960 . S
C672 H659 0.960 1_556 S
C672 C671 1.524 1_556 S
C673 C670 1.403 1_655 S
C673 C674 1.392 . S
C673 C677 1.495 . S
C674 C673 1.392 . S
C674 C675 1.385 . S
C674 C676 1.478 . S
C675 H669 0.930 . S
C675 C671 1.400 1_655 S
C675 C674 1.385 . S
C676 C674 1.478 . S
C676 C678 1.381 . S
C676 C682 1.383 . S
C677 C673 1.495 . S
C677 H683 0.959 . S
C677 H684 0.961 . S
C677 H685 0.960 . S
C678 C676 1.381 . S
C678 C679 1.394 . S
C678 H686 0.930 1_554 S
C679 C678 1.394 . S
C679 C680 1.383 . S
C679 H687 0.929 1_554 S
C680 C679 1.383 . S
C680 C681 1.377 . S
C681 H665 0.930 . S
C681 C680 1.377 . S
C681 C682 1.379 . S
C682 H666 0.931 . S
C682 C676 1.383 . S
C682 C681 1.379 . S
H683 C677 0.959 . S
H684 C677 0.961 . S
H685 C677 0.960 . S
H686 C678 0.930 1_556 S
H687 C679 0.929 1_556 S
C121 C98 1.517 . S
C140 C0 1.520 . S
C157 C25 1.572 . S
C176 C67 1.558 . S
C193 C28 1.519 . S
C212 C70 1.504 . S
C229 C95 1.571 . S
C248 C53 1.564 . S
C265 C19 1.445 1_545 S
C284 C11 1.413 . S
C301 C14 1.364 . S
C320 C37 1.377 1_455 S
C337 C47 1.444 1_565 S
C356 C39 1.442 . S
C373 C42 1.359 . S
C392 C9 1.384 1_655 S
C409 C107 1.383 . S
C428 C56 1.337 . S
C445 C81 1.434 . S
C464 C61 1.437 . S
C481 C79 1.383 . S
C500 C84 1.338 . S
C517 C89 1.444 . S
C536 C109 1.443 . S
C553 C33 0.928 . S
C572 C5 0.887 . S
C589 C51 0.897 . S
C608 C23 0.930 . S
C625 C93 0.896 . S
C644 C65 0.932 . S
C661 C103 0.927 . S
C680 C75 0.889 . S
