# Generated by pormake.
# Topology uni, (4)-cn, num edge types: 1
# Building blocks:
#     Node 0, Type 0, BuildingBlock: KUFVIS_clean_sbu_0, # of connection points: 4
#     Node 1, Type 0, BuildingBlock: KUFVIS_clean_sbu_0, # of connection points: 4
#     Node 2, Type 0, BuildingBlock: KUFVIS_clean_sbu_0, # of connection points: 4
#     Node 3, Type 0, BuildingBlock: KUFVIS_clean_sbu_0, # of connection points: 4
#     Node 4, Type 0, BuildingBlock: KUFVIS_clean_sbu_0, # of connection points: 4
#     Node 5, Type 0, BuildingBlock: KUFVIS_clean_sbu_0, # of connection points: 4
#     Edge 6, Type (0, 0), BuildingBlock: MIFKUJ_clean_linker_0, # of connection points: 2
#     Edge 7, Type (0, 0), BuildingBlock: MIFKUJ_clean_linker_0, # of connection points: 2
#     Edge 8, Type (0, 0), BuildingBlock: MIFKUJ_clean_linker_0, # of connection points: 2
#     Edge 9, Type (0, 0), BuildingBlock: MIFKUJ_clean_linker_0, # of connection points: 2
#     Edge 10, Type (0, 0), BuildingBlock: MIFKUJ_clean_linker_0, # of connection points: 2
#     Edge 11, Type (0, 0), BuildingBlock: MIFKUJ_clean_linker_0, # of connection points: 2
#     Edge 12, Type (0, 0), BuildingBlock: MIFKUJ_clean_linker_0, # of connection points: 2
#     Edge 13, Type (0, 0), BuildingBlock: MIFKUJ_clean_linker_0, # of connection points: 2
#     Edge 14, Type (0, 0), BuildingBlock: MIFKUJ_clean_linker_0, # of connection points: 2
#     Edge 15, Type (0, 0), BuildingBlock: MIFKUJ_clean_linker_0, # of connection points: 2
#     Edge 16, Type (0, 0), BuildingBlock: MIFKUJ_clean_linker_0, # of connection points: 2
#     Edge 17, Type (0, 0), BuildingBlock: MIFKUJ_clean_linker_0, # of connection points: 2
# Relax obj value: 0.055
# Max RMSD: 0.074
# Mean RMSD: 0.074
data_MOF--net-uni--node1-KUFVIS_clean_sbu_0--edge1-MIFKUJ_clean_linker_0
_symmetry_space_group_name_H-M    P1
_symmetry_Int_Tables_number       1
_symmetry_cell_setting            triclinic
loop_
_symmetry_equiv_pos_as_xyz
'x, y, z'
_cell_length_a     49.70482
_cell_length_b     49.598961
_cell_length_c     29.950472
_cell_angle_alpha  89.893586
_cell_angle_beta   90.035126
_cell_angle_gamma 119.93029
loop_
_atom_site_label
_atom_site_type_symbol
_atom_site_fract_x
_atom_site_fract_y
_atom_site_fract_z
_atom_type_partial_charge
Mn0 Mn 0.65857 0.037 0.07044 0.0
Mn1 Mn 0.65527 0.10077 0.10155 0.0
C2 C 0.62163 0.03263 0.12167 0.0
C3 C 0.6773 1.00244 0.08023 0.0
C4 C 0.63055 0.06797 0.01284 0.0
O5 O 0.7005 0.07262 0.04972 0.0
O6 O 0.69696 0.11335 0.07606 0.0
C7 C 0.70078 0.12144 0.17554 0.0
N8 N 0.67176 0.11286 0.16043 0.0
C9 C 0.65595 0.12043 0.23309 0.0
C10 C 0.68579 0.12968 0.24931 0.0
C11 C 0.70826 0.13009 0.22043 0.0
C12 C 0.6499 0.11222 0.18799 0.0
H13 H 0.71804 0.12156 0.15355 0.0
C14 C 0.71182 0.10176 0.05646 0.0
O15 O 0.66633 1.00506 0.04211 0.0
O16 O 0.67879 0.02098 0.11183 0.0
N17 N 0.61651 0.09223 0.1272 0.0
C18 C 0.58832 0.08088 0.10704 0.0
C19 C 0.56306 0.07822 0.13166 0.0
C20 C 0.56706 0.08739 0.17662 0.0
C21 C 0.5963 0.09911 0.19661 0.0
C22 C 0.6207 0.10155 0.17028 0.0
H23 H 0.58505 0.07368 0.07256 0.0
O24 O 0.61763 0.00858 0.09923 0.0
O25 O 0.64719 0.05851 0.11369 0.0
O26 O 0.63695 0.04633 0.01926 0.0
O27 O 0.63691 0.08964 0.04106 0.0
C28 C 0.60202 0.10786 0.24186 0.0
C29 C 0.63181 0.11844 0.26012 0.0
H30 H 0.6916 0.1362 0.28397 0.0
H31 H 0.73126 0.13697 0.23279 0.0
H32 H 0.54054 0.06903 0.11604 0.0
H33 H 0.54748 0.08514 0.19556 0.0
H34 H 0.58355 0.10604 0.2631 0.0
H35 H 0.63581 0.12463 0.29513 0.0
Mn36 Mn 0.65352 0.65895 0.24048 0.0
Mn37 Mn 0.58604 0.6563 0.2661 0.0
C38 C 0.61869 0.62159 0.28968 0.0
C39 C 0.70617 0.67658 0.25373 0.0
C40 C 0.59677 0.63232 0.17869 0.0
O41 O 0.66139 0.70172 0.21985 0.0
O42 O 0.6163 0.69794 0.24204 0.0
C43 C 0.60853 0.70131 0.34081 0.0
N44 N 0.58863 0.67234 0.32487 0.0
C45 C 0.56222 0.65629 0.39552 0.0
C46 C 0.58233 0.686 0.41266 0.0
C47 C 0.60566 0.70856 0.38523 0.0
C48 C 0.56631 0.65037 0.35109 0.0
H49 H 0.62643 0.71872 0.31978 0.0
C50 C 0.64344 0.7131 0.22464 0.0
O51 O 0.69371 0.66624 0.21487 0.0
O52 O 0.68841 0.67808 0.28418 0.0
N53 N 0.55465 0.61742 0.29005 0.0
C54 C 0.53791 0.58956 0.26891 0.0
C55 C 0.51406 0.56428 0.29204 0.0
C56 C 0.50736 0.56802 0.3364 0.0
C57 C 0.52459 0.59704 0.3572 0.0
C58 C 0.54814 0.62136 0.33253 0.0
H59 H 0.5428 0.58659 0.23471 0.0
O60 O 0.63918 0.61735 0.26898 0.0
O61 O 0.61928 0.64758 0.28123 0.0
O62 O 0.62435 0.63827 0.18732 0.0
O63 O 0.58069 0.63858 0.20554 0.0
C64 C 0.51942 0.60276 0.40153 0.0
C65 C 0.5384 0.63226 0.42083 0.0
H66 H 0.58016 0.69171 0.44688 0.0
H67 H 0.62133 0.73151 0.39825 0.0
H68 H 0.50084 0.54197 0.2757 0.0
H69 H 0.48901 0.54845 0.35419 0.0
H70 H 0.50114 0.5845 0.42126 0.0
H71 H 0.53453 0.63618 0.45522 0.0
Mn72 Mn 0.03208 0.65988 0.39908 0.0
Mn73 Mn 0.96341 0.59438 0.41768 0.0
C74 C 0.03004 0.62135 0.44581 0.0
C75 C 0.06908 0.71137 0.41581 0.0
C76 C 1.00114 0.60534 0.33323 0.0
O77 O 1.00066 0.67225 0.37798 0.0
O78 O 0.95638 0.62773 0.39349 0.0
C79 C 0.94042 0.61779 0.49069 0.0
N80 N 0.94764 0.59644 0.47495 0.0
C81 C 0.92923 0.56615 0.54235 0.0
C82 C 0.9215 0.58777 0.55925 0.0
C83 C 0.92722 0.61376 0.53335 0.0
C84 C 0.94242 0.57148 0.49968 0.0
H85 H 0.94465 0.6377 0.4708 0.0
C86 C 0.97114 0.65575 0.37911 0.0
O87 O 0.06718 0.69985 0.37631 0.0
O88 O 0.04894 0.69331 0.44524 0.0
N89 N 0.96579 0.55983 0.4413 0.0
C90 C 0.97561 0.5418 0.42071 0.0
C91 C 0.97111 0.51457 0.44179 0.0
C92 C 0.95648 0.50613 0.48368 0.0
C93 C 0.94712 0.52534 0.5046 0.0
C94 C 0.95169 0.55188 0.48161 0.0
H95 H 0.98635 0.54789 0.38816 0.0
O96 O 0.0558 0.64153 0.42684 0.0
O97 O 1.00594 0.6244 0.43732 0.0
O98 O 0.02325 0.63228 0.34376 0.0
O99 O 0.97769 0.58939 0.35837 0.0
C100 C 0.93333 0.51915 0.54725 0.0
C101 C 0.9246 0.53967 0.56625 0.0
H102 H 0.91128 0.58472 0.59213 0.0
H103 H 0.92136 0.63057 0.54618 0.0
H104 H 0.97845 0.49988 0.42544 0.0
H105 H 0.95224 0.48469 0.49933 0.0
H106 H 0.92961 0.49883 0.56589 0.0
H107 H 0.91436 0.53487 0.59929 0.0
Mn108 Mn 0.41057 0.03317 0.57042 0.0
Mn109 Mn 0.4093 0.96593 0.5937 0.0
C110 C 0.44611 0.03296 0.62118 0.0
C111 C 0.39314 0.0685 0.58326 0.0
C112 C 0.43605 1.00261 0.50795 0.0
O113 O 0.3682 0.99987 0.54634 0.0
O114 O 0.36812 0.95696 0.57131 0.0
C115 C 0.36489 0.94412 0.66907 0.0
N116 N 0.39349 0.95232 0.65252 0.0
C117 C 0.40796 0.93714 0.72062 0.0
C118 C 0.37847 0.92801 0.73814 0.0
C119 C 0.35699 0.93191 0.71246 0.0
C120 C 0.41475 0.94982 0.67756 0.0
H121 H 0.34819 0.94669 0.64919 0.0
C122 C 0.35485 0.97047 0.55257 0.0
O123 O 0.40491 0.06724 0.54519 0.0
O124 O 0.39051 0.04849 0.61344 0.0
N125 N 0.44741 0.97048 0.61602 0.0
C126 C 0.47376 0.97768 0.59281 0.0
C127 C 0.4978 0.97543 0.61396 0.0
C128 C 0.49408 0.96475 0.65821 0.0
C129 C 0.46619 0.95606 0.68072 0.0
C130 C 0.44325 0.95929 0.65819 0.0
H131 H 0.47654 0.98521 0.55845 0.0
O132 O 0.45114 0.05857 0.60214 0.0
O133 O 0.42006 1.00834 0.61069 0.0
O134 O 0.4326 0.02563 0.51833 0.0
O135 O 0.42676 0.97856 0.53274 0.0
C136 C 0.45985 0.94327 0.72404 0.0
C137 C 0.43067 0.93357 0.74379 0.0
H138 H 0.37198 0.91788 0.77117 0.0
H139 H 0.33425 0.92509 0.72584 0.0
H140 H 0.519 0.9816 0.59604 0.0
H141 H 0.51253 0.96273 0.67426 0.0
H142 H 0.47707 0.94034 0.7422 0.0
H143 H 0.42592 0.92326 0.7768 0.0
Mn144 Mn 0.41018 0.40912 0.74193 0.0
Mn145 Mn 0.47793 0.4113 0.76429 0.0
C146 C 0.44644 0.44717 0.78937 0.0
C147 C 0.35793 0.39252 0.75701 0.0
C148 C 0.46617 0.43601 0.67832 0.0
O149 O 0.40096 0.36577 0.72191 0.0
O150 O 0.44704 0.37039 0.73958 0.0
C151 C 0.4552 0.36484 0.83746 0.0
N152 N 0.4758 0.39374 0.82189 0.0
C153 C 0.50491 0.40686 0.89038 0.0
C154 C 0.4841 0.37717 0.90711 0.0
C155 C 0.45905 0.35613 0.88059 0.0
C156 C 0.49975 0.41427 0.84728 0.0
H157 H 0.43602 0.34856 0.81708 0.0
C158 C 0.41935 0.35478 0.72443 0.0
O159 O 0.36976 0.40211 0.71761 0.0
O160 O 0.37605 0.39113 0.78703 0.0
N161 N 0.51046 0.44913 0.78874 0.0
C162 C 0.52763 0.47723 0.7683 0.0
C163 C 0.55395 0.50071 0.78991 0.0
C164 C 0.56237 0.49499 0.83216 0.0
C165 C 0.54396 0.46618 0.85297 0.0
C166 C 0.51838 0.44346 0.82944 0.0
H167 H 0.52162 0.48148 0.73541 0.0
O168 O 0.42562 0.45113 0.76904 0.0
O169 O 0.44543 0.42083 0.78174 0.0
O170 O 0.43831 0.42896 0.68731 0.0
O171 O 0.48292 0.4304 0.70481 0.0
C172 C 0.55009 0.45904 0.89602 0.0
C173 C 0.53041 0.42948 0.91488 0.0
H174 H 0.48704 0.37034 0.94032 0.0
H175 H 0.44283 0.33322 0.89332 0.0
H176 H 0.56803 0.52296 0.7737 0.0
H177 H 0.58326 0.51269 0.8481 0.0
H178 H 0.56968 0.47622 0.91509 0.0
H179 H 0.53508 0.4244 0.94824 0.0
Mn180 Mn 0.03335 0.4139 0.8991 0.0
Mn181 Mn 0.09842 0.48145 0.92301 0.0
C182 C 0.03113 0.44998 0.9461 0.0
C183 C 0.99837 0.36157 0.91479 0.0
C184 C 0.06436 0.46874 0.83434 0.0
O185 O 0.06816 0.4056 0.87991 0.0
O186 O 0.10978 0.44985 0.90454 0.0
C187 C 0.11842 0.46125 1.0034 0.0
N188 N 0.1106 0.48107 0.98345 0.0
C189 C 0.11956 0.51012 0.05146 0.0
C190 C 0.12821 0.49032 0.07252 0.0
C191 C 0.12746 0.46567 0.04844 0.0
C192 C 0.11075 0.50455 0.00651 0.0
H193 H 0.11754 0.4421 0.98513 0.0
C194 C 0.09732 0.42264 0.8871 0.0
O195 O 1.0005 0.373 0.87507 0.0
O196 O 0.01761 0.38008 0.94464 0.0
N197 N 0.09076 0.5139 0.94179 0.0
C198 C 0.07983 0.52964 0.91741 0.0
C199 C 0.07793 0.5543 0.93713 0.0
C200 C 0.08755 0.56272 0.98152 0.0
C201 C 0.099 0.54638 0.00579 0.0
C202 C 0.10041 0.52206 0.98435 0.0
H203 H 0.0725 0.5234 0.88323 0.0
O204 O 1.00631 0.42907 0.92607 0.0
O205 O 0.05627 0.44897 0.93819 0.0
O206 O 0.04183 0.44198 0.84463 0.0
O207 O 0.08725 0.48471 0.86044 0.0
C208 C 0.10874 0.55307 0.05056 0.0
C209 C 0.11885 0.53484 0.07348 0.0
H210 H 0.13511 0.4936 0.1073 0.0
H211 H 0.13377 0.45007 0.0646 0.0
H212 H 0.06906 0.56679 0.91816 0.0
H213 H 0.0859 0.58164 0.99671 0.0
H214 H 0.10805 0.57185 0.06791 0.0
H215 H 0.12565 0.53981 0.1082 0.0
H216 H 0.63926 0.05005 0.20725 0.0
H217 H 0.60597 0.04325 0.27146 0.0
H218 H 0.52497 0.99589 0.18737 0.0
H219 H 0.55857 1.00378 0.12277 0.0
H220 H 0.51879 0.03479 0.23893 0.0
H221 H 0.54658 0.9564 0.26298 0.0
H222 H 0.58232 0.93571 0.27085 0.0
H223 H 0.62535 0.99504 0.38386 0.0
H224 H 0.59011 0.01639 0.37629 0.0
H225 H 0.44091 0.95582 0.46704 0.0
H226 H 0.4698 0.95904 0.39945 0.0
H227 H 0.49904 0.05653 0.38698 0.0
H228 H 0.46944 0.0533 0.45377 0.0
H229 H 0.52838 0.98933 0.38157 0.0
H230 H 0.51241 0.07913 0.27772 0.0
H231 H 0.47377 0.09594 0.26682 0.0
H232 H 0.401 1.00603 0.30881 0.0
H233 H 0.43912 0.98854 0.31936 0.0
C234 C 0.61435 0.03858 0.20254 0.0
C235 C 0.6014 0.02846 0.16002 0.0
C236 C 0.59531 0.03428 0.23929 0.0
C237 C 0.56287 0.01894 0.2344 0.0
C238 C 0.54991 1.00801 0.19197 0.0
C239 C 0.56902 0.01242 0.15516 0.0
C240 C 0.54254 0.01461 0.2734 0.0
C241 C 0.52092 0.02488 0.27013 0.0
C242 C 0.54484 1.00116 0.31394 0.0
C243 C 0.56586 0.98815 0.31886 0.0
C244 C 0.56378 0.96516 0.28935 0.0
C245 C 0.58393 0.9533 0.29377 0.0
C246 C 0.60613 0.9641 0.32778 0.0
C247 C 0.60816 0.98672 0.35752 0.0
C248 C 0.58807 0.99867 0.35321 0.0
C249 C 0.45325 0.97792 0.44975 0.0
C250 C 0.45266 1.00425 0.46585 0.0
C251 C 0.46988 0.97975 0.41112 0.0
C252 C 0.48643 1.00795 0.38772 0.0
C253 C 0.48598 0.03433 0.40379 0.0
C254 C 0.46908 0.03245 0.44218 0.0
C255 C 0.50484 0.00989 0.34735 0.0
C256 C 0.52622 0.99927 0.3504 0.0
C257 C 0.50189 0.02251 0.30635 0.0
C258 C 0.47869 0.03267 0.29983 0.0
C259 C 0.48815 0.06293 0.28452 0.0
C260 C 0.46634 0.07257 0.2784 0.0
C261 C 0.43497 0.0521 0.28728 0.0
C262 C 0.42532 0.0219 0.30213 0.0
C263 C 0.44703 0.01213 0.30824 0.0
H264 H 0.41812 0.05962 0.28256 0.0
H265 H 0.62172 0.9549 0.33114 0.0
H266 H 0.61917 0.63957 0.37493 0.0
H267 H 0.59299 0.60659 0.43958 0.0
H268 H 0.5537 0.5255 0.35463 0.0
H269 H 0.58119 0.55861 0.29032 0.0
H270 H 0.53744 0.57264 0.46315 0.0
H271 H 0.54081 0.46151 0.41167 0.0
H272 H 0.57414 0.44722 0.36858 0.0
H273 H 0.65289 0.53768 0.39226 0.0
H274 H 0.62012 0.55236 0.43594 0.0
H275 H 0.43858 0.45018 0.60951 0.0
H276 H 0.4632 0.47969 0.54158 0.0
H277 H 0.55075 0.48969 0.58352 0.0
H278 H 0.52636 0.4598 0.65084 0.0
H279 H 0.54365 0.47816 0.49774 0.0
H280 H 0.534 0.54884 0.59666 0.0
H281 H 0.50687 0.56763 0.64547 0.0
H282 H 0.45023 0.56486 0.53527 0.0
H283 H 0.47668 0.54554 0.486 0.0
C284 C 0.60479 0.61469 0.37022 0.0
C285 C 0.60152 0.60156 0.32774 0.0
C286 C 0.58986 0.59583 0.40712 0.0
C287 C 0.57145 0.56341 0.40228 0.0
C288 C 0.5682 0.55032 0.35958 0.0
C289 C 0.58366 0.56919 0.32279 0.0
C290 C 0.55577 0.54352 0.44198 0.0
C291 C 0.53851 0.55179 0.4702 0.0
C292 C 0.55796 0.5168 0.45251 0.0
C293 C 0.57792 0.50811 0.42664 0.0
C294 C 0.56526 0.4783 0.40778 0.0
C295 C 0.58405 0.47014 0.38324 0.0
C296 C 0.61559 0.49157 0.37755 0.0
C297 C 0.62843 0.52116 0.39654 0.0
C298 C 0.60975 0.52942 0.42114 0.0
C299 C 0.46303 0.45848 0.6042 0.0
C300 C 0.48044 0.45264 0.63589 0.0
C301 C 0.47711 0.47547 0.56537 0.0
C302 C 0.50894 0.48724 0.55762 0.0
C303 C 0.52617 0.48083 0.58866 0.0
C304 C 0.51213 0.46376 0.6273 0.0
C305 C 0.52461 0.5069 0.51785 0.0
C306 C 0.54201 0.49866 0.48987 0.0
C307 C 0.5232 0.5341 0.5081 0.0
C308 C 0.5071 0.54546 0.53777 0.0
C309 C 0.51557 0.55198 0.58295 0.0
C310 C 0.50034 0.56276 0.61068 0.0
C311 C 0.47679 0.56736 0.59351 0.0
C312 C 0.46844 0.56124 0.54855 0.0
C313 C 0.48355 0.55038 0.5207 0.0
H314 H 0.46505 0.57573 0.61502 0.0
H315 H 0.63009 0.48521 0.35852 0.0
H316 H 0.10503 0.52715 0.80236 0.0
H317 H 0.10066 0.55147 0.73383 0.0
H318 H 0.01639 0.46718 0.69992 0.0
H319 H 0.02067 0.44247 0.76805 0.0
H320 H 0.05291 0.49237 0.62734 0.0
H321 H 0.0136 0.52757 0.74715 0.0
H322 H 0.01678 0.55158 0.82044 0.0
H323 H 0.09473 0.6371 0.77506 0.0
H324 H 0.09234 0.61341 0.7017 0.0
H325 H 1.00176 0.60885 0.52715 0.0
H326 H 1.00589 0.57839 0.58803 0.0
H327 H 0.07251 0.56633 0.51076 0.0
H328 H 0.0643 0.59249 0.44768 0.0
H329 H 0.04663 0.58876 0.63947 0.0
H330 H 0.09086 0.52189 0.54368 0.0
H331 H 0.08338 0.49225 0.47409 0.0
H332 H 0.98602 0.46201 0.47632 0.0
H333 H 0.99329 0.49198 0.54584 0.0
C334 C 0.08569 0.5136 0.78019 0.0
C335 C 0.06311 0.48282 0.79102 0.0
C336 C 0.08318 0.52764 0.74106 0.0
C337 C 0.05799 0.51129 0.71198 0.0
C338 C 0.03601 0.48027 0.72187 0.0
C339 C 0.03847 0.4662 0.76099 0.0
C340 C 0.05389 0.52674 0.67203 0.0
C341 C 0.05149 0.51345 0.62993 0.0
C342 C 0.05189 0.55413 0.67533 0.0
C343 C 0.05298 0.56863 0.71909 0.0
C344 C 0.03154 0.55144 0.75289 0.0
C345 C 0.03319 0.56499 0.79444 0.0
C346 C 0.05599 0.59582 0.80244 0.0
C347 C 0.07711 0.6132 0.76884 0.0
C348 C 0.07562 0.59973 0.72726 0.0
C349 C 0.0156 0.59782 0.52224 0.0
C350 C 0.03097 0.60119 0.48163 0.0
C351 C 0.01876 0.5811 0.55759 0.0
C352 C 0.039 0.56898 0.55429 0.0
C353 C 0.0554 0.57358 0.51406 0.0
C354 C 0.05109 0.58907 0.47801 0.0
C355 C 0.04456 0.55393 0.59409 0.0
C356 C 0.04775 0.56756 0.63645 0.0
C357 C 0.04676 0.52651 0.59117 0.0
C358 C 0.04264 0.50968 0.54886 0.0
C359 C 0.06795 0.50915 0.52894 0.0
C360 C 0.06378 0.49238 0.4896 0.0
C361 C 0.03429 0.47559 0.47048 0.0
C362 C 1.00892 0.47549 0.49075 0.0
C363 C 0.01307 0.49255 0.52982 0.0
H364 H 0.03104 0.46246 0.44018 0.0
H365 H 0.05726 0.60625 0.83464 0.0
H366 H 0.62387 0.0354 0.93563 0.0
H367 H 0.59404 0.0328 0.86895 0.0
H368 H 0.56886 0.09577 0.92988 0.0
H369 H 0.59905 0.09911 0.99615 0.0
H370 H 0.51806 0.03925 0.89473 0.0
H371 H 0.6176 0.12383 0.85153 0.0
H372 H 0.674 0.14939 0.83815 0.0
H373 H 0.65949 0.0801 0.74055 0.0
H374 H 0.603 0.05384 0.75384 0.0
H375 H 0.43203 0.04011 0.70543 0.0
H376 H 0.46409 0.05153 0.77147 0.0
H377 H 0.53042 0.0381 0.6951 0.0
H378 H 0.50195 0.03516 0.62752 0.0
H379 H 0.56232 0.0744 0.74365 0.0
H380 H 0.46534 0.98106 0.80471 0.0
H381 H 0.40975 0.952 0.82618 0.0
H382 H 0.41932 0.03299 0.8921 0.0
H383 H 0.47492 0.06208 0.87205 0.0
C384 C 0.61218 0.04888 0.93475 0.0
C385 C 0.6138 0.06737 0.97141 0.0
C386 C 0.59524 0.04744 0.89657 0.0
C387 C 0.5793 0.06413 0.89453 0.0
C388 C 0.58102 0.08274 0.93082 0.0
C389 C 0.59836 0.08463 0.96866 0.0
C390 C 0.55967 0.06108 0.85539 0.0
C391 C 0.52757 0.04685 0.86148 0.0
C392 C 0.57215 0.0708 0.81223 0.0
C393 C 0.60609 0.08671 0.804 0.0
C394 C 0.62645 0.11389 0.8275 0.0
C395 C 0.65843 0.12854 0.81988 0.0
C396 C 0.67033 0.11634 0.78861 0.0
C397 C 0.65025 0.08951 0.7648 0.0
C398 C 0.61824 0.07475 0.77234 0.0
C399 C 0.45341 0.03936 0.70321 0.0
C400 C 0.46362 0.03472 0.66187 0.0
C401 C 0.47161 0.04515 0.74157 0.0
C402 C 0.49945 0.04408 0.74036 0.0
C403 C 0.5093 0.03916 0.69838 0.0
C404 C 0.49244 0.03625 0.65947 0.0
C405 C 0.51943 0.04998 0.78132 0.0
C406 C 0.55205 0.06557 0.77611 0.0
C407 C 0.50732 0.04083 0.82536 0.0
C408 C 0.47383 0.02377 0.83585 0.0
C409 C 0.45529 0.99262 0.82309 0.0
C410 C 0.42393 0.97617 0.8352 0.0
C411 C 0.41091 0.99078 0.85971 0.0
C412 C 0.42934 0.02176 0.8728 0.0
C413 C 0.46079 0.03815 0.86135 0.0
H414 H 0.38663 0.97799 0.86892 0.0
H415 H 0.6951 0.12771 0.78275 0.0
H416 H 0.53824 0.61483 0.14832 0.0
H417 H 0.51347 0.58698 0.07973 0.0
H418 H 0.59675 0.58556 0.04381 0.0
H419 H 0.62199 0.61385 0.11206 0.0
H420 H 0.57207 0.59881 0.97232 0.0
H421 H 0.53524 0.52213 0.09017 0.0
H422 H 0.51071 0.50025 0.1629 0.0
H423 H 0.42658 0.49622 0.11868 0.0
H424 H 0.4508 0.51854 0.04589 0.0
H425 H 0.45847 0.43228 0.87148 0.0
H426 H 0.48753 0.46732 0.93238 0.0
H427 H 0.49673 0.54484 0.85445 0.0
H428 H 0.47211 0.51016 0.79121 0.0
H429 H 0.47485 0.49705 0.98272 0.0
H430 H 0.53596 0.60341 0.88293 0.0
H431 H 0.56616 0.62675 0.81404 0.0
H432 H 0.60932 0.5707 0.82739 0.0
H433 H 0.57903 0.54701 0.89637 0.0
C434 C 0.55145 0.6088 0.1258 0.0
C435 C 0.58215 0.61652 0.13599 0.0
C436 C 0.53716 0.59276 0.0866 0.0
C437 C 0.55312 0.58387 0.05685 0.0
C438 C 0.58398 0.59218 0.06629 0.0
C439 C 0.59834 0.60828 0.10547 0.0
C440 C 0.53745 0.56515 0.01651 0.0
C441 C 0.5508 0.57651 0.97455 0.0
C442 C 0.50968 0.53613 0.01929 0.0
C443 C 0.49493 0.52229 0.06277 0.0
C444 C 0.51158 0.51676 0.09607 0.0
C445 C 0.49772 0.50427 0.13729 0.0
C446 C 0.46713 0.49693 0.14545 0.0
C447 C 0.45029 0.50197 0.11234 0.0
C448 C 0.46406 0.51452 0.07109 0.0
C449 C 0.46857 0.45707 0.86647 0.0
C450 C 0.46502 0.46872 0.82559 0.0
C451 C 0.4845 0.47717 0.90178 0.0
C452 C 0.49557 0.50935 0.89818 0.0
C453 C 0.4905 0.52074 0.85783 0.0
C454 C 0.4758 0.50073 0.82177 0.0
C455 C 0.51002 0.52999 0.93792 0.0
C456 C 0.49616 0.51924 0.98009 0.0
C457 C 0.53754 0.55944 0.93543 0.0
C458 C 0.55447 0.57256 0.89333 0.0
C459 C 0.5516 0.59582 0.87068 0.0
C460 C 0.56871 0.60912 0.83177 0.0
C461 C 0.5893 0.59985 0.81596 0.0
C462 C 0.59295 0.57743 0.83922 0.0
C463 C 0.57562 0.56385 0.87789 0.0
H464 H 0.60266 0.61027 0.78596 0.0
H465 H 0.45645 0.48728 0.17739 0.0
H466 H 0.04753 0.44892 0.03171 0.0
H467 H 0.04129 0.47582 0.09576 0.0
H468 H 1.00263 0.51757 0.00912 0.0
H469 H 1.00752 0.48922 0.94538 0.0
H470 H 0.0642 0.5312 0.11965 0.0
H471 H 0.95313 0.53328 0.06458 0.0
H472 H 0.90569 0.50148 0.02039 0.0
H473 H 0.91322 0.4202 0.04519 0.0
H474 H 0.96044 0.45142 0.08997 0.0
H475 H 0.04431 0.63215 0.26602 0.0
H476 H 0.04875 0.60736 0.19806 0.0
H477 H 0.96776 0.52127 0.23664 0.0
H478 H 0.96268 0.54592 0.30388 0.0
H479 H 0.96541 0.52931 0.15115 0.0
H480 H 0.0423 0.53443 0.25264 0.0
H481 H 0.08746 0.55935 0.30307 0.0
H482 H 0.14469 0.61544 0.19473 0.0
H483 H 0.09972 0.59121 0.14382 0.0
C484 C 0.03779 0.46395 0.02649 0.0
C485 C 0.02856 0.46761 0.98372 0.0
C486 C 0.03422 0.47933 0.06306 0.0
C487 C 0.02126 0.49866 0.05761 0.0
C488 C 0.01211 0.50236 0.01457 0.0
C489 C 0.01511 0.48641 0.9781 0.0
C490 C 0.01741 0.51477 0.09704 0.0
C491 C 0.0427 0.53106 0.12602 0.0
C492 C 0.98903 0.51381 0.10673 0.0
C493 C 0.9605 0.49478 0.08018 0.0
C494 C 0.94459 0.5086 0.0607 0.0
C495 C 0.91776 0.49068 0.03554 0.0
C496 C 0.90652 0.45887 0.02985 0.0
C497 C 0.92202 0.44487 0.04946 0.0
C498 C 0.94884 0.46267 0.07469 0.0
C499 C 0.02731 0.60799 0.25995 0.0
C500 C 1.00321 0.59106 0.29068 0.0
C501 C 0.02995 0.59381 0.2211 0.0
C502 C 1.00881 0.5623 0.21242 0.0
C503 C 0.98434 0.5456 0.24248 0.0
C504 C 0.98154 0.55978 0.28109 0.0
C505 C 0.01252 0.54638 0.17276 0.0
C506 C 0.98714 0.52999 0.14397 0.0
C507 C 0.04056 0.5465 0.1639 0.0
C508 C 0.06757 0.56126 0.19454 0.0
C509 C 0.06445 0.55229 0.23967 0.0
C510 C 0.09002 0.56626 0.26833 0.0
C511 C 0.11891 0.58903 0.25215 0.0
C512 C 0.12229 0.59784 0.20724 0.0
C513 C 0.09677 0.584 0.17847 0.0
H514 H 0.13868 0.5998 0.27438 0.0
H515 H 0.88575 0.44504 0.01034 0.0
H516 H 0.69402 0.75186 0.1721 0.0
H517 H 0.70721 0.80328 0.14246 0.0
H518 H 0.62884 0.79816 0.21201 0.0
H519 H 0.61548 0.74734 0.24123 0.0
H520 H 0.62932 0.81481 0.12793 0.0
H521 H 0.70294 0.84448 0.24869 0.0
H522 H 0.74608 0.84531 0.29059 0.0
H523 H 0.80588 0.8843 0.1768 0.0
H524 H 0.76293 0.88331 0.13402 0.0
H525 H 0.69653 0.98925 0.15859 0.0
H526 H 0.69877 0.94241 0.17695 0.0
H527 H 0.67572 0.91103 0.0408 0.0
H528 H 0.67288 0.95766 0.02233 0.0
H529 H 0.72914 0.9125 0.15152 0.0
H530 H 0.62326 0.83341 0.04267 0.0
H531 H 0.57771 0.83291 0.00881 0.0
H532 H 0.57871 0.89326 0.11223 0.0
H533 H 0.62398 0.89378 0.14697 0.0
C534 C 0.67978 0.76184 0.18132 0.0
C535 C 0.65352 0.74522 0.20878 0.0
C536 C 0.68735 0.79124 0.16438 0.0
C537 C 0.6689 0.80454 0.17482 0.0
C538 C 0.64324 0.78829 0.20305 0.0
C539 C 0.63567 0.75912 0.21983 0.0
C540 C 0.67531 0.83495 0.15581 0.0
C541 C 0.65131 0.83608 0.13271 0.0
C542 C 0.70383 0.86283 0.16233 0.0
C543 C 0.72964 0.86346 0.18799 0.0
C544 C 0.72521 0.85297 0.23248 0.0
C545 C 0.74964 0.85352 0.25641 0.0
C546 C 0.77867 0.86476 0.23632 0.0
C547 C 0.78336 0.87554 0.19229 0.0
C548 C 0.75899 0.875 0.16819 0.0
C549 C 0.6925 0.97269 0.13229 0.0
C550 C 0.68415 0.97702 0.0891 0.0
C551 C 0.69392 0.94593 0.14284 0.0
C552 C 0.68696 0.92293 0.11046 0.0
C553 C 0.68075 0.92824 0.06651 0.0
C554 C 0.67922 0.95497 0.05596 0.0
C555 C 0.68305 0.89226 0.12394 0.0
C556 C 0.70744 0.89108 0.14594 0.0
C557 C 0.6546 0.8643 0.11737 0.0
C558 C 0.62722 0.86394 0.09702 0.0
C559 C 0.6137 0.84652 0.05819 0.0
C560 C 0.58794 0.84623 0.03886 0.0
C561 C 0.57541 0.86314 0.05825 0.0
C562 C 0.58852 0.88028 0.09713 0.0
C563 C 0.61424 0.8806 0.11662 0.0
H564 H 0.55548 0.86291 0.04322 0.0
H565 H 0.79756 0.86518 0.25491 0.0
H566 H 0.94599 0.6829 0.42933 0.0
H567 H 0.90579 0.69495 0.40622 0.0
H568 H 0.91178 0.66826 0.27115 0.0
H569 H 0.95232 0.65656 0.29435 0.0
H570 H 0.90124 0.71801 0.27331 0.0
H571 H 0.85857 0.61651 0.3397 0.0
H572 H 0.85356 0.57962 0.39884 0.0
H573 H 0.82414 0.6257 0.49157 0.0
H574 H 0.82952 0.66323 0.43313 0.0
H575 H 0.74775 0.67261 0.198 0.0
H576 H 0.79752 0.67708 0.21812 0.0
H577 H 0.78643 0.6994 0.35353 0.0
H578 H 0.7365 0.69464 0.33376 0.0
H579 H 0.80102 0.65445 0.35202 0.0
H580 H 0.84089 0.75447 0.28339 0.0
H581 H 0.84689 0.79153 0.22394 0.0
H582 H 0.88118 0.74794 0.13463 0.0
H583 H 0.87498 0.71032 0.19338 0.0
C584 C 0.93927 0.68048 0.39451 0.0
C585 C 0.95224 0.66909 0.36345 0.0
C586 C 0.91624 0.68718 0.38135 0.0
C587 C 0.90544 0.68209 0.33705 0.0
C588 C 0.91975 0.67241 0.30545 0.0
C589 C 0.94289 0.66579 0.31863 0.0
C590 C 0.87739 0.68393 0.32477 0.0
C591 C 0.87925 0.70396 0.29022 0.0
C592 C 0.84877 0.66589 0.34727 0.0
C593 C 0.84476 0.64287 0.38216 0.0
C594 C 0.85121 0.61889 0.37277 0.0
C595 C 0.8483 0.59786 0.40616 0.0
C596 C 0.83863 0.60037 0.44897 0.0
C597 C 0.83169 0.62382 0.45841 0.0
C598 C 0.83466 0.64498 0.42517 0.0
C599 C 0.75613 0.67897 0.23189 0.0
C600 C 0.7381 0.68324 0.26427 0.0
C601 C 0.78467 0.6816 0.24334 0.0
C602 C 0.79586 0.68871 0.28735 0.0
C603 C 0.7783 0.69386 0.31939 0.0
C604 C 0.74979 0.69126 0.30797 0.0
C605 C 0.82478 0.68875 0.30065 0.0
C606 C 0.82303 0.66881 0.33529 0.0
C607 C 0.85339 0.70678 0.27807 0.0
C608 C 0.85719 0.72939 0.24268 0.0
C609 C 0.84947 0.75262 0.25096 0.0
C610 C 0.85295 0.77376 0.21741 0.0
C611 C 0.86433 0.77204 0.1755 0.0
C612 C 0.87233 0.74922 0.1671 0.0
C613 C 0.86887 0.728 0.20053 0.0
H614 H 0.86702 0.78843 0.14957 0.0
H615 H 0.83643 0.5841 0.4748 0.0
H616 H 0.10083 0.76161 0.36074 0.0
H617 H 0.14519 0.81239 0.37995 0.0
H618 H 0.14053 0.78162 0.51618 0.0
H619 H 0.09493 0.73188 0.49764 0.0
H620 H 0.15592 0.83753 0.52016 0.0
H621 H 0.1939 0.7832 0.42918 0.0
H622 H 0.19708 0.75629 0.3619 0.0
H623 H 0.22152 0.83767 0.28291 0.0
H624 H 0.21815 0.86494 0.34968 0.0
H625 H 0.31252 0.91488 0.58813 0.0
H626 H 0.26066 0.87854 0.56101 0.0
H627 H 0.27142 0.94225 0.45525 0.0
H628 H 0.32376 0.97949 0.48301 0.0
H629 H 0.25159 0.87766 0.42886 0.0
H630 H 0.22253 0.93361 0.53012 0.0
H631 H 0.22311 0.95784 0.6022 0.0
H632 H 0.1855 0.86916 0.66752 0.0
H633 H 0.18511 0.84446 0.59596 0.0
C634 C 0.10912 0.76593 0.39487 0.0
C635 C 0.09452 0.7428 0.42767 0.0
C636 C 0.13468 0.79488 0.40581 0.0
C637 C 0.14695 0.80083 0.44937 0.0
C638 C 0.13172 0.77787 0.48233 0.0
C639 C 0.10563 0.74933 0.4717 0.0
C640 C 0.17604 0.83034 0.46076 0.0
C641 C 0.1768 0.84611 0.50016 0.0
C642 C 0.20337 0.84231 0.43437 0.0
C643 C 0.20539 0.82595 0.39426 0.0
C644 C 0.19974 0.79526 0.39739 0.0
C645 C 0.20161 0.77996 0.35937 0.0
C646 C 0.20939 0.79522 0.31813 0.0
C647 C 0.21542 0.82585 0.31485 0.0
C648 C 0.21355 0.84125 0.35276 0.0
C649 C 0.30384 0.92149 0.55943 0.0
C650 C 0.32232 0.95014 0.53772 0.0
C651 C 0.27409 0.90065 0.54404 0.0
C652 C 0.26214 0.90772 0.50625 0.0
C653 C 0.28023 0.93644 0.48461 0.0
C654 C 0.31 0.95771 0.50059 0.0
C655 C 0.23142 0.88398 0.4886 0.0
C656 C 0.23043 0.86931 0.44817 0.0
C657 C 0.20415 0.87249 0.51464 0.0
C658 C 0.20392 0.88721 0.55765 0.0
C659 C 0.21455 0.9193 0.55989 0.0
C660 C 0.21482 0.93312 0.60066 0.0
C661 C 0.20437 0.91506 0.63942 0.0
C662 C 0.19357 0.88312 0.63747 0.0
C663 C 0.19326 0.86919 0.59679 0.0
H664 H 0.20463 0.9258 0.67096 0.0
H665 H 0.21083 0.78334 0.28874 0.0
H666 H 0.36772 0.31475 0.67425 0.0
H667 H 0.35495 0.26321 0.6454 0.0
H668 H 0.43549 0.27086 0.71173 0.0
H669 H 0.44832 0.32153 0.74023 0.0
H670 H 0.4338 0.25471 0.62626 0.0
H671 H 0.36351 0.22397 0.75197 0.0
H672 H 0.32048 0.2217 0.79592 0.0
H673 H 0.25826 0.17873 0.6857 0.0
H674 H 0.30107 0.18114 0.64086 0.0
H675 H 0.37613 0.08206 0.66333 0.0
H676 H 0.37188 0.12785 0.68167 0.0
H677 H 0.38907 0.15709 0.54392 0.0
H678 H 0.39399 0.11172 0.52552 0.0
H679 H 0.33791 0.1547 0.65775 0.0
H680 H 0.43812 0.23508 0.54094 0.0
H681 H 0.4837 0.23753 0.50406 0.0
H682 H 0.49011 0.18155 0.60847 0.0
H683 H 0.44485 0.17912 0.64621 0.0
C684 C 0.3825 0.30527 0.68293 0.0
C685 C 0.40925 0.32257 0.70916 0.0
C686 C 0.37519 0.27583 0.66644 0.0
C687 C 0.39445 0.26328 0.67611 0.0
C688 C 0.4205 0.28017 0.70332 0.0
C689 C 0.42777 0.30928 0.71965 0.0
C690 C 0.38869 0.23311 0.65727 0.0
C691 C 0.41263 0.23291 0.6327 0.0
C692 C 0.36126 0.20458 0.66597 0.0
C693 C 0.33555 0.2031 0.69289 0.0
C694 C 0.34071 0.2143 0.73697 0.0
C695 C 0.31636 0.21294 0.76207 0.0
C696 C 0.28668 0.20018 0.74356 0.0
C697 C 0.28128 0.18868 0.69995 0.0
C698 C 0.30557 0.19002 0.67469 0.0
C699 C 0.3785 0.09796 0.63678 0.0
C700 C 0.38581 0.09345 0.59307 0.0
C701 C 0.37593 0.12408 0.6473 0.0
C702 C 0.38059 0.14619 0.61433 0.0
C703 C 0.38582 0.14061 0.57007 0.0
C704 C 0.3886 0.11462 0.55959 0.0
C705 C 0.38318 0.1764 0.62715 0.0
C706 C 0.35874 0.1766 0.65049 0.0
C707 C 0.41046 0.20504 0.61816 0.0
C708 C 0.43788 0.2066 0.59603 0.0
C709 C 0.44932 0.22336 0.55603 0.0
C710 C 0.47509 0.22475 0.535 0.0
C711 C 0.48971 0.2096 0.55382 0.0
C712 C 0.47868 0.19316 0.59383 0.0
C713 C 0.45296 0.19175 0.61503 0.0
H714 H 0.50964 0.21068 0.53746 0.0
H715 H 0.26785 0.19913 0.76305 0.0
H716 H 0.09897 0.39521 0.80864 0.0
H717 H 0.13957 0.38417 0.78405 0.0
H718 H 0.18356 0.41243 0.91319 0.0
H719 H 0.14444 0.42543 0.93626 0.0
H720 H 0.2252 0.43815 0.85702 0.0
H721 H 0.14202 0.33233 0.86989 0.0
H722 H 0.09001 0.28743 0.85556 0.0
H723 H 0.11008 0.29366 0.71526 0.0
H724 H 0.16208 0.33884 0.7287 0.0
H725 H 0.33235 0.38494 0.83998 0.0
H726 H 0.28392 0.38352 0.85975 0.0
H727 H 0.26392 0.38631 0.72032 0.0
H728 H 0.31266 0.38818 0.70016 0.0
H729 H 0.21008 0.34404 0.77725 0.0
H730 H 0.29428 0.45064 0.76822 0.0
H731 H 0.34663 0.49378 0.78609 0.0
H732 H 0.32368 0.48319 0.92561 0.0
H733 H 0.27132 0.43964 0.9086 0.0
C734 C 0.11708 0.39852 0.83186 0.0
C735 C 0.11857 0.41114 0.87435 0.0
C736 C 0.14027 0.3921 0.8179 0.0
C737 C 0.16478 0.39722 0.84677 0.0
C738 C 0.16524 0.40848 0.88997 0.0
C739 C 0.1427 0.41574 0.90333 0.0
C740 C 0.19121 0.39312 0.83156 0.0
C741 C 0.22162 0.41724 0.84027 0.0
C742 C 0.18704 0.36635 0.8084 0.0
C743 C 0.15582 0.33916 0.80027 0.0
C744 C 0.13526 0.32426 0.83595 0.0
C745 C 0.10579 0.29873 0.82799 0.0
C746 C 0.09671 0.28775 0.78451 0.0
C747 C 0.11712 0.30222 0.74891 0.0
C748 C 0.1466 0.32776 0.75669 0.0
C749 C 0.31742 0.38467 0.81343 0.0
C750 C 0.32647 0.38685 0.76848 0.0
C751 C 0.28975 0.3839 0.82482 0.0
C752 C 0.27043 0.38501 0.79151 0.0
C753 C 0.27847 0.38538 0.74652 0.0
C754 C 0.30638 0.38654 0.73508 0.0
C755 C 0.24345 0.38861 0.80396 0.0
C756 C 0.21324 0.36469 0.79434 0.0
C757 C 0.24765 0.41529 0.82696 0.0
C758 C 0.27901 0.44168 0.83717 0.0
C759 C 0.30049 0.45734 0.80274 0.0
C760 C 0.33015 0.48189 0.8127 0.0
C761 C 0.33851 0.49117 0.85697 0.0
C762 C 0.31719 0.47596 0.89134 0.0
C763 C 0.28752 0.45135 0.88156 0.0
H764 H 0.36148 0.51018 0.86462 0.0
H765 H 0.07389 0.26799 0.77842 0.0
H766 H 0.96387 0.31202 0.85953 0.0
H767 H 0.91849 0.26209 0.87964 0.0
H768 H 0.92856 0.29161 0.01716 0.0
H769 H 0.97487 0.3404 0.99761 0.0
H770 H 0.9102 0.23483 0.01893 0.0
H771 H 0.87495 0.29488 0.93657 0.0
H772 H 0.87166 0.32431 0.87234 0.0
H773 H 0.83999 0.24374 0.78896 0.0
H774 H 0.84344 0.21393 0.85263 0.0
H775 H 0.75224 0.15869 0.09088 0.0
H776 H 0.8037 0.19659 0.06305 0.0
H777 H 0.79489 0.1337 0.95757 0.0
H778 H 0.7434 0.09501 0.98606 0.0
H779 H 0.81292 0.20087 0.93368 0.0
H780 H 0.84204 0.14001 0.02647 0.0
H781 H 0.84193 0.11356 0.09632 0.0
H782 H 0.88188 0.20046 0.16657 0.0
H783 H 0.8818 0.22737 0.09726 0.0
C784 C 0.95661 0.30756 0.89413 0.0
C785 C 0.97288 0.33014 0.92696 0.0
C786 C 0.93047 0.27912 0.9056 0.0
C787 C 0.91941 0.27316 0.94985 0.0
C788 C 0.9364 0.2954 0.98279 0.0
C789 C 0.96295 0.32341 0.97156 0.0
C790 C 0.88971 0.24449 0.96199 0.0
C791 C 0.88899 0.22762 1.00024 0.0
C792 C 0.86183 0.23443 0.93749 0.0
C793 C 0.85984 0.25232 0.89918 0.0
C794 C 0.86751 0.28353 0.90444 0.0
C795 C 0.86558 0.30026 0.86816 0.0
C796 C 0.85573 0.28594 0.82655 0.0
C797 C 0.8477 0.25482 0.82118 0.0
C798 C 0.84962 0.238 0.85734 0.0
C799 C 0.76129 0.15272 0.06198 0.0
C800 C 0.74372 0.1238 0.04068 0.0
C801 C 0.79073 0.17441 0.04618 0.0
C802 C 0.80306 0.16791 0.00833 0.0
C803 C 0.78574 0.13907 0.98692 0.0
C804 C 0.75644 0.117 1.00333 0.0
C805 C 0.83363 0.19195 0.99068 0.0
C806 C 0.83439 0.20793 0.95165 0.0
C807 C 0.8613 0.20173 0.0151 0.0
C808 C 0.86171 0.18566 0.05671 0.0
C809 C 0.85058 0.15344 0.05688 0.0
C810 C 0.85059 0.13837 0.09637 0.0
C811 C 0.86184 0.15531 0.13587 0.0
C812 C 0.87317 0.18737 0.13595 0.0
C813 C 0.87319 0.20255 0.09655 0.0
H814 H 0.86182 0.1436 0.16641 0.0
H815 H 0.85424 0.29892 0.79851 0.0
loop_
_geom_bond_atom_site_label_1
_geom_bond_atom_site_label_2
_geom_bond_distance
_geom_bond_site_symmetry_2
_ccdc_geom_bond_type
Mn0 O5 2.095 . S
Mn0 O15 2.162 1_545 S
Mn0 O16 2.272 1_545 S
Mn0 O24 2.385 1_545 S
Mn0 O25 2.209 . S
Mn0 O26 2.094 . S
Mn1 O6 2.121 . S
Mn1 N8 2.257 . S
Mn1 N17 2.282 . S
Mn1 O25 2.215 . S
Mn1 O27 2.117 . S
C2 O24 1.234 1_545 S
C2 O25 1.283 . S
C3 O15 1.281 . S
C3 O16 1.272 . S
C4 O26 1.240 1_556 S
C4 O27 1.264 1_556 S
O5 Mn0 2.095 . S
O5 C14 1.250 . S
O6 Mn1 2.121 . S
O6 C14 1.258 . S
C7 N8 1.326 . S
C7 C11 1.460 . S
C7 H13 0.929 . S
N8 Mn1 2.257 . S
N8 C7 1.326 . S
N8 C12 1.362 . S
C9 C10 1.258 . S
C9 C12 1.431 . S
C9 C29 1.449 . S
C10 C9 1.258 . S
C10 C11 1.477 . S
C10 H30 0.931 . S
C11 C7 1.460 . S
C11 C10 1.477 . S
C11 H31 0.930 . S
C12 N8 1.362 . S
C12 C9 1.431 . S
C12 C22 1.476 . S
H13 C7 0.929 . S
C14 O5 1.250 . S
C14 O6 1.258 . S
O15 Mn0 2.162 1_565 S
O15 C3 1.281 . S
O16 Mn0 2.272 1_565 S
O16 C3 1.272 . S
N17 Mn1 2.282 . S
N17 C18 1.328 . S
N17 C22 1.318 . S
C18 N17 1.328 . S
C18 C19 1.457 . S
C18 H23 0.929 . S
C19 C18 1.457 . S
C19 C20 1.291 . S
C19 H32 0.931 . S
C20 C19 1.291 . S
C20 C21 1.373 . S
C20 H33 0.929 . S
C21 C20 1.373 . S
C21 C22 1.396 . S
C21 C28 1.403 . S
C22 C12 1.476 . S
C22 N17 1.318 . S
C22 C21 1.396 . S
H23 C18 0.929 . S
O24 Mn0 2.385 1_565 S
O24 C2 1.234 1_565 S
O25 Mn0 2.209 . S
O25 Mn1 2.215 . S
O25 C2 1.283 . S
O26 Mn0 2.094 . S
O26 C4 1.240 1_554 S
O27 Mn1 2.117 . S
O27 C4 1.264 1_554 S
C28 C21 1.403 . S
C28 C29 1.399 . S
C28 H34 0.929 . S
C29 C9 1.449 . S
C29 C28 1.399 . S
C29 H35 0.930 . S
H30 C10 0.931 . S
H31 C11 0.930 . S
H32 C19 0.931 . S
H33 C20 0.929 . S
H34 C28 0.929 . S
H35 C29 0.930 . S
Mn36 O41 2.095 . S
Mn36 O51 2.162 . S
Mn36 O52 2.297 . S
Mn36 O60 2.385 . S
Mn36 O61 2.209 . S
Mn36 O62 2.094 . S
Mn37 O42 2.121 . S
Mn37 N44 2.257 . S
Mn37 N53 2.282 . S
Mn37 O61 2.215 . S
Mn37 O63 2.117 . S
C38 O60 1.234 . S
C38 O61 1.283 . S
C39 O51 1.281 . S
C39 O52 1.236 . S
C40 O62 1.240 . S
C40 O63 1.264 . S
O41 Mn36 2.095 . S
O41 C50 1.250 . S
O42 Mn37 2.121 . S
O42 C50 1.258 . S
C43 N44 1.326 . S
C43 C47 1.460 . S
C43 H49 0.929 . S
N44 Mn37 2.257 . S
N44 C43 1.326 . S
N44 C48 1.362 . S
C45 C46 1.258 . S
C45 C48 1.431 . S
C45 C65 1.449 . S
C46 C45 1.258 . S
C46 C47 1.477 . S
C46 H66 0.931 . S
C47 C43 1.460 . S
C47 C46 1.477 . S
C47 H67 0.930 . S
C48 N44 1.362 . S
C48 C45 1.431 . S
C48 C58 1.476 . S
H49 C43 0.929 . S
C50 O41 1.250 . S
C50 O42 1.258 . S
O51 Mn36 2.162 . S
O51 C39 1.281 . S
O52 Mn36 2.297 . S
O52 C39 1.236 . S
N53 Mn37 2.282 . S
N53 C54 1.328 . S
N53 C58 1.318 . S
C54 N53 1.328 . S
C54 C55 1.457 . S
C54 H59 0.929 . S
C55 C54 1.457 . S
C55 C56 1.291 . S
C55 H68 0.931 . S
C56 C55 1.291 . S
C56 C57 1.373 . S
C56 H69 0.929 . S
C57 C56 1.373 . S
C57 C58 1.396 . S
C57 C64 1.403 . S
C58 C48 1.476 . S
C58 N53 1.318 . S
C58 C57 1.396 . S
H59 C54 0.929 . S
O60 Mn36 2.385 . S
O60 C38 1.234 . S
O61 Mn36 2.209 . S
O61 Mn37 2.215 . S
O61 C38 1.283 . S
O62 Mn36 2.094 . S
O62 C40 1.240 . S
O63 Mn37 2.117 . S
O63 C40 1.264 . S
C64 C57 1.403 . S
C64 C65 1.399 . S
C64 H70 0.929 . S
C65 C45 1.449 . S
C65 C64 1.399 . S
C65 H71 0.930 . S
H66 C46 0.931 . S
H67 C47 0.930 . S
H68 C55 0.931 . S
H69 C56 0.929 . S
H70 C64 0.929 . S
H71 C65 0.930 . S
Mn72 O77 2.095 1_455 S
Mn72 O87 2.162 . S
Mn72 O88 2.297 . S
Mn72 O96 2.385 . S
Mn72 O97 2.209 . S
Mn72 O98 2.094 . S
Mn73 O78 2.121 . S
Mn73 N80 2.257 . S
Mn73 N89 2.282 . S
Mn73 O97 2.215 1_655 S
Mn73 O99 2.117 . S
C74 O96 1.234 . S
C74 O97 1.283 . S
C75 O87 1.281 . S
C75 O88 1.236 . S
C76 O98 1.240 . S
C76 O99 1.264 1_455 S
O77 Mn72 2.095 1_655 S
O77 C86 1.250 . S
O78 Mn73 2.121 . S
O78 C86 1.258 . S
C79 N80 1.326 . S
C79 C83 1.460 . S
C79 H85 0.929 . S
N80 Mn73 2.257 . S
N80 C79 1.326 . S
N80 C84 1.362 . S
C81 C82 1.258 . S
C81 C84 1.431 . S
C81 C101 1.449 . S
C82 C81 1.258 . S
C82 C83 1.477 . S
C82 H102 0.931 . S
C83 C79 1.460 . S
C83 C82 1.477 . S
C83 H103 0.930 . S
C84 N80 1.362 . S
C84 C81 1.431 . S
C84 C94 1.476 . S
H85 C79 0.929 . S
C86 O77 1.250 . S
C86 O78 1.258 . S
O87 Mn72 2.162 . S
O87 C75 1.281 . S
O88 Mn72 2.297 . S
O88 C75 1.236 . S
N89 Mn73 2.282 . S
N89 C90 1.328 . S
N89 C94 1.318 . S
C90 N89 1.328 . S
C90 C91 1.457 . S
C90 H95 0.929 1_655 S
C91 C90 1.457 . S
C91 C92 1.291 . S
C91 H104 0.931 1_655 S
C92 C91 1.291 . S
C92 C93 1.373 . S
C92 H105 0.929 . S
C93 C92 1.373 . S
C93 C94 1.396 . S
C93 C100 1.403 . S
C94 C84 1.476 . S
C94 N89 1.318 . S
C94 C93 1.396 . S
H95 C90 0.929 1_455 S
O96 Mn72 2.385 . S
O96 C74 1.234 . S
O97 Mn72 2.209 . S
O97 Mn73 2.215 1_455 S
O97 C74 1.283 . S
O98 Mn72 2.094 . S
O98 C76 1.240 . S
O99 Mn73 2.117 . S
O99 C76 1.264 1_655 S
C100 C93 1.403 . S
C100 C101 1.399 . S
C100 H106 0.929 . S
C101 C81 1.449 . S
C101 C100 1.399 . S
C101 H107 0.930 . S
H102 C82 0.931 . S
H103 C83 0.930 . S
H104 C91 0.931 1_455 S
H105 C92 0.929 . S
H106 C100 0.929 . S
H107 C101 0.930 . S
Mn108 O113 2.095 . S
Mn108 O123 2.162 . S
Mn108 O124 2.297 . S
Mn108 O132 2.385 . S
Mn108 O133 2.209 . S
Mn108 O134 2.094 . S
Mn109 O114 2.121 . S
Mn109 N116 2.257 . S
Mn109 N125 2.282 . S
Mn109 O133 2.215 1_565 S
Mn109 O135 2.115 1_565 S
C110 O132 1.234 . S
C110 O133 1.283 . S
C111 O123 1.281 . S
C111 O124 1.236 . S
C112 O134 1.240 . S
C112 O135 1.268 . S
O113 Mn108 2.095 . S
O113 C122 1.250 1_545 S
O114 Mn109 2.121 . S
O114 C122 1.258 . S
C115 N116 1.326 . S
C115 C119 1.460 . S
C115 H121 0.929 . S
N116 Mn109 2.257 . S
N116 C115 1.326 . S
N116 C120 1.362 . S
C117 C118 1.258 . S
C117 C120 1.431 . S
C117 C137 1.449 . S
C118 C117 1.258 . S
C118 C119 1.477 . S
C118 H138 0.931 . S
C119 C115 1.460 . S
C119 C118 1.477 . S
C119 H139 0.930 . S
C120 N116 1.362 . S
C120 C117 1.431 . S
C120 C130 1.476 . S
H121 C115 0.929 . S
C122 O113 1.250 1_565 S
C122 O114 1.258 . S
O123 Mn108 2.162 . S
O123 C111 1.281 . S
O124 Mn108 2.297 . S
O124 C111 1.236 . S
N125 Mn109 2.282 . S
N125 C126 1.328 . S
N125 C130 1.318 . S
C126 N125 1.328 . S
C126 C127 1.442 . S
C126 H131 0.929 1_565 S
C127 C126 1.442 . S
C127 C128 1.316 . S
C127 H140 0.922 1_565 S
C128 C127 1.316 . S
C128 C129 1.373 . S
C128 H141 0.929 . S
C129 C128 1.373 . S
C129 C130 1.396 . S
C129 C136 1.403 . S
C130 C120 1.476 . S
C130 N125 1.318 . S
C130 C129 1.396 . S
H131 C126 0.929 1_545 S
O132 Mn108 2.385 . S
O132 C110 1.234 . S
O133 Mn108 2.209 . S
O133 Mn109 2.215 1_545 S
O133 C110 1.283 . S
O134 Mn108 2.094 . S
O134 C112 1.240 . S
O135 Mn109 2.115 1_545 S
O135 C112 1.268 . S
C136 C129 1.403 . S
C136 C137 1.399 . S
C136 H142 0.929 . S
C137 C117 1.449 . S
C137 C136 1.399 . S
C137 H143 0.930 . S
H138 C118 0.931 . S
H139 C119 0.930 . S
H140 C127 0.922 1_545 S
H141 C128 0.929 . S
H142 C136 0.929 . S
H143 C137 0.930 . S
Mn144 O149 2.095 . S
Mn144 O159 2.162 . S
Mn144 O160 2.297 . S
Mn144 O168 2.385 . S
Mn144 O169 2.209 . S
Mn144 O170 2.094 . S
Mn145 O150 2.121 . S
Mn145 N152 2.257 . S
Mn145 N161 2.282 . S
Mn145 O169 2.215 . S
Mn145 O171 2.117 . S
C146 O168 1.234 . S
C146 O169 1.283 . S
C147 O159 1.281 . S
C147 O160 1.236 . S
C148 O170 1.240 . S
C148 O171 1.264 . S
O149 Mn144 2.095 . S
O149 C158 1.250 . S
O150 Mn145 2.121 . S
O150 C158 1.258 . S
C151 N152 1.326 . S
C151 C155 1.460 . S
C151 H157 0.929 . S
N152 Mn145 2.257 . S
N152 C151 1.326 . S
N152 C156 1.362 . S
C153 C154 1.258 . S
C153 C156 1.431 . S
C153 C173 1.449 . S
C154 C153 1.258 . S
C154 C155 1.477 . S
C154 H174 0.931 . S
C155 C151 1.460 . S
C155 C154 1.477 . S
C155 H175 0.930 . S
C156 N152 1.362 . S
C156 C153 1.431 . S
C156 C166 1.476 . S
H157 C151 0.929 . S
C158 O149 1.250 . S
C158 O150 1.258 . S
O159 Mn144 2.162 . S
O159 C147 1.281 . S
O160 Mn144 2.297 . S
O160 C147 1.236 . S
N161 Mn145 2.282 . S
N161 C162 1.328 . S
N161 C166 1.318 . S
C162 N161 1.328 . S
C162 C163 1.457 . S
C162 H167 0.929 . S
C163 C162 1.457 . S
C163 C164 1.291 . S
C163 H176 0.931 . S
C164 C163 1.291 . S
C164 C165 1.373 . S
C164 H177 0.929 . S
C165 C164 1.373 . S
C165 C166 1.396 . S
C165 C172 1.403 . S
C166 C156 1.476 . S
C166 N161 1.318 . S
C166 C165 1.396 . S
H167 C162 0.929 . S
O168 Mn144 2.385 . S
O168 C146 1.234 . S
O169 Mn144 2.209 . S
O169 Mn145 2.215 . S
O169 C146 1.283 . S
O170 Mn144 2.094 . S
O170 C148 1.240 . S
O171 Mn145 2.117 . S
O171 C148 1.264 . S
C172 C165 1.403 . S
C172 C173 1.399 . S
C172 H178 0.929 . S
C173 C153 1.449 . S
C173 C172 1.399 . S
C173 H179 0.930 . S
H174 C154 0.931 . S
H175 C155 0.930 . S
H176 C163 0.931 . S
H177 C164 0.929 . S
H178 C172 0.929 . S
H179 C173 0.930 . S
Mn180 O185 2.095 . S
Mn180 O195 2.162 1_455 S
Mn180 O196 2.297 1_455 S
Mn180 O204 2.385 1_455 S
Mn180 O205 2.209 . S
Mn180 O206 2.094 . S
Mn181 O186 2.121 . S
Mn181 N188 2.257 . S
Mn181 N197 2.282 . S
Mn181 O205 2.215 . S
Mn181 O207 2.117 . S
C182 O204 1.234 1_455 S
C182 O205 1.283 . S
C183 O195 1.281 . S
C183 O196 1.236 . S
C184 O206 1.240 . S
C184 O207 1.264 . S
O185 Mn180 2.095 . S
O185 C194 1.250 . S
O186 Mn181 2.121 . S
O186 C194 1.258 . S
C187 N188 1.326 . S
C187 C191 1.460 1_556 S
C187 H193 0.929 . S
N188 Mn181 2.257 . S
N188 C187 1.326 . S
N188 C192 1.362 . S
C189 C190 1.258 . S
C189 C192 1.431 1_554 S
C189 C209 1.449 . S
C190 C189 1.258 . S
C190 C191 1.477 . S
C190 H210 0.931 . S
C191 C187 1.460 1_554 S
C191 C190 1.477 . S
C191 H211 0.930 . S
C192 N188 1.362 . S
C192 C189 1.431 1_556 S
C192 C202 1.476 . S
H193 C187 0.929 . S
C194 O185 1.250 . S
C194 O186 1.258 . S
O195 Mn180 2.162 1_655 S
O195 C183 1.281 . S
O196 Mn180 2.297 1_655 S
O196 C183 1.236 . S
N197 Mn181 2.282 . S
N197 C198 1.328 . S
N197 C202 1.318 . S
C198 N197 1.328 . S
C198 C199 1.457 . S
C198 H203 0.929 . S
C199 C198 1.457 . S
C199 C200 1.291 . S
C199 H212 0.931 . S
C200 C199 1.291 . S
C200 C201 1.373 . S
C200 H213 0.929 . S
C201 C200 1.373 . S
C201 C202 1.396 . S
C201 C208 1.403 1_556 S
C202 C192 1.476 . S
C202 N197 1.318 . S
C202 C201 1.396 . S
H203 C198 0.929 . S
O204 Mn180 2.385 1_655 S
O204 C182 1.234 1_655 S
O205 Mn180 2.209 . S
O205 Mn181 2.215 . S
O205 C182 1.283 . S
O206 Mn180 2.094 . S
O206 C184 1.240 . S
O207 Mn181 2.117 . S
O207 C184 1.264 . S
C208 C201 1.403 1_554 S
C208 C209 1.399 . S
C208 H214 0.929 . S
C209 C189 1.449 . S
C209 C208 1.399 . S
C209 H215 0.930 . S
H210 C190 0.931 . S
H211 C191 0.930 . S
H212 C199 0.931 . S
H213 C200 0.929 . S
H214 C208 0.929 . S
H215 C209 0.930 . S
H216 C234 0.951 . S
H217 C236 0.951 . S
H218 C238 0.948 . S
H219 C239 0.959 . S
H220 C241 0.950 . S
H221 C244 0.950 . S
H222 C245 0.950 . S
H223 C247 0.950 1_545 S
H224 C248 0.950 . S
H225 C249 0.951 . S
H226 C251 0.951 . S
H227 C253 0.950 . S
H228 C254 0.950 . S
H229 C256 0.950 . S
H230 C259 0.950 . S
H231 C260 0.950 . S
H232 C262 0.950 . S
H233 C263 0.950 . S
C234 H216 0.951 . S
C234 C235 1.366 . S
C234 C236 1.388 . S
C235 C234 1.366 . S
C235 C239 1.385 . S
C236 H217 0.951 . S
C236 C234 1.388 . S
C236 C237 1.366 . S
C237 C236 1.366 . S
C237 C238 1.414 . S
C237 C240 1.499 . S
C238 H218 0.948 . S
C238 C237 1.414 . S
C238 C239 1.374 . S
C239 H219 0.959 . S
C239 C235 1.385 . S
C239 C238 1.374 . S
C240 C237 1.499 . S
C240 C241 1.373 . S
C240 C242 1.389 . S
C241 H220 0.950 . S
C241 C240 1.373 . S
C241 C257 1.377 . S
C242 C240 1.389 . S
C242 C243 1.524 . S
C242 C256 1.377 . S
C243 C242 1.524 . S
C243 C244 1.397 1_545 S
C243 C248 1.363 . S
C244 H221 0.950 . S
C244 C243 1.397 1_565 S
C244 C245 1.334 . S
C245 H222 0.950 . S
C245 C244 1.334 . S
C245 C246 1.287 . S
C246 C245 1.287 . S
C246 C247 1.524 . S
C246 H265 0.913 . S
C247 H223 0.950 1_565 S
C247 C246 1.524 . S
C247 C248 1.415 1_565 S
C248 H224 0.950 . S
C248 C243 1.363 . S
C248 C247 1.415 1_545 S
C249 H225 0.951 . S
C249 C250 1.366 . S
C249 C251 1.388 . S
C250 C249 1.366 . S
C250 C254 1.385 . S
C251 H226 0.951 . S
C251 C249 1.388 . S
C251 C252 1.366 . S
C252 C251 1.366 . S
C252 C253 1.414 . S
C252 C255 1.499 . S
C253 H227 0.950 . S
C253 C252 1.414 . S
C253 C254 1.374 . S
C254 H228 0.950 . S
C254 C250 1.385 . S
C254 C253 1.374 . S
C255 C252 1.499 . S
C255 C256 1.373 . S
C255 C257 1.389 . S
C256 H229 0.950 . S
C256 C242 1.377 . S
C256 C255 1.373 . S
C257 C241 1.377 . S
C257 C255 1.389 . S
C257 C258 1.524 . S
C258 C257 1.524 . S
C258 C259 1.397 . S
C258 C263 1.363 . S
C259 H230 0.950 . S
C259 C258 1.397 . S
C259 C260 1.334 . S
C260 H231 0.950 . S
C260 C259 1.334 . S
C260 C261 1.287 . S
C261 C260 1.287 . S
C261 C262 1.524 . S
C261 H264 0.999 . S
C262 H232 0.950 . S
C262 C261 1.524 . S
C262 C263 1.415 . S
C263 H233 0.950 . S
C263 C258 1.363 . S
C263 C262 1.415 . S
H264 C261 0.999 . S
H265 C246 0.913 . S
H266 C284 0.951 . S
H267 C286 0.951 . S
H268 C288 0.950 . S
H269 C289 0.950 . S
H270 C291 0.950 . S
H271 C294 0.950 . S
H272 C295 0.950 . S
H273 C297 0.950 . S
H274 C298 0.950 . S
H275 C299 0.951 . S
H276 C301 0.951 . S
H277 C303 0.950 . S
H278 C304 0.950 . S
H279 C306 0.950 . S
H280 C309 0.950 . S
H281 C310 0.950 . S
H282 C312 0.950 . S
H283 C313 0.950 . S
C284 H266 0.951 . S
C284 C285 1.366 . S
C284 C286 1.388 . S
C285 C284 1.366 . S
C285 C289 1.385 . S
C286 H267 0.951 . S
C286 C284 1.388 . S
C286 C287 1.366 . S
C287 C286 1.366 . S
C287 C288 1.414 . S
C287 C290 1.499 . S
C288 H268 0.950 . S
C288 C287 1.414 . S
C288 C289 1.374 . S
C289 H269 0.950 . S
C289 C285 1.385 . S
C289 C288 1.374 . S
C290 C287 1.499 . S
C290 C291 1.373 . S
C290 C292 1.389 . S
C291 H270 0.950 . S
C291 C290 1.373 . S
C291 C307 1.377 . S
C292 C290 1.389 . S
C292 C293 1.524 . S
C292 C306 1.377 . S
C293 C292 1.524 . S
C293 C294 1.397 . S
C293 C298 1.363 . S
C294 H271 0.950 . S
C294 C293 1.397 . S
C294 C295 1.334 . S
C295 H272 0.950 . S
C295 C294 1.334 . S
C295 C296 1.287 . S
C296 C295 1.287 . S
C296 C297 1.524 . S
C296 H315 0.913 . S
C297 H273 0.950 . S
C297 C296 1.524 . S
C297 C298 1.415 . S
C298 H274 0.950 . S
C298 C293 1.363 . S
C298 C297 1.415 . S
C299 H275 0.951 . S
C299 C300 1.366 . S
C299 C301 1.388 . S
C300 C299 1.366 . S
C300 C304 1.385 . S
C301 H276 0.951 . S
C301 C299 1.388 . S
C301 C302 1.366 . S
C302 C301 1.366 . S
C302 C303 1.414 . S
C302 C305 1.499 . S
C303 H277 0.950 . S
C303 C302 1.414 . S
C303 C304 1.374 . S
C304 H278 0.950 . S
C304 C300 1.385 . S
C304 C303 1.374 . S
C305 C302 1.499 . S
C305 C306 1.373 . S
C305 C307 1.389 . S
C306 H279 0.950 . S
C306 C292 1.377 . S
C306 C305 1.373 . S
C307 C291 1.377 . S
C307 C305 1.389 . S
C307 C308 1.524 . S
C308 C307 1.524 . S
C308 C309 1.397 . S
C308 C313 1.363 . S
C309 H280 0.950 . S
C309 C308 1.397 . S
C309 C310 1.334 . S
C310 H281 0.950 . S
C310 C309 1.334 . S
C310 C311 1.287 . S
C311 C310 1.287 . S
C311 C312 1.524 . S
C311 H314 0.999 . S
C312 H282 0.950 . S
C312 C311 1.524 . S
C312 C313 1.415 . S
C313 H283 0.950 . S
C313 C308 1.363 . S
C313 C312 1.415 . S
H314 C311 0.999 . S
H315 C296 0.913 . S
H316 C334 0.951 . S
H317 C336 0.951 . S
H318 C338 0.950 . S
H319 C339 0.950 . S
H320 C341 0.950 1_655 S
H321 C344 0.950 . S
H322 C345 0.950 . S
H323 C347 0.950 . S
H324 C348 0.950 . S
H325 C349 0.951 . S
H326 C351 0.951 . S
H327 C353 0.950 . S
H328 C354 0.950 . S
H329 C356 0.950 . S
H330 C359 0.950 . S
H331 C360 0.950 . S
H332 C362 0.950 . S
H333 C363 0.950 . S
C334 H316 0.951 . S
C334 C335 1.366 . S
C334 C336 1.388 . S
C335 C334 1.366 . S
C335 C339 1.385 1_455 S
C336 H317 0.951 . S
C336 C334 1.388 . S
C336 C337 1.366 . S
C337 C336 1.366 . S
C337 C338 1.414 1_455 S
C337 C340 1.499 . S
C338 H318 0.950 . S
C338 C337 1.414 1_655 S
C338 C339 1.374 . S
C339 H319 0.950 . S
C339 C335 1.385 1_655 S
C339 C338 1.374 . S
C340 C337 1.499 . S
C340 C341 1.373 . S
C340 C342 1.389 . S
C341 H320 0.950 1_455 S
C341 C340 1.373 . S
C341 C357 1.377 . S
C342 C340 1.389 . S
C342 C343 1.524 . S
C342 C356 1.377 . S
C343 C342 1.524 . S
C343 C344 1.397 . S
C343 C348 1.363 . S
C344 H321 0.950 . S
C344 C343 1.397 . S
C344 C345 1.334 . S
C345 H322 0.950 . S
C345 C344 1.334 . S
C345 C346 1.287 . S
C346 C345 1.287 . S
C346 C347 1.524 . S
C346 H365 0.913 . S
C347 H323 0.950 . S
C347 C346 1.524 . S
C347 C348 1.415 . S
C348 H324 0.950 . S
C348 C343 1.363 . S
C348 C347 1.415 . S
C349 H325 0.951 . S
C349 C350 1.366 1_655 S
C349 C351 1.388 . S
C350 C349 1.366 1_455 S
C350 C354 1.385 . S
C351 H326 0.951 . S
C351 C349 1.388 . S
C351 C352 1.366 1_655 S
C352 C351 1.366 1_455 S
C352 C353 1.414 . S
C352 C355 1.499 . S
C353 H327 0.950 . S
C353 C352 1.414 . S
C353 C354 1.374 . S
C354 H328 0.950 . S
C354 C350 1.385 . S
C354 C353 1.374 . S
C355 C352 1.499 . S
C355 C356 1.373 . S
C355 C357 1.389 . S
C356 H329 0.950 . S
C356 C342 1.377 . S
C356 C355 1.373 . S
C357 C341 1.377 . S
C357 C355 1.389 . S
C357 C358 1.524 1_455 S
C358 C357 1.524 1_655 S
C358 C359 1.397 1_655 S
C358 C363 1.363 . S
C359 H330 0.950 . S
C359 C358 1.397 1_455 S
C359 C360 1.334 . S
C360 H331 0.950 . S
C360 C359 1.334 . S
C360 C361 1.287 1_455 S
C361 C360 1.287 1_655 S
C361 C362 1.524 . S
C361 H364 0.999 . S
C362 H332 0.950 . S
C362 C361 1.524 . S
C362 C363 1.415 . S
C363 H333 0.950 . S
C363 C358 1.363 . S
C363 C362 1.415 . S
H364 C361 0.999 . S
H365 C346 0.913 . S
H366 C384 0.951 1_565 S
H367 C386 0.951 1_565 S
H368 C388 0.950 . S
H369 C389 0.950 . S
H370 C391 0.950 . S
H371 C394 0.950 . S
H372 C395 0.950 . S
H373 C397 0.950 . S
H374 C398 0.950 . S
H375 C399 0.951 . S
H376 C401 0.951 . S
H377 C403 0.950 1_565 S
H378 C404 0.950 1_565 S
H379 C406 0.950 . S
H380 C409 0.950 . S
H381 C410 0.950 . S
H382 C412 0.950 . S
H383 C413 0.950 . S
C384 H366 0.951 1_545 S
C384 C385 1.366 . S
C384 C386 1.388 . S
C385 C384 1.366 . S
C385 C389 1.385 . S
C386 H367 0.951 1_545 S
C386 C384 1.388 . S
C386 C387 1.366 . S
C387 C386 1.366 . S
C387 C388 1.414 . S
C387 C390 1.499 . S
C388 H368 0.950 . S
C388 C387 1.414 . S
C388 C389 1.374 . S
C389 H369 0.950 . S
C389 C385 1.385 . S
C389 C388 1.374 . S
C390 C387 1.499 . S
C390 C391 1.373 . S
C390 C392 1.389 . S
C391 H370 0.950 . S
C391 C390 1.373 . S
C391 C407 1.377 . S
C392 C390 1.389 . S
C392 C393 1.524 . S
C392 C406 1.377 . S
C393 C392 1.524 . S
C393 C394 1.397 . S
C393 C398 1.363 . S
C394 H371 0.950 . S
C394 C393 1.397 . S
C394 C395 1.334 . S
C395 H372 0.950 . S
C395 C394 1.334 . S
C395 C396 1.287 . S
C396 C395 1.287 . S
C396 C397 1.524 . S
C396 H415 0.913 . S
C397 H373 0.950 . S
C397 C396 1.524 . S
C397 C398 1.415 . S
C398 H374 0.950 . S
C398 C393 1.363 . S
C398 C397 1.415 . S
C399 H375 0.951 . S
C399 C400 1.366 . S
C399 C401 1.388 . S
C400 C399 1.366 . S
C400 C404 1.385 . S
C401 H376 0.951 . S
C401 C399 1.388 . S
C401 C402 1.366 . S
C402 C401 1.366 . S
C402 C403 1.414 . S
C402 C405 1.499 . S
C403 H377 0.950 1_545 S
C403 C402 1.414 . S
C403 C404 1.374 . S
C404 H378 0.950 1_545 S
C404 C400 1.385 . S
C404 C403 1.374 . S
C405 C402 1.499 . S
C405 C406 1.373 . S
C405 C407 1.389 . S
C406 H379 0.950 . S
C406 C392 1.377 . S
C406 C405 1.373 . S
C407 C391 1.377 . S
C407 C405 1.389 . S
C407 C408 1.524 . S
C408 C407 1.524 . S
C408 C409 1.397 1_545 S
C408 C413 1.363 . S
C409 H380 0.950 . S
C409 C408 1.397 1_565 S
C409 C410 1.334 . S
C410 H381 0.950 . S
C410 C409 1.334 . S
C410 C411 1.259 1_565 S
C411 C410 1.259 1_545 S
C411 C412 1.546 . S
C411 H414 1.012 1_545 S
C412 H382 0.950 . S
C412 C411 1.546 . S
C412 C413 1.415 . S
C413 H383 0.950 . S
C413 C408 1.363 . S
C413 C412 1.415 . S
H414 C411 1.012 1_565 S
H415 C396 0.913 . S
H416 C434 0.951 . S
H417 C436 0.951 . S
H418 C438 0.950 . S
H419 C439 0.950 . S
H420 C441 0.950 . S
H421 C444 0.950 . S
H422 C445 0.950 . S
H423 C447 0.950 . S
H424 C448 0.950 . S
H425 C449 0.951 . S
H426 C451 0.951 . S
H427 C453 0.950 . S
H428 C454 0.950 . S
H429 C456 0.950 . S
H430 C459 0.950 . S
H431 C460 0.950 . S
H432 C462 0.950 . S
H433 C463 0.950 . S
C434 H416 0.951 . S
C434 C435 1.366 . S
C434 C436 1.388 . S
C435 C434 1.366 . S
C435 C439 1.385 . S
C436 H417 0.951 . S
C436 C434 1.388 . S
C436 C437 1.366 . S
C437 C436 1.366 . S
C437 C438 1.414 . S
C437 C440 1.499 . S
C438 H418 0.950 . S
C438 C437 1.414 . S
C438 C439 1.374 . S
C439 H419 0.950 . S
C439 C435 1.385 . S
C439 C438 1.374 . S
C440 C437 1.499 . S
C440 C441 1.373 1_554 S
C440 C442 1.389 . S
C441 H420 0.950 . S
C441 C440 1.373 1_556 S
C441 C457 1.377 . S
C442 C440 1.389 . S
C442 C443 1.524 . S
C442 C456 1.377 1_554 S
C443 C442 1.524 . S
C443 C444 1.397 . S
C443 C448 1.363 . S
C444 H421 0.950 . S
C444 C443 1.397 . S
C444 C445 1.334 . S
C445 H422 0.950 . S
C445 C444 1.334 . S
C445 C446 1.287 . S
C446 C445 1.287 . S
C446 C447 1.524 . S
C446 H465 0.913 . S
C447 H423 0.950 . S
C447 C446 1.524 . S
C447 C448 1.415 . S
C448 H424 0.950 . S
C448 C443 1.363 . S
C448 C447 1.415 . S
C449 H425 0.951 . S
C449 C450 1.366 . S
C449 C451 1.388 . S
C450 C449 1.366 . S
C450 C454 1.385 . S
C451 H426 0.951 . S
C451 C449 1.388 . S
C451 C452 1.366 . S
C452 C451 1.366 . S
C452 C453 1.414 . S
C452 C455 1.499 . S
C453 H427 0.950 . S
C453 C452 1.414 . S
C453 C454 1.374 . S
C454 H428 0.950 . S
C454 C450 1.385 . S
C454 C453 1.374 . S
C455 C452 1.499 . S
C455 C456 1.373 . S
C455 C457 1.389 . S
C456 H429 0.950 . S
C456 C442 1.377 1_556 S
C456 C455 1.373 . S
C457 C441 1.377 . S
C457 C455 1.389 . S
C457 C458 1.524 . S
C458 C457 1.524 . S
C458 C459 1.397 . S
C458 C463 1.363 . S
C459 H430 0.950 . S
C459 C458 1.397 . S
C459 C460 1.334 . S
C460 H431 0.950 . S
C460 C459 1.334 . S
C460 C461 1.287 . S
C461 C460 1.287 . S
C461 C462 1.524 . S
C461 H464 0.999 . S
C462 H432 0.950 . S
C462 C461 1.524 . S
C462 C463 1.415 . S
C463 H433 0.950 . S
C463 C458 1.363 . S
C463 C462 1.415 . S
H464 C461 0.999 . S
H465 C446 0.913 . S
H466 C484 0.951 . S
H467 C486 0.951 . S
H468 C488 0.950 . S
H469 C489 0.931 1_556 S
H470 C491 0.950 . S
H471 C494 0.950 . S
H472 C495 0.950 . S
H473 C497 0.950 . S
H474 C498 0.950 . S
H475 C499 0.951 . S
H476 C501 0.951 . S
H477 C503 0.955 . S
H478 C504 0.957 . S
H479 C506 0.950 . S
H480 C509 0.950 . S
H481 C510 0.950 . S
H482 C512 0.950 . S
H483 C513 0.950 . S
C484 H466 0.951 . S
C484 C485 1.366 1_655 S
C484 C486 1.388 . S
C485 C484 1.366 1_455 S
C485 C489 1.385 . S
C486 H467 0.951 . S
C486 C484 1.388 . S
C486 C487 1.366 1_655 S
C487 C486 1.366 1_455 S
C487 C488 1.414 . S
C487 C490 1.499 . S
C488 H468 0.950 . S
C488 C487 1.414 . S
C488 C489 1.392 . S
C489 H469 0.931 1_554 S
C489 C485 1.385 . S
C489 C488 1.392 . S
C490 C487 1.499 . S
C490 C491 1.373 . S
C490 C492 1.389 1_455 S
C491 H470 0.950 . S
C491 C490 1.373 . S
C491 C507 1.377 . S
C492 C490 1.389 1_655 S
C492 C493 1.524 . S
C492 C506 1.377 . S
C493 C492 1.524 . S
C493 C494 1.397 . S
C493 C498 1.363 . S
C494 H471 0.950 . S
C494 C493 1.397 . S
C494 C495 1.334 . S
C495 H472 0.950 . S
C495 C494 1.334 . S
C495 C496 1.287 . S
C496 C495 1.287 . S
C496 C497 1.524 . S
C496 H515 0.913 . S
C497 H473 0.950 . S
C497 C496 1.524 . S
C497 C498 1.415 . S
C498 H474 0.950 . S
C498 C493 1.363 . S
C498 C497 1.415 . S
C499 H475 0.951 . S
C499 C500 1.366 . S
C499 C501 1.388 . S
C500 C499 1.366 . S
C500 C504 1.382 1_455 S
C501 H476 0.951 . S
C501 C499 1.388 . S
C501 C502 1.366 . S
C502 C501 1.366 . S
C502 C503 1.403 1_455 S
C502 C505 1.499 . S
C503 H477 0.955 . S
C503 C502 1.403 1_655 S
C503 C504 1.377 . S
C504 H478 0.957 . S
C504 C500 1.382 1_655 S
C504 C503 1.377 . S
C505 C502 1.499 . S
C505 C506 1.373 1_455 S
C505 C507 1.389 . S
C506 H479 0.950 . S
C506 C492 1.377 . S
C506 C505 1.373 1_655 S
C507 C491 1.377 . S
C507 C505 1.389 . S
C507 C508 1.524 . S
C508 C507 1.524 . S
C508 C509 1.397 . S
C508 C513 1.363 . S
C509 H480 0.950 . S
C509 C508 1.397 . S
C509 C510 1.334 . S
C510 H481 0.950 . S
C510 C509 1.334 . S
C510 C511 1.287 . S
C511 C510 1.287 . S
C511 C512 1.524 . S
C511 H514 0.999 . S
C512 H482 0.950 . S
C512 C511 1.524 . S
C512 C513 1.415 . S
C513 H483 0.950 . S
C513 C508 1.363 . S
C513 C512 1.415 . S
H514 C511 0.999 . S
H515 C496 0.913 . S
H516 C534 0.951 . S
H517 C536 0.951 . S
H518 C538 0.950 . S
H519 C539 0.950 . S
H520 C541 0.950 . S
H521 C544 0.950 . S
H522 C545 0.950 . S
H523 C547 0.950 . S
H524 C548 0.950 . S
H525 C549 0.951 . S
H526 C551 0.951 . S
H527 C553 0.950 . S
H528 C554 0.950 . S
H529 C556 0.950 . S
H530 C559 0.950 . S
H531 C560 0.950 . S
H532 C562 0.950 . S
H533 C563 0.950 . S
C534 H516 0.951 . S
C534 C535 1.366 . S
C534 C536 1.388 . S
C535 C534 1.366 . S
C535 C539 1.385 . S
C536 H517 0.951 . S
C536 C534 1.388 . S
C536 C537 1.366 . S
C537 C536 1.366 . S
C537 C538 1.414 . S
C537 C540 1.499 . S
C538 H518 0.950 . S
C538 C537 1.414 . S
C538 C539 1.374 . S
C539 H519 0.950 . S
C539 C535 1.385 . S
C539 C538 1.374 . S
C540 C537 1.499 . S
C540 C541 1.373 . S
C540 C542 1.389 . S
C541 H520 0.950 . S
C541 C540 1.373 . S
C541 C557 1.377 . S
C542 C540 1.389 . S
C542 C543 1.524 . S
C542 C556 1.377 . S
C543 C542 1.524 . S
C543 C544 1.397 . S
C543 C548 1.363 . S
C544 H521 0.950 . S
C544 C543 1.397 . S
C544 C545 1.334 . S
C545 H522 0.950 . S
C545 C544 1.334 . S
C545 C546 1.287 . S
C546 C545 1.287 . S
C546 C547 1.524 . S
C546 H565 0.913 . S
C547 H523 0.950 . S
C547 C546 1.524 . S
C547 C548 1.415 . S
C548 H524 0.950 . S
C548 C543 1.363 . S
C548 C547 1.415 . S
C549 H525 0.951 . S
C549 C550 1.366 . S
C549 C551 1.388 . S
C550 C549 1.366 . S
C550 C554 1.385 . S
C551 H526 0.951 . S
C551 C549 1.388 . S
C551 C552 1.366 . S
C552 C551 1.366 . S
C552 C553 1.414 . S
C552 C555 1.499 . S
C553 H527 0.950 . S
C553 C552 1.414 . S
C553 C554 1.374 . S
C554 H528 0.950 . S
C554 C550 1.385 . S
C554 C553 1.374 . S
C555 C552 1.499 . S
C555 C556 1.373 . S
C555 C557 1.389 . S
C556 H529 0.950 . S
C556 C542 1.377 . S
C556 C555 1.373 . S
C557 C541 1.377 . S
C557 C555 1.389 . S
C557 C558 1.524 . S
C558 C557 1.524 . S
C558 C559 1.397 . S
C558 C563 1.363 . S
C559 H530 0.950 . S
C559 C558 1.397 . S
C559 C560 1.334 . S
C560 H531 0.950 . S
C560 C559 1.334 . S
C560 C561 1.287 . S
C561 C560 1.287 . S
C561 C562 1.524 . S
C561 H564 0.999 . S
C562 H532 0.950 . S
C562 C561 1.524 . S
C562 C563 1.415 . S
C563 H533 0.950 . S
C563 C558 1.363 . S
C563 C562 1.415 . S
H564 C561 0.999 . S
H565 C546 0.913 . S
H566 C584 0.951 . S
H567 C586 0.951 . S
H568 C588 0.950 . S
H569 C589 0.950 . S
H570 C591 0.950 . S
H571 C594 0.950 . S
H572 C595 0.950 . S
H573 C597 0.950 . S
H574 C598 0.950 . S
H575 C599 0.951 . S
H576 C601 0.951 . S
H577 C603 0.950 . S
H578 C604 0.950 . S
H579 C606 0.950 . S
H580 C609 0.950 . S
H581 C610 0.950 . S
H582 C612 0.950 . S
H583 C613 0.950 . S
C584 H566 0.951 . S
C584 C585 1.366 . S
C584 C586 1.388 . S
C585 C584 1.366 . S
C585 C589 1.385 . S
C586 H567 0.951 . S
C586 C584 1.388 . S
C586 C587 1.366 . S
C587 C586 1.366 . S
C587 C588 1.414 . S
C587 C590 1.499 . S
C588 H568 0.950 . S
C588 C587 1.414 . S
C588 C589 1.374 . S
C589 H569 0.950 . S
C589 C585 1.385 . S
C589 C588 1.374 . S
C590 C587 1.499 . S
C590 C591 1.373 . S
C590 C592 1.389 . S
C591 H570 0.950 . S
C591 C590 1.373 . S
C591 C607 1.377 . S
C592 C590 1.389 . S
C592 C593 1.524 . S
C592 C606 1.377 . S
C593 C592 1.524 . S
C593 C594 1.397 . S
C593 C598 1.363 . S
C594 H571 0.950 . S
C594 C593 1.397 . S
C594 C595 1.334 . S
C595 H572 0.950 . S
C595 C594 1.334 . S
C595 C596 1.287 . S
C596 C595 1.287 . S
C596 C597 1.524 . S
C596 H615 0.913 . S
C597 H573 0.950 . S
C597 C596 1.524 . S
C597 C598 1.415 . S
C598 H574 0.950 . S
C598 C593 1.363 . S
C598 C597 1.415 . S
C599 H575 0.951 . S
C599 C600 1.366 . S
C599 C601 1.388 . S
C600 C599 1.366 . S
C600 C604 1.385 . S
C601 H576 0.951 . S
C601 C599 1.388 . S
C601 C602 1.366 . S
C602 C601 1.366 . S
C602 C603 1.414 . S
C602 C605 1.499 . S
C603 H577 0.950 . S
C603 C602 1.414 . S
C603 C604 1.374 . S
C604 H578 0.950 . S
C604 C600 1.385 . S
C604 C603 1.374 . S
C605 C602 1.499 . S
C605 C606 1.373 . S
C605 C607 1.389 . S
C606 H579 0.950 . S
C606 C592 1.377 . S
C606 C605 1.373 . S
C607 C591 1.377 . S
C607 C605 1.389 . S
C607 C608 1.524 . S
C608 C607 1.524 . S
C608 C609 1.397 . S
C608 C613 1.363 . S
C609 H580 0.950 . S
C609 C608 1.397 . S
C609 C610 1.334 . S
C610 H581 0.950 . S
C610 C609 1.334 . S
C610 C611 1.287 . S
C611 C610 1.287 . S
C611 C612 1.524 . S
C611 H614 0.999 . S
C612 H582 0.950 . S
C612 C611 1.524 . S
C612 C613 1.415 . S
C613 H583 0.950 . S
C613 C608 1.363 . S
C613 C612 1.415 . S
H614 C611 0.999 . S
H615 C596 0.913 . S
H616 C634 0.951 . S
H617 C636 0.951 . S
H618 C638 0.950 . S
H619 C639 0.950 . S
H620 C641 0.950 . S
H621 C644 0.950 . S
H622 C645 0.950 . S
H623 C647 0.950 . S
H624 C648 0.950 . S
H625 C649 0.951 . S
H626 C651 0.951 . S
H627 C653 0.950 . S
H628 C654 0.950 . S
H629 C656 0.950 . S
H630 C659 0.950 . S
H631 C660 0.950 . S
H632 C662 0.950 . S
H633 C663 0.950 . S
C634 H616 0.951 . S
C634 C635 1.366 . S
C634 C636 1.388 . S
C635 C634 1.366 . S
C635 C639 1.385 . S
C636 H617 0.951 . S
C636 C634 1.388 . S
C636 C637 1.366 . S
C637 C636 1.366 . S
C637 C638 1.414 . S
C637 C640 1.499 . S
C638 H618 0.950 . S
C638 C637 1.414 . S
C638 C639 1.374 . S
C639 H619 0.950 . S
C639 C635 1.385 . S
C639 C638 1.374 . S
C640 C637 1.499 . S
C640 C641 1.373 . S
C640 C642 1.389 . S
C641 H620 0.950 . S
C641 C640 1.373 . S
C641 C657 1.377 . S
C642 C640 1.389 . S
C642 C643 1.524 . S
C642 C656 1.377 . S
C643 C642 1.524 . S
C643 C644 1.397 . S
C643 C648 1.363 . S
C644 H621 0.950 . S
C644 C643 1.397 . S
C644 C645 1.334 . S
C645 H622 0.950 . S
C645 C644 1.334 . S
C645 C646 1.287 . S
C646 C645 1.287 . S
C646 C647 1.524 . S
C646 H665 0.913 . S
C647 H623 0.950 . S
C647 C646 1.524 . S
C647 C648 1.415 . S
C648 H624 0.950 . S
C648 C643 1.363 . S
C648 C647 1.415 . S
C649 H625 0.951 . S
C649 C650 1.366 . S
C649 C651 1.388 . S
C650 C649 1.366 . S
C650 C654 1.385 . S
C651 H626 0.951 . S
C651 C649 1.388 . S
C651 C652 1.366 . S
C652 C651 1.366 . S
C652 C653 1.414 . S
C652 C655 1.499 . S
C653 H627 0.950 . S
C653 C652 1.414 . S
C653 C654 1.374 . S
C654 H628 0.950 . S
C654 C650 1.385 . S
C654 C653 1.374 . S
C655 C652 1.499 . S
C655 C656 1.373 . S
C655 C657 1.389 . S
C656 H629 0.950 . S
C656 C642 1.377 . S
C656 C655 1.373 . S
C657 C641 1.377 . S
C657 C655 1.389 . S
C657 C658 1.524 . S
C658 C657 1.524 . S
C658 C659 1.397 . S
C658 C663 1.363 . S
C659 H630 0.950 . S
C659 C658 1.397 . S
C659 C660 1.334 . S
C660 H631 0.950 . S
C660 C659 1.334 . S
C660 C661 1.287 . S
C661 C660 1.287 . S
C661 C662 1.524 . S
C661 H664 0.999 . S
C662 H632 0.950 . S
C662 C661 1.524 . S
C662 C663 1.415 . S
C663 H633 0.950 . S
C663 C658 1.363 . S
C663 C662 1.415 . S
H664 C661 0.999 . S
H665 C646 0.913 . S
H666 C684 0.951 . S
H667 C686 0.951 . S
H668 C688 0.950 . S
H669 C689 0.950 . S
H670 C691 0.950 . S
H671 C694 0.950 . S
H672 C695 0.950 . S
H673 C697 0.950 . S
H674 C698 0.950 . S
H675 C699 0.951 . S
H676 C701 0.951 . S
H677 C703 0.950 . S
H678 C704 0.950 . S
H679 C706 0.950 . S
H680 C709 0.950 . S
H681 C710 0.950 . S
H682 C712 0.950 . S
H683 C713 0.950 . S
C684 H666 0.951 . S
C684 C685 1.366 . S
C684 C686 1.388 . S
C685 C684 1.366 . S
C685 C689 1.385 . S
C686 H667 0.951 . S
C686 C684 1.388 . S
C686 C687 1.366 . S
C687 C686 1.366 . S
C687 C688 1.414 . S
C687 C690 1.499 . S
C688 H668 0.950 . S
C688 C687 1.414 . S
C688 C689 1.374 . S
C689 H669 0.950 . S
C689 C685 1.385 . S
C689 C688 1.374 . S
C690 C687 1.499 . S
C690 C691 1.373 . S
C690 C692 1.389 . S
C691 H670 0.950 . S
C691 C690 1.373 . S
C691 C707 1.377 . S
C692 C690 1.389 . S
C692 C693 1.524 . S
C692 C706 1.377 . S
C693 C692 1.524 . S
C693 C694 1.397 . S
C693 C698 1.363 . S
C694 H671 0.950 . S
C694 C693 1.397 . S
C694 C695 1.334 . S
C695 H672 0.950 . S
C695 C694 1.334 . S
C695 C696 1.287 . S
C696 C695 1.287 . S
C696 C697 1.524 . S
C696 H715 0.913 . S
C697 H673 0.950 . S
C697 C696 1.524 . S
C697 C698 1.415 . S
C698 H674 0.950 . S
C698 C693 1.363 . S
C698 C697 1.415 . S
C699 H675 0.951 . S
C699 C700 1.366 . S
C699 C701 1.388 . S
C700 C699 1.366 . S
C700 C704 1.385 . S
C701 H676 0.951 . S
C701 C699 1.388 . S
C701 C702 1.366 . S
C702 C701 1.366 . S
C702 C703 1.414 . S
C702 C705 1.499 . S
C703 H677 0.950 . S
C703 C702 1.414 . S
C703 C704 1.374 . S
C704 H678 0.950 . S
C704 C700 1.385 . S
C704 C703 1.374 . S
C705 C702 1.499 . S
C705 C706 1.373 . S
C705 C707 1.389 . S
C706 H679 0.950 . S
C706 C692 1.377 . S
C706 C705 1.373 . S
C707 C691 1.377 . S
C707 C705 1.389 . S
C707 C708 1.524 . S
C708 C707 1.524 . S
C708 C709 1.397 . S
C708 C713 1.363 . S
C709 H680 0.950 . S
C709 C708 1.397 . S
C709 C710 1.334 . S
C710 H681 0.950 . S
C710 C709 1.334 . S
C710 C711 1.287 . S
C711 C710 1.287 . S
C711 C712 1.524 . S
C711 H714 0.999 . S
C712 H682 0.950 . S
C712 C711 1.524 . S
C712 C713 1.415 . S
C713 H683 0.950 . S
C713 C708 1.363 . S
C713 C712 1.415 . S
H714 C711 0.999 . S
H715 C696 0.913 . S
H716 C734 0.951 . S
H717 C736 0.951 . S
H718 C738 0.950 . S
H719 C739 0.950 . S
H720 C741 0.950 . S
H721 C744 0.950 . S
H722 C745 0.950 . S
H723 C747 0.950 . S
H724 C748 0.950 . S
H725 C749 0.951 . S
H726 C751 0.951 . S
H727 C753 0.950 . S
H728 C754 0.950 . S
H729 C756 0.950 . S
H730 C759 0.950 . S
H731 C760 0.950 . S
H732 C762 0.950 . S
H733 C763 0.950 . S
C734 H716 0.951 . S
C734 C735 1.366 . S
C734 C736 1.388 . S
C735 C734 1.366 . S
C735 C739 1.385 . S
C736 H717 0.951 . S
C736 C734 1.388 . S
C736 C737 1.366 . S
C737 C736 1.366 . S
C737 C738 1.414 . S
C737 C740 1.499 . S
C738 H718 0.950 . S
C738 C737 1.414 . S
C738 C739 1.374 . S
C739 H719 0.950 . S
C739 C735 1.385 . S
C739 C738 1.374 . S
C740 C737 1.499 . S
C740 C741 1.373 . S
C740 C742 1.389 . S
C741 H720 0.950 . S
C741 C740 1.373 . S
C741 C757 1.377 . S
C742 C740 1.389 . S
C742 C743 1.524 . S
C742 C756 1.377 . S
C743 C742 1.524 . S
C743 C744 1.397 . S
C743 C748 1.363 . S
C744 H721 0.950 . S
C744 C743 1.397 . S
C744 C745 1.334 . S
C745 H722 0.950 . S
C745 C744 1.334 . S
C745 C746 1.287 . S
C746 C745 1.287 . S
C746 C747 1.524 . S
C746 H765 0.913 . S
C747 H723 0.950 . S
C747 C746 1.524 . S
C747 C748 1.415 . S
C748 H724 0.950 . S
C748 C743 1.363 . S
C748 C747 1.415 . S
C749 H725 0.951 . S
C749 C750 1.366 . S
C749 C751 1.388 . S
C750 C749 1.366 . S
C750 C754 1.385 . S
C751 H726 0.951 . S
C751 C749 1.388 . S
C751 C752 1.366 . S
C752 C751 1.366 . S
C752 C753 1.414 . S
C752 C755 1.499 . S
C753 H727 0.950 . S
C753 C752 1.414 . S
C753 C754 1.374 . S
C754 H728 0.950 . S
C754 C750 1.385 . S
C754 C753 1.374 . S
C755 C752 1.499 . S
C755 C756 1.373 . S
C755 C757 1.389 . S
C756 H729 0.950 . S
C756 C742 1.377 . S
C756 C755 1.373 . S
C757 C741 1.377 . S
C757 C755 1.389 . S
C757 C758 1.524 . S
C758 C757 1.524 . S
C758 C759 1.397 . S
C758 C763 1.363 . S
C759 H730 0.950 . S
C759 C758 1.397 . S
C759 C760 1.334 . S
C760 H731 0.950 . S
C760 C759 1.334 . S
C760 C761 1.287 . S
C761 C760 1.287 . S
C761 C762 1.524 . S
C761 H764 0.999 . S
C762 H732 0.950 . S
C762 C761 1.524 . S
C762 C763 1.415 . S
C763 H733 0.950 . S
C763 C758 1.363 . S
C763 C762 1.415 . S
H764 C761 0.999 . S
H765 C746 0.913 . S
H766 C784 0.951 . S
H767 C786 0.951 . S
H768 C788 0.950 1_554 S
H769 C789 0.950 . S
H770 C791 0.950 . S
H771 C794 0.950 . S
H772 C795 0.950 . S
H773 C797 0.950 . S
H774 C798 0.950 . S
H775 C799 0.951 . S
H776 C801 0.951 . S
H777 C803 0.950 . S
H778 C804 0.964 . S
H779 C806 0.950 . S
H780 C809 0.950 . S
H781 C810 0.950 . S
H782 C812 0.950 . S
H783 C813 0.950 . S
C784 H766 0.951 . S
C784 C785 1.366 . S
C784 C786 1.388 . S
C785 C784 1.366 . S
C785 C789 1.385 . S
C786 H767 0.951 . S
C786 C784 1.388 . S
C786 C787 1.366 . S
C787 C786 1.366 . S
C787 C788 1.414 . S
C787 C790 1.499 . S
C788 H768 0.950 1_556 S
C788 C787 1.414 . S
C788 C789 1.374 . S
C789 H769 0.950 . S
C789 C785 1.385 . S
C789 C788 1.374 . S
C790 C787 1.499 . S
C790 C791 1.373 1_556 S
C790 C792 1.389 . S
C791 H770 0.950 . S
C791 C790 1.373 1_554 S
C791 C807 1.377 . S
C792 C790 1.389 . S
C792 C793 1.524 . S
C792 C806 1.377 . S
C793 C792 1.524 . S
C793 C794 1.397 . S
C793 C798 1.363 . S
C794 H771 0.950 . S
C794 C793 1.397 . S
C794 C795 1.334 . S
C795 H772 0.950 . S
C795 C794 1.334 . S
C795 C796 1.287 . S
C796 C795 1.287 . S
C796 C797 1.524 . S
C796 H815 0.913 . S
C797 H773 0.950 . S
C797 C796 1.524 . S
C797 C798 1.415 . S
C798 H774 0.950 . S
C798 C793 1.363 . S
C798 C797 1.415 . S
C799 H775 0.951 . S
C799 C800 1.366 . S
C799 C801 1.388 . S
C800 C799 1.366 . S
C800 C804 1.364 1_554 S
C801 H776 0.951 . S
C801 C799 1.388 . S
C801 C802 1.366 . S
C802 C801 1.366 . S
C802 C803 1.414 1_554 S
C802 C805 1.499 1_554 S
C803 H777 0.950 . S
C803 C802 1.414 1_556 S
C803 C804 1.381 . S
C804 H778 0.964 . S
C804 C800 1.364 1_556 S
C804 C803 1.381 . S
C805 C802 1.499 1_556 S
C805 C806 1.373 . S
C805 C807 1.389 1_556 S
C806 H779 0.950 . S
C806 C792 1.377 . S
C806 C805 1.373 . S
C807 C791 1.377 . S
C807 C805 1.389 1_554 S
C807 C808 1.524 . S
C808 C807 1.524 . S
C808 C809 1.397 . S
C808 C813 1.363 . S
C809 H780 0.950 . S
C809 C808 1.397 . S
C809 C810 1.334 . S
C810 H781 0.950 . S
C810 C809 1.334 . S
C810 C811 1.287 . S
C811 C810 1.287 . S
C811 C812 1.524 . S
C811 H814 0.999 . S
C812 H782 0.950 . S
C812 C811 1.524 . S
C812 C813 1.415 . S
C813 H783 0.950 . S
C813 C808 1.363 . S
C813 C812 1.415 . S
H814 C811 0.999 . S
H815 C796 0.913 . S
C235 C2 1.617 . S
C250 C112 1.622 . S
C285 C38 1.617 . S
C300 C148 1.622 . S
C335 C184 1.623 . S
C350 C74 1.617 . S
C385 C4 1.622 . S
C400 C110 1.617 . S
C435 C40 1.623 . S
C450 C146 1.617 . S
C485 C182 1.617 1_554 S
C500 C76 1.622 . S
C535 C50 1.262 . S
C550 C3 1.330 . S
C585 C86 1.263 . S
C600 C39 1.329 . S
C635 C75 1.330 . S
C650 C122 1.263 . S
C685 C158 1.262 . S
C700 C111 1.330 . S
C735 C194 1.262 . S
C750 C147 1.330 . S
C785 C183 1.330 . S
C800 C14 1.262 . S
