# Generated by pormake.
# Topology neb, (4)-cn, num edge types: 1
# Building blocks:
#     Node 0, Type 0, BuildingBlock: TATPOV_clean_sbu_0, # of connection points: 4
#     Node 1, Type 0, BuildingBlock: TATPOV_clean_sbu_0, # of connection points: 4
#     Node 2, Type 0, BuildingBlock: TATPOV_clean_sbu_0, # of connection points: 4
#     Node 3, Type 0, BuildingBlock: TATPOV_clean_sbu_0, # of connection points: 4
#     Node 4, Type 0, BuildingBlock: TATPOV_clean_sbu_0, # of connection points: 4
#     Node 5, Type 0, BuildingBlock: TATPOV_clean_sbu_0, # of connection points: 4
#     Node 6, Type 0, BuildingBlock: TATPOV_clean_sbu_0, # of connection points: 4
#     Node 7, Type 0, BuildingBlock: TATPOV_clean_sbu_0, # of connection points: 4
#     Node 8, Type 0, BuildingBlock: TATPOV_clean_sbu_0, # of connection points: 4
#     Node 9, Type 0, BuildingBlock: TATPOV_clean_sbu_0, # of connection points: 4
#     Node 10, Type 0, BuildingBlock: TATPOV_clean_sbu_0, # of connection points: 4
#     Node 11, Type 0, BuildingBlock: TATPOV_clean_sbu_0, # of connection points: 4
#     Node 12, Type 0, BuildingBlock: TATPOV_clean_sbu_0, # of connection points: 4
#     Node 13, Type 0, BuildingBlock: TATPOV_clean_sbu_0, # of connection points: 4
#     Node 14, Type 0, BuildingBlock: TATPOV_clean_sbu_0, # of connection points: 4
#     Node 15, Type 0, BuildingBlock: TATPOV_clean_sbu_0, # of connection points: 4
#     Edge 16, Type (0, 0), BuildingBlock: MIFKUJ_clean_linker_0, # of connection points: 2
#     Edge 17, Type (0, 0), BuildingBlock: MIFKUJ_clean_linker_0, # of connection points: 2
#     Edge 18, Type (0, 0), BuildingBlock: MIFKUJ_clean_linker_0, # of connection points: 2
#     Edge 19, Type (0, 0), BuildingBlock: MIFKUJ_clean_linker_0, # of connection points: 2
#     Edge 20, Type (0, 0), BuildingBlock: MIFKUJ_clean_linker_0, # of connection points: 2
#     Edge 21, Type (0, 0), BuildingBlock: MIFKUJ_clean_linker_0, # of connection points: 2
#     Edge 22, Type (0, 0), BuildingBlock: MIFKUJ_clean_linker_0, # of connection points: 2
#     Edge 23, Type (0, 0), BuildingBlock: MIFKUJ_clean_linker_0, # of connection points: 2
#     Edge 24, Type (0, 0), BuildingBlock: MIFKUJ_clean_linker_0, # of connection points: 2
#     Edge 25, Type (0, 0), BuildingBlock: MIFKUJ_clean_linker_0, # of connection points: 2
#     Edge 26, Type (0, 0), BuildingBlock: MIFKUJ_clean_linker_0, # of connection points: 2
#     Edge 27, Type (0, 0), BuildingBlock: MIFKUJ_clean_linker_0, # of connection points: 2
#     Edge 28, Type (0, 0), BuildingBlock: MIFKUJ_clean_linker_0, # of connection points: 2
#     Edge 29, Type (0, 0), BuildingBlock: MIFKUJ_clean_linker_0, # of connection points: 2
#     Edge 30, Type (0, 0), BuildingBlock: MIFKUJ_clean_linker_0, # of connection points: 2
#     Edge 31, Type (0, 0), BuildingBlock: MIFKUJ_clean_linker_0, # of connection points: 2
#     Edge 32, Type (0, 0), BuildingBlock: MIFKUJ_clean_linker_0, # of connection points: 2
#     Edge 33, Type (0, 0), BuildingBlock: MIFKUJ_clean_linker_0, # of connection points: 2
#     Edge 34, Type (0, 0), BuildingBlock: MIFKUJ_clean_linker_0, # of connection points: 2
#     Edge 35, Type (0, 0), BuildingBlock: MIFKUJ_clean_linker_0, # of connection points: 2
#     Edge 36, Type (0, 0), BuildingBlock: MIFKUJ_clean_linker_0, # of connection points: 2
#     Edge 37, Type (0, 0), BuildingBlock: MIFKUJ_clean_linker_0, # of connection points: 2
#     Edge 38, Type (0, 0), BuildingBlock: MIFKUJ_clean_linker_0, # of connection points: 2
#     Edge 39, Type (0, 0), BuildingBlock: MIFKUJ_clean_linker_0, # of connection points: 2
#     Edge 40, Type (0, 0), BuildingBlock: MIFKUJ_clean_linker_0, # of connection points: 2
#     Edge 41, Type (0, 0), BuildingBlock: MIFKUJ_clean_linker_0, # of connection points: 2
#     Edge 42, Type (0, 0), BuildingBlock: MIFKUJ_clean_linker_0, # of connection points: 2
#     Edge 43, Type (0, 0), BuildingBlock: MIFKUJ_clean_linker_0, # of connection points: 2
#     Edge 44, Type (0, 0), BuildingBlock: MIFKUJ_clean_linker_0, # of connection points: 2
#     Edge 45, Type (0, 0), BuildingBlock: MIFKUJ_clean_linker_0, # of connection points: 2
#     Edge 46, Type (0, 0), BuildingBlock: MIFKUJ_clean_linker_0, # of connection points: 2
#     Edge 47, Type (0, 0), BuildingBlock: MIFKUJ_clean_linker_0, # of connection points: 2
# Relax obj value: 0.062
# Max RMSD: 0.119
# Mean RMSD: 0.119
data_MOF--net-neb--node1-TATPOV_clean_sbu_0--edge1-MIFKUJ_clean_linker_0
_symmetry_space_group_name_H-M    P1
_symmetry_Int_Tables_number       1
_symmetry_cell_setting            triclinic
loop_
_symmetry_equiv_pos_as_xyz
'x, y, z'
_cell_length_a     59.572185
_cell_length_b     28.251995
_cell_length_c     91.852703
_cell_angle_alpha  89.993541
_cell_angle_beta   94.364951
_cell_angle_gamma 89.97654
loop_
_atom_site_label
_atom_site_type_symbol
_atom_site_fract_x
_atom_site_fract_y
_atom_site_fract_z
_atom_type_partial_charge
Zn0 Zn 0.17812 0.01651 0.44098 0.0
Zn1 Zn 0.13864 0.02821 0.45071 0.0
O2 O 0.16159 0.06232 0.46583 0.0
O3 O 0.19477 0.04493 0.45826 0.0
O4 O 0.10821 0.02727 0.45984 0.0
O5 O 0.17641 0.94699 0.43858 0.0
O6 O 0.14221 0.95658 0.4455 0.0
C7 C 0.18308 0.06521 0.46733 0.0
C8 C 0.14833 0.07629 0.42241 0.0
O9 O 0.13413 0.06812 0.43184 0.0
O10 O 0.1679 0.05853 0.42402 0.0
C11 C 0.10393 0.0459 0.47196 0.0
O12 O 0.1197 0.07038 0.47935 0.0
C13 C 0.15747 0.92977 0.44093 0.0
Zn14 Zn 0.08095 0.01208 0.81405 0.0
Zn15 Zn 0.11969 0.01759 0.80275 0.0
O16 O 0.09598 0.04683 0.78714 0.0
O17 O 0.06336 0.03443 0.79621 0.0
O18 O 0.14873 0.0117 0.79234 0.0
O19 O 0.08276 0.94364 0.81891 0.0
O20 O 0.11624 0.94867 0.81053 0.0
C21 C 0.0745 0.05028 0.78611 0.0
C22 C 0.11274 0.07658 0.82944 0.0
O23 O 0.12617 0.06364 0.82001 0.0
O24 O 0.09292 0.06003 0.82897 0.0
C25 C 0.15875 0.04473 0.78598 0.0
O26 O 0.15036 0.08774 0.78597 0.0
C27 C 0.10131 0.9246 0.81653 0.0
Zn28 Zn 0.82294 0.96508 0.57097 0.0
Zn29 Zn 0.86126 0.96084 0.55929 0.0
O30 O 0.83881 0.92261 0.54482 0.0
O31 O 0.80686 0.92785 0.55525 0.0
O32 O 0.8911 0.9654 0.54954 0.0
O33 O 0.82073 0.03492 0.57109 0.0
O34 O 0.85471 0.03227 0.56336 0.0
C35 C 0.81787 0.9126 0.54501 0.0
C36 C 0.85677 0.91677 0.58933 0.0
O37 O 0.86887 0.92412 0.57865 0.0
O38 O 0.83668 0.93167 0.58871 0.0
C39 C 0.89554 0.94618 0.53753 0.0
O40 O 0.88029 0.91923 0.53058 0.0
C41 C 0.83829 0.0561 0.56776 0.0
Zn42 Zn 0.93452 0.97768 0.19026 0.0
Zn43 Zn 0.89627 0.96748 0.20208 0.0
O44 O 0.92101 0.93449 0.21617 0.0
O45 O 0.95321 0.95034 0.20696 0.0
O46 O 0.86801 0.96563 0.21344 0.0
O47 O 0.93181 0.04723 0.18777 0.0
O48 O 0.8987 0.03902 0.19653 0.0
C49 C 0.94248 0.93125 0.21675 0.0
C50 C 0.90226 0.91801 0.17342 0.0
O51 O 0.88934 0.92735 0.18352 0.0
O52 O 0.92204 0.93477 0.17402 0.0
C53 C 0.84968 0.98529 0.2086 0.0
O54 O 0.84876 0.00575 0.19572 0.0
C55 C 0.9134 0.0651 0.19102 0.0
Zn56 Zn 0.19 0.51132 0.94078 0.0
Zn57 Zn 0.15068 0.51757 0.95136 0.0
O58 O 0.17385 0.54751 0.96719 0.0
O59 O 0.2069 0.53412 0.95881 0.0
O60 O 0.12077 0.51319 0.96095 0.0
O61 O 0.18828 0.44279 0.93616 0.0
O62 O 0.15438 0.44822 0.94392 0.0
C63 C 0.19533 0.55072 0.96859 0.0
C64 C 0.159 0.57525 0.92456 0.0
O65 O 0.14518 0.56273 0.93381 0.0
O66 O 0.17884 0.55874 0.92544 0.0
C67 C 0.11478 0.53913 0.97132 0.0
O68 O 0.12829 0.57304 0.97639 0.0
C69 C 0.16959 0.42391 0.93826 0.0
Zn70 Zn 0.07755 0.51704 0.31612 0.0
Zn71 Zn 0.11709 0.52984 0.30651 0.0
O72 O 0.09395 0.56314 0.29139 0.0
O73 O 0.06073 0.54526 0.2988 0.0
O74 O 0.14714 0.53303 0.29711 0.0
O75 O 0.08034 0.44746 0.31831 0.0
O76 O 0.11461 0.4579 0.31158 0.0
C77 C 0.07246 0.56565 0.28977 0.0
C78 C 0.10698 0.57683 0.3349 0.0
O79 O 0.12121 0.56917 0.32545 0.0
O80 O 0.08746 0.5589 0.33322 0.0
C81 C 0.14859 0.51606 0.28436 0.0
O82 O 0.13044 0.49811 0.27744 0.0
C83 C 0.09944 0.43073 0.31609 0.0
Zn84 Zn 0.82973 0.47713 0.06673 0.0
Zn85 Zn 0.8698 0.46957 0.05724 0.0
O86 O 0.8477 0.43635 0.04145 0.0
O87 O 0.81404 0.44939 0.04898 0.0
O88 O 0.90033 0.47253 0.04834 0.0
O89 O 0.83062 0.5466 0.06949 0.0
O90 O 0.8652 0.54052 0.0629 0.0
C91 C 0.82629 0.43196 0.0397 0.0
C92 C 0.86025 0.41831 0.08511 0.0
O93 O 0.87443 0.42831 0.07583 0.0
O94 O 0.84039 0.43459 0.08348 0.0
C95 C 0.90643 0.4467 0.03797 0.0
O96 O 0.89273 0.41359 0.03257 0.0
C97 C 0.8493 0.56561 0.06745 0.0
Zn98 Zn 0.93575 0.46233 0.68394 0.0
Zn99 Zn 0.89936 0.45654 0.69811 0.0
O100 O 0.92411 0.41836 0.71074 0.0
O101 O 0.95474 0.42758 0.69906 0.0
O102 O 0.87216 0.45723 0.71045 0.0
O103 O 0.93604 0.53241 0.68331 0.0
O104 O 0.90417 0.52841 0.69383 0.0
C105 C 0.94508 0.41052 0.70965 0.0
C106 C 0.89943 0.41238 0.6679 0.0
O107 O 0.88885 0.42056 0.67921 0.0
O108 O 0.91951 0.42662 0.66737 0.0
C109 C 0.85366 0.4763 0.70567 0.0
O110 O 0.85213 0.49449 0.69246 0.0
C111 C 0.91918 0.55285 0.68802 0.0
Zn112 Zn 0.68742 0.02657 0.9385 0.0
Zn113 Zn 0.64848 0.04283 0.94892 0.0
O114 O 0.67328 0.07406 0.96338 0.0
O115 O 0.70579 0.05411 0.95528 0.0
O116 O 0.61986 0.04701 0.9599 0.0
O117 O 0.68357 0.95687 0.93676 0.0
O118 O 0.64944 0.97132 0.94323 0.0
C119 C 0.69481 0.07526 0.96455 0.0
C120 C 0.65739 0.08915 0.92045 0.0
O121 O 0.64357 0.08297 0.93025 0.0
O122 O 0.67652 0.06922 0.92165 0.0
C123 C 0.60154 0.02702 0.95521 0.0
O124 O 0.60067 0.00526 0.94254 0.0
C125 C 0.66402 0.94246 0.93889 0.0
Zn126 Zn 0.57211 0.02034 0.31296 0.0
Zn127 Zn 0.61092 0.0339 0.30206 0.0
O128 O 0.58643 0.06674 0.28777 0.0
O129 O 0.55392 0.04859 0.29619 0.0
O130 O 0.63961 0.03753 0.29114 0.0
O131 O 0.57539 0.95062 0.31486 0.0
O132 O 0.60903 0.96203 0.30719 0.0
C133 C 0.56492 0.0691 0.2868 0.0
C134 C 0.60303 0.08066 0.33078 0.0
O135 O 0.61658 0.07309 0.32091 0.0
O136 O 0.58352 0.06252 0.32969 0.0
C137 C 0.6579 0.01778 0.29601 0.0
O138 O 0.65859 0.99629 0.30872 0.0
C139 C 0.59434 0.93442 0.31203 0.0
Zn140 Zn 0.32815 0.98269 0.06246 0.0
Zn141 Zn 0.36643 0.9687 0.0517 0.0
O142 O 0.34219 0.932 0.03817 0.0
O143 O 0.30978 0.9492 0.04686 0.0
O144 O 0.3949 0.96539 0.04055 0.0
O145 O 0.32959 0.05264 0.06276 0.0
O146 O 0.3637 0.04131 0.05589 0.0
C147 C 0.32076 0.92771 0.03766 0.0
C148 C 0.35969 0.92721 0.0813 0.0
O149 O 0.37282 0.93217 0.07105 0.0
O150 O 0.34026 0.94575 0.08015 0.0
C151 C 0.41302 0.98641 0.0451 0.0
O152 O 0.41372 0.00876 0.05767 0.0
C153 C 0.34849 0.06915 0.05999 0.0
Zn154 Zn 0.43769 0.9688 0.6845 0.0
Zn155 Zn 0.39875 0.96692 0.69539 0.0
O156 O 0.42134 0.93475 0.71115 0.0
O157 O 0.45436 0.94356 0.70227 0.0
O158 O 0.36941 0.97431 0.70541 0.0
O159 O 0.43772 0.03744 0.6802 0.0
O160 O 0.40398 0.03625 0.68833 0.0
C161 C 0.44271 0.92898 0.71229 0.0
C162 C 0.40503 0.90973 0.66809 0.0
O163 O 0.39179 0.92302 0.6776 0.0
O164 O 0.42526 0.92394 0.66891 0.0
C165 C 0.35913 0.9416 0.71174 0.0
O166 O 0.3674 0.89847 0.71192 0.0
C167 C 0.41971 0.05869 0.68259 0.0
Zn168 Zn 0.68162 0.51792 0.43092 0.0
Zn169 Zn 0.64574 0.53066 0.44503 0.0
O170 O 0.67184 0.56317 0.45805 0.0
O171 O 0.70142 0.5536 0.4454 0.0
O172 O 0.61838 0.53396 0.45724 0.0
O173 O 0.68053 0.44779 0.43143 0.0
O174 O 0.64771 0.45843 0.44034 0.0
C175 C 0.69275 0.57001 0.45648 0.0
C176 C 0.64733 0.57234 0.41458 0.0
O177 O 0.63716 0.56953 0.4263 0.0
O178 O 0.66611 0.55193 0.41373 0.0
C179 C 0.59989 0.51425 0.45275 0.0
O180 O 0.59852 0.49328 0.43994 0.0
C181 C 0.66232 0.43089 0.43535 0.0
Zn182 Zn 0.5843 0.5268 0.81805 0.0
Zn183 Zn 0.62011 0.53812 0.80371 0.0
O184 O 0.59414 0.57101 0.79073 0.0
O185 O 0.56444 0.56163 0.80331 0.0
O186 O 0.6472 0.5395 0.79128 0.0
O187 O 0.58504 0.45677 0.81805 0.0
O188 O 0.61794 0.46628 0.80914 0.0
C189 C 0.57322 0.57787 0.79225 0.0
C190 C 0.61909 0.58213 0.83373 0.0
O191 O 0.629 0.57873 0.82193 0.0
O192 O 0.60043 0.56164 0.83495 0.0
C193 C 0.66588 0.52097 0.79596 0.0
O194 O 0.66764 0.50247 0.80913 0.0
C195 C 0.60327 0.43934 0.81434 0.0
Zn196 Zn 0.32711 0.47634 0.56263 0.0
Zn197 Zn 0.36404 0.46732 0.54949 0.0
O198 O 0.33849 0.43487 0.53581 0.0
O199 O 0.30739 0.44833 0.54662 0.0
O200 O 0.3917 0.46597 0.53751 0.0
O201 O 0.32911 0.54586 0.56479 0.0
O202 O 0.36175 0.5389 0.55532 0.0
C203 C 0.31714 0.43076 0.53615 0.0
C204 C 0.36038 0.41706 0.57841 0.0
O205 O 0.37218 0.42613 0.56771 0.0
O206 O 0.34079 0.43436 0.57868 0.0
C207 C 0.41015 0.48552 0.54217 0.0
O208 O 0.41144 0.50563 0.55511 0.0
C209 C 0.34711 0.56443 0.56111 0.0
Zn210 Zn 0.43085 0.47679 0.18453 0.0
Zn211 Zn 0.39137 0.46782 0.19485 0.0
O212 O 0.4144 0.435 0.21013 0.0
O213 O 0.44756 0.45023 0.20216 0.0
O214 O 0.36138 0.46628 0.20436 0.0
O215 O 0.42834 0.54621 0.18163 0.0
O216 O 0.39462 0.53943 0.1896 0.0
C217 C 0.43587 0.43175 0.21157 0.0
C218 C 0.40038 0.41724 0.16664 0.0
O219 O 0.38649 0.42757 0.17608 0.0
O220 O 0.42029 0.43324 0.16803 0.0
C221 C 0.36004 0.4836 0.21708 0.0
O222 O 0.37831 0.50113 0.22398 0.0
C223 C 0.40987 0.56485 0.18442 0.0
H224 H 0.27211 0.43548 0.5291 0.0
H225 H 0.24837 0.37488 0.51691 0.0
H226 H 0.30746 0.29488 0.50799 0.0
H227 H 0.33147 0.35607 0.52009 0.0
H228 H 0.27402 0.28899 0.48552 0.0
H229 H 0.28037 0.26955 0.53767 0.0
H230 H 0.2784 0.29532 0.56319 0.0
H231 H 0.20783 0.32449 0.55491 0.0
H232 H 0.20947 0.29955 0.52926 0.0
H233 H 0.22734 0.0642 0.47687 0.0
H234 H 0.24878 0.12861 0.4888 0.0
H235 H 0.18738 0.20612 0.4934 0.0
H236 H 0.16559 0.14143 0.48131 0.0
H237 H 0.22069 0.21493 0.51776 0.0
H238 H 0.21417 0.23323 0.46572 0.0
H239 H 0.2161 0.20712 0.44024 0.0
H240 H 0.28685 0.17964 0.44837 0.0
H241 H 0.28527 0.20505 0.47398 0.0
C242 C 0.28012 0.40555 0.52424 0.0
C243 C 0.30367 0.40028 0.52569 0.0
C244 C 0.2665 0.37081 0.51735 0.0
C245 C 0.27611 0.32977 0.51191 0.0
C246 C 0.29969 0.32614 0.51225 0.0
C247 C 0.3134 0.36121 0.51909 0.0
C248 C 0.26152 0.28944 0.50689 0.0
C249 C 0.26256 0.27249 0.49262 0.0
C250 C 0.24616 0.26851 0.51607 0.0
C251 C 0.24509 0.28313 0.53151 0.0
C252 C 0.26447 0.28179 0.54126 0.0
C253 C 0.26341 0.2962 0.55575 0.0
C254 C 0.24301 0.31165 0.56066 0.0
C255 C 0.22362 0.31258 0.55109 0.0
C256 C 0.22461 0.29829 0.53658 0.0
C257 C 0.21827 0.0944 0.48071 0.0
C258 C 0.19476 0.09797 0.47797 0.0
C259 C 0.2306 0.13128 0.48748 0.0
C260 C 0.21971 0.17253 0.49165 0.0
C261 C 0.19608 0.17463 0.49014 0.0
C262 C 0.18365 0.13755 0.48331 0.0
C263 C 0.2333 0.21448 0.49644 0.0
C264 C 0.23209 0.23163 0.51066 0.0
C265 C 0.24848 0.23561 0.48722 0.0
C266 C 0.24955 0.22063 0.47181 0.0
C267 C 0.2301 0.22127 0.46211 0.0
C268 C 0.23114 0.20666 0.44764 0.0
C269 C 0.25157 0.19161 0.4427 0.0
C270 C 0.27102 0.19127 0.45222 0.0
C271 C 0.27007 0.20582 0.46671 0.0
H272 H 0.25234 0.1803 0.43149 0.0
H273 H 0.24222 0.32279 0.57188 0.0
H274 H 0.91067 0.90893 0.51253 0.0
H275 H 0.94586 0.92611 0.50155 0.0
H276 H 0.96514 0.02189 0.53685 0.0
H277 H 0.92981 0.00522 0.54786 0.0
H278 H 0.97324 0.0606 0.51102 0.0
H279 H 0.98947 0.91255 0.53489 0.0
H280 H 0.98331 0.82891 0.54113 0.0
H281 H 0.98676 0.78966 0.49619 0.0
H282 H 0.99264 0.87321 0.48965 0.0
H283 H 0.08874 0.08372 0.49688 0.0
H284 H 0.05332 0.06743 0.5077 0.0
H285 H 0.03361 0.97297 0.47214 0.0
H286 H 0.06913 0.98885 0.46126 0.0
H287 H 0.02575 0.93369 0.4981 0.0
H288 H 0.00965 0.08209 0.47431 0.0
H289 H 0.01596 0.16578 0.4682 0.0
H290 H 0.01246 0.20439 0.51318 0.0
H291 H 0.00644 0.12079 0.5196 0.0
C292 C 0.9224 0.93352 0.51802 0.0
C293 C 0.91736 0.95556 0.53112 0.0
C294 C 0.94261 0.9432 0.51173 0.0
C295 C 0.95834 0.97501 0.51841 0.0
C296 C 0.95333 0.9972 0.53147 0.0
C297 C 0.93313 0.98746 0.53779 0.0
C298 C 0.97981 0.98564 0.51165 0.0
C299 C 0.98487 0.03287 0.5084 0.0
C300 C 0.99481 0.94949 0.50786 0.0
C301 C 0.99126 0.89922 0.51176 0.0
C302 C 0.98873 0.88614 0.52632 0.0
C303 C 0.98532 0.83874 0.52991 0.0
C304 C 0.98458 0.80401 0.51906 0.0
C305 C 0.9873 0.81661 0.50459 0.0
C306 C 0.99069 0.86398 0.50093 0.0
C307 C 0.07685 0.05968 0.49128 0.0
C308 C 0.08184 0.0377 0.47815 0.0
C309 C 0.05652 0.0505 0.49748 0.0
C310 C 0.04064 0.01921 0.4907 0.0
C311 C 0.04555 0.99726 0.47759 0.0
C312 C 0.06586 0.00656 0.47134 0.0
C313 C 0.01917 0.00863 0.49747 0.0
C314 C 0.01412 0.96141 0.50072 0.0
C315 C 1.0042 0.0448 0.50127 0.0
C316 C 0.00782 0.0951 0.49745 0.0
C317 C 0.01042 0.10837 0.48292 0.0
C318 C 0.01391 0.1558 0.47939 0.0
C319 C 0.01467 0.19037 0.4903 0.0
C320 C 0.0119 0.17757 0.50475 0.0
C321 C 0.00843 0.13017 0.50833 0.0
H322 H 0.01736 0.22708 0.48755 0.0
H323 H 0.98195 0.76732 0.52187 0.0
H324 H 0.33842 0.02763 0.71451 0.0
H325 H 0.30454 0.04515 0.72698 0.0
H326 H 0.29869 0.89775 0.73828 0.0
H327 H 0.33246 0.87984 0.72571 0.0
H328 H 0.2583 0.93352 0.72898 0.0
H329 H 0.31874 0.97931 0.76359 0.0
H330 H 0.35349 0.02139 0.77221 0.0
H331 H 0.32087 0.15491 0.76321 0.0
H332 H 0.28598 0.11358 0.75435 0.0
H333 H 0.17961 0.95906 0.7829 0.0
H334 H 0.21334 0.94223 0.77021 0.0
H335 H 0.21863 0.0899 0.75911 0.0
H336 H 0.185 0.10715 0.77191 0.0
H337 H 0.25922 0.05446 0.76818 0.0
H338 H 0.19872 0.00877 0.7337 0.0
H339 H 0.16394 0.96677 0.72507 0.0
H340 H 0.19664 0.83317 0.73379 0.0
H341 H 0.23155 0.87441 0.74266 0.0
C342 C 0.32995 -0.00113 0.71963 0.0
C343 C 0.33828 0.9523 0.71913 0.0
C344 C 0.31058 0.009 0.72682 0.0
C345 C 0.29913 0.97289 0.73374 0.0
C346 C 0.30721 0.92627 0.73306 0.0
C347 C 0.32659 0.91611 0.72589 0.0
C348 C 0.27874 0.98367 0.74167 0.0
C349 C 0.2586 0.95951 0.73768 0.0
C350 C 0.27889 0.01839 0.75282 0.0
C351 C 0.29982 0.04334 0.75816 0.0
C352 C 0.31903 0.01764 0.76333 0.0
C353 C 0.33874 0.04135 0.76829 0.0
C354 C 0.33941 0.09079 0.76822 0.0
C355 C 0.32034 0.11661 0.76324 0.0
C356 C 0.30059 0.09307 0.75826 0.0
C357 C 0.18792 0.98804 0.77777 0.0
C358 C 0.17948 0.03449 0.77841 0.0
C359 C 0.20719 0.97829 0.77045 0.0
C360 C 0.21845 0.01467 0.76352 0.0
C361 C 0.21026 0.06118 0.76433 0.0
C362 C 0.19096 0.07096 0.77163 0.0
C363 C 0.23878 0.00425 0.7555 0.0
C364 C 0.25891 0.02848 0.75947 0.0
C365 C 0.23862 0.9696 0.74433 0.0
C366 C 0.21768 0.94469 0.73898 0.0
C367 C 0.19844 0.97044 0.73389 0.0
C368 C 0.17872 0.94677 0.72893 0.0
C369 C 0.17807 0.89733 0.72892 0.0
C370 C 0.19716 0.87146 0.73383 0.0
C371 C 0.21693 0.89496 0.73881 0.0
H372 H 0.16278 0.87907 0.72508 0.0
H373 H 0.35469 0.10908 0.77206 0.0
H374 H 0.09174 0.11647 0.76804 0.0
H375 H 0.07013 0.17622 0.75354 0.0
H376 H 0.00821 0.11029 0.76429 0.0
H377 H 0.02954 0.05018 0.77837 0.0
H378 H 1.00316 0.14444 0.73758 0.0
H379 H 0.03198 0.20269 0.7847 0.0
H380 H 0.06167 0.22115 0.80406 0.0
H381 H 0.09327 0.31455 0.77492 0.0
H382 H 0.06391 0.2961 0.75531 0.0
H383 H 0.92914 0.34089 0.72709 0.0
H384 H 0.95137 0.27811 0.73985 0.0
H385 H 0.01247 0.34228 0.72693 0.0
H386 H 0.99055 0.40493 0.71439 0.0
H387 H 0.01812 0.30913 0.75441 0.0
H388 H 0.98806 0.25153 0.70742 0.0
H389 H 0.95782 0.23285 0.68844 0.0
H390 H 0.92775 0.13818 0.71793 0.0
H391 H 0.95765 0.15682 0.73715 0.0
C392 C 0.07355 0.11389 0.76692 0.0
C393 C 0.06236 0.07897 0.77452 0.0
C394 C 0.0612 0.14834 0.75876 0.0
C395 C 0.03752 0.1485 0.75816 0.0
C396 C 0.02643 0.11124 0.76469 0.0
C397 C 0.0387 0.07687 0.77277 0.0
C398 C 0.02418 0.18915 0.75188 0.0
C399 C 0.00634 0.18039 0.74134 0.0
C400 C 0.02836 0.2362 0.7567 0.0
C401 C 0.0459 0.24764 0.76851 0.0
C402 C 0.04535 0.22693 0.7824 0.0
C403 C 0.0621 0.23741 0.79342 0.0
C404 C 0.07938 0.2689 0.79071 0.0
C405 C 0.0799 0.29009 0.77699 0.0
C406 C 0.0632 0.27966 0.76592 0.0
C407 C 0.94733 0.34216 0.72728 0.0
C408 C 0.95807 0.37766 0.71965 0.0
C409 C 0.96 0.30605 0.73444 0.0
C410 C 0.98357 0.30504 0.73409 0.0
C411 C 0.99433 0.34214 0.72727 0.0
C412 C 0.98174 0.37793 0.72009 0.0
C413 C 0.99712 0.26439 0.74012 0.0
C414 C 0.01498 0.27318 0.75063 0.0
C415 C 0.99286 0.21737 0.73533 0.0
C416 C 0.97495 0.20595 0.72376 0.0
C417 C 0.9749 0.227 0.70989 0.0
C418 C 0.95784 0.21638 0.69908 0.0
C419 C 0.94084 0.18445 0.70199 0.0
C420 C 0.94091 0.16297 0.7157 0.0
C421 C 0.95791 0.17353 0.72655 0.0
H422 H 0.92765 0.17627 0.69361 0.0
H423 H 0.09233 0.27697 0.79925 0.0
H424 H 0.83587 0.86067 0.52316 0.0
H425 H 0.81638 0.80029 0.50756 0.0
H426 H 0.75448 0.83017 0.52725 0.0
H427 H 0.77343 0.89011 0.54258 0.0
H428 H 0.76456 0.73475 0.52726 0.0
H429 H 0.76038 0.86709 0.4939 0.0
H430 H 0.77594 0.93146 0.47959 0.0
H431 H 0.81443 0.83055 0.45693 0.0
H432 H 0.79931 0.7656 0.47126 0.0
H433 H 0.68005 0.62121 0.48004 0.0
H434 H 0.70332 0.67693 0.4951 0.0
H435 H 0.76055 0.64284 0.471 0.0
H436 H 0.73764 0.58759 0.45599 0.0
H437 H 0.75547 0.73703 0.47314 0.0
H438 H 0.75845 0.60414 0.50533 0.0
H439 H 0.74339 0.53917 0.51962 0.0
H440 H 0.70813 0.63954 0.54457 0.0
H441 H 0.72274 0.70513 0.53028 0.0
C442 C 0.81804 0.85481 0.52399 0.0
C443 C 0.80629 0.8801 0.53419 0.0
C444 C 0.80695 0.82025 0.51511 0.0
C445 C 0.78402 0.81053 0.51637 0.0
C446 C 0.77221 0.83675 0.52621 0.0
C447 C 0.78314 0.87123 0.53494 0.0
C448 C 0.77214 0.77232 0.50782 0.0
C449 C 0.76242 0.73539 0.51542 0.0
C450 C 0.76983 0.7726 0.49239 0.0
C451 C 0.77894 0.81157 0.48378 0.0
C452 C 0.77233 0.85868 0.48597 0.0
C453 C 0.78103 0.89525 0.47783 0.0
C454 C 0.79622 0.88512 0.46739 0.0
C455 C 0.8027 0.83836 0.46504 0.0
C456 C 0.79406 0.80165 0.47316 0.0
C457 C 0.69765 0.62513 0.47809 0.0
C458 C 0.70691 0.6 0.46677 0.0
C459 C 0.71094 0.65698 0.4867 0.0
C460 C 0.73369 0.66408 0.48415 0.0
C461 C 0.74304 0.63817 0.47311 0.0
C462 C 0.72986 0.60639 0.46457 0.0
C463 C 0.74761 0.6997 0.4926 0.0
C464 C 0.75773 0.73611 0.48497 0.0
C465 C 0.75037 0.69884 0.50802 0.0
C466 C 0.74151 0.65952 0.51663 0.0
C467 C 0.74732 0.61234 0.51377 0.0
C468 C 0.7389 0.5754 0.52189 0.0
C469 C 0.72476 0.58521 0.53297 0.0
C470 C 0.71906 0.632 0.53597 0.0
C471 C 0.72742 0.66908 0.52788 0.0
H472 H 0.71826 0.55656 0.53925 0.0
H473 H 0.80293 0.91349 0.4611 0.0
H474 H 0.66152 0.05172 0.26822 0.0
H475 H 0.69404 0.04646 0.25351 0.0
H476 H 0.73194 0.97556 0.28897 0.0
H477 H 0.69964 0.98104 0.30377 0.0
H478 H 0.75756 0.0406 0.27677 0.0
H479 H 0.70905 0.91376 0.25954 0.0
H480 H 0.67348 0.87737 0.24966 0.0
H481 H 0.67393 0.96407 0.21128 0.0
H482 H 0.70937 0.00146 0.22103 0.0
H483 H 0.84633 0.95238 0.23654 0.0
H484 H 0.81395 0.95806 0.25135 0.0
H485 H 0.77583 0.02835 0.21586 0.0
H486 H 0.80799 0.02241 0.20096 0.0
H487 H 0.75033 0.9636 0.2281 0.0
H488 H 0.79885 0.09045 0.24533 0.0
H489 H 0.83442 0.12684 0.25521 0.0
H490 H 0.83397 0.04015 0.29359 0.0
H491 H 0.79853 0.00276 0.28384 0.0
C492 C 0.6768 0.03519 0.27292 0.0
C493 C 0.67788 0.01666 0.28719 0.0
C494 C 0.69537 0.03199 0.26446 0.0
C495 C 0.71542 0.01007 0.27004 0.0
C496 C 0.71669 0.99255 0.28438 0.0
C497 C 0.69814 0.99562 0.29283 0.0
C498 C 0.73502 0.00503 0.26092 0.0
C499 C 0.75602 0.02322 0.26621 0.0
C500 C 0.73302 0.98322 0.24699 0.0
C501 C 0.71174 0.96076 0.24109 0.0
C502 C 0.70147 0.92534 0.24905 0.0
C503 C 0.68135 0.90448 0.24346 0.0
C504 C 0.67142 0.91849 0.22987 0.0
C505 C 0.68162 0.95331 0.22182 0.0
C506 C 0.70173 0.97432 0.22737 0.0
C507 C 0.83104 0.96891 0.23186 0.0
C508 C 0.82985 0.98707 0.21755 0.0
C509 C 0.81254 0.97235 0.24038 0.0
C510 C 0.79246 0.99417 0.23482 0.0
C511 C 0.7911 0.01144 0.22044 0.0
C512 C 0.80958 0.00811 0.21193 0.0
C513 C 0.77288 -0.00081 0.24395 0.0
C514 C 0.75187 0.98099 0.23866 0.0
C515 C 0.77488 0.02099 0.25788 0.0
C516 C 0.79616 0.04346 0.26378 0.0
C517 C 0.80643 0.07887 0.25582 0.0
C518 C 0.82655 0.09973 0.26141 0.0
C519 C 0.83648 0.08572 0.275 0.0
C520 C 0.82628 0.05091 0.28305 0.0
C521 C 0.80616 0.0299 0.27751 0.0
H522 H 0.85206 0.10192 0.27931 0.0
H523 H 0.65584 0.90229 0.22556 0.0
H524 H 0.92669 0.85473 0.23121 0.0
H525 H 0.94946 0.79326 0.24403 0.0
H526 H 0.00954 0.8749 0.23883 0.0
H527 H 0.98697 0.93566 0.22573 0.0
H528 H 0.01539 0.78862 0.22973 0.0
H529 H 0.98822 0.85713 0.27273 0.0
H530 H 0.95978 0.88672 0.28864 0.0
H531 H 0.92952 0.74885 0.28903 0.0
H532 H 0.95761 0.71857 0.27296 0.0
H533 H 0.08971 0.64292 0.27635 0.0
H534 H 0.06797 0.70594 0.26347 0.0
H535 H 0.00708 0.625 0.26637 0.0
H536 H 0.02857 0.5625 0.27935 0.0
H537 H 1.0023 0.71197 0.27689 0.0
H538 H 0.02971 0.64416 0.23358 0.0
H539 H 0.05863 0.6152 0.21792 0.0
H540 H 0.08908 0.75299 0.21852 0.0
H541 H 0.0605 0.78262 0.23434 0.0
C542 C 0.94466 0.86016 0.23318 0.0
C543 C 0.95504 0.89993 0.22742 0.0
C544 C 0.95771 0.82492 0.24047 0.0
C545 C 0.98128 0.82929 0.24235 0.0
C546 C 0.99144 0.87046 0.2374 0.0
C547 C 0.97848 0.90533 0.23 0.0
C548 C 0.99555 0.78965 0.24843 0.0
C549 C 0.01273 0.77236 0.24016 0.0
C550 C 0.99181 0.76759 0.26185 0.0
C551 C 0.97489 0.7857 0.27152 0.0
C552 C 0.97539 0.83321 0.27611 0.0
C553 C 0.95936 0.85009 0.28518 0.0
C554 C 0.94282 0.81972 0.28981 0.0
C555 C 0.94232 0.77236 0.28542 0.0
C556 C 0.95831 0.7553 0.27634 0.0
C557 C 0.07181 0.63797 0.27384 0.0
C558 C 0.06084 0.59788 0.27894 0.0
C559 C 0.05936 0.67411 0.26653 0.0
C560 C 0.03583 0.67038 0.26407 0.0
C561 C 0.02516 0.62891 0.26829 0.0
C562 C 0.03751 0.59306 0.27563 0.0
C563 C 0.02203 0.71088 0.25816 0.0
C564 C 1.00496 0.72833 0.26647 0.0
C565 C 0.02594 0.7332 0.24482 0.0
C566 C 0.04309 0.71547 0.23527 0.0
C567 C 0.04268 0.66818 0.23047 0.0
C568 C 0.05899 0.65167 0.22155 0.0
C569 C 0.07572 0.6822 0.21726 0.0
C570 C 0.07613 0.72936 0.22186 0.0
C571 C 0.05987 0.74604 0.2308 0.0
H572 H 0.08833 0.66935 0.21035 0.0
H573 H 0.93042 0.83285 0.29683 0.0
H574 H 0.27553 0.92099 0.03134 0.0
H575 H 0.25482 0.85422 0.02025 0.0
H576 H 0.31728 0.78694 0.01134 0.0
H577 H 0.33835 0.85404 0.02254 0.0
H578 H 0.28304 0.77515 0.98885 0.0
H579 H 0.29375 0.7538 0.04039 0.0
H580 H 0.29311 0.77661 0.06625 0.0
H581 H 0.22124 0.792 0.06093 0.0
H582 H 0.2215 0.77018 0.03493 0.0
H583 H 0.23968 0.54802 0.97795 0.0
H584 H 0.26111 0.6102 0.99109 0.0
H585 H 0.19955 0.68451 0.99787 0.0
H586 H 0.17781 0.62211 0.98461 0.0
H587 H 0.23418 0.69094 0.02188 0.0
H588 H 0.2245 0.71432 0.96971 0.0
H589 H 0.22602 0.68977 0.94405 0.0
H590 H 0.29739 0.66826 0.95103 0.0
H591 H 0.29622 0.69194 0.97683 0.0
C592 C 0.28494 0.89248 0.02679 0.0
C593 C 0.30864 0.89262 0.02798 0.0
C594 C 0.27303 0.8542 0.02052 0.0
C595 C 0.28453 0.81516 0.01531 0.0
C596 C 0.30812 0.81663 0.01543 0.0
C597 C 0.32013 0.85508 0.02176 0.0
C598 C 0.27181 0.77202 0.01054 0.0
C599 C 0.27262 0.75637 0.99612 0.0
C600 C 0.25794 0.74791 0.02001 0.0
C601 C 0.25767 0.7608 0.03567 0.0
C602 C 0.27782 0.76245 0.04469 0.0
C603 C 0.27753 0.77512 0.05939 0.0
C604 C 0.25715 0.78579 0.06523 0.0
C605 C 0.23702 0.78376 0.05639 0.0
C606 C 0.23723 0.77123 0.04167 0.0
C607 C 0.23059 0.57688 0.98258 0.0
C608 C 0.20705 0.58049 0.98006 0.0
C609 C 0.2429 0.61247 0.99005 0.0
C610 C 0.23195 0.65241 0.99514 0.0
C611 C 0.20831 0.65402 0.99392 0.0
C612 C 0.1959 0.61824 0.98641 0.0
C613 C 0.24533 0.69436 1.00018 0.0
C614 C 0.24464 0.70975 0.01464 0.0
C615 C 0.25944 0.71807 0.99079 0.0
C616 C 0.26023 0.70444 0.97523 0.0
C617 C 0.24049 0.704 0.96581 0.0
C618 C 0.24129 0.69029 0.95123 0.0
C619 C 0.26178 0.67735 0.94592 0.0
C620 C 0.28153 0.67823 0.95517 0.0
C621 C 0.2808 0.69181 0.96976 0.0
H622 H 0.26237 0.66675 0.93464 0.0
H623 H 0.25696 0.79555 0.07662 0.0
H624 H 0.08345 0.4699 0.96425 0.0
H625 H 0.04837 0.45438 0.97561 0.0
H626 H 0.06169 0.57261 0.00468 0.0
H627 H 0.09698 0.58788 0.99354 0.0
H628 H 0.0475 0.49888 0.01943 0.0
H629 H 0.02201 0.57887 0.97514 0.0
H630 H 0.01845 0.59289 0.94857 0.0
H631 H 0.9882 0.456 0.94166 0.0
H632 H 0.99186 0.4409 0.96819 0.0
H633 H 0.93797 0.51525 0.04539 0.0
H634 H 0.97322 0.53063 0.03421 0.0
H635 H 0.95995 0.41288 0.00494 0.0
H636 H 0.92451 0.39778 0.01589 0.0
H637 H 0.97413 0.48653 0.99031 0.0
H638 H 0.99964 0.4065 0.03459 0.0
H639 H 1.00324 0.39241 0.06116 0.0
H640 H 0.03347 0.52932 0.06809 0.0
H641 H 0.02977 0.54448 0.04156 0.0
C642 C 0.07891 0.49276 0.97303 0.0
C643 C 0.09308 0.53027 0.97793 0.0
C644 C 0.05875 0.48392 0.97949 0.0
C645 C 0.05216 0.5126 0.99093 0.0
C646 C 0.06633 0.54994 0.99588 0.0
C647 C 0.08651 0.55875 0.98945 0.0
C648 C 0.03069 0.50335 0.99787 0.0
C649 C 0.03142 0.49685 0.01307 0.0
C650 C 0.0097 0.49953 0.9896 0.0
C651 C 0.00742 0.50858 0.97364 0.0
C652 C 0.01476 0.55161 0.96795 0.0
C653 C 0.0127 0.55978 0.95289 0.0
C654 C 1.00316 0.52531 0.94343 0.0
C655 C 0.99561 0.48264 0.949 0.0
C656 C 0.99766 0.47428 0.96405 0.0
C657 C 0.94257 0.49244 0.03662 0.0
C658 C 0.92835 0.45516 0.03159 0.0
C659 C 0.96283 0.50119 0.03026 0.0
C660 C 0.96946 0.47265 0.01879 0.0
C661 C 0.95528 0.43545 0.01375 0.0
C662 C 0.93501 0.42674 0.02008 0.0
C663 C 0.99094 0.48202 0.01187 0.0
C664 C 0.99021 0.48856 0.99667 0.0
C665 C 0.01193 0.48587 0.02015 0.0
C666 C 0.01422 0.4768 0.0361 0.0
C667 C 0.00689 0.43375 0.04179 0.0
C668 C 0.00898 0.42554 0.05684 0.0
C669 C 0.01852 0.46 0.06631 0.0
C670 C 0.02605 0.50268 0.06074 0.0
C671 C 0.02398 0.51109 0.0457 0.0
H672 H 0.02012 0.45358 0.07796 0.0
H673 H 1.00158 0.5317 0.93177 0.0
H674 H 0.35263 0.51301 0.24467 0.0
H675 H 0.3169 0.51817 0.25593 0.0
H676 H 0.28209 0.46387 0.21656 0.0
H677 H 0.3179 0.45887 0.20512 0.0
H678 H 0.26008 0.53929 0.22707 0.0
H679 H 0.29095 0.39406 0.24656 0.0
H680 H 0.31976 0.34228 0.25893 0.0
H681 H 0.31933 0.42675 0.29777 0.0
H682 H 0.29073 0.47947 0.28555 0.0
H683 H 0.15615 0.48745 0.25672 0.0
H684 H 0.19192 0.48297 0.2455 0.0
H685 H 0.22648 0.53712 0.28497 0.0
H686 H 0.19062 0.54142 0.29638 0.0
H687 H 0.24865 0.46205 0.27445 0.0
H688 H 0.21768 0.60713 0.25499 0.0
H689 H 0.18881 0.65882 0.24263 0.0
H690 H 0.18941 0.57462 0.20375 0.0
H691 H 0.21807 0.52199 0.21595 0.0
C692 C 0.33742 0.50197 0.23838 0.0
C693 C 0.33821 0.48538 0.22397 0.0
C694 C 0.31696 0.50479 0.24488 0.0
C695 C 0.29675 0.491 0.23717 0.0
C696 C 0.29743 0.47466 0.22275 0.0
C697 C 0.31795 0.47164 0.21624 0.0
C698 C 0.27493 0.49436 0.24412 0.0
C699 C 0.25748 0.52181 0.23732 0.0
C700 C 0.27166 0.47263 0.2577 0.0
C701 C 0.28886 0.441 0.26508 0.0
C702 C 0.29714 0.40184 0.25769 0.0
C703 C 0.31341 0.37227 0.26469 0.0
C704 C 0.32142 0.38129 0.27911 0.0
C705 C 0.31314 0.41985 0.28659 0.0
C706 C 0.29688 0.44957 0.27964 0.0
C707 C 0.17131 0.49863 0.26304 0.0
C708 C 0.17043 0.51492 0.27747 0.0
C709 C 0.1918 0.4962 0.25656 0.0
C710 C 0.21195 0.51012 0.26431 0.0
C711 C 0.21118 0.52624 0.27875 0.0
C712 C 0.19063 0.52887 0.28524 0.0
C713 C 0.2338 0.50697 0.2574 0.0
C714 C 0.25126 0.47956 0.2642 0.0
C715 C 0.23708 0.52873 0.24382 0.0
C716 C 0.21986 0.56034 0.23644 0.0
C717 C 0.21152 0.59939 0.24384 0.0
C718 C 0.19522 0.62891 0.23686 0.0
C719 C 0.18724 0.61994 0.22243 0.0
C720 C 0.19559 0.58149 0.21493 0.0
C721 C 0.21187 0.55183 0.22187 0.0
H722 H 0.17462 0.64284 0.21704 0.0
H723 H 0.33401 0.35834 0.28451 0.0
H724 H 0.73899 0.06913 0.97426 0.0
H725 H 0.76177 0.12973 0.98718 0.0
H726 H 0.70231 0.21424 0.99144 0.0
H727 H 0.67929 0.15349 0.97835 0.0
H728 H 0.73562 0.26385 0.97934 0.0
H729 H 0.7298 0.16508 0.02122 0.0
H730 H 0.73201 0.09088 0.03538 0.0
H731 H 0.80272 0.08075 0.02968 0.0
H732 H 0.80088 0.15458 0.0153 0.0
H733 H 0.78309 0.43689 0.02814 0.0
H734 H 0.76216 0.37588 0.01421 0.0
H735 H 0.82317 0.29487 0.01182 0.0
H736 H 0.84433 0.35612 0.02601 0.0
H737 H 0.79011 0.24265 0.02242 0.0
H738 H 0.79629 0.34228 0.98107 0.0
H739 H 0.79423 0.41647 0.9669 0.0
H740 H 0.72314 0.42493 0.97145 0.0
H741 H 0.72481 0.35112 0.98583 0.0
C742 C 0.73064 0.10007 0.97825 0.0
C743 C 0.70733 0.10658 0.97524 0.0
C744 C 0.74372 0.13471 0.98566 0.0
C745 C 0.73378 0.17661 0.99024 0.0
C746 C 0.71032 0.18218 0.98795 0.0
C747 C 0.69715 0.14726 0.98061 0.0
C748 C 0.74818 0.21593 0.99629 0.0
C749 C 0.74728 0.2595 0.98891 0.0
C750 C 0.764 0.20963 0.00843 0.0
C751 C 0.76515 0.16514 0.01705 0.0
C752 C 0.74579 0.14682 0.02287 0.0
C753 C 0.74698 0.10487 0.03096 0.0
C754 C 0.76748 0.08105 0.0334 0.0
C755 C 0.78685 0.0992 0.02777 0.0
C756 C 0.78574 0.14113 0.01966 0.0
C757 C 0.79221 0.40671 0.02432 0.0
C758 C 0.81535 0.40122 0.02821 0.0
C759 C 0.7802 0.37184 0.01631 0.0
C760 C 0.79106 0.3307 0.01197 0.0
C761 C 0.81445 0.32633 0.01508 0.0
C762 C 0.82657 0.36154 0.02305 0.0
C763 C 0.77747 0.29073 0.00552 0.0
C764 C 0.77852 0.247 0.01282 0.0
C765 C 0.76181 0.29685 0.99329 0.0
C766 C 0.76072 0.34132 0.98464 0.0
C767 C 0.78024 0.36015 0.97916 0.0
C768 C 0.77914 0.40211 0.97106 0.0
C769 C 0.75857 0.42546 0.9683 0.0
C770 C 0.73906 0.40683 0.97361 0.0
C771 C 0.74007 0.36489 0.98171 0.0
H772 H 0.75775 0.45793 0.96203 0.0
H773 H 0.76837 0.04859 0.03968 0.0
H774 H 0.70817 0.48663 0.80333 0.0
H775 H 0.73968 0.48001 0.78796 0.0
H776 H 0.69929 0.54261 0.75203 0.0
H777 H 0.66748 0.54901 0.76736 0.0
H778 H 0.72196 0.46626 0.74314 0.0
H779 H 0.74068 0.60603 0.77088 0.0
H780 H 0.74747 0.65432 0.79313 0.0
H781 H 0.80124 0.56144 0.80847 0.0
H782 H 0.79457 0.51219 0.78639 0.0
H783 H 0.81157 0.51144 0.69809 0.0
H784 H 0.77989 0.51871 0.71332 0.0
H785 H 0.81973 0.4559 0.74946 0.0
H786 H 0.85167 0.44882 0.73428 0.0
H787 H 0.79725 0.53281 0.75814 0.0
H788 H 0.77841 0.39289 0.73042 0.0
H789 H 0.77161 0.34467 0.70815 0.0
H790 H 0.71805 0.43799 0.69275 0.0
H791 H 0.72474 0.48717 0.71485 0.0
C792 C 0.70594 0.49922 0.79218 0.0
C793 C 0.68524 0.51851 0.78662 0.0
C794 C 0.72407 0.49555 0.7834 0.0
C795 C 0.72201 0.51122 0.76884 0.0
C796 C 0.70134 0.53032 0.76322 0.0
C797 C 0.68318 0.53414 0.77203 0.0
C798 C 0.74133 0.50688 0.75947 0.0
C799 C 0.73832 0.48145 0.74632 0.0
C800 C 0.7629 0.52561 0.76375 0.0
C801 C 0.76697 0.55515 0.77704 0.0
C802 C 0.75383 0.59567 0.77905 0.0
C803 C 0.75768 0.62326 0.79163 0.0
C804 C 0.77474 0.61088 0.80223 0.0
C805 C 0.78802 0.57094 0.80026 0.0
C806 C 0.78422 0.5432 0.78771 0.0
C807 C 0.81363 0.49896 0.70926 0.0
C808 C 0.83422 0.47941 0.71492 0.0
C809 C 0.79542 0.503 0.71796 0.0
C810 C 0.79727 0.48745 0.73253 0.0
C811 C 0.81784 0.46811 0.73825 0.0
C812 C 0.83608 0.46391 0.72953 0.0
C813 C 0.77788 0.49214 0.74183 0.0
C814 C 0.78088 0.51764 0.75495 0.0
C815 C 0.7563 0.47349 0.73753 0.0
C816 C 0.75223 0.44399 0.72423 0.0
C817 C 0.76531 0.40336 0.72223 0.0
C818 C 0.76145 0.37581 0.70965 0.0
C819 C 0.74445 0.38833 0.69902 0.0
C820 C 0.73123 0.42837 0.70098 0.0
C821 C 0.73504 0.45608 0.71354 0.0
H822 H 0.74148 0.36695 0.68929 0.0
H823 H 0.7777 0.6323 0.81195 0.0
H824 H 0.59858 0.0602 0.98315 0.0
H825 H 0.56666 0.0535 0.99833 0.0
H826 H 0.52806 0.98296 0.96311 0.0
H827 H 0.55977 0.98986 0.94786 0.0
H828 H 0.50245 0.04654 0.97598 0.0
H829 H 0.55241 0.92057 0.99196 0.0
H830 H 0.58852 0.88486 1.00114 0.0
H831 H 0.58888 0.96965 0.03996 0.0
H832 H 0.5529 0.00636 0.0309 0.0
H833 H 0.41604 0.95304 0.01719 0.0
H834 H 0.44794 0.96003 0.00199 0.0
H835 H 0.48631 0.03156 0.0371 0.0
H836 H 0.45462 0.02445 0.05237 0.0
H837 H 0.51202 0.9675 0.02429 0.0
H838 H 0.462 0.09337 0.0083 0.0
H839 H 0.42585 0.12892 0.99909 0.0
H840 H 0.4256 0.04409 0.9603 0.0
H841 H 0.46161 0.00752 0.96937 0.0
C842 C 0.58327 0.04349 0.9786 0.0
C843 C 0.58184 0.02542 0.96427 0.0
C844 C 0.56504 0.03945 0.98733 0.0
C845 C 0.54498 0.01716 0.98196 0.0
C846 C 0.54333 0.0002 0.96754 0.0
C847 C 0.56154 0.0041 0.95883 0.0
C848 C 0.5258 0.01103 0.99137 0.0
C849 C 0.50451 0.02871 0.98646 0.0
C850 C 0.52846 0.98861 0.0052 0.0
C851 C 0.55008 0.96657 0.01068 0.0
C852 C 0.56028 0.93189 0.0024 0.0
C853 C 0.58071 0.91141 0.00759 0.0
C854 C 0.59102 0.92508 0.02111 0.0
C855 C 0.58089 0.95916 0.02948 0.0
C856 C 0.56047 0.97979 0.02433 0.0
C857 C 0.4313 0.97004 0.02171 0.0
C858 C 0.43268 0.98832 0.03601 0.0
C859 C 0.44951 0.97425 0.01297 0.0
C860 C 0.4695 0.99686 0.01831 0.0
C861 C 0.4711 0.01406 0.0327 0.0
C862 C 0.45289 0.01005 0.04142 0.0
C863 C 0.48868 0.00301 0.00891 0.0
C864 C 0.50997 0.98533 0.01381 0.0
C865 C 0.48601 0.0254 0.99507 0.0
C866 C 0.46438 0.04735 0.98958 0.0
C867 C 0.45414 0.08201 0.99786 0.0
C868 C 0.43369 0.1024 0.99266 0.0
C869 C 0.4234 0.08868 0.97914 0.0
C870 C 0.43357 0.05462 0.97078 0.0
C871 C 0.454 0.03408 0.97594 0.0
H872 H 0.40758 0.10451 0.97513 0.0
H873 H 0.60684 0.90917 0.02511 0.0
H874 H 0.47986 0.43548 0.22177 0.0
H875 H 0.50133 0.37398 0.23524 0.0
H876 H 0.44026 0.29509 0.23966 0.0
H877 H 0.41849 0.35711 0.22623 0.0
H878 H 0.47057 0.28813 0.26422 0.0
H879 H 0.47141 0.2693 0.21228 0.0
H880 H 0.47698 0.29547 0.1872 0.0
H881 H 0.54668 0.32353 0.19954 0.0
H882 H 0.54144 0.2982 0.22477 0.0
H883 H 0.52027 0.06676 0.27804 0.0
H884 H 0.4982 0.12864 0.26517 0.0
H885 H 0.55896 0.20697 0.25925 0.0
H886 H 0.58132 0.14456 0.27203 0.0
H887 H 0.52858 0.21414 0.23547 0.0
H888 H 0.52795 0.23323 0.28733 0.0
H889 H 0.52254 0.20782 0.31251 0.0
H890 H 0.45274 0.17992 0.30047 0.0
H891 H 0.45781 0.20451 0.27515 0.0
C892 C 0.47088 0.40562 0.2259 0.0
C893 C 0.4475 0.40086 0.22278 0.0
C894 C 0.48321 0.37036 0.23354 0.0
C895 C 0.47247 0.32939 0.23809 0.0
C896 C 0.44889 0.32629 0.23611 0.0
C897 C 0.43645 0.36184 0.2285 0.0
C898 C 0.48611 0.28853 0.24383 0.0
C899 C 0.48303 0.27153 0.25787 0.0
C900 C 0.50272 0.26749 0.23564 0.0
C901 C 0.50598 0.28226 0.22044 0.0
C902 C 0.48789 0.28137 0.20967 0.0
C903 C 0.49099 0.29601 0.19543 0.0
C904 C 0.51216 0.31126 0.19179 0.0
C905 C 0.53029 0.31176 0.20238 0.0
C906 C 0.52726 0.29723 0.21665 0.0
C907 C 0.52903 0.09666 0.27374 0.0
C908 C 0.55255 0.10101 0.27619 0.0
C909 C 0.51635 0.13216 0.26646 0.0
C910 C 0.52687 0.17302 0.26161 0.0
C911 C 0.55049 0.17589 0.26303 0.0
C912 C 0.56326 0.14011 0.27027 0.0
C913 C 0.51307 0.2137 0.25588 0.0
C914 C 0.51611 0.23068 0.24183 0.0
C915 C 0.49646 0.23475 0.26407 0.0
C916 C 0.49332 0.22028 0.27931 0.0
C917 C 0.51148 0.22134 0.29003 0.0
C918 C 0.50848 0.20713 0.30433 0.0
C919 C 0.48732 0.19215 0.30808 0.0
C920 C 0.46912 0.19147 0.29755 0.0
C921 C 0.47205 0.20557 0.28322 0.0
H922 H 0.48503 0.18117 0.31916 0.0
H923 H 0.51453 0.32259 0.18075 0.0
H924 H 0.48716 0.9295 0.72125 0.0
H925 H 0.50782 0.86945 0.73583 0.0
H926 H 0.4454 0.80107 0.74418 0.0
H927 H 0.42439 0.86149 0.72946 0.0
H928 H 0.47933 0.80067 0.76854 0.0
H929 H 0.47113 0.75987 0.71758 0.0
H930 H 0.47317 0.77485 0.69127 0.0
H931 H 0.54449 0.79724 0.69805 0.0
H932 H 0.54281 0.78314 0.72446 0.0
H933 H 0.52752 0.58113 0.78855 0.0
H934 H 0.5043 0.64041 0.77531 0.0
H935 H 0.56388 0.70531 0.7603 0.0
H936 H 0.58733 0.64516 0.77337 0.0
H937 H 0.53007 0.70649 0.73928 0.0
H938 H 0.53889 0.74928 0.78989 0.0
H939 H 0.53761 0.73694 0.81639 0.0
H940 H 0.46628 0.71334 0.81063 0.0
H941 H 0.46719 0.72487 0.78405 0.0
C942 C 0.47772 0.90235 0.72644 0.0
C943 C 0.45414 0.89988 0.72404 0.0
C944 C 0.48959 0.86797 0.73474 0.0
C945 C 0.47817 0.83029 0.74078 0.0
C946 C 0.45451 0.82979 0.7395 0.0
C947 C 0.44253 0.86441 0.73115 0.0
C948 C 0.49118 0.78968 0.74726 0.0
C949 C 0.49015 0.77954 0.76212 0.0
C950 C 0.5057 0.76293 0.73892 0.0
C951 C 0.50681 0.77086 0.72302 0.0
C952 C 0.48722 0.76834 0.71348 0.0
C953 C 0.48831 0.77663 0.69855 0.0
C954 C 0.50894 0.7871 0.693 0.0
C955 C 0.52852 0.78918 0.70237 0.0
C956 C 0.52751 0.781 0.71732 0.0
C957 C 0.53571 0.60757 0.78225 0.0
C958 C 0.55931 0.60873 0.78212 0.0
C959 C 0.52239 0.64164 0.77476 0.0
C960 C 0.53237 0.67808 0.76714 0.0
C961 C 0.55583 0.67772 0.76623 0.0
C962 C 0.56921 0.64325 0.77365 0.0
C963 C 0.51836 0.71739 0.76063 0.0
C964 C 0.51919 0.72737 0.74573 0.0
C965 C 0.50377 0.74415 0.76897 0.0
C966 C 0.50315 0.73747 0.78496 0.0
C967 C 0.52296 0.74111 0.79426 0.0
C968 C 0.52229 0.73431 0.80929 0.0
C969 C 0.50188 0.72424 0.81518 0.0
C970 C 0.48208 0.72107 0.80605 0.0
C971 C 0.48266 0.72777 0.791 0.0
H972 H 0.50141 0.71899 0.82683 0.0
H973 H 0.50975 0.79351 0.68143 0.0
H974 H 0.41304 0.45179 0.51427 0.0
H975 H 0.44518 0.45681 0.49923 0.0
H976 H 0.4839 0.52763 0.53435 0.0
H977 H 0.45179 0.52347 0.54932 0.0
H978 H 0.48967 0.57088 0.50939 0.0
H979 H 0.49283 0.4096 0.52582 0.0
H980 H 0.47822 0.32927 0.52967 0.0
H981 H 0.46566 0.31103 0.48336 0.0
H982 H 0.47993 0.39153 0.47924 0.0
H983 H 0.59729 0.54868 0.48061 0.0
H984 H 0.56531 0.54397 0.49581 0.0
H985 H 0.52621 0.47284 0.46092 0.0
H986 H 0.55814 0.47665 0.44581 0.0
H987 H 0.52078 0.42974 0.4859 0.0
H988 H 0.51752 0.59123 0.46949 0.0
H989 H 0.5322 0.67152 0.46567 0.0
H990 H 0.54502 0.68933 0.51198 0.0
H991 H 0.53068 0.60886 0.51607 0.0
C992 C 0.42842 0.46828 0.51882 0.0
C993 C 0.42979 0.4871 0.53305 0.0
C994 C 0.44685 0.47099 0.51021 0.0
C995 C 0.46715 0.49221 0.51567 0.0
C996 C 0.46849 0.5111 0.52985 0.0
C997 C 0.45008 0.50852 0.53844 0.0
C998 C 0.48688 0.49537 0.50657 0.0
C999 C 0.49664 0.53988 0.50442 0.0
C1000 C 0.49579 0.4552 0.49978 0.0
C1001 C 0.48723 0.40677 0.50223 0.0
C1002 C 0.48679 0.3886 0.51646 0.0
C1003 C 0.4786 0.34301 0.51869 0.0
C1004 C 0.47095 0.31511 0.50677 0.0
C1005 C 0.47155 0.3327 0.49259 0.0
C1006 C 0.4797 0.37829 0.49029 0.0
C1007 C 0.58185 0.53222 0.47614 0.0
C1008 C 0.58033 0.51315 0.46195 0.0
C1009 C 0.56352 0.52968 0.48484 0.0
C1010 C 0.54317 0.50842 0.4795 0.0
C1011 C 0.54166 0.48938 0.46534 0.0
C1012 C 0.55997 0.49177 0.45667 0.0
C1013 C 0.52354 0.50527 0.48869 0.0
C1014 C 0.51381 0.46075 0.49087 0.0
C1015 C 0.51467 0.54542 0.49551 0.0
C1016 C 0.52324 0.59385 0.49308 0.0
C1017 C 0.52363 0.61213 0.47885 0.0
C1018 C 0.53186 0.6577 0.47664 0.0
C1019 C 0.53959 0.68546 0.48857 0.0
C1020 C 0.53905 0.66776 0.50275 0.0
C1021 C 0.53086 0.62219 0.50502 0.0
H1022 H 0.54596 0.72073 0.48684 0.0
H1023 H 0.46462 0.27983 0.50852 0.0
H1024 H 0.07874 0.60642 0.35501 0.0
H1025 H 0.08731 0.6575 0.37603 0.0
H1026 H 0.15647 0.66681 0.36549 0.0
H1027 H 0.14805 0.61532 0.34422 0.0
H1028 H 0.15039 0.65285 0.39611 0.0
H1029 H 0.12423 0.7547 0.35614 0.0
H1030 H 0.09774 0.78042 0.33574 0.0
H1031 H 0.04546 0.79578 0.3651 0.0
H1032 H 0.07158 0.76947 0.38566 0.0
H1033 H 0.18658 0.86429 0.4314 0.0
H1034 H 0.17694 0.794 0.41709 0.0
H1035 H 0.10683 0.81356 0.4244 0.0
H1036 H 0.11633 0.88543 0.43842 0.0
H1037 H 0.11141 0.808 0.39666 0.0
H1038 H 0.13794 0.71377 0.43721 0.0
H1039 H 0.16386 0.68739 0.45782 0.0
H1040 H 0.21445 0.65641 0.42831 0.0
H1041 H 0.18896 0.68325 0.40753 0.0
C1042 C 0.09584 0.61904 0.35713 0.0
C1043 C 0.11271 0.60698 0.34785 0.0
C1044 C 0.10068 0.64826 0.36918 0.0
C1045 C 0.12246 0.66608 0.37224 0.0
C1046 C 0.13954 0.65327 0.36328 0.0
C1047 C 0.13468 0.62414 0.3511 0.0
C1048 C 0.12696 0.69982 0.38444 0.0
C1049 C 0.1421 0.68704 0.39623 0.0
C1050 C 0.11549 0.74358 0.38475 0.0
C1051 C 0.09979 0.75962 0.37241 0.0
C1052 C 0.10703 0.76316 0.35823 0.0
C1053 C 0.0921 0.77792 0.34664 0.0
C1054 C 0.06991 0.78959 0.34911 0.0
C1055 C 0.06264 0.78665 0.3632 0.0
C1056 C 0.07751 0.77185 0.37482 0.0
C1057 C 0.16914 0.85309 0.43032 0.0
C1058 C 0.15217 0.88096 0.43587 0.0
C1059 C 0.16366 0.8125 0.42218 0.0
C1060 C 0.14114 0.79837 0.41962 0.0
C1061 C 0.12433 0.82391 0.42618 0.0
C1062 C 0.1298 0.86485 0.43427 0.0
C1063 C 0.13503 0.76145 0.40849 0.0
C1064 C 0.11957 0.77364 0.39678 0.0
C1065 C 0.14615 0.7171 0.40834 0.0
C1066 C 0.16156 0.70086 0.42081 0.0
C1067 C 0.15465 0.70169 0.43512 0.0
C1068 C 0.16926 0.68658 0.44683 0.0
C1069 C 0.1908 0.67031 0.44438 0.0
C1070 C 0.19776 0.66903 0.4302 0.0
C1071 C 0.18322 0.68412 0.41844 0.0
H1072 H 0.20209 0.65863 0.45346 0.0
H1073 H 0.05837 0.80103 0.34013 0.0
H1074 H 0.17685 0.10833 0.40284 0.0
H1075 H 0.16843 0.16036 0.38204 0.0
H1076 H 0.09882 0.16631 0.39176 0.0
H1077 H 0.1071 0.11382 0.41285 0.0
H1078 H 0.10654 0.15378 0.36096 0.0
H1079 H 0.12928 0.25491 0.40185 0.0
H1080 H 0.1546 0.27974 0.42296 0.0
H1081 H 0.20837 0.2992 0.39495 0.0
H1082 H 0.18344 0.27378 0.3737 0.0
H1083 H 0.07034 0.36377 0.32468 0.0
H1084 H 0.07974 0.29417 0.3394 0.0
H1085 H 0.15034 0.31732 0.33439 0.0
H1086 H 0.14103 0.3885 0.31996 0.0
H1087 H 0.14378 0.31093 0.36187 0.0
H1088 H 0.12131 0.21631 0.3206 0.0
H1089 H 0.09723 0.18894 0.29924 0.0
H1090 H 0.04463 0.15485 0.32694 0.0
H1091 H 0.06826 0.18264 0.34845 0.0
C1092 C 0.15967 0.12038 0.40059 0.0
C1093 C 0.14264 0.10705 0.40959 0.0
C1094 C 0.15493 0.15016 0.38866 0.0
C1095 C 0.13307 0.1673 0.38543 0.0
C1096 C 0.11582 0.1533 0.39411 0.0
C1097 C 0.12059 0.12359 0.40618 0.0
C1098 C 0.12867 0.20154 0.37335 0.0
C1099 C 0.1144 0.18843 0.36117 0.0
C1100 C 0.13966 0.24589 0.37348 0.0
C1101 C 0.15456 0.26198 0.38621 0.0
C1102 C 0.14655 0.26415 0.40021 0.0
C1103 C 0.16082 0.27838 0.4122 0.0
C1104 C 0.1831 0.2909 0.4103 0.0
C1105 C 0.19112 0.28942 0.3964 0.0
C1106 C 0.17692 0.27514 0.38438 0.0
C1107 C 0.08786 0.35349 0.32636 0.0
C1108 C 0.10496 0.38216 0.32131 0.0
C1109 C 0.09322 0.31332 0.33474 0.0
C1110 C 0.11576 0.30038 0.33806 0.0
C1111 C 0.13281 0.32674 0.33203 0.0
C1112 C 0.12746 0.36725 0.32369 0.0
C1113 C 0.12145 0.26359 0.34932 0.0
C1114 C 0.13599 0.27621 0.36146 0.0
C1115 C 0.11083 0.21868 0.34906 0.0
C1116 C 0.09652 0.20192 0.33614 0.0
C1117 C 0.10454 0.20334 0.32213 0.0
C1118 C 0.09098 0.18767 0.30999 0.0
C1119 C 0.0694 0.17025 0.31173 0.0
C1120 C 0.06135 0.16837 0.32561 0.0
C1121 C 0.07483 0.18402 0.33779 0.0
H1122 H 0.05893 0.15813 0.30232 0.0
H1123 H 0.19413 0.30184 0.4196 0.0
H1124 H 0.15563 0.1054 0.83873 0.0
H1125 H 0.16645 0.15939 0.85905 0.0
H1126 H 0.09651 0.17802 0.86685 0.0
H1127 H 0.08562 0.12463 0.84677 0.0
H1128 H 0.11949 0.26214 0.86679 0.0
H1129 H 0.12852 0.10655 0.88814 0.0
H1130 H 0.14386 0.02551 0.89009 0.0
H1131 H 0.21097 0.08121 0.89614 0.0
H1132 H 0.19606 0.16261 0.89396 0.0
H1133 H 0.12831 0.3815 0.9333 0.0
H1134 H 0.11931 0.31477 0.91691 0.0
H1135 H 0.18994 0.2946 0.91146 0.0
H1136 H 0.19912 0.36055 0.92797 0.0
H1137 H 0.16757 0.21038 0.9104 0.0
H1138 H 0.15985 0.36402 0.88811 0.0
H1139 H 0.14579 0.446 0.88567 0.0
H1140 H 0.07778 0.39493 0.8806 0.0
H1141 H 0.09142 0.31261 0.88321 0.0
C1142 C 0.1426 0.12123 0.84474 0.0
C1143 C 0.11979 0.11059 0.84117 0.0
C1144 C 0.14879 0.15181 0.85638 0.0
C1145 C 0.13226 0.17235 0.86451 0.0
C1146 C 0.10952 0.16249 0.86074 0.0
C1147 C 0.10336 0.1318 0.84926 0.0
C1148 C 0.13836 0.20437 0.87696 0.0
C1149 C 0.12979 0.25064 0.87639 0.0
C1150 C 0.15222 0.18962 0.88933 0.0
C1151 C 0.16118 0.14069 0.89073 0.0
C1152 C 0.14656 0.10153 0.88976 0.0
C1153 C 0.15518 0.05552 0.89093 0.0
C1154 C 0.17838 0.04823 0.89321 0.0
C1155 C 0.193 0.08692 0.89435 0.0
C1156 C 0.18448 0.133 0.89315 0.0
C1157 C 0.14198 0.36192 0.929 0.0
C1158 C 0.1644 0.37688 0.93173 0.0
C1159 C 0.1368 0.32398 0.91955 0.0
C1160 C 0.15394 0.30056 0.91269 0.0
C1161 C 0.17645 0.31241 0.91654 0.0
C1162 C 0.18164 0.35027 0.92596 0.0
C1163 C 0.14841 0.26788 0.90029 0.0
C1164 C 0.15719 0.22173 0.90082 0.0
C1165 C 0.13489 0.28278 0.88778 0.0
C1166 C 0.12664 0.3322 0.88602 0.0
C1167 C 0.14188 0.37029 0.88657 0.0
C1168 C 0.134 0.41681 0.88515 0.0
C1169 C 0.11091 0.42566 0.88304 0.0
C1170 C 0.09566 0.388 0.88227 0.0
C1171 C 0.10346 0.34141 0.88371 0.0
H1172 H 0.10483 0.46169 0.88199 0.0
H1173 H 0.18502 0.0126 0.89415 0.0
H1174 H 0.1164 0.60488 0.91499 0.0
H1175 H 0.10606 0.65859 0.89453 0.0
H1176 H 0.17615 0.67453 0.88679 0.0
H1177 H 0.18659 0.62133 0.90704 0.0
H1178 H 0.15387 0.75947 0.88681 0.0
H1179 H 0.14376 0.60497 0.86524 0.0
H1180 H 0.12824 0.52414 0.86319 0.0
H1181 H 0.06122 0.58064 0.85763 0.0
H1182 H 0.07632 0.66184 0.85992 0.0
H1183 H 0.14262 0.88179 0.82064 0.0
H1184 H 0.15225 0.81439 0.83665 0.0
H1185 H 0.08206 0.79484 0.84356 0.0
H1186 H 0.07225 0.86154 0.82745 0.0
H1187 H 0.10434 0.71013 0.84357 0.0
H1188 H 0.11336 0.86274 0.86658 0.0
H1189 H 0.1278 0.94437 0.86917 0.0
H1190 H 0.19567 0.89198 0.87272 0.0
H1191 H 0.18162 0.81002 0.86995 0.0
C1192 C 0.12957 0.61999 0.90895 0.0
C1193 C 0.1523 0.60874 0.91262 0.0
C1194 C 0.12365 0.65041 0.89723 0.0
C1195 C 0.14036 0.67018 0.88909 0.0
C1196 C 0.16301 0.65959 0.89291 0.0
C1197 C 0.16892 0.62903 0.90448 0.0
C1198 C 0.13447 0.70242 0.87666 0.0
C1199 C 0.14328 0.74847 0.87727 0.0
C1200 C 0.12026 0.6883 0.86438 0.0
C1201 C 0.11116 0.6395 0.8629 0.0
C1202 C 0.1257 0.60017 0.86371 0.0
C1203 C 0.11698 0.55428 0.86248 0.0
C1204 C 0.09376 0.54726 0.86031 0.0
C1205 C 0.0792 0.58613 0.85934 0.0
C1206 C 0.08783 0.6321 0.86059 0.0
C1207 C 0.12917 0.86226 0.8252 0.0
C1208 C 0.10671 0.87754 0.82297 0.0
C1209 C 0.13471 0.82391 0.83442 0.0
C1210 C 0.1179 0.80038 0.84155 0.0
C1211 C 0.0953 0.81271 0.83825 0.0
C1212 C 0.08975 0.851 0.82906 0.0
C1213 C 0.12393 0.76698 0.85368 0.0
C1214 C 0.11505 0.72093 0.85307 0.0
C1215 C 0.13795 0.78112 0.86605 0.0
C1216 C 0.14644 0.83031 0.86789 0.0
C1217 C 0.13137 0.86866 0.86781 0.0
C1218 C 0.13948 0.91497 0.86933 0.0
C1219 C 0.16264 0.92336 0.87106 0.0
C1220 C 0.17773 0.88542 0.87135 0.0
C1221 C 0.16971 0.83904 0.86981 0.0
H1222 H 0.16888 0.95923 0.87219 0.0
H1223 H 0.08704 0.51172 0.85934 0.0
H1224 H 0.91783 0.39153 0.64244 0.0
H1225 H 0.90205 0.34338 0.62232 0.0
H1226 H 0.84125 0.32421 0.64433 0.0
H1227 H 0.85724 0.37207 0.66487 0.0
H1228 H 0.85573 0.24248 0.63511 0.0
H1229 H 0.84157 0.39167 0.61301 0.0
H1230 H 0.84937 0.47317 0.60528 0.0
H1231 H 0.89966 0.42159 0.57817 0.0
H1232 H 0.89243 0.33978 0.58592 0.0
H1233 H 0.80586 0.116 0.57621 0.0
H1234 H 0.81204 0.19001 0.58949 0.0
H1235 H 0.88243 0.18561 0.58169 0.0
H1236 H 0.87656 0.11063 0.56853 0.0
H1237 H 0.85789 0.28419 0.5827 0.0
H1238 H 0.87539 0.13662 0.6095 0.0
H1239 H 0.86566 0.05557 0.61677 0.0
H1240 H 0.80601 0.10776 0.63482 0.0
H1241 H 0.81522 0.18907 0.62739 0.0
C1242 C 0.901 0.37752 0.64302 0.0
C1243 C 0.88884 0.38551 0.65534 0.0
C1244 C 0.89191 0.35027 0.63139 0.0
C1245 C 0.87033 0.33071 0.63169 0.0
C1246 C 0.8579 0.3392 0.64384 0.0
C1247 C 0.86705 0.36653 0.65556 0.0
C1248 C 0.86181 0.29818 0.61984 0.0
C1249 C 0.85575 0.25212 0.62368 0.0
C1250 C 0.86211 0.31036 0.60487 0.0
C1251 C 0.86655 0.35953 0.60014 0.0
C1252 C 0.85442 0.3977 0.60549 0.0
C1253 C 0.85872 0.44397 0.60109 0.0
C1254 C 0.87503 0.45256 0.59126 0.0
C1255 C 0.88704 0.41487 0.58579 0.0
C1256 C 0.88283 0.36852 0.59017 0.0
C1257 C 0.82257 0.13135 0.57689 0.0
C1258 C 0.84085 0.10682 0.57159 0.0
C1259 C 0.82601 0.17381 0.58445 0.0
C1260 C 0.8477 0.19274 0.5867 0.0
C1261 C 0.86555 0.17138 0.58002 0.0
C1262 C 0.86217 0.1285 0.57253 0.0
C1263 C 0.85233 0.22897 0.59812 0.0
C1264 C 0.85762 0.27529 0.59418 0.0
C1265 C 0.85114 0.21738 0.61301 0.0
C1266 C 0.84584 0.16874 0.61774 0.0
C1267 C 0.8601 0.13072 0.6149 0.0
C1268 C 0.8547 0.08476 0.61907 0.0
C1269 C 0.83519 0.0765 0.62621 0.0
C1270 C 0.82109 0.11421 0.62925 0.0
C1271 C 0.82639 0.16023 0.62508 0.0
H1272 H 0.83103 0.04089 0.62942 0.0
H1273 H 0.87833 0.48841 0.58786 0.0
H1274 H 0.88165 0.60709 0.69167 0.0
H1275 H 0.8723 0.68257 0.67959 0.0
H1276 H 0.9382 0.6867 0.66312 0.0
H1277 H 0.94798 0.61297 0.67563 0.0
H1278 H 0.92465 0.77325 0.66653 0.0
H1279 H 0.89255 0.63205 0.64383 0.0
H1280 H 0.87014 0.55854 0.64292 0.0
H1281 H 0.81109 0.63765 0.6517 0.0
H1282 H 0.83326 0.71157 0.65284 0.0
H1283 H 0.89846 0.87528 0.59499 0.0
H1284 H 0.91068 0.825 0.61595 0.0
H1285 H 0.84664 0.84622 0.63391 0.0
H1286 H 0.83437 0.89619 0.61328 0.0
H1287 H 0.85802 0.75203 0.63132 0.0
H1288 H 0.8917 0.89643 0.65017 0.0
H1289 H 0.91579 0.96722 0.64953 0.0
H1290 H 0.97384 0.8791 0.64588 0.0
H1291 H 0.95004 0.80775 0.64629 0.0
C1292 C 0.8944 0.62491 0.6859 0.0
C1293 C 0.91536 0.6034 0.68432 0.0
C1294 C 0.88899 0.66791 0.67891 0.0
C1295 C 0.90429 0.68946 0.67002 0.0
C1296 C 0.92601 0.67057 0.66976 0.0
C1297 C 0.93153 0.62811 0.67688 0.0
C1298 C 0.89698 0.72743 0.65951 0.0
C1299 C 0.9101 0.76861 0.65881 0.0
C1300 C 0.878 0.72147 0.64942 0.0
C1301 C 0.8646 0.67719 0.64858 0.0
C1302 C 0.87481 0.63369 0.64564 0.0
C1303 C 0.86216 0.59198 0.64508 0.0
C1304 C 0.83922 0.59341 0.6473 0.0
C1305 C 0.82887 0.63659 0.65002 0.0
C1306 C 0.84147 0.6784 0.65062 0.0
C1307 C 0.88711 0.86965 0.60349 0.0
C1308 C 0.86537 0.88943 0.60236 0.0
C1309 C 0.89414 0.84112 0.61548 0.0
C1310 C 0.87953 0.83198 0.62646 0.0
C1311 C 0.85814 0.85278 0.62554 0.0
C1312 C 0.85117 0.88134 0.61369 0.0
C1313 C 0.88565 0.79781 0.63834 0.0
C1314 C 0.87236 0.7571 0.63919 0.0
C1315 C 0.90469 0.80389 0.64833 0.0
C1316 C 0.91904 0.84675 0.64812 0.0
C1317 C 0.90957 0.89214 0.6491 0.0
C1318 C 0.92318 0.93238 0.64881 0.0
C1319 C 0.94632 0.92767 0.64763 0.0
C1320 C 0.95591 0.8827 0.64678 0.0
C1321 C 0.94237 0.84235 0.64706 0.0
H1322 H 0.95683 0.95886 0.6474 0.0
H1323 H 0.82945 0.56108 0.64686 0.0
H1324 H 0.88978 0.61145 0.07254 0.0
H1325 H 0.89655 0.68272 0.08745 0.0
H1326 H 0.82504 0.70066 0.08973 0.0
H1327 H 0.81808 0.62999 0.07486 0.0
H1328 H 0.88076 0.78123 0.08774 0.0
H1329 H 0.8177 0.71055 0.1265 0.0
H1330 H 0.79976 0.63513 0.13264 0.0
H1331 H 0.85756 0.55842 0.12024 0.0
H1332 H 0.87597 0.63339 0.11427 0.0
H1333 H 0.85949 0.88556 0.16552 0.0
H1334 H 0.84759 0.83605 0.14437 0.0
H1335 H 0.91611 0.83142 0.13221 0.0
H1336 H 0.92792 0.88144 0.15289 0.0
H1337 H 0.8585 0.74926 0.13782 0.0
H1338 H 0.91898 0.82207 0.09615 0.0
H1339 H 0.93607 0.89807 0.08978 0.0
H1340 H 0.88219 0.97351 0.10793 0.0
H1341 H 0.86459 0.898 0.11422 0.0
C1342 C 0.87548 0.63147 0.07579 0.0
C1343 C 0.85342 0.61455 0.07275 0.0
C1344 C 0.87938 0.67217 0.08431 0.0
C1345 C 0.86129 0.69625 0.08989 0.0
C1346 C 0.83922 0.68214 0.08566 0.0
C1347 C 0.8353 0.64169 0.07715 0.0
C1348 C 0.86545 0.73155 0.10169 0.0
C1349 C 0.87608 0.77431 0.09873 0.0
C1350 C 0.85873 0.72279 0.11589 0.0
C1351 C 0.84806 0.67753 0.11977 0.0
C1352 C 0.8266 0.67758 0.12514 0.0
C1353 C 0.81635 0.63492 0.12859 0.0
C1354 C 0.82748 0.592 0.12678 0.0
C1355 C 0.84892 0.59167 0.12158 0.0
C1356 C 0.85926 0.63423 0.11816 0.0
C1357 C 0.87196 0.87415 0.15828 0.0
C1358 C 0.89462 0.88766 0.16086 0.0
C1359 C 0.86515 0.84593 0.1462 0.0
C1360 C 0.88088 0.83077 0.13652 0.0
C1361 C 0.90353 0.84373 0.13924 0.0
C1362 C 0.91029 0.87211 0.15118 0.0
C1363 C 0.87406 0.79929 0.12401 0.0
C1364 C 0.86296 0.75688 0.12683 0.0
C1365 C 0.88024 0.80865 0.10967 0.0
C1366 C 0.89057 0.8543 0.10576 0.0
C1367 C 0.91071 0.85486 0.09871 0.0
C1368 C 0.9205 0.89787 0.09513 0.0
C1369 C 0.91026 0.94059 0.09848 0.0
C1370 C 0.89015 0.94039 0.10538 0.0
C1371 C 0.88028 0.89749 0.10898 0.0
H1372 H 0.91788 0.97384 0.09571 0.0
H1373 H 0.8195 0.55901 0.12943 0.0
H1374 H 0.94221 0.13132 0.18165 0.0
H1375 H 0.93227 0.20121 0.16716 0.0
H1376 H 0.86216 0.17954 0.17402 0.0
H1377 H 0.87199 0.10827 0.18829 0.0
H1378 H 0.86762 0.1843 0.14613 0.0
H1379 H 0.89182 0.28006 0.18689 0.0
H1380 H 0.91692 0.30778 0.20772 0.0
H1381 H 0.96792 0.34134 0.17876 0.0
H1382 H 0.94324 0.3132 0.15776 0.0
H1383 H 0.83232 0.38452 0.1048 0.0
H1384 H 0.84157 0.33278 0.12556 0.0
H1385 H 0.91105 0.33023 0.11544 0.0
H1386 H 0.90194 0.3825 0.09442 0.0
H1387 H 0.90439 0.34183 0.146 0.0
H1388 H 0.88074 0.23961 0.10576 0.0
H1389 H 0.85524 0.21227 0.08506 0.0
H1390 H 0.80253 0.19158 0.11381 0.0
H1391 H 0.82763 0.21948 0.13465 0.0
C1392 C 0.92471 0.14204 0.18044 0.0
C1393 C 0.90785 0.11379 0.18596 0.0
C1394 C 0.91906 0.18235 0.17219 0.0
C1395 C 0.89645 0.19571 0.16945 0.0
C1396 C 0.87972 0.16979 0.17596 0.0
C1397 C 0.88537 0.12922 0.1842 0.0
C1398 C 0.89024 0.23222 0.1582 0.0
C1399 C 0.87529 0.21915 0.14632 0.0
C1400 C 0.90079 0.27717 0.15815 0.0
C1401 C 0.91571 0.29416 0.17075 0.0
C1402 C 0.90845 0.29299 0.18497 0.0
C1403 C 0.92259 0.30885 0.19681 0.0
C1404 C 0.94402 0.32622 0.19457 0.0
C1405 C 0.95132 0.32786 0.18048 0.0
C1406 C 0.93725 0.31202 0.1686 0.0
C1407 C 0.84963 0.37322 0.10695 0.0
C1408 C 0.86639 0.38748 0.09786 0.0
C1409 C 0.85485 0.34359 0.11885 0.0
C1410 C 0.87693 0.32749 0.12197 0.0
C1411 C 0.89389 0.34239 0.11319 0.0
C1412 C 0.88864 0.37198 0.10115 0.0
C1413 C 0.8819 0.2936 0.13409 0.0
C1414 C 0.89661 0.30713 0.14601 0.0
C1415 C 0.87109 0.24906 0.13425 0.0
C1416 C 0.85599 0.23212 0.12174 0.0
C1417 C 0.86365 0.22963 0.10765 0.0
C1418 C 0.84928 0.21395 0.09589 0.0
C1419 C 0.82726 0.20032 0.09811 0.0
C1420 C 0.81958 0.20222 0.1121 0.0
C1421 C 0.83387 0.21793 0.12389 0.0
H1422 H 0.81616 0.18818 0.089 0.0
H1423 H 0.95494 0.33849 0.20375 0.0
H1424 H 0.61894 0.56328 0.86263 0.0
H1425 H 0.62863 0.61723 0.88293 0.0
H1426 H 0.64769 0.72371 0.85247 0.0
H1427 H 0.63929 0.66845 0.83221 0.0
H1428 H 0.67352 0.7324 0.87534 0.0
H1429 H 0.59376 0.71967 0.86696 0.0
H1430 H 0.557 0.67932 0.86385 0.0
H1431 H 0.56657 0.62456 0.9075 0.0
H1432 H 0.60354 0.66412 0.9108 0.0
H1433 H 0.62357 0.91593 0.92569 0.0
H1434 H 0.61672 0.84664 0.91008 0.0
H1435 H 0.68254 0.79229 0.92422 0.0
H1436 H 0.68989 0.86297 0.93919 0.0
H1437 H 0.61429 0.75677 0.90979 0.0
H1438 H 0.70774 0.74545 0.89627 0.0
H1439 H 0.74113 0.79719 0.89627 0.0
H1440 H 0.69837 0.9194 0.89112 0.0
H1441 H 0.66477 0.86835 0.89089 0.0
C1442 C 0.62563 0.59792 0.86033 0.0
C1443 C 0.62827 0.61198 0.8459 0.0
C1444 C 0.63097 0.62889 0.87192 0.0
C1445 C 0.63821 0.67516 0.86923 0.0
C1446 C 0.642 0.68832 0.85484 0.0
C1447 C 0.63724 0.65679 0.84327 0.0
C1448 C 0.64083 0.7104 0.88129 0.0
C1449 C 0.66059 0.7375 0.8829 0.0
C1450 C 0.62375 0.71816 0.89098 0.0
C1451 C 0.60151 0.69444 0.88907 0.0
C1452 C 0.58809 0.69876 0.87586 0.0
C1453 C 0.56721 0.67607 0.87407 0.0
C1454 C 0.55948 0.64928 0.88546 0.0
C1455 C 0.57259 0.64525 0.89868 0.0
C1456 C 0.5935 0.66782 0.90052 0.0
C1457 C 0.63629 0.88849 0.92581 0.0
C1458 C 0.65736 0.89499 0.93349 0.0
C1459 C 0.63241 0.84892 0.91682 0.0
C1460 C 0.64941 0.81493 0.91559 0.0
C1461 C 0.66945 0.81878 0.92461 0.0
C1462 C 0.67355 0.8589 0.93329 0.0
C1463 C 0.64703 0.77847 0.90388 0.0
C1464 C 0.62732 0.75122 0.90233 0.0
C1465 C 0.66367 0.77218 0.89379 0.0
C1466 C 0.68378 0.80311 0.89374 0.0
C1467 C 0.70549 0.78335 0.89509 0.0
C1468 C 0.72444 0.81255 0.89514 0.0
C1469 C 0.72187 0.86156 0.89375 0.0
C1470 C 0.70034 0.88145 0.89225 0.0
C1471 C 0.68134 0.85241 0.89216 0.0
H1472 H 0.73657 0.8841 0.89381 0.0
H1473 H 0.54332 0.63174 0.88405 0.0
H1474 H 0.61595 0.12456 0.91055 0.0
H1475 H 0.60732 0.17524 0.88911 0.0
H1476 H 0.67731 0.17382 0.88012 0.0
H1477 H 0.68605 0.12329 0.9013 0.0
H1478 H 0.65846 0.26424 0.8799 0.0
H1479 H 0.64209 0.11008 0.8594 0.0
H1480 H 0.62355 0.03203 0.85806 0.0
H1481 H 0.55876 0.09931 0.85317 0.0
H1482 H 0.57692 0.17782 0.8547 0.0
H1483 H 0.64456 0.39549 0.81585 0.0
H1484 H 0.65487 0.32435 0.83004 0.0
H1485 H 0.58517 0.30251 0.83795 0.0
H1486 H 0.57468 0.37219 0.82344 0.0
H1487 H 0.60572 0.21993 0.83767 0.0
H1488 H 0.61976 0.37102 0.86096 0.0
H1489 H 0.63615 0.45108 0.86331 0.0
H1490 H 0.7027 0.39201 0.86447 0.0
H1491 H 0.68666 0.3116 0.86191 0.0
C1492 C 0.62947 0.13503 0.90399 0.0
C1493 C 0.65167 0.11987 0.90763 0.0
C1494 C 0.6245 0.16372 0.89172 0.0
C1495 C 0.64169 0.17795 0.883 0.0
C1496 C 0.66382 0.16312 0.88669 0.0
C1497 C 0.66875 0.13414 0.8988 0.0
C1498 C 0.63688 0.20968 0.87031 0.0
C1499 C 0.64722 0.25426 0.87055 0.0
C1500 C 0.6218 0.19699 0.8583 0.0
C1501 C 0.61086 0.14983 0.8573 0.0
C1502 C 0.62388 0.10824 0.85816 0.0
C1503 C 0.61344 0.06391 0.85734 0.0
C1504 C 0.58999 0.06071 0.85557 0.0
C1505 C 0.57693 0.10184 0.85457 0.0
C1506 C 0.58729 0.14626 0.85539 0.0
C1507 C 0.63134 0.37453 0.82014 0.0
C1508 C 0.60887 0.39012 0.81881 0.0
C1509 C 0.63728 0.33406 0.82835 0.0
C1510 C 0.62087 0.30905 0.83546 0.0
C1511 C 0.59816 0.3215 0.83272 0.0
C1512 C 0.59221 0.36158 0.82444 0.0
C1513 C 0.62734 0.27455 0.84724 0.0
C1514 C 0.61722 0.22963 0.84691 0.0
C1515 C 0.64233 0.28717 0.85934 0.0
C1516 C 0.65202 0.33539 0.86108 0.0
C1517 C 0.63789 0.37515 0.86163 0.0
C1518 C 0.64711 0.42057 0.863 0.0
C1519 C 0.67045 0.42663 0.86399 0.0
C1520 C 0.68462 0.38726 0.86367 0.0
C1521 C 0.67548 0.34176 0.86226 0.0
H1522 H 0.67756 0.46183 0.86505 0.0
H1523 H 0.58194 0.02636 0.85493 0.0
H1524 H 0.64523 0.11256 0.34044 0.0
H1525 H 0.65509 0.16282 0.3618 0.0
H1526 H 0.5853 0.16734 0.37122 0.0
H1527 H 0.57534 0.11731 0.35012 0.0
H1528 H 0.60557 0.25597 0.37103 0.0
H1529 H 0.61976 0.10157 0.3919 0.0
H1530 H 0.63704 0.02223 0.39345 0.0
H1531 H 0.70288 0.08482 0.39789 0.0
H1532 H 0.68599 0.16458 0.39617 0.0
H1533 H 0.62103 0.38746 0.43464 0.0
H1534 H 0.61021 0.31576 0.42092 0.0
H1535 H 0.67956 0.29221 0.41243 0.0
H1536 H 0.69058 0.36264 0.42644 0.0
H1537 H 0.65805 0.20953 0.41318 0.0
H1538 H 0.64587 0.36076 0.3896 0.0
H1539 H 0.63057 0.44178 0.38722 0.0
H1540 H 0.56327 0.38693 0.38645 0.0
H1541 H 0.57822 0.30559 0.38906 0.0
C1542 C 0.63203 0.12423 0.34708 0.0
C1543 C 0.60952 0.11094 0.34357 0.0
C1544 C 0.63769 0.15266 0.35931 0.0
C1545 C 0.62091 0.16846 0.36812 0.0
C1546 C 0.59848 0.15539 0.36458 0.0
C1547 C 0.59286 0.12671 0.35251 0.0
C1548 C 0.62641 0.20026 0.38069 0.0
C1549 C 0.61675 0.24553 0.38037 0.0
C1550 C 0.64142 0.18695 0.39267 0.0
C1551 C 0.65161 0.13904 0.39376 0.0
C1552 C 0.63793 0.09842 0.39308 0.0
C1553 C 0.64765 0.05337 0.39402 0.0
C1554 C 0.67105 0.04849 0.39573 0.0
C1555 C 0.68476 0.08866 0.39655 0.0
C1556 C 0.67512 0.13379 0.39561 0.0
C1557 C 0.63408 0.36603 0.43034 0.0
C1558 C 0.65659 0.38139 0.43131 0.0
C1559 C 0.62785 0.3252 0.42242 0.0
C1560 C 0.644 0.29957 0.41525 0.0
C1561 C 0.66678 0.31171 0.41771 0.0
C1562 C 0.67303 0.35221 0.4257 0.0
C1563 C 0.63709 0.26517 0.40356 0.0
C1564 C 0.64661 0.21966 0.40396 0.0
C1565 C 0.6222 0.27843 0.39148 0.0
C1566 C 0.61316 0.32719 0.38969 0.0
C1567 C 0.62781 0.36603 0.38901 0.0
C1568 C 0.61921 0.41198 0.38762 0.0
C1569 C 0.59596 0.4195 0.38673 0.0
C1570 C 0.58127 0.38105 0.38717 0.0
C1571 C 0.5898 0.33502 0.38861 0.0
H1572 H 0.58933 0.45511 0.38565 0.0
H1573 H 0.67854 0.01358 0.39645 0.0
H1574 H 0.65712 0.56368 0.38631 0.0
H1575 H 0.64675 0.61736 0.3661 0.0
H1576 H 0.60697 0.70003 0.39408 0.0
H1577 H 0.61728 0.64609 0.41448 0.0
H1578 H 0.60691 0.64899 0.3517 0.0
H1579 H 0.61923 0.817 0.38688 0.0
H1580 H 0.63953 0.84271 0.40995 0.0
H1581 H 0.68983 0.73611 0.40512 0.0
H1582 H 0.67001 0.71028 0.38193 0.0
H1583 H 0.56575 0.86282 0.31786 0.0
H1584 H 0.57515 0.79146 0.33196 0.0
H1585 H 0.64577 0.82508 0.33194 0.0
H1586 H 0.63647 0.89698 0.31785 0.0
H1587 H 0.63277 0.81472 0.35925 0.0
H1588 H 0.62502 0.72664 0.31483 0.0
H1589 H 0.60663 0.70009 0.29129 0.0
H1590 H 0.55104 0.64534 0.31322 0.0
H1591 H 0.56894 0.67217 0.33688 0.0
C1592 C 0.6459 0.59291 0.38814 0.0
C1593 C 0.63822 0.60105 0.40203 0.0
C1594 C 0.6399 0.62337 0.37654 0.0
C1595 C 0.62633 0.6629 0.37864 0.0
C1596 C 0.61763 0.66984 0.39229 0.0
C1597 C 0.62345 0.63898 0.4039 0.0
C1598 C 0.62295 0.69873 0.3669 0.0
C1599 C 0.61244 0.68531 0.35333 0.0
C1600 C 0.63074 0.74571 0.36894 0.0
C1601 C 0.64299 0.76139 0.38277 0.0
C1602 C 0.63466 0.79917 0.39073 0.0
C1603 C 0.64608 0.81376 0.40383 0.0
C1604 C 0.66591 0.79094 0.40903 0.0
C1605 C 0.67442 0.75363 0.40111 0.0
C1606 C 0.66309 0.73897 0.388 0.0
C1607 C 0.58334 0.85435 0.32048 0.0
C1608 C 0.60036 0.88581 0.31687 0.0
C1609 C 0.58868 0.81342 0.32852 0.0
C1610 C 0.61115 0.80311 0.33308 0.0
C1611 C 0.62831 0.83254 0.32856 0.0
C1612 C 0.62297 0.87343 0.32042 0.0
C1613 C 0.61635 0.76535 0.34404 0.0
C1614 C 0.6272 0.77844 0.35754 0.0
C1615 C 0.60906 0.71803 0.34184 0.0
C1616 C 0.59825 0.70177 0.32763 0.0
C1617 C 0.60878 0.70929 0.31463 0.0
C1618 C 0.59847 0.69412 0.30126 0.0
C1619 C 0.57766 0.67113 0.30075 0.0
C1620 C 0.56715 0.66318 0.31362 0.0
C1621 C 0.57739 0.6783 0.32702 0.0
H1622 H 0.5697 0.65941 0.29039 0.0
H1623 H 0.67471 0.80225 0.41918 0.0
H1624 H 0.42785 0.37773 0.14762 0.0
H1625 H 0.41743 0.3285 0.12648 0.0
H1626 H 0.34745 0.33925 0.13521 0.0
H1627 H 0.35788 0.38791 0.15679 0.0
H1628 H 0.35736 0.25163 0.12902 0.0
H1629 H 0.36956 0.40033 0.10644 0.0
H1630 H 0.38987 0.4738 0.10135 0.0
H1631 H 0.44385 0.39256 0.0855 0.0
H1632 H 0.42401 0.31854 0.09069 0.0
H1633 H 0.31886 0.13963 0.06494 0.0
H1634 H 0.32697 0.21046 0.07955 0.0
H1635 H 0.39805 0.1811 0.0802 0.0
H1636 H 0.3901 0.1097 0.06557 0.0
H1637 H 0.38527 0.28278 0.08033 0.0
H1638 H 0.37422 0.13484 0.10571 0.0
H1639 H 0.35326 0.06179 0.11035 0.0
H1640 H 0.29606 0.14433 0.1207 0.0
H1641 H 0.31657 0.21789 0.11586 0.0
C1642 C 0.41019 0.36986 0.14506 0.0
C1643 C 0.39367 0.38693 0.15389 0.0
C1644 C 0.40425 0.34193 0.13287 0.0
C1645 C 0.38161 0.33099 0.12904 0.0
C1646 C 0.36503 0.34756 0.13789 0.0
C1647 C 0.371 0.37528 0.15023 0.0
C1648 C 0.37553 0.30033 0.1162 0.0
C1649 C 0.3631 0.25909 0.11832 0.0
C1650 C 0.38341 0.30939 0.10227 0.0
C1651 C 0.39536 0.35385 0.09906 0.0
C1652 C 0.38583 0.39811 0.10197 0.0
C1653 C 0.39725 0.43986 0.09905 0.0
C1654 C 0.41815 0.43784 0.09313 0.0
C1655 C 0.42766 0.39406 0.09009 0.0
C1656 C 0.41632 0.35219 0.093 0.0
C1657 C 0.33628 0.149 0.06775 0.0
C1658 C 0.35383 0.11852 0.06436 0.0
C1659 C 0.34086 0.18955 0.0761 0.0
C1660 C 0.36304 0.20032 0.08118 0.0
C1661 C 0.3808 0.17315 0.0764 0.0
C1662 C 0.37622 0.13239 0.06802 0.0
C1663 C 0.36725 0.23452 0.09328 0.0
C1664 C 0.37936 0.27601 0.09102 0.0
C1665 C 0.35903 0.22595 0.1071 0.0
C1666 C 0.34682 0.18181 0.11026 0.0
C1667 C 0.3571 0.13739 0.10886 0.0
C1668 C 0.34532 0.0959 0.11154 0.0
C1669 C 0.32332 0.09841 0.11578 0.0
C1670 C 0.31309 0.14244 0.11739 0.0
C1671 C 0.32478 0.18404 0.11468 0.0
H1672 H 0.31422 0.06626 0.11785 0.0
H1673 H 0.42697 0.47021 0.09088 0.0
H1674 H 0.43935 0.62733 0.17381 0.0
H1675 H 0.4303 0.699 0.16008 0.0
H1676 H 0.36076 0.68645 0.16971 0.0
H1677 H 0.36961 0.61297 0.18311 0.0
H1678 H 0.36267 0.69577 0.14201 0.0
H1679 H 0.39572 0.78156 0.18245 0.0
H1680 H 0.42395 0.80242 0.20244 0.0
H1681 H 0.47273 0.82948 0.17138 0.0
H1682 H 0.44491 0.80813 0.1512 0.0
H1683 H 0.33383 0.90596 0.10361 0.0
H1684 H 0.34286 0.85365 0.12426 0.0
H1685 H 0.40906 0.83014 0.1097 0.0
H1686 H 0.40013 0.88267 0.08872 0.0
H1687 H 0.40678 0.8446 0.14137 0.0
H1688 H 0.3728 0.75089 0.10133 0.0
H1689 H 0.34319 0.73257 0.08191 0.0
H1690 H 0.29422 0.72373 0.11377 0.0
H1691 H 0.3235 0.74276 0.13336 0.0
C1692 C 0.42219 0.64025 0.17334 0.0
C1693 C 0.40514 0.61398 0.17942 0.0
C1694 C 0.41706 0.68167 0.16553 0.0
C1695 C 0.39484 0.69841 0.16385 0.0
C1696 C 0.37803 0.67416 0.17082 0.0
C1697 C 0.38313 0.6323 0.17856 0.0
C1698 C 0.38891 0.7373 0.15333 0.0
C1699 C 0.37201 0.72873 0.14213 0.0
C1700 C 0.4014 0.78 0.1532 0.0
C1701 C 0.41824 0.7929 0.1653 0.0
C1702 C 0.41252 0.7916 0.17988 0.0
C1703 C 0.42844 0.80359 0.19125 0.0
C1704 C 0.45013 0.81719 0.18818 0.0
C1705 C 0.45593 0.81893 0.17374 0.0
C1706 C 0.44007 0.80695 0.16232 0.0
C1707 C 0.35043 0.89011 0.10478 0.0
C1708 C 0.36622 0.89822 0.0944 0.0
C1709 C 0.35552 0.86022 0.11664 0.0
C1710 C 0.37653 0.83785 0.11842 0.0
C1711 C 0.39274 0.84721 0.10847 0.0
C1712 C 0.38758 0.877 0.09648 0.0
C1713 C 0.38085 0.80245 0.13018 0.0
C1714 C 0.39738 0.81175 0.1415 0.0
C1715 C 0.36786 0.76065 0.13056 0.0
C1716 C 0.3503 0.74874 0.11879 0.0
C1717 C 0.35569 0.74544 0.10418 0.0
C1718 C 0.33897 0.73486 0.09314 0.0
C1719 C 0.31683 0.7271 0.0966 0.0
C1720 C 0.31137 0.72981 0.11111 0.0
C1721 C 0.32802 0.74046 0.12218 0.0
H1722 H 0.30391 0.71884 0.08805 0.0
H1723 H 0.46243 0.82645 0.197 0.0
H1724 H 0.43061 0.86953 0.64813 0.0
H1725 H 0.41836 0.8205 0.62731 0.0
H1726 H 0.34964 0.83047 0.6388 0.0
H1727 H 0.3619 0.87945 0.66002 0.0
H1728 H 0.36025 0.74155 0.63185 0.0
H1729 H 0.36745 0.89292 0.61003 0.0
H1730 H 0.38609 0.96843 0.60498 0.0
H1731 H 0.43892 0.8933 0.58558 0.0
H1732 H 0.42084 0.81724 0.59077 0.0
H1733 H 0.31728 0.63174 0.56829 0.0
H1734 H 0.32574 0.70151 0.58332 0.0
H1735 H 0.39678 0.67756 0.58068 0.0
H1736 H 0.38847 0.60709 0.56562 0.0
H1737 H 0.38218 0.77864 0.58201 0.0
H1738 H 0.37715 0.62822 0.6071 0.0
H1739 H 0.35865 0.55275 0.6124 0.0
H1740 H 0.30108 0.62839 0.62566 0.0
H1741 H 0.31913 0.70434 0.6202 0.0
C1742 C 0.41284 0.86149 0.64628 0.0
C1743 C 0.39719 0.87866 0.65574 0.0
C1744 C 0.40586 0.83364 0.63427 0.0
C1745 C 0.38304 0.82265 0.6313 0.0
C1746 C 0.36734 0.83892 0.64083 0.0
C1747 C 0.37435 0.8668 0.65296 0.0
C1748 C 0.37594 0.7927 0.6185 0.0
C1749 C 0.36464 0.75024 0.62092 0.0
C1750 C 0.38209 0.80354 0.60425 0.0
C1751 C 0.39285 0.84929 0.60088 0.0
C1752 C 0.38312 0.89245 0.60477 0.0
C1753 C 0.39358 0.93537 0.60188 0.0
C1754 C 0.41369 0.93566 0.59498 0.0
C1755 C 0.42335 0.89302 0.59093 0.0
C1756 C 0.41299 0.84998 0.59383 0.0
C1757 C 0.33472 0.64208 0.5705 0.0
C1758 C 0.35223 0.6134 0.566 0.0
C1759 C 0.3395 0.68202 0.57908 0.0
C1760 C 0.36186 0.69404 0.58331 0.0
C1761 C 0.3794 0.66866 0.57753 0.0
C1762 C 0.37462 0.62846 0.56891 0.0
C1763 C 0.3667 0.72774 0.59548 0.0
C1764 C 0.37757 0.77057 0.59294 0.0
C1765 C 0.36014 0.71747 0.60964 0.0
C1766 C 0.34937 0.67189 0.61308 0.0
C1767 C 0.36047 0.62873 0.61102 0.0
C1768 C 0.35008 0.58588 0.61407 0.0
C1769 C 0.32867 0.58577 0.61932 0.0
C1770 C 0.31764 0.62853 0.62157 0.0
C1771 C 0.32795 0.67149 0.6185 0.0
H1772 H 0.32065 0.55256 0.62169 0.0
H1773 H 0.42177 0.96892 0.59276 0.0
H1774 H 0.33818 0.38908 0.60178 0.0
H1775 H 0.35126 0.33615 0.62147 0.0
H1776 H 0.41509 0.32138 0.60267 0.0
H1777 H 0.40187 0.37406 0.58256 0.0
H1778 H 0.39932 0.23743 0.6103 0.0
H1779 H 0.41013 0.38691 0.63387 0.0
H1780 H 0.39967 0.46709 0.64151 0.0
H1781 H 0.34731 0.409 0.66574 0.0
H1782 H 0.35722 0.32847 0.65807 0.0
H1783 H 0.45015 0.11479 0.67015 0.0
H1784 H 0.44209 0.18394 0.6548 0.0
H1785 H 0.37283 0.18107 0.66535 0.0
H1786 H 0.38061 0.11094 0.68067 0.0
H1787 H 0.39383 0.27664 0.66261 0.0
H1788 H 0.38092 0.12868 0.63688 0.0
H1789 H 0.39118 0.04856 0.62903 0.0
H1790 H 0.44801 0.10527 0.60881 0.0
H1791 H 0.43827 0.18571 0.61675 0.0
C1792 C 0.35508 0.3749 0.60181 0.0
C1793 C 0.369 0.3859 0.59056 0.0
C1794 C 0.36258 0.34481 0.61317 0.0
C1795 C 0.38429 0.32539 0.6137 0.0
C1796 C 0.39831 0.33622 0.60252 0.0
C1797 C 0.39075 0.36634 0.59105 0.0
C1798 C 0.39172 0.29197 0.62558 0.0
C1799 C 0.39854 0.24642 0.62174 0.0
C1800 C 0.39019 0.30327 0.64051 0.0
C1801 C 0.38432 0.35163 0.6453 0.0
C1802 C 0.39628 0.39123 0.64075 0.0
C1803 C 0.39046 0.43676 0.6451 0.0
C1804 C 0.37281 0.44314 0.65408 0.0
C1805 C 0.36098 0.404 0.65877 0.0
C1806 C 0.36671 0.35839 0.65444 0.0
C1807 C 0.43328 0.12934 0.66952 0.0
C1808 C 0.41591 0.10679 0.67646 0.0
C1809 C 0.42874 0.16893 0.66073 0.0
C1810 C 0.40683 0.187 0.65879 0.0
C1811 C 0.38986 0.16739 0.66671 0.0
C1812 C 0.39434 0.12737 0.67546 0.0
C1813 C 0.40128 0.2225 0.64725 0.0
C1814 C 0.3948 0.26814 0.65116 0.0
C1815 C 0.40315 0.21144 0.63236 0.0
C1816 C 0.40903 0.16312 0.62756 0.0
C1817 C 0.39574 0.124 0.63089 0.0
C1818 C 0.40143 0.07855 0.6264 0.0
C1819 C 0.42027 0.07181 0.61846 0.0
C1820 C 0.43344 0.11054 0.61498 0.0
C1821 C 0.42784 0.15607 0.61947 0.0
H1822 H 0.42464 0.0366 0.61498 0.0
H1823 H 0.36832 0.47842 0.65743 0.0
loop_
_geom_bond_atom_site_label_1
_geom_bond_atom_site_label_2
_geom_bond_distance
_geom_bond_site_symmetry_2
_ccdc_geom_bond_type
Zn0 O3 2.031 . S
Zn0 O5 2.049 . S
Zn0 O10 2.067 . S
Zn1 O2 1.962 . S
Zn1 O4 1.986 . S
Zn1 O6 1.996 . S
Zn1 O9 1.943 . S
O2 Zn1 1.962 . S
O2 C7 1.254 . S
O3 Zn0 2.031 . S
O3 C7 1.269 . S
O4 Zn1 1.986 . S
O4 C11 1.262 . S
O5 Zn0 2.049 . S
O5 C13 1.260 . S
O6 Zn1 1.996 . S
O6 C13 1.257 . S
C7 O2 1.254 . S
C7 O3 1.269 . S
C8 O9 1.249 . S
C8 O10 1.270 . S
O9 Zn1 1.943 . S
O9 C8 1.249 . S
O10 Zn0 2.067 . S
O10 C8 1.270 . S
C11 O4 1.262 . S
C11 O12 1.232 . S
O12 C11 1.232 . S
C13 O5 1.260 . S
C13 O6 1.257 . S
Zn14 O17 2.031 . S
Zn14 O19 2.049 . S
Zn14 O24 2.067 . S
Zn15 O16 1.962 . S
Zn15 O18 1.986 . S
Zn15 O20 1.996 . S
Zn15 O23 1.943 . S
O16 Zn15 1.962 . S
O16 C21 1.254 . S
O17 Zn14 2.031 . S
O17 C21 1.269 . S
O18 Zn15 1.986 . S
O18 C25 1.262 . S
O19 Zn14 2.049 . S
O19 C27 1.260 . S
O20 Zn15 1.996 . S
O20 C27 1.257 . S
C21 O16 1.254 . S
C21 O17 1.269 . S
C22 O23 1.249 . S
C22 O24 1.270 . S
O23 Zn15 1.943 . S
O23 C22 1.249 . S
O24 Zn14 2.067 . S
O24 C22 1.270 . S
C25 O18 1.262 . S
C25 O26 1.232 . S
O26 C25 1.232 . S
C27 O19 1.260 . S
C27 O20 1.257 . S
Zn28 O31 2.031 . S
Zn28 O33 2.049 . S
Zn28 O38 2.067 . S
Zn29 O30 1.962 . S
Zn29 O32 1.986 . S
Zn29 O34 1.996 . S
Zn29 O37 1.943 . S
O30 Zn29 1.962 . S
O30 C35 1.254 . S
O31 Zn28 2.031 . S
O31 C35 1.269 . S
O32 Zn29 1.986 . S
O32 C39 1.262 . S
O33 Zn28 2.049 . S
O33 C41 1.260 . S
O34 Zn29 1.996 . S
O34 C41 1.257 . S
C35 O30 1.254 . S
C35 O31 1.269 . S
C36 O37 1.249 . S
C36 O38 1.270 . S
O37 Zn29 1.943 . S
O37 C36 1.249 . S
O38 Zn28 2.067 . S
O38 C36 1.270 . S
C39 O32 1.262 . S
C39 O40 1.232 . S
O40 C39 1.232 . S
C41 O33 1.260 . S
C41 O34 1.257 . S
Zn42 O45 2.031 . S
Zn42 O47 2.049 . S
Zn42 O52 2.067 . S
Zn43 O44 1.962 . S
Zn43 O46 1.986 . S
Zn43 O48 1.996 . S
Zn43 O51 1.943 . S
O44 Zn43 1.962 . S
O44 C49 1.254 . S
O45 Zn42 2.031 . S
O45 C49 1.269 . S
O46 Zn43 1.986 . S
O46 C53 1.262 . S
O47 Zn42 2.049 . S
O47 C55 1.260 . S
O48 Zn43 1.996 . S
O48 C55 1.257 . S
C49 O44 1.254 . S
C49 O45 1.269 . S
C50 O51 1.249 . S
C50 O52 1.270 . S
O51 Zn43 1.943 . S
O51 C50 1.249 . S
O52 Zn42 2.067 . S
O52 C50 1.270 . S
C53 O46 1.262 . S
C53 O54 1.232 . S
O54 C53 1.232 . S
C55 O47 1.260 . S
C55 O48 1.257 . S
Zn56 O59 2.031 . S
Zn56 O61 2.049 . S
Zn56 O66 2.067 . S
Zn57 O58 1.962 . S
Zn57 O60 1.986 . S
Zn57 O62 1.996 . S
Zn57 O65 1.943 . S
O58 Zn57 1.962 . S
O58 C63 1.254 . S
O59 Zn56 2.031 . S
O59 C63 1.269 . S
O60 Zn57 1.986 . S
O60 C67 1.262 . S
O61 Zn56 2.049 . S
O61 C69 1.260 . S
O62 Zn57 1.996 . S
O62 C69 1.257 . S
C63 O58 1.254 . S
C63 O59 1.269 . S
C64 O65 1.249 . S
C64 O66 1.270 . S
O65 Zn57 1.943 . S
O65 C64 1.249 . S
O66 Zn56 2.067 . S
O66 C64 1.270 . S
C67 O60 1.262 . S
C67 O68 1.232 . S
O68 C67 1.232 . S
C69 O61 1.260 . S
C69 O62 1.257 . S
Zn70 O73 2.031 . S
Zn70 O75 2.049 . S
Zn70 O80 2.067 . S
Zn71 O72 1.962 . S
Zn71 O74 1.986 . S
Zn71 O76 1.996 . S
Zn71 O79 1.943 . S
O72 Zn71 1.962 . S
O72 C77 1.254 . S
O73 Zn70 2.031 . S
O73 C77 1.269 . S
O74 Zn71 1.986 . S
O74 C81 1.262 . S
O75 Zn70 2.049 . S
O75 C83 1.260 . S
O76 Zn71 1.996 . S
O76 C83 1.257 . S
C77 O72 1.254 . S
C77 O73 1.269 . S
C78 O79 1.249 . S
C78 O80 1.270 . S
O79 Zn71 1.943 . S
O79 C78 1.249 . S
O80 Zn70 2.067 . S
O80 C78 1.270 . S
C81 O74 1.262 . S
C81 O82 1.232 . S
O82 C81 1.232 . S
C83 O75 1.260 . S
C83 O76 1.257 . S
Zn84 O87 2.031 . S
Zn84 O89 2.049 . S
Zn84 O94 2.067 . S
Zn85 O86 1.962 . S
Zn85 O88 1.986 . S
Zn85 O90 1.996 . S
Zn85 O93 1.943 . S
O86 Zn85 1.962 . S
O86 C91 1.254 . S
O87 Zn84 2.031 . S
O87 C91 1.269 . S
O88 Zn85 1.986 . S
O88 C95 1.262 . S
O89 Zn84 2.049 . S
O89 C97 1.260 . S
O90 Zn85 1.996 . S
O90 C97 1.257 . S
C91 O86 1.254 . S
C91 O87 1.269 . S
C92 O93 1.249 . S
C92 O94 1.270 . S
O93 Zn85 1.943 . S
O93 C92 1.249 . S
O94 Zn84 2.067 . S
O94 C92 1.270 . S
C95 O88 1.262 . S
C95 O96 1.232 . S
O96 C95 1.232 . S
C97 O89 1.260 . S
C97 O90 1.257 . S
Zn98 O101 2.031 . S
Zn98 O103 2.049 . S
Zn98 O108 2.067 . S
Zn99 O100 1.962 . S
Zn99 O102 1.986 . S
Zn99 O104 1.996 . S
Zn99 O107 1.943 . S
O100 Zn99 1.962 . S
O100 C105 1.254 . S
O101 Zn98 2.031 . S
O101 C105 1.269 . S
O102 Zn99 1.986 . S
O102 C109 1.262 . S
O103 Zn98 2.049 . S
O103 C111 1.260 . S
O104 Zn99 1.996 . S
O104 C111 1.257 . S
C105 O100 1.254 . S
C105 O101 1.269 . S
C106 O107 1.249 . S
C106 O108 1.270 . S
O107 Zn99 1.943 . S
O107 C106 1.249 . S
O108 Zn98 2.067 . S
O108 C106 1.270 . S
C109 O102 1.262 . S
C109 O110 1.232 . S
O110 C109 1.232 . S
C111 O103 1.260 . S
C111 O104 1.257 . S
Zn112 O115 2.031 . S
Zn112 O117 2.049 . S
Zn112 O122 2.067 . S
Zn113 O114 1.962 . S
Zn113 O116 1.986 . S
Zn113 O118 1.996 . S
Zn113 O121 1.943 . S
O114 Zn113 1.962 . S
O114 C119 1.254 . S
O115 Zn112 2.031 . S
O115 C119 1.269 . S
O116 Zn113 1.986 . S
O116 C123 1.262 . S
O117 Zn112 2.049 . S
O117 C125 1.260 . S
O118 Zn113 1.996 . S
O118 C125 1.257 . S
C119 O114 1.254 . S
C119 O115 1.269 . S
C120 O121 1.249 . S
C120 O122 1.270 . S
O121 Zn113 1.943 . S
O121 C120 1.249 . S
O122 Zn112 2.067 . S
O122 C120 1.270 . S
C123 O116 1.262 . S
C123 O124 1.232 . S
O124 C123 1.232 . S
C125 O117 1.260 . S
C125 O118 1.257 . S
Zn126 O129 2.031 . S
Zn126 O131 2.049 . S
Zn126 O136 2.067 . S
Zn127 O128 1.962 . S
Zn127 O130 1.986 . S
Zn127 O132 1.996 . S
Zn127 O135 1.943 . S
O128 Zn127 1.962 . S
O128 C133 1.254 . S
O129 Zn126 2.031 . S
O129 C133 1.269 . S
O130 Zn127 1.986 . S
O130 C137 1.262 . S
O131 Zn126 2.049 . S
O131 C139 1.260 . S
O132 Zn127 1.996 . S
O132 C139 1.257 . S
C133 O128 1.254 . S
C133 O129 1.269 . S
C134 O135 1.249 . S
C134 O136 1.270 . S
O135 Zn127 1.943 . S
O135 C134 1.249 . S
O136 Zn126 2.067 . S
O136 C134 1.270 . S
C137 O130 1.262 . S
C137 O138 1.232 . S
O138 C137 1.232 . S
C139 O131 1.260 . S
C139 O132 1.257 . S
Zn140 O143 2.031 . S
Zn140 O145 2.049 . S
Zn140 O150 2.067 . S
Zn141 O142 1.962 . S
Zn141 O144 1.986 . S
Zn141 O146 1.996 . S
Zn141 O149 1.943 . S
O142 Zn141 1.962 . S
O142 C147 1.254 . S
O143 Zn140 2.031 . S
O143 C147 1.269 . S
O144 Zn141 1.986 . S
O144 C151 1.262 . S
O145 Zn140 2.049 . S
O145 C153 1.260 . S
O146 Zn141 1.996 . S
O146 C153 1.257 . S
C147 O142 1.254 . S
C147 O143 1.269 . S
C148 O149 1.249 . S
C148 O150 1.270 . S
O149 Zn141 1.943 . S
O149 C148 1.249 . S
O150 Zn140 2.067 . S
O150 C148 1.270 . S
C151 O144 1.262 . S
C151 O152 1.232 . S
O152 C151 1.232 . S
C153 O145 1.260 . S
C153 O146 1.257 . S
Zn154 O157 2.031 . S
Zn154 O159 2.049 . S
Zn154 O164 2.067 . S
Zn155 O156 1.962 . S
Zn155 O158 1.986 . S
Zn155 O160 1.996 . S
Zn155 O163 1.943 . S
O156 Zn155 1.962 . S
O156 C161 1.254 . S
O157 Zn154 2.031 . S
O157 C161 1.269 . S
O158 Zn155 1.986 . S
O158 C165 1.262 . S
O159 Zn154 2.049 . S
O159 C167 1.260 . S
O160 Zn155 1.996 . S
O160 C167 1.257 . S
C161 O156 1.254 . S
C161 O157 1.269 . S
C162 O163 1.249 . S
C162 O164 1.270 . S
O163 Zn155 1.943 . S
O163 C162 1.249 . S
O164 Zn154 2.067 . S
O164 C162 1.270 . S
C165 O158 1.262 . S
C165 O166 1.232 . S
O166 C165 1.232 . S
C167 O159 1.260 . S
C167 O160 1.257 . S
Zn168 O171 2.031 . S
Zn168 O173 2.049 . S
Zn168 O178 2.067 . S
Zn169 O170 1.962 . S
Zn169 O172 1.986 . S
Zn169 O174 1.996 . S
Zn169 O177 1.943 . S
O170 Zn169 1.962 . S
O170 C175 1.254 . S
O171 Zn168 2.031 . S
O171 C175 1.269 . S
O172 Zn169 1.986 . S
O172 C179 1.262 . S
O173 Zn168 2.049 . S
O173 C181 1.260 . S
O174 Zn169 1.996 . S
O174 C181 1.257 . S
C175 O170 1.254 . S
C175 O171 1.269 . S
C176 O177 1.249 . S
C176 O178 1.270 . S
O177 Zn169 1.943 . S
O177 C176 1.249 . S
O178 Zn168 2.067 . S
O178 C176 1.270 . S
C179 O172 1.262 . S
C179 O180 1.232 . S
O180 C179 1.232 . S
C181 O173 1.260 . S
C181 O174 1.257 . S
Zn182 O185 2.031 . S
Zn182 O187 2.049 . S
Zn182 O192 2.067 . S
Zn183 O184 1.962 . S
Zn183 O186 1.986 . S
Zn183 O188 1.996 . S
Zn183 O191 1.943 . S
O184 Zn183 1.962 . S
O184 C189 1.254 . S
O185 Zn182 2.031 . S
O185 C189 1.269 . S
O186 Zn183 1.986 . S
O186 C193 1.262 . S
O187 Zn182 2.049 . S
O187 C195 1.260 . S
O188 Zn183 1.996 . S
O188 C195 1.257 . S
C189 O184 1.254 . S
C189 O185 1.269 . S
C190 O191 1.249 . S
C190 O192 1.270 . S
O191 Zn183 1.943 . S
O191 C190 1.249 . S
O192 Zn182 2.067 . S
O192 C190 1.270 . S
C193 O186 1.262 . S
C193 O194 1.232 . S
O194 C193 1.232 . S
C195 O187 1.260 . S
C195 O188 1.257 . S
Zn196 O199 2.031 . S
Zn196 O201 2.049 . S
Zn196 O206 2.067 . S
Zn197 O198 1.962 . S
Zn197 O200 1.986 . S
Zn197 O202 1.996 . S
Zn197 O205 1.943 . S
O198 Zn197 1.962 . S
O198 C203 1.254 . S
O199 Zn196 2.031 . S
O199 C203 1.269 . S
O200 Zn197 1.986 . S
O200 C207 1.262 . S
O201 Zn196 2.049 . S
O201 C209 1.260 . S
O202 Zn197 1.996 . S
O202 C209 1.257 . S
C203 O198 1.254 . S
C203 O199 1.269 . S
C204 O205 1.249 . S
C204 O206 1.270 . S
O205 Zn197 1.943 . S
O205 C204 1.249 . S
O206 Zn196 2.067 . S
O206 C204 1.270 . S
C207 O200 1.262 . S
C207 O208 1.232 . S
O208 C207 1.232 . S
C209 O201 1.260 . S
C209 O202 1.257 . S
Zn210 O213 2.031 . S
Zn210 O215 2.049 . S
Zn210 O220 2.067 . S
Zn211 O212 1.962 . S
Zn211 O214 1.986 . S
Zn211 O216 1.996 . S
Zn211 O219 1.943 . S
O212 Zn211 1.962 . S
O212 C217 1.254 . S
O213 Zn210 2.031 . S
O213 C217 1.269 . S
O214 Zn211 1.986 . S
O214 C221 1.262 . S
O215 Zn210 2.049 . S
O215 C223 1.260 . S
O216 Zn211 1.996 . S
O216 C223 1.257 . S
C217 O212 1.254 . S
C217 O213 1.269 . S
C218 O219 1.249 . S
C218 O220 1.270 . S
O219 Zn211 1.943 . S
O219 C218 1.249 . S
O220 Zn210 2.067 . S
O220 C218 1.270 . S
C221 O214 1.262 . S
C221 O222 1.232 . S
O222 C221 1.232 . S
C223 O215 1.260 . S
C223 O216 1.257 . S
H224 C242 0.951 . S
H225 C244 0.951 . S
H226 C246 0.950 . S
H227 C247 0.950 . S
H228 C249 0.950 . S
H229 C252 0.950 . S
H230 C253 0.950 . S
H231 C255 0.950 . S
H232 C256 0.950 . S
H233 C257 0.951 . S
H234 C259 0.951 . S
H235 C261 0.950 . S
H236 C262 0.950 . S
H237 C264 0.950 . S
H238 C267 0.950 . S
H239 C268 0.950 . S
H240 C270 0.950 . S
H241 C271 0.950 . S
C242 H224 0.951 . S
C242 C243 1.366 . S
C242 C244 1.388 . S
C243 C242 1.366 . S
C243 C247 1.385 . S
C244 H225 0.951 . S
C244 C242 1.388 . S
C244 C245 1.366 . S
C245 C244 1.366 . S
C245 C246 1.414 . S
C245 C248 1.499 . S
C246 H226 0.950 . S
C246 C245 1.414 . S
C246 C247 1.374 . S
C247 H227 0.950 . S
C247 C243 1.385 . S
C247 C246 1.374 . S
C248 C245 1.499 . S
C248 C249 1.373 . S
C248 C250 1.389 . S
C249 H228 0.950 . S
C249 C248 1.373 . S
C249 C265 1.377 . S
C250 C248 1.389 . S
C250 C251 1.524 . S
C250 C264 1.377 . S
C251 C250 1.524 . S
C251 C252 1.397 . S
C251 C256 1.363 . S
C252 H229 0.950 . S
C252 C251 1.397 . S
C252 C253 1.334 . S
C253 H230 0.950 . S
C253 C252 1.334 . S
C253 C254 1.287 . S
C254 C253 1.287 . S
C254 C255 1.524 . S
C254 H273 0.913 . S
C255 H231 0.950 . S
C255 C254 1.524 . S
C255 C256 1.415 . S
C256 H232 0.950 . S
C256 C251 1.363 . S
C256 C255 1.415 . S
C257 H233 0.951 . S
C257 C258 1.366 . S
C257 C259 1.388 . S
C258 C257 1.366 . S
C258 C262 1.385 . S
C259 H234 0.951 . S
C259 C257 1.388 . S
C259 C260 1.366 . S
C260 C259 1.366 . S
C260 C261 1.414 . S
C260 C263 1.499 . S
C261 H235 0.950 . S
C261 C260 1.414 . S
C261 C262 1.374 . S
C262 H236 0.950 . S
C262 C258 1.385 . S
C262 C261 1.374 . S
C263 C260 1.499 . S
C263 C264 1.373 . S
C263 C265 1.389 . S
C264 H237 0.950 . S
C264 C250 1.377 . S
C264 C263 1.373 . S
C265 C249 1.377 . S
C265 C263 1.389 . S
C265 C266 1.524 . S
C266 C265 1.524 . S
C266 C267 1.397 . S
C266 C271 1.363 . S
C267 H238 0.950 . S
C267 C266 1.397 . S
C267 C268 1.334 . S
C268 H239 0.950 . S
C268 C267 1.334 . S
C268 C269 1.287 . S
C269 C268 1.287 . S
C269 C270 1.524 . S
C269 H272 0.999 . S
C270 H240 0.950 . S
C270 C269 1.524 . S
C270 C271 1.415 . S
C271 H241 0.950 . S
C271 C266 1.363 . S
C271 C270 1.415 . S
H272 C269 0.999 . S
H273 C254 0.913 . S
H274 C292 0.951 . S
H275 C294 0.951 . S
H276 C296 0.950 1_545 S
H277 C297 0.950 . S
H278 C299 0.950 . S
H279 C302 0.952 . S
H280 C303 0.950 . S
H281 C305 0.950 . S
H282 C306 0.950 . S
H283 C307 0.951 . S
H284 C309 0.951 . S
H285 C311 0.950 1_565 S
H286 C312 0.950 . S
H287 C314 0.950 . S
H288 C317 0.952 . S
H289 C318 0.950 . S
H290 C320 0.950 . S
H291 C321 0.950 . S
C292 H274 0.951 . S
C292 C293 1.366 . S
C292 C294 1.388 . S
C293 C292 1.366 . S
C293 C297 1.385 . S
C294 H275 0.951 . S
C294 C292 1.388 . S
C294 C295 1.366 . S
C295 C294 1.366 . S
C295 C296 1.414 . S
C295 C298 1.499 . S
C296 H276 0.950 1_565 S
C296 C295 1.414 . S
C296 C297 1.374 . S
C297 H277 0.950 . S
C297 C293 1.385 . S
C297 C296 1.374 . S
C298 C295 1.499 . S
C298 C299 1.373 1_565 S
C298 C300 1.389 . S
C299 H278 0.950 . S
C299 C298 1.373 1_545 S
C299 C315 1.377 1_655 S
C300 C298 1.389 . S
C300 C301 1.524 . S
C300 C314 1.377 1_655 S
C301 C300 1.524 . S
C301 C302 1.395 1_655 S
C301 C306 1.363 . S
C302 H279 0.952 . S
C302 C301 1.395 1_455 S
C302 C303 1.336 . S
C303 H280 0.950 . S
C303 C302 1.336 . S
C303 C304 1.286 . S
C304 C303 1.286 . S
C304 C305 1.522 1_455 S
C304 H323 0.913 . S
C305 H281 0.950 . S
C305 C304 1.522 1_655 S
C305 C306 1.415 . S
C306 H282 0.950 . S
C306 C301 1.363 . S
C306 C305 1.415 . S
C307 H283 0.951 . S
C307 C308 1.366 . S
C307 C309 1.388 . S
C308 C307 1.366 . S
C308 C312 1.385 . S
C309 H284 0.951 . S
C309 C307 1.388 . S
C309 C310 1.366 . S
C310 C309 1.366 . S
C310 C311 1.414 . S
C310 C313 1.499 . S
C311 H285 0.950 1_545 S
C311 C310 1.414 . S
C311 C312 1.374 . S
C312 H286 0.950 . S
C312 C308 1.385 . S
C312 C311 1.374 . S
C313 C310 1.499 . S
C313 C314 1.373 1_545 S
C313 C315 1.389 . S
C314 H287 0.950 . S
C314 C300 1.377 1_455 S
C314 C313 1.373 1_565 S
C315 C299 1.377 1_455 S
C315 C313 1.389 . S
C315 C316 1.524 . S
C316 C315 1.524 . S
C316 C317 1.395 1_455 S
C316 C321 1.363 . S
C317 H288 0.952 . S
C317 C316 1.395 1_655 S
C317 C318 1.336 . S
C318 H289 0.950 . S
C318 C317 1.336 . S
C318 C319 1.286 . S
C319 C318 1.286 . S
C319 C320 1.522 1_655 S
C319 H322 1.001 . S
C320 H290 0.950 . S
C320 C319 1.522 1_455 S
C320 C321 1.415 . S
C321 H291 0.950 . S
C321 C316 1.363 . S
C321 C320 1.415 . S
H322 C319 1.001 . S
H323 C304 0.913 . S
H324 C342 0.953 . S
H325 C344 0.951 1_545 S
H326 C346 0.950 . S
H327 C347 0.950 . S
H328 C349 0.950 . S
H329 C352 0.950 . S
H330 C353 0.950 1_565 S
H331 C355 0.950 . S
H332 C356 0.950 . S
H333 C357 0.953 . S
H334 C359 0.951 1_565 S
H335 C361 0.950 . S
H336 C362 0.950 . S
H337 C364 0.950 . S
H338 C367 0.950 . S
H339 C368 0.950 1_545 S
H340 C370 0.950 . S
H341 C371 0.950 . S
C342 H324 0.953 . S
C342 C343 1.366 . S
C342 C344 1.388 . S
C343 C342 1.366 . S
C343 C347 1.385 . S
C344 H325 0.951 1_565 S
C344 C342 1.388 . S
C344 C345 1.366 . S
C345 C344 1.366 . S
C345 C346 1.414 . S
C345 C348 1.499 . S
C346 H326 0.950 . S
C346 C345 1.414 . S
C346 C347 1.374 . S
C347 H327 0.950 . S
C347 C343 1.385 . S
C347 C346 1.374 . S
C348 C345 1.499 . S
C348 C349 1.373 . S
C348 C350 1.389 1_565 S
C349 H328 0.950 . S
C349 C348 1.373 . S
C349 C365 1.377 . S
C350 C348 1.389 1_545 S
C350 C351 1.524 . S
C350 C364 1.377 . S
C351 C350 1.524 . S
C351 C352 1.397 1_545 S
C351 C356 1.363 . S
C352 H329 0.950 . S
C352 C351 1.397 1_565 S
C352 C353 1.334 1_565 S
C353 H330 0.950 1_545 S
C353 C352 1.334 1_545 S
C353 C354 1.287 . S
C354 C353 1.287 . S
C354 C355 1.524 . S
C354 H373 0.913 . S
C355 H331 0.950 . S
C355 C354 1.524 . S
C355 C356 1.415 . S
C356 H332 0.950 . S
C356 C351 1.363 . S
C356 C355 1.415 . S
C357 H333 0.953 . S
C357 C358 1.366 . S
C357 C359 1.388 . S
C358 C357 1.366 . S
C358 C362 1.385 . S
C359 H334 0.951 1_545 S
C359 C357 1.388 . S
C359 C360 1.366 . S
C360 C359 1.366 . S
C360 C361 1.414 . S
C360 C363 1.499 . S
C361 H335 0.950 . S
C361 C360 1.414 . S
C361 C362 1.374 . S
C362 H336 0.950 . S
C362 C358 1.385 . S
C362 C361 1.374 . S
C363 C360 1.499 . S
C363 C364 1.373 . S
C363 C365 1.389 1_545 S
C364 H337 0.950 . S
C364 C350 1.377 . S
C364 C363 1.373 . S
C365 C349 1.377 . S
C365 C363 1.389 1_565 S
C365 C366 1.524 . S
C366 C365 1.524 . S
C366 C367 1.397 1_565 S
C366 C371 1.363 . S
C367 H338 0.950 . S
C367 C366 1.397 1_545 S
C367 C368 1.334 1_545 S
C368 H339 0.950 1_565 S
C368 C367 1.334 1_565 S
C368 C369 1.287 . S
C369 C368 1.287 . S
C369 C370 1.524 . S
C369 H372 0.999 . S
C370 H340 0.950 . S
C370 C369 1.524 . S
C370 C371 1.415 . S
C371 H341 0.950 . S
C371 C366 1.363 . S
C371 C370 1.415 . S
H372 C369 0.999 . S
H373 C354 0.913 . S
H374 C392 0.951 . S
H375 C394 0.951 . S
H376 C396 0.950 . S
H377 C397 0.950 . S
H378 C399 0.957 . S
H379 C402 0.950 . S
H380 C403 0.950 . S
H381 C405 0.950 . S
H382 C406 0.950 . S
H383 C407 0.951 . S
H384 C409 0.951 . S
H385 C411 0.950 . S
H386 C412 0.950 . S
H387 C414 0.957 . S
H388 C417 0.950 . S
H389 C418 0.950 . S
H390 C420 0.950 . S
H391 C421 0.950 . S
C392 H374 0.951 . S
C392 C393 1.366 . S
C392 C394 1.388 . S
C393 C392 1.366 . S
C393 C397 1.385 . S
C394 H375 0.951 . S
C394 C392 1.388 . S
C394 C395 1.366 . S
C395 C394 1.366 . S
C395 C396 1.414 . S
C395 C398 1.499 . S
C396 H376 0.950 . S
C396 C395 1.414 . S
C396 C397 1.374 . S
C397 H377 0.950 . S
C397 C393 1.385 . S
C397 C396 1.374 . S
C398 C395 1.499 . S
C398 C399 1.338 1_455 S
C398 C400 1.389 . S
C399 H378 0.957 . S
C399 C398 1.338 1_655 S
C399 C415 1.407 . S
C400 C398 1.389 . S
C400 C401 1.524 . S
C400 C414 1.407 . S
C401 C400 1.524 . S
C401 C402 1.397 . S
C401 C406 1.363 . S
C402 H379 0.950 . S
C402 C401 1.397 . S
C402 C403 1.334 . S
C403 H380 0.950 . S
C403 C402 1.334 . S
C403 C404 1.287 . S
C404 C403 1.287 . S
C404 C405 1.524 . S
C404 H423 0.913 . S
C405 H381 0.950 . S
C405 C404 1.524 . S
C405 C406 1.415 . S
C406 H382 0.950 . S
C406 C401 1.363 . S
C406 C405 1.415 . S
C407 H383 0.951 . S
C407 C408 1.366 . S
C407 C409 1.388 . S
C408 C407 1.366 . S
C408 C412 1.385 . S
C409 H384 0.951 . S
C409 C407 1.388 . S
C409 C410 1.366 . S
C410 C409 1.366 . S
C410 C411 1.414 . S
C410 C413 1.499 . S
C411 H385 0.950 . S
C411 C410 1.414 . S
C411 C412 1.374 . S
C412 H386 0.950 . S
C412 C408 1.385 . S
C412 C411 1.374 . S
C413 C410 1.499 . S
C413 C414 1.338 1_655 S
C413 C415 1.389 . S
C414 H387 0.957 . S
C414 C400 1.407 . S
C414 C413 1.338 1_455 S
C415 C399 1.407 . S
C415 C413 1.389 . S
C415 C416 1.524 . S
C416 C415 1.524 . S
C416 C417 1.397 . S
C416 C421 1.363 . S
C417 H388 0.950 . S
C417 C416 1.397 . S
C417 C418 1.334 . S
C418 H389 0.950 . S
C418 C417 1.334 . S
C418 C419 1.287 . S
C419 C418 1.287 . S
C419 C420 1.524 . S
C419 H422 0.999 . S
C420 H390 0.950 . S
C420 C419 1.524 . S
C420 C421 1.415 . S
C421 H391 0.950 . S
C421 C416 1.363 . S
C421 C420 1.415 . S
H422 C419 0.999 . S
H423 C404 0.913 . S
H424 C442 0.951 . S
H425 C444 0.951 . S
H426 C446 0.950 . S
H427 C447 0.950 . S
H428 C449 0.950 . S
H429 C452 0.950 . S
H430 C453 0.950 . S
H431 C455 0.950 . S
H432 C456 0.950 . S
H433 C457 0.951 . S
H434 C459 0.951 . S
H435 C461 0.950 . S
H436 C462 0.950 . S
H437 C464 0.950 . S
H438 C467 0.950 . S
H439 C468 0.950 . S
H440 C470 0.950 . S
H441 C471 0.950 . S
C442 H424 0.951 . S
C442 C443 1.366 . S
C442 C444 1.388 . S
C443 C442 1.366 . S
C443 C447 1.385 . S
C444 H425 0.951 . S
C444 C442 1.388 . S
C444 C445 1.366 . S
C445 C444 1.366 . S
C445 C446 1.414 . S
C445 C448 1.499 . S
C446 H426 0.950 . S
C446 C445 1.414 . S
C446 C447 1.374 . S
C447 H427 0.950 . S
C447 C443 1.385 . S
C447 C446 1.374 . S
C448 C445 1.499 . S
C448 C449 1.373 . S
C448 C450 1.389 . S
C449 H428 0.950 . S
C449 C448 1.373 . S
C449 C465 1.377 . S
C450 C448 1.389 . S
C450 C451 1.524 . S
C450 C464 1.377 . S
C451 C450 1.524 . S
C451 C452 1.397 . S
C451 C456 1.363 . S
C452 H429 0.950 . S
C452 C451 1.397 . S
C452 C453 1.334 . S
C453 H430 0.950 . S
C453 C452 1.334 . S
C453 C454 1.287 . S
C454 C453 1.287 . S
C454 C455 1.524 . S
C454 H473 0.913 . S
C455 H431 0.950 . S
C455 C454 1.524 . S
C455 C456 1.415 . S
C456 H432 0.950 . S
C456 C451 1.363 . S
C456 C455 1.415 . S
C457 H433 0.951 . S
C457 C458 1.366 . S
C457 C459 1.388 . S
C458 C457 1.366 . S
C458 C462 1.385 . S
C459 H434 0.951 . S
C459 C457 1.388 . S
C459 C460 1.366 . S
C460 C459 1.366 . S
C460 C461 1.414 . S
C460 C463 1.499 . S
C461 H435 0.950 . S
C461 C460 1.414 . S
C461 C462 1.374 . S
C462 H436 0.950 . S
C462 C458 1.385 . S
C462 C461 1.374 . S
C463 C460 1.499 . S
C463 C464 1.373 . S
C463 C465 1.389 . S
C464 H437 0.950 . S
C464 C450 1.377 . S
C464 C463 1.373 . S
C465 C449 1.377 . S
C465 C463 1.389 . S
C465 C466 1.524 . S
C466 C465 1.524 . S
C466 C467 1.397 . S
C466 C471 1.363 . S
C467 H438 0.950 . S
C467 C466 1.397 . S
C467 C468 1.334 . S
C468 H439 0.950 . S
C468 C467 1.334 . S
C468 C469 1.287 . S
C469 C468 1.287 . S
C469 C470 1.524 . S
C469 H472 0.999 . S
C470 H440 0.950 . S
C470 C469 1.524 . S
C470 C471 1.415 . S
C471 H441 0.950 . S
C471 C466 1.363 . S
C471 C470 1.415 . S
H472 C469 0.999 . S
H473 C454 0.913 . S
H474 C492 0.951 . S
H475 C494 0.951 . S
H476 C496 0.950 . S
H477 C497 0.950 . S
H478 C499 0.950 . S
H479 C502 0.950 . S
H480 C503 0.950 . S
H481 C505 0.950 . S
H482 C506 0.950 . S
H483 C507 0.951 . S
H484 C509 0.951 . S
H485 C511 0.950 . S
H486 C512 0.950 . S
H487 C514 0.950 . S
H488 C517 0.950 . S
H489 C518 0.950 . S
H490 C520 0.950 . S
H491 C521 0.950 . S
C492 H474 0.951 . S
C492 C493 1.366 . S
C492 C494 1.388 . S
C493 C492 1.366 . S
C493 C497 1.385 . S
C494 H475 0.951 . S
C494 C492 1.388 . S
C494 C495 1.366 . S
C495 C494 1.366 . S
C495 C496 1.414 . S
C495 C498 1.499 . S
C496 H476 0.950 . S
C496 C495 1.414 . S
C496 C497 1.374 . S
C497 H477 0.950 . S
C497 C493 1.385 . S
C497 C496 1.374 . S
C498 C495 1.499 . S
C498 C499 1.373 . S
C498 C500 1.389 1_545 S
C499 H478 0.950 . S
C499 C498 1.373 . S
C499 C515 1.377 . S
C500 C498 1.389 1_565 S
C500 C501 1.524 . S
C500 C514 1.377 . S
C501 C500 1.524 . S
C501 C502 1.397 . S
C501 C506 1.363 . S
C502 H479 0.950 . S
C502 C501 1.397 . S
C502 C503 1.334 . S
C503 H480 0.950 . S
C503 C502 1.334 . S
C503 C504 1.287 . S
C504 C503 1.287 . S
C504 C505 1.524 . S
C504 H523 0.913 . S
C505 H481 0.950 . S
C505 C504 1.524 . S
C505 C506 1.415 . S
C506 H482 0.950 . S
C506 C501 1.363 . S
C506 C505 1.415 . S
C507 H483 0.951 . S
C507 C508 1.366 . S
C507 C509 1.388 . S
C508 C507 1.366 . S
C508 C512 1.385 . S
C509 H484 0.951 . S
C509 C507 1.388 . S
C509 C510 1.366 . S
C510 C509 1.366 . S
C510 C511 1.414 . S
C510 C513 1.499 . S
C511 H485 0.950 . S
C511 C510 1.414 . S
C511 C512 1.374 . S
C512 H486 0.950 . S
C512 C508 1.385 . S
C512 C511 1.374 . S
C513 C510 1.499 . S
C513 C514 1.373 . S
C513 C515 1.389 1_565 S
C514 H487 0.950 . S
C514 C500 1.377 . S
C514 C513 1.373 . S
C515 C499 1.377 . S
C515 C513 1.389 1_545 S
C515 C516 1.524 . S
C516 C515 1.524 . S
C516 C517 1.397 . S
C516 C521 1.363 . S
C517 H488 0.950 . S
C517 C516 1.397 . S
C517 C518 1.334 . S
C518 H489 0.950 . S
C518 C517 1.334 . S
C518 C519 1.287 . S
C519 C518 1.287 . S
C519 C520 1.524 . S
C519 H522 0.999 . S
C520 H490 0.950 . S
C520 C519 1.524 . S
C520 C521 1.415 . S
C521 H491 0.950 . S
C521 C516 1.363 . S
C521 C520 1.415 . S
H522 C519 0.999 . S
H523 C504 0.913 . S
H524 C542 0.951 . S
H525 C544 0.951 . S
H526 C546 0.950 . S
H527 C547 0.950 . S
H528 C549 0.950 . S
H529 C552 0.950 . S
H530 C553 0.950 . S
H531 C555 0.950 . S
H532 C556 0.950 . S
H533 C557 0.951 . S
H534 C559 0.951 . S
H535 C561 0.950 . S
H536 C562 0.950 . S
H537 C564 0.950 . S
H538 C567 0.950 . S
H539 C568 0.950 . S
H540 C570 0.950 . S
H541 C571 0.950 . S
C542 H524 0.951 . S
C542 C543 1.366 . S
C542 C544 1.388 . S
C543 C542 1.366 . S
C543 C547 1.385 . S
C544 H525 0.951 . S
C544 C542 1.388 . S
C544 C545 1.366 . S
C545 C544 1.366 . S
C545 C546 1.414 . S
C545 C548 1.499 . S
C546 H526 0.950 . S
C546 C545 1.414 . S
C546 C547 1.374 . S
C547 H527 0.950 . S
C547 C543 1.385 . S
C547 C546 1.374 . S
C548 C545 1.499 . S
C548 C549 1.373 . S
C548 C550 1.389 . S
C549 H528 0.950 . S
C549 C548 1.373 . S
C549 C565 1.377 1_655 S
C550 C548 1.389 . S
C550 C551 1.524 . S
C550 C564 1.377 1_655 S
C551 C550 1.524 . S
C551 C552 1.397 . S
C551 C556 1.363 . S
C552 H529 0.950 . S
C552 C551 1.397 . S
C552 C553 1.334 . S
C553 H530 0.950 . S
C553 C552 1.334 . S
C553 C554 1.287 . S
C554 C553 1.287 . S
C554 C555 1.524 . S
C554 H573 0.913 . S
C555 H531 0.950 . S
C555 C554 1.524 . S
C555 C556 1.415 . S
C556 H532 0.950 . S
C556 C551 1.363 . S
C556 C555 1.415 . S
C557 H533 0.951 . S
C557 C558 1.366 . S
C557 C559 1.388 . S
C558 C557 1.366 . S
C558 C562 1.385 . S
C559 H534 0.951 . S
C559 C557 1.388 . S
C559 C560 1.366 . S
C560 C559 1.366 . S
C560 C561 1.414 . S
C560 C563 1.499 . S
C561 H535 0.950 . S
C561 C560 1.414 . S
C561 C562 1.374 . S
C562 H536 0.950 . S
C562 C558 1.385 . S
C562 C561 1.374 . S
C563 C560 1.499 . S
C563 C564 1.373 . S
C563 C565 1.389 . S
C564 H537 0.950 . S
C564 C550 1.377 1_455 S
C564 C563 1.373 . S
C565 C549 1.377 1_455 S
C565 C563 1.389 . S
C565 C566 1.524 . S
C566 C565 1.524 . S
C566 C567 1.397 . S
C566 C571 1.363 . S
C567 H538 0.950 . S
C567 C566 1.397 . S
C567 C568 1.334 . S
C568 H539 0.950 . S
C568 C567 1.334 . S
C568 C569 1.287 . S
C569 C568 1.287 . S
C569 C570 1.524 . S
C569 H572 0.999 . S
C570 H540 0.950 . S
C570 C569 1.524 . S
C570 C571 1.415 . S
C571 H541 0.950 . S
C571 C566 1.363 . S
C571 C570 1.415 . S
H572 C569 0.999 . S
H573 C554 0.913 . S
H574 C592 0.951 . S
H575 C594 0.951 . S
H576 C596 0.950 . S
H577 C597 0.950 . S
H578 C599 0.950 . S
H579 C602 0.950 . S
H580 C603 0.950 . S
H581 C605 0.950 . S
H582 C606 0.950 . S
H583 C607 0.951 . S
H584 C609 0.951 . S
H585 C611 0.950 . S
H586 C612 0.950 . S
H587 C614 0.950 . S
H588 C617 0.950 . S
H589 C618 0.950 . S
H590 C620 0.950 . S
H591 C621 0.950 . S
C592 H574 0.951 . S
C592 C593 1.366 . S
C592 C594 1.388 . S
C593 C592 1.366 . S
C593 C597 1.385 . S
C594 H575 0.951 . S
C594 C592 1.388 . S
C594 C595 1.366 . S
C595 C594 1.366 . S
C595 C596 1.414 . S
C595 C598 1.499 . S
C596 H576 0.950 . S
C596 C595 1.414 . S
C596 C597 1.374 . S
C597 H577 0.950 . S
C597 C593 1.385 . S
C597 C596 1.374 . S
C598 C595 1.499 . S
C598 C599 1.373 1_554 S
C598 C600 1.389 . S
C599 H578 0.950 . S
C599 C598 1.373 1_556 S
C599 C615 1.377 . S
C600 C598 1.389 . S
C600 C601 1.524 . S
C600 C614 1.377 . S
C601 C600 1.524 . S
C601 C602 1.397 . S
C601 C606 1.363 . S
C602 H579 0.950 . S
C602 C601 1.397 . S
C602 C603 1.334 . S
C603 H580 0.950 . S
C603 C602 1.334 . S
C603 C604 1.287 . S
C604 C603 1.287 . S
C604 C605 1.524 . S
C604 H623 0.913 . S
C605 H581 0.950 . S
C605 C604 1.524 . S
C605 C606 1.415 . S
C606 H582 0.950 . S
C606 C601 1.363 . S
C606 C605 1.415 . S
C607 H583 0.951 . S
C607 C608 1.366 . S
C607 C609 1.388 . S
C608 C607 1.366 . S
C608 C612 1.385 . S
C609 H584 0.951 . S
C609 C607 1.388 . S
C609 C610 1.366 . S
C610 C609 1.366 . S
C610 C611 1.414 . S
C610 C613 1.499 . S
C611 H585 0.950 . S
C611 C610 1.414 . S
C611 C612 1.374 . S
C612 H586 0.950 . S
C612 C608 1.385 . S
C612 C611 1.374 . S
C613 C610 1.499 . S
C613 C614 1.373 1_556 S
C613 C615 1.389 . S
C614 H587 0.950 . S
C614 C600 1.377 . S
C614 C613 1.373 1_554 S
C615 C599 1.377 . S
C615 C613 1.389 . S
C615 C616 1.524 . S
C616 C615 1.524 . S
C616 C617 1.397 . S
C616 C621 1.363 . S
C617 H588 0.950 . S
C617 C616 1.397 . S
C617 C618 1.334 . S
C618 H589 0.950 . S
C618 C617 1.334 . S
C618 C619 1.287 . S
C619 C618 1.287 . S
C619 C620 1.524 . S
C619 H622 0.999 . S
C620 H590 0.950 . S
C620 C619 1.524 . S
C620 C621 1.415 . S
C621 H591 0.950 . S
C621 C616 1.363 . S
C621 C620 1.415 . S
H622 C619 0.999 . S
H623 C604 0.913 . S
H624 C642 0.951 . S
H625 C644 0.951 . S
H626 C646 0.950 . S
H627 C647 0.950 . S
H628 C649 0.950 . S
H629 C652 0.950 . S
H630 C653 0.950 . S
H631 C655 0.950 . S
H632 C656 0.950 . S
H633 C657 0.951 . S
H634 C659 0.951 . S
H635 C661 0.950 . S
H636 C662 0.950 . S
H637 C664 0.950 . S
H638 C667 0.950 . S
H639 C668 0.950 . S
H640 C670 0.950 . S
H641 C671 0.950 . S
C642 H624 0.951 . S
C642 C643 1.366 . S
C642 C644 1.388 . S
C643 C642 1.366 . S
C643 C647 1.385 . S
C644 H625 0.951 . S
C644 C642 1.388 . S
C644 C645 1.366 . S
C645 C644 1.366 . S
C645 C646 1.414 . S
C645 C648 1.499 . S
C646 H626 0.950 . S
C646 C645 1.414 . S
C646 C647 1.374 . S
C647 H627 0.950 . S
C647 C643 1.385 . S
C647 C646 1.374 . S
C648 C645 1.499 . S
C648 C649 1.373 1_556 S
C648 C650 1.389 1_455 S
C649 H628 0.950 . S
C649 C648 1.373 1_554 S
C649 C665 1.377 . S
C650 C648 1.389 1_655 S
C650 C651 1.524 . S
C650 C664 1.377 . S
C651 C650 1.524 . S
C651 C652 1.397 . S
C651 C656 1.363 . S
C652 H629 0.950 . S
C652 C651 1.397 . S
C652 C653 1.334 . S
C653 H630 0.950 . S
C653 C652 1.334 . S
C653 C654 1.287 . S
C654 C653 1.287 . S
C654 C655 1.524 . S
C654 H673 0.913 . S
C655 H631 0.950 . S
C655 C654 1.524 . S
C655 C656 1.415 . S
C656 H632 0.950 . S
C656 C651 1.363 . S
C656 C655 1.415 . S
C657 H633 0.951 . S
C657 C658 1.366 . S
C657 C659 1.388 . S
C658 C657 1.366 . S
C658 C662 1.385 . S
C659 H634 0.951 . S
C659 C657 1.388 . S
C659 C660 1.366 . S
C660 C659 1.366 . S
C660 C661 1.414 . S
C660 C663 1.499 . S
C661 H635 0.950 . S
C661 C660 1.414 . S
C661 C662 1.374 . S
C662 H636 0.950 . S
C662 C658 1.385 . S
C662 C661 1.374 . S
C663 C660 1.499 . S
C663 C664 1.373 1_554 S
C663 C665 1.389 1_655 S
C664 H637 0.950 . S
C664 C650 1.377 . S
C664 C663 1.373 1_556 S
C665 C649 1.377 . S
C665 C663 1.389 1_455 S
C665 C666 1.524 . S
C666 C665 1.524 . S
C666 C667 1.397 . S
C666 C671 1.363 . S
C667 H638 0.950 . S
C667 C666 1.397 . S
C667 C668 1.334 . S
C668 H639 0.950 . S
C668 C667 1.334 . S
C668 C669 1.287 . S
C669 C668 1.287 . S
C669 C670 1.524 . S
C669 H672 0.999 . S
C670 H640 0.950 . S
C670 C669 1.524 . S
C670 C671 1.415 . S
C671 H641 0.950 . S
C671 C666 1.363 . S
C671 C670 1.415 . S
H672 C669 0.999 . S
H673 C654 0.913 . S
H674 C692 0.951 . S
H675 C694 0.951 . S
H676 C696 0.950 . S
H677 C697 0.950 . S
H678 C699 0.950 . S
H679 C702 0.950 . S
H680 C703 0.950 . S
H681 C705 0.950 . S
H682 C706 0.950 . S
H683 C707 0.951 . S
H684 C709 0.951 . S
H685 C711 0.950 . S
H686 C712 0.950 . S
H687 C714 0.950 . S
H688 C717 0.950 . S
H689 C718 0.950 . S
H690 C720 0.950 . S
H691 C721 0.950 . S
C692 H674 0.951 . S
C692 C693 1.366 . S
C692 C694 1.388 . S
C693 C692 1.366 . S
C693 C697 1.385 . S
C694 H675 0.951 . S
C694 C692 1.388 . S
C694 C695 1.366 . S
C695 C694 1.366 . S
C695 C696 1.414 . S
C695 C698 1.499 . S
C696 H676 0.950 . S
C696 C695 1.414 . S
C696 C697 1.374 . S
C697 H677 0.950 . S
C697 C693 1.385 . S
C697 C696 1.374 . S
C698 C695 1.499 . S
C698 C699 1.373 . S
C698 C700 1.389 . S
C699 H678 0.950 . S
C699 C698 1.373 . S
C699 C715 1.377 . S
C700 C698 1.389 . S
C700 C701 1.524 . S
C700 C714 1.377 . S
C701 C700 1.524 . S
C701 C702 1.397 . S
C701 C706 1.363 . S
C702 H679 0.950 . S
C702 C701 1.397 . S
C702 C703 1.334 . S
C703 H680 0.950 . S
C703 C702 1.334 . S
C703 C704 1.287 . S
C704 C703 1.287 . S
C704 C705 1.524 . S
C704 H723 0.913 . S
C705 H681 0.950 . S
C705 C704 1.524 . S
C705 C706 1.415 . S
C706 H682 0.950 . S
C706 C701 1.363 . S
C706 C705 1.415 . S
C707 H683 0.951 . S
C707 C708 1.366 . S
C707 C709 1.388 . S
C708 C707 1.366 . S
C708 C712 1.385 . S
C709 H684 0.951 . S
C709 C707 1.388 . S
C709 C710 1.366 . S
C710 C709 1.366 . S
C710 C711 1.414 . S
C710 C713 1.499 . S
C711 H685 0.950 . S
C711 C710 1.414 . S
C711 C712 1.374 . S
C712 H686 0.950 . S
C712 C708 1.385 . S
C712 C711 1.374 . S
C713 C710 1.499 . S
C713 C714 1.373 . S
C713 C715 1.389 . S
C714 H687 0.950 . S
C714 C700 1.377 . S
C714 C713 1.373 . S
C715 C699 1.377 . S
C715 C713 1.389 . S
C715 C716 1.524 . S
C716 C715 1.524 . S
C716 C717 1.397 . S
C716 C721 1.363 . S
C717 H688 0.950 . S
C717 C716 1.397 . S
C717 C718 1.334 . S
C718 H689 0.950 . S
C718 C717 1.334 . S
C718 C719 1.287 . S
C719 C718 1.287 . S
C719 C720 1.524 . S
C719 H722 0.999 . S
C720 H690 0.950 . S
C720 C719 1.524 . S
C720 C721 1.415 . S
C721 H691 0.950 . S
C721 C716 1.363 . S
C721 C720 1.415 . S
H722 C719 0.999 . S
H723 C704 0.913 . S
H724 C742 0.951 . S
H725 C744 0.951 . S
H726 C746 0.950 . S
H727 C747 0.950 . S
H728 C749 0.950 . S
H729 C752 0.950 . S
H730 C753 0.950 . S
H731 C755 0.950 . S
H732 C756 0.950 . S
H733 C757 0.951 . S
H734 C759 0.951 . S
H735 C761 0.950 . S
H736 C762 0.950 . S
H737 C764 0.950 . S
H738 C767 0.950 . S
H739 C768 0.950 . S
H740 C770 0.950 . S
H741 C771 0.950 . S
C742 H724 0.951 . S
C742 C743 1.366 . S
C742 C744 1.388 . S
C743 C742 1.366 . S
C743 C747 1.385 . S
C744 H725 0.951 . S
C744 C742 1.388 . S
C744 C745 1.366 . S
C745 C744 1.366 . S
C745 C746 1.414 . S
C745 C748 1.499 . S
C746 H726 0.950 . S
C746 C745 1.414 . S
C746 C747 1.374 . S
C747 H727 0.950 . S
C747 C743 1.385 . S
C747 C746 1.374 . S
C748 C745 1.499 . S
C748 C749 1.373 . S
C748 C750 1.389 1_556 S
C749 H728 0.950 . S
C749 C748 1.373 . S
C749 C765 1.377 . S
C750 C748 1.389 1_554 S
C750 C751 1.524 . S
C750 C764 1.377 . S
C751 C750 1.524 . S
C751 C752 1.397 . S
C751 C756 1.363 . S
C752 H729 0.950 . S
C752 C751 1.397 . S
C752 C753 1.334 . S
C753 H730 0.950 . S
C753 C752 1.334 . S
C753 C754 1.287 . S
C754 C753 1.287 . S
C754 C755 1.524 . S
C754 H773 0.913 . S
C755 H731 0.950 . S
C755 C754 1.524 . S
C755 C756 1.415 . S
C756 H732 0.950 . S
C756 C751 1.363 . S
C756 C755 1.415 . S
C757 H733 0.951 . S
C757 C758 1.366 . S
C757 C759 1.388 . S
C758 C757 1.366 . S
C758 C762 1.385 . S
C759 H734 0.951 . S
C759 C757 1.388 . S
C759 C760 1.366 . S
C760 C759 1.366 . S
C760 C761 1.414 . S
C760 C763 1.499 . S
C761 H735 0.950 . S
C761 C760 1.414 . S
C761 C762 1.374 . S
C762 H736 0.950 . S
C762 C758 1.385 . S
C762 C761 1.374 . S
C763 C760 1.499 . S
C763 C764 1.373 . S
C763 C765 1.389 1_554 S
C764 H737 0.950 . S
C764 C750 1.377 . S
C764 C763 1.373 . S
C765 C749 1.377 . S
C765 C763 1.389 1_556 S
C765 C766 1.524 . S
C766 C765 1.524 . S
C766 C767 1.397 . S
C766 C771 1.363 . S
C767 H738 0.950 . S
C767 C766 1.397 . S
C767 C768 1.334 . S
C768 H739 0.950 . S
C768 C767 1.334 . S
C768 C769 1.287 . S
C769 C768 1.287 . S
C769 C770 1.524 . S
C769 H772 0.999 . S
C770 H740 0.950 . S
C770 C769 1.524 . S
C770 C771 1.415 . S
C771 H741 0.950 . S
C771 C766 1.363 . S
C771 C770 1.415 . S
H772 C769 0.999 . S
H773 C754 0.913 . S
H774 C792 0.951 . S
H775 C794 0.951 . S
H776 C796 0.950 . S
H777 C797 0.950 . S
H778 C799 0.950 . S
H779 C802 0.950 . S
H780 C803 0.950 . S
H781 C805 0.950 . S
H782 C806 0.950 . S
H783 C807 0.951 . S
H784 C809 0.951 . S
H785 C811 0.950 . S
H786 C812 0.950 . S
H787 C814 0.950 . S
H788 C817 0.950 . S
H789 C818 0.950 . S
H790 C820 0.950 . S
H791 C821 0.950 . S
C792 H774 0.951 . S
C792 C793 1.366 . S
C792 C794 1.388 . S
C793 C792 1.366 . S
C793 C797 1.385 . S
C794 H775 0.951 . S
C794 C792 1.388 . S
C794 C795 1.366 . S
C795 C794 1.366 . S
C795 C796 1.414 . S
C795 C798 1.499 . S
C796 H776 0.950 . S
C796 C795 1.414 . S
C796 C797 1.374 . S
C797 H777 0.950 . S
C797 C793 1.385 . S
C797 C796 1.374 . S
C798 C795 1.499 . S
C798 C799 1.373 . S
C798 C800 1.389 . S
C799 H778 0.950 . S
C799 C798 1.373 . S
C799 C815 1.377 . S
C800 C798 1.389 . S
C800 C801 1.524 . S
C800 C814 1.377 . S
C801 C800 1.524 . S
C801 C802 1.397 . S
C801 C806 1.363 . S
C802 H779 0.950 . S
C802 C801 1.397 . S
C802 C803 1.334 . S
C803 H780 0.950 . S
C803 C802 1.334 . S
C803 C804 1.287 . S
C804 C803 1.287 . S
C804 C805 1.524 . S
C804 H823 0.913 . S
C805 H781 0.950 . S
C805 C804 1.524 . S
C805 C806 1.415 . S
C806 H782 0.950 . S
C806 C801 1.363 . S
C806 C805 1.415 . S
C807 H783 0.951 . S
C807 C808 1.366 . S
C807 C809 1.388 . S
C808 C807 1.366 . S
C808 C812 1.385 . S
C809 H784 0.951 . S
C809 C807 1.388 . S
C809 C810 1.366 . S
C810 C809 1.366 . S
C810 C811 1.414 . S
C810 C813 1.499 . S
C811 H785 0.950 . S
C811 C810 1.414 . S
C811 C812 1.374 . S
C812 H786 0.950 . S
C812 C808 1.385 . S
C812 C811 1.374 . S
C813 C810 1.499 . S
C813 C814 1.373 . S
C813 C815 1.389 . S
C814 H787 0.950 . S
C814 C800 1.377 . S
C814 C813 1.373 . S
C815 C799 1.377 . S
C815 C813 1.389 . S
C815 C816 1.524 . S
C816 C815 1.524 . S
C816 C817 1.397 . S
C816 C821 1.363 . S
C817 H788 0.950 . S
C817 C816 1.397 . S
C817 C818 1.334 . S
C818 H789 0.950 . S
C818 C817 1.334 . S
C818 C819 1.287 . S
C819 C818 1.287 . S
C819 C820 1.524 . S
C819 H822 0.999 . S
C820 H790 0.950 . S
C820 C819 1.524 . S
C820 C821 1.415 . S
C821 H791 0.950 . S
C821 C816 1.363 . S
C821 C820 1.415 . S
H822 C819 0.999 . S
H823 C804 0.913 . S
H824 C842 0.951 . S
H825 C844 0.951 . S
H826 C846 0.950 . S
H827 C847 0.950 . S
H828 C849 0.950 . S
H829 C852 0.950 . S
H830 C853 0.950 . S
H831 C855 0.949 . S
H832 C856 0.950 . S
H833 C857 0.951 . S
H834 C859 0.951 . S
H835 C861 0.950 . S
H836 C862 0.950 . S
H837 C864 0.950 . S
H838 C867 0.950 . S
H839 C868 0.950 . S
H840 C870 0.949 . S
H841 C871 0.950 . S
C842 H824 0.951 . S
C842 C843 1.366 . S
C842 C844 1.388 . S
C843 C842 1.366 . S
C843 C847 1.385 . S
C844 H825 0.951 . S
C844 C842 1.388 . S
C844 C845 1.366 . S
C845 C844 1.366 . S
C845 C846 1.414 . S
C845 C848 1.499 . S
C846 H826 0.950 . S
C846 C845 1.414 . S
C846 C847 1.374 . S
C847 H827 0.950 . S
C847 C843 1.385 . S
C847 C846 1.374 . S
C848 C845 1.499 . S
C848 C849 1.373 . S
C848 C850 1.389 1_545 S
C849 H828 0.950 . S
C849 C848 1.373 . S
C849 C865 1.377 1_556 S
C850 C848 1.389 1_565 S
C850 C851 1.524 . S
C850 C864 1.377 1_556 S
C851 C850 1.524 . S
C851 C852 1.397 . S
C851 C856 1.363 1_556 S
C852 H829 0.950 . S
C852 C851 1.397 . S
C852 C853 1.334 . S
C853 H830 0.950 . S
C853 C852 1.334 . S
C853 C854 1.287 . S
C854 C853 1.287 . S
C854 C855 1.525 1_556 S
C854 H873 0.913 . S
C855 H831 0.949 . S
C855 C854 1.525 1_554 S
C855 C856 1.415 . S
C856 H832 0.950 . S
C856 C851 1.363 1_554 S
C856 C855 1.415 . S
C857 H833 0.951 . S
C857 C858 1.366 . S
C857 C859 1.388 . S
C858 C857 1.366 . S
C858 C862 1.385 . S
C859 H834 0.951 . S
C859 C857 1.388 . S
C859 C860 1.366 . S
C860 C859 1.366 . S
C860 C861 1.414 . S
C860 C863 1.499 . S
C861 H835 0.950 . S
C861 C860 1.414 . S
C861 C862 1.374 . S
C862 H836 0.950 . S
C862 C858 1.385 . S
C862 C861 1.374 . S
C863 C860 1.499 . S
C863 C864 1.373 . S
C863 C865 1.389 1_565 S
C864 H837 0.950 . S
C864 C850 1.377 1_554 S
C864 C863 1.373 . S
C865 C849 1.377 1_554 S
C865 C863 1.389 1_545 S
C865 C866 1.524 . S
C866 C865 1.524 . S
C866 C867 1.397 . S
C866 C871 1.363 1_554 S
C867 H838 0.950 . S
C867 C866 1.397 . S
C867 C868 1.334 . S
C868 H839 0.950 . S
C868 C867 1.334 . S
C868 C869 1.287 . S
C869 C868 1.287 . S
C869 C870 1.525 1_554 S
C869 H872 0.999 . S
C870 H840 0.949 . S
C870 C869 1.525 1_556 S
C870 C871 1.414 . S
C871 H841 0.950 . S
C871 C866 1.363 1_556 S
C871 C870 1.414 . S
H872 C869 0.999 . S
H873 C854 0.913 . S
H874 C892 0.951 . S
H875 C894 0.951 . S
H876 C896 0.950 . S
H877 C897 0.950 . S
H878 C899 0.950 . S
H879 C902 0.950 . S
H880 C903 0.950 . S
H881 C905 0.950 . S
H882 C906 0.950 . S
H883 C907 0.951 . S
H884 C909 0.951 . S
H885 C911 0.950 . S
H886 C912 0.950 . S
H887 C914 0.950 . S
H888 C917 0.950 . S
H889 C918 0.950 . S
H890 C920 0.950 . S
H891 C921 0.950 . S
C892 H874 0.951 . S
C892 C893 1.366 . S
C892 C894 1.388 . S
C893 C892 1.366 . S
C893 C897 1.385 . S
C894 H875 0.951 . S
C894 C892 1.388 . S
C894 C895 1.366 . S
C895 C894 1.366 . S
C895 C896 1.414 . S
C895 C898 1.499 . S
C896 H876 0.950 . S
C896 C895 1.414 . S
C896 C897 1.374 . S
C897 H877 0.950 . S
C897 C893 1.385 . S
C897 C896 1.374 . S
C898 C895 1.499 . S
C898 C899 1.373 . S
C898 C900 1.389 . S
C899 H878 0.950 . S
C899 C898 1.373 . S
C899 C915 1.377 . S
C900 C898 1.389 . S
C900 C901 1.524 . S
C900 C914 1.377 . S
C901 C900 1.524 . S
C901 C902 1.397 . S
C901 C906 1.363 . S
C902 H879 0.950 . S
C902 C901 1.397 . S
C902 C903 1.334 . S
C903 H880 0.950 . S
C903 C902 1.334 . S
C903 C904 1.287 . S
C904 C903 1.287 . S
C904 C905 1.524 . S
C904 H923 0.913 . S
C905 H881 0.950 . S
C905 C904 1.524 . S
C905 C906 1.415 . S
C906 H882 0.950 . S
C906 C901 1.363 . S
C906 C905 1.415 . S
C907 H883 0.951 . S
C907 C908 1.366 . S
C907 C909 1.388 . S
C908 C907 1.366 . S
C908 C912 1.385 . S
C909 H884 0.951 . S
C909 C907 1.388 . S
C909 C910 1.366 . S
C910 C909 1.366 . S
C910 C911 1.414 . S
C910 C913 1.499 . S
C911 H885 0.950 . S
C911 C910 1.414 . S
C911 C912 1.374 . S
C912 H886 0.950 . S
C912 C908 1.385 . S
C912 C911 1.374 . S
C913 C910 1.499 . S
C913 C914 1.373 . S
C913 C915 1.389 . S
C914 H887 0.950 . S
C914 C900 1.377 . S
C914 C913 1.373 . S
C915 C899 1.377 . S
C915 C913 1.389 . S
C915 C916 1.524 . S
C916 C915 1.524 . S
C916 C917 1.397 . S
C916 C921 1.363 . S
C917 H888 0.950 . S
C917 C916 1.397 . S
C917 C918 1.334 . S
C918 H889 0.950 . S
C918 C917 1.334 . S
C918 C919 1.287 . S
C919 C918 1.287 . S
C919 C920 1.524 . S
C919 H922 0.999 . S
C920 H890 0.950 . S
C920 C919 1.524 . S
C920 C921 1.415 . S
C921 H891 0.950 . S
C921 C916 1.363 . S
C921 C920 1.415 . S
H922 C919 0.999 . S
H923 C904 0.913 . S
H924 C942 0.951 . S
H925 C944 0.951 . S
H926 C946 0.950 . S
H927 C947 0.950 . S
H928 C949 0.950 . S
H929 C952 0.950 . S
H930 C953 0.950 . S
H931 C955 0.950 . S
H932 C956 0.950 . S
H933 C957 0.951 . S
H934 C959 0.951 . S
H935 C961 0.950 . S
H936 C962 0.950 . S
H937 C964 0.950 . S
H938 C967 0.950 . S
H939 C968 0.950 . S
H940 C970 0.950 . S
H941 C971 0.950 . S
C942 H924 0.951 . S
C942 C943 1.366 . S
C942 C944 1.388 . S
C943 C942 1.366 . S
C943 C947 1.385 . S
C944 H925 0.951 . S
C944 C942 1.388 . S
C944 C945 1.366 . S
C945 C944 1.366 . S
C945 C946 1.414 . S
C945 C948 1.499 . S
C946 H926 0.950 . S
C946 C945 1.414 . S
C946 C947 1.374 . S
C947 H927 0.950 . S
C947 C943 1.385 . S
C947 C946 1.374 . S
C948 C945 1.499 . S
C948 C949 1.373 . S
C948 C950 1.389 . S
C949 H928 0.950 . S
C949 C948 1.373 . S
C949 C965 1.377 . S
C950 C948 1.389 . S
C950 C951 1.524 . S
C950 C964 1.377 . S
C951 C950 1.524 . S
C951 C952 1.397 . S
C951 C956 1.363 . S
C952 H929 0.950 . S
C952 C951 1.397 . S
C952 C953 1.334 . S
C953 H930 0.950 . S
C953 C952 1.334 . S
C953 C954 1.287 . S
C954 C953 1.287 . S
C954 C955 1.524 . S
C954 H973 0.913 . S
C955 H931 0.950 . S
C955 C954 1.524 . S
C955 C956 1.415 . S
C956 H932 0.950 . S
C956 C951 1.363 . S
C956 C955 1.415 . S
C957 H933 0.951 . S
C957 C958 1.366 . S
C957 C959 1.388 . S
C958 C957 1.366 . S
C958 C962 1.385 . S
C959 H934 0.951 . S
C959 C957 1.388 . S
C959 C960 1.366 . S
C960 C959 1.366 . S
C960 C961 1.414 . S
C960 C963 1.499 . S
C961 H935 0.950 . S
C961 C960 1.414 . S
C961 C962 1.374 . S
C962 H936 0.950 . S
C962 C958 1.385 . S
C962 C961 1.374 . S
C963 C960 1.499 . S
C963 C964 1.373 . S
C963 C965 1.389 . S
C964 H937 0.950 . S
C964 C950 1.377 . S
C964 C963 1.373 . S
C965 C949 1.377 . S
C965 C963 1.389 . S
C965 C966 1.524 . S
C966 C965 1.524 . S
C966 C967 1.397 . S
C966 C971 1.363 . S
C967 H938 0.950 . S
C967 C966 1.397 . S
C967 C968 1.334 . S
C968 H939 0.950 . S
C968 C967 1.334 . S
C968 C969 1.287 . S
C969 C968 1.287 . S
C969 C970 1.524 . S
C969 H972 0.999 . S
C970 H940 0.950 . S
C970 C969 1.524 . S
C970 C971 1.415 . S
C971 H941 0.950 . S
C971 C966 1.363 . S
C971 C970 1.415 . S
H972 C969 0.999 . S
H973 C954 0.913 . S
H974 C992 0.951 . S
H975 C994 0.951 . S
H976 C996 0.950 . S
H977 C997 0.950 . S
H978 C999 0.950 . S
H979 C1002 0.950 . S
H980 C1003 0.950 . S
H981 C1005 0.950 . S
H982 C1006 0.950 . S
H983 C1007 0.951 . S
H984 C1009 0.951 . S
H985 C1011 0.950 . S
H986 C1012 0.950 . S
H987 C1014 0.950 . S
H988 C1017 0.950 . S
H989 C1018 0.950 . S
H990 C1020 0.950 . S
H991 C1021 0.950 . S
C992 H974 0.951 . S
C992 C993 1.366 . S
C992 C994 1.388 . S
C993 C992 1.366 . S
C993 C997 1.385 . S
C994 H975 0.951 . S
C994 C992 1.388 . S
C994 C995 1.366 . S
C995 C994 1.366 . S
C995 C996 1.414 . S
C995 C998 1.499 . S
C996 H976 0.950 . S
C996 C995 1.414 . S
C996 C997 1.374 . S
C997 H977 0.950 . S
C997 C993 1.385 . S
C997 C996 1.374 . S
C998 C995 1.499 . S
C998 C999 1.373 . S
C998 C1000 1.389 . S
C999 H978 0.950 . S
C999 C998 1.373 . S
C999 C1015 1.377 . S
C1000 C998 1.389 . S
C1000 C1001 1.524 . S
C1000 C1014 1.377 . S
C1001 C1000 1.524 . S
C1001 C1002 1.397 . S
C1001 C1006 1.363 . S
C1002 H979 0.950 . S
C1002 C1001 1.397 . S
C1002 C1003 1.334 . S
C1003 H980 0.950 . S
C1003 C1002 1.334 . S
C1003 C1004 1.287 . S
C1004 C1003 1.287 . S
C1004 C1005 1.524 . S
C1004 H1023 0.913 . S
C1005 H981 0.950 . S
C1005 C1004 1.524 . S
C1005 C1006 1.415 . S
C1006 H982 0.950 . S
C1006 C1001 1.363 . S
C1006 C1005 1.415 . S
C1007 H983 0.951 . S
C1007 C1008 1.366 . S
C1007 C1009 1.388 . S
C1008 C1007 1.366 . S
C1008 C1012 1.385 . S
C1009 H984 0.951 . S
C1009 C1007 1.388 . S
C1009 C1010 1.366 . S
C1010 C1009 1.366 . S
C1010 C1011 1.414 . S
C1010 C1013 1.499 . S
C1011 H985 0.950 . S
C1011 C1010 1.414 . S
C1011 C1012 1.374 . S
C1012 H986 0.950 . S
C1012 C1008 1.385 . S
C1012 C1011 1.374 . S
C1013 C1010 1.499 . S
C1013 C1014 1.373 . S
C1013 C1015 1.389 . S
C1014 H987 0.950 . S
C1014 C1000 1.377 . S
C1014 C1013 1.373 . S
C1015 C999 1.377 . S
C1015 C1013 1.389 . S
C1015 C1016 1.524 . S
C1016 C1015 1.524 . S
C1016 C1017 1.397 . S
C1016 C1021 1.363 . S
C1017 H988 0.950 . S
C1017 C1016 1.397 . S
C1017 C1018 1.334 . S
C1018 H989 0.950 . S
C1018 C1017 1.334 . S
C1018 C1019 1.287 . S
C1019 C1018 1.287 . S
C1019 C1020 1.524 . S
C1019 H1022 0.999 . S
C1020 H990 0.950 . S
C1020 C1019 1.524 . S
C1020 C1021 1.415 . S
C1021 H991 0.950 . S
C1021 C1016 1.363 . S
C1021 C1020 1.415 . S
H1022 C1019 0.999 . S
H1023 C1004 0.913 . S
H1024 C1042 0.951 . S
H1025 C1044 0.951 . S
H1026 C1046 0.950 . S
H1027 C1047 0.950 . S
H1028 C1049 0.950 . S
H1029 C1052 0.950 . S
H1030 C1053 0.950 . S
H1031 C1055 0.950 . S
H1032 C1056 0.950 . S
H1033 C1057 0.951 1_545 S
H1034 C1059 0.951 . S
H1035 C1061 0.950 . S
H1036 C1062 0.950 . S
H1037 C1064 0.950 . S
H1038 C1067 0.950 . S
H1039 C1068 0.950 . S
H1040 C1070 0.950 . S
H1041 C1071 0.950 . S
C1042 H1024 0.951 . S
C1042 C1043 1.366 . S
C1042 C1044 1.388 . S
C1043 C1042 1.366 . S
C1043 C1047 1.385 . S
C1044 H1025 0.951 . S
C1044 C1042 1.388 . S
C1044 C1045 1.366 . S
C1045 C1044 1.366 . S
C1045 C1046 1.414 . S
C1045 C1048 1.499 . S
C1046 H1026 0.950 . S
C1046 C1045 1.414 . S
C1046 C1047 1.374 . S
C1047 H1027 0.950 . S
C1047 C1043 1.385 . S
C1047 C1046 1.374 . S
C1048 C1045 1.499 . S
C1048 C1049 1.373 . S
C1048 C1050 1.389 . S
C1049 H1028 0.950 . S
C1049 C1048 1.373 . S
C1049 C1065 1.377 . S
C1050 C1048 1.389 . S
C1050 C1051 1.524 . S
C1050 C1064 1.377 . S
C1051 C1050 1.524 . S
C1051 C1052 1.397 . S
C1051 C1056 1.363 . S
C1052 H1029 0.950 . S
C1052 C1051 1.397 . S
C1052 C1053 1.334 . S
C1053 H1030 0.950 . S
C1053 C1052 1.334 . S
C1053 C1054 1.287 . S
C1054 C1053 1.287 . S
C1054 C1055 1.524 . S
C1054 H1073 0.913 . S
C1055 H1031 0.950 . S
C1055 C1054 1.524 . S
C1055 C1056 1.415 . S
C1056 H1032 0.950 . S
C1056 C1051 1.363 . S
C1056 C1055 1.415 . S
C1057 H1033 0.951 1_565 S
C1057 C1058 1.366 . S
C1057 C1059 1.388 . S
C1058 C1057 1.366 . S
C1058 C1062 1.385 . S
C1059 H1034 0.951 . S
C1059 C1057 1.388 . S
C1059 C1060 1.366 . S
C1060 C1059 1.366 . S
C1060 C1061 1.414 . S
C1060 C1063 1.499 . S
C1061 H1035 0.950 . S
C1061 C1060 1.414 . S
C1061 C1062 1.374 . S
C1062 H1036 0.950 . S
C1062 C1058 1.385 . S
C1062 C1061 1.374 . S
C1063 C1060 1.499 . S
C1063 C1064 1.373 . S
C1063 C1065 1.389 . S
C1064 H1037 0.950 . S
C1064 C1050 1.377 . S
C1064 C1063 1.373 . S
C1065 C1049 1.377 . S
C1065 C1063 1.389 . S
C1065 C1066 1.524 . S
C1066 C1065 1.524 . S
C1066 C1067 1.397 . S
C1066 C1071 1.363 . S
C1067 H1038 0.950 . S
C1067 C1066 1.397 . S
C1067 C1068 1.334 . S
C1068 H1039 0.950 . S
C1068 C1067 1.334 . S
C1068 C1069 1.287 . S
C1069 C1068 1.287 . S
C1069 C1070 1.524 . S
C1069 H1072 0.999 . S
C1070 H1040 0.950 . S
C1070 C1069 1.524 . S
C1070 C1071 1.415 . S
C1071 H1041 0.950 . S
C1071 C1066 1.363 . S
C1071 C1070 1.415 . S
H1072 C1069 0.999 . S
H1073 C1054 0.913 . S
H1074 C1092 0.951 . S
H1075 C1094 0.951 . S
H1076 C1096 0.950 . S
H1077 C1097 0.950 . S
H1078 C1099 0.950 . S
H1079 C1102 0.950 . S
H1080 C1103 0.950 . S
H1081 C1105 0.950 . S
H1082 C1106 0.950 . S
H1083 C1107 0.951 . S
H1084 C1109 0.951 . S
H1085 C1111 0.950 . S
H1086 C1112 0.950 . S
H1087 C1114 0.950 . S
H1088 C1117 0.950 . S
H1089 C1118 0.950 . S
H1090 C1120 0.950 . S
H1091 C1121 0.950 . S
C1092 H1074 0.951 . S
C1092 C1093 1.366 . S
C1092 C1094 1.388 . S
C1093 C1092 1.366 . S
C1093 C1097 1.385 . S
C1094 H1075 0.951 . S
C1094 C1092 1.388 . S
C1094 C1095 1.366 . S
C1095 C1094 1.366 . S
C1095 C1096 1.414 . S
C1095 C1098 1.499 . S
C1096 H1076 0.950 . S
C1096 C1095 1.414 . S
C1096 C1097 1.374 . S
C1097 H1077 0.950 . S
C1097 C1093 1.385 . S
C1097 C1096 1.374 . S
C1098 C1095 1.499 . S
C1098 C1099 1.373 . S
C1098 C1100 1.389 . S
C1099 H1078 0.950 . S
C1099 C1098 1.373 . S
C1099 C1115 1.377 . S
C1100 C1098 1.389 . S
C1100 C1101 1.524 . S
C1100 C1114 1.377 . S
C1101 C1100 1.524 . S
C1101 C1102 1.397 . S
C1101 C1106 1.363 . S
C1102 H1079 0.950 . S
C1102 C1101 1.397 . S
C1102 C1103 1.334 . S
C1103 H1080 0.950 . S
C1103 C1102 1.334 . S
C1103 C1104 1.287 . S
C1104 C1103 1.287 . S
C1104 C1105 1.524 . S
C1104 H1123 0.913 . S
C1105 H1081 0.950 . S
C1105 C1104 1.524 . S
C1105 C1106 1.415 . S
C1106 H1082 0.950 . S
C1106 C1101 1.363 . S
C1106 C1105 1.415 . S
C1107 H1083 0.951 . S
C1107 C1108 1.366 . S
C1107 C1109 1.388 . S
C1108 C1107 1.366 . S
C1108 C1112 1.385 . S
C1109 H1084 0.951 . S
C1109 C1107 1.388 . S
C1109 C1110 1.366 . S
C1110 C1109 1.366 . S
C1110 C1111 1.414 . S
C1110 C1113 1.499 . S
C1111 H1085 0.950 . S
C1111 C1110 1.414 . S
C1111 C1112 1.374 . S
C1112 H1086 0.950 . S
C1112 C1108 1.385 . S
C1112 C1111 1.374 . S
C1113 C1110 1.499 . S
C1113 C1114 1.373 . S
C1113 C1115 1.389 . S
C1114 H1087 0.950 . S
C1114 C1100 1.377 . S
C1114 C1113 1.373 . S
C1115 C1099 1.377 . S
C1115 C1113 1.389 . S
C1115 C1116 1.524 . S
C1116 C1115 1.524 . S
C1116 C1117 1.397 . S
C1116 C1121 1.363 . S
C1117 H1088 0.950 . S
C1117 C1116 1.397 . S
C1117 C1118 1.334 . S
C1118 H1089 0.950 . S
C1118 C1117 1.334 . S
C1118 C1119 1.287 . S
C1119 C1118 1.287 . S
C1119 C1120 1.524 . S
C1119 H1122 0.999 . S
C1120 H1090 0.950 . S
C1120 C1119 1.524 . S
C1120 C1121 1.415 . S
C1121 H1091 0.950 . S
C1121 C1116 1.363 . S
C1121 C1120 1.415 . S
H1122 C1119 0.999 . S
H1123 C1104 0.913 . S
H1124 C1142 0.951 . S
H1125 C1144 0.951 . S
H1126 C1146 0.950 . S
H1127 C1147 0.950 . S
H1128 C1149 0.950 . S
H1129 C1152 0.950 . S
H1130 C1153 0.950 . S
H1131 C1155 0.950 . S
H1132 C1156 0.950 . S
H1133 C1157 0.951 . S
H1134 C1159 0.951 . S
H1135 C1161 0.950 . S
H1136 C1162 0.950 . S
H1137 C1164 0.950 . S
H1138 C1167 0.950 . S
H1139 C1168 0.950 . S
H1140 C1170 0.950 . S
H1141 C1171 0.950 . S
C1142 H1124 0.951 . S
C1142 C1143 1.366 . S
C1142 C1144 1.388 . S
C1143 C1142 1.366 . S
C1143 C1147 1.385 . S
C1144 H1125 0.951 . S
C1144 C1142 1.388 . S
C1144 C1145 1.366 . S
C1145 C1144 1.366 . S
C1145 C1146 1.414 . S
C1145 C1148 1.499 . S
C1146 H1126 0.950 . S
C1146 C1145 1.414 . S
C1146 C1147 1.374 . S
C1147 H1127 0.950 . S
C1147 C1143 1.385 . S
C1147 C1146 1.374 . S
C1148 C1145 1.499 . S
C1148 C1149 1.373 . S
C1148 C1150 1.389 . S
C1149 H1128 0.950 . S
C1149 C1148 1.373 . S
C1149 C1165 1.377 . S
C1150 C1148 1.389 . S
C1150 C1151 1.524 . S
C1150 C1164 1.377 . S
C1151 C1150 1.524 . S
C1151 C1152 1.397 . S
C1151 C1156 1.363 . S
C1152 H1129 0.950 . S
C1152 C1151 1.397 . S
C1152 C1153 1.334 . S
C1153 H1130 0.950 . S
C1153 C1152 1.334 . S
C1153 C1154 1.287 . S
C1154 C1153 1.287 . S
C1154 C1155 1.524 . S
C1154 H1173 0.913 . S
C1155 H1131 0.950 . S
C1155 C1154 1.524 . S
C1155 C1156 1.415 . S
C1156 H1132 0.950 . S
C1156 C1151 1.363 . S
C1156 C1155 1.415 . S
C1157 H1133 0.951 . S
C1157 C1158 1.366 . S
C1157 C1159 1.388 . S
C1158 C1157 1.366 . S
C1158 C1162 1.385 . S
C1159 H1134 0.951 . S
C1159 C1157 1.388 . S
C1159 C1160 1.366 . S
C1160 C1159 1.366 . S
C1160 C1161 1.414 . S
C1160 C1163 1.499 . S
C1161 H1135 0.950 . S
C1161 C1160 1.414 . S
C1161 C1162 1.374 . S
C1162 H1136 0.950 . S
C1162 C1158 1.385 . S
C1162 C1161 1.374 . S
C1163 C1160 1.499 . S
C1163 C1164 1.373 . S
C1163 C1165 1.389 . S
C1164 H1137 0.950 . S
C1164 C1150 1.377 . S
C1164 C1163 1.373 . S
C1165 C1149 1.377 . S
C1165 C1163 1.389 . S
C1165 C1166 1.524 . S
C1166 C1165 1.524 . S
C1166 C1167 1.397 . S
C1166 C1171 1.363 . S
C1167 H1138 0.950 . S
C1167 C1166 1.397 . S
C1167 C1168 1.334 . S
C1168 H1139 0.950 . S
C1168 C1167 1.334 . S
C1168 C1169 1.287 . S
C1169 C1168 1.287 . S
C1169 C1170 1.524 . S
C1169 H1172 0.999 . S
C1170 H1140 0.950 . S
C1170 C1169 1.524 . S
C1170 C1171 1.415 . S
C1171 H1141 0.950 . S
C1171 C1166 1.363 . S
C1171 C1170 1.415 . S
H1172 C1169 0.999 . S
H1173 C1154 0.913 . S
H1174 C1192 0.951 . S
H1175 C1194 0.951 . S
H1176 C1196 0.950 . S
H1177 C1197 0.950 . S
H1178 C1199 0.950 . S
H1179 C1202 0.950 . S
H1180 C1203 0.950 . S
H1181 C1205 0.950 . S
H1182 C1206 0.950 . S
H1183 C1207 0.951 1_545 S
H1184 C1209 0.951 . S
H1185 C1211 0.950 . S
H1186 C1212 0.950 . S
H1187 C1214 0.950 . S
H1188 C1217 0.950 . S
H1189 C1218 0.950 . S
H1190 C1220 0.950 1_545 S
H1191 C1221 0.950 . S
C1192 H1174 0.951 . S
C1192 C1193 1.366 . S
C1192 C1194 1.388 . S
C1193 C1192 1.366 . S
C1193 C1197 1.385 . S
C1194 H1175 0.951 . S
C1194 C1192 1.388 . S
C1194 C1195 1.366 . S
C1195 C1194 1.366 . S
C1195 C1196 1.414 . S
C1195 C1198 1.499 . S
C1196 H1176 0.950 . S
C1196 C1195 1.414 . S
C1196 C1197 1.374 . S
C1197 H1177 0.950 . S
C1197 C1193 1.385 . S
C1197 C1196 1.374 . S
C1198 C1195 1.499 . S
C1198 C1199 1.373 . S
C1198 C1200 1.389 . S
C1199 H1178 0.950 . S
C1199 C1198 1.373 . S
C1199 C1215 1.377 . S
C1200 C1198 1.389 . S
C1200 C1201 1.524 . S
C1200 C1214 1.377 . S
C1201 C1200 1.524 . S
C1201 C1202 1.397 . S
C1201 C1206 1.363 . S
C1202 H1179 0.950 . S
C1202 C1201 1.397 . S
C1202 C1203 1.334 . S
C1203 H1180 0.950 . S
C1203 C1202 1.334 . S
C1203 C1204 1.287 . S
C1204 C1203 1.287 . S
C1204 C1205 1.524 . S
C1204 H1223 0.913 . S
C1205 H1181 0.950 . S
C1205 C1204 1.524 . S
C1205 C1206 1.415 . S
C1206 H1182 0.950 . S
C1206 C1201 1.363 . S
C1206 C1205 1.415 . S
C1207 H1183 0.951 1_565 S
C1207 C1208 1.366 . S
C1207 C1209 1.388 . S
C1208 C1207 1.366 . S
C1208 C1212 1.385 . S
C1209 H1184 0.951 . S
C1209 C1207 1.388 . S
C1209 C1210 1.366 . S
C1210 C1209 1.366 . S
C1210 C1211 1.414 . S
C1210 C1213 1.499 . S
C1211 H1185 0.950 . S
C1211 C1210 1.414 . S
C1211 C1212 1.374 . S
C1212 H1186 0.950 . S
C1212 C1208 1.385 . S
C1212 C1211 1.374 . S
C1213 C1210 1.499 . S
C1213 C1214 1.373 . S
C1213 C1215 1.389 . S
C1214 H1187 0.950 . S
C1214 C1200 1.377 . S
C1214 C1213 1.373 . S
C1215 C1199 1.377 . S
C1215 C1213 1.389 . S
C1215 C1216 1.524 . S
C1216 C1215 1.524 . S
C1216 C1217 1.397 . S
C1216 C1221 1.363 . S
C1217 H1188 0.950 . S
C1217 C1216 1.397 . S
C1217 C1218 1.334 1_565 S
C1218 H1189 0.950 . S
C1218 C1217 1.334 1_545 S
C1218 C1219 1.287 . S
C1219 C1218 1.287 . S
C1219 C1220 1.524 1_545 S
C1219 H1222 0.999 . S
C1220 H1190 0.950 1_565 S
C1220 C1219 1.524 1_565 S
C1220 C1221 1.415 . S
C1221 H1191 0.950 . S
C1221 C1216 1.363 . S
C1221 C1220 1.415 . S
H1222 C1219 0.999 . S
H1223 C1204 0.913 . S
H1224 C1242 0.951 . S
H1225 C1244 0.951 . S
H1226 C1246 0.950 . S
H1227 C1247 0.950 . S
H1228 C1249 0.950 . S
H1229 C1252 0.950 . S
H1230 C1253 0.950 . S
H1231 C1255 0.950 . S
H1232 C1256 0.950 . S
H1233 C1257 0.951 1_565 S
H1234 C1259 0.951 . S
H1235 C1261 0.950 . S
H1236 C1262 0.950 . S
H1237 C1264 0.950 . S
H1238 C1267 0.950 . S
H1239 C1268 0.950 . S
H1240 C1270 0.950 . S
H1241 C1271 0.950 . S
C1242 H1224 0.951 . S
C1242 C1243 1.366 . S
C1242 C1244 1.388 . S
C1243 C1242 1.366 . S
C1243 C1247 1.385 . S
C1244 H1225 0.951 . S
C1244 C1242 1.388 . S
C1244 C1245 1.366 . S
C1245 C1244 1.366 . S
C1245 C1246 1.414 . S
C1245 C1248 1.499 . S
C1246 H1226 0.950 . S
C1246 C1245 1.414 . S
C1246 C1247 1.374 . S
C1247 H1227 0.950 . S
C1247 C1243 1.385 . S
C1247 C1246 1.374 . S
C1248 C1245 1.499 . S
C1248 C1249 1.373 . S
C1248 C1250 1.389 . S
C1249 H1228 0.950 . S
C1249 C1248 1.373 . S
C1249 C1265 1.377 . S
C1250 C1248 1.389 . S
C1250 C1251 1.524 . S
C1250 C1264 1.377 . S
C1251 C1250 1.524 . S
C1251 C1252 1.397 . S
C1251 C1256 1.363 . S
C1252 H1229 0.950 . S
C1252 C1251 1.397 . S
C1252 C1253 1.334 . S
C1253 H1230 0.950 . S
C1253 C1252 1.334 . S
C1253 C1254 1.287 . S
C1254 C1253 1.287 . S
C1254 C1255 1.524 . S
C1254 H1273 0.913 . S
C1255 H1231 0.950 . S
C1255 C1254 1.524 . S
C1255 C1256 1.415 . S
C1256 H1232 0.950 . S
C1256 C1251 1.363 . S
C1256 C1255 1.415 . S
C1257 H1233 0.951 1_545 S
C1257 C1258 1.366 . S
C1257 C1259 1.388 . S
C1258 C1257 1.366 . S
C1258 C1262 1.385 . S
C1259 H1234 0.951 . S
C1259 C1257 1.388 . S
C1259 C1260 1.366 . S
C1260 C1259 1.366 . S
C1260 C1261 1.414 . S
C1260 C1263 1.499 . S
C1261 H1235 0.950 . S
C1261 C1260 1.414 . S
C1261 C1262 1.374 . S
C1262 H1236 0.950 . S
C1262 C1258 1.385 . S
C1262 C1261 1.374 . S
C1263 C1260 1.499 . S
C1263 C1264 1.373 . S
C1263 C1265 1.389 . S
C1264 H1237 0.950 . S
C1264 C1250 1.377 . S
C1264 C1263 1.373 . S
C1265 C1249 1.377 . S
C1265 C1263 1.389 . S
C1265 C1266 1.524 . S
C1266 C1265 1.524 . S
C1266 C1267 1.397 . S
C1266 C1271 1.363 . S
C1267 H1238 0.950 . S
C1267 C1266 1.397 . S
C1267 C1268 1.334 1_545 S
C1268 H1239 0.950 . S
C1268 C1267 1.334 1_565 S
C1268 C1269 1.287 . S
C1269 C1268 1.287 . S
C1269 C1270 1.524 . S
C1269 H1272 0.999 . S
C1270 H1240 0.950 . S
C1270 C1269 1.524 . S
C1270 C1271 1.415 1_565 S
C1271 H1241 0.950 . S
C1271 C1266 1.363 . S
C1271 C1270 1.415 1_545 S
H1272 C1269 0.999 . S
H1273 C1254 0.913 . S
H1274 C1292 0.951 . S
H1275 C1294 0.951 . S
H1276 C1296 0.950 . S
H1277 C1297 0.950 . S
H1278 C1299 0.950 . S
H1279 C1302 0.950 . S
H1280 C1303 0.950 . S
H1281 C1305 0.950 . S
H1282 C1306 0.950 . S
H1283 C1307 0.951 . S
H1284 C1309 0.951 . S
H1285 C1311 0.950 . S
H1286 C1312 0.950 . S
H1287 C1314 0.950 . S
H1288 C1317 0.950 . S
H1289 C1318 0.950 . S
H1290 C1320 0.950 . S
H1291 C1321 0.950 . S
C1292 H1274 0.951 . S
C1292 C1293 1.366 . S
C1292 C1294 1.388 . S
C1293 C1292 1.366 . S
C1293 C1297 1.385 . S
C1294 H1275 0.951 . S
C1294 C1292 1.388 . S
C1294 C1295 1.366 . S
C1295 C1294 1.366 . S
C1295 C1296 1.414 . S
C1295 C1298 1.499 . S
C1296 H1276 0.950 . S
C1296 C1295 1.414 . S
C1296 C1297 1.374 . S
C1297 H1277 0.950 . S
C1297 C1293 1.385 . S
C1297 C1296 1.374 . S
C1298 C1295 1.499 . S
C1298 C1299 1.373 . S
C1298 C1300 1.389 . S
C1299 H1278 0.950 . S
C1299 C1298 1.373 . S
C1299 C1315 1.377 . S
C1300 C1298 1.389 . S
C1300 C1301 1.524 . S
C1300 C1314 1.377 . S
C1301 C1300 1.524 . S
C1301 C1302 1.397 . S
C1301 C1306 1.363 . S
C1302 H1279 0.950 . S
C1302 C1301 1.397 . S
C1302 C1303 1.334 . S
C1303 H1280 0.950 . S
C1303 C1302 1.334 . S
C1303 C1304 1.287 . S
C1304 C1303 1.287 . S
C1304 C1305 1.524 . S
C1304 H1323 0.913 . S
C1305 H1281 0.950 . S
C1305 C1304 1.524 . S
C1305 C1306 1.415 . S
C1306 H1282 0.950 . S
C1306 C1301 1.363 . S
C1306 C1305 1.415 . S
C1307 H1283 0.951 . S
C1307 C1308 1.366 . S
C1307 C1309 1.388 . S
C1308 C1307 1.366 . S
C1308 C1312 1.385 . S
C1309 H1284 0.951 . S
C1309 C1307 1.388 . S
C1309 C1310 1.366 . S
C1310 C1309 1.366 . S
C1310 C1311 1.414 . S
C1310 C1313 1.499 . S
C1311 H1285 0.950 . S
C1311 C1310 1.414 . S
C1311 C1312 1.374 . S
C1312 H1286 0.950 . S
C1312 C1308 1.385 . S
C1312 C1311 1.374 . S
C1313 C1310 1.499 . S
C1313 C1314 1.373 . S
C1313 C1315 1.389 . S
C1314 H1287 0.950 . S
C1314 C1300 1.377 . S
C1314 C1313 1.373 . S
C1315 C1299 1.377 . S
C1315 C1313 1.389 . S
C1315 C1316 1.524 . S
C1316 C1315 1.524 . S
C1316 C1317 1.397 . S
C1316 C1321 1.363 . S
C1317 H1288 0.950 . S
C1317 C1316 1.397 . S
C1317 C1318 1.334 . S
C1318 H1289 0.950 . S
C1318 C1317 1.334 . S
C1318 C1319 1.287 . S
C1319 C1318 1.287 . S
C1319 C1320 1.524 . S
C1319 H1322 0.999 . S
C1320 H1290 0.950 . S
C1320 C1319 1.524 . S
C1320 C1321 1.415 . S
C1321 H1291 0.950 . S
C1321 C1316 1.363 . S
C1321 C1320 1.415 . S
H1322 C1319 0.999 . S
H1323 C1304 0.913 . S
H1324 C1342 0.951 . S
H1325 C1344 0.951 . S
H1326 C1346 0.950 . S
H1327 C1347 0.950 . S
H1328 C1349 0.950 . S
H1329 C1352 0.950 . S
H1330 C1353 0.950 . S
H1331 C1355 0.950 . S
H1332 C1356 0.950 . S
H1333 C1357 0.951 . S
H1334 C1359 0.951 . S
H1335 C1361 0.950 . S
H1336 C1362 0.950 . S
H1337 C1364 0.950 . S
H1338 C1367 0.950 . S
H1339 C1368 0.950 . S
H1340 C1370 0.950 . S
H1341 C1371 0.950 . S
C1342 H1324 0.951 . S
C1342 C1343 1.366 . S
C1342 C1344 1.388 . S
C1343 C1342 1.366 . S
C1343 C1347 1.385 . S
C1344 H1325 0.951 . S
C1344 C1342 1.388 . S
C1344 C1345 1.366 . S
C1345 C1344 1.366 . S
C1345 C1346 1.414 . S
C1345 C1348 1.499 . S
C1346 H1326 0.950 . S
C1346 C1345 1.414 . S
C1346 C1347 1.374 . S
C1347 H1327 0.950 . S
C1347 C1343 1.385 . S
C1347 C1346 1.374 . S
C1348 C1345 1.499 . S
C1348 C1349 1.373 . S
C1348 C1350 1.389 . S
C1349 H1328 0.950 . S
C1349 C1348 1.373 . S
C1349 C1365 1.377 . S
C1350 C1348 1.389 . S
C1350 C1351 1.524 . S
C1350 C1364 1.377 . S
C1351 C1350 1.524 . S
C1351 C1352 1.397 . S
C1351 C1356 1.363 . S
C1352 H1329 0.950 . S
C1352 C1351 1.397 . S
C1352 C1353 1.334 . S
C1353 H1330 0.950 . S
C1353 C1352 1.334 . S
C1353 C1354 1.287 . S
C1354 C1353 1.287 . S
C1354 C1355 1.524 . S
C1354 H1373 0.913 . S
C1355 H1331 0.950 . S
C1355 C1354 1.524 . S
C1355 C1356 1.415 . S
C1356 H1332 0.950 . S
C1356 C1351 1.363 . S
C1356 C1355 1.415 . S
C1357 H1333 0.951 . S
C1357 C1358 1.366 . S
C1357 C1359 1.388 . S
C1358 C1357 1.366 . S
C1358 C1362 1.385 . S
C1359 H1334 0.951 . S
C1359 C1357 1.388 . S
C1359 C1360 1.366 . S
C1360 C1359 1.366 . S
C1360 C1361 1.414 . S
C1360 C1363 1.499 . S
C1361 H1335 0.950 . S
C1361 C1360 1.414 . S
C1361 C1362 1.374 . S
C1362 H1336 0.950 . S
C1362 C1358 1.385 . S
C1362 C1361 1.374 . S
C1363 C1360 1.499 . S
C1363 C1364 1.373 . S
C1363 C1365 1.389 . S
C1364 H1337 0.950 . S
C1364 C1350 1.377 . S
C1364 C1363 1.373 . S
C1365 C1349 1.377 . S
C1365 C1363 1.389 . S
C1365 C1366 1.524 . S
C1366 C1365 1.524 . S
C1366 C1367 1.397 . S
C1366 C1371 1.363 . S
C1367 H1338 0.950 . S
C1367 C1366 1.397 . S
C1367 C1368 1.334 . S
C1368 H1339 0.950 . S
C1368 C1367 1.334 . S
C1368 C1369 1.287 . S
C1369 C1368 1.287 . S
C1369 C1370 1.524 . S
C1369 H1372 0.999 . S
C1370 H1340 0.950 . S
C1370 C1369 1.524 . S
C1370 C1371 1.415 . S
C1371 H1341 0.950 . S
C1371 C1366 1.363 . S
C1371 C1370 1.415 . S
H1372 C1369 0.999 . S
H1373 C1354 0.913 . S
H1374 C1392 0.951 . S
H1375 C1394 0.951 . S
H1376 C1396 0.950 . S
H1377 C1397 0.950 . S
H1378 C1399 0.950 . S
H1379 C1402 0.950 . S
H1380 C1403 0.950 . S
H1381 C1405 0.950 . S
H1382 C1406 0.950 . S
H1383 C1407 0.951 . S
H1384 C1409 0.951 . S
H1385 C1411 0.950 . S
H1386 C1412 0.950 . S
H1387 C1414 0.950 . S
H1388 C1417 0.950 . S
H1389 C1418 0.950 . S
H1390 C1420 0.950 . S
H1391 C1421 0.950 . S
C1392 H1374 0.951 . S
C1392 C1393 1.366 1_565 S
C1392 C1394 1.388 1_565 S
C1393 C1392 1.366 1_545 S
C1393 C1397 1.385 . S
C1394 H1375 0.951 . S
C1394 C1392 1.388 1_545 S
C1394 C1395 1.366 . S
C1395 C1394 1.366 . S
C1395 C1396 1.414 . S
C1395 C1398 1.499 . S
C1396 H1376 0.950 . S
C1396 C1395 1.414 . S
C1396 C1397 1.374 . S
C1397 H1377 0.950 . S
C1397 C1393 1.385 . S
C1397 C1396 1.374 . S
C1398 C1395 1.499 . S
C1398 C1399 1.373 . S
C1398 C1400 1.389 . S
C1399 H1378 0.950 . S
C1399 C1398 1.373 . S
C1399 C1415 1.377 . S
C1400 C1398 1.389 . S
C1400 C1401 1.524 . S
C1400 C1414 1.377 . S
C1401 C1400 1.524 . S
C1401 C1402 1.397 . S
C1401 C1406 1.363 . S
C1402 H1379 0.950 . S
C1402 C1401 1.397 . S
C1402 C1403 1.334 . S
C1403 H1380 0.950 . S
C1403 C1402 1.334 . S
C1403 C1404 1.287 . S
C1404 C1403 1.287 . S
C1404 C1405 1.524 . S
C1404 H1423 0.913 . S
C1405 H1381 0.950 . S
C1405 C1404 1.524 . S
C1405 C1406 1.415 . S
C1406 H1382 0.950 . S
C1406 C1401 1.363 . S
C1406 C1405 1.415 . S
C1407 H1383 0.951 . S
C1407 C1408 1.366 . S
C1407 C1409 1.388 . S
C1408 C1407 1.366 . S
C1408 C1412 1.385 . S
C1409 H1384 0.951 . S
C1409 C1407 1.388 . S
C1409 C1410 1.366 . S
C1410 C1409 1.366 . S
C1410 C1411 1.414 . S
C1410 C1413 1.499 . S
C1411 H1385 0.950 . S
C1411 C1410 1.414 . S
C1411 C1412 1.374 . S
C1412 H1386 0.950 . S
C1412 C1408 1.385 . S
C1412 C1411 1.374 . S
C1413 C1410 1.499 . S
C1413 C1414 1.373 . S
C1413 C1415 1.389 . S
C1414 H1387 0.950 . S
C1414 C1400 1.377 . S
C1414 C1413 1.373 . S
C1415 C1399 1.377 . S
C1415 C1413 1.389 . S
C1415 C1416 1.524 . S
C1416 C1415 1.524 . S
C1416 C1417 1.397 . S
C1416 C1421 1.363 . S
C1417 H1388 0.950 . S
C1417 C1416 1.397 . S
C1417 C1418 1.334 . S
C1418 H1389 0.950 . S
C1418 C1417 1.334 . S
C1418 C1419 1.287 . S
C1419 C1418 1.287 . S
C1419 C1420 1.524 . S
C1419 H1422 0.999 . S
C1420 H1390 0.950 . S
C1420 C1419 1.524 . S
C1420 C1421 1.415 . S
C1421 H1391 0.950 . S
C1421 C1416 1.363 . S
C1421 C1420 1.415 . S
H1422 C1419 0.999 . S
H1423 C1404 0.913 . S
H1424 C1442 0.951 . S
H1425 C1444 0.951 . S
H1426 C1446 0.950 . S
H1427 C1447 0.950 . S
H1428 C1449 0.950 . S
H1429 C1452 0.950 . S
H1430 C1453 0.950 . S
H1431 C1455 0.950 . S
H1432 C1456 0.950 . S
H1433 C1457 0.951 . S
H1434 C1459 0.951 . S
H1435 C1461 0.950 . S
H1436 C1462 0.950 . S
H1437 C1464 0.950 . S
H1438 C1467 0.950 . S
H1439 C1468 0.950 1_545 S
H1440 C1470 0.951 . S
H1441 C1471 0.950 . S
C1442 H1424 0.951 . S
C1442 C1443 1.366 . S
C1442 C1444 1.388 . S
C1443 C1442 1.366 . S
C1443 C1447 1.385 . S
C1444 H1425 0.951 . S
C1444 C1442 1.388 . S
C1444 C1445 1.366 . S
C1445 C1444 1.366 . S
C1445 C1446 1.414 . S
C1445 C1448 1.499 . S
C1446 H1426 0.950 . S
C1446 C1445 1.414 . S
C1446 C1447 1.374 . S
C1447 H1427 0.950 . S
C1447 C1443 1.385 . S
C1447 C1446 1.374 . S
C1448 C1445 1.499 . S
C1448 C1449 1.373 . S
C1448 C1450 1.389 . S
C1449 H1428 0.950 . S
C1449 C1448 1.373 . S
C1449 C1465 1.377 . S
C1450 C1448 1.389 . S
C1450 C1451 1.524 . S
C1450 C1464 1.377 . S
C1451 C1450 1.524 . S
C1451 C1452 1.397 . S
C1451 C1456 1.363 . S
C1452 H1429 0.950 . S
C1452 C1451 1.397 . S
C1452 C1453 1.334 . S
C1453 H1430 0.950 . S
C1453 C1452 1.334 . S
C1453 C1454 1.287 . S
C1454 C1453 1.287 . S
C1454 C1455 1.524 . S
C1454 H1473 0.913 . S
C1455 H1431 0.950 . S
C1455 C1454 1.524 . S
C1455 C1456 1.415 . S
C1456 H1432 0.950 . S
C1456 C1451 1.363 . S
C1456 C1455 1.415 . S
C1457 H1433 0.951 . S
C1457 C1458 1.366 1_545 S
C1457 C1459 1.388 1_545 S
C1458 C1457 1.366 1_565 S
C1458 C1462 1.385 . S
C1459 H1434 0.951 . S
C1459 C1457 1.388 1_565 S
C1459 C1460 1.366 . S
C1460 C1459 1.366 . S
C1460 C1461 1.414 . S
C1460 C1463 1.499 . S
C1461 H1435 0.950 . S
C1461 C1460 1.414 . S
C1461 C1462 1.374 . S
C1462 H1436 0.950 . S
C1462 C1458 1.385 . S
C1462 C1461 1.374 . S
C1463 C1460 1.499 . S
C1463 C1464 1.373 . S
C1463 C1465 1.389 . S
C1464 H1437 0.950 . S
C1464 C1450 1.377 . S
C1464 C1463 1.373 . S
C1465 C1449 1.377 . S
C1465 C1463 1.389 . S
C1465 C1466 1.524 . S
C1466 C1465 1.524 . S
C1466 C1467 1.397 . S
C1466 C1471 1.363 . S
C1467 H1438 0.950 . S
C1467 C1466 1.397 . S
C1467 C1468 1.334 . S
C1468 H1439 0.950 1_565 S
C1468 C1467 1.334 . S
C1468 C1469 1.287 1_565 S
C1469 C1468 1.287 1_545 S
C1469 C1470 1.525 . S
C1469 H1472 0.999 . S
C1470 H1440 0.951 . S
C1470 C1469 1.525 . S
C1470 C1471 1.412 1_545 S
C1471 H1441 0.950 . S
C1471 C1466 1.363 . S
C1471 C1470 1.412 1_565 S
H1472 C1469 0.999 . S
H1473 C1454 0.913 . S
H1474 C1492 0.951 . S
H1475 C1494 0.951 . S
H1476 C1496 0.950 . S
H1477 C1497 0.950 . S
H1478 C1499 0.950 . S
H1479 C1502 0.950 . S
H1480 C1503 0.950 . S
H1481 C1505 0.950 . S
H1482 C1506 0.950 . S
H1483 C1507 0.951 . S
H1484 C1509 0.951 . S
H1485 C1511 0.950 . S
H1486 C1512 0.950 . S
H1487 C1514 0.950 . S
H1488 C1517 0.950 . S
H1489 C1518 0.950 . S
H1490 C1520 0.950 . S
H1491 C1521 0.950 . S
C1492 H1474 0.951 . S
C1492 C1493 1.366 . S
C1492 C1494 1.388 . S
C1493 C1492 1.366 . S
C1493 C1497 1.385 . S
C1494 H1475 0.951 . S
C1494 C1492 1.388 . S
C1494 C1495 1.366 . S
C1495 C1494 1.366 . S
C1495 C1496 1.414 . S
C1495 C1498 1.499 . S
C1496 H1476 0.950 . S
C1496 C1495 1.414 . S
C1496 C1497 1.374 . S
C1497 H1477 0.950 . S
C1497 C1493 1.385 . S
C1497 C1496 1.374 . S
C1498 C1495 1.499 . S
C1498 C1499 1.373 . S
C1498 C1500 1.389 . S
C1499 H1478 0.950 . S
C1499 C1498 1.373 . S
C1499 C1515 1.377 . S
C1500 C1498 1.389 . S
C1500 C1501 1.524 . S
C1500 C1514 1.377 . S
C1501 C1500 1.524 . S
C1501 C1502 1.397 . S
C1501 C1506 1.363 . S
C1502 H1479 0.950 . S
C1502 C1501 1.397 . S
C1502 C1503 1.334 . S
C1503 H1480 0.950 . S
C1503 C1502 1.334 . S
C1503 C1504 1.287 . S
C1504 C1503 1.287 . S
C1504 C1505 1.524 . S
C1504 H1523 0.913 . S
C1505 H1481 0.950 . S
C1505 C1504 1.524 . S
C1505 C1506 1.415 . S
C1506 H1482 0.950 . S
C1506 C1501 1.363 . S
C1506 C1505 1.415 . S
C1507 H1483 0.951 . S
C1507 C1508 1.366 . S
C1507 C1509 1.388 . S
C1508 C1507 1.366 . S
C1508 C1512 1.385 . S
C1509 H1484 0.951 . S
C1509 C1507 1.388 . S
C1509 C1510 1.366 . S
C1510 C1509 1.366 . S
C1510 C1511 1.414 . S
C1510 C1513 1.499 . S
C1511 H1485 0.950 . S
C1511 C1510 1.414 . S
C1511 C1512 1.374 . S
C1512 H1486 0.950 . S
C1512 C1508 1.385 . S
C1512 C1511 1.374 . S
C1513 C1510 1.499 . S
C1513 C1514 1.373 . S
C1513 C1515 1.389 . S
C1514 H1487 0.950 . S
C1514 C1500 1.377 . S
C1514 C1513 1.373 . S
C1515 C1499 1.377 . S
C1515 C1513 1.389 . S
C1515 C1516 1.524 . S
C1516 C1515 1.524 . S
C1516 C1517 1.397 . S
C1516 C1521 1.363 . S
C1517 H1488 0.950 . S
C1517 C1516 1.397 . S
C1517 C1518 1.334 . S
C1518 H1489 0.950 . S
C1518 C1517 1.334 . S
C1518 C1519 1.287 . S
C1519 C1518 1.287 . S
C1519 C1520 1.524 . S
C1519 H1522 0.999 . S
C1520 H1490 0.950 . S
C1520 C1519 1.524 . S
C1520 C1521 1.415 . S
C1521 H1491 0.950 . S
C1521 C1516 1.363 . S
C1521 C1520 1.415 . S
H1522 C1519 0.999 . S
H1523 C1504 0.913 . S
H1524 C1542 0.951 . S
H1525 C1544 0.951 . S
H1526 C1546 0.950 . S
H1527 C1547 0.950 . S
H1528 C1549 0.950 . S
H1529 C1552 0.950 . S
H1530 C1553 0.950 . S
H1531 C1555 0.950 . S
H1532 C1556 0.950 . S
H1533 C1557 0.951 . S
H1534 C1559 0.951 . S
H1535 C1561 0.950 . S
H1536 C1562 0.950 . S
H1537 C1564 0.950 . S
H1538 C1567 0.950 . S
H1539 C1568 0.950 . S
H1540 C1570 0.950 . S
H1541 C1571 0.950 . S
C1542 H1524 0.951 . S
C1542 C1543 1.366 . S
C1542 C1544 1.388 . S
C1543 C1542 1.366 . S
C1543 C1547 1.385 . S
C1544 H1525 0.951 . S
C1544 C1542 1.388 . S
C1544 C1545 1.366 . S
C1545 C1544 1.366 . S
C1545 C1546 1.414 . S
C1545 C1548 1.499 . S
C1546 H1526 0.950 . S
C1546 C1545 1.414 . S
C1546 C1547 1.374 . S
C1547 H1527 0.950 . S
C1547 C1543 1.385 . S
C1547 C1546 1.374 . S
C1548 C1545 1.499 . S
C1548 C1549 1.373 . S
C1548 C1550 1.389 . S
C1549 H1528 0.950 . S
C1549 C1548 1.373 . S
C1549 C1565 1.377 . S
C1550 C1548 1.389 . S
C1550 C1551 1.524 . S
C1550 C1564 1.377 . S
C1551 C1550 1.524 . S
C1551 C1552 1.397 . S
C1551 C1556 1.363 . S
C1552 H1529 0.950 . S
C1552 C1551 1.397 . S
C1552 C1553 1.334 . S
C1553 H1530 0.950 . S
C1553 C1552 1.334 . S
C1553 C1554 1.287 . S
C1554 C1553 1.287 . S
C1554 C1555 1.524 . S
C1554 H1573 0.913 . S
C1555 H1531 0.950 . S
C1555 C1554 1.524 . S
C1555 C1556 1.415 . S
C1556 H1532 0.950 . S
C1556 C1551 1.363 . S
C1556 C1555 1.415 . S
C1557 H1533 0.951 . S
C1557 C1558 1.366 . S
C1557 C1559 1.388 . S
C1558 C1557 1.366 . S
C1558 C1562 1.385 . S
C1559 H1534 0.951 . S
C1559 C1557 1.388 . S
C1559 C1560 1.366 . S
C1560 C1559 1.366 . S
C1560 C1561 1.414 . S
C1560 C1563 1.499 . S
C1561 H1535 0.950 . S
C1561 C1560 1.414 . S
C1561 C1562 1.374 . S
C1562 H1536 0.950 . S
C1562 C1558 1.385 . S
C1562 C1561 1.374 . S
C1563 C1560 1.499 . S
C1563 C1564 1.373 . S
C1563 C1565 1.389 . S
C1564 H1537 0.950 . S
C1564 C1550 1.377 . S
C1564 C1563 1.373 . S
C1565 C1549 1.377 . S
C1565 C1563 1.389 . S
C1565 C1566 1.524 . S
C1566 C1565 1.524 . S
C1566 C1567 1.397 . S
C1566 C1571 1.363 . S
C1567 H1538 0.950 . S
C1567 C1566 1.397 . S
C1567 C1568 1.334 . S
C1568 H1539 0.950 . S
C1568 C1567 1.334 . S
C1568 C1569 1.287 . S
C1569 C1568 1.287 . S
C1569 C1570 1.524 . S
C1569 H1572 0.999 . S
C1570 H1540 0.950 . S
C1570 C1569 1.524 . S
C1570 C1571 1.415 . S
C1571 H1541 0.950 . S
C1571 C1566 1.363 . S
C1571 C1570 1.415 . S
H1572 C1569 0.999 . S
H1573 C1554 0.913 . S
H1574 C1592 0.951 . S
H1575 C1594 0.951 . S
H1576 C1596 0.950 . S
H1577 C1597 0.950 . S
H1578 C1599 0.950 . S
H1579 C1602 0.950 . S
H1580 C1603 0.950 . S
H1581 C1605 0.950 . S
H1582 C1606 0.950 . S
H1583 C1607 0.951 . S
H1584 C1609 0.951 . S
H1585 C1611 0.950 . S
H1586 C1612 0.950 . S
H1587 C1614 0.950 . S
H1588 C1617 0.950 . S
H1589 C1618 0.950 . S
H1590 C1620 0.950 . S
H1591 C1621 0.950 . S
C1592 H1574 0.951 . S
C1592 C1593 1.366 . S
C1592 C1594 1.388 . S
C1593 C1592 1.366 . S
C1593 C1597 1.385 . S
C1594 H1575 0.951 . S
C1594 C1592 1.388 . S
C1594 C1595 1.366 . S
C1595 C1594 1.366 . S
C1595 C1596 1.414 . S
C1595 C1598 1.499 . S
C1596 H1576 0.950 . S
C1596 C1595 1.414 . S
C1596 C1597 1.374 . S
C1597 H1577 0.950 . S
C1597 C1593 1.385 . S
C1597 C1596 1.374 . S
C1598 C1595 1.499 . S
C1598 C1599 1.373 . S
C1598 C1600 1.389 . S
C1599 H1578 0.950 . S
C1599 C1598 1.373 . S
C1599 C1615 1.377 . S
C1600 C1598 1.389 . S
C1600 C1601 1.524 . S
C1600 C1614 1.377 . S
C1601 C1600 1.524 . S
C1601 C1602 1.397 . S
C1601 C1606 1.363 . S
C1602 H1579 0.950 . S
C1602 C1601 1.397 . S
C1602 C1603 1.334 . S
C1603 H1580 0.950 . S
C1603 C1602 1.334 . S
C1603 C1604 1.287 . S
C1604 C1603 1.287 . S
C1604 C1605 1.524 . S
C1604 H1623 0.913 . S
C1605 H1581 0.950 . S
C1605 C1604 1.524 . S
C1605 C1606 1.415 . S
C1606 H1582 0.950 . S
C1606 C1601 1.363 . S
C1606 C1605 1.415 . S
C1607 H1583 0.951 . S
C1607 C1608 1.366 . S
C1607 C1609 1.388 . S
C1608 C1607 1.366 . S
C1608 C1612 1.385 . S
C1609 H1584 0.951 . S
C1609 C1607 1.388 . S
C1609 C1610 1.366 . S
C1610 C1609 1.366 . S
C1610 C1611 1.414 . S
C1610 C1613 1.499 . S
C1611 H1585 0.950 . S
C1611 C1610 1.414 . S
C1611 C1612 1.374 . S
C1612 H1586 0.950 . S
C1612 C1608 1.385 . S
C1612 C1611 1.374 . S
C1613 C1610 1.499 . S
C1613 C1614 1.373 . S
C1613 C1615 1.389 . S
C1614 H1587 0.950 . S
C1614 C1600 1.377 . S
C1614 C1613 1.373 . S
C1615 C1599 1.377 . S
C1615 C1613 1.389 . S
C1615 C1616 1.524 . S
C1616 C1615 1.524 . S
C1616 C1617 1.397 . S
C1616 C1621 1.363 . S
C1617 H1588 0.950 . S
C1617 C1616 1.397 . S
C1617 C1618 1.334 . S
C1618 H1589 0.950 . S
C1618 C1617 1.334 . S
C1618 C1619 1.287 . S
C1619 C1618 1.287 . S
C1619 C1620 1.524 . S
C1619 H1622 0.999 . S
C1620 H1590 0.950 . S
C1620 C1619 1.524 . S
C1620 C1621 1.415 . S
C1621 H1591 0.950 . S
C1621 C1616 1.363 . S
C1621 C1620 1.415 . S
H1622 C1619 0.999 . S
H1623 C1604 0.913 . S
H1624 C1642 0.951 . S
H1625 C1644 0.951 . S
H1626 C1646 0.950 . S
H1627 C1647 0.950 . S
H1628 C1649 0.950 . S
H1629 C1652 0.950 . S
H1630 C1653 0.950 . S
H1631 C1655 0.950 . S
H1632 C1656 0.950 . S
H1633 C1657 0.951 . S
H1634 C1659 0.951 . S
H1635 C1661 0.950 . S
H1636 C1662 0.950 . S
H1637 C1664 0.950 . S
H1638 C1667 0.950 . S
H1639 C1668 0.950 . S
H1640 C1670 0.950 . S
H1641 C1671 0.950 . S
C1642 H1624 0.951 . S
C1642 C1643 1.366 . S
C1642 C1644 1.388 . S
C1643 C1642 1.366 . S
C1643 C1647 1.385 . S
C1644 H1625 0.951 . S
C1644 C1642 1.388 . S
C1644 C1645 1.366 . S
C1645 C1644 1.366 . S
C1645 C1646 1.414 . S
C1645 C1648 1.499 . S
C1646 H1626 0.950 . S
C1646 C1645 1.414 . S
C1646 C1647 1.374 . S
C1647 H1627 0.950 . S
C1647 C1643 1.385 . S
C1647 C1646 1.374 . S
C1648 C1645 1.499 . S
C1648 C1649 1.373 . S
C1648 C1650 1.389 . S
C1649 H1628 0.950 . S
C1649 C1648 1.373 . S
C1649 C1665 1.377 . S
C1650 C1648 1.389 . S
C1650 C1651 1.524 . S
C1650 C1664 1.377 . S
C1651 C1650 1.524 . S
C1651 C1652 1.397 . S
C1651 C1656 1.363 . S
C1652 H1629 0.950 . S
C1652 C1651 1.397 . S
C1652 C1653 1.334 . S
C1653 H1630 0.950 . S
C1653 C1652 1.334 . S
C1653 C1654 1.287 . S
C1654 C1653 1.287 . S
C1654 C1655 1.524 . S
C1654 H1673 0.913 . S
C1655 H1631 0.950 . S
C1655 C1654 1.524 . S
C1655 C1656 1.415 . S
C1656 H1632 0.950 . S
C1656 C1651 1.363 . S
C1656 C1655 1.415 . S
C1657 H1633 0.951 . S
C1657 C1658 1.366 . S
C1657 C1659 1.388 . S
C1658 C1657 1.366 . S
C1658 C1662 1.385 1_545 S
C1659 H1634 0.951 . S
C1659 C1657 1.388 . S
C1659 C1660 1.366 . S
C1660 C1659 1.366 . S
C1660 C1661 1.414 . S
C1660 C1663 1.499 . S
C1661 H1635 0.950 . S
C1661 C1660 1.414 . S
C1661 C1662 1.374 1_545 S
C1662 H1636 0.950 . S
C1662 C1658 1.385 1_565 S
C1662 C1661 1.374 1_565 S
C1663 C1660 1.499 . S
C1663 C1664 1.373 . S
C1663 C1665 1.389 . S
C1664 H1637 0.950 . S
C1664 C1650 1.377 . S
C1664 C1663 1.373 . S
C1665 C1649 1.377 . S
C1665 C1663 1.389 . S
C1665 C1666 1.524 . S
C1666 C1665 1.524 . S
C1666 C1667 1.397 . S
C1666 C1671 1.363 . S
C1667 H1638 0.950 . S
C1667 C1666 1.397 . S
C1667 C1668 1.334 . S
C1668 H1639 0.950 . S
C1668 C1667 1.334 . S
C1668 C1669 1.287 . S
C1669 C1668 1.287 . S
C1669 C1670 1.524 . S
C1669 H1672 0.999 . S
C1670 H1640 0.950 . S
C1670 C1669 1.524 . S
C1670 C1671 1.415 . S
C1671 H1641 0.950 . S
C1671 C1666 1.363 . S
C1671 C1670 1.415 . S
H1672 C1669 0.999 . S
H1673 C1654 0.913 . S
H1674 C1692 0.951 . S
H1675 C1694 0.951 . S
H1676 C1696 0.950 . S
H1677 C1697 0.950 . S
H1678 C1699 0.950 . S
H1679 C1702 0.950 . S
H1680 C1703 0.950 . S
H1681 C1705 0.950 . S
H1682 C1706 0.950 . S
H1683 C1707 0.951 . S
H1684 C1709 0.951 . S
H1685 C1711 0.950 . S
H1686 C1712 0.950 . S
H1687 C1714 0.950 . S
H1688 C1717 0.950 . S
H1689 C1718 0.950 . S
H1690 C1720 0.950 . S
H1691 C1721 0.950 . S
C1692 H1674 0.951 . S
C1692 C1693 1.366 . S
C1692 C1694 1.388 . S
C1693 C1692 1.366 . S
C1693 C1697 1.385 . S
C1694 H1675 0.951 . S
C1694 C1692 1.388 . S
C1694 C1695 1.366 . S
C1695 C1694 1.366 . S
C1695 C1696 1.414 . S
C1695 C1698 1.499 . S
C1696 H1676 0.950 . S
C1696 C1695 1.414 . S
C1696 C1697 1.374 . S
C1697 H1677 0.950 . S
C1697 C1693 1.385 . S
C1697 C1696 1.374 . S
C1698 C1695 1.499 . S
C1698 C1699 1.373 . S
C1698 C1700 1.389 . S
C1699 H1678 0.950 . S
C1699 C1698 1.373 . S
C1699 C1715 1.377 . S
C1700 C1698 1.389 . S
C1700 C1701 1.524 . S
C1700 C1714 1.377 . S
C1701 C1700 1.524 . S
C1701 C1702 1.397 . S
C1701 C1706 1.363 . S
C1702 H1679 0.950 . S
C1702 C1701 1.397 . S
C1702 C1703 1.334 . S
C1703 H1680 0.950 . S
C1703 C1702 1.334 . S
C1703 C1704 1.287 . S
C1704 C1703 1.287 . S
C1704 C1705 1.524 . S
C1704 H1723 0.913 . S
C1705 H1681 0.950 . S
C1705 C1704 1.524 . S
C1705 C1706 1.415 . S
C1706 H1682 0.950 . S
C1706 C1701 1.363 . S
C1706 C1705 1.415 . S
C1707 H1683 0.951 . S
C1707 C1708 1.366 . S
C1707 C1709 1.388 . S
C1708 C1707 1.366 . S
C1708 C1712 1.385 . S
C1709 H1684 0.951 . S
C1709 C1707 1.388 . S
C1709 C1710 1.366 . S
C1710 C1709 1.366 . S
C1710 C1711 1.414 . S
C1710 C1713 1.499 . S
C1711 H1685 0.950 . S
C1711 C1710 1.414 . S
C1711 C1712 1.374 . S
C1712 H1686 0.950 . S
C1712 C1708 1.385 . S
C1712 C1711 1.374 . S
C1713 C1710 1.499 . S
C1713 C1714 1.373 . S
C1713 C1715 1.389 . S
C1714 H1687 0.950 . S
C1714 C1700 1.377 . S
C1714 C1713 1.373 . S
C1715 C1699 1.377 . S
C1715 C1713 1.389 . S
C1715 C1716 1.524 . S
C1716 C1715 1.524 . S
C1716 C1717 1.397 . S
C1716 C1721 1.363 . S
C1717 H1688 0.950 . S
C1717 C1716 1.397 . S
C1717 C1718 1.334 . S
C1718 H1689 0.950 . S
C1718 C1717 1.334 . S
C1718 C1719 1.287 . S
C1719 C1718 1.287 . S
C1719 C1720 1.524 . S
C1719 H1722 0.999 . S
C1720 H1690 0.950 . S
C1720 C1719 1.524 . S
C1720 C1721 1.415 . S
C1721 H1691 0.950 . S
C1721 C1716 1.363 . S
C1721 C1720 1.415 . S
H1722 C1719 0.999 . S
H1723 C1704 0.913 . S
H1724 C1742 0.951 . S
H1725 C1744 0.951 . S
H1726 C1746 0.950 . S
H1727 C1747 0.950 . S
H1728 C1749 0.950 . S
H1729 C1752 0.950 . S
H1730 C1753 0.950 . S
H1731 C1755 0.950 . S
H1732 C1756 0.950 . S
H1733 C1757 0.951 . S
H1734 C1759 0.951 . S
H1735 C1761 0.950 . S
H1736 C1762 0.950 . S
H1737 C1764 0.950 . S
H1738 C1767 0.950 . S
H1739 C1768 0.950 . S
H1740 C1770 0.950 . S
H1741 C1771 0.950 . S
C1742 H1724 0.951 . S
C1742 C1743 1.366 . S
C1742 C1744 1.388 . S
C1743 C1742 1.366 . S
C1743 C1747 1.385 . S
C1744 H1725 0.951 . S
C1744 C1742 1.388 . S
C1744 C1745 1.366 . S
C1745 C1744 1.366 . S
C1745 C1746 1.414 . S
C1745 C1748 1.499 . S
C1746 H1726 0.950 . S
C1746 C1745 1.414 . S
C1746 C1747 1.374 . S
C1747 H1727 0.950 . S
C1747 C1743 1.385 . S
C1747 C1746 1.374 . S
C1748 C1745 1.499 . S
C1748 C1749 1.373 . S
C1748 C1750 1.389 . S
C1749 H1728 0.950 . S
C1749 C1748 1.373 . S
C1749 C1765 1.377 . S
C1750 C1748 1.389 . S
C1750 C1751 1.524 . S
C1750 C1764 1.377 . S
C1751 C1750 1.524 . S
C1751 C1752 1.397 . S
C1751 C1756 1.363 . S
C1752 H1729 0.950 . S
C1752 C1751 1.397 . S
C1752 C1753 1.334 . S
C1753 H1730 0.950 . S
C1753 C1752 1.334 . S
C1753 C1754 1.287 . S
C1754 C1753 1.287 . S
C1754 C1755 1.524 . S
C1754 H1773 0.913 . S
C1755 H1731 0.950 . S
C1755 C1754 1.524 . S
C1755 C1756 1.415 . S
C1756 H1732 0.950 . S
C1756 C1751 1.363 . S
C1756 C1755 1.415 . S
C1757 H1733 0.951 . S
C1757 C1758 1.366 . S
C1757 C1759 1.388 . S
C1758 C1757 1.366 . S
C1758 C1762 1.385 . S
C1759 H1734 0.951 . S
C1759 C1757 1.388 . S
C1759 C1760 1.366 . S
C1760 C1759 1.366 . S
C1760 C1761 1.414 . S
C1760 C1763 1.499 . S
C1761 H1735 0.950 . S
C1761 C1760 1.414 . S
C1761 C1762 1.374 . S
C1762 H1736 0.950 . S
C1762 C1758 1.385 . S
C1762 C1761 1.374 . S
C1763 C1760 1.499 . S
C1763 C1764 1.373 . S
C1763 C1765 1.389 . S
C1764 H1737 0.950 . S
C1764 C1750 1.377 . S
C1764 C1763 1.373 . S
C1765 C1749 1.377 . S
C1765 C1763 1.389 . S
C1765 C1766 1.524 . S
C1766 C1765 1.524 . S
C1766 C1767 1.397 . S
C1766 C1771 1.363 . S
C1767 H1738 0.950 . S
C1767 C1766 1.397 . S
C1767 C1768 1.334 . S
C1768 H1739 0.950 . S
C1768 C1767 1.334 . S
C1768 C1769 1.287 . S
C1769 C1768 1.287 . S
C1769 C1770 1.524 . S
C1769 H1772 0.999 . S
C1770 H1740 0.950 . S
C1770 C1769 1.524 . S
C1770 C1771 1.415 . S
C1771 H1741 0.950 . S
C1771 C1766 1.363 . S
C1771 C1770 1.415 . S
H1772 C1769 0.999 . S
H1773 C1754 0.913 . S
H1774 C1792 0.951 . S
H1775 C1794 0.951 . S
H1776 C1796 0.950 . S
H1777 C1797 0.950 . S
H1778 C1799 0.950 . S
H1779 C1802 0.950 . S
H1780 C1803 0.950 . S
H1781 C1805 0.950 . S
H1782 C1806 0.950 . S
H1783 C1807 0.951 . S
H1784 C1809 0.951 . S
H1785 C1811 0.950 . S
H1786 C1812 0.950 . S
H1787 C1814 0.950 . S
H1788 C1817 0.950 . S
H1789 C1818 0.950 . S
H1790 C1820 0.950 . S
H1791 C1821 0.950 . S
C1792 H1774 0.951 . S
C1792 C1793 1.366 . S
C1792 C1794 1.388 . S
C1793 C1792 1.366 . S
C1793 C1797 1.385 . S
C1794 H1775 0.951 . S
C1794 C1792 1.388 . S
C1794 C1795 1.366 . S
C1795 C1794 1.366 . S
C1795 C1796 1.414 . S
C1795 C1798 1.499 . S
C1796 H1776 0.950 . S
C1796 C1795 1.414 . S
C1796 C1797 1.374 . S
C1797 H1777 0.950 . S
C1797 C1793 1.385 . S
C1797 C1796 1.374 . S
C1798 C1795 1.499 . S
C1798 C1799 1.373 . S
C1798 C1800 1.389 . S
C1799 H1778 0.950 . S
C1799 C1798 1.373 . S
C1799 C1815 1.377 . S
C1800 C1798 1.389 . S
C1800 C1801 1.524 . S
C1800 C1814 1.377 . S
C1801 C1800 1.524 . S
C1801 C1802 1.397 . S
C1801 C1806 1.363 . S
C1802 H1779 0.950 . S
C1802 C1801 1.397 . S
C1802 C1803 1.334 . S
C1803 H1780 0.950 . S
C1803 C1802 1.334 . S
C1803 C1804 1.287 . S
C1804 C1803 1.287 . S
C1804 C1805 1.524 . S
C1804 H1823 0.913 . S
C1805 H1781 0.950 . S
C1805 C1804 1.524 . S
C1805 C1806 1.415 . S
C1806 H1782 0.950 . S
C1806 C1801 1.363 . S
C1806 C1805 1.415 . S
C1807 H1783 0.951 . S
C1807 C1808 1.366 1_565 S
C1807 C1809 1.388 1_565 S
C1808 C1807 1.366 1_545 S
C1808 C1812 1.385 . S
C1809 H1784 0.951 . S
C1809 C1807 1.388 1_545 S
C1809 C1810 1.366 . S
C1810 C1809 1.366 . S
C1810 C1811 1.414 . S
C1810 C1813 1.499 . S
C1811 H1785 0.950 . S
C1811 C1810 1.414 . S
C1811 C1812 1.374 . S
C1812 H1786 0.950 . S
C1812 C1808 1.385 . S
C1812 C1811 1.374 . S
C1813 C1810 1.499 . S
C1813 C1814 1.373 . S
C1813 C1815 1.389 . S
C1814 H1787 0.950 . S
C1814 C1800 1.377 . S
C1814 C1813 1.373 . S
C1815 C1799 1.377 . S
C1815 C1813 1.389 . S
C1815 C1816 1.524 . S
C1816 C1815 1.524 . S
C1816 C1817 1.397 . S
C1816 C1821 1.363 . S
C1817 H1788 0.950 . S
C1817 C1816 1.397 . S
C1817 C1818 1.334 . S
C1818 H1789 0.950 . S
C1818 C1817 1.334 . S
C1818 C1819 1.287 . S
C1819 C1818 1.287 . S
C1819 C1820 1.524 . S
C1819 H1822 0.999 . S
C1820 H1790 0.950 . S
C1820 C1819 1.524 . S
C1820 C1821 1.415 . S
C1821 H1791 0.950 . S
C1821 C1816 1.363 . S
C1821 C1820 1.415 . S
H1822 C1819 0.999 . S
H1823 C1804 0.913 . S
C243 C203 1.501 . S
C258 C7 1.501 . S
C293 C39 1.496 . S
C308 C11 1.496 . S
C343 C165 1.496 . S
C358 C25 1.496 . S
C393 C21 1.501 . S
C408 C105 1.501 . S
C443 C35 1.501 . S
C458 C175 1.501 . S
C493 C137 1.496 . S
C508 C53 1.496 . S
C543 C49 1.501 . S
C558 C77 1.501 . S
C593 C147 1.501 . S
C608 C63 1.501 . S
C643 C67 1.496 . S
C658 C95 1.496 . S
C693 C221 1.496 . S
C708 C81 1.496 . S
C743 C119 1.501 . S
C758 C91 1.501 . S
C793 C193 1.496 . S
C808 C109 1.496 . S
C843 C123 1.496 . S
C858 C151 1.496 . S
C893 C217 1.501 . S
C908 C133 1.501 . S
C943 C161 1.501 . S
C958 C189 1.501 . S
C993 C207 1.496 . S
C1008 C179 1.496 . S
C1043 C78 1.087 . S
C1058 C13 1.072 1_565 S
C1093 C8 1.086 . S
C1108 C83 1.071 . S
C1143 C22 1.087 . S
C1158 C69 1.072 . S
C1193 C64 1.087 . S
C1208 C27 1.072 1_565 S
C1243 C106 1.087 . S
C1258 C41 1.072 1_545 S
C1293 C111 1.071 . S
C1308 C36 1.086 . S
C1343 C97 1.073 . S
C1358 C50 1.087 . S
C1393 C55 1.072 1_545 S
C1408 C92 1.087 . S
C1443 C190 1.087 . S
C1458 C125 1.073 1_565 S
C1493 C120 1.087 . S
C1508 C195 1.071 . S
C1543 C134 1.087 . S
C1558 C181 1.071 . S
C1593 C176 1.086 . S
C1608 C139 1.071 1_565 S
C1643 C218 1.087 . S
C1658 C153 1.073 1_545 S
C1693 C223 1.071 . S
C1708 C148 1.086 . S
C1743 C162 1.087 . S
C1758 C209 1.073 . S
C1793 C204 1.086 . S
C1808 C167 1.071 1_545 S
