# Generated by pormake.
# Topology smc, (6)-cn, num edge types: 1
# Building blocks:
#     Node 0, Type 0, BuildingBlock: LEVNOQ01_clean_sbu_1, # of connection points: 6
#     Node 1, Type 0, BuildingBlock: LEVNOQ01_clean_sbu_1, # of connection points: 6
#     Node 2, Type 0, BuildingBlock: LEVNOQ01_clean_sbu_1, # of connection points: 6
#     Node 3, Type 0, BuildingBlock: LEVNOQ01_clean_sbu_1, # of connection points: 6
#     Node 4, Type 0, BuildingBlock: LEVNOQ01_clean_sbu_1, # of connection points: 6
#     Node 5, Type 0, BuildingBlock: LEVNOQ01_clean_sbu_1, # of connection points: 6
#     Node 6, Type 0, BuildingBlock: LEVNOQ01_clean_sbu_1, # of connection points: 6
#     Node 7, Type 0, BuildingBlock: LEVNOQ01_clean_sbu_1, # of connection points: 6
#     Node 8, Type 0, BuildingBlock: LEVNOQ01_clean_sbu_1, # of connection points: 6
#     Edge 9, Type (0, 0), BuildingBlock: EZIPEK_clean_linker_0, # of connection points: 2
#     Edge 10, Type (0, 0), BuildingBlock: EZIPEK_clean_linker_0, # of connection points: 2
#     Edge 11, Type (0, 0), BuildingBlock: EZIPEK_clean_linker_0, # of connection points: 2
#     Edge 12, Type (0, 0), BuildingBlock: EZIPEK_clean_linker_0, # of connection points: 2
#     Edge 13, Type (0, 0), BuildingBlock: EZIPEK_clean_linker_0, # of connection points: 2
#     Edge 14, Type (0, 0), BuildingBlock: EZIPEK_clean_linker_0, # of connection points: 2
#     Edge 15, Type (0, 0), BuildingBlock: EZIPEK_clean_linker_0, # of connection points: 2
#     Edge 16, Type (0, 0), BuildingBlock: EZIPEK_clean_linker_0, # of connection points: 2
#     Edge 17, Type (0, 0), BuildingBlock: EZIPEK_clean_linker_0, # of connection points: 2
#     Edge 18, Type (0, 0), BuildingBlock: EZIPEK_clean_linker_0, # of connection points: 2
#     Edge 19, Type (0, 0), BuildingBlock: EZIPEK_clean_linker_0, # of connection points: 2
#     Edge 20, Type (0, 0), BuildingBlock: EZIPEK_clean_linker_0, # of connection points: 2
#     Edge 21, Type (0, 0), BuildingBlock: EZIPEK_clean_linker_0, # of connection points: 2
#     Edge 22, Type (0, 0), BuildingBlock: EZIPEK_clean_linker_0, # of connection points: 2
#     Edge 23, Type (0, 0), BuildingBlock: EZIPEK_clean_linker_0, # of connection points: 2
#     Edge 24, Type (0, 0), BuildingBlock: EZIPEK_clean_linker_0, # of connection points: 2
#     Edge 25, Type (0, 0), BuildingBlock: EZIPEK_clean_linker_0, # of connection points: 2
#     Edge 26, Type (0, 0), BuildingBlock: EZIPEK_clean_linker_0, # of connection points: 2
#     Edge 27, Type (0, 0), BuildingBlock: EZIPEK_clean_linker_0, # of connection points: 2
#     Edge 28, Type (0, 0), BuildingBlock: EZIPEK_clean_linker_0, # of connection points: 2
#     Edge 29, Type (0, 0), BuildingBlock: EZIPEK_clean_linker_0, # of connection points: 2
#     Edge 30, Type (0, 0), BuildingBlock: EZIPEK_clean_linker_0, # of connection points: 2
#     Edge 31, Type (0, 0), BuildingBlock: EZIPEK_clean_linker_0, # of connection points: 2
#     Edge 32, Type (0, 0), BuildingBlock: EZIPEK_clean_linker_0, # of connection points: 2
#     Edge 33, Type (0, 0), BuildingBlock: EZIPEK_clean_linker_0, # of connection points: 2
#     Edge 34, Type (0, 0), BuildingBlock: EZIPEK_clean_linker_0, # of connection points: 2
#     Edge 35, Type (0, 0), BuildingBlock: EZIPEK_clean_linker_0, # of connection points: 2
# Relax obj value: 0.150
# Max RMSD: 0.230
# Mean RMSD: 0.230
data_MOF--net-smc--node1-LEVNOQ01_clean_sbu_1--edge1-EZIPEK_clean_linker_0
_symmetry_space_group_name_H-M    P1
_symmetry_Int_Tables_number       1
_symmetry_cell_setting            triclinic
loop_
_symmetry_equiv_pos_as_xyz
'x, y, z'
_cell_length_a     22.592738
_cell_length_b     22.490049
_cell_length_c     32.379705
_cell_angle_alpha  89.88575
_cell_angle_beta   89.810385
_cell_angle_gamma 120.03237
loop_
_atom_site_label
_atom_site_type_symbol
_atom_site_fract_x
_atom_site_fract_y
_atom_site_fract_z
_atom_type_partial_charge
O0 O 0.90861 0.31019 0.07995 0.0
Mg1 Mg 0.95117 0.41651 0.08652 0.0
O2 O 0.91514 0.32294 0.0125 0.0
Mg3 Mg -0.00316 0.43948 0.00252 0.0
O4 O 0.04938 0.45846 0.07072 0.0
O5 O 0.01064 0.45296 0.13572 0.0
O6 O 0.06161 0.5547 0.99998 0.0
O7 O 0.09116 0.42798 0.98645 0.0
Mg8 Mg 0.04913 0.49173 0.92116 0.0
O9 O 0.95064 0.41816 0.93352 0.0
O10 O 0.09057 0.59607 0.93741 0.0
O11 O 0.11114 0.44793 0.91973 0.0
O12 O -0.00875 0.46744 0.87144 0.0
C13 C 0.88462 0.47731 0.04238 0.0
C14 C 0.88573 0.28675 0.04461 0.0
C15 C 0.06016 0.46522 0.11075 0.0
C16 C 0.09087 0.60541 0.9758 0.0
C17 C 0.12827 0.43681 0.95463 0.0
C18 C 0.94209 0.42127 0.89369 0.0
O19 O 0.89551 0.46745 0.07913 0.0
O20 O 0.91204 0.46356 0.01274 0.0
O21 O 0.64915 0.71036 0.98331 0.0
Mg22 Mg 0.56048 0.62508 0.95928 0.0
O23 O 0.56886 0.66157 0.02775 0.0
Mg24 Mg 0.54332 0.54482 0.01419 0.0
O25 O 0.57262 0.54482 0.94249 0.0
O26 O 0.57332 0.62205 0.89819 0.0
O27 O 0.50456 0.42934 0.00524 0.0
O28 O 0.64796 0.56129 0.02785 0.0
Mg29 Mg 0.51595 0.45051 0.0965 0.0
O30 O 0.5199 0.53819 0.08215 0.0
O31 O 0.43603 0.37907 0.05817 0.0
O32 O 0.61747 0.47733 0.07487 0.0
O33 O 0.50147 0.50376 0.14632 0.0
C34 C 0.41609 0.55086 0.98441 0.0
C35 C 0.61457 0.7172 0.01123 0.0
C36 C 0.58083 0.56978 0.90524 0.0
C37 C 0.45113 0.37824 0.02043 0.0
C38 C 0.66098 0.52204 0.04971 0.0
C39 C 0.51467 0.5518 0.12002 0.0
O40 O 0.45977 0.60969 0.97091 0.0
O41 O 0.43634 0.51308 1.00001 0.0
O42 O 0.284 0.85582 0.95018 0.0
Mg43 Mg 0.38506 0.8909 0.93298 0.0
O44 O 0.32319 0.91317 0.00819 0.0
Mg45 Mg 0.43731 -0.00446 0.00651 0.0
O46 O 0.43861 -0.00397 0.93563 0.0
O47 O 0.41811 0.93852 0.87673 0.0
O48 O 0.55474 0.07222 0.00971 0.0
O49 O 0.40867 0.0815 0.99809 0.0
Mg50 Mg 0.46853 0.09659 0.08125 0.0
O51 O 0.42273 -0.00725 0.07642 0.0
O52 O 0.56907 0.14322 0.06086 0.0
O53 O 0.40923 0.13389 0.05579 0.0
O54 O 0.4409 0.04629 0.13679 0.0
C55 C 0.47042 0.8641 0.99266 0.0
C56 C 0.2741 0.86845 0.98678 0.0
C57 C 0.43932 -0.00381 0.89558 0.0
C58 C 0.59369 0.12189 0.03326 0.0
C59 C 0.39847 0.1249 0.01745 0.0
C60 C 0.4136 -0.01017 0.11603 0.0
O61 O 0.432 0.8409 0.96142 0.0
O62 O 0.47604 0.91612 0.01209 0.0
O63 O 0.80953 0.82093 0.27752 0.0
Mg64 Mg 0.74216 0.85695 0.26338 0.0
O65 O 0.74665 0.75383 0.32905 0.0
Mg66 Mg 0.66644 0.78906 0.33384 0.0
O67 O 0.64585 0.77659 0.26112 0.0
O68 O 0.70437 0.84111 0.20612 0.0
O69 O 0.59294 0.82994 0.3336 0.0
O70 O 0.57321 0.6776 0.33569 0.0
Mg71 Mg 0.59406 0.78298 0.41843 0.0
O72 O 0.68265 0.78898 0.40452 0.0
O73 O 0.58523 0.86539 0.39551 0.0
O74 O 0.52571 0.68513 0.39471 0.0
O75 O 0.65111 0.79266 0.46946 0.0
C76 C 0.76358 0.9589 0.31908 0.0
C77 C 0.79823 0.77584 0.30487 0.0
C78 C 0.65157 0.78787 0.22132 0.0
C79 C 0.57587 0.86393 0.35695 0.0
C80 C 0.5241 0.65277 0.36207 0.0
C81 C 0.6929 0.78864 0.44394 0.0
O82 O 0.7599 0.95164 0.28063 0.0
O83 O 0.74687 0.9068 0.34204 0.0
O84 O 0.2949 0.03588 0.29272 0.0
Mg85 Mg 0.20274 0.94222 0.28181 0.0
O86 O 0.23324 -0.0023 0.34733 0.0
Mg87 Mg 0.21312 0.88331 0.34572 0.0
O88 O 0.22509 0.86759 0.27279 0.0
O89 O 0.20342 0.92316 0.2222 0.0
O90 O 0.17602 0.76674 0.34835 0.0
O91 O 0.326 0.91948 0.34606 0.0
Mg92 Mg 0.25875 0.83504 0.43067 0.0
O93 O 0.21604 0.89304 0.41551 0.0
O94 O 0.19516 0.73565 0.40927 0.0
O95 O 0.35631 0.88507 0.40251 0.0
O96 O 0.23394 0.87674 0.48049 0.0
C97 C 0.06838 0.86536 0.32321 0.0
C98 C 0.26817 0.04781 0.32298 0.0
C99 C 0.22586 0.88321 0.23384 0.0
C100 C 0.1679 0.72006 0.37385 0.0
C101 C 0.37031 0.91487 0.36757 0.0
C102 C 0.21774 0.9089 0.45394 0.0
O103 O 0.10055 0.91472 0.29815 0.0
O104 O 0.09988 0.84269 0.34429 0.0
O105 O 0.9417 0.20464 0.28011 0.0
Mg106 Mg 0.04408 0.23969 0.26344 0.0
O107 O -0.01747 0.25485 0.33932 0.0
Mg108 Mg 0.10043 0.31789 0.33599 0.0
O109 O 0.11335 0.34461 0.26406 0.0
O110 O 0.06844 0.28176 0.20703 0.0
O111 O 0.21825 0.37662 0.33793 0.0
O112 O 0.09383 0.42246 0.3316 0.0
Mg113 Mg 0.10386 0.36735 0.38638 0.0
O114 O 0.08628 0.27781 0.40928 0.0
O115 O 0.20396 0.44911 0.37291 0.0
O116 O 0.02047 0.38684 0.38137 0.0
O117 O 0.11824 0.3699 0.44796 0.0
C118 C 0.10918 0.17866 0.30984 0.0
C119 C 0.9317 0.21686 0.31676 0.0
C120 C 0.10854 0.34038 0.22385 0.0
C121 C 0.24478 0.43336 0.35644 0.0
C122 C 0.05361 0.4319 0.35444 0.0
C123 C 0.0987 0.30584 0.44557 0.0
O124 O 0.08463 0.17499 0.27433 0.0
O125 O 0.1142 0.22485 0.33404 0.0
O126 O 0.47475 0.16527 0.62694 0.0
Mg127 Mg 0.39309 0.18313 0.61061 0.0
O128 O 0.40008 0.07009 0.65779 0.0
Mg129 Mg 0.33397 0.11902 0.66682 0.0
O130 O 0.30032 0.10483 0.59523 0.0
O131 O 0.3796 0.17424 0.54985 0.0
O132 O 0.27218 0.17228 0.6752 0.0
O133 O 0.2326 0.00944 0.66059 0.0
Mg134 Mg 0.27306 0.06081 0.72506 0.0
O135 O 0.37154 0.12791 0.73762 0.0
O136 O 0.19559 0.08793 0.71217 0.0
O137 O 0.25989 0.96296 0.70954 0.0
O138 O 0.29152 0.07005 0.7861 0.0
C139 C 0.42019 0.28055 0.66335 0.0
C140 C 0.46012 0.1091 0.64435 0.0
C141 C 0.31847 0.12494 0.55723 0.0
C142 C 0.21404 0.14288 0.69204 0.0
C143 C 0.21964 0.95601 0.68102 0.0
C144 C 0.35483 0.1074 0.77568 0.0
O145 O 0.39054 0.27062 0.62925 0.0
O146 O 0.42681 0.23147 0.67753 0.0
O147 O 0.845 0.33853 0.60819 0.0
Mg148 Mg 0.81554 0.2438 0.57448 0.0
O149 O 0.91761 0.34033 0.65573 0.0
Mg150 Mg 0.87241 0.22617 0.6596 0.0
O151 O 0.89064 0.22477 0.59127 0.0
O152 O 0.87115 0.23343 0.52562 0.0
O153 O 0.81697 0.11218 0.65746 0.0
O154 O -0.01948 0.22925 0.66283 0.0
Mg155 Mg 0.90616 0.19378 0.72723 0.0
O156 O 0.85241 0.24262 0.7312 0.0
O157 O 0.85814 0.08773 0.71177 0.0
O158 O 0.0118 0.26153 0.72576 0.0
O159 O 0.88183 0.20033 0.78519 0.0
C160 C 0.71705 0.15745 0.63395 0.0
C161 C 0.8884 0.36852 0.63707 0.0
C162 C 0.90645 0.22394 0.55324 0.0
C163 C 0.82011 0.06885 0.68038 0.0
C164 C 0.02521 0.24639 0.69116 0.0
C165 C 0.85677 0.23663 0.771 0.0
O166 O 0.72694 0.15467 0.59571 0.0
O167 O 0.76302 0.20742 0.65442 0.0
O168 O 0.76919 0.811 0.72112 0.0
Mg169 Mg 0.81508 0.75841 0.74587 0.0
O170 O 0.748 0.75581 0.66155 0.0
Mg171 Mg 0.77114 0.66838 0.66754 0.0
O172 O 0.75202 0.65534 0.73892 0.0
O173 O 0.77967 0.7072 0.80042 0.0
O174 O 0.79964 0.5822 0.68086 0.0
O175 O 0.6579 0.59613 0.66479 0.0
Mg176 Mg 0.77216 0.59916 0.61251 0.0
O177 O 0.7829 0.68861 0.59276 0.0
O178 O 0.86739 0.61205 0.6284 0.0
O179 O 0.67737 0.5185 0.6377 0.0
O180 O 0.76751 0.60252 0.55116 0.0
C181 C 0.93344 0.77799 0.69463 0.0
C182 C 0.74898 0.80246 0.68407 0.0
C183 C 0.74453 0.6523 0.77892 0.0
C184 C 0.85229 0.58604 0.66386 0.0
C185 C 0.63737 0.53437 0.65568 0.0
C186 C 0.7809 0.66492 0.5556 0.0
O187 O 0.91652 0.7934 0.72856 0.0
O188 O 0.88793 0.73809 0.66959 0.0
C189 C 0.29314 0.4681 0.00297 0.0
C190 C 0.34238 0.52176 0.97724 0.0
C191 C 0.25085 0.52436 0.94083 0.0
C192 C 0.2018 0.46248 0.96082 0.0
N193 N 0.18187 0.36562 0.00296 0.0
N194 N 0.36195 0.57716 0.90991 0.0
C195 C 0.22453 0.43091 0.98944 0.0
C196 C 0.3198 0.54279 0.94242 0.0
N197 N 0.31014 0.45472 0.04092 0.0
N198 N 0.23364 0.56849 0.92274 0.0
H199 H 0.4107 0.58371 0.90635 0.0
H200 H 0.344 0.58963 0.88349 0.0
H201 H 0.18572 0.56394 0.92579 0.0
H202 H 0.27042 0.61543 0.91012 0.0
H203 H 0.27383 0.41835 0.06102 0.0
H204 H 0.35777 0.48561 0.05439 0.0
H205 H 0.19903 0.33902 0.02121 0.0
H206 H 0.13145 0.33672 0.99284 0.0
C207 C 0.53298 0.82278 0.04011 0.0
C208 C 0.52006 0.83944 0.99991 0.0
C209 C 0.59735 0.80303 0.9699 0.0
C210 C 0.60106 0.77622 0.00903 0.0
N211 N 0.59812 0.78589 0.08233 0.0
N212 N 0.54636 0.85252 0.92664 0.0
C213 C 0.57662 0.79405 0.04453 0.0
C214 C 0.55411 0.83147 0.96492 0.0
N215 N 0.50026 0.83003 0.07366 0.0
N216 N 0.63957 0.80701 0.93829 0.0
H217 H 0.53142 0.88903 0.92208 0.0
H218 H 0.55402 0.83313 0.89921 0.0
H219 H 0.6828 0.80266 0.94287 0.0
H220 H 0.63961 0.82566 0.90888 0.0
H221 H 0.50284 0.81341 0.10326 0.0
H222 H 0.46641 0.84863 0.0717 0.0
H223 H 0.58809 0.80303 0.10987 0.0
H224 H 0.63312 0.76873 0.08516 0.0
C225 C 0.22238 0.76546 0.03013 0.0
C226 C 0.21292 0.81404 0.00748 0.0
C227 C 0.10731 0.72372 0.97809 0.0
C228 C 0.12513 0.67526 0.99291 0.0
N229 N 0.18688 0.64615 0.0428 0.0
N230 N 0.13613 0.84375 0.97609 0.0
C231 C 0.17754 0.6946 0.0229 0.0
C232 C 0.15065 0.79407 0.98757 0.0
N233 N 0.27928 0.7873 0.05405 0.0
N234 N 0.05066 0.70248 0.95405 0.0
H235 H 0.16962 0.89532 0.98311 0.0
H236 H 0.09032 0.83401 0.96275 0.0
H237 H 0.01575 0.65069 0.94884 0.0
H238 H 0.03817 0.73566 0.93908 0.0
H239 H 0.29584 0.7555 0.06645 0.0
H240 H 0.31142 0.83866 0.06131 0.0
H241 H 0.21717 0.65625 0.06887 0.0
H242 H 0.16257 0.59454 0.03479 0.0
C243 C 0.44367 0.22751 0.97134 0.0
C244 C 0.38862 0.1766 0.99523 0.0
C245 C 0.35207 0.25863 0.01309 0.0
C246 C 0.416 0.31142 0.99822 0.0
N247 N 0.49554 0.3419 0.94159 0.0
N248 N 0.27744 0.13566 0.0246 0.0
C249 C 0.45294 0.2946 0.96986 0.0
C250 C 0.33746 0.1895 0.01056 0.0
N251 N 0.49028 0.21391 0.95327 0.0
N252 N 0.30753 0.2757 0.03057 0.0
H253 H 0.26752 0.08515 0.02223 0.0
H254 H 0.23694 0.14014 0.03632 0.0
H255 H 0.31675 0.32608 0.02967 0.0
H256 H 0.26157 0.24088 0.04465 0.0
H257 H 0.53648 0.25197 0.94086 0.0
H258 H 0.48384 0.16483 0.95164 0.0
H259 H 0.52099 0.3309 0.91862 0.0
H260 H 0.49754 0.3889 0.93758 0.0
C261 C 0.71163 0.15678 0.00121 0.0
C262 C 0.66866 0.14883 0.0354 0.0
C263 C 0.76644 0.22898 0.07463 0.0
C264 C 0.8119 0.23351 0.04255 0.0
N265 N 0.82426 0.17705 0.98271 0.0
N266 N 0.66559 0.14669 0.11039 0.0
C267 C 0.78366 0.18977 0.00788 0.0
C268 C 0.69974 0.17376 0.07417 0.0
N269 N 0.68576 0.13644 0.96258 0.0
N270 N 0.7824 0.27982 0.10288 0.0
H271 H 0.61788 0.10188 0.11138 0.0
H272 H 0.68908 0.16423 0.13901 0.0
H273 H 0.82399 0.32926 0.09995 0.0
H274 H 0.74716 0.27626 0.12511 0.0
H275 H 0.71734 0.14722 0.93687 0.0
H276 H 0.63407 0.11444 0.95568 0.0
H277 H 0.80404 0.1397 0.95972 0.0
H278 H 0.87661 0.1986 0.98795 0.0
C279 C 0.84347 0.56022 0.03345 0.0
C280 C 0.82987 0.49169 0.03379 0.0
C281 C 0.70832 0.44908 0.02784 0.0
C282 C 0.72052 0.51548 0.03852 0.0
N283 N 0.79958 0.63681 0.04758 0.0
N284 N 0.75115 0.36995 0.02811 0.0
C285 C 0.78814 0.5724 0.03927 0.0
C286 C 0.76283 0.43578 0.02945 0.0
N287 N 0.90882 0.61282 0.02735 0.0
N288 N 0.64512 0.39965 0.0148 0.0
H289 H 0.79037 0.35835 0.02644 0.0
H290 H 0.70265 0.32674 0.0307 0.0
H291 H 0.60475 0.40897 0.01096 0.0
H292 H 0.63479 0.35222 0.00328 0.0
H293 H 0.92133 0.66365 0.02277 0.0
H294 H 0.94975 0.60425 0.02293 0.0
H295 H 0.84801 0.67897 0.05239 0.0
H296 H 0.76024 0.64761 0.05186 0.0
C297 C 0.89261 0.76252 0.27697 0.0
C298 C 0.85272 0.75875 0.31154 0.0
C299 C 0.95214 0.80818 0.35593 0.0
C300 C -0.00616 0.82336 0.32025 0.0
N301 N 0.00471 0.79315 0.24996 0.0
N302 N 0.83851 0.73661 0.38408 0.0
C303 C 0.96437 0.7932 0.28157 0.0
C304 C 0.88052 0.76798 0.35133 0.0
N305 N 0.86106 0.73894 0.23987 0.0
N306 N -0.01981 0.83463 0.3935 0.0
H307 H 0.78679 0.70183 0.37953 0.0
H308 H 0.85656 0.73739 0.41375 0.0
H309 H 0.03271 0.86546 0.39797 0.0
H310 H 0.95082 0.83 0.4195 0.0
H311 H 0.88647 0.74573 0.21189 0.0
H312 H 0.80779 0.71216 0.23779 0.0
H313 H -0.01396 0.76952 0.22165 0.0
H314 H 0.05714 0.81239 0.25301 0.0
C315 C 0.19495 0.16008 0.35124 0.0
C316 C 0.14412 0.13884 0.31965 0.0
C317 C 0.19563 0.08156 0.2837 0.0
C318 C 0.24183 0.09563 0.31666 0.0
N319 N 0.28936 0.15147 0.38056 0.0
N320 N 0.08018 0.05205 0.2687 0.0
C321 C 0.24279 0.13636 0.34999 0.0
C322 C 0.13928 0.09069 0.29004 0.0
N323 N 0.1968 0.20103 0.38286 0.0
N324 N 0.20608 0.06193 0.24579 0.0
H325 H 0.03529 0.05253 0.27575 0.0
H326 H 0.07381 0.01326 0.24844 0.0
H327 H 0.25151 0.06385 0.2374 0.0
H328 H 0.17409 0.05451 0.2208 0.0
H329 H 0.23927 0.22938 0.40146 0.0
H330 H 0.15432 0.20393 0.39216 0.0
H331 H 0.2893 0.17511 0.40806 0.0
H332 H 0.32844 0.13978 0.37774 0.0
C333 C 0.80709 0.14026 0.31015 0.0
C334 C 0.86462 0.16982 0.33602 0.0
C335 C 0.83066 0.05943 0.368 0.0
C336 C 0.78318 0.02793 0.33539 0.0
N337 N 0.70289 0.0369 0.29044 0.0
N338 N 0.90078 0.16607 0.40493 0.0
C339 C 0.76284 0.06821 0.31186 0.0
C340 C 0.86551 0.13215 0.37062 0.0
N341 N 0.79925 0.18067 0.28183 0.0
N342 N 0.84618 0.02184 0.39433 0.0
H343 H 0.92475 0.2195 0.40698 0.0
H344 H 0.89846 0.1408 0.43235 0.0
H345 H 0.82024 0.96847 0.3949 0.0
H346 H 0.88653 0.04433 0.41511 0.0
H347 H 0.76253 0.16184 0.25867 0.0
H348 H 0.83188 0.23389 0.2816 0.0
H349 H 0.68368 0.06352 0.27421 0.0
H350 H 0.66928 0.98401 0.29238 0.0
C351 C 0.10724 0.61473 0.32542 0.0
C352 C 0.12029 0.64563 0.36534 0.0
C353 C 0.0786 0.53457 0.39797 0.0
C354 C 0.06465 0.5023 0.3587 0.0
N355 N 0.04245 0.50868 0.2867 0.0
N356 N 0.07787 0.6258 0.43573 0.0
C357 C 0.07109 0.54148 0.32285 0.0
C358 C 0.09183 0.60233 0.40024 0.0
N359 N 0.13085 0.65342 0.29028 0.0
N360 N 0.08579 0.50452 0.43284 0.0
H361 H 0.08135 0.67381 0.43738 0.0
H362 H 0.05442 0.59399 0.46123 0.0
H363 H 0.08379 0.45749 0.43346 0.0
H364 H 0.10246 0.53104 0.46068 0.0
H365 H 0.12754 0.63205 0.26133 0.0
H366 H 0.15678 0.70666 0.28947 0.0
H367 H 0.03978 0.53408 0.26044 0.0
H368 H 0.01535 0.45519 0.2845 0.0
C369 C 0.37243 0.47286 0.33968 0.0
C370 C 0.3202 0.48299 0.35823 0.0
C371 C 0.40035 0.60421 0.36272 0.0
C372 C 0.45549 0.59475 0.35172 0.0
N373 N 0.49519 0.51659 0.33391 0.0
N374 N 0.30649 0.5545 0.40938 0.0
C375 C 0.44215 0.52807 0.34085 0.0
C376 C 0.34021 0.54748 0.37634 0.0
N377 N 0.3574 0.41159 0.32241 0.0
N378 N 0.40654 0.66776 0.36287 0.0
H379 H 0.2709 0.51257 0.42677 0.0
H380 H 0.32285 0.60191 0.42347 0.0
H381 H 0.4501 0.71114 0.35157 0.0
H382 H 0.36544 0.67484 0.37023 0.0
H383 H 0.39195 0.40599 0.30374 0.0
H384 H 0.31119 0.36632 0.32636 0.0
H385 H 0.48879 0.46767 0.33036 0.0
H386 H 0.54608 0.55594 0.33443 0.0
C387 C 0.42131 0.86433 0.32277 0.0
C388 C 0.43009 0.92135 0.34623 0.0
C389 C 0.54964 0.95874 0.35758 0.0
C390 C 0.53757 0.89574 0.34035 0.0
N391 N 0.47488 0.80789 0.28913 0.0
N392 N 0.50391 0.03419 0.37241 0.0
C393 C 0.47812 0.85546 0.31653 0.0
C394 C 0.49541 0.97317 0.35853 0.0
N395 N 0.35767 0.81528 0.3099 0.0
N396 N 0.61156 0.00202 0.37495 0.0
H397 H 0.46338 0.04408 0.37287 0.0
H398 H 0.55097 0.07609 0.38022 0.0
H399 H 0.65232 -0.00733 0.37323 0.0
H400 H 0.62247 0.0461 0.39128 0.0
H401 H 0.34673 0.76769 0.29834 0.0
H402 H 0.31443 0.82028 0.31253 0.0
H403 H 0.43443 0.78147 0.26877 0.0
H404 H 0.51584 0.80069 0.28284 0.0
C405 C 0.5953 0.06233 0.62693 0.0
C406 C 0.6467 0.11574 0.65081 0.0
C407 C 0.56386 0.13686 0.68476 0.0
C408 C 0.51569 0.09581 0.65428 0.0
N409 N 0.47628 0.00424 0.60481 0.0
N410 N 0.66936 0.16347 0.7191 0.0
C411 C 0.52786 0.05204 0.62865 0.0
C412 C 0.62749 0.13957 0.68562 0.0
N413 N 0.61194 0.02275 0.60314 0.0
N414 N 0.55083 0.17673 0.71075 0.0
H415 H 0.71355 0.15981 0.72097 0.0
H416 H 0.6556 0.17768 0.74653 0.0
H417 H 0.50418 0.17572 0.71112 0.0
H418 H 0.58744 0.21286 0.7305 0.0
H419 H 0.57784 0.98301 0.5843 0.0
H420 H 0.66041 0.0277 0.60464 0.0
H421 H 0.48183 0.97223 0.58398 0.0
H422 H 0.42654 -0.00417 0.60671 0.0
C423 C 0.94781 0.49599 0.6461 0.0
C424 C 0.8925 0.42986 0.65573 0.0
C425 C 0.83831 0.48071 0.69664 0.0
C426 C 0.88178 0.54358 0.67713 0.0
N427 N -0.00788 0.61973 0.64812 0.0
N428 N 0.78756 0.35788 0.69359 0.0
C429 C 0.94227 0.55413 0.65725 0.0
C430 C 0.83878 0.42175 0.68249 0.0
N431 N 0.00315 0.50233 0.62494 0.0
N432 N 0.79792 0.47809 0.72883 0.0
H433 H 0.78933 0.31364 0.68703 0.0
H434 H 0.74297 0.34891 0.70862 0.0
H435 H 0.80201 0.52266 0.74145 0.0
H436 H 0.76768 0.43386 0.74613 0.0
H437 H 0.04506 0.5489 0.61607 0.0
H438 H 0.00764 0.45993 0.61666 0.0
H439 H 0.03718 0.63282 0.63233 0.0
H440 H -0.01151 0.6619 0.65824 0.0
C441 C 0.5101 0.4674 0.65267 0.0
C442 C 0.57165 0.48006 0.67158 0.0
C443 C 0.51234 0.37007 0.70776 0.0
C444 C 0.45803 0.35122 0.67989 0.0
N445 N 0.38767 0.38939 0.6471 0.0
N446 N 0.62878 0.45544 0.72603 0.0
C447 C 0.45086 0.40295 0.6596 0.0
C448 C 0.57158 0.43554 0.70275 0.0
N449 N 0.50963 0.51443 0.62613 0.0
N450 N 0.50602 0.3261 0.73881 0.0
H451 H 0.67125 0.50476 0.72395 0.0
H452 H 0.63453 0.42399 0.74727 0.0
H453 H 0.45974 0.28124 0.7447 0.0
H454 H 0.54323 0.33662 0.76093 0.0
H455 H 0.46786 0.50469 0.60792 0.0
H456 H 0.55237 0.56284 0.62132 0.0
H457 H 0.378 0.42589 0.63386 0.0
H458 H 0.34379 0.34277 0.65423 0.0
C459 C 0.80538 0.90801 0.6422 0.0
C460 C 0.7467 0.85989 0.66481 0.0
C461 C 0.72245 0.94947 0.68545 0.0
C462 C 0.78563 -0.00244 0.66741 0.0
N463 N 0.87056 0.02317 0.61463 0.0
N464 N 0.63836 0.82864 0.69567 0.0
C465 C 0.82079 0.97676 0.64046 0.0
C466 C 0.70071 0.8787 0.68171 0.0
N467 N 0.85122 0.89056 0.62716 0.0
N468 N 0.68563 0.9719 0.70735 0.0
H469 H 0.62312 0.77664 0.69287 0.0
H470 H 0.60055 0.838 0.70683 0.0
H471 H 0.70007 0.02381 0.70886 0.0
H472 H 0.64191 0.93981 0.72439 0.0
H473 H 0.89999 0.92666 0.61684 0.0
H474 H 0.84277 0.8407 0.6271 0.0
H475 H 0.89313 0.00893 0.59147 0.0
H476 H 0.88432 0.07488 0.61362 0.0
C477 C 0.03984 0.82513 0.64757 0.0
C478 C 0.00738 0.8037 0.68698 0.0
C479 C 0.11451 0.8751 0.72158 0.0
C480 C 0.14862 0.8978 0.68279 0.0
N481 N 0.14757 0.87806 0.60964 0.0
N482 N 0.02302 0.77932 0.75738 0.0
C483 C 0.11249 0.86743 0.64589 0.0
C484 C 0.0483 0.81823 0.72242 0.0
N485 N 0.00257 0.80735 0.61209 0.0
N486 N 0.14089 0.91098 0.75726 0.0
H487 H 0.97501 0.73484 0.75812 0.0
H488 H 0.05304 0.78687 0.78342 0.0
H489 H 0.18475 0.95883 0.7586 0.0
H490 H 0.11335 0.89751 0.78494 0.0
H491 H 0.02314 0.82985 0.58358 0.0
H492 H 0.95112 0.77054 0.61077 0.0
H493 H 0.12487 0.85183 0.58252 0.0
H494 H 0.20071 0.90827 0.60782 0.0
C495 C 0.16295 0.20659 0.65475 0.0
C496 C 0.17036 0.17477 0.69103 0.0
C497 C 0.07747 0.18207 0.72353 0.0
C498 C 0.07568 0.22229 0.69002 0.0
N499 N 0.12941 0.28606 0.62801 0.0
N500 N 0.15191 0.15921 0.76483 0.0
C501 C 0.1222 0.23855 0.65675 0.0
C502 C 0.1332 0.17109 0.72698 0.0
N503 N 0.19178 0.20412 0.61811 0.0
N504 N 0.02448 0.15042 0.75094 0.0
H505 H 0.19625 0.15664 0.76948 0.0
H506 H 0.12823 0.16121 0.79209 0.0
H507 H 0.97835 0.14955 0.74763 0.0
H508 H 0.023 0.11682 0.77372 0.0
H509 H 0.1821 0.22119 0.59036 0.0
H510 H 0.2196 0.17903 0.61442 0.0
H511 H 0.16749 0.30452 0.60541 0.0
H512 H 0.10248 0.31237 0.63004 0.0
C513 C 0.15392 0.38628 0.15435 0.0
C514 C 0.14433 0.40078 0.19538 0.0
C515 C 0.13905 0.50042 0.17015 0.0
C516 C 0.12139 0.46895 0.13071 0.0
N517 N 0.12916 0.39187 0.08267 0.0
N518 N 0.16156 0.48986 0.24283 0.0
C519 C 0.13734 0.41704 0.12157 0.0
C520 C 0.14875 0.46463 0.20367 0.0
N521 N 0.17672 0.34134 0.14729 0.0
N522 N 0.14136 0.56168 0.17523 0.0
H523 H 0.17535 0.46708 0.26607 0.0
H524 H 0.16368 0.53532 0.25159 0.0
H525 H 0.1335 0.58645 0.15028 0.0
H526 H 0.15412 0.58903 0.20269 0.0
H527 H 0.18915 0.33161 0.11801 0.0
H528 H 0.18924 0.31925 0.17171 0.0
H529 H 0.12504 0.34462 0.07617 0.0
H530 H 0.12587 0.4187 0.05748 0.0
C531 C 0.54158 0.70221 0.18594 0.0
C532 C 0.61271 0.73083 0.19246 0.0
C533 C 0.61775 0.66199 0.13629 0.0
C534 C 0.54558 0.62295 0.13557 0.0
N535 N 0.43713 0.60478 0.16014 0.0
N536 N 0.71608 0.72646 0.17899 0.0
C537 C 0.50677 0.64287 0.16053 0.0
C538 C 0.65017 0.70762 0.16902 0.0
N539 N 0.50832 0.73302 0.20259 0.0
N540 N 0.65582 0.65642 0.10554 0.0
H541 H 0.74159 0.75701 0.20431 0.0
H542 H 0.74276 0.70521 0.16489 0.0
H543 H 0.63352 0.6273 0.07953 0.0
H544 H 0.70855 0.68878 0.103 0.0
H545 H 0.45728 0.71728 0.19665 0.0
H546 H 0.53451 0.77898 0.21875 0.0
H547 H 0.4061 0.61247 0.18075 0.0
H548 H 0.41092 0.5636 0.13998 0.0
C549 C 0.38336 0.91362 0.17563 0.0
C550 C 0.36255 0.92693 0.13754 0.0
C551 C 0.24462 0.86139 0.16206 0.0
C552 C 0.26845 0.87244 0.20319 0.0
N553 N 0.36893 0.92532 0.24747 0.0
N554 N 0.26936 0.9192 0.09641 0.0
C555 C 0.33992 0.90009 0.21006 0.0
C556 C 0.29161 0.90012 0.13034 0.0
N557 N 0.44784 0.92403 0.17999 0.0
N558 N 0.17656 0.82129 0.15429 0.0
H559 H 0.3024 0.95329 0.07429 0.0
H560 H 0.21839 0.90573 0.09235 0.0
H561 H 0.14152 0.79489 0.178 0.0
H562 H 0.15717 0.80973 0.12436 0.0
H563 H 0.46453 0.91288 0.20742 0.0
H564 H 0.48118 0.93737 0.15478 0.0
H565 H 0.42174 0.95295 0.25175 0.0
H566 H 0.34173 0.92633 0.27287 0.0
C567 C 0.40328 0.08389 0.87861 0.0
C568 C 0.4453 0.05445 0.87057 0.0
C569 C 0.4458 0.07992 0.79758 0.0
C570 C 0.40612 0.11182 0.80593 0.0
N571 N 0.37281 0.16792 0.85629 0.0
N572 N 0.52729 0.05024 0.82489 0.0
C573 C 0.3963 0.12415 0.8474 0.0
C574 C 0.4755 0.06384 0.83107 0.0
N575 N 0.36145 0.06536 0.91239 0.0
N576 N 0.44717 0.05532 0.75934 0.0
H577 H 0.54845 0.03672 0.84927 0.0
H578 H 0.55279 0.05925 0.79662 0.0
H579 H 0.42111 0.05922 0.73413 0.0
H580 H 0.46937 0.0251 0.7537 0.0
H581 H 0.3265 0.08219 0.91704 0.0
H582 H 0.35484 0.02678 0.93276 0.0
H583 H 0.36756 0.1806 0.88654 0.0
H584 H 0.36559 0.19607 0.83313 0.0
C585 C 0.85914 0.29626 0.87597 0.0
C586 C 0.88248 0.36725 0.87028 0.0
C587 C 0.8655 0.34887 0.79629 0.0
C588 C 0.84317 0.2778 0.8018 0.0
N589 N 0.78971 0.1817 0.84856 0.0
N590 N 0.87354 0.4502 0.82793 0.0
C591 C 0.8281 0.25088 0.84241 0.0
C592 C 0.8705 0.38836 0.83156 0.0
N593 N 0.87389 0.2725 0.91071 0.0
N594 N 0.89183 0.38184 0.75976 0.0
H595 H 0.87959 0.48039 0.85382 0.0
H596 H 0.86389 0.4673 0.80017 0.0
H597 H 0.89582 0.35791 0.73348 0.0
H598 H 0.9161 0.43518 0.757 0.0
H599 H 0.87218 0.22532 0.91095 0.0
H600 H 0.89145 0.30081 0.93759 0.0
H601 H 0.77768 0.15957 0.87789 0.0
H602 H 0.76572 0.1479 0.8241 0.0
C603 C 0.62122 0.57417 0.79698 0.0
C604 C 0.69051 0.59123 0.80106 0.0
C605 C 0.66828 0.54691 0.87205 0.0
C606 C 0.6043 0.54413 0.87011 0.0
N607 N 0.508 0.52056 0.82842 0.0
N608 N 0.77203 0.56987 0.83506 0.0
C609 C 0.57647 0.54438 0.83124 0.0
C610 C 0.71081 0.56816 0.83612 0.0
N611 N 0.60024 0.59328 0.76251 0.0
N612 N 0.68962 0.53364 0.90852 0.0
H613 H 0.80282 0.58578 0.8086 0.0
H614 H 0.78972 0.55124 0.85855 0.0
H615 H 0.65701 0.51271 0.93387 0.0
H616 H 0.73866 0.54197 0.91352 0.0
H617 H 0.55262 0.58962 0.75985 0.0
H618 H 0.63187 0.61579 0.73705 0.0
H619 H 0.48285 0.51506 0.80058 0.0
H620 H 0.47593 0.50029 0.8542 0.0
C621 C 0.72581 0.69919 0.45477 0.0
C622 C 0.73997 0.76758 0.46103 0.0
C623 C 0.81136 0.77792 0.5205 0.0
C624 C 0.78646 0.70647 0.51805 0.0
N625 N 0.76534 0.61929 0.46753 0.0
N626 N 0.80388 0.87612 0.4956 0.0
C627 C 0.75793 0.67299 0.48033 0.0
C628 C 0.78678 0.80886 0.49203 0.0
N629 N 0.67833 0.65712 0.42667 0.0
N630 N 0.86187 0.81618 0.54787 0.0
H631 H 0.78915 0.90027 0.47368 0.0
H632 H 0.83084 0.90723 0.52039 0.0
H633 H 0.88317 0.79418 0.56667 0.0
H634 H 0.8878 0.86958 0.54852 0.0
H635 H 0.66102 0.60462 0.42519 0.0
H636 H 0.6537 0.6732 0.40624 0.0
H637 H 0.74901 0.59646 0.43867 0.0
H638 H 0.79776 0.60578 0.48246 0.0
C639 C 0.28557 0.03653 0.45744 0.0
C640 C 0.22445 0.9745 0.46721 0.0
C641 C 0.20738 0.02798 0.52842 0.0
C642 C 0.27378 0.08516 0.52181 0.0
N643 N 0.35304 0.15887 0.46973 0.0
N644 N 0.11733 0.91704 0.50332 0.0
C645 C 0.30473 0.09466 0.48249 0.0
C646 C 0.18154 0.97269 0.49972 0.0
N647 N 0.32835 0.03868 0.42681 0.0
N648 N 0.17014 0.02677 0.562 0.0
H649 H 0.09853 0.87702 0.48194 0.0
H650 H 0.08152 0.91228 0.52526 0.0
H651 H 0.18459 0.0704 0.57986 0.0
H652 H 0.12446 0.98423 0.57139 0.0
H653 H 0.37787 0.07962 0.42268 0.0
H654 H 0.31632 -0.00168 0.40671 0.0
H655 H 0.38055 0.16921 0.44228 0.0
H656 H 0.35915 0.20283 0.48447 0.0
C657 C 0.96836 0.17715 0.51361 0.0
C658 C 0.97097 0.2276 0.54094 0.0
C659 C 0.08948 0.30396 0.52121 0.0
C660 C 0.07703 0.26533 0.48479 0.0
N661 N 0.02456 0.15159 0.45742 0.0
N662 N 0.03684 0.33849 0.57364 0.0
C663 C 0.02298 0.19661 0.48481 0.0
C664 C 0.03334 0.28985 0.54699 0.0
N665 N 0.91218 0.11288 0.5141 0.0
N666 N 0.15356 0.35742 0.52847 0.0
H667 H -0.00271 0.32998 0.59374 0.0
H668 H 0.07847 0.38825 0.57484 0.0
H669 H 0.19422 0.36747 0.50869 0.0
H670 H 0.1669 0.3869 0.55524 0.0
H671 H 0.90493 0.07353 0.49425 0.0
H672 H 0.87283 0.09892 0.53565 0.0
H673 H -0.01202 0.09976 0.45603 0.0
H674 H 0.0666 0.16625 0.43807 0.0
loop_
_geom_bond_atom_site_label_1
_geom_bond_atom_site_label_2
_geom_bond_distance
_geom_bond_site_symmetry_2
_ccdc_geom_bond_type
O0 Mg1 1.990 . S
O0 C14 1.253 . S
Mg1 O0 1.990 . S
Mg1 O4 2.180 . S
Mg1 O5 2.117 . S
Mg1 O19 2.030 . S
O2 Mg3 2.072 1_656 S
O2 C14 1.260 1_556 S
Mg3 O2 2.072 1_454 S
Mg3 O4 2.099 1_455 S
Mg3 O6 2.079 . S
Mg3 O7 2.072 . S
Mg3 O9 2.099 1_554 S
Mg3 O20 2.079 1_455 S
O4 Mg1 2.180 . S
O4 Mg3 2.099 1_655 S
O4 C15 1.279 1_655 S
O5 Mg1 2.117 . S
O5 C15 1.250 1_655 S
O6 Mg3 2.079 . S
O6 C16 1.264 1_554 S
O7 Mg3 2.072 . S
O7 C17 1.260 1_554 S
Mg8 O9 2.180 . S
Mg8 O10 2.030 . S
Mg8 O11 1.990 . S
Mg8 O12 2.117 . S
O9 Mg3 2.099 1_556 S
O9 Mg8 2.180 . S
O9 C18 1.279 . S
O10 Mg8 2.030 . S
O10 C16 1.248 . S
O11 Mg8 1.990 . S
O11 C17 1.253 . S
O12 Mg8 2.117 . S
O12 C18 1.250 . S
C13 O19 1.248 . S
C13 O20 1.264 . S
C14 O0 1.253 . S
C14 O2 1.260 1_554 S
C15 O4 1.279 1_455 S
C15 O5 1.250 1_455 S
C16 O6 1.264 1_556 S
C16 O10 1.248 . S
C17 O7 1.260 1_556 S
C17 O11 1.253 . S
C18 O9 1.279 . S
C18 O12 1.250 . S
O19 Mg1 2.030 . S
O19 C13 1.248 . S
O20 Mg3 2.079 1_655 S
O20 C13 1.264 . S
O21 Mg22 1.990 . S
O21 C35 1.253 . S
Mg22 O21 1.990 . S
Mg22 O25 2.180 . S
Mg22 O26 2.117 . S
Mg22 O40 2.030 . S
O23 Mg24 2.072 . S
O23 C35 1.260 1_554 S
Mg24 O23 2.072 . S
Mg24 O25 2.099 1_554 S
Mg24 O27 2.079 . S
Mg24 O28 2.072 1_554 S
Mg24 O30 2.099 . S
Mg24 O41 2.079 . S
O25 Mg22 2.180 . S
O25 Mg24 2.099 1_556 S
O25 C36 1.279 . S
O26 Mg22 2.117 . S
O26 C36 1.250 . S
O27 Mg24 2.079 . S
O27 C37 1.264 . S
O28 Mg24 2.072 1_556 S
O28 C38 1.260 1_556 S
Mg29 O30 2.180 . S
Mg29 O31 2.030 . S
Mg29 O32 1.990 . S
Mg29 O33 2.117 . S
O30 Mg24 2.099 . S
O30 Mg29 2.180 . S
O30 C39 1.279 . S
O31 Mg29 2.030 . S
O31 C37 1.248 . S
O32 Mg29 1.990 . S
O32 C38 1.253 . S
O33 Mg29 2.117 . S
O33 C39 1.250 . S
C34 O40 1.248 . S
C34 O41 1.264 1_556 S
C35 O21 1.253 . S
C35 O23 1.260 1_556 S
C36 O25 1.279 . S
C36 O26 1.250 . S
C37 O27 1.264 . S
C37 O31 1.248 . S
C38 O28 1.260 1_554 S
C38 O32 1.253 . S
C39 O30 1.279 . S
C39 O33 1.250 . S
O40 Mg22 2.030 . S
O40 C34 1.248 . S
O41 Mg24 2.079 . S
O41 C34 1.264 1_554 S
O42 Mg43 1.990 . S
O42 C56 1.253 . S
Mg43 O42 1.990 . S
Mg43 O46 2.180 . S
Mg43 O47 2.117 . S
Mg43 O61 2.030 . S
O44 Mg45 2.072 1_565 S
O44 C56 1.260 1_554 S
Mg45 O44 2.072 1_545 S
Mg45 O46 2.099 1_544 S
Mg45 O48 2.079 . S
Mg45 O49 2.072 1_554 S
Mg45 O51 2.099 . S
Mg45 O62 2.079 1_545 S
O46 Mg43 2.180 . S
O46 Mg45 2.099 1_566 S
O46 C57 1.279 1_565 S
O47 Mg43 2.117 . S
O47 C57 1.250 1_565 S
O48 Mg45 2.079 . S
O48 C58 1.264 . S
O49 Mg45 2.072 1_556 S
O49 C59 1.260 1_556 S
Mg50 O51 2.180 . S
Mg50 O52 2.030 . S
Mg50 O53 1.990 . S
Mg50 O54 2.117 . S
O51 Mg45 2.099 . S
O51 Mg50 2.180 . S
O51 C60 1.279 . S
O52 Mg50 2.030 . S
O52 C58 1.248 . S
O53 Mg50 1.990 . S
O53 C59 1.253 . S
O54 Mg50 2.117 . S
O54 C60 1.250 . S
C55 O61 1.248 . S
C55 O62 1.264 1_556 S
C56 O42 1.253 . S
C56 O44 1.260 1_556 S
C57 O46 1.279 1_545 S
C57 O47 1.250 1_545 S
C58 O48 1.264 . S
C58 O52 1.248 . S
C59 O49 1.260 1_554 S
C59 O53 1.253 . S
C60 O51 1.279 . S
C60 O54 1.250 . S
O61 Mg43 2.030 . S
O61 C55 1.248 . S
O62 Mg45 2.079 1_565 S
O62 C55 1.264 1_554 S
O63 Mg64 1.990 . S
O63 C77 1.253 . S
Mg64 O63 1.990 . S
Mg64 O67 2.180 . S
Mg64 O68 2.117 . S
Mg64 O82 2.030 . S
O65 Mg66 2.072 . S
O65 C77 1.260 . S
Mg66 O65 2.072 . S
Mg66 O67 2.099 . S
Mg66 O69 2.079 . S
Mg66 O70 2.072 . S
Mg66 O72 2.099 . S
Mg66 O83 2.079 . S
O67 Mg64 2.180 . S
O67 Mg66 2.099 . S
O67 C78 1.279 . S
O68 Mg64 2.117 . S
O68 C78 1.250 . S
O69 Mg66 2.079 . S
O69 C79 1.264 . S
O70 Mg66 2.072 . S
O70 C80 1.260 . S
Mg71 O72 2.180 . S
Mg71 O73 2.030 . S
Mg71 O74 1.990 . S
Mg71 O75 2.117 . S
O72 Mg66 2.099 . S
O72 Mg71 2.180 . S
O72 C81 1.279 . S
O73 Mg71 2.030 . S
O73 C79 1.248 . S
O74 Mg71 1.990 . S
O74 C80 1.253 . S
O75 Mg71 2.117 . S
O75 C81 1.250 . S
C76 O82 1.248 . S
C76 O83 1.264 . S
C77 O63 1.253 . S
C77 O65 1.260 . S
C78 O67 1.279 . S
C78 O68 1.250 . S
C79 O69 1.264 . S
C79 O73 1.248 . S
C80 O70 1.260 . S
C80 O74 1.253 . S
C81 O72 1.279 . S
C81 O75 1.250 . S
O82 Mg64 2.030 . S
O82 C76 1.248 . S
O83 Mg66 2.079 . S
O83 C76 1.264 . S
O84 Mg85 1.990 1_545 S
O84 C98 1.253 . S
Mg85 O84 1.990 1_565 S
Mg85 O88 2.180 . S
Mg85 O89 2.117 . S
Mg85 O103 2.030 . S
O86 Mg87 2.072 . S
O86 C98 1.260 1_565 S
Mg87 O86 2.072 . S
Mg87 O88 2.099 . S
Mg87 O90 2.079 . S
Mg87 O91 2.072 . S
Mg87 O93 2.099 . S
Mg87 O104 2.079 . S
O88 Mg85 2.180 . S
O88 Mg87 2.099 . S
O88 C99 1.279 . S
O89 Mg85 2.117 . S
O89 C99 1.250 . S
O90 Mg87 2.079 . S
O90 C100 1.264 . S
O91 Mg87 2.072 . S
O91 C101 1.260 . S
Mg92 O93 2.180 . S
Mg92 O94 2.030 . S
Mg92 O95 1.990 . S
Mg92 O96 2.117 . S
O93 Mg87 2.099 . S
O93 Mg92 2.180 . S
O93 C102 1.279 . S
O94 Mg92 2.030 . S
O94 C100 1.248 . S
O95 Mg92 1.990 . S
O95 C101 1.253 . S
O96 Mg92 2.117 . S
O96 C102 1.250 . S
C97 O103 1.248 . S
C97 O104 1.264 . S
C98 O84 1.253 . S
C98 O86 1.260 1_545 S
C99 O88 1.279 . S
C99 O89 1.250 . S
C100 O90 1.264 . S
C100 O94 1.248 . S
C101 O91 1.260 . S
C101 O95 1.253 . S
C102 O93 1.279 . S
C102 O96 1.250 . S
O103 Mg85 2.030 . S
O103 C97 1.248 . S
O104 Mg87 2.079 . S
O104 C97 1.264 . S
O105 Mg106 1.990 1_655 S
O105 C119 1.253 . S
Mg106 O105 1.990 1_455 S
Mg106 O109 2.180 . S
Mg106 O110 2.117 . S
Mg106 O124 2.030 . S
O107 Mg108 2.072 . S
O107 C119 1.260 1_455 S
Mg108 O107 2.072 . S
Mg108 O109 2.099 . S
Mg108 O111 2.079 . S
Mg108 O112 2.072 . S
Mg108 O114 2.099 . S
Mg108 O125 2.079 . S
O109 Mg106 2.180 . S
O109 Mg108 2.099 . S
O109 C120 1.279 . S
O110 Mg106 2.117 . S
O110 C120 1.250 . S
O111 Mg108 2.079 . S
O111 C121 1.264 . S
O112 Mg108 2.072 . S
O112 C122 1.260 . S
Mg113 O114 2.180 . S
Mg113 O115 2.030 . S
Mg113 O116 1.990 . S
Mg113 O117 2.117 . S
O114 Mg108 2.099 . S
O114 Mg113 2.180 . S
O114 C123 1.279 . S
O115 Mg113 2.030 . S
O115 C121 1.248 . S
O116 Mg113 1.990 . S
O116 C122 1.253 . S
O117 Mg113 2.117 . S
O117 C123 1.250 . S
C118 O124 1.248 . S
C118 O125 1.264 . S
C119 O105 1.253 . S
C119 O107 1.260 1_655 S
C120 O109 1.279 . S
C120 O110 1.250 . S
C121 O111 1.264 . S
C121 O115 1.248 . S
C122 O112 1.260 . S
C122 O116 1.253 . S
C123 O114 1.279 . S
C123 O117 1.250 . S
O124 Mg106 2.030 . S
O124 C118 1.248 . S
O125 Mg108 2.079 . S
O125 C118 1.264 . S
O126 Mg127 1.990 . S
O126 C140 1.253 . S
Mg127 O126 1.990 . S
Mg127 O130 2.180 . S
Mg127 O131 2.117 . S
Mg127 O145 2.030 . S
O128 Mg129 2.072 . S
O128 C140 1.260 . S
Mg129 O128 2.072 . S
Mg129 O130 2.099 . S
Mg129 O132 2.079 . S
Mg129 O133 2.072 . S
Mg129 O135 2.099 . S
Mg129 O146 2.079 . S
O130 Mg127 2.180 . S
O130 Mg129 2.099 . S
O130 C141 1.279 . S
O131 Mg127 2.117 . S
O131 C141 1.250 . S
O132 Mg129 2.079 . S
O132 C142 1.264 . S
O133 Mg129 2.072 . S
O133 C143 1.260 1_545 S
Mg134 O135 2.180 . S
Mg134 O136 2.030 . S
Mg134 O137 1.990 1_545 S
Mg134 O138 2.117 . S
O135 Mg129 2.099 . S
O135 Mg134 2.180 . S
O135 C144 1.279 . S
O136 Mg134 2.030 . S
O136 C142 1.248 . S
O137 Mg134 1.990 1_565 S
O137 C143 1.253 . S
O138 Mg134 2.117 . S
O138 C144 1.250 . S
C139 O145 1.248 . S
C139 O146 1.264 . S
C140 O126 1.253 . S
C140 O128 1.260 . S
C141 O130 1.279 . S
C141 O131 1.250 . S
C142 O132 1.264 . S
C142 O136 1.248 . S
C143 O133 1.260 1_565 S
C143 O137 1.253 . S
C144 O135 1.279 . S
C144 O138 1.250 . S
O145 Mg127 2.030 . S
O145 C139 1.248 . S
O146 Mg129 2.079 . S
O146 C139 1.264 . S
O147 Mg148 1.990 . S
O147 C161 1.253 . S
Mg148 O147 1.990 . S
Mg148 O151 2.180 . S
Mg148 O152 2.117 . S
Mg148 O166 2.030 . S
O149 Mg150 2.072 . S
O149 C161 1.260 . S
Mg150 O149 2.072 . S
Mg150 O151 2.099 . S
Mg150 O153 2.079 . S
Mg150 O154 2.072 . S
Mg150 O156 2.099 . S
Mg150 O167 2.079 . S
O151 Mg148 2.180 . S
O151 Mg150 2.099 . S
O151 C162 1.279 . S
O152 Mg148 2.117 . S
O152 C162 1.250 . S
O153 Mg150 2.079 . S
O153 C163 1.264 . S
O154 Mg150 2.072 . S
O154 C164 1.260 1_655 S
Mg155 O156 2.180 . S
Mg155 O157 2.030 . S
Mg155 O158 1.990 1_655 S
Mg155 O159 2.117 . S
O156 Mg150 2.099 . S
O156 Mg155 2.180 . S
O156 C165 1.279 . S
O157 Mg155 2.030 . S
O157 C163 1.248 . S
O158 Mg155 1.990 1_455 S
O158 C164 1.253 . S
O159 Mg155 2.117 . S
O159 C165 1.250 . S
C160 O166 1.248 . S
C160 O167 1.264 . S
C161 O147 1.253 . S
C161 O149 1.260 . S
C162 O151 1.279 . S
C162 O152 1.250 . S
C163 O153 1.264 . S
C163 O157 1.248 . S
C164 O154 1.260 1_455 S
C164 O158 1.253 . S
C165 O156 1.279 . S
C165 O159 1.250 . S
O166 Mg148 2.030 . S
O166 C160 1.248 . S
O167 Mg150 2.079 . S
O167 C160 1.264 . S
O168 Mg169 1.990 . S
O168 C182 1.253 . S
Mg169 O168 1.990 . S
Mg169 O172 2.180 . S
Mg169 O173 2.117 . S
Mg169 O187 2.030 . S
O170 Mg171 2.072 . S
O170 C182 1.260 . S
Mg171 O170 2.072 . S
Mg171 O172 2.099 . S
Mg171 O174 2.079 . S
Mg171 O175 2.072 . S
Mg171 O177 2.099 . S
Mg171 O188 2.079 . S
O172 Mg169 2.180 . S
O172 Mg171 2.099 . S
O172 C183 1.279 . S
O173 Mg169 2.117 . S
O173 C183 1.250 . S
O174 Mg171 2.079 . S
O174 C184 1.264 . S
O175 Mg171 2.072 . S
O175 C185 1.260 . S
Mg176 O177 2.180 . S
Mg176 O178 2.030 . S
Mg176 O179 1.990 . S
Mg176 O180 2.117 . S
O177 Mg171 2.099 . S
O177 Mg176 2.180 . S
O177 C186 1.279 . S
O178 Mg176 2.030 . S
O178 C184 1.248 . S
O179 Mg176 1.990 . S
O179 C185 1.253 . S
O180 Mg176 2.117 . S
O180 C186 1.250 . S
C181 O187 1.248 . S
C181 O188 1.264 . S
C182 O168 1.253 . S
C182 O170 1.260 . S
C183 O172 1.279 . S
C183 O173 1.250 . S
C184 O174 1.264 . S
C184 O178 1.248 . S
C185 O175 1.260 . S
C185 O179 1.253 . S
C186 O177 1.279 . S
C186 O180 1.250 . S
O187 Mg169 2.030 . S
O187 C181 1.248 . S
O188 Mg171 2.079 . S
O188 C181 1.264 . S
C189 C190 1.363 . S
C189 C195 1.379 . S
C189 N197 1.356 . S
C190 C189 1.363 . S
C190 C196 1.363 1_554 S
C191 C192 1.363 1_556 S
C191 C196 1.379 . S
C191 N198 1.356 . S
C192 C191 1.363 1_554 S
C192 C195 1.363 . S
N193 C195 1.356 . S
N193 H205 0.984 . S
N193 H206 0.985 . S
N194 C196 1.356 . S
N194 H199 0.984 . S
N194 H200 0.985 . S
C195 C189 1.379 . S
C195 C192 1.363 . S
C195 N193 1.356 . S
C196 C190 1.363 1_556 S
C196 C191 1.379 . S
C196 N194 1.356 . S
N197 C189 1.356 . S
N197 H203 0.984 . S
N197 H204 0.984 . S
N198 C191 1.356 . S
N198 H201 0.984 . S
N198 H202 0.985 . S
H199 N194 0.984 . S
H200 N194 0.985 . S
H201 N198 0.984 . S
H202 N198 0.985 . S
H203 N197 0.984 . S
H204 N197 0.984 . S
H205 N193 0.984 . S
H206 N193 0.985 . S
C207 C208 1.363 . S
C207 C213 1.379 . S
C207 N215 1.356 . S
C208 C207 1.363 . S
C208 C214 1.363 1_554 S
C209 C210 1.363 1_556 S
C209 C214 1.379 . S
C209 N216 1.356 . S
C210 C209 1.363 1_554 S
C210 C213 1.363 . S
N211 C213 1.356 . S
N211 H223 0.984 . S
N211 H224 0.985 . S
N212 C214 1.356 . S
N212 H217 0.984 . S
N212 H218 0.985 . S
C213 C207 1.379 . S
C213 C210 1.363 . S
C213 N211 1.356 . S
C214 C208 1.363 1_556 S
C214 C209 1.379 . S
C214 N212 1.356 . S
N215 C207 1.356 . S
N215 H221 0.984 . S
N215 H222 0.984 . S
N216 C209 1.356 . S
N216 H219 0.984 . S
N216 H220 0.985 . S
H217 N212 0.984 . S
H218 N212 0.985 . S
H219 N216 0.984 . S
H220 N216 0.985 . S
H221 N215 0.984 . S
H222 N215 0.984 . S
H223 N211 0.984 . S
H224 N211 0.985 . S
C225 C226 1.363 . S
C225 C231 1.379 . S
C225 N233 1.356 . S
C226 C225 1.363 . S
C226 C232 1.363 1_554 S
C227 C228 1.363 1_556 S
C227 C232 1.379 . S
C227 N234 1.356 . S
C228 C227 1.363 1_554 S
C228 C231 1.363 . S
N229 C231 1.356 . S
N229 H241 0.984 . S
N229 H242 0.985 . S
N230 C232 1.356 . S
N230 H235 0.984 . S
N230 H236 0.985 . S
C231 C225 1.379 . S
C231 C228 1.363 . S
C231 N229 1.356 . S
C232 C226 1.363 1_556 S
C232 C227 1.379 . S
C232 N230 1.356 . S
N233 C225 1.356 . S
N233 H239 0.984 . S
N233 H240 0.984 . S
N234 C227 1.356 . S
N234 H237 0.984 . S
N234 H238 0.985 . S
H235 N230 0.984 . S
H236 N230 0.985 . S
H237 N234 0.984 . S
H238 N234 0.985 . S
H239 N233 0.984 . S
H240 N233 0.984 . S
H241 N229 0.984 . S
H242 N229 0.985 . S
C243 C244 1.363 1_556 S
C243 C249 1.379 . S
C243 N251 1.356 . S
C244 C243 1.363 1_554 S
C244 C250 1.363 . S
C245 C246 1.363 . S
C245 C250 1.379 . S
C245 N252 1.356 . S
C246 C245 1.363 . S
C246 C249 1.363 1_554 S
N247 C249 1.356 . S
N247 H259 0.984 . S
N247 H260 0.985 . S
N248 C250 1.356 . S
N248 H253 0.984 . S
N248 H254 0.985 . S
C249 C243 1.379 . S
C249 C246 1.363 1_556 S
C249 N247 1.356 . S
C250 C244 1.363 . S
C250 C245 1.379 . S
C250 N248 1.356 . S
N251 C243 1.356 . S
N251 H257 0.984 . S
N251 H258 0.984 . S
N252 C245 1.356 . S
N252 H255 0.984 . S
N252 H256 0.985 . S
H253 N248 0.984 . S
H254 N248 0.985 . S
H255 N252 0.984 . S
H256 N252 0.985 . S
H257 N251 0.984 . S
H258 N251 0.984 . S
H259 N247 0.984 . S
H260 N247 0.985 . S
C261 C262 1.363 1_556 S
C261 C267 1.379 . S
C261 N269 1.356 . S
C262 C261 1.363 1_554 S
C262 C268 1.363 . S
C263 C264 1.363 . S
C263 C268 1.379 . S
C263 N270 1.356 . S
C264 C263 1.363 . S
C264 C267 1.363 1_554 S
N265 C267 1.356 . S
N265 H277 0.984 . S
N265 H278 0.985 . S
N266 C268 1.356 . S
N266 H271 0.984 . S
N266 H272 0.985 . S
C267 C261 1.379 . S
C267 C264 1.363 1_556 S
C267 N265 1.356 . S
C268 C262 1.363 . S
C268 C263 1.379 . S
C268 N266 1.356 . S
N269 C261 1.356 . S
N269 H275 0.984 . S
N269 H276 0.984 . S
N270 C263 1.356 . S
N270 H273 0.984 . S
N270 H274 0.985 . S
H271 N266 0.984 . S
H272 N266 0.985 . S
H273 N270 0.984 . S
H274 N270 0.985 . S
H275 N269 0.984 . S
H276 N269 0.984 . S
H277 N265 0.984 . S
H278 N265 0.985 . S
C279 C280 1.363 1_556 S
C279 C285 1.379 . S
C279 N287 1.356 . S
C280 C279 1.363 1_554 S
C280 C286 1.363 . S
C281 C282 1.363 . S
C281 C286 1.379 . S
C281 N288 1.356 . S
C282 C281 1.363 . S
C282 C285 1.363 1_554 S
N283 C285 1.356 . S
N283 H295 0.984 . S
N283 H296 0.985 . S
N284 C286 1.356 . S
N284 H289 0.984 . S
N284 H290 0.985 . S
C285 C279 1.379 . S
C285 C282 1.363 1_556 S
C285 N283 1.356 . S
C286 C280 1.363 . S
C286 C281 1.379 . S
C286 N284 1.356 . S
N287 C279 1.356 . S
N287 H293 0.984 . S
N287 H294 0.984 . S
N288 C281 1.356 . S
N288 H291 0.984 . S
N288 H292 0.985 . S
H289 N284 0.984 . S
H290 N284 0.985 . S
H291 N288 0.984 . S
H292 N288 0.985 . S
H293 N287 0.984 . S
H294 N287 0.984 . S
H295 N283 0.984 . S
H296 N283 0.985 . S
C297 C298 1.363 . S
C297 C303 1.379 . S
C297 N305 1.356 . S
C298 C297 1.363 . S
C298 C304 1.363 . S
C299 C300 1.360 1_655 S
C299 C304 1.379 . S
C299 N306 1.356 1_655 S
C300 C299 1.360 1_455 S
C300 C303 1.358 1_455 S
N301 C303 1.356 1_455 S
N301 H313 0.984 . S
N301 H314 0.985 . S
N302 C304 1.356 . S
N302 H307 0.984 . S
N302 H308 0.985 . S
C303 C297 1.379 . S
C303 C300 1.358 1_655 S
C303 N301 1.356 1_655 S
C304 C298 1.363 . S
C304 C299 1.379 . S
C304 N302 1.356 . S
N305 C297 1.356 . S
N305 H311 0.984 . S
N305 H312 0.984 . S
N306 C299 1.356 1_455 S
N306 H309 0.984 . S
N306 H310 0.984 1_455 S
H307 N302 0.984 . S
H308 N302 0.985 . S
H309 N306 0.984 . S
H310 N306 0.984 1_655 S
H311 N305 0.984 . S
H312 N305 0.984 . S
H313 N301 0.984 . S
H314 N301 0.985 . S
C315 C316 1.363 . S
C315 C321 1.379 . S
C315 N323 1.356 . S
C316 C315 1.363 . S
C316 C322 1.363 . S
C317 C318 1.363 . S
C317 C322 1.379 . S
C317 N324 1.356 . S
C318 C317 1.363 . S
C318 C321 1.363 . S
N319 C321 1.356 . S
N319 H331 0.984 . S
N319 H332 0.985 . S
N320 C322 1.356 . S
N320 H325 0.984 . S
N320 H326 0.985 . S
C321 C315 1.379 . S
C321 C318 1.363 . S
C321 N319 1.356 . S
C322 C316 1.363 . S
C322 C317 1.379 . S
C322 N320 1.356 . S
N323 C315 1.356 . S
N323 H329 0.984 . S
N323 H330 0.984 . S
N324 C317 1.356 . S
N324 H327 0.984 1_545 S
N324 H328 0.985 1_545 S
H325 N320 0.984 . S
H326 N320 0.985 . S
H327 N324 0.984 1_565 S
H328 N324 0.985 1_565 S
H329 N323 0.984 . S
H330 N323 0.984 . S
H331 N319 0.984 . S
H332 N319 0.985 . S
C333 C334 1.363 . S
C333 C339 1.379 . S
C333 N341 1.356 . S
C334 C333 1.363 . S
C334 C340 1.363 . S
C335 C336 1.363 . S
C335 C340 1.379 . S
C335 N342 1.356 1_545 S
C336 C335 1.363 . S
C336 C339 1.363 . S
N337 C339 1.356 . S
N337 H349 0.984 . S
N337 H350 0.985 1_545 S
N338 C340 1.356 1_455 S
N338 H343 0.984 . S
N338 H344 0.985 . S
C339 C333 1.379 . S
C339 C336 1.363 . S
C339 N337 1.356 . S
C340 C334 1.363 . S
C340 C335 1.379 . S
C340 N338 1.356 1_655 S
N341 C333 1.356 . S
N341 H347 0.984 . S
N341 H348 0.984 . S
N342 C335 1.356 1_565 S
N342 H345 0.984 . S
N342 H346 0.985 1_565 S
H343 N338 0.984 . S
H344 N338 0.985 . S
H345 N342 0.984 . S
H346 N342 0.985 1_545 S
H347 N341 0.984 . S
H348 N341 0.984 . S
H349 N337 0.984 . S
H350 N337 0.985 1_565 S
C351 C352 1.363 . S
C351 C357 1.379 . S
C351 N359 1.356 . S
C352 C351 1.363 . S
C352 C358 1.363 . S
C353 C354 1.363 . S
C353 C358 1.379 . S
C353 N360 1.356 . S
C354 C353 1.363 . S
C354 C357 1.363 . S
N355 C357 1.356 . S
N355 H367 0.984 . S
N355 H368 0.985 . S
N356 C358 1.356 . S
N356 H361 0.984 . S
N356 H362 0.985 . S
C357 C351 1.379 . S
C357 C354 1.363 . S
C357 N355 1.356 . S
C358 C352 1.363 . S
C358 C353 1.379 . S
C358 N356 1.356 . S
N359 C351 1.356 . S
N359 H365 0.984 . S
N359 H366 0.984 . S
N360 C353 1.356 . S
N360 H363 0.984 . S
N360 H364 0.985 . S
H361 N356 0.984 . S
H362 N356 0.985 . S
H363 N360 0.984 . S
H364 N360 0.985 . S
H365 N359 0.984 . S
H366 N359 0.984 . S
H367 N355 0.984 . S
H368 N355 0.985 . S
C369 C370 1.363 . S
C369 C375 1.379 . S
C369 N377 1.356 . S
C370 C369 1.363 . S
C370 C376 1.363 . S
C371 C372 1.363 . S
C371 C376 1.379 . S
C371 N378 1.356 . S
C372 C371 1.363 . S
C372 C375 1.363 . S
N373 C375 1.356 . S
N373 H385 0.984 . S
N373 H386 0.985 . S
N374 C376 1.356 . S
N374 H379 0.984 . S
N374 H380 0.985 . S
C375 C369 1.379 . S
C375 C372 1.363 . S
C375 N373 1.356 . S
C376 C370 1.363 . S
C376 C371 1.379 . S
C376 N374 1.356 . S
N377 C369 1.356 . S
N377 H383 0.984 . S
N377 H384 0.984 . S
N378 C371 1.356 . S
N378 H381 0.984 . S
N378 H382 0.985 . S
H379 N374 0.984 . S
H380 N374 0.985 . S
H381 N378 0.984 . S
H382 N378 0.985 . S
H383 N377 0.984 . S
H384 N377 0.984 . S
H385 N373 0.984 . S
H386 N373 0.985 . S
C387 C388 1.363 . S
C387 C393 1.379 . S
C387 N395 1.356 . S
C388 C387 1.363 . S
C388 C394 1.363 . S
C389 C390 1.363 . S
C389 C394 1.379 . S
C389 N396 1.356 . S
C390 C389 1.363 . S
C390 C393 1.363 . S
N391 C393 1.356 . S
N391 H403 0.984 . S
N391 H404 0.985 . S
N392 C394 1.356 . S
N392 H397 0.984 . S
N392 H398 0.985 1_565 S
C393 C387 1.379 . S
C393 C390 1.363 . S
C393 N391 1.356 . S
C394 C388 1.363 . S
C394 C389 1.379 . S
C394 N392 1.356 . S
N395 C387 1.356 . S
N395 H401 0.984 . S
N395 H402 0.984 . S
N396 C389 1.356 . S
N396 H399 0.984 . S
N396 H400 0.985 . S
H397 N392 0.984 . S
H398 N392 0.985 1_545 S
H399 N396 0.984 . S
H400 N396 0.985 . S
H401 N395 0.984 . S
H402 N395 0.984 . S
H403 N391 0.984 . S
H404 N391 0.985 . S
C405 C406 1.363 . S
C405 C411 1.379 . S
C405 N413 1.356 . S
C406 C405 1.363 . S
C406 C412 1.363 . S
C407 C408 1.363 . S
C407 C412 1.379 . S
C407 N414 1.356 . S
C408 C407 1.363 . S
C408 C411 1.363 . S
N409 C411 1.356 . S
N409 H421 0.984 . S
N409 H422 0.985 . S
N410 C412 1.356 . S
N410 H415 0.984 . S
N410 H416 0.985 . S
C411 C405 1.379 . S
C411 C408 1.363 . S
C411 N409 1.356 . S
C412 C406 1.363 . S
C412 C407 1.379 . S
C412 N410 1.356 . S
N413 C405 1.356 . S
N413 H419 0.984 . S
N413 H420 0.984 . S
N414 C407 1.356 . S
N414 H417 0.984 . S
N414 H418 0.985 . S
H415 N410 0.984 . S
H416 N410 0.985 . S
H417 N414 0.984 . S
H418 N414 0.985 . S
H419 N413 0.984 . S
H420 N413 0.984 . S
H421 N409 0.984 . S
H422 N409 0.985 . S
C423 C424 1.363 . S
C423 C429 1.379 . S
C423 N431 1.356 . S
C424 C423 1.363 . S
C424 C430 1.363 . S
C425 C426 1.363 . S
C425 C430 1.379 . S
C425 N432 1.356 . S
C426 C425 1.363 . S
C426 C429 1.363 . S
N427 C429 1.356 . S
N427 H439 0.984 . S
N427 H440 0.985 . S
N428 C430 1.356 . S
N428 H433 0.984 . S
N428 H434 0.985 . S
C429 C423 1.379 . S
C429 C426 1.363 . S
C429 N427 1.356 . S
C430 C424 1.363 . S
C430 C425 1.379 . S
C430 N428 1.356 . S
N431 C423 1.356 . S
N431 H437 0.984 . S
N431 H438 0.984 . S
N432 C425 1.356 . S
N432 H435 0.984 . S
N432 H436 0.985 . S
H433 N428 0.984 . S
H434 N428 0.985 . S
H435 N432 0.984 . S
H436 N432 0.985 . S
H437 N431 0.984 . S
H438 N431 0.984 . S
H439 N427 0.984 . S
H440 N427 0.985 . S
C441 C442 1.363 . S
C441 C447 1.379 . S
C441 N449 1.356 . S
C442 C441 1.363 . S
C442 C448 1.363 . S
C443 C444 1.363 . S
C443 C448 1.379 . S
C443 N450 1.356 . S
C444 C443 1.363 . S
C444 C447 1.363 . S
N445 C447 1.356 . S
N445 H457 0.984 . S
N445 H458 0.985 . S
N446 C448 1.356 . S
N446 H451 0.984 . S
N446 H452 0.985 . S
C447 C441 1.379 . S
C447 C444 1.363 . S
C447 N445 1.356 . S
C448 C442 1.363 . S
C448 C443 1.379 . S
C448 N446 1.356 . S
N449 C441 1.356 . S
N449 H455 0.984 . S
N449 H456 0.984 . S
N450 C443 1.356 . S
N450 H453 0.984 . S
N450 H454 0.985 . S
H451 N446 0.984 . S
H452 N446 0.985 . S
H453 N450 0.984 . S
H454 N450 0.985 . S
H455 N449 0.984 . S
H456 N449 0.984 . S
H457 N445 0.984 . S
H458 N445 0.985 . S
C459 C460 1.363 . S
C459 C465 1.379 . S
C459 N467 1.356 . S
C460 C459 1.363 . S
C460 C466 1.363 . S
C461 C462 1.362 1_565 S
C461 C466 1.379 . S
C461 N468 1.356 1_565 S
C462 C461 1.362 1_545 S
C462 C465 1.360 1_545 S
N463 C465 1.356 1_545 S
N463 H475 0.984 . S
N463 H476 0.985 . S
N464 C466 1.356 . S
N464 H469 0.984 . S
N464 H470 0.985 . S
C465 C459 1.379 . S
C465 C462 1.360 1_565 S
C465 N463 1.356 1_565 S
C466 C460 1.363 . S
C466 C461 1.379 . S
C466 N464 1.356 . S
N467 C459 1.356 . S
N467 H473 0.984 . S
N467 H474 0.984 . S
N468 C461 1.356 1_545 S
N468 H471 0.984 . S
N468 H472 0.985 1_545 S
H469 N464 0.984 . S
H470 N464 0.985 . S
H471 N468 0.984 . S
H472 N468 0.985 1_565 S
H473 N467 0.984 . S
H474 N467 0.984 . S
H475 N463 0.984 . S
H476 N463 0.985 . S
C477 C478 1.363 . S
C477 C483 1.379 . S
C477 N485 1.356 . S
C478 C477 1.363 . S
C478 C484 1.363 . S
C479 C480 1.363 . S
C479 C484 1.379 . S
C479 N486 1.356 1_565 S
C480 C479 1.363 . S
C480 C483 1.363 . S
N481 C483 1.356 . S
N481 H493 0.984 . S
N481 H494 0.985 . S
N482 C484 1.369 . S
N482 H487 0.975 1_455 S
N482 H488 0.982 . S
C483 C477 1.379 . S
C483 C480 1.363 . S
C483 N481 1.356 . S
C484 C478 1.363 . S
C484 C479 1.379 . S
C484 N482 1.369 . S
N485 C477 1.356 . S
N485 H491 0.984 . S
N485 H492 0.984 1_455 S
N486 C479 1.356 1_545 S
N486 H489 0.984 . S
N486 H490 0.985 . S
H487 N482 0.975 1_655 S
H488 N482 0.982 . S
H489 N486 0.984 . S
H490 N486 0.985 . S
H491 N485 0.984 . S
H492 N485 0.984 1_655 S
H493 N481 0.984 . S
H494 N481 0.985 . S
C495 C496 1.363 . S
C495 C501 1.379 . S
C495 N503 1.356 . S
C496 C495 1.363 . S
C496 C502 1.363 . S
C497 C498 1.363 . S
C497 C502 1.379 . S
C497 N504 1.356 . S
C498 C497 1.363 . S
C498 C501 1.363 . S
N499 C501 1.356 . S
N499 H511 0.984 . S
N499 H512 0.985 . S
N500 C502 1.356 . S
N500 H505 0.984 . S
N500 H506 0.985 . S
C501 C495 1.379 . S
C501 C498 1.363 . S
C501 N499 1.356 . S
C502 C496 1.363 . S
C502 C497 1.379 . S
C502 N500 1.356 . S
N503 C495 1.356 . S
N503 H509 0.984 . S
N503 H510 0.984 . S
N504 C497 1.356 . S
N504 H507 0.984 1_455 S
N504 H508 0.985 . S
H505 N500 0.984 . S
H506 N500 0.985 . S
H507 N504 0.984 1_655 S
H508 N504 0.985 . S
H509 N503 0.984 . S
H510 N503 0.984 . S
H511 N499 0.984 . S
H512 N499 0.985 . S
C513 C514 1.363 . S
C513 C519 1.379 . S
C513 N521 1.356 . S
C514 C513 1.363 . S
C514 C520 1.363 . S
C515 C516 1.363 . S
C515 C520 1.379 . S
C515 N522 1.356 . S
C516 C515 1.363 . S
C516 C519 1.363 . S
N517 C519 1.356 . S
N517 H529 0.984 . S
N517 H530 0.985 . S
N518 C520 1.356 . S
N518 H523 0.984 . S
N518 H524 0.985 . S
C519 C513 1.379 . S
C519 C516 1.363 . S
C519 N517 1.356 . S
C520 C514 1.363 . S
C520 C515 1.379 . S
C520 N518 1.356 . S
N521 C513 1.356 . S
N521 H527 0.984 . S
N521 H528 0.984 . S
N522 C515 1.356 . S
N522 H525 0.984 . S
N522 H526 0.985 . S
H523 N518 0.984 . S
H524 N518 0.985 . S
H525 N522 0.984 . S
H526 N522 0.985 . S
H527 N521 0.984 . S
H528 N521 0.984 . S
H529 N517 0.984 . S
H530 N517 0.985 . S
C531 C532 1.363 . S
C531 C537 1.379 . S
C531 N539 1.356 . S
C532 C531 1.363 . S
C532 C538 1.363 . S
C533 C534 1.363 . S
C533 C538 1.379 . S
C533 N540 1.356 . S
C534 C533 1.363 . S
C534 C537 1.363 . S
N535 C537 1.356 . S
N535 H547 0.984 . S
N535 H548 0.985 . S
N536 C538 1.356 . S
N536 H541 0.984 . S
N536 H542 0.985 . S
C537 C531 1.379 . S
C537 C534 1.363 . S
C537 N535 1.356 . S
C538 C532 1.363 . S
C538 C533 1.379 . S
C538 N536 1.356 . S
N539 C531 1.356 . S
N539 H545 0.984 . S
N539 H546 0.984 . S
N540 C533 1.356 . S
N540 H543 0.984 . S
N540 H544 0.985 . S
H541 N536 0.984 . S
H542 N536 0.985 . S
H543 N540 0.984 . S
H544 N540 0.985 . S
H545 N539 0.984 . S
H546 N539 0.984 . S
H547 N535 0.984 . S
H548 N535 0.985 . S
C549 C550 1.363 . S
C549 C555 1.379 . S
C549 N557 1.356 1_565 S
C550 C549 1.363 . S
C550 C556 1.363 . S
C551 C552 1.363 . S
C551 C556 1.379 . S
C551 N558 1.356 . S
C552 C551 1.363 . S
C552 C555 1.363 . S
N553 C555 1.356 . S
N553 H565 0.984 1_565 S
N553 H566 0.985 . S
N554 C556 1.356 . S
N554 H559 0.984 . S
N554 H560 0.985 . S
C555 C549 1.379 . S
C555 C552 1.363 . S
C555 N553 1.356 . S
C556 C550 1.363 . S
C556 C551 1.379 . S
C556 N554 1.356 . S
N557 C549 1.356 1_545 S
N557 H563 0.984 . S
N557 H564 0.984 . S
N558 C551 1.356 . S
N558 H561 0.984 . S
N558 H562 0.985 . S
H559 N554 0.984 . S
H560 N554 0.985 . S
H561 N558 0.984 . S
H562 N558 0.985 . S
H563 N557 0.984 . S
H564 N557 0.984 . S
H565 N553 0.984 1_545 S
H566 N553 0.985 . S
C567 C568 1.363 . S
C567 C573 1.379 . S
C567 N575 1.356 . S
C568 C567 1.363 . S
C568 C574 1.363 . S
C569 C570 1.363 . S
C569 C574 1.379 . S
C569 N576 1.356 . S
C570 C569 1.363 . S
C570 C573 1.363 . S
N571 C573 1.356 . S
N571 H583 0.984 . S
N571 H584 0.985 . S
N572 C574 1.356 1_565 S
N572 H577 0.984 . S
N572 H578 0.985 . S
C573 C567 1.379 . S
C573 C570 1.363 . S
C573 N571 1.356 . S
C574 C568 1.363 . S
C574 C569 1.379 . S
C574 N572 1.356 1_545 S
N575 C567 1.356 . S
N575 H581 0.984 . S
N575 H582 0.984 . S
N576 C569 1.356 . S
N576 H579 0.984 . S
N576 H580 0.985 . S
H577 N572 0.984 . S
H578 N572 0.985 . S
H579 N576 0.984 . S
H580 N576 0.985 . S
H581 N575 0.984 . S
H582 N575 0.984 . S
H583 N571 0.984 . S
H584 N571 0.985 . S
C585 C586 1.363 . S
C585 C591 1.379 . S
C585 N593 1.356 . S
C586 C585 1.363 . S
C586 C592 1.363 . S
C587 C588 1.363 . S
C587 C592 1.379 . S
C587 N594 1.356 . S
C588 C587 1.363 . S
C588 C591 1.363 . S
N589 C591 1.356 . S
N589 H601 0.984 . S
N589 H602 0.985 . S
N590 C592 1.356 . S
N590 H595 0.984 . S
N590 H596 0.985 . S
C591 C585 1.379 . S
C591 C588 1.363 . S
C591 N589 1.356 . S
C592 C586 1.363 . S
C592 C587 1.379 . S
C592 N590 1.356 . S
N593 C585 1.356 . S
N593 H599 0.984 . S
N593 H600 0.984 . S
N594 C587 1.356 . S
N594 H597 0.984 . S
N594 H598 0.985 . S
H595 N590 0.984 . S
H596 N590 0.985 . S
H597 N594 0.984 . S
H598 N594 0.985 . S
H599 N593 0.984 . S
H600 N593 0.984 . S
H601 N589 0.984 . S
H602 N589 0.985 . S
C603 C604 1.363 . S
C603 C609 1.379 . S
C603 N611 1.356 . S
C604 C603 1.363 . S
C604 C610 1.363 . S
C605 C606 1.363 . S
C605 C610 1.379 . S
C605 N612 1.356 . S
C606 C605 1.363 . S
C606 C609 1.363 . S
N607 C609 1.356 . S
N607 H619 0.984 . S
N607 H620 0.985 . S
N608 C610 1.356 . S
N608 H613 0.984 . S
N608 H614 0.985 . S
C609 C603 1.379 . S
C609 C606 1.363 . S
C609 N607 1.356 . S
C610 C604 1.363 . S
C610 C605 1.379 . S
C610 N608 1.356 . S
N611 C603 1.356 . S
N611 H617 0.984 . S
N611 H618 0.984 . S
N612 C605 1.356 . S
N612 H615 0.984 . S
N612 H616 0.985 . S
H613 N608 0.984 . S
H614 N608 0.985 . S
H615 N612 0.984 . S
H616 N612 0.985 . S
H617 N611 0.984 . S
H618 N611 0.984 . S
H619 N607 0.984 . S
H620 N607 0.985 . S
C621 C622 1.363 . S
C621 C627 1.379 . S
C621 N629 1.356 . S
C622 C621 1.363 . S
C622 C628 1.363 . S
C623 C624 1.363 . S
C623 C628 1.379 . S
C623 N630 1.356 . S
C624 C623 1.363 . S
C624 C627 1.363 . S
N625 C627 1.356 . S
N625 H637 0.984 . S
N625 H638 0.985 . S
N626 C628 1.356 . S
N626 H631 0.984 . S
N626 H632 0.985 . S
C627 C621 1.379 . S
C627 C624 1.363 . S
C627 N625 1.356 . S
C628 C622 1.363 . S
C628 C623 1.379 . S
C628 N626 1.356 . S
N629 C621 1.356 . S
N629 H635 0.984 . S
N629 H636 0.984 . S
N630 C623 1.356 . S
N630 H633 0.984 . S
N630 H634 0.985 . S
H631 N626 0.984 . S
H632 N626 0.985 . S
H633 N630 0.984 . S
H634 N630 0.985 . S
H635 N629 0.984 . S
H636 N629 0.984 . S
H637 N625 0.984 . S
H638 N625 0.985 . S
C639 C640 1.363 1_545 S
C639 C645 1.379 . S
C639 N647 1.356 . S
C640 C639 1.363 1_565 S
C640 C646 1.363 . S
C641 C642 1.363 1_565 S
C641 C646 1.379 . S
C641 N648 1.356 1_565 S
C642 C641 1.363 1_545 S
C642 C645 1.363 . S
N643 C645 1.356 . S
N643 H655 0.984 . S
N643 H656 0.985 . S
N644 C646 1.356 . S
N644 H649 0.984 . S
N644 H650 0.985 . S
C645 C639 1.379 . S
C645 C642 1.363 . S
C645 N643 1.356 . S
C646 C640 1.363 . S
C646 C641 1.379 . S
C646 N644 1.356 . S
N647 C639 1.356 . S
N647 H653 0.984 . S
N647 H654 0.984 1_545 S
N648 C641 1.356 1_545 S
N648 H651 0.984 . S
N648 H652 0.985 1_545 S
H649 N644 0.984 . S
H650 N644 0.985 . S
H651 N648 0.984 . S
H652 N648 0.985 1_565 S
H653 N647 0.984 . S
H654 N647 0.984 1_565 S
H655 N643 0.984 . S
H656 N643 0.985 . S
C657 C658 1.363 . S
C657 C663 1.379 1_655 S
C657 N665 1.356 . S
C658 C657 1.363 . S
C658 C664 1.363 1_655 S
C659 C660 1.363 . S
C659 C664 1.379 . S
C659 N666 1.356 . S
C660 C659 1.363 . S
C660 C663 1.363 . S
N661 C663 1.356 . S
N661 H673 0.984 . S
N661 H674 0.985 . S
N662 C664 1.356 1_655 S
N662 H667 0.984 . S
N662 H668 0.985 1_655 S
C663 C657 1.379 1_455 S
C663 C660 1.363 . S
C663 N661 1.356 . S
C664 C658 1.363 1_455 S
C664 C659 1.379 . S
C664 N662 1.356 1_455 S
N665 C657 1.356 . S
N665 H671 0.984 . S
N665 H672 0.984 . S
N666 C659 1.356 . S
N666 H669 0.984 . S
N666 H670 0.985 . S
H667 N662 0.984 . S
H668 N662 0.985 1_455 S
H669 N666 0.984 . S
H670 N666 0.985 . S
H671 N665 0.984 . S
H672 N665 0.984 . S
H673 N661 0.984 . S
H674 N661 0.985 . S
C190 C34 1.235 1_554 S
C192 C17 1.160 1_554 S
C208 C55 1.235 1_554 S
C210 C35 1.160 1_554 S
C226 C56 1.160 1_554 S
C228 C16 1.235 1_554 S
C244 C59 1.160 . S
C246 C37 1.235 . S
C262 C58 1.235 . S
C264 C14 1.159 . S
C280 C13 1.235 . S
C282 C38 1.159 . S
C298 C77 1.159 . S
C300 C97 1.242 . S
C316 C118 1.235 . S
C318 C98 1.160 . S
C334 C119 1.159 . S
C336 C76 1.235 1_545 S
C352 C100 1.235 . S
C354 C122 1.160 . S
C370 C121 1.235 . S
C372 C80 1.160 . S
C388 C101 1.159 . S
C390 C79 1.235 . S
C406 C160 1.235 . S
C408 C140 1.159 . S
C424 C161 1.160 . S
C426 C184 1.235 . S
C442 C185 1.160 . S
C444 C139 1.235 . S
C460 C182 1.160 . S
C462 C163 1.239 . S
C478 C181 1.235 1_455 S
C480 C143 1.159 . S
C496 C142 1.235 . S
C498 C164 1.159 . S
C514 C120 1.783 . S
C516 C15 1.783 . S
C532 C78 1.783 . S
C534 C39 1.783 . S
C550 C60 1.782 1_565 S
C552 C99 1.782 . S
C568 C57 1.783 . S
C570 C144 1.783 . S
C586 C18 1.783 1_655 S
C588 C165 1.783 . S
C604 C183 1.783 . S
C606 C36 1.783 . S
C622 C81 1.783 . S
C624 C186 1.783 . S
C640 C102 1.783 . S
C642 C141 1.783 . S
C658 C162 1.782 . S
C660 C123 1.782 . S
