# Generated by pormake.
# Topology cds-f, (5)-cn, num edge types: 1
# Building blocks:
#     Node 0, Type 0, BuildingBlock: XOMCOT_clean_sbu_1, # of connection points: 5
#     Node 1, Type 0, BuildingBlock: XOMCOT_clean_sbu_1, # of connection points: 5
#     Node 2, Type 0, BuildingBlock: XOMCOT_clean_sbu_1, # of connection points: 5
#     Node 3, Type 0, BuildingBlock: XOMCOT_clean_sbu_1, # of connection points: 5
#     Node 4, Type 0, BuildingBlock: XOMCOT_clean_sbu_1, # of connection points: 5
#     Node 5, Type 0, BuildingBlock: XOMCOT_clean_sbu_1, # of connection points: 5
#     Node 6, Type 0, BuildingBlock: XOMCOT_clean_sbu_1, # of connection points: 5
#     Node 7, Type 0, BuildingBlock: XOMCOT_clean_sbu_1, # of connection points: 5
#     Node 8, Type 0, BuildingBlock: XOMCOT_clean_sbu_1, # of connection points: 5
#     Node 9, Type 0, BuildingBlock: XOMCOT_clean_sbu_1, # of connection points: 5
#     Node 10, Type 0, BuildingBlock: XOMCOT_clean_sbu_1, # of connection points: 5
#     Node 11, Type 0, BuildingBlock: XOMCOT_clean_sbu_1, # of connection points: 5
#     Node 12, Type 0, BuildingBlock: XOMCOT_clean_sbu_1, # of connection points: 5
#     Node 13, Type 0, BuildingBlock: XOMCOT_clean_sbu_1, # of connection points: 5
#     Node 14, Type 0, BuildingBlock: XOMCOT_clean_sbu_1, # of connection points: 5
#     Node 15, Type 0, BuildingBlock: XOMCOT_clean_sbu_1, # of connection points: 5
#     Edge 16, Type (0, 0), BuildingBlock: ZUJKAS_clean_linker_0, # of connection points: 2
#     Edge 17, Type (0, 0), BuildingBlock: ZUJKAS_clean_linker_0, # of connection points: 2
#     Edge 18, Type (0, 0), BuildingBlock: ZUJKAS_clean_linker_0, # of connection points: 2
#     Edge 19, Type (0, 0), BuildingBlock: ZUJKAS_clean_linker_0, # of connection points: 2
#     Edge 20, Type (0, 0), BuildingBlock: ZUJKAS_clean_linker_0, # of connection points: 2
#     Edge 21, Type (0, 0), BuildingBlock: ZUJKAS_clean_linker_0, # of connection points: 2
#     Edge 22, Type (0, 0), BuildingBlock: ZUJKAS_clean_linker_0, # of connection points: 2
#     Edge 23, Type (0, 0), BuildingBlock: ZUJKAS_clean_linker_0, # of connection points: 2
#     Edge 24, Type (0, 0), BuildingBlock: ZUJKAS_clean_linker_0, # of connection points: 2
#     Edge 25, Type (0, 0), BuildingBlock: ZUJKAS_clean_linker_0, # of connection points: 2
#     Edge 26, Type (0, 0), BuildingBlock: ZUJKAS_clean_linker_0, # of connection points: 2
#     Edge 27, Type (0, 0), BuildingBlock: ZUJKAS_clean_linker_0, # of connection points: 2
#     Edge 28, Type (0, 0), BuildingBlock: ZUJKAS_clean_linker_0, # of connection points: 2
#     Edge 29, Type (0, 0), BuildingBlock: ZUJKAS_clean_linker_0, # of connection points: 2
#     Edge 30, Type (0, 0), BuildingBlock: ZUJKAS_clean_linker_0, # of connection points: 2
#     Edge 31, Type (0, 0), BuildingBlock: ZUJKAS_clean_linker_0, # of connection points: 2
#     Edge 32, Type (0, 0), BuildingBlock: ZUJKAS_clean_linker_0, # of connection points: 2
#     Edge 33, Type (0, 0), BuildingBlock: ZUJKAS_clean_linker_0, # of connection points: 2
#     Edge 34, Type (0, 0), BuildingBlock: ZUJKAS_clean_linker_0, # of connection points: 2
#     Edge 35, Type (0, 0), BuildingBlock: ZUJKAS_clean_linker_0, # of connection points: 2
#     Edge 36, Type (0, 0), BuildingBlock: ZUJKAS_clean_linker_0, # of connection points: 2
#     Edge 37, Type (0, 0), BuildingBlock: ZUJKAS_clean_linker_0, # of connection points: 2
#     Edge 38, Type (0, 0), BuildingBlock: ZUJKAS_clean_linker_0, # of connection points: 2
#     Edge 39, Type (0, 0), BuildingBlock: ZUJKAS_clean_linker_0, # of connection points: 2
#     Edge 40, Type (0, 0), BuildingBlock: ZUJKAS_clean_linker_0, # of connection points: 2
#     Edge 41, Type (0, 0), BuildingBlock: ZUJKAS_clean_linker_0, # of connection points: 2
#     Edge 42, Type (0, 0), BuildingBlock: ZUJKAS_clean_linker_0, # of connection points: 2
#     Edge 43, Type (0, 0), BuildingBlock: ZUJKAS_clean_linker_0, # of connection points: 2
#     Edge 44, Type (0, 0), BuildingBlock: ZUJKAS_clean_linker_0, # of connection points: 2
#     Edge 45, Type (0, 0), BuildingBlock: ZUJKAS_clean_linker_0, # of connection points: 2
#     Edge 46, Type (0, 0), BuildingBlock: ZUJKAS_clean_linker_0, # of connection points: 2
#     Edge 47, Type (0, 0), BuildingBlock: ZUJKAS_clean_linker_0, # of connection points: 2
#     Edge 48, Type (0, 0), BuildingBlock: ZUJKAS_clean_linker_0, # of connection points: 2
#     Edge 49, Type (0, 0), BuildingBlock: ZUJKAS_clean_linker_0, # of connection points: 2
#     Edge 50, Type (0, 0), BuildingBlock: ZUJKAS_clean_linker_0, # of connection points: 2
#     Edge 51, Type (0, 0), BuildingBlock: ZUJKAS_clean_linker_0, # of connection points: 2
#     Edge 52, Type (0, 0), BuildingBlock: ZUJKAS_clean_linker_0, # of connection points: 2
#     Edge 53, Type (0, 0), BuildingBlock: ZUJKAS_clean_linker_0, # of connection points: 2
#     Edge 54, Type (0, 0), BuildingBlock: ZUJKAS_clean_linker_0, # of connection points: 2
#     Edge 55, Type (0, 0), BuildingBlock: ZUJKAS_clean_linker_0, # of connection points: 2
# Relax obj value: 0.242
# Max RMSD: 0.190
# Mean RMSD: 0.181
data_MOF--net-cds-f--node1-XOMCOT_clean_sbu_1--edge1-ZUJKAS_clean_linker_0
_symmetry_space_group_name_H-M    P1
_symmetry_Int_Tables_number       1
_symmetry_cell_setting            triclinic
loop_
_symmetry_equiv_pos_as_xyz
'x, y, z'
_cell_length_a     44.31695
_cell_length_b     44.356243
_cell_length_c     72.741782
_cell_angle_alpha  91.351319
_cell_angle_beta   89.937289
_cell_angle_gamma 91.138277
loop_
_atom_site_label
_atom_site_type_symbol
_atom_site_fract_x
_atom_site_fract_y
_atom_site_fract_z
_atom_type_partial_charge
C0 C 0.2924 0.29187 0.16149 0.0
C1 C 0.32242 0.29317 0.16613 0.0
N2 N 0.33375 0.26532 0.1642 0.0
N3 N 0.28451 0.26345 0.15618 0.0
C4 C 0.30997 0.24753 0.15874 0.0
H5 H 0.27741 0.3108 0.16156 0.0
Co6 Co 0.24509 0.25237 0.14793 0.0
C7 C 0.28363 0.22114 0.1175 0.0
O8 O 0.30986 0.2334 0.12197 0.0
N9 N 0.20522 0.24197 0.14001 0.0
C10 C 0.16631 0.23457 0.12098 0.0
C11 C 0.19705 0.23821 0.12221 0.0
C12 C 0.17863 0.24111 0.14933 0.0
N13 N 0.15456 0.2365 0.13803 0.0
O14 O 0.2448 0.21928 0.16447 0.0
H15 H 0.2122 0.2402 0.11065 0.0
H16 H 0.17677 0.24495 0.16401 0.0
O17 O 0.26013 0.22735 0.12704 0.0
C18 C 0.23484 0.23081 0.17949 0.0
O19 O 0.22776 0.25946 0.17983 0.0
N20 N 0.24401 0.2868 0.13353 0.0
C21 C 0.24314 0.34539 0.12066 0.0
C22 C 0.26412 0.32475 0.11371 0.0
C23 C 0.26413 0.29535 0.12031 0.0
C24 C 0.22287 0.30634 0.1399 0.0
C25 C 0.22178 0.33555 0.1335 0.0
H26 H 0.28155 0.28049 0.11569 0.0
H27 H 0.20785 0.29979 0.15089 0.0
H28 H 0.31122 0.22344 0.15623 0.0
H29 H 0.33517 0.31346 0.16985 0.0
H30 H 0.15345 0.23263 0.10835 0.0
H31 H 0.28115 0.33164 0.10389 0.0
H32 H 0.20569 0.35091 0.1396 0.0
C33 C 0.74291 0.30151 0.66628 0.0
C34 C 0.73957 0.33221 0.66813 0.0
N35 N 0.75684 0.3459 0.65538 0.0
N36 N 0.7623 0.29545 0.65249 0.0
C37 C 0.77038 0.32298 0.64609 0.0
H38 H 0.73186 0.28458 0.67452 0.0
Co39 Co 0.77303 0.25579 0.64562 0.0
C40 C 0.82124 0.28403 0.6194 0.0
O41 O 0.84088 0.29711 0.63067 0.0
N42 N 0.78393 0.21535 0.6389 0.0
C43 C 0.80619 0.17609 0.62524 0.0
C44 C 0.80366 0.20683 0.62565 0.0
C45 C 0.7749 0.18881 0.64638 0.0
N46 N 0.78819 0.16458 0.63832 0.0
O47 O 0.80512 0.25791 0.66355 0.0
H48 H 0.816 0.22164 0.61671 0.0
H49 H 0.75918 0.18724 0.6577 0.0
O50 O 0.79813 0.27026 0.62577 0.0
C51 C 0.79428 0.2461 0.67807 0.0
O52 O 0.76653 0.23516 0.67751 0.0
N53 N 0.73987 0.25334 0.62971 0.0
C54 C 0.68342 0.25434 0.61269 0.0
C55 C 0.70688 0.27397 0.60727 0.0
C56 C 0.73498 0.27312 0.61596 0.0
C57 C 0.71771 0.23351 0.63474 0.0
C58 C 0.68963 0.23314 0.62615 0.0
H59 H 0.752 0.28974 0.61241 0.0
H60 H 0.72119 0.21894 0.64618 0.0
H61 H 0.7854 0.32622 0.6346 0.0
H62 H 0.72572 0.34344 0.67833 0.0
H63 H 0.8201 0.16324 0.6158 0.0
H64 H 0.70315 0.29113 0.59722 0.0
H65 H 0.67253 0.21717 0.63065 0.0
C66 C 0.80538 0.73813 0.11166 0.0
C67 C 0.83607 0.73521 0.10976 0.0
N68 N 0.85 0.75713 0.11996 0.0
N69 N 0.79973 0.76158 0.12317 0.0
C70 C 0.82735 0.77278 0.12799 0.0
H71 H 0.78825 0.72449 0.10468 0.0
Co72 Co 0.76146 0.77687 0.12802 0.0
C73 C 0.7602 0.79263 0.16771 0.0
O74 O 0.73202 0.78285 0.16777 0.0
N75 N 0.72224 0.79342 0.1323 0.0
C76 C 0.6879 0.82845 0.13832 0.0
C77 C 0.7182 0.8225 0.13754 0.0
C78 C 0.69365 0.78239 0.12972 0.0
N79 N 0.6723 0.8032 0.13335 0.0
O80 O 0.77406 0.81331 0.11628 0.0
H81 H 0.73631 0.83853 0.14059 0.0
H82 H 0.68826 0.75989 0.12475 0.0
O83 O 0.77533 0.79186 0.15265 0.0
C84 C 0.76263 0.81285 0.10018 0.0
O85 O 0.7433 0.79109 0.09567 0.0
N86 N 0.74964 0.73923 0.13724 0.0
C87 C 0.7393 0.67769 0.14236 0.0
C88 C 0.75715 0.69479 0.15482 0.0
C89 C 0.76244 0.72551 0.15187 0.0
C90 C 0.73287 0.72266 0.12483 0.0
C91 C 0.72677 0.69213 0.12734 0.0
H92 H 0.77852 0.73744 0.16062 0.0
H93 H 0.72582 0.7328 0.11221 0.0
H94 H 0.83071 0.79284 0.13656 0.0
H95 H 0.84719 0.71833 0.10135 0.0
H96 H 0.67823 0.84982 0.14234 0.0
H97 H 0.76794 0.68426 0.16631 0.0
H98 H 0.71405 0.67953 0.11693 0.0
C99 C 0.31062 0.75125 0.66382 0.0
C100 C 0.31097 0.72077 0.66669 0.0
N101 N 0.29554 0.70649 0.653 0.0
N102 N 0.29486 0.75654 0.64844 0.0
C103 C 0.28583 0.72875 0.64214 0.0
H104 H 0.32223 0.76836 0.67209 0.0
Co105 Co 0.29294 0.79492 0.63817 0.0
C106 C 0.23925 0.79186 0.61415 0.0
O107 O 0.22859 0.81598 0.62251 0.0
N108 N 0.29187 0.83387 0.62767 0.0
C109 C 0.29311 0.86953 0.60658 0.0
C110 C 0.29317 0.83904 0.60945 0.0
C111 C 0.29123 0.86192 0.63556 0.0
N112 N 0.29198 0.88404 0.62303 0.0
O113 O 0.26249 0.80578 0.65604 0.0
H114 H 0.29415 0.82165 0.59881 0.0
H115 H 0.29097 0.86633 0.65019 0.0
O116 O 0.26332 0.78022 0.62015 0.0
C117 C 0.27558 0.81811 0.67004 0.0
O118 O 0.30495 0.82272 0.66938 0.0
N119 N 0.3246 0.78458 0.62255 0.0
C120 C 0.37808 0.76648 0.60605 0.0
C121 C 0.35022 0.75584 0.59917 0.0
C122 C 0.32355 0.76495 0.60779 0.0
C123 C 0.3514 0.79608 0.62887 0.0
C124 C 0.37845 0.78732 0.62083 0.0
H125 H 0.30242 0.75521 0.60301 0.0
H126 H 0.35173 0.81127 0.64073 0.0
H127 H 0.27375 0.72476 0.62937 0.0
H128 H 0.3222 0.70996 0.6779 0.0
H129 H 0.29371 0.88012 0.59333 0.0
H130 H 0.34914 0.73951 0.58786 0.0
H131 H 0.39956 0.79619 0.62643 0.0
C132 C 0.30179 0.76422 0.86003 0.0
C133 C 0.33221 0.76596 0.85643 0.0
N134 N 0.34572 0.78303 0.86976 0.0
N135 N 0.29578 0.7801 0.87557 0.0
C136 C 0.32294 0.79185 0.88101 0.0
H137 H 0.28521 0.75121 0.85217 0.0
Co138 Co 0.25709 0.78058 0.88643 0.0
C139 C 0.28182 0.79584 0.9247 0.0
O140 O 0.28252 0.7674 0.92903 0.0
N141 N 0.2175 0.78186 0.89722 0.0
C142 C 0.18004 0.77894 0.91768 0.0
C143 C 0.21061 0.77693 0.91503 0.0
C144 C 0.19022 0.78658 0.88934 0.0
N145 N 0.1671 0.78498 0.9015 0.0
O146 O 0.2499 0.81726 0.87375 0.0
H147 H 0.22645 0.771 0.92548 0.0
H148 H 0.18706 0.79097 0.87495 0.0
O149 O 0.27263 0.80347 0.90874 0.0
C150 C 0.23878 0.80817 0.85833 0.0
O151 O 0.23282 0.77921 0.85584 0.0
N152 N 0.26358 0.74139 0.89587 0.0
C153 C 0.27305 0.67938 0.89843 0.0
C154 C 0.29661 0.7002 0.90184 0.0
C155 C 0.29155 0.73096 0.90021 0.0
C156 C 0.24046 0.72111 0.89257 0.0
C157 C 0.24452 0.6902 0.89417 0.0
H158 H 0.31058 0.74624 0.90205 0.0
H159 H 0.21913 0.72841 0.8873 0.0
H160 H 0.32623 0.80494 0.8936 0.0
H161 H 0.34349 0.75489 0.84502 0.0
H162 H 0.16817 0.77509 0.93045 0.0
H163 H 0.31907 0.69273 0.90507 0.0
H164 H 0.22595 0.67483 0.89076 0.0
C165 C 0.31759 0.23009 0.41133 0.0
C166 C 0.32149 0.19961 0.41309 0.0
N167 N 0.29742 0.18482 0.40563 0.0
N168 N 0.29132 0.2347 0.40266 0.0
C169 C 0.27944 0.20671 0.39938 0.0
H170 H 0.33272 0.24784 0.41635 0.0
Co171 Co 0.27543 0.27273 0.39895 0.0
C172 C 0.24344 0.26849 0.36317 0.0
O173 O 0.25111 0.29683 0.3606 0.0
N174 N 0.25885 0.31194 0.39608 0.0
C175 C 0.22384 0.34737 0.395 0.0
C176 C 0.22886 0.31692 0.3956 0.0
C177 C 0.27149 0.34015 0.39621 0.0
N178 N 0.25069 0.36208 0.39544 0.0
O179 O 0.24451 0.26344 0.41658 0.0
H180 H 0.21157 0.29938 0.39587 0.0
H181 H 0.29539 0.34487 0.3971 0.0
O182 O 0.25079 0.25598 0.37821 0.0
C183 C 0.24956 0.27703 0.43195 0.0
O184 O 0.27222 0.29653 0.43316 0.0
N185 N 0.30816 0.28122 0.38315 0.0
C186 C 0.36505 0.28506 0.36656 0.0
C187 C 0.34163 0.26785 0.35837 0.0
C188 C 0.31371 0.26554 0.36712 0.0
C189 C 0.33063 0.29829 0.3912 0.0
C190 C 0.35906 0.30094 0.38302 0.0
H191 H 0.29781 0.24905 0.36165 0.0
H192 H 0.32725 0.308 0.4048 0.0
H193 H 0.25755 0.20252 0.39315 0.0
H194 H 0.34062 0.18921 0.41943 0.0
H195 H 0.20201 0.35787 0.39487 0.0
H196 H 0.34535 0.25475 0.34585 0.0
H197 H 0.37676 0.31348 0.39026 0.0
C198 C 0.80314 0.31537 0.92175 0.0
C199 C 0.83404 0.31827 0.92326 0.0
N200 N 0.84674 0.29646 0.91278 0.0
N201 N 0.79628 0.29201 0.91026 0.0
C202 C 0.82326 0.28086 0.90505 0.0
H203 H 0.78671 0.32906 0.92887 0.0
Co204 Co 0.75765 0.27668 0.90518 0.0
C205 C 0.75707 0.26102 0.86551 0.0
O206 O 0.72933 0.27092 0.86531 0.0
N207 N 0.71803 0.25992 0.90052 0.0
C208 C 0.68296 0.22439 0.89418 0.0
C209 C 0.71336 0.23058 0.89572 0.0
C210 C 0.68968 0.27093 0.90201 0.0
N211 N 0.66793 0.24981 0.89815 0.0
O212 O 0.76832 0.24056 0.91758 0.0
H213 H 0.73111 0.21448 0.89356 0.0
H214 H 0.6847 0.29389 0.90583 0.0
O215 O 0.77172 0.26126 0.88074 0.0
C216 C 0.75642 0.24222 0.93357 0.0
O217 O 0.73832 0.26463 0.93738 0.0
N218 N 0.74768 0.31409 0.89554 0.0
C219 C 0.73943 0.37534 0.88965 0.0
C220 C 0.7577 0.35822 0.8778 0.0
C221 C 0.76194 0.32766 0.88114 0.0
C222 C 0.7307 0.33076 0.90746 0.0
C223 C 0.72559 0.36113 0.90452 0.0
H224 H 0.7783 0.31575 0.8729 0.0
H225 H 0.72246 0.32079 0.91997 0.0
H226 H 0.82556 0.26093 0.89634 0.0
H227 H 0.84614 0.33512 0.93152 0.0
H228 H 0.67278 0.20258 0.89085 0.0
H229 H 0.76955 0.36862 0.86649 0.0
H230 H 0.71249 0.37383 0.9145 0.0
C231 C 0.73979 0.78978 0.40147 0.0
C232 C 0.7357 0.82024 0.40383 0.0
N233 N 0.7601 0.83503 0.39719 0.0
N234 N 0.76649 0.78503 0.39316 0.0
C235 C 0.77846 0.81305 0.39072 0.0
H236 H 0.72455 0.77213 0.40602 0.0
Co237 Co 0.78286 0.74671 0.38961 0.0
C238 C 0.81111 0.74588 0.35274 0.0
O239 O 0.80257 0.71741 0.35121 0.0
N240 N 0.80002 0.70733 0.38703 0.0
C241 C 0.83567 0.67243 0.38585 0.0
C242 C 0.83001 0.70279 0.38548 0.0
C243 C 0.78812 0.67902 0.38873 0.0
N244 N 0.80927 0.65739 0.38797 0.0
O245 O 0.815 0.75866 0.40606 0.0
H246 H 0.84691 0.72062 0.3845 0.0
H247 H 0.76455 0.67398 0.39085 0.0
O248 O 0.80533 0.76093 0.36759 0.0
C249 C 0.81032 0.74678 0.42163 0.0
O250 O 0.78729 0.72796 0.42341 0.0
N251 N 0.74901 0.73548 0.37516 0.0
C252 C 0.69108 0.72642 0.36056 0.0
C253 C 0.71253 0.74452 0.35158 0.0
C254 C 0.74114 0.7492 0.35927 0.0
C255 C 0.72826 0.71822 0.38416 0.0
C256 C 0.69958 0.71262 0.37686 0.0
H257 H 0.75576 0.76587 0.35318 0.0
H258 H 0.73322 0.71048 0.39779 0.0
H259 H 0.80072 0.81716 0.38507 0.0
H260 H 0.71625 0.83063 0.41014 0.0
H261 H 0.85771 0.66235 0.3853 0.0
H262 H 0.70662 0.75682 0.33946 0.0
H263 H 0.68374 0.69882 0.38447 0.0
C264 C 0.80133 0.75555 0.86517 0.0
C265 C 0.83197 0.75134 0.86439 0.0
N266 N 0.84573 0.77232 0.87537 0.0
N267 N 0.79556 0.77891 0.87671 0.0
C268 C 0.82304 0.78875 0.88271 0.0
H269 H 0.78433 0.74282 0.85748 0.0
Co270 Co 0.75733 0.795 0.88022 0.0
C271 C 0.75413 0.81569 0.91878 0.0
O272 O 0.72665 0.804 0.91892 0.0
N273 N 0.71806 0.81224 0.88319 0.0
C274 C 0.68375 0.84792 0.88743 0.0
C275 C 0.71405 0.84202 0.88645 0.0
C276 C 0.68944 0.80066 0.88206 0.0
N277 N 0.66815 0.82186 0.88467 0.0
O278 O 0.771 0.8295 0.86693 0.0
H279 H 0.73216 0.85857 0.88804 0.0
H280 H 0.68394 0.77718 0.87957 0.0
O281 O 0.77011 0.81358 0.90411 0.0
C282 C 0.75952 0.83001 0.85088 0.0
O283 O 0.73698 0.81135 0.84685 0.0
N284 N 0.74502 0.75886 0.89109 0.0
C285 C 0.7358 0.69792 0.89853 0.0
C286 C 0.75319 0.71657 0.91041 0.0
C287 C 0.75792 0.74695 0.90631 0.0
C288 C 0.72859 0.74079 0.87929 0.0
C289 C 0.723 0.71054 0.88297 0.0
H290 H 0.77378 0.76005 0.91461 0.0
H291 H 0.7214 0.7495 0.86628 0.0
H292 H 0.82642 0.80834 0.89167 0.0
H293 H 0.8432 0.7342 0.85623 0.0
H294 H 0.67405 0.8699 0.88966 0.0
H295 H 0.7642 0.70742 0.92228 0.0
H296 H 0.7106 0.69666 0.873 0.0
C297 C 0.32785 0.725 0.40271 0.0
C298 C 0.32767 0.69493 0.4067 0.0
N299 N 0.29936 0.68377 0.4046 0.0
N300 N 0.29996 0.73312 0.39762 0.0
C301 C 0.28282 0.70768 0.3996 0.0
H302 H 0.3474 0.73997 0.40316 0.0
Co303 Co 0.29142 0.773 0.39068 0.0
C304 C 0.25571 0.73843 0.35927 0.0
O305 O 0.25988 0.71036 0.36375 0.0
N306 N 0.2835 0.81328 0.38402 0.0
C307 C 0.27873 0.85277 0.36598 0.0
C308 C 0.28317 0.82233 0.36643 0.0
C309 C 0.27976 0.83914 0.39409 0.0
N310 N 0.27659 0.86351 0.38337 0.0
O311 O 0.25795 0.77307 0.40759 0.0
H312 H 0.28744 0.80792 0.35456 0.0
H313 H 0.27989 0.84029 0.40895 0.0
O314 O 0.2665 0.75997 0.36941 0.0
C315 C 0.26907 0.78195 0.42304 0.0
O316 O 0.29784 0.78974 0.42365 0.0
N317 N 0.32589 0.77343 0.37561 0.0
C318 C 0.38264 0.77172 0.35906 0.0
C319 C 0.35985 0.75082 0.35386 0.0
C320 C 0.33162 0.75202 0.36234 0.0
C321 C 0.34738 0.79456 0.38039 0.0
C322 C 0.37574 0.7944 0.37209 0.0
H323 H 0.3153 0.73437 0.35915 0.0
H324 H 0.34288 0.81095 0.39124 0.0
H325 H 0.25865 0.70671 0.39754 0.0
H326 H 0.34725 0.68209 0.41025 0.0
H327 H 0.27859 0.86621 0.35375 0.0
H328 H 0.36429 0.73249 0.3442 0.0
H329 H 0.39246 0.81123 0.37639 0.0
C330 C 0.30112 0.28401 0.92634 0.0
C331 C 0.33181 0.28568 0.92893 0.0
N332 N 0.34538 0.27193 0.9145 0.0
N333 N 0.29502 0.26913 0.9104 0.0
C334 C 0.32245 0.26188 0.90349 0.0
H335 H 0.28425 0.29361 0.93536 0.0
Co336 Co 0.25572 0.26433 0.9012 0.0
C337 C 0.26114 0.21916 0.87129 0.0
O338 O 0.24193 0.20154 0.87993 0.0
N339 N 0.21568 0.26022 0.89189 0.0
C340 C 0.17752 0.26237 0.87206 0.0
C341 C 0.20827 0.26408 0.87408 0.0
C342 C 0.18866 0.25682 0.90048 0.0
N343 N 0.16508 0.25791 0.88868 0.0
O344 O 0.25173 0.22763 0.91453 0.0
H345 H 0.2242 0.26909 0.86325 0.0
H346 H 0.18609 0.25428 0.91513 0.0
O347 O 0.27039 0.24366 0.87914 0.0
C348 C 0.24109 0.23345 0.9305 0.0
O349 O 0.23252 0.26104 0.9344 0.0
N350 N 0.2597 0.30141 0.89004 0.0
C351 C 0.2671 0.36113 0.87995 0.0
C352 C 0.28524 0.33869 0.87209 0.0
C353 C 0.28113 0.30876 0.87731 0.0
C354 C 0.2416 0.32283 0.89756 0.0
C355 C 0.24466 0.3528 0.89255 0.0
H356 H 0.29608 0.29189 0.8718 0.0
H357 H 0.22541 0.31671 0.90803 0.0
H358 H 0.3256 0.25046 0.89034 0.0
H359 H 0.34318 0.29636 0.9406 0.0
H360 H 0.16524 0.2657 0.85945 0.0
H361 H 0.30293 0.34436 0.86241 0.0
H362 H 0.23066 0.36953 0.89925 0.0
C363 C 0.73224 0.29684 0.40687 0.0
C364 C 0.73234 0.3274 0.41033 0.0
N365 N 0.76079 0.33823 0.40855 0.0
N366 N 0.76036 0.28809 0.40245 0.0
C367 C 0.77748 0.31368 0.40435 0.0
H368 H 0.71258 0.28202 0.407 0.0
Co369 Co 0.76939 0.24782 0.39552 0.0
C370 C 0.80772 0.28044 0.36539 0.0
O371 O 0.80156 0.30883 0.3688 0.0
N372 N 0.77787 0.20716 0.38868 0.0
C373 C 0.78512 0.16738 0.37005 0.0
C374 C 0.78067 0.19782 0.37095 0.0
C375 C 0.78005 0.1814 0.39833 0.0
N376 N 0.78475 0.15686 0.38724 0.0
O377 O 0.80155 0.24892 0.41323 0.0
H378 H 0.77828 0.21205 0.35921 0.0
H379 H 0.77785 0.1805 0.41312 0.0
O380 O 0.79623 0.25984 0.37537 0.0
C381 C 0.7899 0.24165 0.42861 0.0
O382 O 0.76131 0.23316 0.42881 0.0
N383 N 0.73612 0.24654 0.37952 0.0
C384 C 0.68017 0.2481 0.36217 0.0
C385 C 0.70353 0.26812 0.35726 0.0
C386 C 0.7314 0.267 0.36612 0.0
C387 C 0.71402 0.2262 0.38398 0.0
C388 C 0.68596 0.22638 0.37534 0.0
H389 H 0.74822 0.28399 0.3631 0.0
H390 H 0.71766 0.21076 0.39502 0.0
H391 H 0.80171 0.31434 0.40259 0.0
H392 H 0.7126 0.34075 0.41312 0.0
H393 H 0.78712 0.15378 0.35757 0.0
H394 H 0.69987 0.28533 0.34723 0.0
H395 H 0.66836 0.21091 0.37982 0.0
C396 C 0.79275 0.30206 0.16649 0.0
C397 C 0.82369 0.30495 0.16737 0.0
N398 N 0.83589 0.28038 0.15927 0.0
N399 N 0.78523 0.27592 0.15769 0.0
C400 C 0.81197 0.26316 0.15348 0.0
H401 H 0.77676 0.31764 0.17238 0.0
Co402 Co 0.74605 0.25965 0.15544 0.0
C403 C 0.74061 0.23606 0.11747 0.0
O404 O 0.71332 0.2471 0.11761 0.0
N405 N 0.70598 0.24206 0.15379 0.0
C406 C 0.67061 0.20562 0.1512 0.0
C407 C 0.70109 0.21205 0.15136 0.0
C408 C 0.67766 0.25324 0.15536 0.0
N409 N 0.65577 0.23156 0.15373 0.0
O410 O 0.75877 0.22662 0.16987 0.0
H411 H 0.71873 0.1957 0.14974 0.0
H412 H 0.67275 0.27674 0.15749 0.0
O413 O 0.75723 0.2392 0.13186 0.0
C414 C 0.7493 0.23157 0.18621 0.0
O415 O 0.73025 0.25355 0.18902 0.0
N416 N 0.73451 0.29469 0.14354 0.0
C417 C 0.72661 0.35483 0.13452 0.0
C418 C 0.74333 0.33561 0.12299 0.0
C419 C 0.74733 0.3056 0.12786 0.0
C420 C 0.71873 0.31335 0.15497 0.0
C421 C 0.71378 0.34317 0.1505 0.0
H422 H 0.76266 0.29209 0.11978 0.0
H423 H 0.71176 0.30563 0.16834 0.0
H424 H 0.81379 0.24099 0.14708 0.0
H425 H 0.83616 0.32366 0.17371 0.0
H426 H 0.66026 0.1834 0.14968 0.0
H427 H 0.75439 0.34407 0.11082 0.0
H428 H 0.70195 0.35758 0.16022 0.0
C429 C 0.72056 0.80018 0.6516 0.0
C430 C 0.71765 0.83066 0.65453 0.0
N431 N 0.74448 0.84434 0.65138 0.0
N432 N 0.74903 0.79412 0.64617 0.0
C433 C 0.7632 0.82161 0.64666 0.0
H434 H 0.70274 0.78386 0.65384 0.0
Co435 Co 0.76691 0.75586 0.64153 0.0
C436 C 0.78282 0.79093 0.60806 0.0
O437 O 0.7572 0.80526 0.60921 0.0
N438 N 0.78484 0.71808 0.63764 0.0
C439 C 0.81806 0.68243 0.63129 0.0
C440 C 0.81334 0.71303 0.63209 0.0
C441 C 0.77277 0.69019 0.6403 0.0
N442 N 0.79248 0.6679 0.63644 0.0
O443 O 0.79892 0.76867 0.65778 0.0
H444 H 0.82984 0.73051 0.62906 0.0
H445 H 0.74987 0.68637 0.64497 0.0
O446 O 0.78913 0.77137 0.62009 0.0
C447 C 0.79764 0.75679 0.67354 0.0
O448 O 0.77868 0.73407 0.67595 0.0
N449 N 0.73408 0.74243 0.62682 0.0
C450 C 0.67922 0.72866 0.60986 0.0
C451 C 0.70524 0.73324 0.59925 0.0
C452 C 0.7328 0.73954 0.60807 0.0
C453 C 0.71003 0.73344 0.63712 0.0
C454 C 0.68214 0.72719 0.62898 0.0
H455 H 0.75268 0.74247 0.59972 0.0
H456 H 0.71217 0.73284 0.65192 0.0
H457 H 0.78694 0.8248 0.64363 0.0
H458 H 0.69708 0.84178 0.65853 0.0
H459 H 0.83907 0.67187 0.62757 0.0
H460 H 0.70407 0.73331 0.58438 0.0
H461 H 0.66277 0.72237 0.63761 0.0
C462 C 0.30719 0.73313 0.11496 0.0
C463 C 0.33766 0.73276 0.11163 0.0
N464 N 0.35031 0.75838 0.11867 0.0
N465 N 0.30027 0.75856 0.12446 0.0
C466 C 0.3269 0.77415 0.12575 0.0
H467 H 0.29111 0.71557 0.11092 0.0
Co468 Co 0.26069 0.76731 0.1326 0.0
C469 C 0.29664 0.7825 0.1686 0.0
O470 O 0.32292 0.77199 0.16354 0.0
N471 N 0.22074 0.77561 0.14044 0.0
C472 C 0.18073 0.77682 0.15897 0.0
C473 C 0.21106 0.77183 0.15787 0.0
C474 C 0.19528 0.78213 0.13104 0.0
N475 N 0.17063 0.78322 0.14211 0.0
O476 O 0.26515 0.80667 0.12241 0.0
H477 H 0.22474 0.76391 0.16897 0.0
H478 H 0.19457 0.78506 0.11633 0.0
O479 O 0.27446 0.78148 0.15732 0.0
C480 C 0.25724 0.80326 0.10559 0.0
O481 O 0.24708 0.77665 0.09986 0.0
N482 N 0.25545 0.72767 0.14047 0.0
C483 C 0.25008 0.66527 0.14315 0.0
C484 C 0.27041 0.68185 0.1544 0.0
C485 C 0.27282 0.71315 0.15283 0.0
C486 C 0.2347 0.71203 0.13003 0.0
C487 C 0.23149 0.68087 0.13122 0.0
H488 H 0.28993 0.72507 0.16068 0.0
H489 H 0.2218 0.72362 0.11986 0.0
H490 H 0.32924 0.79614 0.13241 0.0
H491 H 0.3496 0.71476 0.10466 0.0
H492 H 0.16678 0.77406 0.17107 0.0
H493 H 0.28513 0.67064 0.16383 0.0
H494 H 0.21592 0.66898 0.12201 0.0
C495 C 0.33532 0.25025 0.65694 0.0
C496 C 0.33992 0.21968 0.65603 0.0
N497 N 0.31513 0.20594 0.64873 0.0
N498 N 0.30788 0.256 0.6501 0.0
C499 C 0.29594 0.22856 0.64534 0.0
H500 H 0.35083 0.26724 0.6625 0.0
Co501 Co 0.29132 0.29434 0.64959 0.0
C502 C 0.25668 0.29693 0.61534 0.0
O503 O 0.26734 0.32465 0.61409 0.0
N504 N 0.27381 0.3337 0.64984 0.0
C505 C 0.23736 0.36773 0.65141 0.0
C506 C 0.24379 0.33759 0.65186 0.0
C507 C 0.2851 0.36234 0.64843 0.0
N508 N 0.26337 0.38339 0.64922 0.0
O509 O 0.26317 0.28171 0.66811 0.0
H510 H 0.22734 0.31946 0.6533 0.0
H511 H 0.30858 0.36802 0.6464 0.0
O512 O 0.26401 0.28118 0.62917 0.0
C513 C 0.27216 0.29194 0.68375 0.0
O514 O 0.29525 0.31101 0.68427 0.0
N515 N 0.32196 0.30573 0.63306 0.0
C516 C 0.37841 0.31137 0.61604 0.0
C517 C 0.35518 0.29371 0.60788 0.0
C518 C 0.32727 0.29088 0.61671 0.0
C519 C 0.3442 0.32309 0.64106 0.0
C520 C 0.37209 0.32712 0.63252 0.0
H521 H 0.31123 0.27444 0.61121 0.0
H522 H 0.34106 0.33218 0.65484 0.0
H523 H 0.27359 0.22527 0.63959 0.0
H524 H 0.35973 0.20843 0.66089 0.0
H525 H 0.21519 0.37735 0.65275 0.0
H526 H 0.35919 0.28015 0.59559 0.0
H527 H 0.38913 0.34104 0.63942 0.0
H528 H 0.8636 0.24397 0.13403 0.0
H529 H 0.91766 0.23349 0.13188 0.0
H530 H 0.93466 0.29138 0.17931 0.0
H531 H 0.88089 0.30124 0.18187 0.0
H532 H 0.9652 0.27433 0.12675 0.0
H533 H 0.97986 0.21599 0.19261 0.0
H534 H 0.94321 0.22213 0.18273 0.0
H535 H 0.96269 0.25216 0.19514 0.0
C536 C 0.87877 0.25412 0.14416 0.0
C537 C 0.8677 0.2735 0.15811 0.0
C538 C 0.90973 0.24824 0.14286 0.0
C539 C 0.93029 0.26129 0.15559 0.0
C540 C 0.91929 0.28055 0.16953 0.0
H541 H 0.12719 0.26719 0.16618 0.0
H542 H 0.07263 0.27251 0.17097 0.0
C543 C 0.88844 0.2865 0.17082 0.0
C544 C 0.96335 0.25595 0.15384 0.0
H545 H 0.02483 0.23036 0.17683 0.0
C546 C 0.97817 0.26449 0.13765 0.0
C547 C 0.98043 0.24334 0.16812 0.0
C548 C 0.96574 0.23261 0.18557 0.0
C549 C 1.00951 0.2613 0.13546 0.0
C550 C 0.02659 0.24862 0.1497 0.0
C551 C 1.01181 0.24011 0.16592 0.0
C552 C 0.05967 0.24363 0.14779 0.0
C553 C 0.02417 0.27224 0.11804 0.0
C554 C 0.07059 0.22479 0.13362 0.0
C555 C 0.10164 0.22168 0.13091 0.0
C556 C 0.12266 0.23716 0.14236 0.0
C557 C 0.11171 0.25486 0.15715 0.0
C558 C 0.0805 0.25803 0.15983 0.0
H559 H 1.00985 0.28859 0.11091 0.0
H560 H 0.04649 0.28312 0.12095 0.0
H561 H 0.02766 0.25272 0.1085 0.0
H562 H 0.05505 0.21276 0.12446 0.0
H563 H 0.10923 0.20736 0.11964 0.0
H564 H 0.73938 0.13649 0.65376 0.0
H565 H 0.73258 0.08224 0.65885 0.0
H566 H 0.82111 0.06643 0.63642 0.0
H567 H 0.8285 0.12023 0.63204 0.0
H568 H 0.73175 0.03607 0.63361 0.0
H569 H 0.82493 1.01852 0.68248 0.0
H570 H 0.81209 0.0556 0.67701 0.0
H571 H 0.83789 0.0362 0.66193 0.0
C572 C 0.75761 0.12153 0.65026 0.0
C573 C 0.78445 0.1329 0.64243 0.0
C574 C 0.75363 0.09046 0.65306 0.0
C575 C 0.77651 0.07015 0.64827 0.0
C576 C 0.80335 0.08154 0.64063 0.0
H577 H 0.79004 0.87526 0.63435 0.0
H578 H 0.79817 0.93013 0.63431 0.0
C579 C 0.80736 0.11244 0.63787 0.0
C580 C 0.77191 0.03694 0.65026 0.0
H581 H 0.80387 0.97402 0.66769 0.0
C582 C 0.74735 0.02259 0.64124 0.0
C583 C 0.79228 0.01918 0.66018 0.0
C584 C 0.81809 0.0332 0.6711 0.0
C585 C 0.74308 0.99107 0.64147 0.0
C586 C 0.76382 0.97335 0.65102 0.0
C587 C 0.78818 0.98762 0.66022 0.0
C588 C 0.76007 0.94001 0.65188 0.0
C589 C 0.71676 0.97677 0.63116 0.0
C590 C 0.73645 0.92733 0.66214 0.0
C591 C 0.73195 0.89603 0.66239 0.0
C592 C 0.75086 0.87654 0.65226 0.0
C593 C 0.77511 0.88937 0.6424 0.0
C594 C 0.77971 0.92078 0.64228 0.0
H595 H 0.70579 0.99288 0.62194 0.0
H596 H 0.72422 0.95696 0.62284 0.0
H597 H 0.69967 0.96868 0.64117 0.0
H598 H 0.72131 0.94171 0.66989 0.0
H599 H 0.71348 0.8872 0.6705 0.0
H600 H 0.88086 0.78539 0.14799 0.0
H601 H 0.9356 0.79401 0.15016 0.0
H602 H 0.94716 0.75027 0.09715 0.0
H603 H 0.89272 0.74238 0.09464 0.0
H604 H 0.9801 0.75078 0.14992 0.0
H605 H 0.99744 0.82728 0.09149 0.0
H606 H 0.96062 0.81941 0.10111 0.0
H607 H 0.97761 0.7928 0.08541 0.0
C608 C 0.89499 0.77802 0.13667 0.0
C609 C 0.88221 0.76312 0.12116 0.0
C610 C 0.92633 0.78284 0.13796 0.0
C611 C 0.94556 0.77318 0.1237 0.0
C612 C 0.93285 0.75848 0.10818 0.0
H613 H 0.14189 0.76341 0.11088 0.0
H614 H 0.08699 0.76215 0.1056 0.0
C615 C 0.90162 0.7536 0.10689 0.0
C616 C 0.97898 0.77699 0.12543 0.0
H617 H 0.04169 0.80729 0.10476 0.0
C618 C 0.99351 0.76333 0.14012 0.0
C619 C 0.99661 0.79313 0.11254 0.0
C620 C 0.9823 0.80924 0.09683 0.0
C621 C 0.02506 0.76496 0.14213 0.0
C622 C 0.04269 0.78123 0.12931 0.0
C623 C 0.02823 0.79481 0.11456 0.0
C624 C 0.07606 0.78481 0.13136 0.0
C625 C 0.0393 0.74863 0.15779 0.0
C626 C 0.08824 0.79909 0.14717 0.0
C627 C 0.11939 0.79982 0.15016 0.0
C628 C 0.13923 0.78655 0.13736 0.0
C629 C 0.12722 0.77393 0.12095 0.0
C630 C 0.09586 0.77307 0.11798 0.0
H631 H 0.024 0.73077 0.16319 0.0
H632 H 0.06078 0.73815 0.15342 0.0
H633 H 0.04434 0.76499 0.1692 0.0
H634 H 0.07355 0.80903 0.15746 0.0
H635 H 0.12799 0.81016 0.16278 0.0
H636 H 0.31478 0.92718 0.60071 0.0
H637 H 0.31523 0.98165 0.60607 0.0
H638 H 0.27072 0.9696 0.65818 0.0
H639 H 0.27006 0.91483 0.65289 0.0
H640 H 0.26817 0.02089 0.61138 0.0
H641 H 0.34366 0.02278 0.67233 0.0
H642 H 0.33876 0.98983 0.65752 0.0
H643 H 0.31045 0.99919 0.6743 0.0
C644 C 0.30486 0.93597 0.61328 0.0
C645 C 0.2924 0.91639 0.62637 0.0
C646 C 0.30524 0.96724 0.61635 0.0
C647 C 0.29332 0.97982 0.63261 0.0
C648 C 0.28061 0.96045 0.64568 0.0
H649 H 0.2615 0.1747 0.64754 0.0
H650 H 0.25411 0.11997 0.64379 0.0
C651 C 0.28026 0.92908 0.64263 0.0
C652 C 0.29427 1.0132 0.6357 0.0
H653 H 0.32383 0.06936 0.66365 0.0
C654 C 0.28023 0.03149 0.62286 0.0
C655 C 0.31024 0.02708 0.65058 0.0
C656 C 0.32688 1.0088 0.66441 0.0
C657 C 0.28189 0.06319 0.62439 0.0
C658 C 0.2977 0.07706 0.63934 0.0
C659 C 0.31154 0.05876 0.65226 0.0
C660 C 0.30167 0.11046 0.6413 0.0
C661 C 0.26758 0.08154 0.60966 0.0
C662 C 0.33082 0.12341 0.64137 0.0
C663 C 0.3351 0.15462 0.64353 0.0
C664 C 0.31034 0.17378 0.64578 0.0
C665 C 0.28108 0.16078 0.6456 0.0
C666 C 0.27681 0.12943 0.64346 0.0
H667 H 0.26244 0.06771 0.59708 0.0
H668 H 0.24607 0.09078 0.61495 0.0
H669 H 0.28254 0.10078 0.60586 0.0
H670 H 0.35036 0.10932 0.63968 0.0
H671 H 0.35792 0.16373 0.64332 0.0
H672 H 0.89021 0.75759 0.85128 0.0
H673 H 0.94461 0.76258 0.85606 0.0
H674 H 0.92944 0.80276 0.90972 0.0
H675 H 0.87472 0.79719 0.9052 0.0
H676 H 0.98103 0.81433 0.86346 0.0
H677 H 0.98635 0.73292 0.92021 0.0
H678 H 0.95381 0.73543 0.90546 0.0
H679 H 0.96016 0.76295 0.92363 0.0
C680 C 0.89833 0.76723 0.86419 0.0
C681 C 0.87794 0.77664 0.87795 0.0
C682 C 0.92952 0.77029 0.86684 0.0
C683 C 0.9412 0.78263 0.88334 0.0
C684 C 0.92099 0.7927 0.89698 0.0
H685 H 0.1244 0.80391 0.9256 0.0
H686 H 0.06993 0.80501 0.92069 0.0
C687 C 0.88969 0.78976 0.89431 0.0
C688 C 0.97451 0.7847 0.88619 0.0
H689 H 0.03166 0.75858 0.91262 0.0
C690 C 0.99212 0.80216 0.87421 0.0
C691 C 0.98901 0.76879 0.9002 0.0
C692 C 0.97148 0.74874 0.91304 0.0
C693 C 0.02374 0.80447 0.87601 0.0
C694 C 0.03829 0.78832 0.88993 0.0
C695 C 0.0206 0.77098 0.90195 0.0
C696 C 0.07176 0.78908 0.89238 0.0
C697 C 0.04114 0.82471 0.86323 0.0
C698 C 0.09119 0.77981 0.87811 0.0
C699 C 0.12251 0.77922 0.88089 0.0
C700 C 0.13507 0.78749 0.89809 0.0
C701 C 0.11555 0.79702 0.91226 0.0
C702 C 0.08433 0.79776 0.90945 0.0
H703 H 0.02643 0.84185 0.85715 0.0
H704 H 0.06014 0.83652 0.87049 0.0
H705 H 0.05056 0.81085 0.85178 0.0
H706 H 0.08209 0.77229 0.86494 0.0
H707 H 0.13676 0.77134 0.86976 0.0
H708 H 0.24815 0.90663 0.36475 0.0
H709 H 0.24937 0.96087 0.37128 0.0
H710 H 0.30003 0.94665 0.42079 0.0
H711 H 0.29951 0.89209 0.41402 0.0
H712 H 0.22976 0.99637 0.40093 0.0
H713 H 0.35426 1.00561 0.39256 0.0
H714 H 0.33288 0.97224 0.38559 0.0
H715 H 0.3414 0.97939 0.40946 0.0
C716 C 0.25957 0.91499 0.37704 0.0
C717 C 0.27414 0.895 0.38871 0.0
C718 C 0.26008 0.94604 0.38082 0.0
C719 C 0.27529 0.95799 0.39633 0.0
C720 C 0.28865 0.93803 0.40853 0.0
H721 H 0.31886 0.14399 0.42931 0.0
H722 H 0.31188 0.0893 0.42774 0.0
C723 C 0.28807 0.9068 0.40477 0.0
C724 C 0.2779 0.99135 0.39917 0.0
H725 H 0.32889 0.05022 0.40049 0.0
C726 C 0.25144 1.00815 0.4009 0.0
C727 C 0.30617 1.00679 0.39903 0.0
C728 C 0.33533 0.9902 0.39641 0.0
C729 C 0.2525 0.03985 0.40264 0.0
C730 C 0.28077 0.0553 0.40229 0.0
C731 C 0.30722 0.03845 0.40075 0.0
C732 C 0.28361 0.08888 0.40352 0.0
C733 C 0.22334 0.05645 0.40515 0.0
C734 C 0.27009 0.1071 0.3904 0.0
C735 C 0.27411 0.13858 0.39124 0.0
C736 C 0.29202 0.1525 0.4051 0.0
C737 C 0.30531 0.13414 0.41827 0.0
C738 C 0.30121 0.10278 0.41746 0.0
H739 H 0.20499 0.04141 0.41026 0.0
H740 H 0.22621 0.0759 0.41492 0.0
H741 H 0.21615 0.06516 0.3917 0.0
H742 H 0.25697 0.09694 0.37925 0.0
H743 H 0.26387 0.15192 0.38075 0.0
H744 H 0.89143 0.3109 0.93719 0.0
H745 H 0.9454 0.30226 0.93355 0.0
H746 H 0.92876 0.25894 0.88076 0.0
H747 H 0.87473 0.26825 0.88406 0.0
H748 H 0.97655 0.24813 0.92846 0.0
H749 H 0.99328 0.32327 0.86917 0.0
H750 H 0.95977 0.32407 0.88329 0.0
H751 H 0.96414 0.29492 0.86596 0.0
C752 C 0.89919 0.29983 0.9247 0.0
C753 C 0.87861 0.29055 0.91083 0.0
C754 C 0.93009 0.29468 0.92271 0.0
C755 C 0.94123 0.28033 0.90678 0.0
C756 C 0.92077 0.27052 0.89305 0.0
H757 H 0.11991 0.23807 0.86625 0.0
H758 H 0.0657 0.24196 0.8716 0.0
C759 C 0.88981 0.2756 0.89504 0.0
C760 C 0.97425 0.27573 0.90457 0.0
H761 H 0.03478 0.29385 0.87758 0.0
C762 C 0.98933 0.25817 0.91736 0.0
C763 C 0.99093 0.2889 0.89012 0.0
C764 C 0.97634 0.30908 0.87643 0.0
C765 C 0.02048 0.25292 0.91587 0.0
C766 C 0.03715 0.26606 0.90139 0.0
C767 C 0.02204 0.2837 0.88865 0.0
C768 C 0.07019 0.26168 0.89897 0.0
C769 C 0.0351 0.23277 0.92955 0.0
C770 C 0.09094 0.27119 0.91264 0.0
C771 C 0.12211 0.26893 0.9096 0.0
C772 C 0.13313 0.25746 0.89274 0.0
C773 C 0.11223 0.24736 0.87929 0.0
C774 C 0.08119 0.2495 0.88235 0.0
H775 H 1.01819 0.21821 0.93657 0.0
H776 H 0.05207 0.21816 0.92276 0.0
H777 H 0.0468 0.24695 0.94022 0.0
H778 H 0.08309 0.28125 0.92543 0.0
H779 H 0.13754 0.27729 0.92014 0.0
H780 H 0.75581 0.12741 0.41483 0.0
H781 H 0.75464 0.07261 0.41958 0.0
H782 H 0.816 0.06028 0.3741 0.0
H783 H 0.81772 0.11459 0.36964 0.0
H784 H 0.73469 0.02893 0.39428 0.0
H785 H 0.85356 1.00773 0.41227 0.0
H786 H 0.83799 0.04505 0.413 0.0
H787 H 0.85007 0.02838 0.3915 0.0
C788 C 0.7696 0.11304 0.40618 0.0
C789 C 0.7868 0.12539 0.39183 0.0
C790 C 0.76877 0.0817 0.4088 0.0
C791 C 0.78549 0.0622 0.39732 0.0
C792 C 0.80335 0.07471 0.38339 0.0
H793 H 0.79571 0.86851 0.37447 0.0
H794 H 0.80227 0.92368 0.37502 0.0
C795 C 0.80407 0.10583 0.38073 0.0
C796 C 0.78265 0.02872 0.39881 0.0
H797 H 0.82363 0.96456 0.40283 0.0
C798 C 0.75409 1.0149 0.39638 0.0
C799 C 0.80799 1.01026 0.40137 0.0
C800 C 0.83908 0.02361 0.40486 0.0
C801 C 0.75029 0.9833 0.39593 0.0
C802 C 0.77567 0.96483 0.39829 0.0
C803 C 0.8042 0.97862 0.40091 0.0
C804 C 0.77285 0.93121 0.39837 0.0
C805 C 0.7192 0.96995 0.39234 0.0
C806 C 0.75483 0.91695 0.41158 0.0
C807 C 0.7511 0.88554 0.41131 0.0
C808 C 0.76545 0.86741 0.39788 0.0
C809 C 0.78436 0.88166 0.38502 0.0
C810 C 0.78805 0.91323 0.38528 0.0
H811 H 0.70408 0.98644 0.38597 0.0
H812 H 0.72031 0.94962 0.38318 0.0
H813 H 0.70893 0.96317 0.40557 0.0
H814 H 0.74352 0.93016 0.42213 0.0
H815 H 0.73702 0.87549 0.42176 0.0
H816 H 0.29418 0.38075 0.12089 0.0
H817 H 0.29671 0.43595 0.12235 0.0
H818 H 0.20047 0.43889 0.11424 0.0
H819 H 0.19775 0.38371 0.11266 0.0
H820 H 0.27437 0.48463 0.0988 0.0
H821 H 0.21774 0.47663 0.16684 0.0
H822 H 0.23489 0.44467 0.15544 0.0
H823 H 0.19875 0.45735 0.14802 0.0
C824 C 0.27372 0.39316 0.11877 0.0
C825 C 0.2457 0.37798 0.11685 0.0
C826 C 0.27518 0.42466 0.11973 0.0
C827 C 0.24868 0.4413 0.11879 0.0
C828 C 0.22107 0.42631 0.1153 0.0
H829 H 0.20156 0.62624 0.1409 0.0
H830 H 0.20236 0.5717 0.13509 0.0
C831 C 0.21957 0.39486 0.11436 0.0
C832 C 0.24943 0.47394 0.12325 0.0
H833 H 0.22658 0.52556 0.15563 0.0
C834 C 0.26402 0.49367 0.11122 0.0
C835 C 0.23604 0.48544 0.13955 0.0
C836 C 0.22116 0.46498 0.15333 0.0
C837 C 0.26487 0.52491 0.11484 0.0
C838 C 0.25129 0.53643 0.1311 0.0
C839 C 0.23693 0.5166 0.14319 0.0
C840 C 0.25105 0.56909 0.13561 0.0
C841 C 0.2796 0.54536 0.10102 0.0
C842 C 0.27813 0.58542 0.13844 0.0
C843 C 0.27776 0.61656 0.1417 0.0
C844 C 0.25025 0.63185 0.14229 0.0
C845 C 0.2231 0.61514 0.14029 0.0
C846 C 0.22352 0.58402 0.13702 0.0
H847 H 0.28238 0.53383 0.08742 0.0
H848 H 0.26616 0.56594 0.09918 0.0
H849 H 0.30232 0.55248 0.10607 0.0
H850 H 0.29958 0.57415 0.1378 0.0
H851 H 0.29907 0.6288 0.14302 0.0
H852 H 0.43066 0.31142 0.63605 0.0
H853 H 0.48182 0.30473 0.62503 0.0
H854 H 0.44977 0.29824 0.56917 0.0
H855 H 0.39797 0.3066 0.57996 0.0
H856 H 0.48995 0.24609 0.58932 0.0
H857 H 0.53574 0.36356 0.58734 0.0
H858 H 0.51023 0.35506 0.6059 0.0
H859 H 0.49654 0.35404 0.58269 0.0
C860 C 0.43427 0.30969 0.62135 0.0
C861 C 0.40994 0.30992 0.60892 0.0
C862 C 0.46364 0.30555 0.61511 0.0
C863 C 0.46945 0.30117 0.59634 0.0
C864 C 0.44559 0.30175 0.58373 0.0
H865 H 0.66424 0.27075 0.57821 0.0
H866 H 0.61235 0.28091 0.56862 0.0
C867 C 0.41604 0.30633 0.58996 0.0
C868 C 0.50038 0.2937 0.59056 0.0
H869 H 0.57156 0.32433 0.59061 0.0
C870 C 0.50779 0.26317 0.58894 0.0
C871 C 0.52345 0.31606 0.5901 0.0
C872 C 0.51625 0.3491 0.59147 0.0
C873 C 0.53801 0.25437 0.5885 0.0
C874 C 0.56116 0.27669 0.58974 0.0
C875 C 0.55371 0.30728 0.58966 0.0
C876 C 0.59233 0.26883 0.5946 0.0
C877 C 0.54506 0.22125 0.58797 0.0
C878 C 0.59807 0.25897 0.61238 0.0
C879 C 0.62748 0.25378 0.61802 0.0
C880 C 0.65197 0.25801 0.60594 0.0
C881 C 0.64604 0.26746 0.58794 0.0
C882 C 0.61643 0.27307 0.58237 0.0
H883 H 0.52597 0.20746 0.5822 0.0
H884 H 0.56563 0.21693 0.57966 0.0
H885 H 0.54932 0.21379 0.60218 0.0
H886 H 0.57976 0.25617 0.62212 0.0
H887 H 0.63097 0.24747 0.63213 0.0
H888 H 0.77385 0.39259 0.12647 0.0
H889 H 0.77416 0.44779 0.12714 0.0
H890 H 0.6781 0.44661 0.13682 0.0
H891 H 0.67777 0.39136 0.13651 0.0
H892 H 0.74563 0.49106 0.10789 0.0
H893 H 0.70953 0.49492 0.181 0.0
H894 H 0.72115 0.46058 0.16951 0.0
H895 H 0.68372 0.47442 0.16613 0.0
C896 C 0.7527 0.4041 0.12834 0.0
C897 C 0.7258 0.38773 0.13155 0.0
C898 C 0.75294 0.43563 0.12884 0.0
C899 C 0.72629 0.45128 0.13251 0.0
C900 C 0.69906 0.43497 0.1345 0.0
H901 H 0.68838 0.6425 0.13785 0.0
H902 H 0.68505 0.58722 0.13597 0.0
C903 C 0.69885 0.40346 0.13418 0.0
C904 C 0.72729 0.48457 0.13497 0.0
H905 H 0.7126 0.54172 0.16587 0.0
C906 C 0.73845 0.50212 0.12057 0.0
C907 C 0.71819 0.49894 0.15163 0.0
C908 C 0.70775 0.48127 0.16802 0.0
C909 C 0.74032 0.53369 0.12228 0.0
C910 C 0.73081 0.54794 0.1388 0.0
C911 C 0.71968 0.53054 0.1532 0.0
C912 C 0.73248 0.58104 0.14129 0.0
C913 C 0.75228 0.55176 0.10646 0.0
C914 C 0.76012 0.59558 0.14535 0.0
C915 C 0.76207 0.62705 0.14655 0.0
C916 C 0.7364 0.64443 0.14359 0.0
C917 C 0.70854 0.62966 0.1401 0.0
C918 C 0.70658 0.59819 0.13904 0.0
H919 H 0.75614 0.53751 0.09395 0.0
H920 H 0.73623 0.56973 0.10308 0.0
H921 H 0.77398 0.56296 0.1105 0.0
H922 H 0.7803 0.58258 0.14717 0.0
H923 H 0.78391 0.63778 0.149 0.0
H924 H 0.65802 0.69441 0.58034 0.0
H925 H 0.60628 0.69361 0.56775 0.0
H926 H 0.58109 0.76157 0.60797 0.0
H927 H 0.63204 0.76232 0.62051 0.0
H928 H 0.55175 0.68098 0.58971 0.0
H929 H 0.54932 0.79294 0.55812 0.0
H930 H 0.58399 0.7732 0.56201 0.0
H931 H 0.56672 0.79457 0.5804 0.0
C932 C 0.64138 0.7093 0.58631 0.0
C933 C 0.64881 0.72822 0.60148 0.0
C934 C 0.61199 0.70885 0.57913 0.0
C935 C 0.5901 0.72788 0.58677 0.0
C936 C 0.5978 0.7471 0.60168 0.0
H937 H 0.42339 0.74361 0.62594 0.0
H938 H 0.47275 0.72765 0.61512 0.0
C939 C 0.6268 0.74726 0.60896 0.0
C940 C 0.55832 0.72651 0.58062 0.0
H941 H 0.50163 0.77433 0.57077 0.0
C942 C 0.54078 0.70098 0.58492 0.0
C943 C 0.5441 0.75239 0.57407 0.0
C944 C 0.56207 0.77972 0.56819 0.0
C945 C 0.50915 0.702 0.58492 0.0
C946 C 0.495 0.72929 0.58071 0.0
C947 C 0.5125 0.75352 0.57425 0.0
C948 C 0.46354 0.73519 0.58638 0.0
C949 C 0.49123 0.67452 0.59062 0.0
C950 C 0.442 0.74503 0.57382 0.0
C951 C 0.41361 0.75428 0.58004 0.0
C952 C 0.40681 0.75444 0.59892 0.0
C953 C 0.4282 0.74396 0.61134 0.0
C954 C 0.45625 0.73446 0.60513 0.0
H955 H 0.50317 0.65351 0.58676 0.0
H956 H 0.48851 0.6751 0.60579 0.0
H957 H 0.46846 0.67379 0.58424 0.0
H958 H 0.44739 0.74615 0.55932 0.0
H959 H 0.39746 0.76235 0.57023 0.0
H960 H 0.32154 0.39092 0.88064 0.0
H961 H 0.33028 0.4457 0.88107 0.0
H962 H 0.2351 0.45898 0.87314 0.0
H963 H 0.22622 0.40431 0.8725 0.0
H964 H 0.27732 0.49909 0.85262 0.0
H965 H 0.29855 0.49349 0.92799 0.0
H966 H 0.32018 0.46928 0.91302 0.0
H967 H 0.28023 0.463 0.91514 0.0
C968 C 0.30263 0.40551 0.87845 0.0
C969 C 0.27316 0.39347 0.87668 0.0
C970 C 0.30763 0.43673 0.87885 0.0
C971 C 0.28326 0.4562 0.87739 0.0
C972 C 0.25414 0.44421 0.87435 0.0
H973 H 0.23837 0.63361 0.91226 0.0
H974 H 0.24478 0.57932 0.90708 0.0
C975 C 0.2491 0.41306 0.87405 0.0
C976 C 0.28736 0.48896 0.88071 0.0
H977 H 0.29792 0.54162 0.9152 0.0
C978 C 0.28226 0.50848 0.86622 0.0
C979 C 0.29343 0.50091 0.89855 0.0
C980 C 0.29826 0.48072 0.91466 0.0
C981 C 0.28255 0.53985 0.86919 0.0
C982 C 0.28814 0.55176 0.88709 0.0
C983 C 0.29382 0.53226 0.9015 0.0
C984 C 0.28595 0.58431 0.89134 0.0
C985 C 0.2757 0.56004 0.85338 0.0
C986 C 0.30744 0.60482 0.88458 0.0
C987 C 0.30388 0.63577 0.88755 0.0
C988 C 0.27872 0.64661 0.89729 0.0
C989 C 0.25782 0.62587 0.90459 0.0
C990 C 0.26149 0.59494 0.9017 0.0
H991 H 0.26777 0.54705 0.841 0.0
H992 H 0.25821 0.57651 0.85743 0.0
H993 H 0.29642 0.57298 0.84966 0.0
H994 H 0.32657 0.59691 0.87668 0.0
H995 H 0.32017 0.65123 0.88158 0.0
H996 H 0.64982 0.30069 0.35978 0.0
H997 H 0.59592 0.30656 0.35419 0.0
H998 H 0.58589 0.21068 0.34412 0.0
H999 H 0.63986 0.20456 0.34995 0.0
H1000 H 0.55464 0.29174 0.32595 0.0
H1001 H 0.53232 0.22629 0.38894 0.0
H1002 H 0.56959 0.23969 0.38283 0.0
H1003 H 0.55355 0.20658 0.37158 0.0
C1004 C 0.63631 0.28094 0.35591 0.0
C1005 C 0.64896 0.2521 0.35548 0.0
C1006 C 0.60549 0.28433 0.35277 0.0
C1007 C 0.58686 0.25899 0.34912 0.0
C1008 C 0.59982 0.23044 0.34731 0.0
H1009 H 0.39306 0.2348 0.35324 0.0
H1010 H 0.44622 0.22935 0.34562 0.0
C1011 C 0.6306 0.22698 0.35061 0.0
C1012 C 0.55367 0.26215 0.34901 0.0
H1013 H 0.49002 0.24214 0.37254 0.0
C1014 C 0.54043 0.28081 0.33606 0.0
C1015 C 0.53529 0.24814 0.36238 0.0
C1016 C 0.54835 0.22928 0.37734 0.0
C1017 C 0.50916 0.28555 0.33603 0.0
C1018 C 0.49089 0.27148 0.3494 0.0
C1019 C 0.50412 0.2527 0.36223 0.0
C1020 C 0.45804 0.27629 0.35085 0.0
C1021 C 0.49584 0.30535 0.32169 0.0
C1022 C 0.44695 0.30469 0.35599 0.0
C1023 C 0.41638 0.30799 0.36026 0.0
C1024 C 0.39646 0.28289 0.35953 0.0
C1025 C 0.40755 0.25475 0.35364 0.0
C1026 C 0.43801 0.25151 0.34938 0.0
H1027 H 0.51146 0.30857 0.30991 0.0
H1028 H 0.47414 0.29559 0.31646 0.0
H1029 H 0.49127 0.32784 0.32797 0.0
H1030 H 0.46216 0.324 0.35752 0.0
H1031 H 0.40852 0.32997 0.36467 0.0
H1032 H 0.68604 0.66072 0.89549 0.0
H1033 H 0.6849 0.60537 0.89461 0.0
H1034 H 0.78065 0.60509 0.90493 0.0
H1035 H 0.78202 0.66036 0.90582 0.0
H1036 H 0.75344 0.57107 0.87056 0.0
H1037 H 0.70255 0.54317 0.9383 0.0
H1038 H 0.68675 0.57338 0.9255 0.0
H1039 H 0.72399 0.5777 0.9349 0.0
C1040 C 0.70673 0.64882 0.89787 0.0
C1041 C 0.7341 0.66481 0.90078 0.0
C1042 C 0.70603 0.6173 0.8974 0.0
C1043 C 0.73268 0.60133 0.89974 0.0
C1044 C 0.75985 0.61715 0.9032 0.0
H1045 H 0.78549 0.41583 0.88424 0.0
H1046 H 0.78308 0.47082 0.88544 0.0
C1047 C 0.76054 0.64866 0.90384 0.0
C1048 C 0.7326 0.56822 0.89721 0.0
H1049 H 0.71255 0.50261 0.91786 0.0
C1050 C 0.74455 0.556 0.88087 0.0
C1051 C 0.72066 0.54889 0.91062 0.0
C1052 C 0.70782 0.56123 0.9284 0.0
C1053 C 0.74474 0.52472 0.87753 0.0
C1054 C 0.73341 0.50521 0.89114 0.0
C1055 C 0.72122 0.51757 0.90744 0.0
C1056 C 0.73459 0.47192 0.88902 0.0
C1057 C 0.75652 0.51297 0.85931 0.0
C1058 C 0.7082 0.4542 0.89082 0.0
C1059 C 0.70958 0.42275 0.89032 0.0
C1060 C 0.73738 0.40846 0.88795 0.0
C1061 C 0.76368 0.42622 0.88569 0.0
C1062 C 0.76232 0.45766 0.88637 0.0
H1063 H 0.75521 0.53025 0.84854 0.0
H1064 H 0.78059 0.50707 0.86085 0.0
H1065 H 0.74374 0.49247 0.85454 0.0
H1066 H 0.68658 0.46474 0.89292 0.0
H1067 H 0.68898 0.40958 0.89208 0.0
H1068 H 0.4025 0.75389 0.32461 0.0
H1069 H 0.45453 0.74231 0.31549 0.0
H1070 H 0.48573 0.76897 0.36966 0.0
H1071 H 0.43428 0.77959 0.37909 0.0
H1072 H 0.51812 0.79093 0.33007 0.0
H1073 H 0.50321 0.66958 0.34685 0.0
H1074 H 0.47375 0.69034 0.33593 0.0
H1075 H 0.4822 0.69736 0.35976 0.0
C1076 C 0.42048 0.75739 0.33454 0.0
C1077 C 0.41417 0.76778 0.35258 0.0
C1078 C 0.45011 0.75094 0.32927 0.0
C1079 C 0.47372 0.7549 0.34194 0.0
C1080 C 0.46768 0.76603 0.3597 0.0
H1081 H 0.6405 0.72752 0.38201 0.0
H1082 H 0.58825 0.73018 0.37223 0.0
C1083 C 0.43824 0.77231 0.365 0.0
C1084 C 0.50475 0.74595 0.33745 0.0
H1085 H 0.55326 0.689 0.34536 0.0
C1086 C 0.52586 0.76841 0.33275 0.0
C1087 C 0.5145 0.71659 0.34111 0.0
C1088 C 0.49235 0.69188 0.34615 0.0
C1089 C 0.55691 0.76275 0.33293 0.0
C1090 C 0.56678 0.73399 0.33798 0.0
C1091 C 0.54551 0.71096 0.34139 0.0
C1092 C 0.59848 0.72923 0.34317 0.0
C1093 C 0.57908 0.78814 0.32924 0.0
C1094 C 0.62147 0.72722 0.32997 0.0
C1095 C 0.65161 0.72522 0.33552 0.0
C1096 C 0.6591 0.72533 0.35435 0.0
C1097 C 0.6357 0.72663 0.36742 0.0
C1098 C 0.60575 0.7284 0.36187 0.0
H1099 H 0.56767 0.80939 0.32587 0.0
H1100 H 0.59366 0.7924 0.34147 0.0
H1101 H 0.59394 0.78167 0.31756 0.0
H1102 H 0.61614 0.72772 0.31545 0.0
H1103 H 0.66903 0.72399 0.3251 0.0
H1104 H 0.23316 0.193 0.10242 0.0
H1105 H 0.22443 0.18078 0.06983 0.0
H1106 H 0.31715 0.20386 0.05778 0.0
H1107 H 0.32589 0.21699 0.09012 0.0
H1108 H 0.23532 0.22849 0.04342 0.0
H1109 H 0.29933 0.12529 0.02609 0.0
H1110 H 0.28683 0.13444 0.04919 0.0
H1111 H 0.31915 0.1536 0.03976 0.0
C1112 C 0.25178 0.19525 0.09289 0.0
C1113 C 0.27997 0.2069 0.09887 0.0
C1114 C 0.24682 0.18796 0.07428 0.0
C1115 C 0.27015 0.19138 0.06137 0.0
C1116 C 0.29891 0.2007 0.06752 0.0
H1117 H 0.29308 0.21467 0.9456 0.0
H1118 H 0.29856 0.19858 0.97744 0.0
C1119 C 0.3038 0.20832 0.08607 0.0
C1120 C 0.26351 0.1897 0.04135 0.0
H1121 H 0.28217 0.15385 1.00091 0.0
C1122 C 0.24513 0.21187 0.03414 0.0
C1123 C 0.27684 0.16834 0.02927 0.0
C1124 C 0.29649 0.14388 0.03641 0.0
C1125 C 0.24052 0.21403 0.01513 0.0
C1126 C 0.25373 0.19261 1.00293 0.0
C1127 C 0.27177 0.17004 1.0102 0.0
C1128 C 0.25052 0.19482 0.98261 0.0
C1129 C 0.22287 0.24035 1.00833 0.0
C1130 C 0.22181 0.19602 0.9745 0.0
C1131 C 0.2187 0.20562 0.95643 0.0
C1132 C 0.24427 0.21295 0.94593 0.0
C1133 C 0.27305 0.20843 0.9533 0.0
C1134 C 0.27616 0.1995 0.97155 0.0
H1135 H 0.22143 0.25877 0.01889 0.0
H1136 H 0.23327 0.24976 0.99575 0.0
H1137 H 0.1995 0.23265 1.00498 0.0
H1138 H 0.2017 0.19171 0.98257 0.0
H1139 H 0.19629 0.20939 0.9511 0.0
H1140 H 0.77789 0.21166 0.4597 0.0
H1141 H 0.79647 0.22309 0.4906 0.0
H1142 H 0.85624 0.29185 0.46934 0.0
H1143 H 0.83718 0.28061 0.43803 0.0
H1144 H 0.85307 0.22325 0.5069 0.0
H1145 H 0.80514 0.33851 0.5073 0.0
H1146 H 0.79554 0.31055 0.48974 0.0
H1147 H 0.8318 0.32929 0.48948 0.0
C1148 C 0.79533 0.22894 0.4615 0.0
C1149 C 0.80595 0.24534 0.44642 0.0
C1150 C 0.80597 0.23544 0.47922 0.0
C1151 C 0.82738 0.25868 0.4824 0.0
C1152 C 0.83933 0.27414 0.46727 0.0
H1153 H 0.86547 0.31323 0.59919 0.0
H1154 H 0.87311 0.31008 0.56562 0.0
C1155 C 0.82872 0.26748 0.44936 0.0
C1156 C 0.83537 0.26712 0.50178 0.0
H1157 H 0.82222 0.32056 0.53542 0.0
C1158 C 0.84697 0.2448 0.51304 0.0
C1159 C 0.82732 0.29523 0.50987 0.0
C1160 C 0.81408 0.31981 0.49859 0.0
C1161 C 0.84921 0.2492 0.53219 0.0
C1162 C 0.83951 0.27656 0.54036 0.0
C1163 C 0.82973 0.29964 0.52908 0.0
C1164 C 0.83516 0.27961 0.56058 0.0
C1165 C 0.86055 0.22399 0.54372 0.0
C1166 C 0.81109 0.26397 0.56875 0.0
C1167 C 0.80653 0.2659 0.58771 0.0
C1168 C 0.82607 0.28342 0.59911 0.0
C1169 C 0.85007 0.29945 0.59087 0.0
C1170 C 0.85447 0.2977 0.57171 0.0
H1171 H 0.87342 0.20734 0.53536 0.0
H1172 H 0.87518 0.23304 0.55503 0.0
H1173 H 0.84101 0.21204 0.55001 0.0
H1174 H 0.7958 0.25008 0.56039 0.0
H1175 H 0.78779 0.25319 0.59343 0.0
H1176 H 0.81377 0.82244 0.92951 0.0
H1177 H 0.83227 0.83664 0.96054 0.0
H1178 H 0.7407 0.85067 0.97845 0.0
H1179 H 0.72234 0.83706 0.94783 0.0
H1180 H 0.78215 0.89446 0.9928 0.0
H1181 H 0.82071 0.77695 1.00269 0.0
H1182 H 0.83597 0.79763 0.98372 0.0
H1183 H 0.79689 0.78626 0.98363 0.0
C1184 C 0.79774 0.82915 0.94001 0.0
C1185 C 0.76657 0.8283 0.9363 0.0
C1186 C 0.80829 0.83705 0.95774 0.0
C1187 C 0.7878 0.84431 0.9719 0.0
C1188 C 0.75694 0.84513 0.9678 0.0
H1189 H 0.72881 0.84325 0.07651 0.0
H1190 H 0.74441 0.8596 0.04615 0.0
C1191 C 0.74645 0.83716 0.95027 0.0
C1192 C 0.79729 0.84861 0.99141 0.0
H1193 H 0.81515 0.80761 0.02887 0.0
C1194 C 0.79017 0.87573 1.00065 0.0
C1195 C 0.808 0.8243 1.00167 0.0
C1196 C 0.81577 0.79453 0.99255 0.0
C1197 C 0.7912 0.87836 0.01993 0.0
C1198 C 0.79912 0.8531 0.03027 0.0
C1199 C 0.80899 0.82697 0.02097 0.0
C1200 C 0.79184 0.85099 0.05019 0.0
C1201 C 0.78238 0.90773 0.02909 0.0
C1202 C 0.81339 0.84152 0.06291 0.0
C1203 C 0.80442 0.83247 0.0805 0.0
C1204 C 0.77374 0.83228 0.0854 0.0
C1205 C 0.75266 0.84377 0.07316 0.0
C1206 C 0.76161 0.85315 0.05578 0.0
H1207 H 0.78854 0.92713 0.02035 0.0
H1208 H 0.75754 0.90777 0.03103 0.0
H1209 H 0.79335 0.911 0.04273 0.0
H1210 H 0.83677 0.8393 0.05883 0.0
H1211 H 0.82097 0.82296 0.08953 0.0
H1212 H 0.27294 0.82447 0.44994 0.0
H1213 H 0.25645 0.82007 0.4818 0.0
H1214 H 0.21202 0.73512 0.46829 0.0
H1215 H 0.22839 0.73964 0.43599 0.0
H1216 H 0.18145 0.7794 0.49689 0.0
H1217 H 0.3005 0.75053 0.51064 0.0
H1218 H 0.29578 0.7838 0.49738 0.0
H1219 H 0.28403 0.74766 0.48795 0.0
C1220 C 0.25884 0.80528 0.4536 0.0
C1221 C 0.25193 0.78239 0.44051 0.0
C1222 C 0.24952 0.80276 0.47183 0.0
C1223 C 0.23337 0.77711 0.47748 0.0
C1224 C 0.22446 0.75513 0.4642 0.0
H1225 H 0.2498 0.73971 0.59444 0.0
H1226 H 0.24295 0.73104 0.56135 0.0
C1227 C 0.23363 0.7578 0.44575 0.0
C1228 C 0.2293 0.77218 0.49749 0.0
H1229 H 0.27039 0.76322 0.53658 0.0
C1230 C 0.20075 0.7754 0.5056 0.0
C1231 C 0.2544 0.76654 0.50881 0.0
C1232 C 0.2854 0.76165 0.5008 0.0
C1233 C 0.19697 0.77451 0.52485 0.0
C1234 C 0.22251 0.77083 0.53626 0.0
C1235 C 0.25074 0.76618 0.52797 0.0
C1236 C 0.22128 0.77353 0.55678 0.0
C1237 C 0.16567 0.7776 0.53272 0.0
C1238 C 0.21062 0.79989 0.56547 0.0
C1239 C 0.21429 0.80477 0.58445 0.0
C1240 C 0.22921 0.78364 0.59514 0.0
C1241 C 0.2384 0.75655 0.58661 0.0
C1242 C 0.23449 0.75157 0.56766 0.0
H1243 H 0.14825 0.76941 0.52272 0.0
H1244 H 0.16298 0.7649 0.54561 0.0
H1245 H 0.16146 0.80177 0.5358 0.0
H1246 H 0.20106 0.81759 0.55744 0.0
H1247 H 0.20722 0.82604 0.59049 0.0
H1248 H 0.32618 0.79739 0.95003 0.0
H1249 H 0.32289 0.81931 0.98105 0.0
H1250 H 0.24107 0.86378 0.96628 0.0
H1251 H 0.24429 0.84159 0.93504 0.0
H1252 H 0.31474 0.87727 0.99975 0.0
H1253 H 0.21478 0.79947 1.0039 0.0
H1254 H 0.24094 0.79776 0.98493 0.0
H1255 H 0.21411 0.82751 0.98648 0.0
C1256 C 0.30823 0.81295 0.95315 0.0
C1257 C 0.28554 0.81786 0.94013 0.0
C1258 C 0.30631 0.8254 0.97093 0.0
C1259 C 0.28145 0.84273 0.97612 0.0
C1260 C 0.26031 0.85021 0.96261 0.0
H1261 H 0.21713 0.83895 0.08907 0.0
H1262 H 0.2229 0.85909 0.05818 0.0
C1263 C 0.26236 0.83786 0.94469 0.0
C1264 C 0.27554 0.84832 0.99607 0.0
H1265 H 0.23192 0.82211 0.03119 0.0
C1266 C 0.2963 0.8657 1.00663 0.0
C1267 C 0.25158 0.8331 1.00509 0.0
C1268 C 0.22912 0.81323 0.99463 0.0
C1269 C 0.29411 0.86768 0.02597 0.0
C1270 C 0.27101 0.85122 0.03504 0.0
C1271 C 0.24957 0.83492 0.02436 0.0
C1272 C 0.27002 0.84769 0.05545 0.0
C1273 C 0.31677 0.88722 0.03642 0.0
C1274 C 0.29493 0.83614 0.06476 0.0
C1275 C 0.29178 0.82545 0.08266 0.0
C1276 C 0.26361 0.82576 0.09149 0.0
C1277 C 0.2393 0.83932 0.08278 0.0
C1278 C 0.24254 0.85046 0.06501 0.0
H1279 H 0.32451 0.90655 0.02807 0.0
H1280 H 0.30727 0.89606 0.04956 0.0
H1281 H 0.33685 0.87369 0.03952 0.0
H1282 H 0.31614 0.83282 0.05767 0.0
H1283 H 0.31055 0.81407 0.08881 0.0
H1284 H 0.23565 0.22077 0.44449 0.0
H1285 H 0.22185 0.20857 0.47633 0.0
H1286 H 0.21525 0.30345 0.48968 0.0
H1287 H 0.22962 0.31558 0.45824 0.0
H1288 H 0.26059 0.23258 0.50581 0.0
H1289 H 0.14168 0.26412 0.5166 0.0
H1290 H 0.15675 0.25405 0.49421 0.0
H1291 H 0.1631 0.29135 0.50385 0.0
C1292 C 0.23005 0.23886 0.45408 0.0
C1293 C 0.23342 0.2691 0.44896 0.0
C1294 C 0.22237 0.23191 0.47226 0.0
C1295 C 0.21721 0.2551 0.48533 0.0
C1296 C 0.21855 0.28518 0.47977 0.0
H1297 H 0.22781 0.32666 0.5888 0.0
H1298 H 0.21303 0.3075 0.55852 0.0
C1299 C 0.22681 0.29211 0.46182 0.0
C1300 C 0.21527 0.24892 0.50528 0.0
H1301 H 0.17392 0.26701 0.54342 0.0
C1302 C 0.24134 0.23917 0.5141 0.0
C1303 C 0.19016 0.25757 0.51599 0.0
C1304 C 0.1612 0.2671 0.50718 0.0
C1305 C 0.2441 0.24074 0.53337 0.0
C1306 C 0.21971 0.2516 0.54411 0.0
C1307 C 0.19266 0.25875 0.53526 0.0
C1308 C 0.22378 0.26109 0.56376 0.0
C1309 C 0.27408 0.2334 0.54185 0.0
C1310 C 0.23347 0.2412 0.57726 0.0
C1311 C 0.2423 0.25228 0.59475 0.0
C1312 C 0.24133 0.28337 0.59896 0.0
C1313 C 0.2292 0.30264 0.58593 0.0
C1314 C 0.22058 0.29167 0.56858 0.0
H1315 H 0.29194 0.22985 0.53134 0.0
H1316 H 0.28172 0.25182 0.55146 0.0
H1317 H 0.27162 0.21241 0.54976 0.0
H1318 H 0.23543 0.21737 0.57403 0.0
H1319 H 0.25149 0.23686 0.60452 0.0
H1320 H 0.79987 0.23109 0.10598 0.0
H1321 H 0.81729 0.21843 0.07461 0.0
H1322 H 0.72508 0.20209 0.05764 0.0
H1323 H 0.70779 0.21405 0.08865 0.0
H1324 H 0.76455 0.16064 0.04189 0.0
H1325 H 0.80637 0.27894 0.03356 0.0
H1326 H 0.82214 0.25788 0.05193 0.0
H1327 H 0.7832 0.26823 0.05283 0.0
C1328 C 0.78346 0.22415 0.09562 0.0
C1329 C 0.75242 0.22389 0.09975 0.0
C1330 C 0.79339 0.21719 0.07767 0.0
C1331 C 0.77243 0.20982 0.06365 0.0
C1332 C 0.7417 0.20778 0.06814 0.0
H1333 H 0.71905 0.21251 0.95632 0.0
H1334 H 0.73096 0.1968 0.98732 0.0
C1335 C 0.73182 0.21478 0.08592 0.0
C1336 C 0.78139 0.20648 0.04396 0.0
H1337 H 0.80202 0.24855 1.00707 0.0
C1338 C 0.77342 0.17965 0.03433 0.0
C1339 C 0.79312 0.23119 0.03403 0.0
C1340 C 0.8016 0.2608 0.0435 0.0
C1341 C 0.77503 0.17753 0.01503 0.0
C1342 C 0.78448 0.20301 1.00503 0.0
C1343 C 0.79475 0.229 0.01472 0.0
C1344 C 0.77907 0.20522 0.98489 0.0
C1345 C 0.76547 0.14835 1.00548 0.0
C1346 C 0.80221 0.2144 0.97285 0.0
C1347 C 0.79537 0.22303 0.95488 0.0
C1348 C 0.76525 0.22308 0.94888 0.0
C1349 C 0.74251 0.21202 0.96049 0.0
C1350 C 0.74934 0.20305 0.97826 0.0
H1351 H 0.76993 0.12876 0.01426 0.0
H1352 H 0.74083 0.14861 1.00282 0.0
H1353 H 0.77736 0.14516 0.99215 0.0
H1354 H 0.82526 0.21662 0.97771 0.0
H1355 H 0.81319 0.2323 0.94637 0.0
H1356 H 0.81412 0.803 0.43718 0.0
H1357 H 0.82441 0.81421 0.46974 0.0
H1358 H 0.85211 0.72246 0.47674 0.0
H1359 H 0.84036 0.71103 0.44446 0.0
H1360 H 0.80767 0.73498 0.49863 0.0
H1361 H 0.89109 0.82878 0.50606 0.0
H1362 H 0.86088 0.83789 0.49093 0.0
H1363 H 0.88586 0.80778 0.48469 0.0
C1364 C 0.82384 0.78573 0.44551 0.0
C1365 C 0.82685 0.75627 0.43836 0.0
C1366 C 0.82971 0.79211 0.46416 0.0
C1367 C 0.8392 0.76922 0.4758 0.0
C1368 C 0.84485 0.74051 0.46811 0.0
H1369 H 0.82592 0.75191 0.59535 0.0
H1370 H 0.84565 0.74788 0.56394 0.0
C1371 C 0.83839 0.73402 0.44963 0.0
C1372 C 0.83787 0.77338 0.49618 0.0
H1373 H 0.85881 0.81997 0.53231 0.0
C1374 C 0.81941 0.75323 0.50599 0.0
C1375 C 0.85281 0.7974 0.50586 0.0
C1376 C 0.874 0.819 0.49635 0.0
C1377 C 0.81475 0.75688 0.52497 0.0
C1378 C 0.82913 0.78123 0.53457 0.0
C1379 C 0.84795 0.80122 0.52492 0.0
C1380 C 0.82276 0.78715 0.55435 0.0
C1381 C 0.79344 0.73532 0.53451 0.0
C1382 C 0.80455 0.81138 0.55957 0.0
C1383 C 0.79322 0.81374 0.57748 0.0
C1384 C 0.79998 0.79195 0.59054 0.0
C1385 C 0.8202 0.76904 0.58565 0.0
C1386 C 0.83144 0.76665 0.56768 0.0
H1387 H 0.78031 0.72086 0.5246 0.0
H1388 H 0.80658 0.72041 0.5434 0.0
H1389 H 0.77738 0.74787 0.54341 0.0
H1390 H 0.7976 0.82744 0.54949 0.0
H1391 H 0.77791 0.83181 0.58082 0.0
H1392 H 0.61265 0.19551 0.1376 0.0
H1393 H 0.55793 0.20028 0.13987 0.0
H1394 H 0.56993 0.27967 0.17463 0.0
H1395 H 0.62478 0.27514 0.17229 0.0
H1396 H 0.52065 0.19832 0.16923 0.0
H1397 H 0.51171 0.3098 0.13709 0.0
H1398 H 0.54587 0.28836 0.13615 0.0
H1399 H 0.53677 0.31033 0.15645 0.0
C1400 C 0.60372 0.21399 0.14576 0.0
C1401 C 0.62331 0.23498 0.15472 0.0
C1402 C 0.57233 0.21674 0.147 0.0
C1403 C 0.55959 0.24058 0.1572 0.0
C1404 C 0.57905 0.2615 0.16627 0.0
H1405 H 0.3772 0.29411 0.18465 0.0
H1406 H 0.43155 0.28637 0.18325 0.0
C1407 C 0.61051 0.25886 0.16495 0.0
C1408 C 0.52602 0.24305 0.15864 0.0
H1409 H 0.46745 0.29053 0.15151 0.0
C1410 C 0.50903 0.21844 0.16525 0.0
C1411 C 0.51067 0.26923 0.15341 0.0
C1412 C 0.52712 0.29582 0.1452 0.0
C1413 C 0.4774 0.21956 0.16715 0.0
C1414 C 0.46216 0.24586 0.16213 0.0
C1415 C 0.4791 0.27039 0.15544 0.0
C1416 C 0.42872 0.24871 0.16388 0.0
C1417 C 0.46063 0.19283 0.17494 0.0
C1418 C 0.40875 0.22987 0.15363 0.0
C1419 C 0.37745 0.23434 0.15434 0.0
C1420 C 0.36544 0.2579 0.16523 0.0
C1421 C 0.38553 0.27604 0.17591 0.0
C1422 C 0.4167 0.2716 0.17516 0.0
H1423 H 0.47602 0.17749 0.18209 0.0
H1424 H 0.44292 0.20029 0.18475 0.0
H1425 H 0.44942 0.17981 0.16357 0.0
H1426 H 0.41743 0.21233 0.14459 0.0
H1427 H 0.36284 0.22018 0.14575 0.0
H1428 H 0.80163 0.37566 0.63678 0.0
H1429 H 0.80708 0.42996 0.63257 0.0
H1430 H 0.72564 0.44445 0.6637 0.0
H1431 H 0.71919 0.39028 0.66726 0.0
H1432 H 0.72704 0.47902 0.63391 0.0
H1433 H 0.83675 0.4917 0.67006 0.0
H1434 H 0.83755 0.46515 0.65109 0.0
H1435 H 0.81414 0.45748 0.67074 0.0
C1436 C 0.78468 0.39023 0.64263 0.0
C1437 C 0.76008 0.37816 0.65254 0.0
C1438 C 0.78807 0.42148 0.6404 0.0
C1439 C 0.76717 0.44157 0.64817 0.0
C1440 C 0.74229 0.42959 0.65771 0.0
H1441 H 0.74914 0.63795 0.65609 0.0
H1442 H 0.7421 0.58336 0.65854 0.0
C1443 C 0.73878 0.3984 0.65987 0.0
C1444 C 0.77088 0.47498 0.64625 0.0
H1445 H 0.81949 0.53467 0.65465 0.0
C1446 C 0.74723 0.49116 0.63852 0.0
C1447 C 0.79715 0.49104 0.65231 0.0
C1448 C 0.82273 0.47554 0.66168 0.0
C1449 C 0.74933 0.52264 0.63641 0.0
C1450 C 0.77566 0.53861 0.64235 0.0
C1451 C 0.79932 0.52248 0.65005 0.0
C1452 C 0.77931 0.57198 0.64056 0.0
C1453 C 0.72357 0.53848 0.62746 0.0
C1454 C 0.80278 0.58397 0.62984 0.0
C1455 C 0.80683 0.61524 0.62834 0.0
C1456 C 0.78768 0.63549 0.63769 0.0
C1457 C 0.76413 0.62333 0.64846 0.0
C1458 C 0.76005 0.59198 0.64989 0.0
H1459 H 0.70839 0.52243 0.61978 0.0
H1460 H 0.71002 0.55005 0.63824 0.0
H1461 H 0.73212 0.55578 0.61786 0.0
H1462 H 0.81795 0.56908 0.6225 0.0
H1463 H 0.82493 0.62343 0.6197 0.0
H1464 H 0.63106 0.84738 0.12933 0.0
H1465 H 0.5763 0.84158 0.12774 0.0
H1466 H 0.58406 0.7452 0.13136 0.0
H1467 H 0.63887 0.75084 0.13376 0.0
H1468 H 0.54014 0.81246 0.10293 0.0
H1469 H 0.52281 0.76207 0.17118 0.0
H1470 H 0.55827 0.77926 0.16449 0.0
H1471 H 0.54861 0.74135 0.15695 0.0
C1472 C 0.62127 0.82492 0.13008 0.0
C1473 C 0.63973 0.79962 0.13188 0.0
C1474 C 0.5898 0.82164 0.12901 0.0
C1475 C 0.57583 0.79301 0.12977 0.0
C1476 C 0.59413 0.76763 0.13118 0.0
H1477 H 0.39562 0.71827 0.11979 0.0
H1478 H 0.44956 0.72896 0.12234 0.0
C1479 C 0.62565 0.77088 0.13232 0.0
C1480 C 0.54221 0.78976 0.12873 0.0
H1481 H 0.48052 0.76061 0.15096 0.0
C1482 C 0.52709 0.80134 0.11352 0.0
C1483 C 0.52503 0.77542 0.14258 0.0
C1484 C 0.53944 0.76408 0.15981 0.0
C1485 C 0.49556 0.79811 0.1115 0.0
C1486 C 0.47852 0.78319 0.12514 0.0
C1487 C 0.49355 0.77201 0.14048 0.0
C1488 C 0.44534 0.77742 0.12333 0.0
C1489 C 0.48081 0.80982 0.09448 0.0
C1490 C 0.42471 0.80114 0.12317 0.0
C1491 C 0.39352 0.79507 0.12163 0.0
C1492 C 0.38237 0.76516 0.12015 0.0
C1493 C 0.40322 0.74159 0.12047 0.0
C1494 C 0.4342 0.74764 0.1221 0.0
H1495 H 0.4976 0.81539 0.08366 0.0
H1496 H 0.46429 0.79298 0.08873 0.0
H1497 H 0.46842 0.83062 0.09813 0.0
H1498 H 0.4327 0.82433 0.12439 0.0
H1499 H 0.3782 0.81376 0.12145 0.0
H1500 H 0.3122 0.41842 0.65893 0.0
H1501 H 0.31683 0.47352 0.65771 0.0
H1502 H 0.22727 0.47711 0.6349 0.0
H1503 H 0.22244 0.42228 0.6362 0.0
H1504 H 0.31424 0.51253 0.62916 0.0
H1505 H 0.22075 0.53596 0.67785 0.0
H1506 H 0.23631 0.4989 0.67478 0.0
H1507 H 0.20957 0.51253 0.6585 0.0
C1508 C 0.29355 0.43091 0.65357 0.0
C1509 C 0.2668 0.41583 0.64787 0.0
C1510 C 0.29618 0.46247 0.65293 0.0
C1511 C 0.27215 0.47966 0.6466 0.0
C1512 C 0.24581 0.46456 0.64038 0.0
H1513 H 0.2492 0.67535 0.63629 0.0
H1514 H 0.24316 0.62019 0.63311 0.0
C1515 C 0.24309 0.4331 0.6411 0.0
C1516 C 0.27469 0.5133 0.64636 0.0
H1517 H 0.24185 0.57797 0.66248 0.0
C1518 C 0.29843 0.5268 0.63648 0.0
C1519 C 0.25403 0.53208 0.65587 0.0
C1520 C 0.2289 0.51919 0.66749 0.0
C1521 C 0.30195 0.55837 0.63576 0.0
C1522 C 0.28141 0.57709 0.64534 0.0
C1523 C 0.25747 0.56365 0.65503 0.0
C1524 C 0.28543 0.61055 0.6464 0.0
C1525 C 0.32752 0.57147 0.62458 0.0
C1526 C 0.31107 0.6235 0.65497 0.0
C1527 C 0.31449 0.65483 0.65683 0.0
C1528 C 0.29232 0.67414 0.65022 0.0
C1529 C 0.26678 0.66118 0.64141 0.0
C1530 C 0.26325 0.62967 0.63966 0.0
H1531 H 0.33591 0.55494 0.61416 0.0
H1532 H 0.32042 0.59204 0.61747 0.0
H1533 H 0.34654 0.57783 0.63389 0.0
H1534 H 0.32829 0.60931 0.66052 0.0
H1535 H 0.33464 0.66393 0.66347 0.0
H1536 H 0.63528 0.77694 0.86737 0.0
H1537 H 0.58026 0.77135 0.86621 0.0
H1538 H 0.57164 0.85191 0.89993 0.0
H1539 H 0.62649 0.85757 0.9013 0.0
H1540 H 0.53785 0.76529 0.89462 0.0
H1541 H 0.51798 0.86944 0.85593 0.0
H1542 H 0.55486 0.85325 0.85785 0.0
H1543 H 0.53961 0.8752 0.87662 0.0
C1544 C 0.62178 0.79338 0.87467 0.0
C1545 C 0.63557 0.81788 0.88431 0.0
C1546 C 0.59023 0.79022 0.87391 0.0
C1547 C 0.5717 0.81152 0.88268 0.0
C1548 C 0.58536 0.8356 0.89264 0.0
H1549 H 0.37448 0.82884 0.88885 0.0
H1550 H 0.42913 0.83593 0.89323 0.0
C1551 C 0.61685 0.8388 0.89341 0.0
C1552 C 0.53814 0.80835 0.8816 0.0
H1553 H 0.4747 0.84336 0.86691 0.0
C1554 C 0.52407 0.78234 0.88853 0.0
C1555 C 0.52005 0.83068 0.87376 0.0
C1556 C 0.53383 0.85861 0.86546 0.0
C1557 C 0.49251 0.77813 0.88793 0.0
C1558 C 0.47444 0.80025 0.87986 0.0
C1559 C 0.48847 0.82644 0.87314 0.0
C1560 C 0.44115 0.79595 0.87749 0.0
C1561 C 0.47877 0.75017 0.89622 0.0
C1562 C 0.42965 0.77139 0.867 0.0
C1563 C 0.39854 0.76724 0.86453 0.0
C1564 C 0.37795 0.78771 0.87234 0.0
C1565 C 0.38953 0.81248 0.88276 0.0
C1566 C 0.42081 0.81664 0.88521 0.0
H1567 H 0.49404 0.74041 0.90653 0.0
H1568 H 0.45684 0.75506 0.90295 0.0
H1569 H 0.47476 0.73287 0.88518 0.0
H1570 H 0.4448 0.75541 0.8606 0.0
H1571 H 0.39072 0.74767 0.85663 0.0
H1572 H 0.21514 0.40421 0.38055 0.0
H1573 H 0.22223 0.45901 0.38216 0.0
H1574 H 0.3039 0.4488 0.41337 0.0
H1575 H 0.29709 0.3939 0.41159 0.0
H1576 H 0.22378 0.49778 0.41099 0.0
H1577 H 0.33339 0.50516 0.37459 0.0
H1578 H 0.31081 0.47088 0.37479 0.0
H1579 H 0.33456 0.48122 0.39409 0.0
C1580 C 0.23465 0.41359 0.38774 0.0
C1581 C 0.25561 0.3945 0.39587 0.0
C1582 C 0.23871 0.44501 0.38863 0.0
C1583 C 0.26385 0.45825 0.39765 0.0
C1584 C 0.28474 0.43927 0.40589 0.0
H1585 H 0.32576 0.64048 0.42449 0.0
H1586 H 0.31524 0.58628 0.4229 0.0
C1587 C 0.2808 0.40779 0.40489 0.0
C1588 C 0.26766 0.49186 0.39882 0.0
H1589 H 0.31714 0.54995 0.38997 0.0
C1590 C 0.24413 0.50916 0.40627 0.0
C1591 C 0.29413 0.50693 0.3926 0.0
C1592 C 0.31953 0.49014 0.3834 0.0
C1593 C 0.24665 0.54083 0.40808 0.0
C1594 C 0.27332 0.55575 0.40217 0.0
C1595 C 0.29674 0.53853 0.39459 0.0
C1596 C 0.27783 0.58914 0.40403 0.0
C1597 C 0.22107 0.55805 0.41673 0.0
C1598 C 0.26003 0.60905 0.39413 0.0
C1599 C 0.26615 0.64028 0.39491 0.0
C1600 C 0.29031 0.65223 0.40554 0.0
C1601 C 0.30733 0.6322 0.41591 0.0
C1602 C 0.30128 0.60111 0.41507 0.0
H1603 H 0.20492 0.54296 0.42397 0.0
H1604 H 0.22984 0.57549 0.42666 0.0
H1605 H 0.20858 0.56967 0.40584 0.0
H1606 H 0.24204 0.60036 0.38532 0.0
H1607 H 0.25278 0.65486 0.38659 0.0
H1608 H 0.38957 0.3091 0.92849 0.0
H1609 H 0.44386 0.30481 0.92436 0.0
H1610 H 0.42959 0.22629 0.88918 0.0
H1611 H 0.37488 0.23026 0.89339 0.0
H1612 H 0.48002 0.257 0.93356 0.0
H1613 H 0.48738 0.27855 0.85877 0.0
H1614 H 0.4542 0.28698 0.87222 0.0
H1615 H 0.46145 0.24881 0.86495 0.0
C1616 C 0.39779 0.29076 0.91994 0.0
C1617 C 0.3776 0.26989 0.91137 0.0
C1618 C 0.42898 0.28846 0.91751 0.0
C1619 C 0.44092 0.26542 0.90633 0.0
C1620 C 0.42095 0.24463 0.89761 0.0
H1621 H 0.62556 0.2154 0.87996 0.0
H1622 H 0.57078 0.21912 0.88217 0.0
C1623 C 0.38961 0.2469 0.90004 0.0
C1624 C 0.4743 0.26275 0.90448 0.0
H1625 H 0.53245 0.26469 0.87353 0.0
C1626 C 0.49148 0.25875 0.92043 0.0
C1627 C 0.4893 0.26495 0.88736 0.0
C1628 C 0.47225 0.27031 0.86984 0.0
C1629 C 0.52309 0.25656 0.91973 0.0
C1630 C 0.53816 0.2591 0.90263 0.0
C1631 C 0.52097 0.26286 0.88665 0.0
C1632 C 0.57169 0.25751 0.90106 0.0
C1633 C 0.53997 0.25086 0.93727 0.0
C1634 C 0.59065 0.2782 0.91066 0.0
C1635 C 0.62213 0.27597 0.90957 0.0
C1636 C 0.63544 0.25309 0.89873 0.0
C1637 C 0.6163 0.23295 0.88873 0.0
C1638 C 0.58486 0.23518 0.88986 0.0
H1639 H 0.52488 0.24133 0.94797 0.0
H1640 H 0.55879 0.23511 0.93478 0.0
H1641 H 0.54962 0.27251 0.94278 0.0
H1642 H 0.58109 0.29606 0.91909 0.0
H1643 H 0.63595 0.29184 0.91752 0.0
H1644 H 0.73326 0.38489 0.42617 0.0
H1645 H 0.74398 0.43863 0.42278 0.0
H1646 H 0.82015 0.41792 0.38815 0.0
H1647 H 0.80883 0.36395 0.3909 0.0
H1648 H 0.79204 0.4752 0.43102 0.0
H1649 H 0.77328 0.473 0.35558 0.0
H1650 H 0.76336 0.4415 0.36977 0.0
H1651 H 0.80192 0.44792 0.36293 0.0
C1652 C 0.75226 0.39165 0.41776 0.0
C1653 C 0.76984 0.36986 0.40857 0.0
C1654 C 0.75848 0.42251 0.41592 0.0
C1655 C 0.78243 0.43252 0.40483 0.0
C1656 C 0.80103 0.41088 0.39639 0.0
H1657 H 0.84474 0.61285 0.37436 0.0
H1658 H 0.8388 0.55856 0.37887 0.0
C1659 C 0.79477 0.37991 0.39819 0.0
C1660 C 0.78745 0.46553 0.402 0.0
H1661 H 0.79041 0.51933 0.36902 0.0
C1662 C 0.79166 0.48481 0.41745 0.0
C1663 C 0.78684 0.47826 0.38431 0.0
C1664 C 0.78083 0.45919 0.3672 0.0
C1665 C 0.79559 0.51621 0.4157 0.0
C1666 C 0.7949 0.52889 0.39802 0.0
C1667 C 0.79095 0.50965 0.38256 0.0
C1668 C 0.79824 0.56206 0.39527 0.0
C1669 C 0.80093 0.5355 0.43278 0.0
C1670 C 0.77716 0.58224 0.40272 0.0
C1671 C 0.78052 0.6134 0.40017 0.0
C1672 C 0.80505 0.62514 0.3901 0.0
C1673 C 0.82584 0.60476 0.38242 0.0
C1674 C 0.82239 0.57363 0.38491 0.0
H1675 H 0.80835 0.52191 0.44453 0.0
H1676 H 0.81822 0.5534 0.43028 0.0
H1677 H 0.77959 0.54658 0.43677 0.0
H1678 H 0.75803 0.57388 0.4105 0.0
H1679 H 0.76417 0.62827 0.4064 0.0
H1680 H 0.25378 0.20837 0.35568 0.0
H1681 H 0.2508 0.1831 0.32524 0.0
H1682 H 0.21101 0.26219 0.30296 0.0
H1683 H 0.21411 0.28758 0.33306 0.0
H1684 H 0.19163 0.18485 0.29306 0.0
H1685 H 0.30497 0.23694 0.28069 0.0
H1686 H 0.29317 0.22465 0.30314 0.0
H1687 H 0.27823 0.25844 0.29401 0.0
C1688 C 0.24343 0.21996 0.34444 0.0
C1689 C 0.23435 0.25008 0.34674 0.0
C1690 C 0.24189 0.20554 0.32705 0.0
C1691 C 0.23088 0.22091 0.31188 0.0
C1692 C 0.21959 0.24998 0.31451 0.0
H1693 H 0.18848 0.23382 0.20312 0.0
H1694 H 0.18856 0.22025 0.23527 0.0
C1695 C 0.22136 0.26444 0.33174 0.0
C1696 C 0.23431 0.20879 0.29283 0.0
H1697 H 0.27724 0.22007 0.25457 0.0
C1698 C 0.21066 0.19184 0.28468 0.0
C1699 C 0.25935 0.21755 0.28202 0.0
C1700 C 0.28557 0.23528 0.29033 0.0
C1701 C 0.21052 0.18517 0.26566 0.0
C1702 C 0.23424 0.19649 0.25449 0.0
C1703 C 0.25898 0.21137 0.26299 0.0
C1704 C 0.23158 0.19795 0.23409 0.0
C1705 C 0.18446 0.16688 0.25766 0.0
C1706 C 0.25554 0.1896 0.22238 0.0
C1707 C 0.2555 0.19749 0.20376 0.0
C1708 C 0.23169 0.21419 0.19675 0.0
C1709 C 0.20697 0.22069 0.20816 0.0
C1710 C 0.20691 0.21271 0.22658 0.0
H1711 H 0.17619 0.14994 0.26759 0.0
H1712 H 0.1655 0.18206 0.25484 0.0
H1713 H 0.19083 0.15501 0.24465 0.0
H1714 H 0.275 0.17851 0.22788 0.0
H1715 H 0.27508 0.19274 0.19533 0.0
H1716 H 0.81781 0.26445 0.85672 0.0
H1717 H 0.83973 0.26368 0.82552 0.0
H1718 H 0.7516 0.24433 0.80263 0.0
H1719 H 0.72976 0.24514 0.83338 0.0
H1720 H 0.8372 0.2188 0.7944 0.0
H1721 H 0.77999 0.3251 0.77918 0.0
H1722 H 0.78542 0.31241 0.80234 0.0
H1723 H 0.75488 0.29711 0.78852 0.0
C1724 C 0.80329 0.25938 0.84504 0.0
C1725 C 0.77199 0.25511 0.84752 0.0
C1726 C 0.8158 0.25912 0.82723 0.0
C1727 C 0.79716 0.25462 0.81172 0.0
C1728 C 0.76632 0.24847 0.81434 0.0
H1729 H 0.79436 0.20117 0.70218 0.0
H1730 H 0.80521 0.20539 0.7349 0.0
C1731 C 0.75389 0.24882 0.83197 0.0
C1732 C 0.80893 0.25752 0.79264 0.0
H1733 H 0.79512 0.29481 0.75308 0.0
C1734 C 0.82854 0.23578 0.78542 0.0
C1735 C 0.79829 0.2801 0.78098 0.0
C1736 C 0.77872 0.30521 0.78817 0.0
C1737 C 0.8358 0.23464 0.76654 0.0
C1738 C 0.82267 0.25545 0.75454 0.0
C1739 C 0.80508 0.27863 0.76211 0.0
C1740 C 0.82297 0.25117 0.73409 0.0
C1741 C 0.85689 0.21066 0.75961 0.0
C1742 C 0.82978 0.27529 0.72239 0.0
C1743 C 0.82351 0.27284 0.70344 0.0
C1744 C 0.80998 0.24637 0.69601 0.0
C1745 C 0.80512 0.22172 0.70751 0.0
C1746 C 0.8115 0.22407 0.72628 0.0
H1747 H 0.87388 0.20547 0.77024 0.0
H1748 H 0.84373 0.18959 0.75654 0.0
H1749 H 0.86885 0.21759 0.74692 0.0
H1750 H 0.83836 0.29655 0.72807 0.0
H1751 H 0.8269 0.29238 0.69497 0.0
H1752 H 0.81961 0.78549 0.17757 0.0
H1753 H 0.83975 0.78598 0.20913 0.0
H1754 H 0.75353 0.81414 0.23005 0.0
H1755 H 0.73328 0.81344 0.19882 0.0
H1756 H 0.82434 0.83988 0.24592 0.0
H1757 H 0.78689 0.71908 0.24558 0.0
H1758 H 0.8025 0.73596 0.22523 0.0
H1759 H 0.76561 0.74604 0.23301 0.0
C1760 C 0.80529 0.79272 0.18885 0.0
C1761 C 0.77481 0.79927 0.18573 0.0
C1762 C 0.8168 0.79295 0.20686 0.0
C1763 C 0.79809 0.80014 0.2219 0.0
C1764 C 0.76836 0.80871 0.21864 0.0
H1765 H 0.79493 0.80144 0.34054 0.0
H1766 H 0.79726 0.81766 0.30858 0.0
C1767 C 0.75681 0.80819 0.20077 0.0
C1768 C 0.80765 0.79452 0.24105 0.0
H1769 H 0.8028 0.74067 0.27366 0.0
C1770 C 0.82009 0.81811 0.252 0.0
C1771 C 0.802 0.76616 0.24891 0.0
C1772 C 0.78855 0.74018 0.23768 0.0
C1773 C 0.82673 0.81406 0.27075 0.0
C1774 C 0.82003 0.78589 0.2788 0.0
C1775 C 0.80813 0.76224 0.26761 0.0
C1776 C 0.824 0.78014 0.29882 0.0
C1777 C 0.84098 0.8399 0.28165 0.0
C1778 C 0.83878 0.75407 0.30425 0.0
C1779 C 0.83684 0.74447 0.32237 0.0
C1780 C 0.82048 0.76092 0.33562 0.0
C1781 C 0.808 0.78847 0.33068 0.0
C1782 C 0.8094 0.79781 0.31236 0.0
H1783 H 0.85377 0.85542 0.27259 0.0
H1784 H 0.82297 0.85305 0.28853 0.0
H1785 H 0.85647 0.83173 0.29235 0.0
H1786 H 0.85031 0.74007 0.29417 0.0
H1787 H 0.84664 0.72312 0.32579 0.0
H1788 H 0.18898 0.8166 0.83806 0.0
H1789 H 0.18884 0.82837 0.80535 0.0
H1790 H 0.28397 0.85003 0.80811 0.0
H1791 H 0.28406 0.83853 0.841 0.0
H1792 H 0.21434 0.87992 0.7808 0.0
H1793 H 0.26907 0.76808 0.7757 0.0
H1794 H 0.24838 0.78019 0.79586 0.0
H1795 H 0.28536 0.79562 0.79154 0.0
C1796 C 0.20947 0.82554 0.83191 0.0
C1797 C 0.23642 0.8272 0.8421 0.0
C1798 C 0.20942 0.832 0.81318 0.0
C1799 C 0.23643 0.83977 0.80427 0.0
C1800 C 0.26286 0.84413 0.81477 0.0
H1801 H 0.28604 0.86704 0.69196 0.0
H1802 H 0.27095 0.87403 0.72404 0.0
C1803 C 0.26284 0.83797 0.83361 0.0
C1804 C 0.23778 0.83833 0.78385 0.0
H1805 H 0.26143 0.79337 0.74808 0.0
C1806 C 0.22467 0.86108 0.77361 0.0
C1807 C 0.25062 0.81333 0.77451 0.0
C1808 C 0.26402 0.78772 0.78487 0.0
C1809 C 0.22489 0.85986 0.75422 0.0
C1810 C 0.23849 0.83523 0.7449 0.0
C1811 C 0.25088 0.81217 0.7552 0.0
C1812 C 0.24245 0.83391 0.72456 0.0
C1813 C 0.21046 0.88481 0.74385 0.0
C1814 C 0.23093 0.80934 0.71395 0.0
C1815 C 0.23932 0.80546 0.69542 0.0
C1816 C 0.25984 0.82579 0.6874 0.0
C1817 C 0.27 0.85115 0.69778 0.0
C1818 C 0.26132 0.85523 0.71612 0.0
H1819 H 0.194 0.89726 0.75253 0.0
H1820 H 0.22824 0.9011 0.73947 0.0
H1821 H 0.19875 0.87579 0.73133 0.0
H1822 H 0.21654 0.79245 0.72024 0.0
H1823 H 0.23161 0.78545 0.68784 0.0
H1824 H 0.81659 0.81765 0.84036 0.0
H1825 H 0.83485 0.8197 0.80875 0.0
H1826 H 0.75752 0.87165 0.79407 0.0
H1827 H 0.73838 0.86781 0.82547 0.0
H1828 H 0.7573 0.82268 0.77525 0.0
H1829 H 0.87327 0.86918 0.77013 0.0
H1830 H 0.87125 0.84097 0.78733 0.0
H1831 H 0.85027 0.87515 0.79036 0.0
C1832 C 0.8044 0.83093 0.83061 0.0
C1833 C 0.77622 0.84281 0.83532 0.0
C1834 C 0.81487 0.8321 0.81245 0.0
C1835 C 0.79763 0.84584 0.79887 0.0
C1836 C 0.77124 0.86084 0.80422 0.0
H1837 H 0.80933 0.81732 0.67899 0.0
H1838 H 0.81507 0.84336 0.70899 0.0
C1839 C 0.76041 0.85894 0.82222 0.0
C1840 C 0.80318 0.83888 0.77899 0.0
H1841 H 0.85795 0.83289 0.74591 0.0
C1842 C 0.77919 0.82572 0.7688 0.0
C1843 C 0.83174 0.84248 0.77041 0.0
C1844 C 0.85797 0.85802 0.78011 0.0
C1845 C 0.78317 0.81505 0.75072 0.0
C1846 C 0.81206 0.81696 0.74257 0.0
C1847 C 0.8359 0.83117 0.75231 0.0
C1848 C 0.81746 0.80235 0.72437 0.0
C1849 C 0.75658 0.80078 0.7406 0.0
C1850 C 0.8183 0.77079 0.72307 0.0
C1851 C 0.81475 0.75592 0.70606 0.0
C1852 C 0.81055 0.77236 0.69002 0.0
C1853 C 0.81278 0.80405 0.69109 0.0
C1854 C 0.81603 0.81897 0.70822 0.0
H1855 H 0.73482 0.80579 0.74751 0.0
H1856 H 0.75565 0.80881 0.72627 0.0
H1857 H 0.75915 0.77593 0.73996 0.0
H1858 H 0.81928 0.7576 0.7354 0.0
H1859 H 0.81316 0.73151 0.70564 0.0
H1860 H 0.24643 0.80692 0.18514 0.0
H1861 H 0.23305 0.8059 0.21784 0.0
H1862 H 0.31963 0.76866 0.23009 0.0
H1863 H 0.33293 0.76901 0.19756 0.0
H1864 H 0.22962 0.75293 0.23879 0.0
H1865 H 0.31121 0.83584 0.26944 0.0
H1866 H 0.30244 0.83445 0.24518 0.0
H1867 H 0.3286 0.8084 0.25454 0.0
C1868 C 0.26269 0.79865 0.19479 0.0
C1869 C 0.29054 0.78749 0.18859 0.0
C1870 C 0.25504 0.79821 0.2135 0.0
C1871 C 0.27533 0.78724 0.22645 0.0
C1872 C 0.30373 0.77759 0.22042 0.0
H1873 H 0.2585 0.7003 0.32922 0.0
H1874 H 0.25787 0.71401 0.29695 0.0
C1875 C 0.31129 0.77781 0.20174 0.0
C1876 C 0.26622 0.78361 0.24601 0.0
H1877 H 0.28791 0.80108 0.29011 0.0
C1878 C 0.24209 0.7638 0.25001 0.0
C1879 C 0.28224 0.79799 0.26068 0.0
C1880 C 0.30738 0.82059 0.25729 0.0
C1881 C 0.23452 0.75689 0.26826 0.0
C1882 C 0.25168 0.76995 0.2829 0.0
C1883 C 0.27486 0.79087 0.27891 0.0
C1884 C 0.2474 0.76084 0.30233 0.0
C1885 C 0.20841 0.73544 0.27169 0.0
C1886 C 0.24106 0.7824 0.31618 0.0
C1887 C 0.24117 0.77452 0.33473 0.0
C1888 C 0.24829 0.7451 0.33984 0.0
C1889 C 0.25282 0.72315 0.32586 0.0
C1890 C 0.2525 0.73098 0.30733 0.0
H1891 H 0.19231 0.73466 0.25998 0.0
H1892 H 0.21712 0.71238 0.27335 0.0
H1893 H 0.19605 0.74194 0.28442 0.0
H1894 H 0.2369 0.80554 0.31266 0.0
H1895 H 0.23687 0.79179 0.34511 0.0
H1896 H 0.26891 0.32215 0.71634 0.0
H1897 H 0.26158 0.30083 0.74671 0.0
H1898 H 0.24448 0.21309 0.72168 0.0
H1899 H 0.25164 0.23454 0.691 0.0
H1900 H 0.21208 0.26437 0.763 0.0
H1901 H 0.32166 0.20567 0.75574 0.0
H1902 H 0.31173 0.23636 0.74118 0.0
H1903 H 0.29393 0.2 0.73784 0.0
C1904 C 0.26281 0.29846 0.71726 0.0
C1905 C 0.2608 0.28001 0.70132 0.0
C1906 C 0.25869 0.2863 0.73463 0.0
C1907 C 0.25289 0.25534 0.73647 0.0
C1908 C 0.24917 0.23703 0.72055 0.0
H1909 H 0.22713 0.1838 0.84748 0.0
H1910 H 0.22477 0.18759 0.814 0.0
C1911 C 0.25294 0.24933 0.70305 0.0
C1912 C 0.25313 0.24245 0.75514 0.0
H1913 H 0.29821 0.20489 0.78472 0.0
C1914 C 0.23056 0.25085 0.76768 0.0
C1915 C 0.27758 0.22524 0.76126 0.0
C1916 C 0.30279 0.2163 0.74841 0.0
C1917 C 0.23214 0.24308 0.78629 0.0
C1918 C 0.25693 0.22646 0.79249 0.0
C1919 C 0.27915 0.21745 0.77987 0.0
C1920 C 0.26122 0.22054 0.81232 0.0
C1921 C 0.20802 0.25386 0.7994 0.0
C1922 C 0.28337 0.23682 0.82237 0.0
C1923 C 0.28482 0.23473 0.84152 0.0
C1924 C 0.26422 0.21616 0.85098 0.0
C1925 C 0.24343 0.19826 0.84069 0.0
C1926 C 0.24187 0.20054 0.82154 0.0
H1927 H 0.1924 0.26971 0.79288 0.0
H1928 H 0.19461 0.23419 0.80424 0.0
H1929 H 0.21845 0.26526 0.81165 0.0
H1930 H 0.2986 0.25229 0.8155 0.0
H1931 H 0.30119 0.24871 0.84898 0.0
H1932 H 0.83437 0.22761 0.35455 0.0
H1933 H 0.84063 0.20849 0.32291 0.0
H1934 H 0.80957 0.29306 0.30261 0.0
H1935 H 0.80407 0.31233 0.33394 0.0
H1936 H 0.79738 0.19772 0.29999 0.0
H1937 H 0.87397 0.27786 0.26617 0.0
H1938 H 0.87046 0.2771 0.29088 0.0
H1939 H 0.84489 0.29879 0.27741 0.0
C1940 C 0.82972 0.24237 0.3433 0.0
C1941 C 0.81852 0.27141 0.34678 0.0
C1942 C 0.83328 0.23142 0.32521 0.0
C1943 C 0.82585 0.24934 0.31024 0.0
C1944 C 0.81634 0.27897 0.31377 0.0
H1945 H 0.72237 0.21994 0.21851 0.0
H1946 H 0.7471 0.21536 0.24804 0.0
C1947 C 0.81306 0.28999 0.33181 0.0
C1948 C 0.82382 0.23615 0.29121 0.0
H1949 H 0.83457 0.25447 0.24633 0.0
C1950 C 0.80625 0.20973 0.28828 0.0
C1951 C 0.83598 0.25105 0.27578 0.0
C1952 C 0.85767 0.27755 0.27778 0.0
C1953 C 0.79817 0.19961 0.27047 0.0
C1954 C 0.80709 0.21682 0.25518 0.0
C1955 C 0.8271 0.24148 0.25799 0.0
C1956 C 0.79233 0.21278 0.23685 0.0
C1957 C 0.7793 0.17107 0.26834 0.0
C1958 C 0.80928 0.21236 0.22045 0.0
C1959 C 0.79496 0.2151 0.20336 0.0
C1960 C 0.76355 0.21867 0.20251 0.0
C1961 C 0.74657 0.21689 0.21876 0.0
C1962 C 0.76076 0.21411 0.23571 0.0
H1963 H 0.78546 0.15461 0.27892 0.0
H1964 H 0.75517 0.17643 0.27044 0.0
H1965 H 0.78203 0.16031 0.25452 0.0
H1966 H 0.83368 0.21161 0.22096 0.0
H1967 H 0.80866 0.21703 0.19108 0.0
loop_
_geom_bond_atom_site_label_1
_geom_bond_atom_site_label_2
_geom_bond_distance
_geom_bond_site_symmetry_2
_ccdc_geom_bond_type
C0 C1 1.351 . S
C0 N3 1.368 . S
C0 H5 0.931 . S
C1 C0 1.351 . S
C1 N2 1.373 . S
C1 H29 0.930 . S
N2 C1 1.373 . S
N2 C4 1.340 . S
N3 C0 1.368 . S
N3 C4 1.321 . S
N3 Co6 2.135 . S
C4 N2 1.340 . S
C4 N3 1.321 . S
C4 H28 0.930 . S
H5 C0 0.931 . S
Co6 N3 2.135 . S
Co6 N9 2.121 . S
Co6 O14 2.055 . S
Co6 O17 2.039 . S
Co6 N20 2.140 . S
C7 O8 1.227 . S
C7 O17 1.265 . S
O8 C7 1.227 . S
N9 Co6 2.121 . S
N9 C11 1.375 . S
N9 C12 1.313 . S
C10 C11 1.338 . S
C10 N13 1.377 . S
C10 H30 0.930 . S
C11 N9 1.375 . S
C11 C10 1.338 . S
C11 H15 0.931 . S
C12 N9 1.313 . S
C12 N13 1.344 . S
C12 H16 0.930 . S
N13 C10 1.377 . S
N13 C12 1.344 . S
O14 Co6 2.055 . S
O14 C18 1.253 . S
H15 C11 0.931 . S
H16 C12 0.930 . S
O17 Co6 2.039 . S
O17 C7 1.265 . S
C18 O14 1.253 . S
C18 O19 1.227 . S
O19 C18 1.227 . S
N20 Co6 2.140 . S
N20 C23 1.346 . S
N20 C24 1.345 . S
C21 C22 1.387 . S
C21 C25 1.391 . S
C22 C21 1.387 . S
C22 C23 1.369 . S
C22 H31 0.929 . S
C23 N20 1.346 . S
C23 C22 1.369 . S
C23 H26 0.928 . S
C24 N20 1.345 . S
C24 C25 1.371 . S
C24 H27 0.931 . S
C25 C21 1.391 . S
C25 C24 1.371 . S
C25 H32 0.930 . S
H26 C23 0.928 . S
H27 C24 0.931 . S
H28 C4 0.930 . S
H29 C1 0.930 . S
H30 C10 0.930 . S
H31 C22 0.929 . S
H32 C25 0.930 . S
C33 C34 1.351 . S
C33 N36 1.368 . S
C33 H38 0.931 . S
C34 C33 1.351 . S
C34 N35 1.373 . S
C34 H62 0.930 . S
N35 C34 1.373 . S
N35 C37 1.340 . S
N36 C33 1.368 . S
N36 C37 1.321 . S
N36 Co39 2.135 . S
C37 N35 1.340 . S
C37 N36 1.321 . S
C37 H61 0.930 . S
H38 C33 0.931 . S
Co39 N36 2.135 . S
Co39 N42 2.121 . S
Co39 O47 2.055 . S
Co39 O50 2.039 . S
Co39 N53 2.140 . S
C40 O41 1.227 . S
C40 O50 1.265 . S
O41 C40 1.227 . S
N42 Co39 2.121 . S
N42 C44 1.375 . S
N42 C45 1.313 . S
C43 C44 1.338 . S
C43 N46 1.377 . S
C43 H63 0.930 . S
C44 N42 1.375 . S
C44 C43 1.338 . S
C44 H48 0.931 . S
C45 N42 1.313 . S
C45 N46 1.344 . S
C45 H49 0.930 . S
N46 C43 1.377 . S
N46 C45 1.344 . S
O47 Co39 2.055 . S
O47 C51 1.253 . S
H48 C44 0.931 . S
H49 C45 0.930 . S
O50 Co39 2.039 . S
O50 C40 1.265 . S
C51 O47 1.253 . S
C51 O52 1.227 . S
O52 C51 1.227 . S
N53 Co39 2.140 . S
N53 C56 1.346 . S
N53 C57 1.345 . S
C54 C55 1.387 . S
C54 C58 1.391 . S
C55 C54 1.387 . S
C55 C56 1.369 . S
C55 H64 0.929 . S
C56 N53 1.346 . S
C56 C55 1.369 . S
C56 H59 0.928 . S
C57 N53 1.345 . S
C57 C58 1.371 . S
C57 H60 0.931 . S
C58 C54 1.391 . S
C58 C57 1.371 . S
C58 H65 0.930 . S
H59 C56 0.928 . S
H60 C57 0.931 . S
H61 C37 0.930 . S
H62 C34 0.930 . S
H63 C43 0.930 . S
H64 C55 0.929 . S
H65 C58 0.930 . S
C66 C67 1.351 . S
C66 N69 1.368 . S
C66 H71 0.931 . S
C67 C66 1.351 . S
C67 N68 1.373 . S
C67 H95 0.930 . S
N68 C67 1.373 . S
N68 C70 1.340 . S
N69 C66 1.368 . S
N69 C70 1.321 . S
N69 Co72 2.135 . S
C70 N68 1.340 . S
C70 N69 1.321 . S
C70 H94 0.930 . S
H71 C66 0.931 . S
Co72 N69 2.135 . S
Co72 N75 2.121 . S
Co72 O80 2.055 . S
Co72 O83 2.039 . S
Co72 N86 2.140 . S
C73 O74 1.227 . S
C73 O83 1.265 . S
O74 C73 1.227 . S
N75 Co72 2.121 . S
N75 C77 1.375 . S
N75 C78 1.313 . S
C76 C77 1.338 . S
C76 N79 1.377 . S
C76 H96 0.930 . S
C77 N75 1.375 . S
C77 C76 1.338 . S
C77 H81 0.931 . S
C78 N75 1.313 . S
C78 N79 1.344 . S
C78 H82 0.930 . S
N79 C76 1.377 . S
N79 C78 1.344 . S
O80 Co72 2.055 . S
O80 C84 1.253 . S
H81 C77 0.931 . S
H82 C78 0.930 . S
O83 Co72 2.039 . S
O83 C73 1.265 . S
C84 O80 1.253 . S
C84 O85 1.227 . S
O85 C84 1.227 . S
N86 Co72 2.140 . S
N86 C89 1.346 . S
N86 C90 1.345 . S
C87 C88 1.387 . S
C87 C91 1.391 . S
C88 C87 1.387 . S
C88 C89 1.369 . S
C88 H97 0.929 . S
C89 N86 1.346 . S
C89 C88 1.369 . S
C89 H92 0.928 . S
C90 N86 1.345 . S
C90 C91 1.371 . S
C90 H93 0.931 . S
C91 C87 1.391 . S
C91 C90 1.371 . S
C91 H98 0.930 . S
H92 C89 0.928 . S
H93 C90 0.931 . S
H94 C70 0.930 . S
H95 C67 0.930 . S
H96 C76 0.930 . S
H97 C88 0.929 . S
H98 C91 0.930 . S
C99 C100 1.351 . S
C99 N102 1.368 . S
C99 H104 0.931 . S
C100 C99 1.351 . S
C100 N101 1.373 . S
C100 H128 0.930 . S
N101 C100 1.373 . S
N101 C103 1.340 . S
N102 C99 1.368 . S
N102 C103 1.321 . S
N102 Co105 2.135 . S
C103 N101 1.340 . S
C103 N102 1.321 . S
C103 H127 0.930 . S
H104 C99 0.931 . S
Co105 N102 2.135 . S
Co105 N108 2.121 . S
Co105 O113 2.055 . S
Co105 O116 2.039 . S
Co105 N119 2.140 . S
C106 O107 1.227 . S
C106 O116 1.265 . S
O107 C106 1.227 . S
N108 Co105 2.121 . S
N108 C110 1.375 . S
N108 C111 1.313 . S
C109 C110 1.338 . S
C109 N112 1.377 . S
C109 H129 0.930 . S
C110 N108 1.375 . S
C110 C109 1.338 . S
C110 H114 0.931 . S
C111 N108 1.313 . S
C111 N112 1.344 . S
C111 H115 0.930 . S
N112 C109 1.377 . S
N112 C111 1.344 . S
O113 Co105 2.055 . S
O113 C117 1.253 . S
H114 C110 0.931 . S
H115 C111 0.930 . S
O116 Co105 2.039 . S
O116 C106 1.265 . S
C117 O113 1.253 . S
C117 O118 1.227 . S
O118 C117 1.227 . S
N119 Co105 2.140 . S
N119 C122 1.346 . S
N119 C123 1.345 . S
C120 C121 1.387 . S
C120 C124 1.391 . S
C121 C120 1.387 . S
C121 C122 1.369 . S
C121 H130 0.929 . S
C122 N119 1.346 . S
C122 C121 1.369 . S
C122 H125 0.928 . S
C123 N119 1.345 . S
C123 C124 1.371 . S
C123 H126 0.931 . S
C124 C120 1.391 . S
C124 C123 1.371 . S
C124 H131 0.930 . S
H125 C122 0.928 . S
H126 C123 0.931 . S
H127 C103 0.930 . S
H128 C100 0.930 . S
H129 C109 0.930 . S
H130 C121 0.929 . S
H131 C124 0.930 . S
C132 C133 1.351 . S
C132 N135 1.368 . S
C132 H137 0.931 . S
C133 C132 1.351 . S
C133 N134 1.373 . S
C133 H161 0.930 . S
N134 C133 1.373 . S
N134 C136 1.340 . S
N135 C132 1.368 . S
N135 C136 1.321 . S
N135 Co138 2.135 . S
C136 N134 1.340 . S
C136 N135 1.321 . S
C136 H160 0.930 . S
H137 C132 0.931 . S
Co138 N135 2.135 . S
Co138 N141 2.121 . S
Co138 O146 2.055 . S
Co138 O149 2.039 . S
Co138 N152 2.140 . S
C139 O140 1.227 . S
C139 O149 1.265 . S
O140 C139 1.227 . S
N141 Co138 2.121 . S
N141 C143 1.375 . S
N141 C144 1.313 . S
C142 C143 1.338 . S
C142 N145 1.377 . S
C142 H162 0.930 . S
C143 N141 1.375 . S
C143 C142 1.338 . S
C143 H147 0.931 . S
C144 N141 1.313 . S
C144 N145 1.344 . S
C144 H148 0.930 . S
N145 C142 1.377 . S
N145 C144 1.344 . S
O146 Co138 2.055 . S
O146 C150 1.253 . S
H147 C143 0.931 . S
H148 C144 0.930 . S
O149 Co138 2.039 . S
O149 C139 1.265 . S
C150 O146 1.253 . S
C150 O151 1.227 . S
O151 C150 1.227 . S
N152 Co138 2.140 . S
N152 C155 1.346 . S
N152 C156 1.345 . S
C153 C154 1.387 . S
C153 C157 1.391 . S
C154 C153 1.387 . S
C154 C155 1.369 . S
C154 H163 0.929 . S
C155 N152 1.346 . S
C155 C154 1.369 . S
C155 H158 0.928 . S
C156 N152 1.345 . S
C156 C157 1.371 . S
C156 H159 0.931 . S
C157 C153 1.391 . S
C157 C156 1.371 . S
C157 H164 0.930 . S
H158 C155 0.928 . S
H159 C156 0.931 . S
H160 C136 0.930 . S
H161 C133 0.930 . S
H162 C142 0.930 . S
H163 C154 0.929 . S
H164 C157 0.930 . S
C165 C166 1.351 . S
C165 N168 1.368 . S
C165 H170 0.931 . S
C166 C165 1.351 . S
C166 N167 1.373 . S
C166 H194 0.930 . S
N167 C166 1.373 . S
N167 C169 1.340 . S
N168 C165 1.368 . S
N168 C169 1.321 . S
N168 Co171 2.135 . S
C169 N167 1.340 . S
C169 N168 1.321 . S
C169 H193 0.930 . S
H170 C165 0.931 . S
Co171 N168 2.135 . S
Co171 N174 2.121 . S
Co171 O179 2.055 . S
Co171 O182 2.039 . S
Co171 N185 2.140 . S
C172 O173 1.227 . S
C172 O182 1.265 . S
O173 C172 1.227 . S
N174 Co171 2.121 . S
N174 C176 1.375 . S
N174 C177 1.313 . S
C175 C176 1.338 . S
C175 N178 1.377 . S
C175 H195 0.930 . S
C176 N174 1.375 . S
C176 C175 1.338 . S
C176 H180 0.931 . S
C177 N174 1.313 . S
C177 N178 1.344 . S
C177 H181 0.930 . S
N178 C175 1.377 . S
N178 C177 1.344 . S
O179 Co171 2.055 . S
O179 C183 1.253 . S
H180 C176 0.931 . S
H181 C177 0.930 . S
O182 Co171 2.039 . S
O182 C172 1.265 . S
C183 O179 1.253 . S
C183 O184 1.227 . S
O184 C183 1.227 . S
N185 Co171 2.140 . S
N185 C188 1.346 . S
N185 C189 1.345 . S
C186 C187 1.387 . S
C186 C190 1.391 . S
C187 C186 1.387 . S
C187 C188 1.369 . S
C187 H196 0.929 . S
C188 N185 1.346 . S
C188 C187 1.369 . S
C188 H191 0.928 . S
C189 N185 1.345 . S
C189 C190 1.371 . S
C189 H192 0.931 . S
C190 C186 1.391 . S
C190 C189 1.371 . S
C190 H197 0.930 . S
H191 C188 0.928 . S
H192 C189 0.931 . S
H193 C169 0.930 . S
H194 C166 0.930 . S
H195 C175 0.930 . S
H196 C187 0.929 . S
H197 C190 0.930 . S
C198 C199 1.351 . S
C198 N201 1.368 . S
C198 H203 0.931 . S
C199 C198 1.351 . S
C199 N200 1.373 . S
C199 H227 0.930 . S
N200 C199 1.373 . S
N200 C202 1.340 . S
N201 C198 1.368 . S
N201 C202 1.321 . S
N201 Co204 2.135 . S
C202 N200 1.340 . S
C202 N201 1.321 . S
C202 H226 0.930 . S
H203 C198 0.931 . S
Co204 N201 2.135 . S
Co204 N207 2.121 . S
Co204 O212 2.055 . S
Co204 O215 2.039 . S
Co204 N218 2.140 . S
C205 O206 1.227 . S
C205 O215 1.265 . S
O206 C205 1.227 . S
N207 Co204 2.121 . S
N207 C209 1.375 . S
N207 C210 1.313 . S
C208 C209 1.338 . S
C208 N211 1.377 . S
C208 H228 0.930 . S
C209 N207 1.375 . S
C209 C208 1.338 . S
C209 H213 0.931 . S
C210 N207 1.313 . S
C210 N211 1.344 . S
C210 H214 0.930 . S
N211 C208 1.377 . S
N211 C210 1.344 . S
O212 Co204 2.055 . S
O212 C216 1.253 . S
H213 C209 0.931 . S
H214 C210 0.930 . S
O215 Co204 2.039 . S
O215 C205 1.265 . S
C216 O212 1.253 . S
C216 O217 1.227 . S
O217 C216 1.227 . S
N218 Co204 2.140 . S
N218 C221 1.346 . S
N218 C222 1.345 . S
C219 C220 1.387 . S
C219 C223 1.391 . S
C220 C219 1.387 . S
C220 C221 1.369 . S
C220 H229 0.929 . S
C221 N218 1.346 . S
C221 C220 1.369 . S
C221 H224 0.928 . S
C222 N218 1.345 . S
C222 C223 1.371 . S
C222 H225 0.931 . S
C223 C219 1.391 . S
C223 C222 1.371 . S
C223 H230 0.930 . S
H224 C221 0.928 . S
H225 C222 0.931 . S
H226 C202 0.930 . S
H227 C199 0.930 . S
H228 C208 0.930 . S
H229 C220 0.929 . S
H230 C223 0.930 . S
C231 C232 1.351 . S
C231 N234 1.368 . S
C231 H236 0.931 . S
C232 C231 1.351 . S
C232 N233 1.373 . S
C232 H260 0.930 . S
N233 C232 1.373 . S
N233 C235 1.340 . S
N234 C231 1.368 . S
N234 C235 1.321 . S
N234 Co237 2.135 . S
C235 N233 1.340 . S
C235 N234 1.321 . S
C235 H259 0.930 . S
H236 C231 0.931 . S
Co237 N234 2.135 . S
Co237 N240 2.121 . S
Co237 O245 2.055 . S
Co237 O248 2.039 . S
Co237 N251 2.140 . S
C238 O239 1.227 . S
C238 O248 1.265 . S
O239 C238 1.227 . S
N240 Co237 2.121 . S
N240 C242 1.375 . S
N240 C243 1.313 . S
C241 C242 1.338 . S
C241 N244 1.377 . S
C241 H261 0.930 . S
C242 N240 1.375 . S
C242 C241 1.338 . S
C242 H246 0.931 . S
C243 N240 1.313 . S
C243 N244 1.344 . S
C243 H247 0.930 . S
N244 C241 1.377 . S
N244 C243 1.344 . S
O245 Co237 2.055 . S
O245 C249 1.253 . S
H246 C242 0.931 . S
H247 C243 0.930 . S
O248 Co237 2.039 . S
O248 C238 1.265 . S
C249 O245 1.253 . S
C249 O250 1.227 . S
O250 C249 1.227 . S
N251 Co237 2.140 . S
N251 C254 1.346 . S
N251 C255 1.345 . S
C252 C253 1.387 . S
C252 C256 1.391 . S
C253 C252 1.387 . S
C253 C254 1.369 . S
C253 H262 0.929 . S
C254 N251 1.346 . S
C254 C253 1.369 . S
C254 H257 0.928 . S
C255 N251 1.345 . S
C255 C256 1.371 . S
C255 H258 0.931 . S
C256 C252 1.391 . S
C256 C255 1.371 . S
C256 H263 0.930 . S
H257 C254 0.928 . S
H258 C255 0.931 . S
H259 C235 0.930 . S
H260 C232 0.930 . S
H261 C241 0.930 . S
H262 C253 0.929 . S
H263 C256 0.930 . S
C264 C265 1.351 . S
C264 N267 1.368 . S
C264 H269 0.931 . S
C265 C264 1.351 . S
C265 N266 1.373 . S
C265 H293 0.930 . S
N266 C265 1.373 . S
N266 C268 1.340 . S
N267 C264 1.368 . S
N267 C268 1.321 . S
N267 Co270 2.135 . S
C268 N266 1.340 . S
C268 N267 1.321 . S
C268 H292 0.930 . S
H269 C264 0.931 . S
Co270 N267 2.135 . S
Co270 N273 2.121 . S
Co270 O278 2.055 . S
Co270 O281 2.039 . S
Co270 N284 2.140 . S
C271 O272 1.227 . S
C271 O281 1.265 . S
O272 C271 1.227 . S
N273 Co270 2.121 . S
N273 C275 1.375 . S
N273 C276 1.313 . S
C274 C275 1.338 . S
C274 N277 1.377 . S
C274 H294 0.930 . S
C275 N273 1.375 . S
C275 C274 1.338 . S
C275 H279 0.931 . S
C276 N273 1.313 . S
C276 N277 1.344 . S
C276 H280 0.930 . S
N277 C274 1.377 . S
N277 C276 1.344 . S
O278 Co270 2.055 . S
O278 C282 1.253 . S
H279 C275 0.931 . S
H280 C276 0.930 . S
O281 Co270 2.039 . S
O281 C271 1.265 . S
C282 O278 1.253 . S
C282 O283 1.227 . S
O283 C282 1.227 . S
N284 Co270 2.140 . S
N284 C287 1.346 . S
N284 C288 1.345 . S
C285 C286 1.387 . S
C285 C289 1.391 . S
C286 C285 1.387 . S
C286 C287 1.369 . S
C286 H295 0.929 . S
C287 N284 1.346 . S
C287 C286 1.369 . S
C287 H290 0.928 . S
C288 N284 1.345 . S
C288 C289 1.371 . S
C288 H291 0.931 . S
C289 C285 1.391 . S
C289 C288 1.371 . S
C289 H296 0.930 . S
H290 C287 0.928 . S
H291 C288 0.931 . S
H292 C268 0.930 . S
H293 C265 0.930 . S
H294 C274 0.930 . S
H295 C286 0.929 . S
H296 C289 0.930 . S
C297 C298 1.351 . S
C297 N300 1.368 . S
C297 H302 0.931 . S
C298 C297 1.351 . S
C298 N299 1.373 . S
C298 H326 0.930 . S
N299 C298 1.373 . S
N299 C301 1.340 . S
N300 C297 1.368 . S
N300 C301 1.321 . S
N300 Co303 2.135 . S
C301 N299 1.340 . S
C301 N300 1.321 . S
C301 H325 0.930 . S
H302 C297 0.931 . S
Co303 N300 2.135 . S
Co303 N306 2.121 . S
Co303 O311 2.055 . S
Co303 O314 2.039 . S
Co303 N317 2.140 . S
C304 O305 1.227 . S
C304 O314 1.265 . S
O305 C304 1.227 . S
N306 Co303 2.121 . S
N306 C308 1.375 . S
N306 C309 1.313 . S
C307 C308 1.338 . S
C307 N310 1.377 . S
C307 H327 0.930 . S
C308 N306 1.375 . S
C308 C307 1.338 . S
C308 H312 0.931 . S
C309 N306 1.313 . S
C309 N310 1.344 . S
C309 H313 0.930 . S
N310 C307 1.377 . S
N310 C309 1.344 . S
O311 Co303 2.055 . S
O311 C315 1.253 . S
H312 C308 0.931 . S
H313 C309 0.930 . S
O314 Co303 2.039 . S
O314 C304 1.265 . S
C315 O311 1.253 . S
C315 O316 1.227 . S
O316 C315 1.227 . S
N317 Co303 2.140 . S
N317 C320 1.346 . S
N317 C321 1.345 . S
C318 C319 1.387 . S
C318 C322 1.391 . S
C319 C318 1.387 . S
C319 C320 1.369 . S
C319 H328 0.929 . S
C320 N317 1.346 . S
C320 C319 1.369 . S
C320 H323 0.928 . S
C321 N317 1.345 . S
C321 C322 1.371 . S
C321 H324 0.931 . S
C322 C318 1.391 . S
C322 C321 1.371 . S
C322 H329 0.930 . S
H323 C320 0.928 . S
H324 C321 0.931 . S
H325 C301 0.930 . S
H326 C298 0.930 . S
H327 C307 0.930 . S
H328 C319 0.929 . S
H329 C322 0.930 . S
C330 C331 1.351 . S
C330 N333 1.368 . S
C330 H335 0.931 . S
C331 C330 1.351 . S
C331 N332 1.373 . S
C331 H359 0.930 . S
N332 C331 1.373 . S
N332 C334 1.340 . S
N333 C330 1.368 . S
N333 C334 1.321 . S
N333 Co336 2.135 . S
C334 N332 1.340 . S
C334 N333 1.321 . S
C334 H358 0.930 . S
H335 C330 0.931 . S
Co336 N333 2.135 . S
Co336 N339 2.121 . S
Co336 O344 2.055 . S
Co336 O347 2.039 . S
Co336 N350 2.140 . S
C337 O338 1.227 . S
C337 O347 1.265 . S
O338 C337 1.227 . S
N339 Co336 2.121 . S
N339 C341 1.375 . S
N339 C342 1.313 . S
C340 C341 1.338 . S
C340 N343 1.377 . S
C340 H360 0.930 . S
C341 N339 1.375 . S
C341 C340 1.338 . S
C341 H345 0.931 . S
C342 N339 1.313 . S
C342 N343 1.344 . S
C342 H346 0.930 . S
N343 C340 1.377 . S
N343 C342 1.344 . S
O344 Co336 2.055 . S
O344 C348 1.253 . S
H345 C341 0.931 . S
H346 C342 0.930 . S
O347 Co336 2.039 . S
O347 C337 1.265 . S
C348 O344 1.253 . S
C348 O349 1.227 . S
O349 C348 1.227 . S
N350 Co336 2.140 . S
N350 C353 1.346 . S
N350 C354 1.345 . S
C351 C352 1.387 . S
C351 C355 1.391 . S
C352 C351 1.387 . S
C352 C353 1.369 . S
C352 H361 0.929 . S
C353 N350 1.346 . S
C353 C352 1.369 . S
C353 H356 0.928 . S
C354 N350 1.345 . S
C354 C355 1.371 . S
C354 H357 0.931 . S
C355 C351 1.391 . S
C355 C354 1.371 . S
C355 H362 0.930 . S
H356 C353 0.928 . S
H357 C354 0.931 . S
H358 C334 0.930 . S
H359 C331 0.930 . S
H360 C340 0.930 . S
H361 C352 0.929 . S
H362 C355 0.930 . S
C363 C364 1.351 . S
C363 N366 1.368 . S
C363 H368 0.931 . S
C364 C363 1.351 . S
C364 N365 1.373 . S
C364 H392 0.930 . S
N365 C364 1.373 . S
N365 C367 1.340 . S
N366 C363 1.368 . S
N366 C367 1.321 . S
N366 Co369 2.135 . S
C367 N365 1.340 . S
C367 N366 1.321 . S
C367 H391 0.930 . S
H368 C363 0.931 . S
Co369 N366 2.135 . S
Co369 N372 2.121 . S
Co369 O377 2.055 . S
Co369 O380 2.039 . S
Co369 N383 2.140 . S
C370 O371 1.227 . S
C370 O380 1.265 . S
O371 C370 1.227 . S
N372 Co369 2.121 . S
N372 C374 1.375 . S
N372 C375 1.313 . S
C373 C374 1.338 . S
C373 N376 1.377 . S
C373 H393 0.930 . S
C374 N372 1.375 . S
C374 C373 1.338 . S
C374 H378 0.931 . S
C375 N372 1.313 . S
C375 N376 1.344 . S
C375 H379 0.930 . S
N376 C373 1.377 . S
N376 C375 1.344 . S
O377 Co369 2.055 . S
O377 C381 1.253 . S
H378 C374 0.931 . S
H379 C375 0.930 . S
O380 Co369 2.039 . S
O380 C370 1.265 . S
C381 O377 1.253 . S
C381 O382 1.227 . S
O382 C381 1.227 . S
N383 Co369 2.140 . S
N383 C386 1.346 . S
N383 C387 1.345 . S
C384 C385 1.387 . S
C384 C388 1.391 . S
C385 C384 1.387 . S
C385 C386 1.369 . S
C385 H394 0.929 . S
C386 N383 1.346 . S
C386 C385 1.369 . S
C386 H389 0.928 . S
C387 N383 1.345 . S
C387 C388 1.371 . S
C387 H390 0.931 . S
C388 C384 1.391 . S
C388 C387 1.371 . S
C388 H395 0.930 . S
H389 C386 0.928 . S
H390 C387 0.931 . S
H391 C367 0.930 . S
H392 C364 0.930 . S
H393 C373 0.930 . S
H394 C385 0.929 . S
H395 C388 0.930 . S
C396 C397 1.351 . S
C396 N399 1.368 . S
C396 H401 0.931 . S
C397 C396 1.351 . S
C397 N398 1.373 . S
C397 H425 0.930 . S
N398 C397 1.373 . S
N398 C400 1.340 . S
N399 C396 1.368 . S
N399 C400 1.321 . S
N399 Co402 2.135 . S
C400 N398 1.340 . S
C400 N399 1.321 . S
C400 H424 0.930 . S
H401 C396 0.931 . S
Co402 N399 2.135 . S
Co402 N405 2.121 . S
Co402 O410 2.055 . S
Co402 O413 2.039 . S
Co402 N416 2.140 . S
C403 O404 1.227 . S
C403 O413 1.265 . S
O404 C403 1.227 . S
N405 Co402 2.121 . S
N405 C407 1.375 . S
N405 C408 1.313 . S
C406 C407 1.338 . S
C406 N409 1.377 . S
C406 H426 0.930 . S
C407 N405 1.375 . S
C407 C406 1.338 . S
C407 H411 0.931 . S
C408 N405 1.313 . S
C408 N409 1.344 . S
C408 H412 0.930 . S
N409 C406 1.377 . S
N409 C408 1.344 . S
O410 Co402 2.055 . S
O410 C414 1.253 . S
H411 C407 0.931 . S
H412 C408 0.930 . S
O413 Co402 2.039 . S
O413 C403 1.265 . S
C414 O410 1.253 . S
C414 O415 1.227 . S
O415 C414 1.227 . S
N416 Co402 2.140 . S
N416 C419 1.346 . S
N416 C420 1.345 . S
C417 C418 1.387 . S
C417 C421 1.391 . S
C418 C417 1.387 . S
C418 C419 1.369 . S
C418 H427 0.929 . S
C419 N416 1.346 . S
C419 C418 1.369 . S
C419 H422 0.928 . S
C420 N416 1.345 . S
C420 C421 1.371 . S
C420 H423 0.931 . S
C421 C417 1.391 . S
C421 C420 1.371 . S
C421 H428 0.930 . S
H422 C419 0.928 . S
H423 C420 0.931 . S
H424 C400 0.930 . S
H425 C397 0.930 . S
H426 C406 0.930 . S
H427 C418 0.929 . S
H428 C421 0.930 . S
C429 C430 1.351 . S
C429 N432 1.368 . S
C429 H434 0.931 . S
C430 C429 1.351 . S
C430 N431 1.373 . S
C430 H458 0.930 . S
N431 C430 1.373 . S
N431 C433 1.340 . S
N432 C429 1.368 . S
N432 C433 1.321 . S
N432 Co435 2.135 . S
C433 N431 1.340 . S
C433 N432 1.321 . S
C433 H457 0.930 . S
H434 C429 0.931 . S
Co435 N432 2.135 . S
Co435 N438 2.121 . S
Co435 O443 2.055 . S
Co435 O446 2.039 . S
Co435 N449 2.140 . S
C436 O437 1.227 . S
C436 O446 1.265 . S
O437 C436 1.227 . S
N438 Co435 2.121 . S
N438 C440 1.375 . S
N438 C441 1.313 . S
C439 C440 1.338 . S
C439 N442 1.377 . S
C439 H459 0.930 . S
C440 N438 1.375 . S
C440 C439 1.338 . S
C440 H444 0.931 . S
C441 N438 1.313 . S
C441 N442 1.344 . S
C441 H445 0.930 . S
N442 C439 1.377 . S
N442 C441 1.344 . S
O443 Co435 2.055 . S
O443 C447 1.253 . S
H444 C440 0.931 . S
H445 C441 0.930 . S
O446 Co435 2.039 . S
O446 C436 1.265 . S
C447 O443 1.253 . S
C447 O448 1.227 . S
O448 C447 1.227 . S
N449 Co435 2.140 . S
N449 C452 1.346 . S
N449 C453 1.345 . S
C450 C451 1.387 . S
C450 C454 1.391 . S
C451 C450 1.387 . S
C451 C452 1.369 . S
C451 H460 0.929 . S
C452 N449 1.346 . S
C452 C451 1.369 . S
C452 H455 0.928 . S
C453 N449 1.345 . S
C453 C454 1.371 . S
C453 H456 0.931 . S
C454 C450 1.391 . S
C454 C453 1.371 . S
C454 H461 0.930 . S
H455 C452 0.928 . S
H456 C453 0.931 . S
H457 C433 0.930 . S
H458 C430 0.930 . S
H459 C439 0.930 . S
H460 C451 0.929 . S
H461 C454 0.930 . S
C462 C463 1.351 . S
C462 N465 1.368 . S
C462 H467 0.931 . S
C463 C462 1.351 . S
C463 N464 1.373 . S
C463 H491 0.930 . S
N464 C463 1.373 . S
N464 C466 1.340 . S
N465 C462 1.368 . S
N465 C466 1.321 . S
N465 Co468 2.135 . S
C466 N464 1.340 . S
C466 N465 1.321 . S
C466 H490 0.930 . S
H467 C462 0.931 . S
Co468 N465 2.135 . S
Co468 N471 2.121 . S
Co468 O476 2.055 . S
Co468 O479 2.039 . S
Co468 N482 2.140 . S
C469 O470 1.227 . S
C469 O479 1.265 . S
O470 C469 1.227 . S
N471 Co468 2.121 . S
N471 C473 1.375 . S
N471 C474 1.313 . S
C472 C473 1.338 . S
C472 N475 1.377 . S
C472 H492 0.930 . S
C473 N471 1.375 . S
C473 C472 1.338 . S
C473 H477 0.931 . S
C474 N471 1.313 . S
C474 N475 1.344 . S
C474 H478 0.930 . S
N475 C472 1.377 . S
N475 C474 1.344 . S
O476 Co468 2.055 . S
O476 C480 1.253 . S
H477 C473 0.931 . S
H478 C474 0.930 . S
O479 Co468 2.039 . S
O479 C469 1.265 . S
C480 O476 1.253 . S
C480 O481 1.227 . S
O481 C480 1.227 . S
N482 Co468 2.140 . S
N482 C485 1.346 . S
N482 C486 1.345 . S
C483 C484 1.387 . S
C483 C487 1.391 . S
C484 C483 1.387 . S
C484 C485 1.369 . S
C484 H493 0.929 . S
C485 N482 1.346 . S
C485 C484 1.369 . S
C485 H488 0.928 . S
C486 N482 1.345 . S
C486 C487 1.371 . S
C486 H489 0.931 . S
C487 C483 1.391 . S
C487 C486 1.371 . S
C487 H494 0.930 . S
H488 C485 0.928 . S
H489 C486 0.931 . S
H490 C466 0.930 . S
H491 C463 0.930 . S
H492 C472 0.930 . S
H493 C484 0.929 . S
H494 C487 0.930 . S
C495 C496 1.351 . S
C495 N498 1.368 . S
C495 H500 0.931 . S
C496 C495 1.351 . S
C496 N497 1.373 . S
C496 H524 0.930 . S
N497 C496 1.373 . S
N497 C499 1.340 . S
N498 C495 1.368 . S
N498 C499 1.321 . S
N498 Co501 2.135 . S
C499 N497 1.340 . S
C499 N498 1.321 . S
C499 H523 0.930 . S
H500 C495 0.931 . S
Co501 N498 2.135 . S
Co501 N504 2.121 . S
Co501 O509 2.055 . S
Co501 O512 2.039 . S
Co501 N515 2.140 . S
C502 O503 1.227 . S
C502 O512 1.265 . S
O503 C502 1.227 . S
N504 Co501 2.121 . S
N504 C506 1.375 . S
N504 C507 1.313 . S
C505 C506 1.338 . S
C505 N508 1.377 . S
C505 H525 0.930 . S
C506 N504 1.375 . S
C506 C505 1.338 . S
C506 H510 0.931 . S
C507 N504 1.313 . S
C507 N508 1.344 . S
C507 H511 0.930 . S
N508 C505 1.377 . S
N508 C507 1.344 . S
O509 Co501 2.055 . S
O509 C513 1.253 . S
H510 C506 0.931 . S
H511 C507 0.930 . S
O512 Co501 2.039 . S
O512 C502 1.265 . S
C513 O509 1.253 . S
C513 O514 1.227 . S
O514 C513 1.227 . S
N515 Co501 2.140 . S
N515 C518 1.346 . S
N515 C519 1.345 . S
C516 C517 1.387 . S
C516 C520 1.391 . S
C517 C516 1.387 . S
C517 C518 1.369 . S
C517 H526 0.929 . S
C518 N515 1.346 . S
C518 C517 1.369 . S
C518 H521 0.928 . S
C519 N515 1.345 . S
C519 C520 1.371 . S
C519 H522 0.931 . S
C520 C516 1.391 . S
C520 C519 1.371 . S
C520 H527 0.930 . S
H521 C518 0.928 . S
H522 C519 0.931 . S
H523 C499 0.930 . S
H524 C496 0.930 . S
H525 C505 0.930 . S
H526 C517 0.929 . S
H527 C520 0.930 . S
H528 C536 0.929 . S
H529 C538 0.930 . S
H530 C540 0.930 . S
H531 C543 0.929 . S
H532 C546 0.930 . S
H533 C548 0.960 . S
H534 C548 0.960 . S
H535 C548 0.960 . S
C536 H528 0.929 . S
C536 C537 1.377 . S
C536 C538 1.384 . S
C537 C536 1.377 . S
C537 C543 1.390 . S
C538 H529 0.930 . S
C538 C536 1.384 . S
C538 C539 1.372 . S
C539 C538 1.372 . S
C539 C540 1.400 . S
C539 C544 1.490 . S
C540 H530 0.930 . S
C540 C539 1.400 . S
C540 C543 1.386 . S
H541 C557 0.930 . S
H542 C558 0.931 . S
C543 H531 0.929 . S
C543 C537 1.390 . S
C543 C540 1.386 . S
C544 C539 1.490 . S
C544 C546 1.395 . S
C544 C547 1.403 . S
H545 C551 0.930 . S
C546 H532 0.930 . S
C546 C544 1.395 . S
C546 C549 1.403 1_655 S
C547 C544 1.403 . S
C547 C548 1.524 . S
C547 C551 1.400 1_655 S
C548 H533 0.960 . S
C548 H534 0.960 . S
C548 H535 0.960 . S
C548 C547 1.524 . S
C549 C546 1.403 1_455 S
C549 C550 1.392 . S
C549 C553 1.495 . S
C550 C549 1.392 . S
C550 C551 1.385 . S
C550 C552 1.478 . S
C551 H545 0.930 . S
C551 C547 1.400 1_455 S
C551 C550 1.385 . S
C552 C550 1.478 . S
C552 C554 1.381 . S
C552 C558 1.383 . S
C553 C549 1.495 . S
C553 H559 0.959 . S
C553 H560 0.961 . S
C553 H561 0.960 . S
C554 C552 1.381 . S
C554 C555 1.394 . S
C554 H562 0.930 . S
C555 C554 1.394 . S
C555 C556 1.383 . S
C555 H563 0.929 . S
C556 C555 1.383 . S
C556 C557 1.377 . S
C557 H541 0.930 . S
C557 C556 1.377 . S
C557 C558 1.379 . S
C558 H542 0.931 . S
C558 C552 1.383 . S
C558 C557 1.379 . S
H559 C553 0.959 . S
H560 C553 0.961 . S
H561 C553 0.960 . S
H562 C554 0.930 . S
H563 C555 0.929 . S
H564 C572 0.929 . S
H565 C574 0.930 . S
H566 C576 0.930 . S
H567 C579 0.929 . S
H568 C582 0.930 . S
H569 C584 0.960 . S
H570 C584 0.960 . S
H571 C584 0.960 . S
C572 H564 0.929 . S
C572 C573 1.377 . S
C572 C574 1.384 . S
C573 C572 1.377 . S
C573 C579 1.390 . S
C574 H565 0.930 . S
C574 C572 1.384 . S
C574 C575 1.372 . S
C575 C574 1.372 . S
C575 C576 1.400 . S
C575 C580 1.490 . S
C576 H566 0.930 . S
C576 C575 1.400 . S
C576 C579 1.386 . S
H577 C593 0.930 . S
H578 C594 0.931 . S
C579 H567 0.929 . S
C579 C573 1.390 . S
C579 C576 1.386 . S
C580 C575 1.490 . S
C580 C582 1.395 . S
C580 C583 1.403 . S
H581 C587 0.930 . S
C582 H568 0.930 . S
C582 C580 1.395 . S
C582 C585 1.403 1_545 S
C583 C580 1.403 . S
C583 C584 1.524 . S
C583 C587 1.400 1_545 S
C584 H569 0.960 . S
C584 H570 0.960 . S
C584 H571 0.960 . S
C584 C583 1.524 . S
C585 C582 1.403 1_565 S
C585 C586 1.392 . S
C585 C589 1.495 . S
C586 C585 1.392 . S
C586 C587 1.385 . S
C586 C588 1.478 . S
C587 H581 0.930 . S
C587 C583 1.400 1_565 S
C587 C586 1.385 . S
C588 C586 1.478 . S
C588 C590 1.381 . S
C588 C594 1.383 . S
C589 C585 1.495 . S
C589 H595 0.959 . S
C589 H596 0.961 . S
C589 H597 0.960 . S
C590 C588 1.381 . S
C590 C591 1.394 . S
C590 H598 0.930 . S
C591 C590 1.394 . S
C591 C592 1.383 . S
C591 H599 0.929 . S
C592 C591 1.383 . S
C592 C593 1.377 . S
C593 H577 0.930 . S
C593 C592 1.377 . S
C593 C594 1.379 . S
C594 H578 0.931 . S
C594 C588 1.383 . S
C594 C593 1.379 . S
H595 C589 0.959 . S
H596 C589 0.961 . S
H597 C589 0.960 . S
H598 C590 0.930 . S
H599 C591 0.929 . S
H600 C608 0.929 . S
H601 C610 0.930 . S
H602 C612 0.930 . S
H603 C615 0.929 . S
H604 C618 0.930 1_655 S
H605 C620 0.959 . S
H606 C620 0.960 . S
H607 C620 0.960 . S
C608 H600 0.929 . S
C608 C609 1.377 . S
C608 C610 1.384 . S
C609 C608 1.377 . S
C609 C615 1.390 . S
C610 H601 0.930 . S
C610 C608 1.384 . S
C610 C611 1.372 . S
C611 C610 1.372 . S
C611 C612 1.400 . S
C611 C616 1.490 . S
C612 H602 0.930 . S
C612 C611 1.400 . S
C612 C615 1.386 . S
H613 C629 0.930 . S
H614 C630 0.931 . S
C615 H603 0.929 . S
C615 C609 1.390 . S
C615 C612 1.386 . S
C616 C611 1.490 . S
C616 C618 1.395 1_655 S
C616 C619 1.403 1_655 S
H617 C623 0.930 . S
C618 H604 0.930 1_455 S
C618 C616 1.395 1_455 S
C618 C621 1.403 . S
C619 C616 1.403 1_455 S
C619 C620 1.524 1_455 S
C619 C623 1.400 . S
C620 H605 0.959 . S
C620 H606 0.960 . S
C620 H607 0.960 . S
C620 C619 1.524 1_655 S
C621 C618 1.403 . S
C621 C622 1.392 . S
C621 C625 1.495 . S
C622 C621 1.392 . S
C622 C623 1.385 . S
C622 C624 1.478 . S
C623 H617 0.930 . S
C623 C619 1.400 . S
C623 C622 1.385 . S
C624 C622 1.478 . S
C624 C626 1.381 . S
C624 C630 1.383 . S
C625 C621 1.495 . S
C625 H631 0.959 . S
C625 H632 0.961 . S
C625 H633 0.960 . S
C626 C624 1.381 . S
C626 C627 1.394 . S
C626 H634 0.930 . S
C627 C626 1.394 . S
C627 C628 1.383 . S
C627 H635 0.929 . S
C628 C627 1.383 . S
C628 C629 1.377 . S
C629 H613 0.930 . S
C629 C628 1.377 . S
C629 C630 1.379 . S
C630 H614 0.931 . S
C630 C624 1.383 . S
C630 C629 1.379 . S
H631 C625 0.959 . S
H632 C625 0.961 . S
H633 C625 0.960 . S
H634 C626 0.930 . S
H635 C627 0.929 . S
H636 C644 0.929 . S
H637 C646 0.930 . S
H638 C648 0.930 . S
H639 C651 0.929 . S
H640 C654 0.930 . S
H641 C656 0.960 1_545 S
H642 C656 0.960 . S
H643 C656 0.960 . S
C644 H636 0.929 . S
C644 C645 1.377 . S
C644 C646 1.384 . S
C645 C644 1.377 . S
C645 C651 1.390 . S
C646 H637 0.930 . S
C646 C644 1.384 . S
C646 C647 1.372 . S
C647 C646 1.372 . S
C647 C648 1.400 . S
C647 C652 1.490 . S
C648 H638 0.930 . S
C648 C647 1.400 . S
C648 C651 1.386 . S
H649 C665 0.930 . S
H650 C666 0.931 . S
C651 H639 0.929 . S
C651 C645 1.390 . S
C651 C648 1.386 . S
C652 C647 1.490 . S
C652 C654 1.395 . S
C652 C655 1.387 1_565 S
H653 C659 0.930 . S
C654 H640 0.930 . S
C654 C652 1.395 . S
C654 C657 1.403 1_565 S
C655 C652 1.387 1_545 S
C655 C656 1.514 1_545 S
C655 C659 1.427 . S
C656 H641 0.960 1_565 S
C656 H642 0.960 . S
C656 H643 0.960 . S
C656 C655 1.514 1_565 S
C657 C654 1.403 1_545 S
C657 C658 1.392 . S
C657 C661 1.495 . S
C658 C657 1.392 . S
C658 C659 1.385 . S
C658 C660 1.478 . S
C659 H653 0.930 . S
C659 C655 1.427 . S
C659 C658 1.385 . S
C660 C658 1.478 . S
C660 C662 1.381 . S
C660 C666 1.383 . S
C661 C657 1.495 . S
C661 H667 0.959 . S
C661 H668 0.961 . S
C661 H669 0.960 . S
C662 C660 1.381 . S
C662 C663 1.394 . S
C662 H670 0.930 . S
C663 C662 1.394 . S
C663 C664 1.383 . S
C663 H671 0.929 . S
C664 C663 1.383 . S
C664 C665 1.377 . S
C665 H649 0.930 . S
C665 C664 1.377 . S
C665 C666 1.379 . S
C666 H650 0.931 . S
C666 C660 1.383 . S
C666 C665 1.379 . S
H667 C661 0.959 . S
H668 C661 0.961 . S
H669 C661 0.960 . S
H670 C662 0.930 . S
H671 C663 0.929 . S
H672 C680 0.929 . S
H673 C682 0.930 . S
H674 C684 0.930 . S
H675 C687 0.929 . S
H676 C690 0.930 . S
H677 C692 0.960 . S
H678 C692 0.960 . S
H679 C692 0.960 . S
C680 H672 0.929 . S
C680 C681 1.377 . S
C680 C682 1.384 . S
C681 C680 1.377 . S
C681 C687 1.390 . S
C682 H673 0.930 . S
C682 C680 1.384 . S
C682 C683 1.372 . S
C683 C682 1.372 . S
C683 C684 1.400 . S
C683 C688 1.490 . S
C684 H674 0.930 . S
C684 C683 1.400 . S
C684 C687 1.386 . S
H685 C701 0.930 . S
H686 C702 0.931 . S
C687 H675 0.929 . S
C687 C681 1.390 . S
C687 C684 1.386 . S
C688 C683 1.490 . S
C688 C690 1.395 . S
C688 C691 1.403 . S
H689 C695 0.930 . S
C690 H676 0.930 . S
C690 C688 1.395 . S
C690 C693 1.403 1_655 S
C691 C688 1.403 . S
C691 C692 1.524 . S
C691 C695 1.400 1_655 S
C692 H677 0.960 . S
C692 H678 0.960 . S
C692 H679 0.960 . S
C692 C691 1.524 . S
C693 C690 1.403 1_455 S
C693 C694 1.392 . S
C693 C697 1.495 . S
C694 C693 1.392 . S
C694 C695 1.385 . S
C694 C696 1.478 . S
C695 H689 0.930 . S
C695 C691 1.400 1_455 S
C695 C694 1.385 . S
C696 C694 1.478 . S
C696 C698 1.381 . S
C696 C702 1.383 . S
C697 C693 1.495 . S
C697 H703 0.959 . S
C697 H704 0.961 . S
C697 H705 0.960 . S
C698 C696 1.381 . S
C698 C699 1.394 . S
C698 H706 0.930 . S
C699 C698 1.394 . S
C699 C700 1.383 . S
C699 H707 0.929 . S
C700 C699 1.383 . S
C700 C701 1.377 . S
C701 H685 0.930 . S
C701 C700 1.377 . S
C701 C702 1.379 . S
C702 H686 0.931 . S
C702 C696 1.383 . S
C702 C701 1.379 . S
H703 C697 0.959 . S
H704 C697 0.961 . S
H705 C697 0.960 . S
H706 C698 0.930 . S
H707 C699 0.929 . S
H708 C716 0.929 . S
H709 C718 0.930 . S
H710 C720 0.930 . S
H711 C723 0.929 . S
H712 C726 0.930 . S
H713 C728 0.960 . S
H714 C728 0.960 . S
H715 C728 0.960 . S
C716 H708 0.929 . S
C716 C717 1.377 . S
C716 C718 1.384 . S
C717 C716 1.377 . S
C717 C723 1.390 . S
C718 H709 0.930 . S
C718 C716 1.384 . S
C718 C719 1.372 . S
C719 C718 1.372 . S
C719 C720 1.400 . S
C719 C724 1.490 . S
C720 H710 0.930 . S
C720 C719 1.400 . S
C720 C723 1.386 . S
H721 C737 0.930 . S
H722 C738 0.931 . S
C723 H711 0.929 . S
C723 C717 1.390 . S
C723 C720 1.386 . S
C724 C719 1.490 . S
C724 C726 1.395 . S
C724 C727 1.403 . S
H725 C731 0.930 . S
C726 H712 0.930 . S
C726 C724 1.395 . S
C726 C729 1.442 . S
C727 C724 1.403 . S
C727 C728 1.524 . S
C727 C731 1.400 1_565 S
C728 H713 0.960 . S
C728 H714 0.960 . S
C728 H715 0.960 . S
C728 C727 1.524 . S
C729 C726 1.442 . S
C729 C730 1.368 1_565 S
C729 C733 1.483 1_565 S
C730 C729 1.368 1_545 S
C730 C731 1.385 . S
C730 C732 1.478 . S
C731 H725 0.930 . S
C731 C727 1.400 1_545 S
C731 C730 1.385 . S
C732 C730 1.478 . S
C732 C734 1.381 . S
C732 C738 1.383 . S
C733 C729 1.483 1_545 S
C733 H739 0.959 1_545 S
C733 H740 0.961 . S
C733 H741 0.960 . S
C734 C732 1.381 . S
C734 C735 1.394 . S
C734 H742 0.930 . S
C735 C734 1.394 . S
C735 C736 1.383 . S
C735 H743 0.929 . S
C736 C735 1.383 . S
C736 C737 1.377 . S
C737 H721 0.930 . S
C737 C736 1.377 . S
C737 C738 1.379 . S
C738 H722 0.931 . S
C738 C732 1.383 . S
C738 C737 1.379 . S
H739 C733 0.959 1_565 S
H740 C733 0.961 . S
H741 C733 0.960 . S
H742 C734 0.930 . S
H743 C735 0.929 . S
H744 C752 0.929 . S
H745 C754 0.930 . S
H746 C756 0.930 . S
H747 C759 0.929 . S
H748 C762 0.930 . S
H749 C764 0.960 . S
H750 C764 0.960 . S
H751 C764 0.960 . S
C752 H744 0.929 . S
C752 C753 1.377 . S
C752 C754 1.384 . S
C753 C752 1.377 . S
C753 C759 1.390 . S
C754 H745 0.930 . S
C754 C752 1.384 . S
C754 C755 1.372 . S
C755 C754 1.372 . S
C755 C756 1.400 . S
C755 C760 1.490 . S
C756 H746 0.930 . S
C756 C755 1.400 . S
C756 C759 1.386 . S
H757 C773 0.930 . S
H758 C774 0.931 . S
C759 H747 0.929 . S
C759 C753 1.390 . S
C759 C756 1.386 . S
C760 C755 1.490 . S
C760 C762 1.395 . S
C760 C763 1.403 . S
H761 C767 0.930 . S
C762 H748 0.930 . S
C762 C760 1.395 . S
C762 C765 1.403 1_655 S
C763 C760 1.403 . S
C763 C764 1.524 . S
C763 C767 1.400 1_655 S
C764 H749 0.960 . S
C764 H750 0.960 . S
C764 H751 0.960 . S
C764 C763 1.524 . S
C765 C762 1.403 1_455 S
C765 C766 1.392 . S
C765 C769 1.495 . S
C766 C765 1.392 . S
C766 C767 1.385 . S
C766 C768 1.478 . S
C767 H761 0.930 . S
C767 C763 1.400 1_455 S
C767 C766 1.385 . S
C768 C766 1.478 . S
C768 C770 1.381 . S
C768 C774 1.383 . S
C769 C765 1.495 . S
C769 H775 0.959 . S
C769 H776 0.961 . S
C769 H777 0.960 . S
C770 C768 1.381 . S
C770 C771 1.394 . S
C770 H778 0.930 . S
C771 C770 1.394 . S
C771 C772 1.383 . S
C771 H779 0.929 . S
C772 C771 1.383 . S
C772 C773 1.377 . S
C773 H757 0.930 . S
C773 C772 1.377 . S
C773 C774 1.379 . S
C774 H758 0.931 . S
C774 C768 1.383 . S
C774 C773 1.379 . S
H775 C769 0.959 . S
H776 C769 0.961 . S
H777 C769 0.960 . S
H778 C770 0.930 . S
H779 C771 0.929 . S
H780 C788 0.929 . S
H781 C790 0.930 . S
H782 C792 0.930 . S
H783 C795 0.929 . S
H784 C798 0.930 . S
H785 C800 0.960 . S
H786 C800 0.960 . S
H787 C800 0.960 . S
C788 H780 0.929 . S
C788 C789 1.377 . S
C788 C790 1.384 . S
C789 C788 1.377 . S
C789 C795 1.390 . S
C790 H781 0.930 . S
C790 C788 1.384 . S
C790 C791 1.372 . S
C791 C790 1.372 . S
C791 C792 1.400 . S
C791 C796 1.490 . S
C792 H782 0.930 . S
C792 C791 1.400 . S
C792 C795 1.386 . S
H793 C809 0.930 . S
H794 C810 0.931 . S
C795 H783 0.929 . S
C795 C789 1.390 . S
C795 C792 1.386 . S
C796 C791 1.490 . S
C796 C798 1.395 . S
C796 C799 1.403 . S
H797 C803 0.930 . S
C798 H784 0.930 . S
C798 C796 1.395 . S
C798 C801 1.403 1_545 S
C799 C796 1.403 . S
C799 C800 1.524 . S
C799 C803 1.400 1_545 S
C800 H785 0.960 . S
C800 H786 0.960 . S
C800 H787 0.960 . S
C800 C799 1.524 . S
C801 C798 1.403 1_565 S
C801 C802 1.392 . S
C801 C805 1.495 . S
C802 C801 1.392 . S
C802 C803 1.385 . S
C802 C804 1.478 . S
C803 H797 0.930 . S
C803 C799 1.400 1_565 S
C803 C802 1.385 . S
C804 C802 1.478 . S
C804 C806 1.381 . S
C804 C810 1.383 . S
C805 C801 1.495 . S
C805 H811 0.959 . S
C805 H812 0.961 . S
C805 H813 0.960 . S
C806 C804 1.381 . S
C806 C807 1.394 . S
C806 H814 0.930 . S
C807 C806 1.394 . S
C807 C808 1.383 . S
C807 H815 0.929 . S
C808 C807 1.383 . S
C808 C809 1.377 . S
C809 H793 0.930 . S
C809 C808 1.377 . S
C809 C810 1.379 . S
C810 H794 0.931 . S
C810 C804 1.383 . S
C810 C809 1.379 . S
H811 C805 0.959 . S
H812 C805 0.961 . S
H813 C805 0.960 . S
H814 C806 0.930 . S
H815 C807 0.929 . S
H816 C824 0.929 . S
H817 C826 0.930 . S
H818 C828 0.930 . S
H819 C831 0.929 . S
H820 C834 0.930 . S
H821 C836 0.960 . S
H822 C836 0.960 . S
H823 C836 0.960 . S
C824 H816 0.929 . S
C824 C825 1.377 . S
C824 C826 1.384 . S
C825 C824 1.377 . S
C825 C831 1.390 . S
C826 H817 0.930 . S
C826 C824 1.384 . S
C826 C827 1.372 . S
C827 C826 1.372 . S
C827 C828 1.400 . S
C827 C832 1.490 . S
C828 H818 0.930 . S
C828 C827 1.400 . S
C828 C831 1.386 . S
H829 C845 0.930 . S
H830 C846 0.931 . S
C831 H819 0.929 . S
C831 C825 1.390 . S
C831 C828 1.386 . S
C832 C827 1.490 . S
C832 C834 1.395 . S
C832 C835 1.403 . S
H833 C839 0.930 . S
C834 H820 0.930 . S
C834 C832 1.395 . S
C834 C837 1.403 . S
C835 C832 1.403 . S
C835 C836 1.524 . S
C835 C839 1.400 . S
C836 H821 0.960 . S
C836 H822 0.960 . S
C836 H823 0.960 . S
C836 C835 1.524 . S
C837 C834 1.403 . S
C837 C838 1.392 . S
C837 C841 1.495 . S
C838 C837 1.392 . S
C838 C839 1.385 . S
C838 C840 1.478 . S
C839 H833 0.930 . S
C839 C835 1.400 . S
C839 C838 1.385 . S
C840 C838 1.478 . S
C840 C842 1.381 . S
C840 C846 1.383 . S
C841 C837 1.495 . S
C841 H847 0.959 . S
C841 H848 0.961 . S
C841 H849 0.960 . S
C842 C840 1.381 . S
C842 C843 1.394 . S
C842 H850 0.930 . S
C843 C842 1.394 . S
C843 C844 1.383 . S
C843 H851 0.929 . S
C844 C843 1.383 . S
C844 C845 1.377 . S
C845 H829 0.930 . S
C845 C844 1.377 . S
C845 C846 1.379 . S
C846 H830 0.931 . S
C846 C840 1.383 . S
C846 C845 1.379 . S
H847 C841 0.959 . S
H848 C841 0.961 . S
H849 C841 0.960 . S
H850 C842 0.930 . S
H851 C843 0.929 . S
H852 C860 0.929 . S
H853 C862 0.930 . S
H854 C864 0.930 . S
H855 C867 0.929 . S
H856 C870 0.930 . S
H857 C872 0.960 . S
H858 C872 0.960 . S
H859 C872 0.960 . S
C860 H852 0.929 . S
C860 C861 1.377 . S
C860 C862 1.384 . S
C861 C860 1.377 . S
C861 C867 1.390 . S
C862 H853 0.930 . S
C862 C860 1.384 . S
C862 C863 1.372 . S
C863 C862 1.372 . S
C863 C864 1.400 . S
C863 C868 1.490 . S
C864 H854 0.930 . S
C864 C863 1.400 . S
C864 C867 1.386 . S
H865 C881 0.930 . S
H866 C882 0.931 . S
C867 H855 0.929 . S
C867 C861 1.390 . S
C867 C864 1.386 . S
C868 C863 1.490 . S
C868 C870 1.395 . S
C868 C871 1.403 . S
H869 C875 0.930 . S
C870 H856 0.930 . S
C870 C868 1.395 . S
C870 C873 1.403 . S
C871 C868 1.403 . S
C871 C872 1.524 . S
C871 C875 1.400 . S
C872 H857 0.960 . S
C872 H858 0.960 . S
C872 H859 0.960 . S
C872 C871 1.524 . S
C873 C870 1.403 . S
C873 C874 1.392 . S
C873 C877 1.495 . S
C874 C873 1.392 . S
C874 C875 1.385 . S
C874 C876 1.478 . S
C875 H869 0.930 . S
C875 C871 1.400 . S
C875 C874 1.385 . S
C876 C874 1.478 . S
C876 C878 1.381 . S
C876 C882 1.383 . S
C877 C873 1.495 . S
C877 H883 0.959 . S
C877 H884 0.961 . S
C877 H885 0.960 . S
C878 C876 1.381 . S
C878 C879 1.394 . S
C878 H886 0.930 . S
C879 C878 1.394 . S
C879 C880 1.383 . S
C879 H887 0.929 . S
C880 C879 1.383 . S
C880 C881 1.377 . S
C881 H865 0.930 . S
C881 C880 1.377 . S
C881 C882 1.379 . S
C882 H866 0.931 . S
C882 C876 1.383 . S
C882 C881 1.379 . S
H883 C877 0.959 . S
H884 C877 0.961 . S
H885 C877 0.960 . S
H886 C878 0.930 . S
H887 C879 0.929 . S
H888 C896 0.929 . S
H889 C898 0.930 . S
H890 C900 0.930 . S
H891 C903 0.929 . S
H892 C906 0.930 . S
H893 C908 0.960 . S
H894 C908 0.960 . S
H895 C908 0.960 . S
C896 H888 0.929 . S
C896 C897 1.377 . S
C896 C898 1.384 . S
C897 C896 1.377 . S
C897 C903 1.390 . S
C898 H889 0.930 . S
C898 C896 1.384 . S
C898 C899 1.372 . S
C899 C898 1.372 . S
C899 C900 1.400 . S
C899 C904 1.490 . S
C900 H890 0.930 . S
C900 C899 1.400 . S
C900 C903 1.386 . S
H901 C917 0.930 . S
H902 C918 0.931 . S
C903 H891 0.929 . S
C903 C897 1.390 . S
C903 C900 1.386 . S
C904 C899 1.490 . S
C904 C906 1.395 . S
C904 C907 1.403 . S
H905 C911 0.930 . S
C906 H892 0.930 . S
C906 C904 1.395 . S
C906 C909 1.403 . S
C907 C904 1.403 . S
C907 C908 1.524 . S
C907 C911 1.400 . S
C908 H893 0.960 . S
C908 H894 0.960 . S
C908 H895 0.960 . S
C908 C907 1.524 . S
C909 C906 1.403 . S
C909 C910 1.392 . S
C909 C913 1.495 . S
C910 C909 1.392 . S
C910 C911 1.385 . S
C910 C912 1.478 . S
C911 H905 0.930 . S
C911 C907 1.400 . S
C911 C910 1.385 . S
C912 C910 1.478 . S
C912 C914 1.381 . S
C912 C918 1.383 . S
C913 C909 1.495 . S
C913 H919 0.959 . S
C913 H920 0.961 . S
C913 H921 0.960 . S
C914 C912 1.381 . S
C914 C915 1.394 . S
C914 H922 0.930 . S
C915 C914 1.394 . S
C915 C916 1.383 . S
C915 H923 0.929 . S
C916 C915 1.383 . S
C916 C917 1.377 . S
C917 H901 0.930 . S
C917 C916 1.377 . S
C917 C918 1.379 . S
C918 H902 0.931 . S
C918 C912 1.383 . S
C918 C917 1.379 . S
H919 C913 0.959 . S
H920 C913 0.961 . S
H921 C913 0.960 . S
H922 C914 0.930 . S
H923 C915 0.929 . S
H924 C932 0.929 . S
H925 C934 0.930 . S
H926 C936 0.930 . S
H927 C939 0.929 . S
H928 C942 0.930 . S
H929 C944 0.960 . S
H930 C944 0.960 . S
H931 C944 0.960 . S
C932 H924 0.929 . S
C932 C933 1.377 . S
C932 C934 1.384 . S
C933 C932 1.377 . S
C933 C939 1.390 . S
C934 H925 0.930 . S
C934 C932 1.384 . S
C934 C935 1.372 . S
C935 C934 1.372 . S
C935 C936 1.400 . S
C935 C940 1.490 . S
C936 H926 0.930 . S
C936 C935 1.400 . S
C936 C939 1.386 . S
H937 C953 0.930 . S
H938 C954 0.931 . S
C939 H927 0.929 . S
C939 C933 1.390 . S
C939 C936 1.386 . S
C940 C935 1.490 . S
C940 C942 1.395 . S
C940 C943 1.403 . S
H941 C947 0.930 . S
C942 H928 0.930 . S
C942 C940 1.395 . S
C942 C945 1.403 . S
C943 C940 1.403 . S
C943 C944 1.524 . S
C943 C947 1.400 . S
C944 H929 0.960 . S
C944 H930 0.960 . S
C944 H931 0.960 . S
C944 C943 1.524 . S
C945 C942 1.403 . S
C945 C946 1.392 . S
C945 C949 1.495 . S
C946 C945 1.392 . S
C946 C947 1.385 . S
C946 C948 1.478 . S
C947 H941 0.930 . S
C947 C943 1.400 . S
C947 C946 1.385 . S
C948 C946 1.478 . S
C948 C950 1.381 . S
C948 C954 1.383 . S
C949 C945 1.495 . S
C949 H955 0.959 . S
C949 H956 0.961 . S
C949 H957 0.960 . S
C950 C948 1.381 . S
C950 C951 1.394 . S
C950 H958 0.930 . S
C951 C950 1.394 . S
C951 C952 1.383 . S
C951 H959 0.929 . S
C952 C951 1.383 . S
C952 C953 1.377 . S
C953 H937 0.930 . S
C953 C952 1.377 . S
C953 C954 1.379 . S
C954 H938 0.931 . S
C954 C948 1.383 . S
C954 C953 1.379 . S
H955 C949 0.959 . S
H956 C949 0.961 . S
H957 C949 0.960 . S
H958 C950 0.930 . S
H959 C951 0.929 . S
H960 C968 0.929 . S
H961 C970 0.930 . S
H962 C972 0.930 . S
H963 C975 0.929 . S
H964 C978 0.930 . S
H965 C980 0.960 . S
H966 C980 0.960 . S
H967 C980 0.960 . S
C968 H960 0.929 . S
C968 C969 1.377 . S
C968 C970 1.384 . S
C969 C968 1.377 . S
C969 C975 1.390 . S
C970 H961 0.930 . S
C970 C968 1.384 . S
C970 C971 1.372 . S
C971 C970 1.372 . S
C971 C972 1.400 . S
C971 C976 1.490 . S
C972 H962 0.930 . S
C972 C971 1.400 . S
C972 C975 1.386 . S
H973 C989 0.930 . S
H974 C990 0.931 . S
C975 H963 0.929 . S
C975 C969 1.390 . S
C975 C972 1.386 . S
C976 C971 1.490 . S
C976 C978 1.395 . S
C976 C979 1.403 . S
H977 C983 0.930 . S
C978 H964 0.930 . S
C978 C976 1.395 . S
C978 C981 1.403 . S
C979 C976 1.403 . S
C979 C980 1.524 . S
C979 C983 1.400 . S
C980 H965 0.960 . S
C980 H966 0.960 . S
C980 H967 0.960 . S
C980 C979 1.524 . S
C981 C978 1.403 . S
C981 C982 1.392 . S
C981 C985 1.495 . S
C982 C981 1.392 . S
C982 C983 1.385 . S
C982 C984 1.478 . S
C983 H977 0.930 . S
C983 C979 1.400 . S
C983 C982 1.385 . S
C984 C982 1.478 . S
C984 C986 1.381 . S
C984 C990 1.383 . S
C985 C981 1.495 . S
C985 H991 0.959 . S
C985 H992 0.961 . S
C985 H993 0.960 . S
C986 C984 1.381 . S
C986 C987 1.394 . S
C986 H994 0.930 . S
C987 C986 1.394 . S
C987 C988 1.383 . S
C987 H995 0.929 . S
C988 C987 1.383 . S
C988 C989 1.377 . S
C989 H973 0.930 . S
C989 C988 1.377 . S
C989 C990 1.379 . S
C990 H974 0.931 . S
C990 C984 1.383 . S
C990 C989 1.379 . S
H991 C985 0.959 . S
H992 C985 0.961 . S
H993 C985 0.960 . S
H994 C986 0.930 . S
H995 C987 0.929 . S
H996 C1004 0.929 . S
H997 C1006 0.930 . S
H998 C1008 0.930 . S
H999 C1011 0.929 . S
H1000 C1014 0.930 . S
H1001 C1016 0.960 . S
H1002 C1016 0.960 . S
H1003 C1016 0.960 . S
C1004 H996 0.929 . S
C1004 C1005 1.377 . S
C1004 C1006 1.384 . S
C1005 C1004 1.377 . S
C1005 C1011 1.390 . S
C1006 H997 0.930 . S
C1006 C1004 1.384 . S
C1006 C1007 1.372 . S
C1007 C1006 1.372 . S
C1007 C1008 1.400 . S
C1007 C1012 1.490 . S
C1008 H998 0.930 . S
C1008 C1007 1.400 . S
C1008 C1011 1.386 . S
H1009 C1025 0.930 . S
H1010 C1026 0.931 . S
C1011 H999 0.929 . S
C1011 C1005 1.390 . S
C1011 C1008 1.386 . S
C1012 C1007 1.490 . S
C1012 C1014 1.395 . S
C1012 C1015 1.403 . S
H1013 C1019 0.930 . S
C1014 H1000 0.930 . S
C1014 C1012 1.395 . S
C1014 C1017 1.403 . S
C1015 C1012 1.403 . S
C1015 C1016 1.524 . S
C1015 C1019 1.400 . S
C1016 H1001 0.960 . S
C1016 H1002 0.960 . S
C1016 H1003 0.960 . S
C1016 C1015 1.524 . S
C1017 C1014 1.403 . S
C1017 C1018 1.392 . S
C1017 C1021 1.495 . S
C1018 C1017 1.392 . S
C1018 C1019 1.385 . S
C1018 C1020 1.478 . S
C1019 H1013 0.930 . S
C1019 C1015 1.400 . S
C1019 C1018 1.385 . S
C1020 C1018 1.478 . S
C1020 C1022 1.381 . S
C1020 C1026 1.383 . S
C1021 C1017 1.495 . S
C1021 H1027 0.959 . S
C1021 H1028 0.961 . S
C1021 H1029 0.960 . S
C1022 C1020 1.381 . S
C1022 C1023 1.394 . S
C1022 H1030 0.930 . S
C1023 C1022 1.394 . S
C1023 C1024 1.383 . S
C1023 H1031 0.929 . S
C1024 C1023 1.383 . S
C1024 C1025 1.377 . S
C1025 H1009 0.930 . S
C1025 C1024 1.377 . S
C1025 C1026 1.379 . S
C1026 H1010 0.931 . S
C1026 C1020 1.383 . S
C1026 C1025 1.379 . S
H1027 C1021 0.959 . S
H1028 C1021 0.961 . S
H1029 C1021 0.960 . S
H1030 C1022 0.930 . S
H1031 C1023 0.929 . S
H1032 C1040 0.929 . S
H1033 C1042 0.930 . S
H1034 C1044 0.930 . S
H1035 C1047 0.929 . S
H1036 C1050 0.930 . S
H1037 C1052 0.960 . S
H1038 C1052 0.960 . S
H1039 C1052 0.960 . S
C1040 H1032 0.929 . S
C1040 C1041 1.377 . S
C1040 C1042 1.384 . S
C1041 C1040 1.377 . S
C1041 C1047 1.390 . S
C1042 H1033 0.930 . S
C1042 C1040 1.384 . S
C1042 C1043 1.372 . S
C1043 C1042 1.372 . S
C1043 C1044 1.400 . S
C1043 C1048 1.490 . S
C1044 H1034 0.930 . S
C1044 C1043 1.400 . S
C1044 C1047 1.386 . S
H1045 C1061 0.930 . S
H1046 C1062 0.931 . S
C1047 H1035 0.929 . S
C1047 C1041 1.390 . S
C1047 C1044 1.386 . S
C1048 C1043 1.490 . S
C1048 C1050 1.395 . S
C1048 C1051 1.403 . S
H1049 C1055 0.930 . S
C1050 H1036 0.930 . S
C1050 C1048 1.395 . S
C1050 C1053 1.403 . S
C1051 C1048 1.403 . S
C1051 C1052 1.524 . S
C1051 C1055 1.400 . S
C1052 H1037 0.960 . S
C1052 H1038 0.960 . S
C1052 H1039 0.960 . S
C1052 C1051 1.524 . S
C1053 C1050 1.403 . S
C1053 C1054 1.392 . S
C1053 C1057 1.495 . S
C1054 C1053 1.392 . S
C1054 C1055 1.385 . S
C1054 C1056 1.478 . S
C1055 H1049 0.930 . S
C1055 C1051 1.400 . S
C1055 C1054 1.385 . S
C1056 C1054 1.478 . S
C1056 C1058 1.381 . S
C1056 C1062 1.383 . S
C1057 C1053 1.495 . S
C1057 H1063 0.959 . S
C1057 H1064 0.961 . S
C1057 H1065 0.960 . S
C1058 C1056 1.381 . S
C1058 C1059 1.394 . S
C1058 H1066 0.930 . S
C1059 C1058 1.394 . S
C1059 C1060 1.383 . S
C1059 H1067 0.929 . S
C1060 C1059 1.383 . S
C1060 C1061 1.377 . S
C1061 H1045 0.930 . S
C1061 C1060 1.377 . S
C1061 C1062 1.379 . S
C1062 H1046 0.931 . S
C1062 C1056 1.383 . S
C1062 C1061 1.379 . S
H1063 C1057 0.959 . S
H1064 C1057 0.961 . S
H1065 C1057 0.960 . S
H1066 C1058 0.930 . S
H1067 C1059 0.929 . S
H1068 C1076 0.929 . S
H1069 C1078 0.930 . S
H1070 C1080 0.930 . S
H1071 C1083 0.929 . S
H1072 C1086 0.930 . S
H1073 C1088 0.960 . S
H1074 C1088 0.960 . S
H1075 C1088 0.960 . S
C1076 H1068 0.929 . S
C1076 C1077 1.377 . S
C1076 C1078 1.384 . S
C1077 C1076 1.377 . S
C1077 C1083 1.390 . S
C1078 H1069 0.930 . S
C1078 C1076 1.384 . S
C1078 C1079 1.372 . S
C1079 C1078 1.372 . S
C1079 C1080 1.400 . S
C1079 C1084 1.490 . S
C1080 H1070 0.930 . S
C1080 C1079 1.400 . S
C1080 C1083 1.386 . S
H1081 C1097 0.930 . S
H1082 C1098 0.931 . S
C1083 H1071 0.929 . S
C1083 C1077 1.390 . S
C1083 C1080 1.386 . S
C1084 C1079 1.490 . S
C1084 C1086 1.395 . S
C1084 C1087 1.403 . S
H1085 C1091 0.930 . S
C1086 H1072 0.930 . S
C1086 C1084 1.395 . S
C1086 C1089 1.403 . S
C1087 C1084 1.403 . S
C1087 C1088 1.524 . S
C1087 C1091 1.400 . S
C1088 H1073 0.960 . S
C1088 H1074 0.960 . S
C1088 H1075 0.960 . S
C1088 C1087 1.524 . S
C1089 C1086 1.403 . S
C1089 C1090 1.392 . S
C1089 C1093 1.495 . S
C1090 C1089 1.392 . S
C1090 C1091 1.385 . S
C1090 C1092 1.478 . S
C1091 H1085 0.930 . S
C1091 C1087 1.400 . S
C1091 C1090 1.385 . S
C1092 C1090 1.478 . S
C1092 C1094 1.381 . S
C1092 C1098 1.383 . S
C1093 C1089 1.495 . S
C1093 H1099 0.959 . S
C1093 H1100 0.961 . S
C1093 H1101 0.960 . S
C1094 C1092 1.381 . S
C1094 C1095 1.394 . S
C1094 H1102 0.930 . S
C1095 C1094 1.394 . S
C1095 C1096 1.383 . S
C1095 H1103 0.929 . S
C1096 C1095 1.383 . S
C1096 C1097 1.377 . S
C1097 H1081 0.930 . S
C1097 C1096 1.377 . S
C1097 C1098 1.379 . S
C1098 H1082 0.931 . S
C1098 C1092 1.383 . S
C1098 C1097 1.379 . S
H1099 C1093 0.959 . S
H1100 C1093 0.961 . S
H1101 C1093 0.960 . S
H1102 C1094 0.930 . S
H1103 C1095 0.929 . S
H1104 C1112 0.929 . S
H1105 C1114 0.930 . S
H1106 C1116 0.930 . S
H1107 C1119 0.929 . S
H1108 C1122 0.930 . S
H1109 C1124 0.962 . S
H1110 C1124 0.960 . S
H1111 C1124 0.960 . S
C1112 H1104 0.929 . S
C1112 C1113 1.377 . S
C1112 C1114 1.384 . S
C1113 C1112 1.377 . S
C1113 C1119 1.390 . S
C1114 H1105 0.930 . S
C1114 C1112 1.384 . S
C1114 C1115 1.372 . S
C1115 C1114 1.372 . S
C1115 C1116 1.400 . S
C1115 C1120 1.490 . S
C1116 H1106 0.930 . S
C1116 C1115 1.400 . S
C1116 C1119 1.386 . S
H1117 C1133 0.930 . S
H1118 C1134 0.931 . S
C1119 H1107 0.929 . S
C1119 C1113 1.390 . S
C1119 C1116 1.386 . S
C1120 C1115 1.490 . S
C1120 C1122 1.395 . S
C1120 C1123 1.403 . S
H1121 C1127 0.930 . S
C1122 H1108 0.930 . S
C1122 C1120 1.395 . S
C1122 C1125 1.403 1_554 S
C1123 C1120 1.403 . S
C1123 C1124 1.524 . S
C1123 C1127 1.400 1_554 S
C1124 H1109 0.962 . S
C1124 H1110 0.960 . S
C1124 H1111 0.960 . S
C1124 C1123 1.524 . S
C1125 C1122 1.403 1_556 S
C1125 C1126 1.392 . S
C1125 C1129 1.495 . S
C1126 C1125 1.392 . S
C1126 C1127 1.385 . S
C1126 C1128 1.478 . S
C1127 H1121 0.930 . S
C1127 C1123 1.400 1_556 S
C1127 C1126 1.385 . S
C1128 C1126 1.478 . S
C1128 C1130 1.381 . S
C1128 C1134 1.383 . S
C1129 C1125 1.495 . S
C1129 H1135 0.949 1_556 S
C1129 H1136 0.961 . S
C1129 H1137 0.960 . S
C1130 C1128 1.381 . S
C1130 C1131 1.394 . S
C1130 H1138 0.930 . S
C1131 C1130 1.394 . S
C1131 C1132 1.383 . S
C1131 H1139 0.929 . S
C1132 C1131 1.383 . S
C1132 C1133 1.377 . S
C1133 H1117 0.930 . S
C1133 C1132 1.377 . S
C1133 C1134 1.379 . S
C1134 H1118 0.931 . S
C1134 C1128 1.383 . S
C1134 C1133 1.379 . S
H1135 C1129 0.949 1_554 S
H1136 C1129 0.961 . S
H1137 C1129 0.960 . S
H1138 C1130 0.930 . S
H1139 C1131 0.929 . S
H1140 C1148 0.929 . S
H1141 C1150 0.930 . S
H1142 C1152 0.930 . S
H1143 C1155 0.929 . S
H1144 C1158 0.930 . S
H1145 C1160 0.960 . S
H1146 C1160 0.960 . S
H1147 C1160 0.960 . S
C1148 H1140 0.929 . S
C1148 C1149 1.377 . S
C1148 C1150 1.384 . S
C1149 C1148 1.377 . S
C1149 C1155 1.390 . S
C1150 H1141 0.930 . S
C1150 C1148 1.384 . S
C1150 C1151 1.372 . S
C1151 C1150 1.372 . S
C1151 C1152 1.400 . S
C1151 C1156 1.490 . S
C1152 H1142 0.930 . S
C1152 C1151 1.400 . S
C1152 C1155 1.386 . S
H1153 C1169 0.930 . S
H1154 C1170 0.931 . S
C1155 H1143 0.929 . S
C1155 C1149 1.390 . S
C1155 C1152 1.386 . S
C1156 C1151 1.490 . S
C1156 C1158 1.395 . S
C1156 C1159 1.403 . S
H1157 C1163 0.930 . S
C1158 H1144 0.930 . S
C1158 C1156 1.395 . S
C1158 C1161 1.403 . S
C1159 C1156 1.403 . S
C1159 C1160 1.524 . S
C1159 C1163 1.400 . S
C1160 H1145 0.960 . S
C1160 H1146 0.960 . S
C1160 H1147 0.960 . S
C1160 C1159 1.524 . S
C1161 C1158 1.403 . S
C1161 C1162 1.392 . S
C1161 C1165 1.495 . S
C1162 C1161 1.392 . S
C1162 C1163 1.385 . S
C1162 C1164 1.478 . S
C1163 H1157 0.930 . S
C1163 C1159 1.400 . S
C1163 C1162 1.385 . S
C1164 C1162 1.478 . S
C1164 C1166 1.381 . S
C1164 C1170 1.383 . S
C1165 C1161 1.495 . S
C1165 H1171 0.959 . S
C1165 H1172 0.961 . S
C1165 H1173 0.960 . S
C1166 C1164 1.381 . S
C1166 C1167 1.394 . S
C1166 H1174 0.930 . S
C1167 C1166 1.394 . S
C1167 C1168 1.383 . S
C1167 H1175 0.929 . S
C1168 C1167 1.383 . S
C1168 C1169 1.377 . S
C1169 H1153 0.930 . S
C1169 C1168 1.377 . S
C1169 C1170 1.379 . S
C1170 H1154 0.931 . S
C1170 C1164 1.383 . S
C1170 C1169 1.379 . S
H1171 C1165 0.959 . S
H1172 C1165 0.961 . S
H1173 C1165 0.960 . S
H1174 C1166 0.930 . S
H1175 C1167 0.929 . S
H1176 C1184 0.929 . S
H1177 C1186 0.930 . S
H1178 C1188 0.930 . S
H1179 C1191 0.929 . S
H1180 C1194 0.930 . S
H1181 C1196 0.960 . S
H1182 C1196 0.960 . S
H1183 C1196 0.960 . S
C1184 H1176 0.929 . S
C1184 C1185 1.377 . S
C1184 C1186 1.384 . S
C1185 C1184 1.377 . S
C1185 C1191 1.390 . S
C1186 H1177 0.930 . S
C1186 C1184 1.384 . S
C1186 C1187 1.372 . S
C1187 C1186 1.372 . S
C1187 C1188 1.400 . S
C1187 C1192 1.490 . S
C1188 H1178 0.930 . S
C1188 C1187 1.400 . S
C1188 C1191 1.386 . S
H1189 C1205 0.930 . S
H1190 C1206 0.931 . S
C1191 H1179 0.929 . S
C1191 C1185 1.390 . S
C1191 C1188 1.386 . S
C1192 C1187 1.490 . S
C1192 C1194 1.395 . S
C1192 C1195 1.403 . S
H1193 C1199 0.930 . S
C1194 H1180 0.930 . S
C1194 C1192 1.395 . S
C1194 C1197 1.403 1_556 S
C1195 C1192 1.403 . S
C1195 C1196 1.524 . S
C1195 C1199 1.400 1_556 S
C1196 H1181 0.960 . S
C1196 H1182 0.960 . S
C1196 H1183 0.960 . S
C1196 C1195 1.524 . S
C1197 C1194 1.403 1_554 S
C1197 C1198 1.392 . S
C1197 C1201 1.495 . S
C1198 C1197 1.392 . S
C1198 C1199 1.385 . S
C1198 C1200 1.478 . S
C1199 H1193 0.930 . S
C1199 C1195 1.400 1_554 S
C1199 C1198 1.385 . S
C1200 C1198 1.478 . S
C1200 C1202 1.381 . S
C1200 C1206 1.383 . S
C1201 C1197 1.495 . S
C1201 H1207 0.959 . S
C1201 H1208 0.961 . S
C1201 H1209 0.960 . S
C1202 C1200 1.381 . S
C1202 C1203 1.394 . S
C1202 H1210 0.930 . S
C1203 C1202 1.394 . S
C1203 C1204 1.383 . S
C1203 H1211 0.929 . S
C1204 C1203 1.383 . S
C1204 C1205 1.377 . S
C1205 H1189 0.930 . S
C1205 C1204 1.377 . S
C1205 C1206 1.379 . S
C1206 H1190 0.931 . S
C1206 C1200 1.383 . S
C1206 C1205 1.379 . S
H1207 C1201 0.959 . S
H1208 C1201 0.961 . S
H1209 C1201 0.960 . S
H1210 C1202 0.930 . S
H1211 C1203 0.929 . S
H1212 C1220 0.929 . S
H1213 C1222 0.930 . S
H1214 C1224 0.930 . S
H1215 C1227 0.929 . S
H1216 C1230 0.930 . S
H1217 C1232 0.960 . S
H1218 C1232 0.960 . S
H1219 C1232 0.960 . S
C1220 H1212 0.929 . S
C1220 C1221 1.377 . S
C1220 C1222 1.384 . S
C1221 C1220 1.377 . S
C1221 C1227 1.390 . S
C1222 H1213 0.930 . S
C1222 C1220 1.384 . S
C1222 C1223 1.372 . S
C1223 C1222 1.372 . S
C1223 C1224 1.400 . S
C1223 C1228 1.490 . S
C1224 H1214 0.930 . S
C1224 C1223 1.400 . S
C1224 C1227 1.386 . S
H1225 C1241 0.930 . S
H1226 C1242 0.931 . S
C1227 H1215 0.929 . S
C1227 C1221 1.390 . S
C1227 C1224 1.386 . S
C1228 C1223 1.490 . S
C1228 C1230 1.395 . S
C1228 C1231 1.403 . S
H1229 C1235 0.930 . S
C1230 H1216 0.930 . S
C1230 C1228 1.395 . S
C1230 C1233 1.403 . S
C1231 C1228 1.403 . S
C1231 C1232 1.524 . S
C1231 C1235 1.400 . S
C1232 H1217 0.960 . S
C1232 H1218 0.960 . S
C1232 H1219 0.960 . S
C1232 C1231 1.524 . S
C1233 C1230 1.403 . S
C1233 C1234 1.392 . S
C1233 C1237 1.495 . S
C1234 C1233 1.392 . S
C1234 C1235 1.385 . S
C1234 C1236 1.478 . S
C1235 H1229 0.930 . S
C1235 C1231 1.400 . S
C1235 C1234 1.385 . S
C1236 C1234 1.478 . S
C1236 C1238 1.381 . S
C1236 C1242 1.383 . S
C1237 C1233 1.495 . S
C1237 H1243 0.959 . S
C1237 H1244 0.961 . S
C1237 H1245 0.960 . S
C1238 C1236 1.381 . S
C1238 C1239 1.394 . S
C1238 H1246 0.930 . S
C1239 C1238 1.394 . S
C1239 C1240 1.383 . S
C1239 H1247 0.929 . S
C1240 C1239 1.383 . S
C1240 C1241 1.377 . S
C1241 H1225 0.930 . S
C1241 C1240 1.377 . S
C1241 C1242 1.379 . S
C1242 H1226 0.931 . S
C1242 C1236 1.383 . S
C1242 C1241 1.379 . S
H1243 C1237 0.959 . S
H1244 C1237 0.961 . S
H1245 C1237 0.960 . S
H1246 C1238 0.930 . S
H1247 C1239 0.929 . S
H1248 C1256 0.929 . S
H1249 C1258 0.930 . S
H1250 C1260 0.930 . S
H1251 C1263 0.929 . S
H1252 C1266 0.930 . S
H1253 C1268 0.960 . S
H1254 C1268 0.960 . S
H1255 C1268 0.960 . S
C1256 H1248 0.929 . S
C1256 C1257 1.377 . S
C1256 C1258 1.384 . S
C1257 C1256 1.377 . S
C1257 C1263 1.390 . S
C1258 H1249 0.930 . S
C1258 C1256 1.384 . S
C1258 C1259 1.372 . S
C1259 C1258 1.372 . S
C1259 C1260 1.400 . S
C1259 C1264 1.490 . S
C1260 H1250 0.930 . S
C1260 C1259 1.400 . S
C1260 C1263 1.386 . S
H1261 C1277 0.930 . S
H1262 C1278 0.931 . S
C1263 H1251 0.929 . S
C1263 C1257 1.390 . S
C1263 C1260 1.386 . S
C1264 C1259 1.490 . S
C1264 C1266 1.395 . S
C1264 C1267 1.403 . S
H1265 C1271 0.930 . S
C1266 H1252 0.930 . S
C1266 C1264 1.395 . S
C1266 C1269 1.403 1_556 S
C1267 C1264 1.403 . S
C1267 C1268 1.524 . S
C1267 C1271 1.400 1_556 S
C1268 H1253 0.960 . S
C1268 H1254 0.960 . S
C1268 H1255 0.960 . S
C1268 C1267 1.524 . S
C1269 C1266 1.403 1_554 S
C1269 C1270 1.392 . S
C1269 C1273 1.495 . S
C1270 C1269 1.392 . S
C1270 C1271 1.385 . S
C1270 C1272 1.478 . S
C1271 H1265 0.930 . S
C1271 C1267 1.400 1_554 S
C1271 C1270 1.385 . S
C1272 C1270 1.478 . S
C1272 C1274 1.381 . S
C1272 C1278 1.383 . S
C1273 C1269 1.495 . S
C1273 H1279 0.959 . S
C1273 H1280 0.961 . S
C1273 H1281 0.960 . S
C1274 C1272 1.381 . S
C1274 C1275 1.394 . S
C1274 H1282 0.930 . S
C1275 C1274 1.394 . S
C1275 C1276 1.383 . S
C1275 H1283 0.929 . S
C1276 C1275 1.383 . S
C1276 C1277 1.377 . S
C1277 H1261 0.930 . S
C1277 C1276 1.377 . S
C1277 C1278 1.379 . S
C1278 H1262 0.931 . S
C1278 C1272 1.383 . S
C1278 C1277 1.379 . S
H1279 C1273 0.959 . S
H1280 C1273 0.961 . S
H1281 C1273 0.960 . S
H1282 C1274 0.930 . S
H1283 C1275 0.929 . S
H1284 C1292 0.929 . S
H1285 C1294 0.930 . S
H1286 C1296 0.930 . S
H1287 C1299 0.929 . S
H1288 C1302 0.930 . S
H1289 C1304 0.960 . S
H1290 C1304 0.960 . S
H1291 C1304 0.960 . S
C1292 H1284 0.929 . S
C1292 C1293 1.377 . S
C1292 C1294 1.384 . S
C1293 C1292 1.377 . S
C1293 C1299 1.390 . S
C1294 H1285 0.930 . S
C1294 C1292 1.384 . S
C1294 C1295 1.372 . S
C1295 C1294 1.372 . S
C1295 C1296 1.400 . S
C1295 C1300 1.490 . S
C1296 H1286 0.930 . S
C1296 C1295 1.400 . S
C1296 C1299 1.386 . S
H1297 C1313 0.930 . S
H1298 C1314 0.931 . S
C1299 H1287 0.929 . S
C1299 C1293 1.390 . S
C1299 C1296 1.386 . S
C1300 C1295 1.490 . S
C1300 C1302 1.395 . S
C1300 C1303 1.403 . S
H1301 C1307 0.930 . S
C1302 H1288 0.930 . S
C1302 C1300 1.395 . S
C1302 C1305 1.403 . S
C1303 C1300 1.403 . S
C1303 C1304 1.524 . S
C1303 C1307 1.400 . S
C1304 H1289 0.960 . S
C1304 H1290 0.960 . S
C1304 H1291 0.960 . S
C1304 C1303 1.524 . S
C1305 C1302 1.403 . S
C1305 C1306 1.392 . S
C1305 C1309 1.495 . S
C1306 C1305 1.392 . S
C1306 C1307 1.385 . S
C1306 C1308 1.478 . S
C1307 H1301 0.930 . S
C1307 C1303 1.400 . S
C1307 C1306 1.385 . S
C1308 C1306 1.478 . S
C1308 C1310 1.381 . S
C1308 C1314 1.383 . S
C1309 C1305 1.495 . S
C1309 H1315 0.959 . S
C1309 H1316 0.961 . S
C1309 H1317 0.960 . S
C1310 C1308 1.381 . S
C1310 C1311 1.394 . S
C1310 H1318 0.930 . S
C1311 C1310 1.394 . S
C1311 C1312 1.383 . S
C1311 H1319 0.929 . S
C1312 C1311 1.383 . S
C1312 C1313 1.377 . S
C1313 H1297 0.930 . S
C1313 C1312 1.377 . S
C1313 C1314 1.379 . S
C1314 H1298 0.931 . S
C1314 C1308 1.383 . S
C1314 C1313 1.379 . S
H1315 C1309 0.959 . S
H1316 C1309 0.961 . S
H1317 C1309 0.960 . S
H1318 C1310 0.930 . S
H1319 C1311 0.929 . S
H1320 C1328 0.929 . S
H1321 C1330 0.930 . S
H1322 C1332 0.930 . S
H1323 C1335 0.929 . S
H1324 C1338 0.930 . S
H1325 C1340 0.960 . S
H1326 C1340 0.960 . S
H1327 C1340 0.960 . S
C1328 H1320 0.929 . S
C1328 C1329 1.377 . S
C1328 C1330 1.384 . S
C1329 C1328 1.377 . S
C1329 C1335 1.390 . S
C1330 H1321 0.930 . S
C1330 C1328 1.384 . S
C1330 C1331 1.372 . S
C1331 C1330 1.372 . S
C1331 C1332 1.400 . S
C1331 C1336 1.490 . S
C1332 H1322 0.930 . S
C1332 C1331 1.400 . S
C1332 C1335 1.386 . S
H1333 C1349 0.930 . S
H1334 C1350 0.931 . S
C1335 H1323 0.929 . S
C1335 C1329 1.390 . S
C1335 C1332 1.386 . S
C1336 C1331 1.490 . S
C1336 C1338 1.395 . S
C1336 C1339 1.403 . S
H1337 C1343 0.930 . S
C1338 H1324 0.930 . S
C1338 C1336 1.395 . S
C1338 C1341 1.403 1_554 S
C1339 C1336 1.403 . S
C1339 C1340 1.524 . S
C1339 C1343 1.400 1_554 S
C1340 H1325 0.960 . S
C1340 H1326 0.960 . S
C1340 H1327 0.960 . S
C1340 C1339 1.524 . S
C1341 C1338 1.403 1_556 S
C1341 C1342 1.392 . S
C1341 C1345 1.495 . S
C1342 C1341 1.392 . S
C1342 C1343 1.385 . S
C1342 C1344 1.478 . S
C1343 H1337 0.930 . S
C1343 C1339 1.400 1_556 S
C1343 C1342 1.385 . S
C1344 C1342 1.478 . S
C1344 C1346 1.381 . S
C1344 C1350 1.383 . S
C1345 C1341 1.495 . S
C1345 H1351 0.959 . S
C1345 H1352 0.961 . S
C1345 H1353 0.960 . S
C1346 C1344 1.381 . S
C1346 C1347 1.394 . S
C1346 H1354 0.930 . S
C1347 C1346 1.394 . S
C1347 C1348 1.383 . S
C1347 H1355 0.929 . S
C1348 C1347 1.383 . S
C1348 C1349 1.377 . S
C1349 H1333 0.930 . S
C1349 C1348 1.377 . S
C1349 C1350 1.379 . S
C1350 H1334 0.931 . S
C1350 C1344 1.383 . S
C1350 C1349 1.379 . S
H1351 C1345 0.959 . S
H1352 C1345 0.961 . S
H1353 C1345 0.960 . S
H1354 C1346 0.930 . S
H1355 C1347 0.929 . S
H1356 C1364 0.929 . S
H1357 C1366 0.930 . S
H1358 C1368 0.930 . S
H1359 C1371 0.929 . S
H1360 C1374 0.930 . S
H1361 C1376 0.960 . S
H1362 C1376 0.960 . S
H1363 C1376 0.960 . S
C1364 H1356 0.929 . S
C1364 C1365 1.377 . S
C1364 C1366 1.384 . S
C1365 C1364 1.377 . S
C1365 C1371 1.390 . S
C1366 H1357 0.930 . S
C1366 C1364 1.384 . S
C1366 C1367 1.372 . S
C1367 C1366 1.372 . S
C1367 C1368 1.400 . S
C1367 C1372 1.490 . S
C1368 H1358 0.930 . S
C1368 C1367 1.400 . S
C1368 C1371 1.386 . S
H1369 C1385 0.930 . S
H1370 C1386 0.931 . S
C1371 H1359 0.929 . S
C1371 C1365 1.390 . S
C1371 C1368 1.386 . S
C1372 C1367 1.490 . S
C1372 C1374 1.395 . S
C1372 C1375 1.403 . S
H1373 C1379 0.930 . S
C1374 H1360 0.930 . S
C1374 C1372 1.395 . S
C1374 C1377 1.403 . S
C1375 C1372 1.403 . S
C1375 C1376 1.524 . S
C1375 C1379 1.400 . S
C1376 H1361 0.960 . S
C1376 H1362 0.960 . S
C1376 H1363 0.960 . S
C1376 C1375 1.524 . S
C1377 C1374 1.403 . S
C1377 C1378 1.392 . S
C1377 C1381 1.495 . S
C1378 C1377 1.392 . S
C1378 C1379 1.385 . S
C1378 C1380 1.478 . S
C1379 H1373 0.930 . S
C1379 C1375 1.400 . S
C1379 C1378 1.385 . S
C1380 C1378 1.478 . S
C1380 C1382 1.381 . S
C1380 C1386 1.383 . S
C1381 C1377 1.495 . S
C1381 H1387 0.959 . S
C1381 H1388 0.961 . S
C1381 H1389 0.960 . S
C1382 C1380 1.381 . S
C1382 C1383 1.394 . S
C1382 H1390 0.930 . S
C1383 C1382 1.394 . S
C1383 C1384 1.383 . S
C1383 H1391 0.929 . S
C1384 C1383 1.383 . S
C1384 C1385 1.377 . S
C1385 H1369 0.930 . S
C1385 C1384 1.377 . S
C1385 C1386 1.379 . S
C1386 H1370 0.931 . S
C1386 C1380 1.383 . S
C1386 C1385 1.379 . S
H1387 C1381 0.959 . S
H1388 C1381 0.961 . S
H1389 C1381 0.960 . S
H1390 C1382 0.930 . S
H1391 C1383 0.929 . S
H1392 C1400 0.929 . S
H1393 C1402 0.930 . S
H1394 C1404 0.930 . S
H1395 C1407 0.929 . S
H1396 C1410 0.930 . S
H1397 C1412 0.960 . S
H1398 C1412 0.960 . S
H1399 C1412 0.960 . S
C1400 H1392 0.929 . S
C1400 C1401 1.377 . S
C1400 C1402 1.384 . S
C1401 C1400 1.377 . S
C1401 C1407 1.390 . S
C1402 H1393 0.930 . S
C1402 C1400 1.384 . S
C1402 C1403 1.372 . S
C1403 C1402 1.372 . S
C1403 C1404 1.400 . S
C1403 C1408 1.490 . S
C1404 H1394 0.930 . S
C1404 C1403 1.400 . S
C1404 C1407 1.386 . S
H1405 C1421 0.930 . S
H1406 C1422 0.931 . S
C1407 H1395 0.929 . S
C1407 C1401 1.390 . S
C1407 C1404 1.386 . S
C1408 C1403 1.490 . S
C1408 C1410 1.395 . S
C1408 C1411 1.403 . S
H1409 C1415 0.930 . S
C1410 H1396 0.930 . S
C1410 C1408 1.395 . S
C1410 C1413 1.403 . S
C1411 C1408 1.403 . S
C1411 C1412 1.524 . S
C1411 C1415 1.400 . S
C1412 H1397 0.960 . S
C1412 H1398 0.960 . S
C1412 H1399 0.960 . S
C1412 C1411 1.524 . S
C1413 C1410 1.403 . S
C1413 C1414 1.392 . S
C1413 C1417 1.495 . S
C1414 C1413 1.392 . S
C1414 C1415 1.385 . S
C1414 C1416 1.478 . S
C1415 H1409 0.930 . S
C1415 C1411 1.400 . S
C1415 C1414 1.385 . S
C1416 C1414 1.478 . S
C1416 C1418 1.381 . S
C1416 C1422 1.383 . S
C1417 C1413 1.495 . S
C1417 H1423 0.959 . S
C1417 H1424 0.961 . S
C1417 H1425 0.960 . S
C1418 C1416 1.381 . S
C1418 C1419 1.394 . S
C1418 H1426 0.930 . S
C1419 C1418 1.394 . S
C1419 C1420 1.383 . S
C1419 H1427 0.929 . S
C1420 C1419 1.383 . S
C1420 C1421 1.377 . S
C1421 H1405 0.930 . S
C1421 C1420 1.377 . S
C1421 C1422 1.379 . S
C1422 H1406 0.931 . S
C1422 C1416 1.383 . S
C1422 C1421 1.379 . S
H1423 C1417 0.959 . S
H1424 C1417 0.961 . S
H1425 C1417 0.960 . S
H1426 C1418 0.930 . S
H1427 C1419 0.929 . S
H1428 C1436 0.929 . S
H1429 C1438 0.930 . S
H1430 C1440 0.930 . S
H1431 C1443 0.929 . S
H1432 C1446 0.930 . S
H1433 C1448 0.960 . S
H1434 C1448 0.960 . S
H1435 C1448 0.960 . S
C1436 H1428 0.929 . S
C1436 C1437 1.377 . S
C1436 C1438 1.384 . S
C1437 C1436 1.377 . S
C1437 C1443 1.390 . S
C1438 H1429 0.930 . S
C1438 C1436 1.384 . S
C1438 C1439 1.372 . S
C1439 C1438 1.372 . S
C1439 C1440 1.400 . S
C1439 C1444 1.490 . S
C1440 H1430 0.930 . S
C1440 C1439 1.400 . S
C1440 C1443 1.386 . S
H1441 C1457 0.930 . S
H1442 C1458 0.931 . S
C1443 H1431 0.929 . S
C1443 C1437 1.390 . S
C1443 C1440 1.386 . S
C1444 C1439 1.490 . S
C1444 C1446 1.395 . S
C1444 C1447 1.403 . S
H1445 C1451 0.930 . S
C1446 H1432 0.930 . S
C1446 C1444 1.395 . S
C1446 C1449 1.403 . S
C1447 C1444 1.403 . S
C1447 C1448 1.524 . S
C1447 C1451 1.400 . S
C1448 H1433 0.960 . S
C1448 H1434 0.960 . S
C1448 H1435 0.960 . S
C1448 C1447 1.524 . S
C1449 C1446 1.403 . S
C1449 C1450 1.392 . S
C1449 C1453 1.495 . S
C1450 C1449 1.392 . S
C1450 C1451 1.385 . S
C1450 C1452 1.478 . S
C1451 H1445 0.930 . S
C1451 C1447 1.400 . S
C1451 C1450 1.385 . S
C1452 C1450 1.478 . S
C1452 C1454 1.381 . S
C1452 C1458 1.383 . S
C1453 C1449 1.495 . S
C1453 H1459 0.959 . S
C1453 H1460 0.961 . S
C1453 H1461 0.960 . S
C1454 C1452 1.381 . S
C1454 C1455 1.394 . S
C1454 H1462 0.930 . S
C1455 C1454 1.394 . S
C1455 C1456 1.383 . S
C1455 H1463 0.929 . S
C1456 C1455 1.383 . S
C1456 C1457 1.377 . S
C1457 H1441 0.930 . S
C1457 C1456 1.377 . S
C1457 C1458 1.379 . S
C1458 H1442 0.931 . S
C1458 C1452 1.383 . S
C1458 C1457 1.379 . S
H1459 C1453 0.959 . S
H1460 C1453 0.961 . S
H1461 C1453 0.960 . S
H1462 C1454 0.930 . S
H1463 C1455 0.929 . S
H1464 C1472 0.929 . S
H1465 C1474 0.930 . S
H1466 C1476 0.930 . S
H1467 C1479 0.929 . S
H1468 C1482 0.930 . S
H1469 C1484 0.960 . S
H1470 C1484 0.960 . S
H1471 C1484 0.960 . S
C1472 H1464 0.929 . S
C1472 C1473 1.377 . S
C1472 C1474 1.384 . S
C1473 C1472 1.377 . S
C1473 C1479 1.390 . S
C1474 H1465 0.930 . S
C1474 C1472 1.384 . S
C1474 C1475 1.372 . S
C1475 C1474 1.372 . S
C1475 C1476 1.400 . S
C1475 C1480 1.490 . S
C1476 H1466 0.930 . S
C1476 C1475 1.400 . S
C1476 C1479 1.386 . S
H1477 C1493 0.930 . S
H1478 C1494 0.931 . S
C1479 H1467 0.929 . S
C1479 C1473 1.390 . S
C1479 C1476 1.386 . S
C1480 C1475 1.490 . S
C1480 C1482 1.395 . S
C1480 C1483 1.403 . S
H1481 C1487 0.930 . S
C1482 H1468 0.930 . S
C1482 C1480 1.395 . S
C1482 C1485 1.403 . S
C1483 C1480 1.403 . S
C1483 C1484 1.524 . S
C1483 C1487 1.400 . S
C1484 H1469 0.960 . S
C1484 H1470 0.960 . S
C1484 H1471 0.960 . S
C1484 C1483 1.524 . S
C1485 C1482 1.403 . S
C1485 C1486 1.392 . S
C1485 C1489 1.495 . S
C1486 C1485 1.392 . S
C1486 C1487 1.385 . S
C1486 C1488 1.478 . S
C1487 H1481 0.930 . S
C1487 C1483 1.400 . S
C1487 C1486 1.385 . S
C1488 C1486 1.478 . S
C1488 C1490 1.381 . S
C1488 C1494 1.383 . S
C1489 C1485 1.495 . S
C1489 H1495 0.959 . S
C1489 H1496 0.961 . S
C1489 H1497 0.960 . S
C1490 C1488 1.381 . S
C1490 C1491 1.394 . S
C1490 H1498 0.930 . S
C1491 C1490 1.394 . S
C1491 C1492 1.383 . S
C1491 H1499 0.929 . S
C1492 C1491 1.383 . S
C1492 C1493 1.377 . S
C1493 H1477 0.930 . S
C1493 C1492 1.377 . S
C1493 C1494 1.379 . S
C1494 H1478 0.931 . S
C1494 C1488 1.383 . S
C1494 C1493 1.379 . S
H1495 C1489 0.959 . S
H1496 C1489 0.961 . S
H1497 C1489 0.960 . S
H1498 C1490 0.930 . S
H1499 C1491 0.929 . S
H1500 C1508 0.929 . S
H1501 C1510 0.930 . S
H1502 C1512 0.930 . S
H1503 C1515 0.929 . S
H1504 C1518 0.930 . S
H1505 C1520 0.960 . S
H1506 C1520 0.960 . S
H1507 C1520 0.960 . S
C1508 H1500 0.929 . S
C1508 C1509 1.377 . S
C1508 C1510 1.384 . S
C1509 C1508 1.377 . S
C1509 C1515 1.390 . S
C1510 H1501 0.930 . S
C1510 C1508 1.384 . S
C1510 C1511 1.372 . S
C1511 C1510 1.372 . S
C1511 C1512 1.400 . S
C1511 C1516 1.490 . S
C1512 H1502 0.930 . S
C1512 C1511 1.400 . S
C1512 C1515 1.386 . S
H1513 C1529 0.930 . S
H1514 C1530 0.931 . S
C1515 H1503 0.929 . S
C1515 C1509 1.390 . S
C1515 C1512 1.386 . S
C1516 C1511 1.490 . S
C1516 C1518 1.395 . S
C1516 C1519 1.403 . S
H1517 C1523 0.930 . S
C1518 H1504 0.930 . S
C1518 C1516 1.395 . S
C1518 C1521 1.403 . S
C1519 C1516 1.403 . S
C1519 C1520 1.524 . S
C1519 C1523 1.400 . S
C1520 H1505 0.960 . S
C1520 H1506 0.960 . S
C1520 H1507 0.960 . S
C1520 C1519 1.524 . S
C1521 C1518 1.403 . S
C1521 C1522 1.392 . S
C1521 C1525 1.495 . S
C1522 C1521 1.392 . S
C1522 C1523 1.385 . S
C1522 C1524 1.478 . S
C1523 H1517 0.930 . S
C1523 C1519 1.400 . S
C1523 C1522 1.385 . S
C1524 C1522 1.478 . S
C1524 C1526 1.381 . S
C1524 C1530 1.383 . S
C1525 C1521 1.495 . S
C1525 H1531 0.959 . S
C1525 H1532 0.961 . S
C1525 H1533 0.960 . S
C1526 C1524 1.381 . S
C1526 C1527 1.394 . S
C1526 H1534 0.930 . S
C1527 C1526 1.394 . S
C1527 C1528 1.383 . S
C1527 H1535 0.929 . S
C1528 C1527 1.383 . S
C1528 C1529 1.377 . S
C1529 H1513 0.930 . S
C1529 C1528 1.377 . S
C1529 C1530 1.379 . S
C1530 H1514 0.931 . S
C1530 C1524 1.383 . S
C1530 C1529 1.379 . S
H1531 C1525 0.959 . S
H1532 C1525 0.961 . S
H1533 C1525 0.960 . S
H1534 C1526 0.930 . S
H1535 C1527 0.929 . S
H1536 C1544 0.929 . S
H1537 C1546 0.930 . S
H1538 C1548 0.930 . S
H1539 C1551 0.929 . S
H1540 C1554 0.930 . S
H1541 C1556 0.960 . S
H1542 C1556 0.960 . S
H1543 C1556 0.960 . S
C1544 H1536 0.929 . S
C1544 C1545 1.377 . S
C1544 C1546 1.384 . S
C1545 C1544 1.377 . S
C1545 C1551 1.390 . S
C1546 H1537 0.930 . S
C1546 C1544 1.384 . S
C1546 C1547 1.372 . S
C1547 C1546 1.372 . S
C1547 C1548 1.400 . S
C1547 C1552 1.490 . S
C1548 H1538 0.930 . S
C1548 C1547 1.400 . S
C1548 C1551 1.386 . S
H1549 C1565 0.930 . S
H1550 C1566 0.931 . S
C1551 H1539 0.929 . S
C1551 C1545 1.390 . S
C1551 C1548 1.386 . S
C1552 C1547 1.490 . S
C1552 C1554 1.395 . S
C1552 C1555 1.403 . S
H1553 C1559 0.930 . S
C1554 H1540 0.930 . S
C1554 C1552 1.395 . S
C1554 C1557 1.403 . S
C1555 C1552 1.403 . S
C1555 C1556 1.524 . S
C1555 C1559 1.400 . S
C1556 H1541 0.960 . S
C1556 H1542 0.960 . S
C1556 H1543 0.960 . S
C1556 C1555 1.524 . S
C1557 C1554 1.403 . S
C1557 C1558 1.392 . S
C1557 C1561 1.495 . S
C1558 C1557 1.392 . S
C1558 C1559 1.385 . S
C1558 C1560 1.478 . S
C1559 H1553 0.930 . S
C1559 C1555 1.400 . S
C1559 C1558 1.385 . S
C1560 C1558 1.478 . S
C1560 C1562 1.381 . S
C1560 C1566 1.383 . S
C1561 C1557 1.495 . S
C1561 H1567 0.959 . S
C1561 H1568 0.961 . S
C1561 H1569 0.960 . S
C1562 C1560 1.381 . S
C1562 C1563 1.394 . S
C1562 H1570 0.930 . S
C1563 C1562 1.394 . S
C1563 C1564 1.383 . S
C1563 H1571 0.929 . S
C1564 C1563 1.383 . S
C1564 C1565 1.377 . S
C1565 H1549 0.930 . S
C1565 C1564 1.377 . S
C1565 C1566 1.379 . S
C1566 H1550 0.931 . S
C1566 C1560 1.383 . S
C1566 C1565 1.379 . S
H1567 C1561 0.959 . S
H1568 C1561 0.961 . S
H1569 C1561 0.960 . S
H1570 C1562 0.930 . S
H1571 C1563 0.929 . S
H1572 C1580 0.929 . S
H1573 C1582 0.930 . S
H1574 C1584 0.930 . S
H1575 C1587 0.929 . S
H1576 C1590 0.930 . S
H1577 C1592 0.960 . S
H1578 C1592 0.960 . S
H1579 C1592 0.960 . S
C1580 H1572 0.929 . S
C1580 C1581 1.377 . S
C1580 C1582 1.384 . S
C1581 C1580 1.377 . S
C1581 C1587 1.390 . S
C1582 H1573 0.930 . S
C1582 C1580 1.384 . S
C1582 C1583 1.372 . S
C1583 C1582 1.372 . S
C1583 C1584 1.400 . S
C1583 C1588 1.490 . S
C1584 H1574 0.930 . S
C1584 C1583 1.400 . S
C1584 C1587 1.386 . S
H1585 C1601 0.930 . S
H1586 C1602 0.931 . S
C1587 H1575 0.929 . S
C1587 C1581 1.390 . S
C1587 C1584 1.386 . S
C1588 C1583 1.490 . S
C1588 C1590 1.395 . S
C1588 C1591 1.403 . S
H1589 C1595 0.930 . S
C1590 H1576 0.930 . S
C1590 C1588 1.395 . S
C1590 C1593 1.403 . S
C1591 C1588 1.403 . S
C1591 C1592 1.524 . S
C1591 C1595 1.400 . S
C1592 H1577 0.960 . S
C1592 H1578 0.960 . S
C1592 H1579 0.960 . S
C1592 C1591 1.524 . S
C1593 C1590 1.403 . S
C1593 C1594 1.392 . S
C1593 C1597 1.495 . S
C1594 C1593 1.392 . S
C1594 C1595 1.385 . S
C1594 C1596 1.478 . S
C1595 H1589 0.930 . S
C1595 C1591 1.400 . S
C1595 C1594 1.385 . S
C1596 C1594 1.478 . S
C1596 C1598 1.381 . S
C1596 C1602 1.383 . S
C1597 C1593 1.495 . S
C1597 H1603 0.959 . S
C1597 H1604 0.961 . S
C1597 H1605 0.960 . S
C1598 C1596 1.381 . S
C1598 C1599 1.394 . S
C1598 H1606 0.930 . S
C1599 C1598 1.394 . S
C1599 C1600 1.383 . S
C1599 H1607 0.929 . S
C1600 C1599 1.383 . S
C1600 C1601 1.377 . S
C1601 H1585 0.930 . S
C1601 C1600 1.377 . S
C1601 C1602 1.379 . S
C1602 H1586 0.931 . S
C1602 C1596 1.383 . S
C1602 C1601 1.379 . S
H1603 C1597 0.959 . S
H1604 C1597 0.961 . S
H1605 C1597 0.960 . S
H1606 C1598 0.930 . S
H1607 C1599 0.929 . S
H1608 C1616 0.929 . S
H1609 C1618 0.930 . S
H1610 C1620 0.930 . S
H1611 C1623 0.929 . S
H1612 C1626 0.930 . S
H1613 C1628 0.960 . S
H1614 C1628 0.960 . S
H1615 C1628 0.960 . S
C1616 H1608 0.929 . S
C1616 C1617 1.377 . S
C1616 C1618 1.384 . S
C1617 C1616 1.377 . S
C1617 C1623 1.390 . S
C1618 H1609 0.930 . S
C1618 C1616 1.384 . S
C1618 C1619 1.372 . S
C1619 C1618 1.372 . S
C1619 C1620 1.400 . S
C1619 C1624 1.490 . S
C1620 H1610 0.930 . S
C1620 C1619 1.400 . S
C1620 C1623 1.386 . S
H1621 C1637 0.930 . S
H1622 C1638 0.931 . S
C1623 H1611 0.929 . S
C1623 C1617 1.390 . S
C1623 C1620 1.386 . S
C1624 C1619 1.490 . S
C1624 C1626 1.395 . S
C1624 C1627 1.403 . S
H1625 C1631 0.930 . S
C1626 H1612 0.930 . S
C1626 C1624 1.395 . S
C1626 C1629 1.403 . S
C1627 C1624 1.403 . S
C1627 C1628 1.524 . S
C1627 C1631 1.400 . S
C1628 H1613 0.960 . S
C1628 H1614 0.960 . S
C1628 H1615 0.960 . S
C1628 C1627 1.524 . S
C1629 C1626 1.403 . S
C1629 C1630 1.392 . S
C1629 C1633 1.495 . S
C1630 C1629 1.392 . S
C1630 C1631 1.385 . S
C1630 C1632 1.478 . S
C1631 H1625 0.930 . S
C1631 C1627 1.400 . S
C1631 C1630 1.385 . S
C1632 C1630 1.478 . S
C1632 C1634 1.381 . S
C1632 C1638 1.383 . S
C1633 C1629 1.495 . S
C1633 H1639 0.959 . S
C1633 H1640 0.961 . S
C1633 H1641 0.960 . S
C1634 C1632 1.381 . S
C1634 C1635 1.394 . S
C1634 H1642 0.930 . S
C1635 C1634 1.394 . S
C1635 C1636 1.383 . S
C1635 H1643 0.929 . S
C1636 C1635 1.383 . S
C1636 C1637 1.377 . S
C1637 H1621 0.930 . S
C1637 C1636 1.377 . S
C1637 C1638 1.379 . S
C1638 H1622 0.931 . S
C1638 C1632 1.383 . S
C1638 C1637 1.379 . S
H1639 C1633 0.959 . S
H1640 C1633 0.961 . S
H1641 C1633 0.960 . S
H1642 C1634 0.930 . S
H1643 C1635 0.929 . S
H1644 C1652 0.929 . S
H1645 C1654 0.930 . S
H1646 C1656 0.930 . S
H1647 C1659 0.929 . S
H1648 C1662 0.930 . S
H1649 C1664 0.960 . S
H1650 C1664 0.960 . S
H1651 C1664 0.960 . S
C1652 H1644 0.929 . S
C1652 C1653 1.377 . S
C1652 C1654 1.384 . S
C1653 C1652 1.377 . S
C1653 C1659 1.390 . S
C1654 H1645 0.930 . S
C1654 C1652 1.384 . S
C1654 C1655 1.372 . S
C1655 C1654 1.372 . S
C1655 C1656 1.400 . S
C1655 C1660 1.490 . S
C1656 H1646 0.930 . S
C1656 C1655 1.400 . S
C1656 C1659 1.386 . S
H1657 C1673 0.930 . S
H1658 C1674 0.931 . S
C1659 H1647 0.929 . S
C1659 C1653 1.390 . S
C1659 C1656 1.386 . S
C1660 C1655 1.490 . S
C1660 C1662 1.395 . S
C1660 C1663 1.403 . S
H1661 C1667 0.930 . S
C1662 H1648 0.930 . S
C1662 C1660 1.395 . S
C1662 C1665 1.403 . S
C1663 C1660 1.403 . S
C1663 C1664 1.524 . S
C1663 C1667 1.400 . S
C1664 H1649 0.960 . S
C1664 H1650 0.960 . S
C1664 H1651 0.960 . S
C1664 C1663 1.524 . S
C1665 C1662 1.403 . S
C1665 C1666 1.392 . S
C1665 C1669 1.495 . S
C1666 C1665 1.392 . S
C1666 C1667 1.385 . S
C1666 C1668 1.478 . S
C1667 H1661 0.930 . S
C1667 C1663 1.400 . S
C1667 C1666 1.385 . S
C1668 C1666 1.478 . S
C1668 C1670 1.381 . S
C1668 C1674 1.383 . S
C1669 C1665 1.495 . S
C1669 H1675 0.959 . S
C1669 H1676 0.961 . S
C1669 H1677 0.960 . S
C1670 C1668 1.381 . S
C1670 C1671 1.394 . S
C1670 H1678 0.930 . S
C1671 C1670 1.394 . S
C1671 C1672 1.383 . S
C1671 H1679 0.929 . S
C1672 C1671 1.383 . S
C1672 C1673 1.377 . S
C1673 H1657 0.930 . S
C1673 C1672 1.377 . S
C1673 C1674 1.379 . S
C1674 H1658 0.931 . S
C1674 C1668 1.383 . S
C1674 C1673 1.379 . S
H1675 C1669 0.959 . S
H1676 C1669 0.961 . S
H1677 C1669 0.960 . S
H1678 C1670 0.930 . S
H1679 C1671 0.929 . S
H1680 C1688 0.929 . S
H1681 C1690 0.930 . S
H1682 C1692 0.930 . S
H1683 C1695 0.929 . S
H1684 C1698 0.930 . S
H1685 C1700 0.960 . S
H1686 C1700 0.960 . S
H1687 C1700 0.960 . S
C1688 H1680 0.929 . S
C1688 C1689 1.377 . S
C1688 C1690 1.384 . S
C1689 C1688 1.377 . S
C1689 C1695 1.390 . S
C1690 H1681 0.930 . S
C1690 C1688 1.384 . S
C1690 C1691 1.372 . S
C1691 C1690 1.372 . S
C1691 C1692 1.400 . S
C1691 C1696 1.490 . S
C1692 H1682 0.930 . S
C1692 C1691 1.400 . S
C1692 C1695 1.386 . S
H1693 C1709 0.930 . S
H1694 C1710 0.931 . S
C1695 H1683 0.929 . S
C1695 C1689 1.390 . S
C1695 C1692 1.386 . S
C1696 C1691 1.490 . S
C1696 C1698 1.395 . S
C1696 C1699 1.403 . S
H1697 C1703 0.930 . S
C1698 H1684 0.930 . S
C1698 C1696 1.395 . S
C1698 C1701 1.403 . S
C1699 C1696 1.403 . S
C1699 C1700 1.524 . S
C1699 C1703 1.400 . S
C1700 H1685 0.960 . S
C1700 H1686 0.960 . S
C1700 H1687 0.960 . S
C1700 C1699 1.524 . S
C1701 C1698 1.403 . S
C1701 C1702 1.392 . S
C1701 C1705 1.495 . S
C1702 C1701 1.392 . S
C1702 C1703 1.385 . S
C1702 C1704 1.478 . S
C1703 H1697 0.930 . S
C1703 C1699 1.400 . S
C1703 C1702 1.385 . S
C1704 C1702 1.478 . S
C1704 C1706 1.381 . S
C1704 C1710 1.383 . S
C1705 C1701 1.495 . S
C1705 H1711 0.959 . S
C1705 H1712 0.961 . S
C1705 H1713 0.960 . S
C1706 C1704 1.381 . S
C1706 C1707 1.394 . S
C1706 H1714 0.930 . S
C1707 C1706 1.394 . S
C1707 C1708 1.383 . S
C1707 H1715 0.929 . S
C1708 C1707 1.383 . S
C1708 C1709 1.377 . S
C1709 H1693 0.930 . S
C1709 C1708 1.377 . S
C1709 C1710 1.379 . S
C1710 H1694 0.931 . S
C1710 C1704 1.383 . S
C1710 C1709 1.379 . S
H1711 C1705 0.959 . S
H1712 C1705 0.961 . S
H1713 C1705 0.960 . S
H1714 C1706 0.930 . S
H1715 C1707 0.929 . S
H1716 C1724 0.929 . S
H1717 C1726 0.930 . S
H1718 C1728 0.930 . S
H1719 C1731 0.929 . S
H1720 C1734 0.930 . S
H1721 C1736 0.960 . S
H1722 C1736 0.960 . S
H1723 C1736 0.960 . S
C1724 H1716 0.929 . S
C1724 C1725 1.377 . S
C1724 C1726 1.384 . S
C1725 C1724 1.377 . S
C1725 C1731 1.390 . S
C1726 H1717 0.930 . S
C1726 C1724 1.384 . S
C1726 C1727 1.372 . S
C1727 C1726 1.372 . S
C1727 C1728 1.400 . S
C1727 C1732 1.490 . S
C1728 H1718 0.930 . S
C1728 C1727 1.400 . S
C1728 C1731 1.386 . S
H1729 C1745 0.930 . S
H1730 C1746 0.931 . S
C1731 H1719 0.929 . S
C1731 C1725 1.390 . S
C1731 C1728 1.386 . S
C1732 C1727 1.490 . S
C1732 C1734 1.395 . S
C1732 C1735 1.403 . S
H1733 C1739 0.930 . S
C1734 H1720 0.930 . S
C1734 C1732 1.395 . S
C1734 C1737 1.403 . S
C1735 C1732 1.403 . S
C1735 C1736 1.524 . S
C1735 C1739 1.400 . S
C1736 H1721 0.960 . S
C1736 H1722 0.960 . S
C1736 H1723 0.960 . S
C1736 C1735 1.524 . S
C1737 C1734 1.403 . S
C1737 C1738 1.392 . S
C1737 C1741 1.495 . S
C1738 C1737 1.392 . S
C1738 C1739 1.385 . S
C1738 C1740 1.478 . S
C1739 H1733 0.930 . S
C1739 C1735 1.400 . S
C1739 C1738 1.385 . S
C1740 C1738 1.478 . S
C1740 C1742 1.381 . S
C1740 C1746 1.383 . S
C1741 C1737 1.495 . S
C1741 H1747 0.959 . S
C1741 H1748 0.961 . S
C1741 H1749 0.960 . S
C1742 C1740 1.381 . S
C1742 C1743 1.394 . S
C1742 H1750 0.930 . S
C1743 C1742 1.394 . S
C1743 C1744 1.383 . S
C1743 H1751 0.929 . S
C1744 C1743 1.383 . S
C1744 C1745 1.377 . S
C1745 H1729 0.930 . S
C1745 C1744 1.377 . S
C1745 C1746 1.379 . S
C1746 H1730 0.931 . S
C1746 C1740 1.383 . S
C1746 C1745 1.379 . S
H1747 C1741 0.959 . S
H1748 C1741 0.961 . S
H1749 C1741 0.960 . S
H1750 C1742 0.930 . S
H1751 C1743 0.929 . S
H1752 C1760 0.929 . S
H1753 C1762 0.930 . S
H1754 C1764 0.930 . S
H1755 C1767 0.929 . S
H1756 C1770 0.930 . S
H1757 C1772 0.960 . S
H1758 C1772 0.960 . S
H1759 C1772 0.960 . S
C1760 H1752 0.929 . S
C1760 C1761 1.377 . S
C1760 C1762 1.384 . S
C1761 C1760 1.377 . S
C1761 C1767 1.390 . S
C1762 H1753 0.930 . S
C1762 C1760 1.384 . S
C1762 C1763 1.372 . S
C1763 C1762 1.372 . S
C1763 C1764 1.400 . S
C1763 C1768 1.490 . S
C1764 H1754 0.930 . S
C1764 C1763 1.400 . S
C1764 C1767 1.386 . S
H1765 C1781 0.930 . S
H1766 C1782 0.931 . S
C1767 H1755 0.929 . S
C1767 C1761 1.390 . S
C1767 C1764 1.386 . S
C1768 C1763 1.490 . S
C1768 C1770 1.395 . S
C1768 C1771 1.403 . S
H1769 C1775 0.930 . S
C1770 H1756 0.930 . S
C1770 C1768 1.395 . S
C1770 C1773 1.403 . S
C1771 C1768 1.403 . S
C1771 C1772 1.524 . S
C1771 C1775 1.400 . S
C1772 H1757 0.960 . S
C1772 H1758 0.960 . S
C1772 H1759 0.960 . S
C1772 C1771 1.524 . S
C1773 C1770 1.403 . S
C1773 C1774 1.392 . S
C1773 C1777 1.495 . S
C1774 C1773 1.392 . S
C1774 C1775 1.385 . S
C1774 C1776 1.478 . S
C1775 H1769 0.930 . S
C1775 C1771 1.400 . S
C1775 C1774 1.385 . S
C1776 C1774 1.478 . S
C1776 C1778 1.381 . S
C1776 C1782 1.383 . S
C1777 C1773 1.495 . S
C1777 H1783 0.959 . S
C1777 H1784 0.961 . S
C1777 H1785 0.960 . S
C1778 C1776 1.381 . S
C1778 C1779 1.394 . S
C1778 H1786 0.930 . S
C1779 C1778 1.394 . S
C1779 C1780 1.383 . S
C1779 H1787 0.929 . S
C1780 C1779 1.383 . S
C1780 C1781 1.377 . S
C1781 H1765 0.930 . S
C1781 C1780 1.377 . S
C1781 C1782 1.379 . S
C1782 H1766 0.931 . S
C1782 C1776 1.383 . S
C1782 C1781 1.379 . S
H1783 C1777 0.959 . S
H1784 C1777 0.961 . S
H1785 C1777 0.960 . S
H1786 C1778 0.930 . S
H1787 C1779 0.929 . S
H1788 C1796 0.929 . S
H1789 C1798 0.930 . S
H1790 C1800 0.930 . S
H1791 C1803 0.929 . S
H1792 C1806 0.930 . S
H1793 C1808 0.960 . S
H1794 C1808 0.960 . S
H1795 C1808 0.960 . S
C1796 H1788 0.929 . S
C1796 C1797 1.377 . S
C1796 C1798 1.384 . S
C1797 C1796 1.377 . S
C1797 C1803 1.390 . S
C1798 H1789 0.930 . S
C1798 C1796 1.384 . S
C1798 C1799 1.372 . S
C1799 C1798 1.372 . S
C1799 C1800 1.400 . S
C1799 C1804 1.490 . S
C1800 H1790 0.930 . S
C1800 C1799 1.400 . S
C1800 C1803 1.386 . S
H1801 C1817 0.930 . S
H1802 C1818 0.931 . S
C1803 H1791 0.929 . S
C1803 C1797 1.390 . S
C1803 C1800 1.386 . S
C1804 C1799 1.490 . S
C1804 C1806 1.395 . S
C1804 C1807 1.403 . S
H1805 C1811 0.930 . S
C1806 H1792 0.930 . S
C1806 C1804 1.395 . S
C1806 C1809 1.403 . S
C1807 C1804 1.403 . S
C1807 C1808 1.524 . S
C1807 C1811 1.400 . S
C1808 H1793 0.960 . S
C1808 H1794 0.960 . S
C1808 H1795 0.960 . S
C1808 C1807 1.524 . S
C1809 C1806 1.403 . S
C1809 C1810 1.392 . S
C1809 C1813 1.495 . S
C1810 C1809 1.392 . S
C1810 C1811 1.385 . S
C1810 C1812 1.478 . S
C1811 H1805 0.930 . S
C1811 C1807 1.400 . S
C1811 C1810 1.385 . S
C1812 C1810 1.478 . S
C1812 C1814 1.381 . S
C1812 C1818 1.383 . S
C1813 C1809 1.495 . S
C1813 H1819 0.959 . S
C1813 H1820 0.961 . S
C1813 H1821 0.960 . S
C1814 C1812 1.381 . S
C1814 C1815 1.394 . S
C1814 H1822 0.930 . S
C1815 C1814 1.394 . S
C1815 C1816 1.383 . S
C1815 H1823 0.929 . S
C1816 C1815 1.383 . S
C1816 C1817 1.377 . S
C1817 H1801 0.930 . S
C1817 C1816 1.377 . S
C1817 C1818 1.379 . S
C1818 H1802 0.931 . S
C1818 C1812 1.383 . S
C1818 C1817 1.379 . S
H1819 C1813 0.959 . S
H1820 C1813 0.961 . S
H1821 C1813 0.960 . S
H1822 C1814 0.930 . S
H1823 C1815 0.929 . S
H1824 C1832 0.929 . S
H1825 C1834 0.930 . S
H1826 C1836 0.930 . S
H1827 C1839 0.929 . S
H1828 C1842 0.930 . S
H1829 C1844 0.960 . S
H1830 C1844 0.960 . S
H1831 C1844 0.960 . S
C1832 H1824 0.929 . S
C1832 C1833 1.377 . S
C1832 C1834 1.384 . S
C1833 C1832 1.377 . S
C1833 C1839 1.390 . S
C1834 H1825 0.930 . S
C1834 C1832 1.384 . S
C1834 C1835 1.372 . S
C1835 C1834 1.372 . S
C1835 C1836 1.400 . S
C1835 C1840 1.490 . S
C1836 H1826 0.930 . S
C1836 C1835 1.400 . S
C1836 C1839 1.386 . S
H1837 C1853 0.930 . S
H1838 C1854 0.931 . S
C1839 H1827 0.929 . S
C1839 C1833 1.390 . S
C1839 C1836 1.386 . S
C1840 C1835 1.490 . S
C1840 C1842 1.395 . S
C1840 C1843 1.403 . S
H1841 C1847 0.930 . S
C1842 H1828 0.930 . S
C1842 C1840 1.395 . S
C1842 C1845 1.403 . S
C1843 C1840 1.403 . S
C1843 C1844 1.524 . S
C1843 C1847 1.400 . S
C1844 H1829 0.960 . S
C1844 H1830 0.960 . S
C1844 H1831 0.960 . S
C1844 C1843 1.524 . S
C1845 C1842 1.403 . S
C1845 C1846 1.392 . S
C1845 C1849 1.495 . S
C1846 C1845 1.392 . S
C1846 C1847 1.385 . S
C1846 C1848 1.478 . S
C1847 H1841 0.930 . S
C1847 C1843 1.400 . S
C1847 C1846 1.385 . S
C1848 C1846 1.478 . S
C1848 C1850 1.381 . S
C1848 C1854 1.383 . S
C1849 C1845 1.495 . S
C1849 H1855 0.959 . S
C1849 H1856 0.961 . S
C1849 H1857 0.960 . S
C1850 C1848 1.381 . S
C1850 C1851 1.394 . S
C1850 H1858 0.930 . S
C1851 C1850 1.394 . S
C1851 C1852 1.383 . S
C1851 H1859 0.929 . S
C1852 C1851 1.383 . S
C1852 C1853 1.377 . S
C1853 H1837 0.930 . S
C1853 C1852 1.377 . S
C1853 C1854 1.379 . S
C1854 H1838 0.931 . S
C1854 C1848 1.383 . S
C1854 C1853 1.379 . S
H1855 C1849 0.959 . S
H1856 C1849 0.961 . S
H1857 C1849 0.960 . S
H1858 C1850 0.930 . S
H1859 C1851 0.929 . S
H1860 C1868 0.929 . S
H1861 C1870 0.930 . S
H1862 C1872 0.930 . S
H1863 C1875 0.929 . S
H1864 C1878 0.930 . S
H1865 C1880 0.960 . S
H1866 C1880 0.960 . S
H1867 C1880 0.960 . S
C1868 H1860 0.929 . S
C1868 C1869 1.377 . S
C1868 C1870 1.384 . S
C1869 C1868 1.377 . S
C1869 C1875 1.390 . S
C1870 H1861 0.930 . S
C1870 C1868 1.384 . S
C1870 C1871 1.372 . S
C1871 C1870 1.372 . S
C1871 C1872 1.400 . S
C1871 C1876 1.490 . S
C1872 H1862 0.930 . S
C1872 C1871 1.400 . S
C1872 C1875 1.386 . S
H1873 C1889 0.930 . S
H1874 C1890 0.931 . S
C1875 H1863 0.929 . S
C1875 C1869 1.390 . S
C1875 C1872 1.386 . S
C1876 C1871 1.490 . S
C1876 C1878 1.395 . S
C1876 C1879 1.403 . S
H1877 C1883 0.930 . S
C1878 H1864 0.930 . S
C1878 C1876 1.395 . S
C1878 C1881 1.403 . S
C1879 C1876 1.403 . S
C1879 C1880 1.524 . S
C1879 C1883 1.400 . S
C1880 H1865 0.960 . S
C1880 H1866 0.960 . S
C1880 H1867 0.960 . S
C1880 C1879 1.524 . S
C1881 C1878 1.403 . S
C1881 C1882 1.392 . S
C1881 C1885 1.495 . S
C1882 C1881 1.392 . S
C1882 C1883 1.385 . S
C1882 C1884 1.478 . S
C1883 H1877 0.930 . S
C1883 C1879 1.400 . S
C1883 C1882 1.385 . S
C1884 C1882 1.478 . S
C1884 C1886 1.381 . S
C1884 C1890 1.383 . S
C1885 C1881 1.495 . S
C1885 H1891 0.959 . S
C1885 H1892 0.961 . S
C1885 H1893 0.960 . S
C1886 C1884 1.381 . S
C1886 C1887 1.394 . S
C1886 H1894 0.930 . S
C1887 C1886 1.394 . S
C1887 C1888 1.383 . S
C1887 H1895 0.929 . S
C1888 C1887 1.383 . S
C1888 C1889 1.377 . S
C1889 H1873 0.930 . S
C1889 C1888 1.377 . S
C1889 C1890 1.379 . S
C1890 H1874 0.931 . S
C1890 C1884 1.383 . S
C1890 C1889 1.379 . S
H1891 C1885 0.959 . S
H1892 C1885 0.961 . S
H1893 C1885 0.960 . S
H1894 C1886 0.930 . S
H1895 C1887 0.929 . S
H1896 C1904 0.929 . S
H1897 C1906 0.930 . S
H1898 C1908 0.930 . S
H1899 C1911 0.929 . S
H1900 C1914 0.930 . S
H1901 C1916 0.960 . S
H1902 C1916 0.960 . S
H1903 C1916 0.960 . S
C1904 H1896 0.929 . S
C1904 C1905 1.377 . S
C1904 C1906 1.384 . S
C1905 C1904 1.377 . S
C1905 C1911 1.390 . S
C1906 H1897 0.930 . S
C1906 C1904 1.384 . S
C1906 C1907 1.372 . S
C1907 C1906 1.372 . S
C1907 C1908 1.400 . S
C1907 C1912 1.490 . S
C1908 H1898 0.930 . S
C1908 C1907 1.400 . S
C1908 C1911 1.386 . S
H1909 C1925 0.930 . S
H1910 C1926 0.931 . S
C1911 H1899 0.929 . S
C1911 C1905 1.390 . S
C1911 C1908 1.386 . S
C1912 C1907 1.490 . S
C1912 C1914 1.395 . S
C1912 C1915 1.403 . S
H1913 C1919 0.930 . S
C1914 H1900 0.930 . S
C1914 C1912 1.395 . S
C1914 C1917 1.403 . S
C1915 C1912 1.403 . S
C1915 C1916 1.524 . S
C1915 C1919 1.400 . S
C1916 H1901 0.960 . S
C1916 H1902 0.960 . S
C1916 H1903 0.960 . S
C1916 C1915 1.524 . S
C1917 C1914 1.403 . S
C1917 C1918 1.392 . S
C1917 C1921 1.495 . S
C1918 C1917 1.392 . S
C1918 C1919 1.385 . S
C1918 C1920 1.478 . S
C1919 H1913 0.930 . S
C1919 C1915 1.400 . S
C1919 C1918 1.385 . S
C1920 C1918 1.478 . S
C1920 C1922 1.381 . S
C1920 C1926 1.383 . S
C1921 C1917 1.495 . S
C1921 H1927 0.959 . S
C1921 H1928 0.961 . S
C1921 H1929 0.960 . S
C1922 C1920 1.381 . S
C1922 C1923 1.394 . S
C1922 H1930 0.930 . S
C1923 C1922 1.394 . S
C1923 C1924 1.383 . S
C1923 H1931 0.929 . S
C1924 C1923 1.383 . S
C1924 C1925 1.377 . S
C1925 H1909 0.930 . S
C1925 C1924 1.377 . S
C1925 C1926 1.379 . S
C1926 H1910 0.931 . S
C1926 C1920 1.383 . S
C1926 C1925 1.379 . S
H1927 C1921 0.959 . S
H1928 C1921 0.961 . S
H1929 C1921 0.960 . S
H1930 C1922 0.930 . S
H1931 C1923 0.929 . S
H1932 C1940 0.929 . S
H1933 C1942 0.930 . S
H1934 C1944 0.930 . S
H1935 C1947 0.929 . S
H1936 C1950 0.930 . S
H1937 C1952 0.960 . S
H1938 C1952 0.960 . S
H1939 C1952 0.960 . S
C1940 H1932 0.929 . S
C1940 C1941 1.377 . S
C1940 C1942 1.384 . S
C1941 C1940 1.377 . S
C1941 C1947 1.390 . S
C1942 H1933 0.930 . S
C1942 C1940 1.384 . S
C1942 C1943 1.372 . S
C1943 C1942 1.372 . S
C1943 C1944 1.400 . S
C1943 C1948 1.490 . S
C1944 H1934 0.930 . S
C1944 C1943 1.400 . S
C1944 C1947 1.386 . S
H1945 C1961 0.930 . S
H1946 C1962 0.931 . S
C1947 H1935 0.929 . S
C1947 C1941 1.390 . S
C1947 C1944 1.386 . S
C1948 C1943 1.490 . S
C1948 C1950 1.395 . S
C1948 C1951 1.403 . S
H1949 C1955 0.930 . S
C1950 H1936 0.930 . S
C1950 C1948 1.395 . S
C1950 C1953 1.403 . S
C1951 C1948 1.403 . S
C1951 C1952 1.524 . S
C1951 C1955 1.400 . S
C1952 H1937 0.960 . S
C1952 H1938 0.960 . S
C1952 H1939 0.960 . S
C1952 C1951 1.524 . S
C1953 C1950 1.403 . S
C1953 C1954 1.392 . S
C1953 C1957 1.495 . S
C1954 C1953 1.392 . S
C1954 C1955 1.385 . S
C1954 C1956 1.478 . S
C1955 H1949 0.930 . S
C1955 C1951 1.400 . S
C1955 C1954 1.385 . S
C1956 C1954 1.478 . S
C1956 C1958 1.381 . S
C1956 C1962 1.383 . S
C1957 C1953 1.495 . S
C1957 H1963 0.959 . S
C1957 H1964 0.961 . S
C1957 H1965 0.960 . S
C1958 C1956 1.381 . S
C1958 C1959 1.394 . S
C1958 H1966 0.930 . S
C1959 C1958 1.394 . S
C1959 C1960 1.383 . S
C1959 H1967 0.929 . S
C1960 C1959 1.383 . S
C1960 C1961 1.377 . S
C1961 H1945 0.930 . S
C1961 C1960 1.377 . S
C1961 C1962 1.379 . S
C1962 H1946 0.931 . S
C1962 C1956 1.383 . S
C1962 C1961 1.379 . S
H1963 C1957 0.959 . S
H1964 C1957 0.961 . S
H1965 C1957 0.960 . S
H1966 C1958 0.930 . S
H1967 C1959 0.929 . S
C537 N398 1.426 . S
C556 N13 1.405 . S
C573 N46 1.393 . S
C592 N431 1.410 . S
C609 N68 1.412 . S
C628 N475 1.394 . S
C645 N112 1.394 . S
C664 N497 1.419 . S
C681 N266 1.381 . S
C700 N145 1.398 . S
C717 N310 1.412 . S
C736 N167 1.393 . S
C753 N200 1.370 . S
C772 N343 1.371 . S
C789 N376 1.417 . S
C808 N233 1.399 . S
C825 C21 1.028 . S
C844 C483 1.027 . S
C861 C516 1.078 . S
C880 C54 1.079 . S
C897 C417 1.039 . S
C916 C87 1.035 . S
C933 C450 1.072 . S
C952 C120 1.068 . S
C969 C351 1.019 . S
C988 C153 1.017 . S
C1005 C384 0.982 . S
C1024 C186 0.983 . S
C1041 C285 1.031 . S
C1060 C219 1.031 . S
C1077 C318 0.988 . S
C1096 C252 0.992 . S
C1113 C7 1.099 . S
C1132 C348 1.108 . S
C1149 C381 1.098 . S
C1168 C40 1.088 . S
C1185 C271 1.110 . S
C1204 C84 1.139 . S
C1221 C315 1.156 . S
C1240 C106 1.164 . S
C1257 C139 1.092 . S
C1276 C480 1.162 . S
C1293 C183 1.134 . S
C1312 C502 1.124 . S
C1329 C403 1.109 . S
C1348 C216 1.138 . S
C1365 C249 1.065 . S
C1384 C436 1.077 . S
C1401 N409 1.795 . S
C1420 N2 1.782 . S
C1437 N35 1.827 . S
C1456 N442 1.825 . S
C1473 N79 1.798 . S
C1492 N464 1.773 . S
C1509 N508 1.832 . S
C1528 N101 1.815 . S
C1545 N277 1.875 . S
C1564 N134 1.866 . S
C1581 N178 1.834 . S
C1600 N299 1.819 . S
C1617 N332 1.871 . S
C1636 N211 1.888 . S
C1653 N365 1.840 . S
C1672 N244 1.856 . S
C1689 C172 1.202 . S
C1708 C18 1.252 . S
C1725 C205 1.269 . S
C1744 C51 1.304 . S
C1761 C73 1.212 . S
C1780 C238 1.238 . S
C1797 C150 1.272 . S
C1816 C117 1.287 . S
C1833 C282 1.082 . S
C1852 C447 1.066 . S
C1869 C469 1.092 . S
C1888 C304 1.121 . S
C1905 C513 1.136 . S
C1924 C337 1.145 . S
C1941 C370 1.042 . S
C1960 C414 1.072 . S
