# Generated by pormake.
# Topology smc, (6)-cn, num edge types: 1
# Building blocks:
#     Node 0, Type 0, BuildingBlock: UKALOJ_clean_sbu_0, # of connection points: 6
#     Node 1, Type 0, BuildingBlock: UKALOJ_clean_sbu_0, # of connection points: 6
#     Node 2, Type 0, BuildingBlock: UKALOJ_clean_sbu_0, # of connection points: 6
#     Node 3, Type 0, BuildingBlock: UKALOJ_clean_sbu_0, # of connection points: 6
#     Node 4, Type 0, BuildingBlock: UKALOJ_clean_sbu_0, # of connection points: 6
#     Node 5, Type 0, BuildingBlock: UKALOJ_clean_sbu_0, # of connection points: 6
#     Node 6, Type 0, BuildingBlock: UKALOJ_clean_sbu_0, # of connection points: 6
#     Node 7, Type 0, BuildingBlock: UKALOJ_clean_sbu_0, # of connection points: 6
#     Node 8, Type 0, BuildingBlock: UKALOJ_clean_sbu_0, # of connection points: 6
#     Edge 9, Type (0, 0), BuildingBlock: XIVTED_clean_linker_0, # of connection points: 2
#     Edge 10, Type (0, 0), BuildingBlock: XIVTED_clean_linker_0, # of connection points: 2
#     Edge 11, Type (0, 0), BuildingBlock: XIVTED_clean_linker_0, # of connection points: 2
#     Edge 12, Type (0, 0), BuildingBlock: XIVTED_clean_linker_0, # of connection points: 2
#     Edge 13, Type (0, 0), BuildingBlock: XIVTED_clean_linker_0, # of connection points: 2
#     Edge 14, Type (0, 0), BuildingBlock: XIVTED_clean_linker_0, # of connection points: 2
#     Edge 15, Type (0, 0), BuildingBlock: XIVTED_clean_linker_0, # of connection points: 2
#     Edge 16, Type (0, 0), BuildingBlock: XIVTED_clean_linker_0, # of connection points: 2
#     Edge 17, Type (0, 0), BuildingBlock: XIVTED_clean_linker_0, # of connection points: 2
#     Edge 18, Type (0, 0), BuildingBlock: XIVTED_clean_linker_0, # of connection points: 2
#     Edge 19, Type (0, 0), BuildingBlock: XIVTED_clean_linker_0, # of connection points: 2
#     Edge 20, Type (0, 0), BuildingBlock: XIVTED_clean_linker_0, # of connection points: 2
#     Edge 21, Type (0, 0), BuildingBlock: XIVTED_clean_linker_0, # of connection points: 2
#     Edge 22, Type (0, 0), BuildingBlock: XIVTED_clean_linker_0, # of connection points: 2
#     Edge 23, Type (0, 0), BuildingBlock: XIVTED_clean_linker_0, # of connection points: 2
#     Edge 24, Type (0, 0), BuildingBlock: XIVTED_clean_linker_0, # of connection points: 2
#     Edge 25, Type (0, 0), BuildingBlock: XIVTED_clean_linker_0, # of connection points: 2
#     Edge 26, Type (0, 0), BuildingBlock: XIVTED_clean_linker_0, # of connection points: 2
#     Edge 27, Type (0, 0), BuildingBlock: XIVTED_clean_linker_0, # of connection points: 2
#     Edge 28, Type (0, 0), BuildingBlock: XIVTED_clean_linker_0, # of connection points: 2
#     Edge 29, Type (0, 0), BuildingBlock: XIVTED_clean_linker_0, # of connection points: 2
#     Edge 30, Type (0, 0), BuildingBlock: XIVTED_clean_linker_0, # of connection points: 2
#     Edge 31, Type (0, 0), BuildingBlock: XIVTED_clean_linker_0, # of connection points: 2
#     Edge 32, Type (0, 0), BuildingBlock: XIVTED_clean_linker_0, # of connection points: 2
#     Edge 33, Type (0, 0), BuildingBlock: XIVTED_clean_linker_0, # of connection points: 2
#     Edge 34, Type (0, 0), BuildingBlock: XIVTED_clean_linker_0, # of connection points: 2
#     Edge 35, Type (0, 0), BuildingBlock: XIVTED_clean_linker_0, # of connection points: 2
# Relax obj value: 0.106
# Max RMSD: 0.212
# Mean RMSD: 0.212
data_MOF--net-smc--node1-UKALOJ_clean_sbu_0--edge1-XIVTED_clean_linker_0
_symmetry_space_group_name_H-M    P1
_symmetry_Int_Tables_number       1
_symmetry_cell_setting            triclinic
loop_
_symmetry_equiv_pos_as_xyz
'x, y, z'
_cell_length_a     28.284178
_cell_length_b     28.263815
_cell_length_c     60.069536
_cell_angle_alpha  89.98577
_cell_angle_beta   90.005195
_cell_angle_gamma 120.00273
loop_
_atom_site_label
_atom_site_type_symbol
_atom_site_fract_x
_atom_site_fract_y
_atom_site_fract_z
_atom_type_partial_charge
Zn0 Zn 0.00753 0.42174 0.05601 0.0
O1 O 0.06661 0.50454 0.05813 0.0
C2 C 0.09054 0.39668 0.03993 0.0
Zn3 Zn 0.01121 0.42356 0.01877 0.0
C4 C 0.08512 0.53148 0.04022 0.0
O5 O 0.07042 0.50701 0.02158 0.0
C6 C 0.92834 0.31541 0.03496 0.0
O7 O 0.95205 0.44718 0.01659 0.0
O8 O 0.94827 0.44584 0.05314 0.0
N9 N 0.02171 0.4287 0.98476 0.0
C10 C 0.98783 0.40262 0.96756 0.0
C11 C 0.06668 0.45494 0.95388 0.0
N12 N 0.0706 0.46133 0.97616 0.0
N13 N 0.01518 0.41805 0.94802 0.0
C14 C 0.03069 0.42427 0.10725 0.0
C15 C 0.9518 0.39791 0.12083 0.0
N16 N -0.00305 0.41652 0.09001 0.0
N17 N 0.94803 0.40038 0.09855 0.0
N18 N 0.00323 0.41243 0.12675 0.0
H19 H 0.11272 0.47082 0.11986 0.0
H20 H 0.09825 0.41124 0.10395 0.0
H21 H 0.10703 0.4714 0.08985 0.0
C22 C 0.09078 0.44608 0.10505 0.0
C23 C 0.92772 0.36445 0.96982 0.0
H24 H 0.91163 0.3736 0.98504 0.0
H25 H 0.90574 0.36731 0.95504 0.0
H26 H 0.92011 0.32209 0.97093 0.0
O27 O 0.95011 0.3406 0.01696 0.0
O28 O 0.94651 0.33951 0.05345 0.0
C29 C 0.93354 0.45559 0.03451 0.0
O30 O 0.06868 0.40004 0.05791 0.0
O31 O 0.07237 0.40252 0.02141 0.0
Zn32 Zn 0.60057 0.60285 0.05623 0.0
O33 O 0.51776 0.57939 0.05834 0.0
C34 C 0.62585 0.71041 0.03942 0.0
Zn35 Zn 0.59822 0.6032 0.019 0.0
C36 C 0.4907 0.57038 0.04043 0.0
O37 O 0.515 0.57943 0.02179 0.0
C38 C 0.70646 0.62874 0.03517 0.0
O39 O 0.57426 0.52014 0.01739 0.0
O40 O 0.5763 0.51945 0.05396 0.0
N41 N 0.5928 0.60746 0.98496 0.0
C42 C 0.61895 0.59939 0.96787 0.0
C43 C 0.56695 0.62603 0.95395 0.0
N44 N 0.56033 0.62375 0.97621 0.0
N45 N 0.60379 0.61123 0.94825 0.0
C46 C 0.59823 0.62528 0.10727 0.0
C47 C 0.62512 0.57358 0.12132 0.0
N48 N 0.60608 0.59877 0.09026 0.0
N49 N 0.62256 0.56652 0.09909 0.0
N50 N 0.61033 0.6105 0.12692 0.0
H51 H 0.55085 0.65363 0.08947 0.0
H52 H 0.55113 0.6606 0.11943 0.0
H53 H 0.61064 0.70561 0.10348 0.0
C54 C 0.57604 0.66321 0.10471 0.0
C55 C 0.65696 0.5773 0.97033 0.0
H56 H 0.64757 0.55214 0.98559 0.0
H57 H 0.65423 0.55234 0.9556 0.0
H58 H 0.69931 0.61199 0.97147 0.0
O59 O 0.68102 0.62468 0.01717 0.0
O60 O 0.68268 0.62365 0.05368 0.0
C61 C 0.56613 0.49406 0.03554 0.0
O62 O 0.62259 0.68581 0.05757 0.0
O63 O 0.6196 0.68564 0.02107 0.0
Zn64 Zn 0.41864 0.01137 0.01887 0.0
O65 O 0.50133 0.07078 0.01686 0.0
C66 C 0.39312 0.09385 0.03514 0.0
Zn67 Zn 0.4205 0.01465 0.0561 0.0
C68 C 0.52828 0.0891 0.03478 0.0
O69 O 0.50386 0.07408 0.05341 0.0
C70 C 0.31248 0.93169 0.03978 0.0
O71 O 0.44429 0.9556 0.05813 0.0
O72 O 0.44308 0.95231 0.02157 0.0
N73 N 0.42539 0.02473 0.09013 0.0
C74 C 0.3991 0.99061 0.10724 0.0
C75 C 0.4509 0.06942 0.12109 0.0
N76 N 0.45772 0.0736 0.09883 0.0
N77 N 0.41406 0.01777 0.12683 0.0
C78 C 0.42178 0.03563 0.96776 0.0
C79 C 0.39551 0.95699 0.95387 0.0
N80 N 0.41375 0.00143 0.98486 0.0
N81 N 0.39766 0.95266 0.97614 0.0
N82 N 0.41018 0.00862 0.94815 0.0
H83 H 0.46869 0.11162 0.98546 0.0
H84 H 0.46866 0.11802 0.95547 0.0
H85 H 0.40891 0.10332 0.97127 0.0
C86 C 0.44366 0.09575 0.97018 0.0
C87 C 0.36116 0.93045 0.10485 0.0
H88 H 0.37066 0.91459 0.08965 0.0
H89 H 0.36385 0.90835 0.11963 0.0
H90 H 0.31881 0.92269 0.10363 0.0
O91 O 0.33761 0.95334 0.0578 0.0
O92 O 0.33659 0.95003 0.0213 0.0
C93 C 0.45285 0.9374 0.04016 0.0
O94 O 0.39649 0.0722 0.01712 0.0
O95 O 0.39927 0.07567 0.05361 0.0
Zn96 Zn 0.67289 0.75512 0.38985 0.0
O97 O 0.73204 0.83801 0.39186 0.0
C98 C 0.75567 0.73003 0.37358 0.0
Zn99 Zn 0.67614 0.75687 0.35263 0.0
C100 C 0.75027 0.86487 0.3739 0.0
O101 O 0.73529 0.84029 0.3553 0.0
C102 C 0.59352 0.64871 0.36893 0.0
O103 O 0.61691 0.7804 0.3506 0.0
O104 O 0.6136 0.7792 0.38716 0.0
N105 N 0.68623 0.76185 0.31861 0.0
C106 C 0.65214 0.73562 0.3015 0.0
C107 C 0.73088 0.78758 0.28765 0.0
N108 N 0.73505 0.79428 0.30991 0.0
N109 N 0.67928 0.75072 0.28191 0.0
C110 C 0.69693 0.75807 0.44098 0.0
C111 C 0.61824 0.73159 0.45481 0.0
N112 N 0.66285 0.75011 0.42386 0.0
N113 N 0.61405 0.73388 0.43254 0.0
N114 N 0.66981 0.7463 0.46057 0.0
H115 H 0.77295 0.80528 0.42337 0.0
H116 H 0.77917 0.80493 0.45336 0.0
H117 H 0.76465 0.74532 0.43746 0.0
C118 C 0.75703 0.78005 0.43861 0.0
C119 C 0.59202 0.6976 0.30389 0.0
H120 H 0.57616 0.70695 0.31912 0.0
H121 H 0.56992 0.70038 0.28913 0.0
H122 H 0.5843 0.65521 0.30504 0.0
O123 O 0.61513 0.67389 0.35092 0.0
O124 O 0.6118 0.67287 0.38741 0.0
C125 C 0.59862 0.78886 0.36856 0.0
O126 O 0.73398 0.73335 0.3916 0.0
O127 O 0.73734 0.73594 0.35511 0.0
Zn128 Zn 0.26457 0.93773 0.35238 0.0
O129 O 0.24064 0.8548 0.35016 0.0
C130 C 0.37175 0.96216 0.36925 0.0
Zn131 Zn 0.26473 0.93507 0.38963 0.0
C132 C 0.23137 0.8275 0.36803 0.0
O133 O 0.24042 0.85165 0.38672 0.0
C134 C 0.29107 0.04372 0.37358 0.0
O135 O 0.18188 0.91164 0.39118 0.0
O136 O 0.18128 0.91392 0.35462 0.0
N137 N 0.26871 0.92932 0.42367 0.0
C138 C 0.26073 0.95549 0.44078 0.0
C139 C 0.28681 0.903 0.45468 0.0
N140 N 0.28466 0.89654 0.43241 0.0
N141 N 0.27227 0.94004 0.4604 0.0
C142 C 0.28726 0.93577 0.30133 0.0
C143 C 0.23602 0.96322 0.2873 0.0
N144 N 0.26076 0.94361 0.31835 0.0
N145 N 0.22879 0.96044 0.30953 0.0
N146 N 0.27277 0.94823 0.28169 0.0
H147 H 0.31508 0.88784 0.31907 0.0
H148 H 0.32228 0.88844 0.28911 0.0
H149 H 0.36734 0.94772 0.30517 0.0
C150 C 0.3249 0.91326 0.30387 0.0
C151 C 0.239 -0.00618 0.43834 0.0
H152 H 0.21399 0.98468 0.42305 0.0
H153 H 0.21402 0.99114 0.45304 0.0
H154 H 0.27384 0.03611 0.43725 0.0
O155 O 0.28674 0.01808 0.39155 0.0
O156 O 0.28588 0.02 0.35504 0.0
C157 C 0.15589 0.90378 0.37304 0.0
O158 O 0.34734 0.95923 0.3511 0.0
O159 O 0.34695 0.95592 0.38759 0.0
Zn160 Zn 0.08557 0.34818 0.38918 0.0
O161 O 0.10933 0.28913 0.39149 0.0
C162 C 0.97768 0.26511 0.3729 0.0
Zn163 Zn 0.08409 0.34444 0.35195 0.0
C164 C 0.11795 0.27061 0.37362 0.0
O165 O 0.10831 0.28525 0.35494 0.0
C166 C 0.05862 0.42732 0.36789 0.0
O167 O 0.16684 0.40366 0.34993 0.0
O168 O 0.16894 0.40753 0.38648 0.0
N169 N 0.07921 0.33384 0.31795 0.0
C170 C 0.087 0.3676 0.30071 0.0
C171 C 0.06089 0.2887 0.28713 0.0
N172 N 0.06322 0.28491 0.30942 0.0
N173 N 0.07534 0.34015 0.2812 0.0
C174 C 0.06412 0.32473 0.44034 0.0
C175 C 0.11579 0.40371 0.45407 0.0
N176 N 0.09034 0.35869 0.42319 0.0
N177 N 0.12258 0.40768 0.43181 0.0
N178 N 0.07904 0.35209 0.45989 0.0
H179 H 0.03576 0.24854 0.42288 0.0
H180 H 0.02911 0.2426 0.45287 0.0
H181 H 0.98388 0.25663 0.43685 0.0
C182 C 0.02629 0.26451 0.43805 0.0
C183 C 0.10868 0.42772 0.30289 0.0
H184 H 0.1339 0.44401 0.31811 0.0
H185 H 0.13345 0.44972 0.2881 0.0
H186 H 0.0738 0.4351 0.30396 0.0
O187 O 0.06226 0.40553 0.34994 0.0
O188 O 0.06437 0.4092 0.38643 0.0
C189 C 0.19358 0.42222 0.36788 0.0
O190 O 0.00271 0.28695 0.39091 0.0
O191 O 0.00191 0.28325 0.35442 0.0
Zn192 Zn 0.34266 0.08903 0.68607 0.0
O193 O 0.28321 0.11238 0.68387 0.0
C194 C 0.26061 0.98162 0.70311 0.0
Zn195 Zn 0.34022 0.08906 0.7233 0.0
C196 C 0.26531 0.12156 0.70178 0.0
O197 O 0.28078 0.11275 0.72043 0.0
C198 C 0.42287 0.06349 0.70726 0.0
O199 O 0.39932 0.17223 0.72469 0.0
O200 O 0.40167 0.17246 0.68812 0.0
N201 N 0.33075 0.08542 0.75733 0.0
C202 C 0.365 0.09377 0.77444 0.0
C203 C 0.28651 0.06785 0.78835 0.0
N204 N 0.28208 0.06957 0.76607 0.0
N205 N 0.33811 0.08258 0.79407 0.0
C206 C 0.31759 0.0659 0.63506 0.0
C207 C 0.39608 0.11741 0.62091 0.0
N208 N 0.35203 0.09257 0.65202 0.0
N209 N 0.4007 0.12469 0.64314 0.0
N210 N 0.34435 0.08046 0.61537 0.0
H211 H 0.24201 0.03773 0.65294 0.0
H212 H 0.23512 0.03062 0.62298 0.0
H213 H 0.24966 0.98563 0.63893 0.0
C214 C 0.25749 0.02805 0.63768 0.0
C215 C 0.42504 0.11555 0.77198 0.0
H216 H 0.44083 0.1405 0.75666 0.0
H217 H 0.44739 0.14065 0.78666 0.0
H218 H 0.43253 0.08072 0.77092 0.0
O219 O 0.4015 0.0676 0.72524 0.0
O220 O 0.4041 0.06841 0.68873 0.0
C221 C 0.41706 0.19808 0.70649 0.0
O222 O 0.28186 0.00604 0.68493 0.0
O223 O 0.27918 0.00659 0.72143 0.0
Zn224 Zn 0.93169 0.27119 0.68567 0.0
O225 O 0.90766 0.18822 0.68334 0.0
C226 C 0.03904 0.29553 0.70224 0.0
Zn227 Zn 0.93228 0.26852 0.72291 0.0
C228 C 0.89862 0.16095 0.7012 0.0
O229 O 0.90792 0.18513 0.71989 0.0
C230 C 0.95848 0.37717 0.70701 0.0
O231 O 0.84942 0.24513 0.72469 0.0
O232 O 0.84849 0.24747 0.68813 0.0
N233 N 0.93669 0.26256 0.75694 0.0
C234 C 0.92914 0.28871 0.77417 0.0
C235 C 0.95465 0.23549 0.78778 0.0
N236 N 0.9523 0.22935 0.7655 0.0
N237 N 0.9406 0.27277 0.7937 0.0
C238 C 0.95377 0.26953 0.63454 0.0
C239 C 0.90231 0.29698 0.62074 0.0
N240 N 0.92743 0.27721 0.65166 0.0
N241 N 0.89532 0.29404 0.64298 0.0
N242 N 0.93904 0.28209 0.61497 0.0
H243 H 0.98183 0.22151 0.65205 0.0
H244 H -0.0112 0.22242 0.62206 0.0
H245 H 0.03392 0.28158 0.63818 0.0
C246 C -0.0085 0.24707 0.63689 0.0
C247 C 0.90789 0.32748 0.77196 0.0
H248 H 0.88324 0.32494 0.78676 0.0
H249 H 0.94298 0.36964 0.77086 0.0
H250 H 0.88267 0.31863 0.75675 0.0
O251 O 0.95434 0.35149 0.72495 0.0
O252 O 0.95312 0.35349 0.68845 0.0
C253 C 0.82327 0.23733 0.70659 0.0
O254 O 0.0144 0.29259 0.68416 0.0
O255 O 0.01449 0.28934 0.72065 0.0
Zn256 Zn 0.75234 0.68107 0.7227 0.0
O257 O 0.77583 0.62177 0.72497 0.0
C258 C 0.64463 0.59839 0.70615 0.0
Zn259 Zn 0.75143 0.67769 0.68548 0.0
C260 C 0.78469 0.60344 0.7071 0.0
O261 O 0.77541 0.61837 0.68843 0.0
C262 C 0.72603 0.76066 0.70144 0.0
O263 O 0.83426 0.7368 0.68369 0.0
O264 O 0.8358 0.74024 0.72025 0.0
N265 N 0.747 0.66747 0.65148 0.0
C266 C 0.75502 0.70142 0.63427 0.0
C267 C 0.72887 0.62262 0.62059 0.0
N268 N 0.73099 0.61861 0.64287 0.0
N269 N 0.74348 0.67415 0.61473 0.0
C270 C 0.73016 0.65662 0.77374 0.0
C271 C 0.78144 0.73537 0.78775 0.0
N272 N 0.75655 0.69099 0.75671 0.0
N273 N 0.78854 0.73982 0.76551 0.0
N274 N 0.74474 0.68358 0.79338 0.0
H275 H 0.70222 0.58082 0.75601 0.0
H276 H 0.69534 0.57425 0.78598 0.0
H277 H 0.65007 0.58833 0.77001 0.0
C278 C 0.69254 0.59641 0.77124 0.0
C279 C 0.77679 0.76154 0.63655 0.0
H280 H 0.80187 0.77764 0.65181 0.0
H281 H 0.80173 0.78363 0.6218 0.0
H282 H 0.74196 0.769 0.63758 0.0
O283 O 0.7298 0.73893 0.68349 0.0
O284 O 0.73149 0.74236 0.71999 0.0
C285 C 0.86074 0.7551 0.70172 0.0
O286 O 0.66939 0.6201 0.72422 0.0
O287 O 0.66919 0.61659 0.68774 0.0
H288 H 0.42431 0.53695 0.07713 0.0
H289 H 0.15171 0.39741 1.00459 0.0
H290 H 0.42025 0.53663 1.00523 0.0
H291 H 0.15294 0.40542 0.07635 0.0
H292 H 0.24995 0.43374 1.00503 0.0
H293 H 0.32493 0.47979 0.07756 0.0
C294 C 0.40251 0.52537 0.06144 0.0
C295 C 0.43059 0.54193 0.04111 0.0
C296 C 0.22863 0.42685 0.02072 0.0
C297 C 0.31716 0.47559 0.04149 0.0
C298 C 0.17236 0.40551 0.02051 0.0
C299 C 0.14424 0.39996 0.04047 0.0
C300 C 0.25691 0.44283 0.04103 0.0
C301 C 0.17309 0.41032 0.06056 0.0
C302 C 0.34585 0.49226 0.0617 0.0
C303 C 0.4003 0.52519 0.0213 0.0
N304 N 0.22814 0.43241 0.06032 0.0
N305 N 0.34524 0.49294 0.022 0.0
H306 H 0.48809 0.90571 0.07667 0.0
H307 H 0.62269 0.76859 1.00367 0.0
H308 H 0.48525 0.89987 1.00479 0.0
H309 H 0.6206 0.76704 0.07552 0.0
H310 H 0.5868 0.8309 1.00403 0.0
H311 H 0.54539 0.86366 0.0768 0.0
C312 C 0.49902 0.89507 0.06092 0.0
C313 C 0.4815 0.90593 0.04069 0.0
C314 C 0.5949 0.81755 0.01975 0.0
C315 C 0.54798 0.85898 0.04072 0.0
C316 C 0.61598 0.78236 0.01957 0.0
C317 C 0.62297 0.7611 0.03963 0.0
C318 C 0.58062 0.83136 0.04012 0.0
C319 C 0.61441 0.78116 0.05967 0.0
C320 C 0.53222 0.87162 0.06101 0.0
C321 C 0.49743 0.89186 0.02079 0.0
N322 N 0.59252 0.81431 0.05943 0.0
N323 N 0.52976 0.86911 0.02132 0.0
H324 H 0.25258 0.87066 1.00431 0.0
H325 H 0.11758 0.59795 0.07687 0.0
H326 H 0.25785 0.86934 0.0761 0.0
H327 H 0.12225 0.6019 1.00498 0.0
H328 H 0.15989 0.69738 0.07724 0.0
H329 H 0.19029 0.77242 1.00468 0.0
C330 C 0.23965 0.85 0.02021 0.0
C331 C 0.26192 0.87806 0.04021 0.0
C332 C 0.15162 0.67643 0.0614 0.0
C333 C 0.19166 0.76541 0.0407 0.0
C334 C 0.12801 0.61974 0.06117 0.0
C335 C 0.11675 0.59162 0.04086 0.0
C336 C 0.16398 0.70512 0.04118 0.0
C337 C 0.13058 0.62189 0.02103 0.0
C338 C 0.20447 0.79372 0.02039 0.0
C339 C 0.2429 0.84921 0.06028 0.0
N340 N 0.15346 0.677 0.0217 0.0
N341 N 0.20972 0.79416 0.06002 0.0
H342 H 0.39622 0.15418 0.99877 0.0
H343 H 0.53495 0.42588 0.07144 0.0
H344 H 0.39849 0.15677 0.07062 0.0
H345 H 0.52985 0.4253 0.99956 0.0
H346 H 0.47786 0.32688 0.07132 0.0
H347 H 0.43287 0.25272 0.99861 0.0
C348 C 0.4032 0.17516 0.01451 0.0
C349 C 0.39605 0.14743 0.03471 0.0
C350 C 0.48916 0.34834 0.05555 0.0
C351 C 0.43862 0.26014 0.03467 0.0
C352 C 0.52231 0.40489 0.0556 0.0
C353 C 0.53755 0.4339 0.03547 0.0
C354 C 0.47123 0.32043 0.03523 0.0
C355 C 0.51943 0.40452 0.01547 0.0
C356 C 0.42451 0.23156 0.01441 0.0
C357 C 0.40453 0.17662 0.05461 0.0
N358 N 0.48725 0.3493 0.01586 0.0
N359 N 0.42646 0.2316 0.05409 0.0
H360 H 0.59456 0.12227 0.99808 0.0
H361 H 0.86744 0.25497 0.07037 0.0
H362 H 0.59881 0.12551 0.06997 0.0
H363 H 0.86575 0.26154 0.9986 0.0
H364 H 0.76919 0.19305 0.07004 0.0
H365 H 0.69387 0.16431 0.99759 0.0
C366 C 0.61639 0.13235 0.01375 0.0
C367 C 0.58838 0.12073 0.0341 0.0
C368 C 0.79041 0.20742 0.05432 0.0
C369 C 0.70177 0.16766 0.03364 0.0
C370 C 0.84669 0.24237 0.05447 0.0
C371 C 0.87468 0.2649 0.03448 0.0
C372 C 0.76201 0.19509 0.03405 0.0
C373 C 0.84571 0.24634 0.01442 0.0
C374 C 0.67302 0.1558 0.01346 0.0
C375 C 0.61872 0.13412 0.05389 0.0
N376 N 0.79066 0.21337 0.01472 0.0
N377 N 0.67377 0.15685 0.05316 0.0
H378 H 0.90126 0.48993 0.99788 0.0
H379 H 0.76608 0.62704 0.07064 0.0
H380 H 0.89615 0.48845 0.06977 0.0
H381 H 0.76114 0.62121 0.99884 0.0
H382 H 0.82818 0.59092 0.07021 0.0
H383 H 0.8589 0.54698 0.99758 0.0
C384 C 0.89071 0.5011 0.01359 0.0
C385 C 0.90188 0.48405 0.03388 0.0
C386 C 0.8141 0.59822 0.05451 0.0
C387 C 0.8546 0.55025 0.03365 0.0
C388 C 0.77904 0.61944 0.05472 0.0
C389 C 0.75691 0.6255 0.03473 0.0
C390 C 0.82695 0.58288 0.03417 0.0
C391 C 0.77595 0.61579 0.01465 0.0
C392 C 0.86708 0.53414 0.01341 0.0
C393 C 0.88791 0.50026 0.05373 0.0
N394 N 0.80903 0.59382 0.01487 0.0
N395 N 0.86501 0.53246 0.0531 0.0
H396 H 0.81626 0.73378 0.40994 0.0
H397 H 0.08772 0.87287 0.33715 0.0
H398 H 0.81867 0.73576 0.33809 0.0
H399 H 0.08722 0.86773 0.40903 0.0
H400 H -0.01125 0.8159 0.33731 0.0
H401 H 0.91479 0.7709 0.41006 0.0
C402 C 0.8372 0.74079 0.39419 0.0
C403 C 0.8094 0.73337 0.374 0.0
C404 C 0.01022 0.82718 0.35306 0.0
C405 C 0.92211 0.77651 0.37399 0.0
C406 C 0.06675 0.86027 0.353 0.0
C407 C 0.09578 0.87542 0.37312 0.0
C408 C 0.98237 0.80924 0.3734 0.0
C409 C 0.06643 0.85736 0.39313 0.0
C410 C 0.8936 0.76238 0.39427 0.0
C411 C 0.83856 0.74196 0.35409 0.0
N412 N 0.01125 0.82523 0.39276 0.0
N413 N 0.89354 0.76416 0.35459 0.0
H414 H 0.15177 0.23828 0.41038 0.0
H415 H 0.29085 0.10428 0.33815 0.0
H416 H 0.15172 0.23369 0.3385 0.0
H417 H 0.28284 0.09798 0.40992 0.0
H418 H 0.25492 0.16657 0.33847 0.0
H419 H 0.20908 0.19622 0.41091 0.0
C420 C 0.16331 0.22791 0.39472 0.0
C421 C 0.14658 0.23912 0.37436 0.0
C422 C 0.26172 0.15216 0.35419 0.0
C423 C 0.21308 0.1922 0.37486 0.0
C424 C 0.28283 0.117 0.35405 0.0
C425 C 0.28818 0.0944 0.37405 0.0
C426 C 0.24578 0.16464 0.37447 0.0
C427 C 0.27797 0.11315 0.3941 0.0
C428 C 0.19651 0.20445 0.39504 0.0
C429 C 0.16327 0.22539 0.35459 0.0
N430 N 0.2561 0.14632 0.3938 0.0
N431 N 0.19561 0.20267 0.35534 0.0
H432 H 0.91791 0.20372 0.33746 0.0
H433 H 0.78281 0.93169 0.41046 0.0
H434 H 0.92295 0.20312 0.40927 0.0
H435 H 0.78731 0.93498 0.33857 0.0
H436 H 0.82516 0.03113 0.41068 0.0
H437 H 0.85561 0.10549 0.33798 0.0
C438 C 0.90492 0.18322 0.3534 0.0
C439 C 0.92712 0.21148 0.37337 0.0
C440 C 0.81685 0.01003 0.39487 0.0
C441 C 0.85687 0.09883 0.37402 0.0
C442 C 0.79321 0.95334 0.39473 0.0
C443 C 0.78189 0.92502 0.37447 0.0
C444 C 0.82916 0.03854 0.3746 0.0
C445 C 0.79568 0.95511 0.35459 0.0
C446 C 0.86974 0.12694 0.35366 0.0
C447 C 0.90804 0.18283 0.39348 0.0
N448 N 0.81858 0.01023 0.35517 0.0
N449 N 0.87487 0.12777 0.3933 0.0
H450 H 0.19863 0.76156 0.3312 0.0
H451 H 0.0578 0.48788 0.40318 0.0
H452 H 0.19658 0.75655 0.40309 0.0
H453 H 0.06814 0.49008 0.33146 0.0
H454 H 0.09362 0.58612 0.40286 0.0
H455 H 0.14148 0.66212 0.33054 0.0
C456 C 0.18665 0.73954 0.34684 0.0
C457 C 0.20276 0.76736 0.36724 0.0
C458 C 0.08734 0.56501 0.38715 0.0
C459 C 0.13645 0.65387 0.36658 0.0
C460 C 0.0663 0.50873 0.38729 0.0
C461 C 0.06157 0.48091 0.36732 0.0
C462 C 0.10385 0.59357 0.36691 0.0
C463 C 0.07241 0.51 0.34727 0.0
C464 C 0.15356 0.68285 0.34644 0.0
C465 C 0.18552 0.7368 0.38698 0.0
N466 N 0.0942 0.56505 0.34758 0.0
N467 N 0.1533 0.68171 0.38614 0.0
H468 H 0.26042 0.45431 0.33135 0.0
H469 H 0.53208 0.58915 0.40441 0.0
H470 H 0.26356 0.45952 0.40323 0.0
H471 H 0.53164 0.59365 0.33259 0.0
H472 H 0.43388 0.52706 0.4039 0.0
H473 H 0.35975 0.4963 0.33118 0.0
C474 C 0.28202 0.46481 0.34709 0.0
C475 C 0.25369 0.45378 0.36734 0.0
C476 C 0.45536 0.54103 0.38821 0.0
C477 C 0.36707 0.50063 0.36725 0.0
C478 C 0.51162 0.57608 0.38847 0.0
C479 C 0.53992 0.59811 0.36849 0.0
C480 C 0.42731 0.5281 0.36785 0.0
C481 C 0.51131 0.57892 0.34839 0.0
C482 C 0.33865 0.48822 0.34697 0.0
C483 C 0.28372 0.46767 0.38722 0.0
N484 N 0.45628 0.54587 0.34857 0.0
N485 N 0.33877 0.49036 0.38667 0.0
H486 H 0.4296 0.95856 0.40501 0.0
H487 H 0.56678 0.82392 0.33204 0.0
H488 H 0.42817 0.95655 0.33317 0.0
H489 H 0.56079 0.82097 0.40392 0.0
H490 H 0.52452 0.88105 0.3319 0.0
H491 H 0.49165 0.92238 0.40466 0.0
C492 C 0.44334 0.9518 0.38912 0.0
C493 C 0.42221 0.95894 0.36906 0.0
C494 C 0.53249 0.86788 0.34769 0.0
C495 C 0.49217 0.91625 0.36858 0.0
C496 C 0.55605 0.83478 0.34778 0.0
C497 C 0.56696 0.81731 0.36803 0.0
C498 C 0.51977 0.88359 0.36798 0.0
C499 C 0.55277 0.83314 0.38792 0.0
C500 C 0.47837 0.93055 0.38894 0.0
C501 C 0.44222 0.95029 0.34901 0.0
N502 N 0.52991 0.86538 0.38738 0.0
N503 N 0.47522 0.92825 0.34927 0.0
H504 H 0.75491 0.20674 0.67078 0.0
H505 H 0.48364 0.06787 0.74367 0.0
H506 H 0.75478 0.20123 0.74266 0.0
H507 H 0.48594 0.0691 0.67182 0.0
H508 H 0.5822 0.10519 0.74379 0.0
H509 H 0.65594 0.14994 0.67101 0.0
C510 C 0.73402 0.19408 0.68665 0.0
C511 C 0.76316 0.20908 0.70675 0.0
C512 C 0.56099 0.09646 0.728 0.0
C513 C 0.64972 0.14309 0.7071 0.0
C514 C 0.50457 0.07477 0.72792 0.0
C515 C 0.47671 0.06706 0.70773 0.0
C516 C 0.58946 0.11039 0.70772 0.0
C517 C 0.50586 0.07551 0.68782 0.0
C518 C 0.67749 0.1611 0.68675 0.0
C519 C 0.7339 0.19097 0.72677 0.0
N520 N 0.56085 0.09779 0.68832 0.0
N521 N 0.6787 0.15894 0.72644 0.0
H522 H 0.95878 0.43829 0.6717 0.0
H523 H 0.81803 0.57068 0.74389 0.0
H524 H 0.9494 0.43064 0.74344 0.0
H525 H 0.81886 0.56686 0.672 0.0
H526 H 0.87546 0.52875 0.74446 0.0
H527 H 0.92258 0.50035 0.67206 0.0
C528 C 0.95041 0.45067 0.6876 0.0
C529 C 0.95548 0.42778 0.70757 0.0
C530 C 0.86304 0.53712 0.72858 0.0
C531 C 0.91277 0.49775 0.70803 0.0
C532 C 0.82978 0.5605 0.72824 0.0
C533 C 0.81327 0.5719 0.70787 0.0
C534 C 0.87992 0.52515 0.70841 0.0
C535 C 0.83023 0.55841 0.6881 0.0
C536 C 0.92915 0.4857 0.68777 0.0
C537 C 0.94482 0.4461 0.72764 0.0
N538 N 0.86263 0.53577 0.68888 0.0
N539 N 0.92281 0.47915 0.72735 0.0
H540 H 0.58647 0.53855 0.74246 0.0
H541 H 0.45431 0.26572 0.67043 0.0
H542 H 0.58814 0.53491 0.67064 0.0
H543 H 0.44938 0.26739 0.74229 0.0
H544 H 0.49641 0.36475 0.67028 0.0
H545 H 0.52458 0.44002 0.74276 0.0
C546 C 0.57293 0.51734 0.72675 0.0
C547 C 0.59405 0.54477 0.70654 0.0
C548 C 0.48614 0.34353 0.6861 0.0
C549 C 0.52386 0.43207 0.70674 0.0
C550 C 0.46261 0.28696 0.68621 0.0
C551 C 0.44867 0.25824 0.70642 0.0
C552 C 0.49606 0.37176 0.70634 0.0
C553 C 0.45989 0.28794 0.72633 0.0
C554 C 0.53783 0.46094 0.72693 0.0
C555 C 0.5739 0.5153 0.68666 0.0
N556 N 0.48304 0.34317 0.72579 0.0
N557 N 0.54079 0.46033 0.68727 0.0
H558 H 0.72597 0.82158 0.73674 0.0
H559 H 0.86519 0.0948 0.66442 0.0
H560 H 0.73505 0.8232 0.665 0.0
H561 H 0.86469 0.09019 0.73631 0.0
H562 H 0.80819 -0.00468 0.66389 0.0
H563 H 0.76181 0.91981 0.73633 0.0
C564 C 0.73422 0.8423 0.72083 0.0
C565 C 0.72912 0.81432 0.70087 0.0
C566 C 0.82058 0.01615 0.67976 0.0
C567 C 0.77141 0.92698 0.70035 0.0
C568 C 0.85358 0.07286 0.68008 0.0
C569 C 0.87008 0.10081 0.70045 0.0
C570 C 0.80394 0.98728 0.69994 0.0
C571 C 0.85332 0.07035 0.72022 0.0
C572 C 0.75526 0.89858 0.72063 0.0
C573 C 0.73964 0.84326 0.68079 0.0
N574 N 0.82117 0.01525 0.71946 0.0
N575 N 0.76143 0.89831 0.68105 0.0
H576 H 0.92815 0.78635 0.66538 0.0
H577 H 0.19886 0.92436 0.73893 0.0
H578 H 0.93017 0.79298 0.73725 0.0
H579 H 0.19917 0.92413 0.66708 0.0
H580 H 0.10067 0.86218 0.73846 0.0
H581 H 0.02744 0.82825 0.66551 0.0
C582 C 0.9495 0.79715 0.68118 0.0
C583 C 0.92086 0.78654 0.70133 0.0
C584 C 0.12231 0.87512 0.72277 0.0
C585 C 0.03423 0.83333 0.7016 0.0
C586 C 0.17857 0.91022 0.72301 0.0
C587 C 0.20706 0.93097 0.70297 0.0
C588 C 0.09446 0.86086 0.70235 0.0
C589 C 0.17867 0.91043 0.68291 0.0
C590 C 0.00611 0.8205 0.68124 0.0
C591 C 0.95057 0.8008 0.7213 0.0
N592 N 0.12363 0.87738 0.68308 0.0
N593 N 0.00564 0.82347 0.72092 0.0
H594 H 0.2331 0.1559 0.66512 0.0
H595 H 0.09793 0.29306 0.73784 0.0
H596 H 0.22778 0.15433 0.73701 0.0
H597 H 0.09425 0.28849 0.66602 0.0
H598 H 0.15978 0.25665 0.73746 0.0
H599 H 0.19095 0.21316 0.66481 0.0
C600 C 0.22253 0.16707 0.68083 0.0
C601 C 0.23361 0.14998 0.70112 0.0
C602 C 0.14605 0.26431 0.72175 0.0
C603 C 0.1866 0.21641 0.70088 0.0
C604 C 0.11113 0.28569 0.72194 0.0
C605 C 0.08944 0.2922 0.70191 0.0
C606 C 0.15916 0.24923 0.70141 0.0
C607 C 0.10877 0.28277 0.68185 0.0
C608 C 0.19904 0.20025 0.68064 0.0
C609 C 0.21964 0.16621 0.72096 0.0
N610 N 0.14168 0.26061 0.6821 0.0
N611 N 0.19688 0.19852 0.72033 0.0
H612 H 0.10963 0.31494 0.24352 0.0
H613 H 0.97788 0.44654 0.16444 0.0
H614 H 0.03244 0.40283 0.2681 0.0
H615 H 0.06605 0.36969 0.13983 0.0
H616 H 0.00112 0.4348 0.2026 0.0
H617 H 0.09794 0.33823 0.20536 0.0
C618 C 0.09095 0.33984 0.24083 0.0
C619 C 0.07304 0.35796 0.25896 0.0
C620 C 0.0161 0.42119 0.18885 0.0
C621 C 0.05856 0.38408 0.21544 0.0
C622 C 0.00283 0.42792 0.16712 0.0
C623 C 0.02103 0.41011 0.14899 0.0
C624 C 0.04711 0.39557 0.1925 0.0
C625 C 0.05268 0.38558 0.15328 0.0
C626 C 0.08425 0.35313 0.2191 0.0
C627 C 0.04841 0.38953 0.25466 0.0
N628 N 0.06447 0.37878 0.17459 0.0
N629 N 0.04166 0.40135 0.23335 0.0
H630 H 0.61564 0.64479 0.26943 0.0
H631 H 0.65206 0.71646 0.13931 0.0
H632 H 0.70459 0.80898 0.24384 0.0
H633 H 0.57716 0.55237 0.165 0.0
H634 H 0.66229 0.75111 0.17734 0.0
H635 H 0.59179 0.61022 0.23138 0.0
C636 C 0.62894 0.67366 0.25582 0.0
C637 C 0.66108 0.72994 0.25978 0.0
C638 C 0.64297 0.70745 0.17469 0.0
C639 C 0.63557 0.69062 0.21608 0.0
C640 C 0.63648 0.68763 0.15294 0.0
C641 C 0.6126 0.63135 0.14901 0.0
C642 C 0.62581 0.67076 0.19268 0.0
C643 C 0.5954 0.596 0.16738 0.0
C644 C 0.61594 0.65388 0.23405 0.0
C645 C 0.67936 0.76535 0.24143 0.0
N646 N 0.60234 0.61623 0.18841 0.0
N647 N 0.6664 0.74515 0.22037 0.0
H648 H 0.3081 0.95414 0.13919 0.0
H649 H 0.3787 0.98971 0.26942 0.0
H650 H 0.47198 0.04303 0.16497 0.0
H651 H 0.21497 0.91565 0.24353 0.0
H652 H 0.4136 0.00017 0.23141 0.0
H653 H 0.27325 0.93022 0.17721 0.0
C654 C 0.33684 0.96741 0.15284 0.0
C655 C 0.39311 -0.00045 0.14894 0.0
C656 C 0.36996 0.98098 0.23402 0.0
C657 C 0.35348 0.97396 0.19261 0.0
C658 C 0.35 0.97436 0.25575 0.0
C659 C 0.29375 0.95064 0.25962 0.0
C660 C 0.33344 0.9641 0.21598 0.0
C661 C 0.25857 0.93375 0.2412 0.0
C662 C 0.31691 0.95438 0.17459 0.0
C663 C 0.42835 0.01781 0.16734 0.0
N664 N 0.27895 0.94079 0.22019 0.0
N665 N 0.40801 0.00479 0.18837 0.0
H666 H 0.44474 0.98411 0.91038 0.0
H667 H 0.3136 0.11718 0.83182 0.0
H668 H 0.36779 0.07192 0.9353 0.0
H669 H 0.40115 0.03992 0.80694 0.0
H670 H 0.33716 0.10535 0.86992 0.0
H671 H 0.43346 0.00822 0.87231 0.0
C672 C 0.42621 0.00917 0.90778 0.0
C673 C 0.40821 0.027 0.92598 0.0
C674 C 0.35196 0.0917 0.85613 0.0
C675 C 0.3942 0.05407 0.88257 0.0
C676 C 0.33852 0.09849 0.83443 0.0
C677 C 0.35641 0.08055 0.81624 0.0
C678 C 0.38281 0.06588 0.85968 0.0
C679 C 0.38801 0.05592 0.82043 0.0
C680 C 0.41974 0.02294 0.88611 0.0
C681 C 0.3838 0.05882 0.92181 0.0
N682 N 0.39994 0.04904 0.8417 0.0
N683 N 0.37725 0.07109 0.90054 0.0
H684 H 0.04053 0.47737 0.91028 0.0
H685 H 0.90628 0.21349 0.83144 0.0
H686 H 0.95184 0.31242 0.93505 0.0
H687 H 0.98432 0.37855 0.8067 0.0
H688 H 0.91868 0.24873 0.86958 0.0
H689 H 0.01673 0.44222 0.87216 0.0
C690 C 0.01536 0.43378 0.90764 0.0
C691 C -0.00284 0.39785 0.92581 0.0
C692 C 0.93241 0.27728 0.85581 0.0
C693 C 0.97043 0.35704 0.88234 0.0
C694 C 0.92529 0.25713 0.83409 0.0
C695 C 0.94323 0.29308 0.81592 0.0
C696 C 0.95854 0.33397 0.85942 0.0
C697 C 0.96829 0.34934 0.82017 0.0
C698 C 0.00177 0.41369 0.88593 0.0
C699 C 0.96522 0.34164 0.92157 0.0
N700 N 0.97545 0.36806 0.84147 0.0
N701 N 0.95311 0.32296 0.90029 0.0
H702 H 0.63886 0.61907 0.80569 0.0
H703 H 0.70974 0.65377 0.93586 0.0
H704 H 0.80266 0.70872 0.83151 0.0
H705 H 0.54579 0.57821 0.91014 0.0
H706 H 0.74454 0.66482 0.89784 0.0
H707 H 0.60406 0.59435 0.84369 0.0
C708 C 0.6676 0.63236 0.81934 0.0
C709 C 0.72384 0.66496 0.81546 0.0
C710 C 0.70088 0.64516 0.90048 0.0
C711 C 0.68426 0.63842 0.85909 0.0
C712 C 0.68098 0.63818 0.92223 0.0
C713 C 0.6247 0.61387 0.92614 0.0
C714 C 0.66427 0.62808 0.88247 0.0
C715 C 0.58942 0.59675 0.90776 0.0
C716 C 0.64769 0.61886 0.84107 0.0
C717 C 0.75906 0.68318 0.83386 0.0
N718 N 0.60974 0.60418 0.88672 0.0
N719 N 0.73875 0.66969 0.85487 0.0
H720 H 0.64497 0.78055 0.49833 0.0
H721 H 0.77776 0.64924 0.57698 0.0
H722 H 0.7331 0.70391 0.47343 0.0
H723 H 0.70055 0.7369 0.60179 0.0
H724 H 0.76587 0.67267 0.53886 0.0
H725 H 0.66879 0.769 0.53642 0.0
C726 C 0.67004 0.76202 0.50094 0.0
C727 C 0.68804 0.7442 0.48274 0.0
C728 C 0.75223 0.68751 0.55264 0.0
C729 C 0.71477 0.72988 0.52617 0.0
C730 C 0.75905 0.67414 0.57434 0.0
C731 C 0.74118 0.69214 0.59253 0.0
C732 C 0.72647 0.71841 0.54907 0.0
C733 C 0.71651 0.7237 0.58831 0.0
C734 C 0.68364 0.7554 0.52262 0.0
C735 C 0.71985 0.7198 0.48693 0.0
N736 N 0.70963 0.73558 0.56703 0.0
N737 N 0.73196 0.71309 0.5082 0.0
H738 H 0.31508 0.04604 0.4729 0.0
H739 H 0.27979 0.9745 0.60304 0.0
H740 H 0.23893 0.88177 0.49847 0.0
H741 H 0.36927 0.1385 0.57727 0.0
H742 H 0.25514 0.93979 0.56501 0.0
H743 H 0.32595 0.08063 0.51094 0.0
C744 C 0.29932 0.01716 0.4865 0.0
C745 C 0.27488 0.96085 0.48253 0.0
C746 C 0.27959 0.98344 0.56765 0.0
C747 C 0.2889 0.0002 0.52624 0.0
C748 C 0.29305 0.0033 0.58939 0.0
C749 C 0.32561 0.05957 0.5933 0.0
C750 C 0.29914 0.02009 0.54964 0.0
C751 C 0.34377 0.09488 0.57491 0.0
C752 C 0.30619 0.03695 0.50827 0.0
C753 C 0.25757 0.92543 0.50089 0.0
N754 N 0.33034 0.07461 0.55389 0.0
N755 N 0.2649 0.94564 0.52194 0.0
H756 H 0.04488 0.32394 0.60252 0.0
H757 H 0.97321 0.28832 0.47239 0.0
H758 H 0.88091 0.24965 0.57689 0.0
H759 H 0.13725 0.37775 0.49796 0.0
H760 H 0.93867 0.26444 0.51045 0.0
H761 H 0.07947 0.33466 0.56445 0.0
C762 C 0.01607 0.3086 0.58889 0.0
C763 C 0.95984 0.28473 0.59285 0.0
C764 C 0.9823 0.28872 0.50777 0.0
C765 C -0.00083 0.29849 0.54914 0.0
C766 C 0.00205 0.30174 0.486 0.0
C767 C 0.05828 0.33401 0.48203 0.0
C768 C 0.01901 0.30843 0.52574 0.0
C769 C 0.09366 0.35242 0.50038 0.0
C770 C 0.03585 0.31537 0.56712 0.0
C771 C 0.9245 0.26786 0.57448 0.0
N772 N 0.07349 0.3394 0.52144 0.0
N773 N 0.9447 0.27504 0.55344 0.0
loop_
_geom_bond_atom_site_label_1
_geom_bond_atom_site_label_2
_geom_bond_distance
_geom_bond_site_symmetry_2
_ccdc_geom_bond_type
Zn0 O1 2.055 . S
Zn0 O8 2.046 1_455 S
Zn0 N16 2.036 . S
Zn0 O28 2.053 1_455 S
Zn0 O30 2.066 . S
O1 Zn0 2.055 . S
O1 C4 1.259 . S
C2 O30 1.256 . S
C2 O31 1.244 . S
Zn3 O5 2.042 1_556 S
Zn3 O7 2.049 1_456 S
Zn3 N9 2.062 . S
Zn3 O27 2.063 1_456 S
Zn3 O31 2.045 1_556 S
C4 O1 1.259 . S
C4 O5 1.254 . S
O5 Zn3 2.042 1_554 S
O5 C4 1.254 . S
C6 O27 1.256 . S
C6 O28 1.244 . S
O7 Zn3 2.049 1_654 S
O7 C29 1.259 . S
O8 Zn0 2.046 1_655 S
O8 C29 1.254 . S
N9 Zn3 2.062 . S
N9 C10 1.298 1_455 S
N9 N12 1.398 . S
C10 N9 1.298 1_655 S
C10 N13 1.367 . S
C10 C23 1.481 . S
C11 N12 1.299 . S
C11 N13 1.379 1_455 S
N12 N9 1.398 . S
N12 C11 1.299 . S
N13 C10 1.367 . S
N13 C11 1.379 1_655 S
C14 N16 1.298 . S
C14 N18 1.367 . S
C14 C22 1.481 . S
C15 N17 1.299 . S
C15 N18 1.379 1_655 S
N16 Zn0 2.036 . S
N16 C14 1.298 . S
N16 N17 1.398 1_455 S
N17 C15 1.299 . S
N17 N16 1.398 1_655 S
N18 C14 1.367 . S
N18 C15 1.379 1_455 S
H19 C22 0.980 . S
H20 C22 0.981 . S
H21 C22 0.981 . S
C22 C14 1.481 . S
C22 H19 0.980 . S
C22 H20 0.981 . S
C22 H21 0.981 . S
C23 C10 1.481 . S
C23 H24 0.980 . S
C23 H25 0.981 . S
C23 H26 0.981 . S
H24 C23 0.980 . S
H25 C23 0.981 . S
H26 C23 0.981 . S
O27 Zn3 2.063 1_654 S
O27 C6 1.256 . S
O28 Zn0 2.053 1_655 S
O28 C6 1.244 . S
C29 O7 1.259 . S
C29 O8 1.254 . S
O30 Zn0 2.066 . S
O30 C2 1.256 . S
O31 C2 1.244 . S
O31 Zn3 2.045 1_554 S
Zn32 O33 2.055 . S
Zn32 O40 2.046 . S
Zn32 N48 2.036 . S
Zn32 O60 2.053 . S
Zn32 O62 2.066 . S
O33 Zn32 2.055 . S
O33 C36 1.259 . S
C34 O62 1.256 . S
C34 O63 1.244 . S
Zn35 O37 2.042 1_556 S
Zn35 O39 2.049 1_556 S
Zn35 N41 2.063 . S
Zn35 O59 2.063 1_556 S
Zn35 O63 2.045 1_556 S
C36 O33 1.259 . S
C36 O37 1.254 . S
O37 Zn35 2.042 1_554 S
O37 C36 1.254 . S
C38 O59 1.256 . S
C38 O60 1.244 . S
O39 Zn35 2.049 1_554 S
O39 C61 1.259 . S
O40 Zn32 2.046 . S
O40 C61 1.254 . S
N41 Zn35 2.063 . S
N41 C42 1.298 . S
N41 N44 1.398 . S
C42 N41 1.298 . S
C42 N45 1.367 . S
C42 C55 1.481 . S
C43 N44 1.299 . S
C43 N45 1.379 . S
N44 N41 1.398 . S
N44 C43 1.299 . S
N45 C42 1.367 . S
N45 C43 1.379 . S
C46 N48 1.298 . S
C46 N50 1.367 . S
C46 C54 1.481 . S
C47 N49 1.299 . S
C47 N50 1.379 . S
N48 Zn32 2.036 . S
N48 C46 1.298 . S
N48 N49 1.398 . S
N49 C47 1.299 . S
N49 N48 1.398 . S
N50 C46 1.367 . S
N50 C47 1.379 . S
H51 C54 0.980 . S
H52 C54 0.981 . S
H53 C54 0.981 . S
C54 C46 1.481 . S
C54 H51 0.980 . S
C54 H52 0.981 . S
C54 H53 0.981 . S
C55 C42 1.481 . S
C55 H56 0.980 . S
C55 H57 0.981 . S
C55 H58 0.981 . S
H56 C55 0.980 . S
H57 C55 0.981 . S
H58 C55 0.981 . S
O59 Zn35 2.063 1_554 S
O59 C38 1.256 . S
O60 Zn32 2.053 . S
O60 C38 1.244 . S
C61 O39 1.259 . S
C61 O40 1.254 . S
O62 Zn32 2.066 . S
O62 C34 1.256 . S
O63 C34 1.244 . S
O63 Zn35 2.045 1_554 S
Zn64 O65 2.048 1_556 S
Zn64 O72 2.042 1_546 S
Zn64 N80 2.064 . S
Zn64 O92 2.045 1_546 S
Zn64 O94 2.063 1_556 S
O65 Zn64 2.048 1_554 S
O65 C68 1.259 . S
C66 O94 1.256 . S
C66 O95 1.244 . S
Zn67 O69 2.046 . S
Zn67 O71 2.055 1_545 S
Zn67 N73 2.036 . S
Zn67 O91 2.066 1_545 S
Zn67 O95 2.053 . S
C68 O65 1.259 . S
C68 O69 1.254 . S
O69 Zn67 2.046 . S
O69 C68 1.254 . S
C70 O91 1.256 . S
C70 O92 1.244 . S
O71 Zn67 2.055 1_565 S
O71 C93 1.259 . S
O72 Zn64 2.042 1_564 S
O72 C93 1.254 . S
N73 Zn67 2.036 . S
N73 C74 1.298 1_545 S
N73 N76 1.398 . S
C74 N73 1.298 1_565 S
C74 N77 1.367 . S
C74 C87 1.481 . S
C75 N76 1.299 . S
C75 N77 1.379 1_545 S
N76 N73 1.398 . S
N76 C75 1.299 . S
N77 C74 1.367 . S
N77 C75 1.379 1_565 S
C78 N80 1.298 . S
C78 N82 1.367 . S
C78 C86 1.481 . S
C79 N81 1.299 . S
C79 N82 1.379 1_565 S
N80 Zn64 2.064 . S
N80 C78 1.298 . S
N80 N81 1.398 1_545 S
N81 C79 1.299 . S
N81 N80 1.398 1_565 S
N82 C78 1.367 . S
N82 C79 1.379 1_545 S
H83 C86 0.980 . S
H84 C86 0.981 . S
H85 C86 0.981 . S
C86 C78 1.481 . S
C86 H83 0.980 . S
C86 H84 0.981 . S
C86 H85 0.981 . S
C87 C74 1.481 . S
C87 H88 0.980 . S
C87 H89 0.981 . S
C87 H90 0.981 . S
H88 C87 0.980 . S
H89 C87 0.981 . S
H90 C87 0.981 . S
O91 Zn67 2.066 1_565 S
O91 C70 1.256 . S
O92 Zn64 2.045 1_564 S
O92 C70 1.244 . S
C93 O71 1.259 . S
C93 O72 1.254 . S
O94 Zn64 2.063 1_554 S
O94 C66 1.256 . S
O95 C66 1.244 . S
O95 Zn67 2.053 . S
Zn96 O97 2.055 . S
Zn96 O104 2.046 . S
Zn96 N112 2.036 . S
Zn96 O124 2.053 . S
Zn96 O126 2.066 . S
O97 Zn96 2.055 . S
O97 C100 1.259 . S
C98 O126 1.256 . S
C98 O127 1.244 . S
Zn99 O101 2.046 . S
Zn99 O103 2.055 . S
Zn99 N105 2.036 . S
Zn99 O123 2.066 . S
Zn99 O127 2.053 . S
C100 O97 1.259 . S
C100 O101 1.254 . S
O101 Zn99 2.046 . S
O101 C100 1.254 . S
C102 O123 1.256 . S
C102 O124 1.244 . S
O103 Zn99 2.055 . S
O103 C125 1.259 . S
O104 Zn96 2.046 . S
O104 C125 1.254 . S
N105 Zn99 2.036 . S
N105 C106 1.298 . S
N105 N108 1.398 . S
C106 N105 1.298 . S
C106 N109 1.367 . S
C106 C119 1.481 . S
C107 N108 1.299 . S
C107 N109 1.379 . S
N108 N105 1.398 . S
N108 C107 1.299 . S
N109 C106 1.367 . S
N109 C107 1.379 . S
C110 N112 1.298 . S
C110 N114 1.367 . S
C110 C118 1.481 . S
C111 N113 1.299 . S
C111 N114 1.379 . S
N112 Zn96 2.036 . S
N112 C110 1.298 . S
N112 N113 1.398 . S
N113 C111 1.299 . S
N113 N112 1.398 . S
N114 C110 1.367 . S
N114 C111 1.379 . S
H115 C118 0.980 . S
H116 C118 0.981 . S
H117 C118 0.981 . S
C118 C110 1.481 . S
C118 H115 0.980 . S
C118 H116 0.981 . S
C118 H117 0.981 . S
C119 C106 1.481 . S
C119 H120 0.980 . S
C119 H121 0.981 . S
C119 H122 0.981 . S
H120 C119 0.980 . S
H121 C119 0.981 . S
H122 C119 0.981 . S
O123 Zn99 2.066 . S
O123 C102 1.256 . S
O124 Zn96 2.053 . S
O124 C102 1.244 . S
C125 O103 1.259 . S
C125 O104 1.254 . S
O126 Zn96 2.066 . S
O126 C98 1.256 . S
O127 C98 1.244 . S
O127 Zn99 2.053 . S
Zn128 O129 2.055 . S
Zn128 O136 2.046 . S
Zn128 N144 2.036 . S
Zn128 O156 2.053 . S
Zn128 O158 2.066 . S
O129 Zn128 2.055 . S
O129 C132 1.259 . S
C130 O158 1.256 . S
C130 O159 1.244 . S
Zn131 O133 2.046 . S
Zn131 O135 2.055 . S
Zn131 N137 2.036 . S
Zn131 O155 2.066 . S
Zn131 O159 2.053 . S
C132 O129 1.259 . S
C132 O133 1.254 . S
O133 Zn131 2.046 . S
O133 C132 1.254 . S
C134 O155 1.256 . S
C134 O156 1.244 . S
O135 Zn131 2.055 . S
O135 C157 1.259 . S
O136 Zn128 2.046 . S
O136 C157 1.254 . S
N137 Zn131 2.036 . S
N137 C138 1.298 . S
N137 N140 1.398 . S
C138 N137 1.298 . S
C138 N141 1.367 . S
C138 C151 1.481 . S
C139 N140 1.299 . S
C139 N141 1.379 . S
N140 N137 1.398 . S
N140 C139 1.299 . S
N141 C138 1.367 . S
N141 C139 1.379 . S
C142 N144 1.298 . S
C142 N146 1.367 . S
C142 C150 1.481 . S
C143 N145 1.299 . S
C143 N146 1.379 . S
N144 Zn128 2.036 . S
N144 C142 1.298 . S
N144 N145 1.398 . S
N145 C143 1.299 . S
N145 N144 1.398 . S
N146 C142 1.367 . S
N146 C143 1.379 . S
H147 C150 0.980 . S
H148 C150 0.981 . S
H149 C150 0.981 . S
C150 C142 1.481 . S
C150 H147 0.980 . S
C150 H148 0.981 . S
C150 H149 0.981 . S
C151 C138 1.481 . S
C151 H152 0.980 . S
C151 H153 0.981 . S
C151 H154 0.981 . S
H152 C151 0.980 . S
H153 C151 0.981 . S
H154 C151 0.981 . S
O155 Zn131 2.066 . S
O155 C134 1.256 . S
O156 Zn128 2.053 . S
O156 C134 1.244 . S
C157 O135 1.259 . S
C157 O136 1.254 . S
O158 Zn128 2.066 . S
O158 C130 1.256 . S
O159 C130 1.244 . S
O159 Zn131 2.053 . S
Zn160 O161 2.055 . S
Zn160 O168 2.046 . S
Zn160 N176 2.036 . S
Zn160 O188 2.053 . S
Zn160 O190 2.066 . S
O161 Zn160 2.055 . S
O161 C164 1.259 . S
C162 O190 1.256 . S
C162 O191 1.244 . S
Zn163 O165 2.046 . S
Zn163 O167 2.055 . S
Zn163 N169 2.036 . S
Zn163 O187 2.066 . S
Zn163 O191 2.053 . S
C164 O161 1.259 . S
C164 O165 1.254 . S
O165 Zn163 2.046 . S
O165 C164 1.254 . S
C166 O187 1.256 . S
C166 O188 1.244 . S
O167 Zn163 2.055 . S
O167 C189 1.259 . S
O168 Zn160 2.046 . S
O168 C189 1.254 . S
N169 Zn163 2.036 . S
N169 C170 1.298 . S
N169 N172 1.398 . S
C170 N169 1.298 . S
C170 N173 1.367 . S
C170 C183 1.481 . S
C171 N172 1.299 . S
C171 N173 1.379 . S
N172 N169 1.398 . S
N172 C171 1.299 . S
N173 C170 1.367 . S
N173 C171 1.379 . S
C174 N176 1.298 . S
C174 N178 1.367 . S
C174 C182 1.481 . S
C175 N177 1.299 . S
C175 N178 1.379 . S
N176 Zn160 2.036 . S
N176 C174 1.298 . S
N176 N177 1.398 . S
N177 C175 1.299 . S
N177 N176 1.398 . S
N178 C174 1.367 . S
N178 C175 1.379 . S
H179 C182 0.980 . S
H180 C182 0.981 . S
H181 C182 0.981 . S
C182 C174 1.481 . S
C182 H179 0.980 . S
C182 H180 0.981 . S
C182 H181 0.981 . S
C183 C170 1.481 . S
C183 H184 0.980 . S
C183 H185 0.981 . S
C183 H186 0.981 . S
H184 C183 0.980 . S
H185 C183 0.981 . S
H186 C183 0.981 . S
O187 Zn163 2.066 . S
O187 C166 1.256 . S
O188 Zn160 2.053 . S
O188 C166 1.244 . S
C189 O167 1.259 . S
C189 O168 1.254 . S
O190 Zn160 2.066 . S
O190 C162 1.256 . S
O191 C162 1.244 . S
O191 Zn163 2.053 . S
Zn192 O193 2.055 . S
Zn192 O200 2.046 . S
Zn192 N208 2.036 . S
Zn192 O220 2.053 . S
Zn192 O222 2.066 . S
O193 Zn192 2.055 . S
O193 C196 1.259 . S
C194 O222 1.256 . S
C194 O223 1.244 . S
Zn195 O197 2.046 . S
Zn195 O199 2.055 . S
Zn195 N201 2.036 . S
Zn195 O219 2.066 . S
Zn195 O223 2.053 . S
C196 O193 1.259 . S
C196 O197 1.254 . S
O197 Zn195 2.046 . S
O197 C196 1.254 . S
C198 O219 1.256 . S
C198 O220 1.244 . S
O199 Zn195 2.055 . S
O199 C221 1.259 . S
O200 Zn192 2.046 . S
O200 C221 1.254 . S
N201 Zn195 2.036 . S
N201 C202 1.298 . S
N201 N204 1.398 . S
C202 N201 1.298 . S
C202 N205 1.367 . S
C202 C215 1.481 . S
C203 N204 1.299 . S
C203 N205 1.379 . S
N204 N201 1.398 . S
N204 C203 1.299 . S
N205 C202 1.367 . S
N205 C203 1.379 . S
C206 N208 1.298 . S
C206 N210 1.367 . S
C206 C214 1.481 . S
C207 N209 1.299 . S
C207 N210 1.379 . S
N208 Zn192 2.036 . S
N208 C206 1.298 . S
N208 N209 1.398 . S
N209 C207 1.299 . S
N209 N208 1.398 . S
N210 C206 1.367 . S
N210 C207 1.379 . S
H211 C214 0.980 . S
H212 C214 0.981 . S
H213 C214 0.981 . S
C214 C206 1.481 . S
C214 H211 0.980 . S
C214 H212 0.981 . S
C214 H213 0.981 . S
C215 C202 1.481 . S
C215 H216 0.980 . S
C215 H217 0.981 . S
C215 H218 0.981 . S
H216 C215 0.980 . S
H217 C215 0.981 . S
H218 C215 0.981 . S
O219 Zn195 2.066 . S
O219 C198 1.256 . S
O220 Zn192 2.053 . S
O220 C198 1.244 . S
C221 O199 1.259 . S
C221 O200 1.254 . S
O222 Zn192 2.066 . S
O222 C194 1.256 . S
O223 C194 1.244 . S
O223 Zn195 2.053 . S
Zn224 O225 2.055 . S
Zn224 O232 2.046 . S
Zn224 N240 2.036 . S
Zn224 O252 2.053 . S
Zn224 O254 2.066 . S
O225 Zn224 2.055 . S
O225 C228 1.259 . S
C226 O254 1.256 . S
C226 O255 1.244 . S
Zn227 O229 2.046 . S
Zn227 O231 2.055 . S
Zn227 N233 2.036 . S
Zn227 O251 2.066 . S
Zn227 O255 2.053 . S
C228 O225 1.259 . S
C228 O229 1.254 . S
O229 Zn227 2.046 . S
O229 C228 1.254 . S
C230 O251 1.256 . S
C230 O252 1.244 . S
O231 Zn227 2.055 . S
O231 C253 1.259 . S
O232 Zn224 2.046 . S
O232 C253 1.254 . S
N233 Zn227 2.036 . S
N233 C234 1.298 . S
N233 N236 1.398 . S
C234 N233 1.298 . S
C234 N237 1.367 . S
C234 C247 1.481 . S
C235 N236 1.299 . S
C235 N237 1.379 . S
N236 N233 1.398 . S
N236 C235 1.299 . S
N237 C234 1.367 . S
N237 C235 1.379 . S
C238 N240 1.298 . S
C238 N242 1.367 . S
C238 C246 1.481 . S
C239 N241 1.299 . S
C239 N242 1.379 . S
N240 Zn224 2.036 . S
N240 C238 1.298 . S
N240 N241 1.398 . S
N241 C239 1.299 . S
N241 N240 1.398 . S
N242 C238 1.367 . S
N242 C239 1.379 . S
H243 C246 0.980 . S
H244 C246 0.981 . S
H245 C246 0.981 . S
C246 C238 1.481 . S
C246 H243 0.980 . S
C246 H244 0.981 . S
C246 H245 0.981 . S
C247 C234 1.481 . S
C247 H248 0.980 . S
C247 H249 0.981 . S
C247 H250 0.981 . S
H248 C247 0.980 . S
H249 C247 0.981 . S
H250 C247 0.981 . S
O251 Zn227 2.066 . S
O251 C230 1.256 . S
O252 Zn224 2.053 . S
O252 C230 1.244 . S
C253 O231 1.259 . S
C253 O232 1.254 . S
O254 Zn224 2.066 . S
O254 C226 1.256 . S
O255 C226 1.244 . S
O255 Zn227 2.053 . S
Zn256 O257 2.055 . S
Zn256 O264 2.046 . S
Zn256 N272 2.036 . S
Zn256 O284 2.053 . S
Zn256 O286 2.066 . S
O257 Zn256 2.055 . S
O257 C260 1.259 . S
C258 O286 1.256 . S
C258 O287 1.244 . S
Zn259 O261 2.046 . S
Zn259 O263 2.055 . S
Zn259 N265 2.036 . S
Zn259 O283 2.066 . S
Zn259 O287 2.053 . S
C260 O257 1.259 . S
C260 O261 1.254 . S
O261 Zn259 2.046 . S
O261 C260 1.254 . S
C262 O283 1.256 . S
C262 O284 1.244 . S
O263 Zn259 2.055 . S
O263 C285 1.259 . S
O264 Zn256 2.046 . S
O264 C285 1.254 . S
N265 Zn259 2.036 . S
N265 C266 1.298 . S
N265 N268 1.398 . S
C266 N265 1.298 . S
C266 N269 1.367 . S
C266 C279 1.481 . S
C267 N268 1.299 . S
C267 N269 1.379 . S
N268 N265 1.398 . S
N268 C267 1.299 . S
N269 C266 1.367 . S
N269 C267 1.379 . S
C270 N272 1.298 . S
C270 N274 1.367 . S
C270 C278 1.481 . S
C271 N273 1.299 . S
C271 N274 1.379 . S
N272 Zn256 2.036 . S
N272 C270 1.298 . S
N272 N273 1.398 . S
N273 C271 1.299 . S
N273 N272 1.398 . S
N274 C270 1.367 . S
N274 C271 1.379 . S
H275 C278 0.980 . S
H276 C278 0.981 . S
H277 C278 0.981 . S
C278 C270 1.481 . S
C278 H275 0.980 . S
C278 H276 0.981 . S
C278 H277 0.981 . S
C279 C266 1.481 . S
C279 H280 0.980 . S
C279 H281 0.981 . S
C279 H282 0.981 . S
H280 C279 0.980 . S
H281 C279 0.981 . S
H282 C279 0.981 . S
O283 Zn259 2.066 . S
O283 C262 1.256 . S
O284 Zn256 2.053 . S
O284 C262 1.244 . S
C285 O263 1.259 . S
C285 O264 1.254 . S
O286 Zn256 2.066 . S
O286 C258 1.256 . S
O287 C258 1.244 . S
O287 Zn259 2.053 . S
H288 C294 0.930 . S
H289 C298 0.930 1_556 S
H290 C303 0.929 1_556 S
H291 C301 0.929 . S
H292 C296 0.929 1_556 S
H293 C302 0.929 . S
C294 H288 0.930 . S
C294 C295 1.367 . S
C294 C302 1.378 . S
C295 C294 1.367 . S
C295 C303 1.433 . S
C296 H292 0.929 1_554 S
C296 C298 1.378 . S
C296 C300 1.350 . S
C297 C300 1.463 . S
C297 C302 1.350 . S
C297 N305 1.427 . S
C298 H289 0.930 1_554 S
C298 C296 1.378 . S
C298 C299 1.367 . S
C299 C298 1.367 . S
C299 C301 1.433 . S
C300 C296 1.350 . S
C300 C297 1.463 . S
C300 N304 1.427 . S
C301 H291 0.929 . S
C301 C299 1.433 . S
C301 N304 1.384 . S
C302 H293 0.929 . S
C302 C294 1.378 . S
C302 C297 1.350 . S
C303 H290 0.929 1_554 S
C303 C295 1.433 . S
C303 N305 1.384 . S
N304 C300 1.427 . S
N304 C301 1.384 . S
N305 C297 1.427 . S
N305 C303 1.384 . S
H306 C312 0.930 . S
H307 C316 0.930 1_556 S
H308 C321 0.929 1_556 S
H309 C319 0.929 . S
H310 C314 0.929 1_556 S
H311 C320 0.929 . S
C312 H306 0.930 . S
C312 C313 1.367 . S
C312 C320 1.378 . S
C313 C312 1.367 . S
C313 C321 1.433 . S
C314 H310 0.929 1_554 S
C314 C316 1.378 . S
C314 C318 1.350 . S
C315 C318 1.463 . S
C315 C320 1.350 . S
C315 N323 1.427 . S
C316 H307 0.930 1_554 S
C316 C314 1.378 . S
C316 C317 1.367 . S
C317 C316 1.367 . S
C317 C319 1.433 . S
C318 C314 1.350 . S
C318 C315 1.463 . S
C318 N322 1.427 . S
C319 H309 0.929 . S
C319 C317 1.433 . S
C319 N322 1.384 . S
C320 H311 0.929 . S
C320 C312 1.378 . S
C320 C315 1.350 . S
C321 H308 0.929 1_554 S
C321 C313 1.433 . S
C321 N323 1.384 . S
N322 C318 1.427 . S
N322 C319 1.384 . S
N323 C315 1.427 . S
N323 C321 1.384 . S
H324 C330 0.930 . S
H325 C334 0.930 . S
H326 C339 0.929 . S
H327 C337 0.929 1_556 S
H328 C332 0.929 . S
H329 C338 0.933 . S
C330 H324 0.930 . S
C330 C331 1.367 . S
C330 C338 1.378 . S
C331 C330 1.367 . S
C331 C339 1.433 . S
C332 H328 0.929 . S
C332 C334 1.378 . S
C332 C336 1.350 . S
C333 C336 1.463 . S
C333 C338 1.350 . S
C333 N341 1.427 . S
C334 H325 0.930 . S
C334 C332 1.378 . S
C334 C335 1.367 . S
C335 C334 1.367 . S
C335 C337 1.433 . S
C336 C332 1.350 . S
C336 C333 1.463 . S
C336 N340 1.427 . S
C337 H327 0.929 1_554 S
C337 C335 1.433 . S
C337 N340 1.384 . S
C338 H329 0.933 . S
C338 C330 1.378 . S
C338 C333 1.350 . S
C339 H326 0.929 . S
C339 C331 1.433 . S
C339 N341 1.384 . S
N340 C336 1.427 . S
N340 C337 1.384 . S
N341 C333 1.427 . S
N341 C339 1.384 . S
H342 C348 0.930 1_556 S
H343 C352 0.930 . S
H344 C357 0.929 . S
H345 C355 0.929 1_556 S
H346 C350 0.929 . S
H347 C356 0.929 1_556 S
C348 H342 0.930 1_554 S
C348 C349 1.367 . S
C348 C356 1.378 . S
C349 C348 1.367 . S
C349 C357 1.433 . S
C350 H346 0.929 . S
C350 C352 1.378 . S
C350 C354 1.350 . S
C351 C354 1.463 . S
C351 C356 1.350 . S
C351 N359 1.427 . S
C352 H343 0.930 . S
C352 C350 1.378 . S
C352 C353 1.367 . S
C353 C352 1.367 . S
C353 C355 1.433 . S
C354 C350 1.350 . S
C354 C351 1.463 . S
C354 N358 1.427 . S
C355 H345 0.929 1_554 S
C355 C353 1.433 . S
C355 N358 1.384 . S
C356 H347 0.929 1_554 S
C356 C348 1.378 . S
C356 C351 1.350 . S
C357 H344 0.929 . S
C357 C349 1.433 . S
C357 N359 1.384 . S
N358 C354 1.427 . S
N358 C355 1.384 . S
N359 C351 1.427 . S
N359 C357 1.384 . S
H360 C366 0.930 . S
H361 C370 0.930 . S
H362 C375 0.929 . S
H363 C373 0.929 . S
H364 C368 0.929 . S
H365 C374 0.929 . S
C366 H360 0.930 . S
C366 C367 1.367 . S
C366 C374 1.378 . S
C367 C366 1.367 . S
C367 C375 1.433 . S
C368 H364 0.929 . S
C368 C370 1.378 . S
C368 C372 1.350 . S
C369 C372 1.463 . S
C369 C374 1.350 . S
C369 N377 1.427 . S
C370 H361 0.930 . S
C370 C368 1.378 . S
C370 C371 1.367 . S
C371 C370 1.367 . S
C371 C373 1.433 . S
C372 C368 1.350 . S
C372 C369 1.463 . S
C372 N376 1.427 . S
C373 H363 0.929 . S
C373 C371 1.433 . S
C373 N376 1.384 . S
C374 H365 0.929 . S
C374 C366 1.378 . S
C374 C369 1.350 . S
C375 H362 0.929 . S
C375 C367 1.433 . S
C375 N377 1.384 . S
N376 C372 1.427 . S
N376 C373 1.384 . S
N377 C369 1.427 . S
N377 C375 1.384 . S
H378 C384 0.930 . S
H379 C388 0.930 . S
H380 C393 0.929 . S
H381 C391 0.929 . S
H382 C386 0.929 . S
H383 C392 0.929 . S
C384 H378 0.930 . S
C384 C385 1.367 . S
C384 C392 1.378 . S
C385 C384 1.367 . S
C385 C393 1.433 . S
C386 H382 0.929 . S
C386 C388 1.378 . S
C386 C390 1.350 . S
C387 C390 1.463 . S
C387 C392 1.350 . S
C387 N395 1.427 . S
C388 H379 0.930 . S
C388 C386 1.378 . S
C388 C389 1.367 . S
C389 C388 1.367 . S
C389 C391 1.433 . S
C390 C386 1.350 . S
C390 C387 1.463 . S
C390 N394 1.427 . S
C391 H381 0.929 . S
C391 C389 1.433 . S
C391 N394 1.384 . S
C392 H383 0.929 . S
C392 C384 1.378 . S
C392 C387 1.350 . S
C393 H380 0.929 . S
C393 C385 1.433 . S
C393 N395 1.384 . S
N394 C390 1.427 . S
N394 C391 1.384 . S
N395 C387 1.427 . S
N395 C393 1.384 . S
H396 C402 0.930 . S
H397 C406 0.930 . S
H398 C411 0.929 . S
H399 C409 0.929 . S
H400 C404 0.929 1_655 S
H401 C410 0.929 . S
C402 H396 0.930 . S
C402 C403 1.367 . S
C402 C410 1.378 . S
C403 C402 1.367 . S
C403 C411 1.433 . S
C404 H400 0.929 1_455 S
C404 C406 1.378 . S
C404 C408 1.350 1_455 S
C405 C408 1.463 . S
C405 C410 1.350 . S
C405 N413 1.427 . S
C406 H397 0.930 . S
C406 C404 1.378 . S
C406 C407 1.367 . S
C407 C406 1.367 . S
C407 C409 1.433 . S
C408 C404 1.350 1_655 S
C408 C405 1.463 . S
C408 N412 1.427 . S
C409 H399 0.929 . S
C409 C407 1.433 . S
C409 N412 1.384 1_455 S
C410 H401 0.929 . S
C410 C402 1.378 . S
C410 C405 1.350 . S
C411 H398 0.929 . S
C411 C403 1.433 . S
C411 N413 1.384 . S
N412 C408 1.427 . S
N412 C409 1.384 1_655 S
N413 C405 1.427 . S
N413 C411 1.384 . S
H414 C420 0.930 . S
H415 C424 0.930 . S
H416 C429 0.929 . S
H417 C427 0.929 1_565 S
H418 C422 0.929 . S
H419 C428 0.929 . S
C420 H414 0.930 . S
C420 C421 1.367 . S
C420 C428 1.378 . S
C421 C420 1.367 . S
C421 C429 1.433 . S
C422 H418 0.929 . S
C422 C424 1.378 . S
C422 C426 1.350 . S
C423 C426 1.463 . S
C423 C428 1.350 . S
C423 N431 1.427 . S
C424 H415 0.930 . S
C424 C422 1.378 . S
C424 C425 1.367 . S
C425 C424 1.367 . S
C425 C427 1.433 . S
C426 C422 1.350 . S
C426 C423 1.463 . S
C426 N430 1.427 . S
C427 H417 0.929 1_545 S
C427 C425 1.433 . S
C427 N430 1.384 . S
C428 H419 0.929 . S
C428 C420 1.378 . S
C428 C423 1.350 . S
C429 H416 0.929 . S
C429 C421 1.433 . S
C429 N431 1.384 . S
N430 C426 1.427 . S
N430 C427 1.384 . S
N431 C423 1.427 . S
N431 C429 1.384 . S
H432 C438 0.930 1_455 S
H433 C442 0.930 . S
H434 C447 0.929 1_455 S
H435 C445 0.929 . S
H436 C440 0.929 . S
H437 C446 0.929 . S
C438 H432 0.930 1_655 S
C438 C439 1.367 1_655 S
C438 C446 1.378 . S
C439 C438 1.367 1_455 S
C439 C447 1.433 1_455 S
C440 H436 0.929 . S
C440 C442 1.378 1_545 S
C440 C444 1.350 . S
C441 C444 1.463 . S
C441 C446 1.350 . S
C441 N449 1.427 . S
C442 H433 0.930 . S
C442 C440 1.378 1_565 S
C442 C443 1.367 . S
C443 C442 1.367 . S
C443 C445 1.433 . S
C444 C440 1.350 . S
C444 C441 1.463 . S
C444 N448 1.427 . S
C445 H435 0.929 . S
C445 C443 1.433 . S
C445 N448 1.384 1_565 S
C446 H437 0.929 . S
C446 C438 1.378 . S
C446 C441 1.350 . S
C447 H434 0.929 1_655 S
C447 C439 1.433 1_655 S
C447 N449 1.384 . S
N448 C444 1.427 . S
N448 C445 1.384 1_545 S
N449 C441 1.427 . S
N449 C447 1.384 . S
H450 C456 0.930 . S
H451 C460 0.930 . S
H452 C465 0.929 . S
H453 C463 0.929 . S
H454 C458 0.929 . S
H455 C464 0.929 . S
C456 H450 0.930 . S
C456 C457 1.367 . S
C456 C464 1.378 . S
C457 C456 1.367 . S
C457 C465 1.433 . S
C458 H454 0.929 . S
C458 C460 1.378 . S
C458 C462 1.350 . S
C459 C462 1.463 . S
C459 C464 1.350 . S
C459 N467 1.427 . S
C460 H451 0.930 . S
C460 C458 1.378 . S
C460 C461 1.367 . S
C461 C460 1.367 . S
C461 C463 1.433 . S
C462 C458 1.350 . S
C462 C459 1.463 . S
C462 N466 1.427 . S
C463 H453 0.929 . S
C463 C461 1.433 . S
C463 N466 1.384 . S
C464 H455 0.929 . S
C464 C456 1.378 . S
C464 C459 1.350 . S
C465 H452 0.929 . S
C465 C457 1.433 . S
C465 N467 1.384 . S
N466 C462 1.427 . S
N466 C463 1.384 . S
N467 C459 1.427 . S
N467 C465 1.384 . S
H468 C474 0.930 . S
H469 C478 0.930 . S
H470 C483 0.929 . S
H471 C481 0.929 . S
H472 C476 0.929 . S
H473 C482 0.929 . S
C474 H468 0.930 . S
C474 C475 1.367 . S
C474 C482 1.378 . S
C475 C474 1.367 . S
C475 C483 1.433 . S
C476 H472 0.929 . S
C476 C478 1.378 . S
C476 C480 1.350 . S
C477 C480 1.463 . S
C477 C482 1.350 . S
C477 N485 1.427 . S
C478 H469 0.930 . S
C478 C476 1.378 . S
C478 C479 1.367 . S
C479 C478 1.367 . S
C479 C481 1.433 . S
C480 C476 1.350 . S
C480 C477 1.463 . S
C480 N484 1.427 . S
C481 H471 0.929 . S
C481 C479 1.433 . S
C481 N484 1.384 . S
C482 H473 0.929 . S
C482 C474 1.378 . S
C482 C477 1.350 . S
C483 H470 0.929 . S
C483 C475 1.433 . S
C483 N485 1.384 . S
N484 C480 1.427 . S
N484 C481 1.384 . S
N485 C477 1.427 . S
N485 C483 1.384 . S
H486 C492 0.930 . S
H487 C496 0.930 . S
H488 C501 0.929 . S
H489 C499 0.929 . S
H490 C494 0.929 . S
H491 C500 0.929 . S
C492 H486 0.930 . S
C492 C493 1.367 . S
C492 C500 1.378 . S
C493 C492 1.367 . S
C493 C501 1.433 . S
C494 H490 0.929 . S
C494 C496 1.378 . S
C494 C498 1.350 . S
C495 C498 1.463 . S
C495 C500 1.350 . S
C495 N503 1.427 . S
C496 H487 0.930 . S
C496 C494 1.378 . S
C496 C497 1.367 . S
C497 C496 1.367 . S
C497 C499 1.433 . S
C498 C494 1.350 . S
C498 C495 1.463 . S
C498 N502 1.427 . S
C499 H489 0.929 . S
C499 C497 1.433 . S
C499 N502 1.384 . S
C500 H491 0.929 . S
C500 C492 1.378 . S
C500 C495 1.350 . S
C501 H488 0.929 . S
C501 C493 1.433 . S
C501 N503 1.384 . S
N502 C498 1.427 . S
N502 C499 1.384 . S
N503 C495 1.427 . S
N503 C501 1.384 . S
H504 C510 0.930 . S
H505 C514 0.930 . S
H506 C519 0.929 . S
H507 C517 0.929 . S
H508 C512 0.929 . S
H509 C518 0.929 . S
C510 H504 0.930 . S
C510 C511 1.367 . S
C510 C518 1.378 . S
C511 C510 1.367 . S
C511 C519 1.433 . S
C512 H508 0.929 . S
C512 C514 1.378 . S
C512 C516 1.350 . S
C513 C516 1.463 . S
C513 C518 1.350 . S
C513 N521 1.427 . S
C514 H505 0.930 . S
C514 C512 1.378 . S
C514 C515 1.367 . S
C515 C514 1.367 . S
C515 C517 1.433 . S
C516 C512 1.350 . S
C516 C513 1.463 . S
C516 N520 1.427 . S
C517 H507 0.929 . S
C517 C515 1.433 . S
C517 N520 1.384 . S
C518 H509 0.929 . S
C518 C510 1.378 . S
C518 C513 1.350 . S
C519 H506 0.929 . S
C519 C511 1.433 . S
C519 N521 1.384 . S
N520 C516 1.427 . S
N520 C517 1.384 . S
N521 C513 1.427 . S
N521 C519 1.384 . S
H522 C528 0.930 . S
H523 C532 0.930 . S
H524 C537 0.929 . S
H525 C535 0.929 . S
H526 C530 0.929 . S
H527 C536 0.929 . S
C528 H522 0.930 . S
C528 C529 1.367 . S
C528 C536 1.378 . S
C529 C528 1.367 . S
C529 C537 1.433 . S
C530 H526 0.929 . S
C530 C532 1.378 . S
C530 C534 1.350 . S
C531 C534 1.463 . S
C531 C536 1.350 . S
C531 N539 1.427 . S
C532 H523 0.930 . S
C532 C530 1.378 . S
C532 C533 1.367 . S
C533 C532 1.367 . S
C533 C535 1.433 . S
C534 C530 1.350 . S
C534 C531 1.463 . S
C534 N538 1.427 . S
C535 H525 0.929 . S
C535 C533 1.433 . S
C535 N538 1.384 . S
C536 H527 0.929 . S
C536 C528 1.378 . S
C536 C531 1.350 . S
C537 H524 0.929 . S
C537 C529 1.433 . S
C537 N539 1.384 . S
N538 C534 1.427 . S
N538 C535 1.384 . S
N539 C531 1.427 . S
N539 C537 1.384 . S
H540 C546 0.930 . S
H541 C550 0.930 . S
H542 C555 0.929 . S
H543 C553 0.929 . S
H544 C548 0.929 . S
H545 C554 0.929 . S
C546 H540 0.930 . S
C546 C547 1.367 . S
C546 C554 1.378 . S
C547 C546 1.367 . S
C547 C555 1.433 . S
C548 H544 0.929 . S
C548 C550 1.378 . S
C548 C552 1.350 . S
C549 C552 1.463 . S
C549 C554 1.350 . S
C549 N557 1.427 . S
C550 H541 0.930 . S
C550 C548 1.378 . S
C550 C551 1.367 . S
C551 C550 1.367 . S
C551 C553 1.433 . S
C552 C548 1.350 . S
C552 C549 1.463 . S
C552 N556 1.427 . S
C553 H543 0.929 . S
C553 C551 1.433 . S
C553 N556 1.384 . S
C554 H545 0.929 . S
C554 C546 1.378 . S
C554 C549 1.350 . S
C555 H542 0.929 . S
C555 C547 1.433 . S
C555 N557 1.384 . S
N556 C552 1.427 . S
N556 C553 1.384 . S
N557 C549 1.427 . S
N557 C555 1.384 . S
H558 C564 0.930 . S
H559 C568 0.930 . S
H560 C573 0.929 . S
H561 C571 0.929 . S
H562 C566 0.929 1_565 S
H563 C572 0.929 . S
C564 H558 0.930 . S
C564 C565 1.367 . S
C564 C572 1.378 . S
C565 C564 1.367 . S
C565 C573 1.433 . S
C566 H562 0.929 1_545 S
C566 C568 1.378 . S
C566 C570 1.350 1_545 S
C567 C570 1.463 . S
C567 C572 1.350 . S
C567 N575 1.427 . S
C568 H559 0.930 . S
C568 C566 1.378 . S
C568 C569 1.367 . S
C569 C568 1.367 . S
C569 C571 1.433 . S
C570 C566 1.350 1_565 S
C570 C567 1.463 . S
C570 N574 1.427 . S
C571 H561 0.929 . S
C571 C569 1.433 . S
C571 N574 1.384 1_545 S
C572 H563 0.929 . S
C572 C564 1.378 . S
C572 C567 1.350 . S
C573 H560 0.929 . S
C573 C565 1.433 . S
C573 N575 1.384 . S
N574 C570 1.427 . S
N574 C571 1.384 1_565 S
N575 C567 1.427 . S
N575 C573 1.384 . S
H576 C582 0.934 1_655 S
H577 C586 0.930 . S
H578 C591 0.929 . S
H579 C589 0.929 . S
H580 C584 0.929 . S
H581 C590 0.929 . S
C582 H576 0.934 1_455 S
C582 C583 1.347 1_455 S
C582 C590 1.394 . S
C583 C582 1.347 1_655 S
C583 C591 1.433 . S
C584 H580 0.929 . S
C584 C586 1.378 1_565 S
C584 C588 1.350 . S
C585 C588 1.463 . S
C585 C590 1.350 . S
C585 N593 1.427 . S
C586 H577 0.930 . S
C586 C584 1.378 1_545 S
C586 C587 1.367 . S
C587 C586 1.367 . S
C587 C589 1.433 1_545 S
C588 C584 1.350 . S
C588 C585 1.463 . S
C588 N592 1.427 . S
C589 H579 0.929 . S
C589 C587 1.433 1_565 S
C589 N592 1.384 . S
C590 H581 0.929 . S
C590 C582 1.394 . S
C590 C585 1.350 . S
C591 H578 0.929 . S
C591 C583 1.433 . S
C591 N593 1.384 1_655 S
N592 C588 1.427 . S
N592 C589 1.384 . S
N593 C585 1.427 . S
N593 C591 1.384 1_455 S
H594 C600 0.930 . S
H595 C604 0.930 . S
H596 C609 0.929 . S
H597 C607 0.929 1_655 S
H598 C602 0.929 . S
H599 C608 0.929 . S
C600 H594 0.930 . S
C600 C601 1.367 . S
C600 C608 1.378 . S
C601 C600 1.367 . S
C601 C609 1.433 . S
C602 H598 0.929 . S
C602 C604 1.378 . S
C602 C606 1.350 . S
C603 C606 1.463 . S
C603 C608 1.350 . S
C603 N611 1.427 . S
C604 H595 0.930 . S
C604 C602 1.378 . S
C604 C605 1.367 . S
C605 C604 1.367 . S
C605 C607 1.433 . S
C606 C602 1.350 . S
C606 C603 1.463 . S
C606 N610 1.427 . S
C607 H597 0.929 1_455 S
C607 C605 1.433 . S
C607 N610 1.384 . S
C608 H599 0.929 . S
C608 C600 1.378 . S
C608 C603 1.350 . S
C609 H596 0.929 . S
C609 C601 1.433 . S
C609 N611 1.384 . S
N610 C606 1.427 . S
N610 C607 1.384 . S
N611 C603 1.427 . S
N611 C609 1.384 . S
H612 C618 0.930 . S
H613 C622 0.930 . S
H614 C627 0.929 . S
H615 C625 0.929 . S
H616 C620 0.929 . S
H617 C626 0.929 . S
C618 H612 0.930 . S
C618 C619 1.367 . S
C618 C626 1.378 . S
C619 C618 1.367 . S
C619 C627 1.433 . S
C620 H616 0.929 . S
C620 C622 1.378 . S
C620 C624 1.350 . S
C621 C624 1.463 . S
C621 C626 1.350 . S
C621 N629 1.427 . S
C622 H613 0.930 . S
C622 C620 1.378 . S
C622 C623 1.367 . S
C623 C622 1.367 . S
C623 C625 1.433 . S
C624 C620 1.350 . S
C624 C621 1.463 . S
C624 N628 1.427 . S
C625 H615 0.929 . S
C625 C623 1.433 . S
C625 N628 1.384 . S
C626 H617 0.929 . S
C626 C618 1.378 . S
C626 C621 1.350 . S
C627 H614 0.929 . S
C627 C619 1.433 . S
C627 N629 1.384 . S
N628 C624 1.427 . S
N628 C625 1.384 . S
N629 C621 1.427 . S
N629 C627 1.384 . S
H630 C636 0.930 . S
H631 C640 0.930 . S
H632 C645 0.929 . S
H633 C643 0.929 . S
H634 C638 0.929 . S
H635 C644 0.929 . S
C636 H630 0.930 . S
C636 C637 1.367 . S
C636 C644 1.378 . S
C637 C636 1.367 . S
C637 C645 1.433 . S
C638 H634 0.929 . S
C638 C640 1.378 . S
C638 C642 1.350 . S
C639 C642 1.463 . S
C639 C644 1.350 . S
C639 N647 1.427 . S
C640 H631 0.930 . S
C640 C638 1.378 . S
C640 C641 1.367 . S
C641 C640 1.367 . S
C641 C643 1.433 . S
C642 C638 1.350 . S
C642 C639 1.463 . S
C642 N646 1.427 . S
C643 H633 0.929 . S
C643 C641 1.433 . S
C643 N646 1.384 . S
C644 H635 0.929 . S
C644 C636 1.378 . S
C644 C639 1.350 . S
C645 H632 0.929 . S
C645 C637 1.433 . S
C645 N647 1.384 . S
N646 C642 1.427 . S
N646 C643 1.384 . S
N647 C639 1.427 . S
N647 C645 1.384 . S
H648 C654 0.930 . S
H649 C658 0.930 . S
H650 C663 0.929 . S
H651 C661 0.929 . S
H652 C656 0.929 . S
H653 C662 0.929 1_545 S
C654 H648 0.930 . S
C654 C655 1.367 1_545 S
C654 C662 1.378 1_545 S
C655 C654 1.367 1_565 S
C655 C663 1.433 . S
C656 H652 0.929 . S
C656 C658 1.378 . S
C656 C660 1.350 . S
C657 C660 1.463 . S
C657 C662 1.350 . S
C657 N665 1.427 . S
C658 H649 0.930 . S
C658 C656 1.378 . S
C658 C659 1.367 . S
C659 C658 1.367 . S
C659 C661 1.433 . S
C660 C656 1.350 . S
C660 C657 1.463 . S
C660 N664 1.427 . S
C661 H651 0.929 . S
C661 C659 1.433 . S
C661 N664 1.384 . S
C662 H653 0.929 1_565 S
C662 C654 1.378 1_565 S
C662 C657 1.350 . S
C663 H650 0.929 . S
C663 C655 1.433 . S
C663 N665 1.384 . S
N664 C660 1.427 . S
N664 C661 1.384 . S
N665 C657 1.427 . S
N665 C663 1.384 . S
H666 C672 0.930 . S
H667 C676 0.930 . S
H668 C681 0.929 . S
H669 C679 0.929 . S
H670 C674 0.929 . S
H671 C680 0.929 . S
C672 H666 0.930 . S
C672 C673 1.367 . S
C672 C680 1.378 . S
C673 C672 1.367 . S
C673 C681 1.433 . S
C674 H670 0.929 . S
C674 C676 1.378 . S
C674 C678 1.350 . S
C675 C678 1.463 . S
C675 C680 1.350 . S
C675 N683 1.427 . S
C676 H667 0.930 . S
C676 C674 1.378 . S
C676 C677 1.367 . S
C677 C676 1.367 . S
C677 C679 1.433 . S
C678 C674 1.350 . S
C678 C675 1.463 . S
C678 N682 1.427 . S
C679 H669 0.929 . S
C679 C677 1.433 . S
C679 N682 1.384 . S
C680 H671 0.929 . S
C680 C672 1.378 . S
C680 C675 1.350 . S
C681 H668 0.929 . S
C681 C673 1.433 . S
C681 N683 1.384 . S
N682 C678 1.427 . S
N682 C679 1.384 . S
N683 C675 1.427 . S
N683 C681 1.384 . S
H684 C690 0.930 . S
H685 C694 0.930 . S
H686 C699 0.929 . S
H687 C697 0.929 . S
H688 C692 0.929 . S
H689 C698 0.929 1_455 S
C690 H684 0.930 . S
C690 C691 1.367 1_455 S
C690 C698 1.378 1_455 S
C691 C690 1.367 1_655 S
C691 C699 1.433 . S
C692 H688 0.929 . S
C692 C694 1.378 . S
C692 C696 1.350 . S
C693 C696 1.463 . S
C693 C698 1.350 . S
C693 N701 1.427 . S
C694 H685 0.930 . S
C694 C692 1.378 . S
C694 C695 1.367 . S
C695 C694 1.367 . S
C695 C697 1.433 . S
C696 C692 1.350 . S
C696 C693 1.463 . S
C696 N700 1.427 . S
C697 H687 0.929 . S
C697 C695 1.433 . S
C697 N700 1.384 . S
C698 H689 0.929 1_655 S
C698 C690 1.378 1_655 S
C698 C693 1.350 . S
C699 H686 0.929 . S
C699 C691 1.433 . S
C699 N701 1.384 . S
N700 C696 1.427 . S
N700 C697 1.384 . S
N701 C693 1.427 . S
N701 C699 1.384 . S
H702 C708 0.930 . S
H703 C712 0.930 . S
H704 C717 0.929 . S
H705 C715 0.929 . S
H706 C710 0.929 . S
H707 C716 0.929 . S
C708 H702 0.930 . S
C708 C709 1.367 . S
C708 C716 1.378 . S
C709 C708 1.367 . S
C709 C717 1.433 . S
C710 H706 0.929 . S
C710 C712 1.378 . S
C710 C714 1.350 . S
C711 C714 1.463 . S
C711 C716 1.350 . S
C711 N719 1.427 . S
C712 H703 0.930 . S
C712 C710 1.378 . S
C712 C713 1.367 . S
C713 C712 1.367 . S
C713 C715 1.433 . S
C714 C710 1.350 . S
C714 C711 1.463 . S
C714 N718 1.427 . S
C715 H705 0.929 . S
C715 C713 1.433 . S
C715 N718 1.384 . S
C716 H707 0.929 . S
C716 C708 1.378 . S
C716 C711 1.350 . S
C717 H704 0.929 . S
C717 C709 1.433 . S
C717 N719 1.384 . S
N718 C714 1.427 . S
N718 C715 1.384 . S
N719 C711 1.427 . S
N719 C717 1.384 . S
H720 C726 0.930 . S
H721 C730 0.930 . S
H722 C735 0.929 . S
H723 C733 0.929 . S
H724 C728 0.929 . S
H725 C734 0.929 . S
C726 H720 0.930 . S
C726 C727 1.367 . S
C726 C734 1.378 . S
C727 C726 1.367 . S
C727 C735 1.433 . S
C728 H724 0.929 . S
C728 C730 1.378 . S
C728 C732 1.350 . S
C729 C732 1.463 . S
C729 C734 1.350 . S
C729 N737 1.427 . S
C730 H721 0.930 . S
C730 C728 1.378 . S
C730 C731 1.367 . S
C731 C730 1.367 . S
C731 C733 1.433 . S
C732 C728 1.350 . S
C732 C729 1.463 . S
C732 N736 1.427 . S
C733 H723 0.929 . S
C733 C731 1.433 . S
C733 N736 1.384 . S
C734 H725 0.929 . S
C734 C726 1.378 . S
C734 C729 1.350 . S
C735 H722 0.929 . S
C735 C727 1.433 . S
C735 N737 1.384 . S
N736 C732 1.427 . S
N736 C733 1.384 . S
N737 C729 1.427 . S
N737 C735 1.384 . S
H738 C744 0.930 . S
H739 C748 0.930 . S
H740 C753 0.929 . S
H741 C751 0.929 . S
H742 C746 0.929 1_565 S
H743 C752 0.929 . S
C744 H738 0.930 . S
C744 C745 1.367 1_545 S
C744 C752 1.378 . S
C745 C744 1.367 1_565 S
C745 C753 1.433 . S
C746 H742 0.929 1_545 S
C746 C748 1.378 . S
C746 C750 1.350 . S
C747 C750 1.463 . S
C747 C752 1.350 . S
C747 N755 1.427 1_545 S
C748 H739 0.930 . S
C748 C746 1.378 . S
C748 C749 1.367 . S
C749 C748 1.367 . S
C749 C751 1.433 . S
C750 C746 1.350 . S
C750 C747 1.463 . S
C750 N754 1.427 . S
C751 H741 0.929 . S
C751 C749 1.433 . S
C751 N754 1.384 . S
C752 H743 0.929 . S
C752 C744 1.378 . S
C752 C747 1.350 . S
C753 H740 0.929 . S
C753 C745 1.433 . S
C753 N755 1.384 . S
N754 C750 1.427 . S
N754 C751 1.384 . S
N755 C747 1.427 1_565 S
N755 C753 1.384 . S
H756 C762 0.930 1_455 S
H757 C766 0.930 . S
H758 C771 0.929 . S
H759 C769 0.929 . S
H760 C764 0.929 1_655 S
H761 C770 0.929 . S
C762 H756 0.930 1_655 S
C762 C763 1.367 . S
C762 C770 1.378 1_655 S
C763 C762 1.367 . S
C763 C771 1.433 . S
C764 H760 0.929 1_455 S
C764 C766 1.378 . S
C764 C768 1.350 . S
C765 C768 1.463 . S
C765 C770 1.350 . S
C765 N773 1.427 1_455 S
C766 H757 0.930 . S
C766 C764 1.378 . S
C766 C767 1.367 . S
C767 C766 1.367 . S
C767 C769 1.433 . S
C768 C764 1.350 . S
C768 C765 1.463 . S
C768 N772 1.427 . S
C769 H759 0.929 . S
C769 C767 1.433 . S
C769 N772 1.384 . S
C770 H761 0.929 . S
C770 C762 1.378 1_455 S
C770 C765 1.350 . S
C771 H758 0.929 . S
C771 C763 1.433 . S
C771 N773 1.384 . S
N772 C768 1.427 . S
N772 C769 1.384 . S
N773 C765 1.427 1_655 S
N773 C771 1.384 . S
C295 C36 1.111 . S
C299 C2 1.101 . S
C313 C93 1.109 . S
C317 C34 1.099 . S
C331 C70 1.094 . S
C335 C4 1.107 . S
C349 C66 1.097 . S
C353 C61 1.110 . S
C367 C68 1.112 . S
C371 C6 1.104 . S
C385 C29 1.113 . S
C389 C38 1.105 . S
C403 C98 1.105 . S
C407 C157 1.114 . S
C421 C164 1.112 . S
C425 C134 1.104 1_545 S
C439 C162 1.098 . S
C443 C100 1.109 . S
C457 C132 1.111 . S
C461 C166 1.102 . S
C475 C189 1.109 . S
C479 C102 1.099 . S
C493 C130 1.092 . S
C497 C125 1.106 . S
C511 C253 1.114 . S
C515 C198 1.106 . S
C529 C230 1.102 . S
C533 C260 1.111 . S
C547 C258 1.103 . S
C551 C221 1.113 . S
C565 C262 1.101 . S
C569 C228 1.110 . S
C583 C285 1.106 . S
C587 C194 1.093 . S
C601 C196 1.112 . S
C605 C226 1.103 1_455 S
C619 N173 1.845 . S
C623 N18 1.853 . S
C637 N109 1.849 . S
C641 N50 1.847 . S
C655 N77 1.844 . S
C659 N146 1.854 . S
C673 N82 1.854 . S
C677 N205 1.844 . S
C691 N13 1.846 . S
C695 N237 1.853 . S
C709 N274 1.851 . S
C713 N45 1.846 . S
C727 N114 1.850 . S
C731 N269 1.849 . S
C745 N141 1.847 . S
C749 N210 1.848 . S
C763 N242 1.844 . S
C767 N178 1.852 . S
