# Generated by pormake.
# Topology gme, (4)-cn, num edge types: 1
# Building blocks:
#     Node 0, Type 0, BuildingBlock: NAHDIM_clean_sbu_0, # of connection points: 4
#     Node 1, Type 0, BuildingBlock: NAHDIM_clean_sbu_0, # of connection points: 4
#     Node 2, Type 0, BuildingBlock: NAHDIM_clean_sbu_0, # of connection points: 4
#     Node 3, Type 0, BuildingBlock: NAHDIM_clean_sbu_0, # of connection points: 4
#     Node 4, Type 0, BuildingBlock: NAHDIM_clean_sbu_0, # of connection points: 4
#     Node 5, Type 0, BuildingBlock: NAHDIM_clean_sbu_0, # of connection points: 4
#     Node 6, Type 0, BuildingBlock: NAHDIM_clean_sbu_0, # of connection points: 4
#     Node 7, Type 0, BuildingBlock: NAHDIM_clean_sbu_0, # of connection points: 4
#     Node 8, Type 0, BuildingBlock: NAHDIM_clean_sbu_0, # of connection points: 4
#     Node 9, Type 0, BuildingBlock: NAHDIM_clean_sbu_0, # of connection points: 4
#     Node 10, Type 0, BuildingBlock: NAHDIM_clean_sbu_0, # of connection points: 4
#     Node 11, Type 0, BuildingBlock: NAHDIM_clean_sbu_0, # of connection points: 4
#     Node 12, Type 0, BuildingBlock: NAHDIM_clean_sbu_0, # of connection points: 4
#     Node 13, Type 0, BuildingBlock: NAHDIM_clean_sbu_0, # of connection points: 4
#     Node 14, Type 0, BuildingBlock: NAHDIM_clean_sbu_0, # of connection points: 4
#     Node 15, Type 0, BuildingBlock: NAHDIM_clean_sbu_0, # of connection points: 4
#     Node 16, Type 0, BuildingBlock: NAHDIM_clean_sbu_0, # of connection points: 4
#     Node 17, Type 0, BuildingBlock: NAHDIM_clean_sbu_0, # of connection points: 4
#     Node 18, Type 0, BuildingBlock: NAHDIM_clean_sbu_0, # of connection points: 4
#     Node 19, Type 0, BuildingBlock: NAHDIM_clean_sbu_0, # of connection points: 4
#     Node 20, Type 0, BuildingBlock: NAHDIM_clean_sbu_0, # of connection points: 4
#     Node 21, Type 0, BuildingBlock: NAHDIM_clean_sbu_0, # of connection points: 4
#     Node 22, Type 0, BuildingBlock: NAHDIM_clean_sbu_0, # of connection points: 4
#     Node 23, Type 0, BuildingBlock: NAHDIM_clean_sbu_0, # of connection points: 4
#     Edge 24, Type (0, 0), BuildingBlock: XUDNAN_clean_linker_2, # of connection points: 2
#     Edge 25, Type (0, 0), BuildingBlock: XUDNAN_clean_linker_2, # of connection points: 2
#     Edge 26, Type (0, 0), BuildingBlock: XUDNAN_clean_linker_2, # of connection points: 2
#     Edge 27, Type (0, 0), BuildingBlock: XUDNAN_clean_linker_2, # of connection points: 2
#     Edge 28, Type (0, 0), BuildingBlock: XUDNAN_clean_linker_2, # of connection points: 2
#     Edge 29, Type (0, 0), BuildingBlock: XUDNAN_clean_linker_2, # of connection points: 2
#     Edge 30, Type (0, 0), BuildingBlock: XUDNAN_clean_linker_2, # of connection points: 2
#     Edge 31, Type (0, 0), BuildingBlock: XUDNAN_clean_linker_2, # of connection points: 2
#     Edge 32, Type (0, 0), BuildingBlock: XUDNAN_clean_linker_2, # of connection points: 2
#     Edge 33, Type (0, 0), BuildingBlock: XUDNAN_clean_linker_2, # of connection points: 2
#     Edge 34, Type (0, 0), BuildingBlock: XUDNAN_clean_linker_2, # of connection points: 2
#     Edge 35, Type (0, 0), BuildingBlock: XUDNAN_clean_linker_2, # of connection points: 2
#     Edge 36, Type (0, 0), BuildingBlock: XUDNAN_clean_linker_2, # of connection points: 2
#     Edge 37, Type (0, 0), BuildingBlock: XUDNAN_clean_linker_2, # of connection points: 2
#     Edge 38, Type (0, 0), BuildingBlock: XUDNAN_clean_linker_2, # of connection points: 2
#     Edge 39, Type (0, 0), BuildingBlock: XUDNAN_clean_linker_2, # of connection points: 2
#     Edge 40, Type (0, 0), BuildingBlock: XUDNAN_clean_linker_2, # of connection points: 2
#     Edge 41, Type (0, 0), BuildingBlock: XUDNAN_clean_linker_2, # of connection points: 2
#     Edge 42, Type (0, 0), BuildingBlock: XUDNAN_clean_linker_2, # of connection points: 2
#     Edge 43, Type (0, 0), BuildingBlock: XUDNAN_clean_linker_2, # of connection points: 2
#     Edge 44, Type (0, 0), BuildingBlock: XUDNAN_clean_linker_2, # of connection points: 2
#     Edge 45, Type (0, 0), BuildingBlock: XUDNAN_clean_linker_2, # of connection points: 2
#     Edge 46, Type (0, 0), BuildingBlock: XUDNAN_clean_linker_2, # of connection points: 2
#     Edge 47, Type (0, 0), BuildingBlock: XUDNAN_clean_linker_2, # of connection points: 2
#     Edge 48, Type (0, 0), BuildingBlock: XUDNAN_clean_linker_2, # of connection points: 2
#     Edge 49, Type (0, 0), BuildingBlock: XUDNAN_clean_linker_2, # of connection points: 2
#     Edge 50, Type (0, 0), BuildingBlock: XUDNAN_clean_linker_2, # of connection points: 2
#     Edge 51, Type (0, 0), BuildingBlock: XUDNAN_clean_linker_2, # of connection points: 2
#     Edge 52, Type (0, 0), BuildingBlock: XUDNAN_clean_linker_2, # of connection points: 2
#     Edge 53, Type (0, 0), BuildingBlock: XUDNAN_clean_linker_2, # of connection points: 2
#     Edge 54, Type (0, 0), BuildingBlock: XUDNAN_clean_linker_2, # of connection points: 2
#     Edge 55, Type (0, 0), BuildingBlock: XUDNAN_clean_linker_2, # of connection points: 2
#     Edge 56, Type (0, 0), BuildingBlock: XUDNAN_clean_linker_2, # of connection points: 2
#     Edge 57, Type (0, 0), BuildingBlock: XUDNAN_clean_linker_2, # of connection points: 2
#     Edge 58, Type (0, 0), BuildingBlock: XUDNAN_clean_linker_2, # of connection points: 2
#     Edge 59, Type (0, 0), BuildingBlock: XUDNAN_clean_linker_2, # of connection points: 2
#     Edge 60, Type (0, 0), BuildingBlock: XUDNAN_clean_linker_2, # of connection points: 2
#     Edge 61, Type (0, 0), BuildingBlock: XUDNAN_clean_linker_2, # of connection points: 2
#     Edge 62, Type (0, 0), BuildingBlock: XUDNAN_clean_linker_2, # of connection points: 2
#     Edge 63, Type (0, 0), BuildingBlock: XUDNAN_clean_linker_2, # of connection points: 2
#     Edge 64, Type (0, 0), BuildingBlock: XUDNAN_clean_linker_2, # of connection points: 2
#     Edge 65, Type (0, 0), BuildingBlock: XUDNAN_clean_linker_2, # of connection points: 2
#     Edge 66, Type (0, 0), BuildingBlock: XUDNAN_clean_linker_2, # of connection points: 2
#     Edge 67, Type (0, 0), BuildingBlock: XUDNAN_clean_linker_2, # of connection points: 2
#     Edge 68, Type (0, 0), BuildingBlock: XUDNAN_clean_linker_2, # of connection points: 2
#     Edge 69, Type (0, 0), BuildingBlock: XUDNAN_clean_linker_2, # of connection points: 2
#     Edge 70, Type (0, 0), BuildingBlock: XUDNAN_clean_linker_2, # of connection points: 2
#     Edge 71, Type (0, 0), BuildingBlock: XUDNAN_clean_linker_2, # of connection points: 2
# Relax obj value: 0.157
# Max RMSD: 0.150
# Mean RMSD: 0.150
data_MOF--net-gme--node1-NAHDIM_clean_sbu_0--edge1-XUDNAN_clean_linker_2
_symmetry_space_group_name_H-M    P1
_symmetry_Int_Tables_number       1
_symmetry_cell_setting            triclinic
loop_
_symmetry_equiv_pos_as_xyz
'x, y, z'
_cell_length_a     62.142562
_cell_length_b     62.165229
_cell_length_c     51.05821
_cell_angle_alpha  90.000857
_cell_angle_beta   90.023557
_cell_angle_gamma 120.04618
loop_
_atom_site_label
_atom_site_type_symbol
_atom_site_fract_x
_atom_site_fract_y
_atom_site_fract_z
_atom_type_partial_charge
C0 C 0.37829 0.0599 0.04662 0.0
O1 O 0.39722 0.07943 0.03589 0.0
O2 O 0.39837 0.11963 0.08098 0.0
Zn3 Zn 0.40049 0.08946 0.09099 0.0
O4 O 0.43413 0.09379 0.08231 0.0
C5 C 0.39986 0.10091 0.14547 0.0
O6 O 0.40828 0.12344 0.1362 0.0
O7 O 0.37498 0.05986 0.07114 0.0
C8 C 0.45273 0.10493 0.09752 0.0
O9 O 0.45038 0.1147 0.11937 0.0
C10 C 0.41634 0.13905 0.07101 0.0
O11 O 0.43736 0.13961 0.06608 0.0
O12 O 0.39464 0.08318 0.12965 0.0
C13 C 0.33454 0.38798 0.5669 0.0
O14 O 0.34646 0.41224 0.56414 0.0
O15 O 0.28392 0.40201 0.60051 0.0
Zn16 Zn 0.31411 0.40009 0.61082 0.0
O17 O 0.3438 0.43465 0.61021 0.0
C18 C 0.29228 0.3814 0.662 0.0
O19 O 0.27349 0.38312 0.65266 0.0
O20 O 0.31928 0.3782 0.5857 0.0
C21 C 0.34175 0.45313 0.61733 0.0
O22 O 0.32005 0.44938 0.62537 0.0
C23 C 0.28354 0.41185 0.57883 0.0
O24 O 0.30263 0.41976 0.56294 0.0
O25 O 0.31094 0.38708 0.64744 0.0
C26 C 0.91137 0.33937 0.06382 0.0
O27 O 0.88942 0.32586 0.05298 0.0
O28 O 0.85196 0.30995 0.09622 0.0
Zn29 Zn 0.88321 0.33968 0.10926 0.0
O30 O 0.87892 0.36955 0.10898 0.0
C31 C 0.8969 0.31874 0.15233 0.0
O32 O 0.90037 0.30619 0.13372 0.0
O33 O 0.91284 0.34676 0.08729 0.0
C34 C 0.86024 0.36867 0.12015 0.0
O35 O 0.84375 0.34793 0.13151 0.0
C36 C 0.83876 0.31179 0.07829 0.0
O37 O 0.84606 0.33353 0.06743 0.0
O38 O 0.88953 0.33382 0.1463 0.0
C39 C 0.5948 0.91873 0.55727 0.0
O40 O 0.59873 0.89996 0.55985 0.0
O41 O 0.55923 0.86353 0.59368 0.0
Zn42 Zn 0.56199 0.89638 0.60157 0.0
O43 O 0.52764 0.89128 0.60464 0.0
C44 C 0.59676 0.9059 0.64355 0.0
O45 O 0.60447 0.89416 0.62819 0.0
O46 O 0.58015 0.92088 0.57299 0.0
C47 C 0.51191 0.87425 0.61947 0.0
O48 O 0.51855 0.86027 0.63249 0.0
C49 C 0.54545 0.85009 0.57512 0.0
O50 O 0.53345 0.85824 0.56077 0.0
O51 O 0.57924 0.90928 0.6359 0.0
C52 C 0.65342 0.58888 0.06644 0.0
O53 O 0.64239 0.56473 0.06292 0.0
O54 O 0.70742 0.58057 0.10074 0.0
Zn55 Zn 0.67484 0.57768 0.11066 0.0
O56 O 0.64751 0.54185 0.10857 0.0
C57 C 0.68737 0.5839 0.165 0.0
O58 O 0.69766 0.57073 0.1582 0.0
O59 O 0.66795 0.59858 0.08585 0.0
C60 C 0.65139 0.52401 0.11337 0.0
O61 O 0.67387 0.52894 0.11985 0.0
C62 C 0.71016 0.57313 0.07847 0.0
O63 O 0.69141 0.56357 0.06198 0.0
O64 O 0.67656 0.58972 0.1476 0.0
C65 C 0.05977 0.65214 0.59021 0.0
O66 O 0.04938 0.64475 0.61334 0.0
O67 O 0.13882 0.70125 0.60842 0.0
Zn68 Zn 0.10692 0.67079 0.61797 0.0
O69 O 0.1129 0.64207 0.6216 0.0
C70 C 0.10652 0.69383 0.66701 0.0
O71 O 0.1289 0.71077 0.65945 0.0
O72 O 0.08328 0.66353 0.58827 0.0
C73 C 0.12701 0.64154 0.63928 0.0
O74 O 0.13808 0.66032 0.6556 0.0
C75 C 0.14951 0.70183 0.58701 0.0
O76 O 0.1396 0.68214 0.57179 0.0
O77 O 0.09344 0.67547 0.65206 0.0
C78 C 0.93319 0.58491 0.45203 0.0
O79 O 0.91086 0.57319 0.46242 0.0
O80 O 0.88038 0.57702 0.41619 0.0
Zn81 Zn 0.90543 0.5677 0.40437 0.0
O82 O 0.89195 0.53072 0.40554 0.0
C83 C 0.90035 0.58171 0.35208 0.0
O84 O 0.87835 0.57635 0.36087 0.0
O85 O 0.93547 0.58489 0.42732 0.0
C86 C 0.87315 0.51568 0.39209 0.0
O87 O 0.86159 0.52435 0.37782 0.0
C88 C 0.86043 0.56296 0.4285 0.0
O89 O 0.85519 0.54041 0.435 0.0
O90 O 0.91533 0.57951 0.3673 0.0
C91 C 0.32291 0.91844 0.92964 0.0
O92 O 0.30373 0.89578 0.92905 0.0
O93 O 0.31836 0.86681 0.89186 0.0
Zn94 Zn 0.34521 0.90245 0.88851 0.0
O95 O 0.37862 0.90548 0.89385 0.0
C96 C 0.32337 0.90543 0.84014 0.0
O97 O 0.30306 0.88757 0.85093 0.0
O98 O 0.34134 0.9243 0.91464 0.0
C99 C 0.38845 0.89863 0.87635 0.0
O100 O 0.37628 0.88898 0.85446 0.0
C101 C 0.31553 0.85353 0.91188 0.0
O102 O 0.33073 0.86329 0.93185 0.0
O103 O 0.34376 0.91474 0.85265 0.0
C104 C 0.40206 0.31818 0.44134 0.0
O105 O 0.3961 0.29531 0.43532 0.0
O106 O 0.44433 0.30081 0.41449 0.0
Zn107 Zn 0.4438 0.33199 0.40653 0.0
O108 O 0.47812 0.36134 0.41002 0.0
C109 C 0.43841 0.32059 0.35197 0.0
O110 O 0.45167 0.31029 0.35842 0.0
O111 O 0.42134 0.33624 0.43128 0.0
C112 C 0.48187 0.38211 0.40145 0.0
O113 O 0.46328 0.3834 0.39083 0.0
C114 C 0.45254 0.29739 0.43593 0.0
O115 O 0.46079 0.31476 0.454 0.0
O116 O 0.43224 0.33084 0.36965 0.0
C117 C 0.04172 0.39633 0.9306 0.0
O118 O 0.06559 0.4125 0.93252 0.0
O119 O 0.08692 0.40099 0.88787 0.0
Zn120 Zn 0.05652 0.40289 0.87827 0.0
O121 O 0.06621 0.43889 0.87386 0.0
C122 C 0.05084 0.37323 0.83227 0.0
O123 O 0.06775 0.36983 0.84392 0.0
O124 O 0.03239 0.38861 0.90803 0.0
C125 C 0.07159 0.44911 0.8514 0.0
O126 O 0.07073 0.43592 0.83091 0.0
C127 C 0.10799 0.4151 0.87754 0.0
O128 O 0.11011 0.43128 0.85972 0.0
O129 O 0.04209 0.38515 0.84414 0.0
C130 C 0.65203 0.05271 0.42776 0.0
O131 O 0.6477 0.07007 0.43647 0.0
O132 O 0.70428 0.11277 0.39514 0.0
Zn133 Zn 0.67046 0.08553 0.3841 0.0
O134 O 0.64477 0.09595 0.38891 0.0
C135 C 0.68535 0.09508 0.33018 0.0
O136 O 0.70158 0.11696 0.33963 0.0
O137 O 0.66163 0.05511 0.40524 0.0
C138 C 0.6489 0.11682 0.38015 0.0
O139 O 0.67034 0.13169 0.36893 0.0
C140 C 0.70771 0.12872 0.41263 0.0
O141 O 0.68849 0.1275 0.42475 0.0
O142 O 0.67061 0.07818 0.34578 0.0
C143 C 0.59421 0.66232 0.93536 0.0
O144 O 0.60035 0.68551 0.93087 0.0
O145 O 0.55612 0.68445 0.91234 0.0
Zn146 Zn 0.55352 0.65242 0.90114 0.0
O147 O 0.51794 0.62505 0.90446 0.0
C148 C 0.58376 0.6753 0.85529 0.0
O149 O 0.59803 0.69271 0.87203 0.0
O150 O 0.57509 0.64495 0.92423 0.0
C151 C 0.50734 0.609 0.88646 0.0
O152 O 0.51992 0.61026 0.86529 0.0
C153 C 0.54572 0.69349 0.89831 0.0
O154 O 0.53279 0.68099 0.87774 0.0
O155 O 0.56434 0.65613 0.86354 0.0
C156 C 0.62033 0.9442 0.93042 0.0
O157 O 0.59893 0.92589 0.93871 0.0
O158 O 0.59491 0.88401 0.89845 0.0
Zn159 Zn 0.60098 0.91675 0.88458 0.0
O160 O 0.56905 0.91766 0.88739 0.0
C161 C 0.61143 0.93505 0.83118 0.0
O162 O 0.60257 0.94928 0.83886 0.0
O163 O 0.62641 0.94432 0.90667 0.0
C164 C 0.55178 0.90972 0.8704 0.0
O165 O 0.55427 0.90032 0.84834 0.0
C166 C 0.58097 0.86472 0.88509 0.0
O167 O 0.57152 0.86715 0.86303 0.0
O168 O 0.61273 0.92028 0.84742 0.0
C169 C 0.6728 0.61103 0.45889 0.0
O170 O 0.68652 0.60128 0.46552 0.0
O171 O 0.71079 0.59759 0.41921 0.0
Zn172 Zn 0.67701 0.59239 0.40978 0.0
O173 O 0.65166 0.55612 0.41194 0.0
C174 C 0.686 0.59298 0.35638 0.0
O175 O 0.69307 0.57773 0.36552 0.0
O176 O 0.6667 0.61039 0.43501 0.0
C177 C 0.63004 0.54832 0.40265 0.0
O178 O 0.62474 0.56425 0.39176 0.0
C179 C 0.71336 0.58027 0.42919 0.0
O180 O 0.69352 0.55874 0.43422 0.0
O181 O 0.678 0.60302 0.37239 0.0
C182 C 0.06707 0.65601 0.92673 0.0
O183 O 0.0587 0.65908 0.90423 0.0
O184 O 0.14335 0.68569 0.90408 0.0
Zn185 Zn 0.10812 0.65961 0.89576 0.0
O186 O 0.10646 0.62704 0.88814 0.0
C187 C 0.10285 0.69003 0.85444 0.0
O188 O 0.1207 0.70951 0.86641 0.0
O189 O 0.08728 0.65558 0.92736 0.0
C190 C 0.11069 0.62256 0.865 0.0
O191 O 0.11678 0.63962 0.84685 0.0
C192 C 0.16044 0.69648 0.88713 0.0
O193 O 0.15551 0.6906 0.86228 0.0
O194 O 0.09496 0.66848 0.86395 0.0
C195 C 0.42588 0.06467 0.42895 0.0
O196 O 0.4496 0.07561 0.43501 0.0
O197 O 0.44389 0.13104 0.39873 0.0
Zn198 Zn 0.44299 0.10005 0.38639 0.0
O199 O 0.47743 0.10471 0.3881 0.0
C200 C 0.43292 0.10938 0.33362 0.0
O201 O 0.44407 0.1326 0.34154 0.0
O202 O 0.41912 0.07188 0.40895 0.0
C203 C 0.49567 0.12549 0.3811 0.0
O204 O 0.49142 0.14308 0.37302 0.0
C205 C 0.45264 0.14036 0.42105 0.0
O206 O 0.46118 0.12938 0.43641 0.0
O207 O 0.43054 0.09254 0.34941 0.0
C208 C 0.31233 0.39681 0.95336 0.0
O209 O 0.30421 0.41237 0.95767 0.0
O210 O 0.27215 0.40438 0.90825 0.0
Zn211 Zn 0.30522 0.40722 0.90146 0.0
O212 O 0.33171 0.44333 0.90252 0.0
C213 C 0.28623 0.38155 0.85181 0.0
O214 O 0.26484 0.3782 0.86038 0.0
O215 O 0.31351 0.39057 0.92995 0.0
C216 C 0.34767 0.45374 0.88442 0.0
O217 O 0.34658 0.44086 0.86358 0.0
C218 C 0.26683 0.41901 0.89627 0.0
O219 O 0.28323 0.43559 0.88015 0.0
O220 O 0.30539 0.39257 0.86628 0.0
C221 C 0.93286 0.33609 0.43099 0.0
O222 O 0.91365 0.31521 0.43896 0.0
O223 O 0.87404 0.29933 0.40217 0.0
Zn224 Zn 0.89865 0.33418 0.3913 0.0
O225 O 0.88584 0.35777 0.39693 0.0
C226 C 0.91036 0.31783 0.34357 0.0
O227 O 0.91327 0.3029 0.35955 0.0
O228 O 0.93071 0.347 0.41097 0.0
C229 C 0.86767 0.35611 0.38385 0.0
O230 O 0.85606 0.33768 0.36722 0.0
C231 C 0.85464 0.29267 0.41584 0.0
O232 O 0.8496 0.30953 0.42461 0.0
O233 O 0.90471 0.33329 0.35292 0.0
C234 C 0.06081 0.40008 0.56693 0.0
O235 O 0.05597 0.38346 0.58528 0.0
O236 O 0.1289 0.43087 0.59769 0.0
Zn237 Zn 0.09846 0.43366 0.60322 0.0
O238 O 0.10822 0.46922 0.60974 0.0
C239 C 0.08543 0.40132 0.64865 0.0
O240 O 0.10608 0.40134 0.64308 0.0
O241 O 0.07789 0.4224 0.57059 0.0
C242 C 0.12189 0.48139 0.62897 0.0
O243 O 0.13038 0.4706 0.6447 0.0
C244 C 0.14084 0.43861 0.57634 0.0
O245 O 0.13315 0.44862 0.55868 0.0
O246 O 0.07856 0.41338 0.63413 0.0
C247 C 0.67615 0.08383 0.04995 0.0
O248 O 0.69622 0.10586 0.0512 0.0
O249 O 0.68376 0.13819 0.08022 0.0
Zn250 Zn 0.65516 0.10401 0.08702 0.0
O251 O 0.62296 0.10316 0.07996 0.0
C252 C 0.67102 0.10951 0.14104 0.0
O253 O 0.68623 0.13255 0.13384 0.0
O254 O 0.65715 0.07938 0.0634 0.0
C255 C 0.61463 0.11335 0.09531 0.0
O256 O 0.62745 0.12486 0.11633 0.0
C257 C 0.68403 0.15224 0.06202 0.0
O258 O 0.66473 0.14433 0.04639 0.0
O259 O 0.65599 0.09413 0.12438 0.0
C260 C 0.57023 0.64928 0.57375 0.0
O261 O 0.55383 0.65193 0.56001 0.0
O262 O 0.54695 0.68756 0.60542 0.0
Zn263 Zn 0.54563 0.65649 0.6185 0.0
O264 O 0.51056 0.62808 0.61567 0.0
C265 C 0.57637 0.67874 0.66375 0.0
O266 O 0.59171 0.69435 0.64621 0.0
O267 O 0.56976 0.65019 0.59858 0.0
C268 C 0.5047 0.60567 0.61139 0.0
O269 O 0.52233 0.60014 0.608 0.0
C270 C 0.53255 0.68695 0.58739 0.0
O271 O 0.51666 0.66554 0.57675 0.0
O272 O 0.55542 0.66101 0.65637 0.0
C273 C 0.94308 0.61468 0.0645 0.0
O274 O 0.92364 0.61547 0.05567 0.0
O275 O 0.88322 0.59135 0.0963 0.0
Zn276 Zn 0.91123 0.58662 0.10879 0.0
O277 O 0.89946 0.55006 0.10845 0.0
C278 C 0.90454 0.59805 0.1619 0.0
O279 O 0.88221 0.59184 0.1534 0.0
O280 O 0.94168 0.60402 0.08618 0.0
C281 C 0.87837 0.53468 0.118 0.0
O282 O 0.86426 0.54295 0.12762 0.0
C283 C 0.87054 0.57952 0.07638 0.0
O284 O 0.87703 0.56556 0.06311 0.0
O285 O 0.92028 0.59808 0.146 0.0
C286 C 0.32877 0.93533 0.55818 0.0
O287 O 0.30483 0.91963 0.56058 0.0
O288 O 0.30229 0.87694 0.59188 0.0
Zn289 Zn 0.33395 0.90778 0.60121 0.0
O290 O 0.36066 0.89892 0.60417 0.0
C291 C 0.31337 0.90826 0.65167 0.0
O292 O 0.29518 0.88655 0.64398 0.0
O293 O 0.34395 0.93369 0.57354 0.0
C294 C 0.35761 0.88103 0.61872 0.0
O295 O 0.33661 0.86828 0.63158 0.0
C296 C 0.30117 0.86393 0.57221 0.0
O297 O 0.32075 0.87162 0.55705 0.0
O298 O 0.3313 0.92098 0.63615 0.0
C299 C 0.41148 0.35293 0.06677 0.0
O300 O 0.42028 0.34109 0.05318 0.0
O301 O 0.4291 0.31231 0.09473 0.0
Zn302 Zn 0.43875 0.34635 0.10823 0.0
O303 O 0.475 0.37143 0.10283 0.0
C304 C 0.43293 0.32783 0.16099 0.0
O305 O 0.43906 0.31245 0.15025 0.0
O306 O 0.4174 0.35775 0.09074 0.0
C307 C 0.49198 0.36798 0.11225 0.0
O308 O 0.48573 0.34711 0.12456 0.0
C309 C 0.44196 0.30643 0.08024 0.0
O310 O 0.46408 0.32365 0.07235 0.0
O311 O 0.43152 0.34385 0.14676 0.0
H312 H 0.43774 0.14109 0.2938 0.0
H313 H 0.40706 0.06288 0.31208 0.0
H314 H 0.39252 0.052 0.26647 0.0
H315 H 0.38899 0.13334 0.24818 0.0
H316 H 0.41053 0.15752 0.22662 0.0
H317 H 0.41709 0.15908 0.26117 0.0
H318 H 0.45955 0.16244 0.25106 0.0
H319 H 0.45315 0.16094 0.21653 0.0
H320 H 0.46045 0.13896 0.23113 0.0
H321 H 0.3835 0.04975 0.21843 0.0
H322 H 0.38123 0.0564 0.17108 0.0
H323 H 0.41756 0.13602 0.1843 0.0
C324 C 0.42773 0.12165 0.28831 0.0
C325 C 0.4235 0.10284 0.30653 0.0
C326 C 0.41052 0.07763 0.29848 0.0
C327 C 0.40211 0.07124 0.27263 0.0
C328 C 0.40675 0.09026 0.25513 0.0
C329 C 0.41923 0.11495 0.26261 0.0
C330 C 0.42284 0.13187 0.23969 0.0
C331 C 0.40903 0.1463 0.24419 0.0
C332 C 0.45064 0.14959 0.23429 0.0
C333 C 0.41082 0.11286 0.21806 0.0
C334 C 0.40149 0.08896 0.22741 0.0
C335 C 0.39052 0.06836 0.2109 0.0
C336 C 0.38934 0.07233 0.18404 0.0
C337 C 0.39913 0.09672 0.174 0.0
C338 C 0.40967 0.11714 0.19138 0.0
H339 H 0.2579 0.37343 0.69998 0.0
H340 H 0.32863 0.37683 0.68731 0.0
H341 H 0.33221 0.37193 0.73475 0.0
H342 H 0.27504 0.40946 0.75564 0.0
H343 H 0.24563 0.39228 0.77229 0.0
H344 H 0.24671 0.39225 0.73711 0.0
H345 H 0.22413 0.34411 0.73697 0.0
H346 H 0.22289 0.34398 0.77224 0.0
H347 H 0.23681 0.3284 0.7556 0.0
H348 H 0.33104 0.37263 0.78359 0.0
H349 H 0.32453 0.37776 0.83037 0.0
H350 H 0.25416 0.37288 0.81129 0.0
C351 C 0.27385 0.37252 0.70708 0.0
C352 C 0.29295 0.37547 0.68992 0.0
C353 C 0.31371 0.37455 0.70007 0.0
C354 C 0.31589 0.3717 0.72699 0.0
C355 C 0.29704 0.36952 0.74346 0.0
C356 C 0.27629 0.36965 0.73389 0.0
C357 C 0.25971 0.36906 0.75592 0.0
C358 C 0.25661 0.39213 0.75519 0.0
C359 C 0.23438 0.34495 0.75513 0.0
C360 C 0.27485 0.36954 0.77936 0.0
C361 C 0.29619 0.36954 0.77177 0.0
C362 C 0.31414 0.37211 0.78984 0.0
C363 C 0.31033 0.3751 0.81633 0.0
C364 C 0.28873 0.37546 0.82446 0.0
C365 C 0.27059 0.37214 0.80574 0.0
H366 H 0.89272 0.34318 0.19478 0.0
H367 H 0.91146 0.28709 0.17267 0.0
H368 H 0.91862 0.28172 0.21928 0.0
H369 H 0.93786 0.371 0.24678 0.0
H370 H 0.91739 0.37641 0.26721 0.0
H371 H 0.91445 0.37619 0.2321 0.0
H372 H 0.86803 0.34213 0.23567 0.0
H373 H 0.87081 0.34227 0.27077 0.0
H374 H 0.85972 0.31366 0.25283 0.0
H375 H 0.92243 0.28174 0.26872 0.0
H376 H 0.92231 0.28694 0.31673 0.0
H377 H 0.90138 0.34331 0.30555 0.0
C378 C 0.89842 0.32981 0.19965 0.0
C379 C 0.90153 0.31555 0.18007 0.0
C380 C 0.90898 0.29824 0.18735 0.0
C381 C 0.91312 0.29509 0.21375 0.0
C382 C 0.90981 0.30945 0.23255 0.0
C383 C 0.90266 0.32648 0.22578 0.0
C384 C 0.8999 0.3393 0.24963 0.0
C385 C 0.91851 0.36739 0.24887 0.0
C386 C 0.87301 0.33401 0.25238 0.0
C387 C 0.90637 0.32666 0.27097 0.0
C388 C 0.91212 0.30955 0.26078 0.0
C389 C 0.91809 0.29518 0.27689 0.0
C390 C 0.91797 0.29827 0.30412 0.0
C391 C 0.9119 0.31557 0.3149 0.0
C392 C 0.90626 0.33003 0.29797 0.0
H393 H 0.58578 0.93185 0.67916 0.0
H394 H 0.62941 0.89554 0.66896 0.0
H395 H 0.64201 0.90354 0.71544 0.0
H396 H 0.62806 0.97956 0.72692 0.0
H397 H 0.60238 0.97779 0.74514 0.0
H398 H 0.59953 0.97211 0.71035 0.0
H399 H 0.56013 0.92924 0.71811 0.0
H400 H 0.56291 0.93472 0.75284 0.0
H401 H 0.56184 0.90725 0.7398 0.0
H402 H 0.64512 0.91037 0.76398 0.0
H403 H 0.63964 0.91674 0.81071 0.0
H404 H 0.59497 0.94967 0.78887 0.0
C405 C 0.59841 0.92603 0.68651 0.0
C406 C 0.60663 0.91308 0.67043 0.0
C407 C 0.62297 0.90559 0.68089 0.0
C408 C 0.63026 0.91009 0.70725 0.0
C409 C 0.6213 0.92237 0.72273 0.0
C410 C 0.60595 0.93048 0.71268 0.0
C411 C 0.59743 0.94163 0.7338 0.0
C412 C 0.60746 0.96942 0.72874 0.0
C413 C 0.56889 0.92735 0.73628 0.0
C414 C 0.60964 0.93769 0.75751 0.0
C415 C 0.62351 0.92676 0.75069 0.0
C416 C 0.63475 0.91939 0.7695 0.0
C417 C 0.63146 0.923 0.79597 0.0
C418 C 0.6171 0.93393 0.80334 0.0
C419 C 0.6065 0.94178 0.78379 0.0
H420 H 0.704 0.57551 0.31823 0.0
H421 H 0.66837 0.61959 0.32997 0.0
H422 H 0.66687 0.62418 0.28195 0.0
H423 H 0.74148 0.60973 0.26174 0.0
H424 H 0.73762 0.58204 0.24605 0.0
H425 H 0.73727 0.58374 0.28126 0.0
H426 H 0.69417 0.54351 0.28228 0.0
H427 H 0.69435 0.54172 0.24712 0.0
H428 H 0.66888 0.54209 0.26357 0.0
H429 H 0.66694 0.62152 0.23241 0.0
H430 H 0.66904 0.61232 0.18567 0.0
H431 H 0.70497 0.57031 0.20719 0.0
C432 C 0.6961 0.58636 0.31079 0.0
C433 C 0.68631 0.59721 0.32785 0.0
C434 C 0.67606 0.61118 0.31725 0.0
C435 C 0.67513 0.61389 0.29003 0.0
C436 C 0.68469 0.60266 0.27376 0.0
C437 C 0.6951 0.5893 0.2838 0.0
C438 C 0.70327 0.57827 0.26225 0.0
C439 C 0.73159 0.5891 0.26287 0.0
C440 C 0.68933 0.54971 0.26391 0.0
C441 C 0.69542 0.58711 0.23846 0.0
C442 C 0.68486 0.60126 0.24543 0.0
C443 C 0.67538 0.61065 0.22673 0.0
C444 C 0.67663 0.6053 0.20024 0.0
C445 C 0.68723 0.59065 0.19275 0.0
C446 C 0.69692 0.5817 0.2122 0.0
H447 H 0.13304 0.72614 0.70646 0.0
H448 H 0.0612 0.66192 0.68872 0.0
H449 H 0.04948 0.65885 0.73527 0.0
H450 H 0.1436 0.70339 0.76208 0.0
H451 H 0.15865 0.73218 0.78013 0.0
H452 H 0.15944 0.73268 0.74498 0.0
H453 H 0.14005 0.76114 0.74442 0.0
H454 H 0.13927 0.76078 0.77973 0.0
H455 H 0.11119 0.75153 0.76136 0.0
H456 H 0.04864 0.65773 0.78386 0.0
H457 H 0.05857 0.6591 0.83086 0.0
H458 H 0.13043 0.72464 0.81746 0.0
C459 C 0.11453 0.71193 0.7122 0.0
C460 C 0.09801 0.69432 0.69393 0.0
C461 C 0.07414 0.67568 0.70234 0.0
C462 C 0.06727 0.67386 0.72874 0.0
C463 C 0.08434 0.69098 0.74643 0.0
C464 C 0.1074 0.70985 0.73848 0.0
C465 C 0.12342 0.724 0.76173 0.0
C466 C 0.14769 0.72297 0.76225 0.0
C467 C 0.12879 0.75096 0.76181 0.0
C468 C 0.1063 0.70927 0.78402 0.0
C469 C 0.08367 0.69057 0.77477 0.0
C470 C 0.06598 0.6727 0.7914 0.0
C471 C 0.0718 0.67357 0.81804 0.0
C472 C 0.09508 0.6922 0.82776 0.0
C473 C 0.11219 0.71068 0.81066 0.0
H474 H 0.8728 0.59197 0.20207 0.0
H475 H 0.94913 0.61187 0.1857 0.0
H476 H 0.95738 0.61331 0.23313 0.0
H477 H 0.88571 0.6295 0.26252 0.0
H478 H 0.8577 0.60609 0.27815 0.0
H479 H 0.85872 0.60964 0.24306 0.0
H480 H 0.8453 0.56313 0.23757 0.0
H481 H 0.84443 0.55947 0.27256 0.0
H482 H 0.86339 0.55129 0.25296 0.0
H483 H 0.95609 0.60818 0.28193 0.0
H484 H 0.94561 0.59802 0.32865 0.0
H485 H 0.8702 0.58165 0.31297 0.0
C486 C 0.89142 0.5972 0.20843 0.0
C487 C 0.91034 0.60188 0.19017 0.0
C488 C 0.93435 0.60828 0.19933 0.0
C489 C 0.93924 0.60918 0.22624 0.0
C490 C 0.91997 0.6038 0.2437 0.0
C491 C 0.8966 0.59814 0.23518 0.0
C492 C 0.87868 0.59143 0.25786 0.0
C493 C 0.86968 0.6103 0.26055 0.0
C494 C 0.85666 0.56475 0.25506 0.0
C495 C 0.89545 0.59355 0.28038 0.0
C496 C 0.91925 0.6009 0.27186 0.0
C497 C 0.93762 0.60276 0.28891 0.0
C498 C 0.93146 0.59686 0.31538 0.0
C499 C 0.90712 0.58914 0.32447 0.0
C500 C 0.88904 0.58775 0.3067 0.0
H501 H 0.28817 0.88021 0.80271 0.0
H502 H 0.35812 0.94816 0.81626 0.0
H503 H 0.35945 0.95954 0.76972 0.0
H504 H 0.30505 0.86585 0.74432 0.0
H505 H 0.27507 0.85304 0.72876 0.0
H506 H 0.27713 0.85251 0.76383 0.0
H507 H 0.2525 0.87587 0.76793 0.0
H508 H 0.25035 0.87645 0.73275 0.0
H509 H 0.26342 0.90502 0.75113 0.0
H510 H 0.356 0.961 0.72129 0.0
H511 H 0.34926 0.95142 0.67414 0.0
H512 H 0.28198 0.88201 0.69186 0.0
C513 C 0.30339 0.89783 0.79604 0.0
C514 C 0.32294 0.91343 0.81306 0.0
C515 C 0.34291 0.936 0.8035 0.0
C516 C 0.34374 0.94269 0.77716 0.0
C517 C 0.32445 0.92662 0.7607 0.0
C518 C 0.30463 0.90464 0.76975 0.0
C519 C 0.28791 0.88922 0.7475 0.0
C520 C 0.28622 0.86366 0.74602 0.0
C521 C 0.26201 0.88649 0.74998 0.0
C522 C 0.30199 0.90547 0.72443 0.0
C523 C 0.3227 0.92721 0.73251 0.0
C524 C 0.33963 0.94424 0.71471 0.0
C525 C 0.33566 0.9386 0.68796 0.0
C526 C 0.31508 0.91597 0.67931 0.0
C527 C 0.29771 0.89959 0.69782 0.0
H528 H 0.44772 0.29943 0.30965 0.0
H529 H 0.4156 0.34485 0.33163 0.0
H530 H 0.40821 0.34944 0.285 0.0
H531 H 0.47988 0.33377 0.25434 0.0
H532 H 0.47432 0.30726 0.23493 0.0
H533 H 0.47517 0.30577 0.27008 0.0
H534 H 0.43121 0.26669 0.27008 0.0
H535 H 0.43026 0.26799 0.23487 0.0
H536 H 0.40593 0.26788 0.25417 0.0
H537 H 0.40765 0.35208 0.23604 0.0
H538 H 0.41266 0.35136 0.18813 0.0
H539 H 0.44432 0.3035 0.19828 0.0
C540 C 0.43882 0.31007 0.30471 0.0
C541 C 0.43223 0.32178 0.32427 0.0
C542 C 0.42074 0.33565 0.31697 0.0
C543 C 0.41645 0.33836 0.29055 0.0
C544 C 0.42355 0.3269 0.27173 0.0
C545 C 0.4343 0.31286 0.27848 0.0
C546 C 0.44113 0.30332 0.25445 0.0
C547 C 0.4693 0.31313 0.2534 0.0
C548 C 0.42624 0.27477 0.25333 0.0
C549 C 0.43308 0.31468 0.23312 0.0
C550 C 0.42289 0.32812 0.24349 0.0
C551 C 0.4153 0.34135 0.22766 0.0
C552 C 0.41831 0.3409 0.2005 0.0
C553 C 0.42876 0.32727 0.18949 0.0
C554 C 0.43598 0.31383 0.20608 0.0
H555 H 0.10012 0.38263 0.689 0.0
H556 H 0.04043 0.395 0.66403 0.0
H557 H 0.0206 0.38127 0.70732 0.0
H558 H 0.06159 0.32822 0.73372 0.0
H559 H 0.08661 0.33891 0.75711 0.0
H560 H 0.09341 0.34476 0.72266 0.0
H561 H 0.12059 0.39191 0.73214 0.0
H562 H 0.11389 0.38622 0.76647 0.0
H563 H 0.10722 0.40765 0.74953 0.0
H564 H 0.01132 0.37355 0.75492 0.0
H565 H 0.01362 0.37279 0.80315 0.0
H566 H 0.07886 0.3647 0.79719 0.0
C567 C 0.08246 0.38168 0.69234 0.0
C568 C 0.07178 0.38979 0.67312 0.0
C569 C 0.04894 0.38881 0.67845 0.0
C570 C 0.03744 0.3809 0.70295 0.0
C571 C 0.04889 0.3738 0.7218 0.0
C572 C 0.07081 0.37391 0.71671 0.0
C573 C 0.08091 0.36835 0.74119 0.0
C574 C 0.0806 0.34358 0.7385 0.0
C575 C 0.10719 0.38981 0.74771 0.0
C576 C 0.06198 0.36641 0.76111 0.0
C577 C 0.04339 0.36912 0.74945 0.0
C578 C 0.02541 0.37078 0.76421 0.0
C579 C 0.02689 0.37039 0.7916 0.0
C580 C 0.04627 0.36845 0.8039 0.0
C581 C 0.06347 0.36559 0.78837 0.0
H582 H 0.70897 0.12957 0.2916 0.0
H583 H 0.65445 0.05181 0.30411 0.0
H584 H 0.64657 0.04638 0.25648 0.0
H585 H 0.67555 0.14066 0.24372 0.0
H586 H 0.70228 0.1614 0.22442 0.0
H587 H 0.70555 0.15861 0.25907 0.0
H588 H 0.73969 0.14713 0.2504 0.0
H589 H 0.73666 0.15008 0.21568 0.0
H590 H 0.73316 0.1216 0.22885 0.0
H591 H 0.64231 0.05027 0.20799 0.0
H592 H 0.64261 0.06301 0.16211 0.0
H593 H 0.69973 0.13828 0.18171 0.0
C594 C 0.69571 0.11127 0.28433 0.0
C595 C 0.68239 0.09109 0.30157 0.0
C596 C 0.66494 0.06753 0.29125 0.0
C597 C 0.66034 0.06425 0.26424 0.0
C598 C 0.6734 0.08469 0.24785 0.0
C599 C 0.69084 0.1077 0.25749 0.0
C600 C 0.70136 0.12698 0.23595 0.0
C601 C 0.69584 0.14815 0.24111 0.0
C602 C 0.72938 0.13703 0.23252 0.0
C603 C 0.68677 0.11134 0.21276 0.0
C604 C 0.67087 0.08696 0.21997 0.0
C605 C 0.65486 0.06925 0.20205 0.0
C606 C 0.65512 0.07669 0.17606 0.0
C607 C 0.67122 0.10163 0.16831 0.0
C608 C 0.6873 0.11905 0.18696 0.0
H609 H 0.5495 0.64838 0.70433 0.0
H610 H 0.61851 0.71612 0.68668 0.0
H611 H 0.62914 0.72162 0.73379 0.0
H612 H 0.53572 0.66963 0.76277 0.0
H613 H 0.52305 0.64019 0.7794 0.0
H614 H 0.52158 0.6411 0.74425 0.0
H615 H 0.54424 0.61575 0.74057 0.0
H616 H 0.54581 0.6148 0.77575 0.0
H617 H 0.57384 0.62695 0.75654 0.0
H618 H 0.63115 0.72063 0.7832 0.0
H619 H 0.62436 0.71324 0.83084 0.0
H620 H 0.55431 0.64583 0.81546 0.0
C621 C 0.56694 0.66431 0.71029 0.0
C622 C 0.58318 0.68183 0.69181 0.0
C623 C 0.60578 0.70244 0.70048 0.0
C624 C 0.612 0.7057 0.72719 0.0
C625 C 0.59548 0.68812 0.74489 0.0
C626 C 0.57345 0.6678 0.73677 0.0
C627 C 0.55857 0.65193 0.75971 0.0
C628 C 0.53324 0.65066 0.76164 0.0
C629 C 0.55544 0.62582 0.75803 0.0
C630 C 0.5755 0.66668 0.78208 0.0
C631 C 0.59675 0.68744 0.77318 0.0
C632 C 0.61468 0.70432 0.79038 0.0
C633 C 0.61066 0.69997 0.81739 0.0
C634 C 0.58887 0.67891 0.82688 0.0
C635 C 0.57127 0.66198 0.80887 0.0
H636 H 0.4537 0.18625 0.05962 0.0
H637 H 0.37449 0.1428 0.07529 0.0
H638 H 0.3718 0.18102 0.07415 0.0
H639 H 0.46556 0.23528 0.10042 0.0
H640 H 0.48844 0.2594 0.07976 0.0
H641 H 0.48366 0.22842 0.07789 0.0
H642 H 0.47508 0.22717 0.02808 0.0
H643 H 0.47996 0.25827 0.02976 0.0
H644 H 0.45136 0.23345 0.01651 0.0
H645 H 0.37844 0.22383 0.07685 0.0
H646 H 0.39392 0.2686 0.08267 0.0
H647 H 0.46879 0.28455 0.06481 0.0
C648 C 0.43568 0.18469 0.06215 0.0
C649 C 0.41429 0.16153 0.06744 0.0
C650 C 0.39112 0.16034 0.07116 0.0
C651 C 0.38938 0.18193 0.07045 0.0
C652 C 0.41093 0.20454 0.06584 0.0
C653 C 0.43362 0.20608 0.06158 0.0
C654 C 0.45429 0.23288 0.05929 0.0
C655 C 0.47414 0.23936 0.08061 0.0
C656 C 0.46585 0.23825 0.03177 0.0
C657 C 0.43979 0.24615 0.06383 0.0
C658 C 0.41477 0.22943 0.06727 0.0
C659 C 0.39791 0.23713 0.07374 0.0
C660 C 0.4069 0.26258 0.07711 0.0
C661 C 0.43252 0.28002 0.07402 0.0
C662 C 0.44905 0.27168 0.06681 0.0
H663 H 0.16124 0.41846 0.60879 0.0
H664 H 0.17022 0.45291 0.53253 0.0
H665 H 0.20695 0.44848 0.52416 0.0
H666 H 0.22581 0.44687 0.62407 0.0
H667 H 0.22297 0.41979 0.64023 0.0
H668 H 0.19706 0.42515 0.63986 0.0
H669 H 0.16931 0.3817 0.61918 0.0
H670 H 0.19517 0.37623 0.61941 0.0
H671 H 0.17904 0.37375 0.58921 0.0
H672 H 0.24319 0.44106 0.52453 0.0
H673 H 0.27669 0.43176 0.5339 0.0
H674 H 0.24363 0.40199 0.6098 0.0
C675 C 0.17087 0.42503 0.59029 0.0
C676 C 0.16285 0.43603 0.5713 0.0
C677 C 0.17602 0.44442 0.54737 0.0
C678 C 0.19687 0.44195 0.54241 0.0
C679 C 0.20425 0.43101 0.56155 0.0
C680 C 0.19167 0.4227 0.58501 0.0
C681 C 0.20364 0.41201 0.60251 0.0
C682 C 0.21292 0.42685 0.62818 0.0
C683 C 0.18572 0.38427 0.60788 0.0
C684 C 0.22506 0.41576 0.5853 0.0
C685 C 0.22505 0.42667 0.56173 0.0
C686 C 0.24334 0.43242 0.54288 0.0
C687 C 0.26228 0.42706 0.54838 0.0
C688 C 0.26275 0.41609 0.57254 0.0
C689 C 0.24372 0.41023 0.59108 0.0
H690 H 0.81689 0.26527 0.09973 0.0
H691 H 0.80699 0.30862 0.03919 0.0
H692 H 0.76671 0.27202 0.02719 0.0
H693 H 0.78945 0.20702 0.06421 0.0
H694 H 0.77505 0.18864 0.09304 0.0
H695 H 0.80352 0.21796 0.09592 0.0
H696 H 0.78251 0.23296 0.12943 0.0
H697 H 0.75398 0.20374 0.12661 0.0
H698 H 0.75414 0.23239 0.12056 0.0
H699 H 0.72676 0.23076 0.02285 0.0
H700 H 0.6904 0.1884 0.0268 0.0
H701 H 0.72702 0.17292 0.09046 0.0
C702 C 0.8064 0.26707 0.08379 0.0
C703 C 0.81511 0.28978 0.07035 0.0
C704 C 0.80069 0.29138 0.04974 0.0
C705 C 0.77781 0.2707 0.04277 0.0
C706 C 0.76969 0.24863 0.05659 0.0
C707 C 0.78358 0.24671 0.07665 0.0
C708 C 0.77045 0.22119 0.08899 0.0
C709 C 0.78552 0.20792 0.08531 0.0
C710 C 0.76494 0.22267 0.11812 0.0
C711 C 0.74688 0.20907 0.07291 0.0
C712 C 0.74677 0.22509 0.05422 0.0
C713 C 0.72668 0.21802 0.03735 0.0
C714 C 0.70612 0.19395 0.03974 0.0
C715 C 0.70586 0.17736 0.05893 0.0
C716 C 0.72661 0.18512 0.07557 0.0
H717 H 0.56005 0.73328 0.60885 0.0
H718 H 0.50559 0.69261 0.5482 0.0
H719 H 0.50477 0.73077 0.53653 0.0
H720 H 0.53355 0.76857 0.63039 0.0
H721 H 0.56284 0.79634 0.63668 0.0
H722 H 0.56056 0.76637 0.63881 0.0
H723 H 0.5963 0.78032 0.60509 0.0
H724 H 0.59872 0.81038 0.6029 0.0
H725 H 0.59378 0.79217 0.57371 0.0
H726 H 0.50828 0.77289 0.53317 0.0
H727 H 0.51555 0.81552 0.53871 0.0
H728 H 0.56747 0.82805 0.60177 0.0
C729 C 0.54817 0.73242 0.59288 0.0
C730 C 0.53293 0.70998 0.57939 0.0
C731 C 0.51746 0.70962 0.55879 0.0
C732 C 0.5169 0.73119 0.55198 0.0
C733 C 0.53195 0.75294 0.56592 0.0
C734 C 0.54733 0.7537 0.5859 0.0
C735 C 0.56082 0.77904 0.59866 0.0
C736 C 0.55402 0.77747 0.62786 0.0
C737 C 0.58908 0.79119 0.59485 0.0
C738 C 0.55032 0.79233 0.58303 0.0
C739 C 0.53386 0.77706 0.56409 0.0
C740 C 0.52127 0.78508 0.5478 0.0
C741 C 0.52551 0.80931 0.55111 0.0
C742 C 0.54208 0.82512 0.57065 0.0
C743 C 0.55476 0.81648 0.58658 0.0
H744 H 0.75265 0.59279 0.10791 0.0
H745 H 0.72112 0.55587 0.03395 0.0
H746 H 0.76012 0.55615 0.02378 0.0
H747 H 0.81622 0.63222 0.0843 0.0
H748 H 0.82981 0.62929 0.11432 0.0
H749 H 0.80002 0.62763 0.1149 0.0
H750 H 0.78064 0.58479 0.138 0.0
H751 H 0.81033 0.58633 0.1375 0.0
H752 H 0.78357 0.56008 0.12311 0.0
H753 H 0.80143 0.55775 0.02324 0.0
H754 H 0.84199 0.56089 0.03226 0.0
H755 H 0.84646 0.5975 0.10614 0.0
C756 C 0.754 0.585 0.08943 0.0
C757 C 0.73384 0.57433 0.07171 0.0
C758 C 0.73634 0.5642 0.0478 0.0
C759 C 0.75843 0.56431 0.04183 0.0
C760 C 0.77785 0.57477 0.05987 0.0
C761 C 0.77588 0.58503 0.08312 0.0
C762 C 0.79905 0.59421 0.09967 0.0
C763 C 0.81204 0.62252 0.10351 0.0
C764 C 0.79303 0.58053 0.12612 0.0
C765 C 0.81419 0.58706 0.08233 0.0
C766 C 0.80172 0.57598 0.0594 0.0
C767 C 0.8115 0.56667 0.04098 0.0
C768 C 0.83451 0.5685 0.04629 0.0
C769 C 0.84744 0.57958 0.0698 0.0
C770 C 0.83721 0.58925 0.08781 0.0
H771 H 0.26025 0.84072 0.60366 0.0
H772 H 0.29183 0.83146 0.5316 0.0
H773 H 0.2556 0.78918 0.52658 0.0
H774 H 0.23774 0.78006 0.62749 0.0
H775 H 0.20992 0.77734 0.64165 0.0
H776 H 0.23736 0.80743 0.63848 0.0
H777 H 0.21236 0.82328 0.61218 0.0
H778 H 0.18476 0.79327 0.61541 0.0
H779 H 0.19541 0.8066 0.58339 0.0
H780 H 0.2167 0.74714 0.5307 0.0
H781 H 0.1781 0.70893 0.5434 0.0
H782 H 0.17297 0.74619 0.61307 0.0
C783 C 0.25945 0.82998 0.5866 0.0
C784 C 0.27882 0.83941 0.56796 0.0
C785 C 0.27715 0.82462 0.54609 0.0
C786 C 0.25666 0.80061 0.54307 0.0
C787 C 0.23808 0.79175 0.56208 0.0
C788 C 0.23928 0.80604 0.58337 0.0
C789 C 0.21745 0.79196 0.60159 0.0
C790 C 0.22615 0.78902 0.62891 0.0
C791 C 0.20155 0.80452 0.60322 0.0
C792 C 0.20387 0.76736 0.5874 0.0
C793 C 0.21595 0.7676 0.56459 0.0
C794 C 0.20701 0.74678 0.54846 0.0
C795 C 0.18512 0.72517 0.55586 0.0
C796 C 0.17254 0.72458 0.57922 0.0
C797 C 0.18213 0.74602 0.59509 0.0
H798 H 0.81141 0.53463 0.44236 0.0
H799 H 0.8686 0.61027 0.42442 0.0
H800 H 0.83758 0.62381 0.42752 0.0
H801 H 0.76557 0.53456 0.40397 0.0
H802 H 0.74008 0.51604 0.42578 0.0
H803 H 0.76728 0.51284 0.42607 0.0
H804 H 0.77283 0.52253 0.47579 0.0
H805 H 0.74551 0.52564 0.47569 0.0
H806 H 0.7746 0.55066 0.48774 0.0
H807 H 0.79991 0.6283 0.4275 0.0
H808 H 0.75804 0.62337 0.42452 0.0
H809 H 0.72529 0.54484 0.44238 0.0
C810 C 0.81753 0.55415 0.43976 0.0
C811 C 0.84242 0.57142 0.43328 0.0
C812 C 0.84961 0.59672 0.42945 0.0
C813 C 0.83215 0.60462 0.43127 0.0
C814 C 0.80763 0.58702 0.43703 0.0
C815 C 0.80031 0.56233 0.44137 0.0
C816 C 0.77243 0.54681 0.44497 0.0
C817 C 0.76066 0.52637 0.42394 0.0
C818 C 0.76597 0.53576 0.4727 0.0
C819 C 0.76518 0.56649 0.44114 0.0
C820 C 0.78578 0.58961 0.43692 0.0
C821 C 0.78365 0.61037 0.43119 0.0
C822 C 0.75979 0.60737 0.42945 0.0
C823 C 0.73842 0.58375 0.43332 0.0
C824 C 0.74126 0.5632 0.43965 0.0
H825 H 0.19502 0.7343 0.85686 0.0
H826 H 0.18099 0.70499 0.93602 0.0
H827 H 0.22095 0.74064 0.95042 0.0
H828 H 0.26276 0.76083 0.85703 0.0
H829 H 0.26814 0.7878 0.83859 0.0
H830 H 0.23975 0.75867 0.83401 0.0
H831 H 0.21415 0.78007 0.84466 0.0
H832 H 0.24242 0.80921 0.84936 0.0
H833 H 0.21953 0.79671 0.87511 0.0
H834 H 0.26139 0.78055 0.95663 0.0
H835 H 0.29834 0.82263 0.95454 0.0
H836 H 0.28485 0.82636 0.87166 0.0
C837 C 0.2006 0.73514 0.8771 0.0
C838 C 0.18507 0.71682 0.89529 0.0
C839 C 0.1927 0.71884 0.92176 0.0
C840 C 0.21538 0.73895 0.9301 0.0
C841 C 0.2301 0.75692 0.91175 0.0
C842 C 0.22299 0.75524 0.88582 0.0
C843 C 0.24125 0.77794 0.87047 0.0
C844 C 0.25371 0.77088 0.84874 0.0
C845 C 0.22857 0.7918 0.85925 0.0
C846 C 0.25953 0.79278 0.8919 0.0
C847 C 0.25298 0.78022 0.91549 0.0
C848 C 0.26679 0.79052 0.93823 0.0
C849 C 0.28774 0.81441 0.93685 0.0
C850 C 0.29445 0.82778 0.91297 0.0
C851 C 0.28021 0.81663 0.89022 0.0
H852 H 0.43764 0.1679 0.39295 0.0
H853 H 0.47018 0.1656 0.46743 0.0
H854 H 0.47263 0.20514 0.48026 0.0
H855 H 0.47469 0.23287 0.38281 0.0
H856 H 0.44993 0.23588 0.36818 0.0
H857 H 0.44996 0.20703 0.36549 0.0
H858 H 0.40593 0.18356 0.38608 0.0
H859 H 0.40576 0.21236 0.38883 0.0
H860 H 0.40056 0.19337 0.41743 0.0
H861 H 0.47245 0.24573 0.48423 0.0
H862 H 0.46987 0.28393 0.47884 0.0
H863 H 0.43743 0.25875 0.4017 0.0
C864 C 0.44516 0.17557 0.41204 0.0
C865 C 0.45369 0.16365 0.42921 0.0
C866 C 0.4635 0.17442 0.45397 0.0
C867 C 0.46495 0.19684 0.46144 0.0
C868 C 0.45646 0.20815 0.44394 0.0
C869 C 0.44674 0.19783 0.41977 0.0
C870 C 0.43937 0.21383 0.40425 0.0
C871 C 0.45439 0.22294 0.37868 0.0
C872 C 0.41123 0.19995 0.39884 0.0
C873 C 0.44664 0.23491 0.42337 0.0
C874 C 0.45638 0.23133 0.44619 0.0
C875 C 0.46476 0.24868 0.46648 0.0
C876 C 0.46322 0.2703 0.46324 0.0
C877 C 0.45344 0.27432 0.43987 0.0
C878 C 0.44495 0.25625 0.41984 0.0
H879 H 0.24783 0.44369 0.86906 0.0
H880 H 0.22936 0.3877 0.92919 0.0
H881 H 0.18698 0.38155 0.93197 0.0
H882 H 0.21207 0.47024 0.89594 0.0
H883 H 0.2026 0.4751 0.86416 0.0
H884 H 0.23184 0.47595 0.8679 0.0
H885 H 0.21868 0.44193 0.83224 0.0
H886 H 0.18939 0.44091 0.82846 0.0
H887 H 0.19 0.4129 0.83602 0.0
H888 H 0.14622 0.38033 0.92692 0.0
H889 H 0.10996 0.38432 0.91464 0.0
H890 H 0.15522 0.441 0.85768 0.0
C891 C 0.23498 0.43032 0.88302 0.0
C892 C 0.24191 0.41621 0.89895 0.0
C893 C 0.22446 0.39874 0.9168 0.0
C894 C 0.20036 0.39513 0.91855 0.0
C895 C 0.19407 0.40915 0.90233 0.0
C896 C 0.21088 0.42644 0.88497 0.0
C897 C 0.19921 0.43854 0.86916 0.0
C898 C 0.2122 0.46662 0.87463 0.0
C899 C 0.19933 0.43324 0.83973 0.0
C900 C 0.17313 0.42519 0.88019 0.0
C901 C 0.17056 0.40838 0.89936 0.0
C902 C 0.14802 0.39352 0.91203 0.0
C903 C 0.12754 0.3959 0.90488 0.0
C904 C 0.12976 0.41299 0.88522 0.0
C905 C 0.15293 0.42784 0.87284 0.0
H906 H 0.72059 0.17428 0.43312 0.0
H907 H 0.75166 0.1309 0.40147 0.0
H908 H 0.79378 0.16749 0.40458 0.0
H909 H 0.75764 0.2272 0.39743 0.0
H910 H 0.76132 0.2491 0.42263 0.0
H911 H 0.73417 0.21864 0.42233 0.0
H912 H 0.74363 0.21108 0.4698 0.0
H913 H 0.77083 0.24164 0.4703 0.0
H914 H 0.7736 0.21473 0.47745 0.0
H915 H 0.83144 0.20932 0.40611 0.0
H916 H 0.86224 0.25402 0.4048 0.0
H917 H 0.80686 0.27083 0.43463 0.0
C918 C 0.73634 0.17231 0.42759 0.0
C919 C 0.73296 0.14974 0.41729 0.0
C920 C 0.75391 0.14803 0.40951 0.0
C921 C 0.77789 0.16866 0.41133 0.0
C922 C 0.78057 0.19084 0.42095 0.0
C923 C 0.7604 0.19282 0.429 0.0
C924 C 0.76808 0.21943 0.43587 0.0
C925 C 0.7545 0.22915 0.41852 0.0
C926 C 0.76378 0.22186 0.4651 0.0
C927 C 0.79556 0.2322 0.42954 0.0
C928 C 0.80243 0.21528 0.42142 0.0
C929 C 0.8264 0.22273 0.41281 0.0
C930 C 0.84373 0.24818 0.41204 0.0
C931 C 0.83696 0.26591 0.41967 0.0
C932 C 0.81268 0.25772 0.42902 0.0
H933 H 0.53085 0.72031 0.86862 0.0
H934 H 0.5714 0.72405 0.93936 0.0
H935 H 0.58229 0.76774 0.94561 0.0
H936 H 0.57337 0.77898 0.84513 0.0
H937 H 0.55053 0.7858 0.83196 0.0
H938 H 0.54347 0.75408 0.83469 0.0
H939 H 0.50435 0.7434 0.86228 0.0
H940 H 0.5112 0.77511 0.8595 0.0
H941 H 0.50744 0.76118 0.89136 0.0
H942 H 0.59173 0.81197 0.94203 0.0
H943 H 0.59869 0.85326 0.929 0.0
H944 H 0.55214 0.82027 0.8605 0.0
C945 C 0.54161 0.73013 0.88572 0.0
C946 C 0.5502 0.71876 0.90354 0.0
C947 C 0.56454 0.73238 0.92548 0.0
C948 C 0.57078 0.75718 0.92923 0.0
C949 C 0.56245 0.768 0.91095 0.0
C950 C 0.54804 0.75486 0.88972 0.0
C951 C 0.54276 0.77118 0.87203 0.0
C952 C 0.55317 0.77259 0.84433 0.0
C953 C 0.51477 0.76218 0.87126 0.0
C954 C 0.557 0.79572 0.88624 0.0
C955 C 0.56801 0.79348 0.9088 0.0
C956 C 0.58298 0.81391 0.92456 0.0
C957 C 0.58687 0.83728 0.91697 0.0
C958 C 0.57595 0.83997 0.89374 0.0
C959 C 0.56066 0.81882 0.87841 0.0
H960 H 0.35512 0.96833 0.92892 0.0
H961 H 0.29325 0.91059 0.97263 0.0
H962 H 0.29788 0.94173 0.00574 0.0
H963 H 0.39227 -0.00062 0.98198 0.0
H964 H 0.40439 0.03011 0.9685 0.0
H965 H 0.39423 0.00389 0.94699 0.0
H966 H 0.36404 0.01522 0.92393 0.0
H967 H 0.37417 0.04158 0.94538 0.0
H968 H 0.34161 0.01867 0.94313 0.0
H969 H 0.31271 0.97844 0.03648 0.0
H970 H 0.33562 0.01761 0.06152 0.0
H971 H 0.38681 0.05095 0.99651 0.0
C972 C 0.34227 0.96224 0.94524 0.0
C973 C 0.32386 0.93705 0.94827 0.0
C974 C 0.30742 0.92985 0.96989 0.0
C975 C 0.30991 0.9474 0.98876 0.0
C976 C 0.32865 0.97205 0.98542 0.0
C977 C 0.34435 0.97947 0.96401 0.0
C978 C 0.36387 0.00667 0.96556 0.0
C979 C 0.39024 0.0102 0.96578 0.0
C980 C 0.36072 0.0214 0.94317 0.0
C981 C 0.35732 0.01327 0.99168 0.0
C982 C 0.33683 0.99316 0.00278 0.0
C983 C 0.3285 0.99442 0.02777 0.0
C984 C 0.34166 0.01671 0.04186 0.0
C985 C 0.3629 0.03736 0.03089 0.0
C986 C 0.37044 0.03564 0.0053 0.0
H987 H 0.40826 0.36335 0.4551 0.0
H988 H 0.36214 0.28433 0.47034 0.0
H989 H 0.33843 0.29332 0.50319 0.0
H990 H 0.41273 0.38348 0.52046 0.0
H991 H 0.41156 0.41107 0.5122 0.0
H992 H 0.42388 0.39819 0.48907 0.0
H993 H 0.39226 0.39541 0.45417 0.0
H994 H 0.37985 0.40834 0.47719 0.0
H995 H 0.35953 0.37892 0.46173 0.0
H996 H 0.32122 0.31142 0.53597 0.0
H997 H 0.31156 0.33704 0.56543 0.0
H998 H 0.36902 0.40384 0.52775 0.0
C999 C 0.39307 0.34786 0.46517 0.0
C1000 C 0.38704 0.32313 0.46018 0.0
C1001 C 0.36704 0.30343 0.47383 0.0
C1002 C 0.35348 0.30835 0.4925 0.0
C1003 C 0.3601 0.33302 0.4971 0.0
C1004 C 0.37936 0.35241 0.48371 0.0
C1005 C 0.38325 0.3773 0.4926 0.0
C1006 C 0.4094 0.39345 0.50428 0.0
C1007 C 0.37842 0.39077 0.47008 0.0
C1008 C 0.36339 0.36894 0.5134 0.0
C1009 C 0.35015 0.34335 0.5157 0.0
C1010 C 0.33135 0.33146 0.53421 0.0
C1011 C 0.32603 0.34616 0.55087 0.0
C1012 C 0.3395 0.37243 0.54884 0.0
C1013 C 0.35827 0.38382 0.52971 0.0
H1014 H 0.99107 0.3659 0.93346 0.0
H1015 H 0.05698 0.40797 0.98139 0.0
H1016 H 0.03088 0.39551 0.02104 0.0
H1017 H 0.95231 0.38173 0.96874 0.0
H1018 H 0.92467 0.35174 0.96541 0.0
H1019 H 0.94866 0.36232 0.94093 0.0
H1020 H 0.95167 0.32256 0.94755 0.0
H1021 H 0.92764 0.31184 0.97209 0.0
H1022 H 0.95729 0.31476 0.97988 0.0
H1023 H -0.00232 0.38075 0.05509 0.0
H1024 H 0.9594 0.36487 0.08135 0.0
H1025 H 0.91506 0.3323 0.01136 0.0
C1026 C 5e-05 0.37225 0.95232 0.0
C1027 C 0.02607 0.38788 0.95433 0.0
C1028 C 0.03708 0.39597 0.97935 0.0
C1029 C 0.02243 0.38894 0.00201 0.0
C1030 C -0.00317 0.37374 -0.00068 0.0
C1031 C 0.98571 0.36543 0.97515 0.0
C1032 C 0.95769 0.3502 0.97759 0.0
C1033 C 0.9451 0.36223 0.96226 0.0
C1034 C 0.94801 0.32324 0.96876 0.0
C1035 C 0.9548 0.35171 0.00685 0.0
C1036 C 0.97761 0.3652 0.01903 0.0
C1037 C 0.9797 0.36996 0.04583 0.0
C1038 C 0.95784 0.36091 0.06056 0.0
C1039 C 0.93424 0.34731 0.04841 0.0
C1040 C 0.93281 0.34245 0.02125 0.0
H1041 H 0.62658 0.03932 0.47411 0.0
H1042 H 0.66409 0.01663 0.41826 0.0
H1043 H 0.65444 0.98025 0.44586 0.0
H1044 H 0.64611 0.02136 0.53241 0.0
H1045 H 0.61686 0.01054 0.54897 0.0
H1046 H 0.62714 0.035 0.52502 0.0
H1047 H 0.58607 0.00936 0.49914 0.0
H1048 H 0.57564 0.98486 0.52304 0.0
H1049 H 0.57695 0.97817 0.48892 0.0
H1050 H 0.64068 0.94636 0.47974 0.0
H1051 H 0.62246 0.91671 0.51649 0.0
H1052 H 0.59353 0.96158 0.54939 0.0
C1053 C 0.63284 0.02676 0.46769 0.0
C1054 C 0.64614 0.03083 0.44408 0.0
C1055 C 0.65385 0.01385 0.43629 0.0
C1056 C 0.64852 0.99318 0.45185 0.0
C1057 C 0.63539 0.98975 0.47505 0.0
C1058 C 0.62757 0.00601 0.48287 0.0
C1059 C 0.6133 -0.00213 0.50835 0.0
C1060 C 0.62666 0.01735 0.52996 0.0
C1061 C 0.5864 0.99222 0.50462 0.0
C1062 C 0.61428 0.97445 0.51362 0.0
C1063 C 0.62721 0.97012 0.49429 0.0
C1064 C 0.6305 0.94954 0.495 0.0
C1065 C 0.62013 0.93284 0.51595 0.0
C1066 C 0.60654 0.93681 0.53577 0.0
C1067 C 0.60376 0.95798 0.53453 0.0
H1068 H 0.62011 0.57356 0.02594 0.0
H1069 H 0.67702 0.63975 0.0651 0.0
H1070 H 0.66961 0.66592 0.0342 0.0
H1071 H 0.63319 0.59838 0.95989 0.0
H1072 H 0.60088 0.58271 0.95055 0.0
H1073 H 0.61148 0.56924 0.975 0.0
H1074 H 0.57883 0.56765 0.00772 0.0
H1075 H 0.56809 0.58105 0.98338 0.0
H1076 H 0.5782 0.59573 0.01494 0.0
H1077 H 0.6552 0.6848 -0.00023 0.0
H1078 H 0.63376 0.69495 0.96537 0.0
H1079 H 0.58608 0.61627 0.94924 0.0
C1080 C 0.63115 0.59356 0.02794 0.0
C1081 C 0.64918 0.60461 0.04789 0.0
C1082 C 0.66309 0.63086 0.04996 0.0
C1083 C 0.65908 0.64589 0.03246 0.0
C1084 C 0.64111 0.63437 0.01305 0.0
C1085 C 0.62733 0.6088 0.01074 0.0
C1086 C 0.60851 0.60102 0.98881 0.0
C1087 C 0.61385 0.58702 0.96729 0.0
C1088 C 0.58184 0.58545 -0.00065 0.0
C1089 C 0.61366 0.62621 0.97933 0.0
C1090 C 0.63266 0.64522 0.99341 0.0
C1091 C 0.64035 0.67008 0.98853 0.0
C1092 C 0.62807 0.67565 0.96895 0.0
C1093 C 0.60824 0.65641 0.95462 0.0
C1094 C 0.60121 0.63142 0.95978 0.0
H1095 H 0.00877 0.62763 0.58644 0.0
H1096 H 0.07622 0.66264 0.53968 0.0
H1097 H 0.05105 0.65051 0.4994 0.0
H1098 H 0.97454 0.57561 0.54553 0.0
H1099 H 0.94523 0.57453 0.54989 0.0
H1100 H 0.96842 0.58724 0.57528 0.0
H1101 H 0.96726 0.62834 0.57407 0.0
H1102 H 0.94396 0.61569 0.54874 0.0
H1103 H 0.97236 0.64466 0.54347 0.0
H1104 H 0.01898 0.63279 0.46426 0.0
H1105 H 0.98173 0.61134 0.43633 0.0
H1106 H 0.93499 0.58804 0.5057 0.0
C1107 C 0.01825 0.63296 0.56775 0.0
C1108 C 0.04447 0.64607 0.56624 0.0
C1109 C 0.05615 0.65262 0.54137 0.0
C1110 C 0.04203 0.64583 0.51834 0.0
C1111 C 0.01626 0.63265 0.5205 0.0
C1112 C 0.00443 0.62641 0.54452 0.0
C1113 C 0.97645 0.61164 0.54128 0.0
C1114 C 0.96553 0.58572 0.55373 0.0
C1115 C 0.9643 0.62594 0.55256 0.0
C1116 C 0.97449 0.61009 0.51171 0.0
C1117 C -0.00233 0.62247 0.50013 0.0
C1118 C 0.00069 0.62317 0.47307 0.0
C1119 C 0.97942 0.61088 0.45738 0.0
C1120 C 0.95544 0.59802 0.46882 0.0
C1121 C 0.95304 0.59775 0.49635 0.0
H1122 H 0.60771 0.95346 0.9785 0.0
H1123 H 0.66698 0.98364 0.92085 0.0
H1124 H 0.69024 0.02143 0.94791 0.0
H1125 H 0.60768 0.00804 0.99007 0.0
H1126 H 0.60107 0.00287 0.0246 0.0
H1127 H 0.59099 0.97683 0.00285 0.0
H1128 H 0.61454 0.96034 0.03076 0.0
H1129 H 0.62461 0.98632 0.05275 0.0
H1130 H 0.64719 0.98034 0.03736 0.0
H1131 H 0.70498 0.05754 0.97924 0.0
H1132 H 0.70941 0.08916 0.01156 0.0
H1133 H 0.63977 0.03513 0.04759 0.0
C1134 C 0.62586 0.96772 0.97183 0.0
C1135 C 0.63561 0.96557 0.94767 0.0
C1136 C 0.65921 0.98488 0.93939 0.0
C1137 C 0.67258 0.00636 0.95466 0.0
C1138 C 0.66211 0.00815 0.97811 0.0
C1139 C 0.6393 0.98927 0.98667 0.0
C1140 C 0.631 0.99655 0.01128 0.0
C1141 C 0.60623 0.99605 0.00692 0.0
C1142 C 0.62924 0.9799 0.03441 0.0
C1143 C 0.65233 0.02276 0.01481 0.0
C1144 C 0.67031 0.02903 0.99578 0.0
C1145 C 0.69116 0.05274 0.99442 0.0
C1146 C 0.69351 0.07057 0.01283 0.0
C1147 C 0.67492 0.0646 0.03204 0.0
C1148 C 0.65432 0.04027 0.03317 0.0
H1149 H 0.63618 0.62319 0.45376 0.0
H1150 H 0.68602 0.61896 0.51048 0.0
H1151 H 0.66647 0.63038 0.54569 0.0
H1152 H 0.63361 0.67552 0.48437 0.0
H1153 H 0.60113 0.66271 0.47679 0.0
H1154 H 0.62056 0.65642 0.45566 0.0
H1155 H 0.59034 0.60913 0.46104 0.0
H1156 H 0.57094 0.61525 0.48232 0.0
H1157 H 0.58302 0.59584 0.49344 0.0
H1158 H 0.63974 0.63916 0.57508 0.0
H1159 H 0.60813 0.64583 0.59676 0.0
H1160 H 0.5754 0.64417 0.52105 0.0
C1161 C 0.6433 0.62514 0.4735 0.0
C1162 C 0.66269 0.62027 0.47937 0.0
C1163 C 0.67122 0.62263 0.50552 0.0
C1164 C 0.66026 0.62914 0.52566 0.0
C1165 C 0.64084 0.63327 0.51931 0.0
C1166 C 0.63251 0.63152 0.49387 0.0
C1167 C 0.6105 0.63567 0.49256 0.0
C1168 C 0.61684 0.65897 0.47639 0.0
C1169 C 0.58733 0.6126 0.48171 0.0
C1170 C 0.6075 0.63957 0.5213 0.0
C1171 C 0.62529 0.63826 0.53635 0.0
C1172 C 0.62585 0.64046 0.5635 0.0
C1173 C 0.60774 0.64415 0.57563 0.0
C1174 C 0.5893 0.64555 0.56061 0.0
C1175 C 0.58931 0.6433 0.53307 0.0
H1176 H 0.94927 0.62908 0.01297 0.0
H1177 H 0.98814 0.62128 0.07975 0.0
H1178 H 0.02514 0.63383 0.05222 0.0
H1179 H 0.97153 0.60346 0.96666 0.0
H1180 H 0.97445 0.62411 0.94037 0.0
H1181 H 0.95187 0.6171 0.96582 0.0
H1182 H 0.97092 0.66408 0.97559 0.0
H1183 H 0.99352 0.67126 0.95003 0.0
H1184 H 0.00364 0.68262 0.9828 0.0
H1185 H 0.05657 0.644 0.01706 0.0
H1186 H 0.0807 0.65148 0.97644 0.0
H1187 H 0.02139 0.65238 0.93226 0.0
C1188 C 0.96573 0.63048 0.02193 0.0
C1189 C 0.96586 0.62429 0.04853 0.0
C1190 C 0.98762 0.62596 0.05941 0.0
C1191 C 0.00876 0.63313 0.04396 0.0
C1192 C 0.00784 0.63861 0.0177 0.0
C1193 C 0.98696 0.63749 0.00675 0.0
C1194 C 0.99034 0.64288 0.97765 0.0
C1195 C 0.97089 0.62055 0.9617 0.0
C1196 C 0.98956 0.66663 0.97114 0.0
C1197 C 0.01618 0.64667 0.97387 0.0
C1198 C 0.026 0.64435 -0.00273 0.0
C1199 C 0.0492 0.64611 -0.00136 0.0
C1200 C 0.06272 0.65029 0.97543 0.0
C1201 C 0.05295 0.65255 0.95116 0.0
C1202 C 0.02944 0.6509 0.95051 0.0
H1203 H 0.3772 0.97011 0.5486 0.0
H1204 H 0.30209 0.94286 0.52 0.0
H1205 H 0.31876 0.97338 0.48382 0.0
H1206 H 0.40064 0.03487 0.53391 0.0
H1207 H 0.43087 0.04023 0.52444 0.0
H1208 H 0.41284 0.01669 0.54833 0.0
H1209 H 0.41618 0.98383 0.52008 0.0
H1210 H 0.43413 0.00723 0.49605 0.0
H1211 H 0.40609 0.97942 0.48641 0.0
H1212 H 0.34388 0.00617 0.45023 0.0
H1213 H 0.37537 0.03931 0.42219 0.0
H1214 H 0.43382 0.0447 0.47321 0.0
C1215 C 0.36417 0.97059 0.53485 0.0
C1216 C 0.33832 0.95411 0.53711 0.0
C1217 C 0.32196 0.95535 0.51866 0.0
C1218 C 0.33125 0.97259 0.49805 0.0
C1219 C 0.35688 0.9884 0.4963 0.0
C1220 C 0.37308 0.9876 0.51427 0.0
C1221 C 0.39982 0.00636 0.50791 0.0
C1222 C 0.41174 0.02568 0.52996 0.0
C1223 C 0.41493 0.99343 0.50227 0.0
C1224 C 0.39619 0.01781 0.48341 0.0
C1225 C 0.3713 0.00722 0.47704 0.0
C1226 C 0.36341 0.01464 0.45507 0.0
C1227 C 0.38146 0.03345 0.43926 0.0
C1228 C 0.40707 0.0446 0.44552 0.0
C1229 C 0.41442 0.03658 0.4679 0.0
H1230 H 0.39599 0.34649 0.01565 0.0
H1231 H 0.38824 0.37536 0.09035 0.0
H1232 H 0.35957 0.38711 0.07002 0.0
H1233 H 0.39675 0.39383 0.97628 0.0
H1234 H 0.37939 0.37328 0.94975 0.0
H1235 H 0.39824 0.36598 0.97056 0.0
H1236 H 0.3598 0.32309 0.981 0.0
H1237 H 0.34079 0.33033 0.9603 0.0
H1238 H 0.33212 0.32162 0.99398 0.0
H1239 H 0.33314 0.39722 0.04124 0.0
H1240 H 0.31197 0.4063 0.00565 0.0
H1241 H 0.33688 0.3706 0.94993 0.0
C1242 C 0.38817 0.35515 0.0278 0.0
C1243 C 0.39433 0.35998 0.0546 0.0
C1244 C 0.38379 0.37148 0.06976 0.0
C1245 C 0.36741 0.37814 0.05843 0.0
C1246 C 0.36173 0.37311 0.03196 0.0
C1247 C 0.37181 0.36192 0.01682 0.0
C1248 C 0.36345 0.35945 0.9886 0.0
C1249 C 0.38579 0.37401 0.97022 0.0
C1250 C 0.34813 0.33199 0.98051 0.0
C1251 C 0.34739 0.37134 0.99016 0.0
C1252 C 0.34648 0.37892 0.01537 0.0
C1253 C 0.33356 0.39122 0.02145 0.0
C1254 C 0.32159 0.39628 0.00111 0.0
C1255 C 0.32272 0.38911 0.97504 0.0
C1256 C 0.33547 0.37613 0.96968 0.0
H1257 H 0.01744 0.35689 0.55621 0.0
H1258 H 0.07094 0.42806 0.52254 0.0
H1259 H 0.04553 0.41773 0.48245 0.0
H1260 H 0.00098 0.32092 0.49488 0.0
H1261 H 0.96865 0.30248 0.50376 0.0
H1262 H 0.99222 0.31441 0.52886 0.0
H1263 H 0.97032 0.33557 0.55154 0.0
H1264 H 0.94673 0.32375 0.52655 0.0
H1265 H 0.9642 0.35665 0.53306 0.0
H1266 H 0.01325 0.40108 0.4474 0.0
H1267 H 0.97557 0.37963 0.42009 0.0
H1268 H 0.94274 0.31946 0.4767 0.0
C1269 C 0.02401 0.37013 0.54025 0.0
C1270 C 0.0462 0.39324 0.54246 0.0
C1271 C 0.05398 0.41023 0.52128 0.0
C1272 C 0.03975 0.4045 0.49838 0.0
C1273 C 0.01781 0.3817 0.49696 0.0
C1274 C 0.00995 0.36477 0.51729 0.0
C1275 C 0.98486 0.34228 0.51143 0.0
C1276 C 0.9868 0.31862 0.50962 0.0
C1277 C 0.96538 0.33941 0.53185 0.0
C1278 C 0.97959 0.34952 0.4849 0.0
C1279 C -0.00102 0.37218 0.47678 0.0
C1280 C -0.00197 0.38321 0.45341 0.0
C1281 C 0.97652 0.37089 0.43806 0.0
C1282 C 0.9562 0.34786 0.44625 0.0
C1283 C 0.958 0.33695 0.46981 0.0
H1284 H 0.49494 0.1243 0.12757 0.0
H1285 H 0.46403 0.08748 0.05339 0.0
H1286 H 0.50288 0.08728 0.04392 0.0
H1287 H 0.5587 0.16317 0.10484 0.0
H1288 H 0.57197 0.16008 0.13502 0.0
H1289 H 0.54225 0.15855 0.13527 0.0
H1290 H 0.52256 0.11566 0.15824 0.0
H1291 H 0.55218 0.11701 0.158 0.0
H1292 H 0.52544 0.09089 0.14341 0.0
H1293 H 0.54419 0.08923 0.04351 0.0
H1294 H 0.58522 0.09346 0.05199 0.0
H1295 H 0.58916 0.12908 0.12642 0.0
C1296 C 0.4964 0.11642 0.1092 0.0
C1297 C 0.47644 0.10594 0.0912 0.0
C1298 C 0.47907 0.09565 0.06747 0.0
C1299 C 0.50108 0.09547 0.0619 0.0
C1300 C 0.52027 0.10571 0.0802 0.0
C1301 C 0.5182 0.11607 0.10333 0.0
C1302 C 0.54125 0.12511 0.12009 0.0
C1303 C 0.55431 0.15341 0.12402 0.0
C1304 C 0.53497 0.11134 0.14649 0.0
C1305 C 0.55649 0.11791 0.10292 0.0
C1306 C 0.5441 0.10685 0.07995 0.0
C1307 C 0.55415 0.09801 0.06134 0.0
C1308 C 0.57745 0.10046 0.06637 0.0
C1309 C 0.59044 0.11164 0.08985 0.0
C1310 C 0.5798 0.12059 0.10822 0.0
H1311 H 0.48516 0.55563 0.60288 0.0
H1312 H 0.46433 0.61113 0.62055 0.0
H1313 H 0.42032 0.57824 0.62293 0.0
H1314 H 0.4312 0.51626 0.56246 0.0
H1315 H 0.42883 0.48785 0.57434 0.0
H1316 H 0.45868 0.51589 0.5731 0.0
H1317 H 0.46509 0.51142 0.62254 0.0
H1318 H 0.43525 0.48344 0.62395 0.0
H1319 H 0.44206 0.5089 0.64572 0.0
H1320 H 0.37886 0.5393 0.62538 0.0
H1321 H 0.34251 0.49689 0.6264 0.0
H1322 H 0.3902 0.4668 0.60651 0.0
C1323 C 0.47134 0.5609 0.60707 0.0
C1324 C 0.47822 0.58597 0.61156 0.0
C1325 C 0.45954 0.59206 0.61702 0.0
C1326 C 0.43447 0.57352 0.61842 0.0
C1327 C 0.42836 0.54898 0.61417 0.0
C1328 C 0.44621 0.54263 0.60844 0.0
C1329 C 0.43468 0.51481 0.6051 0.0
C1330 C 0.43858 0.50833 0.57708 0.0
C1331 C 0.44488 0.50402 0.62555 0.0
C1332 C 0.40762 0.50651 0.61016 0.0
C1333 C 0.40438 0.52652 0.61532 0.0
C1334 C 0.38113 0.52348 0.62121 0.0
C1335 C 0.36061 0.49931 0.6218 0.0
C1336 C 0.36349 0.47853 0.6165 0.0
C1337 C 0.38735 0.4823 0.61053 0.0
H1338 H 0.89292 0.41522 0.10177 0.0
H1339 H 0.82137 0.37248 0.14021 0.0
H1340 H 0.8174 0.41005 0.14234 0.0
H1341 H 0.91382 0.47018 0.13924 0.0
H1342 H 0.92939 0.4909 0.11225 0.0
H1343 H 0.92596 0.46039 0.1126 0.0
H1344 H 0.90423 0.45095 0.0673 0.0
H1345 H 0.90761 0.48147 0.06679 0.0
H1346 H 0.87729 0.45435 0.06296 0.0
H1347 H 0.82194 0.45265 0.14149 0.0
H1348 H 0.83483 0.49713 0.13816 0.0
H1349 H 0.9035 0.51171 0.10052 0.0
C1350 C 0.8763 0.41367 0.11047 0.0
C1351 C 0.85742 0.3909 0.12079 0.0
C1352 C 0.83607 0.38973 0.13216 0.0
C1353 C 0.83362 0.41095 0.13343 0.0
C1354 C 0.85268 0.43313 0.12321 0.0
C1355 C 0.8736 0.43462 0.11195 0.0
C1356 C 0.89176 0.46082 0.10313 0.0
C1357 C 0.9167 0.47117 0.11768 0.0
C1358 C 0.89542 0.46195 0.07327 0.0
C1359 C 0.8779 0.47392 0.11142 0.0
C1360 C 0.85535 0.45763 0.12285 0.0
C1361 C 0.83951 0.46556 0.13248 0.0
C1362 C 0.84701 0.49086 0.13051 0.0
C1363 C 0.87017 0.5079 0.11907 0.0
C1364 C 0.88566 0.49917 0.1093 0.0
H1365 H 0.40338 0.9046 0.59543 0.0
H1366 H 0.35747 0.84426 0.64857 0.0
H1367 H 0.39172 0.83526 0.65399 0.0
H1368 H 0.4333 0.87461 0.56374 0.0
H1369 H 0.46283 0.90292 0.56113 0.0
H1370 H 0.43445 0.90409 0.56104 0.0
H1371 H 0.45058 0.93473 0.60022 0.0
H1372 H 0.47898 0.93364 0.60046 0.0
H1373 H 0.46038 0.92615 0.62974 0.0
H1374 H 0.43152 0.8336 0.65427 0.0
H1375 H 0.47363 0.83931 0.64929 0.0
H1376 H 0.49295 0.90076 0.59596 0.0
C1377 C 0.40042 0.8894 0.60813 0.0
C1378 C 0.37774 0.87511 0.62157 0.0
C1379 C 0.3747 0.85545 0.63805 0.0
C1380 C 0.39403 0.85019 0.64125 0.0
C1381 C 0.4162 0.86475 0.62779 0.0
C1382 C 0.41945 0.88392 0.61154 0.0
C1383 C 0.44517 0.89707 0.59961 0.0
C1384 C 0.44384 0.89451 0.5696 0.0
C1385 C 0.45963 0.92452 0.60802 0.0
C1386 C 0.45598 0.8824 0.6118 0.0
C1387 C 0.439 0.8638 0.62796 0.0
C1388 C 0.44494 0.84805 0.6416 0.0
C1389 C 0.4689 0.85145 0.63866 0.0
C1390 C 0.48658 0.87047 0.62223 0.0
C1391 C 0.47988 0.88603 0.60863 0.0
H1392 H 0.60312 0.5074 0.0987 0.0
H1393 H 0.65269 0.48186 0.12605 0.0
H1394 H 0.61767 0.43866 0.12618 0.0
H1395 H 0.55136 0.4668 0.13709 0.0
H1396 H 0.52862 0.46167 0.1123 0.0
H1397 H 0.55789 0.49034 0.1128 0.0
H1398 H 0.56613 0.48292 0.0648 0.0
H1399 H 0.53685 0.4542 0.06414 0.0
H1400 H 0.56518 0.45432 0.05626 0.0
H1401 H 0.57674 0.39863 0.12602 0.0
H1402 H 0.53299 0.36469 0.12514 0.0
H1403 H 0.51045 0.41641 0.09713 0.0
C1404 C 0.60669 0.49273 0.10451 0.0
C1405 C 0.63066 0.49802 0.11238 0.0
C1406 C 0.63451 0.47826 0.1199 0.0
C1407 C 0.61474 0.45365 0.12001 0.0
C1408 C 0.5913 0.44911 0.11236 0.0
C1409 C 0.58722 0.46808 0.10463 0.0
C1410 C 0.56012 0.45835 0.09814 0.0
C1411 C 0.54884 0.46998 0.11616 0.0
C1412 C 0.55689 0.46271 0.06911 0.0
C1413 C 0.54949 0.431 0.1039 0.0
C1414 C 0.56779 0.42602 0.11197 0.0
C1415 C 0.56229 0.40225 0.11948 0.0
C1416 C 0.53738 0.38311 0.11896 0.0
C1417 C 0.51832 0.38786 0.11096 0.0
C1418 C 0.52461 0.4121 0.10305 0.0
H1419 H 0.10477 0.50766 0.60161 0.0
H1420 H 0.15068 0.51295 0.66818 0.0
H1421 H 0.15807 0.55514 0.67754 0.0
H1422 H 0.14106 0.57184 0.58098 0.0
H1423 H 0.11407 0.57378 0.57182 0.0
H1424 H 0.1133 0.54447 0.56992 0.0
H1425 H 0.07435 0.52438 0.59981 0.0
H1426 H 0.07504 0.55363 0.60185 0.0
H1427 H 0.07555 0.53797 0.63136 0.0
H1428 H 0.15937 0.59646 0.68022 0.0
H1429 H 0.15441 0.63338 0.67603 0.0
H1430 H 0.10741 0.60034 0.60783 0.0
C1431 C 0.11654 0.51771 0.61806 0.0
C1432 C 0.12719 0.50701 0.63414 0.0
C1433 C 0.14236 0.52078 0.65556 0.0
C1434 C 0.14667 0.54476 0.66102 0.0
C1435 C 0.1357 0.55466 0.64487 0.0
C1436 C 0.12099 0.54156 0.62381 0.0
C1437 C 0.11084 0.55606 0.60982 0.0
C1438 C 0.1204 0.56189 0.58146 0.0
C1439 C 0.08226 0.54218 0.61078 0.0
C1440 C 0.12198 0.57932 0.62641 0.0
C1441 C 0.13635 0.57825 0.64648 0.0
C1442 C 0.14823 0.59753 0.66452 0.0
C1443 C 0.1453 0.61841 0.66198 0.0
C1444 C 0.13053 0.61977 0.64161 0.0
C1445 C 0.11885 0.59993 0.62361 0.0
H1446 H 0.89539 0.49252 0.41634 0.0
H1447 H 0.83391 0.47859 0.36518 0.0
H1448 H 0.82328 0.43479 0.36072 0.0
H1449 H 0.91483 0.45718 0.38149 0.0
H1450 H 0.92315 0.44565 0.40986 0.0
H1451 H 0.92414 0.47504 0.41137 0.0
H1452 H 0.89446 0.45969 0.45135 0.0
H1453 H 0.89341 0.43021 0.44999 0.0
H1454 H 0.86498 0.43129 0.44889 0.0
H1455 H 0.8218 0.39357 0.35863 0.0
H1456 H 0.82964 0.35833 0.35908 0.0
H1457 H 0.89195 0.39944 0.4118 0.0
C1458 C 0.87941 0.48019 0.40457 0.0
C1459 C 0.86544 0.48899 0.39116 0.0
C1460 C 0.84485 0.47227 0.3757 0.0
C1461 C 0.83863 0.44734 0.3731 0.0
C1462 C 0.85308 0.43939 0.38621 0.0
C1463 C 0.87296 0.4553 0.40175 0.0
C1464 C 0.8865 0.44262 0.41241 0.0
C1465 C 0.91376 0.45591 0.40322 0.0
C1466 C 0.88472 0.44084 0.44245 0.0
C1467 C 0.87156 0.41729 0.39986 0.0
C1468 C 0.8522 0.41567 0.38503 0.0
C1469 C 0.8367 0.3945 0.37046 0.0
C1470 C 0.84132 0.3746 0.3708 0.0
C1471 C 0.86134 0.37607 0.38554 0.0
C1472 C 0.87633 0.3976 0.40054 0.0
H1473 H 0.51077 0.89387 0.83879 0.0
H1474 H 0.54085 0.9274 0.91449 0.0
H1475 H 0.50233 0.92809 0.92419 0.0
H1476 H 0.47945 0.92833 0.82536 0.0
H1477 H 0.45311 0.90246 0.80994 0.0
H1478 H 0.48316 0.90476 0.80884 0.0
H1479 H 0.46439 0.86091 0.82946 0.0
H1480 H 0.4343 0.8585 0.83069 0.0
H1481 H 0.44795 0.85453 0.86014 0.0
H1482 H 0.46053 0.92479 0.92595 0.0
H1483 H 0.41836 0.91828 0.91936 0.0
H1484 H 0.41543 0.88693 0.84251 0.0
C1485 C 0.50931 0.90142 0.85738 0.0
C1486 C 0.52885 0.91058 0.87588 0.0
C1487 C 0.52615 0.92029 0.89999 0.0
C1488 C 0.50433 0.92075 0.90571 0.0
C1489 C 0.4854 0.91147 0.88711 0.0
C1490 C 0.48766 0.90204 0.86342 0.0
C1491 C 0.46449 0.89317 0.84688 0.0
C1492 C 0.47042 0.90808 0.82124 0.0
C1493 C 0.45205 0.86511 0.84149 0.0
C1494 C 0.44884 0.89905 0.86502 0.0
C1495 C 0.46126 0.90959 0.88812 0.0
C1496 C 0.45061 0.91658 0.90793 0.0
C1497 C 0.42664 0.91278 0.904 0.0
C1498 C 0.41357 0.9021 0.88042 0.0
C1499 C 0.4249 0.89513 0.86075 0.0
H1500 H 0.49592 0.42901 0.38414 0.0
H1501 H 0.52391 0.38604 0.42356 0.0
H1502 H 0.56518 0.42381 0.42752 0.0
H1503 H 0.55168 0.4685 0.3474 0.0
H1504 H 0.54839 0.49558 0.3507 0.0
H1505 H 0.52122 0.46505 0.35059 0.0
H1506 H 0.50766 0.47426 0.39525 0.0
H1507 H 0.53479 0.5048 0.39551 0.0
H1508 H 0.52886 0.48396 0.4226 0.0
H1509 H 0.60316 0.46644 0.42783 0.0
H1510 H 0.63511 0.51081 0.42444 0.0
H1511 H 0.58203 0.52562 0.38478 0.0
C1512 C 0.51071 0.42748 0.39356 0.0
C1513 C 0.50669 0.40457 0.40356 0.0
C1514 C 0.52657 0.4034 0.41574 0.0
C1515 C 0.55007 0.42474 0.41808 0.0
C1516 C 0.55336 0.44704 0.40807 0.0
C1517 C 0.53425 0.44854 0.39603 0.0
C1518 C 0.54256 0.47478 0.38715 0.0
C1519 C 0.54086 0.47604 0.35718 0.0
C1520 C 0.52758 0.48505 0.40096 0.0
C1521 C 0.5693 0.48787 0.3963 0.0
C1522 C 0.5752 0.47155 0.40824 0.0
C1523 C 0.59878 0.47939 0.41846 0.0
C1524 C 0.61678 0.50463 0.41645 0.0
C1525 C 0.61107 0.52169 0.40435 0.0
C1526 C 0.587 0.51307 0.39412 0.0
H1527 H 0.07322 0.48122 0.88932 0.0
H1528 H 0.0872 0.47699 0.80666 0.0
H1529 H 0.09992 0.52125 0.80149 0.0
H1530 H 0.0476 0.52112 0.88203 0.0
H1531 H 0.06147 0.53836 0.91163 0.0
H1532 H 0.05412 0.5065 0.90898 0.0
H1533 H 0.09983 0.51969 0.91987 0.0
H1534 H 0.10735 0.55161 0.92251 0.0
H1535 H 0.12456 0.54328 0.90034 0.0
H1536 H 0.11057 0.56572 0.80513 0.0
H1537 H 0.11756 0.60718 0.81712 0.0
H1538 H 0.09644 0.58234 0.89736 0.0
C1539 C 0.07903 0.4896 0.87014 0.0
C1540 C 0.07924 0.47564 0.84839 0.0
C1541 C 0.08687 0.4873 0.82361 0.0
C1542 C 0.09418 0.51245 0.82047 0.0
C1543 C 0.09375 0.52565 0.8423 0.0
C1544 C 0.08633 0.51465 0.86664 0.0
C1545 C 0.08708 0.53288 0.8868 0.0
C1546 C 0.06102 0.52419 0.89801 0.0
C1547 C 0.10583 0.53711 0.90867 0.0
C1548 C 0.09595 0.55582 0.86995 0.0
C1549 C 0.09978 0.55128 0.84438 0.0
C1550 C 0.10769 0.56953 0.82511 0.0
C1551 C 0.11162 0.59303 0.83213 0.0
C1552 C 0.10757 0.59803 0.85818 0.0
C1553 C 0.09978 0.57915 0.8773 0.0
H1554 H 0.60029 0.08772 0.39538 0.0
H1555 H 0.65333 0.16153 0.36709 0.0
H1556 H 0.62022 0.17243 0.36641 0.0
H1557 H 0.55008 0.07947 0.35603 0.0
H1558 H 0.52661 0.06302 0.38056 0.0
H1559 H 0.55483 0.06159 0.38081 0.0
H1560 H 0.56333 0.07756 0.4287 0.0
H1561 H 0.53505 0.07895 0.42864 0.0
H1562 H 0.5642 0.10623 0.43671 0.0
H1563 H 0.58104 0.1746 0.36654 0.0
H1564 H 0.53842 0.16789 0.36745 0.0
H1565 H 0.51086 0.09255 0.39531 0.0
C1566 C 0.60504 0.1063 0.38938 0.0
C1567 C 0.62942 0.1238 0.38134 0.0
C1568 C 0.63479 0.14781 0.37334 0.0
C1569 C 0.61613 0.1542 0.37294 0.0
C1570 C 0.59222 0.13639 0.38062 0.0
C1571 C 0.58663 0.11296 0.38876 0.0
C1572 C 0.55922 0.0969 0.39489 0.0
C1573 C 0.54697 0.07389 0.377 0.0
C1574 C 0.55522 0.08948 0.42397 0.0
C1575 C 0.55021 0.11486 0.38854 0.0
C1576 C 0.56957 0.13759 0.38052 0.0
C1577 C 0.56575 0.15694 0.37295 0.0
C1578 C 0.54145 0.15292 0.37349 0.0
C1579 C 0.52129 0.1297 0.38146 0.0
C1580 C 0.52586 0.11053 0.38922 0.0
H1581 H 0.48004 0.57059 0.85264 0.0
H1582 H 0.47602 0.60129 0.92767 0.0
H1583 H 0.4333 0.56631 0.9338 0.0
H1584 H 0.41501 0.54655 0.83371 0.0
H1585 H 0.41247 0.51914 0.81864 0.0
H1586 H 0.44199 0.54761 0.81925 0.0
H1587 H 0.46211 0.52469 0.84194 0.0
H1588 H 0.4327 0.4962 0.84141 0.0
H1589 H 0.44891 0.50801 0.87199 0.0
H1590 H 0.39213 0.52673 0.93301 0.0
H1591 H 0.35574 0.4851 0.92568 0.0
H1592 H 0.38681 0.48038 0.85116 0.0
C1593 C 0.47011 0.57014 0.87023 0.0
C1594 C 0.48137 0.5887 0.88966 0.0
C1595 C 0.46777 0.5873 0.91249 0.0
C1596 C 0.44347 0.56755 0.91612 0.0
C1597 C 0.43302 0.54944 0.8967 0.0
C1598 C 0.44588 0.55058 0.87417 0.0
C1599 C 0.43089 0.52814 0.85689 0.0
C1600 C 0.42472 0.53583 0.83056 0.0
C1601 C 0.44446 0.51339 0.85284 0.0
C1602 C 0.40784 0.51388 0.87352 0.0
C1603 C 0.40932 0.52659 0.89627 0.0
C1604 C 0.39066 0.51669 0.91516 0.0
C1605 C 0.37008 0.49302 0.91082 0.0
C1606 C 0.3684 0.47948 0.88783 0.0
C1607 C 0.38744 0.49029 0.86885 0.0
loop_
_geom_bond_atom_site_label_1
_geom_bond_atom_site_label_2
_geom_bond_distance
_geom_bond_site_symmetry_2
_ccdc_geom_bond_type
C0 O1 1.160 . S
C0 O7 1.185 . S
O1 C0 1.160 . S
O2 Zn3 1.899 . S
O2 C10 1.284 . S
Zn3 O2 1.899 . S
Zn3 O4 2.032 . S
Zn3 O7 2.086 . S
Zn3 O12 1.977 . S
O4 Zn3 2.032 . S
O4 C8 1.278 . S
C5 O6 1.203 . S
C5 O12 1.267 . S
O6 C5 1.203 . S
O7 C0 1.185 . S
O7 Zn3 2.086 . S
C8 O4 1.278 . S
C8 O9 1.211 . S
O9 C8 1.211 . S
C10 O2 1.284 . S
C10 O11 1.273 . S
O11 C10 1.273 . S
O12 Zn3 1.977 . S
O12 C5 1.267 . S
C13 O14 1.160 . S
C13 O20 1.185 . S
O14 C13 1.160 . S
O15 Zn16 1.899 . S
O15 C23 1.284 . S
Zn16 O15 1.899 . S
Zn16 O17 2.032 . S
Zn16 O20 2.086 . S
Zn16 O25 1.977 . S
O17 Zn16 2.032 . S
O17 C21 1.278 . S
C18 O19 1.203 . S
C18 O25 1.267 . S
O19 C18 1.203 . S
O20 C13 1.185 . S
O20 Zn16 2.086 . S
C21 O17 1.278 . S
C21 O22 1.211 . S
O22 C21 1.211 . S
C23 O15 1.284 . S
C23 O24 1.273 . S
O24 C23 1.273 . S
O25 Zn16 1.977 . S
O25 C18 1.267 . S
C26 O27 1.160 . S
C26 O33 1.185 . S
O27 C26 1.160 . S
O28 Zn29 1.899 . S
O28 C36 1.284 . S
Zn29 O28 1.899 . S
Zn29 O30 2.032 . S
Zn29 O33 2.086 . S
Zn29 O38 1.977 . S
O30 Zn29 2.032 . S
O30 C34 1.278 . S
C31 O32 1.203 . S
C31 O38 1.267 . S
O32 C31 1.203 . S
O33 C26 1.185 . S
O33 Zn29 2.086 . S
C34 O30 1.278 . S
C34 O35 1.211 . S
O35 C34 1.211 . S
C36 O28 1.284 . S
C36 O37 1.273 . S
O37 C36 1.273 . S
O38 Zn29 1.977 . S
O38 C31 1.267 . S
C39 O40 1.160 . S
C39 O46 1.185 . S
O40 C39 1.160 . S
O41 Zn42 1.899 . S
O41 C49 1.284 . S
Zn42 O41 1.899 . S
Zn42 O43 2.032 . S
Zn42 O46 2.086 . S
Zn42 O51 1.977 . S
O43 Zn42 2.032 . S
O43 C47 1.278 . S
C44 O45 1.203 . S
C44 O51 1.267 . S
O45 C44 1.203 . S
O46 C39 1.185 . S
O46 Zn42 2.086 . S
C47 O43 1.278 . S
C47 O48 1.211 . S
O48 C47 1.211 . S
C49 O41 1.284 . S
C49 O50 1.273 . S
O50 C49 1.273 . S
O51 Zn42 1.977 . S
O51 C44 1.267 . S
C52 O53 1.160 . S
C52 O59 1.185 . S
O53 C52 1.160 . S
O54 Zn55 1.899 . S
O54 C62 1.284 . S
Zn55 O54 1.899 . S
Zn55 O56 2.032 . S
Zn55 O59 2.086 . S
Zn55 O64 1.977 . S
O56 Zn55 2.032 . S
O56 C60 1.278 . S
C57 O58 1.203 . S
C57 O64 1.267 . S
O58 C57 1.203 . S
O59 C52 1.185 . S
O59 Zn55 2.086 . S
C60 O56 1.278 . S
C60 O61 1.211 . S
O61 C60 1.211 . S
C62 O54 1.284 . S
C62 O63 1.273 . S
O63 C62 1.273 . S
O64 Zn55 1.977 . S
O64 C57 1.267 . S
C65 O66 1.160 . S
C65 O72 1.185 . S
O66 C65 1.160 . S
O67 Zn68 1.899 . S
O67 C75 1.284 . S
Zn68 O67 1.899 . S
Zn68 O69 2.032 . S
Zn68 O72 2.086 . S
Zn68 O77 1.977 . S
O69 Zn68 2.032 . S
O69 C73 1.278 . S
C70 O71 1.203 . S
C70 O77 1.267 . S
O71 C70 1.203 . S
O72 C65 1.185 . S
O72 Zn68 2.086 . S
C73 O69 1.278 . S
C73 O74 1.211 . S
O74 C73 1.211 . S
C75 O67 1.284 . S
C75 O76 1.273 . S
O76 C75 1.273 . S
O77 Zn68 1.977 . S
O77 C70 1.267 . S
C78 O79 1.160 . S
C78 O85 1.185 . S
O79 C78 1.160 . S
O80 Zn81 1.899 . S
O80 C88 1.284 . S
Zn81 O80 1.899 . S
Zn81 O82 2.032 . S
Zn81 O85 2.086 . S
Zn81 O90 1.977 . S
O82 Zn81 2.032 . S
O82 C86 1.278 . S
C83 O84 1.203 . S
C83 O90 1.267 . S
O84 C83 1.203 . S
O85 C78 1.185 . S
O85 Zn81 2.086 . S
C86 O82 1.278 . S
C86 O87 1.211 . S
O87 C86 1.211 . S
C88 O80 1.284 . S
C88 O89 1.273 . S
O89 C88 1.273 . S
O90 Zn81 1.977 . S
O90 C83 1.267 . S
C91 O92 1.160 . S
C91 O98 1.185 . S
O92 C91 1.160 . S
O93 Zn94 1.899 . S
O93 C101 1.284 . S
Zn94 O93 1.899 . S
Zn94 O95 2.032 . S
Zn94 O98 2.086 . S
Zn94 O103 1.977 . S
O95 Zn94 2.032 . S
O95 C99 1.278 . S
C96 O97 1.203 . S
C96 O103 1.267 . S
O97 C96 1.203 . S
O98 C91 1.185 . S
O98 Zn94 2.086 . S
C99 O95 1.278 . S
C99 O100 1.211 . S
O100 C99 1.211 . S
C101 O93 1.284 . S
C101 O102 1.273 . S
O102 C101 1.273 . S
O103 Zn94 1.977 . S
O103 C96 1.267 . S
C104 O105 1.160 . S
C104 O111 1.185 . S
O105 C104 1.160 . S
O106 Zn107 1.899 . S
O106 C114 1.284 . S
Zn107 O106 1.899 . S
Zn107 O108 2.032 . S
Zn107 O111 2.086 . S
Zn107 O116 1.977 . S
O108 Zn107 2.032 . S
O108 C112 1.278 . S
C109 O110 1.203 . S
C109 O116 1.267 . S
O110 C109 1.203 . S
O111 C104 1.185 . S
O111 Zn107 2.086 . S
C112 O108 1.278 . S
C112 O113 1.211 . S
O113 C112 1.211 . S
C114 O106 1.284 . S
C114 O115 1.273 . S
O115 C114 1.273 . S
O116 Zn107 1.977 . S
O116 C109 1.267 . S
C117 O118 1.160 . S
C117 O124 1.185 . S
O118 C117 1.160 . S
O119 Zn120 1.899 . S
O119 C127 1.284 . S
Zn120 O119 1.899 . S
Zn120 O121 2.032 . S
Zn120 O124 2.086 . S
Zn120 O129 1.977 . S
O121 Zn120 2.032 . S
O121 C125 1.278 . S
C122 O123 1.203 . S
C122 O129 1.267 . S
O123 C122 1.203 . S
O124 C117 1.185 . S
O124 Zn120 2.086 . S
C125 O121 1.278 . S
C125 O126 1.211 . S
O126 C125 1.211 . S
C127 O119 1.284 . S
C127 O128 1.273 . S
O128 C127 1.273 . S
O129 Zn120 1.977 . S
O129 C122 1.267 . S
C130 O131 1.160 . S
C130 O137 1.185 . S
O131 C130 1.160 . S
O132 Zn133 1.899 . S
O132 C140 1.284 . S
Zn133 O132 1.899 . S
Zn133 O134 2.032 . S
Zn133 O137 2.086 . S
Zn133 O142 1.977 . S
O134 Zn133 2.032 . S
O134 C138 1.278 . S
C135 O136 1.203 . S
C135 O142 1.267 . S
O136 C135 1.203 . S
O137 C130 1.185 . S
O137 Zn133 2.086 . S
C138 O134 1.278 . S
C138 O139 1.211 . S
O139 C138 1.211 . S
C140 O132 1.284 . S
C140 O141 1.273 . S
O141 C140 1.273 . S
O142 Zn133 1.977 . S
O142 C135 1.267 . S
C143 O144 1.160 . S
C143 O150 1.185 . S
O144 C143 1.160 . S
O145 Zn146 1.899 . S
O145 C153 1.284 . S
Zn146 O145 1.899 . S
Zn146 O147 2.032 . S
Zn146 O150 2.086 . S
Zn146 O155 1.977 . S
O147 Zn146 2.032 . S
O147 C151 1.278 . S
C148 O149 1.203 . S
C148 O155 1.267 . S
O149 C148 1.203 . S
O150 C143 1.185 . S
O150 Zn146 2.086 . S
C151 O147 1.278 . S
C151 O152 1.211 . S
O152 C151 1.211 . S
C153 O145 1.284 . S
C153 O154 1.273 . S
O154 C153 1.273 . S
O155 Zn146 1.977 . S
O155 C148 1.267 . S
C156 O157 1.160 . S
C156 O163 1.185 . S
O157 C156 1.160 . S
O158 Zn159 1.899 . S
O158 C166 1.284 . S
Zn159 O158 1.899 . S
Zn159 O160 2.032 . S
Zn159 O163 2.086 . S
Zn159 O168 1.977 . S
O160 Zn159 2.032 . S
O160 C164 1.278 . S
C161 O162 1.203 . S
C161 O168 1.267 . S
O162 C161 1.203 . S
O163 C156 1.185 . S
O163 Zn159 2.086 . S
C164 O160 1.278 . S
C164 O165 1.211 . S
O165 C164 1.211 . S
C166 O158 1.284 . S
C166 O167 1.273 . S
O167 C166 1.273 . S
O168 Zn159 1.977 . S
O168 C161 1.267 . S
C169 O170 1.160 . S
C169 O176 1.185 . S
O170 C169 1.160 . S
O171 Zn172 1.899 . S
O171 C179 1.284 . S
Zn172 O171 1.899 . S
Zn172 O173 2.032 . S
Zn172 O176 2.086 . S
Zn172 O181 1.977 . S
O173 Zn172 2.032 . S
O173 C177 1.278 . S
C174 O175 1.203 . S
C174 O181 1.267 . S
O175 C174 1.203 . S
O176 C169 1.185 . S
O176 Zn172 2.086 . S
C177 O173 1.278 . S
C177 O178 1.211 . S
O178 C177 1.211 . S
C179 O171 1.284 . S
C179 O180 1.273 . S
O180 C179 1.273 . S
O181 Zn172 1.977 . S
O181 C174 1.267 . S
C182 O183 1.160 . S
C182 O189 1.185 . S
O183 C182 1.160 . S
O184 Zn185 1.899 . S
O184 C192 1.284 . S
Zn185 O184 1.899 . S
Zn185 O186 2.032 . S
Zn185 O189 2.086 . S
Zn185 O194 1.977 . S
O186 Zn185 2.032 . S
O186 C190 1.278 . S
C187 O188 1.203 . S
C187 O194 1.267 . S
O188 C187 1.203 . S
O189 C182 1.185 . S
O189 Zn185 2.086 . S
C190 O186 1.278 . S
C190 O191 1.211 . S
O191 C190 1.211 . S
C192 O184 1.284 . S
C192 O193 1.273 . S
O193 C192 1.273 . S
O194 Zn185 1.977 . S
O194 C187 1.267 . S
C195 O196 1.160 . S
C195 O202 1.185 . S
O196 C195 1.160 . S
O197 Zn198 1.899 . S
O197 C205 1.284 . S
Zn198 O197 1.899 . S
Zn198 O199 2.032 . S
Zn198 O202 2.086 . S
Zn198 O207 1.977 . S
O199 Zn198 2.032 . S
O199 C203 1.278 . S
C200 O201 1.203 . S
C200 O207 1.267 . S
O201 C200 1.203 . S
O202 C195 1.185 . S
O202 Zn198 2.086 . S
C203 O199 1.278 . S
C203 O204 1.211 . S
O204 C203 1.211 . S
C205 O197 1.284 . S
C205 O206 1.273 . S
O206 C205 1.273 . S
O207 Zn198 1.977 . S
O207 C200 1.267 . S
C208 O209 1.160 . S
C208 O215 1.185 . S
O209 C208 1.160 . S
O210 Zn211 1.899 . S
O210 C218 1.284 . S
Zn211 O210 1.899 . S
Zn211 O212 2.032 . S
Zn211 O215 2.086 . S
Zn211 O220 1.977 . S
O212 Zn211 2.032 . S
O212 C216 1.278 . S
C213 O214 1.203 . S
C213 O220 1.267 . S
O214 C213 1.203 . S
O215 C208 1.185 . S
O215 Zn211 2.086 . S
C216 O212 1.278 . S
C216 O217 1.211 . S
O217 C216 1.211 . S
C218 O210 1.284 . S
C218 O219 1.273 . S
O219 C218 1.273 . S
O220 Zn211 1.977 . S
O220 C213 1.267 . S
C221 O222 1.160 . S
C221 O228 1.185 . S
O222 C221 1.160 . S
O223 Zn224 1.899 . S
O223 C231 1.284 . S
Zn224 O223 1.899 . S
Zn224 O225 2.032 . S
Zn224 O228 2.086 . S
Zn224 O233 1.977 . S
O225 Zn224 2.032 . S
O225 C229 1.278 . S
C226 O227 1.203 . S
C226 O233 1.267 . S
O227 C226 1.203 . S
O228 C221 1.185 . S
O228 Zn224 2.086 . S
C229 O225 1.278 . S
C229 O230 1.211 . S
O230 C229 1.211 . S
C231 O223 1.284 . S
C231 O232 1.273 . S
O232 C231 1.273 . S
O233 Zn224 1.977 . S
O233 C226 1.267 . S
C234 O235 1.160 . S
C234 O241 1.185 . S
O235 C234 1.160 . S
O236 Zn237 1.899 . S
O236 C244 1.284 . S
Zn237 O236 1.899 . S
Zn237 O238 2.032 . S
Zn237 O241 2.086 . S
Zn237 O246 1.977 . S
O238 Zn237 2.032 . S
O238 C242 1.278 . S
C239 O240 1.203 . S
C239 O246 1.267 . S
O240 C239 1.203 . S
O241 C234 1.185 . S
O241 Zn237 2.086 . S
C242 O238 1.278 . S
C242 O243 1.211 . S
O243 C242 1.211 . S
C244 O236 1.284 . S
C244 O245 1.273 . S
O245 C244 1.273 . S
O246 Zn237 1.977 . S
O246 C239 1.267 . S
C247 O248 1.160 . S
C247 O254 1.185 . S
O248 C247 1.160 . S
O249 Zn250 1.899 . S
O249 C257 1.284 . S
Zn250 O249 1.899 . S
Zn250 O251 2.032 . S
Zn250 O254 2.086 . S
Zn250 O259 1.977 . S
O251 Zn250 2.032 . S
O251 C255 1.278 . S
C252 O253 1.203 . S
C252 O259 1.267 . S
O253 C252 1.203 . S
O254 C247 1.185 . S
O254 Zn250 2.086 . S
C255 O251 1.278 . S
C255 O256 1.211 . S
O256 C255 1.211 . S
C257 O249 1.284 . S
C257 O258 1.273 . S
O258 C257 1.273 . S
O259 Zn250 1.977 . S
O259 C252 1.267 . S
C260 O261 1.160 . S
C260 O267 1.185 . S
O261 C260 1.160 . S
O262 Zn263 1.899 . S
O262 C270 1.284 . S
Zn263 O262 1.899 . S
Zn263 O264 2.032 . S
Zn263 O267 2.086 . S
Zn263 O272 1.977 . S
O264 Zn263 2.032 . S
O264 C268 1.278 . S
C265 O266 1.203 . S
C265 O272 1.267 . S
O266 C265 1.203 . S
O267 C260 1.185 . S
O267 Zn263 2.086 . S
C268 O264 1.278 . S
C268 O269 1.211 . S
O269 C268 1.211 . S
C270 O262 1.284 . S
C270 O271 1.273 . S
O271 C270 1.273 . S
O272 Zn263 1.977 . S
O272 C265 1.267 . S
C273 O274 1.160 . S
C273 O280 1.185 . S
O274 C273 1.160 . S
O275 Zn276 1.899 . S
O275 C283 1.284 . S
Zn276 O275 1.899 . S
Zn276 O277 2.032 . S
Zn276 O280 2.086 . S
Zn276 O285 1.977 . S
O277 Zn276 2.032 . S
O277 C281 1.278 . S
C278 O279 1.203 . S
C278 O285 1.267 . S
O279 C278 1.203 . S
O280 C273 1.185 . S
O280 Zn276 2.086 . S
C281 O277 1.278 . S
C281 O282 1.211 . S
O282 C281 1.211 . S
C283 O275 1.284 . S
C283 O284 1.273 . S
O284 C283 1.273 . S
O285 Zn276 1.977 . S
O285 C278 1.267 . S
C286 O287 1.160 . S
C286 O293 1.185 . S
O287 C286 1.160 . S
O288 Zn289 1.899 . S
O288 C296 1.284 . S
Zn289 O288 1.899 . S
Zn289 O290 2.032 . S
Zn289 O293 2.086 . S
Zn289 O298 1.977 . S
O290 Zn289 2.032 . S
O290 C294 1.278 . S
C291 O292 1.203 . S
C291 O298 1.267 . S
O292 C291 1.203 . S
O293 C286 1.185 . S
O293 Zn289 2.086 . S
C294 O290 1.278 . S
C294 O295 1.211 . S
O295 C294 1.211 . S
C296 O288 1.284 . S
C296 O297 1.273 . S
O297 C296 1.273 . S
O298 Zn289 1.977 . S
O298 C291 1.267 . S
C299 O300 1.160 . S
C299 O306 1.185 . S
O300 C299 1.160 . S
O301 Zn302 1.899 . S
O301 C309 1.284 . S
Zn302 O301 1.899 . S
Zn302 O303 2.032 . S
Zn302 O306 2.086 . S
Zn302 O311 1.977 . S
O303 Zn302 2.032 . S
O303 C307 1.278 . S
C304 O305 1.203 . S
C304 O311 1.267 . S
O305 C304 1.203 . S
O306 C299 1.185 . S
O306 Zn302 2.086 . S
C307 O303 1.278 . S
C307 O308 1.211 . S
O308 C307 1.211 . S
C309 O301 1.284 . S
C309 O310 1.273 . S
O310 C309 1.273 . S
O311 Zn302 1.977 . S
O311 C304 1.267 . S
H312 C324 0.930 . S
H313 C326 0.930 . S
H314 C327 0.930 . S
H315 C331 0.959 . S
H316 C331 0.959 . S
H317 C331 0.961 . S
H318 C332 0.960 . S
H319 C332 0.961 . S
H320 C332 0.959 . S
H321 C335 0.929 . S
H322 C336 0.931 . S
H323 C338 0.930 . S
C324 H312 0.930 . S
C324 C325 1.399 . S
C324 C329 1.399 . S
C325 C324 1.399 . S
C325 C326 1.376 . S
C326 H313 0.930 . S
C326 C325 1.376 . S
C326 C327 1.388 . S
C327 H314 0.930 . S
C327 C326 1.388 . S
C327 C328 1.390 . S
C328 C327 1.390 . S
C328 C329 1.394 . S
C328 C334 1.465 . S
C329 C324 1.399 . S
C329 C328 1.394 . S
C329 C330 1.516 . S
C330 C329 1.516 . S
C330 C331 1.502 . S
C330 C332 1.561 . S
C330 C333 1.526 . S
C331 H315 0.959 . S
C331 H316 0.959 . S
C331 H317 0.961 . S
C331 C330 1.502 . S
C332 H318 0.960 . S
C332 H319 0.961 . S
C332 H320 0.959 . S
C332 C330 1.561 . S
C333 C330 1.526 . S
C333 C334 1.396 . S
C333 C338 1.390 . S
C334 C328 1.465 . S
C334 C333 1.396 . S
C334 C335 1.399 . S
C335 H321 0.929 . S
C335 C334 1.399 . S
C335 C336 1.385 . S
C336 H322 0.931 . S
C336 C335 1.385 . S
C336 C337 1.389 . S
C337 C336 1.389 . S
C337 C338 1.387 . S
C338 H323 0.930 . S
C338 C333 1.390 . S
C338 C337 1.387 . S
H339 C351 0.930 . S
H340 C353 0.930 . S
H341 C354 0.930 . S
H342 C358 0.959 . S
H343 C358 0.959 . S
H344 C358 0.961 . S
H345 C359 0.960 . S
H346 C359 0.961 . S
H347 C359 0.959 . S
H348 C362 0.929 . S
H349 C363 0.931 . S
H350 C365 0.930 . S
C351 H339 0.930 . S
C351 C352 1.399 . S
C351 C356 1.399 . S
C352 C351 1.399 . S
C352 C353 1.376 . S
C353 H340 0.930 . S
C353 C352 1.376 . S
C353 C354 1.388 . S
C354 H341 0.930 . S
C354 C353 1.388 . S
C354 C355 1.390 . S
C355 C354 1.390 . S
C355 C356 1.394 . S
C355 C361 1.465 . S
C356 C351 1.399 . S
C356 C355 1.394 . S
C356 C357 1.516 . S
C357 C356 1.516 . S
C357 C358 1.502 . S
C357 C359 1.561 . S
C357 C360 1.526 . S
C358 H342 0.959 . S
C358 H343 0.959 . S
C358 H344 0.961 . S
C358 C357 1.502 . S
C359 H345 0.960 . S
C359 H346 0.961 . S
C359 H347 0.959 . S
C359 C357 1.561 . S
C360 C357 1.526 . S
C360 C361 1.396 . S
C360 C365 1.390 . S
C361 C355 1.465 . S
C361 C360 1.396 . S
C361 C362 1.399 . S
C362 H348 0.929 . S
C362 C361 1.399 . S
C362 C363 1.385 . S
C363 H349 0.931 . S
C363 C362 1.385 . S
C363 C364 1.389 . S
C364 C363 1.389 . S
C364 C365 1.387 . S
C365 H350 0.930 . S
C365 C360 1.390 . S
C365 C364 1.387 . S
H366 C378 0.930 . S
H367 C380 0.930 . S
H368 C381 0.930 . S
H369 C385 0.959 . S
H370 C385 0.959 . S
H371 C385 0.961 . S
H372 C386 0.960 . S
H373 C386 0.961 . S
H374 C386 0.959 . S
H375 C389 0.929 . S
H376 C390 0.931 . S
H377 C392 0.930 . S
C378 H366 0.930 . S
C378 C379 1.399 . S
C378 C383 1.399 . S
C379 C378 1.399 . S
C379 C380 1.376 . S
C380 H367 0.930 . S
C380 C379 1.376 . S
C380 C381 1.388 . S
C381 H368 0.930 . S
C381 C380 1.388 . S
C381 C382 1.390 . S
C382 C381 1.390 . S
C382 C383 1.394 . S
C382 C388 1.465 . S
C383 C378 1.399 . S
C383 C382 1.394 . S
C383 C384 1.516 . S
C384 C383 1.516 . S
C384 C385 1.502 . S
C384 C386 1.561 . S
C384 C387 1.526 . S
C385 H369 0.959 . S
C385 H370 0.959 . S
C385 H371 0.961 . S
C385 C384 1.502 . S
C386 H372 0.960 . S
C386 H373 0.961 . S
C386 H374 0.959 . S
C386 C384 1.561 . S
C387 C384 1.526 . S
C387 C388 1.396 . S
C387 C392 1.390 . S
C388 C382 1.465 . S
C388 C387 1.396 . S
C388 C389 1.399 . S
C389 H375 0.929 . S
C389 C388 1.399 . S
C389 C390 1.385 . S
C390 H376 0.931 . S
C390 C389 1.385 . S
C390 C391 1.389 . S
C391 C390 1.389 . S
C391 C392 1.387 . S
C392 H377 0.930 . S
C392 C387 1.390 . S
C392 C391 1.387 . S
H393 C405 0.930 . S
H394 C407 0.930 . S
H395 C408 0.930 . S
H396 C412 0.959 . S
H397 C412 0.959 . S
H398 C412 0.961 . S
H399 C413 0.960 . S
H400 C413 0.961 . S
H401 C413 0.959 . S
H402 C416 0.929 . S
H403 C417 0.931 . S
H404 C419 0.930 . S
C405 H393 0.930 . S
C405 C406 1.399 . S
C405 C410 1.399 . S
C406 C405 1.399 . S
C406 C407 1.376 . S
C407 H394 0.930 . S
C407 C406 1.376 . S
C407 C408 1.388 . S
C408 H395 0.930 . S
C408 C407 1.388 . S
C408 C409 1.390 . S
C409 C408 1.390 . S
C409 C410 1.394 . S
C409 C415 1.465 . S
C410 C405 1.399 . S
C410 C409 1.394 . S
C410 C411 1.516 . S
C411 C410 1.516 . S
C411 C412 1.502 . S
C411 C413 1.561 . S
C411 C414 1.526 . S
C412 H396 0.959 . S
C412 H397 0.959 . S
C412 H398 0.961 . S
C412 C411 1.502 . S
C413 H399 0.960 . S
C413 H400 0.961 . S
C413 H401 0.959 . S
C413 C411 1.561 . S
C414 C411 1.526 . S
C414 C415 1.396 . S
C414 C419 1.390 . S
C415 C409 1.465 . S
C415 C414 1.396 . S
C415 C416 1.399 . S
C416 H402 0.929 . S
C416 C415 1.399 . S
C416 C417 1.385 . S
C417 H403 0.931 . S
C417 C416 1.385 . S
C417 C418 1.389 . S
C418 C417 1.389 . S
C418 C419 1.387 . S
C419 H404 0.930 . S
C419 C414 1.390 . S
C419 C418 1.387 . S
H420 C432 0.930 . S
H421 C434 0.930 . S
H422 C435 0.930 . S
H423 C439 0.959 . S
H424 C439 0.959 . S
H425 C439 0.961 . S
H426 C440 0.960 . S
H427 C440 0.961 . S
H428 C440 0.959 . S
H429 C443 0.929 . S
H430 C444 0.931 . S
H431 C446 0.930 . S
C432 H420 0.930 . S
C432 C433 1.399 . S
C432 C437 1.399 . S
C433 C432 1.399 . S
C433 C434 1.376 . S
C434 H421 0.930 . S
C434 C433 1.376 . S
C434 C435 1.388 . S
C435 H422 0.930 . S
C435 C434 1.388 . S
C435 C436 1.390 . S
C436 C435 1.390 . S
C436 C437 1.394 . S
C436 C442 1.465 . S
C437 C432 1.399 . S
C437 C436 1.394 . S
C437 C438 1.516 . S
C438 C437 1.516 . S
C438 C439 1.502 . S
C438 C440 1.561 . S
C438 C441 1.526 . S
C439 H423 0.959 . S
C439 H424 0.959 . S
C439 H425 0.961 . S
C439 C438 1.502 . S
C440 H426 0.960 . S
C440 H427 0.961 . S
C440 H428 0.959 . S
C440 C438 1.561 . S
C441 C438 1.526 . S
C441 C442 1.396 . S
C441 C446 1.390 . S
C442 C436 1.465 . S
C442 C441 1.396 . S
C442 C443 1.399 . S
C443 H429 0.929 . S
C443 C442 1.399 . S
C443 C444 1.385 . S
C444 H430 0.931 . S
C444 C443 1.385 . S
C444 C445 1.389 . S
C445 C444 1.389 . S
C445 C446 1.387 . S
C446 H431 0.930 . S
C446 C441 1.390 . S
C446 C445 1.387 . S
H447 C459 0.930 . S
H448 C461 0.930 . S
H449 C462 0.930 . S
H450 C466 0.959 . S
H451 C466 0.959 . S
H452 C466 0.961 . S
H453 C467 0.960 . S
H454 C467 0.961 . S
H455 C467 0.959 . S
H456 C470 0.929 . S
H457 C471 0.931 . S
H458 C473 0.930 . S
C459 H447 0.930 . S
C459 C460 1.399 . S
C459 C464 1.399 . S
C460 C459 1.399 . S
C460 C461 1.376 . S
C461 H448 0.930 . S
C461 C460 1.376 . S
C461 C462 1.388 . S
C462 H449 0.930 . S
C462 C461 1.388 . S
C462 C463 1.390 . S
C463 C462 1.390 . S
C463 C464 1.394 . S
C463 C469 1.465 . S
C464 C459 1.399 . S
C464 C463 1.394 . S
C464 C465 1.516 . S
C465 C464 1.516 . S
C465 C466 1.502 . S
C465 C467 1.561 . S
C465 C468 1.526 . S
C466 H450 0.959 . S
C466 H451 0.959 . S
C466 H452 0.961 . S
C466 C465 1.502 . S
C467 H453 0.960 . S
C467 H454 0.961 . S
C467 H455 0.959 . S
C467 C465 1.561 . S
C468 C465 1.526 . S
C468 C469 1.396 . S
C468 C473 1.390 . S
C469 C463 1.465 . S
C469 C468 1.396 . S
C469 C470 1.399 . S
C470 H456 0.929 . S
C470 C469 1.399 . S
C470 C471 1.385 . S
C471 H457 0.931 . S
C471 C470 1.385 . S
C471 C472 1.389 . S
C472 C471 1.389 . S
C472 C473 1.387 . S
C473 H458 0.930 . S
C473 C468 1.390 . S
C473 C472 1.387 . S
H474 C486 0.930 . S
H475 C488 0.930 . S
H476 C489 0.930 . S
H477 C493 0.959 . S
H478 C493 0.959 . S
H479 C493 0.961 . S
H480 C494 0.960 . S
H481 C494 0.961 . S
H482 C494 0.959 . S
H483 C497 0.929 . S
H484 C498 0.931 . S
H485 C500 0.930 . S
C486 H474 0.930 . S
C486 C487 1.399 . S
C486 C491 1.399 . S
C487 C486 1.399 . S
C487 C488 1.376 . S
C488 H475 0.930 . S
C488 C487 1.376 . S
C488 C489 1.388 . S
C489 H476 0.930 . S
C489 C488 1.388 . S
C489 C490 1.390 . S
C490 C489 1.390 . S
C490 C491 1.394 . S
C490 C496 1.465 . S
C491 C486 1.399 . S
C491 C490 1.394 . S
C491 C492 1.516 . S
C492 C491 1.516 . S
C492 C493 1.502 . S
C492 C494 1.561 . S
C492 C495 1.526 . S
C493 H477 0.959 . S
C493 H478 0.959 . S
C493 H479 0.961 . S
C493 C492 1.502 . S
C494 H480 0.960 . S
C494 H481 0.961 . S
C494 H482 0.959 . S
C494 C492 1.561 . S
C495 C492 1.526 . S
C495 C496 1.396 . S
C495 C500 1.390 . S
C496 C490 1.465 . S
C496 C495 1.396 . S
C496 C497 1.399 . S
C497 H483 0.929 . S
C497 C496 1.399 . S
C497 C498 1.385 . S
C498 H484 0.931 . S
C498 C497 1.385 . S
C498 C499 1.389 . S
C499 C498 1.389 . S
C499 C500 1.387 . S
C500 H485 0.930 . S
C500 C495 1.390 . S
C500 C499 1.387 . S
H501 C513 0.930 . S
H502 C515 0.930 . S
H503 C516 0.930 . S
H504 C520 0.959 . S
H505 C520 0.959 . S
H506 C520 0.961 . S
H507 C521 0.960 . S
H508 C521 0.961 . S
H509 C521 0.959 . S
H510 C524 0.929 . S
H511 C525 0.931 . S
H512 C527 0.930 . S
C513 H501 0.930 . S
C513 C514 1.399 . S
C513 C518 1.399 . S
C514 C513 1.399 . S
C514 C515 1.376 . S
C515 H502 0.930 . S
C515 C514 1.376 . S
C515 C516 1.388 . S
C516 H503 0.930 . S
C516 C515 1.388 . S
C516 C517 1.390 . S
C517 C516 1.390 . S
C517 C518 1.394 . S
C517 C523 1.465 . S
C518 C513 1.399 . S
C518 C517 1.394 . S
C518 C519 1.516 . S
C519 C518 1.516 . S
C519 C520 1.502 . S
C519 C521 1.561 . S
C519 C522 1.526 . S
C520 H504 0.959 . S
C520 H505 0.959 . S
C520 H506 0.961 . S
C520 C519 1.502 . S
C521 H507 0.960 . S
C521 H508 0.961 . S
C521 H509 0.959 . S
C521 C519 1.561 . S
C522 C519 1.526 . S
C522 C523 1.396 . S
C522 C527 1.390 . S
C523 C517 1.465 . S
C523 C522 1.396 . S
C523 C524 1.399 . S
C524 H510 0.929 . S
C524 C523 1.399 . S
C524 C525 1.385 . S
C525 H511 0.931 . S
C525 C524 1.385 . S
C525 C526 1.389 . S
C526 C525 1.389 . S
C526 C527 1.387 . S
C527 H512 0.930 . S
C527 C522 1.390 . S
C527 C526 1.387 . S
H528 C540 0.930 . S
H529 C542 0.930 . S
H530 C543 0.930 . S
H531 C547 0.959 . S
H532 C547 0.959 . S
H533 C547 0.961 . S
H534 C548 0.960 . S
H535 C548 0.961 . S
H536 C548 0.959 . S
H537 C551 0.929 . S
H538 C552 0.931 . S
H539 C554 0.930 . S
C540 H528 0.930 . S
C540 C541 1.399 . S
C540 C545 1.399 . S
C541 C540 1.399 . S
C541 C542 1.376 . S
C542 H529 0.930 . S
C542 C541 1.376 . S
C542 C543 1.388 . S
C543 H530 0.930 . S
C543 C542 1.388 . S
C543 C544 1.390 . S
C544 C543 1.390 . S
C544 C545 1.394 . S
C544 C550 1.465 . S
C545 C540 1.399 . S
C545 C544 1.394 . S
C545 C546 1.516 . S
C546 C545 1.516 . S
C546 C547 1.502 . S
C546 C548 1.561 . S
C546 C549 1.526 . S
C547 H531 0.959 . S
C547 H532 0.959 . S
C547 H533 0.961 . S
C547 C546 1.502 . S
C548 H534 0.960 . S
C548 H535 0.961 . S
C548 H536 0.959 . S
C548 C546 1.561 . S
C549 C546 1.526 . S
C549 C550 1.396 . S
C549 C554 1.390 . S
C550 C544 1.465 . S
C550 C549 1.396 . S
C550 C551 1.399 . S
C551 H537 0.929 . S
C551 C550 1.399 . S
C551 C552 1.385 . S
C552 H538 0.931 . S
C552 C551 1.385 . S
C552 C553 1.389 . S
C553 C552 1.389 . S
C553 C554 1.387 . S
C554 H539 0.930 . S
C554 C549 1.390 . S
C554 C553 1.387 . S
H555 C567 0.930 . S
H556 C569 0.930 . S
H557 C570 0.930 . S
H558 C574 0.959 . S
H559 C574 0.959 . S
H560 C574 0.961 . S
H561 C575 0.960 . S
H562 C575 0.961 . S
H563 C575 0.959 . S
H564 C578 0.929 . S
H565 C579 0.931 . S
H566 C581 0.930 . S
C567 H555 0.930 . S
C567 C568 1.399 . S
C567 C572 1.399 . S
C568 C567 1.399 . S
C568 C569 1.376 . S
C569 H556 0.930 . S
C569 C568 1.376 . S
C569 C570 1.388 . S
C570 H557 0.930 . S
C570 C569 1.388 . S
C570 C571 1.390 . S
C571 C570 1.390 . S
C571 C572 1.394 . S
C571 C577 1.465 . S
C572 C567 1.399 . S
C572 C571 1.394 . S
C572 C573 1.516 . S
C573 C572 1.516 . S
C573 C574 1.502 . S
C573 C575 1.561 . S
C573 C576 1.526 . S
C574 H558 0.959 . S
C574 H559 0.959 . S
C574 H560 0.961 . S
C574 C573 1.502 . S
C575 H561 0.960 . S
C575 H562 0.961 . S
C575 H563 0.959 . S
C575 C573 1.561 . S
C576 C573 1.526 . S
C576 C577 1.396 . S
C576 C581 1.390 . S
C577 C571 1.465 . S
C577 C576 1.396 . S
C577 C578 1.399 . S
C578 H564 0.929 . S
C578 C577 1.399 . S
C578 C579 1.385 . S
C579 H565 0.931 . S
C579 C578 1.385 . S
C579 C580 1.389 . S
C580 C579 1.389 . S
C580 C581 1.387 . S
C581 H566 0.930 . S
C581 C576 1.390 . S
C581 C580 1.387 . S
H582 C594 0.930 . S
H583 C596 0.930 . S
H584 C597 0.930 . S
H585 C601 0.959 . S
H586 C601 0.959 . S
H587 C601 0.961 . S
H588 C602 0.960 . S
H589 C602 0.961 . S
H590 C602 0.959 . S
H591 C605 0.929 . S
H592 C606 0.931 . S
H593 C608 0.930 . S
C594 H582 0.930 . S
C594 C595 1.399 . S
C594 C599 1.399 . S
C595 C594 1.399 . S
C595 C596 1.376 . S
C596 H583 0.930 . S
C596 C595 1.376 . S
C596 C597 1.388 . S
C597 H584 0.930 . S
C597 C596 1.388 . S
C597 C598 1.390 . S
C598 C597 1.390 . S
C598 C599 1.394 . S
C598 C604 1.465 . S
C599 C594 1.399 . S
C599 C598 1.394 . S
C599 C600 1.516 . S
C600 C599 1.516 . S
C600 C601 1.502 . S
C600 C602 1.561 . S
C600 C603 1.526 . S
C601 H585 0.959 . S
C601 H586 0.959 . S
C601 H587 0.961 . S
C601 C600 1.502 . S
C602 H588 0.960 . S
C602 H589 0.961 . S
C602 H590 0.959 . S
C602 C600 1.561 . S
C603 C600 1.526 . S
C603 C604 1.396 . S
C603 C608 1.390 . S
C604 C598 1.465 . S
C604 C603 1.396 . S
C604 C605 1.399 . S
C605 H591 0.929 . S
C605 C604 1.399 . S
C605 C606 1.385 . S
C606 H592 0.931 . S
C606 C605 1.385 . S
C606 C607 1.389 . S
C607 C606 1.389 . S
C607 C608 1.387 . S
C608 H593 0.930 . S
C608 C603 1.390 . S
C608 C607 1.387 . S
H609 C621 0.930 . S
H610 C623 0.930 . S
H611 C624 0.930 . S
H612 C628 0.959 . S
H613 C628 0.959 . S
H614 C628 0.961 . S
H615 C629 0.960 . S
H616 C629 0.961 . S
H617 C629 0.959 . S
H618 C632 0.929 . S
H619 C633 0.931 . S
H620 C635 0.930 . S
C621 H609 0.930 . S
C621 C622 1.399 . S
C621 C626 1.399 . S
C622 C621 1.399 . S
C622 C623 1.376 . S
C623 H610 0.930 . S
C623 C622 1.376 . S
C623 C624 1.388 . S
C624 H611 0.930 . S
C624 C623 1.388 . S
C624 C625 1.390 . S
C625 C624 1.390 . S
C625 C626 1.394 . S
C625 C631 1.465 . S
C626 C621 1.399 . S
C626 C625 1.394 . S
C626 C627 1.516 . S
C627 C626 1.516 . S
C627 C628 1.502 . S
C627 C629 1.561 . S
C627 C630 1.526 . S
C628 H612 0.959 . S
C628 H613 0.959 . S
C628 H614 0.961 . S
C628 C627 1.502 . S
C629 H615 0.960 . S
C629 H616 0.961 . S
C629 H617 0.959 . S
C629 C627 1.561 . S
C630 C627 1.526 . S
C630 C631 1.396 . S
C630 C635 1.390 . S
C631 C625 1.465 . S
C631 C630 1.396 . S
C631 C632 1.399 . S
C632 H618 0.929 . S
C632 C631 1.399 . S
C632 C633 1.385 . S
C633 H619 0.931 . S
C633 C632 1.385 . S
C633 C634 1.389 . S
C634 C633 1.389 . S
C634 C635 1.387 . S
C635 H620 0.930 . S
C635 C630 1.390 . S
C635 C634 1.387 . S
H636 C648 0.930 . S
H637 C650 0.930 . S
H638 C651 0.930 . S
H639 C655 0.959 . S
H640 C655 0.959 . S
H641 C655 0.961 . S
H642 C656 0.960 . S
H643 C656 0.961 . S
H644 C656 0.959 . S
H645 C659 0.929 . S
H646 C660 0.931 . S
H647 C662 0.930 . S
C648 H636 0.930 . S
C648 C649 1.399 . S
C648 C653 1.399 . S
C649 C648 1.399 . S
C649 C650 1.376 . S
C650 H637 0.930 . S
C650 C649 1.376 . S
C650 C651 1.388 . S
C651 H638 0.930 . S
C651 C650 1.388 . S
C651 C652 1.390 . S
C652 C651 1.390 . S
C652 C653 1.394 . S
C652 C658 1.465 . S
C653 C648 1.399 . S
C653 C652 1.394 . S
C653 C654 1.516 . S
C654 C653 1.516 . S
C654 C655 1.502 . S
C654 C656 1.561 . S
C654 C657 1.526 . S
C655 H639 0.959 . S
C655 H640 0.959 . S
C655 H641 0.961 . S
C655 C654 1.502 . S
C656 H642 0.960 . S
C656 H643 0.961 . S
C656 H644 0.959 . S
C656 C654 1.561 . S
C657 C654 1.526 . S
C657 C658 1.396 . S
C657 C662 1.390 . S
C658 C652 1.465 . S
C658 C657 1.396 . S
C658 C659 1.399 . S
C659 H645 0.929 . S
C659 C658 1.399 . S
C659 C660 1.385 . S
C660 H646 0.931 . S
C660 C659 1.385 . S
C660 C661 1.389 . S
C661 C660 1.389 . S
C661 C662 1.387 . S
C662 H647 0.930 . S
C662 C657 1.390 . S
C662 C661 1.387 . S
H663 C675 0.930 . S
H664 C677 0.930 . S
H665 C678 0.930 . S
H666 C682 0.959 . S
H667 C682 0.959 . S
H668 C682 0.961 . S
H669 C683 0.960 . S
H670 C683 0.961 . S
H671 C683 0.959 . S
H672 C686 0.929 . S
H673 C687 0.931 . S
H674 C689 0.930 . S
C675 H663 0.930 . S
C675 C676 1.399 . S
C675 C680 1.399 . S
C676 C675 1.399 . S
C676 C677 1.376 . S
C677 H664 0.930 . S
C677 C676 1.376 . S
C677 C678 1.388 . S
C678 H665 0.930 . S
C678 C677 1.388 . S
C678 C679 1.390 . S
C679 C678 1.390 . S
C679 C680 1.394 . S
C679 C685 1.465 . S
C680 C675 1.399 . S
C680 C679 1.394 . S
C680 C681 1.516 . S
C681 C680 1.516 . S
C681 C682 1.502 . S
C681 C683 1.561 . S
C681 C684 1.526 . S
C682 H666 0.959 . S
C682 H667 0.959 . S
C682 H668 0.961 . S
C682 C681 1.502 . S
C683 H669 0.960 . S
C683 H670 0.961 . S
C683 H671 0.959 . S
C683 C681 1.561 . S
C684 C681 1.526 . S
C684 C685 1.396 . S
C684 C689 1.390 . S
C685 C679 1.465 . S
C685 C684 1.396 . S
C685 C686 1.399 . S
C686 H672 0.929 . S
C686 C685 1.399 . S
C686 C687 1.385 . S
C687 H673 0.931 . S
C687 C686 1.385 . S
C687 C688 1.389 . S
C688 C687 1.389 . S
C688 C689 1.387 . S
C689 H674 0.930 . S
C689 C684 1.390 . S
C689 C688 1.387 . S
H690 C702 0.930 . S
H691 C704 0.930 . S
H692 C705 0.930 . S
H693 C709 0.959 . S
H694 C709 0.959 . S
H695 C709 0.961 . S
H696 C710 0.960 . S
H697 C710 0.961 . S
H698 C710 0.959 . S
H699 C713 0.929 . S
H700 C714 0.931 . S
H701 C716 0.930 . S
C702 H690 0.930 . S
C702 C703 1.399 . S
C702 C707 1.399 . S
C703 C702 1.399 . S
C703 C704 1.376 . S
C704 H691 0.930 . S
C704 C703 1.376 . S
C704 C705 1.388 . S
C705 H692 0.930 . S
C705 C704 1.388 . S
C705 C706 1.390 . S
C706 C705 1.390 . S
C706 C707 1.394 . S
C706 C712 1.465 . S
C707 C702 1.399 . S
C707 C706 1.394 . S
C707 C708 1.516 . S
C708 C707 1.516 . S
C708 C709 1.502 . S
C708 C710 1.561 . S
C708 C711 1.526 . S
C709 H693 0.959 . S
C709 H694 0.959 . S
C709 H695 0.961 . S
C709 C708 1.502 . S
C710 H696 0.960 . S
C710 H697 0.961 . S
C710 H698 0.959 . S
C710 C708 1.561 . S
C711 C708 1.526 . S
C711 C712 1.396 . S
C711 C716 1.390 . S
C712 C706 1.465 . S
C712 C711 1.396 . S
C712 C713 1.399 . S
C713 H699 0.929 . S
C713 C712 1.399 . S
C713 C714 1.385 . S
C714 H700 0.931 . S
C714 C713 1.385 . S
C714 C715 1.389 . S
C715 C714 1.389 . S
C715 C716 1.387 . S
C716 H701 0.930 . S
C716 C711 1.390 . S
C716 C715 1.387 . S
H717 C729 0.930 . S
H718 C731 0.930 . S
H719 C732 0.930 . S
H720 C736 0.959 . S
H721 C736 0.959 . S
H722 C736 0.961 . S
H723 C737 0.960 . S
H724 C737 0.961 . S
H725 C737 0.959 . S
H726 C740 0.929 . S
H727 C741 0.931 . S
H728 C743 0.930 . S
C729 H717 0.930 . S
C729 C730 1.399 . S
C729 C734 1.399 . S
C730 C729 1.399 . S
C730 C731 1.376 . S
C731 H718 0.930 . S
C731 C730 1.376 . S
C731 C732 1.388 . S
C732 H719 0.930 . S
C732 C731 1.388 . S
C732 C733 1.390 . S
C733 C732 1.390 . S
C733 C734 1.394 . S
C733 C739 1.465 . S
C734 C729 1.399 . S
C734 C733 1.394 . S
C734 C735 1.516 . S
C735 C734 1.516 . S
C735 C736 1.502 . S
C735 C737 1.561 . S
C735 C738 1.526 . S
C736 H720 0.959 . S
C736 H721 0.959 . S
C736 H722 0.961 . S
C736 C735 1.502 . S
C737 H723 0.960 . S
C737 H724 0.961 . S
C737 H725 0.959 . S
C737 C735 1.561 . S
C738 C735 1.526 . S
C738 C739 1.396 . S
C738 C743 1.390 . S
C739 C733 1.465 . S
C739 C738 1.396 . S
C739 C740 1.399 . S
C740 H726 0.929 . S
C740 C739 1.399 . S
C740 C741 1.385 . S
C741 H727 0.931 . S
C741 C740 1.385 . S
C741 C742 1.389 . S
C742 C741 1.389 . S
C742 C743 1.387 . S
C743 H728 0.930 . S
C743 C738 1.390 . S
C743 C742 1.387 . S
H744 C756 0.930 . S
H745 C758 0.930 . S
H746 C759 0.930 . S
H747 C763 0.959 . S
H748 C763 0.959 . S
H749 C763 0.961 . S
H750 C764 0.960 . S
H751 C764 0.961 . S
H752 C764 0.959 . S
H753 C767 0.929 . S
H754 C768 0.931 . S
H755 C770 0.930 . S
C756 H744 0.930 . S
C756 C757 1.399 . S
C756 C761 1.399 . S
C757 C756 1.399 . S
C757 C758 1.376 . S
C758 H745 0.930 . S
C758 C757 1.376 . S
C758 C759 1.388 . S
C759 H746 0.930 . S
C759 C758 1.388 . S
C759 C760 1.390 . S
C760 C759 1.390 . S
C760 C761 1.394 . S
C760 C766 1.465 . S
C761 C756 1.399 . S
C761 C760 1.394 . S
C761 C762 1.516 . S
C762 C761 1.516 . S
C762 C763 1.502 . S
C762 C764 1.561 . S
C762 C765 1.526 . S
C763 H747 0.959 . S
C763 H748 0.959 . S
C763 H749 0.961 . S
C763 C762 1.502 . S
C764 H750 0.960 . S
C764 H751 0.961 . S
C764 H752 0.959 . S
C764 C762 1.561 . S
C765 C762 1.526 . S
C765 C766 1.396 . S
C765 C770 1.390 . S
C766 C760 1.465 . S
C766 C765 1.396 . S
C766 C767 1.399 . S
C767 H753 0.929 . S
C767 C766 1.399 . S
C767 C768 1.385 . S
C768 H754 0.931 . S
C768 C767 1.385 . S
C768 C769 1.389 . S
C769 C768 1.389 . S
C769 C770 1.387 . S
C770 H755 0.930 . S
C770 C765 1.390 . S
C770 C769 1.387 . S
H771 C783 0.930 . S
H772 C785 0.930 . S
H773 C786 0.930 . S
H774 C790 0.959 . S
H775 C790 0.959 . S
H776 C790 0.961 . S
H777 C791 0.960 . S
H778 C791 0.961 . S
H779 C791 0.959 . S
H780 C794 0.929 . S
H781 C795 0.931 . S
H782 C797 0.930 . S
C783 H771 0.930 . S
C783 C784 1.399 . S
C783 C788 1.399 . S
C784 C783 1.399 . S
C784 C785 1.376 . S
C785 H772 0.930 . S
C785 C784 1.376 . S
C785 C786 1.388 . S
C786 H773 0.930 . S
C786 C785 1.388 . S
C786 C787 1.390 . S
C787 C786 1.390 . S
C787 C788 1.394 . S
C787 C793 1.465 . S
C788 C783 1.399 . S
C788 C787 1.394 . S
C788 C789 1.516 . S
C789 C788 1.516 . S
C789 C790 1.502 . S
C789 C791 1.561 . S
C789 C792 1.526 . S
C790 H774 0.959 . S
C790 H775 0.959 . S
C790 H776 0.961 . S
C790 C789 1.502 . S
C791 H777 0.960 . S
C791 H778 0.961 . S
C791 H779 0.959 . S
C791 C789 1.561 . S
C792 C789 1.526 . S
C792 C793 1.396 . S
C792 C797 1.390 . S
C793 C787 1.465 . S
C793 C792 1.396 . S
C793 C794 1.399 . S
C794 H780 0.929 . S
C794 C793 1.399 . S
C794 C795 1.385 . S
C795 H781 0.931 . S
C795 C794 1.385 . S
C795 C796 1.389 . S
C796 C795 1.389 . S
C796 C797 1.387 . S
C797 H782 0.930 . S
C797 C792 1.390 . S
C797 C796 1.387 . S
H798 C810 0.930 . S
H799 C812 0.930 . S
H800 C813 0.930 . S
H801 C817 0.959 . S
H802 C817 0.959 . S
H803 C817 0.961 . S
H804 C818 0.960 . S
H805 C818 0.961 . S
H806 C818 0.959 . S
H807 C821 0.929 . S
H808 C822 0.931 . S
H809 C824 0.930 . S
C810 H798 0.930 . S
C810 C811 1.399 . S
C810 C815 1.399 . S
C811 C810 1.399 . S
C811 C812 1.376 . S
C812 H799 0.930 . S
C812 C811 1.376 . S
C812 C813 1.388 . S
C813 H800 0.930 . S
C813 C812 1.388 . S
C813 C814 1.390 . S
C814 C813 1.390 . S
C814 C815 1.394 . S
C814 C820 1.465 . S
C815 C810 1.399 . S
C815 C814 1.394 . S
C815 C816 1.516 . S
C816 C815 1.516 . S
C816 C817 1.502 . S
C816 C818 1.561 . S
C816 C819 1.526 . S
C817 H801 0.959 . S
C817 H802 0.959 . S
C817 H803 0.961 . S
C817 C816 1.502 . S
C818 H804 0.960 . S
C818 H805 0.961 . S
C818 H806 0.959 . S
C818 C816 1.561 . S
C819 C816 1.526 . S
C819 C820 1.396 . S
C819 C824 1.390 . S
C820 C814 1.465 . S
C820 C819 1.396 . S
C820 C821 1.399 . S
C821 H807 0.929 . S
C821 C820 1.399 . S
C821 C822 1.385 . S
C822 H808 0.931 . S
C822 C821 1.385 . S
C822 C823 1.389 . S
C823 C822 1.389 . S
C823 C824 1.387 . S
C824 H809 0.930 . S
C824 C819 1.390 . S
C824 C823 1.387 . S
H825 C837 0.930 . S
H826 C839 0.930 . S
H827 C840 0.930 . S
H828 C844 0.959 . S
H829 C844 0.959 . S
H830 C844 0.961 . S
H831 C845 0.960 . S
H832 C845 0.961 . S
H833 C845 0.959 . S
H834 C848 0.929 . S
H835 C849 0.931 . S
H836 C851 0.930 . S
C837 H825 0.930 . S
C837 C838 1.399 . S
C837 C842 1.399 . S
C838 C837 1.399 . S
C838 C839 1.376 . S
C839 H826 0.930 . S
C839 C838 1.376 . S
C839 C840 1.388 . S
C840 H827 0.930 . S
C840 C839 1.388 . S
C840 C841 1.390 . S
C841 C840 1.390 . S
C841 C842 1.394 . S
C841 C847 1.465 . S
C842 C837 1.399 . S
C842 C841 1.394 . S
C842 C843 1.516 . S
C843 C842 1.516 . S
C843 C844 1.502 . S
C843 C845 1.561 . S
C843 C846 1.526 . S
C844 H828 0.959 . S
C844 H829 0.959 . S
C844 H830 0.961 . S
C844 C843 1.502 . S
C845 H831 0.960 . S
C845 H832 0.961 . S
C845 H833 0.959 . S
C845 C843 1.561 . S
C846 C843 1.526 . S
C846 C847 1.396 . S
C846 C851 1.390 . S
C847 C841 1.465 . S
C847 C846 1.396 . S
C847 C848 1.399 . S
C848 H834 0.929 . S
C848 C847 1.399 . S
C848 C849 1.385 . S
C849 H835 0.931 . S
C849 C848 1.385 . S
C849 C850 1.389 . S
C850 C849 1.389 . S
C850 C851 1.387 . S
C851 H836 0.930 . S
C851 C846 1.390 . S
C851 C850 1.387 . S
H852 C864 0.930 . S
H853 C866 0.930 . S
H854 C867 0.930 . S
H855 C871 0.959 . S
H856 C871 0.959 . S
H857 C871 0.961 . S
H858 C872 0.960 . S
H859 C872 0.961 . S
H860 C872 0.959 . S
H861 C875 0.929 . S
H862 C876 0.931 . S
H863 C878 0.930 . S
C864 H852 0.930 . S
C864 C865 1.399 . S
C864 C869 1.399 . S
C865 C864 1.399 . S
C865 C866 1.376 . S
C866 H853 0.930 . S
C866 C865 1.376 . S
C866 C867 1.388 . S
C867 H854 0.930 . S
C867 C866 1.388 . S
C867 C868 1.390 . S
C868 C867 1.390 . S
C868 C869 1.394 . S
C868 C874 1.465 . S
C869 C864 1.399 . S
C869 C868 1.394 . S
C869 C870 1.516 . S
C870 C869 1.516 . S
C870 C871 1.502 . S
C870 C872 1.561 . S
C870 C873 1.526 . S
C871 H855 0.959 . S
C871 H856 0.959 . S
C871 H857 0.961 . S
C871 C870 1.502 . S
C872 H858 0.960 . S
C872 H859 0.961 . S
C872 H860 0.959 . S
C872 C870 1.561 . S
C873 C870 1.526 . S
C873 C874 1.396 . S
C873 C878 1.390 . S
C874 C868 1.465 . S
C874 C873 1.396 . S
C874 C875 1.399 . S
C875 H861 0.929 . S
C875 C874 1.399 . S
C875 C876 1.385 . S
C876 H862 0.931 . S
C876 C875 1.385 . S
C876 C877 1.389 . S
C877 C876 1.389 . S
C877 C878 1.387 . S
C878 H863 0.930 . S
C878 C873 1.390 . S
C878 C877 1.387 . S
H879 C891 0.930 . S
H880 C893 0.930 . S
H881 C894 0.930 . S
H882 C898 0.959 . S
H883 C898 0.959 . S
H884 C898 0.961 . S
H885 C899 0.960 . S
H886 C899 0.961 . S
H887 C899 0.959 . S
H888 C902 0.929 . S
H889 C903 0.931 . S
H890 C905 0.930 . S
C891 H879 0.930 . S
C891 C892 1.399 . S
C891 C896 1.399 . S
C892 C891 1.399 . S
C892 C893 1.376 . S
C893 H880 0.930 . S
C893 C892 1.376 . S
C893 C894 1.388 . S
C894 H881 0.930 . S
C894 C893 1.388 . S
C894 C895 1.390 . S
C895 C894 1.390 . S
C895 C896 1.394 . S
C895 C901 1.465 . S
C896 C891 1.399 . S
C896 C895 1.394 . S
C896 C897 1.516 . S
C897 C896 1.516 . S
C897 C898 1.502 . S
C897 C899 1.561 . S
C897 C900 1.526 . S
C898 H882 0.959 . S
C898 H883 0.959 . S
C898 H884 0.961 . S
C898 C897 1.502 . S
C899 H885 0.960 . S
C899 H886 0.961 . S
C899 H887 0.959 . S
C899 C897 1.561 . S
C900 C897 1.526 . S
C900 C901 1.396 . S
C900 C905 1.390 . S
C901 C895 1.465 . S
C901 C900 1.396 . S
C901 C902 1.399 . S
C902 H888 0.929 . S
C902 C901 1.399 . S
C902 C903 1.385 . S
C903 H889 0.931 . S
C903 C902 1.385 . S
C903 C904 1.389 . S
C904 C903 1.389 . S
C904 C905 1.387 . S
C905 H890 0.930 . S
C905 C900 1.390 . S
C905 C904 1.387 . S
H906 C918 0.930 . S
H907 C920 0.930 . S
H908 C921 0.930 . S
H909 C925 0.959 . S
H910 C925 0.959 . S
H911 C925 0.961 . S
H912 C926 0.960 . S
H913 C926 0.961 . S
H914 C926 0.959 . S
H915 C929 0.929 . S
H916 C930 0.931 . S
H917 C932 0.930 . S
C918 H906 0.930 . S
C918 C919 1.399 . S
C918 C923 1.399 . S
C919 C918 1.399 . S
C919 C920 1.376 . S
C920 H907 0.930 . S
C920 C919 1.376 . S
C920 C921 1.388 . S
C921 H908 0.930 . S
C921 C920 1.388 . S
C921 C922 1.390 . S
C922 C921 1.390 . S
C922 C923 1.394 . S
C922 C928 1.465 . S
C923 C918 1.399 . S
C923 C922 1.394 . S
C923 C924 1.516 . S
C924 C923 1.516 . S
C924 C925 1.502 . S
C924 C926 1.561 . S
C924 C927 1.526 . S
C925 H909 0.959 . S
C925 H910 0.959 . S
C925 H911 0.961 . S
C925 C924 1.502 . S
C926 H912 0.960 . S
C926 H913 0.961 . S
C926 H914 0.959 . S
C926 C924 1.561 . S
C927 C924 1.526 . S
C927 C928 1.396 . S
C927 C932 1.390 . S
C928 C922 1.465 . S
C928 C927 1.396 . S
C928 C929 1.399 . S
C929 H915 0.929 . S
C929 C928 1.399 . S
C929 C930 1.385 . S
C930 H916 0.931 . S
C930 C929 1.385 . S
C930 C931 1.389 . S
C931 C930 1.389 . S
C931 C932 1.387 . S
C932 H917 0.930 . S
C932 C927 1.390 . S
C932 C931 1.387 . S
H933 C945 0.930 . S
H934 C947 0.930 . S
H935 C948 0.930 . S
H936 C952 0.959 . S
H937 C952 0.959 . S
H938 C952 0.961 . S
H939 C953 0.960 . S
H940 C953 0.961 . S
H941 C953 0.959 . S
H942 C956 0.929 . S
H943 C957 0.931 . S
H944 C959 0.930 . S
C945 H933 0.930 . S
C945 C946 1.399 . S
C945 C950 1.399 . S
C946 C945 1.399 . S
C946 C947 1.376 . S
C947 H934 0.930 . S
C947 C946 1.376 . S
C947 C948 1.388 . S
C948 H935 0.930 . S
C948 C947 1.388 . S
C948 C949 1.390 . S
C949 C948 1.390 . S
C949 C950 1.394 . S
C949 C955 1.465 . S
C950 C945 1.399 . S
C950 C949 1.394 . S
C950 C951 1.516 . S
C951 C950 1.516 . S
C951 C952 1.502 . S
C951 C953 1.561 . S
C951 C954 1.526 . S
C952 H936 0.959 . S
C952 H937 0.959 . S
C952 H938 0.961 . S
C952 C951 1.502 . S
C953 H939 0.960 . S
C953 H940 0.961 . S
C953 H941 0.959 . S
C953 C951 1.561 . S
C954 C951 1.526 . S
C954 C955 1.396 . S
C954 C959 1.390 . S
C955 C949 1.465 . S
C955 C954 1.396 . S
C955 C956 1.399 . S
C956 H942 0.929 . S
C956 C955 1.399 . S
C956 C957 1.385 . S
C957 H943 0.931 . S
C957 C956 1.385 . S
C957 C958 1.389 . S
C958 C957 1.389 . S
C958 C959 1.387 . S
C959 H944 0.930 . S
C959 C954 1.390 . S
C959 C958 1.387 . S
H960 C972 0.930 . S
H961 C974 0.930 . S
H962 C975 0.930 . S
H963 C979 0.959 . S
H964 C979 0.959 . S
H965 C979 0.961 . S
H966 C980 0.960 . S
H967 C980 0.961 . S
H968 C980 0.959 . S
H969 C983 0.929 . S
H970 C984 0.931 . S
H971 C986 0.930 . S
C972 H960 0.930 . S
C972 C973 1.399 . S
C972 C977 1.399 . S
C973 C972 1.399 . S
C973 C974 1.376 . S
C974 H961 0.930 . S
C974 C973 1.376 . S
C974 C975 1.388 1_556 S
C975 H962 0.930 . S
C975 C974 1.388 1_554 S
C975 C976 1.388 1_554 S
C976 C975 1.388 1_556 S
C976 C977 1.418 . S
C976 C982 1.435 1_566 S
C977 C972 1.399 . S
C977 C976 1.418 . S
C977 C978 1.516 1_565 S
C978 C977 1.516 1_545 S
C978 C979 1.502 . S
C978 C980 1.561 . S
C978 C981 1.526 1_556 S
C979 H963 0.959 . S
C979 H964 0.959 . S
C979 H965 0.961 . S
C979 C978 1.502 . S
C980 H966 0.960 . S
C980 H967 0.961 . S
C980 H968 0.959 . S
C980 C978 1.561 . S
C981 C978 1.526 1_554 S
C981 C982 1.410 . S
C981 C986 1.390 . S
C982 C976 1.435 1_544 S
C982 C981 1.410 . S
C982 C983 1.397 1_545 S
C983 H969 0.929 . S
C983 C982 1.397 1_565 S
C983 C984 1.385 1_565 S
C984 H970 0.931 . S
C984 C983 1.385 1_545 S
C984 C985 1.389 . S
C985 C984 1.389 . S
C985 C986 1.387 . S
C986 H971 0.930 . S
C986 C981 1.390 . S
C986 C985 1.387 . S
H987 C999 0.930 . S
H988 C1001 0.930 . S
H989 C1002 0.930 . S
H990 C1006 0.959 . S
H991 C1006 0.959 . S
H992 C1006 0.961 . S
H993 C1007 0.960 . S
H994 C1007 0.961 . S
H995 C1007 0.959 . S
H996 C1010 0.929 . S
H997 C1011 0.931 . S
H998 C1013 0.930 . S
C999 H987 0.930 . S
C999 C1000 1.399 . S
C999 C1004 1.399 . S
C1000 C999 1.399 . S
C1000 C1001 1.376 . S
C1001 H988 0.930 . S
C1001 C1000 1.376 . S
C1001 C1002 1.388 . S
C1002 H989 0.930 . S
C1002 C1001 1.388 . S
C1002 C1003 1.390 . S
C1003 C1002 1.390 . S
C1003 C1004 1.394 . S
C1003 C1009 1.465 . S
C1004 C999 1.399 . S
C1004 C1003 1.394 . S
C1004 C1005 1.516 . S
C1005 C1004 1.516 . S
C1005 C1006 1.502 . S
C1005 C1007 1.561 . S
C1005 C1008 1.526 . S
C1006 H990 0.959 . S
C1006 H991 0.959 . S
C1006 H992 0.961 . S
C1006 C1005 1.502 . S
C1007 H993 0.960 . S
C1007 H994 0.961 . S
C1007 H995 0.959 . S
C1007 C1005 1.561 . S
C1008 C1005 1.526 . S
C1008 C1009 1.396 . S
C1008 C1013 1.390 . S
C1009 C1003 1.465 . S
C1009 C1008 1.396 . S
C1009 C1010 1.399 . S
C1010 H996 0.929 . S
C1010 C1009 1.399 . S
C1010 C1011 1.385 . S
C1011 H997 0.931 . S
C1011 C1010 1.385 . S
C1011 C1012 1.389 . S
C1012 C1011 1.389 . S
C1012 C1013 1.387 . S
C1013 H998 0.930 . S
C1013 C1008 1.390 . S
C1013 C1012 1.387 . S
H1014 C1026 0.930 . S
H1015 C1028 0.930 . S
H1016 C1029 0.923 1_554 S
H1017 C1033 0.959 . S
H1018 C1033 0.959 . S
H1019 C1033 0.961 . S
H1020 C1034 0.960 . S
H1021 C1034 0.961 . S
H1022 C1034 0.959 . S
H1023 C1037 0.927 . S
H1024 C1038 0.931 . S
H1025 C1040 0.930 . S
C1026 H1014 0.930 . S
C1026 C1027 1.399 . S
C1026 C1031 1.399 . S
C1027 C1026 1.399 . S
C1027 C1028 1.376 . S
C1028 H1015 0.930 . S
C1028 C1027 1.376 . S
C1028 C1029 1.395 . S
C1029 H1016 0.923 1_556 S
C1029 C1028 1.395 . S
C1029 C1030 1.390 . S
C1030 C1029 1.390 . S
C1030 C1031 1.423 . S
C1030 C1036 1.419 1_456 S
C1031 C1026 1.399 . S
C1031 C1030 1.423 . S
C1031 C1032 1.516 1_455 S
C1032 C1031 1.516 1_655 S
C1032 C1033 1.502 . S
C1032 C1034 1.561 . S
C1032 C1035 1.526 1_556 S
C1033 H1017 0.959 . S
C1033 H1018 0.959 . S
C1033 H1019 0.961 . S
C1033 C1032 1.502 . S
C1034 H1020 0.960 . S
C1034 H1021 0.961 . S
C1034 H1022 0.959 . S
C1034 C1032 1.561 . S
C1035 C1032 1.526 1_554 S
C1035 C1036 1.414 . S
C1035 C1040 1.390 . S
C1036 C1030 1.419 1_654 S
C1036 C1035 1.414 . S
C1036 C1037 1.403 1_655 S
C1037 H1023 0.927 . S
C1037 C1036 1.403 1_455 S
C1037 C1038 1.388 1_455 S
C1038 H1024 0.931 . S
C1038 C1037 1.388 1_655 S
C1038 C1039 1.389 . S
C1039 C1038 1.389 . S
C1039 C1040 1.387 . S
C1040 H1025 0.930 . S
C1040 C1035 1.390 . S
C1040 C1039 1.387 . S
H1041 C1053 0.930 . S
H1042 C1055 0.930 . S
H1043 C1056 0.930 1_565 S
H1044 C1060 0.959 . S
H1045 C1060 0.959 . S
H1046 C1060 0.961 . S
H1047 C1061 0.960 . S
H1048 C1061 0.961 . S
H1049 C1061 0.959 . S
H1050 C1064 0.929 . S
H1051 C1065 0.931 . S
H1052 C1067 0.930 . S
C1053 H1041 0.930 . S
C1053 C1054 1.399 . S
C1053 C1058 1.399 . S
C1054 C1053 1.399 . S
C1054 C1055 1.376 . S
C1055 H1042 0.930 . S
C1055 C1054 1.376 . S
C1055 C1056 1.388 . S
C1056 H1043 0.930 1_545 S
C1056 C1055 1.388 . S
C1056 C1057 1.390 . S
C1057 C1056 1.390 . S
C1057 C1058 1.394 . S
C1057 C1063 1.465 1_545 S
C1058 C1053 1.399 . S
C1058 C1057 1.394 . S
C1058 C1059 1.516 . S
C1059 C1058 1.516 . S
C1059 C1060 1.502 . S
C1059 C1061 1.561 . S
C1059 C1062 1.526 1_545 S
C1060 H1044 0.959 . S
C1060 H1045 0.959 . S
C1060 H1046 0.961 . S
C1060 C1059 1.502 . S
C1061 H1047 0.960 . S
C1061 H1048 0.961 . S
C1061 H1049 0.959 . S
C1061 C1059 1.561 . S
C1062 C1059 1.526 1_565 S
C1062 C1063 1.396 . S
C1062 C1067 1.390 . S
C1063 C1057 1.465 1_565 S
C1063 C1062 1.396 . S
C1063 C1064 1.399 . S
C1064 H1050 0.929 . S
C1064 C1063 1.399 . S
C1064 C1065 1.385 . S
C1065 H1051 0.931 . S
C1065 C1064 1.385 . S
C1065 C1066 1.389 . S
C1066 C1065 1.389 . S
C1066 C1067 1.387 . S
C1067 H1052 0.930 . S
C1067 C1062 1.390 . S
C1067 C1066 1.387 . S
H1068 C1080 0.930 . S
H1069 C1082 0.930 . S
H1070 C1083 0.930 . S
H1071 C1087 0.959 . S
H1072 C1087 0.959 . S
H1073 C1087 0.961 . S
H1074 C1088 0.960 . S
H1075 C1088 0.961 . S
H1076 C1088 0.959 . S
H1077 C1091 0.939 . S
H1078 C1092 0.931 . S
H1079 C1094 0.930 . S
C1080 H1068 0.930 . S
C1080 C1081 1.399 . S
C1080 C1085 1.399 . S
C1081 C1080 1.399 . S
C1081 C1082 1.376 . S
C1082 H1069 0.930 . S
C1082 C1081 1.376 . S
C1082 C1083 1.388 . S
C1083 H1070 0.930 . S
C1083 C1082 1.388 . S
C1083 C1084 1.390 . S
C1084 C1083 1.390 . S
C1084 C1085 1.394 . S
C1084 C1090 1.446 1_554 S
C1085 C1080 1.399 . S
C1085 C1084 1.394 . S
C1085 C1086 1.516 1_554 S
C1086 C1085 1.516 1_556 S
C1086 C1087 1.502 . S
C1086 C1088 1.561 . S
C1086 C1089 1.526 . S
C1087 H1071 0.959 . S
C1087 H1072 0.959 . S
C1087 H1073 0.961 . S
C1087 C1086 1.502 . S
C1088 H1074 0.960 . S
C1088 H1075 0.961 . S
C1088 H1076 0.959 . S
C1088 C1086 1.561 . S
C1089 C1086 1.526 . S
C1089 C1090 1.419 . S
C1089 C1094 1.390 . S
C1090 C1084 1.446 1_556 S
C1090 C1089 1.419 . S
C1090 C1091 1.398 1_556 S
C1091 H1077 0.939 . S
C1091 C1090 1.398 1_554 S
C1091 C1092 1.376 1_554 S
C1092 H1078 0.931 . S
C1092 C1091 1.376 1_556 S
C1092 C1093 1.389 . S
C1093 C1092 1.389 . S
C1093 C1094 1.387 . S
C1094 H1079 0.930 . S
C1094 C1089 1.390 . S
C1094 C1093 1.387 . S
H1095 C1107 0.930 . S
H1096 C1109 0.930 . S
H1097 C1110 0.930 . S
H1098 C1114 0.959 . S
H1099 C1114 0.959 . S
H1100 C1114 0.961 . S
H1101 C1115 0.960 . S
H1102 C1115 0.961 . S
H1103 C1115 0.959 . S
H1104 C1118 0.929 . S
H1105 C1119 0.931 . S
H1106 C1121 0.930 . S
C1107 H1095 0.930 . S
C1107 C1108 1.399 . S
C1107 C1112 1.399 . S
C1108 C1107 1.399 . S
C1108 C1109 1.376 . S
C1109 H1096 0.930 . S
C1109 C1108 1.376 . S
C1109 C1110 1.388 . S
C1110 H1097 0.930 . S
C1110 C1109 1.388 . S
C1110 C1111 1.390 . S
C1111 C1110 1.390 . S
C1111 C1112 1.394 . S
C1111 C1117 1.465 1_455 S
C1112 C1107 1.399 . S
C1112 C1111 1.394 . S
C1112 C1113 1.516 1_455 S
C1113 C1112 1.516 1_655 S
C1113 C1114 1.502 . S
C1113 C1115 1.561 1_655 S
C1113 C1116 1.526 . S
C1114 H1098 0.959 . S
C1114 H1099 0.959 . S
C1114 H1100 0.961 . S
C1114 C1113 1.502 . S
C1115 H1101 0.960 . S
C1115 H1102 0.961 . S
C1115 H1103 0.959 . S
C1115 C1113 1.561 1_455 S
C1116 C1113 1.526 . S
C1116 C1117 1.396 . S
C1116 C1121 1.390 . S
C1117 C1111 1.465 1_655 S
C1117 C1116 1.396 . S
C1117 C1118 1.399 . S
C1118 H1104 0.929 . S
C1118 C1117 1.399 . S
C1118 C1119 1.385 . S
C1119 H1105 0.931 . S
C1119 C1118 1.385 . S
C1119 C1120 1.389 . S
C1120 C1119 1.389 . S
C1120 C1121 1.387 . S
C1121 H1106 0.930 . S
C1121 C1116 1.390 . S
C1121 C1120 1.387 . S
H1122 C1134 0.930 . S
H1123 C1136 0.930 . S
H1124 C1137 0.930 . S
H1125 C1141 0.959 . S
H1126 C1141 0.959 . S
H1127 C1141 0.961 . S
H1128 C1142 0.960 . S
H1129 C1142 0.961 . S
H1130 C1142 0.959 . S
H1131 C1145 0.929 . S
H1132 C1146 0.931 . S
H1133 C1148 0.930 . S
C1134 H1122 0.930 . S
C1134 C1135 1.399 . S
C1134 C1139 1.399 . S
C1135 C1134 1.399 . S
C1135 C1136 1.376 . S
C1136 H1123 0.930 . S
C1136 C1135 1.376 . S
C1136 C1137 1.388 1_565 S
C1137 H1124 0.930 . S
C1137 C1136 1.388 1_545 S
C1137 C1138 1.389 1_545 S
C1138 C1137 1.389 1_565 S
C1138 C1139 1.424 . S
C1138 C1144 1.418 1_566 S
C1139 C1134 1.399 . S
C1139 C1138 1.424 . S
C1139 C1140 1.516 1_556 S
C1140 C1139 1.516 1_554 S
C1140 C1141 1.502 . S
C1140 C1142 1.561 . S
C1140 C1143 1.526 1_565 S
C1141 H1125 0.959 . S
C1141 H1126 0.959 . S
C1141 H1127 0.961 . S
C1141 C1140 1.502 . S
C1142 H1128 0.960 . S
C1142 H1129 0.961 . S
C1142 H1130 0.959 . S
C1142 C1140 1.561 . S
C1143 C1140 1.526 1_545 S
C1143 C1144 1.423 . S
C1143 C1148 1.390 . S
C1144 C1138 1.418 1_544 S
C1144 C1143 1.423 . S
C1144 C1145 1.397 1_554 S
C1145 H1131 0.929 . S
C1145 C1144 1.397 1_556 S
C1145 C1146 1.385 1_556 S
C1146 H1132 0.931 . S
C1146 C1145 1.385 1_554 S
C1146 C1147 1.389 . S
C1147 C1146 1.389 . S
C1147 C1148 1.387 . S
C1148 H1133 0.930 . S
C1148 C1143 1.390 . S
C1148 C1147 1.387 . S
H1149 C1161 0.930 . S
H1150 C1163 0.930 . S
H1151 C1164 0.930 . S
H1152 C1168 0.959 . S
H1153 C1168 0.959 . S
H1154 C1168 0.961 . S
H1155 C1169 0.960 . S
H1156 C1169 0.961 . S
H1157 C1169 0.959 . S
H1158 C1172 0.929 . S
H1159 C1173 0.931 . S
H1160 C1175 0.930 . S
C1161 H1149 0.930 . S
C1161 C1162 1.399 . S
C1161 C1166 1.399 . S
C1162 C1161 1.399 . S
C1162 C1163 1.376 . S
C1163 H1150 0.930 . S
C1163 C1162 1.376 . S
C1163 C1164 1.388 . S
C1164 H1151 0.930 . S
C1164 C1163 1.388 . S
C1164 C1165 1.390 . S
C1165 C1164 1.390 . S
C1165 C1166 1.394 . S
C1165 C1171 1.465 . S
C1166 C1161 1.399 . S
C1166 C1165 1.394 . S
C1166 C1167 1.516 . S
C1167 C1166 1.516 . S
C1167 C1168 1.502 . S
C1167 C1169 1.561 . S
C1167 C1170 1.526 . S
C1168 H1152 0.959 . S
C1168 H1153 0.959 . S
C1168 H1154 0.961 . S
C1168 C1167 1.502 . S
C1169 H1155 0.960 . S
C1169 H1156 0.961 . S
C1169 H1157 0.959 . S
C1169 C1167 1.561 . S
C1170 C1167 1.526 . S
C1170 C1171 1.396 . S
C1170 C1175 1.390 . S
C1171 C1165 1.465 . S
C1171 C1170 1.396 . S
C1171 C1172 1.399 . S
C1172 H1158 0.929 . S
C1172 C1171 1.399 . S
C1172 C1173 1.385 . S
C1173 H1159 0.931 . S
C1173 C1172 1.385 . S
C1173 C1174 1.389 . S
C1174 C1173 1.389 . S
C1174 C1175 1.387 . S
C1175 H1160 0.930 . S
C1175 C1170 1.390 . S
C1175 C1174 1.387 . S
H1176 C1188 0.930 . S
H1177 C1190 0.930 . S
H1178 C1191 0.930 . S
H1179 C1195 0.959 . S
H1180 C1195 0.959 1_455 S
H1181 C1195 0.961 1_554 S
H1182 C1196 0.960 . S
H1183 C1196 0.961 . S
H1184 C1196 0.959 . S
H1185 C1199 0.929 . S
H1186 C1200 0.931 . S
H1187 C1202 0.930 . S
C1188 H1176 0.930 . S
C1188 C1189 1.399 . S
C1188 C1193 1.399 . S
C1189 C1188 1.399 . S
C1189 C1190 1.376 . S
C1190 H1177 0.930 . S
C1190 C1189 1.376 . S
C1190 C1191 1.388 . S
C1191 H1178 0.930 . S
C1191 C1190 1.388 . S
C1191 C1192 1.390 . S
C1192 C1191 1.390 . S
C1192 C1193 1.394 . S
C1192 C1198 1.465 1_654 S
C1193 C1188 1.399 . S
C1193 C1192 1.394 . S
C1193 C1194 1.516 1_655 S
C1194 C1193 1.516 1_455 S
C1194 C1195 1.502 1_454 S
C1194 C1196 1.561 . S
C1194 C1197 1.526 1_554 S
C1195 H1179 0.959 . S
C1195 H1180 0.959 1_655 S
C1195 H1181 0.961 1_556 S
C1195 C1194 1.502 1_656 S
C1196 H1182 0.960 . S
C1196 H1183 0.961 . S
C1196 H1184 0.959 . S
C1196 C1194 1.561 . S
C1197 C1194 1.526 1_556 S
C1197 C1198 1.396 . S
C1197 C1202 1.390 . S
C1198 C1192 1.465 1_456 S
C1198 C1197 1.396 . S
C1198 C1199 1.399 . S
C1199 H1185 0.929 . S
C1199 C1198 1.399 . S
C1199 C1200 1.385 . S
C1200 H1186 0.931 . S
C1200 C1199 1.385 . S
C1200 C1201 1.389 . S
C1201 C1200 1.389 . S
C1201 C1202 1.387 . S
C1202 H1187 0.930 . S
C1202 C1197 1.390 . S
C1202 C1201 1.387 . S
H1203 C1215 0.930 . S
H1204 C1217 0.930 . S
H1205 C1218 0.930 . S
H1206 C1222 0.959 . S
H1207 C1222 0.959 . S
H1208 C1222 0.961 . S
H1209 C1223 0.960 . S
H1210 C1223 0.961 . S
H1211 C1223 0.959 . S
H1212 C1226 0.929 1_565 S
H1213 C1227 0.931 . S
H1214 C1229 0.930 . S
C1215 H1203 0.930 . S
C1215 C1216 1.399 . S
C1215 C1220 1.399 . S
C1216 C1215 1.399 . S
C1216 C1217 1.376 . S
C1217 H1204 0.930 . S
C1217 C1216 1.376 . S
C1217 C1218 1.388 . S
C1218 H1205 0.930 . S
C1218 C1217 1.388 . S
C1218 C1219 1.390 . S
C1219 C1218 1.390 . S
C1219 C1220 1.394 . S
C1219 C1225 1.465 1_565 S
C1220 C1215 1.399 . S
C1220 C1219 1.394 . S
C1220 C1221 1.516 1_565 S
C1221 C1220 1.516 1_545 S
C1221 C1222 1.502 . S
C1221 C1223 1.561 . S
C1221 C1224 1.526 . S
C1222 H1206 0.959 . S
C1222 H1207 0.959 . S
C1222 H1208 0.961 . S
C1222 C1221 1.502 . S
C1223 H1209 0.960 . S
C1223 H1210 0.961 . S
C1223 H1211 0.959 . S
C1223 C1221 1.561 . S
C1224 C1221 1.526 . S
C1224 C1225 1.396 . S
C1224 C1229 1.390 . S
C1225 C1219 1.465 1_545 S
C1225 C1224 1.396 . S
C1225 C1226 1.399 . S
C1226 H1212 0.929 1_545 S
C1226 C1225 1.399 . S
C1226 C1227 1.385 . S
C1227 H1213 0.931 . S
C1227 C1226 1.385 . S
C1227 C1228 1.389 . S
C1228 C1227 1.389 . S
C1228 C1229 1.387 . S
C1229 H1214 0.930 . S
C1229 C1224 1.390 . S
C1229 C1228 1.387 . S
H1230 C1242 0.930 . S
H1231 C1244 0.930 . S
H1232 C1245 0.930 . S
H1233 C1249 0.959 . S
H1234 C1249 0.959 . S
H1235 C1249 0.961 . S
H1236 C1250 0.960 . S
H1237 C1250 0.961 . S
H1238 C1250 0.959 . S
H1239 C1253 0.914 1_554 S
H1240 C1254 0.931 . S
H1241 C1256 0.930 . S
C1242 H1230 0.930 . S
C1242 C1243 1.399 . S
C1242 C1247 1.399 . S
C1243 C1242 1.399 . S
C1243 C1244 1.376 . S
C1244 H1231 0.930 . S
C1244 C1243 1.376 . S
C1244 C1245 1.388 . S
C1245 H1232 0.930 . S
C1245 C1244 1.388 . S
C1245 C1246 1.390 . S
C1246 C1245 1.390 . S
C1246 C1247 1.394 . S
C1246 C1252 1.438 1_554 S
C1247 C1242 1.399 . S
C1247 C1246 1.394 . S
C1247 C1248 1.516 1_554 S
C1248 C1247 1.516 1_556 S
C1248 C1249 1.502 . S
C1248 C1250 1.561 . S
C1248 C1251 1.526 . S
C1249 H1233 0.959 . S
C1249 H1234 0.959 . S
C1249 H1235 0.961 . S
C1249 C1248 1.502 . S
C1250 H1236 0.960 . S
C1250 H1237 0.961 . S
C1250 H1238 0.959 . S
C1250 C1248 1.561 . S
C1251 C1248 1.526 . S
C1251 C1252 1.428 . S
C1251 C1256 1.390 . S
C1252 C1246 1.438 1_556 S
C1252 C1251 1.428 . S
C1252 C1253 1.399 . S
C1253 H1239 0.914 1_556 S
C1253 C1252 1.399 . S
C1253 C1254 1.401 . S
C1254 H1240 0.931 . S
C1254 C1253 1.401 . S
C1254 C1255 1.389 . S
C1255 C1254 1.389 . S
C1255 C1256 1.387 . S
C1256 H1241 0.930 . S
C1256 C1251 1.390 . S
C1256 C1255 1.387 . S
H1257 C1269 0.930 . S
H1258 C1271 0.930 . S
H1259 C1272 0.930 . S
H1260 C1276 0.959 . S
H1261 C1276 0.959 1_655 S
H1262 C1276 0.961 . S
H1263 C1277 0.960 . S
H1264 C1277 0.961 . S
H1265 C1277 0.959 . S
H1266 C1280 0.929 . S
H1267 C1281 0.931 . S
H1268 C1283 0.930 . S
C1269 H1257 0.930 . S
C1269 C1270 1.399 . S
C1269 C1274 1.399 . S
C1270 C1269 1.399 . S
C1270 C1271 1.376 . S
C1271 H1258 0.930 . S
C1271 C1270 1.376 . S
C1271 C1272 1.388 . S
C1272 H1259 0.930 . S
C1272 C1271 1.388 . S
C1272 C1273 1.390 . S
C1273 C1272 1.390 . S
C1273 C1274 1.394 . S
C1273 C1279 1.465 1_455 S
C1274 C1269 1.399 . S
C1274 C1273 1.394 . S
C1274 C1275 1.516 1_455 S
C1275 C1274 1.516 1_655 S
C1275 C1276 1.502 1_655 S
C1275 C1277 1.561 . S
C1275 C1278 1.526 . S
C1276 H1260 0.959 . S
C1276 H1261 0.959 1_455 S
C1276 H1262 0.961 . S
C1276 C1275 1.502 1_455 S
C1277 H1263 0.960 . S
C1277 H1264 0.961 . S
C1277 H1265 0.959 . S
C1277 C1275 1.561 . S
C1278 C1275 1.526 . S
C1278 C1279 1.396 . S
C1278 C1283 1.390 . S
C1279 C1273 1.465 1_655 S
C1279 C1278 1.396 . S
C1279 C1280 1.399 . S
C1280 H1266 0.929 . S
C1280 C1279 1.399 . S
C1280 C1281 1.385 . S
C1281 H1267 0.931 . S
C1281 C1280 1.385 . S
C1281 C1282 1.389 . S
C1282 C1281 1.389 . S
C1282 C1283 1.387 . S
C1283 H1268 0.930 . S
C1283 C1278 1.390 . S
C1283 C1282 1.387 . S
H1284 C1296 0.930 . S
H1285 C1298 0.930 . S
H1286 C1299 0.930 . S
H1287 C1303 0.959 . S
H1288 C1303 0.959 . S
H1289 C1303 0.961 . S
H1290 C1304 0.960 . S
H1291 C1304 0.961 . S
H1292 C1304 0.959 . S
H1293 C1307 0.929 . S
H1294 C1308 0.931 . S
H1295 C1310 0.930 . S
C1296 H1284 0.930 . S
C1296 C1297 1.399 . S
C1296 C1301 1.399 . S
C1297 C1296 1.399 . S
C1297 C1298 1.376 . S
C1298 H1285 0.930 . S
C1298 C1297 1.376 . S
C1298 C1299 1.388 . S
C1299 H1286 0.930 . S
C1299 C1298 1.388 . S
C1299 C1300 1.390 . S
C1300 C1299 1.390 . S
C1300 C1301 1.394 . S
C1300 C1306 1.465 . S
C1301 C1296 1.399 . S
C1301 C1300 1.394 . S
C1301 C1302 1.516 . S
C1302 C1301 1.516 . S
C1302 C1303 1.502 . S
C1302 C1304 1.561 . S
C1302 C1305 1.526 . S
C1303 H1287 0.959 . S
C1303 H1288 0.959 . S
C1303 H1289 0.961 . S
C1303 C1302 1.502 . S
C1304 H1290 0.960 . S
C1304 H1291 0.961 . S
C1304 H1292 0.959 . S
C1304 C1302 1.561 . S
C1305 C1302 1.526 . S
C1305 C1306 1.396 . S
C1305 C1310 1.390 . S
C1306 C1300 1.465 . S
C1306 C1305 1.396 . S
C1306 C1307 1.399 . S
C1307 H1293 0.929 . S
C1307 C1306 1.399 . S
C1307 C1308 1.385 . S
C1308 H1294 0.931 . S
C1308 C1307 1.385 . S
C1308 C1309 1.389 . S
C1309 C1308 1.389 . S
C1309 C1310 1.387 . S
C1310 H1295 0.930 . S
C1310 C1305 1.390 . S
C1310 C1309 1.387 . S
H1311 C1323 0.930 . S
H1312 C1325 0.930 . S
H1313 C1326 0.930 . S
H1314 C1330 0.959 . S
H1315 C1330 0.959 . S
H1316 C1330 0.961 . S
H1317 C1331 0.960 . S
H1318 C1331 0.961 . S
H1319 C1331 0.959 . S
H1320 C1334 0.929 . S
H1321 C1335 0.931 . S
H1322 C1337 0.930 . S
C1323 H1311 0.930 . S
C1323 C1324 1.399 . S
C1323 C1328 1.399 . S
C1324 C1323 1.399 . S
C1324 C1325 1.376 . S
C1325 H1312 0.930 . S
C1325 C1324 1.376 . S
C1325 C1326 1.388 . S
C1326 H1313 0.930 . S
C1326 C1325 1.388 . S
C1326 C1327 1.390 . S
C1327 C1326 1.390 . S
C1327 C1328 1.394 . S
C1327 C1333 1.465 . S
C1328 C1323 1.399 . S
C1328 C1327 1.394 . S
C1328 C1329 1.516 . S
C1329 C1328 1.516 . S
C1329 C1330 1.502 . S
C1329 C1331 1.561 . S
C1329 C1332 1.526 . S
C1330 H1314 0.959 . S
C1330 H1315 0.959 . S
C1330 H1316 0.961 . S
C1330 C1329 1.502 . S
C1331 H1317 0.960 . S
C1331 H1318 0.961 . S
C1331 H1319 0.959 . S
C1331 C1329 1.561 . S
C1332 C1329 1.526 . S
C1332 C1333 1.396 . S
C1332 C1337 1.390 . S
C1333 C1327 1.465 . S
C1333 C1332 1.396 . S
C1333 C1334 1.399 . S
C1334 H1320 0.929 . S
C1334 C1333 1.399 . S
C1334 C1335 1.385 . S
C1335 H1321 0.931 . S
C1335 C1334 1.385 . S
C1335 C1336 1.389 . S
C1336 C1335 1.389 . S
C1336 C1337 1.387 . S
C1337 H1322 0.930 . S
C1337 C1332 1.390 . S
C1337 C1336 1.387 . S
H1338 C1350 0.930 . S
H1339 C1352 0.930 . S
H1340 C1353 0.930 . S
H1341 C1357 0.959 . S
H1342 C1357 0.959 . S
H1343 C1357 0.961 . S
H1344 C1358 0.960 . S
H1345 C1358 0.961 . S
H1346 C1358 0.959 . S
H1347 C1361 0.929 . S
H1348 C1362 0.931 . S
H1349 C1364 0.930 . S
C1350 H1338 0.930 . S
C1350 C1351 1.399 . S
C1350 C1355 1.399 . S
C1351 C1350 1.399 . S
C1351 C1352 1.376 . S
C1352 H1339 0.930 . S
C1352 C1351 1.376 . S
C1352 C1353 1.388 . S
C1353 H1340 0.930 . S
C1353 C1352 1.388 . S
C1353 C1354 1.390 . S
C1354 C1353 1.390 . S
C1354 C1355 1.394 . S
C1354 C1360 1.465 . S
C1355 C1350 1.399 . S
C1355 C1354 1.394 . S
C1355 C1356 1.516 . S
C1356 C1355 1.516 . S
C1356 C1357 1.502 . S
C1356 C1358 1.561 . S
C1356 C1359 1.526 . S
C1357 H1341 0.959 . S
C1357 H1342 0.959 . S
C1357 H1343 0.961 . S
C1357 C1356 1.502 . S
C1358 H1344 0.960 . S
C1358 H1345 0.961 . S
C1358 H1346 0.959 . S
C1358 C1356 1.561 . S
C1359 C1356 1.526 . S
C1359 C1360 1.396 . S
C1359 C1364 1.390 . S
C1360 C1354 1.465 . S
C1360 C1359 1.396 . S
C1360 C1361 1.399 . S
C1361 H1347 0.929 . S
C1361 C1360 1.399 . S
C1361 C1362 1.385 . S
C1362 H1348 0.931 . S
C1362 C1361 1.385 . S
C1362 C1363 1.389 . S
C1363 C1362 1.389 . S
C1363 C1364 1.387 . S
C1364 H1349 0.930 . S
C1364 C1359 1.390 . S
C1364 C1363 1.387 . S
H1365 C1377 0.930 . S
H1366 C1379 0.930 . S
H1367 C1380 0.930 . S
H1368 C1384 0.959 . S
H1369 C1384 0.959 . S
H1370 C1384 0.961 . S
H1371 C1385 0.960 . S
H1372 C1385 0.961 . S
H1373 C1385 0.959 . S
H1374 C1388 0.929 . S
H1375 C1389 0.931 . S
H1376 C1391 0.930 . S
C1377 H1365 0.930 . S
C1377 C1378 1.399 . S
C1377 C1382 1.399 . S
C1378 C1377 1.399 . S
C1378 C1379 1.376 . S
C1379 H1366 0.930 . S
C1379 C1378 1.376 . S
C1379 C1380 1.388 . S
C1380 H1367 0.930 . S
C1380 C1379 1.388 . S
C1380 C1381 1.390 . S
C1381 C1380 1.390 . S
C1381 C1382 1.394 . S
C1381 C1387 1.465 . S
C1382 C1377 1.399 . S
C1382 C1381 1.394 . S
C1382 C1383 1.516 . S
C1383 C1382 1.516 . S
C1383 C1384 1.502 . S
C1383 C1385 1.561 . S
C1383 C1386 1.526 . S
C1384 H1368 0.959 . S
C1384 H1369 0.959 . S
C1384 H1370 0.961 . S
C1384 C1383 1.502 . S
C1385 H1371 0.960 . S
C1385 H1372 0.961 . S
C1385 H1373 0.959 . S
C1385 C1383 1.561 . S
C1386 C1383 1.526 . S
C1386 C1387 1.396 . S
C1386 C1391 1.390 . S
C1387 C1381 1.465 . S
C1387 C1386 1.396 . S
C1387 C1388 1.399 . S
C1388 H1374 0.929 . S
C1388 C1387 1.399 . S
C1388 C1389 1.385 . S
C1389 H1375 0.931 . S
C1389 C1388 1.385 . S
C1389 C1390 1.389 . S
C1390 C1389 1.389 . S
C1390 C1391 1.387 . S
C1391 H1376 0.930 . S
C1391 C1386 1.390 . S
C1391 C1390 1.387 . S
H1392 C1404 0.930 . S
H1393 C1406 0.930 . S
H1394 C1407 0.930 . S
H1395 C1411 0.959 . S
H1396 C1411 0.959 . S
H1397 C1411 0.961 . S
H1398 C1412 0.960 . S
H1399 C1412 0.961 . S
H1400 C1412 0.959 . S
H1401 C1415 0.929 . S
H1402 C1416 0.931 . S
H1403 C1418 0.930 . S
C1404 H1392 0.930 . S
C1404 C1405 1.399 . S
C1404 C1409 1.399 . S
C1405 C1404 1.399 . S
C1405 C1406 1.376 . S
C1406 H1393 0.930 . S
C1406 C1405 1.376 . S
C1406 C1407 1.388 . S
C1407 H1394 0.930 . S
C1407 C1406 1.388 . S
C1407 C1408 1.390 . S
C1408 C1407 1.390 . S
C1408 C1409 1.394 . S
C1408 C1414 1.465 . S
C1409 C1404 1.399 . S
C1409 C1408 1.394 . S
C1409 C1410 1.516 . S
C1410 C1409 1.516 . S
C1410 C1411 1.502 . S
C1410 C1412 1.561 . S
C1410 C1413 1.526 . S
C1411 H1395 0.959 . S
C1411 H1396 0.959 . S
C1411 H1397 0.961 . S
C1411 C1410 1.502 . S
C1412 H1398 0.960 . S
C1412 H1399 0.961 . S
C1412 H1400 0.959 . S
C1412 C1410 1.561 . S
C1413 C1410 1.526 . S
C1413 C1414 1.396 . S
C1413 C1418 1.390 . S
C1414 C1408 1.465 . S
C1414 C1413 1.396 . S
C1414 C1415 1.399 . S
C1415 H1401 0.929 . S
C1415 C1414 1.399 . S
C1415 C1416 1.385 . S
C1416 H1402 0.931 . S
C1416 C1415 1.385 . S
C1416 C1417 1.389 . S
C1417 C1416 1.389 . S
C1417 C1418 1.387 . S
C1418 H1403 0.930 . S
C1418 C1413 1.390 . S
C1418 C1417 1.387 . S
H1419 C1431 0.930 . S
H1420 C1433 0.930 . S
H1421 C1434 0.930 . S
H1422 C1438 0.959 . S
H1423 C1438 0.959 . S
H1424 C1438 0.961 . S
H1425 C1439 0.960 . S
H1426 C1439 0.961 . S
H1427 C1439 0.959 . S
H1428 C1442 0.929 . S
H1429 C1443 0.931 . S
H1430 C1445 0.930 . S
C1431 H1419 0.930 . S
C1431 C1432 1.399 . S
C1431 C1436 1.399 . S
C1432 C1431 1.399 . S
C1432 C1433 1.376 . S
C1433 H1420 0.930 . S
C1433 C1432 1.376 . S
C1433 C1434 1.388 . S
C1434 H1421 0.930 . S
C1434 C1433 1.388 . S
C1434 C1435 1.390 . S
C1435 C1434 1.390 . S
C1435 C1436 1.394 . S
C1435 C1441 1.465 . S
C1436 C1431 1.399 . S
C1436 C1435 1.394 . S
C1436 C1437 1.516 . S
C1437 C1436 1.516 . S
C1437 C1438 1.502 . S
C1437 C1439 1.561 . S
C1437 C1440 1.526 . S
C1438 H1422 0.959 . S
C1438 H1423 0.959 . S
C1438 H1424 0.961 . S
C1438 C1437 1.502 . S
C1439 H1425 0.960 . S
C1439 H1426 0.961 . S
C1439 H1427 0.959 . S
C1439 C1437 1.561 . S
C1440 C1437 1.526 . S
C1440 C1441 1.396 . S
C1440 C1445 1.390 . S
C1441 C1435 1.465 . S
C1441 C1440 1.396 . S
C1441 C1442 1.399 . S
C1442 H1428 0.929 . S
C1442 C1441 1.399 . S
C1442 C1443 1.385 . S
C1443 H1429 0.931 . S
C1443 C1442 1.385 . S
C1443 C1444 1.389 . S
C1444 C1443 1.389 . S
C1444 C1445 1.387 . S
C1445 H1430 0.930 . S
C1445 C1440 1.390 . S
C1445 C1444 1.387 . S
H1446 C1458 0.930 . S
H1447 C1460 0.930 . S
H1448 C1461 0.930 . S
H1449 C1465 0.959 . S
H1450 C1465 0.959 . S
H1451 C1465 0.961 . S
H1452 C1466 0.960 . S
H1453 C1466 0.961 . S
H1454 C1466 0.959 . S
H1455 C1469 0.929 . S
H1456 C1470 0.931 . S
H1457 C1472 0.930 . S
C1458 H1446 0.930 . S
C1458 C1459 1.399 . S
C1458 C1463 1.399 . S
C1459 C1458 1.399 . S
C1459 C1460 1.376 . S
C1460 H1447 0.930 . S
C1460 C1459 1.376 . S
C1460 C1461 1.388 . S
C1461 H1448 0.930 . S
C1461 C1460 1.388 . S
C1461 C1462 1.390 . S
C1462 C1461 1.390 . S
C1462 C1463 1.394 . S
C1462 C1468 1.465 . S
C1463 C1458 1.399 . S
C1463 C1462 1.394 . S
C1463 C1464 1.516 . S
C1464 C1463 1.516 . S
C1464 C1465 1.502 . S
C1464 C1466 1.561 . S
C1464 C1467 1.526 . S
C1465 H1449 0.959 . S
C1465 H1450 0.959 . S
C1465 H1451 0.961 . S
C1465 C1464 1.502 . S
C1466 H1452 0.960 . S
C1466 H1453 0.961 . S
C1466 H1454 0.959 . S
C1466 C1464 1.561 . S
C1467 C1464 1.526 . S
C1467 C1468 1.396 . S
C1467 C1472 1.390 . S
C1468 C1462 1.465 . S
C1468 C1467 1.396 . S
C1468 C1469 1.399 . S
C1469 H1455 0.929 . S
C1469 C1468 1.399 . S
C1469 C1470 1.385 . S
C1470 H1456 0.931 . S
C1470 C1469 1.385 . S
C1470 C1471 1.389 . S
C1471 C1470 1.389 . S
C1471 C1472 1.387 . S
C1472 H1457 0.930 . S
C1472 C1467 1.390 . S
C1472 C1471 1.387 . S
H1473 C1485 0.930 . S
H1474 C1487 0.930 . S
H1475 C1488 0.930 . S
H1476 C1492 0.959 . S
H1477 C1492 0.959 . S
H1478 C1492 0.961 . S
H1479 C1493 0.960 . S
H1480 C1493 0.961 . S
H1481 C1493 0.959 . S
H1482 C1496 0.929 . S
H1483 C1497 0.931 . S
H1484 C1499 0.930 . S
C1485 H1473 0.930 . S
C1485 C1486 1.399 . S
C1485 C1490 1.399 . S
C1486 C1485 1.399 . S
C1486 C1487 1.376 . S
C1487 H1474 0.930 . S
C1487 C1486 1.376 . S
C1487 C1488 1.388 . S
C1488 H1475 0.930 . S
C1488 C1487 1.388 . S
C1488 C1489 1.390 . S
C1489 C1488 1.390 . S
C1489 C1490 1.394 . S
C1489 C1495 1.465 . S
C1490 C1485 1.399 . S
C1490 C1489 1.394 . S
C1490 C1491 1.516 . S
C1491 C1490 1.516 . S
C1491 C1492 1.502 . S
C1491 C1493 1.561 . S
C1491 C1494 1.526 . S
C1492 H1476 0.959 . S
C1492 H1477 0.959 . S
C1492 H1478 0.961 . S
C1492 C1491 1.502 . S
C1493 H1479 0.960 . S
C1493 H1480 0.961 . S
C1493 H1481 0.959 . S
C1493 C1491 1.561 . S
C1494 C1491 1.526 . S
C1494 C1495 1.396 . S
C1494 C1499 1.390 . S
C1495 C1489 1.465 . S
C1495 C1494 1.396 . S
C1495 C1496 1.399 . S
C1496 H1482 0.929 . S
C1496 C1495 1.399 . S
C1496 C1497 1.385 . S
C1497 H1483 0.931 . S
C1497 C1496 1.385 . S
C1497 C1498 1.389 . S
C1498 C1497 1.389 . S
C1498 C1499 1.387 . S
C1499 H1484 0.930 . S
C1499 C1494 1.390 . S
C1499 C1498 1.387 . S
H1500 C1512 0.930 . S
H1501 C1514 0.930 . S
H1502 C1515 0.930 . S
H1503 C1519 0.959 . S
H1504 C1519 0.959 . S
H1505 C1519 0.961 . S
H1506 C1520 0.960 . S
H1507 C1520 0.961 . S
H1508 C1520 0.959 . S
H1509 C1523 0.929 . S
H1510 C1524 0.931 . S
H1511 C1526 0.930 . S
C1512 H1500 0.930 . S
C1512 C1513 1.399 . S
C1512 C1517 1.399 . S
C1513 C1512 1.399 . S
C1513 C1514 1.376 . S
C1514 H1501 0.930 . S
C1514 C1513 1.376 . S
C1514 C1515 1.388 . S
C1515 H1502 0.930 . S
C1515 C1514 1.388 . S
C1515 C1516 1.390 . S
C1516 C1515 1.390 . S
C1516 C1517 1.394 . S
C1516 C1522 1.465 . S
C1517 C1512 1.399 . S
C1517 C1516 1.394 . S
C1517 C1518 1.516 . S
C1518 C1517 1.516 . S
C1518 C1519 1.502 . S
C1518 C1520 1.561 . S
C1518 C1521 1.526 . S
C1519 H1503 0.959 . S
C1519 H1504 0.959 . S
C1519 H1505 0.961 . S
C1519 C1518 1.502 . S
C1520 H1506 0.960 . S
C1520 H1507 0.961 . S
C1520 H1508 0.959 . S
C1520 C1518 1.561 . S
C1521 C1518 1.526 . S
C1521 C1522 1.396 . S
C1521 C1526 1.390 . S
C1522 C1516 1.465 . S
C1522 C1521 1.396 . S
C1522 C1523 1.399 . S
C1523 H1509 0.929 . S
C1523 C1522 1.399 . S
C1523 C1524 1.385 . S
C1524 H1510 0.931 . S
C1524 C1523 1.385 . S
C1524 C1525 1.389 . S
C1525 C1524 1.389 . S
C1525 C1526 1.387 . S
C1526 H1511 0.930 . S
C1526 C1521 1.390 . S
C1526 C1525 1.387 . S
H1527 C1539 0.930 . S
H1528 C1541 0.930 . S
H1529 C1542 0.930 . S
H1530 C1546 0.959 . S
H1531 C1546 0.959 . S
H1532 C1546 0.961 . S
H1533 C1547 0.960 . S
H1534 C1547 0.961 . S
H1535 C1547 0.959 . S
H1536 C1550 0.929 . S
H1537 C1551 0.931 . S
H1538 C1553 0.930 . S
C1539 H1527 0.930 . S
C1539 C1540 1.399 . S
C1539 C1544 1.399 . S
C1540 C1539 1.399 . S
C1540 C1541 1.376 . S
C1541 H1528 0.930 . S
C1541 C1540 1.376 . S
C1541 C1542 1.388 . S
C1542 H1529 0.930 . S
C1542 C1541 1.388 . S
C1542 C1543 1.390 . S
C1543 C1542 1.390 . S
C1543 C1544 1.394 . S
C1543 C1549 1.465 . S
C1544 C1539 1.399 . S
C1544 C1543 1.394 . S
C1544 C1545 1.516 . S
C1545 C1544 1.516 . S
C1545 C1546 1.502 . S
C1545 C1547 1.561 . S
C1545 C1548 1.526 . S
C1546 H1530 0.959 . S
C1546 H1531 0.959 . S
C1546 H1532 0.961 . S
C1546 C1545 1.502 . S
C1547 H1533 0.960 . S
C1547 H1534 0.961 . S
C1547 H1535 0.959 . S
C1547 C1545 1.561 . S
C1548 C1545 1.526 . S
C1548 C1549 1.396 . S
C1548 C1553 1.390 . S
C1549 C1543 1.465 . S
C1549 C1548 1.396 . S
C1549 C1550 1.399 . S
C1550 H1536 0.929 . S
C1550 C1549 1.399 . S
C1550 C1551 1.385 . S
C1551 H1537 0.931 . S
C1551 C1550 1.385 . S
C1551 C1552 1.389 . S
C1552 C1551 1.389 . S
C1552 C1553 1.387 . S
C1553 H1538 0.930 . S
C1553 C1548 1.390 . S
C1553 C1552 1.387 . S
H1554 C1566 0.930 . S
H1555 C1568 0.930 . S
H1556 C1569 0.930 . S
H1557 C1573 0.959 . S
H1558 C1573 0.959 . S
H1559 C1573 0.961 . S
H1560 C1574 0.960 . S
H1561 C1574 0.961 . S
H1562 C1574 0.959 . S
H1563 C1577 0.929 . S
H1564 C1578 0.931 . S
H1565 C1580 0.930 . S
C1566 H1554 0.930 . S
C1566 C1567 1.399 . S
C1566 C1571 1.399 . S
C1567 C1566 1.399 . S
C1567 C1568 1.376 . S
C1568 H1555 0.930 . S
C1568 C1567 1.376 . S
C1568 C1569 1.388 . S
C1569 H1556 0.930 . S
C1569 C1568 1.388 . S
C1569 C1570 1.390 . S
C1570 C1569 1.390 . S
C1570 C1571 1.394 . S
C1570 C1576 1.465 . S
C1571 C1566 1.399 . S
C1571 C1570 1.394 . S
C1571 C1572 1.516 . S
C1572 C1571 1.516 . S
C1572 C1573 1.502 . S
C1572 C1574 1.561 . S
C1572 C1575 1.526 . S
C1573 H1557 0.959 . S
C1573 H1558 0.959 . S
C1573 H1559 0.961 . S
C1573 C1572 1.502 . S
C1574 H1560 0.960 . S
C1574 H1561 0.961 . S
C1574 H1562 0.959 . S
C1574 C1572 1.561 . S
C1575 C1572 1.526 . S
C1575 C1576 1.396 . S
C1575 C1580 1.390 . S
C1576 C1570 1.465 . S
C1576 C1575 1.396 . S
C1576 C1577 1.399 . S
C1577 H1563 0.929 . S
C1577 C1576 1.399 . S
C1577 C1578 1.385 . S
C1578 H1564 0.931 . S
C1578 C1577 1.385 . S
C1578 C1579 1.389 . S
C1579 C1578 1.389 . S
C1579 C1580 1.387 . S
C1580 H1565 0.930 . S
C1580 C1575 1.390 . S
C1580 C1579 1.387 . S
H1581 C1593 0.930 . S
H1582 C1595 0.930 . S
H1583 C1596 0.930 . S
H1584 C1600 0.959 . S
H1585 C1600 0.959 . S
H1586 C1600 0.961 . S
H1587 C1601 0.960 . S
H1588 C1601 0.961 . S
H1589 C1601 0.959 . S
H1590 C1604 0.929 . S
H1591 C1605 0.931 . S
H1592 C1607 0.930 . S
C1593 H1581 0.930 . S
C1593 C1594 1.399 . S
C1593 C1598 1.399 . S
C1594 C1593 1.399 . S
C1594 C1595 1.376 . S
C1595 H1582 0.930 . S
C1595 C1594 1.376 . S
C1595 C1596 1.388 . S
C1596 H1583 0.930 . S
C1596 C1595 1.388 . S
C1596 C1597 1.390 . S
C1597 C1596 1.390 . S
C1597 C1598 1.394 . S
C1597 C1603 1.465 . S
C1598 C1593 1.399 . S
C1598 C1597 1.394 . S
C1598 C1599 1.516 . S
C1599 C1598 1.516 . S
C1599 C1600 1.502 . S
C1599 C1601 1.561 . S
C1599 C1602 1.526 . S
C1600 H1584 0.959 . S
C1600 H1585 0.959 . S
C1600 H1586 0.961 . S
C1600 C1599 1.502 . S
C1601 H1587 0.960 . S
C1601 H1588 0.961 . S
C1601 H1589 0.959 . S
C1601 C1599 1.561 . S
C1602 C1599 1.526 . S
C1602 C1603 1.396 . S
C1602 C1607 1.390 . S
C1603 C1597 1.465 . S
C1603 C1602 1.396 . S
C1603 C1604 1.399 . S
C1604 H1590 0.929 . S
C1604 C1603 1.399 . S
C1604 C1605 1.385 . S
C1605 H1591 0.931 . S
C1605 C1604 1.385 . S
C1605 C1606 1.389 . S
C1606 C1605 1.389 . S
C1606 C1607 1.387 . S
C1607 H1592 0.930 . S
C1607 C1602 1.390 . S
C1607 C1606 1.387 . S
C325 C200 1.353 . S
C337 C5 1.363 . S
C352 C18 1.335 . S
C364 C213 1.322 . S
C379 C31 1.291 . S
C391 C226 1.300 . S
C406 C44 1.293 . S
C418 C161 1.289 . S
C433 C174 1.373 . S
C445 C57 1.369 . S
C460 C70 1.368 . S
C472 C187 1.360 . S
C487 C278 1.287 . S
C499 C83 1.289 . S
C514 C96 1.361 . S
C526 C291 1.350 . S
C541 C109 1.368 . S
C553 C304 1.360 . S
C568 C239 1.373 . S
C580 C122 1.370 . S
C595 C135 1.369 . S
C607 C252 1.372 . S
C622 C265 1.353 . S
C634 C148 1.341 . S
C649 C10 1.177 . S
C661 C309 1.168 . S
C676 C244 1.186 . S
C688 C23 1.178 . S
C703 C36 1.149 . S
C715 C257 1.158 . S
C730 C270 1.170 . S
C742 C49 1.162 . S
C757 C62 1.151 . S
C769 C283 1.160 . S
C784 C296 1.192 . S
C796 C75 1.187 . S
C811 C88 1.190 . S
C823 C179 1.184 . S
C838 C192 1.191 . S
C850 C101 1.186 . S
C865 C205 1.136 . S
C877 C114 1.138 . S
C892 C218 1.195 . S
C904 C127 1.193 . S
C919 C140 1.173 . S
C931 C231 1.164 . S
C946 C153 1.176 . S
C958 C166 1.168 . S
C973 C91 1.118 . S
C985 C0 1.179 . S
C1000 C104 1.123 . S
C1012 C13 1.176 . S
C1027 C117 1.117 . S
C1039 C26 1.178 . S
C1054 C130 1.169 . S
C1066 C39 1.124 . S
C1081 C52 1.180 . S
C1093 C143 1.118 . S
C1108 C65 1.132 . S
C1120 C78 1.160 . S
C1135 C156 1.175 . S
C1147 C247 1.118 . S
C1162 C169 1.162 . S
C1174 C260 1.149 . S
C1189 C273 1.159 . S
C1201 C182 1.152 . S
C1216 C286 1.138 . S
C1228 C195 1.171 . S
C1243 C299 1.180 . S
C1255 C208 1.120 . S
C1270 C234 1.156 . S
C1282 C221 1.155 . S
C1297 C8 1.383 . S
C1309 C255 1.395 . S
C1324 C268 1.414 . S
C1336 C21 1.424 . S
C1351 C34 1.383 . S
C1363 C281 1.374 . S
C1378 C294 1.376 . S
C1390 C47 1.387 . S
C1405 C60 1.379 . S
C1417 C307 1.370 . S
C1432 C242 1.360 . S
C1444 C73 1.362 . S
C1459 C86 1.380 . S
C1471 C229 1.372 . S
C1486 C164 1.430 . S
C1498 C99 1.435 . S
C1513 C112 1.422 . S
C1525 C177 1.430 . S
C1540 C125 1.387 . S
C1552 C190 1.377 . S
C1567 C138 1.385 . S
C1579 C203 1.375 . S
C1594 C151 1.421 . S
C1606 C216 1.429 . S
