# Generated by pormake.
# Topology zfs, (5)-cn, num edge types: 1
# Building blocks:
#     Node 0, Type 0, BuildingBlock: BEQFEK_clean_sbu_0, # of connection points: 5
#     Node 1, Type 0, BuildingBlock: BEQFEK_clean_sbu_0, # of connection points: 5
#     Node 2, Type 0, BuildingBlock: BEQFEK_clean_sbu_0, # of connection points: 5
#     Node 3, Type 0, BuildingBlock: BEQFEK_clean_sbu_0, # of connection points: 5
#     Node 4, Type 0, BuildingBlock: BEQFEK_clean_sbu_0, # of connection points: 5
#     Node 5, Type 0, BuildingBlock: BEQFEK_clean_sbu_0, # of connection points: 5
#     Node 6, Type 0, BuildingBlock: BEQFEK_clean_sbu_0, # of connection points: 5
#     Node 7, Type 0, BuildingBlock: BEQFEK_clean_sbu_0, # of connection points: 5
#     Edge 8, Type (0, 0), BuildingBlock: AJUNOK_clean_linker_0, # of connection points: 2
#     Edge 9, Type (0, 0), BuildingBlock: AJUNOK_clean_linker_0, # of connection points: 2
#     Edge 10, Type (0, 0), BuildingBlock: AJUNOK_clean_linker_0, # of connection points: 2
#     Edge 11, Type (0, 0), BuildingBlock: AJUNOK_clean_linker_0, # of connection points: 2
#     Edge 12, Type (0, 0), BuildingBlock: AJUNOK_clean_linker_0, # of connection points: 2
#     Edge 13, Type (0, 0), BuildingBlock: AJUNOK_clean_linker_0, # of connection points: 2
#     Edge 14, Type (0, 0), BuildingBlock: AJUNOK_clean_linker_0, # of connection points: 2
#     Edge 15, Type (0, 0), BuildingBlock: AJUNOK_clean_linker_0, # of connection points: 2
#     Edge 16, Type (0, 0), BuildingBlock: AJUNOK_clean_linker_0, # of connection points: 2
#     Edge 17, Type (0, 0), BuildingBlock: AJUNOK_clean_linker_0, # of connection points: 2
#     Edge 18, Type (0, 0), BuildingBlock: AJUNOK_clean_linker_0, # of connection points: 2
#     Edge 19, Type (0, 0), BuildingBlock: AJUNOK_clean_linker_0, # of connection points: 2
#     Edge 20, Type (0, 0), BuildingBlock: AJUNOK_clean_linker_0, # of connection points: 2
#     Edge 21, Type (0, 0), BuildingBlock: AJUNOK_clean_linker_0, # of connection points: 2
#     Edge 22, Type (0, 0), BuildingBlock: AJUNOK_clean_linker_0, # of connection points: 2
#     Edge 23, Type (0, 0), BuildingBlock: AJUNOK_clean_linker_0, # of connection points: 2
#     Edge 24, Type (0, 0), BuildingBlock: AJUNOK_clean_linker_0, # of connection points: 2
#     Edge 25, Type (0, 0), BuildingBlock: AJUNOK_clean_linker_0, # of connection points: 2
#     Edge 26, Type (0, 0), BuildingBlock: AJUNOK_clean_linker_0, # of connection points: 2
#     Edge 27, Type (0, 0), BuildingBlock: AJUNOK_clean_linker_0, # of connection points: 2
# Relax obj value: 0.356
# Max RMSD: 0.164
# Mean RMSD: 0.164
data_MOF--net-zfs--node1-BEQFEK_clean_sbu_0--edge1-AJUNOK_clean_linker_0
_symmetry_space_group_name_H-M    P1
_symmetry_Int_Tables_number       1
_symmetry_cell_setting            triclinic
loop_
_symmetry_equiv_pos_as_xyz
'x, y, z'
_cell_length_a     23.48226
_cell_length_b     23.777968
_cell_length_c     32.675403
_cell_angle_alpha  90.012698
_cell_angle_beta   90.00605
_cell_angle_gamma 89.914872
loop_
_atom_site_label
_atom_site_type_symbol
_atom_site_fract_x
_atom_site_fract_y
_atom_site_fract_z
_atom_type_partial_charge
Co0 Co 0.10525 0.28694 0.26688 0.0
Co1 Co 1.00476 0.29465 0.20588 0.0
C2 C 0.05816 0.397 0.24763 0.0
O3 O 0.09819 0.36886 0.26366 0.0
O4 O 1.01959 0.37286 0.22673 0.0
C5 C 0.19333 0.3062 0.32577 0.0
O6 O 0.17223 0.3573 0.32778 0.0
C7 C 0.98753 0.33828 0.12676 0.0
C8 C 0.93101 0.27674 0.09729 0.0
C9 C 0.97021 0.31895 0.08878 0.0
N10 N 0.9637 0.30631 0.15599 0.0
N11 N 0.92766 0.27123 0.13836 0.0
C12 C 0.02638 0.38674 0.1356 0.0
H13 H 1.00456 0.41636 0.15664 0.0
H14 H 0.06546 0.37141 0.15114 0.0
H15 H 0.03759 0.41018 0.10737 0.0
C16 C 0.16071 0.22725 0.19681 0.0
N17 N 0.11698 0.25528 0.21446 0.0
N18 N 0.0724 0.25332 0.19024 0.0
C19 C 0.08559 0.22078 0.15754 0.0
C20 C 0.14231 0.20482 0.15989 0.0
C21 C 0.21743 0.21824 0.21642 0.0
H22 H 0.21344 0.18452 0.23971 0.0
H23 H 0.23129 0.25729 0.23209 0.0
H24 H 0.24978 0.20528 0.1935 0.0
O25 O 0.03568 0.25358 0.29461 0.0
O26 O 0.96377 0.25371 0.25026 0.0
H27 H 1.0016 0.19272 0.14225 0.0
H28 H 0.0573 0.15732 0.11472 0.0
C29 C 0.04349 0.1984 0.12736 0.0
H30 H 0.04001 0.22774 0.10132 0.0
H31 H 0.90618 0.2392 0.15374 0.0
O32 O 0.17105 0.27042 0.30174 0.0
C33 C 0.98385 0.24217 0.28571 0.0
Co34 Co 0.76299 0.09575 0.51969 0.0
Co35 Co 0.75043 0.99878 0.45798 0.0
C36 C 0.64954 0.05506 0.50079 0.0
O37 O 0.67951 0.09243 0.51801 0.0
O38 O 0.6721 1.01703 0.47878 0.0
C39 C 0.75317 0.2015 0.56075 0.0
O40 O 0.71008 0.21252 0.53644 0.0
C41 C 0.70323 0.97936 0.37939 0.0
C42 C 0.76217 0.91861 0.35133 0.0
C43 C 0.71968 0.95738 0.34195 0.0
N44 N 0.73667 0.9577 0.40882 0.0
N45 N 0.77018 0.91935 0.3922 0.0
C46 C 0.65748 0.022 0.38732 0.0
H47 H 0.62802 1.00543 0.41087 0.0
H48 H 0.67678 0.06141 0.39909 0.0
H49 H 0.63165 0.03072 0.35963 0.0
C50 C 0.82641 0.1495 0.45029 0.0
N51 N 0.79612 0.10729 0.46749 0.0
N52 N 0.79375 0.06465 0.44195 0.0
C53 C 0.82392 0.07816 0.40802 0.0
C54 C 0.84443 0.13265 0.41162 0.0
C55 C 0.83764 0.20472 0.47061 0.0
H56 H 0.86 0.19742 0.50005 0.0
H57 H 0.79648 0.22554 0.47757 0.0
H58 H 0.86357 0.23284 0.45099 0.0
O59 O 0.79349 0.02616 0.54618 0.0
O60 O 0.79122 0.95534 0.50197 0.0
H61 H 0.84706 0.99564 0.38773 0.0
H62 H 0.87891 0.0516 0.35865 0.0
C63 C 0.83965 0.03796 0.37473 0.0
H64 H 0.80491 0.03647 0.35196 0.0
H65 H 0.80274 0.8985 0.40781 0.0
O66 O 0.78158 0.15644 0.55687 0.0
C67 C 0.80322 0.97474 0.53747 0.0
Co68 Co 0.94954 0.74978 0.76795 0.0
Co69 Co 0.04896 0.74144 0.70655 0.0
C70 C 0.99511 0.63956 0.74817 0.0
O71 O 0.95533 0.66795 0.76426 0.0
O72 O 0.03378 0.66354 0.72732 0.0
C73 C 0.86187 0.73084 0.82705 0.0
O74 O 0.88221 0.67941 0.82857 0.0
C75 C 0.06094 0.69944 0.6266 0.0
C76 C 0.12565 0.75347 0.59798 0.0
C77 C 0.08246 0.71542 0.58898 0.0
N78 N 0.08756 0.72872 0.65611 0.0
N79 N 0.1279 0.75945 0.63904 0.0
C80 C 1.01333 0.65893 0.63462 0.0
H81 H 0.02814 0.62635 0.6564 0.0
H82 H 0.97679 0.68135 0.6487 0.0
H83 H 0.99948 0.63696 0.60641 0.0
C84 C 0.89422 0.81073 0.69843 0.0
N85 N 0.93777 0.78243 0.716 0.0
N86 N 0.98201 0.78351 0.69151 0.0
C87 C 0.96878 0.81506 0.65837 0.0
C88 C 0.91239 0.83214 0.66099 0.0
C89 C 0.83659 0.81703 0.71728 0.0
H90 H 0.82465 0.77771 0.73341 0.0
H91 H 0.80403 0.82731 0.6938 0.0
H92 H 0.83801 0.85153 0.74011 0.0
O93 O 1.01994 0.78165 0.79514 0.0
O94 O 0.09156 0.78185 0.75052 0.0
H95 H 0.9986 0.8793 0.61714 0.0
H96 H 1.0122 0.80874 0.60115 0.0
C97 C 1.01106 0.83683 0.62809 0.0
H98 H 0.05379 0.83958 0.64223 0.0
H99 H 0.15253 0.78893 0.65474 0.0
O100 O 0.88456 0.7667 0.8033 0.0
C101 C 0.07177 0.79288 0.78615 0.0
Co102 Co 0.29267 0.94194 0.01972 0.0
Co103 Co 0.30168 0.03727 0.95612 0.0
C104 C 0.40544 0.98409 0.99732 0.0
O105 O 0.37583 0.94882 0.01715 0.0
O106 O 0.38187 0.01994 0.97386 0.0
C107 C 0.30394 0.8371 0.06353 0.0
O108 O 0.34545 0.8232 0.03857 0.0
C109 C 0.33793 0.0499 0.8736 0.0
C110 C 0.29003 0.12277 0.85017 0.0
C111 C 0.32485 0.07852 0.838 0.0
N112 N 0.31201 0.07547 0.90524 0.0
N113 N 0.28487 0.12028 0.89131 0.0
C114 C 0.36412 0.99236 0.87588 0.0
H115 H 0.3598 0.97382 0.90674 0.0
H116 H 0.34378 0.96394 0.85325 0.0
H117 H 0.40994 0.99515 0.868 0.0
C118 C 0.22951 0.88486 0.95121 0.0
N119 N 0.25857 0.92808 0.96822 0.0
N120 N 0.25759 0.97121 0.94313 0.0
C121 C 0.22594 0.95741 0.91011 0.0
C122 C 0.20872 0.90188 0.91325 0.0
C123 C 0.22217 0.82865 0.97098 0.0
H124 H 0.20018 0.83402 1.00078 0.0
H125 H 0.26468 0.81016 0.97722 0.0
H126 H 0.19744 0.7995 0.95133 0.0
O127 O 0.25953 1.01091 0.04494 0.0
O128 O 0.26327 0.08204 1.00096 0.0
H129 H 0.20492 0.04117 0.89048 0.0
H130 H 0.16364 0.98624 0.86653 0.0
C131 C 0.20649 0.99787 0.87809 0.0
H132 H 0.2363 0.99573 0.85206 0.0
H133 H 0.25849 0.14579 0.90911 0.0
O134 O 0.27649 0.88256 0.05859 0.0
C135 C 0.24964 0.0622 0.03606 0.0
Co136 Co 0.10669 0.74904 0.25505 0.0
Co137 Co 1.00426 0.74168 0.31455 0.0
C138 C 0.05855 0.63917 0.27345 0.0
O139 O 0.09885 0.66714 0.25772 0.0
O140 O 1.0198 0.66344 0.29414 0.0
C141 C 0.19868 0.72948 0.19883 0.0
O142 O 0.18261 0.67664 0.19967 0.0
C143 C 0.98436 0.69751 0.39329 0.0
C144 C 0.92866 0.7602 0.42241 0.0
C145 C 0.96689 0.71713 0.43119 0.0
N146 N 0.96174 0.73017 0.36392 0.0
N147 N 0.92604 0.76589 0.38133 0.0
C148 C 1.02218 0.64806 0.38473 0.0
H149 H 1.00003 0.61907 0.36344 0.0
H150 H 0.0619 0.66238 0.36958 0.0
H151 H 0.03236 0.62432 0.41304 0.0
C152 C 0.16055 0.80871 0.32517 0.0
N153 N 0.1171 0.78061 0.30738 0.0
N154 N 0.07184 0.78338 0.3309 0.0
C155 C 0.08442 0.81655 0.3634 0.0
C156 C 0.14138 0.83232 0.36157 0.0
C157 C 0.21758 0.81682 0.30574 0.0
H158 H 0.2129 0.84507 0.27891 0.0
H159 H 0.23386 0.7758 0.29448 0.0
H160 H 0.24851 0.83563 0.32745 0.0
O161 O 0.0385 0.78387 0.22689 0.0
O162 O 0.96382 0.78137 0.26904 0.0
H163 H 1.00017 0.84384 0.3786 0.0
H164 H 0.05488 0.87797 0.40767 0.0
C165 C 0.0418 0.83758 0.39376 0.0
H166 H 0.03795 0.80694 0.41894 0.0
H167 H 0.90545 0.79846 0.36585 0.0
O168 O 0.17287 0.76548 0.22085 0.0
C169 C 0.98607 0.79411 0.23451 0.0
Co170 Co 0.2891 0.09474 0.50142 0.0
Co171 Co 0.30216 1.00028 0.56545 0.0
C172 C 0.40379 0.0551 0.52335 0.0
O173 O 0.37244 0.08931 0.50387 0.0
O174 O 0.38186 0.01903 0.5474 0.0
C175 C 0.30202 0.19913 0.45875 0.0
O176 O 0.34593 0.20914 0.48251 0.0
C177 C 0.33921 0.98778 0.64773 0.0
C178 C 0.29128 0.9153 0.67151 0.0
C179 C 0.32596 0.95965 0.68351 0.0
N180 N 0.31337 0.96196 0.61621 0.0
N181 N 0.28628 0.91732 0.63035 0.0
C182 C 0.36618 0.04484 0.64486 0.0
H183 H 0.4129 0.04044 0.64885 0.0
H184 H 0.3578 0.06478 0.61489 0.0
H185 H 0.35011 0.07282 0.6695 0.0
C186 C 0.22484 0.15068 0.56947 0.0
N187 N 0.25536 0.10805 0.55295 0.0
N188 N 0.25611 0.06544 0.57849 0.0
C189 C 0.22401 0.07899 0.61139 0.0
C190 C 0.20435 0.13371 0.60751 0.0
C191 C 0.21658 0.20659 0.54939 0.0
H192 H 0.19024 0.20118 0.52147 0.0
H193 H 0.2585 0.22344 0.53981 0.0
H194 H 0.19572 0.23715 0.57024 0.0
O195 O 0.25686 0.02522 0.47614 0.0
O196 O 0.2652 0.95469 0.52055 0.0
H197 H 0.16407 0.04941 0.65634 0.0
H198 H 0.23759 0.04345 0.66983 0.0
C199 C 0.20707 0.03904 0.64437 0.0
H200 H 0.20689 0.99532 0.6328 0.0
H201 H 0.25986 0.89176 0.61268 0.0
O202 O 0.27222 0.15515 0.46339 0.0
C203 C 0.24996 0.97358 0.4855 0.0
Co204 Co 0.94526 0.28871 0.75508 0.0
Co205 Co 0.04757 0.29445 0.81388 0.0
C206 C 0.99332 0.39755 0.77364 0.0
O207 O 0.9516 0.37033 0.75924 0.0
O208 O 0.03307 0.37261 0.79288 0.0
C209 C 0.86022 0.30783 0.69473 0.0
O210 O 0.88442 0.35738 0.69141 0.0
C211 C 0.06298 0.33689 0.89331 0.0
C212 C 0.12692 0.28121 0.92131 0.0
C213 C 0.08486 0.3204 0.93072 0.0
N214 N 0.0882 0.30683 0.86356 0.0
N215 N 0.12818 0.2751 0.88022 0.0
C216 C 1.01607 0.37849 0.88576 0.0
H217 H 0.03111 0.41069 0.8638 0.0
H218 H 0.97877 0.35693 0.87209 0.0
H219 H 1.00328 0.4008 0.91411 0.0
C220 C 0.89178 0.22845 0.8253 0.0
N221 N 0.93514 0.25587 0.80694 0.0
N222 N 0.98037 0.25372 0.83045 0.0
C223 C 0.96784 0.22234 0.8638 0.0
C224 C 0.91101 0.20651 0.86231 0.0
C225 C 0.83334 0.22351 0.80752 0.0
H226 H 0.83334 0.18948 0.78429 0.0
H227 H 0.82145 0.26332 0.79199 0.0
H228 H 0.80152 0.21339 0.83152 0.0
O229 O 1.01429 0.25626 0.72655 0.0
O230 O 0.08796 0.253 0.76927 0.0
H231 H 0.053 0.19602 0.87816 0.0
H232 H 0.99809 0.15724 0.90422 0.0
C233 C 1.01089 0.19951 0.89316 0.0
H234 H 1.01358 0.2274 0.92014 0.0
H235 H 0.15165 0.24488 0.86433 0.0
O236 O 0.87944 0.2726 0.7205 0.0
C237 C 0.0662 0.24345 0.73401 0.0
Co238 Co 0.76308 0.9425 1.00266 0.0
Co239 Co 0.75196 0.03807 0.06568 0.0
C240 C 0.65035 0.98325 0.02198 0.0
O241 O 0.68005 0.94656 1.00376 0.0
O242 O 0.67326 0.02004 0.04489 0.0
C243 C 0.75436 0.8373 0.96083 0.0
O244 O 0.71372 0.82406 0.98665 0.0
C245 C 0.70524 0.04904 0.14487 0.0
C246 C 0.7618 0.10876 0.17624 0.0
C247 C 0.72101 0.06756 0.1833 0.0
N248 N 0.73755 0.0749 0.11665 0.0
N249 N 0.76971 0.11249 0.13539 0.0
C250 C 0.66025 1.00661 0.13488 0.0
H251 H 0.62832 0.02649 0.1145 0.0
H252 H 0.67949 0.97044 0.11841 0.0
H253 H 0.63749 0.99189 0.16262 0.0
C254 C 0.82701 0.88674 0.0712 0.0
N255 N 0.79632 0.9292 0.05459 0.0
N256 N 0.79722 0.97261 0.07944 0.0
C257 C 0.83132 0.96013 0.1116 0.0
C258 C 0.85009 0.90485 0.10815 0.0
C259 C 0.8375 0.83151 0.05065 0.0
H260 H 0.85522 0.83883 0.01965 0.0
H261 H 0.79644 0.80903 0.04708 0.0
H262 H 0.86743 0.80492 0.06848 0.0
O263 O 0.79359 1.01313 0.97769 0.0
O264 O 0.79147 0.08364 0.02228 0.0
H265 H 0.85441 0.04369 0.12937 0.0
H266 H 0.89068 0.98971 0.15768 0.0
C267 C 0.84968 1.00158 0.14339 0.0
H268 H 0.81763 1.00326 0.16803 0.0
H269 H 0.80132 0.13611 0.12097 0.0
O270 O 0.7813 0.88322 0.96429 0.0
C271 C 0.80323 0.0645 0.98662 0.0
C272 C 0.10812 0.54706 0.26394 0.0
C273 C 0.05691 0.57748 0.26732 0.0
C274 C 0.10801 0.4887 0.25779 0.0
C275 C 0.0567 0.45874 0.25363 0.0
H276 H 0.14869 0.5684 0.26658 0.0
H277 H 0.14851 0.46699 0.25579 0.0
S278 S 0.91102 0.51885 0.25926 0.0
N279 N 0.95348 0.57337 0.26605 0.0
N280 N 0.95328 0.46389 0.25318 0.0
C281 C 1.00517 0.48873 0.25642 0.0
C282 C 1.00527 0.54801 0.26368 0.0
C283 C 0.56236 0.02909 0.53993 0.0
C284 C 0.58734 0.05596 0.50618 0.0
C285 C 0.503 0.02912 0.54533 0.0
C286 C 0.46663 0.05642 0.51728 0.0
H287 H 0.58888 1.00774 0.56219 0.0
H288 H 0.48558 1.00778 0.5718 0.0
S289 S 0.51254 0.13254 0.4235 0.0
N290 N 0.57251 0.1102 0.44435 0.0
N291 N 0.46109 0.11072 0.45406 0.0
C292 C 0.49169 0.08368 0.48339 0.0
C293 C 0.55204 0.08328 0.47794 0.0
C294 C 0.94505 0.54877 0.76155 0.0
C295 C 0.99621 0.57779 0.75409 0.0
C296 C 0.94459 0.49046 0.76769 0.0
C297 C 0.99541 0.45912 0.76766 0.0
H298 H 0.90485 0.57117 0.76221 0.0
H299 H 0.90413 0.46984 0.77297 0.0
S300 S 0.14076 0.51469 0.74975 0.0
N301 N 0.09906 0.57052 0.74667 0.0
N302 N 0.09822 0.46105 0.75939 0.0
C303 C 0.04693 0.48752 0.76062 0.0
C304 C 0.04731 0.54679 0.75345 0.0
C305 C 0.49194 0.96842 0.04064 0.0
C306 C 0.46812 0.98433 1.00277 0.0
C307 C 0.55107 0.96896 0.04694 0.0
C308 C 0.58838 0.98423 0.01531 0.0
H309 H 0.46464 0.95612 0.06582 0.0
H310 H 0.56771 0.95649 0.07649 0.0
S311 S 0.54854 0.0273 0.91019 0.0
N312 N 0.48707 1.01537 0.93317 0.0
N313 N 0.59825 1.0144 0.94474 0.0
C314 C 0.56548 0.99939 0.97722 0.0
C315 C 0.50529 1.00006 0.97102 0.0
C316 C 0.26435 0.28693 0.42824 0.0
C317 C 0.29012 0.2342 0.42323 0.0
C318 C 0.23706 0.31311 0.39516 0.0
C319 C 0.23462 0.28671 0.35658 0.0
H320 H 0.26129 0.30575 0.45837 0.0
H321 H 0.21394 0.35181 0.40076 0.0
S322 S 0.30598 0.15345 0.32709 0.0
N323 N 0.31907 0.16027 0.37649 0.0
N324 N 0.26846 0.20945 0.31412 0.0
C325 C 0.26543 0.23667 0.35063 0.0
C326 C 0.29297 0.21026 0.38416 0.0
C327 C 0.79117 0.28887 0.59155 0.0
C328 C 0.765 0.2364 0.59635 0.0
C329 C 0.81798 0.31485 0.62487 0.0
C330 C 0.81944 0.28857 0.66353 0.0
H331 H 0.79488 0.30762 0.56145 0.0
H332 H 0.84141 0.35334 0.61944 0.0
S333 S 0.74685 0.15585 0.69236 0.0
N334 N 0.73482 0.16272 0.64283 0.0
N335 N 0.78427 0.21165 0.70571 0.0
C336 C 0.78819 0.23881 0.66922 0.0
C337 C 0.76127 0.21253 0.63541 0.0
C338 C 0.7908 0.74937 0.92954 0.0
C339 C 0.76625 0.80274 0.92502 0.0
C340 C 0.81776 0.72332 0.89627 0.0
C341 C 0.82085 0.75041 0.85797 0.0
H342 H 0.79328 0.7299 0.95947 0.0
H343 H 0.8401 0.68409 0.90151 0.0
S344 S 0.75199 0.88538 0.82957 0.0
N345 N 0.73871 0.87797 0.87889 0.0
N346 N 0.7885 0.82893 0.81615 0.0
C347 C 0.791 0.80107 0.85243 0.0
C348 C 0.76394 0.82741 0.88616 0.0
C349 C 0.28354 0.83221 0.13708 0.0
C350 C 0.29106 0.80373 0.09989 0.0
C351 C 0.25825 0.80572 0.1704 0.0
C352 C 0.23865 0.75003 0.16744 0.0
H353 H 0.29449 0.87635 0.13973 0.0
H354 H 0.25073 0.83038 0.19777 0.0
S355 S 0.2565 0.65504 0.07809 0.0
N356 N 0.28398 0.71551 0.06299 0.0
N357 N 0.23524 0.66497 0.12576 0.0
C358 C 0.25076 0.71943 0.1315 0.0
C359 C 0.27722 0.74659 0.09754 0.0
C360 C 0.96934 0.32287 0.01252 0.0
C361 C 1.0006 0.32509 0.04906 0.0
C362 C 0.9967 0.32273 0.97443 0.0
C363 C 0.05658 0.32591 0.97119 0.0
H364 H 0.92332 0.31969 0.01338 0.0
H365 H 0.97044 0.31776 0.94748 0.0
S366 S 0.15889 0.32642 0.05714 0.0
N367 N 0.09583 0.32404 0.07926 0.0
N368 N 0.14629 0.32849 1.00753 0.0
C369 C 0.08841 0.32753 1.00733 0.0
C370 C 0.06077 0.32621 0.04624 0.0
C371 C 0.70639 0.06877 0.25867 0.0
C372 C 0.71326 0.03755 0.22272 0.0
C373 C 0.70691 0.04265 0.29704 0.0
C374 C 0.71177 0.98366 0.30103 0.0
H375 H 0.70236 0.11407 0.25716 0.0
H376 H 0.70653 0.06976 0.32356 0.0
S377 S 0.73258 0.88244 0.21638 0.0
N378 N 0.72894 0.94423 0.19366 0.0
N379 N 0.72398 0.89498 0.26561 0.0
C380 C 0.71743 0.95177 0.26522 0.0
C381 C 0.71922 0.97857 0.22614 0.0
C382 C 0.99387 0.71423 0.54558 0.0
C383 C 0.05373 0.71008 0.54866 0.0
C384 C 0.96627 0.7141 0.50755 0.0
C385 C 0.99728 0.71091 0.47094 0.0
H386 H 0.96788 0.7199 0.5726 0.0
H387 H 0.9203 0.71803 0.50679 0.0
S388 S 0.15543 0.7069 0.46243 0.0
N389 N 0.14314 0.70557 0.51208 0.0
N390 N 0.09231 0.71011 0.44049 0.0
C391 C 0.05743 0.70886 0.47361 0.0
C392 C 0.08529 0.70751 0.51245 0.0
C393 C 0.27602 1.00222 0.7431 0.0
C394 C 0.32741 0.98583 0.72452 0.0
C395 C 0.27572 0.03634 0.77801 0.0
C396 C 0.32682 0.05287 0.79684 0.0
H397 H 0.23559 0.98984 0.72995 0.0
H398 H 0.23509 0.04831 0.79108 0.0
S399 S 0.47271 0.01977 0.76097 0.0
N400 N 0.43066 0.98912 0.72711 0.0
N401 N 0.43013 0.05019 0.79465 0.0
C402 C 0.37851 0.03605 0.77901 0.0
C403 C 0.3788 1.00296 0.74255 0.0
C404 C 0.20785 0.19084 0.09996 0.0
C405 C 0.17334 0.16768 0.1308 0.0
C406 C 0.23156 0.15697 0.06887 0.0
C407 C 0.22244 0.0984 0.06802 0.0
H408 H 0.21606 0.23557 0.09967 0.0
H409 H 0.25773 0.17671 0.04568 0.0
S410 S 0.1357 1.01752 0.14293 0.0
N411 N 0.13156 0.08319 0.1591 0.0
N412 N 0.17632 0.01908 0.10169 0.0
C413 C 0.18869 0.07483 0.09945 0.0
C414 C 0.16424 0.10949 0.13063 0.0
C415 C 0.96776 0.20649 0.35776 0.0
C416 C 0.94666 0.21571 0.31776 0.0
C417 C 0.93407 0.18139 0.38841 0.0
C418 C 0.87798 0.16418 0.38036 0.0
H419 H 1.01091 0.2184 0.36557 0.0
H420 H 0.95251 0.17419 0.41835 0.0
S421 S 0.80072 0.18077 0.28221 0.0
N422 N 0.86441 0.20698 0.2729 0.0
N423 N 0.80189 0.15966 0.33033 0.0
C424 C 0.85596 0.17374 0.34097 0.0
C425 C 0.88998 0.19954 0.3098 0.0
C426 C 0.85337 0.8855 0.55937 0.0
C427 C 0.82866 0.93765 0.56973 0.0
C428 C 0.87942 0.85132 0.5892 0.0
C429 C 0.88104 0.86737 0.63069 0.0
H430 H 0.85364 0.87137 0.52785 0.0
H431 H 0.89878 0.81205 0.57967 0.0
S432 S 0.8225 0.99899 0.67455 0.0
N433 N 0.80723 1.00294 0.62531 0.0
N434 N 0.85633 0.93868 0.68065 0.0
C435 C 0.85598 0.91875 0.64167 0.0
C436 C 0.82983 0.95384 0.61141 0.0
C437 C 0.08896 0.82357 0.85909 0.0
C438 C 0.109 0.8186 0.81841 0.0
C439 C 0.12214 0.84841 0.89008 0.0
C440 C 0.17665 0.86959 0.8817 0.0
H441 H 0.04692 0.80856 0.86719 0.0
H442 H 0.10436 0.85251 0.92053 0.0
S443 S 0.25109 0.86521 0.78166 0.0
N444 N 0.18874 0.83577 0.77243 0.0
N445 N 0.25049 0.8823 0.83063 0.0
C446 C 0.19784 0.8641 0.84164 0.0
C447 C 0.1643 0.83862 0.81007 0.0
C448 C 0.15692 0.92485 0.39682 0.0
C449 C 0.17281 0.86836 0.39131 0.0
C450 C 0.1819 0.95811 0.42749 0.0
C451 C 0.22344 0.93611 0.45427 0.0
H452 H 0.12439 0.94333 0.37751 0.0
H453 H 0.16795 1.00135 0.43058 0.0
S454 S 0.28474 0.79246 0.44929 0.0
N455 N 0.23643 0.79333 0.4125 0.0
N456 N 0.28236 0.85523 0.47094 0.0
C457 C 0.24081 0.88005 0.44833 0.0
C458 C 0.21598 0.84647 0.41653 0.0
C459 C 0.18929 0.16974 0.67888 0.0
C460 C 0.16989 0.16527 0.63824 0.0
C461 C 0.15601 0.1955 0.70942 0.0
C462 C 0.10146 0.21733 0.70075 0.0
H463 H 0.23056 0.15281 0.68722 0.0
H464 H 0.17299 0.19754 0.74021 0.0
S465 S 0.03074 0.21475 0.59872 0.0
N466 N 0.09275 0.18379 0.59085 0.0
N467 N 0.02999 0.23237 0.6476 0.0
C468 C 0.08176 0.21314 0.65991 0.0
C469 C 0.11597 0.18716 0.62886 0.0
C470 C 0.88006 0.18714 0.93459 0.0
C471 C 0.88019 0.17153 0.89299 0.0
C472 C 0.85419 0.15318 0.96461 0.0
C473 C 0.82823 0.10169 0.95429 0.0
H474 H 0.90041 0.22589 0.94404 0.0
H475 H 0.85562 0.16688 0.99621 0.0
S476 S 0.81798 0.04168 0.84922 0.0
N477 N 0.85278 0.10132 0.84299 0.0
N478 N 0.804 0.03752 0.89864 0.0
C479 C 0.82793 0.08595 0.9125 0.0
C480 C 0.8539 0.12081 0.88208 0.0
C481 C 0.97387 0.86431 0.17778 0.0
C482 C 0.95089 0.82082 0.20193 0.0
C483 C 0.94172 0.89018 0.14668 0.0
C484 C 0.88568 0.873 0.13805 0.0
H485 H 1.01672 0.87922 0.18348 0.0
H486 H 0.96067 0.92433 0.1295 0.0
S487 S 0.80902 0.75531 0.18786 0.0
N488 N 0.87043 0.7584 0.21244 0.0
N489 N 0.81086 0.80587 0.15318 0.0
C490 C 0.86333 0.82765 0.16043 0.0
C491 C 0.89559 0.80203 0.19267 0.0
loop_
_geom_bond_atom_site_label_1
_geom_bond_atom_site_label_2
_geom_bond_distance
_geom_bond_site_symmetry_2
_ccdc_geom_bond_type
Co0 O3 1.970 . S
Co0 N17 1.989 . S
Co0 O25 1.967 . S
Co0 O32 1.920 . S
Co1 O4 1.966 . S
Co1 N10 2.022 . S
Co1 N18 1.993 . S
Co1 O26 1.941 . S
C2 O3 1.258 . S
C2 O4 1.263 . S
O3 Co0 1.970 . S
O3 C2 1.258 . S
O4 Co1 1.966 . S
O4 C2 1.263 . S
C5 O6 1.235 . S
C5 O32 1.289 . S
O6 C5 1.235 . S
C7 C9 1.400 . S
C7 N10 1.351 . S
C7 C12 1.501 . S
C8 C9 1.387 1_655 S
C8 N11 1.342 . S
C9 C7 1.400 . S
C9 C8 1.387 1_455 S
N10 Co1 2.022 . S
N10 C7 1.351 . S
N10 N11 1.358 1_455 S
N11 C8 1.342 . S
N11 N10 1.358 1_655 S
N11 H31 0.867 . S
C12 C7 1.501 . S
C12 H13 0.961 . S
C12 H14 0.961 . S
C12 H15 0.960 . S
H13 C12 0.961 . S
H14 C12 0.961 . S
H15 C12 0.960 . S
C16 N17 1.342 . S
C16 C20 1.401 . S
C16 C21 1.499 . S
N17 Co0 1.989 . S
N17 C16 1.342 . S
N17 N18 1.388 . S
N18 Co1 1.993 . S
N18 N17 1.388 . S
N18 C19 1.346 . S
C19 N18 1.346 . S
C19 C20 1.396 . S
C19 C29 1.510 . S
C20 C16 1.401 . S
C20 C19 1.396 . S
C21 C16 1.499 . S
C21 H22 0.959 . S
C21 H23 0.960 . S
C21 H24 0.961 . S
H22 C21 0.959 . S
H23 C21 0.960 . S
H24 C21 0.961 . S
O25 Co0 1.967 . S
O25 C33 1.258 . S
O26 Co1 1.941 . S
O26 C33 1.266 . S
H27 C29 0.959 . S
H28 C29 0.961 . S
C29 C19 1.510 . S
C29 H27 0.959 . S
C29 H28 0.961 . S
C29 H30 0.960 . S
H30 C29 0.960 . S
H31 N11 0.867 . S
O32 Co0 1.920 . S
O32 C5 1.289 . S
C33 O25 1.258 . S
C33 O26 1.266 . S
Co34 O37 1.970 . S
Co34 N51 1.989 . S
Co34 O59 1.967 . S
Co34 O66 1.920 . S
Co35 O38 1.966 . S
Co35 N44 2.022 . S
Co35 N52 1.993 . S
Co35 O60 1.941 . S
C36 O37 1.258 . S
C36 O38 1.263 . S
O37 Co34 1.970 . S
O37 C36 1.258 . S
O38 Co35 1.966 . S
O38 C36 1.263 . S
C39 O40 1.235 . S
C39 O66 1.289 . S
O40 C39 1.235 . S
C41 C43 1.400 . S
C41 N44 1.351 . S
C41 C46 1.501 . S
C42 C43 1.387 1_565 S
C42 N45 1.342 . S
C43 C41 1.400 . S
C43 C42 1.387 1_545 S
N44 Co35 2.022 . S
N44 C41 1.351 . S
N44 N45 1.358 1_545 S
N45 C42 1.342 . S
N45 N44 1.358 1_565 S
N45 H65 0.867 . S
C46 C41 1.501 . S
C46 H47 0.961 . S
C46 H48 0.961 . S
C46 H49 0.960 . S
H47 C46 0.961 . S
H48 C46 0.961 . S
H49 C46 0.960 . S
C50 N51 1.342 . S
C50 C54 1.401 . S
C50 C55 1.499 . S
N51 Co34 1.989 . S
N51 C50 1.342 . S
N51 N52 1.388 . S
N52 Co35 1.993 . S
N52 N51 1.388 . S
N52 C53 1.346 . S
C53 N52 1.346 . S
C53 C54 1.396 . S
C53 C63 1.510 . S
C54 C50 1.401 . S
C54 C53 1.396 . S
C55 C50 1.499 . S
C55 H56 0.959 . S
C55 H57 0.960 . S
C55 H58 0.961 . S
H56 C55 0.959 . S
H57 C55 0.960 . S
H58 C55 0.961 . S
O59 Co34 1.967 . S
O59 C67 1.258 . S
O60 Co35 1.941 . S
O60 C67 1.266 . S
H61 C63 0.959 . S
H62 C63 0.961 . S
C63 C53 1.510 . S
C63 H61 0.959 . S
C63 H62 0.961 . S
C63 H64 0.960 . S
H64 C63 0.960 . S
H65 N45 0.867 . S
O66 Co34 1.920 . S
O66 C39 1.289 . S
C67 O59 1.258 . S
C67 O60 1.266 . S
Co68 O71 1.970 . S
Co68 N85 1.989 . S
Co68 O93 1.967 . S
Co68 O100 1.920 . S
Co69 O72 1.966 . S
Co69 N78 2.022 . S
Co69 N86 1.993 . S
Co69 O94 1.941 . S
C70 O71 1.258 . S
C70 O72 1.263 . S
O71 Co68 1.970 . S
O71 C70 1.258 . S
O72 Co69 1.966 . S
O72 C70 1.263 . S
C73 O74 1.235 . S
C73 O100 1.289 . S
O74 C73 1.235 . S
C75 C77 1.400 . S
C75 N78 1.351 . S
C75 C80 1.501 . S
C76 C77 1.387 1_455 S
C76 N79 1.342 . S
C77 C75 1.400 . S
C77 C76 1.387 1_655 S
N78 Co69 2.022 . S
N78 C75 1.351 . S
N78 N79 1.358 1_655 S
N79 C76 1.342 . S
N79 N78 1.358 1_455 S
N79 H99 0.867 . S
C80 C75 1.501 . S
C80 H81 0.961 . S
C80 H82 0.961 . S
C80 H83 0.960 . S
H81 C80 0.961 . S
H82 C80 0.961 . S
H83 C80 0.960 . S
C84 N85 1.342 . S
C84 C88 1.401 . S
C84 C89 1.499 . S
N85 Co68 1.989 . S
N85 C84 1.342 . S
N85 N86 1.388 . S
N86 Co69 1.993 . S
N86 N85 1.388 . S
N86 C87 1.346 . S
C87 N86 1.346 . S
C87 C88 1.396 . S
C87 C97 1.510 . S
C88 C84 1.401 . S
C88 C87 1.396 . S
C89 C84 1.499 . S
C89 H90 0.959 . S
C89 H91 0.960 . S
C89 H92 0.961 . S
H90 C89 0.959 . S
H91 C89 0.960 . S
H92 C89 0.961 . S
O93 Co68 1.967 . S
O93 C101 1.258 . S
O94 Co69 1.941 . S
O94 C101 1.266 . S
H95 C97 0.959 . S
H96 C97 0.961 . S
C97 C87 1.510 . S
C97 H95 0.959 . S
C97 H96 0.961 . S
C97 H98 0.960 . S
H98 C97 0.960 . S
H99 N79 0.867 . S
O100 Co68 1.920 . S
O100 C73 1.289 . S
C101 O93 1.258 . S
C101 O94 1.266 . S
Co102 O105 1.970 . S
Co102 N119 1.989 1_554 S
Co102 O127 1.967 . S
Co102 O134 1.920 . S
Co103 O106 1.966 . S
Co103 N112 2.022 . S
Co103 N120 1.993 . S
Co103 O128 1.941 . S
C104 O105 1.258 1_556 S
C104 O106 1.263 . S
O105 Co102 1.970 . S
O105 C104 1.258 1_554 S
O106 Co103 1.966 . S
O106 C104 1.263 . S
C107 O108 1.235 . S
C107 O134 1.289 . S
O108 C107 1.235 . S
C109 C111 1.400 . S
C109 N112 1.351 . S
C109 C114 1.501 . S
C110 C111 1.387 1_545 S
C110 N113 1.342 . S
C111 C109 1.400 . S
C111 C110 1.387 1_565 S
N112 Co103 2.022 . S
N112 C109 1.351 . S
N112 N113 1.358 1_565 S
N113 C110 1.342 . S
N113 N112 1.358 1_545 S
N113 H133 0.867 . S
C114 C109 1.501 . S
C114 H115 0.961 . S
C114 H116 0.961 . S
C114 H117 0.960 . S
H115 C114 0.961 . S
H116 C114 0.961 . S
H117 C114 0.960 . S
C118 N119 1.342 . S
C118 C122 1.401 . S
C118 C123 1.499 . S
N119 Co102 1.989 1_556 S
N119 C118 1.342 . S
N119 N120 1.388 . S
N120 Co103 1.993 . S
N120 N119 1.388 . S
N120 C121 1.346 . S
C121 N120 1.346 . S
C121 C122 1.396 . S
C121 C131 1.510 . S
C122 C118 1.401 . S
C122 C121 1.396 . S
C123 C118 1.499 . S
C123 H124 0.959 1_556 S
C123 H125 0.960 . S
C123 H126 0.961 . S
H124 C123 0.959 1_554 S
H125 C123 0.960 . S
H126 C123 0.961 . S
O127 Co102 1.967 . S
O127 C135 1.258 . S
O128 Co103 1.941 . S
O128 C135 1.266 1_556 S
H129 C131 0.959 . S
H130 C131 0.961 . S
C131 C121 1.510 . S
C131 H129 0.959 . S
C131 H130 0.961 . S
C131 H132 0.960 . S
H132 C131 0.960 . S
H133 N113 0.867 . S
O134 Co102 1.920 . S
O134 C107 1.289 . S
C135 O127 1.258 . S
C135 O128 1.266 1_554 S
Co136 O139 1.970 . S
Co136 N153 1.989 . S
Co136 O161 1.967 . S
Co136 O168 1.920 . S
Co137 O140 1.966 . S
Co137 N146 2.022 . S
Co137 N154 1.993 . S
Co137 O162 1.941 . S
C138 O139 1.258 . S
C138 O140 1.263 . S
O139 Co136 1.970 . S
O139 C138 1.258 . S
O140 Co137 1.966 . S
O140 C138 1.263 . S
C141 O142 1.235 . S
C141 O168 1.289 . S
O142 C141 1.235 . S
C143 C145 1.400 . S
C143 N146 1.351 . S
C143 C148 1.501 . S
C144 C145 1.387 1_655 S
C144 N147 1.342 . S
C145 C143 1.400 . S
C145 C144 1.387 1_455 S
N146 Co137 2.022 . S
N146 C143 1.351 . S
N146 N147 1.358 1_455 S
N147 C144 1.342 . S
N147 N146 1.358 1_655 S
N147 H167 0.867 . S
C148 C143 1.501 . S
C148 H149 0.961 . S
C148 H150 0.961 . S
C148 H151 0.960 . S
H149 C148 0.961 . S
H150 C148 0.961 . S
H151 C148 0.960 . S
C152 N153 1.342 . S
C152 C156 1.401 . S
C152 C157 1.499 . S
N153 Co136 1.989 . S
N153 C152 1.342 . S
N153 N154 1.388 . S
N154 Co137 1.993 . S
N154 N153 1.388 . S
N154 C155 1.346 . S
C155 N154 1.346 . S
C155 C156 1.396 . S
C155 C165 1.510 . S
C156 C152 1.401 . S
C156 C155 1.396 . S
C157 C152 1.499 . S
C157 H158 0.959 . S
C157 H159 0.960 . S
C157 H160 0.961 . S
H158 C157 0.959 . S
H159 C157 0.960 . S
H160 C157 0.961 . S
O161 Co136 1.967 . S
O161 C169 1.258 . S
O162 Co137 1.941 . S
O162 C169 1.266 . S
H163 C165 0.959 . S
H164 C165 0.961 . S
C165 C155 1.510 . S
C165 H163 0.959 . S
C165 H164 0.961 . S
C165 H166 0.960 . S
H166 C165 0.960 . S
H167 N147 0.867 . S
O168 Co136 1.920 . S
O168 C141 1.289 . S
C169 O161 1.258 . S
C169 O162 1.266 . S
Co170 O173 1.970 . S
Co170 N187 1.989 . S
Co170 O195 1.967 . S
Co170 O202 1.920 . S
Co171 O174 1.966 . S
Co171 N180 2.022 . S
Co171 N188 1.993 . S
Co171 O196 1.941 . S
C172 O173 1.258 . S
C172 O174 1.263 . S
O173 Co170 1.970 . S
O173 C172 1.258 . S
O174 Co171 1.966 . S
O174 C172 1.263 . S
C175 O176 1.235 . S
C175 O202 1.289 . S
O176 C175 1.235 . S
C177 C179 1.400 . S
C177 N180 1.351 . S
C177 C182 1.501 . S
C178 C179 1.387 1_565 S
C178 N181 1.342 . S
C179 C177 1.400 . S
C179 C178 1.387 1_545 S
N180 Co171 2.022 . S
N180 C177 1.351 . S
N180 N181 1.358 1_545 S
N181 C178 1.342 . S
N181 N180 1.358 1_565 S
N181 H201 0.867 . S
C182 C177 1.501 . S
C182 H183 0.961 . S
C182 H184 0.961 . S
C182 H185 0.960 . S
H183 C182 0.961 . S
H184 C182 0.961 . S
H185 C182 0.960 . S
C186 N187 1.342 . S
C186 C190 1.401 . S
C186 C191 1.499 . S
N187 Co170 1.989 . S
N187 C186 1.342 . S
N187 N188 1.388 . S
N188 Co171 1.993 . S
N188 N187 1.388 . S
N188 C189 1.346 . S
C189 N188 1.346 . S
C189 C190 1.396 . S
C189 C199 1.510 . S
C190 C186 1.401 . S
C190 C189 1.396 . S
C191 C186 1.499 . S
C191 H192 0.959 . S
C191 H193 0.960 . S
C191 H194 0.961 . S
H192 C191 0.959 . S
H193 C191 0.960 . S
H194 C191 0.961 . S
O195 Co170 1.967 . S
O195 C203 1.258 . S
O196 Co171 1.941 . S
O196 C203 1.266 . S
H197 C199 0.959 . S
H198 C199 0.961 . S
C199 C189 1.510 . S
C199 H197 0.959 . S
C199 H198 0.961 . S
C199 H200 0.960 . S
H200 C199 0.960 . S
H201 N181 0.867 . S
O202 Co170 1.920 . S
O202 C175 1.289 . S
C203 O195 1.258 . S
C203 O196 1.266 . S
Co204 O207 1.970 . S
Co204 N221 1.989 . S
Co204 O229 1.967 . S
Co204 O236 1.920 . S
Co205 O208 1.966 . S
Co205 N214 2.022 . S
Co205 N222 1.993 . S
Co205 O230 1.941 . S
C206 O207 1.258 . S
C206 O208 1.263 . S
O207 Co204 1.970 . S
O207 C206 1.258 . S
O208 Co205 1.966 . S
O208 C206 1.263 . S
C209 O210 1.235 . S
C209 O236 1.289 . S
O210 C209 1.235 . S
C211 C213 1.400 . S
C211 N214 1.351 . S
C211 C216 1.501 . S
C212 C213 1.387 1_455 S
C212 N215 1.342 . S
C213 C211 1.400 . S
C213 C212 1.387 1_655 S
N214 Co205 2.022 . S
N214 C211 1.351 . S
N214 N215 1.358 1_655 S
N215 C212 1.342 . S
N215 N214 1.358 1_455 S
N215 H235 0.867 . S
C216 C211 1.501 . S
C216 H217 0.961 . S
C216 H218 0.961 . S
C216 H219 0.960 . S
H217 C216 0.961 . S
H218 C216 0.961 . S
H219 C216 0.960 . S
C220 N221 1.342 . S
C220 C224 1.401 . S
C220 C225 1.499 . S
N221 Co204 1.989 . S
N221 C220 1.342 . S
N221 N222 1.388 . S
N222 Co205 1.993 . S
N222 N221 1.388 . S
N222 C223 1.346 . S
C223 N222 1.346 . S
C223 C224 1.396 . S
C223 C233 1.510 . S
C224 C220 1.401 . S
C224 C223 1.396 . S
C225 C220 1.499 . S
C225 H226 0.959 . S
C225 H227 0.960 . S
C225 H228 0.961 . S
H226 C225 0.959 . S
H227 C225 0.960 . S
H228 C225 0.961 . S
O229 Co204 1.967 . S
O229 C237 1.258 . S
O230 Co205 1.941 . S
O230 C237 1.266 . S
H231 C233 0.959 . S
H232 C233 0.961 . S
C233 C223 1.510 . S
C233 H231 0.959 . S
C233 H232 0.961 . S
C233 H234 0.960 . S
H234 C233 0.960 . S
H235 N215 0.867 . S
O236 Co204 1.920 . S
O236 C209 1.289 . S
C237 O229 1.258 . S
C237 O230 1.266 . S
Co238 O241 1.970 . S
Co238 N255 1.989 1_556 S
Co238 O263 1.967 . S
Co238 O270 1.920 . S
Co239 O242 1.966 . S
Co239 N248 2.022 . S
Co239 N256 1.993 . S
Co239 O264 1.941 . S
C240 O241 1.258 1_554 S
C240 O242 1.263 . S
O241 Co238 1.970 . S
O241 C240 1.258 1_556 S
O242 Co239 1.966 . S
O242 C240 1.263 . S
C243 O244 1.235 . S
C243 O270 1.289 . S
O244 C243 1.235 . S
C245 C247 1.400 . S
C245 N248 1.351 . S
C245 C250 1.501 . S
C246 C247 1.387 1_545 S
C246 N249 1.342 . S
C247 C245 1.400 . S
C247 C246 1.387 1_565 S
N248 Co239 2.022 . S
N248 C245 1.351 . S
N248 N249 1.358 1_565 S
N249 C246 1.342 . S
N249 N248 1.358 1_545 S
N249 H269 0.867 . S
C250 C245 1.501 . S
C250 H251 0.961 . S
C250 H252 0.961 . S
C250 H253 0.960 . S
H251 C250 0.961 . S
H252 C250 0.961 . S
H253 C250 0.960 . S
C254 N255 1.342 . S
C254 C258 1.401 . S
C254 C259 1.499 . S
N255 Co238 1.989 1_554 S
N255 C254 1.342 . S
N255 N256 1.388 . S
N256 Co239 1.993 . S
N256 N255 1.388 . S
N256 C257 1.346 . S
C257 N256 1.346 . S
C257 C258 1.396 . S
C257 C267 1.510 . S
C258 C254 1.401 . S
C258 C257 1.396 . S
C259 C254 1.499 . S
C259 H260 0.959 1_554 S
C259 H261 0.960 . S
C259 H262 0.961 . S
H260 C259 0.959 1_556 S
H261 C259 0.960 . S
H262 C259 0.961 . S
O263 Co238 1.967 . S
O263 C271 1.258 . S
O264 Co239 1.941 . S
O264 C271 1.266 1_554 S
H265 C267 0.959 . S
H266 C267 0.961 . S
C267 C257 1.510 . S
C267 H265 0.959 . S
C267 H266 0.961 . S
C267 H268 0.960 . S
H268 C267 0.960 . S
H269 N249 0.867 . S
O270 Co238 1.920 . S
O270 C243 1.289 . S
C271 O263 1.258 . S
C271 O264 1.266 1_556 S
C272 C273 1.369 . S
C272 C274 1.419 . S
C272 H276 0.930 . S
C273 C272 1.369 . S
C273 C282 1.429 . S
C274 C272 1.419 . S
C274 C275 1.363 . S
C274 H277 0.929 . S
C275 C274 1.363 . S
C275 C281 1.428 . S
H276 C272 0.930 . S
H277 C274 0.929 . S
S278 N279 1.613 . S
S278 N280 1.610 . S
N279 S278 1.613 . S
N279 C282 1.350 . S
N280 S278 1.610 . S
N280 C281 1.351 . S
C281 C275 1.428 . S
C281 N280 1.351 . S
C281 C282 1.434 . S
C282 C273 1.429 . S
C282 N279 1.350 . S
C282 C281 1.434 . S
C283 C284 1.369 . S
C283 C285 1.419 . S
C283 H287 0.930 . S
C284 C283 1.369 . S
C284 C293 1.429 . S
C285 C283 1.419 . S
C285 C286 1.363 . S
C285 H288 0.929 . S
C286 C285 1.363 . S
C286 C292 1.428 . S
H287 C283 0.930 . S
H288 C285 0.929 . S
S289 N290 1.613 . S
S289 N291 1.610 . S
N290 S289 1.613 . S
N290 C293 1.350 . S
N291 S289 1.610 . S
N291 C292 1.351 . S
C292 C286 1.428 . S
C292 N291 1.351 . S
C292 C293 1.434 . S
C293 C284 1.429 . S
C293 N290 1.350 . S
C293 C292 1.434 . S
C294 C295 1.369 . S
C294 C296 1.419 . S
C294 H298 0.930 . S
C295 C294 1.369 . S
C295 C304 1.429 . S
C296 C294 1.419 . S
C296 C297 1.363 . S
C296 H299 0.929 . S
C297 C296 1.363 . S
C297 C303 1.428 . S
H298 C294 0.930 . S
H299 C296 0.929 . S
S300 N301 1.613 . S
S300 N302 1.610 . S
N301 S300 1.613 . S
N301 C304 1.350 . S
N302 S300 1.610 . S
N302 C303 1.351 . S
C303 C297 1.428 . S
C303 N302 1.351 . S
C303 C304 1.434 . S
C304 C295 1.429 . S
C304 N301 1.350 . S
C304 C303 1.434 . S
C305 C306 1.369 1_554 S
C305 C307 1.419 . S
C305 H309 0.930 . S
C306 C305 1.369 1_556 S
C306 C315 1.429 . S
C307 C305 1.419 . S
C307 C308 1.363 . S
C307 H310 0.929 . S
C308 C307 1.363 . S
C308 C314 1.428 1_554 S
H309 C305 0.930 . S
H310 C307 0.929 . S
S311 N312 1.613 . S
S311 N313 1.610 . S
N312 S311 1.613 . S
N312 C315 1.350 . S
N313 S311 1.610 . S
N313 C314 1.351 . S
C314 C308 1.428 1_556 S
C314 N313 1.351 . S
C314 C315 1.434 . S
C315 C306 1.429 . S
C315 N312 1.350 . S
C315 C314 1.434 . S
C316 C317 1.369 . S
C316 C318 1.419 . S
C316 H320 0.930 . S
C317 C316 1.369 . S
C317 C326 1.429 . S
C318 C316 1.419 . S
C318 C319 1.363 . S
C318 H321 0.929 . S
C319 C318 1.363 . S
C319 C325 1.428 . S
H320 C316 0.930 . S
H321 C318 0.929 . S
S322 N323 1.613 . S
S322 N324 1.610 . S
N323 S322 1.613 . S
N323 C326 1.350 . S
N324 S322 1.610 . S
N324 C325 1.351 . S
C325 C319 1.428 . S
C325 N324 1.351 . S
C325 C326 1.434 . S
C326 C317 1.429 . S
C326 N323 1.350 . S
C326 C325 1.434 . S
C327 C328 1.369 . S
C327 C329 1.419 . S
C327 H331 0.930 . S
C328 C327 1.369 . S
C328 C337 1.429 . S
C329 C327 1.419 . S
C329 C330 1.363 . S
C329 H332 0.929 . S
C330 C329 1.363 . S
C330 C336 1.428 . S
H331 C327 0.930 . S
H332 C329 0.929 . S
S333 N334 1.613 . S
S333 N335 1.610 . S
N334 S333 1.613 . S
N334 C337 1.350 . S
N335 S333 1.610 . S
N335 C336 1.351 . S
C336 C330 1.428 . S
C336 N335 1.351 . S
C336 C337 1.434 . S
C337 C328 1.429 . S
C337 N334 1.350 . S
C337 C336 1.434 . S
C338 C339 1.369 . S
C338 C340 1.419 . S
C338 H342 0.930 . S
C339 C338 1.369 . S
C339 C348 1.429 . S
C340 C338 1.419 . S
C340 C341 1.363 . S
C340 H343 0.929 . S
C341 C340 1.363 . S
C341 C347 1.428 . S
H342 C338 0.930 . S
H343 C340 0.929 . S
S344 N345 1.613 . S
S344 N346 1.610 . S
N345 S344 1.613 . S
N345 C348 1.350 . S
N346 S344 1.610 . S
N346 C347 1.351 . S
C347 C341 1.428 . S
C347 N346 1.351 . S
C347 C348 1.434 . S
C348 C339 1.429 . S
C348 N345 1.350 . S
C348 C347 1.434 . S
C349 C350 1.369 . S
C349 C351 1.419 . S
C349 H353 0.930 . S
C350 C349 1.369 . S
C350 C359 1.429 . S
C351 C349 1.419 . S
C351 C352 1.363 . S
C351 H354 0.929 . S
C352 C351 1.363 . S
C352 C358 1.428 . S
H353 C349 0.930 . S
H354 C351 0.929 . S
S355 N356 1.613 . S
S355 N357 1.610 . S
N356 S355 1.613 . S
N356 C359 1.350 . S
N357 S355 1.610 . S
N357 C358 1.351 . S
C358 C352 1.428 . S
C358 N357 1.351 . S
C358 C359 1.434 . S
C359 C350 1.429 . S
C359 N356 1.350 . S
C359 C358 1.434 . S
C360 C361 1.369 1_655 S
C360 C362 1.419 1_554 S
C360 H364 0.930 . S
C361 C360 1.369 1_455 S
C361 C370 1.429 . S
C362 C360 1.419 1_556 S
C362 C363 1.363 . S
C362 H365 0.929 . S
C363 C362 1.363 . S
C363 C369 1.428 1_655 S
H364 C360 0.930 . S
H365 C362 0.929 . S
S366 N367 1.613 1_556 S
S366 N368 1.610 . S
N367 S366 1.613 1_554 S
N367 C370 1.350 . S
N368 S366 1.610 . S
N368 C369 1.351 . S
C369 C363 1.428 1_455 S
C369 N368 1.351 . S
C369 C370 1.434 1_556 S
C370 C361 1.429 . S
C370 N367 1.350 . S
C370 C369 1.434 1_554 S
C371 C372 1.369 1_545 S
C371 C373 1.419 . S
C371 H375 0.930 . S
C372 C371 1.369 1_565 S
C372 C381 1.429 . S
C373 C371 1.419 . S
C373 C374 1.363 . S
C373 H376 0.929 . S
C374 C373 1.363 . S
C374 C380 1.428 1_545 S
H375 C371 0.930 . S
H376 C373 0.929 . S
S377 N378 1.613 . S
S377 N379 1.610 . S
N378 S377 1.613 . S
N378 C381 1.350 . S
N379 S377 1.610 . S
N379 C380 1.351 . S
C380 C374 1.428 1_565 S
C380 N379 1.351 . S
C380 C381 1.434 . S
C381 C372 1.429 . S
C381 N378 1.350 . S
C381 C380 1.434 . S
C382 C383 1.369 . S
C382 C384 1.419 . S
C382 H386 0.930 . S
C383 C382 1.369 . S
C383 C392 1.429 1_655 S
C384 C382 1.419 . S
C384 C385 1.363 1_655 S
C384 H387 0.929 . S
C385 C384 1.363 1_455 S
C385 C391 1.428 . S
H386 C382 0.930 . S
H387 C384 0.929 . S
S388 N389 1.613 . S
S388 N390 1.610 . S
N389 S388 1.613 . S
N389 C392 1.350 . S
N390 S388 1.610 . S
N390 C391 1.351 . S
C391 C385 1.428 . S
C391 N390 1.351 . S
C391 C392 1.434 . S
C392 C383 1.429 1_455 S
C392 N389 1.350 . S
C392 C391 1.434 . S
C393 C394 1.369 . S
C393 C395 1.419 . S
C393 H397 0.930 . S
C394 C393 1.369 . S
C394 C403 1.429 1_545 S
C395 C393 1.419 . S
C395 C396 1.363 1_545 S
C395 H398 0.929 . S
C396 C395 1.363 1_565 S
C396 C402 1.428 . S
H397 C393 0.930 . S
H398 C395 0.929 . S
S399 N400 1.613 . S
S399 N401 1.610 . S
N400 S399 1.613 . S
N400 C403 1.350 . S
N401 S399 1.610 . S
N401 C402 1.351 . S
C402 C396 1.428 . S
C402 N401 1.351 . S
C402 C403 1.434 . S
C403 C394 1.429 1_565 S
C403 N400 1.350 . S
C403 C402 1.434 . S
C404 C405 1.369 . S
C404 C406 1.419 . S
C404 H408 0.930 . S
C405 C404 1.369 . S
C405 C414 1.429 . S
C406 C404 1.419 . S
C406 C407 1.363 . S
C406 H409 0.929 . S
C407 C406 1.363 . S
C407 C413 1.428 . S
H408 C404 0.930 . S
H409 C406 0.929 . S
S410 N411 1.613 . S
S410 N412 1.610 . S
N411 S410 1.613 . S
N411 C414 1.350 . S
N412 S410 1.610 . S
N412 C413 1.351 . S
C413 C407 1.428 . S
C413 N412 1.351 . S
C413 C414 1.434 . S
C414 C405 1.429 . S
C414 N411 1.350 . S
C414 C413 1.434 . S
C415 C416 1.369 . S
C415 C417 1.419 . S
C415 H419 0.930 . S
C416 C415 1.369 . S
C416 C425 1.429 . S
C417 C415 1.419 . S
C417 C418 1.363 . S
C417 H420 0.929 . S
C418 C417 1.363 . S
C418 C424 1.428 . S
H419 C415 0.930 . S
H420 C417 0.929 . S
S421 N422 1.613 . S
S421 N423 1.610 . S
N422 S421 1.613 . S
N422 C425 1.350 . S
N423 S421 1.610 . S
N423 C424 1.351 . S
C424 C418 1.428 . S
C424 N423 1.351 . S
C424 C425 1.434 . S
C425 C416 1.429 . S
C425 N422 1.350 . S
C425 C424 1.434 . S
C426 C427 1.369 . S
C426 C428 1.419 . S
C426 H430 0.930 . S
C427 C426 1.369 . S
C427 C436 1.429 . S
C428 C426 1.419 . S
C428 C429 1.363 . S
C428 H431 0.929 . S
C429 C428 1.363 . S
C429 C435 1.428 . S
H430 C426 0.930 . S
H431 C428 0.929 . S
S432 N433 1.613 . S
S432 N434 1.610 1_545 S
N433 S432 1.613 . S
N433 C436 1.350 1_545 S
N434 S432 1.610 1_565 S
N434 C435 1.351 . S
C435 C429 1.428 . S
C435 N434 1.351 . S
C435 C436 1.434 . S
C436 C427 1.429 . S
C436 N433 1.350 1_565 S
C436 C435 1.434 . S
C437 C438 1.369 . S
C437 C439 1.419 . S
C437 H441 0.930 . S
C438 C437 1.369 . S
C438 C447 1.429 . S
C439 C437 1.419 . S
C439 C440 1.363 . S
C439 H442 0.929 . S
C440 C439 1.363 . S
C440 C446 1.428 . S
H441 C437 0.930 . S
H442 C439 0.929 . S
S443 N444 1.613 . S
S443 N445 1.610 . S
N444 S443 1.613 . S
N444 C447 1.350 . S
N445 S443 1.610 . S
N445 C446 1.351 . S
C446 C440 1.428 . S
C446 N445 1.351 . S
C446 C447 1.434 . S
C447 C438 1.429 . S
C447 N444 1.350 . S
C447 C446 1.434 . S
C448 C449 1.369 . S
C448 C450 1.419 . S
C448 H452 0.930 . S
C449 C448 1.369 . S
C449 C458 1.429 . S
C450 C448 1.419 . S
C450 C451 1.363 . S
C450 H453 0.929 . S
C451 C450 1.363 . S
C451 C457 1.428 . S
H452 C448 0.930 . S
H453 C450 0.929 . S
S454 N455 1.613 . S
S454 N456 1.610 . S
N455 S454 1.613 . S
N455 C458 1.350 . S
N456 S454 1.610 . S
N456 C457 1.351 . S
C457 C451 1.428 . S
C457 N456 1.351 . S
C457 C458 1.434 . S
C458 C449 1.429 . S
C458 N455 1.350 . S
C458 C457 1.434 . S
C459 C460 1.369 . S
C459 C461 1.419 . S
C459 H463 0.930 . S
C460 C459 1.369 . S
C460 C469 1.429 . S
C461 C459 1.419 . S
C461 C462 1.363 . S
C461 H464 0.929 . S
C462 C461 1.363 . S
C462 C468 1.428 . S
H463 C459 0.930 . S
H464 C461 0.929 . S
S465 N466 1.613 1_655 S
S465 N467 1.610 . S
N466 S465 1.613 1_455 S
N466 C469 1.350 . S
N467 S465 1.610 . S
N467 C468 1.351 1_655 S
C468 C462 1.428 . S
C468 N467 1.351 1_455 S
C468 C469 1.434 . S
C469 C460 1.429 . S
C469 N466 1.350 . S
C469 C468 1.434 . S
C470 C471 1.369 . S
C470 C472 1.419 . S
C470 H474 0.930 . S
C471 C470 1.369 . S
C471 C480 1.429 . S
C472 C470 1.419 . S
C472 C473 1.363 . S
C472 H475 0.929 . S
C473 C472 1.363 . S
C473 C479 1.428 . S
H474 C470 0.930 . S
H475 C472 0.929 . S
S476 N477 1.613 . S
S476 N478 1.610 . S
N477 S476 1.613 . S
N477 C480 1.350 . S
N478 S476 1.610 . S
N478 C479 1.351 . S
C479 C473 1.428 . S
C479 N478 1.351 . S
C479 C480 1.434 . S
C480 C471 1.429 . S
C480 N477 1.350 . S
C480 C479 1.434 . S
C481 C482 1.369 . S
C481 C483 1.419 . S
C481 H485 0.930 . S
C482 C481 1.369 . S
C482 C491 1.429 . S
C483 C481 1.419 . S
C483 C484 1.363 . S
C483 H486 0.929 . S
C484 C483 1.363 . S
C484 C490 1.428 . S
H485 C481 0.930 . S
H486 C483 0.929 . S
S487 N488 1.613 . S
S487 N489 1.610 . S
N488 S487 1.613 . S
N488 C491 1.350 . S
N489 S487 1.610 . S
N489 C490 1.351 . S
C490 C484 1.428 . S
C490 N489 1.351 . S
C490 C491 1.434 . S
C491 C482 1.429 . S
C491 N488 1.350 . S
C491 C490 1.434 . S
C273 C138 1.146 . S
C275 C2 1.147 . S
C284 C36 1.147 . S
C286 C172 1.145 . S
C295 C70 1.147 . S
C297 C206 1.146 . S
C306 C104 1.147 . S
C308 C240 1.145 . S
C317 C175 0.830 . S
C319 C5 0.836 . S
C328 C39 0.830 . S
C330 C209 0.836 . S
C339 C243 0.831 . S
C341 C73 0.837 . S
C350 C107 0.837 . S
C352 C141 0.832 . S
C361 C9 0.888 . S
C363 C213 0.880 . S
C372 C247 0.882 . S
C374 C43 0.873 . S
C383 C77 0.871 . S
C385 C145 0.881 . S
C394 C179 0.878 . S
C396 C111 0.885 . S
C405 C20 2.358 . S
C407 C135 2.366 1_545 S
C416 C33 2.366 1_655 S
C418 C54 2.360 . S
C427 C67 2.365 1_565 S
C429 C88 2.360 . S
C438 C101 2.366 1_455 S
C440 C122 2.360 . S
C449 C156 2.359 . S
C451 C203 2.367 1_565 S
C460 C190 2.360 . S
C462 C237 2.365 1_455 S
C471 C224 2.359 . S
C473 C271 2.366 1_545 S
C482 C169 2.366 1_655 S
C484 C258 2.360 . S
