# Generated by pormake.
# Topology upc, (4)-cn, num edge types: 1
# Building blocks:
#     Node 0, Type 0, BuildingBlock: GALJAG_clean_sbu_0, # of connection points: 4
#     Node 1, Type 0, BuildingBlock: GALJAG_clean_sbu_0, # of connection points: 4
#     Node 2, Type 0, BuildingBlock: GALJAG_clean_sbu_0, # of connection points: 4
#     Node 3, Type 0, BuildingBlock: GALJAG_clean_sbu_0, # of connection points: 4
#     Node 4, Type 0, BuildingBlock: GALJAG_clean_sbu_0, # of connection points: 4
#     Node 5, Type 0, BuildingBlock: GALJAG_clean_sbu_0, # of connection points: 4
#     Node 6, Type 0, BuildingBlock: GALJAG_clean_sbu_0, # of connection points: 4
#     Node 7, Type 0, BuildingBlock: GALJAG_clean_sbu_0, # of connection points: 4
#     Node 8, Type 0, BuildingBlock: GALJAG_clean_sbu_0, # of connection points: 4
#     Node 9, Type 0, BuildingBlock: GALJAG_clean_sbu_0, # of connection points: 4
#     Node 10, Type 0, BuildingBlock: GALJAG_clean_sbu_0, # of connection points: 4
#     Node 11, Type 0, BuildingBlock: GALJAG_clean_sbu_0, # of connection points: 4
#     Node 12, Type 0, BuildingBlock: GALJAG_clean_sbu_0, # of connection points: 4
#     Node 13, Type 0, BuildingBlock: GALJAG_clean_sbu_0, # of connection points: 4
#     Node 14, Type 0, BuildingBlock: GALJAG_clean_sbu_0, # of connection points: 4
#     Node 15, Type 0, BuildingBlock: GALJAG_clean_sbu_0, # of connection points: 4
#     Edge 16, Type (0, 0), BuildingBlock: UVAHIK_clean_linker_0, # of connection points: 2
#     Edge 17, Type (0, 0), BuildingBlock: UVAHIK_clean_linker_0, # of connection points: 2
#     Edge 18, Type (0, 0), BuildingBlock: UVAHIK_clean_linker_0, # of connection points: 2
#     Edge 19, Type (0, 0), BuildingBlock: UVAHIK_clean_linker_0, # of connection points: 2
#     Edge 20, Type (0, 0), BuildingBlock: UVAHIK_clean_linker_0, # of connection points: 2
#     Edge 21, Type (0, 0), BuildingBlock: UVAHIK_clean_linker_0, # of connection points: 2
#     Edge 22, Type (0, 0), BuildingBlock: UVAHIK_clean_linker_0, # of connection points: 2
#     Edge 23, Type (0, 0), BuildingBlock: UVAHIK_clean_linker_0, # of connection points: 2
#     Edge 24, Type (0, 0), BuildingBlock: UVAHIK_clean_linker_0, # of connection points: 2
#     Edge 25, Type (0, 0), BuildingBlock: UVAHIK_clean_linker_0, # of connection points: 2
#     Edge 26, Type (0, 0), BuildingBlock: UVAHIK_clean_linker_0, # of connection points: 2
#     Edge 27, Type (0, 0), BuildingBlock: UVAHIK_clean_linker_0, # of connection points: 2
#     Edge 28, Type (0, 0), BuildingBlock: UVAHIK_clean_linker_0, # of connection points: 2
#     Edge 29, Type (0, 0), BuildingBlock: UVAHIK_clean_linker_0, # of connection points: 2
#     Edge 30, Type (0, 0), BuildingBlock: UVAHIK_clean_linker_0, # of connection points: 2
#     Edge 31, Type (0, 0), BuildingBlock: UVAHIK_clean_linker_0, # of connection points: 2
#     Edge 32, Type (0, 0), BuildingBlock: UVAHIK_clean_linker_0, # of connection points: 2
#     Edge 33, Type (0, 0), BuildingBlock: UVAHIK_clean_linker_0, # of connection points: 2
#     Edge 34, Type (0, 0), BuildingBlock: UVAHIK_clean_linker_0, # of connection points: 2
#     Edge 35, Type (0, 0), BuildingBlock: UVAHIK_clean_linker_0, # of connection points: 2
#     Edge 36, Type (0, 0), BuildingBlock: UVAHIK_clean_linker_0, # of connection points: 2
#     Edge 37, Type (0, 0), BuildingBlock: UVAHIK_clean_linker_0, # of connection points: 2
#     Edge 38, Type (0, 0), BuildingBlock: UVAHIK_clean_linker_0, # of connection points: 2
#     Edge 39, Type (0, 0), BuildingBlock: UVAHIK_clean_linker_0, # of connection points: 2
#     Edge 40, Type (0, 0), BuildingBlock: UVAHIK_clean_linker_0, # of connection points: 2
#     Edge 41, Type (0, 0), BuildingBlock: UVAHIK_clean_linker_0, # of connection points: 2
#     Edge 42, Type (0, 0), BuildingBlock: UVAHIK_clean_linker_0, # of connection points: 2
#     Edge 43, Type (0, 0), BuildingBlock: UVAHIK_clean_linker_0, # of connection points: 2
#     Edge 44, Type (0, 0), BuildingBlock: UVAHIK_clean_linker_0, # of connection points: 2
#     Edge 45, Type (0, 0), BuildingBlock: UVAHIK_clean_linker_0, # of connection points: 2
#     Edge 46, Type (0, 0), BuildingBlock: UVAHIK_clean_linker_0, # of connection points: 2
#     Edge 47, Type (0, 0), BuildingBlock: UVAHIK_clean_linker_0, # of connection points: 2
# Relax obj value: 0.220
# Max RMSD: 0.228
# Mean RMSD: 0.228
data_MOF--net-upc--node1-GALJAG_clean_sbu_0--edge1-UVAHIK_clean_linker_0
_symmetry_space_group_name_H-M    P1
_symmetry_Int_Tables_number       1
_symmetry_cell_setting            triclinic
loop_
_symmetry_equiv_pos_as_xyz
'x, y, z'
_cell_length_a     46.006434
_cell_length_b     45.984757
_cell_length_c     51.693085
_cell_angle_alpha  89.986686
_cell_angle_beta   90.056258
_cell_angle_gamma 90.034708
loop_
_atom_site_label
_atom_site_type_symbol
_atom_site_fract_x
_atom_site_fract_y
_atom_site_fract_z
_atom_type_partial_charge
In0 In 0.08853 0.60342 0.13285 0.0
O1 O 0.11088 0.56613 0.15506 0.0
O2 O 0.06548 0.56357 0.14791 0.0
C3 C 0.13916 0.63301 0.13247 0.0
C4 C 0.06951 0.58651 0.08599 0.0
C5 C 0.0545 0.64296 0.15675 0.0
O6 O 0.12762 0.62379 0.15304 0.0
O7 O 0.12596 0.62595 0.112 0.0
O8 O 0.05811 0.61758 0.16533 0.0
O9 O 0.06744 0.64822 0.13578 0.0
C10 C 0.08764 0.55175 0.1576 0.0
O11 O 0.05525 0.60349 0.10034 0.0
O12 O 0.09397 0.57903 0.09484 0.0
In13 In 0.89737 0.09601 0.13028 0.0
O14 O 0.89931 0.06286 0.09802 0.0
O15 O 0.92391 0.1018 0.09343 0.0
C16 C 0.85914 0.06469 0.15844 0.0
C17 C 0.94859 0.09054 0.15508 0.0
C18 C 0.86611 0.14541 0.12467 0.0
O19 O 0.85923 0.06425 0.13405 0.0
O20 O 0.87828 0.08074 0.16845 0.0
O21 O 0.8829 0.14121 0.14361 0.0
O22 O 0.86618 0.12536 0.10807 0.0
C23 C 0.91689 0.07726 0.08433 0.0
O24 O 0.93762 0.11524 0.15051 0.0
O25 O 0.93371 0.06927 0.14721 0.0
In26 In 0.39467 0.89796 0.14087 0.0
O27 O 0.39154 0.92295 0.17899 0.0
O28 O 0.38438 0.94636 0.14423 0.0
C29 C 0.3443 0.86813 0.13591 0.0
C30 C 0.42271 0.91799 0.09879 0.0
C31 C 0.43042 0.85757 0.16132 0.0
O32 O 0.35175 0.88041 0.15669 0.0
O33 O 0.36151 0.87217 0.11729 0.0
O34 O 0.41249 0.85198 0.14353 0.0
O35 O 0.43093 0.88384 0.16841 0.0
C36 C 0.38656 0.94722 0.16851 0.0
O37 O 0.43575 0.90615 0.1175 0.0
O38 O 0.3954 0.91897 0.10097 0.0
In39 In 0.60204 0.40102 0.1394 0.0
O40 O 0.56757 0.37912 0.16536 0.0
O41 O 0.55956 0.42168 0.15115 0.0
C42 C 0.63163 0.35042 0.13704 0.0
C43 C 0.58528 0.42082 0.09285 0.0
C44 C 0.64109 0.4362 0.16273 0.0
O45 O 0.62519 0.36262 0.15812 0.0
O46 O 0.62171 0.36287 0.11716 0.0
O47 O 0.6464 0.42287 0.14197 0.0
O48 O 0.61578 0.43244 0.17143 0.0
C49 C 0.55044 0.40055 0.16432 0.0
O50 O 0.60291 0.43447 0.10713 0.0
O51 O 0.5772 0.39645 0.10156 0.0
In52 In 0.0941 0.89678 0.36267 0.0
O53 O 0.06065 0.89471 0.39482 0.0
O54 O 0.09781 0.92147 0.40076 0.0
C55 C 0.05975 0.85772 0.33831 0.0
C56 C 0.09446 0.94802 0.33706 0.0
C57 C 0.14499 0.86767 0.36441 0.0
O58 O 0.06222 0.88366 0.3308 0.0
O59 O 0.07401 0.85166 0.35842 0.0
O60 O 0.13316 0.87549 0.3435 0.0
O61 O 0.13195 0.87595 0.38458 0.0
C62 C 0.07374 0.91245 0.40936 0.0
O63 O 0.11668 0.93193 0.33801 0.0
O64 O 0.07273 0.93831 0.34906 0.0
In65 In 0.59842 0.10166 0.3495 0.0
O66 O 0.58988 0.06051 0.37257 0.0
O67 O 0.5757 0.10079 0.38856 0.0
C68 C 0.63433 0.06404 0.32531 0.0
C69 C 0.54969 0.11334 0.32206 0.0
C70 C 0.63123 0.14963 0.35813 0.0
O71 O 0.60836 0.0679 0.31832 0.0
O72 O 0.6419 0.07856 0.34487 0.0
O73 O 0.61765 0.14539 0.3373 0.0
O74 O 0.62701 0.13049 0.37515 0.0
C75 C 0.57705 0.07345 0.39083 0.0
O76 O 0.54943 0.10798 0.34595 0.0
O77 O 0.57471 0.11422 0.31215 0.0
In78 In 0.39198 0.5964 0.35113 0.0
O79 O 0.38023 0.54851 0.34528 0.0
O80 O 0.38666 0.57447 0.31186 0.0
C81 C 0.34286 0.62729 0.35944 0.0
C82 C 0.42165 0.57379 0.39128 0.0
C83 C 0.42781 0.6364 0.33018 0.0
O84 O 0.34836 0.61502 0.3382 0.0
O85 O 0.36137 0.62265 0.37697 0.0
O86 O 0.40997 0.64231 0.34793 0.0
O87 O 0.42815 0.61005 0.32337 0.0
C88 C 0.38143 0.54956 0.32094 0.0
O89 O 0.43377 0.58773 0.37327 0.0
O90 O 0.39434 0.57196 0.38948 0.0
In91 In 0.90142 0.39735 0.36117 0.0
O92 O 0.93744 0.37584 0.33674 0.0
O93 O 0.94163 0.42037 0.3469 0.0
C94 C 0.87299 0.34604 0.36245 0.0
C95 C 0.91816 0.41752 0.40765 0.0
C96 C 0.86127 0.43131 0.33789 0.0
O97 O 0.88058 0.3582 0.34164 0.0
O98 O 0.8812 0.35896 0.38273 0.0
O99 O 0.85617 0.41735 0.35837 0.0
O100 O 0.88678 0.42863 0.32939 0.0
C101 C 0.95244 0.39882 0.33541 0.0
O102 O 0.89991 0.43052 0.39357 0.0
O103 O 0.92699 0.3935 0.39882 0.0
In104 In 0.8965 0.39573 0.85128 0.0
O105 O 0.93628 0.40341 0.87642 0.0
O106 O 0.89569 0.41988 0.88971 0.0
C107 C 0.9338 0.35688 0.83057 0.0
C108 C 0.88808 0.44328 0.8214 0.0
C109 C 0.84665 0.36553 0.8584 0.0
O110 O 0.93379 0.38335 0.82417 0.0
O111 O 0.91557 0.35029 0.84779 0.0
O112 O 0.8527 0.37823 0.83748 0.0
O113 O 0.86498 0.36938 0.87621 0.0
C114 C 0.92273 0.41755 0.89352 0.0
O115 O 0.8914 0.4446 0.84555 0.0
O116 O 0.88779 0.41783 0.81232 0.0
In117 In 0.10465 0.89617 0.85227 0.0
O118 O 0.0973 0.93688 0.87643 0.0
O119 O 0.07852 0.89749 0.8898 0.0
C120 C 0.14739 0.93064 0.8341 0.0
C121 C 0.05894 0.88909 0.81996 0.0
C122 C 0.13302 0.84528 0.85877 0.0
O123 O 0.12112 0.93401 0.82769 0.0
O124 O 0.15189 0.91041 0.8501 0.0
O125 O 0.12172 0.8527 0.83754 0.0
O126 O 0.12884 0.86292 0.87708 0.0
C127 C 0.08181 0.92445 0.8932 0.0
O128 O 0.05764 0.88295 0.8437 0.0
O129 O 0.08354 0.8977 0.81243 0.0
In130 In 0.59439 0.09868 0.85866 0.0
O131 O 0.55979 0.09862 0.88996 0.0
O132 O 0.59824 0.07413 0.8968 0.0
C133 C 0.56198 0.13934 0.83436 0.0
C134 C 0.59344 0.04722 0.8336 0.0
C135 C 0.6454 0.1275 0.86056 0.0
O136 O 0.57417 0.14388 0.85584 0.0
O137 O 0.5655 0.11409 0.82544 0.0
O138 O 0.63435 0.11858 0.83965 0.0
O139 O 0.63151 0.12045 0.88065 0.0
C140 C 0.5734 0.08156 0.90476 0.0
O141 O 0.61685 0.06113 0.8369 0.0
O142 O 0.57117 0.05944 0.84263 0.0
In143 In 0.3996 0.59188 0.85626 0.0
O144 O 0.43528 0.61614 0.83355 0.0
O145 O 0.44055 0.57105 0.84119 0.0
C146 C 0.36853 0.64153 0.85893 0.0
C147 C 0.41756 0.57121 0.90219 0.0
C148 C 0.36133 0.5571 0.83145 0.0
O149 O 0.37734 0.63096 0.83783 0.0
O150 O 0.37675 0.62791 0.87883 0.0
O151 O 0.3558 0.56887 0.85291 0.0
O152 O 0.38639 0.5623 0.82278 0.0
C153 C 0.45096 0.59374 0.83117 0.0
O154 O 0.39987 0.55767 0.88792 0.0
O155 O 0.42514 0.59587 0.89381 0.0
In156 In 0.89455 0.09936 0.64348 0.0
O157 O 0.93438 0.09021 0.61879 0.0
O158 O 0.89403 0.07279 0.60616 0.0
C159 C 0.93192 0.13962 0.66166 0.0
C160 C 0.88593 0.05404 0.67589 0.0
C161 C 0.84526 0.13054 0.63714 0.0
O162 O 0.93309 0.11327 0.66843 0.0
O163 O 0.91245 0.1454 0.64524 0.0
O164 O 0.85206 0.11873 0.65831 0.0
O165 O 0.86257 0.12538 0.61881 0.0
C166 C 0.92102 0.07504 0.60233 0.0
O167 O 0.88079 0.05247 0.65197 0.0
O168 O 0.89411 0.07876 0.68352 0.0
In169 In 0.40115 0.90533 0.63459 0.0
O170 O 0.40083 0.93945 0.60289 0.0
O171 O 0.42345 0.89992 0.59559 0.0
C172 C 0.36498 0.94134 0.66038 0.0
C173 C 0.45376 0.90267 0.65768 0.0
C174 C 0.36873 0.8564 0.6335 0.0
O175 O 0.35829 0.92973 0.6391 0.0
O176 O 0.39017 0.93538 0.66835 0.0
O177 O 0.3781 0.86741 0.65424 0.0
O178 O 0.37703 0.86917 0.61321 0.0
C179 C 0.41645 0.92491 0.58756 0.0
O180 O 0.43711 0.88083 0.65682 0.0
O181 O 0.44379 0.92517 0.64702 0.0
In182 In 0.59814 0.40128 0.63194 0.0
O183 O 0.56443 0.39947 0.59991 0.0
O184 O 0.60266 0.42437 0.59316 0.0
C185 C 0.56515 0.36136 0.65658 0.0
C186 C 0.59643 0.45356 0.65561 0.0
C187 C 0.64919 0.37252 0.63169 0.0
O188 O 0.57781 0.35621 0.63547 0.0
O189 O 0.56848 0.38686 0.66499 0.0
O190 O 0.63746 0.38158 0.65221 0.0
O191 O 0.63603 0.37949 0.61117 0.0
C192 C 0.57821 0.41608 0.58484 0.0
O193 O 0.61985 0.43939 0.6536 0.0
O194 O 0.57453 0.44126 0.64592 0.0
In195 In 0.10046 0.60618 0.63772 0.0
O196 O 0.07579 0.60814 0.67606 0.0
O197 O 0.05172 0.61423 0.64149 0.0
C198 C 0.1285 0.65756 0.63281 0.0
C199 C 0.08154 0.57774 0.59542 0.0
C200 C 0.14179 0.57156 0.65818 0.0
O201 O 0.11627 0.64979 0.65351 0.0
O202 O 0.12521 0.64014 0.6142 0.0
O203 O 0.14715 0.59068 0.64136 0.0
O204 O 0.11533 0.56935 0.66434 0.0
C205 C 0.05122 0.61197 0.66576 0.0
O206 O 0.09501 0.56524 0.61353 0.0
O207 O 0.07845 0.60484 0.59822 0.0
C208 C 0.17353 0.66582 0.15593 0.0
C209 C 0.16373 0.65372 0.13255 0.0
C210 C 0.19372 0.68854 0.15587 0.0
C211 C 0.2213 0.74701 0.11325 0.0
H212 H 0.27954 0.75565 0.16696 0.0
C213 C 0.31294 0.83359 0.111 0.0
C214 C 0.31986 0.84734 0.13448 0.0
C215 C 0.29278 0.81085 0.11035 0.0
C216 C 0.26316 0.75368 0.15199 0.0
H217 H 0.1684 0.65488 0.09085 0.0
H218 H 0.20429 0.69396 0.09074 0.0
H219 H 0.24876 0.7125 0.16634 0.0
H220 H 0.31023 0.84888 0.17552 0.0
H221 H 0.27498 0.80919 0.17436 0.0
H222 H 0.2361 0.7881 0.09875 0.0
C223 C 0.19584 0.68645 0.10911 0.0
C224 C 0.24553 0.72894 0.15161 0.0
C225 C 0.1755 0.66385 0.10917 0.0
C226 C 0.30534 0.83871 0.15712 0.0
C227 C 0.28536 0.81583 0.15651 0.0
C228 C 0.2391 0.77166 0.11353 0.0
C229 C 0.20469 0.69954 0.13243 0.0
C230 C 0.22428 0.72533 0.13229 0.0
C231 C 0.27932 0.80126 0.13321 0.0
C232 C 0.26011 0.77532 0.13298 0.0
H233 H 0.16472 0.65859 0.17426 0.0
H234 H 0.19978 0.69824 0.17418 0.0
H235 H 0.20482 0.74526 0.09837 0.0
H236 H 0.32384 0.83973 0.09325 0.0
H237 H 0.28865 0.79996 0.09213 0.0
C238 C 0.82781 0.17393 0.10157 0.0
C239 C 0.8453 0.16983 0.12356 0.0
C240 C 0.80537 0.1944 0.10175 0.0
C241 C 0.77562 0.25734 0.13864 0.0
H242 H 0.70303 0.23397 0.10649 0.0
C243 C 0.66847 0.31798 0.15765 0.0
C244 C 0.6526 0.32615 0.13559 0.0
C245 C 0.69144 0.29827 0.15567 0.0
C246 C 0.72322 0.24085 0.1154 0.0
H247 H 0.85367 0.18458 0.16267 0.0
H248 H 0.81422 0.21983 0.16326 0.0
H249 H 0.74543 0.20236 0.10336 0.0
H250 H 0.64741 0.31908 0.09438 0.0
H251 H 0.6873 0.28412 0.09102 0.0
H252 H 0.75304 0.29552 0.15118 0.0
C253 C 0.81804 0.20767 0.14566 0.0
C254 C 0.7476 0.22285 0.11349 0.0
C255 C 0.84065 0.18738 0.14538 0.0
C256 C 0.65923 0.31313 0.11172 0.0
C257 C 0.68204 0.29314 0.1098 0.0
C258 C 0.75116 0.27517 0.14076 0.0
C259 C 0.79973 0.21104 0.12403 0.0
C260 C 0.77412 0.23082 0.12516 0.0
C261 C 0.69882 0.28609 0.13165 0.0
C262 C 0.72468 0.26705 0.12926 0.0
H263 H 0.83098 0.16079 0.08441 0.0
H264 H 0.79216 0.19685 0.08454 0.0
H265 H 0.79575 0.26447 0.14746 0.0
H266 H 0.66391 0.32768 0.17631 0.0
H267 H 0.70376 0.29289 0.17289 0.0
C268 C 0.17954 0.83432 0.34203 0.0
C269 C 0.16958 0.84702 0.36506 0.0
C270 C 0.1996 0.81157 0.34269 0.0
C271 C 0.22656 0.75386 0.38645 0.0
H272 H 0.28323 0.74269 0.3319 0.0
C273 C 0.3148 0.66313 0.38598 0.0
C274 C 0.3194 0.64899 0.36223 0.0
C275 C 0.29584 0.68685 0.38756 0.0
C276 C 0.26733 0.74542 0.34715 0.0
H277 H 0.17391 0.8469 0.40682 0.0
H278 H 0.20969 0.80771 0.40798 0.0
H279 H 0.25411 0.78689 0.33268 0.0
H280 H 0.3068 0.64773 0.3218 0.0
H281 H 0.27381 0.68912 0.32458 0.0
H282 H 0.24027 0.71239 0.40103 0.0
C283 C 0.20142 0.8148 0.3894 0.0
C284 C 0.25062 0.77075 0.34761 0.0
C285 C 0.18115 0.83747 0.38874 0.0
C286 C 0.30372 0.65817 0.34038 0.0
C287 C 0.28503 0.68202 0.34191 0.0
C288 C 0.24352 0.72862 0.38612 0.0
C289 C 0.2104 0.80112 0.36641 0.0
C290 C 0.22974 0.77516 0.36707 0.0
C291 C 0.28141 0.69701 0.36536 0.0
C292 C 0.26378 0.72399 0.36626 0.0
H293 H 0.17089 0.84108 0.32348 0.0
H294 H 0.20568 0.80139 0.3246 0.0
H295 H 0.2104 0.75626 0.40151 0.0
H296 H 0.32664 0.65656 0.40313 0.0
H297 H 0.29349 0.69803 0.40588 0.0
C298 C 0.84354 0.3091 0.38655 0.0
C299 C 0.85253 0.32126 0.36295 0.0
C300 C 0.82094 0.28874 0.38721 0.0
C301 C 0.77567 0.24064 0.34523 0.0
H302 H 0.71883 0.24983 0.40001 0.0
C303 C 0.66231 0.18873 0.33921 0.0
C304 C 0.65357 0.17253 0.36089 0.0
C305 C 0.68649 0.20703 0.3406 0.0
C306 C 0.73463 0.2469 0.38471 0.0
H307 H 0.84569 0.32087 0.32145 0.0
H308 H 0.80608 0.28596 0.32257 0.0
H309 H 0.76283 0.27952 0.40024 0.0
H310 H 0.66235 0.16388 0.40138 0.0
H311 H 0.70438 0.19639 0.40393 0.0
H312 H 0.74698 0.20858 0.32937 0.0
C313 C 0.81666 0.29162 0.3406 0.0
C314 C 0.75996 0.26375 0.3849 0.0
C315 C 0.83937 0.31177 0.33994 0.0
C316 C 0.66857 0.17615 0.38437 0.0
C317 C 0.6926 0.19473 0.38584 0.0
C318 C 0.75023 0.22406 0.34491 0.0
C319 C 0.80673 0.28029 0.36428 0.0
C320 C 0.78071 0.26099 0.36504 0.0
C321 C 0.70224 0.20975 0.36378 0.0
C322 C 0.72935 0.22718 0.36452 0.0
H323 H 0.85335 0.31597 0.40461 0.0
H324 H 0.81427 0.28003 0.40574 0.0
H325 H 0.79138 0.23748 0.3299 0.0
H326 H 0.6512 0.18638 0.32083 0.0
H327 H 0.69319 0.21871 0.32341 0.0
C328 C 0.80719 0.3358 0.83836 0.0
C329 C 0.82266 0.3443 0.86055 0.0
C330 C 0.78789 0.31237 0.83934 0.0
C331 C 0.74454 0.26614 0.88255 0.0
H332 H 0.75495 0.20805 0.82896 0.0
C333 C 0.68144 0.1578 0.88486 0.0
C334 C 0.67006 0.14807 0.86117 0.0
C335 C 0.70177 0.18042 0.88552 0.0
C336 C 0.75149 0.22416 0.84391 0.0
H337 H 0.82891 0.33599 0.90147 0.0
H338 H 0.79473 0.29528 0.90325 0.0
H339 H 0.78471 0.25188 0.82865 0.0
H340 H 0.67172 0.15368 0.81956 0.0
H341 H 0.70661 0.19338 0.82067 0.0
H342 H 0.71087 0.23885 0.89752 0.0
C343 C 0.7977 0.30665 0.88509 0.0
C344 C 0.76856 0.24928 0.84372 0.0
C345 C 0.81725 0.32994 0.88406 0.0
C346 C 0.68025 0.16058 0.83811 0.0
C347 C 0.70036 0.18333 0.83877 0.0
C348 C 0.72722 0.24113 0.8826 0.0
C349 C 0.78345 0.29715 0.86257 0.0
C350 C 0.76517 0.27059 0.86295 0.0
C351 C 0.71096 0.19395 0.86251 0.0
C352 C 0.73039 0.21986 0.86321 0.0
H353 H 0.81089 0.34644 0.81996 0.0
H354 H 0.77684 0.30577 0.82178 0.0
H355 H 0.74137 0.28229 0.89753 0.0
H356 H 0.67404 0.14851 0.90295 0.0
H357 H 0.70991 0.1876 0.90411 0.0
C358 C 0.33704 0.67589 0.88391 0.0
C359 C 0.34701 0.66533 0.86001 0.0
C360 C 0.31373 0.69538 0.88495 0.0
C361 C 0.24904 0.71606 0.84806 0.0
H362 H 0.24817 0.7846 0.89167 0.0
C363 C 0.1615 0.80495 0.83877 0.0
C364 C 0.15305 0.82031 0.861 0.0
C365 C 0.18374 0.78435 0.84002 0.0
C366 C 0.24781 0.76526 0.87974 0.0
H367 H 0.34118 0.66773 0.81842 0.0
H368 H 0.30055 0.70173 0.82026 0.0
H369 H 0.2911 0.75347 0.891 0.0
H370 H 0.16012 0.82504 0.90224 0.0
H371 H 0.19843 0.78843 0.90461 0.0
H372 H 0.20577 0.7275 0.83693 0.0
C373 C 0.31057 0.69474 0.83818 0.0
C374 C 0.2725 0.74754 0.87927 0.0
C375 C 0.334 0.67549 0.83714 0.0
C376 C 0.16626 0.81361 0.88477 0.0
C377 C 0.18841 0.79284 0.88606 0.0
C378 C 0.22428 0.73359 0.84869 0.0
C379 C 0.29982 0.70443 0.86211 0.0
C380 C 0.27349 0.72297 0.86318 0.0
C381 C 0.19792 0.77847 0.86358 0.0
C382 C 0.22346 0.75861 0.86431 0.0
H383 H 0.34661 0.66837 0.90186 0.0
H384 H 0.30586 0.70244 0.90366 0.0
H385 H 0.24898 0.69691 0.83586 0.0
H386 H 0.15182 0.80974 0.82014 0.0
H387 H 0.19065 0.77399 0.82225 0.0
C388 C 0.68501 0.34096 0.60856 0.0
C389 C 0.67351 0.35156 0.63189 0.0
C390 C 0.7045 0.31763 0.60863 0.0
C391 C 0.72262 0.25368 0.64741 0.0
H392 H 0.79146 0.24932 0.60443 0.0
C393 C 0.80689 0.16151 0.65729 0.0
C394 C 0.82158 0.15209 0.63501 0.0
C395 C 0.78771 0.18501 0.65609 0.0
C396 C 0.77204 0.24997 0.61623 0.0
H397 H 0.67446 0.34704 0.67365 0.0
H398 H 0.7085 0.30636 0.67374 0.0
H399 H 0.7621 0.2935 0.6043 0.0
H400 H 0.82659 0.15887 0.59376 0.0
H401 H 0.79242 0.19936 0.59148 0.0
H402 H 0.73216 0.21012 0.65912 0.0
C403 C 0.70222 0.31588 0.6554 0.0
C404 C 0.75535 0.27537 0.61625 0.0
C405 C 0.68295 0.33934 0.65535 0.0
C406 C 0.81564 0.16571 0.61127 0.0
C407 C 0.79629 0.18911 0.61003 0.0
C408 C 0.73915 0.22822 0.64724 0.0
C409 C 0.71263 0.30434 0.63202 0.0
C410 C 0.73059 0.27755 0.63199 0.0
C411 C 0.78262 0.1995 0.63254 0.0
C412 C 0.76419 0.22608 0.63178 0.0
H413 H 0.67809 0.34992 0.59018 0.0
H414 H 0.71211 0.30914 0.5903 0.0
H415 H 0.70331 0.25453 0.65936 0.0
H416 H 0.81115 0.15155 0.6759 0.0
H417 H 0.77784 0.19254 0.67387 0.0
C418 C 0.15692 0.69701 0.65438 0.0
C419 C 0.14887 0.68237 0.63163 0.0
C420 C 0.17985 0.71695 0.65418 0.0
C421 C 0.22607 0.76238 0.61219 0.0
H422 H 0.28379 0.75078 0.66595 0.0
C423 C 0.33637 0.82184 0.60961 0.0
C424 C 0.34669 0.83301 0.63317 0.0
C425 C 0.31281 0.80261 0.60916 0.0
C426 C 0.26777 0.75458 0.65097 0.0
H427 H 0.15736 0.67833 0.59054 0.0
H428 H 0.19721 0.71344 0.59013 0.0
H429 H 0.23974 0.72138 0.66579 0.0
H430 H 0.34103 0.8322 0.6748 0.0
H431 H 0.29975 0.79911 0.67405 0.0
H432 H 0.25385 0.79583 0.59753 0.0
C433 C 0.18587 0.70943 0.60813 0.0
C434 C 0.24249 0.73773 0.65091 0.0
C435 C 0.16307 0.68931 0.60837 0.0
C436 C 0.33369 0.82379 0.65633 0.0
C437 C 0.31003 0.80474 0.65589 0.0
C438 C 0.25126 0.77941 0.61236 0.0
C439 C 0.19503 0.72282 0.63118 0.0
C440 C 0.22137 0.74145 0.63153 0.0
C441 C 0.29895 0.79431 0.63227 0.0
C442 C 0.27245 0.7757 0.63175 0.0
H443 H 0.14638 0.69213 0.67261 0.0
H444 H 0.18615 0.7273 0.67216 0.0
H445 H 0.21006 0.76586 0.59713 0.0
H446 H 0.34601 0.82851 0.59144 0.0
H447 H 0.30525 0.79454 0.59067 0.0
C448 C 0.98786 0.38008 0.30236 0.0
C449 C 0.9794 0.40155 0.32015 0.0
C450 C 0.01092 0.38531 0.28525 0.0
C451 C 0.06895 0.44014 0.26919 0.0
H452 H 0.04405 0.42559 0.19878 0.0
C453 C 0.10888 0.51327 0.1866 0.0
C454 C 0.08558 0.52398 0.17182 0.0
C455 C 0.10512 0.48871 0.20233 0.0
C456 C 0.0515 0.4297 0.21833 0.0
H457 H 0.98978 0.4442 0.33547 0.0
H458 H 0.02906 0.45356 0.30568 0.0
H459 H 0.02095 0.39962 0.23408 0.0
H460 H 0.04079 0.51642 0.16059 0.0
H461 H 0.03403 0.47452 0.1881 0.0
H462 H 0.09725 0.47253 0.25364 0.0
C463 C 0.0185 0.43253 0.30484 0.0
C464 C 0.03851 0.41445 0.23862 0.0
C465 C 0.99562 0.42732 0.3218 0.0
C466 C 0.05912 0.50882 0.17189 0.0
C467 C 0.05537 0.48444 0.18749 0.0
C468 C 0.0816 0.45575 0.24892 0.0
C469 C 0.02589 0.41205 0.28574 0.0
C470 C 0.04579 0.42085 0.26442 0.0
C471 C 0.07804 0.47444 0.20345 0.0
C472 C 0.07167 0.452 0.22341 0.0
H473 H 0.97583 0.3599 0.30081 0.0
H474 H 0.01626 0.36891 0.271 0.0
H475 H 0.07576 0.44491 0.2888 0.0
H476 H 0.1296 0.52446 0.18676 0.0
H477 H 0.12312 0.48144 0.2142 0.0
C478 C 0.98798 0.05816 0.17081 0.0
C479 C 0.97585 0.08611 0.16963 0.0
C480 C 0.01163 0.05246 0.18683 0.0
C481 C 0.04244 0.07747 0.24769 0.0
H482 H 0.09419 0.01276 0.23409 0.0
C483 C 0.06751 0.99203 0.32284 0.0
C484 C 0.09258 0.97475 0.32132 0.0
C485 C 0.0629 0.01452 0.30527 0.0
C486 C 0.08058 0.03138 0.23826 0.0
H487 H 0.97998 0.13052 0.18315 0.0
H488 H 0.02165 0.12053 0.21146 0.0
H489 H 0.0695 0.03651 0.19834 0.0
H490 H 0.13366 0.96889 0.30155 0.0
H491 H 0.12573 0.00858 0.27072 0.0
H492 H 0.05305 0.07192 0.28769 0.0
C493 C 0.01262 0.10297 0.20003 0.0
C494 C 0.0661 0.04478 0.21772 0.0
C495 C 0.98886 0.10872 0.1838 0.0
C496 C 0.11402 0.98177 0.30303 0.0
C497 C 0.1094 0.0044 0.28533 0.0
C498 C 0.05721 0.06429 0.26822 0.0
C499 C 0.02384 0.07458 0.20215 0.0
C500 C 0.04547 0.06672 0.22239 0.0
C501 C 0.0833 0.02039 0.2857 0.0
C502 C 0.07501 0.03989 0.26391 0.0
H503 H 0.97854 0.0403 0.16 0.0
H504 H 0.01924 0.03023 0.18823 0.0
H505 H 0.02687 0.09442 0.25203 0.0
H506 H 0.05067 0.98729 0.33686 0.0
H507 H 0.04236 0.02596 0.30605 0.0
C508 C 0.49785 0.09953 0.31604 0.0
C509 C 0.52298 0.11288 0.30627 0.0
C510 C 0.47486 0.09244 0.29957 0.0
C511 C 0.46468 0.0758 0.23023 0.0
H512 H 0.3879 0.05399 0.25433 0.0
C513 C 0.3929 0.00109 0.16964 0.0
C514 C 0.38819 0.97485 0.18296 0.0
C515 C 0.40114 0.02612 0.1831 0.0
C516 C 0.40913 0.06034 0.24724 0.0
H517 H 0.5425 0.13238 0.27236 0.0
H518 H 0.50164 0.12169 0.2438 0.0
H519 H 0.418 0.08636 0.2806 0.0
H520 H 0.38565 0.95485 0.22085 0.0
H521 H 0.39953 -0.00123 0.24441 0.0
H522 H 0.45583 0.04953 0.19704 0.0
C523 C 0.50016 0.11526 0.26391 0.0
C524 C 0.42653 0.07867 0.26234 0.0
C525 C 0.5235 0.12171 0.2803 0.0
C526 C 0.38925 0.97475 0.21011 0.0
C527 C 0.39704 -8e-05 0.22359 0.0
C528 C 0.44706 0.05807 0.21494 0.0
C529 C 0.47621 0.09909 0.273 0.0
C530 C 0.45511 0.08556 0.2546 0.0
C531 C 0.40428 0.02545 0.21012 0.0
C532 C 0.41962 0.04924 0.22376 0.0
H533 H 0.49683 0.09245 0.33601 0.0
H534 H 0.45712 0.07982 0.30748 0.0
H535 H 0.48657 0.08002 0.22357 0.0
H536 H 0.39221 0.00182 0.14871 0.0
H537 H 0.40654 0.04559 0.17231 0.0
C538 C 0.5024 0.42372 0.17135 0.0
C539 C 0.52242 0.40199 0.17809 0.0
C540 C 0.47746 0.4281 0.18606 0.0
C541 C 0.45468 0.42236 0.25274 0.0
H542 H 0.38411 0.45615 0.22474 0.0
C543 C 0.38469 0.49557 0.316 0.0
C544 C 0.38181 0.5232 0.30465 0.0
C545 C 0.39202 0.47148 0.30084 0.0
C546 C 0.40351 0.44646 0.23292 0.0
H547 H 0.53129 0.36659 0.20459 0.0
H548 H 0.48752 0.37452 0.23079 0.0
H549 H 0.41651 0.42865 0.19646 0.0
H550 H 0.38142 0.54679 0.26836 0.0
H551 H 0.39415 0.50497 0.24197 0.0
H552 H 0.44273 0.44164 0.28877 0.0
C553 C 0.49125 0.38816 0.21404 0.0
C554 C 0.42206 0.43073 0.21675 0.0
C555 C 0.51622 0.38357 0.19905 0.0
C556 C 0.38366 0.52579 0.27765 0.0
C557 C 0.39078 0.50171 0.2625 0.0
C558 C 0.4361 0.43801 0.26892 0.0
C559 C 0.47198 0.41097 0.20804 0.0
C560 C 0.44862 0.41988 0.22619 0.0
C561 C 0.39634 0.47458 0.27407 0.0
C562 C 0.4111 0.45152 0.25887 0.0
H563 H 0.5065 0.43811 0.15515 0.0
H564 H 0.46339 0.44613 0.18107 0.0
H565 H 0.47501 0.41445 0.26063 0.0
H566 H 0.38325 0.49291 0.33678 0.0
H567 H 0.39583 0.45077 0.31025 0.0
C568 C 0.99784 0.6026 0.66721 0.0
C569 C 0.02386 0.60884 0.68038 0.0
C570 C 0.97344 0.59298 0.68082 0.0
C571 C 0.93977 0.58384 0.74486 0.0
H572 H 0.92438 0.50503 0.7221 0.0
C573 C 0.90203 0.49496 0.81441 0.0
C574 C 0.88947 0.46933 0.8048 0.0
C575 C 0.90929 0.51764 0.79767 0.0
C576 C 0.92743 0.52723 0.72849 0.0
H577 H 0.04397 0.61263 0.71815 0.0
H578 H 0.00106 0.59639 0.74198 0.0
H579 H 0.95362 0.53685 0.69544 0.0
H580 H 0.87182 0.4484 0.77073 0.0
H581 H 0.88281 0.48868 0.74163 0.0
H582 H 0.91374 0.57428 0.77803 0.0
C583 C -0.00036 0.59872 0.72116 0.0
C584 C 0.94442 0.54546 0.71314 0.0
C585 C 0.02422 0.60787 0.70753 0.0
C586 C 0.88185 0.46781 0.77856 0.0
C587 C 0.88846 0.49083 0.76187 0.0
C588 C 0.92216 0.56579 0.76001 0.0
C589 C 0.97448 0.59 0.70783 0.0
C590 C 0.95164 0.57353 0.72163 0.0
C591 C 0.90359 0.51547 0.77096 0.0
C592 C 0.91677 0.53678 0.75257 0.0
H593 H 0.99692 0.60316 0.64628 0.0
H594 H 0.95424 0.58644 0.67015 0.0
H595 H 0.9449 0.60552 0.75169 0.0
H596 H 0.9082 0.49671 0.83458 0.0
H597 H 0.92116 0.53591 0.80558 0.0
C598 C 0.00516 0.88504 0.8134 0.0
C599 C 0.03297 0.8903 0.8032 0.0
C600 C 0.98031 0.89178 0.79897 0.0
C601 C 0.95534 0.917 0.73369 0.0
H602 H 0.90324 0.96544 0.7738 0.0
C603 C 0.89611 0.03109 0.71859 0.0
C604 C 0.88719 0.02816 0.69276 0.0
C605 C 0.90388 0.00667 0.73302 0.0
C606 C 0.91741 0.95182 0.7623 0.0
H607 H 0.05664 0.90451 0.76924 0.0
H608 H 0.01367 0.91673 0.74434 0.0
H609 H 0.93797 0.93435 0.79592 0.0
H610 H 0.8766 0.99721 0.66254 0.0
H611 H 0.88976 0.95438 0.68794 0.0
H612 H 0.93665 0.93645 0.70008 0.0
C613 C 0.01074 0.9071 0.76328 0.0
C614 C 0.93714 0.93365 0.775 0.0
C615 C 0.0355 0.9003 0.77766 0.0
C616 C 0.88365 0.00014 0.68237 0.0
C617 C 0.89137 0.97562 0.69687 0.0
C618 C 0.93581 0.93537 0.72099 0.0
C619 C 0.98285 0.90395 0.77409 0.0
C620 C 0.95732 0.91711 0.76083 0.0
C621 C 0.90279 0.97872 0.72198 0.0
C622 C 0.91761 0.95406 0.73517 0.0
H623 H 0.00256 0.87714 0.833 0.0
H624 H 0.95916 0.88864 0.80771 0.0
H625 H 0.97012 0.90403 0.72218 0.0
H626 H 0.89894 0.0524 0.72716 0.0
H627 H 0.91281 0.01004 0.75218 0.0
C628 C 0.56482 0.00445 0.81912 0.0
C629 C 0.59137 0.01946 0.81937 0.0
C630 C 0.56105 0.9801 0.80352 0.0
C631 C 0.58722 0.95156 0.74216 0.0
H632 H 0.52545 0.89656 0.75656 0.0
C633 C 0.49931 0.92805 0.67005 0.0
C634 C 0.48163 0.90328 0.67184 0.0
C635 C 0.52305 0.93158 0.68646 0.0
C636 C 0.54333 0.91103 0.7521 0.0
H637 H 0.6355 0.01969 0.80477 0.0
H638 H 0.62894 0.97671 0.77725 0.0
H639 H 0.54939 0.92136 0.79205 0.0
H640 H 0.47639 0.86146 0.69058 0.0
H641 H 0.51834 0.86745 0.71934 0.0
H642 H 0.5809 0.94151 0.70218 0.0
C643 C 0.61092 0.98407 0.78902 0.0
C644 C 0.55682 0.92562 0.77254 0.0
C645 C 0.61472 0.00861 0.80479 0.0
C646 C 0.48953 0.88093 0.68898 0.0
C647 C 0.51348 0.88444 0.70549 0.0
C648 C 0.57412 0.93654 0.72175 0.0
C649 C 0.58376 0.96997 0.78772 0.0
C650 C 0.5773 0.94767 0.76764 0.0
C651 C 0.52985 0.91036 0.70511 0.0
C652 C 0.55046 0.91781 0.72635 0.0
H653 H 0.54646 0.01216 0.83029 0.0
H654 H 0.53965 0.97032 0.80277 0.0
H655 H 0.60317 0.9681 0.7376 0.0
H656 H 0.49394 0.94555 0.65684 0.0
H657 H 0.53468 0.95203 0.68567 0.0
C658 C 0.56732 0.49649 0.66878 0.0
C659 C 0.59384 0.48148 0.6695 0.0
C660 C 0.56277 0.52065 0.68446 0.0
C661 C 0.58617 0.54762 0.74733 0.0
H662 H 0.52413 0.60214 0.73247 0.0
C663 C 0.49572 0.56789 0.8176 0.0
C664 C 0.47852 0.59304 0.81662 0.0
C665 C 0.51961 0.56479 0.80135 0.0
C666 C 0.54205 0.58778 0.73707 0.0
H667 H 0.63728 0.48125 0.68573 0.0
H668 H 0.62941 0.52391 0.71328 0.0
H669 H 0.5497 0.57882 0.69708 0.0
H670 H 0.47405 0.63569 0.79928 0.0
H671 H 0.5162 0.63036 0.77065 0.0
H672 H 0.57821 0.55624 0.78733 0.0
C673 C 0.61196 0.51666 0.70078 0.0
C674 C 0.55648 0.57405 0.71669 0.0
C675 C 0.61651 0.49231 0.68497 0.0
C676 C 0.48685 0.61596 0.80026 0.0
C677 C 0.51091 0.61285 0.78385 0.0
C678 C 0.5721 0.56175 0.76769 0.0
C679 C 0.58468 0.53058 0.70128 0.0
C680 C 0.57713 0.55217 0.72166 0.0
C681 C 0.52703 0.58681 0.78366 0.0
C682 C 0.54838 0.58027 0.76283 0.0
H683 H 0.54948 0.48882 0.6569 0.0
H684 H 0.54132 0.53031 0.68451 0.0
H685 H 0.60217 0.53118 0.75199 0.0
H686 H 0.49001 0.54992 0.83017 0.0
H687 H 0.53104 0.54422 0.80158 0.0
C688 C 0.02061 0.65819 0.19195 0.0
C689 C 0.03965 0.66568 0.17183 0.0
C690 C 0.01029 0.67949 0.2089 0.0
C691 C 0.01237 0.76017 0.22183 0.0
H692 H 0.01334 0.7343 0.29314 0.0
C693 C 0.02478 0.84349 0.30348 0.0
C694 C 0.04438 0.83545 0.32303 0.0
C695 C 0.01357 0.82258 0.28656 0.0
C696 C 0.01317 0.74201 0.27335 0.0
H697 H 0.06173 0.70131 0.15276 0.0
H698 H 0.04531 0.73808 0.18288 0.0
H699 H 0.01386 0.69872 0.25878 0.0
H700 H 0.06667 0.79925 0.34105 0.0
H701 H 0.04861 0.76316 0.311 0.0
H702 H 0.01487 0.80343 0.23639 0.0
C703 C 0.03725 0.71614 0.18535 0.0
C704 C 0.01287 0.72146 0.25347 0.0
C705 C 0.04695 0.69497 0.16807 0.0
C706 C 0.05147 0.80603 0.3262 0.0
C707 C 0.04083 0.78524 0.30898 0.0
C708 C 0.01347 0.78071 0.2417 0.0
C709 C 0.01947 0.7086 0.2065 0.0
C710 C 0.01366 0.73024 0.22739 0.0
C711 C 0.02232 0.7933 0.28846 0.0
C712 C 0.01509 0.77188 0.26774 0.0
H713 H 0.0144 0.63573 0.19506 0.0
H714 H 0.99596 0.67287 0.22443 0.0
H715 H 0.01195 0.76788 0.20205 0.0
H716 H 0.01874 0.86607 0.30082 0.0
H717 H -0.0012 0.82958 0.27149 0.0
C718 C 0.8392 0.04997 0.20127 0.0
C719 C 0.83728 0.04931 0.17418 0.0
C720 C 0.8169 0.03854 0.21642 0.0
C721 C 0.76974 0.00644 0.24545 0.0
H722 H 0.69526 0.03836 0.22491 0.0
C723 C 0.64655 0.03368 0.28672 0.0
C724 C 0.6552 0.04686 0.31 0.0
C725 C 0.66731 0.02217 0.26987 0.0
C726 C 0.71561 0.02849 0.23074 0.0
H727 H 0.81142 0.03462 0.14162 0.0
H728 H 0.7722 0.01467 0.16821 0.0
H729 H 0.73555 0.03942 0.19475 0.0
H730 H 0.69193 0.05616 0.33496 0.0
H731 H 0.7281 0.03666 0.30551 0.0
H732 H 0.75004 0.99693 0.282 0.0
C733 C 0.79092 0.02422 0.17768 0.0
C734 C 0.73879 0.02913 0.21338 0.0
C735 C 0.81336 0.03558 0.16249 0.0
C736 C 0.68465 0.04627 0.31707 0.0
C737 C 0.70538 0.03485 0.30023 0.0
C738 C 0.7465 0.00573 0.26282 0.0
C739 C 0.79213 0.02627 0.20481 0.0
C740 C 0.76641 0.01926 0.22093 0.0
C741 C 0.69707 0.0237 0.27599 0.0
C742 C 0.71952 0.01791 0.25603 0.0
H743 H 0.85747 0.0603 0.21081 0.0
H744 H 0.81836 0.04084 0.23724 0.0
H745 H 0.79067 0.99819 0.25163 0.0
H746 H 0.62393 0.03357 0.28089 0.0
H747 H 0.66018 0.01328 0.25152 0.0
C748 C 0.43753 0.68849 0.32048 0.0
C749 C 0.44445 0.65913 0.31656 0.0
C750 C 0.44952 0.70993 0.30469 0.0
C751 C 0.47935 0.75435 0.2718 0.0
H752 H 0.47957 0.7319 0.19958 0.0
C753 C 0.4676 0.84151 0.19372 0.0
C754 C 0.44682 0.83455 0.17479 0.0
C755 C 0.47956 0.81969 0.2093 0.0
C756 C 0.47959 0.73862 0.21966 0.0
H757 H 0.47124 0.62929 0.29462 0.0
H758 H 0.49315 0.6669 0.26756 0.0
H759 H 0.47743 0.69469 0.23265 0.0
H760 H 0.42362 0.79927 0.15616 0.0
H761 H 0.4432 0.76164 0.18377 0.0
H762 H 0.47831 0.79831 0.2588 0.0
C763 C 0.47767 0.67334 0.28224 0.0
C764 C 0.47887 0.71715 0.23876 0.0
C765 C 0.46527 0.65178 0.29783 0.0
C766 C 0.43958 0.8053 0.17062 0.0
C767 C 0.45112 0.78361 0.18641 0.0
C768 C 0.47938 0.77582 0.2527 0.0
C769 C 0.46911 0.7026 0.28481 0.0
C770 C 0.47726 0.72478 0.26508 0.0
C771 C 0.47057 0.79057 0.20654 0.0
C772 C 0.47802 0.76822 0.22636 0.0
H773 H 0.42153 0.69481 0.33477 0.0
H774 H 0.4419 0.73202 0.30714 0.0
H775 H 0.47918 0.76107 0.29187 0.0
H776 H 0.47382 0.86391 0.19713 0.0
H777 H 0.49497 0.82585 0.22417 0.0
C778 C 0.69314 0.44529 0.1728 0.0
C779 C 0.6638 0.4516 0.17744 0.0
C780 C 0.71461 0.45542 0.1896 0.0
C781 C 0.72169 0.47882 0.25784 0.0
H782 H 0.80296 0.47866 0.23845 0.0
C783 C 0.84561 0.46681 0.30402 0.0
C784 C 0.8384 0.44675 0.32344 0.0
C785 C 0.82401 0.47835 0.28797 0.0
C786 C 0.78045 0.47955 0.24444 0.0
H787 H 0.63397 0.47562 0.20174 0.0
H788 H 0.67159 0.49482 0.23033 0.0
H789 H 0.76617 0.48189 0.20521 0.0
H790 H 0.80302 0.42389 0.34213 0.0
H791 H 0.76573 0.44243 0.31351 0.0
H792 H 0.73597 0.47762 0.29711 0.0
C793 C 0.67805 0.48093 0.21445 0.0
C794 C 0.75919 0.48082 0.22518 0.0
C795 C 0.65647 0.47016 0.19796 0.0
C796 C 0.80916 0.43945 0.32736 0.0
C797 C 0.78768 0.45038 0.31097 0.0
C798 C 0.74295 0.4784 0.27713 0.0
C799 C 0.70731 0.47269 0.21116 0.0
C800 C 0.72953 0.47876 0.23153 0.0
C801 C 0.79486 0.46944 0.29059 0.0
C802 C 0.77262 0.47705 0.27067 0.0
H803 H 0.6994 0.43092 0.15716 0.0
H804 H 0.73665 0.44807 0.18643 0.0
H805 H 0.69919 0.47728 0.26375 0.0
H806 H 0.86804 0.47303 0.30081 0.0
H807 H 0.83039 0.49353 0.27301 0.0
C808 C 0.97144 0.15527 0.69193 0.0
C809 C 0.94939 0.16248 0.67426 0.0
C810 C 0.98443 0.17685 0.70711 0.0
C811 C 0.98494 0.25769 0.71866 0.0
H812 H 0.98772 0.23387 0.7905 0.0
C813 C 0.97161 0.3428 0.7981 0.0
C814 C 0.95112 0.33473 0.8169 0.0
C815 C 0.98431 0.32173 0.7822 0.0
C816 C 0.98706 0.24096 0.77053 0.0
H817 H 0.92504 0.19801 0.65727 0.0
H818 H 0.94652 0.23525 0.6842 0.0
H819 H 0.98578 0.19725 0.75692 0.0
H820 H 0.92932 0.29828 0.83506 0.0
H821 H 0.95023 0.2619 0.80694 0.0
H822 H 0.98297 0.30134 0.73237 0.0
C823 C 0.95458 0.21326 0.68615 0.0
C824 C 0.98645 0.21986 0.75113 0.0
C825 C 0.94196 0.19178 0.67077 0.0
C826 C 0.94501 0.30516 0.82069 0.0
C827 C 0.95732 0.2842 0.80462 0.0
C828 C 0.98489 0.27878 0.73809 0.0
C829 C 0.97528 0.20599 0.70517 0.0
C830 C 0.98381 0.22796 0.72497 0.0
C831 C 0.9764 0.29226 0.78456 0.0
C832 C 0.98438 0.27062 0.76432 0.0
H833 H 0.97783 0.13282 0.69479 0.0
H834 H 0.00077 0.17049 0.7211 0.0
H835 H 0.98395 0.26478 0.6987 0.0
H836 H 0.97697 0.36547 0.79499 0.0
H837 H -0.0006 0.32871 0.76739 0.0
C838 C 0.31396 0.95398 0.6716 0.0
C839 C 0.34378 0.95728 0.67634 0.0
C840 C 0.29363 0.96424 0.68938 0.0
C841 C 0.25191 0.98948 0.7277 0.0
H842 H 0.27557 0.97448 0.79838 0.0
C843 C 0.16568 0.97081 0.80575 0.0
C844 C 0.17133 0.94677 0.82172 0.0
C845 C 0.18799 0.98327 0.79109 0.0
C846 C 0.2685 0.9787 0.77875 0.0
H847 H 0.37583 0.97631 0.70198 0.0
H848 H 0.34032 0.99562 0.73248 0.0
H849 H 0.31186 0.97585 0.76463 0.0
H850 H 0.20488 0.91788 0.83603 0.0
H851 H 0.24326 0.93843 0.80985 0.0
H852 H 0.20825 0.98917 0.74143 0.0
C853 C 0.33252 0.98401 0.71563 0.0
C854 C 0.2895 0.98005 0.75931 0.0
C855 C 0.3529 0.97317 0.69806 0.0
C856 C 0.19989 0.93644 0.82389 0.0
C857 C 0.22203 0.9485 0.80896 0.0
C858 C 0.23085 0.98741 0.74705 0.0
C859 C 0.30264 0.97858 0.71212 0.0
C860 C 0.28135 0.9841 0.7333 0.0
C861 C 0.21627 0.97157 0.79178 0.0
C862 C 0.23877 0.98062 0.77265 0.0
H863 H 0.30632 0.94175 0.65502 0.0
H864 H 0.27098 0.95914 0.68599 0.0
H865 H 0.24484 0.99369 0.70807 0.0
H866 H 0.14385 0.9794 0.80395 0.0
H867 H 0.18282 0.00142 0.77857 0.0
C868 C 0.55565 0.19172 0.82381 0.0
C869 C 0.54798 0.16266 0.81932 0.0
C870 C 0.5465 0.21352 0.80689 0.0
C871 C 0.52211 0.22159 0.73881 0.0
H872 H 0.52426 0.30285 0.75834 0.0
C873 C 0.55788 0.30921 0.66758 0.0
C874 C 0.55072 0.33845 0.67181 0.0
C875 C 0.54815 0.28772 0.68454 0.0
C876 C 0.52283 0.28035 0.75235 0.0
H877 H 0.52277 0.13372 0.79504 0.0
H878 H 0.50522 0.17195 0.76631 0.0
H879 H 0.52183 0.26601 0.7916 0.0
H880 H 0.5259 0.36804 0.69571 0.0
H881 H 0.50739 0.33034 0.72455 0.0
H882 H 0.52187 0.23595 0.69956 0.0
C883 C 0.51944 0.17792 0.78213 0.0
C884 C 0.52203 0.25905 0.7716 0.0
C885 C 0.52924 0.15599 0.79872 0.0
C886 C 0.53197 0.34562 0.69222 0.0
C887 C 0.52161 0.324 0.70887 0.0
C888 C 0.52207 0.2429 0.71956 0.0
C889 C 0.52886 0.20686 0.78538 0.0
C890 C 0.52318 0.22935 0.76514 0.0
C891 C 0.53042 0.29486 0.70584 0.0
C892 C 0.52396 0.27256 0.72603 0.0
H893 H 0.57024 0.19742 0.83948 0.0
H894 H 0.55476 0.23527 0.80999 0.0
H895 H 0.523 0.19907 0.73281 0.0
H896 H 0.57247 0.3031 0.65206 0.0
H897 H 0.55598 0.26578 0.68163 0.0
C898 C 0.30955 0.54668 0.82112 0.0
C899 C 0.33908 0.54183 0.81608 0.0
C900 C 0.28841 0.53697 0.80381 0.0
C901 C 0.24476 0.51286 0.76651 0.0
H902 H 0.26802 0.52412 0.69521 0.0
C903 C 0.15844 0.5323 0.68834 0.0
C904 C 0.16503 0.55528 0.67144 0.0
C905 C 0.18029 0.51963 0.70344 0.0
C906 C 0.26106 0.52098 0.71501 0.0
H907 H 0.36968 0.52065 0.79047 0.0
H908 H 0.3327 0.50222 0.76086 0.0
H909 H 0.30472 0.52219 0.72862 0.0
H910 H 0.19971 0.58208 0.65607 0.0
H911 H 0.23732 0.56122 0.68296 0.0
H912 H 0.20094 0.51484 0.75317 0.0
C913 C 0.32579 0.51466 0.77753 0.0
C914 C 0.28226 0.5193 0.73428 0.0
C915 C 0.34701 0.52499 0.79459 0.0
C916 C 0.19399 0.56436 0.66891 0.0
C917 C 0.21568 0.5521 0.68425 0.0
C918 C 0.22351 0.51529 0.74731 0.0
C919 C 0.29628 0.52162 0.78128 0.0
C920 C 0.27435 0.51655 0.76047 0.0
C921 C 0.20905 0.53005 0.70223 0.0
C922 C 0.23137 0.52074 0.72145 0.0
H923 H 0.30285 0.55969 0.83754 0.0
H924 H 0.26611 0.54325 0.80737 0.0
H925 H 0.2378 0.50969 0.7863 0.0
H926 H 0.13628 0.52469 0.69044 0.0
H927 H 0.17442 0.50229 0.71661 0.0
C928 C 0.07295 0.55323 0.04794 0.0
C929 C 0.05694 0.57341 0.06248 0.0
C930 C 0.05964 0.53756 0.02805 0.0
C931 C 0.99357 0.53421 0.98679 0.0
H932 H 0.01066 0.45162 0.9854 0.0
C933 C 0.92284 0.45274 0.9303 0.0
C934 C 0.93786 0.4328 0.91469 0.0
C935 C 0.93783 0.4697 0.94832 0.0
C936 C 0.00585 0.47468 0.98542 0.0
H937 H 0.01487 0.59405 0.06689 0.0
H938 H 0.99153 0.56648 0.03247 0.0
H939 H 0.03693 0.48319 0.01523 0.0
H940 H 0.9801 0.41416 0.90628 0.0
H941 H 0.00624 0.44364 0.93792 0.0
H942 H 0.96211 0.5255 0.95725 0.0
C943 C 0.01443 0.56292 0.03616 0.0
C944 C 0.021 0.49281 0.00239 0.0
C945 C 0.02778 0.57867 0.05596 0.0
C946 C 0.96796 0.42934 0.91809 0.0
C947 C 0.98291 0.44616 0.93623 0.0
C948 C 0.97832 0.51604 0.96992 0.0
C949 C 0.03002 0.54168 0.02239 0.0
C950 C 0.01496 0.52278 0.00334 0.0
C951 C 0.96807 0.46688 0.95118 0.0
C952 C 0.98423 0.48608 0.96915 0.0
H953 H 0.09552 0.54883 0.05248 0.0
H954 H 0.0724 0.52177 0.01745 0.0
H955 H 0.98868 0.55725 0.98678 0.0
H956 H 0.89963 0.45587 0.92808 0.0
H957 H 0.92579 0.48521 0.95987 0.0
C958 C 0.07204 0.97053 0.91717 0.0
C959 C 0.06665 0.94071 0.91371 0.0
C960 C 0.05575 0.98661 0.9349 0.0
C961 C 0.98491 0.9868 0.96702 0.0
H962 H 0.02072 0.04155 0.01436 0.0
C963 C 0.92391 0.0363 0.05343 0.0
C964 C 0.93054 0.06486 0.06102 0.0
C965 C 0.9394 0.02297 0.03353 0.0
C966 C 0.01032 0.02675 0.00094 0.0
H967 H 0.04059 0.90413 0.92646 0.0
H968 H 0.01212 0.93225 0.95748 0.0
H969 H 0.05105 0.01405 0.98441 0.0
H970 H 0.95757 0.1024 0.05296 0.0
H971 H 0.98433 0.07927 0.01774 0.0
H972 H 0.94418 -0.00054 0.9834 0.0
C973 C 0.02877 0.94321 0.94633 0.0
C974 C 0.02772 0.0109 0.9839 0.0
C975 C 0.04521 0.92708 0.92875 0.0
C976 C 0.95207 0.08031 0.04756 0.0
C977 C 0.96754 0.06699 0.02755 0.0
C978 C 0.96748 0.00276 0.98392 0.0
C979 C 0.03363 0.97319 0.94932 0.0
C980 C 0.01521 0.99053 0.96699 0.0
C981 C 0.96178 0.03795 0.02069 0.0
C982 C 0.98001 0.02268 0.0013 0.0
H983 H 0.08843 0.9816 0.9058 0.0
H984 H 0.05987 0.00971 0.93674 0.0
H985 H 0.97464 0.97163 0.95383 0.0
H986 H 0.90746 0.02381 0.0635 0.0
H987 H 0.9346 0.00049 0.02897 0.0
C988 C 0.4687 0.92948 0.0753 0.0
C989 C 0.43838 0.93207 0.07731 0.0
C990 C 0.48391 0.94515 0.05653 0.0
C991 C 0.47421 0.98711 -0.0042 0.0
H992 H 0.54714 0.02281 0.01625 0.0
C993 C 0.53021 0.07329 0.93291 0.0
C994 C 0.55976 0.06837 0.92774 0.0
C995 C 0.51602 0.05754 0.95221 0.0
C996 C 0.52689 0.01283 0.01026 0.0
H997 H 0.40008 0.9525 0.06099 0.0
H998 H 0.42659 0.98025 0.02857 0.0
H999 H 0.52096 0.99209 0.0469 0.0
H1000 H 0.59804 0.04425 0.93953 0.0
H1001 H 0.57324 0.01691 0.97354 0.0
H1002 H 0.47998 0.00827 0.9593 0.0
C1003 C 0.43866 0.96579 0.04114 0.0
C1004 C 0.51196 0.99511 0.02773 0.0
C1005 C 0.42345 0.94996 0.05978 0.0
C1006 C 0.57524 0.0485 0.94312 0.0
C1007 C 0.56108 0.03289 0.96259 0.0
C1008 C 0.48902 0.00501 0.97844 0.0
C1009 C 0.46912 0.96388 0.03952 0.0
C1010 C 0.48541 0.98207 0.02071 0.0
C1011 C 0.53117 0.03674 0.96684 0.0
C1012 C 0.51545 0.01809 0.98552 0.0
H1013 H 0.48076 0.91573 0.08851 0.0
H1014 H 0.5073 0.94273 0.05549 0.0
H1015 H 0.45411 0.97702 0.9896 0.0
H1016 H 0.51773 0.08851 0.92139 0.0
H1017 H 0.49305 0.06124 0.95537 0.0
C1018 C 0.45414 0.57172 0.93788 0.0
C1019 C 0.43139 0.55754 0.92486 0.0
C1020 C 0.47035 0.55701 0.95661 0.0
C1021 C 0.49148 0.48271 0.97454 0.0
H1022 H 0.51971 0.51921 0.03732 0.0
C1023 C 0.54917 0.42003 0.05678 0.0
C1024 C 0.57189 0.43422 0.06984 0.0
C1025 C 0.53318 0.43463 0.03783 0.0
C1026 C 0.51233 0.50886 0.01968 0.0
H1027 H 0.40666 0.51749 0.92218 0.0
H1028 H 0.43468 0.49197 0.9552 0.0
H1029 H 0.48748 0.54616 0.00854 0.0
H1030 H 0.59685 0.47415 0.07232 0.0
H1031 H 0.5692 0.49949 0.03895 0.0
H1032 H 0.5163 0.44539 0.98571 0.0
C1033 C 0.44037 0.51423 0.95056 0.0
C1034 C 0.49378 0.52426 0.00326 0.0
C1035 C 0.42417 0.52892 0.93184 0.0
C1036 C 0.57936 0.4627 0.06264 0.0
C1037 C 0.56338 0.4773 0.04371 0.0
C1038 C 0.51002 0.4673 0.99096 0.0
C1039 C 0.46409 0.52787 0.96267 0.0
C1040 C 0.48314 0.51134 0.98053 0.0
C1041 C 0.53963 0.46369 0.03161 0.0
C1042 C 0.52066 0.48022 0.01369 0.0
H1043 H 0.46024 0.59375 0.93284 0.0
H1044 H 0.4886 0.56808 0.96549 0.0
H1045 H 0.48409 0.47235 0.95691 0.0
H1046 H 0.54288 0.39809 0.06199 0.0
H1047 H 0.51492 0.4236 0.02895 0.0
C1048 C 0.03158 0.91669 0.43938 0.0
C1049 C 0.06016 0.9245 0.43284 0.0
C1050 C 0.01695 0.93124 0.45915 0.0
C1051 C 0.02645 0.9791 0.51564 0.0
H1052 H 0.94947 0.00668 0.49725 0.0
C1053 C 0.96612 0.06362 0.5776 0.0
C1054 C 0.93625 0.05925 0.58157 0.0
C1055 C 0.98119 0.04691 0.55951 0.0
C1056 C 0.97076 -0.00116 0.50285 0.0
H1057 H 0.09644 0.95251 0.44274 0.0
H1058 H 0.07089 0.97786 0.47745 0.0
H1059 H 0.97626 0.9761 0.46711 0.0
H1060 H 0.89857 0.03439 0.5695 0.0
H1061 H 0.92493 0.00487 0.53816 0.0
H1062 H 0.02093 0.00171 0.55144 0.0
C1063 C 0.05981 0.9605 0.46726 0.0
C1064 C 0.9861 0.98131 0.48559 0.0
C1065 C 0.0744 0.94604 0.44737 0.0
C1066 C 0.92157 0.03833 0.56672 0.0
C1067 C 0.93668 0.02148 0.54872 0.0
C1068 C 0.01103 0.99651 0.533 0.0
C1069 C 0.03069 0.95375 0.47286 0.0
C1070 C 0.01412 0.97134 0.49177 0.0
C1071 C 0.96674 0.02536 0.54512 0.0
C1072 C 0.98305 0.0067 0.52674 0.0
H1073 H 0.02007 0.9001 0.42857 0.0
H1074 H 0.99466 0.92529 0.46335 0.0
H1075 H 0.04791 0.97151 0.52098 0.0
H1076 H 0.97798 0.07969 0.58873 0.0
H1077 H 0.00421 0.05086 0.55685 0.0
C1078 C 0.56489 0.0272 0.41372 0.0
C1079 C 0.56225 0.05755 0.41179 0.0
C1080 C 0.54869 0.01177 0.43198 0.0
C1081 C 0.48134 0.01656 0.4694 0.0
H1082 H 0.51567 0.95576 0.51144 0.0
C1083 C 0.4237 0.96699 0.55785 0.0
C1084 C 0.4285 0.93756 0.56366 0.0
C1085 C 0.4384 0.98023 0.5374 0.0
C1086 C 0.5056 0.97231 0.49952 0.0
H1087 H 0.54123 0.09569 0.42783 0.0
H1088 H 0.51295 0.06871 0.45979 0.0
H1089 H 0.54577 0.98209 0.4805 0.0
H1090 H 0.45117 0.89845 0.55184 0.0
H1091 H 0.47639 0.92142 0.51567 0.0
H1092 H 0.44116 0.00679 0.48829 0.0
C1093 C 0.52734 0.05685 0.44702 0.0
C1094 C 0.5229 0.98747 0.48191 0.0
C1095 C 0.5437 0.07229 0.42889 0.0
C1096 C 0.44716 0.92123 0.54785 0.0
C1097 C 0.46178 0.93445 0.5273 0.0
C1098 C 0.46399 0.00128 0.48688 0.0
C1099 C 0.52941 0.02641 0.44851 0.0
C1100 C 0.511 0.00993 0.46686 0.0
C1101 C 0.45811 0.96427 0.52224 0.0
C1102 C 0.47598 0.97915 0.50233 0.0
H1103 H 0.579 0.01527 0.40074 0.0
H1104 H 0.5506 0.9883 0.43262 0.0
H1105 H 0.47148 0.03344 0.4577 0.0
H1106 H 0.40949 0.98015 0.56975 0.0
H1107 H 0.43526 0.0033 0.53423 0.0
C1108 C 0.53607 0.4214 0.55487 0.0
C1109 C 0.56515 0.42771 0.56094 0.0
C1110 C 0.52222 0.43567 0.53448 0.0
C1111 C 0.52687 0.50391 0.49757 0.0
H1112 H 0.46738 0.46762 0.45528 0.0
C1113 C 0.46867 0.56261 0.41324 0.0
C1114 C 0.43844 0.55874 0.41155 0.0
C1115 C 0.48501 0.54652 0.43093 0.0
C1116 C 0.4838 0.47806 0.4671 0.0
H1117 H 0.60309 0.4526 0.54957 0.0
H1118 H 0.57908 0.47706 0.51351 0.0
H1119 H 0.49561 0.43801 0.48534 0.0
H1120 H 0.40147 0.53547 0.42732 0.0
H1121 H 0.43008 0.50733 0.45831 0.0
H1122 H 0.51504 0.54395 0.47923 0.0
C1123 C 0.56677 0.4616 0.5249 0.0
C1124 C 0.49998 0.46113 0.48429 0.0
C1125 C 0.58059 0.44742 0.5454 0.0
C1126 C 0.42474 0.53892 0.42823 0.0
C1127 C 0.44112 0.52265 0.4458 0.0
C1128 C 0.51081 0.5208 0.48026 0.0
C1129 C 0.53721 0.45644 0.51963 0.0
C1130 C 0.52151 0.4739 0.49992 0.0
C1131 C 0.47144 0.52609 0.44712 0.0
C1132 C 0.48892 0.50809 0.46506 0.0
H1133 H 0.5236 0.40635 0.56656 0.0
H1134 H 0.49937 0.43137 0.53116 0.0
H1135 H 0.5429 0.51457 0.50965 0.0
H1136 H 0.4798 0.57771 0.40056 0.0
H1137 H 0.50836 0.54948 0.43145 0.0
C1138 C 0.92413 0.46028 0.43678 0.0
C1139 C 0.93126 0.43142 0.43057 0.0
C1140 C 0.93988 0.4753 0.45557 0.0
C1141 C 0.98978 0.46739 0.51057 0.0
H1142 H 0.01781 0.54314 0.48885 0.0
C1143 C 0.07275 0.53145 0.57144 0.0
C1144 C 0.06774 0.56141 0.57417 0.0
C1145 C 0.05715 0.51527 0.55328 0.0
C1146 C 0.00991 0.5222 0.49536 0.0
H1147 H 0.95928 0.39507 0.44017 0.0
H1148 H 0.98666 0.42133 0.47333 0.0
H1149 H 0.98643 0.51514 0.46018 0.0
H1150 H 0.04312 0.59813 0.55964 0.0
H1151 H 0.01548 0.56987 0.52829 0.0
H1152 H 0.01283 0.47457 0.54593 0.0
C1153 C 0.96895 0.43231 0.46355 0.0
C1154 C 0.99194 0.50617 0.47893 0.0
C1155 C 0.95331 0.41731 0.44458 0.0
C1156 C 0.04755 0.57508 0.55785 0.0
C1157 C 0.03177 0.55887 0.53982 0.0
C1158 C 0.00758 0.48353 0.52712 0.0
C1159 C 0.96292 0.4617 0.46866 0.0
C1160 C 0.98164 0.47866 0.4864 0.0
C1161 C 0.03605 0.52868 0.53762 0.0
C1162 C 0.01783 0.51115 0.51972 0.0
H1163 H 0.90718 0.4717 0.42635 0.0
H1164 H 0.93449 0.49781 0.45946 0.0
H1165 H 0.98198 0.4463 0.51684 0.0
H1166 H 0.08831 0.52038 0.58372 0.0
H1167 H 0.06141 0.49217 0.55172 0.0
loop_
_geom_bond_atom_site_label_1
_geom_bond_atom_site_label_2
_geom_bond_distance
_geom_bond_site_symmetry_2
_ccdc_geom_bond_type
In0 O1 2.294 . S
In0 O2 2.326 . S
In0 O6 2.266 . S
In0 O7 2.326 . S
In0 O8 2.266 . S
In0 O9 2.326 . S
In0 O11 2.294 . S
In0 O12 2.326 . S
O1 In0 2.294 . S
O1 C10 1.240 . S
O2 In0 2.326 . S
O2 C10 1.252 . S
C3 O6 1.252 . S
C3 O7 1.260 . S
C4 O11 1.240 . S
C4 O12 1.252 . S
C5 O8 1.252 . S
C5 O9 1.260 . S
O6 In0 2.266 . S
O6 C3 1.252 . S
O7 In0 2.326 . S
O7 C3 1.260 . S
O8 In0 2.266 . S
O8 C5 1.252 . S
O9 In0 2.326 . S
O9 C5 1.260 . S
C10 O1 1.240 . S
C10 O2 1.252 . S
O11 In0 2.294 . S
O11 C4 1.240 . S
O12 In0 2.326 . S
O12 C4 1.252 . S
In13 O14 2.294 . S
In13 O15 2.326 . S
In13 O19 2.266 . S
In13 O20 2.326 . S
In13 O21 2.266 . S
In13 O22 2.326 . S
In13 O24 2.294 . S
In13 O25 2.326 . S
O14 In13 2.294 . S
O14 C23 1.240 . S
O15 In13 2.326 . S
O15 C23 1.252 . S
C16 O19 1.252 . S
C16 O20 1.260 . S
C17 O24 1.240 . S
C17 O25 1.252 . S
C18 O21 1.252 . S
C18 O22 1.260 . S
O19 In13 2.266 . S
O19 C16 1.252 . S
O20 In13 2.326 . S
O20 C16 1.260 . S
O21 In13 2.266 . S
O21 C18 1.252 . S
O22 In13 2.326 . S
O22 C18 1.260 . S
C23 O14 1.240 . S
C23 O15 1.252 . S
O24 In13 2.294 . S
O24 C17 1.240 . S
O25 In13 2.326 . S
O25 C17 1.252 . S
In26 O27 2.294 . S
In26 O28 2.326 . S
In26 O32 2.266 . S
In26 O33 2.326 . S
In26 O34 2.266 . S
In26 O35 2.326 . S
In26 O37 2.294 . S
In26 O38 2.326 . S
O27 In26 2.294 . S
O27 C36 1.240 . S
O28 In26 2.326 . S
O28 C36 1.252 . S
C29 O32 1.252 . S
C29 O33 1.260 . S
C30 O37 1.240 . S
C30 O38 1.252 . S
C31 O34 1.252 . S
C31 O35 1.260 . S
O32 In26 2.266 . S
O32 C29 1.252 . S
O33 In26 2.326 . S
O33 C29 1.260 . S
O34 In26 2.266 . S
O34 C31 1.252 . S
O35 In26 2.326 . S
O35 C31 1.260 . S
C36 O27 1.240 . S
C36 O28 1.252 . S
O37 In26 2.294 . S
O37 C30 1.240 . S
O38 In26 2.326 . S
O38 C30 1.252 . S
In39 O40 2.294 . S
In39 O41 2.326 . S
In39 O45 2.266 . S
In39 O46 2.326 . S
In39 O47 2.266 . S
In39 O48 2.326 . S
In39 O50 2.294 . S
In39 O51 2.326 . S
O40 In39 2.294 . S
O40 C49 1.240 . S
O41 In39 2.326 . S
O41 C49 1.252 . S
C42 O45 1.252 . S
C42 O46 1.260 . S
C43 O50 1.240 . S
C43 O51 1.252 . S
C44 O47 1.252 . S
C44 O48 1.260 . S
O45 In39 2.266 . S
O45 C42 1.252 . S
O46 In39 2.326 . S
O46 C42 1.260 . S
O47 In39 2.266 . S
O47 C44 1.252 . S
O48 In39 2.326 . S
O48 C44 1.260 . S
C49 O40 1.240 . S
C49 O41 1.252 . S
O50 In39 2.294 . S
O50 C43 1.240 . S
O51 In39 2.326 . S
O51 C43 1.252 . S
In52 O53 2.294 . S
In52 O54 2.326 . S
In52 O58 2.266 . S
In52 O59 2.326 . S
In52 O60 2.266 . S
In52 O61 2.326 . S
In52 O63 2.294 . S
In52 O64 2.326 . S
O53 In52 2.294 . S
O53 C62 1.240 . S
O54 In52 2.326 . S
O54 C62 1.252 . S
C55 O58 1.252 . S
C55 O59 1.260 . S
C56 O63 1.240 . S
C56 O64 1.252 . S
C57 O60 1.252 . S
C57 O61 1.260 . S
O58 In52 2.266 . S
O58 C55 1.252 . S
O59 In52 2.326 . S
O59 C55 1.260 . S
O60 In52 2.266 . S
O60 C57 1.252 . S
O61 In52 2.326 . S
O61 C57 1.260 . S
C62 O53 1.240 . S
C62 O54 1.252 . S
O63 In52 2.294 . S
O63 C56 1.240 . S
O64 In52 2.326 . S
O64 C56 1.252 . S
In65 O66 2.294 . S
In65 O67 2.326 . S
In65 O71 2.266 . S
In65 O72 2.326 . S
In65 O73 2.266 . S
In65 O74 2.326 . S
In65 O76 2.294 . S
In65 O77 2.326 . S
O66 In65 2.294 . S
O66 C75 1.240 . S
O67 In65 2.326 . S
O67 C75 1.252 . S
C68 O71 1.252 . S
C68 O72 1.260 . S
C69 O76 1.240 . S
C69 O77 1.252 . S
C70 O73 1.252 . S
C70 O74 1.260 . S
O71 In65 2.266 . S
O71 C68 1.252 . S
O72 In65 2.326 . S
O72 C68 1.260 . S
O73 In65 2.266 . S
O73 C70 1.252 . S
O74 In65 2.326 . S
O74 C70 1.260 . S
C75 O66 1.240 . S
C75 O67 1.252 . S
O76 In65 2.294 . S
O76 C69 1.240 . S
O77 In65 2.326 . S
O77 C69 1.252 . S
In78 O79 2.294 . S
In78 O80 2.326 . S
In78 O84 2.266 . S
In78 O85 2.326 . S
In78 O86 2.266 . S
In78 O87 2.326 . S
In78 O89 2.294 . S
In78 O90 2.326 . S
O79 In78 2.294 . S
O79 C88 1.240 . S
O80 In78 2.326 . S
O80 C88 1.252 . S
C81 O84 1.252 . S
C81 O85 1.260 . S
C82 O89 1.240 . S
C82 O90 1.252 . S
C83 O86 1.252 . S
C83 O87 1.260 . S
O84 In78 2.266 . S
O84 C81 1.252 . S
O85 In78 2.326 . S
O85 C81 1.260 . S
O86 In78 2.266 . S
O86 C83 1.252 . S
O87 In78 2.326 . S
O87 C83 1.260 . S
C88 O79 1.240 . S
C88 O80 1.252 . S
O89 In78 2.294 . S
O89 C82 1.240 . S
O90 In78 2.326 . S
O90 C82 1.252 . S
In91 O92 2.294 . S
In91 O93 2.326 . S
In91 O97 2.266 . S
In91 O98 2.326 . S
In91 O99 2.266 . S
In91 O100 2.326 . S
In91 O102 2.294 . S
In91 O103 2.326 . S
O92 In91 2.294 . S
O92 C101 1.240 . S
O93 In91 2.326 . S
O93 C101 1.252 . S
C94 O97 1.252 . S
C94 O98 1.260 . S
C95 O102 1.240 . S
C95 O103 1.252 . S
C96 O99 1.252 . S
C96 O100 1.260 . S
O97 In91 2.266 . S
O97 C94 1.252 . S
O98 In91 2.326 . S
O98 C94 1.260 . S
O99 In91 2.266 . S
O99 C96 1.252 . S
O100 In91 2.326 . S
O100 C96 1.260 . S
C101 O92 1.240 . S
C101 O93 1.252 . S
O102 In91 2.294 . S
O102 C95 1.240 . S
O103 In91 2.326 . S
O103 C95 1.252 . S
In104 O105 2.294 . S
In104 O106 2.326 . S
In104 O110 2.266 . S
In104 O111 2.326 . S
In104 O112 2.266 . S
In104 O113 2.326 . S
In104 O115 2.294 . S
In104 O116 2.326 . S
O105 In104 2.294 . S
O105 C114 1.240 . S
O106 In104 2.326 . S
O106 C114 1.252 . S
C107 O110 1.252 . S
C107 O111 1.260 . S
C108 O115 1.240 . S
C108 O116 1.252 . S
C109 O112 1.252 . S
C109 O113 1.260 . S
O110 In104 2.266 . S
O110 C107 1.252 . S
O111 In104 2.326 . S
O111 C107 1.260 . S
O112 In104 2.266 . S
O112 C109 1.252 . S
O113 In104 2.326 . S
O113 C109 1.260 . S
C114 O105 1.240 . S
C114 O106 1.252 . S
O115 In104 2.294 . S
O115 C108 1.240 . S
O116 In104 2.326 . S
O116 C108 1.252 . S
In117 O118 2.294 . S
In117 O119 2.326 . S
In117 O123 2.266 . S
In117 O124 2.326 . S
In117 O125 2.266 . S
In117 O126 2.326 . S
In117 O128 2.294 . S
In117 O129 2.326 . S
O118 In117 2.294 . S
O118 C127 1.240 . S
O119 In117 2.326 . S
O119 C127 1.252 . S
C120 O123 1.252 . S
C120 O124 1.260 . S
C121 O128 1.240 . S
C121 O129 1.252 . S
C122 O125 1.252 . S
C122 O126 1.260 . S
O123 In117 2.266 . S
O123 C120 1.252 . S
O124 In117 2.326 . S
O124 C120 1.260 . S
O125 In117 2.266 . S
O125 C122 1.252 . S
O126 In117 2.326 . S
O126 C122 1.260 . S
C127 O118 1.240 . S
C127 O119 1.252 . S
O128 In117 2.294 . S
O128 C121 1.240 . S
O129 In117 2.326 . S
O129 C121 1.252 . S
In130 O131 2.294 . S
In130 O132 2.326 . S
In130 O136 2.266 . S
In130 O137 2.326 . S
In130 O138 2.266 . S
In130 O139 2.326 . S
In130 O141 2.294 . S
In130 O142 2.326 . S
O131 In130 2.294 . S
O131 C140 1.240 . S
O132 In130 2.326 . S
O132 C140 1.252 . S
C133 O136 1.252 . S
C133 O137 1.260 . S
C134 O141 1.240 . S
C134 O142 1.252 . S
C135 O138 1.252 . S
C135 O139 1.260 . S
O136 In130 2.266 . S
O136 C133 1.252 . S
O137 In130 2.326 . S
O137 C133 1.260 . S
O138 In130 2.266 . S
O138 C135 1.252 . S
O139 In130 2.326 . S
O139 C135 1.260 . S
C140 O131 1.240 . S
C140 O132 1.252 . S
O141 In130 2.294 . S
O141 C134 1.240 . S
O142 In130 2.326 . S
O142 C134 1.252 . S
In143 O144 2.294 . S
In143 O145 2.326 . S
In143 O149 2.266 . S
In143 O150 2.326 . S
In143 O151 2.266 . S
In143 O152 2.326 . S
In143 O154 2.294 . S
In143 O155 2.326 . S
O144 In143 2.294 . S
O144 C153 1.240 . S
O145 In143 2.326 . S
O145 C153 1.252 . S
C146 O149 1.252 . S
C146 O150 1.260 . S
C147 O154 1.240 . S
C147 O155 1.252 . S
C148 O151 1.252 . S
C148 O152 1.260 . S
O149 In143 2.266 . S
O149 C146 1.252 . S
O150 In143 2.326 . S
O150 C146 1.260 . S
O151 In143 2.266 . S
O151 C148 1.252 . S
O152 In143 2.326 . S
O152 C148 1.260 . S
C153 O144 1.240 . S
C153 O145 1.252 . S
O154 In143 2.294 . S
O154 C147 1.240 . S
O155 In143 2.326 . S
O155 C147 1.252 . S
In156 O157 2.294 . S
In156 O158 2.326 . S
In156 O162 2.266 . S
In156 O163 2.326 . S
In156 O164 2.266 . S
In156 O165 2.326 . S
In156 O167 2.294 . S
In156 O168 2.326 . S
O157 In156 2.294 . S
O157 C166 1.240 . S
O158 In156 2.326 . S
O158 C166 1.252 . S
C159 O162 1.252 . S
C159 O163 1.260 . S
C160 O167 1.240 . S
C160 O168 1.252 . S
C161 O164 1.252 . S
C161 O165 1.260 . S
O162 In156 2.266 . S
O162 C159 1.252 . S
O163 In156 2.326 . S
O163 C159 1.260 . S
O164 In156 2.266 . S
O164 C161 1.252 . S
O165 In156 2.326 . S
O165 C161 1.260 . S
C166 O157 1.240 . S
C166 O158 1.252 . S
O167 In156 2.294 . S
O167 C160 1.240 . S
O168 In156 2.326 . S
O168 C160 1.252 . S
In169 O170 2.294 . S
In169 O171 2.326 . S
In169 O175 2.266 . S
In169 O176 2.326 . S
In169 O177 2.266 . S
In169 O178 2.326 . S
In169 O180 2.294 . S
In169 O181 2.326 . S
O170 In169 2.294 . S
O170 C179 1.240 . S
O171 In169 2.326 . S
O171 C179 1.252 . S
C172 O175 1.252 . S
C172 O176 1.260 . S
C173 O180 1.240 . S
C173 O181 1.252 . S
C174 O177 1.252 . S
C174 O178 1.260 . S
O175 In169 2.266 . S
O175 C172 1.252 . S
O176 In169 2.326 . S
O176 C172 1.260 . S
O177 In169 2.266 . S
O177 C174 1.252 . S
O178 In169 2.326 . S
O178 C174 1.260 . S
C179 O170 1.240 . S
C179 O171 1.252 . S
O180 In169 2.294 . S
O180 C173 1.240 . S
O181 In169 2.326 . S
O181 C173 1.252 . S
In182 O183 2.294 . S
In182 O184 2.326 . S
In182 O188 2.266 . S
In182 O189 2.326 . S
In182 O190 2.266 . S
In182 O191 2.326 . S
In182 O193 2.294 . S
In182 O194 2.326 . S
O183 In182 2.294 . S
O183 C192 1.240 . S
O184 In182 2.326 . S
O184 C192 1.252 . S
C185 O188 1.252 . S
C185 O189 1.260 . S
C186 O193 1.240 . S
C186 O194 1.252 . S
C187 O190 1.252 . S
C187 O191 1.260 . S
O188 In182 2.266 . S
O188 C185 1.252 . S
O189 In182 2.326 . S
O189 C185 1.260 . S
O190 In182 2.266 . S
O190 C187 1.252 . S
O191 In182 2.326 . S
O191 C187 1.260 . S
C192 O183 1.240 . S
C192 O184 1.252 . S
O193 In182 2.294 . S
O193 C186 1.240 . S
O194 In182 2.326 . S
O194 C186 1.252 . S
In195 O196 2.294 . S
In195 O197 2.326 . S
In195 O201 2.266 . S
In195 O202 2.326 . S
In195 O203 2.266 . S
In195 O204 2.326 . S
In195 O206 2.294 . S
In195 O207 2.326 . S
O196 In195 2.294 . S
O196 C205 1.240 . S
O197 In195 2.326 . S
O197 C205 1.252 . S
C198 O201 1.252 . S
C198 O202 1.260 . S
C199 O206 1.240 . S
C199 O207 1.252 . S
C200 O203 1.252 . S
C200 O204 1.260 . S
O201 In195 2.266 . S
O201 C198 1.252 . S
O202 In195 2.326 . S
O202 C198 1.260 . S
O203 In195 2.266 . S
O203 C200 1.252 . S
O204 In195 2.326 . S
O204 C200 1.260 . S
C205 O196 1.240 . S
C205 O197 1.252 . S
O206 In195 2.294 . S
O206 C199 1.240 . S
O207 In195 2.326 . S
O207 C199 1.252 . S
C208 C209 1.349 . S
C208 C210 1.327 . S
C208 H233 0.950 . S
C209 C208 1.349 . S
C209 C225 1.349 . S
C210 C208 1.327 . S
C210 C229 1.429 . S
C210 H234 0.950 . S
C211 C228 1.574 . S
C211 C230 1.368 . S
C211 H235 0.949 . S
H212 C216 0.949 . S
C213 C214 1.349 . S
C213 C215 1.327 . S
C213 H236 0.950 . S
C214 C213 1.349 . S
C214 C226 1.349 . S
C215 C213 1.327 . S
C215 C231 1.429 . S
C215 H237 0.950 . S
C216 H212 0.949 . S
C216 C224 1.574 . S
C216 C232 1.368 . S
H217 C225 0.950 . S
H218 C223 0.950 . S
H219 C224 0.949 . S
H220 C226 0.950 . S
H221 C227 0.950 . S
H222 C228 0.949 . S
C223 H218 0.950 . S
C223 C225 1.327 . S
C223 C229 1.429 . S
C224 C216 1.574 . S
C224 H219 0.949 . S
C224 C230 1.368 . S
C225 C209 1.349 . S
C225 H217 0.950 . S
C225 C223 1.327 . S
C226 C214 1.349 . S
C226 H220 0.950 . S
C226 C227 1.327 . S
C227 H221 0.950 . S
C227 C226 1.327 . S
C227 C231 1.429 . S
C228 C211 1.574 . S
C228 H222 0.949 . S
C228 C232 1.368 . S
C229 C210 1.429 . S
C229 C223 1.429 . S
C229 C230 1.523 . S
C230 C211 1.368 . S
C230 C224 1.368 . S
C230 C229 1.523 . S
C231 C215 1.429 . S
C231 C227 1.429 . S
C231 C232 1.523 . S
C232 C216 1.368 . S
C232 C228 1.368 . S
C232 C231 1.523 . S
H233 C208 0.950 . S
H234 C210 0.950 . S
H235 C211 0.949 . S
H236 C213 0.950 . S
H237 C215 0.950 . S
C238 C239 1.349 . S
C238 C240 1.327 . S
C238 H263 0.950 . S
C239 C238 1.349 . S
C239 C255 1.349 . S
C240 C238 1.327 . S
C240 C259 1.429 . S
C240 H264 0.950 . S
C241 C258 1.574 . S
C241 C260 1.368 . S
C241 H265 0.949 . S
H242 C246 0.949 . S
C243 C244 1.349 . S
C243 C245 1.327 . S
C243 H266 0.950 . S
C244 C243 1.349 . S
C244 C256 1.349 . S
C245 C243 1.327 . S
C245 C261 1.429 . S
C245 H267 0.950 . S
C246 H242 0.949 . S
C246 C254 1.574 . S
C246 C262 1.368 . S
H247 C255 0.950 . S
H248 C253 0.950 . S
H249 C254 0.949 . S
H250 C256 0.950 . S
H251 C257 0.950 . S
H252 C258 0.949 . S
C253 H248 0.950 . S
C253 C255 1.327 . S
C253 C259 1.429 . S
C254 C246 1.574 . S
C254 H249 0.949 . S
C254 C260 1.368 . S
C255 C239 1.349 . S
C255 H247 0.950 . S
C255 C253 1.327 . S
C256 C244 1.349 . S
C256 H250 0.950 . S
C256 C257 1.327 . S
C257 H251 0.950 . S
C257 C256 1.327 . S
C257 C261 1.429 . S
C258 C241 1.574 . S
C258 H252 0.949 . S
C258 C262 1.368 . S
C259 C240 1.429 . S
C259 C253 1.429 . S
C259 C260 1.523 . S
C260 C241 1.368 . S
C260 C254 1.368 . S
C260 C259 1.523 . S
C261 C245 1.429 . S
C261 C257 1.429 . S
C261 C262 1.523 . S
C262 C246 1.368 . S
C262 C258 1.368 . S
C262 C261 1.523 . S
H263 C238 0.950 . S
H264 C240 0.950 . S
H265 C241 0.949 . S
H266 C243 0.950 . S
H267 C245 0.950 . S
C268 C269 1.349 . S
C268 C270 1.327 . S
C268 H293 0.950 . S
C269 C268 1.349 . S
C269 C285 1.349 . S
C270 C268 1.327 . S
C270 C289 1.429 . S
C270 H294 0.950 . S
C271 C288 1.574 . S
C271 C290 1.368 . S
C271 H295 0.949 . S
H272 C276 0.949 . S
C273 C274 1.349 . S
C273 C275 1.327 . S
C273 H296 0.950 . S
C274 C273 1.349 . S
C274 C286 1.349 . S
C275 C273 1.327 . S
C275 C291 1.429 . S
C275 H297 0.950 . S
C276 H272 0.949 . S
C276 C284 1.574 . S
C276 C292 1.368 . S
H277 C285 0.950 . S
H278 C283 0.950 . S
H279 C284 0.949 . S
H280 C286 0.950 . S
H281 C287 0.950 . S
H282 C288 0.949 . S
C283 H278 0.950 . S
C283 C285 1.327 . S
C283 C289 1.429 . S
C284 C276 1.574 . S
C284 H279 0.949 . S
C284 C290 1.368 . S
C285 C269 1.349 . S
C285 H277 0.950 . S
C285 C283 1.327 . S
C286 C274 1.349 . S
C286 H280 0.950 . S
C286 C287 1.327 . S
C287 H281 0.950 . S
C287 C286 1.327 . S
C287 C291 1.429 . S
C288 C271 1.574 . S
C288 H282 0.949 . S
C288 C292 1.368 . S
C289 C270 1.429 . S
C289 C283 1.429 . S
C289 C290 1.523 . S
C290 C271 1.368 . S
C290 C284 1.368 . S
C290 C289 1.523 . S
C291 C275 1.429 . S
C291 C287 1.429 . S
C291 C292 1.523 . S
C292 C276 1.368 . S
C292 C288 1.368 . S
C292 C291 1.523 . S
H293 C268 0.950 . S
H294 C270 0.950 . S
H295 C271 0.949 . S
H296 C273 0.950 . S
H297 C275 0.950 . S
C298 C299 1.349 . S
C298 C300 1.327 . S
C298 H323 0.950 . S
C299 C298 1.349 . S
C299 C315 1.349 . S
C300 C298 1.327 . S
C300 C319 1.429 . S
C300 H324 0.950 . S
C301 C318 1.574 . S
C301 C320 1.368 . S
C301 H325 0.949 . S
H302 C306 0.949 . S
C303 C304 1.349 . S
C303 C305 1.327 . S
C303 H326 0.950 . S
C304 C303 1.349 . S
C304 C316 1.349 . S
C305 C303 1.327 . S
C305 C321 1.429 . S
C305 H327 0.950 . S
C306 H302 0.949 . S
C306 C314 1.574 . S
C306 C322 1.368 . S
H307 C315 0.950 . S
H308 C313 0.950 . S
H309 C314 0.949 . S
H310 C316 0.950 . S
H311 C317 0.950 . S
H312 C318 0.949 . S
C313 H308 0.950 . S
C313 C315 1.327 . S
C313 C319 1.429 . S
C314 C306 1.574 . S
C314 H309 0.949 . S
C314 C320 1.368 . S
C315 C299 1.349 . S
C315 H307 0.950 . S
C315 C313 1.327 . S
C316 C304 1.349 . S
C316 H310 0.950 . S
C316 C317 1.327 . S
C317 H311 0.950 . S
C317 C316 1.327 . S
C317 C321 1.429 . S
C318 C301 1.574 . S
C318 H312 0.949 . S
C318 C322 1.368 . S
C319 C300 1.429 . S
C319 C313 1.429 . S
C319 C320 1.523 . S
C320 C301 1.368 . S
C320 C314 1.368 . S
C320 C319 1.523 . S
C321 C305 1.429 . S
C321 C317 1.429 . S
C321 C322 1.523 . S
C322 C306 1.368 . S
C322 C318 1.368 . S
C322 C321 1.523 . S
H323 C298 0.950 . S
H324 C300 0.950 . S
H325 C301 0.949 . S
H326 C303 0.950 . S
H327 C305 0.950 . S
C328 C329 1.349 . S
C328 C330 1.327 . S
C328 H353 0.950 . S
C329 C328 1.349 . S
C329 C345 1.349 . S
C330 C328 1.327 . S
C330 C349 1.429 . S
C330 H354 0.950 . S
C331 C348 1.574 . S
C331 C350 1.368 . S
C331 H355 0.949 . S
H332 C336 0.949 . S
C333 C334 1.349 . S
C333 C335 1.327 . S
C333 H356 0.950 . S
C334 C333 1.349 . S
C334 C346 1.349 . S
C335 C333 1.327 . S
C335 C351 1.429 . S
C335 H357 0.950 . S
C336 H332 0.949 . S
C336 C344 1.574 . S
C336 C352 1.368 . S
H337 C345 0.950 . S
H338 C343 0.950 . S
H339 C344 0.949 . S
H340 C346 0.950 . S
H341 C347 0.950 . S
H342 C348 0.949 . S
C343 H338 0.950 . S
C343 C345 1.327 . S
C343 C349 1.429 . S
C344 C336 1.574 . S
C344 H339 0.949 . S
C344 C350 1.368 . S
C345 C329 1.349 . S
C345 H337 0.950 . S
C345 C343 1.327 . S
C346 C334 1.349 . S
C346 H340 0.950 . S
C346 C347 1.327 . S
C347 H341 0.950 . S
C347 C346 1.327 . S
C347 C351 1.429 . S
C348 C331 1.574 . S
C348 H342 0.949 . S
C348 C352 1.368 . S
C349 C330 1.429 . S
C349 C343 1.429 . S
C349 C350 1.523 . S
C350 C331 1.368 . S
C350 C344 1.368 . S
C350 C349 1.523 . S
C351 C335 1.429 . S
C351 C347 1.429 . S
C351 C352 1.523 . S
C352 C336 1.368 . S
C352 C348 1.368 . S
C352 C351 1.523 . S
H353 C328 0.950 . S
H354 C330 0.950 . S
H355 C331 0.949 . S
H356 C333 0.950 . S
H357 C335 0.950 . S
C358 C359 1.349 . S
C358 C360 1.327 . S
C358 H383 0.950 . S
C359 C358 1.349 . S
C359 C375 1.349 . S
C360 C358 1.327 . S
C360 C379 1.429 . S
C360 H384 0.950 . S
C361 C378 1.574 . S
C361 C380 1.368 . S
C361 H385 0.949 . S
H362 C366 0.949 . S
C363 C364 1.349 . S
C363 C365 1.327 . S
C363 H386 0.950 . S
C364 C363 1.349 . S
C364 C376 1.349 . S
C365 C363 1.327 . S
C365 C381 1.429 . S
C365 H387 0.950 . S
C366 H362 0.949 . S
C366 C374 1.574 . S
C366 C382 1.368 . S
H367 C375 0.950 . S
H368 C373 0.950 . S
H369 C374 0.949 . S
H370 C376 0.950 . S
H371 C377 0.950 . S
H372 C378 0.949 . S
C373 H368 0.950 . S
C373 C375 1.327 . S
C373 C379 1.429 . S
C374 C366 1.574 . S
C374 H369 0.949 . S
C374 C380 1.368 . S
C375 C359 1.349 . S
C375 H367 0.950 . S
C375 C373 1.327 . S
C376 C364 1.349 . S
C376 H370 0.950 . S
C376 C377 1.327 . S
C377 H371 0.950 . S
C377 C376 1.327 . S
C377 C381 1.429 . S
C378 C361 1.574 . S
C378 H372 0.949 . S
C378 C382 1.368 . S
C379 C360 1.429 . S
C379 C373 1.429 . S
C379 C380 1.523 . S
C380 C361 1.368 . S
C380 C374 1.368 . S
C380 C379 1.523 . S
C381 C365 1.429 . S
C381 C377 1.429 . S
C381 C382 1.523 . S
C382 C366 1.368 . S
C382 C378 1.368 . S
C382 C381 1.523 . S
H383 C358 0.950 . S
H384 C360 0.950 . S
H385 C361 0.949 . S
H386 C363 0.950 . S
H387 C365 0.950 . S
C388 C389 1.349 . S
C388 C390 1.327 . S
C388 H413 0.950 . S
C389 C388 1.349 . S
C389 C405 1.349 . S
C390 C388 1.327 . S
C390 C409 1.429 . S
C390 H414 0.950 . S
C391 C408 1.574 . S
C391 C410 1.368 . S
C391 H415 0.949 . S
H392 C396 0.949 . S
C393 C394 1.349 . S
C393 C395 1.327 . S
C393 H416 0.950 . S
C394 C393 1.349 . S
C394 C406 1.349 . S
C395 C393 1.327 . S
C395 C411 1.429 . S
C395 H417 0.950 . S
C396 H392 0.949 . S
C396 C404 1.574 . S
C396 C412 1.368 . S
H397 C405 0.950 . S
H398 C403 0.950 . S
H399 C404 0.949 . S
H400 C406 0.950 . S
H401 C407 0.950 . S
H402 C408 0.949 . S
C403 H398 0.950 . S
C403 C405 1.327 . S
C403 C409 1.429 . S
C404 C396 1.574 . S
C404 H399 0.949 . S
C404 C410 1.368 . S
C405 C389 1.349 . S
C405 H397 0.950 . S
C405 C403 1.327 . S
C406 C394 1.349 . S
C406 H400 0.950 . S
C406 C407 1.327 . S
C407 H401 0.950 . S
C407 C406 1.327 . S
C407 C411 1.429 . S
C408 C391 1.574 . S
C408 H402 0.949 . S
C408 C412 1.368 . S
C409 C390 1.429 . S
C409 C403 1.429 . S
C409 C410 1.523 . S
C410 C391 1.368 . S
C410 C404 1.368 . S
C410 C409 1.523 . S
C411 C395 1.429 . S
C411 C407 1.429 . S
C411 C412 1.523 . S
C412 C396 1.368 . S
C412 C408 1.368 . S
C412 C411 1.523 . S
H413 C388 0.950 . S
H414 C390 0.950 . S
H415 C391 0.949 . S
H416 C393 0.950 . S
H417 C395 0.950 . S
C418 C419 1.349 . S
C418 C420 1.327 . S
C418 H443 0.950 . S
C419 C418 1.349 . S
C419 C435 1.349 . S
C420 C418 1.327 . S
C420 C439 1.429 . S
C420 H444 0.950 . S
C421 C438 1.574 . S
C421 C440 1.368 . S
C421 H445 0.949 . S
H422 C426 0.949 . S
C423 C424 1.349 . S
C423 C425 1.327 . S
C423 H446 0.950 . S
C424 C423 1.349 . S
C424 C436 1.349 . S
C425 C423 1.327 . S
C425 C441 1.429 . S
C425 H447 0.950 . S
C426 H422 0.949 . S
C426 C434 1.574 . S
C426 C442 1.368 . S
H427 C435 0.950 . S
H428 C433 0.950 . S
H429 C434 0.949 . S
H430 C436 0.950 . S
H431 C437 0.950 . S
H432 C438 0.949 . S
C433 H428 0.950 . S
C433 C435 1.327 . S
C433 C439 1.429 . S
C434 C426 1.574 . S
C434 H429 0.949 . S
C434 C440 1.368 . S
C435 C419 1.349 . S
C435 H427 0.950 . S
C435 C433 1.327 . S
C436 C424 1.349 . S
C436 H430 0.950 . S
C436 C437 1.327 . S
C437 H431 0.950 . S
C437 C436 1.327 . S
C437 C441 1.429 . S
C438 C421 1.574 . S
C438 H432 0.949 . S
C438 C442 1.368 . S
C439 C420 1.429 . S
C439 C433 1.429 . S
C439 C440 1.523 . S
C440 C421 1.368 . S
C440 C434 1.368 . S
C440 C439 1.523 . S
C441 C425 1.429 . S
C441 C437 1.429 . S
C441 C442 1.523 . S
C442 C426 1.368 . S
C442 C438 1.368 . S
C442 C441 1.523 . S
H443 C418 0.950 . S
H444 C420 0.950 . S
H445 C421 0.949 . S
H446 C423 0.950 . S
H447 C425 0.950 . S
C448 C449 1.349 . S
C448 C450 1.327 . S
C448 H473 0.950 . S
C449 C448 1.349 . S
C449 C465 1.349 . S
C450 C448 1.327 . S
C450 C469 1.429 . S
C450 H474 0.950 . S
C451 C468 1.574 . S
C451 C470 1.368 1_455 S
C451 H475 0.949 . S
H452 C456 0.949 . S
C453 C454 1.349 . S
C453 C455 1.327 . S
C453 H476 0.950 . S
C454 C453 1.349 . S
C454 C466 1.349 . S
C455 C453 1.327 . S
C455 C471 1.429 . S
C455 H477 0.950 . S
C456 H452 0.949 . S
C456 C464 1.574 . S
C456 C472 1.368 1_655 S
H457 C465 0.950 . S
H458 C463 0.950 . S
H459 C464 0.949 . S
H460 C466 0.950 . S
H461 C467 0.950 . S
H462 C468 0.949 . S
C463 H458 0.950 . S
C463 C465 1.327 . S
C463 C469 1.429 . S
C464 C456 1.574 . S
C464 H459 0.949 . S
C464 C470 1.368 . S
C465 C449 1.349 . S
C465 H457 0.950 . S
C465 C463 1.327 . S
C466 C454 1.349 . S
C466 H460 0.950 . S
C466 C467 1.327 . S
C467 H461 0.950 . S
C467 C466 1.327 . S
C467 C471 1.429 . S
C468 C451 1.574 . S
C468 H462 0.949 . S
C468 C472 1.368 . S
C469 C450 1.429 . S
C469 C463 1.429 . S
C469 C470 1.523 . S
C470 C451 1.368 1_655 S
C470 C464 1.368 . S
C470 C469 1.523 . S
C471 C455 1.429 . S
C471 C467 1.429 . S
C471 C472 1.523 . S
C472 C456 1.368 1_455 S
C472 C468 1.368 . S
C472 C471 1.523 . S
H473 C448 0.950 . S
H474 C450 0.950 . S
H475 C451 0.949 . S
H476 C453 0.950 . S
H477 C455 0.950 . S
C478 C479 1.349 . S
C478 C480 1.327 . S
C478 H503 0.950 . S
C479 C478 1.349 . S
C479 C495 1.349 . S
C480 C478 1.327 . S
C480 C499 1.429 . S
C480 H504 0.950 . S
C481 C498 1.574 . S
C481 C500 1.368 . S
C481 H505 0.949 . S
H482 C486 0.949 . S
C483 C484 1.349 . S
C483 C485 1.327 . S
C483 H506 0.950 . S
C484 C483 1.349 . S
C484 C496 1.349 . S
C485 C483 1.327 . S
C485 C501 1.429 . S
C485 H507 0.950 . S
C486 H482 0.949 . S
C486 C494 1.574 . S
C486 C502 1.368 . S
H487 C495 0.950 . S
H488 C493 0.950 . S
H489 C494 0.949 . S
H490 C496 0.950 . S
H491 C497 0.950 . S
H492 C498 0.949 . S
C493 H488 0.950 . S
C493 C495 1.327 . S
C493 C499 1.429 . S
C494 C486 1.574 . S
C494 H489 0.949 . S
C494 C500 1.368 1_465 S
C495 C479 1.349 . S
C495 H487 0.950 . S
C495 C493 1.327 . S
C496 C484 1.349 . S
C496 H490 0.950 . S
C496 C497 1.327 . S
C497 H491 0.950 . S
C497 C496 1.327 . S
C497 C501 1.429 . S
C498 C481 1.574 . S
C498 H492 0.949 . S
C498 C502 1.368 1_645 S
C499 C480 1.429 . S
C499 C493 1.429 . S
C499 C500 1.523 . S
C500 C481 1.368 . S
C500 C494 1.368 1_645 S
C500 C499 1.523 . S
C501 C485 1.429 . S
C501 C497 1.429 . S
C501 C502 1.523 . S
C502 C486 1.368 . S
C502 C498 1.368 1_465 S
C502 C501 1.523 . S
H503 C478 0.950 . S
H504 C480 0.950 . S
H505 C481 0.949 . S
H506 C483 0.950 . S
H507 C485 0.950 . S
C508 C509 1.349 . S
C508 C510 1.327 . S
C508 H533 0.950 . S
C509 C508 1.349 . S
C509 C525 1.349 . S
C510 C508 1.327 . S
C510 C529 1.429 . S
C510 H534 0.950 . S
C511 C528 1.574 . S
C511 C530 1.368 1_565 S
C511 H535 0.949 . S
H512 C516 0.949 . S
C513 C514 1.349 . S
C513 C515 1.327 . S
C513 H536 0.950 . S
C514 C513 1.349 . S
C514 C526 1.349 . S
C515 C513 1.327 . S
C515 C531 1.429 . S
C515 H537 0.950 . S
C516 H512 0.949 . S
C516 C524 1.574 1_565 S
C516 C532 1.368 . S
H517 C525 0.950 . S
H518 C523 0.950 . S
H519 C524 0.949 . S
H520 C526 0.950 . S
H521 C527 0.950 . S
H522 C528 0.949 . S
C523 H518 0.950 . S
C523 C525 1.327 . S
C523 C529 1.429 . S
C524 C516 1.574 1_545 S
C524 H519 0.949 . S
C524 C530 1.368 . S
C525 C509 1.349 . S
C525 H517 0.950 . S
C525 C523 1.327 . S
C526 C514 1.349 . S
C526 H520 0.950 . S
C526 C527 1.327 . S
C527 H521 0.950 . S
C527 C526 1.327 . S
C527 C531 1.429 . S
C528 C511 1.574 . S
C528 H522 0.949 . S
C528 C532 1.368 . S
C529 C510 1.429 . S
C529 C523 1.429 . S
C529 C530 1.523 . S
C530 C511 1.368 1_545 S
C530 C524 1.368 . S
C530 C529 1.523 . S
C531 C515 1.429 . S
C531 C527 1.429 . S
C531 C532 1.523 . S
C532 C516 1.368 . S
C532 C528 1.368 . S
C532 C531 1.523 . S
H533 C508 0.950 . S
H534 C510 0.950 . S
H535 C511 0.949 . S
H536 C513 0.950 . S
H537 C515 0.950 . S
C538 C539 1.349 . S
C538 C540 1.327 . S
C538 H563 0.950 . S
C539 C538 1.349 . S
C539 C555 1.349 . S
C540 C538 1.327 . S
C540 C559 1.429 . S
C540 H564 0.950 . S
C541 C558 1.574 . S
C541 C560 1.368 . S
C541 H565 0.949 . S
H542 C546 0.949 . S
C543 C544 1.349 . S
C543 C545 1.327 . S
C543 H566 0.950 . S
C544 C543 1.349 . S
C544 C556 1.349 . S
C545 C543 1.327 . S
C545 C561 1.429 . S
C545 H567 0.950 . S
C546 H542 0.949 . S
C546 C554 1.574 . S
C546 C562 1.368 . S
H547 C555 0.950 . S
H548 C553 0.950 . S
H549 C554 0.949 . S
H550 C556 0.950 . S
H551 C557 0.950 . S
H552 C558 0.949 . S
C553 H548 0.950 . S
C553 C555 1.327 . S
C553 C559 1.429 . S
C554 C546 1.574 . S
C554 H549 0.949 . S
C554 C560 1.368 . S
C555 C539 1.349 . S
C555 H547 0.950 . S
C555 C553 1.327 . S
C556 C544 1.349 . S
C556 H550 0.950 . S
C556 C557 1.327 . S
C557 H551 0.950 . S
C557 C556 1.327 . S
C557 C561 1.429 . S
C558 C541 1.574 . S
C558 H552 0.949 . S
C558 C562 1.368 . S
C559 C540 1.429 . S
C559 C553 1.429 . S
C559 C560 1.523 . S
C560 C541 1.368 . S
C560 C554 1.368 . S
C560 C559 1.523 . S
C561 C545 1.429 . S
C561 C557 1.429 . S
C561 C562 1.523 . S
C562 C546 1.368 . S
C562 C558 1.368 . S
C562 C561 1.523 . S
H563 C538 0.950 . S
H564 C540 0.950 . S
H565 C541 0.949 . S
H566 C543 0.950 . S
H567 C545 0.950 . S
C568 C569 1.349 . S
C568 C570 1.327 . S
C568 H593 0.950 . S
C569 C568 1.349 . S
C569 C585 1.349 . S
C570 C568 1.327 . S
C570 C589 1.429 . S
C570 H594 0.950 . S
C571 C588 1.574 . S
C571 C590 1.368 1_655 S
C571 H595 0.949 . S
H572 C576 0.949 . S
C573 C574 1.349 . S
C573 C575 1.327 . S
C573 H596 0.950 . S
C574 C573 1.349 . S
C574 C586 1.349 . S
C575 C573 1.327 . S
C575 C591 1.429 . S
C575 H597 0.950 . S
C576 H572 0.949 . S
C576 C584 1.574 . S
C576 C592 1.368 1_455 S
H577 C585 0.950 . S
H578 C583 0.950 . S
H579 C584 0.949 . S
H580 C586 0.950 . S
H581 C587 0.950 . S
H582 C588 0.949 . S
C583 H578 0.950 . S
C583 C585 1.327 . S
C583 C589 1.429 . S
C584 C576 1.574 . S
C584 H579 0.949 . S
C584 C590 1.368 . S
C585 C569 1.349 . S
C585 H577 0.950 . S
C585 C583 1.327 . S
C586 C574 1.349 . S
C586 H580 0.950 . S
C586 C587 1.327 . S
C587 H581 0.950 . S
C587 C586 1.327 . S
C587 C591 1.429 . S
C588 C571 1.574 . S
C588 H582 0.949 . S
C588 C592 1.368 . S
C589 C570 1.429 . S
C589 C583 1.429 . S
C589 C590 1.523 . S
C590 C571 1.368 1_455 S
C590 C584 1.368 . S
C590 C589 1.523 . S
C591 C575 1.429 . S
C591 C587 1.429 . S
C591 C592 1.523 . S
C592 C576 1.368 1_655 S
C592 C588 1.368 . S
C592 C591 1.523 . S
H593 C568 0.950 . S
H594 C570 0.950 . S
H595 C571 0.949 . S
H596 C573 0.950 . S
H597 C575 0.950 . S
C598 C599 1.349 . S
C598 C600 1.327 . S
C598 H623 0.950 . S
C599 C598 1.349 . S
C599 C615 1.349 . S
C600 C598 1.327 . S
C600 C619 1.429 . S
C600 H624 0.950 . S
C601 C618 1.574 1_455 S
C601 C620 1.368 1_545 S
C601 H625 0.949 . S
H602 C606 0.949 . S
C603 C604 1.349 . S
C603 C605 1.327 . S
C603 H626 0.950 . S
C604 C603 1.349 . S
C604 C616 1.349 . S
C605 C603 1.327 . S
C605 C621 1.429 . S
C605 H627 0.950 . S
C606 H602 0.949 . S
C606 C614 1.574 1_655 S
C606 C622 1.368 1_565 S
H607 C615 0.950 . S
H608 C613 0.950 1_545 S
H609 C614 0.949 . S
H610 C616 0.950 . S
H611 C617 0.950 1_565 S
H612 C618 0.949 . S
C613 H608 0.950 1_565 S
C613 C615 1.327 . S
C613 C619 1.429 . S
C614 C606 1.574 1_455 S
C614 H609 0.949 . S
C614 C620 1.368 . S
C615 C599 1.349 . S
C615 H607 0.950 . S
C615 C613 1.327 . S
C616 C604 1.349 . S
C616 H610 0.950 . S
C616 C617 1.327 . S
C617 H611 0.950 1_545 S
C617 C616 1.327 . S
C617 C621 1.429 . S
C618 C601 1.574 1_655 S
C618 H612 0.949 . S
C618 C622 1.368 . S
C619 C600 1.429 . S
C619 C613 1.429 . S
C619 C620 1.523 . S
C620 C601 1.368 1_565 S
C620 C614 1.368 . S
C620 C619 1.523 . S
C621 C605 1.429 . S
C621 C617 1.429 . S
C621 C622 1.523 . S
C622 C606 1.368 1_545 S
C622 C618 1.368 . S
C622 C621 1.523 . S
H623 C598 0.950 . S
H624 C600 0.950 . S
H625 C601 0.949 . S
H626 C603 0.950 . S
H627 C605 0.950 . S
C628 C629 1.349 . S
C628 C630 1.327 . S
C628 H653 0.950 . S
C629 C628 1.349 . S
C629 C645 1.349 . S
C630 C628 1.327 . S
C630 C649 1.429 . S
C630 H654 0.950 . S
C631 C648 1.574 . S
C631 C650 1.368 . S
C631 H655 0.949 . S
H632 C636 0.949 . S
C633 C634 1.349 . S
C633 C635 1.327 . S
C633 H656 0.950 . S
C634 C633 1.349 . S
C634 C646 1.349 . S
C635 C633 1.327 . S
C635 C651 1.429 . S
C635 H657 0.950 . S
C636 H632 0.949 . S
C636 C644 1.574 . S
C636 C652 1.368 . S
H637 C645 0.950 . S
H638 C643 0.950 . S
H639 C644 0.949 . S
H640 C646 0.950 . S
H641 C647 0.950 . S
H642 C648 0.949 . S
C643 H638 0.950 . S
C643 C645 1.327 . S
C643 C649 1.429 . S
C644 C636 1.574 . S
C644 H639 0.949 . S
C644 C650 1.368 1_565 S
C645 C629 1.349 . S
C645 H637 0.950 . S
C645 C643 1.327 . S
C646 C634 1.349 . S
C646 H640 0.950 . S
C646 C647 1.327 . S
C647 H641 0.950 . S
C647 C646 1.327 . S
C647 C651 1.429 . S
C648 C631 1.574 . S
C648 H642 0.949 . S
C648 C652 1.368 1_545 S
C649 C630 1.429 . S
C649 C643 1.429 . S
C649 C650 1.523 . S
C650 C631 1.368 . S
C650 C644 1.368 1_545 S
C650 C649 1.523 . S
C651 C635 1.429 . S
C651 C647 1.429 . S
C651 C652 1.523 . S
C652 C636 1.368 . S
C652 C648 1.368 1_565 S
C652 C651 1.523 . S
H653 C628 0.950 . S
H654 C630 0.950 . S
H655 C631 0.949 . S
H656 C633 0.950 . S
H657 C635 0.950 . S
C658 C659 1.349 . S
C658 C660 1.327 . S
C658 H683 0.950 . S
C659 C658 1.349 . S
C659 C675 1.349 . S
C660 C658 1.327 . S
C660 C679 1.429 . S
C660 H684 0.950 . S
C661 C678 1.574 . S
C661 C680 1.368 . S
C661 H685 0.949 . S
H662 C666 0.949 . S
C663 C664 1.349 . S
C663 C665 1.327 . S
C663 H686 0.950 . S
C664 C663 1.349 . S
C664 C676 1.349 . S
C665 C663 1.327 . S
C665 C681 1.429 . S
C665 H687 0.950 . S
C666 H662 0.949 . S
C666 C674 1.574 . S
C666 C682 1.368 . S
H667 C675 0.950 . S
H668 C673 0.950 . S
H669 C674 0.949 . S
H670 C676 0.950 . S
H671 C677 0.950 . S
H672 C678 0.949 . S
C673 H668 0.950 . S
C673 C675 1.327 . S
C673 C679 1.429 . S
C674 C666 1.574 . S
C674 H669 0.949 . S
C674 C680 1.368 . S
C675 C659 1.349 . S
C675 H667 0.950 . S
C675 C673 1.327 . S
C676 C664 1.349 . S
C676 H670 0.950 . S
C676 C677 1.327 . S
C677 H671 0.950 . S
C677 C676 1.327 . S
C677 C681 1.429 . S
C678 C661 1.574 . S
C678 H672 0.949 . S
C678 C682 1.368 . S
C679 C660 1.429 . S
C679 C673 1.429 . S
C679 C680 1.523 . S
C680 C661 1.368 . S
C680 C674 1.368 . S
C680 C679 1.523 . S
C681 C665 1.429 . S
C681 C677 1.429 . S
C681 C682 1.523 . S
C682 C666 1.368 . S
C682 C678 1.368 . S
C682 C681 1.523 . S
H683 C658 0.950 . S
H684 C660 0.950 . S
H685 C661 0.949 . S
H686 C663 0.950 . S
H687 C665 0.950 . S
C688 C689 1.349 . S
C688 C690 1.327 . S
C688 H713 0.950 . S
C689 C688 1.349 . S
C689 C705 1.349 . S
C690 C688 1.327 . S
C690 C709 1.429 . S
C690 H714 0.950 . S
C691 C708 1.574 . S
C691 C710 1.368 . S
C691 H715 0.949 . S
H692 C696 0.949 . S
C693 C694 1.349 . S
C693 C695 1.327 . S
C693 H716 0.950 . S
C694 C693 1.349 . S
C694 C706 1.349 . S
C695 C693 1.327 . S
C695 C711 1.429 . S
C695 H717 0.950 . S
C696 H692 0.949 . S
C696 C704 1.574 . S
C696 C712 1.368 . S
H697 C705 0.950 . S
H698 C703 0.950 . S
H699 C704 0.949 . S
H700 C706 0.950 . S
H701 C707 0.950 . S
H702 C708 0.949 . S
C703 H698 0.950 . S
C703 C705 1.327 . S
C703 C709 1.429 . S
C704 C696 1.574 . S
C704 H699 0.949 . S
C704 C710 1.368 . S
C705 C689 1.349 . S
C705 H697 0.950 . S
C705 C703 1.327 . S
C706 C694 1.349 . S
C706 H700 0.950 . S
C706 C707 1.327 . S
C707 H701 0.950 . S
C707 C706 1.327 . S
C707 C711 1.429 . S
C708 C691 1.574 . S
C708 H702 0.949 . S
C708 C712 1.368 . S
C709 C690 1.429 . S
C709 C703 1.429 . S
C709 C710 1.523 . S
C710 C691 1.368 . S
C710 C704 1.368 . S
C710 C709 1.523 . S
C711 C695 1.429 . S
C711 C707 1.429 . S
C711 C712 1.523 . S
C712 C696 1.368 . S
C712 C708 1.368 . S
C712 C711 1.523 . S
H713 C688 0.950 . S
H714 C690 0.950 . S
H715 C691 0.949 . S
H716 C693 0.950 . S
H717 C695 0.950 . S
C718 C719 1.349 . S
C718 C720 1.327 . S
C718 H743 0.950 . S
C719 C718 1.349 . S
C719 C735 1.349 . S
C720 C718 1.327 . S
C720 C739 1.429 . S
C720 H744 0.950 . S
C721 C738 1.574 . S
C721 C740 1.368 . S
C721 H745 0.949 . S
H722 C726 0.949 . S
C723 C724 1.349 . S
C723 C725 1.327 . S
C723 H746 0.950 . S
C724 C723 1.349 . S
C724 C736 1.349 . S
C725 C723 1.327 . S
C725 C741 1.429 . S
C725 H747 0.950 . S
C726 H722 0.949 . S
C726 C734 1.574 . S
C726 C742 1.368 . S
H727 C735 0.950 . S
H728 C733 0.950 . S
H729 C734 0.949 . S
H730 C736 0.950 . S
H731 C737 0.950 . S
H732 C738 0.949 . S
C733 H728 0.950 . S
C733 C735 1.327 . S
C733 C739 1.429 . S
C734 C726 1.574 . S
C734 H729 0.949 . S
C734 C740 1.368 . S
C735 C719 1.349 . S
C735 H727 0.950 . S
C735 C733 1.327 . S
C736 C724 1.349 . S
C736 H730 0.950 . S
C736 C737 1.327 . S
C737 H731 0.950 . S
C737 C736 1.327 . S
C737 C741 1.429 . S
C738 C721 1.574 . S
C738 H732 0.949 . S
C738 C742 1.368 . S
C739 C720 1.429 . S
C739 C733 1.429 . S
C739 C740 1.523 . S
C740 C721 1.368 . S
C740 C734 1.368 . S
C740 C739 1.523 . S
C741 C725 1.429 . S
C741 C737 1.429 . S
C741 C742 1.523 . S
C742 C726 1.368 . S
C742 C738 1.368 . S
C742 C741 1.523 . S
H743 C718 0.950 . S
H744 C720 0.950 . S
H745 C721 0.949 . S
H746 C723 0.950 . S
H747 C725 0.950 . S
C748 C749 1.349 . S
C748 C750 1.327 . S
C748 H773 0.950 . S
C749 C748 1.349 . S
C749 C765 1.349 . S
C750 C748 1.327 . S
C750 C769 1.429 . S
C750 H774 0.950 . S
C751 C768 1.574 . S
C751 C770 1.368 . S
C751 H775 0.949 . S
H752 C756 0.949 . S
C753 C754 1.349 . S
C753 C755 1.327 . S
C753 H776 0.950 . S
C754 C753 1.349 . S
C754 C766 1.349 . S
C755 C753 1.327 . S
C755 C771 1.429 . S
C755 H777 0.950 . S
C756 H752 0.949 . S
C756 C764 1.574 . S
C756 C772 1.368 . S
H757 C765 0.950 . S
H758 C763 0.950 . S
H759 C764 0.949 . S
H760 C766 0.950 . S
H761 C767 0.950 . S
H762 C768 0.949 . S
C763 H758 0.950 . S
C763 C765 1.327 . S
C763 C769 1.429 . S
C764 C756 1.574 . S
C764 H759 0.949 . S
C764 C770 1.368 . S
C765 C749 1.349 . S
C765 H757 0.950 . S
C765 C763 1.327 . S
C766 C754 1.349 . S
C766 H760 0.950 . S
C766 C767 1.327 . S
C767 H761 0.950 . S
C767 C766 1.327 . S
C767 C771 1.429 . S
C768 C751 1.574 . S
C768 H762 0.949 . S
C768 C772 1.368 . S
C769 C750 1.429 . S
C769 C763 1.429 . S
C769 C770 1.523 . S
C770 C751 1.368 . S
C770 C764 1.368 . S
C770 C769 1.523 . S
C771 C755 1.429 . S
C771 C767 1.429 . S
C771 C772 1.523 . S
C772 C756 1.368 . S
C772 C768 1.368 . S
C772 C771 1.523 . S
H773 C748 0.950 . S
H774 C750 0.950 . S
H775 C751 0.949 . S
H776 C753 0.950 . S
H777 C755 0.950 . S
C778 C779 1.349 . S
C778 C780 1.327 . S
C778 H803 0.950 . S
C779 C778 1.349 . S
C779 C795 1.349 . S
C780 C778 1.327 . S
C780 C799 1.429 . S
C780 H804 0.950 . S
C781 C798 1.574 . S
C781 C800 1.368 . S
C781 H805 0.949 . S
H782 C786 0.949 . S
C783 C784 1.349 . S
C783 C785 1.327 . S
C783 H806 0.950 . S
C784 C783 1.349 . S
C784 C796 1.349 . S
C785 C783 1.327 . S
C785 C801 1.429 . S
C785 H807 0.950 . S
C786 H782 0.949 . S
C786 C794 1.574 . S
C786 C802 1.368 . S
H787 C795 0.950 . S
H788 C793 0.950 . S
H789 C794 0.949 . S
H790 C796 0.950 . S
H791 C797 0.950 . S
H792 C798 0.949 . S
C793 H788 0.950 . S
C793 C795 1.327 . S
C793 C799 1.429 . S
C794 C786 1.574 . S
C794 H789 0.949 . S
C794 C800 1.368 . S
C795 C779 1.349 . S
C795 H787 0.950 . S
C795 C793 1.327 . S
C796 C784 1.349 . S
C796 H790 0.950 . S
C796 C797 1.327 . S
C797 H791 0.950 . S
C797 C796 1.327 . S
C797 C801 1.429 . S
C798 C781 1.574 . S
C798 H792 0.949 . S
C798 C802 1.368 . S
C799 C780 1.429 . S
C799 C793 1.429 . S
C799 C800 1.523 . S
C800 C781 1.368 . S
C800 C794 1.368 . S
C800 C799 1.523 . S
C801 C785 1.429 . S
C801 C797 1.429 . S
C801 C802 1.523 . S
C802 C786 1.368 . S
C802 C798 1.368 . S
C802 C801 1.523 . S
H803 C778 0.950 . S
H804 C780 0.950 . S
H805 C781 0.949 . S
H806 C783 0.950 . S
H807 C785 0.950 . S
C808 C809 1.349 . S
C808 C810 1.327 . S
C808 H833 0.950 . S
C809 C808 1.349 . S
C809 C825 1.349 . S
C810 C808 1.327 . S
C810 C829 1.429 . S
C810 H834 0.950 . S
C811 C828 1.574 . S
C811 C830 1.368 . S
C811 H835 0.949 . S
H812 C816 0.949 . S
C813 C814 1.349 . S
C813 C815 1.327 . S
C813 H836 0.950 . S
C814 C813 1.349 . S
C814 C826 1.349 . S
C815 C813 1.327 . S
C815 C831 1.429 . S
C815 H837 0.950 . S
C816 H812 0.949 . S
C816 C824 1.574 . S
C816 C832 1.368 . S
H817 C825 0.950 . S
H818 C823 0.950 . S
H819 C824 0.949 . S
H820 C826 0.950 . S
H821 C827 0.950 . S
H822 C828 0.949 . S
C823 H818 0.950 . S
C823 C825 1.327 . S
C823 C829 1.429 . S
C824 C816 1.574 . S
C824 H819 0.949 . S
C824 C830 1.368 . S
C825 C809 1.349 . S
C825 H817 0.950 . S
C825 C823 1.327 . S
C826 C814 1.349 . S
C826 H820 0.950 . S
C826 C827 1.327 . S
C827 H821 0.950 . S
C827 C826 1.327 . S
C827 C831 1.429 . S
C828 C811 1.574 . S
C828 H822 0.949 . S
C828 C832 1.368 . S
C829 C810 1.429 . S
C829 C823 1.429 . S
C829 C830 1.523 . S
C830 C811 1.368 . S
C830 C824 1.368 . S
C830 C829 1.523 . S
C831 C815 1.429 . S
C831 C827 1.429 . S
C831 C832 1.523 . S
C832 C816 1.368 . S
C832 C828 1.368 . S
C832 C831 1.523 . S
H833 C808 0.950 . S
H834 C810 0.950 . S
H835 C811 0.949 . S
H836 C813 0.950 . S
H837 C815 0.950 . S
C838 C839 1.349 . S
C838 C840 1.327 . S
C838 H863 0.950 . S
C839 C838 1.349 . S
C839 C855 1.349 . S
C840 C838 1.327 . S
C840 C859 1.429 . S
C840 H864 0.950 . S
C841 C858 1.574 . S
C841 C860 1.368 . S
C841 H865 0.949 . S
H842 C846 0.949 . S
C843 C844 1.349 . S
C843 C845 1.327 . S
C843 H866 0.950 . S
C844 C843 1.349 . S
C844 C856 1.349 . S
C845 C843 1.327 . S
C845 C861 1.429 . S
C845 H867 0.950 . S
C846 H842 0.949 . S
C846 C854 1.574 . S
C846 C862 1.368 . S
H847 C855 0.950 . S
H848 C853 0.950 . S
H849 C854 0.949 . S
H850 C856 0.950 . S
H851 C857 0.950 . S
H852 C858 0.949 . S
C853 H848 0.950 . S
C853 C855 1.327 . S
C853 C859 1.429 . S
C854 C846 1.574 . S
C854 H849 0.949 . S
C854 C860 1.368 . S
C855 C839 1.349 . S
C855 H847 0.950 . S
C855 C853 1.327 . S
C856 C844 1.349 . S
C856 H850 0.950 . S
C856 C857 1.327 . S
C857 H851 0.950 . S
C857 C856 1.327 . S
C857 C861 1.429 . S
C858 C841 1.574 . S
C858 H852 0.949 . S
C858 C862 1.368 . S
C859 C840 1.429 . S
C859 C853 1.429 . S
C859 C860 1.523 . S
C860 C841 1.368 . S
C860 C854 1.368 . S
C860 C859 1.523 . S
C861 C845 1.429 . S
C861 C857 1.429 . S
C861 C862 1.523 . S
C862 C846 1.368 . S
C862 C858 1.368 . S
C862 C861 1.523 . S
H863 C838 0.950 . S
H864 C840 0.950 . S
H865 C841 0.949 . S
H866 C843 0.950 . S
H867 C845 0.950 . S
C868 C869 1.349 . S
C868 C870 1.327 . S
C868 H893 0.950 . S
C869 C868 1.349 . S
C869 C885 1.349 . S
C870 C868 1.327 . S
C870 C889 1.429 . S
C870 H894 0.950 . S
C871 C888 1.574 . S
C871 C890 1.368 . S
C871 H895 0.949 . S
H872 C876 0.949 . S
C873 C874 1.349 . S
C873 C875 1.327 . S
C873 H896 0.950 . S
C874 C873 1.349 . S
C874 C886 1.349 . S
C875 C873 1.327 . S
C875 C891 1.429 . S
C875 H897 0.950 . S
C876 H872 0.949 . S
C876 C884 1.574 . S
C876 C892 1.368 . S
H877 C885 0.950 . S
H878 C883 0.950 . S
H879 C884 0.949 . S
H880 C886 0.950 . S
H881 C887 0.950 . S
H882 C888 0.949 . S
C883 H878 0.950 . S
C883 C885 1.327 . S
C883 C889 1.429 . S
C884 C876 1.574 . S
C884 H879 0.949 . S
C884 C890 1.368 . S
C885 C869 1.349 . S
C885 H877 0.950 . S
C885 C883 1.327 . S
C886 C874 1.349 . S
C886 H880 0.950 . S
C886 C887 1.327 . S
C887 H881 0.950 . S
C887 C886 1.327 . S
C887 C891 1.429 . S
C888 C871 1.574 . S
C888 H882 0.949 . S
C888 C892 1.368 . S
C889 C870 1.429 . S
C889 C883 1.429 . S
C889 C890 1.523 . S
C890 C871 1.368 . S
C890 C884 1.368 . S
C890 C889 1.523 . S
C891 C875 1.429 . S
C891 C887 1.429 . S
C891 C892 1.523 . S
C892 C876 1.368 . S
C892 C888 1.368 . S
C892 C891 1.523 . S
H893 C868 0.950 . S
H894 C870 0.950 . S
H895 C871 0.949 . S
H896 C873 0.950 . S
H897 C875 0.950 . S
C898 C899 1.349 . S
C898 C900 1.327 . S
C898 H923 0.950 . S
C899 C898 1.349 . S
C899 C915 1.349 . S
C900 C898 1.327 . S
C900 C919 1.429 . S
C900 H924 0.950 . S
C901 C918 1.574 . S
C901 C920 1.368 . S
C901 H925 0.949 . S
H902 C906 0.949 . S
C903 C904 1.349 . S
C903 C905 1.327 . S
C903 H926 0.950 . S
C904 C903 1.349 . S
C904 C916 1.349 . S
C905 C903 1.327 . S
C905 C921 1.429 . S
C905 H927 0.950 . S
C906 H902 0.949 . S
C906 C914 1.574 . S
C906 C922 1.368 . S
H907 C915 0.950 . S
H908 C913 0.950 . S
H909 C914 0.949 . S
H910 C916 0.950 . S
H911 C917 0.950 . S
H912 C918 0.949 . S
C913 H908 0.950 . S
C913 C915 1.327 . S
C913 C919 1.429 . S
C914 C906 1.574 . S
C914 H909 0.949 . S
C914 C920 1.368 . S
C915 C899 1.349 . S
C915 H907 0.950 . S
C915 C913 1.327 . S
C916 C904 1.349 . S
C916 H910 0.950 . S
C916 C917 1.327 . S
C917 H911 0.950 . S
C917 C916 1.327 . S
C917 C921 1.429 . S
C918 C901 1.574 . S
C918 H912 0.949 . S
C918 C922 1.368 . S
C919 C900 1.429 . S
C919 C913 1.429 . S
C919 C920 1.523 . S
C920 C901 1.368 . S
C920 C914 1.368 . S
C920 C919 1.523 . S
C921 C905 1.429 . S
C921 C917 1.429 . S
C921 C922 1.523 . S
C922 C906 1.368 . S
C922 C918 1.368 . S
C922 C921 1.523 . S
H923 C898 0.950 . S
H924 C900 0.950 . S
H925 C901 0.949 . S
H926 C903 0.950 . S
H927 C905 0.950 . S
C928 C929 1.349 . S
C928 C930 1.327 . S
C928 H953 0.950 . S
C929 C928 1.349 . S
C929 C945 1.349 . S
C930 C928 1.327 . S
C930 C949 1.429 . S
C930 H954 0.950 . S
C931 C948 1.574 1_455 S
C931 C950 1.368 1_556 S
C931 H955 0.949 . S
H932 C936 0.949 . S
C933 C934 1.349 . S
C933 C935 1.327 . S
C933 H956 0.950 . S
C934 C933 1.349 . S
C934 C946 1.349 . S
C935 C933 1.327 . S
C935 C951 1.429 . S
C935 H957 0.950 . S
C936 H932 0.949 . S
C936 C944 1.574 1_655 S
C936 C952 1.368 1_554 S
H937 C945 0.950 . S
H938 C943 0.950 . S
H939 C944 0.949 . S
H940 C946 0.950 . S
H941 C947 0.950 . S
H942 C948 0.949 . S
C943 H938 0.950 . S
C943 C945 1.327 . S
C943 C949 1.429 . S
C944 C936 1.574 1_455 S
C944 H939 0.949 . S
C944 C950 1.368 . S
C945 C929 1.349 . S
C945 H937 0.950 . S
C945 C943 1.327 . S
C946 C934 1.349 . S
C946 H940 0.950 . S
C946 C947 1.327 . S
C947 H941 0.950 . S
C947 C946 1.327 . S
C947 C951 1.429 . S
C948 C931 1.574 1_655 S
C948 H942 0.949 . S
C948 C952 1.368 . S
C949 C930 1.429 . S
C949 C943 1.429 . S
C949 C950 1.523 . S
C950 C931 1.368 1_554 S
C950 C944 1.368 . S
C950 C949 1.523 . S
C951 C935 1.429 . S
C951 C947 1.429 . S
C951 C952 1.523 . S
C952 C936 1.368 1_556 S
C952 C948 1.368 . S
C952 C951 1.523 . S
H953 C928 0.950 . S
H954 C930 0.950 . S
H955 C931 0.949 . S
H956 C933 0.950 . S
H957 C935 0.950 . S
C958 C959 1.349 . S
C958 C960 1.327 . S
C958 H983 0.950 . S
C959 C958 1.349 . S
C959 C975 1.349 . S
C960 C958 1.327 . S
C960 C979 1.429 . S
C960 H984 0.950 . S
C961 C978 1.572 1_565 S
C961 C980 1.370 1_655 S
C961 H985 0.949 . S
H962 C966 0.949 . S
C963 C964 1.349 . S
C963 C965 1.327 . S
C963 H986 0.950 . S
C964 C963 1.349 . S
C964 C976 1.349 . S
C965 C963 1.327 . S
C965 C981 1.429 . S
C965 H987 0.950 . S
C966 H962 0.949 . S
C966 C974 1.572 1_545 S
C966 C982 1.370 1_455 S
H967 C975 0.950 . S
H968 C973 0.950 . S
H969 C974 0.949 . S
H970 C976 0.950 . S
H971 C977 0.950 . S
H972 C978 0.949 . S
C973 H968 0.950 . S
C973 C975 1.327 . S
C973 C979 1.429 . S
C974 C966 1.572 1_565 S
C974 H969 0.949 . S
C974 C980 1.368 1_554 S
C975 C959 1.349 . S
C975 H967 0.950 . S
C975 C973 1.327 . S
C976 C964 1.349 . S
C976 H970 0.950 . S
C976 C977 1.327 . S
C977 H971 0.950 . S
C977 C976 1.327 . S
C977 C981 1.429 . S
C978 C961 1.572 1_545 S
C978 H972 0.949 . S
C978 C982 1.368 1_556 S
C979 C960 1.429 . S
C979 C973 1.429 . S
C979 C980 1.523 . S
C980 C961 1.370 1_455 S
C980 C974 1.368 1_556 S
C980 C979 1.523 . S
C981 C965 1.429 . S
C981 C977 1.429 . S
C981 C982 1.523 . S
C982 C966 1.370 1_655 S
C982 C978 1.368 1_554 S
C982 C981 1.523 . S
H983 C958 0.950 . S
H984 C960 0.950 . S
H985 C961 0.949 . S
H986 C963 0.950 . S
H987 C965 0.950 . S
C988 C989 1.349 . S
C988 C990 1.327 . S
C988 H1013 0.950 . S
C989 C988 1.349 . S
C989 C1005 1.349 . S
C990 C988 1.327 . S
C990 C1009 1.429 . S
C990 H1014 0.950 . S
C991 C1008 1.574 1_565 S
C991 C1010 1.368 1_556 S
C991 H1015 0.949 . S
H992 C996 0.949 . S
C993 C994 1.349 . S
C993 C995 1.327 . S
C993 H1016 0.950 . S
C994 C993 1.349 . S
C994 C1006 1.349 . S
C995 C993 1.327 . S
C995 C1011 1.429 . S
C995 H1017 0.950 . S
C996 H992 0.949 . S
C996 C1004 1.574 1_545 S
C996 C1012 1.368 1_554 S
H997 C1005 0.950 . S
H998 C1003 0.950 . S
H999 C1004 0.949 . S
H1000 C1006 0.950 . S
H1001 C1007 0.950 . S
H1002 C1008 0.949 . S
C1003 H998 0.950 . S
C1003 C1005 1.327 . S
C1003 C1009 1.429 . S
C1004 C996 1.574 1_565 S
C1004 H999 0.949 . S
C1004 C1010 1.368 . S
C1005 C989 1.349 . S
C1005 H997 0.950 . S
C1005 C1003 1.327 . S
C1006 C994 1.349 . S
C1006 H1000 0.950 . S
C1006 C1007 1.327 . S
C1007 H1001 0.950 . S
C1007 C1006 1.327 . S
C1007 C1011 1.429 . S
C1008 C991 1.574 1_545 S
C1008 H1002 0.949 . S
C1008 C1012 1.368 . S
C1009 C990 1.429 . S
C1009 C1003 1.429 . S
C1009 C1010 1.523 . S
C1010 C991 1.368 1_554 S
C1010 C1004 1.368 . S
C1010 C1009 1.523 . S
C1011 C995 1.429 . S
C1011 C1007 1.429 . S
C1011 C1012 1.523 . S
C1012 C996 1.368 1_556 S
C1012 C1008 1.368 . S
C1012 C1011 1.523 . S
H1013 C988 0.950 . S
H1014 C990 0.950 . S
H1015 C991 0.949 . S
H1016 C993 0.950 . S
H1017 C995 0.950 . S
C1018 C1019 1.349 . S
C1018 C1020 1.327 . S
C1018 H1043 0.950 . S
C1019 C1018 1.349 . S
C1019 C1035 1.349 . S
C1020 C1018 1.327 . S
C1020 C1039 1.429 . S
C1020 H1044 0.950 . S
C1021 C1038 1.574 . S
C1021 C1040 1.368 . S
C1021 H1045 0.949 . S
H1022 C1026 0.949 . S
C1023 C1024 1.349 . S
C1023 C1025 1.327 . S
C1023 H1046 0.950 . S
C1024 C1023 1.349 . S
C1024 C1036 1.349 . S
C1025 C1023 1.327 . S
C1025 C1041 1.429 . S
C1025 H1047 0.950 . S
C1026 H1022 0.949 . S
C1026 C1034 1.574 . S
C1026 C1042 1.368 . S
H1027 C1035 0.950 . S
H1028 C1033 0.950 . S
H1029 C1034 0.949 . S
H1030 C1036 0.950 . S
H1031 C1037 0.950 . S
H1032 C1038 0.949 . S
C1033 H1028 0.950 . S
C1033 C1035 1.327 . S
C1033 C1039 1.429 . S
C1034 C1026 1.574 . S
C1034 H1029 0.949 . S
C1034 C1040 1.368 1_554 S
C1035 C1019 1.349 . S
C1035 H1027 0.950 . S
C1035 C1033 1.327 . S
C1036 C1024 1.349 . S
C1036 H1030 0.950 . S
C1036 C1037 1.327 . S
C1037 H1031 0.950 . S
C1037 C1036 1.327 . S
C1037 C1041 1.429 . S
C1038 C1021 1.574 . S
C1038 H1032 0.949 . S
C1038 C1042 1.368 1_556 S
C1039 C1020 1.429 . S
C1039 C1033 1.429 . S
C1039 C1040 1.523 . S
C1040 C1021 1.368 . S
C1040 C1034 1.368 1_556 S
C1040 C1039 1.523 . S
C1041 C1025 1.429 . S
C1041 C1037 1.429 . S
C1041 C1042 1.523 . S
C1042 C1026 1.368 . S
C1042 C1038 1.368 1_554 S
C1042 C1041 1.523 . S
H1043 C1018 0.950 . S
H1044 C1020 0.950 . S
H1045 C1021 0.949 . S
H1046 C1023 0.950 . S
H1047 C1025 0.950 . S
C1048 C1049 1.349 . S
C1048 C1050 1.327 . S
C1048 H1073 0.950 . S
C1049 C1048 1.349 . S
C1049 C1065 1.349 . S
C1050 C1048 1.327 . S
C1050 C1069 1.429 . S
C1050 H1074 0.950 . S
C1051 C1068 1.574 . S
C1051 C1070 1.368 1_545 S
C1051 H1075 0.949 . S
H1052 C1056 0.949 . S
C1053 C1054 1.349 . S
C1053 C1055 1.327 . S
C1053 H1076 0.950 . S
C1054 C1053 1.349 . S
C1054 C1066 1.349 . S
C1055 C1053 1.327 . S
C1055 C1071 1.429 . S
C1055 H1077 0.950 . S
C1056 H1052 0.949 . S
C1056 C1064 1.574 . S
C1056 C1072 1.368 1_565 S
H1057 C1065 0.950 . S
H1058 C1063 0.950 . S
H1059 C1064 0.949 . S
H1060 C1066 0.950 . S
H1061 C1067 0.950 . S
H1062 C1068 0.949 . S
C1063 H1058 0.950 . S
C1063 C1065 1.327 . S
C1063 C1069 1.429 . S
C1064 C1056 1.574 . S
C1064 H1059 0.949 . S
C1064 C1070 1.368 1_655 S
C1065 C1049 1.349 . S
C1065 H1057 0.950 . S
C1065 C1063 1.327 . S
C1066 C1054 1.349 . S
C1066 H1060 0.950 . S
C1066 C1067 1.327 . S
C1067 H1061 0.950 . S
C1067 C1066 1.327 . S
C1067 C1071 1.429 . S
C1068 C1051 1.574 . S
C1068 H1062 0.949 . S
C1068 C1072 1.368 1_455 S
C1069 C1050 1.429 . S
C1069 C1063 1.429 . S
C1069 C1070 1.523 . S
C1070 C1051 1.368 1_565 S
C1070 C1064 1.368 1_455 S
C1070 C1069 1.523 . S
C1071 C1055 1.429 . S
C1071 C1067 1.429 . S
C1071 C1072 1.523 . S
C1072 C1056 1.368 1_545 S
C1072 C1068 1.368 1_655 S
C1072 C1071 1.523 . S
H1073 C1048 0.950 . S
H1074 C1050 0.950 . S
H1075 C1051 0.949 . S
H1076 C1053 0.950 . S
H1077 C1055 0.950 . S
C1078 C1079 1.349 . S
C1078 C1080 1.327 . S
C1078 H1103 0.950 . S
C1079 C1078 1.349 . S
C1079 C1095 1.349 . S
C1080 C1078 1.327 . S
C1080 C1099 1.429 . S
C1080 H1104 0.950 . S
C1081 C1098 1.574 1_545 S
C1081 C1100 1.368 . S
C1081 H1105 0.949 . S
H1082 C1086 0.949 . S
C1083 C1084 1.349 . S
C1083 C1085 1.327 . S
C1083 H1106 0.950 . S
C1084 C1083 1.349 . S
C1084 C1096 1.349 . S
C1085 C1083 1.327 . S
C1085 C1101 1.429 . S
C1085 H1107 0.950 . S
C1086 H1082 0.949 . S
C1086 C1094 1.574 1_565 S
C1086 C1102 1.368 . S
H1087 C1095 0.950 . S
H1088 C1093 0.950 . S
H1089 C1094 0.949 . S
H1090 C1096 0.950 . S
H1091 C1097 0.950 . S
H1092 C1098 0.949 . S
C1093 H1088 0.950 . S
C1093 C1095 1.327 . S
C1093 C1099 1.429 . S
C1094 C1086 1.574 1_545 S
C1094 H1089 0.949 . S
C1094 C1100 1.368 . S
C1095 C1079 1.349 . S
C1095 H1087 0.950 . S
C1095 C1093 1.327 . S
C1096 C1084 1.349 . S
C1096 H1090 0.950 . S
C1096 C1097 1.327 . S
C1097 H1091 0.950 . S
C1097 C1096 1.327 . S
C1097 C1101 1.429 . S
C1098 C1081 1.574 1_565 S
C1098 H1092 0.949 . S
C1098 C1102 1.368 . S
C1099 C1080 1.429 . S
C1099 C1093 1.429 . S
C1099 C1100 1.523 . S
C1100 C1081 1.368 . S
C1100 C1094 1.368 . S
C1100 C1099 1.523 . S
C1101 C1085 1.429 . S
C1101 C1097 1.429 . S
C1101 C1102 1.523 . S
C1102 C1086 1.368 . S
C1102 C1098 1.368 . S
C1102 C1101 1.523 . S
H1103 C1078 0.950 . S
H1104 C1080 0.950 . S
H1105 C1081 0.949 . S
H1106 C1083 0.950 . S
H1107 C1085 0.950 . S
C1108 C1109 1.349 . S
C1108 C1110 1.327 . S
C1108 H1133 0.950 . S
C1109 C1108 1.349 . S
C1109 C1125 1.349 . S
C1110 C1108 1.327 . S
C1110 C1129 1.429 . S
C1110 H1134 0.950 . S
C1111 C1128 1.574 . S
C1111 C1130 1.368 . S
C1111 H1135 0.949 . S
H1112 C1116 0.949 . S
C1113 C1114 1.349 . S
C1113 C1115 1.327 . S
C1113 H1136 0.950 . S
C1114 C1113 1.349 . S
C1114 C1126 1.349 . S
C1115 C1113 1.327 . S
C1115 C1131 1.429 . S
C1115 H1137 0.950 . S
C1116 H1112 0.949 . S
C1116 C1124 1.574 . S
C1116 C1132 1.368 . S
H1117 C1125 0.950 . S
H1118 C1123 0.950 . S
H1119 C1124 0.949 . S
H1120 C1126 0.950 . S
H1121 C1127 0.950 . S
H1122 C1128 0.949 . S
C1123 H1118 0.950 . S
C1123 C1125 1.327 . S
C1123 C1129 1.429 . S
C1124 C1116 1.574 . S
C1124 H1119 0.949 . S
C1124 C1130 1.368 . S
C1125 C1109 1.349 . S
C1125 H1117 0.950 . S
C1125 C1123 1.327 . S
C1126 C1114 1.349 . S
C1126 H1120 0.950 . S
C1126 C1127 1.327 . S
C1127 H1121 0.950 . S
C1127 C1126 1.327 . S
C1127 C1131 1.429 . S
C1128 C1111 1.574 . S
C1128 H1122 0.949 . S
C1128 C1132 1.368 . S
C1129 C1110 1.429 . S
C1129 C1123 1.429 . S
C1129 C1130 1.523 . S
C1130 C1111 1.368 . S
C1130 C1124 1.368 . S
C1130 C1129 1.523 . S
C1131 C1115 1.429 . S
C1131 C1127 1.429 . S
C1131 C1132 1.523 . S
C1132 C1116 1.368 . S
C1132 C1128 1.368 . S
C1132 C1131 1.523 . S
H1133 C1108 0.950 . S
H1134 C1110 0.950 . S
H1135 C1111 0.949 . S
H1136 C1113 0.950 . S
H1137 C1115 0.950 . S
C1138 C1139 1.349 . S
C1138 C1140 1.327 . S
C1138 H1163 0.950 . S
C1139 C1138 1.349 . S
C1139 C1155 1.349 . S
C1140 C1138 1.327 . S
C1140 C1159 1.429 . S
C1140 H1164 0.950 . S
C1141 C1158 1.574 1_655 S
C1141 C1160 1.368 . S
C1141 H1165 0.949 . S
H1142 C1146 0.949 . S
C1143 C1144 1.349 . S
C1143 C1145 1.327 . S
C1143 H1166 0.950 . S
C1144 C1143 1.349 . S
C1144 C1156 1.349 . S
C1145 C1143 1.327 . S
C1145 C1161 1.429 . S
C1145 H1167 0.950 . S
C1146 H1142 0.949 . S
C1146 C1154 1.574 1_455 S
C1146 C1162 1.368 . S
H1147 C1155 0.950 . S
H1148 C1153 0.950 . S
H1149 C1154 0.949 . S
H1150 C1156 0.950 . S
H1151 C1157 0.950 . S
H1152 C1158 0.949 . S
C1153 H1148 0.950 . S
C1153 C1155 1.327 . S
C1153 C1159 1.429 . S
C1154 C1146 1.574 1_655 S
C1154 H1149 0.949 . S
C1154 C1160 1.368 . S
C1155 C1139 1.349 . S
C1155 H1147 0.950 . S
C1155 C1153 1.327 . S
C1156 C1144 1.349 . S
C1156 H1150 0.950 . S
C1156 C1157 1.327 . S
C1157 H1151 0.950 . S
C1157 C1156 1.327 . S
C1157 C1161 1.429 . S
C1158 C1141 1.574 1_455 S
C1158 H1152 0.949 . S
C1158 C1162 1.368 . S
C1159 C1140 1.429 . S
C1159 C1153 1.429 . S
C1159 C1160 1.523 . S
C1160 C1141 1.368 . S
C1160 C1154 1.368 . S
C1160 C1159 1.523 . S
C1161 C1145 1.429 . S
C1161 C1157 1.429 . S
C1161 C1162 1.523 . S
C1162 C1146 1.368 . S
C1162 C1158 1.368 . S
C1162 C1161 1.523 . S
H1163 C1138 0.950 . S
H1164 C1140 0.950 . S
H1165 C1141 0.949 . S
H1166 C1143 0.950 . S
H1167 C1145 0.950 . S
C209 C3 1.409 . S
C214 C29 1.409 . S
C239 C18 1.409 . S
C244 C42 1.409 . S
C269 C57 1.409 . S
C274 C81 1.409 . S
C299 C94 1.409 . S
C304 C70 1.409 . S
C329 C109 1.409 . S
C334 C135 1.409 . S
C359 C146 1.409 . S
C364 C122 1.409 . S
C389 C187 1.409 . S
C394 C161 1.409 . S
C419 C198 1.409 . S
C424 C174 1.409 . S
C449 C101 0.987 . S
C454 C10 0.987 . S
C479 C17 0.987 . S
C484 C56 0.987 . S
C509 C69 0.987 . S
C514 C36 0.987 . S
C539 C49 0.987 . S
C544 C88 0.987 . S
C569 C205 0.987 . S
C574 C108 0.987 . S
C599 C121 0.987 . S
C604 C160 0.987 . S
C629 C134 0.987 . S
C634 C173 0.987 . S
C659 C186 0.987 . S
C664 C153 0.987 . S
C689 C5 0.415 . S
C694 C55 0.415 . S
C719 C16 0.415 . S
C724 C68 0.415 . S
C749 C83 0.415 . S
C754 C31 0.415 . S
C779 C44 0.415 . S
C784 C96 0.415 . S
C809 C159 0.415 . S
C814 C107 0.415 . S
C839 C172 0.415 . S
C844 C120 0.415 . S
C869 C133 0.415 . S
C874 C185 0.415 . S
C899 C148 0.415 . S
C904 C200 0.415 . S
C929 C4 1.552 . S
C934 C114 1.552 . S
C959 C127 1.552 . S
C964 C23 1.552 . S
C989 C30 1.552 . S
C994 C140 1.552 . S
C1019 C147 1.552 . S
C1024 C43 1.552 . S
C1049 C62 1.552 . S
C1054 C166 1.552 . S
C1079 C75 1.552 . S
C1084 C179 1.552 . S
C1109 C192 1.552 . S
C1114 C82 1.552 . S
C1139 C95 1.552 . S
C1144 C199 1.552 . S
