# Generated by pormake.
# Topology qtz, (4)-cn, num edge types: 1
# Building blocks:
#     Node 0, Type 0, BuildingBlock: NAHDIM_clean_sbu_0, # of connection points: 4
#     Node 1, Type 0, BuildingBlock: NAHDIM_clean_sbu_0, # of connection points: 4
#     Node 2, Type 0, BuildingBlock: NAHDIM_clean_sbu_0, # of connection points: 4
#     Edge 3, Type (0, 0), BuildingBlock: MIFKUJ_clean_linker_0, # of connection points: 2
#     Edge 4, Type (0, 0), BuildingBlock: MIFKUJ_clean_linker_0, # of connection points: 2
#     Edge 5, Type (0, 0), BuildingBlock: MIFKUJ_clean_linker_0, # of connection points: 2
#     Edge 6, Type (0, 0), BuildingBlock: MIFKUJ_clean_linker_0, # of connection points: 2
#     Edge 7, Type (0, 0), BuildingBlock: MIFKUJ_clean_linker_0, # of connection points: 2
#     Edge 8, Type (0, 0), BuildingBlock: MIFKUJ_clean_linker_0, # of connection points: 2
# Relax obj value: 0.104
# Max RMSD: 0.170
# Mean RMSD: 0.164
data_MOF--net-qtz--node1-NAHDIM_clean_sbu_0--edge1-MIFKUJ_clean_linker_0
_symmetry_space_group_name_H-M    P1
_symmetry_Int_Tables_number       1
_symmetry_cell_setting            triclinic
loop_
_symmetry_equiv_pos_as_xyz
'x, y, z'
_cell_length_a     30.610645
_cell_length_b     31.158947
_cell_length_c     35.256647
_cell_angle_alpha  93.199517
_cell_angle_beta   90.275656
_cell_angle_gamma 120.85397
loop_
_atom_site_label
_atom_site_type_symbol
_atom_site_fract_x
_atom_site_fract_y
_atom_site_fract_z
_atom_type_partial_charge
C0 C 0.02993 0.45612 0.09489 0.0
O1 O 0.98595 0.44437 0.07896 0.0
O2 O 0.95136 0.50216 0.12847 0.0
Zn3 Zn 0.99294 0.48477 0.1615 0.0
O4 O 0.03721 0.54343 0.19786 0.0
C5 C 0.90652 0.38832 0.17452 0.0
O6 O 0.8962 0.38876 0.13837 0.0
O7 O 0.03958 0.47216 0.12961 0.0
C8 C 0.02522 0.5503 0.23113 0.0
O9 O 0.98043 0.51767 0.24341 0.0
C10 C 0.91134 0.49994 0.14071 0.0
O11 O 0.89789 0.48699 0.1755 0.0
O12 O 0.94693 0.42491 0.19023 0.0
C13 C 0.54518 0.00046 0.56884 0.0
O14 O 0.53304 0.02902 0.58939 0.0
O15 O 0.49078 0.06981 0.54342 0.0
Zn16 Zn 0.50539 0.0283 0.50614 0.0
O17 O 0.44026 0.97412 0.48027 0.0
C18 C 0.53804 0.07969 0.43662 0.0
O19 O 0.48892 0.05937 0.42957 0.0
O20 O 0.53731 -0.00461 0.53302 0.0
C21 C 0.44269 0.94876 0.45177 0.0
O22 O 0.48754 0.95884 0.44022 0.0
C23 C 0.46573 0.09002 0.53398 0.0
O24 O 0.44854 0.0836 0.49866 0.0
O25 O 0.55354 0.07199 0.46758 0.0
C26 C 0.58187 0.63812 0.76635 0.0
O27 O 0.58875 0.60249 0.75152 0.0
O28 O 0.51365 0.51095 0.78566 0.0
Zn29 Zn 0.53189 0.56823 0.8239 0.0
O30 O 0.46895 0.55529 0.85063 0.0
C31 C 0.56944 0.54007 0.88596 0.0
O32 O 0.52086 0.50603 0.88715 0.0
O33 O 0.55951 0.63198 0.79758 0.0
C34 C 0.47068 0.57397 0.88394 0.0
O35 O 0.51511 0.60406 0.90137 0.0
C36 C 0.476 0.46727 0.78966 0.0
O37 O 0.4473 0.45949 0.81909 0.0
O38 O 0.58397 0.57216 0.86104 0.0
H39 H 0.45971 0.58889 0.95951 0.0
H40 H 0.38018 0.56038 0.99243 0.0
H41 H 0.29459 0.4968 0.88608 0.0
H42 H 0.37387 0.52485 0.8529 0.0
H43 H 0.26338 0.55341 0.93081 0.0
H44 H 0.29658 0.42019 0.94313 0.0
H45 H 0.34854 0.3835 0.95902 0.0
H46 H 0.36331 0.43923 0.07539 0.0
H47 H 0.31208 0.47696 0.06008 0.0
H48 H 0.02584 0.43125 0.01861 0.0
H49 H 0.09642 0.44206 0.97977 0.0
H50 H 0.19624 0.49462 0.07997 0.0
H51 H 0.12598 0.48298 0.11899 0.0
H52 H 0.21627 0.43681 0.03389 0.0
H53 H 0.19199 0.57661 0.02183 0.0
H54 H 0.14345 0.61739 0.00743 0.0
H55 H 0.1153 0.55349 0.89246 0.0
H56 H 0.16315 0.51177 0.90636 0.0
C57 C 0.424 0.56906 0.94309 0.0
C58 C 0.42301 0.55903 0.90365 0.0
C59 C 0.37865 0.55259 0.96196 0.0
C60 C 0.33166 0.52611 0.94165 0.0
C61 C 0.33055 0.51704 0.90218 0.0
C62 C 0.37584 0.53303 0.88334 0.0
C63 C 0.28368 0.50808 0.96173 0.0
C64 C 0.25252 0.52722 0.95289 0.0
C65 C 0.27031 0.47473 0.99099 0.0
C66 C 0.30085 0.45179 0.00037 0.0
C67 C 0.31125 0.42498 0.97205 0.0
C68 C 0.34052 0.40394 0.98096 0.0
C69 C 0.35932 0.40913 0.01817 0.0
C70 C 0.34877 0.43528 0.04657 0.0
C71 C 0.31958 0.45647 0.0378 0.0
C72 C 0.06264 0.44443 0.03244 0.0
C73 C 0.07045 0.4568 0.07182 0.0
C74 C 0.10296 0.45077 0.01019 0.0
C75 C 0.15176 0.46998 0.02693 0.0
C76 C 0.15894 0.4799 0.06646 0.0
C77 C 0.11871 0.47338 0.0887 0.0
C78 C 0.19614 0.48258 0.00331 0.0
C79 C 0.22673 0.46251 0.0115 0.0
C80 C 0.2093 0.5155 0.97368 0.0
C81 C 0.1806 0.54059 0.96526 0.0
C82 C 0.17509 0.57093 0.99357 0.0
C83 C 0.14777 0.59427 0.98548 0.0
C84 C 0.12616 0.5879 0.94909 0.0
C85 C 0.13196 0.55829 0.92067 0.0
C86 C 0.15919 0.53481 0.92862 0.0
H87 H 0.10503 0.60601 0.94288 0.0
H88 H 0.38196 0.39281 0.02502 0.0
H89 H 0.92024 0.37025 0.24716 0.0
H90 H 0.85559 0.31103 0.28797 0.0
H91 H 0.74285 0.2593 0.1961 0.0
H92 H 0.80737 0.31836 0.15493 0.0
H93 H 0.71342 0.28613 0.26379 0.0
H94 H 0.7815 0.184 0.22175 0.0
H95 H 0.84912 0.16483 0.20939 0.0
H96 H 0.89174 0.19068 0.32836 0.0
H97 H 0.82482 0.21072 0.34138 0.0
H98 H 0.51776 0.09132 0.36359 0.0
H99 H 0.57906 0.13884 0.31614 0.0
H100 H 0.70269 0.18349 0.39796 0.0
H101 H 0.64172 0.13503 0.44525 0.0
H102 H 0.72414 0.15646 0.33181 0.0
H103 H 0.66255 0.26415 0.37432 0.0
H104 H 0.59794 0.28699 0.3885 0.0
H105 H 0.54666 0.25517 0.27119 0.0
H106 H 0.61056 0.23149 0.2564 0.0
C107 C 0.88185 0.34582 0.23546 0.0
C108 C 0.86884 0.34902 0.19785 0.0
C109 C 0.84503 0.31192 0.25878 0.0
C110 C 0.79458 0.28077 0.24495 0.0
C111 C 0.78166 0.28306 0.2072 0.0
C112 C 0.8186 0.31665 0.18372 0.0
C113 C 0.75483 0.24812 0.27072 0.0
C114 C 0.71513 0.25709 0.27817 0.0
C115 C 0.75818 0.21143 0.29021 0.0
C116 C 0.7984 0.19928 0.28249 0.0
C117 C 0.80556 0.18601 0.24524 0.0
C118 C 0.84371 0.17491 0.23812 0.0
C119 C 0.87478 0.17665 0.26806 0.0
C120 C 0.86768 0.18939 0.30519 0.0
C121 C 0.8296 0.20057 0.31246 0.0
C122 C 0.55799 0.11139 0.37153 0.0
C123 C 0.5749 0.10956 0.4082 0.0
C124 C 0.59297 0.13863 0.3444 0.0
C125 C 0.64543 0.16513 0.35363 0.0
C126 C 0.66238 0.16326 0.39021 0.0
C127 C 0.62747 0.1357 0.41724 0.0
C128 C 0.68277 0.19464 0.32515 0.0
C129 C 0.7221 0.18518 0.31723 0.0
C130 C 0.67944 0.23133 0.30552 0.0
C131 C 0.64095 0.24551 0.31434 0.0
C132 C 0.63721 0.26161 0.35161 0.0
C133 C 0.60077 0.27479 0.35975 0.0
C134 C 0.56811 0.27238 0.33079 0.0
C135 C 0.57192 0.25692 0.29361 0.0
C136 C 0.60826 0.24365 0.28532 0.0
H137 H 0.53994 0.28262 0.33714 0.0
H138 H 0.90429 0.16803 0.26249 0.0
H139 H 0.57945 0.94288 0.53464 0.0
H140 H 0.60304 0.8887 0.5651 0.0
H141 H 0.5759 0.93689 0.67499 0.0
H142 H 0.55337 0.992 0.64487 0.0
H143 H 0.6579 0.92685 0.67855 0.0
H144 H 0.48463 0.82862 0.62731 0.0
H145 H 0.41724 0.79592 0.57668 0.0
H146 H 0.49128 0.73073 0.51385 0.0
H147 H 0.55949 0.76362 0.56392 0.0
H148 H 0.57927 0.72119 0.79138 0.0
H149 H 0.59131 0.78997 0.75431 0.0
H150 H 0.62584 0.72469 0.65648 0.0
H151 H 0.6136 0.65532 0.6934 0.0
H152 H 0.55174 0.7452 0.64075 0.0
H153 H 0.71828 0.8334 0.6991 0.0
H154 H 0.78277 0.86484 0.75173 0.0
H155 H 0.71906 0.94759 0.80338 0.0
H156 H 0.65369 0.91608 0.75135 0.0
C157 C 0.57903 0.94237 0.56533 0.0
C158 C 0.56395 0.97127 0.58734 0.0
C159 C 0.59247 0.91135 0.58266 0.0
C160 C 0.59041 0.9082 0.62223 0.0
C161 C 0.57767 0.93873 0.64439 0.0
C162 C 0.56458 0.97005 0.62711 0.0
C163 C 0.59816 0.8708 0.64044 0.0
C164 C 0.63461 0.8871 0.67044 0.0
C165 C 0.56857 0.81907 0.62915 0.0
C166 C 0.52746 0.79908 0.59912 0.0
C167 C 0.48673 0.80763 0.60255 0.0
C168 C 0.44836 0.78902 0.57399 0.0
C169 C 0.45006 0.7614 0.54201 0.0
C170 C 0.49006 0.75222 0.53859 0.0
C171 C 0.52858 0.77081 0.56706 0.0
C172 C 0.59017 0.72177 0.76214 0.0
C173 C 0.59513 0.68262 0.74524 0.0
C174 C 0.59736 0.76131 0.74106 0.0
C175 C 0.60978 0.76256 0.70273 0.0
C176 C 0.61641 0.72442 0.68608 0.0
C177 C 0.60948 0.68491 0.70723 0.0
C178 C 0.61088 0.8011 0.67938 0.0
C179 C 0.57587 0.785 0.64843 0.0
C180 C 0.64148 0.85288 0.69005 0.0
C181 C 0.68085 0.87209 0.72139 0.0
C182 C 0.71776 0.858 0.72182 0.0
C183 C 0.75453 0.8759 0.75153 0.0
C184 C 0.75496 0.90813 0.78091 0.0
C185 C 0.71867 0.92261 0.7806 0.0
C186 C 0.6818 0.9048 0.75097 0.0
H187 H 0.78346 0.92194 0.80388 0.0
H188 H 0.4203 0.74702 0.51992 0.0
H189 H 0.6729 0.58849 0.8811 0.0
H190 H 0.73391 0.5861 0.92487 0.0
H191 H 0.61121 0.4906 0.9954 0.0
H192 H 0.54988 0.49225 0.95164 0.0
H193 H 0.69871 0.57258 0.0357 0.0
H194 H 0.65444 0.4378 0.94004 0.0
H195 H 0.64456 0.4014 0.8744 0.0
H196 H 0.80439 0.4992 0.85899 0.0
H197 H 0.81507 0.53679 0.92437 0.0
H198 H 0.81383 0.47748 0.15142 0.0
H199 H 0.75895 0.48938 0.10825 0.0
H200 H 0.88086 0.55622 0.03005 0.0
H201 H 0.93542 0.54275 0.07256 0.0
H202 H 0.7969 0.49361 0.99242 0.0
H203 H 0.84408 0.62719 0.087 0.0
H204 H 0.85638 0.66706 0.15167 0.0
H205 H 0.69576 0.5776 0.16825 0.0
H206 H 0.68257 0.53667 0.10383 0.0
C207 C 0.65895 0.56717 0.90602 0.0
C208 C 0.60662 0.54039 0.91291 0.0
C209 C 0.6938 0.56577 0.93088 0.0
C210 C 0.67687 0.538 0.96315 0.0
C211 C 0.62486 0.51222 0.97059 0.0
C212 C 0.58993 0.51305 0.9455 0.0
C213 C 0.71326 0.53493 0.98886 0.0
C214 C 0.71991 0.55493 0.02647 0.0
C215 C 0.74182 0.51321 0.97624 0.0
C216 C 0.73544 0.4905 0.93696 0.0
C217 C 0.68739 0.45189 0.92254 0.0
C218 C 0.68166 0.43098 0.8854 0.0
C219 C 0.7238 0.44806 0.86251 0.0
C220 C 0.77177 0.48606 0.87673 0.0
C221 C 0.77768 0.50717 0.91383 0.0
C222 C 0.82908 0.49503 0.12516 0.0
C223 C 0.87897 0.50931 0.11542 0.0
C224 C 0.79773 0.50203 0.10056 0.0
C225 C 0.816 0.5244 0.06613 0.0
C226 C 0.86595 0.53893 0.05646 0.0
C227 C 0.89711 0.53133 0.08083 0.0
C228 C 0.78241 0.53106 0.03967 0.0
C229 C 0.77615 0.51168 0.00179 0.0
C230 C 0.75467 0.55394 0.05195 0.0
C231 C 0.76241 0.57856 0.09069 0.0
C232 C 0.81143 0.61575 0.10453 0.0
C233 C 0.81855 0.63858 0.14113 0.0
C234 C 0.7769 0.62479 0.16408 0.0
C235 C 0.728 0.58821 0.15045 0.0
C236 C 0.72067 0.56522 0.11388 0.0
H237 H 0.78249 0.64251 0.19241 0.0
H238 H 0.71933 0.43175 0.83382 0.0
H239 H 0.3456 0.90223 0.47685 0.0
H240 H 0.26803 0.83639 0.44251 0.0
H241 H 0.35623 0.84163 0.34597 0.0
H242 H 0.43397 0.90677 0.38022 0.0
H243 H 0.26412 0.84292 0.32899 0.0
H244 H 0.3245 0.75218 0.39858 0.0
H245 H 0.35192 0.7308 0.45687 0.0
H246 H 0.20656 0.68421 0.50445 0.0
H247 H 0.17857 0.70612 0.44663 0.0
H248 H 0.12085 0.62261 0.21394 0.0
H249 H 0.18406 0.69273 0.25517 0.0
H250 H 0.07821 0.64769 0.3458 0.0
H251 H 0.01448 0.57637 0.30466 0.0
H252 H 0.17083 0.66966 0.37119 0.0
H253 H 0.10596 0.75059 0.29938 0.0
H254 H 0.07787 0.77321 0.24211 0.0
H255 H 0.22886 0.8399 0.20009 0.0
H256 H 0.25774 0.81703 0.25685 0.0
C257 C 0.34842 0.88936 0.44829 0.0
C258 C 0.3958 0.90944 0.43122 0.0
C259 C 0.30417 0.85181 0.4288 0.0
C260 C 0.30666 0.83433 0.39183 0.0
C261 C 0.35373 0.85484 0.37451 0.0
C262 C 0.39804 0.89179 0.39417 0.0
C263 C 0.26037 0.79399 0.3712 0.0
C264 C 0.24378 0.80493 0.33798 0.0
C265 C 0.23309 0.74505 0.38391 0.0
C266 C 0.24968 0.73138 0.41849 0.0
C267 C 0.29855 0.73782 0.42162 0.0
C268 C 0.31417 0.72552 0.45454 0.0
C269 C 0.28107 0.70632 0.4844 0.0
C270 C 0.2322 0.6992 0.48133 0.0
C271 C 0.21644 0.71153 0.44849 0.0
C272 C 0.11072 0.62762 0.24255 0.0
C273 C 0.06254 0.5939 0.256 0.0
C274 C 0.14689 0.66796 0.26605 0.0
C275 C 0.13559 0.67585 0.30337 0.0
C276 C 0.08756 0.64235 0.317 0.0
C277 C 0.05121 0.60174 0.29345 0.0
C278 C 0.17504 0.71817 0.32825 0.0
C279 C 0.19047 0.70773 0.36237 0.0
C280 C 0.20104 0.76775 0.31651 0.0
C281 C 0.18394 0.78177 0.2823 0.0
C282 C 0.13311 0.76975 0.2778 0.0
C283 C 0.11705 0.78267 0.24544 0.0
C284 C 0.15154 0.8079 0.21745 0.0
C285 C 0.20219 0.82034 0.22179 0.0
C286 C 0.21844 0.80747 0.25409 0.0
H287 H 0.13903 0.81787 0.19242 0.0
H288 H 0.29324 0.69685 0.50988 0.0
H289 H 0.40406 0.36798 0.79296 0.0
H290 H 0.3945 0.29771 0.75158 0.0
H291 H 0.51749 0.4009 0.68458 0.0
H292 H 0.52778 0.47118 0.72592 0.0
H293 H 0.3743 0.27084 0.67572 0.0
H294 H 0.59151 0.35275 0.6628 0.0
H295 H 0.67112 0.4086 0.70042 0.0
H296 H 0.58895 0.37051 0.80344 0.0
H297 H 0.50898 0.31389 0.7665 0.0
H298 H 0.4286 0.15148 0.52137 0.0
H299 H 0.42175 0.2088 0.56777 0.0
H300 H 0.47772 0.15776 0.65683 0.0
H301 H 0.4859 0.10134 0.6105 0.0
H302 H 0.52657 0.25473 0.66125 0.0
H303 H 0.35176 0.12619 0.65027 0.0
H304 H 0.26944 0.06573 0.61769 0.0
H305 H 0.26165 0.18649 0.57173 0.0
H306 H 0.3443 0.24767 0.60362 0.0
C307 C 0.42881 0.37574 0.76924 0.0
C308 C 0.46705 0.42509 0.76295 0.0
C309 C 0.42317 0.33556 0.74559 0.0
C310 C 0.45578 0.34416 0.71543 0.0
C311 C 0.4925 0.39349 0.70813 0.0
C312 C 0.49824 0.4336 0.73174 0.0
C313 C 0.4531 0.30164 0.69246 0.0
C314 C 0.40748 0.26714 0.67252 0.0
C315 C 0.49608 0.2962 0.68925 0.0
C316 C 0.54419 0.32942 0.71181 0.0
C317 C 0.59048 0.35609 0.69349 0.0
C318 C 0.63565 0.38792 0.7147 0.0
C319 C 0.63505 0.39322 0.75428 0.0
C320 C 0.58932 0.36651 0.77277 0.0
C321 C 0.54405 0.33459 0.7517 0.0
C322 C 0.43901 0.15214 0.55089 0.0
C323 C 0.45804 0.1221 0.56225 0.0
C324 C 0.43481 0.18473 0.57742 0.0
C325 C 0.44887 0.18729 0.61583 0.0
C326 C 0.46677 0.15646 0.62733 0.0
C327 C 0.47137 0.12422 0.60081 0.0
C328 C 0.44803 0.22436 0.64357 0.0
C329 C 0.49316 0.25803 0.66448 0.0
C330 C 0.4042 0.22815 0.64834 0.0
C331 C 0.35446 0.19149 0.6291 0.0
C332 C 0.3327 0.13984 0.63298 0.0
C333 C 0.28593 0.10544 0.61467 0.0
C334 C 0.26039 0.12225 0.59258 0.0
C335 C 0.28151 0.17352 0.58882 0.0
C336 C 0.32828 0.20808 0.60705 0.0
H337 H 0.22419 0.09556 0.57844 0.0
H338 H 0.67004 0.41798 0.77061 0.0
loop_
_geom_bond_atom_site_label_1
_geom_bond_atom_site_label_2
_geom_bond_distance
_geom_bond_site_symmetry_2
_ccdc_geom_bond_type
C0 O1 1.160 . S
C0 O7 1.185 . S
O1 C0 1.160 . S
O2 Zn3 1.899 1_655 S
O2 C10 1.284 . S
Zn3 O2 1.899 1_455 S
Zn3 O4 2.032 . S
Zn3 O7 2.086 . S
Zn3 O12 1.977 1_455 S
O4 Zn3 2.032 . S
O4 C8 1.278 . S
C5 O6 1.203 . S
C5 O12 1.267 . S
O6 C5 1.203 . S
O7 C0 1.185 . S
O7 Zn3 2.086 . S
C8 O4 1.278 . S
C8 O9 1.211 . S
O9 C8 1.211 . S
C10 O2 1.284 . S
C10 O11 1.273 . S
O11 C10 1.273 . S
O12 Zn3 1.977 1_655 S
O12 C5 1.267 . S
C13 O14 1.160 . S
C13 O20 1.185 . S
O14 C13 1.160 . S
O15 Zn16 1.899 . S
O15 C23 1.284 . S
Zn16 O15 1.899 . S
Zn16 O17 2.032 1_545 S
Zn16 O20 2.086 1_545 S
Zn16 O25 1.977 . S
O17 Zn16 2.032 1_565 S
O17 C21 1.278 . S
C18 O19 1.203 . S
C18 O25 1.267 . S
O19 C18 1.203 . S
O20 C13 1.185 . S
O20 Zn16 2.086 1_565 S
C21 O17 1.278 . S
C21 O22 1.211 1_565 S
O22 C21 1.211 1_545 S
C23 O15 1.284 . S
C23 O24 1.273 . S
O24 C23 1.273 . S
O25 Zn16 1.977 . S
O25 C18 1.267 . S
C26 O27 1.160 . S
C26 O33 1.185 . S
O27 C26 1.160 . S
O28 Zn29 1.899 . S
O28 C36 1.284 . S
Zn29 O28 1.899 . S
Zn29 O30 2.032 . S
Zn29 O33 2.086 . S
Zn29 O38 1.977 . S
O30 Zn29 2.032 . S
O30 C34 1.278 . S
C31 O32 1.203 . S
C31 O38 1.267 . S
O32 C31 1.203 . S
O33 C26 1.185 . S
O33 Zn29 2.086 . S
C34 O30 1.278 . S
C34 O35 1.211 . S
O35 C34 1.211 . S
C36 O28 1.284 . S
C36 O37 1.273 . S
O37 C36 1.273 . S
O38 Zn29 1.977 . S
O38 C31 1.267 . S
H39 C57 0.951 . S
H40 C59 0.951 . S
H41 C61 0.950 . S
H42 C62 0.950 . S
H43 C64 0.950 . S
H44 C67 0.950 . S
H45 C68 0.950 . S
H46 C70 0.950 . S
H47 C71 0.950 . S
H48 C72 0.951 . S
H49 C74 0.951 . S
H50 C76 0.950 . S
H51 C77 0.950 . S
H52 C79 0.950 . S
H53 C82 0.950 . S
H54 C83 0.950 . S
H55 C85 0.950 . S
H56 C86 0.950 . S
C57 H39 0.951 . S
C57 C58 1.366 . S
C57 C59 1.388 . S
C58 C57 1.366 . S
C58 C62 1.385 . S
C59 H40 0.951 . S
C59 C57 1.388 . S
C59 C60 1.366 . S
C60 C59 1.366 . S
C60 C61 1.414 . S
C60 C63 1.499 . S
C61 H41 0.950 . S
C61 C60 1.414 . S
C61 C62 1.374 . S
C62 H42 0.950 . S
C62 C58 1.385 . S
C62 C61 1.374 . S
C63 C60 1.499 . S
C63 C64 1.373 . S
C63 C65 1.389 . S
C64 H43 0.950 . S
C64 C63 1.373 . S
C64 C80 1.377 . S
C65 C63 1.389 . S
C65 C66 1.524 1_556 S
C65 C79 1.377 1_556 S
C66 C65 1.524 1_554 S
C66 C67 1.397 1_554 S
C66 C71 1.363 . S
C67 H44 0.950 . S
C67 C66 1.397 1_556 S
C67 C68 1.334 . S
C68 H45 0.950 . S
C68 C67 1.334 . S
C68 C69 1.287 1_556 S
C69 C68 1.287 1_554 S
C69 C70 1.524 . S
C69 H88 0.913 . S
C70 H46 0.950 . S
C70 C69 1.524 . S
C70 C71 1.415 . S
C71 H47 0.950 . S
C71 C66 1.363 . S
C71 C70 1.415 . S
C72 H48 0.951 . S
C72 C73 1.366 . S
C72 C74 1.388 . S
C73 C72 1.366 . S
C73 C77 1.385 . S
C74 H49 0.951 . S
C74 C72 1.388 . S
C74 C75 1.366 . S
C75 C74 1.366 . S
C75 C76 1.414 . S
C75 C78 1.499 . S
C76 H50 0.950 . S
C76 C75 1.414 . S
C76 C77 1.374 . S
C77 H51 0.950 . S
C77 C73 1.385 . S
C77 C76 1.374 . S
C78 C75 1.499 . S
C78 C79 1.373 . S
C78 C80 1.389 1_554 S
C79 H52 0.950 . S
C79 C65 1.377 1_554 S
C79 C78 1.373 . S
C80 C64 1.377 . S
C80 C78 1.389 1_556 S
C80 C81 1.524 . S
C81 C80 1.524 . S
C81 C82 1.397 1_556 S
C81 C86 1.363 . S
C82 H53 0.950 . S
C82 C81 1.397 1_554 S
C82 C83 1.334 . S
C83 H54 0.950 . S
C83 C82 1.334 . S
C83 C84 1.287 1_554 S
C84 C83 1.287 1_556 S
C84 C85 1.524 . S
C84 H87 0.999 . S
C85 H55 0.950 . S
C85 C84 1.524 . S
C85 C86 1.415 . S
C86 H56 0.950 . S
C86 C81 1.363 . S
C86 C85 1.415 . S
H87 C84 0.999 . S
H88 C69 0.913 . S
H89 C107 0.951 . S
H90 C109 0.951 . S
H91 C111 0.950 . S
H92 C112 0.950 . S
H93 C114 0.950 . S
H94 C117 0.950 . S
H95 C118 0.950 . S
H96 C120 0.950 . S
H97 C121 0.950 . S
H98 C122 0.951 . S
H99 C124 0.951 . S
H100 C126 0.950 . S
H101 C127 0.950 . S
H102 C129 0.950 . S
H103 C132 0.950 . S
H104 C133 0.950 . S
H105 C135 0.950 . S
H106 C136 0.950 . S
C107 H89 0.951 . S
C107 C108 1.366 . S
C107 C109 1.388 . S
C108 C107 1.366 . S
C108 C112 1.385 . S
C109 H90 0.951 . S
C109 C107 1.388 . S
C109 C110 1.366 . S
C110 C109 1.366 . S
C110 C111 1.414 . S
C110 C113 1.499 . S
C111 H91 0.950 . S
C111 C110 1.414 . S
C111 C112 1.374 . S
C112 H92 0.950 . S
C112 C108 1.385 . S
C112 C111 1.374 . S
C113 C110 1.499 . S
C113 C114 1.373 . S
C113 C115 1.389 . S
C114 H93 0.950 . S
C114 C113 1.373 . S
C114 C130 1.377 . S
C115 C113 1.389 . S
C115 C116 1.524 . S
C115 C129 1.377 . S
C116 C115 1.524 . S
C116 C117 1.397 . S
C116 C121 1.363 . S
C117 H94 0.950 . S
C117 C116 1.397 . S
C117 C118 1.334 . S
C118 H95 0.950 . S
C118 C117 1.334 . S
C118 C119 1.287 . S
C119 C118 1.287 . S
C119 C120 1.524 . S
C119 H138 0.913 . S
C120 H96 0.950 . S
C120 C119 1.524 . S
C120 C121 1.415 . S
C121 H97 0.950 . S
C121 C116 1.363 . S
C121 C120 1.415 . S
C122 H98 0.951 . S
C122 C123 1.366 . S
C122 C124 1.388 . S
C123 C122 1.366 . S
C123 C127 1.385 . S
C124 H99 0.951 . S
C124 C122 1.388 . S
C124 C125 1.366 . S
C125 C124 1.366 . S
C125 C126 1.414 . S
C125 C128 1.499 . S
C126 H100 0.950 . S
C126 C125 1.414 . S
C126 C127 1.374 . S
C127 H101 0.950 . S
C127 C123 1.385 . S
C127 C126 1.374 . S
C128 C125 1.499 . S
C128 C129 1.373 . S
C128 C130 1.389 . S
C129 H102 0.950 . S
C129 C115 1.377 . S
C129 C128 1.373 . S
C130 C114 1.377 . S
C130 C128 1.389 . S
C130 C131 1.524 . S
C131 C130 1.524 . S
C131 C132 1.397 . S
C131 C136 1.363 . S
C132 H103 0.950 . S
C132 C131 1.397 . S
C132 C133 1.334 . S
C133 H104 0.950 . S
C133 C132 1.334 . S
C133 C134 1.287 . S
C134 C133 1.287 . S
C134 C135 1.524 . S
C134 H137 0.999 . S
C135 H105 0.950 . S
C135 C134 1.524 . S
C135 C136 1.415 . S
C136 H106 0.950 . S
C136 C131 1.363 . S
C136 C135 1.415 . S
H137 C134 0.999 . S
H138 C119 0.913 . S
H139 C157 0.951 . S
H140 C159 0.951 . S
H141 C161 0.950 . S
H142 C162 0.950 . S
H143 C164 0.950 . S
H144 C167 0.950 . S
H145 C168 0.950 . S
H146 C170 0.950 . S
H147 C171 0.950 . S
H148 C172 0.951 . S
H149 C174 0.951 . S
H150 C176 0.950 . S
H151 C177 0.950 . S
H152 C179 0.950 . S
H153 C182 0.950 . S
H154 C183 0.950 . S
H155 C185 0.950 . S
H156 C186 0.950 . S
C157 H139 0.951 . S
C157 C158 1.366 . S
C157 C159 1.388 . S
C158 C157 1.366 . S
C158 C162 1.385 . S
C159 H140 0.951 . S
C159 C157 1.388 . S
C159 C160 1.366 . S
C160 C159 1.366 . S
C160 C161 1.414 . S
C160 C163 1.499 . S
C161 H141 0.950 . S
C161 C160 1.414 . S
C161 C162 1.374 . S
C162 H142 0.950 . S
C162 C158 1.385 . S
C162 C161 1.374 . S
C163 C160 1.499 . S
C163 C164 1.373 . S
C163 C165 1.389 . S
C164 H143 0.950 . S
C164 C163 1.373 . S
C164 C180 1.377 . S
C165 C163 1.389 . S
C165 C166 1.524 . S
C165 C179 1.377 . S
C166 C165 1.524 . S
C166 C167 1.397 . S
C166 C171 1.363 . S
C167 H144 0.950 . S
C167 C166 1.397 . S
C167 C168 1.334 . S
C168 H145 0.950 . S
C168 C167 1.334 . S
C168 C169 1.287 . S
C169 C168 1.287 . S
C169 C170 1.524 . S
C169 H188 0.913 . S
C170 H146 0.950 . S
C170 C169 1.524 . S
C170 C171 1.415 . S
C171 H147 0.950 . S
C171 C166 1.363 . S
C171 C170 1.415 . S
C172 H148 0.951 . S
C172 C173 1.366 . S
C172 C174 1.388 . S
C173 C172 1.366 . S
C173 C177 1.385 . S
C174 H149 0.951 . S
C174 C172 1.388 . S
C174 C175 1.366 . S
C175 C174 1.366 . S
C175 C176 1.414 . S
C175 C178 1.499 . S
C176 H150 0.950 . S
C176 C175 1.414 . S
C176 C177 1.374 . S
C177 H151 0.950 . S
C177 C173 1.385 . S
C177 C176 1.374 . S
C178 C175 1.499 . S
C178 C179 1.373 . S
C178 C180 1.389 . S
C179 H152 0.950 . S
C179 C165 1.377 . S
C179 C178 1.373 . S
C180 C164 1.377 . S
C180 C178 1.389 . S
C180 C181 1.524 . S
C181 C180 1.524 . S
C181 C182 1.397 . S
C181 C186 1.363 . S
C182 H153 0.950 . S
C182 C181 1.397 . S
C182 C183 1.334 . S
C183 H154 0.950 . S
C183 C182 1.334 . S
C183 C184 1.287 . S
C184 C183 1.287 . S
C184 C185 1.524 . S
C184 H187 0.999 . S
C185 H155 0.950 . S
C185 C184 1.524 . S
C185 C186 1.415 . S
C186 H156 0.950 . S
C186 C181 1.363 . S
C186 C185 1.415 . S
H187 C184 0.999 . S
H188 C169 0.913 . S
H189 C207 0.951 . S
H190 C209 0.951 . S
H191 C211 0.950 . S
H192 C212 0.950 . S
H193 C214 0.950 . S
H194 C217 0.950 . S
H195 C218 0.950 . S
H196 C220 0.950 . S
H197 C221 0.950 . S
H198 C222 0.951 . S
H199 C224 0.951 . S
H200 C226 0.950 . S
H201 C227 0.950 . S
H202 C229 0.950 . S
H203 C232 0.950 . S
H204 C233 0.950 . S
H205 C235 0.950 . S
H206 C236 0.950 . S
C207 H189 0.951 . S
C207 C208 1.366 . S
C207 C209 1.388 . S
C208 C207 1.366 . S
C208 C212 1.385 . S
C209 H190 0.951 . S
C209 C207 1.388 . S
C209 C210 1.366 . S
C210 C209 1.366 . S
C210 C211 1.414 . S
C210 C213 1.499 . S
C211 H191 0.950 . S
C211 C210 1.414 . S
C211 C212 1.374 . S
C212 H192 0.950 . S
C212 C208 1.385 . S
C212 C211 1.374 . S
C213 C210 1.499 . S
C213 C214 1.373 1_556 S
C213 C215 1.389 . S
C214 H193 0.950 . S
C214 C213 1.373 1_554 S
C214 C230 1.377 . S
C215 C213 1.389 . S
C215 C216 1.524 . S
C215 C229 1.377 . S
C216 C215 1.524 . S
C216 C217 1.397 . S
C216 C221 1.363 . S
C217 H194 0.950 . S
C217 C216 1.397 . S
C217 C218 1.334 . S
C218 H195 0.950 . S
C218 C217 1.334 . S
C218 C219 1.287 . S
C219 C218 1.287 . S
C219 C220 1.524 . S
C219 H238 0.913 . S
C220 H196 0.950 . S
C220 C219 1.524 . S
C220 C221 1.415 . S
C221 H197 0.950 . S
C221 C216 1.363 . S
C221 C220 1.415 . S
C222 H198 0.951 . S
C222 C223 1.366 . S
C222 C224 1.388 . S
C223 C222 1.366 . S
C223 C227 1.385 . S
C224 H199 0.951 . S
C224 C222 1.388 . S
C224 C225 1.366 . S
C225 C224 1.366 . S
C225 C226 1.414 . S
C225 C228 1.499 . S
C226 H200 0.950 . S
C226 C225 1.414 . S
C226 C227 1.374 . S
C227 H201 0.950 . S
C227 C223 1.385 . S
C227 C226 1.374 . S
C228 C225 1.499 . S
C228 C229 1.373 1_554 S
C228 C230 1.389 . S
C229 H202 0.950 . S
C229 C215 1.377 . S
C229 C228 1.373 1_556 S
C230 C214 1.377 . S
C230 C228 1.389 . S
C230 C231 1.524 . S
C231 C230 1.524 . S
C231 C232 1.397 . S
C231 C236 1.363 . S
C232 H203 0.950 . S
C232 C231 1.397 . S
C232 C233 1.334 . S
C233 H204 0.950 . S
C233 C232 1.334 . S
C233 C234 1.287 . S
C234 C233 1.287 . S
C234 C235 1.524 . S
C234 H237 0.999 . S
C235 H205 0.950 . S
C235 C234 1.524 . S
C235 C236 1.415 . S
C236 H206 0.950 . S
C236 C231 1.363 . S
C236 C235 1.415 . S
H237 C234 0.999 . S
H238 C219 0.913 . S
H239 C257 0.951 . S
H240 C259 0.951 . S
H241 C261 0.950 . S
H242 C262 0.950 . S
H243 C264 0.950 . S
H244 C267 0.950 . S
H245 C268 0.950 . S
H246 C270 0.950 . S
H247 C271 0.950 . S
H248 C272 0.951 . S
H249 C274 0.951 . S
H250 C276 0.950 . S
H251 C277 0.950 . S
H252 C279 0.950 . S
H253 C282 0.950 . S
H254 C283 0.950 . S
H255 C285 0.950 . S
H256 C286 0.950 . S
C257 H239 0.951 . S
C257 C258 1.366 . S
C257 C259 1.388 . S
C258 C257 1.366 . S
C258 C262 1.385 . S
C259 H240 0.951 . S
C259 C257 1.388 . S
C259 C260 1.366 . S
C260 C259 1.366 . S
C260 C261 1.414 . S
C260 C263 1.499 . S
C261 H241 0.950 . S
C261 C260 1.414 . S
C261 C262 1.374 . S
C262 H242 0.950 . S
C262 C258 1.385 . S
C262 C261 1.374 . S
C263 C260 1.499 . S
C263 C264 1.373 . S
C263 C265 1.389 . S
C264 H243 0.950 . S
C264 C263 1.373 . S
C264 C280 1.377 . S
C265 C263 1.389 . S
C265 C266 1.524 . S
C265 C279 1.377 . S
C266 C265 1.524 . S
C266 C267 1.397 . S
C266 C271 1.363 . S
C267 H244 0.950 . S
C267 C266 1.397 . S
C267 C268 1.334 . S
C268 H245 0.950 . S
C268 C267 1.334 . S
C268 C269 1.287 . S
C269 C268 1.287 . S
C269 C270 1.524 . S
C269 H288 0.913 . S
C270 H246 0.950 . S
C270 C269 1.524 . S
C270 C271 1.415 . S
C271 H247 0.950 . S
C271 C266 1.363 . S
C271 C270 1.415 . S
C272 H248 0.951 . S
C272 C273 1.366 . S
C272 C274 1.388 . S
C273 C272 1.366 . S
C273 C277 1.385 . S
C274 H249 0.951 . S
C274 C272 1.388 . S
C274 C275 1.366 . S
C275 C274 1.366 . S
C275 C276 1.414 . S
C275 C278 1.499 . S
C276 H250 0.950 . S
C276 C275 1.414 . S
C276 C277 1.374 . S
C277 H251 0.950 . S
C277 C273 1.385 . S
C277 C276 1.374 . S
C278 C275 1.499 . S
C278 C279 1.373 . S
C278 C280 1.389 . S
C279 H252 0.950 . S
C279 C265 1.377 . S
C279 C278 1.373 . S
C280 C264 1.377 . S
C280 C278 1.389 . S
C280 C281 1.524 . S
C281 C280 1.524 . S
C281 C282 1.397 . S
C281 C286 1.363 . S
C282 H253 0.950 . S
C282 C281 1.397 . S
C282 C283 1.334 . S
C283 H254 0.950 . S
C283 C282 1.334 . S
C283 C284 1.287 . S
C284 C283 1.287 . S
C284 C285 1.524 . S
C284 H287 0.999 . S
C285 H255 0.950 . S
C285 C284 1.524 . S
C285 C286 1.415 . S
C286 H256 0.950 . S
C286 C281 1.363 . S
C286 C285 1.415 . S
H287 C284 0.999 . S
H288 C269 0.913 . S
H289 C307 0.951 . S
H290 C309 0.951 . S
H291 C311 0.950 . S
H292 C312 0.950 . S
H293 C314 0.950 . S
H294 C317 0.950 . S
H295 C318 0.950 . S
H296 C320 0.950 . S
H297 C321 0.950 . S
H298 C322 0.951 . S
H299 C324 0.951 . S
H300 C326 0.950 . S
H301 C327 0.950 . S
H302 C329 0.950 . S
H303 C332 0.950 . S
H304 C333 0.950 . S
H305 C335 0.950 . S
H306 C336 0.950 . S
C307 H289 0.951 . S
C307 C308 1.366 . S
C307 C309 1.388 . S
C308 C307 1.366 . S
C308 C312 1.385 . S
C309 H290 0.951 . S
C309 C307 1.388 . S
C309 C310 1.366 . S
C310 C309 1.366 . S
C310 C311 1.414 . S
C310 C313 1.499 . S
C311 H291 0.950 . S
C311 C310 1.414 . S
C311 C312 1.374 . S
C312 H292 0.950 . S
C312 C308 1.385 . S
C312 C311 1.374 . S
C313 C310 1.499 . S
C313 C314 1.373 . S
C313 C315 1.389 . S
C314 H293 0.950 . S
C314 C313 1.373 . S
C314 C330 1.377 . S
C315 C313 1.389 . S
C315 C316 1.524 . S
C315 C329 1.377 . S
C316 C315 1.524 . S
C316 C317 1.397 . S
C316 C321 1.363 . S
C317 H294 0.950 . S
C317 C316 1.397 . S
C317 C318 1.334 . S
C318 H295 0.950 . S
C318 C317 1.334 . S
C318 C319 1.287 . S
C319 C318 1.287 . S
C319 C320 1.524 . S
C319 H338 0.913 . S
C320 H296 0.950 . S
C320 C319 1.524 . S
C320 C321 1.415 . S
C321 H297 0.950 . S
C321 C316 1.363 . S
C321 C320 1.415 . S
C322 H298 0.951 . S
C322 C323 1.366 . S
C322 C324 1.388 . S
C323 C322 1.366 . S
C323 C327 1.385 . S
C324 H299 0.951 . S
C324 C322 1.388 . S
C324 C325 1.366 . S
C325 C324 1.366 . S
C325 C326 1.414 . S
C325 C328 1.499 . S
C326 H300 0.950 . S
C326 C325 1.414 . S
C326 C327 1.374 . S
C327 H301 0.950 . S
C327 C323 1.385 . S
C327 C326 1.374 . S
C328 C325 1.499 . S
C328 C329 1.373 . S
C328 C330 1.389 . S
C329 H302 0.950 . S
C329 C315 1.377 . S
C329 C328 1.373 . S
C330 C314 1.377 . S
C330 C328 1.389 . S
C330 C331 1.524 . S
C331 C330 1.524 . S
C331 C332 1.397 . S
C331 C336 1.363 . S
C332 H303 0.950 . S
C332 C331 1.397 . S
C332 C333 1.334 . S
C333 H304 0.950 . S
C333 C332 1.334 . S
C333 C334 1.287 . S
C334 C333 1.287 . S
C334 C335 1.524 . S
C334 H337 0.999 . S
C335 H305 0.950 . S
C335 C334 1.524 . S
C335 C336 1.415 . S
C336 H306 0.950 . S
C336 C331 1.363 . S
C336 C335 1.415 . S
H337 C334 0.999 . S
H338 C319 0.913 . S
C58 C34 1.198 . S
C73 C0 1.195 . S
C108 C5 1.300 . S
C123 C18 1.303 . S
C158 C13 1.228 . S
C173 C26 1.224 . S
C208 C31 1.227 . S
C223 C10 1.270 . S
C258 C21 1.168 . S
C273 C8 1.171 . S
C308 C36 1.197 . S
C323 C23 1.197 . S
