# Generated by pormake.
# Topology wgw, (6)-cn, num edge types: 1
# Building blocks:
#     Node 0, Type 0, BuildingBlock: OJICUG_clean_sbu_0, # of connection points: 6
#     Node 1, Type 0, BuildingBlock: OJICUG_clean_sbu_0, # of connection points: 6
#     Node 2, Type 0, BuildingBlock: OJICUG_clean_sbu_0, # of connection points: 6
#     Node 3, Type 0, BuildingBlock: OJICUG_clean_sbu_0, # of connection points: 6
#     Node 4, Type 0, BuildingBlock: OJICUG_clean_sbu_0, # of connection points: 6
#     Node 5, Type 0, BuildingBlock: OJICUG_clean_sbu_0, # of connection points: 6
#     Node 6, Type 0, BuildingBlock: OJICUG_clean_sbu_0, # of connection points: 6
#     Node 7, Type 0, BuildingBlock: OJICUG_clean_sbu_0, # of connection points: 6
#     Edge 8, Type (0, 0), BuildingBlock: UVAHIK_clean_linker_0, # of connection points: 2
#     Edge 9, Type (0, 0), BuildingBlock: UVAHIK_clean_linker_0, # of connection points: 2
#     Edge 10, Type (0, 0), BuildingBlock: UVAHIK_clean_linker_0, # of connection points: 2
#     Edge 11, Type (0, 0), BuildingBlock: UVAHIK_clean_linker_0, # of connection points: 2
#     Edge 12, Type (0, 0), BuildingBlock: UVAHIK_clean_linker_0, # of connection points: 2
#     Edge 13, Type (0, 0), BuildingBlock: UVAHIK_clean_linker_0, # of connection points: 2
#     Edge 14, Type (0, 0), BuildingBlock: UVAHIK_clean_linker_0, # of connection points: 2
#     Edge 15, Type (0, 0), BuildingBlock: UVAHIK_clean_linker_0, # of connection points: 2
#     Edge 16, Type (0, 0), BuildingBlock: UVAHIK_clean_linker_0, # of connection points: 2
#     Edge 17, Type (0, 0), BuildingBlock: UVAHIK_clean_linker_0, # of connection points: 2
#     Edge 18, Type (0, 0), BuildingBlock: UVAHIK_clean_linker_0, # of connection points: 2
#     Edge 19, Type (0, 0), BuildingBlock: UVAHIK_clean_linker_0, # of connection points: 2
#     Edge 20, Type (0, 0), BuildingBlock: UVAHIK_clean_linker_0, # of connection points: 2
#     Edge 21, Type (0, 0), BuildingBlock: UVAHIK_clean_linker_0, # of connection points: 2
#     Edge 22, Type (0, 0), BuildingBlock: UVAHIK_clean_linker_0, # of connection points: 2
#     Edge 23, Type (0, 0), BuildingBlock: UVAHIK_clean_linker_0, # of connection points: 2
#     Edge 24, Type (0, 0), BuildingBlock: UVAHIK_clean_linker_0, # of connection points: 2
#     Edge 25, Type (0, 0), BuildingBlock: UVAHIK_clean_linker_0, # of connection points: 2
#     Edge 26, Type (0, 0), BuildingBlock: UVAHIK_clean_linker_0, # of connection points: 2
#     Edge 27, Type (0, 0), BuildingBlock: UVAHIK_clean_linker_0, # of connection points: 2
#     Edge 28, Type (0, 0), BuildingBlock: UVAHIK_clean_linker_0, # of connection points: 2
#     Edge 29, Type (0, 0), BuildingBlock: UVAHIK_clean_linker_0, # of connection points: 2
#     Edge 30, Type (0, 0), BuildingBlock: UVAHIK_clean_linker_0, # of connection points: 2
#     Edge 31, Type (0, 0), BuildingBlock: UVAHIK_clean_linker_0, # of connection points: 2
# Relax obj value: 0.221
# Max RMSD: 0.288
# Mean RMSD: 0.288
data_MOF--net-wgw--node1-OJICUG_clean_sbu_0--edge1-UVAHIK_clean_linker_0
_symmetry_space_group_name_H-M    P1
_symmetry_Int_Tables_number       1
_symmetry_cell_setting            triclinic
loop_
_symmetry_equiv_pos_as_xyz
'x, y, z'
_cell_length_a     36.783884
_cell_length_b     36.833492
_cell_length_c     54.731533
_cell_angle_alpha  90.13868
_cell_angle_beta   89.987523
_cell_angle_gamma 90.073498
loop_
_atom_site_label
_atom_site_type_symbol
_atom_site_fract_x
_atom_site_fract_y
_atom_site_fract_z
_atom_type_partial_charge
Sc0 Sc 0.08934 0.4661 0.17666 0.0
Sc1 Sc 0.02309 0.46542 0.22316 0.0
Sc2 Sc 0.01871 0.40144 0.17542 0.0
O3 O 0.0438 0.44429 0.19177 0.0
C4 C 0.04479 0.4467 0.12881 0.0
C5 C 0.04527 0.53645 0.19333 0.0
C6 C 0.95193 0.4504 0.19064 0.0
C7 C 0.10804 0.46975 0.23358 0.0
C8 C 0.10223 0.38033 0.17131 0.0
C9 C 0.00848 0.38212 0.23211 0.0
O10 O 0.06743 0.46639 0.14028 0.0
O11 O 0.02665 0.51952 0.2092 0.0
O12 O 0.96665 0.42813 0.17587 0.0
O13 O 0.11694 0.46792 0.21119 0.0
O14 O 0.06892 0.37149 0.1736 0.0
O15 O 0.01682 0.41327 0.24036 0.0
O16 O 0.11312 0.41318 0.17117 0.0
O17 O 0.07526 0.47004 0.24085 0.0
O18 O 0.00681 0.37498 0.20942 0.0
O19 O 0.06984 0.52127 0.18053 0.0
O20 O 0.02653 0.42179 0.13908 0.0
O21 O 0.96858 0.4639 0.20892 0.0
Sc22 Sc 0.09794 0.03657 0.65106 0.0
Sc23 Sc 0.05872 0.06885 0.70559 0.0
Sc24 Sc 0.03483 0.10818 0.64972 0.0
O25 O 0.06409 0.07123 0.66876 0.0
C26 C 0.11423 0.11413 0.62686 0.0
C27 C 0.1427 0.04955 0.70018 0.0
C28 C 0.05447 0.15272 0.69872 0.0
C29 C 0.05631 0.98581 0.68903 0.0
C30 C 0.03542 0.04273 0.6114 0.0
C31 C 0.97682 0.08136 0.68745 0.0
O32 O 0.1226 0.0812 0.63143 0.0
O33 O 0.11558 0.05974 0.71277 0.0
O34 O 0.04024 0.14922 0.67767 0.0
O35 O 0.0751 0.98997 0.66965 0.0
O36 O 0.02403 0.07313 0.61911 0.0
O37 O 0.00088 0.07683 0.70384 0.0
O38 O 0.06107 0.02572 0.62167 0.0
O39 O 0.0485 0.0117 0.70352 0.0
O40 O 0.98449 0.0896 0.6655 0.0
O41 O 0.14027 0.04156 0.6777 0.0
O42 O 0.08381 0.12821 0.63284 0.0
O43 O 0.06744 0.12605 0.7105 0.0
Sc44 Sc 0.46047 0.08442 0.16368 0.0
Sc45 Sc 0.46194 0.01857 0.21038 0.0
Sc46 Sc 0.39244 0.01693 0.16601 0.0
O47 O 0.43828 0.04001 0.18003 0.0
C48 C 0.37554 0.10151 0.16053 0.0
C49 C 0.4697 0.10321 0.2205 0.0
C50 C 0.37766 0.01126 0.22324 0.0
C51 C 0.53117 0.0393 0.17787 0.0
C52 C 0.43593 0.03713 0.11753 0.0
C53 C 0.43993 0.94794 0.18011 0.0
O54 O 0.40868 0.11134 0.1609 0.0
O55 O 0.46794 0.07063 0.22804 0.0
O56 O 0.36725 0.0134 0.20119 0.0
O57 O 0.51508 0.06281 0.16479 0.0
O58 O 0.41255 0.01861 0.12921 0.0
O59 O 0.45949 0.96486 0.19548 0.0
O60 O 0.45516 0.06178 0.1275 0.0
O61 O 0.5154 0.0221 0.19494 0.0
O62 O 0.41371 0.96242 0.1686 0.0
O63 O 0.46766 0.11187 0.19807 0.0
O64 O 0.36577 0.06848 0.16193 0.0
O65 O 0.41091 0.01174 0.22956 0.0
Sc66 Sc 0.4643 0.38546 0.65935 0.0
Sc67 Sc 0.4354 0.43162 0.71214 0.0
Sc68 Sc 0.39745 0.45386 0.65509 0.0
O69 O 0.43227 0.42356 0.67549 0.0
C70 C 0.46432 0.44625 0.61822 0.0
C71 C 0.51885 0.42088 0.69746 0.0
C72 C 0.43235 0.51226 0.69089 0.0
C73 C 0.44208 0.34632 0.70948 0.0
C74 C 0.38682 0.37377 0.63382 0.0
C75 C 0.35105 0.44328 0.70401 0.0
O76 O 0.4783 0.41903 0.62877 0.0
O77 O 0.49351 0.43034 0.71186 0.0
O78 O 0.41797 0.5041 0.67042 0.0
O79 O 0.45463 0.34632 0.68783 0.0
O80 O 0.37515 0.40572 0.6382 0.0
O81 O 0.37794 0.43452 0.71718 0.0
O82 O 0.41837 0.36293 0.64006 0.0
O83 O 0.43263 0.37505 0.72057 0.0
O84 O 0.35403 0.45127 0.68154 0.0
O85 O 0.51302 0.40523 0.67709 0.0
O86 O 0.43526 0.46115 0.62562 0.0
O87 O 0.43884 0.48903 0.70743 0.0
Sc88 Sc 0.52214 0.58162 0.32637 0.0
Sc89 Sc 0.52381 0.52163 0.27615 0.0
Sc90 Sc 0.59129 0.51575 0.32173 0.0
O91 O 0.54576 0.53965 0.3081 0.0
C92 C 0.60666 0.60034 0.33046 0.0
C93 C 0.51326 0.60663 0.27069 0.0
C94 C 0.60821 0.51664 0.26445 0.0
C95 C 0.45346 0.53586 0.30937 0.0
C96 C 0.5475 0.53155 0.37074 0.0
C97 C 0.54538 0.4477 0.30288 0.0
O98 O 0.57333 0.60958 0.33004 0.0
O99 O 0.51762 0.57535 0.26134 0.0
O100 O 0.61761 0.51548 0.28675 0.0
O101 O 0.46863 0.55766 0.32428 0.0
O102 O 0.57084 0.51383 0.35848 0.0
O103 O 0.52729 0.46625 0.2876 0.0
O104 O 0.52829 0.55665 0.36154 0.0
O105 O 0.46989 0.52216 0.29112 0.0
O106 O 0.56993 0.46141 0.31647 0.0
O107 O 0.51335 0.61222 0.2936 0.0
O108 O 0.61707 0.56754 0.32822 0.0
O109 O 0.57533 0.51842 0.25754 0.0
Sc110 Sc 0.89832 0.53773 0.84228 0.0
Sc111 Sc 0.94006 0.56864 0.78836 0.0
Sc112 Sc 0.96448 0.60628 0.84443 0.0
O113 O 0.93383 0.57094 0.82508 0.0
C114 C 0.88534 0.61635 0.86643 0.0
C115 C 0.85529 0.55166 0.79287 0.0
C116 C 0.94702 0.65153 0.79551 0.0
C117 C 0.94 0.48583 0.80469 0.0
C118 C 0.9599 0.54133 0.88265 0.0
C119 C 0.02141 0.57713 0.80741 0.0
O120 O 0.87559 0.58362 0.86205 0.0
O121 O 0.88335 0.55961 0.78051 0.0
O122 O 0.96252 0.64703 0.81608 0.0
O123 O 0.91954 0.49035 0.82331 0.0
O124 O 0.97205 0.57167 0.87548 0.0
O125 O -0.00191 0.57671 0.79029 0.0
O126 O 0.93447 0.52481 0.87169 0.0
O127 O 0.94989 0.51155 0.79069 0.0
O128 O 0.01338 0.58339 0.82957 0.0
O129 O 0.85652 0.54499 0.81556 0.0
O130 O 0.91633 0.62916 0.86046 0.0
O131 O 0.93149 0.62577 0.7841 0.0
Sc132 Sc 0.89465 0.96727 0.32001 0.0
Sc133 Sc 0.95945 0.96678 0.27264 0.0
Sc134 Sc 0.96261 0.90006 0.31872 0.0
O135 O 0.93889 0.94463 0.30374 0.0
C136 C 0.94149 0.94386 0.3666 0.0
C137 C 0.94101 0.03654 0.3056 0.0
C138 C 0.03162 0.94643 0.30203 0.0
C139 C 0.87511 0.97758 0.26339 0.0
C140 C 0.87743 0.88291 0.32403 0.0
C141 C 0.96699 0.88226 0.26165 0.0
O142 O 0.9157 0.96073 0.35627 0.0
O143 O 0.95617 0.02082 0.28755 0.0
O144 O 0.01712 0.92151 0.31483 0.0
O145 O 0.86755 0.97759 0.28603 0.0
O146 O 0.9108 0.87375 0.32416 0.0
O147 O 0.9659 0.91506 0.25455 0.0
O148 O 0.86703 0.91569 0.32179 0.0
O149 O 0.90696 0.97183 0.25528 0.0
O150 O 0.96545 0.87302 0.28398 0.0
O151 O 0.91858 0.02065 0.31968 0.0
O152 O 0.9621 0.92195 0.35522 0.0
O153 O 0.01396 0.96479 0.28641 0.0
Sc154 Sc 0.53455 0.88339 0.83137 0.0
Sc155 Sc 0.56108 0.9299 0.77823 0.0
Sc156 Sc 0.59703 0.95583 0.83524 0.0
O157 O 0.56438 0.92292 0.81497 0.0
C158 C 0.53146 0.94448 0.87255 0.0
C159 C 0.47821 0.91524 0.79335 0.0
C160 C 0.55861 0.011 0.79913 0.0
C161 C 0.55804 0.84458 0.78116 0.0
C162 C 0.61288 0.87661 0.85638 0.0
C163 C 0.64437 0.9479 0.78637 0.0
O164 O 0.51927 0.91607 0.8623 0.0
O165 O 0.503 0.925 0.77858 0.0
O166 O 0.57324 0.00414 0.81969 0.0
O167 O 0.54514 0.84458 0.80271 0.0
O168 O 0.62227 0.9094 0.85227 0.0
O169 O 0.61853 0.93629 0.77315 0.0
O170 O 0.58215 0.86354 0.85005 0.0
O171 O 0.56711 0.8734 0.77009 0.0
O172 O 0.64018 0.95622 0.80872 0.0
O173 O 0.48486 0.90093 0.814 0.0
O174 O 0.55918 0.96127 0.86474 0.0
O175 O 0.55405 0.98715 0.78259 0.0
C176 C 0.39155 0.54693 0.32755 0.0
C177 C 0.41493 0.52573 0.31303 0.0
C178 C 0.35447 0.53847 0.32902 0.0
C179 C 0.28724 0.4659 0.31408 0.0
H180 H 0.2242 0.54589 0.29631 0.0
C181 C 0.17057 0.45415 0.24708 0.0
C182 C 0.13748 0.47174 0.25177 0.0
C183 C 0.19964 0.45789 0.26318 0.0
C184 C 0.24118 0.52338 0.30192 0.0
H185 H 0.41816 0.47786 0.2899 0.0
H186 H 0.35409 0.4635 0.29224 0.0
H187 H 0.28616 0.55831 0.30994 0.0
H188 H 0.10837 0.50633 0.27719 0.0
H189 H 0.1602 0.51405 0.3051 0.0
H190 H 0.24314 0.43091 0.30403 0.0
C191 C 0.36411 0.48647 0.30265 0.0
C192 C 0.27666 0.53046 0.30975 0.0
C193 C 0.40087 0.49503 0.30103 0.0
C194 C 0.13364 0.49242 0.27324 0.0
C195 C 0.16315 0.49687 0.28914 0.0
C196 C 0.25195 0.45884 0.30603 0.0
C197 C 0.34031 0.50841 0.31627 0.0
C198 C 0.30061 0.50167 0.31468 0.0
C199 C 0.19646 0.47983 0.28408 0.0
C200 C 0.22927 0.48744 0.29879 0.0
H201 H 0.40163 0.5707 0.33708 0.0
H202 H 0.33677 0.5558 0.33972 0.0
H203 H 0.30483 0.44319 0.3183 0.0
H204 H 0.17415 0.43786 0.23074 0.0
H205 H 0.2252 0.44489 0.25869 0.0
C206 C 0.93542 0.41778 0.80569 0.0
C207 C 0.95447 0.44938 0.79919 0.0
C208 C 0.9487 0.38365 0.7988 0.0
C209 C 0.96986 0.32311 0.76303 0.0
H210 H 0.07201 0.29727 0.76682 0.0
C211 C 0.03187 0.21663 0.69986 0.0
C212 C 0.05118 0.18833 0.71116 0.0
C213 C 0.02263 0.24777 0.71294 0.0
C214 C 0.0434 0.30406 0.76583 0.0
H215 H 0.00332 0.47007 0.78177 0.0
H216 H 0.02638 0.41077 0.76997 0.0
H217 H 0.05 0.3519 0.78778 0.0
H218 H 0.07825 0.17191 0.74462 0.0
H219 H 0.06252 0.22697 0.76734 0.0
H220 H 0.96338 0.276 0.74051 0.0
C221 C 0.00121 0.41223 0.78021 0.0
C222 C 0.03084 0.33524 0.77772 0.0
C223 C 0.98774 0.4462 0.78672 0.0
C224 C 0.06322 0.19308 0.73538 0.0
C225 C 0.05422 0.22453 0.74841 0.0
C226 C 0.98247 0.29225 0.75092 0.0
C227 C 0.98155 0.38068 0.78577 0.0
C228 C 0.99406 0.34533 0.77609 0.0
C229 C 0.03281 0.25153 0.73751 0.0
C230 C 0.01945 0.28284 0.75184 0.0
H231 H 0.9098 0.4195 0.81537 0.0
H232 H 0.93312 0.35963 0.80335 0.0
H233 H 0.94146 0.33044 0.76128 0.0
H234 H 0.02237 0.21414 0.6812 0.0
H235 H 0.00673 0.2686 0.70399 0.0
C236 C 0.31688 0.02792 0.23929 0.0
C237 C 0.34926 0.00829 0.2421 0.0
C238 C 0.28806 0.02278 0.25542 0.0
C239 C 0.24462 0.95276 0.28923 0.0
H240 H 0.18423 0.03189 0.31243 0.0
C241 C 0.09447 0.93008 0.31665 0.0
C242 C 0.07087 0.95447 0.3049 0.0
C243 C 0.13196 0.93691 0.31737 0.0
C244 C 0.20086 0.00943 0.30623 0.0
H245 H 0.37751 0.96864 0.26422 0.0
H246 H 0.32602 0.95852 0.29216 0.0
H247 H 0.24596 0.04433 0.29835 0.0
H248 H 0.06797 0.00603 0.28584 0.0
H249 H 0.13268 0.01757 0.28684 0.0
H250 H 0.19864 0.91825 0.29523 0.0
C251 C 0.32346 0.97836 0.27769 0.0
C252 C 0.23621 0.01656 0.29831 0.0
C253 C 0.3528 0.98419 0.26181 0.0
C254 C 0.08532 0.98646 0.29486 0.0
C255 C 0.12252 0.99334 0.29571 0.0
C256 C 0.20906 0.94564 0.29696 0.0
C257 C 0.29072 -0.00262 0.27441 0.0
C258 C 0.25779 0.98855 0.28873 0.0
C259 C 0.14641 0.96843 0.30661 0.0
C260 C 0.18625 0.97422 0.30441 0.0
H261 H 0.31357 0.04676 0.22428 0.0
H262 H 0.26297 0.03743 0.25227 0.0
H263 H 0.26068 0.93072 0.28178 0.0
H264 H 0.08417 0.90523 0.32463 0.0
H265 H 0.14968 0.91728 0.32599 0.0
C266 C 0.44438 0.27861 0.71042 0.0
C267 C 0.44117 0.31173 0.72298 0.0
C268 C 0.44824 0.24626 0.72329 0.0
C269 C 0.48768 0.21357 0.77927 0.0
H270 H 0.44646 0.12186 0.75806 0.0
C271 C 0.53834 0.07272 0.81338 0.0
C272 C 0.54376 0.04752 0.79437 0.0
C273 C 0.52055 0.10559 0.8088 0.0
C274 C 0.4581 0.1473 0.76424 0.0
H275 H 0.43759 0.33674 0.75889 0.0
H276 H 0.44488 0.28001 0.78135 0.0
H277 H 0.42142 0.17856 0.74247 0.0
H278 H 0.53628 0.03784 0.75549 0.0
H279 H 0.50599 0.09486 0.74762 0.0
H280 H 0.52565 0.1822 0.80004 0.0
C281 C 0.44437 0.27927 0.76156 0.0
C282 C 0.44371 0.17965 0.75539 0.0
C283 C 0.44007 0.31164 0.74868 0.0
C284 C 0.53218 0.05636 0.77065 0.0
C285 C 0.51449 0.08894 0.76614 0.0
C286 C 0.50221 0.18113 0.78808 0.0
C287 C 0.44927 0.24644 0.74896 0.0
C288 C 0.45925 0.21298 0.76212 0.0
C289 C 0.50786 0.11357 0.7852 0.0
C290 C 0.48845 0.14773 0.77984 0.0
H291 H 0.44506 0.27778 0.69064 0.0
H292 H 0.45233 0.22133 0.71312 0.0
H293 H 0.50031 0.23896 0.78462 0.0
H294 H 0.54686 0.06663 0.83186 0.0
H295 H 0.51594 0.1243 0.82377 0.0
C296 C 0.6329 0.49698 0.22385 0.0
C297 C 0.63723 0.516 0.24595 0.0
C298 C 0.66221 0.49342 0.20769 0.0
C299 C 0.75199 0.53096 0.19209 0.0
H300 H 0.78433 0.43115 0.1864 0.0
C301 C 0.89978 0.4917 0.19912 0.0
C302 C 0.91371 0.46134 0.18671 0.0
C303 C 0.8633 0.50108 0.19695 0.0
C304 C 0.77539 0.45913 0.18707 0.0
H305 H 0.67441 0.54809 0.26787 0.0
H306 H 0.72512 0.54264 0.23951 0.0
H307 H 0.72222 0.44396 0.19937 0.0
H308 H 0.9005 0.41788 0.16136 0.0
H309 H 0.83619 0.43421 0.15776 0.0
H310 H 0.80562 0.54627 0.18108 0.0
C311 C 0.69937 0.53024 0.23469 0.0
C312 C 0.73979 0.46644 0.19451 0.0
C313 C 0.6705 0.53305 0.25102 0.0
C314 C 0.89053 0.44133 0.17127 0.0
C315 C 0.85375 0.45063 0.16921 0.0
C316 C 0.78741 0.52369 0.18445 0.0
C317 C 0.69577 0.50975 0.21316 0.0
C318 C 0.72853 0.5024 0.19836 0.0
C319 C 0.83969 0.48033 0.18233 0.0
C320 C 0.80009 0.48773 0.18326 0.0
H321 H 0.60745 0.48354 0.21961 0.0
H322 H 0.65896 0.47733 0.19124 0.0
H323 H 0.74369 0.55893 0.19467 0.0
H324 H 0.91692 0.50796 0.21097 0.0
H325 H 0.8533 0.52372 0.20766 0.0
C326 C 0.05805 0.91781 0.68585 0.0
C327 C 0.04179 0.94954 0.69501 0.0
C328 C 0.04494 0.88371 0.69284 0.0
C329 C 0.02871 0.82123 0.72798 0.0
H330 H 0.92569 0.7994 0.733 0.0
C331 C 0.97462 0.71337 0.79318 0.0
C332 C 0.95123 0.687 0.7832 0.0
C333 C 0.98324 0.74454 0.78004 0.0
C334 C 0.95451 0.80505 0.73149 0.0
H335 H -0.00204 0.9705 0.71759 0.0
H336 H 0.97522 0.91123 0.7296 0.0
H337 H 0.94561 0.85477 0.71213 0.0
H338 H 0.9168 0.67387 0.75217 0.0
H339 H 0.93154 0.72903 0.72938 0.0
H340 H 0.03763 0.77218 0.74794 0.0
C341 C -0.00195 0.91262 0.71713 0.0
C342 C 0.96588 0.83666 0.71966 0.0
C343 C 0.01139 0.94655 0.71045 0.0
C344 C 0.93504 0.69356 0.76034 0.0
C345 C 0.94343 0.72506 0.74728 0.0
C346 C 0.01734 0.7899 0.74002 0.0
C347 C 0.01501 0.88089 0.70871 0.0
C348 C 0.00306 0.8453 0.71819 0.0
C349 C 0.9684 0.75025 0.75677 0.0
C350 C 0.98014 0.78192 0.74228 0.0
H351 H 0.08143 0.91933 0.67387 0.0
H352 H 0.05839 0.85955 0.68607 0.0
H353 H 0.0575 0.82741 0.72729 0.0
H354 H 0.98747 0.70939 0.81077 0.0
H355 H 0.00204 0.76397 0.78793 0.0
C356 C 0.58582 -2e-05 0.18276 0.0
C357 C 0.57037 0.03235 0.17407 0.0
C358 C 0.62337 -0.00496 0.18245 0.0
C359 C 0.70448 0.98664 0.1757 0.0
H360 H 0.75158 0.06737 0.20848 0.0
C361 C 0.84714 0.97614 0.22135 0.0
C362 C 0.84551 0.9864 0.2461 0.0
C363 C 0.8183 0.98432 0.20553 0.0
C364 C 0.739 0.04479 0.19897 0.0
H365 H 0.58202 0.08392 0.15671 0.0
H366 H 0.64806 0.07542 0.15648 0.0
H367 H 0.69105 0.07536 0.19131 0.0
H368 H 0.81302 0.01426 0.27344 0.0
H369 H 0.76336 0.02862 0.24599 0.0
H370 H 0.75167 0.95545 0.18495 0.0
C371 C 0.63092 0.05394 0.16356 0.0
C372 C 0.70445 0.04942 0.18894 0.0
C373 C 0.59316 0.05876 0.16364 0.0
C374 C 0.81504 0.00567 0.25454 0.0
C375 C 0.78673 0.01431 0.23874 0.0
C376 C 0.73919 0.98206 0.18565 0.0
C377 C 0.64644 0.02244 0.17361 0.0
C378 C 0.68612 0.01993 0.17823 0.0
C379 C 0.7879 0.00358 0.21414 0.0
C380 C 0.75596 0.01064 0.19839 0.0
H381 H 0.56895 0.9789 0.19063 0.0
H382 H 0.63437 0.97063 0.19058 0.0
H383 H 0.69117 0.96355 0.16726 0.0
H384 H 0.8703 0.96127 0.21434 0.0
H385 H 0.81973 0.97562 0.18663 0.0
C386 C 0.45345 0.56015 0.71955 0.0
C387 C 0.44516 0.54963 0.6955 0.0
C388 C 0.47129 0.59269 0.72416 0.0
C389 C 0.49142 0.68263 0.70169 0.0
H390 H 0.57077 0.67553 0.74821 0.0
C391 C 0.56 0.80982 0.74183 0.0
C392 C 0.55884 0.80994 0.76754 0.0
C393 C 0.55427 0.77766 0.72882 0.0
C394 C 0.54889 0.67791 0.73507 0.0
H395 H 0.44708 0.5661 0.65748 0.0
H396 H 0.47813 0.62395 0.66575 0.0
H397 H 0.54201 0.62039 0.73274 0.0
H398 H 0.55367 0.77607 0.79973 0.0
H399 H 0.54386 0.72008 0.77708 0.0
H400 H 0.4972 0.74028 0.70494 0.0
C401 C 0.471 0.60644 0.68089 0.0
C402 C 0.53242 0.64645 0.72625 0.0
C403 C 0.45311 0.57354 0.67621 0.0
C404 C 0.55445 0.77692 0.77995 0.0
C405 C 0.54909 0.74478 0.76696 0.0
C406 C 0.50793 0.71423 0.71054 0.0
C407 C 0.48122 0.61561 0.70486 0.0
C408 C 0.5026 0.64859 0.71028 0.0
C409 C 0.5478 0.74504 0.74129 0.0
C410 C 0.53587 0.7121 0.72804 0.0
H411 H 0.44717 0.54267 0.73488 0.0
H412 H 0.4779 0.59968 0.74289 0.0
H413 H 0.46848 0.68493 0.68938 0.0
H414 H 0.56338 0.83483 0.73172 0.0
H415 H 0.55371 0.77848 0.70904 0.0
C416 C 0.8193 0.54058 0.75459 0.0
C417 C 0.82037 0.54559 0.78008 0.0
C418 C 0.7876 0.528 0.74324 0.0
C419 C 0.70834 0.47267 0.75844 0.0
H420 H 0.66709 0.50711 0.69757 0.0
C421 C 0.56379 0.43803 0.72944 0.0
C422 C 0.55641 0.43004 0.70481 0.0
C423 C 0.59809 0.44987 0.73658 0.0
C424 C 0.67873 0.49684 0.71436 0.0
H425 H 0.78805 0.54451 0.81328 0.0
H426 H 0.73293 0.52306 0.79346 0.0
H427 H 0.7222 0.5358 0.7139 0.0
H428 H 0.57953 0.42757 0.66839 0.0
H429 H 0.64008 0.44846 0.68104 0.0
H430 H 0.665 0.43406 0.75918 0.0
C431 C 0.75683 0.52788 0.78236 0.0
C432 C 0.71009 0.51335 0.72374 0.0
C433 C 0.78838 0.54038 0.79368 0.0
C434 C 0.58448 0.43335 0.68751 0.0
C435 C 0.61897 0.44557 0.69469 0.0
C436 C 0.67723 0.4562 0.74909 0.0
C437 C 0.75652 0.52027 0.7572 0.0
C438 C 0.72464 0.50192 0.74618 0.0
C439 C 0.62595 0.45413 0.7193 0.0
C440 C 0.6616 0.46863 0.72726 0.0
H441 H 0.84347 0.54441 0.74358 0.0
H442 H 0.78805 0.52245 0.7238 0.0
H443 H 0.71955 0.46262 0.77543 0.0
H444 H 0.54283 0.43569 0.74326 0.0
H445 H 0.60247 0.4567 0.75562 0.0
C446 C 0.061 0.59853 0.17708 0.0
C447 C 0.03697 0.57534 0.18957 0.0
C448 C 0.05314 0.63562 0.17483 0.0
C449 C 0.04101 0.71403 0.19225 0.0
H450 H 0.94078 0.74624 0.18852 0.0
C451 C 0.95327 0.81993 0.24698 0.0
C452 C 0.97107 0.85318 0.24339 0.0
C453 C 0.95986 0.79077 0.23137 0.0
C454 C 0.96897 0.7378 0.18913 0.0
H455 H 0.98509 0.57264 0.20847 0.0
H456 H 0.97181 0.63659 0.20485 0.0
H457 H 0.95634 0.6844 0.17631 0.0
H458 H 0.00895 0.88257 0.22042 0.0
H459 H 0.02171 0.83058 0.19346 0.0
H460 H 0.05318 0.76709 0.20621 0.0
C461 C -0.00347 0.62642 0.19656 0.0
C462 C 0.97789 0.70242 0.18229 0.0
C463 C 0.00444 0.5897 0.19895 0.0
C464 C 0.99477 0.85718 0.22342 0.0
C465 C 0.0021 0.82758 0.2081 0.0
C466 C 0.03212 0.74962 0.19886 0.0
C467 C 0.02089 0.64994 0.18474 0.0
C468 C 0.01361 0.68955 0.18513 0.0
C469 C 0.98497 0.79404 0.21217 0.0
C470 C -0.00427 0.76109 0.19857 0.0
H471 H 0.08622 0.58824 0.16956 0.0
H472 H 0.07241 0.65313 0.16562 0.0
H473 H 0.06875 0.70493 0.1947 0.0
H474 H 0.9348 0.81626 0.26221 0.0
H475 H 0.94668 0.76504 0.23508 0.0
C476 C 0.913 0.06279 0.67706 0.0
C477 C 0.93872 0.07431 0.69442 0.0
C478 C 0.87854 0.05113 0.68458 0.0
C479 C 0.81486 0.05309 0.73687 0.0
H480 H 0.7836 0.9587 0.71323 0.0
C481 C 0.7083 0.97093 0.78847 0.0
C482 C 0.67966 0.95619 0.77462 0.0
C483 C 0.73924 0.98456 0.77698 0.0
C484 C 0.7918 0.98524 0.71979 0.0
H485 H 0.94793 0.08468 0.73298 0.0
H486 H 0.88818 0.0646 0.74596 0.0
H487 H 0.83691 0.98788 0.69508 0.0
H488 H 0.66229 0.94201 0.73787 0.0
H489 H 0.7165 0.96586 0.71787 0.0
H490 H 0.77034 0.05027 0.76187 0.0
C491 C 0.89441 0.06448 0.72661 0.0
C492 C 0.82214 0.00202 0.70933 0.0
C493 C 0.92876 0.07576 0.71918 0.0
C494 C 0.68375 0.9533 0.74911 0.0
C495 C 0.71481 0.96693 0.73762 0.0
C496 C 0.78468 0.03634 0.74732 0.0
C497 C 0.86919 0.05131 0.70949 0.0
C498 C 0.83437 0.03578 0.71813 0.0
C499 C 0.74231 0.9837 0.7514 0.0
C500 C 0.77329 0.00193 0.73925 0.0
H501 H 0.92 0.06127 0.65786 0.0
H502 H 0.85945 0.04137 0.67099 0.0
H503 H 0.82333 0.07938 0.74375 0.0
H504 H 0.7063 0.97326 0.80816 0.0
H505 H 0.76047 -0.00344 0.78811 0.0
C506 C 0.48465 0.89907 0.1726 0.0
C507 C 0.44838 0.90953 0.17599 0.0
C508 C 0.49428 0.86253 0.17341 0.0
C509 C 0.51023 0.79499 0.20114 0.0
H510 H 0.44737 0.71217 0.18947 0.0
C511 C 0.50978 0.67351 0.26424 0.0
C512 C 0.5084 0.63825 0.25442 0.0
C513 C 0.50551 0.70362 0.24925 0.0
C514 C 0.46552 0.73493 0.19246 0.0
H515 H 0.39326 0.89055 0.18111 0.0
H516 H 0.41015 0.82657 0.18395 0.0
H517 H 0.43412 0.77016 0.1696 0.0
H518 H 0.50114 0.60704 0.22106 0.0
H519 H 0.4934 0.66025 0.19474 0.0
H520 H 0.54118 0.76018 0.22428 0.0
C521 C 0.43115 0.84626 0.1799 0.0
C522 C 0.45777 0.76819 0.1813 0.0
C523 C 0.42141 0.88289 0.17843 0.0
C524 C 0.50245 0.63386 0.22917 0.0
C525 C 0.49788 0.66421 0.21412 0.0
C526 C 0.51798 0.7619 0.21214 0.0
C527 C 0.46796 0.83586 0.17849 0.0
C528 C 0.47939 0.79893 0.18618 0.0
C529 C 0.49968 0.69935 0.22406 0.0
C530 C 0.49495 0.73196 0.20869 0.0
H531 H 0.50578 0.91932 0.17034 0.0
H532 H 0.52269 0.85541 0.17149 0.0
H533 H 0.52732 0.81798 0.20567 0.0
H534 H 0.51431 0.678 0.28357 0.0
H535 H 0.50634 0.73039 0.25749 0.0
C536 C 0.28306 0.44653 0.7028 0.0
C537 C 0.31561 0.44828 0.71611 0.0
C538 C 0.25008 0.45547 0.71397 0.0
C539 C 0.20855 0.47843 0.7748 0.0
H540 H 0.14081 0.53127 0.7341 0.0
C541 C 0.0729 0.53464 0.81233 0.0
C542 C 0.05826 0.56552 0.80117 0.0
C543 C 0.10438 0.51867 0.80298 0.0
C544 C 0.1597 0.51718 0.7459 0.0
H545 H 0.33921 0.45984 0.75161 0.0
H546 H 0.28254 0.47722 0.77061 0.0
H547 H 0.19425 0.50463 0.71583 0.0
H548 H 0.06532 0.60531 0.7726 0.0
H549 H 0.12197 0.57946 0.75743 0.0
H550 H 0.17542 0.49346 0.80517 0.0
C551 C 0.28177 0.4677 0.7519 0.0
C552 C 0.19006 0.501 0.73524 0.0
C553 C 0.31448 0.45792 0.74092 0.0
C554 C 0.07642 0.5815 0.78147 0.0
C555 C 0.10848 0.56624 0.77257 0.0
C556 C 0.17865 0.49543 0.78556 0.0
C557 C 0.24916 0.46726 0.73848 0.0
C558 C 0.21513 0.48166 0.74956 0.0
C559 C 0.1222 0.53385 0.78263 0.0
C560 C 0.15397 0.51534 0.77128 0.0
H561 H 0.28317 0.4388 0.68369 0.0
H562 H 0.22545 0.45382 0.7032 0.0
H563 H 0.22672 0.46312 0.78641 0.0
H564 H 0.05872 0.52152 0.82727 0.0
H565 H 0.11363 0.49353 0.81105 0.0
C566 C 0.01316 0.35214 0.27321 0.0
C567 C -0.00101 0.35289 0.24936 0.0
C568 C 0.00511 0.32308 0.28878 0.0
C569 C 0.94109 0.24688 0.29744 0.0
H570 H 0.02501 0.19134 0.31816 0.0
C571 C 0.98035 0.09087 0.29892 0.0
C572 C 0.94962 0.07523 0.30996 0.0
C573 C 0.98702 0.12797 0.30104 0.0
C574 C 0.00126 0.2068 0.31286 0.0
H575 H 0.964 0.32493 0.22351 0.0
H576 H 0.9498 0.27479 0.25058 0.0
H577 H 0.03311 0.25353 0.30365 0.0
H578 H 0.90289 0.08597 0.33307 0.0
H579 H 0.91435 0.15125 0.33643 0.0
H580 H 0.90954 0.19944 0.30484 0.0
C581 C 0.96711 0.29643 0.25732 0.0
C582 C 0.00587 0.24245 0.30476 0.0
C583 C 0.97563 0.32493 0.2417 0.0
C584 C 0.92667 0.09726 0.32421 0.0
C585 C 0.9332 0.13459 0.32615 0.0
C586 C 0.93645 0.21135 0.30563 0.0
C587 C 0.98209 0.29493 0.28087 0.0
C588 C 0.97605 0.26205 0.29577 0.0
C589 C 0.96303 0.1504 0.31413 0.0
C590 C 0.96675 0.19035 0.3122 0.0
H591 H 0.03123 0.37341 0.27956 0.0
H592 H 0.01711 0.32236 0.30685 0.0
H593 H 0.91763 0.26165 0.29083 0.0
H594 H -0.00116 0.0746 0.28806 0.0
H595 H 0.00995 0.13936 0.29127 0.0
C596 C 0.41296 0.92789 0.80397 0.0
C597 C 0.44026 0.92301 0.78628 0.0
C598 C 0.3783 0.93975 0.79706 0.0
C599 C 0.31771 0.9481 0.74355 0.0
H600 H 0.27747 0.03163 0.77731 0.0
C601 C 0.20878 0.0344 0.69862 0.0
C602 C 0.1777 0.04232 0.71258 0.0
C603 C 0.23997 0.02081 0.70974 0.0
C604 C 0.2882 0.00808 0.7679 0.0
H605 H 0.45221 0.92506 0.74747 0.0
H606 H 0.39215 0.9454 0.73552 0.0
H607 H 0.33206 0.00204 0.79337 0.0
H608 H 0.15599 0.04466 0.74944 0.0
H609 H 0.21082 0.02086 0.76888 0.0
H610 H 0.27453 0.95438 0.71784 0.0
C611 C 0.3973 0.94014 0.75468 0.0
C612 C 0.31929 0.99105 0.77713 0.0
C613 C 0.43183 0.92869 0.76156 0.0
C614 C 0.17945 0.03878 0.73815 0.0
C615 C 0.21081 0.02512 0.7493 0.0
C616 C 0.28684 0.96509 0.73434 0.0
C617 C 0.37032 0.94637 0.77234 0.0
C618 C 0.33478 0.9614 0.7647 0.0
C619 C 0.24085 0.0148 0.73505 0.0
C620 C 0.27226 -0.00424 0.74607 0.0
H621 H 0.41875 0.92389 0.82318 0.0
H622 H 0.35788 0.94413 0.81102 0.0
H623 H 0.32866 0.92489 0.73385 0.0
H624 H 0.20859 0.03729 0.67893 0.0
H625 H 0.26312 0.01399 0.69838 0.0
C626 C 0.5047 0.39521 0.29396 0.0
C627 C 0.53681 0.40851 0.30466 0.0
C628 C 0.49692 0.35827 0.29402 0.0
C629 C 0.54198 0.27044 0.29451 0.0
H630 H 0.44189 0.23706 0.2938 0.0
C631 C 0.49697 0.1281 0.25902 0.0
C632 C 0.4746 0.13269 0.23844 0.0
C633 C 0.50409 0.15746 0.27462 0.0
C634 C 0.47001 0.24583 0.29436 0.0
H635 H 0.58533 0.39335 0.32469 0.0
H636 H 0.57165 0.32814 0.32468 0.0
H637 H 0.45608 0.29767 0.30924 0.0
H638 H 0.44075 0.17066 0.21861 0.0
H639 H 0.45223 0.22147 0.24623 0.0
H640 H 0.55552 0.21882 0.27874 0.0
C641 C 0.55267 0.34664 0.31615 0.0
C642 C 0.47816 0.28052 0.30305 0.0
C643 C 0.56044 0.38393 0.31621 0.0
C644 C 0.45822 0.16649 0.2343 0.0
C645 C 0.46457 0.19543 0.25016 0.0
C646 C 0.53384 0.23547 0.2861 0.0
C647 C 0.52095 0.33343 0.30481 0.0
C648 C 0.51395 0.29393 0.30196 0.0
C649 C 0.48802 0.19137 0.2702 0.0
C650 C 0.49759 0.22365 0.28488 0.0
H651 H 0.48565 0.41331 0.28509 0.0
H652 H 0.47261 0.34909 0.28469 0.0
H653 H 0.5698 0.27995 0.29334 0.0
H654 H 0.51005 0.10229 0.26249 0.0
H655 H 0.5224 0.15387 0.28992 0.0
C656 C 0.16689 0.35976 0.16698 0.0
C657 C 0.12972 0.35115 0.16885 0.0
C658 C 0.19288 0.33235 0.1649 0.0
C659 C 0.20739 0.23527 0.17728 0.0
H660 H 0.28881 0.24664 0.1329 0.0
C661 C 0.30998 0.12009 0.15963 0.0
C662 C 0.34698 0.12979 0.15927 0.0
C663 C 0.28303 0.14674 0.15962 0.0
C664 C 0.26639 0.24323 0.14552 0.0
H665 H 0.09084 0.30676 0.16986 0.0
H666 H 0.13625 0.259 0.16602 0.0
H667 H 0.2424 0.29379 0.13516 0.0
H668 H 0.38453 0.17532 0.15827 0.0
H669 H 0.33746 0.22174 0.15841 0.0
H670 H 0.23147 0.18482 0.18775 0.0
C671 C 0.14524 0.28701 0.16645 0.0
C672 C 0.23983 0.27022 0.14683 0.0
C673 C 0.1192 0.31442 0.16852 0.0
C674 C 0.35634 0.16681 0.15849 0.0
C675 C 0.32935 0.19346 0.15846 0.0
C676 C 0.23394 0.20828 0.17597 0.0
C677 C 0.18236 0.29568 0.16464 0.0
C678 C 0.21011 0.2666 0.1628 0.0
C679 C 0.29242 0.18371 0.15922 0.0
C680 C 0.2638 0.21202 0.16014 0.0
H681 H 0.17605 0.38772 0.16727 0.0
H682 H 0.2213 0.33991 0.1639 0.0
H683 H 0.18513 0.23194 0.19004 0.0
H684 H 0.30172 0.09186 0.16017 0.0
H685 H 0.25479 0.13837 0.15988 0.0
C686 C 0.13609 0.17549 0.6136 0.0
C687 C 0.14235 0.138 0.61597 0.0
C688 C 0.16428 0.19886 0.60693 0.0
C689 C 0.26285 0.20397 0.61269 0.0
H690 H 0.25048 0.29506 0.57832 0.0
C691 C 0.37422 0.31234 0.61587 0.0
C692 C 0.3618 0.34715 0.62237 0.0
C693 C 0.34984 0.28577 0.60788 0.0
C694 C 0.25436 0.26969 0.58793 0.0
H695 H 0.18251 0.0954 0.61116 0.0
H696 H 0.23153 0.13623 0.59928 0.0
H697 H 0.20251 0.24913 0.57657 0.0
H698 H 0.31421 0.38188 0.62414 0.0
H699 H 0.27171 0.33537 0.61069 0.0
H700 H 0.31383 0.22485 0.62493 0.0
C701 C 0.20497 0.14757 0.6031 0.0
C702 C 0.22693 0.2434 0.58692 0.0
C703 C 0.1768 0.12417 0.60984 0.0
C704 C 0.32474 0.35535 0.61937 0.0
C705 C 0.30035 0.32871 0.61147 0.0
C706 C 0.2902 0.23016 0.61369 0.0
C707 C 0.19932 0.18528 0.60238 0.0
C708 C 0.23048 0.21066 0.59985 0.0
C709 C 0.31249 0.29334 0.60629 0.0
C710 C 0.28586 0.26372 0.60189 0.0
H711 H 0.10988 0.18713 0.61804 0.0
H712 H 0.15904 0.22779 0.60676 0.0
H713 H 0.26628 0.17933 0.6232 0.0
H714 H 0.40265 0.30519 0.61762 0.0
H715 H 0.36012 0.25894 0.60361 0.0
C716 C 0.86001 0.81727 0.32764 0.0
C717 C 0.84958 0.85395 0.32628 0.0
C718 C 0.83388 0.78987 0.32931 0.0
C719 C 0.73824 0.7728 0.34605 0.0
H720 H 0.75046 0.68608 0.30659 0.0
C721 C 0.6245 0.66603 0.33325 0.0
C722 C 0.63463 0.62922 0.3326 0.0
C723 C 0.65091 0.69332 0.33377 0.0
C724 C 0.74688 0.70989 0.31799 0.0
H725 H 0.80326 0.89044 0.32578 0.0
H726 H 0.7577 0.84251 0.32854 0.0
H727 H 0.79605 0.73402 0.30487 0.0
H728 H 0.68066 0.59236 0.33262 0.0
H729 H 0.72659 0.63995 0.33385 0.0
H730 H 0.68897 0.74866 0.35911 0.0
C731 C 0.78618 0.83507 0.32855 0.0
C732 C 0.77299 0.73738 0.31697 0.0
C733 C 0.81233 0.86253 0.32683 0.0
C734 C 0.67181 0.62039 0.333 0.0
C735 C 0.6982 0.64769 0.33355 0.0
C736 C 0.71212 0.74525 0.34709 0.0
C737 C 0.79667 0.79843 0.3297 0.0
C738 C 0.76896 0.76917 0.33097 0.0
C739 C 0.68806 0.68447 0.33368 0.0
C740 C 0.71612 0.7135 0.33304 0.0
H741 H 0.88842 0.80959 0.32732 0.0
H742 H 0.84285 0.76193 0.33048 0.0
H743 H 0.73461 0.79676 0.3573 0.0
H744 H 0.59615 0.67391 0.33288 0.0
H745 H 0.64218 0.72139 0.33359 0.0
C746 C 0.63273 0.81436 0.86903 0.0
C747 C 0.63972 0.85185 0.86771 0.0
C748 C 0.65955 0.79042 0.87705 0.0
C749 C 0.75863 0.78408 0.87884 0.0
H750 H 0.73919 0.69298 0.91179 0.0
C751 C 0.86938 0.67636 0.88509 0.0
C752 C 0.85843 0.64173 0.87707 0.0
C753 C 0.8436 0.70252 0.89138 0.0
C754 C 0.74503 0.71836 0.90262 0.0
H755 H 0.67969 0.89377 0.87543 0.0
H756 H 0.72631 0.85198 0.88971 0.0
H757 H 0.69161 0.73914 0.90947 0.0
H758 H 0.81181 0.60664 0.8711 0.0
H759 H 0.76684 0.6525 0.88162 0.0
H760 H 0.8114 0.76304 0.87113 0.0
C761 C 0.70028 0.84107 0.88404 0.0
C762 C 0.71781 0.74476 0.90128 0.0
C763 C 0.6735 0.86502 0.87591 0.0
C764 C 0.82119 0.63306 0.87713 0.0
C765 C 0.79538 0.65933 0.8833 0.0
C766 C 0.78577 0.75779 0.88021 0.0
C767 C 0.69396 0.80341 0.88405 0.0
C768 C 0.72405 0.77755 0.88883 0.0
C769 C 0.80628 0.69472 0.88966 0.0
C770 C 0.77903 0.72428 0.89158 0.0
H771 H 0.60701 0.8032 0.86293 0.0
H772 H 0.65387 0.76157 0.87656 0.0
H773 H 0.76423 0.80872 0.86875 0.0
H774 H 0.89787 0.68378 0.88564 0.0
H775 H 0.85287 0.72931 0.8967 0.0
C776 C 0.00104 0.54442 0.91906 0.0
C777 C 0.97455 0.52564 0.90547 0.0
C778 C 0.01225 0.53146 0.94177 0.0
C779 C 0.97799 0.47675 0.99235 0.0
H780 H 0.07691 0.484 0.01642 0.0
C781 C 0.01676 0.42945 0.08878 0.0
C782 C 0.03946 0.45271 0.10234 0.0
C783 C 0.01133 0.43516 0.06388 0.0
C784 C 0.04914 0.48205 0.00997 0.0
H785 H 0.94057 0.47738 0.90453 0.0
H786 H 0.96038 0.45472 0.9441 0.0
H787 H 0.0638 0.49859 0.97379 0.0
H788 H 0.0746 0.50001 0.10023 0.0
H789 H 0.06458 0.51028 0.05678 0.0
H790 H 0.96309 0.46099 0.02852 0.0
C791 C 0.97197 0.4798 0.93732 0.0
C792 C 0.04166 0.49032 0.98559 0.0
C793 C 0.96075 0.49274 0.91461 0.0
C794 C 0.05695 0.48157 0.09034 0.0
C795 C 0.05143 0.48731 0.06541 0.0
C796 C 0.98544 0.46854 0.01668 0.0
C797 C -0.00276 0.49944 0.95136 0.0
C798 C 0.00594 0.48806 0.97661 0.0
C799 C 0.02837 0.4643 0.05196 0.0
C800 C 0.02102 0.47141 0.02581 0.0
H801 H 0.01237 0.56977 0.91255 0.0
H802 H 0.03154 0.54735 0.95226 0.0
H803 H 0.95009 0.47541 0.98609 0.0
H804 H 0.00308 0.40675 0.09735 0.0
H805 H 0.9938 0.41666 0.05393 0.0
C806 C 0.03597 -0.00249 0.57716 0.0
C807 C 0.01975 0.0276 0.58865 0.0
C808 C 0.0236 0.98551 0.55443 0.0
C809 C 0.97638 0.02013 0.50026 0.0
H810 H 0.97484 0.91886 0.48066 0.0
C811 C 0.92595 0.97562 0.40566 0.0
C812 C 0.94772 0.95051 0.39295 0.0
C813 C 0.93218 0.98285 0.43031 0.0
C814 C 0.97538 0.94724 0.48588 0.0
H815 H 0.97638 0.0673 0.58591 0.0
H816 H 0.95445 0.04593 0.54644 0.0
H817 H 0.98875 0.93487 0.52301 0.0
H818 H 0.99272 0.91279 0.39642 0.0
H819 H 0.00371 0.92573 0.43957 0.0
H820 H 0.9633 0.03256 0.46319 0.0
C821 C 0.97731 0.03219 0.55476 0.0
C822 C 0.98331 0.95642 0.51009 0.0
C823 C 0.98979 0.04432 0.57744 0.0
C824 C 0.97549 0.93233 0.40563 0.0
C825 C 0.98165 0.93954 0.43037 0.0
C826 C 0.96834 0.01096 0.47615 0.0
C827 C 0.99462 0.0032 0.54275 0.0
C828 C 0.98409 0.993 0.5175 0.0
C829 C 0.96027 0.96515 0.44286 0.0
C830 C 0.96794 0.97447 0.46867 0.0
H831 H 0.05909 0.98394 0.58527 0.0
H832 H 0.03775 0.96332 0.54557 0.0
H833 H 0.97753 0.04859 0.50522 0.0
H834 H 0.90417 0.99001 0.39657 0.0
H835 H 0.91496 0.00237 0.43956 0.0
C836 C 0.48488 0.93843 0.90582 0.0
C837 C 0.51396 0.95763 0.89525 0.0
C838 C 0.47074 0.9491 0.9284 0.0
C839 C 0.46923 0.02472 0.97328 0.0
H840 H 0.45678 0.94735 0.02049 0.0
C841 C 0.46578 0.04976 0.07721 0.0
C842 C 0.4408 0.02962 0.09115 0.0
C843 C 0.47051 0.04233 0.05238 0.0
C844 C 0.45957 0.96923 0.00744 0.0
H845 H 0.5498 0.00412 0.89969 0.0
H846 H 0.52548 0.02227 0.93909 0.0
H847 H 0.47117 0.93241 0.97824 0.0
H848 H 0.40082 0.98617 0.08973 0.0
H849 H 0.4091 0.97342 0.04645 0.0
H850 H 0.45847 0.06155 0.00272 0.0
C851 C 0.51338 -0.00081 0.92985 0.0
C852 C 0.46774 0.96068 0.98321 0.0
C853 C 0.52752 0.98857 0.90731 0.0
C854 C 0.42044 0.00213 0.07962 0.0
C855 C 0.42523 -0.0053 0.05482 0.0
C856 C 0.46111 0.03328 -0.00246 0.0
C857 C 0.48531 0.97918 0.94086 0.0
C858 C 0.47316 0.98833 0.96595 0.0
C859 C 0.45043 0.01459 0.04098 0.0
C860 C 0.4567 0.00563 0.01492 0.0
H861 H 0.47359 0.91464 0.89696 0.0
H862 H 0.44873 0.93346 0.93629 0.0
H863 H 0.47274 0.0466 0.9603 0.0
H864 H 0.48192 0.07112 0.08547 0.0
H865 H 0.49049 0.05781 0.04224 0.0
C866 C 0.56515 0.49714 0.40841 0.0
C867 C 0.5433 0.52349 0.39706 0.0
C868 C 0.56187 0.49044 0.43342 0.0
C869 C 0.5278 0.53114 0.49072 0.0
H870 H 0.5233 0.43142 0.51305 0.0
C871 C 0.46576 0.48902 0.58275 0.0
C872 C 0.4812 0.45967 0.59542 0.0
C873 C 0.47908 0.49911 0.55989 0.0
C874 C 0.5252 0.45943 0.5072 0.0
H875 H 0.50066 0.56326 0.40317 0.0
H876 H 0.49468 0.55115 0.44662 0.0
H877 H 0.53506 0.44394 0.47011 0.0
H878 H 0.52417 0.41928 0.59456 0.0
H879 H 0.54749 0.43716 0.55468 0.0
H880 H 0.51707 0.54656 0.52775 0.0
C881 C 0.51477 0.53613 0.43625 0.0
C882 C 0.53187 0.46659 0.48258 0.0
C883 C 0.51801 0.54283 0.41128 0.0
C884 C 0.51141 0.44181 0.58522 0.0
C885 C 0.52469 0.45191 0.56233 0.0
C886 C 0.52112 0.52397 0.51534 0.0
C887 C 0.53672 0.50995 0.44759 0.0
C888 C 0.53259 0.50249 0.47402 0.0
C889 C 0.50814 0.48013 0.54921 0.0
C890 C 0.51914 0.48802 0.52374 0.0
H891 H 0.58502 0.48183 0.39805 0.0
H892 H 0.57933 0.47027 0.44171 0.0
H893 H 0.52887 0.55911 0.4847 0.0
H894 H 0.44258 0.50351 0.59008 0.0
H895 H 0.46553 0.52077 0.55013 0.0
loop_
_geom_bond_atom_site_label_1
_geom_bond_atom_site_label_2
_geom_bond_distance
_geom_bond_site_symmetry_2
_ccdc_geom_bond_type
Sc0 O3 2.025 . S
Sc0 O10 2.105 . S
Sc0 O13 2.105 . S
Sc0 O16 2.105 . S
Sc0 O19 2.105 . S
Sc1 O3 2.025 . S
Sc1 O11 2.105 . S
Sc1 O15 2.105 . S
Sc1 O17 2.105 . S
Sc1 O21 2.105 1_455 S
Sc2 O3 2.025 . S
Sc2 O12 2.105 1_455 S
Sc2 O14 2.105 . S
Sc2 O18 2.105 . S
Sc2 O20 2.105 . S
O3 Sc0 2.025 . S
O3 Sc1 2.025 . S
O3 Sc2 2.025 . S
C4 O10 1.268 . S
C4 O20 1.268 . S
C5 O11 1.268 . S
C5 O19 1.268 . S
C6 O12 1.268 . S
C6 O21 1.268 . S
C7 O13 1.268 . S
C7 O17 1.268 . S
C8 O14 1.268 . S
C8 O16 1.268 . S
C9 O15 1.268 . S
C9 O18 1.268 . S
O10 Sc0 2.105 . S
O10 C4 1.268 . S
O11 Sc1 2.105 . S
O11 C5 1.268 . S
O12 Sc2 2.105 1_655 S
O12 C6 1.268 . S
O13 Sc0 2.105 . S
O13 C7 1.268 . S
O14 Sc2 2.105 . S
O14 C8 1.268 . S
O15 Sc1 2.105 . S
O15 C9 1.268 . S
O16 Sc0 2.105 . S
O16 C8 1.268 . S
O17 Sc1 2.105 . S
O17 C7 1.268 . S
O18 Sc2 2.105 . S
O18 C9 1.268 . S
O19 Sc0 2.105 . S
O19 C5 1.268 . S
O20 Sc2 2.105 . S
O20 C4 1.268 . S
O21 Sc1 2.105 1_655 S
O21 C6 1.268 . S
Sc22 O25 2.025 . S
Sc22 O32 2.105 . S
Sc22 O35 2.105 1_545 S
Sc22 O38 2.105 . S
Sc22 O41 2.105 . S
Sc23 O25 2.025 . S
Sc23 O33 2.105 . S
Sc23 O37 2.105 1_455 S
Sc23 O39 2.105 1_545 S
Sc23 O43 2.105 . S
Sc24 O25 2.025 . S
Sc24 O34 2.105 . S
Sc24 O36 2.105 . S
Sc24 O40 2.105 1_455 S
Sc24 O42 2.105 . S
O25 Sc22 2.025 . S
O25 Sc23 2.025 . S
O25 Sc24 2.025 . S
C26 O32 1.268 . S
C26 O42 1.268 . S
C27 O33 1.268 . S
C27 O41 1.268 . S
C28 O34 1.268 . S
C28 O43 1.268 . S
C29 O35 1.268 . S
C29 O39 1.268 . S
C30 O36 1.268 . S
C30 O38 1.268 . S
C31 O37 1.268 . S
C31 O40 1.268 . S
O32 Sc22 2.105 . S
O32 C26 1.268 . S
O33 Sc23 2.105 . S
O33 C27 1.268 . S
O34 Sc24 2.105 . S
O34 C28 1.268 . S
O35 Sc22 2.105 1_565 S
O35 C29 1.268 . S
O36 Sc24 2.105 . S
O36 C30 1.268 . S
O37 Sc23 2.105 1_655 S
O37 C31 1.268 . S
O38 Sc22 2.105 . S
O38 C30 1.268 . S
O39 Sc23 2.105 1_565 S
O39 C29 1.268 . S
O40 Sc24 2.105 1_655 S
O40 C31 1.268 . S
O41 Sc22 2.105 . S
O41 C27 1.268 . S
O42 Sc24 2.105 . S
O42 C26 1.268 . S
O43 Sc23 2.105 . S
O43 C28 1.268 . S
Sc44 O47 2.025 . S
Sc44 O54 2.105 . S
Sc44 O57 2.105 . S
Sc44 O60 2.105 . S
Sc44 O63 2.105 . S
Sc45 O47 2.025 . S
Sc45 O55 2.105 . S
Sc45 O59 2.105 1_545 S
Sc45 O61 2.105 . S
Sc45 O65 2.105 . S
Sc46 O47 2.025 . S
Sc46 O56 2.105 . S
Sc46 O58 2.105 . S
Sc46 O62 2.105 1_545 S
Sc46 O64 2.105 . S
O47 Sc44 2.025 . S
O47 Sc45 2.025 . S
O47 Sc46 2.025 . S
C48 O54 1.268 . S
C48 O64 1.268 . S
C49 O55 1.268 . S
C49 O63 1.268 . S
C50 O56 1.268 . S
C50 O65 1.268 . S
C51 O57 1.268 . S
C51 O61 1.268 . S
C52 O58 1.268 . S
C52 O60 1.268 . S
C53 O59 1.268 . S
C53 O62 1.268 . S
O54 Sc44 2.105 . S
O54 C48 1.268 . S
O55 Sc45 2.105 . S
O55 C49 1.268 . S
O56 Sc46 2.105 . S
O56 C50 1.268 . S
O57 Sc44 2.105 . S
O57 C51 1.268 . S
O58 Sc46 2.105 . S
O58 C52 1.268 . S
O59 Sc45 2.105 1_565 S
O59 C53 1.268 . S
O60 Sc44 2.105 . S
O60 C52 1.268 . S
O61 Sc45 2.105 . S
O61 C51 1.268 . S
O62 Sc46 2.105 1_565 S
O62 C53 1.268 . S
O63 Sc44 2.105 . S
O63 C49 1.268 . S
O64 Sc46 2.105 . S
O64 C48 1.268 . S
O65 Sc45 2.105 . S
O65 C50 1.268 . S
Sc66 O69 2.025 . S
Sc66 O76 2.105 . S
Sc66 O79 2.105 . S
Sc66 O82 2.105 . S
Sc66 O85 2.105 . S
Sc67 O69 2.025 . S
Sc67 O77 2.105 . S
Sc67 O81 2.105 . S
Sc67 O83 2.105 . S
Sc67 O87 2.105 . S
Sc68 O69 2.025 . S
Sc68 O78 2.105 . S
Sc68 O80 2.105 . S
Sc68 O84 2.105 . S
Sc68 O86 2.105 . S
O69 Sc66 2.025 . S
O69 Sc67 2.025 . S
O69 Sc68 2.025 . S
C70 O76 1.268 . S
C70 O86 1.268 . S
C71 O77 1.268 . S
C71 O85 1.268 . S
C72 O78 1.268 . S
C72 O87 1.268 . S
C73 O79 1.268 . S
C73 O83 1.268 . S
C74 O80 1.268 . S
C74 O82 1.268 . S
C75 O81 1.268 . S
C75 O84 1.268 . S
O76 Sc66 2.105 . S
O76 C70 1.268 . S
O77 Sc67 2.105 . S
O77 C71 1.268 . S
O78 Sc68 2.105 . S
O78 C72 1.268 . S
O79 Sc66 2.105 . S
O79 C73 1.268 . S
O80 Sc68 2.105 . S
O80 C74 1.268 . S
O81 Sc67 2.105 . S
O81 C75 1.268 . S
O82 Sc66 2.105 . S
O82 C74 1.268 . S
O83 Sc67 2.105 . S
O83 C73 1.268 . S
O84 Sc68 2.105 . S
O84 C75 1.268 . S
O85 Sc66 2.105 . S
O85 C71 1.268 . S
O86 Sc68 2.105 . S
O86 C70 1.268 . S
O87 Sc67 2.105 . S
O87 C72 1.268 . S
Sc88 O91 2.025 . S
Sc88 O98 2.105 . S
Sc88 O101 2.105 . S
Sc88 O104 2.105 . S
Sc88 O107 2.105 . S
Sc89 O91 2.025 . S
Sc89 O99 2.105 . S
Sc89 O103 2.105 . S
Sc89 O105 2.105 . S
Sc89 O109 2.105 . S
Sc90 O91 2.025 . S
Sc90 O100 2.105 . S
Sc90 O102 2.105 . S
Sc90 O106 2.105 . S
Sc90 O108 2.105 . S
O91 Sc88 2.025 . S
O91 Sc89 2.025 . S
O91 Sc90 2.025 . S
C92 O98 1.268 . S
C92 O108 1.268 . S
C93 O99 1.268 . S
C93 O107 1.268 . S
C94 O100 1.268 . S
C94 O109 1.268 . S
C95 O101 1.268 . S
C95 O105 1.268 . S
C96 O102 1.268 . S
C96 O104 1.268 . S
C97 O103 1.268 . S
C97 O106 1.268 . S
O98 Sc88 2.105 . S
O98 C92 1.268 . S
O99 Sc89 2.105 . S
O99 C93 1.268 . S
O100 Sc90 2.105 . S
O100 C94 1.268 . S
O101 Sc88 2.105 . S
O101 C95 1.268 . S
O102 Sc90 2.105 . S
O102 C96 1.268 . S
O103 Sc89 2.105 . S
O103 C97 1.268 . S
O104 Sc88 2.105 . S
O104 C96 1.268 . S
O105 Sc89 2.105 . S
O105 C95 1.268 . S
O106 Sc90 2.105 . S
O106 C97 1.268 . S
O107 Sc88 2.105 . S
O107 C93 1.268 . S
O108 Sc90 2.105 . S
O108 C92 1.268 . S
O109 Sc89 2.105 . S
O109 C94 1.268 . S
Sc110 O113 2.025 . S
Sc110 O120 2.105 . S
Sc110 O123 2.105 . S
Sc110 O126 2.105 . S
Sc110 O129 2.105 . S
Sc111 O113 2.025 . S
Sc111 O121 2.105 . S
Sc111 O125 2.105 1_655 S
Sc111 O127 2.105 . S
Sc111 O131 2.105 . S
Sc112 O113 2.025 . S
Sc112 O122 2.105 . S
Sc112 O124 2.105 . S
Sc112 O128 2.105 1_655 S
Sc112 O130 2.105 . S
O113 Sc110 2.025 . S
O113 Sc111 2.025 . S
O113 Sc112 2.025 . S
C114 O120 1.268 . S
C114 O130 1.268 . S
C115 O121 1.268 . S
C115 O129 1.268 . S
C116 O122 1.268 . S
C116 O131 1.268 . S
C117 O123 1.268 . S
C117 O127 1.268 . S
C118 O124 1.268 . S
C118 O126 1.268 . S
C119 O125 1.268 . S
C119 O128 1.268 . S
O120 Sc110 2.105 . S
O120 C114 1.268 . S
O121 Sc111 2.105 . S
O121 C115 1.268 . S
O122 Sc112 2.105 . S
O122 C116 1.268 . S
O123 Sc110 2.105 . S
O123 C117 1.268 . S
O124 Sc112 2.105 . S
O124 C118 1.268 . S
O125 Sc111 2.105 1_455 S
O125 C119 1.268 . S
O126 Sc110 2.105 . S
O126 C118 1.268 . S
O127 Sc111 2.105 . S
O127 C117 1.268 . S
O128 Sc112 2.105 1_455 S
O128 C119 1.268 . S
O129 Sc110 2.105 . S
O129 C115 1.268 . S
O130 Sc112 2.105 . S
O130 C114 1.268 . S
O131 Sc111 2.105 . S
O131 C116 1.268 . S
Sc132 O135 2.025 . S
Sc132 O142 2.105 . S
Sc132 O145 2.105 . S
Sc132 O148 2.105 . S
Sc132 O151 2.105 1_565 S
Sc133 O135 2.025 . S
Sc133 O143 2.105 1_565 S
Sc133 O147 2.105 . S
Sc133 O149 2.105 . S
Sc133 O153 2.105 1_655 S
Sc134 O135 2.025 . S
Sc134 O144 2.105 1_655 S
Sc134 O146 2.105 . S
Sc134 O150 2.105 . S
Sc134 O152 2.105 . S
O135 Sc132 2.025 . S
O135 Sc133 2.025 . S
O135 Sc134 2.025 . S
C136 O142 1.268 . S
C136 O152 1.268 . S
C137 O143 1.268 . S
C137 O151 1.268 . S
C138 O144 1.268 . S
C138 O153 1.268 . S
C139 O145 1.268 . S
C139 O149 1.268 . S
C140 O146 1.268 . S
C140 O148 1.268 . S
C141 O147 1.268 . S
C141 O150 1.268 . S
O142 Sc132 2.105 . S
O142 C136 1.268 . S
O143 Sc133 2.105 1_545 S
O143 C137 1.268 . S
O144 Sc134 2.105 1_455 S
O144 C138 1.268 . S
O145 Sc132 2.105 . S
O145 C139 1.268 . S
O146 Sc134 2.105 . S
O146 C140 1.268 . S
O147 Sc133 2.105 . S
O147 C141 1.268 . S
O148 Sc132 2.105 . S
O148 C140 1.268 . S
O149 Sc133 2.105 . S
O149 C139 1.268 . S
O150 Sc134 2.105 . S
O150 C141 1.268 . S
O151 Sc132 2.105 1_545 S
O151 C137 1.268 . S
O152 Sc134 2.105 . S
O152 C136 1.268 . S
O153 Sc133 2.105 1_455 S
O153 C138 1.268 . S
Sc154 O157 2.025 . S
Sc154 O164 2.105 . S
Sc154 O167 2.105 . S
Sc154 O170 2.105 . S
Sc154 O173 2.105 . S
Sc155 O157 2.025 . S
Sc155 O165 2.105 . S
Sc155 O169 2.105 . S
Sc155 O171 2.105 . S
Sc155 O175 2.105 1_565 S
Sc156 O157 2.025 . S
Sc156 O166 2.105 1_565 S
Sc156 O168 2.105 . S
Sc156 O172 2.105 . S
Sc156 O174 2.105 . S
O157 Sc154 2.025 . S
O157 Sc155 2.025 . S
O157 Sc156 2.025 . S
C158 O164 1.268 . S
C158 O174 1.268 . S
C159 O165 1.268 . S
C159 O173 1.268 . S
C160 O166 1.268 . S
C160 O175 1.268 . S
C161 O167 1.268 . S
C161 O171 1.268 . S
C162 O168 1.268 . S
C162 O170 1.268 . S
C163 O169 1.268 . S
C163 O172 1.268 . S
O164 Sc154 2.105 . S
O164 C158 1.268 . S
O165 Sc155 2.105 . S
O165 C159 1.268 . S
O166 Sc156 2.105 1_545 S
O166 C160 1.268 . S
O167 Sc154 2.105 . S
O167 C161 1.268 . S
O168 Sc156 2.105 . S
O168 C162 1.268 . S
O169 Sc155 2.105 . S
O169 C163 1.268 . S
O170 Sc154 2.105 . S
O170 C162 1.268 . S
O171 Sc155 2.105 . S
O171 C161 1.268 . S
O172 Sc156 2.105 . S
O172 C163 1.268 . S
O173 Sc154 2.105 . S
O173 C159 1.268 . S
O174 Sc156 2.105 . S
O174 C158 1.268 . S
O175 Sc155 2.105 1_545 S
O175 C160 1.268 . S
C176 C177 1.349 . S
C176 C178 1.327 . S
C176 H201 0.950 . S
C177 C176 1.349 . S
C177 C193 1.349 . S
C178 C176 1.327 . S
C178 C197 1.429 . S
C178 H202 0.950 . S
C179 C196 1.574 . S
C179 C198 1.368 . S
C179 H203 0.949 . S
H180 C184 0.949 . S
C181 C182 1.349 . S
C181 C183 1.327 . S
C181 H204 0.950 . S
C182 C181 1.349 . S
C182 C194 1.349 . S
C183 C181 1.327 . S
C183 C199 1.429 . S
C183 H205 0.950 . S
C184 H180 0.949 . S
C184 C192 1.574 . S
C184 C200 1.368 . S
H185 C193 0.950 . S
H186 C191 0.950 . S
H187 C192 0.949 . S
H188 C194 0.950 . S
H189 C195 0.950 . S
H190 C196 0.949 . S
C191 H186 0.950 . S
C191 C193 1.327 . S
C191 C197 1.429 . S
C192 C184 1.574 . S
C192 H187 0.949 . S
C192 C198 1.368 . S
C193 C177 1.349 . S
C193 H185 0.950 . S
C193 C191 1.327 . S
C194 C182 1.349 . S
C194 H188 0.950 . S
C194 C195 1.327 . S
C195 H189 0.950 . S
C195 C194 1.327 . S
C195 C199 1.429 . S
C196 C179 1.574 . S
C196 H190 0.949 . S
C196 C200 1.368 . S
C197 C178 1.429 . S
C197 C191 1.429 . S
C197 C198 1.523 . S
C198 C179 1.368 . S
C198 C192 1.368 . S
C198 C197 1.523 . S
C199 C183 1.429 . S
C199 C195 1.429 . S
C199 C200 1.523 . S
C200 C184 1.368 . S
C200 C196 1.368 . S
C200 C199 1.523 . S
H201 C176 0.950 . S
H202 C178 0.950 . S
H203 C179 0.949 . S
H204 C181 0.950 . S
H205 C183 0.950 . S
C206 C207 1.349 . S
C206 C208 1.327 . S
C206 H231 0.950 . S
C207 C206 1.349 . S
C207 C223 1.349 . S
C208 C206 1.327 . S
C208 C227 1.429 . S
C208 H232 0.950 . S
C209 C226 1.574 1_655 S
C209 C228 1.368 . S
C209 H233 0.949 . S
H210 C214 0.949 . S
C211 C212 1.349 . S
C211 C213 1.327 . S
C211 H234 0.950 . S
C212 C211 1.349 . S
C212 C224 1.349 . S
C213 C211 1.327 . S
C213 C229 1.429 . S
C213 H235 0.950 . S
C214 H210 0.949 . S
C214 C222 1.574 1_455 S
C214 C230 1.368 . S
H215 C223 0.950 . S
H216 C221 0.950 . S
H217 C222 0.949 . S
H218 C224 0.950 . S
H219 C225 0.950 . S
H220 C226 0.949 . S
C221 H216 0.950 . S
C221 C223 1.327 . S
C221 C227 1.429 . S
C222 C214 1.574 1_655 S
C222 H217 0.949 . S
C222 C228 1.368 . S
C223 C207 1.349 . S
C223 H215 0.950 . S
C223 C221 1.327 . S
C224 C212 1.349 . S
C224 H218 0.950 . S
C224 C225 1.327 . S
C225 H219 0.950 . S
C225 C224 1.327 . S
C225 C229 1.429 . S
C226 C209 1.574 1_455 S
C226 H220 0.949 . S
C226 C230 1.368 . S
C227 C208 1.429 . S
C227 C221 1.429 . S
C227 C228 1.523 . S
C228 C209 1.368 . S
C228 C222 1.368 . S
C228 C227 1.523 . S
C229 C213 1.429 . S
C229 C225 1.429 . S
C229 C230 1.523 . S
C230 C214 1.368 . S
C230 C226 1.368 . S
C230 C229 1.523 . S
H231 C206 0.950 . S
H232 C208 0.950 . S
H233 C209 0.949 . S
H234 C211 0.950 . S
H235 C213 0.950 . S
C236 C237 1.349 . S
C236 C238 1.327 . S
C236 H261 0.950 . S
C237 C236 1.349 . S
C237 C253 1.349 . S
C238 C236 1.327 . S
C238 C257 1.429 . S
C238 H262 0.950 . S
C239 C256 1.574 . S
C239 C258 1.368 1_565 S
C239 H263 0.949 . S
H240 C244 0.949 . S
C241 C242 1.349 . S
C241 C243 1.327 . S
C241 H264 0.950 . S
C242 C241 1.349 . S
C242 C254 1.349 . S
C243 C241 1.327 . S
C243 C259 1.429 . S
C243 H265 0.950 . S
C244 H240 0.949 . S
C244 C252 1.574 . S
C244 C260 1.368 1_545 S
H245 C253 0.950 1_565 S
H246 C251 0.950 . S
H247 C252 0.949 . S
H248 C254 0.950 1_545 S
H249 C255 0.950 . S
H250 C256 0.949 . S
C251 H246 0.950 . S
C251 C253 1.327 1_565 S
C251 C257 1.429 1_565 S
C252 C244 1.574 . S
C252 H247 0.949 . S
C252 C258 1.368 . S
C253 C237 1.349 . S
C253 H245 0.950 1_545 S
C253 C251 1.327 1_545 S
C254 C242 1.349 . S
C254 H248 0.950 1_565 S
C254 C255 1.327 1_565 S
C255 H249 0.950 . S
C255 C254 1.327 1_545 S
C255 C259 1.429 1_545 S
C256 C239 1.574 . S
C256 H250 0.949 . S
C256 C260 1.368 . S
C257 C238 1.429 . S
C257 C251 1.429 1_545 S
C257 C258 1.523 . S
C258 C239 1.368 1_545 S
C258 C252 1.368 . S
C258 C257 1.523 . S
C259 C243 1.429 . S
C259 C255 1.429 1_565 S
C259 C260 1.523 . S
C260 C244 1.368 1_565 S
C260 C256 1.368 . S
C260 C259 1.523 . S
H261 C236 0.950 . S
H262 C238 0.950 . S
H263 C239 0.949 . S
H264 C241 0.950 . S
H265 C243 0.950 . S
C266 C267 1.349 . S
C266 C268 1.327 . S
C266 H291 0.950 . S
C267 C266 1.349 . S
C267 C283 1.349 . S
C268 C266 1.327 . S
C268 C287 1.429 . S
C268 H292 0.950 . S
C269 C286 1.574 . S
C269 C288 1.368 . S
C269 H293 0.949 . S
H270 C274 0.949 . S
C271 C272 1.349 . S
C271 C273 1.327 . S
C271 H294 0.950 . S
C272 C271 1.349 . S
C272 C284 1.349 . S
C273 C271 1.327 . S
C273 C289 1.429 . S
C273 H295 0.950 . S
C274 H270 0.949 . S
C274 C282 1.574 . S
C274 C290 1.368 . S
H275 C283 0.950 . S
H276 C281 0.950 . S
H277 C282 0.949 . S
H278 C284 0.950 . S
H279 C285 0.950 . S
H280 C286 0.949 . S
C281 H276 0.950 . S
C281 C283 1.327 . S
C281 C287 1.429 . S
C282 C274 1.574 . S
C282 H277 0.949 . S
C282 C288 1.368 . S
C283 C267 1.349 . S
C283 H275 0.950 . S
C283 C281 1.327 . S
C284 C272 1.349 . S
C284 H278 0.950 . S
C284 C285 1.327 . S
C285 H279 0.950 . S
C285 C284 1.327 . S
C285 C289 1.429 . S
C286 C269 1.574 . S
C286 H280 0.949 . S
C286 C290 1.368 . S
C287 C268 1.429 . S
C287 C281 1.429 . S
C287 C288 1.523 . S
C288 C269 1.368 . S
C288 C282 1.368 . S
C288 C287 1.523 . S
C289 C273 1.429 . S
C289 C285 1.429 . S
C289 C290 1.523 . S
C290 C274 1.368 . S
C290 C286 1.368 . S
C290 C289 1.523 . S
H291 C266 0.950 . S
H292 C268 0.950 . S
H293 C269 0.949 . S
H294 C271 0.950 . S
H295 C273 0.950 . S
C296 C297 1.349 . S
C296 C298 1.327 . S
C296 H321 0.950 . S
C297 C296 1.349 . S
C297 C313 1.349 . S
C298 C296 1.327 . S
C298 C317 1.429 . S
C298 H322 0.950 . S
C299 C316 1.574 . S
C299 C318 1.368 . S
C299 H323 0.949 . S
H300 C304 0.949 . S
C301 C302 1.349 . S
C301 C303 1.327 . S
C301 H324 0.950 . S
C302 C301 1.349 . S
C302 C314 1.349 . S
C303 C301 1.327 . S
C303 C319 1.429 . S
C303 H325 0.950 . S
C304 H300 0.949 . S
C304 C312 1.574 . S
C304 C320 1.368 . S
H305 C313 0.950 . S
H306 C311 0.950 . S
H307 C312 0.949 . S
H308 C314 0.950 . S
H309 C315 0.950 . S
H310 C316 0.949 . S
C311 H306 0.950 . S
C311 C313 1.327 . S
C311 C317 1.429 . S
C312 C304 1.574 . S
C312 H307 0.949 . S
C312 C318 1.368 . S
C313 C297 1.349 . S
C313 H305 0.950 . S
C313 C311 1.327 . S
C314 C302 1.349 . S
C314 H308 0.950 . S
C314 C315 1.327 . S
C315 H309 0.950 . S
C315 C314 1.327 . S
C315 C319 1.429 . S
C316 C299 1.574 . S
C316 H310 0.949 . S
C316 C320 1.368 . S
C317 C298 1.429 . S
C317 C311 1.429 . S
C317 C318 1.523 . S
C318 C299 1.368 . S
C318 C312 1.368 . S
C318 C317 1.523 . S
C319 C303 1.429 . S
C319 C315 1.429 . S
C319 C320 1.523 . S
C320 C304 1.368 . S
C320 C316 1.368 . S
C320 C319 1.523 . S
H321 C296 0.950 . S
H322 C298 0.950 . S
H323 C299 0.949 . S
H324 C301 0.950 . S
H325 C303 0.950 . S
C326 C327 1.349 . S
C326 C328 1.327 . S
C326 H351 0.950 . S
C327 C326 1.349 . S
C327 C343 1.349 . S
C328 C326 1.327 . S
C328 C347 1.429 . S
C328 H352 0.950 . S
C329 C346 1.574 1_455 S
C329 C348 1.368 . S
C329 H353 0.949 . S
H330 C334 0.949 . S
C331 C332 1.349 . S
C331 C333 1.327 . S
C331 H354 0.950 . S
C332 C331 1.349 . S
C332 C344 1.349 . S
C333 C331 1.327 . S
C333 C349 1.429 . S
C333 H355 0.950 . S
C334 H330 0.949 . S
C334 C342 1.573 1_655 S
C334 C350 1.369 . S
H335 C343 0.950 . S
H336 C341 0.950 . S
H337 C342 0.949 . S
H338 C344 0.950 . S
H339 C345 0.950 . S
H340 C346 0.949 . S
C341 H336 0.950 . S
C341 C343 1.327 . S
C341 C347 1.429 . S
C342 C334 1.573 1_455 S
C342 H337 0.949 . S
C342 C348 1.368 . S
C343 C327 1.349 . S
C343 H335 0.950 . S
C343 C341 1.327 . S
C344 C332 1.349 . S
C344 H338 0.950 . S
C344 C345 1.327 . S
C345 H339 0.950 . S
C345 C344 1.327 . S
C345 C349 1.429 . S
C346 C329 1.574 1_655 S
C346 H340 0.949 . S
C346 C350 1.368 . S
C347 C328 1.429 . S
C347 C341 1.429 . S
C347 C348 1.523 . S
C348 C329 1.368 . S
C348 C342 1.368 . S
C348 C347 1.523 . S
C349 C333 1.429 . S
C349 C345 1.429 . S
C349 C350 1.523 . S
C350 C334 1.369 . S
C350 C346 1.368 . S
C350 C349 1.523 . S
H351 C326 0.950 . S
H352 C328 0.950 . S
H353 C329 0.949 . S
H354 C331 0.950 . S
H355 C333 0.950 . S
C356 C357 1.349 . S
C356 C358 1.327 . S
C356 H381 0.950 . S
C357 C356 1.349 . S
C357 C373 1.349 . S
C358 C356 1.327 . S
C358 C377 1.429 . S
C358 H382 0.950 1_545 S
C359 C376 1.574 . S
C359 C378 1.368 . S
C359 H383 0.949 . S
H360 C364 0.949 . S
C361 C362 1.349 . S
C361 C363 1.327 . S
C361 H384 0.944 1_565 S
C362 C361 1.349 . S
C362 C374 1.349 . S
C363 C361 1.327 . S
C363 C379 1.429 . S
C363 H385 0.950 1_565 S
C364 H360 0.949 . S
C364 C372 1.574 . S
C364 C380 1.368 . S
H365 C373 0.950 . S
H366 C371 0.950 . S
H367 C372 0.949 . S
H368 C374 0.950 . S
H369 C375 0.950 . S
H370 C376 0.949 . S
C371 H366 0.950 . S
C371 C373 1.327 . S
C371 C377 1.429 . S
C372 C364 1.574 . S
C372 H367 0.949 . S
C372 C378 1.368 1_565 S
C373 C357 1.349 . S
C373 H365 0.950 . S
C373 C371 1.327 . S
C374 C362 1.349 . S
C374 H368 0.950 . S
C374 C375 1.327 . S
C375 H369 0.950 . S
C375 C374 1.327 . S
C375 C379 1.429 . S
C376 C359 1.574 . S
C376 H370 0.949 . S
C376 C380 1.368 1_545 S
C377 C358 1.429 . S
C377 C371 1.429 . S
C377 C378 1.523 . S
C378 C359 1.368 . S
C378 C372 1.368 1_545 S
C378 C377 1.523 . S
C379 C363 1.429 . S
C379 C375 1.429 . S
C379 C380 1.523 . S
C380 C364 1.368 . S
C380 C376 1.368 1_565 S
C380 C379 1.523 . S
H381 C356 0.950 . S
H382 C358 0.950 1_565 S
H383 C359 0.949 . S
H384 C361 0.944 1_545 S
H385 C363 0.950 1_545 S
C386 C387 1.349 . S
C386 C388 1.327 . S
C386 H411 0.950 . S
C387 C386 1.349 . S
C387 C403 1.349 . S
C388 C386 1.327 . S
C388 C407 1.429 . S
C388 H412 0.950 . S
C389 C406 1.574 . S
C389 C408 1.368 . S
C389 H413 0.949 . S
H390 C394 0.949 . S
C391 C392 1.349 . S
C391 C393 1.327 . S
C391 H414 0.950 . S
C392 C391 1.349 . S
C392 C404 1.349 . S
C393 C391 1.327 . S
C393 C409 1.429 . S
C393 H415 0.950 . S
C394 H390 0.949 . S
C394 C402 1.574 . S
C394 C410 1.368 . S
H395 C403 0.950 . S
H396 C401 0.950 . S
H397 C402 0.949 . S
H398 C404 0.950 . S
H399 C405 0.950 . S
H400 C406 0.949 . S
C401 H396 0.950 . S
C401 C403 1.327 . S
C401 C407 1.429 . S
C402 C394 1.574 . S
C402 H397 0.949 . S
C402 C408 1.368 . S
C403 C387 1.349 . S
C403 H395 0.950 . S
C403 C401 1.327 . S
C404 C392 1.349 . S
C404 H398 0.950 . S
C404 C405 1.327 . S
C405 H399 0.950 . S
C405 C404 1.327 . S
C405 C409 1.429 . S
C406 C389 1.574 . S
C406 H400 0.949 . S
C406 C410 1.368 . S
C407 C388 1.429 . S
C407 C401 1.429 . S
C407 C408 1.523 . S
C408 C389 1.368 . S
C408 C402 1.368 . S
C408 C407 1.523 . S
C409 C393 1.429 . S
C409 C405 1.429 . S
C409 C410 1.523 . S
C410 C394 1.368 . S
C410 C406 1.368 . S
C410 C409 1.523 . S
H411 C386 0.950 . S
H412 C388 0.950 . S
H413 C389 0.949 . S
H414 C391 0.950 . S
H415 C393 0.950 . S
C416 C417 1.349 . S
C416 C418 1.327 . S
C416 H441 0.950 . S
C417 C416 1.349 . S
C417 C433 1.349 . S
C418 C416 1.327 . S
C418 C437 1.429 . S
C418 H442 0.950 . S
C419 C436 1.574 . S
C419 C438 1.368 . S
C419 H443 0.949 . S
H420 C424 0.949 . S
C421 C422 1.349 . S
C421 C423 1.327 . S
C421 H444 0.950 . S
C422 C421 1.349 . S
C422 C434 1.349 . S
C423 C421 1.327 . S
C423 C439 1.429 . S
C423 H445 0.950 . S
C424 H420 0.949 . S
C424 C432 1.574 . S
C424 C440 1.368 . S
H425 C433 0.950 . S
H426 C431 0.950 . S
H427 C432 0.949 . S
H428 C434 0.950 . S
H429 C435 0.950 . S
H430 C436 0.949 . S
C431 H426 0.950 . S
C431 C433 1.327 . S
C431 C437 1.429 . S
C432 C424 1.574 . S
C432 H427 0.949 . S
C432 C438 1.368 . S
C433 C417 1.349 . S
C433 H425 0.950 . S
C433 C431 1.327 . S
C434 C422 1.349 . S
C434 H428 0.950 . S
C434 C435 1.327 . S
C435 H429 0.950 . S
C435 C434 1.327 . S
C435 C439 1.429 . S
C436 C419 1.574 . S
C436 H430 0.949 . S
C436 C440 1.368 . S
C437 C418 1.429 . S
C437 C431 1.429 . S
C437 C438 1.523 . S
C438 C419 1.368 . S
C438 C432 1.368 . S
C438 C437 1.523 . S
C439 C423 1.429 . S
C439 C435 1.429 . S
C439 C440 1.523 . S
C440 C424 1.368 . S
C440 C436 1.368 . S
C440 C439 1.523 . S
H441 C416 0.950 . S
H442 C418 0.950 . S
H443 C419 0.949 . S
H444 C421 0.950 . S
H445 C423 0.950 . S
C446 C447 1.349 . S
C446 C448 1.327 . S
C446 H471 0.950 . S
C447 C446 1.349 . S
C447 C463 1.349 . S
C448 C446 1.327 . S
C448 C467 1.429 . S
C448 H472 0.950 . S
C449 C466 1.574 . S
C449 C468 1.368 1_655 S
C449 H473 0.949 . S
H450 C454 0.949 . S
C451 C452 1.349 . S
C451 C453 1.327 . S
C451 H474 0.950 . S
C452 C451 1.349 . S
C452 C464 1.349 . S
C453 C451 1.327 . S
C453 C469 1.429 . S
C453 H475 0.950 . S
C454 H450 0.949 . S
C454 C462 1.574 . S
C454 C470 1.368 1_455 S
H455 C463 0.950 . S
H456 C461 0.950 . S
H457 C462 0.949 . S
H458 C464 0.950 . S
H459 C465 0.950 . S
H460 C466 0.949 . S
C461 H456 0.950 . S
C461 C463 1.327 . S
C461 C467 1.429 . S
C462 C454 1.574 . S
C462 H457 0.949 . S
C462 C468 1.368 . S
C463 C447 1.349 . S
C463 H455 0.950 . S
C463 C461 1.327 . S
C464 C452 1.349 . S
C464 H458 0.950 . S
C464 C465 1.327 . S
C465 H459 0.950 . S
C465 C464 1.327 . S
C465 C469 1.429 . S
C466 C449 1.574 . S
C466 H460 0.949 . S
C466 C470 1.368 . S
C467 C448 1.429 . S
C467 C461 1.429 . S
C467 C468 1.523 . S
C468 C449 1.368 1_455 S
C468 C462 1.368 . S
C468 C467 1.523 . S
C469 C453 1.429 . S
C469 C465 1.429 . S
C469 C470 1.523 . S
C470 C454 1.368 1_655 S
C470 C466 1.368 . S
C470 C469 1.523 . S
H471 C446 0.950 . S
H472 C448 0.950 . S
H473 C449 0.949 . S
H474 C451 0.950 . S
H475 C453 0.950 . S
C476 C477 1.349 . S
C476 C478 1.327 . S
C476 H501 0.950 . S
C477 C476 1.349 . S
C477 C493 1.349 . S
C478 C476 1.327 . S
C478 C497 1.429 . S
C478 H502 0.950 . S
C479 C496 1.574 . S
C479 C498 1.368 1_565 S
C479 H503 0.949 . S
H480 C484 0.949 . S
C481 C482 1.349 . S
C481 C483 1.327 . S
C481 H504 0.950 . S
C482 C481 1.349 . S
C482 C494 1.349 . S
C483 C481 1.327 . S
C483 C499 1.429 . S
C483 H505 0.950 . S
C484 H480 0.949 . S
C484 C492 1.574 . S
C484 C500 1.368 1_545 S
H485 C493 0.950 . S
H486 C491 0.950 . S
H487 C492 0.949 . S
H488 C494 0.950 . S
H489 C495 0.961 . S
H490 C496 0.949 . S
C491 H486 0.950 . S
C491 C493 1.327 . S
C491 C497 1.429 . S
C492 C484 1.574 . S
C492 H487 0.949 . S
C492 C498 1.368 . S
C493 C477 1.349 . S
C493 H485 0.950 . S
C493 C491 1.327 . S
C494 C482 1.349 . S
C494 H488 0.950 . S
C494 C495 1.327 . S
C495 H489 0.961 . S
C495 C494 1.327 . S
C495 C499 1.429 . S
C496 C479 1.574 . S
C496 H490 0.949 . S
C496 C500 1.368 . S
C497 C478 1.429 . S
C497 C491 1.429 . S
C497 C498 1.523 . S
C498 C479 1.368 1_545 S
C498 C492 1.368 . S
C498 C497 1.523 . S
C499 C483 1.429 . S
C499 C495 1.429 . S
C499 C500 1.523 . S
C500 C484 1.368 1_565 S
C500 C496 1.368 . S
C500 C499 1.523 . S
H501 C476 0.950 . S
H502 C478 0.950 . S
H503 C479 0.949 . S
H504 C481 0.950 . S
H505 C483 0.950 . S
C506 C507 1.349 . S
C506 C508 1.327 . S
C506 H531 0.950 . S
C507 C506 1.349 . S
C507 C523 1.349 . S
C508 C506 1.327 . S
C508 C527 1.429 . S
C508 H532 0.950 . S
C509 C526 1.574 . S
C509 C528 1.368 . S
C509 H533 0.949 . S
H510 C514 0.949 . S
C511 C512 1.349 . S
C511 C513 1.327 . S
C511 H534 0.950 . S
C512 C511 1.349 . S
C512 C524 1.349 . S
C513 C511 1.327 . S
C513 C529 1.429 . S
C513 H535 0.950 . S
C514 H510 0.949 . S
C514 C522 1.574 . S
C514 C530 1.368 . S
H515 C523 0.950 . S
H516 C521 0.950 . S
H517 C522 0.949 . S
H518 C524 0.950 . S
H519 C525 0.950 . S
H520 C526 0.949 . S
C521 H516 0.950 . S
C521 C523 1.327 . S
C521 C527 1.429 . S
C522 C514 1.574 . S
C522 H517 0.949 . S
C522 C528 1.368 . S
C523 C507 1.349 . S
C523 H515 0.950 . S
C523 C521 1.327 . S
C524 C512 1.349 . S
C524 H518 0.950 . S
C524 C525 1.327 . S
C525 H519 0.950 . S
C525 C524 1.327 . S
C525 C529 1.429 . S
C526 C509 1.574 . S
C526 H520 0.949 . S
C526 C530 1.368 . S
C527 C508 1.429 . S
C527 C521 1.429 . S
C527 C528 1.523 . S
C528 C509 1.368 . S
C528 C522 1.368 . S
C528 C527 1.523 . S
C529 C513 1.429 . S
C529 C525 1.429 . S
C529 C530 1.523 . S
C530 C514 1.368 . S
C530 C526 1.368 . S
C530 C529 1.523 . S
H531 C506 0.950 . S
H532 C508 0.950 . S
H533 C509 0.949 . S
H534 C511 0.950 . S
H535 C513 0.950 . S
C536 C537 1.349 . S
C536 C538 1.327 . S
C536 H561 0.950 . S
C537 C536 1.349 . S
C537 C553 1.349 . S
C538 C536 1.327 . S
C538 C557 1.429 . S
C538 H562 0.950 . S
C539 C556 1.574 . S
C539 C558 1.368 . S
C539 H563 0.949 . S
H540 C544 0.949 . S
C541 C542 1.349 . S
C541 C543 1.327 . S
C541 H564 0.950 . S
C542 C541 1.349 . S
C542 C554 1.349 . S
C543 C541 1.327 . S
C543 C559 1.429 . S
C543 H565 0.950 . S
C544 H540 0.949 . S
C544 C552 1.574 . S
C544 C560 1.368 . S
H545 C553 0.950 . S
H546 C551 0.950 . S
H547 C552 0.949 . S
H548 C554 0.950 . S
H549 C555 0.950 . S
H550 C556 0.949 . S
C551 H546 0.950 . S
C551 C553 1.327 . S
C551 C557 1.429 . S
C552 C544 1.574 . S
C552 H547 0.949 . S
C552 C558 1.368 . S
C553 C537 1.349 . S
C553 H545 0.950 . S
C553 C551 1.327 . S
C554 C542 1.349 . S
C554 H548 0.950 . S
C554 C555 1.327 . S
C555 H549 0.950 . S
C555 C554 1.327 . S
C555 C559 1.429 . S
C556 C539 1.574 . S
C556 H550 0.949 . S
C556 C560 1.368 . S
C557 C538 1.429 . S
C557 C551 1.429 . S
C557 C558 1.523 . S
C558 C539 1.368 . S
C558 C552 1.368 . S
C558 C557 1.523 . S
C559 C543 1.429 . S
C559 C555 1.429 . S
C559 C560 1.523 . S
C560 C544 1.368 . S
C560 C556 1.368 . S
C560 C559 1.523 . S
H561 C536 0.950 . S
H562 C538 0.950 . S
H563 C539 0.949 . S
H564 C541 0.950 . S
H565 C543 0.950 . S
C566 C567 1.349 . S
C566 C568 1.327 . S
C566 H591 0.950 . S
C567 C566 1.349 . S
C567 C583 1.349 . S
C568 C566 1.327 . S
C568 C587 1.429 . S
C568 H592 0.950 1_455 S
C569 C586 1.574 . S
C569 C588 1.368 . S
C569 H593 0.949 . S
H570 C574 0.949 . S
C571 C572 1.349 . S
C571 C573 1.327 . S
C571 H594 0.950 . S
C572 C571 1.349 . S
C572 C584 1.349 . S
C573 C571 1.327 . S
C573 C589 1.429 . S
C573 H595 0.950 . S
C574 H570 0.949 . S
C574 C582 1.574 . S
C574 C590 1.368 . S
H575 C583 0.950 . S
H576 C581 0.950 . S
H577 C582 0.949 . S
H578 C584 0.950 . S
H579 C585 0.950 . S
H580 C586 0.949 . S
C581 H576 0.950 . S
C581 C583 1.327 . S
C581 C587 1.429 . S
C582 C574 1.574 . S
C582 H577 0.949 . S
C582 C588 1.368 1_655 S
C583 C567 1.349 . S
C583 H575 0.950 . S
C583 C581 1.327 . S
C584 C572 1.349 . S
C584 H578 0.950 . S
C584 C585 1.327 . S
C585 H579 0.950 . S
C585 C584 1.327 . S
C585 C589 1.429 . S
C586 C569 1.574 . S
C586 H580 0.949 . S
C586 C590 1.368 1_455 S
C587 C568 1.429 . S
C587 C581 1.429 . S
C587 C588 1.523 . S
C588 C569 1.368 . S
C588 C582 1.368 1_455 S
C588 C587 1.523 . S
C589 C573 1.429 . S
C589 C585 1.429 . S
C589 C590 1.523 . S
C590 C574 1.368 . S
C590 C586 1.368 1_655 S
C590 C589 1.523 . S
H591 C566 0.950 . S
H592 C568 0.950 1_655 S
H593 C569 0.949 . S
H594 C571 0.950 . S
H595 C573 0.950 . S
C596 C597 1.349 . S
C596 C598 1.327 . S
C596 H621 0.950 . S
C597 C596 1.349 . S
C597 C613 1.349 . S
C598 C596 1.327 . S
C598 C617 1.429 . S
C598 H622 0.950 . S
C599 C616 1.574 . S
C599 C618 1.368 1_545 S
C599 H623 0.949 . S
H600 C604 0.949 . S
C601 C602 1.349 . S
C601 C603 1.327 . S
C601 H624 0.950 . S
C602 C601 1.349 . S
C602 C614 1.349 . S
C603 C601 1.327 . S
C603 C619 1.429 . S
C603 H625 0.950 . S
C604 H600 0.949 . S
C604 C612 1.574 . S
C604 C620 1.368 1_565 S
H605 C613 0.950 . S
H606 C611 0.950 . S
H607 C612 0.949 . S
H608 C614 0.950 . S
H609 C615 0.950 . S
H610 C616 0.949 . S
C611 H606 0.950 . S
C611 C613 1.327 . S
C611 C617 1.429 . S
C612 C604 1.574 . S
C612 H607 0.949 . S
C612 C618 1.368 . S
C613 C597 1.349 . S
C613 H605 0.950 . S
C613 C611 1.327 . S
C614 C602 1.349 . S
C614 H608 0.950 . S
C614 C615 1.327 . S
C615 H609 0.950 . S
C615 C614 1.327 . S
C615 C619 1.429 . S
C616 C599 1.574 . S
C616 H610 0.949 . S
C616 C620 1.368 . S
C617 C598 1.429 . S
C617 C611 1.429 . S
C617 C618 1.523 . S
C618 C599 1.368 1_565 S
C618 C612 1.368 . S
C618 C617 1.523 . S
C619 C603 1.429 . S
C619 C615 1.429 . S
C619 C620 1.523 . S
C620 C604 1.368 1_545 S
C620 C616 1.368 . S
C620 C619 1.523 . S
H621 C596 0.950 . S
H622 C598 0.950 . S
H623 C599 0.949 . S
H624 C601 0.950 . S
H625 C603 0.950 . S
C626 C627 1.349 . S
C626 C628 1.327 . S
C626 H651 0.950 . S
C627 C626 1.349 . S
C627 C643 1.349 . S
C628 C626 1.327 . S
C628 C647 1.429 . S
C628 H652 0.950 . S
C629 C646 1.574 . S
C629 C648 1.368 . S
C629 H653 0.949 . S
H630 C634 0.949 . S
C631 C632 1.349 . S
C631 C633 1.327 . S
C631 H654 0.950 . S
C632 C631 1.349 . S
C632 C644 1.349 . S
C633 C631 1.327 . S
C633 C649 1.429 . S
C633 H655 0.950 . S
C634 H630 0.949 . S
C634 C642 1.574 . S
C634 C650 1.368 . S
H635 C643 0.950 . S
H636 C641 0.950 . S
H637 C642 0.949 . S
H638 C644 0.950 . S
H639 C645 0.950 . S
H640 C646 0.949 . S
C641 H636 0.950 . S
C641 C643 1.327 . S
C641 C647 1.429 . S
C642 C634 1.574 . S
C642 H637 0.949 . S
C642 C648 1.368 . S
C643 C627 1.349 . S
C643 H635 0.950 . S
C643 C641 1.327 . S
C644 C632 1.349 . S
C644 H638 0.950 . S
C644 C645 1.327 . S
C645 H639 0.950 . S
C645 C644 1.327 . S
C645 C649 1.429 . S
C646 C629 1.574 . S
C646 H640 0.949 . S
C646 C650 1.368 . S
C647 C628 1.429 . S
C647 C641 1.429 . S
C647 C648 1.523 . S
C648 C629 1.368 . S
C648 C642 1.368 . S
C648 C647 1.523 . S
C649 C633 1.429 . S
C649 C645 1.429 . S
C649 C650 1.523 . S
C650 C634 1.368 . S
C650 C646 1.368 . S
C650 C649 1.523 . S
H651 C626 0.950 . S
H652 C628 0.950 . S
H653 C629 0.949 . S
H654 C631 0.950 . S
H655 C633 0.950 . S
C656 C657 1.349 . S
C656 C658 1.327 . S
C656 H681 0.950 . S
C657 C656 1.349 . S
C657 C673 1.349 . S
C658 C656 1.327 . S
C658 C677 1.429 . S
C658 H682 0.950 . S
C659 C676 1.574 . S
C659 C678 1.368 . S
C659 H683 0.949 . S
H660 C664 0.949 . S
C661 C662 1.349 . S
C661 C663 1.327 . S
C661 H684 0.950 . S
C662 C661 1.349 . S
C662 C674 1.349 . S
C663 C661 1.327 . S
C663 C679 1.429 . S
C663 H685 0.950 . S
C664 H660 0.949 . S
C664 C672 1.574 . S
C664 C680 1.368 . S
H665 C673 0.950 . S
H666 C671 0.950 . S
H667 C672 0.949 . S
H668 C674 0.950 . S
H669 C675 0.950 . S
H670 C676 0.949 . S
C671 H666 0.950 . S
C671 C673 1.327 . S
C671 C677 1.429 . S
C672 C664 1.574 . S
C672 H667 0.949 . S
C672 C678 1.368 . S
C673 C657 1.349 . S
C673 H665 0.950 . S
C673 C671 1.327 . S
C674 C662 1.349 . S
C674 H668 0.950 . S
C674 C675 1.327 . S
C675 H669 0.950 . S
C675 C674 1.327 . S
C675 C679 1.429 . S
C676 C659 1.574 . S
C676 H670 0.949 . S
C676 C680 1.368 . S
C677 C658 1.429 . S
C677 C671 1.429 . S
C677 C678 1.523 . S
C678 C659 1.368 . S
C678 C672 1.368 . S
C678 C677 1.523 . S
C679 C663 1.429 . S
C679 C675 1.429 . S
C679 C680 1.523 . S
C680 C664 1.368 . S
C680 C676 1.368 . S
C680 C679 1.523 . S
H681 C656 0.950 . S
H682 C658 0.950 . S
H683 C659 0.949 . S
H684 C661 0.950 . S
H685 C663 0.950 . S
C686 C687 1.349 . S
C686 C688 1.327 . S
C686 H711 0.950 . S
C687 C686 1.349 . S
C687 C703 1.349 . S
C688 C686 1.327 . S
C688 C707 1.429 . S
C688 H712 0.950 . S
C689 C706 1.574 . S
C689 C708 1.368 . S
C689 H713 0.949 . S
H690 C694 0.949 . S
C691 C692 1.349 . S
C691 C693 1.327 . S
C691 H714 0.950 . S
C692 C691 1.349 . S
C692 C704 1.349 . S
C693 C691 1.327 . S
C693 C709 1.429 . S
C693 H715 0.950 . S
C694 H690 0.949 . S
C694 C702 1.574 . S
C694 C710 1.368 . S
H695 C703 0.950 . S
H696 C701 0.950 . S
H697 C702 0.949 . S
H698 C704 0.950 . S
H699 C705 0.950 . S
H700 C706 0.949 . S
C701 H696 0.950 . S
C701 C703 1.327 . S
C701 C707 1.429 . S
C702 C694 1.574 . S
C702 H697 0.949 . S
C702 C708 1.368 . S
C703 C687 1.349 . S
C703 H695 0.950 . S
C703 C701 1.327 . S
C704 C692 1.349 . S
C704 H698 0.950 . S
C704 C705 1.327 . S
C705 H699 0.950 . S
C705 C704 1.327 . S
C705 C709 1.429 . S
C706 C689 1.574 . S
C706 H700 0.949 . S
C706 C710 1.368 . S
C707 C688 1.429 . S
C707 C701 1.429 . S
C707 C708 1.523 . S
C708 C689 1.368 . S
C708 C702 1.368 . S
C708 C707 1.523 . S
C709 C693 1.429 . S
C709 C705 1.429 . S
C709 C710 1.523 . S
C710 C694 1.368 . S
C710 C706 1.368 . S
C710 C709 1.523 . S
H711 C686 0.950 . S
H712 C688 0.950 . S
H713 C689 0.949 . S
H714 C691 0.950 . S
H715 C693 0.950 . S
C716 C717 1.349 . S
C716 C718 1.327 . S
C716 H741 0.950 . S
C717 C716 1.349 . S
C717 C733 1.349 . S
C718 C716 1.327 . S
C718 C737 1.429 . S
C718 H742 0.950 . S
C719 C736 1.574 . S
C719 C738 1.368 . S
C719 H743 0.949 . S
H720 C724 0.949 . S
C721 C722 1.349 . S
C721 C723 1.327 . S
C721 H744 0.950 . S
C722 C721 1.349 . S
C722 C734 1.349 . S
C723 C721 1.327 . S
C723 C739 1.429 . S
C723 H745 0.950 . S
C724 H720 0.949 . S
C724 C732 1.574 . S
C724 C740 1.368 . S
H725 C733 0.950 . S
H726 C731 0.950 . S
H727 C732 0.949 . S
H728 C734 0.950 . S
H729 C735 0.950 . S
H730 C736 0.949 . S
C731 H726 0.950 . S
C731 C733 1.327 . S
C731 C737 1.429 . S
C732 C724 1.574 . S
C732 H727 0.949 . S
C732 C738 1.368 . S
C733 C717 1.349 . S
C733 H725 0.950 . S
C733 C731 1.327 . S
C734 C722 1.349 . S
C734 H728 0.950 . S
C734 C735 1.327 . S
C735 H729 0.950 . S
C735 C734 1.327 . S
C735 C739 1.429 . S
C736 C719 1.574 . S
C736 H730 0.949 . S
C736 C740 1.368 . S
C737 C718 1.429 . S
C737 C731 1.429 . S
C737 C738 1.523 . S
C738 C719 1.368 . S
C738 C732 1.368 . S
C738 C737 1.523 . S
C739 C723 1.429 . S
C739 C735 1.429 . S
C739 C740 1.523 . S
C740 C724 1.368 . S
C740 C736 1.368 . S
C740 C739 1.523 . S
H741 C716 0.950 . S
H742 C718 0.950 . S
H743 C719 0.949 . S
H744 C721 0.950 . S
H745 C723 0.950 . S
C746 C747 1.349 . S
C746 C748 1.327 . S
C746 H771 0.950 . S
C747 C746 1.349 . S
C747 C763 1.349 . S
C748 C746 1.327 . S
C748 C767 1.429 . S
C748 H772 0.950 . S
C749 C766 1.574 . S
C749 C768 1.368 . S
C749 H773 0.949 . S
H750 C754 0.949 . S
C751 C752 1.349 . S
C751 C753 1.327 . S
C751 H774 0.950 . S
C752 C751 1.349 . S
C752 C764 1.349 . S
C753 C751 1.327 . S
C753 C769 1.429 . S
C753 H775 0.950 . S
C754 H750 0.949 . S
C754 C762 1.574 . S
C754 C770 1.368 . S
H755 C763 0.950 . S
H756 C761 0.950 . S
H757 C762 0.949 . S
H758 C764 0.950 . S
H759 C765 0.950 . S
H760 C766 0.949 . S
C761 H756 0.950 . S
C761 C763 1.327 . S
C761 C767 1.429 . S
C762 C754 1.574 . S
C762 H757 0.949 . S
C762 C768 1.368 . S
C763 C747 1.349 . S
C763 H755 0.950 . S
C763 C761 1.327 . S
C764 C752 1.349 . S
C764 H758 0.950 . S
C764 C765 1.327 . S
C765 H759 0.950 . S
C765 C764 1.327 . S
C765 C769 1.429 . S
C766 C749 1.574 . S
C766 H760 0.949 . S
C766 C770 1.368 . S
C767 C748 1.429 . S
C767 C761 1.429 . S
C767 C768 1.523 . S
C768 C749 1.368 . S
C768 C762 1.368 . S
C768 C767 1.523 . S
C769 C753 1.429 . S
C769 C765 1.429 . S
C769 C770 1.523 . S
C770 C754 1.368 . S
C770 C766 1.368 . S
C770 C769 1.523 . S
H771 C746 0.950 . S
H772 C748 0.950 . S
H773 C749 0.949 . S
H774 C751 0.950 . S
H775 C753 0.950 . S
C776 C777 1.349 1_455 S
C776 C778 1.327 . S
C776 H801 0.950 . S
C777 C776 1.349 1_655 S
C777 C793 1.349 . S
C778 C776 1.327 . S
C778 C797 1.429 1_455 S
C778 H802 0.950 . S
C779 C796 1.574 1_556 S
C779 C798 1.368 . S
C779 H803 0.949 . S
H780 C784 0.949 . S
C781 C782 1.349 1_655 S
C781 C783 1.327 . S
C781 H804 0.950 . S
C782 C781 1.349 1_455 S
C782 C794 1.349 . S
C783 C781 1.327 . S
C783 C799 1.429 1_655 S
C783 H805 0.950 . S
C784 H780 0.949 . S
C784 C792 1.574 1_554 S
C784 C800 1.368 . S
H785 C793 0.950 . S
H786 C791 0.950 . S
H787 C792 0.949 . S
H788 C794 0.950 . S
H789 C795 0.950 . S
H790 C796 0.949 . S
C791 H786 0.950 . S
C791 C793 1.327 . S
C791 C797 1.429 . S
C792 C784 1.574 1_556 S
C792 H787 0.949 . S
C792 C798 1.368 1_455 S
C793 C777 1.349 . S
C793 H785 0.950 . S
C793 C791 1.327 . S
C794 C782 1.349 . S
C794 H788 0.950 . S
C794 C795 1.327 . S
C795 H789 0.950 . S
C795 C794 1.327 . S
C795 C799 1.429 . S
C796 C779 1.574 1_554 S
C796 H790 0.949 . S
C796 C800 1.368 1_655 S
C797 C778 1.429 1_655 S
C797 C791 1.429 . S
C797 C798 1.523 . S
C798 C779 1.368 . S
C798 C792 1.368 1_655 S
C798 C797 1.523 . S
C799 C783 1.429 1_455 S
C799 C795 1.429 . S
C799 C800 1.523 . S
C800 C784 1.368 . S
C800 C796 1.368 1_455 S
C800 C799 1.523 . S
H801 C776 0.950 . S
H802 C778 0.950 . S
H803 C779 0.949 . S
H804 C781 0.950 . S
H805 C783 0.950 . S
C806 C807 1.349 1_565 S
C806 C808 1.327 1_455 S
C806 H831 0.950 1_455 S
C807 C806 1.349 1_545 S
C807 C823 1.349 . S
C808 C806 1.327 1_655 S
C808 C827 1.429 1_665 S
C808 H832 0.950 . S
C809 C826 1.574 . S
C809 C828 1.368 . S
C809 H833 0.949 . S
H810 C814 0.949 . S
C811 C812 1.349 1_545 S
C811 C813 1.327 1_655 S
C811 H834 0.950 1_655 S
C812 C811 1.349 1_565 S
C812 C824 1.349 . S
C813 C811 1.327 1_455 S
C813 C829 1.429 1_445 S
C813 H835 0.950 . S
C814 H810 0.949 . S
C814 C822 1.574 . S
C814 C830 1.368 . S
H815 C823 0.950 . S
H816 C821 0.950 . S
H817 C822 0.949 . S
H818 C824 0.950 . S
H819 C825 0.950 . S
H820 C826 0.949 . S
C821 H816 0.950 . S
C821 C823 1.327 . S
C821 C827 1.429 . S
C822 C814 1.574 . S
C822 H817 0.949 . S
C822 C828 1.368 1_665 S
C823 C807 1.349 . S
C823 H815 0.950 . S
C823 C821 1.327 . S
C824 C812 1.349 . S
C824 H818 0.950 . S
C824 C825 1.327 . S
C825 H819 0.950 . S
C825 C824 1.327 . S
C825 C829 1.429 . S
C826 C809 1.574 . S
C826 H820 0.949 . S
C826 C830 1.368 1_445 S
C827 C808 1.429 1_445 S
C827 C821 1.429 . S
C827 C828 1.523 . S
C828 C809 1.368 . S
C828 C822 1.368 1_445 S
C828 C827 1.523 . S
C829 C813 1.429 1_665 S
C829 C825 1.429 . S
C829 C830 1.523 . S
C830 C814 1.368 . S
C830 C826 1.368 1_665 S
C830 C829 1.523 . S
H831 C806 0.950 1_655 S
H832 C808 0.950 . S
H833 C809 0.949 . S
H834 C811 0.950 1_455 S
H835 C813 0.950 . S
C836 C837 1.349 . S
C836 C838 1.327 . S
C836 H861 0.950 . S
C837 C836 1.349 . S
C837 C853 1.349 1_565 S
C838 C836 1.327 . S
C838 C857 1.429 . S
C838 H862 0.950 . S
C839 C856 1.574 1_556 S
C839 C858 1.368 1_545 S
C839 H863 0.949 . S
H840 C844 0.949 . S
C841 C842 1.349 . S
C841 C843 1.327 . S
C841 H864 0.950 . S
C842 C841 1.349 . S
C842 C854 1.349 1_545 S
C843 C841 1.327 . S
C843 C859 1.429 . S
C843 H865 0.950 . S
C844 H840 0.949 . S
C844 C852 1.574 1_554 S
C844 C860 1.368 1_565 S
H845 C853 0.950 . S
H846 C851 0.950 . S
H847 C852 0.949 . S
H848 C854 0.950 . S
H849 C855 0.950 . S
H850 C856 0.949 . S
C851 H846 0.950 . S
C851 C853 1.327 . S
C851 C857 1.429 1_545 S
C852 C844 1.574 1_556 S
C852 H847 0.949 . S
C852 C858 1.368 . S
C853 C837 1.349 1_545 S
C853 H845 0.950 . S
C853 C851 1.327 . S
C854 C842 1.349 1_565 S
C854 H848 0.950 . S
C854 C855 1.327 . S
C855 H849 0.950 . S
C855 C854 1.327 . S
C855 C859 1.429 1_565 S
C856 C839 1.574 1_554 S
C856 H850 0.949 . S
C856 C860 1.368 . S
C857 C838 1.429 . S
C857 C851 1.429 1_565 S
C857 C858 1.523 . S
C858 C839 1.368 1_565 S
C858 C852 1.368 . S
C858 C857 1.523 . S
C859 C843 1.429 . S
C859 C855 1.429 1_545 S
C859 C860 1.523 . S
C860 C844 1.368 1_545 S
C860 C856 1.368 . S
C860 C859 1.523 . S
H861 C836 0.950 . S
H862 C838 0.950 . S
H863 C839 0.949 . S
H864 C841 0.950 . S
H865 C843 0.950 . S
C866 C867 1.349 . S
C866 C868 1.327 . S
C866 H891 0.950 . S
C867 C866 1.349 . S
C867 C883 1.349 . S
C868 C866 1.327 . S
C868 C887 1.429 . S
C868 H892 0.950 . S
C869 C886 1.574 . S
C869 C888 1.368 . S
C869 H893 0.949 . S
H870 C874 0.949 . S
C871 C872 1.349 . S
C871 C873 1.327 . S
C871 H894 0.950 . S
C872 C871 1.349 . S
C872 C884 1.349 . S
C873 C871 1.327 . S
C873 C889 1.429 . S
C873 H895 0.950 . S
C874 H870 0.949 . S
C874 C882 1.574 . S
C874 C890 1.368 . S
H875 C883 0.950 . S
H876 C881 0.950 . S
H877 C882 0.949 . S
H878 C884 0.950 . S
H879 C885 0.950 . S
H880 C886 0.949 . S
C881 H876 0.950 . S
C881 C883 1.327 . S
C881 C887 1.429 . S
C882 C874 1.574 . S
C882 H877 0.949 . S
C882 C888 1.368 . S
C883 C867 1.349 . S
C883 H875 0.950 . S
C883 C881 1.327 . S
C884 C872 1.349 . S
C884 H878 0.950 . S
C884 C885 1.327 . S
C885 H879 0.950 . S
C885 C884 1.327 . S
C885 C889 1.429 . S
C886 C869 1.574 . S
C886 H880 0.949 . S
C886 C890 1.368 . S
C887 C868 1.429 . S
C887 C881 1.429 . S
C887 C888 1.523 . S
C888 C869 1.368 . S
C888 C882 1.368 . S
C888 C887 1.523 . S
C889 C873 1.429 . S
C889 C885 1.429 . S
C889 C890 1.523 . S
C890 C874 1.368 . S
C890 C886 1.368 . S
C890 C889 1.523 . S
H891 C866 0.950 . S
H892 C868 0.950 . S
H893 C869 0.949 . S
H894 C871 0.950 . S
H895 C873 0.950 . S
C177 C95 1.282 . S
C182 C7 1.269 . S
C207 C117 1.282 . S
C212 C28 1.269 . S
C237 C50 1.269 . S
C242 C138 1.282 . S
C267 C73 1.269 . S
C272 C160 1.282 . S
C297 C94 1.269 . S
C302 C6 1.282 . S
C327 C29 1.282 . S
C332 C116 1.269 . S
C357 C51 1.282 . S
C362 C139 1.269 . S
C387 C72 1.282 . S
C392 C161 1.269 . S
C417 C115 1.269 . S
C422 C71 1.282 . S
C447 C5 1.282 . S
C452 C141 1.269 . S
C477 C31 1.282 . S
C482 C163 1.269 . S
C507 C53 1.282 . S
C512 C93 1.269 . S
C537 C75 1.269 . S
C542 C119 1.282 . S
C567 C9 1.269 . S
C572 C137 1.282 . S
C597 C159 1.282 . S
C602 C27 1.269 . S
C627 C97 1.282 . S
C632 C49 1.269 . S
C657 C8 1.571 . S
C662 C48 1.571 . S
C687 C26 1.571 . S
C692 C74 1.571 . S
C717 C140 1.571 . S
C722 C92 1.571 . S
C747 C162 1.571 . S
C752 C114 1.571 . S
C777 C118 1.418 . S
C782 C4 1.418 . S
C807 C30 1.418 . S
C812 C136 1.418 . S
C837 C158 1.418 . S
C842 C52 1.418 . S
C867 C96 1.418 . S
C872 C70 1.418 . S
