# Generated by pormake.
# Topology vby, (6)-cn, num edge types: 1
# Building blocks:
#     Node 0, Type 0, BuildingBlock: MIDCAF_clean_sbu_0, # of connection points: 6
#     Node 1, Type 0, BuildingBlock: MIDCAF_clean_sbu_0, # of connection points: 6
#     Node 2, Type 0, BuildingBlock: MIDCAF_clean_sbu_0, # of connection points: 6
#     Node 3, Type 0, BuildingBlock: MIDCAF_clean_sbu_0, # of connection points: 6
#     Node 4, Type 0, BuildingBlock: MIDCAF_clean_sbu_0, # of connection points: 6
#     Node 5, Type 0, BuildingBlock: MIDCAF_clean_sbu_0, # of connection points: 6
#     Node 6, Type 0, BuildingBlock: MIDCAF_clean_sbu_0, # of connection points: 6
#     Node 7, Type 0, BuildingBlock: MIDCAF_clean_sbu_0, # of connection points: 6
#     Edge 8, Type (0, 0), BuildingBlock: XIVTED_clean_linker_0, # of connection points: 2
#     Edge 9, Type (0, 0), BuildingBlock: XIVTED_clean_linker_0, # of connection points: 2
#     Edge 10, Type (0, 0), BuildingBlock: XIVTED_clean_linker_0, # of connection points: 2
#     Edge 11, Type (0, 0), BuildingBlock: XIVTED_clean_linker_0, # of connection points: 2
#     Edge 12, Type (0, 0), BuildingBlock: XIVTED_clean_linker_0, # of connection points: 2
#     Edge 13, Type (0, 0), BuildingBlock: XIVTED_clean_linker_0, # of connection points: 2
#     Edge 14, Type (0, 0), BuildingBlock: XIVTED_clean_linker_0, # of connection points: 2
#     Edge 15, Type (0, 0), BuildingBlock: XIVTED_clean_linker_0, # of connection points: 2
#     Edge 16, Type (0, 0), BuildingBlock: XIVTED_clean_linker_0, # of connection points: 2
#     Edge 17, Type (0, 0), BuildingBlock: XIVTED_clean_linker_0, # of connection points: 2
#     Edge 18, Type (0, 0), BuildingBlock: XIVTED_clean_linker_0, # of connection points: 2
#     Edge 19, Type (0, 0), BuildingBlock: XIVTED_clean_linker_0, # of connection points: 2
#     Edge 20, Type (0, 0), BuildingBlock: XIVTED_clean_linker_0, # of connection points: 2
#     Edge 21, Type (0, 0), BuildingBlock: XIVTED_clean_linker_0, # of connection points: 2
#     Edge 22, Type (0, 0), BuildingBlock: XIVTED_clean_linker_0, # of connection points: 2
#     Edge 23, Type (0, 0), BuildingBlock: XIVTED_clean_linker_0, # of connection points: 2
#     Edge 24, Type (0, 0), BuildingBlock: XIVTED_clean_linker_0, # of connection points: 2
#     Edge 25, Type (0, 0), BuildingBlock: XIVTED_clean_linker_0, # of connection points: 2
#     Edge 26, Type (0, 0), BuildingBlock: XIVTED_clean_linker_0, # of connection points: 2
#     Edge 27, Type (0, 0), BuildingBlock: XIVTED_clean_linker_0, # of connection points: 2
#     Edge 28, Type (0, 0), BuildingBlock: XIVTED_clean_linker_0, # of connection points: 2
#     Edge 29, Type (0, 0), BuildingBlock: XIVTED_clean_linker_0, # of connection points: 2
#     Edge 30, Type (0, 0), BuildingBlock: XIVTED_clean_linker_0, # of connection points: 2
#     Edge 31, Type (0, 0), BuildingBlock: XIVTED_clean_linker_0, # of connection points: 2
# Relax obj value: 0.139
# Max RMSD: 0.180
# Mean RMSD: 0.180
data_MOF--net-vby--node1-MIDCAF_clean_sbu_0--edge1-XIVTED_clean_linker_0
_symmetry_space_group_name_H-M    P1
_symmetry_Int_Tables_number       1
_symmetry_cell_setting            triclinic
loop_
_symmetry_equiv_pos_as_xyz
'x, y, z'
_cell_length_a     15.305714
_cell_length_b     58.406242
_cell_length_c     30.201985
_cell_angle_alpha  90.67733
_cell_angle_beta   89.435067
_cell_angle_gamma 89.621403
loop_
_atom_site_label
_atom_site_type_symbol
_atom_site_fract_x
_atom_site_fract_y
_atom_site_fract_z
_atom_type_partial_charge
Zn0 Zn 0.00085 0.37334 0.05169 0.0
Zn1 Zn 0.14402 0.42825 0.95232 0.0
Zn2 Zn 0.07194 0.39925 0.99806 0.0
C3 C 0.10437 0.45394 0.02231 0.0
C4 C 0.01191 0.41197 0.90003 0.0
O5 O 0.16267 0.3699 0.00918 0.0
O6 O 0.09559 0.35192 0.06356 0.0
C7 C -0.00769 0.41326 0.09658 0.0
O8 O 0.06919 0.43438 0.03087 0.0
O9 O 0.1517 0.45596 0.9883 0.0
O10 O 0.06331 0.42871 0.90233 0.0
O11 O 0.0033 0.39863 0.93347 0.0
O12 O 0.96281 0.39332 0.10048 0.0
O13 O 0.03654 0.41863 0.06154 0.0
O14 O 0.94949 0.38687 0.9659 0.0
O15 O 0.90646 0.36154 0.01489 0.0
C16 C 0.89427 0.37167 0.97884 0.0
O17 O 0.20849 0.38617 0.98315 0.0
O18 O 0.2546 0.41311 0.93827 0.0
C19 C 0.15884 0.35323 0.03674 0.0
C20 C 0.26813 0.3944 0.95739 0.0
Zn21 Zn 0.65259 0.60823 0.94739 0.0
Zn22 Zn 0.72387 0.67309 0.02513 0.0
Zn23 Zn 0.71736 0.64303 0.97546 0.0
C24 C 0.89451 0.65832 0.01031 0.0
C25 C 0.74556 0.63608 0.07594 0.0
O26 O 0.59011 0.64624 1.00322 0.0
O27 O 0.53891 0.61326 0.97998 0.0
C28 C 0.70475 0.63636 0.87392 0.0
O29 O 0.84631 0.64044 1.00481 0.0
O30 O 0.85715 0.67765 0.01457 0.0
O31 O 0.69318 0.65299 0.07895 0.0
O32 O 0.77846 0.63105 0.03753 0.0
O33 O 0.66489 0.61819 0.88401 0.0
O34 O 0.73475 0.64927 0.90483 0.0
O35 O 0.809 0.61568 0.99853 0.0
O36 O 0.73883 0.58573 0.97118 0.0
C37 C 0.80303 0.5938 0.99203 0.0
O38 O 0.7355 0.6741 0.93705 0.0
O39 O 0.64333 0.69026 0.98418 0.0
C40 C 0.52831 0.63185 1.00134 0.0
C41 C 0.68365 0.69076 0.94734 0.0
Zn42 Zn 0.05234 0.63341 0.52375 0.0
Zn43 Zn 0.91214 0.67035 0.41934 0.0
Zn44 Zn 0.96183 0.64256 0.46779 0.0
C45 C 0.77166 0.63995 0.44849 0.0
C46 C -0.00722 0.64044 0.36391 0.0
O47 O 0.07444 0.62515 0.43935 0.0
O48 O 0.15154 0.64509 0.4869 0.0
C49 C 0.89463 0.64601 0.56099 0.0
O50 O 0.82799 0.63153 0.47519 0.0
O51 O 0.79299 0.65629 0.42347 0.0
O52 O 0.977 0.6617 0.36369 0.0
O53 O -0.01019 0.62976 0.40072 0.0
O54 O 0.97397 0.65158 0.56544 0.0
O55 O 0.87145 0.63579 0.52476 0.0
O56 O 0.89128 0.61353 0.49564 0.0
O57 O 0.02058 0.59983 0.51191 0.0
C58 C 0.94169 0.59612 0.50193 0.0
O59 O 0.00773 0.67528 0.49363 0.0
O60 O 0.93944 0.6994 0.45089 0.0
C61 C 0.14824 0.63288 0.45204 0.0
C62 C -0.01072 0.69586 0.48319 0.0
Zn63 Zn 0.93809 0.35765 0.42231 0.0
Zn64 Zn 0.79346 0.40138 0.54216 0.0
Zn65 Zn 0.87508 0.37862 0.48794 0.0
C66 C 0.80663 0.43212 0.47908 0.0
C67 C 0.94686 0.39064 0.58378 0.0
O68 O 0.79982 0.34642 0.47363 0.0
O69 O 0.85657 0.33264 0.4113 0.0
C70 C 0.92697 0.40031 0.39076 0.0
O71 O 0.85541 0.41523 0.46533 0.0
O72 O 0.7591 0.42966 0.51291 0.0
O73 O 0.88358 0.40446 0.587 0.0
O74 O 0.95674 0.37809 0.5487 0.0
O75 O 0.9528 0.38094 0.37726 0.0
O76 O 0.89482 0.40276 0.43031 0.0
O77 O 0.00421 0.36693 0.51272 0.0
O78 O 0.04608 0.34824 0.45219 0.0
C79 C 0.06123 0.3546 0.49142 0.0
O80 O 0.74565 0.36145 0.50112 0.0
O81 O 0.69782 0.38149 0.55876 0.0
C82 C 0.80426 0.33054 0.44345 0.0
C83 C 0.68756 0.36517 0.53179 0.0
Zn84 Zn 0.61721 0.85536 0.10389 0.0
Zn85 Zn 0.731 0.92972 0.03488 0.0
Zn86 Zn 0.65989 0.89365 0.06833 0.0
C87 C 0.56572 0.94283 0.06601 0.0
C88 C 0.72288 0.89752 0.96637 0.0
O89 O 0.66744 0.86461 0.01783 0.0
O90 O 0.64492 0.83321 0.0566 0.0
C91 C 0.72882 0.87405 0.16288 0.0
O92 O 0.55898 0.92126 0.07401 0.0
O93 O 0.63492 0.9508 0.04954 0.0
O94 O 0.74449 0.91803 0.9737 0.0
O95 O 0.69107 0.88535 0.99797 0.0
O96 O 0.68693 0.85568 0.15831 0.0
O97 O 0.72969 0.88888 0.1316 0.0
O98 O 0.52425 0.89999 0.09005 0.0
O99 O 0.49305 0.86497 0.11197 0.0
C100 C 0.46941 0.88544 0.10572 0.0
O101 O 0.78386 0.90202 0.10282 0.0
O102 O 0.83768 0.93242 0.06971 0.0
C103 C 0.66235 0.84256 0.02022 0.0
C104 C 0.84485 0.91699 0.09827 0.0
Zn105 Zn 0.37657 0.1177 0.94679 0.0
Zn106 Zn 0.51505 0.17032 0.05665 0.0
Zn107 Zn 0.44507 0.14519 1.00024 0.0
C108 C 0.63624 0.1689 0.98985 0.0
C109 C 0.4884 0.13227 0.10325 0.0
O110 O 0.31797 0.16063 0.97834 0.0
O111 O 0.27799 0.13609 0.92642 0.0
C112 C 0.5353 0.12681 0.90932 0.0
O113 O 0.57891 0.15476 0.97462 0.0
O114 O 0.62178 0.17927 0.026 0.0
O115 O 0.52897 0.15079 0.10785 0.0
O116 O 0.45168 0.12729 0.06604 0.0
O117 O 0.47312 0.113 0.90473 0.0
O118 O 0.5366 0.14078 0.94272 0.0
O119 O 0.42033 0.11158 0.03415 0.0
O120 O 0.34663 0.09181 0.98442 0.0
C121 C 0.37937 0.09321 0.02244 0.0
O122 O 0.36365 0.17687 1.00516 0.0
O123 O 0.42589 0.1942 0.062 0.0
C124 C 0.26332 0.15421 0.94839 0.0
C125 C 0.36797 0.19386 0.03268 0.0
Zn126 Zn 0.75576 0.0838 0.52006 0.0
Zn127 Zn 0.57028 0.14291 0.5047 0.0
Zn128 Zn 0.66718 0.11454 0.49936 0.0
C129 C 0.4707 0.10785 0.51312 0.0
C130 C 0.55952 0.12374 0.41804 0.0
O131 O 0.78647 0.12634 0.46803 0.0
O132 O 0.85785 0.09501 0.48641 0.0
C133 C 0.6973 0.10549 0.59879 0.0
O134 O 0.53308 0.10134 0.48679 0.0
O135 O 0.48633 0.12393 0.5402 0.0
O136 O 0.55478 0.14366 0.43523 0.0
O137 O 0.582 0.10705 0.44331 0.0
O138 O 0.74706 0.0893 0.58591 0.0
O139 O 0.65621 0.11715 0.57015 0.0
O140 O 0.60516 0.08494 0.46361 0.0
O141 O 0.69373 0.05853 0.49039 0.0
C142 C 0.63078 0.06384 0.46576 0.0
O143 O 0.72501 0.14774 0.47836 0.0
O144 O 0.65336 0.1644 0.53318 0.0
C145 C 0.85568 0.1139 0.46652 0.0
C146 C 0.71185 0.16546 0.50351 0.0
Zn147 Zn 0.57283 0.82948 0.53351 0.0
Zn148 Zn 0.44677 0.90157 0.60836 0.0
Zn149 Zn 0.50736 0.86694 0.56402 0.0
C150 C 0.47453 0.91666 0.52193 0.0
C151 C 0.58507 0.88774 0.65612 0.0
O152 O 0.40404 0.83994 0.55957 0.0
O153 O 0.47238 0.80904 0.53317 0.0
C154 C 0.59825 0.86515 0.47026 0.0
O155 O 0.50895 0.89653 0.51754 0.0
O156 O 0.44002 0.92279 0.55832 0.0
O157 O 0.53761 0.90541 0.65389 0.0
O158 O 0.58084 0.87199 0.62599 0.0
O159 O 0.6122 0.84424 0.47796 0.0
O160 O 0.55433 0.8776 0.49817 0.0
O161 O 0.63192 0.85655 0.598 0.0
O162 O 0.66927 0.82218 0.57307 0.0
C163 C 0.68573 0.83938 0.59706 0.0
O164 O 0.36914 0.85944 0.58307 0.0
O165 O 0.33509 0.8883 0.62825 0.0
C166 C 0.40351 0.81871 0.54707 0.0
C167 C 0.31436 0.86973 0.60955 0.0
H168 H 0.35507 0.36322 0.00989 0.0
H169 H 0.81154 0.39913 0.91814 0.0
H170 H 0.38101 0.40164 0.88934 0.0
H171 H 0.77893 0.3372 0.99299 0.0
H172 H 0.65433 0.39918 0.9034 0.0
H173 H 0.50944 0.35192 1.00269 0.0
C174 C 0.39229 0.36876 0.98138 0.0
C175 C 0.35512 0.38354 0.95049 0.0
C176 C 0.68212 0.38529 0.92222 0.0
C177 C 0.53191 0.37137 0.94269 0.0
C178 C 0.77207 0.38518 0.9303 0.0
C179 C 0.8083 0.36842 0.95758 0.0
C180 C 0.62838 0.36877 0.94217 0.0
C181 C 0.75355 0.35077 0.97256 0.0
C182 C 0.48058 0.36245 0.97736 0.0
C183 C 0.40725 0.39053 0.91447 0.0
N184 N 0.66613 0.35172 0.96566 0.0
N185 N 0.49314 0.38477 0.91202 0.0
H186 H 0.98416 0.6187 0.01938 0.0
H187 H 0.45444 0.67433 0.01449 0.0
H188 H 0.01998 0.69178 0.01954 0.0
H189 H 0.40335 0.60214 0.02739 0.0
H190 H 0.29832 0.68229 0.02689 0.0
H191 H 0.13847 0.61329 0.03128 0.0
C192 C 0.02462 0.63364 0.02203 0.0
C193 C -0.01105 0.65562 0.0182 0.0
C194 C 0.32174 0.66477 0.0279 0.0
C195 C 0.16789 0.64972 0.03132 0.0
C196 C 0.41073 0.66024 0.02112 0.0
C197 C 0.44105 0.63752 0.01911 0.0
C198 C 0.2637 0.64641 0.03271 0.0
C199 C 0.38218 0.61987 0.02784 0.0
C200 C 0.11318 0.63059 0.02906 0.0
C201 C 0.04497 0.67447 0.0221 0.0
N202 N 0.29623 0.62468 0.0337 0.0
N203 N 0.13223 0.67109 0.02793 0.0
H204 H 0.67349 0.61521 0.50856 0.0
H205 H 0.23193 0.59512 0.4797 0.0
H206 H 0.66792 0.64356 0.37724 0.0
H207 H 0.25458 0.65164 0.39019 0.0
H208 H 0.39045 0.58905 0.47474 0.0
H209 H 0.51873 0.60504 0.50089 0.0
C210 C 0.64022 0.61885 0.47791 0.0
C211 C 0.68271 0.63072 0.44399 0.0
C212 C 0.36068 0.60248 0.45549 0.0
C213 C 0.50742 0.61885 0.43443 0.0
C214 C 0.27024 0.6056 0.45749 0.0
C215 C 0.231 0.62376 0.43493 0.0
C216 C 0.41141 0.6178 0.43094 0.0
C217 C 0.28276 0.63729 0.40754 0.0
C218 C 0.55217 0.61289 0.4733 0.0
C219 C 0.63698 0.63499 0.4048 0.0
N220 N 0.37073 0.63417 0.40663 0.0
N221 N 0.55168 0.62942 0.40143 0.0
H222 H 0.60548 0.34056 0.46569 0.0
H223 H 0.14647 0.37362 0.56345 0.0
H224 H 0.57329 0.36382 0.60109 0.0
H225 H 0.17677 0.32298 0.459 0.0
H226 H 0.30212 0.36891 0.58045 0.0
H227 H 0.4491 0.33171 0.46396 0.0
C228 C 0.56633 0.34315 0.4954 0.0
C229 C 0.60226 0.35334 0.53324 0.0
C230 C 0.274 0.35853 0.55436 0.0
C231 C 0.42329 0.34402 0.53112 0.0
C232 C 0.18506 0.36118 0.5448 0.0
C233 C 0.1487 0.34902 0.50927 0.0
C234 C 0.32665 0.34389 0.52777 0.0
C235 C 0.20225 0.33312 0.48613 0.0
C236 C 0.47685 0.33829 0.49436 0.0
C237 C 0.54798 0.35643 0.57081 0.0
N238 N 0.28863 0.33136 0.49516 0.0
N239 N 0.46099 0.35234 0.56848 0.0
H240 H 0.91431 0.87836 0.13533 0.0
H241 H 0.39477 0.92842 0.11237 0.0
H242 H 0.9701 0.94938 0.10998 0.0
H243 H 0.33507 0.85682 0.12575 0.0
H244 H 0.24116 0.9378 0.12639 0.0
H245 H 0.06886 0.87186 0.1503 0.0
C246 C 0.95844 0.89276 0.13432 0.0
C247 C 0.92964 0.91433 0.12052 0.0
C248 C 0.2619 0.92003 0.12654 0.0
C249 C 0.10677 0.90689 0.1363 0.0
C250 C 0.34956 0.91471 0.11793 0.0
C251 C 0.37778 0.89185 0.11647 0.0
C252 C 0.20198 0.90231 0.13387 0.0
C253 C 0.31639 0.87472 0.12583 0.0
C254 C 0.047 0.88898 0.14235 0.0
C255 C -0.01002 0.93234 0.11964 0.0
N256 N 0.23141 0.88028 0.13367 0.0
N257 N 0.07601 0.92813 0.12652 0.0
H258 H 0.17702 0.18434 1.00505 0.0
H259 H 0.72549 0.1404 0.93123 0.0
H260 H 0.14944 0.14801 0.88072 0.0
H261 H 0.74709 0.20443 1.00283 0.0
H262 H 0.87999 0.14318 0.91022 0.0
H263 H 0.02053 0.19326 1.0041 0.0
C264 C 0.139 0.17889 0.97688 0.0
C265 C 0.17651 0.1652 0.94322 0.0
C266 C 0.85014 0.15688 0.92966 0.0
C267 C -0.00293 0.1745 0.94281 0.0
C268 C 0.76161 0.15539 0.94124 0.0
C269 C 0.72305 0.17215 0.96878 0.0
C270 C 0.90056 0.17496 0.94672 0.0
C271 C 0.77433 0.19091 0.98199 0.0
C272 C 0.04939 0.1838 0.97651 0.0
C273 C 0.12314 0.15829 0.90783 0.0
N274 N 0.86075 0.19157 0.97166 0.0
N275 N 0.03586 0.16251 0.90909 0.0
H276 H 0.40259 0.09129 0.43473 0.0
H277 H 0.94627 0.15044 0.49598 0.0
H278 H 0.32818 0.11858 0.56329 0.0
H279 H 0.95806 0.09383 0.40343 0.0
H280 H 0.10553 0.14887 0.50196 0.0
H281 H 0.25267 0.09833 0.40921 0.0
C282 C 0.35453 0.0982 0.45789 0.0
C283 C 0.37824 0.10454 0.50117 0.0
C284 C 0.0734 0.13731 0.47912 0.0
C285 C 0.20948 0.11369 0.47148 0.0
C286 C 0.98285 0.13861 0.47486 0.0
C287 C 0.93956 0.12206 0.44962 0.0
C288 C 0.12003 0.11952 0.45755 0.0
C289 C -0.01024 0.1068 0.42341 0.0
C290 C 0.2697 0.10259 0.44302 0.0
C291 C 0.31321 0.11361 0.52956 0.0
N292 N 0.07764 0.10545 0.42887 0.0
N293 N 0.23243 0.11826 0.51402 0.0
H294 H 0.76624 0.87734 0.63268 0.0
H295 H 0.21646 0.84396 0.55354 0.0
H296 H 0.81015 0.8058 0.60164 0.0
H297 H 0.2047 0.87862 0.67982 0.0
H298 H 0.06428 0.83208 0.56349 0.0
H299 H 0.92242 0.88151 0.64655 0.0
C300 C 0.80755 0.86229 0.63059 0.0
C301 C 0.77419 0.84112 0.61641 0.0
C302 C 0.09595 0.84177 0.58953 0.0
C303 C 0.95355 0.84625 0.62934 0.0
C304 C 0.18318 0.84802 0.58421 0.0
C305 C 0.22467 0.86113 0.6167 0.0
C306 C 0.04868 0.84973 0.6267 0.0
C307 C 0.17556 0.86817 0.65416 0.0
C308 C 0.89701 0.86479 0.63792 0.0
C309 C 0.83263 0.82248 0.61234 0.0
N310 N 0.08954 0.86272 0.65782 0.0
N311 N 0.91978 0.82563 0.61751 0.0
H312 H 0.75617 0.56526 0.0575 0.0
H313 H 0.19681 0.49333 0.03035 0.0
H314 H 0.97637 0.58458 0.97667 0.0
H315 H 0.94796 0.46364 0.06396 0.0
H316 H 0.13242 0.53147 0.03949 0.0
H317 H 0.84133 0.5329 0.08575 0.0
C318 C 0.82346 0.56301 0.04674 0.0
C319 C 0.86003 0.57762 0.01517 0.0
C320 C 0.0926 0.51662 0.04619 0.0
C321 C 0.95712 0.54078 0.04695 0.0
C322 C 0.12939 0.49483 0.04137 0.0
C323 C 0.0771 0.47528 0.04548 0.0
C324 C 0.00296 0.51885 0.05522 0.0
C325 C -0.00948 0.47822 0.06022 0.0
C326 C 0.87179 0.5446 0.06281 0.0
C327 C 0.94675 0.57396 1.00175 0.0
N328 N 0.95542 0.49966 0.06354 0.0
N329 N -0.00772 0.55575 0.01746 0.0
H330 H 0.95289 0.4516 0.44311 0.0
H331 H 0.77526 0.57956 0.48687 0.0
H332 H 0.68538 0.46652 0.47988 0.0
H333 H 0.04544 0.55838 0.49419 0.0
H334 H 0.73609 0.53983 0.46764 0.0
H335 H 0.98149 0.49278 0.44069 0.0
C336 C 0.89938 0.46351 0.44903 0.0
C337 C 0.81696 0.45564 0.46224 0.0
C338 C 0.80389 0.54402 0.47338 0.0
C339 C 0.8496 0.5027 0.46072 0.0
C340 C 0.8261 0.56662 0.48466 0.0
C341 C 0.9135 0.57227 0.4929 0.0
C342 C 0.86982 0.52717 0.4695 0.0
C343 C 0.97698 0.55483 0.48887 0.0
C344 C 0.91601 0.48703 0.44835 0.0
C345 C 0.7502 0.47191 0.47003 0.0
N346 N 0.95394 0.53319 0.47743 0.0
N347 N 0.76823 0.49467 0.46983 0.0
H348 H 0.5615 0.96842 0.1408 0.0
H349 H 0.49716 0.07988 0.08532 0.0
H350 H 0.42547 0.95697 0.01856 0.0
H351 H 0.26299 0.05826 0.01908 0.0
H352 H 0.51564 0.04121 0.11348 0.0
H353 H 0.49186 1.00621 0.14783 0.0
C354 C 0.51389 0.97354 0.11643 0.0
C355 C 0.49865 0.95968 0.07913 0.0
C356 C 0.4581 0.04507 0.09435 0.0
C357 C 0.42281 1.00317 0.08556 0.0
C358 C 0.44738 0.06731 0.07845 0.0
C359 C 0.37859 0.07235 0.04982 0.0
C360 C 0.40023 0.02773 0.08086 0.0
C361 C 0.31765 0.05505 0.04069 0.0
C362 C 0.4756 0.99526 0.11999 0.0
C363 C 0.43811 0.96715 0.04796 0.0
N364 N 0.33114 0.0334 0.05516 0.0
N365 N 0.40326 0.98859 0.05152 0.0
H366 H 0.70434 0.03168 0.41242 0.0
H367 H 0.3463 0.9459 0.49786 0.0
H368 H 0.45859 0.05186 0.47201 0.0
H369 H 0.61478 0.92806 0.46949 0.0
H370 H 0.36667 0.98229 0.46018 0.0
H371 H 0.6503 0.99264 0.40373 0.0
C372 C 0.63734 0.02807 0.42179 0.0
C373 C 0.58591 0.04487 0.44329 0.0
C374 C 0.42044 0.97016 0.46092 0.0
C375 C 0.52492 1.00012 0.43502 0.0
C376 C 0.40881 0.94933 0.48222 0.0
C377 C 0.47927 0.93407 0.48701 0.0
C378 C 0.50353 0.97591 0.44478 0.0
C379 C 0.55876 0.9393 0.46628 0.0
C380 C 0.60692 1.00573 0.41728 0.0
C381 C 0.50004 0.03937 0.45517 0.0
N382 N 0.56932 0.96004 0.44683 0.0
N383 N 0.47286 0.01726 0.45193 0.0
H384 H 0.21676 0.33163 0.9609 0.0
H385 H 0.28511 0.21701 0.0983 0.0
H386 H 0.22155 0.32762 0.10326 0.0
H387 H 0.33927 0.21898 0.95816 0.0
H388 H 0.24464 0.25733 0.09721 0.0
H389 H 0.25964 0.29096 0.95609 0.0
C390 C 0.23022 0.32242 0.99104 0.0
C391 C 0.2155 0.33287 0.03258 0.0
C392 C 0.26427 0.249 0.06643 0.0
C393 C 0.26032 0.28649 0.0274 0.0
C394 C 0.28571 0.22587 0.06696 0.0
C395 C 0.31516 0.21476 0.02828 0.0
C396 C 0.27315 0.26128 0.02695 0.0
C397 C 0.31586 0.22699 0.98857 0.0
C398 C 0.25298 0.29915 0.9883 0.0
C399 C 0.23209 0.32015 0.07062 0.0
N400 N 0.29632 0.24981 0.98896 0.0
N401 N 0.25231 0.29759 0.06712 0.0
H402 H 0.81456 0.82448 0.9876 0.0
H403 H 0.54576 0.71638 0.921 0.0
H404 H 0.53625 0.82422 0.96906 0.0
H405 H 0.8265 0.71651 0.92795 0.0
H406 H 0.54606 0.75804 0.91594 0.0
H407 H 0.82623 0.78849 0.94513 0.0
C408 C 0.75645 0.81736 0.97274 0.0
C409 C 0.67442 0.8273 0.98147 0.0
C410 C 0.60806 0.74905 0.91711 0.0
C411 C 0.68633 0.78571 0.93461 0.0
C412 C 0.6078 0.72518 0.91941 0.0
C413 C 0.68615 0.71304 0.92492 0.0
C414 C 0.68713 0.76093 0.92187 0.0
C415 C 0.7647 0.72527 0.92343 0.0
C416 C 0.76287 0.79668 0.94889 0.0
C417 C 0.60075 0.81713 0.96264 0.0
N418 N 0.76313 0.74861 0.92339 0.0
N419 N 0.60819 0.79669 0.94084 0.0
H420 H 0.11421 0.69562 0.54825 0.0
H421 H 0.27169 0.8192 0.48798 0.0
H422 H 0.96363 0.74118 0.46664 0.0
H423 H 0.36101 0.78564 0.6055 0.0
H424 H 0.15413 0.79117 0.48168 0.0
H425 H 0.20141 0.72839 0.57294 0.0
C426 C 0.09848 0.71252 0.53613 0.0
C427 C 0.03257 0.71558 0.50472 0.0
C428 C 0.19801 0.7902 0.50951 0.0
C429 C 0.13237 0.75294 0.53234 0.0
C430 C 0.26465 0.80624 0.51313 0.0
C431 C 0.32373 0.805 0.54803 0.0
C432 C 0.19312 0.7722 0.53993 0.0
C433 C 0.31481 0.78738 0.57881 0.0
C434 C 0.1482 0.73121 0.55024 0.0
C435 C 0.0147 0.7379 0.49034 0.0
N436 N 0.25119 0.77144 0.57379 0.0
N437 N 0.06521 0.75563 0.50367 0.0
H438 H 0.74824 0.31178 0.52161 0.0
H439 H 0.75425 0.1835 0.4224 0.0
H440 H 0.7821 0.29619 0.38245 0.0
H441 H 0.73884 0.20025 0.56169 0.0
H442 H 0.76558 0.22455 0.40627 0.0
H443 H 0.73317 0.27086 0.53588 0.0
C444 C 0.74986 0.29985 0.49387 0.0
C445 C 0.76706 0.30749 0.45081 0.0
C446 C 0.76091 0.21919 0.4404 0.0
C447 C 0.7531 0.26047 0.46706 0.0
C448 C 0.75613 0.19574 0.4496 0.0
C449 C 0.74578 0.18848 0.49342 0.0
C450 C 0.75504 0.23537 0.47531 0.0
C451 C 0.74665 0.20513 0.52739 0.0
C452 C 0.74286 0.27641 0.50211 0.0
C453 C 0.7695 0.29109 0.41626 0.0
N454 N 0.75017 0.22773 0.51763 0.0
N455 N 0.76379 0.26839 0.42517 0.0
H456 H 0.83949 0.42752 0.13362 0.0
H457 H 0.07353 0.42075 0.36069 0.0
H458 H 0.11807 0.43201 0.14888 0.0
H459 H 0.79438 0.42036 0.34552 0.0
H460 H 0.08894 0.43765 0.28741 0.0
H461 H 0.81959 0.43787 0.21165 0.0
C462 C 0.8964 0.43173 0.15308 0.0
C463 C 0.98052 0.42884 0.13497 0.0
C464 C 0.02395 0.43469 0.30053 0.0
C465 C 0.95874 0.4395 0.22502 0.0
C466 C 0.01515 0.4253 0.34268 0.0
C467 C 0.93257 0.41921 0.35904 0.0
C468 C 0.94963 0.43739 0.27408 0.0
C469 C 0.85914 0.42497 0.33412 0.0
C470 C 0.88515 0.43739 0.19784 0.0
C471 C 0.05213 0.43415 0.16164 0.0
N472 N 0.86946 0.43318 0.29237 0.0
N473 N 0.03978 0.43859 0.20568 0.0
H474 H 0.90506 0.61534 0.08516 0.0
H475 H 0.88537 0.60504 0.34626 0.0
H476 H 0.67496 0.63538 0.15975 0.0
H477 H 0.07339 0.64951 0.28485 0.0
H478 H 0.82621 0.59596 0.2729 0.0
H479 H 0.98136 0.60823 0.15471 0.0
C480 C 0.86983 0.6177 0.11599 0.0
C481 C 0.78411 0.62648 0.11662 0.0
C482 C 0.88284 0.60691 0.27552 0.0
C483 C 0.86979 0.61744 0.19592 0.0
C484 C 0.91746 0.61187 0.31716 0.0
C485 C 0.98464 0.62798 0.32147 0.0
C486 C 0.91758 0.6176 0.23806 0.0
C487 C 0.022 0.6369 0.28279 0.0
C488 C 0.91347 0.6136 0.15556 0.0
C489 C 0.74136 0.62892 0.15774 0.0
N490 N 0.98739 0.63175 0.24258 0.0
N491 N 0.78484 0.62455 0.19584 0.0
H492 H 0.7938 0.67222 0.83526 0.0
H493 H 0.76309 0.61783 0.59102 0.0
H494 H 0.64289 0.61218 0.80315 0.0
H495 H 0.90031 0.68012 0.62204 0.0
H496 H 0.70139 0.61824 0.66658 0.0
H497 H 0.82013 0.67788 0.75582 0.0
C498 C 0.76573 0.66034 0.81163 0.0
C499 C 0.71701 0.64155 0.82613 0.0
C500 C 0.74372 0.63206 0.65655 0.0
C501 C 0.74674 0.64787 0.73509 0.0
C502 C 0.778 0.63193 0.61324 0.0
C503 C 0.83735 0.64883 0.60047 0.0
C504 C 0.76937 0.64918 0.68704 0.0
C505 C 0.85543 0.6666 0.63078 0.0
C506 C 0.78059 0.66357 0.76622 0.0
C507 C 0.68173 0.62679 0.79377 0.0
N508 N 0.82271 0.66614 0.67271 0.0
N509 N 0.69788 0.63014 0.75002 0.0
H510 H 0.05107 0.42124 0.62413 0.0
H511 H 0.98568 0.36892 0.86449 0.0
H512 H 0.94282 0.35384 0.63791 0.0
H513 H 0.97557 0.44071 0.83299 0.0
H514 H -0.01047 0.35972 0.78455 0.0
H515 H 0.06187 0.42438 0.70452 0.0
C516 C 0.03394 0.4066 0.64409 0.0
C517 C -0.00349 0.38723 0.62448 0.0
C518 C 0.98507 0.37743 0.79538 0.0
C519 C 0.00354 0.39118 0.71657 0.0
C520 C 0.9811 0.38268 0.84088 0.0
C521 C 0.98082 0.40565 0.85537 0.0
C522 C -0.01004 0.39531 0.76472 0.0
C523 C 0.97641 0.4228 0.82332 0.0
C524 C 0.0378 0.40862 0.69002 0.0
C525 C 0.97313 0.36895 0.65192 0.0
N526 N 0.98279 0.4173 0.77969 0.0
N527 N 0.97521 0.37151 0.69684 0.0
H528 H 0.82081 0.84862 0.22148 0.0
H529 H 0.53294 0.89741 0.4126 0.0
H530 H 0.68722 0.91321 0.2072 0.0
H531 H 0.7557 0.85378 0.43594 0.0
H532 H 0.59501 0.90665 0.3394 0.0
H533 H 0.81037 0.85306 0.30185 0.0
C534 C 0.79252 0.8642 0.23543 0.0
C535 C 0.755 0.88057 0.20793 0.0
C536 C 0.63122 0.89551 0.36111 0.0
C537 C 0.73782 0.8852 0.29962 0.0
C538 C 0.59584 0.89031 0.40281 0.0
C539 C 0.63876 0.87461 0.42992 0.0
C540 C 0.70907 0.88464 0.34664 0.0
C541 C 0.71964 0.86562 0.41558 0.0
C542 C 0.78562 0.86667 0.2813 0.0
C543 C 0.71757 0.9003 0.2275 0.0
N544 N 0.75139 0.87046 0.37475 0.0
N545 N 0.70729 0.90175 0.27226 0.0
H546 H 0.34516 0.133 0.1558 0.0
H547 H 0.60854 0.08792 0.36462 0.0
H548 H 0.60421 0.10429 0.14411 0.0
H549 H 0.44817 0.14895 0.36689 0.0
H550 H 0.57338 0.08216 0.28613 0.0
H551 H 0.3471 0.12583 0.23573 0.0
C552 C 0.40045 0.12402 0.16974 0.0
C553 C 0.47423 0.11894 0.14351 0.0
C554 C 0.54497 0.09658 0.30413 0.0
C555 C 0.47775 0.11123 0.23448 0.0
C556 C 0.56493 0.09992 0.34877 0.0
C557 C 0.53224 0.11916 0.372 0.0
C558 C 0.49016 0.11226 0.28297 0.0
C559 C 0.47582 0.13411 0.34996 0.0
C560 C 0.40209 0.12031 0.21534 0.0
C561 C 0.54564 0.1081 0.16328 0.0
N562 N 0.45662 0.13037 0.3066 0.0
N563 N 0.5461 0.10479 0.20779 0.0
H564 H 0.56578 0.1634 0.85671 0.0
H565 H 0.765 0.08125 0.66718 0.0
H566 H 0.63734 0.09279 0.87567 0.0
H567 H 0.61528 0.1423 0.63979 0.0
H568 H 0.75304 0.08989 0.74609 0.0
H569 H 0.62257 0.16076 0.78031 0.0
C570 C 0.59715 0.14768 0.84536 0.0
C571 C 0.59747 0.12828 0.87222 0.0
C572 C 0.72321 0.10148 0.72283 0.0
C573 C 0.65999 0.12495 0.7853 0.0
C574 C 0.72965 0.09653 0.6777 0.0
C575 C 0.68997 0.11091 0.64673 0.0
C576 C 0.67704 0.12102 0.7374 0.0
C577 C 0.64583 0.13058 0.66252 0.0
C578 C 0.6281 0.14606 0.80166 0.0
C579 C 0.63656 0.10813 0.85586 0.0
N580 N 0.64015 0.13501 0.70684 0.0
N581 N 0.66547 0.1069 0.81328 0.0
H582 H 0.68515 0.91913 0.6984 0.0
H583 H 0.62564 0.86397 0.92577 0.0
H584 H 0.60021 0.84905 0.70501 0.0
H585 H 0.83324 0.91198 0.90183 0.0
H586 H 0.61943 0.85603 0.84597 0.0
H587 H 0.74519 0.91589 0.77275 0.0
C588 C 0.68096 0.90291 0.71531 0.0
C589 C 0.63753 0.88438 0.69601 0.0
C590 C 0.66803 0.86779 0.85842 0.0
C591 C 0.70297 0.88072 0.78136 0.0
C592 C 0.672 0.87219 0.904 0.0
C593 C 0.7297 0.88872 0.92042 0.0
C594 C 0.72076 0.88043 0.82936 0.0
C595 C 0.78671 0.89938 0.89048 0.0
C596 C 0.71523 0.90102 0.75763 0.0
C597 C 0.63349 0.86369 0.71906 0.0
N598 N 0.77958 0.89541 0.84636 0.0
N599 N 0.66372 0.86257 0.7612 0.0
loop_
_geom_bond_atom_site_label_1
_geom_bond_atom_site_label_2
_geom_bond_distance
_geom_bond_site_symmetry_2
_ccdc_geom_bond_type
Zn0 O6 1.920 1_655 S
Zn0 O12 1.898 . S
Zn0 O15 1.905 . S
Zn1 O9 1.905 . S
Zn1 O10 1.898 . S
Zn1 O18 1.920 . S
Zn2 O5 2.080 1_554 S
Zn2 O8 2.114 1_554 S
Zn2 O11 2.120 1_554 S
Zn2 O13 2.120 . S
Zn2 O14 2.114 1_455 S
Zn2 O17 2.080 . S
C3 O8 1.166 . S
C3 O9 1.193 . S
C4 O10 1.167 . S
C4 O11 1.299 . S
O5 Zn2 2.080 1_556 S
O5 C19 1.305 1_556 S
O6 Zn0 1.920 1_455 S
O6 C19 1.234 . S
C7 O12 1.167 1_455 S
C7 O13 1.299 . S
O8 Zn2 2.114 1_556 S
O8 C3 1.166 . S
O9 Zn1 1.905 . S
O9 C3 1.193 . S
O10 Zn1 1.898 . S
O10 C4 1.167 . S
O11 Zn2 2.120 1_556 S
O11 C4 1.299 . S
O12 Zn0 1.898 . S
O12 C7 1.167 1_655 S
O13 Zn2 2.120 . S
O13 C7 1.299 . S
O14 Zn2 2.114 1_655 S
O14 C16 1.166 . S
O15 Zn0 1.905 . S
O15 C16 1.182 . S
C16 O14 1.166 . S
C16 O15 1.182 . S
O17 Zn2 2.080 . S
O17 C20 1.305 1_554 S
O18 Zn1 1.920 . S
O18 C20 1.234 . S
C19 O5 1.305 1_554 S
C19 O6 1.234 . S
C20 O17 1.305 1_556 S
C20 O18 1.234 . S
Zn21 O27 1.920 . S
Zn21 O33 1.898 . S
Zn21 O36 1.905 . S
Zn22 O30 1.905 . S
Zn22 O31 1.898 . S
Zn22 O39 1.920 1_455 S
Zn23 O26 2.080 . S
Zn23 O29 2.114 1_655 S
Zn23 O32 2.120 . S
Zn23 O34 2.120 1_554 S
Zn23 O35 2.114 1_554 S
Zn23 O38 2.080 1_554 S
C24 O29 1.166 . S
C24 O30 1.182 . S
C25 O31 1.167 1_655 S
C25 O32 1.299 . S
O26 Zn23 2.080 . S
O26 C40 1.305 1_554 S
O27 Zn21 1.920 . S
O27 C40 1.234 . S
C28 O33 1.167 . S
C28 O34 1.299 . S
O29 Zn23 2.114 1_455 S
O29 C24 1.166 . S
O30 Zn22 1.905 . S
O30 C24 1.182 . S
O31 Zn22 1.898 . S
O31 C25 1.167 1_455 S
O32 Zn23 2.120 . S
O32 C25 1.299 . S
O33 Zn21 1.898 . S
O33 C28 1.167 . S
O34 Zn23 2.120 1_556 S
O34 C28 1.299 . S
O35 Zn23 2.114 1_556 S
O35 C37 1.166 . S
O36 Zn21 1.905 . S
O36 C37 1.193 . S
C37 O35 1.166 . S
C37 O36 1.193 . S
O38 Zn23 2.080 1_556 S
O38 C41 1.305 1_556 S
O39 Zn22 1.920 1_655 S
O39 C41 1.234 . S
C40 O26 1.305 1_556 S
C40 O27 1.234 . S
C41 O38 1.305 1_554 S
C41 O39 1.234 . S
Zn42 O48 1.920 . S
Zn42 O54 1.898 . S
Zn42 O57 1.905 . S
Zn43 O51 1.905 . S
Zn43 O52 1.898 . S
Zn43 O60 1.920 1_655 S
Zn44 O47 2.080 . S
Zn44 O50 2.114 1_455 S
Zn44 O53 2.120 . S
Zn44 O55 2.120 . S
Zn44 O56 2.114 . S
Zn44 O59 2.080 . S
C45 O50 1.166 . S
C45 O51 1.182 . S
C46 O52 1.167 1_455 S
C46 O53 1.299 . S
O47 Zn44 2.080 . S
O47 C61 1.305 . S
O48 Zn42 1.920 . S
O48 C61 1.234 . S
C49 O54 1.167 . S
C49 O55 1.299 . S
O50 Zn44 2.114 1_655 S
O50 C45 1.166 . S
O51 Zn43 1.905 . S
O51 C45 1.182 . S
O52 Zn43 1.898 . S
O52 C46 1.167 1_655 S
O53 Zn44 2.120 . S
O53 C46 1.299 . S
O54 Zn42 1.898 . S
O54 C49 1.167 . S
O55 Zn44 2.120 . S
O55 C49 1.299 . S
O56 Zn44 2.114 . S
O56 C58 1.166 . S
O57 Zn42 1.905 . S
O57 C58 1.182 . S
C58 O56 1.166 . S
C58 O57 1.182 . S
O59 Zn44 2.080 . S
O59 C62 1.305 . S
O60 Zn43 1.920 1_455 S
O60 C62 1.234 . S
C61 O47 1.305 . S
C61 O48 1.234 . S
C62 O59 1.305 . S
C62 O60 1.234 . S
Zn63 O69 1.920 1_455 S
Zn63 O75 1.898 . S
Zn63 O78 1.905 . S
Zn64 O72 1.905 . S
Zn64 O73 1.898 . S
Zn64 O81 1.920 . S
Zn65 O68 2.080 . S
Zn65 O71 2.114 . S
Zn65 O74 2.120 . S
Zn65 O76 2.120 . S
Zn65 O77 2.114 1_655 S
Zn65 O80 2.080 . S
C66 O71 1.166 . S
C66 O72 1.182 . S
C67 O73 1.167 . S
C67 O74 1.299 . S
O68 Zn65 2.080 . S
O68 C82 1.305 . S
O69 Zn63 1.920 1_655 S
O69 C82 1.234 . S
C70 O75 1.167 1_655 S
C70 O76 1.299 . S
O71 Zn65 2.114 . S
O71 C66 1.166 . S
O72 Zn64 1.905 . S
O72 C66 1.182 . S
O73 Zn64 1.898 . S
O73 C67 1.167 . S
O74 Zn65 2.120 . S
O74 C67 1.299 . S
O75 Zn63 1.898 . S
O75 C70 1.167 1_455 S
O76 Zn65 2.120 . S
O76 C70 1.299 . S
O77 Zn65 2.114 1_455 S
O77 C79 1.166 . S
O78 Zn63 1.905 . S
O78 C79 1.182 . S
C79 O77 1.166 . S
C79 O78 1.182 . S
O80 Zn65 2.080 . S
O80 C83 1.305 . S
O81 Zn64 1.920 . S
O81 C83 1.234 . S
C82 O68 1.305 . S
C82 O69 1.234 . S
C83 O80 1.305 . S
C83 O81 1.234 . S
Zn84 O90 1.920 . S
Zn84 O96 1.898 . S
Zn84 O99 1.905 . S
Zn85 O93 1.905 . S
Zn85 O94 1.898 . S
Zn85 O102 1.920 . S
Zn86 O89 2.080 1_554 S
Zn86 O92 2.114 1_554 S
Zn86 O95 2.120 1_554 S
Zn86 O97 2.120 . S
Zn86 O98 2.114 . S
Zn86 O101 2.080 . S
C87 O92 1.166 . S
C87 O93 1.193 . S
C88 O94 1.167 . S
C88 O95 1.299 . S
O89 Zn86 2.080 1_556 S
O89 C103 1.305 1_556 S
O90 Zn84 1.920 . S
O90 C103 1.234 . S
C91 O96 1.167 . S
C91 O97 1.299 . S
O92 Zn86 2.114 1_556 S
O92 C87 1.166 . S
O93 Zn85 1.905 . S
O93 C87 1.193 . S
O94 Zn85 1.898 . S
O94 C88 1.167 . S
O95 Zn86 2.120 1_556 S
O95 C88 1.299 . S
O96 Zn84 1.898 . S
O96 C91 1.167 . S
O97 Zn86 2.120 . S
O97 C91 1.299 . S
O98 Zn86 2.114 . S
O98 C100 1.166 . S
O99 Zn84 1.905 . S
O99 C100 1.182 . S
C100 O98 1.166 . S
C100 O99 1.182 . S
O101 Zn86 2.080 . S
O101 C104 1.305 1_554 S
O102 Zn85 1.920 . S
O102 C104 1.234 . S
C103 O89 1.305 1_554 S
C103 O90 1.234 . S
C104 O101 1.305 1_556 S
C104 O102 1.234 . S
Zn105 O111 1.920 . S
Zn105 O117 1.898 . S
Zn105 O120 1.905 . S
Zn106 O114 1.905 . S
Zn106 O115 1.898 . S
Zn106 O123 1.920 . S
Zn107 O110 2.080 . S
Zn107 O113 2.114 . S
Zn107 O116 2.120 . S
Zn107 O118 2.120 1_554 S
Zn107 O119 2.114 1_554 S
Zn107 O122 2.080 1_554 S
C108 O113 1.166 . S
C108 O114 1.182 . S
C109 O115 1.167 . S
C109 O116 1.299 . S
O110 Zn107 2.080 . S
O110 C124 1.305 1_554 S
O111 Zn105 1.920 . S
O111 C124 1.234 . S
C112 O117 1.167 . S
C112 O118 1.299 . S
O113 Zn107 2.114 . S
O113 C108 1.166 . S
O114 Zn106 1.905 . S
O114 C108 1.182 . S
O115 Zn106 1.898 . S
O115 C109 1.167 . S
O116 Zn107 2.120 . S
O116 C109 1.299 . S
O117 Zn105 1.898 . S
O117 C112 1.167 . S
O118 Zn107 2.120 1_556 S
O118 C112 1.299 . S
O119 Zn107 2.114 1_556 S
O119 C121 1.166 . S
O120 Zn105 1.905 . S
O120 C121 1.193 . S
C121 O119 1.166 . S
C121 O120 1.193 . S
O122 Zn107 2.080 1_556 S
O122 C125 1.305 1_556 S
O123 Zn106 1.920 . S
O123 C125 1.234 . S
C124 O110 1.305 1_556 S
C124 O111 1.234 . S
C125 O122 1.305 1_554 S
C125 O123 1.234 . S
Zn126 O132 1.920 . S
Zn126 O138 1.898 . S
Zn126 O141 1.905 . S
Zn127 O135 1.905 . S
Zn127 O136 1.898 . S
Zn127 O144 1.920 . S
Zn128 O131 2.080 . S
Zn128 O134 2.114 . S
Zn128 O137 2.120 . S
Zn128 O139 2.120 . S
Zn128 O140 2.114 . S
Zn128 O143 2.080 . S
C129 O134 1.166 . S
C129 O135 1.182 . S
C130 O136 1.167 . S
C130 O137 1.299 . S
O131 Zn128 2.080 . S
O131 C145 1.305 . S
O132 Zn126 1.920 . S
O132 C145 1.234 . S
C133 O138 1.167 . S
C133 O139 1.299 . S
O134 Zn128 2.114 . S
O134 C129 1.166 . S
O135 Zn127 1.905 . S
O135 C129 1.182 . S
O136 Zn127 1.898 . S
O136 C130 1.167 . S
O137 Zn128 2.120 . S
O137 C130 1.299 . S
O138 Zn126 1.898 . S
O138 C133 1.167 . S
O139 Zn128 2.120 . S
O139 C133 1.299 . S
O140 Zn128 2.114 . S
O140 C142 1.166 . S
O141 Zn126 1.905 . S
O141 C142 1.182 . S
C142 O140 1.166 . S
C142 O141 1.182 . S
O143 Zn128 2.080 . S
O143 C146 1.305 . S
O144 Zn127 1.920 . S
O144 C146 1.234 . S
C145 O131 1.305 . S
C145 O132 1.234 . S
C146 O143 1.305 . S
C146 O144 1.234 . S
Zn147 O153 1.920 . S
Zn147 O159 1.898 . S
Zn147 O162 1.905 . S
Zn148 O156 1.905 . S
Zn148 O157 1.898 . S
Zn148 O165 1.920 . S
Zn149 O152 2.080 . S
Zn149 O155 2.114 . S
Zn149 O158 2.120 . S
Zn149 O160 2.120 . S
Zn149 O161 2.114 . S
Zn149 O164 2.080 . S
C150 O155 1.166 . S
C150 O156 1.182 . S
C151 O157 1.167 . S
C151 O158 1.299 . S
O152 Zn149 2.080 . S
O152 C166 1.305 . S
O153 Zn147 1.920 . S
O153 C166 1.234 . S
C154 O159 1.167 . S
C154 O160 1.299 . S
O155 Zn149 2.114 . S
O155 C150 1.166 . S
O156 Zn148 1.905 . S
O156 C150 1.182 . S
O157 Zn148 1.898 . S
O157 C151 1.167 . S
O158 Zn149 2.120 . S
O158 C151 1.299 . S
O159 Zn147 1.898 . S
O159 C154 1.167 . S
O160 Zn149 2.120 . S
O160 C154 1.299 . S
O161 Zn149 2.114 . S
O161 C163 1.166 . S
O162 Zn147 1.905 . S
O162 C163 1.182 . S
C163 O161 1.166 . S
C163 O162 1.182 . S
O164 Zn149 2.080 . S
O164 C167 1.305 . S
O165 Zn148 1.920 . S
O165 C167 1.234 . S
C166 O152 1.305 . S
C166 O153 1.234 . S
C167 O164 1.305 . S
C167 O165 1.234 . S
H168 C174 0.930 . S
H169 C178 0.930 . S
H170 C183 0.929 . S
H171 C181 0.929 . S
H172 C176 0.929 . S
H173 C182 0.929 . S
C174 H168 0.930 . S
C174 C175 1.367 1_554 S
C174 C182 1.378 . S
C175 C174 1.367 1_556 S
C175 C183 1.433 . S
C176 H172 0.929 . S
C176 C178 1.378 . S
C176 C180 1.350 . S
C177 C180 1.463 . S
C177 C182 1.350 1_556 S
C177 N185 1.427 . S
C178 H169 0.930 . S
C178 C176 1.378 . S
C178 C179 1.367 . S
C179 C178 1.367 . S
C179 C181 1.433 1_556 S
C180 C176 1.350 . S
C180 C177 1.463 . S
C180 N184 1.427 1_556 S
C181 H171 0.929 . S
C181 C179 1.433 1_554 S
C181 N184 1.384 . S
C182 H173 0.929 . S
C182 C174 1.378 . S
C182 C177 1.350 1_554 S
C183 H170 0.929 . S
C183 C175 1.433 . S
C183 N185 1.384 . S
N184 C180 1.427 1_554 S
N184 C181 1.384 . S
N185 C177 1.427 . S
N185 C183 1.384 . S
H186 C192 0.930 . S
H187 C196 0.930 . S
H188 C201 0.929 . S
H189 C199 0.929 . S
H190 C194 0.929 . S
H191 C200 0.929 . S
C192 H186 0.930 . S
C192 C193 1.367 1_554 S
C192 C200 1.378 . S
C193 C192 1.367 1_556 S
C193 C201 1.433 . S
C194 H190 0.929 . S
C194 C196 1.378 . S
C194 C198 1.350 . S
C195 C198 1.463 . S
C195 C200 1.350 1_556 S
C195 N203 1.427 . S
C196 H187 0.930 . S
C196 C194 1.378 . S
C196 C197 1.367 . S
C197 C196 1.367 . S
C197 C199 1.433 1_556 S
C198 C194 1.350 . S
C198 C195 1.463 . S
C198 N202 1.427 1_556 S
C199 H189 0.929 . S
C199 C197 1.433 1_554 S
C199 N202 1.384 . S
C200 H191 0.929 . S
C200 C192 1.378 . S
C200 C195 1.350 1_554 S
C201 H188 0.929 . S
C201 C193 1.433 . S
C201 N203 1.384 . S
N202 C198 1.427 1_554 S
N202 C199 1.384 . S
N203 C195 1.427 . S
N203 C201 1.384 . S
H204 C210 0.930 . S
H205 C214 0.930 . S
H206 C219 0.929 . S
H207 C217 0.929 . S
H208 C212 0.929 . S
H209 C218 0.929 . S
C210 H204 0.930 . S
C210 C211 1.367 . S
C210 C218 1.378 . S
C211 C210 1.367 . S
C211 C219 1.433 . S
C212 H208 0.929 . S
C212 C214 1.378 . S
C212 C216 1.350 . S
C213 C216 1.463 . S
C213 C218 1.350 . S
C213 N221 1.427 . S
C214 H205 0.930 . S
C214 C212 1.378 . S
C214 C215 1.367 . S
C215 C214 1.367 . S
C215 C217 1.433 . S
C216 C212 1.350 . S
C216 C213 1.463 . S
C216 N220 1.427 . S
C217 H207 0.929 . S
C217 C215 1.433 . S
C217 N220 1.384 . S
C218 H209 0.929 . S
C218 C210 1.378 . S
C218 C213 1.350 . S
C219 H206 0.929 . S
C219 C211 1.433 . S
C219 N221 1.384 . S
N220 C216 1.427 . S
N220 C217 1.384 . S
N221 C213 1.427 . S
N221 C219 1.384 . S
H222 C228 0.930 . S
H223 C232 0.930 . S
H224 C237 0.929 . S
H225 C235 0.929 . S
H226 C230 0.929 . S
H227 C236 0.929 . S
C228 H222 0.930 . S
C228 C229 1.367 . S
C228 C236 1.378 . S
C229 C228 1.367 . S
C229 C237 1.433 . S
C230 H226 0.929 . S
C230 C232 1.378 . S
C230 C234 1.350 . S
C231 C234 1.463 . S
C231 C236 1.350 . S
C231 N239 1.427 . S
C232 H223 0.930 . S
C232 C230 1.378 . S
C232 C233 1.367 . S
C233 C232 1.367 . S
C233 C235 1.433 . S
C234 C230 1.350 . S
C234 C231 1.463 . S
C234 N238 1.427 . S
C235 H225 0.929 . S
C235 C233 1.433 . S
C235 N238 1.384 . S
C236 H227 0.929 . S
C236 C228 1.378 . S
C236 C231 1.350 . S
C237 H224 0.929 . S
C237 C229 1.433 . S
C237 N239 1.384 . S
N238 C234 1.427 . S
N238 C235 1.384 . S
N239 C231 1.427 . S
N239 C237 1.384 . S
H240 C246 0.930 . S
H241 C250 0.930 . S
H242 C255 0.929 . S
H243 C253 0.929 . S
H244 C248 0.929 . S
H245 C254 0.929 1_455 S
C246 H240 0.930 . S
C246 C247 1.367 . S
C246 C254 1.378 . S
C247 C246 1.367 . S
C247 C255 1.433 1_556 S
C248 H244 0.929 . S
C248 C250 1.378 . S
C248 C252 1.350 1_554 S
C249 C252 1.463 . S
C249 C254 1.350 1_455 S
C249 N257 1.427 1_456 S
C250 H241 0.930 . S
C250 C248 1.378 . S
C250 C251 1.367 1_554 S
C251 C250 1.367 1_556 S
C251 C253 1.433 . S
C252 C248 1.350 1_556 S
C252 C249 1.463 . S
C252 N256 1.427 . S
C253 H243 0.929 . S
C253 C251 1.433 . S
C253 N256 1.384 . S
C254 H245 0.929 1_655 S
C254 C246 1.378 . S
C254 C249 1.350 1_655 S
C255 H242 0.929 . S
C255 C247 1.433 1_554 S
C255 N257 1.384 . S
N256 C252 1.427 . S
N256 C253 1.384 . S
N257 C249 1.427 1_654 S
N257 C255 1.384 . S
H258 C264 0.930 . S
H259 C268 0.930 . S
H260 C273 0.929 . S
H261 C271 0.929 . S
H262 C266 0.929 . S
H263 C272 0.929 1_655 S
C264 H258 0.930 . S
C264 C265 1.367 1_554 S
C264 C272 1.378 . S
C265 C264 1.367 1_556 S
C265 C273 1.433 . S
C266 H262 0.929 . S
C266 C268 1.378 . S
C266 C270 1.350 . S
C267 C270 1.463 . S
C267 C272 1.350 1_656 S
C267 N275 1.427 1_655 S
C268 H259 0.930 . S
C268 C266 1.378 . S
C268 C269 1.367 . S
C269 C268 1.367 . S
C269 C271 1.433 1_556 S
C270 C266 1.350 . S
C270 C267 1.463 . S
C270 N274 1.427 1_556 S
C271 H261 0.929 . S
C271 C269 1.433 1_554 S
C271 N274 1.384 . S
C272 H263 0.929 1_455 S
C272 C264 1.378 . S
C272 C267 1.350 1_454 S
C273 H260 0.929 . S
C273 C265 1.433 . S
C273 N275 1.384 . S
N274 C270 1.427 1_554 S
N274 C271 1.384 . S
N275 C267 1.427 1_455 S
N275 C273 1.384 . S
H276 C282 0.930 . S
H277 C286 0.930 . S
H278 C291 0.929 . S
H279 C289 0.929 . S
H280 C284 0.929 1_455 S
H281 C290 0.929 . S
C282 H276 0.930 . S
C282 C283 1.367 . S
C282 C290 1.378 . S
C283 C282 1.367 . S
C283 C291 1.433 . S
C284 H280 0.929 1_655 S
C284 C286 1.378 . S
C284 C288 1.350 1_655 S
C285 C288 1.463 . S
C285 C290 1.350 . S
C285 N293 1.427 . S
C286 H277 0.930 . S
C286 C284 1.378 . S
C286 C287 1.367 . S
C287 C286 1.367 . S
C287 C289 1.433 . S
C288 C284 1.350 1_455 S
C288 C285 1.463 . S
C288 N292 1.427 1_455 S
C289 H279 0.929 . S
C289 C287 1.433 . S
C289 N292 1.384 . S
C290 H281 0.929 . S
C290 C282 1.378 . S
C290 C285 1.350 . S
C291 H278 0.929 . S
C291 C283 1.433 . S
C291 N293 1.384 . S
N292 C288 1.427 1_655 S
N292 C289 1.384 . S
N293 C285 1.427 . S
N293 C291 1.384 . S
H294 C300 0.930 . S
H295 C304 0.930 . S
H296 C309 0.929 . S
H297 C307 0.929 . S
H298 C302 0.929 1_655 S
H299 C308 0.929 . S
C300 H294 0.930 . S
C300 C301 1.367 . S
C300 C308 1.378 . S
C301 C300 1.367 . S
C301 C309 1.433 . S
C302 H298 0.929 1_455 S
C302 C304 1.378 . S
C302 C306 1.350 1_455 S
C303 C306 1.463 . S
C303 C308 1.350 . S
C303 N311 1.427 . S
C304 H295 0.930 . S
C304 C302 1.378 . S
C304 C305 1.367 . S
C305 C304 1.367 . S
C305 C307 1.433 . S
C306 C302 1.350 1_655 S
C306 C303 1.463 . S
C306 N310 1.427 1_655 S
C307 H297 0.929 . S
C307 C305 1.433 . S
C307 N310 1.384 . S
C308 H299 0.929 . S
C308 C300 1.378 . S
C308 C303 1.350 . S
C309 H296 0.929 . S
C309 C301 1.433 . S
C309 N311 1.384 . S
N310 C306 1.427 1_455 S
N310 C307 1.384 . S
N311 C303 1.427 . S
N311 C309 1.384 . S
H312 C318 0.930 . S
H313 C322 0.930 1_556 S
H314 C327 0.922 1_556 S
H315 C325 0.929 . S
H316 C320 0.929 1_556 S
H317 C326 0.929 . S
C318 H312 0.930 . S
C318 C319 1.367 . S
C318 C326 1.378 . S
C319 C318 1.367 . S
C319 C327 1.440 1_655 S
C320 H316 0.929 1_554 S
C320 C322 1.378 . S
C320 C324 1.350 . S
C321 C324 1.463 1_655 S
C321 C326 1.350 . S
C321 N329 1.437 1_655 S
C322 H313 0.930 1_554 S
C322 C320 1.378 . S
C322 C323 1.367 . S
C323 C322 1.367 . S
C323 C325 1.433 1_455 S
C324 C320 1.350 . S
C324 C321 1.463 1_455 S
C324 N328 1.427 1_455 S
C325 H315 0.929 . S
C325 C323 1.433 1_655 S
C325 N328 1.384 . S
C326 H317 0.929 . S
C326 C318 1.378 . S
C326 C321 1.350 . S
C327 H314 0.922 1_554 S
C327 C319 1.440 1_455 S
C327 N329 1.384 . S
N328 C324 1.427 1_655 S
N328 C325 1.384 . S
N329 C321 1.437 1_455 S
N329 C327 1.384 . S
H330 C336 0.930 . S
H331 C340 0.930 . S
H332 C345 0.929 . S
H333 C343 0.929 . S
H334 C338 0.929 . S
H335 C344 0.929 . S
C336 H330 0.930 . S
C336 C337 1.367 1_455 S
C336 C344 1.378 . S
C337 C336 1.367 1_655 S
C337 C345 1.433 . S
C338 H334 0.929 . S
C338 C340 1.378 . S
C338 C342 1.350 1_655 S
C339 C342 1.463 1_655 S
C339 C344 1.350 1_655 S
C339 N347 1.427 . S
C340 H331 0.930 . S
C340 C338 1.378 . S
C340 C341 1.367 1_655 S
C341 C340 1.367 1_455 S
C341 C343 1.433 . S
C342 C338 1.350 1_455 S
C342 C339 1.463 1_455 S
C342 N346 1.427 . S
C343 H333 0.929 . S
C343 C341 1.433 . S
C343 N346 1.384 . S
C344 H335 0.929 . S
C344 C336 1.378 . S
C344 C339 1.350 1_455 S
C345 H332 0.929 . S
C345 C337 1.433 . S
C345 N347 1.384 . S
N346 C342 1.427 . S
N346 C343 1.384 . S
N347 C339 1.427 . S
N347 C345 1.384 . S
H348 C354 0.930 . S
H349 C358 0.930 . S
H350 C363 0.929 . S
H351 C361 0.929 . S
H352 C356 0.929 . S
H353 C362 0.929 . S
C354 H348 0.930 . S
C354 C355 1.367 . S
C354 C362 1.378 . S
C355 C354 1.367 . S
C355 C363 1.433 1_554 S
C356 H352 0.929 . S
C356 C358 1.378 . S
C356 C360 1.350 1_556 S
C357 C360 1.463 1_565 S
C357 C362 1.350 . S
C357 N365 1.427 1_554 S
C358 H349 0.930 . S
C358 C356 1.378 . S
C358 C359 1.367 1_556 S
C359 C358 1.367 1_554 S
C359 C361 1.433 . S
C360 C356 1.350 1_554 S
C360 C357 1.463 1_545 S
C360 N364 1.427 . S
C361 H351 0.929 . S
C361 C359 1.433 . S
C361 N364 1.384 . S
C362 H353 0.929 . S
C362 C354 1.378 . S
C362 C357 1.350 . S
C363 H350 0.929 . S
C363 C355 1.433 1_556 S
C363 N365 1.384 . S
N364 C360 1.427 . S
N364 C361 1.384 . S
N365 C357 1.427 1_556 S
N365 C363 1.384 . S
H366 C372 0.930 . S
H367 C376 0.930 . S
H368 C381 0.929 . S
H369 C379 0.929 . S
H370 C374 0.929 . S
H371 C380 0.929 . S
C372 H366 0.930 . S
C372 C373 1.367 . S
C372 C380 1.378 . S
C373 C372 1.367 . S
C373 C381 1.433 . S
C374 H370 0.929 . S
C374 C376 1.378 . S
C374 C378 1.350 . S
C375 C378 1.463 1_545 S
C375 C380 1.350 . S
C375 N383 1.427 . S
C376 H367 0.930 . S
C376 C374 1.378 . S
C376 C377 1.367 . S
C377 C376 1.367 . S
C377 C379 1.433 . S
C378 C374 1.350 . S
C378 C375 1.463 1_565 S
C378 N382 1.427 . S
C379 H369 0.929 . S
C379 C377 1.433 . S
C379 N382 1.384 . S
C380 H371 0.929 . S
C380 C372 1.378 . S
C380 C375 1.350 . S
C381 H368 0.929 . S
C381 C373 1.433 . S
C381 N383 1.384 . S
N382 C378 1.427 . S
N382 C379 1.384 . S
N383 C375 1.427 . S
N383 C381 1.384 . S
H384 C390 0.930 . S
H385 C394 0.930 . S
H386 C399 0.929 . S
H387 C397 0.929 . S
H388 C392 0.929 . S
H389 C398 0.929 . S
C390 H384 0.930 . S
C390 C391 1.367 1_556 S
C390 C398 1.378 . S
C391 C390 1.367 1_554 S
C391 C399 1.433 . S
C392 H388 0.929 . S
C392 C394 1.378 . S
C392 C396 1.350 . S
C393 C396 1.463 . S
C393 C398 1.350 1_554 S
C393 N401 1.427 . S
C394 H385 0.930 . S
C394 C392 1.378 . S
C394 C395 1.367 . S
C395 C394 1.367 . S
C395 C397 1.433 1_554 S
C396 C392 1.350 . S
C396 C393 1.463 . S
C396 N400 1.427 1_554 S
C397 H387 0.929 . S
C397 C395 1.433 1_556 S
C397 N400 1.384 . S
C398 H389 0.929 . S
C398 C390 1.378 . S
C398 C393 1.350 1_556 S
C399 H386 0.929 . S
C399 C391 1.433 . S
C399 N401 1.384 . S
N400 C396 1.427 1_556 S
N400 C397 1.384 . S
N401 C393 1.427 . S
N401 C399 1.384 . S
H402 C408 0.930 . S
H403 C412 0.930 . S
H404 C417 0.929 . S
H405 C415 0.929 . S
H406 C410 0.929 . S
H407 C416 0.929 . S
C408 H402 0.930 . S
C408 C409 1.367 1_556 S
C408 C416 1.378 . S
C409 C408 1.367 1_554 S
C409 C417 1.433 . S
C410 H406 0.929 . S
C410 C412 1.378 . S
C410 C414 1.350 . S
C411 C414 1.463 . S
C411 C416 1.350 1_554 S
C411 N419 1.427 . S
C412 H403 0.930 . S
C412 C410 1.378 . S
C412 C413 1.367 . S
C413 C412 1.367 . S
C413 C415 1.433 1_554 S
C414 C410 1.350 . S
C414 C411 1.463 . S
C414 N418 1.427 1_554 S
C415 H405 0.929 . S
C415 C413 1.433 1_556 S
C415 N418 1.384 . S
C416 H407 0.929 . S
C416 C408 1.378 . S
C416 C411 1.350 1_556 S
C417 H404 0.929 . S
C417 C409 1.433 . S
C417 N419 1.384 . S
N418 C414 1.427 1_556 S
N418 C415 1.384 . S
N419 C411 1.427 . S
N419 C417 1.384 . S
H420 C426 0.930 . S
H421 C430 0.930 . S
H422 C435 0.929 . S
H423 C433 0.929 . S
H424 C428 0.929 . S
H425 C434 0.929 . S
C426 H420 0.930 . S
C426 C427 1.367 . S
C426 C434 1.378 . S
C427 C426 1.367 . S
C427 C435 1.433 . S
C428 H424 0.929 . S
C428 C430 1.378 . S
C428 C432 1.350 . S
C429 C432 1.463 . S
C429 C434 1.350 . S
C429 N437 1.427 . S
C430 H421 0.930 . S
C430 C428 1.378 . S
C430 C431 1.367 . S
C431 C430 1.367 . S
C431 C433 1.433 . S
C432 C428 1.350 . S
C432 C429 1.463 . S
C432 N436 1.427 . S
C433 H423 0.929 . S
C433 C431 1.433 . S
C433 N436 1.384 . S
C434 H425 0.929 . S
C434 C426 1.378 . S
C434 C429 1.350 . S
C435 H422 0.929 . S
C435 C427 1.433 . S
C435 N437 1.384 . S
N436 C432 1.427 . S
N436 C433 1.384 . S
N437 C429 1.427 . S
N437 C435 1.384 . S
H438 C444 0.930 . S
H439 C448 0.930 . S
H440 C453 0.929 . S
H441 C451 0.929 . S
H442 C446 0.929 . S
H443 C452 0.929 . S
C444 H438 0.930 . S
C444 C445 1.367 . S
C444 C452 1.378 . S
C445 C444 1.367 . S
C445 C453 1.433 . S
C446 H442 0.929 . S
C446 C448 1.378 . S
C446 C450 1.350 . S
C447 C450 1.463 . S
C447 C452 1.350 . S
C447 N455 1.427 . S
C448 H439 0.930 . S
C448 C446 1.378 . S
C448 C449 1.367 . S
C449 C448 1.367 . S
C449 C451 1.433 . S
C450 C446 1.350 . S
C450 C447 1.463 . S
C450 N454 1.427 . S
C451 H441 0.929 . S
C451 C449 1.433 . S
C451 N454 1.384 . S
C452 H443 0.929 . S
C452 C444 1.378 . S
C452 C447 1.350 . S
C453 H440 0.929 . S
C453 C445 1.433 . S
C453 N455 1.384 . S
N454 C450 1.427 . S
N454 C451 1.384 . S
N455 C447 1.427 . S
N455 C453 1.384 . S
H456 C462 0.930 . S
H457 C466 0.930 . S
H458 C471 0.929 . S
H459 C469 0.929 . S
H460 C464 0.929 . S
H461 C470 0.929 . S
C462 H456 0.930 . S
C462 C463 1.367 . S
C462 C470 1.378 . S
C463 C462 1.367 . S
C463 C471 1.433 . S
C464 H460 0.929 . S
C464 C466 1.378 . S
C464 C468 1.350 . S
C465 C468 1.463 1_455 S
C465 C470 1.350 . S
C465 N473 1.427 . S
C466 H457 0.930 . S
C466 C464 1.378 . S
C466 C467 1.367 . S
C467 C466 1.367 . S
C467 C469 1.433 . S
C468 C464 1.350 . S
C468 C465 1.463 1_655 S
C468 N472 1.427 . S
C469 H459 0.929 . S
C469 C467 1.433 . S
C469 N472 1.384 . S
C470 H461 0.929 . S
C470 C462 1.378 . S
C470 C465 1.350 . S
C471 H458 0.929 . S
C471 C463 1.433 . S
C471 N473 1.384 . S
N472 C468 1.427 . S
N472 C469 1.384 . S
N473 C465 1.427 . S
N473 C471 1.384 . S
H474 C480 0.930 . S
H475 C484 0.930 . S
H476 C489 0.929 . S
H477 C487 0.929 . S
H478 C482 0.929 . S
H479 C488 0.929 . S
C480 H474 0.930 . S
C480 C481 1.367 1_455 S
C480 C488 1.378 . S
C481 C480 1.367 1_655 S
C481 C489 1.433 . S
C482 H478 0.929 . S
C482 C484 1.378 . S
C482 C486 1.350 1_655 S
C483 C486 1.463 1_655 S
C483 C488 1.350 1_655 S
C483 N491 1.427 . S
C484 H475 0.930 . S
C484 C482 1.378 . S
C484 C485 1.367 1_655 S
C485 C484 1.367 1_455 S
C485 C487 1.433 . S
C486 C482 1.350 1_455 S
C486 C483 1.463 1_455 S
C486 N490 1.427 . S
C487 H477 0.929 . S
C487 C485 1.433 . S
C487 N490 1.384 . S
C488 H479 0.929 . S
C488 C480 1.378 . S
C488 C483 1.350 1_455 S
C489 H476 0.929 . S
C489 C481 1.433 . S
C489 N491 1.384 . S
N490 C486 1.427 . S
N490 C487 1.384 . S
N491 C483 1.427 . S
N491 C489 1.384 . S
H492 C498 0.930 . S
H493 C502 0.930 . S
H494 C507 0.929 . S
H495 C505 0.929 . S
H496 C500 0.929 . S
H497 C506 0.929 . S
C498 H492 0.930 . S
C498 C499 1.367 1_455 S
C498 C506 1.378 . S
C499 C498 1.367 1_655 S
C499 C507 1.433 . S
C500 H496 0.929 . S
C500 C502 1.378 . S
C500 C504 1.350 1_655 S
C501 C504 1.463 1_655 S
C501 C506 1.350 1_655 S
C501 N509 1.427 . S
C502 H493 0.930 . S
C502 C500 1.378 . S
C502 C503 1.367 1_655 S
C503 C502 1.367 1_455 S
C503 C505 1.433 . S
C504 C500 1.350 1_455 S
C504 C501 1.463 1_455 S
C504 N508 1.427 . S
C505 H495 0.929 . S
C505 C503 1.433 . S
C505 N508 1.384 . S
C506 H497 0.929 . S
C506 C498 1.378 . S
C506 C501 1.350 1_455 S
C507 H494 0.929 . S
C507 C499 1.433 . S
C507 N509 1.384 . S
N508 C504 1.427 . S
N508 C505 1.384 . S
N509 C501 1.427 . S
N509 C507 1.384 . S
H510 C516 0.930 . S
H511 C520 0.930 . S
H512 C525 0.929 . S
H513 C523 0.929 . S
H514 C518 0.929 . S
H515 C524 0.929 . S
C516 H510 0.930 . S
C516 C517 1.367 . S
C516 C524 1.378 . S
C517 C516 1.367 . S
C517 C525 1.433 1_655 S
C518 H514 0.929 . S
C518 C520 1.378 . S
C518 C522 1.350 . S
C519 C522 1.463 1_655 S
C519 C524 1.350 . S
C519 N527 1.427 1_655 S
C520 H511 0.930 . S
C520 C518 1.378 . S
C520 C521 1.367 . S
C521 C520 1.367 . S
C521 C523 1.433 1_455 S
C522 C518 1.350 . S
C522 C519 1.463 1_455 S
C522 N526 1.427 1_455 S
C523 H513 0.929 . S
C523 C521 1.433 1_655 S
C523 N526 1.384 . S
C524 H515 0.929 . S
C524 C516 1.378 . S
C524 C519 1.350 . S
C525 H512 0.929 . S
C525 C517 1.433 1_455 S
C525 N527 1.384 . S
N526 C522 1.427 1_655 S
N526 C523 1.384 . S
N527 C519 1.427 1_455 S
N527 C525 1.384 . S
H528 C534 0.930 . S
H529 C538 0.930 . S
H530 C543 0.929 . S
H531 C541 0.929 . S
H532 C536 0.929 . S
H533 C542 0.929 . S
C534 H528 0.930 . S
C534 C535 1.367 . S
C534 C542 1.378 . S
C535 C534 1.367 . S
C535 C543 1.433 . S
C536 H532 0.929 . S
C536 C538 1.378 . S
C536 C540 1.350 . S
C537 C540 1.463 . S
C537 C542 1.350 . S
C537 N545 1.427 . S
C538 H529 0.930 . S
C538 C536 1.378 . S
C538 C539 1.367 . S
C539 C538 1.367 . S
C539 C541 1.433 . S
C540 C536 1.350 . S
C540 C537 1.463 . S
C540 N544 1.427 . S
C541 H531 0.929 . S
C541 C539 1.433 . S
C541 N544 1.384 . S
C542 H533 0.929 . S
C542 C534 1.378 . S
C542 C537 1.350 . S
C543 H530 0.929 . S
C543 C535 1.433 . S
C543 N545 1.384 . S
N544 C540 1.427 . S
N544 C541 1.384 . S
N545 C537 1.427 . S
N545 C543 1.384 . S
H546 C552 0.930 . S
H547 C556 0.930 . S
H548 C561 0.929 . S
H549 C559 0.929 . S
H550 C554 0.929 . S
H551 C560 0.929 . S
C552 H546 0.930 . S
C552 C553 1.367 . S
C552 C560 1.378 . S
C553 C552 1.367 . S
C553 C561 1.433 . S
C554 H550 0.929 . S
C554 C556 1.378 . S
C554 C558 1.350 . S
C555 C558 1.463 . S
C555 C560 1.350 . S
C555 N563 1.427 . S
C556 H547 0.930 . S
C556 C554 1.378 . S
C556 C557 1.367 . S
C557 C556 1.367 . S
C557 C559 1.433 . S
C558 C554 1.350 . S
C558 C555 1.463 . S
C558 N562 1.427 . S
C559 H549 0.929 . S
C559 C557 1.433 . S
C559 N562 1.384 . S
C560 H551 0.929 . S
C560 C552 1.378 . S
C560 C555 1.350 . S
C561 H548 0.929 . S
C561 C553 1.433 . S
C561 N563 1.384 . S
N562 C558 1.427 . S
N562 C559 1.384 . S
N563 C555 1.427 . S
N563 C561 1.384 . S
H564 C570 0.930 . S
H565 C574 0.930 . S
H566 C579 0.929 . S
H567 C577 0.929 . S
H568 C572 0.929 . S
H569 C578 0.929 . S
C570 H564 0.930 . S
C570 C571 1.367 . S
C570 C578 1.378 . S
C571 C570 1.367 . S
C571 C579 1.433 . S
C572 H568 0.929 . S
C572 C574 1.378 . S
C572 C576 1.350 . S
C573 C576 1.463 . S
C573 C578 1.350 . S
C573 N581 1.427 . S
C574 H565 0.930 . S
C574 C572 1.378 . S
C574 C575 1.367 . S
C575 C574 1.367 . S
C575 C577 1.433 . S
C576 C572 1.350 . S
C576 C573 1.463 . S
C576 N580 1.427 . S
C577 H567 0.929 . S
C577 C575 1.433 . S
C577 N580 1.384 . S
C578 H569 0.929 . S
C578 C570 1.378 . S
C578 C573 1.350 . S
C579 H566 0.929 . S
C579 C571 1.433 . S
C579 N581 1.384 . S
N580 C576 1.427 . S
N580 C577 1.384 . S
N581 C573 1.427 . S
N581 C579 1.384 . S
H582 C588 0.930 . S
H583 C592 0.930 . S
H584 C597 0.929 . S
H585 C595 0.929 . S
H586 C590 0.929 . S
H587 C596 0.929 . S
C588 H582 0.930 . S
C588 C589 1.367 . S
C588 C596 1.378 . S
C589 C588 1.367 . S
C589 C597 1.433 . S
C590 H586 0.929 . S
C590 C592 1.378 . S
C590 C594 1.350 . S
C591 C594 1.463 . S
C591 C596 1.350 . S
C591 N599 1.427 . S
C592 H583 0.930 . S
C592 C590 1.378 . S
C592 C593 1.367 . S
C593 C592 1.367 . S
C593 C595 1.433 . S
C594 C590 1.350 . S
C594 C591 1.463 . S
C594 N598 1.427 . S
C595 H585 0.929 . S
C595 C593 1.433 . S
C595 N598 1.384 . S
C596 H587 0.929 . S
C596 C588 1.378 . S
C596 C591 1.350 . S
C597 H584 0.929 . S
C597 C589 1.433 . S
C597 N599 1.384 . S
N598 C594 1.427 . S
N598 C595 1.384 . S
N599 C591 1.427 . S
N599 C597 1.384 . S
C175 C20 1.241 . S
C179 C16 1.216 1_556 S
C193 C24 1.196 1_556 S
C197 C40 1.233 . S
C211 C45 1.209 . S
C215 C61 1.227 . S
C229 C83 1.241 . S
C233 C79 1.216 . S
C247 C104 1.223 . S
C251 C100 1.190 1_556 S
C265 C124 1.242 . S
C269 C108 1.212 1_556 S
C283 C129 1.191 . S
C287 C145 1.225 . S
C301 C163 1.211 . S
C305 C167 1.242 . S
C319 C37 1.387 1_554 S
C323 C3 1.379 1_554 S
C337 C66 1.388 . S
C341 C58 1.404 . S
C355 C87 1.396 1_554 S
C359 C121 1.375 1_554 S
C373 C142 1.397 . S
C377 C150 1.385 . S
C391 C19 1.392 . S
C395 C125 1.385 . S
C409 C103 1.391 . S
C413 C41 1.383 . S
C427 C62 1.392 . S
C431 C166 1.384 . S
C445 C82 1.388 . S
C449 C146 1.377 . S
C463 C7 1.314 . S
C467 C70 1.286 . S
C481 C25 1.309 . S
C485 C46 1.285 . S
C499 C28 1.347 . S
C503 C49 1.338 . S
C517 C67 1.324 . S
C521 C4 1.337 . S
C535 C91 1.295 . S
C539 C154 1.311 . S
C553 C109 1.306 . S
C557 C130 1.304 . S
C571 C112 1.344 . S
C575 C133 1.334 . S
C589 C151 1.324 . S
C593 C88 1.335 . S
