# Generated by pormake.
# Topology zfu, (5)-cn, num edge types: 1
# Building blocks:
#     Node 0, Type 0, BuildingBlock: BEQFEK_clean_sbu_0, # of connection points: 5
#     Node 1, Type 0, BuildingBlock: BEQFEK_clean_sbu_0, # of connection points: 5
#     Node 2, Type 0, BuildingBlock: BEQFEK_clean_sbu_0, # of connection points: 5
#     Node 3, Type 0, BuildingBlock: BEQFEK_clean_sbu_0, # of connection points: 5
#     Node 4, Type 0, BuildingBlock: BEQFEK_clean_sbu_0, # of connection points: 5
#     Node 5, Type 0, BuildingBlock: BEQFEK_clean_sbu_0, # of connection points: 5
#     Node 6, Type 0, BuildingBlock: BEQFEK_clean_sbu_0, # of connection points: 5
#     Node 7, Type 0, BuildingBlock: BEQFEK_clean_sbu_0, # of connection points: 5
#     Edge 8, Type (0, 0), BuildingBlock: UVAHIK_clean_linker_0, # of connection points: 2
#     Edge 9, Type (0, 0), BuildingBlock: UVAHIK_clean_linker_0, # of connection points: 2
#     Edge 10, Type (0, 0), BuildingBlock: UVAHIK_clean_linker_0, # of connection points: 2
#     Edge 11, Type (0, 0), BuildingBlock: UVAHIK_clean_linker_0, # of connection points: 2
#     Edge 12, Type (0, 0), BuildingBlock: UVAHIK_clean_linker_0, # of connection points: 2
#     Edge 13, Type (0, 0), BuildingBlock: UVAHIK_clean_linker_0, # of connection points: 2
#     Edge 14, Type (0, 0), BuildingBlock: UVAHIK_clean_linker_0, # of connection points: 2
#     Edge 15, Type (0, 0), BuildingBlock: UVAHIK_clean_linker_0, # of connection points: 2
#     Edge 16, Type (0, 0), BuildingBlock: UVAHIK_clean_linker_0, # of connection points: 2
#     Edge 17, Type (0, 0), BuildingBlock: UVAHIK_clean_linker_0, # of connection points: 2
#     Edge 18, Type (0, 0), BuildingBlock: UVAHIK_clean_linker_0, # of connection points: 2
#     Edge 19, Type (0, 0), BuildingBlock: UVAHIK_clean_linker_0, # of connection points: 2
#     Edge 20, Type (0, 0), BuildingBlock: UVAHIK_clean_linker_0, # of connection points: 2
#     Edge 21, Type (0, 0), BuildingBlock: UVAHIK_clean_linker_0, # of connection points: 2
#     Edge 22, Type (0, 0), BuildingBlock: UVAHIK_clean_linker_0, # of connection points: 2
#     Edge 23, Type (0, 0), BuildingBlock: UVAHIK_clean_linker_0, # of connection points: 2
#     Edge 24, Type (0, 0), BuildingBlock: UVAHIK_clean_linker_0, # of connection points: 2
#     Edge 25, Type (0, 0), BuildingBlock: UVAHIK_clean_linker_0, # of connection points: 2
#     Edge 26, Type (0, 0), BuildingBlock: UVAHIK_clean_linker_0, # of connection points: 2
#     Edge 27, Type (0, 0), BuildingBlock: UVAHIK_clean_linker_0, # of connection points: 2
# Relax obj value: 0.065
# Max RMSD: 0.102
# Mean RMSD: 0.102
data_MOF--net-zfu--node1-BEQFEK_clean_sbu_0--edge1-UVAHIK_clean_linker_0
_symmetry_space_group_name_H-M    P1
_symmetry_Int_Tables_number       1
_symmetry_cell_setting            triclinic
loop_
_symmetry_equiv_pos_as_xyz
'x, y, z'
_cell_length_a     52.029016
_cell_length_b     52.036754
_cell_length_c     34.235879
_cell_angle_alpha  90.028118
_cell_angle_beta   90.020742
_cell_angle_gamma 90.035922
loop_
_atom_site_label
_atom_site_type_symbol
_atom_site_fract_x
_atom_site_fract_y
_atom_site_fract_z
_atom_type_partial_charge
Co0 Co 0.44148 0.70772 0.05956 0.0
Co1 Co 0.40529 0.75559 0.05448 0.0
C2 C 0.46137 0.76149 0.07053 0.0
O3 O 0.46457 0.73732 0.068 0.0
O4 O 0.43926 0.77153 0.06604 0.0
C5 C 0.48189 0.67565 0.03144 0.0
O6 O 0.48457 0.69399 0.00539 0.0
C7 C 0.38464 0.80396 0.02345 0.0
C8 C 0.34391 0.80141 0.0413 0.0
C9 C 0.36116 0.81654 0.02068 0.0
N10 N 0.38124 0.78235 0.04436 0.0
N11 N 0.35696 0.78115 0.05545 0.0
C12 C 0.40925 0.81066 0.00323 0.0
H13 H 0.42142 0.79331 -0.0003 0.0
H14 H 0.40536 0.8193 0.97419 0.0
H15 H 0.41992 0.82486 0.02119 0.0
C16 C 0.4167 0.6962 0.98321 0.0
N17 N 0.42115 0.71173 0.01403 0.0
N18 N 0.40652 0.73229 0.01115 0.0
C19 C 0.39259 0.73062 0.97795 0.0
C20 C 0.3986 0.70772 0.95918 0.0
C21 C 0.42705 0.66948 0.97933 0.0
H22 H 0.42975 0.66075 0.00856 0.0
H23 H 0.44587 0.67019 0.96417 0.0
H24 H 0.41388 0.65718 0.96194 0.0
O25 O 0.41902 0.70347 0.10544 0.0
O26 O 0.39289 0.73711 0.10189 0.0
H27 H 0.35776 0.75182 0.98585 0.0
H28 H 0.36592 0.74614 0.93521 0.0
C29 C 0.37377 0.75051 0.96457 0.0
H30 H 0.38346 0.7694 0.96313 0.0
H31 H 0.34912 0.76606 0.0716 0.0
O32 O 0.4641 0.67727 0.05671 0.0
C33 C 0.40034 0.7166 0.11879 0.0
Co34 Co 0.79106 0.94008 0.30498 0.0
Co35 Co 0.74133 0.90587 0.30293 0.0
C36 C 0.73883 0.96214 0.32055 0.0
O37 O 0.76301 0.96418 0.31643 0.0
O38 O 0.72757 0.94059 0.3163 0.0
C39 C 0.8216 0.9817 0.27908 0.0
O40 O 0.80024 0.98736 0.26049 0.0
C41 C 0.69152 0.88873 0.27249 0.0
C42 C 0.68981 0.84844 0.29271 0.0
C43 C 0.67661 0.86661 0.27098 0.0
N44 N 0.71277 0.88366 0.29348 0.0
N45 N 0.7115 0.85963 0.30583 0.0
C46 C 0.68547 0.91467 0.25592 0.0
H47 H 0.68457 0.92884 0.28008 0.0
H48 H 0.70118 0.92082 0.2361 0.0
H49 H 0.66684 0.91494 0.24026 0.0
C50 C 0.79848 0.91657 0.22726 0.0
N51 N 0.78427 0.92077 0.25948 0.0
N52 N 0.7634 0.90646 0.25812 0.0
C53 C 0.76373 0.89265 0.22469 0.0
C54 C 0.78592 0.89871 0.20402 0.0
C55 C 0.82494 0.92718 0.22118 0.0
H56 H 0.83562 0.92725 0.2492 0.0
H57 H 0.82341 0.94726 0.2106 0.0
H58 H 0.8359 0.91579 0.19944 0.0
O59 O 0.79561 0.91681 0.34983 0.0
O60 O 0.76069 0.89217 0.34882 0.0
H61 H 0.74179 0.85866 0.23605 0.0
H62 H 0.74766 0.86446 0.18468 0.0
C63 C 0.74347 0.87365 0.21318 0.0
H64 H 0.72476 0.8836 0.2107 0.0
H65 H 0.72568 0.85074 0.32262 0.0
O66 O 0.82246 0.96136 0.29956 0.0
C67 C 0.78212 0.89865 0.36406 0.0
Co68 Co 0.55774 0.29145 0.55748 0.0
Co69 Co 0.59266 0.24251 0.55344 0.0
C70 C 0.53648 0.23804 0.56837 0.0
O71 O 0.53431 0.26233 0.56592 0.0
O72 O 0.55819 0.2271 0.56414 0.0
C73 C 0.51765 0.32355 0.52852 0.0
O74 O 0.51497 0.30499 0.50279 0.0
C75 C 0.61357 0.19389 0.52316 0.0
C76 C 0.65394 0.19632 0.54289 0.0
C77 C 0.63707 0.18125 0.52143 0.0
N78 N 0.61662 0.21549 0.54427 0.0
N79 N 0.64068 0.21661 0.55647 0.0
C80 C 0.58932 0.18723 0.50192 0.0
H81 H 0.5771 0.20455 0.49828 0.0
H82 H 0.59371 0.17883 0.47288 0.0
H83 H 0.57845 0.17284 0.5192 0.0
C84 C 0.58306 0.30192 0.48151 0.0
N85 N 0.57816 0.28666 0.51241 0.0
N86 N 0.59237 0.26578 0.50996 0.0
C87 C 0.60659 0.26705 0.47701 0.0
C88 C 0.60109 0.28996 0.45792 0.0
C89 C 0.57313 0.32877 0.47712 0.0
H90 H 0.57045 0.33775 0.50619 0.0
H91 H 0.55435 0.32822 0.46183 0.0
H92 H 0.58653 0.34075 0.45966 0.0
O93 O 0.57995 0.29557 0.60359 0.0
O94 O 0.60486 0.26098 0.6011 0.0
H95 H 0.64086 0.24518 0.48621 0.0
H96 H 0.63378 0.25126 0.43531 0.0
C97 C 0.62529 0.24689 0.46424 0.0
H98 H 0.61528 0.22819 0.46212 0.0
H99 H 0.64825 0.23168 0.573 0.0
O100 O 0.53542 0.32211 0.55388 0.0
C101 C 0.59801 0.28187 0.61754 0.0
Co102 Co 0.20896 0.05686 0.809 0.0
Co103 Co 0.25778 0.09218 0.80573 0.0
C104 C 0.26211 0.0356 0.8192 0.0
O105 O 0.23786 0.0332 0.81668 0.0
O106 O 0.27287 0.05747 0.81561 0.0
C107 C 0.17763 0.01515 0.78386 0.0
O108 O 0.19791 0.00981 0.76249 0.0
C109 C 0.30535 0.11262 0.7719 0.0
C110 C 0.30681 0.15156 0.79756 0.0
C111 C 0.31939 0.13534 0.77174 0.0
N112 N 0.28538 0.11546 0.79643 0.0
N113 N 0.28656 0.13863 0.81209 0.0
C114 C 0.3092 0.08949 0.74662 0.0
H115 H 0.29103 0.07842 0.74401 0.0
H116 H 0.31606 0.09524 0.71719 0.0
H117 H 0.32394 0.07691 0.76013 0.0
C118 C 0.1987 0.08225 0.73312 0.0
N119 N 0.21385 0.07756 0.76422 0.0
N120 N 0.23426 0.09252 0.76264 0.0
C121 C 0.23258 0.10739 0.73041 0.0
C122 C 0.21009 0.10128 0.71059 0.0
C123 C 0.17381 0.06869 0.72545 0.0
H124 H 0.16143 0.06978 0.75177 0.0
H125 H 0.1778 0.04817 0.71938 0.0
H126 H 0.16344 0.07667 0.69995 0.0
O127 O 0.20535 0.07881 0.85583 0.0
O128 O 0.23976 0.10408 0.85364 0.0
H129 H 0.2544 0.14036 0.74801 0.0
H130 H 0.24234 0.14218 0.69881 0.0
C131 C 0.25047 0.12911 0.7212 0.0
H132 H 0.26886 0.12123 0.71012 0.0
H133 H 0.27309 0.14591 0.83177 0.0
O134 O 0.17774 0.03512 0.80523 0.0
C135 C 0.21901 0.09685 0.87009 0.0
Co136 Co 0.94083 0.78998 0.759 0.0
Co137 Co 0.90478 0.74173 0.76197 0.0
C138 C 0.96068 0.73653 0.74459 0.0
O139 O 0.96373 0.76066 0.74825 0.0
O140 O 0.93867 0.72623 0.74891 0.0
C141 C 0.98157 0.82107 0.78874 0.0
O142 O 0.98417 0.80193 0.81345 0.0
C143 C 0.88505 0.69264 0.79141 0.0
C144 C 0.84412 0.69462 0.77449 0.0
C145 C 0.86184 0.67954 0.79425 0.0
N146 N 0.88108 0.71446 0.77126 0.0
N147 N 0.85667 0.71532 0.76069 0.0
C148 C 0.90993 0.68625 0.81109 0.0
H149 H 0.92179 0.70381 0.8149 0.0
H150 H 0.90644 0.67723 0.83998 0.0
H151 H 0.92076 0.67248 0.79263 0.0
C152 C 0.91672 0.79941 0.83627 0.0
N153 N 0.92105 0.78458 0.80467 0.0
N154 N 0.90646 0.76392 0.80663 0.0
C155 C 0.89268 0.76482 0.84002 0.0
C156 C 0.89875 0.78731 0.85987 0.0
C157 C 0.92685 0.82616 0.8412 0.0
H158 H 0.92934 0.83545 0.81234 0.0
H159 H 0.94575 0.82535 0.85615 0.0
H160 H 0.91367 0.83801 0.85922 0.0
O161 O 0.91759 0.79551 0.71433 0.0
O162 O 0.89173 0.76155 0.71618 0.0
H163 H 0.85782 0.74381 0.83094 0.0
H164 H 0.86581 0.7486 0.88187 0.0
C165 C 0.87375 0.74474 0.85241 0.0
H166 H 0.8834 0.72582 0.85323 0.0
H167 H 0.84841 0.73049 0.74521 0.0
O168 O 0.96368 0.82031 0.76348 0.0
C169 C 0.89876 0.78269 0.70067 0.0
Co170 Co 0.70836 0.44046 0.00999 0.0
Co171 Co 0.75723 0.40512 0.01301 0.0
C172 C 0.76125 0.46066 0.99224 0.0
O173 O 0.73717 0.46346 0.99683 0.0
O174 O 0.77194 0.43891 0.99723 0.0
C175 C 0.67738 0.48127 0.0391 0.0
O176 O 0.69679 0.48443 0.06318 0.0
C177 C 0.80779 0.38447 0.03841 0.0
C178 C 0.8015 0.34291 0.02923 0.0
C179 C 0.81915 0.36049 0.04366 0.0
N180 N 0.78429 0.38099 0.02269 0.0
N181 N 0.78089 0.35613 0.01676 0.0
C182 C 0.81909 0.41028 0.04734 0.0
H183 H 0.81288 0.42453 0.02536 0.0
H184 H 0.81223 0.4168 0.07639 0.0
H185 H 0.8404 0.40956 0.04736 0.0
C186 C 0.70069 0.41818 0.08889 0.0
N187 N 0.71484 0.42189 0.05641 0.0
N188 N 0.73589 0.40791 0.05853 0.0
C189 C 0.73602 0.39534 0.09303 0.0
C190 C 0.71371 0.40139 0.11331 0.0
C191 C 0.67373 0.42764 0.09409 0.0
H192 H 0.66404 0.42942 0.06539 0.0
H193 H 0.67417 0.44677 0.10839 0.0
H194 H 0.66244 0.41441 0.11285 0.0
O195 O 0.70224 0.41627 0.9669 0.0
O196 O 0.73655 0.39092 0.96869 0.0
H197 H 0.75641 0.35982 0.08868 0.0
H198 H 0.755 0.37272 0.13764 0.0
C199 C 0.75697 0.3777 0.10628 0.0
H200 H 0.77584 0.3871 0.10191 0.0
H201 H 0.76413 0.34812 0.00522 0.0
O202 O 0.67794 0.463 0.01449 0.0
C203 C 0.71505 0.39733 0.95368 0.0
Co204 Co 0.06118 0.20463 0.26424 0.0
Co205 Co 0.09419 0.25522 0.26377 0.0
C206 C 0.03892 0.25512 0.23942 0.0
O207 O 0.03736 0.2311 0.2455 0.0
O208 O 0.0597 0.26733 0.24584 0.0
C209 C 0.01888 0.1753 0.28979 0.0
O210 O 0.01264 0.19759 0.30515 0.0
C211 C 0.10989 0.30583 0.29393 0.0
C212 C 0.14894 0.30988 0.26941 0.0
C213 C 0.13115 0.32198 0.29327 0.0
N214 N 0.11512 0.28496 0.27209 0.0
N215 N 0.13841 0.28763 0.25725 0.0
C216 C 0.08465 0.31049 0.31377 0.0
H217 H 0.06903 0.29981 0.29897 0.0
H218 H 0.08563 0.30364 0.34439 0.0
H219 H 0.08011 0.33133 0.31413 0.0
C220 C 0.08161 0.20167 0.34455 0.0
N221 N 0.07796 0.21451 0.31086 0.0
N222 N 0.09256 0.2352 0.31057 0.0
C223 C 0.1064 0.23583 0.34396 0.0
C224 C 0.09963 0.2148 0.36671 0.0
C225 C 0.07088 0.17552 0.35279 0.0
H226 H 0.07289 0.16318 0.32656 0.0
H227 H 0.05013 0.1773 0.35967 0.0
H228 H 0.08069 0.16617 0.3778 0.0
O229 O 0.087 0.19807 0.22332 0.0
O230 O 0.11015 0.23402 0.22159 0.0
H231 H 0.14025 0.25641 0.32678 0.0
H232 H 0.1387 0.24942 0.3785 0.0
C233 C 0.12732 0.25482 0.3524 0.0
H234 H 0.11871 0.27389 0.35797 0.0
H235 H 0.14726 0.27409 0.23925 0.0
O236 O 0.04001 0.1733 0.27143 0.0
C237 C 0.10525 0.21144 0.20901 0.0
Co238 Co 0.28897 0.55714 0.51029 0.0
Co239 Co 0.24122 0.5936 0.51415 0.0
C240 C 0.23558 0.5381 0.49351 0.0
O241 O 0.2596 0.5346 0.49771 0.0
O242 O 0.22557 0.56014 0.49875 0.0
C243 C 0.31976 0.51569 0.53816 0.0
O244 O 0.30053 0.51251 0.56256 0.0
C245 C 0.1922 0.61284 0.54428 0.0
C246 C 0.19421 0.65403 0.52898 0.0
C247 C 0.17913 0.63599 0.54807 0.0
N248 N 0.214 0.61716 0.52426 0.0
N249 N 0.21488 0.64172 0.51463 0.0
C250 C 0.18581 0.58765 0.563 0.0
H251 H 0.20335 0.57569 0.56611 0.0
H252 H 0.17693 0.59066 0.59211 0.0
H253 H 0.1719 0.57717 0.54425 0.0
C254 C 0.29816 0.57952 0.58892 0.0
N255 N 0.28347 0.57594 0.55693 0.0
N256 N 0.26302 0.59079 0.55917 0.0
C257 C 0.26394 0.60401 0.59311 0.0
C258 C 0.2862 0.59726 0.61307 0.0
C259 C 0.32475 0.56899 0.59378 0.0
H260 H 0.33426 0.56709 0.56496 0.0
H261 H 0.3236 0.54977 0.60763 0.0
H262 H 0.33662 0.5816 0.61273 0.0
O263 O 0.2951 0.58132 0.467 0.0
O264 O 0.26148 0.60757 0.46947 0.0
H265 H 0.2435 0.63924 0.58463 0.0
H266 H 0.24817 0.63084 0.63542 0.0
C267 C 0.24418 0.62316 0.60583 0.0
H268 H 0.2251 0.6138 0.6065 0.0
H269 H 0.23005 0.65024 0.49947 0.0
O270 O 0.31914 0.53414 0.51389 0.0
C271 C 0.28267 0.6006 0.45405 0.0
C272 C 0.64933 0.5128 0.07391 0.0
C273 C 0.65543 0.49917 0.03981 0.0
C274 C 0.62897 0.5303 0.07413 0.0
C275 C 0.5721 0.55182 0.0153 0.0
H276 H 0.57876 0.61294 0.07938 0.0
C277 C 0.51322 0.64642 0.99838 0.0
C278 C 0.49984 0.65375 0.03223 0.0
C279 C 0.53081 0.62613 -0.00039 0.0
C280 C 0.57668 0.59587 0.06152 0.0
H281 H 0.64523 0.49314 0.97914 0.0
H282 H 0.61071 0.52456 0.97874 0.0
H283 H 0.61246 0.58048 0.08088 0.0
H284 H 0.49429 0.64572 0.09382 0.0
H285 H 0.5258 0.61083 0.09615 0.0
H286 H 0.53681 0.56828 0.9946 0.0
C287 C 0.62082 0.52118 0.00588 0.0
C288 C 0.59584 0.57711 0.06256 0.0
C289 C 0.64078 0.50325 0.00596 0.0
C290 C 0.50427 0.6404 0.06726 0.0
C291 C 0.5223 0.62054 0.06868 0.0
C292 C 0.55324 0.5709 0.01364 0.0
C293 C 0.61464 0.53504 0.03995 0.0
C294 C 0.59385 0.55477 0.03948 0.0
C295 C 0.5357 0.61331 0.0349 0.0
C296 C 0.5554 0.593 0.03679 0.0
H297 H 0.66018 0.50978 0.10054 0.0
H298 H 0.62449 0.54005 0.10122 0.0
H299 H 0.5695 0.53472 0.99773 0.0
H300 H 0.51006 0.65633 0.97098 0.0
H301 H 0.54107 0.62085 0.97327 0.0
C302 C 0.97811 0.15538 0.31389 0.0
C303 C 0.00077 0.15341 0.29179 0.0
C304 C 0.95998 0.13559 0.31351 0.0
C305 C 0.95023 0.06702 0.2877 0.0
H306 H 0.87874 0.08766 0.28155 0.0
C307 C 0.84291 0.02164 0.25446 0.0
C308 C 0.84377 -0.00049 0.27789 0.0
C309 C 0.86304 0.0394 0.25523 0.0
C310 C 0.89862 0.08153 0.28286 0.0
H311 H 0.02252 0.12876 0.25282 0.0
H312 H 0.99066 0.09436 0.25168 0.0
H313 H 0.91208 0.12028 0.28548 0.0
H314 H 0.86678 0.9783 0.31976 0.0
H315 H 0.90176 0.0095 0.32152 0.0
H316 H 0.93667 0.02821 0.28409 0.0
C317 C 0.98704 0.11109 0.26969 0.0
C318 C 0.91773 0.10026 0.28572 0.0
C319 C 0.00526 0.13087 0.2702 0.0
C320 C 0.86553 0.99517 0.30133 0.0
C321 C 0.88565 0.01299 0.3022 0.0
C322 C 0.93106 0.04824 0.28477 0.0
C323 C 0.964 0.1134 0.29087 0.0
C324 C 0.94378 0.09326 0.28825 0.0
C325 C 0.88447 0.0355 0.27956 0.0
C326 C 0.90502 0.0553 0.28227 0.0
H327 H 0.97417 0.17239 0.33112 0.0
H328 H 0.94269 0.13777 0.33081 0.0
H329 H 0.97009 0.06096 0.28988 0.0
H330 H 0.82653 0.02547 0.23583 0.0
H331 H 0.86174 0.05628 0.23685 0.0
C332 C 0.49491 0.35867 0.56419 0.0
C333 C 0.49946 0.34527 0.52921 0.0
C334 C 0.47652 0.37819 0.56561 0.0
C335 C 0.44444 0.42708 0.51058 0.0
H336 H 0.38568 0.41661 0.57838 0.0
C337 C 0.3561 0.49379 0.50423 0.0
C338 C 0.34167 0.49774 0.53832 0.0
C339 C 0.37615 0.47596 0.50373 0.0
C340 C 0.40216 0.42023 0.55988 0.0
H341 H 0.48905 0.34228 0.46806 0.0
H342 H 0.45742 0.37721 0.47034 0.0
H343 H 0.41991 0.38471 0.57661 0.0
H344 H 0.33737 0.48693 0.59903 0.0
H345 H 0.37322 0.45684 0.59898 0.0
H346 H 0.42753 0.46298 0.4948 0.0
C347 C 0.46787 0.37221 0.49664 0.0
C348 C 0.42163 0.40179 0.5587 0.0
C349 C 0.48583 0.35225 0.49541 0.0
C350 C 0.34804 0.48402 0.57222 0.0
C351 C 0.3685 0.46662 0.57202 0.0
C352 C 0.42527 0.44585 0.51239 0.0
C353 C 0.46286 0.38505 0.53188 0.0
C354 C 0.44276 0.40499 0.53381 0.0
C355 C 0.38265 0.46207 0.53762 0.0
C356 C 0.40369 0.44259 0.5368 0.0
H357 H 0.50506 0.35361 0.59073 0.0
H358 H 0.47293 0.38793 0.59305 0.0
H359 H 0.46075 0.42996 0.4914 0.0
H360 H 0.35144 0.50397 0.47756 0.0
H361 H 0.38612 0.47272 0.47643 0.0
C362 C 0.01296 0.84913 0.82401 0.0
C363 C -0.00039 0.84296 0.78966 0.0
C364 C 0.03058 0.86942 0.8245 0.0
C365 C 0.05283 0.92612 0.76593 0.0
H366 H 0.11346 0.91952 0.83111 0.0
C367 C 0.15073 0.98117 0.75221 0.0
C368 C 0.15532 0.99763 0.78402 0.0
C369 C 0.13024 0.9638 0.75312 0.0
C370 C 0.09652 0.92157 0.81296 0.0
H371 H 0.99424 0.85298 0.72879 0.0
H372 H 0.02583 0.88741 0.7289 0.0
H373 H 0.08082 0.88588 0.83223 0.0
H374 H 0.14213 0.00887 0.84165 0.0
H375 H 0.10676 0.97772 0.84363 0.0
H376 H 0.06965 0.96132 0.74534 0.0
C377 C 0.02215 0.87738 0.75602 0.0
C378 C 0.07767 0.90245 0.81376 0.0
C379 C 0.00412 0.85748 0.75581 0.0
C380 C 0.13894 0.99651 0.81664 0.0
C381 C 0.11881 0.97872 0.81788 0.0
C382 C 0.07199 0.94496 0.76457 0.0
C383 C 0.03571 0.88364 0.79035 0.0
C384 C 0.05552 0.90442 0.79023 0.0
C385 C 0.1144 0.96225 0.78617 0.0
C386 C 0.0939 0.94277 0.7881 0.0
H387 H 0.00963 0.8384 0.85065 0.0
H388 H 0.0401 0.87395 0.85176 0.0
H389 H 0.0359 0.9287 0.74799 0.0
H390 H 0.163 0.98171 0.72666 0.0
H391 H 0.1271 0.95114 0.72843 0.0
C392 C 0.2805 0.63667 0.40514 0.0
C393 C 0.29346 0.61529 0.42077 0.0
C394 C 0.29113 0.65053 0.37402 0.0
C395 C 0.35313 0.66273 0.32464 0.0
H396 H 0.31128 0.68184 0.23551 0.0
C397 C 0.39725 0.68694 0.17603 0.0
C398 C 0.38723 0.70776 0.15477 0.0
C399 C 0.38514 0.67841 0.20996 0.0
C400 C 0.32313 0.67697 0.26045 0.0
H401 H 0.3277 0.59166 0.41564 0.0
H402 H 0.34595 0.61557 0.36153 0.0
H403 H 0.2911 0.66187 0.29244 0.0
H404 H 0.35647 0.73588 0.15255 0.0
H405 H 0.33522 0.7208 0.21204 0.0
H406 H 0.38521 0.67729 0.29248 0.0
C407 C 0.32778 0.6219 0.37361 0.0
C408 C 0.31158 0.66555 0.29304 0.0
C409 C 0.31719 0.60806 0.40451 0.0
C410 C 0.36471 0.71981 0.16826 0.0
C411 C 0.35247 0.71113 0.2022 0.0
C412 C 0.36464 0.67407 0.29214 0.0
C413 C 0.31497 0.64335 0.3581 0.0
C414 C 0.32657 0.6578 0.32511 0.0
C415 C 0.36265 0.69039 0.22347 0.0
C416 C 0.34987 0.68081 0.25936 0.0
H417 H 0.26219 0.64278 0.417 0.0
H418 H 0.28087 0.66705 0.3628 0.0
H419 H 0.36512 0.65752 0.34926 0.0
H420 H 0.41452 0.67715 0.16654 0.0
H421 H 0.39322 0.66212 0.22535 0.0
C422 C 0.81338 0.89458 0.41915 0.0
C423 C 0.79156 0.88527 0.39946 0.0
C424 C 0.82228 0.88251 0.45286 0.0
C425 C 0.8225 0.82145 0.50573 0.0
H426 H 0.84449 0.86432 0.59224 0.0
C427 C 0.8629 0.78024 0.65141 0.0
C428 C 0.88458 0.793 0.66656 0.0
C429 C 0.84931 0.79059 0.61981 0.0
C430 C 0.8386 0.85207 0.56825 0.0
H431 H 0.76214 0.85568 0.39969 0.0
H432 H 0.77793 0.83442 0.45883 0.0
H433 H 0.82458 0.88402 0.53529 0.0
H434 H 0.90915 0.82647 0.65983 0.0
H435 H 0.88574 0.8442 0.60482 0.0
H436 H 0.83708 0.78953 0.53852 0.0
C437 C 0.78805 0.85114 0.44792 0.0
C438 C 0.82716 0.86336 0.53567 0.0
C439 C 0.77897 0.86337 0.41419 0.0
C440 C 0.89248 0.81616 0.64915 0.0
C441 C 0.87893 0.82646 0.61771 0.0
C442 C 0.83405 0.81012 0.5384 0.0
C443 C 0.80969 0.86074 0.46773 0.0
C444 C 0.81947 0.84825 0.50372 0.0
C445 C 0.85708 0.81394 0.60284 0.0
C446 C 0.84272 0.8254 0.56965 0.0
H447 H 0.8236 0.91136 0.40869 0.0
H448 H 0.83925 0.89012 0.46712 0.0
H449 H 0.81687 0.80935 0.48144 0.0
H450 H 0.85627 0.76238 0.66415 0.0
H451 H 0.83247 0.78056 0.60911 0.0
C452 C 0.71753 0.36121 0.90482 0.0
C453 C 0.70439 0.38249 0.92046 0.0
C454 C 0.707 0.34726 0.87367 0.0
C455 C 0.64504 0.33474 0.82408 0.0
H456 H 0.68701 0.3159 0.73498 0.0
C457 C 0.60127 0.31141 0.67493 0.0
C458 C 0.61109 0.29049 0.65369 0.0
C459 C 0.61335 0.31975 0.709 0.0
C460 C 0.67514 0.32069 0.75992 0.0
H461 H 0.66996 0.40584 0.91527 0.0
H462 H 0.65192 0.38181 0.86114 0.0
H463 H 0.70711 0.33578 0.79212 0.0
H464 H 0.64151 0.26199 0.6516 0.0
H465 H 0.66277 0.27678 0.71134 0.0
H466 H 0.61301 0.32028 0.79166 0.0
C467 C 0.67012 0.37559 0.87324 0.0
C468 C 0.68663 0.33205 0.79263 0.0
C469 C 0.6806 0.38951 0.90418 0.0
C470 C 0.63341 0.27813 0.66732 0.0
C471 C 0.64566 0.28665 0.70139 0.0
C472 C 0.63358 0.32349 0.79146 0.0
C473 C 0.68309 0.35424 0.85772 0.0
C474 C 0.67159 0.33973 0.82469 0.0
C475 C 0.63565 0.30748 0.72264 0.0
C476 C 0.6484 0.31687 0.75869 0.0
H477 H 0.73588 0.35526 0.91669 0.0
H478 H 0.71739 0.33081 0.86243 0.0
H479 H 0.63301 0.33988 0.84869 0.0
H480 H 0.58414 0.32141 0.66532 0.0
H481 H 0.60541 0.3361 0.72441 0.0
C482 C 0.22246 0.13214 0.92 0.0
C483 C 0.21059 0.10946 0.90671 0.0
C484 C 0.21423 0.14397 0.95452 0.0
C485 C 0.17993 0.13066 0.04628 0.0
H486 H 0.16464 0.20359 0.04701 0.0
C487 C 0.11494 0.17577 0.16233 0.0
C488 C 0.12068 0.20043 0.17671 0.0
C489 C 0.12887 0.16536 0.13138 0.0
C490 C 0.16925 0.1833 0.04754 0.0
H491 H 0.18089 0.08137 0.91946 0.0
H492 H 0.1667 0.10192 0.97951 0.0
H493 H 0.18384 0.18409 0.98899 0.0
H494 H 0.1459 0.23336 0.16993 0.0
H495 H 0.17046 0.21496 0.11584 0.0
H496 H 0.16521 0.12968 0.10453 0.0
C497 C 0.18243 0.11049 0.96338 0.0
C498 C 0.18019 0.17214 0.01429 0.0
C499 C 0.19046 0.09881 0.92879 0.0
C500 C 0.14092 0.21434 0.15952 0.0
C501 C 0.15492 0.20386 0.12842 0.0
C502 C 0.16915 0.1418 0.07952 0.0
C503 C 0.19419 0.13318 0.9766 0.0
C504 C 0.18509 0.1456 0.01305 0.0
C505 C 0.149 0.17924 0.11399 0.0
C506 C 0.1631 0.16812 0.08023 0.0
H507 H 0.238 0.14085 0.90364 0.0
H508 H 0.2237 0.16141 0.96414 0.0
H509 H 0.18397 0.11024 0.04641 0.0
H510 H 0.09944 0.1645 0.17469 0.0
H511 H 0.12346 0.14656 0.12054 0.0
C512 C 0.29923 0.63533 0.65314 0.0
C513 C 0.29668 0.6086 0.64935 0.0
C514 C 0.30985 0.64598 0.68698 0.0
C515 C 0.35178 0.63018 0.77054 0.0
H516 H 0.32217 0.6917 0.81592 0.0
C517 C 0.40228 0.68733 0.89333 0.0
C518 C 0.38675 0.6967 0.92363 0.0
C519 C 0.39118 0.6765 0.85997 0.0
C520 C 0.33057 0.67442 0.80378 0.0
H521 H 0.30335 0.57197 0.67739 0.0
H522 H 0.32185 0.59049 0.73682 0.0
H523 H 0.30254 0.67261 0.75808 0.0
H524 H 0.34759 0.70147 0.94366 0.0
H525 H 0.32806 0.68265 0.88532 0.0
H526 H 0.37959 0.63176 0.81658 0.0
C527 C 0.31579 0.60327 0.71362 0.0
C528 C 0.31948 0.66364 0.77038 0.0
C529 C 0.30511 0.59266 0.67978 0.0
C530 C 0.35994 0.69487 0.92025 0.0
C531 C 0.3488 0.68409 0.88689 0.0
C532 C 0.36291 0.64099 0.80389 0.0
C533 C 0.31831 0.63007 0.71761 0.0
C534 C 0.32996 0.6414 0.75335 0.0
C535 C 0.36429 0.67478 0.85634 0.0
C536 C 0.35244 0.66325 0.82089 0.0
H537 H 0.2934 0.64798 0.62964 0.0
H538 H 0.31193 0.66665 0.68881 0.0
H539 H 0.36049 0.6132 0.75793 0.0
H540 H 0.42303 0.68857 0.89535 0.0
H541 H 0.40364 0.66977 0.83681 0.0
C542 C 0.79843 0.86015 0.16479 0.0
C543 C 0.7957 0.8869 0.16771 0.0
C544 C 0.80893 0.84914 0.13116 0.0
C545 C 0.85089 0.86427 0.04771 0.0
H546 H 0.82181 0.80222 0.00305 0.0
C547 C 0.90213 0.80679 0.92634 0.0
C548 C 0.88674 0.79776 0.89562 0.0
C549 C 0.89087 0.81741 0.95969 0.0
C550 C 0.83006 0.81963 0.01505 0.0
H551 H 0.80167 0.92319 0.13827 0.0
H552 H 0.82 0.904 0.07925 0.0
H553 H 0.80177 0.82165 0.06035 0.0
H554 H 0.84768 0.79329 0.87487 0.0
H555 H 0.82788 0.81166 0.93329 0.0
H556 H 0.87898 0.86246 0.00215 0.0
C557 C 0.81418 0.89151 0.10295 0.0
C558 C 0.81873 0.83062 0.04808 0.0
C559 C 0.8036 0.90249 0.13654 0.0
C560 C 0.85991 0.79961 0.89863 0.0
C561 C 0.84862 0.81014 0.93201 0.0
C562 C 0.86227 0.85324 0.01479 0.0
C563 C 0.81708 0.86471 0.09996 0.0
C564 C 0.829 0.85308 0.06474 0.0
C565 C 0.86398 0.81922 0.96288 0.0
C566 C 0.85198 0.83081 0.99806 0.0
H567 H 0.79296 0.84781 0.18886 0.0
H568 H 0.81127 0.82847 0.12999 0.0
H569 H 0.85942 0.88143 0.06012 0.0
H570 H 0.92289 0.80555 0.92456 0.0
H571 H 0.90321 0.82399 0.98314 0.0
C572 C 0.70333 0.36327 0.15488 0.0
C573 C 0.70412 0.39004 0.1501 0.0
C574 C 0.69304 0.35252 0.18884 0.0
C575 C 0.64907 0.36738 0.27042 0.0
H576 H 0.67995 0.30709 0.31755 0.0
C577 C 0.59812 0.30971 0.39167 0.0
C578 C 0.61333 0.30065 0.42253 0.0
C579 C 0.60957 0.32055 0.35863 0.0
C580 C 0.6712 0.32405 0.30495 0.0
H581 H 0.69509 0.42662 0.17681 0.0
H582 H 0.67733 0.40792 0.23653 0.0
H583 H 0.69999 0.32666 0.26049 0.0
H584 H 0.65224 0.29631 0.4439 0.0
H585 H 0.67238 0.31531 0.38623 0.0
H586 H 0.62057 0.36508 0.3153 0.0
C587 C 0.68435 0.39518 0.21391 0.0
C588 C 0.68253 0.3351 0.27196 0.0
C589 C 0.6946 0.4059 0.17989 0.0
C590 C 0.64016 0.30271 0.42003 0.0
C591 C 0.65164 0.31358 0.38703 0.0
C592 C 0.63776 0.35635 0.30341 0.0
C593 C 0.68329 0.36834 0.21869 0.0
C594 C 0.67157 0.35686 0.25425 0.0
C595 C 0.63647 0.32267 0.35595 0.0
C596 C 0.64864 0.3345 0.32101 0.0
H597 H 0.7101 0.35064 0.13193 0.0
H598 H 0.69214 0.33179 0.19126 0.0
H599 H 0.63995 0.38395 0.25726 0.0
H600 H 0.57737 0.30829 0.39305 0.0
H601 H 0.59733 0.32704 0.33503 0.0
C602 C 0.09751 0.20226 0.43687 0.0
C603 C 0.11205 0.20559 0.40279 0.0
C604 C 0.10892 0.19228 0.47056 0.0
C605 C 0.16253 0.15173 0.50254 0.0
H606 H 0.14951 0.18175 0.6043 0.0
C607 C 0.21428 0.11578 0.64134 0.0
C608 C 0.19955 0.11403 0.67552 0.0
C609 C 0.20434 0.12788 0.60817 0.0
C610 C 0.15311 0.17294 0.57617 0.0
H611 H 0.14952 0.20085 0.37641 0.0
H612 H 0.16965 0.1834 0.4354 0.0
H613 H 0.13058 0.20118 0.54621 0.0
H614 H 0.16337 0.12413 0.70261 0.0
H615 H 0.14553 0.14449 0.6444 0.0
H616 H 0.18461 0.12319 0.53236 0.0
C617 C 0.14949 0.18857 0.43623 0.0
C618 C 0.14231 0.18413 0.54291 0.0
C619 C 0.1381 0.19873 0.40267 0.0
C620 C 0.17489 0.12488 0.67629 0.0
C621 C 0.16486 0.13683 0.64311 0.0
C622 C 0.17319 0.14043 0.53581 0.0
C623 C 0.135 0.18515 0.47049 0.0
C624 C 0.14686 0.17361 0.50576 0.0
C625 C 0.17943 0.13844 0.60858 0.0
C626 C 0.16856 0.15084 0.57308 0.0
H627 H 0.07728 0.2072 0.43727 0.0
H628 H 0.09721 0.18956 0.49637 0.0
H629 H 0.16609 0.143 0.47433 0.0
H630 H 0.23345 0.10769 0.64028 0.0
H631 H 0.21626 0.12914 0.58233 0.0
C632 C 0.33032 0.83989 0.97809 0.0
C633 C 0.35421 0.83931 0.9971 0.0
C634 C 0.32295 0.8613 0.95639 0.0
C635 C 0.34707 0.92005 0.90772 0.0
H636 H 0.27566 0.94046 0.91689 0.0
C637 C 0.30206 0.01521 0.84673 0.0
C638 C 0.27732 0.01275 0.83052 0.0
C639 C 0.31415 0.99396 0.86392 0.0
C640 C 0.2956 0.93486 0.91369 0.0
H641 H 0.38894 0.86097 0.00897 0.0
H642 H 0.37597 0.89866 0.97106 0.0
H643 H 0.29136 0.90418 0.95445 0.0
H644 H 0.24695 0.98564 0.81646 0.0
H645 H 0.26805 0.94884 0.846 0.0
H646 H 0.35112 0.95129 0.86711 0.0
C647 C 0.3632 0.88223 0.97227 0.0
C648 C 0.30461 0.91403 0.9352 0.0
C649 C 0.37066 0.86064 0.99392 0.0
C650 C 0.26581 0.98832 0.82926 0.0
C651 C 0.27784 0.96722 0.84632 0.0
C652 C 0.33802 0.94112 0.88623 0.0
C653 C 0.33913 0.88287 0.95356 0.0
C654 C 0.33032 0.90606 0.93203 0.0
C655 C 0.30167 0.97 0.86512 0.0
C656 C 0.31207 0.94842 0.88856 0.0
H657 H 0.31733 0.82365 0.97974 0.0
H658 H 0.30451 0.86091 0.94172 0.0
H659 H 0.36697 0.91433 0.90454 0.0
H660 H 0.31145 0.03377 0.84807 0.0
H661 H 0.33257 0.9966 0.87814 0.0
C662 C 0.47976 0.80283 0.09627 0.0
C663 C 0.4835 0.7777 0.08228 0.0
C664 C 0.50028 0.81669 0.11231 0.0
C665 C 0.57132 0.8189 0.11977 0.0
H666 H 0.55863 0.84858 0.2219 0.0
C667 C 0.63284 0.84748 0.26476 0.0
C668 C 0.65305 0.86159 0.24815 0.0
C669 C 0.61129 0.84095 0.24248 0.0
C670 C 0.56245 0.84043 0.19337 0.0
H671 H 0.51203 0.74802 0.07209 0.0
H672 H 0.54766 0.77218 0.09979 0.0
H673 H 0.5229 0.83067 0.18445 0.0
H674 H 0.66713 0.87913 0.1949 0.0
H675 H 0.62931 0.86803 0.15598 0.0
H676 H 0.611 0.82785 0.12924 0.0
C677 C 0.52893 0.7812 0.09846 0.0
C678 C 0.54196 0.83043 0.17173 0.0
C679 C 0.50843 0.76729 0.08277 0.0
C680 C 0.65143 0.86894 0.20876 0.0
C681 C 0.62996 0.86227 0.18636 0.0
C682 C 0.59179 0.82904 0.14129 0.0
C683 C 0.52498 0.80581 0.11423 0.0
C684 C 0.54624 0.81911 0.13501 0.0
C685 C 0.60972 0.84807 0.20291 0.0
C686 C 0.58765 0.83948 0.17864 0.0
H687 H 0.46081 0.81144 0.09627 0.0
H688 H 0.49673 0.83574 0.12387 0.0
H689 H 0.57519 0.81047 0.09143 0.0
H690 H 0.63384 0.84129 0.29494 0.0
H691 H 0.59622 0.82963 0.2559 0.0
C692 C 0.73648 0.00907 0.33509 0.0
C693 C 0.72425 0.98499 0.33378 0.0
C694 C 0.72451 0.03004 0.35265 0.0
C695 C 0.66332 0.05664 0.38822 0.0
H696 H 0.70808 0.09298 0.46012 0.0
C697 C 0.62804 0.13721 0.49391 0.0
C698 C 0.6445 0.15845 0.4982 0.0
C699 C 0.63599 0.11555 0.47278 0.0
C700 C 0.69536 0.08327 0.43985 0.0
H701 H 0.68909 0.96452 0.34771 0.0
H702 H 0.66811 0.00143 0.37867 0.0
H703 H 0.72462 0.0566 0.42354 0.0
H704 H 0.68195 0.17386 0.48333 0.0
H705 H 0.69565 0.13648 0.44628 0.0
H706 H 0.63407 0.08366 0.40454 0.0
C707 C 0.68703 0.00391 0.36604 0.0
C708 C 0.70486 0.06239 0.41889 0.0
C709 C 0.69906 0.98279 0.34837 0.0
C710 C 0.66891 0.1577 0.4808 0.0
C711 C 0.67679 0.13622 0.45966 0.0
C712 C 0.65379 0.07773 0.40917 0.0
C713 C 0.70001 0.02751 0.3694 0.0
C714 C 0.68909 0.04906 0.39243 0.0
C715 C 0.66058 0.11475 0.45575 0.0
C716 C 0.66986 0.0915 0.43481 0.0
H717 H 0.75572 0.0116 0.32363 0.0
H718 H 0.73474 0.04816 0.35398 0.0
H719 H 0.65075 0.04669 0.368 0.0
H720 H 0.60935 0.13698 0.50774 0.0
H721 H 0.62318 0.0992 0.4707 0.0
C722 C 0.48943 0.23514 0.58165 0.0
C723 C 0.51355 0.22301 0.58015 0.0
C724 C 0.46844 0.2229 0.59873 0.0
C725 C 0.4411 0.16181 0.63224 0.0
H726 H 0.40776 0.20541 0.70889 0.0
C727 C 0.3616 0.12554 0.73898 0.0
C728 C 0.34144 0.14272 0.74691 0.0
C729 C 0.38286 0.13347 0.71694 0.0
C730 C 0.41655 0.19304 0.68725 0.0
H731 H 0.534 0.18766 0.59288 0.0
H732 H 0.49697 0.16614 0.62284 0.0
H733 H 0.4438 0.22196 0.6716 0.0
H734 H 0.32736 0.18137 0.7373 0.0
H735 H 0.3639 0.19502 0.6983 0.0
H736 H 0.41343 0.13295 0.64769 0.0
C737 C 0.49454 0.18524 0.61082 0.0
C738 C 0.43728 0.20253 0.66595 0.0
C739 C 0.51571 0.19757 0.59372 0.0
C740 C 0.34273 0.16778 0.73195 0.0
C741 C 0.36376 0.17562 0.70974 0.0
C742 C 0.42008 0.15231 0.65344 0.0
C743 C 0.47097 0.19819 0.61467 0.0
C744 C 0.44958 0.18719 0.63787 0.0
C745 C 0.38431 0.15874 0.70244 0.0
C746 C 0.40735 0.16798 0.68084 0.0
H747 H 0.48692 0.25457 0.57096 0.0
H748 H 0.45034 0.23312 0.60055 0.0
H749 H 0.45028 0.14958 0.61077 0.0
H750 H 0.36137 0.10626 0.75081 0.0
H751 H 0.39848 0.12007 0.71227 0.0
C752 C 0.87263 0.63558 0.8202 0.0
C753 C 0.8556 0.65646 0.81764 0.0
C754 C 0.86632 0.61403 0.84275 0.0
C755 C 0.82396 0.59345 0.92352 0.0
H756 H 0.83165 0.52511 0.8799 0.0
C757 C 0.76528 0.50753 0.97765 0.0
C758 C 0.77659 0.48302 0.97899 0.0
C759 C 0.77868 0.5284 0.96227 0.0
C760 C 0.82983 0.54401 0.89285 0.0
H761 H 0.81851 0.67102 0.83604 0.0
H762 H 0.80746 0.63351 0.87506 0.0
H763 H 0.84811 0.56221 0.84405 0.0
H764 H 0.81126 0.46143 0.96626 0.0
H765 H 0.83476 0.49812 0.93929 0.0
H766 H 0.80519 0.57542 0.97187 0.0
C767 C 0.82585 0.63388 0.86026 0.0
C768 C 0.83922 0.56526 0.87227 0.0
C769 C 0.83206 0.65526 0.83758 0.0
C770 C 0.80198 0.48005 0.96561 0.0
C771 C 0.81538 0.50101 0.94996 0.0
C772 C 0.81463 0.57225 0.94409 0.0
C773 C 0.84292 0.61305 0.86324 0.0
C774 C 0.83577 0.59026 0.88694 0.0
C775 C 0.80374 0.52536 0.94775 0.0
C776 C 0.81685 0.54736 0.92852 0.0
H777 H 0.89063 0.63569 0.80438 0.0
H778 H 0.87983 0.59823 0.8444 0.0
H779 H 0.8215 0.61244 0.93597 0.0
H780 H 0.74579 0.51057 0.98778 0.0
H781 H 0.76899 0.54679 0.96053 0.0
C782 C 0.01409 0.29536 0.22372 0.0
C783 C 0.0164 0.26846 0.22253 0.0
C784 C 0.99275 0.30751 0.20689 0.0
C785 C 0.92686 0.29311 0.16879 0.0
H786 H 0.93487 0.35799 0.11441 0.0
C787 C 0.85615 0.33062 0.05285 0.0
C788 C 0.84355 0.35349 0.06341 0.0
C789 C 0.87773 0.32226 0.07347 0.0
C790 C 0.93246 0.33994 0.12973 0.0
H791 H 0.99844 0.2333 0.20204 0.0
H792 H 0.9622 0.25427 0.17159 0.0
H793 H 0.97158 0.33936 0.14909 0.0
H794 H 0.84341 0.38488 0.10533 0.0
H795 H 0.8821 0.37098 0.13964 0.0
H796 H 0.8881 0.2932 0.1476 0.0
C797 C 0.97612 0.26613 0.1867 0.0
C798 C 0.95335 0.32932 0.14982 0.0
C799 C 0.99711 0.25404 0.20399 0.0
C800 C 0.85326 0.36794 0.09493 0.0
C801 C 0.87521 0.35982 0.11505 0.0
C802 C 0.90624 0.30345 0.14809 0.0
C803 C 0.9735 0.29301 0.18806 0.0
C804 C 0.95092 0.30554 0.16917 0.0
C805 C 0.88733 0.33674 0.10478 0.0
C806 C 0.90896 0.32677 0.12811 0.0
H807 H 0.02864 0.30698 0.23791 0.0
H808 H 0.99128 0.32822 0.20893 0.0
H809 H 0.92393 0.2752 0.18424 0.0
H810 H 0.84905 0.31892 0.02899 0.0
H811 H 0.8868 0.30432 0.06523 0.0
C812 C 0.2296 0.49129 0.47949 0.0
C813 C 0.21953 0.51636 0.47975 0.0
C814 C 0.21571 0.47105 0.46304 0.0
C815 C 0.17735 0.42935 0.44165 0.0
H816 H 0.14965 0.44116 0.338 0.0
C817 C 0.12751 0.34869 0.3541 0.0
C818 C 0.1357 0.34608 0.31519 0.0
C819 C 0.1339 0.3706 0.37568 0.0
C820 C 0.15724 0.4376 0.36697 0.0
H821 H 0.18652 0.53963 0.46406 0.0
H822 H 0.16226 0.50413 0.435 0.0
H823 H 0.16783 0.47705 0.37493 0.0
H824 H 0.15691 0.36431 0.26836 0.0
H825 H 0.16812 0.4026 0.30603 0.0
H826 H 0.16757 0.38979 0.43325 0.0
C827 C 0.18101 0.50028 0.44745 0.0
C828 C 0.1674 0.45818 0.38826 0.0
C829 C 0.19483 0.52055 0.4643 0.0
C830 C 0.15015 0.36593 0.29819 0.0
C831 C 0.15641 0.38791 0.31968 0.0
C832 C 0.16704 0.40883 0.42048 0.0
C833 C 0.19147 0.47538 0.4462 0.0
C834 C 0.17802 0.45418 0.42553 0.0
C835 C 0.14864 0.39034 0.35884 0.0
C836 C 0.1573 0.41263 0.38261 0.0
H837 H 0.24853 0.48735 0.49125 0.0
H838 H 0.22441 0.45215 0.46219 0.0
H839 H 0.18521 0.42572 0.47042 0.0
H840 H 0.11708 0.33342 0.36849 0.0
H841 H 0.1276 0.37193 0.40577 0.0
C842 C 0.15501 0.66503 0.59274 0.0
C843 C 0.15612 0.64184 0.57184 0.0
C844 C 0.13368 0.67088 0.61573 0.0
C845 C 0.06503 0.65757 0.62701 0.0
H846 H 0.07514 0.69043 0.72757 0.0
C847 C 0.97977 0.69532 0.7194 0.0
C848 C 0.983 0.72069 0.73274 0.0
C849 C 0.00068 0.68156 0.70438 0.0
C850 C 0.07199 0.68128 0.69955 0.0
H851 H 0.13524 0.60707 0.55728 0.0
H852 H 0.09786 0.61725 0.59783 0.0
H853 H 0.11214 0.67417 0.69156 0.0
H854 H 0.01097 0.75102 0.74243 0.0
H855 H 0.04715 0.72718 0.71632 0.0
H856 H 0.02493 0.66545 0.63447 0.0
C857 C 0.1137 0.63074 0.59669 0.0
C858 C 0.09317 0.672 0.67891 0.0
C859 C 0.1352 0.62479 0.57382 0.0
C860 C 0.00774 0.73156 0.73227 0.0
C861 C 0.02857 0.7178 0.71755 0.0
C862 C 0.04379 0.66692 0.64766 0.0
C863 C 0.11281 0.6538 0.61808 0.0
C864 C 0.09 0.66067 0.64195 0.0
C865 C 0.02524 0.69281 0.7028 0.0
C866 C 0.04714 0.6795 0.68368 0.0
H867 H 0.1708 0.67859 0.59167 0.0
H868 H 0.13338 0.68903 0.63124 0.0
H869 H 0.06199 0.64906 0.5985 0.0
H870 H 0.96097 0.68637 0.71943 0.0
H871 H 0.99758 0.66224 0.69355 0.0
loop_
_geom_bond_atom_site_label_1
_geom_bond_atom_site_label_2
_geom_bond_distance
_geom_bond_site_symmetry_2
_ccdc_geom_bond_type
Co0 O3 1.970 . S
Co0 N17 1.989 . S
Co0 O25 1.967 . S
Co0 O32 1.920 . S
Co1 O4 1.966 . S
Co1 N10 2.022 . S
Co1 N18 1.993 . S
Co1 O26 1.941 . S
C2 O3 1.258 . S
C2 O4 1.263 . S
O3 Co0 1.970 . S
O3 C2 1.258 . S
O4 Co1 1.966 . S
O4 C2 1.263 . S
C5 O6 1.235 . S
C5 O32 1.289 . S
O6 C5 1.235 . S
C7 C9 1.400 . S
C7 N10 1.351 . S
C7 C12 1.501 . S
C8 C9 1.387 . S
C8 N11 1.341 . S
C9 C7 1.400 . S
C9 C8 1.387 . S
N10 Co1 2.022 . S
N10 C7 1.351 . S
N10 N11 1.365 . S
N11 C8 1.341 . S
N11 N10 1.365 . S
N11 H31 0.862 . S
C12 C7 1.501 . S
C12 H13 0.961 . S
C12 H14 0.961 . S
C12 H15 0.960 . S
H13 C12 0.961 . S
H14 C12 0.961 . S
H15 C12 0.960 . S
C16 N17 1.342 1_556 S
C16 C20 1.401 . S
C16 C21 1.499 . S
N17 Co0 1.989 . S
N17 C16 1.342 1_554 S
N17 N18 1.388 . S
N18 Co1 1.993 . S
N18 N17 1.388 . S
N18 C19 1.346 1_554 S
C19 N18 1.346 1_556 S
C19 C20 1.396 . S
C19 C29 1.510 . S
C20 C16 1.401 . S
C20 C19 1.396 . S
C21 C16 1.499 . S
C21 H22 0.936 1_556 S
C21 H23 0.960 . S
C21 H24 0.961 . S
H22 C21 0.936 1_554 S
H23 C21 0.960 . S
H24 C21 0.961 . S
O25 Co0 1.967 . S
O25 C33 1.258 . S
O26 Co1 1.941 . S
O26 C33 1.266 . S
H27 C29 0.959 . S
H28 C29 0.961 . S
C29 C19 1.510 . S
C29 H27 0.959 . S
C29 H28 0.961 . S
C29 H30 0.960 . S
H30 C29 0.960 . S
H31 N11 0.862 . S
O32 Co0 1.920 . S
O32 C5 1.289 . S
C33 O25 1.258 . S
C33 O26 1.266 . S
Co34 O37 1.970 . S
Co34 N51 1.989 . S
Co34 O59 1.967 . S
Co34 O66 1.920 . S
Co35 O38 1.966 . S
Co35 N44 2.022 . S
Co35 N52 1.993 . S
Co35 O60 1.941 . S
C36 O37 1.258 . S
C36 O38 1.263 . S
O37 Co34 1.970 . S
O37 C36 1.258 . S
O38 Co35 1.966 . S
O38 C36 1.263 . S
C39 O40 1.235 . S
C39 O66 1.289 . S
O40 C39 1.235 . S
C41 C43 1.400 . S
C41 N44 1.351 . S
C41 C46 1.501 . S
C42 C43 1.387 . S
C42 N45 1.341 . S
C43 C41 1.400 . S
C43 C42 1.387 . S
N44 Co35 2.022 . S
N44 C41 1.351 . S
N44 N45 1.365 . S
N45 C42 1.341 . S
N45 N44 1.365 . S
N45 H65 0.862 . S
C46 C41 1.501 . S
C46 H47 0.961 . S
C46 H48 0.961 . S
C46 H49 0.960 . S
H47 C46 0.961 . S
H48 C46 0.961 . S
H49 C46 0.960 . S
C50 N51 1.342 . S
C50 C54 1.401 . S
C50 C55 1.499 . S
N51 Co34 1.989 . S
N51 C50 1.342 . S
N51 N52 1.388 . S
N52 Co35 1.993 . S
N52 N51 1.388 . S
N52 C53 1.346 . S
C53 N52 1.346 . S
C53 C54 1.396 . S
C53 C63 1.510 . S
C54 C50 1.401 . S
C54 C53 1.396 . S
C55 C50 1.499 . S
C55 H56 0.959 . S
C55 H57 0.960 . S
C55 H58 0.961 . S
H56 C55 0.959 . S
H57 C55 0.960 . S
H58 C55 0.961 . S
O59 Co34 1.967 . S
O59 C67 1.258 . S
O60 Co35 1.941 . S
O60 C67 1.266 . S
H61 C63 0.959 . S
H62 C63 0.961 . S
C63 C53 1.510 . S
C63 H61 0.959 . S
C63 H62 0.961 . S
C63 H64 0.960 . S
H64 C63 0.960 . S
H65 N45 0.862 . S
O66 Co34 1.920 . S
O66 C39 1.289 . S
C67 O59 1.258 . S
C67 O60 1.266 . S
Co68 O71 1.970 . S
Co68 N85 1.989 . S
Co68 O93 1.967 . S
Co68 O100 1.920 . S
Co69 O72 1.966 . S
Co69 N78 2.022 . S
Co69 N86 1.993 . S
Co69 O94 1.941 . S
C70 O71 1.258 . S
C70 O72 1.263 . S
O71 Co68 1.970 . S
O71 C70 1.258 . S
O72 Co69 1.966 . S
O72 C70 1.263 . S
C73 O74 1.235 . S
C73 O100 1.289 . S
O74 C73 1.235 . S
C75 C77 1.400 . S
C75 N78 1.351 . S
C75 C80 1.501 . S
C76 C77 1.387 . S
C76 N79 1.341 . S
C77 C75 1.400 . S
C77 C76 1.387 . S
N78 Co69 2.022 . S
N78 C75 1.351 . S
N78 N79 1.365 . S
N79 C76 1.341 . S
N79 N78 1.365 . S
N79 H99 0.862 . S
C80 C75 1.501 . S
C80 H81 0.961 . S
C80 H82 0.961 . S
C80 H83 0.960 . S
H81 C80 0.961 . S
H82 C80 0.961 . S
H83 C80 0.960 . S
C84 N85 1.342 . S
C84 C88 1.401 . S
C84 C89 1.499 . S
N85 Co68 1.989 . S
N85 C84 1.342 . S
N85 N86 1.388 . S
N86 Co69 1.993 . S
N86 N85 1.388 . S
N86 C87 1.346 . S
C87 N86 1.346 . S
C87 C88 1.396 . S
C87 C97 1.510 . S
C88 C84 1.401 . S
C88 C87 1.396 . S
C89 C84 1.499 . S
C89 H90 0.959 . S
C89 H91 0.960 . S
C89 H92 0.961 . S
H90 C89 0.959 . S
H91 C89 0.960 . S
H92 C89 0.961 . S
O93 Co68 1.967 . S
O93 C101 1.258 . S
O94 Co69 1.941 . S
O94 C101 1.266 . S
H95 C97 0.959 . S
H96 C97 0.961 . S
C97 C87 1.510 . S
C97 H95 0.959 . S
C97 H96 0.961 . S
C97 H98 0.960 . S
H98 C97 0.960 . S
H99 N79 0.862 . S
O100 Co68 1.920 . S
O100 C73 1.289 . S
C101 O93 1.258 . S
C101 O94 1.266 . S
Co102 O105 1.970 . S
Co102 N119 1.989 . S
Co102 O127 1.967 . S
Co102 O134 1.920 . S
Co103 O106 1.966 . S
Co103 N112 2.022 . S
Co103 N120 1.993 . S
Co103 O128 1.941 . S
C104 O105 1.258 . S
C104 O106 1.263 . S
O105 Co102 1.970 . S
O105 C104 1.258 . S
O106 Co103 1.966 . S
O106 C104 1.263 . S
C107 O108 1.235 . S
C107 O134 1.289 . S
O108 C107 1.235 . S
C109 C111 1.400 . S
C109 N112 1.351 . S
C109 C114 1.501 . S
C110 C111 1.387 . S
C110 N113 1.341 . S
C111 C109 1.400 . S
C111 C110 1.387 . S
N112 Co103 2.022 . S
N112 C109 1.351 . S
N112 N113 1.365 . S
N113 C110 1.341 . S
N113 N112 1.365 . S
N113 H133 0.862 . S
C114 C109 1.501 . S
C114 H115 0.961 . S
C114 H116 0.961 . S
C114 H117 0.960 . S
H115 C114 0.961 . S
H116 C114 0.961 . S
H117 C114 0.960 . S
C118 N119 1.342 . S
C118 C122 1.401 . S
C118 C123 1.499 . S
N119 Co102 1.989 . S
N119 C118 1.342 . S
N119 N120 1.388 . S
N120 Co103 1.993 . S
N120 N119 1.388 . S
N120 C121 1.346 . S
C121 N120 1.346 . S
C121 C122 1.396 . S
C121 C131 1.510 . S
C122 C118 1.401 . S
C122 C121 1.396 . S
C123 C118 1.499 . S
C123 H124 0.959 . S
C123 H125 0.960 . S
C123 H126 0.961 . S
H124 C123 0.959 . S
H125 C123 0.960 . S
H126 C123 0.961 . S
O127 Co102 1.967 . S
O127 C135 1.258 . S
O128 Co103 1.941 . S
O128 C135 1.266 . S
H129 C131 0.959 . S
H130 C131 0.961 . S
C131 C121 1.510 . S
C131 H129 0.959 . S
C131 H130 0.961 . S
C131 H132 0.960 . S
H132 C131 0.960 . S
H133 N113 0.862 . S
O134 Co102 1.920 . S
O134 C107 1.289 . S
C135 O127 1.258 . S
C135 O128 1.266 . S
Co136 O139 1.970 . S
Co136 N153 1.989 . S
Co136 O161 1.967 . S
Co136 O168 1.920 . S
Co137 O140 1.966 . S
Co137 N146 2.022 . S
Co137 N154 1.993 . S
Co137 O162 1.941 . S
C138 O139 1.258 . S
C138 O140 1.263 . S
O139 Co136 1.970 . S
O139 C138 1.258 . S
O140 Co137 1.966 . S
O140 C138 1.263 . S
C141 O142 1.235 . S
C141 O168 1.289 . S
O142 C141 1.235 . S
C143 C145 1.400 . S
C143 N146 1.351 . S
C143 C148 1.501 . S
C144 C145 1.387 . S
C144 N147 1.341 . S
C145 C143 1.400 . S
C145 C144 1.387 . S
N146 Co137 2.022 . S
N146 C143 1.351 . S
N146 N147 1.365 . S
N147 C144 1.341 . S
N147 N146 1.365 . S
N147 H167 0.862 . S
C148 C143 1.501 . S
C148 H149 0.961 . S
C148 H150 0.961 . S
C148 H151 0.960 . S
H149 C148 0.961 . S
H150 C148 0.961 . S
H151 C148 0.960 . S
C152 N153 1.342 . S
C152 C156 1.401 . S
C152 C157 1.499 . S
N153 Co136 1.989 . S
N153 C152 1.342 . S
N153 N154 1.388 . S
N154 Co137 1.993 . S
N154 N153 1.388 . S
N154 C155 1.346 . S
C155 N154 1.346 . S
C155 C156 1.396 . S
C155 C165 1.510 . S
C156 C152 1.401 . S
C156 C155 1.396 . S
C157 C152 1.499 . S
C157 H158 0.959 . S
C157 H159 0.960 . S
C157 H160 0.961 . S
H158 C157 0.959 . S
H159 C157 0.960 . S
H160 C157 0.961 . S
O161 Co136 1.967 . S
O161 C169 1.258 . S
O162 Co137 1.941 . S
O162 C169 1.266 . S
H163 C165 0.959 . S
H164 C165 0.961 . S
C165 C155 1.510 . S
C165 H163 0.959 . S
C165 H164 0.961 . S
C165 H166 0.960 . S
H166 C165 0.960 . S
H167 N147 0.862 . S
O168 Co136 1.920 . S
O168 C141 1.289 . S
C169 O161 1.258 . S
C169 O162 1.266 . S
Co170 O173 1.967 1_554 S
Co170 N187 1.989 . S
Co170 O195 1.967 1_554 S
Co170 O202 1.920 . S
Co171 O174 1.966 1_554 S
Co171 N180 2.022 . S
Co171 N188 1.993 . S
Co171 O196 1.941 1_554 S
C172 O173 1.263 . S
C172 O174 1.263 . S
O173 Co170 1.967 1_556 S
O173 C172 1.263 . S
O174 Co171 1.966 1_556 S
O174 C172 1.263 . S
C175 O176 1.235 . S
C175 O202 1.289 . S
O176 C175 1.235 . S
C177 C179 1.400 . S
C177 N180 1.351 . S
C177 C182 1.501 . S
C178 C179 1.387 . S
C178 N181 1.341 . S
C179 C177 1.400 . S
C179 C178 1.387 . S
N180 Co171 2.022 . S
N180 C177 1.351 . S
N180 N181 1.365 . S
N181 C178 1.341 . S
N181 N180 1.365 . S
N181 H201 0.862 . S
C182 C177 1.501 . S
C182 H183 0.961 . S
C182 H184 0.961 . S
C182 H185 0.960 . S
H183 C182 0.961 . S
H184 C182 0.961 . S
H185 C182 0.960 . S
C186 N187 1.342 . S
C186 C190 1.401 . S
C186 C191 1.499 . S
N187 Co170 1.989 . S
N187 C186 1.342 . S
N187 N188 1.388 . S
N188 Co171 1.993 . S
N188 N187 1.388 . S
N188 C189 1.346 . S
C189 N188 1.346 . S
C189 C190 1.396 . S
C189 C199 1.510 . S
C190 C186 1.401 . S
C190 C189 1.396 . S
C191 C186 1.499 . S
C191 H192 0.959 . S
C191 H193 0.960 . S
C191 H194 0.961 . S
H192 C191 0.959 . S
H193 C191 0.960 . S
H194 C191 0.961 . S
O195 Co170 1.967 1_556 S
O195 C203 1.258 . S
O196 Co171 1.941 1_556 S
O196 C203 1.266 . S
H197 C199 0.959 . S
H198 C199 0.961 . S
C199 C189 1.510 . S
C199 H197 0.959 . S
C199 H198 0.961 . S
C199 H200 0.960 . S
H200 C199 0.960 . S
H201 N181 0.862 . S
O202 Co170 1.920 . S
O202 C175 1.289 . S
C203 O195 1.258 . S
C203 O196 1.266 . S
Co204 O207 1.970 . S
Co204 N221 1.989 . S
Co204 O229 1.967 . S
Co204 O236 1.920 . S
Co205 O208 1.966 . S
Co205 N214 2.022 . S
Co205 N222 1.993 . S
Co205 O230 1.941 . S
C206 O207 1.258 . S
C206 O208 1.263 . S
O207 Co204 1.970 . S
O207 C206 1.258 . S
O208 Co205 1.966 . S
O208 C206 1.263 . S
C209 O210 1.235 . S
C209 O236 1.289 . S
O210 C209 1.235 . S
C211 C213 1.400 . S
C211 N214 1.351 . S
C211 C216 1.501 . S
C212 C213 1.387 . S
C212 N215 1.341 . S
C213 C211 1.400 . S
C213 C212 1.387 . S
N214 Co205 2.022 . S
N214 C211 1.351 . S
N214 N215 1.365 . S
N215 C212 1.341 . S
N215 N214 1.365 . S
N215 H235 0.862 . S
C216 C211 1.501 . S
C216 H217 0.961 . S
C216 H218 0.961 . S
C216 H219 0.960 . S
H217 C216 0.961 . S
H218 C216 0.961 . S
H219 C216 0.960 . S
C220 N221 1.342 . S
C220 C224 1.401 . S
C220 C225 1.499 . S
N221 Co204 1.989 . S
N221 C220 1.342 . S
N221 N222 1.388 . S
N222 Co205 1.993 . S
N222 N221 1.388 . S
N222 C223 1.346 . S
C223 N222 1.346 . S
C223 C224 1.396 . S
C223 C233 1.510 . S
C224 C220 1.401 . S
C224 C223 1.396 . S
C225 C220 1.499 . S
C225 H226 0.959 . S
C225 H227 0.960 . S
C225 H228 0.961 . S
H226 C225 0.959 . S
H227 C225 0.960 . S
H228 C225 0.961 . S
O229 Co204 1.967 . S
O229 C237 1.258 . S
O230 Co205 1.941 . S
O230 C237 1.266 . S
H231 C233 0.959 . S
H232 C233 0.961 . S
C233 C223 1.510 . S
C233 H231 0.959 . S
C233 H232 0.961 . S
C233 H234 0.960 . S
H234 C233 0.960 . S
H235 N215 0.862 . S
O236 Co204 1.920 . S
O236 C209 1.289 . S
C237 O229 1.258 . S
C237 O230 1.266 . S
Co238 O241 1.970 . S
Co238 N255 1.989 . S
Co238 O263 1.967 . S
Co238 O270 1.920 . S
Co239 O242 1.966 . S
Co239 N248 2.022 . S
Co239 N256 1.993 . S
Co239 O264 1.941 . S
C240 O241 1.258 . S
C240 O242 1.263 . S
O241 Co238 1.970 . S
O241 C240 1.258 . S
O242 Co239 1.966 . S
O242 C240 1.263 . S
C243 O244 1.235 . S
C243 O270 1.289 . S
O244 C243 1.235 . S
C245 C247 1.400 . S
C245 N248 1.351 . S
C245 C250 1.501 . S
C246 C247 1.387 . S
C246 N249 1.341 . S
C247 C245 1.400 . S
C247 C246 1.387 . S
N248 Co239 2.022 . S
N248 C245 1.351 . S
N248 N249 1.365 . S
N249 C246 1.341 . S
N249 N248 1.365 . S
N249 H269 0.862 . S
C250 C245 1.501 . S
C250 H251 0.961 . S
C250 H252 0.961 . S
C250 H253 0.960 . S
H251 C250 0.961 . S
H252 C250 0.961 . S
H253 C250 0.960 . S
C254 N255 1.342 . S
C254 C258 1.401 . S
C254 C259 1.499 . S
N255 Co238 1.989 . S
N255 C254 1.342 . S
N255 N256 1.388 . S
N256 Co239 1.993 . S
N256 N255 1.388 . S
N256 C257 1.346 . S
C257 N256 1.346 . S
C257 C258 1.396 . S
C257 C267 1.510 . S
C258 C254 1.401 . S
C258 C257 1.396 . S
C259 C254 1.499 . S
C259 H260 0.959 . S
C259 H261 0.960 . S
C259 H262 0.961 . S
H260 C259 0.959 . S
H261 C259 0.960 . S
H262 C259 0.961 . S
O263 Co238 1.967 . S
O263 C271 1.258 . S
O264 Co239 1.941 . S
O264 C271 1.266 . S
H265 C267 0.959 . S
H266 C267 0.961 . S
C267 C257 1.510 . S
C267 H265 0.959 . S
C267 H266 0.961 . S
C267 H268 0.960 . S
H268 C267 0.960 . S
H269 N249 0.862 . S
O270 Co238 1.920 . S
O270 C243 1.289 . S
C271 O263 1.258 . S
C271 O264 1.266 . S
C272 C273 1.349 . S
C272 C274 1.327 . S
C272 H297 0.950 . S
C273 C272 1.349 . S
C273 C289 1.349 1_554 S
C274 C272 1.327 . S
C274 C293 1.429 . S
C274 H298 0.950 . S
C275 C292 1.574 . S
C275 C294 1.368 . S
C275 H299 0.949 1_554 S
H276 C280 0.949 . S
C277 C278 1.349 . S
C277 C279 1.327 . S
C277 H300 0.967 . S
C278 C277 1.349 . S
C278 C290 1.349 . S
C279 C277 1.327 . S
C279 C295 1.429 . S
C279 H301 0.950 1_554 S
C280 H276 0.949 . S
C280 C288 1.574 . S
C280 C296 1.368 . S
H281 C289 0.950 . S
H282 C287 0.950 . S
H283 C288 0.949 . S
H284 C290 0.950 . S
H285 C291 0.950 . S
H286 C292 0.949 1_556 S
C287 H282 0.950 . S
C287 C289 1.327 . S
C287 C293 1.429 1_556 S
C288 C280 1.574 . S
C288 H283 0.949 . S
C288 C294 1.368 . S
C289 C273 1.349 1_556 S
C289 H281 0.950 . S
C289 C287 1.327 . S
C290 C278 1.349 . S
C290 H284 0.950 . S
C290 C291 1.327 . S
C291 H285 0.950 . S
C291 C290 1.327 . S
C291 C295 1.429 . S
C292 C275 1.574 . S
C292 H286 0.949 1_554 S
C292 C296 1.368 . S
C293 C274 1.429 . S
C293 C287 1.429 1_554 S
C293 C294 1.523 . S
C294 C275 1.368 . S
C294 C288 1.368 . S
C294 C293 1.523 . S
C295 C279 1.429 . S
C295 C291 1.429 . S
C295 C296 1.523 . S
C296 C280 1.368 . S
C296 C292 1.368 . S
C296 C295 1.523 . S
H297 C272 0.950 . S
H298 C274 0.950 . S
H299 C275 0.949 1_556 S
H300 C277 0.967 . S
H301 C279 0.950 1_556 S
C302 C303 1.349 1_655 S
C302 C304 1.327 . S
C302 H327 0.950 . S
C303 C302 1.349 1_455 S
C303 C319 1.349 . S
C304 C302 1.327 . S
C304 C323 1.429 . S
C304 H328 0.950 . S
C305 C322 1.574 . S
C305 C324 1.368 . S
C305 H329 0.949 . S
H306 C310 0.949 . S
C307 C308 1.349 . S
C307 C309 1.327 1_565 S
C307 H330 0.950 . S
C308 C307 1.349 . S
C308 C320 1.349 1_565 S
C309 C307 1.327 1_545 S
C309 C325 1.429 . S
C309 H331 0.950 . S
C310 H306 0.949 . S
C310 C318 1.574 . S
C310 C326 1.368 . S
H311 C319 0.950 . S
H312 C317 0.950 . S
H313 C318 0.949 . S
H314 C320 0.950 . S
H315 C321 0.950 . S
H316 C322 0.949 . S
C317 H312 0.950 . S
C317 C319 1.327 1_655 S
C317 C323 1.429 . S
C318 C310 1.574 . S
C318 H313 0.949 . S
C318 C324 1.368 . S
C319 C303 1.349 . S
C319 H311 0.950 . S
C319 C317 1.327 1_455 S
C320 C308 1.349 1_545 S
C320 H314 0.950 . S
C320 C321 1.327 . S
C321 H315 0.950 . S
C321 C320 1.327 . S
C321 C325 1.429 . S
C322 C305 1.574 . S
C322 H316 0.949 . S
C322 C326 1.368 . S
C323 C304 1.429 . S
C323 C317 1.429 . S
C323 C324 1.523 . S
C324 C305 1.368 . S
C324 C318 1.368 . S
C324 C323 1.523 . S
C325 C309 1.429 . S
C325 C321 1.429 . S
C325 C326 1.523 . S
C326 C310 1.368 . S
C326 C322 1.368 . S
C326 C325 1.523 . S
H327 C302 0.950 . S
H328 C304 0.950 . S
H329 C305 0.949 . S
H330 C307 0.950 . S
H331 C309 0.950 . S
C332 C333 1.349 . S
C332 C334 1.327 . S
C332 H357 0.950 . S
C333 C332 1.349 . S
C333 C349 1.349 . S
C334 C332 1.327 . S
C334 C353 1.429 . S
C334 H358 0.950 . S
C335 C352 1.574 . S
C335 C354 1.368 . S
C335 H359 0.949 . S
H336 C340 0.949 . S
C337 C338 1.349 . S
C337 C339 1.327 . S
C337 H360 0.950 . S
C338 C337 1.349 . S
C338 C350 1.349 . S
C339 C337 1.327 . S
C339 C355 1.429 . S
C339 H361 0.950 . S
C340 H336 0.949 . S
C340 C348 1.574 . S
C340 C356 1.368 . S
H341 C349 0.950 . S
H342 C347 0.950 . S
H343 C348 0.949 . S
H344 C350 0.950 . S
H345 C351 0.950 . S
H346 C352 0.949 . S
C347 H342 0.950 . S
C347 C349 1.327 . S
C347 C353 1.429 . S
C348 C340 1.574 . S
C348 H343 0.949 . S
C348 C354 1.368 . S
C349 C333 1.349 . S
C349 H341 0.950 . S
C349 C347 1.327 . S
C350 C338 1.349 . S
C350 H344 0.950 . S
C350 C351 1.327 . S
C351 H345 0.950 . S
C351 C350 1.327 . S
C351 C355 1.429 . S
C352 C335 1.574 . S
C352 H346 0.949 . S
C352 C356 1.368 . S
C353 C334 1.429 . S
C353 C347 1.429 . S
C353 C354 1.523 . S
C354 C335 1.368 . S
C354 C348 1.368 . S
C354 C353 1.523 . S
C355 C339 1.429 . S
C355 C351 1.429 . S
C355 C356 1.523 . S
C356 C340 1.368 . S
C356 C352 1.368 . S
C356 C355 1.523 . S
H357 C332 0.950 . S
H358 C334 0.950 . S
H359 C335 0.949 . S
H360 C337 0.950 . S
H361 C339 0.950 . S
C362 C363 1.349 1_455 S
C362 C364 1.327 . S
C362 H387 0.950 . S
C363 C362 1.349 1_655 S
C363 C379 1.349 . S
C364 C362 1.327 . S
C364 C383 1.429 . S
C364 H388 0.950 . S
C365 C382 1.574 . S
C365 C384 1.368 . S
C365 H389 0.949 . S
H366 C370 0.949 . S
C367 C368 1.349 . S
C367 C369 1.327 1_545 S
C367 H390 0.950 . S
C368 C367 1.349 . S
C368 C380 1.349 1_545 S
C369 C367 1.327 1_565 S
C369 C385 1.429 . S
C369 H391 0.950 . S
C370 H366 0.949 . S
C370 C378 1.574 . S
C370 C386 1.368 . S
H371 C379 0.950 . S
H372 C377 0.950 . S
H373 C378 0.949 . S
H374 C380 0.950 . S
H375 C381 0.950 . S
H376 C382 0.949 . S
C377 H372 0.950 . S
C377 C379 1.327 1_455 S
C377 C383 1.429 . S
C378 C370 1.574 . S
C378 H373 0.949 . S
C378 C384 1.368 . S
C379 C363 1.349 . S
C379 H371 0.950 . S
C379 C377 1.327 1_655 S
C380 C368 1.349 1_565 S
C380 H374 0.950 . S
C380 C381 1.327 . S
C381 H375 0.950 . S
C381 C380 1.327 . S
C381 C385 1.429 . S
C382 C365 1.574 . S
C382 H376 0.949 . S
C382 C386 1.368 . S
C383 C364 1.429 . S
C383 C377 1.429 . S
C383 C384 1.523 . S
C384 C365 1.368 . S
C384 C378 1.368 . S
C384 C383 1.523 . S
C385 C369 1.429 . S
C385 C381 1.429 . S
C385 C386 1.523 . S
C386 C370 1.368 . S
C386 C382 1.368 . S
C386 C385 1.523 . S
H387 C362 0.950 . S
H388 C364 0.950 . S
H389 C365 0.949 . S
H390 C367 0.950 . S
H391 C369 0.950 . S
C392 C393 1.349 . S
C392 C394 1.327 . S
C392 H417 0.950 . S
C393 C392 1.349 . S
C393 C409 1.349 . S
C394 C392 1.327 . S
C394 C413 1.429 . S
C394 H418 0.950 . S
C395 C412 1.574 . S
C395 C414 1.368 . S
C395 H419 0.949 . S
H396 C400 0.949 . S
C397 C398 1.349 . S
C397 C399 1.327 . S
C397 H420 0.950 . S
C398 C397 1.349 . S
C398 C410 1.349 . S
C399 C397 1.327 . S
C399 C415 1.429 . S
C399 H421 0.950 . S
C400 H396 0.949 . S
C400 C408 1.574 . S
C400 C416 1.368 . S
H401 C409 0.950 . S
H402 C407 0.950 . S
H403 C408 0.949 . S
H404 C410 0.950 . S
H405 C411 0.950 . S
H406 C412 0.949 . S
C407 H402 0.950 . S
C407 C409 1.327 . S
C407 C413 1.429 . S
C408 C400 1.574 . S
C408 H403 0.949 . S
C408 C414 1.368 . S
C409 C393 1.349 . S
C409 H401 0.950 . S
C409 C407 1.327 . S
C410 C398 1.349 . S
C410 H404 0.950 . S
C410 C411 1.327 . S
C411 H405 0.950 . S
C411 C410 1.327 . S
C411 C415 1.429 . S
C412 C395 1.574 . S
C412 H406 0.949 . S
C412 C416 1.368 . S
C413 C394 1.429 . S
C413 C407 1.429 . S
C413 C414 1.523 . S
C414 C395 1.368 . S
C414 C408 1.368 . S
C414 C413 1.523 . S
C415 C399 1.429 . S
C415 C411 1.429 . S
C415 C416 1.523 . S
C416 C400 1.368 . S
C416 C412 1.368 . S
C416 C415 1.523 . S
H417 C392 0.950 . S
H418 C394 0.950 . S
H419 C395 0.949 . S
H420 C397 0.950 . S
H421 C399 0.950 . S
C422 C423 1.349 . S
C422 C424 1.327 . S
C422 H447 0.950 . S
C423 C422 1.349 . S
C423 C439 1.349 . S
C424 C422 1.327 . S
C424 C443 1.429 . S
C424 H448 0.950 . S
C425 C442 1.574 . S
C425 C444 1.368 . S
C425 H449 0.949 . S
H426 C430 0.949 . S
C427 C428 1.349 . S
C427 C429 1.327 . S
C427 H450 0.950 . S
C428 C427 1.349 . S
C428 C440 1.349 . S
C429 C427 1.327 . S
C429 C445 1.429 . S
C429 H451 0.950 . S
C430 H426 0.949 . S
C430 C438 1.574 . S
C430 C446 1.368 . S
H431 C439 0.950 . S
H432 C437 0.950 . S
H433 C438 0.949 . S
H434 C440 0.950 . S
H435 C441 0.950 . S
H436 C442 0.949 . S
C437 H432 0.950 . S
C437 C439 1.327 . S
C437 C443 1.429 . S
C438 C430 1.574 . S
C438 H433 0.949 . S
C438 C444 1.368 . S
C439 C423 1.349 . S
C439 H431 0.950 . S
C439 C437 1.327 . S
C440 C428 1.349 . S
C440 H434 0.950 . S
C440 C441 1.327 . S
C441 H435 0.950 . S
C441 C440 1.327 . S
C441 C445 1.429 . S
C442 C425 1.574 . S
C442 H436 0.949 . S
C442 C446 1.368 . S
C443 C424 1.429 . S
C443 C437 1.429 . S
C443 C444 1.523 . S
C444 C425 1.368 . S
C444 C438 1.368 . S
C444 C443 1.523 . S
C445 C429 1.429 . S
C445 C441 1.429 . S
C445 C446 1.523 . S
C446 C430 1.368 . S
C446 C442 1.368 . S
C446 C445 1.523 . S
H447 C422 0.950 . S
H448 C424 0.950 . S
H449 C425 0.949 . S
H450 C427 0.950 . S
H451 C429 0.950 . S
C452 C453 1.349 . S
C452 C454 1.327 . S
C452 H477 0.950 . S
C453 C452 1.349 . S
C453 C469 1.349 . S
C454 C452 1.327 . S
C454 C473 1.429 . S
C454 H478 0.950 . S
C455 C472 1.574 . S
C455 C474 1.368 . S
C455 H479 0.949 . S
H456 C460 0.949 . S
C457 C458 1.349 . S
C457 C459 1.327 . S
C457 H480 0.950 . S
C458 C457 1.349 . S
C458 C470 1.349 . S
C459 C457 1.327 . S
C459 C475 1.429 . S
C459 H481 0.950 . S
C460 H456 0.949 . S
C460 C468 1.574 . S
C460 C476 1.368 . S
H461 C469 0.950 . S
H462 C467 0.950 . S
H463 C468 0.949 . S
H464 C470 0.950 . S
H465 C471 0.950 . S
H466 C472 0.949 . S
C467 H462 0.950 . S
C467 C469 1.327 . S
C467 C473 1.429 . S
C468 C460 1.574 . S
C468 H463 0.949 . S
C468 C474 1.368 . S
C469 C453 1.349 . S
C469 H461 0.950 . S
C469 C467 1.327 . S
C470 C458 1.349 . S
C470 H464 0.950 . S
C470 C471 1.327 . S
C471 H465 0.950 . S
C471 C470 1.327 . S
C471 C475 1.429 . S
C472 C455 1.574 . S
C472 H466 0.949 . S
C472 C476 1.368 . S
C473 C454 1.429 . S
C473 C467 1.429 . S
C473 C474 1.523 . S
C474 C455 1.368 . S
C474 C468 1.368 . S
C474 C473 1.523 . S
C475 C459 1.429 . S
C475 C471 1.429 . S
C475 C476 1.523 . S
C476 C460 1.368 . S
C476 C472 1.368 . S
C476 C475 1.523 . S
H477 C452 0.950 . S
H478 C454 0.950 . S
H479 C455 0.949 . S
H480 C457 0.950 . S
H481 C459 0.950 . S
C482 C483 1.349 . S
C482 C484 1.327 . S
C482 H507 0.950 . S
C483 C482 1.349 . S
C483 C499 1.349 . S
C484 C482 1.327 . S
C484 C503 1.429 . S
C484 H508 0.950 . S
C485 C502 1.574 . S
C485 C504 1.368 . S
C485 H509 0.949 . S
H486 C490 0.949 . S
C487 C488 1.349 . S
C487 C489 1.327 . S
C487 H510 0.950 . S
C488 C487 1.349 . S
C488 C500 1.349 . S
C489 C487 1.327 . S
C489 C505 1.429 . S
C489 H511 0.950 . S
C490 H486 0.949 . S
C490 C498 1.574 1_554 S
C490 C506 1.368 . S
H491 C499 0.950 . S
H492 C497 0.950 . S
H493 C498 0.949 . S
H494 C500 0.950 . S
H495 C501 0.950 . S
H496 C502 0.949 . S
C497 H492 0.950 . S
C497 C499 1.327 . S
C497 C503 1.429 . S
C498 C490 1.574 1_556 S
C498 H493 0.949 . S
C498 C504 1.368 1_556 S
C499 C483 1.349 . S
C499 H491 0.950 . S
C499 C497 1.327 . S
C500 C488 1.349 . S
C500 H494 0.950 . S
C500 C501 1.327 . S
C501 H495 0.950 . S
C501 C500 1.327 . S
C501 C505 1.429 . S
C502 C485 1.574 . S
C502 H496 0.949 . S
C502 C506 1.368 . S
C503 C484 1.429 . S
C503 C497 1.429 . S
C503 C504 1.523 1_556 S
C504 C485 1.368 . S
C504 C498 1.368 1_554 S
C504 C503 1.523 1_554 S
C505 C489 1.429 . S
C505 C501 1.429 . S
C505 C506 1.523 . S
C506 C490 1.368 . S
C506 C502 1.368 . S
C506 C505 1.523 . S
H507 C482 0.950 . S
H508 C484 0.950 . S
H509 C485 0.949 . S
H510 C487 0.950 . S
H511 C489 0.950 . S
C512 C513 1.349 . S
C512 C514 1.327 . S
C512 H537 0.950 . S
C513 C512 1.349 . S
C513 C529 1.349 . S
C514 C512 1.327 . S
C514 C533 1.429 . S
C514 H538 0.950 . S
C515 C532 1.574 . S
C515 C534 1.368 . S
C515 H539 0.949 . S
H516 C520 0.949 . S
C517 C518 1.349 . S
C517 C519 1.327 . S
C517 H540 0.950 . S
C518 C517 1.349 . S
C518 C530 1.349 . S
C519 C517 1.327 . S
C519 C535 1.429 . S
C519 H541 0.950 . S
C520 H516 0.949 . S
C520 C528 1.574 . S
C520 C536 1.368 . S
H521 C529 0.950 . S
H522 C527 0.950 . S
H523 C528 0.949 . S
H524 C530 0.950 . S
H525 C531 0.950 . S
H526 C532 0.949 . S
C527 H522 0.950 . S
C527 C529 1.327 . S
C527 C533 1.429 . S
C528 C520 1.574 . S
C528 H523 0.949 . S
C528 C534 1.368 . S
C529 C513 1.349 . S
C529 H521 0.950 . S
C529 C527 1.327 . S
C530 C518 1.349 . S
C530 H524 0.950 . S
C530 C531 1.327 . S
C531 H525 0.950 . S
C531 C530 1.327 . S
C531 C535 1.429 . S
C532 C515 1.574 . S
C532 H526 0.949 . S
C532 C536 1.368 . S
C533 C514 1.429 . S
C533 C527 1.429 . S
C533 C534 1.523 . S
C534 C515 1.368 . S
C534 C528 1.368 . S
C534 C533 1.523 . S
C535 C519 1.429 . S
C535 C531 1.429 . S
C535 C536 1.523 . S
C536 C520 1.368 . S
C536 C532 1.368 . S
C536 C535 1.523 . S
H537 C512 0.950 . S
H538 C514 0.950 . S
H539 C515 0.949 . S
H540 C517 0.950 . S
H541 C519 0.950 . S
C542 C543 1.349 . S
C542 C544 1.327 . S
C542 H567 0.950 . S
C543 C542 1.349 . S
C543 C559 1.349 . S
C544 C542 1.327 . S
C544 C563 1.429 . S
C544 H568 0.950 . S
C545 C562 1.574 . S
C545 C564 1.368 . S
C545 H569 0.949 . S
H546 C550 0.949 . S
C547 C548 1.349 . S
C547 C549 1.327 . S
C547 H570 0.950 . S
C548 C547 1.349 . S
C548 C560 1.349 . S
C549 C547 1.327 . S
C549 C565 1.429 . S
C549 H571 0.950 . S
C550 H546 0.949 . S
C550 C558 1.574 . S
C550 C566 1.368 . S
H551 C559 0.950 . S
H552 C557 0.950 . S
H553 C558 0.949 . S
H554 C560 0.950 . S
H555 C561 0.950 . S
H556 C562 0.949 . S
C557 H552 0.950 . S
C557 C559 1.327 . S
C557 C563 1.429 . S
C558 C550 1.574 . S
C558 H553 0.949 . S
C558 C564 1.368 . S
C559 C543 1.349 . S
C559 H551 0.950 . S
C559 C557 1.327 . S
C560 C548 1.349 . S
C560 H554 0.950 . S
C560 C561 1.327 . S
C561 H555 0.950 . S
C561 C560 1.327 . S
C561 C565 1.429 . S
C562 C545 1.574 . S
C562 H556 0.949 . S
C562 C566 1.368 . S
C563 C544 1.429 . S
C563 C557 1.429 . S
C563 C564 1.523 . S
C564 C545 1.368 . S
C564 C558 1.368 . S
C564 C563 1.523 . S
C565 C549 1.429 . S
C565 C561 1.429 . S
C565 C566 1.523 1_556 S
C566 C550 1.368 . S
C566 C562 1.368 . S
C566 C565 1.523 1_554 S
H567 C542 0.950 . S
H568 C544 0.950 . S
H569 C545 0.949 . S
H570 C547 0.950 . S
H571 C549 0.950 . S
C572 C573 1.349 . S
C572 C574 1.327 . S
C572 H597 0.950 . S
C573 C572 1.349 . S
C573 C589 1.349 . S
C574 C572 1.327 . S
C574 C593 1.429 . S
C574 H598 0.950 . S
C575 C592 1.574 . S
C575 C594 1.368 . S
C575 H599 0.949 . S
H576 C580 0.949 . S
C577 C578 1.349 . S
C577 C579 1.327 . S
C577 H600 0.950 . S
C578 C577 1.349 . S
C578 C590 1.349 . S
C579 C577 1.327 . S
C579 C595 1.429 . S
C579 H601 0.950 . S
C580 H576 0.949 . S
C580 C588 1.574 . S
C580 C596 1.368 . S
H581 C589 0.950 . S
H582 C587 0.950 . S
H583 C588 0.949 . S
H584 C590 0.950 . S
H585 C591 0.950 . S
H586 C592 0.949 . S
C587 H582 0.950 . S
C587 C589 1.327 . S
C587 C593 1.429 . S
C588 C580 1.574 . S
C588 H583 0.949 . S
C588 C594 1.368 . S
C589 C573 1.349 . S
C589 H581 0.950 . S
C589 C587 1.327 . S
C590 C578 1.349 . S
C590 H584 0.950 . S
C590 C591 1.327 . S
C591 H585 0.950 . S
C591 C590 1.327 . S
C591 C595 1.429 . S
C592 C575 1.574 . S
C592 H586 0.949 . S
C592 C596 1.368 . S
C593 C574 1.429 . S
C593 C587 1.429 . S
C593 C594 1.523 . S
C594 C575 1.368 . S
C594 C588 1.368 . S
C594 C593 1.523 . S
C595 C579 1.429 . S
C595 C591 1.429 . S
C595 C596 1.523 . S
C596 C580 1.368 . S
C596 C592 1.368 . S
C596 C595 1.523 . S
H597 C572 0.950 . S
H598 C574 0.950 . S
H599 C575 0.949 . S
H600 C577 0.950 . S
H601 C579 0.950 . S
C602 C603 1.349 . S
C602 C604 1.327 . S
C602 H627 0.950 . S
C603 C602 1.349 . S
C603 C619 1.349 . S
C604 C602 1.327 . S
C604 C623 1.429 . S
C604 H628 0.950 . S
C605 C622 1.574 . S
C605 C624 1.368 . S
C605 H629 0.949 . S
H606 C610 0.949 . S
C607 C608 1.349 . S
C607 C609 1.327 . S
C607 H630 0.950 . S
C608 C607 1.349 . S
C608 C620 1.349 . S
C609 C607 1.327 . S
C609 C625 1.429 . S
C609 H631 0.950 . S
C610 H606 0.949 . S
C610 C618 1.574 . S
C610 C626 1.368 . S
H611 C619 0.950 . S
H612 C617 0.950 . S
H613 C618 0.949 . S
H614 C620 0.950 . S
H615 C621 0.950 . S
H616 C622 0.949 . S
C617 H612 0.950 . S
C617 C619 1.327 . S
C617 C623 1.429 . S
C618 C610 1.574 . S
C618 H613 0.949 . S
C618 C624 1.368 . S
C619 C603 1.349 . S
C619 H611 0.950 . S
C619 C617 1.327 . S
C620 C608 1.349 . S
C620 H614 0.950 . S
C620 C621 1.327 . S
C621 H615 0.950 . S
C621 C620 1.327 . S
C621 C625 1.429 . S
C622 C605 1.574 . S
C622 H616 0.949 . S
C622 C626 1.368 . S
C623 C604 1.429 . S
C623 C617 1.429 . S
C623 C624 1.523 . S
C624 C605 1.368 . S
C624 C618 1.368 . S
C624 C623 1.523 . S
C625 C609 1.429 . S
C625 C621 1.429 . S
C625 C626 1.523 . S
C626 C610 1.368 . S
C626 C622 1.368 . S
C626 C625 1.523 . S
H627 C602 0.950 . S
H628 C604 0.950 . S
H629 C605 0.949 . S
H630 C607 0.950 . S
H631 C609 0.950 . S
C632 C633 1.349 . S
C632 C634 1.327 . S
C632 H657 0.950 . S
C633 C632 1.349 . S
C633 C649 1.349 . S
C634 C632 1.327 . S
C634 C653 1.429 . S
C634 H658 0.950 . S
C635 C652 1.574 . S
C635 C654 1.368 . S
C635 H659 0.949 . S
H636 C640 0.949 . S
C637 C638 1.349 . S
C637 C639 1.347 . S
C637 H660 0.950 . S
C638 C637 1.349 . S
C638 C650 1.349 1_545 S
C639 C637 1.347 . S
C639 C655 1.406 1_545 S
C639 H661 0.953 . S
C640 H636 0.949 . S
C640 C648 1.574 . S
C640 C656 1.368 . S
H641 C649 0.950 1_554 S
H642 C647 0.950 . S
H643 C648 0.949 . S
H644 C650 0.950 . S
H645 C651 0.950 . S
H646 C652 0.949 . S
C647 H642 0.950 . S
C647 C649 1.327 . S
C647 C653 1.429 . S
C648 C640 1.574 . S
C648 H643 0.949 . S
C648 C654 1.368 . S
C649 C633 1.349 . S
C649 H641 0.950 1_556 S
C649 C647 1.327 . S
C650 C638 1.349 1_565 S
C650 H644 0.950 . S
C650 C651 1.327 . S
C651 H645 0.950 . S
C651 C650 1.327 . S
C651 C655 1.429 . S
C652 C635 1.574 . S
C652 H646 0.949 . S
C652 C656 1.368 . S
C653 C634 1.429 . S
C653 C647 1.429 . S
C653 C654 1.523 . S
C654 C635 1.368 . S
C654 C648 1.368 . S
C654 C653 1.523 . S
C655 C639 1.406 1_565 S
C655 C651 1.429 . S
C655 C656 1.523 . S
C656 C640 1.368 . S
C656 C652 1.368 . S
C656 C655 1.523 . S
H657 C632 0.950 . S
H658 C634 0.950 . S
H659 C635 0.949 . S
H660 C637 0.950 . S
H661 C639 0.953 . S
C662 C663 1.349 . S
C662 C664 1.327 . S
C662 H687 0.950 . S
C663 C662 1.349 . S
C663 C679 1.349 . S
C664 C662 1.327 . S
C664 C683 1.429 . S
C664 H688 0.950 . S
C665 C682 1.574 . S
C665 C684 1.368 . S
C665 H689 0.949 . S
H666 C670 0.949 . S
C667 C668 1.349 . S
C667 C669 1.327 . S
C667 H690 0.950 . S
C668 C667 1.349 . S
C668 C680 1.349 . S
C669 C667 1.327 . S
C669 C685 1.429 . S
C669 H691 0.950 . S
C670 H666 0.949 . S
C670 C678 1.574 . S
C670 C686 1.368 . S
H671 C679 0.950 . S
H672 C677 0.950 . S
H673 C678 0.949 . S
H674 C680 0.950 . S
H675 C681 0.950 . S
H676 C682 0.949 . S
C677 H672 0.950 . S
C677 C679 1.327 . S
C677 C683 1.429 . S
C678 C670 1.574 . S
C678 H673 0.949 . S
C678 C684 1.368 . S
C679 C663 1.349 . S
C679 H671 0.950 . S
C679 C677 1.327 . S
C680 C668 1.349 . S
C680 H674 0.950 . S
C680 C681 1.327 . S
C681 H675 0.950 . S
C681 C680 1.327 . S
C681 C685 1.429 . S
C682 C665 1.574 . S
C682 H676 0.949 . S
C682 C686 1.368 . S
C683 C664 1.429 . S
C683 C677 1.429 . S
C683 C684 1.523 . S
C684 C665 1.368 . S
C684 C678 1.368 . S
C684 C683 1.523 . S
C685 C669 1.429 . S
C685 C681 1.429 . S
C685 C686 1.523 . S
C686 C670 1.368 . S
C686 C682 1.368 . S
C686 C685 1.523 . S
H687 C662 0.950 . S
H688 C664 0.950 . S
H689 C665 0.949 . S
H690 C667 0.950 . S
H691 C669 0.950 . S
C692 C693 1.349 1_545 S
C692 C694 1.327 . S
C692 H717 0.950 . S
C693 C692 1.349 1_565 S
C693 C709 1.349 . S
C694 C692 1.327 . S
C694 C713 1.429 . S
C694 H718 0.950 . S
C695 C712 1.574 . S
C695 C714 1.368 . S
C695 H719 0.949 . S
H696 C700 0.949 . S
C697 C698 1.349 . S
C697 C699 1.327 . S
C697 H720 0.950 . S
C698 C697 1.349 . S
C698 C710 1.349 . S
C699 C697 1.327 . S
C699 C715 1.429 . S
C699 H721 0.950 . S
C700 H696 0.949 . S
C700 C708 1.574 . S
C700 C716 1.368 . S
H701 C709 0.950 . S
H702 C707 0.950 . S
H703 C708 0.949 . S
H704 C710 0.950 . S
H705 C711 0.950 . S
H706 C712 0.949 . S
C707 H702 0.950 . S
C707 C709 1.327 . S
C707 C713 1.429 1_565 S
C708 C700 1.574 . S
C708 H703 0.949 . S
C708 C714 1.368 . S
C709 C693 1.349 . S
C709 H701 0.950 . S
C709 C707 1.327 . S
C710 C698 1.349 . S
C710 H704 0.950 . S
C710 C711 1.327 . S
C711 H705 0.950 . S
C711 C710 1.327 . S
C711 C715 1.429 . S
C712 C695 1.574 . S
C712 H706 0.949 . S
C712 C716 1.368 . S
C713 C694 1.429 . S
C713 C707 1.429 1_545 S
C713 C714 1.523 . S
C714 C695 1.368 . S
C714 C708 1.368 . S
C714 C713 1.523 . S
C715 C699 1.429 . S
C715 C711 1.429 . S
C715 C716 1.523 . S
C716 C700 1.368 . S
C716 C712 1.368 . S
C716 C715 1.523 . S
H717 C692 0.950 . S
H718 C694 0.950 . S
H719 C695 0.949 . S
H720 C697 0.950 . S
H721 C699 0.950 . S
C722 C723 1.349 . S
C722 C724 1.327 . S
C722 H747 0.950 . S
C723 C722 1.349 . S
C723 C739 1.349 . S
C724 C722 1.327 . S
C724 C743 1.429 . S
C724 H748 0.950 . S
C725 C742 1.574 . S
C725 C744 1.368 . S
C725 H749 0.949 . S
H726 C730 0.949 . S
C727 C728 1.349 . S
C727 C729 1.327 . S
C727 H750 0.950 . S
C728 C727 1.349 . S
C728 C740 1.349 . S
C729 C727 1.327 . S
C729 C745 1.429 . S
C729 H751 0.950 . S
C730 H726 0.949 . S
C730 C738 1.574 . S
C730 C746 1.368 . S
H731 C739 0.950 . S
H732 C737 0.950 . S
H733 C738 0.949 . S
H734 C740 0.950 . S
H735 C741 0.950 . S
H736 C742 0.949 . S
C737 H732 0.950 . S
C737 C739 1.327 . S
C737 C743 1.429 . S
C738 C730 1.574 . S
C738 H733 0.949 . S
C738 C744 1.368 . S
C739 C723 1.349 . S
C739 H731 0.950 . S
C739 C737 1.327 . S
C740 C728 1.349 . S
C740 H734 0.950 . S
C740 C741 1.327 . S
C741 H735 0.950 . S
C741 C740 1.327 . S
C741 C745 1.429 . S
C742 C725 1.574 . S
C742 H736 0.949 . S
C742 C746 1.368 . S
C743 C724 1.429 . S
C743 C737 1.429 . S
C743 C744 1.523 . S
C744 C725 1.368 . S
C744 C738 1.368 . S
C744 C743 1.523 . S
C745 C729 1.429 . S
C745 C741 1.429 . S
C745 C746 1.523 . S
C746 C730 1.368 . S
C746 C742 1.368 . S
C746 C745 1.523 . S
H747 C722 0.950 . S
H748 C724 0.950 . S
H749 C725 0.949 . S
H750 C727 0.950 . S
H751 C729 0.950 . S
C752 C753 1.349 . S
C752 C754 1.327 . S
C752 H777 0.950 . S
C753 C752 1.349 . S
C753 C769 1.349 . S
C754 C752 1.327 . S
C754 C773 1.429 . S
C754 H778 0.950 . S
C755 C772 1.574 . S
C755 C774 1.368 . S
C755 H779 0.949 . S
H756 C760 0.949 . S
C757 C758 1.349 . S
C757 C759 1.327 . S
C757 H780 0.950 1_556 S
C758 C757 1.349 . S
C758 C770 1.349 . S
C759 C757 1.327 . S
C759 C775 1.429 . S
C759 H781 0.950 . S
C760 H756 0.949 . S
C760 C768 1.574 . S
C760 C776 1.368 . S
H761 C769 0.950 . S
H762 C767 0.950 . S
H763 C768 0.949 . S
H764 C770 0.950 . S
H765 C771 0.950 . S
H766 C772 0.949 . S
C767 H762 0.950 . S
C767 C769 1.327 . S
C767 C773 1.429 . S
C768 C760 1.574 . S
C768 H763 0.949 . S
C768 C774 1.368 . S
C769 C753 1.349 . S
C769 H761 0.950 . S
C769 C767 1.327 . S
C770 C758 1.349 . S
C770 H764 0.950 . S
C770 C771 1.327 . S
C771 H765 0.950 . S
C771 C770 1.327 . S
C771 C775 1.429 . S
C772 C755 1.574 . S
C772 H766 0.949 . S
C772 C776 1.368 . S
C773 C754 1.429 . S
C773 C767 1.429 . S
C773 C774 1.523 . S
C774 C755 1.368 . S
C774 C768 1.368 . S
C774 C773 1.523 . S
C775 C759 1.429 . S
C775 C771 1.429 . S
C775 C776 1.523 . S
C776 C760 1.368 . S
C776 C772 1.368 . S
C776 C775 1.523 . S
H777 C752 0.950 . S
H778 C754 0.950 . S
H779 C755 0.949 . S
H780 C757 0.950 1_554 S
H781 C759 0.950 . S
C782 C783 1.349 . S
C782 C784 1.327 1_455 S
C782 H807 0.950 . S
C783 C782 1.349 . S
C783 C799 1.349 . S
C784 C782 1.327 1_655 S
C784 C803 1.429 . S
C784 H808 0.950 . S
C785 C802 1.574 . S
C785 C804 1.368 . S
C785 H809 0.949 . S
H786 C790 0.949 . S
C787 C788 1.349 . S
C787 C789 1.327 . S
C787 H810 0.950 . S
C788 C787 1.349 . S
C788 C800 1.349 . S
C789 C787 1.327 . S
C789 C805 1.429 . S
C789 H811 0.950 . S
C790 H786 0.949 . S
C790 C798 1.574 . S
C790 C806 1.368 . S
H791 C799 0.950 . S
H792 C797 0.950 . S
H793 C798 0.949 . S
H794 C800 0.950 . S
H795 C801 0.950 . S
H796 C802 0.949 . S
C797 H792 0.950 . S
C797 C799 1.327 1_655 S
C797 C803 1.429 . S
C798 C790 1.574 . S
C798 H793 0.949 . S
C798 C804 1.368 . S
C799 C783 1.349 . S
C799 H791 0.950 . S
C799 C797 1.327 1_455 S
C800 C788 1.349 . S
C800 H794 0.950 . S
C800 C801 1.327 . S
C801 H795 0.950 . S
C801 C800 1.327 . S
C801 C805 1.429 . S
C802 C785 1.574 . S
C802 H796 0.949 . S
C802 C806 1.368 . S
C803 C784 1.429 . S
C803 C797 1.429 . S
C803 C804 1.523 . S
C804 C785 1.368 . S
C804 C798 1.368 . S
C804 C803 1.523 . S
C805 C789 1.429 . S
C805 C801 1.429 . S
C805 C806 1.523 . S
C806 C790 1.368 . S
C806 C802 1.368 . S
C806 C805 1.523 . S
H807 C782 0.950 . S
H808 C784 0.950 . S
H809 C785 0.949 . S
H810 C787 0.950 . S
H811 C789 0.950 . S
C812 C813 1.349 . S
C812 C814 1.327 . S
C812 H837 0.950 . S
C813 C812 1.349 . S
C813 C829 1.349 . S
C814 C812 1.327 . S
C814 C833 1.429 . S
C814 H838 0.950 . S
C815 C832 1.574 . S
C815 C834 1.368 . S
C815 H839 0.949 . S
H816 C820 0.949 . S
C817 C818 1.349 . S
C817 C819 1.327 . S
C817 H840 0.950 . S
C818 C817 1.349 . S
C818 C830 1.349 . S
C819 C817 1.327 . S
C819 C835 1.429 . S
C819 H841 0.950 . S
C820 H816 0.949 . S
C820 C828 1.574 . S
C820 C836 1.368 . S
H821 C829 0.950 . S
H822 C827 0.950 . S
H823 C828 0.949 . S
H824 C830 0.950 . S
H825 C831 0.950 . S
H826 C832 0.949 . S
C827 H822 0.950 . S
C827 C829 1.327 . S
C827 C833 1.429 . S
C828 C820 1.574 . S
C828 H823 0.949 . S
C828 C834 1.368 . S
C829 C813 1.349 . S
C829 H821 0.950 . S
C829 C827 1.327 . S
C830 C818 1.349 . S
C830 H824 0.950 . S
C830 C831 1.327 . S
C831 H825 0.950 . S
C831 C830 1.327 . S
C831 C835 1.429 . S
C832 C815 1.574 . S
C832 H826 0.949 . S
C832 C836 1.368 . S
C833 C814 1.429 . S
C833 C827 1.429 . S
C833 C834 1.523 . S
C834 C815 1.368 . S
C834 C828 1.368 . S
C834 C833 1.523 . S
C835 C819 1.429 . S
C835 C831 1.429 . S
C835 C836 1.523 . S
C836 C820 1.368 . S
C836 C832 1.368 . S
C836 C835 1.523 . S
H837 C812 0.950 . S
H838 C814 0.950 . S
H839 C815 0.949 . S
H840 C817 0.950 . S
H841 C819 0.950 . S
C842 C843 1.349 . S
C842 C844 1.327 . S
C842 H867 0.950 . S
C843 C842 1.349 . S
C843 C859 1.349 . S
C844 C842 1.327 . S
C844 C863 1.429 . S
C844 H868 0.950 . S
C845 C862 1.574 . S
C845 C864 1.368 . S
C845 H869 0.949 . S
H846 C850 0.949 . S
C847 C848 1.349 . S
C847 C849 1.327 1_655 S
C847 H870 0.950 . S
C848 C847 1.349 . S
C848 C860 1.349 1_655 S
C849 C847 1.327 1_455 S
C849 C865 1.429 . S
C849 H871 0.950 . S
C850 H846 0.949 . S
C850 C858 1.574 . S
C850 C866 1.368 . S
H851 C859 0.950 . S
H852 C857 0.950 . S
H853 C858 0.949 . S
H854 C860 0.950 . S
H855 C861 0.950 . S
H856 C862 0.949 . S
C857 H852 0.950 . S
C857 C859 1.327 . S
C857 C863 1.429 . S
C858 C850 1.574 . S
C858 H853 0.949 . S
C858 C864 1.368 . S
C859 C843 1.349 . S
C859 H851 0.950 . S
C859 C857 1.327 . S
C860 C848 1.349 1_455 S
C860 H854 0.950 . S
C860 C861 1.327 . S
C861 H855 0.950 . S
C861 C860 1.327 . S
C861 C865 1.429 . S
C862 C845 1.574 . S
C862 H856 0.949 . S
C862 C866 1.368 . S
C863 C844 1.429 . S
C863 C857 1.429 . S
C863 C864 1.523 . S
C864 C845 1.368 . S
C864 C858 1.368 . S
C864 C863 1.523 . S
C865 C849 1.429 . S
C865 C861 1.429 . S
C865 C866 1.523 . S
C866 C850 1.368 . S
C866 C862 1.368 . S
C866 C865 1.523 . S
H867 C842 0.950 . S
H868 C844 0.950 . S
H869 C845 0.949 . S
H870 C847 0.950 . S
H871 C849 0.950 . S
C273 C175 1.367 . S
C278 C5 1.367 . S
C303 C209 1.367 . S
C308 C39 1.367 . S
C333 C73 1.367 . S
C338 C243 1.367 . S
C363 C141 1.367 . S
C368 C107 1.367 . S
C393 C271 1.397 . S
C398 C33 1.397 . S
C423 C67 1.397 . S
C428 C169 1.397 . S
C453 C203 1.397 . S
C458 C101 1.397 . S
C483 C135 1.397 . S
C488 C237 1.397 . S
C513 C258 1.358 . S
C518 C20 1.358 . S
C543 C54 1.358 . S
C548 C156 1.358 . S
C573 C190 1.358 . S
C578 C88 1.358 . S
C603 C224 1.358 . S
C608 C122 1.358 . S
C633 C9 1.641 1_556 S
C638 C104 1.666 . S
C663 C2 1.666 . S
C668 C43 1.642 . S
C693 C36 1.666 . S
C698 C77 1.642 . S
C723 C70 1.666 . S
C728 C111 1.642 . S
C753 C145 1.642 . S
C758 C172 1.666 . S
C783 C206 1.666 . S
C788 C179 1.642 . S
C813 C240 1.666 . S
C818 C213 1.642 . S
C843 C247 1.642 . S
C848 C138 1.666 . S
