# Generated by pormake.
# Topology mon, (4)-cn, num edge types: 1
# Building blocks:
#     Node 0, Type 0, BuildingBlock: ICAMEG_clean_sbu_1, # of connection points: 4
#     Node 1, Type 0, BuildingBlock: ICAMEG_clean_sbu_1, # of connection points: 4
#     Node 2, Type 0, BuildingBlock: ICAMEG_clean_sbu_1, # of connection points: 4
#     Node 3, Type 0, BuildingBlock: ICAMEG_clean_sbu_1, # of connection points: 4
#     Node 4, Type 0, BuildingBlock: ICAMEG_clean_sbu_1, # of connection points: 4
#     Node 5, Type 0, BuildingBlock: ICAMEG_clean_sbu_1, # of connection points: 4
#     Node 6, Type 0, BuildingBlock: ICAMEG_clean_sbu_1, # of connection points: 4
#     Node 7, Type 0, BuildingBlock: ICAMEG_clean_sbu_1, # of connection points: 4
#     Node 8, Type 0, BuildingBlock: ICAMEG_clean_sbu_1, # of connection points: 4
#     Node 9, Type 0, BuildingBlock: ICAMEG_clean_sbu_1, # of connection points: 4
#     Node 10, Type 0, BuildingBlock: ICAMEG_clean_sbu_1, # of connection points: 4
#     Node 11, Type 0, BuildingBlock: ICAMEG_clean_sbu_1, # of connection points: 4
#     Node 12, Type 0, BuildingBlock: ICAMEG_clean_sbu_1, # of connection points: 4
#     Node 13, Type 0, BuildingBlock: ICAMEG_clean_sbu_1, # of connection points: 4
#     Node 14, Type 0, BuildingBlock: ICAMEG_clean_sbu_1, # of connection points: 4
#     Node 15, Type 0, BuildingBlock: ICAMEG_clean_sbu_1, # of connection points: 4
#     Edge 16, Type (0, 0), BuildingBlock: EZIPEK_clean_linker_0, # of connection points: 2
#     Edge 17, Type (0, 0), BuildingBlock: EZIPEK_clean_linker_0, # of connection points: 2
#     Edge 18, Type (0, 0), BuildingBlock: EZIPEK_clean_linker_0, # of connection points: 2
#     Edge 19, Type (0, 0), BuildingBlock: EZIPEK_clean_linker_0, # of connection points: 2
#     Edge 20, Type (0, 0), BuildingBlock: EZIPEK_clean_linker_0, # of connection points: 2
#     Edge 21, Type (0, 0), BuildingBlock: EZIPEK_clean_linker_0, # of connection points: 2
#     Edge 22, Type (0, 0), BuildingBlock: EZIPEK_clean_linker_0, # of connection points: 2
#     Edge 23, Type (0, 0), BuildingBlock: EZIPEK_clean_linker_0, # of connection points: 2
#     Edge 24, Type (0, 0), BuildingBlock: EZIPEK_clean_linker_0, # of connection points: 2
#     Edge 25, Type (0, 0), BuildingBlock: EZIPEK_clean_linker_0, # of connection points: 2
#     Edge 26, Type (0, 0), BuildingBlock: EZIPEK_clean_linker_0, # of connection points: 2
#     Edge 27, Type (0, 0), BuildingBlock: EZIPEK_clean_linker_0, # of connection points: 2
#     Edge 28, Type (0, 0), BuildingBlock: EZIPEK_clean_linker_0, # of connection points: 2
#     Edge 29, Type (0, 0), BuildingBlock: EZIPEK_clean_linker_0, # of connection points: 2
#     Edge 30, Type (0, 0), BuildingBlock: EZIPEK_clean_linker_0, # of connection points: 2
#     Edge 31, Type (0, 0), BuildingBlock: EZIPEK_clean_linker_0, # of connection points: 2
#     Edge 32, Type (0, 0), BuildingBlock: EZIPEK_clean_linker_0, # of connection points: 2
#     Edge 33, Type (0, 0), BuildingBlock: EZIPEK_clean_linker_0, # of connection points: 2
#     Edge 34, Type (0, 0), BuildingBlock: EZIPEK_clean_linker_0, # of connection points: 2
#     Edge 35, Type (0, 0), BuildingBlock: EZIPEK_clean_linker_0, # of connection points: 2
#     Edge 36, Type (0, 0), BuildingBlock: EZIPEK_clean_linker_0, # of connection points: 2
#     Edge 37, Type (0, 0), BuildingBlock: EZIPEK_clean_linker_0, # of connection points: 2
#     Edge 38, Type (0, 0), BuildingBlock: EZIPEK_clean_linker_0, # of connection points: 2
#     Edge 39, Type (0, 0), BuildingBlock: EZIPEK_clean_linker_0, # of connection points: 2
#     Edge 40, Type (0, 0), BuildingBlock: EZIPEK_clean_linker_0, # of connection points: 2
#     Edge 41, Type (0, 0), BuildingBlock: EZIPEK_clean_linker_0, # of connection points: 2
#     Edge 42, Type (0, 0), BuildingBlock: EZIPEK_clean_linker_0, # of connection points: 2
#     Edge 43, Type (0, 0), BuildingBlock: EZIPEK_clean_linker_0, # of connection points: 2
#     Edge 44, Type (0, 0), BuildingBlock: EZIPEK_clean_linker_0, # of connection points: 2
#     Edge 45, Type (0, 0), BuildingBlock: EZIPEK_clean_linker_0, # of connection points: 2
#     Edge 46, Type (0, 0), BuildingBlock: EZIPEK_clean_linker_0, # of connection points: 2
#     Edge 47, Type (0, 0), BuildingBlock: EZIPEK_clean_linker_0, # of connection points: 2
# Relax obj value: 0.223
# Max RMSD: 0.232
# Mean RMSD: 0.232
data_MOF--net-mon--node1-ICAMEG_clean_sbu_1--edge1-EZIPEK_clean_linker_0
_symmetry_space_group_name_H-M    P1
_symmetry_Int_Tables_number       1
_symmetry_cell_setting            triclinic
loop_
_symmetry_equiv_pos_as_xyz
'x, y, z'
_cell_length_a     25.471738
_cell_length_b     25.802625
_cell_length_c     70.292484
_cell_angle_alpha  90.096277
_cell_angle_beta   89.93743
_cell_angle_gamma 89.998074
loop_
_atom_site_label
_atom_site_type_symbol
_atom_site_fract_x
_atom_site_fract_y
_atom_site_fract_z
_atom_type_partial_charge
Co0 Co 1.00966 0.95421 0.58355 0.0
Co1 Co 0.02673 0.04903 0.6178 0.0
O2 O 0.01951 0.02789 0.59072 0.0
C3 C 0.06638 1.0035 0.54958 0.0
O4 O 0.06671 0.04858 0.55815 0.0
C5 C 0.97593 0.14134 0.59839 0.0
O6 O 0.97493 0.11671 0.5821 0.0
O7 O 0.95835 0.01379 0.62397 0.0
O8 O 0.97022 0.94087 0.6074 0.0
H9 H 0.02007 0.01381 0.68806 0.0
H10 H 0.96978 0.04055 0.55881 0.0
O11 O 0.04819 0.96355 0.5582 0.0
H12 H 0.81798 0.9262 0.56938 0.0
H13 H 0.97546 0.79946 0.54077 0.0
H14 H 0.01463 0.85702 0.60599 0.0
H15 H 0.90379 0.90518 0.58335 0.0
H16 H 0.98493 0.89192 0.54821 0.0
O17 O 0.98892 0.1166 0.61337 0.0
H18 H 0.01639 0.99146 0.65402 0.0
H19 H 0.04712 0.1481 0.63926 0.0
H20 H 1.00396 0.76411 0.59947 0.0
H21 H 0.8848 0.06316 0.5447 0.0
H22 H 0.98464 0.73447 0.56659 0.0
H23 H 0.80794 0.00562 0.5498 0.0
O24 O 0.07671 0.93697 0.5968 0.0
H25 H 0.15167 0.15456 0.57747 0.0
H26 H 0.12786 0.06682 0.63896 0.0
H27 H 0.21078 0.1114 0.63229 0.0
H28 H 0.2235 0.1558 0.60131 0.0
H29 H 0.06963 0.10979 0.58475 0.0
H30 H 0.04943 0.17244 0.67312 0.0
H31 H 0.03643 0.10494 0.69784 0.0
O32 O 0.06733 0.98347 0.62355 0.0
C33 C 0.94621 0.96703 0.62001 0.0
C34 C 0.02585 0.04357 0.67743 0.0
C35 C 0.04212 0.13261 0.66905 0.0
N36 N 0.03141 0.06836 0.64456 0.0
C37 C 0.02404 0.0311 0.6581 0.0
C38 C 0.0401 0.11869 0.64986 0.0
C39 C 0.03493 0.09471 0.68291 0.0
C40 C 0.93705 0.01512 0.56112 0.0
N41 N 0.94277 0.97079 0.57151 0.0
C42 C 0.88874 0.02818 0.55306 0.0
C43 C 0.84565 0.99592 0.55593 0.0
C44 C 0.85129 0.95133 0.56686 0.0
C45 C 0.90024 0.93949 0.57465 0.0
C46 C 0.98424 0.81179 0.55515 0.0
C47 C 1.00578 0.84489 0.59169 0.0
C48 C 0.99026 0.8644 0.55937 0.0
N49 N 1.00121 0.88063 0.57743 0.0
C50 C 0.99995 0.79196 0.58806 0.0
C51 C 0.9892 0.77536 0.56963 0.0
C52 C 0.08866 0.94638 0.61414 0.0
C53 C 0.14688 0.13504 0.59098 0.0
C54 C 0.13267 0.08539 0.62535 0.0
C55 C 0.17998 0.11092 0.62169 0.0
C56 C 0.18709 0.13581 0.60435 0.0
N57 N 0.09329 0.08413 0.61214 0.0
C58 C 0.10017 0.1091 0.59518 0.0
Co59 Co 0.32729 0.72798 0.83052 0.0
Co60 Co 0.23197 0.73833 0.8648 0.0
O61 O 0.25336 0.7412 0.83778 0.0
C62 C 0.28121 0.79573 0.79933 0.0
O63 O 0.2345 0.79091 0.80694 0.0
C64 C 0.12883 0.7178 0.84301 0.0
O65 O 0.15117 0.72743 0.82662 0.0
O66 O 0.25471 0.66367 0.86496 0.0
O67 O 0.33314 0.67396 0.85128 0.0
H68 H 0.25131 0.67812 0.93246 0.0
H69 H 0.22814 0.69711 0.80988 0.0
O70 O 0.32193 0.77908 0.80825 0.0
H71 H 0.3572 0.56596 0.79068 0.0
H72 H 0.49378 0.72807 0.79027 0.0
H73 H 0.42021 0.70633 0.85451 0.0
H74 H 0.38232 0.63482 0.8124 0.0
H75 H 0.39974 0.73832 0.79581 0.0
O76 O 0.15695 0.71853 0.85807 0.0
H77 H 0.27724 0.68734 0.89889 0.0
H78 H 0.13947 0.7745 0.88756 0.0
H79 H 0.51485 0.69669 0.84959 0.0
H80 H 0.20166 0.62861 0.78815 0.0
H81 H 0.55247 0.70583 0.81721 0.0
H82 H 0.26632 0.56204 0.77812 0.0
O83 O 0.34874 0.78413 0.84833 0.0
H84 H 0.15734 0.90301 0.83657 0.0
H85 H 0.24883 0.82661 0.89148 0.0
H86 H 0.22913 0.9198 0.89141 0.0
H87 H 0.18265 0.95875 0.86389 0.0
H88 H 0.17848 0.81057 0.83709 0.0
H89 H 0.11149 0.7655 0.92095 0.0
H90 H 0.16779 0.71738 0.94373 0.0
O91 O 0.30338 0.76 0.87373 0.0
C92 C 0.30061 0.64645 0.86087 0.0
C93 C 0.22665 0.69961 0.92273 0.0
C94 C 0.14819 0.74857 0.91627 0.0
N95 N 0.21069 0.73247 0.89131 0.0
C96 C 0.24138 0.70529 0.90371 0.0
C97 C 0.16426 0.7535 0.89736 0.0
C98 C 0.17976 0.72155 0.92903 0.0
C99 C 0.25682 0.66879 0.80614 0.0
N100 N 0.30703 0.6715 0.81303 0.0
C101 C 0.24143 0.62972 0.79355 0.0
C102 C 0.27763 0.59246 0.78791 0.0
C103 C 0.32853 0.5947 0.79494 0.0
C104 C 0.34251 0.63442 0.80748 0.0
C105 C 0.47767 0.72214 0.80435 0.0
C106 C 0.43536 0.7093 0.84021 0.0
C107 C 0.4238 0.72766 0.80758 0.0
N108 N 0.40256 0.71926 0.8252 0.0
C109 C 0.48945 0.70411 0.83758 0.0
C110 C 0.51058 0.7097 0.81945 0.0
C111 C 0.34006 0.78645 0.86617 0.0
C112 C 0.1769 0.88639 0.84879 0.0
C113 C 0.22815 0.84281 0.87946 0.0
C114 C 0.21724 0.89585 0.87951 0.0
C115 C 0.19124 0.91768 0.86408 0.0
N116 N 0.21315 0.81189 0.86456 0.0
C117 C 0.18852 0.8335 0.84925 0.0
Co118 Co 0.54041 0.07178 0.07854 0.0
Co119 Co 0.52733 0.98573 0.1164 0.0
O120 O 0.52344 1.00217 0.08898 0.0
C121 C 0.44252 0.03618 0.05741 0.0
O122 O 0.4223 0.01519 0.07273 0.0
C123 C 0.55639 0.8843 0.09607 0.0
O124 O 0.5507 0.90719 0.07962 0.0
O125 O 0.60134 0.01122 0.11669 0.0
O126 O 0.60005 0.08109 0.09772 0.0
H127 H 0.57504 0.02784 0.18405 0.0
H128 H 0.54244 0.97532 0.05558 0.0
O129 O 0.48468 0.06257 0.05841 0.0
H130 H 0.70481 0.0668 0.03814 0.0
H131 H 0.54819 0.2085 0.02716 0.0
H132 H 0.57321 0.17259 0.09527 0.0
H133 H 0.64259 0.10547 0.06077 0.0
H134 H 0.53775 0.12005 0.03952 0.0
O135 O 0.55159 0.9116 0.1112 0.0
H136 H 0.56449 0.0454 0.14984 0.0
H137 H 0.50346 0.89394 0.14119 0.0
H138 H 0.58384 0.26172 0.08354 0.0
H139 H 0.60535 0.93343 0.0337 0.0
H140 H 0.57117 0.28029 0.04922 0.0
H141 H 0.68674 0.97971 0.02456 0.0
O142 O 0.48929 0.10422 0.0967 0.0
H143 H 0.3703 0.88929 0.09053 0.0
H144 H 0.4367 0.99762 0.14302 0.0
H145 H 0.34632 0.96425 0.14437 0.0
H146 H 0.31237 0.90967 0.11798 0.0
H147 H 0.46029 0.923 0.08989 0.0
H148 H 0.51431 0.87444 0.17525 0.0
H149 H 0.55007 0.94173 0.19698 0.0
O150 O 0.50084 0.05691 0.12321 0.0
C151 C 0.62246 0.05278 0.11042 0.0
C152 C 0.55936 0.99819 0.17474 0.0
C153 C 0.52549 0.91205 0.16978 0.0
N154 N 0.53371 0.97068 0.14343 0.0
C155 C 0.55314 0.00795 0.15534 0.0
C156 C 0.51986 0.92319 0.15046 0.0
C157 C 0.54546 0.94985 0.18197 0.0
C158 C 0.57887 0.99448 0.05242 0.0
N159 N 0.5901 0.04123 0.06057 0.0
C160 C 0.61377 0.97118 0.03965 0.0
C161 C 0.65955 0.9971 0.03454 0.0
C162 C 0.66975 0.04582 0.0422 0.0
C163 C 0.63436 0.0674 0.05518 0.0
C164 C 0.55351 0.20098 0.04218 0.0
C165 C 0.56744 0.18016 0.08042 0.0
C166 C 0.54723 0.15087 0.04934 0.0
N167 N 0.55391 0.14089 0.06833 0.0
C168 C 0.57372 0.2308 0.07379 0.0
C169 C 0.56653 0.24121 0.05454 0.0
C170 C 0.4832 0.09669 0.11454 0.0
C171 C 0.38471 0.91269 0.1022 0.0
C172 C 0.42273 0.97328 0.13157 0.0
C173 C 0.37128 0.95466 0.1324 0.0
C174 C 0.35223 0.92416 0.11758 0.0
N175 N 0.45474 0.96148 0.11652 0.0
C176 C 0.43603 0.93174 0.10194 0.0
Co177 Co 0.23479 0.25278 0.3294 0.0
Co178 Co 0.28771 0.24185 0.37367 0.0
O179 O 0.29411 0.23724 0.34599 0.0
C180 C 0.23873 0.16862 0.29988 0.0
O181 O 0.18926 0.15879 0.30373 0.0
C182 C 0.39152 0.28791 0.36388 0.0
O183 O 0.36713 0.31256 0.35023 0.0
O184 O 0.26461 0.31562 0.37151 0.0
O185 O 0.20719 0.30726 0.34764 0.0
H186 H 0.19794 0.29264 0.43462 0.0
H187 H 0.34387 0.25969 0.31494 0.0
O188 O 0.26332 0.20103 0.31042 0.0
H189 H 0.2675 0.43216 0.30336 0.0
H190 H 0.14966 0.29674 0.26662 0.0
H191 H 0.11888 0.25538 0.3341 0.0
H192 H 0.21518 0.36366 0.31873 0.0
H193 H 0.22366 0.27607 0.28777 0.0
O194 O 0.3641 0.26109 0.37538 0.0
H195 H 0.20685 0.28402 0.39987 0.0
H196 H 0.35575 0.21218 0.40656 0.0
H197 H 0.04415 0.27966 0.31382 0.0
H198 H 0.39721 0.32656 0.29904 0.0
H199 H 0.05898 0.29937 0.27968 0.0
H200 H 0.35903 0.41366 0.29318 0.0
O201 O 0.19377 0.19665 0.34274 0.0
H202 H 0.39643 0.08517 0.35745 0.0
H203 H 0.24874 0.15103 0.39591 0.0
H204 H 0.27388 0.05904 0.39829 0.0
H205 H 0.3481 0.02548 0.37893 0.0
H206 H 0.37009 0.17693 0.35551 0.0
H207 H 0.34874 0.22064 0.44142 0.0
H208 H 0.26925 0.26087 0.45568 0.0
O209 O 0.21278 0.22026 0.37265 0.0
C210 C 0.22551 0.33261 0.36191 0.0
C211 C 0.23278 0.27502 0.42859 0.0
C212 C 0.31745 0.23471 0.4324 0.0
N213 N 0.28188 0.24772 0.40115 0.0
C214 C 0.23805 0.26997 0.4089 0.0
C215 C 0.32136 0.23032 0.41264 0.0
C216 C 0.27281 0.25723 0.44039 0.0
C217 C 0.32654 0.29693 0.31195 0.0
N218 N 0.27599 0.30704 0.31726 0.0
C219 C 0.35716 0.33494 0.30319 0.0
C220 C 0.33579 0.38384 0.29997 0.0
C221 C 0.28446 0.39424 0.3057 0.0
C222 C 0.25508 0.35529 0.31446 0.0
C223 C 0.14258 0.28853 0.2815 0.0
C224 C 0.12599 0.26596 0.31951 0.0
C225 C 0.18438 0.27686 0.29359 0.0
N226 N 0.17592 0.26675 0.31248 0.0
C227 C 0.08335 0.2786 0.30795 0.0
C228 C 0.09176 0.28989 0.28882 0.0
C229 C 0.18756 0.19254 0.36078 0.0
C230 C 0.36402 0.09933 0.36596 0.0
C231 C 0.28121 0.13681 0.38747 0.0
C232 C 0.29523 0.08465 0.38887 0.0
C233 C 0.33689 0.06585 0.37801 0.0
N234 N 0.30809 0.16949 0.37566 0.0
C235 C 0.34897 0.1513 0.36495 0.0
Co236 Co 0.99708 0.03927 0.44064 0.0
Co237 Co 0.01306 0.95025 0.40453 0.0
O238 O 1.00795 0.96834 0.43162 0.0
C239 C 0.08669 0.01852 0.46867 0.0
O240 O 0.12396 0.02387 0.45591 0.0
C241 C 0.96503 0.85807 0.42397 0.0
O242 O 0.95977 0.88399 0.43987 0.0
O243 O 0.94467 0.98667 0.39939 0.0
O244 O 0.95381 0.05645 0.41806 0.0
H245 H 1.00241 0.99108 0.33474 0.0
H246 H 0.97025 0.95289 0.46682 0.0
O247 O 0.03842 0.02243 0.46413 0.0
H248 H 0.80645 0.05207 0.45932 0.0
H249 H 0.9675 0.17574 0.49095 0.0
H250 H 0.98671 0.1431 0.42222 0.0
H251 H 0.88708 0.07917 0.44275 0.0
H252 H 0.98304 0.08734 0.47908 0.0
O253 O 0.97488 0.88288 0.40868 0.0
H254 H 1.00098 0.01077 0.36903 0.0
H255 H 0.03183 0.85306 0.38187 0.0
H256 H 0.96809 0.23135 0.43346 0.0
H257 H 0.89088 0.92487 0.48399 0.0
H258 H 0.95949 0.24859 0.46808 0.0
H259 H 0.80799 0.97455 0.48022 0.0
O260 O 0.06123 0.06204 0.4264 0.0
H261 H 0.13945 0.84251 0.4433 0.0
H262 H 0.11328 0.93373 0.38258 0.0
H263 H 0.19488 0.88546 0.3879 0.0
H264 H 0.20858 0.83907 0.41841 0.0
H265 H 0.05865 0.89086 0.43752 0.0
H266 H 0.03195 0.83123 0.34777 0.0
H267 H 0.01774 0.90066 0.32388 0.0
O268 O 0.05397 0.01566 0.39939 0.0
C269 C 0.9308 0.03194 0.40478 0.0
C270 C 1.0087 0.96048 0.345 0.0
C271 C 0.02504 0.87077 0.35231 0.0
N272 N 0.01613 0.93316 0.37754 0.0
C273 C 1.00815 0.97147 0.36446 0.0
C274 C 0.02423 0.88323 0.37164 0.0
C275 C 0.01719 0.90974 0.33892 0.0
C276 C 0.93465 0.9749 0.46526 0.0
N277 N 0.93363 0.01754 0.45381 0.0
C278 C 0.88966 0.95877 0.47495 0.0
C279 C 0.84319 0.98661 0.47281 0.0
C280 C 0.84229 0.03006 0.46108 0.0
C281 C 0.88812 0.04508 0.45166 0.0
C282 C 0.97183 0.16886 0.47583 0.0
C283 C 0.98237 0.14975 0.43729 0.0
C284 C 0.98135 0.11885 0.469 0.0
N285 N 0.98686 0.10975 0.44992 0.0
C286 C 0.97213 0.20008 0.44359 0.0
C287 C 0.96716 0.20969 0.463 0.0
C288 C 0.07402 0.05286 0.40907 0.0
C289 C 0.13383 0.86217 0.42986 0.0
C290 C 0.11806 0.91319 0.39582 0.0
C291 C 0.16483 0.88611 0.39879 0.0
C292 C 0.17256 0.86023 0.41591 0.0
N293 N 0.07956 0.91436 0.40941 0.0
C294 C 0.08764 0.88973 0.4264 0.0
Co295 Co 0.22717 0.73186 0.69336 0.0
Co296 Co 0.29551 0.75692 0.6531 0.0
O297 O 0.29289 0.7516 0.68094 0.0
C298 C 0.25966 0.82097 0.7196 0.0
O299 O 0.26488 0.85444 0.70569 0.0
C300 C 0.4029 0.71959 0.66534 0.0
O301 O 0.38288 0.68621 0.67741 0.0
O302 O 0.27518 0.68193 0.65111 0.0
O303 O 0.2077 0.68522 0.67132 0.0
H304 H 0.22818 0.72571 0.58684 0.0
H305 H 0.32786 0.71681 0.71335 0.0
O306 O 0.24618 0.77423 0.71637 0.0
H307 H 0.24594 0.54407 0.71217 0.0
H308 H 0.11613 0.67127 0.74839 0.0
H309 H 0.11417 0.73488 0.68237 0.0
H310 H 0.20169 0.61893 0.69752 0.0
H311 H 0.19836 0.69693 0.73252 0.0
O312 O 0.37334 0.7431 0.65359 0.0
H313 H 0.22568 0.72175 0.62181 0.0
H314 H 0.37268 0.79929 0.62495 0.0
H315 H 0.03134 0.70789 0.6974 0.0
H316 H 0.37326 0.64347 0.72865 0.0
H317 H 0.03204 0.67505 0.73063 0.0
H318 H 0.33212 0.55615 0.72809 0.0
O319 O 0.19195 0.79285 0.68093 0.0
H320 H 0.386 0.91181 0.68167 0.0
H321 H 0.25957 0.85289 0.63318 0.0
H322 H 0.279 0.94605 0.63625 0.0
H323 H 0.34245 0.97614 0.66069 0.0
H324 H 0.36563 0.81903 0.67808 0.0
H325 H 0.3771 0.80323 0.58996 0.0
H326 H 0.30435 0.76661 0.57065 0.0
O327 O 0.21971 0.77467 0.6516 0.0
C328 C 0.23204 0.66298 0.65755 0.0
C329 C 0.26012 0.74187 0.59509 0.0
C330 C 0.34371 0.78531 0.59685 0.0
N331 N 0.29888 0.76044 0.6255 0.0
C332 C 0.25889 0.73987 0.61494 0.0
C333 C 0.3411 0.78271 0.61668 0.0
C334 C 0.30287 0.76479 0.58603 0.0
C335 C 0.30964 0.67924 0.71333 0.0
N336 N 0.26203 0.67255 0.70481 0.0
C337 C 0.33557 0.6377 0.72187 0.0
C338 C 0.31253 0.58873 0.72152 0.0
C339 C 0.26421 0.58192 0.71257 0.0
C340 C 0.23946 0.62446 0.7042 0.0
C341 C 0.11545 0.68442 0.73378 0.0
C342 C 0.11508 0.71965 0.69664 0.0
C343 C 0.16194 0.69888 0.72467 0.0
N344 N 0.16161 0.7144 0.70607 0.0
C345 C 0.06787 0.70499 0.70518 0.0
C346 C 0.06824 0.68679 0.72383 0.0
C347 C 0.19 0.79951 0.66292 0.0
C348 C 0.35837 0.89919 0.67093 0.0
C349 C 0.28752 0.86554 0.64377 0.0
C350 C 0.29825 0.91841 0.64547 0.0
C351 C 0.33388 0.93526 0.65917 0.0
N352 N 0.31187 0.8303 0.65529 0.0
C353 C 0.34679 0.84661 0.66878 0.0
Co354 Co 0.53291 0.94578 0.94787 0.0
Co355 Co 0.51659 0.03131 0.91087 0.0
O356 O 0.52016 0.01633 0.93839 0.0
C357 C 0.46348 0.99849 0.97788 0.0
O358 O 0.46335 0.04084 0.96762 0.0
C359 C 0.55564 0.13154 0.92913 0.0
O360 O 0.55634 0.10974 0.94596 0.0
O361 O 0.58938 1.00159 0.90742 0.0
O362 O 0.58043 0.93161 0.92577 0.0
H363 H 0.55262 0.99743 0.84142 0.0
H364 H 0.55732 0.03699 0.97356 0.0
O365 O 0.48602 0.95759 0.9713 0.0
H366 H 0.72323 0.94098 0.96757 0.0
H367 H 0.58859 0.80544 0.99445 0.0
H368 H 0.51491 0.84022 0.93114 0.0
H369 H 0.64422 0.91059 0.95096 0.0
H370 H 0.57751 0.89434 0.98352 0.0
O371 O 0.54467 0.10373 0.91464 0.0
H372 H 0.55469 0.97835 0.87565 0.0
H373 H 0.47787 0.12057 0.88778 0.0
H374 H 0.52822 0.75087 0.9412 0.0
H375 H 0.6346 0.06741 0.99087 0.0
H376 H 0.56441 0.7323 0.97321 0.0
H377 H 0.7187 0.01945 0.98801 0.0
O378 O 0.47108 0.92065 0.93274 0.0
H379 H 0.37071 0.13265 0.94272 0.0
H380 H 0.41613 0.01394 0.89026 0.0
H381 H 0.32479 0.04298 0.89406 0.0
H382 H 0.30146 0.10309 0.92036 0.0
H383 H 0.46101 0.10216 0.93863 0.0
H384 H 0.47605 0.14189 0.85368 0.0
H385 H 0.51307 0.07985 0.83016 0.0
O386 O 0.48678 0.96159 0.90538 0.0
C387 C 0.60428 0.95616 0.91253 0.0
C388 C 0.53561 0.02445 0.85149 0.0
C389 C 0.49274 0.10551 0.85836 0.0
N390 N 0.51446 0.04706 0.88377 0.0
C391 C 0.53609 0.01347 0.87093 0.0
C392 C 0.49379 0.0931 0.87769 0.0
C393 C 0.51357 0.07074 0.84518 0.0
C394 C 0.59272 0.0148 0.97248 0.0
N395 N 0.59478 0.9707 0.96169 0.0
C396 C 0.63693 0.03275 0.98221 0.0
C397 C 0.68414 0.00597 0.98055 0.0
C398 C 0.68668 0.96199 0.9691 0.0
C399 C 0.64163 0.94512 0.95963 0.0
C400 C 0.57209 0.81292 0.98054 0.0
C401 C 0.53094 0.83369 0.94507 0.0
C402 C 0.56479 0.86381 0.97431 0.0
N403 N 0.54444 0.87423 0.9567 0.0
C404 C 0.53823 0.78233 0.95072 0.0
C405 C 0.55868 0.77193 0.96863 0.0
C406 C 0.46518 0.92508 0.91474 0.0
C407 C 0.38042 0.10678 0.9311 0.0
C408 C 0.40658 0.03996 0.90182 0.0
C409 C 0.35463 0.05638 0.90385 0.0
C410 C 0.34157 0.0901 0.91859 0.0
N411 N 0.44483 0.05682 0.91404 0.0
C412 C 0.43196 0.08955 0.92862 0.0
Co413 Co 0.32264 0.29129 0.1947 0.0
Co414 Co 0.24496 0.28086 0.1553 0.0
O415 O 0.25409 0.27483 0.18309 0.0
C416 C 0.27116 0.21218 0.22153 0.0
O417 O 0.22957 0.2091 0.21061 0.0
C418 C 0.13966 0.31522 0.17221 0.0
O419 O 0.16187 0.34231 0.18579 0.0
O420 O 0.2664 0.35551 0.15705 0.0
O421 O 0.33809 0.34519 0.17443 0.0
H422 H 0.29984 0.34027 0.09021 0.0
H423 H 0.22018 0.3022 0.21508 0.0
O424 O 0.31076 0.23949 0.21628 0.0
H425 H 0.30957 0.46834 0.22593 0.0
H426 H 0.45503 0.33164 0.24675 0.0
H427 H 0.43029 0.29428 0.17879 0.0
H428 H 0.35211 0.39994 0.20743 0.0
H429 H 0.36691 0.31985 0.23361 0.0
O430 O 0.16743 0.29626 0.15879 0.0
H431 H 0.31008 0.32646 0.12464 0.0
H432 H 0.15986 0.255 0.12723 0.0
H433 H 0.51937 0.30744 0.19103 0.0
H434 H 0.17672 0.36884 0.23417 0.0
H435 H 0.53255 0.32585 0.22537 0.0
H436 H 0.22125 0.45306 0.23979 0.0
O437 O 0.35421 0.23556 0.17844 0.0
H438 H 0.14967 0.11996 0.17606 0.0
H439 H 0.26974 0.19437 0.12831 0.0
H440 H 0.24092 0.10361 0.12503 0.0
H441 H 0.18097 0.0656 0.14914 0.0
H442 H 0.17763 0.21113 0.17833 0.0
H443 H 0.14789 0.2686 0.09284 0.0
H444 H 0.21827 0.31125 0.07405 0.0
O445 O 0.32034 0.26028 0.15045 0.0
C446 C 0.31043 0.37279 0.16318 0.0
C447 C 0.26896 0.32146 0.09822 0.0
C448 C 0.18363 0.28136 0.09972 0.0
N449 N 0.23578 0.28968 0.12802 0.0
C450 C 0.27457 0.31337 0.11775 0.0
C451 C 0.19057 0.27399 0.11924 0.0
C452 C 0.22315 0.30526 0.08918 0.0
C453 C 0.24057 0.33793 0.2175 0.0
N454 N 0.28961 0.3459 0.21012 0.0
C455 C 0.21538 0.37597 0.22833 0.0
C456 C 0.24026 0.42319 0.23144 0.0
C457 C 0.28972 0.43177 0.22365 0.0
C458 C 0.31366 0.39271 0.21293 0.0
C459 C 0.44997 0.32304 0.23178 0.0
C460 C 0.43521 0.30178 0.19369 0.0
C461 C 0.39973 0.31545 0.2243 0.0
N462 N 0.39244 0.30502 0.20542 0.0
C463 C 0.48603 0.30955 0.20057 0.0
C464 C 0.49339 0.31995 0.2198 0.0
C465 C 0.35315 0.23412 0.16026 0.0
C466 C 0.17596 0.13599 0.16549 0.0
C467 C 0.24311 0.17838 0.13874 0.0
C468 C 0.22703 0.12688 0.13683 0.0
C469 C 0.19344 0.10555 0.15037 0.0
N470 N 0.22545 0.20817 0.15354 0.0
C471 C 0.19225 0.18755 0.16679 0.0
Co472 Co 0.71983 0.24468 0.19134 0.0
Co473 Co 0.80887 0.28771 0.15737 0.0
O474 O 0.79023 0.27173 0.18422 0.0
C475 C 0.75484 0.31221 0.22483 0.0
O476 O 0.80025 0.32017 0.21656 0.0
C477 C 0.91655 0.25996 0.17544 0.0
O478 O 0.89537 0.25463 0.19231 0.0
O479 O 0.79364 0.21338 0.15033 0.0
O480 O 0.7212 0.19892 0.16791 0.0
H481 H 0.78311 0.28209 0.0864 0.0
H482 H 0.82132 0.22925 0.21251 0.0
O483 O 0.71822 0.28802 0.21588 0.0
H484 H 0.7261 0.06523 0.22039 0.0
H485 H 0.56252 0.1981 0.23258 0.0
H486 H 0.62911 0.21581 0.16716 0.0
H487 H 0.68703 0.13597 0.20227 0.0
H488 H 0.65287 0.22586 0.22675 0.0
O489 O 0.88675 0.27186 0.16147 0.0
H490 H 0.7616 0.26298 0.11981 0.0
H491 H 0.89576 0.34597 0.13835 0.0
H492 H 0.5387 0.18657 0.17236 0.0
H493 H 0.8621 0.15914 0.23043 0.0
H494 H 0.50453 0.17739 0.20524 0.0
H495 H 0.81449 0.07603 0.23468 0.0
O496 O 0.68529 0.30162 0.177 0.0
H497 H 0.87726 0.43482 0.19792 0.0
H498 H 0.77513 0.38858 0.14088 0.0
H499 H 0.7858 0.48033 0.14952 0.0
H500 H 0.8374 0.50415 0.17819 0.0
H501 H 0.86512 0.34378 0.18891 0.0
H502 H 0.91961 0.36525 0.10515 0.0
H503 H 0.86297 0.33344 0.07885 0.0
O504 O 0.73452 0.30513 0.15091 0.0
C505 C 0.75247 0.18656 0.15429 0.0
C506 C 0.80818 0.29618 0.0977 0.0
C507 C 0.88478 0.34272 0.10822 0.0
N508 N 0.82733 0.30287 0.13107 0.0
C509 C 0.79598 0.28556 0.11667 0.0
C510 C 0.87122 0.33137 0.12702 0.0
C511 C 0.85298 0.32493 0.09348 0.0
C512 C 0.80037 0.1935 0.2137 0.0
N513 N 0.75174 0.18763 0.20573 0.0
C514 C 0.82369 0.1537 0.22416 0.0
C515 C 0.79698 0.10718 0.22658 0.0
C516 C 0.74745 0.10116 0.21859 0.0
C517 C 0.72543 0.14186 0.20823 0.0
C518 C 0.57721 0.2011 0.21816 0.0
C519 C 0.6157 0.21052 0.1816 0.0
C520 C 0.62883 0.21699 0.21479 0.0
N521 N 0.64824 0.2205 0.19669 0.0
C522 C 0.56389 0.19447 0.18441 0.0
C523 C 0.54469 0.18946 0.20284 0.0
C524 C 0.69196 0.31445 0.15972 0.0
C525 C 0.85502 0.42499 0.1853 0.0
C526 C 0.79767 0.39831 0.1534 0.0
C527 C 0.80361 0.45052 0.15819 0.0
C528 C 0.83255 0.46386 0.17426 0.0
N529 N 0.82015 0.3602 0.16421 0.0
C530 C 0.84828 0.37318 0.18004 0.0
Co531 Co 0.80537 0.76088 0.69176 0.0
Co532 Co 0.72299 0.73998 0.65337 0.0
O533 O 0.73507 0.74604 0.6811 0.0
C534 C 0.747 0.70106 0.72363 0.0
O535 O 0.70317 0.69754 0.71393 0.0
C536 C 0.62118 0.78395 0.6695 0.0
O537 O 0.64273 0.78619 0.68639 0.0
O538 O 0.75512 0.81047 0.64938 0.0
O539 O 0.82393 0.80203 0.66881 0.0
H540 H 0.77932 0.75595 0.58507 0.0
H541 H 0.70832 0.78891 0.71444 0.0
O542 O 0.78805 0.7197 0.71571 0.0
H543 H 0.80337 0.95297 0.70763 0.0
H544 H 0.956 0.73283 0.73798 0.0
H545 H 0.90146 0.82992 0.6814 0.0
H546 H 0.83614 0.875 0.69236 0.0
H547 H 0.87348 0.71253 0.72287 0.0
O548 O 0.64982 0.77095 0.65534 0.0
H549 H 0.79085 0.75891 0.61983 0.0
H550 H 0.63259 0.71205 0.62787 0.0
H551 H 0.98517 0.84873 0.69584 0.0
H552 H 0.67395 0.86613 0.72988 0.0
H553 H 0.01324 0.80171 0.72482 0.0
H554 H 0.72167 0.94952 0.72683 0.0
O555 O 0.83423 0.69782 0.67861 0.0
H556 H 0.61219 0.606 0.68697 0.0
H557 H 0.7254 0.64015 0.63155 0.0
H558 H 0.68394 0.55467 0.63502 0.0
H559 H 0.62697 0.53686 0.66294 0.0
H560 H 0.65341 0.69095 0.68275 0.0
H561 H 0.61893 0.70986 0.59321 0.0
H562 H 0.69277 0.73147 0.57151 0.0
O563 O 0.79402 0.70602 0.65019 0.0
C564 C 0.80055 0.82445 0.65513 0.0
C565 C 0.74683 0.74643 0.59437 0.0
C566 C 0.6568 0.72075 0.59893 0.0
N567 N 0.71245 0.7359 0.62596 0.0
C568 C 0.75319 0.74789 0.61409 0.0
C569 C 0.66462 0.72261 0.61858 0.0
C570 C 0.69826 0.73278 0.58677 0.0
C571 C 0.73102 0.82349 0.71347 0.0
N572 N 0.77755 0.82448 0.70371 0.0
C573 C 0.71057 0.86794 0.72209 0.0
C574 C 0.73716 0.91469 0.72032 0.0
C575 C 0.78306 0.91653 0.70965 0.0
C576 C 0.8023 0.87121 0.70127 0.0
C577 C 0.94332 0.7552 0.72581 0.0
C578 C 0.91063 0.80938 0.69424 0.0
C579 C 0.89495 0.74492 0.71727 0.0
N580 N 0.8768 0.77398 0.70227 0.0
C581 C 0.95961 0.82012 0.70225 0.0
C582 C 0.97547 0.79364 0.71841 0.0
C583 C 0.83083 0.68798 0.66073 0.0
C584 C 0.63691 0.61322 0.67472 0.0
C585 C 0.70028 0.63324 0.64367 0.0
C586 C 0.677 0.58449 0.64557 0.0
C587 C 0.64515 0.57449 0.66124 0.0
N588 N 0.69198 0.67133 0.65689 0.0
C589 C 0.66065 0.66155 0.67227 0.0
Co590 Co 0.78991 0.24373 0.33448 0.0
Co591 Co 0.70943 0.26273 0.37279 0.0
O592 O 0.7204 0.25763 0.34521 0.0
C593 C 0.76162 0.33129 0.30635 0.0
O594 O 0.76086 0.36831 0.31918 0.0
C595 C 0.60773 0.21937 0.35682 0.0
O596 O 0.6302 0.19737 0.34211 0.0
O597 O 0.74011 0.19068 0.37595 0.0
O598 O 0.80951 0.20015 0.35654 0.0
H599 H 0.74804 0.22459 0.44177 0.0
H600 H 0.69349 0.21912 0.31275 0.0
O601 O 0.77103 0.28446 0.31102 0.0
H602 H 0.79313 0.05583 0.31469 0.0
H603 H 0.9161 0.19878 0.28174 0.0
H604 H 0.89891 0.24399 0.34959 0.0
H605 H 0.82699 0.13425 0.33052 0.0
H606 H 0.82942 0.21858 0.29551 0.0
O607 O 0.63526 0.2371 0.37045 0.0
H608 H 0.76419 0.22161 0.40738 0.0
H609 H 0.62321 0.30487 0.39717 0.0
H610 H 0.98619 0.22295 0.33657 0.0
H611 H 0.65854 0.14222 0.29618 0.0
H612 H 0.99506 0.19949 0.30239 0.0
H613 H 0.70858 0.05959 0.29716 0.0
O614 O 0.81862 0.30572 0.34844 0.0
H615 H 0.60595 0.40265 0.33987 0.0
H616 H 0.72735 0.36392 0.39254 0.0
H617 H 0.69662 0.45349 0.38784 0.0
H618 H 0.63502 0.47333 0.36147 0.0
H619 H 0.63861 0.31405 0.34481 0.0
H620 H 0.60517 0.30802 0.43153 0.0
H621 H 0.66812 0.26827 0.45417 0.0
O622 O 0.78065 0.29305 0.37668 0.0
C623 C 0.78622 0.17734 0.3702 0.0
C624 C 0.72089 0.24312 0.4321 0.0
C625 C 0.64073 0.28985 0.42635 0.0
N626 N 0.69667 0.26603 0.40015 0.0
C627 C 0.73025 0.24222 0.41252 0.0
C628 C 0.65147 0.28827 0.40687 0.0
C629 C 0.67597 0.26745 0.43904 0.0
C630 C 0.71588 0.18385 0.31277 0.0
N631 N 0.76274 0.18184 0.32209 0.0
C632 C 0.69572 0.14015 0.30358 0.0
C633 C 0.72372 0.0938 0.30419 0.0
C634 C 0.77113 0.09167 0.31402 0.0
C635 C 0.79005 0.13624 0.323 0.0
C636 C 0.91266 0.20847 0.29668 0.0
C637 C 0.90239 0.23352 0.3348 0.0
C638 C 0.86369 0.22001 0.30456 0.0
N639 N 0.85887 0.23137 0.3235 0.0
C640 C 0.95197 0.22192 0.32745 0.0
C641 C 0.95696 0.20894 0.30828 0.0
C642 C 0.8158 0.31448 0.36643 0.0
C643 C 0.63226 0.39443 0.35157 0.0
C644 C 0.70049 0.37209 0.38103 0.0
C645 C 0.68322 0.42297 0.37845 0.0
C646 C 0.64869 0.43407 0.36365 0.0
N647 N 0.68341 0.33312 0.36934 0.0
C648 C 0.65044 0.34406 0.35457 0.0
Co649 Co 0.71892 0.77711 0.83635 0.0
Co650 Co 0.80635 0.72286 0.86772 0.0
O651 O 0.78742 0.74732 0.84228 0.0
C652 C 0.72816 0.69465 0.80577 0.0
O653 O 0.7346 0.6583 0.81859 0.0
C654 C 0.90832 0.77063 0.85257 0.0
O655 O 0.88508 0.81034 0.84451 0.0
O656 O 0.79137 0.79489 0.87837 0.0
O657 O 0.71875 0.81562 0.86134 0.0
H658 H 0.78455 0.69188 0.93812 0.0
H659 H 0.81282 0.79142 0.81189 0.0
O660 O 0.72065 0.74167 0.81073 0.0
H661 H 0.74119 0.96674 0.82127 0.0
H662 H 0.57909 0.84987 0.79324 0.0
H663 H 0.62078 0.79088 0.85817 0.0
H664 H 0.6996 0.89129 0.8366 0.0
H665 H 0.66867 0.82097 0.80135 0.0
O666 O 0.88228 0.73846 0.86247 0.0
H667 H 0.75867 0.7228 0.90642 0.0
H668 H 0.8998 0.66534 0.88265 0.0
H669 H 0.53022 0.81572 0.8503 0.0
H670 H 0.85594 0.86544 0.79629 0.0
H671 H 0.50904 0.84748 0.81786 0.0
H672 H 0.81997 0.9541 0.80092 0.0
O673 O 0.682 0.71673 0.8483 0.0
H674 H 0.87532 0.59551 0.81957 0.0
H675 H 0.77412 0.61589 0.87896 0.0
H676 H 0.78612 0.52875 0.86524 0.0
H677 H 0.83715 0.51809 0.83535 0.0
H678 H 0.86199 0.68198 0.83368 0.0
H679 H 0.92808 0.6344 0.91401 0.0
H680 H 0.87035 0.64742 0.94212 0.0
O681 O 0.73222 0.70314 0.87377 0.0
C682 C 0.75127 0.82423 0.87494 0.0
C683 C 0.81044 0.68647 0.92605 0.0
C684 C 0.89091 0.65431 0.91254 0.0
N685 N 0.82792 0.698 0.89273 0.0
C686 C 0.79584 0.7043 0.90807 0.0
C687 C 0.87481 0.6726 0.89478 0.0
C688 C 0.85849 0.66151 0.92828 0.0
C689 C 0.79678 0.82957 0.81382 0.0
N690 N 0.7533 0.83666 0.82488 0.0
C691 C 0.82146 0.87151 0.80503 0.0
C692 C 0.80131 0.9212 0.80765 0.0
C693 C 0.75711 0.92831 0.81905 0.0
C694 C 0.73367 0.88539 0.82768 0.0
C695 C 0.58798 0.83717 0.80755 0.0
C696 C 0.61199 0.80424 0.84396 0.0
C697 C 0.63864 0.82084 0.81223 0.0
N698 N 0.65014 0.80492 0.8303 0.0
C699 C 0.56067 0.81891 0.83965 0.0
C700 C 0.54874 0.83601 0.82137 0.0
C701 C 0.68924 0.69729 0.86476 0.0
C702 C 0.85318 0.59961 0.83264 0.0
C703 C 0.79631 0.61167 0.86593 0.0
C704 C 0.80304 0.56217 0.85825 0.0
C705 C 0.83168 0.55621 0.84148 0.0
N706 N 0.81758 0.65409 0.8572 0.0
C707 C 0.84565 0.64851 0.84074 0.0
Co708 Co 0.48608 0.47635 0.08346 0.0
Co709 Co 0.53964 0.56076 0.1161 0.0
O710 O 0.51844 0.54332 0.0899 0.0
C711 C 0.55085 0.50901 0.04901 0.0
O712 O 0.56029 0.5537 0.05716 0.0
C713 C 0.49869 0.66666 0.10274 0.0
O714 O 0.45345 0.64849 0.09676 0.0
O715 O 0.46421 0.55292 0.12442 0.0
O716 O 0.44294 0.48121 0.10755 0.0
H717 H 0.54799 0.53793 0.18718 0.0
H718 H 0.47138 0.58001 0.06396 0.0
O719 O 0.52678 0.473 0.05823 0.0
H720 H 0.30144 0.49134 0.05768 0.0
H721 H 0.42642 0.32344 0.04319 0.0
H722 H 0.45308 0.38933 0.10822 0.0
H723 H 0.37258 0.4509 0.07558 0.0
H724 H 0.46002 0.41102 0.04848 0.0
O725 O 0.53233 0.63693 0.11041 0.0
H726 H 0.52185 0.51562 0.1545 0.0
H727 H 0.60424 0.64593 0.13311 0.0
H728 H 0.4177 0.30187 0.10356 0.0
H729 H 0.40068 0.62193 0.04646 0.0
H730 H 0.40437 0.26795 0.07089 0.0
H731 H 0.3148 0.57759 0.04288 0.0
O732 O 0.54376 0.43888 0.09684 0.0
H733 H 0.68606 0.61779 0.07287 0.0
H734 H 0.64127 0.51778 0.13034 0.0
H735 H 0.73307 0.52071 0.11937 0.0
H736 H 0.75604 0.57098 0.09043 0.0
H737 H 0.59464 0.61363 0.08427 0.0
H738 H 0.63048 0.67044 0.16556 0.0
H739 H 0.60254 0.61623 0.19293 0.0
O740 O 0.55086 0.48662 0.12302 0.0
C741 C 0.43369 0.51423 0.12084 0.0
C742 C 0.56022 0.56209 0.1754 0.0
C743 C 0.60638 0.63645 0.16327 0.0
N744 N 0.56037 0.57969 0.14185 0.0
C745 C 0.54545 0.54953 0.15684 0.0
C746 C 0.59093 0.62254 0.1449 0.0
C747 C 0.59079 0.60599 0.17861 0.0
C748 C 0.43498 0.55945 0.06254 0.0
N749 N 0.42823 0.51114 0.07021 0.0
C750 C 0.3946 0.5839 0.05256 0.0
C751 C 0.34645 0.55908 0.05056 0.0
C752 C 0.33905 0.51063 0.05878 0.0
C753 C 0.38028 0.48741 0.0687 0.0
C754 C 0.43141 0.338 0.05753 0.0
C755 C 0.44588 0.37612 0.09388 0.0
C756 C 0.45052 0.38809 0.0606 0.0
N757 N 0.4567 0.40729 0.07859 0.0
C758 C 0.4265 0.32592 0.09137 0.0
C759 C 0.41911 0.30685 0.07305 0.0
C760 C 0.55827 0.44452 0.11402 0.0
C761 C 0.67655 0.59568 0.08548 0.0
C762 C 0.65074 0.53946 0.11765 0.0
C763 C 0.70291 0.54115 0.11156 0.0
C764 C 0.71578 0.56939 0.09533 0.0
N765 N 0.61235 0.56507 0.10784 0.0
C766 C 0.6248 0.59313 0.092 0.0
Co767 Co 0.04405 0.53566 0.58259 0.0
Co768 Co 1.00318 0.45572 0.61908 0.0
O769 O 0.0161 0.46923 0.59188 0.0
C770 C 0.96643 0.49951 0.5519 0.0
O771 O 0.94622 0.46381 0.56291 0.0
C772 C 0.04575 0.35344 0.60392 0.0
O773 O 0.08419 0.37479 0.59428 0.0
O774 O 0.07892 0.47173 0.62489 0.0
O775 O 0.09189 0.54037 0.6056 0.0
H776 H 0.99706 0.4988 0.68917 0.0
H777 H 0.0526 0.43499 0.5626 0.0
O778 O 1.00014 0.53162 0.55843 0.0
H779 H 0.22776 0.51345 0.55666 0.0
H780 H 0.10243 0.66573 0.53322 0.0
H781 H 0.07296 0.63403 0.60148 0.0
H782 H 0.15792 0.55763 0.57462 0.0
H783 H 0.07119 0.58074 0.54429 0.0
O784 O 0.0172 0.38037 0.61496 0.0
H785 H 0.0141 0.51609 0.65545 0.0
H786 H 0.95922 0.36553 0.64087 0.0
H787 H 0.10618 0.71835 0.59109 0.0
H788 H 0.12117 0.38898 0.54452 0.0
H789 H 0.1207 0.73548 0.55673 0.0
H790 H 0.20968 0.42847 0.54136 0.0
O791 O 0.98637 0.57364 0.5965 0.0
H792 H 0.85539 0.37142 0.58313 0.0
H793 H 0.90086 0.48627 0.63676 0.0
H794 H 0.80811 0.46436 0.63083 0.0
H795 H 0.78478 0.4071 0.60374 0.0
H796 H 0.94764 0.39315 0.58983 0.0
H797 H 0.94303 0.34644 0.67451 0.0
H798 H 0.9618 0.41325 0.69904 0.0
O799 O 0.98542 0.52956 0.62394 0.0
C800 C 0.10593 0.51117 0.61949 0.0
C801 C 0.98939 0.46906 0.67866 0.0
C802 C 0.9593 0.38356 0.67044 0.0
N803 N 0.99027 0.44117 0.64598 0.0
C804 C 0.99916 0.47854 0.65942 0.0
C805 C 0.96949 0.39444 0.65133 0.0
C806 C 0.96962 0.4211 0.68418 0.0
C807 C 0.09055 0.45256 0.56109 0.0
N808 N 0.10033 0.49956 0.56923 0.0
C809 C 0.12948 0.42625 0.55094 0.0
C810 C 0.1791 0.44836 0.54919 0.0
C811 C 0.18922 0.49605 0.55774 0.0
C812 C 0.14926 0.52105 0.56782 0.0
C813 C 0.09607 0.65907 0.54825 0.0
C814 C 0.07959 0.64056 0.58655 0.0
C815 C 0.07781 0.61108 0.55463 0.0
N816 N 0.07 0.60222 0.57363 0.0
C817 C 0.09826 0.68873 0.5807 0.0
C818 C 0.10641 0.69812 0.56142 0.0
C819 C 0.97359 0.56886 0.61403 0.0
C820 C 0.86499 0.39678 0.59491 0.0
C821 C 0.89114 0.4613 0.62492 0.0
C822 C 0.83849 0.44906 0.62164 0.0
C823 C 0.82542 0.41678 0.60647 0.0
N824 N 0.92982 0.44152 0.61352 0.0
C825 C 0.91723 0.40941 0.59874 0.0
Co826 Co 0.47768 0.52965 0.93747 0.0
Co827 Co 0.52628 0.44616 0.90389 0.0
O828 O 0.50664 0.46226 0.93023 0.0
C829 C 0.56362 0.51386 0.96718 0.0
O830 O 0.59949 0.50424 0.95424 0.0
C831 C 0.48547 0.3433 0.91945 0.0
O832 O 0.44448 0.36383 0.92791 0.0
O833 O 0.45104 0.45882 0.89604 0.0
O834 O 0.43477 0.53141 0.91328 0.0
H835 H 0.53685 0.47433 0.83304 0.0
H836 H 0.46098 0.42896 0.95724 0.0
O837 O 0.51678 0.52563 0.96239 0.0
H838 H 0.29068 0.5178 0.96122 0.0
H839 H 0.41974 0.67027 0.98297 0.0
H840 H 0.45791 0.626 0.91612 0.0
H841 H 0.36397 0.55703 0.9437 0.0
H842 H 0.44512 0.58126 0.9741 0.0
O843 O 0.51528 0.37056 0.90899 0.0
H844 H 0.51212 0.49568 0.86594 0.0
H845 H 0.58454 0.35806 0.8858 0.0
H846 H 0.4343 0.71549 0.92448 0.0
H847 H 0.38878 0.38788 0.97475 0.0
H848 H 0.4139 0.73819 0.95804 0.0
H849 H 0.3026 0.43255 0.97699 0.0
O850 O 0.53763 0.5654 0.92459 0.0
H851 H 0.66975 0.38043 0.94663 0.0
H852 H 0.63005 0.48266 0.88921 0.0
H853 H 0.72186 0.47322 0.89961 0.0
H854 H 0.74228 0.42159 0.92847 0.0
H855 H 0.57837 0.39161 0.93595 0.0
H856 H 0.60912 0.33448 0.8531 0.0
H857 H 0.58551 0.39283 0.82637 0.0
O858 O 0.54152 0.51989 0.89772 0.0
C859 C 0.42305 0.49923 0.89993 0.0
C860 C 0.54711 0.44835 0.84452 0.0
C861 C 0.5875 0.36987 0.85578 0.0
N862 N 0.54551 0.42793 0.87786 0.0
C863 C 0.53312 0.46036 0.86323 0.0
C864 C 0.57289 0.38327 0.8743 0.0
C865 C 0.57437 0.40266 0.8408 0.0
C866 C 0.4243 0.44903 0.95832 0.0
N867 N 0.41808 0.49637 0.95 0.0
C868 C 0.38316 0.42537 0.96817 0.0
C869 C 0.33487 0.45038 0.9694 0.0
C870 C 0.32823 0.49824 0.96062 0.0
C871 C 0.37031 0.52054 0.95084 0.0
C872 C 0.42781 0.66079 0.96825 0.0
C873 C 0.44883 0.63525 0.93076 0.0
C874 C 0.44237 0.61044 0.96313 0.0
N875 N 0.45229 0.59811 0.94453 0.0
C876 C 0.43526 0.6861 0.9354 0.0
C877 C 0.42439 0.69884 0.95426 0.0
C878 C 0.55163 0.56045 0.90726 0.0
C879 C 0.66139 0.4028 0.93398 0.0
C880 C 0.63848 0.46026 0.90183 0.0
C881 C 0.69062 0.45497 0.90762 0.0
C882 C 0.70205 0.42599 0.92381 0.0
N883 N 0.59876 0.43734 0.91186 0.0
C884 C 0.60969 0.40902 0.92779 0.0
Co885 Co 0.04822 0.46729 0.43427 0.0
Co886 Co 1.00815 0.56006 0.40216 0.0
O887 O 0.02994 0.5392 0.4281 0.0
C888 C 0.99246 0.5094 0.46989 0.0
O889 O 0.98814 0.55508 0.46194 0.0
C890 C 0.05796 0.65601 0.41986 0.0
O891 O 0.07412 0.62984 0.43468 0.0
O892 O 0.07766 0.53475 0.39183 0.0
O893 O 0.08597 0.46107 0.40899 0.0
H894 H 0.97155 0.53645 0.33203 0.0
H895 H 0.08314 0.55633 0.45895 0.0
O896 O 0.01274 0.47155 0.46049 0.0
H897 H 0.24197 0.45242 0.44753 0.0
H898 H 0.10343 0.3141 0.47446 0.0
H899 H 0.03942 0.37161 0.41183 0.0
H900 H 0.15805 0.42772 0.4328 0.0
H901 H 0.09223 0.40676 0.46751 0.0
O902 O 0.03676 0.6318 0.40605 0.0
H903 H 0.99881 0.50894 0.36393 0.0
H904 H 0.96318 0.65749 0.38614 0.0
H905 H 0.04567 0.27926 0.41853 0.0
H906 H 0.16621 0.58316 0.47347 0.0
H907 H 0.08009 0.24899 0.44985 0.0
H908 H 0.24661 0.53076 0.46802 0.0
O909 O 0.98055 0.4431 0.42286 0.0
H910 H 0.88663 0.64977 0.44857 0.0
H911 H 0.89702 0.54295 0.39052 0.0
H912 H 0.81056 0.56807 0.40309 0.0
H913 H 0.80481 0.62212 0.43228 0.0
H914 H 0.972 0.62313 0.43577 0.0
H915 H 0.93615 0.68722 0.35446 0.0
H916 H 0.94027 0.62658 0.32702 0.0
O917 O 0.97791 0.49079 0.39654 0.0
C918 C 0.10012 0.49109 0.39535 0.0
C919 C 0.97069 0.56368 0.34376 0.0
C920 C 0.95091 0.64822 0.35633 0.0
N921 N 0.98631 0.58225 0.3768 0.0
C922 C 0.9868 0.54834 0.36188 0.0
C923 C 0.96728 0.63136 0.37423 0.0
C924 C 0.95303 0.61416 0.34096 0.0
C925 C 0.11742 0.53326 0.45636 0.0
N926 N 0.11476 0.48967 0.44535 0.0
C927 C 0.16468 0.54872 0.46468 0.0
C928 C 0.20975 0.51934 0.46162 0.0
C929 C 0.20714 0.47537 0.45017 0.0
C930 C 0.15928 0.46144 0.44193 0.0
C931 C 0.08893 0.3264 0.46072 0.0
C932 C 0.05318 0.35938 0.42565 0.0
C933 C 0.08217 0.37901 0.45678 0.0
N934 N 0.06419 0.39499 0.43945 0.0
C935 C 0.05763 0.3066 0.42927 0.0
C936 C 0.07605 0.28993 0.44688 0.0
C937 C 0.9639 0.45159 0.40607 0.0
C938 C 0.88858 0.62646 0.43577 0.0
C939 C 0.89517 0.56632 0.40327 0.0
C940 C 0.84592 0.58053 0.41029 0.0
C941 C 0.84271 0.61086 0.42666 0.0
N942 N 0.9402 0.58188 0.41223 0.0
C943 C 0.93713 0.61144 0.42834 0.0
C944 C 0.98743 0.22951 0.58228 0.0
C945 C 0.98005 0.19967 0.59905 0.0
C946 C 0.01816 0.26937 0.61819 0.0
C947 C 0.02994 0.29802 0.60149 0.0
N948 N 0.02519 0.30569 0.56723 0.0
N949 N 0.96085 0.20581 0.63244 0.0
C950 C 0.0145 0.27815 0.58336 0.0
C951 C 0.98709 0.22405 0.61689 0.0
N952 N 0.96342 0.21412 0.56583 0.0
N953 N 0.03843 0.28436 0.63533 0.0
H954 H 0.93384 0.17549 0.63145 0.0
H955 H 0.96094 0.22472 0.64556 0.0
H956 H 0.06354 0.31608 0.63678 0.0
H957 H 0.03484 0.26207 0.64762 0.0
H958 H 0.96431 0.23481 0.55316 0.0
H959 H 0.93605 0.1841 0.56556 0.0
H960 H 0.02104 0.29097 0.55353 0.0
H961 H 0.04112 0.34273 0.56733 0.0
C962 C 0.98508 0.74827 0.83083 0.0
C963 C 0.96524 0.75851 0.84944 0.0
C964 C 0.0457 0.72144 0.86309 0.0
C965 C 0.06944 0.71982 0.84483 0.0
N966 N 0.05273 0.70731 0.81146 0.0
N967 N 0.98062 0.7616 0.8833 0.0
C968 C 0.03674 0.72685 0.8286 0.0
C969 C 0.99673 0.7469 0.86554 0.0
N970 N 0.95445 0.75824 0.81529 0.0
N971 N 0.06708 0.69403 0.87776 0.0
H972 H 0.94579 0.78186 0.88572 0.0
H973 H 1.0045 0.75854 0.89528 0.0
H974 H 0.0983 0.66841 0.87577 0.0
H975 H 0.04909 0.69048 0.89102 0.0
H976 H 0.96833 0.75814 0.80137 0.0
H977 H 0.91521 0.76922 0.81621 0.0
H978 H 0.03039 0.70806 0.79909 0.0
H979 H 0.08565 0.68354 0.81016 0.0
C980 C 0.52709 0.75145 0.11718 0.0
C981 C 0.51327 0.72266 0.10067 0.0
C982 C 0.54558 0.79461 0.08072 0.0
C983 C 0.55358 0.82552 0.09731 0.0
N984 N 0.57907 0.82146 0.13024 0.0
N985 N 0.50794 0.71712 0.06648 0.0
C986 C 0.55205 0.80061 0.1153 0.0
C987 C 0.52198 0.74442 0.08236 0.0
N988 N 0.51443 0.73272 0.13478 0.0
N989 N 0.56612 0.81057 0.06374 0.0
H990 H 0.49381 0.67924 0.06695 0.0
H991 H 0.50686 0.7331 0.0529 0.0
H992 H 0.59173 0.84195 0.06274 0.0
H993 H 0.56494 0.78876 0.05129 0.0
H994 H 0.51839 0.75438 0.14721 0.0
H995 H 0.49506 0.69751 0.13678 0.0
H996 H 0.5832 0.80306 0.14333 0.0
H997 H 0.60379 0.85339 0.12864 0.0
C998 C 0.52823 0.26549 0.34304 0.0
C999 C 0.55047 0.23263 0.35721 0.0
C1000 C 0.47489 0.25072 0.37803 0.0
C1001 C 0.45028 0.27929 0.36327 0.0
N1002 N 0.46672 0.33469 0.33635 0.0
N1003 N 0.54019 0.18692 0.38681 0.0
C1004 C 0.48035 0.29237 0.34692 0.0
C1005 C 0.5223 0.22338 0.37431 0.0
N1006 N 0.55237 0.27135 0.3258 0.0
N1007 N 0.45577 0.25414 0.39615 0.0
H1008 H 0.57394 0.16502 0.38427 0.0
H1009 H 0.51873 0.17455 0.39858 0.0
H1010 H 0.42578 0.27987 0.39979 0.0
H1011 H 0.4743 0.23782 0.4079 0.0
H1012 H 0.53443 0.28913 0.31421 0.0
H1013 H 0.58831 0.25488 0.3223 0.0
H1014 H 0.48919 0.34898 0.32515 0.0
H1015 H 0.43799 0.36086 0.34073 0.0
C1016 C 0.98724 0.77656 0.40649 0.0
C1017 C 0.97986 0.80164 0.42421 0.0
C1018 C 0.038 0.73727 0.43914 0.0
C1019 C 0.04541 0.71285 0.42122 0.0
N1020 N 0.04607 0.72514 0.38731 0.0
N1021 N 0.98129 0.79141 0.45837 0.0
C1022 C 0.0258 0.7375 0.40471 0.0
C1023 C 1.00051 0.77808 0.4409 0.0
N1024 N 0.95512 0.78814 0.39156 0.0
N1025 N 0.06947 0.72448 0.45411 0.0
H1026 H 0.94821 0.81472 0.46003 0.0
H1027 H 0.99237 0.77284 0.47089 0.0
H1028 H 0.10202 0.70036 0.45255 0.0
H1029 H 0.06859 0.74395 0.4671 0.0
H1030 H 0.95616 0.76797 0.3787 0.0
H1031 H 0.9237 0.81389 0.39295 0.0
H1032 H 0.03601 0.74492 0.37491 0.0
H1033 H 0.07724 0.69915 0.38581 0.0
C1034 C 0.48954 0.74086 0.64977 0.0
C1035 C 0.45898 0.73728 0.66667 0.0
C1036 C 0.52933 0.78339 0.68406 0.0
C1037 C 0.56195 0.78075 0.6677 0.0
N1038 N 0.56008 0.78547 0.63355 0.0
N1039 N 0.45004 0.75634 0.70027 0.0
C1040 C 0.5384 0.76768 0.65005 0.0
C1041 C 0.47899 0.75883 0.68393 0.0
N1042 N 0.47305 0.71664 0.63354 0.0
N1043 N 0.54385 0.81462 0.69887 0.0
H1044 H 0.41114 0.74436 0.70069 0.0
H1045 H 0.46547 0.76382 0.7137 0.0
H1046 H 0.576 0.83954 0.69801 0.0
H1047 H 0.52044 0.82202 0.71071 0.0
H1048 H 0.49636 0.71347 0.6214 0.0
H1049 H 0.43845 0.69509 0.63283 0.0
H1050 H 0.54238 0.78105 0.62029 0.0
H1051 H 0.59186 0.81098 0.63349 0.0
C1052 C 0.51693 0.27105 0.94115 0.0
C1053 C 0.50202 0.28841 0.92267 0.0
C1054 C 0.54323 0.21115 0.90872 0.0
C1055 C 0.55038 0.1897 0.9271 0.0
N1056 N 0.56805 0.21001 0.95988 0.0
N1057 N 0.49477 0.27104 0.88904 0.0
C1058 C 0.54367 0.22251 0.9432 0.0
C1059 C 0.51367 0.25735 0.90652 0.0
N1060 N 0.50603 0.30099 0.95672 0.0
N1061 N 0.56853 0.18964 0.89349 0.0
H1062 H 0.47146 0.30376 0.88689 0.0
H1063 H 0.49758 0.24709 0.87713 0.0
H1064 H 0.59558 0.15956 0.89504 0.0
H1065 H 0.56843 0.20603 0.87995 0.0
H1066 H 0.50961 0.2881 0.97067 0.0
H1067 H 0.49034 0.33811 0.95585 0.0
H1068 H 0.56779 0.23319 0.972 0.0
H1069 H 0.59528 0.17997 0.96079 0.0
C1070 C 0.05019 0.30575 0.15691 0.0
C1071 C 0.08256 0.29984 0.17323 0.0
C1072 C 1.00985 0.25255 0.18904 0.0
C1073 C 0.97614 0.26354 0.1734 0.0
N1074 N 0.97671 0.27161 0.13921 0.0
N1075 N 0.09358 0.26514 0.20492 0.0
C1076 C 0.99966 0.28201 0.15634 0.0
C1077 C 0.0624 0.27265 0.18935 0.0
N1078 N 0.06683 0.3357 0.14207 0.0
N1079 N 0.99389 0.21742 0.20239 0.0
H1080 H 0.1337 0.2726 0.20503 0.0
H1081 H 0.07943 0.25326 0.2181 0.0
H1082 H 0.95996 0.19528 0.20075 0.0
H1083 H 0.01712 0.20435 0.21355 0.0
H1084 H 0.04258 0.34569 0.13072 0.0
H1085 H 0.10282 0.35499 0.14204 0.0
H1086 H 0.99412 0.28066 0.12622 0.0
H1087 H 0.9449 0.24646 0.13789 0.0
C1088 C 0.12648 0.03858 0.50116 0.0
C1089 C 0.09803 0.00503 0.48887 0.0
C1090 C 0.05048 0.9706 0.51594 0.0
C1091 C 0.0807 1.00088 0.52882 0.0
N1092 N 0.15888 0.05276 0.53323 0.0
N1093 N 0.05158 0.92432 0.48613 0.0
C1094 C 0.12259 0.03136 0.52131 0.0
C1095 C 0.06733 0.96535 0.49694 0.0
N1096 N 0.15488 0.07867 0.49383 0.0
N1097 N 1.00191 0.95305 0.52074 0.0
H1098 H 0.06394 0.91978 0.47205 0.0
H1099 H 0.03071 0.89317 0.49184 0.0
H1100 H 0.98301 0.96543 0.53301 0.0
H1101 H 0.97757 0.93366 0.51115 0.0
H1102 H 0.17133 0.10764 0.50228 0.0
H1103 H 0.15935 0.08456 0.47926 0.0
H1104 H 0.19219 0.07206 0.52834 0.0
H1105 H 0.15873 0.04615 0.54787 0.0
C1106 C 0.31537 0.78571 0.76542 0.0
C1107 C 0.28455 0.81336 0.77896 0.0
C1108 C 0.24314 0.85976 0.75221 0.0
C1109 C 0.2766 0.83331 0.73934 0.0
N1110 N 0.35934 0.79073 0.73509 0.0
N1111 N 0.22898 0.88765 0.78488 0.0
C1112 C 0.31845 0.80399 0.74658 0.0
C1113 C 0.25171 0.85427 0.77224 0.0
N1114 N 0.33504 0.73794 0.76937 0.0
N1115 N 0.20215 0.88813 0.74537 0.0
H1116 H 0.23615 0.88576 0.79947 0.0
H1117 H 0.20766 0.92014 0.78068 0.0
H1118 H 0.19647 0.89391 0.73082 0.0
H1119 H 0.17292 0.90362 0.75406 0.0
H1120 H 0.35436 0.71532 0.75923 0.0
H1121 H 0.32512 0.71814 0.78167 0.0
H1122 H 0.39207 0.77068 0.74013 0.0
H1123 H 0.36196 0.80455 0.72116 0.0
C1124 C 0.40742 0.05389 0.02444 0.0
C1125 C 0.42695 0.01827 0.03802 0.0
C1126 C 0.46669 0.96804 0.01261 0.0
C1127 C 0.44567 1.00169 0.99848 0.0
N1128 N 0.37816 0.06543 0.99191 0.0
N1129 N 0.45399 0.93024 0.04369 0.0
C1130 C 0.41016 0.04117 1.00465 0.0
C1131 C 0.44779 0.9708 0.03152 0.0
N1132 N 0.3872 0.10009 0.03038 0.0
N1133 N 0.51042 0.93958 1.00905 0.0
H1134 H 0.44013 0.93149 0.05762 0.0
H1135 H 0.46728 0.89399 0.03919 0.0
H1136 H 0.53652 0.95173 0.99865 0.0
H1137 H 0.52632 0.91342 0.01873 0.0
H1138 H 0.37753 0.12989 0.02101 0.0
H1139 H 0.3826 0.109 0.04478 0.0
H1140 H 0.34968 0.09225 0.996 0.0
H1141 H 0.37533 0.05374 0.97774 0.0
C1142 C 0.23953 0.14493 0.24608 0.0
C1143 C 0.26919 0.19022 0.24143 0.0
C1144 C 0.3018 0.19 0.27394 0.0
C1145 C 0.25974 0.15898 0.28007 0.0
N1146 N 0.19454 0.09605 0.27091 0.0
N1147 N 0.31113 0.26561 0.25519 0.0
C1148 C 0.23024 0.1328 0.26578 0.0
C1149 C 0.29696 0.21504 0.25636 0.0
N1150 N 0.22214 0.1128 0.232 0.0
N1151 N 0.34455 0.19801 0.28512 0.0
H1152 H 0.2949 0.28954 0.24488 0.0
H1153 H 0.32987 0.28487 0.26635 0.0
H1154 H 0.35006 0.17721 0.2977 0.0
H1155 H 0.37611 0.22073 0.28058 0.0
H1156 H 0.20345 0.07764 0.23465 0.0
H1157 H 0.23168 0.1184 0.21773 0.0
H1158 H 0.16723 0.08039 0.26149 0.0
H1159 H 0.19269 0.08149 0.28473 0.0
C1160 C 0.72336 0.29037 0.25825 0.0
C1161 C 0.7493 0.32503 0.2457 0.0
C1162 C 0.77916 0.37383 0.274 0.0
C1163 C 0.7487 0.3409 0.28587 0.0
N1164 N 0.67304 0.28549 0.28718 0.0
N1165 N 0.79032 0.40912 0.2422 0.0
C1166 C 0.71388 0.30577 0.27717 0.0
C1167 C 0.77349 0.36999 0.25373 0.0
N1168 N 0.71449 0.24014 0.25334 0.0
N1169 N 0.81496 0.40684 0.28182 0.0
H1170 H 0.78433 0.40881 0.22752 0.0
H1171 H 0.80474 0.44411 0.24746 0.0
H1172 H 0.81951 0.41114 0.29647 0.0
H1173 H 0.84208 0.42745 0.2737 0.0
H1174 H 0.69851 0.21334 0.26283 0.0
H1175 H 0.73025 0.22391 0.24106 0.0
H1176 H 0.64566 0.26058 0.28096 0.0
H1177 H 0.66429 0.29827 0.30094 0.0
C1178 C 0.78089 0.72048 0.75728 0.0
C1179 C 0.74662 0.69216 0.7449 0.0
C1180 C 0.70156 0.65843 0.77349 0.0
C1181 C 0.73847 0.68404 0.78525 0.0
N1182 N 0.82589 0.71817 0.78746 0.0
N1183 N 0.68576 0.62015 0.74251 0.0
C1184 C 0.78251 0.70761 0.77681 0.0
C1185 C 0.71028 0.65674 0.75337 0.0
N1186 N 0.80816 0.76302 0.75131 0.0
N1187 N 0.65785 0.63668 0.78137 0.0
H1188 H 0.69462 0.61435 0.72818 0.0
H1189 H 0.66184 0.59142 0.74828 0.0
H1190 H 0.6514 0.63608 0.79603 0.0
H1191 H 0.62688 0.62231 0.77324 0.0
H1192 H 0.83047 0.78565 0.76059 0.0
H1193 H 0.80266 0.78076 0.73824 0.0
H1194 H 0.86056 0.73247 0.78154 0.0
H1195 H 0.82863 0.70683 0.80168 0.0
C1196 C 0.53851 0.46923 0.99695 0.0
C1197 C 0.57338 0.50322 0.98777 0.0
C1198 C 0.60627 0.52782 0.01939 0.0
C1199 C 0.56147 0.50399 0.02802 0.0
N1200 N 0.47429 0.47075 0.02153 0.0
N1201 N 0.64129 0.56768 0.99064 0.0
C1202 C 0.52474 0.47894 0.01597 0.0
C1203 C 0.60809 0.5332 0.99907 0.0
N1204 N 0.51835 0.4278 0.98751 0.0
N1205 N 0.64717 0.54426 0.03036 0.0
H1206 H 0.64398 0.57144 0.9759 0.0
H1207 H 0.66356 0.59432 0.99833 0.0
H1208 H 0.64851 0.53816 0.04502 0.0
H1209 H 0.68202 0.55857 0.02463 0.0
H1210 H 0.49336 0.40119 0.99409 0.0
H1211 H 0.53279 0.41729 0.97414 0.0
H1212 H 0.44624 0.45488 0.01239 0.0
H1213 H 0.45915 0.48692 0.03395 0.0
C1214 C 0.93388 0.53277 0.51992 0.0
C1215 C 0.96137 0.49517 0.53075 0.0
C1216 C 0.01093 0.47122 0.50252 0.0
C1217 C 0.97977 0.5037 0.49079 0.0
N1218 N 0.9009 0.5559 0.48866 0.0
N1219 N 1.00853 0.41407 0.52945 0.0
C1220 C 0.93786 0.53183 0.49956 0.0
C1221 C 0.99362 0.45924 0.52107 0.0
N1222 N 0.90414 0.5692 0.52898 0.0
N1223 N 0.06012 0.4569 0.49712 0.0
H1224 H 0.99281 0.40192 0.54239 0.0
H1225 H 0.03085 0.38628 0.52228 0.0
H1226 H 0.07874 0.47425 0.4856 0.0
H1227 H 0.08488 0.43536 0.5059 0.0
H1228 H 0.88757 0.60075 0.52195 0.0
H1229 H 0.89866 0.56908 0.5437 0.0
H1230 H 0.86773 0.57366 0.49441 0.0
H1231 H 0.9001 0.55285 0.47388 0.0
C1232 C 0.12979 0.81934 0.63636 0.0
C1233 C 0.15329 0.83647 0.65355 0.0
C1234 C 0.14759 0.92569 0.642 0.0
C1235 C 0.12203 0.90862 0.62523 0.0
N1236 N 0.12012 0.83758 0.60302 0.0
N1237 N 0.17479 0.90775 0.67433 0.0
C1238 C 0.12117 0.8549 0.62133 0.0
C1239 C 0.15868 0.89029 0.65696 0.0
N1240 N 0.11606 0.76852 0.63437 0.0
N1241 N 0.16882 0.97398 0.64212 0.0
H1242 H 0.18149 0.88303 0.68574 0.0
H1243 H 0.17552 0.94687 0.678 0.0
H1244 H 0.17149 0.99454 0.62942 0.0
H1245 H 0.19146 0.98887 0.65318 0.0
H1246 H 0.09447 0.75488 0.62281 0.0
H1247 H 0.12141 0.74175 0.64532 0.0
H1248 H 0.12569 0.79882 0.59953 0.0
H1249 H 0.12281 0.86218 0.59134 0.0
C1250 C 0.37299 0.81417 0.89917 0.0
C1251 C 0.37414 0.8198 0.87889 0.0
C1252 C 0.44606 0.88065 0.88348 0.0
C1253 C 0.4352 0.88542 0.90328 0.0
N1254 N 0.37499 0.86188 0.92871 0.0
N1255 N 0.40325 0.8766 0.85319 0.0
C1256 C 0.39445 0.854 0.91086 0.0
C1257 C 0.40793 0.85858 0.87135 0.0
N1258 N 0.35544 0.76972 0.90744 0.0
N1259 N 0.49365 0.89442 0.87626 0.0
H1260 H 0.37125 0.86857 0.84449 0.0
H1261 H 0.42697 0.90641 0.84802 0.0
H1262 H 0.5262 0.89957 0.88504 0.0
H1263 H 0.50206 0.8933 0.86176 0.0
H1264 H 0.35406 0.76477 0.92215 0.0
H1265 H 0.35214 0.73531 0.89979 0.0
H1266 H 0.34289 0.84111 0.93389 0.0
H1267 H 0.38589 0.89291 0.93731 0.0
C1268 C 0.40001 0.11828 0.132 0.0
C1269 C 0.45063 0.13361 0.12589 0.0
C1270 C 0.4363 0.21798 0.14117 0.0
C1271 C 0.38949 0.19908 0.14973 0.0
N1272 N 0.33621 0.12453 0.1573 0.0
N1273 N 0.52264 0.19335 0.1299 0.0
C1274 C 0.3744 0.14701 0.14649 0.0
C1275 C 0.47065 0.18224 0.13196 0.0
N1276 N 0.37493 0.07814 0.12326 0.0
N1277 N 0.44762 0.26964 0.14141 0.0
H1278 H 0.54941 0.16562 0.12517 0.0
H1279 H 0.53965 0.22713 0.13524 0.0
H1280 H 0.42186 0.29714 0.14702 0.0
H1281 H 0.47976 0.28528 0.13423 0.0
H1282 H 0.33619 0.06813 0.12638 0.0
H1283 H 0.391 0.05895 0.11154 0.0
H1284 H 0.32717 0.08519 0.15629 0.0
H1285 H 0.31707 0.14417 0.16829 0.0
C1286 C 0.14515 0.06918 0.38469 0.0
C1287 C 0.10972 0.08926 0.39843 0.0
C1288 C 0.11612 0.17434 0.38355 0.0
C1289 C 0.15061 0.15471 0.3695 0.0
N1290 N 0.19379 0.08133 0.35521 0.0
N1291 N 0.08945 0.16645 0.41613 0.0
C1292 C 0.16347 0.10122 0.3695 0.0
C1293 C 0.10226 0.14335 0.39936 0.0
N1294 N 0.16689 0.02185 0.38797 0.0
N1295 N 0.09662 0.22324 0.38178 0.0
H1296 H 0.08808 0.14651 0.42896 0.0
H1297 H 0.09079 0.20638 0.41783 0.0
H1298 H 0.10549 0.24629 0.37007 0.0
H1299 H 0.0672 0.23761 0.39064 0.0
H1300 H 0.19579 0.00495 0.37952 0.0
H1301 H 0.16085 1.00321 0.40094 0.0
H1302 H 0.20109 0.04192 0.35348 0.0
H1303 H 0.20823 0.10394 0.34412 0.0
C1304 C 0.83786 0.05118 0.39327 0.0
C1305 C 0.89241 0.06289 0.39362 0.0
C1306 C 0.8734 0.15087 0.38337 0.0
C1307 C 0.81943 0.13843 0.38056 0.0
N1308 N 0.75232 0.07229 0.38 0.0
N1309 N 0.96225 0.11937 0.38339 0.0
C1310 C 0.80199 0.08724 0.38475 0.0
C1311 C 0.91004 0.11118 0.38677 0.0
N1312 N 0.82013 0.00667 0.40153 0.0
N1313 N 0.88989 0.20114 0.38364 0.0
H1314 H 0.99049 0.09071 0.38538 0.0
H1315 H 0.9765 0.1526 0.37671 0.0
H1316 H 0.92763 0.21215 0.38774 0.0
H1317 H 0.8646 0.23205 0.38167 0.0
H1318 H 0.78042 0.99869 0.40353 0.0
H1319 H 0.84543 0.97935 0.40748 0.0
H1320 H 0.73937 0.0341 0.38102 0.0
H1321 H 0.7254 0.09721 0.37364 0.0
C1322 C 0.68322 0.06063 0.13931 0.0
C1323 C 0.67201 0.07284 0.12011 0.0
C1324 C 0.74157 0.13961 0.122 0.0
C1325 C 0.73615 0.14043 0.14215 0.0
N1326 N 0.7086 0.0953 0.17 0.0
N1327 N 0.70787 0.1092 0.0917 0.0
C1328 C 0.70905 0.09841 0.15075 0.0
C1329 C 0.70611 0.10865 0.11099 0.0
N1330 N 0.6743 0.01186 0.14609 0.0
N1331 N 0.78298 0.1639 0.11353 0.0
H1332 H 0.6942 0.07729 0.08415 0.0
H1333 H 0.72493 0.13867 0.08369 0.0
H1334 H 0.81443 0.17862 0.12126 0.0
H1335 H 0.79014 0.16327 0.09896 0.0
H1336 H 0.68593 0.99968 0.15956 0.0
H1337 H 0.6637 0.98112 0.13728 0.0
H1338 H 0.68664 0.06825 0.17764 0.0
H1339 H 0.68664 0.06825 0.17764 0.0
C1340 C 0.72734 0.9182 0.88183 0.0
C1341 C 0.73529 0.86675 0.88845 0.0
C1342 C 0.65812 0.87454 0.90784 0.0
C1343 C 0.65018 0.92776 0.90311 0.0
N1344 N 0.69159 1.00357 0.88878 0.0
N1345 N 0.7271 0.81586 0.91664 0.0
C1346 C 0.68911 0.95113 0.89104 0.0
C1347 C 0.70731 0.85176 0.90458 0.0
N1348 N 0.75717 0.9357 0.86711 0.0
N1349 N 0.61763 0.84346 0.91314 0.0
H1350 H 0.7662 0.80435 0.91542 0.0
H1351 H 0.70709 0.80464 0.92894 0.0
H1352 H 0.57904 0.85315 0.90978 0.0
H1353 H 0.62316 0.80523 0.9174 0.0
H1354 H 0.75016 0.97071 0.8602 0.0
H1355 H 0.78789 0.91347 0.86156 0.0
H1356 H 0.72147 0.02175 0.88118 0.0
H1357 H 0.66804 0.02956 0.89618 0.0
C1358 C 0.81744 0.91535 0.64168 0.0
C1359 C 0.83297 0.8629 0.6444 0.0
C1360 C 0.92348 0.88707 0.63741 0.0
C1361 C 0.90766 0.93711 0.63163 0.0
N1362 N 0.8367 0.9971 0.6259 0.0
N1363 N 0.89827 0.79767 0.6377 0.0
C1364 C 0.85371 0.95108 0.63315 0.0
C1365 C 0.88526 0.84848 0.64008 0.0
N1366 N 0.76915 0.93146 0.64766 0.0
N1367 N 0.97524 0.87624 0.64049 0.0
H1368 H 0.87031 0.7683 0.63821 0.0
H1369 H 0.93512 0.78602 0.63279 0.0
H1370 H 1.00441 0.90447 0.63945 0.0
H1371 H 0.98795 0.84084 0.64598 0.0
H1372 H 0.75785 0.97027 0.64774 0.0
H1373 H 0.74191 0.90635 0.6538 0.0
H1374 H 0.79709 0.00679 0.62488 0.0
H1375 H 0.86207 0.02403 0.61977 0.0
C1376 C 0.6129 0.37569 0.15672 0.0
C1377 C 0.6486 0.33955 0.14863 0.0
C1378 C 0.61984 0.36566 0.11673 0.0
C1379 C 0.58346 0.40112 0.12488 0.0
N1380 N 0.52797 0.41505 0.15229 0.0
N1381 N 0.66155 0.28274 0.12168 0.0
C1382 C 0.57429 0.39819 0.1448 0.0
C1383 C 0.64444 0.32891 0.12882 0.0
N1384 N 0.61663 0.39124 0.17524 0.0
N1385 N 0.63335 0.36768 0.09796 0.0
H1386 H 0.67436 0.25285 0.13053 0.0
H1387 H 0.65646 0.27216 0.10747 0.0
H1388 H 0.61902 0.39512 0.08849 0.0
H1389 H 0.6631 0.34454 0.09227 0.0
H1390 H 0.593 0.42062 0.18081 0.0
H1391 H 0.64631 0.3795 0.18441 0.0
H1392 H 0.51848 0.40988 0.16659 0.0
H1393 H 0.49716 0.42785 0.14371 0.0
C1394 C 0.85631 0.35241 0.39711 0.0
C1395 C 0.85563 0.34869 0.37662 0.0
C1396 C 0.93546 0.40157 0.377 0.0
C1397 C 0.92794 0.41424 0.39648 0.0
N1398 N 0.8692 0.41113 0.42344 0.0
N1399 N 0.88965 0.38864 0.34758 0.0
C1400 C 0.88432 0.39313 0.406 0.0
C1401 C 0.8937 0.37873 0.36659 0.0
N1402 N 0.83542 0.31504 0.40848 0.0
N1403 N 0.98283 0.40943 0.3685 0.0
H1404 H 0.85629 0.38085 0.33959 0.0
H1405 H 0.91624 0.4126 0.3405 0.0
H1406 H 0.01571 0.42134 0.37616 0.0
H1407 H 0.9903 0.39796 0.35452 0.0
H1408 H 0.83723 0.31674 0.4233 0.0
H1409 H 0.82694 0.27831 0.40353 0.0
H1410 H 0.83482 0.39847 0.43005 0.0
H1411 H 0.88736 0.44236 0.43018 0.0
C1412 C 0.96022 0.64094 0.63786 0.0
C1413 C 0.93909 0.60699 0.62383 0.0
C1414 C 0.85346 0.61451 0.63911 0.0
C1415 C 0.87142 0.65525 0.65084 0.0
N1416 N 0.9437 0.70948 0.66077 0.0
N1417 N 0.86241 0.57022 0.60902 0.0
C1418 C 0.92549 0.66919 0.65009 0.0
C1419 C 0.88453 0.59727 0.62364 0.0
N1420 N 0.01335 0.64491 0.63993 0.0
N1421 N 0.80887 0.58872 0.64395 0.0
H1422 H 0.88428 0.55678 0.59745 0.0
H1423 H 0.82191 0.56533 0.60774 0.0
H1424 H 0.78987 0.59616 0.65684 0.0
H1425 H 0.79538 0.55625 0.6366 0.0
H1426 H 0.03111 0.66532 0.65096 0.0
H1427 H 0.03971 0.62471 0.63134 0.0
H1428 H 0.98119 0.72511 0.65931 0.0
H1429 H 0.91985 0.72986 0.67012 0.0
C1430 C 0.6092 0.63583 0.86586 0.0
C1431 C 0.64584 0.66908 0.87501 0.0
C1432 C 0.61881 0.63374 0.9059 0.0
C1433 C 0.57995 0.60293 0.89699 0.0
N1434 N 0.5242 0.59512 0.86931 0.0
N1435 N 0.66146 0.7164 0.90401 0.0
C1436 C 0.57066 0.61032 0.87717 0.0
C1437 C 0.64328 0.67322 0.89515 0.0
N1438 N 0.61164 0.62647 0.84677 0.0
N1439 N 0.63469 0.62476 0.92414 0.0
H1440 H 0.67351 0.74867 0.89625 0.0
H1441 H 0.65822 0.72188 0.91868 0.0
H1442 H 0.62122 0.59404 0.93237 0.0
H1443 H 0.66604 0.64477 0.93026 0.0
H1444 H 0.58785 0.59899 0.84012 0.0
H1445 H 0.64033 0.6419 0.83791 0.0
H1446 H 0.51469 0.60176 0.85511 0.0
H1447 H 0.49303 0.58162 0.87759 0.0
C1448 C 0.38741 0.52537 0.86811 0.0
C1449 C 0.37804 0.51505 0.88735 0.0
C1450 C 0.29891 0.57016 0.88519 0.0
C1451 C 0.32047 0.59471 0.86866 0.0
N1452 N 0.38623 0.59157 0.84411 0.0
N1453 N 0.315 0.51374 0.91242 0.0
C1454 C 0.36483 0.57034 0.85994 0.0
C1455 C 0.3306 0.53355 0.8954 0.0
N1456 N 0.41442 0.49051 0.85736 0.0
N1457 N 0.24817 0.579 0.89059 0.0
H1458 H 0.3339 0.48152 0.91823 0.0
H1459 H 0.28447 0.52888 0.92056 0.0
H1460 H 0.22108 0.5982 0.88212 0.0
H1461 H 0.23034 0.56105 0.90215 0.0
H1462 H 0.41871 0.494 0.84266 0.0
H1463 H 0.42539 0.45457 0.86283 0.0
H1464 H 0.42118 0.57885 0.8379 0.0
H1465 H 0.42118 0.57885 0.8379 0.0
C1466 C 0.14049 0.54586 0.65013 0.0
C1467 C 0.15097 0.5304 0.63147 0.0
C1468 C 0.22963 0.5863 0.63307 0.0
C1469 C 0.20655 0.61502 0.64853 0.0
N1470 N 0.12439 0.6244 0.66638 0.0
N1471 N 0.21374 0.5284 0.6062 0.0
C1472 C 0.15808 0.59501 0.65596 0.0
C1473 C 0.19799 0.54892 0.62309 0.0
N1474 N 0.11336 0.51473 0.66217 0.0
N1475 N 0.28152 0.59141 0.62855 0.0
H1476 H 0.19523 0.49572 0.60056 0.0
H1477 H 0.244 0.54397 0.59801 0.0
H1478 H 0.30843 0.61094 0.63701 0.0
H1479 H 0.29974 0.56947 0.61799 0.0
H1480 H 0.10629 0.52522 0.6763 0.0
H1481 H 0.10499 0.47638 0.65855 0.0
H1482 H 0.12374 0.66429 0.66474 0.0
H1483 H 0.08981 0.60935 0.67215 0.0
C1484 C 0.12535 0.44436 0.36577 0.0
C1485 C 0.14164 0.46985 0.38231 0.0
C1486 C 0.22376 0.41985 0.38004 0.0
C1487 C 0.19826 0.38252 0.36805 0.0
N1488 N 0.11466 0.35941 0.35323 0.0
N1489 N 0.21229 0.48812 0.40371 0.0
C1490 C 0.14644 0.39507 0.36161 0.0
C1491 C 0.19282 0.45929 0.38909 0.0
N1492 N 0.09066 0.46752 0.35388 0.0
N1493 N 0.27711 0.42012 0.38185 0.0
H1494 H 0.19163 0.51977 0.40921 0.0
H1495 H 0.24747 0.47951 0.41056 0.0
H1496 H 0.30166 0.39725 0.37347 0.0
H1497 H 0.29733 0.44824 0.38957 0.0
H1498 H 0.07875 0.45067 0.34108 0.0
H1499 H 0.08186 0.50667 0.35563 0.0
H1500 H 0.07697 0.36831 0.34849 0.0
H1501 H 0.12145 0.32007 0.35448 0.0
C1502 C 0.3991 0.49383 0.15337 0.0
C1503 C 0.38911 0.50064 0.13399 0.0
C1504 C 0.31036 0.4469 0.13854 0.0
C1505 C 0.33364 0.42307 0.15496 0.0
N1506 N 0.40863 0.42982 0.17728 0.0
N1507 N 0.32584 0.49358 0.10905 0.0
C1508 C 0.38004 0.44845 0.16242 0.0
C1509 C 0.34186 0.47972 0.12677 0.0
N1510 N 0.42538 0.53097 0.16328 0.0
N1511 N 0.25792 0.44222 0.13492 0.0
H1512 H 0.34436 0.52364 0.10173 0.0
H1513 H 0.29525 0.47515 0.10188 0.0
H1514 H 0.23126 0.42871 0.14498 0.0
H1515 H 0.23953 0.46027 0.12347 0.0
H1516 H 0.43037 0.52926 0.178 0.0
H1517 H 0.43552 0.56626 0.15706 0.0
H1518 H 0.44316 0.44758 0.18187 0.0
H1519 H 0.40338 0.39451 0.18368 0.0
loop_
_geom_bond_atom_site_label_1
_geom_bond_atom_site_label_2
_geom_bond_distance
_geom_bond_site_symmetry_2
_ccdc_geom_bond_type
Co0 O2 2.143 1_665 S
Co0 O8 2.074 . S
Co0 O11 2.093 1_655 S
Co0 O24 2.097 1_655 S
Co0 N41 2.151 . S
Co0 N49 2.214 . S
Co1 O2 2.160 . S
Co1 O7 2.058 1_455 S
Co1 O17 2.057 . S
Co1 O32 2.037 1_545 S
Co1 N36 2.145 . S
Co1 N57 2.257 . S
O2 Co0 2.143 1_445 S
O2 Co1 2.160 . S
C3 O4 1.278 . S
C3 O11 1.224 1_545 S
O4 C3 1.278 . S
C5 O6 1.245 . S
C5 O17 1.232 1_655 S
O6 C5 1.245 . S
O7 Co1 2.058 1_655 S
O7 C33 1.269 1_545 S
O8 Co0 2.074 . S
O8 C33 1.257 . S
H9 C34 0.930 . S
H10 C40 0.930 . S
O11 Co0 2.093 1_455 S
O11 C3 1.224 1_565 S
H12 C44 0.929 . S
H13 C46 0.930 . S
H14 C47 0.930 . S
H15 C45 0.929 . S
H16 C48 0.928 . S
O17 Co1 2.057 . S
O17 C5 1.232 1_455 S
H18 C37 0.929 1_565 S
H19 C38 0.929 . S
H20 C50 0.931 . S
H21 C42 0.929 . S
H22 C51 0.930 . S
H23 C43 0.931 . S
O24 Co0 2.097 1_455 S
O24 C52 1.214 . S
H25 C53 0.929 . S
H26 C54 0.929 . S
H27 C55 0.930 . S
H28 C56 0.929 . S
H29 C58 0.930 . S
H30 C35 0.930 . S
H31 C39 0.930 . S
O32 Co1 2.037 1_565 S
O32 C52 1.234 . S
C33 O7 1.269 1_565 S
C33 O8 1.257 . S
C34 H9 0.930 . S
C34 C37 1.388 . S
C34 C39 1.418 . S
C35 H30 0.930 . S
C35 C38 1.404 . S
C35 C39 1.353 . S
N36 Co1 2.145 . S
N36 C37 1.397 . S
N36 C38 1.334 . S
C37 H18 0.929 1_545 S
C37 C34 1.388 . S
C37 N36 1.397 . S
C38 H19 0.929 . S
C38 C35 1.404 . S
C38 N36 1.334 . S
C39 H31 0.930 . S
C39 C34 1.418 . S
C39 C35 1.353 . S
C40 H10 0.930 . S
C40 N41 1.330 1_545 S
C40 C42 1.446 . S
N41 Co0 2.151 . S
N41 C40 1.330 1_565 S
N41 C45 1.418 . S
C42 H21 0.929 . S
C42 C40 1.446 . S
C42 C43 1.332 1_545 S
C43 H23 0.931 . S
C43 C42 1.332 1_565 S
C43 C44 1.267 . S
C44 H12 0.929 . S
C44 C43 1.267 . S
C44 C45 1.251 . S
C45 H15 0.929 . S
C45 N41 1.418 . S
C45 C44 1.251 . S
C46 H13 0.930 . S
C46 C48 1.406 . S
C46 C51 1.261 . S
C47 H14 0.930 . S
C47 N49 1.325 . S
C47 C50 1.357 . S
C48 H16 0.928 . S
C48 C46 1.406 . S
C48 N49 1.261 . S
N49 Co0 2.214 . S
N49 C47 1.325 . S
N49 C48 1.261 . S
C50 H20 0.931 . S
C50 C47 1.357 . S
C50 C51 1.312 . S
C51 H22 0.930 . S
C51 C46 1.261 . S
C51 C50 1.312 . S
C52 O24 1.214 . S
C52 O32 1.234 . S
C53 H25 0.929 . S
C53 C56 1.391 . S
C53 C58 1.391 . S
C54 H26 0.929 . S
C54 C55 1.390 . S
C54 N57 1.391 . S
C55 H27 0.930 . S
C55 C54 1.390 . S
C55 C56 1.392 . S
C56 H28 0.929 . S
C56 C53 1.391 . S
C56 C55 1.392 . S
N57 Co1 2.257 . S
N57 C54 1.391 . S
N57 C58 1.388 . S
C58 H29 0.930 . S
C58 C53 1.391 . S
C58 N57 1.388 . S
Co59 O61 2.143 . S
Co59 O67 2.074 . S
Co59 O70 2.093 . S
Co59 O83 2.097 . S
Co59 N100 2.151 . S
Co59 N108 2.214 . S
Co60 O61 2.160 . S
Co60 O66 2.058 . S
Co60 O76 2.057 . S
Co60 O91 2.037 . S
Co60 N95 2.145 . S
Co60 N116 2.257 . S
O61 Co59 2.143 . S
O61 Co60 2.160 . S
C62 O63 1.278 . S
C62 O70 1.224 . S
O63 C62 1.278 . S
C64 O65 1.245 . S
C64 O76 1.232 . S
O65 C64 1.245 . S
O66 Co60 2.058 . S
O66 C92 1.269 . S
O67 Co59 2.074 . S
O67 C92 1.257 . S
H68 C93 0.930 . S
H69 C99 0.930 . S
O70 Co59 2.093 . S
O70 C62 1.224 . S
H71 C103 0.929 . S
H72 C105 0.930 . S
H73 C106 0.930 . S
H74 C104 0.929 . S
H75 C107 0.928 . S
O76 Co60 2.057 . S
O76 C64 1.232 . S
H77 C96 0.929 . S
H78 C97 0.929 . S
H79 C109 0.931 . S
H80 C101 0.929 . S
H81 C110 0.930 . S
H82 C102 0.931 . S
O83 Co59 2.097 . S
O83 C111 1.214 . S
H84 C112 0.929 . S
H85 C113 0.929 . S
H86 C114 0.930 . S
H87 C115 0.929 . S
H88 C117 0.930 . S
H89 C94 0.930 . S
H90 C98 0.930 . S
O91 Co60 2.037 . S
O91 C111 1.234 . S
C92 O66 1.269 . S
C92 O67 1.257 . S
C93 H68 0.930 . S
C93 C96 1.388 . S
C93 C98 1.418 . S
C94 H89 0.930 . S
C94 C97 1.404 . S
C94 C98 1.353 . S
N95 Co60 2.145 . S
N95 C96 1.397 . S
N95 C97 1.334 . S
C96 H77 0.929 . S
C96 C93 1.388 . S
C96 N95 1.397 . S
C97 H78 0.929 . S
C97 C94 1.404 . S
C97 N95 1.334 . S
C98 H90 0.930 . S
C98 C93 1.418 . S
C98 C94 1.353 . S
C99 H69 0.930 . S
C99 N100 1.330 . S
C99 C101 1.446 . S
N100 Co59 2.151 . S
N100 C99 1.330 . S
N100 C104 1.418 . S
C101 H80 0.929 . S
C101 C99 1.446 . S
C101 C102 1.332 . S
C102 H82 0.931 . S
C102 C101 1.332 . S
C102 C103 1.267 . S
C103 H71 0.929 . S
C103 C102 1.267 . S
C103 C104 1.251 . S
C104 H74 0.929 . S
C104 N100 1.418 . S
C104 C103 1.251 . S
C105 H72 0.930 . S
C105 C107 1.406 . S
C105 C110 1.261 . S
C106 H73 0.930 . S
C106 N108 1.325 . S
C106 C109 1.357 . S
C107 H75 0.928 . S
C107 C105 1.406 . S
C107 N108 1.261 . S
N108 Co59 2.214 . S
N108 C106 1.325 . S
N108 C107 1.261 . S
C109 H79 0.931 . S
C109 C106 1.357 . S
C109 C110 1.312 . S
C110 H81 0.930 . S
C110 C105 1.261 . S
C110 C109 1.312 . S
C111 O83 1.214 . S
C111 O91 1.234 . S
C112 H84 0.929 . S
C112 C115 1.391 . S
C112 C117 1.391 . S
C113 H85 0.929 . S
C113 C114 1.390 . S
C113 N116 1.391 . S
C114 H86 0.930 . S
C114 C113 1.390 . S
C114 C115 1.392 . S
C115 H87 0.929 . S
C115 C112 1.391 . S
C115 C114 1.392 . S
N116 Co60 2.257 . S
N116 C113 1.391 . S
N116 C117 1.388 . S
C117 H88 0.930 . S
C117 C112 1.391 . S
C117 N116 1.388 . S
Co118 O120 2.143 1_545 S
Co118 O126 2.074 . S
Co118 O129 2.093 . S
Co118 O142 2.097 . S
Co118 N159 2.151 . S
Co118 N167 2.214 . S
Co119 O120 2.160 . S
Co119 O125 2.058 . S
Co119 O135 2.057 . S
Co119 O150 2.037 1_565 S
Co119 N154 2.145 . S
Co119 N175 2.257 . S
O120 Co118 2.143 1_565 S
O120 Co119 2.160 . S
C121 O122 1.278 . S
C121 O129 1.224 1_565 S
O122 C121 1.278 . S
C123 O124 1.245 . S
C123 O135 1.232 . S
O124 C123 1.245 . S
O125 Co119 2.058 . S
O125 C151 1.269 1_565 S
O126 Co118 2.074 . S
O126 C151 1.257 . S
H127 C152 0.930 . S
H128 C158 0.930 . S
O129 Co118 2.093 . S
O129 C121 1.224 1_545 S
H130 C162 0.929 . S
H131 C164 0.930 . S
H132 C165 0.930 . S
H133 C163 0.929 . S
H134 C166 0.928 . S
O135 Co119 2.057 . S
O135 C123 1.232 . S
H136 C155 0.929 1_545 S
H137 C156 0.929 . S
H138 C168 0.931 . S
H139 C160 0.929 . S
H140 C169 0.930 . S
H141 C161 0.931 . S
O142 Co118 2.097 . S
O142 C170 1.214 . S
H143 C171 0.929 . S
H144 C172 0.929 . S
H145 C173 0.930 . S
H146 C174 0.929 . S
H147 C176 0.930 . S
H148 C153 0.930 . S
H149 C157 0.930 . S
O150 Co119 2.037 1_545 S
O150 C170 1.234 . S
C151 O125 1.269 1_545 S
C151 O126 1.257 . S
C152 H127 0.930 . S
C152 C155 1.388 . S
C152 C157 1.418 . S
C153 H148 0.930 . S
C153 C156 1.404 . S
C153 C157 1.353 . S
N154 Co119 2.145 . S
N154 C155 1.397 . S
N154 C156 1.334 . S
C155 H136 0.929 1_565 S
C155 C152 1.388 . S
C155 N154 1.397 . S
C156 H137 0.929 . S
C156 C153 1.404 . S
C156 N154 1.334 . S
C157 H149 0.930 . S
C157 C152 1.418 . S
C157 C153 1.353 . S
C158 H128 0.930 . S
C158 N159 1.330 1_565 S
C158 C160 1.446 . S
N159 Co118 2.151 . S
N159 C158 1.330 1_545 S
N159 C163 1.418 . S
C160 H139 0.929 . S
C160 C158 1.446 . S
C160 C161 1.332 1_565 S
C161 H141 0.931 . S
C161 C160 1.332 1_545 S
C161 C162 1.267 . S
C162 H130 0.929 . S
C162 C161 1.267 . S
C162 C163 1.251 . S
C163 H133 0.929 . S
C163 N159 1.418 . S
C163 C162 1.251 . S
C164 H131 0.930 . S
C164 C166 1.406 . S
C164 C169 1.261 . S
C165 H132 0.930 . S
C165 N167 1.325 . S
C165 C168 1.357 . S
C166 H134 0.928 . S
C166 C164 1.406 . S
C166 N167 1.261 . S
N167 Co118 2.214 . S
N167 C165 1.325 . S
N167 C166 1.261 . S
C168 H138 0.931 . S
C168 C165 1.357 . S
C168 C169 1.312 . S
C169 H140 0.930 . S
C169 C164 1.261 . S
C169 C168 1.312 . S
C170 O142 1.214 . S
C170 O150 1.234 . S
C171 H143 0.929 . S
C171 C174 1.391 . S
C171 C176 1.391 . S
C172 H144 0.929 . S
C172 C173 1.390 . S
C172 N175 1.391 . S
C173 H145 0.930 . S
C173 C172 1.390 . S
C173 C174 1.392 . S
C174 H146 0.929 . S
C174 C171 1.391 . S
C174 C173 1.392 . S
N175 Co119 2.257 . S
N175 C172 1.391 . S
N175 C176 1.388 . S
C176 H147 0.930 . S
C176 C171 1.391 . S
C176 N175 1.388 . S
Co177 O179 2.143 . S
Co177 O185 2.074 . S
Co177 O188 2.093 . S
Co177 O201 2.097 . S
Co177 N218 2.151 . S
Co177 N226 2.214 . S
Co178 O179 2.160 . S
Co178 O184 2.058 . S
Co178 O194 2.057 . S
Co178 O209 2.037 . S
Co178 N213 2.145 . S
Co178 N234 2.257 . S
O179 Co177 2.143 . S
O179 Co178 2.160 . S
C180 O181 1.278 . S
C180 O188 1.224 . S
O181 C180 1.278 . S
C182 O183 1.245 . S
C182 O194 1.232 . S
O183 C182 1.245 . S
O184 Co178 2.058 . S
O184 C210 1.269 . S
O185 Co177 2.074 . S
O185 C210 1.257 . S
H186 C211 0.930 . S
H187 C217 0.930 . S
O188 Co177 2.093 . S
O188 C180 1.224 . S
H189 C221 0.929 . S
H190 C223 0.930 . S
H191 C224 0.930 . S
H192 C222 0.929 . S
H193 C225 0.928 . S
O194 Co178 2.057 . S
O194 C182 1.232 . S
H195 C214 0.929 . S
H196 C215 0.929 . S
H197 C227 0.931 . S
H198 C219 0.929 . S
H199 C228 0.930 1_655 S
H200 C220 0.931 . S
O201 Co177 2.097 . S
O201 C229 1.214 . S
H202 C230 0.929 . S
H203 C231 0.929 . S
H204 C232 0.930 . S
H205 C233 0.929 . S
H206 C235 0.930 . S
H207 C212 0.930 . S
H208 C216 0.930 . S
O209 Co178 2.037 . S
O209 C229 1.234 . S
C210 O184 1.269 . S
C210 O185 1.257 . S
C211 H186 0.930 . S
C211 C214 1.388 . S
C211 C216 1.418 . S
C212 H207 0.930 . S
C212 C215 1.404 . S
C212 C216 1.353 . S
N213 Co178 2.145 . S
N213 C214 1.397 . S
N213 C215 1.334 . S
C214 H195 0.929 . S
C214 C211 1.388 . S
C214 N213 1.397 . S
C215 H196 0.929 . S
C215 C212 1.404 . S
C215 N213 1.334 . S
C216 H208 0.930 . S
C216 C211 1.418 . S
C216 C212 1.353 . S
C217 H187 0.930 . S
C217 N218 1.330 . S
C217 C219 1.446 . S
N218 Co177 2.151 . S
N218 C217 1.330 . S
N218 C222 1.418 . S
C219 H198 0.929 . S
C219 C217 1.446 . S
C219 C220 1.332 . S
C220 H200 0.931 . S
C220 C219 1.332 . S
C220 C221 1.267 . S
C221 H189 0.929 . S
C221 C220 1.267 . S
C221 C222 1.251 . S
C222 H192 0.929 . S
C222 N218 1.418 . S
C222 C221 1.251 . S
C223 H190 0.930 . S
C223 C225 1.406 . S
C223 C228 1.261 . S
C224 H191 0.930 . S
C224 N226 1.325 . S
C224 C227 1.357 . S
C225 H193 0.928 . S
C225 C223 1.406 . S
C225 N226 1.261 . S
N226 Co177 2.214 . S
N226 C224 1.325 . S
N226 C225 1.261 . S
C227 H197 0.931 . S
C227 C224 1.357 . S
C227 C228 1.312 . S
C228 H199 0.930 1_455 S
C228 C223 1.261 . S
C228 C227 1.312 . S
C229 O201 1.214 . S
C229 O209 1.234 . S
C230 H202 0.929 . S
C230 C233 1.391 . S
C230 C235 1.391 . S
C231 H203 0.929 . S
C231 C232 1.390 . S
C231 N234 1.391 . S
C232 H204 0.930 . S
C232 C231 1.390 . S
C232 C233 1.392 . S
C233 H205 0.929 . S
C233 C230 1.391 . S
C233 C232 1.392 . S
N234 Co178 2.257 . S
N234 C231 1.391 . S
N234 C235 1.388 . S
C235 H206 0.930 . S
C235 C230 1.391 . S
C235 N234 1.388 . S
Co236 O238 2.143 1_645 S
Co236 O244 2.074 . S
Co236 O247 2.093 1_655 S
Co236 O260 2.097 1_655 S
Co236 N277 2.151 . S
Co236 N285 2.214 . S
Co237 O238 2.160 . S
Co237 O243 2.058 1_455 S
Co237 O253 2.057 . S
Co237 O268 2.037 1_565 S
Co237 N272 2.145 . S
Co237 N293 2.257 . S
O238 Co236 2.143 1_465 S
O238 Co237 2.160 . S
C239 O240 1.278 . S
C239 O247 1.224 1_565 S
O240 C239 1.278 . S
C241 O242 1.245 . S
C241 O253 1.232 1_655 S
O242 C241 1.245 . S
O243 Co237 2.058 1_655 S
O243 C269 1.269 1_565 S
O244 Co236 2.074 . S
O244 C269 1.257 . S
H245 C270 0.930 . S
H246 C276 0.930 . S
O247 Co236 2.093 1_455 S
O247 C239 1.224 1_545 S
H248 C280 0.929 . S
H249 C282 0.930 . S
H250 C283 0.930 . S
H251 C281 0.929 . S
H252 C284 0.928 . S
O253 Co237 2.057 . S
O253 C241 1.232 1_455 S
H254 C273 0.929 1_545 S
H255 C274 0.929 . S
H256 C286 0.931 . S
H257 C278 0.929 . S
H258 C287 0.930 . S
H259 C279 0.931 . S
O260 Co236 2.097 1_455 S
O260 C288 1.214 . S
H261 C289 0.929 . S
H262 C290 0.929 . S
H263 C291 0.930 . S
H264 C292 0.929 . S
H265 C294 0.930 . S
H266 C271 0.930 . S
H267 C275 0.930 . S
O268 Co237 2.037 1_545 S
O268 C288 1.234 . S
C269 O243 1.269 1_545 S
C269 O244 1.257 . S
C270 H245 0.930 . S
C270 C273 1.388 . S
C270 C275 1.418 . S
C271 H266 0.930 . S
C271 C274 1.404 . S
C271 C275 1.353 . S
N272 Co237 2.145 . S
N272 C273 1.397 . S
N272 C274 1.334 . S
C273 H254 0.929 1_565 S
C273 C270 1.388 . S
C273 N272 1.397 . S
C274 H255 0.929 . S
C274 C271 1.404 . S
C274 N272 1.334 . S
C275 H267 0.930 . S
C275 C270 1.418 . S
C275 C271 1.353 . S
C276 H246 0.930 . S
C276 N277 1.330 1_565 S
C276 C278 1.446 . S
N277 Co236 2.151 . S
N277 C276 1.330 1_545 S
N277 C281 1.418 . S
C278 H257 0.929 . S
C278 C276 1.446 . S
C278 C279 1.332 1_565 S
C279 H259 0.931 . S
C279 C278 1.332 1_545 S
C279 C280 1.267 . S
C280 H248 0.929 . S
C280 C279 1.267 . S
C280 C281 1.251 . S
C281 H251 0.929 . S
C281 N277 1.418 . S
C281 C280 1.251 . S
C282 H249 0.930 . S
C282 C284 1.406 . S
C282 C287 1.261 . S
C283 H250 0.930 . S
C283 N285 1.325 . S
C283 C286 1.357 . S
C284 H252 0.928 . S
C284 C282 1.406 . S
C284 N285 1.261 . S
N285 Co236 2.214 . S
N285 C283 1.325 . S
N285 C284 1.261 . S
C286 H256 0.931 . S
C286 C283 1.357 . S
C286 C287 1.312 . S
C287 H258 0.930 . S
C287 C282 1.261 . S
C287 C286 1.312 . S
C288 O260 1.214 . S
C288 O268 1.234 . S
C289 H261 0.929 . S
C289 C292 1.391 . S
C289 C294 1.391 . S
C290 H262 0.929 . S
C290 C291 1.390 . S
C290 N293 1.391 . S
C291 H263 0.930 . S
C291 C290 1.390 . S
C291 C292 1.392 . S
C292 H264 0.929 . S
C292 C289 1.391 . S
C292 C291 1.392 . S
N293 Co237 2.257 . S
N293 C290 1.391 . S
N293 C294 1.388 . S
C294 H265 0.930 . S
C294 C289 1.391 . S
C294 N293 1.388 . S
Co295 O297 2.143 . S
Co295 O303 2.074 . S
Co295 O306 2.093 . S
Co295 O319 2.097 . S
Co295 N336 2.151 . S
Co295 N344 2.214 . S
Co296 O297 2.160 . S
Co296 O302 2.058 . S
Co296 O312 2.057 . S
Co296 O327 2.037 . S
Co296 N331 2.145 . S
Co296 N352 2.257 . S
O297 Co295 2.143 . S
O297 Co296 2.160 . S
C298 O299 1.278 . S
C298 O306 1.224 . S
O299 C298 1.278 . S
C300 O301 1.245 . S
C300 O312 1.232 . S
O301 C300 1.245 . S
O302 Co296 2.058 . S
O302 C328 1.269 . S
O303 Co295 2.074 . S
O303 C328 1.257 . S
H304 C329 0.930 . S
H305 C335 0.930 . S
O306 Co295 2.093 . S
O306 C298 1.224 . S
H307 C339 0.929 . S
H308 C341 0.930 . S
H309 C342 0.930 . S
H310 C340 0.929 . S
H311 C343 0.928 . S
O312 Co296 2.057 . S
O312 C300 1.232 . S
H313 C332 0.929 . S
H314 C333 0.929 . S
H315 C345 0.931 . S
H316 C337 0.929 . S
H317 C346 0.930 1_655 S
H318 C338 0.931 . S
O319 Co295 2.097 . S
O319 C347 1.214 . S
H320 C348 0.929 . S
H321 C349 0.929 . S
H322 C350 0.930 . S
H323 C351 0.929 . S
H324 C353 0.930 . S
H325 C330 0.930 . S
H326 C334 0.930 . S
O327 Co296 2.037 . S
O327 C347 1.234 . S
C328 O302 1.269 . S
C328 O303 1.257 . S
C329 H304 0.930 . S
C329 C332 1.388 . S
C329 C334 1.418 . S
C330 H325 0.930 . S
C330 C333 1.404 . S
C330 C334 1.353 . S
N331 Co296 2.145 . S
N331 C332 1.397 . S
N331 C333 1.334 . S
C332 H313 0.929 . S
C332 C329 1.388 . S
C332 N331 1.397 . S
C333 H314 0.929 . S
C333 C330 1.404 . S
C333 N331 1.334 . S
C334 H326 0.930 . S
C334 C329 1.418 . S
C334 C330 1.353 . S
C335 H305 0.930 . S
C335 N336 1.330 . S
C335 C337 1.446 . S
N336 Co295 2.151 . S
N336 C335 1.330 . S
N336 C340 1.418 . S
C337 H316 0.929 . S
C337 C335 1.446 . S
C337 C338 1.332 . S
C338 H318 0.931 . S
C338 C337 1.332 . S
C338 C339 1.267 . S
C339 H307 0.929 . S
C339 C338 1.267 . S
C339 C340 1.251 . S
C340 H310 0.929 . S
C340 N336 1.418 . S
C340 C339 1.251 . S
C341 H308 0.930 . S
C341 C343 1.406 . S
C341 C346 1.261 . S
C342 H309 0.930 . S
C342 N344 1.325 . S
C342 C345 1.357 . S
C343 H311 0.928 . S
C343 C341 1.406 . S
C343 N344 1.261 . S
N344 Co295 2.214 . S
N344 C342 1.325 . S
N344 C343 1.261 . S
C345 H315 0.931 . S
C345 C342 1.357 . S
C345 C346 1.312 . S
C346 H317 0.930 1_455 S
C346 C341 1.261 . S
C346 C345 1.312 . S
C347 O319 1.214 . S
C347 O327 1.234 . S
C348 H320 0.929 . S
C348 C351 1.391 . S
C348 C353 1.391 . S
C349 H321 0.929 . S
C349 C350 1.390 . S
C349 N352 1.391 . S
C350 H322 0.930 . S
C350 C349 1.390 . S
C350 C351 1.392 . S
C351 H323 0.929 . S
C351 C348 1.391 . S
C351 C350 1.392 . S
N352 Co296 2.257 . S
N352 C349 1.391 . S
N352 C353 1.388 . S
C353 H324 0.930 . S
C353 C348 1.391 . S
C353 N352 1.388 . S
Co354 O356 2.143 1_565 S
Co354 O362 2.074 . S
Co354 O365 2.093 . S
Co354 O378 2.097 . S
Co354 N395 2.151 . S
Co354 N403 2.214 . S
Co355 O356 2.160 . S
Co355 O361 2.058 . S
Co355 O371 2.057 . S
Co355 O386 2.037 1_545 S
Co355 N390 2.145 . S
Co355 N411 2.257 . S
O356 Co354 2.143 1_545 S
O356 Co355 2.160 . S
C357 O358 1.278 . S
C357 O365 1.224 1_545 S
O358 C357 1.278 . S
C359 O360 1.245 . S
C359 O371 1.232 . S
O360 C359 1.245 . S
O361 Co355 2.058 . S
O361 C387 1.269 1_545 S
O362 Co354 2.074 . S
O362 C387 1.257 . S
H363 C388 0.930 . S
H364 C394 0.930 . S
O365 Co354 2.093 . S
O365 C357 1.224 1_565 S
H366 C398 0.929 . S
H367 C400 0.930 . S
H368 C401 0.930 . S
H369 C399 0.929 . S
H370 C402 0.928 . S
O371 Co355 2.057 . S
O371 C359 1.232 . S
H372 C391 0.929 1_565 S
H373 C392 0.929 . S
H374 C404 0.931 . S
H375 C396 0.929 . S
H376 C405 0.930 . S
H377 C397 0.931 . S
O378 Co354 2.097 . S
O378 C406 1.214 . S
H379 C407 0.929 . S
H380 C408 0.929 . S
H381 C409 0.930 . S
H382 C410 0.929 . S
H383 C412 0.930 . S
H384 C389 0.930 . S
H385 C393 0.930 . S
O386 Co355 2.037 1_565 S
O386 C406 1.234 . S
C387 O361 1.269 1_565 S
C387 O362 1.257 . S
C388 H363 0.930 . S
C388 C391 1.388 . S
C388 C393 1.418 . S
C389 H384 0.930 . S
C389 C392 1.404 . S
C389 C393 1.353 . S
N390 Co355 2.145 . S
N390 C391 1.397 . S
N390 C392 1.334 . S
C391 H372 0.929 1_545 S
C391 C388 1.388 . S
C391 N390 1.397 . S
C392 H373 0.929 . S
C392 C389 1.404 . S
C392 N390 1.334 . S
C393 H385 0.930 . S
C393 C388 1.418 . S
C393 C389 1.353 . S
C394 H364 0.930 . S
C394 N395 1.330 1_545 S
C394 C396 1.446 . S
N395 Co354 2.151 . S
N395 C394 1.330 1_565 S
N395 C399 1.418 . S
C396 H375 0.929 . S
C396 C394 1.446 . S
C396 C397 1.332 1_545 S
C397 H377 0.931 . S
C397 C396 1.332 1_565 S
C397 C398 1.267 . S
C398 H366 0.929 . S
C398 C397 1.267 . S
C398 C399 1.251 . S
C399 H369 0.929 . S
C399 N395 1.418 . S
C399 C398 1.251 . S
C400 H367 0.930 . S
C400 C402 1.406 . S
C400 C405 1.261 . S
C401 H368 0.930 . S
C401 N403 1.325 . S
C401 C404 1.357 . S
C402 H370 0.928 . S
C402 C400 1.406 . S
C402 N403 1.261 . S
N403 Co354 2.214 . S
N403 C401 1.325 . S
N403 C402 1.261 . S
C404 H374 0.931 . S
C404 C401 1.357 . S
C404 C405 1.312 . S
C405 H376 0.930 . S
C405 C400 1.261 . S
C405 C404 1.312 . S
C406 O378 1.214 . S
C406 O386 1.234 . S
C407 H379 0.929 . S
C407 C410 1.391 . S
C407 C412 1.391 . S
C408 H380 0.929 . S
C408 C409 1.390 . S
C408 N411 1.391 . S
C409 H381 0.930 . S
C409 C408 1.390 . S
C409 C410 1.392 . S
C410 H382 0.929 . S
C410 C407 1.391 . S
C410 C409 1.392 . S
N411 Co355 2.257 . S
N411 C408 1.391 . S
N411 C412 1.388 . S
C412 H383 0.930 . S
C412 C407 1.391 . S
C412 N411 1.388 . S
Co413 O415 2.143 . S
Co413 O421 2.074 . S
Co413 O424 2.093 . S
Co413 O437 2.097 . S
Co413 N454 2.151 . S
Co413 N462 2.214 . S
Co414 O415 2.160 . S
Co414 O420 2.058 . S
Co414 O430 2.057 . S
Co414 O445 2.037 . S
Co414 N449 2.145 . S
Co414 N470 2.257 . S
O415 Co413 2.143 . S
O415 Co414 2.160 . S
C416 O417 1.278 . S
C416 O424 1.224 . S
O417 C416 1.278 . S
C418 O419 1.245 . S
C418 O430 1.232 . S
O419 C418 1.245 . S
O420 Co414 2.058 . S
O420 C446 1.269 . S
O421 Co413 2.074 . S
O421 C446 1.257 . S
H422 C447 0.930 . S
H423 C453 0.930 . S
O424 Co413 2.093 . S
O424 C416 1.224 . S
H425 C457 0.929 . S
H426 C459 0.930 . S
H427 C460 0.930 . S
H428 C458 0.929 . S
H429 C461 0.928 . S
O430 Co414 2.057 . S
O430 C418 1.232 . S
H431 C450 0.929 . S
H432 C451 0.929 . S
H433 C463 0.931 . S
H434 C455 0.929 . S
H435 C464 0.930 . S
H436 C456 0.931 . S
O437 Co413 2.097 . S
O437 C465 1.214 . S
H438 C466 0.929 . S
H439 C467 0.929 . S
H440 C468 0.930 . S
H441 C469 0.929 . S
H442 C471 0.930 . S
H443 C448 0.930 . S
H444 C452 0.930 . S
O445 Co414 2.037 . S
O445 C465 1.234 . S
C446 O420 1.269 . S
C446 O421 1.257 . S
C447 H422 0.930 . S
C447 C450 1.388 . S
C447 C452 1.418 . S
C448 H443 0.930 . S
C448 C451 1.404 . S
C448 C452 1.353 . S
N449 Co414 2.145 . S
N449 C450 1.397 . S
N449 C451 1.334 . S
C450 H431 0.929 . S
C450 C447 1.388 . S
C450 N449 1.397 . S
C451 H432 0.929 . S
C451 C448 1.404 . S
C451 N449 1.334 . S
C452 H444 0.930 . S
C452 C447 1.418 . S
C452 C448 1.353 . S
C453 H423 0.930 . S
C453 N454 1.330 . S
C453 C455 1.446 . S
N454 Co413 2.151 . S
N454 C453 1.330 . S
N454 C458 1.418 . S
C455 H434 0.929 . S
C455 C453 1.446 . S
C455 C456 1.332 . S
C456 H436 0.931 . S
C456 C455 1.332 . S
C456 C457 1.267 . S
C457 H425 0.929 . S
C457 C456 1.267 . S
C457 C458 1.251 . S
C458 H428 0.929 . S
C458 N454 1.418 . S
C458 C457 1.251 . S
C459 H426 0.930 . S
C459 C461 1.406 . S
C459 C464 1.261 . S
C460 H427 0.930 . S
C460 N462 1.325 . S
C460 C463 1.357 . S
C461 H429 0.928 . S
C461 C459 1.406 . S
C461 N462 1.261 . S
N462 Co413 2.214 . S
N462 C460 1.325 . S
N462 C461 1.261 . S
C463 H433 0.931 . S
C463 C460 1.357 . S
C463 C464 1.312 . S
C464 H435 0.930 . S
C464 C459 1.261 . S
C464 C463 1.312 . S
C465 O437 1.214 . S
C465 O445 1.234 . S
C466 H438 0.929 . S
C466 C469 1.391 . S
C466 C471 1.391 . S
C467 H439 0.929 . S
C467 C468 1.390 . S
C467 N470 1.391 . S
C468 H440 0.930 . S
C468 C467 1.390 . S
C468 C469 1.392 . S
C469 H441 0.929 . S
C469 C466 1.391 . S
C469 C468 1.392 . S
N470 Co414 2.257 . S
N470 C467 1.391 . S
N470 C471 1.388 . S
C471 H442 0.930 . S
C471 C466 1.391 . S
C471 N470 1.388 . S
Co472 O474 2.143 . S
Co472 O480 2.074 . S
Co472 O483 2.093 . S
Co472 O496 2.097 . S
Co472 N513 2.151 . S
Co472 N521 2.214 . S
Co473 O474 2.160 . S
Co473 O479 2.058 . S
Co473 O489 2.057 . S
Co473 O504 2.037 . S
Co473 N508 2.145 . S
Co473 N529 2.257 . S
O474 Co472 2.143 . S
O474 Co473 2.160 . S
C475 O476 1.278 . S
C475 O483 1.224 . S
O476 C475 1.278 . S
C477 O478 1.245 . S
C477 O489 1.232 . S
O478 C477 1.245 . S
O479 Co473 2.058 . S
O479 C505 1.269 . S
O480 Co472 2.074 . S
O480 C505 1.257 . S
H481 C506 0.930 . S
H482 C512 0.930 . S
O483 Co472 2.093 . S
O483 C475 1.224 . S
H484 C516 0.929 . S
H485 C518 0.930 . S
H486 C519 0.930 . S
H487 C517 0.929 . S
H488 C520 0.928 . S
O489 Co473 2.057 . S
O489 C477 1.232 . S
H490 C509 0.929 . S
H491 C510 0.929 . S
H492 C522 0.931 . S
H493 C514 0.929 . S
H494 C523 0.930 . S
H495 C515 0.931 . S
O496 Co472 2.097 . S
O496 C524 1.214 . S
H497 C525 0.929 . S
H498 C526 0.929 . S
H499 C527 0.930 . S
H500 C528 0.929 . S
H501 C530 0.930 . S
H502 C507 0.930 . S
H503 C511 0.930 . S
O504 Co473 2.037 . S
O504 C524 1.234 . S
C505 O479 1.269 . S
C505 O480 1.257 . S
C506 H481 0.930 . S
C506 C509 1.388 . S
C506 C511 1.418 . S
C507 H502 0.930 . S
C507 C510 1.404 . S
C507 C511 1.353 . S
N508 Co473 2.145 . S
N508 C509 1.397 . S
N508 C510 1.334 . S
C509 H490 0.929 . S
C509 C506 1.388 . S
C509 N508 1.397 . S
C510 H491 0.929 . S
C510 C507 1.404 . S
C510 N508 1.334 . S
C511 H503 0.930 . S
C511 C506 1.418 . S
C511 C507 1.353 . S
C512 H482 0.930 . S
C512 N513 1.330 . S
C512 C514 1.446 . S
N513 Co472 2.151 . S
N513 C512 1.330 . S
N513 C517 1.418 . S
C514 H493 0.929 . S
C514 C512 1.446 . S
C514 C515 1.332 . S
C515 H495 0.931 . S
C515 C514 1.332 . S
C515 C516 1.267 . S
C516 H484 0.929 . S
C516 C515 1.267 . S
C516 C517 1.251 . S
C517 H487 0.929 . S
C517 N513 1.418 . S
C517 C516 1.251 . S
C518 H485 0.930 . S
C518 C520 1.406 . S
C518 C523 1.261 . S
C519 H486 0.930 . S
C519 N521 1.325 . S
C519 C522 1.357 . S
C520 H488 0.928 . S
C520 C518 1.406 . S
C520 N521 1.261 . S
N521 Co472 2.214 . S
N521 C519 1.325 . S
N521 C520 1.261 . S
C522 H492 0.931 . S
C522 C519 1.357 . S
C522 C523 1.312 . S
C523 H494 0.930 . S
C523 C518 1.261 . S
C523 C522 1.312 . S
C524 O496 1.214 . S
C524 O504 1.234 . S
C525 H497 0.929 . S
C525 C528 1.391 . S
C525 C530 1.391 . S
C526 H498 0.929 . S
C526 C527 1.390 . S
C526 N529 1.391 . S
C527 H499 0.930 . S
C527 C526 1.390 . S
C527 C528 1.392 . S
C528 H500 0.929 . S
C528 C525 1.391 . S
C528 C527 1.392 . S
N529 Co473 2.257 . S
N529 C526 1.391 . S
N529 C530 1.388 . S
C530 H501 0.930 . S
C530 C525 1.391 . S
C530 N529 1.388 . S
Co531 O533 2.143 . S
Co531 O539 2.074 . S
Co531 O542 2.093 . S
Co531 O555 2.097 . S
Co531 N572 2.151 . S
Co531 N580 2.214 . S
Co532 O533 2.160 . S
Co532 O538 2.058 . S
Co532 O548 2.057 . S
Co532 O563 2.037 . S
Co532 N567 2.145 . S
Co532 N588 2.257 . S
O533 Co531 2.143 . S
O533 Co532 2.160 . S
C534 O535 1.278 . S
C534 O542 1.224 . S
O535 C534 1.278 . S
C536 O537 1.245 . S
C536 O548 1.232 . S
O537 C536 1.245 . S
O538 Co532 2.058 . S
O538 C564 1.269 . S
O539 Co531 2.074 . S
O539 C564 1.257 . S
H540 C565 0.930 . S
H541 C571 0.930 . S
O542 Co531 2.093 . S
O542 C534 1.224 . S
H543 C575 0.929 . S
H544 C577 0.930 . S
H545 C578 0.930 . S
H546 C576 0.929 . S
H547 C579 0.928 . S
O548 Co532 2.057 . S
O548 C536 1.232 . S
H549 C568 0.929 . S
H550 C569 0.929 . S
H551 C581 0.931 . S
H552 C573 0.929 . S
H553 C582 0.930 1_455 S
H554 C574 0.931 . S
O555 Co531 2.097 . S
O555 C583 1.214 . S
H556 C584 0.929 . S
H557 C585 0.929 . S
H558 C586 0.930 . S
H559 C587 0.929 . S
H560 C589 0.930 . S
H561 C566 0.930 . S
H562 C570 0.930 . S
O563 Co532 2.037 . S
O563 C583 1.234 . S
C564 O538 1.269 . S
C564 O539 1.257 . S
C565 H540 0.930 . S
C565 C568 1.388 . S
C565 C570 1.418 . S
C566 H561 0.930 . S
C566 C569 1.404 . S
C566 C570 1.353 . S
N567 Co532 2.145 . S
N567 C568 1.397 . S
N567 C569 1.334 . S
C568 H549 0.929 . S
C568 C565 1.388 . S
C568 N567 1.397 . S
C569 H550 0.929 . S
C569 C566 1.404 . S
C569 N567 1.334 . S
C570 H562 0.930 . S
C570 C565 1.418 . S
C570 C566 1.353 . S
C571 H541 0.930 . S
C571 N572 1.330 . S
C571 C573 1.446 . S
N572 Co531 2.151 . S
N572 C571 1.330 . S
N572 C576 1.418 . S
C573 H552 0.929 . S
C573 C571 1.446 . S
C573 C574 1.332 . S
C574 H554 0.931 . S
C574 C573 1.332 . S
C574 C575 1.267 . S
C575 H543 0.929 . S
C575 C574 1.267 . S
C575 C576 1.251 . S
C576 H546 0.929 . S
C576 N572 1.418 . S
C576 C575 1.251 . S
C577 H544 0.930 . S
C577 C579 1.406 . S
C577 C582 1.261 . S
C578 H545 0.930 . S
C578 N580 1.325 . S
C578 C581 1.357 . S
C579 H547 0.928 . S
C579 C577 1.406 . S
C579 N580 1.261 . S
N580 Co531 2.214 . S
N580 C578 1.325 . S
N580 C579 1.261 . S
C581 H551 0.931 . S
C581 C578 1.357 . S
C581 C582 1.312 . S
C582 H553 0.930 1_655 S
C582 C577 1.261 . S
C582 C581 1.312 . S
C583 O555 1.214 . S
C583 O563 1.234 . S
C584 H556 0.929 . S
C584 C587 1.391 . S
C584 C589 1.391 . S
C585 H557 0.929 . S
C585 C586 1.390 . S
C585 N588 1.391 . S
C586 H558 0.930 . S
C586 C585 1.390 . S
C586 C587 1.392 . S
C587 H559 0.929 . S
C587 C584 1.391 . S
C587 C586 1.392 . S
N588 Co532 2.257 . S
N588 C585 1.391 . S
N588 C589 1.388 . S
C589 H560 0.930 . S
C589 C584 1.391 . S
C589 N588 1.388 . S
Co590 O592 2.143 . S
Co590 O598 2.074 . S
Co590 O601 2.093 . S
Co590 O614 2.097 . S
Co590 N631 2.151 . S
Co590 N639 2.214 . S
Co591 O592 2.160 . S
Co591 O597 2.058 . S
Co591 O607 2.057 . S
Co591 O622 2.037 . S
Co591 N626 2.145 . S
Co591 N647 2.257 . S
O592 Co590 2.143 . S
O592 Co591 2.160 . S
C593 O594 1.278 . S
C593 O601 1.224 . S
O594 C593 1.278 . S
C595 O596 1.245 . S
C595 O607 1.232 . S
O596 C595 1.245 . S
O597 Co591 2.058 . S
O597 C623 1.269 . S
O598 Co590 2.074 . S
O598 C623 1.257 . S
H599 C624 0.930 . S
H600 C630 0.930 . S
O601 Co590 2.093 . S
O601 C593 1.224 . S
H602 C634 0.929 . S
H603 C636 0.930 . S
H604 C637 0.930 . S
H605 C635 0.929 . S
H606 C638 0.928 . S
O607 Co591 2.057 . S
O607 C595 1.232 . S
H608 C627 0.929 . S
H609 C628 0.929 . S
H610 C640 0.931 . S
H611 C632 0.929 . S
H612 C641 0.930 1_455 S
H613 C633 0.931 . S
O614 Co590 2.097 . S
O614 C642 1.214 . S
H615 C643 0.929 . S
H616 C644 0.929 . S
H617 C645 0.930 . S
H618 C646 0.929 . S
H619 C648 0.930 . S
H620 C625 0.930 . S
H621 C629 0.930 . S
O622 Co591 2.037 . S
O622 C642 1.234 . S
C623 O597 1.269 . S
C623 O598 1.257 . S
C624 H599 0.930 . S
C624 C627 1.388 . S
C624 C629 1.418 . S
C625 H620 0.930 . S
C625 C628 1.404 . S
C625 C629 1.353 . S
N626 Co591 2.145 . S
N626 C627 1.397 . S
N626 C628 1.334 . S
C627 H608 0.929 . S
C627 C624 1.388 . S
C627 N626 1.397 . S
C628 H609 0.929 . S
C628 C625 1.404 . S
C628 N626 1.334 . S
C629 H621 0.930 . S
C629 C624 1.418 . S
C629 C625 1.353 . S
C630 H600 0.930 . S
C630 N631 1.330 . S
C630 C632 1.446 . S
N631 Co590 2.151 . S
N631 C630 1.330 . S
N631 C635 1.418 . S
C632 H611 0.929 . S
C632 C630 1.446 . S
C632 C633 1.332 . S
C633 H613 0.931 . S
C633 C632 1.332 . S
C633 C634 1.267 . S
C634 H602 0.929 . S
C634 C633 1.267 . S
C634 C635 1.251 . S
C635 H605 0.929 . S
C635 N631 1.418 . S
C635 C634 1.251 . S
C636 H603 0.930 . S
C636 C638 1.406 . S
C636 C641 1.261 . S
C637 H604 0.930 . S
C637 N639 1.325 . S
C637 C640 1.357 . S
C638 H606 0.928 . S
C638 C636 1.406 . S
C638 N639 1.261 . S
N639 Co590 2.214 . S
N639 C637 1.325 . S
N639 C638 1.261 . S
C640 H610 0.931 . S
C640 C637 1.357 . S
C640 C641 1.312 . S
C641 H612 0.930 1_655 S
C641 C636 1.261 . S
C641 C640 1.312 . S
C642 O614 1.214 . S
C642 O622 1.234 . S
C643 H615 0.929 . S
C643 C646 1.391 . S
C643 C648 1.391 . S
C644 H616 0.929 . S
C644 C645 1.390 . S
C644 N647 1.391 . S
C645 H617 0.930 . S
C645 C644 1.390 . S
C645 C646 1.392 . S
C646 H618 0.929 . S
C646 C643 1.391 . S
C646 C645 1.392 . S
N647 Co591 2.257 . S
N647 C644 1.391 . S
N647 C648 1.388 . S
C648 H619 0.930 . S
C648 C643 1.391 . S
C648 N647 1.388 . S
Co649 O651 2.143 . S
Co649 O657 2.074 . S
Co649 O660 2.093 . S
Co649 O673 2.097 . S
Co649 N690 2.151 . S
Co649 N698 2.214 . S
Co650 O651 2.160 . S
Co650 O656 2.058 . S
Co650 O666 2.057 . S
Co650 O681 2.037 . S
Co650 N685 2.145 . S
Co650 N706 2.257 . S
O651 Co649 2.143 . S
O651 Co650 2.160 . S
C652 O653 1.278 . S
C652 O660 1.224 . S
O653 C652 1.278 . S
C654 O655 1.245 . S
C654 O666 1.232 . S
O655 C654 1.245 . S
O656 Co650 2.058 . S
O656 C682 1.269 . S
O657 Co649 2.074 . S
O657 C682 1.257 . S
H658 C683 0.930 . S
H659 C689 0.930 . S
O660 Co649 2.093 . S
O660 C652 1.224 . S
H661 C693 0.929 . S
H662 C695 0.930 . S
H663 C696 0.930 . S
H664 C694 0.929 . S
H665 C697 0.928 . S
O666 Co650 2.057 . S
O666 C654 1.232 . S
H667 C686 0.929 . S
H668 C687 0.929 . S
H669 C699 0.931 . S
H670 C691 0.929 . S
H671 C700 0.930 . S
H672 C692 0.931 . S
O673 Co649 2.097 . S
O673 C701 1.214 . S
H674 C702 0.929 . S
H675 C703 0.929 . S
H676 C704 0.930 . S
H677 C705 0.929 . S
H678 C707 0.930 . S
H679 C684 0.930 . S
H680 C688 0.930 . S
O681 Co650 2.037 . S
O681 C701 1.234 . S
C682 O656 1.269 . S
C682 O657 1.257 . S
C683 H658 0.930 . S
C683 C686 1.388 . S
C683 C688 1.418 . S
C684 H679 0.930 . S
C684 C687 1.404 . S
C684 C688 1.353 . S
N685 Co650 2.145 . S
N685 C686 1.397 . S
N685 C687 1.334 . S
C686 H667 0.929 . S
C686 C683 1.388 . S
C686 N685 1.397 . S
C687 H668 0.929 . S
C687 C684 1.404 . S
C687 N685 1.334 . S
C688 H680 0.930 . S
C688 C683 1.418 . S
C688 C684 1.353 . S
C689 H659 0.930 . S
C689 N690 1.330 . S
C689 C691 1.446 . S
N690 Co649 2.151 . S
N690 C689 1.330 . S
N690 C694 1.418 . S
C691 H670 0.929 . S
C691 C689 1.446 . S
C691 C692 1.332 . S
C692 H672 0.931 . S
C692 C691 1.332 . S
C692 C693 1.267 . S
C693 H661 0.929 . S
C693 C692 1.267 . S
C693 C694 1.251 . S
C694 H664 0.929 . S
C694 N690 1.418 . S
C694 C693 1.251 . S
C695 H662 0.930 . S
C695 C697 1.406 . S
C695 C700 1.261 . S
C696 H663 0.930 . S
C696 N698 1.325 . S
C696 C699 1.357 . S
C697 H665 0.928 . S
C697 C695 1.406 . S
C697 N698 1.261 . S
N698 Co649 2.214 . S
N698 C696 1.325 . S
N698 C697 1.261 . S
C699 H669 0.931 . S
C699 C696 1.357 . S
C699 C700 1.312 . S
C700 H671 0.930 . S
C700 C695 1.261 . S
C700 C699 1.312 . S
C701 O673 1.214 . S
C701 O681 1.234 . S
C702 H674 0.929 . S
C702 C705 1.391 . S
C702 C707 1.391 . S
C703 H675 0.929 . S
C703 C704 1.390 . S
C703 N706 1.391 . S
C704 H676 0.930 . S
C704 C703 1.390 . S
C704 C705 1.392 . S
C705 H677 0.929 . S
C705 C702 1.391 . S
C705 C704 1.392 . S
N706 Co650 2.257 . S
N706 C703 1.391 . S
N706 C707 1.388 . S
C707 H678 0.930 . S
C707 C702 1.391 . S
C707 N706 1.388 . S
Co708 O710 2.143 . S
Co708 O716 2.074 . S
Co708 O719 2.093 . S
Co708 O732 2.097 . S
Co708 N749 2.151 . S
Co708 N757 2.214 . S
Co709 O710 2.160 . S
Co709 O715 2.058 . S
Co709 O725 2.057 . S
Co709 O740 2.037 . S
Co709 N744 2.145 . S
Co709 N765 2.257 . S
O710 Co708 2.143 . S
O710 Co709 2.160 . S
C711 O712 1.278 . S
C711 O719 1.224 . S
O712 C711 1.278 . S
C713 O714 1.245 . S
C713 O725 1.232 . S
O714 C713 1.245 . S
O715 Co709 2.058 . S
O715 C741 1.269 . S
O716 Co708 2.074 . S
O716 C741 1.257 . S
H717 C742 0.930 . S
H718 C748 0.930 . S
O719 Co708 2.093 . S
O719 C711 1.224 . S
H720 C752 0.929 . S
H721 C754 0.930 . S
H722 C755 0.930 . S
H723 C753 0.929 . S
H724 C756 0.928 . S
O725 Co709 2.057 . S
O725 C713 1.232 . S
H726 C745 0.929 . S
H727 C746 0.929 . S
H728 C758 0.931 . S
H729 C750 0.929 . S
H730 C759 0.930 . S
H731 C751 0.931 . S
O732 Co708 2.097 . S
O732 C760 1.214 . S
H733 C761 0.929 . S
H734 C762 0.929 . S
H735 C763 0.930 . S
H736 C764 0.929 . S
H737 C766 0.930 . S
H738 C743 0.930 . S
H739 C747 0.930 . S
O740 Co709 2.037 . S
O740 C760 1.234 . S
C741 O715 1.269 . S
C741 O716 1.257 . S
C742 H717 0.930 . S
C742 C745 1.388 . S
C742 C747 1.418 . S
C743 H738 0.930 . S
C743 C746 1.404 . S
C743 C747 1.353 . S
N744 Co709 2.145 . S
N744 C745 1.397 . S
N744 C746 1.334 . S
C745 H726 0.929 . S
C745 C742 1.388 . S
C745 N744 1.397 . S
C746 H727 0.929 . S
C746 C743 1.404 . S
C746 N744 1.334 . S
C747 H739 0.930 . S
C747 C742 1.418 . S
C747 C743 1.353 . S
C748 H718 0.930 . S
C748 N749 1.330 . S
C748 C750 1.446 . S
N749 Co708 2.151 . S
N749 C748 1.330 . S
N749 C753 1.418 . S
C750 H729 0.929 . S
C750 C748 1.446 . S
C750 C751 1.332 . S
C751 H731 0.931 . S
C751 C750 1.332 . S
C751 C752 1.267 . S
C752 H720 0.929 . S
C752 C751 1.267 . S
C752 C753 1.251 . S
C753 H723 0.929 . S
C753 N749 1.418 . S
C753 C752 1.251 . S
C754 H721 0.930 . S
C754 C756 1.406 . S
C754 C759 1.261 . S
C755 H722 0.930 . S
C755 N757 1.325 . S
C755 C758 1.357 . S
C756 H724 0.928 . S
C756 C754 1.406 . S
C756 N757 1.261 . S
N757 Co708 2.214 . S
N757 C755 1.325 . S
N757 C756 1.261 . S
C758 H728 0.931 . S
C758 C755 1.357 . S
C758 C759 1.312 . S
C759 H730 0.930 . S
C759 C754 1.261 . S
C759 C758 1.312 . S
C760 O732 1.214 . S
C760 O740 1.234 . S
C761 H733 0.929 . S
C761 C764 1.391 . S
C761 C766 1.391 . S
C762 H734 0.929 . S
C762 C763 1.390 . S
C762 N765 1.391 . S
C763 H735 0.930 . S
C763 C762 1.390 . S
C763 C764 1.392 . S
C764 H736 0.929 . S
C764 C761 1.391 . S
C764 C763 1.392 . S
N765 Co709 2.257 . S
N765 C762 1.391 . S
N765 C766 1.388 . S
C766 H737 0.930 . S
C766 C761 1.391 . S
C766 N765 1.388 . S
Co767 O769 2.143 . S
Co767 O775 2.074 . S
Co767 O778 2.093 1_455 S
Co767 O791 2.097 1_455 S
Co767 N808 2.151 . S
Co767 N816 2.214 . S
Co768 O769 2.160 1_655 S
Co768 O774 2.058 1_655 S
Co768 O784 2.057 1_655 S
Co768 O799 2.037 . S
Co768 N803 2.145 . S
Co768 N824 2.257 . S
O769 Co767 2.143 . S
O769 Co768 2.160 1_455 S
C770 O771 1.278 . S
C770 O778 1.224 . S
O771 C770 1.278 . S
C772 O773 1.245 . S
C772 O784 1.232 . S
O773 C772 1.245 . S
O774 Co768 2.058 1_455 S
O774 C800 1.269 . S
O775 Co767 2.074 . S
O775 C800 1.257 . S
H776 C801 0.930 . S
H777 C807 0.930 . S
O778 Co767 2.093 1_655 S
O778 C770 1.224 . S
H779 C811 0.929 . S
H780 C813 0.930 . S
H781 C814 0.930 . S
H782 C812 0.929 . S
H783 C815 0.928 . S
O784 Co768 2.057 1_455 S
O784 C772 1.232 . S
H785 C804 0.929 . S
H786 C805 0.929 . S
H787 C817 0.931 . S
H788 C809 0.929 . S
H789 C818 0.930 . S
H790 C810 0.931 . S
O791 Co767 2.097 1_655 S
O791 C819 1.214 . S
H792 C820 0.929 . S
H793 C821 0.929 . S
H794 C822 0.930 . S
H795 C823 0.929 . S
H796 C825 0.930 . S
H797 C802 0.930 . S
H798 C806 0.930 . S
O799 Co768 2.037 . S
O799 C819 1.234 . S
C800 O774 1.269 . S
C800 O775 1.257 . S
C801 H776 0.930 . S
C801 C804 1.388 . S
C801 C806 1.418 . S
C802 H797 0.930 . S
C802 C805 1.404 . S
C802 C806 1.353 . S
N803 Co768 2.145 . S
N803 C804 1.397 . S
N803 C805 1.334 . S
C804 H785 0.929 . S
C804 C801 1.388 . S
C804 N803 1.397 . S
C805 H786 0.929 . S
C805 C802 1.404 . S
C805 N803 1.334 . S
C806 H798 0.930 . S
C806 C801 1.418 . S
C806 C802 1.353 . S
C807 H777 0.930 . S
C807 N808 1.330 . S
C807 C809 1.446 . S
N808 Co767 2.151 . S
N808 C807 1.330 . S
N808 C812 1.418 . S
C809 H788 0.929 . S
C809 C807 1.446 . S
C809 C810 1.332 . S
C810 H790 0.931 . S
C810 C809 1.332 . S
C810 C811 1.267 . S
C811 H779 0.929 . S
C811 C810 1.267 . S
C811 C812 1.251 . S
C812 H782 0.929 . S
C812 N808 1.418 . S
C812 C811 1.251 . S
C813 H780 0.930 . S
C813 C815 1.406 . S
C813 C818 1.261 . S
C814 H781 0.930 . S
C814 N816 1.325 . S
C814 C817 1.357 . S
C815 H783 0.928 . S
C815 C813 1.406 . S
C815 N816 1.261 . S
N816 Co767 2.214 . S
N816 C814 1.325 . S
N816 C815 1.261 . S
C817 H787 0.931 . S
C817 C814 1.357 . S
C817 C818 1.312 . S
C818 H789 0.930 . S
C818 C813 1.261 . S
C818 C817 1.312 . S
C819 O791 1.214 . S
C819 O799 1.234 . S
C820 H792 0.929 . S
C820 C823 1.391 . S
C820 C825 1.391 . S
C821 H793 0.929 . S
C821 C822 1.390 . S
C821 N824 1.391 . S
C822 H794 0.930 . S
C822 C821 1.390 . S
C822 C823 1.392 . S
C823 H795 0.929 . S
C823 C820 1.391 . S
C823 C822 1.392 . S
N824 Co768 2.257 . S
N824 C821 1.391 . S
N824 C825 1.388 . S
C825 H796 0.930 . S
C825 C820 1.391 . S
C825 N824 1.388 . S
Co826 O828 2.143 . S
Co826 O834 2.074 . S
Co826 O837 2.093 . S
Co826 O850 2.097 . S
Co826 N867 2.151 . S
Co826 N875 2.214 . S
Co827 O828 2.160 . S
Co827 O833 2.058 . S
Co827 O843 2.057 . S
Co827 O858 2.037 . S
Co827 N862 2.145 . S
Co827 N883 2.257 . S
O828 Co826 2.143 . S
O828 Co827 2.160 . S
C829 O830 1.278 . S
C829 O837 1.224 . S
O830 C829 1.278 . S
C831 O832 1.245 . S
C831 O843 1.232 . S
O832 C831 1.245 . S
O833 Co827 2.058 . S
O833 C859 1.269 . S
O834 Co826 2.074 . S
O834 C859 1.257 . S
H835 C860 0.930 . S
H836 C866 0.930 . S
O837 Co826 2.093 . S
O837 C829 1.224 . S
H838 C870 0.929 . S
H839 C872 0.930 . S
H840 C873 0.930 . S
H841 C871 0.929 . S
H842 C874 0.928 . S
O843 Co827 2.057 . S
O843 C831 1.232 . S
H844 C863 0.929 . S
H845 C864 0.929 . S
H846 C876 0.931 . S
H847 C868 0.929 . S
H848 C877 0.930 . S
H849 C869 0.931 . S
O850 Co826 2.097 . S
O850 C878 1.214 . S
H851 C879 0.929 . S
H852 C880 0.929 . S
H853 C881 0.930 . S
H854 C882 0.929 . S
H855 C884 0.930 . S
H856 C861 0.930 . S
H857 C865 0.930 . S
O858 Co827 2.037 . S
O858 C878 1.234 . S
C859 O833 1.269 . S
C859 O834 1.257 . S
C860 H835 0.930 . S
C860 C863 1.388 . S
C860 C865 1.418 . S
C861 H856 0.930 . S
C861 C864 1.404 . S
C861 C865 1.353 . S
N862 Co827 2.145 . S
N862 C863 1.397 . S
N862 C864 1.334 . S
C863 H844 0.929 . S
C863 C860 1.388 . S
C863 N862 1.397 . S
C864 H845 0.929 . S
C864 C861 1.404 . S
C864 N862 1.334 . S
C865 H857 0.930 . S
C865 C860 1.418 . S
C865 C861 1.353 . S
C866 H836 0.930 . S
C866 N867 1.330 . S
C866 C868 1.446 . S
N867 Co826 2.151 . S
N867 C866 1.330 . S
N867 C871 1.418 . S
C868 H847 0.929 . S
C868 C866 1.446 . S
C868 C869 1.332 . S
C869 H849 0.931 . S
C869 C868 1.332 . S
C869 C870 1.267 . S
C870 H838 0.929 . S
C870 C869 1.267 . S
C870 C871 1.251 . S
C871 H841 0.929 . S
C871 N867 1.418 . S
C871 C870 1.251 . S
C872 H839 0.930 . S
C872 C874 1.406 . S
C872 C877 1.261 . S
C873 H840 0.930 . S
C873 N875 1.325 . S
C873 C876 1.357 . S
C874 H842 0.928 . S
C874 C872 1.406 . S
C874 N875 1.261 . S
N875 Co826 2.214 . S
N875 C873 1.325 . S
N875 C874 1.261 . S
C876 H846 0.931 . S
C876 C873 1.357 . S
C876 C877 1.312 . S
C877 H848 0.930 . S
C877 C872 1.261 . S
C877 C876 1.312 . S
C878 O850 1.214 . S
C878 O858 1.234 . S
C879 H851 0.929 . S
C879 C882 1.391 . S
C879 C884 1.391 . S
C880 H852 0.929 . S
C880 C881 1.390 . S
C880 N883 1.391 . S
C881 H853 0.930 . S
C881 C880 1.390 . S
C881 C882 1.392 . S
C882 H854 0.929 . S
C882 C879 1.391 . S
C882 C881 1.392 . S
N883 Co827 2.257 . S
N883 C880 1.391 . S
N883 C884 1.388 . S
C884 H855 0.930 . S
C884 C879 1.391 . S
C884 N883 1.388 . S
Co885 O887 2.143 . S
Co885 O893 2.074 . S
Co885 O896 2.093 1_455 S
Co885 O909 2.097 1_455 S
Co885 N926 2.151 . S
Co885 N934 2.214 . S
Co886 O887 2.160 1_655 S
Co886 O892 2.058 1_655 S
Co886 O902 2.057 1_655 S
Co886 O917 2.037 . S
Co886 N921 2.145 . S
Co886 N942 2.257 . S
O887 Co885 2.143 . S
O887 Co886 2.160 1_455 S
C888 O889 1.278 . S
C888 O896 1.224 . S
O889 C888 1.278 . S
C890 O891 1.245 . S
C890 O902 1.232 . S
O891 C890 1.245 . S
O892 Co886 2.058 1_455 S
O892 C918 1.269 . S
O893 Co885 2.074 . S
O893 C918 1.257 . S
H894 C919 0.930 . S
H895 C925 0.930 . S
O896 Co885 2.093 1_655 S
O896 C888 1.224 . S
H897 C929 0.929 . S
H898 C931 0.930 . S
H899 C932 0.930 . S
H900 C930 0.929 . S
H901 C933 0.928 . S
O902 Co886 2.057 1_455 S
O902 C890 1.232 . S
H903 C922 0.929 . S
H904 C923 0.929 . S
H905 C935 0.931 . S
H906 C927 0.929 . S
H907 C936 0.930 . S
H908 C928 0.931 . S
O909 Co885 2.097 1_655 S
O909 C937 1.214 . S
H910 C938 0.929 . S
H911 C939 0.929 . S
H912 C940 0.930 . S
H913 C941 0.929 . S
H914 C943 0.930 . S
H915 C920 0.930 . S
H916 C924 0.930 . S
O917 Co886 2.037 . S
O917 C937 1.234 . S
C918 O892 1.269 . S
C918 O893 1.257 . S
C919 H894 0.930 . S
C919 C922 1.388 . S
C919 C924 1.418 . S
C920 H915 0.930 . S
C920 C923 1.404 . S
C920 C924 1.353 . S
N921 Co886 2.145 . S
N921 C922 1.397 . S
N921 C923 1.334 . S
C922 H903 0.929 . S
C922 C919 1.388 . S
C922 N921 1.397 . S
C923 H904 0.929 . S
C923 C920 1.404 . S
C923 N921 1.334 . S
C924 H916 0.930 . S
C924 C919 1.418 . S
C924 C920 1.353 . S
C925 H895 0.930 . S
C925 N926 1.330 . S
C925 C927 1.446 . S
N926 Co885 2.151 . S
N926 C925 1.330 . S
N926 C930 1.418 . S
C927 H906 0.929 . S
C927 C925 1.446 . S
C927 C928 1.332 . S
C928 H908 0.931 . S
C928 C927 1.332 . S
C928 C929 1.267 . S
C929 H897 0.929 . S
C929 C928 1.267 . S
C929 C930 1.251 . S
C930 H900 0.929 . S
C930 N926 1.418 . S
C930 C929 1.251 . S
C931 H898 0.930 . S
C931 C933 1.406 . S
C931 C936 1.261 . S
C932 H899 0.930 . S
C932 N934 1.325 . S
C932 C935 1.357 . S
C933 H901 0.928 . S
C933 C931 1.406 . S
C933 N934 1.261 . S
N934 Co885 2.214 . S
N934 C932 1.325 . S
N934 C933 1.261 . S
C935 H905 0.931 . S
C935 C932 1.357 . S
C935 C936 1.312 . S
C936 H907 0.930 . S
C936 C931 1.261 . S
C936 C935 1.312 . S
C937 O909 1.214 . S
C937 O917 1.234 . S
C938 H910 0.929 . S
C938 C941 1.391 . S
C938 C943 1.391 . S
C939 H911 0.929 . S
C939 C940 1.390 . S
C939 N942 1.391 . S
C940 H912 0.930 . S
C940 C939 1.390 . S
C940 C941 1.392 . S
C941 H913 0.929 . S
C941 C938 1.391 . S
C941 C940 1.392 . S
N942 Co886 2.257 . S
N942 C939 1.391 . S
N942 C943 1.388 . S
C943 H914 0.930 . S
C943 C938 1.391 . S
C943 N942 1.388 . S
C944 C945 1.363 1_455 S
C944 C950 1.379 . S
C944 N952 1.356 . S
C945 C944 1.363 1_655 S
C945 C951 1.363 . S
C946 C947 1.363 1_655 S
C946 C951 1.379 . S
C946 N953 1.356 . S
C947 C946 1.363 1_455 S
C947 C950 1.363 . S
N948 C950 1.356 . S
N948 H960 0.984 . S
N948 H961 0.985 . S
N949 C951 1.356 . S
N949 H954 0.984 . S
N949 H955 0.985 . S
C950 C944 1.379 . S
C950 C947 1.363 . S
C950 N948 1.356 . S
C951 C945 1.363 . S
C951 C946 1.379 . S
C951 N949 1.356 . S
N952 C944 1.356 . S
N952 H958 0.984 . S
N952 H959 0.984 . S
N953 C946 1.356 . S
N953 H956 0.984 1_655 S
N953 H957 0.985 . S
H954 N949 0.984 . S
H955 N949 0.985 . S
H956 N953 0.984 1_455 S
H957 N953 0.985 . S
H958 N952 0.984 . S
H959 N952 0.984 . S
H960 N948 0.984 . S
H961 N948 0.985 . S
C962 C963 1.363 . S
C962 C968 1.379 1_655 S
C962 N970 1.356 . S
C963 C962 1.363 . S
C963 C969 1.363 . S
C964 C965 1.363 . S
C964 C969 1.379 1_455 S
C964 N971 1.356 . S
C965 C964 1.363 . S
C965 C968 1.363 . S
N966 C968 1.356 . S
N966 H978 0.984 . S
N966 H979 0.985 . S
N967 C969 1.356 . S
N967 H972 0.984 . S
N967 H973 0.985 . S
C968 C962 1.379 1_455 S
C968 C965 1.363 . S
C968 N966 1.356 . S
C969 C963 1.363 . S
C969 C964 1.379 1_655 S
C969 N967 1.356 . S
N970 C962 1.356 . S
N970 H976 0.984 . S
N970 H977 0.984 . S
N971 C964 1.356 . S
N971 H974 0.984 . S
N971 H975 0.985 . S
H972 N967 0.984 . S
H973 N967 0.985 . S
H974 N971 0.984 . S
H975 N971 0.985 . S
H976 N970 0.984 . S
H977 N970 0.984 . S
H978 N966 0.984 . S
H979 N966 0.985 . S
C980 C981 1.363 . S
C980 C986 1.379 . S
C980 N988 1.356 . S
C981 C980 1.363 . S
C981 C987 1.363 . S
C982 C983 1.363 . S
C982 C987 1.379 . S
C982 N989 1.356 . S
C983 C982 1.363 . S
C983 C986 1.363 . S
N984 C986 1.356 . S
N984 H996 0.984 . S
N984 H997 0.985 . S
N985 C987 1.356 . S
N985 H990 0.984 . S
N985 H991 0.985 . S
C986 C980 1.379 . S
C986 C983 1.363 . S
C986 N984 1.356 . S
C987 C981 1.363 . S
C987 C982 1.379 . S
C987 N985 1.356 . S
N988 C980 1.356 . S
N988 H994 0.984 . S
N988 H995 0.984 . S
N989 C982 1.356 . S
N989 H992 0.984 . S
N989 H993 0.985 . S
H990 N985 0.984 . S
H991 N985 0.985 . S
H992 N989 0.984 . S
H993 N989 0.985 . S
H994 N988 0.984 . S
H995 N988 0.984 . S
H996 N984 0.984 . S
H997 N984 0.985 . S
C998 C999 1.363 . S
C998 C1004 1.379 . S
C998 N1006 1.356 . S
C999 C998 1.363 . S
C999 C1005 1.363 . S
C1000 C1001 1.363 . S
C1000 C1005 1.379 . S
C1000 N1007 1.356 . S
C1001 C1000 1.363 . S
C1001 C1004 1.363 . S
N1002 C1004 1.356 . S
N1002 H1014 0.984 . S
N1002 H1015 0.985 . S
N1003 C1005 1.356 . S
N1003 H1008 0.984 . S
N1003 H1009 0.985 . S
C1004 C998 1.379 . S
C1004 C1001 1.363 . S
C1004 N1002 1.356 . S
C1005 C999 1.363 . S
C1005 C1000 1.379 . S
C1005 N1003 1.356 . S
N1006 C998 1.356 . S
N1006 H1012 0.984 . S
N1006 H1013 0.984 . S
N1007 C1000 1.356 . S
N1007 H1010 0.984 . S
N1007 H1011 0.985 . S
H1008 N1003 0.984 . S
H1009 N1003 0.985 . S
H1010 N1007 0.984 . S
H1011 N1007 0.985 . S
H1012 N1006 0.984 . S
H1013 N1006 0.984 . S
H1014 N1002 0.984 . S
H1015 N1002 0.985 . S
C1016 C1017 1.363 . S
C1016 C1022 1.379 . S
C1016 N1024 1.356 . S
C1017 C1016 1.363 . S
C1017 C1023 1.363 1_655 S
C1018 C1019 1.363 . S
C1018 C1023 1.379 . S
C1018 N1025 1.356 . S
C1019 C1018 1.363 . S
C1019 C1022 1.363 1_455 S
N1020 C1022 1.356 . S
N1020 H1032 0.984 . S
N1020 H1033 0.985 1_655 S
N1021 C1023 1.356 . S
N1021 H1026 0.984 . S
N1021 H1027 0.985 . S
C1022 C1016 1.379 . S
C1022 C1019 1.363 1_655 S
C1022 N1020 1.356 . S
C1023 C1017 1.363 1_455 S
C1023 C1018 1.379 . S
C1023 N1021 1.356 . S
N1024 C1016 1.356 . S
N1024 H1030 0.984 . S
N1024 H1031 0.984 . S
N1025 C1018 1.356 . S
N1025 H1028 0.984 . S
N1025 H1029 0.985 . S
H1026 N1021 0.984 . S
H1027 N1021 0.985 . S
H1028 N1025 0.984 . S
H1029 N1025 0.985 . S
H1030 N1024 0.984 . S
H1031 N1024 0.984 . S
H1032 N1020 0.984 . S
H1033 N1020 0.985 1_455 S
C1034 C1035 1.363 . S
C1034 C1040 1.379 . S
C1034 N1042 1.356 . S
C1035 C1034 1.363 . S
C1035 C1041 1.363 . S
C1036 C1037 1.363 . S
C1036 C1041 1.379 . S
C1036 N1043 1.356 . S
C1037 C1036 1.363 . S
C1037 C1040 1.363 . S
N1038 C1040 1.356 . S
N1038 H1050 0.984 . S
N1038 H1051 0.985 . S
N1039 C1041 1.356 . S
N1039 H1044 0.984 . S
N1039 H1045 0.985 . S
C1040 C1034 1.379 . S
C1040 C1037 1.363 . S
C1040 N1038 1.356 . S
C1041 C1035 1.363 . S
C1041 C1036 1.379 . S
C1041 N1039 1.356 . S
N1042 C1034 1.356 . S
N1042 H1048 0.984 . S
N1042 H1049 0.984 . S
N1043 C1036 1.356 . S
N1043 H1046 0.984 . S
N1043 H1047 0.985 . S
H1044 N1039 0.984 . S
H1045 N1039 0.985 . S
H1046 N1043 0.984 . S
H1047 N1043 0.985 . S
H1048 N1042 0.984 . S
H1049 N1042 0.984 . S
H1050 N1038 0.984 . S
H1051 N1038 0.985 . S
C1052 C1053 1.363 . S
C1052 C1058 1.379 . S
C1052 N1060 1.356 . S
C1053 C1052 1.363 . S
C1053 C1059 1.363 . S
C1054 C1055 1.363 . S
C1054 C1059 1.379 . S
C1054 N1061 1.356 . S
C1055 C1054 1.363 . S
C1055 C1058 1.363 . S
N1056 C1058 1.356 . S
N1056 H1068 0.984 . S
N1056 H1069 0.985 . S
N1057 C1059 1.356 . S
N1057 H1062 0.984 . S
N1057 H1063 0.985 . S
C1058 C1052 1.379 . S
C1058 C1055 1.363 . S
C1058 N1056 1.356 . S
C1059 C1053 1.363 . S
C1059 C1054 1.379 . S
C1059 N1057 1.356 . S
N1060 C1052 1.356 . S
N1060 H1066 0.984 . S
N1060 H1067 0.984 . S
N1061 C1054 1.356 . S
N1061 H1064 0.984 . S
N1061 H1065 0.985 . S
H1062 N1057 0.984 . S
H1063 N1057 0.985 . S
H1064 N1061 0.984 . S
H1065 N1061 0.985 . S
H1066 N1060 0.984 . S
H1067 N1060 0.984 . S
H1068 N1056 0.984 . S
H1069 N1056 0.985 . S
C1070 C1071 1.363 . S
C1070 C1076 1.379 1_455 S
C1070 N1078 1.356 . S
C1071 C1070 1.363 . S
C1071 C1077 1.363 . S
C1072 C1073 1.363 . S
C1072 C1077 1.379 1_655 S
C1072 N1079 1.356 . S
C1073 C1072 1.363 . S
C1073 C1076 1.363 . S
N1074 C1076 1.356 . S
N1074 H1086 0.984 . S
N1074 H1087 0.985 . S
N1075 C1077 1.356 . S
N1075 H1080 0.984 . S
N1075 H1081 0.985 . S
C1076 C1070 1.379 1_655 S
C1076 C1073 1.363 . S
C1076 N1074 1.356 . S
C1077 C1071 1.363 . S
C1077 C1072 1.379 1_455 S
C1077 N1075 1.356 . S
N1078 C1070 1.356 . S
N1078 H1084 0.984 . S
N1078 H1085 0.984 . S
N1079 C1072 1.356 . S
N1079 H1082 0.984 . S
N1079 H1083 0.985 . S
H1080 N1075 0.984 . S
H1081 N1075 0.985 . S
H1082 N1079 0.984 . S
H1083 N1079 0.985 . S
H1084 N1078 0.984 . S
H1085 N1078 0.984 . S
H1086 N1074 0.984 . S
H1087 N1074 0.985 . S
C1088 C1089 1.363 1_545 S
C1088 C1094 1.379 . S
C1088 N1096 1.356 . S
C1089 C1088 1.363 1_565 S
C1089 C1095 1.363 . S
C1090 C1091 1.363 1_565 S
C1090 C1095 1.379 . S
C1090 N1097 1.356 1_455 S
C1091 C1090 1.363 1_545 S
C1091 C1094 1.363 . S
N1092 C1094 1.356 . S
N1092 H1104 0.984 . S
N1092 H1105 0.985 . S
N1093 C1095 1.356 1_655 S
N1093 H1098 0.984 1_655 S
N1093 H1099 0.985 . S
C1094 C1088 1.379 . S
C1094 C1091 1.363 . S
C1094 N1092 1.356 . S
C1095 C1089 1.363 . S
C1095 C1090 1.379 . S
C1095 N1093 1.356 1_455 S
N1096 C1088 1.356 . S
N1096 H1102 0.984 . S
N1096 H1103 0.984 . S
N1097 C1090 1.356 1_655 S
N1097 H1100 0.984 1_655 S
N1097 H1101 0.985 . S
H1098 N1093 0.984 1_455 S
H1099 N1093 0.985 . S
H1100 N1097 0.984 1_455 S
H1101 N1097 0.985 . S
H1102 N1096 0.984 . S
H1103 N1096 0.984 . S
H1104 N1092 0.984 . S
H1105 N1092 0.985 . S
C1106 C1107 1.363 . S
C1106 C1112 1.379 . S
C1106 N1114 1.356 . S
C1107 C1106 1.363 . S
C1107 C1113 1.363 . S
C1108 C1109 1.363 . S
C1108 C1113 1.379 . S
C1108 N1115 1.356 . S
C1109 C1108 1.363 . S
C1109 C1112 1.363 . S
N1110 C1112 1.356 . S
N1110 H1122 0.984 . S
N1110 H1123 0.985 . S
N1111 C1113 1.356 . S
N1111 H1116 0.984 . S
N1111 H1117 0.985 . S
C1112 C1106 1.379 . S
C1112 C1109 1.363 . S
C1112 N1110 1.356 . S
C1113 C1107 1.363 . S
C1113 C1108 1.379 . S
C1113 N1111 1.356 . S
N1114 C1106 1.356 . S
N1114 H1120 0.984 . S
N1114 H1121 0.984 . S
N1115 C1108 1.356 . S
N1115 H1118 0.984 . S
N1115 H1119 0.985 . S
H1116 N1111 0.984 . S
H1117 N1111 0.985 . S
H1118 N1115 0.984 . S
H1119 N1115 0.985 . S
H1120 N1114 0.984 . S
H1121 N1114 0.984 . S
H1122 N1110 0.984 . S
H1123 N1110 0.985 . S
C1124 C1125 1.363 1_545 S
C1124 C1130 1.379 1_554 S
C1124 N1132 1.356 . S
C1125 C1124 1.363 1_565 S
C1125 C1131 1.363 . S
C1126 C1127 1.363 1_565 S
C1126 C1131 1.379 1_556 S
C1126 N1133 1.356 . S
C1127 C1126 1.363 1_545 S
C1127 C1130 1.363 . S
N1128 C1130 1.356 . S
N1128 H1140 0.984 . S
N1128 H1141 0.985 . S
N1129 C1131 1.356 . S
N1129 H1134 0.984 . S
N1129 H1135 0.985 . S
C1130 C1124 1.379 1_556 S
C1130 C1127 1.363 . S
C1130 N1128 1.356 . S
C1131 C1125 1.363 . S
C1131 C1126 1.379 1_554 S
C1131 N1129 1.356 . S
N1132 C1124 1.356 . S
N1132 H1138 0.984 . S
N1132 H1139 0.984 . S
N1133 C1126 1.356 . S
N1133 H1136 0.984 . S
N1133 H1137 0.985 . S
H1134 N1129 0.984 . S
H1135 N1129 0.985 . S
H1136 N1133 0.984 . S
H1137 N1133 0.985 . S
H1138 N1132 0.984 . S
H1139 N1132 0.984 . S
H1140 N1128 0.984 . S
H1141 N1128 0.985 . S
C1142 C1143 1.363 . S
C1142 C1148 1.379 . S
C1142 N1150 1.356 . S
C1143 C1142 1.363 . S
C1143 C1149 1.363 . S
C1144 C1145 1.363 . S
C1144 C1149 1.379 . S
C1144 N1151 1.356 . S
C1145 C1144 1.363 . S
C1145 C1148 1.363 . S
N1146 C1148 1.356 . S
N1146 H1158 0.984 . S
N1146 H1159 0.985 . S
N1147 C1149 1.356 . S
N1147 H1152 0.984 . S
N1147 H1153 0.985 . S
C1148 C1142 1.379 . S
C1148 C1145 1.363 . S
C1148 N1146 1.356 . S
C1149 C1143 1.363 . S
C1149 C1144 1.379 . S
C1149 N1147 1.356 . S
N1150 C1142 1.356 . S
N1150 H1156 0.984 . S
N1150 H1157 0.984 . S
N1151 C1144 1.356 . S
N1151 H1154 0.984 . S
N1151 H1155 0.985 . S
H1152 N1147 0.984 . S
H1153 N1147 0.985 . S
H1154 N1151 0.984 . S
H1155 N1151 0.985 . S
H1156 N1150 0.984 . S
H1157 N1150 0.984 . S
H1158 N1146 0.984 . S
H1159 N1146 0.985 . S
C1160 C1161 1.363 . S
C1160 C1166 1.379 . S
C1160 N1168 1.356 . S
C1161 C1160 1.363 . S
C1161 C1167 1.363 . S
C1162 C1163 1.363 . S
C1162 C1167 1.379 . S
C1162 N1169 1.356 . S
C1163 C1162 1.363 . S
C1163 C1166 1.363 . S
N1164 C1166 1.356 . S
N1164 H1176 0.984 . S
N1164 H1177 0.985 . S
N1165 C1167 1.356 . S
N1165 H1170 0.984 . S
N1165 H1171 0.985 . S
C1166 C1160 1.379 . S
C1166 C1163 1.363 . S
C1166 N1164 1.356 . S
C1167 C1161 1.363 . S
C1167 C1162 1.379 . S
C1167 N1165 1.356 . S
N1168 C1160 1.356 . S
N1168 H1174 0.984 . S
N1168 H1175 0.984 . S
N1169 C1162 1.356 . S
N1169 H1172 0.984 . S
N1169 H1173 0.985 . S
H1170 N1165 0.984 . S
H1171 N1165 0.985 . S
H1172 N1169 0.984 . S
H1173 N1169 0.985 . S
H1174 N1168 0.984 . S
H1175 N1168 0.984 . S
H1176 N1164 0.984 . S
H1177 N1164 0.985 . S
C1178 C1179 1.363 . S
C1178 C1184 1.379 . S
C1178 N1186 1.356 . S
C1179 C1178 1.363 . S
C1179 C1185 1.363 . S
C1180 C1181 1.363 . S
C1180 C1185 1.379 . S
C1180 N1187 1.356 . S
C1181 C1180 1.363 . S
C1181 C1184 1.363 . S
N1182 C1184 1.356 . S
N1182 H1194 0.984 . S
N1182 H1195 0.985 . S
N1183 C1185 1.356 . S
N1183 H1188 0.984 . S
N1183 H1189 0.985 . S
C1184 C1178 1.379 . S
C1184 C1181 1.363 . S
C1184 N1182 1.356 . S
C1185 C1179 1.363 . S
C1185 C1180 1.379 . S
C1185 N1183 1.356 . S
N1186 C1178 1.356 . S
N1186 H1192 0.984 . S
N1186 H1193 0.984 . S
N1187 C1180 1.356 . S
N1187 H1190 0.984 . S
N1187 H1191 0.985 . S
H1188 N1183 0.984 . S
H1189 N1183 0.985 . S
H1190 N1187 0.984 . S
H1191 N1187 0.985 . S
H1192 N1186 0.984 . S
H1193 N1186 0.984 . S
H1194 N1182 0.984 . S
H1195 N1182 0.985 . S
C1196 C1197 1.363 . S
C1196 C1202 1.379 1_556 S
C1196 N1204 1.356 . S
C1197 C1196 1.363 . S
C1197 C1203 1.363 . S
C1198 C1199 1.363 . S
C1198 C1203 1.379 1_554 S
C1198 N1205 1.356 . S
C1199 C1198 1.363 . S
C1199 C1202 1.363 . S
N1200 C1202 1.356 . S
N1200 H1212 0.984 . S
N1200 H1213 0.985 . S
N1201 C1203 1.356 . S
N1201 H1206 0.984 . S
N1201 H1207 0.985 . S
C1202 C1196 1.379 1_554 S
C1202 C1199 1.363 . S
C1202 N1200 1.356 . S
C1203 C1197 1.363 . S
C1203 C1198 1.379 1_556 S
C1203 N1201 1.356 . S
N1204 C1196 1.356 . S
N1204 H1210 0.984 . S
N1204 H1211 0.984 . S
N1205 C1198 1.356 . S
N1205 H1208 0.984 . S
N1205 H1209 0.985 . S
H1206 N1201 0.984 . S
H1207 N1201 0.985 . S
H1208 N1205 0.984 . S
H1209 N1205 0.985 . S
H1210 N1204 0.984 . S
H1211 N1204 0.984 . S
H1212 N1200 0.984 . S
H1213 N1200 0.985 . S
C1214 C1215 1.363 . S
C1214 C1220 1.379 . S
C1214 N1222 1.356 . S
C1215 C1214 1.363 . S
C1215 C1221 1.363 . S
C1216 C1217 1.363 . S
C1216 C1221 1.379 . S
C1216 N1223 1.356 1_655 S
C1217 C1216 1.363 . S
C1217 C1220 1.363 . S
N1218 C1220 1.356 . S
N1218 H1230 0.984 . S
N1218 H1231 0.985 . S
N1219 C1221 1.356 1_455 S
N1219 H1224 0.984 . S
N1219 H1225 0.985 . S
C1220 C1214 1.379 . S
C1220 C1217 1.363 . S
C1220 N1218 1.356 . S
C1221 C1215 1.363 . S
C1221 C1216 1.379 . S
C1221 N1219 1.356 1_655 S
N1222 C1214 1.356 . S
N1222 H1228 0.984 . S
N1222 H1229 0.984 . S
N1223 C1216 1.356 1_455 S
N1223 H1226 0.984 . S
N1223 H1227 0.985 . S
H1224 N1219 0.984 . S
H1225 N1219 0.985 . S
H1226 N1223 0.984 . S
H1227 N1223 0.985 . S
H1228 N1222 0.984 . S
H1229 N1222 0.984 . S
H1230 N1218 0.984 . S
H1231 N1218 0.985 . S
C1232 C1233 1.363 . S
C1232 C1238 1.379 . S
C1232 N1240 1.356 . S
C1233 C1232 1.363 . S
C1233 C1239 1.363 . S
C1234 C1235 1.363 . S
C1234 C1239 1.379 . S
C1234 N1241 1.356 . S
C1235 C1234 1.363 . S
C1235 C1238 1.363 . S
N1236 C1238 1.356 . S
N1236 H1248 0.984 . S
N1236 H1249 0.985 . S
N1237 C1239 1.356 . S
N1237 H1242 0.984 . S
N1237 H1243 0.985 . S
C1238 C1232 1.379 . S
C1238 C1235 1.363 . S
C1238 N1236 1.356 . S
C1239 C1233 1.363 . S
C1239 C1234 1.379 . S
C1239 N1237 1.356 . S
N1240 C1232 1.356 . S
N1240 H1246 0.984 . S
N1240 H1247 0.984 . S
N1241 C1234 1.356 . S
N1241 H1244 0.984 . S
N1241 H1245 0.985 1_565 S
H1242 N1237 0.984 . S
H1243 N1237 0.985 . S
H1244 N1241 0.984 . S
H1245 N1241 0.985 1_545 S
H1246 N1240 0.984 . S
H1247 N1240 0.984 . S
H1248 N1236 0.984 . S
H1249 N1236 0.985 . S
C1250 C1251 1.363 . S
C1250 C1256 1.379 . S
C1250 N1258 1.356 . S
C1251 C1250 1.363 . S
C1251 C1257 1.363 . S
C1252 C1253 1.363 . S
C1252 C1257 1.379 . S
C1252 N1259 1.356 . S
C1253 C1252 1.363 . S
C1253 C1256 1.363 . S
N1254 C1256 1.356 . S
N1254 H1266 0.984 . S
N1254 H1267 0.985 . S
N1255 C1257 1.356 . S
N1255 H1260 0.984 . S
N1255 H1261 0.985 . S
C1256 C1250 1.379 . S
C1256 C1253 1.363 . S
C1256 N1254 1.356 . S
C1257 C1251 1.363 . S
C1257 C1252 1.379 . S
C1257 N1255 1.356 . S
N1258 C1250 1.356 . S
N1258 H1264 0.984 . S
N1258 H1265 0.984 . S
N1259 C1252 1.356 . S
N1259 H1262 0.984 . S
N1259 H1263 0.985 . S
H1260 N1255 0.984 . S
H1261 N1255 0.985 . S
H1262 N1259 0.984 . S
H1263 N1259 0.985 . S
H1264 N1258 0.984 . S
H1265 N1258 0.984 . S
H1266 N1254 0.984 . S
H1267 N1254 0.985 . S
C1268 C1269 1.363 . S
C1268 C1274 1.379 . S
C1268 N1276 1.356 . S
C1269 C1268 1.363 . S
C1269 C1275 1.363 . S
C1270 C1271 1.363 . S
C1270 C1275 1.379 . S
C1270 N1277 1.356 . S
C1271 C1270 1.363 . S
C1271 C1274 1.363 . S
N1272 C1274 1.356 . S
N1272 H1284 0.984 . S
N1272 H1285 0.985 . S
N1273 C1275 1.356 . S
N1273 H1278 0.984 . S
N1273 H1279 0.985 . S
C1274 C1268 1.379 . S
C1274 C1271 1.363 . S
C1274 N1272 1.356 . S
C1275 C1269 1.363 . S
C1275 C1270 1.379 . S
C1275 N1273 1.356 . S
N1276 C1268 1.356 . S
N1276 H1282 0.977 1_545 S
N1276 H1283 0.984 . S
N1277 C1270 1.356 . S
N1277 H1280 0.984 . S
N1277 H1281 0.985 . S
H1278 N1273 0.984 . S
H1279 N1273 0.985 . S
H1280 N1277 0.984 . S
H1281 N1277 0.985 . S
H1282 N1276 0.977 1_565 S
H1283 N1276 0.984 . S
H1284 N1272 0.984 . S
H1285 N1272 0.985 . S
C1286 C1287 1.363 . S
C1286 C1292 1.379 . S
C1286 N1294 1.356 . S
C1287 C1286 1.363 . S
C1287 C1293 1.363 . S
C1288 C1289 1.363 . S
C1288 C1293 1.379 . S
C1288 N1295 1.356 . S
C1289 C1288 1.363 . S
C1289 C1292 1.363 . S
N1290 C1292 1.356 . S
N1290 H1302 0.984 . S
N1290 H1303 0.985 . S
N1291 C1293 1.356 . S
N1291 H1296 0.984 . S
N1291 H1297 0.985 . S
C1292 C1286 1.379 . S
C1292 C1289 1.363 . S
C1292 N1290 1.356 . S
C1293 C1287 1.363 . S
C1293 C1288 1.379 . S
C1293 N1291 1.356 . S
N1294 C1286 1.356 . S
N1294 H1300 0.984 1_545 S
N1294 H1301 0.984 . S
N1295 C1288 1.356 . S
N1295 H1298 0.984 . S
N1295 H1299 0.985 . S
H1296 N1291 0.984 . S
H1297 N1291 0.985 . S
H1298 N1295 0.984 . S
H1299 N1295 0.985 . S
H1300 N1294 0.984 1_565 S
H1301 N1294 0.984 . S
H1302 N1290 0.984 . S
H1303 N1290 0.985 . S
C1304 C1305 1.363 . S
C1304 C1310 1.379 . S
C1304 N1312 1.356 . S
C1305 C1304 1.363 . S
C1305 C1311 1.363 . S
C1306 C1307 1.363 . S
C1306 C1311 1.379 . S
C1306 N1313 1.356 . S
C1307 C1306 1.363 . S
C1307 C1310 1.363 . S
N1308 C1310 1.356 . S
N1308 H1320 0.984 . S
N1308 H1321 0.985 . S
N1309 C1311 1.356 . S
N1309 H1314 0.984 . S
N1309 H1315 0.985 . S
C1310 C1304 1.379 . S
C1310 C1307 1.363 . S
C1310 N1308 1.356 . S
C1311 C1305 1.363 . S
C1311 C1306 1.379 . S
C1311 N1309 1.356 . S
N1312 C1304 1.356 . S
N1312 H1318 0.984 . S
N1312 H1319 0.984 . S
N1313 C1306 1.356 . S
N1313 H1316 0.984 . S
N1313 H1317 0.985 . S
H1314 N1309 0.984 . S
H1315 N1309 0.985 . S
H1316 N1313 0.984 . S
H1317 N1313 0.985 . S
H1318 N1312 0.984 . S
H1319 N1312 0.984 . S
H1320 N1308 0.984 . S
H1321 N1308 0.985 . S
C1322 C1323 1.363 . S
C1322 C1328 1.379 . S
C1322 N1330 1.356 . S
C1323 C1322 1.363 . S
C1323 C1329 1.363 . S
C1324 C1325 1.363 . S
C1324 C1329 1.379 . S
C1324 N1331 1.356 . S
C1325 C1324 1.363 . S
C1325 C1328 1.363 . S
N1326 C1328 1.356 . S
N1326 H1338 0.984 . S
N1326 H1339 0.985 . S
N1327 C1329 1.356 . S
N1327 H1332 0.984 . S
N1327 H1333 0.985 . S
C1328 C1322 1.379 . S
C1328 C1325 1.363 . S
C1328 N1326 1.356 . S
C1329 C1323 1.363 . S
C1329 C1324 1.379 . S
C1329 N1327 1.356 . S
N1330 C1322 1.356 . S
N1330 H1336 0.984 . S
N1330 H1337 0.984 . S
N1331 C1324 1.356 . S
N1331 H1334 0.984 . S
N1331 H1335 0.985 . S
H1332 N1327 0.984 . S
H1333 N1327 0.985 . S
H1334 N1331 0.984 . S
H1335 N1331 0.985 . S
H1336 N1330 0.984 . S
H1337 N1330 0.984 . S
H1338 N1326 0.984 . S
H1339 N1326 0.985 . S
C1340 C1341 1.363 . S
C1340 C1346 1.379 . S
C1340 N1348 1.356 . S
C1341 C1340 1.363 . S
C1341 C1347 1.363 . S
C1342 C1343 1.363 . S
C1342 C1347 1.379 . S
C1342 N1349 1.356 . S
C1343 C1342 1.363 . S
C1343 C1346 1.363 . S
N1344 C1346 1.356 . S
N1344 H1356 0.984 . S
N1344 H1357 0.985 1_565 S
N1345 C1347 1.356 . S
N1345 H1350 0.984 . S
N1345 H1351 0.985 . S
C1346 C1340 1.379 . S
C1346 C1343 1.363 . S
C1346 N1344 1.356 . S
C1347 C1341 1.363 . S
C1347 C1342 1.379 . S
C1347 N1345 1.356 . S
N1348 C1340 1.356 . S
N1348 H1354 0.984 . S
N1348 H1355 0.984 . S
N1349 C1342 1.356 . S
N1349 H1352 0.984 . S
N1349 H1353 0.985 . S
H1350 N1345 0.984 . S
H1351 N1345 0.985 . S
H1352 N1349 0.984 . S
H1353 N1349 0.985 . S
H1354 N1348 0.984 . S
H1355 N1348 0.984 . S
H1356 N1344 0.984 . S
H1357 N1344 0.985 1_545 S
C1358 C1359 1.363 . S
C1358 C1364 1.379 . S
C1358 N1366 1.356 . S
C1359 C1358 1.363 . S
C1359 C1365 1.363 . S
C1360 C1361 1.363 . S
C1360 C1365 1.379 . S
C1360 N1367 1.356 . S
C1361 C1360 1.363 . S
C1361 C1364 1.363 . S
N1362 C1364 1.356 . S
N1362 H1374 0.984 1_565 S
N1362 H1375 0.985 1_565 S
N1363 C1365 1.356 . S
N1363 H1368 0.984 . S
N1363 H1369 0.985 . S
C1364 C1358 1.379 . S
C1364 C1361 1.363 . S
C1364 N1362 1.356 . S
C1365 C1359 1.363 . S
C1365 C1360 1.379 . S
C1365 N1363 1.356 . S
N1366 C1358 1.356 . S
N1366 H1372 0.984 . S
N1366 H1373 0.984 . S
N1367 C1360 1.356 . S
N1367 H1370 0.984 . S
N1367 H1371 0.985 . S
H1368 N1363 0.984 . S
H1369 N1363 0.985 . S
H1370 N1367 0.984 . S
H1371 N1367 0.985 . S
H1372 N1366 0.984 . S
H1373 N1366 0.984 . S
H1374 N1362 0.984 1_545 S
H1375 N1362 0.985 1_545 S
C1376 C1377 1.363 . S
C1376 C1382 1.379 . S
C1376 N1384 1.356 . S
C1377 C1376 1.363 . S
C1377 C1383 1.363 . S
C1378 C1379 1.363 . S
C1378 C1383 1.379 . S
C1378 N1385 1.356 . S
C1379 C1378 1.363 . S
C1379 C1382 1.363 . S
N1380 C1382 1.356 . S
N1380 H1392 0.984 . S
N1380 H1393 0.985 . S
N1381 C1383 1.356 . S
N1381 H1386 0.984 . S
N1381 H1387 0.985 . S
C1382 C1376 1.379 . S
C1382 C1379 1.363 . S
C1382 N1380 1.356 . S
C1383 C1377 1.363 . S
C1383 C1378 1.379 . S
C1383 N1381 1.356 . S
N1384 C1376 1.356 . S
N1384 H1390 0.984 . S
N1384 H1391 0.984 . S
N1385 C1378 1.356 . S
N1385 H1388 0.984 . S
N1385 H1389 0.985 . S
H1386 N1381 0.984 . S
H1387 N1381 0.985 . S
H1388 N1385 0.984 . S
H1389 N1385 0.985 . S
H1390 N1384 0.984 . S
H1391 N1384 0.984 . S
H1392 N1380 0.984 . S
H1393 N1380 0.985 . S
C1394 C1395 1.363 . S
C1394 C1400 1.379 . S
C1394 N1402 1.356 . S
C1395 C1394 1.363 . S
C1395 C1401 1.363 . S
C1396 C1397 1.363 . S
C1396 C1401 1.379 . S
C1396 N1403 1.356 . S
C1397 C1396 1.363 . S
C1397 C1400 1.363 . S
N1398 C1400 1.356 . S
N1398 H1410 0.984 . S
N1398 H1411 0.985 . S
N1399 C1401 1.356 . S
N1399 H1404 0.984 . S
N1399 H1405 0.985 . S
C1400 C1394 1.379 . S
C1400 C1397 1.363 . S
C1400 N1398 1.356 . S
C1401 C1395 1.363 . S
C1401 C1396 1.379 . S
C1401 N1399 1.356 . S
N1402 C1394 1.356 . S
N1402 H1408 0.984 . S
N1402 H1409 0.984 . S
N1403 C1396 1.356 . S
N1403 H1406 0.984 . S
N1403 H1407 0.985 . S
H1404 N1399 0.984 . S
H1405 N1399 0.985 . S
H1406 N1403 0.984 . S
H1407 N1403 0.985 . S
H1408 N1402 0.984 . S
H1409 N1402 0.984 . S
H1410 N1398 0.984 . S
H1411 N1398 0.985 . S
C1412 C1413 1.363 . S
C1412 C1418 1.379 . S
C1412 N1420 1.356 . S
C1413 C1412 1.363 . S
C1413 C1419 1.363 . S
C1414 C1415 1.363 . S
C1414 C1419 1.379 . S
C1414 N1421 1.356 . S
C1415 C1414 1.363 . S
C1415 C1418 1.363 . S
N1416 C1418 1.356 . S
N1416 H1428 0.984 . S
N1416 H1429 0.985 . S
N1417 C1419 1.356 . S
N1417 H1422 0.984 . S
N1417 H1423 0.985 . S
C1418 C1412 1.379 . S
C1418 C1415 1.363 . S
C1418 N1416 1.356 . S
C1419 C1413 1.363 . S
C1419 C1414 1.379 . S
C1419 N1417 1.356 . S
N1420 C1412 1.356 . S
N1420 H1426 0.984 . S
N1420 H1427 0.984 . S
N1421 C1414 1.356 . S
N1421 H1424 0.984 . S
N1421 H1425 0.985 . S
H1422 N1417 0.984 . S
H1423 N1417 0.985 . S
H1424 N1421 0.984 . S
H1425 N1421 0.985 . S
H1426 N1420 0.984 . S
H1427 N1420 0.984 . S
H1428 N1416 0.984 . S
H1429 N1416 0.985 . S
C1430 C1431 1.363 . S
C1430 C1436 1.379 . S
C1430 N1438 1.356 . S
C1431 C1430 1.363 . S
C1431 C1437 1.363 . S
C1432 C1433 1.363 . S
C1432 C1437 1.379 . S
C1432 N1439 1.356 . S
C1433 C1432 1.363 . S
C1433 C1436 1.363 . S
N1434 C1436 1.356 . S
N1434 H1446 0.984 . S
N1434 H1447 0.985 . S
N1435 C1437 1.356 . S
N1435 H1440 0.984 . S
N1435 H1441 0.985 . S
C1436 C1430 1.379 . S
C1436 C1433 1.363 . S
C1436 N1434 1.356 . S
C1437 C1431 1.363 . S
C1437 C1432 1.379 . S
C1437 N1435 1.356 . S
N1438 C1430 1.356 . S
N1438 H1444 0.984 . S
N1438 H1445 0.984 . S
N1439 C1432 1.356 . S
N1439 H1442 0.984 . S
N1439 H1443 0.985 . S
H1440 N1435 0.984 . S
H1441 N1435 0.985 . S
H1442 N1439 0.984 . S
H1443 N1439 0.985 . S
H1444 N1438 0.984 . S
H1445 N1438 0.984 . S
H1446 N1434 0.984 . S
H1447 N1434 0.985 . S
C1448 C1449 1.363 . S
C1448 C1454 1.379 . S
C1448 N1456 1.356 . S
C1449 C1448 1.363 . S
C1449 C1455 1.363 . S
C1450 C1451 1.363 . S
C1450 C1455 1.379 . S
C1450 N1457 1.356 . S
C1451 C1450 1.363 . S
C1451 C1454 1.363 . S
N1452 C1454 1.356 . S
N1452 H1464 0.984 . S
N1452 H1465 0.985 . S
N1453 C1455 1.356 . S
N1453 H1458 0.984 . S
N1453 H1459 0.985 . S
C1454 C1448 1.379 . S
C1454 C1451 1.363 . S
C1454 N1452 1.356 . S
C1455 C1449 1.363 . S
C1455 C1450 1.379 . S
C1455 N1453 1.356 . S
N1456 C1448 1.356 . S
N1456 H1462 0.984 . S
N1456 H1463 0.984 . S
N1457 C1450 1.356 . S
N1457 H1460 0.984 . S
N1457 H1461 0.985 . S
H1458 N1453 0.984 . S
H1459 N1453 0.985 . S
H1460 N1457 0.984 . S
H1461 N1457 0.985 . S
H1462 N1456 0.984 . S
H1463 N1456 0.984 . S
H1464 N1452 0.984 . S
H1465 N1452 0.985 . S
C1466 C1467 1.363 . S
C1466 C1472 1.379 . S
C1466 N1474 1.356 . S
C1467 C1466 1.363 . S
C1467 C1473 1.363 . S
C1468 C1469 1.363 . S
C1468 C1473 1.379 . S
C1468 N1475 1.356 . S
C1469 C1468 1.363 . S
C1469 C1472 1.363 . S
N1470 C1472 1.356 . S
N1470 H1482 0.984 . S
N1470 H1483 0.985 . S
N1471 C1473 1.356 . S
N1471 H1476 0.984 . S
N1471 H1477 0.985 . S
C1472 C1466 1.379 . S
C1472 C1469 1.363 . S
C1472 N1470 1.356 . S
C1473 C1467 1.363 . S
C1473 C1468 1.379 . S
C1473 N1471 1.356 . S
N1474 C1466 1.356 . S
N1474 H1480 0.984 . S
N1474 H1481 0.984 . S
N1475 C1468 1.356 . S
N1475 H1478 0.984 . S
N1475 H1479 0.985 . S
H1476 N1471 0.984 . S
H1477 N1471 0.985 . S
H1478 N1475 0.984 . S
H1479 N1475 0.985 . S
H1480 N1474 0.984 . S
H1481 N1474 0.984 . S
H1482 N1470 0.984 . S
H1483 N1470 0.985 . S
C1484 C1485 1.363 . S
C1484 C1490 1.379 . S
C1484 N1492 1.356 . S
C1485 C1484 1.363 . S
C1485 C1491 1.363 . S
C1486 C1487 1.363 . S
C1486 C1491 1.379 . S
C1486 N1493 1.356 . S
C1487 C1486 1.363 . S
C1487 C1490 1.363 . S
N1488 C1490 1.356 . S
N1488 H1500 0.984 . S
N1488 H1501 0.985 . S
N1489 C1491 1.356 . S
N1489 H1494 0.984 . S
N1489 H1495 0.985 . S
C1490 C1484 1.379 . S
C1490 C1487 1.363 . S
C1490 N1488 1.356 . S
C1491 C1485 1.363 . S
C1491 C1486 1.379 . S
C1491 N1489 1.356 . S
N1492 C1484 1.356 . S
N1492 H1498 0.984 . S
N1492 H1499 0.984 . S
N1493 C1486 1.356 . S
N1493 H1496 0.984 . S
N1493 H1497 0.985 . S
H1494 N1489 0.984 . S
H1495 N1489 0.985 . S
H1496 N1493 0.984 . S
H1497 N1493 0.985 . S
H1498 N1492 0.984 . S
H1499 N1492 0.984 . S
H1500 N1488 0.984 . S
H1501 N1488 0.985 . S
C1502 C1503 1.363 . S
C1502 C1508 1.379 . S
C1502 N1510 1.356 . S
C1503 C1502 1.363 . S
C1503 C1509 1.363 . S
C1504 C1505 1.363 . S
C1504 C1509 1.379 . S
C1504 N1511 1.356 . S
C1505 C1504 1.363 . S
C1505 C1508 1.363 . S
N1506 C1508 1.356 . S
N1506 H1518 0.984 . S
N1506 H1519 0.985 . S
N1507 C1509 1.356 . S
N1507 H1512 0.984 . S
N1507 H1513 0.985 . S
C1508 C1502 1.379 . S
C1508 C1505 1.363 . S
C1508 N1506 1.356 . S
C1509 C1503 1.363 . S
C1509 C1504 1.379 . S
C1509 N1507 1.356 . S
N1510 C1502 1.356 . S
N1510 H1516 0.984 . S
N1510 H1517 0.984 . S
N1511 C1504 1.356 . S
N1511 H1514 0.984 . S
N1511 H1515 0.985 . S
H1512 N1507 0.984 . S
H1513 N1507 0.985 . S
H1514 N1511 0.984 . S
H1515 N1511 0.985 . S
H1516 N1510 0.984 . S
H1517 N1510 0.984 . S
H1518 N1506 0.984 . S
H1519 N1506 0.985 . S
C945 C5 1.435 . S
C947 C772 1.435 . S
C963 C654 1.435 . S
C965 C64 1.435 . S
C981 C713 1.435 . S
C983 C123 1.435 . S
C999 C595 1.435 . S
C1001 C182 1.435 . S
C1017 C241 1.435 . S
C1019 C890 1.435 . S
C1035 C300 1.435 . S
C1037 C536 1.435 . S
C1053 C831 1.435 . S
C1055 C359 1.435 . S
C1071 C418 1.435 . S
C1073 C477 1.435 . S
C1089 C239 1.623 . S
C1091 C3 1.623 . S
C1107 C62 1.623 . S
C1109 C298 1.623 . S
C1125 C121 1.623 . S
C1127 C357 1.623 . S
C1143 C416 1.623 . S
C1145 C180 1.623 . S
C1161 C475 1.623 . S
C1163 C593 1.623 . S
C1179 C534 1.623 . S
C1181 C652 1.623 . S
C1197 C829 1.623 . S
C1199 C711 1.623 . S
C1215 C770 1.623 . S
C1217 C888 1.623 . S
C1233 C347 1.472 . S
C1235 C52 1.472 . S
C1251 C111 1.472 . S
C1253 C406 1.472 . S
C1269 C170 1.472 . S
C1271 C465 1.472 . S
C1287 C288 1.472 . S
C1289 C229 1.472 . S
C1305 C269 1.746 . S
C1307 C623 1.746 . S
C1323 C151 1.746 . S
C1325 C505 1.746 . S
C1341 C682 1.746 . S
C1343 C387 1.746 . S
C1359 C564 1.746 . S
C1361 C33 1.746 . S
C1377 C524 1.472 . S
C1379 C760 1.472 . S
C1395 C642 1.472 . S
C1397 C937 1.472 . S
C1413 C819 1.472 . S
C1415 C583 1.472 . S
C1431 C701 1.472 . S
C1433 C878 1.472 . S
C1449 C859 1.746 . S
C1451 C92 1.746 . S
C1467 C800 1.746 . S
C1469 C328 1.746 . S
C1485 C918 1.746 . S
C1487 C210 1.746 . S
C1503 C741 1.746 . S
C1505 C446 1.746 . S
