# Generated by pormake.
# Topology bsn, (6)-cn, num edge types: 1
# Building blocks:
#     Node 0, Type 0, BuildingBlock: JUFBIX_clean_sbu_0, # of connection points: 6
#     Node 1, Type 0, BuildingBlock: JUFBIX_clean_sbu_0, # of connection points: 6
#     Node 2, Type 0, BuildingBlock: JUFBIX_clean_sbu_0, # of connection points: 6
#     Node 3, Type 0, BuildingBlock: JUFBIX_clean_sbu_0, # of connection points: 6
#     Edge 4, Type (0, 0), BuildingBlock: FUNLAD_clean_linker_0, # of connection points: 2
#     Edge 5, Type (0, 0), BuildingBlock: FUNLAD_clean_linker_0, # of connection points: 2
#     Edge 6, Type (0, 0), BuildingBlock: FUNLAD_clean_linker_0, # of connection points: 2
#     Edge 7, Type (0, 0), BuildingBlock: FUNLAD_clean_linker_0, # of connection points: 2
#     Edge 8, Type (0, 0), BuildingBlock: FUNLAD_clean_linker_0, # of connection points: 2
#     Edge 9, Type (0, 0), BuildingBlock: FUNLAD_clean_linker_0, # of connection points: 2
#     Edge 10, Type (0, 0), BuildingBlock: FUNLAD_clean_linker_0, # of connection points: 2
#     Edge 11, Type (0, 0), BuildingBlock: FUNLAD_clean_linker_0, # of connection points: 2
#     Edge 12, Type (0, 0), BuildingBlock: FUNLAD_clean_linker_0, # of connection points: 2
#     Edge 13, Type (0, 0), BuildingBlock: FUNLAD_clean_linker_0, # of connection points: 2
#     Edge 14, Type (0, 0), BuildingBlock: FUNLAD_clean_linker_0, # of connection points: 2
#     Edge 15, Type (0, 0), BuildingBlock: FUNLAD_clean_linker_0, # of connection points: 2
# Relax obj value: 0.106
# Max RMSD: 0.165
# Mean RMSD: 0.165
data_MOF--net-bsn--node1-JUFBIX_clean_sbu_0--edge1-FUNLAD_clean_linker_0
_symmetry_space_group_name_H-M    P1
_symmetry_Int_Tables_number       1
_symmetry_cell_setting            triclinic
loop_
_symmetry_equiv_pos_as_xyz
'x, y, z'
_cell_length_a     33.267108
_cell_length_b     43.3694
_cell_length_c     17.237717
_cell_angle_alpha  87.588108
_cell_angle_beta   91.645993
_cell_angle_gamma 100.34053
loop_
_atom_site_label
_atom_site_type_symbol
_atom_site_fract_x
_atom_site_fract_y
_atom_site_fract_z
_atom_type_partial_charge
Co0 Co 0.0341 0.26631 0.33766 0.0
C1 C 0.03268 0.29 0.48298 0.0
Co2 Co 0.04548 0.31824 0.33821 0.0
C3 C 0.03478 0.20111 0.38456 0.0
C4 C 0.99476 0.20622 0.28724 0.0
N5 N 1.02152 0.22286 0.33672 0.0
N6 N 1.01706 0.17157 0.36708 0.0
C7 C 0.99194 0.1748 0.3057 0.0
H8 H 0.05644 0.20691 0.43207 0.0
H9 H 0.97816 0.21634 0.24082 0.0
C10 C 0.04689 0.29456 0.19266 0.0
N11 N 0.05803 0.36181 0.33705 0.0
C12 C 0.03947 0.38298 0.37076 0.0
C13 C 0.08893 0.37918 0.29705 0.0
N14 N 0.05748 0.41285 0.35253 0.0
C15 C 0.08865 0.4104 0.30633 0.0
C16 C 0.1154 0.29069 0.3526 0.0
O17 O 0.03896 0.26819 0.22893 0.0
O18 O 0.051 0.31954 0.22994 0.0
O19 O 0.10192 0.31635 0.35138 0.0
O20 O 0.09032 0.26498 0.3483 0.0
O21 O 0.03979 0.31646 0.44662 0.0
H22 H 0.11018 0.3697 0.2626 0.0
H23 H 1.01276 0.37662 0.40639 0.0
O24 O 0.02939 0.26493 0.44593 0.0
O25 O 0.97813 0.26802 0.32635 0.0
O26 O 0.9889 0.31948 0.32384 0.0
C27 C 0.96433 0.29346 0.31999 0.0
H28 H 0.97325 0.1558 0.27545 0.0
H29 H 0.10998 0.42983 0.2813 0.0
Co30 Co 1.02218 0.75723 0.60175 0.0
C31 C 1.02496 0.78902 0.73948 0.0
Co32 Co 0.04072 0.80898 0.58952 0.0
C33 C 1.01782 0.69055 0.58331 0.0
C34 C 0.97275 0.7003 0.66033 0.0
N35 N 1.00376 0.71436 0.61535 0.0
N36 N 0.99687 0.66216 0.60665 0.0
C37 C 0.96848 0.6683 0.65522 0.0
H38 H 0.04328 0.69407 0.54426 0.0
H39 H 0.95428 0.71257 0.69442 0.0
C40 C 0.03802 0.77739 0.45178 0.0
N41 N 0.05998 0.85208 0.57434 0.0
C42 C 0.04025 0.87679 0.57608 0.0
C43 C 0.09809 0.86483 0.55182 0.0
N44 N 0.06462 0.90425 0.55526 0.0
C45 C 0.10111 0.89659 0.54087 0.0
C46 C 0.10455 0.77557 0.62052 0.0
O47 O 1.02681 0.75287 0.49422 0.0
O48 O 0.0457 0.80398 0.48245 0.0
O49 O 0.09481 0.80233 0.60812 0.0
O50 O 0.07687 0.75127 0.61891 0.0
O51 O 0.03563 0.8136 0.69679 0.0
H52 H 0.12216 0.8519 0.54129 0.0
H53 H 1.00825 0.87452 0.58939 0.0
O54 O 1.0178 0.76232 0.7091 0.0
O55 O 0.96759 0.76348 0.58583 0.0
O56 O 0.98602 0.8146 0.57294 0.0
C57 C 0.95799 0.79046 0.57548 0.0
H58 H 0.94573 0.65096 0.68403 0.0
H59 H 0.1282 0.91266 0.52254 0.0
Co60 Co 0.52949 0.76499 0.81251 0.0
C61 C 0.54544 0.78798 0.95868 0.0
Co62 Co 0.54408 0.81687 0.81327 0.0
C63 C 0.52993 0.69932 0.85377 0.0
C64 C 0.48462 0.70574 0.76686 0.0
N65 N 0.51483 0.72165 0.81106 0.0
N66 N 0.51016 0.67008 0.83817 0.0
C67 C 0.48171 0.67416 0.78325 0.0
H68 H 0.55432 0.70453 0.89671 0.0
H69 H 0.46563 0.71647 0.72574 0.0
C70 C 0.52812 0.79402 0.66697 0.0
N71 N 0.55836 0.86031 0.81294 0.0
C72 C 0.54442 0.88109 0.85684 0.0
C73 C 0.58527 0.87803 0.76496 0.0
N74 N 0.56145 0.9111 0.83777 0.0
C75 C 0.58724 0.90913 0.78001 0.0
C76 C 0.61121 0.78737 0.79626 0.0
O77 O 0.5232 0.7676 0.70334 0.0
O78 O 0.5373 0.81892 0.70453 0.0
O79 O 0.59988 0.81367 0.80181 0.0
O80 O 0.58486 0.76228 0.80119 0.0
O81 O 0.55066 0.81444 0.92222 0.0
H82 H 0.60225 0.86888 0.72137 0.0
H83 H 0.52162 0.87429 0.90085 0.0
O84 O 0.53601 0.76298 0.9213 0.0
O85 O 0.47417 0.76799 0.82318 0.0
O86 O 0.48808 0.81938 0.82353 0.0
C87 C 0.46205 0.79403 0.82626 0.0
H88 H 0.46039 0.65566 0.75629 0.0
H89 H 0.60653 0.92872 0.75101 0.0
Co90 Co 0.53024 0.26038 0.11114 0.0
C91 C 0.54426 0.2835 0.25764 0.0
Co92 Co 0.54059 0.31227 0.11229 0.0
C93 C 0.53411 0.19673 0.06701 0.0
C94 C 0.49342 0.19831 0.16012 0.0
N95 N 0.51911 0.21682 0.11142 0.0
N96 N 0.5189 0.16639 0.08654 0.0
C97 C 0.49321 0.16744 0.14505 0.0
H98 H 0.55626 0.20426 0.02219 0.0
H99 H 0.47597 0.20675 0.20408 0.0
C100 C 0.52663 0.28909 0.96597 0.0
N101 N 0.55203 0.35572 0.11423 0.0
C102 C 0.53408 0.37735 0.07459 0.0
C103 C 0.58216 0.37252 0.15691 0.0
N104 N 0.55185 0.40701 0.0911 0.0
C105 C 0.58213 0.40392 0.14292 0.0
C106 C 0.61109 0.28676 0.09835 0.0
O107 O 0.524 0.26268 0.00223 0.0
O108 O 0.53354 0.31415 0.00354 0.0
O109 O 0.59671 0.3119 0.10063 0.0
O110 O 0.58692 0.26048 0.1018 0.0
O111 O 0.54746 0.30984 0.22128 0.0
H112 H 0.6032 0.36254 0.19518 0.0
H113 H 0.5084 0.37137 0.03472 0.0
O114 O 0.53668 0.25853 0.22007 0.0
O115 O 0.47373 0.26091 0.12153 0.0
O116 O 0.48441 0.31227 0.12473 0.0
C117 C 0.45996 0.28615 0.12828 0.0
H118 H 0.47509 0.14735 0.17444 0.0
H119 H 0.60347 0.42296 0.16774 0.0
C120 C 1.02854 0.44371 0.44782 0.0
C121 C 0.04607 0.44166 0.37542 0.0
C122 C 1.0199 0.47238 0.47124 0.0
C123 C 1.0285 0.49955 0.42234 0.0
C124 C 0.04467 0.49706 0.34905 0.0
C125 C 0.05356 0.4686 0.32606 0.0
C126 C 1.02089 0.53085 0.44428 0.0
C127 C 1.01868 0.53946 0.51809 0.0
C128 C 1.01325 0.57148 0.53893 0.0
C129 C 0.99667 0.57535 0.61109 0.0
C130 C 0.99137 0.605 0.63326 0.0
C131 C 1.00297 0.63165 0.58409 0.0
H132 H 0.03967 0.59656 0.43514 0.0
C133 C 1.02031 0.6279 0.51244 0.0
C134 C 1.02548 0.59822 0.49011 0.0
H135 H 0.02951 0.64785 0.47305 0.0
H136 H 1.02235 0.42334 0.48701 0.0
H137 H 1.00629 0.47299 0.52725 0.0
H138 H 0.05113 0.5174 0.30968 0.0
H139 H 0.06627 0.46769 0.26928 0.0
H140 H 1.01839 0.54776 0.39697 0.0
H141 H 1.02076 0.52259 0.56568 0.0
H142 H 0.98753 0.55532 0.6504 0.0
H143 H 0.9786 0.60704 0.68943 0.0
C144 C 0.681 0.8138 0.75631 0.0
C145 C 0.65372 0.78613 0.7764 0.0
C146 C 0.71968 0.81242 0.72882 0.0
C147 C 0.73179 0.78328 0.72082 0.0
C148 C 0.70523 0.75577 0.74429 0.0
C149 C 0.66648 0.75713 0.77135 0.0
C150 C 0.772 0.78053 0.6897 0.0
C151 C 0.79333 0.80204 0.64073 0.0
C152 C 0.83401 0.79885 0.61271 0.0
C153 C 0.86357 0.82588 0.59972 0.0
C154 C 0.90365 0.82336 0.58268 0.0
C155 C 0.91462 0.79369 0.57763 0.0
H156 H 0.8217 0.74803 0.60752 0.0
C157 C 0.88416 0.76676 0.58431 0.0
C158 C 0.84423 0.7693 0.60146 0.0
H159 H 0.89146 0.74356 0.57951 0.0
H160 H 0.67215 0.83654 0.76002 0.0
H161 H 0.73988 0.83421 0.7142 0.0
H162 H 0.71408 0.73306 0.73982 0.0
H163 H 0.64625 0.73539 0.78675 0.0
H164 H 0.78407 0.75958 0.70728 0.0
H165 H 0.78186 0.82325 0.62335 0.0
H166 H 0.85618 0.84893 0.60668 0.0
H167 H 0.92638 0.84457 0.5773 0.0
C168 C 0.55213 0.46381 0.1004 0.0
C169 C 0.54187 0.43608 0.05912 0.0
C170 C 0.54428 0.49233 0.06848 0.0
C171 C 0.52609 0.4939 -0.00592 0.0
C172 C 0.51471 0.46608 0.95374 0.0
C173 C 0.52264 0.4375 -0.01433 0.0
C174 C 0.51756 0.5239 0.9579 0.0
C175 C 0.53894 0.55229 -0.02419 0.0
C176 C 0.53071 0.58239 0.93962 0.0
C177 C 0.562 0.60888 0.93949 0.0
C178 C 0.55536 0.63763 0.90653 0.0
C179 C 0.51708 0.64062 0.87338 0.0
H180 H 0.46675 0.56607 0.90925 0.0
C181 C 0.48553 0.61422 0.87491 0.0
C182 C 0.49217 0.58551 0.90775 0.0
H183 H 0.45536 0.6158 0.85182 0.0
H184 H 0.56595 0.4635 0.15794 0.0
H185 H 0.55202 0.51294 0.10291 0.0
H186 H 0.50024 0.46651 0.89668 0.0
H187 H 0.51449 0.4167 0.95205 0.0
H188 H 0.49419 0.52224 0.91224 0.0
H189 H 0.56488 0.55369 0.01601 0.0
H190 H 0.59189 0.60726 0.96427 0.0
H191 H 0.58042 0.65736 0.90604 0.0
C192 C 0.90611 0.31835 0.26877 0.0
C193 C 0.92054 0.29216 0.30184 0.0
C194 C 0.86552 0.31556 0.24245 0.0
C195 C 0.83875 0.28652 0.24919 0.0
C196 C 0.85274 0.26089 0.28589 0.0
C197 C 0.89328 0.26358 0.31139 0.0
C198 C 0.79596 0.28199 0.2198 0.0
C199 C 0.78339 0.29872 0.15931 0.0
C200 C 0.74005 0.29418 0.13323 0.0
C201 C 0.7237 0.32035 0.10637 0.0
C202 C 0.68185 0.31759 0.09089 0.0
C203 C 0.65575 0.28845 0.10087 0.0
H204 H 0.7265 0.24372 0.15538 0.0
C205 C 0.67263 0.26175 0.12162 0.0
C206 C 0.71446 0.26459 0.13776 0.0
H207 H 0.65333 0.23893 0.12896 0.0
H208 H 0.92645 0.34069 0.26097 0.0
H209 H 0.85532 0.33613 0.21697 0.0
H210 H 0.83256 0.23842 0.29284 0.0
H211 H 0.90345 0.24301 0.33721 0.0
H212 H 0.77426 0.26359 0.24838 0.0
H213 H 0.80469 0.31735 0.13074 0.0
H214 H 0.74297 0.34327 0.10118 0.0
H215 H 0.66977 0.33855 0.07406 0.0
C216 C 0.40296 0.31181 0.16989 0.0
C217 C 0.41677 0.28475 0.14781 0.0
C218 C 0.36342 0.30979 0.19714 0.0
C219 C 0.33695 0.28062 0.20284 0.0
C220 C 0.35011 0.25389 0.17726 0.0
C221 C 0.38972 0.25586 0.15051 0.0
C222 C 0.29522 0.27725 0.23365 0.0
C223 C 0.2848 0.29642 0.28611 0.0
C224 C 0.24242 0.29369 0.3132 0.0
C225 C 0.22837 0.32099 0.33209 0.0
C226 C 0.18736 0.31981 0.34918 0.0
C227 C 0.15976 0.29118 0.34863 0.0
H228 H 0.22574 0.24303 0.30705 0.0
C229 C 0.17453 0.2635 0.33558 0.0
C230 C 0.2155 0.26472 0.31806 0.0
H231 H 0.15414 0.24101 0.3357 0.0
H232 H 0.42299 0.33446 0.16796 0.0
H233 H 0.35378 0.33112 0.21341 0.0
H234 H 0.33006 0.23125 0.17991 0.0
H235 H 0.39937 0.23459 0.13355 0.0
H236 H 0.27256 0.25799 0.2127 0.0
H237 H 0.3073 0.31577 0.30697 0.0
H238 H 0.24872 0.34351 0.33 0.0
H239 H 0.17699 0.34154 0.35965 0.0
C240 C 0.3898 0.76605 0.8291 0.0
C241 C 0.41782 0.79446 0.82479 0.0
C242 C 0.34822 0.76563 0.81536 0.0
C243 C 0.33388 0.79363 0.79648 0.0
C244 C 0.36144 0.82222 0.79792 0.0
C245 C 0.40313 0.82267 0.81168 0.0
C246 C 0.29093 0.79381 0.77178 0.0
C247 C 0.2677 0.76981 0.73512 0.0
C248 C 0.22639 0.77143 0.70273 0.0
C249 C 0.19753 0.7437 0.69623 0.0
C250 C 0.15807 0.7447 0.66722 0.0
C251 C 0.14707 0.77349 0.64342 0.0
H252 H 0.23777 0.82169 0.67662 0.0
C253 C 0.17659 0.80102 0.64679 0.0
C254 C 0.21582 0.80001 0.67586 0.0
H255 H 0.1693 0.82357 0.62814 0.0
H256 H 0.40008 0.74394 0.84055 0.0
H257 H 0.32765 0.74327 0.81828 0.0
H258 H 0.35098 0.84417 0.78476 0.0
H259 H 0.42395 0.84494 0.80861 0.0
H260 H 0.27917 0.81524 0.77961 0.0
H261 H 0.27918 0.74827 0.72736 0.0
H262 H 0.20523 0.72131 0.71527 0.0
H263 H 0.13601 0.72308 0.66509 0.0
C264 C 0.56024 0.96805 0.82735 0.0
C265 C 0.55375 0.93949 0.87092 0.0
C266 C 0.55375 0.99576 0.85954 0.0
C267 C 0.54082 0.99568 0.93661 0.0
C268 C 0.53357 0.96703 -0.0204 0.0
C269 C 0.54003 0.93928 0.94732 0.0
C270 C 0.53344 1.0246 -0.02637 0.0
C271 C 0.54946 0.05408 0.94862 0.0
C272 C 0.54194 0.08284 -0.01387 0.0
C273 C 0.54744 0.11144 0.94282 0.0
C274 C 0.54037 0.13893 -0.02431 0.0
C275 C 0.52781 0.13847 0.05294 0.0
H276 H 0.52749 0.06152 0.10083 0.0
C277 C 0.52337 0.11003 0.09688 0.0
C278 C 0.53046 0.08261 0.06414 0.0
H279 H 0.51485 0.10896 0.15716 0.0
H280 H 0.56979 0.96899 0.76771 0.0
H281 H 0.55826 1.01693 0.82304 0.0
H282 H 0.52328 0.96613 0.03886 0.0
H283 H 0.53495 0.9178 -0.01727 0.0
H284 H 0.5142 1.0211 0.02414 0.0
H285 H 0.56855 0.05771 0.89794 0.0
H286 H 0.55667 0.11245 0.88286 0.0
H287 H 0.54394 0.16035 0.94007 0.0
C288 C 0.07733 0.95795 0.49575 0.0
C289 C 0.05386 0.93504 0.54417 0.0
C290 C 0.06758 0.98779 0.48472 0.0
C291 C 0.03397 0.99571 0.52177 0.0
C292 C 1.00986 0.97277 0.56888 0.0
C293 C 1.01982 0.94279 0.58043 0.0
C294 C 1.02221 1.02705 0.50784 0.0
C295 C 0.04978 0.05311 0.49054 0.0
C296 C 0.03898 0.08398 0.46604 0.0
C297 C 0.06933 0.11103 0.46946 0.0
C298 C 0.06182 0.13998 0.43936 0.0
C299 C 1.02386 0.14244 0.4042 0.0
H300 H 0.97656 0.06639 0.4274 0.0
C301 C 0.99313 0.11556 0.40249 0.0
C302 C 1.00055 0.08666 0.43289 0.0
H303 H 0.96339 0.11673 0.37662 0.0
H304 H 0.10294 0.95278 0.46464 0.0
H305 H 0.08588 1.00429 0.44528 0.0
H306 H 0.98342 0.97812 0.59723 0.0
H307 H 1.00105 0.92586 0.61814 0.0
H308 H 0.99014 1.02851 0.51246 0.0
H309 H 0.08212 0.05188 0.49373 0.0
H310 H 0.09934 0.10964 0.49401 0.0
H311 H 0.08624 0.16014 0.441 0.0
C312 C 0.04324 0.26875 0.06578 0.0
C313 C 0.05031 0.29627 0.10787 0.0
C314 C 0.04439 0.27048 -0.01493 0.0
C315 C 0.05237 0.29981 0.94519 0.0
C316 C 0.06111 0.32721 -0.01266 0.0
C317 C 0.05988 0.32551 0.06809 0.0
C318 C 0.05175 0.30263 0.85977 0.0
C319 C 1.02734 0.2819 0.81577 0.0
C320 C 1.02685 0.2847 0.73039 0.0
C321 C 1.01891 0.25727 0.68829 0.0
C322 C 1.02031 0.25899 0.60757 0.0
C323 C 0.02919 0.28826 0.56776 0.0
H324 H 0.03889 0.33568 0.72133 0.0
C325 C 0.03546 0.31579 0.60981 0.0
C326 C 0.03422 0.31404 0.69053 0.0
H327 H 0.04179 0.33869 0.58054 0.0
H328 H 0.03637 0.24588 0.09503 0.0
H329 H 0.03916 0.24882 0.95432 0.0
H330 H 0.06788 0.35002 0.95768 0.0
H331 H 0.06589 0.34711 0.09917 0.0
H332 H 0.07111 0.32287 0.83289 0.0
H333 H 1.00796 0.26165 0.84254 0.0
H334 H 1.01265 0.23445 0.71798 0.0
H335 H 1.01495 0.23737 0.57655 0.0
C336 C 1.01015 0.76364 0.87021 0.0
C337 C 1.02266 0.79099 0.82417 0.0
C338 C 1.01081 0.76482 0.95079 0.0
C339 C 1.02431 0.79339 -0.01307 0.0
C340 C 0.03501 0.82095 0.94095 0.0
C341 C 0.03439 0.81978 0.86014 0.0
C342 C 1.0275 0.79521 0.07229 0.0
C343 C 0.03539 0.77125 0.11897 0.0
C344 C 0.03859 0.77307 0.20432 0.0
C345 C 1.02797 0.74549 0.25029 0.0
C346 C 1.02862 0.74665 0.3311 0.0
C347 C 0.0403 0.77545 0.36708 0.0
H348 H 0.06216 0.82316 0.20697 0.0
C349 C 0.05273 0.80282 0.32107 0.0
C350 C 0.05205 0.80164 0.24049 0.0
H351 H 0.06253 0.8253 0.34717 0.0
H352 H 1.00029 0.74116 0.84412 0.0
H353 H 1.00063 0.74332 -0.01568 0.0
H354 H 0.04492 0.84331 -0.03237 0.0
H355 H 0.04389 0.84129 0.82607 0.0
H356 H 1.02425 0.81728 0.09672 0.0
H357 H 0.03864 0.74918 0.09452 0.0
H358 H 1.0181 0.72313 0.2236 0.0
H359 H 1.0192 0.72513 0.36516 0.0
C360 C 0.55454 0.81391 0.08586 0.0
C361 C 0.54819 0.78632 0.04398 0.0
C362 C 0.5539 0.81232 0.16669 0.0
C363 C 0.54668 0.78305 0.207 0.0
C364 C 0.54226 0.75555 0.16535 0.0
C365 C 0.54276 0.75711 0.08445 0.0
C366 C 0.54355 0.7804 0.29232 0.0
C367 C 0.52947 0.80175 0.33337 0.0
C368 C 0.52644 0.79909 0.41868 0.0
C369 C 0.53144 0.8266 0.46046 0.0
C370 C 0.53112 0.82498 0.54136 0.0
C371 C 0.52526 0.79575 0.58169 0.0
H372 H 0.51318 0.74813 0.42824 0.0
C373 C 0.51831 0.76818 0.53971 0.0
C374 C 0.51881 0.76982 0.45887 0.0
H375 H 0.51316 0.74531 0.56923 0.0
H376 H 0.55931 0.83677 0.05626 0.0
H377 H 0.55911 0.83403 0.19717 0.0
H378 H 0.53727 0.73276 0.19535 0.0
H379 H 0.53817 0.73544 0.0537 0.0
H380 H 0.55203 0.75975 0.32149 0.0
H381 H 0.52099 0.82242 0.30428 0.0
H382 H 0.53678 0.84939 0.43054 0.0
H383 H 0.5362 0.84665 0.57221 0.0
C384 C 0.55275 0.30948 0.38473 0.0
C385 C 0.54726 0.28189 0.3429 0.0
C386 C 0.55242 0.30789 0.46557 0.0
C387 C 0.54642 0.27863 0.50593 0.0
C388 C 0.54288 0.25117 0.46431 0.0
C389 C 0.54304 0.25274 0.38339 0.0
C390 C 0.54361 0.27596 0.59127 0.0
C391 C 0.52825 0.29667 0.6323 0.0
C392 C 0.52523 0.29396 0.71764 0.0
C393 C 0.52793 0.32136 0.7592 0.0
C394 C 0.52746 0.31979 0.84012 0.0
C395 C 0.52383 0.29067 0.88067 0.0
H396 H 0.51587 0.24301 0.72768 0.0
C397 C 0.51921 0.26312 0.83887 0.0
C398 C 0.51977 0.26471 0.75806 0.0
H399 H 0.5158 0.2403 0.86852 0.0
H400 H 0.55664 0.33231 0.35509 0.0
H401 H 0.55691 0.32959 0.49606 0.0
H402 H 0.53881 0.22841 0.49438 0.0
H403 H 0.5391 0.23108 0.35266 0.0
H404 H 0.55336 0.25577 0.62039 0.0
H405 H 0.51851 0.31685 0.60307 0.0
H406 H 0.53155 0.34411 0.72912 0.0
H407 H 0.53071 0.34143 0.8708 0.0
loop_
_geom_bond_atom_site_label_1
_geom_bond_atom_site_label_2
_geom_bond_distance
_geom_bond_site_symmetry_2
_ccdc_geom_bond_type
Co0 N5 2.057 . S
Co0 O17 2.020 1_655 S
Co0 O20 2.061 1_655 S
Co0 O24 2.117 1_655 S
Co0 O25 2.020 . S
C1 O21 1.259 . S
C1 O24 1.258 . S
Co2 N11 2.057 . S
Co2 O18 2.117 . S
Co2 O19 2.020 . S
Co2 O21 2.021 . S
Co2 O26 2.062 1_455 S
C3 N5 1.316 1_455 S
C3 N6 1.347 . S
C3 H8 0.931 . S
C4 N5 1.375 . S
C4 C7 1.350 . S
C4 H9 0.930 . S
N5 Co0 2.057 . S
N5 C3 1.316 1_655 S
N5 C4 1.375 . S
N6 C3 1.347 . S
N6 C7 1.373 1_455 S
C7 C4 1.350 . S
C7 N6 1.373 1_655 S
C7 H28 0.931 . S
H8 C3 0.931 . S
H9 C4 0.930 . S
C10 O17 1.260 . S
C10 O18 1.258 . S
N11 Co2 2.057 . S
N11 C12 1.316 . S
N11 C13 1.375 . S
C12 N11 1.316 . S
C12 N14 1.347 . S
C12 H23 0.931 . S
C13 N11 1.375 . S
C13 C15 1.350 . S
C13 H22 0.930 . S
N14 C12 1.347 . S
N14 C15 1.373 . S
C15 C13 1.350 . S
C15 N14 1.373 . S
C15 H29 0.931 . S
C16 O19 1.256 . S
C16 O20 1.255 . S
O17 Co0 2.020 1_455 S
O17 C10 1.260 . S
O18 Co2 2.117 . S
O18 C10 1.258 . S
O19 Co2 2.020 . S
O19 C16 1.256 . S
O20 Co0 2.061 1_455 S
O20 C16 1.255 . S
O21 C1 1.259 . S
O21 Co2 2.021 . S
H22 C13 0.930 . S
H23 C12 0.931 . S
O24 Co0 2.117 1_455 S
O24 C1 1.258 . S
O25 Co0 2.020 . S
O25 C27 1.256 . S
O26 Co2 2.062 1_655 S
O26 C27 1.255 . S
C27 O25 1.256 . S
C27 O26 1.255 . S
H28 C7 0.931 . S
H29 C15 0.931 . S
Co30 N35 2.057 . S
Co30 O47 2.021 . S
Co30 O50 2.062 1_655 S
Co30 O54 2.117 1_655 S
Co30 O55 2.020 . S
C31 O51 1.259 . S
C31 O54 1.258 . S
Co32 N41 2.057 . S
Co32 O48 2.117 . S
Co32 O49 2.020 . S
Co32 O51 2.021 . S
Co32 O56 2.062 1_455 S
C33 N35 1.321 . S
C33 N36 1.342 1_655 S
C33 H38 0.929 1_655 S
C34 N35 1.375 . S
C34 C37 1.350 . S
C34 H39 0.930 . S
N35 Co30 2.057 . S
N35 C33 1.321 . S
N35 C34 1.375 . S
N36 C33 1.342 1_455 S
N36 C37 1.370 1_455 S
C37 C34 1.350 . S
C37 N36 1.370 1_655 S
C37 H58 0.931 . S
H38 C33 0.929 1_455 S
H39 C34 0.930 . S
C40 O47 1.259 1_455 S
C40 O48 1.258 . S
N41 Co32 2.057 . S
N41 C42 1.316 . S
N41 C43 1.375 . S
C42 N41 1.316 . S
C42 N44 1.347 . S
C42 H53 0.931 . S
C43 N41 1.375 . S
C43 C45 1.350 . S
C43 H52 0.930 . S
N44 C42 1.347 . S
N44 C45 1.373 . S
C45 C43 1.350 . S
C45 N44 1.373 . S
C45 H59 0.931 . S
C46 O49 1.256 . S
C46 O50 1.255 . S
O47 Co30 2.021 . S
O47 C40 1.259 1_655 S
O48 Co32 2.117 . S
O48 C40 1.258 . S
O49 Co32 2.020 . S
O49 C46 1.256 . S
O50 Co30 2.062 1_455 S
O50 C46 1.255 . S
O51 C31 1.259 . S
O51 Co32 2.021 . S
H52 C43 0.930 . S
H53 C42 0.931 . S
O54 Co30 2.117 1_455 S
O54 C31 1.258 . S
O55 Co30 2.020 . S
O55 C57 1.256 . S
O56 Co32 2.062 1_655 S
O56 C57 1.255 . S
C57 O55 1.256 . S
C57 O56 1.255 . S
H58 C37 0.931 . S
H59 C45 0.931 . S
Co60 N65 2.057 . S
Co60 O77 2.021 . S
Co60 O80 2.062 . S
Co60 O84 2.117 . S
Co60 O85 2.020 . S
C61 O81 1.259 . S
C61 O84 1.258 1_554 S
Co62 N71 2.057 . S
Co62 O78 2.117 . S
Co62 O79 2.020 . S
Co62 O81 2.021 1_556 S
Co62 O86 2.062 . S
C63 N65 1.316 . S
C63 N66 1.347 . S
C63 H68 0.931 . S
C64 N65 1.375 . S
C64 C67 1.350 . S
C64 H69 0.930 1_556 S
N65 Co60 2.057 . S
N65 C63 1.316 . S
N65 C64 1.375 . S
N66 C63 1.347 . S
N66 C67 1.373 . S
C67 C64 1.350 . S
C67 N66 1.373 . S
C67 H88 0.931 1_556 S
H68 C63 0.931 . S
H69 C64 0.930 1_554 S
C70 O77 1.259 . S
C70 O78 1.258 . S
N71 Co62 2.057 . S
N71 C72 1.316 . S
N71 C73 1.375 . S
C72 N71 1.316 . S
C72 N74 1.347 . S
C72 H83 0.931 . S
C73 N71 1.375 . S
C73 C75 1.350 . S
C73 H82 0.930 . S
N74 C72 1.347 . S
N74 C75 1.373 . S
C75 C73 1.350 . S
C75 N74 1.373 . S
C75 H89 0.931 . S
C76 O79 1.256 . S
C76 O80 1.255 . S
O77 Co60 2.021 . S
O77 C70 1.259 . S
O78 Co62 2.117 . S
O78 C70 1.258 . S
O79 Co62 2.020 . S
O79 C76 1.256 . S
O80 Co60 2.062 . S
O80 C76 1.255 . S
O81 C61 1.259 . S
O81 Co62 2.021 1_554 S
H82 C73 0.930 . S
H83 C72 0.931 . S
O84 Co60 2.117 . S
O84 C61 1.258 1_556 S
O85 Co60 2.020 . S
O85 C87 1.256 . S
O86 Co62 2.062 . S
O86 C87 1.255 . S
C87 O85 1.256 . S
C87 O86 1.255 . S
H88 C67 0.931 1_554 S
H89 C75 0.931 . S
Co90 N95 2.057 . S
Co90 O107 2.021 1_554 S
Co90 O110 2.062 . S
Co90 O114 2.117 . S
Co90 O115 2.020 . S
C91 O111 1.259 . S
C91 O114 1.258 . S
Co92 N101 2.057 . S
Co92 O108 2.117 . S
Co92 O109 2.020 . S
Co92 O111 2.021 . S
Co92 O116 2.062 . S
C93 N95 1.316 . S
C93 N96 1.347 . S
C93 H98 0.931 . S
C94 N95 1.375 . S
C94 C97 1.350 . S
C94 H99 0.930 . S
N95 Co90 2.057 . S
N95 C93 1.316 . S
N95 C94 1.375 . S
N96 C93 1.347 . S
N96 C97 1.373 . S
C97 C94 1.350 . S
C97 N96 1.373 . S
C97 H118 0.931 . S
H98 C93 0.931 . S
H99 C94 0.930 . S
C100 O107 1.259 . S
C100 O108 1.258 1_556 S
N101 Co92 2.057 . S
N101 C102 1.316 . S
N101 C103 1.375 . S
C102 N101 1.316 . S
C102 N104 1.347 . S
C102 H113 0.931 . S
C103 N101 1.375 . S
C103 C105 1.350 . S
C103 H112 0.930 1_554 S
N104 C102 1.347 . S
N104 C105 1.373 . S
C105 C103 1.350 . S
C105 N104 1.373 . S
C105 H119 0.931 1_554 S
C106 O109 1.256 . S
C106 O110 1.255 . S
O107 Co90 2.021 1_556 S
O107 C100 1.259 . S
O108 Co92 2.117 . S
O108 C100 1.258 1_554 S
O109 Co92 2.020 . S
O109 C106 1.256 . S
O110 Co90 2.062 . S
O110 C106 1.255 . S
O111 C91 1.259 . S
O111 Co92 2.021 . S
H112 C103 0.930 1_556 S
H113 C102 0.931 . S
O114 Co90 2.117 . S
O114 C91 1.258 . S
O115 Co90 2.020 . S
O115 C117 1.256 . S
O116 Co92 2.062 . S
O116 C117 1.255 . S
C117 O115 1.256 . S
C117 O116 1.255 . S
H118 C97 0.931 . S
H119 C105 0.931 1_556 S
C120 C121 1.386 . S
C120 C122 1.383 . S
C120 H136 0.949 1_455 S
C121 C120 1.386 . S
C121 C125 1.383 . S
C122 C120 1.383 . S
C122 C123 1.402 . S
C122 H137 0.951 . S
C123 C122 1.402 . S
C123 C124 1.375 . S
C123 C126 1.481 . S
C124 C123 1.375 . S
C124 C125 1.367 . S
C124 H138 0.951 . S
C125 C121 1.383 . S
C125 C124 1.367 . S
C125 H139 0.950 . S
C126 C123 1.481 . S
C126 C127 1.297 . S
C126 H140 0.950 . S
C127 C126 1.297 . S
C127 C128 1.479 . S
C127 H141 0.950 . S
C128 C127 1.479 . S
C128 C129 1.375 . S
C128 C134 1.404 . S
C129 C128 1.375 . S
C129 C130 1.369 . S
C129 H142 0.950 . S
C130 C129 1.369 . S
C130 C131 1.392 . S
C130 H143 0.951 1_455 S
C131 C130 1.392 . S
C131 C133 1.384 . S
H132 C134 0.949 . S
C133 C131 1.384 . S
C133 C134 1.385 . S
C133 H135 0.950 . S
C134 C128 1.404 . S
C134 H132 0.949 . S
C134 C133 1.385 . S
H135 C133 0.950 . S
H136 C120 0.949 1_655 S
H137 C122 0.951 . S
H138 C124 0.951 . S
H139 C125 0.950 . S
H140 C126 0.950 . S
H141 C127 0.950 . S
H142 C129 0.950 . S
H143 C130 0.951 1_655 S
C144 C145 1.386 . S
C144 C146 1.383 . S
C144 H160 0.951 . S
C145 C144 1.386 . S
C145 C149 1.383 . S
C146 C144 1.383 . S
C146 C147 1.402 . S
C146 H161 0.951 . S
C147 C146 1.402 . S
C147 C148 1.375 . S
C147 C150 1.481 . S
C148 C147 1.375 . S
C148 C149 1.367 . S
C148 H162 0.951 . S
C149 C145 1.383 . S
C149 C148 1.367 . S
C149 H163 0.950 . S
C150 C147 1.481 . S
C150 C151 1.297 . S
C150 H164 0.950 . S
C151 C150 1.297 . S
C151 C152 1.479 . S
C151 H165 0.950 . S
C152 C151 1.479 . S
C152 C153 1.375 . S
C152 C158 1.404 . S
C153 C152 1.375 . S
C153 C154 1.369 . S
C153 H166 0.950 . S
C154 C153 1.369 . S
C154 C155 1.392 . S
C154 H167 0.951 . S
C155 C154 1.392 . S
C155 C157 1.384 . S
H156 C158 0.949 . S
C157 C155 1.384 . S
C157 C158 1.385 . S
C157 H159 0.950 . S
C158 C152 1.404 . S
C158 H156 0.949 . S
C158 C157 1.385 . S
H159 C157 0.950 . S
H160 C144 0.951 . S
H161 C146 0.951 . S
H162 C148 0.951 . S
H163 C149 0.950 . S
H164 C150 0.950 . S
H165 C151 0.950 . S
H166 C153 0.950 . S
H167 C154 0.951 . S
C168 C169 1.386 . S
C168 C170 1.383 . S
C168 H184 0.951 . S
C169 C168 1.386 . S
C169 C173 1.383 . S
C170 C168 1.383 . S
C170 C171 1.402 . S
C170 H185 0.951 . S
C171 C170 1.402 . S
C171 C172 1.375 1_554 S
C171 C174 1.481 1_554 S
C172 C171 1.375 1_556 S
C172 C173 1.367 1_556 S
C172 H186 0.951 . S
C173 C169 1.383 . S
C173 C172 1.367 1_554 S
C173 H187 0.949 1_554 S
C174 C171 1.481 1_556 S
C174 C175 1.297 . S
C174 H188 0.950 . S
C175 C174 1.297 . S
C175 C176 1.479 . S
C175 H189 0.950 1_556 S
C176 C175 1.479 . S
C176 C177 1.375 . S
C176 C182 1.404 . S
C177 C176 1.375 . S
C177 C178 1.369 . S
C177 H190 0.950 1_556 S
C178 C177 1.369 . S
C178 C179 1.392 . S
C178 H191 0.951 . S
C179 C178 1.392 . S
C179 C181 1.384 . S
H180 C182 0.949 . S
C181 C179 1.384 . S
C181 C182 1.385 . S
C181 H183 0.950 . S
C182 C176 1.404 . S
C182 H180 0.949 . S
C182 C181 1.385 . S
H183 C181 0.950 . S
H184 C168 0.951 . S
H185 C170 0.951 . S
H186 C172 0.951 . S
H187 C173 0.949 1_556 S
H188 C174 0.950 . S
H189 C175 0.950 1_554 S
H190 C177 0.950 1_554 S
H191 C178 0.951 . S
C192 C193 1.386 . S
C192 C194 1.383 . S
C192 H208 0.951 . S
C193 C192 1.386 . S
C193 C197 1.383 . S
C194 C192 1.383 . S
C194 C195 1.402 . S
C194 H209 0.951 . S
C195 C194 1.402 . S
C195 C196 1.375 . S
C195 C198 1.481 . S
C196 C195 1.375 . S
C196 C197 1.367 . S
C196 H210 0.951 . S
C197 C193 1.383 . S
C197 C196 1.367 . S
C197 H211 0.950 . S
C198 C195 1.481 . S
C198 C199 1.297 . S
C198 H212 0.950 . S
C199 C198 1.297 . S
C199 C200 1.479 . S
C199 H213 0.950 . S
C200 C199 1.479 . S
C200 C201 1.375 . S
C200 C206 1.404 . S
C201 C200 1.375 . S
C201 C202 1.369 . S
C201 H214 0.950 . S
C202 C201 1.369 . S
C202 C203 1.392 . S
C202 H215 0.951 . S
C203 C202 1.392 . S
C203 C205 1.384 . S
H204 C206 0.949 . S
C205 C203 1.384 . S
C205 C206 1.385 . S
C205 H207 0.950 . S
C206 C200 1.404 . S
C206 H204 0.949 . S
C206 C205 1.385 . S
H207 C205 0.950 . S
H208 C192 0.951 . S
H209 C194 0.951 . S
H210 C196 0.951 . S
H211 C197 0.950 . S
H212 C198 0.950 . S
H213 C199 0.950 . S
H214 C201 0.950 . S
H215 C202 0.951 . S
C216 C217 1.386 . S
C216 C218 1.383 . S
C216 H232 0.951 . S
C217 C216 1.386 . S
C217 C221 1.383 . S
C218 C216 1.383 . S
C218 C219 1.402 . S
C218 H233 0.951 . S
C219 C218 1.402 . S
C219 C220 1.375 . S
C219 C222 1.481 . S
C220 C219 1.375 . S
C220 C221 1.367 . S
C220 H234 0.951 . S
C221 C217 1.383 . S
C221 C220 1.367 . S
C221 H235 0.950 . S
C222 C219 1.481 . S
C222 C223 1.297 . S
C222 H236 0.950 . S
C223 C222 1.297 . S
C223 C224 1.479 . S
C223 H237 0.950 . S
C224 C223 1.479 . S
C224 C225 1.375 . S
C224 C230 1.404 . S
C225 C224 1.375 . S
C225 C226 1.369 . S
C225 H238 0.950 . S
C226 C225 1.369 . S
C226 C227 1.392 . S
C226 H239 0.951 . S
C227 C226 1.392 . S
C227 C229 1.384 . S
H228 C230 0.949 . S
C229 C227 1.384 . S
C229 C230 1.385 . S
C229 H231 0.950 . S
C230 C224 1.404 . S
C230 H228 0.949 . S
C230 C229 1.385 . S
H231 C229 0.950 . S
H232 C216 0.951 . S
H233 C218 0.951 . S
H234 C220 0.951 . S
H235 C221 0.950 . S
H236 C222 0.950 . S
H237 C223 0.950 . S
H238 C225 0.950 . S
H239 C226 0.951 . S
C240 C241 1.386 . S
C240 C242 1.383 . S
C240 H256 0.951 . S
C241 C240 1.386 . S
C241 C245 1.383 . S
C242 C240 1.383 . S
C242 C243 1.402 . S
C242 H257 0.951 . S
C243 C242 1.402 . S
C243 C244 1.375 . S
C243 C246 1.481 . S
C244 C243 1.375 . S
C244 C245 1.367 . S
C244 H258 0.951 . S
C245 C241 1.383 . S
C245 C244 1.367 . S
C245 H259 0.950 . S
C246 C243 1.481 . S
C246 C247 1.297 . S
C246 H260 0.950 . S
C247 C246 1.297 . S
C247 C248 1.479 . S
C247 H261 0.950 . S
C248 C247 1.479 . S
C248 C249 1.375 . S
C248 C254 1.404 . S
C249 C248 1.375 . S
C249 C250 1.369 . S
C249 H262 0.950 . S
C250 C249 1.369 . S
C250 C251 1.392 . S
C250 H263 0.951 . S
C251 C250 1.392 . S
C251 C253 1.384 . S
H252 C254 0.949 . S
C253 C251 1.384 . S
C253 C254 1.385 . S
C253 H255 0.950 . S
C254 C248 1.404 . S
C254 H252 0.949 . S
C254 C253 1.385 . S
H255 C253 0.950 . S
H256 C240 0.951 . S
H257 C242 0.951 . S
H258 C244 0.951 . S
H259 C245 0.950 . S
H260 C246 0.950 . S
H261 C247 0.950 . S
H262 C249 0.950 . S
H263 C250 0.951 . S
C264 C265 1.386 . S
C264 C266 1.383 . S
C264 H280 0.951 . S
C265 C264 1.386 . S
C265 C269 1.383 . S
C266 C264 1.383 . S
C266 C267 1.402 . S
C266 H281 0.951 . S
C267 C266 1.402 . S
C267 C268 1.375 1_556 S
C267 C270 1.481 1_556 S
C268 C267 1.375 1_554 S
C268 C269 1.367 1_554 S
C268 H282 0.951 . S
C269 C265 1.383 . S
C269 C268 1.367 1_556 S
C269 H283 0.950 1_556 S
C270 C267 1.481 1_554 S
C270 C271 1.297 1_564 S
C270 H284 0.950 . S
C271 C270 1.297 1_546 S
C271 C272 1.479 1_556 S
C271 H285 0.950 . S
C272 C271 1.479 1_554 S
C272 C273 1.375 1_554 S
C272 C278 1.404 . S
C273 C272 1.375 1_556 S
C273 C274 1.369 1_556 S
C273 H286 0.950 . S
C274 C273 1.369 1_554 S
C274 C275 1.392 . S
C274 H287 0.951 1_554 S
C275 C274 1.392 . S
C275 C277 1.384 . S
H276 C278 0.949 . S
C277 C275 1.384 . S
C277 C278 1.385 . S
C277 H279 0.950 . S
C278 C272 1.404 . S
C278 H276 0.949 . S
C278 C277 1.385 . S
H279 C277 0.950 . S
H280 C264 0.951 . S
H281 C266 0.951 . S
H282 C268 0.951 . S
H283 C269 0.950 1_554 S
H284 C270 0.950 . S
H285 C271 0.950 . S
H286 C273 0.950 . S
H287 C274 0.951 1_556 S
C288 C289 1.386 . S
C288 C290 1.383 . S
C288 H304 0.951 . S
C289 C288 1.386 . S
C289 C293 1.383 1_455 S
C290 C288 1.383 . S
C290 C291 1.402 1_455 S
C290 H305 0.951 . S
C291 C290 1.402 1_655 S
C291 C292 1.375 . S
C291 C294 1.481 . S
C292 C291 1.375 . S
C292 C293 1.367 . S
C292 H306 0.951 . S
C293 C289 1.383 1_655 S
C293 C292 1.367 . S
C293 H307 0.950 . S
C294 C291 1.481 . S
C294 C295 1.297 1_565 S
C294 H308 0.950 1_565 S
C295 C294 1.297 1_545 S
C295 C296 1.479 . S
C295 H309 0.955 1_545 S
C296 C295 1.479 . S
C296 C297 1.375 1_655 S
C296 C302 1.404 . S
C297 C296 1.375 1_455 S
C297 C298 1.369 . S
C297 H310 0.950 . S
C298 C297 1.369 . S
C298 C299 1.392 . S
C298 H311 0.951 . S
C299 C298 1.392 . S
C299 C301 1.384 1_455 S
H300 C302 0.949 . S
C301 C299 1.384 1_655 S
C301 C302 1.385 . S
C301 H303 0.950 . S
C302 C296 1.404 . S
C302 H300 0.949 . S
C302 C301 1.385 . S
H303 C301 0.950 . S
H304 C288 0.951 . S
H305 C290 0.951 . S
H306 C292 0.951 . S
H307 C293 0.950 . S
H308 C294 0.950 1_545 S
H309 C295 0.955 1_565 S
H310 C297 0.950 . S
H311 C298 0.951 . S
C312 C313 1.386 . S
C312 C314 1.383 . S
C312 H328 0.951 . S
C313 C312 1.386 . S
C313 C317 1.383 1_455 S
C314 C312 1.383 . S
C314 C315 1.402 1_454 S
C314 H329 0.951 1_554 S
C315 C314 1.402 1_656 S
C315 C316 1.375 1_556 S
C315 C318 1.481 . S
C316 C315 1.375 1_554 S
C316 C317 1.367 . S
C316 H330 0.951 . S
C317 C313 1.383 1_655 S
C317 C316 1.367 . S
C317 H331 0.950 . S
C318 C315 1.481 . S
C318 C319 1.297 . S
C318 H332 0.950 . S
C319 C318 1.297 . S
C319 C320 1.479 . S
C319 H333 0.950 . S
C320 C319 1.479 . S
C320 C321 1.375 1_655 S
C320 C326 1.404 . S
C321 C320 1.375 1_455 S
C321 C322 1.369 . S
C321 H334 0.950 . S
C322 C321 1.369 . S
C322 C323 1.392 . S
C322 H335 0.951 . S
C323 C322 1.392 . S
C323 C325 1.384 1_455 S
H324 C326 0.949 . S
C325 C323 1.384 1_655 S
C325 C326 1.385 . S
C325 H327 0.950 . S
C326 C320 1.404 . S
C326 H324 0.949 . S
C326 C325 1.385 . S
H327 C325 0.950 . S
H328 C312 0.951 . S
H329 C314 0.951 1_556 S
H330 C316 0.951 . S
H331 C317 0.950 . S
H332 C318 0.950 . S
H333 C319 0.950 . S
H334 C321 0.950 . S
H335 C322 0.951 . S
C336 C337 1.386 . S
C336 C338 1.383 . S
C336 H352 0.951 . S
C337 C336 1.386 . S
C337 C341 1.383 1_455 S
C338 C336 1.383 . S
C338 C339 1.402 1_556 S
C338 H353 0.951 1_556 S
C339 C338 1.402 1_554 S
C339 C340 1.375 1_454 S
C339 C342 1.481 . S
C340 C339 1.375 1_656 S
C340 C341 1.367 . S
C340 H354 0.951 . S
C341 C337 1.383 1_655 S
C341 C340 1.367 . S
C341 H355 0.950 . S
C342 C339 1.481 . S
C342 C343 1.297 . S
C342 H356 0.950 1_455 S
C343 C342 1.297 . S
C343 C344 1.479 . S
C343 H357 0.950 . S
C344 C343 1.479 . S
C344 C345 1.375 . S
C344 C350 1.404 . S
C345 C344 1.375 . S
C345 C346 1.369 . S
C345 H358 0.950 . S
C346 C345 1.369 . S
C346 C347 1.392 . S
C346 H359 0.951 . S
C347 C346 1.392 . S
C347 C349 1.384 . S
H348 C350 0.949 . S
C349 C347 1.384 . S
C349 C350 1.385 . S
C349 H351 0.950 1_455 S
C350 C344 1.404 . S
C350 H348 0.949 . S
C350 C349 1.385 . S
H351 C349 0.950 1_655 S
H352 C336 0.951 . S
H353 C338 0.951 1_554 S
H354 C340 0.951 . S
H355 C341 0.950 . S
H356 C342 0.950 1_655 S
H357 C343 0.950 . S
H358 C345 0.950 . S
H359 C346 0.951 . S
C360 C361 1.386 . S
C360 C362 1.383 . S
C360 H376 0.951 . S
C361 C360 1.386 . S
C361 C365 1.383 . S
C362 C360 1.383 . S
C362 C363 1.402 . S
C362 H377 0.951 . S
C363 C362 1.402 . S
C363 C364 1.375 . S
C363 C366 1.481 . S
C364 C363 1.375 . S
C364 C365 1.367 . S
C364 H378 0.951 . S
C365 C361 1.383 . S
C365 C364 1.367 . S
C365 H379 0.950 . S
C366 C363 1.481 . S
C366 C367 1.297 . S
C366 H380 0.950 . S
C367 C366 1.297 . S
C367 C368 1.479 . S
C367 H381 0.950 . S
C368 C367 1.479 . S
C368 C369 1.375 . S
C368 C374 1.404 . S
C369 C368 1.375 . S
C369 C370 1.369 . S
C369 H382 0.950 . S
C370 C369 1.369 . S
C370 C371 1.392 . S
C370 H383 0.951 . S
C371 C370 1.392 . S
C371 C373 1.384 . S
H372 C374 0.949 . S
C373 C371 1.384 . S
C373 C374 1.385 . S
C373 H375 0.950 . S
C374 C368 1.404 . S
C374 H372 0.949 . S
C374 C373 1.385 . S
H375 C373 0.950 . S
H376 C360 0.951 . S
H377 C362 0.951 . S
H378 C364 0.951 . S
H379 C365 0.950 . S
H380 C366 0.950 . S
H381 C367 0.950 . S
H382 C369 0.950 . S
H383 C370 0.951 . S
C384 C385 1.386 . S
C384 C386 1.383 . S
C384 H400 0.951 . S
C385 C384 1.386 . S
C385 C389 1.383 . S
C386 C384 1.383 . S
C386 C387 1.402 . S
C386 H401 0.951 . S
C387 C386 1.402 . S
C387 C388 1.375 . S
C387 C390 1.481 . S
C388 C387 1.375 . S
C388 C389 1.367 . S
C388 H402 0.951 . S
C389 C385 1.383 . S
C389 C388 1.367 . S
C389 H403 0.950 . S
C390 C387 1.481 . S
C390 C391 1.297 . S
C390 H404 0.950 . S
C391 C390 1.297 . S
C391 C392 1.479 . S
C391 H405 0.950 . S
C392 C391 1.479 . S
C392 C393 1.375 . S
C392 C398 1.404 . S
C393 C392 1.375 . S
C393 C394 1.369 . S
C393 H406 0.950 . S
C394 C393 1.369 . S
C394 C395 1.392 . S
C394 H407 0.951 . S
C395 C394 1.392 . S
C395 C397 1.384 . S
H396 C398 0.949 . S
C397 C395 1.384 . S
C397 C398 1.385 . S
C397 H399 0.950 . S
C398 C392 1.404 . S
C398 H396 0.949 . S
C398 C397 1.385 . S
H399 C397 0.950 . S
H400 C384 0.951 . S
H401 C386 0.951 . S
H402 C388 0.951 . S
H403 C389 0.950 . S
H404 C390 0.950 . S
H405 C391 0.950 . S
H406 C393 0.950 . S
H407 C394 0.951 . S
C121 N14 1.843 . S
C131 N36 1.861 . S
C145 C76 1.829 . S
C155 C57 1.799 . S
C169 N104 1.589 . S
C179 N66 1.661 . S
C193 C27 1.703 . S
C203 C106 1.714 . S
C217 C117 1.805 . S
C227 C16 1.792 . S
C241 C87 1.695 . S
C251 C46 1.677 . S
C265 N74 1.856 . S
C275 N96 1.826 . S
C289 N44 1.648 . S
C299 N6 1.627 . S
C313 C10 0.811 . S
C323 C1 0.826 . S
C337 C31 0.794 . S
C347 C40 0.826 . S
C361 C61 0.814 . S
C371 C70 0.782 . S
C385 C91 0.821 . S
C395 C100 0.785 . S
