# Generated by pormake.
# Topology wkh, (6)-cn, num edge types: 1
# Building blocks:
#     Node 0, Type 0, BuildingBlock: MIDCAF_clean_sbu_0, # of connection points: 6
#     Node 1, Type 0, BuildingBlock: MIDCAF_clean_sbu_0, # of connection points: 6
#     Node 2, Type 0, BuildingBlock: MIDCAF_clean_sbu_0, # of connection points: 6
#     Node 3, Type 0, BuildingBlock: MIDCAF_clean_sbu_0, # of connection points: 6
#     Node 4, Type 0, BuildingBlock: MIDCAF_clean_sbu_0, # of connection points: 6
#     Node 5, Type 0, BuildingBlock: MIDCAF_clean_sbu_0, # of connection points: 6
#     Node 6, Type 0, BuildingBlock: MIDCAF_clean_sbu_0, # of connection points: 6
#     Node 7, Type 0, BuildingBlock: MIDCAF_clean_sbu_0, # of connection points: 6
#     Node 8, Type 0, BuildingBlock: MIDCAF_clean_sbu_0, # of connection points: 6
#     Node 9, Type 0, BuildingBlock: MIDCAF_clean_sbu_0, # of connection points: 6
#     Node 10, Type 0, BuildingBlock: MIDCAF_clean_sbu_0, # of connection points: 6
#     Node 11, Type 0, BuildingBlock: MIDCAF_clean_sbu_0, # of connection points: 6
#     Edge 12, Type (0, 0), BuildingBlock: XIVTED_clean_linker_0, # of connection points: 2
#     Edge 13, Type (0, 0), BuildingBlock: XIVTED_clean_linker_0, # of connection points: 2
#     Edge 14, Type (0, 0), BuildingBlock: XIVTED_clean_linker_0, # of connection points: 2
#     Edge 15, Type (0, 0), BuildingBlock: XIVTED_clean_linker_0, # of connection points: 2
#     Edge 16, Type (0, 0), BuildingBlock: XIVTED_clean_linker_0, # of connection points: 2
#     Edge 17, Type (0, 0), BuildingBlock: XIVTED_clean_linker_0, # of connection points: 2
#     Edge 18, Type (0, 0), BuildingBlock: XIVTED_clean_linker_0, # of connection points: 2
#     Edge 19, Type (0, 0), BuildingBlock: XIVTED_clean_linker_0, # of connection points: 2
#     Edge 20, Type (0, 0), BuildingBlock: XIVTED_clean_linker_0, # of connection points: 2
#     Edge 21, Type (0, 0), BuildingBlock: XIVTED_clean_linker_0, # of connection points: 2
#     Edge 22, Type (0, 0), BuildingBlock: XIVTED_clean_linker_0, # of connection points: 2
#     Edge 23, Type (0, 0), BuildingBlock: XIVTED_clean_linker_0, # of connection points: 2
#     Edge 24, Type (0, 0), BuildingBlock: XIVTED_clean_linker_0, # of connection points: 2
#     Edge 25, Type (0, 0), BuildingBlock: XIVTED_clean_linker_0, # of connection points: 2
#     Edge 26, Type (0, 0), BuildingBlock: XIVTED_clean_linker_0, # of connection points: 2
#     Edge 27, Type (0, 0), BuildingBlock: XIVTED_clean_linker_0, # of connection points: 2
#     Edge 28, Type (0, 0), BuildingBlock: XIVTED_clean_linker_0, # of connection points: 2
#     Edge 29, Type (0, 0), BuildingBlock: XIVTED_clean_linker_0, # of connection points: 2
#     Edge 30, Type (0, 0), BuildingBlock: XIVTED_clean_linker_0, # of connection points: 2
#     Edge 31, Type (0, 0), BuildingBlock: XIVTED_clean_linker_0, # of connection points: 2
#     Edge 32, Type (0, 0), BuildingBlock: XIVTED_clean_linker_0, # of connection points: 2
#     Edge 33, Type (0, 0), BuildingBlock: XIVTED_clean_linker_0, # of connection points: 2
#     Edge 34, Type (0, 0), BuildingBlock: XIVTED_clean_linker_0, # of connection points: 2
#     Edge 35, Type (0, 0), BuildingBlock: XIVTED_clean_linker_0, # of connection points: 2
#     Edge 36, Type (0, 0), BuildingBlock: XIVTED_clean_linker_0, # of connection points: 2
#     Edge 37, Type (0, 0), BuildingBlock: XIVTED_clean_linker_0, # of connection points: 2
#     Edge 38, Type (0, 0), BuildingBlock: XIVTED_clean_linker_0, # of connection points: 2
#     Edge 39, Type (0, 0), BuildingBlock: XIVTED_clean_linker_0, # of connection points: 2
#     Edge 40, Type (0, 0), BuildingBlock: XIVTED_clean_linker_0, # of connection points: 2
#     Edge 41, Type (0, 0), BuildingBlock: XIVTED_clean_linker_0, # of connection points: 2
#     Edge 42, Type (0, 0), BuildingBlock: XIVTED_clean_linker_0, # of connection points: 2
#     Edge 43, Type (0, 0), BuildingBlock: XIVTED_clean_linker_0, # of connection points: 2
#     Edge 44, Type (0, 0), BuildingBlock: XIVTED_clean_linker_0, # of connection points: 2
#     Edge 45, Type (0, 0), BuildingBlock: XIVTED_clean_linker_0, # of connection points: 2
#     Edge 46, Type (0, 0), BuildingBlock: XIVTED_clean_linker_0, # of connection points: 2
#     Edge 47, Type (0, 0), BuildingBlock: XIVTED_clean_linker_0, # of connection points: 2
# Relax obj value: 0.394
# Max RMSD: 0.272
# Mean RMSD: 0.272
data_MOF--net-wkh--node1-MIDCAF_clean_sbu_0--edge1-XIVTED_clean_linker_0
_symmetry_space_group_name_H-M    P1
_symmetry_Int_Tables_number       1
_symmetry_cell_setting            triclinic
loop_
_symmetry_equiv_pos_as_xyz
'x, y, z'
_cell_length_a     26.707629
_cell_length_b     26.960464
_cell_length_c     73.807545
_cell_angle_alpha  88.775145
_cell_angle_beta   91.076273
_cell_angle_gamma 120.13932
loop_
_atom_site_label
_atom_site_type_symbol
_atom_site_fract_x
_atom_site_fract_y
_atom_site_fract_z
_atom_type_partial_charge
Zn0 Zn 0.37118 0.3737 0.99324 0.0
Zn1 Zn 0.34337 0.29513 0.0505 0.0
Zn2 Zn 0.34541 0.32083 0.02132 0.0
C3 C 0.40625 0.25925 0.03685 0.0
C4 C 0.26029 0.19271 0.03265 0.0
O5 O 0.27859 0.34876 1.01811 0.0
O6 O 0.31149 0.39778 0.99262 0.0
C7 C 0.47258 0.4268 1.01409 0.0
O8 O 0.36605 0.24917 0.02507 0.0
O9 O 0.41992 0.29976 0.04764 0.0
O10 O 0.26562 0.21461 0.04814 0.0
O11 O 0.29792 0.22429 1.02048 0.0
O12 O 0.45401 0.43212 0.99872 0.0
O13 O 0.43765 0.38703 0.02492 0.0
O14 O 0.33074 0.24946 1.00362 0.0
O15 O 0.35638 0.30488 0.97912 0.0
C16 C 0.33983 0.25619 0.9864 0.0
O17 O 0.28705 0.33921 0.03821 0.0
O18 O 0.34298 0.35962 0.06233 0.0
C19 C 0.27506 0.38037 1.00529 0.0
C20 C 0.30164 0.36067 0.05421 0.0
Zn21 Zn 0.05012 0.40306 0.22039 0.0
Zn22 Zn 0.00078 0.42653 0.16279 0.0
Zn23 Zn 0.02733 0.40025 0.19115 0.0
C24 C 0.09229 0.40521 0.15585 0.0
C25 C 0.03048 0.51759 0.18529 0.0
O26 O 0.95448 0.33257 0.20802 0.0
O27 O 0.97691 0.38783 0.23181 0.0
C28 C 0.08906 0.33532 0.20375 0.0
O29 O 0.08899 0.39448 0.17302 0.0
O30 O 0.05975 0.42113 0.14833 0.0
O31 O 0.01272 0.50303 0.16924 0.0
O32 O 0.03792 0.48337 0.1957 0.0
O33 O 0.06615 0.33438 0.21875 0.0
O34 O 0.09041 0.37045 0.19129 0.0
O35 O 0.12357 0.4375 0.1941 0.0
O36 O 0.11869 0.48278 0.21762 0.0
C37 C 0.14959 0.47729 0.20595 0.0
O38 O 0.94047 0.32664 0.18747 0.0
O39 O 0.92171 0.35932 0.16213 0.0
C40 C 0.94143 0.34245 0.22377 0.0
C41 C 0.90591 0.32069 0.17425 0.0
Zn42 Zn 0.56769 0.03088 0.33791 0.0
Zn43 Zn 0.76252 0.07453 0.41041 0.0
Zn44 Zn 0.63525 0.04722 0.3626 0.0
C45 C 0.65278 0.08705 0.40044 0.0
C46 C 0.76035 0.11389 0.36864 0.0
O47 O 0.59534 0.95518 0.35698 0.0
O48 O 0.54252 0.9502 0.33298 0.0
C49 C 0.53198 0.07155 0.36599 0.0
O50 O 0.61798 0.0819 0.38747 0.0
O51 O 0.69356 0.0776 0.39661 0.0
O52 O 0.73818 0.08444 0.38316 0.0
O53 O 0.7252 0.10637 0.35557 0.0
O54 O 0.51394 0.04716 0.35093 0.0
O55 O 0.57968 0.07844 0.37281 0.0
O56 O 0.69213 0.09997 0.33958 0.0
O57 O 0.62295 0.08962 0.32053 0.0
C58 C 0.67625 0.11149 0.32419 0.0
O59 O 0.62519 0.96588 0.37392 0.0
O60 O 0.69904 0.02488 0.39024 0.0
C61 C 0.56107 0.92636 0.3439 0.0
C62 C 0.65916 0.97309 0.38738 0.0
Zn63 Zn 0.68853 0.69354 0.54037 0.0
Zn64 Zn 0.57685 0.58027 0.49624 0.0
Zn65 Zn 0.61639 0.64409 0.52116 0.0
C66 C 0.58056 0.68804 0.48741 0.0
C67 C 0.49704 0.53226 0.52536 0.0
O68 O 0.59821 0.5993 0.54806 0.0
O69 O 0.69008 0.62352 0.54902 0.0
C70 C 0.71122 0.77303 0.51545 0.0
O71 O 0.59773 0.70083 0.50402 0.0
O72 O 0.57125 0.64067 0.48117 0.0
O73 O 0.50491 0.52321 0.50919 0.0
O74 O 0.53714 0.57604 0.53363 0.0
O75 O 0.74306 0.75588 0.52289 0.0
O76 O 0.6558 0.73873 0.51516 0.0
O77 O 0.59867 0.71344 0.52657 0.0
O78 O 0.62958 0.70763 0.55382 0.0
C79 C 0.5966 0.71788 0.54387 0.0
O80 O 0.68785 0.63449 0.51314 0.0
O81 O 0.64382 0.56635 0.49322 0.0
C82 C 0.63947 0.59362 0.55528 0.0
C83 C 0.68879 0.59868 0.50236 0.0
Zn84 Zn 0.93198 0.5434 0.67289 0.0
Zn85 Zn 0.89495 0.62159 0.72788 0.0
Zn86 Zn 0.91226 0.58608 0.70008 0.0
C87 C 0.85772 0.51366 0.73759 0.0
C88 C 0.82416 0.6301 0.70235 0.0
O89 O 0.00653 0.63426 0.69562 0.0
O90 O 0.00965 0.60866 0.66755 0.0
C91 C 0.89097 0.45879 0.69772 0.0
O92 O 0.86303 0.51442 0.72023 0.0
O93 O 0.8787 0.56031 0.74591 0.0
O94 O 0.82709 0.62645 0.71934 0.0
O95 O 0.85711 0.62088 0.69215 0.0
O96 O 0.92418 0.47238 0.68431 0.0
O97 O 0.87951 0.49548 0.7045 0.0
O98 O 0.86231 0.59477 0.67605 0.0
O99 O 0.86592 0.53348 0.65753 0.0
C100 C 0.84534 0.56504 0.66137 0.0
O101 O -0.00215 0.65277 0.71282 0.0
O102 O 0.96728 0.69402 0.73167 0.0
C103 C 0.0347 0.6399 0.68101 0.0
C104 C 0.00874 0.69186 0.72463 0.0
Zn105 Zn 0.23411 0.85255 0.88644 0.0
Zn106 Zn 0.39704 0.92026 0.84478 0.0
Zn107 Zn 0.31237 0.8889 0.86742 0.0
C108 C 0.29841 0.86228 0.82362 0.0
C109 C 0.40742 0.85087 0.87091 0.0
O110 O 0.32377 0.96131 0.8851 0.0
O111 O 0.27124 0.90401 0.9073 0.0
C112 C 0.1885 0.85779 0.85518 0.0
O113 O 0.27702 0.8642 0.83899 0.0
O114 O 0.35206 0.88093 0.82234 0.0
O115 O 0.43659 0.88631 0.85858 0.0
O116 O 0.35797 0.84355 0.87543 0.0
O117 O 0.18201 0.86829 0.87123 0.0
O118 O 0.23362 0.85519 0.85103 0.0
O119 O 0.3101 0.8263 0.88815 0.0
O120 O 0.21603 0.77155 0.89028 0.0
C121 C 0.26594 0.78204 0.89517 0.0
O122 O 0.36095 0.98143 0.86962 0.0
O123 O 0.42525 0.00286 0.84791 0.0
C124 C 0.30651 0.95396 0.90171 0.0
C125 C 0.40309 0.01848 0.85988 0.0
Zn126 Zn 0.67515 0.57324 0.81502 0.0
Zn127 Zn 0.62441 0.54024 0.87891 0.0
Zn128 Zn 0.66031 0.56554 0.84759 0.0
C129 C 0.74231 0.57704 0.88137 0.0
C130 C 0.56755 0.44044 0.86219 0.0
O131 O 0.6274 0.62238 0.83474 0.0
O132 O 0.66071 0.63342 0.80692 0.0
C133 C 0.78303 0.62 0.83213 0.0
O134 O 0.74056 0.59669 0.86538 0.0
O135 O 0.69556 0.54593 0.88967 0.0
O136 O 0.5574 0.46174 0.8757 0.0
O137 O 0.60778 0.47291 0.85106 0.0
O138 O 0.75911 0.59903 0.81711 0.0
O139 O 0.75245 0.61366 0.84614 0.0
O140 O 0.6344 0.48208 0.83334 0.0
O141 O 0.62375 0.49773 0.80456 0.0
C142 C 0.62186 0.46387 0.81689 0.0
O143 O 0.60975 0.60774 0.85313 0.0
O144 O 0.60832 0.60257 0.8831 0.0
C145 C 0.63575 0.64581 0.81876 0.0
C146 C 0.59781 0.621 0.86852 0.0
Zn147 Zn -0.00585 0.61118 0.04148 0.0
Zn148 Zn 0.1201 0.82328 0.98626 0.0
Zn149 Zn 0.03319 0.68208 1.01673 0.0
C150 C 0.15884 0.78754 1.01433 0.0
C151 C 0.01284 0.77241 1.00352 0.0
O152 O 0.94484 0.67076 0.02166 0.0
O153 O 0.91309 0.59418 0.03939 0.0
C154 C 0.03193 0.56619 1.01327 0.0
O155 O 0.1217 0.74676 0.02449 0.0
O156 O 0.15239 0.83067 1.01198 0.0
O157 O 0.03601 0.76402 0.99004 0.0
O158 O -0.01236 0.73041 1.01477 0.0
O159 O 0.0173 0.56044 0.02972 0.0
O160 O 0.03439 0.60824 1.0038 0.0
O161 O 0.09351 0.71727 0.03996 0.0
O162 O 0.04214 0.65845 0.06216 0.0
C163 C 0.08629 0.70417 0.05698 0.0
O164 O 0.03546 0.65249 0.98961 0.0
O165 O 0.07183 0.73791 0.97562 0.0
C166 C 0.9031 0.62872 0.03039 0.0
C167 C 0.04564 0.68292 0.97494 0.0
Zn168 Zn 0.3256 0.13728 0.14801 0.0
Zn169 Zn 0.39624 0.02272 0.20867 0.0
Zn170 Zn 0.36149 0.0595 0.18403 0.0
C171 C 0.37552 0.09932 0.22545 0.0
C172 C 0.48512 0.06619 0.18512 0.0
O173 O 0.29383 -0.00386 0.16712 0.0
O174 O 0.28262 0.04931 0.14532 0.0
C175 C 0.34065 0.16209 0.18572 0.0
O176 O 0.35262 0.09617 0.2097 0.0
O177 O 0.40461 0.07487 0.22846 0.0
O178 O 0.46777 0.03207 0.19852 0.0
O179 O 0.45199 0.08344 0.17806 0.0
O180 O 0.37042 0.17699 0.17137 0.0
O181 O 0.33301 0.11683 0.19418 0.0
O182 O 0.42466 0.09832 0.16211 0.0
O183 O 0.4086 0.16944 0.15801 0.0
C184 C 0.43204 0.14166 0.15252 0.0
O185 O 0.29643 0.96805 0.18414 0.0
O186 O 0.32691 0.94557 0.20925 0.0
C187 C 0.27156 0.00083 0.15198 0.0
C188 C 0.28985 0.93135 0.19663 0.0
Zn189 Zn 0.38404 0.43692 0.36877 0.0
Zn190 Zn 0.23816 0.33255 0.32309 0.0
Zn191 Zn 0.30704 0.38456 0.34504 0.0
C192 C 0.31547 0.42485 0.30395 0.0
C193 C 0.17516 0.35078 0.34643 0.0
O194 O 0.34998 0.33413 0.35128 0.0
O195 O 0.40987 0.38183 0.37368 0.0
C196 C 0.41403 0.51398 0.34108 0.0
O197 O 0.32702 0.44253 0.32044 0.0
O198 O 0.28178 0.37235 0.3011 0.0
O199 O 0.17511 0.34647 0.32947 0.0
O200 O 0.22001 0.35926 0.35574 0.0
O201 O 0.43647 0.50636 0.35526 0.0
O202 O 0.36433 0.47393 0.3354 0.0
O203 O 0.26106 0.38262 0.37026 0.0
O204 O 0.33483 0.44241 0.38746 0.0
C205 C 0.28102 0.41018 0.3852 0.0
O206 O 0.31426 0.31091 0.33488 0.0
O207 O 0.22483 0.25376 0.32557 0.0
C208 C 0.38732 0.33904 0.36345 0.0
C209 C 0.27577 0.26306 0.32782 0.0
Zn210 Zn 0.93 0.3097 0.49288 0.0
Zn211 Zn 0.97385 0.37566 0.5501 0.0
Zn212 Zn 0.94872 0.32172 0.52208 0.0
C213 C 0.87936 0.25783 0.55606 0.0
C214 C 0.93807 0.43196 0.52526 0.0
O215 O 0.02477 0.33558 0.50581 0.0
O216 O 0.00223 0.37773 0.48397 0.0
C217 C 0.90113 0.20137 0.50832 0.0
O218 O 0.88673 0.25046 0.53934 0.0
O219 O 0.90982 0.30664 0.56317 0.0
O220 O 0.95795 0.438 0.54126 0.0
O221 O 0.93195 0.39001 0.51594 0.0
O222 O 0.92566 0.22942 0.49401 0.0
O223 O 0.89195 0.2283 0.52095 0.0
O224 O 0.85364 0.25712 0.51793 0.0
O225 O 0.85478 0.3092 0.49459 0.0
C226 C 0.82564 0.26969 0.50595 0.0
O227 O 0.03822 0.34 0.52641 0.0
O228 O 0.05608 0.39035 0.55125 0.0
C229 C 0.03848 0.36602 0.49109 0.0
C230 C 0.07322 0.36951 0.53924 0.0
Zn231 Zn 0.52089 0.93706 0.70867 0.0
Zn232 Zn 0.69302 0.91294 0.65243 0.0
Zn233 Zn 0.58274 0.9224 0.68548 0.0
C234 C 0.55969 0.86786 0.64455 0.0
C235 C 0.66258 0.88064 0.68981 0.0
O236 O 0.62352 0.0132 0.68953 0.0
O237 O 0.57422 0.02091 0.7119 0.0
C238 C 0.45415 0.88127 0.6771 0.0
O239 O 0.5435 0.87913 0.6596 0.0
O240 O 0.61134 0.87902 0.64147 0.0
O241 O 0.68755 0.92409 0.67949 0.0
O242 O 0.6178 0.87346 0.69794 0.0
O243 O 0.45528 0.90878 0.69091 0.0
O244 O 0.49848 0.87765 0.67284 0.0
O245 O 0.58578 0.87926 0.71158 0.0
O246 O 0.52059 0.88386 0.72833 0.0
C247 C 0.55681 0.86725 0.72642 0.0
O248 O 0.64495 0.00631 0.67222 0.0
O249 O 0.70556 0.97605 0.66977 0.0
C250 C 0.61668 0.04362 0.70125 0.0
C251 C 0.68974 0.01122 0.66445 0.0
H252 H 0.84474 0.6515 1.00286 0.0
H253 H 0.53435 0.42582 0.04455 0.0
H254 H 0.8207 0.57299 0.0559 0.0
H255 H 0.55491 0.51474 0.99348 0.0
H256 H 0.63914 0.48466 0.04978 0.0
H257 H 0.7389 0.60885 1.00004 0.0
C258 C 0.81748 0.62661 1.01407 0.0
C259 C 0.84179 0.61564 0.02958 0.0
C260 C 0.62063 0.49163 0.03748 0.0
C261 C 0.72062 0.56558 0.02634 0.0
C262 C 0.56064 0.45797 0.03452 0.0
C263 C 0.53539 0.4649 1.01852 0.0
C264 C 0.65598 0.53246 0.02433 0.0
C265 C 0.57213 0.50743 1.006 0.0
C266 C 0.75696 0.60172 1.01241 0.0
C267 C 0.80402 0.58228 0.0436 0.0
N268 N 0.63027 0.5391 1.0091 0.0
N269 N 0.74572 0.55811 0.04157 0.0
H270 H 0.18943 0.88394 0.17583 0.0
H271 H 0.08732 0.57066 0.21655 0.0
H272 H 0.27645 0.84367 0.21859 0.0
H273 H 0.02032 0.6004 0.16632 0.0
H274 H 0.13937 0.67367 0.22181 0.0
H275 H 0.11245 0.78267 0.17576 0.0
C276 C 0.1926 0.85392 0.18506 0.0
C277 C 0.24051 0.87193 0.19673 0.0
C278 C 0.11258 0.65756 0.20975 0.0
C279 C 0.15185 0.75732 0.19735 0.0
C280 C 0.08259 0.59868 0.2068 0.0
C281 C 0.05061 0.57706 0.19076 0.0
C282 C 0.11074 0.69497 0.19654 0.0
C283 C 0.0455 0.61541 0.17871 0.0
C284 C 0.14837 0.79642 0.18521 0.0
C285 C 0.241 0.83177 0.20908 0.0
N286 N 0.07615 0.67271 0.18168 0.0
N287 N 0.19768 0.77648 0.20897 0.0
H288 H 0.32406 0.22443 0.35552 0.0
H289 H 0.57854 0.16809 0.38653 0.0
H290 H 0.48589 0.35227 0.37916 0.0
H291 H 0.41878 0.04044 0.36181 0.0
H292 H 0.53682 0.22993 0.38981 0.0
H293 H 0.35171 0.15194 0.36174 0.0
C294 C 0.36574 0.23739 0.36173 0.0
C295 C 0.40341 0.29463 0.36634 0.0
C296 C 0.5104 0.18785 0.38403 0.0
C297 C 0.43447 0.21187 0.37417 0.0
C298 C 0.53399 0.15225 0.38241 0.0
C299 C 0.50236 0.09973 0.3736 0.0
C300 C 0.45516 0.17059 0.37667 0.0
C301 C 0.44494 0.0813 0.36837 0.0
C302 C 0.38111 0.19587 0.36559 0.0
C303 C 0.45581 0.30864 0.37517 0.0
N304 N 0.42351 0.1172 0.36965 0.0
N305 N 0.46996 0.26764 0.37868 0.0
H306 H 0.12898 0.33349 0.5163 0.0
H307 H 0.44535 0.55822 0.55279 0.0
H308 H 0.15891 0.43926 0.56291 0.0
H309 H 0.41189 0.42768 0.51388 0.0
H310 H 0.34091 0.51142 0.55839 0.0
H311 H 0.23244 0.36477 0.51611 0.0
C312 C 0.15707 0.36289 0.52656 0.0
C313 C 0.13494 0.38391 0.53955 0.0
C314 C 0.35658 0.49245 0.54886 0.0
C315 C 0.25384 0.42025 0.5394 0.0
C316 C 0.41636 0.51889 0.54582 0.0
C317 C 0.43758 0.49724 0.53274 0.0
C318 C 0.31779 0.44432 0.53866 0.0
C319 C 0.3976 0.44636 0.52396 0.0
C320 C 0.21623 0.38069 0.52649 0.0
C321 C 0.17376 0.42192 0.55257 0.0
N322 N 0.33984 0.42228 0.52686 0.0
N323 N 0.23114 0.4392 0.55205 0.0
H324 H 0.72907 0.09725 0.69024 0.0
H325 H 0.78285 0.40494 0.7107 0.0
H326 H 0.60508 0.12724 0.71741 0.0
H327 H 0.92039 0.37518 0.6956 0.0
H328 H 0.72017 0.30321 0.71606 0.0
H329 H 0.80152 0.19793 0.69357 0.0
C330 C 0.71684 0.12514 0.69671 0.0
C331 C 0.66052 0.10432 0.70309 0.0
C332 C 0.76447 0.31873 0.71205 0.0
C333 C 0.74367 0.21911 0.7074 0.0
C334 C 0.80068 0.3771 0.70941 0.0
C335 C 0.85729 0.39855 0.70339 0.0
C336 C 0.78445 0.28121 0.70797 0.0
C337 C 0.87697 0.36012 0.70041 0.0
C338 C 0.75857 0.18244 0.69888 0.0
C339 C 0.64782 0.14185 0.71206 0.0
N340 N 0.84019 0.30289 0.70252 0.0
N341 N 0.68902 0.19772 0.71379 0.0
H342 H 0.51369 0.61845 0.84636 0.0
H343 H 0.50995 0.88045 0.88726 0.0
H344 H 0.61707 0.70006 0.89381 0.0
H345 H 0.35229 0.73578 0.86763 0.0
H346 H 0.55539 0.82085 0.88847 0.0
H347 H 0.46042 0.66964 0.85089 0.0
C348 C 0.52567 0.64787 0.85751 0.0
C349 C 0.56992 0.65575 0.86963 0.0
C350 C 0.51038 0.80178 0.88436 0.0
C351 C 0.50928 0.71305 0.87505 0.0
C352 C 0.48442 0.83547 0.88386 0.0
C353 C 0.4274 0.8124 0.87755 0.0
C354 C 0.47955 0.74563 0.87784 0.0
C355 C 0.39618 0.75449 0.87283 0.0
C356 C 0.49477 0.67611 0.86028 0.0
C357 C 0.58319 0.69316 0.88417 0.0
N358 N 0.42318 0.7232 0.87262 0.0
N359 N 0.55329 0.72095 0.8864 0.0
H360 H 0.45735 0.3609 0.8722 0.0
H361 H 0.5154 0.10156 0.86023 0.0
H362 H 0.61347 0.37858 0.84978 0.0
H363 H 0.34219 0.07405 0.86281 0.0
H364 H 0.55363 0.20495 0.86039 0.0
H365 H 0.41461 0.25612 0.87232 0.0
C366 C 0.48215 0.34259 0.86704 0.0
C367 C 0.53847 0.37798 0.86059 0.0
C368 C 0.50725 0.17638 0.86111 0.0
C369 C 0.49096 0.25957 0.86111 0.0
C370 C 0.48558 0.11759 0.86114 0.0
C371 C 0.42586 0.07987 0.86201 0.0
C372 C 0.46878 0.19742 0.86186 0.0
C373 C 0.38868 0.10223 0.86286 0.0
C374 C 0.4579 0.28312 0.86713 0.0
C375 C 0.5693 0.35265 0.85426 0.0
N376 N 0.41078 0.15992 0.8628 0.0
N377 N 0.54529 0.29494 0.85479 0.0
H378 H 0.10652 0.58236 0.98507 0.0
H379 H 0.1841 0.35268 0.02885 0.0
H380 H 0.00945 0.46367 0.028 0.0
H381 H 0.26685 0.45427 0.98109 0.0
H382 H 0.11751 0.39079 0.02813 0.0
H383 H 0.16209 0.53255 0.9819 0.0
C384 C 0.09619 0.54538 0.99356 0.0
C385 C 0.05417 0.52834 1.00706 0.0
C386 C 0.1501 0.40445 1.01774 0.0
C387 C 0.11773 0.47114 1.00377 0.0
C388 C 0.18831 0.38275 1.01822 0.0
C389 C 0.23166 0.40025 1.00513 0.0
C390 C 0.15526 0.44428 1.0041 0.0
C391 C 0.23444 0.43932 0.99157 0.0
C392 C 0.12808 0.51702 0.99188 0.0
C393 C 0.04209 0.47928 1.01758 0.0
N394 N 0.1973 0.46009 0.99148 0.0
N395 N 0.07407 0.45318 1.01591 0.0
H396 H 0.56474 0.04024 0.19894 0.0
H397 H 0.82819 0.29715 0.14683 0.0
H398 H 0.54503 0.14867 0.1589 0.0
H399 H 0.8466 0.23285 0.19918 0.0
H400 H 0.72601 0.22529 0.14649 0.0
H401 H 0.66888 0.09306 0.19411 0.0
C402 C 0.58205 0.07454 0.18889 0.0
C403 C 0.54597 0.09071 0.17952 0.0
C404 C 0.75248 0.2266 0.15798 0.0
C405 C 0.6653 0.15101 0.17399 0.0
C406 C 0.81096 0.26761 0.15824 0.0
C407 C 0.84597 0.2719 0.17328 0.0
C408 C 0.72858 0.18916 0.1728 0.0
C409 C 0.82113 0.23166 0.18745 0.0
C410 C 0.6416 0.10472 0.18624 0.0
C411 C 0.57103 0.13504 0.16656 0.0
N412 N 0.7636 0.19215 0.18694 0.0
N413 N 0.62936 0.16406 0.16429 0.0
H414 H 0.36124 0.56709 0.32448 0.0
H415 H 0.61155 0.86617 0.35758 0.0
H416 H 0.52822 0.59452 0.34183 0.0
H417 H 0.47155 0.84952 0.32312 0.0
H418 H 0.58213 0.76627 0.35143 0.0
H419 H 0.40261 0.67073 0.32145 0.0
C420 C 0.40716 0.59481 0.32684 0.0
C421 C 0.44132 0.57242 0.33344 0.0
C422 C 0.55823 0.78476 0.3451 0.0
C423 C 0.48816 0.69063 0.33103 0.0
C424 C 0.57457 0.84148 0.3488 0.0
C425 C 0.54361 0.86591 0.341 0.0
C426 C 0.51025 0.7523 0.33371 0.0
C427 C 0.49654 0.83228 0.32948 0.0
C428 C 0.43062 0.65405 0.32543 0.0
C429 C 0.50029 0.61033 0.3369 0.0
N430 N 0.48097 0.77703 0.32631 0.0
N431 N 0.52163 0.66774 0.33605 0.0
H432 H 0.88034 0.42367 0.49327 0.0
H433 H 0.78499 0.64585 0.52452 0.0
H434 H 0.94491 0.52556 0.54154 0.0
H435 H 0.7067 0.52986 0.47985 0.0
H436 H 0.85791 0.61657 0.52728 0.0
H437 H 0.8309 0.47623 0.48464 0.0
C438 C 0.88489 0.45764 0.50193 0.0
C439 C 0.91609 0.46952 0.51832 0.0
C440 C 0.82523 0.59812 0.51671 0.0
C441 C 0.85928 0.52973 0.50854 0.0
C442 C 0.78367 0.61499 0.51509 0.0
C443 C 0.73905 0.5896 0.50212 0.0
C444 C 0.82218 0.55561 0.50529 0.0
C445 C 0.7398 0.55004 0.49021 0.0
C446 C 0.8565 0.48759 0.49701 0.0
C447 C 0.92075 0.51439 0.5289 0.0
N448 N 0.78023 0.53379 0.49221 0.0
N449 N 0.8921 0.54238 0.52394 0.0
H450 H 0.38214 0.91363 0.66145 0.0
H451 H 0.11983 0.64431 0.7028 0.0
H452 H 0.39591 0.7658 0.67671 0.0
H453 H 0.08991 0.72249 0.65544 0.0
H454 H 0.22445 0.69998 0.69697 0.0
H455 H 0.27631 0.85273 0.66045 0.0
C456 C 0.36281 0.86784 0.66377 0.0
C457 C 0.39728 0.84425 0.66895 0.0
C458 C 0.19482 0.70505 0.68795 0.0
C459 C 0.27746 0.7759 0.66907 0.0
C460 C 0.1356 0.67435 0.69148 0.0
C461 C 0.09699 0.67997 0.67975 0.0
C462 C 0.21508 0.74209 0.6728 0.0
C463 C 0.1189 0.71786 0.66488 0.0
C464 C 0.30267 0.83342 0.66346 0.0
C465 C 0.37052 0.78514 0.67238 0.0
N466 N 0.17681 0.74811 0.66188 0.0
N467 N 0.31186 0.75308 0.67292 0.0
H468 H 0.33515 0.25509 0.94965 0.0
H469 H 0.31593 0.95179 0.93848 0.0
H470 H 0.33149 0.15166 0.99564 0.0
H471 H 0.32801 0.06299 0.894 0.0
H472 H 0.32476 0.02429 0.95975 0.0
H473 H 0.33362 0.18473 0.92946 0.0
C474 C 0.33375 0.2173 0.95557 0.0
C475 C 0.33349 0.20951 0.97448 0.0
C476 C 0.32648 0.03332 0.94534 0.0
C477 C 0.33196 0.12796 0.95107 0.0
C478 C 0.32175 -0.00789 0.93316 0.0
C479 C 0.32232 0.00185 0.91433 0.0
C480 C 0.33124 0.08461 0.93868 0.0
C481 C 0.32934 0.05446 0.90826 0.0
C482 C 0.33305 0.17706 0.94393 0.0
C483 C 0.33138 0.15934 0.98118 0.0
N484 N 0.33309 0.09361 0.92037 0.0
N485 N 0.33076 0.12043 0.96947 0.0
H486 H 0.20636 0.47661 0.14822 0.0
H487 H 0.18438 0.30117 0.05889 0.0
H488 H 0.05836 0.31373 0.13461 0.0
H489 H 0.34044 0.45282 0.0758 0.0
H490 H 0.134 0.31088 0.08487 0.0
H491 H 0.25592 0.47109 0.12126 0.0
C492 C 0.18532 0.43872 0.13989 0.0
C493 C 0.12907 0.39478 0.14381 0.0
C494 C 0.179 0.34271 0.0827 0.0
C495 C 0.18363 0.38942 0.11251 0.0
C496 C 0.20732 0.33784 0.06764 0.0
C497 C 0.26637 0.37666 0.06511 0.0
C498 C 0.21016 0.38661 0.09529 0.0
C499 C 0.29468 0.4223 0.07722 0.0
C500 C 0.213 0.43599 0.12433 0.0
C501 C 0.10241 0.34772 0.13222 0.0
N502 N 0.26655 0.42574 0.09186 0.0
N503 N 0.12972 0.34639 0.11704 0.0
H504 H 0.84951 0.34939 0.23548 0.0
H505 H 0.78259 0.12373 0.31615 0.0
H506 H 0.92587 0.24172 0.2378 0.0
H507 H 0.66348 0.1802 0.29944 0.0
H508 H 0.84277 0.17444 0.28961 0.0
H509 H 0.78455 0.29249 0.26018 0.0
C510 C 0.8511 0.31244 0.24082 0.0
C511 C 0.89182 0.29912 0.23432 0.0
C512 C 0.8035 0.17576 0.29184 0.0
C513 C 0.82032 0.23599 0.26331 0.0
C514 C 0.76967 0.14754 0.3071 0.0
C515 C 0.71812 0.14796 0.31004 0.0
C516 C 0.78599 0.20522 0.27966 0.0
C517 C 0.70288 0.17872 0.2977 0.0
C518 C 0.81465 0.28045 0.25506 0.0
C519 C 0.89382 0.25221 0.24214 0.0
N520 N 0.73663 0.20617 0.28315 0.0
N521 N 0.85917 0.22278 0.25642 0.0
H522 H 0.72534 0.97867 0.41673 0.0
H523 H 0.52171 0.66558 0.45521 0.0
H524 H 0.56319 0.86449 0.39021 0.0
H525 H 0.63779 0.80589 0.48915 0.0
H526 H 0.53735 0.73387 0.43058 0.0
H527 H 0.69839 0.91146 0.4421 0.0
C528 C 0.68405 0.9394 0.41617 0.0
C529 C 0.64622 0.92781 0.40133 0.0
C530 C 0.55885 0.74981 0.4435 0.0
C531 C 0.61526 0.84979 0.4305 0.0
C532 C 0.54988 0.71094 0.45762 0.0
C533 C 0.5794 0.73004 0.47428 0.0
C534 C 0.5985 0.80823 0.44591 0.0
C535 C 0.61487 0.78924 0.47659 0.0
C536 C 0.66859 0.90107 0.43077 0.0
C537 C 0.59378 0.87529 0.40133 0.0
N538 N 0.62435 0.82618 0.46246 0.0
N539 N 0.57986 0.83808 0.41569 0.0
H540 H 0.64539 0.49858 0.56461 0.0
H541 H 0.82547 0.65311 0.65116 0.0
H542 H 0.63688 0.64007 0.58709 0.0
H543 H 0.76463 0.47449 0.64217 0.0
H544 H 0.75503 0.64945 0.62852 0.0
H545 H 0.68456 0.4859 0.5935 0.0
C546 C 0.64898 0.52506 0.57595 0.0
C547 C 0.63638 0.56939 0.57361 0.0
C548 C 0.75617 0.61071 0.63183 0.0
C549 C 0.68535 0.5581 0.60633 0.0
C550 C 0.79585 0.61273 0.64498 0.0
C551 C 0.80004 0.56389 0.64899 0.0
C552 C 0.7215 0.55975 0.62225 0.0
C553 C 0.763 0.51333 0.63956 0.0
C554 C 0.67235 0.51855 0.59237 0.0
C555 C 0.64454 0.60435 0.58852 0.0
N556 N 0.72597 0.51275 0.62655 0.0
N557 N 0.66985 0.59895 0.60408 0.0
H558 H 0.29927 0.79025 0.79827 0.0
H559 H 0.05375 0.80018 0.73691 0.0
H560 H 0.21541 0.88581 0.81122 0.0
H561 H 0.09258 0.66382 0.73291 0.0
H562 H 0.13048 0.84602 0.75962 0.0
H563 H 0.23867 0.75523 0.77075 0.0
C564 C 0.2679 0.80366 0.79532 0.0
C565 C 0.26123 0.83985 0.80723 0.0
C566 C 0.12316 0.80669 0.75353 0.0
C567 C 0.19311 0.80137 0.7756 0.0
C568 C 0.07985 0.78086 0.74036 0.0
C569 C 0.06675 0.72809 0.73294 0.0
C570 C 0.15388 0.77967 0.75946 0.0
C571 C 0.10175 0.70486 0.73805 0.0
C572 C 0.23349 0.78376 0.77963 0.0
C573 C 0.2207 0.85666 0.80268 0.0
N574 N 0.14324 0.73038 0.75121 0.0
N575 N 0.18826 0.83735 0.78725 0.0
H576 H 0.85307 0.6729 0.87976 0.0
H577 H 0.95349 0.57369 0.96939 0.0
H578 H 0.75498 0.50607 0.90505 0.0
H579 H 0.06325 0.73348 0.9413 0.0
H580 H 0.88642 0.54322 0.94352 0.0
H581 H 0.93586 0.69218 0.89964 0.0
C582 C 0.84937 0.63989 0.88912 0.0
C583 C 0.79683 0.58799 0.89074 0.0
C584 C 0.92571 0.5846 0.94286 0.0
C585 C 0.89077 0.60988 0.91384 0.0
C586 C 0.96444 0.60175 0.95761 0.0
C587 C 0.01392 0.65659 0.95773 0.0
C588 C 0.93611 0.62264 0.92812 0.0
C589 C 0.0253 0.69109 0.94199 0.0
C590 C 0.89646 0.65098 0.90061 0.0
C591 C 0.79431 0.54708 0.90344 0.0
N592 N -0.01368 0.67407 0.92803 0.0
N593 N 0.84006 0.55907 0.91454 0.0
H594 H 0.14762 0.82051 0.0532 0.0
H595 H 0.26873 0.89701 0.15342 0.0
H596 H 0.10691 0.68388 0.09209 0.0
H597 H 0.20382 -0.00843 0.12279 0.0
H598 H 0.22724 0.82187 0.1304 0.0
H599 H 0.19249 0.89005 0.07744 0.0
C600 C 0.14953 0.80518 0.06673 0.0
C601 C 0.12358 0.74633 0.07065 0.0
C602 C 0.22174 0.85892 0.12894 0.0
C603 C 0.1741 0.82564 0.09843 0.0
C604 C 0.24463 0.90141 0.14216 0.0
C605 C 0.2391 0.95042 0.1402 0.0
C606 C 0.19503 0.8667 0.11345 0.0
C607 C 0.20917 0.95464 0.12493 0.0
C608 C 0.1744 0.84484 0.08059 0.0
C609 C 0.12638 0.72895 0.08855 0.0
N610 N 0.18898 0.91378 0.11206 0.0
N611 N 0.15117 0.76851 0.10186 0.0
H612 H 0.45244 0.1682 0.251 0.0
H613 H 0.20507 0.15886 0.31258 0.0
H614 H 0.27227 0.08641 0.23562 0.0
H615 H 0.38545 0.28644 0.31947 0.0
H616 H 0.2312 0.11692 0.28816 0.0
H617 H 0.43031 0.20097 0.27894 0.0
C618 C 0.40839 0.15817 0.25339 0.0
C619 C 0.36427 0.1262 0.24079 0.0
C620 C 0.26516 0.15361 0.29519 0.0
C621 C 0.33836 0.16126 0.27291 0.0
C622 C 0.25041 0.1772 0.3093 0.0
C623 C 0.29302 0.22699 0.31787 0.0
C624 C 0.32298 0.17966 0.28967 0.0
C625 C 0.35109 0.24839 0.31313 0.0
C626 C 0.39578 0.17643 0.26935 0.0
C627 C 0.30776 0.11301 0.24464 0.0
N628 N 0.36434 0.2251 0.29913 0.0
N629 N 0.29632 0.13034 0.26042 0.0
H630 H 0.19685 0.31056 0.40069 0.0
H631 H 0.11387 0.46651 0.47476 0.0
H632 H 0.28362 0.49435 0.40528 0.0
H633 H 0.07271 0.29087 0.48114 0.0
H634 H 0.17548 0.47787 0.4491 0.0
H635 H 0.14526 0.30109 0.42898 0.0
C636 C 0.20363 0.34882 0.40739 0.0
C637 C 0.24305 0.40328 0.40044 0.0
C638 C 0.15407 0.43715 0.45632 0.0
C639 C 0.18649 0.39304 0.43303 0.0
C640 C 0.11953 0.43092 0.4711 0.0
C641 C 0.08895 0.37796 0.48017 0.0
C642 C 0.15675 0.38954 0.45023 0.0
C643 C 0.09651 0.33269 0.47466 0.0
C644 C 0.17528 0.34347 0.42371 0.0
C645 C 0.25273 0.45161 0.41008 0.0
N646 N 0.12885 0.33915 0.4598 0.0
N647 N 0.22445 0.44539 0.42582 0.0
H648 H 0.79812 0.26063 0.57662 0.0
H649 H 0.76766 0.00878 0.64153 0.0
H650 H 0.86704 0.1519 0.56341 0.0
H651 H 0.66124 0.08603 0.64725 0.0
H652 H 0.80289 0.05973 0.61278 0.0
H653 H 0.74442 0.19544 0.60166 0.0
C654 C 0.80058 0.222 0.57872 0.0
C655 C 0.83647 0.21119 0.56781 0.0
C656 C 0.77145 0.06524 0.6202 0.0
C657 C 0.77686 0.13741 0.59693 0.0
C658 C 0.75128 0.0362 0.63672 0.0
C659 C 0.711 0.04275 0.64689 0.0
C660 C 0.75222 0.10224 0.61378 0.0
C661 C 0.6921 0.0795 0.6399 0.0
C662 C 0.77021 0.185 0.59309 0.0
C663 C 0.839 0.16118 0.57128 0.0
N664 N 0.71321 0.10818 0.62386 0.0
N665 N 0.81033 0.12659 0.58572 0.0
H666 H 0.52666 0.629 0.81254 0.0
H667 H 0.65377 0.85952 0.73392 0.0
H668 H 0.70771 0.75596 0.80966 0.0
H669 H 0.48268 0.80471 0.75388 0.0
H670 H 0.67091 0.81286 0.76024 0.0
H671 H 0.50519 0.68723 0.79106 0.0
C672 C 0.56147 0.67051 0.80815 0.0
C673 C 0.61892 0.68835 0.81318 0.0
C674 C 0.62966 0.8112 0.75887 0.0
C675 C 0.59535 0.75281 0.78771 0.0
C676 C 0.61964 0.83731 0.74374 0.0
C677 C 0.56671 0.83603 0.74165 0.0
C678 C 0.58605 0.7825 0.77187 0.0
C679 C 0.52422 0.8069 0.75497 0.0
C680 C 0.54939 0.70316 0.79561 0.0
C681 C 0.66274 0.74123 0.80636 0.0
N682 N 0.53455 0.78083 0.76941 0.0
N683 N 0.65028 0.77088 0.7937 0.0
H684 H 0.37605 0.05488 0.12799 0.0
H685 H 0.51255 0.2759 0.04508 0.0
H686 H 0.50802 0.23268 0.13211 0.0
H687 H 0.33195 0.14704 0.04648 0.0
H688 H 0.52903 0.23361 0.07252 0.0
H689 H 0.37675 0.06621 0.09474 0.0
C690 C 0.40648 0.09575 0.12187 0.0
C691 C 0.44206 0.14306 0.13278 0.0
C692 C 0.48619 0.21311 0.06641 0.0
C693 C 0.44389 0.15582 0.0949 0.0
C694 C 0.47694 0.23644 0.05048 0.0
C695 C 0.42054 0.21577 0.04363 0.0
C696 C 0.43887 0.168 0.07538 0.0
C697 C 0.37601 0.16484 0.05136 0.0
C698 C 0.40667 0.10216 0.10294 0.0
C699 C 0.48013 0.19518 0.12418 0.0
N700 N 0.38569 0.14367 0.06719 0.0
N701 N 0.47999 0.20019 0.10579 0.0
H702 H 0.22019 0.57764 0.22296 0.0
H703 H 0.35683 0.4108 0.27247 0.0
H704 H 0.21775 0.42833 0.20225 0.0
H705 H 0.30797 0.52173 0.29828 0.0
H706 H 0.34663 0.44752 0.24288 0.0
H707 H 0.2937 0.58844 0.24522 0.0
C708 C 0.23714 0.54863 0.22251 0.0
C709 C 0.21115 0.50063 0.21117 0.0
C710 C 0.34041 0.46558 0.25502 0.0
C711 C 0.29448 0.5122 0.23686 0.0
C712 C 0.34672 0.44503 0.27194 0.0
C713 C 0.33336 0.46339 0.28788 0.0
C714 C 0.32014 0.50451 0.25402 0.0
C715 C 0.31975 0.5072 0.28642 0.0
C716 C 0.27862 0.55445 0.2354 0.0
C717 C 0.23536 0.46499 0.21103 0.0
N718 N 0.31222 0.52538 0.26975 0.0
N719 N 0.27438 0.47033 0.22412 0.0
H720 H 0.6566 0.02873 0.42996 0.0
H721 H 0.74716 0.29533 0.49126 0.0
H722 H 0.63615 0.17224 0.41409 0.0
H723 H 0.76912 0.15218 0.50614 0.0
H724 H 0.67738 0.23726 0.46791 0.0
H725 H 0.66998 0.05949 0.46136 0.0
C726 C 0.65352 0.0661 0.43322 0.0
C727 C 0.64577 0.09834 0.41944 0.0
C728 C 0.69588 0.21773 0.47665 0.0
C729 C 0.66272 0.13496 0.4554 0.0
C730 C 0.73513 0.25064 0.49022 0.0
C731 C 0.76533 0.22903 0.50034 0.0
C732 C 0.68698 0.16289 0.47317 0.0
C733 C 0.74781 0.17093 0.49847 0.0
C734 C 0.66124 0.08373 0.45117 0.0
C735 C 0.6419 0.14619 0.42435 0.0
N736 N 0.71122 0.1404 0.48471 0.0
N737 N 0.65174 0.16386 0.44191 0.0
H738 H 0.58507 0.81399 0.53989 0.0
H739 H 0.47799 0.7558 0.64018 0.0
H740 H 0.51827 0.65311 0.56885 0.0
H741 H 0.55595 0.92124 0.61369 0.0
H742 H 0.45529 0.71036 0.61052 0.0
H743 H 0.54109 0.84584 0.56242 0.0
C744 C 0.55946 0.78468 0.5506 0.0
C745 C 0.55615 0.73141 0.55279 0.0
C746 C 0.47534 0.75658 0.61111 0.0
C747 C 0.50632 0.76731 0.57863 0.0
C748 C 0.48732 0.78239 0.62809 0.0
C749 C 0.51922 0.84218 0.62929 0.0
C750 C 0.49677 0.79111 0.59538 0.0
C751 C 0.53135 0.87484 0.61323 0.0
C752 C 0.53443 0.80282 0.56352 0.0
C753 C 0.52231 0.69489 0.56688 0.0
N754 N 0.5218 0.84903 0.59691 0.0
N755 N 0.49962 0.71383 0.57944 0.0
H756 H 0.87678 0.47076 0.76906 0.0
H757 H 0.56323 0.38899 0.78958 0.0
H758 H 0.7442 0.44358 0.7299 0.0
H759 H 0.69807 0.43206 0.82948 0.0
H760 H 0.61393 0.35964 0.76912 0.0
H761 H 0.80157 0.4124 0.79109 0.0
C762 C 0.83177 0.44989 0.76481 0.0
C763 C 0.81662 0.46138 0.74759 0.0
C764 C 0.63138 0.3732 0.78264 0.0
C765 C 0.73036 0.39686 0.77288 0.0
C766 C 0.60182 0.38912 0.79446 0.0
C767 C 0.62766 0.41512 0.81096 0.0
C768 C 0.68738 0.38446 0.78734 0.0
C769 C 0.67725 0.41352 0.81668 0.0
C770 C 0.78876 0.41686 0.77741 0.0
C771 C 0.75777 0.43452 0.74286 0.0
N772 N 0.70694 0.401 0.80459 0.0
N773 N 0.71682 0.40461 0.75555 0.0
H774 H 0.14399 0.68288 1.00305 0.0
H775 H 0.35482 0.83472 0.91957 0.0
H776 H 0.24282 0.86498 0.99242 0.0
H777 H 0.18725 0.68317 0.91276 0.0
H778 H 0.34069 0.826 0.9523 0.0
H779 H 0.18526 0.66726 0.97544 0.0
C780 C 0.17406 0.71934 0.99497 0.0
C781 C 0.18737 0.77508 0.99942 0.0
C782 C 0.30809 0.79336 0.94365 0.0
C783 C 0.23707 0.75756 0.96893 0.0
C784 C 0.31633 0.79785 0.92493 0.0
C785 C 0.27125 0.76064 0.91334 0.0
C786 C 0.25508 0.75074 0.95077 0.0
C787 C 0.22254 0.71354 0.92121 0.0
C788 C 0.19787 0.71036 0.97944 0.0
C789 C 0.22945 0.82109 0.98909 0.0
N790 N 0.21494 0.71073 0.93946 0.0
N791 N 0.25234 0.81132 0.97428 0.0
H792 H 0.20018 0.10524 0.05766 0.0
H793 H 0.04341 0.86439 0.98144 0.0
H794 H 0.22404 0.13762 1.00014 0.0
H795 H 0.03983 0.82027 0.03805 0.0
H796 H 0.09937 0.96578 0.98894 0.0
H797 H 0.13366 0.00293 0.05162 0.0
C798 C 0.19133 0.09102 0.04376 0.0
C799 C 0.21831 0.13044 0.02939 0.0
C800 C 0.08599 0.93423 0.99982 0.0
C801 C 0.14153 0.013 0.02237 0.0
C802 C 0.05346 0.87609 0.99555 0.0
C803 C 0.03656 0.83337 1.00909 0.0
C804 C 0.10229 0.95078 1.01787 0.0
C805 C 0.05125 0.8515 0.02715 0.0
C806 C 0.15339 0.03247 0.04033 0.0
C807 C 0.20506 0.1091 1.01168 0.0
N808 N 0.08365 0.90876 0.03099 0.0
N809 N 0.16782 0.05227 1.00872 0.0
H810 H 0.34979 0.25923 0.17051 0.0
H811 H 0.09924 0.26041 0.2275 0.0
H812 H 0.25222 0.1273 0.21031 0.0
H813 H 0.15766 0.34445 0.17544 0.0
H814 H 0.16174 0.21843 0.22427 0.0
H815 H 0.28795 0.30001 0.17541 0.0
C816 C 0.31571 0.23908 0.18045 0.0
C817 C 0.30643 0.18977 0.19009 0.0
C818 C 0.16049 0.24589 0.21356 0.0
C819 C 0.23507 0.23645 0.19574 0.0
C820 C 0.12485 0.26981 0.21537 0.0
C821 C 0.12317 0.30613 0.20172 0.0
C822 C 0.19516 0.25909 0.19812 0.0
C823 C 0.15729 0.31673 0.1863 0.0
C824 C 0.28021 0.26231 0.18318 0.0
C825 C 0.26153 0.16576 0.20281 0.0
N826 N 0.1921 0.29375 0.185 0.0
N827 N 0.2274 0.18929 0.20527 0.0
H828 H 0.0961 0.37863 0.33414 0.0
H829 H 0.846 0.12538 0.3919 0.0
H830 H 0.12743 0.28585 0.37684 0.0
H831 H 0.81619 0.20064 0.34369 0.0
H832 H 0.94875 0.1967 0.39054 0.0
H833 H -0.00619 0.32924 0.34219 0.0
C834 C 0.08166 0.34925 0.34565 0.0
C835 C 0.12007 0.33627 0.35492 0.0
C836 C 0.91972 0.19788 0.38033 0.0
C837 C 0.00307 0.27832 0.3638 0.0
C838 C 0.86099 0.15713 0.38107 0.0
C839 C 0.82255 0.1568 0.36779 0.0
C840 C 0.94024 0.23868 0.36619 0.0
C841 C 0.84449 0.19883 0.35404 0.0
C842 C 0.02323 0.32067 0.35012 0.0
C843 C 0.09939 0.29779 0.36963 0.0
N844 N 0.90199 0.23797 0.35355 0.0
N845 N 0.04192 0.26927 0.37343 0.0
H846 H 0.81939 0.12581 0.53191 0.0
H847 H 0.8156 0.84552 0.49961 0.0
H848 H 0.92163 0.13251 0.48636 0.0
H849 H 0.6668 0.84141 0.52277 0.0
H850 H 0.86282 0.95072 0.49699 0.0
H851 H 0.77165 0.02122 0.53197 0.0
C852 C 0.83226 0.10536 0.52203 0.0
C853 C 0.87452 0.13807 0.50908 0.0
C854 C 0.8195 0.92659 0.50242 0.0
C855 C 0.82002 0.01812 0.50912 0.0
C856 C 0.79255 0.86675 0.50386 0.0
C857 C 0.73686 0.83484 0.51118 0.0
C858 C 0.79118 0.9546 0.5089 0.0
C859 C 0.70929 0.86438 0.51682 0.0
C860 C 0.80455 0.0456 0.52196 0.0
C861 C 0.88904 0.10897 0.49651 0.0
N862 N 0.7369 0.92258 0.51575 0.0
N863 N 0.86207 0.05059 0.4969 0.0
H864 H 0.85271 0.71106 0.67625 0.0
H865 H 0.60583 0.77335 0.70567 0.0
H866 H 0.71564 0.60092 0.71268 0.0
H867 H 0.74932 0.88244 0.67085 0.0
H868 H 0.63292 0.69916 0.70387 0.0
H869 H 0.80067 0.76126 0.66838 0.0
C870 C 0.81035 0.69603 0.68198 0.0
C871 C 0.78763 0.65143 0.69478 0.0
C872 C 0.65776 0.73906 0.69641 0.0
C873 C 0.72986 0.71091 0.687 0.0
C874 C 0.64255 0.78141 0.69752 0.0
C875 C 0.67555 0.83407 0.68846 0.0
C876 C 0.70628 0.7499 0.68623 0.0
C877 C 0.72253 0.84242 0.67803 0.0
C878 C 0.78107 0.72524 0.67778 0.0
C879 C 0.73416 0.63524 0.70265 0.0
N880 N 0.73664 0.80092 0.67729 0.0
N881 N 0.70732 0.66565 0.69885 0.0
H882 H 0.14767 0.76898 0.8318 0.0
H883 H 0.84102 0.717 0.85131 0.0
H884 H 0.11659 0.90059 0.85139 0.0
H885 H 0.86517 0.61291 0.81278 0.0
H886 H 0.94389 0.78689 0.84993 0.0
H887 H 0.04758 0.71597 0.82082 0.0
C888 C 0.12038 0.78782 0.83306 0.0
C889 C 0.13935 0.83833 0.84277 0.0
C890 C 0.92683 0.74896 0.84167 0.0
C891 C 0.0255 0.77759 0.83101 0.0
C892 C 0.86845 0.70855 0.8428 0.0
C893 C 0.84549 0.6587 0.83258 0.0
C894 C 0.96253 0.73901 0.83038 0.0
C895 C 0.882 0.65061 0.82113 0.0
C896 C 0.06322 0.7574 0.82695 0.0
C897 C 0.10272 0.86105 0.84422 0.0
N898 N 0.93926 0.69017 0.82051 0.0
N899 N 0.04684 0.82974 0.83881 0.0
loop_
_geom_bond_atom_site_label_1
_geom_bond_atom_site_label_2
_geom_bond_distance
_geom_bond_site_symmetry_2
_ccdc_geom_bond_type
Zn0 O6 1.920 . S
Zn0 O12 1.898 . S
Zn0 O15 1.905 . S
Zn1 O9 1.905 . S
Zn1 O10 1.898 . S
Zn1 O18 1.920 . S
Zn2 O5 2.115 . S
Zn2 O8 2.114 . S
Zn2 O11 2.120 . S
Zn2 O13 2.120 . S
Zn2 O14 2.114 1_554 S
Zn2 O17 2.080 . S
C3 O8 1.166 . S
C3 O9 1.182 . S
C4 O10 1.167 . S
C4 O11 1.299 . S
O5 Zn2 2.115 . S
O5 C19 1.290 1_554 S
O6 Zn0 1.920 . S
O6 C19 1.234 . S
C7 O12 1.167 1_554 S
C7 O13 1.299 . S
O8 Zn2 2.114 . S
O8 C3 1.166 . S
O9 Zn1 1.905 . S
O9 C3 1.182 . S
O10 Zn1 1.898 . S
O10 C4 1.167 . S
O11 Zn2 2.120 . S
O11 C4 1.299 . S
O12 Zn0 1.898 . S
O12 C7 1.167 1_556 S
O13 Zn2 2.120 . S
O13 C7 1.299 . S
O14 Zn2 2.114 1_556 S
O14 C16 1.166 . S
O15 Zn0 1.905 . S
O15 C16 1.182 . S
C16 O14 1.166 . S
C16 O15 1.182 . S
O17 Zn2 2.080 . S
O17 C20 1.305 . S
O18 Zn1 1.920 . S
O18 C20 1.234 . S
C19 O5 1.290 1_556 S
C19 O6 1.234 . S
C20 O17 1.305 . S
C20 O18 1.234 . S
Zn21 O27 1.920 1_455 S
Zn21 O33 1.898 . S
Zn21 O36 1.905 . S
Zn22 O30 1.905 . S
Zn22 O31 1.898 . S
Zn22 O39 1.920 . S
Zn23 O26 2.080 . S
Zn23 O29 2.114 1_655 S
Zn23 O32 2.120 . S
Zn23 O34 2.120 . S
Zn23 O35 2.114 1_655 S
Zn23 O38 2.080 . S
C24 O29 1.166 . S
C24 O30 1.182 1_455 S
C25 O31 1.167 . S
C25 O32 1.299 . S
O26 Zn23 2.080 . S
O26 C40 1.305 . S
O27 Zn21 1.920 1_655 S
O27 C40 1.234 . S
C28 O33 1.177 . S
C28 O34 1.279 1_455 S
O29 Zn23 2.114 1_455 S
O29 C24 1.166 . S
O30 Zn22 1.905 . S
O30 C24 1.182 1_655 S
O31 Zn22 1.898 . S
O31 C25 1.167 . S
O32 Zn23 2.120 . S
O32 C25 1.299 . S
O33 Zn21 1.898 . S
O33 C28 1.177 . S
O34 Zn23 2.120 . S
O34 C28 1.279 1_655 S
O35 Zn23 2.114 1_455 S
O35 C37 1.166 . S
O36 Zn21 1.905 . S
O36 C37 1.182 . S
C37 O35 1.166 . S
C37 O36 1.182 . S
O38 Zn23 2.080 . S
O38 C41 1.305 . S
O39 Zn22 1.920 . S
O39 C41 1.234 . S
C40 O26 1.305 . S
C40 O27 1.234 . S
C41 O38 1.305 . S
C41 O39 1.234 . S
Zn42 O48 1.920 . S
Zn42 O54 1.898 . S
Zn42 O57 1.905 . S
Zn43 O51 1.905 . S
Zn43 O52 1.898 . S
Zn43 O60 1.920 1_545 S
Zn44 O47 2.080 . S
Zn44 O50 2.114 1_565 S
Zn44 O53 2.120 . S
Zn44 O55 2.120 . S
Zn44 O56 2.114 1_565 S
Zn44 O59 2.080 . S
C45 O50 1.166 . S
C45 O51 1.182 . S
C46 O52 1.167 . S
C46 O53 1.299 1_545 S
O47 Zn44 2.080 . S
O47 C61 1.305 . S
O48 Zn42 1.920 . S
O48 C61 1.234 . S
C49 O54 1.167 . S
C49 O55 1.299 . S
O50 Zn44 2.114 1_545 S
O50 C45 1.166 . S
O51 Zn43 1.905 . S
O51 C45 1.182 . S
O52 Zn43 1.898 . S
O52 C46 1.167 . S
O53 Zn44 2.120 . S
O53 C46 1.299 1_565 S
O54 Zn42 1.898 . S
O54 C49 1.167 . S
O55 Zn44 2.120 . S
O55 C49 1.299 . S
O56 Zn44 2.114 1_545 S
O56 C58 1.166 . S
O57 Zn42 1.905 . S
O57 C58 1.182 1_565 S
C58 O56 1.166 . S
C58 O57 1.182 1_545 S
O59 Zn44 2.080 . S
O59 C62 1.305 . S
O60 Zn43 1.920 1_565 S
O60 C62 1.234 . S
C61 O47 1.305 . S
C61 O48 1.234 . S
C62 O59 1.305 . S
C62 O60 1.234 . S
Zn63 O69 1.920 . S
Zn63 O75 1.898 . S
Zn63 O78 1.905 . S
Zn64 O72 1.905 . S
Zn64 O73 1.898 . S
Zn64 O81 1.920 . S
Zn65 O68 2.080 . S
Zn65 O71 2.114 . S
Zn65 O74 2.120 . S
Zn65 O76 2.120 . S
Zn65 O77 2.114 . S
Zn65 O80 2.080 . S
C66 O71 1.166 . S
C66 O72 1.182 . S
C67 O73 1.167 . S
C67 O74 1.299 . S
O68 Zn65 2.080 . S
O68 C82 1.305 . S
O69 Zn63 1.920 . S
O69 C82 1.234 . S
C70 O75 1.167 . S
C70 O76 1.299 . S
O71 Zn65 2.114 . S
O71 C66 1.166 . S
O72 Zn64 1.905 . S
O72 C66 1.182 . S
O73 Zn64 1.898 . S
O73 C67 1.167 . S
O74 Zn65 2.120 . S
O74 C67 1.299 . S
O75 Zn63 1.898 . S
O75 C70 1.167 . S
O76 Zn65 2.120 . S
O76 C70 1.299 . S
O77 Zn65 2.114 . S
O77 C79 1.166 . S
O78 Zn63 1.905 . S
O78 C79 1.182 . S
C79 O77 1.166 . S
C79 O78 1.182 . S
O80 Zn65 2.080 . S
O80 C83 1.305 . S
O81 Zn64 1.920 . S
O81 C83 1.234 . S
C82 O68 1.305 . S
C82 O69 1.234 . S
C83 O80 1.305 . S
C83 O81 1.234 . S
Zn84 O90 1.920 . S
Zn84 O96 1.898 . S
Zn84 O99 1.905 . S
Zn85 O93 1.905 . S
Zn85 O94 1.898 . S
Zn85 O102 1.920 1_655 S
Zn86 O89 2.080 . S
Zn86 O92 2.114 1_455 S
Zn86 O95 2.120 . S
Zn86 O97 2.120 . S
Zn86 O98 2.114 1_455 S
Zn86 O101 2.080 . S
C87 O92 1.166 . S
C87 O93 1.182 . S
C88 O94 1.175 . S
C88 O95 1.283 1_655 S
O89 Zn86 2.080 . S
O89 C103 1.305 . S
O90 Zn84 1.920 . S
O90 C103 1.234 . S
C91 O96 1.167 . S
C91 O97 1.299 . S
O92 Zn86 2.114 1_655 S
O92 C87 1.166 . S
O93 Zn85 1.905 . S
O93 C87 1.182 . S
O94 Zn85 1.898 . S
O94 C88 1.175 . S
O95 Zn86 2.120 . S
O95 C88 1.283 1_455 S
O96 Zn84 1.898 . S
O96 C91 1.167 . S
O97 Zn86 2.120 . S
O97 C91 1.299 . S
O98 Zn86 2.114 1_655 S
O98 C100 1.166 . S
O99 Zn84 1.905 . S
O99 C100 1.182 1_455 S
C100 O98 1.166 . S
C100 O99 1.182 1_655 S
O101 Zn86 2.080 . S
O101 C104 1.305 . S
O102 Zn85 1.920 1_455 S
O102 C104 1.234 . S
C103 O89 1.305 . S
C103 O90 1.234 . S
C104 O101 1.305 . S
C104 O102 1.234 . S
Zn105 O111 1.920 1_565 S
Zn105 O117 1.898 . S
Zn105 O120 1.905 . S
Zn106 O114 1.905 . S
Zn106 O115 1.898 . S
Zn106 O123 1.920 . S
Zn107 O110 2.080 . S
Zn107 O113 2.114 1_545 S
Zn107 O116 2.120 . S
Zn107 O118 2.120 . S
Zn107 O119 2.114 1_545 S
Zn107 O122 2.080 . S
C108 O113 1.166 . S
C108 O114 1.182 1_565 S
C109 O115 1.167 . S
C109 O116 1.299 . S
O110 Zn107 2.080 . S
O110 C124 1.305 . S
O111 Zn105 1.920 1_545 S
O111 C124 1.234 . S
C112 O117 1.168 . S
C112 O118 1.298 1_565 S
O113 Zn107 2.114 1_565 S
O113 C108 1.166 . S
O114 Zn106 1.905 . S
O114 C108 1.182 1_545 S
O115 Zn106 1.898 . S
O115 C109 1.167 . S
O116 Zn107 2.120 . S
O116 C109 1.299 . S
O117 Zn105 1.898 . S
O117 C112 1.168 . S
O118 Zn107 2.120 . S
O118 C112 1.298 1_545 S
O119 Zn107 2.114 1_565 S
O119 C121 1.166 . S
O120 Zn105 1.905 . S
O120 C121 1.182 . S
C121 O119 1.166 . S
C121 O120 1.182 . S
O122 Zn107 2.080 . S
O122 C125 1.305 . S
O123 Zn106 1.920 . S
O123 C125 1.234 . S
C124 O110 1.305 . S
C124 O111 1.234 . S
C125 O122 1.305 . S
C125 O123 1.234 . S
Zn126 O132 1.920 . S
Zn126 O138 1.898 . S
Zn126 O141 1.905 . S
Zn127 O135 1.905 . S
Zn127 O136 1.898 . S
Zn127 O144 1.920 . S
Zn128 O131 2.080 . S
Zn128 O134 2.114 . S
Zn128 O137 2.120 . S
Zn128 O139 2.120 . S
Zn128 O140 2.114 . S
Zn128 O143 2.080 . S
C129 O134 1.166 . S
C129 O135 1.182 . S
C130 O136 1.167 . S
C130 O137 1.299 . S
O131 Zn128 2.080 . S
O131 C145 1.305 . S
O132 Zn126 1.920 . S
O132 C145 1.234 . S
C133 O138 1.167 . S
C133 O139 1.299 . S
O134 Zn128 2.114 . S
O134 C129 1.166 . S
O135 Zn127 1.905 . S
O135 C129 1.182 . S
O136 Zn127 1.898 . S
O136 C130 1.167 . S
O137 Zn128 2.120 . S
O137 C130 1.299 . S
O138 Zn126 1.898 . S
O138 C133 1.167 . S
O139 Zn128 2.120 . S
O139 C133 1.299 . S
O140 Zn128 2.114 . S
O140 C142 1.166 . S
O141 Zn126 1.905 . S
O141 C142 1.182 . S
C142 O140 1.166 . S
C142 O141 1.182 . S
O143 Zn128 2.080 . S
O143 C146 1.305 . S
O144 Zn127 1.920 . S
O144 C146 1.234 . S
C145 O131 1.305 . S
C145 O132 1.234 . S
C146 O143 1.305 . S
C146 O144 1.234 . S
Zn147 O153 1.920 . S
Zn147 O159 1.898 . S
Zn147 O162 1.905 . S
Zn148 O156 1.905 . S
Zn148 O157 1.898 . S
Zn148 O165 1.920 1_455 S
Zn149 O152 2.082 . S
Zn149 O155 2.114 1_655 S
Zn149 O158 2.120 . S
Zn149 O160 2.120 . S
Zn149 O161 2.114 1_656 S
Zn149 O164 2.080 . S
C150 O155 1.166 . S
C150 O156 1.182 . S
C151 O157 1.171 . S
C151 O158 1.296 1_455 S
O152 Zn149 2.082 . S
O152 C166 1.304 1_556 S
O153 Zn147 1.920 . S
O153 C166 1.234 . S
C154 O159 1.167 1_556 S
C154 O160 1.299 . S
O155 Zn149 2.114 1_455 S
O155 C150 1.166 . S
O156 Zn148 1.905 . S
O156 C150 1.182 . S
O157 Zn148 1.898 . S
O157 C151 1.171 . S
O158 Zn149 2.120 . S
O158 C151 1.296 1_655 S
O159 Zn147 1.898 . S
O159 C154 1.167 1_554 S
O160 Zn149 2.120 . S
O160 C154 1.299 . S
O161 Zn149 2.114 1_454 S
O161 C163 1.166 . S
O162 Zn147 1.905 . S
O162 C163 1.182 1_655 S
C163 O161 1.166 . S
C163 O162 1.182 1_455 S
O164 Zn149 2.080 . S
O164 C167 1.305 . S
O165 Zn148 1.920 1_655 S
O165 C167 1.234 . S
C166 O152 1.304 1_554 S
C166 O153 1.234 . S
C167 O164 1.305 . S
C167 O165 1.234 . S
Zn168 O174 1.920 1_545 S
Zn168 O180 1.898 . S
Zn168 O183 1.905 . S
Zn169 O177 1.905 . S
Zn169 O178 1.898 . S
Zn169 O186 1.920 . S
Zn170 O173 2.080 . S
Zn170 O176 2.114 1_565 S
Zn170 O179 2.120 . S
Zn170 O181 2.120 . S
Zn170 O182 2.114 1_565 S
Zn170 O185 2.080 . S
C171 O176 1.166 . S
C171 O177 1.182 1_545 S
C172 O178 1.167 . S
C172 O179 1.299 . S
O173 Zn170 2.080 . S
O173 C187 1.305 . S
O174 Zn168 1.920 1_565 S
O174 C187 1.234 . S
C175 O180 1.167 . S
C175 O181 1.299 1_545 S
O176 Zn170 2.114 1_545 S
O176 C171 1.166 . S
O177 Zn169 1.905 . S
O177 C171 1.182 1_565 S
O178 Zn169 1.898 . S
O178 C172 1.167 . S
O179 Zn170 2.120 . S
O179 C172 1.299 . S
O180 Zn168 1.898 . S
O180 C175 1.167 . S
O181 Zn170 2.120 . S
O181 C175 1.299 1_565 S
O182 Zn170 2.114 1_545 S
O182 C184 1.166 . S
O183 Zn168 1.905 . S
O183 C184 1.182 . S
C184 O182 1.166 . S
C184 O183 1.182 . S
O185 Zn170 2.080 . S
O185 C188 1.305 . S
O186 Zn169 1.920 . S
O186 C188 1.234 . S
C187 O173 1.305 . S
C187 O174 1.234 . S
C188 O185 1.305 . S
C188 O186 1.234 . S
Zn189 O195 1.920 . S
Zn189 O201 1.898 . S
Zn189 O204 1.905 . S
Zn190 O198 1.905 . S
Zn190 O199 1.898 . S
Zn190 O207 1.920 . S
Zn191 O194 2.080 . S
Zn191 O197 2.114 . S
Zn191 O200 2.120 . S
Zn191 O202 2.120 . S
Zn191 O203 2.114 . S
Zn191 O206 2.080 . S
C192 O197 1.166 . S
C192 O198 1.182 . S
C193 O199 1.167 . S
C193 O200 1.299 . S
O194 Zn191 2.080 . S
O194 C208 1.305 . S
O195 Zn189 1.920 . S
O195 C208 1.234 . S
C196 O201 1.167 . S
C196 O202 1.299 . S
O197 Zn191 2.114 . S
O197 C192 1.166 . S
O198 Zn190 1.905 . S
O198 C192 1.182 . S
O199 Zn190 1.898 . S
O199 C193 1.167 . S
O200 Zn191 2.120 . S
O200 C193 1.299 . S
O201 Zn189 1.898 . S
O201 C196 1.167 . S
O202 Zn191 2.120 . S
O202 C196 1.299 . S
O203 Zn191 2.114 . S
O203 C205 1.166 . S
O204 Zn189 1.905 . S
O204 C205 1.182 . S
C205 O203 1.166 . S
C205 O204 1.182 . S
O206 Zn191 2.080 . S
O206 C209 1.305 . S
O207 Zn190 1.920 . S
O207 C209 1.234 . S
C208 O194 1.305 . S
C208 O195 1.234 . S
C209 O206 1.305 . S
C209 O207 1.234 . S
Zn210 O216 1.920 1_655 S
Zn210 O222 1.898 . S
Zn210 O225 1.905 . S
Zn211 O219 1.905 . S
Zn211 O220 1.898 . S
Zn211 O228 1.920 . S
Zn212 O215 2.080 . S
Zn212 O218 2.114 1_455 S
Zn212 O221 2.120 . S
Zn212 O223 2.120 . S
Zn212 O224 2.114 1_455 S
Zn212 O227 2.080 . S
C213 O218 1.166 . S
C213 O219 1.182 1_655 S
C214 O220 1.167 . S
C214 O221 1.299 . S
O215 Zn212 2.080 . S
O215 C229 1.305 . S
O216 Zn210 1.920 1_455 S
O216 C229 1.234 . S
C217 O222 1.170 . S
C217 O223 1.297 1_655 S
O218 Zn212 2.114 1_655 S
O218 C213 1.166 . S
O219 Zn211 1.905 . S
O219 C213 1.182 1_455 S
O220 Zn211 1.898 . S
O220 C214 1.167 . S
O221 Zn212 2.120 . S
O221 C214 1.299 . S
O222 Zn210 1.898 . S
O222 C217 1.170 . S
O223 Zn212 2.120 . S
O223 C217 1.297 1_455 S
O224 Zn212 2.114 1_655 S
O224 C226 1.166 . S
O225 Zn210 1.905 . S
O225 C226 1.182 . S
C226 O224 1.166 . S
C226 O225 1.182 . S
O227 Zn212 2.080 . S
O227 C230 1.305 . S
O228 Zn211 1.920 . S
O228 C230 1.234 . S
C229 O215 1.305 . S
C229 O216 1.234 . S
C230 O227 1.305 . S
C230 O228 1.234 . S
Zn231 O237 1.920 . S
Zn231 O243 1.898 . S
Zn231 O246 1.905 . S
Zn232 O240 1.905 . S
Zn232 O241 1.898 . S
Zn232 O249 1.920 1_565 S
Zn233 O236 2.080 . S
Zn233 O239 2.114 1_545 S
Zn233 O242 2.120 . S
Zn233 O244 2.120 . S
Zn233 O245 2.114 1_545 S
Zn233 O248 2.080 . S
C234 O239 1.166 . S
C234 O240 1.182 . S
C235 O241 1.168 . S
C235 O242 1.297 1_565 S
O236 Zn233 2.080 . S
O236 C250 1.305 . S
O237 Zn231 1.920 . S
O237 C250 1.234 . S
C238 O243 1.167 . S
C238 O244 1.299 . S
O239 Zn233 2.114 1_565 S
O239 C234 1.166 . S
O240 Zn232 1.905 . S
O240 C234 1.182 . S
O241 Zn232 1.898 . S
O241 C235 1.168 . S
O242 Zn233 2.120 . S
O242 C235 1.297 1_545 S
O243 Zn231 1.898 . S
O243 C238 1.167 . S
O244 Zn233 2.120 . S
O244 C238 1.299 . S
O245 Zn233 2.114 1_565 S
O245 C247 1.166 . S
O246 Zn231 1.905 . S
O246 C247 1.182 1_545 S
C247 O245 1.166 . S
C247 O246 1.182 1_565 S
O248 Zn233 2.080 . S
O248 C251 1.305 . S
O249 Zn232 1.920 1_545 S
O249 C251 1.234 . S
C250 O236 1.305 . S
C250 O237 1.234 . S
C251 O248 1.305 . S
C251 O249 1.234 . S
H252 C258 0.930 . S
H253 C262 0.887 1_556 S
H254 C267 0.929 . S
H255 C265 0.929 . S
H256 C260 0.929 . S
H257 C266 0.929 . S
C258 H252 0.930 . S
C258 C259 1.367 . S
C258 C266 1.378 . S
C259 C258 1.367 . S
C259 C267 1.433 1_554 S
C260 H256 0.929 . S
C260 C262 1.370 1_556 S
C260 C264 1.350 1_556 S
C261 C264 1.463 . S
C261 C266 1.350 . S
C261 N269 1.427 1_554 S
C262 H253 0.887 1_554 S
C262 C260 1.370 1_554 S
C262 C263 1.421 . S
C263 C262 1.421 . S
C263 C265 1.433 . S
C264 C260 1.350 1_554 S
C264 C261 1.463 . S
C264 N268 1.427 . S
C265 H255 0.929 . S
C265 C263 1.433 . S
C265 N268 1.384 . S
C266 H257 0.929 . S
C266 C258 1.378 . S
C266 C261 1.350 . S
C267 H254 0.929 . S
C267 C259 1.433 1_556 S
C267 N269 1.384 . S
N268 C264 1.427 . S
N268 C265 1.384 . S
N269 C261 1.427 1_556 S
N269 C267 1.384 . S
H270 C276 0.930 . S
H271 C280 0.930 . S
H272 C285 0.929 . S
H273 C283 0.929 . S
H274 C278 0.929 . S
H275 C284 0.929 . S
C276 H270 0.930 . S
C276 C277 1.367 . S
C276 C284 1.378 . S
C277 C276 1.367 . S
C277 C285 1.433 . S
C278 H274 0.929 . S
C278 C280 1.378 . S
C278 C282 1.350 . S
C279 C282 1.463 . S
C279 C284 1.350 . S
C279 N287 1.427 . S
C280 H271 0.930 . S
C280 C278 1.378 . S
C280 C281 1.367 . S
C281 C280 1.367 . S
C281 C283 1.433 . S
C282 C278 1.350 . S
C282 C279 1.463 . S
C282 N286 1.427 . S
C283 H273 0.929 . S
C283 C281 1.433 . S
C283 N286 1.384 . S
C284 H275 0.929 . S
C284 C276 1.378 . S
C284 C279 1.350 . S
C285 H272 0.929 . S
C285 C277 1.433 . S
C285 N287 1.384 . S
N286 C282 1.427 . S
N286 C283 1.384 . S
N287 C279 1.427 . S
N287 C285 1.384 . S
H288 C294 0.930 . S
H289 C298 0.930 . S
H290 C303 0.929 . S
H291 C301 0.929 . S
H292 C296 0.929 . S
H293 C302 0.929 . S
C294 H288 0.930 . S
C294 C295 1.367 . S
C294 C302 1.378 . S
C295 C294 1.367 . S
C295 C303 1.433 . S
C296 H292 0.929 . S
C296 C298 1.378 . S
C296 C300 1.350 . S
C297 C300 1.463 . S
C297 C302 1.350 . S
C297 N305 1.427 . S
C298 H289 0.930 . S
C298 C296 1.378 . S
C298 C299 1.367 . S
C299 C298 1.367 . S
C299 C301 1.433 . S
C300 C296 1.350 . S
C300 C297 1.463 . S
C300 N304 1.427 . S
C301 H291 0.929 . S
C301 C299 1.433 . S
C301 N304 1.384 . S
C302 H293 0.929 . S
C302 C294 1.378 . S
C302 C297 1.350 . S
C303 H290 0.929 . S
C303 C295 1.433 . S
C303 N305 1.384 . S
N304 C300 1.427 . S
N304 C301 1.384 . S
N305 C297 1.427 . S
N305 C303 1.384 . S
H306 C312 0.930 . S
H307 C316 0.930 . S
H308 C321 0.929 . S
H309 C319 0.929 . S
H310 C314 0.929 . S
H311 C320 0.929 . S
C312 H306 0.930 . S
C312 C313 1.367 . S
C312 C320 1.378 . S
C313 C312 1.367 . S
C313 C321 1.433 . S
C314 H310 0.929 . S
C314 C316 1.378 . S
C314 C318 1.350 . S
C315 C318 1.463 . S
C315 C320 1.350 . S
C315 N323 1.427 . S
C316 H307 0.930 . S
C316 C314 1.378 . S
C316 C317 1.367 . S
C317 C316 1.367 . S
C317 C319 1.433 . S
C318 C314 1.350 . S
C318 C315 1.463 . S
C318 N322 1.427 . S
C319 H309 0.929 . S
C319 C317 1.433 . S
C319 N322 1.384 . S
C320 H311 0.929 . S
C320 C312 1.378 . S
C320 C315 1.350 . S
C321 H308 0.929 . S
C321 C313 1.433 . S
C321 N323 1.384 . S
N322 C318 1.427 . S
N322 C319 1.384 . S
N323 C315 1.427 . S
N323 C321 1.384 . S
H324 C330 0.930 . S
H325 C334 0.930 . S
H326 C339 0.929 . S
H327 C337 0.929 1_455 S
H328 C332 0.929 . S
H329 C338 0.929 . S
C330 H324 0.930 . S
C330 C331 1.367 . S
C330 C338 1.378 . S
C331 C330 1.367 . S
C331 C339 1.433 . S
C332 H328 0.929 . S
C332 C334 1.378 . S
C332 C336 1.350 . S
C333 C336 1.463 . S
C333 C338 1.350 . S
C333 N341 1.427 . S
C334 H325 0.930 . S
C334 C332 1.378 . S
C334 C335 1.367 . S
C335 C334 1.367 . S
C335 C337 1.433 . S
C336 C332 1.350 . S
C336 C333 1.463 . S
C336 N340 1.427 . S
C337 H327 0.929 1_655 S
C337 C335 1.433 . S
C337 N340 1.384 . S
C338 H329 0.929 . S
C338 C330 1.378 . S
C338 C333 1.350 . S
C339 H326 0.929 . S
C339 C331 1.433 . S
C339 N341 1.384 . S
N340 C336 1.427 . S
N340 C337 1.384 . S
N341 C333 1.427 . S
N341 C339 1.384 . S
H342 C348 0.930 . S
H343 C352 0.930 . S
H344 C357 0.929 . S
H345 C355 0.929 . S
H346 C350 0.929 . S
H347 C356 0.929 . S
C348 H342 0.930 . S
C348 C349 1.367 . S
C348 C356 1.378 . S
C349 C348 1.367 . S
C349 C357 1.433 . S
C350 H346 0.929 . S
C350 C352 1.378 . S
C350 C354 1.350 . S
C351 C354 1.463 . S
C351 C356 1.350 . S
C351 N359 1.427 . S
C352 H343 0.930 . S
C352 C350 1.378 . S
C352 C353 1.367 . S
C353 C352 1.367 . S
C353 C355 1.433 . S
C354 C350 1.350 . S
C354 C351 1.463 . S
C354 N358 1.427 . S
C355 H345 0.929 . S
C355 C353 1.433 . S
C355 N358 1.384 . S
C356 H347 0.929 . S
C356 C348 1.378 . S
C356 C351 1.350 . S
C357 H344 0.929 . S
C357 C349 1.433 . S
C357 N359 1.384 . S
N358 C354 1.427 . S
N358 C355 1.384 . S
N359 C351 1.427 . S
N359 C357 1.384 . S
H360 C366 0.930 . S
H361 C370 0.930 . S
H362 C375 0.929 . S
H363 C373 0.929 . S
H364 C368 0.929 . S
H365 C374 0.929 . S
C366 H360 0.930 . S
C366 C367 1.367 . S
C366 C374 1.378 . S
C367 C366 1.367 . S
C367 C375 1.433 . S
C368 H364 0.929 . S
C368 C370 1.378 . S
C368 C372 1.350 . S
C369 C372 1.463 . S
C369 C374 1.350 . S
C369 N377 1.427 . S
C370 H361 0.930 . S
C370 C368 1.378 . S
C370 C371 1.367 . S
C371 C370 1.367 . S
C371 C373 1.433 . S
C372 C368 1.350 . S
C372 C369 1.463 . S
C372 N376 1.427 . S
C373 H363 0.929 . S
C373 C371 1.433 . S
C373 N376 1.384 . S
C374 H365 0.929 . S
C374 C366 1.378 . S
C374 C369 1.350 . S
C375 H362 0.929 . S
C375 C367 1.433 . S
C375 N377 1.384 . S
N376 C372 1.427 . S
N376 C373 1.384 . S
N377 C369 1.427 . S
N377 C375 1.384 . S
H378 C384 0.930 . S
H379 C388 0.930 . S
H380 C393 0.929 1_654 S
H381 C391 0.929 . S
H382 C386 0.929 . S
H383 C392 0.929 . S
C384 H378 0.930 . S
C384 C385 1.367 . S
C384 C392 1.378 . S
C385 C384 1.367 . S
C385 C393 1.433 . S
C386 H382 0.929 . S
C386 C388 1.378 . S
C386 C390 1.350 1_554 S
C387 C390 1.463 . S
C387 C392 1.350 . S
C387 N395 1.427 . S
C388 H379 0.930 . S
C388 C386 1.378 . S
C388 C389 1.367 1_554 S
C389 C388 1.367 1_556 S
C389 C391 1.433 . S
C390 C386 1.350 1_556 S
C390 C387 1.463 . S
C390 N394 1.427 . S
C391 H381 0.929 . S
C391 C389 1.433 . S
C391 N394 1.384 . S
C392 H383 0.929 . S
C392 C384 1.378 . S
C392 C387 1.350 . S
C393 H380 0.929 1_456 S
C393 C385 1.433 . S
C393 N395 1.384 . S
N394 C390 1.427 . S
N394 C391 1.384 . S
N395 C387 1.427 . S
N395 C393 1.384 . S
H396 C402 0.930 1_565 S
H397 C406 0.930 . S
H398 C411 0.929 . S
H399 C409 0.929 . S
H400 C404 0.929 . S
H401 C410 0.929 . S
C402 H396 0.930 1_545 S
C402 C403 1.367 . S
C402 C410 1.378 . S
C403 C402 1.367 . S
C403 C411 1.433 . S
C404 H400 0.929 . S
C404 C406 1.378 . S
C404 C408 1.350 . S
C405 C408 1.463 . S
C405 C410 1.350 . S
C405 N413 1.427 . S
C406 H397 0.930 . S
C406 C404 1.378 . S
C406 C407 1.367 . S
C407 C406 1.367 . S
C407 C409 1.433 . S
C408 C404 1.350 . S
C408 C405 1.463 . S
C408 N412 1.427 . S
C409 H399 0.929 . S
C409 C407 1.433 . S
C409 N412 1.384 . S
C410 H401 0.929 . S
C410 C402 1.378 . S
C410 C405 1.350 . S
C411 H398 0.929 . S
C411 C403 1.433 . S
C411 N413 1.384 . S
N412 C408 1.427 . S
N412 C409 1.384 . S
N413 C405 1.427 . S
N413 C411 1.384 . S
H414 C420 0.930 . S
H415 C424 0.930 . S
H416 C429 0.929 . S
H417 C427 0.929 . S
H418 C422 0.929 . S
H419 C428 0.929 . S
C420 H414 0.930 . S
C420 C421 1.367 . S
C420 C428 1.378 . S
C421 C420 1.367 . S
C421 C429 1.433 . S
C422 H418 0.929 . S
C422 C424 1.378 . S
C422 C426 1.350 . S
C423 C426 1.463 . S
C423 C428 1.350 . S
C423 N431 1.427 . S
C424 H415 0.930 . S
C424 C422 1.378 . S
C424 C425 1.367 . S
C425 C424 1.367 . S
C425 C427 1.433 . S
C426 C422 1.350 . S
C426 C423 1.463 . S
C426 N430 1.427 . S
C427 H417 0.929 . S
C427 C425 1.433 . S
C427 N430 1.384 . S
C428 H419 0.929 . S
C428 C420 1.378 . S
C428 C423 1.350 . S
C429 H416 0.929 . S
C429 C421 1.433 . S
C429 N431 1.384 . S
N430 C426 1.427 . S
N430 C427 1.384 . S
N431 C423 1.427 . S
N431 C429 1.384 . S
H432 C438 0.930 . S
H433 C442 0.930 . S
H434 C447 0.929 . S
H435 C445 0.929 . S
H436 C440 0.929 . S
H437 C446 0.929 . S
C438 H432 0.930 . S
C438 C439 1.367 . S
C438 C446 1.378 . S
C439 C438 1.367 . S
C439 C447 1.433 . S
C440 H436 0.929 . S
C440 C442 1.378 . S
C440 C444 1.350 . S
C441 C444 1.463 . S
C441 C446 1.350 . S
C441 N449 1.427 . S
C442 H433 0.930 . S
C442 C440 1.378 . S
C442 C443 1.367 . S
C443 C442 1.367 . S
C443 C445 1.433 . S
C444 C440 1.350 . S
C444 C441 1.463 . S
C444 N448 1.427 . S
C445 H435 0.929 . S
C445 C443 1.433 . S
C445 N448 1.384 . S
C446 H437 0.929 . S
C446 C438 1.378 . S
C446 C441 1.350 . S
C447 H434 0.929 . S
C447 C439 1.433 . S
C447 N449 1.384 . S
N448 C444 1.427 . S
N448 C445 1.384 . S
N449 C441 1.427 . S
N449 C447 1.384 . S
H450 C456 0.930 . S
H451 C460 0.930 . S
H452 C465 0.929 . S
H453 C463 0.929 . S
H454 C458 0.929 . S
H455 C464 0.929 . S
C456 H450 0.930 . S
C456 C457 1.367 . S
C456 C464 1.378 . S
C457 C456 1.367 . S
C457 C465 1.433 . S
C458 H454 0.929 . S
C458 C460 1.378 . S
C458 C462 1.350 . S
C459 C462 1.463 . S
C459 C464 1.350 . S
C459 N467 1.427 . S
C460 H451 0.930 . S
C460 C458 1.378 . S
C460 C461 1.367 . S
C461 C460 1.367 . S
C461 C463 1.433 . S
C462 C458 1.350 . S
C462 C459 1.463 . S
C462 N466 1.427 . S
C463 H453 0.929 . S
C463 C461 1.433 . S
C463 N466 1.384 . S
C464 H455 0.929 . S
C464 C456 1.378 . S
C464 C459 1.350 . S
C465 H452 0.929 . S
C465 C457 1.433 . S
C465 N467 1.384 . S
N466 C462 1.427 . S
N466 C463 1.384 . S
N467 C459 1.427 . S
N467 C465 1.384 . S
H468 C474 0.930 . S
H469 C478 0.930 . S
H470 C483 0.929 . S
H471 C481 0.929 . S
H472 C476 0.929 . S
H473 C482 0.929 . S
C474 H468 0.930 . S
C474 C475 1.367 . S
C474 C482 1.378 . S
C475 C474 1.367 . S
C475 C483 1.433 . S
C476 H472 0.929 . S
C476 C478 1.378 . S
C476 C480 1.350 . S
C477 C480 1.463 . S
C477 C482 1.350 . S
C477 N485 1.427 . S
C478 H469 0.930 . S
C478 C476 1.378 . S
C478 C479 1.367 . S
C479 C478 1.367 . S
C479 C481 1.433 . S
C480 C476 1.350 . S
C480 C477 1.463 . S
C480 N484 1.427 . S
C481 H471 0.929 . S
C481 C479 1.433 . S
C481 N484 1.384 . S
C482 H473 0.929 . S
C482 C474 1.378 . S
C482 C477 1.350 . S
C483 H470 0.929 . S
C483 C475 1.433 . S
C483 N485 1.384 . S
N484 C480 1.427 . S
N484 C481 1.384 . S
N485 C477 1.427 . S
N485 C483 1.384 . S
H486 C492 0.930 . S
H487 C496 0.930 . S
H488 C501 0.929 1_655 S
H489 C499 0.929 . S
H490 C494 0.929 . S
H491 C500 0.929 . S
C492 H486 0.930 . S
C492 C493 1.367 . S
C492 C500 1.378 . S
C493 C492 1.367 . S
C493 C501 1.433 . S
C494 H490 0.929 . S
C494 C496 1.378 . S
C494 C498 1.350 . S
C495 C498 1.463 . S
C495 C500 1.350 . S
C495 N503 1.427 . S
C496 H487 0.930 . S
C496 C494 1.378 . S
C496 C497 1.367 . S
C497 C496 1.367 . S
C497 C499 1.433 . S
C498 C494 1.350 . S
C498 C495 1.463 . S
C498 N502 1.427 . S
C499 H489 0.929 . S
C499 C497 1.433 . S
C499 N502 1.384 . S
C500 H491 0.929 . S
C500 C492 1.378 . S
C500 C495 1.350 . S
C501 H488 0.929 1_455 S
C501 C493 1.433 . S
C501 N503 1.384 . S
N502 C498 1.427 . S
N502 C499 1.384 . S
N503 C495 1.427 . S
N503 C501 1.384 . S
H504 C510 0.930 . S
H505 C514 0.930 1_565 S
H506 C519 0.929 . S
H507 C517 0.929 . S
H508 C512 0.929 . S
H509 C518 0.929 . S
C510 H504 0.930 . S
C510 C511 1.367 . S
C510 C518 1.378 . S
C511 C510 1.367 . S
C511 C519 1.433 . S
C512 H508 0.929 . S
C512 C514 1.378 . S
C512 C516 1.350 . S
C513 C516 1.463 . S
C513 C518 1.350 . S
C513 N521 1.427 . S
C514 H505 0.930 1_545 S
C514 C512 1.378 . S
C514 C515 1.367 . S
C515 C514 1.367 . S
C515 C517 1.433 . S
C516 C512 1.350 . S
C516 C513 1.463 . S
C516 N520 1.427 . S
C517 H507 0.929 . S
C517 C515 1.433 . S
C517 N520 1.384 . S
C518 H509 0.929 . S
C518 C510 1.378 . S
C518 C513 1.350 . S
C519 H506 0.929 . S
C519 C511 1.433 . S
C519 N521 1.384 . S
N520 C516 1.427 . S
N520 C517 1.384 . S
N521 C513 1.427 . S
N521 C519 1.384 . S
H522 C528 0.930 . S
H523 C532 0.930 . S
H524 C537 0.929 . S
H525 C535 0.929 . S
H526 C530 0.929 . S
H527 C536 0.929 . S
C528 H522 0.930 . S
C528 C529 1.367 . S
C528 C536 1.378 . S
C529 C528 1.367 . S
C529 C537 1.433 . S
C530 H526 0.929 . S
C530 C532 1.378 . S
C530 C534 1.350 . S
C531 C534 1.463 . S
C531 C536 1.350 . S
C531 N539 1.427 . S
C532 H523 0.930 . S
C532 C530 1.378 . S
C532 C533 1.367 . S
C533 C532 1.367 . S
C533 C535 1.433 . S
C534 C530 1.350 . S
C534 C531 1.463 . S
C534 N538 1.427 . S
C535 H525 0.929 . S
C535 C533 1.433 . S
C535 N538 1.384 . S
C536 H527 0.929 . S
C536 C528 1.378 . S
C536 C531 1.350 . S
C537 H524 0.929 . S
C537 C529 1.433 . S
C537 N539 1.384 . S
N538 C534 1.427 . S
N538 C535 1.384 . S
N539 C531 1.427 . S
N539 C537 1.384 . S
H540 C546 0.930 . S
H541 C550 0.930 . S
H542 C555 0.929 . S
H543 C553 0.929 1_455 S
H544 C548 0.929 . S
H545 C554 0.929 . S
C546 H540 0.930 . S
C546 C547 1.367 . S
C546 C554 1.378 . S
C547 C546 1.367 . S
C547 C555 1.433 . S
C548 H544 0.929 . S
C548 C550 1.378 . S
C548 C552 1.350 . S
C549 C552 1.463 . S
C549 C554 1.350 . S
C549 N557 1.427 . S
C550 H541 0.930 . S
C550 C548 1.378 . S
C550 C551 1.367 . S
C551 C550 1.367 . S
C551 C553 1.433 . S
C552 C548 1.350 . S
C552 C549 1.463 . S
C552 N556 1.427 . S
C553 H543 0.929 1_655 S
C553 C551 1.433 . S
C553 N556 1.384 . S
C554 H545 0.929 . S
C554 C546 1.378 . S
C554 C549 1.350 . S
C555 H542 0.929 . S
C555 C547 1.433 . S
C555 N557 1.384 . S
N556 C552 1.427 . S
N556 C553 1.384 . S
N557 C549 1.427 . S
N557 C555 1.384 . S
H558 C564 0.930 . S
H559 C568 0.930 . S
H560 C573 0.929 1_545 S
H561 C571 0.929 . S
H562 C566 0.929 . S
H563 C572 0.929 . S
C564 H558 0.930 . S
C564 C565 1.367 . S
C564 C572 1.378 . S
C565 C564 1.367 . S
C565 C573 1.433 . S
C566 H562 0.929 . S
C566 C568 1.378 . S
C566 C570 1.350 . S
C567 C570 1.463 . S
C567 C572 1.350 . S
C567 N575 1.427 . S
C568 H559 0.930 . S
C568 C566 1.378 . S
C568 C569 1.367 . S
C569 C568 1.367 . S
C569 C571 1.433 . S
C570 C566 1.350 . S
C570 C567 1.463 . S
C570 N574 1.427 . S
C571 H561 0.929 . S
C571 C569 1.433 . S
C571 N574 1.384 . S
C572 H563 0.929 . S
C572 C564 1.378 . S
C572 C567 1.350 . S
C573 H560 0.929 1_565 S
C573 C565 1.433 . S
C573 N575 1.384 . S
N574 C570 1.427 . S
N574 C571 1.384 . S
N575 C567 1.427 . S
N575 C573 1.384 . S
H576 C582 0.930 . S
H577 C586 0.930 . S
H578 C591 0.929 . S
H579 C589 0.929 . S
H580 C584 0.929 . S
H581 C590 0.929 . S
C582 H576 0.930 . S
C582 C583 1.367 . S
C582 C590 1.378 . S
C583 C582 1.367 . S
C583 C591 1.433 . S
C584 H580 0.929 . S
C584 C586 1.378 . S
C584 C588 1.350 . S
C585 C588 1.463 . S
C585 C590 1.350 . S
C585 N593 1.427 . S
C586 H577 0.930 . S
C586 C584 1.378 . S
C586 C587 1.367 . S
C587 C586 1.367 . S
C587 C589 1.433 . S
C588 C584 1.350 . S
C588 C585 1.463 . S
C588 N592 1.427 . S
C589 H579 0.929 . S
C589 C587 1.433 . S
C589 N592 1.384 . S
C590 H581 0.929 . S
C590 C582 1.378 . S
C590 C585 1.350 . S
C591 H578 0.929 . S
C591 C583 1.433 . S
C591 N593 1.384 . S
N592 C588 1.427 . S
N592 C589 1.384 . S
N593 C585 1.427 . S
N593 C591 1.384 . S
H594 C600 0.930 . S
H595 C604 0.930 . S
H596 C609 0.929 . S
H597 C607 0.929 . S
H598 C602 0.929 . S
H599 C608 0.929 . S
C600 H594 0.930 . S
C600 C601 1.367 . S
C600 C608 1.378 . S
C601 C600 1.367 . S
C601 C609 1.433 . S
C602 H598 0.929 . S
C602 C604 1.378 . S
C602 C606 1.350 . S
C603 C606 1.463 . S
C603 C608 1.350 . S
C603 N611 1.427 . S
C604 H595 0.930 . S
C604 C602 1.378 . S
C604 C605 1.367 . S
C605 C604 1.367 . S
C605 C607 1.433 . S
C606 C602 1.350 . S
C606 C603 1.463 . S
C606 N610 1.427 . S
C607 H597 0.929 . S
C607 C605 1.433 . S
C607 N610 1.384 . S
C608 H599 0.929 . S
C608 C600 1.378 . S
C608 C603 1.350 . S
C609 H596 0.929 . S
C609 C601 1.433 . S
C609 N611 1.384 . S
N610 C606 1.427 . S
N610 C607 1.384 . S
N611 C603 1.427 . S
N611 C609 1.384 . S
H612 C618 0.930 . S
H613 C622 0.930 . S
H614 C627 0.929 . S
H615 C625 0.929 . S
H616 C620 0.929 . S
H617 C626 0.929 . S
C618 H612 0.930 . S
C618 C619 1.367 . S
C618 C626 1.378 . S
C619 C618 1.367 . S
C619 C627 1.433 . S
C620 H616 0.929 . S
C620 C622 1.378 . S
C620 C624 1.350 . S
C621 C624 1.463 . S
C621 C626 1.350 . S
C621 N629 1.427 . S
C622 H613 0.930 . S
C622 C620 1.378 . S
C622 C623 1.367 . S
C623 C622 1.367 . S
C623 C625 1.433 . S
C624 C620 1.350 . S
C624 C621 1.463 . S
C624 N628 1.427 . S
C625 H615 0.929 . S
C625 C623 1.433 . S
C625 N628 1.384 . S
C626 H617 0.929 . S
C626 C618 1.378 . S
C626 C621 1.350 . S
C627 H614 0.929 . S
C627 C619 1.433 . S
C627 N629 1.384 . S
N628 C624 1.427 . S
N628 C625 1.384 . S
N629 C621 1.427 . S
N629 C627 1.384 . S
H630 C636 0.930 . S
H631 C640 0.930 . S
H632 C645 0.929 . S
H633 C643 0.929 . S
H634 C638 0.929 . S
H635 C644 0.929 . S
C636 H630 0.930 . S
C636 C637 1.367 . S
C636 C644 1.378 . S
C637 C636 1.367 . S
C637 C645 1.433 . S
C638 H634 0.929 . S
C638 C640 1.378 . S
C638 C642 1.350 . S
C639 C642 1.463 . S
C639 C644 1.350 . S
C639 N647 1.427 . S
C640 H631 0.930 . S
C640 C638 1.378 . S
C640 C641 1.367 . S
C641 C640 1.367 . S
C641 C643 1.433 . S
C642 C638 1.350 . S
C642 C639 1.463 . S
C642 N646 1.427 . S
C643 H633 0.929 . S
C643 C641 1.433 . S
C643 N646 1.384 . S
C644 H635 0.929 . S
C644 C636 1.378 . S
C644 C639 1.350 . S
C645 H632 0.929 . S
C645 C637 1.433 . S
C645 N647 1.384 . S
N646 C642 1.427 . S
N646 C643 1.384 . S
N647 C639 1.427 . S
N647 C645 1.384 . S
H648 C654 0.930 . S
H649 C658 0.930 . S
H650 C663 0.929 . S
H651 C661 0.929 . S
H652 C656 0.929 . S
H653 C662 0.929 . S
C654 H648 0.930 . S
C654 C655 1.367 . S
C654 C662 1.378 . S
C655 C654 1.367 . S
C655 C663 1.433 . S
C656 H652 0.929 . S
C656 C658 1.378 . S
C656 C660 1.350 . S
C657 C660 1.463 . S
C657 C662 1.350 . S
C657 N665 1.427 . S
C658 H649 0.930 . S
C658 C656 1.378 . S
C658 C659 1.367 . S
C659 C658 1.367 . S
C659 C661 1.433 . S
C660 C656 1.350 . S
C660 C657 1.463 . S
C660 N664 1.427 . S
C661 H651 0.929 . S
C661 C659 1.433 . S
C661 N664 1.384 . S
C662 H653 0.929 . S
C662 C654 1.378 . S
C662 C657 1.350 . S
C663 H650 0.929 . S
C663 C655 1.433 . S
C663 N665 1.384 . S
N664 C660 1.427 . S
N664 C661 1.384 . S
N665 C657 1.427 . S
N665 C663 1.384 . S
H666 C672 0.930 . S
H667 C676 0.930 . S
H668 C681 0.929 . S
H669 C679 0.929 . S
H670 C674 0.929 . S
H671 C680 0.929 . S
C672 H666 0.930 . S
C672 C673 1.367 . S
C672 C680 1.378 . S
C673 C672 1.367 . S
C673 C681 1.433 . S
C674 H670 0.929 . S
C674 C676 1.378 . S
C674 C678 1.350 . S
C675 C678 1.463 . S
C675 C680 1.350 . S
C675 N683 1.427 . S
C676 H667 0.930 . S
C676 C674 1.378 . S
C676 C677 1.367 . S
C677 C676 1.367 . S
C677 C679 1.433 . S
C678 C674 1.350 . S
C678 C675 1.463 . S
C678 N682 1.427 . S
C679 H669 0.929 . S
C679 C677 1.433 . S
C679 N682 1.384 . S
C680 H671 0.929 . S
C680 C672 1.378 . S
C680 C675 1.350 . S
C681 H668 0.929 . S
C681 C673 1.433 . S
C681 N683 1.384 . S
N682 C678 1.427 . S
N682 C679 1.384 . S
N683 C675 1.427 . S
N683 C681 1.384 . S
H684 C690 0.930 . S
H685 C694 0.930 . S
H686 C699 0.929 . S
H687 C697 0.929 . S
H688 C692 0.929 . S
H689 C698 0.929 . S
C690 H684 0.930 . S
C690 C691 1.367 . S
C690 C698 1.378 . S
C691 C690 1.367 . S
C691 C699 1.433 . S
C692 H688 0.929 . S
C692 C694 1.378 . S
C692 C696 1.350 . S
C693 C696 1.463 . S
C693 C698 1.350 . S
C693 N701 1.427 . S
C694 H685 0.930 . S
C694 C692 1.378 . S
C694 C695 1.367 . S
C695 C694 1.367 . S
C695 C697 1.433 . S
C696 C692 1.350 . S
C696 C693 1.463 . S
C696 N700 1.427 . S
C697 H687 0.929 . S
C697 C695 1.433 . S
C697 N700 1.384 . S
C698 H689 0.929 . S
C698 C690 1.378 . S
C698 C693 1.350 . S
C699 H686 0.929 . S
C699 C691 1.433 . S
C699 N701 1.384 . S
N700 C696 1.427 . S
N700 C697 1.384 . S
N701 C693 1.427 . S
N701 C699 1.384 . S
H702 C708 0.930 . S
H703 C712 0.930 . S
H704 C717 0.929 . S
H705 C715 0.929 . S
H706 C710 0.929 . S
H707 C716 0.929 . S
C708 H702 0.930 . S
C708 C709 1.367 . S
C708 C716 1.378 . S
C709 C708 1.367 . S
C709 C717 1.433 . S
C710 H706 0.929 . S
C710 C712 1.378 . S
C710 C714 1.350 . S
C711 C714 1.463 . S
C711 C716 1.350 . S
C711 N719 1.427 . S
C712 H703 0.930 . S
C712 C710 1.378 . S
C712 C713 1.367 . S
C713 C712 1.367 . S
C713 C715 1.433 . S
C714 C710 1.350 . S
C714 C711 1.463 . S
C714 N718 1.427 . S
C715 H705 0.929 . S
C715 C713 1.433 . S
C715 N718 1.384 . S
C716 H707 0.929 . S
C716 C708 1.378 . S
C716 C711 1.350 . S
C717 H704 0.929 . S
C717 C709 1.433 . S
C717 N719 1.384 . S
N718 C714 1.427 . S
N718 C715 1.384 . S
N719 C711 1.427 . S
N719 C717 1.384 . S
H720 C726 0.930 . S
H721 C730 0.930 . S
H722 C735 0.929 . S
H723 C733 0.929 . S
H724 C728 0.929 . S
H725 C734 0.929 . S
C726 H720 0.930 . S
C726 C727 1.367 . S
C726 C734 1.378 . S
C727 C726 1.367 . S
C727 C735 1.433 . S
C728 H724 0.929 . S
C728 C730 1.378 . S
C728 C732 1.350 . S
C729 C732 1.463 . S
C729 C734 1.350 . S
C729 N737 1.427 . S
C730 H721 0.930 . S
C730 C728 1.378 . S
C730 C731 1.367 . S
C731 C730 1.367 . S
C731 C733 1.433 . S
C732 C728 1.350 . S
C732 C729 1.463 . S
C732 N736 1.427 . S
C733 H723 0.929 . S
C733 C731 1.433 . S
C733 N736 1.384 . S
C734 H725 0.929 . S
C734 C726 1.378 . S
C734 C729 1.350 . S
C735 H722 0.929 . S
C735 C727 1.433 . S
C735 N737 1.384 . S
N736 C732 1.427 . S
N736 C733 1.384 . S
N737 C729 1.427 . S
N737 C735 1.384 . S
H738 C744 0.930 . S
H739 C748 0.930 . S
H740 C753 0.929 . S
H741 C751 0.929 . S
H742 C746 0.929 . S
H743 C752 0.929 . S
C744 H738 0.930 . S
C744 C745 1.367 . S
C744 C752 1.378 . S
C745 C744 1.367 . S
C745 C753 1.433 . S
C746 H742 0.929 . S
C746 C748 1.378 . S
C746 C750 1.350 . S
C747 C750 1.463 . S
C747 C752 1.350 . S
C747 N755 1.427 . S
C748 H739 0.930 . S
C748 C746 1.378 . S
C748 C749 1.367 . S
C749 C748 1.367 . S
C749 C751 1.433 . S
C750 C746 1.350 . S
C750 C747 1.463 . S
C750 N754 1.427 . S
C751 H741 0.929 . S
C751 C749 1.433 . S
C751 N754 1.384 . S
C752 H743 0.929 . S
C752 C744 1.378 . S
C752 C747 1.350 . S
C753 H740 0.929 . S
C753 C745 1.433 . S
C753 N755 1.384 . S
N754 C750 1.427 . S
N754 C751 1.384 . S
N755 C747 1.427 . S
N755 C753 1.384 . S
H756 C762 0.930 . S
H757 C766 0.930 . S
H758 C771 0.929 . S
H759 C769 0.929 . S
H760 C764 0.929 . S
H761 C770 0.929 . S
C762 H756 0.930 . S
C762 C763 1.367 . S
C762 C770 1.378 . S
C763 C762 1.367 . S
C763 C771 1.433 . S
C764 H760 0.929 . S
C764 C766 1.378 . S
C764 C768 1.350 . S
C765 C768 1.463 . S
C765 C770 1.350 . S
C765 N773 1.427 . S
C766 H757 0.930 . S
C766 C764 1.378 . S
C766 C767 1.367 . S
C767 C766 1.367 . S
C767 C769 1.433 . S
C768 C764 1.350 . S
C768 C765 1.463 . S
C768 N772 1.427 . S
C769 H759 0.929 . S
C769 C767 1.433 . S
C769 N772 1.384 . S
C770 H761 0.929 . S
C770 C762 1.378 . S
C770 C765 1.350 . S
C771 H758 0.929 . S
C771 C763 1.433 . S
C771 N773 1.384 . S
N772 C768 1.427 . S
N772 C769 1.384 . S
N773 C765 1.427 . S
N773 C771 1.384 . S
H774 C780 0.930 . S
H775 C784 0.930 . S
H776 C789 0.929 . S
H777 C787 0.929 . S
H778 C782 0.929 . S
H779 C788 0.929 . S
C780 H774 0.930 . S
C780 C781 1.367 . S
C780 C788 1.378 . S
C781 C780 1.367 . S
C781 C789 1.433 . S
C782 H778 0.929 . S
C782 C784 1.378 . S
C782 C786 1.350 . S
C783 C786 1.463 . S
C783 C788 1.350 . S
C783 N791 1.427 . S
C784 H775 0.930 . S
C784 C782 1.378 . S
C784 C785 1.367 . S
C785 C784 1.367 . S
C785 C787 1.433 . S
C786 C782 1.350 . S
C786 C783 1.463 . S
C786 N790 1.427 . S
C787 H777 0.929 . S
C787 C785 1.433 . S
C787 N790 1.384 . S
C788 H779 0.929 . S
C788 C780 1.378 . S
C788 C783 1.350 . S
C789 H776 0.929 . S
C789 C781 1.433 . S
C789 N791 1.384 . S
N790 C786 1.427 . S
N790 C787 1.384 . S
N791 C783 1.427 . S
N791 C789 1.384 . S
H792 C798 0.930 . S
H793 C802 0.930 . S
H794 C807 0.929 . S
H795 C805 0.929 . S
H796 C800 0.929 . S
H797 C806 0.929 . S
C798 H792 0.930 . S
C798 C799 1.367 . S
C798 C806 1.378 . S
C799 C798 1.367 . S
C799 C807 1.433 1_554 S
C800 H796 0.929 . S
C800 C802 1.378 . S
C800 C804 1.350 . S
C801 C804 1.463 1_544 S
C801 C806 1.350 . S
C801 N809 1.427 1_554 S
C802 H793 0.930 . S
C802 C800 1.378 . S
C802 C803 1.367 . S
C803 C802 1.367 . S
C803 C805 1.433 1_456 S
C804 C800 1.350 . S
C804 C801 1.463 1_566 S
C804 N808 1.427 1_556 S
C805 H795 0.929 . S
C805 C803 1.433 1_654 S
C805 N808 1.384 1_655 S
C806 H797 0.929 . S
C806 C798 1.378 . S
C806 C801 1.350 . S
C807 H794 0.929 . S
C807 C799 1.433 1_556 S
C807 N809 1.384 . S
N808 C804 1.427 1_554 S
N808 C805 1.384 1_455 S
N809 C801 1.427 1_556 S
N809 C807 1.384 . S
H810 C816 0.930 1_565 S
H811 C820 0.930 . S
H812 C825 0.929 . S
H813 C823 0.929 . S
H814 C818 0.929 . S
H815 C824 0.929 . S
C816 H810 0.930 1_545 S
C816 C817 1.367 . S
C816 C824 1.378 . S
C817 C816 1.367 . S
C817 C825 1.433 . S
C818 H814 0.929 . S
C818 C820 1.378 . S
C818 C822 1.350 . S
C819 C822 1.463 . S
C819 C824 1.350 . S
C819 N827 1.427 . S
C820 H811 0.930 . S
C820 C818 1.378 . S
C820 C821 1.367 . S
C821 C820 1.367 . S
C821 C823 1.433 1_455 S
C822 C818 1.350 . S
C822 C819 1.463 . S
C822 N826 1.427 . S
C823 H813 0.929 . S
C823 C821 1.433 1_655 S
C823 N826 1.384 1_655 S
C824 H815 0.929 . S
C824 C816 1.378 . S
C824 C819 1.350 . S
C825 H812 0.929 . S
C825 C817 1.433 . S
C825 N827 1.384 . S
N826 C822 1.427 . S
N826 C823 1.384 1_455 S
N827 C819 1.427 . S
N827 C825 1.384 . S
H828 C834 0.930 . S
H829 C838 0.930 . S
H830 C843 0.929 . S
H831 C841 0.929 . S
H832 C836 0.929 . S
H833 C842 0.929 . S
C834 H828 0.930 . S
C834 C835 1.367 . S
C834 C842 1.378 . S
C835 C834 1.367 . S
C835 C843 1.433 . S
C836 H832 0.929 . S
C836 C838 1.378 . S
C836 C840 1.350 . S
C837 C840 1.463 1_455 S
C837 C842 1.350 . S
C837 N845 1.427 . S
C838 H829 0.930 . S
C838 C836 1.378 . S
C838 C839 1.367 . S
C839 C838 1.367 . S
C839 C841 1.433 . S
C840 C836 1.350 . S
C840 C837 1.463 1_655 S
C840 N844 1.427 . S
C841 H831 0.929 . S
C841 C839 1.433 . S
C841 N844 1.384 . S
C842 H833 0.929 . S
C842 C834 1.378 . S
C842 C837 1.350 . S
C843 H830 0.929 . S
C843 C835 1.433 . S
C843 N845 1.384 . S
N844 C840 1.427 . S
N844 C841 1.384 . S
N845 C837 1.427 . S
N845 C843 1.384 . S
H846 C852 0.930 . S
H847 C856 0.930 . S
H848 C861 0.929 . S
H849 C859 0.929 . S
H850 C854 0.929 . S
H851 C860 0.929 . S
C852 H846 0.930 . S
C852 C853 1.367 . S
C852 C860 1.378 . S
C853 C852 1.367 . S
C853 C861 1.433 1_655 S
C854 H850 0.929 . S
C854 C856 1.378 . S
C854 C858 1.350 . S
C855 C858 1.463 1_545 S
C855 C860 1.350 . S
C855 N863 1.427 . S
C856 H847 0.930 . S
C856 C854 1.378 . S
C856 C857 1.367 . S
C857 C856 1.367 . S
C857 C859 1.433 . S
C858 C854 1.350 . S
C858 C855 1.463 1_565 S
C858 N862 1.427 . S
C859 H849 0.929 . S
C859 C857 1.433 . S
C859 N862 1.384 . S
C860 H851 0.929 . S
C860 C852 1.378 . S
C860 C855 1.350 . S
C861 H848 0.929 . S
C861 C853 1.433 1_455 S
C861 N863 1.384 1_455 S
N862 C858 1.427 . S
N862 C859 1.384 . S
N863 C855 1.427 . S
N863 C861 1.384 1_655 S
H864 C870 0.930 . S
H865 C874 0.930 . S
H866 C879 0.929 . S
H867 C877 0.929 . S
H868 C872 0.929 . S
H869 C878 0.929 1_455 S
C870 H864 0.930 . S
C870 C871 1.367 1_455 S
C870 C878 1.378 1_455 S
C871 C870 1.367 1_655 S
C871 C879 1.433 . S
C872 H868 0.929 . S
C872 C874 1.378 . S
C872 C876 1.350 . S
C873 C876 1.463 . S
C873 C878 1.350 . S
C873 N881 1.427 . S
C874 H865 0.930 . S
C874 C872 1.378 . S
C874 C875 1.367 . S
C875 C874 1.367 . S
C875 C877 1.433 1_565 S
C876 C872 1.350 . S
C876 C873 1.463 . S
C876 N880 1.427 . S
C877 H867 0.929 . S
C877 C875 1.433 1_545 S
C877 N880 1.384 1_545 S
C878 H869 0.929 1_655 S
C878 C870 1.378 1_655 S
C878 C873 1.350 . S
C879 H866 0.929 . S
C879 C871 1.433 . S
C879 N881 1.384 . S
N880 C876 1.427 . S
N880 C877 1.384 1_565 S
N881 C873 1.427 . S
N881 C879 1.384 . S
H882 C888 0.930 . S
H883 C892 0.930 . S
H884 C897 0.929 . S
H885 C895 0.929 . S
H886 C890 0.929 . S
H887 C896 0.929 . S
C888 H882 0.930 . S
C888 C889 1.367 . S
C888 C896 1.378 . S
C889 C888 1.367 . S
C889 C897 1.433 1_565 S
C890 H886 0.929 . S
C890 C892 1.378 . S
C890 C894 1.350 . S
C891 C894 1.463 1_455 S
C891 C896 1.350 . S
C891 N899 1.427 . S
C892 H883 0.930 . S
C892 C890 1.378 . S
C892 C893 1.367 . S
C893 C892 1.367 . S
C893 C895 1.433 . S
C894 C890 1.350 . S
C894 C891 1.463 1_655 S
C894 N898 1.427 . S
C895 H885 0.929 . S
C895 C893 1.433 . S
C895 N898 1.384 . S
C896 H887 0.929 . S
C896 C888 1.378 . S
C896 C891 1.350 . S
C897 H884 0.929 . S
C897 C889 1.433 1_545 S
C897 N899 1.384 1_545 S
N898 C894 1.427 . S
N898 C895 1.384 . S
N899 C891 1.427 . S
N899 C897 1.384 1_565 S
C259 C166 1.730 . S
C263 C7 1.595 . S
C277 C188 1.730 . S
C281 C25 1.595 1_455 S
C295 C208 1.729 . S
C299 C49 1.594 1_545 S
C313 C230 1.730 . S
C317 C67 1.595 . S
C331 C250 1.733 . S
C335 C91 1.599 1_655 S
C349 C146 1.737 . S
C353 C109 1.613 1_565 S
C367 C130 1.596 . S
C371 C125 1.727 . S
C385 C154 1.612 1_455 S
C389 C19 1.739 . S
C403 C172 1.594 1_545 S
C407 C41 1.727 . S
C421 C196 1.614 . S
C425 C61 1.738 . S
C439 C214 1.614 1_655 S
C443 C83 1.738 . S
C457 C238 1.615 1_565 S
C461 C103 1.739 . S
C475 C16 1.182 . S
C479 C124 1.059 . S
C493 C24 1.191 . S
C497 C20 1.066 . S
C511 C40 1.085 . S
C515 C58 1.194 . S
C529 C62 1.060 . S
C533 C66 1.185 . S
C547 C82 1.087 . S
C551 C100 1.203 . S
C565 C108 1.198 . S
C569 C104 1.078 . S
C583 C129 1.199 . S
C587 C167 1.079 . S
C601 C163 1.203 . S
C605 C187 1.093 . S
C619 C171 1.182 . S
C623 C209 1.059 . S
C637 C205 1.193 . S
C641 C229 1.084 . S
C655 C213 1.184 . S
C659 C251 1.059 . S
C673 C145 1.093 . S
C677 C247 1.203 . S
C691 C184 0.822 . S
C695 C3 0.853 . S
C709 C37 0.863 . S
C713 C192 0.816 . S
C727 C45 0.816 . S
C731 C226 0.863 . S
C745 C79 0.830 . S
C749 C234 0.859 . S
C763 C87 0.817 . S
C767 C142 0.865 . S
C781 C150 0.818 . S
C785 C121 0.858 . S
C799 C4 0.779 . S
C803 C151 0.771 . S
C817 C175 0.779 . S
C821 C28 0.783 . S
C835 C193 0.774 . S
C839 C46 0.774 . S
C853 C217 0.793 . S
C857 C70 0.805 . S
C871 C88 0.806 . S
C875 C235 0.790 . S
C889 C112 0.807 . S
C893 C133 0.814 . S
