# Generated by pormake.
# Topology can, (4)-cn, num edge types: 1
# Building blocks:
#     Node 0, Type 0, BuildingBlock: AZAVOO_clean_sbu_0, # of connection points: 4
#     Node 1, Type 0, BuildingBlock: AZAVOO_clean_sbu_0, # of connection points: 4
#     Node 2, Type 0, BuildingBlock: AZAVOO_clean_sbu_0, # of connection points: 4
#     Node 3, Type 0, BuildingBlock: AZAVOO_clean_sbu_0, # of connection points: 4
#     Node 4, Type 0, BuildingBlock: AZAVOO_clean_sbu_0, # of connection points: 4
#     Node 5, Type 0, BuildingBlock: AZAVOO_clean_sbu_0, # of connection points: 4
#     Node 6, Type 0, BuildingBlock: AZAVOO_clean_sbu_0, # of connection points: 4
#     Node 7, Type 0, BuildingBlock: AZAVOO_clean_sbu_0, # of connection points: 4
#     Node 8, Type 0, BuildingBlock: AZAVOO_clean_sbu_0, # of connection points: 4
#     Node 9, Type 0, BuildingBlock: AZAVOO_clean_sbu_0, # of connection points: 4
#     Node 10, Type 0, BuildingBlock: AZAVOO_clean_sbu_0, # of connection points: 4
#     Node 11, Type 0, BuildingBlock: AZAVOO_clean_sbu_0, # of connection points: 4
#     Edge 12, Type (0, 0), BuildingBlock: ZUJKAS_clean_linker_0, # of connection points: 2
#     Edge 13, Type (0, 0), BuildingBlock: ZUJKAS_clean_linker_0, # of connection points: 2
#     Edge 14, Type (0, 0), BuildingBlock: ZUJKAS_clean_linker_0, # of connection points: 2
#     Edge 15, Type (0, 0), BuildingBlock: ZUJKAS_clean_linker_0, # of connection points: 2
#     Edge 16, Type (0, 0), BuildingBlock: ZUJKAS_clean_linker_0, # of connection points: 2
#     Edge 17, Type (0, 0), BuildingBlock: ZUJKAS_clean_linker_0, # of connection points: 2
#     Edge 18, Type (0, 0), BuildingBlock: ZUJKAS_clean_linker_0, # of connection points: 2
#     Edge 19, Type (0, 0), BuildingBlock: ZUJKAS_clean_linker_0, # of connection points: 2
#     Edge 20, Type (0, 0), BuildingBlock: ZUJKAS_clean_linker_0, # of connection points: 2
#     Edge 21, Type (0, 0), BuildingBlock: ZUJKAS_clean_linker_0, # of connection points: 2
#     Edge 22, Type (0, 0), BuildingBlock: ZUJKAS_clean_linker_0, # of connection points: 2
#     Edge 23, Type (0, 0), BuildingBlock: ZUJKAS_clean_linker_0, # of connection points: 2
#     Edge 24, Type (0, 0), BuildingBlock: ZUJKAS_clean_linker_0, # of connection points: 2
#     Edge 25, Type (0, 0), BuildingBlock: ZUJKAS_clean_linker_0, # of connection points: 2
#     Edge 26, Type (0, 0), BuildingBlock: ZUJKAS_clean_linker_0, # of connection points: 2
#     Edge 27, Type (0, 0), BuildingBlock: ZUJKAS_clean_linker_0, # of connection points: 2
#     Edge 28, Type (0, 0), BuildingBlock: ZUJKAS_clean_linker_0, # of connection points: 2
#     Edge 29, Type (0, 0), BuildingBlock: ZUJKAS_clean_linker_0, # of connection points: 2
#     Edge 30, Type (0, 0), BuildingBlock: ZUJKAS_clean_linker_0, # of connection points: 2
#     Edge 31, Type (0, 0), BuildingBlock: ZUJKAS_clean_linker_0, # of connection points: 2
#     Edge 32, Type (0, 0), BuildingBlock: ZUJKAS_clean_linker_0, # of connection points: 2
#     Edge 33, Type (0, 0), BuildingBlock: ZUJKAS_clean_linker_0, # of connection points: 2
#     Edge 34, Type (0, 0), BuildingBlock: ZUJKAS_clean_linker_0, # of connection points: 2
#     Edge 35, Type (0, 0), BuildingBlock: ZUJKAS_clean_linker_0, # of connection points: 2
# Relax obj value: 0.087
# Max RMSD: 0.099
# Mean RMSD: 0.099
data_MOF--net-can--node1-AZAVOO_clean_sbu_0--edge1-ZUJKAS_clean_linker_0
_symmetry_space_group_name_H-M    P1
_symmetry_Int_Tables_number       1
_symmetry_cell_setting            triclinic
loop_
_symmetry_equiv_pos_as_xyz
'x, y, z'
_cell_length_a     75.20278
_cell_length_b     75.229387
_cell_length_c     34.411424
_cell_angle_alpha  89.969207
_cell_angle_beta   89.99141
_cell_angle_gamma 119.96715
loop_
_atom_site_label
_atom_site_type_symbol
_atom_site_fract_x
_atom_site_fract_y
_atom_site_fract_z
_atom_type_partial_charge
Mg0 Mg 0.0801 0.414 0.25638 0.0
O1 O 0.0807 0.44493 0.25912 0.0
O2 O 0.09482 0.45943 0.31603 0.0
Mg3 Mg 0.10386 0.43894 0.34883 0.0
C4 C 0.08662 0.45957 0.28365 0.0
C5 C 0.05464 0.39241 0.18654 0.0
O6 O 0.04684 0.37949 0.21572 0.0
O7 O 0.11446 0.43045 0.24297 0.0
O8 O 0.12719 0.44436 0.30114 0.0
O9 O 0.05013 0.39887 0.28753 0.0
O10 O 0.08026 0.41262 0.31672 0.0
C11 C 0.12961 0.44108 0.26564 0.0
C12 C 0.06061 0.40377 0.31942 0.0
O13 O 0.07048 0.40981 0.19261 0.0
Mg14 Mg 0.67298 0.06479 0.7615 0.0
O15 O 0.64442 0.06815 0.76887 0.0
O16 O 0.64635 0.08324 0.82589 0.0
Mg17 Mg 0.67619 0.08985 0.85497 0.0
C18 C 0.6371 0.0752 0.7941 0.0
C19 C 0.64652 0.04076 0.69161 0.0
O20 O 0.63378 0.03261 0.72096 0.0
O21 O 0.69233 0.09892 0.74757 0.0
O22 O 0.69358 0.11261 0.80604 0.0
O23 O 0.65723 0.03496 0.79253 0.0
O24 O 0.67607 0.06488 0.82158 0.0
C25 C 0.69818 0.1144 0.76997 0.0
C26 C 0.66395 0.04537 0.82437 0.0
O27 O 0.66453 0.05558 0.69808 0.0
Mg28 Mg 0.6128 0.67696 0.23794 0.0
O29 O 0.5824 0.64762 0.2515 0.0
O30 O 0.57444 0.6482 0.31392 0.0
Mg31 Mg 0.59857 0.67881 0.33934 0.0
C32 C 0.57068 0.63939 0.28084 0.0
C33 C 0.62575 0.67339 0.15654 0.0
O34 O 0.64299 0.68404 0.17585 0.0
O35 O 0.5955 0.69474 0.23403 0.0
O36 O 0.58801 0.69507 0.29687 0.0
O37 O 0.62978 0.66182 0.26008 0.0
O38 O 0.62071 0.68019 0.29645 0.0
C39 C 0.58737 0.69978 0.26142 0.0
C40 C 0.62828 0.66822 0.29415 0.0
O41 O 0.60894 0.66847 0.1737 0.0
Mg42 Mg 0.91241 0.58329 0.77 0.0
O43 O 0.91277 0.55299 0.77416 0.0
O44 O 0.89944 0.53879 0.83173 0.0
Mg45 Mg 0.88963 0.55904 0.86355 0.0
C46 C 0.90756 0.53868 0.79922 0.0
C47 C 0.93778 0.60432 0.69988 0.0
O48 O 0.9451 0.6176 0.72853 0.0
O49 O 0.87798 0.56568 0.75714 0.0
O50 O 0.86586 0.55283 0.81616 0.0
O51 O 0.94249 0.59951 0.80073 0.0
O52 O 0.91244 0.5854 0.83033 0.0
C53 C 0.86302 0.55541 0.78047 0.0
C54 C 0.93212 0.5948 0.83276 0.0
O55 O 0.92204 0.58687 0.7062 0.0
Mg56 Mg 0.32264 0.93787 0.23372 0.0
O57 O 0.34851 0.93117 0.24782 0.0
O58 O 0.34931 0.92735 0.3121 0.0
Mg59 Mg 0.32303 0.93025 0.33877 0.0
C60 C 0.35637 0.92798 0.27807 0.0
C61 C 0.31485 0.93759 0.14689 0.0
O62 O 0.29997 0.93955 0.16249 0.0
O63 O 0.29897 0.9039 0.2418 0.0
O64 O 0.29995 0.90122 0.30642 0.0
O65 O 0.34483 0.97092 0.24445 0.0
O66 O 0.32431 0.94911 0.28922 0.0
C67 C 0.29275 0.8934 0.27316 0.0
C68 C 0.33928 0.96698 0.28048 0.0
O69 O 0.32663 0.93469 0.16917 0.0
Mg70 Mg 0.37345 0.3123 0.7519 0.0
O71 O 0.40634 0.33888 0.76003 0.0
O72 O 0.41512 0.33981 0.82235 0.0
Mg73 Mg 0.38833 0.31288 0.85346 0.0
C74 C 0.41917 0.347 0.78784 0.0
C75 C 0.35972 0.31535 0.6729 0.0
O76 O 0.34404 0.30955 0.69653 0.0
O77 O 0.38507 0.28942 0.75245 0.0
O78 O 0.39291 0.29051 0.81545 0.0
O79 O 0.3624 0.33349 0.76971 0.0
O80 O 0.36726 0.31338 0.81025 0.0
C81 C 0.39157 0.28344 0.78116 0.0
C82 C 0.36303 0.32778 0.80489 0.0
O83 O 0.37621 0.31701 0.68646 0.0
Mg84 Mg 0.58167 0.91837 0.24684 0.0
O85 O 0.55033 0.91657 0.24271 0.0
O86 O 0.53728 0.90402 0.18416 0.0
Mg87 Mg 0.56014 0.89848 0.15044 0.0
C88 C 0.53604 0.91079 0.21746 0.0
C89 C 0.601 0.93817 0.32281 0.0
O90 O 0.61606 0.94521 0.29741 0.0
O91 O 0.56618 0.88358 0.25426 0.0
O92 O 0.55535 0.87328 0.19349 0.0
O93 O 0.59707 0.94975 0.22103 0.0
O94 O 0.58506 0.92117 0.18694 0.0
C95 C 0.55762 0.86943 0.22873 0.0
C96 C 0.59366 0.94085 0.1875 0.0
O97 O 0.58311 0.9248 0.31171 0.0
Mg98 Mg 0.65036 0.57307 0.72036 0.0
O99 O 0.62018 0.54219 0.71958 0.0
O100 O 0.61947 0.52631 0.66427 0.0
Mg101 Mg 0.64821 0.54687 0.62902 0.0
C102 C 0.61145 0.52683 0.69663 0.0
C103 C 0.65091 0.59649 0.79176 0.0
O104 O 0.65929 0.61024 0.76398 0.0
O105 O 0.66851 0.5568 0.73383 0.0
O106 O 0.6678 0.54321 0.67561 0.0
O107 O 0.63578 0.58843 0.68855 0.0
O108 O 0.65139 0.57371 0.66004 0.0
C109 C 0.67374 0.54678 0.71096 0.0
C110 C 0.64129 0.58326 0.65683 0.0
O111 O 0.64551 0.57794 0.78407 0.0
Mg112 Mg 0.0599 0.67407 0.25395 0.0
O113 O 0.06495 0.64665 0.24438 0.0
O114 O 0.07683 0.64902 0.18391 0.0
Mg115 Mg 0.07988 0.67771 0.15521 0.0
C116 C 0.07117 0.63983 0.2166 0.0
C117 C 0.03848 0.66802 0.32947 0.0
O118 O 0.0296 0.67418 0.30419 0.0
O119 O 0.09447 0.69544 0.26123 0.0
O120 O 0.1046 0.6976 0.19943 0.0
O121 O 0.02854 0.65594 0.22901 0.0
O122 O 0.05625 0.67599 0.19455 0.0
C123 C 0.10848 0.70267 0.23518 0.0
C124 C 0.03696 0.66276 0.19545 0.0
O125 O 0.054 0.66681 0.31854 0.0
Mg126 Mg 0.4048 0.0648 0.71111 0.0
O127 O 0.43803 0.07204 0.7175 0.0
O128 O 0.45623 0.09226 0.66804 0.0
Mg129 Mg 0.43468 0.09793 0.62996 0.0
C130 C 0.45488 0.08229 0.69898 0.0
C131 C 0.38129 0.03409 0.77527 0.0
O132 O 0.37009 0.0258 0.74408 0.0
O133 O 0.41322 0.09695 0.73172 0.0
O134 O 0.43015 0.11548 0.6796 0.0
O135 O 0.39878 0.03816 0.67376 0.0
O136 O 0.40868 0.06937 0.65163 0.0
C137 C 0.42278 0.11406 0.71365 0.0
C138 C 0.40446 0.05087 0.64486 0.0
O139 O 0.39756 0.05144 0.77223 0.0
Mg140 Mg 0.33709 0.41402 0.233 0.0
O141 O 0.36698 0.44512 0.23259 0.0
O142 O 0.36859 0.46044 0.17596 0.0
Mg143 Mg 0.33914 0.4406 0.14216 0.0
C144 C 0.37627 0.46003 0.2088 0.0
C145 C 0.34158 0.3917 0.30097 0.0
O146 O 0.33793 0.37983 0.27054 0.0
O147 O 0.31857 0.42974 0.24732 0.0
O148 O 0.32077 0.44511 0.19029 0.0
O149 O 0.35317 0.40046 0.20051 0.0
O150 O 0.33588 0.41373 0.17278 0.0
C151 C 0.31448 0.44098 0.2254 0.0
C152 C 0.34726 0.40558 0.16926 0.0
O153 O 0.34201 0.4087 0.29646 0.0
Mg154 Mg 0.93313 0.32386 0.74041 0.0
O155 O 0.93024 0.35285 0.73657 0.0
O156 O 0.91932 0.35434 0.67689 0.0
Mg157 Mg 0.91345 0.32575 0.64382 0.0
C158 C 0.92523 0.3618 0.71083 0.0
C159 C 0.95477 0.32726 0.81535 0.0
O160 O 0.96356 0.32155 0.78902 0.0
O161 O 0.89847 0.30412 0.74739 0.0
O162 O 0.88804 0.30601 0.6873 0.0
O163 O 0.96449 0.34115 0.71542 0.0
O164 O 0.93628 0.32382 0.68043 0.0
C165 C 0.88428 0.2995 0.72232 0.0
C166 C 0.95583 0.33598 0.68165 0.0
O167 O 0.93936 0.32888 0.80539 0.0
H168 H 0.0175 0.35941 0.16951 0.0
H169 H 0.00058 0.34925 0.10657 0.0
H170 H 0.05177 0.40177 0.05315 0.0
H171 H 0.06873 0.41244 0.11671 0.0
H172 H 0.01444 0.39565 0.02727 0.0
H173 H 0.01607 0.32291 0.0206 0.0
H174 H 0.00388 0.32497 0.06381 0.0
H175 H 0.03073 0.34267 0.05575 0.0
C176 C 0.02526 0.36882 0.14443 0.0
C177 C 0.04458 0.38664 0.14804 0.0
C178 C 0.01556 0.36292 0.1084 0.0
C179 C 0.02511 0.37449 0.07505 0.0
C180 C 0.04422 0.39254 0.07855 0.0
H181 H 0.99026 0.32989 0.84065 0.0
H182 H 0.00699 0.34203 0.90332 0.0
C183 C 0.0539 0.39859 0.1148 0.0
C184 C 0.01499 0.36763 0.03668 0.0
H185 H 0.99474 0.32689 0.97444 0.0
C186 C 0.01023 0.38067 0.01554 0.0
C187 C 0.00972 0.34817 0.02127 0.0
C188 C 0.01554 0.33396 0.04134 0.0
C189 C 4e-05 0.37464 0.97963 0.0
C190 C 0.99406 0.35485 0.96499 0.0
C191 C -0.00092 0.34195 0.98594 0.0
C192 C 0.98351 0.34751 0.92706 0.0
C193 C -0.00381 0.38968 0.95736 0.0
C194 C 0.96452 0.34623 0.91969 0.0
C195 C 0.95491 0.33939 0.88356 0.0
C196 C 0.96403 0.33347 0.85445 0.0
C197 C 0.98278 0.33431 0.86238 0.0
C198 C 0.99241 0.34128 0.89823 0.0
H199 H 0.00638 0.4057 0.9673 0.0
H200 H -0.00143 0.38886 0.92571 0.0
H201 H 0.98007 0.3859 0.96202 0.0
H202 H 0.95711 0.35046 0.94188 0.0
H203 H 0.94043 0.33882 0.8784 0.0
H204 H 0.5731 0.92926 0.38172 0.0
H205 H 0.57925 0.94663 0.44475 0.0
H206 H 0.64318 0.985 0.41559 0.0
H207 H 0.63727 0.9679 0.35284 0.0
H208 H 0.6085 0.95163 0.5052 0.0
H209 H 0.62306 0.02588 0.44312 0.0
H210 H 0.61035 0.00211 0.41621 0.0
H211 H 0.63779 0.01561 0.42155 0.0
C212 C 0.58849 0.94132 0.38884 0.0
C213 C 0.60467 0.94729 0.36215 0.0
C214 C 0.59195 0.95123 0.42479 0.0
C215 C 0.61158 0.96733 0.4344 0.0
C216 C 0.62784 0.97288 0.40835 0.0
H217 H 0.67061 0.04972 0.6266 0.0
H218 H 0.66112 0.03173 0.56415 0.0
C219 C 0.62443 0.96298 0.37257 0.0
C220 C 0.61523 0.97841 0.47167 0.0
H221 H 0.63096 0.02585 0.50996 0.0
C222 C 0.61323 0.9678 0.50638 0.0
C223 C 0.62146 -0.00048 0.47292 0.0
C224 C 0.62314 0.01146 0.43652 0.0
C225 C 0.61791 0.97792 0.54237 0.0
C226 C 0.62433 -0.0009 0.54361 0.0
C227 C 0.62606 0.00963 0.5089 0.0
C228 C 0.62966 0.01067 0.58065 0.0
C229 C 0.61659 0.966 0.5786 0.0
C230 C 0.61495 0.00518 0.61013 0.0
C231 C 0.62033 0.01537 0.64581 0.0
C232 C 0.64049 0.03138 0.65256 0.0
C233 C 0.65497 0.03742 0.62237 0.0
C234 C 0.64958 0.02715 0.5867 0.0
H235 H 0.61654 0.95154 0.5717 0.0
H236 H 0.62962 0.97531 0.59845 0.0
H237 H 0.60213 0.96189 0.59421 0.0
H238 H 0.59935 0.99284 0.6057 0.0
H239 H 0.60873 0.01046 0.6683 0.0
H240 H 0.59302 0.64595 0.11241 0.0
H241 H 0.59429 0.63017 0.05085 0.0
H242 H 0.66034 0.66675 0.05096 0.0
H243 H 0.65927 0.68238 0.11233 0.0
H244 H 0.61106 0.64739 0.97816 0.0
H245 H 0.64989 0.60796 0.04129 0.0
H246 H 0.63792 0.61888 0.07085 0.0
H247 H 0.66314 0.63502 0.051 0.0
C248 C 0.6078 0.65074 0.09915 0.0
C249 C 0.62606 0.66529 0.11746 0.0
C250 C 0.6085 0.64167 0.06407 0.0
C251 C 0.62744 0.64695 0.04687 0.0
C252 C 0.64559 0.66207 0.06426 0.0
H253 H 0.66137 0.63499 0.8158 0.0
H254 H 0.65367 0.64526 0.87783 0.0
C255 C 0.64493 0.6711 0.09924 0.0
C256 C 0.62841 0.63677 0.01069 0.0
H257 H 0.64981 0.61 0.97189 0.0
C258 C 0.61934 0.63902 0.97684 0.0
C259 C 0.63888 0.62552 0.00919 0.0
C260 C 0.64784 0.62149 0.04511 0.0
C261 C 0.6213 0.63115 0.9411 0.0
C262 C 0.6329 0.62106 0.93915 0.0
C263 C 0.64113 0.61796 0.97335 0.0
C264 C 0.63754 0.61454 0.90164 0.0
C265 C 0.611 0.63381 0.90572 0.0
C266 C 0.63167 0.59392 0.8949 0.0
C267 C 0.63621 0.58796 0.8594 0.0
C268 C 0.64683 0.60258 0.8302 0.0
C269 C 0.65305 0.62328 0.8375 0.0
C270 C 0.64851 0.62919 0.87287 0.0
H271 H 0.59792 0.636 0.91389 0.0
H272 H 0.62226 0.64764 0.88947 0.0
H273 H 0.60529 0.62036 0.88605 0.0
H274 H 0.62336 0.5824 0.91693 0.0
H275 H 0.63124 0.57191 0.85471 0.0
H276 H 0.00326 0.66527 0.35661 0.0
H277 H 0.98755 0.65371 0.42023 0.0
H278 H 0.03737 0.64444 0.45542 0.0
H279 H 0.05312 0.65563 0.39094 0.0
H280 H -0.00086 0.61219 0.4765 0.0
H281 H 0.00652 0.68641 0.52013 0.0
H282 H 0.99357 0.6774 0.47448 0.0
H283 H 0.02003 0.68401 0.47895 0.0
C284 C 0.01102 0.6609 0.37784 0.0
C285 C 0.02956 0.66154 0.36879 0.0
C286 C 0.00201 0.65437 0.41431 0.0
C287 C 0.01148 0.64859 0.44279 0.0
C288 C 0.0299 0.64898 0.43387 0.0
H289 H 0.97563 0.63651 0.6843 0.0
H290 H 0.99386 0.64585 0.6226 0.0
C291 C 0.0389 0.65543 0.39712 0.0
C292 C 0.00184 0.64197 0.48161 0.0
H293 H 0.98364 0.65719 0.55781 0.0
C294 C -0.0041 0.62206 0.49452 0.0
C295 C -0.00215 0.65496 0.50523 0.0
C296 C 0.00501 0.67695 0.4942 0.0
C297 C 0.9856 0.61462 0.53009 0.0
C298 C 0.98076 0.62731 0.55281 0.0
C299 C 0.98711 0.64736 0.54018 0.0
C300 C 0.96977 0.62055 0.5905 0.0
C301 C 0.98033 0.5934 0.5432 0.0
C302 C 0.95008 0.60315 0.59311 0.0
C303 C 0.93961 0.5976 0.6287 0.0
C304 C 0.94855 0.60959 0.66202 0.0
C305 C 0.96822 0.62699 0.65917 0.0
C306 C 0.97871 0.63236 0.62388 0.0
H307 H 0.99002 0.58814 0.52845 0.0
H308 H 0.98226 0.59291 0.57511 0.0
H309 H 0.96408 0.58244 0.53588 0.0
H310 H 0.94265 0.59408 0.56753 0.0
H311 H 0.92444 0.58417 0.62998 0.0
H312 H 0.40143 0.04597 0.84513 0.0
H313 H 0.39094 0.02739 0.90699 0.0
H314 H 0.33662 0.97907 0.85246 0.0
H315 H 0.34706 -0.00269 0.79057 0.0
H316 H 0.35561 0.01619 0.94872 0.0
H317 H 0.36018 0.94734 0.90759 0.0
H318 H 0.37176 0.97055 0.87892 0.0
H319 H 0.3447 0.95264 0.87517 0.0
C320 C 0.3873 0.03134 0.84627 0.0
C321 C 0.37511 0.02309 0.81289 0.0
C322 C 0.38135 0.02074 0.8816 0.0
C323 C 0.3632 0.00169 0.88412 0.0
C324 C 0.35094 0.99351 0.85095 0.0
H325 H 0.2932 0.94508 0.09201 0.0
H326 H 0.30477 0.95931 0.02702 0.0
C327 C 0.35687 0.00406 0.81565 0.0
C328 C 0.3565 0.99082 0.92184 0.0
H329 H 0.34294 0.94536 0.96714 0.0
C330 C 0.35296 0.00076 0.95282 0.0
C331 C 0.35327 0.97076 0.92722 0.0
C332 C 0.35786 0.95975 0.89559 0.0
C333 C 0.3458 0.991 0.98881 0.0
C334 C 0.34173 0.97063 0.99368 0.0
C335 C 0.34578 0.96086 0.96307 0.0
C336 C 0.33356 0.95946 0.03071 0.0
C337 C 0.34284 0.00268 0.02145 0.0
C338 C 0.34543 0.95379 0.05337 0.0
C339 C 0.3388 0.94549 0.09047 0.0
C340 C 0.32017 0.94274 0.10542 0.0
C341 C 0.30772 0.9472 0.08154 0.0
C342 C 0.31435 0.95544 0.04448 0.0
H343 H 0.35138 0.0195 0.01613 0.0
H344 H 0.3263 -0.00227 0.02397 0.0
H345 H 0.34797 -0.00045 0.04959 0.0
H346 H 0.36024 0.95663 0.04306 0.0
H347 H 0.34872 0.94215 0.10805 0.0
H348 H 0.34855 0.36021 0.3154 0.0
H349 H 0.35317 0.34801 0.37806 0.0
H350 H 0.34703 0.39547 0.43606 0.0
H351 H 0.34286 0.40821 0.37292 0.0
H352 H 0.37831 0.39034 0.46654 0.0
H353 H 0.30659 0.31536 0.45346 0.0
H354 H 0.32376 0.32069 0.41331 0.0
H355 H 0.31254 0.33663 0.42148 0.0
C356 C 0.34817 0.36811 0.34142 0.0
C357 C 0.34509 0.38505 0.33924 0.0
C358 C 0.35074 0.36104 0.37725 0.0
C359 C 0.34997 0.37053 0.41172 0.0
C360 C 0.34751 0.38784 0.40973 0.0
H361 H 0.32761 0.31669 0.63971 0.0
H362 H 0.3264 0.33048 0.57645 0.0
C363 C 0.34511 0.39507 0.37371 0.0
C364 C 0.35149 0.36213 0.44973 0.0
H365 H 0.32916 0.31853 0.5047 0.0
C366 C 0.36754 0.37468 0.47504 0.0
C367 C 0.33726 0.34174 0.46086 0.0
C368 C 0.31895 0.32788 0.43604 0.0
C369 C 0.36988 0.3673 0.51108 0.0
C370 C 0.35605 0.34669 0.52159 0.0
C371 C 0.33992 0.33424 0.49637 0.0
C372 C 0.35713 0.33804 0.55967 0.0
C373 C 0.38681 0.38179 0.53793 0.0
C374 C 0.3747 0.33731 0.57103 0.0
C375 C 0.37551 0.3295 0.60754 0.0
C376 C 0.35866 0.3221 0.633 0.0
C377 C 0.34089 0.32227 0.6209 0.0
C378 C 0.34016 0.33018 0.58469 0.0
H379 H 0.39263 0.39809 0.52993 0.0
H380 H 0.38144 0.37947 0.56855 0.0
H381 H 0.39982 0.3788 0.53604 0.0
H382 H 0.38779 0.34283 0.55176 0.0
H383 H 0.38938 0.32949 0.61597 0.0
H384 H 0.91427 0.58832 0.90426 0.0
H385 H 0.9313 0.59763 0.96724 0.0
H386 H 0.99018 0.62222 0.91087 0.0
H387 H 0.9732 0.61235 0.84747 0.0
H388 H 0.98578 0.59855 0.97758 0.0
H389 H 0.9628 0.65709 0.00527 0.0
H390 H 0.94179 0.63193 -0.00524 0.0
H391 H 0.96073 0.64584 0.95799 0.0
C392 C 0.93082 0.59543 0.90516 0.0
C393 C 0.9424 0.59958 0.87088 0.0
C394 C 0.94052 0.60091 0.94118 0.0
C395 C 0.96196 0.61089 0.9435 0.0
C396 C 0.97359 0.61459 0.9095 0.0
H397 H 0.04952 0.67687 0.12193 0.0
H398 H 0.03068 0.66279 0.06148 0.0
C399 C 0.96387 0.609 0.87339 0.0
C400 C 0.97227 0.61788 0.98138 0.0
H401 H 0.97921 0.65006 0.05698 0.0
C402 C 0.98436 0.60979 -0.00502 0.0
C403 C 0.97041 0.63265 0.00375 0.0
C404 C 0.95839 0.64255 0.98963 0.0
C405 C 0.99455 0.61602 0.03073 0.0
C406 C 0.99251 0.6306 0.05308 0.0
C407 C 0.98045 0.63868 0.03964 0.0
C408 C 0.00377 0.63855 0.08962 0.0
C409 C 0.00762 0.60725 0.04446 0.0
C410 C 0.99464 0.62952 0.12515 0.0
C411 C 0.00538 0.63745 0.1598 0.0
C412 C 0.02535 0.65449 0.15916 0.0
C413 C 0.03429 0.66355 0.12336 0.0
C414 C 0.02357 0.6556 0.08883 0.0
H415 H 0.00693 0.59535 0.02439 0.0
H416 H 0.02383 0.61975 0.04701 0.0
H417 H 0.00252 0.60038 0.07378 0.0
H418 H 0.97925 0.61638 0.12599 0.0
H419 H -0.0019 0.63018 0.18698 0.0
H420 H 0.38106 0.98904 0.28492 0.0
H421 H 0.40128 0.00493 0.34393 0.0
H422 H 0.34574 0.99119 0.40513 0.0
H423 H 0.32558 0.97459 0.34711 0.0
H424 H 0.40779 0.03552 0.39352 0.0
H425 H 0.3672 0.96155 0.47035 0.0
H426 H 0.36499 0.96361 0.41853 0.0
H427 H 0.34886 0.9679 0.45152 0.0
C428 C 0.37333 0.98989 0.31083 0.0
C429 C 0.35184 0.98059 0.31187 0.0
C430 C 0.38483 -0.00121 0.34448 0.0
C431 C 0.37488 -0.00143 0.37915 0.0
C432 C 0.35361 0.99085 0.37902 0.0
H433 H 0.40196 0.06815 0.57779 0.0
H434 H 0.40095 0.05596 0.51211 0.0
C435 C 0.34214 0.98161 0.34584 0.0
C436 C 0.38626 0.00564 0.41615 0.0
H437 H 0.38171 0.99192 0.51138 0.0
C438 C 0.40244 0.02591 0.41925 0.0
C439 C 0.38 0.99281 0.44933 0.0
C440 C 0.36449 0.97019 0.44712 0.0
C441 C 0.41107 0.03428 0.45553 0.0
C442 C 0.40266 0.02226 0.48947 0.0
C443 C 0.38794 0.0014 0.48567 0.0
C444 C 0.40655 0.03139 0.52892 0.0
C445 C 0.42879 0.05601 0.45701 0.0
C446 C 0.40948 0.02138 0.56074 0.0
C447 C 0.40917 0.02785 0.59869 0.0
C448 C 0.40633 0.04467 0.60527 0.0
C449 C 0.40436 0.05524 0.57347 0.0
C450 C 0.40411 0.04845 0.53575 0.0
H451 H 0.43898 0.05926 0.43142 0.0
H452 H 0.42281 0.06683 0.45575 0.0
H453 H 0.43806 0.059 0.48384 0.0
H454 H 0.41127 0.0081 0.5563 0.0
H455 H 0.41086 0.01956 0.62282 0.0
H456 H 0.34055 0.31211 0.86975 0.0
H457 H 0.34193 0.33063 0.92902 0.0
H458 H 0.38723 0.38747 0.87587 0.0
H459 H 0.38462 0.369 0.81549 0.0
H460 H 0.37249 0.34948 0.975 0.0
H461 H 0.35146 0.40631 0.92233 0.0
H462 H 0.34865 0.38539 0.8925 0.0
H463 H 0.37341 0.40806 0.8982 0.0
C464 C 0.35034 0.32864 0.87056 0.0
C465 C 0.3622 0.3393 0.83828 0.0
C466 C 0.35127 0.3392 0.90438 0.0
C467 C 0.36456 0.3605 0.90685 0.0
C468 C 0.37642 0.37118 0.87435 0.0
H469 H 0.38232 0.40546 0.14853 0.0
H470 H 0.39113 0.39866 0.08365 0.0
C471 C 0.37497 0.36066 0.83997 0.0
C472 C 0.36662 0.371 0.94435 0.0
H473 H 0.3618 0.40909 0.98782 0.0
C474 C 0.37011 0.36251 0.97783 0.0
C475 C 0.36371 0.38811 0.94789 0.0
C476 C 0.35891 0.3974 0.91338 0.0
C477 C 0.36946 0.36973 0.01497 0.0
C478 C 0.36643 0.38677 0.0186 0.0
C479 C 0.36419 0.39607 0.98495 0.0
C480 C 0.36287 0.39351 0.05678 0.0
C481 C 0.37071 0.35813 0.04974 0.0
C482 C 0.34472 0.39414 0.06263 0.0
C483 C 0.3401 0.39875 0.09906 0.0
C484 C 0.3533 0.40236 0.13054 0.0
C485 C 0.37176 0.40235 0.12469 0.0
C486 C 0.37672 0.39835 0.08778 0.0
H487 H 0.36781 0.3426 0.04169 0.0
H488 H 0.38633 0.36667 0.06244 0.0
H489 H 0.35942 0.35635 0.07239 0.0
H490 H 0.33379 0.39047 0.03923 0.0
H491 H 0.32577 0.3987 0.1029 0.0
H492 H 0.94223 0.3262 0.60704 0.0
H493 H 0.96162 0.34114 0.54747 0.0
H494 H 0.01558 0.3802 0.6149 0.0
H495 H -0.00382 0.3656 0.67504 0.0
H496 H 0.98746 0.38837 0.52972 0.0
H497 H 0.02866 0.34396 0.53372 0.0
H498 H 0.00425 0.33495 0.55766 0.0
H499 H 0.02698 0.35608 0.57766 0.0
C500 C 0.95813 0.33813 0.60935 0.0
C501 C 0.96764 0.34487 0.64575 0.0
C502 C 0.96917 0.34659 0.57528 0.0
C503 C 0.9899 0.36171 0.57709 0.0
C504 C -0.00047 0.36849 0.61322 0.0
H505 H 0.07872 0.41134 0.39079 0.0
H506 H 0.06201 0.40367 0.45404 0.0
C507 C 0.98846 0.36012 0.64741 0.0
C508 C 0.00149 0.36999 0.5409 0.0
H509 H 0.03516 0.36595 0.48054 0.0
C510 C -0.00199 0.38364 0.51891 0.0
C511 C 0.01517 0.36369 0.52735 0.0
C512 C 0.01904 0.3488 0.55007 0.0
C513 C 0.00795 0.39121 0.48325 0.0
C514 C 0.02125 0.38448 0.46909 0.0
C515 C 0.02493 0.37105 0.49152 0.0
C516 C 0.03129 0.3908 0.43077 0.0
C517 C 0.0043 0.40647 0.46132 0.0
C518 C 0.01952 0.38614 0.39673 0.0
C519 C 0.02908 0.39078 0.36041 0.0
C520 C 0.05052 0.39992 0.35765 0.0
C521 C 0.06222 0.40462 0.39185 0.0
C522 C 0.05269 0.40014 0.42807 0.0
H523 H -0.0011 0.41453 0.48093 0.0
H524 H 0.01847 0.41808 0.44635 0.0
H525 H 0.99225 0.39823 0.43906 0.0
H526 H 0.00293 0.37843 0.3982 0.0
H527 H 0.01964 0.38683 0.33455 0.0
H528 H 0.63511 0.00553 0.83931 0.0
H529 H 0.62308 0.98938 0.90303 0.0
H530 H 0.66427 0.04664 0.95927 0.0
H531 H 0.67673 0.06286 0.89593 0.0
H532 H 0.65415 0.99267 0.96944 0.0
H533 H 0.60132 0.02266 0.00232 0.0
H534 H 0.60691 0.01876 0.95298 0.0
H535 H 0.62609 0.03956 0.98104 0.0
C536 C 0.64161 0.0147 0.86521 0.0
C537 C 0.65672 0.03553 0.8626 0.0
C538 C 0.63469 0.00547 0.90147 0.0
C539 C 0.64268 0.01697 0.93549 0.0
C540 C 0.6578 0.03768 0.93311 0.0
H541 H 0.61224 0.98253 0.17871 0.0
H542 H 0.62469 0.00205 0.11804 0.0
C543 C 0.66483 0.0469 0.89692 0.0
C544 C 0.63571 0.0071 0.97362 0.0
H545 H 0.60415 0.00146 0.04949 0.0
C546 C 0.64324 0.99456 0.98706 0.0
C547 C 0.62174 0.00996 -0.00359 0.0
C548 C 0.6134 0.02341 0.98266 0.0
C549 C 0.63698 0.98455 0.02295 0.0
C550 C 0.62242 0.98679 0.04527 0.0
C551 C 0.61523 -0.00027 0.03214 0.0
C552 C 0.61394 0.97518 0.0816 0.0
C553 C 0.64617 0.97184 0.03679 0.0
C554 C 0.60332 0.9537 0.08083 0.0
C555 C 0.59636 0.94257 0.11523 0.0
C556 C 0.59959 0.95273 0.15101 0.0
C557 C 0.60954 0.97428 0.15157 0.0
C558 C 0.61665 0.98544 0.11703 0.0
H559 H 0.66114 0.97659 0.02248 0.0
H560 H 0.64849 0.97307 0.06876 0.0
H561 H 0.6356 0.95549 0.02947 0.0
H562 H 0.60071 0.94552 0.05362 0.0
H563 H 0.58886 0.92602 0.1137 0.0
H564 H 0.63297 0.63452 0.30104 0.0
H565 H 0.63485 0.61828 0.36165 0.0
H566 H 0.63316 0.666 0.42795 0.0
H567 H 0.63161 0.6825 0.36789 0.0
H568 H 0.66643 0.64446 0.43618 0.0
H569 H 0.58146 0.60192 0.45584 0.0
H570 H 0.5931 0.60782 0.40813 0.0
H571 H 0.59398 0.62787 0.43758 0.0
C572 C 0.63331 0.6417 0.32852 0.0
C573 C 0.63188 0.65963 0.32981 0.0
C574 C 0.63429 0.63238 0.36297 0.0
C575 C 0.63387 0.6409 0.39892 0.0
C576 C 0.63328 0.65918 0.40029 0.0
H577 H 0.62291 0.6059 0.64018 0.0
H578 H 0.62028 0.61889 0.57636 0.0
C579 C 0.63235 0.66852 0.36599 0.0
C580 C 0.63358 0.63057 0.43535 0.0
H581 H 0.60137 0.59946 0.50628 0.0
C582 C 0.65226 0.63447 0.45147 0.0
C583 C 0.615 0.61785 0.45509 0.0
C584 C 0.59465 0.61346 0.43846 0.0
C585 C 0.6529 0.62611 0.48748 0.0
C586 C 0.63428 0.6132 0.50722 0.0
C587 C 0.61557 0.60928 0.49093 0.0
C588 C 0.63403 0.60383 0.54506 0.0
C589 C 0.67352 0.63168 0.50459 0.0
C590 C 0.64195 0.59053 0.54821 0.0
C591 C 0.64361 0.58326 0.58447 0.0
C592 C 0.63707 0.58888 0.61821 0.0
C593 C 0.62809 0.60131 0.61473 0.0
C594 C 0.62659 0.60874 0.57835 0.0
H595 H 0.68615 0.64574 0.49099 0.0
H596 H 0.67376 0.6342 0.53643 0.0
H597 H 0.67663 0.61893 0.49946 0.0
H598 H 0.64736 0.58622 0.52269 0.0
H599 H 0.65063 0.57377 0.586 0.0
H600 H 0.05916 0.61465 0.28058 0.0
H601 H 0.06086 0.58324 0.28951 0.0
H602 H 0.08602 0.58998 0.17433 0.0
H603 H 0.08454 0.62137 0.16507 0.0
H604 H 0.0426 0.54629 0.24232 0.0
H605 H 0.12785 0.58571 0.24706 0.0
H606 H 0.11381 0.59918 0.25367 0.0
H607 H 0.11718 0.59178 0.20583 0.0
C608 C 0.06508 0.60949 0.25714 0.0
C609 C 0.07185 0.62065 0.22221 0.0
C610 C 0.06597 0.59151 0.26227 0.0
C611 C 0.07376 0.58448 0.23272 0.0
C612 C 0.08022 0.59535 0.19766 0.0
H613 H 0.06833 0.46564 0.21967 0.0
H614 H 0.06443 0.49548 0.20574 0.0
C615 C 0.07931 0.61327 0.19244 0.0
C616 C 0.07538 0.56588 0.23869 0.0
H617 H 0.11007 0.54945 0.24718 0.0
C618 C 0.05732 0.54692 0.24335 0.0
C619 C 0.09464 0.56687 0.24024 0.0
C620 C 0.11452 0.58697 0.23676 0.0
C621 C 0.05803 0.52882 0.24944 0.0
C622 C 0.07729 0.5298 0.25055 0.0
C623 C 0.09533 0.54877 0.24595 0.0
C624 C 0.07921 0.51154 0.25873 0.0
C625 C 0.03826 0.50889 0.25558 0.0
C626 C 0.08906 0.51089 0.29279 0.0
C627 C 0.09137 0.49399 0.30078 0.0
C628 C 0.08398 0.47739 0.27471 0.0
C629 C 0.07416 0.47812 0.24041 0.0
C630 C 0.07182 0.49509 0.23249 0.0
H631 H 0.02511 0.51139 0.26117 0.0
H632 H 0.03477 0.49925 0.22917 0.0
H633 H 0.03971 0.50026 0.28038 0.0
H634 H 0.09492 0.52348 0.31332 0.0
H635 H 0.09904 0.49403 0.32744 0.0
H636 H 0.49509 0.10973 0.68343 0.0
H637 H 0.52514 0.10721 0.70185 0.0
H638 H 0.486 0.05023 0.76141 0.0
H639 H 0.45597 0.05312 0.74452 0.0
H640 H 0.51916 0.07264 0.80243 0.0
H641 H 0.54257 0.07075 0.65082 0.0
H642 H 0.54146 0.09359 0.6604 0.0
H643 H 0.51836 0.06892 0.66272 0.0
C644 C 0.49291 0.09672 0.7006 0.0
C645 C 0.47317 0.08155 0.7123 0.0
C646 C 0.51007 0.0952 0.71082 0.0
C647 C 0.50777 0.07822 0.73203 0.0
C648 C 0.48813 0.06338 0.74475 0.0
H649 H 0.60698 0.04997 0.74341 0.0
H650 H 0.57448 0.0489 0.73028 0.0
C651 C 0.47099 0.06508 0.73514 0.0
C652 C 0.52583 0.07599 0.7411 0.0
H653 H 0.56729 0.07634 0.69996 0.0
C654 C 0.5296 0.07328 0.77999 0.0
C655 C 0.53917 0.07631 0.71173 0.0
C656 C 0.53506 0.07731 0.66907 0.0
C657 C 0.54666 0.07149 0.79045 0.0
C658 C 0.56075 0.0732 0.76135 0.0
C659 C 0.55666 0.07532 0.72235 0.0
C660 C 0.58002 0.07322 0.77064 0.0
C661 C 0.54916 0.06743 0.8325 0.0
C662 C 0.59401 0.08734 0.79743 0.0
C663 C 0.61239 0.08774 0.80545 0.0
C664 C 0.6174 0.07437 0.78608 0.0
C665 C 0.60355 0.06047 0.75877 0.0
C666 C 0.58498 0.05984 0.75127 0.0
H667 H 0.53413 0.05958 0.84775 0.0
H668 H 0.5565 0.05783 0.83529 0.0
H669 H 0.55893 0.08225 0.84747 0.0
H670 H 0.59088 0.0983 0.81175 0.0
H671 H 0.62288 0.09883 0.82624 0.0
H672 H 0.55282 0.61944 0.21305 0.0
H673 H 0.52027 0.58744 0.20537 0.0
H674 H 0.51338 0.58157 0.32992 0.0
H675 H 0.54563 0.61382 0.33794 0.0
H676 H 0.50736 0.54834 0.2301 0.0
H677 H 0.45992 0.57782 0.29711 0.0
H678 H 0.48642 0.59442 0.28382 0.0
H679 H 0.48001 0.57963 0.32792 0.0
C680 C 0.54442 0.61133 0.23884 0.0
C681 C 0.55171 0.61932 0.27611 0.0
C682 C 0.52583 0.59304 0.23439 0.0
C683 C 0.51422 0.58236 0.26706 0.0
C684 C 0.52183 0.58986 0.30431 0.0
H685 H 0.39534 0.46886 0.27988 0.0
H686 H 0.42934 0.49768 0.29621 0.0
C687 C 0.54032 0.60824 0.30881 0.0
C688 C 0.49407 0.56351 0.26194 0.0
H689 H 0.44277 0.54273 0.27968 0.0
C690 C 0.49325 0.54709 0.24102 0.0
C691 C 0.47567 0.56195 0.27619 0.0
C692 C 0.47544 0.57945 0.2972 0.0
C693 C 0.47449 0.52921 0.23378 0.0
C694 C 0.45617 0.52777 0.24773 0.0
C695 C 0.45696 0.54394 0.26931 0.0
C696 C 0.43589 0.51016 0.23799 0.0
C697 C 0.4743 0.51197 0.21105 0.0
C698 C 0.42839 0.50791 0.19999 0.0
C699 C 0.409 0.49166 0.19063 0.0
C700 C 0.39677 0.4773 0.21912 0.0
C701 C 0.40439 0.47961 0.25724 0.0
C702 C 0.42377 0.49603 0.26665 0.0
H703 H 0.48985 0.51376 0.20882 0.0
H704 H 0.46377 0.49694 0.22477 0.0
H705 H 0.46861 0.51179 0.18121 0.0
H706 H 0.43751 0.51884 0.17764 0.0
H707 H 0.40365 0.49033 0.16097 0.0
H708 H 0.9175 0.5285 0.72922 0.0
H709 H 0.92177 0.49896 0.71495 0.0
H710 H 0.91023 0.48056 0.83526 0.0
H711 H 0.90542 0.50962 0.84962 0.0
H712 H 0.94878 0.4878 0.7433 0.0
H713 H 0.86899 0.42866 0.78049 0.0
H714 H 0.87672 0.4554 0.77481 0.0
H715 H 0.88192 0.44633 0.81941 0.0
C716 C 0.91584 0.51814 0.75263 0.0
C717 C 0.91089 0.5213 0.79047 0.0
C718 C 0.9183 0.50129 0.74443 0.0
C719 C 0.9159 0.48735 0.77389 0.0
C720 C 0.91158 0.49081 0.81187 0.0
H721 H 0.92835 0.37859 0.78295 0.0
H722 H 0.92751 0.40993 0.79872 0.0
C723 C 0.90894 0.50751 0.82004 0.0
C724 C 0.91798 0.46921 0.76501 0.0
H725 H 0.89265 0.41688 0.77006 0.0
C726 C 0.93648 0.4723 0.74899 0.0
C727 C 0.90186 0.44898 0.77235 0.0
C728 C 0.88119 0.44458 0.78734 0.0
C729 C 0.9394 0.45567 0.74063 0.0
C730 C 0.92341 0.43554 0.74852 0.0
C731 C 0.90493 0.43242 0.7645 0.0
C732 C 0.92521 0.4174 0.73893 0.0
C733 C 0.95956 0.45963 0.72373 0.0
C734 C 0.92416 0.41135 0.70013 0.0
C735 C 0.92445 0.39342 0.69102 0.0
C736 C 0.92587 0.38127 0.72061 0.0
C737 C 0.92731 0.38762 0.75949 0.0
C738 C 0.92681 0.40549 0.76857 0.0
H739 H 0.97149 0.47612 0.72503 0.0
H740 H 0.96522 0.45052 0.73946 0.0
H741 H 0.95727 0.4547 0.69286 0.0
H742 H 0.92272 0.4203 0.67695 0.0
H743 H 0.92339 0.38902 0.66078 0.0
H744 H 0.37883 0.93304 0.21216 0.0
H745 H 0.40936 0.92966 0.20539 0.0
H746 H 0.40592 0.91409 0.32677 0.0
H747 H 0.37535 0.91742 0.33404 0.0
H748 H 0.44753 0.95211 0.25096 0.0
H749 H 0.40892 0.86714 0.26568 0.0
H750 H 0.39515 0.88026 0.25277 0.0
H751 H 0.40309 0.88064 0.30208 0.0
C752 C 0.38445 0.92879 0.23744 0.0
C753 C 0.37457 0.92544 0.27364 0.0
C754 C 0.40194 0.92693 0.23349 0.0
C755 C 0.40973 0.92149 0.26551 0.0
C756 C 0.39996 0.91809 0.30165 0.0
H757 H 0.52933 0.92891 0.28069 0.0
H758 H 0.49884 0.93169 0.29446 0.0
C759 C 0.38253 0.92006 0.30572 0.0
C760 C 0.42832 0.91971 0.2611 0.0
H761 H 0.44504 0.88506 0.25995 0.0
C762 C 0.44705 0.93749 0.25307 0.0
C763 C 0.42751 0.90057 0.26368 0.0
C764 C 0.4076 0.88098 0.27126 0.0
C765 C 0.46509 0.93663 0.24747 0.0
C766 C 0.46428 0.91749 0.25017 0.0
C767 C 0.44555 0.89971 0.25823 0.0
C768 C 0.48254 0.91549 0.24264 0.0
C769 C 0.48477 0.95605 0.23776 0.0
C770 C 0.48324 0.90518 0.20931 0.0
C771 C 0.50058 0.90359 0.20128 0.0
C772 C 0.51751 0.91214 0.22668 0.0
C773 C 0.51659 0.92217 0.26049 0.0
C774 C 0.49924 0.92385 0.26836 0.0
H775 H 0.48209 0.96892 0.23054 0.0
H776 H 0.49528 0.96066 0.2631 0.0
H777 H 0.49258 0.95346 0.21283 0.0
H778 H 0.47045 0.89858 0.18921 0.0
H779 H 0.5007 0.89567 0.17509 0.0
H780 H 0.58992 0.49041 0.658 0.0
H781 H 0.55731 0.46064 0.67655 0.0
H782 H 0.55516 0.49234 0.77919 0.0
H783 H 0.58786 0.5224 0.76087 0.0
H784 H 0.54839 0.43769 0.7479 0.0
H785 H 0.49876 0.47215 0.72418 0.0
H786 H 0.5242 0.48301 0.70367 0.0
H787 H 0.52102 0.4865 0.75427 0.0
C788 C 0.58254 0.49117 0.68448 0.0
C789 C 0.59152 0.50887 0.70788 0.0
C790 C 0.56391 0.47409 0.69504 0.0
C791 C 0.55379 0.47439 0.72901 0.0
C792 C 0.56264 0.49195 0.75257 0.0
H793 H 0.45144 0.36752 0.83803 0.0
H794 H 0.48426 0.39853 0.8251 0.0
C795 C 0.58136 0.50907 0.74211 0.0
C796 C 0.53412 0.4561 0.73982 0.0
H797 H 0.48274 0.43835 0.74892 0.0
C798 C 0.53403 0.43782 0.74832 0.0
C799 C 0.51545 0.45636 0.73992 0.0
C800 C 0.51469 0.47548 0.72976 0.0
C801 C 0.5157 0.4197 0.75692 0.0
C802 C 0.49705 0.41999 0.75727 0.0
C803 C 0.49713 0.43827 0.7488 0.0
C804 C 0.47719 0.40127 0.76524 0.0
C805 C 0.51633 0.40027 0.76463 0.0
C806 C 0.46229 0.39275 0.73597 0.0
C807 C 0.44351 0.37503 0.74318 0.0
C808 C 0.43924 0.36559 0.77997 0.0
C809 C 0.45422 0.37432 0.80933 0.0
C810 C 0.47302 0.392 0.802 0.0
H811 H 0.53117 0.40168 0.75563 0.0
H812 H 0.51427 0.39683 0.79621 0.0
H813 H 0.50369 0.38709 0.74905 0.0
H814 H 0.46525 0.39976 0.70743 0.0
H815 H 0.43233 0.36882 0.71995 0.0
H816 H 0.1644 0.47496 0.28956 0.0
H817 H 0.19961 0.48222 0.28024 0.0
H818 H 0.1776 0.42907 0.20614 0.0
H819 H 0.14243 0.42223 0.21421 0.0
H820 H 0.21228 0.45771 0.30598 0.0
H821 H 0.22814 0.46866 0.14841 0.0
H822 H 0.20665 0.46933 0.17017 0.0
H823 H 0.20482 0.44517 0.15801 0.0
C824 C 0.16718 0.46523 0.27025 0.0
C825 C 0.15074 0.44801 0.25264 0.0
C826 C 0.18728 0.46935 0.26507 0.0
C827 C 0.19128 0.45623 0.24247 0.0
C828 C 0.17497 0.43969 0.22302 0.0
H829 H 0.2821 0.42111 0.27507 0.0
H830 H 0.25377 0.42793 0.28334 0.0
C831 C 0.15485 0.43575 0.22769 0.0
C832 C 0.21194 0.4583 0.2433 0.0
H833 H 0.249 0.45877 0.18564 0.0
C834 C 0.22048 0.4583 0.27964 0.0
C835 C 0.22277 0.45932 0.20905 0.0
C836 C 0.21521 0.46085 0.16926 0.0
C837 C 0.23917 0.45849 0.28262 0.0
C838 C 0.24928 0.45808 0.24832 0.0
C839 C 0.24115 0.4589 0.21201 0.0
C840 C 0.26777 0.45583 0.24902 0.0
C841 C 0.24782 0.45913 0.32249 0.0
C842 C 0.28517 0.46936 0.22747 0.0
C843 C 0.30116 0.46527 0.22217 0.0
C844 C 0.30012 0.44766 0.23861 0.0
C845 C 0.28341 0.43492 0.26252 0.0
C846 C 0.26722 0.43885 0.2673 0.0
H847 H 0.24255 0.46657 0.34388 0.0
H848 H 0.24234 0.44322 0.3326 0.0
H849 H 0.26486 0.46754 0.32218 0.0
H850 H 0.28595 0.48257 0.21321 0.0
H851 H 0.31392 0.47537 0.20369 0.0
H852 H 0.87076 0.26744 0.77285 0.0
H853 H 0.83569 0.23869 0.77878 0.0
H854 H 0.81437 0.26909 0.70096 0.0
H855 H 0.8496 0.29738 0.69337 0.0
H856 H 0.79993 0.23281 0.80175 0.0
H857 H 0.79566 0.21663 0.64363 0.0
H858 H 0.81906 0.23529 0.66697 0.0
H859 H 0.79964 0.24166 0.65456 0.0
C860 C 0.85853 0.26813 0.75753 0.0
C861 C 0.86288 0.28445 0.73225 0.0
C862 C 0.83851 0.25168 0.76082 0.0
C863 C 0.82251 0.25145 0.73932 0.0
C864 C 0.82658 0.26859 0.71665 0.0
H865 H 0.69899 0.14985 0.7886 0.0
H866 H 0.72708 0.18475 0.77644 0.0
C867 C 0.84666 0.28482 0.71267 0.0
C868 C 0.80188 0.23284 0.73938 0.0
H869 H 0.76595 0.19575 0.68048 0.0
C870 C 0.79244 0.22474 0.77524 0.0
C871 C 0.79229 0.22219 0.70471 0.0
C872 C 0.80225 0.22925 0.66533 0.0
C873 C 0.77395 0.20604 0.7776 0.0
C874 C 0.76415 0.19558 0.74289 0.0
C875 C 0.77335 0.20393 0.70696 0.0
C876 C 0.74535 0.17512 0.74354 0.0
C877 C 0.76576 0.19724 0.81737 0.0
C878 C 0.74546 0.15829 0.72605 0.0
C879 C 0.72909 0.13841 0.73178 0.0
C880 C 0.71257 0.13512 0.75558 0.0
C881 C 0.71173 0.15205 0.77051 0.0
C882 C 0.72784 0.17194 0.76394 0.0
H883 H 0.77779 0.20433 0.84012 0.0
H884 H 0.75322 0.20029 0.82515 0.0
H885 H 0.75956 0.1804 0.81789 0.0
H886 H 0.75874 0.16041 0.70984 0.0
H887 H 0.7301 0.12557 0.72009 0.0
H888 H 0.56313 0.70727 0.30954 0.0
H889 H 0.55185 0.73216 0.30063 0.0
H890 H 0.5786 0.74617 0.18597 0.0
H891 H 0.59037 0.72136 0.19488 0.0
H892 H 0.59228 0.77997 0.23251 0.0
H893 H 0.50743 0.73477 0.23813 0.0
H894 H 0.51924 0.72918 0.27798 0.0
H895 H 0.52308 0.72319 0.22917 0.0
C896 C 0.56636 0.71536 0.28208 0.0
C897 C 0.57788 0.71249 0.25305 0.0
C898 C 0.55966 0.72944 0.27691 0.0
C899 C 0.56418 0.74085 0.24251 0.0
C900 C 0.57485 0.73738 0.21266 0.0
H901 H 0.53443 0.8348 0.18614 0.0
H902 H 0.53377 0.80217 0.19221 0.0
C903 C 0.58155 0.7232 0.21778 0.0
C904 C 0.56015 0.75815 0.24011 0.0
H905 H 0.52277 0.77097 0.25049 0.0
C906 C 0.57705 0.77798 0.23601 0.0
C907 C 0.54026 0.75549 0.24466 0.0
C908 C 0.52144 0.73448 0.24735 0.0
C909 C 0.5747 0.79529 0.23729 0.0
C910 C 0.55496 0.7927 0.24362 0.0
C911 C 0.53793 0.77287 0.24656 0.0
C912 C 0.5518 0.81056 0.2449 0.0
C913 C 0.59337 0.81622 0.2315 0.0
C914 C 0.56118 0.82559 0.27382 0.0
C915 C 0.56166 0.84434 0.27046 0.0
C916 C 0.55275 0.84827 0.23805 0.0
C917 C 0.54171 0.83238 0.21118 0.0
C918 C 0.54124 0.81368 0.2146 0.0
H919 H 0.60637 0.81522 0.21855 0.0
H920 H 0.58975 0.82588 0.21238 0.0
H921 H 0.59843 0.82401 0.26005 0.0
H922 H 0.56913 0.82325 0.2978 0.0
H923 H 0.57018 0.85619 0.29177 0.0
H924 H 0.82786 0.53066 0.82046 0.0
H925 H 0.79345 0.52395 0.80586 0.0
H926 H 0.81489 0.55643 0.69719 0.0
H927 H 0.84977 0.56378 0.71208 0.0
H928 H 0.79548 0.57114 0.74103 0.0
H929 H 0.74767 0.48659 0.73408 0.0
H930 H 0.76268 0.49498 0.7777 0.0
H931 H 0.77533 0.49973 0.7313 0.0
C932 C 0.82527 0.53607 0.79302 0.0
C933 C 0.84167 0.54799 0.76762 0.0
C934 C 0.80547 0.53202 0.78458 0.0
C935 C 0.80155 0.53953 0.75032 0.0
C936 C 0.81761 0.55043 0.72377 0.0
H937 H 0.68504 0.52216 0.67303 0.0
H938 H 0.71517 0.51898 0.68553 0.0
C939 C 0.83751 0.55457 0.73226 0.0
C940 C 0.78142 0.53826 0.74486 0.0
H941 H 0.7297 0.50511 0.74472 0.0
C942 C 0.7811 0.55668 0.74144 0.0
C943 C 0.7627 0.51939 0.74537 0.0
C944 C 0.76209 0.49905 0.74692 0.0
C945 C 0.76257 0.55681 0.73911 0.0
C946 C 0.74382 0.538 0.74132 0.0
C947 C 0.74411 0.51952 0.74394 0.0
C948 C 0.72385 0.53725 0.73795 0.0
C949 C 0.76328 0.57706 0.73355 0.0
C950 C 0.71815 0.54773 0.76444 0.0
C951 C 0.70092 0.54973 0.75726 0.0
C952 C 0.68912 0.54118 0.72356 0.0
C953 C 0.69395 0.52922 0.69898 0.0
C954 C 0.71115 0.52731 0.7061 0.0
H955 H 0.77856 0.58922 0.72313 0.0
H956 H 0.75147 0.57558 0.71239 0.0
H957 H 0.76017 0.58214 0.76174 0.0
H958 H 0.72753 0.5551 0.78974 0.0
H959 H 0.69754 0.5589 0.77693 0.0
H960 H 0.27365 0.868 0.33464 0.0
H961 H 0.24484 0.83299 0.33326 0.0
H962 H 0.24519 0.83423 0.20804 0.0
H963 H 0.27413 0.86954 0.20887 0.0
H964 H 0.20589 0.82287 0.29185 0.0
H965 H 0.24271 0.77837 0.24306 0.0
H966 H 0.25686 0.80296 0.26704 0.0
H967 H 0.24938 0.80171 0.21719 0.0
C968 C 0.26781 0.86085 0.30667 0.0
C969 C 0.27617 0.87167 0.27179 0.0
C970 C 0.25135 0.84081 0.30604 0.0
C971 C 0.24308 0.83108 0.27061 0.0
C972 C 0.25161 0.84151 0.23567 0.0
H973 H 0.1411 0.72245 0.18616 0.0
H974 H 0.17431 0.75216 0.20009 0.0
C975 C 0.26805 0.86169 0.23622 0.0
C976 C 0.22445 0.81065 0.27039 0.0
H977 H 0.2064 0.76053 0.24664 0.0
C978 C 0.20594 0.80915 0.28233 0.0
C979 C 0.22477 0.79295 0.25798 0.0
C980 C 0.24448 0.79389 0.24578 0.0
C981 C 0.18743 0.79046 0.28063 0.0
C982 C 0.18762 0.77268 0.26773 0.0
C983 C 0.20632 0.77413 0.2568 0.0
C984 C 0.16836 0.75304 0.26136 0.0
C985 C 0.16775 0.79018 0.29077 0.0
C986 C 0.1542 0.74315 0.29155 0.0
C987 C 0.1349 0.72618 0.28359 0.0
C988 C 0.12964 0.71871 0.2454 0.0
C989 C 0.14447 0.72786 0.21587 0.0
C990 C 0.16358 0.74485 0.22378 0.0
H991 H 0.16984 0.80588 0.29161 0.0
H992 H 0.15549 0.78092 0.26946 0.0
H993 H 0.1625 0.78321 0.31993 0.0
H994 H 0.15782 0.74892 0.321 0.0
H995 H 0.12394 0.71934 0.30708 0.0
H996 H 0.40554 0.26719 0.83603 0.0
H997 H 0.41314 0.23954 0.82837 0.0
H998 H 0.39829 0.23543 0.70648 0.0
H999 H 0.39022 0.26305 0.71389 0.0
H1000 H 0.37939 0.19783 0.74437 0.0
H1001 H 0.4627 0.24086 0.77755 0.0
H1002 H 0.44705 0.24334 0.81413 0.0
H1003 H 0.44824 0.25345 0.76624 0.0
C1004 C 0.40401 0.26059 0.80742 0.0
C1005 C 0.39725 0.26739 0.77551 0.0
C1006 C 0.40851 0.24484 0.80311 0.0
C1007 C 0.40658 0.23568 0.76679 0.0
C1008 C 0.39999 0.24244 0.73475 0.0
H1009 H 0.44651 0.15353 0.68913 0.0
H1010 H 0.4431 0.183 0.70691 0.0
C1011 C 0.39541 0.25823 0.73902 0.0
C1012 C 0.41042 0.21831 0.76287 0.0
H1013 H 0.44695 0.20448 0.7749 0.0
C1014 C 0.39416 0.19926 0.75094 0.0
C1015 C 0.42974 0.22031 0.7714 0.0
C1016 C 0.448 0.24063 0.7827 0.0
C1017 C 0.39669 0.18209 0.7473 0.0
C1018 C 0.41588 0.18397 0.75664 0.0
C1019 C 0.43216 0.20304 0.76846 0.0
C1020 C 0.41984 0.16679 0.75064 0.0
C1021 C 0.37897 0.16226 0.73239 0.0
C1022 C 0.40854 0.14815 0.77067 0.0
C1023 C 0.41039 0.13114 0.76047 0.0
C1024 C 0.42359 0.13261 0.73013 0.0
C1025 C 0.43598 0.15177 0.71227 0.0
C1026 C 0.43411 0.16868 0.72245 0.0
H1027 H 0.36686 0.1646 0.71893 0.0
H1028 H 0.38431 0.15509 0.71057 0.0
H1029 H 0.37195 0.15137 0.75695 0.0
H1030 H 0.39774 0.14656 0.79312 0.0
H1031 H 0.40073 0.11664 0.77494 0.0
loop_
_geom_bond_atom_site_label_1
_geom_bond_atom_site_label_2
_geom_bond_distance
_geom_bond_site_symmetry_2
_ccdc_geom_bond_type
Mg0 O1 2.028 . S
Mg0 O7 1.986 . S
Mg0 O9 2.114 . S
Mg0 O10 2.251 . S
Mg0 O13 2.010 . S
O1 Mg0 2.028 . S
O1 C4 1.250 . S
O2 Mg3 2.028 . S
O2 C4 1.248 . S
Mg3 O2 2.028 . S
Mg3 O8 2.032 . S
Mg3 O10 2.079 . S
C4 O1 1.250 . S
C4 O2 1.248 . S
C5 O6 1.264 . S
C5 O13 1.249 . S
O6 C5 1.264 . S
O7 Mg0 1.986 . S
O7 C11 1.246 . S
O8 Mg3 2.032 . S
O8 C11 1.259 . S
O9 Mg0 2.114 . S
O9 C12 1.252 . S
O10 Mg0 2.251 . S
O10 Mg3 2.079 . S
O10 C12 1.273 . S
C11 O7 1.246 . S
C11 O8 1.259 . S
C12 O9 1.252 . S
C12 O10 1.273 . S
O13 Mg0 2.010 . S
O13 C5 1.249 . S
Mg14 O15 2.028 . S
Mg14 O21 1.986 . S
Mg14 O23 2.114 . S
Mg14 O24 2.251 . S
Mg14 O27 2.010 . S
O15 Mg14 2.028 . S
O15 C18 1.250 . S
O16 Mg17 2.028 . S
O16 C18 1.248 . S
Mg17 O16 2.028 . S
Mg17 O22 2.032 . S
Mg17 O24 2.079 . S
C18 O15 1.250 . S
C18 O16 1.248 . S
C19 O20 1.264 . S
C19 O27 1.249 . S
O20 C19 1.264 . S
O21 Mg14 1.986 . S
O21 C25 1.246 . S
O22 Mg17 2.032 . S
O22 C25 1.259 . S
O23 Mg14 2.114 . S
O23 C26 1.252 . S
O24 Mg14 2.251 . S
O24 Mg17 2.079 . S
O24 C26 1.273 . S
C25 O21 1.246 . S
C25 O22 1.259 . S
C26 O23 1.252 . S
C26 O24 1.273 . S
O27 Mg14 2.010 . S
O27 C19 1.249 . S
Mg28 O29 2.028 . S
Mg28 O35 1.986 . S
Mg28 O37 2.114 . S
Mg28 O38 2.251 . S
Mg28 O41 2.010 . S
O29 Mg28 2.028 . S
O29 C32 1.250 . S
O30 Mg31 2.028 . S
O30 C32 1.248 . S
Mg31 O30 2.028 . S
Mg31 O36 2.032 . S
Mg31 O38 2.079 . S
C32 O29 1.250 . S
C32 O30 1.248 . S
C33 O34 1.264 . S
C33 O41 1.249 . S
O34 C33 1.264 . S
O35 Mg28 1.986 . S
O35 C39 1.246 . S
O36 Mg31 2.032 . S
O36 C39 1.259 . S
O37 Mg28 2.114 . S
O37 C40 1.252 . S
O38 Mg28 2.251 . S
O38 Mg31 2.079 . S
O38 C40 1.273 . S
C39 O35 1.246 . S
C39 O36 1.259 . S
C40 O37 1.252 . S
C40 O38 1.273 . S
O41 Mg28 2.010 . S
O41 C33 1.249 . S
Mg42 O43 2.028 . S
Mg42 O49 1.986 . S
Mg42 O51 2.114 . S
Mg42 O52 2.251 . S
Mg42 O55 2.010 . S
O43 Mg42 2.028 . S
O43 C46 1.250 . S
O44 Mg45 2.028 . S
O44 C46 1.248 . S
Mg45 O44 2.028 . S
Mg45 O50 2.032 . S
Mg45 O52 2.079 . S
C46 O43 1.250 . S
C46 O44 1.248 . S
C47 O48 1.264 . S
C47 O55 1.249 . S
O48 C47 1.264 . S
O49 Mg42 1.986 . S
O49 C53 1.246 . S
O50 Mg45 2.032 . S
O50 C53 1.259 . S
O51 Mg42 2.114 . S
O51 C54 1.252 . S
O52 Mg42 2.251 . S
O52 Mg45 2.079 . S
O52 C54 1.273 . S
C53 O49 1.246 . S
C53 O50 1.259 . S
C54 O51 1.252 . S
C54 O52 1.273 . S
O55 Mg42 2.010 . S
O55 C47 1.249 . S
Mg56 O57 2.028 . S
Mg56 O63 1.986 . S
Mg56 O65 2.114 . S
Mg56 O66 2.251 . S
Mg56 O69 2.010 . S
O57 Mg56 2.028 . S
O57 C60 1.250 . S
O58 Mg59 2.028 . S
O58 C60 1.248 . S
Mg59 O58 2.028 . S
Mg59 O64 2.032 . S
Mg59 O66 2.079 . S
C60 O57 1.250 . S
C60 O58 1.248 . S
C61 O62 1.264 . S
C61 O69 1.249 . S
O62 C61 1.264 . S
O63 Mg56 1.986 . S
O63 C67 1.246 . S
O64 Mg59 2.032 . S
O64 C67 1.259 . S
O65 Mg56 2.114 . S
O65 C68 1.252 . S
O66 Mg56 2.251 . S
O66 Mg59 2.079 . S
O66 C68 1.273 . S
C67 O63 1.246 . S
C67 O64 1.259 . S
C68 O65 1.252 . S
C68 O66 1.273 . S
O69 Mg56 2.010 . S
O69 C61 1.249 . S
Mg70 O71 2.028 . S
Mg70 O77 1.986 . S
Mg70 O79 2.114 . S
Mg70 O80 2.251 . S
Mg70 O83 2.010 . S
O71 Mg70 2.028 . S
O71 C74 1.250 . S
O72 Mg73 2.028 . S
O72 C74 1.248 . S
Mg73 O72 2.028 . S
Mg73 O78 2.032 . S
Mg73 O80 2.079 . S
C74 O71 1.250 . S
C74 O72 1.248 . S
C75 O76 1.264 . S
C75 O83 1.249 . S
O76 C75 1.264 . S
O77 Mg70 1.986 . S
O77 C81 1.246 . S
O78 Mg73 2.032 . S
O78 C81 1.259 . S
O79 Mg70 2.114 . S
O79 C82 1.252 . S
O80 Mg70 2.251 . S
O80 Mg73 2.079 . S
O80 C82 1.273 . S
C81 O77 1.246 . S
C81 O78 1.259 . S
C82 O79 1.252 . S
C82 O80 1.273 . S
O83 Mg70 2.010 . S
O83 C75 1.249 . S
Mg84 O85 2.028 . S
Mg84 O91 1.986 . S
Mg84 O93 2.114 . S
Mg84 O94 2.251 . S
Mg84 O97 2.010 . S
O85 Mg84 2.028 . S
O85 C88 1.250 . S
O86 Mg87 2.028 . S
O86 C88 1.248 . S
Mg87 O86 2.028 . S
Mg87 O92 2.032 . S
Mg87 O94 2.079 . S
C88 O85 1.250 . S
C88 O86 1.248 . S
C89 O90 1.264 . S
C89 O97 1.249 . S
O90 C89 1.264 . S
O91 Mg84 1.986 . S
O91 C95 1.246 . S
O92 Mg87 2.032 . S
O92 C95 1.259 . S
O93 Mg84 2.114 . S
O93 C96 1.252 . S
O94 Mg84 2.251 . S
O94 Mg87 2.079 . S
O94 C96 1.273 . S
C95 O91 1.246 . S
C95 O92 1.259 . S
C96 O93 1.252 . S
C96 O94 1.273 . S
O97 Mg84 2.010 . S
O97 C89 1.249 . S
Mg98 O99 2.028 . S
Mg98 O105 1.986 . S
Mg98 O107 2.114 . S
Mg98 O108 2.251 . S
Mg98 O111 2.010 . S
O99 Mg98 2.028 . S
O99 C102 1.250 . S
O100 Mg101 2.028 . S
O100 C102 1.248 . S
Mg101 O100 2.028 . S
Mg101 O106 2.032 . S
Mg101 O108 2.079 . S
C102 O99 1.250 . S
C102 O100 1.248 . S
C103 O104 1.264 . S
C103 O111 1.249 . S
O104 C103 1.264 . S
O105 Mg98 1.986 . S
O105 C109 1.246 . S
O106 Mg101 2.032 . S
O106 C109 1.259 . S
O107 Mg98 2.114 . S
O107 C110 1.252 . S
O108 Mg98 2.251 . S
O108 Mg101 2.079 . S
O108 C110 1.273 . S
C109 O105 1.246 . S
C109 O106 1.259 . S
C110 O107 1.252 . S
C110 O108 1.273 . S
O111 Mg98 2.010 . S
O111 C103 1.249 . S
Mg112 O113 2.028 . S
Mg112 O119 1.986 . S
Mg112 O121 2.114 . S
Mg112 O122 2.251 . S
Mg112 O125 2.010 . S
O113 Mg112 2.028 . S
O113 C116 1.250 . S
O114 Mg115 2.028 . S
O114 C116 1.248 . S
Mg115 O114 2.028 . S
Mg115 O120 2.032 . S
Mg115 O122 2.079 . S
C116 O113 1.250 . S
C116 O114 1.248 . S
C117 O118 1.264 . S
C117 O125 1.249 . S
O118 C117 1.264 . S
O119 Mg112 1.986 . S
O119 C123 1.246 . S
O120 Mg115 2.032 . S
O120 C123 1.259 . S
O121 Mg112 2.114 . S
O121 C124 1.252 . S
O122 Mg112 2.251 . S
O122 Mg115 2.079 . S
O122 C124 1.273 . S
C123 O119 1.246 . S
C123 O120 1.259 . S
C124 O121 1.252 . S
C124 O122 1.273 . S
O125 Mg112 2.010 . S
O125 C117 1.249 . S
Mg126 O127 2.028 . S
Mg126 O133 1.986 . S
Mg126 O135 2.114 . S
Mg126 O136 2.251 . S
Mg126 O139 2.010 . S
O127 Mg126 2.028 . S
O127 C130 1.250 . S
O128 Mg129 2.028 . S
O128 C130 1.248 . S
Mg129 O128 2.028 . S
Mg129 O134 2.032 . S
Mg129 O136 2.079 . S
C130 O127 1.250 . S
C130 O128 1.248 . S
C131 O132 1.264 . S
C131 O139 1.249 . S
O132 C131 1.264 . S
O133 Mg126 1.986 . S
O133 C137 1.246 . S
O134 Mg129 2.032 . S
O134 C137 1.259 . S
O135 Mg126 2.114 . S
O135 C138 1.252 . S
O136 Mg126 2.251 . S
O136 Mg129 2.079 . S
O136 C138 1.273 . S
C137 O133 1.246 . S
C137 O134 1.259 . S
C138 O135 1.252 . S
C138 O136 1.273 . S
O139 Mg126 2.010 . S
O139 C131 1.249 . S
Mg140 O141 2.028 . S
Mg140 O147 1.986 . S
Mg140 O149 2.114 . S
Mg140 O150 2.251 . S
Mg140 O153 2.010 . S
O141 Mg140 2.028 . S
O141 C144 1.250 . S
O142 Mg143 2.028 . S
O142 C144 1.248 . S
Mg143 O142 2.028 . S
Mg143 O148 2.032 . S
Mg143 O150 2.079 . S
C144 O141 1.250 . S
C144 O142 1.248 . S
C145 O146 1.264 . S
C145 O153 1.249 . S
O146 C145 1.264 . S
O147 Mg140 1.986 . S
O147 C151 1.246 . S
O148 Mg143 2.032 . S
O148 C151 1.259 . S
O149 Mg140 2.114 . S
O149 C152 1.252 . S
O150 Mg140 2.251 . S
O150 Mg143 2.079 . S
O150 C152 1.273 . S
C151 O147 1.246 . S
C151 O148 1.259 . S
C152 O149 1.252 . S
C152 O150 1.273 . S
O153 Mg140 2.010 . S
O153 C145 1.249 . S
Mg154 O155 2.028 . S
Mg154 O161 1.986 . S
Mg154 O163 2.114 . S
Mg154 O164 2.251 . S
Mg154 O167 2.010 . S
O155 Mg154 2.028 . S
O155 C158 1.250 . S
O156 Mg157 2.028 . S
O156 C158 1.248 . S
Mg157 O156 2.028 . S
Mg157 O162 2.032 . S
Mg157 O164 2.079 . S
C158 O155 1.250 . S
C158 O156 1.248 . S
C159 O160 1.264 . S
C159 O167 1.249 . S
O160 C159 1.264 . S
O161 Mg154 1.986 . S
O161 C165 1.246 . S
O162 Mg157 2.032 . S
O162 C165 1.259 . S
O163 Mg154 2.114 . S
O163 C166 1.252 . S
O164 Mg154 2.251 . S
O164 Mg157 2.079 . S
O164 C166 1.273 . S
C165 O161 1.246 . S
C165 O162 1.259 . S
C166 O163 1.252 . S
C166 O164 1.273 . S
O167 Mg154 2.010 . S
O167 C159 1.249 . S
H168 C176 0.929 . S
H169 C178 0.930 1_655 S
H170 C180 0.930 . S
H171 C183 0.929 . S
H172 C186 0.930 . S
H173 C188 0.960 . S
H174 C188 0.960 . S
H175 C188 0.960 . S
C176 H168 0.929 . S
C176 C177 1.377 . S
C176 C178 1.384 . S
C177 C176 1.377 . S
C177 C183 1.390 . S
C178 H169 0.930 1_455 S
C178 C176 1.384 . S
C178 C179 1.372 . S
C179 C178 1.372 . S
C179 C180 1.400 . S
C179 C184 1.490 . S
C180 H170 0.930 . S
C180 C179 1.400 . S
C180 C183 1.386 . S
H181 C197 0.930 . S
H182 C198 0.931 1_455 S
C183 H171 0.929 . S
C183 C177 1.390 . S
C183 C180 1.386 . S
C184 C179 1.490 . S
C184 C186 1.395 . S
C184 C187 1.403 . S
H185 C191 0.930 . S
C186 H172 0.930 . S
C186 C184 1.395 . S
C186 C189 1.403 1_454 S
C187 C184 1.403 . S
C187 C188 1.524 . S
C187 C191 1.400 1_454 S
C188 H173 0.960 . S
C188 H174 0.960 . S
C188 H175 0.960 . S
C188 C187 1.524 . S
C189 C186 1.403 1_656 S
C189 C190 1.392 . S
C189 C193 1.495 . S
C190 C189 1.392 . S
C190 C191 1.385 . S
C190 C192 1.478 . S
C191 H185 0.930 . S
C191 C187 1.400 1_656 S
C191 C190 1.385 . S
C192 C190 1.478 . S
C192 C194 1.381 . S
C192 C198 1.383 . S
C193 C189 1.495 . S
C193 H199 0.959 . S
C193 H200 0.961 . S
C193 H201 0.960 . S
C194 C192 1.381 . S
C194 C195 1.394 . S
C194 H202 0.930 . S
C195 C194 1.394 . S
C195 C196 1.383 . S
C195 H203 0.929 . S
C196 C195 1.383 . S
C196 C197 1.377 . S
C197 H181 0.930 . S
C197 C196 1.377 . S
C197 C198 1.379 . S
C198 H182 0.931 1_655 S
C198 C192 1.383 . S
C198 C197 1.379 . S
H199 C193 0.959 . S
H200 C193 0.961 . S
H201 C193 0.960 . S
H202 C194 0.930 . S
H203 C195 0.929 . S
H204 C212 0.929 . S
H205 C214 0.930 . S
H206 C216 0.930 . S
H207 C219 0.929 . S
H208 C222 0.930 . S
H209 C224 0.960 . S
H210 C224 0.960 . S
H211 C224 0.960 . S
C212 H204 0.929 . S
C212 C213 1.377 . S
C212 C214 1.384 . S
C213 C212 1.377 . S
C213 C219 1.390 . S
C214 H205 0.930 . S
C214 C212 1.384 . S
C214 C215 1.372 . S
C215 C214 1.372 . S
C215 C216 1.400 . S
C215 C220 1.490 . S
C216 H206 0.930 . S
C216 C215 1.400 . S
C216 C219 1.386 . S
H217 C233 0.930 . S
H218 C234 0.931 . S
C219 H207 0.929 . S
C219 C213 1.390 . S
C219 C216 1.386 . S
C220 C215 1.490 . S
C220 C222 1.395 . S
C220 C223 1.403 1_565 S
H221 C227 0.930 . S
C222 H208 0.930 . S
C222 C220 1.395 . S
C222 C225 1.403 . S
C223 C220 1.403 1_545 S
C223 C224 1.524 . S
C223 C227 1.400 . S
C224 H209 0.960 . S
C224 H210 0.960 . S
C224 H211 0.960 . S
C224 C223 1.524 . S
C225 C222 1.403 . S
C225 C226 1.392 1_565 S
C225 C229 1.495 . S
C226 C225 1.392 1_545 S
C226 C227 1.385 . S
C226 C228 1.478 . S
C227 H221 0.930 . S
C227 C223 1.400 . S
C227 C226 1.385 . S
C228 C226 1.478 . S
C228 C230 1.381 . S
C228 C234 1.383 . S
C229 C225 1.495 . S
C229 H235 0.959 . S
C229 H236 0.961 . S
C229 H237 0.960 . S
C230 C228 1.381 . S
C230 C231 1.394 . S
C230 H238 0.935 . S
C231 C230 1.394 . S
C231 C232 1.383 . S
C231 H239 0.929 . S
C232 C231 1.383 . S
C232 C233 1.377 . S
C233 H217 0.930 . S
C233 C232 1.377 . S
C233 C234 1.379 . S
C234 H218 0.931 . S
C234 C228 1.383 . S
C234 C233 1.379 . S
H235 C229 0.959 . S
H236 C229 0.961 . S
H237 C229 0.960 . S
H238 C230 0.935 . S
H239 C231 0.929 . S
H240 C248 0.929 . S
H241 C250 0.930 . S
H242 C252 0.930 . S
H243 C255 0.929 . S
H244 C258 0.930 1_554 S
H245 C260 0.960 . S
H246 C260 0.960 . S
H247 C260 0.960 . S
C248 H240 0.929 . S
C248 C249 1.377 . S
C248 C250 1.384 . S
C249 C248 1.377 . S
C249 C255 1.390 . S
C250 H241 0.930 . S
C250 C248 1.384 . S
C250 C251 1.372 . S
C251 C250 1.372 . S
C251 C252 1.400 . S
C251 C256 1.490 . S
C252 H242 0.930 . S
C252 C251 1.400 . S
C252 C255 1.386 . S
H253 C269 0.930 . S
H254 C270 0.931 . S
C255 H243 0.929 . S
C255 C249 1.390 . S
C255 C252 1.386 . S
C256 C251 1.490 . S
C256 C258 1.394 1_554 S
C256 C259 1.403 . S
H257 C263 0.930 . S
C258 H244 0.930 1_556 S
C258 C256 1.394 1_556 S
C258 C261 1.404 . S
C259 C256 1.403 . S
C259 C260 1.524 . S
C259 C263 1.400 1_554 S
C260 H245 0.960 . S
C260 H246 0.960 . S
C260 H247 0.960 . S
C260 C259 1.524 . S
C261 C258 1.404 . S
C261 C262 1.392 . S
C261 C265 1.495 . S
C262 C261 1.392 . S
C262 C263 1.385 . S
C262 C264 1.478 . S
C263 H257 0.930 . S
C263 C259 1.400 1_556 S
C263 C262 1.385 . S
C264 C262 1.478 . S
C264 C266 1.381 . S
C264 C270 1.383 . S
C265 C261 1.495 . S
C265 H271 0.959 . S
C265 H272 0.961 . S
C265 H273 0.960 . S
C266 C264 1.381 . S
C266 C267 1.394 . S
C266 H274 0.930 . S
C267 C266 1.394 . S
C267 C268 1.383 . S
C267 H275 0.929 . S
C268 C267 1.383 . S
C268 C269 1.377 . S
C269 H253 0.930 . S
C269 C268 1.377 . S
C269 C270 1.379 . S
C270 H254 0.931 . S
C270 C264 1.383 . S
C270 C269 1.379 . S
H271 C265 0.959 . S
H272 C265 0.961 . S
H273 C265 0.960 . S
H274 C266 0.930 . S
H275 C267 0.929 . S
H276 C284 0.929 . S
H277 C286 0.912 1_655 S
H278 C288 0.930 . S
H279 C291 0.929 . S
H280 C294 0.930 . S
H281 C296 0.960 . S
H282 C296 0.960 . S
H283 C296 0.960 . S
C284 H276 0.929 . S
C284 C285 1.377 . S
C284 C286 1.384 . S
C285 C284 1.377 . S
C285 C291 1.390 . S
C286 H277 0.912 1_455 S
C286 C284 1.384 . S
C286 C287 1.372 . S
C287 C286 1.372 . S
C287 C288 1.400 . S
C287 C292 1.490 . S
C288 H278 0.930 . S
C288 C287 1.400 . S
C288 C291 1.386 . S
H289 C305 0.930 . S
H290 C306 0.931 . S
C291 H279 0.929 . S
C291 C285 1.390 . S
C291 C288 1.386 . S
C292 C287 1.490 . S
C292 C294 1.395 1_455 S
C292 C295 1.403 . S
H293 C299 0.930 . S
C294 H280 0.930 . S
C294 C292 1.395 1_655 S
C294 C297 1.403 . S
C295 C292 1.403 . S
C295 C296 1.524 . S
C295 C299 1.400 . S
C296 H281 0.960 . S
C296 H282 0.960 . S
C296 H283 0.960 . S
C296 C295 1.524 . S
C297 C294 1.403 . S
C297 C298 1.392 . S
C297 C301 1.495 . S
C298 C297 1.392 . S
C298 C299 1.385 1_655 S
C298 C300 1.478 . S
C299 H293 0.930 . S
C299 C295 1.400 . S
C299 C298 1.385 1_455 S
C300 C298 1.478 . S
C300 C302 1.381 . S
C300 C306 1.383 . S
C301 C297 1.495 . S
C301 H307 0.959 . S
C301 H308 0.961 . S
C301 H309 0.960 . S
C302 C300 1.381 . S
C302 C303 1.394 . S
C302 H310 0.930 . S
C303 C302 1.394 . S
C303 C304 1.383 . S
C303 H311 0.929 . S
C304 C303 1.383 . S
C304 C305 1.377 . S
C305 H289 0.930 . S
C305 C304 1.377 . S
C305 C306 1.379 . S
C306 H290 0.931 . S
C306 C300 1.383 . S
C306 C305 1.379 . S
H307 C301 0.959 . S
H308 C301 0.961 . S
H309 C301 0.960 . S
H310 C302 0.930 . S
H311 C303 0.929 . S
H312 C320 0.929 . S
H313 C322 0.930 . S
H314 C324 0.930 . S
H315 C327 0.929 . S
H316 C330 0.930 1_556 S
H317 C332 0.960 . S
H318 C332 0.960 . S
H319 C332 0.960 . S
C320 H312 0.929 . S
C320 C321 1.377 . S
C320 C322 1.384 . S
C321 C320 1.377 . S
C321 C327 1.390 . S
C322 H313 0.930 . S
C322 C320 1.384 . S
C322 C323 1.372 . S
C323 C322 1.372 . S
C323 C324 1.400 . S
C323 C328 1.490 . S
C324 H314 0.930 . S
C324 C323 1.400 . S
C324 C327 1.386 . S
H325 C341 0.930 . S
H326 C342 0.931 . S
C327 H315 0.929 . S
C327 C321 1.390 . S
C327 C324 1.386 . S
C328 C323 1.490 . S
C328 C330 1.393 1_556 S
C328 C331 1.403 1_545 S
H329 C335 0.930 . S
C330 H316 0.930 1_554 S
C330 C328 1.393 1_554 S
C330 C333 1.406 . S
C331 C328 1.403 1_565 S
C331 C332 1.524 . S
C331 C335 1.400 1_556 S
C332 H317 0.960 . S
C332 H318 0.960 . S
C332 H319 0.960 . S
C332 C331 1.524 . S
C333 C330 1.406 . S
C333 C334 1.392 1_545 S
C333 C337 1.495 . S
C334 C333 1.392 1_565 S
C334 C335 1.385 . S
C334 C336 1.478 . S
C335 H329 0.930 . S
C335 C331 1.400 1_554 S
C335 C334 1.385 . S
C336 C334 1.478 . S
C336 C338 1.381 . S
C336 C342 1.383 . S
C337 C333 1.495 . S
C337 H343 0.959 . S
C337 H344 0.961 . S
C337 H345 0.960 . S
C338 C336 1.381 . S
C338 C339 1.394 . S
C338 H346 0.930 . S
C339 C338 1.394 . S
C339 C340 1.383 . S
C339 H347 0.929 . S
C340 C339 1.383 . S
C340 C341 1.377 . S
C341 H325 0.930 . S
C341 C340 1.377 . S
C341 C342 1.379 . S
C342 H326 0.931 . S
C342 C336 1.383 . S
C342 C341 1.379 . S
H343 C337 0.959 . S
H344 C337 0.961 . S
H345 C337 0.960 . S
H346 C338 0.930 . S
H347 C339 0.929 . S
H348 C356 0.929 . S
H349 C358 0.930 . S
H350 C360 0.930 . S
H351 C363 0.929 . S
H352 C366 0.930 . S
H353 C368 0.960 . S
H354 C368 0.960 . S
H355 C368 0.960 . S
C356 H348 0.929 . S
C356 C357 1.377 . S
C356 C358 1.384 . S
C357 C356 1.377 . S
C357 C363 1.390 . S
C358 H349 0.930 . S
C358 C356 1.384 . S
C358 C359 1.372 . S
C359 C358 1.372 . S
C359 C360 1.400 . S
C359 C364 1.490 . S
C360 H350 0.930 . S
C360 C359 1.400 . S
C360 C363 1.386 . S
H361 C377 0.930 . S
H362 C378 0.931 . S
C363 H351 0.929 . S
C363 C357 1.390 . S
C363 C360 1.386 . S
C364 C359 1.490 . S
C364 C366 1.395 . S
C364 C367 1.403 . S
H365 C371 0.930 . S
C366 H352 0.930 . S
C366 C364 1.395 . S
C366 C369 1.403 . S
C367 C364 1.403 . S
C367 C368 1.524 . S
C367 C371 1.400 . S
C368 H353 0.960 . S
C368 H354 0.960 . S
C368 H355 0.960 . S
C368 C367 1.524 . S
C369 C366 1.403 . S
C369 C370 1.392 . S
C369 C373 1.495 . S
C370 C369 1.392 . S
C370 C371 1.385 . S
C370 C372 1.478 . S
C371 H365 0.930 . S
C371 C367 1.400 . S
C371 C370 1.385 . S
C372 C370 1.478 . S
C372 C374 1.381 . S
C372 C378 1.383 . S
C373 C369 1.495 . S
C373 H379 0.959 . S
C373 H380 0.961 . S
C373 H381 0.960 . S
C374 C372 1.381 . S
C374 C375 1.394 . S
C374 H382 0.930 . S
C375 C374 1.394 . S
C375 C376 1.383 . S
C375 H383 0.929 . S
C376 C375 1.383 . S
C376 C377 1.377 . S
C377 H361 0.930 . S
C377 C376 1.377 . S
C377 C378 1.379 . S
C378 H362 0.931 . S
C378 C372 1.383 . S
C378 C377 1.379 . S
H379 C373 0.959 . S
H380 C373 0.961 . S
H381 C373 0.960 . S
H382 C374 0.930 . S
H383 C375 0.929 . S
H384 C392 0.929 . S
H385 C394 0.930 . S
H386 C396 0.930 . S
H387 C399 0.929 . S
H388 C402 0.930 . S
H389 C404 0.960 1_554 S
H390 C404 0.960 . S
H391 C404 0.960 . S
C392 H384 0.929 . S
C392 C393 1.377 . S
C392 C394 1.384 . S
C393 C392 1.377 . S
C393 C399 1.390 . S
C394 H385 0.930 . S
C394 C392 1.384 . S
C394 C395 1.372 . S
C395 C394 1.372 . S
C395 C396 1.400 . S
C395 C400 1.490 . S
C396 H386 0.930 . S
C396 C395 1.400 . S
C396 C399 1.386 . S
H397 C413 0.930 . S
H398 C414 0.931 . S
C399 H387 0.929 . S
C399 C393 1.390 . S
C399 C396 1.386 . S
C400 C395 1.490 . S
C400 C402 1.395 1_655 S
C400 C403 1.403 . S
H401 C407 0.922 . S
C402 H388 0.930 . S
C402 C400 1.395 1_455 S
C402 C405 1.403 1_556 S
C403 C400 1.403 . S
C403 C404 1.524 . S
C403 C407 1.403 1_556 S
C404 H389 0.960 1_556 S
C404 H390 0.960 . S
C404 H391 0.960 . S
C404 C403 1.524 . S
C405 C402 1.403 1_554 S
C405 C406 1.392 . S
C405 C409 1.495 . S
C406 C405 1.392 . S
C406 C407 1.381 1_455 S
C406 C408 1.478 . S
C407 H401 0.922 . S
C407 C403 1.403 1_554 S
C407 C406 1.381 1_655 S
C408 C406 1.478 . S
C408 C410 1.381 . S
C408 C414 1.383 . S
C409 C405 1.495 . S
C409 H415 0.959 1_554 S
C409 H416 0.961 . S
C409 H417 0.960 . S
C410 C408 1.381 . S
C410 C411 1.394 . S
C410 H418 0.930 . S
C411 C410 1.394 . S
C411 C412 1.383 . S
C411 H419 0.929 . S
C412 C411 1.383 . S
C412 C413 1.377 . S
C413 H397 0.930 . S
C413 C412 1.377 . S
C413 C414 1.379 . S
C414 H398 0.931 . S
C414 C408 1.383 . S
C414 C413 1.379 . S
H415 C409 0.959 1_556 S
H416 C409 0.961 . S
H417 C409 0.960 . S
H418 C410 0.930 . S
H419 C411 0.929 . S
H420 C428 0.929 . S
H421 C430 0.930 . S
H422 C432 0.930 . S
H423 C435 0.929 . S
H424 C438 0.930 . S
H425 C440 0.960 . S
H426 C440 0.960 . S
H427 C440 0.960 . S
C428 H420 0.929 . S
C428 C429 1.377 . S
C428 C430 1.384 . S
C429 C428 1.377 . S
C429 C435 1.390 . S
C430 H421 0.930 . S
C430 C428 1.384 . S
C430 C431 1.372 . S
C431 C430 1.372 . S
C431 C432 1.400 . S
C431 C436 1.490 . S
C432 H422 0.930 . S
C432 C431 1.400 . S
C432 C435 1.386 . S
H433 C449 0.930 . S
H434 C450 0.931 . S
C435 H423 0.929 . S
C435 C429 1.390 . S
C435 C432 1.386 . S
C436 C431 1.490 . S
C436 C438 1.395 1_565 S
C436 C439 1.403 . S
H437 C443 0.930 . S
C438 H424 0.930 . S
C438 C436 1.395 1_545 S
C438 C441 1.403 . S
C439 C436 1.403 . S
C439 C440 1.524 . S
C439 C443 1.400 . S
C440 H425 0.960 . S
C440 H426 0.960 . S
C440 H427 0.960 . S
C440 C439 1.524 . S
C441 C438 1.403 . S
C441 C442 1.392 . S
C441 C445 1.495 . S
C442 C441 1.392 . S
C442 C443 1.385 1_545 S
C442 C444 1.478 . S
C443 H437 0.930 . S
C443 C439 1.400 . S
C443 C442 1.385 1_565 S
C444 C442 1.478 . S
C444 C446 1.381 . S
C444 C450 1.383 . S
C445 C441 1.495 . S
C445 H451 0.959 . S
C445 H452 0.961 . S
C445 H453 0.960 . S
C446 C444 1.381 . S
C446 C447 1.394 . S
C446 H454 0.930 . S
C447 C446 1.394 . S
C447 C448 1.383 . S
C447 H455 0.929 . S
C448 C447 1.383 . S
C448 C449 1.377 . S
C449 H433 0.930 . S
C449 C448 1.377 . S
C449 C450 1.379 . S
C450 H434 0.931 . S
C450 C444 1.383 . S
C450 C449 1.379 . S
H451 C445 0.959 . S
H452 C445 0.961 . S
H453 C445 0.960 . S
H454 C446 0.930 . S
H455 C447 0.929 . S
H456 C464 0.929 . S
H457 C466 0.930 . S
H458 C468 0.930 . S
H459 C471 0.929 . S
H460 C474 0.930 . S
H461 C476 0.960 . S
H462 C476 0.960 . S
H463 C476 0.960 . S
C464 H456 0.929 . S
C464 C465 1.377 . S
C464 C466 1.384 . S
C465 C464 1.377 . S
C465 C471 1.390 . S
C466 H457 0.930 . S
C466 C464 1.384 . S
C466 C467 1.372 . S
C467 C466 1.372 . S
C467 C468 1.400 . S
C467 C472 1.490 . S
C468 H458 0.930 . S
C468 C467 1.400 . S
C468 C471 1.386 . S
H469 C485 0.930 . S
H470 C486 0.931 . S
C471 H459 0.929 . S
C471 C465 1.390 . S
C471 C468 1.386 . S
C472 C467 1.490 . S
C472 C474 1.395 . S
C472 C475 1.403 . S
H473 C479 0.930 . S
C474 H460 0.930 . S
C474 C472 1.395 . S
C474 C477 1.403 1_556 S
C475 C472 1.403 . S
C475 C476 1.524 . S
C475 C479 1.400 1_556 S
C476 H461 0.960 . S
C476 H462 0.960 . S
C476 H463 0.960 . S
C476 C475 1.524 . S
C477 C474 1.403 1_554 S
C477 C478 1.392 . S
C477 C481 1.495 . S
C478 C477 1.392 . S
C478 C479 1.385 . S
C478 C480 1.478 . S
C479 H473 0.930 . S
C479 C475 1.400 1_554 S
C479 C478 1.385 . S
C480 C478 1.478 . S
C480 C482 1.381 . S
C480 C486 1.383 . S
C481 C477 1.495 . S
C481 H487 0.959 . S
C481 H488 0.961 . S
C481 H489 0.960 . S
C482 C480 1.381 . S
C482 C483 1.394 . S
C482 H490 0.930 . S
C483 C482 1.394 . S
C483 C484 1.383 . S
C483 H491 0.929 . S
C484 C483 1.383 . S
C484 C485 1.377 . S
C485 H469 0.930 . S
C485 C484 1.377 . S
C485 C486 1.379 . S
C486 H470 0.931 . S
C486 C480 1.383 . S
C486 C485 1.379 . S
H487 C481 0.959 . S
H488 C481 0.961 . S
H489 C481 0.960 . S
H490 C482 0.930 . S
H491 C483 0.929 . S
H492 C500 0.929 . S
H493 C502 0.930 . S
H494 C504 0.919 1_455 S
H495 C507 0.929 . S
H496 C510 0.930 . S
H497 C512 0.960 . S
H498 C512 0.960 . S
H499 C512 0.960 . S
C500 H492 0.929 . S
C500 C501 1.377 . S
C500 C502 1.384 . S
C501 C500 1.377 . S
C501 C507 1.390 . S
C502 H493 0.930 . S
C502 C500 1.384 . S
C502 C503 1.372 . S
C503 C502 1.372 . S
C503 C504 1.400 . S
C503 C508 1.490 . S
C504 H494 0.919 1_655 S
C504 C503 1.400 . S
C504 C507 1.386 . S
H505 C521 0.930 . S
H506 C522 0.931 . S
C507 H495 0.929 . S
C507 C501 1.390 . S
C507 C504 1.386 . S
C508 C503 1.490 . S
C508 C510 1.395 . S
C508 C511 1.403 1_655 S
H509 C515 0.930 . S
C510 H496 0.930 . S
C510 C508 1.395 . S
C510 C513 1.403 . S
C511 C508 1.403 1_455 S
C511 C512 1.524 . S
C511 C515 1.400 . S
C512 H497 0.960 . S
C512 H498 0.960 . S
C512 H499 0.960 . S
C512 C511 1.524 . S
C513 C510 1.403 . S
C513 C514 1.392 1_655 S
C513 C517 1.495 . S
C514 C513 1.392 1_455 S
C514 C515 1.385 . S
C514 C516 1.478 . S
C515 H509 0.930 . S
C515 C511 1.400 . S
C515 C514 1.385 . S
C516 C514 1.478 . S
C516 C518 1.381 . S
C516 C522 1.383 . S
C517 C513 1.495 . S
C517 H523 0.959 . S
C517 H524 0.961 . S
C517 H525 0.960 . S
C518 C516 1.381 . S
C518 C519 1.394 . S
C518 H526 0.930 1_455 S
C519 C518 1.394 . S
C519 C520 1.383 . S
C519 H527 0.929 . S
C520 C519 1.383 . S
C520 C521 1.377 . S
C521 H505 0.930 . S
C521 C520 1.377 . S
C521 C522 1.379 . S
C522 H506 0.931 . S
C522 C516 1.383 . S
C522 C521 1.379 . S
H523 C517 0.959 . S
H524 C517 0.961 . S
H525 C517 0.960 . S
H526 C518 0.930 1_655 S
H527 C519 0.929 . S
H528 C536 0.929 . S
H529 C538 0.930 1_565 S
H530 C540 0.930 . S
H531 C543 0.929 . S
H532 C546 0.930 . S
H533 C548 0.960 1_554 S
H534 C548 0.960 . S
H535 C548 0.960 . S
C536 H528 0.929 . S
C536 C537 1.377 . S
C536 C538 1.384 . S
C537 C536 1.377 . S
C537 C543 1.390 . S
C538 H529 0.930 1_545 S
C538 C536 1.384 . S
C538 C539 1.372 . S
C539 C538 1.372 . S
C539 C540 1.400 . S
C539 C544 1.490 . S
C540 H530 0.930 . S
C540 C539 1.400 . S
C540 C543 1.386 . S
H541 C557 0.930 . S
H542 C558 0.931 . S
C543 H531 0.929 . S
C543 C537 1.390 . S
C543 C540 1.386 . S
C544 C539 1.490 . S
C544 C546 1.395 1_545 S
C544 C547 1.403 . S
H545 C551 0.930 . S
C546 H532 0.930 . S
C546 C544 1.395 1_565 S
C546 C549 1.385 1_556 S
C547 C544 1.403 . S
C547 C548 1.524 . S
C547 C551 1.400 1_556 S
C548 H533 0.960 1_556 S
C548 H534 0.960 . S
C548 H535 0.960 . S
C548 C547 1.524 . S
C549 C546 1.385 1_554 S
C549 C550 1.410 . S
C549 C553 1.496 . S
C550 C549 1.410 . S
C550 C551 1.385 1_565 S
C550 C552 1.478 . S
C551 H545 0.930 . S
C551 C547 1.400 1_554 S
C551 C550 1.385 1_545 S
C552 C550 1.478 . S
C552 C554 1.381 . S
C552 C558 1.383 . S
C553 C549 1.496 . S
C553 H559 0.959 1_554 S
C553 H560 0.961 . S
C553 H561 0.960 . S
C554 C552 1.381 . S
C554 C555 1.394 . S
C554 H562 0.930 . S
C555 C554 1.394 . S
C555 C556 1.383 . S
C555 H563 0.929 . S
C556 C555 1.383 . S
C556 C557 1.377 . S
C557 H541 0.930 . S
C557 C556 1.377 . S
C557 C558 1.379 . S
C558 H542 0.931 . S
C558 C552 1.383 . S
C558 C557 1.379 . S
H559 C553 0.959 1_556 S
H560 C553 0.961 . S
H561 C553 0.960 . S
H562 C554 0.930 . S
H563 C555 0.929 . S
H564 C572 0.929 . S
H565 C574 0.930 . S
H566 C576 0.930 . S
H567 C579 0.929 . S
H568 C582 0.930 . S
H569 C584 0.960 . S
H570 C584 0.960 . S
H571 C584 0.960 . S
C572 H564 0.929 . S
C572 C573 1.377 . S
C572 C574 1.384 . S
C573 C572 1.377 . S
C573 C579 1.390 . S
C574 H565 0.930 . S
C574 C572 1.384 . S
C574 C575 1.372 . S
C575 C574 1.372 . S
C575 C576 1.400 . S
C575 C580 1.490 . S
C576 H566 0.930 . S
C576 C575 1.400 . S
C576 C579 1.386 . S
H577 C593 0.930 . S
H578 C594 0.931 . S
C579 H567 0.929 . S
C579 C573 1.390 . S
C579 C576 1.386 . S
C580 C575 1.490 . S
C580 C582 1.395 . S
C580 C583 1.403 . S
H581 C587 0.930 . S
C582 H568 0.930 . S
C582 C580 1.395 . S
C582 C585 1.403 . S
C583 C580 1.403 . S
C583 C584 1.524 . S
C583 C587 1.400 . S
C584 H569 0.960 . S
C584 H570 0.960 . S
C584 H571 0.960 . S
C584 C583 1.524 . S
C585 C582 1.403 . S
C585 C586 1.392 . S
C585 C589 1.495 . S
C586 C585 1.392 . S
C586 C587 1.385 . S
C586 C588 1.478 . S
C587 H581 0.930 . S
C587 C583 1.400 . S
C587 C586 1.385 . S
C588 C586 1.478 . S
C588 C590 1.381 . S
C588 C594 1.383 . S
C589 C585 1.495 . S
C589 H595 0.959 . S
C589 H596 0.961 . S
C589 H597 0.960 . S
C590 C588 1.381 . S
C590 C591 1.394 . S
C590 H598 0.930 . S
C591 C590 1.394 . S
C591 C592 1.383 . S
C591 H599 0.929 . S
C592 C591 1.383 . S
C592 C593 1.377 . S
C593 H577 0.930 . S
C593 C592 1.377 . S
C593 C594 1.379 . S
C594 H578 0.931 . S
C594 C588 1.383 . S
C594 C593 1.379 . S
H595 C589 0.959 . S
H596 C589 0.961 . S
H597 C589 0.960 . S
H598 C590 0.930 . S
H599 C591 0.929 . S
H600 C608 0.929 . S
H601 C610 0.930 . S
H602 C612 0.930 . S
H603 C615 0.929 . S
H604 C618 0.930 . S
H605 C620 0.960 . S
H606 C620 0.960 . S
H607 C620 0.960 . S
C608 H600 0.929 . S
C608 C609 1.377 . S
C608 C610 1.384 . S
C609 C608 1.377 . S
C609 C615 1.390 . S
C610 H601 0.930 . S
C610 C608 1.384 . S
C610 C611 1.372 . S
C611 C610 1.372 . S
C611 C612 1.400 . S
C611 C616 1.490 . S
C612 H602 0.930 . S
C612 C611 1.400 . S
C612 C615 1.386 . S
H613 C629 0.930 . S
H614 C630 0.931 . S
C615 H603 0.929 . S
C615 C609 1.390 . S
C615 C612 1.386 . S
C616 C611 1.490 . S
C616 C618 1.395 . S
C616 C619 1.403 . S
H617 C623 0.930 . S
C618 H604 0.930 . S
C618 C616 1.395 . S
C618 C621 1.403 . S
C619 C616 1.403 . S
C619 C620 1.524 . S
C619 C623 1.400 . S
C620 H605 0.960 . S
C620 H606 0.960 . S
C620 H607 0.960 . S
C620 C619 1.524 . S
C621 C618 1.403 . S
C621 C622 1.392 . S
C621 C625 1.495 . S
C622 C621 1.392 . S
C622 C623 1.385 . S
C622 C624 1.478 . S
C623 H617 0.930 . S
C623 C619 1.400 . S
C623 C622 1.385 . S
C624 C622 1.478 . S
C624 C626 1.381 . S
C624 C630 1.383 . S
C625 C621 1.495 . S
C625 H631 0.959 . S
C625 H632 0.961 . S
C625 H633 0.960 . S
C626 C624 1.381 . S
C626 C627 1.394 . S
C626 H634 0.930 . S
C627 C626 1.394 . S
C627 C628 1.383 . S
C627 H635 0.929 . S
C628 C627 1.383 . S
C628 C629 1.377 . S
C629 H613 0.930 . S
C629 C628 1.377 . S
C629 C630 1.379 . S
C630 H614 0.931 . S
C630 C624 1.383 . S
C630 C629 1.379 . S
H631 C625 0.959 . S
H632 C625 0.961 . S
H633 C625 0.960 . S
H634 C626 0.930 . S
H635 C627 0.929 . S
H636 C644 0.929 . S
H637 C646 0.930 . S
H638 C648 0.930 . S
H639 C651 0.929 . S
H640 C654 0.930 . S
H641 C656 0.960 . S
H642 C656 0.960 . S
H643 C656 0.960 . S
C644 H636 0.929 . S
C644 C645 1.377 . S
C644 C646 1.384 . S
C645 C644 1.377 . S
C645 C651 1.390 . S
C646 H637 0.930 . S
C646 C644 1.384 . S
C646 C647 1.372 . S
C647 C646 1.372 . S
C647 C648 1.400 . S
C647 C652 1.490 . S
C648 H638 0.930 . S
C648 C647 1.400 . S
C648 C651 1.386 . S
H649 C665 0.930 . S
H650 C666 0.931 . S
C651 H639 0.929 . S
C651 C645 1.390 . S
C651 C648 1.386 . S
C652 C647 1.490 . S
C652 C654 1.395 . S
C652 C655 1.403 . S
H653 C659 0.930 . S
C654 H640 0.930 . S
C654 C652 1.395 . S
C654 C657 1.403 . S
C655 C652 1.403 . S
C655 C656 1.524 . S
C655 C659 1.400 . S
C656 H641 0.960 . S
C656 H642 0.960 . S
C656 H643 0.960 . S
C656 C655 1.524 . S
C657 C654 1.403 . S
C657 C658 1.392 . S
C657 C661 1.495 . S
C658 C657 1.392 . S
C658 C659 1.385 . S
C658 C660 1.478 . S
C659 H653 0.930 . S
C659 C655 1.400 . S
C659 C658 1.385 . S
C660 C658 1.478 . S
C660 C662 1.381 . S
C660 C666 1.383 . S
C661 C657 1.495 . S
C661 H667 0.959 . S
C661 H668 0.961 . S
C661 H669 0.960 . S
C662 C660 1.381 . S
C662 C663 1.394 . S
C662 H670 0.930 . S
C663 C662 1.394 . S
C663 C664 1.383 . S
C663 H671 0.929 . S
C664 C663 1.383 . S
C664 C665 1.377 . S
C665 H649 0.930 . S
C665 C664 1.377 . S
C665 C666 1.379 . S
C666 H650 0.931 . S
C666 C660 1.383 . S
C666 C665 1.379 . S
H667 C661 0.959 . S
H668 C661 0.961 . S
H669 C661 0.960 . S
H670 C662 0.930 . S
H671 C663 0.929 . S
H672 C680 0.929 . S
H673 C682 0.930 . S
H674 C684 0.930 . S
H675 C687 0.929 . S
H676 C690 0.930 . S
H677 C692 0.960 . S
H678 C692 0.960 . S
H679 C692 0.960 . S
C680 H672 0.929 . S
C680 C681 1.377 . S
C680 C682 1.384 . S
C681 C680 1.377 . S
C681 C687 1.390 . S
C682 H673 0.930 . S
C682 C680 1.384 . S
C682 C683 1.372 . S
C683 C682 1.372 . S
C683 C684 1.400 . S
C683 C688 1.490 . S
C684 H674 0.930 . S
C684 C683 1.400 . S
C684 C687 1.386 . S
H685 C701 0.930 . S
H686 C702 0.931 . S
C687 H675 0.929 . S
C687 C681 1.390 . S
C687 C684 1.386 . S
C688 C683 1.490 . S
C688 C690 1.395 . S
C688 C691 1.403 . S
H689 C695 0.930 . S
C690 H676 0.930 . S
C690 C688 1.395 . S
C690 C693 1.403 . S
C691 C688 1.403 . S
C691 C692 1.524 . S
C691 C695 1.400 . S
C692 H677 0.960 . S
C692 H678 0.960 . S
C692 H679 0.960 . S
C692 C691 1.524 . S
C693 C690 1.403 . S
C693 C694 1.392 . S
C693 C697 1.495 . S
C694 C693 1.392 . S
C694 C695 1.385 . S
C694 C696 1.478 . S
C695 H689 0.930 . S
C695 C691 1.400 . S
C695 C694 1.385 . S
C696 C694 1.478 . S
C696 C698 1.381 . S
C696 C702 1.383 . S
C697 C693 1.495 . S
C697 H703 0.959 . S
C697 H704 0.961 . S
C697 H705 0.960 . S
C698 C696 1.381 . S
C698 C699 1.394 . S
C698 H706 0.930 . S
C699 C698 1.394 . S
C699 C700 1.383 . S
C699 H707 0.929 . S
C700 C699 1.383 . S
C700 C701 1.377 . S
C701 H685 0.930 . S
C701 C700 1.377 . S
C701 C702 1.379 . S
C702 H686 0.931 . S
C702 C696 1.383 . S
C702 C701 1.379 . S
H703 C697 0.959 . S
H704 C697 0.961 . S
H705 C697 0.960 . S
H706 C698 0.930 . S
H707 C699 0.929 . S
H708 C716 0.929 . S
H709 C718 0.930 . S
H710 C720 0.930 . S
H711 C723 0.929 . S
H712 C726 0.930 . S
H713 C728 0.960 . S
H714 C728 0.960 . S
H715 C728 0.960 . S
C716 H708 0.929 . S
C716 C717 1.377 . S
C716 C718 1.384 . S
C717 C716 1.377 . S
C717 C723 1.390 . S
C718 H709 0.930 . S
C718 C716 1.384 . S
C718 C719 1.372 . S
C719 C718 1.372 . S
C719 C720 1.400 . S
C719 C724 1.490 . S
C720 H710 0.930 . S
C720 C719 1.400 . S
C720 C723 1.386 . S
H721 C737 0.930 . S
H722 C738 0.931 . S
C723 H711 0.929 . S
C723 C717 1.390 . S
C723 C720 1.386 . S
C724 C719 1.490 . S
C724 C726 1.395 . S
C724 C727 1.403 . S
H725 C731 0.930 . S
C726 H712 0.930 . S
C726 C724 1.395 . S
C726 C729 1.403 . S
C727 C724 1.403 . S
C727 C728 1.524 . S
C727 C731 1.400 . S
C728 H713 0.960 . S
C728 H714 0.960 . S
C728 H715 0.960 . S
C728 C727 1.524 . S
C729 C726 1.403 . S
C729 C730 1.392 . S
C729 C733 1.495 . S
C730 C729 1.392 . S
C730 C731 1.385 . S
C730 C732 1.478 . S
C731 H725 0.930 . S
C731 C727 1.400 . S
C731 C730 1.385 . S
C732 C730 1.478 . S
C732 C734 1.381 . S
C732 C738 1.383 . S
C733 C729 1.495 . S
C733 H739 0.959 . S
C733 H740 0.961 . S
C733 H741 0.960 . S
C734 C732 1.381 . S
C734 C735 1.394 . S
C734 H742 0.930 . S
C735 C734 1.394 . S
C735 C736 1.383 . S
C735 H743 0.929 . S
C736 C735 1.383 . S
C736 C737 1.377 . S
C737 H721 0.930 . S
C737 C736 1.377 . S
C737 C738 1.379 . S
C738 H722 0.931 . S
C738 C732 1.383 . S
C738 C737 1.379 . S
H739 C733 0.959 . S
H740 C733 0.961 . S
H741 C733 0.960 . S
H742 C734 0.930 . S
H743 C735 0.929 . S
H744 C752 0.929 . S
H745 C754 0.930 . S
H746 C756 0.930 . S
H747 C759 0.929 . S
H748 C762 0.930 . S
H749 C764 0.960 . S
H750 C764 0.960 . S
H751 C764 0.960 . S
C752 H744 0.929 . S
C752 C753 1.377 . S
C752 C754 1.384 . S
C753 C752 1.377 . S
C753 C759 1.390 . S
C754 H745 0.930 . S
C754 C752 1.384 . S
C754 C755 1.372 . S
C755 C754 1.372 . S
C755 C756 1.400 . S
C755 C760 1.490 . S
C756 H746 0.930 . S
C756 C755 1.400 . S
C756 C759 1.386 . S
H757 C773 0.930 . S
H758 C774 0.931 . S
C759 H747 0.929 . S
C759 C753 1.390 . S
C759 C756 1.386 . S
C760 C755 1.490 . S
C760 C762 1.395 . S
C760 C763 1.403 . S
H761 C767 0.930 . S
C762 H748 0.930 . S
C762 C760 1.395 . S
C762 C765 1.403 . S
C763 C760 1.403 . S
C763 C764 1.524 . S
C763 C767 1.400 . S
C764 H749 0.960 . S
C764 H750 0.960 . S
C764 H751 0.960 . S
C764 C763 1.524 . S
C765 C762 1.403 . S
C765 C766 1.392 . S
C765 C769 1.495 . S
C766 C765 1.392 . S
C766 C767 1.385 . S
C766 C768 1.478 . S
C767 H761 0.930 . S
C767 C763 1.400 . S
C767 C766 1.385 . S
C768 C766 1.478 . S
C768 C770 1.381 . S
C768 C774 1.383 . S
C769 C765 1.495 . S
C769 H775 0.959 . S
C769 H776 0.961 . S
C769 H777 0.960 . S
C770 C768 1.381 . S
C770 C771 1.394 . S
C770 H778 0.930 . S
C771 C770 1.394 . S
C771 C772 1.383 . S
C771 H779 0.929 . S
C772 C771 1.383 . S
C772 C773 1.377 . S
C773 H757 0.930 . S
C773 C772 1.377 . S
C773 C774 1.379 . S
C774 H758 0.931 . S
C774 C768 1.383 . S
C774 C773 1.379 . S
H775 C769 0.959 . S
H776 C769 0.961 . S
H777 C769 0.960 . S
H778 C770 0.930 . S
H779 C771 0.929 . S
H780 C788 0.929 . S
H781 C790 0.930 . S
H782 C792 0.930 . S
H783 C795 0.929 . S
H784 C798 0.930 . S
H785 C800 0.960 . S
H786 C800 0.960 . S
H787 C800 0.960 . S
C788 H780 0.929 . S
C788 C789 1.377 . S
C788 C790 1.384 . S
C789 C788 1.377 . S
C789 C795 1.390 . S
C790 H781 0.930 . S
C790 C788 1.384 . S
C790 C791 1.372 . S
C791 C790 1.372 . S
C791 C792 1.400 . S
C791 C796 1.490 . S
C792 H782 0.930 . S
C792 C791 1.400 . S
C792 C795 1.386 . S
H793 C809 0.930 . S
H794 C810 0.931 . S
C795 H783 0.929 . S
C795 C789 1.390 . S
C795 C792 1.386 . S
C796 C791 1.490 . S
C796 C798 1.395 . S
C796 C799 1.403 . S
H797 C803 0.930 . S
C798 H784 0.930 . S
C798 C796 1.395 . S
C798 C801 1.403 . S
C799 C796 1.403 . S
C799 C800 1.524 . S
C799 C803 1.400 . S
C800 H785 0.960 . S
C800 H786 0.960 . S
C800 H787 0.960 . S
C800 C799 1.524 . S
C801 C798 1.403 . S
C801 C802 1.392 . S
C801 C805 1.495 . S
C802 C801 1.392 . S
C802 C803 1.385 . S
C802 C804 1.478 . S
C803 H797 0.930 . S
C803 C799 1.400 . S
C803 C802 1.385 . S
C804 C802 1.478 . S
C804 C806 1.381 . S
C804 C810 1.383 . S
C805 C801 1.495 . S
C805 H811 0.959 . S
C805 H812 0.961 . S
C805 H813 0.960 . S
C806 C804 1.381 . S
C806 C807 1.394 . S
C806 H814 0.930 . S
C807 C806 1.394 . S
C807 C808 1.383 . S
C807 H815 0.929 . S
C808 C807 1.383 . S
C808 C809 1.377 . S
C809 H793 0.930 . S
C809 C808 1.377 . S
C809 C810 1.379 . S
C810 H794 0.931 . S
C810 C804 1.383 . S
C810 C809 1.379 . S
H811 C805 0.959 . S
H812 C805 0.961 . S
H813 C805 0.960 . S
H814 C806 0.930 . S
H815 C807 0.929 . S
H816 C824 0.929 . S
H817 C826 0.930 . S
H818 C828 0.930 . S
H819 C831 0.929 . S
H820 C834 0.930 . S
H821 C836 0.960 . S
H822 C836 0.960 . S
H823 C836 0.960 . S
C824 H816 0.929 . S
C824 C825 1.377 . S
C824 C826 1.384 . S
C825 C824 1.377 . S
C825 C831 1.390 . S
C826 H817 0.930 . S
C826 C824 1.384 . S
C826 C827 1.372 . S
C827 C826 1.372 . S
C827 C828 1.400 . S
C827 C832 1.490 . S
C828 H818 0.930 . S
C828 C827 1.400 . S
C828 C831 1.386 . S
H829 C845 0.930 . S
H830 C846 0.931 . S
C831 H819 0.929 . S
C831 C825 1.390 . S
C831 C828 1.386 . S
C832 C827 1.490 . S
C832 C834 1.395 . S
C832 C835 1.403 . S
H833 C839 0.930 . S
C834 H820 0.930 . S
C834 C832 1.395 . S
C834 C837 1.403 . S
C835 C832 1.403 . S
C835 C836 1.524 . S
C835 C839 1.400 . S
C836 H821 0.960 . S
C836 H822 0.960 . S
C836 H823 0.960 . S
C836 C835 1.524 . S
C837 C834 1.403 . S
C837 C838 1.392 . S
C837 C841 1.495 . S
C838 C837 1.392 . S
C838 C839 1.385 . S
C838 C840 1.478 . S
C839 H833 0.930 . S
C839 C835 1.400 . S
C839 C838 1.385 . S
C840 C838 1.478 . S
C840 C842 1.381 . S
C840 C846 1.383 . S
C841 C837 1.495 . S
C841 H847 0.959 . S
C841 H848 0.961 . S
C841 H849 0.960 . S
C842 C840 1.381 . S
C842 C843 1.394 . S
C842 H850 0.930 . S
C843 C842 1.394 . S
C843 C844 1.383 . S
C843 H851 0.929 . S
C844 C843 1.383 . S
C844 C845 1.377 . S
C845 H829 0.930 . S
C845 C844 1.377 . S
C845 C846 1.379 . S
C846 H830 0.931 . S
C846 C840 1.383 . S
C846 C845 1.379 . S
H847 C841 0.959 . S
H848 C841 0.961 . S
H849 C841 0.960 . S
H850 C842 0.930 . S
H851 C843 0.929 . S
H852 C860 0.929 . S
H853 C862 0.930 . S
H854 C864 0.930 . S
H855 C867 0.929 . S
H856 C870 0.930 . S
H857 C872 0.960 . S
H858 C872 0.960 . S
H859 C872 0.960 . S
C860 H852 0.929 . S
C860 C861 1.377 . S
C860 C862 1.384 . S
C861 C860 1.377 . S
C861 C867 1.390 . S
C862 H853 0.930 . S
C862 C860 1.384 . S
C862 C863 1.372 . S
C863 C862 1.372 . S
C863 C864 1.400 . S
C863 C868 1.490 . S
C864 H854 0.930 . S
C864 C863 1.400 . S
C864 C867 1.386 . S
H865 C881 0.930 . S
H866 C882 0.931 . S
C867 H855 0.929 . S
C867 C861 1.390 . S
C867 C864 1.386 . S
C868 C863 1.490 . S
C868 C870 1.395 . S
C868 C871 1.403 . S
H869 C875 0.930 . S
C870 H856 0.930 . S
C870 C868 1.395 . S
C870 C873 1.403 . S
C871 C868 1.403 . S
C871 C872 1.524 . S
C871 C875 1.400 . S
C872 H857 0.960 . S
C872 H858 0.960 . S
C872 H859 0.960 . S
C872 C871 1.524 . S
C873 C870 1.403 . S
C873 C874 1.392 . S
C873 C877 1.495 . S
C874 C873 1.392 . S
C874 C875 1.385 . S
C874 C876 1.478 . S
C875 H869 0.930 . S
C875 C871 1.400 . S
C875 C874 1.385 . S
C876 C874 1.478 . S
C876 C878 1.381 . S
C876 C882 1.383 . S
C877 C873 1.495 . S
C877 H883 0.959 . S
C877 H884 0.961 . S
C877 H885 0.960 . S
C878 C876 1.381 . S
C878 C879 1.394 . S
C878 H886 0.930 . S
C879 C878 1.394 . S
C879 C880 1.383 . S
C879 H887 0.929 . S
C880 C879 1.383 . S
C880 C881 1.377 . S
C881 H865 0.930 . S
C881 C880 1.377 . S
C881 C882 1.379 . S
C882 H866 0.931 . S
C882 C876 1.383 . S
C882 C881 1.379 . S
H883 C877 0.959 . S
H884 C877 0.961 . S
H885 C877 0.960 . S
H886 C878 0.930 . S
H887 C879 0.929 . S
H888 C896 0.929 . S
H889 C898 0.930 . S
H890 C900 0.930 . S
H891 C903 0.929 . S
H892 C906 0.930 . S
H893 C908 0.960 . S
H894 C908 0.960 . S
H895 C908 0.960 . S
C896 H888 0.929 . S
C896 C897 1.377 . S
C896 C898 1.384 . S
C897 C896 1.377 . S
C897 C903 1.390 . S
C898 H889 0.930 . S
C898 C896 1.384 . S
C898 C899 1.372 . S
C899 C898 1.372 . S
C899 C900 1.400 . S
C899 C904 1.490 . S
C900 H890 0.930 . S
C900 C899 1.400 . S
C900 C903 1.386 . S
H901 C917 0.930 . S
H902 C918 0.931 . S
C903 H891 0.929 . S
C903 C897 1.390 . S
C903 C900 1.386 . S
C904 C899 1.490 . S
C904 C906 1.395 . S
C904 C907 1.403 . S
H905 C911 0.930 . S
C906 H892 0.930 . S
C906 C904 1.395 . S
C906 C909 1.403 . S
C907 C904 1.403 . S
C907 C908 1.524 . S
C907 C911 1.400 . S
C908 H893 0.960 . S
C908 H894 0.960 . S
C908 H895 0.960 . S
C908 C907 1.524 . S
C909 C906 1.403 . S
C909 C910 1.392 . S
C909 C913 1.495 . S
C910 C909 1.392 . S
C910 C911 1.385 . S
C910 C912 1.478 . S
C911 H905 0.930 . S
C911 C907 1.400 . S
C911 C910 1.385 . S
C912 C910 1.478 . S
C912 C914 1.381 . S
C912 C918 1.383 . S
C913 C909 1.495 . S
C913 H919 0.959 . S
C913 H920 0.961 . S
C913 H921 0.960 . S
C914 C912 1.381 . S
C914 C915 1.394 . S
C914 H922 0.930 . S
C915 C914 1.394 . S
C915 C916 1.383 . S
C915 H923 0.929 . S
C916 C915 1.383 . S
C916 C917 1.377 . S
C917 H901 0.930 . S
C917 C916 1.377 . S
C917 C918 1.379 . S
C918 H902 0.931 . S
C918 C912 1.383 . S
C918 C917 1.379 . S
H919 C913 0.959 . S
H920 C913 0.961 . S
H921 C913 0.960 . S
H922 C914 0.930 . S
H923 C915 0.929 . S
H924 C932 0.929 . S
H925 C934 0.930 . S
H926 C936 0.930 . S
H927 C939 0.929 . S
H928 C942 0.930 . S
H929 C944 0.960 . S
H930 C944 0.960 . S
H931 C944 0.960 . S
C932 H924 0.929 . S
C932 C933 1.377 . S
C932 C934 1.384 . S
C933 C932 1.377 . S
C933 C939 1.390 . S
C934 H925 0.930 . S
C934 C932 1.384 . S
C934 C935 1.372 . S
C935 C934 1.372 . S
C935 C936 1.400 . S
C935 C940 1.490 . S
C936 H926 0.930 . S
C936 C935 1.400 . S
C936 C939 1.386 . S
H937 C953 0.930 . S
H938 C954 0.931 . S
C939 H927 0.929 . S
C939 C933 1.390 . S
C939 C936 1.386 . S
C940 C935 1.490 . S
C940 C942 1.395 . S
C940 C943 1.403 . S
H941 C947 0.930 . S
C942 H928 0.930 . S
C942 C940 1.395 . S
C942 C945 1.403 . S
C943 C940 1.403 . S
C943 C944 1.524 . S
C943 C947 1.400 . S
C944 H929 0.960 . S
C944 H930 0.960 . S
C944 H931 0.960 . S
C944 C943 1.524 . S
C945 C942 1.403 . S
C945 C946 1.392 . S
C945 C949 1.495 . S
C946 C945 1.392 . S
C946 C947 1.385 . S
C946 C948 1.478 . S
C947 H941 0.930 . S
C947 C943 1.400 . S
C947 C946 1.385 . S
C948 C946 1.478 . S
C948 C950 1.381 . S
C948 C954 1.383 . S
C949 C945 1.495 . S
C949 H955 0.959 . S
C949 H956 0.961 . S
C949 H957 0.960 . S
C950 C948 1.381 . S
C950 C951 1.394 . S
C950 H958 0.930 . S
C951 C950 1.394 . S
C951 C952 1.383 . S
C951 H959 0.929 . S
C952 C951 1.383 . S
C952 C953 1.377 . S
C953 H937 0.930 . S
C953 C952 1.377 . S
C953 C954 1.379 . S
C954 H938 0.931 . S
C954 C948 1.383 . S
C954 C953 1.379 . S
H955 C949 0.959 . S
H956 C949 0.961 . S
H957 C949 0.960 . S
H958 C950 0.930 . S
H959 C951 0.929 . S
H960 C968 0.929 . S
H961 C970 0.930 . S
H962 C972 0.930 . S
H963 C975 0.929 . S
H964 C978 0.930 . S
H965 C980 0.960 . S
H966 C980 0.960 . S
H967 C980 0.960 . S
C968 H960 0.929 . S
C968 C969 1.377 . S
C968 C970 1.384 . S
C969 C968 1.377 . S
C969 C975 1.390 . S
C970 H961 0.930 . S
C970 C968 1.384 . S
C970 C971 1.372 . S
C971 C970 1.372 . S
C971 C972 1.400 . S
C971 C976 1.490 . S
C972 H962 0.930 . S
C972 C971 1.400 . S
C972 C975 1.386 . S
H973 C989 0.930 . S
H974 C990 0.931 . S
C975 H963 0.929 . S
C975 C969 1.390 . S
C975 C972 1.386 . S
C976 C971 1.490 . S
C976 C978 1.395 . S
C976 C979 1.403 . S
H977 C983 0.930 . S
C978 H964 0.930 . S
C978 C976 1.395 . S
C978 C981 1.403 . S
C979 C976 1.403 . S
C979 C980 1.524 . S
C979 C983 1.400 . S
C980 H965 0.960 . S
C980 H966 0.960 . S
C980 H967 0.960 . S
C980 C979 1.524 . S
C981 C978 1.403 . S
C981 C982 1.392 . S
C981 C985 1.495 . S
C982 C981 1.392 . S
C982 C983 1.385 . S
C982 C984 1.478 . S
C983 H977 0.930 . S
C983 C979 1.400 . S
C983 C982 1.385 . S
C984 C982 1.478 . S
C984 C986 1.381 . S
C984 C990 1.383 . S
C985 C981 1.495 . S
C985 H991 0.959 . S
C985 H992 0.961 . S
C985 H993 0.960 . S
C986 C984 1.381 . S
C986 C987 1.394 . S
C986 H994 0.930 . S
C987 C986 1.394 . S
C987 C988 1.383 . S
C987 H995 0.929 . S
C988 C987 1.383 . S
C988 C989 1.377 . S
C989 H973 0.930 . S
C989 C988 1.377 . S
C989 C990 1.379 . S
C990 H974 0.931 . S
C990 C984 1.383 . S
C990 C989 1.379 . S
H991 C985 0.959 . S
H992 C985 0.961 . S
H993 C985 0.960 . S
H994 C986 0.930 . S
H995 C987 0.929 . S
H996 C1004 0.929 . S
H997 C1006 0.930 . S
H998 C1008 0.930 . S
H999 C1011 0.929 . S
H1000 C1014 0.930 . S
H1001 C1016 0.960 . S
H1002 C1016 0.960 . S
H1003 C1016 0.960 . S
C1004 H996 0.929 . S
C1004 C1005 1.377 . S
C1004 C1006 1.384 . S
C1005 C1004 1.377 . S
C1005 C1011 1.390 . S
C1006 H997 0.930 . S
C1006 C1004 1.384 . S
C1006 C1007 1.372 . S
C1007 C1006 1.372 . S
C1007 C1008 1.400 . S
C1007 C1012 1.490 . S
C1008 H998 0.930 . S
C1008 C1007 1.400 . S
C1008 C1011 1.386 . S
H1009 C1025 0.930 . S
H1010 C1026 0.931 . S
C1011 H999 0.929 . S
C1011 C1005 1.390 . S
C1011 C1008 1.386 . S
C1012 C1007 1.490 . S
C1012 C1014 1.395 . S
C1012 C1015 1.403 . S
H1013 C1019 0.930 . S
C1014 H1000 0.930 . S
C1014 C1012 1.395 . S
C1014 C1017 1.403 . S
C1015 C1012 1.403 . S
C1015 C1016 1.524 . S
C1015 C1019 1.400 . S
C1016 H1001 0.960 . S
C1016 H1002 0.960 . S
C1016 H1003 0.960 . S
C1016 C1015 1.524 . S
C1017 C1014 1.403 . S
C1017 C1018 1.392 . S
C1017 C1021 1.495 . S
C1018 C1017 1.392 . S
C1018 C1019 1.385 . S
C1018 C1020 1.478 . S
C1019 H1013 0.930 . S
C1019 C1015 1.400 . S
C1019 C1018 1.385 . S
C1020 C1018 1.478 . S
C1020 C1022 1.381 . S
C1020 C1026 1.383 . S
C1021 C1017 1.495 . S
C1021 H1027 0.959 . S
C1021 H1028 0.961 . S
C1021 H1029 0.960 . S
C1022 C1020 1.381 . S
C1022 C1023 1.394 . S
C1022 H1030 0.930 . S
C1023 C1022 1.394 . S
C1023 C1024 1.383 . S
C1023 H1031 0.929 . S
C1024 C1023 1.383 . S
C1024 C1025 1.377 . S
C1025 H1009 0.930 . S
C1025 C1024 1.377 . S
C1025 C1026 1.379 . S
C1026 H1010 0.931 . S
C1026 C1020 1.383 . S
C1026 C1025 1.379 . S
H1027 C1021 0.959 . S
H1028 C1021 0.961 . S
H1029 C1021 0.960 . S
H1030 C1022 0.930 . S
H1031 C1023 0.929 . S
C177 C5 1.118 . S
C196 C159 1.179 . S
C213 C89 1.138 . S
C232 C19 1.084 . S
C249 C33 1.135 . S
C268 C103 1.115 . S
C285 C117 1.115 . S
C304 C47 1.169 . S
C321 C131 1.135 . S
C340 C61 1.114 . S
C357 C145 1.116 . S
C376 C75 1.179 . S
C393 C54 1.606 . S
C412 C124 1.596 . S
C429 C68 1.604 . S
C448 C138 1.601 . S
C465 C82 1.606 . S
C484 C152 1.604 . S
C501 C166 1.607 . S
C520 C12 1.595 . S
C537 C26 1.604 . S
C556 C96 1.608 . S
C573 C40 1.604 . S
C592 C110 1.604 . S
C609 C116 1.305 . S
C628 C4 1.293 . S
C645 C130 1.300 . S
C664 C18 1.278 . S
C681 C32 1.304 . S
C700 C144 1.287 . S
C717 C46 1.304 . S
C736 C158 1.288 . S
C753 C60 1.307 . S
C772 C88 1.309 . S
C789 C102 1.299 . S
C808 C74 1.282 . S
C825 C11 1.184 . S
C844 C151 1.189 . S
C861 C165 1.180 . S
C880 C25 1.173 . S
C897 C39 1.179 . S
C916 C95 1.195 . S
C933 C53 1.178 . S
C952 C109 1.192 . S
C969 C67 1.179 . S
C988 C123 1.196 . S
C1005 C81 1.178 . S
C1024 C137 1.188 . S
