# Generated by pormake.
# Topology whz, (6)-cn, num edge types: 1
# Building blocks:
#     Node 0, Type 0, BuildingBlock: PAMTOO_clean_sbu_0, # of connection points: 6
#     Node 1, Type 0, BuildingBlock: PAMTOO_clean_sbu_0, # of connection points: 6
#     Node 2, Type 0, BuildingBlock: PAMTOO_clean_sbu_0, # of connection points: 6
#     Node 3, Type 0, BuildingBlock: PAMTOO_clean_sbu_0, # of connection points: 6
#     Node 4, Type 0, BuildingBlock: PAMTOO_clean_sbu_0, # of connection points: 6
#     Node 5, Type 0, BuildingBlock: PAMTOO_clean_sbu_0, # of connection points: 6
#     Node 6, Type 0, BuildingBlock: PAMTOO_clean_sbu_0, # of connection points: 6
#     Node 7, Type 0, BuildingBlock: PAMTOO_clean_sbu_0, # of connection points: 6
#     Node 8, Type 0, BuildingBlock: PAMTOO_clean_sbu_0, # of connection points: 6
#     Node 9, Type 0, BuildingBlock: PAMTOO_clean_sbu_0, # of connection points: 6
#     Node 10, Type 0, BuildingBlock: PAMTOO_clean_sbu_0, # of connection points: 6
#     Node 11, Type 0, BuildingBlock: PAMTOO_clean_sbu_0, # of connection points: 6
#     Node 12, Type 0, BuildingBlock: PAMTOO_clean_sbu_0, # of connection points: 6
#     Node 13, Type 0, BuildingBlock: PAMTOO_clean_sbu_0, # of connection points: 6
#     Node 14, Type 0, BuildingBlock: PAMTOO_clean_sbu_0, # of connection points: 6
#     Node 15, Type 0, BuildingBlock: PAMTOO_clean_sbu_0, # of connection points: 6
#     Edge 16, Type (0, 0), BuildingBlock: XUDNAN_clean_linker_2, # of connection points: 2
#     Edge 17, Type (0, 0), BuildingBlock: XUDNAN_clean_linker_2, # of connection points: 2
#     Edge 18, Type (0, 0), BuildingBlock: XUDNAN_clean_linker_2, # of connection points: 2
#     Edge 19, Type (0, 0), BuildingBlock: XUDNAN_clean_linker_2, # of connection points: 2
#     Edge 20, Type (0, 0), BuildingBlock: XUDNAN_clean_linker_2, # of connection points: 2
#     Edge 21, Type (0, 0), BuildingBlock: XUDNAN_clean_linker_2, # of connection points: 2
#     Edge 22, Type (0, 0), BuildingBlock: XUDNAN_clean_linker_2, # of connection points: 2
#     Edge 23, Type (0, 0), BuildingBlock: XUDNAN_clean_linker_2, # of connection points: 2
#     Edge 24, Type (0, 0), BuildingBlock: XUDNAN_clean_linker_2, # of connection points: 2
#     Edge 25, Type (0, 0), BuildingBlock: XUDNAN_clean_linker_2, # of connection points: 2
#     Edge 26, Type (0, 0), BuildingBlock: XUDNAN_clean_linker_2, # of connection points: 2
#     Edge 27, Type (0, 0), BuildingBlock: XUDNAN_clean_linker_2, # of connection points: 2
#     Edge 28, Type (0, 0), BuildingBlock: XUDNAN_clean_linker_2, # of connection points: 2
#     Edge 29, Type (0, 0), BuildingBlock: XUDNAN_clean_linker_2, # of connection points: 2
#     Edge 30, Type (0, 0), BuildingBlock: XUDNAN_clean_linker_2, # of connection points: 2
#     Edge 31, Type (0, 0), BuildingBlock: XUDNAN_clean_linker_2, # of connection points: 2
#     Edge 32, Type (0, 0), BuildingBlock: XUDNAN_clean_linker_2, # of connection points: 2
#     Edge 33, Type (0, 0), BuildingBlock: XUDNAN_clean_linker_2, # of connection points: 2
#     Edge 34, Type (0, 0), BuildingBlock: XUDNAN_clean_linker_2, # of connection points: 2
#     Edge 35, Type (0, 0), BuildingBlock: XUDNAN_clean_linker_2, # of connection points: 2
#     Edge 36, Type (0, 0), BuildingBlock: XUDNAN_clean_linker_2, # of connection points: 2
#     Edge 37, Type (0, 0), BuildingBlock: XUDNAN_clean_linker_2, # of connection points: 2
#     Edge 38, Type (0, 0), BuildingBlock: XUDNAN_clean_linker_2, # of connection points: 2
#     Edge 39, Type (0, 0), BuildingBlock: XUDNAN_clean_linker_2, # of connection points: 2
#     Edge 40, Type (0, 0), BuildingBlock: XUDNAN_clean_linker_2, # of connection points: 2
#     Edge 41, Type (0, 0), BuildingBlock: XUDNAN_clean_linker_2, # of connection points: 2
#     Edge 42, Type (0, 0), BuildingBlock: XUDNAN_clean_linker_2, # of connection points: 2
#     Edge 43, Type (0, 0), BuildingBlock: XUDNAN_clean_linker_2, # of connection points: 2
#     Edge 44, Type (0, 0), BuildingBlock: XUDNAN_clean_linker_2, # of connection points: 2
#     Edge 45, Type (0, 0), BuildingBlock: XUDNAN_clean_linker_2, # of connection points: 2
#     Edge 46, Type (0, 0), BuildingBlock: XUDNAN_clean_linker_2, # of connection points: 2
#     Edge 47, Type (0, 0), BuildingBlock: XUDNAN_clean_linker_2, # of connection points: 2
#     Edge 48, Type (0, 0), BuildingBlock: XUDNAN_clean_linker_2, # of connection points: 2
#     Edge 49, Type (0, 0), BuildingBlock: XUDNAN_clean_linker_2, # of connection points: 2
#     Edge 50, Type (0, 0), BuildingBlock: XUDNAN_clean_linker_2, # of connection points: 2
#     Edge 51, Type (0, 0), BuildingBlock: XUDNAN_clean_linker_2, # of connection points: 2
#     Edge 52, Type (0, 0), BuildingBlock: XUDNAN_clean_linker_2, # of connection points: 2
#     Edge 53, Type (0, 0), BuildingBlock: XUDNAN_clean_linker_2, # of connection points: 2
#     Edge 54, Type (0, 0), BuildingBlock: XUDNAN_clean_linker_2, # of connection points: 2
#     Edge 55, Type (0, 0), BuildingBlock: XUDNAN_clean_linker_2, # of connection points: 2
#     Edge 56, Type (0, 0), BuildingBlock: XUDNAN_clean_linker_2, # of connection points: 2
#     Edge 57, Type (0, 0), BuildingBlock: XUDNAN_clean_linker_2, # of connection points: 2
#     Edge 58, Type (0, 0), BuildingBlock: XUDNAN_clean_linker_2, # of connection points: 2
#     Edge 59, Type (0, 0), BuildingBlock: XUDNAN_clean_linker_2, # of connection points: 2
#     Edge 60, Type (0, 0), BuildingBlock: XUDNAN_clean_linker_2, # of connection points: 2
#     Edge 61, Type (0, 0), BuildingBlock: XUDNAN_clean_linker_2, # of connection points: 2
#     Edge 62, Type (0, 0), BuildingBlock: XUDNAN_clean_linker_2, # of connection points: 2
#     Edge 63, Type (0, 0), BuildingBlock: XUDNAN_clean_linker_2, # of connection points: 2
# Relax obj value: 0.657
# Max RMSD: 0.306
# Mean RMSD: 0.306
data_MOF--net-whz--node1-PAMTOO_clean_sbu_0--edge1-XUDNAN_clean_linker_2
_symmetry_space_group_name_H-M    P1
_symmetry_Int_Tables_number       1
_symmetry_cell_setting            triclinic
loop_
_symmetry_equiv_pos_as_xyz
'x, y, z'
_cell_length_a     33.870613
_cell_length_b     33.885637
_cell_length_c     71.954664
_cell_angle_alpha  89.884733
_cell_angle_beta   89.942471
_cell_angle_gamma 89.747986
loop_
_atom_site_label
_atom_site_type_symbol
_atom_site_fract_x
_atom_site_fract_y
_atom_site_fract_z
_atom_type_partial_charge
Dy0 Dy 0.32423 0.18722 0.13699 0.0
Dy1 Dy 0.32373 0.25016 0.17165 0.0
C2 C 0.29747 0.27543 0.13299 0.0
O3 O 0.37907 0.22399 0.13418 0.0
O4 O 0.38772 0.24359 0.16449 0.0
O5 O 0.3532 0.15945 0.11336 0.0
O6 O 0.292 0.14733 0.11931 0.0
O7 O 0.33134 0.19237 0.18553 0.0
O8 O 0.35395 0.15446 0.16097 0.0
O9 O 0.26223 0.22524 0.16993 0.0
O10 O 0.2777 0.16613 0.1563 0.0
O11 O 0.30377 0.30862 0.17867 0.0
O12 O 0.33592 0.27376 0.19899 0.0
C13 C 0.40148 0.23809 0.14757 0.0
O14 O 0.28521 0.23945 0.12987 0.0
O15 O 0.32702 0.27969 0.14429 0.0
C16 C 0.31084 0.1454 0.08737 0.0
C17 C 0.29213 0.14391 0.04879 0.0
C18 C 0.33101 0.15105 0.05484 0.0
C19 C 0.34025 0.15169 0.07387 0.0
C20 C 0.27195 0.13859 0.08131 0.0
C21 C 0.26273 0.13798 0.06234 0.0
C22 C 0.32086 0.14277 0.10753 0.0
C23 C 0.34802 0.16016 0.17903 0.0
C24 C 0.25347 0.18837 0.16596 0.0
C25 C 0.28216 0.31352 0.20928 0.0
C26 C 0.21226 0.32803 0.22972 0.0
C27 C 0.2308 0.2906 0.23011 0.0
C28 C 0.26482 0.28324 0.21972 0.0
C29 C 0.2653 0.35132 0.20966 0.0
C30 C 0.23031 0.35838 0.21941 0.0
C31 C 0.31416 0.30512 0.19602 0.0
H32 H 0.35442 0.1561 0.04487 0.0
H33 H 0.37059 0.15657 0.07798 0.0
H34 H 0.24859 0.13291 0.09124 0.0
H35 H 0.23263 0.13165 0.05831 0.0
H36 H 0.21934 0.26667 0.23846 0.0
H37 H 0.27715 0.25367 0.21964 0.0
H38 H 0.27863 0.37517 0.20192 0.0
H39 H 0.2173 0.38753 0.21853 0.0
Dy40 Dy 0.64085 0.567 0.38678 0.0
Dy41 Dy 0.60721 0.58368 0.42937 0.0
C42 C 0.56014 0.52642 0.40195 0.0
O43 O 0.62208 0.63071 0.38828 0.0
O44 O 0.57501 0.62548 0.41093 0.0
O45 O 0.6356 0.57851 0.35737 0.0
O46 O 0.68695 0.54705 0.36778 0.0
O47 O 0.65643 0.62405 0.42283 0.0
O48 O 0.69116 0.57944 0.40676 0.0
O49 O 0.64556 0.52901 0.43107 0.0
O50 O 0.64378 0.50787 0.40055 0.0
O51 O 0.62042 0.59123 0.45838 0.0
O52 O 0.56011 0.59823 0.44848 0.0
C53 C 0.59073 0.64448 0.39692 0.0
O54 O 0.57954 0.53996 0.38729 0.0
O55 O 0.56998 0.53519 0.41907 0.0
C56 C 0.67265 0.54114 0.33481 0.0
C57 C 0.68846 0.51876 0.29739 0.0
C58 C 0.65226 0.53651 0.30228 0.0
C59 C 0.64452 0.54766 0.32071 0.0
C60 C 0.70784 0.52135 0.33012 0.0
C61 C 0.71557 0.51017 0.3117 0.0
C62 C 0.66887 0.56118 0.35317 0.0
C63 C 0.69027 0.60725 0.41949 0.0
C64 C 0.65101 0.50155 0.4183 0.0
C65 C 0.57993 0.63746 0.47384 0.0
C66 C 0.58225 0.69736 0.50084 0.0
C67 C 0.60467 0.70075 0.48442 0.0
C68 C 0.60372 0.6708 0.47103 0.0
C69 C 0.5541 0.63638 0.48896 0.0
C70 C 0.55509 0.66605 0.50231 0.0
C71 C 0.58432 0.60187 0.46244 0.0
H72 H 0.63068 0.54377 0.29171 0.0
H73 H 0.61728 0.56326 0.32368 0.0
H74 H 0.73034 0.51616 0.34054 0.0
H75 H 0.74338 0.49574 0.30859 0.0
H76 H 0.62536 0.72475 0.4827 0.0
H77 H 0.6234 0.67242 0.45918 0.0
H78 H 0.53518 0.61109 0.49118 0.0
H79 H 0.5374 0.66192 0.51469 0.0
Dy80 Dy 0.26286 0.88981 0.63825 0.0
Dy81 Dy 0.2675 0.82455 0.6717 0.0
C82 C 0.29104 0.80233 0.63257 0.0
O83 O 0.20834 0.85264 0.63564 0.0
O84 O 0.20313 0.82697 0.66521 0.0
O85 O 0.23124 0.9215 0.6165 0.0
O86 O 0.29448 0.92742 0.61923 0.0
O87 O 0.2524 0.87898 0.68708 0.0
O88 O 0.23439 0.92092 0.66299 0.0
O89 O 0.32662 0.85486 0.6703 0.0
O90 O 0.30695 0.91386 0.65786 0.0
O91 O 0.29545 0.76872 0.6776 0.0
O92 O 0.25615 0.79542 0.69791 0.0
C93 C 0.18773 0.83525 0.64887 0.0
O94 O 0.30292 0.83876 0.6303 0.0
O95 O 0.26227 0.79659 0.64414 0.0
C96 C 0.26828 0.93316 0.58854 0.0
C97 C 0.27835 0.9365 0.54928 0.0
C98 C 0.31044 0.92796 0.56108 0.0
C99 C 0.3055 0.92634 0.5804 0.0
C100 C 0.23605 0.94108 0.5768 0.0
C101 C 0.24096 0.94258 0.55744 0.0
C102 C 0.26355 0.93541 0.60912 0.0
C103 C 0.23658 0.91206 0.68098 0.0
C104 C 0.33262 0.89265 0.66715 0.0
C105 C 0.31445 0.76359 0.70865 0.0
C106 C 0.38125 0.75822 0.7319 0.0
C107 C 0.35561 0.79103 0.73288 0.0
C108 C 0.32288 0.7939 0.72125 0.0
C109 C 0.3392 0.73031 0.70796 0.0
C110 C 0.37246 0.72772 0.71938 0.0
C111 C 0.28298 0.76835 0.69475 0.0
H112 H 0.33982 0.92376 0.55546 0.0
H113 H 0.33119 0.92061 0.58896 0.0
H114 H 0.20707 0.9468 0.5826 0.0
H115 H 0.2154 0.94872 0.54886 0.0
H116 H 0.36045 0.81452 0.74279 0.0
H117 H 0.30454 0.82012 0.72199 0.0
H118 H 0.33329 0.70672 0.69827 0.0
H119 H 0.39146 0.70206 0.71822 0.0
Dy120 Dy 0.93388 0.50784 0.88374 0.0
Dy121 Dy 0.98611 0.50096 0.92245 0.0
C122 C 1.01933 0.54311 0.88771 0.0
O123 O 0.97534 0.45584 0.88194 0.0
O124 O 0.97649 0.43963 0.91255 0.0
O125 O 0.9321 0.48916 0.85518 0.0
O126 O 0.88374 0.52401 0.86606 0.0
O127 O 0.92417 0.5005 0.93169 0.0
O128 O 0.89671 0.47445 0.9052 0.0
O129 O 0.95849 0.56096 0.92442 0.0
O130 O 0.91675 0.56294 0.89888 0.0
O131 O 1.0072 0.46675 0.94595 0.0
O132 O 1.02965 0.52574 0.94063 0.0
C133 C 0.98114 0.42973 0.89515 0.0
O134 O 0.98372 0.55164 0.88169 0.0
O135 O 1.0244 0.51159 0.89795 0.0
C136 C 0.89506 0.52597 0.83281 0.0
C137 C 0.88546 0.54778 0.79478 0.0
C138 C 0.92338 0.54377 0.80264 0.0
C139 C 0.92812 0.5329 0.82138 0.0
C140 C 0.85729 0.53188 0.82525 0.0
C141 C 0.85253 0.54274 0.80654 0.0
C142 C 0.89891 0.50696 0.85144 0.0
C143 C 0.89531 0.48228 0.92327 0.0
C144 C 0.93087 0.57827 0.91434 0.0
C145 C 0.07277 0.4809 0.95542 0.0
C146 C 0.1515 0.47901 0.96772 0.0
C147 C 0.12024 0.47086 0.98008 0.0
C148 C 0.08122 0.4721 0.97398 0.0
C149 C 0.10381 0.48342 0.94252 0.0
C150 C 0.14304 0.4826 0.94865 0.0
C151 C 1.03253 0.49377 0.95071 0.0
H152 H 0.94949 0.54728 0.79411 0.0
H153 H 0.95771 0.52841 0.8267 0.0
H154 H 0.83126 0.52657 0.83363 0.0
H155 H 0.82286 0.54647 0.80122 0.0
H156 H 0.12534 0.46816 0.99489 0.0
H157 H 0.05762 0.46965 0.98409 0.0
H158 H 0.09774 0.48914 0.92802 0.0
H159 H 0.16648 0.48841 0.9388 0.0
Dy160 Dy 0.72342 0.86049 0.9071 0.0
Dy161 Dy 0.74219 0.90426 0.94726 0.0
C162 C 0.69479 0.94443 0.91334 0.0
O163 O 0.76883 0.90507 0.89934 0.0
O164 O 0.7937 0.91873 0.92856 0.0
O165 O 0.7148 0.80435 0.89376 0.0
O166 O 0.71006 0.85857 0.87773 0.0
O167 O 0.76362 0.84087 0.94887 0.0
O168 O 0.78009 0.83915 0.91833 0.0
O169 O 0.68078 0.87934 0.94993 0.0
O170 O 0.68726 0.83015 0.9284 0.0
O171 O 0.72419 0.94108 0.97063 0.0
O172 O 0.7836 0.91742 0.96912 0.0
C173 C 0.79565 0.9206 0.91024 0.0
O174 O 0.68052 0.90897 0.91112 0.0
O175 O 0.72271 0.94987 0.92588 0.0
C176 C 0.74846 0.80594 0.86563 0.0
C177 C 0.81959 0.77662 0.8506 0.0
C178 C 0.78902 0.75064 0.8555 0.0
C179 C 0.75375 0.76522 0.86299 0.0
C180 C 0.77863 0.8319 0.8603 0.0
C181 C 0.81365 0.81742 0.8528 0.0
C182 C 0.71575 0.82033 0.87726 0.0
C183 C 0.78299 0.82436 0.935 0.0
C184 C 0.66771 0.84704 0.94192 0.0
C185 C 0.75932 0.93251 0.99943 0.0
C186 C 0.77065 0.92696 1.0386 0.0
C187 C 0.77561 0.89368 1.02702 0.0
C188 C 0.77015 0.89644 1.0077 0.0
C189 C 0.75312 0.96537 1.01095 0.0
C190 C 0.75866 0.96269 1.03024 0.0
C191 C 0.75836 0.93783 0.97891 0.0
H192 H 0.79269 0.71906 0.85391 0.0
H193 H 0.73126 0.74459 0.86742 0.0
H194 H 0.77584 0.86342 0.86244 0.0
H195 H 0.83599 0.83841 0.8486 0.0
H196 H 0.7855 0.86577 1.03274 0.0
H197 H 0.77558 0.87067 0.99917 0.0
H198 H 0.74499 0.9936 1.00493 0.0
H199 H 0.75392 0.98885 1.03858 0.0
Dy200 Dy 0.49753 0.48761 0.65497 0.0
Dy201 Dy 0.4427 0.50928 0.69156 0.0
C202 C 0.41113 0.45936 0.65683 0.0
O203 O 0.46095 0.53824 0.64446 0.0
O204 O 0.4248 0.55529 0.67069 0.0
O205 O 0.55658 0.4777 0.64477 0.0
O206 O 0.50638 0.47006 0.62642 0.0
O207 O 0.50371 0.53575 0.69579 0.0
O208 O 0.51356 0.54654 0.66503 0.0
O209 O 0.46607 0.44741 0.69539 0.0
O210 O 0.52344 0.45651 0.67946 0.0
O211 O 0.40238 0.49096 0.71356 0.0
O212 O 0.42302 0.55134 0.71209 0.0
C213 C 0.43511 0.56076 0.65318 0.0
O214 O 0.44727 0.44588 0.65563 0.0
O215 O 0.40279 0.48883 0.66815 0.0
C216 C 0.56175 0.50533 0.61494 0.0
C217 C 0.58868 0.5755 0.59807 0.0
C218 C 0.55105 0.5604 0.5939 0.0
C219 C 0.53765 0.52589 0.60231 0.0
C220 C 0.60074 0.51811 0.61765 0.0
C221 C 0.61411 0.55283 0.60927 0.0
C222 C 0.54455 0.47552 0.62756 0.0
C223 C 0.5228 0.55375 0.68225 0.0
C224 C 0.50227 0.43639 0.69134 0.0
C225 C 0.40342 0.52797 0.74212 0.0
C226 C 0.39858 0.54019 0.78127 0.0
C227 C 0.43157 0.55328 0.77101 0.0
C228 C 0.43395 0.54729 0.75169 0.0
C229 C 0.37101 0.5141 0.75236 0.0
C230 C 0.36859 0.52007 0.77162 0.0
C231 C 0.40234 0.52567 0.72144 0.0
H232 H 0.53132 0.57573 0.58448 0.0
H233 H 0.50766 0.51657 0.59959 0.0
H234 H 0.62014 0.50258 0.62717 0.0
H235 H 0.64359 0.56292 0.61241 0.0
H236 H 0.45555 0.56841 0.77787 0.0
H237 H 0.45931 0.55851 0.74421 0.0
H238 H 0.34678 0.49962 0.74534 0.0
H239 H 0.34238 0.51006 0.77882 0.0
Dy240 Dy 0.83128 0.23358 0.41095 0.0
Dy241 Dy 0.82499 0.17767 0.44853 0.0
C242 C 0.86534 0.1482 0.40996 0.0
O243 O 0.78591 0.18878 0.40283 0.0
O244 O 0.771 0.16391 0.4319 0.0
O245 O 0.82767 0.29389 0.40135 0.0
O246 O 0.83876 0.24636 0.38176 0.0
O247 O 0.80202 0.23882 0.45545 0.0
O248 O 0.77695 0.24686 0.42655 0.0
O249 O 0.8872 0.19907 0.4473 0.0
O250 O 0.87756 0.25571 0.43051 0.0
O251 O 0.85193 0.14613 0.47179 0.0
O252 O 0.78861 0.14789 0.4688 0.0
C253 C 0.76359 0.16759 0.414 0.0
O254 O 0.87458 0.18523 0.40702 0.0
O255 O 0.84291 0.13813 0.42431 0.0
C256 C 0.79151 0.29528 0.3736 0.0
C257 C 0.71806 0.31735 0.35811 0.0
C258 C 0.74293 0.34597 0.36596 0.0
C259 C 0.77933 0.33499 0.37367 0.0
C260 C 0.76678 0.26683 0.36562 0.0
C261 C 0.7307 0.27776 0.3579 0.0
C262 C 0.8271 0.28295 0.38396 0.0
C263 C 0.77711 0.2562 0.44406 0.0
C264 C 0.89967 0.23343 0.44128 0.0
C265 C 0.81328 0.14247 0.49971 0.0
C266 C 0.80106 0.14839 0.53878 0.0
C267 C 0.78196 0.1744 0.52633 0.0
C268 C 0.78798 0.1715 0.50708 0.0
C269 C 0.83233 0.11644 0.51206 0.0
C270 C 0.8263 0.1193 0.53135 0.0
C271 C 0.81807 0.13711 0.47928 0.0
H272 H 0.7341 0.37672 0.36628 0.0
H273 H 0.7976 0.35735 0.38004 0.0
H274 H 0.77491 0.23587 0.36556 0.0
H275 H 0.71297 0.25503 0.35148 0.0
H276 H 0.76172 0.19671 0.53145 0.0
H277 H 0.77245 0.19173 0.49795 0.0
H278 H 0.85167 0.09352 0.50676 0.0
H279 H 0.84165 0.09891 0.54045 0.0
Dy280 Dy 0.11262 0.60448 0.15058 0.0
Dy281 Dy 0.14892 0.57421 0.19154 0.0
C282 C 0.20137 0.61076 0.15933 0.0
O283 O 0.14577 0.54939 0.14345 0.0
O284 O 0.15348 0.52174 0.17268 0.0
O285 O 0.07578 0.60038 0.12617 0.0
O286 O 0.11576 0.64945 0.12925 0.0
O287 O 0.0839 0.56091 0.19289 0.0
O288 O 0.06939 0.56127 0.16154 0.0
O289 O 0.13079 0.63837 0.19393 0.0
O290 O 0.08203 0.64101 0.17182 0.0
O291 O 0.18599 0.58626 0.21555 0.0
O292 O 0.15644 0.52987 0.21289 0.0
C293 C 0.15429 0.51944 0.1544 0.0
O294 O 0.17014 0.63285 0.15713 0.0
O295 O 0.19931 0.58159 0.17132 0.0
C296 C 0.11243 0.62026 0.09972 0.0
C297 C 0.15887 0.60247 0.06803 0.0
C298 C 0.15224 0.64185 0.07348 0.0
C299 C 0.12921 0.65061 0.08911 0.0
C300 C 0.1174 0.58106 0.09388 0.0
C301 C 0.13981 0.57234 0.07814 0.0
C302 C 0.09394 0.62928 0.11782 0.0
C303 C 0.06077 0.55176 0.17879 0.0
C304 C 0.09958 0.65574 0.18648 0.0
C305 C 0.17664 0.5475 0.24362 0.0
C306 C 0.18086 0.53611 0.28283 0.0
C307 C 0.1798 0.50374 0.27059 0.0
C308 C 0.1777 0.50939 0.25134 0.0
C309 C 0.17711 0.58005 0.25572 0.0
C310 C 0.17904 0.57441 0.27509 0.0
C311 C 0.17949 0.5517 0.22305 0.0
H312 H 0.16603 0.66612 0.06621 0.0
H313 H 0.12593 0.6811 0.09338 0.0
H314 H 0.10469 0.55684 0.10167 0.0
H315 H 0.14189 0.54173 0.07403 0.0
H316 H 0.18196 0.4738 0.27579 0.0
H317 H 0.17814 0.48369 0.24239 0.0
H318 H 0.17667 0.60984 0.25024 0.0
H319 H 0.17929 0.60014 0.28398 0.0
Dy320 Dy 0.83015 0.70636 0.63274 0.0
Dy321 Dy 0.8402 0.76284 0.66992 0.0
C322 C 0.80001 0.79371 0.63403 0.0
O323 O 0.88823 0.73834 0.63208 0.0
O324 O 0.90011 0.74082 0.66301 0.0
O325 O 0.8393 0.70634 0.60308 0.0
O326 O 0.82053 0.65238 0.61677 0.0
O327 O 0.85271 0.70393 0.68164 0.0
O328 O 0.8533 0.66458 0.6552 0.0
O329 O 0.77665 0.7436 0.67139 0.0
O330 O 0.77473 0.69559 0.64843 0.0
O331 O 0.82726 0.78669 0.69706 0.0
O332 O 0.86956 0.81568 0.67911 0.0
C333 C 0.91304 0.74191 0.64595 0.0
O334 O 0.78855 0.75814 0.62944 0.0
O335 O 0.83186 0.79736 0.644 0.0
C336 C 0.81395 0.65593 0.58321 0.0
C337 C 0.79191 0.63482 0.54635 0.0
C338 C 0.77281 0.66618 0.55572 0.0
C339 C 0.78387 0.67677 0.57392 0.0
C340 C 0.83225 0.62421 0.57412 0.0
C341 C 0.82163 0.61392 0.55598 0.0
C342 C 0.83087 0.66911 0.60116 0.0
C343 C 0.85738 0.66972 0.67341 0.0
C344 C 0.75901 0.71413 0.66277 0.0
C345 C 0.8849 0.81068 0.7107 0.0
C346 C 0.93042 0.79538 0.74238 0.0
C347 C 0.93573 0.77252 0.72637 0.0
C348 C 0.91302 0.78009 0.71059 0.0
C349 C 0.88233 0.83592 0.72601 0.0
C350 C 0.90517 0.82839 0.7418 0.0
C351 C 0.85537 0.81282 0.69589 0.0
H352 H 0.74945 0.68275 0.54899 0.0
H353 H 0.76952 0.70166 0.58056 0.0
H354 H 0.85604 0.60814 0.58083 0.0
H355 H 0.83786 0.59026 0.54933 0.0
H356 H 0.9549 0.74688 0.72662 0.0
H357 H 0.91541 0.76032 0.69884 0.0
H358 H 0.86077 0.85963 0.72627 0.0
H359 H 0.90011 0.8459 0.75417 0.0
Dy360 Dy 0.13201 0.07914 0.88844 0.0
Dy361 Dy 0.07377 0.0874 0.92511 0.0
C362 C 0.04934 1.03818 0.89107 0.0
O363 O 0.11404 0.14279 0.88888 0.0
O364 O 0.05657 0.13505 0.90526 0.0
O365 O 0.16741 0.1027 0.8656 0.0
O366 O 0.15864 1.0398 0.8686 0.0
O367 O 0.12516 0.12563 0.93121 0.0
O368 O 0.17135 0.09472 0.9128 0.0
O369 O 0.11062 1.03566 0.93316 0.0
O370 O 0.14571 1.02577 0.90593 0.0
O371 O 0.05839 0.09082 0.9542 0.0
O372 O 1.01295 0.09516 0.933 0.0
C373 C 0.08002 0.15648 0.89488 0.0
O374 O 0.06936 0.06303 0.88075 0.0
O375 O 0.05792 1.0349 0.90861 0.0
C376 C 0.17015 0.06305 0.83779 0.0
C377 C 0.17509 0.04592 0.79917 0.0
C378 C 0.14997 1.02417 0.8109 0.0
C379 C 0.14744 1.03265 0.82993 0.0
C380 C 0.19408 0.08581 0.82597 0.0
C381 C 0.19637 0.07752 0.80688 0.0
C382 C 0.17322 0.06788 0.85832 0.0
C383 C 0.16196 0.11592 0.92761 0.0
C384 C 0.13578 1.01551 0.92299 0.0
C385 C 0.99869 0.05758 0.95916 0.0
C386 C 0.95521 0.99434 0.97413 0.0
C387 C 0.9454 1.03378 0.97853 0.0
C388 C 0.96691 0.06512 0.97104 0.0
C389 C 1.00856 1.01859 0.95461 0.0
C390 C 0.98724 0.98733 0.9621 0.0
C391 C 1.02057 0.08998 0.95061 0.0
H392 H 0.1327 1.00002 0.80542 0.0
H393 H 0.12865 1.01445 0.83857 0.0
H394 H 0.21224 0.10911 0.83164 0.0
H395 H 0.21622 0.09473 0.79832 0.0
H396 H 0.92191 1.04063 0.98822 0.0
H397 H 0.95888 0.09516 0.97459 0.0
H398 H 1.03284 1.0123 0.94524 0.0
H399 H 0.99602 0.95767 0.95841 0.0
Dy400 Dy 0.75327 0.38438 0.13401 0.0
Dy401 Dy 0.73954 0.34443 0.17591 0.0
C402 C 0.78975 0.30064 0.14516 0.0
O403 O 0.69057 0.36264 0.13407 0.0
O404 O 0.69459 0.31686 0.15768 0.0
O405 O 0.73324 0.42215 0.11121 0.0
O406 O 0.79086 0.39391 0.1103 0.0
O407 O 0.69942 0.39524 0.17135 0.0
O408 O 0.74312 0.43202 0.15567 0.0
O409 O 0.79224 0.38318 0.17994 0.0
O410 O 0.80941 0.39574 0.14944 0.0
O411 O 0.73501 0.35133 0.20549 0.0
O412 O 0.72542 0.29376 0.19301 0.0
C413 C 0.67569 0.33312 0.14371 0.0
O414 O 0.76988 0.31979 0.13218 0.0
O415 O 0.78881 0.31215 0.16253 0.0
C416 C 0.76363 0.4135 0.08101 0.0
C417 C 0.77301 0.41623 0.0417 0.0
C418 C 0.78469 0.38264 0.05194 0.0
C419 C 0.78016 0.38133 0.07135 0.0
C420 C 0.75025 0.44617 0.07073 0.0
C421 C 0.75479 0.44753 0.05136 0.0
C422 C 0.76558 0.41648 0.10163 0.0
C423 C 0.71604 0.42938 0.16875 0.0
C424 C 0.81678 0.39724 0.1674 0.0
C425 C 0.68826 0.31028 0.21975 0.0
C426 C 0.63025 0.31326 0.24752 0.0
C427 C 0.62661 0.33705 0.23165 0.0
C428 C 0.65552 0.33557 0.21776 0.0
C429 C 0.68951 0.28353 0.23457 0.0
C430 C 0.66057 0.28489 0.24835 0.0
C431 C 0.72348 0.31501 0.20809 0.0
H432 H 0.79911 0.35806 0.04509 0.0
H433 H 0.79111 0.35579 0.07886 0.0
H434 H 0.73769 0.47152 0.07778 0.0
H435 H 0.7448 0.47361 0.04399 0.0
H436 H 0.60321 0.35883 0.23077 0.0
H437 H 0.65388 0.35615 0.20623 0.0
H438 H 0.71443 0.26367 0.23623 0.0
H439 H 0.66419 0.26654 0.26059 0.0
Dy440 Dy 0.43002 0.99222 0.38861 0.0
Dy441 Dy 0.47295 0.97162 0.42877 0.0
C442 C 0.51419 1.02547 0.39911 0.0
O443 O 0.45028 0.92908 0.38586 0.0
O444 O 0.49846 0.92995 0.40824 0.0
O445 O 0.39002 0.97697 0.36601 0.0
O446 O 0.41911 1.03386 0.36655 0.0
O447 O 0.42091 0.93322 0.42571 0.0
O448 O 0.38376 0.97854 0.41056 0.0
O449 O 0.43331 1.02239 0.43588 0.0
O450 O 0.42182 0.04631 0.40631 0.0
O451 O 0.52629 0.95069 0.44169 0.0
O452 O 0.47541 0.96546 0.4587 0.0
C453 C 0.48064 0.91276 0.39434 0.0
O454 O 0.49479 1.00729 0.3858 0.0
O455 O 0.50166 1.02365 0.41628 0.0
C456 C 0.39772 1.0113 0.33689 0.0
C457 C 0.39679 1.02592 0.29801 0.0
C458 C 0.36216 1.01492 0.3075 0.0
C459 C 0.36267 1.00772 0.32668 0.0
C460 C 0.43282 1.02053 0.32738 0.0
C461 C 0.43238 1.02759 0.30812 0.0
C462 C 0.39545 1.01057 0.35748 0.0
C463 C 0.38674 0.95039 0.4232 0.0
C464 C 0.42037 0.05003 0.42454 0.0
C465 C 0.53898 0.98545 0.46871 0.0
C466 C 0.59334 1.04122 0.4821 0.0
C467 C 0.60503 1.00185 0.47914 0.0
C468 C 0.57801 0.9742 0.47256 0.0
C469 C 0.52706 1.02457 0.4719 0.0
C470 C 0.55387 0.05207 0.47867 0.0
C471 C 0.51342 0.95844 0.45835 0.0
H472 H 0.33436 1.01273 0.30017 0.0
H473 H 0.33519 1.00086 0.33368 0.0
H474 H 0.46026 1.02375 0.33493 0.0
H475 H 0.45956 1.03617 0.30132 0.0
H476 H 0.63526 0.99259 0.48149 0.0
H477 H 0.588 0.94437 0.46975 0.0
H478 H 0.49732 1.03427 0.46866 0.0
H479 H 0.54356 0.08187 0.48121 0.0
Dy480 Dy 0.23618 0.33832 0.40625 0.0
Dy481 Dy 0.24351 0.38618 0.44572 0.0
C482 C 0.20679 0.42362 0.40853 0.0
O483 O 0.28901 0.37798 0.40301 0.0
O484 O 0.30438 0.38624 0.43398 0.0
O485 O 0.2359 0.33767 0.37634 0.0
O486 O 0.22185 0.28446 0.39177 0.0
O487 O 0.26808 0.32409 0.45059 0.0
O488 O 0.28542 0.30878 0.42052 0.0
O489 O 0.18023 0.36829 0.44188 0.0
O490 O 0.19534 0.31126 0.42697 0.0
O491 O 0.224 0.39098 0.4742 0.0
O492 O 0.26407 0.43452 0.46305 0.0
C493 C 0.3137 0.38835 0.41626 0.0
O494 O 0.19368 0.38791 0.40609 0.0
O495 O 0.23125 0.4303 0.42243 0.0
C496 C 0.18687 0.29689 0.36417 0.0
C497 C 0.12499 0.29992 0.33819 0.0
C498 C 0.12125 0.31928 0.35539 0.0
C499 C 0.15208 0.31782 0.3683 0.0
C500 C 0.18914 0.27451 0.34795 0.0
C501 C 0.15844 0.27584 0.33508 0.0
C502 C 0.22226 0.30175 0.37558 0.0
C503 C 0.28784 0.30226 0.43842 0.0
C504 C 0.17088 0.33233 0.43695 0.0
C505 C 0.26503 0.42358 0.49599 0.0
C506 C 0.2957 0.42344 0.5328 0.0
C507 C 0.30578 0.39332 0.52007 0.0
C508 C 0.29053 0.39332 0.5019 0.0
C509 C 0.25591 0.45426 0.50838 0.0
C510 C 0.27102 0.45426 0.52653 0.0
C511 C 0.24491 0.42229 0.47769 0.0
H512 H 0.09592 0.33793 0.35824 0.0
H513 H 0.14983 0.33501 0.38094 0.0
H514 H 0.21575 0.25808 0.34464 0.0
H515 H 0.16289 0.26094 0.32194 0.0
H516 H 0.32525 0.36943 0.52417 0.0
H517 H 0.29798 0.36928 0.49261 0.0
H518 H 0.23604 0.47778 0.50417 0.0
H519 H 0.26212 0.47773 0.53584 0.0
Dy520 Dy 0.97459 0.96701 0.15741 0.0
Dy521 Dy 0.93096 0.99416 0.19606 0.0
C522 C 0.88646 0.95053 0.16336 0.0
O523 O 0.93684 1.01879 0.14867 0.0
O524 O 0.92644 0.04657 0.17749 0.0
O525 O 0.99479 0.97299 0.12906 0.0
O526 O 1.0012 0.91725 0.14362 0.0
O527 O 0.99343 1.01723 0.19873 0.0
O528 O 1.01349 1.01407 0.16799 0.0
O529 O 0.95513 0.93226 0.19918 0.0
O530 O 1.0088 0.94141 0.18089 0.0
O531 O 0.89196 0.97739 0.21887 0.0
O532 O 0.91622 1.03628 0.2174 0.0
C533 C 0.92592 0.04868 0.15925 0.0
O534 O 0.92012 0.9321 0.1621 0.0
O535 O 0.88429 0.98166 0.17418 0.0
C536 C 0.9852 0.9149 0.11205 0.0
C537 C 0.9486 0.8821 0.08063 0.0
C538 C 0.92828 0.88413 0.09766 0.0
C539 C 0.94639 0.90064 0.11324 0.0
C540 C 1.0062 0.91121 0.09546 0.0
C541 C 0.98811 0.8951 0.07988 0.0
C542 C 1.00324 0.9355 0.1277 0.0
C543 C 1.01806 1.02663 0.18512 0.0
C544 C 0.99085 0.92183 0.194 0.0
C545 C 0.89841 1.01304 0.24766 0.0
C546 C 0.89664 1.02512 0.28681 0.0
C547 C 0.86745 1.00248 0.27792 0.0
C548 C 0.8683 0.99663 0.25862 0.0
C549 C 0.92842 1.03452 0.25655 0.0
C550 C 0.92754 1.04046 0.27586 0.0
C551 C 0.89502 1.01161 0.22703 0.0
H552 H 0.89791 0.87449 0.09876 0.0
H553 H 0.92973 0.90335 0.12603 0.0
H554 H 1.0361 0.92224 0.09435 0.0
H555 H 1.00452 0.89527 0.06696 0.0
H556 H 0.84291 0.99056 0.28575 0.0
H557 H 0.8445 0.98042 0.25216 0.0
H558 H 0.95204 0.04771 0.24854 0.0
H559 H 0.95089 0.05753 0.28218 0.0
Dy560 Dy 0.3336 0.75387 0.91091 0.0
Dy561 Dy 0.32135 0.68927 0.94447 0.0
C562 C 0.35621 0.66303 0.90316 0.0
O563 O 0.26996 0.73416 0.90917 0.0
O564 O 0.27916 0.67303 0.9223 0.0
O565 O 0.32517 0.77979 0.88374 0.0
O566 O 0.35779 0.81126 0.9049 0.0
O567 O 0.27988 0.74068 0.94954 0.0
O568 O 0.32333 0.78362 0.93774 0.0
O569 O 0.37405 0.7271 0.95091 0.0
O570 O 0.39266 0.73419 0.92083 0.0
O571 O 0.34562 0.64794 0.96464 0.0
O572 O 0.28293 0.66126 0.96443 0.0
C573 C 0.25795 0.69772 0.91233 0.0
O574 O 0.35294 0.69933 0.89696 0.0
O575 O 0.34714 0.65283 0.92052 0.0
C576 C 0.3826 0.81246 0.87449 0.0
C577 C 0.44029 0.8051 0.84659 0.0
C578 C 0.44648 0.78804 0.86416 0.0
C579 C 0.41777 0.79156 0.87798 0.0
C580 C 0.37779 0.83228 0.8576 0.0
C581 C 0.40644 0.82873 0.84375 0.0
C582 C 0.34913 0.80888 0.88729 0.0
C583 C 0.29083 0.77729 0.94682 0.0
C584 C 0.40143 0.73492 0.93852 0.0
C585 C 0.31097 0.64206 0.99359 0.0
C586 C 0.3033 0.63177 1.03269 0.0
C587 C 0.28278 0.66225 1.02341 0.0
C588 C 0.28642 0.66723 1.00408 0.0
C589 C 0.33285 0.61297 1.00293 0.0
C590 C 0.3293 0.60803 1.02218 0.0
C591 C 0.31165 0.6429 0.97292 0.0
H592 H 0.47223 0.76979 0.86677 0.0
H593 H 0.42201 0.77597 0.89099 0.0
H594 H 0.35075 0.84834 0.85467 0.0
H595 H 0.40028 0.84173 0.83029 0.0
H596 H 0.26224 0.68098 1.03087 0.0
H597 H 0.26901 0.68993 0.99729 0.0
H598 H 0.35202 0.5932 0.99524 0.0
H599 H 0.34658 0.58497 1.02875 0.0
Dy600 Dy 0.60917 0.1207 0.6587 0.0
Dy601 Dy 0.65359 0.08758 0.69675 0.0
C602 C 0.69942 0.13027 0.66452 0.0
O603 O 0.64234 0.06731 0.64848 0.0
O604 O 0.66362 1.03931 0.67619 0.0
O605 O 0.58251 0.11819 0.63147 0.0
O606 O 0.59332 0.17464 0.64449 0.0
O607 O 0.59119 0.06459 0.69875 0.0
O608 O 0.56626 0.07706 0.66929 0.0
O609 O 0.63369 0.15087 0.70062 0.0
O610 O 0.57863 0.14797 0.68279 0.0
O611 O 0.69487 0.10023 0.71912 0.0
O612 O 0.6638 0.04448 0.71834 0.0
C613 C 0.65864 1.03827 0.65804 0.0
O614 O 0.66663 0.15046 0.66374 0.0
O615 O 0.70101 0.09907 0.67529 0.0
C616 C 0.60665 0.16913 0.61275 0.0
C617 C 0.64862 0.1825 0.57963 0.0
C618 C 0.66843 0.17008 0.59572 0.0
C619 C 0.64765 0.1633 0.61213 0.0
C620 C 0.58705 0.18435 0.59719 0.0
C621 C 0.60793 0.19111 0.58072 0.0
C622 C 0.58449 0.15634 0.62916 0.0
C623 C 0.56402 0.06018 0.68572 0.0
C624 C 0.59929 0.16566 0.6956 0.0
C625 C 0.68496 0.06675 0.7482 0.0
C626 C 0.68461 0.05781 0.78753 0.0
C627 C 0.65082 0.04894 0.77692 0.0
C628 C 0.65097 0.05335 0.7575 0.0
C629 C 0.71828 0.07656 0.75878 0.0
C630 C 0.71815 0.07222 0.77816 0.0
C631 C 0.68807 0.06682 0.72759 0.0
H632 H 0.69944 0.16294 0.59518 0.0
H633 H 0.66319 0.15145 0.62405 0.0
H634 H 0.5554 0.18904 0.59748 0.0
H635 H 0.59158 0.19998 0.56846 0.0
H636 H 0.62426 1.0383 0.78362 0.0
H637 H 0.62479 0.04545 0.74975 0.0
H638 H 0.74502 0.08647 0.75198 0.0
H639 H 0.74494 0.07884 0.78571 0.0
H640 H 0.15446 0.27505 0.23955 0.0
H641 H 0.18708 0.39807 0.24576 0.0
H642 H 0.13547 0.40646 0.269 0.0
H643 H 0.04579 0.28369 0.25971 0.0
H644 H 0.05344 0.23787 0.27197 0.0
H645 H 0.0749 0.245 0.24926 0.0
H646 H 0.14403 0.228 0.26243 0.0
H647 H 0.1227 0.22035 0.28479 0.0
H648 H 0.16239 0.2553 0.28209 0.0
H649 H 0.09953 0.3986 0.29753 0.0
H650 H 0.10058 0.37437 0.32944 0.0
H651 H 0.09702 0.25413 0.30979 0.0
C652 C 0.15036 0.30399 0.24554 0.0
C653 C 0.17563 0.33556 0.24082 0.0
C654 C 0.16814 0.3732 0.24867 0.0
C655 C 0.13843 0.37836 0.26199 0.0
C656 C 0.11662 0.34562 0.26769 0.0
C657 C 0.12238 0.30892 0.25967 0.0
C658 C 0.10503 0.27644 0.27162 0.0
C659 C 0.06755 0.25979 0.2626 0.0
C660 C 0.13538 0.24319 0.27548 0.0
C661 C 0.09475 0.29982 0.28893 0.0
C662 C 0.09795 0.34005 0.28565 0.0
C663 C 0.0964 0.3673 0.30013 0.0
C664 C 0.09699 0.35318 0.31839 0.0
C665 C 0.10086 0.31232 0.32193 0.0
C666 C 0.09479 0.28553 0.30723 0.0
H667 H 0.54175 0.64017 0.59265 0.0
H668 H 0.66278 0.60005 0.58703 0.0
H669 H 0.67871 0.65988 0.56957 0.0
H670 H 0.52585 0.65359 0.55125 0.0
H671 H 0.49578 0.69775 0.55141 0.0
H672 H 0.49839 0.66773 0.5717 0.0
H673 H 0.52125 0.72767 0.59086 0.0
H674 H 0.51895 0.75825 0.57032 0.0
H675 H 0.56387 0.75547 0.58368 0.0
H676 H 0.67724 0.70549 0.54428 0.0
H677 H 0.65708 0.71415 0.51219 0.0
H678 H 0.53536 0.72507 0.52911 0.0
C679 C 0.57182 0.6445 0.58804 0.0
C680 C 0.60067 0.6149 0.59086 0.0
C681 C 0.63996 0.62215 0.58518 0.0
C682 C 0.64936 0.65651 0.57531 0.0
C683 C 0.61921 0.68334 0.57101 0.0
C684 C 0.58101 0.67776 0.57739 0.0
C685 C 0.55185 0.70311 0.56668 0.0
C686 C 0.51599 0.67905 0.55983 0.0
C687 C 0.5382 0.73821 0.5786 0.0
C688 C 0.57821 0.71709 0.55096 0.0
C689 C 0.61761 0.7091 0.55488 0.0
C690 C 0.64667 0.71228 0.54124 0.0
C691 C 0.63488 0.71741 0.5228 0.0
C692 C 0.59436 0.71807 0.51815 0.0
C693 C 0.56644 0.72357 0.5325 0.0
H694 H 0.42845 0.81781 0.74425 0.0
H695 H 0.40974 0.69187 0.74947 0.0
H696 H 0.45288 0.69022 0.77672 0.0
H697 H 0.53057 0.82201 0.77149 0.0
H698 H 0.51435 0.86727 0.78224 0.0
H699 H 0.50111 0.85679 0.75848 0.0
H700 H 0.42731 0.86683 0.76669 0.0
H701 H 0.44031 0.87734 0.79017 0.0
H702 H 0.40591 0.8382 0.7853 0.0
H703 H 0.47462 0.70371 0.80774 0.0
H704 H 0.46405 0.73009 0.83894 0.0
H705 H 0.46555 0.849 0.81701 0.0
C706 C 0.4346 0.78971 0.75082 0.0
C707 C 0.41529 0.75515 0.74485 0.0
C708 C 0.42444 0.71879 0.75356 0.0
C709 C 0.4492 0.71758 0.76912 0.0
C710 C 0.46457 0.75293 0.77587 0.0
C711 C 0.45793 0.78847 0.76682 0.0
C712 C 0.46785 0.8232 0.77918 0.0
C713 C 0.50573 0.8435 0.77245 0.0
C714 C 0.43327 0.85302 0.78042 0.0
C715 C 0.47494 0.80188 0.7974 0.0
C716 C 0.47597 0.76133 0.79486 0.0
C717 C 0.47505 0.73529 0.80987 0.0
C718 C 0.4691 0.75063 0.82767 0.0
C719 C 0.46342 0.79163 0.83027 0.0
C720 C 0.46985 0.81756 0.81523 0.0
H721 H 0.19563 0.45034 0.99668 0.0
H722 H 0.18938 0.54583 0.95701 0.0
H723 H 0.21785 0.5908 0.97972 0.0
H724 H 0.15887 0.4847 1.02932 0.0
H725 H 0.18889 0.47134 0.04907 0.0
H726 H 0.19183 0.44268 1.02836 0.0
H727 H 0.26679 0.45391 1.02642 0.0
H728 H 0.26482 0.48282 0.04745 0.0
H729 H 0.28632 0.50326 1.02664 0.0
H730 H 0.20413 0.62675 1.00775 0.0
H731 H 0.17394 0.64808 1.03677 0.0
H732 H 0.20056 0.53382 0.06128 0.0
C733 C 0.20327 0.48002 0.99249 0.0
C734 C 0.18868 0.49516 0.97553 0.0
C735 C 0.19938 0.53377 0.97011 0.0
C736 C 0.21563 0.55972 0.98304 0.0
C737 C 0.22265 0.54595 1.00102 0.0
C738 C 0.2197 0.50617 1.00545 0.0
C739 C 0.22158 0.50021 1.02636 0.0
C740 C 0.18827 0.47324 1.03366 0.0
C741 C 0.2623 0.48412 1.03206 0.0
C742 C 0.21662 0.54246 1.0328 0.0
C743 C 0.21886 0.56855 1.01804 0.0
C744 C 0.20486 0.60719 1.01965 0.0
C745 C 0.1874 0.61912 1.03638 0.0
C746 C 0.18409 0.5926 0.05156 0.0
C747 C 0.20148 0.55473 0.04993 0.0
H748 H 0.82581 0.71978 0.82432 0.0
H749 H 0.89543 0.8025 0.85598 0.0
H750 H 0.949 0.79706 0.83308 0.0
H751 H 0.92039 0.66424 0.8008 0.0
H752 H 0.88923 0.65827 0.78073 0.0
H753 H 0.86846 0.65442 0.80365 0.0
H754 H 0.81698 0.70745 0.79336 0.0
H755 H 0.84006 0.7123 0.77126 0.0
H756 H 0.83421 0.75524 0.78581 0.0
H757 H 0.9771 0.80713 0.8025 0.0
H758 H 0.98019 0.82449 0.76916 0.0
H759 H 0.89695 0.73247 0.75691 0.0
C760 C 0.8534 0.73464 0.82702 0.0
C761 C 0.85619 0.76224 0.84154 0.0
C762 C 0.89239 0.78184 0.84461 0.0
C763 C 0.92322 0.77854 0.83176 0.0
C764 C 0.91782 0.75463 0.81622 0.0
C765 C 0.88434 0.73156 0.81421 0.0
C766 C 0.88156 0.7148 0.79479 0.0
C767 C 0.89054 0.67031 0.79502 0.0
C768 C 0.84087 0.72308 0.78581 0.0
C769 C 0.91451 0.7375 0.78543 0.0
C770 C 0.93643 0.75886 0.79816 0.0
C771 C 0.96185 0.78905 0.79245 0.0
C772 C 0.96341 0.79895 0.77352 0.0
C773 C 0.94006 0.77834 0.76062 0.0
C774 C 0.917 0.74632 0.76654 0.0
H775 H 0.64348 0.37972 0.26591 0.0
H776 H 0.57996 0.27 0.26919 0.0
H777 H 0.57386 0.27779 0.30307 0.0
H778 H 0.7055 0.36267 0.294 0.0
H779 H 0.71163 0.40857 0.30636 0.0
H780 H 0.6911 0.40913 0.2836 0.0
H781 H 0.62894 0.4451 0.29558 0.0
H782 H 0.64988 0.44541 0.31863 0.0
H783 H 0.60146 0.42521 0.31484 0.0
H784 H 0.59635 0.28199 0.33471 0.0
H785 H 0.6477 0.27771 0.35866 0.0
H786 H 0.70479 0.3807 0.33546 0.0
C787 C 0.62548 0.35932 0.27373 0.0
C788 C 0.61122 0.32497 0.26509 0.0
C789 C 0.59004 0.29704 0.2756 0.0
C790 C 0.58649 0.30142 0.29489 0.0
C791 C 0.6048 0.33357 0.30343 0.0
C792 C 0.62335 0.36272 0.29307 0.0
C793 C 0.65026 0.38755 0.30517 0.0
C794 C 0.69205 0.39206 0.29679 0.0
C795 C 0.63151 0.42822 0.30877 0.0
C796 C 0.65008 0.36301 0.32278 0.0
C797 C 0.62098 0.33439 0.32211 0.0
C798 C 0.6186 0.30473 0.33552 0.0
C799 C 0.64827 0.30221 0.34897 0.0
C800 C 0.68071 0.32837 0.34856 0.0
C801 C 0.68005 0.36068 0.33617 0.0
H802 H 0.97704 0.84406 0.04998 0.0
H803 H 0.87339 0.90376 0.0712 0.0
H804 H 0.85169 0.91701 1.03959 0.0
H805 H 1.00412 0.91197 1.02554 0.0
H806 H 1.02345 0.88713 1.00529 0.0
H807 H 1.02019 0.86115 1.02675 0.0
H808 H 0.97792 0.80718 1.01113 0.0
H809 H 0.98129 0.83337 0.98933 0.0
H810 H 0.93366 0.82064 0.99871 0.0
H811 H 0.85118 0.94459 1.00904 0.0
H812 H 0.87737 0.98993 0.98551 0.0
H813 H 0.98683 0.92308 0.98449 0.0
C814 C 0.94856 0.85787 0.04781 0.0
C815 C 0.92745 0.87354 0.06302 0.0
C816 C 0.89012 0.89106 0.05988 0.0
C817 C 0.87711 0.89838 0.04178 0.0
C818 C 0.90123 0.88759 1.02693 0.0
C819 C 0.93624 0.867 1.02974 0.0
C820 C 0.96285 0.86991 1.01284 0.0
C821 C 1.00503 0.88344 1.01793 0.0
C822 C 0.96396 0.83043 1.00238 0.0
C823 C 0.94053 0.9007 1.0017 0.0
C824 C 0.90354 0.90776 1.00918 0.0
C825 C 0.87981 0.93881 1.0029 0.0
C826 C 0.8953 0.96498 0.98975 0.0
C827 C 0.93477 0.9609 0.98351 0.0
C828 C 0.95646 0.9269 0.98871 0.0
H829 H 0.64936 1.02953 0.50861 0.0
H830 H 0.59931 0.11972 0.47299 0.0
H831 H 0.63482 0.17065 0.49036 0.0
H832 H 0.63245 0.06844 0.54701 0.0
H833 H 0.6771 0.05585 0.55939 0.0
H834 H 0.66247 1.02694 0.53996 0.0
H835 H 0.72974 1.0397 0.52406 0.0
H836 H 0.74452 0.06857 0.54379 0.0
H837 H 0.74668 0.08946 0.52072 0.0
H838 H 0.65169 0.21029 0.51697 0.0
H839 H 0.64565 0.23224 0.54941 0.0
H840 H 0.69035 0.11941 0.56814 0.0
C841 C 0.64768 0.05979 0.50386 0.0
C842 C 0.62151 0.07065 0.48952 0.0
C843 C 0.61901 0.11069 0.48403 0.0
C844 C 0.63958 0.13985 0.4937 0.0
C845 C 0.66292 0.12855 0.50877 0.0
C846 C 0.66773 0.0892 0.51358 0.0
C847 C 0.68707 0.08494 0.53239 0.0
C848 C 0.66328 0.05754 0.54542 0.0
C849 C 0.72958 0.06985 0.53011 0.0
C850 C 0.68628 0.1276 0.53871 0.0
C851 C 0.67438 0.15264 0.52449 0.0
C852 C 0.66241 0.19143 0.52804 0.0
C853 C 0.65885 0.20373 0.54653 0.0
C854 C 0.66739 0.17731 0.56119 0.0
C855 C 0.6846 0.14036 0.55714 0.0
H856 H 0.15105 0.15658 0.96015 0.0
H857 H 0.23995 0.09188 0.92901 0.0
H858 H 0.2853 0.09639 0.95589 0.0
H859 H 0.21881 0.22165 0.98598 0.0
H860 H 0.18911 0.2191 1.00674 0.0
H861 H 0.16615 0.21513 0.98425 0.0
H862 H 0.13515 0.14852 0.99411 0.0
H863 H 0.15833 0.152 1.01652 0.0
H864 H 0.16675 0.10917 1.00222 0.0
H865 H 0.31846 0.10255 0.98768 0.0
H866 H 0.33638 0.11033 1.02074 0.0
H867 H 0.22513 0.17067 1.0308 0.0
C868 C 0.1804 0.14416 0.9587 0.0
C869 C 0.19194 0.12417 0.94226 0.0
C870 C 0.23048 0.10782 0.94127 0.0
C871 C 0.25642 0.11011 0.95653 0.0
C872 C 0.24351 0.12898 0.97271 0.0
C873 C 0.20645 0.14599 0.97378 0.0
C874 C 0.19839 0.16215 0.99306 0.0
C875 C 0.1928 0.20718 0.99247 0.0
C876 C 0.16254 0.14173 1.002 0.0
C877 C 0.23637 0.1509 1.00286 0.0
C878 C 0.26223 0.13212 0.99089 0.0
C879 C 0.29858 0.11772 0.99707 0.0
C880 C 0.3086 0.12246 1.01591 0.0
C881 C 0.28233 0.14127 1.02852 0.0
C882 C 0.24589 0.15592 1.02168 0.0
H883 H 0.64058 0.49199 0.26887 0.0
H884 H 0.76023 0.53007 0.28039 0.0
H885 H 0.77793 0.51957 0.2475 0.0
H886 H 0.66485 0.41571 0.23784 0.0
H887 H 0.6234 0.42461 0.22263 0.0
H888 H 0.62005 0.43774 0.24678 0.0
H889 H 0.60183 0.50915 0.23699 0.0
H890 H 0.6061 0.49578 0.21282 0.0
H891 H 0.63461 0.53616 0.22191 0.0
H892 H 0.78333 0.50279 0.21317 0.0
H893 H 0.77791 0.47321 0.18191 0.0
H894 H 0.65558 0.44429 0.19298 0.0
C895 C 0.6704 0.49858 0.26448 0.0
C896 C 0.69898 0.51174 0.27741 0.0
C897 C 0.73783 0.51939 0.27095 0.0
C898 C 0.7481 0.51402 0.25218 0.0
C899 C 0.7192 0.50115 0.23984 0.0
C900 C 0.6812 0.49332 0.24577 0.0
C901 C 0.65634 0.4775 0.22996 0.0
C902 C 0.64023 0.43641 0.23461 0.0
C903 C 0.62273 0.50638 0.22514 0.0
C904 C 0.68671 0.47575 0.21446 0.0
C905 C 0.7225 0.49073 0.22025 0.0
C906 C 0.75532 0.49124 0.20848 0.0
C907 C 0.75189 0.4746 0.19065 0.0
C908 C 0.71622 0.45669 0.1849 0.0
C909 C 0.68304 0.4583 0.19686 0.0
H910 H 0.32779 0.89306 0.52648 0.0
H911 H 0.24328 0.98972 0.52535 0.0
H912 H 0.25575 0.9987 0.49181 0.0
H913 H 0.39756 0.93816 0.49689 0.0
H914 H 0.41223 0.89291 0.48568 0.0
H915 H 0.39355 0.89181 0.50908 0.0
H916 H 0.33998 0.84175 0.49905 0.0
H917 H 0.35836 0.84303 0.47554 0.0
H918 H 0.30717 0.85405 0.48016 0.0
H919 H 0.28216 1.00096 0.45861 0.0
H920 H 0.32129 0.99724 0.4296 0.0
H921 H 0.38799 0.89906 0.45263 0.0
C922 C 0.31169 0.91605 0.51922 0.0
C923 C 0.28428 0.94047 0.52871 0.0
C924 C 0.26383 0.97001 0.51847 0.0
C925 C 0.27085 0.9755 0.49937 0.0
C926 C 0.29833 0.95114 0.49054 0.0
C927 C 0.31839 0.92197 0.50017 0.0
C928 C 0.34813 0.90126 0.48779 0.0
C929 C 0.39035 0.90636 0.49531 0.0
C930 C 0.33777 0.85742 0.4855 0.0
C931 C 0.34224 0.92375 0.46976 0.0
C932 C 0.31321 0.95225 0.47153 0.0
C933 C 0.30452 0.9783 0.45701 0.0
C934 C 0.32676 0.97581 0.44049 0.0
C935 C 0.35752 0.94758 0.43863 0.0
C936 C 0.36436 0.92064 0.45338 0.0
H937 H 0.91529 0.66473 0.69937 0.0
H938 H 0.81447 0.60218 0.67753 0.0
H939 H 0.81468 0.55864 0.70528 0.0
H940 H 0.963 0.57489 0.72315 0.0
H941 H 0.9798 0.60525 0.74208 0.0
H942 H 0.97629 0.6256 0.71896 0.0
H943 H 0.93086 0.68152 0.73127 0.0
H944 H 0.93509 0.66138 0.75426 0.0
H945 H 0.88688 0.66874 0.74404 0.0
H946 H 0.81837 0.53108 0.73818 0.0
H947 H 0.82938 0.51664 0.77139 0.0
H948 H 0.9292 0.59646 0.7716 0.0
C949 C 0.89461 0.64047 0.70001 0.0
C950 C 0.86545 0.63613 0.6861 0.0
C951 C 0.83781 0.60515 0.68771 0.0
C952 C 0.83753 0.58056 0.70354 0.0
C953 C 0.86564 0.5868 0.71745 0.0
C954 C 0.89447 0.61526 0.71553 0.0
C955 C 0.91944 0.61814 0.73299 0.0
C956 C 0.96217 0.60519 0.72906 0.0
C957 C 0.91794 0.65994 0.74113 0.0
C958 C 0.89867 0.58882 0.74555 0.0
C959 C 0.868 0.57066 0.73626 0.0
C960 C 0.84274 0.54468 0.74542 0.0
C961 C 0.84897 0.53706 0.76443 0.0
C962 C 0.88007 0.55551 0.77434 0.0
C963 C 0.90549 0.58134 0.76453 0.0
H964 H 0.86707 0.99975 0.13464 0.0
H965 H 0.84527 0.88312 0.15677 0.0
H966 H 0.8088 0.86572 0.12809 0.0
H967 H 0.77643 1.01406 0.10763 0.0
H968 H 0.80202 1.03655 0.08838 0.0
H969 H 0.8212 1.04136 0.11161 0.0
H970 H 0.88815 1.01217 0.10057 0.0
H971 H 0.86905 1.00683 0.07739 0.0
H972 H 0.88922 0.96472 0.08947 0.0
H973 H 0.77858 0.85978 0.09583 0.0
H974 H 0.75864 0.86491 0.06294 0.0
H975 H 0.80543 0.98392 0.0608 0.0
C976 C 0.85332 0.97113 0.13371 0.0
C977 C 0.85751 0.94332 0.14828 0.0
C978 C 0.84106 0.90531 0.14609 0.0
C979 C 0.82061 0.89511 0.12977 0.0
C980 C 0.81767 0.92297 0.11549 0.0
C981 C 0.83385 0.96015 0.11727 0.0
C982 C 0.83048 0.98311 0.09917 0.0
C983 C 0.80607 1.02102 0.10186 0.0
C984 C 0.87163 0.99224 0.09118 0.0
C985 C 0.8089 0.95353 0.08707 0.0
C986 C 0.80188 0.91898 0.09672 0.0
C987 C 0.78382 0.88681 0.0882 0.0
C988 C 0.77281 0.88994 0.06939 0.0
C989 C 0.78006 0.9249 0.05905 0.0
C990 C 0.79829 0.95709 0.06824 0.0
H991 H 0.40012 0.6759 0.872 0.0
H992 H 0.33701 0.58372 0.90132 0.0
H993 H 0.34565 0.53964 0.87404 0.0
H994 H 0.35836 0.66233 0.829 0.0
H995 H 0.4025 0.67209 0.81578 0.0
H996 H 0.39633 0.69352 0.83844 0.0
H997 H 0.46262 0.66161 0.84931 0.0
H998 H 0.46889 0.64104 0.82638 0.0
H999 H 0.46995 0.60933 0.84649 0.0
H1000 H 0.35513 0.5086 0.84167 0.0
H1001 H 0.36627 0.49276 0.8086 0.0
H1002 H 0.42117 0.60705 0.80057 0.0
C1003 C 0.38889 0.64607 0.87293 0.0
C1004 C 0.36802 0.63321 0.88893 0.0
C1005 C 0.35365 0.59406 0.88942 0.0
C1006 C 0.35821 0.56894 0.8739 0.0
C1007 C 0.3776 0.58326 0.85807 0.0
C1008 C 0.3932 0.62083 0.85766 0.0
C1009 C 0.41085 0.63032 0.83878 0.0
C1010 C 0.39081 0.6667 0.82999 0.0
C1011 C 0.45573 0.63594 0.84032 0.0
C1012 C 0.4012 0.59293 0.82823 0.0
C1013 C 0.3826 0.56583 0.83963 0.0
C1014 C 0.36989 0.52961 0.83274 0.0
C1015 C 0.37609 0.52101 0.8138 0.0
C1016 C 0.39457 0.54858 0.80173 0.0
C1017 C 0.40757 0.58487 0.80929 0.0
H1018 H 0.79107 0.08907 0.56522 0.0
H1019 H 0.79684 0.21637 0.55916 0.0
H1020 H 0.78317 0.22394 0.59258 0.0
H1021 H 0.70887 0.08775 0.59631 0.0
H1022 H 0.72747 0.04603 0.60907 0.0
H1023 H 0.74133 0.05274 0.58513 0.0
H1024 H 0.81475 0.04829 0.59637 0.0
H1025 H 0.79917 0.04515 0.6203 0.0
H1026 H 0.8325 0.08357 0.61309 0.0
H1027 H 0.76104 0.219 0.62527 0.0
H1028 H 0.72713 0.20187 0.65452 0.0
H1029 H 0.73484 0.07787 0.64049 0.0
C1030 C 0.78991 0.11853 0.57094 0.0
C1031 C 0.79487 0.15217 0.55936 0.0
C1032 C 0.79284 0.19013 0.56755 0.0
C1033 C 0.78555 0.19473 0.58662 0.0
C1034 C 0.78035 0.16113 0.59755 0.0
C1035 C 0.78194 0.12369 0.59 0.0
C1036 C 0.77103 0.09278 0.60452 0.0
C1037 C 0.73507 0.06844 0.59836 0.0
C1038 C 0.80649 0.06586 0.60882 0.0
C1039 C 0.76113 0.11892 0.62108 0.0
C1040 C 0.7677 0.15819 0.61682 0.0
C1041 C 0.75689 0.18833 0.62898 0.0
C1042 C 0.73774 0.17835 0.64562 0.0
C1043 C 0.72951 0.13854 0.65008 0.0
C1044 C 0.7424 0.10838 0.63786 0.0
H1045 H 0.16288 0.41308 0.37712 0.0
H1046 H 0.24046 0.49748 0.40366 0.0
H1047 H 0.23902 0.5385 0.37502 0.0
H1048 H 0.20982 0.41638 0.33398 0.0
H1049 H 0.1656 0.41015 0.32049 0.0
H1050 H 0.16846 0.39025 0.34368 0.0
H1051 H 0.10567 0.42928 0.35336 0.0
H1052 H 0.10176 0.44909 0.33015 0.0
H1053 H 0.1038 0.48191 0.34978 0.0
H1054 H 0.23293 0.56721 0.34172 0.0
H1055 H 0.22286 0.58051 0.30826 0.0
H1056 H 0.14944 0.47618 0.30432 0.0
C1057 C 0.17891 0.44066 0.37722 0.0
C1058 C 0.20143 0.45219 0.39288 0.0
C1059 C 0.22249 0.48821 0.39203 0.0
C1060 C 0.22198 0.5116 0.37575 0.0
C1061 C 0.20032 0.49858 0.3604 0.0
C1062 C 0.17907 0.46393 0.36113 0.0
C1063 C 0.1605 0.45451 0.34252 0.0
C1064 C 0.17704 0.41551 0.33471 0.0
C1065 C 0.11524 0.45364 0.34404 0.0
C1066 C 0.17427 0.48934 0.33108 0.0
C1067 C 0.19724 0.51454 0.34154 0.0
C1068 C 0.21455 0.54782 0.33355 0.0
C1069 C 0.20841 0.55528 0.31447 0.0
C1070 C 0.18516 0.52959 0.30343 0.0
C1071 C 0.16765 0.49643 0.31212 0.0
H1072 H 0.7678 0.68383 0.51727 0.0
H1073 H 0.79218 0.56088 0.53036 0.0
H1074 H 0.77914 0.54294 0.49786 0.0
H1075 H 0.68694 0.66632 0.48888 0.0
H1076 H 0.69694 0.70402 0.47177 0.0
H1077 H 0.71448 0.70991 0.49515 0.0
H1078 H 0.78563 0.71822 0.48425 0.0
H1079 H 0.76945 0.71384 0.46048 0.0
H1080 H 0.80764 0.68166 0.46927 0.0
H1081 H 0.76255 0.53762 0.46366 0.0
H1082 H 0.73185 0.54383 0.43265 0.0
H1083 H 0.71095 0.66825 0.44252 0.0
C1084 C 0.7704 0.65308 0.5134 0.0
C1085 C 0.78191 0.62403 0.52661 0.0
C1086 C 0.78474 0.58415 0.52064 0.0
C1087 C 0.77731 0.57352 0.5021 0.0
C1088 C 0.76674 0.60291 0.48948 0.0
C1089 C 0.76277 0.64182 0.49492 0.0
C1090 C 0.74796 0.66711 0.47889 0.0
C1091 C 0.70919 0.68802 0.48397 0.0
C1092 C 0.77956 0.69697 0.47287 0.0
C1093 C 0.74191 0.63601 0.46401 0.0
C1094 C 0.75463 0.59945 0.47012 0.0
C1095 C 0.75241 0.56614 0.45879 0.0
C1096 C 0.73512 0.56997 0.4411 0.0
C1097 C 0.7189 0.60645 0.43515 0.0
C1098 C 0.72339 0.64006 0.44662 0.0
H1099 H 0.18432 0.97117 0.78521 0.0
H1100 H 0.17993 0.09387 0.76814 0.0
H1101 H 0.19164 0.07368 0.73548 0.0
H1102 H 0.26221 0.94268 0.75513 0.0
H1103 H 0.24247 0.89433 0.75065 0.0
H1104 H 0.23165 0.91873 0.77226 0.0
H1105 H 0.15668 0.91118 0.76605 0.0
H1106 H 0.1673 0.88676 0.74439 0.0
H1107 H 0.13602 0.92992 0.74469 0.0
H1108 H 0.20534 1.0385 0.70407 0.0
H1109 H 0.22298 0.99284 0.67832 0.0
H1110 H 0.21852 0.8945 0.71695 0.0
C1111 C 0.18512 0.99384 0.77459 0.0
C1112 C 0.18078 1.03414 0.77929 0.0
C1113 C 0.1832 0.06282 0.76494 0.0
C1114 C 0.18965 0.05158 0.74631 0.0
C1115 C 0.19387 1.01152 0.7422 0.0
C1116 C 0.19182 0.98319 0.75603 0.0
C1117 C 0.19906 0.94227 0.74833 0.0
C1118 C 0.23604 0.92341 0.75711 0.0
C1119 C 0.16259 0.91599 0.75102 0.0
C1120 C 0.20567 0.95182 0.728 0.0
C1121 C 0.20231 0.9918 0.72457 0.0
C1122 C 0.20791 1.00714 0.70667 0.0
C1123 C 0.21776 0.98099 0.69208 0.0
C1124 C 0.22229 0.94004 0.69552 0.0
C1125 C 0.21555 0.92561 0.71374 0.0
H1126 H 0.79919 0.48164 1.02272 0.0
H1127 H 0.76903 0.35867 1.0145 0.0
H1128 H 0.7887 0.36413 0.98144 0.0
H1129 H 0.76714 0.51782 0.97669 0.0
H1130 H 0.80763 0.55202 0.97513 0.0
H1131 H 0.78742 0.53916 0.99751 0.0
H1132 H 0.85685 0.5173 1.0088 0.0
H1133 H 0.87718 0.53042 0.98656 0.0
H1134 H 0.88413 0.4812 0.99556 0.0
H1135 H 0.81756 0.38255 0.94925 0.0
H1136 H 0.85626 0.41065 0.92301 0.0
H1137 H 0.8651 0.52123 0.95275 0.0
C1138 C 0.79561 0.45604 1.01392 0.0
C1139 C 0.78212 0.41979 1.02133 0.0
C1140 C 0.77936 0.38678 1.00928 0.0
C1141 C 0.79019 0.38969 0.99039 0.0
C1142 C 0.80364 0.42588 0.98361 0.0
C1143 C 0.8063 0.45844 0.9951 0.0
C1144 C 0.82446 0.49318 0.98501 0.0
C1145 C 0.79489 0.52758 0.9835 0.0
C1146 C 0.86293 0.50626 0.99454 0.0
C1147 C 0.83249 0.47498 0.96616 0.0
C1148 C 0.8199 0.43629 0.9654 0.0
C1149 C 0.82691 0.41302 0.94965 0.0
C1150 C 0.84856 0.42929 0.93468 0.0
C1151 C 0.8632 0.46827 0.9357 0.0
C1152 C 0.85375 0.49152 0.95142 0.0
H1153 H 0.31164 0.14733 0.212 0.0
H1154 H 0.40972 0.10588 0.17847 0.0
H1155 H 0.43198 0.0636 0.20483 0.0
H1156 H 0.36256 0.15598 0.2537 0.0
H1157 H 0.32208 0.14008 0.26812 0.0
H1158 H 0.31235 0.1634 0.24611 0.0
H1159 H 0.27099 0.10317 0.23578 0.0
H1160 H 0.28028 0.07973 0.25786 0.0
H1161 H 0.29263 0.05449 0.23659 0.0
H1162 H 0.44658 1.03102 0.23688 0.0
H1163 H 0.44927 1.0084 0.26967 0.0
H1164 H 0.34077 0.07225 0.28113 0.0
C1165 C 0.33753 0.12892 0.21003 0.0
C1166 C 0.35902 0.12994 0.19316 0.0
C1167 C 0.3926 0.10529 0.19119 0.0
C1168 C 0.40552 0.08139 0.20615 0.0
C1169 C 0.38419 0.08216 0.22283 0.0
C1170 C 0.35051 0.10499 0.22464 0.0
C1171 C 0.33326 0.10217 0.24401 0.0
C1172 C 0.33255 0.14282 0.25354 0.0
C1173 C 0.29184 0.08378 0.24352 0.0
C1174 C 0.3628 0.07472 0.25311 0.0
C1175 C 0.39204 0.06334 0.24077 0.0
C1176 C 0.42349 1.03946 0.24651 0.0
C1177 C 0.42492 1.02693 0.26521 0.0
C1178 C 0.39502 1.03811 0.27801 0.0
C1179 C 0.36363 0.06229 0.27169 0.0
H1180 H 0.37811 0.50666 0.63018 0.0
H1181 H 0.38696 0.38517 0.6485 0.0
H1182 H 0.35423 0.36329 0.61957 0.0
H1183 H 0.28329 0.49905 0.60405 0.0
H1184 H 0.30053 0.53086 0.58568 0.0
H1185 H 0.3185 0.53735 0.60904 0.0
H1186 H 0.39021 0.53056 0.59712 0.0
H1187 H 0.37267 0.52347 0.57377 0.0
H1188 H 0.40457 0.48711 0.58433 0.0
H1189 H 0.3262 0.3541 0.58754 0.0
H1190 H 0.30414 0.3578 0.55499 0.0
H1191 H 0.31763 0.4852 0.55609 0.0
C1192 C 0.37148 0.47565 0.62841 0.0
C1193 C 0.38362 0.4476 0.64187 0.0
C1194 C 0.3767 0.40708 0.63862 0.0
C1195 C 0.35837 0.39444 0.62217 0.0
C1196 C 0.34776 0.42264 0.6089 0.0
C1197 C 0.35394 0.46246 0.61183 0.0
C1198 C 0.34352 0.48624 0.59454 0.0
C1199 C 0.30943 0.51508 0.59857 0.0
C1200 C 0.37991 0.50812 0.587 0.0
C1201 C 0.33074 0.45356 0.58141 0.0
C1202 C 0.3332 0.41718 0.59005 0.0
C1203 C 0.32407 0.38246 0.58066 0.0
C1204 C 0.31194 0.38487 0.56202 0.0
C1205 C 0.30925 0.42173 0.55269 0.0
C1206 C 0.3188 0.45651 0.56271 0.0
H1207 H 0.91337 0.09514 0.30458 0.0
H1208 H 0.87254 0.97607 0.31534 0.0
H1209 H 0.86405 0.99255 0.34857 0.0
H1210 H 0.96803 0.10765 0.34783 0.0
H1211 H 0.954 0.15881 0.35005 0.0
H1212 H 0.95837 0.13686 0.32735 0.0
H1213 H 0.88652 0.15801 0.31975 0.0
H1214 H 0.88199 0.18006 0.34239 0.0
H1215 H 0.84708 0.14326 0.33508 0.0
H1216 H 0.85606 1.0243 0.38088 0.0
H1217 H 0.8496 0.06801 0.40837 0.0
H1218 H 0.89873 0.1645 0.37616 0.0
C1219 C 0.90344 0.07216 0.31393 0.0
C1220 C 0.89378 1.03417 0.30718 0.0
C1221 C 0.87984 1.0055 0.32 0.0
C1222 C 0.87514 1.01452 0.33898 0.0
C1223 C 0.88464 0.05236 0.3451 0.0
C1224 C 0.89864 0.08064 0.3329 0.0
C1225 C 0.90528 0.11957 0.3427 0.0
C1226 C 0.94903 0.1314 0.34194 0.0
C1227 C 0.87863 0.15213 0.33449 0.0
C1228 C 0.8928 0.10892 0.36231 0.0
C1229 C 0.88087 0.0701 0.36351 0.0
C1230 C 0.86588 0.05461 0.38011 0.0
C1231 C 0.86243 0.07962 0.39571 0.0
C1232 C 0.87412 0.11967 0.39467 0.0
C1233 C 0.89012 0.13394 0.37772 0.0
H1234 H 0.2277 0.67156 0.13681 0.0
H1235 H 0.23896 0.54572 0.14598 0.0
H1236 H 0.27012 0.53808 0.11534 0.0
H1237 H 0.2058 0.67751 0.09412 0.0
H1238 H 0.23796 0.7142 0.08424 0.0
H1239 H 0.22586 0.71526 0.10861 0.0
H1240 H 0.29656 0.71035 0.1197 0.0
H1241 H 0.31201 0.71447 0.09577 0.0
H1242 H 0.32946 0.67401 0.10988 0.0
H1243 H 0.28763 0.54239 0.08185 0.0
H1244 H 0.30137 0.55895 0.04933 0.0
H1245 H 0.28653 0.68352 0.0619 0.0
C1246 C 0.23821 0.64268 0.13265 0.0
C1247 C 0.23024 0.60897 0.14374 0.0
C1248 C 0.24435 0.57174 0.13777 0.0
C1249 C 0.26217 0.56717 0.12032 0.0
C1250 C 0.26773 0.60056 0.10932 0.0
C1251 C 0.25812 0.63791 0.11559 0.0
C1252 C 0.26782 0.66873 0.10085 0.0
C1253 C 0.23227 0.69553 0.09666 0.0
C1254 C 0.30359 0.69334 0.10691 0.0
C1255 C 0.27878 0.64229 0.08453 0.0
C1256 C 0.2799 0.60321 0.09002 0.0
C1257 C 0.28812 0.57299 0.07752 0.0
C1258 C 0.2961 0.58283 0.05898 0.0
C1259 C 0.29577 0.62267 0.05283 0.0
C1260 C 0.28697 0.65275 0.06596 0.0
H1261 H 0.65225 0.99588 0.8073 0.0
H1262 H 0.71997 0.10316 0.81457 0.0
H1263 H 0.7256 0.08901 0.84815 0.0
H1264 H 0.59785 1.00157 0.85129 0.0
H1265 H 0.59968 0.94895 0.85492 0.0
H1266 H 0.59934 0.96866 0.83164 0.0
H1267 H 0.66397 0.93047 0.8242 0.0
H1268 H 0.66429 0.91055 0.8474 0.0
H1269 H 0.70654 0.93718 0.83886 0.0
H1270 H 0.728 0.06002 0.88099 0.0
H1271 H 0.72669 1.01892 0.90949 0.0
H1272 H 0.65441 0.93297 0.88079 0.0
C1273 C 0.66754 1.01694 0.81596 0.0
C1274 C 0.68562 0.05074 0.80812 0.0
C1275 C 0.70619 0.07684 0.82007 0.0
C1276 C 0.70933 0.0692 0.83925 0.0
C1277 C 0.69152 1.03542 0.84644 0.0
C1278 C 0.67086 1.00983 0.83514 0.0
C1279 C 0.65584 0.97471 0.84611 0.0
C1280 C 0.61048 0.97342 0.84598 0.0
C1281 C 0.67374 0.93596 0.8387 0.0
C1282 C 0.6715 0.98433 0.86531 0.0
C1283 C 0.69204 1.01943 0.86528 0.0
C1284 C 0.7114 1.03281 0.88121 0.0
C1285 C 0.71035 1.00934 0.8974 0.0
C1286 C 0.68999 0.97288 0.89762 0.0
C1287 C 0.66965 0.96096 0.88137 0.0
H1288 H 0.46391 0.24877 0.17146 0.0
H1289 H 0.43087 0.2577 0.11335 0.0
H1290 H 0.49736 0.28279 0.10577 0.0
H1291 H 0.52374 0.33537 0.17354 0.0
H1292 H 0.56036 0.31358 0.18859 0.0
H1293 H 0.51012 0.29653 0.18943 0.0
H1294 H 0.53404 0.22503 0.18313 0.0
H1295 H 0.58435 0.24195 0.18232 0.0
H1296 H 0.56413 0.21503 0.16299 0.0
H1297 H 0.56685 0.31103 0.10489 0.0
H1298 H 0.63529 0.33401 0.11051 0.0
H1299 H 0.62382 0.30206 0.16866 0.0
C1300 C 0.47068 0.25594 0.15714 0.0
C1301 C 0.44208 0.2514 0.14302 0.0
C1302 C 0.45229 0.26078 0.12441 0.0
C1303 C 0.48996 0.27522 0.11997 0.0
C1304 C 0.5174 0.2796 0.13423 0.0
C1305 C 0.50838 0.26973 0.15241 0.0
C1306 C 0.54344 0.2763 0.16508 0.0
C1307 C 0.53383 0.30729 0.18004 0.0
C1308 C 0.55731 0.23725 0.17389 0.0
C1309 C 0.57341 0.29174 0.15124 0.0
C1310 C 0.55779 0.29386 0.13354 0.0
C1311 C 0.57954 0.309 0.11866 0.0
C1312 C 0.61831 0.32206 0.12195 0.0
C1313 C 0.63506 0.31923 0.13992 0.0
C1314 C 0.61215 0.30382 0.15467 0.0
H1315 H 0.56005 0.69904 0.42056 0.0
H1316 H 0.58542 0.67879 0.36231 0.0
H1317 H 0.55643 0.74429 0.35453 0.0
H1318 H 0.46856 0.75185 0.41538 0.0
H1319 H 0.47918 0.78598 0.43388 0.0
H1320 H 0.49977 0.7369 0.43445 0.0
H1321 H 0.57017 0.76587 0.43721 0.0
H1322 H 0.54984 0.81503 0.43677 0.0
H1323 H 0.58705 0.80091 0.42011 0.0
H1324 H 0.5217 0.81263 0.3535 0.0
H1325 H 0.49361 0.87937 0.35979 0.0
H1326 H 0.49745 0.85494 0.41888 0.0
C1327 C 0.5592 0.70824 0.40614 0.0
C1328 C 0.57441 0.68373 0.39198 0.0
C1329 C 0.57373 0.69717 0.37334 0.0
C1330 C 0.55716 0.7342 0.36881 0.0
C1331 C 0.54216 0.75765 0.38315 0.0
C1332 C 0.54377 0.7453 0.40147 0.0
C1333 C 0.52827 0.77666 0.41452 0.0
C1334 C 0.49178 0.76196 0.42518 0.0
C1335 C 0.56077 0.79043 0.42794 0.0
C1336 C 0.51741 0.80865 0.40074 0.0
C1337 C 0.52488 0.79714 0.38266 0.0
C1338 C 0.51608 0.82196 0.36763 0.0
C1339 C 0.49997 0.85966 0.37128 0.0
C1340 C 0.49377 0.87224 0.38978 0.0
C1341 C 0.50233 0.84617 0.40458 0.0
H1342 H 0.97213 0.75252 0.67161 0.0
H1343 H 0.94817 0.75687 0.61235 0.0
H1344 H 1.01592 0.78068 0.60669 0.0
H1345 H 1.02931 0.83964 0.67384 0.0
H1346 H 0.06381 0.82061 0.69072 0.0
H1347 H 1.01406 0.80213 0.69011 0.0
H1348 H 1.04057 0.7308 0.68642 0.0
H1349 H 0.09046 0.74895 0.68716 0.0
H1350 H 0.07437 0.71953 0.66777 0.0
H1351 H 0.08491 0.80765 0.60763 0.0
H1352 H 0.1518 0.83165 0.61483 0.0
H1353 H 0.13139 0.8085 0.67345 0.0
C1354 C 0.98119 0.75805 0.6574 0.0
C1355 C 0.95473 0.75281 0.64241 0.0
C1356 C 0.96786 0.76053 0.62406 0.0
C1357 C 1.00628 0.77418 0.62071 0.0
C1358 C 1.03133 0.77971 0.63583 0.0
C1359 C 1.01947 0.77152 0.6538 0.0
C1360 C 0.05201 0.78038 0.66761 0.0
C1361 C 1.03901 0.81261 0.68138 0.0
C1362 C 0.06513 0.74267 0.67784 0.0
C1363 C 0.08395 0.79517 0.6546 0.0
C1364 C 0.07133 0.79467 0.63634 0.0
C1365 C 0.09523 0.80789 0.62186 0.0
C1366 C 0.13316 0.82163 0.62612 0.0
C1367 C 0.14703 0.82186 0.6447 0.0
C1368 C 0.12187 0.80847 0.65909 0.0
H1369 H 0.97675 0.36309 0.91659 0.0
H1370 H 1.0206 0.40624 0.86369 0.0
H1371 H 0.05034 0.34072 0.85738 0.0
H1372 H 0.05897 0.30299 0.92835 0.0
H1373 H 1.02984 0.26408 0.93848 0.0
H1374 H 1.01157 0.31404 0.93856 0.0
H1375 H 0.94783 0.29154 0.92181 0.0
H1376 H 0.96584 0.24144 0.92176 0.0
H1377 H 0.95165 0.26482 0.90024 0.0
H1378 H 0.07982 0.27108 0.85818 0.0
H1379 H 0.10044 0.20203 0.86465 0.0
H1380 H 1.03305 0.20418 0.91592 0.0
C1381 C 0.99241 0.35872 0.90362 0.0
C1382 C 0.9965 0.38982 0.89066 0.0
C1383 C 1.01697 0.38279 0.87379 0.0
C1384 C 1.03409 0.34571 0.87012 0.0
C1385 C 1.02993 0.31579 0.88332 0.0
C1386 C 1.00903 0.32179 0.8996 0.0
C1387 C 1.00834 0.28483 0.91144 0.0
C1388 C 1.02838 0.29192 0.93032 0.0
C1389 C 0.96589 0.26977 0.91395 0.0
C1390 C 1.0325 0.25716 0.89943 0.0
C1391 C 0.04509 0.27555 0.88334 0.0
C1392 C 0.06961 0.25626 0.87061 0.0
C1393 C 0.08129 0.21713 0.87441 0.0
C1394 C 0.0679 0.19759 0.89063 0.0
C1395 C 0.04314 0.21804 0.9032 0.0
H1396 H 0.62167 0.80242 0.91952 0.0
H1397 H 0.62394 0.85573 0.97426 0.0
H1398 H 0.55702 0.82883 0.98054 0.0
H1399 H 0.52169 0.82514 0.91008 0.0
H1400 H 0.51312 0.78044 0.89721 0.0
H1401 H 0.56181 0.80137 0.89793 0.0
H1402 H 0.58977 0.73511 0.91045 0.0
H1403 H 0.54107 0.71402 0.90979 0.0
H1404 H 0.56882 0.71363 0.93115 0.0
H1405 H 0.48843 0.79558 0.98017 0.0
H1406 H 0.42405 0.76526 0.97235 0.0
H1407 H 0.46795 0.73769 0.91722 0.0
C1408 C 0.60854 0.80801 0.933 0.0
C1409 C 0.62836 0.83063 0.94656 0.0
C1410 C 0.60943 0.83819 0.96375 0.0
C1411 C 0.57151 0.82293 0.96742 0.0
C1412 C 0.55285 0.80069 0.95365 0.0
C1413 C 0.57078 0.79372 0.93671 0.0
C1414 C 0.54401 0.77141 0.92364 0.0
C1415 C 0.53461 0.79608 0.90619 0.0
C1416 C 0.562 0.73115 0.91846 0.0
C1417 C 0.50801 0.76668 0.93582 0.0
C1418 C 0.5136 0.78328 0.95316 0.0
C1419 C 0.48389 0.78254 0.96663 0.0
C1420 C 0.44748 0.76509 0.9621 0.0
C1421 C 0.44096 0.74912 0.94417 0.0
C1422 C 0.47193 0.74965 0.93104 0.0
H1423 H 0.4708 0.36281 0.68749 0.0
H1424 H 0.57206 0.42499 0.70922 0.0
H1425 H 0.60433 0.36118 0.71675 0.0
H1426 H 0.47414 0.27518 0.71909 0.0
H1427 H 0.46155 0.2417 0.7006 0.0
H1428 H 0.44347 0.29181 0.70014 0.0
H1429 H 0.47429 0.3016 0.6675 0.0
H1430 H 0.49251 0.25168 0.66788 0.0
H1431 H 0.52621 0.29196 0.66417 0.0
H1432 H 0.62797 0.29066 0.71937 0.0
H1433 H 0.64357 0.22019 0.71445 0.0
H1434 H 0.52876 0.20381 0.68895 0.0
C1435 C 0.4991 0.36281 0.69449 0.0
C1436 C 0.51854 0.39867 0.69837 0.0
C1437 C 0.55643 0.39775 0.70659 0.0
C1438 C 0.57491 0.36166 0.7109 0.0
C1439 C 0.55538 0.32667 0.70659 0.0
C1440 C 0.51838 0.32696 0.69844 0.0
C1441 C 0.50603 0.28554 0.693 0.0
C1442 C 0.46911 0.27281 0.70386 0.0
C1443 C 0.49939 0.28254 0.67189 0.0
C1444 C 0.54208 0.26205 0.69904 0.0
C1445 C 0.56987 0.28619 0.70719 0.0
C1446 C 0.60625 0.27145 0.71316 0.0
C1447 C 0.61483 0.23125 0.71035 0.0
C1448 C 0.58744 0.20624 0.70136 0.0
C1449 C 0.55029 0.22194 0.696 0.0
H1450 H 0.09674 0.36199 0.43038 0.0
H1451 H 0.1594 0.26251 0.45435 0.0
H1452 H 0.09583 0.22953 0.4609 0.0
H1453 H 1.00822 0.35932 0.46061 0.0
H1454 H 0.97499 0.37057 0.44176 0.0
H1455 H 1.02487 0.38887 0.4413 0.0
H1456 H 1.03593 0.35604 0.40922 0.0
H1457 H 0.98618 0.3376 0.40959 0.0
H1458 H 1.02704 0.30392 0.40663 0.0
H1459 H 1.0264 0.20595 0.46341 0.0
H1460 H 0.95606 0.19028 0.45948 0.0
H1461 H 0.93756 0.30292 0.4318 0.0
C1462 C 0.09679 0.33377 0.43747 0.0
C1463 C 0.13268 0.31503 0.44232 0.0
C1464 C 0.13203 0.27742 0.45084 0.0
C1465 C 0.09613 0.25858 0.45463 0.0
C1466 C 0.06114 0.27748 0.44949 0.0
C1467 C 0.06111 0.31407 0.44094 0.0
C1468 C 1.01962 0.32588 0.43509 0.0
C1469 C 1.00613 0.36339 0.4453 0.0
C1470 C 1.01705 0.33115 0.41388 0.0
C1471 C 0.99647 0.29009 0.44154 0.0
C1472 C 1.021 0.26289 0.45008 0.0
C1473 C 1.00685 0.22709 0.45682 0.0
C1474 C 0.96671 0.21849 0.45453 0.0
C1475 C 0.94102 0.2453 0.44533 0.0
C1476 C 0.95623 0.28183 0.43898 0.0
H1477 H 1.03008 0.69403 0.17836 0.0
H1478 H 0.13857 0.70669 0.20978 0.0
H1479 H 0.11908 0.77487 0.21807 0.0
H1480 H 1.0286 0.78824 0.15908 0.0
H1481 H 0.97585 0.79482 0.16049 0.0
H1482 H 0.99646 0.74597 0.15869 0.0
H1483 H 0.95994 0.72533 0.18881 0.0
H1484 H 0.93915 0.77422 0.1907 0.0
H1485 H 0.9669 0.75353 0.20977 0.0
H1486 H 0.09192 0.84484 0.21912 0.0
H1487 H 0.05729 0.90879 0.21444 0.0
H1488 H 0.96481 0.84923 0.18416 0.0
C1489 C 0.04948 0.71082 0.18728 0.0
C1490 C 0.08593 0.69486 0.19342 0.0
C1491 C 0.11041 0.71804 0.20499 0.0
C1492 C 0.09959 0.75688 0.20976 0.0
C1493 C 0.06386 0.77196 0.20311 0.0
C1494 C 1.03892 0.74939 0.19232 0.0
C1495 C 1.00306 0.77298 0.18619 0.0
C1496 C 1.0009 0.77566 0.16485 0.0
C1497 C 0.96501 0.75547 0.19436 0.0
C1498 C 1.01216 0.81273 0.19476 0.0
C1499 C 0.04738 0.81161 0.20448 0.0
C1500 C 0.06379 0.84576 0.21201 0.0
C1501 C 0.04395 0.88189 0.20936 0.0
C1502 C 1.00782 0.88346 0.19957 0.0
C1503 C 0.99156 0.84839 0.19239 0.0
H1504 H 0.31292 0.35059 0.14336 0.0
H1505 H 0.22588 0.2805 0.11426 0.0
H1506 H 0.18134 0.33895 0.11303 0.0
H1507 H 0.24717 0.39221 0.17305 0.0
H1508 H 0.27197 0.43903 0.17478 0.0
H1509 H 0.29977 0.39538 0.16921 0.0
H1510 H 0.32539 0.4288 0.13903 0.0
H1511 H 0.29751 0.47269 0.14457 0.0
H1512 H 0.29043 0.44857 0.12254 0.0
H1513 H 0.14441 0.40608 0.11751 0.0
H1514 H 0.11782 0.46962 0.12976 0.0
H1515 H 0.22585 0.48696 0.16066 0.0
C1516 C 0.28498 0.34751 0.13621 0.0
C1517 C 0.27307 0.31089 0.12877 0.0
C1518 C 0.23588 0.30834 0.11987 0.0
C1519 C 0.21042 0.34143 0.11912 0.0
C1520 C 0.22256 0.37664 0.12744 0.0
C1521 C 0.2591 0.37956 0.13586 0.0
C1522 C 0.26354 0.41796 0.14626 0.0
C1523 C 0.27107 0.41069 0.16706 0.0
C1524 C 0.29615 0.44351 0.13758 0.0
C1525 C 0.22336 0.43587 0.14304 0.0
C1526 C 0.20046 0.41266 0.13155 0.0
C1527 C 0.16225 0.42425 0.12653 0.0
C1528 C 0.14733 0.4602 0.13356 0.0
C1529 C 0.17001 0.48295 0.14605 0.0
C1530 C 0.20819 0.47032 0.15092 0.0
H1531 H 0.34101 0.44556 0.39217 0.0
H1532 H 0.37848 0.35382 0.43043 0.0
H1533 H 0.44785 0.37313 0.4259 0.0
H1534 H 0.43136 0.44232 0.36086 0.0
H1535 H 0.43189 0.49522 0.3582 0.0
H1536 H 0.38568 0.46981 0.3614 0.0
H1537 H 0.36973 0.51417 0.3897 0.0
H1538 H 0.41575 0.53963 0.3866 0.0
H1539 H 0.40448 0.51684 0.40862 0.0
H1540 H 0.5092 0.40826 0.4224 0.0
H1541 H 0.56125 0.45771 0.41995 0.0
H1542 H 0.48924 0.52734 0.38243 0.0
C1543 C 0.36415 0.42893 0.39905 0.0
C1544 C 0.3548 0.39794 0.41149 0.0
C1545 C 0.38533 0.37749 0.42081 0.0
C1546 C 0.42475 0.3881 0.41822 0.0
C1547 C 0.43319 0.41938 0.4063 0.0
C1548 C 0.40398 0.43961 0.39679 0.0
C1549 C 0.42117 0.47513 0.38666 0.0
C1550 C 0.41729 0.47032 0.36552 0.0
C1551 C 0.40162 0.51371 0.3933 0.0
C1552 C 0.46416 0.47261 0.3927 0.0
C1553 C 0.47019 0.43968 0.40377 0.0
C1554 C 0.50547 0.43315 0.41311 0.0
C1555 C 0.5352 0.46122 0.41144 0.0
C1556 C 0.53032 0.49503 0.40011 0.0
C1557 C 0.49447 0.50063 0.39036 0.0
H1558 H 0.27348 0.72539 0.63879 0.0
H1559 H 0.36505 0.80043 0.61605 0.0
H1560 H 0.40979 0.74237 0.61408 0.0
H1561 H 0.33321 0.67691 0.66882 0.0
H1562 H 0.30841 0.6301 0.66735 0.0
H1563 H 0.28168 0.67491 0.66265 0.0
H1564 H 0.26238 0.64762 0.6301 0.0
H1565 H 0.28953 0.60283 0.63485 0.0
H1566 H 0.30061 0.63142 0.61438 0.0
H1567 H 0.44708 0.67685 0.61861 0.0
H1568 H 0.47373 0.61378 0.63105 0.0
H1569 H 0.35868 0.5855 0.65358 0.0
C1570 C 0.3025 0.72961 0.6328 0.0
C1571 C 0.31563 0.76755 0.62744 0.0
C1572 C 0.35412 0.77163 0.62001 0.0
C1573 C 0.37972 0.73876 0.61887 0.0
C1574 C 0.3663 0.70209 0.62518 0.0
C1575 C 0.32839 0.69751 0.63193 0.0
C1576 C 0.32242 0.65701 0.64038 0.0
C1577 C 0.31071 0.65993 0.66102 0.0
C1578 C 0.29193 0.63333 0.62926 0.0
C1579 C 0.36336 0.63986 0.63811 0.0
C1580 C 0.38805 0.66564 0.62878 0.0
C1581 C 0.42779 0.65645 0.62577 0.0
C1582 C 0.44268 0.6206 0.63285 0.0
C1583 C 0.41815 0.59507 0.64329 0.0
C1584 C 0.37795 0.60459 0.64563 0.0
H1585 H 0.08767 0.54024 0.90697 0.0
H1586 H 1.02543 0.61178 0.86644 0.0
H1587 H 0.08006 0.66079 0.86743 0.0
H1588 H 0.1169 0.62056 0.93402 0.0
H1589 H 0.1637 0.60019 0.94089 0.0
H1590 H 0.12287 0.56789 0.93601 0.0
H1591 H 0.16125 0.52976 0.91039 0.0
H1592 H 0.20389 0.55832 0.91661 0.0
H1593 H 0.1873 0.55714 0.8928 0.0
H1594 H 0.14422 0.70304 0.8744 0.0
H1595 H 0.20724 0.73141 0.88609 0.0
H1596 H 0.22128 0.63026 0.92258 0.0
C1597 C 0.08552 0.56569 0.89797 0.0
C1598 C 0.05246 0.57167 0.88639 0.0
C1599 C 0.05072 0.60625 0.87527 0.0
C1600 C 0.08158 0.63427 0.87581 0.0
C1601 C 0.11359 0.62742 0.88772 0.0
C1602 C 0.11528 0.59381 0.8986 0.0
C1603 C 0.15069 0.59359 0.91124 0.0
C1604 C 0.13776 0.5956 0.93174 0.0
C1605 C 0.17737 0.55758 0.90753 0.0
C1606 C 0.17008 0.63145 0.90531 0.0
C1607 C 0.14845 0.65121 0.89191 0.0
C1608 C 0.16123 0.68752 0.88485 0.0
C1609 C 0.19701 0.70349 0.89158 0.0
C1610 C 0.21954 0.683 0.90515 0.0
C1611 C 0.20534 0.64671 0.91205 0.0
H1612 H 0.80213 0.77397 0.90735 0.0
H1613 H 0.81641 0.79099 0.96672 0.0
H1614 H 0.85784 0.7301 0.96807 0.0
H1615 H 0.79419 0.66854 0.90835 0.0
H1616 H 0.81972 0.66351 0.88647 0.0
H1617 H 0.79167 0.70753 0.89136 0.0
H1618 H 0.85517 0.74981 0.88493 0.0
H1619 H 0.88178 0.7049 0.88002 0.0
H1620 H 0.89971 0.73842 0.89748 0.0
H1621 H 0.89965 0.66731 0.96196 0.0
H1622 H 0.93293 0.60743 0.94993 0.0
H1623 H 0.88823 0.63317 0.8947 0.0
C1624 C 0.81398 0.76521 0.92072 0.0
C1625 C 0.80635 0.78748 0.93695 0.0
C1626 C 0.82192 0.77437 0.95414 0.0
C1627 C 0.84557 0.73997 0.95498 0.0
C1628 C 0.85286 0.71907 0.93854 0.0
C1629 C 0.83708 0.73122 0.9218 0.0
C1630 C 0.84818 0.70379 0.90608 0.0
C1631 C 0.81126 0.68471 0.89756 0.0
C1632 C 0.87267 0.72549 0.89125 0.0
C1633 C 0.87291 0.67391 0.91647 0.0
C1634 C 0.87566 0.68323 0.93515 0.0
C1635 C 0.8975 0.65984 0.94738 0.0
C1636 C 0.91648 0.62596 0.94038 0.0
C1637 C 0.91321 0.61555 0.92135 0.0
C1638 C 0.89123 0.64013 0.90932 0.0
H1639 H 0.70869 0.66623 0.64431 0.0
H1640 H 0.72268 0.72648 0.69698 0.0
H1641 H 0.66272 0.69266 0.70898 0.0
H1642 H 0.60417 0.66777 0.64234 0.0
H1643 H 0.59971 0.61908 0.63281 0.0
H1644 H 0.64269 0.64828 0.62764 0.0
H1645 H 0.68874 0.5945 0.63956 0.0
H1646 H 0.64876 0.56235 0.64602 0.0
H1647 H 0.68442 0.5767 0.6631 0.0
H1648 H 0.60035 0.64621 0.71517 0.0
H1649 H 0.54462 0.59816 0.71357 0.0
H1650 H 0.57862 0.57012 0.65697 0.0
C1651 C 0.69911 0.67298 0.65832 0.0
C1652 C 0.72047 0.69913 0.66965 0.0
C1653 C 0.70658 0.7068 0.68792 0.0
C1654 C 0.67267 0.68751 0.6949 0.0
C1655 C 0.65303 0.66077 0.68339 0.0
C1656 C 0.66596 0.65408 0.66542 0.0
C1657 C 0.64182 0.62321 0.65578 0.0
C1658 C 0.62092 0.64061 0.63861 0.0
C1659 C 0.66746 0.58711 0.65079 0.0
C1660 C 0.61283 0.61341 0.67092 0.0
C1661 C 0.6192 0.63493 0.68689 0.0
C1662 C 0.59524 0.62949 0.70261 0.0
C1663 C 0.56382 0.602 0.70167 0.0
C1664 C 0.55687 0.58059 0.6851 0.0
C1665 C 0.58238 0.58629 0.66982 0.0
H1666 H 0.78876 0.33051 0.45843 0.0
H1667 H 0.69934 0.24889 0.43961 0.0
H1668 H 0.65413 0.30428 0.43347 0.0
H1669 H 0.71274 0.40596 0.47964 0.0
H1670 H 0.74361 0.44665 0.47274 0.0
H1671 H 0.76569 0.40038 0.47967 0.0
H1672 H 0.80354 0.39837 0.44845 0.0
H1673 H 0.78059 0.4437 0.44108 0.0
H1674 H 0.77628 0.40007 0.42694 0.0
H1675 H 0.63078 0.36592 0.41886 0.0
H1676 H 0.61735 0.43311 0.40729 0.0
H1677 H 0.71223 0.47843 0.4413 0.0
C1678 C 0.75863 0.32429 0.45439 0.0
C1679 C 0.74722 0.28541 0.44978 0.0
C1680 C 0.70825 0.27839 0.44359 0.0
C1681 C 0.68252 0.30974 0.43983 0.0
C1682 C 0.69565 0.34796 0.443 0.0
C1683 C 0.73187 0.35552 0.45111 0.0
C1684 C 0.73916 0.3998 0.45196 0.0
C1685 C 0.74036 0.41404 0.47221 0.0
C1686 C 0.77714 0.41111 0.44148 0.0
C1687 C 0.70272 0.41541 0.442 0.0
C1688 C 0.67856 0.38476 0.43661 0.0
C1689 C 0.6477 0.39053 0.42408 0.0
C1690 C 0.64021 0.42881 0.41758 0.0
C1691 C 0.66196 0.46122 0.42434 0.0
C1692 C 0.69386 0.45439 0.43664 0.0
H1693 H 0.87276 0.43205 0.14546 0.0
H1694 H 0.84302 0.40983 0.20324 0.0
H1695 H 0.90238 0.44684 0.213 0.0
H1696 H 0.97805 0.42331 0.15009 0.0
H1697 H 0.98762 0.46226 0.13362 0.0
H1698 H 0.94358 0.43305 0.13154 0.0
H1699 H 0.90091 0.49677 0.13244 0.0
H1700 H 0.9448 0.52616 0.13461 0.0
H1701 H 0.90601 0.53038 0.15167 0.0
H1702 H 0.96633 0.48775 0.21611 0.0
H1703 H 1.027 0.52776 0.21207 0.0
H1704 H 1.0114 0.52289 0.15223 0.0
C1705 C 0.87868 0.43459 0.1602 0.0
C1706 C 0.85321 0.41771 0.17356 0.0
C1707 C 0.86218 0.42221 0.19269 0.0
C1708 C 0.89581 0.44328 0.19838 0.0
C1709 C 0.92012 0.45977 0.18477 0.0
C1710 C 0.91179 0.45554 0.16608 0.0
C1711 C 0.94178 0.47646 0.15409 0.0
C1712 C 0.96408 0.44701 0.1416 0.0
C1713 C 0.9222 0.50939 0.14253 0.0
C1714 C 0.96842 0.49323 0.1689 0.0
C1715 C 0.95576 0.48337 0.18655 0.0
C1716 C 0.97637 0.49564 0.20232 0.0
C1717 C 1.01078 0.5184 0.19991 0.0
C1718 C 1.02404 0.52876 0.18186 0.0
C1719 C 1.00223 0.51589 0.16627 0.0
H1720 H 0.8152 0.86774 0.64637 0.0
H1721 H 0.72809 0.80073 0.61571 0.0
H1722 H 0.68452 0.85995 0.6149 0.0
H1723 H 0.74943 0.91251 0.67576 0.0
H1724 H 0.77568 0.95855 0.67723 0.0
H1725 H 0.80214 0.91371 0.67229 0.0
H1726 H 0.83025 0.94487 0.6421 0.0
H1727 H 0.80396 0.99 0.64705 0.0
H1728 H 0.79685 0.96544 0.62512 0.0
H1729 H 0.64838 0.92685 0.62002 0.0
H1730 H 0.62225 0.99017 0.6326 0.0
H1731 H 0.73228 1.00852 0.6618 0.0
C1732 C 0.78743 0.86549 0.63901 0.0
C1733 C 0.77532 0.82954 0.6309 0.0
C1734 C 0.73826 0.82803 0.62183 0.0
C1735 C 0.71336 0.86157 0.6213 0.0
C1736 C 0.72596 0.89627 0.62995 0.0
C1737 C 0.76226 0.89817 0.63865 0.0
C1738 C 0.7677 0.9368 0.64879 0.0
C1739 C 0.77409 0.92996 0.66975 0.0
C1740 C 0.80171 0.96068 0.64025 0.0
C1741 C 0.72835 0.95622 0.64497 0.0
C1742 C 0.70486 0.93309 0.63368 0.0
C1743 C 0.66673 0.94513 0.62875 0.0
C1744 C 0.65215 0.98111 0.63589 0.0
C1745 C 0.67534 1.00391 0.64815 0.0
C1746 C 0.71401 0.99151 0.65244 0.0
H1747 H 0.87221 0.90383 0.91759 0.0
H1748 H 0.7972 0.97732 0.88316 0.0
H1749 H 0.85655 1.00957 0.86972 0.0
H1750 H 0.94183 0.97137 0.92918 0.0
H1751 H 0.98355 0.9381 0.92753 0.0
H1752 H 0.93536 0.91904 0.93256 0.0
H1753 H 0.94192 0.87229 0.90421 0.0
H1754 H 0.99011 0.89205 0.89916 0.0
H1755 H 0.95227 0.89263 0.88156 0.0
H1756 H 0.92473 1.03985 0.86371 0.0
H1757 H 0.99319 0.06514 0.86634 0.0
H1758 H 1.02248 0.96794 0.90303 0.0
C1759 C 0.86845 0.92643 0.90706 0.0
C1760 C 0.83052 0.93865 0.90152 0.0
C1761 C 0.82632 0.96784 0.88757 0.0
C1762 C 0.8598 0.98606 0.87981 0.0
C1763 C 0.89712 0.97361 0.88571 0.0
C1764 C 0.90144 0.94388 0.89879 0.0
C1765 C 0.9443 0.93686 0.9035 0.0
C1766 C 0.95163 0.94168 0.92445 0.0
C1767 C 0.95795 0.89604 0.8967 0.0
C1768 C 0.96336 0.96946 0.89231 0.0
C1769 C 0.93599 0.98981 0.8817 0.0
C1770 C 0.94653 1.02352 0.87162 0.0
C1771 C 0.98553 1.03759 0.87307 0.0
C1772 C 1.01309 1.01821 0.88473 0.0
C1773 C 1.0021 0.98294 0.89379 0.0
H1774 H 0.92179 0.12018 0.17593 0.0
H1775 H 0.89468 0.06145 0.12408 0.0
H1776 H 0.86076 0.12212 0.1129 0.0
H1777 H 0.83289 0.16818 0.18151 0.0
H1778 H 0.85371 0.21237 0.19128 0.0
H1779 H 0.87913 0.16604 0.19388 0.0
H1780 H 0.94181 0.19596 0.17875 0.0
H1781 H 0.91659 0.24258 0.17619 0.0
H1782 H 0.93833 0.21898 0.1562 0.0
H1783 H 0.82298 0.18912 0.10934 0.0
H1784 H 0.78826 0.25334 0.11361 0.0
H1785 H 0.84365 0.26549 0.16762 0.0
C1786 C 0.90927 0.12005 0.16208 0.0
C1787 C 0.91043 0.08581 0.15096 0.0
C1788 C 0.89395 0.08723 0.13288 0.0
C1789 C 0.87468 0.12164 0.12643 0.0
C1790 C 0.87298 0.15456 0.1381 0.0
C1791 C 0.89049 0.15395 0.15546 0.0
C1792 C 0.88333 0.19183 0.16593 0.0
C1793 C 0.86093 0.18412 0.18422 0.0
C1794 C 0.92234 0.21362 0.16946 0.0
C1795 C 0.85795 0.2137 0.15207 0.0
C1796 C 0.85233 0.19223 0.13599 0.0
C1797 C 0.82774 0.20628 0.1218 0.0
C1798 C 0.80816 0.2428 0.12431 0.0
C1799 C 0.81309 0.26451 0.14095 0.0
C1800 C 0.83903 0.24981 0.15471 0.0
H1801 H 0.55753 0.0632 0.42507 0.0
H1802 H 0.55505 1.03864 0.3659 0.0
H1803 H 0.61855 0.07484 0.36229 0.0
H1804 H 0.59872 0.16059 0.42252 0.0
H1805 H 0.62672 0.1531 0.44351 0.0
H1806 H 0.58061 0.12767 0.44022 0.0
H1807 H 0.61678 0.06014 0.44553 0.0
H1808 H 0.66241 0.08617 0.44898 0.0
H1809 H 0.65925 0.04815 0.43157 0.0
H1810 H 0.685 0.11434 0.36637 0.0
H1811 H 0.74514 0.14885 0.37753 0.0
H1812 H 0.70042 0.14292 0.43396 0.0
C1813 C 0.5698 0.06542 0.4112 0.0
C1814 C 0.55106 0.04806 0.39574 0.0
C1815 C 0.56876 0.05181 0.37797 0.0
C1816 C 0.6048 0.07232 0.37582 0.0
C1817 C 0.62254 0.08874 0.39157 0.0
C1818 C 0.60527 0.08526 0.40888 0.0
C1819 C 0.62987 0.10374 0.42394 0.0
C1820 C 0.60766 0.13832 0.43309 0.0
C1821 C 0.64287 0.07272 0.43836 0.0
C1822 C 0.66429 0.11807 0.41261 0.0
C1823 C 0.6598 0.10976 0.39392 0.0
C1824 C 0.68857 0.1208 0.38099 0.0
C1825 C 0.7226 0.14042 0.38744 0.0
C1826 C 0.72768 0.14824 0.40665 0.0
C1827 C 0.69784 0.13702 0.41922 0.0
H1828 H 0.34928 0.27211 0.41919 0.0
H1829 H 0.28068 0.25342 0.46929 0.0
H1830 H 0.31335 0.18807 0.47345 0.0
H1831 H 0.33688 0.18011 0.40165 0.0
H1832 H 0.38511 0.17599 0.39121 0.0
H1833 H 0.36312 0.22379 0.39453 0.0
H1834 H 0.42395 0.24647 0.41348 0.0
H1835 H 0.44659 0.19883 0.40995 0.0
H1836 H 0.44012 0.21767 0.43316 0.0
H1837 H 0.34846 0.1205 0.46935 0.0
H1838 H 0.38082 0.05953 0.45765 0.0
H1839 H 0.42125 0.12335 0.40903 0.0
C1840 C 0.34177 0.25483 0.43136 0.0
C1841 C 0.31247 0.26789 0.44396 0.0
C1842 C 0.30345 0.24426 0.45962 0.0
C1843 C 0.32173 0.20702 0.462 0.0
C1844 C 0.34904 0.1942 0.44865 0.0
C1845 C 0.35916 0.21783 0.43373 0.0
C1846 C 0.3857 0.19643 0.42012 0.0
C1847 C 0.36653 0.19393 0.40075 0.0
C1848 C 0.42651 0.21601 0.41913 0.0
C1849 C 0.38808 0.15639 0.42928 0.0
C1850 C 0.36755 0.15565 0.44592 0.0
C1851 C 0.36487 0.12107 0.45644 0.0
C1852 C 0.38333 0.08659 0.4497 0.0
C1853 C 0.40342 0.08677 0.43241 0.0
C1854 C 0.40597 0.12228 0.42225 0.0
H1855 H 0.08746 1.02445 0.1666 0.0
H1856 H 1.02638 0.0876 0.21043 0.0
H1857 H 0.08107 0.13642 0.21135 0.0
H1858 H 0.188 1.04065 0.18325 0.0
H1859 H 0.20689 0.04546 0.15993 0.0
H1860 H 0.16478 1.01458 0.1644 0.0
H1861 H 0.12473 0.05378 0.13976 0.0
H1862 H 0.16645 0.08516 0.13543 0.0
H1863 H 0.11971 0.10653 0.14206 0.0
H1864 H 0.14149 0.18212 0.20467 0.0
H1865 H 0.20208 0.21542 0.19319 0.0
H1866 H 0.22057 0.12003 0.15397 0.0
C1867 C 0.08577 0.04814 0.17666 0.0
C1868 C 0.0527 0.05225 0.18846 0.0
C1869 C 0.0517 0.08367 0.20141 0.0
C1870 C 0.0825 0.11164 0.20191 0.0
C1871 C 0.11411 0.10738 0.18951 0.0
C1872 C 0.11599 0.07589 0.17735 0.0
C1873 C 0.15188 0.07799 0.16494 0.0
C1874 C 0.17953 0.04257 0.16834 0.0
C1875 C 0.13996 0.08106 0.14434 0.0
C1876 C 0.16996 0.11592 0.17173 0.0
C1877 C 0.14802 0.13275 0.18588 0.0
C1878 C 0.15893 0.16883 0.19372 0.0
C1879 C 0.19324 0.18768 0.18704 0.0
C1880 C 0.21621 0.17032 0.17271 0.0
C1881 C 0.20403 0.13405 0.16504 0.0
H1882 H 0.20984 0.9869 0.917 0.0
H1883 H 0.10138 0.9625 0.94681 0.0
H1884 H 0.13026 0.89982 0.95857 0.0
H1885 H 0.23149 0.89014 0.9029 0.0
H1886 H 0.28403 0.89463 0.90614 0.0
H1887 H 0.25483 0.93768 0.9009 0.0
H1888 H 0.28131 0.97195 0.93057 0.0
H1889 H 0.31053 0.92886 0.93592 0.0
H1890 H 0.27603 0.94788 0.9528 0.0
H1891 H 0.1701 0.83561 0.96417 0.0
H1892 H 0.21797 0.77973 0.96455 0.0
H1893 H 0.30096 0.85143 0.93344 0.0
C1894 C 0.19226 0.96845 0.92609 0.0
C1895 C 0.15339 0.97925 0.93091 0.0
C1896 C 0.13136 0.95466 0.943 0.0
C1897 C 0.14749 0.91904 0.94972 0.0
C1898 C 0.18597 0.90901 0.94455 0.0
C1899 C 0.20818 0.93346 0.93323 0.0
C1900 C 0.24863 0.91634 0.92957 0.0
C1901 C 0.2551 0.90927 0.90864 0.0
C1902 C 0.28104 0.94284 0.93771 0.0
C1903 C 0.24551 0.87791 0.94014 0.0
C1904 C 0.20922 0.87382 0.94867 0.0
C1905 C 0.19891 0.83891 0.95786 0.0
C1906 C 0.22624 0.80734 0.95805 0.0
C1907 C 0.26346 0.81122 0.94928 0.0
C1908 C 0.27316 0.84743 0.94063 0.0
H1909 H 0.36007 0.96507 0.65704 0.0
H1910 H 0.38746 0.865 0.69255 0.0
H1911 H 0.4474 0.89953 0.70368 0.0
H1912 H 0.45771 0.98433 0.64293 0.0
H1913 H 0.45107 1.03712 0.64241 0.0
H1914 H 0.40959 1.00525 0.63851 0.0
H1915 H 0.37167 1.03962 0.66534 0.0
H1916 H 0.41325 0.07142 0.66944 0.0
H1917 H 0.39367 1.04184 0.68812 0.0
H1918 H 0.50608 0.94599 0.7102 0.0
H1919 H 0.5594 0.99599 0.70922 0.0
H1920 H 0.4922 0.06352 0.66884 0.0
C1921 C 0.37838 0.95036 0.66728 0.0
C1922 C 0.36892 0.91233 0.67396 0.0
C1923 C 0.39413 0.89411 0.68719 0.0
C1924 C 0.4281 0.91362 0.69367 0.0
C1925 C 0.43645 0.95126 0.68676 0.0
C1926 C 0.41227 0.96918 0.67375 0.0
C1927 C 0.4284 1.00865 0.66762 0.0
C1928 C 0.43723 1.00882 0.64663 0.0
C1929 C 0.40006 0.04237 0.67296 0.0
C1930 C 0.46588 1.01009 0.67896 0.0
C1931 C 0.46993 0.97713 0.69017 0.0
C1932 C 0.50301 0.97194 0.70152 0.0
C1933 C 0.53304 1.0006 0.70098 0.0
C1934 C 0.52996 1.03366 0.68897 0.0
C1935 C 0.49548 1.03861 0.67818 0.0
loop_
_geom_bond_atom_site_label_1
_geom_bond_atom_site_label_2
_geom_bond_distance
_geom_bond_site_symmetry_2
_ccdc_geom_bond_type
Dy0 O3 2.307 . S
Dy0 O5 2.395 . S
Dy0 O6 2.379 . S
Dy0 O8 2.339 . S
Dy0 O10 2.298 . S
Dy0 O14 2.275 . S
Dy0 C22 2.738 . S
Dy1 O4 2.298 . S
Dy1 O7 2.275 . S
Dy1 O9 2.307 . S
Dy1 O11 2.395 . S
Dy1 O12 2.379 . S
Dy1 O15 2.339 . S
Dy1 C31 2.738 . S
C2 O14 1.254 . S
C2 O15 1.257 . S
O3 Dy0 2.307 . S
O3 C13 1.266 . S
O4 Dy1 2.298 . S
O4 C13 1.236 . S
O5 Dy0 2.395 . S
O5 C22 1.255 . S
O6 Dy0 2.379 . S
O6 C22 1.249 . S
O7 Dy1 2.275 . S
O7 C23 1.254 . S
O8 Dy0 2.339 . S
O8 C23 1.257 . S
O9 Dy1 2.307 . S
O9 C24 1.266 . S
O10 Dy0 2.298 . S
O10 C24 1.236 . S
O11 Dy1 2.395 . S
O11 C31 1.255 . S
O12 Dy1 2.379 . S
O12 C31 1.249 . S
C13 O3 1.266 . S
C13 O4 1.236 . S
O14 Dy0 2.275 . S
O14 C2 1.254 . S
O15 Dy1 2.339 . S
O15 C2 1.257 . S
C16 C19 1.344 . S
C16 C20 1.328 . S
C16 C22 1.516 . S
C17 C18 1.304 . S
C17 C21 1.323 . S
C18 C17 1.304 . S
C18 C19 1.371 . S
C18 H32 0.930 . S
C19 C16 1.344 . S
C19 C18 1.371 . S
C19 H33 0.931 . S
C20 C16 1.328 . S
C20 C21 1.433 . S
C20 H34 0.931 . S
C21 C17 1.323 . S
C21 C20 1.433 . S
C21 H35 0.933 . S
C22 Dy0 2.738 . S
C22 O5 1.255 . S
C22 O6 1.249 . S
C22 C16 1.516 . S
C23 O7 1.254 . S
C23 O8 1.257 . S
C24 O9 1.266 . S
C24 O10 1.236 . S
C25 C28 1.344 . S
C25 C29 1.328 . S
C25 C31 1.516 . S
C26 C27 1.304 . S
C26 C30 1.323 . S
C27 C26 1.304 . S
C27 C28 1.371 . S
C27 H36 0.930 . S
C28 C25 1.344 . S
C28 C27 1.371 . S
C28 H37 0.931 . S
C29 C25 1.328 . S
C29 C30 1.433 . S
C29 H38 0.931 . S
C30 C26 1.323 . S
C30 C29 1.433 . S
C30 H39 0.933 . S
C31 Dy1 2.738 . S
C31 O11 1.255 . S
C31 O12 1.249 . S
C31 C25 1.516 . S
H32 C18 0.930 . S
H33 C19 0.931 . S
H34 C20 0.931 . S
H35 C21 0.933 . S
H36 C27 0.930 . S
H37 C28 0.931 . S
H38 C29 0.931 . S
H39 C30 0.933 . S
Dy40 O43 2.307 . S
Dy40 O45 2.395 . S
Dy40 O46 2.379 . S
Dy40 O48 2.339 . S
Dy40 O50 2.298 . S
Dy40 O54 2.275 . S
Dy40 C62 2.738 . S
Dy41 O44 2.298 . S
Dy41 O47 2.275 . S
Dy41 O49 2.307 . S
Dy41 O51 2.395 . S
Dy41 O52 2.379 . S
Dy41 O55 2.339 . S
Dy41 C71 2.738 . S
C42 O54 1.254 . S
C42 O55 1.257 . S
O43 Dy40 2.307 . S
O43 C53 1.266 . S
O44 Dy41 2.298 . S
O44 C53 1.236 . S
O45 Dy40 2.395 . S
O45 C62 1.255 . S
O46 Dy40 2.379 . S
O46 C62 1.249 . S
O47 Dy41 2.275 . S
O47 C63 1.254 . S
O48 Dy40 2.339 . S
O48 C63 1.257 . S
O49 Dy41 2.307 . S
O49 C64 1.266 . S
O50 Dy40 2.298 . S
O50 C64 1.236 . S
O51 Dy41 2.395 . S
O51 C71 1.255 . S
O52 Dy41 2.379 . S
O52 C71 1.249 . S
C53 O43 1.266 . S
C53 O44 1.236 . S
O54 Dy40 2.275 . S
O54 C42 1.254 . S
O55 Dy41 2.339 . S
O55 C42 1.257 . S
C56 C59 1.344 . S
C56 C60 1.328 . S
C56 C62 1.516 . S
C57 C58 1.304 . S
C57 C61 1.323 . S
C58 C57 1.304 . S
C58 C59 1.371 . S
C58 H72 0.930 . S
C59 C56 1.344 . S
C59 C58 1.371 . S
C59 H73 0.931 . S
C60 C56 1.328 . S
C60 C61 1.433 . S
C60 H74 0.931 . S
C61 C57 1.323 . S
C61 C60 1.433 . S
C61 H75 0.933 . S
C62 Dy40 2.738 . S
C62 O45 1.255 . S
C62 O46 1.249 . S
C62 C56 1.516 . S
C63 O47 1.254 . S
C63 O48 1.257 . S
C64 O49 1.266 . S
C64 O50 1.236 . S
C65 C68 1.344 . S
C65 C69 1.328 . S
C65 C71 1.516 . S
C66 C67 1.304 . S
C66 C70 1.323 . S
C67 C66 1.304 . S
C67 C68 1.371 . S
C67 H76 0.930 . S
C68 C65 1.344 . S
C68 C67 1.371 . S
C68 H77 0.931 . S
C69 C65 1.328 . S
C69 C70 1.433 . S
C69 H78 0.931 . S
C70 C66 1.323 . S
C70 C69 1.433 . S
C70 H79 0.933 . S
C71 Dy41 2.738 . S
C71 O51 1.255 . S
C71 O52 1.249 . S
C71 C65 1.516 . S
H72 C58 0.930 . S
H73 C59 0.931 . S
H74 C60 0.931 . S
H75 C61 0.933 . S
H76 C67 0.930 . S
H77 C68 0.931 . S
H78 C69 0.931 . S
H79 C70 0.933 . S
Dy80 O83 2.307 . S
Dy80 O85 2.395 . S
Dy80 O86 2.379 . S
Dy80 O88 2.339 . S
Dy80 O90 2.298 . S
Dy80 O94 2.275 . S
Dy80 C102 2.738 . S
Dy81 O84 2.298 . S
Dy81 O87 2.275 . S
Dy81 O89 2.307 . S
Dy81 O91 2.395 . S
Dy81 O92 2.379 . S
Dy81 O95 2.339 . S
Dy81 C111 2.738 . S
C82 O94 1.254 . S
C82 O95 1.257 . S
O83 Dy80 2.307 . S
O83 C93 1.266 . S
O84 Dy81 2.298 . S
O84 C93 1.236 . S
O85 Dy80 2.395 . S
O85 C102 1.255 . S
O86 Dy80 2.379 . S
O86 C102 1.249 . S
O87 Dy81 2.275 . S
O87 C103 1.254 . S
O88 Dy80 2.339 . S
O88 C103 1.257 . S
O89 Dy81 2.307 . S
O89 C104 1.266 . S
O90 Dy80 2.298 . S
O90 C104 1.236 . S
O91 Dy81 2.395 . S
O91 C111 1.255 . S
O92 Dy81 2.379 . S
O92 C111 1.249 . S
C93 O83 1.266 . S
C93 O84 1.236 . S
O94 Dy80 2.275 . S
O94 C82 1.254 . S
O95 Dy81 2.339 . S
O95 C82 1.257 . S
C96 C99 1.344 . S
C96 C100 1.328 . S
C96 C102 1.516 . S
C97 C98 1.304 . S
C97 C101 1.323 . S
C98 C97 1.304 . S
C98 C99 1.371 . S
C98 H112 0.930 . S
C99 C96 1.344 . S
C99 C98 1.371 . S
C99 H113 0.931 . S
C100 C96 1.328 . S
C100 C101 1.433 . S
C100 H114 0.931 . S
C101 C97 1.323 . S
C101 C100 1.433 . S
C101 H115 0.933 . S
C102 Dy80 2.738 . S
C102 O85 1.255 . S
C102 O86 1.249 . S
C102 C96 1.516 . S
C103 O87 1.254 . S
C103 O88 1.257 . S
C104 O89 1.266 . S
C104 O90 1.236 . S
C105 C108 1.344 . S
C105 C109 1.328 . S
C105 C111 1.516 . S
C106 C107 1.304 . S
C106 C110 1.323 . S
C107 C106 1.304 . S
C107 C108 1.371 . S
C107 H116 0.930 . S
C108 C105 1.344 . S
C108 C107 1.371 . S
C108 H117 0.931 . S
C109 C105 1.328 . S
C109 C110 1.433 . S
C109 H118 0.931 . S
C110 C106 1.323 . S
C110 C109 1.433 . S
C110 H119 0.933 . S
C111 Dy81 2.738 . S
C111 O91 1.255 . S
C111 O92 1.249 . S
C111 C105 1.516 . S
H112 C98 0.930 . S
H113 C99 0.931 . S
H114 C100 0.931 . S
H115 C101 0.933 . S
H116 C107 0.930 . S
H117 C108 0.931 . S
H118 C109 0.931 . S
H119 C110 0.933 . S
Dy120 O123 2.307 . S
Dy120 O125 2.395 . S
Dy120 O126 2.379 . S
Dy120 O128 2.339 . S
Dy120 O130 2.298 . S
Dy120 O134 2.275 . S
Dy120 C142 2.738 . S
Dy121 O124 2.298 . S
Dy121 O127 2.275 . S
Dy121 O129 2.307 . S
Dy121 O131 2.395 . S
Dy121 O132 2.379 . S
Dy121 O135 2.339 . S
Dy121 C151 2.738 . S
C122 O134 1.254 . S
C122 O135 1.257 . S
O123 Dy120 2.307 . S
O123 C133 1.266 . S
O124 Dy121 2.298 . S
O124 C133 1.236 . S
O125 Dy120 2.395 . S
O125 C142 1.255 . S
O126 Dy120 2.379 . S
O126 C142 1.249 . S
O127 Dy121 2.275 . S
O127 C143 1.254 . S
O128 Dy120 2.339 . S
O128 C143 1.257 . S
O129 Dy121 2.307 . S
O129 C144 1.266 . S
O130 Dy120 2.298 . S
O130 C144 1.236 . S
O131 Dy121 2.395 . S
O131 C151 1.255 . S
O132 Dy121 2.379 . S
O132 C151 1.249 . S
C133 O123 1.266 . S
C133 O124 1.236 . S
O134 Dy120 2.275 . S
O134 C122 1.254 . S
O135 Dy121 2.339 . S
O135 C122 1.257 . S
C136 C139 1.344 . S
C136 C140 1.328 . S
C136 C142 1.516 . S
C137 C138 1.304 . S
C137 C141 1.323 . S
C138 C137 1.304 . S
C138 C139 1.371 . S
C138 H152 0.930 . S
C139 C136 1.344 . S
C139 C138 1.371 . S
C139 H153 0.931 . S
C140 C136 1.328 . S
C140 C141 1.433 . S
C140 H154 0.931 . S
C141 C137 1.323 . S
C141 C140 1.433 . S
C141 H155 0.933 . S
C142 Dy120 2.738 . S
C142 O125 1.255 . S
C142 O126 1.249 . S
C142 C136 1.516 . S
C143 O127 1.254 . S
C143 O128 1.257 . S
C144 O129 1.266 . S
C144 O130 1.236 . S
C145 C148 1.344 . S
C145 C149 1.328 1_655 S
C145 C151 1.516 . S
C146 C147 1.281 1_455 S
C146 C150 1.336 . S
C147 C146 1.281 1_655 S
C147 C148 1.371 . S
C147 H156 0.930 . S
C148 C145 1.344 . S
C148 C147 1.371 . S
C148 H157 0.931 . S
C149 C145 1.328 1_455 S
C149 C150 1.433 . S
C149 H158 0.931 . S
C150 C146 1.336 . S
C150 C149 1.433 . S
C150 H159 0.933 . S
C151 Dy121 2.738 . S
C151 O131 1.255 . S
C151 O132 1.249 . S
C151 C145 1.516 . S
H152 C138 0.930 . S
H153 C139 0.931 . S
H154 C140 0.931 . S
H155 C141 0.933 . S
H156 C147 0.930 . S
H157 C148 0.931 . S
H158 C149 0.931 . S
H159 C150 0.933 . S
Dy160 O163 2.307 . S
Dy160 O165 2.395 . S
Dy160 O166 2.379 . S
Dy160 O168 2.339 . S
Dy160 O170 2.298 . S
Dy160 O174 2.275 . S
Dy160 C182 2.738 . S
Dy161 O164 2.298 . S
Dy161 O167 2.275 . S
Dy161 O169 2.307 . S
Dy161 O171 2.395 . S
Dy161 O172 2.379 . S
Dy161 O175 2.339 . S
Dy161 C191 2.738 . S
C162 O174 1.254 . S
C162 O175 1.257 . S
O163 Dy160 2.307 . S
O163 C173 1.266 . S
O164 Dy161 2.298 . S
O164 C173 1.236 . S
O165 Dy160 2.395 . S
O165 C182 1.255 . S
O166 Dy160 2.379 . S
O166 C182 1.249 . S
O167 Dy161 2.275 . S
O167 C183 1.254 . S
O168 Dy160 2.339 . S
O168 C183 1.257 . S
O169 Dy161 2.307 . S
O169 C184 1.266 . S
O170 Dy160 2.298 . S
O170 C184 1.236 . S
O171 Dy161 2.395 . S
O171 C191 1.255 . S
O172 Dy161 2.379 . S
O172 C191 1.249 . S
C173 O163 1.266 . S
C173 O164 1.236 . S
O174 Dy160 2.275 . S
O174 C162 1.254 . S
O175 Dy161 2.339 . S
O175 C162 1.257 . S
C176 C179 1.344 . S
C176 C180 1.328 . S
C176 C182 1.516 . S
C177 C178 1.304 . S
C177 C181 1.323 . S
C178 C177 1.304 . S
C178 C179 1.371 . S
C178 H192 0.930 . S
C179 C176 1.344 . S
C179 C178 1.371 . S
C179 H193 0.931 . S
C180 C176 1.328 . S
C180 C181 1.433 . S
C180 H194 0.931 . S
C181 C177 1.323 . S
C181 C180 1.433 . S
C181 H195 0.933 . S
C182 Dy160 2.738 . S
C182 O165 1.255 . S
C182 O166 1.249 . S
C182 C176 1.516 . S
C183 O167 1.254 . S
C183 O168 1.257 . S
C184 O169 1.266 . S
C184 O170 1.236 . S
C185 C188 1.344 . S
C185 C189 1.328 . S
C185 C191 1.516 . S
C186 C187 1.304 . S
C186 C190 1.323 . S
C187 C186 1.304 . S
C187 C188 1.371 . S
C187 H196 0.930 . S
C188 C185 1.344 . S
C188 C187 1.371 . S
C188 H197 0.931 . S
C189 C185 1.328 . S
C189 C190 1.433 . S
C189 H198 0.931 . S
C190 C186 1.323 . S
C190 C189 1.433 . S
C190 H199 0.933 . S
C191 Dy161 2.738 . S
C191 O171 1.255 . S
C191 O172 1.249 . S
C191 C185 1.516 . S
H192 C178 0.930 . S
H193 C179 0.931 . S
H194 C180 0.931 . S
H195 C181 0.933 . S
H196 C187 0.930 . S
H197 C188 0.931 . S
H198 C189 0.931 . S
H199 C190 0.933 . S
Dy200 O203 2.307 . S
Dy200 O205 2.395 . S
Dy200 O206 2.379 . S
Dy200 O208 2.339 . S
Dy200 O210 2.298 . S
Dy200 O214 2.275 . S
Dy200 C222 2.738 . S
Dy201 O204 2.298 . S
Dy201 O207 2.275 . S
Dy201 O209 2.307 . S
Dy201 O211 2.395 . S
Dy201 O212 2.379 . S
Dy201 O215 2.339 . S
Dy201 C231 2.738 . S
C202 O214 1.254 . S
C202 O215 1.257 . S
O203 Dy200 2.307 . S
O203 C213 1.266 . S
O204 Dy201 2.298 . S
O204 C213 1.236 . S
O205 Dy200 2.395 . S
O205 C222 1.255 . S
O206 Dy200 2.379 . S
O206 C222 1.249 . S
O207 Dy201 2.275 . S
O207 C223 1.254 . S
O208 Dy200 2.339 . S
O208 C223 1.257 . S
O209 Dy201 2.307 . S
O209 C224 1.266 . S
O210 Dy200 2.298 . S
O210 C224 1.236 . S
O211 Dy201 2.395 . S
O211 C231 1.255 . S
O212 Dy201 2.379 . S
O212 C231 1.249 . S
C213 O203 1.266 . S
C213 O204 1.236 . S
O214 Dy200 2.275 . S
O214 C202 1.254 . S
O215 Dy201 2.339 . S
O215 C202 1.257 . S
C216 C219 1.344 . S
C216 C220 1.328 . S
C216 C222 1.516 . S
C217 C218 1.304 . S
C217 C221 1.323 . S
C218 C217 1.304 . S
C218 C219 1.371 . S
C218 H232 0.930 . S
C219 C216 1.344 . S
C219 C218 1.371 . S
C219 H233 0.931 . S
C220 C216 1.328 . S
C220 C221 1.433 . S
C220 H234 0.931 . S
C221 C217 1.323 . S
C221 C220 1.433 . S
C221 H235 0.933 . S
C222 Dy200 2.738 . S
C222 O205 1.255 . S
C222 O206 1.249 . S
C222 C216 1.516 . S
C223 O207 1.254 . S
C223 O208 1.257 . S
C224 O209 1.266 . S
C224 O210 1.236 . S
C225 C228 1.344 . S
C225 C229 1.328 . S
C225 C231 1.516 . S
C226 C227 1.304 . S
C226 C230 1.323 . S
C227 C226 1.304 . S
C227 C228 1.371 . S
C227 H236 0.930 . S
C228 C225 1.344 . S
C228 C227 1.371 . S
C228 H237 0.931 . S
C229 C225 1.328 . S
C229 C230 1.433 . S
C229 H238 0.931 . S
C230 C226 1.323 . S
C230 C229 1.433 . S
C230 H239 0.933 . S
C231 Dy201 2.738 . S
C231 O211 1.255 . S
C231 O212 1.249 . S
C231 C225 1.516 . S
H232 C218 0.930 . S
H233 C219 0.931 . S
H234 C220 0.931 . S
H235 C221 0.933 . S
H236 C227 0.930 . S
H237 C228 0.931 . S
H238 C229 0.931 . S
H239 C230 0.933 . S
Dy240 O243 2.307 . S
Dy240 O245 2.395 . S
Dy240 O246 2.379 . S
Dy240 O248 2.339 . S
Dy240 O250 2.298 . S
Dy240 O254 2.275 . S
Dy240 C262 2.738 . S
Dy241 O244 2.298 . S
Dy241 O247 2.275 . S
Dy241 O249 2.307 . S
Dy241 O251 2.395 . S
Dy241 O252 2.379 . S
Dy241 O255 2.339 . S
Dy241 C271 2.738 . S
C242 O254 1.254 . S
C242 O255 1.257 . S
O243 Dy240 2.307 . S
O243 C253 1.266 . S
O244 Dy241 2.298 . S
O244 C253 1.236 . S
O245 Dy240 2.395 . S
O245 C262 1.255 . S
O246 Dy240 2.379 . S
O246 C262 1.249 . S
O247 Dy241 2.275 . S
O247 C263 1.254 . S
O248 Dy240 2.339 . S
O248 C263 1.257 . S
O249 Dy241 2.307 . S
O249 C264 1.266 . S
O250 Dy240 2.298 . S
O250 C264 1.236 . S
O251 Dy241 2.395 . S
O251 C271 1.255 . S
O252 Dy241 2.379 . S
O252 C271 1.249 . S
C253 O243 1.266 . S
C253 O244 1.236 . S
O254 Dy240 2.275 . S
O254 C242 1.254 . S
O255 Dy241 2.339 . S
O255 C242 1.257 . S
C256 C259 1.344 . S
C256 C260 1.328 . S
C256 C262 1.516 . S
C257 C258 1.304 . S
C257 C261 1.323 . S
C258 C257 1.304 . S
C258 C259 1.371 . S
C258 H272 0.930 . S
C259 C256 1.344 . S
C259 C258 1.371 . S
C259 H273 0.931 . S
C260 C256 1.328 . S
C260 C261 1.433 . S
C260 H274 0.931 . S
C261 C257 1.323 . S
C261 C260 1.433 . S
C261 H275 0.933 . S
C262 Dy240 2.738 . S
C262 O245 1.255 . S
C262 O246 1.249 . S
C262 C256 1.516 . S
C263 O247 1.254 . S
C263 O248 1.257 . S
C264 O249 1.266 . S
C264 O250 1.236 . S
C265 C268 1.344 . S
C265 C269 1.328 . S
C265 C271 1.516 . S
C266 C267 1.304 . S
C266 C270 1.323 . S
C267 C266 1.304 . S
C267 C268 1.371 . S
C267 H276 0.930 . S
C268 C265 1.344 . S
C268 C267 1.371 . S
C268 H277 0.931 . S
C269 C265 1.328 . S
C269 C270 1.433 . S
C269 H278 0.931 . S
C270 C266 1.323 . S
C270 C269 1.433 . S
C270 H279 0.933 . S
C271 Dy241 2.738 . S
C271 O251 1.255 . S
C271 O252 1.249 . S
C271 C265 1.516 . S
H272 C258 0.930 . S
H273 C259 0.931 . S
H274 C260 0.931 . S
H275 C261 0.933 . S
H276 C267 0.930 . S
H277 C268 0.931 . S
H278 C269 0.931 . S
H279 C270 0.933 . S
Dy280 O283 2.307 . S
Dy280 O285 2.395 . S
Dy280 O286 2.379 . S
Dy280 O288 2.339 . S
Dy280 O290 2.298 . S
Dy280 O294 2.275 . S
Dy280 C302 2.738 . S
Dy281 O284 2.298 . S
Dy281 O287 2.275 . S
Dy281 O289 2.307 . S
Dy281 O291 2.395 . S
Dy281 O292 2.379 . S
Dy281 O295 2.339 . S
Dy281 C311 2.738 . S
C282 O294 1.254 . S
C282 O295 1.257 . S
O283 Dy280 2.307 . S
O283 C293 1.266 . S
O284 Dy281 2.298 . S
O284 C293 1.236 . S
O285 Dy280 2.395 . S
O285 C302 1.255 . S
O286 Dy280 2.379 . S
O286 C302 1.249 . S
O287 Dy281 2.275 . S
O287 C303 1.254 . S
O288 Dy280 2.339 . S
O288 C303 1.257 . S
O289 Dy281 2.307 . S
O289 C304 1.266 . S
O290 Dy280 2.298 . S
O290 C304 1.236 . S
O291 Dy281 2.395 . S
O291 C311 1.255 . S
O292 Dy281 2.379 . S
O292 C311 1.249 . S
C293 O283 1.266 . S
C293 O284 1.236 . S
O294 Dy280 2.275 . S
O294 C282 1.254 . S
O295 Dy281 2.339 . S
O295 C282 1.257 . S
C296 C299 1.344 . S
C296 C300 1.328 1_455 S
C296 C302 1.516 . S
C297 C298 1.281 1_655 S
C297 C301 1.336 . S
C298 C297 1.281 1_455 S
C298 C299 1.371 . S
C298 H312 0.930 . S
C299 C296 1.344 . S
C299 C298 1.371 . S
C299 H313 0.931 . S
C300 C296 1.328 1_655 S
C300 C301 1.433 . S
C300 H314 0.931 . S
C301 C297 1.336 . S
C301 C300 1.433 . S
C301 H315 0.933 . S
C302 Dy280 2.738 . S
C302 O285 1.255 . S
C302 O286 1.249 . S
C302 C296 1.516 . S
C303 O287 1.254 . S
C303 O288 1.257 . S
C304 O289 1.266 . S
C304 O290 1.236 . S
C305 C308 1.344 . S
C305 C309 1.328 . S
C305 C311 1.516 . S
C306 C307 1.304 . S
C306 C310 1.323 . S
C307 C306 1.304 . S
C307 C308 1.371 . S
C307 H316 0.930 . S
C308 C305 1.344 . S
C308 C307 1.371 . S
C308 H317 0.931 . S
C309 C305 1.328 . S
C309 C310 1.433 . S
C309 H318 0.931 . S
C310 C306 1.323 . S
C310 C309 1.433 . S
C310 H319 0.933 . S
C311 Dy281 2.738 . S
C311 O291 1.255 . S
C311 O292 1.249 . S
C311 C305 1.516 . S
H312 C298 0.930 . S
H313 C299 0.931 . S
H314 C300 0.931 . S
H315 C301 0.933 . S
H316 C307 0.930 . S
H317 C308 0.931 . S
H318 C309 0.931 . S
H319 C310 0.933 . S
Dy320 O323 2.307 . S
Dy320 O325 2.395 . S
Dy320 O326 2.379 . S
Dy320 O328 2.339 . S
Dy320 O330 2.298 . S
Dy320 O334 2.275 . S
Dy320 C342 2.738 . S
Dy321 O324 2.298 . S
Dy321 O327 2.275 . S
Dy321 O329 2.307 . S
Dy321 O331 2.395 . S
Dy321 O332 2.379 . S
Dy321 O335 2.339 . S
Dy321 C351 2.738 . S
C322 O334 1.254 . S
C322 O335 1.257 . S
O323 Dy320 2.307 . S
O323 C333 1.266 . S
O324 Dy321 2.298 . S
O324 C333 1.236 . S
O325 Dy320 2.395 . S
O325 C342 1.255 . S
O326 Dy320 2.379 . S
O326 C342 1.249 . S
O327 Dy321 2.275 . S
O327 C343 1.254 . S
O328 Dy320 2.339 . S
O328 C343 1.257 . S
O329 Dy321 2.307 . S
O329 C344 1.266 . S
O330 Dy320 2.298 . S
O330 C344 1.236 . S
O331 Dy321 2.395 . S
O331 C351 1.255 . S
O332 Dy321 2.379 . S
O332 C351 1.249 . S
C333 O323 1.266 . S
C333 O324 1.236 . S
O334 Dy320 2.275 . S
O334 C322 1.254 . S
O335 Dy321 2.339 . S
O335 C322 1.257 . S
C336 C339 1.344 . S
C336 C340 1.328 . S
C336 C342 1.516 . S
C337 C338 1.304 . S
C337 C341 1.323 . S
C338 C337 1.304 . S
C338 C339 1.371 . S
C338 H352 0.930 . S
C339 C336 1.344 . S
C339 C338 1.371 . S
C339 H353 0.931 . S
C340 C336 1.328 . S
C340 C341 1.433 . S
C340 H354 0.931 . S
C341 C337 1.323 . S
C341 C340 1.433 . S
C341 H355 0.933 . S
C342 Dy320 2.738 . S
C342 O325 1.255 . S
C342 O326 1.249 . S
C342 C336 1.516 . S
C343 O327 1.254 . S
C343 O328 1.257 . S
C344 O329 1.266 . S
C344 O330 1.236 . S
C345 C348 1.344 . S
C345 C349 1.328 . S
C345 C351 1.516 . S
C346 C347 1.304 . S
C346 C350 1.323 . S
C347 C346 1.304 . S
C347 C348 1.371 . S
C347 H356 0.930 . S
C348 C345 1.344 . S
C348 C347 1.371 . S
C348 H357 0.931 . S
C349 C345 1.328 . S
C349 C350 1.433 . S
C349 H358 0.931 . S
C350 C346 1.323 . S
C350 C349 1.433 . S
C350 H359 0.933 . S
C351 Dy321 2.738 . S
C351 O331 1.255 . S
C351 O332 1.249 . S
C351 C345 1.516 . S
H352 C338 0.930 . S
H353 C339 0.931 . S
H354 C340 0.931 . S
H355 C341 0.933 . S
H356 C347 0.930 . S
H357 C348 0.931 . S
H358 C349 0.931 . S
H359 C350 0.933 . S
Dy360 O363 2.307 . S
Dy360 O365 2.395 . S
Dy360 O366 2.379 . S
Dy360 O368 2.339 . S
Dy360 O370 2.298 1_545 S
Dy360 O374 2.275 . S
Dy360 C382 2.738 . S
Dy361 O364 2.298 . S
Dy361 O367 2.275 . S
Dy361 O369 2.307 1_545 S
Dy361 O371 2.395 . S
Dy361 O372 2.379 . S
Dy361 O375 2.339 1_545 S
Dy361 C391 2.738 . S
C362 O374 1.254 1_565 S
C362 O375 1.257 . S
O363 Dy360 2.307 . S
O363 C373 1.266 . S
O364 Dy361 2.298 . S
O364 C373 1.236 . S
O365 Dy360 2.395 . S
O365 C382 1.255 . S
O366 Dy360 2.379 . S
O366 C382 1.249 . S
O367 Dy361 2.275 . S
O367 C383 1.254 . S
O368 Dy360 2.339 . S
O368 C383 1.257 . S
O369 Dy361 2.307 1_565 S
O369 C384 1.266 . S
O370 Dy360 2.298 1_565 S
O370 C384 1.236 . S
O371 Dy361 2.395 . S
O371 C391 1.255 . S
O372 Dy361 2.379 . S
O372 C391 1.249 . S
C373 O363 1.266 . S
C373 O364 1.236 . S
O374 Dy360 2.275 . S
O374 C362 1.254 1_545 S
O375 Dy361 2.339 1_565 S
O375 C362 1.257 . S
C376 C379 1.344 1_545 S
C376 C380 1.328 . S
C376 C382 1.516 . S
C377 C378 1.304 . S
C377 C381 1.323 1_565 S
C378 C377 1.304 . S
C378 C379 1.371 . S
C378 H392 0.930 . S
C379 C376 1.344 1_565 S
C379 C378 1.371 . S
C379 H393 0.931 . S
C380 C376 1.328 . S
C380 C381 1.433 . S
C380 H394 0.931 . S
C381 C377 1.323 1_545 S
C381 C380 1.433 . S
C381 H395 0.933 . S
C382 Dy360 2.738 . S
C382 O365 1.255 . S
C382 O366 1.249 . S
C382 C376 1.516 . S
C383 O367 1.254 . S
C383 O368 1.257 . S
C384 O369 1.266 . S
C384 O370 1.236 . S
C385 C388 1.344 . S
C385 C389 1.328 1_455 S
C385 C391 1.516 . S
C386 C387 1.281 1_655 S
C386 C390 1.336 . S
C387 C386 1.281 1_455 S
C387 C388 1.371 . S
C387 H396 0.930 . S
C388 C385 1.344 . S
C388 C387 1.371 . S
C388 H397 0.931 . S
C389 C385 1.328 1_655 S
C389 C390 1.433 . S
C389 H398 0.931 . S
C390 C386 1.336 . S
C390 C389 1.433 . S
C390 H399 0.933 . S
C391 Dy361 2.738 . S
C391 O371 1.255 . S
C391 O372 1.249 . S
C391 C385 1.516 . S
H392 C378 0.930 . S
H393 C379 0.931 . S
H394 C380 0.931 . S
H395 C381 0.933 . S
H396 C387 0.930 . S
H397 C388 0.931 . S
H398 C389 0.931 . S
H399 C390 0.933 . S
Dy400 O403 2.307 . S
Dy400 O405 2.395 . S
Dy400 O406 2.379 . S
Dy400 O408 2.339 . S
Dy400 O410 2.298 . S
Dy400 O414 2.275 . S
Dy400 C422 2.738 . S
Dy401 O404 2.298 . S
Dy401 O407 2.275 . S
Dy401 O409 2.307 . S
Dy401 O411 2.395 . S
Dy401 O412 2.379 . S
Dy401 O415 2.339 . S
Dy401 C431 2.738 . S
C402 O414 1.254 . S
C402 O415 1.257 . S
O403 Dy400 2.307 . S
O403 C413 1.266 . S
O404 Dy401 2.298 . S
O404 C413 1.236 . S
O405 Dy400 2.395 . S
O405 C422 1.255 . S
O406 Dy400 2.379 . S
O406 C422 1.249 . S
O407 Dy401 2.275 . S
O407 C423 1.254 . S
O408 Dy400 2.339 . S
O408 C423 1.257 . S
O409 Dy401 2.307 . S
O409 C424 1.266 . S
O410 Dy400 2.298 . S
O410 C424 1.236 . S
O411 Dy401 2.395 . S
O411 C431 1.255 . S
O412 Dy401 2.379 . S
O412 C431 1.249 . S
C413 O403 1.266 . S
C413 O404 1.236 . S
O414 Dy400 2.275 . S
O414 C402 1.254 . S
O415 Dy401 2.339 . S
O415 C402 1.257 . S
C416 C419 1.344 . S
C416 C420 1.328 . S
C416 C422 1.516 . S
C417 C418 1.304 . S
C417 C421 1.323 . S
C418 C417 1.304 . S
C418 C419 1.371 . S
C418 H432 0.930 . S
C419 C416 1.344 . S
C419 C418 1.371 . S
C419 H433 0.931 . S
C420 C416 1.328 . S
C420 C421 1.433 . S
C420 H434 0.931 . S
C421 C417 1.323 . S
C421 C420 1.433 . S
C421 H435 0.933 . S
C422 Dy400 2.738 . S
C422 O405 1.255 . S
C422 O406 1.249 . S
C422 C416 1.516 . S
C423 O407 1.254 . S
C423 O408 1.257 . S
C424 O409 1.266 . S
C424 O410 1.236 . S
C425 C428 1.344 . S
C425 C429 1.328 . S
C425 C431 1.516 . S
C426 C427 1.304 . S
C426 C430 1.323 . S
C427 C426 1.304 . S
C427 C428 1.371 . S
C427 H436 0.930 . S
C428 C425 1.344 . S
C428 C427 1.371 . S
C428 H437 0.931 . S
C429 C425 1.328 . S
C429 C430 1.433 . S
C429 H438 0.931 . S
C430 C426 1.323 . S
C430 C429 1.433 . S
C430 H439 0.933 . S
C431 Dy401 2.738 . S
C431 O411 1.255 . S
C431 O412 1.249 . S
C431 C425 1.516 . S
H432 C418 0.930 . S
H433 C419 0.931 . S
H434 C420 0.931 . S
H435 C421 0.933 . S
H436 C427 0.930 . S
H437 C428 0.931 . S
H438 C429 0.931 . S
H439 C430 0.933 . S
Dy440 O443 2.307 . S
Dy440 O445 2.395 . S
Dy440 O446 2.379 . S
Dy440 O448 2.339 . S
Dy440 O450 2.298 1_565 S
Dy440 O454 2.275 . S
Dy440 C462 2.738 . S
Dy441 O444 2.298 . S
Dy441 O447 2.275 . S
Dy441 O449 2.307 1_565 S
Dy441 O451 2.395 . S
Dy441 O452 2.379 . S
Dy441 O455 2.339 1_565 S
Dy441 C471 2.738 . S
C442 O454 1.254 1_545 S
C442 O455 1.257 . S
O443 Dy440 2.307 . S
O443 C453 1.266 . S
O444 Dy441 2.298 . S
O444 C453 1.236 . S
O445 Dy440 2.395 . S
O445 C462 1.255 . S
O446 Dy440 2.379 . S
O446 C462 1.249 . S
O447 Dy441 2.275 . S
O447 C463 1.254 . S
O448 Dy440 2.339 . S
O448 C463 1.257 . S
O449 Dy441 2.307 1_545 S
O449 C464 1.266 . S
O450 Dy440 2.298 1_545 S
O450 C464 1.236 . S
O451 Dy441 2.395 . S
O451 C471 1.255 . S
O452 Dy441 2.379 . S
O452 C471 1.249 . S
C453 O443 1.266 . S
C453 O444 1.236 . S
O454 Dy440 2.275 . S
O454 C442 1.254 1_565 S
O455 Dy441 2.339 1_545 S
O455 C442 1.257 . S
C456 C459 1.344 1_565 S
C456 C460 1.328 . S
C456 C462 1.516 . S
C457 C458 1.304 . S
C457 C461 1.323 1_545 S
C458 C457 1.304 . S
C458 C459 1.371 . S
C458 H472 0.930 . S
C459 C456 1.344 1_545 S
C459 C458 1.371 . S
C459 H473 0.931 . S
C460 C456 1.328 . S
C460 C461 1.433 . S
C460 H474 0.931 . S
C461 C457 1.323 1_565 S
C461 C460 1.433 . S
C461 H475 0.933 . S
C462 Dy440 2.738 . S
C462 O445 1.255 . S
C462 O446 1.249 . S
C462 C456 1.516 . S
C463 O447 1.254 . S
C463 O448 1.257 . S
C464 O449 1.266 . S
C464 O450 1.236 . S
C465 C468 1.344 . S
C465 C469 1.328 . S
C465 C471 1.516 . S
C466 C467 1.304 . S
C466 C470 1.323 . S
C467 C466 1.304 . S
C467 C468 1.371 . S
C467 H476 0.930 . S
C468 C465 1.344 . S
C468 C467 1.371 . S
C468 H477 0.931 . S
C469 C465 1.328 . S
C469 C470 1.433 . S
C469 H478 0.931 . S
C470 C466 1.323 . S
C470 C469 1.433 . S
C470 H479 0.933 . S
C471 Dy441 2.738 . S
C471 O451 1.255 . S
C471 O452 1.249 . S
C471 C465 1.516 . S
H472 C458 0.930 . S
H473 C459 0.931 . S
H474 C460 0.931 . S
H475 C461 0.933 . S
H476 C467 0.930 . S
H477 C468 0.931 . S
H478 C469 0.931 . S
H479 C470 0.933 . S
Dy480 O483 2.307 . S
Dy480 O485 2.395 . S
Dy480 O486 2.379 . S
Dy480 O488 2.339 . S
Dy480 O490 2.298 . S
Dy480 O494 2.275 . S
Dy480 C502 2.738 . S
Dy481 O484 2.298 . S
Dy481 O487 2.275 . S
Dy481 O489 2.307 . S
Dy481 O491 2.395 . S
Dy481 O492 2.379 . S
Dy481 O495 2.339 . S
Dy481 C511 2.738 . S
C482 O494 1.254 . S
C482 O495 1.257 . S
O483 Dy480 2.307 . S
O483 C493 1.266 . S
O484 Dy481 2.298 . S
O484 C493 1.236 . S
O485 Dy480 2.395 . S
O485 C502 1.255 . S
O486 Dy480 2.379 . S
O486 C502 1.249 . S
O487 Dy481 2.275 . S
O487 C503 1.254 . S
O488 Dy480 2.339 . S
O488 C503 1.257 . S
O489 Dy481 2.307 . S
O489 C504 1.266 . S
O490 Dy480 2.298 . S
O490 C504 1.236 . S
O491 Dy481 2.395 . S
O491 C511 1.255 . S
O492 Dy481 2.379 . S
O492 C511 1.249 . S
C493 O483 1.266 . S
C493 O484 1.236 . S
O494 Dy480 2.275 . S
O494 C482 1.254 . S
O495 Dy481 2.339 . S
O495 C482 1.257 . S
C496 C499 1.344 . S
C496 C500 1.328 . S
C496 C502 1.516 . S
C497 C498 1.304 . S
C497 C501 1.323 . S
C498 C497 1.304 . S
C498 C499 1.371 . S
C498 H512 0.930 . S
C499 C496 1.344 . S
C499 C498 1.371 . S
C499 H513 0.931 . S
C500 C496 1.328 . S
C500 C501 1.433 . S
C500 H514 0.931 . S
C501 C497 1.323 . S
C501 C500 1.433 . S
C501 H515 0.933 . S
C502 Dy480 2.738 . S
C502 O485 1.255 . S
C502 O486 1.249 . S
C502 C496 1.516 . S
C503 O487 1.254 . S
C503 O488 1.257 . S
C504 O489 1.266 . S
C504 O490 1.236 . S
C505 C508 1.344 . S
C505 C509 1.328 . S
C505 C511 1.516 . S
C506 C507 1.304 . S
C506 C510 1.323 . S
C507 C506 1.304 . S
C507 C508 1.371 . S
C507 H516 0.930 . S
C508 C505 1.344 . S
C508 C507 1.371 . S
C508 H517 0.931 . S
C509 C505 1.328 . S
C509 C510 1.433 . S
C509 H518 0.931 . S
C510 C506 1.323 . S
C510 C509 1.433 . S
C510 H519 0.933 . S
C511 Dy481 2.738 . S
C511 O491 1.255 . S
C511 O492 1.249 . S
C511 C505 1.516 . S
H512 C498 0.930 . S
H513 C499 0.931 . S
H514 C500 0.931 . S
H515 C501 0.933 . S
H516 C507 0.930 . S
H517 C508 0.931 . S
H518 C509 0.931 . S
H519 C510 0.933 . S
Dy520 O523 2.307 1_565 S
Dy520 O525 2.395 . S
Dy520 O526 2.379 . S
Dy520 O528 2.339 1_565 S
Dy520 O530 2.298 . S
Dy520 O534 2.275 . S
Dy520 C542 2.738 . S
Dy521 O524 2.298 1_565 S
Dy521 O527 2.275 . S
Dy521 O529 2.307 . S
Dy521 O531 2.395 . S
Dy521 O532 2.379 . S
Dy521 O535 2.339 . S
Dy521 C551 2.738 . S
C522 O534 1.254 . S
C522 O535 1.257 . S
O523 Dy520 2.307 1_545 S
O523 C533 1.266 . S
O524 Dy521 2.298 1_545 S
O524 C533 1.236 . S
O525 Dy520 2.395 . S
O525 C542 1.255 . S
O526 Dy520 2.379 . S
O526 C542 1.249 . S
O527 Dy521 2.275 . S
O527 C543 1.254 1_565 S
O528 Dy520 2.339 1_545 S
O528 C543 1.257 . S
O529 Dy521 2.307 . S
O529 C544 1.266 . S
O530 Dy520 2.298 . S
O530 C544 1.236 . S
O531 Dy521 2.395 . S
O531 C551 1.255 . S
O532 Dy521 2.379 . S
O532 C551 1.249 . S
C533 O523 1.266 . S
C533 O524 1.236 . S
O534 Dy520 2.275 . S
O534 C522 1.254 . S
O535 Dy521 2.339 . S
O535 C522 1.257 . S
C536 C539 1.344 . S
C536 C540 1.328 1_655 S
C536 C542 1.516 . S
C537 C538 1.281 1_455 S
C537 C541 1.336 . S
C538 C537 1.281 1_655 S
C538 C539 1.371 . S
C538 H552 0.930 . S
C539 C536 1.344 . S
C539 C538 1.371 . S
C539 H553 0.931 . S
C540 C536 1.328 1_455 S
C540 C541 1.433 . S
C540 H554 0.931 . S
C541 C537 1.336 . S
C541 C540 1.433 . S
C541 H555 0.933 . S
C542 Dy520 2.738 . S
C542 O525 1.255 . S
C542 O526 1.249 . S
C542 C536 1.516 . S
C543 O527 1.254 1_545 S
C543 O528 1.257 . S
C544 O529 1.266 . S
C544 O530 1.236 . S
C545 C548 1.344 1_565 S
C545 C549 1.328 . S
C545 C551 1.516 . S
C546 C547 1.304 . S
C546 C550 1.323 1_545 S
C547 C546 1.304 . S
C547 C548 1.371 . S
C547 H556 0.930 . S
C548 C545 1.344 1_545 S
C548 C547 1.371 . S
C548 H557 0.931 . S
C549 C545 1.328 . S
C549 C550 1.433 . S
C549 H558 0.931 . S
C550 C546 1.323 1_565 S
C550 C549 1.433 . S
C550 H559 0.933 . S
C551 Dy521 2.738 . S
C551 O531 1.255 . S
C551 O532 1.249 . S
C551 C545 1.516 . S
H552 C538 0.930 . S
H553 C539 0.931 . S
H554 C540 0.931 . S
H555 C541 0.933 . S
H556 C547 0.930 . S
H557 C548 0.931 . S
H558 C549 0.931 . S
H559 C550 0.933 . S
Dy560 O563 2.307 . S
Dy560 O565 2.395 . S
Dy560 O566 2.379 . S
Dy560 O568 2.339 . S
Dy560 O570 2.298 . S
Dy560 O574 2.275 . S
Dy560 C582 2.738 . S
Dy561 O564 2.298 . S
Dy561 O567 2.275 . S
Dy561 O569 2.307 . S
Dy561 O571 2.395 . S
Dy561 O572 2.379 . S
Dy561 O575 2.339 . S
Dy561 C591 2.738 . S
C562 O574 1.254 . S
C562 O575 1.257 . S
O563 Dy560 2.307 . S
O563 C573 1.266 . S
O564 Dy561 2.298 . S
O564 C573 1.236 . S
O565 Dy560 2.395 . S
O565 C582 1.255 . S
O566 Dy560 2.379 . S
O566 C582 1.249 . S
O567 Dy561 2.275 . S
O567 C583 1.254 . S
O568 Dy560 2.339 . S
O568 C583 1.257 . S
O569 Dy561 2.307 . S
O569 C584 1.266 . S
O570 Dy560 2.298 . S
O570 C584 1.236 . S
O571 Dy561 2.395 . S
O571 C591 1.255 . S
O572 Dy561 2.379 . S
O572 C591 1.249 . S
C573 O563 1.266 . S
C573 O564 1.236 . S
O574 Dy560 2.275 . S
O574 C562 1.254 . S
O575 Dy561 2.339 . S
O575 C562 1.257 . S
C576 C579 1.344 . S
C576 C580 1.328 . S
C576 C582 1.516 . S
C577 C578 1.304 . S
C577 C581 1.323 . S
C578 C577 1.304 . S
C578 C579 1.371 . S
C578 H592 0.930 . S
C579 C576 1.344 . S
C579 C578 1.371 . S
C579 H593 0.931 . S
C580 C576 1.328 . S
C580 C581 1.433 . S
C580 H594 0.931 . S
C581 C577 1.323 . S
C581 C580 1.433 . S
C581 H595 0.933 . S
C582 Dy560 2.738 . S
C582 O565 1.255 . S
C582 O566 1.249 . S
C582 C576 1.516 . S
C583 O567 1.254 . S
C583 O568 1.257 . S
C584 O569 1.266 . S
C584 O570 1.236 . S
C585 C588 1.344 . S
C585 C589 1.328 . S
C585 C591 1.516 . S
C586 C587 1.304 . S
C586 C590 1.323 . S
C587 C586 1.304 . S
C587 C588 1.371 . S
C587 H596 0.930 . S
C588 C585 1.344 . S
C588 C587 1.371 . S
C588 H597 0.931 . S
C589 C585 1.328 . S
C589 C590 1.433 . S
C589 H598 0.931 . S
C590 C586 1.323 . S
C590 C589 1.433 . S
C590 H599 0.933 . S
C591 Dy561 2.738 . S
C591 O571 1.255 . S
C591 O572 1.249 . S
C591 C585 1.516 . S
H592 C578 0.930 . S
H593 C579 0.931 . S
H594 C580 0.931 . S
H595 C581 0.933 . S
H596 C587 0.930 . S
H597 C588 0.931 . S
H598 C589 0.931 . S
H599 C590 0.933 . S
Dy600 O603 2.307 1_545 S
Dy600 O605 2.395 . S
Dy600 O606 2.379 . S
Dy600 O608 2.339 1_545 S
Dy600 O610 2.298 . S
Dy600 O614 2.275 . S
Dy600 C622 2.738 . S
Dy601 O604 2.298 1_545 S
Dy601 O607 2.275 . S
Dy601 O609 2.307 . S
Dy601 O611 2.395 . S
Dy601 O612 2.379 . S
Dy601 O615 2.339 . S
Dy601 C631 2.738 . S
C602 O614 1.254 . S
C602 O615 1.257 . S
O603 Dy600 2.307 1_565 S
O603 C613 1.266 . S
O604 Dy601 2.298 1_565 S
O604 C613 1.236 . S
O605 Dy600 2.395 . S
O605 C622 1.255 . S
O606 Dy600 2.379 . S
O606 C622 1.249 . S
O607 Dy601 2.275 . S
O607 C623 1.254 1_545 S
O608 Dy600 2.339 1_565 S
O608 C623 1.257 . S
O609 Dy601 2.307 . S
O609 C624 1.266 . S
O610 Dy600 2.298 . S
O610 C624 1.236 . S
O611 Dy601 2.395 . S
O611 C631 1.255 . S
O612 Dy601 2.379 . S
O612 C631 1.249 . S
C613 O603 1.266 . S
C613 O604 1.236 . S
O614 Dy600 2.275 . S
O614 C602 1.254 . S
O615 Dy601 2.339 . S
O615 C602 1.257 . S
C616 C619 1.344 . S
C616 C620 1.328 . S
C616 C622 1.516 . S
C617 C618 1.304 . S
C617 C621 1.323 . S
C618 C617 1.304 . S
C618 C619 1.371 . S
C618 H632 0.930 . S
C619 C616 1.344 . S
C619 C618 1.371 . S
C619 H633 0.931 . S
C620 C616 1.328 . S
C620 C621 1.433 . S
C620 H634 0.931 . S
C621 C617 1.323 . S
C621 C620 1.433 . S
C621 H635 0.933 . S
C622 Dy600 2.738 . S
C622 O605 1.255 . S
C622 O606 1.249 . S
C622 C616 1.516 . S
C623 O607 1.254 1_565 S
C623 O608 1.257 . S
C624 O609 1.266 . S
C624 O610 1.236 . S
C625 C628 1.344 1_545 S
C625 C629 1.328 . S
C625 C631 1.516 . S
C626 C627 1.304 . S
C626 C630 1.323 1_565 S
C627 C626 1.304 . S
C627 C628 1.371 . S
C627 H636 0.930 . S
C628 C625 1.344 1_565 S
C628 C627 1.371 . S
C628 H637 0.931 . S
C629 C625 1.328 . S
C629 C630 1.433 . S
C629 H638 0.931 . S
C630 C626 1.323 1_545 S
C630 C629 1.433 . S
C630 H639 0.933 . S
C631 Dy601 2.738 . S
C631 O611 1.255 . S
C631 O612 1.249 . S
C631 C625 1.516 . S
H632 C618 0.930 . S
H633 C619 0.931 . S
H634 C620 0.931 . S
H635 C621 0.933 . S
H636 C627 0.930 . S
H637 C628 0.931 . S
H638 C629 0.931 . S
H639 C630 0.933 . S
H640 C652 0.930 . S
H641 C654 0.930 . S
H642 C655 0.930 . S
H643 C659 0.959 . S
H644 C659 0.959 . S
H645 C659 0.961 . S
H646 C660 0.960 . S
H647 C660 0.961 . S
H648 C660 0.959 . S
H649 C663 0.929 . S
H650 C664 0.931 . S
H651 C666 0.930 . S
C652 H640 0.930 . S
C652 C653 1.399 . S
C652 C657 1.399 . S
C653 C652 1.399 . S
C653 C654 1.376 . S
C654 H641 0.930 . S
C654 C653 1.376 . S
C654 C655 1.388 . S
C655 H642 0.930 . S
C655 C654 1.388 . S
C655 C656 1.390 . S
C656 C655 1.390 . S
C656 C657 1.394 . S
C656 C662 1.465 . S
C657 C652 1.399 . S
C657 C656 1.394 . S
C657 C658 1.516 . S
C658 C657 1.516 . S
C658 C659 1.502 . S
C658 C660 1.561 . S
C658 C661 1.526 . S
C659 H643 0.959 . S
C659 H644 0.959 . S
C659 H645 0.961 . S
C659 C658 1.502 . S
C660 H646 0.960 . S
C660 H647 0.961 . S
C660 H648 0.959 . S
C660 C658 1.561 . S
C661 C658 1.526 . S
C661 C662 1.396 . S
C661 C666 1.390 . S
C662 C656 1.465 . S
C662 C661 1.396 . S
C662 C663 1.399 . S
C663 H649 0.929 . S
C663 C662 1.399 . S
C663 C664 1.385 . S
C664 H650 0.931 . S
C664 C663 1.385 . S
C664 C665 1.389 . S
C665 C664 1.389 . S
C665 C666 1.387 . S
C666 H651 0.930 . S
C666 C661 1.390 . S
C666 C665 1.387 . S
H667 C679 0.930 . S
H668 C681 0.930 . S
H669 C682 0.930 . S
H670 C686 0.959 . S
H671 C686 0.959 . S
H672 C686 0.961 . S
H673 C687 0.960 . S
H674 C687 0.961 . S
H675 C687 0.959 . S
H676 C690 0.929 . S
H677 C691 0.931 . S
H678 C693 0.930 . S
C679 H667 0.930 . S
C679 C680 1.399 . S
C679 C684 1.399 . S
C680 C679 1.399 . S
C680 C681 1.376 . S
C681 H668 0.930 . S
C681 C680 1.376 . S
C681 C682 1.388 . S
C682 H669 0.930 . S
C682 C681 1.388 . S
C682 C683 1.390 . S
C683 C682 1.390 . S
C683 C684 1.394 . S
C683 C689 1.465 . S
C684 C679 1.399 . S
C684 C683 1.394 . S
C684 C685 1.516 . S
C685 C684 1.516 . S
C685 C686 1.502 . S
C685 C687 1.561 . S
C685 C688 1.526 . S
C686 H670 0.959 . S
C686 H671 0.959 . S
C686 H672 0.961 . S
C686 C685 1.502 . S
C687 H673 0.960 . S
C687 H674 0.961 . S
C687 H675 0.959 . S
C687 C685 1.561 . S
C688 C685 1.526 . S
C688 C689 1.396 . S
C688 C693 1.390 . S
C689 C683 1.465 . S
C689 C688 1.396 . S
C689 C690 1.399 . S
C690 H676 0.929 . S
C690 C689 1.399 . S
C690 C691 1.385 . S
C691 H677 0.931 . S
C691 C690 1.385 . S
C691 C692 1.389 . S
C692 C691 1.389 . S
C692 C693 1.387 . S
C693 H678 0.930 . S
C693 C688 1.390 . S
C693 C692 1.387 . S
H694 C706 0.930 . S
H695 C708 0.930 . S
H696 C709 0.930 . S
H697 C713 0.959 . S
H698 C713 0.959 . S
H699 C713 0.961 . S
H700 C714 0.960 . S
H701 C714 0.961 . S
H702 C714 0.959 . S
H703 C717 0.929 . S
H704 C718 0.931 . S
H705 C720 0.930 . S
C706 H694 0.930 . S
C706 C707 1.399 . S
C706 C711 1.399 . S
C707 C706 1.399 . S
C707 C708 1.376 . S
C708 H695 0.930 . S
C708 C707 1.376 . S
C708 C709 1.388 . S
C709 H696 0.930 . S
C709 C708 1.388 . S
C709 C710 1.390 . S
C710 C709 1.390 . S
C710 C711 1.394 . S
C710 C716 1.465 . S
C711 C706 1.399 . S
C711 C710 1.394 . S
C711 C712 1.516 . S
C712 C711 1.516 . S
C712 C713 1.502 . S
C712 C714 1.561 . S
C712 C715 1.526 . S
C713 H697 0.959 . S
C713 H698 0.959 . S
C713 H699 0.961 . S
C713 C712 1.502 . S
C714 H700 0.960 . S
C714 H701 0.961 . S
C714 H702 0.959 . S
C714 C712 1.561 . S
C715 C712 1.526 . S
C715 C716 1.396 . S
C715 C720 1.390 . S
C716 C710 1.465 . S
C716 C715 1.396 . S
C716 C717 1.399 . S
C717 H703 0.929 . S
C717 C716 1.399 . S
C717 C718 1.385 . S
C718 H704 0.931 . S
C718 C717 1.385 . S
C718 C719 1.389 . S
C719 C718 1.389 . S
C719 C720 1.387 . S
C720 H705 0.930 . S
C720 C715 1.390 . S
C720 C719 1.387 . S
H721 C733 0.930 1_554 S
H722 C735 0.930 . S
H723 C736 0.930 . S
H724 C740 0.959 . S
H725 C740 0.959 . S
H726 C740 0.961 . S
H727 C741 0.960 . S
H728 C741 0.961 . S
H729 C741 0.959 . S
H730 C744 0.929 1_455 S
H731 C745 0.947 . S
H732 C747 0.930 . S
C733 H721 0.930 1_556 S
C733 C734 1.399 . S
C733 C738 1.399 1_556 S
C734 C733 1.399 . S
C734 C735 1.376 . S
C735 H722 0.930 . S
C735 C734 1.376 . S
C735 C736 1.388 . S
C736 H723 0.930 . S
C736 C735 1.388 . S
C736 C737 1.390 . S
C737 C736 1.390 . S
C737 C738 1.394 1_556 S
C737 C743 1.465 . S
C738 C733 1.399 1_554 S
C738 C737 1.394 1_554 S
C738 C739 1.516 . S
C739 C738 1.516 . S
C739 C740 1.502 1_455 S
C739 C741 1.561 . S
C739 C742 1.526 1_455 S
C740 H724 0.959 . S
C740 H725 0.959 . S
C740 H726 0.961 . S
C740 C739 1.502 1_655 S
C741 H727 0.960 . S
C741 H728 0.961 . S
C741 H729 0.959 . S
C741 C739 1.561 . S
C742 C739 1.526 1_655 S
C742 C743 1.396 1_654 S
C742 C747 1.390 . S
C743 C737 1.465 . S
C743 C742 1.396 1_456 S
C743 C744 1.399 1_455 S
C744 H730 0.929 1_655 S
C744 C743 1.399 1_655 S
C744 C745 1.408 . S
C745 H731 0.947 . S
C745 C744 1.408 . S
C745 C746 1.352 1_556 S
C746 C745 1.352 1_554 S
C746 C747 1.387 . S
C747 H732 0.930 . S
C747 C742 1.390 . S
C747 C746 1.387 . S
H748 C760 0.930 . S
H749 C762 0.930 . S
H750 C763 0.930 . S
H751 C767 0.959 . S
H752 C767 0.959 . S
H753 C767 0.961 . S
H754 C768 0.960 . S
H755 C768 0.961 . S
H756 C768 0.959 . S
H757 C771 0.929 . S
H758 C772 0.931 . S
H759 C774 0.930 . S
C760 H748 0.930 . S
C760 C761 1.399 . S
C760 C765 1.399 . S
C761 C760 1.399 . S
C761 C762 1.376 . S
C762 H749 0.930 . S
C762 C761 1.376 . S
C762 C763 1.388 . S
C763 H750 0.930 . S
C763 C762 1.388 . S
C763 C764 1.390 . S
C764 C763 1.390 . S
C764 C765 1.394 . S
C764 C770 1.465 . S
C765 C760 1.399 . S
C765 C764 1.394 . S
C765 C766 1.516 . S
C766 C765 1.516 . S
C766 C767 1.502 . S
C766 C768 1.561 . S
C766 C769 1.526 . S
C767 H751 0.959 . S
C767 H752 0.959 . S
C767 H753 0.961 . S
C767 C766 1.502 . S
C768 H754 0.960 . S
C768 H755 0.961 . S
C768 H756 0.959 . S
C768 C766 1.561 . S
C769 C766 1.526 . S
C769 C770 1.396 . S
C769 C774 1.390 . S
C770 C764 1.465 . S
C770 C769 1.396 . S
C770 C771 1.399 . S
C771 H757 0.929 . S
C771 C770 1.399 . S
C771 C772 1.385 . S
C772 H758 0.931 . S
C772 C771 1.385 . S
C772 C773 1.389 . S
C773 C772 1.389 . S
C773 C774 1.387 . S
C774 H759 0.930 . S
C774 C769 1.390 . S
C774 C773 1.387 . S
H775 C787 0.930 . S
H776 C789 0.930 . S
H777 C790 0.930 . S
H778 C794 0.959 . S
H779 C794 0.959 . S
H780 C794 0.961 . S
H781 C795 0.960 . S
H782 C795 0.961 . S
H783 C795 0.959 . S
H784 C798 0.929 . S
H785 C799 0.931 . S
H786 C801 0.930 . S
C787 H775 0.930 . S
C787 C788 1.399 . S
C787 C792 1.399 . S
C788 C787 1.399 . S
C788 C789 1.376 . S
C789 H776 0.930 . S
C789 C788 1.376 . S
C789 C790 1.388 . S
C790 H777 0.930 . S
C790 C789 1.388 . S
C790 C791 1.390 . S
C791 C790 1.390 . S
C791 C792 1.394 . S
C791 C797 1.465 . S
C792 C787 1.399 . S
C792 C791 1.394 . S
C792 C793 1.516 . S
C793 C792 1.516 . S
C793 C794 1.502 . S
C793 C795 1.561 . S
C793 C796 1.526 . S
C794 H778 0.959 . S
C794 H779 0.959 . S
C794 H780 0.961 . S
C794 C793 1.502 . S
C795 H781 0.960 . S
C795 H782 0.961 . S
C795 H783 0.959 . S
C795 C793 1.561 . S
C796 C793 1.526 . S
C796 C797 1.396 . S
C796 C801 1.390 . S
C797 C791 1.465 . S
C797 C796 1.396 . S
C797 C798 1.399 . S
C798 H784 0.929 . S
C798 C797 1.399 . S
C798 C799 1.385 . S
C799 H785 0.931 . S
C799 C798 1.385 . S
C799 C800 1.389 . S
C800 C799 1.389 . S
C800 C801 1.387 . S
C801 H786 0.930 . S
C801 C796 1.390 . S
C801 C800 1.387 . S
H802 C814 0.930 1_556 S
H803 C816 0.930 . S
H804 C817 0.930 . S
H805 C821 0.959 1_545 S
H806 C821 0.959 1_545 S
H807 C821 0.961 . S
H808 C822 0.960 . S
H809 C822 0.961 . S
H810 C822 0.959 1_655 S
H811 C825 0.929 . S
H812 C826 0.925 1_554 S
H813 C828 0.930 . S
C814 H802 0.930 1_554 S
C814 C815 1.399 . S
C814 C819 1.390 1_554 S
C815 C814 1.399 . S
C815 C816 1.376 1_455 S
C816 H803 0.930 . S
C816 C815 1.376 1_655 S
C816 C817 1.388 . S
C817 H804 0.930 . S
C817 C816 1.388 . S
C817 C818 1.390 . S
C818 C817 1.390 . S
C818 C819 1.377 1_654 S
C818 C824 1.465 1_565 S
C819 C814 1.390 1_556 S
C819 C818 1.377 1_456 S
C819 C820 1.541 . S
C820 C819 1.541 . S
C820 C821 1.502 . S
C820 C822 1.561 . S
C820 C823 1.526 1_565 S
C821 H805 0.959 1_565 S
C821 H806 0.959 1_565 S
C821 H807 0.961 . S
C821 C820 1.502 . S
C822 H808 0.960 . S
C822 H809 0.961 . S
C822 H810 0.959 1_455 S
C822 C820 1.561 . S
C823 C820 1.526 1_545 S
C823 C824 1.396 1_456 S
C823 C828 1.390 . S
C824 C818 1.465 1_545 S
C824 C823 1.396 1_654 S
C824 C825 1.399 . S
C825 H811 0.929 . S
C825 C824 1.399 . S
C825 C826 1.385 1_554 S
C826 H812 0.925 1_556 S
C826 C825 1.385 1_556 S
C826 C827 1.389 . S
C827 C826 1.389 . S
C827 C828 1.387 1_655 S
C828 H813 0.930 . S
C828 C823 1.390 . S
C828 C827 1.387 1_455 S
H829 C841 0.930 . S
H830 C843 0.930 . S
H831 C844 0.930 . S
H832 C848 0.959 . S
H833 C848 0.959 . S
H834 C848 0.961 . S
H835 C849 0.960 . S
H836 C849 0.961 . S
H837 C849 0.959 . S
H838 C852 0.929 . S
H839 C853 0.931 . S
H840 C855 0.930 . S
C841 H829 0.930 . S
C841 C842 1.399 . S
C841 C846 1.399 . S
C842 C841 1.399 . S
C842 C843 1.376 . S
C843 H830 0.930 . S
C843 C842 1.376 . S
C843 C844 1.388 . S
C844 H831 0.930 . S
C844 C843 1.388 . S
C844 C845 1.390 . S
C845 C844 1.390 . S
C845 C846 1.394 . S
C845 C851 1.465 1_565 S
C846 C841 1.399 . S
C846 C845 1.394 . S
C846 C847 1.516 . S
C847 C846 1.516 . S
C847 C848 1.502 . S
C847 C849 1.561 . S
C847 C850 1.526 1_565 S
C848 H832 0.959 . S
C848 H833 0.959 . S
C848 H834 0.961 . S
C848 C847 1.502 . S
C849 H835 0.960 . S
C849 H836 0.961 . S
C849 H837 0.959 . S
C849 C847 1.561 . S
C850 C847 1.526 1_545 S
C850 C851 1.396 . S
C850 C855 1.390 . S
C851 C845 1.465 1_545 S
C851 C850 1.396 . S
C851 C852 1.399 . S
C852 H838 0.929 . S
C852 C851 1.399 . S
C852 C853 1.385 . S
C853 H839 0.931 . S
C853 C852 1.385 . S
C853 C854 1.389 . S
C854 C853 1.389 . S
C854 C855 1.387 . S
C855 H840 0.930 . S
C855 C850 1.390 . S
C855 C854 1.387 . S
H856 C868 0.930 . S
H857 C870 0.930 . S
H858 C871 0.930 . S
H859 C875 0.959 1_545 S
H860 C875 0.959 . S
H861 C875 0.961 . S
H862 C876 0.960 . S
H863 C876 0.961 . S
H864 C876 0.959 . S
H865 C879 0.929 . S
H866 C880 0.931 1_554 S
H867 C882 0.930 1_565 S
C868 H856 0.930 . S
C868 C869 1.399 . S
C868 C873 1.399 . S
C869 C868 1.399 . S
C869 C870 1.376 . S
C870 H857 0.930 . S
C870 C869 1.376 . S
C870 C871 1.388 . S
C871 H858 0.930 . S
C871 C870 1.388 . S
C871 C872 1.390 . S
C872 C871 1.390 . S
C872 C873 1.394 . S
C872 C878 1.465 . S
C873 C868 1.399 . S
C873 C872 1.394 . S
C873 C874 1.516 . S
C874 C873 1.516 . S
C874 C875 1.502 1_545 S
C874 C876 1.561 1_545 S
C874 C877 1.526 . S
C875 H859 0.959 1_565 S
C875 H860 0.959 . S
C875 H861 0.961 . S
C875 C874 1.502 1_565 S
C876 H862 0.960 . S
C876 H863 0.961 . S
C876 H864 0.959 . S
C876 C874 1.561 1_565 S
C877 C874 1.526 . S
C877 C878 1.396 . S
C877 C882 1.390 . S
C878 C872 1.465 . S
C878 C877 1.396 . S
C878 C879 1.399 . S
C879 H865 0.929 . S
C879 C878 1.399 . S
C879 C880 1.385 . S
C880 H866 0.931 1_556 S
C880 C879 1.385 . S
C880 C881 1.389 1_556 S
C881 C880 1.389 1_554 S
C881 C882 1.387 1_554 S
C882 H867 0.930 1_545 S
C882 C877 1.390 . S
C882 C881 1.387 1_556 S
H883 C895 0.930 . S
H884 C897 0.930 . S
H885 C898 0.930 . S
H886 C902 0.959 . S
H887 C902 0.959 . S
H888 C902 0.961 . S
H889 C903 0.960 . S
H890 C903 0.961 . S
H891 C903 0.959 . S
H892 C906 0.929 . S
H893 C907 0.931 . S
H894 C909 0.930 . S
C895 H883 0.930 . S
C895 C896 1.399 . S
C895 C900 1.399 . S
C896 C895 1.399 . S
C896 C897 1.376 . S
C897 H884 0.930 . S
C897 C896 1.376 . S
C897 C898 1.388 . S
C898 H885 0.930 . S
C898 C897 1.388 . S
C898 C899 1.390 . S
C899 C898 1.390 . S
C899 C900 1.394 . S
C899 C905 1.465 . S
C900 C895 1.399 . S
C900 C899 1.394 . S
C900 C901 1.516 . S
C901 C900 1.516 . S
C901 C902 1.502 . S
C901 C903 1.561 . S
C901 C904 1.526 . S
C902 H886 0.959 . S
C902 H887 0.959 . S
C902 H888 0.961 . S
C902 C901 1.502 . S
C903 H889 0.960 . S
C903 H890 0.961 . S
C903 H891 0.959 . S
C903 C901 1.561 . S
C904 C901 1.526 . S
C904 C905 1.396 . S
C904 C909 1.390 . S
C905 C899 1.465 . S
C905 C904 1.396 . S
C905 C906 1.399 . S
C906 H892 0.929 . S
C906 C905 1.399 . S
C906 C907 1.385 . S
C907 H893 0.931 . S
C907 C906 1.385 . S
C907 C908 1.389 . S
C908 C907 1.389 . S
C908 C909 1.387 . S
C909 H894 0.930 . S
C909 C904 1.390 . S
C909 C908 1.387 . S
H910 C922 0.930 . S
H911 C924 0.925 1_545 S
H912 C925 0.930 . S
H913 C929 0.959 . S
H914 C929 0.959 . S
H915 C929 0.961 . S
H916 C930 0.960 . S
H917 C930 0.961 . S
H918 C930 0.959 . S
H919 C933 0.929 1_545 S
H920 C934 0.948 . S
H921 C936 0.930 . S
C922 H910 0.930 . S
C922 C923 1.399 . S
C922 C927 1.399 . S
C923 C922 1.399 . S
C923 C924 1.382 . S
C924 H911 0.925 1_565 S
C924 C923 1.382 . S
C924 C925 1.388 1_565 S
C925 H912 0.930 . S
C925 C924 1.388 1_545 S
C925 C926 1.390 1_545 S
C926 C925 1.390 1_565 S
C926 C927 1.394 . S
C926 C932 1.465 . S
C927 C922 1.399 . S
C927 C926 1.394 . S
C927 C928 1.516 . S
C928 C927 1.516 . S
C928 C929 1.502 . S
C928 C930 1.561 . S
C928 C931 1.526 . S
C929 H913 0.959 . S
C929 H914 0.959 . S
C929 H915 0.961 . S
C929 C928 1.502 . S
C930 H916 0.960 . S
C930 H917 0.961 . S
C930 H918 0.959 . S
C930 C928 1.561 . S
C931 C928 1.526 . S
C931 C932 1.396 . S
C931 C936 1.390 . S
C932 C926 1.465 . S
C932 C931 1.396 . S
C932 C933 1.399 . S
C933 H919 0.929 1_565 S
C933 C932 1.399 . S
C933 C934 1.385 . S
C934 H920 0.948 . S
C934 C933 1.385 . S
C934 C935 1.389 . S
C935 C934 1.389 . S
C935 C936 1.387 . S
C936 H921 0.930 . S
C936 C931 1.390 . S
C936 C935 1.387 . S
H937 C949 0.930 . S
H938 C951 0.930 . S
H939 C952 0.930 . S
H940 C956 0.959 . S
H941 C956 0.959 . S
H942 C956 0.961 . S
H943 C957 0.960 . S
H944 C957 0.961 . S
H945 C957 0.959 . S
H946 C960 0.929 . S
H947 C961 0.931 . S
H948 C963 0.930 . S
C949 H937 0.930 . S
C949 C950 1.399 . S
C949 C954 1.399 . S
C950 C949 1.399 . S
C950 C951 1.376 . S
C951 H938 0.930 . S
C951 C950 1.376 . S
C951 C952 1.388 . S
C952 H939 0.930 . S
C952 C951 1.388 . S
C952 C953 1.390 . S
C953 C952 1.390 . S
C953 C954 1.394 . S
C953 C959 1.465 . S
C954 C949 1.399 . S
C954 C953 1.394 . S
C954 C955 1.516 . S
C955 C954 1.516 . S
C955 C956 1.502 . S
C955 C957 1.561 . S
C955 C958 1.526 . S
C956 H940 0.959 . S
C956 H941 0.959 . S
C956 H942 0.961 . S
C956 C955 1.502 . S
C957 H943 0.960 . S
C957 H944 0.961 . S
C957 H945 0.959 . S
C957 C955 1.561 . S
C958 C955 1.526 . S
C958 C959 1.396 . S
C958 C963 1.390 . S
C959 C953 1.465 . S
C959 C958 1.396 . S
C959 C960 1.399 . S
C960 H946 0.929 . S
C960 C959 1.399 . S
C960 C961 1.385 . S
C961 H947 0.931 . S
C961 C960 1.385 . S
C961 C962 1.389 . S
C962 C961 1.389 . S
C962 C963 1.387 . S
C963 H948 0.930 . S
C963 C958 1.390 . S
C963 C962 1.387 . S
H964 C976 0.930 . S
H965 C978 0.930 . S
H966 C979 0.930 . S
H967 C983 0.959 1_565 S
H968 C983 0.959 . S
H969 C983 0.961 . S
H970 C984 0.960 . S
H971 C984 0.961 . S
H972 C984 0.959 . S
H973 C987 0.929 . S
H974 C988 0.931 . S
H975 C990 0.930 1_545 S
C976 H964 0.930 . S
C976 C977 1.399 . S
C976 C981 1.399 . S
C977 C976 1.399 . S
C977 C978 1.376 . S
C978 H965 0.930 . S
C978 C977 1.376 . S
C978 C979 1.388 . S
C979 H966 0.930 . S
C979 C978 1.388 . S
C979 C980 1.390 . S
C980 C979 1.390 . S
C980 C981 1.394 . S
C980 C986 1.465 . S
C981 C976 1.399 . S
C981 C980 1.394 . S
C981 C982 1.516 . S
C982 C981 1.516 . S
C982 C983 1.502 1_565 S
C982 C984 1.561 1_565 S
C982 C985 1.526 . S
C983 H967 0.959 1_545 S
C983 H968 0.959 . S
C983 H969 0.961 . S
C983 C982 1.502 1_545 S
C984 H970 0.960 . S
C984 H971 0.961 . S
C984 H972 0.959 . S
C984 C982 1.561 1_545 S
C985 C982 1.526 . S
C985 C986 1.396 . S
C985 C990 1.390 . S
C986 C980 1.465 . S
C986 C985 1.396 . S
C986 C987 1.399 . S
C987 H973 0.929 . S
C987 C986 1.399 . S
C987 C988 1.385 1_554 S
C988 H974 0.931 . S
C988 C987 1.385 1_556 S
C988 C989 1.389 . S
C989 C988 1.389 . S
C989 C990 1.387 1_556 S
C990 H975 0.930 1_565 S
C990 C985 1.390 . S
C990 C989 1.387 1_554 S
H991 C1003 0.930 . S
H992 C1005 0.930 . S
H993 C1006 0.930 . S
H994 C1010 0.959 . S
H995 C1010 0.959 . S
H996 C1010 0.961 . S
H997 C1011 0.960 . S
H998 C1011 0.961 . S
H999 C1011 0.959 . S
H1000 C1014 0.929 . S
H1001 C1015 0.931 . S
H1002 C1017 0.930 . S
C1003 H991 0.930 . S
C1003 C1004 1.399 . S
C1003 C1008 1.399 . S
C1004 C1003 1.399 . S
C1004 C1005 1.376 . S
C1005 H992 0.930 . S
C1005 C1004 1.376 . S
C1005 C1006 1.388 . S
C1006 H993 0.930 . S
C1006 C1005 1.388 . S
C1006 C1007 1.390 . S
C1007 C1006 1.390 . S
C1007 C1008 1.394 . S
C1007 C1013 1.465 . S
C1008 C1003 1.399 . S
C1008 C1007 1.394 . S
C1008 C1009 1.516 . S
C1009 C1008 1.516 . S
C1009 C1010 1.502 . S
C1009 C1011 1.561 . S
C1009 C1012 1.526 . S
C1010 H994 0.959 . S
C1010 H995 0.959 . S
C1010 H996 0.961 . S
C1010 C1009 1.502 . S
C1011 H997 0.960 . S
C1011 H998 0.961 . S
C1011 H999 0.959 . S
C1011 C1009 1.561 . S
C1012 C1009 1.526 . S
C1012 C1013 1.396 . S
C1012 C1017 1.390 . S
C1013 C1007 1.465 . S
C1013 C1012 1.396 . S
C1013 C1014 1.399 . S
C1014 H1000 0.929 . S
C1014 C1013 1.399 . S
C1014 C1015 1.385 . S
C1015 H1001 0.931 . S
C1015 C1014 1.385 . S
C1015 C1016 1.389 . S
C1016 C1015 1.389 . S
C1016 C1017 1.387 . S
C1017 H1002 0.930 . S
C1017 C1012 1.390 . S
C1017 C1016 1.387 . S
H1018 C1030 0.930 1_565 S
H1019 C1032 0.930 . S
H1020 C1033 0.930 . S
H1021 C1037 0.959 . S
H1022 C1037 0.959 . S
H1023 C1037 0.961 . S
H1024 C1038 0.960 . S
H1025 C1038 0.961 . S
H1026 C1038 0.959 1_545 S
H1027 C1041 0.929 . S
H1028 C1042 0.931 . S
H1029 C1044 0.930 . S
C1030 H1018 0.930 1_545 S
C1030 C1031 1.399 . S
C1030 C1035 1.399 . S
C1031 C1030 1.399 . S
C1031 C1032 1.376 . S
C1032 H1019 0.930 . S
C1032 C1031 1.376 . S
C1032 C1033 1.388 . S
C1033 H1020 0.930 . S
C1033 C1032 1.388 . S
C1033 C1034 1.390 . S
C1034 C1033 1.390 . S
C1034 C1035 1.394 . S
C1034 C1040 1.465 . S
C1035 C1030 1.399 . S
C1035 C1034 1.394 . S
C1035 C1036 1.516 . S
C1036 C1035 1.516 . S
C1036 C1037 1.502 1_545 S
C1036 C1038 1.561 1_545 S
C1036 C1039 1.526 . S
C1037 H1021 0.959 . S
C1037 H1022 0.959 . S
C1037 H1023 0.961 . S
C1037 C1036 1.502 1_565 S
C1038 H1024 0.960 . S
C1038 H1025 0.961 . S
C1038 H1026 0.959 1_565 S
C1038 C1036 1.561 1_565 S
C1039 C1036 1.526 . S
C1039 C1040 1.396 . S
C1039 C1044 1.390 . S
C1040 C1034 1.465 . S
C1040 C1039 1.396 . S
C1040 C1041 1.399 . S
C1041 H1027 0.929 . S
C1041 C1040 1.399 . S
C1041 C1042 1.385 . S
C1042 H1028 0.931 . S
C1042 C1041 1.385 . S
C1042 C1043 1.389 . S
C1043 C1042 1.389 . S
C1043 C1044 1.387 . S
C1044 H1029 0.930 . S
C1044 C1039 1.390 . S
C1044 C1043 1.387 . S
H1045 C1057 0.930 . S
H1046 C1059 0.930 . S
H1047 C1060 0.930 . S
H1048 C1064 0.959 . S
H1049 C1064 0.959 . S
H1050 C1064 0.961 . S
H1051 C1065 0.960 . S
H1052 C1065 0.961 . S
H1053 C1065 0.959 . S
H1054 C1068 0.929 . S
H1055 C1069 0.931 . S
H1056 C1071 0.930 . S
C1057 H1045 0.930 . S
C1057 C1058 1.399 . S
C1057 C1062 1.399 . S
C1058 C1057 1.399 . S
C1058 C1059 1.376 . S
C1059 H1046 0.930 . S
C1059 C1058 1.376 . S
C1059 C1060 1.388 . S
C1060 H1047 0.930 . S
C1060 C1059 1.388 . S
C1060 C1061 1.390 . S
C1061 C1060 1.390 . S
C1061 C1062 1.394 . S
C1061 C1067 1.465 . S
C1062 C1057 1.399 . S
C1062 C1061 1.394 . S
C1062 C1063 1.516 . S
C1063 C1062 1.516 . S
C1063 C1064 1.502 . S
C1063 C1065 1.561 . S
C1063 C1066 1.526 . S
C1064 H1048 0.959 . S
C1064 H1049 0.959 . S
C1064 H1050 0.961 . S
C1064 C1063 1.502 . S
C1065 H1051 0.960 . S
C1065 H1052 0.961 . S
C1065 H1053 0.959 . S
C1065 C1063 1.561 . S
C1066 C1063 1.526 . S
C1066 C1067 1.396 . S
C1066 C1071 1.390 . S
C1067 C1061 1.465 . S
C1067 C1066 1.396 . S
C1067 C1068 1.399 . S
C1068 H1054 0.929 . S
C1068 C1067 1.399 . S
C1068 C1069 1.385 . S
C1069 H1055 0.931 . S
C1069 C1068 1.385 . S
C1069 C1070 1.389 . S
C1070 C1069 1.389 . S
C1070 C1071 1.387 . S
C1071 H1056 0.930 . S
C1071 C1066 1.390 . S
C1071 C1070 1.387 . S
H1072 C1084 0.930 . S
H1073 C1086 0.930 . S
H1074 C1087 0.930 . S
H1075 C1091 0.959 . S
H1076 C1091 0.959 . S
H1077 C1091 0.961 . S
H1078 C1092 0.960 . S
H1079 C1092 0.961 . S
H1080 C1092 0.959 . S
H1081 C1095 0.929 . S
H1082 C1096 0.931 . S
H1083 C1098 0.930 . S
C1084 H1072 0.930 . S
C1084 C1085 1.399 . S
C1084 C1089 1.399 . S
C1085 C1084 1.399 . S
C1085 C1086 1.376 . S
C1086 H1073 0.930 . S
C1086 C1085 1.376 . S
C1086 C1087 1.388 . S
C1087 H1074 0.930 . S
C1087 C1086 1.388 . S
C1087 C1088 1.390 . S
C1088 C1087 1.390 . S
C1088 C1089 1.394 . S
C1088 C1094 1.465 . S
C1089 C1084 1.399 . S
C1089 C1088 1.394 . S
C1089 C1090 1.516 . S
C1090 C1089 1.516 . S
C1090 C1091 1.502 . S
C1090 C1092 1.561 . S
C1090 C1093 1.526 . S
C1091 H1075 0.959 . S
C1091 H1076 0.959 . S
C1091 H1077 0.961 . S
C1091 C1090 1.502 . S
C1092 H1078 0.960 . S
C1092 H1079 0.961 . S
C1092 H1080 0.959 . S
C1092 C1090 1.561 . S
C1093 C1090 1.526 . S
C1093 C1094 1.396 . S
C1093 C1098 1.390 . S
C1094 C1088 1.465 . S
C1094 C1093 1.396 . S
C1094 C1095 1.399 . S
C1095 H1081 0.929 . S
C1095 C1094 1.399 . S
C1095 C1096 1.385 . S
C1096 H1082 0.931 . S
C1096 C1095 1.385 . S
C1096 C1097 1.389 . S
C1097 C1096 1.389 . S
C1097 C1098 1.387 . S
C1098 H1083 0.930 . S
C1098 C1093 1.390 . S
C1098 C1097 1.387 . S
H1099 C1111 0.930 . S
H1100 C1113 0.930 . S
H1101 C1114 0.930 . S
H1102 C1118 0.959 . S
H1103 C1118 0.959 . S
H1104 C1118 0.961 . S
H1105 C1119 0.960 . S
H1106 C1119 0.961 . S
H1107 C1119 0.959 . S
H1108 C1122 0.929 1_545 S
H1109 C1123 0.931 . S
H1110 C1125 0.930 . S
C1111 H1099 0.930 . S
C1111 C1112 1.399 . S
C1111 C1116 1.399 . S
C1112 C1111 1.399 . S
C1112 C1113 1.376 1_565 S
C1113 H1100 0.930 . S
C1113 C1112 1.376 1_545 S
C1113 C1114 1.388 . S
C1114 H1101 0.930 . S
C1114 C1113 1.388 . S
C1114 C1115 1.390 1_545 S
C1115 C1114 1.390 1_565 S
C1115 C1116 1.394 . S
C1115 C1121 1.465 . S
C1116 C1111 1.399 . S
C1116 C1115 1.394 . S
C1116 C1117 1.516 . S
C1117 C1116 1.516 . S
C1117 C1118 1.502 . S
C1117 C1119 1.561 . S
C1117 C1120 1.526 . S
C1118 H1102 0.959 . S
C1118 H1103 0.959 . S
C1118 H1104 0.961 . S
C1118 C1117 1.502 . S
C1119 H1105 0.960 . S
C1119 H1106 0.961 . S
C1119 H1107 0.959 . S
C1119 C1117 1.561 . S
C1120 C1117 1.526 . S
C1120 C1121 1.396 . S
C1120 C1125 1.390 . S
C1121 C1115 1.465 . S
C1121 C1120 1.396 . S
C1121 C1122 1.399 . S
C1122 H1108 0.929 1_565 S
C1122 C1121 1.399 . S
C1122 C1123 1.385 . S
C1123 H1109 0.931 . S
C1123 C1122 1.385 . S
C1123 C1124 1.389 . S
C1124 C1123 1.389 . S
C1124 C1125 1.387 . S
C1125 H1110 0.930 . S
C1125 C1120 1.390 . S
C1125 C1124 1.387 . S
H1126 C1138 0.930 . S
H1127 C1140 0.930 . S
H1128 C1141 0.930 . S
H1129 C1145 0.959 . S
H1130 C1145 0.959 . S
H1131 C1145 0.961 . S
H1132 C1146 0.960 . S
H1133 C1146 0.961 . S
H1134 C1146 0.959 . S
H1135 C1149 0.929 . S
H1136 C1150 0.931 . S
H1137 C1152 0.930 . S
C1138 H1126 0.930 . S
C1138 C1139 1.399 1_556 S
C1138 C1143 1.399 . S
C1139 C1138 1.399 1_554 S
C1139 C1140 1.376 . S
C1140 H1127 0.930 . S
C1140 C1139 1.376 . S
C1140 C1141 1.388 1_554 S
C1141 H1128 0.930 . S
C1141 C1140 1.388 1_556 S
C1141 C1142 1.390 . S
C1142 C1141 1.390 . S
C1142 C1143 1.394 . S
C1142 C1148 1.465 . S
C1143 C1138 1.399 . S
C1143 C1142 1.394 . S
C1143 C1144 1.516 . S
C1144 C1143 1.516 . S
C1144 C1145 1.502 . S
C1144 C1146 1.561 . S
C1144 C1147 1.526 . S
C1145 H1129 0.959 . S
C1145 H1130 0.959 . S
C1145 H1131 0.961 . S
C1145 C1144 1.502 . S
C1146 H1132 0.960 . S
C1146 H1133 0.961 . S
C1146 H1134 0.959 . S
C1146 C1144 1.561 . S
C1147 C1144 1.526 . S
C1147 C1148 1.396 . S
C1147 C1152 1.390 . S
C1148 C1142 1.465 . S
C1148 C1147 1.396 . S
C1148 C1149 1.399 . S
C1149 H1135 0.929 . S
C1149 C1148 1.399 . S
C1149 C1150 1.385 . S
C1150 H1136 0.931 . S
C1150 C1149 1.385 . S
C1150 C1151 1.389 . S
C1151 C1150 1.389 . S
C1151 C1152 1.387 . S
C1152 H1137 0.930 . S
C1152 C1147 1.390 . S
C1152 C1151 1.387 . S
H1153 C1165 0.930 . S
H1154 C1167 0.930 . S
H1155 C1168 0.930 . S
H1156 C1172 0.959 . S
H1157 C1172 0.959 . S
H1158 C1172 0.961 . S
H1159 C1173 0.960 . S
H1160 C1173 0.961 . S
H1161 C1173 0.959 . S
H1162 C1176 0.929 . S
H1163 C1177 0.931 . S
H1164 C1179 0.930 . S
C1165 H1153 0.930 . S
C1165 C1166 1.399 . S
C1165 C1170 1.399 . S
C1166 C1165 1.399 . S
C1166 C1167 1.376 . S
C1167 H1154 0.930 . S
C1167 C1166 1.376 . S
C1167 C1168 1.388 . S
C1168 H1155 0.930 . S
C1168 C1167 1.388 . S
C1168 C1169 1.390 . S
C1169 C1168 1.390 . S
C1169 C1170 1.394 . S
C1169 C1175 1.465 . S
C1170 C1165 1.399 . S
C1170 C1169 1.394 . S
C1170 C1171 1.516 . S
C1171 C1170 1.516 . S
C1171 C1172 1.502 . S
C1171 C1173 1.561 . S
C1171 C1174 1.526 . S
C1172 H1156 0.959 . S
C1172 H1157 0.959 . S
C1172 H1158 0.961 . S
C1172 C1171 1.502 . S
C1173 H1159 0.960 . S
C1173 H1160 0.961 . S
C1173 H1161 0.959 . S
C1173 C1171 1.561 . S
C1174 C1171 1.526 . S
C1174 C1175 1.396 . S
C1174 C1179 1.390 . S
C1175 C1169 1.465 . S
C1175 C1174 1.396 . S
C1175 C1176 1.399 . S
C1176 H1162 0.929 . S
C1176 C1175 1.399 . S
C1176 C1177 1.385 . S
C1177 H1163 0.931 . S
C1177 C1176 1.385 . S
C1177 C1178 1.389 . S
C1178 C1177 1.389 . S
C1178 C1179 1.387 . S
C1179 H1164 0.930 . S
C1179 C1174 1.390 . S
C1179 C1178 1.387 . S
H1180 C1192 0.930 . S
H1181 C1194 0.930 . S
H1182 C1195 0.930 . S
H1183 C1199 0.959 . S
H1184 C1199 0.959 . S
H1185 C1199 0.961 . S
H1186 C1200 0.960 . S
H1187 C1200 0.961 . S
H1188 C1200 0.959 . S
H1189 C1203 0.929 . S
H1190 C1204 0.931 . S
H1191 C1206 0.930 . S
C1192 H1180 0.930 . S
C1192 C1193 1.399 . S
C1192 C1197 1.399 . S
C1193 C1192 1.399 . S
C1193 C1194 1.376 . S
C1194 H1181 0.930 . S
C1194 C1193 1.376 . S
C1194 C1195 1.388 . S
C1195 H1182 0.930 . S
C1195 C1194 1.388 . S
C1195 C1196 1.390 . S
C1196 C1195 1.390 . S
C1196 C1197 1.394 . S
C1196 C1202 1.465 . S
C1197 C1192 1.399 . S
C1197 C1196 1.394 . S
C1197 C1198 1.516 . S
C1198 C1197 1.516 . S
C1198 C1199 1.502 . S
C1198 C1200 1.561 . S
C1198 C1201 1.526 . S
C1199 H1183 0.959 . S
C1199 H1184 0.959 . S
C1199 H1185 0.961 . S
C1199 C1198 1.502 . S
C1200 H1186 0.960 . S
C1200 H1187 0.961 . S
C1200 H1188 0.959 . S
C1200 C1198 1.561 . S
C1201 C1198 1.526 . S
C1201 C1202 1.396 . S
C1201 C1206 1.390 . S
C1202 C1196 1.465 . S
C1202 C1201 1.396 . S
C1202 C1203 1.399 . S
C1203 H1189 0.929 . S
C1203 C1202 1.399 . S
C1203 C1204 1.385 . S
C1204 H1190 0.931 . S
C1204 C1203 1.385 . S
C1204 C1205 1.389 . S
C1205 C1204 1.389 . S
C1205 C1206 1.387 . S
C1206 H1191 0.930 . S
C1206 C1201 1.390 . S
C1206 C1205 1.387 . S
H1207 C1219 0.930 1_565 S
H1208 C1221 0.930 . S
H1209 C1222 0.930 . S
H1210 C1226 0.959 1_545 S
H1211 C1226 0.959 . S
H1212 C1226 0.961 . S
H1213 C1227 0.960 . S
H1214 C1227 0.961 . S
H1215 C1227 0.959 . S
H1216 C1230 0.929 . S
H1217 C1231 0.931 . S
H1218 C1233 0.930 . S
C1219 H1207 0.930 1_545 S
C1219 C1220 1.399 . S
C1219 C1224 1.399 . S
C1220 C1219 1.399 . S
C1220 C1221 1.376 . S
C1221 H1208 0.930 . S
C1221 C1220 1.376 . S
C1221 C1222 1.388 . S
C1222 H1209 0.930 . S
C1222 C1221 1.388 . S
C1222 C1223 1.390 . S
C1223 C1222 1.390 . S
C1223 C1224 1.394 . S
C1223 C1229 1.465 . S
C1224 C1219 1.399 . S
C1224 C1223 1.394 . S
C1224 C1225 1.516 . S
C1225 C1224 1.516 . S
C1225 C1226 1.502 1_545 S
C1225 C1227 1.561 1_545 S
C1225 C1228 1.526 . S
C1226 H1210 0.959 1_565 S
C1226 H1211 0.959 . S
C1226 H1212 0.961 . S
C1226 C1225 1.502 1_565 S
C1227 H1213 0.960 . S
C1227 H1214 0.961 . S
C1227 H1215 0.959 . S
C1227 C1225 1.561 1_565 S
C1228 C1225 1.526 . S
C1228 C1229 1.396 . S
C1228 C1233 1.390 . S
C1229 C1223 1.465 . S
C1229 C1228 1.396 . S
C1229 C1230 1.399 . S
C1230 H1216 0.929 . S
C1230 C1229 1.399 . S
C1230 C1231 1.385 . S
C1231 H1217 0.931 . S
C1231 C1230 1.385 . S
C1231 C1232 1.389 . S
C1232 C1231 1.389 . S
C1232 C1233 1.387 . S
C1233 H1218 0.930 . S
C1233 C1228 1.390 . S
C1233 C1232 1.387 . S
H1234 C1246 0.930 . S
H1235 C1248 0.930 . S
H1236 C1249 0.930 . S
H1237 C1253 0.959 . S
H1238 C1253 0.959 . S
H1239 C1253 0.961 . S
H1240 C1254 0.960 . S
H1241 C1254 0.961 . S
H1242 C1254 0.959 . S
H1243 C1257 0.929 . S
H1244 C1258 0.931 1_556 S
H1245 C1260 0.911 1_556 S
C1246 H1234 0.930 . S
C1246 C1247 1.399 . S
C1246 C1251 1.399 . S
C1247 C1246 1.399 . S
C1247 C1248 1.376 . S
C1248 H1235 0.930 . S
C1248 C1247 1.376 . S
C1248 C1249 1.388 . S
C1249 H1236 0.930 . S
C1249 C1248 1.388 . S
C1249 C1250 1.390 . S
C1250 C1249 1.390 . S
C1250 C1251 1.394 . S
C1250 C1256 1.465 . S
C1251 C1246 1.399 . S
C1251 C1250 1.394 . S
C1251 C1252 1.516 . S
C1252 C1251 1.516 . S
C1252 C1253 1.502 . S
C1252 C1254 1.561 . S
C1252 C1255 1.526 . S
C1253 H1237 0.959 . S
C1253 H1238 0.959 . S
C1253 H1239 0.961 . S
C1253 C1252 1.502 . S
C1254 H1240 0.960 . S
C1254 H1241 0.961 . S
C1254 H1242 0.959 . S
C1254 C1252 1.561 . S
C1255 C1252 1.526 . S
C1255 C1256 1.396 . S
C1255 C1260 1.390 . S
C1256 C1250 1.465 . S
C1256 C1255 1.396 . S
C1256 C1257 1.399 . S
C1257 H1243 0.929 . S
C1257 C1256 1.399 . S
C1257 C1258 1.385 . S
C1258 H1244 0.931 1_554 S
C1258 C1257 1.385 . S
C1258 C1259 1.389 1_554 S
C1259 C1258 1.389 1_556 S
C1259 C1260 1.387 1_556 S
C1260 H1245 0.911 1_554 S
C1260 C1255 1.390 . S
C1260 C1259 1.387 1_554 S
H1261 C1273 0.930 . S
H1262 C1275 0.930 . S
H1263 C1276 0.930 . S
H1264 C1280 0.959 . S
H1265 C1280 0.959 . S
H1266 C1280 0.961 . S
H1267 C1281 0.960 . S
H1268 C1281 0.961 . S
H1269 C1281 0.959 . S
H1270 C1284 0.929 1_545 S
H1271 C1285 0.931 . S
H1272 C1287 0.930 . S
C1273 H1261 0.930 . S
C1273 C1274 1.399 . S
C1273 C1278 1.399 . S
C1274 C1273 1.399 . S
C1274 C1275 1.376 1_565 S
C1275 H1262 0.930 . S
C1275 C1274 1.376 1_545 S
C1275 C1276 1.388 . S
C1276 H1263 0.930 . S
C1276 C1275 1.388 . S
C1276 C1277 1.390 1_545 S
C1277 C1276 1.390 1_565 S
C1277 C1278 1.394 . S
C1277 C1283 1.465 . S
C1278 C1273 1.399 . S
C1278 C1277 1.394 . S
C1278 C1279 1.516 . S
C1279 C1278 1.516 . S
C1279 C1280 1.502 . S
C1279 C1281 1.561 . S
C1279 C1282 1.526 . S
C1280 H1264 0.959 . S
C1280 H1265 0.959 . S
C1280 H1266 0.961 . S
C1280 C1279 1.502 . S
C1281 H1267 0.960 . S
C1281 H1268 0.961 . S
C1281 H1269 0.959 . S
C1281 C1279 1.561 . S
C1282 C1279 1.526 . S
C1282 C1283 1.396 . S
C1282 C1287 1.390 . S
C1283 C1277 1.465 . S
C1283 C1282 1.396 . S
C1283 C1284 1.399 . S
C1284 H1270 0.929 1_565 S
C1284 C1283 1.399 . S
C1284 C1285 1.385 . S
C1285 H1271 0.931 . S
C1285 C1284 1.385 . S
C1285 C1286 1.389 . S
C1286 C1285 1.389 . S
C1286 C1287 1.387 . S
C1287 H1272 0.930 . S
C1287 C1282 1.390 . S
C1287 C1286 1.387 . S
H1288 C1300 0.930 . S
H1289 C1302 0.930 . S
H1290 C1303 0.930 . S
H1291 C1307 0.959 . S
H1292 C1307 0.959 . S
H1293 C1307 0.961 . S
H1294 C1308 0.960 . S
H1295 C1308 0.961 . S
H1296 C1308 0.959 . S
H1297 C1311 0.929 . S
H1298 C1312 0.931 . S
H1299 C1314 0.930 . S
C1300 H1288 0.930 . S
C1300 C1301 1.399 . S
C1300 C1305 1.399 . S
C1301 C1300 1.399 . S
C1301 C1302 1.376 . S
C1302 H1289 0.930 . S
C1302 C1301 1.376 . S
C1302 C1303 1.388 . S
C1303 H1290 0.930 . S
C1303 C1302 1.388 . S
C1303 C1304 1.390 . S
C1304 C1303 1.390 . S
C1304 C1305 1.394 . S
C1304 C1310 1.465 . S
C1305 C1300 1.399 . S
C1305 C1304 1.394 . S
C1305 C1306 1.516 . S
C1306 C1305 1.516 . S
C1306 C1307 1.502 . S
C1306 C1308 1.561 . S
C1306 C1309 1.526 . S
C1307 H1291 0.959 . S
C1307 H1292 0.959 . S
C1307 H1293 0.961 . S
C1307 C1306 1.502 . S
C1308 H1294 0.960 . S
C1308 H1295 0.961 . S
C1308 H1296 0.959 . S
C1308 C1306 1.561 . S
C1309 C1306 1.526 . S
C1309 C1310 1.396 . S
C1309 C1314 1.390 . S
C1310 C1304 1.465 . S
C1310 C1309 1.396 . S
C1310 C1311 1.399 . S
C1311 H1297 0.929 . S
C1311 C1310 1.399 . S
C1311 C1312 1.385 . S
C1312 H1298 0.931 . S
C1312 C1311 1.385 . S
C1312 C1313 1.389 . S
C1313 C1312 1.389 . S
C1313 C1314 1.387 . S
C1314 H1299 0.930 . S
C1314 C1309 1.390 . S
C1314 C1313 1.387 . S
H1315 C1327 0.930 . S
H1316 C1329 0.930 . S
H1317 C1330 0.930 . S
H1318 C1334 0.959 . S
H1319 C1334 0.959 . S
H1320 C1334 0.961 . S
H1321 C1335 0.960 . S
H1322 C1335 0.961 . S
H1323 C1335 0.959 . S
H1324 C1338 0.929 . S
H1325 C1339 0.931 . S
H1326 C1341 0.930 . S
C1327 H1315 0.930 . S
C1327 C1328 1.399 . S
C1327 C1332 1.399 . S
C1328 C1327 1.399 . S
C1328 C1329 1.376 . S
C1329 H1316 0.930 . S
C1329 C1328 1.376 . S
C1329 C1330 1.388 . S
C1330 H1317 0.930 . S
C1330 C1329 1.388 . S
C1330 C1331 1.390 . S
C1331 C1330 1.390 . S
C1331 C1332 1.394 . S
C1331 C1337 1.465 . S
C1332 C1327 1.399 . S
C1332 C1331 1.394 . S
C1332 C1333 1.516 . S
C1333 C1332 1.516 . S
C1333 C1334 1.502 . S
C1333 C1335 1.561 . S
C1333 C1336 1.526 . S
C1334 H1318 0.959 . S
C1334 H1319 0.959 . S
C1334 H1320 0.961 . S
C1334 C1333 1.502 . S
C1335 H1321 0.960 . S
C1335 H1322 0.961 . S
C1335 H1323 0.959 . S
C1335 C1333 1.561 . S
C1336 C1333 1.526 . S
C1336 C1337 1.396 . S
C1336 C1341 1.390 . S
C1337 C1331 1.465 . S
C1337 C1336 1.396 . S
C1337 C1338 1.399 . S
C1338 H1324 0.929 . S
C1338 C1337 1.399 . S
C1338 C1339 1.385 . S
C1339 H1325 0.931 . S
C1339 C1338 1.385 . S
C1339 C1340 1.389 . S
C1340 C1339 1.389 . S
C1340 C1341 1.387 . S
C1341 H1326 0.930 . S
C1341 C1336 1.390 . S
C1341 C1340 1.387 . S
H1342 C1354 0.930 . S
H1343 C1356 0.930 . S
H1344 C1357 0.930 . S
H1345 C1361 0.959 . S
H1346 C1361 0.959 . S
H1347 C1361 0.961 . S
H1348 C1362 0.960 1_655 S
H1349 C1362 0.961 . S
H1350 C1362 0.959 . S
H1351 C1365 0.929 . S
H1352 C1366 0.931 . S
H1353 C1368 0.930 . S
C1354 H1342 0.930 . S
C1354 C1355 1.399 . S
C1354 C1359 1.399 . S
C1355 C1354 1.399 . S
C1355 C1356 1.376 . S
C1356 H1343 0.930 . S
C1356 C1355 1.376 . S
C1356 C1357 1.388 . S
C1357 H1344 0.930 . S
C1357 C1356 1.388 . S
C1357 C1358 1.390 . S
C1358 C1357 1.390 . S
C1358 C1359 1.394 . S
C1358 C1364 1.465 1_655 S
C1359 C1354 1.399 . S
C1359 C1358 1.394 . S
C1359 C1360 1.516 . S
C1360 C1359 1.516 . S
C1360 C1361 1.502 . S
C1360 C1362 1.561 1_655 S
C1360 C1363 1.526 1_655 S
C1361 H1345 0.959 . S
C1361 H1346 0.959 . S
C1361 H1347 0.961 . S
C1361 C1360 1.502 . S
C1362 H1348 0.960 1_455 S
C1362 H1349 0.961 . S
C1362 H1350 0.959 . S
C1362 C1360 1.561 1_455 S
C1363 C1360 1.526 1_455 S
C1363 C1364 1.396 . S
C1363 C1368 1.390 . S
C1364 C1358 1.465 1_455 S
C1364 C1363 1.396 . S
C1364 C1365 1.399 . S
C1365 H1351 0.929 . S
C1365 C1364 1.399 . S
C1365 C1366 1.385 . S
C1366 H1352 0.931 . S
C1366 C1365 1.385 . S
C1366 C1367 1.389 . S
C1367 C1366 1.389 . S
C1367 C1368 1.387 . S
C1368 H1353 0.930 . S
C1368 C1363 1.390 . S
C1368 C1367 1.387 . S
H1369 C1381 0.930 . S
H1370 C1383 0.930 . S
H1371 C1384 0.930 . S
H1372 C1388 0.959 . S
H1373 C1388 0.959 . S
H1374 C1388 0.961 . S
H1375 C1389 0.960 . S
H1376 C1389 0.961 . S
H1377 C1389 0.959 . S
H1378 C1392 0.930 1_655 S
H1379 C1393 0.931 . S
H1380 C1395 0.930 . S
C1381 H1369 0.930 . S
C1381 C1382 1.399 . S
C1381 C1386 1.399 . S
C1382 C1381 1.399 . S
C1382 C1383 1.376 . S
C1383 H1370 0.930 . S
C1383 C1382 1.376 . S
C1383 C1384 1.388 . S
C1384 H1371 0.930 . S
C1384 C1383 1.388 . S
C1384 C1385 1.390 . S
C1385 C1384 1.390 . S
C1385 C1386 1.394 . S
C1385 C1391 1.477 . S
C1386 C1381 1.399 . S
C1386 C1385 1.394 . S
C1386 C1387 1.516 1_655 S
C1387 C1386 1.516 1_455 S
C1387 C1388 1.502 . S
C1387 C1389 1.561 1_455 S
C1387 C1390 1.526 . S
C1388 H1372 0.959 . S
C1388 H1373 0.959 . S
C1388 H1374 0.961 . S
C1388 C1387 1.502 . S
C1389 H1375 0.960 . S
C1389 H1376 0.961 . S
C1389 H1377 0.959 . S
C1389 C1387 1.561 1_655 S
C1390 C1387 1.526 . S
C1390 C1391 1.383 1_455 S
C1390 C1395 1.390 . S
C1391 C1385 1.477 . S
C1391 C1390 1.383 1_655 S
C1391 C1392 1.398 1_655 S
C1392 H1378 0.930 1_455 S
C1392 C1391 1.398 1_455 S
C1392 C1393 1.385 . S
C1393 H1379 0.931 . S
C1393 C1392 1.385 . S
C1393 C1394 1.389 . S
C1394 C1393 1.389 . S
C1394 C1395 1.387 . S
C1395 H1380 0.930 . S
C1395 C1390 1.390 . S
C1395 C1394 1.387 . S
H1396 C1408 0.930 . S
H1397 C1410 0.930 . S
H1398 C1411 0.930 . S
H1399 C1415 0.959 . S
H1400 C1415 0.959 . S
H1401 C1415 0.961 . S
H1402 C1416 0.960 . S
H1403 C1416 0.961 . S
H1404 C1416 0.959 . S
H1405 C1419 0.929 . S
H1406 C1420 0.931 . S
H1407 C1422 0.930 . S
C1408 H1396 0.930 . S
C1408 C1409 1.399 . S
C1408 C1413 1.399 . S
C1409 C1408 1.399 . S
C1409 C1410 1.376 . S
C1410 H1397 0.930 . S
C1410 C1409 1.376 . S
C1410 C1411 1.388 . S
C1411 H1398 0.930 . S
C1411 C1410 1.388 . S
C1411 C1412 1.390 . S
C1412 C1411 1.390 . S
C1412 C1413 1.394 . S
C1412 C1418 1.465 . S
C1413 C1408 1.399 . S
C1413 C1412 1.394 . S
C1413 C1414 1.516 . S
C1414 C1413 1.516 . S
C1414 C1415 1.502 . S
C1414 C1416 1.561 . S
C1414 C1417 1.526 . S
C1415 H1399 0.959 . S
C1415 H1400 0.959 . S
C1415 H1401 0.961 . S
C1415 C1414 1.502 . S
C1416 H1402 0.960 . S
C1416 H1403 0.961 . S
C1416 H1404 0.959 . S
C1416 C1414 1.561 . S
C1417 C1414 1.526 . S
C1417 C1418 1.396 . S
C1417 C1422 1.390 . S
C1418 C1412 1.465 . S
C1418 C1417 1.396 . S
C1418 C1419 1.399 . S
C1419 H1405 0.929 . S
C1419 C1418 1.399 . S
C1419 C1420 1.385 . S
C1420 H1406 0.931 . S
C1420 C1419 1.385 . S
C1420 C1421 1.389 . S
C1421 C1420 1.389 . S
C1421 C1422 1.387 . S
C1422 H1407 0.930 . S
C1422 C1417 1.390 . S
C1422 C1421 1.387 . S
H1423 C1435 0.930 . S
H1424 C1437 0.930 . S
H1425 C1438 0.930 . S
H1426 C1442 0.959 . S
H1427 C1442 0.959 . S
H1428 C1442 0.961 . S
H1429 C1443 0.960 . S
H1430 C1443 0.961 . S
H1431 C1443 0.959 . S
H1432 C1446 0.929 . S
H1433 C1447 0.931 . S
H1434 C1449 0.930 . S
C1435 H1423 0.930 . S
C1435 C1436 1.399 . S
C1435 C1440 1.399 . S
C1436 C1435 1.399 . S
C1436 C1437 1.376 . S
C1437 H1424 0.930 . S
C1437 C1436 1.376 . S
C1437 C1438 1.388 . S
C1438 H1425 0.930 . S
C1438 C1437 1.388 . S
C1438 C1439 1.390 . S
C1439 C1438 1.390 . S
C1439 C1440 1.394 . S
C1439 C1445 1.465 . S
C1440 C1435 1.399 . S
C1440 C1439 1.394 . S
C1440 C1441 1.516 . S
C1441 C1440 1.516 . S
C1441 C1442 1.502 . S
C1441 C1443 1.561 . S
C1441 C1444 1.526 . S
C1442 H1426 0.959 . S
C1442 H1427 0.959 . S
C1442 H1428 0.961 . S
C1442 C1441 1.502 . S
C1443 H1429 0.960 . S
C1443 H1430 0.961 . S
C1443 H1431 0.959 . S
C1443 C1441 1.561 . S
C1444 C1441 1.526 . S
C1444 C1445 1.396 . S
C1444 C1449 1.390 . S
C1445 C1439 1.465 . S
C1445 C1444 1.396 . S
C1445 C1446 1.399 . S
C1446 H1432 0.929 . S
C1446 C1445 1.399 . S
C1446 C1447 1.385 . S
C1447 H1433 0.931 . S
C1447 C1446 1.385 . S
C1447 C1448 1.389 . S
C1448 C1447 1.389 . S
C1448 C1449 1.387 . S
C1449 H1434 0.930 . S
C1449 C1444 1.390 . S
C1449 C1448 1.387 . S
H1450 C1462 0.930 . S
H1451 C1464 0.930 . S
H1452 C1465 0.930 . S
H1453 C1469 0.959 . S
H1454 C1469 0.959 1_655 S
H1455 C1469 0.961 . S
H1456 C1470 0.960 1_455 S
H1457 C1470 0.961 . S
H1458 C1470 0.959 . S
H1459 C1473 0.929 . S
H1460 C1474 0.931 . S
H1461 C1476 0.930 . S
C1462 H1450 0.930 . S
C1462 C1463 1.399 . S
C1462 C1467 1.399 . S
C1463 C1462 1.399 . S
C1463 C1464 1.376 . S
C1464 H1451 0.930 . S
C1464 C1463 1.376 . S
C1464 C1465 1.388 . S
C1465 H1452 0.930 . S
C1465 C1464 1.388 . S
C1465 C1466 1.390 . S
C1466 C1465 1.390 . S
C1466 C1467 1.394 . S
C1466 C1472 1.465 1_455 S
C1467 C1462 1.399 . S
C1467 C1466 1.394 . S
C1467 C1468 1.516 1_455 S
C1468 C1467 1.516 1_655 S
C1468 C1469 1.502 1_655 S
C1468 C1470 1.561 . S
C1468 C1471 1.526 . S
C1469 H1453 0.959 . S
C1469 H1454 0.959 1_455 S
C1469 H1455 0.961 . S
C1469 C1468 1.502 1_455 S
C1470 H1456 0.960 1_655 S
C1470 H1457 0.961 . S
C1470 H1458 0.959 . S
C1470 C1468 1.561 . S
C1471 C1468 1.526 . S
C1471 C1472 1.396 . S
C1471 C1476 1.390 . S
C1472 C1466 1.465 1_655 S
C1472 C1471 1.396 . S
C1472 C1473 1.399 . S
C1473 H1459 0.929 . S
C1473 C1472 1.399 . S
C1473 C1474 1.385 . S
C1474 H1460 0.931 . S
C1474 C1473 1.385 . S
C1474 C1475 1.389 . S
C1475 C1474 1.389 . S
C1475 C1476 1.387 . S
C1476 H1461 0.930 . S
C1476 C1471 1.390 . S
C1476 C1475 1.387 . S
H1477 C1489 0.930 . S
H1478 C1491 0.930 . S
H1479 C1492 0.930 . S
H1480 C1496 0.959 . S
H1481 C1496 0.959 . S
H1482 C1496 0.961 . S
H1483 C1497 0.960 . S
H1484 C1497 0.961 1_655 S
H1485 C1497 0.959 . S
H1486 C1500 0.929 . S
H1487 C1501 0.931 . S
H1488 C1503 0.930 . S
C1489 H1477 0.930 . S
C1489 C1490 1.399 . S
C1489 C1494 1.399 . S
C1490 C1489 1.399 . S
C1490 C1491 1.376 . S
C1491 H1478 0.930 . S
C1491 C1490 1.376 . S
C1491 C1492 1.388 . S
C1492 H1479 0.930 . S
C1492 C1491 1.388 . S
C1492 C1493 1.390 . S
C1493 C1492 1.390 . S
C1493 C1494 1.394 . S
C1493 C1499 1.465 . S
C1494 C1489 1.399 . S
C1494 C1493 1.394 . S
C1494 C1495 1.516 1_455 S
C1495 C1494 1.516 1_655 S
C1495 C1496 1.502 . S
C1495 C1497 1.561 1_655 S
C1495 C1498 1.526 . S
C1496 H1480 0.959 . S
C1496 H1481 0.959 . S
C1496 H1482 0.961 . S
C1496 C1495 1.502 . S
C1497 H1483 0.960 . S
C1497 H1484 0.961 1_455 S
C1497 H1485 0.959 . S
C1497 C1495 1.561 1_455 S
C1498 C1495 1.526 . S
C1498 C1499 1.396 1_655 S
C1498 C1503 1.390 . S
C1499 C1493 1.465 . S
C1499 C1498 1.396 1_455 S
C1499 C1500 1.399 . S
C1500 H1486 0.929 . S
C1500 C1499 1.399 . S
C1500 C1501 1.385 1_455 S
C1501 H1487 0.931 . S
C1501 C1500 1.385 1_655 S
C1501 C1502 1.389 . S
C1502 C1501 1.389 . S
C1502 C1503 1.387 . S
C1503 H1488 0.930 . S
C1503 C1498 1.390 . S
C1503 C1502 1.387 . S
H1504 C1516 0.930 . S
H1505 C1518 0.930 . S
H1506 C1519 0.930 . S
H1507 C1523 0.959 . S
H1508 C1523 0.959 . S
H1509 C1523 0.961 . S
H1510 C1524 0.960 . S
H1511 C1524 0.961 . S
H1512 C1524 0.959 . S
H1513 C1527 0.929 . S
H1514 C1528 0.931 . S
H1515 C1530 0.930 . S
C1516 H1504 0.930 . S
C1516 C1517 1.399 . S
C1516 C1521 1.399 . S
C1517 C1516 1.399 . S
C1517 C1518 1.376 . S
C1518 H1505 0.930 . S
C1518 C1517 1.376 . S
C1518 C1519 1.388 . S
C1519 H1506 0.930 . S
C1519 C1518 1.388 . S
C1519 C1520 1.390 . S
C1520 C1519 1.390 . S
C1520 C1521 1.394 . S
C1520 C1526 1.465 . S
C1521 C1516 1.399 . S
C1521 C1520 1.394 . S
C1521 C1522 1.516 . S
C1522 C1521 1.516 . S
C1522 C1523 1.502 . S
C1522 C1524 1.561 . S
C1522 C1525 1.526 . S
C1523 H1507 0.959 . S
C1523 H1508 0.959 . S
C1523 H1509 0.961 . S
C1523 C1522 1.502 . S
C1524 H1510 0.960 . S
C1524 H1511 0.961 . S
C1524 H1512 0.959 . S
C1524 C1522 1.561 . S
C1525 C1522 1.526 . S
C1525 C1526 1.396 . S
C1525 C1530 1.390 . S
C1526 C1520 1.465 . S
C1526 C1525 1.396 . S
C1526 C1527 1.399 . S
C1527 H1513 0.929 . S
C1527 C1526 1.399 . S
C1527 C1528 1.385 . S
C1528 H1514 0.931 . S
C1528 C1527 1.385 . S
C1528 C1529 1.389 . S
C1529 C1528 1.389 . S
C1529 C1530 1.387 . S
C1530 H1515 0.930 . S
C1530 C1525 1.390 . S
C1530 C1529 1.387 . S
H1531 C1543 0.930 . S
H1532 C1545 0.930 . S
H1533 C1546 0.930 . S
H1534 C1550 0.959 . S
H1535 C1550 0.959 . S
H1536 C1550 0.961 . S
H1537 C1551 0.960 . S
H1538 C1551 0.961 . S
H1539 C1551 0.959 . S
H1540 C1554 0.929 . S
H1541 C1555 0.931 . S
H1542 C1557 0.930 . S
C1543 H1531 0.930 . S
C1543 C1544 1.399 . S
C1543 C1548 1.399 . S
C1544 C1543 1.399 . S
C1544 C1545 1.376 . S
C1545 H1532 0.930 . S
C1545 C1544 1.376 . S
C1545 C1546 1.388 . S
C1546 H1533 0.930 . S
C1546 C1545 1.388 . S
C1546 C1547 1.390 . S
C1547 C1546 1.390 . S
C1547 C1548 1.394 . S
C1547 C1553 1.465 . S
C1548 C1543 1.399 . S
C1548 C1547 1.394 . S
C1548 C1549 1.516 . S
C1549 C1548 1.516 . S
C1549 C1550 1.502 . S
C1549 C1551 1.561 . S
C1549 C1552 1.526 . S
C1550 H1534 0.959 . S
C1550 H1535 0.959 . S
C1550 H1536 0.961 . S
C1550 C1549 1.502 . S
C1551 H1537 0.960 . S
C1551 H1538 0.961 . S
C1551 H1539 0.959 . S
C1551 C1549 1.561 . S
C1552 C1549 1.526 . S
C1552 C1553 1.396 . S
C1552 C1557 1.390 . S
C1553 C1547 1.465 . S
C1553 C1552 1.396 . S
C1553 C1554 1.399 . S
C1554 H1540 0.929 . S
C1554 C1553 1.399 . S
C1554 C1555 1.385 . S
C1555 H1541 0.931 . S
C1555 C1554 1.385 . S
C1555 C1556 1.389 . S
C1556 C1555 1.389 . S
C1556 C1557 1.387 . S
C1557 H1542 0.930 . S
C1557 C1552 1.390 . S
C1557 C1556 1.387 . S
H1558 C1570 0.930 . S
H1559 C1572 0.930 . S
H1560 C1573 0.930 . S
H1561 C1577 0.959 . S
H1562 C1577 0.959 . S
H1563 C1577 0.961 . S
H1564 C1578 0.960 . S
H1565 C1578 0.961 . S
H1566 C1578 0.959 . S
H1567 C1581 0.929 . S
H1568 C1582 0.931 . S
H1569 C1584 0.930 . S
C1570 H1558 0.930 . S
C1570 C1571 1.399 . S
C1570 C1575 1.399 . S
C1571 C1570 1.399 . S
C1571 C1572 1.376 . S
C1572 H1559 0.930 . S
C1572 C1571 1.376 . S
C1572 C1573 1.388 . S
C1573 H1560 0.930 . S
C1573 C1572 1.388 . S
C1573 C1574 1.390 . S
C1574 C1573 1.390 . S
C1574 C1575 1.394 . S
C1574 C1580 1.465 . S
C1575 C1570 1.399 . S
C1575 C1574 1.394 . S
C1575 C1576 1.516 . S
C1576 C1575 1.516 . S
C1576 C1577 1.502 . S
C1576 C1578 1.561 . S
C1576 C1579 1.526 . S
C1577 H1561 0.959 . S
C1577 H1562 0.959 . S
C1577 H1563 0.961 . S
C1577 C1576 1.502 . S
C1578 H1564 0.960 . S
C1578 H1565 0.961 . S
C1578 H1566 0.959 . S
C1578 C1576 1.561 . S
C1579 C1576 1.526 . S
C1579 C1580 1.396 . S
C1579 C1584 1.390 . S
C1580 C1574 1.465 . S
C1580 C1579 1.396 . S
C1580 C1581 1.399 . S
C1581 H1567 0.929 . S
C1581 C1580 1.399 . S
C1581 C1582 1.385 . S
C1582 H1568 0.931 . S
C1582 C1581 1.385 . S
C1582 C1583 1.389 . S
C1583 C1582 1.389 . S
C1583 C1584 1.387 . S
C1584 H1569 0.930 . S
C1584 C1579 1.390 . S
C1584 C1583 1.387 . S
H1585 C1597 0.930 1_655 S
H1586 C1599 0.930 . S
H1587 C1600 0.930 . S
H1588 C1604 0.959 . S
H1589 C1604 0.959 . S
H1590 C1604 0.961 . S
H1591 C1605 0.960 . S
H1592 C1605 0.961 . S
H1593 C1605 0.959 . S
H1594 C1608 0.929 . S
H1595 C1609 0.931 . S
H1596 C1611 0.930 . S
C1597 H1585 0.930 1_455 S
C1597 C1598 1.399 1_455 S
C1597 C1602 1.399 . S
C1598 C1597 1.399 1_655 S
C1598 C1599 1.376 1_655 S
C1599 H1586 0.930 . S
C1599 C1598 1.376 1_455 S
C1599 C1600 1.388 . S
C1600 H1587 0.930 . S
C1600 C1599 1.388 . S
C1600 C1601 1.390 . S
C1601 C1600 1.390 . S
C1601 C1602 1.394 . S
C1601 C1607 1.465 . S
C1602 C1597 1.399 . S
C1602 C1601 1.394 . S
C1602 C1603 1.516 . S
C1603 C1602 1.516 . S
C1603 C1604 1.502 . S
C1603 C1605 1.561 . S
C1603 C1606 1.526 . S
C1604 H1588 0.959 . S
C1604 H1589 0.959 . S
C1604 H1590 0.961 . S
C1604 C1603 1.502 . S
C1605 H1591 0.960 . S
C1605 H1592 0.961 . S
C1605 H1593 0.959 . S
C1605 C1603 1.561 . S
C1606 C1603 1.526 . S
C1606 C1607 1.396 . S
C1606 C1611 1.390 . S
C1607 C1601 1.465 . S
C1607 C1606 1.396 . S
C1607 C1608 1.399 . S
C1608 H1594 0.929 . S
C1608 C1607 1.399 . S
C1608 C1609 1.385 . S
C1609 H1595 0.931 . S
C1609 C1608 1.385 . S
C1609 C1610 1.389 . S
C1610 C1609 1.389 . S
C1610 C1611 1.387 . S
C1611 H1596 0.930 . S
C1611 C1606 1.390 . S
C1611 C1610 1.387 . S
H1612 C1624 0.930 . S
H1613 C1626 0.930 . S
H1614 C1627 0.930 . S
H1615 C1631 0.959 . S
H1616 C1631 0.959 . S
H1617 C1631 0.961 . S
H1618 C1632 0.960 . S
H1619 C1632 0.961 . S
H1620 C1632 0.959 . S
H1621 C1635 0.929 . S
H1622 C1636 0.931 . S
H1623 C1638 0.930 . S
C1624 H1612 0.930 . S
C1624 C1625 1.399 . S
C1624 C1629 1.399 . S
C1625 C1624 1.399 . S
C1625 C1626 1.376 . S
C1626 H1613 0.930 . S
C1626 C1625 1.376 . S
C1626 C1627 1.388 . S
C1627 H1614 0.930 . S
C1627 C1626 1.388 . S
C1627 C1628 1.390 . S
C1628 C1627 1.390 . S
C1628 C1629 1.394 . S
C1628 C1634 1.465 . S
C1629 C1624 1.399 . S
C1629 C1628 1.394 . S
C1629 C1630 1.516 . S
C1630 C1629 1.516 . S
C1630 C1631 1.502 . S
C1630 C1632 1.561 . S
C1630 C1633 1.526 . S
C1631 H1615 0.959 . S
C1631 H1616 0.959 . S
C1631 H1617 0.961 . S
C1631 C1630 1.502 . S
C1632 H1618 0.960 . S
C1632 H1619 0.961 . S
C1632 H1620 0.959 . S
C1632 C1630 1.561 . S
C1633 C1630 1.526 . S
C1633 C1634 1.396 . S
C1633 C1638 1.390 . S
C1634 C1628 1.465 . S
C1634 C1633 1.396 . S
C1634 C1635 1.399 . S
C1635 H1621 0.929 . S
C1635 C1634 1.399 . S
C1635 C1636 1.385 . S
C1636 H1622 0.931 . S
C1636 C1635 1.385 . S
C1636 C1637 1.389 . S
C1637 C1636 1.389 . S
C1637 C1638 1.387 . S
C1638 H1623 0.930 . S
C1638 C1633 1.390 . S
C1638 C1637 1.387 . S
H1639 C1651 0.930 . S
H1640 C1653 0.930 . S
H1641 C1654 0.930 . S
H1642 C1658 0.959 . S
H1643 C1658 0.959 . S
H1644 C1658 0.961 . S
H1645 C1659 0.960 . S
H1646 C1659 0.961 . S
H1647 C1659 0.959 . S
H1648 C1662 0.929 . S
H1649 C1663 0.931 . S
H1650 C1665 0.930 . S
C1651 H1639 0.930 . S
C1651 C1652 1.399 . S
C1651 C1656 1.399 . S
C1652 C1651 1.399 . S
C1652 C1653 1.376 . S
C1653 H1640 0.930 . S
C1653 C1652 1.376 . S
C1653 C1654 1.388 . S
C1654 H1641 0.930 . S
C1654 C1653 1.388 . S
C1654 C1655 1.390 . S
C1655 C1654 1.390 . S
C1655 C1656 1.394 . S
C1655 C1661 1.465 . S
C1656 C1651 1.399 . S
C1656 C1655 1.394 . S
C1656 C1657 1.516 . S
C1657 C1656 1.516 . S
C1657 C1658 1.502 . S
C1657 C1659 1.561 . S
C1657 C1660 1.526 . S
C1658 H1642 0.959 . S
C1658 H1643 0.959 . S
C1658 H1644 0.961 . S
C1658 C1657 1.502 . S
C1659 H1645 0.960 . S
C1659 H1646 0.961 . S
C1659 H1647 0.959 . S
C1659 C1657 1.561 . S
C1660 C1657 1.526 . S
C1660 C1661 1.396 . S
C1660 C1665 1.390 . S
C1661 C1655 1.465 . S
C1661 C1660 1.396 . S
C1661 C1662 1.399 . S
C1662 H1648 0.929 . S
C1662 C1661 1.399 . S
C1662 C1663 1.385 . S
C1663 H1649 0.931 . S
C1663 C1662 1.385 . S
C1663 C1664 1.389 . S
C1664 C1663 1.389 . S
C1664 C1665 1.387 . S
C1665 H1650 0.930 . S
C1665 C1660 1.390 . S
C1665 C1664 1.387 . S
H1666 C1678 0.930 . S
H1667 C1680 0.930 . S
H1668 C1681 0.930 . S
H1669 C1685 0.959 . S
H1670 C1685 0.959 . S
H1671 C1685 0.961 . S
H1672 C1686 0.960 . S
H1673 C1686 0.961 . S
H1674 C1686 0.959 . S
H1675 C1689 0.929 . S
H1676 C1690 0.931 . S
H1677 C1692 0.930 . S
C1678 H1666 0.930 . S
C1678 C1679 1.399 . S
C1678 C1683 1.399 . S
C1679 C1678 1.399 . S
C1679 C1680 1.376 . S
C1680 H1667 0.930 . S
C1680 C1679 1.376 . S
C1680 C1681 1.388 . S
C1681 H1668 0.930 . S
C1681 C1680 1.388 . S
C1681 C1682 1.390 . S
C1682 C1681 1.390 . S
C1682 C1683 1.394 . S
C1682 C1688 1.465 . S
C1683 C1678 1.399 . S
C1683 C1682 1.394 . S
C1683 C1684 1.516 . S
C1684 C1683 1.516 . S
C1684 C1685 1.502 . S
C1684 C1686 1.561 . S
C1684 C1687 1.526 . S
C1685 H1669 0.959 . S
C1685 H1670 0.959 . S
C1685 H1671 0.961 . S
C1685 C1684 1.502 . S
C1686 H1672 0.960 . S
C1686 H1673 0.961 . S
C1686 H1674 0.959 . S
C1686 C1684 1.561 . S
C1687 C1684 1.526 . S
C1687 C1688 1.396 . S
C1687 C1692 1.390 . S
C1688 C1682 1.465 . S
C1688 C1687 1.396 . S
C1688 C1689 1.399 . S
C1689 H1675 0.929 . S
C1689 C1688 1.399 . S
C1689 C1690 1.385 . S
C1690 H1676 0.931 . S
C1690 C1689 1.385 . S
C1690 C1691 1.389 . S
C1691 C1690 1.389 . S
C1691 C1692 1.387 . S
C1692 H1677 0.930 . S
C1692 C1687 1.390 . S
C1692 C1691 1.387 . S
H1693 C1705 0.930 . S
H1694 C1707 0.930 . S
H1695 C1708 0.930 . S
H1696 C1712 0.959 . S
H1697 C1712 0.959 . S
H1698 C1712 0.961 . S
H1699 C1713 0.960 . S
H1700 C1713 0.961 . S
H1701 C1713 0.959 . S
H1702 C1716 0.929 . S
H1703 C1717 0.931 . S
H1704 C1719 0.930 . S
C1705 H1693 0.930 . S
C1705 C1706 1.399 . S
C1705 C1710 1.399 . S
C1706 C1705 1.399 . S
C1706 C1707 1.376 . S
C1707 H1694 0.930 . S
C1707 C1706 1.376 . S
C1707 C1708 1.388 . S
C1708 H1695 0.930 . S
C1708 C1707 1.388 . S
C1708 C1709 1.390 . S
C1709 C1708 1.390 . S
C1709 C1710 1.394 . S
C1709 C1715 1.465 . S
C1710 C1705 1.399 . S
C1710 C1709 1.394 . S
C1710 C1711 1.516 . S
C1711 C1710 1.516 . S
C1711 C1712 1.502 . S
C1711 C1713 1.561 . S
C1711 C1714 1.526 . S
C1712 H1696 0.959 . S
C1712 H1697 0.959 . S
C1712 H1698 0.961 . S
C1712 C1711 1.502 . S
C1713 H1699 0.960 . S
C1713 H1700 0.961 . S
C1713 H1701 0.959 . S
C1713 C1711 1.561 . S
C1714 C1711 1.526 . S
C1714 C1715 1.396 . S
C1714 C1719 1.390 . S
C1715 C1709 1.465 . S
C1715 C1714 1.396 . S
C1715 C1716 1.399 . S
C1716 H1702 0.929 . S
C1716 C1715 1.399 . S
C1716 C1717 1.385 1_655 S
C1717 H1703 0.931 . S
C1717 C1716 1.385 1_455 S
C1717 C1718 1.389 . S
C1718 C1717 1.389 . S
C1718 C1719 1.387 1_455 S
C1719 H1704 0.930 . S
C1719 C1714 1.390 . S
C1719 C1718 1.387 1_655 S
H1720 C1732 0.930 . S
H1721 C1734 0.930 . S
H1722 C1735 0.930 . S
H1723 C1739 0.959 . S
H1724 C1739 0.959 . S
H1725 C1739 0.961 . S
H1726 C1740 0.960 . S
H1727 C1740 0.961 . S
H1728 C1740 0.959 . S
H1729 C1743 0.929 . S
H1730 C1744 0.931 . S
H1731 C1746 0.930 . S
C1732 H1720 0.930 . S
C1732 C1733 1.399 . S
C1732 C1737 1.399 . S
C1733 C1732 1.399 . S
C1733 C1734 1.376 . S
C1734 H1721 0.930 . S
C1734 C1733 1.376 . S
C1734 C1735 1.388 . S
C1735 H1722 0.930 . S
C1735 C1734 1.388 . S
C1735 C1736 1.390 . S
C1736 C1735 1.390 . S
C1736 C1737 1.394 . S
C1736 C1742 1.465 . S
C1737 C1732 1.399 . S
C1737 C1736 1.394 . S
C1737 C1738 1.516 . S
C1738 C1737 1.516 . S
C1738 C1739 1.502 . S
C1738 C1740 1.561 . S
C1738 C1741 1.526 . S
C1739 H1723 0.959 . S
C1739 H1724 0.959 . S
C1739 H1725 0.961 . S
C1739 C1738 1.502 . S
C1740 H1726 0.960 . S
C1740 H1727 0.961 . S
C1740 H1728 0.959 . S
C1740 C1738 1.561 . S
C1741 C1738 1.526 . S
C1741 C1742 1.396 . S
C1741 C1746 1.390 . S
C1742 C1736 1.465 . S
C1742 C1741 1.396 . S
C1742 C1743 1.399 . S
C1743 H1729 0.929 . S
C1743 C1742 1.399 . S
C1743 C1744 1.385 . S
C1744 H1730 0.931 . S
C1744 C1743 1.385 . S
C1744 C1745 1.389 . S
C1745 C1744 1.389 . S
C1745 C1746 1.387 . S
C1746 H1731 0.930 . S
C1746 C1741 1.390 . S
C1746 C1745 1.387 . S
H1747 C1759 0.930 . S
H1748 C1761 0.930 . S
H1749 C1762 0.930 . S
H1750 C1766 0.959 . S
H1751 C1766 0.959 . S
H1752 C1766 0.961 . S
H1753 C1767 0.960 . S
H1754 C1767 0.961 . S
H1755 C1767 0.959 . S
H1756 C1770 0.929 . S
H1757 C1771 0.931 1_545 S
H1758 C1773 0.930 1_455 S
C1759 H1747 0.930 . S
C1759 C1760 1.399 . S
C1759 C1764 1.399 . S
C1760 C1759 1.399 . S
C1760 C1761 1.376 . S
C1761 H1748 0.930 . S
C1761 C1760 1.376 . S
C1761 C1762 1.388 . S
C1762 H1749 0.930 . S
C1762 C1761 1.388 . S
C1762 C1763 1.390 . S
C1763 C1762 1.390 . S
C1763 C1764 1.394 . S
C1763 C1769 1.465 . S
C1764 C1759 1.399 . S
C1764 C1763 1.394 . S
C1764 C1765 1.516 . S
C1765 C1764 1.516 . S
C1765 C1766 1.502 . S
C1765 C1767 1.561 . S
C1765 C1768 1.526 . S
C1766 H1750 0.959 . S
C1766 H1751 0.959 . S
C1766 H1752 0.961 . S
C1766 C1765 1.502 . S
C1767 H1753 0.960 . S
C1767 H1754 0.961 . S
C1767 H1755 0.959 . S
C1767 C1765 1.561 . S
C1768 C1765 1.526 . S
C1768 C1769 1.396 . S
C1768 C1773 1.390 . S
C1769 C1763 1.465 . S
C1769 C1768 1.396 . S
C1769 C1770 1.399 . S
C1770 H1756 0.929 . S
C1770 C1769 1.399 . S
C1770 C1771 1.385 . S
C1771 H1757 0.931 1_565 S
C1771 C1770 1.385 . S
C1771 C1772 1.389 1_655 S
C1772 C1771 1.389 1_455 S
C1772 C1773 1.387 1_455 S
C1773 H1758 0.930 1_655 S
C1773 C1768 1.390 . S
C1773 C1772 1.387 1_655 S
H1774 C1786 0.930 . S
H1775 C1788 0.930 . S
H1776 C1789 0.930 . S
H1777 C1793 0.959 . S
H1778 C1793 0.959 . S
H1779 C1793 0.961 . S
H1780 C1794 0.960 . S
H1781 C1794 0.961 . S
H1782 C1794 0.959 . S
H1783 C1797 0.929 . S
H1784 C1798 0.931 . S
H1785 C1800 0.930 . S
C1786 H1774 0.930 . S
C1786 C1787 1.399 . S
C1786 C1791 1.399 . S
C1787 C1786 1.399 . S
C1787 C1788 1.376 . S
C1788 H1775 0.930 . S
C1788 C1787 1.376 . S
C1788 C1789 1.388 . S
C1789 H1776 0.930 . S
C1789 C1788 1.388 . S
C1789 C1790 1.390 . S
C1790 C1789 1.390 . S
C1790 C1791 1.394 . S
C1790 C1796 1.465 . S
C1791 C1786 1.399 . S
C1791 C1790 1.394 . S
C1791 C1792 1.516 . S
C1792 C1791 1.516 . S
C1792 C1793 1.502 . S
C1792 C1794 1.561 . S
C1792 C1795 1.526 . S
C1793 H1777 0.959 . S
C1793 H1778 0.959 . S
C1793 H1779 0.961 . S
C1793 C1792 1.502 . S
C1794 H1780 0.960 . S
C1794 H1781 0.961 . S
C1794 H1782 0.959 . S
C1794 C1792 1.561 . S
C1795 C1792 1.526 . S
C1795 C1796 1.396 . S
C1795 C1800 1.390 . S
C1796 C1790 1.465 . S
C1796 C1795 1.396 . S
C1796 C1797 1.399 . S
C1797 H1783 0.929 . S
C1797 C1796 1.399 . S
C1797 C1798 1.385 . S
C1798 H1784 0.931 . S
C1798 C1797 1.385 . S
C1798 C1799 1.389 . S
C1799 C1798 1.389 . S
C1799 C1800 1.387 . S
C1800 H1785 0.930 . S
C1800 C1795 1.390 . S
C1800 C1799 1.387 . S
H1801 C1813 0.930 . S
H1802 C1815 0.930 1_565 S
H1803 C1816 0.930 . S
H1804 C1820 0.959 . S
H1805 C1820 0.959 . S
H1806 C1820 0.961 . S
H1807 C1821 0.960 . S
H1808 C1821 0.961 . S
H1809 C1821 0.959 . S
H1810 C1824 0.929 . S
H1811 C1825 0.931 . S
H1812 C1827 0.930 . S
C1813 H1801 0.930 . S
C1813 C1814 1.399 . S
C1813 C1818 1.399 . S
C1814 C1813 1.399 . S
C1814 C1815 1.376 . S
C1815 H1802 0.930 1_545 S
C1815 C1814 1.376 . S
C1815 C1816 1.388 . S
C1816 H1803 0.930 . S
C1816 C1815 1.388 . S
C1816 C1817 1.390 . S
C1817 C1816 1.390 . S
C1817 C1818 1.394 . S
C1817 C1823 1.465 . S
C1818 C1813 1.399 . S
C1818 C1817 1.394 . S
C1818 C1819 1.516 . S
C1819 C1818 1.516 . S
C1819 C1820 1.502 . S
C1819 C1821 1.561 . S
C1819 C1822 1.526 . S
C1820 H1804 0.959 . S
C1820 H1805 0.959 . S
C1820 H1806 0.961 . S
C1820 C1819 1.502 . S
C1821 H1807 0.960 . S
C1821 H1808 0.961 . S
C1821 H1809 0.959 . S
C1821 C1819 1.561 . S
C1822 C1819 1.526 . S
C1822 C1823 1.396 . S
C1822 C1827 1.390 . S
C1823 C1817 1.465 . S
C1823 C1822 1.396 . S
C1823 C1824 1.399 . S
C1824 H1810 0.929 . S
C1824 C1823 1.399 . S
C1824 C1825 1.385 . S
C1825 H1811 0.931 . S
C1825 C1824 1.385 . S
C1825 C1826 1.389 . S
C1826 C1825 1.389 . S
C1826 C1827 1.387 . S
C1827 H1812 0.930 . S
C1827 C1822 1.390 . S
C1827 C1826 1.387 . S
H1828 C1840 0.930 . S
H1829 C1842 0.930 . S
H1830 C1843 0.930 . S
H1831 C1847 0.959 . S
H1832 C1847 0.959 . S
H1833 C1847 0.961 . S
H1834 C1848 0.960 . S
H1835 C1848 0.961 . S
H1836 C1848 0.959 . S
H1837 C1851 0.929 . S
H1838 C1852 0.931 . S
H1839 C1854 0.930 . S
C1840 H1828 0.930 . S
C1840 C1841 1.399 . S
C1840 C1845 1.399 . S
C1841 C1840 1.399 . S
C1841 C1842 1.376 . S
C1842 H1829 0.930 . S
C1842 C1841 1.376 . S
C1842 C1843 1.388 . S
C1843 H1830 0.930 . S
C1843 C1842 1.388 . S
C1843 C1844 1.390 . S
C1844 C1843 1.390 . S
C1844 C1845 1.394 . S
C1844 C1850 1.465 . S
C1845 C1840 1.399 . S
C1845 C1844 1.394 . S
C1845 C1846 1.516 . S
C1846 C1845 1.516 . S
C1846 C1847 1.502 . S
C1846 C1848 1.561 . S
C1846 C1849 1.526 . S
C1847 H1831 0.959 . S
C1847 H1832 0.959 . S
C1847 H1833 0.961 . S
C1847 C1846 1.502 . S
C1848 H1834 0.960 . S
C1848 H1835 0.961 . S
C1848 H1836 0.959 . S
C1848 C1846 1.561 . S
C1849 C1846 1.526 . S
C1849 C1850 1.396 . S
C1849 C1854 1.390 . S
C1850 C1844 1.465 . S
C1850 C1849 1.396 . S
C1850 C1851 1.399 . S
C1851 H1837 0.929 . S
C1851 C1850 1.399 . S
C1851 C1852 1.385 . S
C1852 H1838 0.931 . S
C1852 C1851 1.385 . S
C1852 C1853 1.389 . S
C1853 C1852 1.389 . S
C1853 C1854 1.387 . S
C1854 H1839 0.930 . S
C1854 C1849 1.390 . S
C1854 C1853 1.387 . S
H1855 C1867 0.930 . S
H1856 C1869 0.930 1_665 S
H1857 C1870 0.930 . S
H1858 C1874 0.959 . S
H1859 C1874 0.959 . S
H1860 C1874 0.961 . S
H1861 C1875 0.960 . S
H1862 C1875 0.961 . S
H1863 C1875 0.959 . S
H1864 C1878 0.929 . S
H1865 C1879 0.931 . S
H1866 C1881 0.930 . S
C1867 H1855 0.930 . S
C1867 C1868 1.399 1_455 S
C1867 C1872 1.399 . S
C1868 C1867 1.399 1_655 S
C1868 C1869 1.376 1_655 S
C1869 H1856 0.930 1_445 S
C1869 C1868 1.376 1_455 S
C1869 C1870 1.388 . S
C1870 H1857 0.930 . S
C1870 C1869 1.388 . S
C1870 C1871 1.390 . S
C1871 C1870 1.390 . S
C1871 C1872 1.394 . S
C1871 C1877 1.465 . S
C1872 C1867 1.399 . S
C1872 C1871 1.394 . S
C1872 C1873 1.516 . S
C1873 C1872 1.516 . S
C1873 C1874 1.502 . S
C1873 C1875 1.561 . S
C1873 C1876 1.526 . S
C1874 H1858 0.959 . S
C1874 H1859 0.959 . S
C1874 H1860 0.961 . S
C1874 C1873 1.502 . S
C1875 H1861 0.960 . S
C1875 H1862 0.961 . S
C1875 H1863 0.959 . S
C1875 C1873 1.561 . S
C1876 C1873 1.526 . S
C1876 C1877 1.396 . S
C1876 C1881 1.390 . S
C1877 C1871 1.465 . S
C1877 C1876 1.396 . S
C1877 C1878 1.399 . S
C1878 H1864 0.929 . S
C1878 C1877 1.399 . S
C1878 C1879 1.385 . S
C1879 H1865 0.931 . S
C1879 C1878 1.385 . S
C1879 C1880 1.389 . S
C1880 C1879 1.389 . S
C1880 C1881 1.387 . S
C1881 H1866 0.930 . S
C1881 C1876 1.390 . S
C1881 C1880 1.387 . S
H1882 C1894 0.930 . S
H1883 C1896 0.930 . S
H1884 C1897 0.930 . S
H1885 C1901 0.959 . S
H1886 C1901 0.959 . S
H1887 C1901 0.961 . S
H1888 C1902 0.960 . S
H1889 C1902 0.961 . S
H1890 C1902 0.959 . S
H1891 C1905 0.929 . S
H1892 C1906 0.931 . S
H1893 C1908 0.930 . S
C1894 H1882 0.930 . S
C1894 C1895 1.399 . S
C1894 C1899 1.399 . S
C1895 C1894 1.399 . S
C1895 C1896 1.376 . S
C1896 H1883 0.930 . S
C1896 C1895 1.376 . S
C1896 C1897 1.388 . S
C1897 H1884 0.930 . S
C1897 C1896 1.388 . S
C1897 C1898 1.390 . S
C1898 C1897 1.390 . S
C1898 C1899 1.394 . S
C1898 C1904 1.465 . S
C1899 C1894 1.399 . S
C1899 C1898 1.394 . S
C1899 C1900 1.516 . S
C1900 C1899 1.516 . S
C1900 C1901 1.502 . S
C1900 C1902 1.561 . S
C1900 C1903 1.526 . S
C1901 H1885 0.959 . S
C1901 H1886 0.959 . S
C1901 H1887 0.961 . S
C1901 C1900 1.502 . S
C1902 H1888 0.960 . S
C1902 H1889 0.961 . S
C1902 H1890 0.959 . S
C1902 C1900 1.561 . S
C1903 C1900 1.526 . S
C1903 C1904 1.396 . S
C1903 C1908 1.390 . S
C1904 C1898 1.465 . S
C1904 C1903 1.396 . S
C1904 C1905 1.399 . S
C1905 H1891 0.929 . S
C1905 C1904 1.399 . S
C1905 C1906 1.385 . S
C1906 H1892 0.931 . S
C1906 C1905 1.385 . S
C1906 C1907 1.389 . S
C1907 C1906 1.389 . S
C1907 C1908 1.387 . S
C1908 H1893 0.930 . S
C1908 C1903 1.390 . S
C1908 C1907 1.387 . S
H1909 C1921 0.930 . S
H1910 C1923 0.930 . S
H1911 C1924 0.930 . S
H1912 C1928 0.959 . S
H1913 C1928 0.959 . S
H1914 C1928 0.961 . S
H1915 C1929 0.960 . S
H1916 C1929 0.961 . S
H1917 C1929 0.959 . S
H1918 C1932 0.929 1_545 S
H1919 C1933 0.931 . S
H1920 C1935 0.930 . S
C1921 H1909 0.930 . S
C1921 C1922 1.399 . S
C1921 C1926 1.399 . S
C1922 C1921 1.399 . S
C1922 C1923 1.376 . S
C1923 H1910 0.930 . S
C1923 C1922 1.376 . S
C1923 C1924 1.388 . S
C1924 H1911 0.930 . S
C1924 C1923 1.388 . S
C1924 C1925 1.390 . S
C1925 C1924 1.390 . S
C1925 C1926 1.394 . S
C1925 C1931 1.465 . S
C1926 C1921 1.399 . S
C1926 C1925 1.394 . S
C1926 C1927 1.516 . S
C1927 C1926 1.516 . S
C1927 C1928 1.502 . S
C1927 C1929 1.561 . S
C1927 C1930 1.526 . S
C1928 H1912 0.959 . S
C1928 H1913 0.959 . S
C1928 H1914 0.961 . S
C1928 C1927 1.502 . S
C1929 H1915 0.960 . S
C1929 H1916 0.961 . S
C1929 H1917 0.959 . S
C1929 C1927 1.561 . S
C1930 C1927 1.526 . S
C1930 C1931 1.396 . S
C1930 C1935 1.390 . S
C1931 C1925 1.465 . S
C1931 C1930 1.396 . S
C1931 C1932 1.399 . S
C1932 H1918 0.929 1_565 S
C1932 C1931 1.399 . S
C1932 C1933 1.385 1_565 S
C1933 H1919 0.931 . S
C1933 C1932 1.385 1_545 S
C1933 C1934 1.389 1_545 S
C1934 C1933 1.389 1_565 S
C1934 C1935 1.387 . S
C1935 H1920 0.930 . S
C1935 C1930 1.390 . S
C1935 C1934 1.387 . S
C653 C26 1.090 . S
C665 C497 0.876 . S
C680 C217 1.005 . S
C692 C66 0.941 . S
C707 C106 1.083 . S
C719 C577 0.877 . S
C734 C146 0.955 . S
C746 C297 1.075 . S
C761 C177 0.919 . S
C773 C346 1.027 . S
C788 C426 0.889 . S
C800 C257 1.060 . S
C815 C537 0.905 . S
C827 C386 1.103 . S
C842 C466 1.037 . S
C854 C617 0.972 . S
C869 C383 2.182 . S
C881 C17 2.097 . S
C896 C57 2.111 . S
C908 C423 2.176 . S
C923 C97 2.148 . S
C935 C463 2.144 . S
C950 C343 2.153 . S
C962 C137 2.139 . S
C977 C522 2.160 . S
C989 C186 2.091 . S
C1004 C562 2.183 . S
C1016 C226 2.112 . S
C1031 C266 2.093 . S
C1043 C602 2.178 . S
C1058 C482 2.147 . S
C1070 C306 2.152 . S
C1085 C337 2.145 . S
C1097 C63 2.148 . S
C1112 C377 2.109 . S
C1124 C103 2.177 . S
C1139 C417 2.096 . S
C1151 C143 2.167 . S
C1166 C23 2.132 . S
C1178 C457 2.152 . S
C1193 C202 2.164 . S
C1205 C506 2.090 . S
C1220 C546 2.093 . S
C1232 C242 2.155 . S
C1247 C282 2.151 . S
C1259 C586 2.151 . S
C1274 C626 2.127 . S
C1286 C162 2.177 . S
C1301 C13 3.078 . S
C1313 C413 3.084 . S
C1328 C53 3.069 . S
C1340 C453 3.066 . S
C1355 C333 3.071 . S
C1367 C93 3.066 . S
C1382 C133 3.071 . S
C1394 C373 3.066 . S
C1409 C184 3.066 . S
C1421 C584 3.068 . S
C1436 C224 3.067 . S
C1448 C624 3.069 . S
C1463 C504 3.084 . S
C1475 C264 3.083 . S
C1490 C304 3.082 . S
C1502 C544 3.080 . S
C1517 C2 1.605 . S
C1529 C293 1.911 . S
C1544 C493 1.908 . S
C1556 C42 1.588 . S
C1571 C82 1.624 . S
C1583 C213 1.907 . S
C1598 C122 1.689 . S
C1610 C573 1.865 . S
C1625 C183 1.701 . S
C1637 C144 1.866 . S
C1652 C344 1.864 . S
C1664 C223 1.704 . S
C1679 C263 1.587 . S
C1691 C64 1.911 . S
C1706 C424 1.883 . S
C1718 C303 1.656 . S
C1733 C322 1.617 . S
C1745 C613 1.909 . S
C1760 C173 1.863 . S
C1772 C362 1.695 . S
C1787 C533 1.872 . S
C1799 C402 1.704 . S
C1814 C442 1.680 . S
C1826 C253 1.866 . S
C1841 C503 1.707 . S
C1853 C464 1.864 . S
C1868 C543 1.610 . S
C1880 C24 1.903 . S
C1895 C384 1.905 . S
C1907 C583 1.602 . S
C1922 C104 1.907 . S
C1934 C623 1.600 . S
