# Generated by pormake.
# Topology svh, (7)-cn, num edge types: 1
# Building blocks:
#     Node 0, Type 0, BuildingBlock: HICVOG_clean_sbu_0, # of connection points: 7
#     Node 1, Type 0, BuildingBlock: HICVOG_clean_sbu_0, # of connection points: 7
#     Node 2, Type 0, BuildingBlock: HICVOG_clean_sbu_0, # of connection points: 7
#     Node 3, Type 0, BuildingBlock: HICVOG_clean_sbu_0, # of connection points: 7
#     Node 4, Type 0, BuildingBlock: HICVOG_clean_sbu_0, # of connection points: 7
#     Node 5, Type 0, BuildingBlock: HICVOG_clean_sbu_0, # of connection points: 7
#     Node 6, Type 0, BuildingBlock: HICVOG_clean_sbu_0, # of connection points: 7
#     Node 7, Type 0, BuildingBlock: HICVOG_clean_sbu_0, # of connection points: 7
#     Edge 8, Type (0, 0), BuildingBlock: UVAHIK_clean_linker_0, # of connection points: 2
#     Edge 9, Type (0, 0), BuildingBlock: UVAHIK_clean_linker_0, # of connection points: 2
#     Edge 10, Type (0, 0), BuildingBlock: UVAHIK_clean_linker_0, # of connection points: 2
#     Edge 11, Type (0, 0), BuildingBlock: UVAHIK_clean_linker_0, # of connection points: 2
#     Edge 12, Type (0, 0), BuildingBlock: UVAHIK_clean_linker_0, # of connection points: 2
#     Edge 13, Type (0, 0), BuildingBlock: UVAHIK_clean_linker_0, # of connection points: 2
#     Edge 14, Type (0, 0), BuildingBlock: UVAHIK_clean_linker_0, # of connection points: 2
#     Edge 15, Type (0, 0), BuildingBlock: UVAHIK_clean_linker_0, # of connection points: 2
#     Edge 16, Type (0, 0), BuildingBlock: UVAHIK_clean_linker_0, # of connection points: 2
#     Edge 17, Type (0, 0), BuildingBlock: UVAHIK_clean_linker_0, # of connection points: 2
#     Edge 18, Type (0, 0), BuildingBlock: UVAHIK_clean_linker_0, # of connection points: 2
#     Edge 19, Type (0, 0), BuildingBlock: UVAHIK_clean_linker_0, # of connection points: 2
#     Edge 20, Type (0, 0), BuildingBlock: UVAHIK_clean_linker_0, # of connection points: 2
#     Edge 21, Type (0, 0), BuildingBlock: UVAHIK_clean_linker_0, # of connection points: 2
#     Edge 22, Type (0, 0), BuildingBlock: UVAHIK_clean_linker_0, # of connection points: 2
#     Edge 23, Type (0, 0), BuildingBlock: UVAHIK_clean_linker_0, # of connection points: 2
#     Edge 24, Type (0, 0), BuildingBlock: UVAHIK_clean_linker_0, # of connection points: 2
#     Edge 25, Type (0, 0), BuildingBlock: UVAHIK_clean_linker_0, # of connection points: 2
#     Edge 26, Type (0, 0), BuildingBlock: UVAHIK_clean_linker_0, # of connection points: 2
#     Edge 27, Type (0, 0), BuildingBlock: UVAHIK_clean_linker_0, # of connection points: 2
#     Edge 28, Type (0, 0), BuildingBlock: UVAHIK_clean_linker_0, # of connection points: 2
#     Edge 29, Type (0, 0), BuildingBlock: UVAHIK_clean_linker_0, # of connection points: 2
#     Edge 30, Type (0, 0), BuildingBlock: UVAHIK_clean_linker_0, # of connection points: 2
#     Edge 31, Type (0, 0), BuildingBlock: UVAHIK_clean_linker_0, # of connection points: 2
#     Edge 32, Type (0, 0), BuildingBlock: UVAHIK_clean_linker_0, # of connection points: 2
#     Edge 33, Type (0, 0), BuildingBlock: UVAHIK_clean_linker_0, # of connection points: 2
#     Edge 34, Type (0, 0), BuildingBlock: UVAHIK_clean_linker_0, # of connection points: 2
#     Edge 35, Type (0, 0), BuildingBlock: UVAHIK_clean_linker_0, # of connection points: 2
# Relax obj value: 0.255
# Max RMSD: 0.245
# Mean RMSD: 0.245
data_MOF--net-svh--node1-HICVOG_clean_sbu_0--edge1-UVAHIK_clean_linker_0
_symmetry_space_group_name_H-M    P1
_symmetry_Int_Tables_number       1
_symmetry_cell_setting            triclinic
loop_
_symmetry_equiv_pos_as_xyz
'x, y, z'
_cell_length_a     23.001381
_cell_length_b     22.960189
_cell_length_c     134.36865
_cell_angle_alpha  89.174219
_cell_angle_beta   90.743487
_cell_angle_gamma 89.985137
loop_
_atom_site_label
_atom_site_type_symbol
_atom_site_fract_x
_atom_site_fract_y
_atom_site_fract_z
_atom_type_partial_charge
Zn0 Zn 0.08513 0.85873 0.08295 0.0
C1 C 0.11384 0.72875 0.06353 0.0
N2 N 0.14899 0.76776 0.05913 0.0
C3 C 0.14144 0.81586 0.06458 0.0
N4 N 0.10367 0.80632 0.07206 0.0
N5 N 0.08569 0.75187 0.07125 0.0
C6 C 0.05278 0.59911 0.07749 0.0
O7 O 0.10207 0.62098 0.08077 0.0
O8 O 0.07366 0.94302 0.07829 0.0
Zn9 Zn 0.01778 0.72148 0.07763 0.0
N10 N 0.15255 0.8613 0.09164 0.0
C11 C 0.19303 0.88854 0.10726 0.0
C12 C 0.14583 0.88585 0.10069 0.0
C13 C 0.20471 0.83949 0.08886 0.0
N14 N 0.24536 0.8675 0.10444 0.0
C15 C 0.25299 0.84326 0.09535 0.0
O16 O 0.02073 0.73642 0.09232 0.0
C17 C 0.01552 0.78406 0.09696 0.0
O18 O 0.02042 0.83312 0.09245 0.0
H19 H 0.10403 0.90312 0.10276 0.0
H20 H 0.20814 0.81906 0.08172 0.0
C21 C 0.89592 0.74829 0.07454 0.0
C22 C 0.84872 0.77654 0.06977 0.0
C23 C 0.9146 0.82971 0.05968 0.0
C24 C 0.96106 0.80165 0.0644 0.0
N25 N 0.95106 0.76119 0.07168 0.0
N26 N 0.85972 0.81641 0.06244 0.0
H27 H 0.88914 0.71567 0.08031 0.0
C28 C 0.02608 0.97137 0.07821 0.0
O29 O 0.97797 0.94445 0.08074 0.0
O30 O 0.0104 0.63347 0.07561 0.0
H31 H 1.00465 0.81135 0.06207 0.0
H32 H 0.18832 0.90767 0.11452 0.0
H33 H 0.92201 0.86158 0.05383 0.0
Zn34 Zn 0.43472 0.81075 0.33301 0.0
C35 C 0.56877 0.84453 0.31446 0.0
N36 N 0.52958 0.88045 0.31012 0.0
C37 C 0.48122 0.86996 0.31534 0.0
N38 N 0.4906 0.82999 0.32264 0.0
N39 N 0.54558 0.81324 0.32202 0.0
C40 C 0.70122 0.77985 0.32842 0.0
O41 O 0.68087 0.83164 0.33052 0.0
O42 O 0.35792 0.77789 0.32774 0.0
Zn43 Zn 0.57702 0.74359 0.32842 0.0
N44 N 0.41148 0.88346 0.33877 0.0
C45 C 0.34575 0.93411 0.34907 0.0
C46 C 0.36354 0.88294 0.34457 0.0
C47 C 0.44278 0.93301 0.33735 0.0
N48 N 0.37632 0.98387 0.3475 0.0
C49 C 0.42438 0.98506 0.34169 0.0
O50 O 0.55902 0.73745 0.3431 0.0
C51 C 0.51484 0.74506 0.34856 0.0
O52 O 0.46801 0.76755 0.34508 0.0
H53 H 0.33968 0.84293 0.34576 0.0
H54 H 0.48193 0.93156 0.33301 0.0
C55 C 0.55506 0.62257 0.32462 0.0
C56 C 0.53261 0.57575 0.31915 0.0
C57 C 0.48492 0.64247 0.30816 0.0
C58 C 0.50719 0.68873 0.31358 0.0
N59 N 0.54237 0.67804 0.32163 0.0
N60 N 0.49831 0.58721 0.31103 0.0
H61 H 0.58335 0.61523 0.33101 0.0
C62 C 0.32609 0.74181 0.33246 0.0
O63 O 0.34666 0.71694 0.34064 0.0
O64 O 0.6658 0.73779 0.32721 0.0
H65 H 0.49749 0.73278 0.3112 0.0
H66 H 0.30778 0.9344 0.35374 0.0
H67 H 0.45748 0.65038 0.30168 0.0
Zn68 Zn 0.50208 0.27949 0.58447 0.0
C69 C 0.52586 0.15978 0.56285 0.0
N70 N 0.56018 0.20125 0.55894 0.0
C71 C 0.554 0.24588 0.56519 0.0
N72 N 0.51824 0.23196 0.57277 0.0
N73 N 0.50004 0.17804 0.57123 0.0
C74 C 0.47526 0.02444 0.57724 0.0
O75 O 0.52531 0.04925 0.57935 0.0
O76 O 0.49441 0.36598 0.58107 0.0
Zn77 Zn 0.43493 0.1444 0.57812 0.0
N78 N 0.56894 0.27462 0.59325 0.0
C79 C 0.61001 0.29399 0.60918 0.0
C80 C 0.56308 0.29619 0.60254 0.0
C81 C 0.62003 0.25128 0.59027 0.0
N82 N 0.66134 0.27152 0.60617 0.0
C83 C 0.66822 0.25035 0.59684 0.0
O84 O 0.44109 0.15706 0.59289 0.0
C85 C 0.4342 0.20373 0.59773 0.0
O86 O 0.43509 0.25312 0.59328 0.0
H87 H 0.52224 0.31505 0.60474 0.0
H88 H 0.6226 0.2336 0.58289 0.0
C89 C 0.31118 0.1665 0.57559 0.0
C90 C 0.26261 0.19384 0.57107 0.0
C91 C 0.32561 0.25302 0.56142 0.0
C92 C 0.37344 0.22583 0.56586 0.0
N93 N 0.36557 0.18282 0.5728 0.0
N94 N 0.27152 0.23631 0.56408 0.0
H95 H 0.30601 0.1319 0.58106 0.0
C96 C 0.44779 0.39585 0.58111 0.0
O97 O 0.39846 0.36985 0.58319 0.0
O98 O 0.43019 0.05631 0.57623 0.0
H99 H 0.41642 0.23841 0.56359 0.0
H100 H 0.60596 0.31066 0.61663 0.0
H101 H 0.33135 0.28691 0.55584 0.0
Zn102 Zn 0.90018 0.29369 0.82853 0.0
C103 C 1.00215 0.17708 0.81563 0.0
N104 N 0.95642 0.16849 0.80951 0.0
C105 C 0.91421 0.20077 0.81352 0.0
N106 N 0.93321 0.22786 0.82181 0.0
N107 N 0.98811 0.21205 0.82323 0.0
C108 C 0.15249 0.28585 0.83089 0.0
O109 O 0.12603 0.33516 0.83274 0.0
O110 O 0.8118 0.29847 0.82671 0.0
Zn111 Zn 0.03793 0.23031 0.83473 0.0
N112 N 0.93718 0.3629 0.82289 0.0
C113 C 1.00093 0.40175 0.81065 0.0
C114 C 0.97423 0.35443 0.81522 0.0
C115 C 0.92615 0.41753 0.82623 0.0
N116 N 0.98951 0.45604 0.81388 0.0
C117 C 0.95287 0.46572 0.82156 0.0
O118 O 0.01206 0.29866 0.84314 0.0
C119 C 0.96442 0.29755 0.84788 0.0
O120 O 0.91652 0.28875 0.8433 0.0
H121 H 0.98231 0.3114 0.81247 0.0
H122 H 0.8961 0.4232 0.83227 0.0
C123 C 0.01515 0.11165 0.84096 0.0
C124 C 0.01668 0.06426 0.84774 0.0
C125 C 0.05791 0.12625 0.85996 0.0
C126 C 0.05774 0.17238 0.85313 0.0
N127 N 0.03606 0.16432 0.8438 0.0
N128 N 0.03776 0.07345 0.85711 0.0
H129 H 0.99757 0.1072 0.83352 0.0
C130 C 0.77902 0.25418 0.82779 0.0
O131 O 0.80279 0.2035 0.83 0.0
O132 O 0.12349 0.23864 0.83113 0.0
H133 H 0.07498 0.21433 0.8552 0.0
H134 H 0.03018 0.39548 0.80451 0.0
H135 H 0.07464 0.13209 0.86744 0.0
Zn136 Zn 1.00691 0.32328 0.97497 0.0
C137 C 0.13188 0.22617 0.98753 0.0
N138 N 0.13838 0.27234 0.99349 0.0
C139 C 0.10318 0.31246 0.98925 0.0
N140 N 0.07569 0.29158 0.98115 0.0
N141 N 0.09408 0.23758 0.97996 0.0
C142 C 0.01926 0.07322 0.97378 0.0
O143 O 0.96923 0.09997 0.9724 0.0
O144 O 1.00182 0.41108 0.97714 0.0
Zn145 Zn 0.07507 0.18736 0.96873 0.0
N146 N 0.94106 0.28468 0.98104 0.0
C147 C 0.90605 0.21562 0.99291 0.0
C148 C 0.95197 0.24302 0.98812 0.0
C149 C 0.88557 0.29928 0.9784 0.0
N150 N 0.85081 0.2305 0.99036 0.0
C151 C 0.83892 0.27146 0.98319 0.0
O152 O 1.00864 0.21319 0.95935 0.0
C153 C 1.00045 0.26313 0.95526 0.0
O154 O 1.00556 0.30971 0.96022 0.0
H155 H 0.99592 0.23148 0.99019 0.0
H156 H 0.87815 0.33271 0.97276 0.0
C157 C 0.19348 0.20983 0.96311 0.0
C158 C 0.24114 0.20839 0.95666 0.0
C159 C 0.18061 0.16538 0.94432 0.0
C160 C 0.13404 0.16573 0.95085 0.0
N161 N 0.14137 0.18802 0.96009 0.0
N162 N 0.23292 0.18639 0.94738 0.0
H163 H 0.19731 0.22843 0.97041 0.0
C164 C 0.04342 0.44405 0.97444 0.0
O165 O 0.08938 0.42036 0.97043 0.0
O166 O 0.0662 0.1021 0.97291 0.0
H167 H 0.09228 0.14843 0.94858 0.0
H168 H 0.91418 0.18278 0.99861 0.0
H169 H 0.17543 0.14806 0.93692 0.0
Zn170 Zn 0.97171 0.76816 0.22448 0.0
C171 C 0.06862 0.88967 0.23812 0.0
N172 N 0.02046 0.89903 0.24339 0.0
C173 C 0.98077 0.86467 0.23898 0.0
N174 N 1.00352 0.83539 0.23128 0.0
N175 N 0.05862 0.85192 0.23069 0.0
C176 C 0.22375 0.76774 0.22061 0.0
O177 O 0.20435 0.74687 0.21214 0.0
O178 O 0.88288 0.76324 0.22551 0.0
Zn179 Zn 0.11462 0.83563 0.22033 0.0
N180 N 1.00509 0.69984 0.23101 0.0
C181 C 0.06206 0.65979 0.24436 0.0
C182 C 0.04103 0.70778 0.23901 0.0
C183 C 0.9904 0.64537 0.22801 0.0
N184 N 0.04661 0.60557 0.24149 0.0
C185 C 0.0115 0.59681 0.23342 0.0
O186 O 0.08186 0.79621 0.20809 0.0
C187 C 0.03501 0.7755 0.20443 0.0
O188 O 0.99032 0.76681 0.20976 0.0
H189 H 0.05216 0.75099 0.24142 0.0
H190 H 0.96149 0.64014 0.22166 0.0
C191 C 0.10539 0.95871 0.21623 0.0
C192 C 0.12344 0.0121 0.21207 0.0
C193 C 0.20469 0.96453 0.20509 0.0
C194 C 0.1871 0.91196 0.20939 0.0
N195 N 0.13801 0.91013 0.2149 0.0
N196 N 0.17268 0.01324 0.20655 0.0
H197 H 0.06544 0.95547 0.22034 0.0
C198 C 0.84853 0.80665 0.22473 0.0
O199 O 0.87017 0.85891 0.2232 0.0
O200 O 0.19096 0.80094 0.22556 0.0
H201 H 0.21202 0.87275 0.20826 0.0
H202 H 0.09005 0.66554 0.2508 0.0
H203 H 0.24356 0.96669 0.20066 0.0
Zn204 Zn 0.48831 0.78743 0.46887 0.0
C205 C 0.47051 0.66576 0.49093 0.0
N206 N 0.43774 0.70702 0.49509 0.0
C207 C 0.43959 0.75139 0.48846 0.0
N208 N 0.4723 0.73788 0.48054 0.0
N209 N 0.49171 0.68418 0.48212 0.0
C210 C 0.52021 0.53113 0.47491 0.0
O211 O 0.47367 0.55535 0.47086 0.0
O212 O 0.49471 0.87386 0.47217 0.0
Zn213 Zn 0.55728 0.65179 0.47536 0.0
N214 N 0.42239 0.78229 0.45992 0.0
C215 C 0.38188 0.80076 0.44382 0.0
C216 C 0.42857 0.80336 0.4505 0.0
C217 C 0.37119 0.75922 0.463 0.0
N218 N 0.33044 0.77852 0.44693 0.0
C219 C 0.32322 0.75795 0.45639 0.0
O220 O 0.55187 0.66689 0.46052 0.0
C221 C 0.55843 0.71504 0.45585 0.0
O222 O 0.55733 0.76302 0.4605 0.0
H223 H 0.46944 0.82221 0.44823 0.0
H224 H 0.36839 0.7421 0.4705 0.0
C225 C 0.68072 0.67237 0.47817 0.0
C226 C 0.72918 0.69911 0.48269 0.0
C227 C 0.66587 0.75774 0.49211 0.0
C228 C 0.61819 0.73135 0.48761 0.0
N229 N 0.62625 0.68883 0.48082 0.0
N230 N 0.72006 0.74097 0.48958 0.0
H231 H 0.686 0.6383 0.47278 0.0
C232 C 0.54183 0.90258 0.47302 0.0
O233 O 0.59166 0.8753 0.47212 0.0
O234 O 0.56206 0.56377 0.47764 0.0
H235 H 0.57514 0.74439 0.48968 0.0
H236 H 0.3862 0.817 0.43627 0.0
H237 H 0.65994 0.79124 0.49758 0.0
Zn238 Zn 0.38899 0.18588 0.72496 0.0
C239 C 0.49498 0.30026 0.73797 0.0
N240 N 0.45078 0.30841 0.74424 0.0
C241 C 0.40736 0.27685 0.74026 0.0
N242 N 0.4241 0.25067 0.73181 0.0
N243 N 0.47872 0.26638 0.73029 0.0
C244 C 0.64207 0.19681 0.72162 0.0
O245 O 0.61668 0.14739 0.71937 0.0
O246 O 0.3009 0.18289 0.72672 0.0
Zn247 Zn 0.52523 0.25016 0.71854 0.0
N248 N 0.42517 0.11543 0.73045 0.0
C249 C 0.4909 0.07424 0.74246 0.0
C250 C 0.46533 0.12256 0.73787 0.0
C251 C 0.40999 0.06119 0.72735 0.0
N252 N 0.47528 0.02035 0.73948 0.0
C253 C 0.43554 0.01206 0.73204 0.0
O254 O 0.49842 0.18271 0.7099 0.0
C255 C 0.4493 0.18284 0.7054 0.0
O256 O 0.40267 0.19101 0.71018 0.0
H257 H 0.4766 0.16534 0.74043 0.0
H258 H 0.37753 0.05656 0.72152 0.0
C259 C 0.49619 0.36827 0.71269 0.0
C260 C 0.49497 0.41649 0.70608 0.0
C261 C 0.53865 0.35812 0.69376 0.0
C262 C 0.54111 0.31122 0.70043 0.0
N263 N 0.51967 0.31711 0.70972 0.0
N264 N 0.51605 0.40948 0.69674 0.0
H265 H 0.47872 0.37082 0.72008 0.0
C266 C 0.26931 0.22828 0.72588 0.0
O267 O 0.29429 0.27866 0.72402 0.0
O268 O 0.61168 0.2431 0.72185 0.0
H269 H 0.56012 0.27036 0.69825 0.0
H270 H 0.52252 0.07944 0.74841 0.0
H271 H 0.55523 0.35403 0.6863 0.0
C272 C 0.97753 0.75476 0.18876 0.0
C273 C 0.03095 0.76763 0.19346 0.0
C274 C 0.97272 0.75406 0.17834 0.0
C275 C 0.04529 0.81286 0.15585 0.0
H276 H 0.94882 0.70173 0.14181 0.0
C277 C 1.00397 0.83379 0.11343 0.0
C278 C 1.00723 0.78219 0.10794 0.0
C279 C 1.00231 0.83179 0.12385 0.0
C280 C 0.97616 0.73297 0.14561 0.0
H281 H 0.12182 0.78729 0.1908 0.0
H282 H 0.11357 0.78509 0.17275 0.0
H283 H 0.95737 0.69572 0.15994 0.0
H284 H 0.00927 0.68783 0.1092 0.0
H285 H 1.00668 0.68447 0.12729 0.0
H286 H 0.06528 0.84929 0.14155 0.0
C287 C 0.07502 0.77684 0.17709 0.0
C288 C 0.98062 0.72986 0.15602 0.0
C289 C 0.07983 0.7776 0.18747 0.0
C290 C 1.00669 0.72854 0.11314 0.0
C291 C 1.00496 0.72655 0.12355 0.0
C292 C 0.04079 0.81602 0.14546 0.0
C293 C 0.02119 0.76619 0.17237 0.0
C294 C 0.01559 0.76954 0.16128 0.0
C295 C 1.00372 0.77815 0.12906 0.0
C296 C 1.00639 0.77598 0.14018 0.0
H297 H 0.9389 0.74702 0.1931 0.0
H298 H 0.9305 0.746 0.17498 0.0
H299 H 0.07191 0.84477 0.15963 0.0
H300 H 1.0039 0.8759 0.10969 0.0
H301 H 1.00034 0.87241 0.12782 0.0
C302 C 0.57239 0.71405 0.36384 0.0
C303 C 0.5197 0.73327 0.35947 0.0
C304 C 0.57853 0.70892 0.37421 0.0
C305 C 0.51558 0.76548 0.39739 0.0
H306 H 0.60258 0.64006 0.41021 0.0
C307 C 0.57067 0.76793 0.43946 0.0
C308 C 0.56275 0.71546 0.44481 0.0
C309 C 0.56883 0.76901 0.42904 0.0
C310 C 0.57793 0.67527 0.40675 0.0
H311 H 0.43141 0.75997 0.36268 0.0
H312 H 0.44197 0.75034 0.38067 0.0
H313 H 0.59006 0.64158 0.39212 0.0
H314 H 0.54873 0.62252 0.44328 0.0
H315 H 0.5456 0.62446 0.42515 0.0
H316 H 0.50249 0.79867 0.41199 0.0
C317 C 0.47895 0.74026 0.37609 0.0
C318 C 0.5712 0.67642 0.39637 0.0
C319 C 0.47277 0.74532 0.36574 0.0
C320 C 0.5551 0.66377 0.43944 0.0
C321 C 0.55347 0.66482 0.42901 0.0
C322 C 0.52245 0.76443 0.40775 0.0
C323 C 0.53219 0.72296 0.38048 0.0
C324 C 0.53968 0.72142 0.39155 0.0
C325 C 0.55936 0.71759 0.42367 0.0
C326 C 0.5536 0.71927 0.41259 0.0
H327 H 0.60953 0.70446 0.35927 0.0
H328 H 0.62027 0.69581 0.37732 0.0
H329 H 0.49172 0.80126 0.39394 0.0
H330 H 0.57713 0.80853 0.44333 0.0
H331 H 0.57456 0.81029 0.42518 0.0
C332 C 0.43328 0.14638 0.61379 0.0
C333 C 0.42915 0.20043 0.60876 0.0
C334 C 0.43362 0.14321 0.6242 0.0
C335 C 0.39763 0.22648 0.64681 0.0
H336 H 0.50309 0.11668 0.65979 0.0
C337 C 0.39283 0.18385 0.68927 0.0
C338 C 0.44641 0.17817 0.69436 0.0
C339 C 0.39022 0.18475 0.67886 0.0
C340 C 0.47367 0.14788 0.65631 0.0
H341 H 0.42037 0.29352 0.61082 0.0
H342 H 0.42172 0.28808 0.62897 0.0
H343 H 0.49926 0.12349 0.64168 0.0
H344 H 0.53921 0.16721 0.69241 0.0
H345 H 0.53476 0.16952 0.67426 0.0
H346 H 0.37308 0.25189 0.66143 0.0
C347 C 0.42424 0.24798 0.62486 0.0
C348 C 0.47092 0.1513 0.64589 0.0
C349 C 0.42376 0.25114 0.61443 0.0
C350 C 0.49718 0.17177 0.68875 0.0
C351 C 0.49458 0.17282 0.67832 0.0
C352 C 0.40038 0.22306 0.65722 0.0
C353 C 0.42989 0.194 0.62989 0.0
C354 C 0.43278 0.19056 0.641 0.0
C355 C 0.44111 0.18006 0.67323 0.0
C356 C 0.43835 0.18363 0.66212 0.0
H357 H 0.43727 0.1063 0.6097 0.0
H358 H 0.43687 0.10079 0.62779 0.0
H359 H 0.36741 0.25689 0.64332 0.0
H360 H 0.35272 0.18865 0.69331 0.0
H361 H 0.34815 0.18923 0.67521 0.0
C362 C 0.98259 0.32242 0.93965 0.0
C363 C 0.98833 0.26753 0.94436 0.0
C364 C 0.97692 0.32724 0.92929 0.0
C365 C 0.94059 0.24387 0.90656 0.0
H366 H 0.02726 0.36654 0.89327 0.0
C367 C 0.91423 0.29022 0.86434 0.0
C368 C 0.96509 0.30136 0.85893 0.0
C369 C 0.9156 0.28833 0.87476 0.0
C370 C 1.00303 0.33183 0.89685 0.0
H371 H 0.99074 0.1745 0.94179 0.0
H372 H 0.9813 0.18297 0.92373 0.0
H373 H 0.03181 0.3573 0.91136 0.0
H374 H 0.057 0.32118 0.86031 0.0
H375 H 0.05949 0.31743 0.87847 0.0
H376 H 0.91287 0.21759 0.89203 0.0
C377 C 0.98079 0.22234 0.92806 0.0
C378 C 1.00507 0.32693 0.90725 0.0
C379 C 0.98646 0.21749 0.93844 0.0
C380 C 0.01701 0.31236 0.86422 0.0
C381 C 0.01838 0.31045 0.87465 0.0
C382 C 0.93845 0.24885 0.89616 0.0
C383 C 0.9768 0.27735 0.92334 0.0
C384 C 0.97391 0.28286 0.91225 0.0
C385 C 0.96782 0.29764 0.88006 0.0
C386 C 0.96968 0.29286 0.89116 0.0
H387 H 0.9836 0.36199 0.94394 0.0
H388 H 0.97285 0.37025 0.92593 0.0
H389 H 0.91567 0.2097 0.91014 0.0
H390 H 0.87337 0.28169 0.86054 0.0
H391 H 0.87561 0.2794 0.87866 0.0
C392 C 0.11387 0.41367 0.99533 0.0
C393 C 0.08233 0.36151 0.99507 0.0
C394 C 0.10258 0.45472 1.00265 0.0
C395 C 0.06615 0.45549 0.02838 0.0
H396 H 0.04578 0.62241 1.02524 0.0
C397 C 0.13725 0.63317 0.05623 0.0
C398 C 0.09588 0.67596 0.05831 0.0
C399 C 0.12439 0.58967 0.04938 0.0
C400 C 0.0508 0.57574 1.0262 0.0
H401 H 0.01488 0.31069 1.00215 0.0
H402 H 0.99571 0.38188 1.01504 0.0
H403 H 0.04263 0.56031 1.01052 0.0
H404 H 1.00875 0.70691 0.05506 0.0
H405 H 0.98669 0.63175 0.04286 0.0
H406 H 0.07766 0.47131 0.04399 0.0
C407 C 0.02785 0.39184 1.00944 0.0
C408 C 0.04929 0.54048 1.01781 0.0
C409 C 0.03834 0.35151 1.00202 0.0
C410 C 0.04079 0.67361 0.05373 0.0
C411 C 0.02837 0.63099 0.04671 0.0
C412 C 0.06894 0.4909 0.03674 0.0
C413 C 0.06101 0.44297 1.00999 0.0
C414 C 0.0574 0.48014 1.01884 0.0
C415 C 0.07065 0.5897 0.04429 0.0
C416 C 0.06174 0.55131 0.0357 0.0
H417 H 0.149 0.42137 0.99018 0.0
H418 H 0.12904 0.49369 1.00299 0.0
H419 H 0.07313 0.40906 0.02933 0.0
H420 H 0.18032 0.63493 0.05957 0.0
H421 H 0.15777 0.55842 0.04756 0.0
C422 C 0.65797 0.8804 0.30648 0.0
C423 C 0.62417 0.83285 0.30954 0.0
C424 C 0.7019 0.87325 0.29956 0.0
C425 C 0.73548 0.78064 0.27842 0.0
H426 H 0.87203 0.8793 0.2773 0.0
C427 C 0.91289 0.79374 0.24709 0.0
C428 C 0.92634 0.85113 0.24418 0.0
C429 C 0.87313 0.78318 0.25473 0.0
C430 C 0.83398 0.85151 0.27753 0.0
H431 H 0.61089 0.74012 0.30806 0.0
H432 H 0.68858 0.72702 0.29604 0.0
H433 H 0.81702 0.87254 0.29266 0.0
H434 H 0.90617 0.94204 0.24638 0.0
H435 H 0.83692 0.92374 0.25967 0.0
H436 H 0.75314 0.75991 0.2632 0.0
C437 C 0.68099 0.76999 0.29898 0.0
C438 C 0.80252 0.84759 0.28631 0.0
C439 C 0.63699 0.77727 0.30596 0.0
C440 C 0.89617 0.89738 0.24845 0.0
C441 C 0.85702 0.88697 0.25609 0.0
C442 C 0.76758 0.78404 0.26964 0.0
C443 C 0.71255 0.81834 0.29544 0.0
C444 C 0.75178 0.81367 0.28677 0.0
C445 C 0.84727 0.83003 0.25961 0.0
C446 C 0.81595 0.82102 0.26905 0.0
H447 H 0.64811 0.92386 0.30902 0.0
H448 H 0.72467 0.91166 0.29694 0.0
H449 H 0.69631 0.7545 0.27849 0.0
H450 H 0.93617 0.7574 0.24407 0.0
H451 H 0.86613 0.73888 0.25732 0.0
C452 C 0.61615 0.31728 0.55635 0.0
C453 C 0.56447 0.30542 0.56145 0.0
C454 C 0.61862 0.36325 0.54942 0.0
C455 C 0.54742 0.49571 0.53974 0.0
H456 H 0.57705 0.43385 0.51352 0.0
C457 C 0.53887 0.6403 0.50458 0.0
C458 C 0.49889 0.62152 0.49733 0.0
C459 C 0.55724 0.60276 0.51224 0.0
C460 C 0.5691 0.4517 0.5208 0.0
H461 H 0.47517 0.33244 0.56328 0.0
H462 H 0.48092 0.41557 0.5519 0.0
H463 H 0.5929 0.37222 0.52837 0.0
H464 H 0.44659 0.54914 0.49232 0.0
H465 H 0.48064 0.48197 0.50559 0.0
H466 H 0.52291 0.57491 0.53217 0.0
C467 C 0.51964 0.38968 0.5533 0.0
C468 C 0.57864 0.41678 0.52928 0.0
C469 C 0.51674 0.34285 0.56002 0.0
C470 C 0.47896 0.56384 0.49764 0.0
C471 C 0.49811 0.52575 0.50526 0.0
C472 C 0.53902 0.53098 0.53127 0.0
C473 C 0.56959 0.39845 0.54758 0.0
C474 C 0.56704 0.43821 0.53881 0.0
C475 C 0.53596 0.5456 0.51279 0.0
C476 C 0.54891 0.509 0.52172 0.0
H477 H 0.65291 0.28792 0.55709 0.0
H478 H 0.6576 0.36919 0.54508 0.0
H479 H 0.53774 0.51299 0.54699 0.0
H480 H 0.5534 0.68515 0.50466 0.0
H481 H 0.58646 0.61906 0.51794 0.0
C482 C 0.8348 0.17193 0.80203 0.0
C483 C 0.86176 0.21578 0.80759 0.0
C484 C 0.79464 0.186 0.7945 0.0
C485 C 0.75605 0.30767 0.77731 0.0
H486 H 0.629 0.20482 0.77023 0.0
C487 C 0.57229 0.35122 0.74755 0.0
C488 C 0.55477 0.30276 0.74199 0.0
C489 C 0.61659 0.3458 0.75476 0.0
C490 C 0.66477 0.23362 0.77206 0.0
H491 H 0.86698 0.30884 0.80971 0.0
H492 H 0.79488 0.33367 0.79688 0.0
H493 H 0.68447 0.18626 0.78547 0.0
H494 H 0.57151 0.2115 0.73935 0.0
H495 H 0.64987 0.20265 0.75157 0.0
H496 H 0.73471 0.35576 0.7639 0.0
C497 C 0.80534 0.28824 0.79825 0.0
C498 C 0.69653 0.22306 0.78081 0.0
C499 C 0.84591 0.274 0.80575 0.0
C500 C 0.58549 0.25025 0.7432 0.0
C501 C 0.62956 0.2448 0.75037 0.0
C502 C 0.72361 0.31869 0.76858 0.0
C503 C 0.7805 0.24448 0.79232 0.0
C504 C 0.74322 0.25932 0.78349 0.0
C505 C 0.64327 0.29157 0.7566 0.0
C506 C 0.67833 0.2811 0.76579 0.0
H507 H 0.84712 0.12673 0.80317 0.0
H508 H 0.77723 0.15104 0.79004 0.0
H509 H 0.79217 0.33614 0.77905 0.0
H510 H 0.5482 0.3917 0.74695 0.0
H511 H 0.62621 0.38251 0.75948 0.0
C512 C 0.09279 0.22407 0.81012 0.0
C513 C 0.06113 0.17258 0.81161 0.0
C514 C 0.13802 0.22626 0.80332 0.0
C515 C 0.17535 0.15828 0.77977 0.0
H516 H 0.30653 0.26389 0.78122 0.0
C517 C 0.34087 0.20233 0.74786 0.0
C518 C 0.35694 0.2608 0.74641 0.0
C519 C 0.3044 0.18619 0.7557 0.0
C520 C 0.26983 0.23447 0.7807 0.0
H521 H 0.05271 0.08246 0.80738 0.0
H522 H 0.13284 0.08564 0.79554 0.0
H523 H 0.25255 0.24049 0.79626 0.0
H524 H 0.34559 0.34854 0.75175 0.0
H525 H 0.28183 0.32061 0.76538 0.0
H526 H 0.19287 0.15267 0.76416 0.0
C527 C 0.12281 0.12442 0.79968 0.0
C528 C 0.23905 0.22089 0.78932 0.0
C529 C 0.07759 0.12226 0.80656 0.0
C530 C 0.33346 0.30317 0.75263 0.0
C531 C 0.29755 0.28712 0.7605 0.0
C532 C 0.20658 0.17149 0.77116 0.0
C533 C 0.15186 0.17718 0.79767 0.0
C534 C 0.1905 0.18379 0.78892 0.0
C535 C 0.28433 0.22825 0.76232 0.0
C536 C 0.25317 0.2109 0.7715 0.0
H537 H 0.07909 0.26429 0.81348 0.0
H538 H 0.15855 0.26793 0.80188 0.0
H539 H 0.13769 0.13023 0.77915 0.0
H540 H 0.35935 0.16853 0.74341 0.0
H541 H 0.29498 0.14046 0.75694 0.0
C542 C 0.4125 0.93874 0.30694 0.0
C543 C 0.42403 0.88277 0.3108 0.0
C544 C 0.36948 0.94724 0.2996 0.0
C545 C 0.2524 0.86998 0.28513 0.0
H546 H 0.30071 0.97432 0.26381 0.0
C547 C 0.15777 0.84969 0.24598 0.0
C548 C 0.12578 0.89889 0.24287 0.0
C549 C 0.19817 0.85348 0.25379 0.0
C550 C 0.28676 0.94521 0.26973 0.0
H551 H 0.39946 0.79203 0.31011 0.0
H552 H 0.32477 0.80621 0.29747 0.0
H553 H 0.35565 0.97149 0.2795 0.0
H554 H 0.11331 0.99121 0.24502 0.0
H555 H 0.18602 0.99841 0.25849 0.0
H556 H 0.18523 0.84189 0.27511 0.0
C557 C 0.34703 0.84431 0.30024 0.0
C558 C 0.31769 0.94395 0.27878 0.0
C559 C 0.38951 0.83607 0.30765 0.0
C560 C 0.13856 0.95302 0.24712 0.0
C561 C 0.17967 0.957 0.25487 0.0
C562 C 0.22233 0.87047 0.27603 0.0
C563 C 0.33812 0.89959 0.29579 0.0
C564 C 0.30136 0.90576 0.28658 0.0
C565 C 0.20748 0.90661 0.25859 0.0
C566 C 0.23965 0.90752 0.26821 0.0
H567 H 0.43948 0.97522 0.30911 0.0
H568 H 0.36302 0.99068 0.29654 0.0
H569 H 0.23751 0.84099 0.29099 0.0
H570 H 0.14706 0.80703 0.24316 0.0
H571 H 0.21926 0.81407 0.25652 0.0
C572 C 0.55008 0.08369 0.55076 0.0
C573 C 0.50813 0.10972 0.55675 0.0
C574 C 0.5334 0.04812 0.5429 0.0
C575 C 0.41874 0.95945 0.532 0.0
H576 H 0.48806 0.0071 0.50699 0.0
C577 C 0.37945 0.8252 0.49689 0.0
C578 C 0.43106 0.81092 0.49204 0.0
C579 C 0.37834 0.87144 0.50358 0.0
C580 C 0.46834 0.99311 0.5139 0.0
H581 H 0.41583 0.11715 0.55938 0.0
H582 H 0.38656 0.05277 0.54587 0.0
H583 H 0.50924 0.06166 0.52204 0.0
H584 H 0.52157 0.83369 0.49032 0.0
H585 H 0.51967 0.91474 0.50158 0.0
H586 H 0.38021 0.88907 0.52401 0.0
C587 C 0.43241 0.06017 0.54729 0.0
C588 C 0.48057 0.02431 0.52251 0.0
C589 C 0.44919 0.09651 0.5551 0.0
C590 C 0.48038 0.84569 0.49351 0.0
C591 C 0.47936 0.89187 0.50012 0.0
C592 C 0.40706 0.92765 0.52339 0.0
C593 C 0.47433 0.03766 0.54088 0.0
C594 C 0.45705 0.00694 0.53169 0.0
C595 C 0.42913 0.90362 0.50561 0.0
C596 C 0.43292 0.94325 0.51427 0.0
H597 H 0.5958 0.09364 0.5518 0.0
H598 H 0.56664 0.03053 0.53816 0.0
H599 H 0.39998 0.94533 0.53898 0.0
H600 H 0.34132 0.79787 0.4961 0.0
H601 H 0.33871 0.87975 0.50759 0.0
C602 C 0.10544 0.90787 0.05704 0.0
C603 C 0.15308 0.87322 0.06 0.0
C604 C 0.11053 0.9479 0.04917 0.0
C605 C 0.2032 0.03256 0.03293 0.0
H606 H 0.10104 0.9812 1.01159 0.0
C607 C 0.20047 0.15629 0.99557 0.0
C608 C 0.14497 0.16768 0.99156 0.0
C609 C 0.20838 0.11304 1.00291 0.0
C610 C 0.12945 0.99673 1.01746 0.0
H611 H 0.24432 0.85624 0.05761 0.0
H612 H 0.25396 0.9285 0.0441 0.0
H613 H 0.10004 0.9308 0.02767 0.0
H614 H 0.05472 0.14149 0.99176 0.0
H615 H 0.06775 0.06678 1.00446 0.0
H616 H 0.23068 0.10035 1.02301 0.0
C617 C 0.2127 0.92427 0.04784 0.0
C618 C 0.12886 0.9677 0.02667 0.0
C619 C 0.20734 0.88345 0.05562 0.0
C620 C 0.0984 0.13215 0.99443 0.0
C621 C 0.10598 0.08951 1.00185 0.0
C622 C 0.20295 0.06252 1.02378 0.0
C623 C 0.16352 0.9544 0.04421 0.0
C624 C 0.16521 0.98574 0.03452 0.0
C625 C 0.16054 0.08134 1.00657 0.0
C626 C 0.16557 0.04543 1.01592 0.0
H627 H 0.0627 0.89958 0.06003 0.0
H628 H 0.07208 0.97087 0.04651 0.0
H629 H 0.23181 0.04699 0.03887 0.0
H630 H 0.23685 0.18394 0.9936 0.0
H631 H 0.25138 0.10699 1.00613 0.0
C632 C 0.35308 0.80812 0.09994 0.0
C633 C 0.31183 0.82314 0.09251 0.0
C634 C 0.40993 0.79335 0.09742 0.0
C635 C 0.51454 0.81847 0.07741 0.0
H636 H 0.60555 0.69865 0.09103 0.0
C637 C 0.74451 0.76834 0.06491 0.0
C638 C 0.78753 0.76502 0.0724 0.0
C639 C 0.68582 0.76603 0.06731 0.0
C640 C 0.58068 0.73242 0.08721 0.0
H641 H 0.29894 0.83424 0.07651 0.0
H642 H 0.39686 0.8067 0.07219 0.0
H643 H 0.50324 0.71223 0.09528 0.0
H644 H 0.80286 0.75439 0.08829 0.0
H645 H 0.69978 0.75096 0.09251 0.0
H646 H 0.59155 0.83944 0.06945 0.0
C647 C 0.38533 0.80683 0.07998 0.0
C648 C 0.52219 0.74023 0.08964 0.0
C649 C 0.32863 0.8218 0.08248 0.0
C650 C 0.7707 0.75642 0.08234 0.0
C651 C 0.71167 0.75451 0.08476 0.0
C652 C 0.57268 0.81066 0.07499 0.0
C653 C 0.42692 0.79346 0.08742 0.0
C654 C 0.48851 0.78337 0.08475 0.0
C655 C 0.66867 0.76104 0.07728 0.0
C656 C 0.60645 0.76754 0.07983 0.0
H657 H 0.34171 0.80862 0.10773 0.0
H658 H 0.44107 0.78383 0.10334 0.0
H659 H 0.49034 0.85305 0.07368 0.0
H660 H 0.75622 0.77421 0.05718 0.0
H661 H 0.65376 0.76979 0.06136 0.0
C662 C 0.45309 0.08485 0.34709 0.0
C663 C 0.45467 0.04112 0.33988 0.0
C664 C 0.47654 0.13986 0.34511 0.0
C665 C 0.50066 0.23754 0.3241 0.0
H666 H 0.58544 0.33144 0.34317 0.0
C667 C 0.55455 0.47386 0.3145 0.0
C668 C 0.54437 0.51453 0.32197 0.0
C669 C 0.55749 0.41454 0.31682 0.0
C670 C 0.56153 0.30587 0.33778 0.0
H671 H 0.48305 0.02095 0.32495 0.0
H672 H 0.52415 0.11666 0.32157 0.0
H673 H 0.56472 0.2292 0.3471 0.0
H674 H 0.53125 0.52566 0.33776 0.0
H675 H 0.53426 0.42171 0.3418 0.0
H676 H 0.49465 0.31395 0.31498 0.0
C677 C 0.50488 0.1082 0.32876 0.0
C678 C 0.54988 0.24735 0.34003 0.0
C679 C 0.48177 0.05311 0.33075 0.0
C680 C 0.53975 0.49514 0.33188 0.0
C681 C 0.54164 0.43555 0.33419 0.0
C682 C 0.51178 0.29592 0.3219 0.0
C683 C 0.50149 0.15244 0.33585 0.0
C684 C 0.5188 0.21284 0.33324 0.0
C685 C 0.54886 0.39443 0.32662 0.0
C686 C 0.54185 0.33107 0.32874 0.0
H687 H 0.43265 0.07693 0.3542 0.0
H688 H 0.47277 0.1733 0.35067 0.0
H689 H 0.47564 0.21236 0.31881 0.0
H690 H 0.5589 0.48788 0.30681 0.0
H691 H 0.56472 0.3843 0.31085 0.0
C692 C 0.7432 0.22948 0.58379 0.0
C693 C 0.72644 0.22914 0.59383 0.0
C694 C 0.79971 0.21433 0.5812 0.0
C695 C 0.93685 0.14622 0.59056 0.0
H696 H 1.00574 0.24912 0.57086 0.0
C697 C 0.18541 0.16836 0.5835 0.0
C698 C 0.20209 0.17877 0.57361 0.0
C699 C 0.1264 0.16433 0.58588 0.0
C700 C 0.987 0.21933 0.57626 0.0
H701 H 0.75621 0.21097 0.60896 0.0
H702 H 0.8552 0.18615 0.60442 0.0
H703 H 0.90441 0.26125 0.5751 0.0
H704 H 0.17084 0.18853 0.55839 0.0
H705 H 0.06848 0.18038 0.56249 0.0
H706 H 0.02064 0.10534 0.59183 0.0
C707 C 0.82418 0.19708 0.59856 0.0
C708 C 0.92877 0.22625 0.57869 0.0
C709 C 0.76749 0.2119 0.60116 0.0
C710 C 0.15916 0.18129 0.56609 0.0
C711 C 0.10055 0.17685 0.56845 0.0
C712 C 0.99548 0.13937 0.58814 0.0
C713 C 0.84122 0.1992 0.58856 0.0
C714 C 0.90288 0.1898 0.58585 0.0
C715 C 0.08339 0.1705 0.5784 0.0
C716 C 0.02106 0.17583 0.58093 0.0
H717 H 0.71378 0.24355 0.57789 0.0
H718 H 0.81123 0.21569 0.57341 0.0
H719 H 0.91806 0.11721 0.59607 0.0
H720 H 0.21756 0.16683 0.58946 0.0
H721 H 0.11445 0.15968 0.59362 0.0
C722 C 0.98282 0.96385 0.85239 0.0
C723 C 0.99806 1.00455 0.84494 0.0
C724 C 0.96997 0.90616 0.85001 0.0
C725 C 0.99929 0.79916 0.83055 0.0
H726 H 0.87996 0.70747 0.84359 0.0
C727 C 0.94528 0.57103 0.81727 0.0
C728 C 0.94289 0.52666 0.82456 0.0
C729 C 0.9445 0.62937 0.81994 0.0
C730 C 0.91365 0.73254 0.83994 0.0
H731 H 0.0114 0.01536 0.829 0.0
H732 H 0.98695 0.91608 0.82488 0.0
H733 H 0.89233 0.8103 0.84776 0.0
H734 H 0.9354 0.50883 0.84039 0.0
H735 H 0.9341 0.61155 0.84509 0.0
H736 H 0.02084 0.72189 0.82276 0.0
C737 C 0.98563 0.92867 0.83261 0.0
C738 C 0.92079 0.79133 0.84233 0.0
C739 C 0.99877 0.98622 0.83499 0.0
C740 C 0.93669 0.542 0.83459 0.0
C741 C 0.93608 0.60078 0.83728 0.0
C742 C 0.99202 0.74077 0.82815 0.0
C743 C 0.97214 0.88768 0.8401 0.0
C744 C 0.96355 0.82536 0.83761 0.0
C745 C 0.94171 0.64495 0.82999 0.0
C746 C 0.94892 0.70686 0.83276 0.0
H747 H 0.98173 0.97628 0.86013 0.0
H748 H 0.96029 0.87563 0.85598 0.0
H749 H 0.03369 0.82353 0.82697 0.0
H750 H 0.94925 0.56064 0.80947 0.0
H751 H 0.94756 0.66242 0.81413 0.0
C752 C 0.31763 0.22798 0.96981 0.0
C753 C 0.29998 0.22856 0.95974 0.0
C754 C 0.37433 0.24309 0.97252 0.0
C755 C 0.50976 0.31277 0.9635 0.0
H756 H 0.58181 0.21024 0.98324 0.0
C757 C 0.75901 0.29457 0.97077 0.0
C758 C 0.77741 0.28414 0.98066 0.0
C759 C 0.69963 0.29737 0.96838 0.0
C760 C 0.56217 0.23995 0.97783 0.0
H761 H 0.32838 0.24664 0.94467 0.0
H762 H 0.42781 0.27154 0.94941 0.0
H763 H 0.48022 0.19693 0.9788 0.0
H764 H 0.7485 0.27262 0.99585 0.0
H765 H 0.64537 0.2785 0.99172 0.0
H766 H 0.59279 0.35486 0.96242 0.0
C767 C 0.39729 0.26048 0.95521 0.0
C768 C 0.50382 0.23232 0.97529 0.0
C769 C 0.3404 0.24562 0.95249 0.0
C770 C 0.73558 0.27993 0.98815 0.0
C771 C 0.67652 0.2831 0.98578 0.0
C772 C 0.56847 0.32036 0.96604 0.0
C773 C 0.41513 0.25847 0.96525 0.0
C774 C 0.47685 0.26856 0.9681 0.0
C775 C 0.65782 0.28989 0.97584 0.0
C776 C 0.59522 0.28399 0.97325 0.0
H777 H 0.28864 0.21393 0.97565 0.0
H778 H 0.38651 0.24173 0.98034 0.0
H779 H 0.49008 0.34168 0.95797 0.0
H780 H 0.79018 0.29727 0.96481 0.0
H781 H 0.68653 0.30227 0.96064 0.0
C782 C 0.09292 0.11193 0.2065 0.0
C783 C 0.09134 0.06703 0.21371 0.0
C784 C 0.06774 0.166 0.20833 0.0
C785 C 0.03802 0.25969 0.22919 0.0
H786 H 0.95693 0.35596 0.20953 0.0
C787 C 0.98497 0.49534 0.23809 0.0
C788 C 0.99752 0.53652 0.23062 0.0
C789 C 0.9809 0.43637 0.23586 0.0
C790 C 0.97972 0.3297 0.21509 0.0
H791 H 0.06112 0.0437 0.2285 0.0
H792 H 0.01689 0.13786 0.23164 0.0
H793 H 0.97877 0.25429 0.20584 0.0
H794 H 0.01329 0.54911 0.21488 0.0
H795 H 1.00841 0.44567 0.21099 0.0
H796 H 0.04198 0.33491 0.23825 0.0
C797 C 0.03752 0.13103 0.22455 0.0
C798 C 0.99203 0.2715 0.21298 0.0
C799 C 0.06242 0.07684 0.2227 0.0
C800 C 1.00302 0.51815 0.22076 0.0
C801 C 1.00005 0.45885 0.21855 0.0
C802 C 0.02623 0.31776 0.23126 0.0
C803 C 0.04094 0.17651 0.21747 0.0
C804 C 0.02201 0.23619 0.21997 0.0
C805 C 0.99081 0.41708 0.22614 0.0
C806 C 0.99762 0.35382 0.22419 0.0
H807 H 0.11473 0.10567 0.1995 0.0
H808 H 0.07163 0.2004 0.20278 0.0
H809 H 0.06215 0.23393 0.23465 0.0
H810 H 0.97993 0.50864 0.24574 0.0
H811 H 0.97207 0.40567 0.24185 0.0
C812 C 0.22395 0.71951 0.45226 0.0
C813 C 0.2649 0.73703 0.4595 0.0
C814 C 0.16726 0.70472 0.45494 0.0
C815 C 0.06247 0.73391 0.47466 0.0
H816 H 0.97138 0.61205 0.46224 0.0
C817 C 0.83284 0.68709 0.48767 0.0
C818 C 0.78977 0.68441 0.4802 0.0
C819 C 0.89143 0.68308 0.4853 0.0
C820 C 0.99633 0.64633 0.46573 0.0
H821 H 0.2773 0.75212 0.47535 0.0
H822 H 0.17995 0.72422 0.47998 0.0
H823 H 0.07378 0.62459 0.45788 0.0
H824 H 0.77411 0.67266 0.4644 0.0
H825 H 0.87712 0.66612 0.46021 0.0
H826 H 0.98548 0.75631 0.48241 0.0
C827 C 0.19152 0.72263 0.4722 0.0
C828 C 0.05484 0.65358 0.46324 0.0
C829 C 0.248 0.73779 0.46953 0.0
C830 C 0.80634 0.67426 0.47034 0.0
C831 C 0.8653 0.67059 0.46794 0.0
C832 C 1.00437 0.72657 0.47717 0.0
C833 C 0.15013 0.70713 0.46492 0.0
C834 C 0.08854 0.6975 0.46769 0.0
C835 C 0.90841 0.67694 0.47537 0.0
C836 C 0.97062 0.68271 0.47276 0.0
H837 H 0.23531 0.7183 0.44447 0.0
H838 H 0.13631 0.6935 0.44913 0.0
H839 H 0.0866 0.76916 0.47804 0.0
H840 H 0.82128 0.69416 0.49535 0.0
H841 H 0.92362 0.68678 0.49121 0.0
C842 C 0.45758 0.51624 0.70165 0.0
C843 C 0.47359 0.47492 0.70903 0.0
C844 C 0.44276 0.57311 0.70419 0.0
C845 C 0.46898 0.67761 0.72424 0.0
H846 H 0.35187 0.77078 0.71038 0.0
C847 C 0.42151 0.90812 0.73674 0.0
C848 C 0.42122 0.95158 0.72928 0.0
C849 C 0.41769 0.84955 0.73427 0.0
C850 C 0.38484 0.74526 0.71428 0.0
H851 H 0.48555 0.4621 0.72502 0.0
H852 H 0.45759 0.55981 0.72939 0.0
H853 H 0.36388 0.66798 0.70621 0.0
H854 H 0.41385 0.96793 0.71338 0.0
H855 H 0.4076 0.86482 0.70903 0.0
H856 H 0.4905 0.75444 0.73223 0.0
C857 C 0.45735 0.54837 0.7216 0.0
C858 C 0.39179 0.68649 0.71189 0.0
C859 C 0.47256 0.49167 0.71907 0.0
C860 C 0.41364 0.9354 0.71929 0.0
C861 C 0.41014 0.8764 0.71681 0.0
C862 C 0.4619 0.73597 0.72664 0.0
C863 C 0.44354 0.59014 0.71419 0.0
C864 C 0.43401 0.65201 0.71686 0.0
C865 C 0.41409 0.83289 0.72427 0.0
C866 C 0.41977 0.7705 0.72171 0.0
H867 H 0.45766 0.50506 0.69385 0.0
H868 H 0.43289 0.60427 0.69828 0.0
H869 H 0.50296 0.65293 0.72804 0.0
H870 H 0.42651 0.91935 0.74451 0.0
H871 H 0.41947 0.8171 0.7402 0.0
C872 C 0.09709 0.49976 0.07601 0.0
C873 C 0.04727 0.53531 0.07595 0.0
C874 C 0.09232 0.43934 0.07498 0.0
C875 C 0.99074 0.31799 0.07912 0.0
H876 H 0.09862 0.23082 0.06315 0.0
C877 C 0.97372 0.06719 0.07613 0.0
C878 C 0.02597 0.03535 0.07621 0.0
C879 C 0.97405 0.12801 0.07503 0.0
C880 C 0.06848 0.25429 0.06774 0.0
H881 H 0.95331 0.53511 0.07451 0.0
H882 H 0.9449 0.42937 0.07283 0.0
H883 H 0.10342 0.33698 0.06321 0.0
H884 H 0.11958 0.04279 0.07491 0.0
H885 H 0.12035 0.14847 0.07324 0.0
H886 H 0.95681 0.23566 0.08391 0.0
C887 C 0.98771 0.44838 0.07372 0.0
C888 C 0.07115 0.31529 0.06774 0.0
C889 C 0.99255 0.509 0.07463 0.0
C890 C 0.07845 0.06579 0.07489 0.0
C891 C 0.07883 0.12662 0.07386 0.0
C892 C 0.98835 0.25699 0.07919 0.0
C893 C 0.03755 0.41273 0.07395 0.0
C894 C 0.03261 0.34793 0.07349 0.0
C895 C 0.02669 0.1588 0.07404 0.0
C896 C 0.02748 0.22411 0.07356 0.0
H897 H 0.13998 0.51855 0.07693 0.0
H898 H 0.13157 0.41326 0.07527 0.0
H899 H 0.9609 0.34167 0.08375 0.0
H900 H 0.93243 0.04523 0.07705 0.0
H901 H 0.93288 0.15088 0.07501 0.0
C902 C 0.80132 0.81788 0.3249 0.0
C903 C 0.76482 0.77088 0.32739 0.0
C904 C 0.8616 0.81008 0.32427 0.0
C905 C 0.98012 0.72129 0.33444 0.0
H906 H 0.06937 0.78022 0.31219 0.0
C907 C 0.22951 0.69153 0.334 0.0
C908 C 0.26319 0.73665 0.32989 0.0
C909 C 0.16896 0.69082 0.33267 0.0
C910 C 0.04549 0.76416 0.31855 0.0
H911 H 0.76295 0.67866 0.33102 0.0
H912 H 0.86855 0.66546 0.33023 0.0
H913 H 0.96368 0.78981 0.31194 0.0
H914 H 0.25952 0.81578 0.3209 0.0
H915 H 0.15438 0.81605 0.3189 0.0
H916 H 0.06117 0.6982 0.34134 0.0
C917 C 0.85034 0.70822 0.32869 0.0
C918 C 0.9847 0.76941 0.31836 0.0
C919 C 0.7899 0.71573 0.3291 0.0
C920 C 0.23501 0.78006 0.32413 0.0
C921 C 0.17435 0.78001 0.32294 0.0
C922 C 0.04089 0.71702 0.33473 0.0
C923 C 0.88691 0.75537 0.32631 0.0
C924 C 0.95134 0.74812 0.32631 0.0
C925 C 0.14009 0.73594 0.32735 0.0
C926 C 0.07477 0.73848 0.3268 0.0
H927 H 0.78327 0.86079 0.32345 0.0
H928 H 0.88863 0.84728 0.32246 0.0
H929 H 0.95567 0.70513 0.34074 0.0
H930 H 0.24985 0.65716 0.33842 0.0
H931 H 0.14484 0.65508 0.33594 0.0
C932 C 0.50294 0.48815 0.57748 0.0
C933 C 0.44974 0.45986 0.57925 0.0
C934 C 0.50539 0.54884 0.57638 0.0
C935 C 0.41638 0.68038 0.57091 0.0
H936 H 0.53823 0.75982 0.58557 0.0
C937 C 0.41759 0.93149 0.57595 0.0
C938 C 0.47161 0.9601 0.57631 0.0
C939 C 0.41471 0.87052 0.57565 0.0
C940 C 0.50442 0.73854 0.58128 0.0
H941 H 0.35704 0.4734 0.58089 0.0
H942 H 0.36136 0.57922 0.57895 0.0
H943 H 0.53398 0.65398 0.58599 0.0
H944 H 0.56496 0.94696 0.57622 0.0
H945 H 0.56003 0.84132 0.57543 0.0
H946 H 0.38698 0.76498 0.56615 0.0
C947 C 0.40121 0.55439 0.57841 0.0
C948 C 0.50196 0.67765 0.58154 0.0
C949 C 0.39879 0.49367 0.57957 0.0
C950 C 0.52259 0.9264 0.57607 0.0
C951 C 0.51973 0.86559 0.57568 0.0
C952 C 0.41909 0.74141 0.57058 0.0
C953 C 0.45466 0.58283 0.57695 0.0
C954 C 0.45784 0.64773 0.57639 0.0
C955 C 0.46579 0.83661 0.57562 0.0
C956 C 0.4631 0.77143 0.57578 0.0
H957 H 0.543 0.46352 0.5771 0.0
H958 H 0.54715 0.56923 0.57511 0.0
H959 H 0.38216 0.65871 0.56677 0.0
H960 H 0.37746 0.95611 0.57614 0.0
H961 H 0.37235 0.84998 0.57571 0.0
C962 C 0.68789 0.31444 0.82587 0.0
C963 C 0.71477 0.25952 0.82673 0.0
C964 C 0.62715 0.31922 0.82535 0.0
C965 C 0.49254 0.23609 0.81977 0.0
H966 H 0.41857 0.35028 0.83639 0.0
C967 C 0.24534 0.23165 0.82767 0.0
C968 C 0.21608 0.28475 0.82898 0.0
C969 C 0.30579 0.23029 0.82653 0.0
C970 C 0.43831 0.31877 0.83156 0.0
H971 H 0.69861 0.16649 0.82742 0.0
H972 H 0.59299 0.17485 0.82648 0.0
H973 H 0.52424 0.34526 0.83586 0.0
H974 H 0.22752 0.37833 0.8297 0.0
H975 H 0.33248 0.37614 0.8275 0.0
H976 H 0.40671 0.2096 0.81544 0.0
C977 C 0.61881 0.21427 0.8262 0.0
C978 C 0.49909 0.31584 0.83128 0.0
C979 C 0.67946 0.20951 0.82681 0.0
C980 C 0.2486 0.33659 0.8288 0.0
C981 C 0.30902 0.33527 0.82761 0.0
C982 C 0.4317 0.23926 0.81999 0.0
C983 C 0.59179 0.26919 0.82557 0.0
C984 C 0.52703 0.27412 0.82546 0.0
C985 C 0.33868 0.28204 0.8266 0.0
C986 C 0.40363 0.28031 0.82597 0.0
H987 H 0.71373 0.35387 0.82575 0.0
H988 H 0.60782 0.36217 0.82476 0.0
H989 H 0.5126 0.20396 0.81509 0.0
H990 H 0.22173 0.19084 0.82774 0.0
H991 H 0.32686 0.18838 0.82588 0.0
C992 C 0.97007 0.97616 0.97636 0.0
C993 C 0.02145 0.00904 0.97551 0.0
C994 C 0.97226 0.91522 0.97722 0.0
C995 C 0.06572 0.79132 0.97087 0.0
H996 H 0.96837 0.70215 0.98883 0.0
C997 C 0.09101 0.54224 0.97461 0.0
C998 C 0.04069 0.50821 0.97574 0.0
C999 C 0.08863 0.60292 0.97534 0.0
C1000 C 0.99537 0.72623 0.98367 0.0
H1001 H 0.11559 1.00337 0.97528 0.0
H1002 H 0.11927 0.89743 0.97672 0.0
H1003 H 0.96389 0.80853 0.98877 0.0
H1004 H 0.94845 0.51143 0.97876 0.0
H1005 H 0.9438 0.6175 0.97976 0.0
H1006 H 0.09625 0.70974 0.96556 0.0
C1007 C 0.07723 0.9187 0.97662 0.0
C1008 C 0.9929 0.78733 0.98367 0.0
C1009 C 0.07509 0.97956 0.97584 0.0
C1010 C 0.98805 0.53635 0.97785 0.0
C1011 C 0.9855 0.59728 0.97847 0.0
C1012 C 0.06782 0.73042 0.97081 0.0
C1013 C 0.02585 0.88566 0.97717 0.0
C1014 C 0.02827 0.82064 0.9773 0.0
C1015 C 0.03569 0.63157 0.97711 0.0
C1016 C 0.03292 0.69681 0.97723 0.0
H1017 H 0.928 0.99735 0.97616 0.0
H1018 H 0.93185 0.89113 0.97758 0.0
H1019 H 0.09274 0.81551 0.96573 0.0
H1020 H 0.1325 0.522 0.97314 0.0
H1021 H 0.12856 0.62735 0.97451 0.0
C1022 C 0.31285 0.80291 0.22972 0.0
C1023 C 0.28658 0.76272 0.22325 0.0
C1024 C 0.37339 0.80427 0.231 0.0
C1025 C 0.50888 0.72108 0.2285 0.0
H1026 H 0.57962 0.87126 0.22316 0.0
C1027 C 0.75807 0.74573 0.22326 0.0
C1028 C 0.78478 0.79875 0.2257 0.0
C1029 C 0.69747 0.73957 0.22369 0.0
C1030 C 0.56103 0.82911 0.2249 0.0
H1031 H 0.30333 0.69038 0.2135 0.0
H1032 H 0.40896 0.69172 0.21598 0.0
H1033 H 0.47434 0.8624 0.22318 0.0
H1034 H 0.76922 0.88592 0.23099 0.0
H1035 H 0.6644 0.8746 0.23223 0.0
H1036 H 0.59518 0.68775 0.2305 0.0
C1037 C 0.38262 0.72257 0.21996 0.0
C1038 C 0.50037 0.82408 0.22485 0.0
C1039 C 0.32211 0.72189 0.21853 0.0
C1040 C 0.74982 0.84481 0.22889 0.0
C1041 C 0.68943 0.83831 0.22953 0.0
C1042 C 0.56968 0.72625 0.22876 0.0
C1043 C 0.40903 0.76478 0.226 0.0
C1044 C 0.47357 0.76999 0.22657 0.0
C1045 C 0.66199 0.78592 0.22677 0.0
C1046 C 0.59687 0.78033 0.22687 0.0
H1047 H 0.28692 0.83513 0.23346 0.0
H1048 H 0.3925 0.83696 0.23576 0.0
H1049 H 0.4894 0.67886 0.22992 0.0
H1050 H 0.78388 0.70947 0.22074 0.0
H1051 H 0.67854 0.69879 0.22134 0.0
C1052 C 0.57606 0.43895 0.47885 0.0
C1053 C 0.5235 0.46673 0.47618 0.0
C1054 C 0.57931 0.37799 0.47954 0.0
C1055 C 0.48951 0.24478 0.4824 0.0
H1056 H 0.61751 0.16802 0.46946 0.0
C1057 C 0.48748 0.99714 0.47458 0.0
C1058 C 0.54043 0.96647 0.47475 0.0
C1059 C 0.48647 0.05778 0.47563 0.0
C1060 C 0.58192 0.18849 0.47328 0.0
H1061 H 0.43272 0.45199 0.47244 0.0
H1062 H 0.43833 0.34611 0.4737 0.0
H1063 H 0.61432 0.27399 0.46991 0.0
H1064 H 0.63376 0.97564 0.47657 0.0
H1065 H 0.63198 0.08085 0.47864 0.0
H1066 H 0.45714 0.1595 0.48583 0.0
C1067 C 0.47709 0.37134 0.47526 0.0
C1068 C 0.58009 0.24947 0.47351 0.0
C1069 C 0.474 0.43214 0.47447 0.0
C1070 C 0.5922 0.99782 0.47629 0.0
C1071 C 0.59118 0.05841 0.47742 0.0
C1072 C 0.49158 0.18378 0.48225 0.0
C1073 C 0.5299 0.34339 0.47769 0.0
C1074 C 0.53355 0.27843 0.47798 0.0
C1075 C 0.53836 0.08948 0.47697 0.0
C1076 C 0.53751 0.15464 0.47759 0.0
H1077 H 0.61499 0.46423 0.48025 0.0
H1078 H 0.62053 0.35789 0.48153 0.0
H1079 H 0.45343 0.26566 0.48603 0.0
H1080 H 0.44672 0.97447 0.47341 0.0
H1081 H 0.44494 0.07989 0.47511 0.0
C1082 C 0.74014 0.14858 0.7231 0.0
C1083 C 0.70593 0.1993 0.72345 0.0
C1084 C 0.8007 0.1515 0.72426 0.0
C1085 C 0.92306 0.25359 0.72129 0.0
H1086 H 0.0105 0.13848 0.73666 0.0
C1087 C 0.17121 0.27543 0.727 0.0
C1088 C 0.20504 0.2245 0.72672 0.0
C1089 C 0.11049 0.27231 0.72732 0.0
C1090 C 0.98691 0.17064 0.73224 0.0
H1091 H 0.70876 0.29271 0.72563 0.0
H1092 H 0.81421 0.29774 0.72763 0.0
H1093 H 0.90451 0.13288 0.73594 0.0
H1094 H 0.20134 0.13015 0.72675 0.0
H1095 H 0.09547 0.12463 0.72708 0.0
H1096 H 1.005 0.29073 0.71738 0.0
C1097 C 0.79424 0.25576 0.72633 0.0
C1098 C 0.92604 0.16748 0.73185 0.0
C1099 C 0.7337 0.25281 0.72523 0.0
C1100 C 0.17664 0.17027 0.72697 0.0
C1101 C 0.1158 0.16714 0.72721 0.0
C1102 C 0.98383 0.25653 0.72161 0.0
C1103 C 0.82861 0.20525 0.72576 0.0
C1104 C 0.89334 0.20894 0.72637 0.0
C1105 C 0.08177 0.21816 0.72729 0.0
C1106 C 0.01674 0.21514 0.72709 0.0
H1107 H 0.72027 0.10661 0.72176 0.0
H1108 H 0.82583 0.11181 0.72371 0.0
H1109 H 0.89937 0.28567 0.71685 0.0
H1110 H 0.1916 0.31794 0.72692 0.0
H1111 H 0.08608 0.31257 0.7276 0.0
loop_
_geom_bond_atom_site_label_1
_geom_bond_atom_site_label_2
_geom_bond_distance
_geom_bond_site_symmetry_2
_ccdc_geom_bond_type
Zn0 N4 2.020 . S
Zn0 O8 2.019 . S
Zn0 N10 2.119 . S
Zn0 O18 1.975 . S
C1 N2 1.334 1_655 S
C1 N5 1.336 . S
N2 C1 1.334 1_455 S
N2 C3 1.334 . S
C3 N2 1.334 . S
C3 N4 1.336 . S
N4 Zn0 2.020 . S
N4 C3 1.336 . S
N4 N5 1.354 1_455 S
N5 C1 1.336 . S
N5 N4 1.354 1_655 S
N5 Zn9 2.020 . S
C6 O7 1.244 1_655 S
C6 O30 1.257 . S
O7 C6 1.244 1_455 S
O8 Zn0 2.019 . S
O8 C28 1.257 . S
Zn9 N5 2.020 . S
Zn9 O16 1.975 . S
Zn9 N25 2.119 . S
Zn9 O30 2.019 . S
N10 Zn0 2.119 . S
N10 C12 1.334 . S
N10 C13 1.328 . S
C11 C12 1.391 . S
C11 N14 1.329 . S
C11 H32 0.930 . S
C12 N10 1.334 . S
C12 C11 1.391 . S
C12 H19 0.930 . S
C13 N10 1.328 . S
C13 C15 1.392 . S
C13 H20 0.930 . S
N14 C11 1.329 . S
N14 C15 1.331 . S
C15 C13 1.392 . S
C15 N14 1.331 . S
O16 Zn9 1.975 . S
O16 C17 1.252 1_655 S
C17 O16 1.252 1_455 S
C17 O18 1.252 . S
O18 Zn0 1.975 . S
O18 C17 1.252 . S
H19 C12 0.930 . S
H20 C13 0.930 . S
C21 C22 1.392 . S
C21 N25 1.328 . S
C21 H27 0.930 . S
C22 C21 1.392 . S
C22 N26 1.331 . S
C23 C24 1.391 . S
C23 N26 1.329 . S
C23 H33 0.930 . S
C24 C23 1.391 . S
C24 N25 1.334 . S
C24 H31 0.930 . S
N25 Zn9 2.119 . S
N25 C21 1.328 . S
N25 C24 1.334 . S
N26 C22 1.331 . S
N26 C23 1.329 . S
H27 C21 0.930 . S
C28 O8 1.257 . S
C28 O29 1.244 1_455 S
O29 C28 1.244 1_655 S
O30 C6 1.257 . S
O30 Zn9 2.019 . S
H31 C24 0.930 . S
H32 C11 0.930 . S
H33 C23 0.930 . S
Zn34 N38 2.020 . S
Zn34 O42 2.019 . S
Zn34 N44 2.119 . S
Zn34 O52 1.975 . S
C35 N36 1.334 . S
C35 N39 1.336 . S
N36 C35 1.334 . S
N36 C37 1.334 . S
C37 N36 1.334 . S
C37 N38 1.336 . S
N38 Zn34 2.020 . S
N38 C37 1.336 . S
N38 N39 1.354 . S
N39 C35 1.336 . S
N39 N38 1.354 . S
N39 Zn43 2.020 . S
C40 O41 1.244 . S
C40 O64 1.257 . S
O41 C40 1.244 . S
O42 Zn34 2.019 . S
O42 C62 1.257 . S
Zn43 N39 2.020 . S
Zn43 O50 1.975 . S
Zn43 N59 2.119 . S
Zn43 O64 2.019 . S
N44 Zn34 2.119 . S
N44 C46 1.334 . S
N44 C47 1.328 . S
C45 C46 1.391 . S
C45 N48 1.329 . S
C45 H66 0.930 . S
C46 N44 1.334 . S
C46 C45 1.391 . S
C46 H53 0.930 . S
C47 N44 1.328 . S
C47 C49 1.392 . S
C47 H54 0.930 . S
N48 C45 1.329 . S
N48 C49 1.331 . S
C49 C47 1.392 . S
C49 N48 1.331 . S
O50 Zn43 1.975 . S
O50 C51 1.252 . S
C51 O50 1.252 . S
C51 O52 1.252 . S
O52 Zn34 1.975 . S
O52 C51 1.252 . S
H53 C46 0.930 . S
H54 C47 0.930 . S
C55 C56 1.392 . S
C55 N59 1.328 . S
C55 H61 0.930 . S
C56 C55 1.392 . S
C56 N60 1.331 . S
C57 C58 1.391 . S
C57 N60 1.329 . S
C57 H67 0.930 . S
C58 C57 1.391 . S
C58 N59 1.334 . S
C58 H65 0.930 . S
N59 Zn43 2.119 . S
N59 C55 1.328 . S
N59 C58 1.334 . S
N60 C56 1.331 . S
N60 C57 1.329 . S
H61 C55 0.930 . S
C62 O42 1.257 . S
C62 O63 1.244 . S
O63 C62 1.244 . S
O64 C40 1.257 . S
O64 Zn43 2.019 . S
H65 C58 0.930 . S
H66 C45 0.930 . S
H67 C57 0.930 . S
Zn68 N72 2.020 . S
Zn68 O76 2.019 . S
Zn68 N78 2.119 . S
Zn68 O86 1.975 . S
C69 N70 1.334 . S
C69 N73 1.336 . S
N70 C69 1.334 . S
N70 C71 1.334 . S
C71 N70 1.334 . S
C71 N72 1.336 . S
N72 Zn68 2.020 . S
N72 C71 1.336 . S
N72 N73 1.354 . S
N73 C69 1.336 . S
N73 N72 1.354 . S
N73 Zn77 2.020 . S
C74 O75 1.244 . S
C74 O98 1.257 . S
O75 C74 1.244 . S
O76 Zn68 2.019 . S
O76 C96 1.257 . S
Zn77 N73 2.020 . S
Zn77 O84 1.975 . S
Zn77 N93 2.119 . S
Zn77 O98 2.019 . S
N78 Zn68 2.119 . S
N78 C80 1.334 . S
N78 C81 1.328 . S
C79 C80 1.391 . S
C79 N82 1.329 . S
C79 H100 0.930 . S
C80 N78 1.334 . S
C80 C79 1.391 . S
C80 H87 0.930 . S
C81 N78 1.328 . S
C81 C83 1.392 . S
C81 H88 0.930 . S
N82 C79 1.329 . S
N82 C83 1.331 . S
C83 C81 1.392 . S
C83 N82 1.331 . S
O84 Zn77 1.975 . S
O84 C85 1.252 . S
C85 O84 1.252 . S
C85 O86 1.252 . S
O86 Zn68 1.975 . S
O86 C85 1.252 . S
H87 C80 0.930 . S
H88 C81 0.930 . S
C89 C90 1.392 . S
C89 N93 1.328 . S
C89 H95 0.930 . S
C90 C89 1.392 . S
C90 N94 1.331 . S
C91 C92 1.391 . S
C91 N94 1.329 . S
C91 H101 0.930 . S
C92 C91 1.391 . S
C92 N93 1.334 . S
C92 H99 0.930 . S
N93 Zn77 2.119 . S
N93 C89 1.328 . S
N93 C92 1.334 . S
N94 C90 1.331 . S
N94 C91 1.329 . S
H95 C89 0.930 . S
C96 O76 1.257 . S
C96 O97 1.244 . S
O97 C96 1.244 . S
O98 C74 1.257 . S
O98 Zn77 2.019 . S
H99 C92 0.930 . S
H100 C79 0.930 . S
H101 C91 0.930 . S
Zn102 N106 2.020 . S
Zn102 O110 2.019 . S
Zn102 N112 2.119 . S
Zn102 O120 1.975 . S
C103 N104 1.334 . S
C103 N107 1.336 . S
N104 C103 1.334 . S
N104 C105 1.334 1_455 S
C105 N104 1.334 1_655 S
C105 N106 1.336 . S
N106 Zn102 2.020 . S
N106 C105 1.336 . S
N106 N107 1.354 1_655 S
N107 C103 1.336 . S
N107 N106 1.354 1_455 S
N107 Zn111 2.020 . S
C108 O109 1.244 . S
C108 O132 1.257 . S
O109 C108 1.244 . S
O110 Zn102 2.019 . S
O110 C130 1.257 . S
Zn111 N107 2.020 . S
Zn111 O118 1.975 . S
Zn111 N127 2.119 . S
Zn111 O132 2.019 . S
N112 Zn102 2.119 . S
N112 C114 1.334 1_655 S
N112 C115 1.328 . S
C113 C114 1.391 . S
C113 N116 1.323 1_455 S
C113 H134 0.930 . S
C114 N112 1.334 1_455 S
C114 C113 1.391 . S
C114 H121 0.930 . S
C115 N112 1.328 . S
C115 C117 1.392 . S
C115 H122 0.930 . S
N116 C113 1.323 1_655 S
N116 C117 1.341 . S
C117 C115 1.392 . S
C117 N116 1.341 . S
O118 Zn111 1.975 . S
O118 C119 1.252 . S
C119 O118 1.252 . S
C119 O120 1.252 1_455 S
O120 Zn102 1.975 . S
O120 C119 1.252 1_655 S
H121 C114 0.930 . S
H122 C115 0.930 . S
C123 C124 1.392 . S
C123 N127 1.328 . S
C123 H129 0.930 . S
C124 C123 1.392 . S
C124 N128 1.345 . S
C125 C126 1.391 . S
C125 N128 1.320 1_655 S
C125 H135 0.930 . S
C126 C125 1.391 . S
C126 N127 1.334 1_655 S
C126 H133 0.930 . S
N127 Zn111 2.119 . S
N127 C123 1.328 . S
N127 C126 1.334 1_455 S
N128 C124 1.345 . S
N128 C125 1.320 1_455 S
H129 C123 0.930 . S
C130 O110 1.257 . S
C130 O131 1.244 . S
O131 C130 1.244 . S
O132 C108 1.257 . S
O132 Zn111 2.019 . S
H133 C126 0.930 . S
H134 C113 0.930 . S
H135 C125 0.930 . S
Zn136 N140 2.020 . S
Zn136 O144 2.019 . S
Zn136 N146 2.119 . S
Zn136 O154 1.975 . S
C137 N138 1.334 . S
C137 N141 1.336 . S
N138 C137 1.334 . S
N138 C139 1.334 1_455 S
C139 N138 1.334 1_655 S
C139 N140 1.336 . S
N140 Zn136 2.020 . S
N140 C139 1.336 . S
N140 N141 1.354 1_655 S
N141 C137 1.336 . S
N141 N140 1.354 1_455 S
N141 Zn145 2.020 . S
C142 O143 1.244 1_455 S
C142 O166 1.257 . S
O143 C142 1.244 1_655 S
O144 Zn136 2.019 . S
O144 C164 1.257 . S
Zn145 N141 2.020 . S
Zn145 O152 1.975 . S
Zn145 N161 2.119 . S
Zn145 O166 2.019 . S
N146 Zn136 2.119 . S
N146 C148 1.334 . S
N146 C149 1.328 . S
C147 C148 1.391 . S
C147 N150 1.329 . S
C147 H168 0.930 . S
C148 N146 1.334 . S
C148 C147 1.391 . S
C148 H155 0.930 . S
C149 N146 1.328 . S
C149 C151 1.392 . S
C149 H156 0.930 . S
N150 C147 1.329 . S
N150 C151 1.331 . S
C151 C149 1.392 . S
C151 N150 1.331 . S
O152 Zn145 1.975 . S
O152 C153 1.252 . S
C153 O152 1.252 . S
C153 O154 1.252 1_455 S
O154 Zn136 1.975 . S
O154 C153 1.252 1_655 S
H155 C148 0.930 . S
H156 C149 0.930 . S
C157 C158 1.392 . S
C157 N161 1.328 . S
C157 H163 0.930 . S
C158 C157 1.392 . S
C158 N162 1.331 . S
C159 C160 1.391 . S
C159 N162 1.329 . S
C159 H169 0.930 . S
C160 C159 1.391 . S
C160 N161 1.334 . S
C160 H167 0.930 . S
N161 Zn145 2.119 . S
N161 C157 1.328 . S
N161 C160 1.334 . S
N162 C158 1.331 . S
N162 C159 1.329 . S
H163 C157 0.930 . S
C164 O144 1.257 . S
C164 O165 1.244 1_655 S
O165 C164 1.244 1_455 S
O166 C142 1.257 . S
O166 Zn145 2.019 . S
H167 C160 0.930 . S
H168 C147 0.930 . S
H169 C159 0.930 . S
Zn170 N174 2.020 . S
Zn170 O178 2.019 . S
Zn170 N180 2.119 . S
Zn170 O188 1.975 . S
C171 N172 1.334 . S
C171 N175 1.336 . S
N172 C171 1.334 . S
N172 C173 1.334 1_455 S
C173 N172 1.334 1_655 S
C173 N174 1.336 . S
N174 Zn170 2.020 . S
N174 C173 1.336 . S
N174 N175 1.354 1_655 S
N175 C171 1.336 . S
N175 N174 1.354 1_455 S
N175 Zn179 2.020 . S
C176 O177 1.244 . S
C176 O200 1.257 . S
O177 C176 1.244 . S
O178 Zn170 2.019 . S
O178 C198 1.257 . S
Zn179 N175 2.020 . S
Zn179 O186 1.975 . S
Zn179 N195 2.119 . S
Zn179 O200 2.019 . S
N180 Zn170 2.119 . S
N180 C182 1.334 1_655 S
N180 C183 1.328 . S
C181 C182 1.391 . S
C181 N184 1.323 1_455 S
C181 H202 0.930 . S
C182 N180 1.334 1_455 S
C182 C181 1.391 . S
C182 H189 0.930 . S
C183 N180 1.328 . S
C183 C185 1.392 . S
C183 H190 0.930 . S
N184 C181 1.323 1_655 S
N184 C185 1.341 . S
C185 C183 1.392 . S
C185 N184 1.341 . S
O186 Zn179 1.975 . S
O186 C187 1.252 . S
C187 O186 1.252 . S
C187 O188 1.252 1_455 S
O188 Zn170 1.975 . S
O188 C187 1.252 1_655 S
H189 C182 0.930 . S
H190 C183 0.930 . S
C191 C192 1.392 . S
C191 N195 1.328 . S
C191 H197 0.930 . S
C192 C191 1.392 . S
C192 N196 1.345 . S
C193 C194 1.391 . S
C193 N196 1.320 1_655 S
C193 H203 0.930 . S
C194 C193 1.391 . S
C194 N195 1.334 1_655 S
C194 H201 0.930 . S
N195 Zn179 2.119 . S
N195 C191 1.328 . S
N195 C194 1.334 1_455 S
N196 C192 1.345 . S
N196 C193 1.320 1_455 S
H197 C191 0.930 . S
C198 O178 1.257 . S
C198 O199 1.244 . S
O199 C198 1.244 . S
O200 C176 1.257 . S
O200 Zn179 2.019 . S
H201 C194 0.930 . S
H202 C181 0.930 . S
H203 C193 0.930 . S
Zn204 N208 2.020 . S
Zn204 O212 2.019 . S
Zn204 N214 2.119 . S
Zn204 O222 1.975 . S
C205 N206 1.334 . S
C205 N209 1.336 . S
N206 C205 1.334 . S
N206 C207 1.334 . S
C207 N206 1.334 . S
C207 N208 1.336 . S
N208 Zn204 2.020 . S
N208 C207 1.336 . S
N208 N209 1.354 . S
N209 C205 1.336 . S
N209 N208 1.354 . S
N209 Zn213 2.020 . S
C210 O211 1.244 . S
C210 O234 1.257 . S
O211 C210 1.244 . S
O212 Zn204 2.019 . S
O212 C232 1.257 . S
Zn213 N209 2.020 . S
Zn213 O220 1.975 . S
Zn213 N229 2.119 . S
Zn213 O234 2.019 . S
N214 Zn204 2.119 . S
N214 C216 1.334 . S
N214 C217 1.328 . S
C215 C216 1.391 . S
C215 N218 1.329 . S
C215 H236 0.930 . S
C216 N214 1.334 . S
C216 C215 1.391 . S
C216 H223 0.930 . S
C217 N214 1.328 . S
C217 C219 1.392 . S
C217 H224 0.930 . S
N218 C215 1.329 . S
N218 C219 1.331 . S
C219 C217 1.392 . S
C219 N218 1.331 . S
O220 Zn213 1.975 . S
O220 C221 1.252 . S
C221 O220 1.252 . S
C221 O222 1.252 . S
O222 Zn204 1.975 . S
O222 C221 1.252 . S
H223 C216 0.930 . S
H224 C217 0.930 . S
C225 C226 1.392 . S
C225 N229 1.328 . S
C225 H231 0.930 . S
C226 C225 1.392 . S
C226 N230 1.331 . S
C227 C228 1.391 . S
C227 N230 1.329 . S
C227 H237 0.930 . S
C228 C227 1.391 . S
C228 N229 1.334 . S
C228 H235 0.930 . S
N229 Zn213 2.119 . S
N229 C225 1.328 . S
N229 C228 1.334 . S
N230 C226 1.331 . S
N230 C227 1.329 . S
H231 C225 0.930 . S
C232 O212 1.257 . S
C232 O233 1.244 . S
O233 C232 1.244 . S
O234 C210 1.257 . S
O234 Zn213 2.019 . S
H235 C228 0.930 . S
H236 C215 0.930 . S
H237 C227 0.930 . S
Zn238 N242 2.020 . S
Zn238 O246 2.019 . S
Zn238 N248 2.119 . S
Zn238 O256 1.975 . S
C239 N240 1.334 . S
C239 N243 1.336 . S
N240 C239 1.334 . S
N240 C241 1.334 . S
C241 N240 1.334 . S
C241 N242 1.336 . S
N242 Zn238 2.020 . S
N242 C241 1.336 . S
N242 N243 1.354 . S
N243 C239 1.336 . S
N243 N242 1.354 . S
N243 Zn247 2.020 . S
C244 O245 1.244 . S
C244 O268 1.257 . S
O245 C244 1.244 . S
O246 Zn238 2.019 . S
O246 C266 1.257 . S
Zn247 N243 2.020 . S
Zn247 O254 1.975 . S
Zn247 N263 2.119 . S
Zn247 O268 2.019 . S
N248 Zn238 2.119 . S
N248 C250 1.334 . S
N248 C251 1.328 . S
C249 C250 1.391 . S
C249 N252 1.329 . S
C249 H270 0.930 . S
C250 N248 1.334 . S
C250 C249 1.391 . S
C250 H257 0.930 . S
C251 N248 1.328 . S
C251 C253 1.392 . S
C251 H258 0.930 . S
N252 C249 1.329 . S
N252 C253 1.331 . S
C253 C251 1.392 . S
C253 N252 1.331 . S
O254 Zn247 1.975 . S
O254 C255 1.252 . S
C255 O254 1.252 . S
C255 O256 1.252 . S
O256 Zn238 1.975 . S
O256 C255 1.252 . S
H257 C250 0.930 . S
H258 C251 0.930 . S
C259 C260 1.392 . S
C259 N263 1.328 . S
C259 H265 0.930 . S
C260 C259 1.392 . S
C260 N264 1.331 . S
C261 C262 1.391 . S
C261 N264 1.329 . S
C261 H271 0.930 . S
C262 C261 1.391 . S
C262 N263 1.334 . S
C262 H269 0.930 . S
N263 Zn247 2.119 . S
N263 C259 1.328 . S
N263 C262 1.334 . S
N264 C260 1.331 . S
N264 C261 1.329 . S
H265 C259 0.930 . S
C266 O246 1.257 . S
C266 O267 1.244 . S
O267 C266 1.244 . S
O268 C244 1.257 . S
O268 Zn247 2.019 . S
H269 C262 0.930 . S
H270 C249 0.930 . S
H271 C261 0.930 . S
C272 C273 1.349 1_655 S
C272 C274 1.327 . S
C272 H297 0.950 . S
C273 C272 1.349 1_455 S
C273 C289 1.349 . S
C274 C272 1.327 . S
C274 C293 1.429 1_655 S
C274 H298 0.950 . S
C275 C292 1.574 . S
C275 C294 1.368 . S
C275 H299 0.949 . S
H276 C280 0.949 . S
C277 C278 1.349 . S
C277 C279 1.327 . S
C277 H300 0.950 . S
C278 C277 1.349 . S
C278 C290 1.349 1_455 S
C279 C277 1.327 . S
C279 C295 1.429 . S
C279 H301 0.950 . S
C280 H276 0.949 . S
C280 C288 1.574 . S
C280 C296 1.368 1_655 S
H281 C289 0.950 . S
H282 C287 0.950 . S
H283 C288 0.949 . S
H284 C290 0.950 . S
H285 C291 0.950 . S
H286 C292 0.949 . S
C287 H282 0.950 . S
C287 C289 1.327 . S
C287 C293 1.429 . S
C288 C280 1.574 . S
C288 H283 0.949 . S
C288 C294 1.368 1_655 S
C289 C273 1.349 . S
C289 H281 0.950 . S
C289 C287 1.327 . S
C290 C278 1.349 1_655 S
C290 H284 0.950 . S
C290 C291 1.327 . S
C291 H285 0.950 . S
C291 C290 1.327 . S
C291 C295 1.429 1_655 S
C292 C275 1.574 . S
C292 H286 0.949 . S
C292 C296 1.368 . S
C293 C274 1.429 1_455 S
C293 C287 1.429 . S
C293 C294 1.523 . S
C294 C275 1.368 . S
C294 C288 1.368 1_455 S
C294 C293 1.523 . S
C295 C279 1.429 . S
C295 C291 1.429 1_455 S
C295 C296 1.523 . S
C296 C280 1.368 1_455 S
C296 C292 1.368 . S
C296 C295 1.523 . S
H297 C272 0.950 . S
H298 C274 0.950 . S
H299 C275 0.949 . S
H300 C277 0.950 . S
H301 C279 0.950 . S
C302 C303 1.349 . S
C302 C304 1.327 . S
C302 H327 0.950 . S
C303 C302 1.349 . S
C303 C319 1.349 . S
C304 C302 1.327 . S
C304 C323 1.429 . S
C304 H328 0.950 . S
C305 C322 1.574 . S
C305 C324 1.368 . S
C305 H329 0.949 . S
H306 C310 0.949 . S
C307 C308 1.349 . S
C307 C309 1.327 . S
C307 H330 0.950 . S
C308 C307 1.349 . S
C308 C320 1.349 . S
C309 C307 1.327 . S
C309 C325 1.429 . S
C309 H331 0.950 . S
C310 H306 0.949 . S
C310 C318 1.574 . S
C310 C326 1.368 . S
H311 C319 0.950 . S
H312 C317 0.950 . S
H313 C318 0.949 . S
H314 C320 0.950 . S
H315 C321 0.950 . S
H316 C322 0.949 . S
C317 H312 0.950 . S
C317 C319 1.327 . S
C317 C323 1.429 . S
C318 C310 1.574 . S
C318 H313 0.949 . S
C318 C324 1.368 . S
C319 C303 1.349 . S
C319 H311 0.950 . S
C319 C317 1.327 . S
C320 C308 1.349 . S
C320 H314 0.950 . S
C320 C321 1.327 . S
C321 H315 0.950 . S
C321 C320 1.327 . S
C321 C325 1.429 . S
C322 C305 1.574 . S
C322 H316 0.949 . S
C322 C326 1.368 . S
C323 C304 1.429 . S
C323 C317 1.429 . S
C323 C324 1.523 . S
C324 C305 1.368 . S
C324 C318 1.368 . S
C324 C323 1.523 . S
C325 C309 1.429 . S
C325 C321 1.429 . S
C325 C326 1.523 . S
C326 C310 1.368 . S
C326 C322 1.368 . S
C326 C325 1.523 . S
H327 C302 0.950 . S
H328 C304 0.950 . S
H329 C305 0.949 . S
H330 C307 0.950 . S
H331 C309 0.950 . S
C332 C333 1.349 . S
C332 C334 1.327 . S
C332 H357 0.950 . S
C333 C332 1.349 . S
C333 C349 1.349 . S
C334 C332 1.327 . S
C334 C353 1.429 . S
C334 H358 0.950 . S
C335 C352 1.574 . S
C335 C354 1.368 . S
C335 H359 0.949 . S
H336 C340 0.949 . S
C337 C338 1.349 . S
C337 C339 1.327 . S
C337 H360 0.950 . S
C338 C337 1.349 . S
C338 C350 1.349 . S
C339 C337 1.327 . S
C339 C355 1.429 . S
C339 H361 0.950 . S
C340 H336 0.949 . S
C340 C348 1.574 . S
C340 C356 1.368 . S
H341 C349 0.950 . S
H342 C347 0.950 . S
H343 C348 0.949 . S
H344 C350 0.950 . S
H345 C351 0.950 . S
H346 C352 0.949 . S
C347 H342 0.950 . S
C347 C349 1.327 . S
C347 C353 1.429 . S
C348 C340 1.574 . S
C348 H343 0.949 . S
C348 C354 1.368 . S
C349 C333 1.349 . S
C349 H341 0.950 . S
C349 C347 1.327 . S
C350 C338 1.349 . S
C350 H344 0.950 . S
C350 C351 1.327 . S
C351 H345 0.950 . S
C351 C350 1.327 . S
C351 C355 1.429 . S
C352 C335 1.574 . S
C352 H346 0.949 . S
C352 C356 1.368 . S
C353 C334 1.429 . S
C353 C347 1.429 . S
C353 C354 1.523 . S
C354 C335 1.368 . S
C354 C348 1.368 . S
C354 C353 1.523 . S
C355 C339 1.429 . S
C355 C351 1.429 . S
C355 C356 1.523 . S
C356 C340 1.368 . S
C356 C352 1.368 . S
C356 C355 1.523 . S
H357 C332 0.950 . S
H358 C334 0.950 . S
H359 C335 0.949 . S
H360 C337 0.950 . S
H361 C339 0.950 . S
C362 C363 1.349 . S
C362 C364 1.327 . S
C362 H387 0.950 . S
C363 C362 1.349 . S
C363 C379 1.349 1_455 S
C364 C362 1.327 . S
C364 C383 1.429 . S
C364 H388 0.950 . S
C365 C382 1.574 . S
C365 C384 1.368 1_655 S
C365 H389 0.949 . S
H366 C370 0.949 . S
C367 C368 1.349 1_655 S
C367 C369 1.327 . S
C367 H390 0.950 . S
C368 C367 1.349 1_455 S
C368 C380 1.349 . S
C369 C367 1.327 . S
C369 C385 1.429 1_655 S
C369 H391 0.950 . S
C370 H366 0.949 . S
C370 C378 1.574 . S
C370 C386 1.368 . S
H371 C379 0.950 . S
H372 C377 0.950 . S
H373 C378 0.949 . S
H374 C380 0.950 . S
H375 C381 0.950 . S
H376 C382 0.949 . S
C377 H372 0.950 . S
C377 C379 1.327 . S
C377 C383 1.429 1_655 S
C378 C370 1.574 . S
C378 H373 0.949 . S
C378 C384 1.368 . S
C379 C363 1.349 1_655 S
C379 H371 0.950 . S
C379 C377 1.327 . S
C380 C368 1.349 . S
C380 H374 0.950 . S
C380 C381 1.327 . S
C381 H375 0.950 . S
C381 C380 1.327 . S
C381 C385 1.429 . S
C382 C365 1.574 . S
C382 H376 0.949 . S
C382 C386 1.368 1_655 S
C383 C364 1.429 . S
C383 C377 1.429 1_455 S
C383 C384 1.523 . S
C384 C365 1.368 1_455 S
C384 C378 1.368 . S
C384 C383 1.523 . S
C385 C369 1.429 1_455 S
C385 C381 1.429 . S
C385 C386 1.523 . S
C386 C370 1.368 . S
C386 C382 1.368 1_455 S
C386 C385 1.523 . S
H387 C362 0.950 . S
H388 C364 0.950 . S
H389 C365 0.949 . S
H390 C367 0.950 . S
H391 C369 0.950 . S
C392 C393 1.349 . S
C392 C394 1.327 . S
C392 H417 0.950 . S
C393 C392 1.349 . S
C393 C409 1.349 . S
C394 C392 1.327 . S
C394 C413 1.429 . S
C394 H418 0.950 . S
C395 C412 1.574 . S
C395 C414 1.368 1_554 S
C395 H419 0.949 . S
H396 C400 0.949 . S
C397 C398 1.349 . S
C397 C399 1.327 . S
C397 H420 0.950 . S
C398 C397 1.349 . S
C398 C410 1.349 . S
C399 C397 1.327 . S
C399 C415 1.429 . S
C399 H421 0.950 . S
C400 H396 0.949 . S
C400 C408 1.574 . S
C400 C416 1.368 1_556 S
H401 C409 0.950 . S
H402 C407 0.950 . S
H403 C408 0.949 . S
H404 C410 0.950 . S
H405 C411 0.950 . S
H406 C412 0.949 . S
C407 H402 0.950 . S
C407 C409 1.327 . S
C407 C413 1.429 . S
C408 C400 1.574 . S
C408 H403 0.949 . S
C408 C414 1.368 . S
C409 C393 1.349 . S
C409 H401 0.950 . S
C409 C407 1.327 . S
C410 C398 1.349 . S
C410 H404 0.950 . S
C410 C411 1.327 . S
C411 H405 0.950 . S
C411 C410 1.327 . S
C411 C415 1.429 . S
C412 C395 1.574 . S
C412 H406 0.949 . S
C412 C416 1.368 . S
C413 C394 1.429 . S
C413 C407 1.429 . S
C413 C414 1.523 . S
C414 C395 1.368 1_556 S
C414 C408 1.368 . S
C414 C413 1.523 . S
C415 C399 1.429 . S
C415 C411 1.429 . S
C415 C416 1.523 . S
C416 C400 1.368 1_554 S
C416 C412 1.368 . S
C416 C415 1.523 . S
H417 C392 0.950 . S
H418 C394 0.950 . S
H419 C395 0.949 . S
H420 C397 0.950 . S
H421 C399 0.950 . S
C422 C423 1.349 . S
C422 C424 1.327 . S
C422 H447 0.950 . S
C423 C422 1.349 . S
C423 C439 1.349 . S
C424 C422 1.327 . S
C424 C443 1.429 . S
C424 H448 0.950 . S
C425 C442 1.574 . S
C425 C444 1.368 . S
C425 H449 0.949 . S
H426 C430 0.949 . S
C427 C428 1.349 . S
C427 C429 1.327 . S
C427 H450 0.950 . S
C428 C427 1.349 . S
C428 C440 1.349 . S
C429 C427 1.327 . S
C429 C445 1.429 . S
C429 H451 0.950 . S
C430 H426 0.949 . S
C430 C438 1.574 . S
C430 C446 1.368 . S
H431 C439 0.950 . S
H432 C437 0.950 . S
H433 C438 0.949 . S
H434 C440 0.950 . S
H435 C441 0.950 . S
H436 C442 0.949 . S
C437 H432 0.950 . S
C437 C439 1.327 . S
C437 C443 1.429 . S
C438 C430 1.574 . S
C438 H433 0.949 . S
C438 C444 1.368 . S
C439 C423 1.349 . S
C439 H431 0.950 . S
C439 C437 1.327 . S
C440 C428 1.349 . S
C440 H434 0.950 . S
C440 C441 1.327 . S
C441 H435 0.950 . S
C441 C440 1.327 . S
C441 C445 1.429 . S
C442 C425 1.574 . S
C442 H436 0.949 . S
C442 C446 1.368 . S
C443 C424 1.429 . S
C443 C437 1.429 . S
C443 C444 1.523 . S
C444 C425 1.368 . S
C444 C438 1.368 . S
C444 C443 1.523 . S
C445 C429 1.429 . S
C445 C441 1.429 . S
C445 C446 1.523 . S
C446 C430 1.368 . S
C446 C442 1.368 . S
C446 C445 1.523 . S
H447 C422 0.950 . S
H448 C424 0.950 . S
H449 C425 0.949 . S
H450 C427 0.950 . S
H451 C429 0.950 . S
C452 C453 1.349 . S
C452 C454 1.327 . S
C452 H477 0.950 . S
C453 C452 1.349 . S
C453 C469 1.349 . S
C454 C452 1.327 . S
C454 C473 1.429 . S
C454 H478 0.950 . S
C455 C472 1.574 . S
C455 C474 1.368 . S
C455 H479 0.949 . S
H456 C460 0.949 . S
C457 C458 1.349 . S
C457 C459 1.327 . S
C457 H480 0.950 . S
C458 C457 1.349 . S
C458 C470 1.349 . S
C459 C457 1.327 . S
C459 C475 1.429 . S
C459 H481 0.950 . S
C460 H456 0.949 . S
C460 C468 1.574 . S
C460 C476 1.368 . S
H461 C469 0.950 . S
H462 C467 0.950 . S
H463 C468 0.949 . S
H464 C470 0.950 . S
H465 C471 0.950 . S
H466 C472 0.949 . S
C467 H462 0.950 . S
C467 C469 1.327 . S
C467 C473 1.429 . S
C468 C460 1.574 . S
C468 H463 0.949 . S
C468 C474 1.368 . S
C469 C453 1.349 . S
C469 H461 0.950 . S
C469 C467 1.327 . S
C470 C458 1.349 . S
C470 H464 0.950 . S
C470 C471 1.327 . S
C471 H465 0.950 . S
C471 C470 1.327 . S
C471 C475 1.429 . S
C472 C455 1.574 . S
C472 H466 0.949 . S
C472 C476 1.368 . S
C473 C454 1.429 . S
C473 C467 1.429 . S
C473 C474 1.523 . S
C474 C455 1.368 . S
C474 C468 1.368 . S
C474 C473 1.523 . S
C475 C459 1.429 . S
C475 C471 1.429 . S
C475 C476 1.523 . S
C476 C460 1.368 . S
C476 C472 1.368 . S
C476 C475 1.523 . S
H477 C452 0.950 . S
H478 C454 0.950 . S
H479 C455 0.949 . S
H480 C457 0.950 . S
H481 C459 0.950 . S
C482 C483 1.349 . S
C482 C484 1.327 . S
C482 H507 0.950 . S
C483 C482 1.349 . S
C483 C499 1.349 . S
C484 C482 1.327 . S
C484 C503 1.429 . S
C484 H508 0.950 . S
C485 C502 1.574 . S
C485 C504 1.368 . S
C485 H509 0.949 . S
H486 C490 0.949 . S
C487 C488 1.349 . S
C487 C489 1.327 . S
C487 H510 0.950 . S
C488 C487 1.349 . S
C488 C500 1.349 . S
C489 C487 1.327 . S
C489 C505 1.429 . S
C489 H511 0.950 . S
C490 H486 0.949 . S
C490 C498 1.574 . S
C490 C506 1.368 . S
H491 C499 0.950 . S
H492 C497 0.950 . S
H493 C498 0.949 . S
H494 C500 0.950 . S
H495 C501 0.950 . S
H496 C502 0.949 . S
C497 H492 0.950 . S
C497 C499 1.327 . S
C497 C503 1.429 . S
C498 C490 1.574 . S
C498 H493 0.949 . S
C498 C504 1.368 . S
C499 C483 1.349 . S
C499 H491 0.950 . S
C499 C497 1.327 . S
C500 C488 1.349 . S
C500 H494 0.950 . S
C500 C501 1.327 . S
C501 H495 0.950 . S
C501 C500 1.327 . S
C501 C505 1.429 . S
C502 C485 1.574 . S
C502 H496 0.949 . S
C502 C506 1.368 . S
C503 C484 1.429 . S
C503 C497 1.429 . S
C503 C504 1.523 . S
C504 C485 1.368 . S
C504 C498 1.368 . S
C504 C503 1.523 . S
C505 C489 1.429 . S
C505 C501 1.429 . S
C505 C506 1.523 . S
C506 C490 1.368 . S
C506 C502 1.368 . S
C506 C505 1.523 . S
H507 C482 0.950 . S
H508 C484 0.950 . S
H509 C485 0.949 . S
H510 C487 0.950 . S
H511 C489 0.950 . S
C512 C513 1.349 . S
C512 C514 1.327 . S
C512 H537 0.950 . S
C513 C512 1.349 . S
C513 C529 1.349 . S
C514 C512 1.327 . S
C514 C533 1.429 . S
C514 H538 0.950 . S
C515 C532 1.574 . S
C515 C534 1.368 . S
C515 H539 0.949 . S
H516 C520 0.949 . S
C517 C518 1.349 . S
C517 C519 1.327 . S
C517 H540 0.950 . S
C518 C517 1.349 . S
C518 C530 1.349 . S
C519 C517 1.327 . S
C519 C535 1.429 . S
C519 H541 0.950 . S
C520 H516 0.949 . S
C520 C528 1.574 . S
C520 C536 1.368 . S
H521 C529 0.950 . S
H522 C527 0.950 . S
H523 C528 0.949 . S
H524 C530 0.950 . S
H525 C531 0.950 . S
H526 C532 0.949 . S
C527 H522 0.950 . S
C527 C529 1.327 . S
C527 C533 1.429 . S
C528 C520 1.574 . S
C528 H523 0.949 . S
C528 C534 1.368 . S
C529 C513 1.349 . S
C529 H521 0.950 . S
C529 C527 1.327 . S
C530 C518 1.349 . S
C530 H524 0.950 . S
C530 C531 1.327 . S
C531 H525 0.950 . S
C531 C530 1.327 . S
C531 C535 1.429 . S
C532 C515 1.574 . S
C532 H526 0.949 . S
C532 C536 1.368 . S
C533 C514 1.429 . S
C533 C527 1.429 . S
C533 C534 1.523 . S
C534 C515 1.368 . S
C534 C528 1.368 . S
C534 C533 1.523 . S
C535 C519 1.429 . S
C535 C531 1.429 . S
C535 C536 1.523 . S
C536 C520 1.368 . S
C536 C532 1.368 . S
C536 C535 1.523 . S
H537 C512 0.950 . S
H538 C514 0.950 . S
H539 C515 0.949 . S
H540 C517 0.950 . S
H541 C519 0.950 . S
C542 C543 1.349 . S
C542 C544 1.327 . S
C542 H567 0.950 . S
C543 C542 1.349 . S
C543 C559 1.349 . S
C544 C542 1.327 . S
C544 C563 1.429 . S
C544 H568 0.950 . S
C545 C562 1.574 . S
C545 C564 1.368 . S
C545 H569 0.949 . S
H546 C550 0.949 . S
C547 C548 1.349 . S
C547 C549 1.327 . S
C547 H570 0.950 . S
C548 C547 1.349 . S
C548 C560 1.349 . S
C549 C547 1.327 . S
C549 C565 1.429 . S
C549 H571 0.950 . S
C550 H546 0.949 . S
C550 C558 1.574 . S
C550 C566 1.368 . S
H551 C559 0.950 . S
H552 C557 0.950 . S
H553 C558 0.949 . S
H554 C560 0.950 . S
H555 C561 0.950 . S
H556 C562 0.949 . S
C557 H552 0.950 . S
C557 C559 1.327 . S
C557 C563 1.429 . S
C558 C550 1.574 . S
C558 H553 0.949 . S
C558 C564 1.368 . S
C559 C543 1.349 . S
C559 H551 0.950 . S
C559 C557 1.327 . S
C560 C548 1.349 . S
C560 H554 0.950 . S
C560 C561 1.327 . S
C561 H555 0.950 . S
C561 C560 1.327 . S
C561 C565 1.429 . S
C562 C545 1.574 . S
C562 H556 0.949 . S
C562 C566 1.368 . S
C563 C544 1.429 . S
C563 C557 1.429 . S
C563 C564 1.523 . S
C564 C545 1.368 . S
C564 C558 1.368 . S
C564 C563 1.523 . S
C565 C549 1.429 . S
C565 C561 1.429 . S
C565 C566 1.523 . S
C566 C550 1.368 . S
C566 C562 1.368 . S
C566 C565 1.523 . S
H567 C542 0.950 . S
H568 C544 0.950 . S
H569 C545 0.949 . S
H570 C547 0.950 . S
H571 C549 0.950 . S
C572 C573 1.349 . S
C572 C574 1.327 . S
C572 H597 0.950 . S
C573 C572 1.349 . S
C573 C589 1.349 . S
C574 C572 1.327 . S
C574 C593 1.429 . S
C574 H598 0.950 . S
C575 C592 1.574 . S
C575 C594 1.368 1_565 S
C575 H599 0.949 . S
H576 C580 0.949 . S
C577 C578 1.349 . S
C577 C579 1.327 . S
C577 H600 0.950 . S
C578 C577 1.349 . S
C578 C590 1.349 . S
C579 C577 1.327 . S
C579 C595 1.429 . S
C579 H601 0.950 . S
C580 H576 0.949 . S
C580 C588 1.574 . S
C580 C596 1.368 1_545 S
H581 C589 0.950 . S
H582 C587 0.950 . S
H583 C588 0.949 . S
H584 C590 0.950 . S
H585 C591 0.950 . S
H586 C592 0.949 . S
C587 H582 0.950 . S
C587 C589 1.327 . S
C587 C593 1.429 . S
C588 C580 1.574 . S
C588 H583 0.949 . S
C588 C594 1.368 . S
C589 C573 1.349 . S
C589 H581 0.950 . S
C589 C587 1.327 . S
C590 C578 1.349 . S
C590 H584 0.950 . S
C590 C591 1.327 . S
C591 H585 0.950 . S
C591 C590 1.327 . S
C591 C595 1.429 . S
C592 C575 1.574 . S
C592 H586 0.949 . S
C592 C596 1.368 . S
C593 C574 1.429 . S
C593 C587 1.429 . S
C593 C594 1.523 . S
C594 C575 1.368 1_545 S
C594 C588 1.368 . S
C594 C593 1.523 . S
C595 C579 1.429 . S
C595 C591 1.429 . S
C595 C596 1.523 . S
C596 C580 1.368 1_565 S
C596 C592 1.368 . S
C596 C595 1.523 . S
H597 C572 0.950 . S
H598 C574 0.950 . S
H599 C575 0.949 . S
H600 C577 0.950 . S
H601 C579 0.950 . S
C602 C603 1.349 . S
C602 C604 1.327 . S
C602 H627 0.951 . S
C603 C602 1.349 . S
C603 C619 1.349 . S
C604 C602 1.327 . S
C604 C623 1.429 . S
C604 H628 0.944 1_455 S
C605 C622 1.647 . S
C605 C624 1.368 1_545 S
C605 H629 0.949 . S
H606 C610 0.942 1_655 S
C607 C608 1.349 . S
C607 C609 1.327 . S
C607 H630 0.950 . S
C608 C607 1.349 . S
C608 C620 1.349 . S
C609 C607 1.327 . S
C609 C625 1.429 . S
C609 H631 0.950 . S
C610 H606 0.942 1_455 S
C610 C618 1.647 . S
C610 C626 1.368 1_565 S
H611 C619 0.950 . S
H612 C617 0.950 . S
H613 C618 0.951 1_655 S
H614 C620 0.951 . S
H615 C621 0.944 1_655 S
H616 C622 0.958 . S
C617 H612 0.950 . S
C617 C619 1.327 . S
C617 C623 1.429 . S
C618 C610 1.647 . S
C618 H613 0.951 1_455 S
C618 C624 1.292 1_556 S
C619 C603 1.349 . S
C619 H611 0.950 . S
C619 C617 1.327 . S
C620 C608 1.349 . S
C620 H614 0.951 . S
C620 C621 1.327 . S
C621 H615 0.944 1_455 S
C621 C620 1.327 . S
C621 C625 1.429 . S
C622 C605 1.647 . S
C622 H616 0.958 . S
C622 C626 1.292 1_554 S
C623 C604 1.429 . S
C623 C617 1.429 . S
C623 C624 1.523 . S
C624 C605 1.368 1_565 S
C624 C618 1.292 1_554 S
C624 C623 1.523 . S
C625 C609 1.429 . S
C625 C621 1.429 . S
C625 C626 1.523 . S
C626 C610 1.368 1_545 S
C626 C622 1.292 1_556 S
C626 C625 1.523 . S
H627 C602 0.951 . S
H628 C604 0.944 1_655 S
H629 C605 0.949 . S
H630 C607 0.950 . S
H631 C609 0.950 . S
C632 C633 1.349 . S
C632 C634 1.327 . S
C632 H657 0.950 . S
C633 C632 1.349 . S
C633 C649 1.349 . S
C634 C632 1.327 . S
C634 C653 1.429 . S
C634 H658 0.950 . S
C635 C652 1.574 . S
C635 C654 1.368 . S
C635 H659 0.949 . S
H636 C640 0.949 . S
C637 C638 1.349 . S
C637 C639 1.327 . S
C637 H660 0.950 . S
C638 C637 1.349 . S
C638 C650 1.349 . S
C639 C637 1.327 . S
C639 C655 1.429 . S
C639 H661 0.950 . S
C640 H636 0.949 . S
C640 C648 1.574 . S
C640 C656 1.368 . S
H641 C649 0.950 . S
H642 C647 0.950 . S
H643 C648 0.949 . S
H644 C650 0.950 . S
H645 C651 0.950 . S
H646 C652 0.949 . S
C647 H642 0.950 . S
C647 C649 1.327 . S
C647 C653 1.429 . S
C648 C640 1.574 . S
C648 H643 0.949 . S
C648 C654 1.368 . S
C649 C633 1.349 . S
C649 H641 0.950 . S
C649 C647 1.327 . S
C650 C638 1.349 . S
C650 H644 0.950 . S
C650 C651 1.327 . S
C651 H645 0.950 . S
C651 C650 1.327 . S
C651 C655 1.429 . S
C652 C635 1.574 . S
C652 H646 0.949 . S
C652 C656 1.368 . S
C653 C634 1.429 . S
C653 C647 1.429 . S
C653 C654 1.523 . S
C654 C635 1.368 . S
C654 C648 1.368 . S
C654 C653 1.523 . S
C655 C639 1.429 . S
C655 C651 1.429 . S
C655 C656 1.523 . S
C656 C640 1.368 . S
C656 C652 1.368 . S
C656 C655 1.523 . S
H657 C632 0.950 . S
H658 C634 0.950 . S
H659 C635 0.949 . S
H660 C637 0.950 . S
H661 C639 0.950 . S
C662 C663 1.349 . S
C662 C664 1.327 . S
C662 H687 0.950 . S
C663 C662 1.349 . S
C663 C679 1.349 . S
C664 C662 1.327 . S
C664 C683 1.429 . S
C664 H688 0.950 . S
C665 C682 1.574 . S
C665 C684 1.368 . S
C665 H689 0.949 . S
H666 C670 0.949 . S
C667 C668 1.349 . S
C667 C669 1.327 . S
C667 H690 0.950 . S
C668 C667 1.349 . S
C668 C680 1.349 . S
C669 C667 1.327 . S
C669 C685 1.429 . S
C669 H691 0.950 . S
C670 H666 0.949 . S
C670 C678 1.574 . S
C670 C686 1.368 . S
H671 C679 0.950 . S
H672 C677 0.950 . S
H673 C678 0.949 . S
H674 C680 0.950 . S
H675 C681 0.950 . S
H676 C682 0.949 . S
C677 H672 0.950 . S
C677 C679 1.327 . S
C677 C683 1.429 . S
C678 C670 1.574 . S
C678 H673 0.949 . S
C678 C684 1.368 . S
C679 C663 1.349 . S
C679 H671 0.950 . S
C679 C677 1.327 . S
C680 C668 1.349 . S
C680 H674 0.950 . S
C680 C681 1.327 . S
C681 H675 0.950 . S
C681 C680 1.327 . S
C681 C685 1.429 . S
C682 C665 1.574 . S
C682 H676 0.949 . S
C682 C686 1.368 . S
C683 C664 1.429 . S
C683 C677 1.429 . S
C683 C684 1.523 . S
C684 C665 1.368 . S
C684 C678 1.368 . S
C684 C683 1.523 . S
C685 C669 1.429 . S
C685 C681 1.429 . S
C685 C686 1.523 . S
C686 C670 1.368 . S
C686 C682 1.368 . S
C686 C685 1.523 . S
H687 C662 0.950 . S
H688 C664 0.950 . S
H689 C665 0.949 . S
H690 C667 0.950 . S
H691 C669 0.950 . S
C692 C693 1.349 . S
C692 C694 1.327 . S
C692 H717 0.950 . S
C693 C692 1.349 . S
C693 C709 1.349 . S
C694 C692 1.327 . S
C694 C713 1.429 . S
C694 H718 0.950 . S
C695 C712 1.574 1_655 S
C695 C714 1.368 . S
C695 H719 0.949 . S
H696 C700 0.949 . S
C697 C698 1.349 . S
C697 C699 1.327 . S
C697 H720 0.950 . S
C698 C697 1.349 . S
C698 C710 1.349 . S
C699 C697 1.327 . S
C699 C715 1.429 . S
C699 H721 0.950 . S
C700 H696 0.949 . S
C700 C708 1.574 1_455 S
C700 C716 1.368 . S
H701 C709 0.950 . S
H702 C707 0.950 . S
H703 C708 0.949 . S
H704 C710 0.950 . S
H705 C711 0.950 . S
H706 C712 0.949 . S
C707 H702 0.950 . S
C707 C709 1.327 . S
C707 C713 1.429 . S
C708 C700 1.574 1_655 S
C708 H703 0.949 . S
C708 C714 1.368 . S
C709 C693 1.349 . S
C709 H701 0.950 . S
C709 C707 1.327 . S
C710 C698 1.349 . S
C710 H704 0.950 . S
C710 C711 1.327 . S
C711 H705 0.950 . S
C711 C710 1.327 . S
C711 C715 1.429 . S
C712 C695 1.574 1_455 S
C712 H706 0.949 . S
C712 C716 1.368 . S
C713 C694 1.429 . S
C713 C707 1.429 . S
C713 C714 1.523 . S
C714 C695 1.368 . S
C714 C708 1.368 . S
C714 C713 1.523 . S
C715 C699 1.429 . S
C715 C711 1.429 . S
C715 C716 1.523 . S
C716 C700 1.368 . S
C716 C712 1.368 . S
C716 C715 1.523 . S
H717 C692 0.950 . S
H718 C694 0.950 . S
H719 C695 0.949 . S
H720 C697 0.950 . S
H721 C699 0.950 . S
C722 C723 1.349 . S
C722 C724 1.327 . S
C722 H747 0.950 . S
C723 C722 1.349 . S
C723 C739 1.349 . S
C724 C722 1.327 . S
C724 C743 1.429 . S
C724 H748 0.950 1_455 S
C725 C742 1.574 . S
C725 C744 1.368 . S
C725 H749 0.949 . S
H726 C730 0.949 . S
C727 C728 1.349 . S
C727 C729 1.327 . S
C727 H750 0.950 . S
C728 C727 1.349 . S
C728 C740 1.349 . S
C729 C727 1.327 . S
C729 C745 1.429 . S
C729 H751 0.950 1_655 S
C730 H726 0.949 . S
C730 C738 1.574 . S
C730 C746 1.368 . S
H731 C739 0.950 . S
H732 C737 0.950 . S
H733 C738 0.949 . S
H734 C740 0.950 . S
H735 C741 0.950 . S
H736 C742 0.949 . S
C737 H732 0.950 . S
C737 C739 1.327 . S
C737 C743 1.429 . S
C738 C730 1.574 . S
C738 H733 0.949 . S
C738 C744 1.368 1_655 S
C739 C723 1.349 . S
C739 H731 0.950 . S
C739 C737 1.327 . S
C740 C728 1.349 . S
C740 H734 0.950 . S
C740 C741 1.327 . S
C741 H735 0.950 . S
C741 C740 1.327 . S
C741 C745 1.429 . S
C742 C725 1.574 . S
C742 H736 0.949 . S
C742 C746 1.368 1_455 S
C743 C724 1.429 . S
C743 C737 1.429 . S
C743 C744 1.523 . S
C744 C725 1.368 . S
C744 C738 1.368 1_455 S
C744 C743 1.523 . S
C745 C729 1.429 . S
C745 C741 1.429 . S
C745 C746 1.523 . S
C746 C730 1.368 . S
C746 C742 1.368 1_655 S
C746 C745 1.523 . S
H747 C722 0.950 . S
H748 C724 0.950 1_655 S
H749 C725 0.949 . S
H750 C727 0.950 . S
H751 C729 0.950 1_455 S
C752 C753 1.349 . S
C752 C754 1.327 . S
C752 H777 0.950 . S
C753 C752 1.349 . S
C753 C769 1.349 . S
C754 C752 1.327 . S
C754 C773 1.429 . S
C754 H778 0.950 . S
C755 C772 1.574 . S
C755 C774 1.368 . S
C755 H779 0.949 . S
H756 C760 0.949 . S
C757 C758 1.349 . S
C757 C759 1.327 . S
C757 H780 0.950 . S
C758 C757 1.349 . S
C758 C770 1.349 . S
C759 C757 1.327 . S
C759 C775 1.429 . S
C759 H781 0.950 . S
C760 H756 0.949 . S
C760 C768 1.574 . S
C760 C776 1.368 . S
H761 C769 0.950 . S
H762 C767 0.950 . S
H763 C768 0.949 . S
H764 C770 0.950 . S
H765 C771 0.950 . S
H766 C772 0.949 . S
C767 H762 0.950 . S
C767 C769 1.327 . S
C767 C773 1.429 . S
C768 C760 1.574 . S
C768 H763 0.949 . S
C768 C774 1.368 . S
C769 C753 1.349 . S
C769 H761 0.950 . S
C769 C767 1.327 . S
C770 C758 1.349 . S
C770 H764 0.950 . S
C770 C771 1.327 . S
C771 H765 0.950 . S
C771 C770 1.327 . S
C771 C775 1.429 . S
C772 C755 1.574 . S
C772 H766 0.949 . S
C772 C776 1.368 . S
C773 C754 1.429 . S
C773 C767 1.429 . S
C773 C774 1.523 . S
C774 C755 1.368 . S
C774 C768 1.368 . S
C774 C773 1.523 . S
C775 C759 1.429 . S
C775 C771 1.429 . S
C775 C776 1.523 . S
C776 C760 1.368 . S
C776 C772 1.368 . S
C776 C775 1.523 . S
H777 C752 0.950 . S
H778 C754 0.950 . S
H779 C755 0.949 . S
H780 C757 0.950 . S
H781 C759 0.950 . S
C782 C783 1.349 . S
C782 C784 1.327 . S
C782 H807 0.950 . S
C783 C782 1.349 . S
C783 C799 1.349 . S
C784 C782 1.327 . S
C784 C803 1.429 . S
C784 H808 0.950 1_455 S
C785 C802 1.574 . S
C785 C804 1.368 . S
C785 H809 0.949 . S
H786 C790 0.949 . S
C787 C788 1.349 . S
C787 C789 1.327 . S
C787 H810 0.950 . S
C788 C787 1.349 . S
C788 C800 1.349 . S
C789 C787 1.327 . S
C789 C805 1.429 . S
C789 H811 0.950 1_655 S
C790 H786 0.949 . S
C790 C798 1.574 . S
C790 C806 1.368 . S
H791 C799 0.950 . S
H792 C797 0.950 . S
H793 C798 0.949 . S
H794 C800 0.950 . S
H795 C801 0.950 . S
H796 C802 0.949 . S
C797 H792 0.950 . S
C797 C799 1.327 . S
C797 C803 1.429 . S
C798 C790 1.574 . S
C798 H793 0.949 . S
C798 C804 1.368 1_655 S
C799 C783 1.349 . S
C799 H791 0.950 . S
C799 C797 1.327 . S
C800 C788 1.349 . S
C800 H794 0.950 . S
C800 C801 1.327 . S
C801 H795 0.950 . S
C801 C800 1.327 . S
C801 C805 1.429 . S
C802 C785 1.574 . S
C802 H796 0.949 . S
C802 C806 1.368 1_455 S
C803 C784 1.429 . S
C803 C797 1.429 . S
C803 C804 1.523 . S
C804 C785 1.368 . S
C804 C798 1.368 1_455 S
C804 C803 1.523 . S
C805 C789 1.429 . S
C805 C801 1.429 . S
C805 C806 1.523 . S
C806 C790 1.368 . S
C806 C802 1.368 1_655 S
C806 C805 1.523 . S
H807 C782 0.950 . S
H808 C784 0.950 1_655 S
H809 C785 0.949 . S
H810 C787 0.950 . S
H811 C789 0.950 1_455 S
C812 C813 1.349 . S
C812 C814 1.327 . S
C812 H837 0.950 . S
C813 C812 1.349 . S
C813 C829 1.349 . S
C814 C812 1.327 . S
C814 C833 1.429 . S
C814 H838 0.950 . S
C815 C832 1.574 1_455 S
C815 C834 1.368 . S
C815 H839 0.949 . S
H816 C820 0.949 . S
C817 C818 1.349 . S
C817 C819 1.327 . S
C817 H840 0.950 . S
C818 C817 1.349 . S
C818 C830 1.349 . S
C819 C817 1.327 . S
C819 C835 1.429 . S
C819 H841 0.950 . S
C820 H816 0.949 . S
C820 C828 1.574 1_655 S
C820 C836 1.368 . S
H821 C829 0.950 . S
H822 C827 0.950 . S
H823 C828 0.949 . S
H824 C830 0.950 . S
H825 C831 0.950 . S
H826 C832 0.949 . S
C827 H822 0.950 . S
C827 C829 1.327 . S
C827 C833 1.429 . S
C828 C820 1.574 1_455 S
C828 H823 0.949 . S
C828 C834 1.368 . S
C829 C813 1.349 . S
C829 H821 0.950 . S
C829 C827 1.327 . S
C830 C818 1.349 . S
C830 H824 0.950 . S
C830 C831 1.327 . S
C831 H825 0.950 . S
C831 C830 1.327 . S
C831 C835 1.429 . S
C832 C815 1.574 1_655 S
C832 H826 0.949 . S
C832 C836 1.368 . S
C833 C814 1.429 . S
C833 C827 1.429 . S
C833 C834 1.523 . S
C834 C815 1.368 . S
C834 C828 1.368 . S
C834 C833 1.523 . S
C835 C819 1.429 . S
C835 C831 1.429 . S
C835 C836 1.523 . S
C836 C820 1.368 . S
C836 C832 1.368 . S
C836 C835 1.523 . S
H837 C812 0.950 . S
H838 C814 0.950 . S
H839 C815 0.949 . S
H840 C817 0.950 . S
H841 C819 0.950 . S
C842 C843 1.349 . S
C842 C844 1.327 . S
C842 H867 0.950 . S
C843 C842 1.349 . S
C843 C859 1.349 . S
C844 C842 1.327 . S
C844 C863 1.429 . S
C844 H868 0.950 . S
C845 C862 1.574 . S
C845 C864 1.368 . S
C845 H869 0.949 . S
H846 C850 0.949 . S
C847 C848 1.349 . S
C847 C849 1.327 . S
C847 H870 0.950 . S
C848 C847 1.349 . S
C848 C860 1.349 . S
C849 C847 1.327 . S
C849 C865 1.429 . S
C849 H871 0.950 . S
C850 H846 0.949 . S
C850 C858 1.574 . S
C850 C866 1.368 . S
H851 C859 0.950 . S
H852 C857 0.950 . S
H853 C858 0.949 . S
H854 C860 0.950 . S
H855 C861 0.950 . S
H856 C862 0.949 . S
C857 H852 0.950 . S
C857 C859 1.327 . S
C857 C863 1.429 . S
C858 C850 1.574 . S
C858 H853 0.949 . S
C858 C864 1.368 . S
C859 C843 1.349 . S
C859 H851 0.950 . S
C859 C857 1.327 . S
C860 C848 1.349 . S
C860 H854 0.950 . S
C860 C861 1.327 . S
C861 H855 0.950 . S
C861 C860 1.327 . S
C861 C865 1.429 . S
C862 C845 1.574 . S
C862 H856 0.949 . S
C862 C866 1.368 . S
C863 C844 1.429 . S
C863 C857 1.429 . S
C863 C864 1.523 . S
C864 C845 1.368 . S
C864 C858 1.368 . S
C864 C863 1.523 . S
C865 C849 1.429 . S
C865 C861 1.429 . S
C865 C866 1.523 . S
C866 C850 1.368 . S
C866 C862 1.368 . S
C866 C865 1.523 . S
H867 C842 0.950 . S
H868 C844 0.950 . S
H869 C845 0.949 . S
H870 C847 0.950 . S
H871 C849 0.950 . S
C872 C873 1.349 1_455 S
C872 C874 1.327 . S
C872 H897 0.950 . S
C873 C872 1.349 1_655 S
C873 C889 1.349 . S
C874 C872 1.327 . S
C874 C893 1.429 1_455 S
C874 H898 0.950 . S
C875 C892 1.574 . S
C875 C894 1.368 . S
C875 H899 0.949 . S
H876 C880 0.949 . S
C877 C878 1.349 1_655 S
C877 C879 1.327 . S
C877 H900 0.950 . S
C878 C877 1.349 1_455 S
C878 C890 1.349 . S
C879 C877 1.327 . S
C879 C895 1.429 1_655 S
C879 H901 0.950 . S
C880 H876 0.949 . S
C880 C888 1.574 . S
C880 C896 1.368 . S
H881 C889 0.950 . S
H882 C887 0.950 . S
H883 C888 0.949 . S
H884 C890 0.950 . S
H885 C891 0.950 . S
H886 C892 0.949 . S
C887 H882 0.950 . S
C887 C889 1.327 . S
C887 C893 1.429 . S
C888 C880 1.574 . S
C888 H883 0.949 . S
C888 C894 1.368 1_455 S
C889 C873 1.349 . S
C889 H881 0.950 . S
C889 C887 1.327 . S
C890 C878 1.349 . S
C890 H884 0.950 . S
C890 C891 1.327 . S
C891 H885 0.950 . S
C891 C890 1.327 . S
C891 C895 1.429 . S
C892 C875 1.574 . S
C892 H886 0.949 . S
C892 C896 1.368 1_655 S
C893 C874 1.429 1_655 S
C893 C887 1.429 . S
C893 C894 1.523 . S
C894 C875 1.368 . S
C894 C888 1.368 1_655 S
C894 C893 1.523 . S
C895 C879 1.429 1_455 S
C895 C891 1.429 . S
C895 C896 1.523 . S
C896 C880 1.368 . S
C896 C892 1.368 1_455 S
C896 C895 1.523 . S
H897 C872 0.950 . S
H898 C874 0.950 . S
H899 C875 0.949 . S
H900 C877 0.950 . S
H901 C879 0.950 . S
C902 C903 1.349 . S
C902 C904 1.327 . S
C902 H927 0.950 . S
C903 C902 1.349 . S
C903 C919 1.349 . S
C904 C902 1.327 . S
C904 C923 1.429 . S
C904 H928 0.950 . S
C905 C922 1.574 1_655 S
C905 C924 1.368 . S
C905 H929 0.949 . S
H906 C910 0.949 . S
C907 C908 1.349 . S
C907 C909 1.327 . S
C907 H930 0.950 . S
C908 C907 1.349 . S
C908 C920 1.349 . S
C909 C907 1.327 . S
C909 C925 1.429 . S
C909 H931 0.950 . S
C910 H906 0.949 . S
C910 C918 1.574 1_455 S
C910 C926 1.368 . S
H911 C919 0.950 . S
H912 C917 0.950 . S
H913 C918 0.949 . S
H914 C920 0.950 . S
H915 C921 0.950 . S
H916 C922 0.949 . S
C917 H912 0.950 . S
C917 C919 1.327 . S
C917 C923 1.429 . S
C918 C910 1.574 1_655 S
C918 H913 0.949 . S
C918 C924 1.368 . S
C919 C903 1.349 . S
C919 H911 0.950 . S
C919 C917 1.327 . S
C920 C908 1.349 . S
C920 H914 0.950 . S
C920 C921 1.327 . S
C921 H915 0.950 . S
C921 C920 1.327 . S
C921 C925 1.429 . S
C922 C905 1.574 1_455 S
C922 H916 0.949 . S
C922 C926 1.368 . S
C923 C904 1.429 . S
C923 C917 1.429 . S
C923 C924 1.523 . S
C924 C905 1.368 . S
C924 C918 1.368 . S
C924 C923 1.523 . S
C925 C909 1.429 . S
C925 C921 1.429 . S
C925 C926 1.523 . S
C926 C910 1.368 . S
C926 C922 1.368 . S
C926 C925 1.523 . S
H927 C902 0.950 . S
H928 C904 0.950 . S
H929 C905 0.949 . S
H930 C907 0.950 . S
H931 C909 0.950 . S
C932 C933 1.349 . S
C932 C934 1.327 . S
C932 H957 0.950 . S
C933 C932 1.349 . S
C933 C949 1.349 . S
C934 C932 1.327 . S
C934 C953 1.429 . S
C934 H958 0.950 . S
C935 C952 1.574 . S
C935 C954 1.368 . S
C935 H959 0.949 . S
H936 C940 0.949 . S
C937 C938 1.349 . S
C937 C939 1.327 . S
C937 H960 0.950 . S
C938 C937 1.349 . S
C938 C950 1.349 . S
C939 C937 1.327 . S
C939 C955 1.429 . S
C939 H961 0.950 . S
C940 H936 0.949 . S
C940 C948 1.574 . S
C940 C956 1.368 . S
H941 C949 0.950 . S
H942 C947 0.950 . S
H943 C948 0.949 . S
H944 C950 0.950 . S
H945 C951 0.950 . S
H946 C952 0.949 . S
C947 H942 0.950 . S
C947 C949 1.327 . S
C947 C953 1.429 . S
C948 C940 1.574 . S
C948 H943 0.949 . S
C948 C954 1.368 . S
C949 C933 1.349 . S
C949 H941 0.950 . S
C949 C947 1.327 . S
C950 C938 1.349 . S
C950 H944 0.950 . S
C950 C951 1.327 . S
C951 H945 0.950 . S
C951 C950 1.327 . S
C951 C955 1.429 . S
C952 C935 1.574 . S
C952 H946 0.949 . S
C952 C956 1.368 . S
C953 C934 1.429 . S
C953 C947 1.429 . S
C953 C954 1.523 . S
C954 C935 1.368 . S
C954 C948 1.368 . S
C954 C953 1.523 . S
C955 C939 1.429 . S
C955 C951 1.429 . S
C955 C956 1.523 . S
C956 C940 1.368 . S
C956 C952 1.368 . S
C956 C955 1.523 . S
H957 C932 0.950 . S
H958 C934 0.950 . S
H959 C935 0.949 . S
H960 C937 0.950 . S
H961 C939 0.950 . S
C962 C963 1.349 . S
C962 C964 1.327 . S
C962 H987 0.950 . S
C963 C962 1.349 . S
C963 C979 1.349 . S
C964 C962 1.327 . S
C964 C983 1.429 . S
C964 H988 0.950 . S
C965 C982 1.574 . S
C965 C984 1.368 . S
C965 H989 0.949 . S
H966 C970 0.949 . S
C967 C968 1.349 . S
C967 C969 1.327 . S
C967 H990 0.950 . S
C968 C967 1.349 . S
C968 C980 1.349 . S
C969 C967 1.327 . S
C969 C985 1.429 . S
C969 H991 0.950 . S
C970 H966 0.949 . S
C970 C978 1.574 . S
C970 C986 1.368 . S
H971 C979 0.950 . S
H972 C977 0.950 . S
H973 C978 0.949 . S
H974 C980 0.950 . S
H975 C981 0.950 . S
H976 C982 0.949 . S
C977 H972 0.950 . S
C977 C979 1.327 . S
C977 C983 1.429 . S
C978 C970 1.574 . S
C978 H973 0.949 . S
C978 C984 1.368 . S
C979 C963 1.349 . S
C979 H971 0.950 . S
C979 C977 1.327 . S
C980 C968 1.349 . S
C980 H974 0.950 . S
C980 C981 1.327 . S
C981 H975 0.950 . S
C981 C980 1.327 . S
C981 C985 1.429 . S
C982 C965 1.574 . S
C982 H976 0.949 . S
C982 C986 1.368 . S
C983 C964 1.429 . S
C983 C977 1.429 . S
C983 C984 1.523 . S
C984 C965 1.368 . S
C984 C978 1.368 . S
C984 C983 1.523 . S
C985 C969 1.429 . S
C985 C981 1.429 . S
C985 C986 1.523 . S
C986 C970 1.368 . S
C986 C982 1.368 . S
C986 C985 1.523 . S
H987 C962 0.950 . S
H988 C964 0.950 . S
H989 C965 0.949 . S
H990 C967 0.950 . S
H991 C969 0.950 . S
C992 C993 1.349 1_655 S
C992 C994 1.327 . S
C992 H1017 0.950 . S
C993 C992 1.349 1_455 S
C993 C1009 1.349 . S
C994 C992 1.327 . S
C994 C1013 1.429 1_655 S
C994 H1018 0.950 . S
C995 C1012 1.574 . S
C995 C1014 1.368 . S
C995 H1019 0.949 . S
H996 C1000 0.949 . S
C997 C998 1.349 1_455 S
C997 C999 1.327 . S
C997 H1020 0.950 . S
C998 C997 1.349 1_655 S
C998 C1010 1.349 . S
C999 C997 1.327 . S
C999 C1015 1.429 1_455 S
C999 H1021 0.950 . S
C1000 H996 0.949 . S
C1000 C1008 1.574 . S
C1000 C1016 1.368 . S
H1001 C1009 0.950 . S
H1002 C1007 0.950 . S
H1003 C1008 0.949 . S
H1004 C1010 0.950 . S
H1005 C1011 0.950 . S
H1006 C1012 0.949 . S
C1007 H1002 0.950 . S
C1007 C1009 1.327 . S
C1007 C1013 1.429 . S
C1008 C1000 1.574 . S
C1008 H1003 0.949 . S
C1008 C1014 1.368 1_655 S
C1009 C993 1.349 . S
C1009 H1001 0.950 . S
C1009 C1007 1.327 . S
C1010 C998 1.349 . S
C1010 H1004 0.950 . S
C1010 C1011 1.327 . S
C1011 H1005 0.950 . S
C1011 C1010 1.327 . S
C1011 C1015 1.429 . S
C1012 C995 1.574 . S
C1012 H1006 0.949 . S
C1012 C1016 1.368 1_455 S
C1013 C994 1.429 1_455 S
C1013 C1007 1.429 . S
C1013 C1014 1.523 . S
C1014 C995 1.368 . S
C1014 C1008 1.368 1_455 S
C1014 C1013 1.523 . S
C1015 C999 1.429 1_655 S
C1015 C1011 1.429 . S
C1015 C1016 1.523 . S
C1016 C1000 1.368 . S
C1016 C1012 1.368 1_655 S
C1016 C1015 1.523 . S
H1017 C992 0.950 . S
H1018 C994 0.950 . S
H1019 C995 0.949 . S
H1020 C997 0.950 . S
H1021 C999 0.950 . S
C1022 C1023 1.349 . S
C1022 C1024 1.327 . S
C1022 H1047 0.950 . S
C1023 C1022 1.349 . S
C1023 C1039 1.349 . S
C1024 C1022 1.327 . S
C1024 C1043 1.429 . S
C1024 H1048 0.950 . S
C1025 C1042 1.574 . S
C1025 C1044 1.368 . S
C1025 H1049 0.949 . S
H1026 C1030 0.949 . S
C1027 C1028 1.349 . S
C1027 C1029 1.327 . S
C1027 H1050 0.950 . S
C1028 C1027 1.349 . S
C1028 C1040 1.349 . S
C1029 C1027 1.327 . S
C1029 C1045 1.429 . S
C1029 H1051 0.950 . S
C1030 H1026 0.949 . S
C1030 C1038 1.574 . S
C1030 C1046 1.368 . S
H1031 C1039 0.950 . S
H1032 C1037 0.950 . S
H1033 C1038 0.949 . S
H1034 C1040 0.950 . S
H1035 C1041 0.950 . S
H1036 C1042 0.949 . S
C1037 H1032 0.950 . S
C1037 C1039 1.327 . S
C1037 C1043 1.429 . S
C1038 C1030 1.574 . S
C1038 H1033 0.949 . S
C1038 C1044 1.368 . S
C1039 C1023 1.349 . S
C1039 H1031 0.950 . S
C1039 C1037 1.327 . S
C1040 C1028 1.349 . S
C1040 H1034 0.950 . S
C1040 C1041 1.327 . S
C1041 H1035 0.950 . S
C1041 C1040 1.327 . S
C1041 C1045 1.429 . S
C1042 C1025 1.574 . S
C1042 H1036 0.949 . S
C1042 C1046 1.368 . S
C1043 C1024 1.429 . S
C1043 C1037 1.429 . S
C1043 C1044 1.523 . S
C1044 C1025 1.368 . S
C1044 C1038 1.368 . S
C1044 C1043 1.523 . S
C1045 C1029 1.429 . S
C1045 C1041 1.429 . S
C1045 C1046 1.523 . S
C1046 C1030 1.368 . S
C1046 C1042 1.368 . S
C1046 C1045 1.523 . S
H1047 C1022 0.950 . S
H1048 C1024 0.950 . S
H1049 C1025 0.949 . S
H1050 C1027 0.950 . S
H1051 C1029 0.950 . S
C1052 C1053 1.349 . S
C1052 C1054 1.327 . S
C1052 H1077 0.950 . S
C1053 C1052 1.349 . S
C1053 C1069 1.349 . S
C1054 C1052 1.327 . S
C1054 C1073 1.429 . S
C1054 H1078 0.950 . S
C1055 C1072 1.574 . S
C1055 C1074 1.368 . S
C1055 H1079 0.949 . S
H1056 C1060 0.949 . S
C1057 C1058 1.349 . S
C1057 C1059 1.327 . S
C1057 H1080 0.950 . S
C1058 C1057 1.349 . S
C1058 C1070 1.349 . S
C1059 C1057 1.327 . S
C1059 C1075 1.429 . S
C1059 H1081 0.950 . S
C1060 H1056 0.949 . S
C1060 C1068 1.574 . S
C1060 C1076 1.368 . S
H1061 C1069 0.950 . S
H1062 C1067 0.950 . S
H1063 C1068 0.949 . S
H1064 C1070 0.950 . S
H1065 C1071 0.950 . S
H1066 C1072 0.949 . S
C1067 H1062 0.950 . S
C1067 C1069 1.327 . S
C1067 C1073 1.429 . S
C1068 C1060 1.574 . S
C1068 H1063 0.949 . S
C1068 C1074 1.368 . S
C1069 C1053 1.349 . S
C1069 H1061 0.950 . S
C1069 C1067 1.327 . S
C1070 C1058 1.349 . S
C1070 H1064 0.950 . S
C1070 C1071 1.327 . S
C1071 H1065 0.950 . S
C1071 C1070 1.327 . S
C1071 C1075 1.429 . S
C1072 C1055 1.574 . S
C1072 H1066 0.949 . S
C1072 C1076 1.368 . S
C1073 C1054 1.429 . S
C1073 C1067 1.429 . S
C1073 C1074 1.523 . S
C1074 C1055 1.368 . S
C1074 C1068 1.368 . S
C1074 C1073 1.523 . S
C1075 C1059 1.429 . S
C1075 C1071 1.429 . S
C1075 C1076 1.523 . S
C1076 C1060 1.368 . S
C1076 C1072 1.368 . S
C1076 C1075 1.523 . S
H1077 C1052 0.950 . S
H1078 C1054 0.950 . S
H1079 C1055 0.949 . S
H1080 C1057 0.950 . S
H1081 C1059 0.950 . S
C1082 C1083 1.349 . S
C1082 C1084 1.327 . S
C1082 H1107 0.950 . S
C1083 C1082 1.349 . S
C1083 C1099 1.349 . S
C1084 C1082 1.327 . S
C1084 C1103 1.429 . S
C1084 H1108 0.950 . S
C1085 C1102 1.574 1_655 S
C1085 C1104 1.368 . S
C1085 H1109 0.949 . S
H1086 C1090 0.949 . S
C1087 C1088 1.349 . S
C1087 C1089 1.327 . S
C1087 H1110 0.950 . S
C1088 C1087 1.349 . S
C1088 C1100 1.349 . S
C1089 C1087 1.327 . S
C1089 C1105 1.429 . S
C1089 H1111 0.950 . S
C1090 H1086 0.949 . S
C1090 C1098 1.574 1_455 S
C1090 C1106 1.368 . S
H1091 C1099 0.950 . S
H1092 C1097 0.950 . S
H1093 C1098 0.949 . S
H1094 C1100 0.950 . S
H1095 C1101 0.950 . S
H1096 C1102 0.949 . S
C1097 H1092 0.950 . S
C1097 C1099 1.327 . S
C1097 C1103 1.429 . S
C1098 C1090 1.574 1_655 S
C1098 H1093 0.949 . S
C1098 C1104 1.368 . S
C1099 C1083 1.349 . S
C1099 H1091 0.950 . S
C1099 C1097 1.327 . S
C1100 C1088 1.349 . S
C1100 H1094 0.950 . S
C1100 C1101 1.327 . S
C1101 H1095 0.950 . S
C1101 C1100 1.327 . S
C1101 C1105 1.429 . S
C1102 C1085 1.574 1_455 S
C1102 H1096 0.949 . S
C1102 C1106 1.368 . S
C1103 C1084 1.429 . S
C1103 C1097 1.429 . S
C1103 C1104 1.523 . S
C1104 C1085 1.368 . S
C1104 C1098 1.368 . S
C1104 C1103 1.523 . S
C1105 C1089 1.429 . S
C1105 C1101 1.429 . S
C1105 C1106 1.523 . S
C1106 C1090 1.368 . S
C1106 C1102 1.368 . S
C1106 C1105 1.523 . S
H1107 C1082 0.950 . S
H1108 C1084 0.950 . S
H1109 C1085 0.949 . S
H1110 C1087 0.950 . S
H1111 C1089 0.950 . S
C273 C187 1.545 . S
C278 C17 1.545 . S
C303 C51 1.545 . S
C308 C221 1.545 . S
C333 C85 1.545 . S
C338 C255 1.545 . S
C363 C153 1.545 . S
C368 C119 1.545 . S
C393 C139 1.836 . S
C398 C1 1.836 . S
C423 C35 1.836 . S
C428 C173 1.838 . S
C453 C71 1.836 . S
C458 C205 1.836 . S
C483 C105 1.836 . S
C488 C239 1.838 . S
C513 C103 1.836 . S
C518 C241 1.834 . S
C543 C37 1.836 . S
C548 C171 1.834 . S
C573 C69 1.836 . S
C578 C207 1.836 . S
C603 C3 1.836 . S
C608 C137 1.836 . S
C633 C15 1.066 . S
C638 C22 1.066 . S
C663 C49 1.066 1_545 S
C668 C56 1.066 . S
C693 C83 1.066 . S
C698 C90 1.066 . S
C723 C124 1.066 1_565 S
C728 C117 1.066 . S
C753 C158 1.066 . S
C758 C151 1.066 . S
C783 C192 1.066 1_545 S
C788 C185 1.066 . S
C813 C219 1.066 . S
C818 C226 1.066 . S
C843 C260 1.066 . S
C848 C253 1.066 1_565 S
C873 C6 1.884 . S
C878 C28 1.884 1_545 S
C903 C40 1.884 . S
C908 C62 1.884 . S
C933 C96 1.884 . S
C938 C74 1.884 1_565 S
C963 C130 1.884 . S
C968 C108 1.884 . S
C993 C142 1.884 1_565 S
C998 C164 1.884 . S
C1023 C176 1.884 . S
C1028 C198 1.884 . S
C1053 C210 1.884 . S
C1058 C232 1.884 1_545 S
C1083 C244 1.884 . S
C1088 C266 1.884 . S
