# Generated by pormake.
# Topology unw, (4)-cn, num edge types: 1
# Building blocks:
#     Node 0, Type 0, BuildingBlock: GALJAG_clean_sbu_0, # of connection points: 4
#     Node 1, Type 0, BuildingBlock: GALJAG_clean_sbu_0, # of connection points: 4
#     Node 2, Type 0, BuildingBlock: GALJAG_clean_sbu_0, # of connection points: 4
#     Node 3, Type 0, BuildingBlock: GALJAG_clean_sbu_0, # of connection points: 4
#     Node 4, Type 0, BuildingBlock: GALJAG_clean_sbu_0, # of connection points: 4
#     Node 5, Type 0, BuildingBlock: GALJAG_clean_sbu_0, # of connection points: 4
#     Node 6, Type 0, BuildingBlock: GALJAG_clean_sbu_0, # of connection points: 4
#     Node 7, Type 0, BuildingBlock: GALJAG_clean_sbu_0, # of connection points: 4
#     Node 8, Type 0, BuildingBlock: GALJAG_clean_sbu_0, # of connection points: 4
#     Node 9, Type 0, BuildingBlock: GALJAG_clean_sbu_0, # of connection points: 4
#     Node 10, Type 0, BuildingBlock: GALJAG_clean_sbu_0, # of connection points: 4
#     Node 11, Type 0, BuildingBlock: GALJAG_clean_sbu_0, # of connection points: 4
#     Node 12, Type 0, BuildingBlock: GALJAG_clean_sbu_0, # of connection points: 4
#     Node 13, Type 0, BuildingBlock: GALJAG_clean_sbu_0, # of connection points: 4
#     Node 14, Type 0, BuildingBlock: GALJAG_clean_sbu_0, # of connection points: 4
#     Node 15, Type 0, BuildingBlock: GALJAG_clean_sbu_0, # of connection points: 4
#     Node 16, Type 0, BuildingBlock: GALJAG_clean_sbu_0, # of connection points: 4
#     Node 17, Type 0, BuildingBlock: GALJAG_clean_sbu_0, # of connection points: 4
#     Node 18, Type 0, BuildingBlock: GALJAG_clean_sbu_0, # of connection points: 4
#     Node 19, Type 0, BuildingBlock: GALJAG_clean_sbu_0, # of connection points: 4
#     Node 20, Type 0, BuildingBlock: GALJAG_clean_sbu_0, # of connection points: 4
#     Node 21, Type 0, BuildingBlock: GALJAG_clean_sbu_0, # of connection points: 4
#     Node 22, Type 0, BuildingBlock: GALJAG_clean_sbu_0, # of connection points: 4
#     Node 23, Type 0, BuildingBlock: GALJAG_clean_sbu_0, # of connection points: 4
#     Edge 24, Type (0, 0), BuildingBlock: UVAHIK_clean_linker_0, # of connection points: 2
#     Edge 25, Type (0, 0), BuildingBlock: UVAHIK_clean_linker_0, # of connection points: 2
#     Edge 26, Type (0, 0), BuildingBlock: UVAHIK_clean_linker_0, # of connection points: 2
#     Edge 27, Type (0, 0), BuildingBlock: UVAHIK_clean_linker_0, # of connection points: 2
#     Edge 28, Type (0, 0), BuildingBlock: UVAHIK_clean_linker_0, # of connection points: 2
#     Edge 29, Type (0, 0), BuildingBlock: UVAHIK_clean_linker_0, # of connection points: 2
#     Edge 30, Type (0, 0), BuildingBlock: UVAHIK_clean_linker_0, # of connection points: 2
#     Edge 31, Type (0, 0), BuildingBlock: UVAHIK_clean_linker_0, # of connection points: 2
#     Edge 32, Type (0, 0), BuildingBlock: UVAHIK_clean_linker_0, # of connection points: 2
#     Edge 33, Type (0, 0), BuildingBlock: UVAHIK_clean_linker_0, # of connection points: 2
#     Edge 34, Type (0, 0), BuildingBlock: UVAHIK_clean_linker_0, # of connection points: 2
#     Edge 35, Type (0, 0), BuildingBlock: UVAHIK_clean_linker_0, # of connection points: 2
#     Edge 36, Type (0, 0), BuildingBlock: UVAHIK_clean_linker_0, # of connection points: 2
#     Edge 37, Type (0, 0), BuildingBlock: UVAHIK_clean_linker_0, # of connection points: 2
#     Edge 38, Type (0, 0), BuildingBlock: UVAHIK_clean_linker_0, # of connection points: 2
#     Edge 39, Type (0, 0), BuildingBlock: UVAHIK_clean_linker_0, # of connection points: 2
#     Edge 40, Type (0, 0), BuildingBlock: UVAHIK_clean_linker_0, # of connection points: 2
#     Edge 41, Type (0, 0), BuildingBlock: UVAHIK_clean_linker_0, # of connection points: 2
#     Edge 42, Type (0, 0), BuildingBlock: UVAHIK_clean_linker_0, # of connection points: 2
#     Edge 43, Type (0, 0), BuildingBlock: UVAHIK_clean_linker_0, # of connection points: 2
#     Edge 44, Type (0, 0), BuildingBlock: UVAHIK_clean_linker_0, # of connection points: 2
#     Edge 45, Type (0, 0), BuildingBlock: UVAHIK_clean_linker_0, # of connection points: 2
#     Edge 46, Type (0, 0), BuildingBlock: UVAHIK_clean_linker_0, # of connection points: 2
#     Edge 47, Type (0, 0), BuildingBlock: UVAHIK_clean_linker_0, # of connection points: 2
#     Edge 48, Type (0, 0), BuildingBlock: UVAHIK_clean_linker_0, # of connection points: 2
#     Edge 49, Type (0, 0), BuildingBlock: UVAHIK_clean_linker_0, # of connection points: 2
#     Edge 50, Type (0, 0), BuildingBlock: UVAHIK_clean_linker_0, # of connection points: 2
#     Edge 51, Type (0, 0), BuildingBlock: UVAHIK_clean_linker_0, # of connection points: 2
#     Edge 52, Type (0, 0), BuildingBlock: UVAHIK_clean_linker_0, # of connection points: 2
#     Edge 53, Type (0, 0), BuildingBlock: UVAHIK_clean_linker_0, # of connection points: 2
#     Edge 54, Type (0, 0), BuildingBlock: UVAHIK_clean_linker_0, # of connection points: 2
#     Edge 55, Type (0, 0), BuildingBlock: UVAHIK_clean_linker_0, # of connection points: 2
#     Edge 56, Type (0, 0), BuildingBlock: UVAHIK_clean_linker_0, # of connection points: 2
#     Edge 57, Type (0, 0), BuildingBlock: UVAHIK_clean_linker_0, # of connection points: 2
#     Edge 58, Type (0, 0), BuildingBlock: UVAHIK_clean_linker_0, # of connection points: 2
#     Edge 59, Type (0, 0), BuildingBlock: UVAHIK_clean_linker_0, # of connection points: 2
#     Edge 60, Type (0, 0), BuildingBlock: UVAHIK_clean_linker_0, # of connection points: 2
#     Edge 61, Type (0, 0), BuildingBlock: UVAHIK_clean_linker_0, # of connection points: 2
#     Edge 62, Type (0, 0), BuildingBlock: UVAHIK_clean_linker_0, # of connection points: 2
#     Edge 63, Type (0, 0), BuildingBlock: UVAHIK_clean_linker_0, # of connection points: 2
#     Edge 64, Type (0, 0), BuildingBlock: UVAHIK_clean_linker_0, # of connection points: 2
#     Edge 65, Type (0, 0), BuildingBlock: UVAHIK_clean_linker_0, # of connection points: 2
#     Edge 66, Type (0, 0), BuildingBlock: UVAHIK_clean_linker_0, # of connection points: 2
#     Edge 67, Type (0, 0), BuildingBlock: UVAHIK_clean_linker_0, # of connection points: 2
#     Edge 68, Type (0, 0), BuildingBlock: UVAHIK_clean_linker_0, # of connection points: 2
#     Edge 69, Type (0, 0), BuildingBlock: UVAHIK_clean_linker_0, # of connection points: 2
#     Edge 70, Type (0, 0), BuildingBlock: UVAHIK_clean_linker_0, # of connection points: 2
#     Edge 71, Type (0, 0), BuildingBlock: UVAHIK_clean_linker_0, # of connection points: 2
# Relax obj value: 0.374
# Max RMSD: 0.256
# Mean RMSD: 0.255
data_MOF--net-unw--node1-GALJAG_clean_sbu_0--edge1-UVAHIK_clean_linker_0
_symmetry_space_group_name_H-M    P1
_symmetry_Int_Tables_number       1
_symmetry_cell_setting            triclinic
loop_
_symmetry_equiv_pos_as_xyz
'x, y, z'
_cell_length_a     61.181329
_cell_length_b     61.182006
_cell_length_c     61.177288
_cell_angle_alpha  89.976312
_cell_angle_beta   89.968103
_cell_angle_gamma 90.095826
loop_
_atom_site_label
_atom_site_type_symbol
_atom_site_fract_x
_atom_site_fract_y
_atom_site_fract_z
_atom_type_partial_charge
In0 In 0.12916 0.36786 0.25076 0.0
O1 O 0.09682 0.35513 0.23745 0.0
O2 O 0.09669 0.37421 0.26672 0.0
C3 C 0.16098 0.35863 0.22237 0.0
C4 C 0.1353 0.33541 0.27944 0.0
C5 C 0.13726 0.41054 0.24647 0.0
O6 O 0.14101 0.35738 0.21685 0.0
O7 O 0.1644 0.36379 0.24206 0.0
O8 O 0.14429 0.39975 0.26273 0.0
O9 O 0.12458 0.40014 0.23388 0.0
C10 C 0.08595 0.3625 0.25349 0.0
O11 O 0.1362 0.35524 0.28555 0.0
O12 O 0.1324 0.3326 0.25922 0.0
In13 In 0.62746 0.11523 0.24025 0.0
O14 O 0.64036 0.12497 0.20632 0.0
O15 O 0.62729 0.14952 0.22752 0.0
C16 C 0.63234 0.07231 0.24654 0.0
C17 C 0.58442 0.12155 0.23739 0.0
C18 C 0.66006 0.12531 0.26763 0.0
O19 O 0.63823 0.08143 0.22887 0.0
O20 O 0.62243 0.0846 0.25987 0.0
O21 O 0.6403 0.12854 0.27297 0.0
O22 O 0.66293 0.11786 0.24864 0.0
C23 C 0.63554 0.14491 0.20922 0.0
O24 O 0.59554 0.12902 0.2532 0.0
O25 O 0.59482 0.1094 0.22427 0.0
In26 In 0.87196 0.63467 0.24283 0.0
O27 O 0.86686 0.64117 0.27939 0.0
O28 O 0.87091 0.66814 0.25752 0.0
C29 C 0.86491 0.59182 0.23742 0.0
C30 C 0.91476 0.64306 0.23937 0.0
C31 C 0.83649 0.64567 0.21953 0.0
O32 O 0.85997 0.60151 0.25503 0.0
O33 O 0.875 0.60341 0.22361 0.0
O34 O 0.8552 0.64467 0.21068 0.0
O35 O 0.83621 0.642 0.23979 0.0
C36 C 0.86816 0.66172 0.27694 0.0
O37 O 0.90089 0.65176 0.22671 0.0
O38 O 0.90708 0.62884 0.25228 0.0
In39 In 0.36667 0.87766 0.24265 0.0
O40 O 0.34337 0.90522 0.23348 0.0
O41 O 0.37122 0.91312 0.25263 0.0
C42 C 0.34864 0.8546 0.20972 0.0
C43 C 0.35077 0.86152 0.28049 0.0
C44 C 0.40935 0.86847 0.23762 0.0
O45 O 0.33864 0.85886 0.22723 0.0
O46 O 0.36707 0.86367 0.208 0.0
O47 O 0.39775 0.85961 0.25222 0.0
O48 O 0.3998 0.88321 0.22681 0.0
C49 C 0.3535 0.91958 0.24431 0.0
O50 O 0.35708 0.88106 0.2786 0.0
O51 O 0.35395 0.84986 0.26381 0.0
In52 In 0.12517 0.62121 0.74457 0.0
O53 O 0.12728 0.63793 0.71118 0.0
O54 O 0.15431 0.64086 0.73263 0.0
C55 C 0.1382 0.57928 0.74324 0.0
C56 C 0.08259 0.63008 0.7378 0.0
C57 C 0.1402 0.63484 0.78372 0.0
O58 O 0.14789 0.5942 0.73275 0.0
O59 O 0.12104 0.58532 0.75297 0.0
O60 O 0.13573 0.64774 0.76829 0.0
O61 O 0.1352 0.61518 0.78009 0.0
C62 C 0.14565 0.64654 0.71484 0.0
O63 O 0.09331 0.63839 0.75334 0.0
O64 O 0.09291 0.61599 0.72686 0.0
In65 In 0.37811 0.1214 0.75116 0.0
O66 O 0.36462 0.13693 0.71974 0.0
O67 O 0.34246 0.12391 0.74336 0.0
C68 C 0.42094 0.12933 0.75357 0.0
C69 C 0.37358 0.07881 0.74271 0.0
C70 C 0.36978 0.14828 0.78455 0.0
O71 O 0.40929 0.13689 0.73821 0.0
O72 O 0.41127 0.1161 0.76622 0.0
O73 O 0.36552 0.12805 0.78592 0.0
O74 O 0.37758 0.15458 0.76656 0.0
C75 C 0.34498 0.13294 0.72503 0.0
O76 O 0.3682 0.08693 0.76098 0.0
O77 O 0.38303 0.09187 0.72975 0.0
In78 In 0.87419 0.37169 0.74592 0.0
O79 O 0.8534 0.40139 0.7376 0.0
O80 O 0.8807 0.40601 0.75855 0.0
C81 C 0.85613 0.35327 0.71024 0.0
C82 C 0.8555 0.35461 0.78197 0.0
C83 C 0.9161 0.3592 0.74157 0.0
O84 O 0.84563 0.35641 0.72769 0.0
O85 O 0.87527 0.36093 0.71023 0.0
O86 O 0.90302 0.34976 0.75445 0.0
O87 O 0.9085 0.37606 0.73245 0.0
C88 C 0.86397 0.41427 0.74978 0.0
O89 O 0.86378 0.37349 0.78171 0.0
O90 O 0.85805 0.34389 0.76456 0.0
In91 In 0.62517 0.86128 0.74162 0.0
O92 O 0.63928 0.85183 0.7079 0.0
O93 O 0.66035 0.85351 0.73556 0.0
C94 C 0.58202 0.85429 0.74335 0.0
C95 C 0.63138 0.9043 0.73646 0.0
C96 C 0.63148 0.83334 0.77453 0.0
O97 O 0.59395 0.84529 0.72899 0.0
O98 O 0.59167 0.86817 0.75526 0.0
O99 O 0.63648 0.85338 0.77643 0.0
O100 O 0.62393 0.82769 0.7562 0.0
C101 C 0.65861 0.85055 0.71527 0.0
O102 O 0.63707 0.89447 0.75378 0.0
O103 O 0.62114 0.89268 0.72279 0.0
In104 In 0.23445 0.12624 0.36634 0.0
O105 O 0.24554 0.1566 0.38474 0.0
O106 O 0.2365 0.1285 0.40326 0.0
C107 C 0.25985 0.13801 0.3325 0.0
C108 C 0.1937 0.14234 0.36189 0.0
C109 C 0.24221 0.08293 0.36436 0.0
O110 O 0.26643 0.13945 0.35204 0.0
O111 O 0.24048 0.13132 0.33032 0.0
O112 O 0.2243 0.09114 0.35833 0.0
O113 O 0.25521 0.09631 0.37309 0.0
C114 C 0.24226 0.14836 0.40341 0.0
O115 O 0.20755 0.14233 0.34666 0.0
O116 O 0.1998 0.13279 0.3791 0.0
In117 In 0.87635 0.24584 0.37587 0.0
O118 O 0.86671 0.2802 0.36395 0.0
O119 O 0.8687 0.2539 0.34111 0.0
C120 C 0.87005 0.24217 0.41894 0.0
C121 C 0.9191 0.25035 0.36802 0.0
C122 C 0.84614 0.21527 0.36797 0.0
O123 O 0.8621 0.25788 0.40804 0.0
O124 O 0.88276 0.22977 0.40837 0.0
O125 O 0.8663 0.21146 0.36489 0.0
O126 O 0.84168 0.23427 0.37464 0.0
C127 C 0.86516 0.27394 0.34424 0.0
O128 O 0.90855 0.23369 0.36168 0.0
O129 O 0.9084 0.26354 0.37975 0.0
In130 In 0.73532 0.86234 0.38065 0.0
O131 O 0.77022 0.8535 0.37003 0.0
O132 O 0.75079 0.82956 0.38638 0.0
C133 C 0.73681 0.90246 0.36278 0.0
C134 C 0.73565 0.86171 0.42449 0.0
C135 C 0.70274 0.84604 0.35582 0.0
O136 O 0.74756 0.88662 0.35506 0.0
O137 O 0.72666 0.89831 0.38027 0.0
O138 O 0.69935 0.86096 0.36962 0.0
O139 O 0.722 0.83893 0.35542 0.0
C140 C 0.76889 0.83431 0.37774 0.0
O141 O 0.72049 0.85293 0.41351 0.0
O142 O 0.74924 0.87254 0.41332 0.0
In143 In 0.1233 0.75188 0.36773 0.0
O144 O 0.13344 0.71741 0.35693 0.0
O145 O 0.13147 0.74298 0.33323 0.0
C146 C 0.1239 0.75514 0.41121 0.0
C147 C 0.08128 0.74932 0.35616 0.0
C148 C 0.15703 0.77946 0.36428 0.0
O149 O 0.1314 0.73851 0.40138 0.0
O150 O 0.11445 0.76898 0.3991 0.0
O151 O 0.13813 0.78493 0.35772 0.0
O152 O 0.1586 0.76033 0.3718 0.0
C153 C 0.13498 0.72303 0.33702 0.0
O154 O 0.09297 0.76565 0.35096 0.0
O155 O 0.09039 0.73567 0.36871 0.0
In156 In 0.24518 0.87657 0.62221 0.0
O157 O 0.23584 0.90581 0.64316 0.0
O158 O 0.25632 0.91138 0.61563 0.0
C159 C 0.21412 0.85505 0.64502 0.0
C160 C 0.28374 0.86146 0.63726 0.0
C161 C 0.23699 0.86565 0.58034 0.0
O162 O 0.2328 0.85919 0.65261 0.0
O163 O 0.2105 0.86314 0.62643 0.0
O164 O 0.25225 0.85709 0.59123 0.0
O165 O 0.22712 0.88092 0.59001 0.0
C166 C 0.2474 0.91921 0.63252 0.0
O167 O 0.26797 0.84903 0.63251 0.0
O168 O 0.28064 0.88131 0.63272 0.0
In169 In 0.12217 0.25125 0.6182 0.0
O170 O 0.13503 0.21831 0.63062 0.0
O171 O 0.15752 0.24437 0.62476 0.0
C172 C 0.07859 0.25098 0.62061 0.0
C173 C 0.13215 0.24862 0.57573 0.0
C174 C 0.12571 0.28072 0.65032 0.0
O175 O 0.09002 0.23537 0.62796 0.0
O176 O 0.08917 0.26554 0.6104 0.0
O177 O 0.13145 0.28534 0.63093 0.0
O178 O 0.11873 0.26154 0.65314 0.0
C179 C 0.15472 0.22479 0.63054 0.0
O180 O 0.13567 0.26588 0.58664 0.0
O181 O 0.12211 0.23369 0.58593 0.0
In182 In 0.74777 0.12175 0.62487 0.0
O183 O 0.71428 0.13516 0.63499 0.0
O184 O 0.7363 0.12345 0.65955 0.0
C185 C 0.75439 0.12527 0.58196 0.0
C186 C 0.74309 0.07896 0.63165 0.0
C187 C 0.77504 0.15505 0.63212 0.0
O188 O 0.73669 0.1315 0.59081 0.0
O189 O 0.76756 0.11547 0.59455 0.0
O190 O 0.78036 0.13575 0.63758 0.0
O191 O 0.75615 0.15714 0.62418 0.0
C192 C 0.71784 0.13142 0.65507 0.0
O193 O 0.7594 0.08944 0.6391 0.0
O194 O 0.73047 0.08983 0.61939 0.0
In195 In 0.87432 0.76009 0.62765 0.0
O196 O 0.84398 0.74956 0.60888 0.0
O197 O 0.87121 0.76174 0.59083 0.0
C198 C 0.86198 0.73413 0.66079 0.0
C199 C 0.85849 0.80058 0.63509 0.0
C200 C 0.91728 0.75037 0.62812 0.0
O201 O 0.85955 0.72836 0.64107 0.0
O202 O 0.8701 0.75288 0.66344 0.0
O203 O 0.91003 0.76834 0.63514 0.0
O204 O 0.90314 0.73836 0.61921 0.0
C205 C 0.85159 0.75521 0.59051 0.0
O206 O 0.85922 0.78589 0.64948 0.0
O207 O 0.86746 0.79552 0.61724 0.0
In208 In 0.38025 0.24506 0.11398 0.0
O209 O 0.36895 0.2343 0.08034 0.0
O210 O 0.38694 0.26416 0.08326 0.0
C211 C 0.36853 0.21553 0.14396 0.0
C212 C 0.34935 0.27459 0.12296 0.0
C213 C 0.42271 0.23846 0.12122 0.0
O214 O 0.36504 0.21214 0.12381 0.0
O215 O 0.37736 0.23359 0.14852 0.0
O216 O 0.41304 0.2555 0.12797 0.0
O217 O 0.41132 0.22605 0.10919 0.0
C218 C 0.37593 0.25152 0.07112 0.0
O219 O 0.36922 0.27832 0.1276 0.0
O220 O 0.34552 0.25617 0.11456 0.0
In221 In 0.36486 0.74688 0.86789 0.0
O222 O 0.35365 0.77959 0.85303 0.0
O223 O 0.35503 0.75108 0.83298 0.0
C224 C 0.36123 0.74635 0.91143 0.0
C225 C 0.40721 0.75276 0.85853 0.0
C226 C 0.33526 0.71487 0.865 0.0
O227 O 0.35197 0.76088 0.8999 0.0
O228 O 0.37378 0.73363 0.90103 0.0
O229 O 0.35499 0.7117 0.85934 0.0
O230 O 0.33087 0.73394 0.87152 0.0
C231 C 0.3513 0.7713 0.83417 0.0
O232 O 0.39746 0.73501 0.85406 0.0
O233 O 0.39596 0.76651 0.86905 0.0
In234 In 0.25062 0.37201 0.871 0.0
O235 O 0.23825 0.36028 0.90397 0.0
O236 O 0.26709 0.38003 0.90292 0.0
C237 C 0.22168 0.36045 0.84025 0.0
C238 C 0.28088 0.34117 0.86486 0.0
C239 C 0.24641 0.41458 0.86231 0.0
O240 O 0.21649 0.36043 0.86032 0.0
O241 O 0.24129 0.36537 0.83627 0.0
O242 O 0.26329 0.404 0.85669 0.0
O243 O 0.23289 0.40403 0.87386 0.0
C244 C 0.25428 0.36841 0.9143 0.0
O245 O 0.28416 0.36068 0.85864 0.0
O246 O 0.2625 0.33748 0.87342 0.0
In247 In 0.62249 0.25428 0.8751 0.0
O248 O 0.5915 0.26719 0.85925 0.0
O249 O 0.58943 0.23912 0.88009 0.0
C250 C 0.65713 0.27965 0.86698 0.0
C251 C 0.63132 0.22212 0.84699 0.0
C252 C 0.6249 0.26243 0.91781 0.0
O253 O 0.63816 0.28549 0.86097 0.0
O254 O 0.65824 0.26119 0.87604 0.0
O255 O 0.63072 0.2442 0.90985 0.0
O256 O 0.61612 0.2755 0.90441 0.0
C257 C 0.5798 0.25185 0.86693 0.0
O258 O 0.6345 0.21961 0.86732 0.0
O259 O 0.62433 0.2406 0.84123 0.0
In260 In 0.75025 0.61855 0.88159 0.0
O261 O 0.76342 0.63227 0.91344 0.0
O262 O 0.73376 0.6138 0.91417 0.0
C263 C 0.77804 0.63026 0.84982 0.0
C264 C 0.71794 0.6465 0.87219 0.0
C265 C 0.7572 0.57573 0.87659 0.0
O266 O 0.78207 0.63464 0.86965 0.0
O267 O 0.76018 0.6206 0.84641 0.0
O268 O 0.73938 0.58462 0.87097 0.0
O269 O 0.77043 0.58815 0.88649 0.0
C270 C 0.74715 0.62574 0.92449 0.0
O271 O 0.71631 0.62639 0.86753 0.0
O272 O 0.73565 0.65217 0.88102 0.0
In273 In 0.62243 0.75091 0.12176 0.0
O274 O 0.64737 0.7625 0.09657 0.0
O275 O 0.6198 0.74455 0.08538 0.0
C276 C 0.63902 0.78217 0.14809 0.0
C277 C 0.63812 0.71161 0.13411 0.0
C278 C 0.57914 0.7546 0.12865 0.0
O279 O 0.62185 0.78505 0.13709 0.0
O280 O 0.64853 0.76428 0.14447 0.0
O281 O 0.59057 0.74019 0.13794 0.0
O282 O 0.5893 0.766 0.11477 0.0
C283 C 0.63789 0.75334 0.08069 0.0
O284 O 0.63303 0.72631 0.14763 0.0
O285 O 0.63368 0.71611 0.11451 0.0
In286 In 0.25663 0.61658 0.12801 0.0
O287 O 0.22168 0.6283 0.13503 0.0
O288 O 0.23935 0.61125 0.15987 0.0
C289 C 0.26197 0.63009 0.0865 0.0
C290 C 0.25495 0.57292 0.1311 0.0
C291 C 0.28443 0.64492 0.14701 0.0
O292 O 0.24563 0.63577 0.09782 0.0
O293 O 0.27448 0.61651 0.09565 0.0
O294 O 0.29136 0.62788 0.13764 0.0
O295 O 0.26401 0.64707 0.14708 0.0
C296 C 0.22186 0.6206 0.15429 0.0
O297 O 0.2696 0.58411 0.1405 0.0
O298 O 0.24271 0.58366 0.11839 0.0
In299 In 0.74471 0.37805 0.12761 0.0
O300 O 0.73173 0.41001 0.14166 0.0
O301 O 0.7613 0.4105 0.123 0.0
C302 C 0.71597 0.34581 0.13408 0.0
C303 C 0.77367 0.36779 0.15873 0.0
C304 C 0.74019 0.37393 0.08448 0.0
O305 O 0.7118 0.36516 0.14025 0.0
O306 O 0.73443 0.34302 0.12534 0.0
O307 O 0.75669 0.36638 0.09449 0.0
O308 O 0.72719 0.38508 0.09608 0.0
C309 C 0.7479 0.42099 0.13469 0.0
O310 O 0.77927 0.36833 0.13877 0.0
O311 O 0.75379 0.37173 0.16237 0.0
C312 C 0.25847 0.5423 0.15788 0.0
C313 C 0.24851 0.55105 0.13913 0.0
C314 C 0.24838 0.52538 0.16952 0.0
C315 C 0.2142 0.50561 0.19958 0.0
H316 H 0.1797 0.4593 0.17348 0.0
C317 C 0.16736 0.43819 0.24811 0.0
C318 C 0.14725 0.43135 0.23934 0.0
C319 C 0.18003 0.45383 0.23716 0.0
C320 C 0.18908 0.47232 0.18099 0.0
H321 H 0.22131 0.54754 0.1167 0.0
H322 H 0.20376 0.51817 0.13688 0.0
H323 H 0.20353 0.48145 0.15047 0.0
H324 H 0.12364 0.43705 0.21356 0.0
H325 H 0.14551 0.46454 0.19475 0.0
H326 H 0.19968 0.49634 0.23014 0.0
C327 C 0.21932 0.52428 0.14271 0.0
C328 C 0.20281 0.48495 0.16781 0.0
C329 C 0.22941 0.54116 0.13109 0.0
C330 C 0.13914 0.44187 0.22063 0.0
C331 C 0.15177 0.45744 0.20971 0.0
C332 C 0.20053 0.49287 0.2128 0.0
C333 C 0.22818 0.51687 0.16258 0.0
C334 C 0.21533 0.50193 0.17688 0.0
C335 C 0.17276 0.46284 0.21731 0.0
C336 C 0.18758 0.47631 0.20358 0.0
H337 H 0.27323 0.54954 0.16447 0.0
H338 H 0.2559 0.51966 0.18448 0.0
H339 H 0.22332 0.5188 0.20707 0.0
H340 H 0.17409 0.43029 0.26245 0.0
H341 H 0.19611 0.45773 0.24345 0.0
C342 C 0.55525 0.14979 0.24132 0.0
C343 C 0.56283 0.13048 0.23148 0.0
C344 C 0.5383 0.16172 0.23172 0.0
C345 C 0.49546 0.15987 0.18863 0.0
H346 H 0.50962 0.22131 0.18138 0.0
C347 C 0.45239 0.21084 0.12374 0.0
C348 C 0.44333 0.23063 0.13097 0.0
C349 C 0.46779 0.1999 0.13647 0.0
C350 C 0.50536 0.20424 0.18342 0.0
H351 H 0.55733 0.10747 0.20511 0.0
H352 H 0.52782 0.12812 0.18847 0.0
H353 H 0.53211 0.19853 0.20521 0.0
H354 H 0.44469 0.25547 0.15622 0.0
H355 H 0.4718 0.23637 0.17842 0.0
H356 H 0.469 0.16546 0.16654 0.0
C357 C 0.53489 0.13417 0.20352 0.0
C358 C 0.51812 0.19121 0.19719 0.0
C359 C 0.55185 0.12231 0.21306 0.0
C360 C 0.45145 0.24026 0.15019 0.0
C361 C 0.4669 0.22928 0.16296 0.0
C362 C 0.48279 0.17285 0.17484 0.0
C363 C 0.52856 0.15447 0.21221 0.0
C364 C 0.51349 0.16879 0.1997 0.0
C365 C 0.47446 0.20852 0.15668 0.0
C366 C 0.48781 0.19509 0.17179 0.0
H367 H 0.5634 0.1565 0.25553 0.0
H368 H 0.53347 0.1771 0.23903 0.0
H369 H 0.49126 0.14276 0.19047 0.0
H370 H 0.44656 0.20308 0.10893 0.0
H371 H 0.47378 0.18419 0.13094 0.0
C372 C 0.77074 0.45457 0.13344 0.0
C373 C 0.75348 0.44289 0.14307 0.0
C374 C 0.78009 0.47235 0.1442 0.0
C375 C 0.78956 0.49136 0.2 0.0
H376 H 0.81495 0.54137 0.17044 0.0
C377 C 0.83739 0.56202 0.24273 0.0
C378 C 0.85525 0.57063 0.23109 0.0
C379 C 0.82437 0.54564 0.23346 0.0
C380 C 0.80813 0.52737 0.17889 0.0
H381 H 0.73134 0.44159 0.17072 0.0
H382 H 0.74759 0.47295 0.18951 0.0
H383 H 0.79052 0.51706 0.15051 0.0
H384 H 0.87478 0.56742 0.20169 0.0
H385 H 0.85238 0.53862 0.18577 0.0
H386 H 0.8074 0.5017 0.22837 0.0
C387 C 0.75407 0.46812 0.17376 0.0
C388 C 0.79404 0.51352 0.1675 0.0
C389 C 0.74459 0.45036 0.16288 0.0
C390 C 0.86102 0.56123 0.21097 0.0
C391 C 0.84805 0.54491 0.20174 0.0
C392 C 0.80363 0.5053 0.21145 0.0
C393 C 0.77242 0.4788 0.16488 0.0
C394 C 0.78493 0.49512 0.17778 0.0
C395 C 0.82905 0.53765 0.21244 0.0
C396 C 0.81342 0.52318 0.20085 0.0
H397 H 0.77792 0.44916 0.11818 0.0
H398 H 0.79427 0.4801 0.13694 0.0
H399 H 0.78303 0.47715 0.20833 0.0
H400 H 0.83251 0.56902 0.25825 0.0
H401 H 0.80987 0.54028 0.24212 0.0
C402 C 0.54888 0.75138 0.15588 0.0
C403 C 0.55737 0.76097 0.1368 0.0
C404 C 0.53126 0.76099 0.16677 0.0
C405 C 0.48819 0.80357 0.16198 0.0
H406 H 0.49793 0.8105 0.22427 0.0
C407 C 0.44028 0.86673 0.21119 0.0
C408 C 0.43019 0.85885 0.23026 0.0
C409 C 0.45653 0.85453 0.20086 0.0
C410 C 0.49492 0.80856 0.20693 0.0
H411 H 0.55298 0.787 0.11316 0.0
H412 H 0.52239 0.80377 0.1321 0.0
H413 H 0.5224 0.78739 0.2029 0.0
H414 H 0.43042 0.83295 0.25446 0.0
H415 H 0.459 0.81171 0.2365 0.0
H416 H 0.46096 0.82506 0.16596 0.0
C417 C 0.52921 0.78884 0.13871 0.0
C418 C 0.50881 0.7952 0.1947 0.0
C419 C 0.5468 0.77924 0.12784 0.0
C420 C 0.43792 0.83944 0.23979 0.0
C421 C 0.45425 0.82726 0.22948 0.0
C422 C 0.47439 0.81699 0.17418 0.0
C423 C 0.5218 0.78033 0.15874 0.0
C424 C 0.50574 0.79274 0.17203 0.0
C425 C 0.46306 0.83426 0.20945 0.0
C426 C 0.47776 0.81984 0.19672 0.0
H427 H 0.55666 0.73724 0.16314 0.0
H428 H 0.5256 0.75378 0.18192 0.0
H429 H 0.48518 0.80176 0.14462 0.0
H430 H 0.43473 0.88168 0.20349 0.0
H431 H 0.46341 0.86056 0.18569 0.0
C432 C 0.21984 0.4448 0.85709 0.0
C433 C 0.24017 0.43545 0.85196 0.0
C434 C 0.21066 0.46053 0.84344 0.0
C435 C 0.21968 0.5002 0.79999 0.0
H436 H 0.16136 0.48303 0.78181 0.0
C437 C 0.17015 0.55397 0.74108 0.0
C438 C 0.14868 0.55813 0.74811 0.0
C439 C 0.18215 0.53682 0.75025 0.0
C440 C 0.17756 0.48814 0.78678 0.0
H441 H 0.26778 0.43679 0.82974 0.0
H442 H 0.25179 0.46484 0.80607 0.0
H443 H 0.18174 0.45993 0.807 0.0
H444 H 0.12232 0.54656 0.76882 0.0
H445 H 0.14315 0.51696 0.7849 0.0
H446 H 0.21521 0.52889 0.78051 0.0
C447 C 0.24292 0.45967 0.82051 0.0
C448 C 0.18921 0.47493 0.80121 0.0
C449 C 0.25209 0.44372 0.83411 0.0
C450 C 0.13884 0.54376 0.76306 0.0
C451 C 0.15082 0.52671 0.77227 0.0
C452 C 0.2079 0.51362 0.78572 0.0
C453 C 0.2217 0.4674 0.82454 0.0
C454 C 0.21018 0.48105 0.80828 0.0
C455 C 0.17289 0.52355 0.7666 0.0
C456 C 0.18651 0.50794 0.77928 0.0
H457 H 0.21032 0.43889 0.87081 0.0
H458 H 0.19444 0.46661 0.84712 0.0
H459 H 0.23586 0.5052 0.80518 0.0
H460 H 0.17815 0.56474 0.72952 0.0
H461 H 0.19895 0.53452 0.74517 0.0
C462 C 0.54688 0.228 0.86618 0.0
C463 C 0.55847 0.24579 0.85744 0.0
C464 C 0.53031 0.21796 0.85418 0.0
C465 C 0.51534 0.20896 0.7968 0.0
H466 H 0.46616 0.17854 0.8228 0.0
C467 C 0.4488 0.15904 0.74981 0.0
C468 C 0.44178 0.13967 0.76005 0.0
C469 C 0.46422 0.17255 0.75997 0.0
C470 C 0.47995 0.18682 0.81536 0.0
H471 H 0.56046 0.26832 0.83014 0.0
H472 H 0.53106 0.25106 0.80932 0.0
H473 H 0.48741 0.20397 0.84485 0.0
H474 H 0.4471 0.11811 0.78769 0.0
H475 H 0.47406 0.14158 0.80525 0.0
H476 H 0.50761 0.19175 0.76722 0.0
C477 C 0.53518 0.24455 0.82525 0.0
C478 C 0.49208 0.20144 0.82796 0.0
C479 C 0.55182 0.25462 0.83731 0.0
C480 C 0.45205 0.133 0.77947 0.0
C481 C 0.46731 0.14654 0.78965 0.0
C482 C 0.50303 0.19445 0.78411 0.0
C483 C 0.52489 0.22555 0.83318 0.0
C484 C 0.5102 0.21236 0.81899 0.0
C485 C 0.47275 0.16689 0.78052 0.0
C486 C 0.48553 0.18289 0.79343 0.0
H487 H 0.55164 0.22084 0.88167 0.0
H488 H 0.52285 0.20332 0.8608 0.0
H489 H 0.52939 0.21685 0.78943 0.0
H490 H 0.44116 0.16462 0.73485 0.0
H491 H 0.46824 0.18812 0.75253 0.0
C492 C 0.78537 0.54672 0.87263 0.0
C493 C 0.76448 0.55465 0.86743 0.0
C494 C 0.7952 0.53079 0.85964 0.0
C495 C 0.78642 0.49022 0.81584 0.0
H496 H 0.84546 0.5066 0.79925 0.0
C497 C 0.83349 0.44132 0.75108 0.0
C498 C 0.85469 0.43518 0.75739 0.0
C499 C 0.82238 0.4577 0.76246 0.0
C500 C 0.82905 0.50172 0.8038 0.0
H501 H 0.73667 0.55066 0.84581 0.0
H502 H 0.75384 0.52267 0.82318 0.0
H503 H 0.82545 0.52891 0.82542 0.0
H504 H 0.88156 0.44257 0.77928 0.0
H505 H 0.86224 0.47105 0.79909 0.0
H506 H 0.79015 0.46284 0.79443 0.0
C507 C 0.76265 0.52886 0.83723 0.0
C508 C 0.81762 0.51443 0.81887 0.0
C509 C 0.75279 0.54484 0.85026 0.0
C510 C 0.86523 0.44696 0.77402 0.0
C511 C 0.85413 0.46331 0.78539 0.0
C512 C 0.79791 0.47742 0.8008 0.0
C513 C 0.78433 0.52245 0.84122 0.0
C514 C 0.79628 0.50869 0.82524 0.0
C515 C 0.83228 0.46826 0.7803 0.0
C516 C 0.81944 0.48293 0.79475 0.0
H517 H 0.79473 0.55385 0.88586 0.0
H518 H 0.81174 0.52573 0.86343 0.0
H519 H 0.77002 0.48539 0.82047 0.0
H520 H 0.82496 0.43257 0.73827 0.0
H521 H 0.80572 0.4615 0.75782 0.0
C522 C 0.55339 0.82502 0.74195 0.0
C523 C 0.56036 0.84556 0.7496 0.0
C524 C 0.53623 0.81398 0.75237 0.0
C525 C 0.51242 0.81054 0.80707 0.0
H526 H 0.46616 0.77676 0.77997 0.0
C527 C 0.43838 0.77872 0.8551 0.0
C528 C 0.42853 0.75892 0.84895 0.0
C529 C 0.4559 0.78719 0.84318 0.0
C530 C 0.47923 0.7858 0.78778 0.0
H531 H 0.55349 0.8715 0.77272 0.0
H532 H 0.52342 0.85243 0.7906 0.0
H533 H 0.49199 0.797 0.75704 0.0
H534 H 0.43008 0.73179 0.82623 0.0
H535 H 0.46109 0.74643 0.80554 0.0
H536 H 0.49991 0.7994 0.83774 0.0
C537 C 0.53153 0.84462 0.77693 0.0
C538 C 0.49391 0.79749 0.77463 0.0
C539 C 0.54861 0.85564 0.76654 0.0
C540 C 0.43741 0.74706 0.83141 0.0
C541 C 0.45497 0.75559 0.81939 0.0
C542 C 0.49789 0.79878 0.82016 0.0
C543 C 0.5258 0.8233 0.7706 0.0
C544 C 0.51041 0.81031 0.78418 0.0
C545 C 0.46403 0.77604 0.82481 0.0
C546 C 0.48088 0.78656 0.81073 0.0
H547 H 0.5622 0.81679 0.72899 0.0
H548 H 0.53211 0.79759 0.74708 0.0
H549 H 0.52534 0.8198 0.8149 0.0
H550 H 0.43187 0.78828 0.8685 0.0
H551 H 0.46229 0.80306 0.84773 0.0
C552 C 0.14112 0.22319 0.54539 0.0
C553 C 0.14289 0.24416 0.55458 0.0
C554 C 0.15513 0.21674 0.52866 0.0
C555 C 0.1883 0.23024 0.48356 0.0
H556 H 0.22583 0.18285 0.5027 0.0
C557 C 0.24252 0.18476 0.42198 0.0
C558 C 0.24053 0.16191 0.42329 0.0
C559 C 0.23559 0.19795 0.43932 0.0
C560 C 0.2155 0.19605 0.49705 0.0
H561 H 0.15951 0.27543 0.55223 0.0
H562 H 0.18373 0.26416 0.52222 0.0
H563 H 0.20146 0.20058 0.52882 0.0
H564 H 0.23148 0.13488 0.44436 0.0
H565 H 0.21918 0.15767 0.4743 0.0
H566 H 0.20107 0.22481 0.45147 0.0
C567 C 0.17164 0.25276 0.52839 0.0
C568 C 0.20167 0.20623 0.51203 0.0
C569 C 0.15775 0.25918 0.54543 0.0
C570 C 0.23321 0.15245 0.44287 0.0
C571 C 0.22622 0.16559 0.46012 0.0
C572 C 0.20193 0.21982 0.46843 0.0
C573 C 0.17093 0.23123 0.52054 0.0
C574 C 0.18759 0.22298 0.50526 0.0
C575 C 0.22653 0.18852 0.45824 0.0
C576 C 0.21521 0.20215 0.47489 0.0
H577 H 0.12982 0.21125 0.55202 0.0
H578 H 0.15422 0.20012 0.52261 0.0
H579 H 0.17748 0.24312 0.47806 0.0
H580 H 0.24819 0.19252 0.40711 0.0
H581 H 0.23648 0.21554 0.43752 0.0
C582 C 0.78183 0.12651 0.55195 0.0
C583 C 0.76174 0.13354 0.56051 0.0
C584 C 0.79209 0.13828 0.53529 0.0
C585 C 0.79534 0.19459 0.51515 0.0
H586 H 0.83157 0.1688 0.47007 0.0
C587 C 0.84067 0.24351 0.44727 0.0
C588 C 0.86085 0.23518 0.44014 0.0
C589 C 0.82862 0.23247 0.4633 0.0
C590 C 0.82175 0.17624 0.48278 0.0
H591 H 0.73575 0.15736 0.55714 0.0
H592 H 0.75353 0.17775 0.52773 0.0
H593 H 0.80833 0.14539 0.49241 0.0
H594 H 0.88531 0.21022 0.44581 0.0
H595 H 0.86457 0.19132 0.4741 0.0
H596 H 0.80887 0.22546 0.50547 0.0
C597 C 0.76154 0.16337 0.53421 0.0
C598 C 0.80833 0.16283 0.49548 0.0
C599 C 0.75122 0.15151 0.55084 0.0
C600 C 0.86973 0.21693 0.45084 0.0
C601 C 0.85773 0.20595 0.46686 0.0
C602 C 0.80876 0.20803 0.50239 0.0
C603 C 0.78247 0.15736 0.52686 0.0
C604 C 0.79513 0.1718 0.51196 0.0
C605 C 0.8366 0.21298 0.47248 0.0
C606 C 0.82232 0.19896 0.48625 0.0
H607 H 0.79036 0.11275 0.5591 0.0
H608 H 0.80822 0.13322 0.53008 0.0
H609 H 0.78563 0.20198 0.52797 0.0
H610 H 0.83337 0.2575 0.43927 0.0
H611 H 0.81242 0.23834 0.46733 0.0
C612 C 0.76111 0.86048 0.45608 0.0
C613 C 0.7409 0.85453 0.44692 0.0
C614 C 0.76989 0.84842 0.4733 0.0
C615 C 0.76325 0.81151 0.51786 0.0
H616 H 0.81432 0.78177 0.49486 0.0
C617 C 0.81478 0.75515 0.57272 0.0
C618 C 0.83744 0.75872 0.5713 0.0
C619 C 0.80078 0.76338 0.55664 0.0
C620 C 0.80021 0.79001 0.50163 0.0
H621 H 0.71285 0.83304 0.45032 0.0
H622 H 0.7281 0.81233 0.48103 0.0
H623 H 0.79332 0.80603 0.47128 0.0
H624 H 0.86333 0.77224 0.5512 0.0
H625 H 0.83912 0.78685 0.52353 0.0
H626 H 0.77071 0.79652 0.54855 0.0
C627 C 0.73719 0.82607 0.4745 0.0
C628 C 0.78819 0.80383 0.4881 0.0
C629 C 0.72848 0.83799 0.45702 0.0
C630 C 0.84594 0.76919 0.55274 0.0
C631 C 0.83199 0.77753 0.53679 0.0
C632 C 0.77553 0.79794 0.53158 0.0
C633 C 0.75841 0.83054 0.48192 0.0
C634 C 0.7699 0.81497 0.49622 0.0
C635 C 0.80917 0.7754 0.53891 0.0
C636 C 0.79443 0.78736 0.52372 0.0
H637 H 0.77105 0.87319 0.44874 0.0
H638 H 0.78623 0.8522 0.47899 0.0
H639 H 0.74911 0.81994 0.52435 0.0
H640 H 0.80776 0.74708 0.58684 0.0
H641 H 0.78334 0.76102 0.55854 0.0
C642 C 0.1477 0.74955 0.44387 0.0
C643 C 0.13047 0.76082 0.43372 0.0
C644 C 0.15836 0.75863 0.46193 0.0
C645 C 0.15601 0.80313 0.50322 0.0
H646 H 0.21888 0.80477 0.49501 0.0
C647 C 0.20926 0.86396 0.55051 0.0
C648 C 0.2282 0.85548 0.56029 0.0
C649 C 0.1979 0.85183 0.53487 0.0
C650 C 0.20139 0.80429 0.49767 0.0
H651 H 0.10947 0.78925 0.4358 0.0
H652 H 0.1279 0.80498 0.46731 0.0
H653 H 0.19638 0.78244 0.47085 0.0
H654 H 0.25094 0.82833 0.56029 0.0
H655 H 0.23115 0.80716 0.53292 0.0
H656 H 0.16098 0.82519 0.52986 0.0
C657 C 0.13331 0.78922 0.46134 0.0
C658 C 0.18849 0.79138 0.48392 0.0
C659 C 0.12273 0.7802 0.44325 0.0
C660 C 0.23642 0.83533 0.55299 0.0
C661 C 0.22505 0.82317 0.53733 0.0
C662 C 0.1689 0.81602 0.51696 0.0
C663 C 0.15187 0.77904 0.47024 0.0
C664 C 0.16562 0.79085 0.48639 0.0
C665 C 0.20526 0.83097 0.52867 0.0
C666 C 0.19171 0.81697 0.51417 0.0
H667 H 0.15403 0.73457 0.4369 0.0
H668 H 0.17235 0.7502 0.46873 0.0
H669 H 0.13847 0.80288 0.50568 0.0
H670 H 0.20256 0.87948 0.55575 0.0
H671 H 0.183 0.85851 0.52808 0.0
C672 C 0.65753 0.93532 0.74176 0.0
C673 C 0.6398 0.92611 0.73043 0.0
C674 C 0.66889 0.95314 0.73294 0.0
C675 C 0.6665 0.9961 0.6901 0.0
H676 H 0.7295 0.98905 0.68835 0.0
C677 C 0.71805 0.04689 0.63133 0.0
C678 C 0.73627 0.05752 0.6404 0.0
C679 C 0.70767 0.03001 0.64264 0.0
C680 C 0.71196 0.99133 0.68886 0.0
H681 H 0.61903 0.92926 0.7019 0.0
H682 H 0.63865 0.96029 0.68665 0.0
H683 H 0.70724 0.96351 0.7096 0.0
H684 H 0.75899 0.05766 0.66759 0.0
H685 H 0.74085 0.02803 0.68737 0.0
H686 H 0.67112 0.0237 0.66917 0.0
C687 C 0.64388 0.95386 0.70229 0.0
C688 C 0.69921 0.97681 0.70113 0.0
C689 C 0.63263 0.93603 0.71102 0.0
C690 C 0.74503 0.04969 0.66014 0.0
C691 C 0.73458 0.03278 0.67152 0.0
C692 C 0.67921 0.01055 0.67782 0.0
C693 C 0.6626 0.96214 0.71275 0.0
C694 C 0.6763 0.97887 0.70165 0.0
C695 C 0.71525 0.02343 0.66329 0.0
C696 C 0.70205 0.00814 0.67678 0.0
H697 H 0.66347 0.92796 0.75672 0.0
H698 H 0.68304 0.9594 0.74156 0.0
H699 H 0.64895 -0.00165 0.69043 0.0
H700 H 0.71102 0.05246 0.61607 0.0
H701 H 0.69315 0.0227 0.6356 0.0
C702 C 0.95054 0.75158 0.65169 0.0
C703 C 0.93877 0.74162 0.63467 0.0
C704 C 0.96738 0.74029 0.66219 0.0
C705 C 0.00363 0.69206 0.65903 0.0
H706 H 0.99686 0.69115 0.72209 0.0
C707 C 0.05172 0.63103 0.71119 0.0
C708 C 0.06194 0.63965 0.72985 0.0
C709 C 0.03555 0.64293 0.70035 0.0
C710 C -0.00087 0.69137 0.70454 0.0
H711 H 0.93667 0.71294 0.61397 0.0
H712 H 0.96625 0.69341 0.63205 0.0
H713 H 0.97371 0.71493 0.70009 0.0
H714 H 0.06214 0.66672 0.75272 0.0
H715 H 0.03411 0.68755 0.73374 0.0
H716 H 0.02912 0.66863 0.66341 0.0
C717 C 0.9624 0.70982 0.63743 0.0
C718 C 0.98593 0.70507 0.69193 0.0
C719 C 0.94545 0.72102 0.62705 0.0
C720 C 0.05452 0.65961 0.73841 0.0
C721 C 0.03844 0.67158 0.72749 0.0
C722 C 0.01692 0.67845 0.67163 0.0
C723 C 0.97289 0.71896 0.6557 0.0
C724 C 0.98799 0.70551 0.66904 0.0
C725 C 0.02936 0.66374 0.70787 0.0
C726 C 0.01475 0.67783 0.69454 0.0
H727 H 0.94574 0.76742 0.65794 0.0
H728 H 0.97548 0.74789 0.67598 0.0
H729 H 0.00569 0.69217 0.64144 0.0
H730 H 0.05703 0.61563 0.70428 0.0
H731 H 0.02846 0.63616 0.68561 0.0
C732 C 0.36963 0.05074 0.71356 0.0
C733 C 0.36456 0.05788 0.73478 0.0
C734 C 0.35666 0.03503 0.70329 0.0
C735 C 0.31316 0.99383 0.71112 0.0
H736 H 0.29602 0.01191 0.65278 0.0
C737 C 0.24827 0.94589 0.66336 0.0
C738 C 0.25455 0.94022 0.642 0.0
C739 C 0.25955 0.96217 0.67474 0.0
C740 C 0.30071 0.00657 0.66899 0.0
H741 H 0.34326 0.05269 0.76266 0.0
H742 H 0.32068 0.02511 0.74472 0.0
H743 H 0.32229 0.03374 0.67326 0.0
H744 H 0.27617 0.94846 0.61513 0.0
H745 H 0.2958 0.97679 0.63492 0.0
H746 H 0.29178 0.96648 0.70674 0.0
C747 C 0.33459 0.03174 0.736 0.0
C748 C 0.31585 0.019 0.68068 0.0
C749 C 0.34759 0.04748 0.7463 0.0
C750 C 0.27095 0.95247 0.63158 0.0
C751 C 0.28222 0.96873 0.64295 0.0
C752 C 0.29805 0.98132 0.69938 0.0
C753 C 0.33841 0.02613 0.71404 0.0
C754 C 0.32242 0.01265 0.70178 0.0
C755 C 0.27726 0.97311 0.66497 0.0
C756 C 0.29179 0.98746 0.6781 0.0
H757 H 0.3827 0.05833 0.70432 0.0
H758 H 0.36033 0.03059 0.68654 0.0
H759 H 0.31794 0.98851 0.72731 0.0
H760 H 0.23563 0.93679 0.6718 0.0
H761 H 0.255 0.96554 0.69152 0.0
C762 C 0.04518 0.27403 0.62136 0.0
C763 C 0.05612 0.25511 0.62831 0.0
C764 C 0.02743 0.28204 0.63319 0.0
C765 C 0.00831 0.28206 0.68992 0.0
H766 H 0.96187 0.31775 0.66591 0.0
C767 C 0.94151 0.32727 0.74073 0.0
C768 C 0.93605 0.34836 0.73344 0.0
C769 C 0.95649 0.31456 0.72905 0.0
C770 C 0.97487 0.30794 0.67283 0.0
H771 H 0.05557 0.22838 0.65159 0.0
H772 H 0.02415 0.24212 0.67197 0.0
H773 H 0.98396 0.29532 0.64154 0.0
H774 H 0.94338 0.3734 0.70939 0.0
H775 H 0.96957 0.35128 0.68916 0.0
H776 H -0.00092 0.29482 0.72126 0.0
C777 C 0.02971 0.2511 0.65775 0.0
C778 C 0.98746 0.29503 0.65889 0.0
C779 C 0.04752 0.24308 0.6459 0.0
C780 C 0.94717 0.35717 0.71538 0.0
C781 C 0.96198 0.34444 0.70364 0.0
C782 C 0.99555 0.29485 0.70391 0.0
C783 C 0.02016 0.27123 0.65214 0.0
C784 C 0.00465 0.2823 0.66719 0.0
C785 C 0.96609 0.32273 0.70985 0.0
C786 C 0.97906 0.3083 0.69541 0.0
H787 H 0.05139 0.28363 0.60783 0.0
H788 H 0.02055 0.29762 0.62838 0.0
H789 H 0.02163 0.27273 0.69686 0.0
H790 H 0.93318 0.32004 0.75459 0.0
H791 H 0.95946 0.2979 0.73424 0.0
C792 C 0.73964 0.92461 0.32847 0.0
C793 C 0.73287 0.92276 0.35035 0.0
C794 C 0.73182 0.94161 0.31533 0.0
C795 C 0.70138 0.99433 0.31732 0.0
H796 H 0.67964 0.97646 0.26046 0.0
C797 C 0.63516 0.04286 0.27436 0.0
C798 C 0.64073 0.05081 0.25355 0.0
C799 C 0.64729 0.02618 0.28397 0.0
C800 C 0.6858 0.98167 0.27622 0.0
H801 H 0.71383 0.938 0.37602 0.0
H802 H 0.70011 0.96739 0.35328 0.0
H803 H 0.70181 0.95113 0.28207 0.0
H804 H 0.66205 0.04609 0.22561 0.0
H805 H 0.68304 0.01637 0.24236 0.0
H806 H 0.6846 0.02448 0.31184 0.0
C807 C 0.71155 0.95594 0.34615 0.0
C808 C 0.69863 0.96729 0.28854 0.0
C809 C 0.71937 0.93901 0.35924 0.0
C810 C 0.65736 0.04028 0.24166 0.0
C811 C 0.66943 0.02337 0.25126 0.0
C812 C 0.68838 0.00853 0.30515 0.0
C813 C 0.71713 0.95709 0.32386 0.0
C814 C 0.70616 0.9733 0.30946 0.0
C815 C 0.66509 0.01693 0.27287 0.0
C816 C 0.68008 0.00216 0.28473 0.0
H817 H 0.75005 0.9123 0.32117 0.0
H818 H 0.73673 0.94225 0.29833 0.0
H819 H 0.70731 -0.0003 0.33311 0.0
H820 H 0.62235 0.05052 0.28389 0.0
H821 H 0.64338 0.02116 0.3005 0.0
C822 C 0.94224 0.6729 0.23403 0.0
C823 C 0.93676 0.65238 0.24282 0.0
C824 C 0.96014 0.68458 0.24222 0.0
C825 C 0.00825 0.68031 0.27962 0.0
H826 H 0.99369 0.74029 0.29421 0.0
C827 C 0.05007 0.72404 0.35 0.0
C828 C 0.06088 0.74358 0.34458 0.0
C829 C 0.03479 0.71496 0.33576 0.0
C830 C -0.00197 0.72364 0.29004 0.0
H831 H 0.94687 0.62711 0.26549 0.0
H832 H 0.97777 0.64734 0.27979 0.0
H833 H 0.96966 0.71935 0.27006 0.0
H834 H 0.06268 0.76998 0.32097 0.0
H835 H 0.03533 0.75422 0.29623 0.0
H836 H 0.03602 0.68432 0.30048 0.0
C837 C 0.96847 0.65455 0.26659 0.0
C838 C 0.98441 0.71167 0.27608 0.0
C839 C 0.95065 0.64291 0.25841 0.0
C840 C 0.05458 0.75492 0.3256 0.0
C841 C 0.03905 0.74587 0.31139 0.0
C842 C 0.02165 0.69216 0.29375 0.0
C843 C 0.97288 0.67592 0.25927 0.0
C844 C 0.98909 0.68967 0.27112 0.0
C845 C 0.02981 0.72533 0.31593 0.0
C846 C 0.01638 0.71373 0.2995 0.0
H847 H 0.93184 0.68061 0.22197 0.0
H848 H 0.96338 0.7008 0.23589 0.0
H849 H 0.01262 0.66359 0.2758 0.0
H850 H 0.05446 0.71497 0.36456 0.0
H851 H 0.02753 0.69931 0.33982 0.0
C852 C 0.32089 0.94401 0.24637 0.0
C853 C 0.34292 0.94002 0.25151 0.0
C854 C 0.30904 0.95975 0.25793 0.0
C855 C 0.3088 0.98408 0.31241 0.0
H856 H 0.26566 0.02389 0.28878 0.0
C857 C 0.27097 0.05431 0.3619 0.0
C858 C 0.2497 0.06127 0.35686 0.0
C859 C 0.28059 0.03727 0.35022 0.0
C860 C 0.27734 0.01255 0.29568 0.0
H861 H 0.37035 0.95076 0.27123 0.0
H862 H 0.34974 0.97839 0.29115 0.0
H863 H 0.28702 0.00105 0.26402 0.0
H864 H 0.22107 0.05453 0.33708 0.0
H865 H 0.23773 0.02435 0.31701 0.0
H866 H 0.29918 0.99542 0.34404 0.0
C867 C 0.34151 0.96902 0.27857 0.0
C868 C 0.28969 -0.00038 0.28146 0.0
C869 C 0.35336 0.95337 0.26699 0.0
C870 C 0.23753 0.04956 0.3413 0.0
C871 C 0.24717 0.03247 0.3296 0.0
C872 C 0.2964 0.99689 0.32661 0.0
C873 C 0.31902 0.9717 0.27481 0.0
C874 C 0.30576 0.98548 0.28968 0.0
C875 C 0.26911 0.02676 0.33331 0.0
C876 C 0.2807 0.01148 0.31842 0.0
H877 H 0.31239 0.93396 0.23453 0.0
H878 H 0.29174 0.96151 0.25463 0.0
H879 H 0.3207 0.97291 0.31926 0.0
H880 H 0.28076 0.06302 0.37381 0.0
H881 H 0.29754 0.03338 0.35349 0.0
C882 C 0.05676 0.33404 0.25034 0.0
C883 C 0.06439 0.3536 0.25971 0.0
C884 C 0.0403 0.32192 0.26068 0.0
C885 C 0.0213 0.31242 0.31636 0.0
H886 H 0.97294 0.28117 0.28992 0.0
C887 C 0.95103 0.27552 0.36629 0.0
C888 C 0.94044 0.25664 0.35864 0.0
C889 C 0.96799 0.28495 0.3543 0.0
C890 C 0.98664 0.28946 0.29748 0.0
H891 H 0.05917 0.37701 0.28578 0.0
H892 H 0.03028 0.3561 0.30354 0.0
H893 H 0.99652 0.30412 0.26715 0.0
H894 H 0.94035 0.23189 0.33329 0.0
H895 H 0.97036 0.24821 0.31247 0.0
H896 H 0.01162 0.29785 0.34662 0.0
C897 C 0.03738 0.34983 0.28858 0.0
C898 C 1e-05 0.30273 0.28445 0.0
C899 C 0.05376 0.36191 0.27828 0.0
C900 C 0.94825 0.24643 0.33962 0.0
C901 C 0.96523 0.25592 0.32755 0.0
C902 C 0.00807 0.2991 0.32933 0.0
C903 C 0.03126 0.32922 0.28049 0.0
C904 C 0.0172 0.31467 0.29387 0.0
C905 C 0.97476 0.27571 0.33438 0.0
C906 C 0.99035 0.28775 0.32014 0.0
H907 H 0.06469 0.32719 0.23608 0.0
H908 H 0.03581 0.30614 0.25403 0.0
H909 H 0.03482 0.32096 0.32398 0.0
H910 H 0.94534 0.28378 0.38088 0.0
H911 H 0.97483 0.30025 0.36001 0.0
C912 C 0.72006 0.63218 0.95406 0.0
C913 C 0.74093 0.63617 0.94534 0.0
C914 C 0.71099 0.64658 0.9692 0.0
C915 C 0.72016 0.69024 0.00833 0.0
H916 H 0.66512 0.71272 0.98627 0.0
C917 C 0.67162 0.75347 0.05764 0.0
C918 C 0.64939 0.74821 0.06012 0.0
C919 C 0.68412 0.74336 0.04139 0.0
C920 C 0.68038 0.70656 0.99276 0.0
H921 H 0.76963 0.65693 0.94744 0.0
H922 H 0.75387 0.68182 0.97452 0.0
H923 H 0.68506 0.68536 0.96535 0.0
H924 H 0.62235 0.72992 0.04631 0.0
H925 H 0.64399 0.71216 0.01835 0.0
H926 H 0.71508 0.71064 0.03624 0.0
C927 C 0.74447 0.66775 0.96925 0.0
C928 C 0.69177 0.69089 0.98078 0.0
C929 C 0.75349 0.65346 0.95386 0.0
C930 C 0.63946 0.73429 0.04483 0.0
C931 C 0.65193 0.72411 0.02871 0.0
C932 C 0.70858 0.70572 0.02053 0.0
C933 C 0.72276 0.665 0.97615 0.0
C934 C 0.71152 0.68231 0.98865 0.0
C935 C 0.6746 0.7278 0.02738 0.0
C936 C 0.68834 0.71377 0.01307 0.0
H937 H 0.71 0.61895 0.94793 0.0
H938 H 0.69433 0.64394 0.97463 0.0
H939 H 0.73542 0.68389 0.01464 0.0
H940 H 0.67971 0.76423 0.06914 0.0
H941 H 0.70142 0.74699 0.04046 0.0
C942 C 0.28708 0.63429 0.05473 0.0
C943 C 0.26823 0.64108 0.06591 0.0
C944 C 0.29564 0.64681 0.03769 0.0
C945 C 0.29686 0.70354 0.01733 0.0
H946 H 0.32647 0.67664 0.96821 0.0
C947 C 0.33402 0.74925 0.94186 0.0
C948 C 0.35375 0.74074 0.93372 0.0
C949 C 0.32353 0.73923 0.9596 0.0
C950 C 0.31845 0.68439 0.98197 0.0
H951 H 0.24292 0.66579 0.0673 0.0
H952 H 0.25766 0.68754 0.03709 0.0
H953 H 0.30606 0.6539 0.99368 0.0
H954 H 0.37908 0.71661 0.93914 0.0
H955 H 0.36094 0.69935 0.97013 0.0
H956 H 0.30919 0.73414 0.0052 0.0
C957 C 0.26603 0.67269 0.04181 0.0
C958 C 0.30671 0.67136 0.99655 0.0
C959 C 0.25744 0.6601 0.05893 0.0
C960 C 0.36381 0.72344 0.94493 0.0
C961 C 0.35333 0.71342 0.96254 0.0
C962 C 0.3085 0.71665 0.00256 0.0
C963 C 0.28553 0.66644 0.03133 0.0
C964 C 0.29609 0.68068 0.01464 0.0
C965 C 0.33262 0.72055 0.96938 0.0
C966 C 0.31976 0.70712 0.98497 0.0
H967 H 0.29583 0.61975 0.05978 0.0
H968 H 0.31079 0.64157 0.03021 0.0
H969 H 0.28907 0.71126 0.03122 0.0
H970 H 0.32582 0.76253 0.93352 0.0
H971 H 0.3076 0.74511 0.9646 0.0
C972 C 0.25191 0.34075 0.94415 0.0
C973 C 0.26107 0.36015 0.9359 0.0
C974 C 0.26268 0.32897 0.96049 0.0
C975 C 0.30824 0.33092 0.00051 0.0
H976 H 0.31572 0.26999 0.98458 0.0
C977 C 0.37401 0.27952 0.0417 0.0
C978 C 0.36685 0.25944 0.05023 0.0
C979 C 0.36133 0.29073 0.02643 0.0
C980 C 0.31367 0.28691 0.98933 0.0
H981 H 0.28733 0.38364 0.93985 0.0
H982 H 0.30596 0.36329 0.96843 0.0
H983 H 0.29053 0.29287 0.96381 0.0
H984 H 0.34194 0.2343 0.04787 0.0
H985 H 0.31981 0.25384 0.02114 0.0
H986 H 0.3315 0.32505 0.02589 0.0
C987 C 0.2906 0.35701 0.96225 0.0
C988 C 0.29912 0.29999 0.97756 0.0
C989 C 0.2799 0.36871 0.94586 0.0
C990 C 0.34791 0.24973 0.04156 0.0
C991 C 0.33517 0.26099 0.0263 0.0
C992 C 0.32278 0.31786 0.01225 0.0
C993 C 0.28266 0.33651 0.96897 0.0
C994 C 0.2964 0.32219 0.98291 0.0
C995 C 0.34123 0.28207 0.01941 0.0
C996 C 0.32585 0.29578 0.00664 0.0
H997 H 0.2374 0.33373 0.9368 0.0
H998 H 0.25594 0.31344 0.9657 0.0
H999 H 0.30633 0.34789 0.00517 0.0
H1000 H 0.38863 0.28734 0.04796 0.0
H1001 H 0.36673 0.30668 0.02093 0.0
C1002 C 0.74248 0.34651 0.05442 0.0
C1003 C 0.73347 0.36589 0.06278 0.0
C1004 C 0.73202 0.33531 0.03747 0.0
C1005 C 0.6956 0.30765 0.01781 0.0
H1006 H 0.66755 0.33487 0.96799 0.0
C1007 C 0.65046 0.25986 0.94945 0.0
C1008 C 0.63274 0.27025 0.93922 0.0
C1009 C 0.66225 0.27061 0.96582 0.0
C1010 C 0.675 0.32707 0.98202 0.0
H1011 H 0.7077 0.38981 0.05869 0.0
H1012 H 0.68966 0.37049 0.02895 0.0
H1013 H 0.69158 0.3565 0.99124 0.0
H1014 H 0.612 0.29893 0.93963 0.0
H1015 H 0.63207 0.31736 0.96867 0.0
H1016 H 0.6788 0.27828 0.00874 0.0
C1017 C 0.70467 0.36381 0.03553 0.0
C1018 C 0.68891 0.33945 0.99522 0.0
C1019 C 0.71502 0.37491 0.05256 0.0
C1020 C 0.62571 0.2906 0.94711 0.0
C1021 C 0.63738 0.30127 0.96355 0.0
C1022 C 0.68161 0.29527 0.00463 0.0
C1023 C 0.71252 0.34344 0.02846 0.0
C1024 C 0.69926 0.32992 0.01332 0.0
C1025 C 0.65639 0.29186 0.97233 0.0
C1026 C 0.671 0.3049 0.9867 0.0
H1027 H 0.75666 0.33914 0.06201 0.0
H1028 H 0.73864 0.31982 0.03206 0.0
H1029 H 0.70303 0.29994 0.0319 0.0
H1030 H 0.65633 0.24421 0.94362 0.0
H1031 H 0.67679 0.26288 0.97226 0.0
C1032 C 0.13344 0.29543 0.28562 0.0
C1033 C 0.13581 0.31649 0.29444 0.0
C1034 C 0.13246 0.27721 0.29915 0.0
C1035 C 0.15021 0.25627 0.35146 0.0
H1036 H 0.11331 0.20774 0.33375 0.0
C1037 C 0.16937 0.16949 0.37978 0.0
C1038 C 0.17479 0.15712 0.3612 0.0
C1039 C 0.15685 0.1885 0.37765 0.0
C1040 C 0.12343 0.22123 0.33919 0.0
H1041 H 0.13915 0.33499 0.32446 0.0
H1042 H 0.13787 0.30264 0.34842 0.0
H1043 H 0.10671 0.24413 0.3188 0.0
H1044 H 0.16966 0.15339 0.32642 0.0
H1045 H 0.1472 0.18601 0.32277 0.0
H1046 H 0.1677 0.23306 0.37091 0.0
C1047 C 0.13659 0.30048 0.3309 0.0
C1048 C 0.11975 0.24202 0.33058 0.0
C1049 C 0.13742 0.31892 0.31723 0.0
C1050 C 0.16558 0.16262 0.34097 0.0
C1051 C 0.15271 0.1813 0.33893 0.0
C1052 C 0.1538 0.23546 0.36021 0.0
C1053 C 0.13386 0.27946 0.32193 0.0
C1054 C 0.13389 0.25945 0.33565 0.0
C1055 C 0.1492 0.19503 0.35701 0.0
C1056 C 0.14117 0.21754 0.35323 0.0
H1057 H 0.13219 0.29292 0.26814 0.0
H1058 H 0.13099 0.26124 0.29165 0.0
H1059 H 0.16138 0.26937 0.35566 0.0
H1060 H 0.17651 0.16571 0.39553 0.0
H1061 H 0.15433 0.1988 0.39182 0.0
C1062 C 0.83247 0.18092 0.35026 0.0
C1063 C 0.8286 0.19947 0.36315 0.0
C1064 C 0.81497 0.16785 0.34341 0.0
C1065 C 0.75562 0.15698 0.35176 0.0
H1066 H 0.75577 0.148 0.28906 0.0
C1067 C 0.67713 0.14304 0.3005 0.0
C1068 C 0.67879 0.12934 0.28219 0.0
C1069 C 0.69573 0.14787 0.31296 0.0
C1070 C 0.75555 0.14995 0.30666 0.0
H1071 H 0.80377 0.21805 0.38033 0.0
H1072 H 0.77342 0.19548 0.36832 0.0
H1073 H 0.78842 0.16171 0.30687 0.0
H1074 H 0.70069 0.10876 0.26339 0.0
H1075 H 0.73278 0.1167 0.28528 0.0
H1076 H 0.72242 0.14572 0.35133 0.0
C1077 C 0.78982 0.19087 0.36351 0.0
C1078 C 0.77434 0.15777 0.31688 0.0
C1079 C 0.80721 0.20395 0.37021 0.0
C1080 C 0.69901 0.11972 0.27719 0.0
C1081 C 0.71743 0.12432 0.2897 0.0
C1082 C 0.73678 0.14906 0.34151 0.0
C1083 C 0.7934 0.17307 0.34951 0.0
C1084 C 0.77448 0.16175 0.33947 0.0
C1085 C 0.71618 0.13889 0.30737 0.0
C1086 C 0.73645 0.14578 0.31878 0.0
H1087 H 0.84882 0.17707 0.34469 0.0
H1088 H 0.81822 0.15406 0.33281 0.0
H1089 H 0.75532 0.15973 0.36924 0.0
H1090 H 0.66169 0.15058 0.30472 0.0
H1091 H 0.69426 0.15928 0.3264 0.0
C1092 C 0.87084 0.69963 0.2911 0.0
C1093 C 0.86581 0.67755 0.29493 0.0
C1094 C 0.86624 0.71542 0.3068 0.0
C1095 C 0.82654 0.7251 0.34968 0.0
H1096 H 0.85829 0.77975 0.35545 0.0
C1097 C 0.7853 0.79882 0.38858 0.0
C1098 C 0.78636 0.81788 0.37582 0.0
C1099 C 0.79968 0.78159 0.38481 0.0
C1100 C 0.84929 0.76456 0.35406 0.0
H1101 H 0.85342 0.6544 0.31872 0.0
H1102 H 0.84523 0.6822 0.34639 0.0
H1103 H 0.87596 0.74832 0.33829 0.0
H1104 H 0.80415 0.83458 0.35015 0.0
H1105 H 0.82906 0.80418 0.34309 0.0
H1106 H 0.79956 0.74146 0.36444 0.0
C1107 C 0.85258 0.68725 0.33109 0.0
C1108 C 0.85939 0.74656 0.3443 0.0
C1109 C 0.8573 0.67135 0.31532 0.0
C1110 C 0.80298 0.82002 0.36017 0.0
C1111 C 0.81731 0.80265 0.35624 0.0
C1112 C 0.81648 0.74304 0.35946 0.0
C1113 C 0.85646 0.70953 0.32672 0.0
C1114 C 0.84783 0.72689 0.34128 0.0
C1115 C 0.8153 0.78297 0.36804 0.0
C1116 C 0.82747 0.76318 0.36111 0.0
H1117 H 0.87762 0.70487 0.2756 0.0
H1118 H 0.86919 0.7324 0.30274 0.0
H1119 H 0.81704 0.71033 0.34736 0.0
H1120 H 0.77284 0.79689 0.40103 0.0
H1121 H 0.79802 0.76685 0.39448 0.0
C1122 C 0.32916 0.83247 0.29911 0.0
C1123 C 0.33665 0.85415 0.2986 0.0
C1124 C 0.3118 0.82656 0.31267 0.0
C1125 C 0.27771 0.81617 0.34679 0.0
H1126 H 0.22857 0.85584 0.34166 0.0
C1127 C 0.19374 0.79015 0.37761 0.0
C1128 C 0.1764 0.7937 0.36303 0.0
C1129 C 0.21358 0.80099 0.37484 0.0
C1130 C 0.24214 0.84461 0.34328 0.0
H1131 H 0.33307 0.88628 0.31313 0.0
H1132 H 0.30279 0.87586 0.33705 0.0
H1133 H 0.26449 0.86707 0.32838 0.0
H1134 H 0.16557 0.81224 0.33494 0.0
H1135 H 0.20066 0.83077 0.3295 0.0
H1136 H 0.25527 0.79318 0.36035 0.0
C1137 C 0.31015 0.86353 0.3267 0.0
C1138 C 0.2628 0.85115 0.33595 0.0
C1139 C 0.32762 0.86943 0.31318 0.0
C1140 C 0.17875 0.80927 0.34638 0.0
C1141 C 0.19882 0.81992 0.34337 0.0
C1142 C 0.2571 0.80962 0.35403 0.0
C1143 C 0.30155 0.84222 0.32599 0.0
C1144 C 0.28068 0.83676 0.33711 0.0
C1145 C 0.21668 0.81533 0.35717 0.0
C1146 C 0.23895 0.82356 0.35191 0.0
H1147 H 0.3358 0.82035 0.28804 0.0
H1148 H 0.3055 0.81004 0.31158 0.0
H1149 H 0.2912 0.8048 0.3481 0.0
H1150 H 0.19217 0.77847 0.39084 0.0
H1151 H 0.22676 0.79753 0.38614 0.0
C1152 C 0.14103 0.67468 0.68557 0.0
C1153 C 0.15373 0.66556 0.7024 0.0
C1154 C 0.14555 0.69574 0.67784 0.0
C1155 C 0.16735 0.74662 0.69888 0.0
H1156 H 0.17173 0.76577 0.63865 0.0
C1157 C 0.20645 0.82784 0.67423 0.0
C1158 C 0.19995 0.83816 0.6548 0.0
C1159 C 0.19672 0.80826 0.68069 0.0
C1160 C 0.17003 0.7608 0.65556 0.0
H1161 H 0.18222 0.67043 0.72294 0.0
H1162 H 0.19006 0.70707 0.70943 0.0
H1163 H 0.16459 0.72728 0.64669 0.0
H1164 H 0.17684 0.83724 0.62797 0.0
H1165 H 0.15941 0.8032 0.63957 0.0
H1166 H 0.17267 0.77994 0.70789 0.0
C1167 C 0.17645 0.69811 0.70248 0.0
C1168 C 0.16614 0.73873 0.66011 0.0
C1169 C 0.17207 0.67706 0.71004 0.0
C1170 C 0.18222 0.82958 0.64299 0.0
C1171 C 0.17243 0.80996 0.64949 0.0
C1172 C 0.17097 0.76866 0.69436 0.0
C1173 C 0.16271 0.70794 0.68698 0.0
C1174 C 0.16536 0.7314 0.68181 0.0
C1175 C 0.1802 0.79863 0.66792 0.0
C1176 C 0.17292 0.77594 0.67266 0.0
H1177 H 0.12676 0.66619 0.67939 0.0
H1178 H 0.1348 0.70297 0.66579 0.0
H1179 H 0.16627 0.74142 0.71577 0.0
H1180 H 0.22007 0.83408 0.68367 0.0
H1181 H 0.20326 0.79997 0.69488 0.0
C1182 C 0.30608 0.12735 0.71513 0.0
C1183 C 0.32601 0.13804 0.71115 0.0
C1184 C 0.28741 0.13295 0.70344 0.0
C1185 C 0.26727 0.16366 0.65514 0.0
H1186 H 0.21497 0.16936 0.69059 0.0
C1187 C 0.19473 0.21825 0.63219 0.0
C1188 C 0.17341 0.21089 0.63657 0.0
C1189 C 0.21275 0.20599 0.63864 0.0
C1190 C 0.2293 0.16745 0.68036 0.0
H1191 H 0.34237 0.16236 0.69127 0.0
H1192 H 0.3094 0.17281 0.67115 0.0
H1193 H 0.24807 0.1546 0.70676 0.0
H1194 H 0.15414 0.18464 0.65057 0.0
H1195 H 0.1859 0.16315 0.66224 0.0
H1196 H 0.24852 0.17744 0.62899 0.0
C1197 C 0.30831 0.15977 0.68307 0.0
C1198 C 0.24832 0.15899 0.68961 0.0
C1199 C 0.32716 0.15392 0.69465 0.0
C1200 C 0.17042 0.1907 0.64708 0.0
C1201 C 0.18854 0.17847 0.65376 0.0
C1202 C 0.24824 0.17226 0.64593 0.0
C1203 C 0.28813 0.14963 0.68768 0.0
C1204 C 0.26762 0.15725 0.6772 0.0
C1205 C 0.20988 0.18614 0.64977 0.0
C1206 C 0.22918 0.17454 0.65856 0.0
H1207 H 0.30483 0.11475 0.72752 0.0
H1208 H 0.2723 0.12441 0.70701 0.0
H1209 H 0.28174 0.16221 0.64505 0.0
H1210 H 0.19754 0.2337 0.624 0.0
H1211 H 0.22896 0.21247 0.63561 0.0
C1212 C 0.78696 0.19128 0.61892 0.0
C1213 C 0.78943 0.17422 0.63405 0.0
C1214 C 0.79763 0.21113 0.622 0.0
C1215 C 0.83935 0.24048 0.65476 0.0
H1216 H 0.79923 0.28905 0.6476 0.0
C1217 C 0.86344 0.32818 0.67896 0.0
C1218 C 0.84844 0.33778 0.69347 0.0
C1219 C 0.85756 0.30967 0.66693 0.0
C1220 C 0.81067 0.27569 0.64955 0.0
H1221 H 0.80602 0.16379 0.66346 0.0
H1222 H 0.82439 0.19902 0.66938 0.0
H1223 H 0.78812 0.25259 0.63638 0.0
H1224 H 0.81513 0.33673 0.70549 0.0
H1225 H 0.80478 0.3047 0.68429 0.0
H1226 H 0.86147 0.26362 0.66896 0.0
C1227 C 0.81442 0.1969 0.65492 0.0
C1228 C 0.80441 0.2548 0.64295 0.0
C1229 C 0.8039 0.17678 0.65162 0.0
C1230 C 0.827 0.32968 0.6944 0.0
C1231 C 0.82108 0.31133 0.68224 0.0
C1232 C 0.84564 0.26146 0.66134 0.0
C1233 C 0.81074 0.21451 0.64052 0.0
C1234 C 0.81852 0.23688 0.64581 0.0
C1235 C 0.83654 0.30066 0.66901 0.0
C1236 C 0.83116 0.27918 0.65921 0.0
H1237 H 0.77618 0.18951 0.60497 0.0
H1238 H 0.79494 0.22413 0.6103 0.0
H1239 H 0.85062 0.22704 0.65701 0.0
H1240 H 0.88012 0.33406 0.67797 0.0
H1241 H 0.8697 0.30193 0.65663 0.0
C1242 C 0.83718 0.8261 0.65818 0.0
C1243 C 0.84312 0.81892 0.63725 0.0
C1244 C 0.81779 0.83764 0.6613 0.0
C1245 C 0.76357 0.83651 0.63853 0.0
H1246 H 0.75204 0.87689 0.68593 0.0
C1247 C 0.67744 0.85006 0.67857 0.0
C1248 C 0.67833 0.84846 0.70149 0.0
C1249 C 0.69683 0.85101 0.66629 0.0
C1250 C 0.75498 0.86574 0.6725 0.0
H1251 H 0.8346 0.8198 0.60287 0.0
H1252 H 0.80049 0.8399 0.60836 0.0
H1253 H 0.7891 0.87349 0.67156 0.0
H1254 H 0.7001 0.8457 0.72937 0.0
H1255 H 0.73348 0.84727 0.70814 0.0
H1256 H 0.72961 0.82787 0.64041 0.0
C1257 C 0.81084 0.83662 0.62233 0.0
C1258 C 0.77616 0.86385 0.66425 0.0
C1259 C 0.83048 0.82534 0.61918 0.0
C1260 C 0.69881 0.84709 0.71176 0.0
C1261 C 0.71798 0.84822 0.69962 0.0
C1262 C 0.74232 0.83843 0.6468 0.0
C1263 C 0.80383 0.84196 0.64355 0.0
C1264 C 0.78088 0.84846 0.64791 0.0
C1265 C 0.71726 0.85065 0.67684 0.0
C1266 C 0.7381 0.85228 0.66458 0.0
H1267 H 0.8466 0.82124 0.67236 0.0
H1268 H 0.81283 0.84138 0.67787 0.0
H1269 H 0.7667 0.82438 0.62603 0.0
H1270 H 0.66187 0.85124 0.67025 0.0
H1271 H 0.69587 0.85267 0.64869 0.0
C1272 C 0.2954 0.15009 0.3161 0.0
C1273 C 0.27376 0.14292 0.31344 0.0
C1274 C 0.30845 0.1544 0.29783 0.0
C1275 C 0.31298 0.14401 0.23834 0.0
H1276 H 0.3449 0.19876 0.23805 0.0
C1277 C 0.34327 0.18749 0.15982 0.0
C1278 C 0.36216 0.20038 0.16148 0.0
C1279 C 0.33518 0.1766 0.17828 0.0
C1280 C 0.33648 0.18317 0.23795 0.0
H1281 H 0.24886 0.13439 0.28967 0.0
H1282 H 0.27148 0.14217 0.25789 0.0
H1283 H 0.32579 0.18742 0.27092 0.0
H1284 H 0.38864 0.2104 0.18276 0.0
H1285 H 0.37507 0.19084 0.21462 0.0
H1286 H 0.32337 0.14004 0.20512 0.0
C1287 C 0.2785 0.14418 0.27402 0.0
C1288 C 0.32549 0.17671 0.25684 0.0
C1289 C 0.26548 0.13995 0.29223 0.0
C1290 C 0.37381 0.20081 0.18122 0.0
C1291 C 0.36597 0.18972 0.19948 0.0
C1292 C 0.32406 0.15046 0.21941 0.0
C1293 C 0.30009 0.15153 0.2766 0.0
C1294 C 0.31336 0.15723 0.25715 0.0
C1295 C 0.34606 0.1783 0.19851 0.0
C1296 C 0.33573 0.17025 0.21894 0.0
H1297 H 0.30224 0.15238 0.33228 0.0
H1298 H 0.3251 0.15991 0.3003 0.0
H1299 H 0.30395 0.12877 0.23822 0.0
H1300 H 0.33402 0.187 0.14474 0.0
H1301 H 0.31975 0.16799 0.177 0.0
C1302 C 0.85528 0.27924 0.30536 0.0
C1303 C 0.86035 0.28854 0.3257 0.0
C1304 C 0.85172 0.29238 0.28718 0.0
C1305 C 0.83523 0.34754 0.2712 0.0
H1306 H 0.84875 0.32413 0.21383 0.0
C1307 C 0.78059 0.36302 0.19836 0.0
C1308 C 0.78885 0.36349 0.17695 0.0
C1309 C 0.79429 0.35892 0.21599 0.0
C1310 C 0.84526 0.33129 0.22963 0.0
H1311 H 0.86578 0.31893 0.34304 0.0
H1312 H 0.85965 0.34221 0.31091 0.0
H1313 H 0.86484 0.30758 0.24613 0.0
H1314 H 0.81812 0.36065 0.15721 0.0
H1315 H 0.84238 0.35343 0.18833 0.0
H1316 H 0.81561 0.37123 0.25468 0.0
C1317 C 0.85829 0.32465 0.30917 0.0
C1318 C 0.85424 0.32158 0.24822 0.0
C1319 C 0.86173 0.31138 0.32755 0.0
C1320 C 0.8113 0.36019 0.17356 0.0
C1321 C 0.82515 0.35609 0.19135 0.0
C1322 C 0.8265 0.35745 0.25259 0.0
C1323 C 0.85334 0.31523 0.28874 0.0
C1324 C 0.84832 0.32881 0.26924 0.0
C1325 C 0.81672 0.35529 0.21278 0.0
C1326 C 0.83042 0.34864 0.23169 0.0
H1327 H 0.85394 0.26169 0.30344 0.0
H1328 H 0.84725 0.28454 0.27195 0.0
H1329 H 0.83044 0.35365 0.2871 0.0
H1330 H 0.76336 0.36551 0.20157 0.0
H1331 H 0.78705 0.35785 0.23212 0.0
C1332 C 0.63062 0.8126 0.17414 0.0
C1333 C 0.64471 0.79584 0.16712 0.0
C1334 C 0.63285 0.82152 0.1951 0.0
C1335 C 0.64627 0.80277 0.24813 0.0
H1336 H 0.66218 0.86124 0.26667 0.0
C1337 C 0.6899 0.81977 0.32789 0.0
C1338 C 0.68691 0.83961 0.33892 0.0
C1339 C 0.67866 0.81551 0.30858 0.0
C1340 C 0.65712 0.84498 0.26181 0.0
H1341 H 0.6733 0.77672 0.17567 0.0
H1342 H 0.67697 0.79217 0.21219 0.0
H1343 H 0.65589 0.85375 0.22778 0.0
H1344 H 0.6689 0.87007 0.3393 0.0
H1345 H 0.64908 0.8626 0.30524 0.0
H1346 H 0.64791 0.79368 0.28181 0.0
C1347 C 0.66419 0.79825 0.20156 0.0
C1348 C 0.65369 0.84073 0.23958 0.0
C1349 C 0.66213 0.78952 0.18064 0.0
C1350 C 0.67134 0.85455 0.33114 0.0
C1351 C 0.6602 0.85039 0.31157 0.0
C1352 C 0.64943 0.80703 0.27027 0.0
C1353 C 0.64907 0.81365 0.20922 0.0
C1354 C 0.6491 0.8194 0.2326 0.0
C1355 C 0.66428 0.83109 0.29977 0.0
C1356 C 0.65582 0.82795 0.27727 0.0
H1357 H 0.61703 0.81776 0.16406 0.0
H1358 H 0.62108 0.83346 0.20077 0.0
H1359 H 0.64241 0.78625 0.24303 0.0
H1360 H 0.70186 0.80801 0.33354 0.0
H1361 H 0.68242 0.8006 0.29982 0.0
C1362 C 0.19091 0.6426 0.16931 0.0
C1363 C 0.20427 0.62403 0.17033 0.0
C1364 C 0.17788 0.64829 0.18723 0.0
C1365 C 0.1793 0.64159 0.24673 0.0
H1366 H 0.1259 0.67546 0.24447 0.0
C1367 C 0.14448 0.68561 0.32289 0.0
C1368 C 0.1394 0.70765 0.31899 0.0
C1369 C 0.14846 0.67145 0.30533 0.0
C1370 C 0.14078 0.66593 0.24535 0.0
H1371 H 0.21288 0.59561 0.18963 0.0
H1372 H 0.18967 0.60512 0.22053 0.0
H1373 H 0.13891 0.65699 0.21155 0.0
H1374 H 0.13406 0.73203 0.29376 0.0
H1375 H 0.14113 0.70757 0.26345 0.0
H1376 H 0.18162 0.65116 0.28027 0.0
C1377 C 0.18974 0.61572 0.20634 0.0
C1378 C 0.14823 0.6554 0.22651 0.0
C1379 C 0.20293 0.61021 0.18861 0.0
C1380 C 0.13803 0.71516 0.29733 0.0
C1381 C 0.14182 0.70106 0.2799 0.0
C1382 C 0.17182 0.65206 0.26555 0.0
C1383 C 0.17787 0.63535 0.20629 0.0
C1384 C 0.16792 0.64363 0.22683 0.0
C1385 C 0.14717 0.67909 0.28366 0.0
C1386 C 0.15286 0.6649 0.26488 0.0
H1387 H 0.19174 0.65353 0.15541 0.0
H1388 H 0.16902 0.66359 0.18667 0.0
H1389 H 0.19471 0.63294 0.24754 0.0
H1390 H 0.14551 0.67939 0.33943 0.0
H1391 H 0.15254 0.65456 0.30869 0.0
C1392 C 0.34099 0.77273 0.79504 0.0
C1393 C 0.34655 0.784 0.81424 0.0
C1394 C 0.33929 0.78373 0.77523 0.0
C1395 C 0.33092 0.83734 0.75013 0.0
H1396 H 0.35236 0.80687 0.69877 0.0
C1397 C 0.31307 0.86988 0.66424 0.0
C1398 C 0.30149 0.85432 0.65189 0.0
C1399 C 0.32501 0.86343 0.68262 0.0
C1400 C 0.34647 0.81566 0.71296 0.0
H1401 H 0.354 0.81579 0.82794 0.0
H1402 H 0.35091 0.83529 0.79295 0.0
H1403 H 0.35968 0.79207 0.73506 0.0
H1404 H 0.29518 0.81974 0.6476 0.0
H1405 H 0.31632 0.80843 0.67935 0.0
H1406 H 0.31711 0.86056 0.72793 0.0
C1407 C 0.3479 0.81785 0.79338 0.0
C1408 C 0.35054 0.80716 0.73373 0.0
C1409 C 0.34957 0.80675 0.81338 0.0
C1410 C 0.30392 0.83207 0.65684 0.0
C1411 C 0.31606 0.8256 0.67504 0.0
C1412 C 0.32695 0.84593 0.72932 0.0
C1413 C 0.34322 0.80631 0.77402 0.0
C1414 C 0.34206 0.81743 0.75248 0.0
C1415 C 0.32583 0.84131 0.68869 0.0
C1416 C 0.33402 0.83474 0.71051 0.0
H1417 H 0.33837 0.75521 0.79521 0.0
H1418 H 0.33498 0.77446 0.76077 0.0
H1419 H 0.32414 0.8456 0.76423 0.0
H1420 H 0.31149 0.88717 0.66081 0.0
H1421 H 0.33261 0.87582 0.69273 0.0
C1422 C 0.18511 0.34789 0.82625 0.0
C1423 C 0.20613 0.35625 0.82233 0.0
C1424 C 0.17092 0.34379 0.80874 0.0
C1425 C 0.16196 0.35644 0.75011 0.0
H1426 H 0.13862 0.29764 0.74698 0.0
C1427 C 0.14401 0.31209 0.66916 0.0
C1428 C 0.12791 0.29577 0.66894 0.0
C1429 C 0.14848 0.3235 0.68848 0.0
C1430 C 0.1445 0.31433 0.7477 0.0
H1431 H 0.22856 0.36756 0.79722 0.0
H1432 H 0.20402 0.36041 0.76696 0.0
H1433 H 0.15543 0.31024 0.78065 0.0
H1434 H 0.10241 0.27995 0.68783 0.0
H1435 H 0.10966 0.30029 0.72123 0.0
H1436 H 0.15167 0.36028 0.71688 0.0
C1437 C 0.19833 0.35712 0.78342 0.0
C1438 C 0.15416 0.32152 0.76706 0.0
C1439 C 0.2125 0.36096 0.80077 0.0
C1440 C 0.11519 0.29224 0.68772 0.0
C1441 C 0.11941 0.30381 0.70687 0.0
C1442 C 0.1522 0.34929 0.73075 0.0
C1443 C 0.17748 0.34833 0.78715 0.0
C1444 C 0.16362 0.34238 0.76822 0.0
C1445 C 0.13669 0.31892 0.70776 0.0
C1446 C 0.14395 0.32791 0.72911 0.0
H1447 H 0.17977 0.34423 0.84274 0.0
H1448 H 0.15489 0.337 0.81204 0.0
H1449 H 0.16888 0.37274 0.75069 0.0
H1450 H 0.15404 0.31507 0.65486 0.0
H1451 H 0.16201 0.33492 0.6886 0.0
C1452 C 0.69171 0.15632 0.67391 0.0
C1453 C 0.7021 0.13601 0.67254 0.0
C1454 C 0.68017 0.16199 0.69284 0.0
C1455 C 0.67718 0.1462 0.75161 0.0
H1456 H 0.6319 0.19028 0.75212 0.0
C1457 C 0.65629 0.19559 0.82896 0.0
C1458 C 0.63563 0.20523 0.8306 0.0
C1459 C 0.66174 0.18339 0.81041 0.0
C1460 C 0.64419 0.17758 0.75243 0.0
H1461 H 0.70737 0.10498 0.68865 0.0
H1462 H 0.68598 0.11408 0.72091 0.0
H1463 H 0.6444 0.1757 0.71758 0.0
H1464 H 0.60386 0.20853 0.81547 0.0
H1465 H 0.61267 0.18591 0.78395 0.0
H1466 H 0.67633 0.14739 0.78648 0.0
C1467 C 0.68755 0.12621 0.70812 0.0
C1468 C 0.6517 0.1695 0.73245 0.0
C1469 C 0.69957 0.12085 0.68953 0.0
C1470 C 0.61996 0.20123 0.81439 0.0
C1471 C 0.62516 0.18854 0.7962 0.0
C1472 C 0.66932 0.1539 0.7716 0.0
C1473 C 0.67842 0.14718 0.71046 0.0
C1474 C 0.66867 0.15407 0.73172 0.0
C1475 C 0.64642 0.18024 0.79345 0.0
C1476 C 0.65307 0.17009 0.77231 0.0
H1477 H 0.69371 0.16831 0.66102 0.0
H1478 H 0.67366 0.17838 0.69401 0.0
H1479 H 0.69049 0.13457 0.75189 0.0
H1480 H 0.66867 0.19879 0.84121 0.0
H1481 H 0.67836 0.17755 0.8089 0.0
C1482 C 0.84756 0.69913 0.67656 0.0
C1483 C 0.85626 0.72015 0.67956 0.0
C1484 C 0.84224 0.68617 0.69465 0.0
C1485 C 0.852 0.6804 0.75415 0.0
H1486 H 0.7948 0.65315 0.75432 0.0
C1487 C 0.80654 0.65428 0.83285 0.0
C1488 C 0.79244 0.63625 0.83154 0.0
C1489 C 0.8176 0.66158 0.81417 0.0
C1490 C 0.81103 0.66025 0.75444 0.0
H1491 H 0.86645 0.74405 0.70372 0.0
H1492 H 0.85696 0.72166 0.73511 0.0
H1493 H 0.80787 0.67107 0.72137 0.0
H1494 H 0.78019 0.61052 0.81047 0.0
H1495 H 0.79994 0.62273 0.7782 0.0
H1496 H 0.85493 0.66995 0.78744 0.0
C1497 C 0.85452 0.71499 0.71889 0.0
C1498 C 0.81849 0.67054 0.73552 0.0
C1499 C 0.85977 0.7279 0.70088 0.0
C1500 C 0.7907 0.62473 0.81178 0.0
C1501 C 0.80193 0.63178 0.79328 0.0
C1502 C 0.84456 0.67003 0.7731 0.0
C1503 C 0.84564 0.69403 0.71599 0.0
C1504 C 0.83888 0.68106 0.7353 0.0
C1505 C 0.81487 0.65074 0.79404 0.0
C1506 C 0.82383 0.66013 0.77354 0.0
H1507 H 0.8448 0.69272 0.66028 0.0
H1508 H 0.83552 0.67002 0.69195 0.0
H1509 H 0.86794 0.68815 0.75433 0.0
H1510 H 0.80811 0.66341 0.84794 0.0
H1511 H 0.82735 0.67632 0.81528 0.0
C1512 C 0.17595 0.3462 0.18622 0.0
C1513 C 0.17933 0.35471 0.20725 0.0
C1514 C 0.19381 0.34175 0.17262 0.0
C1515 C 0.25331 0.35233 0.16564 0.0
H1516 H 0.25393 0.29405 0.14093 0.0
C1517 C 0.33228 0.30502 0.14441 0.0
C1518 C 0.33136 0.28994 0.12719 0.0
C1519 C 0.31358 0.31684 0.15027 0.0
C1520 C 0.25394 0.31058 0.14728 0.0
H1521 H 0.20386 0.36609 0.23023 0.0
H1522 H 0.23479 0.35817 0.20675 0.0
H1523 H 0.22074 0.30771 0.15778 0.0
H1524 H 0.31108 0.27676 0.10129 0.0
H1525 H 0.27882 0.29774 0.11101 0.0
H1526 H 0.28681 0.35486 0.1557 0.0
C1527 C 0.21848 0.35508 0.20059 0.0
C1528 C 0.23485 0.3184 0.15694 0.0
C1529 C 0.20073 0.35938 0.21415 0.0
C1530 C 0.31208 0.28803 0.11492 0.0
C1531 C 0.29357 0.29997 0.12054 0.0
C1532 C 0.27244 0.34451 0.15592 0.0
C1533 C 0.21528 0.34593 0.17981 0.0
C1534 C 0.23447 0.33915 0.16668 0.0
C1535 C 0.29382 0.31386 0.13879 0.0
C1536 C 0.27308 0.32336 0.14702 0.0
H1537 H 0.15959 0.34259 0.18046 0.0
H1538 H 0.19087 0.33481 0.15661 0.0
H1539 H 0.25339 0.36853 0.1728 0.0
H1540 H 0.347 0.30675 0.1541 0.0
H1541 H 0.31429 0.32734 0.16449 0.0
C1542 C 0.29912 0.70032 0.87619 0.0
C1543 C 0.31783 0.69839 0.86303 0.0
C1544 C 0.28057 0.68783 0.87186 0.0
C1545 C 0.2531 0.66744 0.82441 0.0
H1546 H 0.21082 0.64418 0.86571 0.0
C1547 C 0.16365 0.66262 0.80188 0.0
C1548 C 0.15537 0.64121 0.80138 0.0
C1549 C 0.18278 0.66729 0.81335 0.0
C1550 C 0.22255 0.65055 0.85406 0.0
H1551 H 0.33255 0.68083 0.83609 0.0
H1552 H 0.29974 0.65911 0.82812 0.0
H1553 H 0.24797 0.65332 0.87811 0.0
H1554 H 0.15912 0.60848 0.81453 0.0
H1555 H 0.19247 0.61689 0.83503 0.0
H1556 H 0.22763 0.66552 0.80059 0.0
C1557 C 0.29954 0.67027 0.84186 0.0
C1558 C 0.24373 0.65571 0.86109 0.0
C1559 C 0.31829 0.68259 0.84644 0.0
C1560 C 0.16516 0.62514 0.81459 0.0
C1561 C 0.18426 0.62989 0.82626 0.0
C1562 C 0.23195 0.66262 0.81752 0.0
C1563 C 0.28027 0.67338 0.85406 0.0
C1564 C 0.2591 0.6645 0.84636 0.0
C1565 C 0.19379 0.65071 0.82473 0.0
C1566 C 0.21638 0.65456 0.83234 0.0
H1567 H 0.29846 0.71231 0.88922 0.0
H1568 H 0.26595 0.69069 0.88143 0.0
H1569 H 0.26445 0.67447 0.81276 0.0
H1570 H 0.15641 0.67538 0.79198 0.0
H1571 H 0.18969 0.68357 0.81225 0.0
C1572 C 0.2984 0.30741 0.87851 0.0
C1573 C 0.29682 0.32348 0.86224 0.0
C1574 C 0.3109 0.2887 0.87506 0.0
C1575 C 0.34984 0.26245 0.83577 0.0
H1576 H 0.32311 0.2094 0.858 0.0
C1577 C 0.38144 0.17965 0.80708 0.0
C1578 C 0.36541 0.16409 0.80196 0.0
C1579 C 0.37621 0.19781 0.81979 0.0
C1580 C 0.33075 0.224 0.85153 0.0
H1581 H 0.30749 0.33328 0.83001 0.0
H1582 H 0.32842 0.30005 0.82327 0.0
H1583 H 0.30852 0.24454 0.8687 0.0
H1584 H 0.33174 0.15446 0.80659 0.0
H1585 H 0.32207 0.18673 0.82785 0.0
H1586 H 0.37078 0.24194 0.81704 0.0
C1587 C 0.32073 0.30206 0.83907 0.0
C1588 C 0.32261 0.2443 0.858 0.0
C1589 C 0.30867 0.3211 0.84282 0.0
C1590 C 0.34438 0.1662 0.81067 0.0
C1591 C 0.33893 0.18472 0.82289 0.0
C1592 C 0.35768 0.24215 0.82893 0.0
C1593 C 0.32153 0.28533 0.85495 0.0
C1594 C 0.33179 0.26383 0.8499 0.0
C1595 C 0.35461 0.20118 0.82694 0.0
C1596 C 0.34798 0.22262 0.8364 0.0
H1597 H 0.28954 0.30911 0.89376 0.0
H1598 H 0.31166 0.27662 0.88796 0.0
H1599 H 0.35768 0.27705 0.82952 0.0
H1600 H 0.39783 0.17818 0.80051 0.0
H1601 H 0.38892 0.20967 0.82316 0.0
C1602 C 0.67945 0.30738 0.84649 0.0
C1603 C 0.67698 0.29295 0.86413 0.0
C1604 C 0.69981 0.31714 0.84243 0.0
C1605 C 0.7578 0.30533 0.85227 0.0
H1606 H 0.76725 0.36233 0.82626 0.0
C1607 C 0.83142 0.36265 0.81389 0.0
C1608 C 0.84021 0.3474 0.79913 0.0
C1609 C 0.81316 0.35723 0.82653 0.0
C1610 C 0.76493 0.34651 0.83387 0.0
H1611 H 0.6929 0.27892 0.8925 0.0
H1612 H 0.72798 0.29633 0.88584 0.0
H1613 H 0.73083 0.35237 0.83943 0.0
H1614 H 0.83798 0.31411 0.78725 0.0
H1615 H 0.80636 0.30457 0.80944 0.0
H1616 H 0.79172 0.2993 0.84645 0.0
C1617 C 0.71465 0.29958 0.87466 0.0
C1618 C 0.74403 0.34072 0.84114 0.0
C1619 C 0.69454 0.28967 0.87851 0.0
C1620 C 0.83155 0.32617 0.7985 0.0
C1621 C 0.81344 0.32071 0.81125 0.0
C1622 C 0.77862 0.3111 0.84501 0.0
C1623 C 0.71779 0.31273 0.85612 0.0
C1624 C 0.74018 0.31993 0.8501 0.0
C1625 C 0.80358 0.33642 0.82479 0.0
C1626 C 0.78232 0.33156 0.83533 0.0
H1627 H 0.6661 0.31015 0.83521 0.0
H1628 H 0.70173 0.32714 0.82795 0.0
H1629 H 0.75538 0.28906 0.85883 0.0
H1630 H 0.83775 0.37917 0.81466 0.0
H1631 H 0.80605 0.36956 0.83705 0.0
C1632 C 0.69158 0.66367 0.84641 0.0
C1633 C 0.70115 0.6628 0.86716 0.0
C1634 C 0.67926 0.68191 0.84027 0.0
C1635 C 0.67301 0.74038 0.8558 0.0
H1636 H 0.63089 0.73899 0.80864 0.0
C1637 C 0.65459 0.8161 0.80323 0.0
C1638 C 0.6348 0.8171 0.79183 0.0
C1639 C 0.65929 0.79798 0.81636 0.0
C1640 C 0.64223 0.73984 0.82218 0.0
H1641 H 0.70406 0.67896 0.89847 0.0
H1642 H 0.68128 0.70998 0.88848 0.0
H1643 H 0.64325 0.70505 0.82459 0.0
H1644 H 0.60359 0.80134 0.78641 0.0
H1645 H 0.61098 0.77055 0.81049 0.0
H1646 H 0.67133 0.77519 0.854 0.0
C1647 C 0.68409 0.69736 0.87641 0.0
C1648 C 0.64969 0.7202 0.83107 0.0
C1649 C 0.69691 0.67947 0.88227 0.0
C1650 C 0.61909 0.8007 0.79497 0.0
C1651 C 0.62347 0.78295 0.80856 0.0
C1652 C 0.66517 0.76003 0.84726 0.0
C1653 C 0.67588 0.69933 0.85502 0.0
C1654 C 0.66566 0.72016 0.84757 0.0
C1655 C 0.64401 0.78082 0.81869 0.0
C1656 C 0.65015 0.76006 0.82988 0.0
H1657 H 0.6949 0.65104 0.83445 0.0
H1658 H 0.67351 0.68281 0.82357 0.0
H1659 H 0.6855 0.74121 0.86828 0.0
H1660 H 0.667 0.82853 0.80082 0.0
H1661 H 0.67538 0.79695 0.8236 0.0
C1662 C 0.65774 0.68956 0.16212 0.0
C1663 C 0.65286 0.69352 0.14006 0.0
C1664 C 0.67601 0.67715 0.1678 0.0
C1665 C 0.73041 0.66877 0.14688 0.0
H1666 H 0.73687 0.63255 0.19844 0.0
C1667 C 0.81513 0.64747 0.18447 0.0
C1668 C 0.81597 0.64907 0.20736 0.0
C1669 C 0.795 0.6485 0.17358 0.0
C1670 C 0.73534 0.64268 0.184 0.0
H1671 H 0.66196 0.68592 0.10664 0.0
H1672 H 0.69401 0.66436 0.11662 0.0
H1673 H 0.70043 0.63998 0.18409 0.0
H1674 H 0.79662 0.65369 0.23672 0.0
H1675 H 0.7619 0.65604 0.21786 0.0
H1676 H 0.76519 0.67252 0.14749 0.0
C1677 C 0.68378 0.67095 0.12947 0.0
C1678 C 0.71449 0.6468 0.17574 0.0
C1679 C 0.66535 0.68315 0.1238 0.0
C1680 C 0.7965 0.65226 0.21907 0.0
C1681 C 0.77653 0.65334 0.20827 0.0
C1682 C 0.75128 0.66477 0.15524 0.0
C1683 C 0.68981 0.66866 0.1515 0.0
C1684 C 0.71177 0.66047 0.15753 0.0
C1685 C 0.77545 0.65114 0.18544 0.0
C1686 C 0.75389 0.65234 0.17436 0.0
H1687 H 0.64839 0.69733 0.17499 0.0
H1688 H 0.68028 0.67574 0.18492 0.0
H1689 H 0.7288 0.67958 0.13295 0.0
H1690 H 0.82991 0.64484 0.17507 0.0
H1691 H 0.79469 0.64678 0.15597 0.0
C1692 C 0.32281 0.82457 0.20074 0.0
C1693 C 0.34206 0.83607 0.19576 0.0
C1694 C 0.31971 0.80342 0.1929 0.0
C1695 C 0.33508 0.76105 0.15457 0.0
H1696 H 0.32626 0.72284 0.20449 0.0
C1697 C 0.31775 0.66854 0.14445 0.0
C1698 C 0.2985 0.66246 0.15541 0.0
C1699 C 0.328 0.68844 0.14944 0.0
C1700 C 0.32879 0.73326 0.19038 0.0
H1701 H 0.37196 0.83547 0.17666 0.0
H1702 H 0.3662 0.79841 0.16257 0.0
H1703 H 0.33212 0.76181 0.21023 0.0
H1704 H 0.2757 0.67127 0.18098 0.0
H1705 H 0.2936 0.70548 0.18995 0.0
H1706 H 0.33062 0.73256 0.13465 0.0
C1707 C 0.35376 0.80576 0.1728 0.0
C1708 C 0.33206 0.75553 0.19367 0.0
C1709 C 0.35697 0.82697 0.18079 0.0
C1710 C 0.29058 0.67561 0.17238 0.0
C1711 C 0.30091 0.69519 0.17755 0.0
C1712 C 0.33156 0.73867 0.15124 0.0
C1713 C 0.33568 0.79348 0.17977 0.0
C1714 C 0.33452 0.76971 0.1758 0.0
C1715 C 0.31931 0.70219 0.16568 0.0
C1716 C 0.32765 0.72469 0.16912 0.0
H1717 H 0.31096 0.8312 0.2121 0.0
H1718 H 0.30543 0.79432 0.19815 0.0
H1719 H 0.33715 0.77172 0.14058 0.0
H1720 H 0.32397 0.65872 0.13111 0.0
H1721 H 0.34224 0.6934 0.14013 0.0
C1722 C 0.68999 0.32393 0.15672 0.0
C1723 C 0.70098 0.32728 0.13693 0.0
C1724 C 0.67914 0.30415 0.1606 0.0
C1725 C 0.67947 0.24663 0.14068 0.0
H1726 H 0.63243 0.24094 0.18262 0.0
C1727 C 0.66051 0.16542 0.18448 0.0
C1728 C 0.63958 0.16219 0.19313 0.0
C1729 C 0.66548 0.18486 0.17348 0.0
C1730 C 0.64525 0.24209 0.17047 0.0
H1731 H 0.70798 0.31377 0.105 0.0
H1732 H 0.68788 0.27996 0.11106 0.0
H1733 H 0.64389 0.27696 0.17097 0.0
H1734 H 0.60691 0.17539 0.19576 0.0
H1735 H 0.61498 0.20853 0.17521 0.0
H1736 H 0.68027 0.21175 0.13954 0.0
C1737 C 0.68843 0.29189 0.12411 0.0
C1738 C 0.65214 0.26291 0.1641 0.0
C1739 C 0.69974 0.31136 0.12051 0.0
C1740 C 0.62323 0.17771 0.18922 0.0
C1741 C 0.62798 0.19681 0.17773 0.0
C1742 C 0.67227 0.2258 0.14669 0.0
C1743 C 0.67871 0.28761 0.14451 0.0
C1744 C 0.6697 0.2655 0.14951 0.0
C1745 C 0.64942 0.20115 0.17058 0.0
C1746 C 0.6554 0.22322 0.16208 0.0
H1747 H 0.69096 0.33598 0.16966 0.0
H1748 H 0.67211 0.30147 0.17661 0.0
H1749 H 0.69325 0.24779 0.12964 0.0
H1750 H 0.6734 0.15372 0.18763 0.0
H1751 H 0.68223 0.18759 0.16848 0.0
loop_
_geom_bond_atom_site_label_1
_geom_bond_atom_site_label_2
_geom_bond_distance
_geom_bond_site_symmetry_2
_ccdc_geom_bond_type
In0 O1 2.294 . S
In0 O2 2.326 . S
In0 O6 2.266 . S
In0 O7 2.326 . S
In0 O8 2.266 . S
In0 O9 2.326 . S
In0 O11 2.294 . S
In0 O12 2.326 . S
O1 In0 2.294 . S
O1 C10 1.240 . S
O2 In0 2.326 . S
O2 C10 1.252 . S
C3 O6 1.252 . S
C3 O7 1.260 . S
C4 O11 1.240 . S
C4 O12 1.252 . S
C5 O8 1.252 . S
C5 O9 1.260 . S
O6 In0 2.266 . S
O6 C3 1.252 . S
O7 In0 2.326 . S
O7 C3 1.260 . S
O8 In0 2.266 . S
O8 C5 1.252 . S
O9 In0 2.326 . S
O9 C5 1.260 . S
C10 O1 1.240 . S
C10 O2 1.252 . S
O11 In0 2.294 . S
O11 C4 1.240 . S
O12 In0 2.326 . S
O12 C4 1.252 . S
In13 O14 2.294 . S
In13 O15 2.326 . S
In13 O19 2.266 . S
In13 O20 2.326 . S
In13 O21 2.266 . S
In13 O22 2.326 . S
In13 O24 2.294 . S
In13 O25 2.326 . S
O14 In13 2.294 . S
O14 C23 1.240 . S
O15 In13 2.326 . S
O15 C23 1.252 . S
C16 O19 1.252 . S
C16 O20 1.260 . S
C17 O24 1.240 . S
C17 O25 1.252 . S
C18 O21 1.252 . S
C18 O22 1.260 . S
O19 In13 2.266 . S
O19 C16 1.252 . S
O20 In13 2.326 . S
O20 C16 1.260 . S
O21 In13 2.266 . S
O21 C18 1.252 . S
O22 In13 2.326 . S
O22 C18 1.260 . S
C23 O14 1.240 . S
C23 O15 1.252 . S
O24 In13 2.294 . S
O24 C17 1.240 . S
O25 In13 2.326 . S
O25 C17 1.252 . S
In26 O27 2.294 . S
In26 O28 2.326 . S
In26 O32 2.266 . S
In26 O33 2.326 . S
In26 O34 2.266 . S
In26 O35 2.326 . S
In26 O37 2.294 . S
In26 O38 2.326 . S
O27 In26 2.294 . S
O27 C36 1.240 . S
O28 In26 2.326 . S
O28 C36 1.252 . S
C29 O32 1.252 . S
C29 O33 1.260 . S
C30 O37 1.240 . S
C30 O38 1.252 . S
C31 O34 1.252 . S
C31 O35 1.260 . S
O32 In26 2.266 . S
O32 C29 1.252 . S
O33 In26 2.326 . S
O33 C29 1.260 . S
O34 In26 2.266 . S
O34 C31 1.252 . S
O35 In26 2.326 . S
O35 C31 1.260 . S
C36 O27 1.240 . S
C36 O28 1.252 . S
O37 In26 2.294 . S
O37 C30 1.240 . S
O38 In26 2.326 . S
O38 C30 1.252 . S
In39 O40 2.294 . S
In39 O41 2.326 . S
In39 O45 2.266 . S
In39 O46 2.326 . S
In39 O47 2.266 . S
In39 O48 2.326 . S
In39 O50 2.294 . S
In39 O51 2.326 . S
O40 In39 2.294 . S
O40 C49 1.240 . S
O41 In39 2.326 . S
O41 C49 1.252 . S
C42 O45 1.252 . S
C42 O46 1.260 . S
C43 O50 1.240 . S
C43 O51 1.252 . S
C44 O47 1.252 . S
C44 O48 1.260 . S
O45 In39 2.266 . S
O45 C42 1.252 . S
O46 In39 2.326 . S
O46 C42 1.260 . S
O47 In39 2.266 . S
O47 C44 1.252 . S
O48 In39 2.326 . S
O48 C44 1.260 . S
C49 O40 1.240 . S
C49 O41 1.252 . S
O50 In39 2.294 . S
O50 C43 1.240 . S
O51 In39 2.326 . S
O51 C43 1.252 . S
In52 O53 2.294 . S
In52 O54 2.326 . S
In52 O58 2.266 . S
In52 O59 2.326 . S
In52 O60 2.266 . S
In52 O61 2.326 . S
In52 O63 2.294 . S
In52 O64 2.326 . S
O53 In52 2.294 . S
O53 C62 1.240 . S
O54 In52 2.326 . S
O54 C62 1.252 . S
C55 O58 1.252 . S
C55 O59 1.260 . S
C56 O63 1.240 . S
C56 O64 1.252 . S
C57 O60 1.252 . S
C57 O61 1.260 . S
O58 In52 2.266 . S
O58 C55 1.252 . S
O59 In52 2.326 . S
O59 C55 1.260 . S
O60 In52 2.266 . S
O60 C57 1.252 . S
O61 In52 2.326 . S
O61 C57 1.260 . S
C62 O53 1.240 . S
C62 O54 1.252 . S
O63 In52 2.294 . S
O63 C56 1.240 . S
O64 In52 2.326 . S
O64 C56 1.252 . S
In65 O66 2.294 . S
In65 O67 2.326 . S
In65 O71 2.266 . S
In65 O72 2.326 . S
In65 O73 2.266 . S
In65 O74 2.326 . S
In65 O76 2.294 . S
In65 O77 2.326 . S
O66 In65 2.294 . S
O66 C75 1.240 . S
O67 In65 2.326 . S
O67 C75 1.252 . S
C68 O71 1.252 . S
C68 O72 1.260 . S
C69 O76 1.240 . S
C69 O77 1.252 . S
C70 O73 1.252 . S
C70 O74 1.260 . S
O71 In65 2.266 . S
O71 C68 1.252 . S
O72 In65 2.326 . S
O72 C68 1.260 . S
O73 In65 2.266 . S
O73 C70 1.252 . S
O74 In65 2.326 . S
O74 C70 1.260 . S
C75 O66 1.240 . S
C75 O67 1.252 . S
O76 In65 2.294 . S
O76 C69 1.240 . S
O77 In65 2.326 . S
O77 C69 1.252 . S
In78 O79 2.294 . S
In78 O80 2.326 . S
In78 O84 2.266 . S
In78 O85 2.326 . S
In78 O86 2.266 . S
In78 O87 2.326 . S
In78 O89 2.294 . S
In78 O90 2.326 . S
O79 In78 2.294 . S
O79 C88 1.240 . S
O80 In78 2.326 . S
O80 C88 1.252 . S
C81 O84 1.252 . S
C81 O85 1.260 . S
C82 O89 1.240 . S
C82 O90 1.252 . S
C83 O86 1.252 . S
C83 O87 1.260 . S
O84 In78 2.266 . S
O84 C81 1.252 . S
O85 In78 2.326 . S
O85 C81 1.260 . S
O86 In78 2.266 . S
O86 C83 1.252 . S
O87 In78 2.326 . S
O87 C83 1.260 . S
C88 O79 1.240 . S
C88 O80 1.252 . S
O89 In78 2.294 . S
O89 C82 1.240 . S
O90 In78 2.326 . S
O90 C82 1.252 . S
In91 O92 2.294 . S
In91 O93 2.326 . S
In91 O97 2.266 . S
In91 O98 2.326 . S
In91 O99 2.266 . S
In91 O100 2.326 . S
In91 O102 2.294 . S
In91 O103 2.326 . S
O92 In91 2.294 . S
O92 C101 1.240 . S
O93 In91 2.326 . S
O93 C101 1.252 . S
C94 O97 1.252 . S
C94 O98 1.260 . S
C95 O102 1.240 . S
C95 O103 1.252 . S
C96 O99 1.252 . S
C96 O100 1.260 . S
O97 In91 2.266 . S
O97 C94 1.252 . S
O98 In91 2.326 . S
O98 C94 1.260 . S
O99 In91 2.266 . S
O99 C96 1.252 . S
O100 In91 2.326 . S
O100 C96 1.260 . S
C101 O92 1.240 . S
C101 O93 1.252 . S
O102 In91 2.294 . S
O102 C95 1.240 . S
O103 In91 2.326 . S
O103 C95 1.252 . S
In104 O105 2.294 . S
In104 O106 2.326 . S
In104 O110 2.266 . S
In104 O111 2.326 . S
In104 O112 2.266 . S
In104 O113 2.326 . S
In104 O115 2.294 . S
In104 O116 2.326 . S
O105 In104 2.294 . S
O105 C114 1.240 . S
O106 In104 2.326 . S
O106 C114 1.252 . S
C107 O110 1.252 . S
C107 O111 1.260 . S
C108 O115 1.240 . S
C108 O116 1.252 . S
C109 O112 1.252 . S
C109 O113 1.260 . S
O110 In104 2.266 . S
O110 C107 1.252 . S
O111 In104 2.326 . S
O111 C107 1.260 . S
O112 In104 2.266 . S
O112 C109 1.252 . S
O113 In104 2.326 . S
O113 C109 1.260 . S
C114 O105 1.240 . S
C114 O106 1.252 . S
O115 In104 2.294 . S
O115 C108 1.240 . S
O116 In104 2.326 . S
O116 C108 1.252 . S
In117 O118 2.294 . S
In117 O119 2.326 . S
In117 O123 2.266 . S
In117 O124 2.326 . S
In117 O125 2.266 . S
In117 O126 2.326 . S
In117 O128 2.294 . S
In117 O129 2.326 . S
O118 In117 2.294 . S
O118 C127 1.240 . S
O119 In117 2.326 . S
O119 C127 1.252 . S
C120 O123 1.252 . S
C120 O124 1.260 . S
C121 O128 1.240 . S
C121 O129 1.252 . S
C122 O125 1.252 . S
C122 O126 1.260 . S
O123 In117 2.266 . S
O123 C120 1.252 . S
O124 In117 2.326 . S
O124 C120 1.260 . S
O125 In117 2.266 . S
O125 C122 1.252 . S
O126 In117 2.326 . S
O126 C122 1.260 . S
C127 O118 1.240 . S
C127 O119 1.252 . S
O128 In117 2.294 . S
O128 C121 1.240 . S
O129 In117 2.326 . S
O129 C121 1.252 . S
In130 O131 2.294 . S
In130 O132 2.326 . S
In130 O136 2.266 . S
In130 O137 2.326 . S
In130 O138 2.266 . S
In130 O139 2.326 . S
In130 O141 2.294 . S
In130 O142 2.326 . S
O131 In130 2.294 . S
O131 C140 1.240 . S
O132 In130 2.326 . S
O132 C140 1.252 . S
C133 O136 1.252 . S
C133 O137 1.260 . S
C134 O141 1.240 . S
C134 O142 1.252 . S
C135 O138 1.252 . S
C135 O139 1.260 . S
O136 In130 2.266 . S
O136 C133 1.252 . S
O137 In130 2.326 . S
O137 C133 1.260 . S
O138 In130 2.266 . S
O138 C135 1.252 . S
O139 In130 2.326 . S
O139 C135 1.260 . S
C140 O131 1.240 . S
C140 O132 1.252 . S
O141 In130 2.294 . S
O141 C134 1.240 . S
O142 In130 2.326 . S
O142 C134 1.252 . S
In143 O144 2.294 . S
In143 O145 2.326 . S
In143 O149 2.266 . S
In143 O150 2.326 . S
In143 O151 2.266 . S
In143 O152 2.326 . S
In143 O154 2.294 . S
In143 O155 2.326 . S
O144 In143 2.294 . S
O144 C153 1.240 . S
O145 In143 2.326 . S
O145 C153 1.252 . S
C146 O149 1.252 . S
C146 O150 1.260 . S
C147 O154 1.240 . S
C147 O155 1.252 . S
C148 O151 1.252 . S
C148 O152 1.260 . S
O149 In143 2.266 . S
O149 C146 1.252 . S
O150 In143 2.326 . S
O150 C146 1.260 . S
O151 In143 2.266 . S
O151 C148 1.252 . S
O152 In143 2.326 . S
O152 C148 1.260 . S
C153 O144 1.240 . S
C153 O145 1.252 . S
O154 In143 2.294 . S
O154 C147 1.240 . S
O155 In143 2.326 . S
O155 C147 1.252 . S
In156 O157 2.294 . S
In156 O158 2.326 . S
In156 O162 2.266 . S
In156 O163 2.326 . S
In156 O164 2.266 . S
In156 O165 2.326 . S
In156 O167 2.294 . S
In156 O168 2.326 . S
O157 In156 2.294 . S
O157 C166 1.240 . S
O158 In156 2.326 . S
O158 C166 1.252 . S
C159 O162 1.252 . S
C159 O163 1.260 . S
C160 O167 1.240 . S
C160 O168 1.252 . S
C161 O164 1.252 . S
C161 O165 1.260 . S
O162 In156 2.266 . S
O162 C159 1.252 . S
O163 In156 2.326 . S
O163 C159 1.260 . S
O164 In156 2.266 . S
O164 C161 1.252 . S
O165 In156 2.326 . S
O165 C161 1.260 . S
C166 O157 1.240 . S
C166 O158 1.252 . S
O167 In156 2.294 . S
O167 C160 1.240 . S
O168 In156 2.326 . S
O168 C160 1.252 . S
In169 O170 2.294 . S
In169 O171 2.326 . S
In169 O175 2.266 . S
In169 O176 2.326 . S
In169 O177 2.266 . S
In169 O178 2.326 . S
In169 O180 2.294 . S
In169 O181 2.326 . S
O170 In169 2.294 . S
O170 C179 1.240 . S
O171 In169 2.326 . S
O171 C179 1.252 . S
C172 O175 1.252 . S
C172 O176 1.260 . S
C173 O180 1.240 . S
C173 O181 1.252 . S
C174 O177 1.252 . S
C174 O178 1.260 . S
O175 In169 2.266 . S
O175 C172 1.252 . S
O176 In169 2.326 . S
O176 C172 1.260 . S
O177 In169 2.266 . S
O177 C174 1.252 . S
O178 In169 2.326 . S
O178 C174 1.260 . S
C179 O170 1.240 . S
C179 O171 1.252 . S
O180 In169 2.294 . S
O180 C173 1.240 . S
O181 In169 2.326 . S
O181 C173 1.252 . S
In182 O183 2.294 . S
In182 O184 2.326 . S
In182 O188 2.266 . S
In182 O189 2.326 . S
In182 O190 2.266 . S
In182 O191 2.326 . S
In182 O193 2.294 . S
In182 O194 2.326 . S
O183 In182 2.294 . S
O183 C192 1.240 . S
O184 In182 2.326 . S
O184 C192 1.252 . S
C185 O188 1.252 . S
C185 O189 1.260 . S
C186 O193 1.240 . S
C186 O194 1.252 . S
C187 O190 1.252 . S
C187 O191 1.260 . S
O188 In182 2.266 . S
O188 C185 1.252 . S
O189 In182 2.326 . S
O189 C185 1.260 . S
O190 In182 2.266 . S
O190 C187 1.252 . S
O191 In182 2.326 . S
O191 C187 1.260 . S
C192 O183 1.240 . S
C192 O184 1.252 . S
O193 In182 2.294 . S
O193 C186 1.240 . S
O194 In182 2.326 . S
O194 C186 1.252 . S
In195 O196 2.294 . S
In195 O197 2.326 . S
In195 O201 2.266 . S
In195 O202 2.326 . S
In195 O203 2.266 . S
In195 O204 2.326 . S
In195 O206 2.294 . S
In195 O207 2.326 . S
O196 In195 2.294 . S
O196 C205 1.240 . S
O197 In195 2.326 . S
O197 C205 1.252 . S
C198 O201 1.252 . S
C198 O202 1.260 . S
C199 O206 1.240 . S
C199 O207 1.252 . S
C200 O203 1.252 . S
C200 O204 1.260 . S
O201 In195 2.266 . S
O201 C198 1.252 . S
O202 In195 2.326 . S
O202 C198 1.260 . S
O203 In195 2.266 . S
O203 C200 1.252 . S
O204 In195 2.326 . S
O204 C200 1.260 . S
C205 O196 1.240 . S
C205 O197 1.252 . S
O206 In195 2.294 . S
O206 C199 1.240 . S
O207 In195 2.326 . S
O207 C199 1.252 . S
In208 O209 2.294 . S
In208 O210 2.326 . S
In208 O214 2.266 . S
In208 O215 2.326 . S
In208 O216 2.266 . S
In208 O217 2.326 . S
In208 O219 2.294 . S
In208 O220 2.326 . S
O209 In208 2.294 . S
O209 C218 1.240 . S
O210 In208 2.326 . S
O210 C218 1.252 . S
C211 O214 1.252 . S
C211 O215 1.260 . S
C212 O219 1.240 . S
C212 O220 1.252 . S
C213 O216 1.252 . S
C213 O217 1.260 . S
O214 In208 2.266 . S
O214 C211 1.252 . S
O215 In208 2.326 . S
O215 C211 1.260 . S
O216 In208 2.266 . S
O216 C213 1.252 . S
O217 In208 2.326 . S
O217 C213 1.260 . S
C218 O209 1.240 . S
C218 O210 1.252 . S
O219 In208 2.294 . S
O219 C212 1.240 . S
O220 In208 2.326 . S
O220 C212 1.252 . S
In221 O222 2.294 . S
In221 O223 2.326 . S
In221 O227 2.266 . S
In221 O228 2.326 . S
In221 O229 2.266 . S
In221 O230 2.326 . S
In221 O232 2.294 . S
In221 O233 2.326 . S
O222 In221 2.294 . S
O222 C231 1.240 . S
O223 In221 2.326 . S
O223 C231 1.252 . S
C224 O227 1.252 . S
C224 O228 1.260 . S
C225 O232 1.240 . S
C225 O233 1.252 . S
C226 O229 1.252 . S
C226 O230 1.260 . S
O227 In221 2.266 . S
O227 C224 1.252 . S
O228 In221 2.326 . S
O228 C224 1.260 . S
O229 In221 2.266 . S
O229 C226 1.252 . S
O230 In221 2.326 . S
O230 C226 1.260 . S
C231 O222 1.240 . S
C231 O223 1.252 . S
O232 In221 2.294 . S
O232 C225 1.240 . S
O233 In221 2.326 . S
O233 C225 1.252 . S
In234 O235 2.294 . S
In234 O236 2.326 . S
In234 O240 2.266 . S
In234 O241 2.326 . S
In234 O242 2.266 . S
In234 O243 2.326 . S
In234 O245 2.294 . S
In234 O246 2.326 . S
O235 In234 2.294 . S
O235 C244 1.240 . S
O236 In234 2.326 . S
O236 C244 1.252 . S
C237 O240 1.252 . S
C237 O241 1.260 . S
C238 O245 1.240 . S
C238 O246 1.252 . S
C239 O242 1.252 . S
C239 O243 1.260 . S
O240 In234 2.266 . S
O240 C237 1.252 . S
O241 In234 2.326 . S
O241 C237 1.260 . S
O242 In234 2.266 . S
O242 C239 1.252 . S
O243 In234 2.326 . S
O243 C239 1.260 . S
C244 O235 1.240 . S
C244 O236 1.252 . S
O245 In234 2.294 . S
O245 C238 1.240 . S
O246 In234 2.326 . S
O246 C238 1.252 . S
In247 O248 2.294 . S
In247 O249 2.326 . S
In247 O253 2.266 . S
In247 O254 2.326 . S
In247 O255 2.266 . S
In247 O256 2.326 . S
In247 O258 2.294 . S
In247 O259 2.326 . S
O248 In247 2.294 . S
O248 C257 1.240 . S
O249 In247 2.326 . S
O249 C257 1.252 . S
C250 O253 1.252 . S
C250 O254 1.260 . S
C251 O258 1.240 . S
C251 O259 1.252 . S
C252 O255 1.252 . S
C252 O256 1.260 . S
O253 In247 2.266 . S
O253 C250 1.252 . S
O254 In247 2.326 . S
O254 C250 1.260 . S
O255 In247 2.266 . S
O255 C252 1.252 . S
O256 In247 2.326 . S
O256 C252 1.260 . S
C257 O248 1.240 . S
C257 O249 1.252 . S
O258 In247 2.294 . S
O258 C251 1.240 . S
O259 In247 2.326 . S
O259 C251 1.252 . S
In260 O261 2.294 . S
In260 O262 2.326 . S
In260 O266 2.266 . S
In260 O267 2.326 . S
In260 O268 2.266 . S
In260 O269 2.326 . S
In260 O271 2.294 . S
In260 O272 2.326 . S
O261 In260 2.294 . S
O261 C270 1.240 . S
O262 In260 2.326 . S
O262 C270 1.252 . S
C263 O266 1.252 . S
C263 O267 1.260 . S
C264 O271 1.240 . S
C264 O272 1.252 . S
C265 O268 1.252 . S
C265 O269 1.260 . S
O266 In260 2.266 . S
O266 C263 1.252 . S
O267 In260 2.326 . S
O267 C263 1.260 . S
O268 In260 2.266 . S
O268 C265 1.252 . S
O269 In260 2.326 . S
O269 C265 1.260 . S
C270 O261 1.240 . S
C270 O262 1.252 . S
O271 In260 2.294 . S
O271 C264 1.240 . S
O272 In260 2.326 . S
O272 C264 1.252 . S
In273 O274 2.294 . S
In273 O275 2.326 . S
In273 O279 2.266 . S
In273 O280 2.326 . S
In273 O281 2.266 . S
In273 O282 2.326 . S
In273 O284 2.294 . S
In273 O285 2.326 . S
O274 In273 2.294 . S
O274 C283 1.240 . S
O275 In273 2.326 . S
O275 C283 1.252 . S
C276 O279 1.252 . S
C276 O280 1.260 . S
C277 O284 1.240 . S
C277 O285 1.252 . S
C278 O281 1.252 . S
C278 O282 1.260 . S
O279 In273 2.266 . S
O279 C276 1.252 . S
O280 In273 2.326 . S
O280 C276 1.260 . S
O281 In273 2.266 . S
O281 C278 1.252 . S
O282 In273 2.326 . S
O282 C278 1.260 . S
C283 O274 1.240 . S
C283 O275 1.252 . S
O284 In273 2.294 . S
O284 C277 1.240 . S
O285 In273 2.326 . S
O285 C277 1.252 . S
In286 O287 2.294 . S
In286 O288 2.326 . S
In286 O292 2.266 . S
In286 O293 2.326 . S
In286 O294 2.266 . S
In286 O295 2.326 . S
In286 O297 2.294 . S
In286 O298 2.326 . S
O287 In286 2.294 . S
O287 C296 1.240 . S
O288 In286 2.326 . S
O288 C296 1.252 . S
C289 O292 1.252 . S
C289 O293 1.260 . S
C290 O297 1.240 . S
C290 O298 1.252 . S
C291 O294 1.252 . S
C291 O295 1.260 . S
O292 In286 2.266 . S
O292 C289 1.252 . S
O293 In286 2.326 . S
O293 C289 1.260 . S
O294 In286 2.266 . S
O294 C291 1.252 . S
O295 In286 2.326 . S
O295 C291 1.260 . S
C296 O287 1.240 . S
C296 O288 1.252 . S
O297 In286 2.294 . S
O297 C290 1.240 . S
O298 In286 2.326 . S
O298 C290 1.252 . S
In299 O300 2.294 . S
In299 O301 2.326 . S
In299 O305 2.266 . S
In299 O306 2.326 . S
In299 O307 2.266 . S
In299 O308 2.326 . S
In299 O310 2.294 . S
In299 O311 2.326 . S
O300 In299 2.294 . S
O300 C309 1.240 . S
O301 In299 2.326 . S
O301 C309 1.252 . S
C302 O305 1.252 . S
C302 O306 1.260 . S
C303 O310 1.240 . S
C303 O311 1.252 . S
C304 O307 1.252 . S
C304 O308 1.260 . S
O305 In299 2.266 . S
O305 C302 1.252 . S
O306 In299 2.326 . S
O306 C302 1.260 . S
O307 In299 2.266 . S
O307 C304 1.252 . S
O308 In299 2.326 . S
O308 C304 1.260 . S
C309 O300 1.240 . S
C309 O301 1.252 . S
O310 In299 2.294 . S
O310 C303 1.240 . S
O311 In299 2.326 . S
O311 C303 1.252 . S
C312 C313 1.349 . S
C312 C314 1.327 . S
C312 H337 0.950 . S
C313 C312 1.349 . S
C313 C329 1.349 . S
C314 C312 1.327 . S
C314 C333 1.429 . S
C314 H338 0.950 . S
C315 C332 1.574 . S
C315 C334 1.368 . S
C315 H339 0.949 . S
H316 C320 0.949 . S
C317 C318 1.349 . S
C317 C319 1.327 . S
C317 H340 0.950 . S
C318 C317 1.349 . S
C318 C330 1.349 . S
C319 C317 1.327 . S
C319 C335 1.429 . S
C319 H341 0.950 . S
C320 H316 0.949 . S
C320 C328 1.574 . S
C320 C336 1.368 . S
H321 C329 0.950 . S
H322 C327 0.950 . S
H323 C328 0.949 . S
H324 C330 0.950 . S
H325 C331 0.950 . S
H326 C332 0.949 . S
C327 H322 0.950 . S
C327 C329 1.327 . S
C327 C333 1.429 . S
C328 C320 1.574 . S
C328 H323 0.949 . S
C328 C334 1.368 . S
C329 C313 1.349 . S
C329 H321 0.950 . S
C329 C327 1.327 . S
C330 C318 1.349 . S
C330 H324 0.950 . S
C330 C331 1.327 . S
C331 H325 0.950 . S
C331 C330 1.327 . S
C331 C335 1.429 . S
C332 C315 1.574 . S
C332 H326 0.949 . S
C332 C336 1.368 . S
C333 C314 1.429 . S
C333 C327 1.429 . S
C333 C334 1.523 . S
C334 C315 1.368 . S
C334 C328 1.368 . S
C334 C333 1.523 . S
C335 C319 1.429 . S
C335 C331 1.429 . S
C335 C336 1.523 . S
C336 C320 1.368 . S
C336 C332 1.368 . S
C336 C335 1.523 . S
H337 C312 0.950 . S
H338 C314 0.950 . S
H339 C315 0.949 . S
H340 C317 0.950 . S
H341 C319 0.950 . S
C342 C343 1.349 . S
C342 C344 1.327 . S
C342 H367 0.950 . S
C343 C342 1.349 . S
C343 C359 1.349 . S
C344 C342 1.327 . S
C344 C363 1.429 . S
C344 H368 0.950 . S
C345 C362 1.574 . S
C345 C364 1.368 . S
C345 H369 0.949 . S
H346 C350 0.949 . S
C347 C348 1.349 . S
C347 C349 1.327 . S
C347 H370 0.950 . S
C348 C347 1.349 . S
C348 C360 1.349 . S
C349 C347 1.327 . S
C349 C365 1.429 . S
C349 H371 0.950 . S
C350 H346 0.949 . S
C350 C358 1.574 . S
C350 C366 1.368 . S
H351 C359 0.950 . S
H352 C357 0.950 . S
H353 C358 0.949 . S
H354 C360 0.950 . S
H355 C361 0.950 . S
H356 C362 0.949 . S
C357 H352 0.950 . S
C357 C359 1.327 . S
C357 C363 1.429 . S
C358 C350 1.574 . S
C358 H353 0.949 . S
C358 C364 1.368 . S
C359 C343 1.349 . S
C359 H351 0.950 . S
C359 C357 1.327 . S
C360 C348 1.349 . S
C360 H354 0.950 . S
C360 C361 1.327 . S
C361 H355 0.950 . S
C361 C360 1.327 . S
C361 C365 1.429 . S
C362 C345 1.574 . S
C362 H356 0.949 . S
C362 C366 1.368 . S
C363 C344 1.429 . S
C363 C357 1.429 . S
C363 C364 1.523 . S
C364 C345 1.368 . S
C364 C358 1.368 . S
C364 C363 1.523 . S
C365 C349 1.429 . S
C365 C361 1.429 . S
C365 C366 1.523 . S
C366 C350 1.368 . S
C366 C362 1.368 . S
C366 C365 1.523 . S
H367 C342 0.950 . S
H368 C344 0.950 . S
H369 C345 0.949 . S
H370 C347 0.950 . S
H371 C349 0.950 . S
C372 C373 1.349 . S
C372 C374 1.327 . S
C372 H397 0.950 . S
C373 C372 1.349 . S
C373 C389 1.349 . S
C374 C372 1.327 . S
C374 C393 1.429 . S
C374 H398 0.950 . S
C375 C392 1.574 . S
C375 C394 1.368 . S
C375 H399 0.949 . S
H376 C380 0.949 . S
C377 C378 1.349 . S
C377 C379 1.327 . S
C377 H400 0.950 . S
C378 C377 1.349 . S
C378 C390 1.349 . S
C379 C377 1.327 . S
C379 C395 1.429 . S
C379 H401 0.950 . S
C380 H376 0.949 . S
C380 C388 1.574 . S
C380 C396 1.368 . S
H381 C389 0.950 . S
H382 C387 0.950 . S
H383 C388 0.949 . S
H384 C390 0.950 . S
H385 C391 0.950 . S
H386 C392 0.949 . S
C387 H382 0.950 . S
C387 C389 1.327 . S
C387 C393 1.429 . S
C388 C380 1.574 . S
C388 H383 0.949 . S
C388 C394 1.368 . S
C389 C373 1.349 . S
C389 H381 0.950 . S
C389 C387 1.327 . S
C390 C378 1.349 . S
C390 H384 0.950 . S
C390 C391 1.327 . S
C391 H385 0.950 . S
C391 C390 1.327 . S
C391 C395 1.429 . S
C392 C375 1.574 . S
C392 H386 0.949 . S
C392 C396 1.368 . S
C393 C374 1.429 . S
C393 C387 1.429 . S
C393 C394 1.523 . S
C394 C375 1.368 . S
C394 C388 1.368 . S
C394 C393 1.523 . S
C395 C379 1.429 . S
C395 C391 1.429 . S
C395 C396 1.523 . S
C396 C380 1.368 . S
C396 C392 1.368 . S
C396 C395 1.523 . S
H397 C372 0.950 . S
H398 C374 0.950 . S
H399 C375 0.949 . S
H400 C377 0.950 . S
H401 C379 0.950 . S
C402 C403 1.349 . S
C402 C404 1.327 . S
C402 H427 0.950 . S
C403 C402 1.349 . S
C403 C419 1.349 . S
C404 C402 1.327 . S
C404 C423 1.429 . S
C404 H428 0.950 . S
C405 C422 1.574 . S
C405 C424 1.368 . S
C405 H429 0.949 . S
H406 C410 0.949 . S
C407 C408 1.349 . S
C407 C409 1.327 . S
C407 H430 0.950 . S
C408 C407 1.349 . S
C408 C420 1.349 . S
C409 C407 1.327 . S
C409 C425 1.429 . S
C409 H431 0.950 . S
C410 H406 0.949 . S
C410 C418 1.574 . S
C410 C426 1.368 . S
H411 C419 0.950 . S
H412 C417 0.950 . S
H413 C418 0.949 . S
H414 C420 0.950 . S
H415 C421 0.950 . S
H416 C422 0.949 . S
C417 H412 0.950 . S
C417 C419 1.327 . S
C417 C423 1.429 . S
C418 C410 1.574 . S
C418 H413 0.949 . S
C418 C424 1.368 . S
C419 C403 1.349 . S
C419 H411 0.950 . S
C419 C417 1.327 . S
C420 C408 1.349 . S
C420 H414 0.950 . S
C420 C421 1.327 . S
C421 H415 0.950 . S
C421 C420 1.327 . S
C421 C425 1.429 . S
C422 C405 1.574 . S
C422 H416 0.949 . S
C422 C426 1.368 . S
C423 C404 1.429 . S
C423 C417 1.429 . S
C423 C424 1.523 . S
C424 C405 1.368 . S
C424 C418 1.368 . S
C424 C423 1.523 . S
C425 C409 1.429 . S
C425 C421 1.429 . S
C425 C426 1.523 . S
C426 C410 1.368 . S
C426 C422 1.368 . S
C426 C425 1.523 . S
H427 C402 0.950 . S
H428 C404 0.950 . S
H429 C405 0.949 . S
H430 C407 0.950 . S
H431 C409 0.950 . S
C432 C433 1.349 . S
C432 C434 1.327 . S
C432 H457 0.950 . S
C433 C432 1.349 . S
C433 C449 1.349 . S
C434 C432 1.327 . S
C434 C453 1.429 . S
C434 H458 0.950 . S
C435 C452 1.574 . S
C435 C454 1.368 . S
C435 H459 0.949 . S
H436 C440 0.949 . S
C437 C438 1.349 . S
C437 C439 1.327 . S
C437 H460 0.950 . S
C438 C437 1.349 . S
C438 C450 1.349 . S
C439 C437 1.327 . S
C439 C455 1.429 . S
C439 H461 0.950 . S
C440 H436 0.949 . S
C440 C448 1.574 . S
C440 C456 1.368 . S
H441 C449 0.950 . S
H442 C447 0.950 . S
H443 C448 0.949 . S
H444 C450 0.950 . S
H445 C451 0.950 . S
H446 C452 0.949 . S
C447 H442 0.950 . S
C447 C449 1.327 . S
C447 C453 1.429 . S
C448 C440 1.574 . S
C448 H443 0.949 . S
C448 C454 1.368 . S
C449 C433 1.349 . S
C449 H441 0.950 . S
C449 C447 1.327 . S
C450 C438 1.349 . S
C450 H444 0.950 . S
C450 C451 1.327 . S
C451 H445 0.950 . S
C451 C450 1.327 . S
C451 C455 1.429 . S
C452 C435 1.574 . S
C452 H446 0.949 . S
C452 C456 1.368 . S
C453 C434 1.429 . S
C453 C447 1.429 . S
C453 C454 1.523 . S
C454 C435 1.368 . S
C454 C448 1.368 . S
C454 C453 1.523 . S
C455 C439 1.429 . S
C455 C451 1.429 . S
C455 C456 1.523 . S
C456 C440 1.368 . S
C456 C452 1.368 . S
C456 C455 1.523 . S
H457 C432 0.950 . S
H458 C434 0.950 . S
H459 C435 0.949 . S
H460 C437 0.950 . S
H461 C439 0.950 . S
C462 C463 1.349 . S
C462 C464 1.327 . S
C462 H487 0.950 . S
C463 C462 1.349 . S
C463 C479 1.349 . S
C464 C462 1.327 . S
C464 C483 1.429 . S
C464 H488 0.950 . S
C465 C482 1.574 . S
C465 C484 1.368 . S
C465 H489 0.949 . S
H466 C470 0.949 . S
C467 C468 1.349 . S
C467 C469 1.327 . S
C467 H490 0.950 . S
C468 C467 1.349 . S
C468 C480 1.349 . S
C469 C467 1.327 . S
C469 C485 1.429 . S
C469 H491 0.950 . S
C470 H466 0.949 . S
C470 C478 1.574 . S
C470 C486 1.368 . S
H471 C479 0.950 . S
H472 C477 0.950 . S
H473 C478 0.949 . S
H474 C480 0.950 . S
H475 C481 0.950 . S
H476 C482 0.949 . S
C477 H472 0.950 . S
C477 C479 1.327 . S
C477 C483 1.429 . S
C478 C470 1.574 . S
C478 H473 0.949 . S
C478 C484 1.368 . S
C479 C463 1.349 . S
C479 H471 0.950 . S
C479 C477 1.327 . S
C480 C468 1.349 . S
C480 H474 0.950 . S
C480 C481 1.327 . S
C481 H475 0.950 . S
C481 C480 1.327 . S
C481 C485 1.429 . S
C482 C465 1.574 . S
C482 H476 0.949 . S
C482 C486 1.368 . S
C483 C464 1.429 . S
C483 C477 1.429 . S
C483 C484 1.523 . S
C484 C465 1.368 . S
C484 C478 1.368 . S
C484 C483 1.523 . S
C485 C469 1.429 . S
C485 C481 1.429 . S
C485 C486 1.523 . S
C486 C470 1.368 . S
C486 C482 1.368 . S
C486 C485 1.523 . S
H487 C462 0.950 . S
H488 C464 0.950 . S
H489 C465 0.949 . S
H490 C467 0.950 . S
H491 C469 0.950 . S
C492 C493 1.349 . S
C492 C494 1.327 . S
C492 H517 0.950 . S
C493 C492 1.349 . S
C493 C509 1.349 . S
C494 C492 1.327 . S
C494 C513 1.429 . S
C494 H518 0.950 . S
C495 C512 1.574 . S
C495 C514 1.368 . S
C495 H519 0.949 . S
H496 C500 0.949 . S
C497 C498 1.349 . S
C497 C499 1.327 . S
C497 H520 0.950 . S
C498 C497 1.349 . S
C498 C510 1.349 . S
C499 C497 1.327 . S
C499 C515 1.429 . S
C499 H521 0.950 . S
C500 H496 0.949 . S
C500 C508 1.574 . S
C500 C516 1.368 . S
H501 C509 0.950 . S
H502 C507 0.950 . S
H503 C508 0.949 . S
H504 C510 0.950 . S
H505 C511 0.950 . S
H506 C512 0.949 . S
C507 H502 0.950 . S
C507 C509 1.327 . S
C507 C513 1.429 . S
C508 C500 1.574 . S
C508 H503 0.949 . S
C508 C514 1.368 . S
C509 C493 1.349 . S
C509 H501 0.950 . S
C509 C507 1.327 . S
C510 C498 1.349 . S
C510 H504 0.950 . S
C510 C511 1.327 . S
C511 H505 0.950 . S
C511 C510 1.327 . S
C511 C515 1.429 . S
C512 C495 1.574 . S
C512 H506 0.949 . S
C512 C516 1.368 . S
C513 C494 1.429 . S
C513 C507 1.429 . S
C513 C514 1.523 . S
C514 C495 1.368 . S
C514 C508 1.368 . S
C514 C513 1.523 . S
C515 C499 1.429 . S
C515 C511 1.429 . S
C515 C516 1.523 . S
C516 C500 1.368 . S
C516 C512 1.368 . S
C516 C515 1.523 . S
H517 C492 0.950 . S
H518 C494 0.950 . S
H519 C495 0.949 . S
H520 C497 0.950 . S
H521 C499 0.950 . S
C522 C523 1.349 . S
C522 C524 1.327 . S
C522 H547 0.950 . S
C523 C522 1.349 . S
C523 C539 1.349 . S
C524 C522 1.327 . S
C524 C543 1.429 . S
C524 H548 0.950 . S
C525 C542 1.574 . S
C525 C544 1.368 . S
C525 H549 0.949 . S
H526 C530 0.949 . S
C527 C528 1.349 . S
C527 C529 1.327 . S
C527 H550 0.950 . S
C528 C527 1.349 . S
C528 C540 1.349 . S
C529 C527 1.327 . S
C529 C545 1.429 . S
C529 H551 0.950 . S
C530 H526 0.949 . S
C530 C538 1.574 . S
C530 C546 1.368 . S
H531 C539 0.950 . S
H532 C537 0.950 . S
H533 C538 0.949 . S
H534 C540 0.950 . S
H535 C541 0.950 . S
H536 C542 0.949 . S
C537 H532 0.950 . S
C537 C539 1.327 . S
C537 C543 1.429 . S
C538 C530 1.574 . S
C538 H533 0.949 . S
C538 C544 1.368 . S
C539 C523 1.349 . S
C539 H531 0.950 . S
C539 C537 1.327 . S
C540 C528 1.349 . S
C540 H534 0.950 . S
C540 C541 1.327 . S
C541 H535 0.950 . S
C541 C540 1.327 . S
C541 C545 1.429 . S
C542 C525 1.574 . S
C542 H536 0.949 . S
C542 C546 1.368 . S
C543 C524 1.429 . S
C543 C537 1.429 . S
C543 C544 1.523 . S
C544 C525 1.368 . S
C544 C538 1.368 . S
C544 C543 1.523 . S
C545 C529 1.429 . S
C545 C541 1.429 . S
C545 C546 1.523 . S
C546 C530 1.368 . S
C546 C542 1.368 . S
C546 C545 1.523 . S
H547 C522 0.950 . S
H548 C524 0.950 . S
H549 C525 0.949 . S
H550 C527 0.950 . S
H551 C529 0.950 . S
C552 C553 1.349 . S
C552 C554 1.327 . S
C552 H577 0.950 . S
C553 C552 1.349 . S
C553 C569 1.349 . S
C554 C552 1.327 . S
C554 C573 1.429 . S
C554 H578 0.950 . S
C555 C572 1.574 . S
C555 C574 1.368 . S
C555 H579 0.949 . S
H556 C560 0.949 . S
C557 C558 1.349 . S
C557 C559 1.327 . S
C557 H580 0.950 . S
C558 C557 1.349 . S
C558 C570 1.349 . S
C559 C557 1.327 . S
C559 C575 1.429 . S
C559 H581 0.950 . S
C560 H556 0.949 . S
C560 C568 1.574 . S
C560 C576 1.368 . S
H561 C569 0.950 . S
H562 C567 0.950 . S
H563 C568 0.949 . S
H564 C570 0.950 . S
H565 C571 0.950 . S
H566 C572 0.949 . S
C567 H562 0.950 . S
C567 C569 1.327 . S
C567 C573 1.429 . S
C568 C560 1.574 . S
C568 H563 0.949 . S
C568 C574 1.368 . S
C569 C553 1.349 . S
C569 H561 0.950 . S
C569 C567 1.327 . S
C570 C558 1.349 . S
C570 H564 0.950 . S
C570 C571 1.327 . S
C571 H565 0.950 . S
C571 C570 1.327 . S
C571 C575 1.429 . S
C572 C555 1.574 . S
C572 H566 0.949 . S
C572 C576 1.368 . S
C573 C554 1.429 . S
C573 C567 1.429 . S
C573 C574 1.523 . S
C574 C555 1.368 . S
C574 C568 1.368 . S
C574 C573 1.523 . S
C575 C559 1.429 . S
C575 C571 1.429 . S
C575 C576 1.523 . S
C576 C560 1.368 . S
C576 C572 1.368 . S
C576 C575 1.523 . S
H577 C552 0.950 . S
H578 C554 0.950 . S
H579 C555 0.949 . S
H580 C557 0.950 . S
H581 C559 0.950 . S
C582 C583 1.349 . S
C582 C584 1.327 . S
C582 H607 0.950 . S
C583 C582 1.349 . S
C583 C599 1.349 . S
C584 C582 1.327 . S
C584 C603 1.429 . S
C584 H608 0.950 . S
C585 C602 1.574 . S
C585 C604 1.368 . S
C585 H609 0.949 . S
H586 C590 0.949 . S
C587 C588 1.349 . S
C587 C589 1.327 . S
C587 H610 0.950 . S
C588 C587 1.349 . S
C588 C600 1.349 . S
C589 C587 1.327 . S
C589 C605 1.429 . S
C589 H611 0.950 . S
C590 H586 0.949 . S
C590 C598 1.574 . S
C590 C606 1.368 . S
H591 C599 0.950 . S
H592 C597 0.950 . S
H593 C598 0.949 . S
H594 C600 0.950 . S
H595 C601 0.950 . S
H596 C602 0.949 . S
C597 H592 0.950 . S
C597 C599 1.327 . S
C597 C603 1.429 . S
C598 C590 1.574 . S
C598 H593 0.949 . S
C598 C604 1.368 . S
C599 C583 1.349 . S
C599 H591 0.950 . S
C599 C597 1.327 . S
C600 C588 1.349 . S
C600 H594 0.950 . S
C600 C601 1.327 . S
C601 H595 0.950 . S
C601 C600 1.327 . S
C601 C605 1.429 . S
C602 C585 1.574 . S
C602 H596 0.949 . S
C602 C606 1.368 . S
C603 C584 1.429 . S
C603 C597 1.429 . S
C603 C604 1.523 . S
C604 C585 1.368 . S
C604 C598 1.368 . S
C604 C603 1.523 . S
C605 C589 1.429 . S
C605 C601 1.429 . S
C605 C606 1.523 . S
C606 C590 1.368 . S
C606 C602 1.368 . S
C606 C605 1.523 . S
H607 C582 0.950 . S
H608 C584 0.950 . S
H609 C585 0.949 . S
H610 C587 0.950 . S
H611 C589 0.950 . S
C612 C613 1.349 . S
C612 C614 1.327 . S
C612 H637 0.950 . S
C613 C612 1.349 . S
C613 C629 1.349 . S
C614 C612 1.327 . S
C614 C633 1.429 . S
C614 H638 0.950 . S
C615 C632 1.574 . S
C615 C634 1.368 . S
C615 H639 0.949 . S
H616 C620 0.949 . S
C617 C618 1.349 . S
C617 C619 1.327 . S
C617 H640 0.950 . S
C618 C617 1.349 . S
C618 C630 1.349 . S
C619 C617 1.327 . S
C619 C635 1.429 . S
C619 H641 0.950 . S
C620 H616 0.949 . S
C620 C628 1.574 . S
C620 C636 1.368 . S
H621 C629 0.950 . S
H622 C627 0.950 . S
H623 C628 0.949 . S
H624 C630 0.950 . S
H625 C631 0.950 . S
H626 C632 0.949 . S
C627 H622 0.950 . S
C627 C629 1.327 . S
C627 C633 1.429 . S
C628 C620 1.574 . S
C628 H623 0.949 . S
C628 C634 1.368 . S
C629 C613 1.349 . S
C629 H621 0.950 . S
C629 C627 1.327 . S
C630 C618 1.349 . S
C630 H624 0.950 . S
C630 C631 1.327 . S
C631 H625 0.950 . S
C631 C630 1.327 . S
C631 C635 1.429 . S
C632 C615 1.574 . S
C632 H626 0.949 . S
C632 C636 1.368 . S
C633 C614 1.429 . S
C633 C627 1.429 . S
C633 C634 1.523 . S
C634 C615 1.368 . S
C634 C628 1.368 . S
C634 C633 1.523 . S
C635 C619 1.429 . S
C635 C631 1.429 . S
C635 C636 1.523 . S
C636 C620 1.368 . S
C636 C632 1.368 . S
C636 C635 1.523 . S
H637 C612 0.950 . S
H638 C614 0.950 . S
H639 C615 0.949 . S
H640 C617 0.950 . S
H641 C619 0.950 . S
C642 C643 1.349 . S
C642 C644 1.327 . S
C642 H667 0.950 . S
C643 C642 1.349 . S
C643 C659 1.349 . S
C644 C642 1.327 . S
C644 C663 1.429 . S
C644 H668 0.950 . S
C645 C662 1.574 . S
C645 C664 1.368 . S
C645 H669 0.949 . S
H646 C650 0.949 . S
C647 C648 1.349 . S
C647 C649 1.327 . S
C647 H670 0.950 . S
C648 C647 1.349 . S
C648 C660 1.349 . S
C649 C647 1.327 . S
C649 C665 1.429 . S
C649 H671 0.950 . S
C650 H646 0.949 . S
C650 C658 1.574 . S
C650 C666 1.368 . S
H651 C659 0.950 . S
H652 C657 0.950 . S
H653 C658 0.949 . S
H654 C660 0.950 . S
H655 C661 0.950 . S
H656 C662 0.949 . S
C657 H652 0.950 . S
C657 C659 1.327 . S
C657 C663 1.429 . S
C658 C650 1.574 . S
C658 H653 0.949 . S
C658 C664 1.368 . S
C659 C643 1.349 . S
C659 H651 0.950 . S
C659 C657 1.327 . S
C660 C648 1.349 . S
C660 H654 0.950 . S
C660 C661 1.327 . S
C661 H655 0.950 . S
C661 C660 1.327 . S
C661 C665 1.429 . S
C662 C645 1.574 . S
C662 H656 0.949 . S
C662 C666 1.368 . S
C663 C644 1.429 . S
C663 C657 1.429 . S
C663 C664 1.523 . S
C664 C645 1.368 . S
C664 C658 1.368 . S
C664 C663 1.523 . S
C665 C649 1.429 . S
C665 C661 1.429 . S
C665 C666 1.523 . S
C666 C650 1.368 . S
C666 C662 1.368 . S
C666 C665 1.523 . S
H667 C642 0.950 . S
H668 C644 0.950 . S
H669 C645 0.949 . S
H670 C647 0.950 . S
H671 C649 0.950 . S
C672 C673 1.349 . S
C672 C674 1.327 . S
C672 H697 0.950 . S
C673 C672 1.349 . S
C673 C689 1.349 . S
C674 C672 1.327 . S
C674 C693 1.429 . S
C674 H698 0.950 . S
C675 C692 1.574 1_565 S
C675 C694 1.368 . S
C675 H699 0.949 . S
H676 C680 0.949 . S
C677 C678 1.349 . S
C677 C679 1.327 . S
C677 H700 0.950 . S
C678 C677 1.349 . S
C678 C690 1.349 . S
C679 C677 1.327 . S
C679 C695 1.429 . S
C679 H701 0.950 . S
C680 H676 0.949 . S
C680 C688 1.574 1_545 S
C680 C696 1.368 . S
H681 C689 0.950 . S
H682 C687 0.950 . S
H683 C688 0.949 . S
H684 C690 0.950 . S
H685 C691 0.950 . S
H686 C692 0.949 . S
C687 H682 0.950 . S
C687 C689 1.327 . S
C687 C693 1.429 . S
C688 C680 1.574 1_565 S
C688 H683 0.949 . S
C688 C694 1.368 . S
C689 C673 1.349 . S
C689 H681 0.950 . S
C689 C687 1.327 . S
C690 C678 1.349 . S
C690 H684 0.950 . S
C690 C691 1.327 . S
C691 H685 0.950 . S
C691 C690 1.327 . S
C691 C695 1.429 . S
C692 C675 1.574 1_545 S
C692 H686 0.949 . S
C692 C696 1.368 . S
C693 C674 1.429 . S
C693 C687 1.429 . S
C693 C694 1.523 . S
C694 C675 1.368 . S
C694 C688 1.368 . S
C694 C693 1.523 . S
C695 C679 1.429 . S
C695 C691 1.429 . S
C695 C696 1.523 . S
C696 C680 1.368 . S
C696 C692 1.368 . S
C696 C695 1.523 . S
H697 C672 0.950 . S
H698 C674 0.950 . S
H699 C675 0.949 . S
H700 C677 0.950 . S
H701 C679 0.950 . S
C702 C703 1.349 . S
C702 C704 1.327 . S
C702 H727 0.950 . S
C703 C702 1.349 . S
C703 C719 1.349 . S
C704 C702 1.327 . S
C704 C723 1.429 . S
C704 H728 0.950 . S
C705 C722 1.574 1_655 S
C705 C724 1.368 . S
C705 H729 0.949 . S
H706 C710 0.949 . S
C707 C708 1.349 . S
C707 C709 1.327 . S
C707 H730 0.950 . S
C708 C707 1.349 . S
C708 C720 1.349 . S
C709 C707 1.327 . S
C709 C725 1.429 . S
C709 H731 0.950 . S
C710 H706 0.949 . S
C710 C718 1.574 1_455 S
C710 C726 1.368 . S
H711 C719 0.950 . S
H712 C717 0.950 . S
H713 C718 0.949 . S
H714 C720 0.950 . S
H715 C721 0.950 . S
H716 C722 0.949 . S
C717 H712 0.950 . S
C717 C719 1.327 . S
C717 C723 1.429 . S
C718 C710 1.574 1_655 S
C718 H713 0.949 . S
C718 C724 1.368 . S
C719 C703 1.349 . S
C719 H711 0.950 . S
C719 C717 1.327 . S
C720 C708 1.349 . S
C720 H714 0.950 . S
C720 C721 1.327 . S
C721 H715 0.950 . S
C721 C720 1.327 . S
C721 C725 1.429 . S
C722 C705 1.574 1_455 S
C722 H716 0.949 . S
C722 C726 1.368 . S
C723 C704 1.429 . S
C723 C717 1.429 . S
C723 C724 1.523 . S
C724 C705 1.368 . S
C724 C718 1.368 . S
C724 C723 1.523 . S
C725 C709 1.429 . S
C725 C721 1.429 . S
C725 C726 1.523 . S
C726 C710 1.368 . S
C726 C722 1.368 . S
C726 C725 1.523 . S
H727 C702 0.950 . S
H728 C704 0.950 . S
H729 C705 0.949 . S
H730 C707 0.950 . S
H731 C709 0.950 . S
C732 C733 1.349 . S
C732 C734 1.327 . S
C732 H757 0.950 . S
C733 C732 1.349 . S
C733 C749 1.349 . S
C734 C732 1.327 . S
C734 C753 1.429 . S
C734 H758 0.950 . S
C735 C752 1.604 . S
C735 C754 1.339 1_565 S
C735 H759 0.949 . S
H736 C740 0.949 . S
C737 C738 1.349 . S
C737 C739 1.327 . S
C737 H760 0.950 . S
C738 C737 1.349 . S
C738 C750 1.349 . S
C739 C737 1.327 . S
C739 C755 1.429 . S
C739 H761 0.950 . S
C740 H736 0.949 . S
C740 C748 1.587 . S
C740 C756 1.356 1_545 S
H741 C749 0.950 . S
H742 C747 0.950 . S
H743 C748 0.949 . S
H744 C750 0.950 . S
H745 C751 0.950 . S
H746 C752 0.949 . S
C747 H742 0.950 . S
C747 C749 1.327 . S
C747 C753 1.429 . S
C748 C740 1.587 . S
C748 H743 0.949 . S
C748 C754 1.368 . S
C749 C733 1.349 . S
C749 H741 0.950 . S
C749 C747 1.327 . S
C750 C738 1.349 . S
C750 H744 0.950 . S
C750 C751 1.327 . S
C751 H745 0.950 . S
C751 C750 1.327 . S
C751 C755 1.429 . S
C752 C735 1.604 . S
C752 H746 0.949 . S
C752 C756 1.368 . S
C753 C734 1.429 . S
C753 C747 1.429 . S
C753 C754 1.523 . S
C754 C735 1.339 1_545 S
C754 C748 1.368 . S
C754 C753 1.523 . S
C755 C739 1.429 . S
C755 C751 1.429 . S
C755 C756 1.523 . S
C756 C740 1.356 1_565 S
C756 C752 1.368 . S
C756 C755 1.523 . S
H757 C732 0.950 . S
H758 C734 0.950 . S
H759 C735 0.949 . S
H760 C737 0.950 . S
H761 C739 0.950 . S
C762 C763 1.349 . S
C762 C764 1.327 . S
C762 H787 0.950 . S
C763 C762 1.349 . S
C763 C779 1.349 . S
C764 C762 1.327 . S
C764 C783 1.429 . S
C764 H788 0.950 . S
C765 C782 1.574 1_455 S
C765 C784 1.368 . S
C765 H789 0.949 . S
H766 C770 0.949 . S
C767 C768 1.349 . S
C767 C769 1.327 . S
C767 H790 0.950 . S
C768 C767 1.349 . S
C768 C780 1.349 . S
C769 C767 1.327 . S
C769 C785 1.429 . S
C769 H791 0.950 . S
C770 H766 0.949 . S
C770 C778 1.574 1_655 S
C770 C786 1.368 . S
H771 C779 0.950 . S
H772 C777 0.950 . S
H773 C778 0.949 . S
H774 C780 0.950 . S
H775 C781 0.950 . S
H776 C782 0.949 . S
C777 H772 0.950 . S
C777 C779 1.327 . S
C777 C783 1.429 . S
C778 C770 1.574 1_455 S
C778 H773 0.949 . S
C778 C784 1.368 . S
C779 C763 1.349 . S
C779 H771 0.950 . S
C779 C777 1.327 . S
C780 C768 1.349 . S
C780 H774 0.950 . S
C780 C781 1.327 . S
C781 H775 0.950 . S
C781 C780 1.327 . S
C781 C785 1.429 . S
C782 C765 1.574 1_655 S
C782 H776 0.949 . S
C782 C786 1.368 . S
C783 C764 1.429 . S
C783 C777 1.429 . S
C783 C784 1.523 . S
C784 C765 1.368 . S
C784 C778 1.368 . S
C784 C783 1.523 . S
C785 C769 1.429 . S
C785 C781 1.429 . S
C785 C786 1.523 . S
C786 C770 1.368 . S
C786 C782 1.368 . S
C786 C785 1.523 . S
H787 C762 0.950 . S
H788 C764 0.950 . S
H789 C765 0.949 . S
H790 C767 0.950 . S
H791 C769 0.950 . S
C792 C793 1.349 . S
C792 C794 1.327 . S
C792 H817 0.950 . S
C793 C792 1.349 . S
C793 C809 1.349 . S
C794 C792 1.327 . S
C794 C813 1.429 . S
C794 H818 0.950 . S
C795 C812 1.574 . S
C795 C814 1.368 1_545 S
C795 H819 0.949 . S
H796 C800 0.949 . S
C797 C798 1.349 . S
C797 C799 1.327 . S
C797 H820 0.950 . S
C798 C797 1.349 . S
C798 C810 1.349 . S
C799 C797 1.327 . S
C799 C815 1.429 . S
C799 H821 0.950 . S
C800 H796 0.949 . S
C800 C808 1.574 . S
C800 C816 1.368 1_565 S
H801 C809 0.950 . S
H802 C807 0.950 . S
H803 C808 0.949 . S
H804 C810 0.950 . S
H805 C811 0.950 . S
H806 C812 0.949 . S
C807 H802 0.950 . S
C807 C809 1.327 . S
C807 C813 1.429 . S
C808 C800 1.574 . S
C808 H803 0.949 . S
C808 C814 1.368 . S
C809 C793 1.349 . S
C809 H801 0.950 . S
C809 C807 1.327 . S
C810 C798 1.349 . S
C810 H804 0.950 . S
C810 C811 1.327 . S
C811 H805 0.950 . S
C811 C810 1.327 . S
C811 C815 1.429 . S
C812 C795 1.574 . S
C812 H806 0.949 . S
C812 C816 1.368 . S
C813 C794 1.429 . S
C813 C807 1.429 . S
C813 C814 1.523 . S
C814 C795 1.368 1_565 S
C814 C808 1.368 . S
C814 C813 1.523 . S
C815 C799 1.429 . S
C815 C811 1.429 . S
C815 C816 1.523 . S
C816 C800 1.368 1_545 S
C816 C812 1.368 . S
C816 C815 1.523 . S
H817 C792 0.950 . S
H818 C794 0.950 . S
H819 C795 0.949 . S
H820 C797 0.950 . S
H821 C799 0.950 . S
C822 C823 1.349 . S
C822 C824 1.327 . S
C822 H847 0.950 . S
C823 C822 1.349 . S
C823 C839 1.349 . S
C824 C822 1.327 . S
C824 C843 1.429 . S
C824 H848 0.950 . S
C825 C842 1.574 1_655 S
C825 C844 1.368 . S
C825 H849 0.949 . S
H826 C830 0.949 . S
C827 C828 1.349 . S
C827 C829 1.327 . S
C827 H850 0.950 . S
C828 C827 1.349 . S
C828 C840 1.349 . S
C829 C827 1.327 . S
C829 C845 1.429 . S
C829 H851 0.950 . S
C830 H826 0.949 . S
C830 C838 1.574 1_455 S
C830 C846 1.368 . S
H831 C839 0.950 . S
H832 C837 0.950 . S
H833 C838 0.949 . S
H834 C840 0.950 . S
H835 C841 0.950 . S
H836 C842 0.949 . S
C837 H832 0.950 . S
C837 C839 1.327 . S
C837 C843 1.429 . S
C838 C830 1.574 1_655 S
C838 H833 0.949 . S
C838 C844 1.368 . S
C839 C823 1.349 . S
C839 H831 0.950 . S
C839 C837 1.327 . S
C840 C828 1.349 . S
C840 H834 0.950 . S
C840 C841 1.327 . S
C841 H835 0.950 . S
C841 C840 1.327 . S
C841 C845 1.429 . S
C842 C825 1.574 1_455 S
C842 H836 0.949 . S
C842 C846 1.368 . S
C843 C824 1.429 . S
C843 C837 1.429 . S
C843 C844 1.523 . S
C844 C825 1.368 . S
C844 C838 1.368 . S
C844 C843 1.523 . S
C845 C829 1.429 . S
C845 C841 1.429 . S
C845 C846 1.523 . S
C846 C830 1.368 . S
C846 C842 1.368 . S
C846 C845 1.523 . S
H847 C822 0.950 . S
H848 C824 0.950 . S
H849 C825 0.949 . S
H850 C827 0.950 . S
H851 C829 0.950 . S
C852 C853 1.349 . S
C852 C854 1.327 . S
C852 H877 0.950 . S
C853 C852 1.349 . S
C853 C869 1.349 . S
C854 C852 1.327 . S
C854 C873 1.429 . S
C854 H878 0.950 . S
C855 C872 1.574 1_565 S
C855 C874 1.368 . S
C855 H879 0.949 . S
H856 C860 0.949 . S
C857 C858 1.349 . S
C857 C859 1.327 . S
C857 H880 0.950 . S
C858 C857 1.349 . S
C858 C870 1.349 . S
C859 C857 1.327 . S
C859 C875 1.429 . S
C859 H881 0.950 . S
C860 H856 0.949 . S
C860 C868 1.574 1_545 S
C860 C876 1.368 . S
H861 C869 0.950 . S
H862 C867 0.950 . S
H863 C868 0.949 . S
H864 C870 0.950 . S
H865 C871 0.950 . S
H866 C872 0.949 . S
C867 H862 0.950 . S
C867 C869 1.327 . S
C867 C873 1.429 . S
C868 C860 1.574 1_565 S
C868 H863 0.949 . S
C868 C874 1.368 . S
C869 C853 1.349 . S
C869 H861 0.950 . S
C869 C867 1.327 . S
C870 C858 1.349 . S
C870 H864 0.950 . S
C870 C871 1.327 . S
C871 H865 0.950 . S
C871 C870 1.327 . S
C871 C875 1.429 . S
C872 C855 1.574 1_545 S
C872 H866 0.949 . S
C872 C876 1.368 . S
C873 C854 1.429 . S
C873 C867 1.429 . S
C873 C874 1.523 . S
C874 C855 1.368 . S
C874 C868 1.368 . S
C874 C873 1.523 . S
C875 C859 1.429 . S
C875 C871 1.429 . S
C875 C876 1.523 . S
C876 C860 1.368 . S
C876 C872 1.368 . S
C876 C875 1.523 . S
H877 C852 0.950 . S
H878 C854 0.950 . S
H879 C855 0.949 . S
H880 C857 0.950 . S
H881 C859 0.950 . S
C882 C883 1.349 . S
C882 C884 1.327 . S
C882 H907 0.950 . S
C883 C882 1.349 . S
C883 C899 1.349 . S
C884 C882 1.327 . S
C884 C903 1.429 . S
C884 H908 0.950 . S
C885 C902 1.574 1_455 S
C885 C904 1.368 . S
C885 H909 0.949 . S
H886 C890 0.949 . S
C887 C888 1.349 . S
C887 C889 1.327 . S
C887 H910 0.950 . S
C888 C887 1.349 . S
C888 C900 1.349 . S
C889 C887 1.327 . S
C889 C905 1.429 . S
C889 H911 0.950 . S
C890 H886 0.949 . S
C890 C898 1.574 1_655 S
C890 C906 1.368 . S
H891 C899 0.950 . S
H892 C897 0.950 . S
H893 C898 0.949 . S
H894 C900 0.950 . S
H895 C901 0.950 . S
H896 C902 0.949 . S
C897 H892 0.950 . S
C897 C899 1.327 . S
C897 C903 1.429 . S
C898 C890 1.574 1_455 S
C898 H893 0.949 . S
C898 C904 1.368 . S
C899 C883 1.349 . S
C899 H891 0.950 . S
C899 C897 1.327 . S
C900 C888 1.349 . S
C900 H894 0.950 . S
C900 C901 1.327 . S
C901 H895 0.950 . S
C901 C900 1.327 . S
C901 C905 1.429 . S
C902 C885 1.574 1_655 S
C902 H896 0.949 . S
C902 C906 1.368 . S
C903 C884 1.429 . S
C903 C897 1.429 . S
C903 C904 1.523 . S
C904 C885 1.368 . S
C904 C898 1.368 . S
C904 C903 1.523 . S
C905 C889 1.429 . S
C905 C901 1.429 . S
C905 C906 1.523 . S
C906 C890 1.368 . S
C906 C902 1.368 . S
C906 C905 1.523 . S
H907 C882 0.950 . S
H908 C884 0.950 . S
H909 C885 0.949 . S
H910 C887 0.950 . S
H911 C889 0.950 . S
C912 C913 1.349 . S
C912 C914 1.327 . S
C912 H937 0.950 . S
C913 C912 1.349 . S
C913 C929 1.349 . S
C914 C912 1.327 . S
C914 C933 1.429 . S
C914 H938 0.950 . S
C915 C932 1.574 . S
C915 C934 1.368 1_554 S
C915 H939 0.949 . S
H916 C920 0.949 . S
C917 C918 1.349 . S
C917 C919 1.327 . S
C917 H940 0.950 . S
C918 C917 1.349 . S
C918 C930 1.349 . S
C919 C917 1.327 . S
C919 C935 1.429 . S
C919 H941 0.950 . S
C920 H916 0.949 . S
C920 C928 1.574 . S
C920 C936 1.368 1_556 S
H921 C929 0.950 . S
H922 C927 0.950 . S
H923 C928 0.949 . S
H924 C930 0.950 . S
H925 C931 0.950 . S
H926 C932 0.949 . S
C927 H922 0.950 . S
C927 C929 1.327 . S
C927 C933 1.429 . S
C928 C920 1.574 . S
C928 H923 0.949 . S
C928 C934 1.368 . S
C929 C913 1.349 . S
C929 H921 0.950 . S
C929 C927 1.327 . S
C930 C918 1.349 . S
C930 H924 0.950 . S
C930 C931 1.327 . S
C931 H925 0.950 . S
C931 C930 1.327 . S
C931 C935 1.429 . S
C932 C915 1.574 . S
C932 H926 0.949 . S
C932 C936 1.368 . S
C933 C914 1.429 . S
C933 C927 1.429 . S
C933 C934 1.523 . S
C934 C915 1.368 1_556 S
C934 C928 1.368 . S
C934 C933 1.523 . S
C935 C919 1.429 . S
C935 C931 1.429 . S
C935 C936 1.523 . S
C936 C920 1.368 1_554 S
C936 C932 1.368 . S
C936 C935 1.523 . S
H937 C912 0.950 . S
H938 C914 0.950 . S
H939 C915 0.949 . S
H940 C917 0.950 . S
H941 C919 0.950 . S
C942 C943 1.349 . S
C942 C944 1.327 . S
C942 H967 0.950 . S
C943 C942 1.349 . S
C943 C959 1.349 . S
C944 C942 1.327 . S
C944 C963 1.429 . S
C944 H968 0.950 . S
C945 C962 1.574 . S
C945 C964 1.368 . S
C945 H969 0.949 . S
H946 C950 0.949 . S
C947 C948 1.349 . S
C947 C949 1.327 . S
C947 H970 0.950 . S
C948 C947 1.349 . S
C948 C960 1.349 . S
C949 C947 1.327 . S
C949 C965 1.429 . S
C949 H971 0.950 . S
C950 H946 0.949 . S
C950 C958 1.574 . S
C950 C966 1.368 . S
H951 C959 0.950 . S
H952 C957 0.950 . S
H953 C958 0.949 . S
H954 C960 0.950 . S
H955 C961 0.950 . S
H956 C962 0.949 . S
C957 H952 0.950 . S
C957 C959 1.327 . S
C957 C963 1.429 . S
C958 C950 1.574 . S
C958 H953 0.949 . S
C958 C964 1.368 1_556 S
C959 C943 1.349 . S
C959 H951 0.950 . S
C959 C957 1.327 . S
C960 C948 1.349 . S
C960 H954 0.950 . S
C960 C961 1.327 . S
C961 H955 0.950 . S
C961 C960 1.327 . S
C961 C965 1.429 . S
C962 C945 1.574 . S
C962 H956 0.949 . S
C962 C966 1.368 1_554 S
C963 C944 1.429 . S
C963 C957 1.429 . S
C963 C964 1.523 . S
C964 C945 1.368 . S
C964 C958 1.368 1_554 S
C964 C963 1.523 . S
C965 C949 1.429 . S
C965 C961 1.429 . S
C965 C966 1.523 . S
C966 C950 1.368 . S
C966 C962 1.368 1_556 S
C966 C965 1.523 . S
H967 C942 0.950 . S
H968 C944 0.950 . S
H969 C945 0.949 . S
H970 C947 0.950 . S
H971 C949 0.950 . S
C972 C973 1.349 . S
C972 C974 1.327 . S
C972 H997 0.950 . S
C973 C972 1.349 . S
C973 C989 1.349 . S
C974 C972 1.327 . S
C974 C993 1.429 . S
C974 H998 0.950 . S
C975 C992 1.574 1_556 S
C975 C994 1.368 . S
C975 H999 0.949 . S
H976 C980 0.949 . S
C977 C978 1.349 . S
C977 C979 1.327 . S
C977 H1000 0.950 . S
C978 C977 1.349 . S
C978 C990 1.349 . S
C979 C977 1.327 . S
C979 C995 1.429 . S
C979 H1001 0.950 . S
C980 H976 0.949 . S
C980 C988 1.574 1_554 S
C980 C996 1.368 . S
H981 C989 0.950 . S
H982 C987 0.950 . S
H983 C988 0.949 . S
H984 C990 0.950 . S
H985 C991 0.950 . S
H986 C992 0.949 . S
C987 H982 0.950 . S
C987 C989 1.327 . S
C987 C993 1.429 . S
C988 C980 1.574 1_556 S
C988 H983 0.949 . S
C988 C994 1.368 . S
C989 C973 1.349 . S
C989 H981 0.950 . S
C989 C987 1.327 . S
C990 C978 1.349 . S
C990 H984 0.950 . S
C990 C991 1.327 . S
C991 H985 0.950 . S
C991 C990 1.327 . S
C991 C995 1.429 . S
C992 C975 1.574 1_554 S
C992 H986 0.949 . S
C992 C996 1.368 . S
C993 C974 1.429 . S
C993 C987 1.429 . S
C993 C994 1.523 . S
C994 C975 1.368 . S
C994 C988 1.368 . S
C994 C993 1.523 . S
C995 C979 1.429 . S
C995 C991 1.429 . S
C995 C996 1.523 . S
C996 C980 1.368 . S
C996 C992 1.368 . S
C996 C995 1.523 . S
H997 C972 0.950 . S
H998 C974 0.950 . S
H999 C975 0.949 . S
H1000 C977 0.950 . S
H1001 C979 0.950 . S
C1002 C1003 1.349 . S
C1002 C1004 1.327 . S
C1002 H1027 0.950 . S
C1003 C1002 1.349 . S
C1003 C1019 1.349 . S
C1004 C1002 1.327 . S
C1004 C1023 1.429 . S
C1004 H1028 0.950 . S
C1005 C1022 1.574 . S
C1005 C1024 1.368 . S
C1005 H1029 0.949 . S
H1006 C1010 0.949 . S
C1007 C1008 1.349 . S
C1007 C1009 1.327 . S
C1007 H1030 0.950 . S
C1008 C1007 1.349 . S
C1008 C1020 1.349 . S
C1009 C1007 1.327 . S
C1009 C1025 1.429 . S
C1009 H1031 0.950 . S
C1010 H1006 0.949 . S
C1010 C1018 1.574 . S
C1010 C1026 1.368 . S
H1011 C1019 0.950 . S
H1012 C1017 0.950 . S
H1013 C1018 0.949 . S
H1014 C1020 0.950 . S
H1015 C1021 0.950 . S
H1016 C1022 0.949 . S
C1017 H1012 0.950 . S
C1017 C1019 1.327 . S
C1017 C1023 1.429 . S
C1018 C1010 1.574 . S
C1018 H1013 0.949 . S
C1018 C1024 1.368 1_556 S
C1019 C1003 1.349 . S
C1019 H1011 0.950 . S
C1019 C1017 1.327 . S
C1020 C1008 1.349 . S
C1020 H1014 0.950 . S
C1020 C1021 1.327 . S
C1021 H1015 0.950 . S
C1021 C1020 1.327 . S
C1021 C1025 1.429 . S
C1022 C1005 1.574 . S
C1022 H1016 0.949 . S
C1022 C1026 1.368 1_554 S
C1023 C1004 1.429 . S
C1023 C1017 1.429 . S
C1023 C1024 1.523 . S
C1024 C1005 1.368 . S
C1024 C1018 1.368 1_554 S
C1024 C1023 1.523 . S
C1025 C1009 1.429 . S
C1025 C1021 1.429 . S
C1025 C1026 1.523 . S
C1026 C1010 1.368 . S
C1026 C1022 1.368 1_556 S
C1026 C1025 1.523 . S
H1027 C1002 0.950 . S
H1028 C1004 0.950 . S
H1029 C1005 0.949 . S
H1030 C1007 0.950 . S
H1031 C1009 0.950 . S
C1032 C1033 1.349 . S
C1032 C1034 1.327 . S
C1032 H1057 0.950 . S
C1033 C1032 1.349 . S
C1033 C1049 1.349 . S
C1034 C1032 1.327 . S
C1034 C1053 1.429 . S
C1034 H1058 0.950 . S
C1035 C1052 1.574 . S
C1035 C1054 1.368 . S
C1035 H1059 0.949 . S
H1036 C1040 0.949 . S
C1037 C1038 1.349 . S
C1037 C1039 1.327 . S
C1037 H1060 0.950 . S
C1038 C1037 1.349 . S
C1038 C1050 1.349 . S
C1039 C1037 1.327 . S
C1039 C1055 1.429 . S
C1039 H1061 0.950 . S
C1040 H1036 0.949 . S
C1040 C1048 1.574 . S
C1040 C1056 1.368 . S
H1041 C1049 0.950 . S
H1042 C1047 0.950 . S
H1043 C1048 0.949 . S
H1044 C1050 0.950 . S
H1045 C1051 0.950 . S
H1046 C1052 0.949 . S
C1047 H1042 0.950 . S
C1047 C1049 1.327 . S
C1047 C1053 1.429 . S
C1048 C1040 1.574 . S
C1048 H1043 0.949 . S
C1048 C1054 1.368 . S
C1049 C1033 1.349 . S
C1049 H1041 0.950 . S
C1049 C1047 1.327 . S
C1050 C1038 1.349 . S
C1050 H1044 0.950 . S
C1050 C1051 1.327 . S
C1051 H1045 0.950 . S
C1051 C1050 1.327 . S
C1051 C1055 1.429 . S
C1052 C1035 1.574 . S
C1052 H1046 0.949 . S
C1052 C1056 1.368 . S
C1053 C1034 1.429 . S
C1053 C1047 1.429 . S
C1053 C1054 1.523 . S
C1054 C1035 1.368 . S
C1054 C1048 1.368 . S
C1054 C1053 1.523 . S
C1055 C1039 1.429 . S
C1055 C1051 1.429 . S
C1055 C1056 1.523 . S
C1056 C1040 1.368 . S
C1056 C1052 1.368 . S
C1056 C1055 1.523 . S
H1057 C1032 0.950 . S
H1058 C1034 0.950 . S
H1059 C1035 0.949 . S
H1060 C1037 0.950 . S
H1061 C1039 0.950 . S
C1062 C1063 1.349 . S
C1062 C1064 1.327 . S
C1062 H1087 0.950 . S
C1063 C1062 1.349 . S
C1063 C1079 1.349 . S
C1064 C1062 1.327 . S
C1064 C1083 1.429 . S
C1064 H1088 0.950 . S
C1065 C1082 1.574 . S
C1065 C1084 1.368 . S
C1065 H1089 0.949 . S
H1066 C1070 0.949 . S
C1067 C1068 1.349 . S
C1067 C1069 1.327 . S
C1067 H1090 0.950 . S
C1068 C1067 1.349 . S
C1068 C1080 1.349 . S
C1069 C1067 1.327 . S
C1069 C1085 1.429 . S
C1069 H1091 0.950 . S
C1070 H1066 0.949 . S
C1070 C1078 1.574 . S
C1070 C1086 1.368 . S
H1071 C1079 0.950 . S
H1072 C1077 0.950 . S
H1073 C1078 0.949 . S
H1074 C1080 0.950 . S
H1075 C1081 0.950 . S
H1076 C1082 0.949 . S
C1077 H1072 0.950 . S
C1077 C1079 1.327 . S
C1077 C1083 1.429 . S
C1078 C1070 1.574 . S
C1078 H1073 0.949 . S
C1078 C1084 1.368 . S
C1079 C1063 1.349 . S
C1079 H1071 0.950 . S
C1079 C1077 1.327 . S
C1080 C1068 1.349 . S
C1080 H1074 0.950 . S
C1080 C1081 1.327 . S
C1081 H1075 0.950 . S
C1081 C1080 1.327 . S
C1081 C1085 1.429 . S
C1082 C1065 1.574 . S
C1082 H1076 0.949 . S
C1082 C1086 1.368 . S
C1083 C1064 1.429 . S
C1083 C1077 1.429 . S
C1083 C1084 1.523 . S
C1084 C1065 1.368 . S
C1084 C1078 1.368 . S
C1084 C1083 1.523 . S
C1085 C1069 1.429 . S
C1085 C1081 1.429 . S
C1085 C1086 1.523 . S
C1086 C1070 1.368 . S
C1086 C1082 1.368 . S
C1086 C1085 1.523 . S
H1087 C1062 0.950 . S
H1088 C1064 0.950 . S
H1089 C1065 0.949 . S
H1090 C1067 0.950 . S
H1091 C1069 0.950 . S
C1092 C1093 1.349 . S
C1092 C1094 1.327 . S
C1092 H1117 0.950 . S
C1093 C1092 1.349 . S
C1093 C1109 1.349 . S
C1094 C1092 1.327 . S
C1094 C1113 1.429 . S
C1094 H1118 0.950 . S
C1095 C1112 1.574 . S
C1095 C1114 1.368 . S
C1095 H1119 0.949 . S
H1096 C1100 0.949 . S
C1097 C1098 1.349 . S
C1097 C1099 1.327 . S
C1097 H1120 0.950 . S
C1098 C1097 1.349 . S
C1098 C1110 1.349 . S
C1099 C1097 1.327 . S
C1099 C1115 1.429 . S
C1099 H1121 0.950 . S
C1100 H1096 0.949 . S
C1100 C1108 1.574 . S
C1100 C1116 1.368 . S
H1101 C1109 0.950 . S
H1102 C1107 0.950 . S
H1103 C1108 0.949 . S
H1104 C1110 0.950 . S
H1105 C1111 0.950 . S
H1106 C1112 0.949 . S
C1107 H1102 0.950 . S
C1107 C1109 1.327 . S
C1107 C1113 1.429 . S
C1108 C1100 1.574 . S
C1108 H1103 0.949 . S
C1108 C1114 1.368 . S
C1109 C1093 1.349 . S
C1109 H1101 0.950 . S
C1109 C1107 1.327 . S
C1110 C1098 1.349 . S
C1110 H1104 0.950 . S
C1110 C1111 1.327 . S
C1111 H1105 0.950 . S
C1111 C1110 1.327 . S
C1111 C1115 1.429 . S
C1112 C1095 1.574 . S
C1112 H1106 0.949 . S
C1112 C1116 1.368 . S
C1113 C1094 1.429 . S
C1113 C1107 1.429 . S
C1113 C1114 1.523 . S
C1114 C1095 1.368 . S
C1114 C1108 1.368 . S
C1114 C1113 1.523 . S
C1115 C1099 1.429 . S
C1115 C1111 1.429 . S
C1115 C1116 1.523 . S
C1116 C1100 1.368 . S
C1116 C1112 1.368 . S
C1116 C1115 1.523 . S
H1117 C1092 0.950 . S
H1118 C1094 0.950 . S
H1119 C1095 0.949 . S
H1120 C1097 0.950 . S
H1121 C1099 0.950 . S
C1122 C1123 1.349 . S
C1122 C1124 1.327 . S
C1122 H1147 0.950 . S
C1123 C1122 1.349 . S
C1123 C1139 1.349 . S
C1124 C1122 1.327 . S
C1124 C1143 1.429 . S
C1124 H1148 0.950 . S
C1125 C1142 1.574 . S
C1125 C1144 1.368 . S
C1125 H1149 0.949 . S
H1126 C1130 0.949 . S
C1127 C1128 1.349 . S
C1127 C1129 1.327 . S
C1127 H1150 0.950 . S
C1128 C1127 1.349 . S
C1128 C1140 1.349 . S
C1129 C1127 1.327 . S
C1129 C1145 1.429 . S
C1129 H1151 0.950 . S
C1130 H1126 0.949 . S
C1130 C1138 1.574 . S
C1130 C1146 1.368 . S
H1131 C1139 0.950 . S
H1132 C1137 0.950 . S
H1133 C1138 0.949 . S
H1134 C1140 0.950 . S
H1135 C1141 0.950 . S
H1136 C1142 0.949 . S
C1137 H1132 0.950 . S
C1137 C1139 1.327 . S
C1137 C1143 1.429 . S
C1138 C1130 1.574 . S
C1138 H1133 0.949 . S
C1138 C1144 1.368 . S
C1139 C1123 1.349 . S
C1139 H1131 0.950 . S
C1139 C1137 1.327 . S
C1140 C1128 1.349 . S
C1140 H1134 0.950 . S
C1140 C1141 1.327 . S
C1141 H1135 0.950 . S
C1141 C1140 1.327 . S
C1141 C1145 1.429 . S
C1142 C1125 1.574 . S
C1142 H1136 0.949 . S
C1142 C1146 1.368 . S
C1143 C1124 1.429 . S
C1143 C1137 1.429 . S
C1143 C1144 1.523 . S
C1144 C1125 1.368 . S
C1144 C1138 1.368 . S
C1144 C1143 1.523 . S
C1145 C1129 1.429 . S
C1145 C1141 1.429 . S
C1145 C1146 1.523 . S
C1146 C1130 1.368 . S
C1146 C1142 1.368 . S
C1146 C1145 1.523 . S
H1147 C1122 0.950 . S
H1148 C1124 0.950 . S
H1149 C1125 0.949 . S
H1150 C1127 0.950 . S
H1151 C1129 0.950 . S
C1152 C1153 1.349 . S
C1152 C1154 1.327 . S
C1152 H1177 0.950 . S
C1153 C1152 1.349 . S
C1153 C1169 1.349 . S
C1154 C1152 1.327 . S
C1154 C1173 1.429 . S
C1154 H1178 0.950 . S
C1155 C1172 1.574 . S
C1155 C1174 1.368 . S
C1155 H1179 0.949 . S
H1156 C1160 0.949 . S
C1157 C1158 1.349 . S
C1157 C1159 1.327 . S
C1157 H1180 0.950 . S
C1158 C1157 1.349 . S
C1158 C1170 1.349 . S
C1159 C1157 1.327 . S
C1159 C1175 1.429 . S
C1159 H1181 0.950 . S
C1160 H1156 0.949 . S
C1160 C1168 1.574 . S
C1160 C1176 1.368 . S
H1161 C1169 0.950 . S
H1162 C1167 0.950 . S
H1163 C1168 0.949 . S
H1164 C1170 0.950 . S
H1165 C1171 0.950 . S
H1166 C1172 0.949 . S
C1167 H1162 0.950 . S
C1167 C1169 1.327 . S
C1167 C1173 1.429 . S
C1168 C1160 1.574 . S
C1168 H1163 0.949 . S
C1168 C1174 1.368 . S
C1169 C1153 1.349 . S
C1169 H1161 0.950 . S
C1169 C1167 1.327 . S
C1170 C1158 1.349 . S
C1170 H1164 0.950 . S
C1170 C1171 1.327 . S
C1171 H1165 0.950 . S
C1171 C1170 1.327 . S
C1171 C1175 1.429 . S
C1172 C1155 1.574 . S
C1172 H1166 0.949 . S
C1172 C1176 1.368 . S
C1173 C1154 1.429 . S
C1173 C1167 1.429 . S
C1173 C1174 1.523 . S
C1174 C1155 1.368 . S
C1174 C1168 1.368 . S
C1174 C1173 1.523 . S
C1175 C1159 1.429 . S
C1175 C1171 1.429 . S
C1175 C1176 1.523 . S
C1176 C1160 1.368 . S
C1176 C1172 1.368 . S
C1176 C1175 1.523 . S
H1177 C1152 0.950 . S
H1178 C1154 0.950 . S
H1179 C1155 0.949 . S
H1180 C1157 0.950 . S
H1181 C1159 0.950 . S
C1182 C1183 1.349 . S
C1182 C1184 1.327 . S
C1182 H1207 0.950 . S
C1183 C1182 1.349 . S
C1183 C1199 1.349 . S
C1184 C1182 1.327 . S
C1184 C1203 1.429 . S
C1184 H1208 0.950 . S
C1185 C1202 1.574 . S
C1185 C1204 1.368 . S
C1185 H1209 0.949 . S
H1186 C1190 0.949 . S
C1187 C1188 1.349 . S
C1187 C1189 1.327 . S
C1187 H1210 0.950 . S
C1188 C1187 1.349 . S
C1188 C1200 1.349 . S
C1189 C1187 1.327 . S
C1189 C1205 1.429 . S
C1189 H1211 0.950 . S
C1190 H1186 0.949 . S
C1190 C1198 1.574 . S
C1190 C1206 1.368 . S
H1191 C1199 0.950 . S
H1192 C1197 0.950 . S
H1193 C1198 0.949 . S
H1194 C1200 0.950 . S
H1195 C1201 0.950 . S
H1196 C1202 0.949 . S
C1197 H1192 0.950 . S
C1197 C1199 1.327 . S
C1197 C1203 1.429 . S
C1198 C1190 1.574 . S
C1198 H1193 0.949 . S
C1198 C1204 1.368 . S
C1199 C1183 1.349 . S
C1199 H1191 0.950 . S
C1199 C1197 1.327 . S
C1200 C1188 1.349 . S
C1200 H1194 0.950 . S
C1200 C1201 1.327 . S
C1201 H1195 0.950 . S
C1201 C1200 1.327 . S
C1201 C1205 1.429 . S
C1202 C1185 1.574 . S
C1202 H1196 0.949 . S
C1202 C1206 1.368 . S
C1203 C1184 1.429 . S
C1203 C1197 1.429 . S
C1203 C1204 1.523 . S
C1204 C1185 1.368 . S
C1204 C1198 1.368 . S
C1204 C1203 1.523 . S
C1205 C1189 1.429 . S
C1205 C1201 1.429 . S
C1205 C1206 1.523 . S
C1206 C1190 1.368 . S
C1206 C1202 1.368 . S
C1206 C1205 1.523 . S
H1207 C1182 0.950 . S
H1208 C1184 0.950 . S
H1209 C1185 0.949 . S
H1210 C1187 0.950 . S
H1211 C1189 0.950 . S
C1212 C1213 1.349 . S
C1212 C1214 1.327 . S
C1212 H1237 0.950 . S
C1213 C1212 1.349 . S
C1213 C1229 1.349 . S
C1214 C1212 1.327 . S
C1214 C1233 1.429 . S
C1214 H1238 0.950 . S
C1215 C1232 1.574 . S
C1215 C1234 1.368 . S
C1215 H1239 0.949 . S
H1216 C1220 0.949 . S
C1217 C1218 1.349 . S
C1217 C1219 1.327 . S
C1217 H1240 0.950 . S
C1218 C1217 1.349 . S
C1218 C1230 1.349 . S
C1219 C1217 1.327 . S
C1219 C1235 1.429 . S
C1219 H1241 0.950 . S
C1220 H1216 0.949 . S
C1220 C1228 1.574 . S
C1220 C1236 1.368 . S
H1221 C1229 0.950 . S
H1222 C1227 0.950 . S
H1223 C1228 0.949 . S
H1224 C1230 0.950 . S
H1225 C1231 0.950 . S
H1226 C1232 0.949 . S
C1227 H1222 0.950 . S
C1227 C1229 1.327 . S
C1227 C1233 1.429 . S
C1228 C1220 1.574 . S
C1228 H1223 0.949 . S
C1228 C1234 1.368 . S
C1229 C1213 1.349 . S
C1229 H1221 0.950 . S
C1229 C1227 1.327 . S
C1230 C1218 1.349 . S
C1230 H1224 0.950 . S
C1230 C1231 1.327 . S
C1231 H1225 0.950 . S
C1231 C1230 1.327 . S
C1231 C1235 1.429 . S
C1232 C1215 1.574 . S
C1232 H1226 0.949 . S
C1232 C1236 1.368 . S
C1233 C1214 1.429 . S
C1233 C1227 1.429 . S
C1233 C1234 1.523 . S
C1234 C1215 1.368 . S
C1234 C1228 1.368 . S
C1234 C1233 1.523 . S
C1235 C1219 1.429 . S
C1235 C1231 1.429 . S
C1235 C1236 1.523 . S
C1236 C1220 1.368 . S
C1236 C1232 1.368 . S
C1236 C1235 1.523 . S
H1237 C1212 0.950 . S
H1238 C1214 0.950 . S
H1239 C1215 0.949 . S
H1240 C1217 0.950 . S
H1241 C1219 0.950 . S
C1242 C1243 1.349 . S
C1242 C1244 1.327 . S
C1242 H1267 0.950 . S
C1243 C1242 1.349 . S
C1243 C1259 1.349 . S
C1244 C1242 1.327 . S
C1244 C1263 1.429 . S
C1244 H1268 0.950 . S
C1245 C1262 1.574 . S
C1245 C1264 1.368 . S
C1245 H1269 0.949 . S
H1246 C1250 0.949 . S
C1247 C1248 1.349 . S
C1247 C1249 1.327 . S
C1247 H1270 0.950 . S
C1248 C1247 1.349 . S
C1248 C1260 1.349 . S
C1249 C1247 1.327 . S
C1249 C1265 1.429 . S
C1249 H1271 0.950 . S
C1250 H1246 0.949 . S
C1250 C1258 1.574 . S
C1250 C1266 1.368 . S
H1251 C1259 0.950 . S
H1252 C1257 0.950 . S
H1253 C1258 0.949 . S
H1254 C1260 0.950 . S
H1255 C1261 0.950 . S
H1256 C1262 0.949 . S
C1257 H1252 0.950 . S
C1257 C1259 1.327 . S
C1257 C1263 1.429 . S
C1258 C1250 1.574 . S
C1258 H1253 0.949 . S
C1258 C1264 1.368 . S
C1259 C1243 1.349 . S
C1259 H1251 0.950 . S
C1259 C1257 1.327 . S
C1260 C1248 1.349 . S
C1260 H1254 0.950 . S
C1260 C1261 1.327 . S
C1261 H1255 0.950 . S
C1261 C1260 1.327 . S
C1261 C1265 1.429 . S
C1262 C1245 1.574 . S
C1262 H1256 0.949 . S
C1262 C1266 1.368 . S
C1263 C1244 1.429 . S
C1263 C1257 1.429 . S
C1263 C1264 1.523 . S
C1264 C1245 1.368 . S
C1264 C1258 1.368 . S
C1264 C1263 1.523 . S
C1265 C1249 1.429 . S
C1265 C1261 1.429 . S
C1265 C1266 1.523 . S
C1266 C1250 1.368 . S
C1266 C1262 1.368 . S
C1266 C1265 1.523 . S
H1267 C1242 0.950 . S
H1268 C1244 0.950 . S
H1269 C1245 0.949 . S
H1270 C1247 0.950 . S
H1271 C1249 0.950 . S
C1272 C1273 1.349 . S
C1272 C1274 1.327 . S
C1272 H1297 0.950 . S
C1273 C1272 1.349 . S
C1273 C1289 1.349 . S
C1274 C1272 1.327 . S
C1274 C1293 1.429 . S
C1274 H1298 0.950 . S
C1275 C1292 1.574 . S
C1275 C1294 1.368 . S
C1275 H1299 0.949 . S
H1276 C1280 0.949 . S
C1277 C1278 1.349 . S
C1277 C1279 1.327 . S
C1277 H1300 0.950 . S
C1278 C1277 1.349 . S
C1278 C1290 1.349 . S
C1279 C1277 1.327 . S
C1279 C1295 1.429 . S
C1279 H1301 0.950 . S
C1280 H1276 0.949 . S
C1280 C1288 1.574 . S
C1280 C1296 1.368 . S
H1281 C1289 0.950 . S
H1282 C1287 0.950 . S
H1283 C1288 0.949 . S
H1284 C1290 0.950 . S
H1285 C1291 0.950 . S
H1286 C1292 0.949 . S
C1287 H1282 0.950 . S
C1287 C1289 1.327 . S
C1287 C1293 1.429 . S
C1288 C1280 1.574 . S
C1288 H1283 0.949 . S
C1288 C1294 1.368 . S
C1289 C1273 1.349 . S
C1289 H1281 0.950 . S
C1289 C1287 1.327 . S
C1290 C1278 1.349 . S
C1290 H1284 0.950 . S
C1290 C1291 1.327 . S
C1291 H1285 0.950 . S
C1291 C1290 1.327 . S
C1291 C1295 1.429 . S
C1292 C1275 1.574 . S
C1292 H1286 0.949 . S
C1292 C1296 1.368 . S
C1293 C1274 1.429 . S
C1293 C1287 1.429 . S
C1293 C1294 1.523 . S
C1294 C1275 1.368 . S
C1294 C1288 1.368 . S
C1294 C1293 1.523 . S
C1295 C1279 1.429 . S
C1295 C1291 1.429 . S
C1295 C1296 1.523 . S
C1296 C1280 1.368 . S
C1296 C1292 1.368 . S
C1296 C1295 1.523 . S
H1297 C1272 0.950 . S
H1298 C1274 0.950 . S
H1299 C1275 0.949 . S
H1300 C1277 0.950 . S
H1301 C1279 0.950 . S
C1302 C1303 1.349 . S
C1302 C1304 1.327 . S
C1302 H1327 0.950 . S
C1303 C1302 1.349 . S
C1303 C1319 1.349 . S
C1304 C1302 1.327 . S
C1304 C1323 1.429 . S
C1304 H1328 0.950 . S
C1305 C1322 1.574 . S
C1305 C1324 1.368 . S
C1305 H1329 0.949 . S
H1306 C1310 0.949 . S
C1307 C1308 1.349 . S
C1307 C1309 1.327 . S
C1307 H1330 0.950 . S
C1308 C1307 1.349 . S
C1308 C1320 1.349 . S
C1309 C1307 1.327 . S
C1309 C1325 1.429 . S
C1309 H1331 0.950 . S
C1310 H1306 0.949 . S
C1310 C1318 1.574 . S
C1310 C1326 1.368 . S
H1311 C1319 0.950 . S
H1312 C1317 0.950 . S
H1313 C1318 0.949 . S
H1314 C1320 0.950 . S
H1315 C1321 0.950 . S
H1316 C1322 0.949 . S
C1317 H1312 0.950 . S
C1317 C1319 1.327 . S
C1317 C1323 1.429 . S
C1318 C1310 1.574 . S
C1318 H1313 0.949 . S
C1318 C1324 1.368 . S
C1319 C1303 1.349 . S
C1319 H1311 0.950 . S
C1319 C1317 1.327 . S
C1320 C1308 1.349 . S
C1320 H1314 0.950 . S
C1320 C1321 1.327 . S
C1321 H1315 0.950 . S
C1321 C1320 1.327 . S
C1321 C1325 1.429 . S
C1322 C1305 1.574 . S
C1322 H1316 0.949 . S
C1322 C1326 1.368 . S
C1323 C1304 1.429 . S
C1323 C1317 1.429 . S
C1323 C1324 1.523 . S
C1324 C1305 1.368 . S
C1324 C1318 1.368 . S
C1324 C1323 1.523 . S
C1325 C1309 1.429 . S
C1325 C1321 1.429 . S
C1325 C1326 1.523 . S
C1326 C1310 1.368 . S
C1326 C1322 1.368 . S
C1326 C1325 1.523 . S
H1327 C1302 0.950 . S
H1328 C1304 0.950 . S
H1329 C1305 0.949 . S
H1330 C1307 0.950 . S
H1331 C1309 0.950 . S
C1332 C1333 1.349 . S
C1332 C1334 1.327 . S
C1332 H1357 0.950 . S
C1333 C1332 1.349 . S
C1333 C1349 1.349 . S
C1334 C1332 1.327 . S
C1334 C1353 1.429 . S
C1334 H1358 0.950 . S
C1335 C1352 1.574 . S
C1335 C1354 1.368 . S
C1335 H1359 0.949 . S
H1336 C1340 0.949 . S
C1337 C1338 1.349 . S
C1337 C1339 1.327 . S
C1337 H1360 0.950 . S
C1338 C1337 1.349 . S
C1338 C1350 1.349 . S
C1339 C1337 1.327 . S
C1339 C1355 1.429 . S
C1339 H1361 0.950 . S
C1340 H1336 0.949 . S
C1340 C1348 1.574 . S
C1340 C1356 1.368 . S
H1341 C1349 0.950 . S
H1342 C1347 0.950 . S
H1343 C1348 0.949 . S
H1344 C1350 0.950 . S
H1345 C1351 0.950 . S
H1346 C1352 0.949 . S
C1347 H1342 0.950 . S
C1347 C1349 1.327 . S
C1347 C1353 1.429 . S
C1348 C1340 1.574 . S
C1348 H1343 0.949 . S
C1348 C1354 1.368 . S
C1349 C1333 1.349 . S
C1349 H1341 0.950 . S
C1349 C1347 1.327 . S
C1350 C1338 1.349 . S
C1350 H1344 0.950 . S
C1350 C1351 1.327 . S
C1351 H1345 0.950 . S
C1351 C1350 1.327 . S
C1351 C1355 1.429 . S
C1352 C1335 1.574 . S
C1352 H1346 0.949 . S
C1352 C1356 1.368 . S
C1353 C1334 1.429 . S
C1353 C1347 1.429 . S
C1353 C1354 1.523 . S
C1354 C1335 1.368 . S
C1354 C1348 1.368 . S
C1354 C1353 1.523 . S
C1355 C1339 1.429 . S
C1355 C1351 1.429 . S
C1355 C1356 1.523 . S
C1356 C1340 1.368 . S
C1356 C1352 1.368 . S
C1356 C1355 1.523 . S
H1357 C1332 0.950 . S
H1358 C1334 0.950 . S
H1359 C1335 0.949 . S
H1360 C1337 0.950 . S
H1361 C1339 0.950 . S
C1362 C1363 1.349 . S
C1362 C1364 1.327 . S
C1362 H1387 0.950 . S
C1363 C1362 1.349 . S
C1363 C1379 1.349 . S
C1364 C1362 1.327 . S
C1364 C1383 1.429 . S
C1364 H1388 0.950 . S
C1365 C1382 1.574 . S
C1365 C1384 1.368 . S
C1365 H1389 0.949 . S
H1366 C1370 0.949 . S
C1367 C1368 1.349 . S
C1367 C1369 1.327 . S
C1367 H1390 0.950 . S
C1368 C1367 1.349 . S
C1368 C1380 1.349 . S
C1369 C1367 1.327 . S
C1369 C1385 1.429 . S
C1369 H1391 0.950 . S
C1370 H1366 0.949 . S
C1370 C1378 1.574 . S
C1370 C1386 1.368 . S
H1371 C1379 0.950 . S
H1372 C1377 0.950 . S
H1373 C1378 0.949 . S
H1374 C1380 0.950 . S
H1375 C1381 0.950 . S
H1376 C1382 0.949 . S
C1377 H1372 0.950 . S
C1377 C1379 1.327 . S
C1377 C1383 1.429 . S
C1378 C1370 1.574 . S
C1378 H1373 0.949 . S
C1378 C1384 1.368 . S
C1379 C1363 1.349 . S
C1379 H1371 0.950 . S
C1379 C1377 1.327 . S
C1380 C1368 1.349 . S
C1380 H1374 0.950 . S
C1380 C1381 1.327 . S
C1381 H1375 0.950 . S
C1381 C1380 1.327 . S
C1381 C1385 1.429 . S
C1382 C1365 1.574 . S
C1382 H1376 0.949 . S
C1382 C1386 1.368 . S
C1383 C1364 1.429 . S
C1383 C1377 1.429 . S
C1383 C1384 1.523 . S
C1384 C1365 1.368 . S
C1384 C1378 1.368 . S
C1384 C1383 1.523 . S
C1385 C1369 1.429 . S
C1385 C1381 1.429 . S
C1385 C1386 1.523 . S
C1386 C1370 1.368 . S
C1386 C1382 1.368 . S
C1386 C1385 1.523 . S
H1387 C1362 0.950 . S
H1388 C1364 0.950 . S
H1389 C1365 0.949 . S
H1390 C1367 0.950 . S
H1391 C1369 0.950 . S
C1392 C1393 1.349 . S
C1392 C1394 1.327 . S
C1392 H1417 0.950 . S
C1393 C1392 1.349 . S
C1393 C1409 1.349 . S
C1394 C1392 1.327 . S
C1394 C1413 1.429 . S
C1394 H1418 0.950 . S
C1395 C1412 1.574 . S
C1395 C1414 1.368 . S
C1395 H1419 0.949 . S
H1396 C1400 0.949 . S
C1397 C1398 1.349 . S
C1397 C1399 1.327 . S
C1397 H1420 0.950 . S
C1398 C1397 1.349 . S
C1398 C1410 1.349 . S
C1399 C1397 1.327 . S
C1399 C1415 1.429 . S
C1399 H1421 0.950 . S
C1400 H1396 0.949 . S
C1400 C1408 1.574 . S
C1400 C1416 1.368 . S
H1401 C1409 0.950 . S
H1402 C1407 0.950 . S
H1403 C1408 0.949 . S
H1404 C1410 0.950 . S
H1405 C1411 0.950 . S
H1406 C1412 0.949 . S
C1407 H1402 0.950 . S
C1407 C1409 1.327 . S
C1407 C1413 1.429 . S
C1408 C1400 1.574 . S
C1408 H1403 0.949 . S
C1408 C1414 1.368 . S
C1409 C1393 1.349 . S
C1409 H1401 0.950 . S
C1409 C1407 1.327 . S
C1410 C1398 1.349 . S
C1410 H1404 0.950 . S
C1410 C1411 1.327 . S
C1411 H1405 0.950 . S
C1411 C1410 1.327 . S
C1411 C1415 1.429 . S
C1412 C1395 1.574 . S
C1412 H1406 0.949 . S
C1412 C1416 1.368 . S
C1413 C1394 1.429 . S
C1413 C1407 1.429 . S
C1413 C1414 1.523 . S
C1414 C1395 1.368 . S
C1414 C1408 1.368 . S
C1414 C1413 1.523 . S
C1415 C1399 1.429 . S
C1415 C1411 1.429 . S
C1415 C1416 1.523 . S
C1416 C1400 1.368 . S
C1416 C1412 1.368 . S
C1416 C1415 1.523 . S
H1417 C1392 0.950 . S
H1418 C1394 0.950 . S
H1419 C1395 0.949 . S
H1420 C1397 0.950 . S
H1421 C1399 0.950 . S
C1422 C1423 1.349 . S
C1422 C1424 1.327 . S
C1422 H1447 0.950 . S
C1423 C1422 1.349 . S
C1423 C1439 1.349 . S
C1424 C1422 1.327 . S
C1424 C1443 1.429 . S
C1424 H1448 0.950 . S
C1425 C1442 1.574 . S
C1425 C1444 1.368 . S
C1425 H1449 0.949 . S
H1426 C1430 0.949 . S
C1427 C1428 1.349 . S
C1427 C1429 1.327 . S
C1427 H1450 0.950 . S
C1428 C1427 1.349 . S
C1428 C1440 1.349 . S
C1429 C1427 1.327 . S
C1429 C1445 1.429 . S
C1429 H1451 0.950 . S
C1430 H1426 0.949 . S
C1430 C1438 1.574 . S
C1430 C1446 1.368 . S
H1431 C1439 0.950 . S
H1432 C1437 0.950 . S
H1433 C1438 0.949 . S
H1434 C1440 0.950 . S
H1435 C1441 0.950 . S
H1436 C1442 0.949 . S
C1437 H1432 0.950 . S
C1437 C1439 1.327 . S
C1437 C1443 1.429 . S
C1438 C1430 1.574 . S
C1438 H1433 0.949 . S
C1438 C1444 1.368 . S
C1439 C1423 1.349 . S
C1439 H1431 0.950 . S
C1439 C1437 1.327 . S
C1440 C1428 1.349 . S
C1440 H1434 0.950 . S
C1440 C1441 1.327 . S
C1441 H1435 0.950 . S
C1441 C1440 1.327 . S
C1441 C1445 1.429 . S
C1442 C1425 1.574 . S
C1442 H1436 0.949 . S
C1442 C1446 1.368 . S
C1443 C1424 1.429 . S
C1443 C1437 1.429 . S
C1443 C1444 1.523 . S
C1444 C1425 1.368 . S
C1444 C1438 1.368 . S
C1444 C1443 1.523 . S
C1445 C1429 1.429 . S
C1445 C1441 1.429 . S
C1445 C1446 1.523 . S
C1446 C1430 1.368 . S
C1446 C1442 1.368 . S
C1446 C1445 1.523 . S
H1447 C1422 0.950 . S
H1448 C1424 0.950 . S
H1449 C1425 0.949 . S
H1450 C1427 0.950 . S
H1451 C1429 0.950 . S
C1452 C1453 1.349 . S
C1452 C1454 1.327 . S
C1452 H1477 0.950 . S
C1453 C1452 1.349 . S
C1453 C1469 1.349 . S
C1454 C1452 1.327 . S
C1454 C1473 1.429 . S
C1454 H1478 0.950 . S
C1455 C1472 1.574 . S
C1455 C1474 1.368 . S
C1455 H1479 0.949 . S
H1456 C1460 0.949 . S
C1457 C1458 1.349 . S
C1457 C1459 1.327 . S
C1457 H1480 0.950 . S
C1458 C1457 1.349 . S
C1458 C1470 1.349 . S
C1459 C1457 1.327 . S
C1459 C1475 1.429 . S
C1459 H1481 0.950 . S
C1460 H1456 0.949 . S
C1460 C1468 1.574 . S
C1460 C1476 1.368 . S
H1461 C1469 0.950 . S
H1462 C1467 0.950 . S
H1463 C1468 0.949 . S
H1464 C1470 0.950 . S
H1465 C1471 0.950 . S
H1466 C1472 0.949 . S
C1467 H1462 0.950 . S
C1467 C1469 1.327 . S
C1467 C1473 1.429 . S
C1468 C1460 1.574 . S
C1468 H1463 0.949 . S
C1468 C1474 1.368 . S
C1469 C1453 1.349 . S
C1469 H1461 0.950 . S
C1469 C1467 1.327 . S
C1470 C1458 1.349 . S
C1470 H1464 0.950 . S
C1470 C1471 1.327 . S
C1471 H1465 0.950 . S
C1471 C1470 1.327 . S
C1471 C1475 1.429 . S
C1472 C1455 1.574 . S
C1472 H1466 0.949 . S
C1472 C1476 1.368 . S
C1473 C1454 1.429 . S
C1473 C1467 1.429 . S
C1473 C1474 1.523 . S
C1474 C1455 1.368 . S
C1474 C1468 1.368 . S
C1474 C1473 1.523 . S
C1475 C1459 1.429 . S
C1475 C1471 1.429 . S
C1475 C1476 1.523 . S
C1476 C1460 1.368 . S
C1476 C1472 1.368 . S
C1476 C1475 1.523 . S
H1477 C1452 0.950 . S
H1478 C1454 0.950 . S
H1479 C1455 0.949 . S
H1480 C1457 0.950 . S
H1481 C1459 0.950 . S
C1482 C1483 1.349 . S
C1482 C1484 1.327 . S
C1482 H1507 0.950 . S
C1483 C1482 1.349 . S
C1483 C1499 1.349 . S
C1484 C1482 1.327 . S
C1484 C1503 1.429 . S
C1484 H1508 0.950 . S
C1485 C1502 1.574 . S
C1485 C1504 1.368 . S
C1485 H1509 0.949 . S
H1486 C1490 0.949 . S
C1487 C1488 1.349 . S
C1487 C1489 1.327 . S
C1487 H1510 0.950 . S
C1488 C1487 1.349 . S
C1488 C1500 1.349 . S
C1489 C1487 1.327 . S
C1489 C1505 1.429 . S
C1489 H1511 0.950 . S
C1490 H1486 0.949 . S
C1490 C1498 1.574 . S
C1490 C1506 1.368 . S
H1491 C1499 0.950 . S
H1492 C1497 0.950 . S
H1493 C1498 0.949 . S
H1494 C1500 0.950 . S
H1495 C1501 0.950 . S
H1496 C1502 0.949 . S
C1497 H1492 0.950 . S
C1497 C1499 1.327 . S
C1497 C1503 1.429 . S
C1498 C1490 1.574 . S
C1498 H1493 0.949 . S
C1498 C1504 1.368 . S
C1499 C1483 1.349 . S
C1499 H1491 0.950 . S
C1499 C1497 1.327 . S
C1500 C1488 1.349 . S
C1500 H1494 0.950 . S
C1500 C1501 1.327 . S
C1501 H1495 0.950 . S
C1501 C1500 1.327 . S
C1501 C1505 1.429 . S
C1502 C1485 1.574 . S
C1502 H1496 0.949 . S
C1502 C1506 1.368 . S
C1503 C1484 1.429 . S
C1503 C1497 1.429 . S
C1503 C1504 1.523 . S
C1504 C1485 1.368 . S
C1504 C1498 1.368 . S
C1504 C1503 1.523 . S
C1505 C1489 1.429 . S
C1505 C1501 1.429 . S
C1505 C1506 1.523 . S
C1506 C1490 1.368 . S
C1506 C1502 1.368 . S
C1506 C1505 1.523 . S
H1507 C1482 0.950 . S
H1508 C1484 0.950 . S
H1509 C1485 0.949 . S
H1510 C1487 0.950 . S
H1511 C1489 0.950 . S
C1512 C1513 1.349 . S
C1512 C1514 1.327 . S
C1512 H1537 0.950 . S
C1513 C1512 1.349 . S
C1513 C1529 1.349 . S
C1514 C1512 1.327 . S
C1514 C1533 1.429 . S
C1514 H1538 0.950 . S
C1515 C1532 1.574 . S
C1515 C1534 1.368 . S
C1515 H1539 0.949 . S
H1516 C1520 0.949 . S
C1517 C1518 1.349 . S
C1517 C1519 1.327 . S
C1517 H1540 0.950 . S
C1518 C1517 1.349 . S
C1518 C1530 1.349 . S
C1519 C1517 1.327 . S
C1519 C1535 1.429 . S
C1519 H1541 0.950 . S
C1520 H1516 0.949 . S
C1520 C1528 1.574 . S
C1520 C1536 1.368 . S
H1521 C1529 0.950 . S
H1522 C1527 0.950 . S
H1523 C1528 0.949 . S
H1524 C1530 0.950 . S
H1525 C1531 0.950 . S
H1526 C1532 0.949 . S
C1527 H1522 0.950 . S
C1527 C1529 1.327 . S
C1527 C1533 1.429 . S
C1528 C1520 1.574 . S
C1528 H1523 0.949 . S
C1528 C1534 1.368 . S
C1529 C1513 1.349 . S
C1529 H1521 0.950 . S
C1529 C1527 1.327 . S
C1530 C1518 1.349 . S
C1530 H1524 0.950 . S
C1530 C1531 1.327 . S
C1531 H1525 0.950 . S
C1531 C1530 1.327 . S
C1531 C1535 1.429 . S
C1532 C1515 1.574 . S
C1532 H1526 0.949 . S
C1532 C1536 1.368 . S
C1533 C1514 1.429 . S
C1533 C1527 1.429 . S
C1533 C1534 1.523 . S
C1534 C1515 1.368 . S
C1534 C1528 1.368 . S
C1534 C1533 1.523 . S
C1535 C1519 1.429 . S
C1535 C1531 1.429 . S
C1535 C1536 1.523 . S
C1536 C1520 1.368 . S
C1536 C1532 1.368 . S
C1536 C1535 1.523 . S
H1537 C1512 0.950 . S
H1538 C1514 0.950 . S
H1539 C1515 0.949 . S
H1540 C1517 0.950 . S
H1541 C1519 0.950 . S
C1542 C1543 1.349 . S
C1542 C1544 1.327 . S
C1542 H1567 0.950 . S
C1543 C1542 1.349 . S
C1543 C1559 1.349 . S
C1544 C1542 1.327 . S
C1544 C1563 1.429 . S
C1544 H1568 0.950 . S
C1545 C1562 1.574 . S
C1545 C1564 1.368 . S
C1545 H1569 0.949 . S
H1546 C1550 0.949 . S
C1547 C1548 1.349 . S
C1547 C1549 1.327 . S
C1547 H1570 0.950 . S
C1548 C1547 1.349 . S
C1548 C1560 1.349 . S
C1549 C1547 1.327 . S
C1549 C1565 1.429 . S
C1549 H1571 0.950 . S
C1550 H1546 0.949 . S
C1550 C1558 1.574 . S
C1550 C1566 1.368 . S
H1551 C1559 0.950 . S
H1552 C1557 0.950 . S
H1553 C1558 0.949 . S
H1554 C1560 0.950 . S
H1555 C1561 0.950 . S
H1556 C1562 0.949 . S
C1557 H1552 0.950 . S
C1557 C1559 1.327 . S
C1557 C1563 1.429 . S
C1558 C1550 1.574 . S
C1558 H1553 0.949 . S
C1558 C1564 1.368 . S
C1559 C1543 1.349 . S
C1559 H1551 0.950 . S
C1559 C1557 1.327 . S
C1560 C1548 1.349 . S
C1560 H1554 0.950 . S
C1560 C1561 1.327 . S
C1561 H1555 0.950 . S
C1561 C1560 1.327 . S
C1561 C1565 1.429 . S
C1562 C1545 1.574 . S
C1562 H1556 0.949 . S
C1562 C1566 1.368 . S
C1563 C1544 1.429 . S
C1563 C1557 1.429 . S
C1563 C1564 1.523 . S
C1564 C1545 1.368 . S
C1564 C1558 1.368 . S
C1564 C1563 1.523 . S
C1565 C1549 1.429 . S
C1565 C1561 1.429 . S
C1565 C1566 1.523 . S
C1566 C1550 1.368 . S
C1566 C1562 1.368 . S
C1566 C1565 1.523 . S
H1567 C1542 0.950 . S
H1568 C1544 0.950 . S
H1569 C1545 0.949 . S
H1570 C1547 0.950 . S
H1571 C1549 0.950 . S
C1572 C1573 1.349 . S
C1572 C1574 1.327 . S
C1572 H1597 0.950 . S
C1573 C1572 1.349 . S
C1573 C1589 1.349 . S
C1574 C1572 1.327 . S
C1574 C1593 1.429 . S
C1574 H1598 0.950 . S
C1575 C1592 1.574 . S
C1575 C1594 1.368 . S
C1575 H1599 0.949 . S
H1576 C1580 0.949 . S
C1577 C1578 1.349 . S
C1577 C1579 1.327 . S
C1577 H1600 0.950 . S
C1578 C1577 1.349 . S
C1578 C1590 1.349 . S
C1579 C1577 1.327 . S
C1579 C1595 1.429 . S
C1579 H1601 0.950 . S
C1580 H1576 0.949 . S
C1580 C1588 1.574 . S
C1580 C1596 1.368 . S
H1581 C1589 0.950 . S
H1582 C1587 0.950 . S
H1583 C1588 0.949 . S
H1584 C1590 0.950 . S
H1585 C1591 0.950 . S
H1586 C1592 0.949 . S
C1587 H1582 0.950 . S
C1587 C1589 1.327 . S
C1587 C1593 1.429 . S
C1588 C1580 1.574 . S
C1588 H1583 0.949 . S
C1588 C1594 1.368 . S
C1589 C1573 1.349 . S
C1589 H1581 0.950 . S
C1589 C1587 1.327 . S
C1590 C1578 1.349 . S
C1590 H1584 0.950 . S
C1590 C1591 1.327 . S
C1591 H1585 0.950 . S
C1591 C1590 1.327 . S
C1591 C1595 1.429 . S
C1592 C1575 1.574 . S
C1592 H1586 0.949 . S
C1592 C1596 1.368 . S
C1593 C1574 1.429 . S
C1593 C1587 1.429 . S
C1593 C1594 1.523 . S
C1594 C1575 1.368 . S
C1594 C1588 1.368 . S
C1594 C1593 1.523 . S
C1595 C1579 1.429 . S
C1595 C1591 1.429 . S
C1595 C1596 1.523 . S
C1596 C1580 1.368 . S
C1596 C1592 1.368 . S
C1596 C1595 1.523 . S
H1597 C1572 0.950 . S
H1598 C1574 0.950 . S
H1599 C1575 0.949 . S
H1600 C1577 0.950 . S
H1601 C1579 0.950 . S
C1602 C1603 1.349 . S
C1602 C1604 1.327 . S
C1602 H1627 0.950 . S
C1603 C1602 1.349 . S
C1603 C1619 1.349 . S
C1604 C1602 1.327 . S
C1604 C1623 1.429 . S
C1604 H1628 0.950 . S
C1605 C1622 1.574 . S
C1605 C1624 1.368 . S
C1605 H1629 0.949 . S
H1606 C1610 0.949 . S
C1607 C1608 1.349 . S
C1607 C1609 1.327 . S
C1607 H1630 0.950 . S
C1608 C1607 1.349 . S
C1608 C1620 1.349 . S
C1609 C1607 1.327 . S
C1609 C1625 1.429 . S
C1609 H1631 0.950 . S
C1610 H1606 0.949 . S
C1610 C1618 1.574 . S
C1610 C1626 1.368 . S
H1611 C1619 0.950 . S
H1612 C1617 0.950 . S
H1613 C1618 0.949 . S
H1614 C1620 0.950 . S
H1615 C1621 0.950 . S
H1616 C1622 0.949 . S
C1617 H1612 0.950 . S
C1617 C1619 1.327 . S
C1617 C1623 1.429 . S
C1618 C1610 1.574 . S
C1618 H1613 0.949 . S
C1618 C1624 1.368 . S
C1619 C1603 1.349 . S
C1619 H1611 0.950 . S
C1619 C1617 1.327 . S
C1620 C1608 1.349 . S
C1620 H1614 0.950 . S
C1620 C1621 1.327 . S
C1621 H1615 0.950 . S
C1621 C1620 1.327 . S
C1621 C1625 1.429 . S
C1622 C1605 1.574 . S
C1622 H1616 0.949 . S
C1622 C1626 1.368 . S
C1623 C1604 1.429 . S
C1623 C1617 1.429 . S
C1623 C1624 1.523 . S
C1624 C1605 1.368 . S
C1624 C1618 1.368 . S
C1624 C1623 1.523 . S
C1625 C1609 1.429 . S
C1625 C1621 1.429 . S
C1625 C1626 1.523 . S
C1626 C1610 1.368 . S
C1626 C1622 1.368 . S
C1626 C1625 1.523 . S
H1627 C1602 0.950 . S
H1628 C1604 0.950 . S
H1629 C1605 0.949 . S
H1630 C1607 0.950 . S
H1631 C1609 0.950 . S
C1632 C1633 1.349 . S
C1632 C1634 1.327 . S
C1632 H1657 0.950 . S
C1633 C1632 1.349 . S
C1633 C1649 1.349 . S
C1634 C1632 1.327 . S
C1634 C1653 1.429 . S
C1634 H1658 0.950 . S
C1635 C1652 1.574 . S
C1635 C1654 1.368 . S
C1635 H1659 0.949 . S
H1636 C1640 0.949 . S
C1637 C1638 1.349 . S
C1637 C1639 1.327 . S
C1637 H1660 0.950 . S
C1638 C1637 1.349 . S
C1638 C1650 1.349 . S
C1639 C1637 1.327 . S
C1639 C1655 1.429 . S
C1639 H1661 0.950 . S
C1640 H1636 0.949 . S
C1640 C1648 1.574 . S
C1640 C1656 1.368 . S
H1641 C1649 0.950 . S
H1642 C1647 0.950 . S
H1643 C1648 0.949 . S
H1644 C1650 0.950 . S
H1645 C1651 0.950 . S
H1646 C1652 0.949 . S
C1647 H1642 0.950 . S
C1647 C1649 1.327 . S
C1647 C1653 1.429 . S
C1648 C1640 1.574 . S
C1648 H1643 0.949 . S
C1648 C1654 1.368 . S
C1649 C1633 1.349 . S
C1649 H1641 0.950 . S
C1649 C1647 1.327 . S
C1650 C1638 1.349 . S
C1650 H1644 0.950 . S
C1650 C1651 1.327 . S
C1651 H1645 0.950 . S
C1651 C1650 1.327 . S
C1651 C1655 1.429 . S
C1652 C1635 1.574 . S
C1652 H1646 0.949 . S
C1652 C1656 1.368 . S
C1653 C1634 1.429 . S
C1653 C1647 1.429 . S
C1653 C1654 1.523 . S
C1654 C1635 1.368 . S
C1654 C1648 1.368 . S
C1654 C1653 1.523 . S
C1655 C1639 1.429 . S
C1655 C1651 1.429 . S
C1655 C1656 1.523 . S
C1656 C1640 1.368 . S
C1656 C1652 1.368 . S
C1656 C1655 1.523 . S
H1657 C1632 0.950 . S
H1658 C1634 0.950 . S
H1659 C1635 0.949 . S
H1660 C1637 0.950 . S
H1661 C1639 0.950 . S
C1662 C1663 1.349 . S
C1662 C1664 1.327 . S
C1662 H1687 0.950 . S
C1663 C1662 1.349 . S
C1663 C1679 1.349 . S
C1664 C1662 1.327 . S
C1664 C1683 1.429 . S
C1664 H1688 0.950 . S
C1665 C1682 1.574 . S
C1665 C1684 1.368 . S
C1665 H1689 0.949 . S
H1666 C1670 0.949 . S
C1667 C1668 1.349 . S
C1667 C1669 1.327 . S
C1667 H1690 0.950 . S
C1668 C1667 1.349 . S
C1668 C1680 1.349 . S
C1669 C1667 1.327 . S
C1669 C1685 1.429 . S
C1669 H1691 0.950 . S
C1670 H1666 0.949 . S
C1670 C1678 1.574 . S
C1670 C1686 1.368 . S
H1671 C1679 0.950 . S
H1672 C1677 0.950 . S
H1673 C1678 0.949 . S
H1674 C1680 0.950 . S
H1675 C1681 0.950 . S
H1676 C1682 0.949 . S
C1677 H1672 0.950 . S
C1677 C1679 1.327 . S
C1677 C1683 1.429 . S
C1678 C1670 1.574 . S
C1678 H1673 0.949 . S
C1678 C1684 1.368 . S
C1679 C1663 1.349 . S
C1679 H1671 0.950 . S
C1679 C1677 1.327 . S
C1680 C1668 1.349 . S
C1680 H1674 0.950 . S
C1680 C1681 1.327 . S
C1681 H1675 0.950 . S
C1681 C1680 1.327 . S
C1681 C1685 1.429 . S
C1682 C1665 1.574 . S
C1682 H1676 0.949 . S
C1682 C1686 1.368 . S
C1683 C1664 1.429 . S
C1683 C1677 1.429 . S
C1683 C1684 1.523 . S
C1684 C1665 1.368 . S
C1684 C1678 1.368 . S
C1684 C1683 1.523 . S
C1685 C1669 1.429 . S
C1685 C1681 1.429 . S
C1685 C1686 1.523 . S
C1686 C1670 1.368 . S
C1686 C1682 1.368 . S
C1686 C1685 1.523 . S
H1687 C1662 0.950 . S
H1688 C1664 0.950 . S
H1689 C1665 0.949 . S
H1690 C1667 0.950 . S
H1691 C1669 0.950 . S
C1692 C1693 1.349 . S
C1692 C1694 1.327 . S
C1692 H1717 0.950 . S
C1693 C1692 1.349 . S
C1693 C1709 1.349 . S
C1694 C1692 1.327 . S
C1694 C1713 1.429 . S
C1694 H1718 0.950 . S
C1695 C1712 1.574 . S
C1695 C1714 1.368 . S
C1695 H1719 0.949 . S
H1696 C1700 0.949 . S
C1697 C1698 1.349 . S
C1697 C1699 1.327 . S
C1697 H1720 0.950 . S
C1698 C1697 1.349 . S
C1698 C1710 1.349 . S
C1699 C1697 1.327 . S
C1699 C1715 1.429 . S
C1699 H1721 0.950 . S
C1700 H1696 0.949 . S
C1700 C1708 1.574 . S
C1700 C1716 1.368 . S
H1701 C1709 0.950 . S
H1702 C1707 0.950 . S
H1703 C1708 0.949 . S
H1704 C1710 0.950 . S
H1705 C1711 0.950 . S
H1706 C1712 0.949 . S
C1707 H1702 0.950 . S
C1707 C1709 1.327 . S
C1707 C1713 1.429 . S
C1708 C1700 1.574 . S
C1708 H1703 0.949 . S
C1708 C1714 1.368 . S
C1709 C1693 1.349 . S
C1709 H1701 0.950 . S
C1709 C1707 1.327 . S
C1710 C1698 1.349 . S
C1710 H1704 0.950 . S
C1710 C1711 1.327 . S
C1711 H1705 0.950 . S
C1711 C1710 1.327 . S
C1711 C1715 1.429 . S
C1712 C1695 1.574 . S
C1712 H1706 0.949 . S
C1712 C1716 1.368 . S
C1713 C1694 1.429 . S
C1713 C1707 1.429 . S
C1713 C1714 1.523 . S
C1714 C1695 1.368 . S
C1714 C1708 1.368 . S
C1714 C1713 1.523 . S
C1715 C1699 1.429 . S
C1715 C1711 1.429 . S
C1715 C1716 1.523 . S
C1716 C1700 1.368 . S
C1716 C1712 1.368 . S
C1716 C1715 1.523 . S
H1717 C1692 0.950 . S
H1718 C1694 0.950 . S
H1719 C1695 0.949 . S
H1720 C1697 0.950 . S
H1721 C1699 0.950 . S
C1722 C1723 1.349 . S
C1722 C1724 1.327 . S
C1722 H1747 0.950 . S
C1723 C1722 1.349 . S
C1723 C1739 1.349 . S
C1724 C1722 1.327 . S
C1724 C1743 1.429 . S
C1724 H1748 0.950 . S
C1725 C1742 1.574 . S
C1725 C1744 1.368 . S
C1725 H1749 0.949 . S
H1726 C1730 0.949 . S
C1727 C1728 1.349 . S
C1727 C1729 1.327 . S
C1727 H1750 0.950 . S
C1728 C1727 1.349 . S
C1728 C1740 1.349 . S
C1729 C1727 1.327 . S
C1729 C1745 1.429 . S
C1729 H1751 0.950 . S
C1730 H1726 0.949 . S
C1730 C1738 1.574 . S
C1730 C1746 1.368 . S
H1731 C1739 0.950 . S
H1732 C1737 0.950 . S
H1733 C1738 0.949 . S
H1734 C1740 0.950 . S
H1735 C1741 0.950 . S
H1736 C1742 0.949 . S
C1737 H1732 0.950 . S
C1737 C1739 1.327 . S
C1737 C1743 1.429 . S
C1738 C1730 1.574 . S
C1738 H1733 0.949 . S
C1738 C1744 1.368 . S
C1739 C1723 1.349 . S
C1739 H1731 0.950 . S
C1739 C1737 1.327 . S
C1740 C1728 1.349 . S
C1740 H1734 0.950 . S
C1740 C1741 1.327 . S
C1741 H1735 0.950 . S
C1741 C1740 1.327 . S
C1741 C1745 1.429 . S
C1742 C1725 1.574 . S
C1742 H1736 0.949 . S
C1742 C1746 1.368 . S
C1743 C1724 1.429 . S
C1743 C1737 1.429 . S
C1743 C1744 1.523 . S
C1744 C1725 1.368 . S
C1744 C1738 1.368 . S
C1744 C1743 1.523 . S
C1745 C1729 1.429 . S
C1745 C1741 1.429 . S
C1745 C1746 1.523 . S
C1746 C1730 1.368 . S
C1746 C1742 1.368 . S
C1746 C1745 1.523 . S
H1747 C1722 0.950 . S
H1748 C1724 0.950 . S
H1749 C1725 0.949 . S
H1750 C1727 0.950 . S
H1751 C1729 0.950 . S
C313 C290 1.541 . S
C318 C5 1.548 . S
C343 C17 1.537 . S
C348 C213 1.544 . S
C373 C309 1.540 . S
C378 C29 1.547 . S
C403 C278 1.547 . S
C408 C44 1.547 . S
C433 C239 1.547 . S
C438 C55 1.547 . S
C463 C257 1.540 . S
C468 C68 1.547 . S
C493 C265 1.544 . S
C498 C88 1.537 . S
C523 C94 1.548 . S
C528 C225 1.541 . S
C553 C173 1.540 . S
C558 C114 1.540 . S
C583 C185 1.548 . S
C588 C120 1.548 . S
C613 C134 1.540 . S
C618 C205 1.540 . S
C643 C146 1.549 . S
C648 C161 1.549 . S
C673 C95 1.536 . S
C678 C186 1.536 . S
C703 C200 1.549 . S
C708 C56 1.542 . S
C733 C69 1.535 . S
C738 C166 1.535 . S
C763 C172 1.552 . S
C768 C83 1.552 . S
C793 C133 1.552 . S
C798 C16 1.552 . S
C823 C30 1.535 . S
C828 C147 1.535 . S
C853 C49 1.542 . S
C858 C109 1.549 . S
C883 C10 1.536 . S
C888 C121 1.536 . S
C913 C270 1.535 . S
C918 C283 1.535 . S
C943 C289 1.549 . S
C948 C224 1.549 . S
C973 C244 1.535 . S
C978 C218 1.535 . S
C1003 C304 1.550 . S
C1008 C252 1.550 . S
C1033 C4 0.601 . S
C1038 C108 0.601 . S
C1063 C122 0.629 . S
C1068 C18 0.629 . S
C1093 C36 0.605 . S
C1098 C140 0.605 . S
C1123 C43 0.615 . S
C1128 C148 0.618 . S
C1153 C62 0.615 . S
C1158 C159 0.618 . S
C1183 C75 0.605 . S
C1188 C179 0.605 . S
C1213 C187 0.629 . S
C1218 C81 0.629 . S
C1243 C199 0.601 . S
C1248 C101 0.601 . S
C1273 C107 0.624 . S
C1278 C211 0.624 . S
C1303 C127 0.607 . S
C1308 C303 0.607 . S
C1333 C276 0.626 . S
C1338 C135 0.627 . S
C1363 C296 0.607 . S
C1368 C153 0.608 . S
C1393 C231 0.607 . S
C1398 C160 0.608 . S
C1423 C237 0.626 . S
C1428 C174 0.627 . S
C1453 C192 0.607 . S
C1458 C251 0.607 . S
C1483 C198 0.624 . S
C1488 C263 0.624 . S
C1513 C3 0.611 . S
C1518 C212 0.607 . S
C1543 C226 0.635 . S
C1548 C57 0.635 . S
C1573 C238 0.610 . S
C1578 C70 0.614 . S
C1603 C250 0.625 . S
C1608 C82 0.621 . S
C1633 C264 0.607 . S
C1638 C96 0.611 . S
C1663 C277 0.610 . S
C1668 C31 0.614 . S
C1693 C42 0.635 . S
C1698 C291 0.635 . S
C1723 C302 0.625 . S
C1728 C23 0.621 . S
