# Generated by pormake.
# Topology unb, (4)-cn, num edge types: 1
# Building blocks:
#     Node 0, Type 0, BuildingBlock: QUQFOY_clean_sbu_3, # of connection points: 4
#     Node 1, Type 0, BuildingBlock: QUQFOY_clean_sbu_3, # of connection points: 4
#     Node 2, Type 0, BuildingBlock: QUQFOY_clean_sbu_3, # of connection points: 4
#     Node 3, Type 0, BuildingBlock: QUQFOY_clean_sbu_3, # of connection points: 4
#     Node 4, Type 0, BuildingBlock: QUQFOY_clean_sbu_3, # of connection points: 4
#     Node 5, Type 0, BuildingBlock: QUQFOY_clean_sbu_3, # of connection points: 4
#     Node 6, Type 0, BuildingBlock: QUQFOY_clean_sbu_3, # of connection points: 4
#     Node 7, Type 0, BuildingBlock: QUQFOY_clean_sbu_3, # of connection points: 4
#     Node 8, Type 0, BuildingBlock: QUQFOY_clean_sbu_3, # of connection points: 4
#     Node 9, Type 0, BuildingBlock: QUQFOY_clean_sbu_3, # of connection points: 4
#     Node 10, Type 0, BuildingBlock: QUQFOY_clean_sbu_3, # of connection points: 4
#     Node 11, Type 0, BuildingBlock: QUQFOY_clean_sbu_3, # of connection points: 4
#     Node 12, Type 0, BuildingBlock: QUQFOY_clean_sbu_3, # of connection points: 4
#     Node 13, Type 0, BuildingBlock: QUQFOY_clean_sbu_3, # of connection points: 4
#     Node 14, Type 0, BuildingBlock: QUQFOY_clean_sbu_3, # of connection points: 4
#     Node 15, Type 0, BuildingBlock: QUQFOY_clean_sbu_3, # of connection points: 4
#     Node 16, Type 0, BuildingBlock: QUQFOY_clean_sbu_3, # of connection points: 4
#     Node 17, Type 0, BuildingBlock: QUQFOY_clean_sbu_3, # of connection points: 4
#     Edge 18, Type (0, 0), BuildingBlock: AJUNOK_clean_linker_0, # of connection points: 2
#     Edge 19, Type (0, 0), BuildingBlock: AJUNOK_clean_linker_0, # of connection points: 2
#     Edge 20, Type (0, 0), BuildingBlock: AJUNOK_clean_linker_0, # of connection points: 2
#     Edge 21, Type (0, 0), BuildingBlock: AJUNOK_clean_linker_0, # of connection points: 2
#     Edge 22, Type (0, 0), BuildingBlock: AJUNOK_clean_linker_0, # of connection points: 2
#     Edge 23, Type (0, 0), BuildingBlock: AJUNOK_clean_linker_0, # of connection points: 2
#     Edge 24, Type (0, 0), BuildingBlock: AJUNOK_clean_linker_0, # of connection points: 2
#     Edge 25, Type (0, 0), BuildingBlock: AJUNOK_clean_linker_0, # of connection points: 2
#     Edge 26, Type (0, 0), BuildingBlock: AJUNOK_clean_linker_0, # of connection points: 2
#     Edge 27, Type (0, 0), BuildingBlock: AJUNOK_clean_linker_0, # of connection points: 2
#     Edge 28, Type (0, 0), BuildingBlock: AJUNOK_clean_linker_0, # of connection points: 2
#     Edge 29, Type (0, 0), BuildingBlock: AJUNOK_clean_linker_0, # of connection points: 2
#     Edge 30, Type (0, 0), BuildingBlock: AJUNOK_clean_linker_0, # of connection points: 2
#     Edge 31, Type (0, 0), BuildingBlock: AJUNOK_clean_linker_0, # of connection points: 2
#     Edge 32, Type (0, 0), BuildingBlock: AJUNOK_clean_linker_0, # of connection points: 2
#     Edge 33, Type (0, 0), BuildingBlock: AJUNOK_clean_linker_0, # of connection points: 2
#     Edge 34, Type (0, 0), BuildingBlock: AJUNOK_clean_linker_0, # of connection points: 2
#     Edge 35, Type (0, 0), BuildingBlock: AJUNOK_clean_linker_0, # of connection points: 2
#     Edge 36, Type (0, 0), BuildingBlock: AJUNOK_clean_linker_0, # of connection points: 2
#     Edge 37, Type (0, 0), BuildingBlock: AJUNOK_clean_linker_0, # of connection points: 2
#     Edge 38, Type (0, 0), BuildingBlock: AJUNOK_clean_linker_0, # of connection points: 2
#     Edge 39, Type (0, 0), BuildingBlock: AJUNOK_clean_linker_0, # of connection points: 2
#     Edge 40, Type (0, 0), BuildingBlock: AJUNOK_clean_linker_0, # of connection points: 2
#     Edge 41, Type (0, 0), BuildingBlock: AJUNOK_clean_linker_0, # of connection points: 2
#     Edge 42, Type (0, 0), BuildingBlock: AJUNOK_clean_linker_0, # of connection points: 2
#     Edge 43, Type (0, 0), BuildingBlock: AJUNOK_clean_linker_0, # of connection points: 2
#     Edge 44, Type (0, 0), BuildingBlock: AJUNOK_clean_linker_0, # of connection points: 2
#     Edge 45, Type (0, 0), BuildingBlock: AJUNOK_clean_linker_0, # of connection points: 2
#     Edge 46, Type (0, 0), BuildingBlock: AJUNOK_clean_linker_0, # of connection points: 2
#     Edge 47, Type (0, 0), BuildingBlock: AJUNOK_clean_linker_0, # of connection points: 2
#     Edge 48, Type (0, 0), BuildingBlock: AJUNOK_clean_linker_0, # of connection points: 2
#     Edge 49, Type (0, 0), BuildingBlock: AJUNOK_clean_linker_0, # of connection points: 2
#     Edge 50, Type (0, 0), BuildingBlock: AJUNOK_clean_linker_0, # of connection points: 2
#     Edge 51, Type (0, 0), BuildingBlock: AJUNOK_clean_linker_0, # of connection points: 2
#     Edge 52, Type (0, 0), BuildingBlock: AJUNOK_clean_linker_0, # of connection points: 2
#     Edge 53, Type (0, 0), BuildingBlock: AJUNOK_clean_linker_0, # of connection points: 2
# Relax obj value: 0.082
# Max RMSD: 0.073
# Mean RMSD: 0.073
data_MOF--net-unb--node1-QUQFOY_clean_sbu_3--edge1-AJUNOK_clean_linker_0
_symmetry_space_group_name_H-M    P1
_symmetry_Int_Tables_number       1
_symmetry_cell_setting            triclinic
loop_
_symmetry_equiv_pos_as_xyz
'x, y, z'
_cell_length_a     48.076583
_cell_length_b     47.89726
_cell_length_c     21.350154
_cell_angle_alpha  90.370276
_cell_angle_beta   89.967514
_cell_angle_gamma 120.2072
loop_
_atom_site_label
_atom_site_type_symbol
_atom_site_fract_x
_atom_site_fract_y
_atom_site_fract_z
_atom_type_partial_charge
C0 C 0.0387 0.20258 0.00653 0.0
O1 O 0.04982 0.18839 0.97335 0.0
Cd2 Cd 0.10211 0.19625 0.96586 0.0
O3 O 0.05611 0.22448 0.04658 0.0
Cd4 Cd 0.11478 0.25396 0.07812 0.0
C5 C 0.13053 0.27523 0.92341 0.0
O6 O 0.12446 0.21008 0.06644 0.0
O7 O 0.16745 0.2564 0.06717 0.0
O8 O 0.10778 0.25668 0.19243 0.0
C9 C 0.1547 0.22611 0.05976 0.0
O10 O 0.12516 0.24688 0.91102 0.0
C11 C 0.12348 0.28737 0.19632 0.0
O12 O 0.12688 0.28332 0.97869 0.0
O13 O 0.13449 0.30243 0.14516 0.0
C14 C 0.76591 0.83725 0.00605 0.0
O15 O 0.77958 0.86335 0.97531 0.0
Cd16 Cd 0.76793 0.9052 0.96703 0.0
O17 O 0.74239 0.8305 0.04307 0.0
Cd18 Cd 0.70949 0.85668 0.07318 0.0
C19 C 0.69054 0.85069 0.91776 0.0
O20 O 0.75112 0.91173 0.06588 0.0
O21 O 0.70372 0.90501 0.05975 0.0
O22 O 0.70619 0.84768 0.18748 0.0
C23 C 0.7338 0.92429 0.05646 0.0
O24 O 0.71858 0.87475 0.90858 0.0
C25 C 0.67561 0.83217 0.1902 0.0
O26 O 0.6813 0.83833 0.97209 0.0
O27 O 0.66081 0.82693 0.13823 0.0
C28 C 0.12098 0.91649 0.00917 0.0
O29 O 0.09491 0.90472 0.97842 0.0
Cd30 Cd 0.0558 0.8504 0.96374 0.0
O31 O 0.12777 0.89897 0.04365 0.0
Cd32 Cd 0.1024 0.83991 0.07216 0.0
C33 C 0.11484 0.83292 0.91783 0.0
O34 O 0.04645 0.82295 0.05893 0.0
O35 O 0.05653 0.78411 0.05588 0.0
O36 O 0.11173 0.84764 0.18652 0.0
C37 C 0.03585 0.793 0.05134 0.0
O38 O 0.09084 0.83656 0.90635 0.0
C39 C 0.12841 0.83383 0.18999 0.0
O40 O 0.12479 0.83375 0.97365 0.0
O41 O 0.13339 0.82347 0.13864 0.0
C42 C 0.18471 0.05147 0.95861 0.0
O43 O 0.16985 0.06309 -0.01198 0.0
Cd44 Cd 0.17936 0.11614 -0.00653 0.0
O45 O 0.20779 0.06864 0.92103 0.0
Cd46 Cd 0.23804 0.12708 0.88627 0.0
C47 C 0.25756 0.14245 0.04127 0.0
O48 O 0.19512 0.13818 0.89377 0.0
O49 O 0.24184 0.18056 0.89697 0.0
O50 O 0.23897 0.11715 0.77305 0.0
C51 C 0.21164 0.16846 0.90174 0.0
O52 O 0.22925 0.13747 0.05077 0.0
C53 C 0.2694 0.13353 0.76703 0.0
O54 O 0.26686 0.13927 -0.01314 0.0
O55 O 0.28545 0.14607 0.817 0.0
C56 C 0.90359 0.1333 0.96161 0.0
O57 O 0.89226 0.10761 -0.00655 0.0
Cd58 Cd 0.84002 0.06259 -0.00254 0.0
O59 O 0.88638 0.13774 0.92159 0.0
Cd60 Cd 0.82817 0.10769 0.88622 0.0
C61 C 0.80943 0.11157 0.03938 0.0
O62 O 0.81952 0.05445 0.89557 0.0
O63 O 0.77592 0.05618 0.8937 0.0
O64 O 0.83796 0.11794 0.77307 0.0
C65 C 0.7892 0.03928 0.90078 0.0
O66 O 0.81545 0.08908 0.05109 0.0
C67 C 0.82132 0.13161 0.76652 0.0
O68 O 0.81363 0.12388 -0.01522 0.0
O69 O 0.80861 0.13507 0.81608 0.0
C70 C 0.83475 0.7705 0.95809 0.0
O71 O 0.86142 0.78496 -0.01292 0.0
Cd72 Cd 0.90154 0.77033 -0.00474 0.0
O73 O 0.82714 0.74592 0.92311 0.0
Cd74 Cd 0.85138 0.71183 0.89345 0.0
C75 C 0.84403 0.69518 0.04884 0.0
O76 O 0.90802 0.75006 0.89891 0.0
O77 O 0.89518 0.70066 0.91422 0.0
O78 O 0.84257 0.70932 0.77939 0.0
C79 C 0.91716 0.73005 0.91124 0.0
O80 O 0.86904 0.72277 0.05746 0.0
C81 C 0.82495 0.67875 0.7759 0.0
O82 O 0.83158 0.68555 -0.00555 0.0
O83 O 0.81891 0.66357 0.8274 0.0
C84 C 0.70319 0.53469 0.33653 0.0
O85 O 0.71357 0.5201 0.30254 0.0
Cd86 Cd 0.76506 0.5262 0.29496 0.0
O87 O 0.72103 0.55592 0.37732 0.0
Cd88 Cd 0.77962 0.58317 0.40994 0.0
C89 C 0.79683 0.60665 0.25752 0.0
O90 O 0.78596 0.53732 0.3966 0.0
O91 O 0.83065 0.58194 0.3999 0.0
O92 O 0.77078 0.58385 0.5236 0.0
C93 C 0.81622 0.5516 0.39149 0.0
O94 O 0.78988 0.57788 0.24418 0.0
C95 C 0.78881 0.6142 0.53082 0.0
O96 O 0.7938 0.61484 0.31311 0.0
O97 O 0.80179 0.63026 0.48146 0.0
C98 C 0.4185 0.16429 0.33486 0.0
O99 O 0.43277 0.18961 0.30192 0.0
Cd100 Cd 0.42563 0.23464 0.2947 0.0
O101 O 0.3968 0.16008 0.37459 0.0
Cd102 Cd 0.3678 0.18977 0.40591 0.0
C103 C 0.34646 0.18508 0.2512 0.0
O104 O 0.41189 0.24351 0.39495 0.0
O105 O 0.36589 0.24038 0.39617 0.0
O106 O 0.36505 0.18052 0.52025 0.0
C107 C 0.39602 0.25786 0.38854 0.0
O108 O 0.375 0.20766 0.23952 0.0
C109 C 0.33448 0.16545 0.52355 0.0
O110 O 0.33815 0.17313 0.30605 0.0
O111 O 0.31948 0.16105 0.47205 0.0
C112 C 0.78893 0.24845 0.33567 0.0
O113 O 0.76248 0.23777 0.30642 0.0
Cd114 Cd 0.71686 0.18553 0.30105 0.0
O115 O 0.79393 0.23062 0.37298 0.0
Cd116 Cd 0.76379 0.17213 0.40609 0.0
C117 C 0.76552 0.15618 0.25008 0.0
O118 O 0.71005 0.16228 0.39976 0.0
O119 O 0.71343 0.11937 0.39668 0.0
O120 O 0.77491 0.18017 0.5196 0.0
C121 C 0.69576 0.13192 0.39212 0.0
O122 O 0.74287 0.16225 0.24139 0.0
C123 C 0.78929 0.16402 0.52283 0.0
O124 O 0.77829 0.15904 0.30406 0.0
O125 O 0.79264 0.15244 0.47144 0.0
C126 C 0.86053 0.38324 0.2901 0.0
O127 O 0.84608 0.39371 0.32416 0.0
Cd128 Cd 0.85141 0.44506 0.33175 0.0
O129 O 0.88143 0.40102 0.24933 0.0
Cd130 Cd 0.90822 0.45994 0.21778 0.0
C131 C 0.93155 0.47808 0.37094 0.0
O132 O 0.86181 0.46507 0.22979 0.0
O133 O 0.90559 0.51052 0.22797 0.0
O134 O 0.90957 0.45146 0.10393 0.0
C135 C 0.87531 0.4954 0.23525 0.0
O136 O 0.90284 0.47096 0.38382 0.0
C137 C 0.93975 0.47006 0.09767 0.0
O138 O 0.93963 0.47478 0.31553 0.0
O139 O 0.95548 0.48315 0.14765 0.0
C140 C 0.56851 0.46517 0.29076 0.0
O141 O 0.55759 0.43876 0.3201 0.0
Cd142 Cd 0.50532 0.39363 0.32443 0.0
O143 O 0.55091 0.47031 0.25301 0.0
Cd144 Cd 0.49268 0.44076 0.21801 0.0
C145 C 0.47635 0.44319 0.37339 0.0
O146 O 0.48287 0.38692 0.22476 0.0
O147 O 0.44001 0.39009 0.22569 0.0
O148 O 0.50262 0.45158 0.10517 0.0
C149 C 0.45263 0.3725 0.2315 0.0
O150 O 0.48234 0.42046 0.38225 0.0
C151 C 0.48646 0.46578 0.09894 0.0
O152 O 0.47934 0.45594 0.31945 0.0
O153 O 0.47386 0.46929 0.14865 0.0
C154 C 0.4865 0.09668 0.29531 0.0
O155 O 0.51164 0.11046 0.32911 0.0
Cd156 Cd 0.55503 0.10111 0.33685 0.0
O157 O 0.48203 0.07481 0.25516 0.0
Cd158 Cd 0.51094 0.04527 0.22139 0.0
C159 C 0.50297 0.02082 0.37319 0.0
O160 O 0.56439 0.0895 0.23516 0.0
O161 O 0.56163 0.04354 0.23154 0.0
O162 O 0.50143 0.04533 0.10764 0.0
C163 C 0.57893 0.07377 0.24014 0.0
O164 O 0.52543 0.04926 0.38709 0.0
C165 C 0.48771 0.01487 0.10021 0.0
O166 O 0.49201 0.01301 0.31738 0.0
O167 O 0.48404 -0.00149 0.14939 0.0
C168 C 0.3778 0.85206 0.67723 0.0
O169 O 0.3923 0.8383 0.65465 0.0
Cd170 Cd 0.4482 0.86005 0.64178 0.0
O171 O 0.3933 0.87924 0.70587 0.0
Cd172 Cd 0.45125 0.91751 0.73757 0.0
C173 C 0.46018 0.93286 0.58272 0.0
O174 O 0.4742 0.88315 0.73669 0.0
O175 O 0.50744 0.93273 0.71456 0.0
O176 O 0.44457 0.91999 0.8515 0.0
C177 C 0.50248 0.90429 0.72101 0.0
O178 O 0.45948 0.90602 0.57633 0.0
C179 C 0.45648 0.95043 0.85484 0.0
O180 O 0.45632 0.94259 0.63618 0.0
O181 O 0.46478 0.96553 0.80315 0.0
C182 C 0.09256 0.51134 0.6742 0.0
O183 O 0.1086 0.53777 0.6452 0.0
Cd184 Cd 0.09775 0.58007 0.63254 0.0
O185 O 0.06834 0.50565 0.70809 0.0
Cd186 Cd 0.03746 0.5337 0.7372 0.0
C187 C 0.0206 0.52518 0.58066 0.0
O188 O 0.078 0.58948 0.72607 0.0
O189 O 0.02955 0.58062 0.72362 0.0
O190 O 0.03509 0.52468 0.85127 0.0
C191 C 0.05935 0.60077 0.71852 0.0
O192 O 0.04917 0.54825 0.57138 0.0
C193 C 0.00454 0.50785 0.85432 0.0
O194 O 0.0104 0.51442 0.63565 0.0
O195 O -0.01063 0.50259 0.80274 0.0
C196 C 0.45886 0.58505 0.66193 0.0
O197 O 0.43317 0.57374 0.62993 0.0
Cd198 Cd 0.38717 0.52212 0.62697 0.0
O199 O 0.46304 0.56793 0.70265 0.0
Cd200 Cd 0.43199 0.50948 0.73784 0.0
C201 C 0.43304 0.48856 0.58405 0.0
O202 O 0.38019 0.50388 0.73024 0.0
O203 O 0.37866 0.45857 0.73295 0.0
O204 O 0.4437 0.51805 0.8516 0.0
C205 C 0.36328 0.47349 0.72658 0.0
O206 O 0.4111 0.49529 0.57241 0.0
C207 C 0.45662 0.50056 0.85529 0.0
O208 O 0.44571 0.493 0.63853 0.0
O209 O 0.45897 0.48811 0.80419 0.0
C210 C 0.5267 0.72051 0.61907 0.0
O211 O 0.51203 0.73116 0.65189 0.0
Cd212 Cd 0.52312 0.78441 0.66598 0.0
O213 O 0.54964 0.73877 0.5823 0.0
Cd214 Cd 0.58022 0.79797 0.55376 0.0
C215 C 0.60163 0.80844 0.70831 0.0
O216 O 0.53955 0.81228 0.57088 0.0
O217 O 0.58767 0.8529 0.5676 0.0
O218 O 0.58003 0.78965 0.43955 0.0
C219 C 0.55801 0.84257 0.57653 0.0
O220 O 0.57345 0.80302 0.72126 0.0
C221 C 0.61048 0.80434 0.43342 0.0
O222 O 0.6099 0.80677 0.6521 0.0
O223 O 0.62688 0.81562 0.48348 0.0
C224 C 0.24164 0.78726 0.61507 0.0
O225 O 0.22594 0.75942 0.63923 0.0
Cd226 Cd 0.16995 0.72816 0.65359 0.0
O227 O 0.2273 0.79969 0.58574 0.0
Cd228 Cd 0.16961 0.78136 0.55398 0.0
C229 C 0.161 0.79239 0.70625 0.0
O230 O 0.14484 0.7236 0.55726 0.0
O231 O 0.11311 0.74151 0.57963 0.0
O232 O 0.17668 0.78812 0.43991 0.0
C233 C 0.11692 0.71733 0.57317 0.0
O234 O 0.16067 0.76587 0.71465 0.0
C235 C 0.16458 0.80623 0.43405 0.0
O236 O 0.16566 0.80511 0.65209 0.0
O237 O 0.15614 0.81415 0.48454 0.0
C238 C 0.1529 0.43681 0.63135 0.0
O239 O 0.17833 0.45151 0.6641 0.0
Cd240 Cd 0.22267 0.44389 0.6718 0.0
O241 O 0.14831 0.41446 0.5923 0.0
Cd242 Cd 0.17766 0.38486 0.56094 0.0
C243 C 0.17278 0.3646 0.71552 0.0
O244 O 0.23033 0.43021 0.57066 0.0
O245 O 0.22961 0.38525 0.56953 0.0
O246 O 0.16748 0.38334 0.44746 0.0
C247 C 0.24601 0.41569 0.57607 0.0
O248 O 0.19512 0.39345 0.72651 0.0
C249 C 0.15439 0.35289 0.44088 0.0
O250 O 0.16108 0.35514 0.66053 0.0
O251 O 0.15105 0.33702 0.49064 0.0
C252 C 0.12965 0.30286 0.37294 0.0
C253 C 0.14486 0.33676 0.37801 0.0
C254 C 0.12219 0.28714 0.31428 0.0
C255 C 0.12978 0.30461 0.2579 0.0
H256 H 0.12378 0.28822 0.41466 0.0
H257 H 0.11093 0.26107 0.31325 0.0
S258 S 0.16837 0.39379 0.24479 0.0
N259 N 0.16618 0.38723 0.32092 0.0
N260 N 0.1524 0.35783 0.2112 0.0
C261 C 0.1444 0.33849 0.26224 0.0
C262 C 0.15184 0.35449 0.32201 0.0
C263 C 0.6601 0.82601 0.3664 0.0
C264 C 0.62626 0.80916 0.37088 0.0
C265 C 0.67571 0.8325 0.30811 0.0
C266 C 0.65825 0.82253 0.25145 0.0
H267 H 0.6748 0.83476 0.40829 0.0
H268 H 0.70177 0.84607 0.30759 0.0
S269 S 0.56911 0.77608 0.23688 0.0
N270 N 0.57575 0.78146 0.31304 0.0
N271 N 0.60499 0.7937 0.20391 0.0
C272 C 0.62438 0.80496 0.25522 0.0
C273 C 0.60846 0.79828 0.31467 0.0
C274 C 0.14075 0.83181 0.36629 0.0
C275 C 0.15835 0.81565 0.37124 0.0
C276 C 0.13189 0.83824 0.3077 0.0
C277 C 0.14022 0.82883 0.25132 0.0
H278 H 0.13301 0.8389 0.40808 0.0
H279 H 0.11777 0.85011 0.30679 0.0
S280 S 0.18828 0.7879 0.23789 0.0
N281 N 0.18529 0.79192 0.31403 0.0
N282 N 0.16872 0.80397 0.20442 0.0
C283 C 0.15874 0.81359 0.25551 0.0
C284 C 0.16776 0.80703 0.31519 0.0
C285 C 0.33478 0.16516 0.64153 0.0
C286 C 0.31732 0.15495 0.58489 0.0
C287 C 0.31918 0.15755 0.69993 0.0
C288 C 0.28537 0.13921 0.70449 0.0
H289 H 0.36079 0.17981 0.64091 0.0
H290 H 0.33382 0.16661 0.74185 0.0
S291 S 0.22838 0.10479 0.57045 0.0
N292 N 0.2642 0.12424 0.53741 0.0
N293 N 0.23499 0.10982 0.64665 0.0
C294 C 0.26763 0.12803 0.64824 0.0
C295 C 0.28354 0.13592 0.58873 0.0
C296 C 0.79034 0.16557 0.64067 0.0
C297 C 0.79995 0.15761 0.58414 0.0
C298 C 0.79791 0.15769 0.69913 0.0
C299 C 0.81565 0.14167 0.70387 0.0
H300 H 0.77615 0.17738 0.63992 0.0
H301 H 0.78931 0.16383 0.74096 0.0
S302 S 0.8484 0.11715 0.5702 0.0
N303 N 0.82946 0.13394 0.53693 0.0
N304 N 0.84385 0.11938 0.64638 0.0
C305 C 0.82627 0.13442 0.64775 0.0
C306 C 0.81839 0.1423 0.58814 0.0
C307 C 0.82422 0.6793 0.65815 0.0
C308 C 0.81343 0.66175 0.71429 0.0
C309 C 0.8156 0.66383 0.59937 0.0
C310 C 0.79566 0.63007 0.59389 0.0
H311 H 0.84004 0.70526 0.65943 0.0
H312 H 0.82511 0.67852 0.55787 0.0
S313 S 0.75938 0.57293 0.72628 0.0
N314 N 0.78058 0.60865 0.76035 0.0
N315 N 0.76431 0.57966 0.65024 0.0
C316 C 0.78396 0.61226 0.6496 0.0
C317 C 0.79285 0.62804 0.70956 0.0
C318 C -0.01063 0.49774 0.03054 0.0
C319 C 0.95575 0.47745 0.03501 0.0
C320 C 0.0049 0.50678 0.97218 0.0
C321 C -0.01247 0.49613 0.91549 0.0
H322 H 0.0039 0.50715 0.07252 0.0
H323 H 0.03074 0.52282 0.97165 0.0
S324 S 0.89917 0.44134 0.90078 0.0
N325 N 0.90571 0.44596 0.97704 0.0
N326 N 0.93478 0.46305 0.86782 0.0
C327 C 0.95397 0.47526 0.91921 0.0
C328 C 0.93815 0.46591 0.9787 0.0
C329 C 0.46432 0.49323 0.03174 0.0
C330 C 0.48128 0.4764 0.0364 0.0
C331 C 0.45732 0.50173 0.97328 0.0
C332 C 0.46672 0.49357 0.91671 0.0
H333 H 0.45591 0.49955 0.0736 0.0
H334 H 0.44371 0.51414 0.97254 0.0
S335 S 0.51321 0.45105 0.90257 0.0
N336 N 0.50854 0.45314 0.97873 0.0
N337 N 0.49519 0.46881 0.86942 0.0
C338 C 0.48436 0.47742 0.92067 0.0
C339 C 0.49168 0.46895 -0.01978 0.0
C340 C 0.46325 0.96528 0.03144 0.0
C341 C 0.47776 -0.0009 0.03714 0.0
C342 C 0.45564 0.94983 0.9726 0.0
C343 C 0.46224 0.96744 0.91657 0.0
H344 H 0.45818 0.95052 0.07278 0.0
H345 H 0.44511 0.92383 0.97118 0.0
S346 S 0.49837 0.05643 0.90523 0.0
N347 N 0.49713 0.04963 -0.01883 0.0
N348 N 0.48295 0.02067 0.87093 0.0
C349 C 0.47592 0.00121 0.92155 0.0
C350 C 0.48363 0.01697 -0.01841 0.0
C351 C 0.13869 0.28765 0.80918 0.0
C352 C 0.1404 0.29858 0.87139 0.0
C353 C 0.14834 0.30897 0.75873 0.0
C354 C 0.1604 0.34207 0.76859 0.0
H355 H 0.12993 0.26238 0.79908 0.0
H356 H 0.1471 0.29956 0.71189 0.0
S357 S 0.16778 0.3829 0.92133 0.0
N358 N 0.15361 0.34464 0.93934 0.0
N359 N 0.17184 0.38474 0.84446 0.0
C360 C 0.16155 0.3533 0.83022 0.0
C361 C 0.15151 0.33156 0.88162 0.0
C362 C 0.61365 0.8119 0.82268 0.0
C363 C 0.62487 0.81713 0.76041 0.0
C364 C 0.63497 0.82178 0.87342 0.0
C365 C 0.66834 0.83756 0.86383 0.0
H366 H 0.58815 0.80044 0.83258 0.0
H367 H 0.62524 0.81795 0.9204 0.0
S368 S 0.7101 0.85462 0.71037 0.0
N369 N 0.67154 0.8373 0.69222 0.0
N370 N 0.71169 0.85594 0.78762 0.0
C371 C 0.6799 0.84192 0.80192 0.0
C372 C 0.65816 0.83164 0.7502 0.0
C373 C 0.14354 0.80636 0.87273 0.0
C374 C 0.13052 0.82655 0.86482 0.0
C375 C 0.15462 0.79655 0.82128 0.0
C376 C 0.15346 0.80692 0.76019 0.0
H377 H 0.14382 0.79685 0.91849 0.0
H378 H 0.16331 0.77994 0.82937 0.0
S379 S 0.12542 0.86361 0.7163 0.0
N380 N 0.11985 0.85921 0.7927 0.0
N381 N 0.14088 0.84095 0.69586 0.0
C382 C 0.14233 0.82878 0.75233 0.0
C383 C 0.13075 0.8385 0.80469 0.0
C384 C 0.33433 0.17975 0.13674 0.0
C385 C 0.32307 0.1726 0.19889 0.0
C386 C 0.31304 0.16934 0.08593 0.0
C387 C 0.27966 0.15171 0.0953 0.0
H388 H 0.35988 0.19362 0.127 0.0
H389 H 0.32284 0.17578 0.0391 0.0
S390 S 0.2377 0.12507 0.24827 0.0
N391 N 0.2763 0.14562 0.26665 0.0
N392 N 0.23617 0.12606 0.17115 0.0
C393 C 0.26801 0.14379 0.15706 0.0
C394 C 0.28973 0.15418 0.20883 0.0
C395 C 0.80217 0.11641 0.15378 0.0
C396 C 0.79847 0.12397 0.09173 0.0
C397 C 0.79194 0.12735 0.20475 0.0
C398 C 0.77725 0.14596 0.19568 0.0
H399 H 0.81319 0.10195 0.16339 0.0
H400 H 0.79509 0.12069 0.2515 0.0
S401 S 0.76292 0.17357 0.04307 0.0
N402 N 0.77987 0.15206 0.02434 0.0
N403 N 0.76047 0.1726 0.12021 0.0
C404 C 0.77369 0.15407 0.13402 0.0
C405 C 0.78437 0.14313 0.08205 0.0
C406 C 0.81265 0.63999 0.09313 0.0
C407 C 0.83023 0.67351 0.10292 0.0
C408 C 0.80171 0.61876 0.14361 0.0
C409 C 0.80762 0.6302 0.20594 0.0
H410 H 0.80807 0.62995 0.04612 0.0
H411 H 0.78867 0.59308 0.13342 0.0
S412 S 0.85027 0.71609 0.25665 0.0
N413 N 0.8515 0.71746 0.17941 0.0
N414 N 0.83071 0.67736 0.27457 0.0
C415 C 0.82415 0.66373 0.21647 0.0
C416 C 0.83556 0.68543 0.1649 0.0
C417 C 0.94395 0.48463 0.48514 0.0
C418 C 0.95514 0.48923 0.42289 0.0
C419 C 0.96526 0.49548 0.53583 0.0
C420 C -0.00135 0.51165 0.52639 0.0
H421 H 0.91843 0.47261 0.49513 0.0
H422 H 0.95542 0.49185 0.58269 0.0
S423 S 0.04046 0.52824 0.37298 0.0
N424 N 0.00185 0.50984 0.35477 0.0
N425 N 0.04209 0.53039 0.4502 0.0
C426 C 0.01026 0.51579 0.46449 0.0
C427 C -0.01153 0.50451 0.41273 0.0
C428 C 0.43702 0.48038 0.46959 0.0
C429 C 0.4447 0.47683 0.53169 0.0
C430 C 0.44774 0.46991 0.41861 0.0
C431 C 0.46623 0.45512 0.42772 0.0
H432 H 0.42271 0.49155 0.45995 0.0
H433 H 0.44105 0.47301 0.37181 0.0
S434 S 0.49383 0.44083 0.58055 0.0
N435 N 0.47259 0.45805 0.59918 0.0
N436 N 0.49271 0.43821 0.50339 0.0
C437 C 0.47434 0.45158 0.48948 0.0
C438 C 0.46362 0.4625 0.54142 0.0
C439 C 0.48024 -0.01272 0.53666 0.0
C440 C 0.46786 0.95401 0.52766 0.0
C441 C 0.49089 0.00846 0.48606 0.0
C442 C 0.48921 -0.00281 0.42435 0.0
H443 H 0.48275 -0.0027 0.58333 0.0
H444 H 0.50086 0.03399 0.4956 0.0
S445 S 0.45665 0.91201 0.37481 0.0
N446 N 0.45295 0.91045 0.45179 0.0
N447 N 0.47283 0.95052 0.3565 0.0
C448 C 0.47572 0.96387 0.41421 0.0
C449 C 0.46514 0.94223 0.46592 0.0
C450 C 0.15264 0.18041 -0.00071 0.0
C451 C 0.17096 0.21225 0.0222 0.0
C452 C 0.1656 0.16743 0.95761 0.0
C453 C 0.19795 0.18515 0.93857 0.0
H454 H 0.12769 0.16531 0.0127 0.0
H455 H 0.15012 0.14285 0.94137 0.0
S456 S 0.25677 0.26955 -0.01438 0.0
N457 N 0.22331 0.26148 0.02231 0.0
N458 N 0.24822 0.23648 0.94584 0.0
C459 C 0.2168 0.21701 0.96133 0.0
C460 C 0.20329 0.23058 0.003 0.0
C461 C 0.79194 -0.004 0.95962 0.0
C462 C 0.7732 0.00881 0.93714 0.0
C463 C 0.77935 0.97002 0.00089 0.0
C464 C 0.74695 0.95456 0.01975 0.0
H465 H 0.81698 0.00654 0.9464 0.0
H466 H 0.7952 0.96161 0.01703 0.0
S467 S 0.68702 0.97791 0.97329 0.0
N468 N 0.72036 0.00406 0.93703 0.0
N469 N 0.69612 0.95395 0.01253 0.0
C470 C 0.72763 0.96675 -0.00283 0.0
C471 C 0.74078 -0.00607 0.95603 0.0
C472 C -0.02347 0.76522 0.9169 0.0
C473 C 0.94792 0.74147 0.94436 0.0
C474 C 0.00533 0.78031 0.95109 0.0
C475 C 0.0062 0.7733 0.01472 0.0
H476 H -0.02348 0.77253 0.86898 0.0
H477 H 0.02689 0.79793 0.92756 0.0
S478 S 0.93819 0.71152 0.10736 0.0
N479 N 0.92259 0.70965 0.03744 0.0
N480 N -0.02341 0.73969 0.10275 0.0
C481 C -0.0219 0.7487 0.04208 0.0
C482 C 0.94891 0.73248 0.00665 0.0
C483 C 0.80187 0.79382 0.92043 0.0
C484 C 0.81172 0.78157 0.9696 0.0
C485 C 0.78523 0.81027 0.93286 0.0
C486 C 0.77739 0.81437 -0.00536 0.0
H487 H 0.80875 0.79244 0.87268 0.0
H488 H 0.77955 0.821 0.89398 0.0
S489 S 0.79444 0.78294 0.13857 0.0
N490 N 0.81032 0.77201 0.08156 0.0
N491 N 0.77815 0.80223 0.10459 0.0
C492 C 0.78501 0.80007 0.04363 0.0
C493 C 0.80252 0.78389 0.03113 0.0
C494 C 0.1515 0.97324 0.04713 0.0
C495 C 0.14439 0.9507 -0.00107 0.0
C496 C 0.16651 0.00627 0.03374 0.0
C497 C 0.17518 0.01769 0.97195 0.0
H498 H 0.1434 0.96521 0.09445 0.0
H499 H 0.17004 0.02291 0.07165 0.0
S500 S 0.16498 0.96812 0.83086 0.0
N501 N 0.14934 0.94172 0.8883 0.0
N502 N 0.17827 0.00404 0.86347 0.0
C503 C 0.17049 -0.00448 0.9243 0.0
C504 C 0.15479 0.96187 0.93776 0.0
C505 C 0.94978 0.16266 0.0345 0.0
C506 C 0.9375 0.15789 0.97292 0.0
C507 C -0.01704 0.18016 0.04626 0.0
C508 C 0.00478 0.19286 -0.0034 0.0
H509 H 0.93366 0.15135 0.07363 0.0
H510 H -0.00845 0.18154 0.09373 0.0
S511 S -0.01501 0.19066 0.82808 0.0
N512 N 0.94963 0.17034 0.8628 0.0
N513 N 0.01217 0.20262 0.88457 0.0
C514 C -0.0072 0.19033 0.93541 0.0
C515 C 0.95903 0.17301 0.9236 0.0
C516 C 0.86353 0.55513 0.334 0.0
C517 C 0.83151 0.53645 0.35471 0.0
C518 C 0.87724 0.54213 0.29354 0.0
C519 C 0.85938 0.51001 0.27165 0.0
H520 H 0.87812 0.58012 0.34865 0.0
H521 H 0.90214 0.55732 0.27993 0.0
S522 S 0.77437 0.45089 0.31139 0.0
N523 N 0.78257 0.48377 0.35125 0.0
N524 N 0.80753 0.46011 0.27255 0.0
C525 C 0.82717 0.49123 0.29132 0.0
C526 C 0.81352 0.50417 0.33372 0.0
C527 C 0.45415 0.32771 0.28734 0.0
C528 C 0.43627 0.34206 0.26799 0.0
C529 C 0.44139 0.30171 0.3287 0.0
C530 C 0.40968 0.28798 0.35116 0.0
H531 H 0.47865 0.33704 0.27151 0.0
H532 H 0.45653 0.29201 0.34228 0.0
S533 S 0.35209 0.31573 0.31366 0.0
N534 N 0.38492 0.34043 0.2744 0.0
N535 N 0.36042 0.2906 0.35051 0.0
C536 C 0.39123 0.30173 0.33169 0.0
C537 C 0.40452 0.32877 0.29021 0.0
C538 C 0.62339 0.11971 0.29897 0.0
C539 C 0.60949 0.08777 0.27638 0.0
C540 C 0.65016 0.13298 0.33874 0.0
C541 C 0.66492 0.11527 0.35668 0.0
H542 H 0.61326 0.13467 0.28665 0.0
H543 H 0.65968 0.15768 0.35457 0.0
S544 S 0.63827 0.03057 0.31031 0.0
N545 N 0.61244 0.03852 0.27533 0.0
N546 N 0.66347 0.06382 0.34892 0.0
C547 C 0.65141 0.08326 0.33442 0.0
C548 C 0.62371 0.06953 0.29433 0.0
C549 C 0.45709 0.11434 0.36585 0.0
C550 C 0.46249 0.1068 0.3047 0.0
C551 C 0.43988 0.1304 0.37622 0.0
C552 C 0.42814 0.13992 0.32561 0.0
H553 H 0.4676 0.10917 0.40583 0.0
H554 H 0.43795 0.13755 0.42355 0.0
S555 S 0.43232 0.12249 0.15741 0.0
N556 N 0.45169 0.10693 0.1937 0.0
N557 N 0.42 0.13793 0.2129 0.0
C558 C 0.43137 0.13052 0.26467 0.0
C559 C 0.44836 0.11365 0.25423 0.0
C560 C 0.81734 0.29405 0.26176 0.0
C561 C 0.81412 0.28204 0.3231 0.0
C562 C 0.83586 0.32718 0.24953 0.0
C563 C 0.85129 0.34926 0.29852 0.0
H564 H 0.80401 0.27787 0.2234 0.0
H565 H 0.83577 0.33569 0.20267 0.0
S566 S 0.85403 0.32998 0.46556 0.0
N567 N 0.831 0.29446 0.43174 0.0
N568 N 0.86521 0.35698 0.40917 0.0
C569 C 0.8504 0.3374 0.35907 0.0
C570 C 0.83197 0.30363 0.37132 0.0
C571 C 0.61441 0.49356 0.36458 0.0
C572 C 0.60223 0.48999 0.30314 0.0
C573 C 0.64754 0.51138 0.37671 0.0
C574 C 0.66941 0.52566 0.32754 0.0
H575 H 0.59831 0.48102 0.4031 0.0
H576 H 0.65611 0.51165 0.42377 0.0
S577 S 0.64975 0.52708 0.16007 0.0
N578 N 0.61439 0.50532 0.19409 0.0
N579 N 0.67687 0.5382 0.21652 0.0
C580 C 0.65746 0.52441 0.2668 0.0
C581 C 0.62372 0.50674 0.25464 0.0
C582 C 0.53992 0.85424 0.67767 0.0
C583 C 0.54798 0.86189 0.61429 0.0
C584 C 0.52674 0.8694 0.71311 0.0
C585 C 0.52243 0.89377 0.68724 0.0
H586 H 0.54344 0.8362 0.70023 0.0
H587 H 0.51919 0.86149 0.76072 0.0
S588 S 0.54362 0.92571 0.52556 0.0
N589 N 0.55317 0.89706 0.52837 0.0
N590 N 0.5298 0.92693 0.5958 0.0
C591 C 0.53272 0.90348 0.62526 0.0
C592 C 0.54533 0.88729 0.58861 0.0
C593 C 0.09105 0.65791 0.58148 0.0
C594 C 0.09631 0.68715 0.60723 0.0
C595 C 0.07749 0.62977 0.61726 0.0
C596 C 0.06987 0.63006 0.68075 0.0
H597 H 0.09829 0.65698 0.53378 0.0
H598 H 0.07351 0.60782 0.59501 0.0
S599 S 0.07675 0.69993 0.76934 0.0
N600 N 0.09042 0.71431 0.69881 0.0
N601 N 0.06617 0.66132 0.76679 0.0
C602 C 0.07349 0.6587 0.70638 0.0
C603 C 0.08655 0.68733 0.66944 0.0
C604 C 0.31749 0.42601 0.67165 0.0
C605 C 0.33213 0.45838 0.69217 0.0
C606 C 0.29029 0.4126 0.6324 0.0
C607 C 0.2769 0.43114 0.61141 0.0
H608 H 0.3273 0.41095 0.68536 0.0
H609 H 0.27959 0.38743 0.61883 0.0
S610 S 0.3062 0.51722 0.65139 0.0
N611 N 0.3303 0.50827 0.69018 0.0
N612 N 0.2811 0.48398 0.61288 0.0
C613 C 0.29161 0.46367 0.63096 0.0
C614 C 0.31855 0.47697 0.67247 0.0
C615 C 0.12398 0.46334 0.59008 0.0
C616 C 0.12929 0.44738 0.63926 0.0
C617 C 0.11034 0.4827 0.60174 0.0
C618 C 0.10118 0.48627 0.66271 0.0
H619 H 0.13276 0.463 0.54348 0.0
H620 H 0.10829 0.49616 0.56317 0.0
S621 S 0.10627 0.44576 0.80558 0.0
N622 N 0.12186 0.43378 0.7498 0.0
N623 N 0.09522 0.4695 0.77126 0.0
C624 C 0.10381 0.46817 0.71117 0.0
C625 C 0.11822 0.44891 0.69951 0.0
C626 C 0.48738 0.63126 0.58932 0.0
C627 C 0.48344 0.61902 0.65067 0.0
C628 C 0.50434 0.66456 0.57801 0.0
C629 C 0.51741 0.68654 0.62791 0.0
H630 H 0.47572 0.615 0.55011 0.0
H631 H 0.50503 0.6731 0.53085 0.0
S632 S 0.51759 0.66705 0.79571 0.0
N633 N 0.49718 0.63147 0.76064 0.0
N634 N 0.52856 0.69421 0.73968 0.0
C635 C 0.51583 0.67465 0.68871 0.0
C636 C 0.499 0.64076 0.70007 0.0
C637 C 0.29304 0.78814 0.63281 0.0
C638 C 0.27679 0.80549 0.62634 0.0
C639 C 0.32531 0.80342 0.65105 0.0
C640 C 0.3428 0.83674 0.66443 0.0
H641 H 0.28062 0.76233 0.62403 0.0
H642 H 0.33663 0.78883 0.65472 0.0
S643 S 0.31134 0.89326 0.65543 0.0
N644 N 0.28038 0.85784 0.63516 0.0
N645 N 0.34142 0.8868 0.66971 0.0
C646 C 0.32689 0.85452 0.65843 0.0
C647 C 0.29387 0.83888 0.63903 0.0
loop_
_geom_bond_atom_site_label_1
_geom_bond_atom_site_label_2
_geom_bond_distance
_geom_bond_site_symmetry_2
_ccdc_geom_bond_type
C0 O1 1.306 . S
C0 O3 1.160 . S
O1 C0 1.306 . S
O1 Cd2 2.228 1_554 S
Cd2 O1 2.228 1_556 S
Cd2 O6 2.273 1_556 S
Cd2 O10 2.277 . S
O3 C0 1.160 . S
O3 Cd4 2.203 . S
Cd4 O3 2.203 . S
Cd4 O6 2.411 . S
Cd4 O7 2.333 . S
Cd4 O8 2.352 . S
Cd4 O12 2.277 1_554 S
Cd4 O13 2.356 . S
C5 O10 1.209 . S
C5 O12 1.226 . S
O6 Cd2 2.273 1_554 S
O6 Cd4 2.411 . S
O6 C9 1.320 . S
O7 Cd4 2.333 . S
O7 C9 1.214 . S
O8 Cd4 2.352 . S
O8 C11 1.258 . S
C9 O6 1.320 . S
C9 O7 1.214 . S
O10 Cd2 2.277 . S
O10 C5 1.209 . S
C11 O8 1.258 . S
C11 O13 1.282 . S
O12 Cd4 2.277 1_556 S
O12 C5 1.226 . S
O13 Cd4 2.356 . S
O13 C11 1.282 . S
C14 O15 1.306 . S
C14 O17 1.160 . S
O15 C14 1.306 . S
O15 Cd16 2.228 1_554 S
Cd16 O15 2.228 1_556 S
Cd16 O20 2.273 1_556 S
Cd16 O24 2.277 . S
O17 C14 1.160 . S
O17 Cd18 2.203 . S
Cd18 O17 2.203 . S
Cd18 O20 2.411 . S
Cd18 O21 2.333 . S
Cd18 O22 2.352 . S
Cd18 O26 2.277 1_554 S
Cd18 O27 2.356 . S
C19 O24 1.209 . S
C19 O26 1.226 . S
O20 Cd16 2.273 1_554 S
O20 Cd18 2.411 . S
O20 C23 1.320 . S
O21 Cd18 2.333 . S
O21 C23 1.214 . S
O22 Cd18 2.352 . S
O22 C25 1.258 . S
C23 O20 1.320 . S
C23 O21 1.214 . S
O24 Cd16 2.277 . S
O24 C19 1.209 . S
C25 O22 1.258 . S
C25 O27 1.282 . S
O26 Cd18 2.277 1_556 S
O26 C19 1.226 . S
O27 Cd18 2.356 . S
O27 C25 1.282 . S
C28 O29 1.306 . S
C28 O31 1.160 . S
O29 C28 1.306 . S
O29 Cd30 2.228 1_554 S
Cd30 O29 2.228 1_556 S
Cd30 O34 2.273 1_556 S
Cd30 O38 2.277 . S
O31 C28 1.160 . S
O31 Cd32 2.203 . S
Cd32 O31 2.203 . S
Cd32 O34 2.411 . S
Cd32 O35 2.333 . S
Cd32 O36 2.352 . S
Cd32 O40 2.277 1_554 S
Cd32 O41 2.356 . S
C33 O38 1.209 . S
C33 O40 1.226 . S
O34 Cd30 2.273 1_554 S
O34 Cd32 2.411 . S
O34 C37 1.320 . S
O35 Cd32 2.333 . S
O35 C37 1.214 . S
O36 Cd32 2.352 . S
O36 C39 1.258 . S
C37 O34 1.320 . S
C37 O35 1.214 . S
O38 Cd30 2.277 . S
O38 C33 1.209 . S
C39 O36 1.258 . S
C39 O41 1.282 . S
O40 Cd32 2.277 1_556 S
O40 C33 1.226 . S
O41 Cd32 2.356 . S
O41 C39 1.282 . S
C42 O43 1.306 . S
C42 O45 1.160 . S
O43 C42 1.306 . S
O43 Cd44 2.228 1_556 S
Cd44 O43 2.228 1_554 S
Cd44 O48 2.273 1_554 S
Cd44 O52 2.277 . S
O45 C42 1.160 . S
O45 Cd46 2.203 . S
Cd46 O45 2.203 . S
Cd46 O48 2.411 . S
Cd46 O49 2.333 . S
Cd46 O50 2.352 . S
Cd46 O54 2.277 1_556 S
Cd46 O55 2.356 . S
C47 O52 1.209 . S
C47 O54 1.226 . S
O48 Cd44 2.273 1_556 S
O48 Cd46 2.411 . S
O48 C51 1.320 . S
O49 Cd46 2.333 . S
O49 C51 1.214 . S
O50 Cd46 2.352 . S
O50 C53 1.258 . S
C51 O48 1.320 . S
C51 O49 1.214 . S
O52 Cd44 2.277 . S
O52 C47 1.209 . S
C53 O50 1.258 . S
C53 O55 1.282 . S
O54 Cd46 2.277 1_554 S
O54 C47 1.226 . S
O55 Cd46 2.356 . S
O55 C53 1.282 . S
C56 O57 1.306 . S
C56 O59 1.160 . S
O57 C56 1.306 . S
O57 Cd58 2.228 1_556 S
Cd58 O57 2.228 1_554 S
Cd58 O62 2.273 1_554 S
Cd58 O66 2.277 . S
O59 C56 1.160 . S
O59 Cd60 2.203 . S
Cd60 O59 2.203 . S
Cd60 O62 2.411 . S
Cd60 O63 2.333 . S
Cd60 O64 2.352 . S
Cd60 O68 2.277 1_556 S
Cd60 O69 2.356 . S
C61 O66 1.209 . S
C61 O68 1.226 . S
O62 Cd58 2.273 1_556 S
O62 Cd60 2.411 . S
O62 C65 1.320 . S
O63 Cd60 2.333 . S
O63 C65 1.214 . S
O64 Cd60 2.352 . S
O64 C67 1.258 . S
C65 O62 1.320 . S
C65 O63 1.214 . S
O66 Cd58 2.277 . S
O66 C61 1.209 . S
C67 O64 1.258 . S
C67 O69 1.282 . S
O68 Cd60 2.277 1_554 S
O68 C61 1.226 . S
O69 Cd60 2.356 . S
O69 C67 1.282 . S
C70 O71 1.306 . S
C70 O73 1.160 . S
O71 C70 1.306 . S
O71 Cd72 2.228 1_556 S
Cd72 O71 2.228 1_554 S
Cd72 O76 2.273 1_554 S
Cd72 O80 2.277 . S
O73 C70 1.160 . S
O73 Cd74 2.203 . S
Cd74 O73 2.203 . S
Cd74 O76 2.411 . S
Cd74 O77 2.333 . S
Cd74 O78 2.352 . S
Cd74 O82 2.277 1_556 S
Cd74 O83 2.356 . S
C75 O80 1.209 . S
C75 O82 1.226 . S
O76 Cd72 2.273 1_556 S
O76 Cd74 2.411 . S
O76 C79 1.320 . S
O77 Cd74 2.333 . S
O77 C79 1.214 . S
O78 Cd74 2.352 . S
O78 C81 1.258 . S
C79 O76 1.320 . S
C79 O77 1.214 . S
O80 Cd72 2.277 . S
O80 C75 1.209 . S
C81 O78 1.258 . S
C81 O83 1.282 . S
O82 Cd74 2.277 1_554 S
O82 C75 1.226 . S
O83 Cd74 2.356 . S
O83 C81 1.282 . S
C84 O85 1.306 . S
C84 O87 1.160 . S
O85 C84 1.306 . S
O85 Cd86 2.228 . S
Cd86 O85 2.228 . S
Cd86 O90 2.273 . S
Cd86 O94 2.277 . S
O87 C84 1.160 . S
O87 Cd88 2.203 . S
Cd88 O87 2.203 . S
Cd88 O90 2.411 . S
Cd88 O91 2.333 . S
Cd88 O92 2.352 . S
Cd88 O96 2.277 . S
Cd88 O97 2.356 . S
C89 O94 1.209 . S
C89 O96 1.226 . S
O90 Cd86 2.273 . S
O90 Cd88 2.411 . S
O90 C93 1.320 . S
O91 Cd88 2.333 . S
O91 C93 1.214 . S
O92 Cd88 2.352 . S
O92 C95 1.258 . S
C93 O90 1.320 . S
C93 O91 1.214 . S
O94 Cd86 2.277 . S
O94 C89 1.209 . S
C95 O92 1.258 . S
C95 O97 1.282 . S
O96 Cd88 2.277 . S
O96 C89 1.226 . S
O97 Cd88 2.356 . S
O97 C95 1.282 . S
C98 O99 1.306 . S
C98 O101 1.160 . S
O99 C98 1.306 . S
O99 Cd100 2.228 . S
Cd100 O99 2.228 . S
Cd100 O104 2.273 . S
Cd100 O108 2.277 . S
O101 C98 1.160 . S
O101 Cd102 2.203 . S
Cd102 O101 2.203 . S
Cd102 O104 2.411 . S
Cd102 O105 2.333 . S
Cd102 O106 2.352 . S
Cd102 O110 2.277 . S
Cd102 O111 2.356 . S
C103 O108 1.209 . S
C103 O110 1.226 . S
O104 Cd100 2.273 . S
O104 Cd102 2.411 . S
O104 C107 1.320 . S
O105 Cd102 2.333 . S
O105 C107 1.214 . S
O106 Cd102 2.352 . S
O106 C109 1.258 . S
C107 O104 1.320 . S
C107 O105 1.214 . S
O108 Cd100 2.277 . S
O108 C103 1.209 . S
C109 O106 1.258 . S
C109 O111 1.282 . S
O110 Cd102 2.277 . S
O110 C103 1.226 . S
O111 Cd102 2.356 . S
O111 C109 1.282 . S
C112 O113 1.306 . S
C112 O115 1.160 . S
O113 C112 1.306 . S
O113 Cd114 2.228 . S
Cd114 O113 2.228 . S
Cd114 O118 2.273 . S
Cd114 O122 2.277 . S
O115 C112 1.160 . S
O115 Cd116 2.203 . S
Cd116 O115 2.203 . S
Cd116 O118 2.411 . S
Cd116 O119 2.333 . S
Cd116 O120 2.352 . S
Cd116 O124 2.277 . S
Cd116 O125 2.356 . S
C117 O122 1.209 . S
C117 O124 1.226 . S
O118 Cd114 2.273 . S
O118 Cd116 2.411 . S
O118 C121 1.320 . S
O119 Cd116 2.333 . S
O119 C121 1.214 . S
O120 Cd116 2.352 . S
O120 C123 1.258 . S
C121 O118 1.320 . S
C121 O119 1.214 . S
O122 Cd114 2.277 . S
O122 C117 1.209 . S
C123 O120 1.258 . S
C123 O125 1.282 . S
O124 Cd116 2.277 . S
O124 C117 1.226 . S
O125 Cd116 2.356 . S
O125 C123 1.282 . S
C126 O127 1.306 . S
C126 O129 1.160 . S
O127 C126 1.306 . S
O127 Cd128 2.228 . S
Cd128 O127 2.228 . S
Cd128 O132 2.273 . S
Cd128 O136 2.277 . S
O129 C126 1.160 . S
O129 Cd130 2.203 . S
Cd130 O129 2.203 . S
Cd130 O132 2.411 . S
Cd130 O133 2.333 . S
Cd130 O134 2.352 . S
Cd130 O138 2.277 . S
Cd130 O139 2.356 . S
C131 O136 1.209 . S
C131 O138 1.226 . S
O132 Cd128 2.273 . S
O132 Cd130 2.411 . S
O132 C135 1.320 . S
O133 Cd130 2.333 . S
O133 C135 1.214 . S
O134 Cd130 2.352 . S
O134 C137 1.258 . S
C135 O132 1.320 . S
C135 O133 1.214 . S
O136 Cd128 2.277 . S
O136 C131 1.209 . S
C137 O134 1.258 . S
C137 O139 1.282 . S
O138 Cd130 2.277 . S
O138 C131 1.226 . S
O139 Cd130 2.356 . S
O139 C137 1.282 . S
C140 O141 1.306 . S
C140 O143 1.160 . S
O141 C140 1.306 . S
O141 Cd142 2.228 . S
Cd142 O141 2.228 . S
Cd142 O146 2.273 . S
Cd142 O150 2.277 . S
O143 C140 1.160 . S
O143 Cd144 2.203 . S
Cd144 O143 2.203 . S
Cd144 O146 2.411 . S
Cd144 O147 2.333 . S
Cd144 O148 2.352 . S
Cd144 O152 2.277 . S
Cd144 O153 2.356 . S
C145 O150 1.209 . S
C145 O152 1.226 . S
O146 Cd142 2.273 . S
O146 Cd144 2.411 . S
O146 C149 1.320 . S
O147 Cd144 2.333 . S
O147 C149 1.214 . S
O148 Cd144 2.352 . S
O148 C151 1.258 . S
C149 O146 1.320 . S
C149 O147 1.214 . S
O150 Cd142 2.277 . S
O150 C145 1.209 . S
C151 O148 1.258 . S
C151 O153 1.282 . S
O152 Cd144 2.277 . S
O152 C145 1.226 . S
O153 Cd144 2.356 . S
O153 C151 1.282 . S
C154 O155 1.306 . S
C154 O157 1.160 . S
O155 C154 1.306 . S
O155 Cd156 2.228 . S
Cd156 O155 2.228 . S
Cd156 O160 2.273 . S
Cd156 O164 2.277 . S
O157 C154 1.160 . S
O157 Cd158 2.203 . S
Cd158 O157 2.203 . S
Cd158 O160 2.411 . S
Cd158 O161 2.333 . S
Cd158 O162 2.352 . S
Cd158 O166 2.277 . S
Cd158 O167 2.356 . S
C159 O164 1.209 . S
C159 O166 1.226 . S
O160 Cd156 2.273 . S
O160 Cd158 2.411 . S
O160 C163 1.320 . S
O161 Cd158 2.333 . S
O161 C163 1.214 . S
O162 Cd158 2.352 . S
O162 C165 1.258 . S
C163 O160 1.320 . S
C163 O161 1.214 . S
O164 Cd156 2.277 . S
O164 C159 1.209 . S
C165 O162 1.258 . S
C165 O167 1.282 . S
O166 Cd158 2.277 . S
O166 C159 1.226 . S
O167 Cd158 2.356 . S
O167 C165 1.282 . S
C168 O169 1.306 . S
C168 O171 1.160 . S
O169 C168 1.306 . S
O169 Cd170 2.228 . S
Cd170 O169 2.228 . S
Cd170 O174 2.273 . S
Cd170 O178 2.277 . S
O171 C168 1.160 . S
O171 Cd172 2.203 . S
Cd172 O171 2.203 . S
Cd172 O174 2.411 . S
Cd172 O175 2.333 . S
Cd172 O176 2.352 . S
Cd172 O180 2.277 . S
Cd172 O181 2.356 . S
C173 O178 1.209 . S
C173 O180 1.226 . S
O174 Cd170 2.273 . S
O174 Cd172 2.411 . S
O174 C177 1.320 . S
O175 Cd172 2.333 . S
O175 C177 1.214 . S
O176 Cd172 2.352 . S
O176 C179 1.258 . S
C177 O174 1.320 . S
C177 O175 1.214 . S
O178 Cd170 2.277 . S
O178 C173 1.209 . S
C179 O176 1.258 . S
C179 O181 1.282 . S
O180 Cd172 2.277 . S
O180 C173 1.226 . S
O181 Cd172 2.356 . S
O181 C179 1.282 . S
C182 O183 1.306 . S
C182 O185 1.160 . S
O183 C182 1.306 . S
O183 Cd184 2.228 . S
Cd184 O183 2.228 . S
Cd184 O188 2.273 . S
Cd184 O192 2.277 . S
O185 C182 1.160 . S
O185 Cd186 2.203 . S
Cd186 O185 2.203 . S
Cd186 O188 2.411 . S
Cd186 O189 2.333 . S
Cd186 O190 2.352 . S
Cd186 O194 2.277 . S
Cd186 O195 2.356 . S
C187 O192 1.209 . S
C187 O194 1.226 . S
O188 Cd184 2.273 . S
O188 Cd186 2.411 . S
O188 C191 1.320 . S
O189 Cd186 2.333 . S
O189 C191 1.214 . S
O190 Cd186 2.352 . S
O190 C193 1.258 . S
C191 O188 1.320 . S
C191 O189 1.214 . S
O192 Cd184 2.277 . S
O192 C187 1.209 . S
C193 O190 1.258 . S
C193 O195 1.282 . S
O194 Cd186 2.277 . S
O194 C187 1.226 . S
O195 Cd186 2.356 . S
O195 C193 1.282 . S
C196 O197 1.306 . S
C196 O199 1.160 . S
O197 C196 1.306 . S
O197 Cd198 2.228 . S
Cd198 O197 2.228 . S
Cd198 O202 2.273 . S
Cd198 O206 2.277 . S
O199 C196 1.160 . S
O199 Cd200 2.203 . S
Cd200 O199 2.203 . S
Cd200 O202 2.411 . S
Cd200 O203 2.333 . S
Cd200 O204 2.352 . S
Cd200 O208 2.277 . S
Cd200 O209 2.356 . S
C201 O206 1.209 . S
C201 O208 1.226 . S
O202 Cd198 2.273 . S
O202 Cd200 2.411 . S
O202 C205 1.320 . S
O203 Cd200 2.333 . S
O203 C205 1.214 . S
O204 Cd200 2.352 . S
O204 C207 1.258 . S
C205 O202 1.320 . S
C205 O203 1.214 . S
O206 Cd198 2.277 . S
O206 C201 1.209 . S
C207 O204 1.258 . S
C207 O209 1.282 . S
O208 Cd200 2.277 . S
O208 C201 1.226 . S
O209 Cd200 2.356 . S
O209 C207 1.282 . S
C210 O211 1.306 . S
C210 O213 1.160 . S
O211 C210 1.306 . S
O211 Cd212 2.228 . S
Cd212 O211 2.228 . S
Cd212 O216 2.273 . S
Cd212 O220 2.277 . S
O213 C210 1.160 . S
O213 Cd214 2.203 . S
Cd214 O213 2.203 . S
Cd214 O216 2.411 . S
Cd214 O217 2.333 . S
Cd214 O218 2.352 . S
Cd214 O222 2.277 . S
Cd214 O223 2.356 . S
C215 O220 1.209 . S
C215 O222 1.226 . S
O216 Cd212 2.273 . S
O216 Cd214 2.411 . S
O216 C219 1.320 . S
O217 Cd214 2.333 . S
O217 C219 1.214 . S
O218 Cd214 2.352 . S
O218 C221 1.258 . S
C219 O216 1.320 . S
C219 O217 1.214 . S
O220 Cd212 2.277 . S
O220 C215 1.209 . S
C221 O218 1.258 . S
C221 O223 1.282 . S
O222 Cd214 2.277 . S
O222 C215 1.226 . S
O223 Cd214 2.356 . S
O223 C221 1.282 . S
C224 O225 1.306 . S
C224 O227 1.160 . S
O225 C224 1.306 . S
O225 Cd226 2.228 . S
Cd226 O225 2.228 . S
Cd226 O230 2.273 . S
Cd226 O234 2.277 . S
O227 C224 1.160 . S
O227 Cd228 2.203 . S
Cd228 O227 2.203 . S
Cd228 O230 2.411 . S
Cd228 O231 2.333 . S
Cd228 O232 2.352 . S
Cd228 O236 2.277 . S
Cd228 O237 2.356 . S
C229 O234 1.209 . S
C229 O236 1.226 . S
O230 Cd226 2.273 . S
O230 Cd228 2.411 . S
O230 C233 1.320 . S
O231 Cd228 2.333 . S
O231 C233 1.214 . S
O232 Cd228 2.352 . S
O232 C235 1.258 . S
C233 O230 1.320 . S
C233 O231 1.214 . S
O234 Cd226 2.277 . S
O234 C229 1.209 . S
C235 O232 1.258 . S
C235 O237 1.282 . S
O236 Cd228 2.277 . S
O236 C229 1.226 . S
O237 Cd228 2.356 . S
O237 C235 1.282 . S
C238 O239 1.306 . S
C238 O241 1.160 . S
O239 C238 1.306 . S
O239 Cd240 2.228 . S
Cd240 O239 2.228 . S
Cd240 O244 2.273 . S
Cd240 O248 2.277 . S
O241 C238 1.160 . S
O241 Cd242 2.203 . S
Cd242 O241 2.203 . S
Cd242 O244 2.411 . S
Cd242 O245 2.333 . S
Cd242 O246 2.352 . S
Cd242 O250 2.277 . S
Cd242 O251 2.356 . S
C243 O248 1.209 . S
C243 O250 1.226 . S
O244 Cd240 2.273 . S
O244 Cd242 2.411 . S
O244 C247 1.320 . S
O245 Cd242 2.333 . S
O245 C247 1.214 . S
O246 Cd242 2.352 . S
O246 C249 1.258 . S
C247 O244 1.320 . S
C247 O245 1.214 . S
O248 Cd240 2.277 . S
O248 C243 1.209 . S
C249 O246 1.258 . S
C249 O251 1.282 . S
O250 Cd242 2.277 . S
O250 C243 1.226 . S
O251 Cd242 2.356 . S
O251 C249 1.282 . S
C252 C253 1.369 . S
C252 C254 1.419 . S
C252 H256 0.930 . S
C253 C252 1.369 . S
C253 C262 1.429 . S
C254 C252 1.419 . S
C254 C255 1.363 . S
C254 H257 0.929 . S
C255 C254 1.363 . S
C255 C261 1.428 . S
H256 C252 0.930 . S
H257 C254 0.929 . S
S258 N259 1.613 . S
S258 N260 1.610 . S
N259 S258 1.613 . S
N259 C262 1.350 . S
N260 S258 1.610 . S
N260 C261 1.351 . S
C261 C255 1.428 . S
C261 N260 1.351 . S
C261 C262 1.434 . S
C262 C253 1.429 . S
C262 N259 1.350 . S
C262 C261 1.434 . S
C263 C264 1.369 . S
C263 C265 1.419 . S
C263 H267 0.930 . S
C264 C263 1.369 . S
C264 C273 1.429 . S
C265 C263 1.419 . S
C265 C266 1.363 . S
C265 H268 0.929 . S
C266 C265 1.363 . S
C266 C272 1.428 . S
H267 C263 0.930 . S
H268 C265 0.929 . S
S269 N270 1.613 . S
S269 N271 1.610 . S
N270 S269 1.613 . S
N270 C273 1.350 . S
N271 S269 1.610 . S
N271 C272 1.351 . S
C272 C266 1.428 . S
C272 N271 1.351 . S
C272 C273 1.434 . S
C273 C264 1.429 . S
C273 N270 1.350 . S
C273 C272 1.434 . S
C274 C275 1.369 . S
C274 C276 1.419 . S
C274 H278 0.930 . S
C275 C274 1.369 . S
C275 C284 1.429 . S
C276 C274 1.419 . S
C276 C277 1.363 . S
C276 H279 0.929 . S
C277 C276 1.363 . S
C277 C283 1.428 . S
H278 C274 0.930 . S
H279 C276 0.929 . S
S280 N281 1.613 . S
S280 N282 1.610 . S
N281 S280 1.613 . S
N281 C284 1.350 . S
N282 S280 1.610 . S
N282 C283 1.351 . S
C283 C277 1.428 . S
C283 N282 1.351 . S
C283 C284 1.434 . S
C284 C275 1.429 . S
C284 N281 1.350 . S
C284 C283 1.434 . S
C285 C286 1.369 . S
C285 C287 1.419 . S
C285 H289 0.930 . S
C286 C285 1.369 . S
C286 C295 1.429 . S
C287 C285 1.419 . S
C287 C288 1.363 . S
C287 H290 0.929 . S
C288 C287 1.363 . S
C288 C294 1.428 . S
H289 C285 0.930 . S
H290 C287 0.929 . S
S291 N292 1.613 . S
S291 N293 1.610 . S
N292 S291 1.613 . S
N292 C295 1.350 . S
N293 S291 1.610 . S
N293 C294 1.351 . S
C294 C288 1.428 . S
C294 N293 1.351 . S
C294 C295 1.434 . S
C295 C286 1.429 . S
C295 N292 1.350 . S
C295 C294 1.434 . S
C296 C297 1.369 . S
C296 C298 1.419 . S
C296 H300 0.930 . S
C297 C296 1.369 . S
C297 C306 1.429 . S
C298 C296 1.419 . S
C298 C299 1.363 . S
C298 H301 0.929 . S
C299 C298 1.363 . S
C299 C305 1.428 . S
H300 C296 0.930 . S
H301 C298 0.929 . S
S302 N303 1.613 . S
S302 N304 1.610 . S
N303 S302 1.613 . S
N303 C306 1.350 . S
N304 S302 1.610 . S
N304 C305 1.351 . S
C305 C299 1.428 . S
C305 N304 1.351 . S
C305 C306 1.434 . S
C306 C297 1.429 . S
C306 N303 1.350 . S
C306 C305 1.434 . S
C307 C308 1.369 . S
C307 C309 1.419 . S
C307 H311 0.930 . S
C308 C307 1.369 . S
C308 C317 1.429 . S
C309 C307 1.419 . S
C309 C310 1.363 . S
C309 H312 0.929 . S
C310 C309 1.363 . S
C310 C316 1.428 . S
H311 C307 0.930 . S
H312 C309 0.929 . S
S313 N314 1.613 . S
S313 N315 1.610 . S
N314 S313 1.613 . S
N314 C317 1.350 . S
N315 S313 1.610 . S
N315 C316 1.351 . S
C316 C310 1.428 . S
C316 N315 1.351 . S
C316 C317 1.434 . S
C317 C308 1.429 . S
C317 N314 1.350 . S
C317 C316 1.434 . S
C318 C319 1.369 . S
C318 C320 1.419 1_654 S
C318 H322 0.930 . S
C319 C318 1.369 . S
C319 C328 1.429 . S
C320 C318 1.419 1_456 S
C320 C321 1.363 . S
C320 H323 0.929 . S
C321 C320 1.363 . S
C321 C327 1.452 . S
H322 C318 0.930 . S
H323 C320 0.929 . S
S324 N325 1.613 1_556 S
S324 N326 1.610 . S
N325 S324 1.613 1_554 S
N325 C328 1.350 . S
N326 S324 1.610 . S
N326 C327 1.336 1_655 S
C327 C321 1.452 . S
C327 N326 1.336 1_455 S
C327 C328 1.423 1_456 S
C328 C319 1.429 . S
C328 N325 1.350 . S
C328 C327 1.423 1_654 S
C329 C330 1.369 . S
C329 C331 1.419 1_554 S
C329 H333 0.930 . S
C330 C329 1.369 . S
C330 C339 1.429 . S
C331 C329 1.419 1_556 S
C331 C332 1.363 . S
C331 H334 0.929 . S
C332 C331 1.363 . S
C332 C338 1.428 . S
H333 C329 0.930 . S
H334 C331 0.929 . S
S335 N336 1.613 1_556 S
S335 N337 1.610 . S
N336 S335 1.613 1_554 S
N336 C339 1.350 . S
N337 S335 1.610 . S
N337 C338 1.351 . S
C338 C332 1.428 . S
C338 N337 1.351 . S
C338 C339 1.434 1_556 S
C339 C330 1.429 . S
C339 N336 1.350 . S
C339 C338 1.434 1_554 S
C340 C341 1.369 1_565 S
C340 C342 1.419 1_554 S
C340 H344 0.930 . S
C341 C340 1.369 1_545 S
C341 C350 1.429 . S
C342 C340 1.419 1_556 S
C342 C343 1.363 . S
C342 H345 0.929 . S
C343 C342 1.363 . S
C343 C349 1.428 1_565 S
H344 C340 0.930 . S
H345 C342 0.929 . S
S346 N347 1.613 1_556 S
S346 N348 1.610 . S
N347 S346 1.613 1_554 S
N347 C350 1.350 . S
N348 S346 1.610 . S
N348 C349 1.351 . S
C349 C343 1.428 1_545 S
C349 N348 1.351 . S
C349 C350 1.434 1_556 S
C350 C341 1.429 . S
C350 N347 1.350 . S
C350 C349 1.434 1_554 S
C351 C352 1.369 . S
C351 C353 1.419 . S
C351 H355 0.930 . S
C352 C351 1.369 . S
C352 C361 1.429 . S
C353 C351 1.419 . S
C353 C354 1.363 . S
C353 H356 0.929 . S
C354 C353 1.363 . S
C354 C360 1.428 . S
H355 C351 0.930 . S
H356 C353 0.929 . S
S357 N358 1.613 . S
S357 N359 1.610 . S
N358 S357 1.613 . S
N358 C361 1.350 . S
N359 S357 1.610 . S
N359 C360 1.351 . S
C360 C354 1.428 . S
C360 N359 1.351 . S
C360 C361 1.434 . S
C361 C352 1.429 . S
C361 N358 1.350 . S
C361 C360 1.434 . S
C362 C363 1.369 . S
C362 C364 1.419 . S
C362 H366 0.930 . S
C363 C362 1.369 . S
C363 C372 1.429 . S
C364 C362 1.419 . S
C364 C365 1.363 . S
C364 H367 0.929 . S
C365 C364 1.363 . S
C365 C371 1.428 . S
H366 C362 0.930 . S
H367 C364 0.929 . S
S368 N369 1.613 . S
S368 N370 1.610 . S
N369 S368 1.613 . S
N369 C372 1.350 . S
N370 S368 1.610 . S
N370 C371 1.351 . S
C371 C365 1.428 . S
C371 N370 1.351 . S
C371 C372 1.434 . S
C372 C363 1.429 . S
C372 N369 1.350 . S
C372 C371 1.434 . S
C373 C374 1.369 . S
C373 C375 1.419 . S
C373 H377 0.930 . S
C374 C373 1.369 . S
C374 C383 1.429 . S
C375 C373 1.419 . S
C375 C376 1.363 . S
C375 H378 0.929 . S
C376 C375 1.363 . S
C376 C382 1.428 . S
H377 C373 0.930 . S
H378 C375 0.929 . S
S379 N380 1.613 . S
S379 N381 1.610 . S
N380 S379 1.613 . S
N380 C383 1.350 . S
N381 S379 1.610 . S
N381 C382 1.351 . S
C382 C376 1.428 . S
C382 N381 1.351 . S
C382 C383 1.434 . S
C383 C374 1.429 . S
C383 N380 1.350 . S
C383 C382 1.434 . S
C384 C385 1.369 . S
C384 C386 1.419 . S
C384 H388 0.930 . S
C385 C384 1.369 . S
C385 C394 1.429 . S
C386 C384 1.419 . S
C386 C387 1.363 . S
C386 H389 0.929 . S
C387 C386 1.363 . S
C387 C393 1.428 . S
H388 C384 0.930 . S
H389 C386 0.929 . S
S390 N391 1.613 . S
S390 N392 1.610 . S
N391 S390 1.613 . S
N391 C394 1.350 . S
N392 S390 1.610 . S
N392 C393 1.351 . S
C393 C387 1.428 . S
C393 N392 1.351 . S
C393 C394 1.434 . S
C394 C385 1.429 . S
C394 N391 1.350 . S
C394 C393 1.434 . S
C395 C396 1.369 . S
C395 C397 1.419 . S
C395 H399 0.930 . S
C396 C395 1.369 . S
C396 C405 1.429 . S
C397 C395 1.419 . S
C397 C398 1.363 . S
C397 H400 0.929 . S
C398 C397 1.363 . S
C398 C404 1.428 . S
H399 C395 0.930 . S
H400 C397 0.929 . S
S401 N402 1.613 . S
S401 N403 1.610 . S
N402 S401 1.613 . S
N402 C405 1.350 . S
N403 S401 1.610 . S
N403 C404 1.351 . S
C404 C398 1.428 . S
C404 N403 1.351 . S
C404 C405 1.434 . S
C405 C396 1.429 . S
C405 N402 1.350 . S
C405 C404 1.434 . S
C406 C407 1.369 . S
C406 C408 1.419 . S
C406 H410 0.930 . S
C407 C406 1.369 . S
C407 C416 1.429 . S
C408 C406 1.419 . S
C408 C409 1.363 . S
C408 H411 0.929 . S
C409 C408 1.363 . S
C409 C415 1.428 . S
H410 C406 0.930 . S
H411 C408 0.929 . S
S412 N413 1.613 . S
S412 N414 1.610 . S
N413 S412 1.613 . S
N413 C416 1.350 . S
N414 S412 1.610 . S
N414 C415 1.351 . S
C415 C409 1.428 . S
C415 N414 1.351 . S
C415 C416 1.434 . S
C416 C407 1.429 . S
C416 N413 1.350 . S
C416 C415 1.434 . S
C417 C418 1.369 . S
C417 C419 1.419 . S
C417 H421 0.930 . S
C418 C417 1.369 . S
C418 C427 1.429 1_655 S
C419 C417 1.419 . S
C419 C420 1.363 1_655 S
C419 H422 0.929 . S
C420 C419 1.363 1_455 S
C420 C426 1.428 . S
H421 C417 0.930 . S
H422 C419 0.929 . S
S423 N424 1.613 . S
S423 N425 1.610 . S
N424 S423 1.613 . S
N424 C427 1.350 . S
N425 S423 1.610 . S
N425 C426 1.351 . S
C426 C420 1.428 . S
C426 N425 1.351 . S
C426 C427 1.434 . S
C427 C418 1.429 1_455 S
C427 N424 1.350 . S
C427 C426 1.434 . S
C428 C429 1.369 . S
C428 C430 1.419 . S
C428 H432 0.930 . S
C429 C428 1.369 . S
C429 C438 1.429 . S
C430 C428 1.419 . S
C430 C431 1.363 . S
C430 H433 0.929 . S
C431 C430 1.363 . S
C431 C437 1.428 . S
H432 C428 0.930 . S
H433 C430 0.929 . S
S434 N435 1.613 . S
S434 N436 1.610 . S
N435 S434 1.613 . S
N435 C438 1.350 . S
N436 S434 1.610 . S
N436 C437 1.351 . S
C437 C431 1.428 . S
C437 N436 1.351 . S
C437 C438 1.434 . S
C438 C429 1.429 . S
C438 N435 1.350 . S
C438 C437 1.434 . S
C439 C440 1.369 1_545 S
C439 C441 1.419 . S
C439 H443 0.930 . S
C440 C439 1.369 1_565 S
C440 C449 1.429 . S
C441 C439 1.419 . S
C441 C442 1.363 . S
C441 H444 0.929 . S
C442 C441 1.363 . S
C442 C448 1.428 1_545 S
H443 C439 0.930 . S
H444 C441 0.929 . S
S445 N446 1.613 . S
S445 N447 1.610 . S
N446 S445 1.613 . S
N446 C449 1.350 . S
N447 S445 1.610 . S
N447 C448 1.351 . S
C448 C442 1.428 1_565 S
C448 N447 1.351 . S
C448 C449 1.434 . S
C449 C440 1.429 . S
C449 N446 1.350 . S
C449 C448 1.434 . S
C450 C451 1.369 . S
C450 C452 1.419 1_554 S
C450 H454 0.930 . S
C451 C450 1.369 . S
C451 C460 1.429 . S
C452 C450 1.419 1_556 S
C452 C453 1.363 . S
C452 H455 0.929 . S
C453 C452 1.363 . S
C453 C459 1.428 . S
H454 C450 0.930 . S
H455 C452 0.929 . S
S456 N457 1.613 1_556 S
S456 N458 1.610 . S
N457 S456 1.613 1_554 S
N457 C460 1.350 . S
N458 S456 1.610 . S
N458 C459 1.351 . S
C459 C453 1.428 . S
C459 N458 1.351 . S
C459 C460 1.434 1_556 S
C460 C451 1.429 . S
C460 N457 1.350 . S
C460 C459 1.434 1_554 S
C461 C462 1.369 . S
C461 C463 1.419 1_546 S
C461 H465 0.930 . S
C462 C461 1.369 . S
C462 C471 1.429 . S
C463 C461 1.419 1_564 S
C463 C464 1.363 . S
C463 H466 0.929 . S
C464 C463 1.363 . S
C464 C470 1.428 . S
H465 C461 0.930 . S
H466 C463 0.929 . S
S467 N468 1.613 . S
S467 N469 1.610 1_545 S
N468 S467 1.613 . S
N468 C471 1.350 1_554 S
N469 S467 1.610 1_565 S
N469 C470 1.351 . S
C470 C464 1.428 . S
C470 N469 1.351 . S
C470 C471 1.434 1_564 S
C471 C462 1.429 . S
C471 N468 1.350 1_556 S
C471 C470 1.434 1_546 S
C472 C473 1.369 . S
C472 C474 1.419 1_655 S
C472 H476 0.930 . S
C473 C472 1.369 . S
C473 C482 1.429 1_556 S
C474 C472 1.419 1_455 S
C474 C475 1.363 1_556 S
C474 H477 0.929 . S
C475 C474 1.363 1_554 S
C475 C481 1.428 . S
H476 C472 0.930 . S
H477 C474 0.929 . S
S478 N479 1.613 . S
S478 N480 1.610 1_655 S
N479 S478 1.613 . S
N479 C482 1.350 . S
N480 S478 1.610 1_455 S
N480 C481 1.351 . S
C481 C475 1.428 . S
C481 N480 1.351 . S
C481 C482 1.434 1_455 S
C482 C473 1.429 1_554 S
C482 N479 1.350 . S
C482 C481 1.434 1_655 S
C483 C484 1.369 . S
C483 C485 1.419 . S
C483 H487 0.930 . S
C484 C483 1.369 . S
C484 C493 1.429 1_556 S
C485 C483 1.419 . S
C485 C486 1.363 1_556 S
C485 H488 0.929 . S
C486 C485 1.363 1_554 S
C486 C492 1.428 . S
H487 C483 0.930 . S
H488 C485 0.929 . S
S489 N490 1.613 . S
S489 N491 1.610 . S
N490 S489 1.613 . S
N490 C493 1.350 . S
N491 S489 1.610 . S
N491 C492 1.351 . S
C492 C486 1.428 . S
C492 N491 1.351 . S
C492 C493 1.434 . S
C493 C484 1.429 1_554 S
C493 N490 1.350 . S
C493 C492 1.434 . S
C494 C495 1.369 . S
C494 C496 1.419 1_565 S
C494 H498 0.930 . S
C495 C494 1.369 . S
C495 C504 1.429 1_554 S
C496 C494 1.419 1_545 S
C496 C497 1.363 1_554 S
C496 H499 0.929 . S
C497 C496 1.363 1_556 S
C497 C503 1.428 . S
H498 C494 0.930 . S
H499 C496 0.929 . S
S500 N501 1.613 . S
S500 N502 1.610 1_565 S
N501 S500 1.613 . S
N501 C504 1.350 . S
N502 S500 1.610 1_545 S
N502 C503 1.351 . S
C503 C497 1.428 . S
C503 N502 1.351 . S
C503 C504 1.434 1_545 S
C504 C495 1.429 1_556 S
C504 N501 1.350 . S
C504 C503 1.434 1_565 S
C505 C506 1.369 1_554 S
C505 C507 1.419 1_655 S
C505 H509 0.930 . S
C506 C505 1.369 1_556 S
C506 C515 1.429 . S
C507 C505 1.419 1_455 S
C507 C508 1.363 . S
C507 H510 0.929 . S
C508 C507 1.363 . S
C508 C514 1.428 1_554 S
H509 C505 0.930 . S
H510 C507 0.929 . S
S511 N512 1.613 1_455 S
S511 N513 1.610 . S
N512 S511 1.613 1_655 S
N512 C515 1.350 . S
N513 S511 1.610 . S
N513 C514 1.351 . S
C514 C508 1.428 1_556 S
C514 N513 1.351 . S
C514 C515 1.434 1_455 S
C515 C506 1.429 . S
C515 N512 1.350 . S
C515 C514 1.434 1_655 S
C516 C517 1.369 . S
C516 C518 1.419 . S
C516 H520 0.930 . S
C517 C516 1.369 . S
C517 C526 1.429 . S
C518 C516 1.419 . S
C518 C519 1.363 . S
C518 H521 0.929 . S
C519 C518 1.363 . S
C519 C525 1.428 . S
H520 C516 0.930 . S
H521 C518 0.929 . S
S522 N523 1.613 . S
S522 N524 1.610 . S
N523 S522 1.613 . S
N523 C526 1.350 . S
N524 S522 1.610 . S
N524 C525 1.351 . S
C525 C519 1.428 . S
C525 N524 1.351 . S
C525 C526 1.434 . S
C526 C517 1.429 . S
C526 N523 1.350 . S
C526 C525 1.434 . S
C527 C528 1.369 . S
C527 C529 1.419 . S
C527 H531 0.930 . S
C528 C527 1.369 . S
C528 C537 1.429 . S
C529 C527 1.419 . S
C529 C530 1.363 . S
C529 H532 0.929 . S
C530 C529 1.363 . S
C530 C536 1.428 . S
H531 C527 0.930 . S
H532 C529 0.929 . S
S533 N534 1.613 . S
S533 N535 1.610 . S
N534 S533 1.613 . S
N534 C537 1.350 . S
N535 S533 1.610 . S
N535 C536 1.351 . S
C536 C530 1.428 . S
C536 N535 1.351 . S
C536 C537 1.434 . S
C537 C528 1.429 . S
C537 N534 1.350 . S
C537 C536 1.434 . S
C538 C539 1.369 . S
C538 C540 1.419 . S
C538 H542 0.930 . S
C539 C538 1.369 . S
C539 C548 1.429 . S
C540 C538 1.419 . S
C540 C541 1.363 . S
C540 H543 0.929 . S
C541 C540 1.363 . S
C541 C547 1.428 . S
H542 C538 0.930 . S
H543 C540 0.929 . S
S544 N545 1.613 . S
S544 N546 1.610 . S
N545 S544 1.613 . S
N545 C548 1.350 . S
N546 S544 1.610 . S
N546 C547 1.351 . S
C547 C541 1.428 . S
C547 N546 1.351 . S
C547 C548 1.434 . S
C548 C539 1.429 . S
C548 N545 1.350 . S
C548 C547 1.434 . S
C549 C550 1.369 . S
C549 C551 1.419 . S
C549 H553 0.930 . S
C550 C549 1.369 . S
C550 C559 1.429 . S
C551 C549 1.419 . S
C551 C552 1.363 . S
C551 H554 0.929 . S
C552 C551 1.363 . S
C552 C558 1.428 . S
H553 C549 0.930 . S
H554 C551 0.929 . S
S555 N556 1.613 . S
S555 N557 1.610 . S
N556 S555 1.613 . S
N556 C559 1.350 . S
N557 S555 1.610 . S
N557 C558 1.351 . S
C558 C552 1.428 . S
C558 N557 1.351 . S
C558 C559 1.434 . S
C559 C550 1.429 . S
C559 N556 1.350 . S
C559 C558 1.434 . S
C560 C561 1.369 . S
C560 C562 1.419 . S
C560 H564 0.930 . S
C561 C560 1.369 . S
C561 C570 1.429 . S
C562 C560 1.419 . S
C562 C563 1.363 . S
C562 H565 0.929 . S
C563 C562 1.363 . S
C563 C569 1.428 . S
H564 C560 0.930 . S
H565 C562 0.929 . S
S566 N567 1.613 . S
S566 N568 1.610 . S
N567 S566 1.613 . S
N567 C570 1.350 . S
N568 S566 1.610 . S
N568 C569 1.351 . S
C569 C563 1.428 . S
C569 N568 1.351 . S
C569 C570 1.434 . S
C570 C561 1.429 . S
C570 N567 1.350 . S
C570 C569 1.434 . S
C571 C572 1.369 . S
C571 C573 1.419 . S
C571 H575 0.930 . S
C572 C571 1.369 . S
C572 C581 1.429 . S
C573 C571 1.419 . S
C573 C574 1.363 . S
C573 H576 0.929 . S
C574 C573 1.363 . S
C574 C580 1.428 . S
H575 C571 0.930 . S
H576 C573 0.929 . S
S577 N578 1.613 . S
S577 N579 1.610 . S
N578 S577 1.613 . S
N578 C581 1.350 . S
N579 S577 1.610 . S
N579 C580 1.351 . S
C580 C574 1.428 . S
C580 N579 1.351 . S
C580 C581 1.434 . S
C581 C572 1.429 . S
C581 N578 1.350 . S
C581 C580 1.434 . S
C582 C583 1.369 . S
C582 C584 1.419 . S
C582 H586 0.930 . S
C583 C582 1.369 . S
C583 C592 1.429 . S
C584 C582 1.419 . S
C584 C585 1.363 . S
C584 H587 0.929 . S
C585 C584 1.363 . S
C585 C591 1.428 . S
H586 C582 0.930 . S
H587 C584 0.929 . S
S588 N589 1.613 . S
S588 N590 1.610 . S
N589 S588 1.613 . S
N589 C592 1.350 . S
N590 S588 1.610 . S
N590 C591 1.351 . S
C591 C585 1.428 . S
C591 N590 1.351 . S
C591 C592 1.434 . S
C592 C583 1.429 . S
C592 N589 1.350 . S
C592 C591 1.434 . S
C593 C594 1.369 . S
C593 C595 1.419 . S
C593 H597 0.930 . S
C594 C593 1.369 . S
C594 C603 1.429 . S
C595 C593 1.419 . S
C595 C596 1.363 . S
C595 H598 0.929 . S
C596 C595 1.363 . S
C596 C602 1.428 . S
H597 C593 0.930 . S
H598 C595 0.929 . S
S599 N600 1.613 . S
S599 N601 1.610 . S
N600 S599 1.613 . S
N600 C603 1.350 . S
N601 S599 1.610 . S
N601 C602 1.351 . S
C602 C596 1.428 . S
C602 N601 1.351 . S
C602 C603 1.434 . S
C603 C594 1.429 . S
C603 N600 1.350 . S
C603 C602 1.434 . S
C604 C605 1.369 . S
C604 C606 1.419 . S
C604 H608 0.930 . S
C605 C604 1.369 . S
C605 C614 1.429 . S
C606 C604 1.419 . S
C606 C607 1.363 . S
C606 H609 0.929 . S
C607 C606 1.363 . S
C607 C613 1.428 . S
H608 C604 0.930 . S
H609 C606 0.929 . S
S610 N611 1.613 . S
S610 N612 1.610 . S
N611 S610 1.613 . S
N611 C614 1.350 . S
N612 S610 1.610 . S
N612 C613 1.351 . S
C613 C607 1.428 . S
C613 N612 1.351 . S
C613 C614 1.434 . S
C614 C605 1.429 . S
C614 N611 1.350 . S
C614 C613 1.434 . S
C615 C616 1.369 . S
C615 C617 1.419 . S
C615 H619 0.930 . S
C616 C615 1.369 . S
C616 C625 1.429 . S
C617 C615 1.419 . S
C617 C618 1.363 . S
C617 H620 0.929 . S
C618 C617 1.363 . S
C618 C624 1.428 . S
H619 C615 0.930 . S
H620 C617 0.929 . S
S621 N622 1.613 . S
S621 N623 1.610 . S
N622 S621 1.613 . S
N622 C625 1.350 . S
N623 S621 1.610 . S
N623 C624 1.351 . S
C624 C618 1.428 . S
C624 N623 1.351 . S
C624 C625 1.434 . S
C625 C616 1.429 . S
C625 N622 1.350 . S
C625 C624 1.434 . S
C626 C627 1.369 . S
C626 C628 1.419 . S
C626 H630 0.930 . S
C627 C626 1.369 . S
C627 C636 1.429 . S
C628 C626 1.419 . S
C628 C629 1.363 . S
C628 H631 0.929 . S
C629 C628 1.363 . S
C629 C635 1.428 . S
H630 C626 0.930 . S
H631 C628 0.929 . S
S632 N633 1.613 . S
S632 N634 1.610 . S
N633 S632 1.613 . S
N633 C636 1.350 . S
N634 S632 1.610 . S
N634 C635 1.351 . S
C635 C629 1.428 . S
C635 N634 1.351 . S
C635 C636 1.434 . S
C636 C627 1.429 . S
C636 N633 1.350 . S
C636 C635 1.434 . S
C637 C638 1.369 . S
C637 C639 1.419 . S
C637 H641 0.930 . S
C638 C637 1.369 . S
C638 C647 1.429 . S
C639 C637 1.419 . S
C639 C640 1.363 . S
C639 H642 0.929 . S
C640 C639 1.363 . S
C640 C646 1.428 . S
H641 C637 0.930 . S
H642 C639 0.929 . S
S643 N644 1.613 . S
S643 N645 1.610 . S
N644 S643 1.613 . S
N644 C647 1.350 . S
N645 S643 1.610 . S
N645 C646 1.351 . S
C646 C640 1.428 . S
C646 N645 1.351 . S
C646 C647 1.434 . S
C647 C638 1.429 . S
C647 N644 1.350 . S
C647 C646 1.434 . S
C253 C249 1.731 . S
C255 C11 1.730 . S
C264 C221 1.731 . S
C266 C25 1.730 . S
C275 C235 1.732 . S
C277 C39 1.729 . S
C286 C109 1.729 . S
C288 C53 1.731 . S
C297 C123 1.729 . S
C299 C67 1.731 . S
C308 C81 1.729 . S
C310 C95 1.731 . S
C319 C137 1.731 . S
C321 C193 1.729 . S
C330 C151 1.732 . S
C332 C207 1.729 . S
C341 C165 1.732 . S
C343 C179 1.729 . S
C352 C5 0.820 . S
C354 C243 0.821 . S
C363 C215 0.821 . S
C365 C19 0.821 . S
C374 C33 0.820 . S
C376 C229 0.821 . S
C385 C103 0.824 . S
C387 C47 0.818 . S
C396 C61 0.820 . S
C398 C117 0.821 . S
C407 C75 0.818 . S
C409 C89 0.823 . S
C418 C131 0.822 . S
C420 C187 0.819 . S
C429 C201 0.821 . S
C431 C145 0.820 . S
C440 C173 0.817 . S
C442 C159 0.823 . S
C451 C9 1.649 . S
C453 C51 1.650 . S
C462 C65 1.649 . S
C464 C23 1.650 . S
C473 C79 1.649 . S
C475 C37 1.651 . S
C484 C70 1.605 . S
C486 C14 1.606 . S
C495 C28 1.601 . S
C497 C42 1.607 . S
C506 C56 1.608 . S
C508 C0 1.602 . S
C517 C93 1.650 . S
C519 C135 1.650 . S
C528 C149 1.648 . S
C530 C107 1.651 . S
C539 C163 1.650 . S
C541 C121 1.649 . S
C550 C154 1.607 . S
C552 C98 1.602 . S
C561 C112 1.608 . S
C563 C126 1.602 . S
C572 C140 1.606 . S
C574 C84 1.602 . S
C583 C219 1.651 . S
C585 C177 1.649 . S
C594 C233 1.649 . S
C596 C191 1.651 . S
C605 C205 1.652 . S
C607 C247 1.649 . S
C616 C238 1.607 . S
C618 C182 1.605 . S
C627 C196 1.607 . S
C629 C210 1.602 . S
C638 C224 1.605 . S
C640 C168 1.606 . S
